# Generated by pormake.
# Topology wnd, (6)-cn, num edge types: 1
# Building blocks:
#     Node 0, Type 0, BuildingBlock: KUMJIN_clean_sbu_1, # of connection points: 6
#     Node 1, Type 0, BuildingBlock: KUMJIN_clean_sbu_1, # of connection points: 6
#     Node 2, Type 0, BuildingBlock: KUMJIN_clean_sbu_1, # of connection points: 6
#     Node 3, Type 0, BuildingBlock: KUMJIN_clean_sbu_1, # of connection points: 6
#     Node 4, Type 0, BuildingBlock: KUMJIN_clean_sbu_1, # of connection points: 6
#     Node 5, Type 0, BuildingBlock: KUMJIN_clean_sbu_1, # of connection points: 6
#     Node 6, Type 0, BuildingBlock: KUMJIN_clean_sbu_1, # of connection points: 6
#     Node 7, Type 0, BuildingBlock: KUMJIN_clean_sbu_1, # of connection points: 6
#     Node 8, Type 0, BuildingBlock: KUMJIN_clean_sbu_1, # of connection points: 6
#     Node 9, Type 0, BuildingBlock: KUMJIN_clean_sbu_1, # of connection points: 6
#     Node 10, Type 0, BuildingBlock: KUMJIN_clean_sbu_1, # of connection points: 6
#     Node 11, Type 0, BuildingBlock: KUMJIN_clean_sbu_1, # of connection points: 6
#     Node 12, Type 0, BuildingBlock: KUMJIN_clean_sbu_1, # of connection points: 6
#     Node 13, Type 0, BuildingBlock: KUMJIN_clean_sbu_1, # of connection points: 6
#     Node 14, Type 0, BuildingBlock: KUMJIN_clean_sbu_1, # of connection points: 6
#     Node 15, Type 0, BuildingBlock: KUMJIN_clean_sbu_1, # of connection points: 6
#     Node 16, Type 0, BuildingBlock: KUMJIN_clean_sbu_1, # of connection points: 6
#     Node 17, Type 0, BuildingBlock: KUMJIN_clean_sbu_1, # of connection points: 6
#     Node 18, Type 0, BuildingBlock: KUMJIN_clean_sbu_1, # of connection points: 6
#     Node 19, Type 0, BuildingBlock: KUMJIN_clean_sbu_1, # of connection points: 6
#     Node 20, Type 0, BuildingBlock: KUMJIN_clean_sbu_1, # of connection points: 6
#     Node 21, Type 0, BuildingBlock: KUMJIN_clean_sbu_1, # of connection points: 6
#     Node 22, Type 0, BuildingBlock: KUMJIN_clean_sbu_1, # of connection points: 6
#     Node 23, Type 0, BuildingBlock: KUMJIN_clean_sbu_1, # of connection points: 6
#     Node 24, Type 0, BuildingBlock: KUMJIN_clean_sbu_1, # of connection points: 6
#     Node 25, Type 0, BuildingBlock: KUMJIN_clean_sbu_1, # of connection points: 6
#     Node 26, Type 0, BuildingBlock: KUMJIN_clean_sbu_1, # of connection points: 6
#     Node 27, Type 0, BuildingBlock: KUMJIN_clean_sbu_1, # of connection points: 6
#     Node 28, Type 0, BuildingBlock: KUMJIN_clean_sbu_1, # of connection points: 6
#     Node 29, Type 0, BuildingBlock: KUMJIN_clean_sbu_1, # of connection points: 6
#     Node 30, Type 0, BuildingBlock: KUMJIN_clean_sbu_1, # of connection points: 6
#     Node 31, Type 0, BuildingBlock: KUMJIN_clean_sbu_1, # of connection points: 6
#     Node 32, Type 0, BuildingBlock: KUMJIN_clean_sbu_1, # of connection points: 6
#     Node 33, Type 0, BuildingBlock: KUMJIN_clean_sbu_1, # of connection points: 6
#     Node 34, Type 0, BuildingBlock: KUMJIN_clean_sbu_1, # of connection points: 6
#     Node 35, Type 0, BuildingBlock: KUMJIN_clean_sbu_1, # of connection points: 6
#     Edge 36, Type (0, 0), BuildingBlock: XUDNAN_clean_linker_2, # of connection points: 2
#     Edge 37, Type (0, 0), BuildingBlock: XUDNAN_clean_linker_2, # of connection points: 2
#     Edge 38, Type (0, 0), BuildingBlock: XUDNAN_clean_linker_2, # of connection points: 2
#     Edge 39, Type (0, 0), BuildingBlock: XUDNAN_clean_linker_2, # of connection points: 2
#     Edge 40, Type (0, 0), BuildingBlock: XUDNAN_clean_linker_2, # of connection points: 2
#     Edge 41, Type (0, 0), BuildingBlock: XUDNAN_clean_linker_2, # of connection points: 2
#     Edge 42, Type (0, 0), BuildingBlock: XUDNAN_clean_linker_2, # of connection points: 2
#     Edge 43, Type (0, 0), BuildingBlock: XUDNAN_clean_linker_2, # of connection points: 2
#     Edge 44, Type (0, 0), BuildingBlock: XUDNAN_clean_linker_2, # of connection points: 2
#     Edge 45, Type (0, 0), BuildingBlock: XUDNAN_clean_linker_2, # of connection points: 2
#     Edge 46, Type (0, 0), BuildingBlock: XUDNAN_clean_linker_2, # of connection points: 2
#     Edge 47, Type (0, 0), BuildingBlock: XUDNAN_clean_linker_2, # of connection points: 2
#     Edge 48, Type (0, 0), BuildingBlock: XUDNAN_clean_linker_2, # of connection points: 2
#     Edge 49, Type (0, 0), BuildingBlock: XUDNAN_clean_linker_2, # of connection points: 2
#     Edge 50, Type (0, 0), BuildingBlock: XUDNAN_clean_linker_2, # of connection points: 2
#     Edge 51, Type (0, 0), BuildingBlock: XUDNAN_clean_linker_2, # of connection points: 2
#     Edge 52, Type (0, 0), BuildingBlock: XUDNAN_clean_linker_2, # of connection points: 2
#     Edge 53, Type (0, 0), BuildingBlock: XUDNAN_clean_linker_2, # of connection points: 2
#     Edge 54, Type (0, 0), BuildingBlock: XUDNAN_clean_linker_2, # of connection points: 2
#     Edge 55, Type (0, 0), BuildingBlock: XUDNAN_clean_linker_2, # of connection points: 2
#     Edge 56, Type (0, 0), BuildingBlock: XUDNAN_clean_linker_2, # of connection points: 2
#     Edge 57, Type (0, 0), BuildingBlock: XUDNAN_clean_linker_2, # of connection points: 2
#     Edge 58, Type (0, 0), BuildingBlock: XUDNAN_clean_linker_2, # of connection points: 2
#     Edge 59, Type (0, 0), BuildingBlock: XUDNAN_clean_linker_2, # of connection points: 2
#     Edge 60, Type (0, 0), BuildingBlock: XUDNAN_clean_linker_2, # of connection points: 2
#     Edge 61, Type (0, 0), BuildingBlock: XUDNAN_clean_linker_2, # of connection points: 2
#     Edge 62, Type (0, 0), BuildingBlock: XUDNAN_clean_linker_2, # of connection points: 2
#     Edge 63, Type (0, 0), BuildingBlock: XUDNAN_clean_linker_2, # of connection points: 2
#     Edge 64, Type (0, 0), BuildingBlock: XUDNAN_clean_linker_2, # of connection points: 2
#     Edge 65, Type (0, 0), BuildingBlock: XUDNAN_clean_linker_2, # of connection points: 2
#     Edge 66, Type (0, 0), BuildingBlock: XUDNAN_clean_linker_2, # of connection points: 2
#     Edge 67, Type (0, 0), BuildingBlock: XUDNAN_clean_linker_2, # of connection points: 2
#     Edge 68, Type (0, 0), BuildingBlock: XUDNAN_clean_linker_2, # of connection points: 2
#     Edge 69, Type (0, 0), BuildingBlock: XUDNAN_clean_linker_2, # of connection points: 2
#     Edge 70, Type (0, 0), BuildingBlock: XUDNAN_clean_linker_2, # of connection points: 2
#     Edge 71, Type (0, 0), BuildingBlock: XUDNAN_clean_linker_2, # of connection points: 2
#     Edge 72, Type (0, 0), BuildingBlock: XUDNAN_clean_linker_2, # of connection points: 2
#     Edge 73, Type (0, 0), BuildingBlock: XUDNAN_clean_linker_2, # of connection points: 2
#     Edge 74, Type (0, 0), BuildingBlock: XUDNAN_clean_linker_2, # of connection points: 2
#     Edge 75, Type (0, 0), BuildingBlock: XUDNAN_clean_linker_2, # of connection points: 2
#     Edge 76, Type (0, 0), BuildingBlock: XUDNAN_clean_linker_2, # of connection points: 2
#     Edge 77, Type (0, 0), BuildingBlock: XUDNAN_clean_linker_2, # of connection points: 2
#     Edge 78, Type (0, 0), BuildingBlock: XUDNAN_clean_linker_2, # of connection points: 2
#     Edge 79, Type (0, 0), BuildingBlock: XUDNAN_clean_linker_2, # of connection points: 2
#     Edge 80, Type (0, 0), BuildingBlock: XUDNAN_clean_linker_2, # of connection points: 2
#     Edge 81, Type (0, 0), BuildingBlock: XUDNAN_clean_linker_2, # of connection points: 2
#     Edge 82, Type (0, 0), BuildingBlock: XUDNAN_clean_linker_2, # of connection points: 2
#     Edge 83, Type (0, 0), BuildingBlock: XUDNAN_clean_linker_2, # of connection points: 2
#     Edge 84, Type (0, 0), BuildingBlock: XUDNAN_clean_linker_2, # of connection points: 2
#     Edge 85, Type (0, 0), BuildingBlock: XUDNAN_clean_linker_2, # of connection points: 2
#     Edge 86, Type (0, 0), BuildingBlock: XUDNAN_clean_linker_2, # of connection points: 2
#     Edge 87, Type (0, 0), BuildingBlock: XUDNAN_clean_linker_2, # of connection points: 2
#     Edge 88, Type (0, 0), BuildingBlock: XUDNAN_clean_linker_2, # of connection points: 2
#     Edge 89, Type (0, 0), BuildingBlock: XUDNAN_clean_linker_2, # of connection points: 2
#     Edge 90, Type (0, 0), BuildingBlock: XUDNAN_clean_linker_2, # of connection points: 2
#     Edge 91, Type (0, 0), BuildingBlock: XUDNAN_clean_linker_2, # of connection points: 2
#     Edge 92, Type (0, 0), BuildingBlock: XUDNAN_clean_linker_2, # of connection points: 2
#     Edge 93, Type (0, 0), BuildingBlock: XUDNAN_clean_linker_2, # of connection points: 2
#     Edge 94, Type (0, 0), BuildingBlock: XUDNAN_clean_linker_2, # of connection points: 2
#     Edge 95, Type (0, 0), BuildingBlock: XUDNAN_clean_linker_2, # of connection points: 2
#     Edge 96, Type (0, 0), BuildingBlock: XUDNAN_clean_linker_2, # of connection points: 2
#     Edge 97, Type (0, 0), BuildingBlock: XUDNAN_clean_linker_2, # of connection points: 2
#     Edge 98, Type (0, 0), BuildingBlock: XUDNAN_clean_linker_2, # of connection points: 2
#     Edge 99, Type (0, 0), BuildingBlock: XUDNAN_clean_linker_2, # of connection points: 2
#     Edge 100, Type (0, 0), BuildingBlock: XUDNAN_clean_linker_2, # of connection points: 2
#     Edge 101, Type (0, 0), BuildingBlock: XUDNAN_clean_linker_2, # of connection points: 2
#     Edge 102, Type (0, 0), BuildingBlock: XUDNAN_clean_linker_2, # of connection points: 2
#     Edge 103, Type (0, 0), BuildingBlock: XUDNAN_clean_linker_2, # of connection points: 2
#     Edge 104, Type (0, 0), BuildingBlock: XUDNAN_clean_linker_2, # of connection points: 2
#     Edge 105, Type (0, 0), BuildingBlock: XUDNAN_clean_linker_2, # of connection points: 2
#     Edge 106, Type (0, 0), BuildingBlock: XUDNAN_clean_linker_2, # of connection points: 2
#     Edge 107, Type (0, 0), BuildingBlock: XUDNAN_clean_linker_2, # of connection points: 2
#     Edge 108, Type (0, 0), BuildingBlock: XUDNAN_clean_linker_2, # of connection points: 2
#     Edge 109, Type (0, 0), BuildingBlock: XUDNAN_clean_linker_2, # of connection points: 2
#     Edge 110, Type (0, 0), BuildingBlock: XUDNAN_clean_linker_2, # of connection points: 2
#     Edge 111, Type (0, 0), BuildingBlock: XUDNAN_clean_linker_2, # of connection points: 2
#     Edge 112, Type (0, 0), BuildingBlock: XUDNAN_clean_linker_2, # of connection points: 2
#     Edge 113, Type (0, 0), BuildingBlock: XUDNAN_clean_linker_2, # of connection points: 2
#     Edge 114, Type (0, 0), BuildingBlock: XUDNAN_clean_linker_2, # of connection points: 2
#     Edge 115, Type (0, 0), BuildingBlock: XUDNAN_clean_linker_2, # of connection points: 2
#     Edge 116, Type (0, 0), BuildingBlock: XUDNAN_clean_linker_2, # of connection points: 2
#     Edge 117, Type (0, 0), BuildingBlock: XUDNAN_clean_linker_2, # of connection points: 2
#     Edge 118, Type (0, 0), BuildingBlock: XUDNAN_clean_linker_2, # of connection points: 2
#     Edge 119, Type (0, 0), BuildingBlock: XUDNAN_clean_linker_2, # of connection points: 2
#     Edge 120, Type (0, 0), BuildingBlock: XUDNAN_clean_linker_2, # of connection points: 2
#     Edge 121, Type (0, 0), BuildingBlock: XUDNAN_clean_linker_2, # of connection points: 2
#     Edge 122, Type (0, 0), BuildingBlock: XUDNAN_clean_linker_2, # of connection points: 2
#     Edge 123, Type (0, 0), BuildingBlock: XUDNAN_clean_linker_2, # of connection points: 2
#     Edge 124, Type (0, 0), BuildingBlock: XUDNAN_clean_linker_2, # of connection points: 2
#     Edge 125, Type (0, 0), BuildingBlock: XUDNAN_clean_linker_2, # of connection points: 2
#     Edge 126, Type (0, 0), BuildingBlock: XUDNAN_clean_linker_2, # of connection points: 2
#     Edge 127, Type (0, 0), BuildingBlock: XUDNAN_clean_linker_2, # of connection points: 2
#     Edge 128, Type (0, 0), BuildingBlock: XUDNAN_clean_linker_2, # of connection points: 2
#     Edge 129, Type (0, 0), BuildingBlock: XUDNAN_clean_linker_2, # of connection points: 2
#     Edge 130, Type (0, 0), BuildingBlock: XUDNAN_clean_linker_2, # of connection points: 2
#     Edge 131, Type (0, 0), BuildingBlock: XUDNAN_clean_linker_2, # of connection points: 2
#     Edge 132, Type (0, 0), BuildingBlock: XUDNAN_clean_linker_2, # of connection points: 2
#     Edge 133, Type (0, 0), BuildingBlock: XUDNAN_clean_linker_2, # of connection points: 2
#     Edge 134, Type (0, 0), BuildingBlock: XUDNAN_clean_linker_2, # of connection points: 2
#     Edge 135, Type (0, 0), BuildingBlock: XUDNAN_clean_linker_2, # of connection points: 2
#     Edge 136, Type (0, 0), BuildingBlock: XUDNAN_clean_linker_2, # of connection points: 2
#     Edge 137, Type (0, 0), BuildingBlock: XUDNAN_clean_linker_2, # of connection points: 2
#     Edge 138, Type (0, 0), BuildingBlock: XUDNAN_clean_linker_2, # of connection points: 2
#     Edge 139, Type (0, 0), BuildingBlock: XUDNAN_clean_linker_2, # of connection points: 2
#     Edge 140, Type (0, 0), BuildingBlock: XUDNAN_clean_linker_2, # of connection points: 2
#     Edge 141, Type (0, 0), BuildingBlock: XUDNAN_clean_linker_2, # of connection points: 2
#     Edge 142, Type (0, 0), BuildingBlock: XUDNAN_clean_linker_2, # of connection points: 2
#     Edge 143, Type (0, 0), BuildingBlock: XUDNAN_clean_linker_2, # of connection points: 2
# Relax obj value: 0.055
# Max RMSD: 0.164
# Mean RMSD: 0.164
data_MOF--net-wnd--node1-KUMJIN_clean_sbu_1--edge1-XUDNAN_clean_linker_2
_symmetry_space_group_name_H-M    P1
_symmetry_Int_Tables_number       1
_symmetry_cell_setting            triclinic
loop_
_symmetry_equiv_pos_as_xyz
'x, y, z'
_cell_length_a     39.528904
_cell_length_b     39.581423
_cell_length_c     161.58427
_cell_angle_alpha  90.01975
_cell_angle_beta   90.009799
_cell_angle_gamma 119.99921
loop_
_atom_site_label
_atom_site_type_symbol
_atom_site_fract_x
_atom_site_fract_y
_atom_site_fract_z
_atom_type_partial_charge
Eu0 Eu 0.53256 0.01929 0.05543 0.0
C1 C 0.40353 0.02744 0.03501 0.0
N2 N 0.44246 0.05024 0.03349 0.0
C3 C 0.43119 0.04078 0.0189 0.0
C4 C 0.3769 0.00976 0.02844 0.0
C5 C 0.45652 0.05773 0.0256 0.0
C6 C 0.39124 0.01656 0.02032 0.0
C7 C 0.35016 0.99703 0.0449 0.0
C8 C 0.39027 0.02111 0.04318 0.0
C9 C 0.32365 0.97941 0.03836 0.0
C10 C 0.33696 0.98575 0.03016 0.0
Eu11 Eu 0.48259 0.0755 0.04523 0.0
N12 N 0.41674 0.03744 0.04944 0.0
C13 C 0.33788 0.99123 0.05317 0.0
C14 C 0.4047 0.03327 0.05746 0.0
C15 C 0.36524 0.00975 0.05947 0.0
H16 H 0.48723 0.07713 0.02446 0.0
H17 H 0.35595 0.00607 0.06587 0.0
H18 H 0.52113 0.01616 0.07623 0.0
H19 H 0.66496 0.07305 0.03689 0.0
H20 H 0.42525 0.04814 0.06232 0.0
H21 H 0.30733 0.97288 0.05475 0.0
H22 H 0.59487 0.04798 0.03931 0.0
H23 H 0.44249 0.0465 0.01264 0.0
H24 H 0.29274 0.96076 0.03957 0.0
H25 H 0.31609 0.97187 0.02519 0.0
H26 H 0.56218 0.03187 0.08869 0.0
H27 H 0.37169 1.00343 0.01511 0.0
H28 H 0.70938 0.08621 0.04876 0.0
N29 N 0.56894 0.03626 0.06785 0.0
C30 C 0.60799 0.05044 0.06696 0.0
C31 C 0.57544 0.03743 0.08262 0.0
C32 C 0.63222 0.05801 0.07394 0.0
C33 C 0.55234 0.02923 0.07553 0.0
C34 C 0.61553 0.0518 0.08183 0.0
N35 N 0.59994 0.05007 0.05242 0.0
C36 C 0.6141 0.05502 0.04454 0.0
C37 C 0.66384 0.06987 0.05792 0.0
C38 C 0.62378 0.05681 0.05904 0.0
C39 C 0.67873 0.07605 0.04986 0.0
C40 C 0.65378 0.06878 0.04315 0.0
H41 H 0.63321 0.05746 0.08734 0.0
H42 H 0.69103 0.0764 0.07813 0.0
H43 H 0.7185 0.08594 0.06411 0.0
O44 O 0.5323 0.97043 0.04904 0.0
O45 O 0.57288 0.08515 0.05457 0.0
O46 O 0.54876 0.10569 0.04377 0.0
O47 O 0.53094 0.97059 0.06238 0.0
O48 O 0.52061 0.01408 0.04111 0.0
O49 O 0.5243 0.07131 0.0365 0.0
O50 O 0.47272 0.11967 0.05103 0.0
O51 O 0.45184 0.00838 0.04481 0.0
O52 O 0.46791 0.99323 0.05724 0.0
O53 O 0.48322 0.12211 0.03786 0.0
O54 O 0.50928 0.09059 0.05796 0.0
O55 O 0.49611 0.03459 0.06448 0.0
C56 C 0.57697 0.11088 0.04891 0.0
C57 C 0.51311 0.90976 0.05568 0.0
C58 C 0.51688 0.84958 0.05511 0.0
C59 C 0.47609 0.82817 0.05416 0.0
C60 C 0.47246 0.88759 0.05481 0.0
C61 C 0.45411 0.84702 0.05409 0.0
C62 C 0.53524 0.89057 0.05595 0.0
C63 C 0.52579 0.03942 0.03512 0.0
C64 C 0.53323 0.95289 0.05579 0.0
C65 C 0.67208 0.0708 0.07284 0.0
C66 C 0.68771 0.07614 0.06486 0.0
C67 C 0.44473 0.98343 0.05085 0.0
C68 C 0.51034 0.18164 0.04515 0.0
C69 C 0.52984 0.24945 0.04794 0.0
C70 C 0.56923 0.25927 0.04762 0.0
C71 C 0.54985 0.19232 0.04468 0.0
C72 C 0.5003 0.21042 0.04672 0.0
C73 C 0.57913 0.2308 0.04594 0.0
C74 C 0.49765 0.06885 0.06456 0.0
C75 C 0.4801 0.14032 0.04429 0.0
H76 H 0.46114 0.79669 0.05359 0.0
H77 H 0.45502 0.9017 0.05459 0.0
H78 H 0.42267 0.83009 0.05342 0.0
H79 H 0.56671 0.90755 0.05662 0.0
H80 H 0.59238 0.28929 0.04833 0.0
H81 H 0.55801 0.17085 0.04333 0.0
H82 H 0.46984 0.20264 0.04693 0.0
H83 H 0.60952 0.23864 0.04551 0.0
Eu84 Eu 0.07235 0.55884 0.05692 0.0
C85 C 0.0446 0.40907 0.0343 0.0
N86 N 0.02857 0.43228 0.03337 0.0
C87 C 0.02621 0.42375 0.01866 0.0
C88 C 0.05136 0.39161 0.02735 0.0
C89 C 0.01976 0.44023 0.02571 0.0
C90 C 0.04174 0.39908 0.01949 0.0
C91 C 0.07417 0.38137 0.04317 0.0
C92 C 0.05579 0.40391 0.04216 0.0
C93 C 0.07937 0.36271 0.03631 0.0
C94 C 0.06804 0.36784 0.02843 0.0
Eu95 Eu 0.01491 0.45488 0.04569 0.0
N96 N 0.05116 0.42295 0.0487 0.0
C97 C 0.088 0.37921 0.051 0.0
C98 C 0.0669 0.42272 0.05622 0.0
C99 C 0.08496 0.40056 0.05752 0.0
H100 H 1.00638 0.4581 0.02509 0.0
H101 H 0.09699 0.40041 0.06353 0.0
H102 H 0.06218 0.5462 0.07753 0.0
H103 H 0.02676 0.63861 0.03621 0.0
H104 H 0.06703 0.44065 0.06119 0.0
H105 H 0.10234 0.36231 0.05202 0.0
H106 H 0.05777 0.60036 0.03977 0.0
H107 H 0.01879 0.42963 0.0126 0.0
H108 H 0.09305 0.34502 0.03701 0.0
H109 H 0.07303 0.3539 0.02317 0.0
H110 H 0.03405 0.56453 0.08913 0.0
H111 H 0.04655 0.38624 0.01401 0.0
H112 H 0.99627 0.65825 0.04711 0.0
N113 N 0.04528 0.5736 0.0684 0.0
C114 C 0.02837 0.59559 0.06682 0.0
C115 C 0.03206 0.57325 0.08288 0.0
C116 C 0.01242 0.60715 0.07329 0.0
C117 C 0.04755 0.56252 0.07628 0.0
C118 C 0.01442 0.59566 0.08139 0.0
N119 N 0.0419 0.5944 0.05251 0.0
C120 C 0.04301 0.60671 0.04457 0.0
C121 C 1.00946 0.6293 0.0569 0.0
C122 C 0.02674 0.60637 0.05868 0.0
C123 C 1.00903 0.64044 0.04871 0.0
C124 C 0.02608 0.62929 0.04253 0.0
H125 H 1.00259 0.60406 0.08653 0.0
H126 H 0.98281 0.63905 0.07642 0.0
H127 H 0.98029 0.65849 0.06209 0.0
O128 O 0.12692 0.60982 0.05241 0.0
O129 O 1.0064 0.52781 0.05711 0.0
O130 O 0.98982 0.49586 0.04462 0.0
O131 O 0.11446 0.60185 0.0655 0.0
O132 O 0.08161 0.55568 0.04259 0.0
O133 O 0.02316 0.50492 0.03787 0.0
O134 O 0.96313 0.4097 0.0519 0.0
O135 O 0.08267 0.48599 0.04531 0.0
O136 O 0.09402 0.51682 0.05765 0.0
O137 O 0.96561 0.4107 0.0385 0.0
O138 O 1.00256 0.4602 0.05918 0.0
O139 O 0.0585 0.50573 0.06563 0.0
C140 C 0.98191 0.51162 0.05097 0.0
C141 C 0.18026 0.6489 0.06181 0.0
C142 C 0.24136 0.71183 0.06072 0.0
C143 C 0.25706 0.70008 0.06717 0.0
C144 C 0.19681 0.63827 0.06828 0.0
C145 C 0.23507 0.66351 0.07085 0.0
C146 C 0.20298 0.6857 0.05796 0.0
C147 C 0.05703 0.53594 0.03645 0.0
C148 C 0.1381 0.62449 0.05979 0.0
C149 C 0.99509 0.62981 0.07151 0.0
C150 C 0.99362 0.64085 0.06335 0.0
C151 C 0.10732 0.50807 0.05112 0.0
C152 C 0.92036 0.3512 0.04496 0.0
C153 C 0.85497 0.29477 0.04574 0.0
C154 C 0.87117 0.27025 0.04561 0.0
C155 C 0.93637 0.32664 0.04475 0.0
C156 C 0.87977 0.33524 0.04538 0.0
C157 C 0.91168 0.28618 0.04506 0.0
C158 C 0.02563 0.47105 0.06561 0.0
C159 C 0.94487 0.39362 0.04504 0.0
H160 H 0.2865 0.71932 0.06937 0.0
H161 H 0.17993 0.61072 0.07147 0.0
H162 H 0.24751 0.65499 0.07584 0.0
H163 H 0.19024 0.69468 0.0531 0.0
H164 H 0.85244 0.23885 0.04579 0.0
H165 H 0.9677 0.33871 0.0444 0.0
H166 H 0.86744 0.35433 0.04551 0.0
H167 H 0.92395 0.26712 0.04487 0.0
Eu168 Eu 0.53446 0.55965 0.05578 0.0
C169 C 0.67713 0.68514 0.0348 0.0
N170 N 0.65638 0.64619 0.03319 0.0
C171 C 0.66254 0.65867 0.01862 0.0
C172 C 0.69038 0.71247 0.02828 0.0
C173 C 0.64888 0.63258 0.02526 0.0
C174 C 0.68281 0.69874 0.02013 0.0
C175 C 0.70715 0.73808 0.04478 0.0
C176 C 0.68576 0.69784 0.04299 0.0
C177 C 0.71962 0.76529 0.0383 0.0
C178 C 0.7114 0.75253 0.03008 0.0
Eu179 Eu 0.63886 0.60523 0.04482 0.0
N180 N 0.67316 0.67091 0.04918 0.0
C181 C 0.71577 0.74984 0.05305 0.0
C182 C 0.6831 0.6822 0.0572 0.0
C183 C 0.70398 0.72175 0.05928 0.0
H184 H 0.63377 0.60159 0.02403 0.0
H185 H 0.71129 0.73053 0.06568 0.0
H186 H 0.54324 0.56271 0.07652 0.0
H187 H 0.44301 0.43472 0.03593 0.0
H188 H 0.67541 0.66101 0.06201 0.0
H189 H 0.73211 0.78048 0.05468 0.0
H190 H 0.48232 0.50418 0.03961 0.0
H191 H 0.6582 0.64796 0.01235 0.0
H192 H 0.73607 0.7963 0.03957 0.0
H193 H 0.7217 0.7739 0.02514 0.0
H194 H 0.52527 0.51684 0.08822 0.0
H195 H 0.69314 0.71881 0.01495 0.0
H196 H 0.42849 0.3842 0.04653 0.0
N197 N 0.51721 0.51795 0.06744 0.0
C198 C 0.49605 0.47895 0.06594 0.0
C199 C 0.51709 0.5058 0.08198 0.0
C200 C 0.4848 0.45173 0.07246 0.0
C201 C 0.52748 0.5317 0.07532 0.0
C202 C 0.49585 0.46564 0.08054 0.0
N203 N 0.49444 0.49347 0.05182 0.0
C204 C 0.47827 0.4826 0.04414 0.0
C205 C 0.46057 0.42616 0.05618 0.0
C206 C 0.48428 0.4663 0.0579 0.0
C207 C 0.44677 0.41473 0.04811 0.0
C208 C 0.45503 0.44314 0.0421 0.0
H209 H 0.48764 0.44567 0.08572 0.0
H210 H 0.45358 0.39031 0.07565 0.0
H211 H 0.43232 0.36794 0.0614 0.0
O212 O 0.48917 0.57097 0.05086 0.0
O213 O 0.56273 0.52186 0.05548 0.0
O214 O 0.59857 0.53952 0.04343 0.0
O215 O 0.49177 0.56269 0.06393 0.0
O216 O 0.53716 0.56897 0.04133 0.0
O217 O 0.59075 0.56662 0.03615 0.0
O218 O 0.68853 0.60224 0.05006 0.0
O219 O 0.60793 0.64182 0.04548 0.0
O220 O 0.57748 0.62292 0.05795 0.0
O221 O 0.68366 0.60591 0.03684 0.0
O222 O 0.63237 0.58352 0.05796 0.0
O223 O 0.58731 0.59419 0.06465 0.0
C224 C 0.57891 0.51394 0.04927 0.0
C225 C 0.42867 0.53838 0.05805 0.0
C226 C 0.36085 0.5229 0.05571 0.0
C227 C 0.34805 0.48408 0.05799 0.0
C228 C 0.41452 0.49952 0.06046 0.0
C229 C 0.37467 0.47262 0.06037 0.0
C230 C 0.40152 0.55018 0.05577 0.0
C231 C 0.5571 0.56507 0.03508 0.0
C232 C 0.47156 0.56602 0.05795 0.0
C233 C 0.46234 0.41165 0.07073 0.0
C234 C 0.45029 0.39891 0.06261 0.0
C235 C 0.59144 0.64811 0.05193 0.0
C236 C 0.70968 0.56744 0.04164 0.0
C237 C 0.75186 0.5393 0.04332 0.0
C238 C 0.72462 0.506 0.03899 0.0
C239 C 0.6825 0.53357 0.0374 0.0
C240 C 0.74432 0.57005 0.04467 0.0
C241 C 0.69006 0.50314 0.03608 0.0
C242 C 0.61951 0.59151 0.06472 0.0
C243 C 0.70198 0.59996 0.04284 0.0
H244 H 0.31718 0.46269 0.05818 0.0
H245 H 0.43422 0.48988 0.06249 0.0
H246 H 0.36433 0.44279 0.06226 0.0
H247 H 0.41193 0.58024 0.05403 0.0
H248 H 0.72999 0.48204 0.03794 0.0
H249 H 0.65549 0.53071 0.03507 0.0
H250 H 0.76527 0.59581 0.04803 0.0
H251 H 0.66907 0.47724 0.03278 0.0
Eu252 Eu 0.01769 0.53153 0.45419 0.0
C253 C 0.03373 0.40649 0.47589 0.0
N254 N 0.05437 0.44601 0.47665 0.0
C255 C 0.04892 0.4406 0.49142 0.0
C256 C 0.01889 0.38245 0.48293 0.0
C257 C 0.06309 0.46326 0.48426 0.0
C258 C 0.02633 0.40006 0.49075 0.0
C259 C 1.00783 0.34905 0.46709 0.0
C260 C 0.02807 0.38994 0.46803 0.0
C261 C 0.99227 0.32509 0.47408 0.0
C262 C 0.99771 0.34173 0.48197 0.0
Eu263 Eu 0.07586 0.48125 0.46416 0.0
N264 N 0.04278 0.41383 0.46133 0.0
C265 C 1.0044 0.33346 0.45915 0.0
C266 C 0.04213 0.39884 0.45372 0.0
C267 C 0.02225 0.3585 0.45246 0.0
H268 H 0.08163 0.49448 0.48481 0.0
H269 H 0.02132 0.34676 0.44636 0.0
H270 H 0.02363 0.53022 0.43354 0.0
H271 H 0.07785 0.65604 0.47564 0.0
H272 H 0.05808 0.41783 0.44869 0.0
H273 H 0.98913 0.3022 0.45816 0.0
H274 H 0.03946 0.58734 0.47173 0.0
H275 H 0.05561 0.45441 0.49745 0.0
H276 H 0.97638 0.29361 0.47346 0.0
H277 H 0.98591 0.32281 0.48731 0.0
H278 H 0.05089 0.57729 0.422 0.0
H279 H 0.01545 0.38258 0.49631 0.0
H280 H 0.10972 0.70655 0.46486 0.0
N281 N 0.04458 0.57407 0.44284 0.0
C282 C 0.064 0.61286 0.44459 0.0
C283 C 0.05493 0.58766 0.42832 0.0
C284 C 0.07996 0.64072 0.43819 0.0
C285 C 0.03982 0.56109 0.43487 0.0
C286 C 0.07504 0.62765 0.42998 0.0
N287 N 0.05351 0.59716 0.45891 0.0
C288 C 0.0552 0.60824 0.46698 0.0
C289 C 0.08969 0.66487 0.4548 0.0
C290 C 0.06885 0.62472 0.45284 0.0
C291 C 0.0938 0.67604 0.46311 0.0
C292 C 0.07611 0.64761 0.46921 0.0
H293 H 0.08674 0.64816 0.42489 0.0
H294 H 0.11294 0.7024 0.4353 0.0
H295 H 0.12153 0.72354 0.44983 0.0
O296 O 0.96768 0.53571 0.45907 0.0
O297 O 0.08298 0.5597 0.45202 0.0
O298 O 0.10383 0.54729 0.46424 0.0
O299 O 0.97367 0.53148 0.44594 0.0
O300 O 0.01174 0.51798 0.46833 0.0
O301 O 0.0722 0.52709 0.47174 0.0
O302 O 0.12956 0.4875 0.45872 0.0
O303 O 1.00855 0.4469 0.46517 0.0
O304 O 0.99228 0.46694 0.4534 0.0
O305 O 0.11879 0.47701 0.47182 0.0
O306 O 0.07957 0.48815 0.45009 0.0
O307 O 0.02426 0.48898 0.4453 0.0
C308 C 0.1103 0.56879 0.45759 0.0
C309 C 0.91076 0.51869 0.45069 0.0
C310 C 0.8512 0.52289 0.45266 0.0
C311 C 0.83 0.48785 0.44825 0.0
C312 C 0.8891 0.48509 0.44585 0.0
C313 C 0.84891 0.46935 0.44482 0.0
C314 C 0.89168 0.53803 0.45394 0.0
C315 C 0.03868 0.52356 0.47392 0.0
C316 C 0.95368 0.53594 0.45179 0.0
C317 C 0.10055 0.68061 0.44015 0.0
C318 C 0.10549 0.69263 0.44842 0.0
C319 C 0.98214 0.44418 0.45984 0.0
C320 C 0.18393 0.51724 0.46775 0.0
C321 C 0.25406 0.54358 0.46664 0.0
C322 C 0.26024 0.57263 0.47241 0.0
C323 C 0.19058 0.54707 0.47338 0.0
C324 C 0.21584 0.51604 0.46427 0.0
C325 C 0.22859 0.57444 0.47572 0.0
C326 C 0.05504 0.48417 0.44413 0.0
C327 C 0.14398 0.48604 0.46588 0.0
H328 H 0.79903 0.47571 0.44712 0.0
H329 H 0.90317 0.47099 0.44282 0.0
H330 H 0.83244 0.44308 0.44119 0.0
H331 H 0.90838 0.56516 0.4573 0.0
H332 H 0.28957 0.59391 0.47434 0.0
H333 H 0.16639 0.54869 0.47611 0.0
H334 H 0.21093 0.49305 0.45995 0.0
H335 H 0.23353 0.59668 0.48022 0.0
Eu336 Eu 0.55708 0.52619 0.45491 0.0
C337 C 0.67063 0.66913 0.47731 0.0
N338 N 0.6313 0.64637 0.47817 0.0
C339 C 0.63828 0.64381 0.49284 0.0
C340 C 0.69555 0.67908 0.48423 0.0
C341 C 0.6148 0.63488 0.48579 0.0
C342 C 0.67889 0.66562 0.49204 0.0
C343 C 0.72656 0.70734 0.46842 0.0
C344 C 0.68597 0.68298 0.46949 0.0
C345 C 0.75156 0.71652 0.47526 0.0
C346 C 0.73611 0.70239 0.48314 0.0
Eu347 Eu 0.59438 0.63006 0.46587 0.0
N348 N 0.66115 0.6726 0.46292 0.0
C349 C 0.74074 0.72215 0.46052 0.0
C350 C 0.67457 0.6885 0.45531 0.0
C351 C 0.71454 0.71327 0.45397 0.0
H352 H 0.58347 0.6194 0.48644 0.0
H353 H 0.7251 0.72537 0.44788 0.0
H354 H 0.55896 0.53449 0.43425 0.0
H355 H 0.43196 0.44781 0.47583 0.0
H356 H 0.65468 0.68272 0.45026 0.0
H357 H 0.77172 0.74105 0.45944 0.0
H358 H 0.50122 0.48426 0.47209 0.0
H359 H 0.62505 0.6341 0.49888 0.0
H360 H 0.78287 0.73489 0.47455 0.0
H361 H 0.75576 0.71008 0.48838 0.0
H362 H 0.51219 0.51476 0.42264 0.0
H363 H 0.69705 0.67257 0.49751 0.0
H364 H 0.38145 0.42842 0.46501 0.0
N365 N 0.51474 0.50848 0.44343 0.0
C366 C 0.47583 0.48695 0.44507 0.0
C367 C 0.5016 0.50691 0.42892 0.0
C368 C 0.44815 0.475 0.43861 0.0
C369 C 0.52798 0.51828 0.43551 0.0
C370 C 0.46151 0.48527 0.43047 0.0
N371 N 0.49099 0.49045 0.4594 0.0
C372 C 0.47996 0.47852 0.46736 0.0
C373 C 0.4234 0.45561 0.4551 0.0
C374 C 0.46363 0.47772 0.45326 0.0
C375 C 0.41203 0.44559 0.46335 0.0
C376 C 0.44045 0.45669 0.46948 0.0
H377 H 0.44115 0.47657 0.42535 0.0
H378 H 0.38646 0.44407 0.43559 0.0
H379 H 0.36482 0.42693 0.45001 0.0
O380 O 0.55197 0.47174 0.45966 0.0
O381 O 0.52284 0.55731 0.45281 0.0
O382 O 0.52993 0.58468 0.46548 0.0
O383 O 0.56355 0.48568 0.4467 0.0
O384 O 0.57133 0.53337 0.4691 0.0
O385 O 0.55256 0.577 0.47305 0.0
O386 O 0.58674 0.67734 0.46086 0.0
O387 O 0.63662 0.60554 0.4657 0.0
O388 O 0.62204 0.56529 0.45423 0.0
O389 O 0.58044 0.66511 0.47402 0.0
O390 O 0.58668 0.62779 0.45201 0.0
O391 O 0.59459 0.57859 0.44606 0.0
C392 C 0.51046 0.5716 0.45856 0.0
C393 C 0.57655 0.43662 0.45203 0.0
C394 C 0.57321 0.37303 0.45348 0.0
C395 C 0.61028 0.38934 0.44976 0.0
C396 C 0.61365 0.45202 0.44844 0.0
C397 C 0.63029 0.42843 0.44732 0.0
C398 C 0.55663 0.39715 0.45466 0.0
C399 C 0.5609 0.54995 0.47495 0.0
C400 C 0.55675 0.46003 0.45246 0.0
C401 C 0.40813 0.45346 0.44047 0.0
C402 C 0.3958 0.44378 0.44869 0.0
C403 C 0.6459 0.58734 0.46006 0.0
C404 C 0.59744 0.72916 0.46994 0.0
C405 C 0.59431 0.78876 0.46834 0.0
C406 C 0.62216 0.80623 0.47466 0.0
C407 C 0.62584 0.74726 0.47614 0.0
C408 C 0.58226 0.75029 0.46595 0.0
C409 C 0.63812 0.78568 0.47847 0.0
C410 C 0.59527 0.61264 0.44566 0.0
C411 C 0.58022 0.68737 0.46812 0.0
H412 H 0.624 0.37183 0.4488 0.0
H413 H 0.62949 0.48208 0.44639 0.0
H414 H 0.65877 0.44044 0.44446 0.0
H415 H 0.52776 0.38491 0.45736 0.0
H416 H 0.63165 0.83584 0.47662 0.0
H417 H 0.63787 0.73148 0.4793 0.0
H418 H 0.56003 0.73636 0.46122 0.0
H419 H 0.65964 0.79937 0.48333 0.0
Eu420 Eu 0.55746 0.07254 0.45496 0.0
C421 C 0.4112 0.03571 0.47663 0.0
N422 N 0.43479 0.02006 0.47737 0.0
C423 C 0.436 0.02727 0.49211 0.0
C424 C 0.40003 0.04896 0.48364 0.0
C425 C 0.44599 0.01428 0.48497 0.0
C426 C 0.41331 0.04515 0.49144 0.0
C427 C 0.37161 0.05214 0.46788 0.0
C428 C 0.39739 0.03754 0.46884 0.0
C429 C 0.36129 0.06643 0.47482 0.0
C430 C 0.37552 0.06492 0.48268 0.0
Eu431 Eu 0.45276 1.00198 0.46492 0.0
N432 N 0.40835 0.024 0.46223 0.0
C433 C 0.35621 0.05098 0.46001 0.0
C434 C 0.39108 0.01993 0.45472 0.0
C435 C 0.36541 0.03408 0.45344 0.0
H436 H 0.46204 0.99898 0.48553 0.0
H437 H 0.35226 0.03135 0.44742 0.0
H438 H 0.55022 0.06954 0.43433 0.0
H439 H 0.64039 0.02896 0.47528 0.0
H440 H 0.396 1.00463 0.44981 0.0
H441 H 0.33615 0.06175 0.45902 0.0
H442 H 0.60077 0.05879 0.47191 0.0
H443 H 0.44551 0.02316 0.49812 0.0
H444 H 0.34175 0.07806 0.47419 0.0
H445 H 0.36682 0.0755 0.48799 0.0
H446 H 0.57381 0.04799 0.42239 0.0
H447 H 0.40543 0.05503 0.49698 0.0
H448 H 0.66302 1.00221 0.46414 0.0
N449 N 0.57803 0.05215 0.44324 0.0
C450 C 0.60109 0.03629 0.44466 0.0
C451 C 0.5816 0.04445 0.42862 0.0
C452 C 0.61538 0.02384 0.43803 0.0
C453 C 0.56812 0.05641 0.43538 0.0
C454 C 0.60534 0.02811 0.42994 0.0
N455 N 0.59619 0.04494 0.45908 0.0
C456 C 0.60804 0.04518 0.46703 0.0
C457 C 0.63459 0.01654 0.45443 0.0
C458 C 0.6104 0.03256 0.4528 0.0
C459 C 0.64452 0.01431 0.46263 0.0
C460 C 0.63158 0.02915 0.46894 0.0
H461 H 0.61578 0.01893 0.42468 0.0
H462 H 0.6503 0.99774 0.43465 0.0
H463 H 0.66717 0.99142 0.44899 0.0
O464 O 0.60443 0.1266 0.46036 0.0
O465 O 0.52951 0.00765 0.45218 0.0
O466 O 0.4988 0.98411 0.46441 0.0
O467 O 0.59774 0.12165 0.44715 0.0
O468 O 0.54934 0.07528 0.4692 0.0
O469 O 0.5049 0.01208 0.47248 0.0
O470 O 0.40553 0.9475 0.45974 0.0
O471 O 0.4773 0.06883 0.46607 0.0
O472 O 0.5129 0.09167 0.45417 0.0
O473 O 0.41941 0.9515 0.47279 0.0
O474 O 0.45691 0.99937 0.45081 0.0
O475 O 0.50538 0.06057 0.44646 0.0
C476 C 0.51336 0.97924 0.45755 0.0
C477 C 0.66242 0.15826 0.45244 0.0
C478 C 0.7301 0.2095 0.45505 0.0
C479 C 0.74307 0.18544 0.45157 0.0
C480 C 0.67653 0.13556 0.44879 0.0
C481 C 0.71644 0.14886 0.44842 0.0
C482 C 0.68949 0.19568 0.45548 0.0
C483 C 0.53201 0.04697 0.47474 0.0
C484 C 0.61971 0.14248 0.45327 0.0
C485 C 0.63909 0.00752 0.43966 0.0
C486 C 0.64863 1.00385 0.44784 0.0
C487 C 0.49529 0.09665 0.46049 0.0
C488 C 0.35499 0.9055 0.46892 0.0
C489 C 0.29574 0.84217 0.468 0.0
C490 C 0.27819 0.85419 0.47398 0.0
C491 C 0.33694 0.91749 0.47478 0.0
C492 C 0.33408 0.86809 0.46544 0.0
C493 C 0.29862 0.89184 0.47728 0.0
C494 C 0.47246 0.02703 0.44516 0.0
C495 C 0.3965 0.92986 0.46688 0.0
H496 H 0.77399 0.19547 0.45102 0.0
H497 H 0.65683 0.1076 0.44615 0.0
H498 H 0.72678 0.13088 0.44561 0.0
H499 H 0.67906 0.21384 0.4582 0.0
H500 H 0.24861 0.83455 0.47604 0.0
H501 H 0.35266 0.94625 0.47754 0.0
H502 H 0.3481 0.85864 0.46096 0.0
H503 H 0.28489 0.90099 0.48187 0.0
Eu504 Eu 0.60356 1.00395 0.96314 0.0
C505 C 0.48236 0.03365 0.94529 0.0
N506 N 0.5213 0.05009 0.94382 0.0
C507 C 0.50925 0.03859 0.92927 0.0
C508 C 0.45511 0.01738 0.93877 0.0
C509 C 0.53515 0.05387 0.93594 0.0
C510 C 0.46904 0.01991 0.9307 0.0
C511 C 0.42944 0.01414 0.95512 0.0
C512 C 0.46979 0.03209 0.9534 0.0
C513 C 0.40219 0.99724 0.94866 0.0
C514 C 0.41499 0.99896 0.94051 0.0
Eu515 Eu 0.56326 0.07457 0.95536 0.0
N516 N 0.49689 0.04817 0.95956 0.0
C517 C 0.41758 0.01398 0.96327 0.0
C518 C 0.48532 0.05022 0.96743 0.0
C519 C 0.44565 0.03255 0.96942 0.0
H520 H 0.5662 0.06869 0.93479 0.0
H521 H 0.43675 0.03371 0.9757 0.0
H522 H 0.59073 1.00124 0.98394 0.0
H523 H 0.736 0.04149 0.94594 0.0
H524 H 0.50621 0.06618 0.97221 0.0
H525 H 0.38689 1.0005 0.96484 0.0
H526 H 0.66486 0.01218 0.94816 0.0
H527 H 0.5203 0.04121 0.92304 0.0
H528 H 0.37112 0.98308 0.9499 0.0
H529 H 0.39361 0.98602 0.9356 0.0
H530 H 0.63073 0.02762 0.99647 0.0
H531 H 0.44903 0.00785 0.92552 0.0
H532 H 0.78159 0.07266 0.95767 0.0
N533 N 0.63912 0.02595 0.97569 0.0
C534 C 0.67863 0.04308 0.97504 0.0
C535 C 0.64463 0.03284 0.99047 0.0
C536 C 0.70281 0.05729 0.98209 0.0
C537 C 0.62192 0.01883 0.9833 0.0
C538 C 0.68529 0.05271 0.98985 0.0
N539 N 0.67069 0.02927 0.96074 0.0
C540 C 0.68472 0.02677 0.9532 0.0
C541 C 0.73555 0.06079 0.96646 0.0
C542 C 0.69487 0.04448 0.96735 0.0
C543 C 0.75048 0.06037 0.95862 0.0
C544 C 0.72488 0.04288 0.95198 0.0
H545 H 0.70282 0.06311 0.99542 0.0
H546 H 0.76252 0.08571 0.98656 0.0
H547 H 0.79119 0.08905 0.97285 0.0
O548 O 0.59975 0.95211 0.95709 0.0
O549 O 0.64778 0.06829 0.95986 0.0
O550 O 0.61257 0.09519 0.96453 0.0
O551 O 0.59132 0.95292 0.97029 0.0
O552 O 0.59173 1.00359 0.94949 0.0
O553 O 0.60619 0.06665 0.94655 0.0
O554 O 0.54819 0.12112 0.95645 0.0
O555 O 0.53184 0.01103 0.95141 0.0
O556 O 0.53824 0.9822 0.963 0.0
O557 O 0.5962 0.1292 0.94846 0.0
O558 O 0.5663 0.06971 0.96972 0.0
O559 O 0.56055 0.00902 0.97157 0.0
C560 C 0.64614 0.09899 0.96244 0.0
C561 C 0.61085 0.90912 0.96564 0.0
C562 C 0.60455 0.84465 0.96524 0.0
C563 C 0.63493 0.85715 0.97105 0.0
C564 C 0.6418 0.92147 0.97129 0.0
C565 C 0.65374 0.89552 0.97397 0.0
C566 C 0.59286 0.87092 0.96249 0.0
C567 C 0.60657 0.03401 0.94456 0.0
C568 C 0.59273 0.93305 0.96404 0.0
C569 C 0.74349 0.07446 0.98122 0.0
C570 C 0.75982 0.07628 0.97341 0.0
C571 C 0.51747 0.98217 0.95668 0.0
C572 C 0.58253 0.1832 0.94887 0.0
C573 C 0.5697 0.23796 0.95001 0.0
C574 C 0.59558 0.25621 0.94338 0.0
C575 C 0.6081 0.20254 0.94228 0.0
C576 C 0.56345 0.20125 0.9528 0.0
C577 C 0.61452 0.23868 0.93957 0.0
C578 C 0.55842 0.03903 0.97442 0.0
C579 C 0.57529 0.1438 0.95129 0.0
H580 H 0.64426 0.83728 0.97327 0.0
H581 H 0.65575 0.95068 0.97386 0.0
H582 H 0.67713 0.90495 0.97844 0.0
H583 H 0.56854 0.86105 0.95822 0.0
H584 H 0.60166 0.28454 0.94116 0.0
H585 H 0.62299 0.18954 0.93912 0.0
H586 H 0.54346 0.18665 0.95787 0.0
H587 H 0.63431 0.2532 0.93447 0.0
Eu588 Eu 0.07918 0.64145 0.96439 0.0
C589 C 0.05712 0.48714 0.94548 0.0
N590 N 0.04198 0.51105 0.94428 0.0
C591 C 0.04427 0.50428 0.92956 0.0
C592 C 0.06512 0.46981 0.93868 0.0
C593 C 0.03505 0.51941 0.93647 0.0
C594 C 0.05919 0.47925 0.93067 0.0
C595 C 0.07652 0.452 0.9549 0.0
C596 C 0.06329 0.47873 0.95354 0.0
C597 C 0.08271 0.43344 0.94814 0.0
C598 C 0.07766 0.44279 0.94006 0.0
Eu599 Eu 0.02256 0.52983 0.95646 0.0
N600 N 0.05556 0.49587 0.96004 0.0
C601 C 0.08269 0.44423 0.96303 0.0
C602 C 0.06049 0.48739 0.96798 0.0
C603 C 0.07489 0.46221 0.96959 0.0
H604 H 0.02114 0.53655 0.93548 0.0
H605 H 0.07886 0.45578 0.97591 0.0
H606 H 0.07464 0.63468 0.98523 0.0
H607 H 0.02536 0.71192 0.9434 0.0
H608 H 0.05222 0.49864 0.97315 0.0
H609 H 0.09307 0.4241 0.96432 0.0
H610 H 0.06471 0.68214 0.94755 0.0
H611 H 0.03881 0.51106 0.92339 0.0
H612 H 0.09242 0.41253 0.9491 0.0
H613 H 0.08339 0.42881 0.93491 0.0
H614 H 0.04214 0.64853 0.99667 0.0
H615 H 0.06533 0.46678 0.9253 0.0
H616 H 0.98695 0.72356 0.95395 0.0
N617 N 0.05092 0.65459 0.97588 0.0
C618 C 0.02963 0.6721 0.97413 0.0
C619 C 0.03815 0.65503 0.99036 0.0
C620 C 0.0111 0.68115 0.98051 0.0
C621 C 0.05607 0.64667 0.98385 0.0
C622 C 0.0154 0.67215 0.98868 0.0
N623 N 0.04405 0.67151 0.95985 0.0
C624 C 0.04571 0.68429 0.95198 0.0
C625 C 1.0044 0.69914 0.96396 0.0
C626 C 0.026 0.68065 0.96591 0.0
C627 C 1.00313 0.70923 0.9557 0.0
C628 C 0.0245 0.70242 0.94971 0.0
H629 H 1.0016 0.67864 0.99375 0.0
H630 H 0.97431 0.70579 0.98335 0.0
H631 H 0.96868 0.72175 0.9689 0.0
O632 O 0.13047 0.69185 0.95889 0.0
O633 O 0.01241 0.60324 0.9659 0.0
O634 O 0.99333 0.56519 0.95431 0.0
O635 O 0.11918 0.69105 0.97195 0.0
O636 O 0.08656 0.62973 0.95097 0.0
O637 O 0.02804 0.57676 0.94704 0.0
O638 O 0.96656 0.48572 0.96233 0.0
O639 O 0.089 0.56083 0.95541 0.0
O640 O 0.11255 0.609 0.96547 0.0
O641 O 0.98234 0.47572 0.95025 0.0
O642 O 0.02516 0.54031 0.9708 0.0
O643 O 0.08168 0.59946 0.97326 0.0
C644 C 0.98561 0.58226 0.96035 0.0
C645 C 0.18507 0.71921 0.96795 0.0
C646 C 0.25545 0.7626 0.96634 0.0
C647 C 0.26203 0.74028 0.9722 0.0
C648 C 0.19255 0.6976 0.97384 0.0
C649 C 0.23076 0.70789 0.97588 0.0
C650 C 0.21675 0.75156 0.96412 0.0
C651 C 0.05979 0.61068 0.94534 0.0
C652 C 0.14429 0.70838 0.96603 0.0
C653 C 0.98886 0.69874 0.97854 0.0
C654 C 0.98554 0.70773 0.97029 0.0
C655 C 0.11718 0.58614 0.96023 0.0
C656 C 0.91568 0.43536 0.95363 0.0
C657 C 0.85682 0.36978 0.95348 0.0
C658 C 0.84373 0.38076 0.94645 0.0
C659 C 0.90117 0.44536 0.94669 0.0
C660 C 0.89294 0.39751 0.95711 0.0
C661 C 0.86553 0.41825 0.94315 0.0
C662 C 0.05345 0.56545 0.9758 0.0
C663 C 0.95709 0.46114 0.95619 0.0
H664 H 0.29151 0.74799 0.97394 0.0
H665 H 0.16877 0.67284 0.97693 0.0
H666 H 0.23615 0.69093 0.98039 0.0
H667 H 0.21134 0.76867 0.95963 0.0
H668 H 0.81618 0.3604 0.94357 0.0
H669 H 0.91811 0.47377 0.94383 0.0
H670 H 0.904 0.38914 0.96239 0.0
H671 H 0.85494 0.4262 0.93774 0.0
Eu672 Eu 0.45337 0.4848 0.96599 0.0
C673 C 0.60216 0.60274 0.94518 0.0
N674 N 0.5816 0.56383 0.94364 0.0
C675 C 0.58814 0.57587 0.92902 0.0
C676 C 0.61599 0.62994 0.93862 0.0
C677 C 0.5747 0.55005 0.93572 0.0
C678 C 0.60871 0.61601 0.93048 0.0
C679 C 0.63015 0.65573 0.95511 0.0
C680 C 0.60898 0.61539 0.95334 0.0
C681 C 0.64337 0.68289 0.94861 0.0
C682 C 0.63639 0.67003 0.94039 0.0
Eu683 Eu 0.55786 0.52192 0.95519 0.0
N684 N 0.59539 0.58835 0.95953 0.0
C685 C 0.63798 0.66762 0.96337 0.0
C686 C 0.60609 0.59999 0.96752 0.0
C687 C 0.62653 0.63961 0.96959 0.0
H688 H 0.55931 0.51902 0.93455 0.0
H689 H 0.6341 0.6485 0.97597 0.0
H690 H 0.46229 0.51264 0.98583 0.0
H691 H 0.37956 0.33809 0.95243 0.0
H692 H 0.60039 0.57928 0.97236 0.0
H693 H 0.65401 0.6983 0.96499 0.0
H694 H 0.42014 0.40924 0.9523 0.0
H695 H 0.58262 0.56478 0.92275 0.0
H696 H 0.65942 0.71394 0.94987 0.0
H697 H 0.64703 0.69134 0.93543 0.0
H698 H 0.44227 0.48204 0.99965 0.0
H699 H 0.61895 0.63596 0.92528 0.0
H700 H 0.35371 0.30327 0.96565 0.0
N701 N 0.435 0.45865 0.97939 0.0
C702 C 0.41247 0.4192 0.97988 0.0
C703 C 0.43378 0.46404 0.99414 0.0
C704 C 0.39987 0.40056 0.98762 0.0
C705 C 0.44546 0.48125 0.98634 0.0
C706 C 0.41097 0.42352 0.99479 0.0
N707 N 0.41611 0.41581 0.96527 0.0
C708 C 0.40809 0.39501 0.95808 0.0
C709 C 0.37962 0.35617 0.97299 0.0
C710 C 0.40239 0.39722 0.97263 0.0
C711 C 0.37102 0.33483 0.96562 0.0
C712 C 0.38547 0.35436 0.95814 0.0
H713 H 0.40197 0.41026 1.00085 0.0
H714 H 0.36681 0.34494 0.99386 0.0
H715 H 0.34913 0.30614 0.98107 0.0
O716 O 0.41235 0.49567 0.95915 0.0
O717 O 0.48052 0.44536 0.96747 0.0
O718 O 0.51227 0.45836 0.95515 0.0
O719 O 0.41123 0.49511 0.97258 0.0
O720 O 0.44906 0.47882 0.95205 0.0
O721 O 0.50756 0.49191 0.94563 0.0
O722 O 0.61241 0.5252 0.95939 0.0
O723 O 0.52686 0.55546 0.95222 0.0
O724 O 0.49826 0.54926 0.96473 0.0
O725 O 0.58803 0.49942 0.9476 0.0
O726 O 0.55083 0.51097 0.96948 0.0
O727 O 0.50697 0.53057 0.97244 0.0
C728 C 0.49926 0.43713 0.9618 0.0
C729 C 0.35358 0.48183 0.96562 0.0
C730 C 0.29794 0.49157 0.96436 0.0
C731 C 0.27282 0.45098 0.96462 0.0
C732 C 0.32854 0.44136 0.96597 0.0
C733 C 0.28814 0.42602 0.96549 0.0
C734 C 0.33828 0.50677 0.96489 0.0
C735 C 0.46962 0.48089 0.94546 0.0
C736 C 0.39585 0.49928 0.96582 0.0
C737 C 0.37681 0.35974 0.98797 0.0
C738 C 0.36668 0.33763 0.98069 0.0
C739 C 0.51074 0.56757 0.95764 0.0
C740 C 0.65739 0.53081 0.9489 0.0
C741 C 0.72639 0.5483 0.94938 0.0
C742 C 0.73148 0.56444 0.94142 0.0
C743 C 0.66363 0.54722 0.94095 0.0
C744 C 0.68921 0.53184 0.95315 0.0
C745 C 0.7004 0.56406 0.93728 0.0
C746 C 0.53332 0.52224 0.97492 0.0
C747 C 0.6176 0.51083 0.95259 0.0
H748 H 0.24145 0.43871 0.9643 0.0
H749 H 0.3402 0.42186 0.96658 0.0
H750 H 0.26868 0.39479 0.96578 0.0
H751 H 0.35783 0.5381 0.96463 0.0
H752 H 0.75975 0.57767 0.93841 0.0
H753 H 0.64005 0.54662 0.93747 0.0
H754 H 0.68482 0.519 0.95926 0.0
H755 H 0.70474 0.57657 0.93114 0.0
Eu756 Eu 1.00815 0.5997 0.54379 0.0
C757 C 0.03925 0.47924 0.56611 0.0
N758 N 0.05083 0.51766 0.56706 0.0
C759 C 0.04306 0.5092 0.58178 0.0
C760 C 0.02947 0.45434 0.57304 0.0
C761 C 0.05334 0.53298 0.57477 0.0
C762 C 0.03109 0.46972 0.58092 0.0
C763 C 0.02628 0.42511 0.55705 0.0
C764 C 0.03735 0.46469 0.55819 0.0
C765 C 0.01785 0.40067 0.56396 0.0
C766 C 0.01892 0.4151 0.57192 0.0
Eu767 Eu 0.07109 0.55584 0.55484 0.0
N768 N 0.04619 0.48913 0.5516 0.0
C769 C 0.02398 0.41118 0.549 0.0
C770 C 0.04534 0.47589 0.54376 0.0
C771 C 0.03352 0.43669 0.54233 0.0
H772 H 0.06453 0.56382 0.5756 0.0
H773 H 0.03257 0.42638 0.53608 0.0
H774 H 0.0104 0.59636 0.52306 0.0
H775 H 0.06939 0.72613 0.56472 0.0
H776 H 0.05463 0.4954 0.53858 0.0
H777 H 0.01525 0.38091 0.54787 0.0
H778 H 0.03761 0.657 0.56118 0.0
H779 H 0.0451 0.52153 0.58787 0.0
H780 H 1.00955 0.37029 0.5632 0.0
H781 H 0.01163 0.39568 0.57718 0.0
H782 H 0.02915 0.6423 0.51133 0.0
H783 H 0.02367 0.4515 0.58639 0.0
H784 H 0.09026 0.7755 0.55362 0.0
N785 N 0.02951 0.64093 0.53219 0.0
C786 C 0.04588 0.67971 0.53379 0.0
C787 C 0.03462 0.65318 0.51761 0.0
C788 C 0.05771 0.7069 0.52725 0.0
C789 C 0.02407 0.62732 0.52426 0.0
C790 C 0.05164 0.69313 0.5191 0.0
N791 N 0.04044 0.6657 0.54821 0.0
C792 C 0.04644 0.67753 0.55627 0.0
C793 C 0.06981 0.73274 0.54376 0.0
C794 C 0.05157 0.69245 0.54199 0.0
C795 C 0.07625 0.74484 0.55202 0.0
C796 C 0.06457 0.71709 0.5583 0.0
H797 H 0.0599 0.71307 0.51392 0.0
H798 H 0.0843 0.76813 0.52408 0.0
H799 H 0.09517 0.79075 0.53851 0.0
O800 O 0.95614 0.60129 0.54839 0.0
O801 O 0.07487 0.63554 0.54299 0.0
O802 O 0.08882 0.61918 0.55542 0.0
O803 O 0.96075 0.58863 0.53539 0.0
O804 O 0.99415 0.57487 0.55669 0.0
O805 O 0.05046 0.58966 0.5635 0.0
O806 O 0.12726 0.56201 0.55014 0.0
O807 O 1.0057 0.51388 0.55427 0.0
O808 O 0.98651 0.5349 0.54281 0.0
O809 O 0.11766 0.56501 0.5633 0.0
O810 O 0.07624 0.56365 0.54033 0.0
O811 O 0.01981 0.56187 0.5354 0.0
C812 C 0.10029 0.64095 0.54881 0.0
C813 C 0.90173 0.58899 0.53908 0.0
C814 C 0.83397 0.56935 0.54238 0.0
C815 C 0.82947 0.58024 0.53436 0.0
C816 C 0.89624 0.59936 0.53109 0.0
C817 C 0.86038 0.59507 0.52877 0.0
C818 C 0.87032 0.57376 0.54476 0.0
C819 C 0.01519 0.58625 0.56342 0.0
C820 C 0.9397 0.59227 0.54111 0.0
C821 C 0.07517 0.74688 0.52903 0.0
C822 C 0.08132 0.75975 0.53725 0.0
C823 C 0.97925 0.50956 0.54877 0.0
C824 C 0.18047 0.57151 0.55985 0.0
C825 C 0.23605 0.55973 0.55831 0.0
C826 C 0.25118 0.57953 0.56582 0.0
C827 C 0.19693 0.59094 0.56733 0.0
C828 C 0.20064 0.55631 0.55522 0.0
C829 C 0.23197 0.59514 0.57023 0.0
C830 C 0.05184 0.56025 0.53422 0.0
C831 C 0.14076 0.56476 0.55762 0.0
H832 H 0.8017 0.57681 0.5324 0.0
H833 H 0.91977 0.61077 0.52661 0.0
H834 H 0.85644 0.60305 0.52258 0.0
H835 H 0.87392 0.56501 0.55091 0.0
H836 H 0.2783 0.58318 0.56829 0.0
H837 H 0.18245 0.60281 0.57103 0.0
H838 H 0.18821 0.5407 0.5495 0.0
H839 H 0.24414 0.61026 0.57601 0.0
Eu840 Eu 0.48867 0.44754 0.54539 0.0
C841 C 0.60179 0.60622 0.56592 0.0
N842 N 0.56383 0.5784 0.5671 0.0
C843 C 0.57337 0.58354 0.58181 0.0
C844 C 0.62715 0.62365 0.57271 0.0
C845 C 0.54921 0.56733 0.57491 0.0
C846 C 0.61252 0.61175 0.58071 0.0
C847 C 0.65438 0.64704 0.55651 0.0
C848 C 0.61532 0.61744 0.55788 0.0
C849 C 0.67963 0.66438 0.56326 0.0
C850 C 0.66611 0.65259 0.57133 0.0
Eu851 Eu 0.52468 0.55479 0.55508 0.0
N852 N 0.59049 0.59954 0.55143 0.0
C853 C 0.66698 0.65851 0.54838 0.0
C854 C 0.60247 0.61183 0.54351 0.0
C855 C 0.64089 0.64084 0.54186 0.0
H856 H 0.51867 0.54678 0.57589 0.0
H857 H 0.65013 0.65013 0.53556 0.0
H858 H 0.51097 0.45661 0.52523 0.0
H859 H 0.34705 0.37129 0.56089 0.0
H860 H 0.58247 0.60089 0.53841 0.0
H861 H 0.69669 0.68115 0.54708 0.0
H862 H 0.41892 0.40868 0.56004 0.0
H863 H 0.56161 0.57467 0.58799 0.0
H864 H 0.70973 0.68692 0.5623 0.0
H865 H 0.68597 0.66625 0.57648 0.0
H866 H 0.47655 0.43801 0.51179 0.0
H867 H 0.63108 0.62448 0.58608 0.0
H868 H 0.30767 0.35093 0.54804 0.0
N869 N 0.45878 0.43073 0.5323 0.0
C870 C 0.41912 0.40922 0.53228 0.0
C871 C 0.46001 0.43009 0.5175 0.0
C872 C 0.39822 0.39797 0.52476 0.0
C873 C 0.47945 0.44086 0.5251 0.0
C874 C 0.41921 0.40882 0.51732 0.0
N875 N 0.42025 0.41093 0.54695 0.0
C876 C 0.40211 0.40058 0.55444 0.0
C877 C 0.35815 0.37716 0.53996 0.0
C878 C 0.39929 0.39884 0.5398 0.0
C879 C 0.33925 0.3675 0.54765 0.0
C880 C 0.36136 0.37906 0.55492 0.0
H881 H 0.40423 0.40069 0.51141 0.0
H882 H 0.34064 0.36754 0.5192 0.0
H883 H 0.30561 0.34941 0.53249 0.0
O884 O 0.4875 0.397 0.55125 0.0
O885 O 0.45123 0.47661 0.54298 0.0
O886 O 0.46125 0.50828 0.5552 0.0
O887 O 0.50528 0.41102 0.53844 0.0
O888 O 0.49207 0.45004 0.55932 0.0
O889 O 0.48946 0.50404 0.56433 0.0
O890 O 0.52274 0.60563 0.55002 0.0
O891 O 0.56598 0.53162 0.55792 0.0
O892 O 0.55357 0.49008 0.54696 0.0
O893 O 0.50308 0.58638 0.56242 0.0
O894 O 0.51877 0.54625 0.54064 0.0
O895 O 0.53597 0.4995 0.5389 0.0
C896 C 0.44123 0.49488 0.54841 0.0
C897 C 0.48191 0.34583 0.5426 0.0
C898 C 0.48522 0.28619 0.54376 0.0
C899 C 0.4561 0.26885 0.53767 0.0
C900 C 0.4524 0.328 0.53662 0.0
C901 C 0.43952 0.28956 0.5342 0.0
C902 C 0.49778 0.32463 0.54626 0.0
C903 C 0.48712 0.46953 0.56531 0.0
C904 C 0.49927 0.38739 0.54458 0.0
C905 C 0.35721 0.37636 0.52491 0.0
C906 C 0.33725 0.36601 0.53249 0.0
C907 C 0.57332 0.50762 0.55368 0.0
C908 C 0.53435 0.65483 0.56006 0.0
C909 C 0.5545 0.72439 0.5589 0.0
C910 C 0.57318 0.73097 0.56661 0.0
C911 C 0.55347 0.66276 0.56776 0.0
C912 C 0.53538 0.68613 0.55557 0.0
C913 C 0.57284 0.70047 0.57096 0.0
C914 C 0.53097 0.52719 0.53583 0.0
C915 C 0.51194 0.61382 0.55699 0.0
H916 H 0.44609 0.23922 0.53565 0.0
H917 H 0.43996 0.34399 0.53372 0.0
H918 H 0.41702 0.27596 0.52952 0.0
H919 H 0.52089 0.33849 0.55082 0.0
H920 H 0.58825 0.75998 0.56928 0.0
H921 H 0.55305 0.63975 0.57143 0.0
H922 H 0.52056 0.68061 0.54966 0.0
H923 H 0.58732 0.706 0.5769 0.0
Eu924 Eu 0.63571 0.07871 0.54589 0.0
C925 C 0.48437 0.04077 0.56593 0.0
N926 N 0.50763 0.02498 0.56713 0.0
C927 C 0.5035 0.03018 0.58183 0.0
C928 C 0.47025 0.05256 0.57271 0.0
C929 C 0.51725 0.01941 0.57492 0.0
C930 C 0.47996 0.04689 0.58072 0.0
C931 C 0.453 0.06412 0.55645 0.0
C932 C 0.47594 0.04651 0.55788 0.0
C933 C 0.439 0.07601 0.56319 0.0
C934 C 0.44749 0.07013 0.57129 0.0
Eu935 Eu 0.52943 0.00716 0.5552 0.0
N936 N 0.49057 0.03537 0.55147 0.0
C937 C 0.44464 0.06914 0.54829 0.0
C938 C 0.47992 0.03762 0.54354 0.0
C939 C 0.45771 0.05533 0.54181 0.0
H940 H 0.53508 0.0061 0.57581 0.0
H941 H 0.45011 0.05767 0.53549 0.0
H942 H 0.6264 0.08035 0.5253 0.0
H943 H 0.73357 0.04767 0.56411 0.0
H944 H 0.48716 0.02484 0.5385 0.0
H945 H 0.42731 0.08271 0.54693 0.0
H946 H 0.69034 0.07458 0.56151 0.0
H947 H 0.51107 0.0256 0.588 0.0
H948 H 0.42148 0.0897 0.56219 0.0
H949 H 0.43651 0.0795 0.57643 0.0
H950 H 0.64811 0.0606 0.51281 0.0
H951 H 0.46958 0.05545 0.58609 0.0
H952 H 0.75202 0.01911 0.55254 0.0
N953 N 0.65546 0.06172 0.53359 0.0
C954 C 0.67975 0.04692 0.53448 0.0
C955 C 0.65658 0.05588 0.51886 0.0
C956 C 0.69255 0.0349 0.52753 0.0
C957 C 0.64419 0.06687 0.52595 0.0
C958 C 0.68045 0.03934 0.51965 0.0
N959 N 0.67968 0.05647 0.54898 0.0
C960 C 0.69583 0.05976 0.55659 0.0
C961 C 0.71801 0.02971 0.54348 0.0
C962 C 0.69206 0.04406 0.54239 0.0
C963 C 0.73196 0.02979 0.55145 0.0
C964 C 0.72142 0.04563 0.558 0.0
H965 H 0.6899 0.03075 0.51415 0.0
H966 H 0.72729 0.00975 0.52336 0.0
H967 H 0.74971 1.00538 0.53732 0.0
O968 O 0.67807 0.13389 0.55144 0.0
O969 O 0.61028 0.01281 0.54348 0.0
O970 O 0.57617 0.99121 0.55535 0.0
O971 O 0.67296 0.1286 0.53808 0.0
O972 O 0.63127 0.07979 0.55996 0.0
O973 O 0.58102 0.01893 0.56397 0.0
O974 O 0.47684 0.95528 0.55038 0.0
O975 O 0.55726 0.07126 0.55862 0.0
O976 O 0.58942 0.09645 0.54656 0.0
O977 O 0.4971 0.9546 0.56266 0.0
O978 O 0.53686 0.00735 0.54071 0.0
O979 O 0.58438 0.07074 0.53853 0.0
C980 C 0.59015 0.98427 0.54871 0.0
C981 C 0.7331 0.17608 0.54369 0.0
C982 C 0.78883 0.24113 0.54494 0.0
C983 C 0.81387 0.22608 0.54352 0.0
C984 C 0.75796 0.16102 0.54221 0.0
C985 C 0.79838 0.18615 0.5421 0.0
C986 C 0.74849 0.21598 0.54497 0.0
C987 C 0.61392 0.05222 0.56556 0.0
C988 C 0.69105 0.1511 0.54434 0.0
C989 C 0.71733 0.01935 0.52863 0.0
C990 C 0.73002 0.01677 0.53658 0.0
C991 C 0.57416 0.10043 0.55344 0.0
C992 C 0.42857 0.91725 0.56053 0.0
C993 C 0.35992 0.86491 0.55996 0.0
C994 C 0.3532 0.87844 0.56747 0.0
C995 C 0.42056 0.93015 0.56799 0.0
C996 C 0.39781 0.88471 0.55645 0.0
C997 C 0.38322 0.91092 0.57141 0.0
C998 C 0.55697 0.03734 0.53563 0.0
C999 C 0.46925 0.93614 0.55731 0.0
H1000 H 0.84525 0.24524 0.5434 0.0
H1001 H 0.74621 0.13009 0.54121 0.0
H1002 H 0.8177 0.17468 0.54095 0.0
H1003 H 0.72906 0.2274 0.54617 0.0
H1004 H 0.32441 0.86414 0.57025 0.0
H1005 H 0.44325 0.95479 0.5713 0.0
H1006 H 0.40349 0.87433 0.5507 0.0
H1007 H 0.37757 0.92112 0.57718 0.0
Eu1008 Eu 0.19859 0.34482 0.38949 0.0
C1009 C 0.07112 0.3621 0.36874 0.0
N1010 N 0.1103 0.38025 0.36742 0.0
C1011 C 0.09979 0.36819 0.35285 0.0
C1012 C 0.0446 0.34541 0.36212 0.0
C1013 C 0.12492 0.38428 0.35961 0.0
C1014 C 0.05943 0.34843 0.35411 0.0
C1015 C 0.01703 0.34168 0.37833 0.0
C1016 C 0.05751 0.36018 0.37678 0.0
C1017 C 0.99053 0.32459 0.37176 0.0
C1018 C 1.00427 0.32645 0.36368 0.0
Eu1019 Eu 0.15029 0.40589 0.37922 0.0
N1020 N 0.08385 0.37647 0.38305 0.0
C1021 C 1.0044 0.34139 0.38644 0.0
C1022 C 0.07173 0.3785 0.39083 0.0
C1023 C 0.03191 0.36038 0.39269 0.0
H1024 H 0.156 0.40086 0.35857 0.0
H1025 H 0.02248 0.36162 0.39891 0.0
H1026 H 0.19428 0.34817 0.41018 0.0
H1027 H 0.32509 0.39417 0.36901 0.0
H1028 H 0.09257 0.39511 0.39553 0.0
H1029 H 0.97355 0.32751 0.38788 0.0
H1030 H 0.2563 0.36961 0.37231 0.0
H1031 H 0.11157 0.37133 0.34667 0.0
H1032 H 0.95933 0.31013 0.37285 0.0
H1033 H 0.98345 0.31337 0.35867 0.0
H1034 H 0.2391 0.36549 0.42211 0.0
H1035 H 0.04 0.33606 0.34886 0.0
H1036 H 0.37302 0.40947 0.38024 0.0
N1037 N 0.23925 0.36473 0.40123 0.0
C1038 C 0.27789 0.37885 0.39979 0.0
C1039 C 0.25037 0.36941 0.41586 0.0
C1040 C 0.30414 0.3872 0.40642 0.0
C1041 C 0.22515 0.3601 0.4091 0.0
C1042 C 0.28998 0.38274 0.41452 0.0
N1043 N 0.2649 0.3748 0.38535 0.0
C1044 C 0.27676 0.37816 0.37731 0.0
C1045 C 0.33048 0.39546 0.38999 0.0
C1046 C 0.29097 0.38333 0.39164 0.0
C1047 C 0.34286 0.39993 0.38176 0.0
C1048 C 0.31592 0.39146 0.3754 0.0
H1049 H 0.30928 0.38905 0.41978 0.0
H1050 H 0.36373 0.40459 0.40979 0.0
H1051 H 0.38659 0.41103 0.39542 0.0
O1052 O 0.19115 0.29074 0.38393 0.0
O1053 O 0.23578 0.41054 0.39078 0.0
O1054 O 0.21506 0.42734 0.37923 0.0
O1055 O 0.19214 0.29611 0.39715 0.0
O1056 O 0.18568 0.33904 0.3753 0.0
O1057 O 0.19423 0.39893 0.3716 0.0
O1058 O 0.15482 0.46128 0.38355 0.0
O1059 O 0.11388 0.33835 0.37866 0.0
O1060 O 0.13601 0.32824 0.39068 0.0
O1061 O 0.1567 0.44975 0.37036 0.0
O1062 O 0.16307 0.41516 0.39313 0.0
O1063 O 0.16023 0.35871 0.39828 0.0
C1064 C 0.23769 0.43742 0.38575 0.0
C1065 C 0.2186 0.25852 0.39147 0.0
C1066 C 0.23362 0.20594 0.38896 0.0
C1067 C 0.27127 0.23016 0.39216 0.0
C1068 C 0.2561 0.28112 0.39483 0.0
C1069 C 0.28224 0.26728 0.3951 0.0
C1070 C 0.20713 0.22034 0.38863 0.0
C1071 C 0.19029 0.36507 0.36957 0.0
C1072 C 0.19196 0.27499 0.39095 0.0
C1073 C 0.34329 0.39861 0.40477 0.0
C1074 C 0.35627 0.40217 0.39658 0.0
C1075 C 0.11225 0.31425 0.38445 0.0
C1076 C 0.16118 0.5112 0.37358 0.0
C1077 C 0.18572 0.58062 0.37568 0.0
C1078 C 0.16906 0.58197 0.3681 0.0
C1079 C 0.14495 0.51332 0.36599 0.0
C1080 C 0.18164 0.54507 0.37846 0.0
C1081 C 0.1488 0.54849 0.3633 0.0
C1082 C 0.15837 0.39133 0.3993 0.0
C1083 C 0.1583 0.47395 0.37597 0.0
H1084 H 0.29194 0.21985 0.39265 0.0
H1085 H 0.26525 0.30944 0.39735 0.0
H1086 H 0.31106 0.28529 0.39772 0.0
H1087 H 0.17796 0.20206 0.38619 0.0
H1088 H 0.172 0.60915 0.36588 0.0
H1089 H 0.12932 0.48771 0.36212 0.0
H1090 H 0.19479 0.54397 0.38427 0.0
H1091 H 0.13624 0.54987 0.35744 0.0
Eu1092 Eu 0.74268 0.88561 0.38863 0.0
C1093 C 0.69451 0.73256 0.36477 0.0
N1094 N 0.67961 0.75692 0.36493 0.0
C1095 C 0.67447 0.75453 0.35014 0.0
C1096 C 0.70052 0.71861 0.35721 0.0
C1097 C 0.6692 0.76777 0.35779 0.0
C1098 C 0.6905 0.7301 0.34984 0.0
C1099 C 0.71828 0.6954 0.37227 0.0
C1100 C 0.70334 0.72113 0.37221 0.0
C1101 C 0.72483 0.68188 0.36474 0.0
C1102 C 0.71601 0.69347 0.35723 0.0
Eu1103 Eu 0.67259 0.7782 0.37809 0.0
N1104 N 0.6973 0.73517 0.3794 0.0
C1105 C 0.72602 0.68389 0.3799 0.0
C1106 C 0.70358 0.72309 0.38685 0.0
C1107 C 0.71833 0.69757 0.38722 0.0
H1108 H 0.65667 0.78658 0.35801 0.0
H1109 H 0.72363 0.68838 0.39315 0.0
H1110 H 0.73809 0.88078 0.40943 0.0
H1111 H 0.70162 0.96643 0.36723 0.0
H1112 H 0.69722 0.73298 0.39249 0.0
H1113 H 0.7375 0.66414 0.38021 0.0
H1114 H 0.72503 0.92185 0.37113 0.0
H1115 H 0.66639 0.76337 0.34448 0.0
H1116 H 0.73649 0.66225 0.36466 0.0
H1117 H 0.72099 0.68258 0.35148 0.0
H1118 H 0.72065 0.90999 0.42095 0.0
H1119 H 0.69471 0.72003 0.3439 0.0
H1120 H 0.6846 0.99941 0.37809 0.0
N1121 N 0.72311 0.90884 0.40007 0.0
C1122 C 0.71037 0.93425 0.39833 0.0
C1123 C 0.71749 0.91693 0.41462 0.0
C1124 C 0.70185 0.95299 0.40476 0.0
C1125 C 0.72682 0.9 0.40806 0.0
C1126 C 0.70511 0.94367 0.41297 0.0
N1127 N 0.71659 0.92481 0.38402 0.0
C1128 C 0.71532 0.93369 0.37592 0.0
C1129 C 0.69647 0.97075 0.38815 0.0
C1130 C 0.70766 0.94295 0.3901 0.0
C1131 C 0.69348 0.97855 0.37983 0.0
C1132 C 0.70289 0.95987 0.37369 0.0
H1133 H 0.69873 0.95738 0.41807 0.0
H1134 H 0.68546 0.99633 0.40768 0.0
H1135 H 0.68115 0.01216 0.39315 0.0
O1136 O 0.79732 0.9333 0.38354 0.0
O1137 O 0.67697 0.86076 0.39009 0.0
O1138 O 0.66136 0.82848 0.378 0.0
O1139 O 0.79227 0.9235 0.39665 0.0
O1140 O 0.7503 0.87761 0.37451 0.0
O1141 O 0.68822 0.8321 0.37063 0.0
O1142 O 0.61871 0.74281 0.38498 0.0
O1143 O 0.73841 0.79985 0.37772 0.0
O1144 O 0.75784 0.838 0.38929 0.0
O1145 O 0.61879 0.73852 0.37161 0.0
O1146 O 0.67288 0.77848 0.39218 0.0
O1147 O 0.72468 0.83504 0.39805 0.0
C1148 C 0.6504 0.83939 0.38461 0.0
C1149 C 0.83041 0.98946 0.39203 0.0
C1150 C 0.88175 0.05738 0.38962 0.0
C1151 C 0.85879 0.07009 0.3937 0.0
C1152 C 0.80942 1.00344 0.39647 0.0
C1153 C 0.82307 0.04328 0.39717 0.0
C1154 C 0.86733 0.0168 0.38874 0.0
C1155 C 0.72439 0.85729 0.36867 0.0
C1156 C 0.81344 0.94673 0.39072 0.0
C1157 C 0.6916 0.98128 0.40282 0.0
C1158 C 0.68927 0.99038 0.39455 0.0
C1159 C 0.766 0.82286 0.38294 0.0
C1160 C 0.57293 0.6833 0.37894 0.0
C1161 C 0.50769 0.62817 0.38099 0.0
C1162 C 0.52282 0.60281 0.38026 0.0
C1163 C 0.58777 0.65785 0.37819 0.0
C1164 C 0.53297 0.66847 0.38028 0.0
C1165 C 0.56265 0.61766 0.37883 0.0
C1166 C 0.69432 0.79875 0.39855 0.0
C1167 C 0.59848 0.72544 0.37837 0.0
H1168 H 0.86936 0.10095 0.39455 0.0
H1169 H 0.78265 0.98371 0.39952 0.0
H1170 H 0.80619 0.05341 0.40055 0.0
H1171 H 0.88475 0.00666 0.38556 0.0
H1172 H 0.50373 0.57152 0.38068 0.0
H1173 H 0.6186 0.66904 0.37711 0.0
H1174 H 0.52165 0.68831 0.38087 0.0
H1175 H 0.57405 0.59797 0.37822 0.0
Eu1176 Eu 0.19413 0.88261 0.38959 0.0
C1177 C 0.349 0.01757 0.37316 0.0
N1178 N 0.32788 0.9802 0.3704 0.0
C1179 C 0.33386 1.0028 0.35645 0.0
C1180 C 0.3623 0.04924 0.36764 0.0
C1181 C 0.32032 0.9723 0.36218 0.0
C1182 C 0.35439 0.04142 0.3592 0.0
C1183 C 0.38133 0.06237 0.38453 0.0
C1184 C 0.35799 0.02401 0.38153 0.0
C1185 C 0.39311 0.09408 0.37912 0.0
C1186 C 0.38367 0.08753 0.37069 0.0
Eu1187 Eu 0.30572 0.93093 0.38055 0.0
N1188 N 0.34635 0.99274 0.38661 0.0
C1189 C 0.39375 0.06759 0.39278 0.0
C1190 C 0.36261 0.99764 0.39426 0.0
C1191 C 0.38534 0.03501 0.39759 0.0
H1192 H 0.30437 0.94246 0.36004 0.0
H1193 H 0.39721 0.03866 0.40378 0.0
H1194 H 0.21126 0.88229 0.41011 0.0
H1195 H 0.09725 0.76222 0.36921 0.0
H1196 H 0.35952 0.97294 0.39764 0.0
H1197 H 0.41177 0.09655 0.39533 0.0
H1198 H 0.14553 0.82975 0.37262 0.0
H1199 H 0.32875 0.99661 0.34991 0.0
H1200 H 0.4106 0.12376 0.38134 0.0
H1201 H 0.39378 0.11226 0.36655 0.0
H1202 H 0.18971 0.83519 0.42155 0.0
H1203 H 0.3646 0.06494 0.35473 0.0
H1204 H 0.07175 0.71184 0.38014 0.0
N1205 N 0.17743 0.83982 0.40098 0.0
C1206 C 0.15018 0.80197 0.39948 0.0
C1207 C 0.1786 0.82541 0.41537 0.0
C1208 C 0.13619 0.77425 0.40594 0.0
C1209 C 0.19126 0.85198 0.40881 0.0
C1210 C 0.151 0.78637 0.41393 0.0
N1211 N 0.15125 0.8178 0.38524 0.0
C1212 C 0.13669 0.80808 0.3774 0.0
C1213 C 0.10756 0.75182 0.38977 0.0
C1214 C 0.13641 0.7908 0.39143 0.0
C1215 C 0.09383 0.74148 0.38166 0.0
C1216 C 0.10839 0.76975 0.37546 0.0
H1217 H 0.14102 0.76592 0.41904 0.0
H1218 H 0.09668 0.71382 0.40914 0.0
H1219 H 0.0714 0.69425 0.39501 0.0
O1220 O 0.14605 0.89276 0.38512 0.0
O1221 O 0.22177 0.8445 0.39061 0.0
O1222 O 0.26289 0.86609 0.37946 0.0
O1223 O 0.15363 0.88462 0.39818 0.0
O1224 O 0.20128 0.8908 0.37521 0.0
O1225 O 0.25967 0.89387 0.37121 0.0
O1226 O 0.34771 0.91501 0.38512 0.0
O1227 O 0.27446 0.96695 0.37882 0.0
O1228 O 0.23894 0.94574 0.39046 0.0
O1229 O 0.34796 0.92844 0.37215 0.0
O1230 O 0.29504 0.914 0.39425 0.0
O1231 O 0.24459 0.92345 0.3984 0.0
C1232 C 0.24622 0.84151 0.38559 0.0
C1233 C 0.10201 0.89809 0.39543 0.0
C1234 C 0.03676 0.89145 0.39423 0.0
C1235 C 0.04187 0.90739 0.40226 0.0
C1236 C 0.10625 0.91523 0.40325 0.0
C1237 C 0.07638 0.91962 0.40663 0.0
C1238 C 0.06731 0.88664 0.39085 0.0
C1239 C 0.22512 0.88955 0.36951 0.0
C1240 C 0.13263 0.88936 0.39263 0.0
C1241 C 0.10777 0.73545 0.40426 0.0
C1242 C 0.09337 0.72432 0.39621 0.0
C1243 C 0.24998 0.96867 0.38408 0.0
C1244 C 0.40634 0.93511 0.37793 0.0
C1245 C 0.46223 0.92542 0.3796 0.0
C1246 C 0.48725 0.96592 0.37887 0.0
C1247 C 0.43158 0.97541 0.37719 0.0
C1248 C 0.42172 0.91021 0.37906 0.0
C1249 C 0.47196 0.99067 0.37762 0.0
C1250 C 0.27766 0.9235 0.39997 0.0
C1251 C 0.36385 0.9181 0.37794 0.0
H1252 H 0.01885 0.90986 0.40532 0.0
H1253 H 0.13246 0.9244 0.40689 0.0
H1254 H 0.07966 0.9319 0.41277 0.0
H1255 H 0.06403 0.87362 0.3848 0.0
H1256 H 0.51865 0.97834 0.37915 0.0
H1257 H 0.42007 0.99493 0.37634 0.0
H1258 H 0.4021 0.87903 0.37969 0.0
H1259 H 0.49147 0.02178 0.37702 0.0
Eu1260 Eu 0.68712 0.86674 0.78805 0.0
C1261 C 0.71007 0.74676 0.81232 0.0
N1262 N 0.72812 0.78627 0.81292 0.0
C1263 C 0.72166 0.78222 0.82766 0.0
C1264 C 0.69664 0.72329 0.81948 0.0
C1265 C 0.73468 0.80429 0.82041 0.0
C1266 C 0.70242 0.74153 0.8272 0.0
C1267 C 0.686 0.68868 0.80378 0.0
C1268 C 0.70481 0.72962 0.80454 0.0
C1269 C 0.67258 0.66529 0.81089 0.0
C1270 C 0.67786 0.68252 0.81871 0.0
Eu1271 Eu 0.74707 0.82051 0.80036 0.0
N1272 N 0.71723 0.75289 0.7977 0.0
C1273 C 0.68104 0.67237 0.79587 0.0
C1274 C 0.71308 0.73714 0.79 0.0
C1275 C 0.6948 0.69673 0.78897 0.0
H1276 H 0.75065 0.83571 0.82077 0.0
H1277 H 0.69132 0.68438 0.78283 0.0
H1278 H 0.69367 0.86583 0.76725 0.0
H1279 H 0.73521 0.9914 0.80915 0.0
H1280 H 0.72354 0.75531 0.78459 0.0
H1281 H 0.66673 0.64105 0.79504 0.0
H1282 H 0.71135 0.92332 0.80554 0.0
H1283 H 0.72663 0.79656 0.83361 0.0
H1284 H 0.658 0.63378 0.81042 0.0
H1285 H 0.6673 0.66403 0.82414 0.0
H1286 H 0.71143 0.91198 0.75564 0.0
H1287 H 0.69243 0.72449 0.83283 0.0
H1288 H 0.74983 0.04015 0.79816 0.0
N1289 N 0.70718 0.90901 0.77652 0.0
C1290 C 0.71932 0.94704 0.77817 0.0
C1291 C 0.71391 0.92225 0.76194 0.0
C1292 C 0.7285 0.97414 0.77168 0.0
C1293 C 0.70441 0.89629 0.76856 0.0
C1294 C 0.72581 0.9613 0.7635 0.0
N1295 N 0.715 0.93256 0.79252 0.0
C1296 C 0.71891 0.94386 0.80062 0.0
C1297 C 0.73538 0.99847 0.78822 0.0
C1298 C 0.72302 0.95909 0.78637 0.0
C1299 C 0.74007 0.01012 0.7965 0.0
C1300 C 0.73202 0.98274 0.80272 0.0
H1301 H 0.73273 0.98126 0.75836 0.0
H1302 H 0.74663 0.03412 0.76861 0.0
H1303 H 0.75204 0.05529 0.78308 0.0
O1304 O 0.63217 0.86512 0.79203 0.0
O1305 O 0.75281 0.90468 0.78758 0.0
O1306 O 0.7645 0.8843 0.79976 0.0
O1307 O 0.64023 0.85334 0.77926 0.0
O1308 O 0.67573 0.85211 0.80232 0.0
O1309 O 0.73549 0.86358 0.8069 0.0
O1310 O 0.80376 0.83669 0.79509 0.0
O1311 O 0.67979 0.78166 0.79984 0.0
O1312 O 0.67355 0.80482 0.7876 0.0
O1313 O 0.79484 0.82623 0.80825 0.0
O1314 O 0.7532 0.82425 0.78657 0.0
O1315 O 0.71152 0.83784 0.77879 0.0
C1316 C 0.77772 0.90601 0.7931 0.0
C1317 C 0.57888 0.85192 0.78206 0.0
C1318 C 0.52259 0.86247 0.78366 0.0
C1319 C 0.50944 0.84593 0.7758 0.0
C1320 C 0.56409 0.8351 0.77428 0.0
C1321 C 0.52978 0.83211 0.77121 0.0
C1322 C 0.55739 0.86503 0.78686 0.0
C1323 C 0.70003 0.85631 0.80849 0.0
C1324 C 0.61805 0.85792 0.78454 0.0
C1325 C 0.73986 0.01304 0.77352 0.0
C1326 C 0.74285 0.02506 0.78176 0.0
C1327 C 0.65738 0.78095 0.79375 0.0
C1328 C 0.84401 0.81754 0.80182 0.0
C1329 C 0.90881 0.82559 0.79977 0.0
C1330 C 0.89208 0.7848 0.79998 0.0
C1331 C 0.82779 0.77696 0.80204 0.0
C1332 C 0.8845 0.84178 0.80075 0.0
C1333 C 0.85187 0.76073 0.80117 0.0
C1334 C 0.74014 0.82907 0.77943 0.0
C1335 C 0.8192 0.83529 0.80211 0.0
H1336 H 0.48279 0.84309 0.77324 0.0
H1337 H 0.57938 0.82456 0.77045 0.0
H1338 H 0.519 0.81919 0.76518 0.0
H1339 H 0.56812 0.87805 0.79289 0.0
H1340 H 0.91021 0.77157 0.79933 0.0
H1341 H 0.79659 0.75795 0.80281 0.0
H1342 H 0.89694 0.87317 0.80049 0.0
H1343 H 0.83933 0.72938 0.80136 0.0
Eu1344 Eu 0.22345 0.85739 0.78973 0.0
C1345 C 0.34815 0.01248 0.8096 0.0
N1346 N 0.30862 0.99213 0.8103 0.0
C1347 C 0.314 0.99909 0.82509 0.0
C1348 C 0.37224 0.02578 0.81669 0.0
C1349 C 0.29137 0.9867 0.81789 0.0
C1350 C 0.35462 0.01826 0.82449 0.0
C1351 C 0.4055 0.04441 0.80082 0.0
C1352 C 0.36459 0.02196 0.80178 0.0
C1353 C 0.42962 0.05629 0.80785 0.0
C1354 C 0.41302 0.04709 0.81577 0.0
Eu1355 Eu 0.27265 0.97105 0.79775 0.0
N1356 N 0.34053 0.01033 0.79511 0.0
C1357 C 0.42092 0.05495 0.79283 0.0
C1358 C 0.35536 0.02226 0.78735 0.0
C1359 C 0.39567 0.04415 0.78607 0.0
H1360 H 0.26003 0.97326 0.81846 0.0
H1361 H 0.4072 0.05256 0.77986 0.0
H1362 H 0.23588 0.85846 0.76929 0.0
H1363 H 0.08878 0.77449 0.80804 0.0
H1364 H 0.33615 0.01341 0.78213 0.0
H1365 H 0.45217 0.072 0.79183 0.0
H1366 H 0.15827 0.81887 0.80605 0.0
H1367 H 0.30007 0.99421 0.83108 0.0
H1368 H 0.4611 0.07333 0.80723 0.0
H1369 H 0.43196 0.05727 0.82114 0.0
H1370 H 0.19587 0.83455 0.75662 0.0
H1371 H 0.37211 0.02811 0.83008 0.0
H1372 H 0.04537 0.74471 0.79601 0.0
N1373 N 0.18723 0.83541 0.77739 0.0
C1374 C 0.14816 0.81088 0.7782 0.0
C1375 C 0.18199 0.82814 0.76264 0.0
C1376 C 0.12428 0.79457 0.77114 0.0
C1377 C 0.20455 0.84264 0.7698 0.0
C1378 C 0.14158 0.80432 0.7633 0.0
N1379 N 0.15577 0.81694 0.79282 0.0
C1380 C 0.14044 0.80748 0.80063 0.0
C1381 C 0.09177 0.7743 0.78705 0.0
C1382 C 0.13209 0.80102 0.7861 0.0
C1383 C 0.07618 0.76492 0.79503 0.0
C1384 C 0.10059 0.78174 0.80183 0.0
H1385 H 0.12419 0.79256 0.75775 0.0
H1386 H 0.06554 0.75533 0.76677 0.0
H1387 H 0.03722 0.73704 0.78069 0.0
O1388 O 0.20932 0.79631 0.79145 0.0
O1389 O 0.18674 0.88629 0.78766 0.0
O1390 O 0.20896 0.92485 0.79902 0.0
O1391 O 0.25887 0.8362 0.78373 0.0
O1392 O 0.22389 0.86121 0.80416 0.0
O1393 O 0.24145 0.92534 0.80767 0.0
O1394 O 0.2668 0.0163 0.79114 0.0
O1395 O 0.31366 0.94906 0.79332 0.0
O1396 O 0.27555 0.8883 0.79813 0.0
O1397 O 0.25672 0.00895 0.8043 0.0
O1398 O 0.25204 0.95778 0.78455 0.0
O1399 O 0.26124 0.90755 0.78026 0.0
C1400 C 0.18348 0.90943 0.79302 0.0
C1401 C 0.24786 0.76989 0.78509 0.0
C1402 C 0.2332 0.70183 0.78577 0.0
C1403 C 0.27033 0.71353 0.7825 0.0
C1404 C 0.28466 0.78041 0.78175 0.0
C1405 C 0.2957 0.75244 0.78047 0.0
C1406 C 0.22182 0.73015 0.78704 0.0
C1407 C 0.22816 0.88842 0.80961 0.0
C1408 C 0.23837 0.80115 0.78682 0.0
C1409 C 0.08424 0.76819 0.77211 0.0
C1410 C 0.06816 0.75764 0.78004 0.0
C1411 C 0.30933 0.91503 0.79534 0.0
C1412 C 0.2715 0.06953 0.79884 0.0
C1413 C 0.25826 0.12315 0.79856 0.0
C1414 C 0.29546 0.14778 0.80193 0.0
C1415 C 0.30846 0.09414 0.80226 0.0
C1416 C 0.24637 0.08396 0.79705 0.0
C1417 C 0.32032 0.13323 0.80381 0.0
C1418 C 0.26344 0.94194 0.77892 0.0
C1419 C 0.25686 0.02794 0.79776 0.0
H1420 H 0.27955 0.69231 0.78143 0.0
H1421 H 0.30531 0.81052 0.78022 0.0
H1422 H 0.3242 0.76101 0.77792 0.0
H1423 H 0.19325 0.72138 0.78958 0.0
H1424 H 0.30505 0.17815 0.8032 0.0
H1425 H 0.32772 0.08299 0.80382 0.0
H1426 H 0.21757 0.06473 0.79451 0.0
H1427 H 0.34872 0.15223 0.8065 0.0
Eu1428 Eu 0.22652 0.40754 0.78877 0.0
C1429 C 0.0773 0.37482 0.8101 0.0
N1430 N 0.09963 0.35785 0.81104 0.0
C1431 C 0.09922 0.3648 0.82577 0.0
C1432 C 0.0657 0.38828 0.81702 0.0
C1433 C 0.10985 0.35179 0.81872 0.0
C1434 C 0.07729 0.3834 0.82491 0.0
C1435 C 0.04257 0.396 0.80102 0.0
C1436 C 0.06592 0.3787 0.80219 0.0
C1437 C 0.03136 0.40986 0.80788 0.0
C1438 C 0.04292 0.40605 0.81586 0.0
Eu1439 Eu 0.11899 0.33982 0.79878 0.0
N1440 N 0.07818 0.36604 0.79563 0.0
C1441 C 0.03109 0.3988 0.79297 0.0
C1442 C 0.066 0.36759 0.78783 0.0
C1443 C 0.04249 0.38408 0.78636 0.0
H1444 H 0.12556 0.33622 0.81941 0.0
H1445 H 0.03336 0.38559 0.78012 0.0
H1446 H 0.22349 0.40898 0.76808 0.0
H1447 H 0.30846 0.36401 0.80923 0.0
H1448 H 0.07432 0.35634 0.78271 0.0
H1449 H 0.01314 0.41187 0.79181 0.0
H1450 H 0.26173 0.38554 0.80588 0.0
H1451 H 0.10775 0.36028 0.83185 0.0
H1452 H 0.01362 0.42344 0.80709 0.0
H1453 H 0.03391 0.41675 0.8211 0.0
H1454 H 0.25124 0.39228 0.75612 0.0
H1455 H 0.06904 0.39343 0.83038 0.0
H1456 H 0.34265 0.35068 0.79801 0.0
N1457 N 0.24974 0.39013 0.777 0.0
C1458 C 0.27465 0.3765 0.77844 0.0
C1459 C 0.25788 0.38746 0.76236 0.0
C1460 C 0.29336 0.36918 0.77181 0.0
C1461 C 0.24148 0.39609 0.76913 0.0
C1462 C 0.284 0.37399 0.7637 0.0
N1463 N 0.26535 0.38021 0.79287 0.0
C1464 C 0.27436 0.37765 0.80091 0.0
C1465 C 0.31251 0.36251 0.78825 0.0
C1466 C 0.28363 0.37258 0.78659 0.0
C1467 C 0.32099 0.35883 0.79649 0.0
C1468 C 0.30162 0.36616 0.80284 0.0
H1469 H 0.29757 0.36842 0.75845 0.0
H1470 H 0.33706 0.35384 0.76846 0.0
H1471 H 0.35473 0.34926 0.78282 0.0
O1472 O 0.27284 0.46126 0.79453 0.0
O1473 O 0.20166 0.34193 0.78736 0.0
O1474 O 0.16607 0.32366 0.79912 0.0
O1475 O 0.26812 0.45772 0.78132 0.0
O1476 O 0.21776 0.41328 0.80295 0.0
O1477 O 0.17083 0.35136 0.80655 0.0
O1478 O 0.07609 0.28431 0.79328 0.0
O1479 O 0.14452 0.40645 0.79875 0.0
O1480 O 0.18201 0.42649 0.78695 0.0
O1481 O 0.08079 0.29054 0.80663 0.0
O1482 O 0.12227 0.33343 0.78488 0.0
O1483 O 0.17493 0.39019 0.77958 0.0
C1484 C 0.17906 0.31447 0.79256 0.0
C1485 C 0.33231 0.49544 0.78697 0.0
C1486 C 0.39976 0.54877 0.78919 0.0
C1487 C 0.41351 0.52425 0.78638 0.0
C1488 C 0.34757 0.47278 0.78384 0.0
C1489 C 0.38757 0.48668 0.78367 0.0
C1490 C 0.35885 0.53421 0.78951 0.0
C1491 C 0.19823 0.38641 0.80867 0.0
C1492 C 0.28905 0.47828 0.78758 0.0
C1493 C 0.32203 0.35908 0.77347 0.0
C1494 C 0.33224 0.35669 0.78165 0.0
C1495 C 0.16296 0.43232 0.79287 0.0
C1496 C 0.02139 0.24036 0.80118 0.0
C1497 C 0.9675 0.17381 0.80013 0.0
C1498 C 0.94161 0.18656 0.80256 0.0
C1499 C 0.9955 0.25293 0.80366 0.0
C1500 C 1.00741 0.20082 0.79949 0.0
C1501 C 0.95565 0.22593 0.80437 0.0
C1502 C 0.14049 0.35742 0.77871 0.0
C1503 C 0.06324 0.26738 0.80042 0.0
H1504 H 0.44458 0.53476 0.78597 0.0
H1505 H 0.32873 0.44444 0.7814 0.0
H1506 H 0.39853 0.46842 0.78128 0.0
H1507 H 0.34788 0.55283 0.79168 0.0
H1508 H 0.91065 0.16597 0.80316 0.0
H1509 H 1.0061 0.28339 0.80505 0.0
H1510 H 0.02753 0.19111 0.79761 0.0
H1511 H 0.93562 0.23551 0.80632 0.0
Eu1512 Eu 0.26461 0.33265 0.29924 0.0
C1513 C 0.14697 0.3767 0.27921 0.0
N1514 N 0.18502 0.38814 0.27777 0.0
C1515 C 0.17409 0.3854 0.26313 0.0
C1516 C 0.12073 0.36872 0.27259 0.0
C1517 C 0.19906 0.39355 0.26989 0.0
C1518 C 0.13465 0.37266 0.26448 0.0
C1519 C 0.09539 0.36354 0.289 0.0
C1520 C 0.13438 0.37356 0.28734 0.0
C1521 C 0.06917 0.35547 0.28242 0.0
C1522 C 0.08172 0.35773 0.27424 0.0
Eu1523 Eu 0.22572 0.40249 0.28948 0.0
N1524 N 0.16024 0.38076 0.29359 0.0
C1525 C 0.08378 0.3618 0.29723 0.0
C1526 C 0.14925 0.38062 0.30161 0.0
C1527 C 0.11085 0.37044 0.30356 0.0
H1528 H 0.22987 0.40607 0.26882 0.0
H1529 H 0.10241 0.37012 0.30994 0.0
H1530 H 0.24535 0.32479 0.31957 0.0
H1531 H 0.40382 0.38614 0.28302 0.0
H1532 H 0.17 0.38992 0.30656 0.0
H1533 H 0.05409 0.35413 0.29876 0.0
H1534 H 0.33298 0.35787 0.28417 0.0
H1535 H 0.18546 0.38978 0.25689 0.0
H1536 H 0.03905 0.34734 0.28361 0.0
H1537 H 0.06114 0.35141 0.26924 0.0
H1538 H 0.2818 0.34383 0.33276 0.0
H1539 H 0.11542 0.36681 0.25923 0.0
H1540 H 0.44477 0.40652 0.29563 0.0
N1541 N 0.29636 0.3476 0.31215 0.0
C1542 C 0.33592 0.36428 0.31194 0.0
C1543 C 0.29741 0.35013 0.32696 0.0
C1544 C 0.35791 0.37527 0.31932 0.0
C1545 C 0.27685 0.33976 0.31948 0.0
C1546 C 0.33814 0.36826 0.32688 0.0
N1547 N 0.33276 0.36083 0.29728 0.0
C1548 C 0.34995 0.36572 0.28973 0.0
C1549 C 0.39559 0.38784 0.30394 0.0
C1550 C 0.35459 0.37063 0.30432 0.0
C1551 C 0.41337 0.39346 0.29618 0.0
C1552 C 0.39039 0.382 0.28905 0.0
H1553 H 0.354 0.3763 0.33268 0.0
H1554 H 0.41614 0.40153 0.32455 0.0
H1555 H 0.44906 0.4124 0.31109 0.0
O1556 O 0.25343 0.27899 0.29313 0.0
O1557 O 0.30531 0.39938 0.30029 0.0
O1558 O 0.28878 0.41912 0.28854 0.0
O1559 O 0.25475 0.28198 0.30652 0.0
O1560 O 0.26329 0.33183 0.28537 0.0
O1561 O 0.25587 0.3823 0.27979 0.0
O1562 O 0.22687 0.45534 0.29426 0.0
O1563 O 0.18492 0.33783 0.28697 0.0
O1564 O 0.20018 0.31379 0.29828 0.0
O1565 O 0.24931 0.45585 0.28214 0.0
O1566 O 0.23546 0.40306 0.30385 0.0
O1567 O 0.21939 0.33977 0.30599 0.0
C1568 C 0.31186 0.42679 0.29486 0.0
C1569 C 0.26706 0.23524 0.3002 0.0
C1570 C 0.2577 0.16995 0.29861 0.0
C1571 C 0.29812 0.1854 0.29962 0.0
C1572 C 0.30728 0.25037 0.30126 0.0
C1573 C 0.32268 0.22537 0.301 0.0
C1574 C 0.24235 0.19509 0.29895 0.0
C1575 C 0.26336 0.35297 0.27911 0.0
C1576 C 0.25001 0.26055 0.30003 0.0
C1577 C 0.39877 0.39278 0.31894 0.0
C1578 C 0.41753 0.39896 0.31128 0.0
C1579 C 0.17959 0.30803 0.29151 0.0
C1580 C 0.21962 0.49491 0.28399 0.0
C1581 C 0.20279 0.54685 0.2847 0.0
C1582 C 0.18563 0.53574 0.27682 0.0
C1583 C 0.20218 0.48482 0.27611 0.0
C1584 C 0.21943 0.52593 0.28833 0.0
C1585 C 0.18517 0.50487 0.2726 0.0
C1586 C 0.22513 0.37299 0.30891 0.0
C1587 C 0.23988 0.47469 0.28738 0.0
H1588 H 0.31058 0.16647 0.29947 0.0
H1589 H 0.32661 0.28133 0.30223 0.0
H1590 H 0.35372 0.237 0.30184 0.0
H1591 H 0.21124 0.1835 0.29811 0.0
H1592 H 0.17221 0.55086 0.27394 0.0
H1593 H 0.20217 0.46184 0.27254 0.0
H1594 H 0.233 0.53438 0.29438 0.0
H1595 H 0.17188 0.49668 0.26654 0.0
Eu1596 Eu 0.74097 0.96605 0.2982 0.0
C1597 C 0.71871 0.81869 0.27503 0.0
N1598 N 0.70299 0.84242 0.27469 0.0
C1599 C 0.70949 0.84572 0.25989 0.0
C1600 C 0.73079 0.80793 0.26776 0.0
C1601 C 0.69689 0.85472 0.26722 0.0
C1602 C 0.72684 0.82253 0.26016 0.0
C1603 C 0.73386 0.77605 0.28307 0.0
C1604 C 0.72084 0.80335 0.28263 0.0
C1605 C 0.74631 0.76575 0.27585 0.0
C1606 C 0.7452 0.78197 0.26823 0.0
Eu1607 Eu 0.6828 0.85554 0.28754 0.0
N1608 N 0.70857 0.81372 0.28954 0.0
C1609 C 0.73318 0.7592 0.29072 0.0
C1610 C 0.70563 0.79555 0.29691 0.0
C1611 C 0.71862 0.76871 0.29765 0.0
H1612 H 0.68144 0.87068 0.2668 0.0
H1613 H 0.71669 0.75482 0.30354 0.0
H1614 H 0.75675 0.97979 0.3186 0.0
H1615 H 0.64735 1.00018 0.27851 0.0
H1616 H 0.69209 0.80051 0.30218 0.0
H1617 H 0.74295 0.73815 0.29131 0.0
H1618 H 0.68311 0.96687 0.28206 0.0
H1619 H 0.70506 0.85604 0.25401 0.0
H1620 H 0.75658 0.74499 0.27608 0.0
H1621 H 0.7546 0.77344 0.26271 0.0
H1622 H 0.74925 0.0185 0.3297 0.0
H1623 H 0.73592 0.81505 0.25445 0.0
H1624 H 0.64269 0.04462 0.28856 0.0
N1625 N 0.7306 0.99774 0.30939 0.0
C1626 C 0.71273 0.01859 0.3076 0.0
C1627 C 0.7387 0.0186 0.32353 0.0
C1628 C 0.70726 0.04051 0.31381 0.0
C1629 C 0.74292 0.99679 0.31723 0.0
C1630 C 0.72095 0.04068 0.32181 0.0
N1631 N 0.70236 0.99402 0.29384 0.0
C1632 C 0.68308 0.9871 0.28645 0.0
C1633 C 0.67691 0.03584 0.29789 0.0
C1634 C 0.69818 0.01668 0.29965 0.0
C1635 C 0.6594 0.03059 0.29012 0.0
C1636 C 0.66199 1.00561 0.28443 0.0
H1637 H 0.71748 0.05734 0.32673 0.0
H1638 H 0.68349 0.07808 0.31661 0.0
H1639 H 0.65653 0.0736 0.30271 0.0
O1640 O 0.78882 0.02165 0.29346 0.0
O1641 O 0.67415 0.9326 0.29983 0.0
O1642 O 0.66447 0.90035 0.28787 0.0
O1643 O 0.79555 0.99787 0.30504 0.0
O1644 O 0.75356 0.95259 0.28531 0.0
O1645 O 0.69757 0.90908 0.27885 0.0
O1646 O 0.62732 0.81119 0.29341 0.0
O1647 O 0.74776 0.88098 0.28864 0.0
O1648 O 0.76707 0.92615 0.29936 0.0
O1649 O 0.6365 0.80868 0.28027 0.0
O1650 O 0.68931 0.85871 0.30205 0.0
O1651 O 0.72235 0.92121 0.30816 0.0
C1652 C 0.6498 0.90696 0.29448 0.0
C1653 C 0.84391 0.06338 0.30203 0.0
C1654 C 0.91234 0.11411 0.30087 0.0
C1655 C 0.90718 0.13381 0.30755 0.0
C1656 C 0.83927 0.08325 0.30872 0.0
C1657 C 0.8709 0.11835 0.31146 0.0
C1658 C 0.88057 0.07875 0.29815 0.0
C1659 C 0.73108 0.94308 0.27882 0.0
C1660 C 0.8123 0.02492 0.29945 0.0
C1661 C 0.68774 0.06097 0.31193 0.0
C1662 C 0.67249 0.05852 0.304 0.0
C1663 C 0.77395 0.9057 0.29385 0.0
C1664 C 0.57197 0.76321 0.28519 0.0
C1665 C 0.51423 0.69779 0.28684 0.0
C1666 C 0.49275 0.7096 0.28192 0.0
C1667 C 0.55026 0.77289 0.2798 0.0
C1668 C 0.55392 0.725 0.28856 0.0
C1669 C 0.51073 0.74673 0.27839 0.0
C1670 C 0.70315 0.88286 0.30858 0.0
C1671 C 0.61428 0.79099 0.2866 0.0
H1672 H 0.93145 0.16091 0.3098 0.0
H1673 H 0.81148 0.07143 0.31188 0.0
H1674 H 0.86739 0.13349 0.31668 0.0
H1675 H 0.88447 0.06307 0.29307 0.0
H1676 H 0.46244 0.68929 0.28045 0.0
H1677 H 0.56386 0.80045 0.27656 0.0
H1678 H 0.57095 0.71609 0.29228 0.0
H1679 H 0.4942 0.75487 0.27433 0.0
Eu1680 Eu 0.11637 0.8145 0.30043 0.0
C1681 C 0.26855 0.93351 0.27894 0.0
N1682 N 0.24313 0.89513 0.27744 0.0
C1683 C 0.24841 0.90704 0.26283 0.0
C1684 C 0.28605 0.96 0.27234 0.0
C1685 C 0.23273 0.88158 0.26955 0.0
C1686 C 0.27537 0.94637 0.26422 0.0
C1687 C 0.30615 0.98536 0.28877 0.0
C1688 C 0.27833 0.94604 0.2871 0.0
C1689 C 0.3247 0.01138 0.2822 0.0
C1690 C 0.31437 0.99885 0.27401 0.0
Eu1691 Eu 0.2223 0.85376 0.28909 0.0
N1692 N 0.26116 0.91976 0.29336 0.0
C1693 C 0.31496 0.99737 0.29701 0.0
C1694 C 0.27095 0.93122 0.30139 0.0
C1695 C 0.29717 0.97019 0.30334 0.0
H1696 H 0.21316 0.85092 0.26841 0.0
H1697 H 0.30445 0.97902 0.30974 0.0
H1698 H 0.12989 0.82836 0.32098 0.0
H1699 H 0.02669 0.68 0.28305 0.0
H1700 H 0.25988 0.91063 0.30636 0.0
H1701 H 0.33584 0.02739 0.29855 0.0
H1702 H 0.06689 0.75104 0.28505 0.0
H1703 H 0.24031 0.89617 0.25658 0.0
H1704 H 0.34647 0.04152 0.28339 0.0
H1705 H 0.32851 0.01947 0.26902 0.0
H1706 H 0.11221 0.78876 0.33373 0.0
H1707 H 0.2881 0.96585 0.25899 0.0
H1708 H 1.00919 0.63577 0.29504 0.0
N1709 N 0.10069 0.77935 0.31299 0.0
C1710 C 0.07752 0.74002 0.3124 0.0
C1711 C 0.10252 0.77465 0.32777 0.0
C1712 C 0.0668 0.71628 0.31952 0.0
C1713 C 0.11281 0.79694 0.32053 0.0
C1714 C 0.07975 0.7341 0.32726 0.0
N1715 N 0.0751 0.74711 0.29788 0.0
C1716 C 0.06084 0.73212 0.29025 0.0
C1717 C 0.04053 0.68264 0.30383 0.0
C1718 C 0.06436 0.72342 0.30464 0.0
C1719 C 0.02746 0.66696 0.29593 0.0
C1720 C 0.03738 0.69185 0.28914 0.0
H1721 H 0.07198 0.71687 0.33287 0.0
H1722 H 0.03496 0.65694 0.32411 0.0
H1723 H 0.01215 0.62749 0.31037 0.0
O1724 O 0.06934 0.82565 0.29602 0.0
O1725 O 0.14269 0.77432 0.3008 0.0
O1726 O 0.1757 0.79048 0.28856 0.0
O1727 O 0.08371 0.82791 0.30914 0.0
O1728 O 0.11583 0.82005 0.28635 0.0
O1729 O 0.16905 0.81818 0.28037 0.0
O1730 O 0.27045 0.84703 0.294 0.0
O1731 O 0.19612 0.89338 0.28761 0.0
O1732 O 0.16469 0.87695 0.29979 0.0
O1733 O 0.26075 0.84361 0.28089 0.0
O1734 O 0.2173 0.84045 0.30328 0.0
O1735 O 0.17118 0.85579 0.30736 0.0
C1736 C 0.16265 0.76806 0.29508 0.0
C1737 C 0.03269 0.84199 0.30615 0.0
C1738 C 0.98898 0.86714 0.30328 0.0
C1739 C 0.9816 0.8668 0.31178 0.0
C1740 C 0.02467 0.84173 0.31465 0.0
C1741 C 0.9993 0.85406 0.31742 0.0
C1742 C 0.01447 0.85458 0.30042 0.0
C1743 C 0.13401 0.81553 0.27994 0.0
C1744 C 0.06254 0.83219 0.30359 0.0
C1745 C 0.04335 0.67565 0.31871 0.0
C1746 C 0.03034 0.65887 0.31089 0.0
C1747 C 0.17422 0.89789 0.29306 0.0
C1748 C 0.32692 0.87152 0.28552 0.0
C1749 C 0.39519 0.88847 0.28786 0.0
C1750 C 0.40763 0.92437 0.28391 0.0
C1751 C 0.34071 0.90688 0.28125 0.0
C1752 C 0.35454 0.862 0.2887 0.0
C1753 C 0.38057 0.93327 0.28057 0.0
C1754 C 0.19802 0.84687 0.30921 0.0
C1755 C 0.28408 0.84531 0.28678 0.0
H1756 H 0.96184 0.87626 0.31403 0.0
H1757 H 0.0384 0.83242 0.31921 0.0
H1758 H 0.99348 0.85391 0.32397 0.0
H1759 H 0.02045 0.85521 0.29386 0.0
H1760 H 0.43849 0.94491 0.28309 0.0
H1761 H 0.3208 0.91409 0.27834 0.0
H1762 H 0.34456 0.83426 0.29177 0.0
H1763 H 0.39053 0.96053 0.27732 0.0
Eu1764 Eu 0.67268 0.92931 0.87995 0.0
C1765 C 0.69624 0.80741 0.89947 0.0
N1766 N 0.71295 0.8465 0.90076 0.0
C1767 C 0.70287 0.83606 0.91538 0.0
C1768 C 0.68183 0.78101 0.90615 0.0
C1769 C 0.71695 0.86117 0.90857 0.0
C1770 C 0.68515 0.79581 0.91417 0.0
C1771 C 0.67708 0.7535 0.88992 0.0
C1772 C 0.69307 0.79379 0.8914 0.0
C1773 C 0.66261 0.72713 0.89657 0.0
C1774 C 0.66475 0.74082 0.90465 0.0
Eu1775 Eu 0.73677 0.88653 0.88892 0.0
N1776 N 0.70632 0.81989 0.88503 0.0
C1777 C 0.67709 0.74093 0.88184 0.0
C1778 C 0.70781 0.80776 0.87719 0.0
C1779 C 0.69288 0.76823 0.87547 0.0
H1780 H 0.73143 0.89226 0.90958 0.0
H1781 H 0.69424 0.7589 0.86924 0.0
H1782 H 0.68079 0.92645 0.85932 0.0
H1783 H 0.70126 0.05334 0.8996 0.0
H1784 H 0.72212 0.82833 0.87228 0.0
H1785 H 0.666 0.71036 0.8805 0.0
H1786 H 0.67111 0.98385 0.89583 0.0
H1787 H 0.70595 0.84778 0.92156 0.0
H1788 H 0.64999 0.69608 0.89552 0.0
H1789 H 0.65353 0.72011 0.90971 0.0
H1790 H 0.70932 0.97257 0.8477 0.0
H1791 H 0.67442 0.77646 0.91946 0.0
H1792 H 0.74045 0.10408 0.88925 0.0
N1793 N 0.69987 0.97092 0.86843 0.0
C1794 C 0.71674 0.00983 0.86996 0.0
C1795 C 0.71266 0.98341 0.85395 0.0
C1796 C 0.73392 0.03722 0.86351 0.0
C1797 C 0.69678 0.95736 0.86055 0.0
C1798 C 0.73197 0.02351 0.85543 0.0
N1799 N 0.69806 0.99497 0.88403 0.0
C1800 C 0.69057 1.00562 0.89152 0.0
C1801 C 0.73251 0.06231 0.87971 0.0
C1802 C 0.71622 0.02219 0.87799 0.0
C1803 C 0.72845 0.07357 0.88769 0.0
C1804 C 0.70657 0.04503 0.89356 0.0
H1805 H 0.74429 0.04358 0.85029 0.0
H1806 H 0.76514 0.09869 0.8604 0.0
H1807 H 0.76386 0.12067 0.87458 0.0
O1808 O 0.6174 0.92467 0.88437 0.0
O1809 O 0.7399 0.96422 0.87791 0.0
O1810 O 0.76545 0.95178 0.88947 0.0
O1811 O 0.62919 0.92451 0.87113 0.0
O1812 O 0.67114 0.92121 0.89395 0.0
O1813 O 0.7321 0.93116 0.89752 0.0
O1814 O 0.78439 0.88102 0.88351 0.0
O1815 O 0.67198 0.85419 0.89213 0.0
O1816 O 0.64573 0.8631 0.88036 0.0
O1817 O 0.785 0.89142 0.8966 0.0
O1818 O 0.73632 0.89438 0.87447 0.0
O1819 O 0.67446 0.88347 0.87218 0.0
C1820 C 0.76829 0.97479 0.88338 0.0
C1821 C 0.56774 0.91988 0.87452 0.0
C1822 C 0.49891 0.89702 0.87705 0.0
C1823 C 0.49668 0.91259 0.8694 0.0
C1824 C 0.5648 0.93504 0.86686 0.0
C1825 C 0.52947 0.93146 0.86434 0.0
C1826 C 0.53457 0.90077 0.87965 0.0
C1827 C 0.70043 0.9336 0.8992 0.0
C1828 C 0.60499 0.92246 0.8768 0.0
C1829 C 0.7516 0.07722 0.86527 0.0
C1830 C 0.75094 0.08974 0.87335 0.0
C1831 C 0.64352 0.84166 0.88676 0.0
C1832 C 0.84543 0.906 0.89021 0.0
C1833 C 0.90606 0.90344 0.88898 0.0
C1834 C 0.92704 0.94448 0.88868 0.0
C1835 C 0.86701 0.9468 0.88986 0.0
C1836 C 0.86503 0.88445 0.8898 0.0
C1837 C 0.90764 0.96583 0.88909 0.0
C1838 C 0.70633 0.88514 0.86942 0.0
C1839 C 0.8024 0.88494 0.89048 0.0
H1840 H 0.46935 0.90986 0.86732 0.0
H1841 H 0.58988 0.94962 0.8628 0.0
H1842 H 0.52744 0.94317 0.85843 0.0
H1843 H 0.53631 0.88851 0.88552 0.0
H1844 H 0.95859 0.9602 0.88819 0.0
H1845 H 0.85242 0.9638 0.89007 0.0
H1846 H 0.84815 0.85285 0.88991 0.0
H1847 H 0.92431 0.9973 0.88871 0.0
Eu1848 Eu 0.14838 0.77827 0.88037 0.0
C1849 C 0.27331 0.93232 0.89987 0.0
N1850 N 0.23531 0.90526 0.90136 0.0
C1851 C 0.24856 0.90706 0.91587 0.0
C1852 C 0.30045 0.94799 0.90642 0.0
C1853 C 0.22251 0.8928 0.90922 0.0
C1854 C 0.28767 0.9348 0.91448 0.0
C1855 C 0.32431 0.97297 0.8901 0.0
C1856 C 0.28526 0.94415 0.89174 0.0
C1857 C 0.35115 0.98901 0.89664 0.0
C1858 C 0.33934 0.97637 0.90476 0.0
Eu1859 Eu 0.19372 0.88647 0.88975 0.0
N1860 N 0.25905 0.92714 0.88546 0.0
C1861 C 0.33541 0.98468 0.88191 0.0
C1862 C 0.26958 0.93946 0.87749 0.0
C1863 C 0.30794 0.96781 0.87559 0.0
H1864 H 0.19211 0.87255 0.91043 0.0
H1865 H 0.31608 0.97728 0.86925 0.0
H1866 H 0.14175 0.79269 0.86012 0.0
H1867 H 0.03437 0.67785 0.90144 0.0
H1868 H 0.24845 0.92905 0.87259 0.0
H1869 H 0.36509 0.00677 0.8804 0.0
H1870 H 0.10194 0.7208 0.89666 0.0
H1871 H 0.23834 0.89708 0.9221 0.0
H1872 H 0.38128 0.01094 0.89547 0.0
H1873 H 0.36053 0.98878 0.90973 0.0
H1874 H 0.09068 0.77903 0.84974 0.0
H1875 H 0.30769 0.94605 0.91967 0.0
H1876 H 0.97893 0.66627 0.89247 0.0
N1877 N 0.10175 0.76581 0.86997 0.0
C1878 C 0.0637 0.74297 0.8722 0.0
C1879 C 0.08266 0.76921 0.85606 0.0
C1880 C 0.03345 0.73339 0.86644 0.0
C1881 C 0.11162 0.77772 0.86198 0.0
C1882 C 0.04337 0.7473 0.85832 0.0
N1883 N 0.08498 0.7375 0.88564 0.0
C1884 C 0.07803 0.71801 0.89295 0.0
C1885 C 0.016 0.70326 0.8826 0.0
C1886 C 0.05512 0.7286 0.88026 0.0
C1887 C 1.00854 0.68611 0.89045 0.0
C1888 C 0.03975 0.69278 0.89557 0.0
H1889 H 0.02097 0.74047 0.8537 0.0
H1890 H 0.97079 0.70203 0.86455 0.0
H1891 H 0.95553 0.67534 0.87866 0.0
O1892 O 0.14848 0.7248 0.88368 0.0
O1893 O 0.1157 0.81243 0.87915 0.0
O1894 O 0.12861 0.84786 0.89111 0.0
O1895 O 0.14968 0.74008 0.87081 0.0
O1896 O 0.16224 0.78596 0.89422 0.0
O1897 O 0.15295 0.83653 0.89854 0.0
O1898 O 0.18842 0.93444 0.88417 0.0
O1899 O 0.23279 0.85966 0.89118 0.0
O1900 O 0.21436 0.81347 0.88079 0.0
O1901 O 0.19405 0.93201 0.89743 0.0
O1902 O 0.18283 0.87667 0.87564 0.0
O1903 O 0.19303 0.82597 0.87225 0.0
C1904 C 0.10458 0.82674 0.88522 0.0
C1905 C 0.18326 0.70709 0.87456 0.0
C1906 C 0.20763 0.66202 0.87636 0.0
C1907 C 0.2424 0.68852 0.87233 0.0
C1908 C 0.21783 0.73303 0.87038 0.0
C1909 C 0.24733 0.72378 0.86932 0.0
C1910 C 0.17825 0.6716 0.8775 0.0
C1911 C 0.15191 0.80294 0.89991 0.0
C1912 C 0.15236 0.71663 0.87606 0.0
C1913 C 0.99444 0.70963 0.86889 0.0
C1914 C 0.98574 0.69454 0.87694 0.0
C1915 C 0.23825 0.83498 0.88671 0.0
C1916 C 0.17187 0.97441 0.89252 0.0
C1917 C 0.17391 0.03746 0.892 0.0
C1918 C 0.13888 0.02083 0.89654 0.0
C1919 C 0.13672 0.95847 0.89694 0.0
C1920 C 0.19009 0.01379 0.88994 0.0
C1921 C 0.12035 0.98162 0.89891 0.0
C1922 C 0.192 0.85746 0.8702 0.0
C1923 C 0.19205 0.9519 0.89123 0.0
H1924 H 0.26519 0.68141 0.87127 0.0
H1925 H 0.22232 0.76065 0.86805 0.0
H1926 H 0.27399 0.74388 0.86613 0.0
H1927 H 0.1514 0.65134 0.88064 0.0
H1928 H 0.12553 0.03808 0.89816 0.0
H1929 H 0.12234 0.92839 0.89899 0.0
H1930 H 0.21749 0.02634 0.88659 0.0
H1931 H 0.0933 0.9692 0.90237 0.0
Eu1932 Eu 0.29948 0.405 0.8782 0.0
C1933 C 0.15921 0.38579 0.90177 0.0
N1934 N 0.18165 0.36868 0.90237 0.0
C1935 C 0.18806 0.38046 0.91701 0.0
C1936 C 0.15123 0.40189 0.90879 0.0
C1937 C 0.1948 0.36448 0.9099 0.0
C1938 C 0.16667 0.39974 0.91643 0.0
C1939 C 0.11606 0.3995 0.89353 0.0
C1940 C 0.14222 0.38515 0.8942 0.0
C1941 C 0.10958 0.41723 0.9004 0.0
C1942 C 0.12722 0.41853 0.90801 0.0
Eu1943 Eu 0.19526 0.34744 0.88972 0.0
N1944 N 0.14921 0.36811 0.88764 0.0
C1945 C 0.09588 0.39405 0.88608 0.0
C1946 C 0.12694 0.35947 0.88065 0.0
C1947 C 0.10056 0.37299 0.87969 0.0
H1948 H 0.21022 0.34853 0.91049 0.0
H1949 H 0.08378 0.36702 0.87405 0.0
H1950 H 0.29628 0.40774 0.8575 0.0
H1951 H 0.37203 0.34841 0.89832 0.0
H1952 H 0.12931 0.34213 0.87577 0.0
H1953 H 0.07541 0.40448 0.88533 0.0
H1954 H 0.32665 0.37133 0.89507 0.0
H1955 H 0.1991 0.37762 0.92294 0.0
H1956 H 0.09001 0.42891 0.89997 0.0
H1957 H 0.12109 0.43135 0.91331 0.0
H1958 H 0.32661 0.39432 0.84553 0.0
H1959 H 0.16124 0.41179 0.92196 0.0
H1960 H 0.40906 0.33925 0.88709 0.0
N1961 N 0.32565 0.39205 0.8664 0.0
C1962 C 0.35139 0.37947 0.86783 0.0
C1963 C 0.33384 0.39004 0.85175 0.0
C1964 C 0.36934 0.37145 0.86115 0.0
C1965 C 0.31669 0.39753 0.85854 0.0
C1966 C 0.36033 0.377 0.85306 0.0
N1967 N 0.34049 0.38025 0.88231 0.0
C1968 C 0.3441 0.37022 0.8902 0.0
C1969 C 0.38447 0.35874 0.8775 0.0
C1970 C 0.35909 0.37351 0.87596 0.0
C1971 C 0.38992 0.3507 0.88566 0.0
C1972 C 0.36923 0.356 0.89202 0.0
H1973 H 0.3735 0.3711 0.84779 0.0
H1974 H 0.40936 0.35148 0.85768 0.0
H1975 H 0.42243 0.34017 0.87196 0.0
O1976 O 0.3583 0.45749 0.87979 0.0
O1977 O 0.26967 0.33851 0.87834 0.0
O1978 O 0.23654 0.32348 0.89067 0.0
O1979 O 0.31769 0.45401 0.87003 0.0
O1980 O 0.29123 0.41987 0.89128 0.0
O1981 O 0.24943 0.36441 0.89824 0.0
O1982 O 0.15719 0.29029 0.88376 0.0
O1983 O 0.22203 0.41274 0.88935 0.0
O1984 O 0.25866 0.43005 0.87736 0.0
O1985 O 0.14448 0.30221 0.89617 0.0
O1986 O 0.19704 0.36161 0.87562 0.0
O1987 O 0.25116 0.36404 0.86974 0.0
C1988 C 0.25033 0.31356 0.88431 0.0
C1989 C 0.37933 0.51429 0.87041 0.0
C1990 C 0.43284 0.58174 0.87215 0.0
C1991 C 0.42447 0.59026 0.8642 0.0
C1992 C 0.3728 0.52385 0.86241 0.0
C1993 C 0.39508 0.56152 0.85937 0.0
C1994 C 0.40968 0.54339 0.87529 0.0
C1995 C 0.2826 0.39849 0.89795 0.0
C1996 C 0.35148 0.47496 0.87365 0.0
C1997 C 0.3953 0.35775 0.86273 0.0
C1998 C 0.40282 0.35139 0.87087 0.0
C1999 C 0.23924 0.43654 0.88316 0.0
C2000 C 0.10754 0.23594 0.89175 0.0
C2001 C 0.04271 0.17647 0.89125 0.0
C2002 C 0.05601 0.15941 0.89709 0.0
C2003 C 0.11969 0.21805 0.89758 0.0
C2004 C 0.06907 0.21489 0.88852 0.0
C2005 C 0.09402 0.18001 0.90021 0.0
C2006 C 0.21695 0.36115 0.86904 0.0
C2007 C 0.13241 0.27805 0.88993 0.0
H2008 H 0.44046 0.61951 0.86169 0.0
H2009 H 0.34976 0.5023 0.85852 0.0
H2010 H 0.38921 0.56863 0.85326 0.0
H2011 H 0.4149 0.5364 0.88147 0.0
H2012 H 0.0369 0.12997 0.89928 0.0
H2013 H 0.14866 0.23394 0.90026 0.0
H2014 H 0.05916 0.22901 0.88419 0.0
H2015 H 0.10337 0.16655 0.90482 0.0
Eu2016 Eu 0.8609 0.67661 0.72177 0.0
C2017 C 0.74921 0.7134 0.69871 0.0
N2018 N 0.78877 0.7303 0.69865 0.0
C2019 C 0.78958 0.73445 0.68386 0.0
C2020 C 0.72824 0.70673 0.69125 0.0
C2021 C 0.80915 0.74085 0.6914 0.0
C2022 C 0.74896 0.71749 0.68378 0.0
C2023 C 0.6883 0.68303 0.70642 0.0
C2024 C 0.72946 0.70166 0.70622 0.0
C2025 C 0.66747 0.67742 0.69902 0.0
C2026 C 0.68736 0.68915 0.69147 0.0
Eu2027 Eu 0.81907 0.74082 0.71167 0.0
N2028 N 0.75026 0.70661 0.71327 0.0
C2029 C 0.66917 0.66974 0.71401 0.0
C2030 C 0.73157 0.69247 0.72064 0.0
C2031 C 0.69091 0.67412 0.72114 0.0
H2032 H 0.84062 0.7552 0.69146 0.0
H2033 H 0.67635 0.66291 0.727 0.0
H2034 H 0.86248 0.67909 0.74254 0.0
H2035 H 0.98128 0.70336 0.70081 0.0
H2036 H 0.74755 0.69366 0.72609 0.0
H2037 H 0.63761 0.65523 0.71441 0.0
H2038 H 0.91293 0.67648 0.70489 0.0
H2039 H 0.80585 0.7429 0.67811 0.0
H2040 H 0.63588 0.66337 0.69907 0.0
H2041 H 0.6708 0.68405 0.6858 0.0
H2042 H 0.91071 0.70649 0.75385 0.0
H2043 H 0.73386 0.7127 0.67792 0.0
H2044 H 0.03411 0.73899 0.71099 0.0
N2045 N 0.90529 0.69925 0.73301 0.0
C2046 C 0.94391 0.71657 0.73115 0.0
C2047 C 0.92048 0.70988 0.74749 0.0
C2048 C 0.9725 0.73214 0.73744 0.0
C2049 C 0.89323 0.69475 0.74105 0.0
C2050 C 0.96032 0.7291 0.74567 0.0
N2051 N 0.92614 0.70009 0.71711 0.0
C2052 C 0.9353 0.69352 0.70934 0.0
C2053 C 0.99435 0.73177 0.72093 0.0
C2054 C 0.95463 0.71669 0.72297 0.0
C2055 C 1.00398 0.72792 0.7128 0.0
C2056 C 0.97425 0.70798 0.70703 0.0
H2057 H 0.98137 0.74057 0.75068 0.0
H2058 H 0.03454 0.76162 0.74008 0.0
H2059 H 0.05371 0.76114 0.72562 0.0
O2060 O 0.85237 0.62098 0.71692 0.0
O2061 O 0.89602 0.74216 0.724 0.0
O2062 O 0.88518 0.76479 0.7119 0.0
O2063 O 0.85083 0.62851 0.73003 0.0
O2064 O 0.85333 0.67514 0.7072 0.0
O2065 O 0.86499 0.73671 0.70459 0.0
O2066 O 0.82961 0.7929 0.71839 0.0
O2067 O 0.78275 0.67387 0.71007 0.0
O2068 O 0.79658 0.6558 0.72237 0.0
O2069 O 0.82448 0.79131 0.70501 0.0
O2070 O 0.81733 0.74129 0.72558 0.0
O2071 O 0.82935 0.69453 0.73155 0.0
C2072 C 0.90802 0.76866 0.7182 0.0
C2073 C 0.8785 0.59066 0.72537 0.0
C2074 C 0.89515 0.53922 0.72331 0.0
C2075 C 0.93149 0.56324 0.72709 0.0
C2076 C 0.91475 0.61348 0.72927 0.0
C2077 C 0.94104 0.59996 0.73008 0.0
C2078 C 0.86855 0.55311 0.72247 0.0
C2079 C 0.86227 0.70433 0.70194 0.0
C2080 C 0.85176 0.60645 0.72418 0.0
C2081 C 0.01215 0.74918 0.73534 0.0
C2082 C 0.02305 0.74894 0.72711 0.0
C2083 C 0.77494 0.64702 0.71575 0.0
C2084 C 0.81381 0.83715 0.7122 0.0
C2085 C 0.8245 0.90309 0.71294 0.0
C2086 C 0.78405 0.88777 0.71377 0.0
C2087 C 0.77345 0.82197 0.71293 0.0
C2088 C 0.83918 0.87759 0.71212 0.0
C2089 C 0.75865 0.84737 0.7137 0.0
C2090 C 0.8196 0.72232 0.73201 0.0
C2091 C 0.83076 0.81188 0.7117 0.0
H2092 H 0.95219 0.55316 0.72794 0.0
H2093 H 0.92282 0.64174 0.73175 0.0
H2094 H 0.96888 0.61796 0.7331 0.0
H2095 H 0.84049 0.53496 0.71953 0.0
H2096 H 0.77212 0.90707 0.71432 0.0
H2097 H 0.75361 0.79073 0.71295 0.0
H2098 H 0.87043 0.88927 0.71152 0.0
H2099 H 0.72748 0.83574 0.71424 0.0
Eu2100 Eu 0.39891 0.21784 0.72279 0.0
C2101 C 0.38086 0.06792 0.70019 0.0
N2102 N 0.36348 0.0898 0.69912 0.0
C2103 C 0.36212 0.08083 0.68442 0.0
C2104 C 0.38956 0.05157 0.69332 0.0
C2105 C 0.35384 0.09627 0.69139 0.0
C2106 C 0.37996 0.0583 0.68538 0.0
C2107 C 0.41002 0.04076 0.70934 0.0
C2108 C 0.3908 0.06238 0.70816 0.0
C2109 C 0.41797 0.02391 0.70252 0.0
C2110 C 0.40779 0.0293 0.69453 0.0
Eu2111 Eu 0.34916 0.11269 0.71135 0.0
N2112 N 0.38333 0.07944 0.71469 0.0
C2113 C 0.42156 0.03738 0.71734 0.0
C2114 C 0.39629 0.07769 0.72242 0.0
C2115 C 0.41506 0.05633 0.72389 0.0
H2116 H 0.33945 0.11318 0.69061 0.0
H2117 H 0.42521 0.0552 0.73005 0.0
H2118 H 0.40257 0.20649 0.74348 0.0
H2119 H 0.35829 0.31434 0.70679 0.0
H2120 H 0.3941 0.09439 0.72738 0.0
H2121 H 0.43647 0.02114 0.71849 0.0
H2122 H 0.39193 0.27679 0.70848 0.0
H2123 H 0.35455 0.08617 0.67831 0.0
H2124 H 0.43252 0.00709 0.70333 0.0
H2125 H 0.41452 0.01643 0.68932 0.0
H2126 H 0.37215 0.2146 0.75609 0.0
H2127 H 0.38628 0.0463 0.67996 0.0
H2128 H 0.31934 0.31858 0.71829 0.0
N2129 N 0.37631 0.22944 0.73546 0.0
C2130 C 0.35468 0.24739 0.73488 0.0
C2131 C 0.36677 0.22369 0.75015 0.0
C2132 C 0.3375 0.25344 0.74197 0.0
C2133 C 0.38363 0.21875 0.74298 0.0
C2134 C 0.3432 0.24064 0.74964 0.0
N2135 N 0.3697 0.25683 0.72062 0.0
C2136 C 0.37403 0.27709 0.71348 0.0
C2137 C 0.33229 0.28358 0.7266 0.0
C2138 C 0.3516 0.26183 0.72726 0.0
C2139 C 0.33368 0.30153 0.71905 0.0
C2140 C 0.35556 0.29914 0.71253 0.0
H2141 H 0.33044 0.24468 0.75522 0.0
H2142 H 0.30249 0.27756 0.74658 0.0
H2143 H 0.29837 0.30438 0.73313 0.0
O2144 O 0.45583 0.25822 0.71701 0.0
O2145 O 0.33342 0.18339 0.72246 0.0
O2146 O 0.32075 0.15091 0.71007 0.0
O2147 O 0.44058 0.27188 0.72894 0.0
O2148 O 0.38806 0.21553 0.70845 0.0
O2149 O 0.38266 0.1603 0.70221 0.0
O2150 O 0.30359 0.05366 0.71482 0.0
O2151 O 0.41631 0.14546 0.71267 0.0
O2152 O 0.42746 0.18147 0.72457 0.0
O2153 O 0.29698 0.08008 0.70372 0.0
O2154 O 0.33224 0.11796 0.7245 0.0
O2155 O 0.38565 0.16459 0.73144 0.0
C2156 C 0.31271 0.16982 0.71575 0.0
C2157 C 0.50781 0.30924 0.72519 0.0
C2158 C 0.56809 0.37371 0.72486 0.0
C2159 C 0.58364 0.36052 0.73107 0.0
C2160 C 0.52449 0.29714 0.73132 0.0
C2161 C 0.56217 0.32261 0.73421 0.0
C2162 C 0.52996 0.3475 0.72188 0.0
C2163 C 0.3874 0.19532 0.70178 0.0
C2164 C 0.46601 0.28411 0.72293 0.0
C2165 C 0.31619 0.27299 0.74122 0.0
C2166 C 0.31376 0.2882 0.73356 0.0
C2167 C 0.43961 0.16726 0.7187 0.0
C2168 C 0.23959 0.03982 0.71137 0.0
C2169 C 0.17191 0.9905 0.71461 0.0
C2170 C 0.16372 0.02061 0.71622 0.0
C2171 C 0.23014 0.06901 0.71294 0.0
C2172 C 0.21016 1.00035 0.71216 0.0
C2173 C 0.19262 0.0595 0.71536 0.0
C2174 C 0.35401 0.12903 0.73115 0.0
C2175 C 0.27999 0.05093 0.70888 0.0
H2176 H 0.61277 0.37948 0.73346 0.0
H2177 H 0.50802 0.26825 0.734 0.0
H2178 H 0.5747 0.31305 0.73899 0.0
H2179 H 0.51702 0.35727 0.71723 0.0
H2180 H 0.13455 0.01409 0.71791 0.0
H2181 H 0.25158 0.09927 0.71221 0.0
H2182 H 0.21695 0.97752 0.71087 0.0
H2183 H 0.18581 0.0824 0.71646 0.0
Eu2184 Eu 0.86679 0.21824 0.7222 0.0
C2185 C 0.01288 0.3501 0.70014 0.0
N2186 N 0.99317 0.31071 0.69911 0.0
C2187 C 1.00263 0.3182 0.68444 0.0
C2188 C 0.02862 0.37515 0.69326 0.0
C2189 C 0.98736 0.29445 0.69141 0.0
C2190 C 0.02342 0.35869 0.68536 0.0
C2191 C 0.03551 0.40642 0.7092 0.0
C2192 C 0.01625 0.36559 0.70806 0.0
C2193 C 0.05226 0.43129 0.70238 0.0
C2194 C 0.04873 0.41572 0.69444 0.0
Eu2195 Eu 0.97404 0.27398 0.71137 0.0
N2196 N 0.99851 0.3409 0.71455 0.0
C2197 C 0.03625 0.42114 0.71711 0.0
C2198 C 0.99667 0.35533 0.72211 0.0
C2199 C 0.01593 0.39549 0.72354 0.0
H2200 H 0.97229 0.26312 0.69068 0.0
H2201 H 0.01474 0.40662 0.72959 0.0
H2202 H 0.88195 0.22888 0.743 0.0
H2203 H 0.78654 0.08569 0.7037 0.0
H2204 H 0.9797 0.33607 0.72702 0.0
H2205 H 0.05094 0.45229 0.71823 0.0
H2206 H 0.82912 0.1558 0.70602 0.0
H2207 H 0.9989 0.30528 0.67837 0.0
H2208 H 0.06721 0.46268 0.70316 0.0
H2209 H 0.06122 0.43536 0.68923 0.0
H2210 H 0.86184 0.18727 0.75536 0.0
H2211 H 0.03524 0.37698 0.67993 0.0
H2212 H 0.76076 0.04079 0.71563 0.0
N2213 N 0.85364 0.18144 0.73453 0.0
C2214 C 0.82959 0.14226 0.73364 0.0
C2215 C 0.85281 0.17422 0.74929 0.0
C2216 C 0.8155 0.11767 0.74064 0.0
C2217 C 0.86494 0.19769 0.74222 0.0
C2218 C 0.82789 0.13407 0.7485 0.0
N2219 N 0.83199 0.15089 0.71906 0.0
C2220 C 0.82033 0.13664 0.71125 0.0
C2221 C 0.79161 0.08642 0.7247 0.0
C2222 C 0.81803 0.12668 0.72573 0.0
C2223 C 0.78074 0.07157 0.71667 0.0
C2224 C 0.79537 0.09678 0.70993 0.0
H2225 H 0.81783 0.11611 0.75402 0.0
H2226 H 0.77731 0.05858 0.74493 0.0
H2227 H 0.75585 0.0314 0.73099 0.0
O2228 O 0.81598 0.22111 0.7172 0.0
O2229 O 0.89777 0.18313 0.72137 0.0
O2230 O 0.93811 0.20777 0.7099 0.0
O2231 O 0.81992 0.2126 0.73024 0.0
O2232 O 0.86881 0.22507 0.70768 0.0
O2233 O 0.92761 0.23221 0.70275 0.0
O2234 O 0.0261 0.2799 0.7175 0.0
O2235 O 0.93768 0.30463 0.71053 0.0
O2236 O 0.90493 0.28302 0.72264 0.0
O2237 O 0.02191 0.2755 0.70426 0.0
O2238 O 0.96574 0.25128 0.72454 0.0
O2239 O 0.91887 0.2594 0.73089 0.0
C2240 C 0.91824 0.1798 0.71533 0.0
C2241 C 0.77354 0.23155 0.72642 0.0
C2242 C 0.70938 0.22748 0.72628 0.0
C2243 C 0.72463 0.26055 0.73139 0.0
C2244 C 0.78698 0.26305 0.73195 0.0
C2245 C 0.76308 0.27811 0.7342 0.0
C2246 C 0.73422 0.21337 0.72366 0.0
C2247 C 0.89198 0.22582 0.70155 0.0
C2248 C 0.79848 0.21438 0.72436 0.0
C2249 C 0.78878 0.07775 0.73961 0.0
C2250 C 0.77648 0.06228 0.73167 0.0
C2251 C 0.913 0.30449 0.716 0.0
C2252 C 0.05195 0.24472 0.71097 0.0
C2253 C 0.09906 0.22285 0.71305 0.0
C2254 C 0.06909 0.18409 0.71189 0.0
C2255 C 0.02291 0.20591 0.70959 0.0
C2256 C 0.09038 0.2533 0.71262 0.0
C2257 C 0.03127 0.17576 0.71012 0.0
C2258 C 0.95411 0.26267 0.73097 0.0
C2259 C 0.04141 0.27556 0.71074 0.0
H2260 H 0.70607 0.27165 0.73354 0.0
H2261 H 0.81602 0.27601 0.73459 0.0
H2262 H 0.77403 0.30279 0.73837 0.0
H2263 H 0.72251 0.1873 0.71988 0.0
H2264 H 0.07526 0.16033 0.71204 0.0
H2265 H 0.99385 0.19907 0.70801 0.0
H2266 H 0.11332 0.28329 0.7135 0.0
H2267 H 1.00852 0.14593 0.70903 0.0
Eu2268 Eu 0.35417 0.19077 0.12295 0.0
C2269 C 0.3522 0.05308 0.14046 0.0
N2270 N 0.37602 0.09061 0.14288 0.0
C2271 C 0.35609 0.0724 0.15696 0.0
C2272 C 0.32826 0.02402 0.14619 0.0
C2273 C 0.37929 0.10042 0.15105 0.0
C2274 C 0.33019 0.03425 0.15451 0.0
C2275 C 0.32828 1.00488 0.1295 0.0
C2276 C 0.35202 0.04373 0.1322 0.0
C2277 C 0.3034 0.97615 0.13513 0.0
C2278 C 0.30344 0.98569 0.14346 0.0
Eu2279 Eu 0.41066 0.13652 0.13229 0.0
N2280 N 0.37625 0.07224 0.12688 0.0
C2281 C 0.33114 0.99586 0.12128 0.0
C2282 C 0.38272 0.0625 0.11922 0.0
C2283 C 0.3591 0.02456 0.11617 0.0
H2284 H 0.40003 0.12976 0.15297 0.0
H2285 H 0.36241 0.01703 0.10993 0.0
H2286 H 0.35367 0.17998 0.10198 0.0
H2287 H 0.39323 0.32126 0.14118 0.0
H2288 H 0.4067 0.08374 0.11558 0.0
H2289 H 0.31323 0.96648 0.11893 0.0
H2290 H 0.3713 0.25225 0.13888 0.0
H2291 H 0.35778 0.07967 0.16342 0.0
H2292 H 0.28472 0.94627 0.13313 0.0
H2293 H 0.28463 0.9631 0.14778 0.0
H2294 H 0.37198 0.22114 0.08961 0.0
H2295 H 0.31233 0.0128 0.15911 0.0
H2296 H 0.40971 0.36577 0.12924 0.0
N2297 N 0.37225 0.22735 0.11048 0.0
C2298 C 0.38539 0.26619 0.11132 0.0
C2299 C 0.37616 0.23423 0.09568 0.0
C2300 C 0.39365 0.29037 0.1043 0.0
C2301 C 0.36663 0.21103 0.10278 0.0
C2302 C 0.38975 0.27406 0.09644 0.0
N2303 N 0.38135 0.25795 0.1259 0.0
C2304 C 0.38157 0.27157 0.13367 0.0
C2305 C 0.39921 0.32108 0.12022 0.0
C2306 C 0.38912 0.28167 0.11922 0.0
C2307 C 0.40173 0.33561 0.12822 0.0
C2308 C 0.39279 0.31069 0.13498 0.0
H2309 H 0.39616 0.29176 0.09092 0.0
H2310 H 0.41033 0.3485 0.09998 0.0
H2311 H 0.41389 0.37501 0.1139 0.0
O2312 O 0.30167 0.18316 0.12937 0.0
O2313 O 0.42006 0.22766 0.12227 0.0
O2314 O 0.44506 0.20283 0.13207 0.0
O2315 O 0.30792 0.19476 0.11625 0.0
O2316 O 0.35942 0.18808 0.13739 0.0
O2317 O 0.41271 0.18123 0.14123 0.0
O2318 O 0.46308 0.13595 0.1279 0.0
O2319 O 0.34487 0.11352 0.134 0.0
O2320 O 0.32652 0.12577 0.12156 0.0
O2321 O 0.44949 0.12978 0.14089 0.0
O2322 O 0.41866 0.15058 0.1185 0.0
O2323 O 0.36344 0.15104 0.11373 0.0
C2324 C 0.44878 0.23003 0.12682 0.0
C2325 C 0.24435 0.17271 0.12196 0.0
C2326 C 0.18502 0.17865 0.12217 0.0
C2327 C 0.16294 0.13864 0.12027 0.0
C2328 C 0.22139 0.13303 0.12006 0.0
C2329 C 0.18096 0.11622 0.11921 0.0
C2330 C 0.22611 0.19561 0.12293 0.0
C2331 C 0.38642 0.19149 0.14283 0.0
C2332 C 0.28732 0.19087 0.12283 0.0
C2333 C 0.40426 0.32968 0.10531 0.0
C2334 C 0.40616 0.34474 0.11323 0.0
C2335 C 0.31933 0.10298 0.12795 0.0
C2336 C 0.5166 0.16649 0.13725 0.0
C2337 C 0.58719 0.19741 0.13488 0.0
C2338 C 0.59347 0.22464 0.14111 0.0
C2339 C 0.52395 0.19398 0.14354 0.0
C2340 C 0.54858 0.16849 0.13289 0.0
C2341 C 0.56205 0.22297 0.14538 0.0
C2342 C 0.39508 0.14798 0.11247 0.0
C2343 C 0.47577 0.13589 0.13534 0.0
H2344 H 0.13157 0.12467 0.11949 0.0
H2345 H 0.23474 0.1151 0.11922 0.0
H2346 H 0.16337 0.08557 0.11771 0.0
H2347 H 0.2438 0.22638 0.12437 0.0
H2348 H 0.62288 0.24705 0.14273 0.0
H2349 H 0.50019 0.19351 0.14697 0.0
H2350 H 0.54354 0.14729 0.1281 0.0
H2351 H 0.56725 0.24414 0.15017 0.0
Eu2352 Eu 0.8976 0.19155 0.12165 0.0
C2353 C 0.99595 0.34121 0.14602 0.0
N2354 N 0.95695 0.3155 0.14567 0.0
C2355 C 0.95251 0.31625 0.16045 0.0
C2356 C 0.01491 0.35514 0.15369 0.0
C2357 C 0.93495 0.30333 0.1527 0.0
C2358 C 0.99271 0.34204 0.16095 0.0
C2359 C 0.05722 0.38175 0.13884 0.0
C2360 C 0.01691 0.35429 0.13868 0.0
C2361 C 0.07628 0.3953 0.14648 0.0
C2362 C 0.05521 0.38198 0.15388 0.0
Eu2363 Eu 0.93009 0.29572 0.13234 0.0
N2364 N 0.99785 0.34032 0.13138 0.0
C2365 C 0.07715 0.39509 0.13133 0.0
C2366 C 0.017 0.3538 0.12404 0.0
C2367 C 0.05685 0.38125 0.12389 0.0
H2368 H 0.90375 0.2838 0.15231 0.0
H2369 H 0.07192 0.39148 0.11804 0.0
H2370 H 0.88999 0.1941 0.10112 0.0
H2371 H 0.78395 0.10821 0.14472 0.0
H2372 H 1.00199 0.34292 0.11828 0.0
H2373 H 0.10811 0.41623 0.13119 0.0
H2374 H 0.85098 0.14793 0.13962 0.0
H2375 H 0.93505 0.30629 0.16602 0.0
H2376 H 0.10726 0.41629 0.14672 0.0
H2377 H 0.07029 0.39293 0.15971 0.0
H2378 H 0.83839 0.16983 0.09041 0.0
H2379 H 1.00623 0.35202 0.16696 0.0
H2380 H 0.72842 0.08497 0.13501 0.0
N2381 N 0.85017 0.1689 0.11108 0.0
C2382 C 0.81237 0.14616 0.11345 0.0
C2383 C 0.83065 0.16317 0.09687 0.0
C2384 C 0.78195 0.13149 0.10756 0.0
C2385 C 0.85978 0.17716 0.10294 0.0
C2386 C 0.79153 0.14038 0.09919 0.0
N2387 N 0.83416 0.15253 0.12737 0.0
C2388 C 0.8273 0.14072 0.13542 0.0
C2389 C 0.76514 0.1137 0.12442 0.0
C2390 C 0.80412 0.13785 0.12182 0.0
C2391 C 0.7579 0.10378 0.13279 0.0
C2392 C 0.78915 0.117 0.13829 0.0
H2393 H 0.76901 0.12956 0.09448 0.0
H2394 H 0.71935 0.09693 0.10574 0.0
H2395 H 0.70463 0.08113 0.12049 0.0
O2396 O 0.89746 0.13742 0.12555 0.0
O2397 O 0.86108 0.22076 0.11947 0.0
O2398 O 0.86732 0.24601 0.13231 0.0
O2399 O 0.91101 0.15831 0.11284 0.0
O2400 O 0.91652 0.20108 0.13549 0.0
O2401 O 0.89284 0.24056 0.13935 0.0
O2402 O 0.91149 0.33136 0.12554 0.0
O2403 O 0.9778 0.27793 0.13181 0.0
O2404 O 0.96208 0.23415 0.12092 0.0
O2405 O 0.91648 0.33577 0.13887 0.0
O2406 O 0.93103 0.29714 0.11837 0.0
O2407 O 0.93054 0.24289 0.11247 0.0
C2408 C 0.84791 0.2338 0.12536 0.0
C2409 C 0.91413 0.09978 0.11574 0.0
C2410 C 0.90367 0.0331 0.11699 0.0
C2411 C 0.93091 0.04191 0.11056 0.0
C2412 C 0.94068 0.10695 0.1093 0.0
C2413 C 0.9491 0.07836 0.10678 0.0
C2414 C 0.89585 0.06272 0.11969 0.0
C2415 C 0.90726 0.21837 0.14134 0.0
C2416 C 0.90661 0.13175 0.11815 0.0
C2417 C 0.74311 0.10838 0.11018 0.0
C2418 C 0.73473 0.09947 0.11858 0.0
C2419 C 0.9863 0.25744 0.12657 0.0
C2420 C 0.92624 0.39144 0.13156 0.0
C2421 C 0.91766 0.44785 0.12967 0.0
C2422 C 0.95838 0.47233 0.13022 0.0
C2423 C 0.96676 0.41628 0.13213 0.0
C2424 C 0.90173 0.40728 0.13039 0.0
C2425 C 0.98268 0.45658 0.13149 0.0
C2426 C 0.93567 0.27887 0.11206 0.0
C2427 C 0.90911 0.34901 0.13214 0.0
H2428 H 0.93857 0.02058 0.10848 0.0
H2429 H 0.95538 0.13503 0.10622 0.0
H2430 H 0.96992 0.08449 0.10184 0.0
H2431 H 0.87514 0.05673 0.12464 0.0
H2432 H 0.97136 0.50372 0.12982 0.0
H2433 H 0.98599 0.40456 0.13309 0.0
H2434 H 0.87038 0.38806 0.12996 0.0
H2435 H 0.01396 0.47568 0.13198 0.0
Eu2436 Eu 0.8919 0.73445 0.12186 0.0
C2437 C 0.74786 0.7074 0.14497 0.0
N2438 N 0.76869 0.68872 0.14553 0.0
C2439 C 0.77528 0.69954 0.16017 0.0
C2440 C 0.74109 0.72424 0.15201 0.0
C2441 C 0.78086 0.68302 0.15301 0.0
C2442 C 0.75582 0.72078 0.15964 0.0
C2443 C 0.70864 0.72582 0.13664 0.0
C2444 C 0.7322 0.70853 0.13737 0.0
C2445 C 0.70308 0.74402 0.14355 0.0
C2446 C 0.71936 0.74333 0.15122 0.0
Eu2447 Eu 0.78338 0.66876 0.13293 0.0
N2448 N 0.73865 0.69121 0.13076 0.0
C2449 C 0.69047 0.72328 0.12905 0.0
C2450 C 0.71818 0.68553 0.12361 0.0
C2451 C 0.69451 0.70222 0.12257 0.0
H2452 H 0.79442 0.66532 0.15343 0.0
H2453 H 0.67904 0.69849 0.11682 0.0
H2454 H 0.88895 0.7333 0.10107 0.0
H2455 H 0.96929 0.68681 0.14292 0.0
H2456 H 0.71912 0.66735 0.11878 0.0
H2457 H 0.67204 0.73608 0.12824 0.0
H2458 H 0.927 0.71297 0.13934 0.0
H2459 H 0.78581 0.6958 0.16608 0.0
H2460 H 0.6855 0.75793 0.14308 0.0
H2461 H 0.7142 0.75683 0.15653 0.0
H2462 H 0.91784 0.71623 0.08943 0.0
H2463 H 0.75141 0.73345 0.1652 0.0
H2464 H 1.00162 0.66996 0.13191 0.0
N2465 N 0.91656 0.71712 0.11032 0.0
C2466 C 0.94158 0.70385 0.11196 0.0
C2467 C 0.92471 0.71254 0.09573 0.0
C2468 C 0.95968 0.69489 0.10546 0.0
C2469 C 0.90806 0.72178 0.10235 0.0
C2470 C 0.95072 0.69914 0.09728 0.0
N2471 N 0.93074 0.70736 0.12632 0.0
C2472 C 0.93861 0.7039 0.1344 0.0
C2473 C 0.97522 0.68554 0.12199 0.0
C2474 C 0.94896 0.69894 0.12016 0.0
C2475 C 0.98192 0.68046 0.13026 0.0
C2476 C 0.96356 0.68974 0.13649 0.0
H2477 H 0.96387 0.69236 0.09213 0.0
H2478 H 1.00062 0.67551 0.10238 0.0
H2479 H 0.01466 0.66786 0.11685 0.0
O2480 O 0.94734 0.7871 0.12572 0.0
O2481 O 0.86434 0.66914 0.11978 0.0
O2482 O 0.83192 0.65474 0.1318 0.0
O2483 O 0.92121 0.7847 0.1137 0.0
O2484 O 0.88528 0.74124 0.13602 0.0
O2485 O 0.83761 0.67966 0.13977 0.0
O2486 O 0.74556 0.6114 0.12758 0.0
O2487 O 0.81182 0.73537 0.13376 0.0
O2488 O 0.84575 0.75229 0.12163 0.0
O2489 O 0.74468 0.6198 0.14082 0.0
O2490 O 0.781 0.67115 0.11892 0.0
O2491 O 0.84124 0.7119 0.11243 0.0
C2492 C 0.84061 0.64273 0.12502 0.0
C2493 C 0.98159 0.84489 0.11659 0.0
C2494 C 0.04862 0.90066 0.11775 0.0
C2495 C 0.03961 0.91966 0.1115 0.0
C2496 C 0.97406 0.86496 0.11035 0.0
C2497 C 1.00274 0.90201 0.10787 0.0
C2498 C 0.01903 0.86315 0.1204 0.0
C2499 C 0.86543 0.71473 0.1418 0.0
C2500 C 0.9501 0.80473 0.11874 0.0
C2501 C 0.98625 0.68223 0.10729 0.0
C2502 C 0.99426 0.6779 0.11554 0.0
C2503 C 0.83236 0.76161 0.12811 0.0
C2504 C 0.6879 0.56872 0.13465 0.0
C2505 C 0.63388 0.50286 0.13249 0.0
C2506 C 0.60755 0.51628 0.13402 0.0
C2507 C 0.66148 0.58185 0.13617 0.0
C2508 C 0.6741 0.52931 0.13286 0.0
C2509 C 0.62136 0.55555 0.13588 0.0
C2510 C 0.80277 0.68765 0.11233 0.0
C2511 C 0.73002 0.59546 0.13466 0.0
H2512 H 0.06113 0.94863 0.10944 0.0
H2513 H 0.94576 0.85201 0.10736 0.0
H2514 H 0.99637 0.91712 0.10308 0.0
H2515 H 0.0254 0.84797 0.12518 0.0
H2516 H 0.57632 0.4963 0.13388 0.0
H2517 H 0.67186 0.61228 0.13755 0.0
H2518 H 0.69469 0.51935 0.13164 0.0
H2519 H 0.60091 0.56559 0.1371 0.0
Eu2520 Eu 0.94229 0.677 0.63161 0.0
C2521 C 0.81067 0.69642 0.61067 0.0
N2522 N 0.8499 0.71431 0.60947 0.0
C2523 C 0.8404 0.71082 0.59476 0.0
C2524 C 0.78462 0.6842 0.6039 0.0
C2525 C 0.86506 0.72287 0.60166 0.0
C2526 C 0.79997 0.69101 0.59588 0.0
C2527 C 0.75633 0.6769 0.62012 0.0
C2528 C 0.79663 0.69262 0.61867 0.0
C2529 C 0.73017 0.66325 0.61343 0.0
C2530 C 0.74428 0.66686 0.60533 0.0
Eu2531 Eu 0.88946 0.7339 0.62151 0.0
N2532 N 0.82273 0.70698 0.625 0.0
C2533 C 0.7437 0.67685 0.62822 0.0
C2534 C 0.81084 0.70922 0.63282 0.0
C2535 C 0.77115 0.69356 0.63457 0.0
H2536 H 0.89631 0.73934 0.60072 0.0
H2537 H 0.76178 0.69476 0.64081 0.0
H2538 H 0.92659 0.669 0.65209 0.0
H2539 H 0.07928 0.75796 0.61424 0.0
H2540 H 0.832 0.72289 0.63771 0.0
H2541 H 0.713 0.66516 0.62958 0.0
H2542 H 1.0082 0.72024 0.61593 0.0
H2543 H 0.8526 0.71722 0.58858 0.0
H2544 H 0.69908 0.65087 0.61442 0.0
H2545 H 0.72384 0.65716 0.60021 0.0
H2546 H 0.965 0.69169 0.66499 0.0
H2547 H 0.78095 0.68213 0.59052 0.0
H2548 H 0.1222 0.77824 0.62654 0.0
N2549 N 0.9759 0.69863 0.64424 0.0
C2550 C 0.01556 0.71926 0.6437 0.0
C2551 C 0.97957 0.69999 0.65905 0.0
C2552 C 0.03879 0.73181 0.65091 0.0
C2553 C 0.95778 0.68789 0.65174 0.0
C2554 C 0.02025 0.72217 0.65864 0.0
N2555 N 0.0101 0.71657 0.62904 0.0
C2556 C 0.02624 0.72736 0.62134 0.0
C2557 C 0.07417 0.75069 0.63522 0.0
C2558 C 0.03314 0.72823 0.63591 0.0
C2559 C 0.09082 0.76091 0.62732 0.0
C2560 C 0.06672 0.74947 0.62037 0.0
H2561 H 0.03709 0.73128 0.66431 0.0
H2562 H 0.09791 0.76317 0.65569 0.0
H2563 H 0.12881 0.77997 0.64197 0.0
O2564 O 0.96428 0.63695 0.6291 0.0
O2565 O 0.97349 0.74449 0.63227 0.0
O2566 O 0.95165 0.75029 0.61986 0.0
O2567 O 0.92329 0.62508 0.63936 0.0
O2568 O 0.94027 0.67196 0.61777 0.0
O2569 O 0.91407 0.70787 0.61169 0.0
O2570 O 0.90127 0.78874 0.62754 0.0
O2571 O 0.85016 0.67377 0.62647 0.0
O2572 O 0.88398 0.6407 0.62473 0.0
O2573 O 0.89638 0.78387 0.61434 0.0
O2574 O 0.90296 0.73814 0.63561 0.0
O2575 O 0.89451 0.67794 0.63903 0.0
C2576 C 0.97545 0.76669 0.62602 0.0
C2577 C 0.94478 0.57817 0.63709 0.0
C2578 C 0.9203 0.50867 0.63524 0.0
C2579 C 0.94861 0.51117 0.64084 0.0
C2580 C 0.97267 0.5801 0.64271 0.0
C2581 C 0.97454 0.54666 0.64457 0.0
C2582 C 0.91828 0.54232 0.63337 0.0
C2583 C 0.93011 0.68497 0.61128 0.0
C2584 C 0.94392 0.61383 0.63512 0.0
C2585 C 0.07965 0.75342 0.65021 0.0
C2586 C 0.09726 0.76287 0.6424 0.0
C2587 C 0.85147 0.64238 0.62454 0.0
C2588 C 0.87177 0.82086 0.62075 0.0
C2589 C 0.85773 0.87413 0.62291 0.0
C2590 C 0.81877 0.84869 0.62057 0.0
C2591 C 0.83283 0.79677 0.6183 0.0
C2592 C 0.8844 0.86 0.62297 0.0
C2593 C 0.80656 0.81044 0.61826 0.0
C2594 C 0.89462 0.71 0.64109 0.0
C2595 C 0.89875 0.80491 0.62073 0.0
H2596 H 0.95018 0.48539 0.64243 0.0
H2597 H 0.99301 0.60749 0.64565 0.0
H2598 H 0.99602 0.5482 0.64894 0.0
H2599 H 0.8963 0.54061 0.62911 0.0
H2600 H 0.79787 0.85878 0.62027 0.0
H2601 H 0.82274 0.76742 0.61625 0.0
H2602 H 0.91461 0.87925 0.6247 0.0
H2603 H 0.77667 0.79141 0.61631 0.0
Eu2604 Eu 0.41676 0.30331 0.63174 0.0
C2605 C 0.3855 0.15499 0.61178 0.0
N2606 N 0.37052 0.17855 0.61004 0.0
C2607 C 0.38467 0.17794 0.59564 0.0
C2608 C 0.40112 0.1423 0.60546 0.0
C2609 C 0.36942 0.18974 0.60211 0.0
C2610 C 0.40079 0.15431 0.59732 0.0
C2611 C 0.39782 0.1168 0.62182 0.0
C2612 C 0.38433 0.14283 0.61991 0.0
C2613 C 0.4143 0.10489 0.61557 0.0
C2614 C 0.41602 0.11767 0.60742 0.0
Eu2615 Eu 0.3463 0.19785 0.62137 0.0
N2616 N 0.36867 0.15529 0.62587 0.0
C2617 C 0.39341 0.10269 0.62992 0.0
C2618 C 0.36219 0.13972 0.63364 0.0
C2619 C 0.37493 0.11369 0.63581 0.0
H2620 H 0.35636 0.20741 0.60073 0.0
H2621 H 0.37023 0.10192 0.64201 0.0
H2622 H 0.40419 0.29525 0.65224 0.0
H2623 H 0.40012 0.40086 0.61032 0.0
H2624 H 0.34653 0.14647 0.63817 0.0
H2625 H 0.40326 0.08254 0.63162 0.0
H2626 H 0.42475 0.35805 0.61502 0.0
H2627 H 0.38379 0.18691 0.58936 0.0
H2628 H 0.42518 0.08525 0.61695 0.0
H2629 H 0.42834 0.1078 0.60265 0.0
H2630 H 0.37312 0.31447 0.66313 0.0
H2631 H 0.41243 0.14509 0.59229 0.0
H2632 H 0.36223 0.41802 0.61988 0.0
N2633 N 0.39152 0.32358 0.64263 0.0
C2634 C 0.37707 0.34718 0.64055 0.0
C2635 C 0.37379 0.32365 0.65679 0.0
C2636 C 0.3594 0.35923 0.64653 0.0
C2637 C 0.39096 0.31242 0.65062 0.0
C2638 C 0.35761 0.34689 0.65473 0.0
N2639 N 0.39707 0.3469 0.62673 0.0
C2640 C 0.40615 0.36313 0.61904 0.0
C2641 C 0.366 0.38436 0.63004 0.0
C2642 C 0.37979 0.35905 0.63236 0.0
C2643 C 0.37213 0.39831 0.6219 0.0
C2644 C 0.39315 0.38838 0.61645 0.0
H2645 H 0.34426 0.35551 0.65952 0.0
H2646 H 0.33035 0.39258 0.64867 0.0
H2647 H 0.33654 0.41495 0.63426 0.0
O2648 O 0.47425 0.34893 0.6274 0.0
O2649 O 0.34985 0.27633 0.63291 0.0
O2650 O 0.33112 0.2453 0.62052 0.0
O2651 O 0.46313 0.33818 0.64053 0.0
O2652 O 0.42338 0.29473 0.61806 0.0
O2653 O 0.36328 0.25044 0.61249 0.0
O2654 O 0.2892 0.15329 0.62622 0.0
O2655 O 0.41222 0.22366 0.62036 0.0
O2656 O 0.43501 0.25741 0.63248 0.0
O2657 O 0.29887 0.15764 0.61313 0.0
O2658 O 0.34237 0.20438 0.63571 0.0
O2659 O 0.40413 0.25197 0.63972 0.0
C2660 C 0.32332 0.25942 0.62707 0.0
C2661 C 0.5155 0.40058 0.63655 0.0
C2662 C 0.58052 0.4576 0.63486 0.0
C2663 C 0.57157 0.47711 0.64097 0.0
C2664 C 0.50686 0.42078 0.64256 0.0
C2665 C 0.53483 0.45888 0.64474 0.0
C2666 C 0.55226 0.41937 0.63263 0.0
C2667 C 0.39852 0.28212 0.61184 0.0
C2668 C 0.48843 0.35895 0.63485 0.0
C2669 C 0.34425 0.3832 0.64417 0.0
C2670 C 0.34764 0.39581 0.63595 0.0
C2671 C 0.43763 0.23693 0.6264 0.0
C2672 C 0.25934 0.09369 0.61872 0.0
C2673 C 0.20716 0.02581 0.62121 0.0
C2674 C 0.2332 0.01307 0.6189 0.0
C2675 C 0.28365 0.07933 0.61613 0.0
C2676 C 0.22044 0.0665 0.62113 0.0
C2677 C 0.27094 0.03959 0.61632 0.0
C2678 C 0.36952 0.22255 0.6415 0.0
C2679 C 0.27548 0.13683 0.61908 0.0
H2680 H 0.59296 0.50658 0.64277 0.0
H2681 H 0.47884 0.40692 0.64568 0.0
H2682 H 0.52814 0.47421 0.64943 0.0
H2683 H 0.5593 0.4039 0.62802 0.0
H2684 H 0.22382 0.98224 0.61878 0.0
H2685 H 0.31256 0.0988 0.61389 0.0
H2686 H 0.20079 0.07684 0.62294 0.0
H2687 H 0.29036 0.02924 0.61435 0.0
Eu2688 Eu 0.78394 0.14674 0.63062 0.0
C2689 C 0.9371 0.27993 0.6111 0.0
N2690 N 0.91135 0.24163 0.60956 0.0
C2691 C 0.91722 0.25393 0.59496 0.0
C2692 C 0.95489 0.30654 0.60453 0.0
C2693 C 0.90129 0.22828 0.60164 0.0
C2694 C 0.94432 0.29316 0.5964 0.0
C2695 C 0.9739 0.33181 0.62101 0.0
C2696 C 0.94615 0.29255 0.61929 0.0
C2697 C 0.99311 0.35778 0.61446 0.0
C2698 C 0.98313 0.34537 0.60626 0.0
Eu2699 Eu 0.89295 0.20076 0.62127 0.0
N2700 N 0.92793 0.26655 0.62554 0.0
C2701 C 0.98157 0.34391 0.62927 0.0
C2702 C 0.93604 0.27807 0.63361 0.0
C2703 C 0.9623 0.31699 0.63559 0.0
H2704 H 0.88217 0.19768 0.6004 0.0
H2705 H 0.96846 0.32598 0.642 0.0
H2706 H 0.78776 0.16033 0.65134 0.0
H2707 H 0.72061 0.01226 0.61265 0.0
H2708 H 0.92339 0.25741 0.63856 0.0
H2709 H 1.00241 0.37391 0.63084 0.0
H2710 H 0.75145 0.08337 0.6149 0.0
H2711 H 0.90933 0.24324 0.58869 0.0
H2712 H 0.01485 0.38791 0.61568 0.0
H2713 H 0.99752 0.36605 0.60128 0.0
H2714 H 0.77303 0.12062 0.66401 0.0
H2715 H 0.95722 0.31276 0.5912 0.0
H2716 H 0.70426 0.96815 0.62469 0.0
N2717 N 0.77003 0.11209 0.6432 0.0
C2718 C 0.75296 0.07264 0.64247 0.0
C2719 C 0.7675 0.1068 0.658 0.0
C2720 C 0.74312 0.04876 0.64955 0.0
C2721 C 0.7764 0.12929 0.65081 0.0
C2722 C 0.75106 0.0664 0.65737 0.0
N2723 N 0.75548 0.07964 0.62784 0.0
C2724 C 0.74583 0.06446 0.62008 0.0
C2725 C 0.72643 0.01509 0.63367 0.0
C2726 C 0.74481 0.05591 0.6346 0.0
C2727 C 0.71829 0.99937 0.62566 0.0
C2728 C 0.72772 0.02417 0.61884 0.0
H2729 H 0.74401 0.04904 0.66296 0.0
H2730 H 0.71764 0.98933 0.65401 0.0
H2731 H 0.70287 0.95991 0.64013 0.0
O2732 O 0.73332 0.14445 0.62445 0.0
O2733 O 0.81832 0.11347 0.63076 0.0
O2734 O 0.85463 0.13684 0.61909 0.0
O2735 O 0.73326 0.13798 0.63768 0.0
O2736 O 0.79108 0.16438 0.61699 0.0
O2737 O 0.84377 0.1604 0.6121 0.0
O2738 O 0.9408 0.19419 0.62679 0.0
O2739 O 0.86354 0.23792 0.6213 0.0
O2740 O 0.81791 0.21308 0.6319 0.0
O2741 O 0.94222 0.20807 0.61387 0.0
O2742 O 0.88409 0.18585 0.63535 0.0
O2743 O 0.83043 0.19087 0.63908 0.0
C2744 C 0.84166 0.11186 0.62516 0.0
C2745 C 0.70163 0.17028 0.6325 0.0
C2746 C 0.6527 0.18988 0.63068 0.0
C2747 C 0.67722 0.22504 0.6348 0.0
C2748 C 0.72442 0.20436 0.63708 0.0
C2749 C 0.71282 0.23208 0.63804 0.0
C2750 C 0.66524 0.16268 0.6294 0.0
C2751 C 0.80888 0.15714 0.61097 0.0
C2752 C 0.71529 0.14214 0.63136 0.0
C2753 C 0.72532 0.00811 0.64863 0.0
C2754 C 0.71685 0.99134 0.64072 0.0
C2755 C 0.8399 0.24103 0.6266 0.0
C2756 C 0.98482 0.18469 0.61788 0.0
C2757 C 0.04671 0.18398 0.6191 0.0
C2758 C 0.03265 0.15425 0.61307 0.0
C2759 C 0.97367 0.15761 0.61139 0.0
C2760 C 0.02178 0.1982 0.62168 0.0
C2761 C 0.99674 0.14156 0.60922 0.0
C2762 C 0.8622 0.19004 0.64104 0.0
C2763 C 0.96078 0.20288 0.61992 0.0
H2764 H 0.66769 0.24597 0.63595 0.0
H2765 H 0.75063 0.20872 0.6401 0.0
H2766 H 0.73077 0.25839 0.64156 0.0
H2767 H 0.64626 0.1353 0.62629 0.0
H2768 H 0.04986 0.14126 0.61116 0.0
H2769 H 0.94734 0.14918 0.60787 0.0
H2770 H 0.03181 0.22108 0.62629 0.0
H2771 H 0.98718 0.11983 0.60437 0.0
Eu2772 Eu 0.34421 0.25902 0.21124 0.0
C2773 C 0.36511 0.14224 0.23328 0.0
N2774 N 0.38248 0.18117 0.23487 0.0
C2775 C 0.36959 0.1685 0.24935 0.0
C2776 C 0.34855 0.11478 0.23974 0.0
C2777 C 0.38536 0.19467 0.24275 0.0
C2778 C 0.35103 0.1284 0.24784 0.0
C2779 C 0.34394 0.08953 0.22329 0.0
C2780 C 0.36276 0.12977 0.22511 0.0
C2781 C 0.32746 0.06218 0.22972 0.0
C2782 C 0.3298 0.07475 0.23792 0.0
Eu2783 Eu 0.40877 0.22286 0.22339 0.0
N2784 N 0.37799 0.1569 0.21895 0.0
C2785 C 0.34224 0.07792 0.21505 0.0
C2786 C 0.37818 0.14567 0.21098 0.0
C2787 C 0.35975 0.10612 0.20888 0.0
H2788 H 0.40023 0.22566 0.24396 0.0
H2789 H 0.3595 0.09741 0.20252 0.0
H2790 H 0.33105 0.23274 0.19129 0.0
H2791 H 0.40986 0.40506 0.22508 0.0
H2792 H 0.39327 0.16687 0.20623 0.0
H2793 H 0.32811 0.04731 0.21341 0.0
H2794 H 0.38578 0.33461 0.22486 0.0
H2795 H 0.37183 0.17926 0.2556 0.0
H2796 H 0.31283 0.03118 0.22843 0.0
H2797 H 0.31689 0.05325 0.2428 0.0
H2798 H 0.33859 0.26344 0.17757 0.0
H2799 H 0.33873 0.10821 0.25298 0.0
H2800 H 0.41463 0.43962 0.21201 0.0
N2801 N 0.3523 0.28598 0.1979 0.0
C2802 C 0.36596 0.32498 0.19749 0.0
C2803 C 0.34638 0.28107 0.18312 0.0
C2804 C 0.37041 0.34364 0.18981 0.0
C2805 C 0.34242 0.26385 0.19088 0.0
C2806 C 0.36042 0.32114 0.18258 0.0
N2807 N 0.37276 0.32793 0.21205 0.0
C2808 C 0.38498 0.34865 0.21926 0.0
C2809 C 0.39128 0.38724 0.20453 0.0
C2810 C 0.37614 0.34651 0.20477 0.0
C2811 C 0.40273 0.40831 0.21195 0.0
C2812 C 0.39987 0.38893 0.21934 0.0
H2813 H 0.3635 0.33441 0.17656 0.0
H2814 H 0.38833 0.39884 0.18371 0.0
H2815 H 0.40668 0.437 0.1966 0.0
O2816 O 0.29173 0.25372 0.21719 0.0
O2817 O 0.41105 0.30312 0.21187 0.0
O2818 O 0.43453 0.28779 0.22365 0.0
O2819 O 0.29013 0.23731 0.20435 0.0
O2820 O 0.33583 0.25092 0.22508 0.0
O2821 O 0.39187 0.26062 0.23176 0.0
O2822 O 0.4547 0.2103 0.21983 0.0
O2823 O 0.34272 0.18844 0.22467 0.0
O2824 O 0.32774 0.19536 0.21153 0.0
O2825 O 0.45699 0.23454 0.23189 0.0
O2826 O 0.4221 0.23977 0.20938 0.0
O2827 O 0.36071 0.2198 0.20468 0.0
C2828 C 0.43823 0.31151 0.21761 0.0
C2829 C 0.24151 0.25148 0.20859 0.0
C2830 C 0.17474 0.23931 0.20985 0.0
C2831 C 0.18323 0.26763 0.20368 0.0
C2832 C 0.24945 0.28001 0.20257 0.0
C2833 C 0.22029 0.28785 0.20011 0.0
C2834 C 0.20413 0.23112 0.21223 0.0
C2835 C 0.3595 0.26338 0.23146 0.0
C2836 C 0.27044 0.23978 0.21054 0.0
C2837 C 0.38482 0.38405 0.18956 0.0
C2838 C 0.39521 0.40578 0.1969 0.0
C2839 C 0.31801 0.17605 0.21851 0.0
C2840 C 0.51674 0.24184 0.22629 0.0
C2841 C 0.57676 0.23825 0.22461 0.0
C2842 C 0.59857 0.27913 0.22496 0.0
C2843 C 0.53932 0.28261 0.22666 0.0
C2844 C 0.53567 0.2197 0.22535 0.0
C2845 C 0.58001 0.30098 0.22612 0.0
C2846 C 0.39738 0.23206 0.20317 0.0
C2847 C 0.47355 0.22163 0.2268 0.0
H2848 H 0.16103 0.274 0.20155 0.0
H2849 H 0.27788 0.29555 0.19965 0.0
H2850 H 0.2263 0.30943 0.19537 0.0
H2851 H 0.19801 0.20902 0.21687 0.0
H2852 H 0.63016 0.29416 0.22461 0.0
H2853 H 0.52554 0.30019 0.22743 0.0
H2854 H 0.51846 0.18812 0.22516 0.0
H2855 H 0.59742 0.33234 0.22668 0.0
Eu2856 Eu 0.81074 0.10859 0.21253 0.0
C2857 C 0.93818 0.26571 0.23388 0.0
N2858 N 0.89878 0.24178 0.23419 0.0
C2859 C 0.90024 0.24864 0.24897 0.0
C2860 C 0.96026 0.28137 0.24118 0.0
C2861 C 0.8795 0.23555 0.24154 0.0
C2862 C 0.94093 0.27106 0.2488 0.0
C2863 C 0.99521 0.30798 0.22564 0.0
C2864 C 0.95574 0.27824 0.22621 0.0
C2865 C 0.01751 0.32276 0.23289 0.0
C2866 C 1.00027 0.30888 0.24063 0.0
Eu2867 Eu 0.86605 0.22059 0.22128 0.0
N2868 N 0.93326 0.26418 0.21932 0.0
C2869 C 0.01069 0.32313 0.21784 0.0
C2870 C 0.94772 0.28004 0.21174 0.0
C2871 C 0.98673 0.30925 0.21086 0.0
H2872 H 0.84797 0.22084 0.24166 0.0
H2873 H 0.99814 0.32143 0.20482 0.0
H2874 H 0.80167 0.11083 0.19201 0.0
H2875 H 0.69533 0.04263 0.23615 0.0
H2876 H 0.9289 0.27076 0.20639 0.0
H2877 H 0.04083 0.34604 0.21715 0.0
H2878 H 0.76166 0.07224 0.23076 0.0
H2879 H 0.88478 0.24242 0.2548 0.0
H2880 H 0.04798 0.34527 0.23256 0.0
H2881 H 0.01768 0.32108 0.24617 0.0
H2882 H 0.7491 0.09346 0.18161 0.0
H2883 H 0.95687 0.28218 0.25454 0.0
H2884 H 0.64066 0.02843 0.2267 0.0
N2885 N 0.76309 0.09479 0.20225 0.0
C2886 C 0.72529 0.07753 0.20479 0.0
C2887 C 0.74249 0.08971 0.18813 0.0
C2888 C 0.69469 0.06713 0.19905 0.0
C2889 C 0.77198 0.09991 0.19403 0.0
C2890 C 0.70381 0.07374 0.19065 0.0
N2891 N 0.7469 0.07794 0.21848 0.0
C2892 C 0.73906 0.06767 0.2266 0.0
C2893 C 0.67788 0.05111 0.21592 0.0
C2894 C 0.71699 0.06918 0.21313 0.0
C2895 C 0.67022 0.04217 0.22432 0.0
C2896 C 0.70095 0.05017 0.22966 0.0
H2897 H 0.68112 0.06575 0.18604 0.0
H2898 H 0.63217 0.04156 0.1975 0.0
H2899 H 0.61747 0.02797 0.2123 0.0
O2900 O 0.79441 0.04746 0.21467 0.0
O2901 O 0.78493 0.14949 0.21225 0.0
O2902 O 0.80381 0.1792 0.22477 0.0
O2903 O 0.8214 0.07541 0.20316 0.0
O2904 O 0.82829 0.11235 0.22589 0.0
O2905 O 0.84011 0.17168 0.23154 0.0
O2906 O 0.83396 0.2483 0.21604 0.0
O2907 O 0.90442 0.19873 0.21597 0.0
O2908 O 0.87162 0.13244 0.21836 0.0
O2909 O 0.8816 0.28013 0.22448 0.0
O2910 O 0.862 0.2124 0.20697 0.0
O2911 O 0.85298 0.15134 0.20327 0.0
C2912 C 0.77731 0.16306 0.21901 0.0
C2913 C 0.84146 0.03364 0.20902 0.0
C2914 C 0.8602 0.98535 0.21276 0.0
C2915 C 0.8996 0.01372 0.21167 0.0
C2916 C 0.88114 0.06113 0.20775 0.0
C2917 C 0.90988 0.05113 0.20906 0.0
C2918 C 0.83102 0.99538 0.21142 0.0
C2919 C 0.83221 0.13468 0.23227 0.0
C2920 C 0.81158 0.04546 0.20796 0.0
C2921 C 0.65594 0.04963 0.20183 0.0
C2922 C 0.64757 0.04184 0.21025 0.0
C2923 C 0.90423 0.16652 0.218 0.0
C2924 C 0.83972 0.30585 0.22272 0.0
C2925 C 0.84496 0.37059 0.22367 0.0
C2926 C 0.81622 0.3556 0.2299 0.0
C2927 C 0.8111 0.29191 0.2289 0.0
C2928 C 0.85635 0.34515 0.22007 0.0
C2929 C 0.79936 0.31666 0.23243 0.0
C2930 C 0.86266 0.18749 0.20152 0.0
C2931 C 0.85618 0.28173 0.21969 0.0
H2932 H 0.92242 0.00642 0.21249 0.0
H2933 H 0.89017 0.09067 0.20582 0.0
H2934 H 0.94027 0.07245 0.20801 0.0
H2935 H 0.8005 0.97355 0.21218 0.0
H2936 H 0.80634 0.37391 0.23275 0.0
H2937 H 0.79847 0.26218 0.23111 0.0
H2938 H 0.87907 0.35623 0.2154 0.0
H2939 H 0.77731 0.30571 0.23723 0.0
Eu2940 Eu 0.97379 0.74126 0.21263 0.0
C2941 C 0.82808 0.72489 0.23235 0.0
N2942 N 0.84933 0.70713 0.23386 0.0
C2943 C 0.84913 0.71922 0.2484 0.0
C2944 C 0.81713 0.74123 0.23886 0.0
C2945 C 0.85916 0.70328 0.24177 0.0
C2946 C 0.8283 0.73855 0.24695 0.0
C2947 C 0.7931 0.74277 0.22258 0.0
C2948 C 0.81687 0.72633 0.22427 0.0
C2949 C 0.78293 0.75987 0.22902 0.0
C2950 C 0.79505 0.75925 0.23713 0.0
Eu2951 Eu 0.86644 0.68262 0.2222 0.0
N2952 N 0.82816 0.71062 0.21811 0.0
C2953 C 0.77933 0.74058 0.21451 0.0
C2954 C 0.81266 0.70616 0.21036 0.0
C2955 C 0.78852 0.7215 0.20842 0.0
H2956 H 0.87432 0.6875 0.24301 0.0
H2957 H 0.77697 0.71851 0.20222 0.0
H2958 H 0.9638 0.73701 0.19194 0.0
H2959 H 0.0418 0.68136 0.23292 0.0
H2960 H 0.81819 0.69034 0.20564 0.0
H2961 H 0.76083 0.75266 0.21298 0.0
H2962 H 0.01141 0.72065 0.2295 0.0
H2963 H 0.85724 0.71633 0.25465 0.0
H2964 H 0.76516 0.77311 0.2278 0.0
H2965 H 0.7866 0.77217 0.24204 0.0
H2966 H 0.97743 0.70613 0.18012 0.0
H2967 H 0.82044 0.75072 0.25211 0.0
H2968 H 0.05525 0.64657 0.22184 0.0
N2969 N 0.98566 0.71351 0.2009 0.0
C2970 C 1.00378 0.69254 0.20235 0.0
C2971 C 0.98448 0.70164 0.18634 0.0
C2972 C 0.01215 0.67446 0.19577 0.0
C2973 C 0.97642 0.71875 0.19305 0.0
C2974 C 1.00217 0.67917 0.18771 0.0
N2975 N 1.00437 0.70576 0.21675 0.0
C2976 C 0.01547 0.70442 0.22467 0.0
C2977 C 0.03159 0.66642 0.21212 0.0
C2978 C 0.01336 0.68855 0.21047 0.0
C2979 C 0.04122 0.6633 0.22032 0.0
C2980 C 0.03348 0.68272 0.2266 0.0
H2981 H 1.0083 0.66588 0.18249 0.0
H2982 H 0.03677 0.63818 0.19246 0.0
H2983 H 0.05375 0.63114 0.20674 0.0
O2984 O 0.02613 0.79263 0.21746 0.0
O2985 O 0.93665 0.67409 0.21135 0.0
O2986 O 0.90355 0.65458 0.22354 0.0
O2987 O 0.01895 0.78246 0.20431 0.0
O2988 O 0.96878 0.75026 0.22618 0.0
O2989 O 0.91637 0.69416 0.23153 0.0
O2990 O 0.81544 0.63328 0.21658 0.0
O2991 O 0.89859 0.74842 0.22402 0.0
O2992 O 0.93742 0.77192 0.2125 0.0
O2993 O 0.82177 0.63485 0.22984 0.0
O2994 O 0.87422 0.68266 0.20765 0.0
O2995 O 0.92829 0.7422 0.20482 0.0
C2996 C 0.91967 0.64769 0.21721 0.0
C2997 C 0.04707 0.84755 0.20877 0.0
C2998 C 0.08999 0.91772 0.2103 0.0
C2999 C 0.06344 0.92411 0.20576 0.0
C3000 C 0.02046 0.85453 0.20436 0.0
C3001 C 0.02872 0.89262 0.20286 0.0
C3002 C 0.08166 0.87934 0.21184 0.0
C3003 C 0.95027 0.72729 0.23243 0.0
C3004 C 0.03869 0.80723 0.21013 0.0
C3005 C 0.03015 0.6523 0.19743 0.0
C3006 C 0.0398 0.64827 0.20558 0.0
C3007 C 0.91553 0.77499 0.21829 0.0
C3008 C 0.77652 0.57333 0.22354 0.0
C3009 C 0.71273 0.51324 0.22219 0.0
C3010 C 0.73229 0.49182 0.22181 0.0
C3011 C 0.79514 0.55116 0.22318 0.0
C3012 C 0.73523 0.55421 0.22313 0.0
C3013 C 0.77305 0.51062 0.22233 0.0
C3014 C 0.89583 0.7117 0.20243 0.0
C3015 C 0.79942 0.61647 0.22355 0.0
H3016 H 0.06942 0.95352 0.20455 0.0
H3017 H 0.99337 0.83055 0.20201 0.0
H3018 H 1.00819 0.89775 0.19943 0.0
H3019 H 0.10216 0.87428 0.21532 0.0
H3020 H 0.71597 0.46036 0.22118 0.0
H3021 H 0.8267 0.56526 0.2234 0.0
H3022 H 0.72071 0.57129 0.22331 0.0
H3023 H 0.78755 0.49364 0.22197 0.0
H3024 H 0.37486 0.07946 0.10366 0.0
H3025 H 0.44406 0.20516 0.10189 0.0
H3026 H 0.47738 0.19835 0.08953 0.0
H3027 H 0.46563 0.07184 0.09931 0.0
H3028 H 0.43642 0.02384 0.09493 0.0
H3029 H 0.41724 0.04047 0.10305 0.0
H3030 H 0.35771 0.02439 0.09312 0.0
H3031 H 0.37962 0.01009 0.08509 0.0
H3032 H 0.36775 0.0478 0.08313 0.0
H3033 H 0.50686 0.17763 0.07796 0.0
H3034 H 0.52744 0.14588 0.06769 0.0
H3035 H 0.44657 0.0325 0.07808 0.0
C3036 C 0.39759 0.10558 0.10082 0.0
C3037 C 0.407 0.14297 0.1039 0.0
C3038 C 0.43569 0.17624 0.09962 0.0
C3039 C 0.45524 0.17258 0.09266 0.0
C3040 C 0.44718 0.13536 0.09019 0.0
C3041 C 0.41945 0.1024 0.09423 0.0
C3042 C 0.41946 0.06619 0.09089 0.0
C3043 C 0.4355 0.04955 0.09743 0.0
C3044 C 0.37869 0.03529 0.08788 0.0
C3045 C 0.44856 0.0833 0.08381 0.0
C3046 C 0.46501 0.12347 0.0837 0.0
C3047 C 0.49394 0.14622 0.07802 0.0
C3048 C 0.5056 0.12766 0.0722 0.0
C3049 C 0.48872 0.08635 0.07197 0.0
C3050 C 0.46033 0.064 0.07805 0.0
H3051 H 0.96259 0.35795 0.10981 0.0
H3052 H 0.93913 0.25357 0.09626 0.0
H3053 H 0.95919 0.292 0.08335 0.0
H3054 H 0.93432 0.40358 0.09417 0.0
H3055 H 0.97366 0.45228 0.09625 0.0
H3056 H 0.95507 0.41644 0.1044 0.0
H3057 H 0.02441 0.42762 0.10702 0.0
H3058 H 0.04336 0.46358 0.09888 0.0
H3059 H 0.05137 0.42257 0.09858 0.0
H3060 H 0.97542 0.33966 0.07191 0.0
H3061 H 0.99696 0.3944 0.06258 0.0
H3062 H 0.02374 0.47359 0.0833 0.0
C3063 C 0.96189 0.34293 0.10416 0.0
C3064 C 0.94879 0.30206 0.10415 0.0
C3065 C 0.94844 0.28428 0.09653 0.0
C3066 C 0.95994 0.30606 0.08914 0.0
C3067 C 0.9729 0.34603 0.08944 0.0
C3068 C 0.97473 0.36457 0.09677 0.0
C3069 C 0.99184 0.40842 0.09537 0.0
C3070 C 0.96194 0.42091 0.09769 0.0
C3071 C 0.03003 0.43194 0.10026 0.0
C3072 C 0.99937 0.41169 0.08606 0.0
C3073 C 0.98706 0.37488 0.08284 0.0
C3074 C 0.98657 0.36871 0.0744 0.0
C3075 C 0.99933 0.40062 0.0691 0.0
C3076 C 0.01487 0.43951 0.07206 0.0
C3077 C 0.01443 0.44494 0.08076 0.0
H3078 H 0.62854 0.63498 0.07937 0.0
H3079 H 0.66898 0.56392 0.06711 0.0
H3080 H 0.72131 0.58412 0.07728 0.0
H3081 H 0.72003 0.71389 0.08531 0.0
H3082 H 0.70621 0.72021 0.09558 0.0
H3083 H 0.6699 0.69946 0.08753 0.0
H3084 H 0.62833 0.63834 0.09652 0.0
H3085 H 0.66418 0.65899 0.10465 0.0
H3086 H 0.65024 0.6114 0.10062 0.0
H3087 H 0.77409 0.61656 0.08782 0.0
H3088 H 0.81582 0.64903 0.10002 0.0
H3089 H 0.74201 0.69726 0.10636 0.0
C3090 C 0.64782 0.62299 0.07896 0.0
C3091 C 0.6446 0.59827 0.07225 0.0
C3092 C 0.67079 0.58343 0.07201 0.0
C3093 C 0.70097 0.5948 0.07779 0.0
C3094 C 0.70466 0.62054 0.08402 0.0
C3095 C 0.6782 0.63356 0.08485 0.0
C3096 C 0.68856 0.65982 0.09245 0.0
C3097 C 0.69666 0.70079 0.09007 0.0
C3098 C 0.65588 0.64103 0.09894 0.0
C3099 C 0.72567 0.66068 0.09547 0.0
C3100 C 0.73434 0.6378 0.09046 0.0
C3101 C 0.76733 0.63421 0.09185 0.0
C3102 C 0.79121 0.65316 0.09874 0.0
C3103 C 0.78205 0.67527 0.10421 0.0
C3104 C 0.74926 0.67974 0.10241 0.0
H3105 H 0.11741 0.51585 0.43332 0.0
H3106 H 1.00515 0.41254 0.43757 0.0
H3107 H 0.02181 0.37619 0.42741 0.0
H3108 H 0.11516 0.49681 0.41031 0.0
H3109 H 0.16747 0.51824 0.40987 0.0
H3110 H 0.14583 0.5357 0.41731 0.0
H3111 H 0.18255 0.5226 0.429 0.0
H3112 H 0.20327 0.5039 0.42163 0.0
H3113 H 0.17549 0.47424 0.43028 0.0
H3114 H 0.05616 0.34855 0.41837 0.0
H3115 H 0.09507 0.33659 0.40797 0.0
H3116 H 0.18012 0.4601 0.40768 0.0
C3117 C 0.09581 0.48594 0.43189 0.0
C3118 C 0.05988 0.46699 0.43627 0.0
C3119 C 0.03251 0.42782 0.43423 0.0
C3120 C 0.04207 0.40677 0.42855 0.0
C3121 C 0.07846 0.42575 0.42462 0.0
C3122 C 0.10405 0.46505 0.42589 0.0
C3123 C 0.14006 0.47917 0.42042 0.0
C3124 C 0.14225 0.50926 0.4141 0.0
C3125 C 0.17755 0.49596 0.42565 0.0
C3126 C 0.1316 0.44137 0.41617 0.0
C3127 C 0.0963 0.4107 0.41882 0.0
C3128 C 0.08341 0.37257 0.41613 0.0
C3129 C 0.10607 0.36588 0.41031 0.0
C3130 C 0.14077 0.39725 0.407 0.0
C3131 C 0.15382 0.43542 0.4101 0.0
H3132 H 0.65026 0.63043 0.4326 0.0
H3133 H 0.55695 0.64967 0.44104 0.0
H3134 H 0.576 0.70182 0.43085 0.0
H3135 H 0.72119 0.7276 0.42828 0.0
H3136 H 0.73856 0.71897 0.41863 0.0
H3137 H 0.71719 0.6809 0.42629 0.0
H3138 H 0.66653 0.63408 0.41563 0.0
H3139 H 0.68839 0.67172 0.40787 0.0
H3140 H 0.63695 0.6494 0.41008 0.0
H3141 H 0.60799 0.75651 0.42072 0.0
H3142 H 0.64283 0.80133 0.40912 0.0
H3143 H 0.71433 0.7475 0.40614 0.0
C3144 C 0.63309 0.64473 0.43211 0.0
C3145 C 0.6021 0.63568 0.43778 0.0
C3146 C 0.58095 0.65586 0.4369 0.0
C3147 C 0.59167 0.68592 0.43112 0.0
C3148 C 0.62329 0.69553 0.42595 0.0
C3149 C 0.64293 0.67477 0.42613 0.0
C3150 C 0.67494 0.69081 0.41952 0.0
C3151 C 0.71538 0.70544 0.42342 0.0
C3152 C 0.66619 0.65965 0.41288 0.0
C3153 C 0.6711 0.72457 0.41594 0.0
C3154 C 0.64104 0.72662 0.41979 0.0
C3155 C 0.63142 0.75497 0.41761 0.0
C3156 C 0.65173 0.78074 0.41107 0.0
C3157 C 0.68158 0.77845 0.40674 0.0
C3158 C 0.69182 0.7503 0.40934 0.0
H3159 H 0.32489 0.90277 0.40849 0.0
H3160 H 0.28356 0.98559 0.40881 0.0
H3161 H 0.33218 0.02363 0.41969 0.0
H3162 H 0.34339 0.90425 0.43076 0.0
H3163 H 0.38643 0.90022 0.42924 0.0
H3164 H 0.34748 0.87954 0.42176 0.0
H3165 H 0.39705 0.91967 0.41026 0.0
H3166 H 0.43598 0.94142 0.41775 0.0
H3167 H 0.4256 0.97198 0.4112 0.0
H3168 H 0.39192 0.05719 0.42945 0.0
H3169 H 0.44514 0.07417 0.43961 0.0
H3170 H 0.44292 0.96611 0.43401 0.0
C3171 C 0.32533 0.92834 0.41102 0.0
C3172 C 0.30012 0.94105 0.4078 0.0
C3173 C 0.30204 0.97492 0.41123 0.0
C3174 C 0.33006 0.99705 0.41733 0.0
C3175 C 0.3557 0.98472 0.42008 0.0
C3176 C 0.35274 0.95046 0.4172 0.0
C3177 C 0.38334 0.94322 0.42124 0.0
C3178 C 0.36399 0.90451 0.42604 0.0
C3179 C 0.41219 0.94412 0.41473 0.0
C3180 C 0.40338 0.97814 0.42702 0.0
C3181 C 0.38802 1.00254 0.42604 0.0
C3182 C 0.40361 0.03789 0.43033 0.0
C3183 C 0.43429 0.04763 0.43602 0.0
C3184 C 0.44821 0.02152 0.43763 0.0
C3185 C 0.43285 0.98664 0.43293 0.0
H3186 H 0.58175 0.96838 0.93519 0.0
H3187 H 0.67504 0.08857 0.93677 0.0
H3188 H 0.71197 0.07515 0.92603 0.0
H3189 H 0.64148 0.92587 0.93281 0.0
H3190 H 0.60922 0.88855 0.92568 0.0
H3191 H 0.5897 0.90814 0.93314 0.0
H3192 H 0.55751 0.92707 0.92144 0.0
H3193 H 0.5759 0.90647 0.91397 0.0
H3194 H 0.58697 0.95631 0.9129 0.0
H3195 H 0.74155 0.04473 0.91578 0.0
H3196 H 0.75389 1.00585 0.90538 0.0
H3197 H 0.6388 0.90732 0.91001 0.0
C3198 C 0.60957 0.99226 0.93314 0.0
C3199 C 0.62521 0.02979 0.93681 0.0
C3200 C 0.66195 0.05988 0.93398 0.0
C3201 C 0.6834 0.05224 0.92795 0.0
C3202 C 0.66764 0.01441 0.92471 0.0
C3203 C 0.63097 0.98524 0.92709 0.0
C3204 C 0.61992 0.94709 0.9227 0.0
C3205 C 0.61477 0.91556 0.92896 0.0
C3206 C 0.58289 0.93345 0.91744 0.0
C3207 C 0.6557 0.95919 0.91732 0.0
C3208 C 0.68351 0.99781 0.91871 0.0
C3209 C 0.71965 0.01464 0.91464 0.0
C3210 C 0.72673 0.99211 0.90882 0.0
C3211 C 0.69751 0.95336 0.90689 0.0
C3212 C 0.66186 0.93676 0.91135 0.0
H3213 H 0.18346 0.77419 0.91123 0.0
H3214 H 0.07856 0.77863 0.90583 0.0
H3215 H 0.04178 0.72557 0.91595 0.0
H3216 H 0.14711 0.67657 0.91479 0.0
H3217 H 0.17518 0.68086 0.92393 0.0
H3218 H 0.19377 0.71988 0.91648 0.0
H3219 H 0.20037 0.76909 0.9278 0.0
H3220 H 0.18312 0.73051 0.93536 0.0
H3221 H 0.15881 0.75844 0.93418 0.0
H3222 H 0.01446 0.66344 0.92517 0.0
H3223 H 1.0033 0.61428 0.93597 0.0
H3224 H 0.12794 0.65793 0.93704 0.0
C3225 C 0.15297 0.76464 0.91235 0.0
C3226 C 0.13363 0.78006 0.90761 0.0
C3227 C 0.09393 0.76727 0.90936 0.0
C3228 C 0.0727 0.73675 0.91504 0.0
C3229 C 0.09206 0.72056 0.91928 0.0
C3230 C 0.13186 0.73573 0.91835 0.0
C3231 C 0.14651 0.71594 0.92426 0.0
C3232 C 0.16683 0.69719 0.91958 0.0
C3233 C 0.17382 0.74522 0.93079 0.0
C3234 C 0.10839 0.68525 0.92817 0.0
C3235 C 0.07716 0.68803 0.92517 0.0
C3236 C 0.0389 0.66165 0.92767 0.0
C3237 C 0.03267 0.63324 0.93371 0.0
C3238 C 0.0646 0.63195 0.93736 0.0
C3239 C 0.1028 0.6579 0.93436 0.0
H3240 H 0.39082 0.4283 0.94258 0.0
H3241 H 0.49729 0.51182 0.93007 0.0
H3242 H 0.46013 0.50018 0.91709 0.0
H3243 H 0.35203 0.35937 0.92513 0.0
H3244 H 0.302 0.3458 0.9272 0.0
H3245 H 0.3368 0.36101 0.93556 0.0
H3246 H 0.31997 0.41414 0.93961 0.0
H3247 H 0.28551 0.39948 0.9312 0.0
H3248 H 0.32445 0.44941 0.93199 0.0
H3249 H 0.41123 0.48401 0.9059 0.0
H3250 H 0.35694 0.45775 0.89625 0.0
H3251 H 0.28024 0.37696 0.91502 0.0
C3252 C 0.4067 0.44353 0.93708 0.0
C3253 C 0.44771 0.47056 0.93739 0.0
C3254 C 0.46655 0.49037 0.93003 0.0
C3255 C 0.44542 0.48419 0.92263 0.0
C3256 C 0.40531 0.45745 0.92257 0.0
C3257 C 0.38617 0.43675 0.92955 0.0
C3258 C 0.34297 0.40868 0.92765 0.0
C3259 C 0.33285 0.36619 0.92896 0.0
C3260 C 0.31667 0.41852 0.93293 0.0
C3261 C 0.34072 0.41711 0.9185 0.0
C3262 C 0.37712 0.44601 0.91584 0.0
C3263 C 0.38287 0.46088 0.90788 0.0
C3264 C 0.35123 0.44553 0.90242 0.0
C3265 C 0.31355 0.41444 0.90468 0.0
C3266 C 0.30835 0.40018 0.91295 0.0
H3267 H 0.98838 0.66784 0.60769 0.0
H3268 H 0.89045 0.67148 0.59648 0.0
H3269 H 0.90128 0.64461 0.58356 0.0
H3270 H 0.05043 0.69903 0.58926 0.0
H3271 H 0.07082 0.66817 0.59144 0.0
H3272 H 0.05487 0.68697 0.59981 0.0
H3273 H 0.01001 0.61658 0.60508 0.0
H3274 H 0.02527 0.59747 0.59664 0.0
H3275 H 0.97413 0.58068 0.5982 0.0
H3276 H 0.91715 0.60938 0.57279 0.0
H3277 H 0.94474 0.58272 0.56322 0.0
H3278 H 0.04197 0.61286 0.57996 0.0
C3279 C 0.96973 0.66418 0.60248 0.0
C3280 C 0.93884 0.67287 0.60312 0.0
C3281 C 0.9147 0.66616 0.59615 0.0
C3282 C 0.92045 0.65042 0.58881 0.0
C3283 C 0.951 0.64218 0.58845 0.0
C3284 C 0.97592 0.64976 0.59501 0.0
C3285 C 1.00734 0.63936 0.59288 0.0
C3286 C 0.0483 0.67555 0.59337 0.0
C3287 C 1.00399 0.60659 0.59854 0.0
C3288 C 0.99643 0.625 0.58399 0.0
C3289 C 0.96294 0.62573 0.58177 0.0
C3290 C 0.94425 0.6103 0.57433 0.0
C3291 C 0.96078 0.59533 0.56885 0.0
C3292 C 0.99724 0.59731 0.57046 0.0
C3293 C 0.01489 0.61174 0.57832 0.0
H3294 H 0.41702 0.4255 0.57396 0.0
H3295 H 0.54118 0.46645 0.57482 0.0
H3296 H 0.53014 0.41972 0.58604 0.0
H3297 H 0.39862 0.40861 0.59598 0.0
H3298 H 0.35254 0.36363 0.59521 0.0
H3299 H 0.36747 0.40002 0.58719 0.0
H3300 H 0.36185 0.35241 0.57591 0.0
H3301 H 0.34455 0.31391 0.58349 0.0
H3302 H 0.38617 0.3245 0.57713 0.0
H3303 H 0.50573 0.36402 0.59585 0.0
H3304 H 0.47177 0.31205 0.60609 0.0
H3305 H 0.36199 0.30605 0.59995 0.0
C3306 C 0.44196 0.42542 0.5767 0.0
C3307 C 0.4803 0.45046 0.5736 0.0
C3308 C 0.51187 0.44851 0.57722 0.0
C3309 C 0.50573 0.42154 0.58352 0.0
C3310 C 0.46764 0.39617 0.58617 0.0
C3311 C 0.43626 0.39827 0.58303 0.0
C3312 C 0.3983 0.36699 0.58703 0.0
C3313 C 0.37799 0.38588 0.59164 0.0
C3314 C 0.3711 0.33772 0.5805 0.0
C3315 C 0.41341 0.34749 0.593 0.0
C3316 C 0.45347 0.36442 0.59217 0.0
C3317 C 0.47449 0.35102 0.59664 0.0
C3318 C 0.4547 0.32106 0.60242 0.0
C3319 C 0.41407 0.30464 0.60391 0.0
C3320 C 0.39287 0.31739 0.59892 0.0
H3321 H 0.76122 0.17761 0.60238 0.0
H3322 H 0.80188 0.09429 0.60226 0.0
H3323 H 0.75221 0.05528 0.59163 0.0
H3324 H 0.6608 0.11436 0.59914 0.0
H3325 H 0.65387 0.14505 0.59191 0.0
H3326 H 0.69231 0.16656 0.5995 0.0
H3327 H 0.74378 0.20107 0.58798 0.0
H3328 H 0.70534 0.1806 0.58036 0.0
H3329 H 0.74634 0.17272 0.57952 0.0
H3330 H 0.69084 0.02059 0.5822 0.0
H3331 H 0.6382 1.00364 0.57188 0.0
H3332 H 0.64484 0.11468 0.57634 0.0
C3333 C 0.7602 0.15155 0.59999 0.0
C3334 C 0.78541 0.13889 0.60325 0.0
C3335 C 0.78327 0.10483 0.59986 0.0
C3336 C 0.75465 0.08215 0.59389 0.0
C3337 C 0.72923 0.09462 0.59105 0.0
C3338 C 0.73305 0.12954 0.59372 0.0
C3339 C 0.7043 0.13807 0.58919 0.0
C3340 C 0.67616 0.14119 0.5953 0.0
C3341 C 0.72625 0.17532 0.58395 0.0
C3342 C 0.68287 0.102 0.58373 0.0
C3343 C 0.69695 0.07675 0.58506 0.0
C3344 C 0.68019 0.04057 0.58104 0.0
C3345 C 0.64974 0.03081 0.57528 0.0
C3346 C 0.63702 0.05757 0.57331 0.0
C3347 C 0.65362 0.0934 0.57773 0.0
H3348 H 0.76119 0.74001 0.7355 0.0
H3349 H 0.85892 0.73653 0.74679 0.0
H3350 H 0.85062 0.76717 0.75936 0.0
H3351 H 0.77793 0.82967 0.74392 0.0
H3352 H 0.72731 0.81434 0.74578 0.0
H3353 H 0.74044 0.79213 0.73759 0.0
H3354 H 0.6957 0.72372 0.74383 0.0
H3355 H 0.68176 0.74561 0.75195 0.0
H3356 H 0.70173 0.71477 0.75452 0.0
H3357 H 0.83749 0.80611 0.76976 0.0
H3358 H 0.81102 0.83442 0.7793 0.0
H3359 H 0.71264 0.80305 0.76283 0.0
C3360 C 0.78007 0.7442 0.74069 0.0
C3361 C 0.81019 0.73431 0.74014 0.0
C3362 C 0.83494 0.74222 0.74707 0.0
C3363 C 0.83075 0.76033 0.75421 0.0
C3364 C 0.80108 0.76984 0.75446 0.0
C3365 C 0.7753 0.76093 0.748 0.0
C3366 C 0.74488 0.77288 0.75006 0.0
C3367 C 0.74781 0.8041 0.74397 0.0
C3368 C 0.70356 0.73711 0.75009 0.0
C3369 C 0.7575 0.78988 0.75875 0.0
C3370 C 0.79088 0.78887 0.76094 0.0
C3371 C 0.81054 0.80555 0.76824 0.0
C3372 C 0.79482 0.82159 0.77367 0.0
C3373 C 0.75832 0.81966 0.77216 0.0
C3374 C 0.74002 0.80457 0.76436 0.0
H3375 H 0.2859 0.01941 0.77577 0.0
H3376 H 0.27385 0.91639 0.7635 0.0
H3377 H 0.29374 0.95294 0.75035 0.0
H3378 H 0.25952 0.06191 0.75938 0.0
H3379 H 0.2975 0.11133 0.7614 0.0
H3380 H 0.2786 0.07635 0.76972 0.0
H3381 H 0.34827 0.09002 0.77305 0.0
H3382 H 0.36751 0.12523 0.76477 0.0
H3383 H 0.37717 0.08527 0.765 0.0
H3384 H 0.3057 0.99847 0.73832 0.0
H3385 H 0.3253 0.05195 0.72865 0.0
H3386 H 0.34969 0.13291 0.74885 0.0
C3387 C 0.28762 1.00424 0.77037 0.0
C3388 C 0.2774 0.96408 0.77082 0.0
C3389 C 0.28054 0.94633 0.76347 0.0
C3390 C 0.2921 0.96716 0.75593 0.0
C3391 C 0.30231 0.00653 0.75583 0.0
C3392 C 0.30159 0.02534 0.76291 0.0
C3393 C 0.31762 0.06887 0.76123 0.0
C3394 C 0.28645 0.08028 0.76304 0.0
C3395 C 0.35486 0.09384 0.76631 0.0
C3396 C 0.32668 0.07153 0.75198 0.0
C3397 C 0.31618 0.03468 0.74903 0.0
C3398 C 0.31598 0.02768 0.74063 0.0
C3399 C 0.32759 0.05883 0.73513 0.0
C3400 C 0.34245 0.09798 0.73782 0.0
C3401 C 0.34129 0.10418 0.74649 0.0
H3402 H 0.95107 0.24789 0.7483 0.0
H3403 H 0.02911 0.32017 0.72884 0.0
H3404 H 0.08196 0.35273 0.73867 0.0
H3405 H 0.99367 0.31784 0.76565 0.0
H3406 H 0.99151 0.28229 0.77292 0.0
H3407 H 0.95645 0.26728 0.76461 0.0
H3408 H 0.97589 0.21686 0.75987 0.0
H3409 H 0.01115 0.23195 0.76813 0.0
H3410 H 0.02634 0.23294 0.75758 0.0
H3411 H 0.12738 0.38106 0.75063 0.0
H3412 H 0.16432 0.39597 0.76367 0.0
H3413 H 0.06464 0.29774 0.77532 0.0
C3414 C 0.97888 0.27144 0.74618 0.0
C3415 C 0.98432 0.28316 0.73771 0.0
C3416 C 0.02249 0.31197 0.73522 0.0
C3417 C 0.0534 0.33067 0.74081 0.0
C3418 C 0.04719 0.31912 0.74902 0.0
C3419 C 0.01129 0.28946 0.75173 0.0
C3420 C 0.0148 0.28009 0.76076 0.0
C3421 C 0.98747 0.2873 0.76631 0.0
C3422 C 1.00655 0.23795 0.76163 0.0
C3423 C 0.05773 0.30953 0.76261 0.0
C3424 C 0.07547 0.33218 0.75576 0.0
C3425 C 0.11406 0.36298 0.75602 0.0
C3426 C 0.13516 0.3711 0.76348 0.0
C3427 C 0.11839 0.34786 0.77061 0.0
C3428 C 0.07904 0.31616 0.77003 0.0
H3429 H 0.29231 0.3028 0.27624 0.0
H3430 H 0.26431 0.38218 0.2634 0.0
H3431 H 0.28506 0.36653 0.2503 0.0
H3432 H 0.38196 0.33258 0.26502 0.0
H3433 H 0.37653 0.28455 0.26491 0.0
H3434 H 0.35577 0.29864 0.27324 0.0
H3435 H 0.2879 0.23881 0.27027 0.0
H3436 H 0.30835 0.22445 0.26194 0.0
H3437 H 0.2675 0.23168 0.26001 0.0
H3438 H 0.30087 0.33614 0.23857 0.0
H3439 H 0.32331 0.30494 0.2289 0.0
H3440 H 0.35927 0.25785 0.24914 0.0
C3441 C 0.29072 0.31741 0.27072 0.0
C3442 C 0.27605 0.34395 0.27099 0.0
C3443 C 0.27457 0.36161 0.2635 0.0
C3444 C 0.28657 0.35291 0.25598 0.0
C3445 C 0.30127 0.3273 0.25603 0.0
C3446 C 0.30428 0.31043 0.26321 0.0
C3447 C 0.32354 0.28578 0.26156 0.0
C3448 C 0.36173 0.30133 0.26647 0.0
C3449 C 0.29513 0.24262 0.26356 0.0
C3450 C 0.33127 0.29177 0.25226 0.0
C3451 C 0.31664 0.31473 0.24927 0.0
C3452 C 0.31447 0.32012 0.24088 0.0
C3453 C 0.32822 0.30254 0.23539 0.0
C3454 C 0.34709 0.28185 0.23811 0.0
C3455 C 0.34795 0.27583 0.24678 0.0
H3456 H 0.74068 0.94171 0.26134 0.0
H3457 H 0.75397 0.01893 0.2816 0.0
H3458 H 0.7805 0.0744 0.27239 0.0
H3459 H 0.8327 0.00976 0.25202 0.0
H3460 H 0.81645 0.99816 0.24144 0.0
H3461 H 0.79318 0.96184 0.2494 0.0
H3462 H 0.72596 0.95317 0.24531 0.0
H3463 H 0.7491 0.98929 0.23729 0.0
H3464 H 0.71965 0.99523 0.24502 0.0
H3465 H 0.8044 0.12341 0.26091 0.0
H3466 H 0.82813 0.16163 0.24802 0.0
H3467 H 0.81273 0.05808 0.23533 0.0
C3468 C 0.74804 0.97004 0.26378 0.0
C3469 C 0.74282 0.97477 0.27234 0.0
C3470 C 0.75561 0.01326 0.27519 0.0
C3471 C 0.77121 0.0456 0.26994 0.0
C3472 C 0.77599 0.04023 0.26166 0.0
C3473 C 0.76541 1.00361 0.25855 0.0
C3474 C 0.77712 0.00739 0.24944 0.0
C3475 C 0.80662 0.99346 0.24799 0.0
C3476 C 0.74079 0.98493 0.24394 0.0
C3477 C 0.79593 0.05146 0.2481 0.0
C3478 C 0.794 0.06963 0.25518 0.0
C3479 C 0.80656 0.10958 0.25531 0.0
C3480 C 0.82048 0.1314 0.24794 0.0
C3481 C 0.8229 0.11373 0.24052 0.0
C3482 C 0.81174 0.07326 0.24082 0.0
H3483 H 0.96932 0.69044 0.2452 0.0
H3484 H 0.98118 0.80107 0.23771 0.0
H3485 H 0.03201 0.83505 0.24822 0.0
H3486 H 0.98622 0.71873 0.26808 0.0
H3487 H 0.01068 0.69117 0.26966 0.0
H3488 H 0.97288 0.67576 0.26196 0.0
H3489 H 0.02201 0.67712 0.25112 0.0
H3490 H 0.06017 0.69444 0.25879 0.0
H3491 H 0.06733 0.72187 0.24941 0.0
H3492 H 0.08616 0.85895 0.25863 0.0
H3493 H 0.13157 0.86954 0.27016 0.0
H3494 H 0.08636 0.74489 0.27167 0.0
C3495 C 0.98147 0.72153 0.24602 0.0
C3496 C 0.97068 0.74286 0.24058 0.0
C3497 C 0.98843 0.78383 0.24178 0.0
C3498 C 0.0178 0.80362 0.24771 0.0
C3499 C 0.0292 0.78231 0.25266 0.0
C3500 C 0.01085 0.74207 0.2521 0.0
C3501 C 0.02858 0.72668 0.25843 0.0
C3502 C 0.99775 0.7016 0.26492 0.0
C3503 C 0.04554 0.70367 0.25418 0.0
C3504 C 0.0608 0.76455 0.26229 0.0
C3505 C 0.06034 0.79622 0.25885 0.0
C3506 C 0.08656 0.83428 0.26141 0.0
C3507 C 0.11267 0.84014 0.26792 0.0
C3508 C 0.11309 0.80834 0.27181 0.0
C3509 C 0.08723 0.76999 0.2688 0.0
H3510 H 0.56591 0.09253 0.02283 0.0
H3511 H 0.49293 0.96838 0.02724 0.0
H3512 H 0.49005 0.95652 0.01212 0.0
H3513 H 0.51828 0.09723 1.00452 0.0
H3514 H 0.56219 0.13248 0.9993 0.0
H3515 H 0.56008 0.1316 0.01044 0.0
H3516 H 0.62114 0.12362 0.01121 0.0
H3517 H 0.62407 0.12546 1.00007 0.0
H3518 H 0.62168 0.08463 0.00554 0.0
H3519 H 0.49091 0.95871 0.99656 0.0
H3520 H 0.50495 0.97216 0.98176 0.0
H3521 H 0.58051 0.09523 0.98704 0.0
C3522 C 0.54985 0.06273 0.02062 0.0
C3523 C 0.52964 0.03124 0.02625 0.0
C3524 C 0.50895 0.99282 0.02309 0.0
C3525 C 0.50681 0.98593 0.0145 0.0
C3526 C 0.5259 0.01773 0.00912 0.0
C3527 C 0.5478 0.05532 0.01206 0.0
C3528 C 0.56607 0.08424 1.00494 0.0
C3529 C 0.55074 0.1131 1.00479 0.0
C3530 C 0.6109 0.10575 0.00547 0.0
C3531 C 0.55127 0.05701 0.9975 0.0
C3532 C 0.52753 0.0189 1.0001 0.0
C3533 C 0.50976 0.98836 0.99448 0.0
C3534 C 0.51776 0.99647 0.98603 0.0
C3535 C 0.54392 0.03479 0.98315 0.0
C3536 C 0.56007 0.06573 0.98898 0.0
H3537 H 0.99843 0.53189 0.98858 0.0
H3538 H 0.12104 0.57932 0.98279 0.0
H3539 H 0.13609 0.57992 0.99757 0.0
H3540 H 0.01052 0.58502 0.00686 0.0
H3541 H 0.97172 0.54573 0.01262 0.0
H3542 H 0.96952 0.5462 1.00149 0.0
H3543 H 0.96181 0.47778 1.001 0.0
H3544 H 0.96482 0.47651 0.01212 0.0
H3545 H 0.99811 0.46936 0.00573 0.0
H3546 H 0.13948 0.58145 0.01324 0.0
H3547 H 0.12839 0.57326 0.02843 0.0
H3548 H 1.0041 0.52379 0.02424 0.0
C3549 C 0.02814 0.54112 0.99041 0.0
C3550 C 0.0585 0.55545 0.98446 0.0
C3551 C 0.09722 0.56816 0.98719 0.0
C3552 C 0.10619 0.56886 0.99561 0.0
C3553 C 0.07613 0.55631 1.00136 0.0
C3554 C 0.03771 0.54176 0.99888 0.0
C3555 C 0.01109 0.52996 0.00641 0.0
C3556 C 0.98945 0.55313 0.00687 0.0
C3557 C 0.98224 0.48578 0.00632 0.0
C3558 C 0.04065 0.54121 0.01342 0.0
C3559 C 0.07805 0.55643 0.01038 0.0
C3560 C 0.1102 0.56921 0.0157 0.0
C3561 C 0.10379 0.56495 0.02433 0.0
C3562 C 0.06552 0.5479 0.02757 0.0
C3563 C 0.03382 0.53686 0.02198 0.0
H3564 H 0.55735 0.60758 0.02121 0.0
H3565 H 0.51859 0.49029 0.0297 0.0
H3566 H 0.51464 0.4681 0.01535 0.0
H3567 H 0.48441 0.56699 1.00306 0.0
H3568 H 0.51548 0.6075 0.99647 0.0
H3569 H 0.51546 0.61456 0.0075 0.0
H3570 H 0.59137 0.6418 0.00802 0.0
H3571 H 0.58928 0.63624 0.99694 0.0
H3572 H 0.60997 0.61326 1.00308 0.0
H3573 H 0.52687 0.46167 1.00011 0.0
H3574 H 0.53112 0.46497 0.98478 0.0
H3575 H 0.54822 0.58191 0.9856 0.0
C3576 C 0.54651 0.57693 0.02003 0.0
C3577 C 0.53934 0.55078 0.02671 0.0
C3578 C 0.5256 0.5111 0.02481 0.0
C3579 C 0.52318 0.49818 0.01662 0.0
C3580 C 0.53272 0.52494 0.01023 0.0
C3581 C 0.54172 0.56293 0.01178 0.0
C3582 C 0.54644 0.58428 1.00362 0.0
C3583 C 0.51349 0.59391 1.0026 0.0
C3584 C 0.58669 0.62115 1.0029 0.0
C3585 C 0.54218 0.5535 0.99738 0.0
C3586 C 0.5347 0.51959 1.00134 0.0
C3587 C 0.53196 0.48786 0.99693 0.0
C3588 C 0.53513 0.49018 0.98823 0.0
C3589 C 0.54036 0.52371 0.984 0.0
C3590 C 0.5445 0.55595 0.98868 0.0
H3591 H 0.09984 0.59935 0.52081 0.0
H3592 H 1.00237 0.48843 0.52852 0.0
H3593 H 0.98657 0.46848 0.51394 0.0
H3594 H 0.05517 0.61313 0.50299 0.0
H3595 H 0.09894 0.63427 0.49685 0.0
H3596 H 0.10235 0.63811 0.50797 0.0
H3597 H 0.14634 0.60583 0.5074 0.0
H3598 H 0.14068 0.60139 0.49631 0.0
H3599 H 0.1274 0.55875 0.50253 0.0
H3600 H 0.97438 0.46468 0.49849 0.0
H3601 H 0.97757 0.46994 0.48318 0.0
H3602 H 0.08627 0.57973 0.48509 0.0
C3603 C 0.07653 0.57011 0.51942 0.0
C3604 C 0.05324 0.54487 0.52588 0.0
C3605 C 0.02155 0.50767 0.52373 0.0
C3606 C 0.01186 0.49632 0.51544 0.0
C3607 C 0.03425 0.52232 0.50923 0.0
C3608 C 0.0668 0.55791 0.51109 0.0
C3609 C 0.08586 0.58007 0.50314 0.0
C3610 C 0.08561 0.61874 0.50273 0.0
C3611 C 0.12755 0.5869 0.5023 0.0
C3612 C 0.05871 0.55163 0.49661 0.0
C3613 C 0.02851 0.51897 0.50027 0.0
C3614 C 0.99827 0.48989 0.49555 0.0
C3615 C 0.99991 0.49336 0.48686 0.0
C3616 C 0.03196 0.52523 0.48294 0.0
C3617 C 0.06136 0.55502 0.48792 0.0
H3618 H 0.51008 0.54893 0.48668 0.0
H3619 H 0.60876 0.53069 0.48363 0.0
H3620 H 0.61367 0.52766 0.49889 0.0
H3621 H 0.54747 0.61111 0.5044 0.0
H3622 H 0.50079 0.59258 0.50943 0.0
H3623 H 0.50345 0.59132 0.49831 0.0
H3624 H 0.45524 0.51767 0.49843 0.0
H3625 H 0.45228 0.51725 0.50956 0.0
H3626 H 0.46614 0.48576 0.50433 0.0
H3627 H 0.61153 0.53259 0.51443 0.0
H3628 H 0.59564 0.53227 0.52914 0.0
H3629 H 0.49603 0.54467 0.52254 0.0
C3630 C 0.53219 0.54338 0.48922 0.0
C3631 C 0.55903 0.53983 0.48392 0.0
C3632 C 0.58765 0.53296 0.48751 0.0
C3633 C 0.59091 0.53175 0.49619 0.0
C3634 C 0.56512 0.5371 0.50122 0.0
C3635 C 0.53578 0.54201 0.49788 0.0
C3636 C 0.51199 0.54727 0.50468 0.0
C3637 C 0.51617 0.58798 0.50417 0.0
C3638 C 0.46886 0.51507 0.50423 0.0
C3639 C 0.53189 0.54357 0.51243 0.0
C3640 C 0.56308 0.53873 0.51023 0.0
C3641 C 0.58692 0.53588 0.51619 0.0
C3642 C 0.57775 0.53605 0.52457 0.0
C3643 C 0.54457 0.53846 0.52707 0.0
C3644 C 0.52188 0.54336 0.52088 0.0
H3645 H 0.54146 0.98596 0.52217 0.0
H3646 H 0.54741 0.09462 0.52918 0.0
H3647 H 0.54524 0.11013 0.51454 0.0
H3648 H 0.59909 0.01874 0.50363 0.0
H3649 H 0.56842 0.97484 0.49794 0.0
H3650 H 0.5705 0.97327 0.50907 0.0
H3651 H 0.49426 0.94163 0.50913 0.0
H3652 H 0.49424 0.9457 0.49802 0.0
H3653 H 0.47264 0.96748 0.50432 0.0
H3654 H 0.54998 0.11831 0.49906 0.0
H3655 H 0.54766 0.11179 0.48378 0.0
H3656 H 0.53415 0.99663 0.48627 0.0
C3657 C 0.54088 0.01227 0.52062 0.0
C3658 C 0.54443 0.03895 0.52692 0.0
C3659 C 0.5446 0.07359 0.52454 0.0
C3660 C 0.5437 0.08291 0.5162 0.0
C3661 C 0.54204 0.05715 0.51014 0.0
C3662 C 0.53943 0.02195 0.5122 0.0
C3663 C 0.53669 0.99929 0.50434 0.0
C3664 C 0.5707 0.99104 0.50373 0.0
C3665 C 0.4971 0.96127 0.50393 0.0
C3666 C 0.53968 0.02787 0.49764 0.0
C3667 C 0.543 0.06118 0.50114 0.0
C3668 C 0.547 0.09215 0.49625 0.0
C3669 C 0.5462 0.08848 0.48756 0.0
C3670 C 0.54091 0.05391 0.4838 0.0
C3671 C 0.53839 0.02356 0.48895 0.0
H3672 H 0.25747 0.42659 0.32213 0.0
H3673 H 0.16024 0.31318 0.31544 0.0
H3674 H 0.14354 0.29777 0.3301 0.0
H3675 H 0.2872 0.40041 0.3404 0.0
H3676 H 0.29592 0.44241 0.34637 0.0
H3677 H 0.29965 0.44556 0.33526 0.0
H3678 H 0.24881 0.46905 0.33495 0.0
H3679 H 0.24546 0.46567 0.34608 0.0
H3680 H 0.20203 0.43973 0.33987 0.0
H3681 H 0.14179 0.2903 0.34555 0.0
H3682 H 0.14596 0.29787 0.36081 0.0
H3683 H 0.23963 0.41741 0.35797 0.0
C3684 C 0.2319 0.39917 0.32375 0.0
C3685 C 0.21043 0.37104 0.31756 0.0
C3686 C 0.17743 0.33521 0.32002 0.0
C3687 C 0.16775 0.32595 0.32837 0.0
C3688 C 0.19058 0.35312 0.33433 0.0
C3689 C 0.22106 0.3896 0.33217 0.0
C3690 C 0.23963 0.41365 0.33995 0.0
C3691 C 0.28318 0.42624 0.34052 0.0
C3692 C 0.23363 0.44913 0.34023 0.0
C3693 C 0.21603 0.38435 0.34672 0.0
C3694 C 0.18805 0.34951 0.34332 0.0
C3695 C 0.16331 0.31766 0.34829 0.0
C3696 C 0.16619 0.32195 0.35696 0.0
C3697 C 0.19316 0.358 0.3606 0.0
C3698 C 0.21882 0.38935 0.35537 0.0
H3699 H 0.70024 0.89488 0.35797 0.0
H3700 H 0.7644 0.8328 0.35895 0.0
H3701 H 0.76249 0.82841 0.34361 0.0
H3702 H 0.6378 0.84683 0.34199 0.0
H3703 H 0.64065 0.88881 0.33694 0.0
H3704 H 0.6498 0.89011 0.34788 0.0
H3705 H 0.71829 0.95158 0.3462 0.0
H3706 H 0.70773 0.95133 0.33535 0.0
H3707 H 0.75144 0.95141 0.33856 0.0
H3708 H 0.74621 0.82466 0.32794 0.0
H3709 H 0.73064 0.83446 0.3136 0.0
H3710 H 0.68099 0.90279 0.32292 0.0
C3711 C 0.7154 0.88187 0.35495 0.0
C3712 C 0.73336 0.865 0.35968 0.0
C3713 C 0.75162 0.84702 0.35546 0.0
C3714 C 0.75015 0.84393 0.34674 0.0
C3715 C 0.73092 0.85966 0.34228 0.0
C3716 C 0.71529 0.87967 0.34625 0.0
C3717 C 0.69743 0.89518 0.34006 0.0
C3718 C 0.65382 0.87925 0.34183 0.0
C3719 C 0.72011 0.94005 0.34005 0.0
C3720 C 0.70344 0.87903 0.33201 0.0
C3721 C 0.72267 0.85845 0.33339 0.0
C3722 C 0.73121 0.84081 0.32683 0.0
C3723 C 0.72139 0.84572 0.31868 0.0
C3724 C 0.70306 0.86801 0.31709 0.0
C3725 C 0.69381 0.8845 0.32392 0.0
H3726 H 0.22135 0.90788 0.32002 0.0
H3727 H 0.19381 0.78753 0.31865 0.0
H3728 H 0.19279 0.78415 0.334 0.0
H3729 H 0.28669 0.93229 0.33889 0.0
H3730 H 0.27155 0.96633 0.34217 0.0
H3731 H 0.27323 0.95699 0.33133 0.0
H3732 H 0.2008 0.94117 0.33073 0.0
H3733 H 0.1994 0.94695 0.34176 0.0
H3734 H 0.16459 0.90167 0.33691 0.0
H3735 H 0.18799 0.79253 0.34963 0.0
H3736 H 0.19433 0.81525 0.36411 0.0
H3737 H 0.22961 0.93178 0.35547 0.0
C3738 C 0.21641 0.88121 0.32297 0.0
C3739 C 0.20819 0.84805 0.31813 0.0
C3740 C 0.20124 0.81353 0.32221 0.0
C3741 C 0.20003 0.81125 0.33094 0.0
C3742 C 0.20671 0.84405 0.33553 0.0
C3743 C 0.21624 0.87882 0.33167 0.0
C3744 C 0.22366 0.91026 0.33801 0.0
C3745 C 0.26636 0.9434 0.33758 0.0
C3746 C 0.1954 0.92591 0.33677 0.0
C3747 C 0.21539 0.88753 0.34606 0.0
C3748 C 0.20524 0.84922 0.34448 0.0
C3749 C 0.1961 0.82249 0.35091 0.0
C3750 C 0.19914 0.83551 0.35913 0.0
C3751 C 0.21097 0.87491 0.36097 0.0
C3752 C 0.21894 0.90115 0.35429 0.0
H3753 H 0.74925 0.90663 0.82026 0.0
H3754 H 0.63234 0.80833 0.81705 0.0
H3755 H 0.62439 0.80274 0.83233 0.0
H3756 H 0.77444 0.86841 0.83806 0.0
H3757 H 0.80268 0.91542 0.84293 0.0
H3758 H 0.79834 0.91186 0.83182 0.0
H3759 H 0.77494 0.96086 0.83214 0.0
H3760 H 0.77366 0.96314 0.84327 0.0
H3761 H 0.73011 0.94923 0.83723 0.0
H3762 H 0.63095 0.80543 0.8479 0.0
H3763 H 0.64591 0.82192 0.86254 0.0
H3764 H 0.75934 0.91934 0.85614 0.0
C3765 C 0.72157 0.88443 0.82277 0.0
C3766 C 0.69107 0.85812 0.81741 0.0
C3767 C 0.65566 0.82926 0.82097 0.0
C3768 C 0.65125 0.82553 0.82966 0.0
C3769 C 0.68252 0.85092 0.83473 0.0
C3770 C 0.71685 0.88015 0.83141 0.0
C3771 C 0.74593 0.90379 0.83823 0.0
C3772 C 0.78251 0.89961 0.83773 0.0
C3773 C 0.75682 0.94682 0.83772 0.0
C3774 C 0.72227 0.88392 0.84598 0.0
C3775 C 0.68615 0.85294 0.84374 0.0
C3776 C 0.65908 0.82964 0.84968 0.0
C3777 C 0.66817 0.839 0.85806 0.0
C3778 C 0.70413 0.8714 0.86064 0.0
C3779 C 0.73203 0.89375 0.85446 0.0
H3780 H 0.22774 0.83773 0.85792 0.0
H3781 H 0.1648 0.89997 0.86206 0.0
H3782 H 0.16354 0.90952 0.84697 0.0
H3783 H 0.28762 0.89802 0.84072 0.0
H3784 H 0.28565 0.85738 0.83524 0.0
H3785 H 0.28228 0.85634 0.84637 0.0
H3786 H 0.21707 0.79082 0.84547 0.0
H3787 H 0.21974 0.79212 0.83433 0.0
H3788 H 0.17735 0.78804 0.83946 0.0
H3789 H 0.1654 0.90895 0.83151 0.0
H3790 H 0.17953 0.90842 0.81671 0.0
H3791 H 0.24401 0.84893 0.82212 0.0
C3792 C 0.21413 0.85383 0.85566 0.0
C3793 C 0.1962 0.86803 0.86122 0.0
C3794 C 0.17882 0.88896 0.85798 0.0
C3795 C 0.17765 0.89419 0.84939 0.0
C3796 C 0.19433 0.87866 0.84409 0.0
C3797 C 0.21295 0.85959 0.84708 0.0
C3798 C 0.22915 0.84641 0.84 0.0
C3799 C 0.27383 0.8657 0.84062 0.0
C3800 C 0.20967 0.80169 0.8398 0.0
C3801 C 0.21705 0.86138 0.83253 0.0
C3802 C 0.19637 0.87925 0.83509 0.0
C3803 C 0.18173 0.89525 0.82946 0.0
C3804 C 0.18972 0.89453 0.82104 0.0
C3805 C 0.21268 0.87845 0.81822 0.0
C3806 C 0.22579 0.86076 0.82405 0.0
H3807 H 0.19169 0.33231 0.82002 0.0
H3808 H 0.22584 0.45439 0.81785 0.0
H3809 H 0.23062 0.46045 0.83319 0.0
H3810 H 0.13087 0.31309 0.83775 0.0
H3811 H 0.14312 0.27897 0.84227 0.0
H3812 H 0.14473 0.28517 0.8312 0.0
H3813 H 0.21702 0.30151 0.83098 0.0
H3814 H 0.21521 0.29456 0.84201 0.0
H3815 H 0.25217 0.33986 0.83756 0.0
H3816 H 0.22712 0.45096 0.84911 0.0
H3817 H 0.22504 0.43008 0.86359 0.0
H3818 H 0.19379 0.31418 0.85523 0.0
C3819 C 0.20086 0.3606 0.82275 0.0
C3820 C 0.2084 0.39298 0.81769 0.0
C3821 C 0.22021 0.4293 0.82155 0.0
C3822 C 0.22252 0.4328 0.83028 0.0
C3823 C 0.21305 0.39973 0.83508 0.0
C3824 C 0.20303 0.36446 0.8314 0.0
C3825 C 0.1936 0.333 0.83785 0.0
C3826 C 0.15054 0.30064 0.83723 0.0
C3827 C 0.22116 0.31627 0.83705 0.0
C3828 C 0.20095 0.35613 0.84579 0.0
C3829 C 0.21131 0.39438 0.84408 0.0
C3830 C 0.21891 0.42104 0.85046 0.0
C3831 C 0.21707 0.4087 0.85872 0.0
C3832 C 0.20805 0.37009 0.86061 0.0
C3833 C 0.1997 0.34354 0.85401 0.0
H3834 H 0.83459 0.64784 0.68902 0.0
H3835 H 0.91947 0.7685 0.69461 0.0
H3836 H 0.93564 0.78185 0.6801 0.0
H3837 H 0.89224 0.63977 0.67105 0.0
H3838 H 0.84893 0.61013 0.66502 0.0
H3839 H 0.84674 0.60757 0.67617 0.0
H3840 H 0.79081 0.62368 0.67588 0.0
H3841 H 0.7935 0.62728 0.66476 0.0
H3842 H 0.79862 0.6677 0.67087 0.0
H3843 H 0.93798 0.7867 0.66492 0.0
H3844 H 0.93405 0.77818 0.64973 0.0
H3845 H 0.84935 0.6554 0.65291 0.0
C3846 C 0.85771 0.67651 0.68721 0.0
C3847 C 0.87664 0.70657 0.69321 0.0
C3848 C 0.90563 0.74415 0.6904 0.0
C3849 C 0.91463 0.75253 0.68204 0.0
C3850 C 0.89461 0.72319 0.6763 0.0
C3851 C 0.86741 0.68564 0.6787 0.0
C3852 C 0.84997 0.66027 0.67101 0.0
C3853 C 0.86007 0.62748 0.6708 0.0
C3854 C 0.80558 0.64376 0.67061 0.0
C3855 C 0.87095 0.68981 0.66408 0.0
C3856 C 0.89638 0.72598 0.66733 0.0
C3857 C 0.91849 0.75835 0.66227 0.0
C3858 C 0.91576 0.75341 0.65364 0.0
C3859 C 0.89149 0.71629 0.6501 0.0
C3860 C 0.86818 0.68424 0.65543 0.0
H3861 H 0.42492 0.24004 0.65345 0.0
H3862 H 0.29931 0.18064 0.64998 0.0
H3863 H 0.29053 0.17126 0.6652 0.0
H3864 H 0.42817 0.18341 0.67056 0.0
H3865 H 0.4677 0.22515 0.6756 0.0
H3866 H 0.46295 0.22443 0.66451 0.0
H3867 H 0.46246 0.28962 0.66524 0.0
H3868 H 0.46619 0.29004 0.67636 0.0
H3869 H 0.42647 0.2927 0.67153 0.0
H3870 H 0.29645 0.1684 0.68094 0.0
H3871 H 0.31517 0.16846 0.69539 0.0
H3872 H 0.43745 0.23523 0.68879 0.0
C3873 C 0.39538 0.22466 0.65584 0.0
C3874 C 0.36268 0.21114 0.65045 0.0
C3875 C 0.32476 0.19108 0.65392 0.0
C3876 C 0.3196 0.18601 0.66258 0.0
C3877 C 0.35265 0.20132 0.6677 0.0
C3878 C 0.3898 0.22003 0.66442 0.0
C3879 C 0.42065 0.23462 0.6712 0.0
C3880 C 0.44638 0.21577 0.67042 0.0
C3881 C 0.44541 0.2794 0.67107 0.0
C3882 C 0.39522 0.2205 0.67889 0.0
C3883 C 0.35607 0.20158 0.67672 0.0
C3884 C 0.32698 0.18414 0.68268 0.0
C3885 C 0.33802 0.18521 0.69098 0.0
C3886 C 0.37785 0.20446 0.69344 0.0
C3887 C 0.40681 0.22229 0.68724 0.0
H3888 H 0.8724 0.24589 0.65249 0.0
H3889 H 0.86904 0.13532 0.64998 0.0
H3890 H 0.86987 0.13 0.66527 0.0
H3891 H 0.94055 0.27827 0.67007 0.0
H3892 H 0.91967 0.30413 0.67517 0.0
H3893 H 0.91789 0.29978 0.66405 0.0
H3894 H 0.84316 0.26858 0.66409 0.0
H3895 H 0.84357 0.27299 0.67519 0.0
H3896 H 0.81396 0.22607 0.67036 0.0
H3897 H 0.86699 0.135 0.68091 0.0
H3898 H 0.87305 0.15492 0.69555 0.0
H3899 H 0.88282 0.26465 0.68822 0.0
C3900 C 0.8727 0.22099 0.65518 0.0
C3901 C 0.87106 0.19112 0.65004 0.0
C3902 C 0.87119 0.15888 0.65378 0.0
C3903 C 0.87109 0.15541 0.66247 0.0
C3904 C 0.87173 0.18487 0.66737 0.0
C3905 C 0.87376 0.21765 0.66386 0.0
C3906 C 0.87665 0.24619 0.67054 0.0
C3907 C 0.91602 0.28439 0.66993 0.0
C3908 C 0.84227 0.2539 0.67001 0.0
C3909 C 0.87441 0.22378 0.67838 0.0
C3910 C 0.87125 0.18831 0.67638 0.0
C3911 C 0.86925 0.16261 0.68251 0.0
C3912 C 0.87202 0.17391 0.69085 0.0
C3913 C 0.87644 0.21053 0.69312 0.0
C3914 C 0.87745 0.23569 0.68674 0.0
H3915 H 0.37356 0.17264 0.19212 0.0
H3916 H 0.44239 0.29831 0.19404 0.0
H3917 H 0.44486 0.30332 0.17867 0.0
H3918 H 0.43225 0.17401 0.17506 0.0
H3919 H 0.3967 0.13518 0.16897 0.0
H3920 H 0.39254 0.13255 0.1801 0.0
H3921 H 0.32685 0.12826 0.1816 0.0
H3922 H 0.32117 0.12066 0.1706 0.0
H3923 H 0.31501 0.15857 0.17532 0.0
H3924 H 0.4365 0.29263 0.1625 0.0
H3925 H 0.42411 0.26798 0.14806 0.0
H3926 H 0.3564 0.14981 0.15716 0.0
C3927 C 0.39009 0.20119 0.18931 0.0
C3928 C 0.40866 0.23503 0.19429 0.0
C3929 C 0.42926 0.2719 0.19035 0.0
C3930 C 0.43017 0.27498 0.18161 0.0
C3931 C 0.41053 0.24087 0.17687 0.0
C3932 C 0.39161 0.20472 0.18065 0.0
C3933 C 0.37586 0.17231 0.17429 0.0
C3934 C 0.40055 0.15216 0.17464 0.0
C3935 C 0.33212 0.14325 0.17553 0.0
C3936 C 0.38362 0.19532 0.16633 0.0
C3937 C 0.40527 0.23494 0.16786 0.0
C3938 C 0.41891 0.26165 0.16131 0.0
C3939 C 0.41098 0.24741 0.15309 0.0
C3940 C 0.388 0.20688 0.15139 0.0
C3941 C 0.37375 0.18086 0.15818 0.0
H3942 H 0.8468 0.18296 0.15217 0.0
H3943 H 0.97287 0.2409 0.15079 0.0
H3944 H 0.9765 0.24293 0.16618 0.0
H3945 H 0.83185 0.2268 0.16899 0.0
H3946 H 0.79332 0.18275 0.17358 0.0
H3947 H 0.80152 0.18505 0.1626 0.0
H3948 H 0.8077 0.12387 0.16357 0.0
H3949 H 0.80346 0.12133 0.17468 0.0
H3950 H 0.84545 0.12405 0.16988 0.0
H3951 H 0.96467 0.24203 0.18217 0.0
H3952 H 0.93914 0.22981 0.19656 0.0
H3953 H 0.82095 0.17287 0.18709 0.0
C3954 C 0.87515 0.19516 0.15511 0.0
C3955 C 0.90955 0.21117 0.1503 0.0
C3956 C 0.94612 0.22741 0.15437 0.0
C3957 C 0.9484 0.22918 0.16311 0.0
C3958 C 0.91377 0.21399 0.1677 0.0
C3959 C 0.87787 0.19635 0.16378 0.0
C3960 C 0.84485 0.17923 0.16999 0.0
C3961 C 0.81622 0.1944 0.16871 0.0
C3962 C 0.82407 0.13449 0.16948 0.0
C3963 C 0.86726 0.19369 0.17805 0.0
C3964 C 0.90711 0.21285 0.17666 0.0
C3965 C 0.9335 0.22718 0.18327 0.0
C3966 C 0.91876 0.22072 0.19144 0.0
C3967 C 0.878 0.20095 0.19298 0.0
C3968 C 0.85219 0.18797 0.18615 0.0
H3969 H 0.85831 0.66163 0.15367 0.0
H3970 H 0.89527 0.78394 0.15014 0.0
H3971 H 0.90221 0.79375 0.16531 0.0
H3972 H 0.79977 0.64734 0.17193 0.0
H3973 H 0.81279 0.61452 0.17679 0.0
H3974 H 0.8126 0.61775 0.16566 0.0
H3975 H 0.88392 0.63236 0.16549 0.0
H3976 H 0.88519 0.63092 0.17663 0.0
H3977 H 0.92075 0.67365 0.17113 0.0
H3978 H 0.90532 0.79069 0.18042 0.0
H3979 H 0.90999 0.77797 0.19486 0.0
H3980 H 0.86391 0.65497 0.18969 0.0
C3981 C 0.86841 0.69064 0.1561 0.0
C3982 C 0.87617 0.72219 0.15071 0.0
C3983 C 0.88942 0.75957 0.15411 0.0
C3984 C 0.89295 0.7652 0.16273 0.0
C3985 C 0.88311 0.73313 0.16786 0.0
C3986 C 0.87145 0.69661 0.16471 0.0
C3987 C 0.86244 0.6672 0.17169 0.0
C3988 C 0.81934 0.63479 0.1715 0.0
C3989 C 0.8897 0.65001 0.17121 0.0
C3990 C 0.87113 0.6931 0.17929 0.0
C3991 C 0.88286 0.73089 0.17682 0.0
C3992 C 0.89503 0.76106 0.18245 0.0
C3993 C 0.89645 0.75305 0.19079 0.0
C3994 C 0.88447 0.71475 0.19371 0.0
C3995 C 0.8712 0.68409 0.18781 0.0
H3996 H 0.52205 0.80272 0.04316 0.0
H3997 H 0.56095 0.84731 0.06792 0.0
H3998 H 0.59035 0.805 0.06929 0.0
H3999 H 0.49539 0.70634 0.0466 0.0
H4000 H 0.51352 0.69854 0.03697 0.0
H4001 H 0.49923 0.73506 0.03762 0.0
H4002 H 0.56775 0.78761 0.03246 0.0
H4003 H 0.58214 0.75104 0.03177 0.0
H4004 H 0.61064 0.79439 0.03786 0.0
H4005 H 0.60681 0.75081 0.06867 0.0
H4006 H 0.61347 0.69309 0.06574 0.0
H4007 H 0.56918 0.68678 0.04093 0.0
C4008 C 0.53757 0.80416 0.04879 0.0
C4009 C 0.53938 0.82845 0.05543 0.0
C4010 C 0.55962 0.82932 0.06273 0.0
C4011 C 0.57631 0.80529 0.06357 0.0
C4012 C 0.57339 0.78113 0.05696 0.0
C4013 C 0.55526 0.78103 0.04964 0.0
C4014 C 0.55524 0.7516 0.04357 0.0
C4015 C 0.51335 0.72108 0.04105 0.0
C4016 C 0.58043 0.7724 0.03597 0.0
C4017 C 0.57412 0.73352 0.04877 0.0
C4018 C 0.58465 0.75123 0.05646 0.0
C4019 C 0.59952 0.73745 0.0626 0.0
C4020 C 0.60316 0.70459 0.06089 0.0
C4021 C 0.59255 0.68594 0.05307 0.0
C4022 C 0.57858 0.70116 0.04688 0.0
H4023 H 0.27702 0.7813 0.06907 0.0
H4024 H 0.26108 0.73234 0.04444 0.0
H4025 H 0.30829 0.79788 0.03892 0.0
H4026 H 0.28918 0.87738 0.06207 0.0
H4027 H 0.32412 0.90351 0.07013 0.0
H4028 H 0.28574 0.85393 0.07185 0.0
H4029 H 0.33774 0.83471 0.07564 0.0
H4030 H 0.37607 0.88405 0.07387 0.0
H4031 H 0.37622 0.84449 0.06837 0.0
H4032 H 0.36156 0.86902 0.03636 0.0
H4033 H 0.41541 0.93778 0.03706 0.0
H4034 H 0.39734 0.93886 0.06347 0.0
C4035 C 0.28298 0.78455 0.06248 0.0
C4036 C 0.26534 0.75176 0.05717 0.0
C4037 C 0.27388 0.75713 0.0486 0.0
C4038 C 0.30075 0.79425 0.04543 0.0
C4039 C 0.31833 0.82586 0.05088 0.0
C4040 C 0.30929 0.82138 0.05922 0.0
C4041 C 0.33306 0.85951 0.06386 0.0
C4042 C 0.30644 0.87445 0.06718 0.0
C4043 C 0.35721 0.85541 0.07084 0.0
C4044 C 0.35888 0.88553 0.05696 0.0
C4045 C 0.34922 0.86605 0.04946 0.0
C4046 C 0.36908 0.88446 0.04221 0.0
C4047 C 0.39959 0.92351 0.04265 0.0
C4048 C 0.41063 0.94341 0.05033 0.0
C4049 C 0.38973 0.92416 0.05754 0.0
H4050 H 0.14612 0.47513 0.04283 0.0
H4051 H 0.16393 0.56788 0.05961 0.0
H4052 H 0.23331 0.58792 0.06095 0.0
H4053 H 0.2036 0.44659 0.05365 0.0
H4054 H 0.22438 0.43612 0.04476 0.0
H4055 H 0.17747 0.43292 0.04396 0.0
H4056 H 0.20261 0.48162 0.03173 0.0
H4057 H 0.24982 0.48517 0.03248 0.0
H4058 H 0.24595 0.52859 0.03302 0.0
H4059 H 0.29943 0.5948 0.06154 0.0
H4060 H 0.35588 0.58408 0.06223 0.0
H4061 H 0.2965 0.48567 0.04554 0.0
C4062 C 0.16494 0.50025 0.04659 0.0
C4063 C 0.14962 0.52045 0.05102 0.0
C4064 C 0.17506 0.55241 0.05609 0.0
C4065 C 0.21465 0.5641 0.05687 0.0
C4066 C 0.22887 0.54343 0.05256 0.0
C4067 C 0.20489 0.5121 0.04753 0.0
C4068 C 0.22707 0.49274 0.04426 0.0
C4069 C 0.20693 0.44954 0.04682 0.0
C4070 C 0.23163 0.4973 0.03481 0.0
C4071 C 0.2663 0.51679 0.04857 0.0
C4072 C 0.26705 0.54663 0.05313 0.0
C4073 C 0.29944 0.57184 0.05791 0.0
C4074 C 0.33153 0.56573 0.05822 0.0
C4075 C 0.3308 0.53425 0.05391 0.0
C4076 C 0.29802 0.51014 0.04887 0.0
H4077 H 0.78675 0.49872 0.46267 0.0
H4078 H 0.8687 0.5953 0.44749 0.0
H4079 H 0.8283 0.62664 0.44904 0.0
H4080 H 0.70255 0.49054 0.45517 0.0
H4081 H 0.67619 0.48061 0.4648 0.0
H4082 H 0.714 0.46832 0.46364 0.0
H4083 H 0.75048 0.51019 0.47642 0.0
H4084 H 0.7124 0.52218 0.47778 0.0
H4085 H 0.76255 0.56051 0.47685 0.0
H4086 H 0.77331 0.64156 0.45028 0.0
H4087 H 0.71104 0.64132 0.45207 0.0
H4088 H 0.66655 0.53804 0.4673 0.0
C4089 C 0.79678 0.52711 0.45992 0.0
C4090 C 0.83117 0.54491 0.45504 0.0
C4091 C 0.84297 0.58162 0.45138 0.0
C4092 C 0.82006 0.59951 0.4522 0.0
C4093 C 0.78582 0.58081 0.45688 0.0
C4094 C 0.77468 0.54582 0.46084 0.0
C4095 C 0.73563 0.53091 0.46518 0.0
C4096 C 0.70529 0.49017 0.46201 0.0
C4097 C 0.74057 0.53094 0.47462 0.0
C4098 C 0.72537 0.56159 0.46261 0.0
C4099 C 0.75496 0.59044 0.45791 0.0
C4100 C 0.75068 0.61997 0.45421 0.0
C4101 C 0.71537 0.61992 0.45532 0.0
C4102 C 0.68496 0.59095 0.46017 0.0
C4103 C 0.69012 0.5615 0.46387 0.0
H4104 H 0.51495 0.1504 0.4482 0.0
H4105 H 0.47988 0.13058 0.47398 0.0
H4106 H 0.49081 0.1981 0.47485 0.0
H4107 H 0.59189 0.24489 0.4502 0.0
H4108 H 0.58344 0.26185 0.44049 0.0
H4109 H 0.56848 0.21116 0.44178 0.0
H4110 H 0.49767 0.19169 0.43769 0.0
H4111 H 0.5124 0.24241 0.43633 0.0
H4112 H 0.47275 0.21239 0.44322 0.0
H4113 H 0.51115 0.27139 0.47287 0.0
H4114 H 0.53887 0.34037 0.46845 0.0
H4115 H 0.56142 0.31027 0.4441 0.0
C4116 C 0.50899 0.15985 0.45404 0.0
C4117 C 0.49659 0.13498 0.46104 0.0
C4118 C 0.48913 0.14885 0.46851 0.0
C4119 C 0.49537 0.18726 0.46905 0.0
C4120 C 0.50866 0.21131 0.46204 0.0
C4121 C 0.51499 0.19774 0.45466 0.0
C4122 C 0.53092 0.22924 0.44808 0.0
C4123 C 0.57106 0.23725 0.44496 0.0
C4124 C 0.50169 0.21828 0.4409 0.0
C4125 C 0.5342 0.26343 0.45296 0.0
C4126 C 0.52058 0.25258 0.46096 0.0
C4127 C 0.52154 0.27988 0.4666 0.0
C4128 C 0.53722 0.31902 0.46403 0.0
C4129 C 0.55239 0.33084 0.45593 0.0
C4130 C 0.55023 0.30229 0.45034 0.0
H4131 H 0.94588 0.37089 0.4675 0.0
H4132 H 0.92338 0.45223 0.45422 0.0
H4133 H 0.85344 0.40336 0.45332 0.0
H4134 H 0.88575 0.28899 0.45646 0.0
H4135 H 0.86675 0.2552 0.46499 0.0
H4136 H 0.91376 0.29855 0.46585 0.0
H4137 H 0.89124 0.3184 0.47909 0.0
H4138 H 0.84385 0.27501 0.4783 0.0
H4139 H 0.84773 0.3223 0.47882 0.0
H4140 H 0.78864 0.34417 0.45215 0.0
H4141 H 0.73296 0.27722 0.45053 0.0
H4142 H 0.79535 0.23263 0.46471 0.0
C4143 C 0.926 0.37859 0.46461 0.0
C4144 C 0.94002 0.41529 0.46077 0.0
C4145 C 0.91309 0.42409 0.457 0.0
C4146 C 0.87332 0.39667 0.45656 0.0
C4147 C 0.86042 0.36031 0.4601 0.0
C4148 C 0.88572 0.35118 0.46414 0.0
C4149 C 0.86429 0.30877 0.46684 0.0
C4150 C 0.88379 0.28658 0.46331 0.0
C4151 C 0.86163 0.30595 0.47633 0.0
C4152 C 0.82425 0.29498 0.46303 0.0
C4153 C 0.82233 0.3256 0.45944 0.0
C4154 C 0.78936 0.32 0.4551 0.0
C4155 C 0.75778 0.28191 0.45423 0.0
C4156 C 0.75968 0.24984 0.45755 0.0
C4157 C 0.79301 0.25671 0.46218 0.0
H4158 H 0.49703 0.39186 0.94893 0.0
H4159 H 0.50777 0.4011 0.97562 0.0
H4160 H 0.52071 0.34573 0.97586 0.0
H4161 H 0.44929 0.28376 0.94817 0.0
H4162 H 0.47378 0.28515 0.93866 0.0
H4163 H 0.46184 0.32263 0.94086 0.0
H4164 H 0.5344 0.3756 0.93887 0.0
H4165 H 0.54665 0.33848 0.93668 0.0
H4166 H 0.57152 0.37309 0.94488 0.0
H4167 H 0.54015 0.29319 0.97269 0.0
H4168 H 0.56215 0.24975 0.96662 0.0
H4169 H 0.53515 0.27419 0.94212 0.0
C4170 C 0.50146 0.38183 0.95485 0.0
C4171 C 0.50152 0.40081 0.96226 0.0
C4172 C 0.50729 0.38674 0.96988 0.0
C4173 C 0.51475 0.35536 0.97005 0.0
C4174 C 0.51539 0.3378 0.96258 0.0
C4175 C 0.50819 0.35031 0.95514 0.0
C4176 C 0.51159 0.32785 0.94791 0.0
C4177 C 0.47176 0.30339 0.94365 0.0
C4178 C 0.54291 0.3554 0.94173 0.0
C4179 C 0.52393 0.30205 0.95234 0.0
C4180 C 0.52548 0.30761 0.96082 0.0
C4181 C 0.53835 0.28827 0.96608 0.0
C4182 C 0.55063 0.26343 0.96258 0.0
C4183 C 0.55039 0.25842 0.95389 0.0
C4184 C 0.53581 0.27736 0.94879 0.0
H4185 H 0.82979 0.29796 0.9459 0.0
H4186 H 0.82429 0.35149 0.96887 0.0
H4187 H 0.7733 0.28696 0.97403 0.0
H4188 H 0.73077 0.23057 0.94365 0.0
H4189 H 0.73624 0.19061 0.93994 0.0
H4190 H 0.77467 0.24007 0.93829 0.0
H4191 H 0.82398 0.22496 0.94556 0.0
H4192 H 0.78562 0.17529 0.94719 0.0
H4193 H 0.81364 0.20469 0.95585 0.0
H4194 H 0.71678 0.21868 0.97588 0.0
H4195 H 0.66324 0.15033 0.97497 0.0
H4196 H 0.70766 0.1378 0.95135 0.0
C4197 C 0.81851 0.29582 0.9521 0.0
C4198 C 0.83135 0.32986 0.95704 0.0
C4199 C 0.81549 0.32591 0.96506 0.0
C4200 C 0.78632 0.28933 0.96801 0.0
C4201 C 0.77377 0.25653 0.96295 0.0
C4202 C 0.78997 0.25919 0.95524 0.0
C4203 C 0.77069 0.21931 0.95102 0.0
C4204 C 0.75198 0.22022 0.94274 0.0
C4205 C 0.80025 0.20524 0.94983 0.0
C4206 C 0.73981 0.19426 0.95738 0.0
C4207 C 0.74231 0.21645 0.96423 0.0
C4208 C 0.71523 0.20089 0.97065 0.0
C4209 C 0.68484 0.16197 0.97008 0.0
C4210 C 0.68166 0.13839 0.96319 0.0
C4211 C 0.70997 0.15471 0.9568 0.0
H4212 H 0.77412 0.52317 0.94312 0.0
H4213 H 0.75653 0.57699 0.96479 0.0
H4214 H 0.81962 0.5883 0.97055 0.0
H4215 H 0.8238 0.47668 0.95418 0.0
H4216 H 0.8553 0.485 0.94544 0.0
H4217 H 0.80671 0.47685 0.94384 0.0
H4218 H 0.83671 0.54202 0.93566 0.0
H4219 H 0.88513 0.55029 0.93752 0.0
H4220 H 0.87266 0.58649 0.94061 0.0
H4221 H 0.88866 0.59966 0.97315 0.0
H4222 H 0.95427 0.60639 0.97273 0.0
H4223 H 0.92585 0.54564 0.94917 0.0
C4224 C 0.78318 0.5366 0.94916 0.0
C4225 C 0.76047 0.54918 0.95353 0.0
C4226 C 0.77329 0.56674 0.9614 0.0
C4227 C 0.80916 0.57342 0.96469 0.0
C4228 C 0.83152 0.56181 0.96008 0.0
C4229 C 0.81858 0.54313 0.95254 0.0
C4230 C 0.84849 0.53486 0.94862 0.0
C4231 C 0.83258 0.4907 0.94799 0.0
C4232 C 0.86151 0.55461 0.9401 0.0
C4233 C 0.88116 0.5534 0.95491 0.0
C4234 C 0.87077 0.56838 0.96154 0.0
C4235 C 0.89686 0.58778 0.968 0.0
C4236 C 0.93432 0.59186 0.96767 0.0
C4237 C 0.94571 0.57719 0.96086 0.0
C4238 C 0.91836 0.55739 0.95447 0.0
H4239 H 0.38187 0.47601 0.55937 0.0
H4240 H 0.42252 0.52501 0.53502 0.0
H4241 H 0.36956 0.54142 0.53411 0.0
H4242 H 0.27551 0.43455 0.55442 0.0
H4243 H 0.26484 0.44357 0.56476 0.0
H4244 H 0.30362 0.43291 0.56303 0.0
H4245 H 0.35231 0.497 0.57048 0.0
H4246 H 0.31386 0.50789 0.57222 0.0
H4247 H 0.35775 0.54264 0.56692 0.0
H4248 H 0.31525 0.55889 0.53674 0.0
H4249 H 0.26616 0.57428 0.54247 0.0
H4250 H 0.25971 0.51095 0.5648 0.0
C4251 C 0.37901 0.48941 0.55377 0.0
C4252 C 0.40607 0.49898 0.54723 0.0
C4253 C 0.40166 0.51679 0.54003 0.0
C4254 C 0.37173 0.52635 0.53949 0.0
C4255 C 0.34572 0.51701 0.54612 0.0
C4256 C 0.34877 0.49823 0.55306 0.0
C4257 C 0.3179 0.49195 0.55942 0.0
C4258 C 0.28874 0.44815 0.56047 0.0
C4259 C 0.33659 0.51104 0.56775 0.0
C4260 C 0.2986 0.51243 0.55526 0.0
C4261 C 0.31441 0.52609 0.54752 0.0
C4262 C 0.30227 0.54761 0.54273 0.0
C4263 C 0.27409 0.55602 0.546 0.0
C4264 C 0.25853 0.54339 0.55403 0.0
C4265 C 0.27056 0.52057 0.55859 0.0
H4266 H 0.52854 0.77156 0.56493 0.0
H4267 H 0.58476 0.75496 0.54358 0.0
H4268 H 0.59783 0.81888 0.53797 0.0
H4269 H 0.48414 0.82251 0.55389 0.0
H4270 H 0.49201 0.85404 0.5626 0.0
H4271 H 0.48345 0.80537 0.56426 0.0
H4272 H 0.54804 0.83377 0.57258 0.0
H4273 H 0.55703 0.88245 0.57085 0.0
H4274 H 0.59308 0.86966 0.56782 0.0
H4275 H 0.61149 0.88985 0.53565 0.0
H4276 H 0.61899 0.95605 0.53642 0.0
H4277 H 0.5522 0.923 0.55924 0.0
C4278 C 0.54262 0.78091 0.55895 0.0
C4279 C 0.55534 0.75821 0.55464 0.0
C4280 C 0.57421 0.77163 0.54691 0.0
C4281 C 0.58198 0.80803 0.54371 0.0
C4282 C 0.5702 0.8304 0.54828 0.0
C4283 C 0.55019 0.81679 0.55567 0.0
C4284 C 0.54198 0.8466 0.55963 0.0
C4285 C 0.49777 0.83121 0.56012 0.0
C4286 C 0.56119 0.85883 0.56823 0.0
C4287 C 0.56143 0.87964 0.55347 0.0
C4288 C 0.57751 0.87006 0.54693 0.0
C4289 C 0.59845 0.89727 0.54071 0.0
C4290 C 0.6027 0.93488 0.5412 0.0
C4291 C 0.58617 0.94493 0.54787 0.0
C4292 C 0.5652 0.91657 0.55402 0.0
H4293 H 0.31044 0.79363 0.5668 0.0
H4294 H 0.33283 0.85979 0.54412 0.0
H4295 H 0.27025 0.80754 0.53833 0.0
H4296 H 0.26087 0.69472 0.55676 0.0
H4297 H 0.22752 0.67386 0.56532 0.0
H4298 H 0.27613 0.71402 0.56706 0.0
H4299 H 0.24618 0.75227 0.57397 0.0
H4300 H 0.1977 0.71242 0.57204 0.0
H4301 H 0.21179 0.76052 0.56826 0.0
H4302 H 0.2008 0.75175 0.53583 0.0
H4303 H 0.13392 0.69478 0.53629 0.0
H4304 H 0.15826 0.66431 0.5605 0.0
C4305 C 0.30258 0.79661 0.56053 0.0
C4306 C 0.32652 0.83069 0.55588 0.0
C4307 C 0.31519 0.83372 0.54773 0.0
C4308 C 0.27958 0.80428 0.54443 0.0
C4309 C 0.25597 0.77165 0.54929 0.0
C4310 C 0.26747 0.76731 0.55711 0.0
C4311 C 0.23628 0.73032 0.56122 0.0
C4312 C 0.25111 0.70154 0.56267 0.0
C4313 C 0.22217 0.73946 0.56935 0.0
C4314 C 0.20469 0.71531 0.55465 0.0
C4315 C 0.21661 0.73936 0.54779 0.0
C4316 C 0.1915 0.73241 0.54112 0.0
C4317 C 0.15345 0.70001 0.54145 0.0
C4318 C 0.14071 0.67488 0.54842 0.0
C4319 C 0.16699 0.68273 0.55506 0.0
H4320 H 0.28494 0.04156 0.37612 0.0
H4321 H 0.188 0.96491 0.39192 0.0
H4322 H 0.16702 0.01324 0.39275 0.0
H4323 H 0.30964 0.12529 0.38756 0.0
H4324 H 0.32333 0.15843 0.37892 0.0
H4325 H 0.32675 0.11493 0.37807 0.0
H4326 H 0.2826 0.09417 0.36509 0.0
H4327 H 0.27882 0.13764 0.36588 0.0
H4328 H 0.23525 0.09034 0.36565 0.0
H4329 H 0.15906 0.0716 0.3931 0.0
H4330 H 0.1697 0.13855 0.39417 0.0
H4331 H 0.2739 0.18109 0.37911 0.0
C4332 C 0.25866 0.0346 0.37953 0.0
C4333 C 0.23732 0.99845 0.3837 0.0
C4334 C 0.20407 0.99141 0.3884 0.0
C4335 C 0.19188 0.01895 0.38895 0.0
C4336 C 0.21352 0.0543 0.38487 0.0
C4337 C 0.24645 0.06252 0.38031 0.0
C4338 C 0.26697 0.10475 0.37743 0.0
C4339 C 0.30916 0.12717 0.3807 0.0
C4340 C 0.26584 0.10684 0.36795 0.0
C4341 C 0.24145 0.11909 0.38141 0.0
C4342 C 0.21007 0.0891 0.38544 0.0
C4343 C 0.18327 0.0953 0.38987 0.0
C4344 C 0.18933 0.1334 0.3904 0.0
C4345 C 0.22237 0.16504 0.38668 0.0
C4346 C 0.24814 0.15742 0.38195 0.0
H4347 H 0.04149 0.27261 0.37589 0.0
H4348 H 0.11681 0.25945 0.39354 0.0
H4349 H 0.07057 0.18964 0.39455 0.0
H4350 H 0.95564 0.21257 0.3866 0.0
H4351 H 0.9251 0.19068 0.37765 0.0
H4352 H 0.96758 0.23844 0.37689 0.0
H4353 H 0.99335 0.21474 0.36479 0.0
H4354 H 0.951 0.16662 0.36554 0.0
H4355 H 0.9993 0.17283 0.36621 0.0
H4356 H 0.01497 0.12232 0.39469 0.0
H4357 H 0.94904 0.06423 0.39553 0.0
H4358 H 0.90498 0.11969 0.37904 0.0
C4359 C 0.04861 0.25474 0.37978 0.0
C4360 C 0.08374 0.27161 0.3844 0.0
C4361 C 0.09107 0.24736 0.38968 0.0
C4362 C 0.0648 0.20739 0.39033 0.0
C4363 C 0.0305 0.19159 0.38576 0.0
C4364 C 0.02189 0.21444 0.38067 0.0
C4365 C 0.98051 0.19067 0.37734 0.0
C4366 C 0.95575 0.20919 0.37977 0.0
C4367 C 0.98108 0.18594 0.36791 0.0
C4368 C 0.96683 0.15185 0.38172 0.0
C4369 C 0.99679 0.15269 0.38627 0.0
C4370 C 0.99132 0.12102 0.39107 0.0
C4371 C 0.95388 0.088 0.39146 0.0
C4372 C 0.92217 0.08724 0.38725 0.0
C4373 C 0.92898 0.11929 0.38218 0.0
H4374 H 0.83196 0.88098 0.38995 0.0
H4375 H 0.79075 0.77758 0.37471 0.0
H4376 H 0.85754 0.78637 0.37475 0.0
H4377 H 0.92766 0.9372 0.38029 0.0
H4378 H 0.95111 0.9591 0.38997 0.0
H4379 H 0.90067 0.94503 0.38833 0.0
H4380 H 0.88121 0.90263 0.40157 0.0
H4381 H 0.93147 0.91646 0.40328 0.0
H4382 H 0.89478 0.8656 0.40261 0.0
H4383 H 0.92909 0.80394 0.37796 0.0
H4384 H 0.99596 0.82897 0.38344 0.0
H4385 H 0.99007 0.92479 0.39509 0.0
C4386 C 0.8369 0.86025 0.38656 0.0
C4387 C 0.80598 0.82835 0.3824 0.0
C4388 C 0.81393 0.80217 0.37797 0.0
C4389 C 0.85183 0.80701 0.37796 0.0
C4390 C 0.88159 0.83863 0.38225 0.0
C4391 C 0.87442 0.86505 0.38636 0.0
C4392 C 0.91062 0.89615 0.39067 0.0
C4393 C 0.92326 0.93677 0.38709 0.0
C4394 C 0.90412 0.89512 0.40009 0.0
C4395 C 0.93941 0.8829 0.3885 0.0
C4396 C 0.92235 0.84958 0.38369 0.0
C4397 C 0.9428 0.83041 0.38161 0.0
C4398 C 0.98105 0.84507 0.38471 0.0
C4399 C 0.99872 0.8788 0.38982 0.0
C4400 C 0.97768 0.89848 0.39139 0.0
H4401 H 0.37676 0.94775 0.78571 0.0
H4402 H 0.31761 0.86487 0.80551 0.0
H4403 H 0.37066 0.8493 0.80589 0.0
H4404 H 0.40612 0.88842 0.77501 0.0
H4405 H 0.45248 0.92821 0.77163 0.0
H4406 H 0.41236 0.93641 0.77361 0.0
H4407 H 0.45524 0.99131 0.78396 0.0
H4408 H 0.4955 0.98306 0.78207 0.0
H4409 H 0.47806 0.98086 0.79247 0.0
H4410 H 0.42931 0.84045 0.80383 0.0
H4411 H 0.48335 0.8327 0.79818 0.0
H4412 H 0.5028 0.9174 0.77912 0.0
C4413 C 0.37543 0.9269 0.79023 0.0
C4414 C 0.34313 0.908 0.79567 0.0
C4415 C 0.34204 0.88003 0.80132 0.0
C4416 C 0.37223 0.87107 0.80161 0.0
C4417 C 0.40354 0.88993 0.79616 0.0
C4418 C 0.40512 0.91691 0.79049 0.0
C4419 C 0.44015 0.9301 0.78479 0.0
C4420 C 0.42698 0.92018 0.77573 0.0
C4421 C 0.46895 0.97394 0.78589 0.0
C4422 C 0.45743 0.90577 0.78802 0.0
C4423 C 0.43642 0.88353 0.79472 0.0
C4424 C 0.44614 0.85797 0.79863 0.0
C4425 C 0.47717 0.85399 0.79543 0.0
C4426 C 0.49783 0.87488 0.78831 0.0
C4427 C 0.48812 0.90165 0.78468 0.0
H4428 H 0.24103 0.65842 0.79797 0.0
H4429 H 0.16938 0.64999 0.77695 0.0
H4430 H 0.13671 0.57784 0.77759 0.0
H4431 H 0.25938 0.58638 0.79255 0.0
H4432 H 0.25655 0.56653 0.80273 0.0
H4433 H 0.26926 0.61668 0.80158 0.0
H4434 H 0.212 0.60534 0.81119 0.0
H4435 H 0.19943 0.55512 0.81246 0.0
H4436 H 0.16323 0.56667 0.80886 0.0
H4437 H 0.12212 0.50817 0.77878 0.0
H4438 H 0.12174 0.44632 0.78132 0.0
H4439 H 0.1985 0.49835 0.80232 0.0
C4440 C 0.21722 0.64121 0.79375 0.0
C4441 C 0.20704 0.65963 0.78752 0.0
C4442 C 0.17681 0.63638 0.78189 0.0
C4443 C 0.15831 0.59539 0.7822 0.0
C4444 C 0.16989 0.57807 0.78826 0.0
C4445 C 0.19801 0.60025 0.79407 0.0
C4446 C 0.20713 0.57469 0.79958 0.0
C4447 C 0.25065 0.5868 0.79907 0.0
C4448 C 0.19471 0.57551 0.80855 0.0
C4449 C 0.18142 0.53497 0.79568 0.0
C4450 C 0.15995 0.53749 0.78919 0.0
C4451 C 0.13761 0.5056 0.78404 0.0
C4452 C 0.13739 0.47051 0.78554 0.0
C4453 C 0.15867 0.46722 0.79222 0.0
C4454 C 0.18061 0.49973 0.7974 0.0
H4455 H 0.61328 0.71285 0.80292 0.0
H4456 H 0.60521 0.78148 0.78292 0.0
H4457 H 0.53549 0.73485 0.78141 0.0
H4458 H 0.5542 0.62274 0.79317 0.0
H4459 H 0.53076 0.59615 0.80247 0.0
H4460 H 0.5788 0.63844 0.803 0.0
H4461 H 0.55395 0.66937 0.8138 0.0
H4462 H 0.50559 0.62726 0.81323 0.0
H4463 H 0.51272 0.67526 0.81133 0.0
H4464 H 0.46724 0.67893 0.78129 0.0
H4465 H 0.40841 0.61323 0.78126 0.0
H4466 H 0.46002 0.57669 0.8004 0.0
C4467 C 0.59658 0.71842 0.79836 0.0
C4468 C 0.61481 0.75187 0.79324 0.0
C4469 C 0.59204 0.75713 0.78713 0.0
C4470 C 0.55214 0.73057 0.7862 0.0
C4471 C 0.53498 0.69804 0.79132 0.0
C4472 C 0.55649 0.69143 0.7972 0.0
C4473 C 0.53167 0.65172 0.80119 0.0
C4474 C 0.54994 0.62573 0.79987 0.0
C4475 C 0.52563 0.65618 0.81044 0.0
C4476 C 0.4936 0.63668 0.79641 0.0
C4477 C 0.4958 0.66446 0.79094 0.0
C4478 C 0.46494 0.65705 0.78563 0.0
C4479 C 0.43144 0.61979 0.7857 0.0
C4480 C 0.42935 0.59016 0.79092 0.0
C4481 C 0.46054 0.59912 0.79648 0.0
H4482 H 0.22862 0.61998 0.27855 0.0
H4483 H 0.17365 0.54788 0.30006 0.0
H4484 H 0.16073 0.59875 0.30567 0.0
H4485 H 0.27254 0.71613 0.28965 0.0
H4486 H 0.26426 0.73939 0.28092 0.0
H4487 H 0.27375 0.69983 0.27929 0.0
H4488 H 0.20944 0.66281 0.27092 0.0
H4489 H 0.19947 0.70189 0.27262 0.0
H4490 H 0.16403 0.65285 0.27564 0.0
H4491 H 0.1463 0.65443 0.30794 0.0
H4492 H 0.13664 0.71153 0.30722 0.0
H4493 H 0.20195 0.7468 0.28421 0.0
C4494 C 0.21484 0.61542 0.28455 0.0
C4495 C 0.20229 0.5801 0.28891 0.0
C4496 C 0.18399 0.57495 0.2967 0.0
C4497 C 0.17635 0.60361 0.29989 0.0
C4498 C 0.18775 0.6375 0.29528 0.0
C4499 C 0.20738 0.64381 0.28785 0.0
C4500 C 0.21491 0.68163 0.28386 0.0
C4501 C 0.25898 0.71098 0.28341 0.0
C4502 C 0.19581 0.67433 0.27525 0.0
C4503 C 0.19493 0.69481 0.29001 0.0
C4504 C 0.17975 0.6693 0.2966 0.0
C4505 C 0.15858 0.67481 0.30285 0.0
C4506 C 0.15305 0.70727 0.30237 0.0
C4507 C 0.1684 0.73373 0.29566 0.0
C4508 C 0.18977 0.72726 0.28944 0.0
H4509 H 0.33752 0.49568 0.30329 0.0
H4510 H 0.37111 0.44056 0.28444 0.0
H4511 H 0.43233 0.50255 0.28204 0.0
H4512 H 0.36625 0.58065 0.29206 0.0
H4513 H 0.38326 0.6136 0.30076 0.0
H4514 H 0.34627 0.56343 0.30223 0.0
H4515 H 0.38908 0.55588 0.31338 0.0
H4516 H 0.42637 0.60614 0.31193 0.0
H4517 H 0.43829 0.56796 0.31086 0.0
H4518 H 0.48766 0.57189 0.28088 0.0
H4519 H 0.52807 0.64374 0.27979 0.0
H4520 H 0.45592 0.65649 0.29827 0.0
C4521 C 0.35866 0.49649 0.29892 0.0
C4522 C 0.35078 0.46265 0.29441 0.0
C4523 C 0.37774 0.46537 0.28832 0.0
C4524 C 0.41246 0.50069 0.28686 0.0
C4525 C 0.41953 0.53361 0.29139 0.0
C4526 C 0.39316 0.53198 0.29723 0.0
C4527 C 0.4053 0.57263 0.30045 0.0
C4528 C 0.37338 0.58319 0.29877 0.0
C4529 C 0.41535 0.57584 0.30971 0.0
C4530 C 0.44171 0.59746 0.29529 0.0
C4531 C 0.45005 0.57418 0.2903 0.0
C4532 C 0.48163 0.59032 0.28483 0.0
C4533 C 0.50465 0.63118 0.28429 0.0
C4534 C 0.49569 0.65566 0.28906 0.0
C4535 C 0.46401 0.63845 0.2947 0.0
H4536 H 0.45878 0.92871 0.29816 0.0
H4537 H 0.40138 0.82715 0.28226 0.0
H4538 H 0.45877 0.81818 0.28335 0.0
H4539 H 0.5524 0.96765 0.2906 0.0
H4540 H 0.57786 0.98269 0.30034 0.0
H4541 H 0.53069 0.97867 0.29924 0.0
H4542 H 0.50467 0.93103 0.3117 0.0
H4543 H 0.55205 0.93529 0.31285 0.0
H4544 H 0.50921 0.88792 0.31161 0.0
H4545 H 0.52546 0.82818 0.28383 0.0
H4546 H 0.59515 0.84919 0.28548 0.0
H4547 H 0.60978 0.94011 0.30236 0.0
C4548 C 0.45787 0.90379 0.29517 0.0
C4549 C 0.42536 0.87819 0.29021 0.0
C4550 C 0.42547 0.84645 0.28622 0.0
C4551 C 0.4581 0.84137 0.28677 0.0
C4552 C 0.49009 0.86775 0.29149 0.0
C4553 C 0.48997 0.89775 0.29582 0.0
C4554 C 0.52893 0.92257 0.30022 0.0
C4555 C 0.54861 0.96543 0.29743 0.0
C4556 C 0.52338 0.919 0.30966 0.0
C4557 C 0.55171 0.90322 0.29729 0.0
C4558 C 0.52843 0.87163 0.29227 0.0
C4559 C 0.54347 0.85155 0.28805 0.0
C4560 C 0.58301 0.86351 0.28905 0.0
C4561 C 0.6075 0.89476 0.29432 0.0
C4562 C 0.59152 0.91499 0.29854 0.0
H4563 H 0.0836 0.87172 0.87631 0.0
H4564 H 0.04076 0.77834 0.89427 0.0
H4565 H 0.98119 0.78315 0.89628 0.0
H4566 H 0.05611 0.92977 0.88665 0.0
H4567 H 0.04174 0.94671 0.8777 0.0
H4568 H 0.07746 0.93149 0.87669 0.0
H4569 H 0.03515 0.88147 0.86539 0.0
H4570 H 0.99932 0.89675 0.86633 0.0
H4571 H 0.98495 0.84608 0.8676 0.0
H4572 H 0.93044 0.80422 0.89758 0.0
H4573 H 0.89243 0.83837 0.89785 0.0
H4574 H 0.96821 0.91796 0.87892 0.0
C4575 C 0.06086 0.85138 0.88041 0.0
C4576 C 0.06611 0.82414 0.88503 0.0
C4577 C 0.03675 0.79895 0.89061 0.0
C4578 C 1.00289 0.80153 0.89178 0.0
C4579 C 0.99892 0.82954 0.88731 0.0
C4580 C 0.02693 0.8537 0.88166 0.0
C4581 C 0.01723 0.88334 0.87813 0.0
C4582 C 0.05009 0.9253 0.8799 0.0
C4583 C 1.00865 0.8765 0.86881 0.0
C4584 C 0.9805 0.87338 0.88296 0.0
C4585 C 0.96998 0.84184 0.88812 0.0
C4586 C 0.93807 0.82854 0.89346 0.0
C4587 C 0.91655 0.84809 0.89356 0.0
C4588 C 0.92719 0.88094 0.88841 0.0
C4589 C 0.95937 0.89319 0.88298 0.0
H4590 H 0.2333 0.26151 0.89715 0.0
H4591 H 0.25581 0.27513 0.87074 0.0
H4592 H 0.24357 0.20754 0.86995 0.0
H4593 H 0.27984 0.20088 0.90042 0.0
H4594 H 0.24533 0.17186 0.90833 0.0
H4595 H 0.25817 0.22206 0.9069 0.0
H4596 H 0.1851 0.20077 0.90498 0.0
H4597 H 0.1722 0.15074 0.90648 0.0
H4598 H 0.15698 0.16465 0.8972 0.0
H4599 H 0.22416 0.13621 0.87192 0.0
H4600 H 0.19922 0.06802 0.87651 0.0
H4601 H 0.19064 0.10131 0.90163 0.0
C4602 C 0.23601 0.25041 0.89121 0.0
C4603 C 0.24546 0.27373 0.884 0.0
C4604 C 0.24885 0.25802 0.87636 0.0
C4605 C 0.24194 0.21959 0.87585 0.0
C4606 C 0.23239 0.19727 0.88306 0.0
C4607 C 0.22991 0.21231 0.89062 0.0
C4608 C 0.21882 0.18214 0.89743 0.0
C4609 C 0.25254 0.195 0.90364 0.0
C4610 C 0.18101 0.17414 0.90178 0.0
C4611 C 0.21289 0.14705 0.89245 0.0
C4612 C 0.22172 0.15657 0.8842 0.0
C4613 C 0.21753 0.12861 0.87839 0.0
C4614 C 0.20341 0.08994 0.88104 0.0
C4615 C 0.19293 0.07928 0.88941 0.0
C4616 C 0.1983 0.10852 0.89518 0.0
H4617 H 0.81706 0.01747 0.89591 0.0
H4618 H 0.806 0.01565 0.86921 0.0
H4619 H 0.87401 0.07135 0.86822 0.0
H4620 H 0.87876 0.12613 0.8975 0.0
H4621 H 0.90582 0.12265 0.90612 0.0
H4622 H 0.85538 0.08584 0.90462 0.0
H4623 H 0.87465 0.03205 0.90456 0.0
H4624 H 0.92478 0.06894 0.90619 0.0
H4625 H 0.91185 0.03633 0.89751 0.0
H4626 H 0.94706 0.1236 0.87033 0.0
H4627 H 0.01495 0.16687 0.87523 0.0
H4628 H 0.97629 0.13416 0.90055 0.0
C4629 C 0.82867 0.0292 0.88984 0.0
C4630 C 0.80622 0.01204 0.88262 0.0
C4631 C 0.82248 0.02843 0.87483 0.0
C4632 C 0.86119 0.05999 0.87422 0.0
C4633 C 0.88297 0.07541 0.88148 0.0
C4634 C 0.86682 0.06087 0.88916 0.0
C4635 C 0.89609 0.08174 0.89604 0.0
C4636 C 0.88325 0.1055 0.90139 0.0
C4637 C 0.90217 0.05303 0.90139 0.0
C4638 C 0.93226 0.10838 0.89106 0.0
C4639 C 0.92408 0.10516 0.88267 0.0
C4640 C 0.95348 0.1265 0.87689 0.0
C4641 C 0.99202 0.15116 0.87972 0.0
C4642 C 1.00118 0.15393 0.88827 0.0
C4643 C 0.97048 0.13257 0.89397 0.0
H4644 H 0.95077 0.37997 0.70936 0.0
H4645 H 0.84663 0.29563 0.72201 0.0
H4646 H 0.82557 0.34439 0.72375 0.0
H4647 H 0.97223 0.45761 0.72171 0.0
H4648 H 0.98742 0.49541 0.714 0.0
H4649 H 0.99209 0.45343 0.71195 0.0
H4650 H 0.95124 0.43593 0.69881 0.0
H4651 H 0.94761 0.47926 0.70015 0.0
H4652 H 0.90398 0.43239 0.69902 0.0
H4653 H 0.81953 0.40381 0.72546 0.0
H4654 H 0.83014 0.47043 0.72744 0.0
H4655 H 0.93891 0.51774 0.71383 0.0
C4656 C 0.92321 0.37165 0.71233 0.0
C4657 C 0.9001 0.33388 0.71571 0.0
C4658 C 0.86451 0.32442 0.71958 0.0
C4659 C 0.85234 0.35187 0.7205 0.0
C4660 C 0.87619 0.38919 0.7174 0.0
C4661 C 0.91078 0.39918 0.71333 0.0
C4662 C 0.93224 0.44227 0.71115 0.0
C4663 C 0.9734 0.46341 0.71496 0.0
C4664 C 0.93386 0.44779 0.70172 0.0
C4665 C 0.90567 0.45516 0.71512 0.0
C4666 C 0.87284 0.42381 0.71846 0.0
C4667 C 0.84481 0.42855 0.72275 0.0
C4668 C 0.85094 0.46645 0.72382 0.0
C4669 C 0.88515 0.49916 0.72075 0.0
C4670 C 0.91235 0.49319 0.71619 0.0
H4671 H 0.60944 0.44191 0.73378 0.0
H4672 H 0.58292 0.39832 0.70863 0.0
H4673 H 0.62954 0.46454 0.70337 0.0
H4674 H 0.62204 0.54003 0.72884 0.0
H4675 H 0.66028 0.56396 0.73641 0.0
H4676 H 0.62192 0.51431 0.73806 0.0
H4677 H 0.67384 0.4931 0.73976 0.0
H4678 H 0.7122 0.54252 0.73807 0.0
H4679 H 0.70911 0.50384 0.73164 0.0
H4680 H 0.68364 0.53634 0.70095 0.0
H4681 H 0.73894 0.60449 0.70173 0.0
H4682 H 0.73055 0.59982 0.72848 0.0
C4683 C 0.61302 0.44637 0.72715 0.0
C4684 C 0.59233 0.41466 0.72162 0.0
C4685 C 0.59792 0.42202 0.713 0.0
C4686 C 0.62453 0.45962 0.70996 0.0
C4687 C 0.64505 0.49001 0.71559 0.0
C4688 C 0.63911 0.48376 0.72402 0.0
C4689 C 0.66541 0.52085 0.72883 0.0
C4690 C 0.64095 0.53565 0.7333 0.0
C4691 C 0.6917 0.51468 0.73493 0.0
C4692 C 0.68892 0.54828 0.72185 0.0
C4693 C 0.67612 0.53045 0.71423 0.0
C4694 C 0.69359 0.55045 0.70691 0.0
C4695 C 0.72497 0.58924 0.70739 0.0
C4696 C 0.7393 0.60752 0.71516 0.0
C4697 C 0.72056 0.58664 0.72245 0.0
H4698 H 0.50418 0.19152 0.70855 0.0
H4699 H 0.45857 0.144 0.73282 0.0
H4700 H 0.51967 0.14476 0.73622 0.0
H4701 H 0.56619 0.14608 0.70547 0.0
H4702 H 0.60586 0.18947 0.70095 0.0
H4703 H 0.55624 0.17917 0.69972 0.0
H4704 H 0.57497 0.24649 0.70598 0.0
H4705 H 0.62462 0.25716 0.70718 0.0
H4706 H 0.59806 0.25963 0.71601 0.0
H4707 H 0.58579 0.15326 0.73743 0.0
H4708 H 0.65696 0.17897 0.73733 0.0
H4709 H 0.66493 0.22831 0.71299 0.0
C4710 C 0.5069 0.18037 0.71448 0.0
C4711 C 0.4761 0.16633 0.72032 0.0
C4712 C 0.48133 0.15382 0.72818 0.0
C4713 C 0.51595 0.15407 0.73016 0.0
C4714 C 0.54583 0.16805 0.72432 0.0
C4715 C 0.54214 0.18177 0.71669 0.0
C4716 C 0.58087 0.20016 0.71205 0.0
C4717 C 0.57706 0.17736 0.70407 0.0
C4718 C 0.59549 0.24343 0.7102 0.0
C4719 C 0.60696 0.1954 0.71834 0.0
C4720 C 0.58556 0.17566 0.72525 0.0
C4721 C 0.60282 0.1685 0.73203 0.0
C4722 C 0.64322 0.183 0.73191 0.0
C4723 C 0.66627 0.20494 0.72512 0.0
C4724 C 0.6478 0.21072 0.71817 0.0
H4725 H 0.11778 0.15853 0.13094 0.0
H4726 H 0.20484 0.25062 0.11555 0.0
H4727 H 0.16668 0.28484 0.11606 0.0
H4728 H 0.0349 0.15413 0.12201 0.0
H4729 H 1.00842 0.14552 0.13158 0.0
H4730 H 0.04435 0.13057 0.13052 0.0
H4731 H 0.08053 0.1712 0.14352 0.0
H4732 H 0.04463 0.18632 0.14458 0.0
H4733 H 0.09573 0.22237 0.14386 0.0
H4734 H 0.11397 0.30517 0.11708 0.0
H4735 H 0.05418 0.30993 0.11884 0.0
H4736 H 1.00321 0.20604 0.13399 0.0
C4737 C 0.12912 0.18615 0.12775 0.0
C4738 C 0.16451 0.20181 0.1232 0.0
C4739 C 0.17819 0.23815 0.11915 0.0
C4740 C 0.15654 0.25773 0.11939 0.0
C4741 C 0.12142 0.24104 0.12381 0.0
C4742 C 0.10812 0.20621 0.128 0.0
C4743 C 0.06902 0.19362 0.13211 0.0
C4744 C 0.03732 0.15361 0.12886 0.0
C4745 C 0.0727 0.19336 0.14158 0.0
C4746 C 0.0615 0.22594 0.12936 0.0
C4747 C 0.09218 0.25332 0.12463 0.0
C4748 C 0.09043 0.28443 0.12097 0.0
C4749 C 0.05651 0.28727 0.12208 0.0
C4750 C 0.02486 0.25951 0.12689 0.0
C4751 C 0.02766 0.22861 0.13058 0.0
H4752 H 0.87452 0.96368 0.10871 0.0
H4753 H 0.89061 0.0111 0.1335 0.0
H4754 H 0.86856 0.94513 0.13928 0.0
H4755 H 0.78963 0.86652 0.11316 0.0
H4756 H 0.80662 0.84276 0.10616 0.0
H4757 H 0.8179 0.89214 0.10418 0.0
H4758 H 0.89174 0.91418 0.10368 0.0
H4759 H 0.88064 0.86502 0.10571 0.0
H4760 H 0.91391 0.9041 0.11238 0.0
H4761 H 0.8489 0.87272 0.1422 0.0
H4762 H 0.83614 0.80453 0.14186 0.0
H4763 H 0.8383 0.80808 0.11506 0.0
C4764 C 0.87297 0.96026 0.11537 0.0
C4765 C 0.88443 0.99283 0.12064 0.0
C4766 C 0.88156 0.98669 0.12932 0.0
C4767 C 0.86926 0.94927 0.13265 0.0
C4768 C 0.85965 0.91814 0.12723 0.0
C4769 C 0.86122 0.92345 0.11876 0.0
C4770 C 0.85219 0.88645 0.11418 0.0
C4771 C 0.81434 0.87107 0.10912 0.0
C4772 C 0.88668 0.89284 0.10866 0.0
C4773 C 0.84663 0.85964 0.12136 0.0
C4774 C 0.85008 0.87789 0.12887 0.0
C4775 C 0.84603 0.85834 0.13634 0.0
C4776 C 0.83871 0.81958 0.13609 0.0
C4777 C 0.83642 0.80105 0.12844 0.0
C4778 C 0.84014 0.82147 0.12101 0.0
H4779 H 0.27378 0.05889 0.11516 0.0
H4780 H 0.27686 0.06598 0.14193 0.0
H4781 H 0.20924 0.00957 0.14251 0.0
H4782 H 0.17822 0.03697 0.11207 0.0
H4783 H 0.16847 1.00323 0.1037 0.0
H4784 H 0.21763 0.04162 0.10566 0.0
H4785 H 0.23979 0.99022 0.10693 0.0
H4786 H 0.19045 0.95158 0.10505 0.0
H4787 H 0.21592 0.95091 0.11425 0.0
H4788 H 0.13728 0.95598 0.13981 0.0
H4789 H 0.07099 0.91148 0.13419 0.0
H4790 H 0.11779 0.93829 0.1093 0.0
C4791 C 0.26037 0.04831 0.12116 0.0
C4792 C 0.28044 0.06697 0.1285 0.0
C4793 C 0.26204 0.05205 0.13622 0.0
C4794 C 0.22362 0.02002 0.1366 0.0
C4795 C 0.20429 1.00269 0.12921 0.0
C4796 C 0.2225 0.01612 0.12164 0.0
C4797 C 0.19564 0.99335 0.11456 0.0
C4798 C 0.18965 0.02042 0.10865 0.0
C4799 C 0.21138 0.97013 0.10992 0.0
C4800 C 0.15858 0.96641 0.11925 0.0
C4801 C 0.16407 0.97164 0.1277 0.0
C4802 C 0.13298 0.9513 0.1332 0.0
C4803 C 0.0954 0.92587 0.12997 0.0
C4804 C 0.08906 0.92125 0.12131 0.0
C4805 C 0.12154 0.94111 0.11595 0.0
H4806 H 0.82088 0.9024 0.63277 0.0
H4807 H 0.92004 0.93941 0.61637 0.0
H4808 H 0.93052 0.00647 0.61648 0.0
H4809 H 0.78232 0.95303 0.62348 0.0
H4810 H 0.76665 0.96636 0.63277 0.0
H4811 H 0.77111 0.92339 0.63266 0.0
H4812 H 0.81822 0.94978 0.64523 0.0
H4813 H 0.81329 0.99268 0.64537 0.0
H4814 H 0.86106 0.99756 0.64467 0.0
H4815 H 0.92194 0.06471 0.61611 0.0
H4816 H 0.90023 0.113 0.61663 0.0
H4817 H 0.80915 0.04137 0.63396 0.0
C4818 C 0.84561 0.92498 0.62943 0.0
C4819 C 0.86982 0.91572 0.62459 0.0
C4820 C 0.90158 0.9459 0.62022 0.0
C4821 C 0.90755 0.98402 0.62021 0.0
C4822 C 0.88194 0.99166 0.62472 0.0
C4823 C 0.85216 0.96324 0.62942 0.0
C4824 C 0.82697 0.97836 0.63319 0.0
C4825 C 0.78425 0.95381 0.63035 0.0
C4826 C 0.83008 0.97967 0.64268 0.0
C4827 C 0.84611 0.01918 0.62958 0.0
C4828 C 0.87786 0.02613 0.62474 0.0
C4829 C 0.89794 0.05997 0.62009 0.0
C4830 C 0.88543 0.08734 0.6204 0.0
C4831 C 0.85361 0.08162 0.62539 0.0
C4832 C 0.83391 0.04707 0.63015 0.0
H4833 H 0.17969 0.9652 0.6324 0.0
H4834 H 0.14186 0.01568 0.61327 0.0
H4835 H 0.07635 0.95658 0.6134 0.0
H4836 H 0.13399 0.87095 0.62541 0.0
H4837 H 0.1187 0.84692 0.63529 0.0
H4838 H 0.16067 0.89509 0.63466 0.0
H4839 H 0.12938 0.92027 0.64532 0.0
H4840 H 0.08749 0.87186 0.64602 0.0
H4841 H 0.08109 0.9126 0.64343 0.0
H4842 H 0.02035 0.88825 0.61367 0.0
H4843 H 0.97364 0.81857 0.61531 0.0
H4844 H 0.0436 0.81163 0.63522 0.0
C4845 C 0.15707 0.96433 0.62848 0.0
C4846 C 0.16574 0.99536 0.62289 0.0
C4847 C 0.1357 0.99281 0.61771 0.0
C4848 C 0.09848 0.95915 0.61771 0.0
C4849 C 0.09138 0.92853 0.62305 0.0
C4850 C 0.11944 0.93116 0.62851 0.0
C4851 C 0.10456 0.89325 0.63336 0.0
C4852 C 0.13107 0.87553 0.6321 0.0
C4853 C 0.10039 0.89989 0.64258 0.0
C4854 C 0.06473 0.86808 0.62939 0.0
C4855 C 0.0578 0.88928 0.6235 0.0
C4856 C 0.02491 0.87183 0.61846 0.0
C4857 C 0.99835 0.83197 0.61947 0.0
C4858 C 1.004 0.80948 0.62558 0.0
C4859 C 0.03774 0.82806 0.63065 0.0
H4860 H 0.26907 0.23831 0.61483 0.0
H4861 H 0.28709 0.26923 0.64085 0.0
H4862 H 0.21864 0.2558 0.64181 0.0
H4863 H 0.20816 0.2803 0.61027 0.0
H4864 H 0.17831 0.24203 0.60308 0.0
H4865 H 0.22869 0.25561 0.60458 0.0
H4866 H 0.20759 0.18395 0.6082 0.0
H4867 H 0.15715 0.17011 0.60675 0.0
H4868 H 0.17287 0.15973 0.61641 0.0
H4869 H 0.14464 0.23436 0.63975 0.0
H4870 H 0.07664 0.20986 0.63491 0.0
H4871 H 0.11119 0.1968 0.61017 0.0
C4872 C 0.25892 0.24261 0.62075 0.0
C4873 C 0.28357 0.25474 0.62777 0.0
C4874 C 0.26886 0.26008 0.63536 0.0
C4875 C 0.22994 0.2524 0.63597 0.0
C4876 C 0.20624 0.23982 0.6289 0.0
C4877 C 0.2206 0.23541 0.62143 0.0
C4878 C 0.18984 0.22124 0.61472 0.0
C4879 C 0.20198 0.25161 0.60775 0.0
C4880 C 0.18137 0.1814 0.61132 0.0
C4881 C 0.15546 0.21773 0.61955 0.0
C4882 C 0.16511 0.22847 0.62772 0.0
C4883 C 0.1371 0.22623 0.63334 0.0
C4884 C 0.09847 0.21243 0.63052 0.0
C4885 C 0.08801 0.20088 0.62216 0.0
C4886 C 0.1175 0.20443 0.61665 0.0
H4887 H 0.62864 0.24246 0.21265 0.0
H4888 H 0.57348 0.18446 0.2356 0.0
H4889 H 0.61528 0.1543 0.23602 0.0
H4890 H 0.63939 0.1596 0.20427 0.0
H4891 H 0.68544 0.19221 0.19941 0.0
H4892 H 0.64894 0.2065 0.20054 0.0
H4893 H 0.69931 0.26924 0.20824 0.0
H4894 H 0.73572 0.25493 0.20717 0.0
H4895 H 0.72372 0.26504 0.21728 0.0
H4896 H 0.67026 0.13964 0.23515 0.0
H4897 H 0.72881 0.1345 0.23214 0.0
H4898 H 0.7442 0.19491 0.20891 0.0
C4899 C 0.62482 0.22266 0.21765 0.0
C4900 C 0.59765 0.21561 0.22409 0.0
C4901 C 0.59368 0.18985 0.23057 0.0
C4902 C 0.61744 0.17274 0.23087 0.0
C4903 C 0.64448 0.18087 0.22453 0.0
C4904 C 0.64766 0.20448 0.21793 0.0
C4905 C 0.67964 0.209 0.21201 0.0
C4906 C 0.66231 0.19074 0.20356 0.0
C4907 C 0.71147 0.25211 0.21113 0.0
C4908 C 0.69507 0.18568 0.21649 0.0
C4909 C 0.67438 0.16983 0.22372 0.0
C4910 C 0.68573 0.15073 0.22937 0.0
C4911 C 0.71896 0.14782 0.2276 0.0
C4912 C 0.73997 0.16283 0.22015 0.0
C4913 C 0.72762 0.1817 0.21448 0.0
H4914 H 0.91256 0.59719 0.22963 0.0
H4915 H 0.91575 0.60814 0.20292 0.0
H4916 H 0.90104 0.53968 0.20159 0.0
H4917 H 0.95858 0.53452 0.22973 0.0
H4918 H 0.93089 0.50739 0.23863 0.0
H4919 H 0.94405 0.55778 0.23741 0.0
H4920 H 0.8712 0.53872 0.23856 0.0
H4921 H 0.85833 0.48858 0.23993 0.0
H4922 H 0.83591 0.50165 0.2318 0.0
H4923 H 0.88057 0.4674 0.20329 0.0
H4924 H 0.85815 0.39964 0.2078 0.0
H4925 H 0.87015 0.43649 0.23343 0.0
C4926 C 0.91049 0.58527 0.2235 0.0
C4927 C 0.91496 0.60799 0.21637 0.0
C4928 C 0.91252 0.59142 0.20846 0.0
C4929 C 0.90408 0.55247 0.20766 0.0
C4930 C 0.89903 0.53058 0.21482 0.0
C4931 C 0.90283 0.5467 0.22259 0.0
C4932 C 0.89649 0.51723 0.22931 0.0
C4933 C 0.93477 0.52998 0.23405 0.0
C4934 C 0.86351 0.51121 0.23524 0.0
C4935 C 0.88534 0.48103 0.22414 0.0
C4936 C 0.88798 0.48955 0.21579 0.0
C4937 C 0.87878 0.46063 0.20982 0.0
C4938 C 0.86617 0.42213 0.21244 0.0
C4939 C 0.86219 0.41241 0.22097 0.0
C4940 C 0.87249 0.44268 0.22686 0.0
H4941 H 0.50229 0.34262 0.20736 0.0
H4942 H 0.45569 0.36621 0.22945 0.0
H4943 H 0.51911 0.42573 0.23199 0.0
H4944 H 0.59135 0.36594 0.21581 0.0
H4945 H 0.62036 0.38778 0.20671 0.0
H4946 H 0.56944 0.35173 0.20571 0.0
H4947 H 0.55816 0.40076 0.19721 0.0
H4948 H 0.60913 0.43695 0.19827 0.0
H4949 H 0.5721 0.44796 0.20154 0.0
H4950 H 0.58962 0.47937 0.23295 0.0
H4951 H 0.66182 0.51955 0.23273 0.0
H4952 H 0.66477 0.45871 0.21068 0.0
C4953 C 0.50512 0.36141 0.21251 0.0
C4954 C 0.47352 0.35086 0.218 0.0
C4955 C 0.47896 0.3747 0.22497 0.0
C4956 C 0.51503 0.40847 0.2265 0.0
C4957 C 0.54592 0.41785 0.22107 0.0
C4958 C 0.54139 0.395 0.2142 0.0
C4959 C 0.58041 0.40909 0.2099 0.0
C4960 C 0.591 0.37668 0.2095 0.0
C4961 C 0.57991 0.42462 0.20121 0.0
C4962 C 0.60774 0.442 0.21564 0.0
C4963 C 0.58709 0.44737 0.2219 0.0
C4964 C 0.60602 0.47556 0.22804 0.0
C4965 C 0.64708 0.49835 0.22786 0.0
C4966 C 0.66903 0.49233 0.22171 0.0
C4967 C 0.64883 0.464 0.21547 0.0
H4968 H 0.58024 0.46331 0.06076 0.0
H4969 H 0.55631 0.47237 0.03503 0.0
H4970 H 0.52343 0.40093 0.03356 0.0
H4971 H 0.61506 0.39866 0.0548 0.0
H4972 H 0.60227 0.37221 0.06444 0.0
H4973 H 0.61364 0.42224 0.06424 0.0
H4974 H 0.5464 0.40194 0.07101 0.0
H4975 H 0.53548 0.35192 0.07118 0.0
H4976 H 0.5024 0.36438 0.06621 0.0
H4977 H 0.49286 0.32933 0.03489 0.0
H4978 H 0.49083 0.26638 0.03652 0.0
H4979 H 0.55099 0.30522 0.06003 0.0
C4980 C 0.56755 0.44994 0.05486 0.0
C4981 C 0.56756 0.47272 0.04813 0.0
C4982 C 0.55333 0.45493 0.04038 0.0
C4983 C 0.5349 0.41443 0.03951 0.0
C4984 C 0.53367 0.39239 0.04633 0.0
C4985 C 0.55192 0.40972 0.05369 0.0
C4986 C 0.55591 0.38083 0.0592 0.0
C4987 C 0.59928 0.39428 0.06076 0.0
C4988 C 0.53371 0.37441 0.06738 0.0
C4989 C 0.53664 0.34465 0.05378 0.0
C4990 C 0.52234 0.35168 0.04658 0.0
C4991 C 0.50412 0.32337 0.04047 0.0
C4992 C 0.5028 0.28765 0.04147 0.0
C4993 C 0.52072 0.28123 0.04838 0.0
C4994 C 0.53667 0.30949 0.05475 0.0
H4995 H 0.80361 0.24871 0.05768 0.0
H4996 H 0.81052 0.3032 0.03403 0.0
H4997 H 0.73836 0.26798 0.03315 0.0
H4998 H 0.73006 0.15828 0.05393 0.0
H4999 H 0.70555 0.1507 0.06379 0.0
H5000 H 0.75682 0.18467 0.06301 0.0
H5001 H 0.74366 0.23742 0.06923 0.0
H5002 H 0.69215 0.20244 0.06976 0.0
H5003 H 0.70893 0.24776 0.0643 0.0
H5004 H 0.66831 0.21698 0.03341 0.0
H5005 H 0.60338 0.15952 0.03551 0.0
H5006 H 0.63982 0.14078 0.05962 0.0
C5007 C 0.78966 0.25379 0.05244 0.0
C5008 C 0.81219 0.27808 0.04587 0.0
C5009 C 0.79348 0.2845 0.03909 0.0
C5010 C 0.75262 0.26477 0.03857 0.0
C5011 C 0.73107 0.23971 0.04499 0.0
C5012 C 0.74885 0.23515 0.05194 0.0
C5013 C 0.71893 0.20494 0.05774 0.0
C5014 C 0.72847 0.17269 0.05971 0.0
C5015 C 0.71573 0.22432 0.06573 0.0
C5016 C 0.68224 0.18998 0.05254 0.0
C5017 C 0.68978 0.21128 0.04532 0.0
C5018 C 0.66165 0.20092 0.03917 0.0
C5019 C 0.62479 0.16809 0.04042 0.0
C5020 C 0.61604 0.14602 0.04781 0.0
C5021 C 0.6453 0.15734 0.05395 0.0
H5022 H 0.95256 0.53932 0.03901 0.0
H5023 H 0.93212 0.49142 0.06381 0.0
H5024 H 0.87399 0.49912 0.06507 0.0
H5025 H 0.92233 0.61185 0.04418 0.0
H5026 H 0.90142 0.60877 0.03412 0.0
H5027 H 0.94217 0.60064 0.03523 0.0
H5028 H 0.90239 0.53304 0.0282 0.0
H5029 H 0.86177 0.54116 0.02699 0.0
H5030 H 0.85514 0.4982 0.0323 0.0
H5031 H 0.81626 0.50837 0.06336 0.0
H5032 H 0.76162 0.51726 0.05859 0.0
H5033 H 0.82029 0.56163 0.03515 0.0
C5034 C 0.93539 0.53005 0.04464 0.0
C5035 C 0.94591 0.51387 0.05125 0.0
C5036 C 0.92389 0.5033 0.05865 0.0
C5037 C 0.89112 0.50787 0.05944 0.0
C5038 C 0.88143 0.52407 0.05285 0.0
C5039 C 0.90305 0.53534 0.04562 0.0
C5040 C 0.88629 0.55218 0.03951 0.0
C5041 C 0.91476 0.59596 0.03818 0.0
C5042 C 0.87575 0.52978 0.03126 0.0
C5043 C 0.85026 0.54579 0.04418 0.0
C5044 C 0.84864 0.53054 0.05196 0.0
C5045 C 0.81747 0.52085 0.05733 0.0
C5046 C 0.7867 0.52608 0.05461 0.0
C5047 C 0.78734 0.54064 0.04659 0.0
C5048 C 0.81971 0.55114 0.04137 0.0
H5049 H 0.45605 0.54906 0.47082 0.0
H5050 H 0.47451 0.57651 0.44467 0.0
H5051 H 0.40718 0.56534 0.44345 0.0
H5052 H 0.35066 0.47138 0.46811 0.0
H5053 H 0.33759 0.48279 0.47797 0.0
H5054 H 0.38562 0.48911 0.47646 0.0
H5055 H 0.41646 0.56134 0.4811 0.0
H5056 H 0.36864 0.5552 0.48254 0.0
H5057 H 0.4031 0.59305 0.47579 0.0
H5058 H 0.34038 0.55771 0.44549 0.0
H5059 H 0.27935 0.55375 0.45065 0.0
H5060 H 0.30459 0.52983 0.47534 0.0
C5061 C 0.44579 0.5527 0.46485 0.0
C5062 C 0.47036 0.56442 0.45787 0.0
C5063 C 0.45593 0.5679 0.45009 0.0
C5064 C 0.41777 0.56136 0.44934 0.0
C5065 C 0.39426 0.55027 0.45638 0.0
C5066 C 0.40753 0.54532 0.46395 0.0
C5067 C 0.37681 0.53404 0.4706 0.0
C5068 C 0.3618 0.49183 0.47345 0.0
C5069 C 0.39219 0.56265 0.47793 0.0
C5070 C 0.34569 0.53713 0.46577 0.0
C5071 C 0.35565 0.54521 0.45751 0.0
C5072 C 0.33199 0.55077 0.45191 0.0
C5073 C 0.29753 0.54852 0.45487 0.0
C5074 C 0.2877 0.54151 0.46335 0.0
C5075 C 0.31172 0.53516 0.46882 0.0
H5076 H 0.54889 0.81374 0.47569 0.0
H5077 H 0.60251 0.81359 0.45234 0.0
H5078 H 0.58076 0.85728 0.44632 0.0
H5079 H 0.46361 0.8179 0.4661 0.0
H5080 H 0.46302 0.84802 0.47439 0.0
H5081 H 0.47792 0.81253 0.47639 0.0
H5082 H 0.5434 0.86709 0.48247 0.0
H5083 H 0.52878 0.9026 0.48046 0.0
H5084 H 0.57404 0.90943 0.47626 0.0
H5085 H 0.55978 0.90719 0.4435 0.0
H5086 H 0.54046 0.95764 0.44403 0.0
H5087 H 0.50094 0.92463 0.46932 0.0
C5088 C 0.55522 0.82232 0.46926 0.0
C5089 C 0.57729 0.81062 0.46445 0.0
C5090 C 0.58536 0.82227 0.45607 0.0
C5091 C 0.57308 0.84695 0.45262 0.0
C5092 C 0.55207 0.85884 0.4576 0.0
C5093 C 0.54259 0.84632 0.4657 0.0
C5094 C 0.5216 0.86483 0.46988 0.0
C5095 C 0.47902 0.83398 0.4718 0.0
C5096 C 0.54328 0.88733 0.47772 0.0
C5097 C 0.52343 0.892 0.4631 0.0
C5098 C 0.54016 0.88746 0.45598 0.0
C5099 C 0.54634 0.91068 0.44903 0.0
C5100 C 0.53568 0.93958 0.44941 0.0
C5101 C 0.52005 0.94574 0.45678 0.0
C5102 C 0.51295 0.92083 0.46361 0.0
H5103 H 0.26485 0.77351 0.47644 0.0
H5104 H 0.2781 0.8217 0.4518 0.0
H5105 H 0.2376 0.75502 0.44611 0.0
H5106 H 0.26593 0.68281 0.46959 0.0
H5107 H 0.23163 0.65471 0.47761 0.0
H5108 H 0.26579 0.70572 0.47923 0.0
H5109 H 0.20681 0.71544 0.48268 0.0
H5110 H 0.1732 0.66469 0.48073 0.0
H5111 H 0.16844 0.7015 0.47514 0.0
H5112 H 0.19023 0.68422 0.44343 0.0
H5113 H 0.13975 0.61462 0.44389 0.0
H5114 H 0.15836 0.61246 0.4703 0.0
C5115 C 0.25955 0.7698 0.46983 0.0
C5116 C 0.27421 0.80238 0.46453 0.0
C5117 C 0.26708 0.79683 0.45592 0.0
C5118 C 0.24427 0.75917 0.45265 0.0
C5119 C 0.22971 0.72754 0.45807 0.0
C5120 C 0.23748 0.73243 0.46646 0.0
C5121 C 0.21702 0.69381 0.47099 0.0
C5122 C 0.24691 0.68369 0.47456 0.0
C5123 C 0.18974 0.69389 0.47778 0.0
C5124 C 0.19437 0.66672 0.46394 0.0
C5125 C 0.20277 0.68662 0.45651 0.0
C5126 C 0.18388 0.66826 0.4492 0.0
C5127 C 0.15511 0.62877 0.44953 0.0
C5128 C 0.14496 0.60826 0.45714 0.0
C5129 C 0.16572 0.62727 0.46438 0.0
H5130 H 0.50883 0.61503 0.96978 0.0
H5131 H 0.53031 0.61165 0.94354 0.0
H5132 H 0.55047 0.6814 0.94237 0.0
H5133 H 0.47363 0.68676 0.96814 0.0
H5134 H 0.4967 0.70979 0.97777 0.0
H5135 H 0.47875 0.65844 0.97626 0.0
H5136 H 0.54731 0.66887 0.97976 0.0
H5137 H 0.56561 0.72016 0.98122 0.0
H5138 H 0.58907 0.70398 0.97393 0.0
H5139 H 0.57306 0.75268 0.94427 0.0
H5140 H 0.59977 0.82053 0.94929 0.0
H5141 H 0.56585 0.77769 0.97432 0.0
C5142 C 0.51678 0.62866 0.96374 0.0
C5143 C 0.51797 0.60788 0.95675 0.0
C5144 C 0.52921 0.62701 0.94899 0.0
C5145 C 0.54051 0.66658 0.94825 0.0
C5146 C 0.53994 0.6865 0.95531 0.0
C5147 C 0.52817 0.66814 0.9629 0.0
C5148 C 0.53313 0.69677 0.96966 0.0
C5149 C 0.49318 0.68738 0.97317 0.0
C5150 C 0.56042 0.69749 0.97655 0.0
C5151 C 0.55157 0.73447 0.96478 0.0
C5152 C 0.55415 0.72778 0.95647 0.0
C5153 C 0.57091 0.75824 0.95075 0.0
C5154 C 0.58597 0.79658 0.95364 0.0
C5155 C 0.58492 0.80404 0.96216 0.0
C5156 C 0.56704 0.77257 0.96777 0.0
H5157 H 0.31268 0.82322 0.97494 0.0
H5158 H 0.27543 0.78073 0.94999 0.0
H5159 H 0.33697 0.83603 0.9445 0.0
H5160 H 0.36304 0.9287 0.96938 0.0
H5161 H 0.40101 0.9412 0.97694 0.0
H5162 H 0.35241 0.90113 0.97883 0.0
H5163 H 0.37958 0.85437 0.98101 0.0
H5164 H 0.4283 0.89404 0.97926 0.0
H5165 H 0.40948 0.85036 0.97308 0.0
H5166 H 0.40585 0.89394 0.94196 0.0
H5167 H 0.475 0.94724 0.9427 0.0
H5168 H 0.46613 0.94958 0.96938 0.0
C5169 C 0.31724 0.82603 0.9683 0.0
C5170 C 0.28945 0.79796 0.96287 0.0
C5171 C 0.29626 0.80233 0.95423 0.0
C5172 C 0.33112 0.83356 0.95108 0.0
C5173 C 0.3584 0.86038 0.95664 0.0
C5174 C 0.35151 0.85706 0.96508 0.0
C5175 C 0.38594 0.88841 0.96982 0.0
C5176 C 0.37495 0.91653 0.97399 0.0
C5177 C 0.40175 0.87071 0.97616 0.0
C5178 C 0.41442 0.90831 0.96282 0.0
C5179 C 0.39779 0.89265 0.95522 0.0
C5180 C 0.41899 0.90641 0.94788 0.0
C5181 C 0.45819 0.93654 0.94835 0.0
C5182 C 0.47587 0.95184 0.95611 0.0
C5183 C 0.45348 0.93781 0.96339 0.0
H5184 H 0.14415 0.54985 0.94967 0.0
H5185 H 0.17306 0.61867 0.97217 0.0
H5186 H 0.2313 0.61278 0.97398 0.0
H5187 H 0.16246 0.48197 0.9562 0.0
H5188 H 0.18628 0.47639 0.94721 0.0
H5189 H 0.15382 0.4953 0.946 0.0
H5190 H 0.20562 0.55651 0.93887 0.0
H5191 H 0.2393 0.53846 0.93973 0.0
H5192 H 0.25241 0.58591 0.94377 0.0
H5193 H 0.2788 0.59003 0.97492 0.0
H5194 H 0.31043 0.54968 0.97505 0.0
H5195 H 0.2504 0.49329 0.95235 0.0
C5196 C 0.16335 0.56454 0.95485 0.0
C5197 C 0.15413 0.58519 0.96072 0.0
C5198 C 0.17976 0.60352 0.96747 0.0
C5199 C 0.21312 0.60038 0.96856 0.0
C5200 C 0.2209 0.57906 0.9628 0.0
C5201 C 0.1971 0.56182 0.95601 0.0
C5202 C 0.20979 0.53686 0.9513 0.0
C5203 C 0.17601 0.49503 0.95014 0.0
C5204 C 0.22787 0.55557 0.94292 0.0
C5205 C 0.24058 0.53863 0.95712 0.0
C5206 C 0.2481 0.56487 0.96347 0.0
C5207 C 0.27366 0.56987 0.96991 0.0
C5208 C 0.29125 0.54673 0.96997 0.0
C5209 C 0.28229 0.51832 0.96376 0.0
C5210 C 0.25738 0.51481 0.95717 0.0
H5211 H 0.64615 0.57143 0.55588 0.0
H5212 H 0.58542 0.44581 0.55366 0.0
H5213 H 0.64883 0.44732 0.55372 0.0
H5214 H 0.71593 0.5874 0.54158 0.0
H5215 H 0.75497 0.62973 0.54657 0.0
H5216 H 0.70524 0.61712 0.54829 0.0
H5217 H 0.71579 0.61579 0.56418 0.0
H5218 H 0.7656 0.62796 0.56234 0.0
H5219 H 0.73337 0.58494 0.5682 0.0
H5220 H 0.71887 0.46355 0.55176 0.0
H5221 H 0.78688 0.49296 0.54662 0.0
H5222 H 0.80151 0.60808 0.54957 0.0
C5223 C 0.64612 0.54423 0.55579 0.0
C5224 C 0.61086 0.50849 0.55499 0.0
C5225 C 0.61217 0.47348 0.55441 0.0
C5226 C 0.64806 0.47409 0.55448 0.0
C5227 C 0.68252 0.51003 0.55506 0.0
C5228 C 0.68175 0.54451 0.55567 0.0
C5229 C 0.72239 0.57957 0.55482 0.0
C5230 C 0.72477 0.60492 0.54737 0.0
C5231 C 0.73504 0.60348 0.56287 0.0
C5232 C 0.74602 0.55962 0.55332 0.0
C5233 C 0.72277 0.51947 0.5537 0.0
C5234 C 0.73746 0.49494 0.55164 0.0
C5235 C 0.77619 0.51183 0.54878 0.0
C5236 C 0.7995 0.55274 0.54791 0.0
C5237 C 0.78459 0.5768 0.55047 0.0
H5238 H 0.58104 0.15214 0.54144 0.0
H5239 H 0.54885 0.12222 0.56719 0.0
H5240 H 0.5284 0.17184 0.56794 0.0
H5241 H 0.61602 0.25847 0.54367 0.0
H5242 H 0.5972 0.26044 0.53363 0.0
H5243 H 0.61414 0.22646 0.53552 0.0
H5244 H 0.54716 0.16945 0.53077 0.0
H5245 H 0.5298 0.20297 0.52891 0.0
H5246 H 0.5032 0.16208 0.53577 0.0
H5247 H 0.50672 0.22148 0.56549 0.0
H5248 H 0.48262 0.2639 0.55983 0.0
H5249 H 0.5272 0.25905 0.53565 0.0
C5250 C 0.57056 0.15659 0.5473 0.0
C5251 C 0.56629 0.13312 0.55424 0.0
C5252 C 0.55203 0.13964 0.56177 0.0
C5253 C 0.54063 0.16797 0.56227 0.0
C5254 C 0.54424 0.18992 0.55523 0.0
C5255 C 0.55911 0.18467 0.54791 0.0
C5256 C 0.55726 0.20968 0.54105 0.0
C5257 C 0.59861 0.2406 0.53831 0.0
C5258 C 0.53289 0.18453 0.5337 0.0
C5259 C 0.53704 0.22826 0.54551 0.0
C5260 C 0.5308 0.21746 0.55376 0.0
C5261 C 0.51172 0.23033 0.55907 0.0
C5262 C 0.49813 0.25431 0.55582 0.0
C5263 C 0.50297 0.26431 0.54733 0.0
C5264 C 0.52312 0.25157 0.54216 0.0
H5265 H 0.95513 0.44571 0.55879 0.0
H5266 H 0.91603 0.49274 0.5391 0.0
H5267 H 0.85395 0.43069 0.53834 0.0
H5268 H 0.92782 0.36111 0.55067 0.0
H5269 H 0.9096 0.33036 0.55972 0.0
H5270 H 0.9447 0.38094 0.56087 0.0
H5271 H 0.9012 0.39213 0.57077 0.0
H5272 H 0.865 0.34107 0.57004 0.0
H5273 H 0.85183 0.37762 0.56779 0.0
H5274 H 0.80357 0.36122 0.53755 0.0
H5275 H 0.77058 0.28937 0.53649 0.0
H5276 H 0.84248 0.28667 0.55641 0.0
C5277 C 0.93311 0.44331 0.55447 0.0
C5278 C 0.94065 0.47382 0.54893 0.0
C5279 C 0.91112 0.46956 0.54335 0.0
C5280 C 0.87548 0.43459 0.54295 0.0
C5281 C 0.86956 0.4044 0.54825 0.0
C5282 C 0.89736 0.40856 0.55399 0.0
C5283 C 0.88637 0.37004 0.55808 0.0
C5284 C 0.91904 0.35994 0.55725 0.0
C5285 C 0.87543 0.37023 0.56721 0.0
C5286 C 0.85089 0.34303 0.55303 0.0
C5287 C 0.84039 0.36357 0.54769 0.0
C5288 C 0.81092 0.34483 0.54182 0.0
C5289 C 0.79257 0.30416 0.54122 0.0
C5290 C 0.80459 0.28307 0.54632 0.0
C5291 C 0.83313 0.30254 0.55245 0.0
H5292 H 0.15482 0.6134 0.38548 0.0
H5293 H 0.26397 0.63153 0.37543 0.0
H5294 H 0.29572 0.70162 0.37908 0.0
H5295 H 0.15937 0.69026 0.37693 0.0
H5296 H 0.13827 0.7047 0.38506 0.0
H5297 H 0.12624 0.65479 0.38428 0.0
H5298 H 0.14941 0.65517 0.39919 0.0
H5299 H 0.16028 0.7049 0.40038 0.0
H5300 H 0.19754 0.69242 0.40238 0.0
H5301 H 0.30982 0.77095 0.38031 0.0
H5302 H 0.30745 0.83225 0.38077 0.0
H5303 H 0.18994 0.76864 0.39057 0.0
C5304 C 0.18598 0.6318 0.38455 0.0
C5305 C 0.20734 0.61726 0.38039 0.0
C5306 C 0.24757 0.64219 0.37883 0.0
C5307 C 0.2657 0.68203 0.38084 0.0
C5308 C 0.24316 0.69617 0.38447 0.0
C5309 C 0.20438 0.6715 0.38654 0.0
C5310 C 0.18491 0.69429 0.38922 0.0
C5311 C 0.15016 0.68545 0.38353 0.0
C5312 C 0.1723 0.6862 0.39834 0.0
C5313 C 0.21814 0.73559 0.38804 0.0
C5314 C 0.25158 0.73622 0.38531 0.0
C5315 C 0.28421 0.77083 0.38271 0.0
C5316 C 0.28251 0.80548 0.38292 0.0
C5317 C 0.24861 0.80535 0.38579 0.0
C5318 C 0.21648 0.76998 0.38852 0.0
H5319 H 0.462 0.5757 0.39265 0.0
H5320 H 0.45856 0.64464 0.37221 0.0
H5321 H 0.38649 0.6109 0.3732 0.0
H5322 H 0.38688 0.48901 0.38712 0.0
H5323 H 0.36817 0.47374 0.39747 0.0
H5324 H 0.41871 0.50862 0.396 0.0
H5325 H 0.40873 0.55416 0.40612 0.0
H5326 H 0.35768 0.5182 0.40712 0.0
H5327 H 0.37196 0.5671 0.40387 0.0
H5328 H 0.31597 0.56091 0.37448 0.0
H5329 H 0.25326 0.49967 0.37593 0.0
H5330 H 0.30239 0.4634 0.39571 0.0
C5331 C 0.44598 0.5843 0.38855 0.0
C5332 C 0.46547 0.61241 0.38234 0.0
C5333 C 0.44395 0.62322 0.37705 0.0
C5334 C 0.40309 0.60435 0.37759 0.0
C5335 C 0.38448 0.5755 0.38359 0.0
C5336 C 0.40534 0.56612 0.38909 0.0
C5337 C 0.37851 0.53129 0.39433 0.0
C5338 C 0.3888 0.49877 0.39364 0.0
C5339 C 0.37926 0.54344 0.4034 0.0
C5340 C 0.33964 0.51979 0.39032 0.0
C5341 C 0.34348 0.54654 0.38435 0.0
C5342 C 0.31246 0.5402 0.37924 0.0
C5343 C 0.27702 0.50512 0.38007 0.0
C5344 C 0.27307 0.47651 0.38587 0.0
C5345 C 0.30441 0.4847 0.39125 0.0
H5346 H 0.5147 0.93081 0.39127 0.0
H5347 H 0.44697 0.86149 0.37037 0.0
H5348 H 0.4809 0.8233 0.37104 0.0
H5349 H 0.6031 0.94221 0.38636 0.0
H5350 H 0.61531 0.93608 0.39682 0.0
H5351 H 0.58142 0.95282 0.3951 0.0
H5352 H 0.53322 0.89527 0.40456 0.0
H5353 H 0.56823 0.87897 0.40562 0.0
H5354 H 0.51984 0.846 0.40179 0.0
H5355 H 0.5302 0.80175 0.37231 0.0
H5356 H 0.58959 0.79724 0.37416 0.0
H5357 H 0.62508 0.87938 0.39457 0.0
C5358 C 0.5065 0.90695 0.38698 0.0
C5359 C 0.47855 0.89918 0.38073 0.0
C5360 C 0.46825 0.86774 0.37521 0.0
C5361 C 0.48727 0.84585 0.37557 0.0
C5362 C 0.51575 0.85512 0.38163 0.0
C5363 C 0.52468 0.88435 0.38736 0.0
C5364 C 0.55833 0.89037 0.39285 0.0
C5365 C 0.5915 0.933 0.39273 0.0
C5366 C 0.54404 0.87683 0.40173 0.0
C5367 C 0.57007 0.86342 0.38869 0.0
C5368 C 0.5441 0.8422 0.38244 0.0
C5369 C 0.55029 0.81766 0.37728 0.0
C5370 C 0.58434 0.81551 0.37835 0.0
C5371 C 0.61224 0.83817 0.38447 0.0
C5372 C 0.6043 0.86152 0.38987 0.0
H5373 H 0.11594 0.86887 0.78368 0.0
H5374 H 0.16603 0.95021 0.80416 0.0
H5375 H 0.10237 0.94512 0.80677 0.0
H5376 H 0.04455 0.90376 0.77743 0.0
H5377 H 1.00787 0.85494 0.77456 0.0
H5378 H 0.05894 0.8706 0.77325 0.0
H5379 H 0.04914 0.81258 0.78178 0.0
H5380 H 0.99861 0.79633 0.78362 0.0
H5381 H 0.031 0.80579 0.79228 0.0
H5382 H 0.03156 0.92416 0.80851 0.0
H5383 H 0.95933 0.88769 0.80929 0.0
H5384 H 0.9547 0.82004 0.78779 0.0
C5385 C 0.11376 0.88636 0.78858 0.0
C5386 C 0.14609 0.9097 0.79375 0.0
C5387 C 0.1418 0.93192 0.80013 0.0
C5388 C 0.10572 0.92947 0.80163 0.0
C5389 C 0.07413 0.90527 0.79661 0.0
C5390 C 0.07789 0.88457 0.79012 0.0
C5391 C 0.03856 0.85837 0.78609 0.0
C5392 C 0.03742 0.87279 0.77731 0.0
C5393 C 0.02869 0.81565 0.78597 0.0
C5394 C 0.01187 0.86448 0.79185 0.0
C5395 C 0.03306 0.8929 0.79767 0.0
C5396 C 0.01471 0.90227 0.8039 0.0
C5397 C 0.97371 0.8814 0.80431 0.0
C5398 C 0.95161 0.85094 0.79863 0.0
C5399 C 0.97101 0.8431 0.79222 0.0
H5400 H 0.27307 0.1812 0.78786 0.0
H5401 H 0.18594 0.10083 0.805 0.0
H5402 H 0.14837 0.13527 0.8033 0.0
H5403 H 0.27777 0.26188 0.79543 0.0
H5404 H 0.28467 0.28572 0.7856 0.0
H5405 H 0.2993 0.25009 0.78683 0.0
H5406 H 0.25576 0.21285 0.77422 0.0
H5407 H 0.24199 0.24971 0.77313 0.0
H5408 H 0.20486 0.19917 0.77422 0.0
H5409 H 0.12897 0.18686 0.80199 0.0
H5410 H 0.12764 0.24833 0.80079 0.0
H5411 H 0.22664 0.29395 0.78408 0.0
C5412 C 0.24536 0.17018 0.79102 0.0
C5413 C 0.23228 0.13876 0.79656 0.0
C5414 C 0.1962 0.12496 0.80069 0.0
C5415 C 0.17468 0.14423 0.79974 0.0
C5416 C 0.18936 0.17652 0.79448 0.0
C5417 C 0.22345 0.1887 0.79004 0.0
C5418 C 0.23604 0.22688 0.7857 0.0
C5419 C 0.27693 0.2579 0.7886 0.0
C5420 C 0.23454 0.22182 0.77625 0.0
C5421 C 0.20507 0.23577 0.7887 0.0
C5422 C 0.17799 0.20606 0.79366 0.0
C5423 C 0.14944 0.20981 0.79795 0.0
C5424 C 0.14908 0.24498 0.79727 0.0
C5425 C 0.17709 0.27607 0.79236 0.0
C5426 C 0.20462 0.27076 0.78783 0.0
H5427 H 0.91674 0.13051 0.78804 0.0
H5428 H 0.98449 0.12402 0.80837 0.0
H5429 H 0.95105 0.05214 0.80683 0.0
H5430 H 0.83026 0.05485 0.79274 0.0
H5431 H 0.81562 0.03724 0.7823 0.0
H5432 H 0.85048 0.08755 0.78403 0.0
H5433 H 0.89756 0.07945 0.77403 0.0
H5434 H 0.86167 0.02866 0.77263 0.0
H5435 H 0.91023 0.04237 0.77608 0.0
H5436 H 0.89992 0.98201 0.80527 0.0
H5437 H 0.83821 0.91991 0.8034 0.0
H5438 H 0.8057 0.97179 0.78352 0.0
C5439 C 0.92526 0.11384 0.79196 0.0
C5440 C 0.95271 0.13223 0.79834 0.0
C5441 C 0.96342 0.11007 0.80344 0.0
C5442 C 0.94475 0.06938 0.80257 0.0
C5443 C 0.91638 0.0517 0.79642 0.0
C5444 C 0.90749 0.07339 0.79106 0.0
C5445 C 0.87325 0.04739 0.78557 0.0
C5446 C 0.84049 0.05745 0.78624 0.0
C5447 C 0.88649 0.0496 0.77654 0.0
C5448 C 0.86139 0.00797 0.78931 0.0
C5449 C 0.88739 0.01085 0.79538 0.0
C5450 C 0.87996 0.97919 0.80039 0.0
C5451 C 0.84467 0.9441 0.79932 0.0
C5452 C 0.81709 0.94102 0.79334 0.0
C5453 C 0.82634 0.97303 0.78809 0.0
H5454 H 0.21313 0.96305 0.28308 0.0
H5455 H 0.13039 0.91495 0.30335 0.0
H5456 H 0.1338 0.97822 0.30524 0.0
H5457 H 0.27463 0.04616 0.29134 0.0
H5458 H 0.28572 0.07929 0.28276 0.0
H5459 H 0.26858 0.0288 0.28079 0.0
H5460 H 0.21172 0.01975 0.27205 0.0
H5461 H 0.22835 0.07101 0.27328 0.0
H5462 H 0.1789 0.03517 0.27596 0.0
H5463 H 0.15509 0.04871 0.30673 0.0
H5464 H 0.19353 0.12073 0.30769 0.0
H5465 H 0.26366 0.12397 0.28679 0.0
C5466 C 0.19478 0.96549 0.28773 0.0
C5467 C 0.17173 0.93406 0.2931 0.0
C5468 C 0.14844 0.93861 0.29918 0.0
C5469 C 0.14993 0.97443 0.30027 0.0
C5470 C 0.17436 1.00542 0.29515 0.0
C5471 C 0.19585 1.00118 0.28889 0.0
C5472 C 0.22309 0.04022 0.28489 0.0
C5473 C 0.26562 0.04922 0.28499 0.0
C5474 C 0.2097 0.04161 0.27602 0.0
C5475 C 0.21702 0.06729 0.29051 0.0
C5476 C 0.18735 0.04656 0.29612 0.0
C5477 C 0.1779 0.06523 0.30226 0.0
C5478 C 0.19992 0.10606 0.30279 0.0
C5479 C 0.2316 0.12757 0.29735 0.0
C5480 C 0.2396 0.10798 0.29103 0.0
H5481 H 0.10787 0.29548 0.28622 0.0
H5482 H 0.16679 0.23573 0.29544 0.0
H5483 H 0.1036 0.17404 0.29603 0.0
H5484 H 0.03227 0.25301 0.3 0.0
H5485 H 0.99502 0.25033 0.29312 0.0
H5486 H 0.04499 0.28647 0.29151 0.0
H5487 H 0.04175 0.26258 0.27651 0.0
H5488 H 0.99145 0.22553 0.27807 0.0
H5489 H 0.02651 0.212 0.27468 0.0
H5490 H 0.03303 0.12149 0.29775 0.0
H5491 H 0.96277 0.08576 0.30151 0.0
H5492 H 0.95004 0.18085 0.29196 0.0
C5493 C 0.1077 0.26927 0.28812 0.0
C5494 C 0.1424 0.27041 0.29071 0.0
C5495 C 0.14061 0.23548 0.29338 0.0
C5496 C 0.10483 0.20023 0.29368 0.0
C5497 C 0.07088 0.20034 0.29136 0.0
C5498 C 0.07207 0.23409 0.28866 0.0
C5499 C 0.03124 0.22811 0.2878 0.0
C5500 C 0.02552 0.25608 0.29346 0.0
C5501 C 0.0222 0.23229 0.27872 0.0
C5502 C 1.00701 0.18647 0.29076 0.0
C5503 C 0.03022 0.17043 0.29258 0.0
C5504 C 0.01459 0.13358 0.29621 0.0
C5505 C 0.97472 0.11347 0.29833 0.0
C5506 C 0.9513 0.13068 0.29696 0.0
C5507 C 0.96741 0.16698 0.29292 0.0
H5508 H 0.91705 0.8219 0.29713 0.0
H5509 H 0.01261 0.94086 0.298 0.0
H5510 H 0.96786 0.96448 0.29373 0.0
H5511 H 0.85808 0.83606 0.27978 0.0
H5512 H 0.81399 0.80225 0.28509 0.0
H5513 H 0.856 0.79615 0.2856 0.0
H5514 H 0.85021 0.79569 0.30161 0.0
H5515 H 0.80999 0.8046 0.30108 0.0
H5516 H 0.85333 0.83757 0.30677 0.0
H5517 H 0.91019 0.97513 0.2933 0.0
H5518 H 0.84575 0.97143 0.29419 0.0
H5519 H 0.78836 0.84541 0.29345 0.0
C5520 C 0.92884 0.85267 0.29588 0.0
C5521 C 0.96812 0.87962 0.29766 0.0
C5522 C 0.98265 0.91989 0.29642 0.0
C5523 C 0.95736 0.93349 0.29407 0.0
C5524 C 0.91786 0.90626 0.29299 0.0
C5525 C 0.90391 0.86656 0.29362 0.0
C5526 C 0.85984 0.84355 0.29326 0.0
C5527 C 0.84622 0.81804 0.28546 0.0
C5528 C 0.84237 0.81894 0.30115 0.0
C5529 C 0.85094 0.87645 0.29278 0.0
C5530 C 0.8847 0.91246 0.29259 0.0
C5531 C 0.88358 0.94709 0.29318 0.0
C5532 C 0.84702 0.94476 0.29382 0.0
C5533 C 0.81229 0.90811 0.29382 0.0
C5534 C 0.81442 0.87372 0.29326 0.0
H5535 H 0.31112 0.89498 0.8909 0.0
H5536 H 0.24834 0.7722 0.88487 0.0
H5537 H 0.31059 0.77155 0.88468 0.0
H5538 H 0.38641 0.92025 0.87751 0.0
H5539 H 0.42364 0.95701 0.88406 0.0
H5540 H 0.37385 0.94486 0.88522 0.0
H5541 H 0.37663 0.92977 0.90082 0.0
H5542 H 0.42667 0.94163 0.89951 0.0
H5543 H 0.39113 0.89482 0.90364 0.0
H5544 H 0.38018 0.78728 0.88279 0.0
H5545 H 0.44947 0.81874 0.87842 0.0
H5546 H 0.46658 0.93095 0.88599 0.0
C5547 C 0.31023 0.86779 0.88979 0.0
C5548 C 0.27491 0.83381 0.88777 0.0
C5549 C 0.27526 0.7988 0.88621 0.0
C5550 C 0.31042 0.79806 0.88624 0.0
C5551 C 0.34504 0.83254 0.88798 0.0
C5552 C 0.34511 0.86676 0.88976 0.0
C5553 C 0.38633 0.90103 0.89027 0.0
C5554 C 0.39295 0.93261 0.88388 0.0
C5555 C 0.39575 0.9178 0.89909 0.0
C5556 C 0.40941 0.88127 0.88808 0.0
C5557 C 0.38524 0.84153 0.88698 0.0
C5558 C 0.39949 0.81813 0.88386 0.0
C5559 C 0.43886 0.83611 0.88143 0.0
C5560 C 0.46316 0.87698 0.88209 0.0
C5561 C 0.44868 0.89946 0.88574 0.0
H5562 H 0.25488 0.64408 0.88553 0.0
H5563 H 0.14524 0.59243 0.87211 0.0
H5564 H 0.13881 0.52744 0.87356 0.0
H5565 H 0.29261 0.59289 0.87708 0.0
H5566 H 0.31361 0.58469 0.88623 0.0
H5567 H 0.30665 0.62619 0.8857 0.0
H5568 H 0.26519 0.60445 0.8991 0.0
H5569 H 0.27301 0.5634 0.89983 0.0
H5570 H 0.22403 0.55564 0.89983 0.0
H5571 H 0.15273 0.47331 0.87323 0.0
H5572 H 0.17872 0.42823 0.87399 0.0
H5573 H 0.27486 0.51094 0.88915 0.0
C5574 C 0.22903 0.6188 0.88313 0.0
C5575 C 0.20065 0.623 0.87866 0.0
C5576 C 0.16714 0.5896 0.87558 0.0
C5577 C 0.16329 0.55266 0.87637 0.0
C5578 C 0.19272 0.54967 0.88044 0.0
C5579 C 0.22426 0.58152 0.88405 0.0
C5580 C 0.25274 0.57042 0.88769 0.0
C5581 C 0.29382 0.59501 0.88394 0.0
C5582 C 0.25379 0.57366 0.89718 0.0
C5583 C 0.23383 0.52826 0.88495 0.0
C5584 C 0.19915 0.51694 0.8808 0.0
C5585 C 0.17888 0.48117 0.87677 0.0
C5586 C 0.19381 0.45583 0.8772 0.0
C5587 C 0.22791 0.46596 0.88179 0.0
C5588 C 0.24834 0.50259 0.8857 0.0
H5589 H 0.50357 0.63684 0.86619 0.0
H5590 H 0.43575 0.60049 0.88883 0.0
H5591 H 0.48647 0.66074 0.89577 0.0
H5592 H 0.60049 0.68718 0.87519 0.0
H5593 H 0.61838 0.72546 0.8675 0.0
H5594 H 0.58018 0.67699 0.86493 0.0
H5595 H 0.53587 0.704 0.86027 0.0
H5596 H 0.57379 0.75266 0.86276 0.0
H5597 H 0.52602 0.73335 0.86733 0.0
H5598 H 0.54387 0.72996 0.89971 0.0
H5599 H 0.59762 0.79921 0.89989 0.0
H5600 H 0.62163 0.78974 0.87418 0.0
C5601 C 0.49936 0.64116 0.87264 0.0
C5602 C 0.46548 0.61388 0.87694 0.0
C5603 C 0.46165 0.62064 0.88542 0.0
C5604 C 0.49025 0.65496 0.88939 0.0
C5605 C 0.52241 0.68216 0.88479 0.0
C5606 C 0.52678 0.67536 0.87658 0.0
C5607 C 0.56129 0.71003 0.87263 0.0
C5608 C 0.59199 0.69933 0.86991 0.0
C5609 C 0.54844 0.72593 0.86532 0.0
C5610 C 0.57546 0.73819 0.87982 0.0
C5611 C 0.55339 0.72161 0.88687 0.0
C5612 C 0.56111 0.74301 0.89421 0.0
C5613 C 0.59152 0.7823 0.89426 0.0
C5614 C 0.61287 0.79996 0.88695 0.0
C5615 C 0.605 0.77729 0.87975 0.0
H5616 H 0.83757 0.95631 0.72503 0.0
H5617 H 0.87074 0.94506 0.7001 0.0
H5618 H 0.90751 0.01697 0.69869 0.0
H5619 H 0.81867 0.02804 0.72234 0.0
H5620 H 0.84106 0.05514 0.73172 0.0
H5621 H 0.82402 1.00387 0.73128 0.0
H5622 H 0.89297 0.01813 0.73553 0.0
H5623 H 0.90934 0.06957 0.73593 0.0
H5624 H 0.93483 0.05209 0.72957 0.0
H5625 H 0.92667 0.08715 0.69891 0.0
H5626 H 0.93436 0.15207 0.70123 0.0
H5627 H 0.89318 0.11941 0.72646 0.0
C5628 C 0.85358 0.96927 0.71938 0.0
C5629 C 0.85118 0.94563 0.71263 0.0
C5630 C 0.87232 0.96302 0.70531 0.0
C5631 C 0.89334 1.00372 0.70448 0.0
C5632 C 0.89382 0.02641 0.71113 0.0
C5633 C 0.87563 0.00988 0.71855 0.0
C5634 C 0.87849 0.04066 0.72453 0.0
C5635 C 0.83804 0.03131 0.72763 0.0
C5636 C 0.90554 0.04539 0.73181 0.0
C5637 C 0.89689 0.07631 0.71898 0.0
C5638 C 0.9066 0.06766 0.71136 0.0
C5639 C 0.92045 0.09468 0.70493 0.0
C5640 C 0.92463 0.13152 0.70631 0.0
C5641 C 0.9152 0.14125 0.71408 0.0
C5642 C 0.90131 0.11317 0.7205 0.0
H5643 H 0.95967 0.82618 0.72881 0.0
H5644 H 0.95267 0.76975 0.70546 0.0
H5645 H 0.02255 0.81487 0.70295 0.0
H5646 H 0.02005 0.92124 0.72189 0.0
H5647 H 0.04881 0.9392 0.7312 0.0
H5648 H 0.99964 0.89881 0.73173 0.0
H5649 H 0.02472 0.85689 0.7389 0.0
H5650 H 0.07414 0.89722 0.73835 0.0
H5651 H 0.06211 0.85062 0.73397 0.0
H5652 H 0.09156 0.86945 0.70234 0.0
H5653 H 0.15275 0.93301 0.7031 0.0
H5654 H 0.11617 0.95591 0.72674 0.0
C5655 C 0.97317 0.82315 0.72324 0.0
C5656 C 0.95064 0.79496 0.7172 0.0
C5657 C 0.96909 0.79204 0.70997 0.0
C5658 C 1.00901 0.81708 0.70859 0.0
C5659 C 0.0304 0.8452 0.71453 0.0
C5660 C 0.01319 0.84855 0.72171 0.0
C5661 C 0.04201 0.88392 0.72666 0.0
C5662 C 0.02671 0.91247 0.72794 0.0
C5663 C 0.0513 0.87141 0.73497 0.0
C5664 C 0.07724 0.90082 0.72094 0.0
C5665 C 0.0703 0.87734 0.7141 0.0
C5666 C 0.0976 0.88785 0.70773 0.0
C5667 C 0.1324 0.92393 0.70823 0.0
C5668 C 0.13932 0.94935 0.71498 0.0
C5669 C 0.11174 0.93699 0.72151 0.0
H5670 H 0.25016 0.15583 0.72523 0.0
H5671 H 0.3136 0.21567 0.70313 0.0
H5672 H 0.2709 0.24386 0.7013 0.0
H5673 H 0.1561 0.12996 0.71764 0.0
H5674 H 0.13812 0.13689 0.72737 0.0
H5675 H 0.1757 0.12396 0.72726 0.0
H5676 H 0.22068 0.18522 0.73611 0.0
H5677 H 0.18242 0.19745 0.73629 0.0
H5678 H 0.23038 0.23249 0.73262 0.0
H5679 H 0.22161 0.26563 0.70187 0.0
H5680 H 0.16045 0.26801 0.70303 0.0
H5681 H 0.1272 0.19243 0.72449 0.0
C5682 C 0.25465 0.17459 0.71997 0.0
C5683 C 0.28419 0.18253 0.71412 0.0
C5684 C 0.28971 0.20744 0.70738 0.0
C5685 C 0.26632 0.22453 0.70645 0.0
C5686 C 0.23764 0.21649 0.71235 0.0
C5687 C 0.23117 0.19149 0.7189 0.0
C5688 C 0.19605 0.18484 0.72393 0.0
C5689 C 0.16464 0.14134 0.72405 0.0
C5690 C 0.20813 0.20095 0.73276 0.0
C5691 C 0.18302 0.20889 0.719 0.0
C5692 C 0.20831 0.22811 0.71254 0.0
C5693 C 0.20165 0.25092 0.70693 0.0
C5694 C 0.16708 0.2524 0.70767 0.0
C5695 C 0.13949 0.23057 0.71386 0.0
C5696 C 0.14822 0.20973 0.71977 0.0
H5697 H 0.7893 0.20034 0.13677 0.0
H5698 H 0.81641 0.25301 0.11243 0.0
H5699 H 0.75026 0.24558 0.11158 0.0
H5700 H 0.68785 0.12867 0.13165 0.0
H5701 H 0.6687 0.12991 0.1417 0.0
H5702 H 0.71779 0.13864 0.14077 0.0
H5703 H 0.74696 0.20506 0.14796 0.0
H5704 H 0.69836 0.19676 0.14955 0.0
H5705 H 0.73427 0.24045 0.14437 0.0
H5706 H 0.68199 0.23688 0.1141 0.0
H5707 H 0.6182 0.22544 0.11952 0.0
H5708 H 0.63541 0.17523 0.14179 0.0
C5709 C 0.78117 0.2102 0.13126 0.0
C5710 C 0.80792 0.22775 0.1247 0.0
C5711 C 0.79619 0.2396 0.11752 0.0
C5712 C 0.75871 0.23542 0.11699 0.0
C5713 C 0.73295 0.21822 0.1236 0.0
C5714 C 0.74357 0.2052 0.13054 0.0
C5715 C 0.71062 0.18747 0.13678 0.0
C5716 C 0.69533 0.14355 0.13777 0.0
C5717 C 0.72333 0.20874 0.14516 0.0
C5718 C 0.6806 0.19454 0.13253 0.0
C5719 C 0.69361 0.21181 0.12487 0.0
C5720 C 0.67129 0.22262 0.12001 0.0
C5721 C 0.63506 0.21587 0.1231 0.0
C5722 C 0.62171 0.19864 0.13097 0.0
C5723 C 0.64468 0.18763 0.13567 0.0
H5724 H 0.92479 0.50126 0.1181 0.0
H5725 H 0.85403 0.43416 0.13891 0.0
H5726 H 0.81796 0.4703 0.13836 0.0
H5727 H 0.93939 0.59034 0.12357 0.0
H5728 H 0.93482 0.60475 0.11321 0.0
H5729 H 0.94983 0.56933 0.11469 0.0
H5730 H 0.89249 0.52311 0.10499 0.0
H5731 H 0.87782 0.55936 0.10398 0.0
H5732 H 0.84332 0.51101 0.10756 0.0
H5733 H 0.79866 0.52149 0.13719 0.0
H5734 H 0.79656 0.58215 0.1354 0.0
H5735 H 0.87881 0.6156 0.11506 0.0
C5736 C 0.90102 0.49361 0.1224 0.0
C5737 C 0.89218 0.4651 0.12856 0.0
C5738 C 0.86098 0.45571 0.1341 0.0
C5739 C 0.84034 0.47606 0.13382 0.0
C5740 C 0.85068 0.50502 0.12784 0.0
C5741 C 0.87979 0.51322 0.12212 0.0
C5742 C 0.8874 0.54768 0.11675 0.0
C5743 C 0.93049 0.57991 0.11711 0.0
C5744 C 0.87448 0.53449 0.10779 0.0
C5745 C 0.86097 0.56017 0.12088 0.0
C5746 C 0.83906 0.53435 0.12708 0.0
C5747 C 0.81505 0.54141 0.13224 0.0
C5748 C 0.81418 0.57613 0.13119 0.0
C5749 C 0.83747 0.60374 0.12509 0.0
C5750 C 0.86028 0.59496 0.11971 0.0
H5751 H 0.57859 0.4576 0.12119 0.0
H5752 H 0.65565 0.45434 0.13982 0.0
H5753 H 0.62358 0.38266 0.13829 0.0
H5754 H 0.4961 0.38106 0.1277 0.0
H5755 H 0.4764 0.36252 0.11758 0.0
H5756 H 0.51072 0.41322 0.11884 0.0
H5757 H 0.55294 0.40616 0.10739 0.0
H5758 H 0.51736 0.35504 0.10639 0.0
H5759 H 0.56771 0.37006 0.10852 0.0
H5760 H 0.57451 0.31192 0.13699 0.0
H5761 H 0.51432 0.24848 0.1358 0.0
H5762 H 0.46888 0.29696 0.11784 0.0
C5763 C 0.58935 0.44177 0.12476 0.0
C5764 C 0.61924 0.46118 0.13065 0.0
C5765 C 0.63281 0.43986 0.13524 0.0
C5766 C 0.61488 0.39921 0.13439 0.0
C5767 C 0.5841 0.38059 0.12878 0.0
C5768 C 0.57209 0.40134 0.1239 0.0
C5769 C 0.53547 0.37438 0.11914 0.0
C5770 C 0.5028 0.38349 0.12097 0.0
C5771 C 0.5439 0.37654 0.1098 0.0
C5772 C 0.52641 0.33531 0.12267 0.0
C5773 C 0.55558 0.33944 0.12801 0.0
C5774 C 0.55199 0.30824 0.13267 0.0
C5775 C 0.51746 0.27221 0.13199 0.0
C5776 C 0.4866 0.26743 0.12676 0.0
C5777 C 0.49178 0.29936 0.12188 0.0
H5778 H 0.88241 0.30911 0.61731 0.0
H5779 H 0.80394 0.26213 0.63818 0.0
H5780 H 0.80084 0.32193 0.63925 0.0
H5781 H 0.93997 0.39435 0.62735 0.0
H5782 H 0.95441 0.42718 0.61861 0.0
H5783 H 0.93993 0.37706 0.61701 0.0
H5784 H 0.88816 0.36753 0.60657 0.0
H5785 H 0.9017 0.41805 0.60777 0.0
H5786 H 0.8517 0.38022 0.60931 0.0
H5787 H 0.81163 0.38833 0.63946 0.0
H5788 H 0.84878 0.45972 0.64145 0.0
H5789 H 0.92982 0.46973 0.62232 0.0
C5790 C 0.86367 0.311 0.62194 0.0
C5791 C 0.84052 0.27902 0.62724 0.0
C5792 C 0.81855 0.28406 0.63353 0.0
C5793 C 0.81714 0.31851 0.63425 0.0
C5794 C 0.8395 0.34908 0.62889 0.0
C5795 C 0.86348 0.34628 0.62302 0.0
C5796 C 0.89135 0.38628 0.61943 0.0
C5797 C 0.93403 0.39695 0.62072 0.0
C5798 C 0.88268 0.38812 0.61022 0.0
C5799 C 0.88105 0.41191 0.6246 0.0
C5800 C 0.84944 0.38949 0.62966 0.0
C5801 C 0.83615 0.40624 0.63547 0.0
C5802 C 0.85726 0.44679 0.63655 0.0
C5803 C 0.8917 0.46988 0.63197 0.0
C5804 C 0.9029 0.45252 0.62571 0.0
H5805 H 0.81184 0.58276 0.63542 0.0
H5806 H 0.80501 0.62394 0.61104 0.0
H5807 H 0.73467 0.57477 0.6103 0.0
H5808 H 0.7363 0.47554 0.63109 0.0
H5809 H 0.71811 0.46899 0.64154 0.0
H5810 H 0.76903 0.50241 0.63944 0.0
H5811 H 0.76322 0.55783 0.64663 0.0
H5812 H 0.71239 0.52489 0.64867 0.0
H5813 H 0.72701 0.56946 0.64305 0.0
H5814 H 0.66358 0.52739 0.61308 0.0
H5815 H 0.59778 0.48598 0.61915 0.0
H5816 H 0.65063 0.47559 0.64176 0.0
C5817 C 0.7958 0.57999 0.62979 0.0
C5818 C 0.81361 0.60665 0.62323 0.0
C5819 C 0.79165 0.60353 0.61608 0.0
C5820 C 0.75179 0.57556 0.6156 0.0
C5821 C 0.73452 0.55041 0.62229 0.0
C5822 C 0.75598 0.5519 0.6292 0.0
C5823 C 0.72979 0.52396 0.63583 0.0
C5824 C 0.73884 0.49076 0.63705 0.0
C5825 C 0.73332 0.54534 0.64402 0.0
C5826 C 0.69002 0.50889 0.63186 0.0
C5827 C 0.69344 0.52351 0.62394 0.0
C5828 C 0.6606 0.5152 0.61921 0.0
C5829 C 0.62341 0.49174 0.62269 0.0
C5830 C 0.61943 0.47757 0.63086 0.0
C5831 C 0.65311 0.48584 0.63545 0.0
H5832 H 0.62307 0.21455 0.61819 0.0
H5833 H 0.59218 0.14522 0.64056 0.0
H5834 H 0.52895 0.14349 0.641 0.0
H5835 H 0.58865 0.27319 0.62315 0.0
H5836 H 0.56743 0.2747 0.61337 0.0
H5837 H 0.60666 0.26413 0.61363 0.0
H5838 H 0.56429 0.1992 0.60579 0.0
H5839 H 0.52507 0.20999 0.60531 0.0
H5840 H 0.51658 0.16459 0.60972 0.0
H5841 H 0.48112 0.166 0.64137 0.0
H5842 H 0.44032 0.19656 0.6396 0.0
H5843 H 0.49379 0.24194 0.61575 0.0
C5844 C 0.60194 0.19732 0.6229 0.0
C5845 C 0.61184 0.17946 0.62928 0.0
C5846 C 0.58447 0.1583 0.63555 0.0
C5847 C 0.54867 0.15736 0.63586 0.0
C5848 C 0.54035 0.17681 0.62972 0.0
C5849 C 0.56533 0.19501 0.62314 0.0
C5850 C 0.55007 0.21568 0.61767 0.0
C5851 C 0.57999 0.25951 0.61692 0.0
C5852 C 0.5383 0.19619 0.60912 0.0
C5853 C 0.51447 0.20879 0.62257 0.0
C5854 C 0.50966 0.1865 0.62953 0.0
C5855 C 0.48325 0.18182 0.63575 0.0
C5856 C 0.4605 0.19952 0.63474 0.0
C5857 C 0.46328 0.22035 0.62744 0.0
C5858 C 0.49039 0.22491 0.62125 0.0
H5859 H 0.97718 0.23131 0.218 0.0
H5860 H 0.91907 0.10629 0.22125 0.0
H5861 H 0.9835 0.10954 0.22098 0.0
H5862 H 0.05138 0.24854 0.20522 0.0
H5863 H 0.08702 0.29211 0.21049 0.0
H5864 H 0.03615 0.27677 0.2112 0.0
H5865 H 0.04258 0.2757 0.22772 0.0
H5866 H 0.0936 0.29206 0.22622 0.0
H5867 H 0.06313 0.24839 0.23208 0.0
H5868 H 0.05627 0.12829 0.21749 0.0
H5869 H 0.12602 0.16038 0.21319 0.0
H5870 H 0.13384 0.27317 0.21508 0.0
C5871 C 0.97759 0.20458 0.21884 0.0
C5872 C 0.94263 0.16831 0.21919 0.0
C5873 C 0.94526 0.13424 0.22046 0.0
C5874 C 0.98184 0.13593 0.22047 0.0
C5875 C 0.0157 0.17231 0.2197 0.0
C5876 C 0.0136 0.20608 0.21929 0.0
C5877 C 0.05364 0.24179 0.21865 0.0
C5878 C 0.05726 0.26623 0.21094 0.0
C5879 C 0.06393 0.26598 0.22664 0.0
C5880 C 0.07843 0.22305 0.21787 0.0
C5881 C 0.05662 0.18293 0.21861 0.0
C5882 C 0.07357 0.15977 0.21715 0.0
C5883 C 0.11323 0.17822 0.21472 0.0
C5884 C 0.13526 0.21934 0.21373 0.0
C5885 C 0.11775 0.24171 0.2157 0.0
H5886 H 0.88288 0.956 0.22568 0.0
H5887 H 0.8193 0.92441 0.20249 0.0
H5888 H 0.82134 0.86314 0.20221 0.0
H5889 H 0.94696 0.92773 0.22178 0.0
H5890 H 0.9468 0.90554 0.23153 0.0
H5891 H 0.9331 0.94252 0.23115 0.0
H5892 H 0.86683 0.89588 0.23799 0.0
H5893 H 0.88 0.85838 0.23856 0.0
H5894 H 0.83541 0.84863 0.23349 0.0
H5895 H 0.84488 0.8162 0.20253 0.0
H5896 H 0.87446 0.77555 0.20513 0.0
H5897 H 0.91921 0.83255 0.22863 0.0
C5898 C 0.86771 0.9351 0.22078 0.0
C5899 C 0.85061 0.94455 0.21412 0.0
C5900 C 0.83184 0.91726 0.2077 0.0
C5901 C 0.83311 0.88255 0.20747 0.0
C5902 C 0.85224 0.87512 0.21385 0.0
C5903 C 0.86774 0.89965 0.22059 0.0
C5904 C 0.88858 0.88554 0.22636 0.0
C5905 C 0.9314 0.91723 0.22778 0.0
C5906 C 0.86639 0.87126 0.23459 0.0
C5907 C 0.88566 0.85165 0.22139 0.0
C5908 C 0.86432 0.84619 0.21423 0.0
C5909 C 0.86097 0.81974 0.20818 0.0
C5910 C 0.87892 0.79754 0.20958 0.0
C5911 C 0.90005 0.80164 0.2169 0.0
C5912 C 0.90313 0.82881 0.22296 0.0
H5913 H 0.1523 0.97037 0.20129 0.0
H5914 H 0.10732 0.94185 0.22629 0.0
H5915 H 0.16342 1.00382 0.23133 0.0
H5916 H 0.25801 0.01944 0.20765 0.0
H5917 H 0.27285 0.05511 0.19949 0.0
H5918 H 0.2319 0.00667 0.19797 0.0
H5919 H 0.18772 0.03543 0.1943 0.0
H5920 H 0.22821 0.08398 0.19575 0.0
H5921 H 0.18358 0.06812 0.20147 0.0
H5922 H 0.22137 0.07123 0.23336 0.0
H5923 H 0.27721 0.13852 0.23231 0.0
H5924 H 0.28363 0.12332 0.20589 0.0
C5925 C 0.15496 0.97693 0.20785 0.0
C5926 C 0.12603 0.95156 0.21345 0.0
C5927 C 0.12974 0.9609 0.22197 0.0
C5928 C 0.16138 0.99596 0.22486 0.0
C5929 C 0.18918 0.02087 0.21915 0.0
C5930 C 0.1866 0.0115 0.21084 0.0
C5931 C 0.21948 0.04394 0.20594 0.0
C5932 C 0.24721 0.0305 0.20256 0.0
C5933 C 0.20378 0.05874 0.19896 0.0
C5934 C 0.23915 0.07423 0.21267 0.0
C5935 C 0.22198 0.05994 0.22028 0.0
C5936 C 0.23513 0.08261 0.22743 0.0
C5937 C 0.26666 0.1208 0.22677 0.0
C5938 C 0.28417 0.13617 0.219 0.0
C5939 C 0.27024 0.11251 0.21187 0.0
loop_
_geom_bond_atom_site_label_1
_geom_bond_atom_site_label_2
_geom_bond_distance
_geom_bond_site_symmetry_2
_ccdc_geom_bond_type
Eu0 N29 2.600 . S
Eu0 N35 2.562 . S
Eu0 O44 2.462 1_545 S
Eu0 O45 2.373 . S
Eu0 O47 2.432 1_545 S
Eu0 O48 2.291 . S
Eu0 O52 2.335 1_545 S
Eu0 O55 2.372 . S
Eu0 C64 2.787 1_545 S
C1 N2 1.365 . S
C1 C4 1.405 . S
C1 C8 1.448 . S
N2 C1 1.365 . S
N2 C5 1.319 . S
N2 Eu11 2.600 . S
C3 C5 1.397 . S
C3 C6 1.367 . S
C3 H23 0.931 . S
C4 C1 1.405 . S
C4 C6 1.403 . S
C4 C10 1.439 . S
C5 N2 1.319 . S
C5 C3 1.397 . S
C5 H16 0.930 . S
C6 C3 1.367 . S
C6 C4 1.403 . S
C6 H27 0.929 . S
C7 C8 1.430 . S
C7 C9 1.387 . S
C7 C13 1.404 . S
C8 C1 1.448 . S
C8 C7 1.430 . S
C8 N12 1.351 . S
C9 C7 1.387 . S
C9 C10 1.374 . S
C9 H24 0.931 . S
C10 C4 1.439 . S
C10 C9 1.374 . S
C10 H25 0.931 . S
Eu11 N2 2.600 . S
Eu11 N12 2.562 . S
Eu11 O46 2.335 . S
Eu11 O49 2.372 . S
Eu11 O50 2.462 . S
Eu11 O51 2.373 . S
Eu11 O53 2.432 . S
Eu11 O54 2.291 . S
Eu11 C75 2.787 . S
N12 C8 1.351 . S
N12 Eu11 2.562 . S
N12 C14 1.325 . S
C13 C7 1.404 . S
C13 C15 1.366 . S
C13 H21 0.930 . S
C14 N12 1.325 . S
C14 C15 1.416 . S
C14 H20 0.929 . S
C15 C13 1.366 . S
C15 C14 1.416 . S
C15 H17 0.930 . S
H16 C5 0.930 . S
H17 C15 0.930 . S
H18 C33 0.930 . S
H19 C40 0.930 . S
H20 C14 0.929 . S
H21 C13 0.930 . S
H22 C36 0.929 . S
H23 C3 0.931 . S
H24 C9 0.931 . S
H25 C10 0.931 . S
H26 C31 0.931 . S
H27 C6 0.929 . S
H28 C39 0.930 . S
N29 Eu0 2.600 . S
N29 C30 1.365 . S
N29 C33 1.319 . S
C30 N29 1.365 . S
C30 C32 1.405 . S
C30 C38 1.448 . S
C31 H26 0.931 . S
C31 C33 1.397 . S
C31 C34 1.367 . S
C32 C30 1.405 . S
C32 C34 1.403 . S
C32 C65 1.439 . S
C33 H18 0.930 . S
C33 N29 1.319 . S
C33 C31 1.397 . S
C34 C31 1.367 . S
C34 C32 1.403 . S
C34 H41 0.929 . S
N35 Eu0 2.562 . S
N35 C36 1.325 . S
N35 C38 1.351 . S
C36 H22 0.929 . S
C36 N35 1.325 . S
C36 C40 1.416 . S
C37 C38 1.430 . S
C37 C39 1.404 . S
C37 C66 1.387 . S
C38 C30 1.448 . S
C38 N35 1.351 . S
C38 C37 1.430 . S
C39 H28 0.930 . S
C39 C37 1.404 . S
C39 C40 1.366 . S
C40 H19 0.930 . S
C40 C36 1.416 . S
C40 C39 1.366 . S
H41 C34 0.929 . S
H42 C65 0.931 . S
H43 C66 0.931 . S
O44 Eu0 2.462 1_565 S
O44 C64 1.252 . S
O45 Eu0 2.373 . S
O45 C56 1.249 . S
O46 Eu11 2.335 . S
O46 C56 1.264 . S
O47 Eu0 2.432 1_565 S
O47 C64 1.268 . S
O48 Eu0 2.291 . S
O48 C63 1.255 . S
O49 Eu11 2.372 . S
O49 C63 1.257 . S
O50 Eu11 2.462 . S
O50 C75 1.252 . S
O51 Eu11 2.373 . S
O51 C67 1.249 1_545 S
O52 Eu0 2.335 1_565 S
O52 C67 1.264 . S
O53 Eu11 2.432 . S
O53 C75 1.268 . S
O54 Eu11 2.291 . S
O54 C74 1.255 . S
O55 Eu0 2.372 . S
O55 C74 1.257 . S
C56 O45 1.249 . S
C56 O46 1.264 . S
C57 C60 1.382 . S
C57 C62 1.390 . S
C57 C64 1.506 . S
C58 C59 1.398 . S
C58 C62 1.392 . S
C59 C58 1.398 . S
C59 C61 1.372 . S
C59 H76 0.931 . S
C60 C57 1.382 . S
C60 C61 1.390 . S
C60 H77 0.931 . S
C61 C59 1.372 . S
C61 C60 1.390 . S
C61 H78 0.929 . S
C62 C57 1.390 . S
C62 C58 1.392 . S
C62 H79 0.930 . S
C63 O48 1.255 . S
C63 O49 1.257 . S
C64 Eu0 2.787 1_565 S
C64 O44 1.252 . S
C64 O47 1.268 . S
C64 C57 1.506 . S
C65 C32 1.439 . S
C65 H42 0.931 . S
C65 C66 1.374 . S
C66 C37 1.387 . S
C66 H43 0.931 . S
C66 C65 1.374 . S
C67 O51 1.249 1_565 S
C67 O52 1.264 . S
C68 C71 1.382 . S
C68 C72 1.390 . S
C68 C75 1.506 . S
C69 C70 1.398 . S
C69 C72 1.392 . S
C70 C69 1.398 . S
C70 C73 1.372 . S
C70 H80 0.931 . S
C71 C68 1.382 . S
C71 C73 1.390 . S
C71 H81 0.931 . S
C72 C68 1.390 . S
C72 C69 1.392 . S
C72 H82 0.930 . S
C73 C70 1.372 . S
C73 C71 1.390 . S
C73 H83 0.929 . S
C74 O54 1.255 . S
C74 O55 1.257 . S
C75 Eu11 2.787 . S
C75 O50 1.252 . S
C75 O53 1.268 . S
C75 C68 1.506 . S
H76 C59 0.931 . S
H77 C60 0.931 . S
H78 C61 0.929 . S
H79 C62 0.930 . S
H80 C70 0.931 . S
H81 C71 0.931 . S
H82 C72 0.930 . S
H83 C73 0.929 . S
Eu84 N113 2.600 . S
Eu84 N119 2.562 . S
Eu84 O128 2.462 . S
Eu84 O129 2.373 1_455 S
Eu84 O131 2.432 . S
Eu84 O132 2.291 . S
Eu84 O136 2.335 . S
Eu84 O139 2.372 . S
Eu84 C148 2.787 . S
C85 N86 1.365 . S
C85 C88 1.405 . S
C85 C92 1.448 . S
N86 C85 1.365 . S
N86 C89 1.319 . S
N86 Eu95 2.600 1_455 S
C87 C89 1.397 . S
C87 C90 1.367 . S
C87 H107 0.931 . S
C88 C85 1.405 . S
C88 C90 1.403 . S
C88 C94 1.439 . S
C89 N86 1.319 . S
C89 C87 1.397 . S
C89 H100 0.930 . S
C90 C87 1.367 . S
C90 C88 1.403 . S
C90 H111 0.929 . S
C91 C92 1.430 . S
C91 C93 1.387 . S
C91 C97 1.404 . S
C92 C85 1.448 . S
C92 C91 1.430 . S
C92 N96 1.351 . S
C93 C91 1.387 . S
C93 C94 1.374 . S
C93 H108 0.931 . S
C94 C88 1.439 . S
C94 C93 1.374 . S
C94 H109 0.931 . S
Eu95 N86 2.600 1_655 S
Eu95 N96 2.562 1_655 S
Eu95 O130 2.335 . S
Eu95 O133 2.372 1_655 S
Eu95 O134 2.462 . S
Eu95 O135 2.373 1_655 S
Eu95 O137 2.432 . S
Eu95 O138 2.291 1_655 S
Eu95 C159 2.787 . S
N96 C92 1.351 . S
N96 Eu95 2.562 1_455 S
N96 C98 1.325 . S
C97 C91 1.404 . S
C97 C99 1.366 . S
C97 H105 0.930 . S
C98 N96 1.325 . S
C98 C99 1.416 . S
C98 H104 0.949 . S
C99 C97 1.366 . S
C99 C98 1.416 . S
C99 H101 0.930 . S
H100 C89 0.930 . S
H101 C99 0.930 . S
H102 C117 0.930 . S
H103 C124 0.930 . S
H104 C98 0.949 . S
H105 C97 0.930 . S
H106 C120 0.929 . S
H107 C87 0.931 . S
H108 C93 0.931 . S
H109 C94 0.931 . S
H110 C115 0.931 . S
H111 C90 0.929 . S
H112 C123 0.930 1_655 S
N113 Eu84 2.600 . S
N113 C114 1.365 . S
N113 C117 1.319 . S
C114 N113 1.365 . S
C114 C116 1.405 . S
C114 C122 1.448 . S
C115 H110 0.931 . S
C115 C117 1.397 . S
C115 C118 1.367 . S
C116 C114 1.405 . S
C116 C118 1.403 . S
C116 C149 1.439 1_455 S
C117 H102 0.930 . S
C117 N113 1.319 . S
C117 C115 1.397 . S
C118 C115 1.367 . S
C118 C116 1.403 . S
C118 H125 0.929 1_455 S
N119 Eu84 2.562 . S
N119 C120 1.325 . S
N119 C122 1.351 . S
C120 H106 0.929 . S
C120 N119 1.325 . S
C120 C124 1.416 . S
C121 C122 1.430 . S
C121 C123 1.404 . S
C121 C150 1.387 1_455 S
C122 C114 1.448 . S
C122 N119 1.351 . S
C122 C121 1.430 . S
C123 H112 0.930 1_455 S
C123 C121 1.404 . S
C123 C124 1.366 . S
C124 H103 0.930 . S
C124 C120 1.416 . S
C124 C123 1.366 . S
H125 C118 0.929 1_655 S
H126 C149 0.931 . S
H127 C150 0.931 . S
O128 Eu84 2.462 . S
O128 C148 1.252 . S
O129 Eu84 2.373 1_655 S
O129 C140 1.249 . S
O130 Eu95 2.335 . S
O130 C140 1.264 . S
O131 Eu84 2.432 . S
O131 C148 1.268 . S
O132 Eu84 2.291 . S
O132 C147 1.255 . S
O133 Eu95 2.372 1_455 S
O133 C147 1.257 . S
O134 Eu95 2.462 . S
O134 C159 1.252 . S
O135 Eu95 2.373 1_455 S
O135 C151 1.249 . S
O136 Eu84 2.335 . S
O136 C151 1.264 . S
O137 Eu95 2.432 . S
O137 C159 1.268 . S
O138 Eu95 2.291 1_455 S
O138 C158 1.255 . S
O139 Eu84 2.372 . S
O139 C158 1.257 . S
C140 O129 1.249 . S
C140 O130 1.264 . S
C141 C144 1.382 . S
C141 C146 1.390 . S
C141 C148 1.506 . S
C142 C143 1.398 . S
C142 C146 1.392 . S
C143 C142 1.398 . S
C143 C145 1.372 . S
C143 H160 0.931 . S
C144 C141 1.382 . S
C144 C145 1.390 . S
C144 H161 0.931 . S
C145 C143 1.372 . S
C145 C144 1.390 . S
C145 H162 0.929 . S
C146 C141 1.390 . S
C146 C142 1.392 . S
C146 H163 0.930 . S
C147 O132 1.255 . S
C147 O133 1.257 . S
C148 Eu84 2.787 . S
C148 O128 1.252 . S
C148 O131 1.268 . S
C148 C141 1.506 . S
C149 C116 1.439 1_655 S
C149 H126 0.931 . S
C149 C150 1.374 . S
C150 C121 1.387 1_655 S
C150 H127 0.931 . S
C150 C149 1.374 . S
C151 O135 1.249 . S
C151 O136 1.264 . S
C152 C155 1.382 . S
C152 C156 1.390 . S
C152 C159 1.506 . S
C153 C154 1.398 . S
C153 C156 1.392 . S
C154 C153 1.398 . S
C154 C157 1.372 . S
C154 H164 0.931 . S
C155 C152 1.382 . S
C155 C157 1.390 . S
C155 H165 0.931 . S
C156 C152 1.390 . S
C156 C153 1.392 . S
C156 H166 0.930 . S
C157 C154 1.372 . S
C157 C155 1.390 . S
C157 H167 0.929 . S
C158 O138 1.255 . S
C158 O139 1.257 . S
C159 Eu95 2.787 . S
C159 O134 1.252 . S
C159 O137 1.268 . S
C159 C152 1.506 . S
H160 C143 0.931 . S
H161 C144 0.931 . S
H162 C145 0.929 . S
H163 C146 0.930 . S
H164 C154 0.931 . S
H165 C155 0.931 . S
H166 C156 0.930 . S
H167 C157 0.929 . S
Eu168 N197 2.600 . S
Eu168 N203 2.562 . S
Eu168 O212 2.462 . S
Eu168 O213 2.373 . S
Eu168 O215 2.432 . S
Eu168 O216 2.291 . S
Eu168 O220 2.335 . S
Eu168 O223 2.372 . S
Eu168 C232 2.787 . S
C169 N170 1.365 . S
C169 C172 1.405 . S
C169 C176 1.448 . S
N170 C169 1.365 . S
N170 C173 1.319 . S
N170 Eu179 2.600 . S
C171 C173 1.397 . S
C171 C174 1.367 . S
C171 H191 0.931 . S
C172 C169 1.405 . S
C172 C174 1.403 . S
C172 C178 1.439 . S
C173 N170 1.319 . S
C173 C171 1.397 . S
C173 H184 0.930 . S
C174 C171 1.367 . S
C174 C172 1.403 . S
C174 H195 0.929 . S
C175 C176 1.430 . S
C175 C177 1.387 . S
C175 C181 1.404 . S
C176 C169 1.448 . S
C176 C175 1.430 . S
C176 N180 1.351 . S
C177 C175 1.387 . S
C177 C178 1.374 . S
C177 H192 0.931 . S
C178 C172 1.439 . S
C178 C177 1.374 . S
C178 H193 0.931 . S
Eu179 N170 2.600 . S
Eu179 N180 2.562 . S
Eu179 O214 2.335 . S
Eu179 O217 2.372 . S
Eu179 O218 2.462 . S
Eu179 O219 2.373 . S
Eu179 O221 2.432 . S
Eu179 O222 2.291 . S
Eu179 C243 2.787 . S
N180 C176 1.351 . S
N180 Eu179 2.562 . S
N180 C182 1.325 . S
C181 C175 1.404 . S
C181 C183 1.366 . S
C181 H189 0.930 . S
C182 N180 1.325 . S
C182 C183 1.416 . S
C182 H188 0.929 . S
C183 C181 1.366 . S
C183 C182 1.416 . S
C183 H185 0.930 . S
H184 C173 0.930 . S
H185 C183 0.930 . S
H186 C201 0.930 . S
H187 C208 0.930 . S
H188 C182 0.929 . S
H189 C181 0.930 . S
H190 C204 0.929 . S
H191 C171 0.931 . S
H192 C177 0.931 . S
H193 C178 0.931 . S
H194 C199 0.931 . S
H195 C174 0.929 . S
H196 C207 0.930 . S
N197 Eu168 2.600 . S
N197 C198 1.365 . S
N197 C201 1.319 . S
C198 N197 1.365 . S
C198 C200 1.405 . S
C198 C206 1.448 . S
C199 H194 0.931 . S
C199 C201 1.397 . S
C199 C202 1.367 . S
C200 C198 1.405 . S
C200 C202 1.403 . S
C200 C233 1.439 . S
C201 H186 0.930 . S
C201 N197 1.319 . S
C201 C199 1.397 . S
C202 C199 1.367 . S
C202 C200 1.403 . S
C202 H209 0.929 . S
N203 Eu168 2.562 . S
N203 C204 1.325 . S
N203 C206 1.351 . S
C204 H190 0.929 . S
C204 N203 1.325 . S
C204 C208 1.416 . S
C205 C206 1.430 . S
C205 C207 1.404 . S
C205 C234 1.387 . S
C206 C198 1.448 . S
C206 N203 1.351 . S
C206 C205 1.430 . S
C207 H196 0.930 . S
C207 C205 1.404 . S
C207 C208 1.366 . S
C208 H187 0.930 . S
C208 C204 1.416 . S
C208 C207 1.366 . S
H209 C202 0.929 . S
H210 C233 0.931 . S
H211 C234 0.931 . S
O212 Eu168 2.462 . S
O212 C232 1.252 . S
O213 Eu168 2.373 . S
O213 C224 1.249 . S
O214 Eu179 2.335 . S
O214 C224 1.264 . S
O215 Eu168 2.432 . S
O215 C232 1.268 . S
O216 Eu168 2.291 . S
O216 C231 1.255 . S
O217 Eu179 2.372 . S
O217 C231 1.257 . S
O218 Eu179 2.462 . S
O218 C243 1.252 . S
O219 Eu179 2.373 . S
O219 C235 1.249 . S
O220 Eu168 2.335 . S
O220 C235 1.264 . S
O221 Eu179 2.432 . S
O221 C243 1.268 . S
O222 Eu179 2.291 . S
O222 C242 1.255 . S
O223 Eu168 2.372 . S
O223 C242 1.257 . S
C224 O213 1.249 . S
C224 O214 1.264 . S
C225 C228 1.382 . S
C225 C230 1.390 . S
C225 C232 1.506 . S
C226 C227 1.398 . S
C226 C230 1.392 . S
C227 C226 1.398 . S
C227 C229 1.372 . S
C227 H244 0.931 . S
C228 C225 1.382 . S
C228 C229 1.390 . S
C228 H245 0.931 . S
C229 C227 1.372 . S
C229 C228 1.390 . S
C229 H246 0.929 . S
C230 C225 1.390 . S
C230 C226 1.392 . S
C230 H247 0.930 . S
C231 O216 1.255 . S
C231 O217 1.257 . S
C232 Eu168 2.787 . S
C232 O212 1.252 . S
C232 O215 1.268 . S
C232 C225 1.506 . S
C233 C200 1.439 . S
C233 H210 0.931 . S
C233 C234 1.374 . S
C234 C205 1.387 . S
C234 H211 0.931 . S
C234 C233 1.374 . S
C235 O219 1.249 . S
C235 O220 1.264 . S
C236 C239 1.382 . S
C236 C240 1.390 . S
C236 C243 1.506 . S
C237 C238 1.398 . S
C237 C240 1.392 . S
C238 C237 1.398 . S
C238 C241 1.372 . S
C238 H248 0.931 . S
C239 C236 1.382 . S
C239 C241 1.390 . S
C239 H249 0.931 . S
C240 C236 1.390 . S
C240 C237 1.392 . S
C240 H250 0.930 . S
C241 C238 1.372 . S
C241 C239 1.390 . S
C241 H251 0.929 . S
C242 O222 1.255 . S
C242 O223 1.257 . S
C243 Eu179 2.787 . S
C243 O218 1.252 . S
C243 O221 1.268 . S
C243 C236 1.506 . S
H244 C227 0.931 . S
H245 C228 0.931 . S
H246 C229 0.929 . S
H247 C230 0.930 . S
H248 C238 0.931 . S
H249 C239 0.931 . S
H250 C240 0.930 . S
H251 C241 0.929 . S
Eu252 N281 2.600 . S
Eu252 N287 2.562 . S
Eu252 O296 2.462 1_455 S
Eu252 O297 2.373 . S
Eu252 O299 2.432 1_455 S
Eu252 O300 2.291 . S
Eu252 O304 2.335 1_455 S
Eu252 O307 2.372 . S
Eu252 C316 2.787 1_455 S
C253 N254 1.365 . S
C253 C256 1.405 . S
C253 C260 1.448 . S
N254 C253 1.365 . S
N254 C257 1.319 . S
N254 Eu263 2.600 . S
C255 C257 1.397 . S
C255 C258 1.367 . S
C255 H275 0.931 . S
C256 C253 1.405 . S
C256 C258 1.403 . S
C256 C262 1.439 . S
C257 N254 1.319 . S
C257 C255 1.397 . S
C257 H268 0.930 . S
C258 C255 1.367 . S
C258 C256 1.403 . S
C258 H279 0.929 . S
C259 C260 1.430 . S
C259 C261 1.387 . S
C259 C265 1.404 . S
C260 C253 1.448 . S
C260 C259 1.430 . S
C260 N264 1.351 . S
C261 C259 1.387 . S
C261 C262 1.374 . S
C261 H276 0.931 . S
C262 C256 1.439 . S
C262 C261 1.374 . S
C262 H277 0.931 . S
Eu263 N254 2.600 . S
Eu263 N264 2.562 . S
Eu263 O298 2.335 . S
Eu263 O301 2.372 . S
Eu263 O302 2.462 . S
Eu263 O303 2.373 . S
Eu263 O305 2.432 . S
Eu263 O306 2.291 . S
Eu263 C327 2.787 . S
N264 C260 1.351 . S
N264 Eu263 2.562 . S
N264 C266 1.325 . S
C265 C259 1.404 . S
C265 C267 1.366 . S
C265 H273 0.930 . S
C266 N264 1.325 . S
C266 C267 1.416 . S
C266 H272 0.929 . S
C267 C265 1.366 . S
C267 C266 1.416 . S
C267 H269 0.930 . S
H268 C257 0.930 . S
H269 C267 0.930 . S
H270 C285 0.930 . S
H271 C292 0.930 . S
H272 C266 0.929 . S
H273 C265 0.930 . S
H274 C288 0.929 . S
H275 C255 0.931 . S
H276 C261 0.931 . S
H277 C262 0.931 . S
H278 C283 0.931 . S
H279 C258 0.929 . S
H280 C291 0.930 . S
N281 Eu252 2.600 . S
N281 C282 1.365 . S
N281 C285 1.319 . S
C282 N281 1.365 . S
C282 C284 1.405 . S
C282 C290 1.448 . S
C283 H278 0.931 . S
C283 C285 1.397 . S
C283 C286 1.367 . S
C284 C282 1.405 . S
C284 C286 1.403 . S
C284 C317 1.439 . S
C285 H270 0.930 . S
C285 N281 1.319 . S
C285 C283 1.397 . S
C286 C283 1.367 . S
C286 C284 1.403 . S
C286 H293 0.929 . S
N287 Eu252 2.562 . S
N287 C288 1.325 . S
N287 C290 1.351 . S
C288 H274 0.929 . S
C288 N287 1.325 . S
C288 C292 1.416 . S
C289 C290 1.430 . S
C289 C291 1.404 . S
C289 C318 1.387 . S
C290 C282 1.448 . S
C290 N287 1.351 . S
C290 C289 1.430 . S
C291 H280 0.930 . S
C291 C289 1.404 . S
C291 C292 1.366 . S
C292 H271 0.930 . S
C292 C288 1.416 . S
C292 C291 1.366 . S
H293 C286 0.929 . S
H294 C317 0.931 . S
H295 C318 0.931 . S
O296 Eu252 2.462 1_655 S
O296 C316 1.252 . S
O297 Eu252 2.373 . S
O297 C308 1.249 . S
O298 Eu263 2.335 . S
O298 C308 1.264 . S
O299 Eu252 2.432 1_655 S
O299 C316 1.268 . S
O300 Eu252 2.291 . S
O300 C315 1.255 . S
O301 Eu263 2.372 . S
O301 C315 1.257 . S
O302 Eu263 2.462 . S
O302 C327 1.252 . S
O303 Eu263 2.373 . S
O303 C319 1.249 1_455 S
O304 Eu252 2.335 1_655 S
O304 C319 1.264 . S
O305 Eu263 2.432 . S
O305 C327 1.268 . S
O306 Eu263 2.291 . S
O306 C326 1.255 . S
O307 Eu252 2.372 . S
O307 C326 1.257 . S
C308 O297 1.249 . S
C308 O298 1.264 . S
C309 C312 1.382 . S
C309 C314 1.390 . S
C309 C316 1.506 . S
C310 C311 1.398 . S
C310 C314 1.392 . S
C311 C310 1.398 . S
C311 C313 1.372 . S
C311 H328 0.931 . S
C312 C309 1.382 . S
C312 C313 1.390 . S
C312 H329 0.931 . S
C313 C311 1.372 . S
C313 C312 1.390 . S
C313 H330 0.929 . S
C314 C309 1.390 . S
C314 C310 1.392 . S
C314 H331 0.930 . S
C315 O300 1.255 . S
C315 O301 1.257 . S
C316 Eu252 2.787 1_655 S
C316 O296 1.252 . S
C316 O299 1.268 . S
C316 C309 1.506 . S
C317 C284 1.439 . S
C317 H294 0.931 . S
C317 C318 1.374 . S
C318 C289 1.387 . S
C318 H295 0.931 . S
C318 C317 1.374 . S
C319 O303 1.249 1_655 S
C319 O304 1.264 . S
C320 C323 1.382 . S
C320 C324 1.390 . S
C320 C327 1.506 . S
C321 C322 1.398 . S
C321 C324 1.392 . S
C322 C321 1.398 . S
C322 C325 1.372 . S
C322 H332 0.931 . S
C323 C320 1.382 . S
C323 C325 1.390 . S
C323 H333 0.931 . S
C324 C320 1.390 . S
C324 C321 1.392 . S
C324 H334 0.930 . S
C325 C322 1.372 . S
C325 C323 1.390 . S
C325 H335 0.929 . S
C326 O306 1.255 . S
C326 O307 1.257 . S
C327 Eu263 2.787 . S
C327 O302 1.252 . S
C327 O305 1.268 . S
C327 C320 1.506 . S
H328 C311 0.931 . S
H329 C312 0.931 . S
H330 C313 0.929 . S
H331 C314 0.930 . S
H332 C322 0.931 . S
H333 C323 0.931 . S
H334 C324 0.930 . S
H335 C325 0.929 . S
Eu336 N365 2.600 . S
Eu336 N371 2.562 . S
Eu336 O380 2.462 . S
Eu336 O381 2.373 . S
Eu336 O383 2.432 . S
Eu336 O384 2.291 . S
Eu336 O388 2.335 . S
Eu336 O391 2.372 . S
Eu336 C400 2.787 . S
C337 N338 1.365 . S
C337 C340 1.405 . S
C337 C344 1.448 . S
N338 C337 1.365 . S
N338 C341 1.319 . S
N338 Eu347 2.600 . S
C339 C341 1.397 . S
C339 C342 1.367 . S
C339 H359 0.931 . S
C340 C337 1.405 . S
C340 C342 1.403 . S
C340 C346 1.439 . S
C341 N338 1.319 . S
C341 C339 1.397 . S
C341 H352 0.930 . S
C342 C339 1.367 . S
C342 C340 1.403 . S
C342 H363 0.929 . S
C343 C344 1.430 . S
C343 C345 1.387 . S
C343 C349 1.404 . S
C344 C337 1.448 . S
C344 C343 1.430 . S
C344 N348 1.351 . S
C345 C343 1.387 . S
C345 C346 1.374 . S
C345 H360 0.931 . S
C346 C340 1.439 . S
C346 C345 1.374 . S
C346 H361 0.931 . S
Eu347 N338 2.600 . S
Eu347 N348 2.562 . S
Eu347 O382 2.335 . S
Eu347 O385 2.372 . S
Eu347 O386 2.462 . S
Eu347 O387 2.373 . S
Eu347 O389 2.432 . S
Eu347 O390 2.291 . S
Eu347 C411 2.787 . S
N348 C344 1.351 . S
N348 Eu347 2.562 . S
N348 C350 1.325 . S
C349 C343 1.404 . S
C349 C351 1.366 . S
C349 H357 0.930 . S
C350 N348 1.325 . S
C350 C351 1.416 . S
C350 H356 0.929 . S
C351 C349 1.366 . S
C351 C350 1.416 . S
C351 H353 0.930 . S
H352 C341 0.930 . S
H353 C351 0.930 . S
H354 C369 0.930 . S
H355 C376 0.930 . S
H356 C350 0.929 . S
H357 C349 0.930 . S
H358 C372 0.929 . S
H359 C339 0.931 . S
H360 C345 0.931 . S
H361 C346 0.931 . S
H362 C367 0.931 . S
H363 C342 0.929 . S
H364 C375 0.930 . S
N365 Eu336 2.600 . S
N365 C366 1.365 . S
N365 C369 1.319 . S
C366 N365 1.365 . S
C366 C368 1.405 . S
C366 C374 1.448 . S
C367 H362 0.931 . S
C367 C369 1.397 . S
C367 C370 1.367 . S
C368 C366 1.405 . S
C368 C370 1.403 . S
C368 C401 1.439 . S
C369 H354 0.930 . S
C369 N365 1.319 . S
C369 C367 1.397 . S
C370 C367 1.367 . S
C370 C368 1.403 . S
C370 H377 0.929 . S
N371 Eu336 2.562 . S
N371 C372 1.325 . S
N371 C374 1.351 . S
C372 H358 0.929 . S
C372 N371 1.325 . S
C372 C376 1.416 . S
C373 C374 1.430 . S
C373 C375 1.404 . S
C373 C402 1.387 . S
C374 C366 1.448 . S
C374 N371 1.351 . S
C374 C373 1.430 . S
C375 H364 0.930 . S
C375 C373 1.404 . S
C375 C376 1.366 . S
C376 H355 0.930 . S
C376 C372 1.416 . S
C376 C375 1.366 . S
H377 C370 0.929 . S
H378 C401 0.931 . S
H379 C402 0.931 . S
O380 Eu336 2.462 . S
O380 C400 1.252 . S
O381 Eu336 2.373 . S
O381 C392 1.249 . S
O382 Eu347 2.335 . S
O382 C392 1.264 . S
O383 Eu336 2.432 . S
O383 C400 1.268 . S
O384 Eu336 2.291 . S
O384 C399 1.255 . S
O385 Eu347 2.372 . S
O385 C399 1.257 . S
O386 Eu347 2.462 . S
O386 C411 1.252 . S
O387 Eu347 2.373 . S
O387 C403 1.249 . S
O388 Eu336 2.335 . S
O388 C403 1.264 . S
O389 Eu347 2.432 . S
O389 C411 1.268 . S
O390 Eu347 2.291 . S
O390 C410 1.255 . S
O391 Eu336 2.372 . S
O391 C410 1.257 . S
C392 O381 1.249 . S
C392 O382 1.264 . S
C393 C396 1.382 . S
C393 C398 1.390 . S
C393 C400 1.506 . S
C394 C395 1.398 . S
C394 C398 1.392 . S
C395 C394 1.398 . S
C395 C397 1.372 . S
C395 H412 0.931 . S
C396 C393 1.382 . S
C396 C397 1.390 . S
C396 H413 0.931 . S
C397 C395 1.372 . S
C397 C396 1.390 . S
C397 H414 0.929 . S
C398 C393 1.390 . S
C398 C394 1.392 . S
C398 H415 0.930 . S
C399 O384 1.255 . S
C399 O385 1.257 . S
C400 Eu336 2.787 . S
C400 O380 1.252 . S
C400 O383 1.268 . S
C400 C393 1.506 . S
C401 C368 1.439 . S
C401 H378 0.931 . S
C401 C402 1.374 . S
C402 C373 1.387 . S
C402 H379 0.931 . S
C402 C401 1.374 . S
C403 O387 1.249 . S
C403 O388 1.264 . S
C404 C407 1.382 . S
C404 C408 1.390 . S
C404 C411 1.506 . S
C405 C406 1.398 . S
C405 C408 1.392 . S
C406 C405 1.398 . S
C406 C409 1.372 . S
C406 H416 0.931 . S
C407 C404 1.382 . S
C407 C409 1.390 . S
C407 H417 0.931 . S
C408 C404 1.390 . S
C408 C405 1.392 . S
C408 H418 0.930 . S
C409 C406 1.372 . S
C409 C407 1.390 . S
C409 H419 0.929 . S
C410 O390 1.255 . S
C410 O391 1.257 . S
C411 Eu347 2.787 . S
C411 O386 1.252 . S
C411 O389 1.268 . S
C411 C404 1.506 . S
H412 C395 0.931 . S
H413 C396 0.931 . S
H414 C397 0.929 . S
H415 C398 0.930 . S
H416 C406 0.931 . S
H417 C407 0.931 . S
H418 C408 0.930 . S
H419 C409 0.929 . S
Eu420 N449 2.600 . S
Eu420 N455 2.562 . S
Eu420 O464 2.462 . S
Eu420 O465 2.373 1_545 S
Eu420 O467 2.432 . S
Eu420 O468 2.291 . S
Eu420 O472 2.335 . S
Eu420 O475 2.372 . S
Eu420 C484 2.787 . S
C421 N422 1.365 . S
C421 C424 1.405 . S
C421 C428 1.448 . S
N422 C421 1.365 . S
N422 C425 1.319 . S
N422 Eu431 2.600 1_545 S
C423 C425 1.397 . S
C423 C426 1.367 . S
C423 H443 0.931 . S
C424 C421 1.405 . S
C424 C426 1.403 . S
C424 C430 1.439 . S
C425 N422 1.319 . S
C425 C423 1.397 . S
C425 H436 0.930 . S
C426 C423 1.367 . S
C426 C424 1.403 . S
C426 H447 0.929 . S
C427 C428 1.430 . S
C427 C429 1.387 . S
C427 C433 1.404 . S
C428 C421 1.448 . S
C428 C427 1.430 . S
C428 N432 1.351 . S
C429 C427 1.387 . S
C429 C430 1.374 . S
C429 H444 0.931 . S
C430 C424 1.439 . S
C430 C429 1.374 . S
C430 H445 0.931 . S
Eu431 N422 2.600 1_565 S
Eu431 N432 2.562 1_565 S
Eu431 O466 2.335 . S
Eu431 O469 2.372 1_565 S
Eu431 O470 2.462 . S
Eu431 O471 2.373 1_565 S
Eu431 O473 2.432 . S
Eu431 O474 2.291 1_565 S
Eu431 C495 2.787 . S
N432 C428 1.351 . S
N432 Eu431 2.562 1_545 S
N432 C434 1.325 . S
C433 C427 1.404 . S
C433 C435 1.366 . S
C433 H441 0.930 . S
C434 N432 1.325 . S
C434 C435 1.416 . S
C434 H440 0.949 . S
C435 C433 1.366 . S
C435 C434 1.416 . S
C435 H437 0.930 . S
H436 C425 0.930 . S
H437 C435 0.930 . S
H438 C453 0.930 . S
H439 C460 0.930 . S
H440 C434 0.949 . S
H441 C433 0.930 . S
H442 C456 0.929 . S
H443 C423 0.931 . S
H444 C429 0.931 . S
H445 C430 0.931 . S
H446 C451 0.931 . S
H447 C426 0.929 . S
H448 C459 0.930 1_565 S
N449 Eu420 2.600 . S
N449 C450 1.365 . S
N449 C453 1.319 . S
C450 N449 1.365 . S
C450 C452 1.405 . S
C450 C458 1.448 . S
C451 H446 0.931 . S
C451 C453 1.397 . S
C451 C454 1.367 . S
C452 C450 1.405 . S
C452 C454 1.403 . S
C452 C485 1.439 1_545 S
C453 H438 0.930 . S
C453 N449 1.319 . S
C453 C451 1.397 . S
C454 C451 1.367 . S
C454 C452 1.403 . S
C454 H461 0.929 1_545 S
N455 Eu420 2.562 . S
N455 C456 1.325 . S
N455 C458 1.351 . S
C456 H442 0.929 . S
C456 N455 1.325 . S
C456 C460 1.416 . S
C457 C458 1.430 . S
C457 C459 1.404 . S
C457 C486 1.387 1_545 S
C458 C450 1.448 . S
C458 N455 1.351 . S
C458 C457 1.430 . S
C459 H448 0.930 1_545 S
C459 C457 1.404 . S
C459 C460 1.366 . S
C460 H439 0.930 . S
C460 C456 1.416 . S
C460 C459 1.366 . S
H461 C454 0.929 1_565 S
H462 C485 0.931 . S
H463 C486 0.931 . S
O464 Eu420 2.462 . S
O464 C484 1.252 . S
O465 Eu420 2.373 1_565 S
O465 C476 1.249 . S
O466 Eu431 2.335 . S
O466 C476 1.264 . S
O467 Eu420 2.432 . S
O467 C484 1.268 . S
O468 Eu420 2.291 . S
O468 C483 1.255 . S
O469 Eu431 2.372 1_545 S
O469 C483 1.257 . S
O470 Eu431 2.462 . S
O470 C495 1.252 . S
O471 Eu431 2.373 1_545 S
O471 C487 1.249 . S
O472 Eu420 2.335 . S
O472 C487 1.264 . S
O473 Eu431 2.432 . S
O473 C495 1.268 . S
O474 Eu431 2.291 1_545 S
O474 C494 1.255 . S
O475 Eu420 2.372 . S
O475 C494 1.257 . S
C476 O465 1.249 . S
C476 O466 1.264 . S
C477 C480 1.382 . S
C477 C482 1.390 . S
C477 C484 1.506 . S
C478 C479 1.398 . S
C478 C482 1.392 . S
C479 C478 1.398 . S
C479 C481 1.372 . S
C479 H496 0.931 . S
C480 C477 1.382 . S
C480 C481 1.390 . S
C480 H497 0.931 . S
C481 C479 1.372 . S
C481 C480 1.390 . S
C481 H498 0.929 . S
C482 C477 1.390 . S
C482 C478 1.392 . S
C482 H499 0.930 . S
C483 O468 1.255 . S
C483 O469 1.257 . S
C484 Eu420 2.787 . S
C484 O464 1.252 . S
C484 O467 1.268 . S
C484 C477 1.506 . S
C485 C452 1.439 1_565 S
C485 H462 0.931 . S
C485 C486 1.374 . S
C486 C457 1.387 1_565 S
C486 H463 0.931 . S
C486 C485 1.374 . S
C487 O471 1.249 . S
C487 O472 1.264 . S
C488 C491 1.382 . S
C488 C492 1.390 . S
C488 C495 1.506 . S
C489 C490 1.398 . S
C489 C492 1.392 . S
C490 C489 1.398 . S
C490 C493 1.372 . S
C490 H500 0.931 . S
C491 C488 1.382 . S
C491 C493 1.390 . S
C491 H501 0.931 . S
C492 C488 1.390 . S
C492 C489 1.392 . S
C492 H502 0.930 . S
C493 C490 1.372 . S
C493 C491 1.390 . S
C493 H503 0.929 . S
C494 O474 1.255 . S
C494 O475 1.257 . S
C495 Eu431 2.787 . S
C495 O470 1.252 . S
C495 O473 1.268 . S
C495 C488 1.506 . S
H496 C479 0.931 . S
H497 C480 0.931 . S
H498 C481 0.929 . S
H499 C482 0.930 . S
H500 C490 0.931 . S
H501 C491 0.931 . S
H502 C492 0.930 . S
H503 C493 0.929 . S
Eu504 N533 2.600 1_565 S
Eu504 N539 2.562 1_565 S
Eu504 O548 2.462 . S
Eu504 O549 2.373 1_565 S
Eu504 O551 2.432 . S
Eu504 O552 2.291 1_565 S
Eu504 O556 2.335 . S
Eu504 O559 2.372 1_565 S
Eu504 C568 2.787 . S
C505 N506 1.365 . S
C505 C508 1.405 . S
C505 C512 1.448 . S
N506 C505 1.365 . S
N506 C509 1.319 . S
N506 Eu515 2.600 . S
C507 C509 1.397 . S
C507 C510 1.367 . S
C507 H527 0.931 . S
C508 C505 1.405 . S
C508 C510 1.403 . S
C508 C514 1.439 1_545 S
C509 N506 1.319 . S
C509 C507 1.397 . S
C509 H520 0.930 . S
C510 C507 1.367 . S
C510 C508 1.403 . S
C510 H531 0.929 1_545 S
C511 C512 1.430 . S
C511 C513 1.387 1_545 S
C511 C517 1.404 . S
C512 C505 1.448 . S
C512 C511 1.430 . S
C512 N516 1.351 . S
C513 C511 1.387 1_565 S
C513 C514 1.374 . S
C513 H528 0.931 . S
C514 C508 1.439 1_565 S
C514 C513 1.374 . S
C514 H529 0.931 . S
Eu515 N506 2.600 . S
Eu515 N516 2.562 . S
Eu515 O550 2.335 . S
Eu515 O553 2.372 . S
Eu515 O554 2.462 . S
Eu515 O555 2.373 1_545 S
Eu515 O557 2.432 . S
Eu515 O558 2.291 . S
Eu515 C579 2.787 . S
N516 C512 1.351 . S
N516 Eu515 2.562 . S
N516 C518 1.325 . S
C517 C511 1.404 . S
C517 C519 1.366 . S
C517 H525 0.930 1_545 S
C518 N516 1.325 . S
C518 C519 1.416 . S
C518 H524 0.929 . S
C519 C517 1.366 . S
C519 C518 1.416 . S
C519 H521 0.930 . S
H520 C509 0.930 . S
H521 C519 0.930 . S
H522 C537 0.930 . S
H523 C544 0.930 . S
H524 C518 0.929 . S
H525 C517 0.930 1_565 S
H526 C540 0.932 . S
H527 C507 0.931 . S
H528 C513 0.931 . S
H529 C514 0.931 . S
H530 C535 0.931 . S
H531 C510 0.929 1_565 S
H532 C543 0.930 . S
N533 Eu504 2.600 1_545 S
N533 C534 1.365 . S
N533 C537 1.319 . S
C534 N533 1.365 . S
C534 C536 1.405 . S
C534 C542 1.448 . S
C535 H530 0.931 . S
C535 C537 1.397 . S
C535 C538 1.367 . S
C536 C534 1.405 . S
C536 C538 1.403 . S
C536 C569 1.439 . S
C537 H522 0.930 . S
C537 N533 1.319 . S
C537 C535 1.397 . S
C538 C535 1.367 . S
C538 C536 1.403 . S
C538 H545 0.929 . S
N539 Eu504 2.562 1_545 S
N539 C540 1.325 . S
N539 C542 1.351 . S
C540 H526 0.932 . S
C540 N539 1.325 . S
C540 C544 1.416 . S
C541 C542 1.430 . S
C541 C543 1.404 . S
C541 C570 1.387 . S
C542 C534 1.448 . S
C542 N539 1.351 . S
C542 C541 1.430 . S
C543 H532 0.930 . S
C543 C541 1.404 . S
C543 C544 1.366 . S
C544 H523 0.930 . S
C544 C540 1.416 . S
C544 C543 1.366 . S
H545 C538 0.929 . S
H546 C569 0.931 . S
H547 C570 0.931 . S
O548 Eu504 2.462 . S
O548 C568 1.252 . S
O549 Eu504 2.373 1_545 S
O549 C560 1.249 . S
O550 Eu515 2.335 . S
O550 C560 1.264 . S
O551 Eu504 2.432 . S
O551 C568 1.268 . S
O552 Eu504 2.291 1_545 S
O552 C567 1.255 . S
O553 Eu515 2.372 . S
O553 C567 1.257 . S
O554 Eu515 2.462 . S
O554 C579 1.252 . S
O555 Eu515 2.373 1_565 S
O555 C571 1.249 . S
O556 Eu504 2.335 . S
O556 C571 1.264 . S
O557 Eu515 2.432 . S
O557 C579 1.268 . S
O558 Eu515 2.291 . S
O558 C578 1.255 . S
O559 Eu504 2.372 1_545 S
O559 C578 1.257 . S
C560 O549 1.249 . S
C560 O550 1.264 . S
C561 C564 1.382 . S
C561 C566 1.390 . S
C561 C568 1.506 . S
C562 C563 1.398 . S
C562 C566 1.392 . S
C563 C562 1.398 . S
C563 C565 1.372 . S
C563 H580 0.931 . S
C564 C561 1.382 . S
C564 C565 1.390 . S
C564 H581 0.931 . S
C565 C563 1.372 . S
C565 C564 1.390 . S
C565 H582 0.929 . S
C566 C561 1.390 . S
C566 C562 1.392 . S
C566 H583 0.930 . S
C567 O552 1.255 . S
C567 O553 1.257 . S
C568 Eu504 2.787 . S
C568 O548 1.252 . S
C568 O551 1.268 . S
C568 C561 1.506 . S
C569 C536 1.439 . S
C569 H546 0.931 . S
C569 C570 1.374 . S
C570 C541 1.387 . S
C570 H547 0.931 . S
C570 C569 1.374 . S
C571 O555 1.249 . S
C571 O556 1.264 . S
C572 C575 1.382 . S
C572 C576 1.390 . S
C572 C579 1.506 . S
C573 C574 1.398 . S
C573 C576 1.392 . S
C574 C573 1.398 . S
C574 C577 1.372 . S
C574 H584 0.931 . S
C575 C572 1.382 . S
C575 C577 1.390 . S
C575 H585 0.931 . S
C576 C572 1.390 . S
C576 C573 1.392 . S
C576 H586 0.930 . S
C577 C574 1.372 . S
C577 C575 1.390 . S
C577 H587 0.929 . S
C578 O558 1.255 . S
C578 O559 1.257 . S
C579 Eu515 2.787 . S
C579 O554 1.252 . S
C579 O557 1.268 . S
C579 C572 1.506 . S
H580 C563 0.931 . S
H581 C564 0.931 . S
H582 C565 0.929 . S
H583 C566 0.930 . S
H584 C574 0.931 . S
H585 C575 0.931 . S
H586 C576 0.930 . S
H587 C577 0.929 . S
Eu588 N617 2.600 . S
Eu588 N623 2.562 . S
Eu588 O632 2.462 . S
Eu588 O633 2.373 . S
Eu588 O635 2.432 . S
Eu588 O636 2.291 . S
Eu588 O640 2.335 . S
Eu588 O643 2.372 . S
Eu588 C652 2.787 . S
C589 N590 1.365 . S
C589 C592 1.405 . S
C589 C596 1.448 . S
N590 C589 1.365 . S
N590 C593 1.319 . S
N590 Eu599 2.600 . S
C591 C593 1.397 . S
C591 C594 1.367 . S
C591 H611 0.931 . S
C592 C589 1.405 . S
C592 C594 1.403 . S
C592 C598 1.439 . S
C593 N590 1.319 . S
C593 C591 1.397 . S
C593 H604 0.930 . S
C594 C591 1.367 . S
C594 C592 1.403 . S
C594 H615 0.929 . S
C595 C596 1.430 . S
C595 C597 1.387 . S
C595 C601 1.404 . S
C596 C589 1.448 . S
C596 C595 1.430 . S
C596 N600 1.351 . S
C597 C595 1.387 . S
C597 C598 1.374 . S
C597 H612 0.931 . S
C598 C592 1.439 . S
C598 C597 1.374 . S
C598 H613 0.931 . S
Eu599 N590 2.600 . S
Eu599 N600 2.562 . S
Eu599 O634 2.335 1_455 S
Eu599 O637 2.372 . S
Eu599 O638 2.462 1_455 S
Eu599 O639 2.373 . S
Eu599 O641 2.432 1_455 S
Eu599 O642 2.291 . S
Eu599 C663 2.787 1_455 S
N600 C596 1.351 . S
N600 Eu599 2.562 . S
N600 C602 1.325 . S
C601 C595 1.404 . S
C601 C603 1.366 . S
C601 H609 0.930 . S
C602 N600 1.325 . S
C602 C603 1.416 . S
C602 H608 0.929 . S
C603 C601 1.366 . S
C603 C602 1.416 . S
C603 H605 0.930 . S
H604 C593 0.930 . S
H605 C603 0.930 . S
H606 C621 0.930 . S
H607 C628 0.930 . S
H608 C602 0.929 . S
H609 C601 0.930 . S
H610 C624 0.929 . S
H611 C591 0.931 . S
H612 C597 0.931 . S
H613 C598 0.931 . S
H614 C619 0.931 . S
H615 C594 0.929 . S
H616 C627 0.930 . S
N617 Eu588 2.600 . S
N617 C618 1.365 . S
N617 C621 1.319 . S
C618 N617 1.365 . S
C618 C620 1.405 . S
C618 C626 1.448 . S
C619 H614 0.931 . S
C619 C621 1.397 . S
C619 C622 1.367 . S
C620 C618 1.405 . S
C620 C622 1.403 . S
C620 C653 1.439 . S
C621 H606 0.930 . S
C621 N617 1.319 . S
C621 C619 1.397 . S
C622 C619 1.367 . S
C622 C620 1.403 . S
C622 H629 0.929 . S
N623 Eu588 2.562 . S
N623 C624 1.325 . S
N623 C626 1.351 . S
C624 H610 0.929 . S
C624 N623 1.325 . S
C624 C628 1.416 . S
C625 C626 1.430 . S
C625 C627 1.404 . S
C625 C654 1.387 . S
C626 C618 1.448 . S
C626 N623 1.351 . S
C626 C625 1.430 . S
C627 H616 0.930 . S
C627 C625 1.404 . S
C627 C628 1.366 . S
C628 H607 0.930 . S
C628 C624 1.416 . S
C628 C627 1.366 . S
H629 C622 0.929 . S
H630 C653 0.931 . S
H631 C654 0.931 . S
O632 Eu588 2.462 . S
O632 C652 1.252 . S
O633 Eu588 2.373 . S
O633 C644 1.249 1_455 S
O634 Eu599 2.335 1_655 S
O634 C644 1.264 . S
O635 Eu588 2.432 . S
O635 C652 1.268 . S
O636 Eu588 2.291 . S
O636 C651 1.255 . S
O637 Eu599 2.372 . S
O637 C651 1.257 . S
O638 Eu599 2.462 1_655 S
O638 C663 1.252 . S
O639 Eu599 2.373 . S
O639 C655 1.249 . S
O640 Eu588 2.335 . S
O640 C655 1.264 . S
O641 Eu599 2.432 1_655 S
O641 C663 1.268 . S
O642 Eu599 2.291 . S
O642 C662 1.255 . S
O643 Eu588 2.372 . S
O643 C662 1.257 . S
C644 O633 1.249 1_655 S
C644 O634 1.264 . S
C645 C648 1.382 . S
C645 C650 1.390 . S
C645 C652 1.506 . S
C646 C647 1.398 . S
C646 C650 1.392 . S
C647 C646 1.398 . S
C647 C649 1.372 . S
C647 H664 0.931 . S
C648 C645 1.382 . S
C648 C649 1.390 . S
C648 H665 0.931 . S
C649 C647 1.372 . S
C649 C648 1.390 . S
C649 H666 0.929 . S
C650 C645 1.390 . S
C650 C646 1.392 . S
C650 H667 0.930 . S
C651 O636 1.255 . S
C651 O637 1.257 . S
C652 Eu588 2.787 . S
C652 O632 1.252 . S
C652 O635 1.268 . S
C652 C645 1.506 . S
C653 C620 1.439 . S
C653 H630 0.931 . S
C653 C654 1.374 . S
C654 C625 1.387 . S
C654 H631 0.931 . S
C654 C653 1.374 . S
C655 O639 1.249 . S
C655 O640 1.264 . S
C656 C659 1.382 . S
C656 C660 1.390 . S
C656 C663 1.506 . S
C657 C658 1.398 . S
C657 C660 1.392 . S
C658 C657 1.398 . S
C658 C661 1.372 . S
C658 H668 0.931 . S
C659 C656 1.382 . S
C659 C661 1.390 . S
C659 H669 0.931 . S
C660 C656 1.390 . S
C660 C657 1.392 . S
C660 H670 0.930 . S
C661 C658 1.372 . S
C661 C659 1.390 . S
C661 H671 0.929 . S
C662 O642 1.255 . S
C662 O643 1.257 . S
C663 Eu599 2.787 1_655 S
C663 O638 1.252 . S
C663 O641 1.268 . S
C663 C656 1.506 . S
H664 C647 0.931 . S
H665 C648 0.931 . S
H666 C649 0.929 . S
H667 C650 0.930 . S
H668 C658 0.931 . S
H669 C659 0.931 . S
H670 C660 0.930 . S
H671 C661 0.929 . S
Eu672 N701 2.600 . S
Eu672 N707 2.562 . S
Eu672 O716 2.462 . S
Eu672 O717 2.373 . S
Eu672 O719 2.432 . S
Eu672 O720 2.291 . S
Eu672 O724 2.335 . S
Eu672 O727 2.372 . S
Eu672 C736 2.787 . S
C673 N674 1.365 . S
C673 C676 1.405 . S
C673 C680 1.448 . S
N674 C673 1.365 . S
N674 C677 1.319 . S
N674 Eu683 2.600 . S
C675 C677 1.397 . S
C675 C678 1.367 . S
C675 H695 0.931 . S
C676 C673 1.405 . S
C676 C678 1.403 . S
C676 C682 1.439 . S
C677 N674 1.319 . S
C677 C675 1.397 . S
C677 H688 0.930 . S
C678 C675 1.367 . S
C678 C676 1.403 . S
C678 H699 0.929 . S
C679 C680 1.430 . S
C679 C681 1.387 . S
C679 C685 1.404 . S
C680 C673 1.448 . S
C680 C679 1.430 . S
C680 N684 1.351 . S
C681 C679 1.387 . S
C681 C682 1.374 . S
C681 H696 0.931 . S
C682 C676 1.439 . S
C682 C681 1.374 . S
C682 H697 0.931 . S
Eu683 N674 2.600 . S
Eu683 N684 2.562 . S
Eu683 O718 2.335 . S
Eu683 O721 2.372 . S
Eu683 O722 2.462 . S
Eu683 O723 2.373 . S
Eu683 O725 2.432 . S
Eu683 O726 2.291 . S
Eu683 C747 2.787 . S
N684 C680 1.351 . S
N684 Eu683 2.562 . S
N684 C686 1.325 . S
C685 C679 1.404 . S
C685 C687 1.366 . S
C685 H693 0.930 . S
C686 N684 1.325 . S
C686 C687 1.416 . S
C686 H692 0.929 . S
C687 C685 1.366 . S
C687 C686 1.416 . S
C687 H689 0.930 . S
H688 C677 0.930 . S
H689 C687 0.930 . S
H690 C705 0.930 . S
H691 C712 0.930 . S
H692 C686 0.929 . S
H693 C685 0.930 . S
H694 C708 0.929 . S
H695 C675 0.931 . S
H696 C681 0.931 . S
H697 C682 0.931 . S
H698 C703 0.931 . S
H699 C678 0.929 . S
H700 C711 0.930 . S
N701 Eu672 2.600 . S
N701 C702 1.365 . S
N701 C705 1.319 . S
C702 N701 1.365 . S
C702 C704 1.405 . S
C702 C710 1.448 . S
C703 H698 0.931 . S
C703 C705 1.397 . S
C703 C706 1.367 . S
C704 C702 1.405 . S
C704 C706 1.403 . S
C704 C737 1.439 . S
C705 H690 0.930 . S
C705 N701 1.319 . S
C705 C703 1.397 . S
C706 C703 1.367 . S
C706 C704 1.403 . S
C706 H713 0.929 . S
N707 Eu672 2.562 . S
N707 C708 1.325 . S
N707 C710 1.351 . S
C708 H694 0.929 . S
C708 N707 1.325 . S
C708 C712 1.416 . S
C709 C710 1.430 . S
C709 C711 1.404 . S
C709 C738 1.387 . S
C710 C702 1.448 . S
C710 N707 1.351 . S
C710 C709 1.430 . S
C711 H700 0.930 . S
C711 C709 1.404 . S
C711 C712 1.366 . S
C712 H691 0.930 . S
C712 C708 1.416 . S
C712 C711 1.366 . S
H713 C706 0.929 . S
H714 C737 0.931 . S
H715 C738 0.931 . S
O716 Eu672 2.462 . S
O716 C736 1.252 . S
O717 Eu672 2.373 . S
O717 C728 1.249 . S
O718 Eu683 2.335 . S
O718 C728 1.264 . S
O719 Eu672 2.432 . S
O719 C736 1.268 . S
O720 Eu672 2.291 . S
O720 C735 1.255 . S
O721 Eu683 2.372 . S
O721 C735 1.257 . S
O722 Eu683 2.462 . S
O722 C747 1.252 . S
O723 Eu683 2.373 . S
O723 C739 1.249 . S
O724 Eu672 2.335 . S
O724 C739 1.264 . S
O725 Eu683 2.432 . S
O725 C747 1.268 . S
O726 Eu683 2.291 . S
O726 C746 1.255 . S
O727 Eu672 2.372 . S
O727 C746 1.257 . S
C728 O717 1.249 . S
C728 O718 1.264 . S
C729 C732 1.382 . S
C729 C734 1.390 . S
C729 C736 1.506 . S
C730 C731 1.398 . S
C730 C734 1.392 . S
C731 C730 1.398 . S
C731 C733 1.372 . S
C731 H748 0.931 . S
C732 C729 1.382 . S
C732 C733 1.390 . S
C732 H749 0.931 . S
C733 C731 1.372 . S
C733 C732 1.390 . S
C733 H750 0.929 . S
C734 C729 1.390 . S
C734 C730 1.392 . S
C734 H751 0.930 . S
C735 O720 1.255 . S
C735 O721 1.257 . S
C736 Eu672 2.787 . S
C736 O716 1.252 . S
C736 O719 1.268 . S
C736 C729 1.506 . S
C737 C704 1.439 . S
C737 H714 0.931 . S
C737 C738 1.374 . S
C738 C709 1.387 . S
C738 H715 0.931 . S
C738 C737 1.374 . S
C739 O723 1.249 . S
C739 O724 1.264 . S
C740 C743 1.382 . S
C740 C744 1.390 . S
C740 C747 1.506 . S
C741 C742 1.398 . S
C741 C744 1.392 . S
C742 C741 1.398 . S
C742 C745 1.372 . S
C742 H752 0.931 . S
C743 C740 1.382 . S
C743 C745 1.390 . S
C743 H753 0.931 . S
C744 C740 1.390 . S
C744 C741 1.392 . S
C744 H754 0.930 . S
C745 C742 1.372 . S
C745 C743 1.390 . S
C745 H755 0.929 . S
C746 O726 1.255 . S
C746 O727 1.257 . S
C747 Eu683 2.787 . S
C747 O722 1.252 . S
C747 O725 1.268 . S
C747 C740 1.506 . S
H748 C731 0.931 . S
H749 C732 0.931 . S
H750 C733 0.929 . S
H751 C734 0.930 . S
H752 C742 0.931 . S
H753 C743 0.931 . S
H754 C744 0.930 . S
H755 C745 0.929 . S
Eu756 N785 2.600 1_655 S
Eu756 N791 2.562 1_655 S
Eu756 O800 2.462 . S
Eu756 O801 2.373 1_655 S
Eu756 O803 2.432 . S
Eu756 O804 2.291 1_655 S
Eu756 O808 2.335 . S
Eu756 O811 2.372 1_655 S
Eu756 C820 2.787 . S
C757 N758 1.365 . S
C757 C760 1.405 . S
C757 C764 1.448 . S
N758 C757 1.365 . S
N758 C761 1.319 . S
N758 Eu767 2.600 . S
C759 C761 1.397 . S
C759 C762 1.367 . S
C759 H779 0.931 . S
C760 C757 1.405 . S
C760 C762 1.403 . S
C760 C766 1.439 1_455 S
C761 N758 1.319 . S
C761 C759 1.397 . S
C761 H772 0.930 . S
C762 C759 1.367 . S
C762 C760 1.403 . S
C762 H783 0.929 1_455 S
C763 C764 1.430 . S
C763 C765 1.387 1_455 S
C763 C769 1.404 . S
C764 C757 1.448 . S
C764 C763 1.430 . S
C764 N768 1.351 . S
C765 C763 1.387 1_655 S
C765 C766 1.374 . S
C765 H780 0.931 . S
C766 C760 1.439 1_655 S
C766 C765 1.374 . S
C766 H781 0.931 . S
Eu767 N758 2.600 . S
Eu767 N768 2.562 . S
Eu767 O802 2.335 . S
Eu767 O805 2.372 . S
Eu767 O806 2.462 . S
Eu767 O807 2.373 1_455 S
Eu767 O809 2.432 . S
Eu767 O810 2.291 . S
Eu767 C831 2.787 . S
N768 C764 1.351 . S
N768 Eu767 2.562 . S
N768 C770 1.325 . S
C769 C763 1.404 . S
C769 C771 1.366 . S
C769 H777 0.930 1_455 S
C770 N768 1.325 . S
C770 C771 1.416 . S
C770 H776 0.929 . S
C771 C769 1.366 . S
C771 C770 1.416 . S
C771 H773 0.930 . S
H772 C761 0.930 . S
H773 C771 0.930 . S
H774 C789 0.930 . S
H775 C796 0.930 . S
H776 C770 0.929 . S
H777 C769 0.930 1_655 S
H778 C792 0.932 . S
H779 C759 0.931 . S
H780 C765 0.931 . S
H781 C766 0.931 . S
H782 C787 0.931 . S
H783 C762 0.929 1_655 S
H784 C795 0.930 . S
N785 Eu756 2.600 1_455 S
N785 C786 1.365 . S
N785 C789 1.319 . S
C786 N785 1.365 . S
C786 C788 1.405 . S
C786 C794 1.448 . S
C787 H782 0.931 . S
C787 C789 1.397 . S
C787 C790 1.367 . S
C788 C786 1.405 . S
C788 C790 1.403 . S
C788 C821 1.439 . S
C789 H774 0.930 . S
C789 N785 1.319 . S
C789 C787 1.397 . S
C790 C787 1.367 . S
C790 C788 1.403 . S
C790 H797 0.929 . S
N791 Eu756 2.562 1_455 S
N791 C792 1.325 . S
N791 C794 1.351 . S
C792 H778 0.932 . S
C792 N791 1.325 . S
C792 C796 1.416 . S
C793 C794 1.430 . S
C793 C795 1.404 . S
C793 C822 1.387 . S
C794 C786 1.448 . S
C794 N791 1.351 . S
C794 C793 1.430 . S
C795 H784 0.930 . S
C795 C793 1.404 . S
C795 C796 1.366 . S
C796 H775 0.930 . S
C796 C792 1.416 . S
C796 C795 1.366 . S
H797 C790 0.929 . S
H798 C821 0.931 . S
H799 C822 0.931 . S
O800 Eu756 2.462 . S
O800 C820 1.252 . S
O801 Eu756 2.373 1_455 S
O801 C812 1.249 . S
O802 Eu767 2.335 . S
O802 C812 1.264 . S
O803 Eu756 2.432 . S
O803 C820 1.268 . S
O804 Eu756 2.291 1_455 S
O804 C819 1.255 . S
O805 Eu767 2.372 . S
O805 C819 1.257 . S
O806 Eu767 2.462 . S
O806 C831 1.252 . S
O807 Eu767 2.373 1_655 S
O807 C823 1.249 . S
O808 Eu756 2.335 . S
O808 C823 1.264 . S
O809 Eu767 2.432 . S
O809 C831 1.268 . S
O810 Eu767 2.291 . S
O810 C830 1.255 . S
O811 Eu756 2.372 1_455 S
O811 C830 1.257 . S
C812 O801 1.249 . S
C812 O802 1.264 . S
C813 C816 1.382 . S
C813 C818 1.390 . S
C813 C820 1.506 . S
C814 C815 1.398 . S
C814 C818 1.392 . S
C815 C814 1.398 . S
C815 C817 1.372 . S
C815 H832 0.931 . S
C816 C813 1.382 . S
C816 C817 1.390 . S
C816 H833 0.931 . S
C817 C815 1.372 . S
C817 C816 1.390 . S
C817 H834 0.929 . S
C818 C813 1.390 . S
C818 C814 1.392 . S
C818 H835 0.930 . S
C819 O804 1.255 . S
C819 O805 1.257 . S
C820 Eu756 2.787 . S
C820 O800 1.252 . S
C820 O803 1.268 . S
C820 C813 1.506 . S
C821 C788 1.439 . S
C821 H798 0.931 . S
C821 C822 1.374 . S
C822 C793 1.387 . S
C822 H799 0.931 . S
C822 C821 1.374 . S
C823 O807 1.249 . S
C823 O808 1.264 . S
C824 C827 1.382 . S
C824 C828 1.390 . S
C824 C831 1.506 . S
C825 C826 1.398 . S
C825 C828 1.392 . S
C826 C825 1.398 . S
C826 C829 1.372 . S
C826 H836 0.931 . S
C827 C824 1.382 . S
C827 C829 1.390 . S
C827 H837 0.931 . S
C828 C824 1.390 . S
C828 C825 1.392 . S
C828 H838 0.930 . S
C829 C826 1.372 . S
C829 C827 1.390 . S
C829 H839 0.929 . S
C830 O810 1.255 . S
C830 O811 1.257 . S
C831 Eu767 2.787 . S
C831 O806 1.252 . S
C831 O809 1.268 . S
C831 C824 1.506 . S
H832 C815 0.931 . S
H833 C816 0.931 . S
H834 C817 0.929 . S
H835 C818 0.930 . S
H836 C826 0.931 . S
H837 C827 0.931 . S
H838 C828 0.930 . S
H839 C829 0.929 . S
Eu840 N869 2.600 . S
Eu840 N875 2.562 . S
Eu840 O884 2.462 . S
Eu840 O885 2.373 . S
Eu840 O887 2.432 . S
Eu840 O888 2.291 . S
Eu840 O892 2.335 . S
Eu840 O895 2.372 . S
Eu840 C904 2.787 . S
C841 N842 1.365 . S
C841 C844 1.405 . S
C841 C848 1.448 . S
N842 C841 1.365 . S
N842 C845 1.319 . S
N842 Eu851 2.600 . S
C843 C845 1.397 . S
C843 C846 1.367 . S
C843 H863 0.931 . S
C844 C841 1.405 . S
C844 C846 1.403 . S
C844 C850 1.439 . S
C845 N842 1.319 . S
C845 C843 1.397 . S
C845 H856 0.930 . S
C846 C843 1.367 . S
C846 C844 1.403 . S
C846 H867 0.929 . S
C847 C848 1.430 . S
C847 C849 1.387 . S
C847 C853 1.404 . S
C848 C841 1.448 . S
C848 C847 1.430 . S
C848 N852 1.351 . S
C849 C847 1.387 . S
C849 C850 1.374 . S
C849 H864 0.931 . S
C850 C844 1.439 . S
C850 C849 1.374 . S
C850 H865 0.931 . S
Eu851 N842 2.600 . S
Eu851 N852 2.562 . S
Eu851 O886 2.335 . S
Eu851 O889 2.372 . S
Eu851 O890 2.462 . S
Eu851 O891 2.373 . S
Eu851 O893 2.432 . S
Eu851 O894 2.291 . S
Eu851 C915 2.787 . S
N852 C848 1.351 . S
N852 Eu851 2.562 . S
N852 C854 1.325 . S
C853 C847 1.404 . S
C853 C855 1.366 . S
C853 H861 0.930 . S
C854 N852 1.325 . S
C854 C855 1.416 . S
C854 H860 0.929 . S
C855 C853 1.366 . S
C855 C854 1.416 . S
C855 H857 0.930 . S
H856 C845 0.930 . S
H857 C855 0.930 . S
H858 C873 0.930 . S
H859 C880 0.930 . S
H860 C854 0.929 . S
H861 C853 0.930 . S
H862 C876 0.929 . S
H863 C843 0.931 . S
H864 C849 0.931 . S
H865 C850 0.931 . S
H866 C871 0.931 . S
H867 C846 0.929 . S
H868 C879 0.930 . S
N869 Eu840 2.600 . S
N869 C870 1.365 . S
N869 C873 1.319 . S
C870 N869 1.365 . S
C870 C872 1.405 . S
C870 C878 1.448 . S
C871 H866 0.931 . S
C871 C873 1.397 . S
C871 C874 1.367 . S
C872 C870 1.405 . S
C872 C874 1.403 . S
C872 C905 1.439 . S
C873 H858 0.930 . S
C873 N869 1.319 . S
C873 C871 1.397 . S
C874 C871 1.367 . S
C874 C872 1.403 . S
C874 H881 0.929 . S
N875 Eu840 2.562 . S
N875 C876 1.325 . S
N875 C878 1.351 . S
C876 H862 0.929 . S
C876 N875 1.325 . S
C876 C880 1.416 . S
C877 C878 1.430 . S
C877 C879 1.404 . S
C877 C906 1.387 . S
C878 C870 1.448 . S
C878 N875 1.351 . S
C878 C877 1.430 . S
C879 H868 0.930 . S
C879 C877 1.404 . S
C879 C880 1.366 . S
C880 H859 0.930 . S
C880 C876 1.416 . S
C880 C879 1.366 . S
H881 C874 0.929 . S
H882 C905 0.931 . S
H883 C906 0.931 . S
O884 Eu840 2.462 . S
O884 C904 1.252 . S
O885 Eu840 2.373 . S
O885 C896 1.249 . S
O886 Eu851 2.335 . S
O886 C896 1.264 . S
O887 Eu840 2.432 . S
O887 C904 1.268 . S
O888 Eu840 2.291 . S
O888 C903 1.255 . S
O889 Eu851 2.372 . S
O889 C903 1.257 . S
O890 Eu851 2.462 . S
O890 C915 1.252 . S
O891 Eu851 2.373 . S
O891 C907 1.249 . S
O892 Eu840 2.335 . S
O892 C907 1.264 . S
O893 Eu851 2.432 . S
O893 C915 1.268 . S
O894 Eu851 2.291 . S
O894 C914 1.255 . S
O895 Eu840 2.372 . S
O895 C914 1.257 . S
C896 O885 1.249 . S
C896 O886 1.264 . S
C897 C900 1.382 . S
C897 C902 1.390 . S
C897 C904 1.506 . S
C898 C899 1.398 . S
C898 C902 1.392 . S
C899 C898 1.398 . S
C899 C901 1.372 . S
C899 H916 0.931 . S
C900 C897 1.382 . S
C900 C901 1.390 . S
C900 H917 0.931 . S
C901 C899 1.372 . S
C901 C900 1.390 . S
C901 H918 0.929 . S
C902 C897 1.390 . S
C902 C898 1.392 . S
C902 H919 0.930 . S
C903 O888 1.255 . S
C903 O889 1.257 . S
C904 Eu840 2.787 . S
C904 O884 1.252 . S
C904 O887 1.268 . S
C904 C897 1.506 . S
C905 C872 1.439 . S
C905 H882 0.931 . S
C905 C906 1.374 . S
C906 C877 1.387 . S
C906 H883 0.931 . S
C906 C905 1.374 . S
C907 O891 1.249 . S
C907 O892 1.264 . S
C908 C911 1.382 . S
C908 C912 1.390 . S
C908 C915 1.506 . S
C909 C910 1.398 . S
C909 C912 1.392 . S
C910 C909 1.398 . S
C910 C913 1.372 . S
C910 H920 0.931 . S
C911 C908 1.382 . S
C911 C913 1.390 . S
C911 H921 0.931 . S
C912 C908 1.390 . S
C912 C909 1.392 . S
C912 H922 0.930 . S
C913 C910 1.372 . S
C913 C911 1.390 . S
C913 H923 0.929 . S
C914 O894 1.255 . S
C914 O895 1.257 . S
C915 Eu851 2.787 . S
C915 O890 1.252 . S
C915 O893 1.268 . S
C915 C908 1.506 . S
H916 C899 0.931 . S
H917 C900 0.931 . S
H918 C901 0.929 . S
H919 C902 0.930 . S
H920 C910 0.931 . S
H921 C911 0.931 . S
H922 C912 0.930 . S
H923 C913 0.929 . S
Eu924 N953 2.600 . S
Eu924 N959 2.562 . S
Eu924 O968 2.462 . S
Eu924 O969 2.373 . S
Eu924 O971 2.432 . S
Eu924 O972 2.291 . S
Eu924 O976 2.335 . S
Eu924 O979 2.372 . S
Eu924 C988 2.787 . S
C925 N926 1.365 . S
C925 C928 1.405 . S
C925 C932 1.448 . S
N926 C925 1.365 . S
N926 C929 1.319 . S
N926 Eu935 2.600 . S
C927 C929 1.397 . S
C927 C930 1.367 . S
C927 H947 0.931 . S
C928 C925 1.405 . S
C928 C930 1.403 . S
C928 C934 1.439 . S
C929 N926 1.319 . S
C929 C927 1.397 . S
C929 H940 0.930 . S
C930 C927 1.367 . S
C930 C928 1.403 . S
C930 H951 0.929 . S
C931 C932 1.430 . S
C931 C933 1.387 . S
C931 C937 1.404 . S
C932 C925 1.448 . S
C932 C931 1.430 . S
C932 N936 1.351 . S
C933 C931 1.387 . S
C933 C934 1.374 . S
C933 H948 0.931 . S
C934 C928 1.439 . S
C934 C933 1.374 . S
C934 H949 0.931 . S
Eu935 N926 2.600 . S
Eu935 N936 2.562 . S
Eu935 O970 2.335 1_545 S
Eu935 O973 2.372 . S
Eu935 O974 2.462 1_545 S
Eu935 O975 2.373 . S
Eu935 O977 2.432 1_545 S
Eu935 O978 2.291 . S
Eu935 C999 2.787 1_545 S
N936 C932 1.351 . S
N936 Eu935 2.562 . S
N936 C938 1.325 . S
C937 C931 1.404 . S
C937 C939 1.366 . S
C937 H945 0.930 . S
C938 N936 1.325 . S
C938 C939 1.416 . S
C938 H944 0.929 . S
C939 C937 1.366 . S
C939 C938 1.416 . S
C939 H941 0.930 . S
H940 C929 0.930 . S
H941 C939 0.930 . S
H942 C957 0.930 . S
H943 C964 0.930 . S
H944 C938 0.929 . S
H945 C937 0.930 . S
H946 C960 0.929 . S
H947 C927 0.931 . S
H948 C933 0.931 . S
H949 C934 0.931 . S
H950 C955 0.931 . S
H951 C930 0.929 . S
H952 C963 0.930 . S
N953 Eu924 2.600 . S
N953 C954 1.365 . S
N953 C957 1.319 . S
C954 N953 1.365 . S
C954 C956 1.405 . S
C954 C962 1.448 . S
C955 H950 0.931 . S
C955 C957 1.397 . S
C955 C958 1.367 . S
C956 C954 1.405 . S
C956 C958 1.403 . S
C956 C989 1.439 . S
C957 H942 0.930 . S
C957 N953 1.319 . S
C957 C955 1.397 . S
C958 C955 1.367 . S
C958 C956 1.403 . S
C958 H965 0.929 . S
N959 Eu924 2.562 . S
N959 C960 1.325 . S
N959 C962 1.351 . S
C960 H946 0.929 . S
C960 N959 1.325 . S
C960 C964 1.416 . S
C961 C962 1.430 . S
C961 C963 1.404 . S
C961 C990 1.387 . S
C962 C954 1.448 . S
C962 N959 1.351 . S
C962 C961 1.430 . S
C963 H952 0.930 . S
C963 C961 1.404 . S
C963 C964 1.366 . S
C964 H943 0.930 . S
C964 C960 1.416 . S
C964 C963 1.366 . S
H965 C958 0.929 . S
H966 C989 0.931 . S
H967 C990 0.931 . S
O968 Eu924 2.462 . S
O968 C988 1.252 . S
O969 Eu924 2.373 . S
O969 C980 1.249 1_545 S
O970 Eu935 2.335 1_565 S
O970 C980 1.264 . S
O971 Eu924 2.432 . S
O971 C988 1.268 . S
O972 Eu924 2.291 . S
O972 C987 1.255 . S
O973 Eu935 2.372 . S
O973 C987 1.257 . S
O974 Eu935 2.462 1_565 S
O974 C999 1.252 . S
O975 Eu935 2.373 . S
O975 C991 1.249 . S
O976 Eu924 2.335 . S
O976 C991 1.264 . S
O977 Eu935 2.432 1_565 S
O977 C999 1.268 . S
O978 Eu935 2.291 . S
O978 C998 1.255 . S
O979 Eu924 2.372 . S
O979 C998 1.257 . S
C980 O969 1.249 1_565 S
C980 O970 1.264 . S
C981 C984 1.382 . S
C981 C986 1.390 . S
C981 C988 1.506 . S
C982 C983 1.398 . S
C982 C986 1.392 . S
C983 C982 1.398 . S
C983 C985 1.372 . S
C983 H1000 0.931 . S
C984 C981 1.382 . S
C984 C985 1.390 . S
C984 H1001 0.931 . S
C985 C983 1.372 . S
C985 C984 1.390 . S
C985 H1002 0.929 . S
C986 C981 1.390 . S
C986 C982 1.392 . S
C986 H1003 0.930 . S
C987 O972 1.255 . S
C987 O973 1.257 . S
C988 Eu924 2.787 . S
C988 O968 1.252 . S
C988 O971 1.268 . S
C988 C981 1.506 . S
C989 C956 1.439 . S
C989 H966 0.931 . S
C989 C990 1.374 . S
C990 C961 1.387 . S
C990 H967 0.931 . S
C990 C989 1.374 . S
C991 O975 1.249 . S
C991 O976 1.264 . S
C992 C995 1.382 . S
C992 C996 1.390 . S
C992 C999 1.506 . S
C993 C994 1.398 . S
C993 C996 1.392 . S
C994 C993 1.398 . S
C994 C997 1.372 . S
C994 H1004 0.931 . S
C995 C992 1.382 . S
C995 C997 1.390 . S
C995 H1005 0.931 . S
C996 C992 1.390 . S
C996 C993 1.392 . S
C996 H1006 0.930 . S
C997 C994 1.372 . S
C997 C995 1.390 . S
C997 H1007 0.929 . S
C998 O978 1.255 . S
C998 O979 1.257 . S
C999 Eu935 2.787 1_565 S
C999 O974 1.252 . S
C999 O977 1.268 . S
C999 C992 1.506 . S
H1000 C983 0.931 . S
H1001 C984 0.931 . S
H1002 C985 0.929 . S
H1003 C986 0.930 . S
H1004 C994 0.931 . S
H1005 C995 0.931 . S
H1006 C996 0.930 . S
H1007 C997 0.929 . S
Eu1008 N1037 2.600 . S
Eu1008 N1043 2.562 . S
Eu1008 O1052 2.462 . S
Eu1008 O1053 2.373 . S
Eu1008 O1055 2.432 . S
Eu1008 O1056 2.291 . S
Eu1008 O1060 2.335 . S
Eu1008 O1063 2.372 . S
Eu1008 C1072 2.787 . S
C1009 N1010 1.365 . S
C1009 C1012 1.405 . S
C1009 C1016 1.448 . S
N1010 C1009 1.365 . S
N1010 C1013 1.319 . S
N1010 Eu1019 2.600 . S
C1011 C1013 1.397 . S
C1011 C1014 1.367 . S
C1011 H1031 0.931 . S
C1012 C1009 1.405 . S
C1012 C1014 1.403 . S
C1012 C1018 1.439 . S
C1013 N1010 1.319 . S
C1013 C1011 1.397 . S
C1013 H1024 0.930 . S
C1014 C1011 1.367 . S
C1014 C1012 1.403 . S
C1014 H1035 0.929 . S
C1015 C1016 1.430 . S
C1015 C1017 1.387 1_455 S
C1015 C1021 1.404 . S
C1016 C1009 1.448 . S
C1016 C1015 1.430 . S
C1016 N1020 1.351 . S
C1017 C1015 1.387 1_655 S
C1017 C1018 1.374 1_655 S
C1017 H1032 0.931 . S
C1018 C1012 1.439 . S
C1018 C1017 1.374 1_455 S
C1018 H1033 0.931 1_455 S
Eu1019 N1010 2.600 . S
Eu1019 N1020 2.562 . S
Eu1019 O1054 2.335 . S
Eu1019 O1057 2.372 . S
Eu1019 O1058 2.462 . S
Eu1019 O1059 2.373 . S
Eu1019 O1061 2.432 . S
Eu1019 O1062 2.291 . S
Eu1019 C1083 2.787 . S
N1020 C1016 1.351 . S
N1020 Eu1019 2.562 . S
N1020 C1022 1.325 . S
C1021 C1015 1.404 . S
C1021 C1023 1.366 . S
C1021 H1029 0.930 1_455 S
C1022 N1020 1.325 . S
C1022 C1023 1.416 . S
C1022 H1028 0.929 . S
C1023 C1021 1.366 . S
C1023 C1022 1.416 . S
C1023 H1025 0.930 . S
H1024 C1013 0.930 . S
H1025 C1023 0.930 . S
H1026 C1041 0.930 . S
H1027 C1048 0.930 . S
H1028 C1022 0.929 . S
H1029 C1021 0.930 1_655 S
H1030 C1044 0.929 . S
H1031 C1011 0.931 . S
H1032 C1017 0.931 . S
H1033 C1018 0.931 1_655 S
H1034 C1039 0.931 . S
H1035 C1014 0.929 . S
H1036 C1047 0.930 . S
N1037 Eu1008 2.600 . S
N1037 C1038 1.365 . S
N1037 C1041 1.319 . S
C1038 N1037 1.365 . S
C1038 C1040 1.405 . S
C1038 C1046 1.448 . S
C1039 H1034 0.931 . S
C1039 C1041 1.397 . S
C1039 C1042 1.367 . S
C1040 C1038 1.405 . S
C1040 C1042 1.403 . S
C1040 C1073 1.439 . S
C1041 H1026 0.930 . S
C1041 N1037 1.319 . S
C1041 C1039 1.397 . S
C1042 C1039 1.367 . S
C1042 C1040 1.403 . S
C1042 H1049 0.929 . S
N1043 Eu1008 2.562 . S
N1043 C1044 1.325 . S
N1043 C1046 1.351 . S
C1044 H1030 0.929 . S
C1044 N1043 1.325 . S
C1044 C1048 1.416 . S
C1045 C1046 1.430 . S
C1045 C1047 1.404 . S
C1045 C1074 1.387 . S
C1046 C1038 1.448 . S
C1046 N1043 1.351 . S
C1046 C1045 1.430 . S
C1047 H1036 0.930 . S
C1047 C1045 1.404 . S
C1047 C1048 1.366 . S
C1048 H1027 0.930 . S
C1048 C1044 1.416 . S
C1048 C1047 1.366 . S
H1049 C1042 0.929 . S
H1050 C1073 0.931 . S
H1051 C1074 0.931 . S
O1052 Eu1008 2.462 . S
O1052 C1072 1.252 . S
O1053 Eu1008 2.373 . S
O1053 C1064 1.249 . S
O1054 Eu1019 2.335 . S
O1054 C1064 1.264 . S
O1055 Eu1008 2.432 . S
O1055 C1072 1.268 . S
O1056 Eu1008 2.291 . S
O1056 C1071 1.255 . S
O1057 Eu1019 2.372 . S
O1057 C1071 1.257 . S
O1058 Eu1019 2.462 . S
O1058 C1083 1.252 . S
O1059 Eu1019 2.373 . S
O1059 C1075 1.249 . S
O1060 Eu1008 2.335 . S
O1060 C1075 1.264 . S
O1061 Eu1019 2.432 . S
O1061 C1083 1.268 . S
O1062 Eu1019 2.291 . S
O1062 C1082 1.255 . S
O1063 Eu1008 2.372 . S
O1063 C1082 1.257 . S
C1064 O1053 1.249 . S
C1064 O1054 1.264 . S
C1065 C1068 1.382 . S
C1065 C1070 1.390 . S
C1065 C1072 1.506 . S
C1066 C1067 1.398 . S
C1066 C1070 1.392 . S
C1067 C1066 1.398 . S
C1067 C1069 1.372 . S
C1067 H1084 0.931 . S
C1068 C1065 1.382 . S
C1068 C1069 1.390 . S
C1068 H1085 0.931 . S
C1069 C1067 1.372 . S
C1069 C1068 1.390 . S
C1069 H1086 0.929 . S
C1070 C1065 1.390 . S
C1070 C1066 1.392 . S
C1070 H1087 0.930 . S
C1071 O1056 1.255 . S
C1071 O1057 1.257 . S
C1072 Eu1008 2.787 . S
C1072 O1052 1.252 . S
C1072 O1055 1.268 . S
C1072 C1065 1.506 . S
C1073 C1040 1.439 . S
C1073 H1050 0.931 . S
C1073 C1074 1.374 . S
C1074 C1045 1.387 . S
C1074 H1051 0.931 . S
C1074 C1073 1.374 . S
C1075 O1059 1.249 . S
C1075 O1060 1.264 . S
C1076 C1079 1.382 . S
C1076 C1080 1.390 . S
C1076 C1083 1.506 . S
C1077 C1078 1.398 . S
C1077 C1080 1.392 . S
C1078 C1077 1.398 . S
C1078 C1081 1.372 . S
C1078 H1088 0.931 . S
C1079 C1076 1.382 . S
C1079 C1081 1.390 . S
C1079 H1089 0.931 . S
C1080 C1076 1.390 . S
C1080 C1077 1.392 . S
C1080 H1090 0.930 . S
C1081 C1078 1.372 . S
C1081 C1079 1.390 . S
C1081 H1091 0.929 . S
C1082 O1062 1.255 . S
C1082 O1063 1.257 . S
C1083 Eu1019 2.787 . S
C1083 O1058 1.252 . S
C1083 O1061 1.268 . S
C1083 C1076 1.506 . S
H1084 C1067 0.931 . S
H1085 C1068 0.931 . S
H1086 C1069 0.929 . S
H1087 C1070 0.930 . S
H1088 C1078 0.931 . S
H1089 C1079 0.931 . S
H1090 C1080 0.930 . S
H1091 C1081 0.929 . S
Eu1092 N1121 2.600 . S
Eu1092 N1127 2.562 . S
Eu1092 O1136 2.462 . S
Eu1092 O1137 2.373 . S
Eu1092 O1139 2.432 . S
Eu1092 O1140 2.291 . S
Eu1092 O1144 2.335 . S
Eu1092 O1147 2.372 . S
Eu1092 C1156 2.787 . S
C1093 N1094 1.365 . S
C1093 C1096 1.405 . S
C1093 C1100 1.448 . S
N1094 C1093 1.365 . S
N1094 C1097 1.319 . S
N1094 Eu1103 2.600 . S
C1095 C1097 1.397 . S
C1095 C1098 1.367 . S
C1095 H1115 0.931 . S
C1096 C1093 1.405 . S
C1096 C1098 1.403 . S
C1096 C1102 1.439 . S
C1097 N1094 1.319 . S
C1097 C1095 1.397 . S
C1097 H1108 0.930 . S
C1098 C1095 1.367 . S
C1098 C1096 1.403 . S
C1098 H1119 0.929 . S
C1099 C1100 1.430 . S
C1099 C1101 1.387 . S
C1099 C1105 1.404 . S
C1100 C1093 1.448 . S
C1100 C1099 1.430 . S
C1100 N1104 1.351 . S
C1101 C1099 1.387 . S
C1101 C1102 1.374 . S
C1101 H1116 0.931 . S
C1102 C1096 1.439 . S
C1102 C1101 1.374 . S
C1102 H1117 0.931 . S
Eu1103 N1094 2.600 . S
Eu1103 N1104 2.562 . S
Eu1103 O1138 2.335 . S
Eu1103 O1141 2.372 . S
Eu1103 O1142 2.462 . S
Eu1103 O1143 2.373 . S
Eu1103 O1145 2.432 . S
Eu1103 O1146 2.291 . S
Eu1103 C1167 2.787 . S
N1104 C1100 1.351 . S
N1104 Eu1103 2.562 . S
N1104 C1106 1.325 . S
C1105 C1099 1.404 . S
C1105 C1107 1.366 . S
C1105 H1113 0.930 . S
C1106 N1104 1.325 . S
C1106 C1107 1.416 . S
C1106 H1112 0.929 . S
C1107 C1105 1.366 . S
C1107 C1106 1.416 . S
C1107 H1109 0.930 . S
H1108 C1097 0.930 . S
H1109 C1107 0.930 . S
H1110 C1125 0.930 . S
H1111 C1132 0.930 . S
H1112 C1106 0.929 . S
H1113 C1105 0.930 . S
H1114 C1128 0.929 . S
H1115 C1095 0.931 . S
H1116 C1101 0.931 . S
H1117 C1102 0.931 . S
H1118 C1123 0.931 . S
H1119 C1098 0.929 . S
H1120 C1131 0.930 1_545 S
N1121 Eu1092 2.600 . S
N1121 C1122 1.365 . S
N1121 C1125 1.319 . S
C1122 N1121 1.365 . S
C1122 C1124 1.405 . S
C1122 C1130 1.448 . S
C1123 H1118 0.931 . S
C1123 C1125 1.397 . S
C1123 C1126 1.367 . S
C1124 C1122 1.405 . S
C1124 C1126 1.403 . S
C1124 C1157 1.439 . S
C1125 H1110 0.930 . S
C1125 N1121 1.319 . S
C1125 C1123 1.397 . S
C1126 C1123 1.367 . S
C1126 C1124 1.403 . S
C1126 H1133 0.929 . S
N1127 Eu1092 2.562 . S
N1127 C1128 1.325 . S
N1127 C1130 1.351 . S
C1128 H1114 0.929 . S
C1128 N1127 1.325 . S
C1128 C1132 1.416 . S
C1129 C1130 1.430 . S
C1129 C1131 1.404 . S
C1129 C1158 1.387 . S
C1130 C1122 1.448 . S
C1130 N1127 1.351 . S
C1130 C1129 1.430 . S
C1131 H1120 0.930 1_565 S
C1131 C1129 1.404 . S
C1131 C1132 1.366 . S
C1132 H1111 0.930 . S
C1132 C1128 1.416 . S
C1132 C1131 1.366 . S
H1133 C1126 0.929 . S
H1134 C1157 0.931 . S
H1135 C1158 0.931 1_545 S
O1136 Eu1092 2.462 . S
O1136 C1156 1.252 . S
O1137 Eu1092 2.373 . S
O1137 C1148 1.249 . S
O1138 Eu1103 2.335 . S
O1138 C1148 1.264 . S
O1139 Eu1092 2.432 . S
O1139 C1156 1.268 . S
O1140 Eu1092 2.291 . S
O1140 C1155 1.255 . S
O1141 Eu1103 2.372 . S
O1141 C1155 1.257 . S
O1142 Eu1103 2.462 . S
O1142 C1167 1.252 . S
O1143 Eu1103 2.373 . S
O1143 C1159 1.249 . S
O1144 Eu1092 2.335 . S
O1144 C1159 1.264 . S
O1145 Eu1103 2.432 . S
O1145 C1167 1.268 . S
O1146 Eu1103 2.291 . S
O1146 C1166 1.255 . S
O1147 Eu1092 2.372 . S
O1147 C1166 1.257 . S
C1148 O1137 1.249 . S
C1148 O1138 1.264 . S
C1149 C1152 1.382 1_565 S
C1149 C1154 1.390 1_565 S
C1149 C1156 1.506 . S
C1150 C1151 1.398 . S
C1150 C1154 1.392 . S
C1151 C1150 1.398 . S
C1151 C1153 1.372 . S
C1151 H1168 0.931 . S
C1152 C1149 1.382 1_545 S
C1152 C1153 1.390 . S
C1152 H1169 0.931 1_545 S
C1153 C1151 1.372 . S
C1153 C1152 1.390 . S
C1153 H1170 0.929 . S
C1154 C1149 1.390 1_545 S
C1154 C1150 1.392 . S
C1154 H1171 0.930 . S
C1155 O1140 1.255 . S
C1155 O1141 1.257 . S
C1156 Eu1092 2.787 . S
C1156 O1136 1.252 . S
C1156 O1139 1.268 . S
C1156 C1149 1.506 . S
C1157 C1124 1.439 . S
C1157 H1134 0.931 . S
C1157 C1158 1.374 . S
C1158 C1129 1.387 . S
C1158 H1135 0.931 1_565 S
C1158 C1157 1.374 . S
C1159 O1143 1.249 . S
C1159 O1144 1.264 . S
C1160 C1163 1.382 . S
C1160 C1164 1.390 . S
C1160 C1167 1.506 . S
C1161 C1162 1.398 . S
C1161 C1164 1.392 . S
C1162 C1161 1.398 . S
C1162 C1165 1.372 . S
C1162 H1172 0.931 . S
C1163 C1160 1.382 . S
C1163 C1165 1.390 . S
C1163 H1173 0.931 . S
C1164 C1160 1.390 . S
C1164 C1161 1.392 . S
C1164 H1174 0.930 . S
C1165 C1162 1.372 . S
C1165 C1163 1.390 . S
C1165 H1175 0.929 . S
C1166 O1146 1.255 . S
C1166 O1147 1.257 . S
C1167 Eu1103 2.787 . S
C1167 O1142 1.252 . S
C1167 O1145 1.268 . S
C1167 C1160 1.506 . S
H1168 C1151 0.931 . S
H1169 C1152 0.931 1_565 S
H1170 C1153 0.929 . S
H1171 C1154 0.930 . S
H1172 C1162 0.931 . S
H1173 C1163 0.931 . S
H1174 C1164 0.930 . S
H1175 C1165 0.929 . S
Eu1176 N1205 2.600 . S
Eu1176 N1211 2.562 . S
Eu1176 O1220 2.462 . S
Eu1176 O1221 2.373 . S
Eu1176 O1223 2.432 . S
Eu1176 O1224 2.291 . S
Eu1176 O1228 2.335 . S
Eu1176 O1231 2.372 . S
Eu1176 C1240 2.787 . S
C1177 N1178 1.365 . S
C1177 C1180 1.405 1_565 S
C1177 C1184 1.448 1_565 S
N1178 C1177 1.365 . S
N1178 C1181 1.319 . S
N1178 Eu1187 2.600 . S
C1179 C1181 1.397 . S
C1179 C1182 1.367 1_565 S
C1179 H1199 0.931 . S
C1180 C1177 1.405 1_545 S
C1180 C1182 1.403 . S
C1180 C1186 1.439 . S
C1181 N1178 1.319 . S
C1181 C1179 1.397 . S
C1181 H1192 0.930 . S
C1182 C1179 1.367 1_545 S
C1182 C1180 1.403 . S
C1182 H1203 0.929 . S
C1183 C1184 1.430 . S
C1183 C1185 1.387 . S
C1183 C1189 1.404 . S
C1184 C1177 1.448 1_545 S
C1184 C1183 1.430 . S
C1184 N1188 1.351 1_545 S
C1185 C1183 1.387 . S
C1185 C1186 1.374 . S
C1185 H1200 0.931 . S
C1186 C1180 1.439 . S
C1186 C1185 1.374 . S
C1186 H1201 0.931 . S
Eu1187 N1178 2.600 . S
Eu1187 N1188 2.562 . S
Eu1187 O1222 2.335 . S
Eu1187 O1225 2.372 . S
Eu1187 O1226 2.462 . S
Eu1187 O1227 2.373 . S
Eu1187 O1229 2.432 . S
Eu1187 O1230 2.291 . S
Eu1187 C1251 2.787 . S
N1188 C1184 1.351 1_565 S
N1188 Eu1187 2.562 . S
N1188 C1190 1.325 . S
C1189 C1183 1.404 . S
C1189 C1191 1.366 . S
C1189 H1197 0.930 . S
C1190 N1188 1.325 . S
C1190 C1191 1.416 1_565 S
C1190 H1196 0.929 . S
C1191 C1189 1.366 . S
C1191 C1190 1.416 1_545 S
C1191 H1193 0.930 . S
H1192 C1181 0.930 . S
H1193 C1191 0.930 . S
H1194 C1209 0.930 . S
H1195 C1216 0.930 . S
H1196 C1190 0.929 . S
H1197 C1189 0.930 . S
H1198 C1212 0.929 . S
H1199 C1179 0.931 . S
H1200 C1185 0.931 . S
H1201 C1186 0.931 . S
H1202 C1207 0.931 . S
H1203 C1182 0.929 . S
H1204 C1215 0.930 . S
N1205 Eu1176 2.600 . S
N1205 C1206 1.365 . S
N1205 C1209 1.319 . S
C1206 N1205 1.365 . S
C1206 C1208 1.405 . S
C1206 C1214 1.448 . S
C1207 H1202 0.931 . S
C1207 C1209 1.397 . S
C1207 C1210 1.367 . S
C1208 C1206 1.405 . S
C1208 C1210 1.403 . S
C1208 C1241 1.439 . S
C1209 H1194 0.930 . S
C1209 N1205 1.319 . S
C1209 C1207 1.397 . S
C1210 C1207 1.367 . S
C1210 C1208 1.403 . S
C1210 H1217 0.929 . S
N1211 Eu1176 2.562 . S
N1211 C1212 1.325 . S
N1211 C1214 1.351 . S
C1212 H1198 0.929 . S
C1212 N1211 1.325 . S
C1212 C1216 1.416 . S
C1213 C1214 1.430 . S
C1213 C1215 1.404 . S
C1213 C1242 1.387 . S
C1214 C1206 1.448 . S
C1214 N1211 1.351 . S
C1214 C1213 1.430 . S
C1215 H1204 0.930 . S
C1215 C1213 1.404 . S
C1215 C1216 1.366 . S
C1216 H1195 0.930 . S
C1216 C1212 1.416 . S
C1216 C1215 1.366 . S
H1217 C1210 0.929 . S
H1218 C1241 0.931 . S
H1219 C1242 0.931 . S
O1220 Eu1176 2.462 . S
O1220 C1240 1.252 . S
O1221 Eu1176 2.373 . S
O1221 C1232 1.249 . S
O1222 Eu1187 2.335 . S
O1222 C1232 1.264 . S
O1223 Eu1176 2.432 . S
O1223 C1240 1.268 . S
O1224 Eu1176 2.291 . S
O1224 C1239 1.255 . S
O1225 Eu1187 2.372 . S
O1225 C1239 1.257 . S
O1226 Eu1187 2.462 . S
O1226 C1251 1.252 . S
O1227 Eu1187 2.373 . S
O1227 C1243 1.249 . S
O1228 Eu1176 2.335 . S
O1228 C1243 1.264 . S
O1229 Eu1187 2.432 . S
O1229 C1251 1.268 . S
O1230 Eu1187 2.291 . S
O1230 C1250 1.255 . S
O1231 Eu1176 2.372 . S
O1231 C1250 1.257 . S
C1232 O1221 1.249 . S
C1232 O1222 1.264 . S
C1233 C1236 1.382 . S
C1233 C1238 1.390 . S
C1233 C1240 1.506 . S
C1234 C1235 1.398 . S
C1234 C1238 1.392 . S
C1235 C1234 1.398 . S
C1235 C1237 1.372 . S
C1235 H1252 0.931 1_455 S
C1236 C1233 1.382 . S
C1236 C1237 1.390 . S
C1236 H1253 0.931 . S
C1237 C1235 1.372 . S
C1237 C1236 1.390 . S
C1237 H1254 0.929 . S
C1238 C1233 1.390 . S
C1238 C1234 1.392 . S
C1238 H1255 0.930 . S
C1239 O1224 1.255 . S
C1239 O1225 1.257 . S
C1240 Eu1176 2.787 . S
C1240 O1220 1.252 . S
C1240 O1223 1.268 . S
C1240 C1233 1.506 . S
C1241 C1208 1.439 . S
C1241 H1218 0.931 . S
C1241 C1242 1.374 . S
C1242 C1213 1.387 . S
C1242 H1219 0.931 . S
C1242 C1241 1.374 . S
C1243 O1227 1.249 . S
C1243 O1228 1.264 . S
C1244 C1247 1.382 . S
C1244 C1248 1.390 . S
C1244 C1251 1.506 . S
C1245 C1246 1.398 . S
C1245 C1248 1.392 . S
C1246 C1245 1.398 . S
C1246 C1249 1.372 . S
C1246 H1256 0.931 . S
C1247 C1244 1.382 . S
C1247 C1249 1.390 . S
C1247 H1257 0.931 . S
C1248 C1244 1.390 . S
C1248 C1245 1.392 . S
C1248 H1258 0.930 . S
C1249 C1246 1.372 . S
C1249 C1247 1.390 . S
C1249 H1259 0.929 . S
C1250 O1230 1.255 . S
C1250 O1231 1.257 . S
C1251 Eu1187 2.787 . S
C1251 O1226 1.252 . S
C1251 O1229 1.268 . S
C1251 C1244 1.506 . S
H1252 C1235 0.931 1_655 S
H1253 C1236 0.931 . S
H1254 C1237 0.929 . S
H1255 C1238 0.930 . S
H1256 C1246 0.931 . S
H1257 C1247 0.931 . S
H1258 C1248 0.930 . S
H1259 C1249 0.929 . S
Eu1260 N1289 2.600 . S
Eu1260 N1295 2.562 . S
Eu1260 O1304 2.462 . S
Eu1260 O1305 2.373 . S
Eu1260 O1307 2.432 . S
Eu1260 O1308 2.291 . S
Eu1260 O1312 2.335 . S
Eu1260 O1315 2.372 . S
Eu1260 C1324 2.787 . S
C1261 N1262 1.365 . S
C1261 C1264 1.405 . S
C1261 C1268 1.448 . S
N1262 C1261 1.365 . S
N1262 C1265 1.319 . S
N1262 Eu1271 2.600 . S
C1263 C1265 1.397 . S
C1263 C1266 1.367 . S
C1263 H1283 0.931 . S
C1264 C1261 1.405 . S
C1264 C1266 1.403 . S
C1264 C1270 1.439 . S
C1265 N1262 1.319 . S
C1265 C1263 1.397 . S
C1265 H1276 0.930 . S
C1266 C1263 1.367 . S
C1266 C1264 1.403 . S
C1266 H1287 0.929 . S
C1267 C1268 1.430 . S
C1267 C1269 1.387 . S
C1267 C1273 1.404 . S
C1268 C1261 1.448 . S
C1268 C1267 1.430 . S
C1268 N1272 1.351 . S
C1269 C1267 1.387 . S
C1269 C1270 1.374 . S
C1269 H1284 0.931 . S
C1270 C1264 1.439 . S
C1270 C1269 1.374 . S
C1270 H1285 0.931 . S
Eu1271 N1262 2.600 . S
Eu1271 N1272 2.562 . S
Eu1271 O1306 2.335 . S
Eu1271 O1309 2.372 . S
Eu1271 O1310 2.462 . S
Eu1271 O1311 2.373 . S
Eu1271 O1313 2.432 . S
Eu1271 O1314 2.291 . S
Eu1271 C1335 2.787 . S
N1272 C1268 1.351 . S
N1272 Eu1271 2.562 . S
N1272 C1274 1.325 . S
C1273 C1267 1.404 . S
C1273 C1275 1.366 . S
C1273 H1281 0.930 . S
C1274 N1272 1.325 . S
C1274 C1275 1.416 . S
C1274 H1280 0.929 . S
C1275 C1273 1.366 . S
C1275 C1274 1.416 . S
C1275 H1277 0.930 . S
H1276 C1265 0.930 . S
H1277 C1275 0.930 . S
H1278 C1293 0.930 . S
H1279 C1300 0.930 . S
H1280 C1274 0.929 . S
H1281 C1273 0.930 . S
H1282 C1296 0.929 . S
H1283 C1263 0.931 . S
H1284 C1269 0.931 . S
H1285 C1270 0.931 . S
H1286 C1291 0.931 . S
H1287 C1266 0.929 . S
H1288 C1299 0.930 . S
N1289 Eu1260 2.600 . S
N1289 C1290 1.365 . S
N1289 C1293 1.319 . S
C1290 N1289 1.365 . S
C1290 C1292 1.405 . S
C1290 C1298 1.448 . S
C1291 H1286 0.931 . S
C1291 C1293 1.397 . S
C1291 C1294 1.367 . S
C1292 C1290 1.405 . S
C1292 C1294 1.403 . S
C1292 C1325 1.439 1_565 S
C1293 H1278 0.930 . S
C1293 N1289 1.319 . S
C1293 C1291 1.397 . S
C1294 C1291 1.367 . S
C1294 C1292 1.403 . S
C1294 H1301 0.929 . S
N1295 Eu1260 2.562 . S
N1295 C1296 1.325 . S
N1295 C1298 1.351 . S
C1296 H1282 0.929 . S
C1296 N1295 1.325 . S
C1296 C1300 1.416 1_565 S
C1297 C1298 1.430 1_545 S
C1297 C1299 1.404 . S
C1297 C1326 1.387 . S
C1298 C1290 1.448 . S
C1298 N1295 1.351 . S
C1298 C1297 1.430 1_565 S
C1299 H1288 0.930 . S
C1299 C1297 1.404 . S
C1299 C1300 1.366 . S
C1300 H1279 0.930 . S
C1300 C1296 1.416 1_545 S
C1300 C1299 1.366 . S
H1301 C1294 0.929 . S
H1302 C1325 0.931 . S
H1303 C1326 0.931 . S
O1304 Eu1260 2.462 . S
O1304 C1324 1.252 . S
O1305 Eu1260 2.373 . S
O1305 C1316 1.249 . S
O1306 Eu1271 2.335 . S
O1306 C1316 1.264 . S
O1307 Eu1260 2.432 . S
O1307 C1324 1.268 . S
O1308 Eu1260 2.291 . S
O1308 C1323 1.255 . S
O1309 Eu1271 2.372 . S
O1309 C1323 1.257 . S
O1310 Eu1271 2.462 . S
O1310 C1335 1.252 . S
O1311 Eu1271 2.373 . S
O1311 C1327 1.249 . S
O1312 Eu1260 2.335 . S
O1312 C1327 1.264 . S
O1313 Eu1271 2.432 . S
O1313 C1335 1.268 . S
O1314 Eu1271 2.291 . S
O1314 C1334 1.255 . S
O1315 Eu1260 2.372 . S
O1315 C1334 1.257 . S
C1316 O1305 1.249 . S
C1316 O1306 1.264 . S
C1317 C1320 1.382 . S
C1317 C1322 1.390 . S
C1317 C1324 1.506 . S
C1318 C1319 1.398 . S
C1318 C1322 1.392 . S
C1319 C1318 1.398 . S
C1319 C1321 1.372 . S
C1319 H1336 0.931 . S
C1320 C1317 1.382 . S
C1320 C1321 1.390 . S
C1320 H1337 0.931 . S
C1321 C1319 1.372 . S
C1321 C1320 1.390 . S
C1321 H1338 0.929 . S
C1322 C1317 1.390 . S
C1322 C1318 1.392 . S
C1322 H1339 0.930 . S
C1323 O1308 1.255 . S
C1323 O1309 1.257 . S
C1324 Eu1260 2.787 . S
C1324 O1304 1.252 . S
C1324 O1307 1.268 . S
C1324 C1317 1.506 . S
C1325 C1292 1.439 1_545 S
C1325 H1302 0.931 . S
C1325 C1326 1.374 . S
C1326 C1297 1.387 . S
C1326 H1303 0.931 . S
C1326 C1325 1.374 . S
C1327 O1311 1.249 . S
C1327 O1312 1.264 . S
C1328 C1331 1.382 . S
C1328 C1332 1.390 . S
C1328 C1335 1.506 . S
C1329 C1330 1.398 . S
C1329 C1332 1.392 . S
C1330 C1329 1.398 . S
C1330 C1333 1.372 . S
C1330 H1340 0.931 . S
C1331 C1328 1.382 . S
C1331 C1333 1.390 . S
C1331 H1341 0.931 . S
C1332 C1328 1.390 . S
C1332 C1329 1.392 . S
C1332 H1342 0.930 . S
C1333 C1330 1.372 . S
C1333 C1331 1.390 . S
C1333 H1343 0.929 . S
C1334 O1314 1.255 . S
C1334 O1315 1.257 . S
C1335 Eu1271 2.787 . S
C1335 O1310 1.252 . S
C1335 O1313 1.268 . S
C1335 C1328 1.506 . S
H1336 C1319 0.931 . S
H1337 C1320 0.931 . S
H1338 C1321 0.929 . S
H1339 C1322 0.930 . S
H1340 C1330 0.931 . S
H1341 C1331 0.931 . S
H1342 C1332 0.930 . S
H1343 C1333 0.929 . S
Eu1344 N1373 2.600 . S
Eu1344 N1379 2.562 . S
Eu1344 O1388 2.462 . S
Eu1344 O1389 2.373 . S
Eu1344 O1391 2.432 . S
Eu1344 O1392 2.291 . S
Eu1344 O1396 2.335 . S
Eu1344 O1399 2.372 . S
Eu1344 C1408 2.787 . S
C1345 N1346 1.363 1_545 S
C1345 C1348 1.404 . S
C1345 C1352 1.451 . S
N1346 C1345 1.363 1_565 S
N1346 C1349 1.319 . S
N1346 Eu1355 2.600 . S
C1347 C1349 1.397 . S
C1347 C1350 1.367 . S
C1347 H1367 0.931 . S
C1348 C1345 1.404 . S
C1348 C1350 1.403 1_545 S
C1348 C1354 1.439 . S
C1349 N1346 1.319 . S
C1349 C1347 1.397 . S
C1349 H1360 0.930 . S
C1350 C1347 1.367 . S
C1350 C1348 1.403 1_565 S
C1350 H1371 0.929 1_565 S
C1351 C1352 1.430 . S
C1351 C1353 1.387 . S
C1351 C1357 1.404 . S
C1352 C1345 1.451 . S
C1352 C1351 1.430 . S
C1352 N1356 1.351 . S
C1353 C1351 1.387 . S
C1353 C1354 1.374 . S
C1353 H1368 0.931 . S
C1354 C1348 1.439 . S
C1354 C1353 1.374 . S
C1354 H1369 0.931 . S
Eu1355 N1346 2.600 . S
Eu1355 N1356 2.562 1_565 S
Eu1355 O1390 2.335 . S
Eu1355 O1393 2.372 . S
Eu1355 O1394 2.462 1_565 S
Eu1355 O1395 2.373 . S
Eu1355 O1397 2.432 . S
Eu1355 O1398 2.291 . S
Eu1355 C1419 2.787 1_565 S
N1356 C1352 1.351 . S
N1356 Eu1355 2.562 1_545 S
N1356 C1358 1.325 . S
C1357 C1351 1.404 . S
C1357 C1359 1.366 . S
C1357 H1365 0.930 . S
C1358 N1356 1.325 . S
C1358 C1359 1.416 . S
C1358 H1364 0.929 . S
C1359 C1357 1.366 . S
C1359 C1358 1.416 . S
C1359 H1361 0.930 . S
H1360 C1349 0.930 . S
H1361 C1359 0.930 . S
H1362 C1377 0.930 . S
H1363 C1384 0.930 . S
H1364 C1358 0.929 . S
H1365 C1357 0.930 . S
H1366 C1380 0.929 . S
H1367 C1347 0.931 . S
H1368 C1353 0.931 . S
H1369 C1354 0.931 . S
H1370 C1375 0.931 . S
H1371 C1350 0.929 1_545 S
H1372 C1383 0.930 . S
N1373 Eu1344 2.600 . S
N1373 C1374 1.365 . S
N1373 C1377 1.319 . S
C1374 N1373 1.365 . S
C1374 C1376 1.405 . S
C1374 C1382 1.448 . S
C1375 H1370 0.931 . S
C1375 C1377 1.397 . S
C1375 C1378 1.367 . S
C1376 C1374 1.405 . S
C1376 C1378 1.403 . S
C1376 C1409 1.439 . S
C1377 H1362 0.930 . S
C1377 N1373 1.319 . S
C1377 C1375 1.397 . S
C1378 C1375 1.367 . S
C1378 C1376 1.403 . S
C1378 H1385 0.929 . S
N1379 Eu1344 2.562 . S
N1379 C1380 1.325 . S
N1379 C1382 1.351 . S
C1380 H1366 0.929 . S
C1380 N1379 1.325 . S
C1380 C1384 1.416 . S
C1381 C1382 1.430 . S
C1381 C1383 1.404 . S
C1381 C1410 1.387 . S
C1382 C1374 1.448 . S
C1382 N1379 1.351 . S
C1382 C1381 1.430 . S
C1383 H1372 0.930 . S
C1383 C1381 1.404 . S
C1383 C1384 1.366 . S
C1384 H1363 0.930 . S
C1384 C1380 1.416 . S
C1384 C1383 1.366 . S
H1385 C1378 0.929 . S
H1386 C1409 0.931 . S
H1387 C1410 0.931 . S
O1388 Eu1344 2.462 . S
O1388 C1408 1.252 . S
O1389 Eu1344 2.373 . S
O1389 C1400 1.249 . S
O1390 Eu1355 2.335 . S
O1390 C1400 1.264 . S
O1391 Eu1344 2.432 . S
O1391 C1408 1.268 . S
O1392 Eu1344 2.291 . S
O1392 C1407 1.255 . S
O1393 Eu1355 2.372 . S
O1393 C1407 1.257 . S
O1394 Eu1355 2.462 1_545 S
O1394 C1419 1.252 . S
O1395 Eu1355 2.373 . S
O1395 C1411 1.249 . S
O1396 Eu1344 2.335 . S
O1396 C1411 1.264 . S
O1397 Eu1355 2.432 . S
O1397 C1419 1.268 1_565 S
O1398 Eu1355 2.291 . S
O1398 C1418 1.255 . S
O1399 Eu1344 2.372 . S
O1399 C1418 1.257 . S
C1400 O1389 1.249 . S
C1400 O1390 1.264 . S
C1401 C1404 1.382 . S
C1401 C1406 1.390 . S
C1401 C1408 1.506 . S
C1402 C1403 1.398 . S
C1402 C1406 1.392 . S
C1403 C1402 1.398 . S
C1403 C1405 1.372 . S
C1403 H1420 0.931 . S
C1404 C1401 1.382 . S
C1404 C1405 1.390 . S
C1404 H1421 0.931 . S
C1405 C1403 1.372 . S
C1405 C1404 1.390 . S
C1405 H1422 0.929 . S
C1406 C1401 1.390 . S
C1406 C1402 1.392 . S
C1406 H1423 0.930 . S
C1407 O1392 1.255 . S
C1407 O1393 1.257 . S
C1408 Eu1344 2.787 . S
C1408 O1388 1.252 . S
C1408 O1391 1.268 . S
C1408 C1401 1.506 . S
C1409 C1376 1.439 . S
C1409 H1386 0.931 . S
C1409 C1410 1.374 . S
C1410 C1381 1.387 . S
C1410 H1387 0.931 . S
C1410 C1409 1.374 . S
C1411 O1395 1.249 . S
C1411 O1396 1.264 . S
C1412 C1415 1.382 . S
C1412 C1416 1.390 . S
C1412 C1419 1.506 . S
C1413 C1414 1.398 . S
C1413 C1416 1.392 . S
C1414 C1413 1.398 . S
C1414 C1417 1.372 . S
C1414 H1424 0.931 . S
C1415 C1412 1.382 . S
C1415 C1417 1.390 . S
C1415 H1425 0.931 . S
C1416 C1412 1.390 . S
C1416 C1413 1.392 . S
C1416 H1426 0.930 . S
C1417 C1414 1.372 . S
C1417 C1415 1.390 . S
C1417 H1427 0.929 . S
C1418 O1398 1.255 . S
C1418 O1399 1.257 . S
C1419 Eu1355 2.787 1_545 S
C1419 O1394 1.252 . S
C1419 O1397 1.268 1_545 S
C1419 C1412 1.506 . S
H1420 C1403 0.931 . S
H1421 C1404 0.931 . S
H1422 C1405 0.929 . S
H1423 C1406 0.930 . S
H1424 C1414 0.931 . S
H1425 C1415 0.931 . S
H1426 C1416 0.930 . S
H1427 C1417 0.929 . S
Eu1428 N1457 2.600 . S
Eu1428 N1463 2.562 . S
Eu1428 O1472 2.462 . S
Eu1428 O1473 2.373 . S
Eu1428 O1475 2.432 . S
Eu1428 O1476 2.291 . S
Eu1428 O1480 2.335 . S
Eu1428 O1483 2.372 . S
Eu1428 C1492 2.787 . S
C1429 N1430 1.365 . S
C1429 C1432 1.405 . S
C1429 C1436 1.448 . S
N1430 C1429 1.365 . S
N1430 C1433 1.319 . S
N1430 Eu1439 2.600 . S
C1431 C1433 1.397 . S
C1431 C1434 1.367 . S
C1431 H1451 0.931 . S
C1432 C1429 1.405 . S
C1432 C1434 1.403 . S
C1432 C1438 1.439 . S
C1433 N1430 1.319 . S
C1433 C1431 1.397 . S
C1433 H1444 0.930 . S
C1434 C1431 1.367 . S
C1434 C1432 1.403 . S
C1434 H1455 0.929 . S
C1435 C1436 1.430 . S
C1435 C1437 1.387 . S
C1435 C1441 1.404 . S
C1436 C1429 1.448 . S
C1436 C1435 1.430 . S
C1436 N1440 1.351 . S
C1437 C1435 1.387 . S
C1437 C1438 1.374 . S
C1437 H1452 0.931 . S
C1438 C1432 1.439 . S
C1438 C1437 1.374 . S
C1438 H1453 0.931 . S
Eu1439 N1430 2.600 . S
Eu1439 N1440 2.562 . S
Eu1439 O1474 2.335 . S
Eu1439 O1477 2.372 . S
Eu1439 O1478 2.462 . S
Eu1439 O1479 2.373 . S
Eu1439 O1481 2.432 . S
Eu1439 O1482 2.291 . S
Eu1439 C1503 2.787 . S
N1440 C1436 1.351 . S
N1440 Eu1439 2.562 . S
N1440 C1442 1.325 . S
C1441 C1435 1.404 . S
C1441 C1443 1.366 . S
C1441 H1449 0.930 . S
C1442 N1440 1.325 . S
C1442 C1443 1.416 . S
C1442 H1448 0.929 . S
C1443 C1441 1.366 . S
C1443 C1442 1.416 . S
C1443 H1445 0.930 . S
H1444 C1433 0.930 . S
H1445 C1443 0.930 . S
H1446 C1461 0.930 . S
H1447 C1468 0.930 . S
H1448 C1442 0.929 . S
H1449 C1441 0.930 . S
H1450 C1464 0.929 . S
H1451 C1431 0.931 . S
H1452 C1437 0.931 . S
H1453 C1438 0.931 . S
H1454 C1459 0.931 . S
H1455 C1434 0.929 . S
H1456 C1467 0.930 . S
N1457 Eu1428 2.600 . S
N1457 C1458 1.365 . S
N1457 C1461 1.319 . S
C1458 N1457 1.365 . S
C1458 C1460 1.405 . S
C1458 C1466 1.448 . S
C1459 H1454 0.931 . S
C1459 C1461 1.397 . S
C1459 C1462 1.367 . S
C1460 C1458 1.405 . S
C1460 C1462 1.403 . S
C1460 C1493 1.439 . S
C1461 H1446 0.930 . S
C1461 N1457 1.319 . S
C1461 C1459 1.397 . S
C1462 C1459 1.367 . S
C1462 C1460 1.403 . S
C1462 H1469 0.929 . S
N1463 Eu1428 2.562 . S
N1463 C1464 1.325 . S
N1463 C1466 1.351 . S
C1464 H1450 0.929 . S
C1464 N1463 1.325 . S
C1464 C1468 1.416 . S
C1465 C1466 1.430 . S
C1465 C1467 1.404 . S
C1465 C1494 1.387 . S
C1466 C1458 1.448 . S
C1466 N1463 1.351 . S
C1466 C1465 1.430 . S
C1467 H1456 0.930 . S
C1467 C1465 1.404 . S
C1467 C1468 1.366 . S
C1468 H1447 0.930 . S
C1468 C1464 1.416 . S
C1468 C1467 1.366 . S
H1469 C1462 0.929 . S
H1470 C1493 0.931 . S
H1471 C1494 0.931 . S
O1472 Eu1428 2.462 . S
O1472 C1492 1.252 . S
O1473 Eu1428 2.373 . S
O1473 C1484 1.249 . S
O1474 Eu1439 2.335 . S
O1474 C1484 1.264 . S
O1475 Eu1428 2.432 . S
O1475 C1492 1.268 . S
O1476 Eu1428 2.291 . S
O1476 C1491 1.255 . S
O1477 Eu1439 2.372 . S
O1477 C1491 1.257 . S
O1478 Eu1439 2.462 . S
O1478 C1503 1.252 . S
O1479 Eu1439 2.373 . S
O1479 C1495 1.249 . S
O1480 Eu1428 2.335 . S
O1480 C1495 1.264 . S
O1481 Eu1439 2.432 . S
O1481 C1503 1.268 . S
O1482 Eu1439 2.291 . S
O1482 C1502 1.255 . S
O1483 Eu1428 2.372 . S
O1483 C1502 1.257 . S
C1484 O1473 1.249 . S
C1484 O1474 1.264 . S
C1485 C1488 1.382 . S
C1485 C1490 1.390 . S
C1485 C1492 1.506 . S
C1486 C1487 1.398 . S
C1486 C1490 1.392 . S
C1487 C1486 1.398 . S
C1487 C1489 1.372 . S
C1487 H1504 0.931 . S
C1488 C1485 1.382 . S
C1488 C1489 1.390 . S
C1488 H1505 0.931 . S
C1489 C1487 1.372 . S
C1489 C1488 1.390 . S
C1489 H1506 0.929 . S
C1490 C1485 1.390 . S
C1490 C1486 1.392 . S
C1490 H1507 0.930 . S
C1491 O1476 1.255 . S
C1491 O1477 1.257 . S
C1492 Eu1428 2.787 . S
C1492 O1472 1.252 . S
C1492 O1475 1.268 . S
C1492 C1485 1.506 . S
C1493 C1460 1.439 . S
C1493 H1470 0.931 . S
C1493 C1494 1.374 . S
C1494 C1465 1.387 . S
C1494 H1471 0.931 . S
C1494 C1493 1.374 . S
C1495 O1479 1.249 . S
C1495 O1480 1.264 . S
C1496 C1499 1.382 . S
C1496 C1500 1.390 . S
C1496 C1503 1.506 . S
C1497 C1498 1.398 . S
C1497 C1500 1.392 1_655 S
C1498 C1497 1.398 . S
C1498 C1501 1.372 . S
C1498 H1508 0.931 . S
C1499 C1496 1.382 . S
C1499 C1501 1.390 1_455 S
C1499 H1509 0.931 . S
C1500 C1496 1.390 . S
C1500 C1497 1.392 1_455 S
C1500 H1510 0.930 . S
C1501 C1498 1.372 . S
C1501 C1499 1.390 1_655 S
C1501 H1511 0.929 . S
C1502 O1482 1.255 . S
C1502 O1483 1.257 . S
C1503 Eu1439 2.787 . S
C1503 O1478 1.252 . S
C1503 O1481 1.268 . S
C1503 C1496 1.506 . S
H1504 C1487 0.931 . S
H1505 C1488 0.931 . S
H1506 C1489 0.929 . S
H1507 C1490 0.930 . S
H1508 C1498 0.931 . S
H1509 C1499 0.931 . S
H1510 C1500 0.930 . S
H1511 C1501 0.929 . S
Eu1512 N1541 2.600 . S
Eu1512 N1547 2.562 . S
Eu1512 O1556 2.462 . S
Eu1512 O1557 2.373 . S
Eu1512 O1559 2.432 . S
Eu1512 O1560 2.291 . S
Eu1512 O1564 2.335 . S
Eu1512 O1567 2.372 . S
Eu1512 C1576 2.787 . S
C1513 N1514 1.365 . S
C1513 C1516 1.405 . S
C1513 C1520 1.448 . S
N1514 C1513 1.365 . S
N1514 C1517 1.319 . S
N1514 Eu1523 2.600 . S
C1515 C1517 1.397 . S
C1515 C1518 1.367 . S
C1515 H1535 0.931 . S
C1516 C1513 1.405 . S
C1516 C1518 1.403 . S
C1516 C1522 1.439 . S
C1517 N1514 1.319 . S
C1517 C1515 1.397 . S
C1517 H1528 0.930 . S
C1518 C1515 1.367 . S
C1518 C1516 1.403 . S
C1518 H1539 0.929 . S
C1519 C1520 1.430 . S
C1519 C1521 1.387 . S
C1519 C1525 1.404 . S
C1520 C1513 1.448 . S
C1520 C1519 1.430 . S
C1520 N1524 1.351 . S
C1521 C1519 1.387 . S
C1521 C1522 1.374 . S
C1521 H1536 0.931 . S
C1522 C1516 1.439 . S
C1522 C1521 1.374 . S
C1522 H1537 0.931 . S
Eu1523 N1514 2.600 . S
Eu1523 N1524 2.562 . S
Eu1523 O1558 2.335 . S
Eu1523 O1561 2.372 . S
Eu1523 O1562 2.462 . S
Eu1523 O1563 2.373 . S
Eu1523 O1565 2.432 . S
Eu1523 O1566 2.291 . S
Eu1523 C1587 2.787 . S
N1524 C1520 1.351 . S
N1524 Eu1523 2.562 . S
N1524 C1526 1.325 . S
C1525 C1519 1.404 . S
C1525 C1527 1.366 . S
C1525 H1533 0.930 . S
C1526 N1524 1.325 . S
C1526 C1527 1.416 . S
C1526 H1532 0.929 . S
C1527 C1525 1.366 . S
C1527 C1526 1.416 . S
C1527 H1529 0.930 . S
H1528 C1517 0.930 . S
H1529 C1527 0.930 . S
H1530 C1545 0.930 . S
H1531 C1552 0.930 . S
H1532 C1526 0.929 . S
H1533 C1525 0.930 . S
H1534 C1548 0.929 . S
H1535 C1515 0.931 . S
H1536 C1521 0.931 . S
H1537 C1522 0.931 . S
H1538 C1543 0.931 . S
H1539 C1518 0.929 . S
H1540 C1551 0.930 . S
N1541 Eu1512 2.600 . S
N1541 C1542 1.365 . S
N1541 C1545 1.319 . S
C1542 N1541 1.365 . S
C1542 C1544 1.405 . S
C1542 C1550 1.448 . S
C1543 H1538 0.931 . S
C1543 C1545 1.397 . S
C1543 C1546 1.367 . S
C1544 C1542 1.405 . S
C1544 C1546 1.403 . S
C1544 C1577 1.439 . S
C1545 H1530 0.930 . S
C1545 N1541 1.319 . S
C1545 C1543 1.397 . S
C1546 C1543 1.367 . S
C1546 C1544 1.403 . S
C1546 H1553 0.929 . S
N1547 Eu1512 2.562 . S
N1547 C1548 1.325 . S
N1547 C1550 1.351 . S
C1548 H1534 0.929 . S
C1548 N1547 1.325 . S
C1548 C1552 1.416 . S
C1549 C1550 1.430 . S
C1549 C1551 1.404 . S
C1549 C1578 1.387 . S
C1550 C1542 1.448 . S
C1550 N1547 1.351 . S
C1550 C1549 1.430 . S
C1551 H1540 0.930 . S
C1551 C1549 1.404 . S
C1551 C1552 1.366 . S
C1552 H1531 0.930 . S
C1552 C1548 1.416 . S
C1552 C1551 1.366 . S
H1553 C1546 0.929 . S
H1554 C1577 0.931 . S
H1555 C1578 0.931 . S
O1556 Eu1512 2.462 . S
O1556 C1576 1.252 . S
O1557 Eu1512 2.373 . S
O1557 C1568 1.249 . S
O1558 Eu1523 2.335 . S
O1558 C1568 1.264 . S
O1559 Eu1512 2.432 . S
O1559 C1576 1.268 . S
O1560 Eu1512 2.291 . S
O1560 C1575 1.255 . S
O1561 Eu1523 2.372 . S
O1561 C1575 1.257 . S
O1562 Eu1523 2.462 . S
O1562 C1587 1.252 . S
O1563 Eu1523 2.373 . S
O1563 C1579 1.249 . S
O1564 Eu1512 2.335 . S
O1564 C1579 1.264 . S
O1565 Eu1523 2.432 . S
O1565 C1587 1.268 . S
O1566 Eu1523 2.291 . S
O1566 C1586 1.255 . S
O1567 Eu1512 2.372 . S
O1567 C1586 1.257 . S
C1568 O1557 1.249 . S
C1568 O1558 1.264 . S
C1569 C1572 1.382 . S
C1569 C1574 1.390 . S
C1569 C1576 1.506 . S
C1570 C1571 1.398 . S
C1570 C1574 1.392 . S
C1571 C1570 1.398 . S
C1571 C1573 1.372 . S
C1571 H1588 0.931 . S
C1572 C1569 1.382 . S
C1572 C1573 1.390 . S
C1572 H1589 0.931 . S
C1573 C1571 1.372 . S
C1573 C1572 1.390 . S
C1573 H1590 0.929 . S
C1574 C1569 1.390 . S
C1574 C1570 1.392 . S
C1574 H1591 0.930 . S
C1575 O1560 1.255 . S
C1575 O1561 1.257 . S
C1576 Eu1512 2.787 . S
C1576 O1556 1.252 . S
C1576 O1559 1.268 . S
C1576 C1569 1.506 . S
C1577 C1544 1.439 . S
C1577 H1554 0.931 . S
C1577 C1578 1.374 . S
C1578 C1549 1.387 . S
C1578 H1555 0.931 . S
C1578 C1577 1.374 . S
C1579 O1563 1.249 . S
C1579 O1564 1.264 . S
C1580 C1583 1.382 . S
C1580 C1584 1.390 . S
C1580 C1587 1.506 . S
C1581 C1582 1.398 . S
C1581 C1584 1.392 . S
C1582 C1581 1.398 . S
C1582 C1585 1.372 . S
C1582 H1592 0.931 . S
C1583 C1580 1.382 . S
C1583 C1585 1.390 . S
C1583 H1593 0.931 . S
C1584 C1580 1.390 . S
C1584 C1581 1.392 . S
C1584 H1594 0.930 . S
C1585 C1582 1.372 . S
C1585 C1583 1.390 . S
C1585 H1595 0.929 . S
C1586 O1566 1.255 . S
C1586 O1567 1.257 . S
C1587 Eu1523 2.787 . S
C1587 O1562 1.252 . S
C1587 O1565 1.268 . S
C1587 C1580 1.506 . S
H1588 C1571 0.931 . S
H1589 C1572 0.931 . S
H1590 C1573 0.929 . S
H1591 C1574 0.930 . S
H1592 C1582 0.931 . S
H1593 C1583 0.931 . S
H1594 C1584 0.930 . S
H1595 C1585 0.929 . S
Eu1596 N1625 2.600 . S
Eu1596 N1631 2.562 1_565 S
Eu1596 O1640 2.462 1_565 S
Eu1596 O1641 2.373 . S
Eu1596 O1643 2.432 . S
Eu1596 O1644 2.291 . S
Eu1596 O1648 2.335 . S
Eu1596 O1651 2.372 . S
Eu1596 C1660 2.787 1_565 S
C1597 N1598 1.365 . S
C1597 C1600 1.405 . S
C1597 C1604 1.448 . S
N1598 C1597 1.365 . S
N1598 C1601 1.319 . S
N1598 Eu1607 2.600 . S
C1599 C1601 1.397 . S
C1599 C1602 1.367 . S
C1599 H1619 0.931 . S
C1600 C1597 1.405 . S
C1600 C1602 1.403 . S
C1600 C1606 1.439 . S
C1601 N1598 1.319 . S
C1601 C1599 1.397 . S
C1601 H1612 0.930 . S
C1602 C1599 1.367 . S
C1602 C1600 1.403 . S
C1602 H1623 0.929 . S
C1603 C1604 1.430 . S
C1603 C1605 1.387 . S
C1603 C1609 1.404 . S
C1604 C1597 1.448 . S
C1604 C1603 1.430 . S
C1604 N1608 1.351 . S
C1605 C1603 1.387 . S
C1605 C1606 1.374 . S
C1605 H1620 0.931 . S
C1606 C1600 1.439 . S
C1606 C1605 1.374 . S
C1606 H1621 0.931 . S
Eu1607 N1598 2.600 . S
Eu1607 N1608 2.562 . S
Eu1607 O1642 2.335 . S
Eu1607 O1645 2.372 . S
Eu1607 O1646 2.462 . S
Eu1607 O1647 2.373 . S
Eu1607 O1649 2.432 . S
Eu1607 O1650 2.291 . S
Eu1607 C1671 2.787 . S
N1608 C1604 1.351 . S
N1608 Eu1607 2.562 . S
N1608 C1610 1.325 . S
C1609 C1603 1.404 . S
C1609 C1611 1.366 . S
C1609 H1617 0.930 . S
C1610 N1608 1.325 . S
C1610 C1611 1.416 . S
C1610 H1616 0.929 . S
C1611 C1609 1.366 . S
C1611 C1610 1.416 . S
C1611 H1613 0.930 . S
H1612 C1601 0.930 . S
H1613 C1611 0.930 . S
H1614 C1629 0.930 . S
H1615 C1636 0.930 . S
H1616 C1610 0.929 . S
H1617 C1609 0.930 . S
H1618 C1632 0.929 . S
H1619 C1599 0.931 . S
H1620 C1605 0.931 . S
H1621 C1606 0.931 . S
H1622 C1627 0.931 . S
H1623 C1602 0.929 . S
H1624 C1635 0.930 . S
N1625 Eu1596 2.600 . S
N1625 C1626 1.362 . S
N1625 C1629 1.319 . S
C1626 N1625 1.362 . S
C1626 C1628 1.407 1_565 S
C1626 C1634 1.449 1_565 S
C1627 H1622 0.931 . S
C1627 C1629 1.397 . S
C1627 C1630 1.367 . S
C1628 C1626 1.407 1_545 S
C1628 C1630 1.403 1_545 S
C1628 C1661 1.439 . S
C1629 H1614 0.930 . S
C1629 N1625 1.319 . S
C1629 C1627 1.397 . S
C1630 C1627 1.367 . S
C1630 C1628 1.403 1_565 S
C1630 H1637 0.929 1_565 S
N1631 Eu1596 2.562 1_545 S
N1631 C1632 1.325 . S
N1631 C1634 1.351 . S
C1632 H1618 0.929 . S
C1632 N1631 1.325 . S
C1632 C1636 1.416 . S
C1633 C1634 1.430 . S
C1633 C1635 1.404 . S
C1633 C1662 1.387 . S
C1634 C1626 1.449 1_545 S
C1634 N1631 1.351 . S
C1634 C1633 1.430 . S
C1635 H1624 0.930 . S
C1635 C1633 1.404 . S
C1635 C1636 1.366 . S
C1636 H1615 0.930 . S
C1636 C1632 1.416 . S
C1636 C1635 1.366 . S
H1637 C1630 0.929 1_545 S
H1638 C1661 0.931 . S
H1639 C1662 0.931 . S
O1640 Eu1596 2.462 1_545 S
O1640 C1660 1.252 . S
O1641 Eu1596 2.373 . S
O1641 C1652 1.249 . S
O1642 Eu1607 2.335 . S
O1642 C1652 1.264 . S
O1643 Eu1596 2.432 . S
O1643 C1660 1.268 1_565 S
O1644 Eu1596 2.291 . S
O1644 C1659 1.255 . S
O1645 Eu1607 2.372 . S
O1645 C1659 1.257 . S
O1646 Eu1607 2.462 . S
O1646 C1671 1.252 . S
O1647 Eu1607 2.373 . S
O1647 C1663 1.249 . S
O1648 Eu1596 2.335 . S
O1648 C1663 1.264 . S
O1649 Eu1607 2.432 . S
O1649 C1671 1.268 . S
O1650 Eu1607 2.291 . S
O1650 C1670 1.255 . S
O1651 Eu1596 2.372 . S
O1651 C1670 1.257 . S
C1652 O1641 1.249 . S
C1652 O1642 1.264 . S
C1653 C1656 1.382 . S
C1653 C1658 1.390 . S
C1653 C1660 1.506 . S
C1654 C1655 1.398 . S
C1654 C1658 1.392 . S
C1655 C1654 1.398 . S
C1655 C1657 1.372 . S
C1655 H1672 0.931 . S
C1656 C1653 1.382 . S
C1656 C1657 1.390 . S
C1656 H1673 0.931 . S
C1657 C1655 1.372 . S
C1657 C1656 1.390 . S
C1657 H1674 0.929 . S
C1658 C1653 1.390 . S
C1658 C1654 1.392 . S
C1658 H1675 0.930 . S
C1659 O1644 1.255 . S
C1659 O1645 1.257 . S
C1660 Eu1596 2.787 1_545 S
C1660 O1640 1.252 . S
C1660 O1643 1.268 1_545 S
C1660 C1653 1.506 . S
C1661 C1628 1.439 . S
C1661 H1638 0.931 . S
C1661 C1662 1.374 . S
C1662 C1633 1.387 . S
C1662 H1639 0.931 . S
C1662 C1661 1.374 . S
C1663 O1647 1.249 . S
C1663 O1648 1.264 . S
C1664 C1667 1.382 . S
C1664 C1668 1.390 . S
C1664 C1671 1.506 . S
C1665 C1666 1.398 . S
C1665 C1668 1.392 . S
C1666 C1665 1.398 . S
C1666 C1669 1.372 . S
C1666 H1676 0.931 . S
C1667 C1664 1.382 . S
C1667 C1669 1.390 . S
C1667 H1677 0.931 . S
C1668 C1664 1.390 . S
C1668 C1665 1.392 . S
C1668 H1678 0.930 . S
C1669 C1666 1.372 . S
C1669 C1667 1.390 . S
C1669 H1679 0.929 . S
C1670 O1650 1.255 . S
C1670 O1651 1.257 . S
C1671 Eu1607 2.787 . S
C1671 O1646 1.252 . S
C1671 O1649 1.268 . S
C1671 C1664 1.506 . S
H1672 C1655 0.931 . S
H1673 C1656 0.931 . S
H1674 C1657 0.929 . S
H1675 C1658 0.930 . S
H1676 C1666 0.931 . S
H1677 C1667 0.931 . S
H1678 C1668 0.930 . S
H1679 C1669 0.929 . S
Eu1680 N1709 2.600 . S
Eu1680 N1715 2.562 . S
Eu1680 O1724 2.462 . S
Eu1680 O1725 2.373 . S
Eu1680 O1727 2.432 . S
Eu1680 O1728 2.291 . S
Eu1680 O1732 2.335 . S
Eu1680 O1735 2.372 . S
Eu1680 C1744 2.787 . S
C1681 N1682 1.365 . S
C1681 C1684 1.405 . S
C1681 C1688 1.448 . S
N1682 C1681 1.365 . S
N1682 C1685 1.319 . S
N1682 Eu1691 2.600 . S
C1683 C1685 1.397 . S
C1683 C1686 1.367 . S
C1683 H1703 0.931 . S
C1684 C1681 1.405 . S
C1684 C1686 1.403 . S
C1684 C1690 1.439 1_565 S
C1685 N1682 1.319 . S
C1685 C1683 1.397 . S
C1685 H1696 0.930 . S
C1686 C1683 1.367 . S
C1686 C1684 1.403 . S
C1686 H1707 0.929 . S
C1687 C1688 1.430 1_545 S
C1687 C1689 1.387 . S
C1687 C1693 1.404 . S
C1688 C1681 1.448 . S
C1688 C1687 1.430 1_565 S
C1688 N1692 1.351 . S
C1689 C1687 1.387 . S
C1689 C1690 1.374 . S
C1689 H1704 0.931 . S
C1690 C1684 1.439 1_545 S
C1690 C1689 1.374 . S
C1690 H1705 0.931 . S
Eu1691 N1682 2.600 . S
Eu1691 N1692 2.562 . S
Eu1691 O1726 2.335 . S
Eu1691 O1729 2.372 . S
Eu1691 O1730 2.462 . S
Eu1691 O1731 2.373 . S
Eu1691 O1733 2.432 . S
Eu1691 O1734 2.291 . S
Eu1691 C1755 2.787 . S
N1692 C1688 1.351 . S
N1692 Eu1691 2.562 . S
N1692 C1694 1.325 . S
C1693 C1687 1.404 . S
C1693 C1695 1.378 . S
C1693 H1701 0.930 . S
C1694 N1692 1.325 . S
C1694 C1695 1.401 1_565 S
C1694 H1700 0.929 . S
C1695 C1693 1.378 . S
C1695 C1694 1.401 1_545 S
C1695 H1697 0.933 . S
H1696 C1685 0.930 . S
H1697 C1695 0.933 . S
H1698 C1713 0.930 . S
H1699 C1720 0.930 . S
H1700 C1694 0.929 . S
H1701 C1693 0.930 . S
H1702 C1716 0.929 . S
H1703 C1683 0.931 . S
H1704 C1689 0.931 . S
H1705 C1690 0.931 . S
H1706 C1711 0.931 . S
H1707 C1686 0.929 . S
H1708 C1719 0.930 . S
N1709 Eu1680 2.600 . S
N1709 C1710 1.365 . S
N1709 C1713 1.319 . S
C1710 N1709 1.365 . S
C1710 C1712 1.405 . S
C1710 C1718 1.448 . S
C1711 H1706 0.931 . S
C1711 C1713 1.397 . S
C1711 C1714 1.367 . S
C1712 C1710 1.405 . S
C1712 C1714 1.403 . S
C1712 C1745 1.439 . S
C1713 H1698 0.930 . S
C1713 N1709 1.319 . S
C1713 C1711 1.397 . S
C1714 C1711 1.367 . S
C1714 C1712 1.403 . S
C1714 H1721 0.929 . S
N1715 Eu1680 2.562 . S
N1715 C1716 1.325 . S
N1715 C1718 1.351 . S
C1716 H1702 0.929 . S
C1716 N1715 1.325 . S
C1716 C1720 1.416 . S
C1717 C1718 1.430 . S
C1717 C1719 1.404 . S
C1717 C1746 1.387 . S
C1718 C1710 1.448 . S
C1718 N1715 1.351 . S
C1718 C1717 1.430 . S
C1719 H1708 0.930 . S
C1719 C1717 1.404 . S
C1719 C1720 1.366 . S
C1720 H1699 0.930 . S
C1720 C1716 1.416 . S
C1720 C1719 1.366 . S
H1721 C1714 0.929 . S
H1722 C1745 0.931 . S
H1723 C1746 0.931 . S
O1724 Eu1680 2.462 . S
O1724 C1744 1.252 . S
O1725 Eu1680 2.373 . S
O1725 C1736 1.249 . S
O1726 Eu1691 2.335 . S
O1726 C1736 1.264 . S
O1727 Eu1680 2.432 . S
O1727 C1744 1.268 . S
O1728 Eu1680 2.291 . S
O1728 C1743 1.255 . S
O1729 Eu1691 2.372 . S
O1729 C1743 1.257 . S
O1730 Eu1691 2.462 . S
O1730 C1755 1.252 . S
O1731 Eu1691 2.373 . S
O1731 C1747 1.249 . S
O1732 Eu1680 2.335 . S
O1732 C1747 1.264 . S
O1733 Eu1691 2.432 . S
O1733 C1755 1.268 . S
O1734 Eu1691 2.291 . S
O1734 C1754 1.255 . S
O1735 Eu1680 2.372 . S
O1735 C1754 1.257 . S
C1736 O1725 1.249 . S
C1736 O1726 1.264 . S
C1737 C1740 1.382 . S
C1737 C1742 1.390 . S
C1737 C1744 1.506 . S
C1738 C1739 1.398 . S
C1738 C1742 1.392 1_655 S
C1739 C1738 1.398 . S
C1739 C1741 1.372 . S
C1739 H1756 0.931 . S
C1740 C1737 1.382 . S
C1740 C1741 1.390 1_455 S
C1740 H1757 0.931 . S
C1741 C1739 1.372 . S
C1741 C1740 1.390 1_655 S
C1741 H1758 0.929 . S
C1742 C1737 1.390 . S
C1742 C1738 1.392 1_455 S
C1742 H1759 0.930 . S
C1743 O1728 1.255 . S
C1743 O1729 1.257 . S
C1744 Eu1680 2.787 . S
C1744 O1724 1.252 . S
C1744 O1727 1.268 . S
C1744 C1737 1.506 . S
C1745 C1712 1.439 . S
C1745 H1722 0.931 . S
C1745 C1746 1.374 . S
C1746 C1717 1.387 . S
C1746 H1723 0.931 . S
C1746 C1745 1.374 . S
C1747 O1731 1.249 . S
C1747 O1732 1.264 . S
C1748 C1751 1.382 . S
C1748 C1752 1.390 . S
C1748 C1755 1.506 . S
C1749 C1750 1.398 . S
C1749 C1752 1.392 . S
C1750 C1749 1.398 . S
C1750 C1753 1.372 . S
C1750 H1760 0.931 . S
C1751 C1748 1.382 . S
C1751 C1753 1.390 . S
C1751 H1761 0.931 . S
C1752 C1748 1.390 . S
C1752 C1749 1.392 . S
C1752 H1762 0.930 . S
C1753 C1750 1.372 . S
C1753 C1751 1.390 . S
C1753 H1763 0.929 . S
C1754 O1734 1.255 . S
C1754 O1735 1.257 . S
C1755 Eu1691 2.787 . S
C1755 O1730 1.252 . S
C1755 O1733 1.268 . S
C1755 C1748 1.506 . S
H1756 C1739 0.931 . S
H1757 C1740 0.931 . S
H1758 C1741 0.929 . S
H1759 C1742 0.930 . S
H1760 C1750 0.931 . S
H1761 C1751 0.931 . S
H1762 C1752 0.930 . S
H1763 C1753 0.929 . S
Eu1764 N1793 2.600 . S
Eu1764 N1799 2.562 . S
Eu1764 O1808 2.462 . S
Eu1764 O1809 2.373 . S
Eu1764 O1811 2.432 . S
Eu1764 O1812 2.291 . S
Eu1764 O1816 2.335 . S
Eu1764 O1819 2.372 . S
Eu1764 C1828 2.787 . S
C1765 N1766 1.365 . S
C1765 C1768 1.405 . S
C1765 C1772 1.448 . S
N1766 C1765 1.365 . S
N1766 C1769 1.319 . S
N1766 Eu1775 2.600 . S
C1767 C1769 1.397 . S
C1767 C1770 1.367 . S
C1767 H1787 0.931 . S
C1768 C1765 1.405 . S
C1768 C1770 1.403 . S
C1768 C1774 1.439 . S
C1769 N1766 1.319 . S
C1769 C1767 1.397 . S
C1769 H1780 0.930 . S
C1770 C1767 1.367 . S
C1770 C1768 1.403 . S
C1770 H1791 0.929 . S
C1771 C1772 1.430 . S
C1771 C1773 1.387 . S
C1771 C1777 1.404 . S
C1772 C1765 1.448 . S
C1772 C1771 1.430 . S
C1772 N1776 1.351 . S
C1773 C1771 1.387 . S
C1773 C1774 1.374 . S
C1773 H1788 0.931 . S
C1774 C1768 1.439 . S
C1774 C1773 1.374 . S
C1774 H1789 0.931 . S
Eu1775 N1766 2.600 . S
Eu1775 N1776 2.562 . S
Eu1775 O1810 2.335 . S
Eu1775 O1813 2.372 . S
Eu1775 O1814 2.462 . S
Eu1775 O1815 2.373 . S
Eu1775 O1817 2.432 . S
Eu1775 O1818 2.291 . S
Eu1775 C1839 2.787 . S
N1776 C1772 1.351 . S
N1776 Eu1775 2.562 . S
N1776 C1778 1.325 . S
C1777 C1771 1.404 . S
C1777 C1779 1.366 . S
C1777 H1785 0.930 . S
C1778 N1776 1.325 . S
C1778 C1779 1.416 . S
C1778 H1784 0.929 . S
C1779 C1777 1.366 . S
C1779 C1778 1.416 . S
C1779 H1781 0.930 . S
H1780 C1769 0.930 . S
H1781 C1779 0.930 . S
H1782 C1797 0.930 . S
H1783 C1804 0.930 . S
H1784 C1778 0.929 . S
H1785 C1777 0.930 . S
H1786 C1800 0.929 . S
H1787 C1767 0.931 . S
H1788 C1773 0.931 . S
H1789 C1774 0.931 . S
H1790 C1795 0.931 . S
H1791 C1770 0.929 . S
H1792 C1803 0.930 . S
N1793 Eu1764 2.600 . S
N1793 C1794 1.365 . S
N1793 C1797 1.319 . S
C1794 N1793 1.365 . S
C1794 C1796 1.405 1_565 S
C1794 C1802 1.448 1_565 S
C1795 H1790 0.931 . S
C1795 C1797 1.397 . S
C1795 C1798 1.367 1_565 S
C1796 C1794 1.405 1_545 S
C1796 C1798 1.403 . S
C1796 C1829 1.439 . S
C1797 H1782 0.930 . S
C1797 N1793 1.319 . S
C1797 C1795 1.397 . S
C1798 C1795 1.367 1_545 S
C1798 C1796 1.403 . S
C1798 H1805 0.929 . S
N1799 Eu1764 2.562 . S
N1799 C1800 1.325 . S
N1799 C1802 1.351 1_565 S
C1800 H1786 0.929 . S
C1800 N1799 1.325 . S
C1800 C1804 1.416 1_565 S
C1801 C1802 1.430 . S
C1801 C1803 1.404 . S
C1801 C1830 1.387 . S
C1802 C1794 1.448 1_545 S
C1802 N1799 1.351 1_545 S
C1802 C1801 1.430 . S
C1803 H1792 0.930 . S
C1803 C1801 1.404 . S
C1803 C1804 1.366 . S
C1804 H1783 0.930 . S
C1804 C1800 1.416 1_545 S
C1804 C1803 1.366 . S
H1805 C1798 0.929 . S
H1806 C1829 0.931 . S
H1807 C1830 0.931 . S
O1808 Eu1764 2.462 . S
O1808 C1828 1.252 . S
O1809 Eu1764 2.373 . S
O1809 C1820 1.249 . S
O1810 Eu1775 2.335 . S
O1810 C1820 1.264 . S
O1811 Eu1764 2.432 . S
O1811 C1828 1.268 . S
O1812 Eu1764 2.291 . S
O1812 C1827 1.255 . S
O1813 Eu1775 2.372 . S
O1813 C1827 1.257 . S
O1814 Eu1775 2.462 . S
O1814 C1839 1.252 . S
O1815 Eu1775 2.373 . S
O1815 C1831 1.249 . S
O1816 Eu1764 2.335 . S
O1816 C1831 1.264 . S
O1817 Eu1775 2.432 . S
O1817 C1839 1.268 . S
O1818 Eu1775 2.291 . S
O1818 C1838 1.255 . S
O1819 Eu1764 2.372 . S
O1819 C1838 1.257 . S
C1820 O1809 1.249 . S
C1820 O1810 1.264 . S
C1821 C1824 1.382 . S
C1821 C1826 1.390 . S
C1821 C1828 1.506 . S
C1822 C1823 1.398 . S
C1822 C1826 1.392 . S
C1823 C1822 1.398 . S
C1823 C1825 1.372 . S
C1823 H1840 0.931 . S
C1824 C1821 1.382 . S
C1824 C1825 1.390 . S
C1824 H1841 0.931 . S
C1825 C1823 1.372 . S
C1825 C1824 1.390 . S
C1825 H1842 0.929 . S
C1826 C1821 1.390 . S
C1826 C1822 1.392 . S
C1826 H1843 0.930 . S
C1827 O1812 1.255 . S
C1827 O1813 1.257 . S
C1828 Eu1764 2.787 . S
C1828 O1808 1.252 . S
C1828 O1811 1.268 . S
C1828 C1821 1.506 . S
C1829 C1796 1.439 . S
C1829 H1806 0.931 . S
C1829 C1830 1.374 . S
C1830 C1801 1.387 . S
C1830 H1807 0.931 . S
C1830 C1829 1.374 . S
C1831 O1815 1.249 . S
C1831 O1816 1.264 . S
C1832 C1835 1.382 . S
C1832 C1836 1.390 . S
C1832 C1839 1.506 . S
C1833 C1834 1.398 . S
C1833 C1836 1.392 . S
C1834 C1833 1.398 . S
C1834 C1837 1.372 . S
C1834 H1844 0.931 . S
C1835 C1832 1.382 . S
C1835 C1837 1.390 . S
C1835 H1845 0.931 . S
C1836 C1832 1.390 . S
C1836 C1833 1.392 . S
C1836 H1846 0.930 . S
C1837 C1834 1.372 . S
C1837 C1835 1.390 . S
C1837 H1847 0.929 . S
C1838 O1818 1.255 . S
C1838 O1819 1.257 . S
C1839 Eu1775 2.787 . S
C1839 O1814 1.252 . S
C1839 O1817 1.268 . S
C1839 C1832 1.506 . S
H1840 C1823 0.931 . S
H1841 C1824 0.931 . S
H1842 C1825 0.929 . S
H1843 C1826 0.930 . S
H1844 C1834 0.931 . S
H1845 C1835 0.931 . S
H1846 C1836 0.930 . S
H1847 C1837 0.929 . S
Eu1848 N1877 2.600 . S
Eu1848 N1883 2.562 . S
Eu1848 O1892 2.462 . S
Eu1848 O1893 2.373 . S
Eu1848 O1895 2.432 . S
Eu1848 O1896 2.291 . S
Eu1848 O1900 2.335 . S
Eu1848 O1903 2.372 . S
Eu1848 C1912 2.787 . S
C1849 N1850 1.365 . S
C1849 C1852 1.405 . S
C1849 C1856 1.448 . S
N1850 C1849 1.365 . S
N1850 C1853 1.319 . S
N1850 Eu1859 2.600 . S
C1851 C1853 1.397 . S
C1851 C1854 1.367 . S
C1851 H1871 0.931 . S
C1852 C1849 1.405 . S
C1852 C1854 1.403 . S
C1852 C1858 1.439 . S
C1853 N1850 1.319 . S
C1853 C1851 1.397 . S
C1853 H1864 0.930 . S
C1854 C1851 1.367 . S
C1854 C1852 1.403 . S
C1854 H1875 0.929 . S
C1855 C1856 1.430 . S
C1855 C1857 1.387 . S
C1855 C1861 1.404 . S
C1856 C1849 1.448 . S
C1856 C1855 1.430 . S
C1856 N1860 1.351 . S
C1857 C1855 1.387 . S
C1857 C1858 1.374 . S
C1857 H1872 0.931 1_565 S
C1858 C1852 1.439 . S
C1858 C1857 1.374 . S
C1858 H1873 0.931 . S
Eu1859 N1850 2.600 . S
Eu1859 N1860 2.562 . S
Eu1859 O1894 2.335 . S
Eu1859 O1897 2.372 . S
Eu1859 O1898 2.462 . S
Eu1859 O1899 2.373 . S
Eu1859 O1901 2.432 . S
Eu1859 O1902 2.291 . S
Eu1859 C1923 2.787 . S
N1860 C1856 1.351 . S
N1860 Eu1859 2.562 . S
N1860 C1862 1.325 . S
C1861 C1855 1.404 . S
C1861 C1863 1.366 . S
C1861 H1869 0.930 1_565 S
C1862 N1860 1.325 . S
C1862 C1863 1.416 . S
C1862 H1868 0.929 . S
C1863 C1861 1.366 . S
C1863 C1862 1.416 . S
C1863 H1865 0.930 . S
H1864 C1853 0.930 . S
H1865 C1863 0.930 . S
H1866 C1881 0.930 . S
H1867 C1888 0.930 . S
H1868 C1862 0.929 . S
H1869 C1861 0.930 1_545 S
H1870 C1884 0.929 . S
H1871 C1851 0.931 . S
H1872 C1857 0.931 1_545 S
H1873 C1858 0.931 . S
H1874 C1879 0.931 . S
H1875 C1854 0.929 . S
H1876 C1887 0.930 1_655 S
N1877 Eu1848 2.600 . S
N1877 C1878 1.365 . S
N1877 C1881 1.319 . S
C1878 N1877 1.365 . S
C1878 C1880 1.405 . S
C1878 C1886 1.448 . S
C1879 H1874 0.931 . S
C1879 C1881 1.397 . S
C1879 C1882 1.367 . S
C1880 C1878 1.405 . S
C1880 C1882 1.403 . S
C1880 C1913 1.439 . S
C1881 H1866 0.930 . S
C1881 N1877 1.319 . S
C1881 C1879 1.397 . S
C1882 C1879 1.367 . S
C1882 C1880 1.403 . S
C1882 H1889 0.929 . S
N1883 Eu1848 2.562 . S
N1883 C1884 1.325 . S
N1883 C1886 1.351 . S
C1884 H1870 0.929 . S
C1884 N1883 1.325 . S
C1884 C1888 1.416 . S
C1885 C1886 1.430 . S
C1885 C1887 1.404 . S
C1885 C1914 1.387 1_455 S
C1886 C1878 1.448 . S
C1886 N1883 1.351 . S
C1886 C1885 1.430 . S
C1887 H1876 0.930 1_455 S
C1887 C1885 1.404 . S
C1887 C1888 1.366 . S
C1888 H1867 0.930 . S
C1888 C1884 1.416 . S
C1888 C1887 1.366 . S
H1889 C1882 0.929 . S
H1890 C1913 0.931 1_655 S
H1891 C1914 0.931 . S
O1892 Eu1848 2.462 . S
O1892 C1912 1.252 . S
O1893 Eu1848 2.373 . S
O1893 C1904 1.249 . S
O1894 Eu1859 2.335 . S
O1894 C1904 1.264 . S
O1895 Eu1848 2.432 . S
O1895 C1912 1.268 . S
O1896 Eu1848 2.291 . S
O1896 C1911 1.255 . S
O1897 Eu1859 2.372 . S
O1897 C1911 1.257 . S
O1898 Eu1859 2.462 . S
O1898 C1923 1.252 . S
O1899 Eu1859 2.373 . S
O1899 C1915 1.249 . S
O1900 Eu1848 2.335 . S
O1900 C1915 1.264 . S
O1901 Eu1859 2.432 . S
O1901 C1923 1.268 . S
O1902 Eu1859 2.291 . S
O1902 C1922 1.255 . S
O1903 Eu1848 2.372 . S
O1903 C1922 1.257 . S
C1904 O1893 1.249 . S
C1904 O1894 1.264 . S
C1905 C1908 1.382 . S
C1905 C1910 1.390 . S
C1905 C1912 1.506 . S
C1906 C1907 1.398 . S
C1906 C1910 1.392 . S
C1907 C1906 1.398 . S
C1907 C1909 1.372 . S
C1907 H1924 0.931 . S
C1908 C1905 1.382 . S
C1908 C1909 1.390 . S
C1908 H1925 0.931 . S
C1909 C1907 1.372 . S
C1909 C1908 1.390 . S
C1909 H1926 0.929 . S
C1910 C1905 1.390 . S
C1910 C1906 1.392 . S
C1910 H1927 0.930 . S
C1911 O1896 1.255 . S
C1911 O1897 1.257 . S
C1912 Eu1848 2.787 . S
C1912 O1892 1.252 . S
C1912 O1895 1.268 . S
C1912 C1905 1.506 . S
C1913 C1880 1.439 . S
C1913 H1890 0.931 1_455 S
C1913 C1914 1.374 1_455 S
C1914 C1885 1.387 1_655 S
C1914 H1891 0.931 . S
C1914 C1913 1.374 1_655 S
C1915 O1899 1.249 . S
C1915 O1900 1.264 . S
C1916 C1919 1.382 1_565 S
C1916 C1920 1.390 1_565 S
C1916 C1923 1.506 . S
C1917 C1918 1.398 . S
C1917 C1920 1.392 . S
C1918 C1917 1.398 . S
C1918 C1921 1.372 . S
C1918 H1928 0.931 . S
C1919 C1916 1.382 1_545 S
C1919 C1921 1.390 . S
C1919 H1929 0.931 1_545 S
C1920 C1916 1.390 1_545 S
C1920 C1917 1.392 . S
C1920 H1930 0.930 . S
C1921 C1918 1.372 . S
C1921 C1919 1.390 . S
C1921 H1931 0.929 . S
C1922 O1902 1.255 . S
C1922 O1903 1.257 . S
C1923 Eu1859 2.787 . S
C1923 O1898 1.252 . S
C1923 O1901 1.268 . S
C1923 C1916 1.506 . S
H1924 C1907 0.931 . S
H1925 C1908 0.931 . S
H1926 C1909 0.929 . S
H1927 C1910 0.930 . S
H1928 C1918 0.931 . S
H1929 C1919 0.931 1_565 S
H1930 C1920 0.930 . S
H1931 C1921 0.929 . S
Eu1932 N1961 2.600 . S
Eu1932 N1967 2.562 . S
Eu1932 O1976 2.462 . S
Eu1932 O1977 2.373 . S
Eu1932 O1979 2.432 . S
Eu1932 O1980 2.291 . S
Eu1932 O1984 2.335 . S
Eu1932 O1987 2.372 . S
Eu1932 C1996 2.787 . S
C1933 N1934 1.365 . S
C1933 C1936 1.405 . S
C1933 C1940 1.448 . S
N1934 C1933 1.365 . S
N1934 C1937 1.319 . S
N1934 Eu1943 2.600 . S
C1935 C1937 1.397 . S
C1935 C1938 1.367 . S
C1935 H1955 0.931 . S
C1936 C1933 1.405 . S
C1936 C1938 1.403 . S
C1936 C1942 1.439 . S
C1937 N1934 1.319 . S
C1937 C1935 1.397 . S
C1937 H1948 0.930 . S
C1938 C1935 1.367 . S
C1938 C1936 1.403 . S
C1938 H1959 0.929 . S
C1939 C1940 1.430 . S
C1939 C1941 1.387 . S
C1939 C1945 1.404 . S
C1940 C1933 1.448 . S
C1940 C1939 1.430 . S
C1940 N1944 1.351 . S
C1941 C1939 1.387 . S
C1941 C1942 1.374 . S
C1941 H1956 0.931 . S
C1942 C1936 1.439 . S
C1942 C1941 1.374 . S
C1942 H1957 0.931 . S
Eu1943 N1934 2.600 . S
Eu1943 N1944 2.562 . S
Eu1943 O1978 2.335 . S
Eu1943 O1981 2.372 . S
Eu1943 O1982 2.462 . S
Eu1943 O1983 2.373 . S
Eu1943 O1985 2.432 . S
Eu1943 O1986 2.291 . S
Eu1943 C2007 2.787 . S
N1944 C1940 1.351 . S
N1944 Eu1943 2.562 . S
N1944 C1946 1.325 . S
C1945 C1939 1.404 . S
C1945 C1947 1.366 . S
C1945 H1953 0.930 . S
C1946 N1944 1.325 . S
C1946 C1947 1.416 . S
C1946 H1952 0.929 . S
C1947 C1945 1.366 . S
C1947 C1946 1.416 . S
C1947 H1949 0.930 . S
H1948 C1937 0.930 . S
H1949 C1947 0.930 . S
H1950 C1965 0.930 . S
H1951 C1972 0.930 . S
H1952 C1946 0.929 . S
H1953 C1945 0.930 . S
H1954 C1968 0.929 . S
H1955 C1935 0.931 . S
H1956 C1941 0.931 . S
H1957 C1942 0.931 . S
H1958 C1963 0.931 . S
H1959 C1938 0.929 . S
H1960 C1971 0.930 . S
N1961 Eu1932 2.600 . S
N1961 C1962 1.365 . S
N1961 C1965 1.319 . S
C1962 N1961 1.365 . S
C1962 C1964 1.405 . S
C1962 C1970 1.448 . S
C1963 H1958 0.931 . S
C1963 C1965 1.397 . S
C1963 C1966 1.367 . S
C1964 C1962 1.405 . S
C1964 C1966 1.403 . S
C1964 C1997 1.439 . S
C1965 H1950 0.930 . S
C1965 N1961 1.319 . S
C1965 C1963 1.397 . S
C1966 C1963 1.367 . S
C1966 C1964 1.403 . S
C1966 H1973 0.929 . S
N1967 Eu1932 2.562 . S
N1967 C1968 1.325 . S
N1967 C1970 1.351 . S
C1968 H1954 0.929 . S
C1968 N1967 1.325 . S
C1968 C1972 1.416 . S
C1969 C1970 1.430 . S
C1969 C1971 1.404 . S
C1969 C1998 1.387 . S
C1970 C1962 1.448 . S
C1970 N1967 1.351 . S
C1970 C1969 1.430 . S
C1971 H1960 0.930 . S
C1971 C1969 1.404 . S
C1971 C1972 1.366 . S
C1972 H1951 0.930 . S
C1972 C1968 1.416 . S
C1972 C1971 1.366 . S
H1973 C1966 0.929 . S
H1974 C1997 0.931 . S
H1975 C1998 0.931 . S
O1976 Eu1932 2.462 . S
O1976 C1996 1.252 . S
O1977 Eu1932 2.373 . S
O1977 C1988 1.249 . S
O1978 Eu1943 2.335 . S
O1978 C1988 1.264 . S
O1979 Eu1932 2.432 . S
O1979 C1996 1.268 . S
O1980 Eu1932 2.291 . S
O1980 C1995 1.255 . S
O1981 Eu1943 2.372 . S
O1981 C1995 1.257 . S
O1982 Eu1943 2.462 . S
O1982 C2007 1.252 . S
O1983 Eu1943 2.373 . S
O1983 C1999 1.249 . S
O1984 Eu1932 2.335 . S
O1984 C1999 1.264 . S
O1985 Eu1943 2.432 . S
O1985 C2007 1.268 . S
O1986 Eu1943 2.291 . S
O1986 C2006 1.255 . S
O1987 Eu1932 2.372 . S
O1987 C2006 1.257 . S
C1988 O1977 1.249 . S
C1988 O1978 1.264 . S
C1989 C1992 1.382 . S
C1989 C1994 1.390 . S
C1989 C1996 1.506 . S
C1990 C1991 1.398 . S
C1990 C1994 1.392 . S
C1991 C1990 1.398 . S
C1991 C1993 1.372 . S
C1991 H2008 0.931 . S
C1992 C1989 1.382 . S
C1992 C1993 1.390 . S
C1992 H2009 0.931 . S
C1993 C1991 1.372 . S
C1993 C1992 1.390 . S
C1993 H2010 0.929 . S
C1994 C1989 1.390 . S
C1994 C1990 1.392 . S
C1994 H2011 0.930 . S
C1995 O1980 1.255 . S
C1995 O1981 1.257 . S
C1996 Eu1932 2.787 . S
C1996 O1976 1.252 . S
C1996 O1979 1.268 . S
C1996 C1989 1.506 . S
C1997 C1964 1.439 . S
C1997 H1974 0.931 . S
C1997 C1998 1.374 . S
C1998 C1969 1.387 . S
C1998 H1975 0.931 . S
C1998 C1997 1.374 . S
C1999 O1983 1.249 . S
C1999 O1984 1.264 . S
C2000 C2003 1.382 . S
C2000 C2004 1.390 . S
C2000 C2007 1.506 . S
C2001 C2002 1.398 . S
C2001 C2004 1.392 . S
C2002 C2001 1.398 . S
C2002 C2005 1.372 . S
C2002 H2012 0.931 1_455 S
C2003 C2000 1.382 . S
C2003 C2005 1.390 . S
C2003 H2013 0.931 . S
C2004 C2000 1.390 . S
C2004 C2001 1.392 . S
C2004 H2014 0.930 . S
C2005 C2002 1.372 . S
C2005 C2003 1.390 . S
C2005 H2015 0.929 . S
C2006 O1986 1.255 . S
C2006 O1987 1.257 . S
C2007 Eu1943 2.787 . S
C2007 O1982 1.252 . S
C2007 O1985 1.268 . S
C2007 C2000 1.506 . S
H2008 C1991 0.931 . S
H2009 C1992 0.931 . S
H2010 C1993 0.929 . S
H2011 C1994 0.930 . S
H2012 C2002 0.931 1_655 S
H2013 C2003 0.931 . S
H2014 C2004 0.930 . S
H2015 C2005 0.929 . S
Eu2016 N2045 2.600 . S
Eu2016 N2051 2.562 . S
Eu2016 O2060 2.462 . S
Eu2016 O2061 2.373 . S
Eu2016 O2063 2.432 . S
Eu2016 O2064 2.291 . S
Eu2016 O2068 2.335 . S
Eu2016 O2071 2.372 . S
Eu2016 C2080 2.787 . S
C2017 N2018 1.365 . S
C2017 C2020 1.405 . S
C2017 C2024 1.448 . S
N2018 C2017 1.365 . S
N2018 C2021 1.319 . S
N2018 Eu2027 2.600 . S
C2019 C2021 1.397 . S
C2019 C2022 1.367 . S
C2019 H2039 0.931 . S
C2020 C2017 1.405 . S
C2020 C2022 1.403 . S
C2020 C2026 1.439 . S
C2021 N2018 1.319 . S
C2021 C2019 1.397 . S
C2021 H2032 0.930 . S
C2022 C2019 1.367 . S
C2022 C2020 1.403 . S
C2022 H2043 0.929 . S
C2023 C2024 1.430 . S
C2023 C2025 1.387 . S
C2023 C2029 1.404 . S
C2024 C2017 1.448 . S
C2024 C2023 1.430 . S
C2024 N2028 1.351 . S
C2025 C2023 1.387 . S
C2025 C2026 1.374 . S
C2025 H2040 0.931 . S
C2026 C2020 1.439 . S
C2026 C2025 1.374 . S
C2026 H2041 0.931 . S
Eu2027 N2018 2.600 . S
Eu2027 N2028 2.562 . S
Eu2027 O2062 2.335 . S
Eu2027 O2065 2.372 . S
Eu2027 O2066 2.462 . S
Eu2027 O2067 2.373 . S
Eu2027 O2069 2.432 . S
Eu2027 O2070 2.291 . S
Eu2027 C2091 2.787 . S
N2028 C2024 1.351 . S
N2028 Eu2027 2.562 . S
N2028 C2030 1.325 . S
C2029 C2023 1.404 . S
C2029 C2031 1.366 . S
C2029 H2037 0.930 . S
C2030 N2028 1.325 . S
C2030 C2031 1.416 . S
C2030 H2036 0.929 . S
C2031 C2029 1.366 . S
C2031 C2030 1.416 . S
C2031 H2033 0.930 . S
H2032 C2021 0.930 . S
H2033 C2031 0.930 . S
H2034 C2049 0.930 . S
H2035 C2056 0.930 . S
H2036 C2030 0.929 . S
H2037 C2029 0.930 . S
H2038 C2052 0.929 . S
H2039 C2019 0.931 . S
H2040 C2025 0.931 . S
H2041 C2026 0.931 . S
H2042 C2047 0.931 . S
H2043 C2022 0.929 . S
H2044 C2055 0.930 . S
N2045 Eu2016 2.600 . S
N2045 C2046 1.365 . S
N2045 C2049 1.319 . S
C2046 N2045 1.365 . S
C2046 C2048 1.405 . S
C2046 C2054 1.448 . S
C2047 H2042 0.931 . S
C2047 C2049 1.397 . S
C2047 C2050 1.367 . S
C2048 C2046 1.405 . S
C2048 C2050 1.403 . S
C2048 C2081 1.439 1_655 S
C2049 H2034 0.930 . S
C2049 N2045 1.319 . S
C2049 C2047 1.397 . S
C2050 C2047 1.367 . S
C2050 C2048 1.403 . S
C2050 H2057 0.929 . S
N2051 Eu2016 2.562 . S
N2051 C2052 1.325 . S
N2051 C2054 1.351 . S
C2052 H2038 0.929 . S
C2052 N2051 1.325 . S
C2052 C2056 1.416 1_655 S
C2053 C2054 1.430 1_455 S
C2053 C2055 1.404 . S
C2053 C2082 1.387 . S
C2054 C2046 1.448 . S
C2054 N2051 1.351 . S
C2054 C2053 1.430 1_655 S
C2055 H2044 0.930 . S
C2055 C2053 1.404 . S
C2055 C2056 1.366 . S
C2056 H2035 0.930 . S
C2056 C2052 1.416 1_455 S
C2056 C2055 1.366 . S
H2057 C2050 0.929 . S
H2058 C2081 0.931 . S
H2059 C2082 0.931 . S
O2060 Eu2016 2.462 . S
O2060 C2080 1.252 . S
O2061 Eu2016 2.373 . S
O2061 C2072 1.249 . S
O2062 Eu2027 2.335 . S
O2062 C2072 1.264 . S
O2063 Eu2016 2.432 . S
O2063 C2080 1.268 . S
O2064 Eu2016 2.291 . S
O2064 C2079 1.255 . S
O2065 Eu2027 2.372 . S
O2065 C2079 1.257 . S
O2066 Eu2027 2.462 . S
O2066 C2091 1.252 . S
O2067 Eu2027 2.373 . S
O2067 C2083 1.249 . S
O2068 Eu2016 2.335 . S
O2068 C2083 1.264 . S
O2069 Eu2027 2.432 . S
O2069 C2091 1.268 . S
O2070 Eu2027 2.291 . S
O2070 C2090 1.255 . S
O2071 Eu2016 2.372 . S
O2071 C2090 1.257 . S
C2072 O2061 1.249 . S
C2072 O2062 1.264 . S
C2073 C2076 1.382 . S
C2073 C2078 1.390 . S
C2073 C2080 1.506 . S
C2074 C2075 1.398 . S
C2074 C2078 1.392 . S
C2075 C2074 1.398 . S
C2075 C2077 1.372 . S
C2075 H2092 0.931 . S
C2076 C2073 1.382 . S
C2076 C2077 1.390 . S
C2076 H2093 0.931 . S
C2077 C2075 1.372 . S
C2077 C2076 1.390 . S
C2077 H2094 0.929 . S
C2078 C2073 1.390 . S
C2078 C2074 1.392 . S
C2078 H2095 0.930 . S
C2079 O2064 1.255 . S
C2079 O2065 1.257 . S
C2080 Eu2016 2.787 . S
C2080 O2060 1.252 . S
C2080 O2063 1.268 . S
C2080 C2073 1.506 . S
C2081 C2048 1.439 1_455 S
C2081 H2058 0.931 . S
C2081 C2082 1.374 . S
C2082 C2053 1.387 . S
C2082 H2059 0.931 . S
C2082 C2081 1.374 . S
C2083 O2067 1.249 . S
C2083 O2068 1.264 . S
C2084 C2087 1.382 . S
C2084 C2088 1.390 . S
C2084 C2091 1.506 . S
C2085 C2086 1.398 . S
C2085 C2088 1.392 . S
C2086 C2085 1.398 . S
C2086 C2089 1.372 . S
C2086 H2096 0.931 . S
C2087 C2084 1.382 . S
C2087 C2089 1.390 . S
C2087 H2097 0.931 . S
C2088 C2084 1.390 . S
C2088 C2085 1.392 . S
C2088 H2098 0.930 . S
C2089 C2086 1.372 . S
C2089 C2087 1.390 . S
C2089 H2099 0.929 . S
C2090 O2070 1.255 . S
C2090 O2071 1.257 . S
C2091 Eu2027 2.787 . S
C2091 O2066 1.252 . S
C2091 O2069 1.268 . S
C2091 C2084 1.506 . S
H2092 C2075 0.931 . S
H2093 C2076 0.931 . S
H2094 C2077 0.929 . S
H2095 C2078 0.930 . S
H2096 C2086 0.931 . S
H2097 C2087 0.931 . S
H2098 C2088 0.930 . S
H2099 C2089 0.929 . S
Eu2100 N2129 2.600 . S
Eu2100 N2135 2.562 . S
Eu2100 O2144 2.462 . S
Eu2100 O2145 2.373 . S
Eu2100 O2147 2.432 . S
Eu2100 O2148 2.291 . S
Eu2100 O2152 2.335 . S
Eu2100 O2155 2.372 . S
Eu2100 C2164 2.787 . S
C2101 N2102 1.365 . S
C2101 C2104 1.405 . S
C2101 C2108 1.448 . S
N2102 C2101 1.365 . S
N2102 C2105 1.319 . S
N2102 Eu2111 2.600 . S
C2103 C2105 1.397 . S
C2103 C2106 1.367 . S
C2103 H2123 0.931 . S
C2104 C2101 1.405 . S
C2104 C2106 1.403 . S
C2104 C2110 1.439 . S
C2105 N2102 1.319 . S
C2105 C2103 1.397 . S
C2105 H2116 0.930 . S
C2106 C2103 1.367 . S
C2106 C2104 1.403 . S
C2106 H2127 0.929 . S
C2107 C2108 1.430 . S
C2107 C2109 1.387 . S
C2107 C2113 1.404 . S
C2108 C2101 1.448 . S
C2108 C2107 1.430 . S
C2108 N2112 1.351 . S
C2109 C2107 1.387 . S
C2109 C2110 1.374 . S
C2109 H2124 0.931 . S
C2110 C2104 1.439 . S
C2110 C2109 1.374 . S
C2110 H2125 0.931 . S
Eu2111 N2102 2.600 . S
Eu2111 N2112 2.562 . S
Eu2111 O2146 2.335 . S
Eu2111 O2149 2.372 . S
Eu2111 O2150 2.462 . S
Eu2111 O2151 2.373 . S
Eu2111 O2153 2.432 . S
Eu2111 O2154 2.291 . S
Eu2111 C2175 2.787 . S
N2112 C2108 1.351 . S
N2112 Eu2111 2.562 . S
N2112 C2114 1.325 . S
C2113 C2107 1.404 . S
C2113 C2115 1.366 . S
C2113 H2121 0.930 . S
C2114 N2112 1.325 . S
C2114 C2115 1.416 . S
C2114 H2120 0.929 . S
C2115 C2113 1.366 . S
C2115 C2114 1.416 . S
C2115 H2117 0.930 . S
H2116 C2105 0.930 . S
H2117 C2115 0.930 . S
H2118 C2133 0.930 . S
H2119 C2140 0.930 . S
H2120 C2114 0.929 . S
H2121 C2113 0.930 . S
H2122 C2136 0.929 . S
H2123 C2103 0.931 . S
H2124 C2109 0.931 . S
H2125 C2110 0.931 . S
H2126 C2131 0.931 . S
H2127 C2106 0.929 . S
H2128 C2139 0.930 . S
N2129 Eu2100 2.600 . S
N2129 C2130 1.365 . S
N2129 C2133 1.319 . S
C2130 N2129 1.365 . S
C2130 C2132 1.405 . S
C2130 C2138 1.448 . S
C2131 H2126 0.931 . S
C2131 C2133 1.397 . S
C2131 C2134 1.367 . S
C2132 C2130 1.405 . S
C2132 C2134 1.403 . S
C2132 C2165 1.439 . S
C2133 H2118 0.930 . S
C2133 N2129 1.319 . S
C2133 C2131 1.397 . S
C2134 C2131 1.367 . S
C2134 C2132 1.403 . S
C2134 H2141 0.929 . S
N2135 Eu2100 2.562 . S
N2135 C2136 1.325 . S
N2135 C2138 1.351 . S
C2136 H2122 0.929 . S
C2136 N2135 1.325 . S
C2136 C2140 1.416 . S
C2137 C2138 1.430 . S
C2137 C2139 1.404 . S
C2137 C2166 1.387 . S
C2138 C2130 1.448 . S
C2138 N2135 1.351 . S
C2138 C2137 1.430 . S
C2139 H2128 0.930 . S
C2139 C2137 1.404 . S
C2139 C2140 1.366 . S
C2140 H2119 0.930 . S
C2140 C2136 1.416 . S
C2140 C2139 1.366 . S
H2141 C2134 0.929 . S
H2142 C2165 0.931 . S
H2143 C2166 0.931 . S
O2144 Eu2100 2.462 . S
O2144 C2164 1.252 . S
O2145 Eu2100 2.373 . S
O2145 C2156 1.249 . S
O2146 Eu2111 2.335 . S
O2146 C2156 1.264 . S
O2147 Eu2100 2.432 . S
O2147 C2164 1.268 . S
O2148 Eu2100 2.291 . S
O2148 C2163 1.255 . S
O2149 Eu2111 2.372 . S
O2149 C2163 1.257 . S
O2150 Eu2111 2.462 . S
O2150 C2175 1.252 . S
O2151 Eu2111 2.373 . S
O2151 C2167 1.249 . S
O2152 Eu2100 2.335 . S
O2152 C2167 1.264 . S
O2153 Eu2111 2.432 . S
O2153 C2175 1.268 . S
O2154 Eu2111 2.291 . S
O2154 C2174 1.255 . S
O2155 Eu2100 2.372 . S
O2155 C2174 1.257 . S
C2156 O2145 1.249 . S
C2156 O2146 1.264 . S
C2157 C2160 1.382 . S
C2157 C2162 1.390 . S
C2157 C2164 1.506 . S
C2158 C2159 1.398 . S
C2158 C2162 1.392 . S
C2159 C2158 1.398 . S
C2159 C2161 1.372 . S
C2159 H2176 0.931 . S
C2160 C2157 1.382 . S
C2160 C2161 1.390 . S
C2160 H2177 0.931 . S
C2161 C2159 1.372 . S
C2161 C2160 1.390 . S
C2161 H2178 0.929 . S
C2162 C2157 1.390 . S
C2162 C2158 1.392 . S
C2162 H2179 0.930 . S
C2163 O2148 1.255 . S
C2163 O2149 1.257 . S
C2164 Eu2100 2.787 . S
C2164 O2144 1.252 . S
C2164 O2147 1.268 . S
C2164 C2157 1.506 . S
C2165 C2132 1.439 . S
C2165 H2142 0.931 . S
C2165 C2166 1.374 . S
C2166 C2137 1.387 . S
C2166 H2143 0.931 . S
C2166 C2165 1.374 . S
C2167 O2151 1.249 . S
C2167 O2152 1.264 . S
C2168 C2171 1.382 . S
C2168 C2172 1.390 . S
C2168 C2175 1.506 . S
C2169 C2170 1.398 . S
C2169 C2172 1.392 1_565 S
C2170 C2169 1.398 . S
C2170 C2173 1.372 . S
C2170 H2180 0.931 . S
C2171 C2168 1.382 . S
C2171 C2173 1.390 1_545 S
C2171 H2181 0.931 . S
C2172 C2168 1.390 . S
C2172 C2169 1.392 1_545 S
C2172 H2182 0.930 . S
C2173 C2170 1.372 . S
C2173 C2171 1.390 1_565 S
C2173 H2183 0.929 . S
C2174 O2154 1.255 . S
C2174 O2155 1.257 . S
C2175 Eu2111 2.787 . S
C2175 O2150 1.252 . S
C2175 O2153 1.268 . S
C2175 C2168 1.506 . S
H2176 C2159 0.931 . S
H2177 C2160 0.931 . S
H2178 C2161 0.929 . S
H2179 C2162 0.930 . S
H2180 C2170 0.931 . S
H2181 C2171 0.931 . S
H2182 C2172 0.930 . S
H2183 C2173 0.929 . S
Eu2184 N2213 2.600 . S
Eu2184 N2219 2.562 . S
Eu2184 O2228 2.462 . S
Eu2184 O2229 2.373 . S
Eu2184 O2231 2.432 . S
Eu2184 O2232 2.291 . S
Eu2184 O2236 2.335 . S
Eu2184 O2239 2.372 . S
Eu2184 C2248 2.787 . S
C2185 N2186 1.363 1_455 S
C2185 C2188 1.404 . S
C2185 C2192 1.451 . S
N2186 C2185 1.363 1_655 S
N2186 C2189 1.319 . S
N2186 Eu2195 2.600 . S
C2187 C2189 1.397 . S
C2187 C2190 1.367 . S
C2187 H2207 0.931 . S
C2188 C2185 1.404 . S
C2188 C2190 1.403 1_455 S
C2188 C2194 1.439 . S
C2189 N2186 1.319 . S
C2189 C2187 1.397 . S
C2189 H2200 0.930 . S
C2190 C2187 1.367 . S
C2190 C2188 1.403 1_655 S
C2190 H2211 0.929 1_655 S
C2191 C2192 1.430 . S
C2191 C2193 1.387 . S
C2191 C2197 1.404 . S
C2192 C2185 1.451 . S
C2192 C2191 1.430 . S
C2192 N2196 1.351 . S
C2193 C2191 1.387 . S
C2193 C2194 1.374 . S
C2193 H2208 0.931 . S
C2194 C2188 1.439 . S
C2194 C2193 1.374 . S
C2194 H2209 0.931 . S
Eu2195 N2186 2.600 . S
Eu2195 N2196 2.562 1_655 S
Eu2195 O2230 2.335 . S
Eu2195 O2233 2.372 . S
Eu2195 O2234 2.462 1_655 S
Eu2195 O2235 2.373 . S
Eu2195 O2237 2.432 . S
Eu2195 O2238 2.291 . S
Eu2195 C2259 2.787 1_655 S
N2196 C2192 1.351 . S
N2196 Eu2195 2.562 1_455 S
N2196 C2198 1.325 . S
C2197 C2191 1.404 . S
C2197 C2199 1.366 . S
C2197 H2205 0.930 . S
C2198 N2196 1.325 . S
C2198 C2199 1.416 . S
C2198 H2204 0.929 . S
C2199 C2197 1.366 . S
C2199 C2198 1.416 . S
C2199 H2201 0.930 . S
H2200 C2189 0.930 . S
H2201 C2199 0.930 . S
H2202 C2217 0.930 . S
H2203 C2224 0.930 . S
H2204 C2198 0.929 . S
H2205 C2197 0.930 . S
H2206 C2220 0.929 . S
H2207 C2187 0.931 . S
H2208 C2193 0.931 . S
H2209 C2194 0.931 . S
H2210 C2215 0.931 . S
H2211 C2190 0.929 1_455 S
H2212 C2223 0.930 . S
N2213 Eu2184 2.600 . S
N2213 C2214 1.365 . S
N2213 C2217 1.319 . S
C2214 N2213 1.365 . S
C2214 C2216 1.405 . S
C2214 C2222 1.448 . S
C2215 H2210 0.931 . S
C2215 C2217 1.397 . S
C2215 C2218 1.367 . S
C2216 C2214 1.405 . S
C2216 C2218 1.403 . S
C2216 C2249 1.439 . S
C2217 H2202 0.930 . S
C2217 N2213 1.319 . S
C2217 C2215 1.397 . S
C2218 C2215 1.367 . S
C2218 C2216 1.403 . S
C2218 H2225 0.929 . S
N2219 Eu2184 2.562 . S
N2219 C2220 1.325 . S
N2219 C2222 1.351 . S
C2220 H2206 0.929 . S
C2220 N2219 1.325 . S
C2220 C2224 1.416 . S
C2221 C2222 1.430 . S
C2221 C2223 1.404 . S
C2221 C2250 1.387 . S
C2222 C2214 1.448 . S
C2222 N2219 1.351 . S
C2222 C2221 1.430 . S
C2223 H2212 0.930 . S
C2223 C2221 1.404 . S
C2223 C2224 1.366 . S
C2224 H2203 0.930 . S
C2224 C2220 1.416 . S
C2224 C2223 1.366 . S
H2225 C2218 0.929 . S
H2226 C2249 0.931 . S
H2227 C2250 0.931 . S
O2228 Eu2184 2.462 . S
O2228 C2248 1.252 . S
O2229 Eu2184 2.373 . S
O2229 C2240 1.249 . S
O2230 Eu2195 2.335 . S
O2230 C2240 1.264 . S
O2231 Eu2184 2.432 . S
O2231 C2248 1.268 . S
O2232 Eu2184 2.291 . S
O2232 C2247 1.255 . S
O2233 Eu2195 2.372 . S
O2233 C2247 1.257 . S
O2234 Eu2195 2.462 1_455 S
O2234 C2259 1.252 . S
O2235 Eu2195 2.373 . S
O2235 C2251 1.249 . S
O2236 Eu2184 2.335 . S
O2236 C2251 1.264 . S
O2237 Eu2195 2.432 . S
O2237 C2259 1.268 1_655 S
O2238 Eu2195 2.291 . S
O2238 C2258 1.255 . S
O2239 Eu2184 2.372 . S
O2239 C2258 1.257 . S
C2240 O2229 1.249 . S
C2240 O2230 1.264 . S
C2241 C2244 1.382 . S
C2241 C2246 1.390 . S
C2241 C2248 1.506 . S
C2242 C2243 1.398 . S
C2242 C2246 1.392 . S
C2243 C2242 1.398 . S
C2243 C2245 1.372 . S
C2243 H2260 0.931 . S
C2244 C2241 1.382 . S
C2244 C2245 1.390 . S
C2244 H2261 0.931 . S
C2245 C2243 1.372 . S
C2245 C2244 1.390 . S
C2245 H2262 0.929 . S
C2246 C2241 1.390 . S
C2246 C2242 1.392 . S
C2246 H2263 0.930 . S
C2247 O2232 1.255 . S
C2247 O2233 1.257 . S
C2248 Eu2184 2.787 . S
C2248 O2228 1.252 . S
C2248 O2231 1.268 . S
C2248 C2241 1.506 . S
C2249 C2216 1.439 . S
C2249 H2226 0.931 . S
C2249 C2250 1.374 . S
C2250 C2221 1.387 . S
C2250 H2227 0.931 . S
C2250 C2249 1.374 . S
C2251 O2235 1.249 . S
C2251 O2236 1.264 . S
C2252 C2255 1.382 . S
C2252 C2256 1.390 . S
C2252 C2259 1.506 . S
C2253 C2254 1.398 . S
C2253 C2256 1.392 . S
C2254 C2253 1.398 . S
C2254 C2257 1.372 . S
C2254 H2264 0.931 . S
C2255 C2252 1.382 . S
C2255 C2257 1.390 . S
C2255 H2265 0.931 . S
C2256 C2252 1.390 . S
C2256 C2253 1.392 . S
C2256 H2266 0.930 . S
C2257 C2254 1.372 . S
C2257 C2255 1.390 . S
C2257 H2267 0.929 . S
C2258 O2238 1.255 . S
C2258 O2239 1.257 . S
C2259 Eu2195 2.787 1_455 S
C2259 O2234 1.252 . S
C2259 O2237 1.268 1_455 S
C2259 C2252 1.506 . S
H2260 C2243 0.931 . S
H2261 C2244 0.931 . S
H2262 C2245 0.929 . S
H2263 C2246 0.930 . S
H2264 C2254 0.931 . S
H2265 C2255 0.931 . S
H2266 C2256 0.930 . S
H2267 C2257 0.929 . S
Eu2268 N2297 2.600 . S
Eu2268 N2303 2.562 . S
Eu2268 O2312 2.462 . S
Eu2268 O2313 2.373 . S
Eu2268 O2315 2.432 . S
Eu2268 O2316 2.291 . S
Eu2268 O2320 2.335 . S
Eu2268 O2323 2.372 . S
Eu2268 C2332 2.787 . S
C2269 N2270 1.365 . S
C2269 C2272 1.405 . S
C2269 C2276 1.448 . S
N2270 C2269 1.365 . S
N2270 C2273 1.319 . S
N2270 Eu2279 2.600 . S
C2271 C2273 1.397 . S
C2271 C2274 1.367 . S
C2271 H2291 0.931 . S
C2272 C2269 1.405 . S
C2272 C2274 1.403 . S
C2272 C2278 1.439 . S
C2273 N2270 1.319 . S
C2273 C2271 1.397 . S
C2273 H2284 0.930 . S
C2274 C2271 1.367 . S
C2274 C2272 1.403 . S
C2274 H2295 0.929 . S
C2275 C2276 1.430 . S
C2275 C2277 1.387 1_545 S
C2275 C2281 1.404 . S
C2276 C2269 1.448 . S
C2276 C2275 1.430 . S
C2276 N2280 1.351 . S
C2277 C2275 1.387 1_565 S
C2277 C2278 1.374 1_565 S
C2277 H2292 0.931 . S
C2278 C2272 1.439 . S
C2278 C2277 1.374 1_545 S
C2278 H2293 0.931 1_545 S
Eu2279 N2270 2.600 . S
Eu2279 N2280 2.562 . S
Eu2279 O2314 2.335 . S
Eu2279 O2317 2.372 . S
Eu2279 O2318 2.462 . S
Eu2279 O2319 2.373 . S
Eu2279 O2321 2.432 . S
Eu2279 O2322 2.291 . S
Eu2279 C2343 2.787 . S
N2280 C2276 1.351 . S
N2280 Eu2279 2.562 . S
N2280 C2282 1.325 . S
C2281 C2275 1.404 . S
C2281 C2283 1.366 . S
C2281 H2289 0.930 1_545 S
C2282 N2280 1.325 . S
C2282 C2283 1.416 . S
C2282 H2288 0.929 . S
C2283 C2281 1.366 . S
C2283 C2282 1.416 . S
C2283 H2285 0.930 . S
H2284 C2273 0.930 . S
H2285 C2283 0.930 . S
H2286 C2301 0.930 . S
H2287 C2308 0.930 . S
H2288 C2282 0.929 . S
H2289 C2281 0.930 1_565 S
H2290 C2304 0.929 . S
H2291 C2271 0.931 . S
H2292 C2277 0.931 . S
H2293 C2278 0.931 1_565 S
H2294 C2299 0.931 . S
H2295 C2274 0.929 . S
H2296 C2307 0.930 . S
N2297 Eu2268 2.600 . S
N2297 C2298 1.365 . S
N2297 C2301 1.319 . S
C2298 N2297 1.365 . S
C2298 C2300 1.405 . S
C2298 C2306 1.448 . S
C2299 H2294 0.931 . S
C2299 C2301 1.397 . S
C2299 C2302 1.367 . S
C2300 C2298 1.405 . S
C2300 C2302 1.403 . S
C2300 C2333 1.439 . S
C2301 H2286 0.930 . S
C2301 N2297 1.319 . S
C2301 C2299 1.397 . S
C2302 C2299 1.367 . S
C2302 C2300 1.403 . S
C2302 H2309 0.929 . S
N2303 Eu2268 2.562 . S
N2303 C2304 1.325 . S
N2303 C2306 1.351 . S
C2304 H2290 0.929 . S
C2304 N2303 1.325 . S
C2304 C2308 1.416 . S
C2305 C2306 1.430 . S
C2305 C2307 1.404 . S
C2305 C2334 1.387 . S
C2306 C2298 1.448 . S
C2306 N2303 1.351 . S
C2306 C2305 1.430 . S
C2307 H2296 0.930 . S
C2307 C2305 1.404 . S
C2307 C2308 1.366 . S
C2308 H2287 0.930 . S
C2308 C2304 1.416 . S
C2308 C2307 1.366 . S
H2309 C2302 0.929 . S
H2310 C2333 0.931 . S
H2311 C2334 0.931 . S
O2312 Eu2268 2.462 . S
O2312 C2332 1.252 . S
O2313 Eu2268 2.373 . S
O2313 C2324 1.249 . S
O2314 Eu2279 2.335 . S
O2314 C2324 1.264 . S
O2315 Eu2268 2.432 . S
O2315 C2332 1.268 . S
O2316 Eu2268 2.291 . S
O2316 C2331 1.255 . S
O2317 Eu2279 2.372 . S
O2317 C2331 1.257 . S
O2318 Eu2279 2.462 . S
O2318 C2343 1.252 . S
O2319 Eu2279 2.373 . S
O2319 C2335 1.249 . S
O2320 Eu2268 2.335 . S
O2320 C2335 1.264 . S
O2321 Eu2279 2.432 . S
O2321 C2343 1.268 . S
O2322 Eu2279 2.291 . S
O2322 C2342 1.255 . S
O2323 Eu2268 2.372 . S
O2323 C2342 1.257 . S
C2324 O2313 1.249 . S
C2324 O2314 1.264 . S
C2325 C2328 1.382 . S
C2325 C2330 1.390 . S
C2325 C2332 1.506 . S
C2326 C2327 1.398 . S
C2326 C2330 1.392 . S
C2327 C2326 1.398 . S
C2327 C2329 1.372 . S
C2327 H2344 0.931 . S
C2328 C2325 1.382 . S
C2328 C2329 1.390 . S
C2328 H2345 0.931 . S
C2329 C2327 1.372 . S
C2329 C2328 1.390 . S
C2329 H2346 0.929 . S
C2330 C2325 1.390 . S
C2330 C2326 1.392 . S
C2330 H2347 0.930 . S
C2331 O2316 1.255 . S
C2331 O2317 1.257 . S
C2332 Eu2268 2.787 . S
C2332 O2312 1.252 . S
C2332 O2315 1.268 . S
C2332 C2325 1.506 . S
C2333 C2300 1.439 . S
C2333 H2310 0.931 . S
C2333 C2334 1.374 . S
C2334 C2305 1.387 . S
C2334 H2311 0.931 . S
C2334 C2333 1.374 . S
C2335 O2319 1.249 . S
C2335 O2320 1.264 . S
C2336 C2339 1.382 . S
C2336 C2340 1.390 . S
C2336 C2343 1.506 . S
C2337 C2338 1.398 . S
C2337 C2340 1.392 . S
C2338 C2337 1.398 . S
C2338 C2341 1.372 . S
C2338 H2348 0.931 . S
C2339 C2336 1.382 . S
C2339 C2341 1.390 . S
C2339 H2349 0.931 . S
C2340 C2336 1.390 . S
C2340 C2337 1.392 . S
C2340 H2350 0.930 . S
C2341 C2338 1.372 . S
C2341 C2339 1.390 . S
C2341 H2351 0.929 . S
C2342 O2322 1.255 . S
C2342 O2323 1.257 . S
C2343 Eu2279 2.787 . S
C2343 O2318 1.252 . S
C2343 O2321 1.268 . S
C2343 C2336 1.506 . S
H2344 C2327 0.931 . S
H2345 C2328 0.931 . S
H2346 C2329 0.929 . S
H2347 C2330 0.930 . S
H2348 C2338 0.931 . S
H2349 C2339 0.931 . S
H2350 C2340 0.930 . S
H2351 C2341 0.929 . S
Eu2352 N2381 2.600 . S
Eu2352 N2387 2.562 . S
Eu2352 O2396 2.462 . S
Eu2352 O2397 2.373 . S
Eu2352 O2399 2.432 . S
Eu2352 O2400 2.291 . S
Eu2352 O2404 2.335 . S
Eu2352 O2407 2.372 . S
Eu2352 C2416 2.787 . S
C2353 N2354 1.365 . S
C2353 C2356 1.405 1_655 S
C2353 C2360 1.448 1_655 S
N2354 C2353 1.365 . S
N2354 C2357 1.319 . S
N2354 Eu2363 2.600 . S
C2355 C2357 1.397 . S
C2355 C2358 1.367 1_655 S
C2355 H2375 0.931 . S
C2356 C2353 1.405 1_455 S
C2356 C2358 1.403 . S
C2356 C2362 1.439 . S
C2357 N2354 1.319 . S
C2357 C2355 1.397 . S
C2357 H2368 0.930 . S
C2358 C2355 1.367 1_455 S
C2358 C2356 1.403 . S
C2358 H2379 0.929 . S
C2359 C2360 1.430 . S
C2359 C2361 1.387 . S
C2359 C2365 1.404 . S
C2360 C2353 1.448 1_455 S
C2360 C2359 1.430 . S
C2360 N2364 1.351 1_455 S
C2361 C2359 1.387 . S
C2361 C2362 1.374 . S
C2361 H2376 0.931 . S
C2362 C2356 1.439 . S
C2362 C2361 1.374 . S
C2362 H2377 0.931 . S
Eu2363 N2354 2.600 . S
Eu2363 N2364 2.562 . S
Eu2363 O2398 2.335 . S
Eu2363 O2401 2.372 . S
Eu2363 O2402 2.462 . S
Eu2363 O2403 2.373 . S
Eu2363 O2405 2.432 . S
Eu2363 O2406 2.291 . S
Eu2363 C2427 2.787 . S
N2364 C2360 1.351 1_655 S
N2364 Eu2363 2.562 . S
N2364 C2366 1.325 . S
C2365 C2359 1.404 . S
C2365 C2367 1.366 . S
C2365 H2373 0.930 . S
C2366 N2364 1.325 . S
C2366 C2367 1.416 1_655 S
C2366 H2372 0.929 . S
C2367 C2365 1.366 . S
C2367 C2366 1.416 1_455 S
C2367 H2369 0.930 . S
H2368 C2357 0.930 . S
H2369 C2367 0.930 . S
H2370 C2385 0.930 . S
H2371 C2392 0.930 . S
H2372 C2366 0.929 . S
H2373 C2365 0.930 . S
H2374 C2388 0.929 . S
H2375 C2355 0.931 . S
H2376 C2361 0.931 . S
H2377 C2362 0.931 . S
H2378 C2383 0.931 . S
H2379 C2358 0.929 . S
H2380 C2391 0.930 . S
N2381 Eu2352 2.600 . S
N2381 C2382 1.365 . S
N2381 C2385 1.319 . S
C2382 N2381 1.365 . S
C2382 C2384 1.405 . S
C2382 C2390 1.448 . S
C2383 H2378 0.931 . S
C2383 C2385 1.397 . S
C2383 C2386 1.367 . S
C2384 C2382 1.405 . S
C2384 C2386 1.403 . S
C2384 C2417 1.439 . S
C2385 H2370 0.930 . S
C2385 N2381 1.319 . S
C2385 C2383 1.397 . S
C2386 C2383 1.367 . S
C2386 C2384 1.403 . S
C2386 H2393 0.929 . S
N2387 Eu2352 2.562 . S
N2387 C2388 1.325 . S
N2387 C2390 1.351 . S
C2388 H2374 0.929 . S
C2388 N2387 1.325 . S
C2388 C2392 1.416 . S
C2389 C2390 1.430 . S
C2389 C2391 1.404 . S
C2389 C2418 1.387 . S
C2390 C2382 1.448 . S
C2390 N2387 1.351 . S
C2390 C2389 1.430 . S
C2391 H2380 0.930 . S
C2391 C2389 1.404 . S
C2391 C2392 1.366 . S
C2392 H2371 0.930 . S
C2392 C2388 1.416 . S
C2392 C2391 1.366 . S
H2393 C2386 0.929 . S
H2394 C2417 0.931 . S
H2395 C2418 0.931 . S
O2396 Eu2352 2.462 . S
O2396 C2416 1.252 . S
O2397 Eu2352 2.373 . S
O2397 C2408 1.249 . S
O2398 Eu2363 2.335 . S
O2398 C2408 1.264 . S
O2399 Eu2352 2.432 . S
O2399 C2416 1.268 . S
O2400 Eu2352 2.291 . S
O2400 C2415 1.255 . S
O2401 Eu2363 2.372 . S
O2401 C2415 1.257 . S
O2402 Eu2363 2.462 . S
O2402 C2427 1.252 . S
O2403 Eu2363 2.373 . S
O2403 C2419 1.249 . S
O2404 Eu2352 2.335 . S
O2404 C2419 1.264 . S
O2405 Eu2363 2.432 . S
O2405 C2427 1.268 . S
O2406 Eu2363 2.291 . S
O2406 C2426 1.255 . S
O2407 Eu2352 2.372 . S
O2407 C2426 1.257 . S
C2408 O2397 1.249 . S
C2408 O2398 1.264 . S
C2409 C2412 1.382 . S
C2409 C2414 1.390 . S
C2409 C2416 1.506 . S
C2410 C2411 1.398 . S
C2410 C2414 1.392 . S
C2411 C2410 1.398 . S
C2411 C2413 1.372 . S
C2411 H2428 0.931 1_545 S
C2412 C2409 1.382 . S
C2412 C2413 1.390 . S
C2412 H2429 0.931 . S
C2413 C2411 1.372 . S
C2413 C2412 1.390 . S
C2413 H2430 0.929 . S
C2414 C2409 1.390 . S
C2414 C2410 1.392 . S
C2414 H2431 0.930 . S
C2415 O2400 1.255 . S
C2415 O2401 1.257 . S
C2416 Eu2352 2.787 . S
C2416 O2396 1.252 . S
C2416 O2399 1.268 . S
C2416 C2409 1.506 . S
C2417 C2384 1.439 . S
C2417 H2394 0.931 . S
C2417 C2418 1.374 . S
C2418 C2389 1.387 . S
C2418 H2395 0.931 . S
C2418 C2417 1.374 . S
C2419 O2403 1.249 . S
C2419 O2404 1.264 . S
C2420 C2423 1.382 . S
C2420 C2424 1.390 . S
C2420 C2427 1.506 . S
C2421 C2422 1.398 . S
C2421 C2424 1.392 . S
C2422 C2421 1.398 . S
C2422 C2425 1.372 . S
C2422 H2432 0.931 . S
C2423 C2420 1.382 . S
C2423 C2425 1.390 . S
C2423 H2433 0.931 . S
C2424 C2420 1.390 . S
C2424 C2421 1.392 . S
C2424 H2434 0.930 . S
C2425 C2422 1.372 . S
C2425 C2423 1.390 . S
C2425 H2435 0.929 . S
C2426 O2406 1.255 . S
C2426 O2407 1.257 . S
C2427 Eu2363 2.787 . S
C2427 O2402 1.252 . S
C2427 O2405 1.268 . S
C2427 C2420 1.506 . S
H2428 C2411 0.931 1_565 S
H2429 C2412 0.931 . S
H2430 C2413 0.929 . S
H2431 C2414 0.930 . S
H2432 C2422 0.931 . S
H2433 C2423 0.931 . S
H2434 C2424 0.930 . S
H2435 C2425 0.929 . S
Eu2436 N2465 2.600 . S
Eu2436 N2471 2.562 . S
Eu2436 O2480 2.462 . S
Eu2436 O2481 2.373 . S
Eu2436 O2483 2.432 . S
Eu2436 O2484 2.291 . S
Eu2436 O2488 2.335 . S
Eu2436 O2491 2.372 . S
Eu2436 C2500 2.787 . S
C2437 N2438 1.365 . S
C2437 C2440 1.405 . S
C2437 C2444 1.448 . S
N2438 C2437 1.365 . S
N2438 C2441 1.319 . S
N2438 Eu2447 2.600 . S
C2439 C2441 1.397 . S
C2439 C2442 1.367 . S
C2439 H2459 0.931 . S
C2440 C2437 1.405 . S
C2440 C2442 1.403 . S
C2440 C2446 1.439 . S
C2441 N2438 1.319 . S
C2441 C2439 1.397 . S
C2441 H2452 0.930 . S
C2442 C2439 1.367 . S
C2442 C2440 1.403 . S
C2442 H2463 0.929 . S
C2443 C2444 1.430 . S
C2443 C2445 1.387 . S
C2443 C2449 1.404 . S
C2444 C2437 1.448 . S
C2444 C2443 1.430 . S
C2444 N2448 1.351 . S
C2445 C2443 1.387 . S
C2445 C2446 1.374 . S
C2445 H2460 0.931 . S
C2446 C2440 1.439 . S
C2446 C2445 1.374 . S
C2446 H2461 0.931 . S
Eu2447 N2438 2.600 . S
Eu2447 N2448 2.562 . S
Eu2447 O2482 2.335 . S
Eu2447 O2485 2.372 . S
Eu2447 O2486 2.462 . S
Eu2447 O2487 2.373 . S
Eu2447 O2489 2.432 . S
Eu2447 O2490 2.291 . S
Eu2447 C2511 2.787 . S
N2448 C2444 1.351 . S
N2448 Eu2447 2.562 . S
N2448 C2450 1.325 . S
C2449 C2443 1.404 . S
C2449 C2451 1.366 . S
C2449 H2457 0.930 . S
C2450 N2448 1.325 . S
C2450 C2451 1.416 . S
C2450 H2456 0.929 . S
C2451 C2449 1.366 . S
C2451 C2450 1.416 . S
C2451 H2453 0.930 . S
H2452 C2441 0.930 . S
H2453 C2451 0.930 . S
H2454 C2469 0.930 . S
H2455 C2476 0.930 . S
H2456 C2450 0.929 . S
H2457 C2449 0.930 . S
H2458 C2472 0.929 . S
H2459 C2439 0.931 . S
H2460 C2445 0.931 . S
H2461 C2446 0.931 . S
H2462 C2467 0.931 . S
H2463 C2442 0.929 . S
H2464 C2475 0.930 1_455 S
N2465 Eu2436 2.600 . S
N2465 C2466 1.365 . S
N2465 C2469 1.319 . S
C2466 N2465 1.365 . S
C2466 C2468 1.405 . S
C2466 C2474 1.448 . S
C2467 H2462 0.931 . S
C2467 C2469 1.397 . S
C2467 C2470 1.367 . S
C2468 C2466 1.405 . S
C2468 C2470 1.403 . S
C2468 C2501 1.439 . S
C2469 H2454 0.930 . S
C2469 N2465 1.319 . S
C2469 C2467 1.397 . S
C2470 C2467 1.367 . S
C2470 C2468 1.403 . S
C2470 H2477 0.929 . S
N2471 Eu2436 2.562 . S
N2471 C2472 1.325 . S
N2471 C2474 1.351 . S
C2472 H2458 0.929 . S
C2472 N2471 1.325 . S
C2472 C2476 1.416 . S
C2473 C2474 1.430 . S
C2473 C2475 1.404 . S
C2473 C2502 1.387 . S
C2474 C2466 1.448 . S
C2474 N2471 1.351 . S
C2474 C2473 1.430 . S
C2475 H2464 0.930 1_655 S
C2475 C2473 1.404 . S
C2475 C2476 1.366 . S
C2476 H2455 0.930 . S
C2476 C2472 1.416 . S
C2476 C2475 1.366 . S
H2477 C2470 0.929 . S
H2478 C2501 0.931 . S
H2479 C2502 0.931 1_455 S
O2480 Eu2436 2.462 . S
O2480 C2500 1.252 . S
O2481 Eu2436 2.373 . S
O2481 C2492 1.249 . S
O2482 Eu2447 2.335 . S
O2482 C2492 1.264 . S
O2483 Eu2436 2.432 . S
O2483 C2500 1.268 . S
O2484 Eu2436 2.291 . S
O2484 C2499 1.255 . S
O2485 Eu2447 2.372 . S
O2485 C2499 1.257 . S
O2486 Eu2447 2.462 . S
O2486 C2511 1.252 . S
O2487 Eu2447 2.373 . S
O2487 C2503 1.249 . S
O2488 Eu2436 2.335 . S
O2488 C2503 1.264 . S
O2489 Eu2447 2.432 . S
O2489 C2511 1.268 . S
O2490 Eu2447 2.291 . S
O2490 C2510 1.255 . S
O2491 Eu2436 2.372 . S
O2491 C2510 1.257 . S
C2492 O2481 1.249 . S
C2492 O2482 1.264 . S
C2493 C2496 1.382 1_655 S
C2493 C2498 1.390 1_655 S
C2493 C2500 1.506 . S
C2494 C2495 1.398 . S
C2494 C2498 1.392 . S
C2495 C2494 1.398 . S
C2495 C2497 1.372 . S
C2495 H2512 0.931 . S
C2496 C2493 1.382 1_455 S
C2496 C2497 1.390 . S
C2496 H2513 0.931 1_455 S
C2497 C2495 1.372 . S
C2497 C2496 1.390 . S
C2497 H2514 0.929 . S
C2498 C2493 1.390 1_455 S
C2498 C2494 1.392 . S
C2498 H2515 0.930 . S
C2499 O2484 1.255 . S
C2499 O2485 1.257 . S
C2500 Eu2436 2.787 . S
C2500 O2480 1.252 . S
C2500 O2483 1.268 . S
C2500 C2493 1.506 . S
C2501 C2468 1.439 . S
C2501 H2478 0.931 . S
C2501 C2502 1.374 . S
C2502 C2473 1.387 . S
C2502 H2479 0.931 1_655 S
C2502 C2501 1.374 . S
C2503 O2487 1.249 . S
C2503 O2488 1.264 . S
C2504 C2507 1.382 . S
C2504 C2508 1.390 . S
C2504 C2511 1.506 . S
C2505 C2506 1.398 . S
C2505 C2508 1.392 . S
C2506 C2505 1.398 . S
C2506 C2509 1.372 . S
C2506 H2516 0.931 . S
C2507 C2504 1.382 . S
C2507 C2509 1.390 . S
C2507 H2517 0.931 . S
C2508 C2504 1.390 . S
C2508 C2505 1.392 . S
C2508 H2518 0.930 . S
C2509 C2506 1.372 . S
C2509 C2507 1.390 . S
C2509 H2519 0.929 . S
C2510 O2490 1.255 . S
C2510 O2491 1.257 . S
C2511 Eu2447 2.787 . S
C2511 O2486 1.252 . S
C2511 O2489 1.268 . S
C2511 C2504 1.506 . S
H2512 C2495 0.931 . S
H2513 C2496 0.931 1_655 S
H2514 C2497 0.929 . S
H2515 C2498 0.930 . S
H2516 C2506 0.931 . S
H2517 C2507 0.931 . S
H2518 C2508 0.930 . S
H2519 C2509 0.929 . S
Eu2520 N2549 2.600 . S
Eu2520 N2555 2.562 . S
Eu2520 O2564 2.462 . S
Eu2520 O2565 2.373 . S
Eu2520 O2567 2.432 . S
Eu2520 O2568 2.291 . S
Eu2520 O2572 2.335 . S
Eu2520 O2575 2.372 . S
Eu2520 C2584 2.787 . S
C2521 N2522 1.365 . S
C2521 C2524 1.405 . S
C2521 C2528 1.448 . S
N2522 C2521 1.365 . S
N2522 C2525 1.319 . S
N2522 Eu2531 2.600 . S
C2523 C2525 1.397 . S
C2523 C2526 1.367 . S
C2523 H2543 0.931 . S
C2524 C2521 1.405 . S
C2524 C2526 1.403 . S
C2524 C2530 1.439 . S
C2525 N2522 1.319 . S
C2525 C2523 1.397 . S
C2525 H2536 0.930 . S
C2526 C2523 1.367 . S
C2526 C2524 1.403 . S
C2526 H2547 0.929 . S
C2527 C2528 1.430 . S
C2527 C2529 1.387 . S
C2527 C2533 1.404 . S
C2528 C2521 1.448 . S
C2528 C2527 1.430 . S
C2528 N2532 1.351 . S
C2529 C2527 1.387 . S
C2529 C2530 1.374 . S
C2529 H2544 0.931 . S
C2530 C2524 1.439 . S
C2530 C2529 1.374 . S
C2530 H2545 0.931 . S
Eu2531 N2522 2.600 . S
Eu2531 N2532 2.562 . S
Eu2531 O2566 2.335 . S
Eu2531 O2569 2.372 . S
Eu2531 O2570 2.462 . S
Eu2531 O2571 2.373 . S
Eu2531 O2573 2.432 . S
Eu2531 O2574 2.291 . S
Eu2531 C2595 2.787 . S
N2532 C2528 1.351 . S
N2532 Eu2531 2.562 . S
N2532 C2534 1.325 . S
C2533 C2527 1.404 . S
C2533 C2535 1.366 . S
C2533 H2541 0.930 . S
C2534 N2532 1.325 . S
C2534 C2535 1.416 . S
C2534 H2540 0.929 . S
C2535 C2533 1.366 . S
C2535 C2534 1.416 . S
C2535 H2537 0.930 . S
H2536 C2525 0.930 . S
H2537 C2535 0.930 . S
H2538 C2553 0.930 . S
H2539 C2560 0.930 . S
H2540 C2534 0.929 . S
H2541 C2533 0.930 . S
H2542 C2556 0.929 . S
H2543 C2523 0.931 . S
H2544 C2529 0.931 . S
H2545 C2530 0.931 . S
H2546 C2551 0.931 . S
H2547 C2526 0.929 . S
H2548 C2559 0.930 . S
N2549 Eu2520 2.600 . S
N2549 C2550 1.365 . S
N2549 C2553 1.319 . S
C2550 N2549 1.365 . S
C2550 C2552 1.405 1_655 S
C2550 C2558 1.448 1_655 S
C2551 H2546 0.931 . S
C2551 C2553 1.397 . S
C2551 C2554 1.367 1_655 S
C2552 C2550 1.405 1_455 S
C2552 C2554 1.403 . S
C2552 C2585 1.439 . S
C2553 H2538 0.930 . S
C2553 N2549 1.319 . S
C2553 C2551 1.397 . S
C2554 C2551 1.367 1_455 S
C2554 C2552 1.403 . S
C2554 H2561 0.929 . S
N2555 Eu2520 2.562 . S
N2555 C2556 1.325 . S
N2555 C2558 1.351 1_655 S
C2556 H2542 0.929 . S
C2556 N2555 1.325 . S
C2556 C2560 1.416 1_655 S
C2557 C2558 1.430 . S
C2557 C2559 1.404 . S
C2557 C2586 1.387 . S
C2558 C2550 1.448 1_455 S
C2558 N2555 1.351 1_455 S
C2558 C2557 1.430 . S
C2559 H2548 0.930 . S
C2559 C2557 1.404 . S
C2559 C2560 1.366 . S
C2560 H2539 0.930 . S
C2560 C2556 1.416 1_455 S
C2560 C2559 1.366 . S
H2561 C2554 0.929 . S
H2562 C2585 0.931 . S
H2563 C2586 0.931 . S
O2564 Eu2520 2.462 . S
O2564 C2584 1.252 . S
O2565 Eu2520 2.373 . S
O2565 C2576 1.249 . S
O2566 Eu2531 2.335 . S
O2566 C2576 1.264 . S
O2567 Eu2520 2.432 . S
O2567 C2584 1.268 . S
O2568 Eu2520 2.291 . S
O2568 C2583 1.255 . S
O2569 Eu2531 2.372 . S
O2569 C2583 1.257 . S
O2570 Eu2531 2.462 . S
O2570 C2595 1.252 . S
O2571 Eu2531 2.373 . S
O2571 C2587 1.249 . S
O2572 Eu2520 2.335 . S
O2572 C2587 1.264 . S
O2573 Eu2531 2.432 . S
O2573 C2595 1.268 . S
O2574 Eu2531 2.291 . S
O2574 C2594 1.255 . S
O2575 Eu2520 2.372 . S
O2575 C2594 1.257 . S
C2576 O2565 1.249 . S
C2576 O2566 1.264 . S
C2577 C2580 1.382 . S
C2577 C2582 1.390 . S
C2577 C2584 1.506 . S
C2578 C2579 1.398 . S
C2578 C2582 1.392 . S
C2579 C2578 1.398 . S
C2579 C2581 1.372 . S
C2579 H2596 0.931 . S
C2580 C2577 1.382 . S
C2580 C2581 1.390 . S
C2580 H2597 0.931 . S
C2581 C2579 1.372 . S
C2581 C2580 1.390 . S
C2581 H2598 0.929 . S
C2582 C2577 1.390 . S
C2582 C2578 1.392 . S
C2582 H2599 0.930 . S
C2583 O2568 1.255 . S
C2583 O2569 1.257 . S
C2584 Eu2520 2.787 . S
C2584 O2564 1.252 . S
C2584 O2567 1.268 . S
C2584 C2577 1.506 . S
C2585 C2552 1.439 . S
C2585 H2562 0.931 . S
C2585 C2586 1.374 . S
C2586 C2557 1.387 . S
C2586 H2563 0.931 . S
C2586 C2585 1.374 . S
C2587 O2571 1.249 . S
C2587 O2572 1.264 . S
C2588 C2591 1.382 . S
C2588 C2592 1.390 . S
C2588 C2595 1.506 . S
C2589 C2590 1.398 . S
C2589 C2592 1.392 . S
C2590 C2589 1.398 . S
C2590 C2593 1.372 . S
C2590 H2600 0.931 . S
C2591 C2588 1.382 . S
C2591 C2593 1.390 . S
C2591 H2601 0.931 . S
C2592 C2588 1.390 . S
C2592 C2589 1.392 . S
C2592 H2602 0.930 . S
C2593 C2590 1.372 . S
C2593 C2591 1.390 . S
C2593 H2603 0.929 . S
C2594 O2574 1.255 . S
C2594 O2575 1.257 . S
C2595 Eu2531 2.787 . S
C2595 O2570 1.252 . S
C2595 O2573 1.268 . S
C2595 C2588 1.506 . S
H2596 C2579 0.931 . S
H2597 C2580 0.931 . S
H2598 C2581 0.929 . S
H2599 C2582 0.930 . S
H2600 C2590 0.931 . S
H2601 C2591 0.931 . S
H2602 C2592 0.930 . S
H2603 C2593 0.929 . S
Eu2604 N2633 2.600 . S
Eu2604 N2639 2.562 . S
Eu2604 O2648 2.462 . S
Eu2604 O2649 2.373 . S
Eu2604 O2651 2.432 . S
Eu2604 O2652 2.291 . S
Eu2604 O2656 2.335 . S
Eu2604 O2659 2.372 . S
Eu2604 C2668 2.787 . S
C2605 N2606 1.365 . S
C2605 C2608 1.405 . S
C2605 C2612 1.448 . S
N2606 C2605 1.365 . S
N2606 C2609 1.319 . S
N2606 Eu2615 2.600 . S
C2607 C2609 1.397 . S
C2607 C2610 1.367 . S
C2607 H2627 0.931 . S
C2608 C2605 1.405 . S
C2608 C2610 1.403 . S
C2608 C2614 1.439 . S
C2609 N2606 1.319 . S
C2609 C2607 1.397 . S
C2609 H2620 0.930 . S
C2610 C2607 1.367 . S
C2610 C2608 1.403 . S
C2610 H2631 0.929 . S
C2611 C2612 1.430 . S
C2611 C2613 1.387 . S
C2611 C2617 1.404 . S
C2612 C2605 1.448 . S
C2612 C2611 1.430 . S
C2612 N2616 1.351 . S
C2613 C2611 1.387 . S
C2613 C2614 1.374 . S
C2613 H2628 0.931 . S
C2614 C2608 1.439 . S
C2614 C2613 1.374 . S
C2614 H2629 0.931 . S
Eu2615 N2606 2.600 . S
Eu2615 N2616 2.562 . S
Eu2615 O2650 2.335 . S
Eu2615 O2653 2.372 . S
Eu2615 O2654 2.462 . S
Eu2615 O2655 2.373 . S
Eu2615 O2657 2.432 . S
Eu2615 O2658 2.291 . S
Eu2615 C2679 2.787 . S
N2616 C2612 1.351 . S
N2616 Eu2615 2.562 . S
N2616 C2618 1.325 . S
C2617 C2611 1.404 . S
C2617 C2619 1.366 . S
C2617 H2625 0.930 . S
C2618 N2616 1.325 . S
C2618 C2619 1.416 . S
C2618 H2624 0.929 . S
C2619 C2617 1.366 . S
C2619 C2618 1.416 . S
C2619 H2621 0.930 . S
H2620 C2609 0.930 . S
H2621 C2619 0.930 . S
H2622 C2637 0.930 . S
H2623 C2644 0.930 . S
H2624 C2618 0.929 . S
H2625 C2617 0.930 . S
H2626 C2640 0.929 . S
H2627 C2607 0.931 . S
H2628 C2613 0.931 . S
H2629 C2614 0.931 . S
H2630 C2635 0.931 . S
H2631 C2610 0.929 . S
H2632 C2643 0.930 . S
N2633 Eu2604 2.600 . S
N2633 C2634 1.365 . S
N2633 C2637 1.319 . S
C2634 N2633 1.365 . S
C2634 C2636 1.405 . S
C2634 C2642 1.448 . S
C2635 H2630 0.931 . S
C2635 C2637 1.397 . S
C2635 C2638 1.367 . S
C2636 C2634 1.405 . S
C2636 C2638 1.403 . S
C2636 C2669 1.439 . S
C2637 H2622 0.930 . S
C2637 N2633 1.319 . S
C2637 C2635 1.397 . S
C2638 C2635 1.367 . S
C2638 C2636 1.403 . S
C2638 H2645 0.929 . S
N2639 Eu2604 2.562 . S
N2639 C2640 1.325 . S
N2639 C2642 1.351 . S
C2640 H2626 0.929 . S
C2640 N2639 1.325 . S
C2640 C2644 1.416 . S
C2641 C2642 1.430 . S
C2641 C2643 1.404 . S
C2641 C2670 1.387 . S
C2642 C2634 1.448 . S
C2642 N2639 1.351 . S
C2642 C2641 1.430 . S
C2643 H2632 0.930 . S
C2643 C2641 1.404 . S
C2643 C2644 1.366 . S
C2644 H2623 0.930 . S
C2644 C2640 1.416 . S
C2644 C2643 1.366 . S
H2645 C2638 0.929 . S
H2646 C2669 0.931 . S
H2647 C2670 0.931 . S
O2648 Eu2604 2.462 . S
O2648 C2668 1.252 . S
O2649 Eu2604 2.373 . S
O2649 C2660 1.249 . S
O2650 Eu2615 2.335 . S
O2650 C2660 1.264 . S
O2651 Eu2604 2.432 . S
O2651 C2668 1.268 . S
O2652 Eu2604 2.291 . S
O2652 C2667 1.255 . S
O2653 Eu2615 2.372 . S
O2653 C2667 1.257 . S
O2654 Eu2615 2.462 . S
O2654 C2679 1.252 . S
O2655 Eu2615 2.373 . S
O2655 C2671 1.249 . S
O2656 Eu2604 2.335 . S
O2656 C2671 1.264 . S
O2657 Eu2615 2.432 . S
O2657 C2679 1.268 . S
O2658 Eu2615 2.291 . S
O2658 C2678 1.255 . S
O2659 Eu2604 2.372 . S
O2659 C2678 1.257 . S
C2660 O2649 1.249 . S
C2660 O2650 1.264 . S
C2661 C2664 1.382 . S
C2661 C2666 1.390 . S
C2661 C2668 1.506 . S
C2662 C2663 1.398 . S
C2662 C2666 1.392 . S
C2663 C2662 1.398 . S
C2663 C2665 1.372 . S
C2663 H2680 0.931 . S
C2664 C2661 1.382 . S
C2664 C2665 1.390 . S
C2664 H2681 0.931 . S
C2665 C2663 1.372 . S
C2665 C2664 1.390 . S
C2665 H2682 0.929 . S
C2666 C2661 1.390 . S
C2666 C2662 1.392 . S
C2666 H2683 0.930 . S
C2667 O2652 1.255 . S
C2667 O2653 1.257 . S
C2668 Eu2604 2.787 . S
C2668 O2648 1.252 . S
C2668 O2651 1.268 . S
C2668 C2661 1.506 . S
C2669 C2636 1.439 . S
C2669 H2646 0.931 . S
C2669 C2670 1.374 . S
C2670 C2641 1.387 . S
C2670 H2647 0.931 . S
C2670 C2669 1.374 . S
C2671 O2655 1.249 . S
C2671 O2656 1.264 . S
C2672 C2675 1.382 . S
C2672 C2676 1.390 . S
C2672 C2679 1.506 . S
C2673 C2674 1.398 . S
C2673 C2676 1.392 . S
C2674 C2673 1.398 . S
C2674 C2677 1.372 . S
C2674 H2684 0.931 1_545 S
C2675 C2672 1.382 . S
C2675 C2677 1.390 . S
C2675 H2685 0.931 . S
C2676 C2672 1.390 . S
C2676 C2673 1.392 . S
C2676 H2686 0.930 . S
C2677 C2674 1.372 . S
C2677 C2675 1.390 . S
C2677 H2687 0.929 . S
C2678 O2658 1.255 . S
C2678 O2659 1.257 . S
C2679 Eu2615 2.787 . S
C2679 O2654 1.252 . S
C2679 O2657 1.268 . S
C2679 C2672 1.506 . S
H2680 C2663 0.931 . S
H2681 C2664 0.931 . S
H2682 C2665 0.929 . S
H2683 C2666 0.930 . S
H2684 C2674 0.931 1_565 S
H2685 C2675 0.931 . S
H2686 C2676 0.930 . S
H2687 C2677 0.929 . S
Eu2688 N2717 2.600 . S
Eu2688 N2723 2.562 . S
Eu2688 O2732 2.462 . S
Eu2688 O2733 2.373 . S
Eu2688 O2735 2.432 . S
Eu2688 O2736 2.291 . S
Eu2688 O2740 2.335 . S
Eu2688 O2743 2.372 . S
Eu2688 C2752 2.787 . S
C2689 N2690 1.365 . S
C2689 C2692 1.405 . S
C2689 C2696 1.448 . S
N2690 C2689 1.365 . S
N2690 C2693 1.319 . S
N2690 Eu2699 2.600 . S
C2691 C2693 1.397 . S
C2691 C2694 1.367 . S
C2691 H2711 0.931 . S
C2692 C2689 1.405 . S
C2692 C2694 1.403 . S
C2692 C2698 1.439 . S
C2693 N2690 1.319 . S
C2693 C2691 1.397 . S
C2693 H2704 0.930 . S
C2694 C2691 1.367 . S
C2694 C2692 1.403 . S
C2694 H2715 0.929 . S
C2695 C2696 1.430 . S
C2695 C2697 1.387 . S
C2695 C2701 1.404 . S
C2696 C2689 1.448 . S
C2696 C2695 1.430 . S
C2696 N2700 1.351 . S
C2697 C2695 1.387 . S
C2697 C2698 1.374 . S
C2697 H2712 0.931 1_655 S
C2698 C2692 1.439 . S
C2698 C2697 1.374 . S
C2698 H2713 0.931 . S
Eu2699 N2690 2.600 . S
Eu2699 N2700 2.562 . S
Eu2699 O2734 2.335 . S
Eu2699 O2737 2.372 . S
Eu2699 O2738 2.462 . S
Eu2699 O2739 2.373 . S
Eu2699 O2741 2.432 . S
Eu2699 O2742 2.291 . S
Eu2699 C2763 2.787 . S
N2700 C2696 1.351 . S
N2700 Eu2699 2.562 . S
N2700 C2702 1.325 . S
C2701 C2695 1.404 . S
C2701 C2703 1.366 . S
C2701 H2709 0.930 1_655 S
C2702 N2700 1.325 . S
C2702 C2703 1.416 . S
C2702 H2708 0.929 . S
C2703 C2701 1.366 . S
C2703 C2702 1.416 . S
C2703 H2705 0.930 . S
H2704 C2693 0.930 . S
H2705 C2703 0.930 . S
H2706 C2721 0.930 . S
H2707 C2728 0.930 . S
H2708 C2702 0.929 . S
H2709 C2701 0.930 1_455 S
H2710 C2724 0.929 . S
H2711 C2691 0.931 . S
H2712 C2697 0.931 1_455 S
H2713 C2698 0.931 . S
H2714 C2719 0.931 . S
H2715 C2694 0.929 . S
H2716 C2727 0.930 1_565 S
N2717 Eu2688 2.600 . S
N2717 C2718 1.365 . S
N2717 C2721 1.319 . S
C2718 N2717 1.365 . S
C2718 C2720 1.405 . S
C2718 C2726 1.448 . S
C2719 H2714 0.931 . S
C2719 C2721 1.397 . S
C2719 C2722 1.367 . S
C2720 C2718 1.405 . S
C2720 C2722 1.403 . S
C2720 C2753 1.439 . S
C2721 H2706 0.930 . S
C2721 N2717 1.319 . S
C2721 C2719 1.397 . S
C2722 C2719 1.367 . S
C2722 C2720 1.403 . S
C2722 H2729 0.929 . S
N2723 Eu2688 2.562 . S
N2723 C2724 1.325 . S
N2723 C2726 1.351 . S
C2724 H2710 0.929 . S
C2724 N2723 1.325 . S
C2724 C2728 1.416 . S
C2725 C2726 1.430 . S
C2725 C2727 1.404 . S
C2725 C2754 1.387 1_545 S
C2726 C2718 1.448 . S
C2726 N2723 1.351 . S
C2726 C2725 1.430 . S
C2727 H2716 0.930 1_545 S
C2727 C2725 1.404 . S
C2727 C2728 1.366 . S
C2728 H2707 0.930 . S
C2728 C2724 1.416 . S
C2728 C2727 1.366 . S
H2729 C2722 0.929 . S
H2730 C2753 0.931 1_565 S
H2731 C2754 0.931 . S
O2732 Eu2688 2.462 . S
O2732 C2752 1.252 . S
O2733 Eu2688 2.373 . S
O2733 C2744 1.249 . S
O2734 Eu2699 2.335 . S
O2734 C2744 1.264 . S
O2735 Eu2688 2.432 . S
O2735 C2752 1.268 . S
O2736 Eu2688 2.291 . S
O2736 C2751 1.255 . S
O2737 Eu2699 2.372 . S
O2737 C2751 1.257 . S
O2738 Eu2699 2.462 . S
O2738 C2763 1.252 . S
O2739 Eu2699 2.373 . S
O2739 C2755 1.249 . S
O2740 Eu2688 2.335 . S
O2740 C2755 1.264 . S
O2741 Eu2699 2.432 . S
O2741 C2763 1.268 . S
O2742 Eu2699 2.291 . S
O2742 C2762 1.255 . S
O2743 Eu2688 2.372 . S
O2743 C2762 1.257 . S
C2744 O2733 1.249 . S
C2744 O2734 1.264 . S
C2745 C2748 1.382 . S
C2745 C2750 1.390 . S
C2745 C2752 1.506 . S
C2746 C2747 1.398 . S
C2746 C2750 1.392 . S
C2747 C2746 1.398 . S
C2747 C2749 1.372 . S
C2747 H2764 0.931 . S
C2748 C2745 1.382 . S
C2748 C2749 1.390 . S
C2748 H2765 0.931 . S
C2749 C2747 1.372 . S
C2749 C2748 1.390 . S
C2749 H2766 0.929 . S
C2750 C2745 1.390 . S
C2750 C2746 1.392 . S
C2750 H2767 0.930 . S
C2751 O2736 1.255 . S
C2751 O2737 1.257 . S
C2752 Eu2688 2.787 . S
C2752 O2732 1.252 . S
C2752 O2735 1.268 . S
C2752 C2745 1.506 . S
C2753 C2720 1.439 . S
C2753 H2730 0.931 1_545 S
C2753 C2754 1.374 1_545 S
C2754 C2725 1.387 1_565 S
C2754 H2731 0.931 . S
C2754 C2753 1.374 1_565 S
C2755 O2739 1.249 . S
C2755 O2740 1.264 . S
C2756 C2759 1.382 1_655 S
C2756 C2760 1.390 1_655 S
C2756 C2763 1.506 . S
C2757 C2758 1.398 . S
C2757 C2760 1.392 . S
C2758 C2757 1.398 . S
C2758 C2761 1.372 . S
C2758 H2768 0.931 . S
C2759 C2756 1.382 1_455 S
C2759 C2761 1.390 . S
C2759 H2769 0.931 1_455 S
C2760 C2756 1.390 1_455 S
C2760 C2757 1.392 . S
C2760 H2770 0.930 . S
C2761 C2758 1.372 . S
C2761 C2759 1.390 . S
C2761 H2771 0.929 . S
C2762 O2742 1.255 . S
C2762 O2743 1.257 . S
C2763 Eu2699 2.787 . S
C2763 O2738 1.252 . S
C2763 O2741 1.268 . S
C2763 C2756 1.506 . S
H2764 C2747 0.931 . S
H2765 C2748 0.931 . S
H2766 C2749 0.929 . S
H2767 C2750 0.930 . S
H2768 C2758 0.931 . S
H2769 C2759 0.931 1_655 S
H2770 C2760 0.930 . S
H2771 C2761 0.929 . S
Eu2772 N2801 2.600 . S
Eu2772 N2807 2.562 . S
Eu2772 O2816 2.462 . S
Eu2772 O2817 2.373 . S
Eu2772 O2819 2.432 . S
Eu2772 O2820 2.291 . S
Eu2772 O2824 2.335 . S
Eu2772 O2827 2.372 . S
Eu2772 C2836 2.787 . S
C2773 N2774 1.365 . S
C2773 C2776 1.405 . S
C2773 C2780 1.448 . S
N2774 C2773 1.365 . S
N2774 C2777 1.319 . S
N2774 Eu2783 2.600 . S
C2775 C2777 1.397 . S
C2775 C2778 1.367 . S
C2775 H2795 0.931 . S
C2776 C2773 1.405 . S
C2776 C2778 1.403 . S
C2776 C2782 1.439 . S
C2777 N2774 1.319 . S
C2777 C2775 1.397 . S
C2777 H2788 0.930 . S
C2778 C2775 1.367 . S
C2778 C2776 1.403 . S
C2778 H2799 0.929 . S
C2779 C2780 1.430 . S
C2779 C2781 1.387 . S
C2779 C2785 1.404 . S
C2780 C2773 1.448 . S
C2780 C2779 1.430 . S
C2780 N2784 1.351 . S
C2781 C2779 1.387 . S
C2781 C2782 1.374 . S
C2781 H2796 0.931 . S
C2782 C2776 1.439 . S
C2782 C2781 1.374 . S
C2782 H2797 0.931 . S
Eu2783 N2774 2.600 . S
Eu2783 N2784 2.562 . S
Eu2783 O2818 2.335 . S
Eu2783 O2821 2.372 . S
Eu2783 O2822 2.462 . S
Eu2783 O2823 2.373 . S
Eu2783 O2825 2.432 . S
Eu2783 O2826 2.291 . S
Eu2783 C2847 2.787 . S
N2784 C2780 1.351 . S
N2784 Eu2783 2.562 . S
N2784 C2786 1.325 . S
C2785 C2779 1.404 . S
C2785 C2787 1.366 . S
C2785 H2793 0.930 . S
C2786 N2784 1.325 . S
C2786 C2787 1.416 . S
C2786 H2792 0.929 . S
C2787 C2785 1.366 . S
C2787 C2786 1.416 . S
C2787 H2789 0.930 . S
H2788 C2777 0.930 . S
H2789 C2787 0.930 . S
H2790 C2805 0.930 . S
H2791 C2812 0.930 . S
H2792 C2786 0.929 . S
H2793 C2785 0.930 . S
H2794 C2808 0.929 . S
H2795 C2775 0.931 . S
H2796 C2781 0.931 . S
H2797 C2782 0.931 . S
H2798 C2803 0.931 . S
H2799 C2778 0.929 . S
H2800 C2811 0.930 . S
N2801 Eu2772 2.600 . S
N2801 C2802 1.365 . S
N2801 C2805 1.319 . S
C2802 N2801 1.365 . S
C2802 C2804 1.405 . S
C2802 C2810 1.448 . S
C2803 H2798 0.931 . S
C2803 C2805 1.397 . S
C2803 C2806 1.367 . S
C2804 C2802 1.405 . S
C2804 C2806 1.403 . S
C2804 C2837 1.439 . S
C2805 H2790 0.930 . S
C2805 N2801 1.319 . S
C2805 C2803 1.397 . S
C2806 C2803 1.367 . S
C2806 C2804 1.403 . S
C2806 H2813 0.929 . S
N2807 Eu2772 2.562 . S
N2807 C2808 1.325 . S
N2807 C2810 1.351 . S
C2808 H2794 0.929 . S
C2808 N2807 1.325 . S
C2808 C2812 1.416 . S
C2809 C2810 1.430 . S
C2809 C2811 1.404 . S
C2809 C2838 1.387 . S
C2810 C2802 1.448 . S
C2810 N2807 1.351 . S
C2810 C2809 1.430 . S
C2811 H2800 0.930 . S
C2811 C2809 1.404 . S
C2811 C2812 1.366 . S
C2812 H2791 0.930 . S
C2812 C2808 1.416 . S
C2812 C2811 1.366 . S
H2813 C2806 0.929 . S
H2814 C2837 0.931 . S
H2815 C2838 0.931 . S
O2816 Eu2772 2.462 . S
O2816 C2836 1.252 . S
O2817 Eu2772 2.373 . S
O2817 C2828 1.249 . S
O2818 Eu2783 2.335 . S
O2818 C2828 1.264 . S
O2819 Eu2772 2.432 . S
O2819 C2836 1.268 . S
O2820 Eu2772 2.291 . S
O2820 C2835 1.255 . S
O2821 Eu2783 2.372 . S
O2821 C2835 1.257 . S
O2822 Eu2783 2.462 . S
O2822 C2847 1.252 . S
O2823 Eu2783 2.373 . S
O2823 C2839 1.249 . S
O2824 Eu2772 2.335 . S
O2824 C2839 1.264 . S
O2825 Eu2783 2.432 . S
O2825 C2847 1.268 . S
O2826 Eu2783 2.291 . S
O2826 C2846 1.255 . S
O2827 Eu2772 2.372 . S
O2827 C2846 1.257 . S
C2828 O2817 1.249 . S
C2828 O2818 1.264 . S
C2829 C2832 1.382 . S
C2829 C2834 1.390 . S
C2829 C2836 1.506 . S
C2830 C2831 1.398 . S
C2830 C2834 1.392 . S
C2831 C2830 1.398 . S
C2831 C2833 1.372 . S
C2831 H2848 0.931 . S
C2832 C2829 1.382 . S
C2832 C2833 1.390 . S
C2832 H2849 0.931 . S
C2833 C2831 1.372 . S
C2833 C2832 1.390 . S
C2833 H2850 0.929 . S
C2834 C2829 1.390 . S
C2834 C2830 1.392 . S
C2834 H2851 0.930 . S
C2835 O2820 1.255 . S
C2835 O2821 1.257 . S
C2836 Eu2772 2.787 . S
C2836 O2816 1.252 . S
C2836 O2819 1.268 . S
C2836 C2829 1.506 . S
C2837 C2804 1.439 . S
C2837 H2814 0.931 . S
C2837 C2838 1.374 . S
C2838 C2809 1.387 . S
C2838 H2815 0.931 . S
C2838 C2837 1.374 . S
C2839 O2823 1.249 . S
C2839 O2824 1.264 . S
C2840 C2843 1.382 . S
C2840 C2844 1.390 . S
C2840 C2847 1.506 . S
C2841 C2842 1.398 . S
C2841 C2844 1.392 . S
C2842 C2841 1.398 . S
C2842 C2845 1.372 . S
C2842 H2852 0.931 . S
C2843 C2840 1.382 . S
C2843 C2845 1.390 . S
C2843 H2853 0.931 . S
C2844 C2840 1.390 . S
C2844 C2841 1.392 . S
C2844 H2854 0.930 . S
C2845 C2842 1.372 . S
C2845 C2843 1.390 . S
C2845 H2855 0.929 . S
C2846 O2826 1.255 . S
C2846 O2827 1.257 . S
C2847 Eu2783 2.787 . S
C2847 O2822 1.252 . S
C2847 O2825 1.268 . S
C2847 C2840 1.506 . S
H2848 C2831 0.931 . S
H2849 C2832 0.931 . S
H2850 C2833 0.929 . S
H2851 C2834 0.930 . S
H2852 C2842 0.931 . S
H2853 C2843 0.931 . S
H2854 C2844 0.930 . S
H2855 C2845 0.929 . S
Eu2856 N2885 2.600 . S
Eu2856 N2891 2.562 . S
Eu2856 O2900 2.462 . S
Eu2856 O2901 2.373 . S
Eu2856 O2903 2.432 . S
Eu2856 O2904 2.291 . S
Eu2856 O2908 2.335 . S
Eu2856 O2911 2.372 . S
Eu2856 C2920 2.787 . S
C2857 N2858 1.365 . S
C2857 C2860 1.405 . S
C2857 C2864 1.448 . S
N2858 C2857 1.365 . S
N2858 C2861 1.319 . S
N2858 Eu2867 2.600 . S
C2859 C2861 1.397 . S
C2859 C2862 1.367 . S
C2859 H2879 0.931 . S
C2860 C2857 1.405 . S
C2860 C2862 1.403 . S
C2860 C2866 1.439 1_655 S
C2861 N2858 1.319 . S
C2861 C2859 1.397 . S
C2861 H2872 0.930 . S
C2862 C2859 1.367 . S
C2862 C2860 1.403 . S
C2862 H2883 0.929 . S
C2863 C2864 1.430 1_455 S
C2863 C2865 1.387 . S
C2863 C2869 1.404 . S
C2864 C2857 1.448 . S
C2864 C2863 1.430 1_655 S
C2864 N2868 1.351 . S
C2865 C2863 1.387 . S
C2865 C2866 1.374 . S
C2865 H2880 0.931 . S
C2866 C2860 1.439 1_455 S
C2866 C2865 1.374 . S
C2866 H2881 0.931 . S
Eu2867 N2858 2.600 . S
Eu2867 N2868 2.562 . S
Eu2867 O2902 2.335 . S
Eu2867 O2905 2.372 . S
Eu2867 O2906 2.462 . S
Eu2867 O2907 2.373 . S
Eu2867 O2909 2.432 . S
Eu2867 O2910 2.291 . S
Eu2867 C2931 2.787 . S
N2868 C2864 1.351 . S
N2868 Eu2867 2.562 . S
N2868 C2870 1.325 . S
C2869 C2863 1.404 . S
C2869 C2871 1.378 . S
C2869 H2877 0.930 . S
C2870 N2868 1.325 . S
C2870 C2871 1.401 1_655 S
C2870 H2876 0.929 . S
C2871 C2869 1.378 . S
C2871 C2870 1.401 1_455 S
C2871 H2873 0.933 . S
H2872 C2861 0.930 . S
H2873 C2871 0.933 . S
H2874 C2889 0.930 . S
H2875 C2896 0.930 . S
H2876 C2870 0.929 . S
H2877 C2869 0.930 . S
H2878 C2892 0.929 . S
H2879 C2859 0.931 . S
H2880 C2865 0.931 . S
H2881 C2866 0.931 . S
H2882 C2887 0.931 . S
H2883 C2862 0.929 . S
H2884 C2895 0.930 . S
N2885 Eu2856 2.600 . S
N2885 C2886 1.365 . S
N2885 C2889 1.319 . S
C2886 N2885 1.365 . S
C2886 C2888 1.405 . S
C2886 C2894 1.448 . S
C2887 H2882 0.931 . S
C2887 C2889 1.397 . S
C2887 C2890 1.367 . S
C2888 C2886 1.405 . S
C2888 C2890 1.403 . S
C2888 C2921 1.439 . S
C2889 H2874 0.930 . S
C2889 N2885 1.319 . S
C2889 C2887 1.397 . S
C2890 C2887 1.367 . S
C2890 C2888 1.403 . S
C2890 H2897 0.929 . S
N2891 Eu2856 2.562 . S
N2891 C2892 1.325 . S
N2891 C2894 1.351 . S
C2892 H2878 0.929 . S
C2892 N2891 1.325 . S
C2892 C2896 1.416 . S
C2893 C2894 1.430 . S
C2893 C2895 1.404 . S
C2893 C2922 1.387 . S
C2894 C2886 1.448 . S
C2894 N2891 1.351 . S
C2894 C2893 1.430 . S
C2895 H2884 0.930 . S
C2895 C2893 1.404 . S
C2895 C2896 1.366 . S
C2896 H2875 0.930 . S
C2896 C2892 1.416 . S
C2896 C2895 1.366 . S
H2897 C2890 0.929 . S
H2898 C2921 0.931 . S
H2899 C2922 0.931 . S
O2900 Eu2856 2.462 . S
O2900 C2920 1.252 . S
O2901 Eu2856 2.373 . S
O2901 C2912 1.249 . S
O2902 Eu2867 2.335 . S
O2902 C2912 1.264 . S
O2903 Eu2856 2.432 . S
O2903 C2920 1.268 . S
O2904 Eu2856 2.291 . S
O2904 C2919 1.255 . S
O2905 Eu2867 2.372 . S
O2905 C2919 1.257 . S
O2906 Eu2867 2.462 . S
O2906 C2931 1.252 . S
O2907 Eu2867 2.373 . S
O2907 C2923 1.249 . S
O2908 Eu2856 2.335 . S
O2908 C2923 1.264 . S
O2909 Eu2867 2.432 . S
O2909 C2931 1.268 . S
O2910 Eu2867 2.291 . S
O2910 C2930 1.255 . S
O2911 Eu2856 2.372 . S
O2911 C2930 1.257 . S
C2912 O2901 1.249 . S
C2912 O2902 1.264 . S
C2913 C2916 1.382 . S
C2913 C2918 1.390 . S
C2913 C2920 1.506 . S
C2914 C2915 1.398 . S
C2914 C2918 1.392 1_565 S
C2915 C2914 1.398 . S
C2915 C2917 1.372 . S
C2915 H2932 0.931 . S
C2916 C2913 1.382 . S
C2916 C2917 1.390 1_545 S
C2916 H2933 0.931 . S
C2917 C2915 1.372 . S
C2917 C2916 1.390 1_565 S
C2917 H2934 0.929 . S
C2918 C2913 1.390 . S
C2918 C2914 1.392 1_545 S
C2918 H2935 0.930 . S
C2919 O2904 1.255 . S
C2919 O2905 1.257 . S
C2920 Eu2856 2.787 . S
C2920 O2900 1.252 . S
C2920 O2903 1.268 . S
C2920 C2913 1.506 . S
C2921 C2888 1.439 . S
C2921 H2898 0.931 . S
C2921 C2922 1.374 . S
C2922 C2893 1.387 . S
C2922 H2899 0.931 . S
C2922 C2921 1.374 . S
C2923 O2907 1.249 . S
C2923 O2908 1.264 . S
C2924 C2927 1.382 . S
C2924 C2928 1.390 . S
C2924 C2931 1.506 . S
C2925 C2926 1.398 . S
C2925 C2928 1.392 . S
C2926 C2925 1.398 . S
C2926 C2929 1.372 . S
C2926 H2936 0.931 . S
C2927 C2924 1.382 . S
C2927 C2929 1.390 . S
C2927 H2937 0.931 . S
C2928 C2924 1.390 . S
C2928 C2925 1.392 . S
C2928 H2938 0.930 . S
C2929 C2926 1.372 . S
C2929 C2927 1.390 . S
C2929 H2939 0.929 . S
C2930 O2910 1.255 . S
C2930 O2911 1.257 . S
C2931 Eu2867 2.787 . S
C2931 O2906 1.252 . S
C2931 O2909 1.268 . S
C2931 C2924 1.506 . S
H2932 C2915 0.931 . S
H2933 C2916 0.931 . S
H2934 C2917 0.929 . S
H2935 C2918 0.930 . S
H2936 C2926 0.931 . S
H2937 C2927 0.931 . S
H2938 C2928 0.930 . S
H2939 C2929 0.929 . S
Eu2940 N2969 2.600 . S
Eu2940 N2975 2.562 1_655 S
Eu2940 O2984 2.462 1_655 S
Eu2940 O2985 2.373 . S
Eu2940 O2987 2.432 . S
Eu2940 O2988 2.291 . S
Eu2940 O2992 2.335 . S
Eu2940 O2995 2.372 . S
Eu2940 C3004 2.787 1_655 S
C2941 N2942 1.365 . S
C2941 C2944 1.405 . S
C2941 C2948 1.448 . S
N2942 C2941 1.365 . S
N2942 C2945 1.319 . S
N2942 Eu2951 2.600 . S
C2943 C2945 1.397 . S
C2943 C2946 1.367 . S
C2943 H2963 0.931 . S
C2944 C2941 1.405 . S
C2944 C2946 1.403 . S
C2944 C2950 1.439 . S
C2945 N2942 1.319 . S
C2945 C2943 1.397 . S
C2945 H2956 0.930 . S
C2946 C2943 1.367 . S
C2946 C2944 1.403 . S
C2946 H2967 0.929 . S
C2947 C2948 1.430 . S
C2947 C2949 1.387 . S
C2947 C2953 1.404 . S
C2948 C2941 1.448 . S
C2948 C2947 1.430 . S
C2948 N2952 1.351 . S
C2949 C2947 1.387 . S
C2949 C2950 1.374 . S
C2949 H2964 0.931 . S
C2950 C2944 1.439 . S
C2950 C2949 1.374 . S
C2950 H2965 0.931 . S
Eu2951 N2942 2.600 . S
Eu2951 N2952 2.562 . S
Eu2951 O2986 2.335 . S
Eu2951 O2989 2.372 . S
Eu2951 O2990 2.462 . S
Eu2951 O2991 2.373 . S
Eu2951 O2993 2.432 . S
Eu2951 O2994 2.291 . S
Eu2951 C3015 2.787 . S
N2952 C2948 1.351 . S
N2952 Eu2951 2.562 . S
N2952 C2954 1.325 . S
C2953 C2947 1.404 . S
C2953 C2955 1.366 . S
C2953 H2961 0.930 . S
C2954 N2952 1.325 . S
C2954 C2955 1.416 . S
C2954 H2960 0.929 . S
C2955 C2953 1.366 . S
C2955 C2954 1.416 . S
C2955 H2957 0.930 . S
H2956 C2945 0.930 . S
H2957 C2955 0.930 . S
H2958 C2973 0.930 . S
H2959 C2980 0.930 . S
H2960 C2954 0.929 . S
H2961 C2953 0.930 . S
H2962 C2976 0.929 . S
H2963 C2943 0.931 . S
H2964 C2949 0.931 . S
H2965 C2950 0.931 . S
H2966 C2971 0.931 . S
H2967 C2946 0.929 . S
H2968 C2979 0.930 . S
N2969 Eu2940 2.600 . S
N2969 C2970 1.362 . S
N2969 C2973 1.319 . S
C2970 N2969 1.362 . S
C2970 C2972 1.407 1_655 S
C2970 C2978 1.449 1_655 S
C2971 H2966 0.931 . S
C2971 C2973 1.397 . S
C2971 C2974 1.367 . S
C2972 C2970 1.407 1_455 S
C2972 C2974 1.403 1_455 S
C2972 C3005 1.439 . S
C2973 H2958 0.930 . S
C2973 N2969 1.319 . S
C2973 C2971 1.397 . S
C2974 C2971 1.367 . S
C2974 C2972 1.403 1_655 S
C2974 H2981 0.929 1_655 S
N2975 Eu2940 2.562 1_455 S
N2975 C2976 1.325 . S
N2975 C2978 1.351 . S
C2976 H2962 0.929 . S
C2976 N2975 1.325 . S
C2976 C2980 1.416 . S
C2977 C2978 1.430 . S
C2977 C2979 1.404 . S
C2977 C3006 1.387 . S
C2978 C2970 1.449 1_455 S
C2978 N2975 1.351 . S
C2978 C2977 1.430 . S
C2979 H2968 0.930 . S
C2979 C2977 1.404 . S
C2979 C2980 1.366 . S
C2980 H2959 0.930 . S
C2980 C2976 1.416 . S
C2980 C2979 1.366 . S
H2981 C2974 0.929 1_455 S
H2982 C3005 0.931 . S
H2983 C3006 0.931 . S
O2984 Eu2940 2.462 1_455 S
O2984 C3004 1.252 . S
O2985 Eu2940 2.373 . S
O2985 C2996 1.249 . S
O2986 Eu2951 2.335 . S
O2986 C2996 1.264 . S
O2987 Eu2940 2.432 . S
O2987 C3004 1.268 1_655 S
O2988 Eu2940 2.291 . S
O2988 C3003 1.255 . S
O2989 Eu2951 2.372 . S
O2989 C3003 1.257 . S
O2990 Eu2951 2.462 . S
O2990 C3015 1.252 . S
O2991 Eu2951 2.373 . S
O2991 C3007 1.249 . S
O2992 Eu2940 2.335 . S
O2992 C3007 1.264 . S
O2993 Eu2951 2.432 . S
O2993 C3015 1.268 . S
O2994 Eu2951 2.291 . S
O2994 C3014 1.255 . S
O2995 Eu2940 2.372 . S
O2995 C3014 1.257 . S
C2996 O2985 1.249 . S
C2996 O2986 1.264 . S
C2997 C3000 1.382 . S
C2997 C3002 1.390 . S
C2997 C3004 1.506 . S
C2998 C2999 1.398 . S
C2998 C3002 1.392 . S
C2999 C2998 1.398 . S
C2999 C3001 1.372 . S
C2999 H3016 0.931 . S
C3000 C2997 1.382 . S
C3000 C3001 1.390 . S
C3000 H3017 0.931 . S
C3001 C2999 1.372 . S
C3001 C3000 1.390 . S
C3001 H3018 0.929 . S
C3002 C2997 1.390 . S
C3002 C2998 1.392 . S
C3002 H3019 0.930 . S
C3003 O2988 1.255 . S
C3003 O2989 1.257 . S
C3004 Eu2940 2.787 1_455 S
C3004 O2984 1.252 . S
C3004 O2987 1.268 1_455 S
C3004 C2997 1.506 . S
C3005 C2972 1.439 . S
C3005 H2982 0.931 . S
C3005 C3006 1.374 . S
C3006 C2977 1.387 . S
C3006 H2983 0.931 . S
C3006 C3005 1.374 . S
C3007 O2991 1.249 . S
C3007 O2992 1.264 . S
C3008 C3011 1.382 . S
C3008 C3012 1.390 . S
C3008 C3015 1.506 . S
C3009 C3010 1.398 . S
C3009 C3012 1.392 . S
C3010 C3009 1.398 . S
C3010 C3013 1.372 . S
C3010 H3020 0.931 . S
C3011 C3008 1.382 . S
C3011 C3013 1.390 . S
C3011 H3021 0.931 . S
C3012 C3008 1.390 . S
C3012 C3009 1.392 . S
C3012 H3022 0.930 . S
C3013 C3010 1.372 . S
C3013 C3011 1.390 . S
C3013 H3023 0.929 . S
C3014 O2994 1.255 . S
C3014 O2995 1.257 . S
C3015 Eu2951 2.787 . S
C3015 O2990 1.252 . S
C3015 O2993 1.268 . S
C3015 C3008 1.506 . S
H3016 C2999 0.931 . S
H3017 C3000 0.931 . S
H3018 C3001 0.929 . S
H3019 C3002 0.930 . S
H3020 C3010 0.931 . S
H3021 C3011 0.931 . S
H3022 C3012 0.930 . S
H3023 C3013 0.929 . S
H3024 C3036 0.930 . S
H3025 C3038 0.930 . S
H3026 C3039 0.930 . S
H3027 C3043 0.959 . S
H3028 C3043 0.959 . S
H3029 C3043 0.961 . S
H3030 C3044 0.960 . S
H3031 C3044 0.961 . S
H3032 C3044 0.959 . S
H3033 C3047 0.929 . S
H3034 C3048 0.931 . S
H3035 C3050 0.930 . S
C3036 H3024 0.930 . S
C3036 C3037 1.399 . S
C3036 C3041 1.399 . S
C3037 C3036 1.399 . S
C3037 C3038 1.376 . S
C3038 H3025 0.930 . S
C3038 C3037 1.376 . S
C3038 C3039 1.388 . S
C3039 H3026 0.930 . S
C3039 C3038 1.388 . S
C3039 C3040 1.390 . S
C3040 C3039 1.390 . S
C3040 C3041 1.394 . S
C3040 C3046 1.465 . S
C3041 C3036 1.399 . S
C3041 C3040 1.394 . S
C3041 C3042 1.516 . S
C3042 C3041 1.516 . S
C3042 C3043 1.502 . S
C3042 C3044 1.561 . S
C3042 C3045 1.526 . S
C3043 H3027 0.959 . S
C3043 H3028 0.959 . S
C3043 H3029 0.961 . S
C3043 C3042 1.502 . S
C3044 H3030 0.960 . S
C3044 H3031 0.961 . S
C3044 H3032 0.959 . S
C3044 C3042 1.561 . S
C3045 C3042 1.526 . S
C3045 C3046 1.396 . S
C3045 C3050 1.390 . S
C3046 C3040 1.465 . S
C3046 C3045 1.396 . S
C3046 C3047 1.399 . S
C3047 H3033 0.929 . S
C3047 C3046 1.399 . S
C3047 C3048 1.385 . S
C3048 H3034 0.931 . S
C3048 C3047 1.385 . S
C3048 C3049 1.389 . S
C3049 C3048 1.389 . S
C3049 C3050 1.387 . S
C3050 H3035 0.930 . S
C3050 C3045 1.390 . S
C3050 C3049 1.387 . S
H3051 C3063 0.930 . S
H3052 C3065 0.930 . S
H3053 C3066 0.930 . S
H3054 C3070 0.959 . S
H3055 C3070 0.959 . S
H3056 C3070 0.961 . S
H3057 C3071 0.960 . S
H3058 C3071 0.961 1_455 S
H3059 C3071 0.959 1_455 S
H3060 C3074 0.929 . S
H3061 C3075 0.931 . S
H3062 C3077 0.930 . S
C3063 H3051 0.930 . S
C3063 C3064 1.399 . S
C3063 C3068 1.399 . S
C3064 C3063 1.399 . S
C3064 C3065 1.376 . S
C3065 H3052 0.930 . S
C3065 C3064 1.376 . S
C3065 C3066 1.388 . S
C3066 H3053 0.930 . S
C3066 C3065 1.388 . S
C3066 C3067 1.390 . S
C3067 C3066 1.390 . S
C3067 C3068 1.394 . S
C3067 C3073 1.465 . S
C3068 C3063 1.399 . S
C3068 C3067 1.394 . S
C3068 C3069 1.516 . S
C3069 C3068 1.516 . S
C3069 C3070 1.502 . S
C3069 C3071 1.561 . S
C3069 C3072 1.526 . S
C3070 H3054 0.959 . S
C3070 H3055 0.959 . S
C3070 H3056 0.961 . S
C3070 C3069 1.502 . S
C3071 H3057 0.960 . S
C3071 H3058 0.961 1_655 S
C3071 H3059 0.959 1_655 S
C3071 C3069 1.561 . S
C3072 C3069 1.526 . S
C3072 C3073 1.396 . S
C3072 C3077 1.390 . S
C3073 C3067 1.465 . S
C3073 C3072 1.396 . S
C3073 C3074 1.399 . S
C3074 H3060 0.929 . S
C3074 C3073 1.399 . S
C3074 C3075 1.385 . S
C3075 H3061 0.931 . S
C3075 C3074 1.385 . S
C3075 C3076 1.389 . S
C3076 C3075 1.389 . S
C3076 C3077 1.387 . S
C3077 H3062 0.930 . S
C3077 C3072 1.390 . S
C3077 C3076 1.387 . S
H3078 C3090 0.930 . S
H3079 C3092 0.930 . S
H3080 C3093 0.930 . S
H3081 C3097 0.959 . S
H3082 C3097 0.959 . S
H3083 C3097 0.961 . S
H3084 C3098 0.960 . S
H3085 C3098 0.961 . S
H3086 C3098 0.959 . S
H3087 C3101 0.929 . S
H3088 C3102 0.931 . S
H3089 C3104 0.930 . S
C3090 H3078 0.930 . S
C3090 C3091 1.399 . S
C3090 C3095 1.399 . S
C3091 C3090 1.399 . S
C3091 C3092 1.376 . S
C3092 H3079 0.930 . S
C3092 C3091 1.376 . S
C3092 C3093 1.388 . S
C3093 H3080 0.930 . S
C3093 C3092 1.388 . S
C3093 C3094 1.390 . S
C3094 C3093 1.390 . S
C3094 C3095 1.394 . S
C3094 C3100 1.465 . S
C3095 C3090 1.399 . S
C3095 C3094 1.394 . S
C3095 C3096 1.516 . S
C3096 C3095 1.516 . S
C3096 C3097 1.502 . S
C3096 C3098 1.561 . S
C3096 C3099 1.526 . S
C3097 H3081 0.959 . S
C3097 H3082 0.959 . S
C3097 H3083 0.961 . S
C3097 C3096 1.502 . S
C3098 H3084 0.960 . S
C3098 H3085 0.961 . S
C3098 H3086 0.959 . S
C3098 C3096 1.561 . S
C3099 C3096 1.526 . S
C3099 C3100 1.396 . S
C3099 C3104 1.390 . S
C3100 C3094 1.465 . S
C3100 C3099 1.396 . S
C3100 C3101 1.399 . S
C3101 H3087 0.929 . S
C3101 C3100 1.399 . S
C3101 C3102 1.385 . S
C3102 H3088 0.931 . S
C3102 C3101 1.385 . S
C3102 C3103 1.389 . S
C3103 C3102 1.389 . S
C3103 C3104 1.387 . S
C3104 H3089 0.930 . S
C3104 C3099 1.390 . S
C3104 C3103 1.387 . S
H3105 C3117 0.930 . S
H3106 C3119 0.930 . S
H3107 C3120 0.930 . S
H3108 C3124 0.959 . S
H3109 C3124 0.959 . S
H3110 C3124 0.961 . S
H3111 C3125 0.960 . S
H3112 C3125 0.961 . S
H3113 C3125 0.959 . S
H3114 C3128 0.929 . S
H3115 C3129 0.931 . S
H3116 C3131 0.930 . S
C3117 H3105 0.930 . S
C3117 C3118 1.399 . S
C3117 C3122 1.399 . S
C3118 C3117 1.399 . S
C3118 C3119 1.376 . S
C3119 H3106 0.930 . S
C3119 C3118 1.376 . S
C3119 C3120 1.388 . S
C3120 H3107 0.930 . S
C3120 C3119 1.388 . S
C3120 C3121 1.390 . S
C3121 C3120 1.390 . S
C3121 C3122 1.394 . S
C3121 C3127 1.465 . S
C3122 C3117 1.399 . S
C3122 C3121 1.394 . S
C3122 C3123 1.516 . S
C3123 C3122 1.516 . S
C3123 C3124 1.502 . S
C3123 C3125 1.561 . S
C3123 C3126 1.526 . S
C3124 H3108 0.959 . S
C3124 H3109 0.959 . S
C3124 H3110 0.961 . S
C3124 C3123 1.502 . S
C3125 H3111 0.960 . S
C3125 H3112 0.961 . S
C3125 H3113 0.959 . S
C3125 C3123 1.561 . S
C3126 C3123 1.526 . S
C3126 C3127 1.396 . S
C3126 C3131 1.390 . S
C3127 C3121 1.465 . S
C3127 C3126 1.396 . S
C3127 C3128 1.399 . S
C3128 H3114 0.929 . S
C3128 C3127 1.399 . S
C3128 C3129 1.385 . S
C3129 H3115 0.931 . S
C3129 C3128 1.385 . S
C3129 C3130 1.389 . S
C3130 C3129 1.389 . S
C3130 C3131 1.387 . S
C3131 H3116 0.930 . S
C3131 C3126 1.390 . S
C3131 C3130 1.387 . S
H3132 C3144 0.930 . S
H3133 C3146 0.930 . S
H3134 C3147 0.930 . S
H3135 C3151 0.959 . S
H3136 C3151 0.959 . S
H3137 C3151 0.961 . S
H3138 C3152 0.960 . S
H3139 C3152 0.961 . S
H3140 C3152 0.959 . S
H3141 C3155 0.929 . S
H3142 C3156 0.931 . S
H3143 C3158 0.930 . S
C3144 H3132 0.930 . S
C3144 C3145 1.399 . S
C3144 C3149 1.399 . S
C3145 C3144 1.399 . S
C3145 C3146 1.376 . S
C3146 H3133 0.930 . S
C3146 C3145 1.376 . S
C3146 C3147 1.388 . S
C3147 H3134 0.930 . S
C3147 C3146 1.388 . S
C3147 C3148 1.390 . S
C3148 C3147 1.390 . S
C3148 C3149 1.394 . S
C3148 C3154 1.465 . S
C3149 C3144 1.399 . S
C3149 C3148 1.394 . S
C3149 C3150 1.516 . S
C3150 C3149 1.516 . S
C3150 C3151 1.502 . S
C3150 C3152 1.561 . S
C3150 C3153 1.526 . S
C3151 H3135 0.959 . S
C3151 H3136 0.959 . S
C3151 H3137 0.961 . S
C3151 C3150 1.502 . S
C3152 H3138 0.960 . S
C3152 H3139 0.961 . S
C3152 H3140 0.959 . S
C3152 C3150 1.561 . S
C3153 C3150 1.526 . S
C3153 C3154 1.396 . S
C3153 C3158 1.390 . S
C3154 C3148 1.465 . S
C3154 C3153 1.396 . S
C3154 C3155 1.399 . S
C3155 H3141 0.929 . S
C3155 C3154 1.399 . S
C3155 C3156 1.385 . S
C3156 H3142 0.931 . S
C3156 C3155 1.385 . S
C3156 C3157 1.389 . S
C3157 C3156 1.389 . S
C3157 C3158 1.387 . S
C3158 H3143 0.930 . S
C3158 C3153 1.390 . S
C3158 C3157 1.387 . S
H3159 C3171 0.930 . S
H3160 C3173 0.930 . S
H3161 C3174 0.930 . S
H3162 C3178 0.959 . S
H3163 C3178 0.959 . S
H3164 C3178 0.961 . S
H3165 C3179 0.960 . S
H3166 C3179 0.961 . S
H3167 C3179 0.959 . S
H3168 C3182 0.929 . S
H3169 C3183 0.931 . S
H3170 C3185 0.930 . S
C3171 H3159 0.930 . S
C3171 C3172 1.399 . S
C3171 C3176 1.399 . S
C3172 C3171 1.399 . S
C3172 C3173 1.376 . S
C3173 H3160 0.930 . S
C3173 C3172 1.376 . S
C3173 C3174 1.388 . S
C3174 H3161 0.930 . S
C3174 C3173 1.388 . S
C3174 C3175 1.390 . S
C3175 C3174 1.390 . S
C3175 C3176 1.394 . S
C3175 C3181 1.465 . S
C3176 C3171 1.399 . S
C3176 C3175 1.394 . S
C3176 C3177 1.516 . S
C3177 C3176 1.516 . S
C3177 C3178 1.502 . S
C3177 C3179 1.561 . S
C3177 C3180 1.526 . S
C3178 H3162 0.959 . S
C3178 H3163 0.959 . S
C3178 H3164 0.961 . S
C3178 C3177 1.502 . S
C3179 H3165 0.960 . S
C3179 H3166 0.961 . S
C3179 H3167 0.959 . S
C3179 C3177 1.561 . S
C3180 C3177 1.526 . S
C3180 C3181 1.396 . S
C3180 C3185 1.390 . S
C3181 C3175 1.465 . S
C3181 C3180 1.396 . S
C3181 C3182 1.399 . S
C3182 H3168 0.929 . S
C3182 C3181 1.399 . S
C3182 C3183 1.385 1_565 S
C3183 H3169 0.931 . S
C3183 C3182 1.385 1_545 S
C3183 C3184 1.389 1_545 S
C3184 C3183 1.389 1_565 S
C3184 C3185 1.387 . S
C3185 H3170 0.930 . S
C3185 C3180 1.390 . S
C3185 C3184 1.387 . S
H3186 C3198 0.930 . S
H3187 C3200 0.930 . S
H3188 C3201 0.930 . S
H3189 C3205 0.959 . S
H3190 C3205 0.959 . S
H3191 C3205 0.961 . S
H3192 C3206 0.960 . S
H3193 C3206 0.961 . S
H3194 C3206 0.959 . S
H3195 C3209 0.929 1_545 S
H3196 C3210 0.931 . S
H3197 C3212 0.930 . S
C3198 H3186 0.930 . S
C3198 C3199 1.399 . S
C3198 C3203 1.399 . S
C3199 C3198 1.399 . S
C3199 C3200 1.376 1_565 S
C3200 H3187 0.930 . S
C3200 C3199 1.376 1_545 S
C3200 C3201 1.388 . S
C3201 H3188 0.930 . S
C3201 C3200 1.388 . S
C3201 C3202 1.390 1_545 S
C3202 C3201 1.390 1_565 S
C3202 C3203 1.394 . S
C3202 C3208 1.465 . S
C3203 C3198 1.399 . S
C3203 C3202 1.394 . S
C3203 C3204 1.516 . S
C3204 C3203 1.516 . S
C3204 C3205 1.502 . S
C3204 C3206 1.561 . S
C3204 C3207 1.526 . S
C3205 H3189 0.959 . S
C3205 H3190 0.959 . S
C3205 H3191 0.961 . S
C3205 C3204 1.502 . S
C3206 H3192 0.960 . S
C3206 H3193 0.961 . S
C3206 H3194 0.959 . S
C3206 C3204 1.561 . S
C3207 C3204 1.526 . S
C3207 C3208 1.396 . S
C3207 C3212 1.390 . S
C3208 C3202 1.465 . S
C3208 C3207 1.396 . S
C3208 C3209 1.399 . S
C3209 H3195 0.929 1_565 S
C3209 C3208 1.399 . S
C3209 C3210 1.385 . S
C3210 H3196 0.931 . S
C3210 C3209 1.385 . S
C3210 C3211 1.389 . S
C3211 C3210 1.389 . S
C3211 C3212 1.387 . S
C3212 H3197 0.930 . S
C3212 C3207 1.390 . S
C3212 C3211 1.387 . S
H3213 C3225 0.930 . S
H3214 C3227 0.930 . S
H3215 C3228 0.930 . S
H3216 C3232 0.959 . S
H3217 C3232 0.959 . S
H3218 C3232 0.961 . S
H3219 C3233 0.960 . S
H3220 C3233 0.961 . S
H3221 C3233 0.959 . S
H3222 C3236 0.929 . S
H3223 C3237 0.931 . S
H3224 C3239 0.930 . S
C3225 H3213 0.930 . S
C3225 C3226 1.399 . S
C3225 C3230 1.399 . S
C3226 C3225 1.399 . S
C3226 C3227 1.376 . S
C3227 H3214 0.930 . S
C3227 C3226 1.376 . S
C3227 C3228 1.388 . S
C3228 H3215 0.930 . S
C3228 C3227 1.388 . S
C3228 C3229 1.390 . S
C3229 C3228 1.390 . S
C3229 C3230 1.394 . S
C3229 C3235 1.465 . S
C3230 C3225 1.399 . S
C3230 C3229 1.394 . S
C3230 C3231 1.516 . S
C3231 C3230 1.516 . S
C3231 C3232 1.502 . S
C3231 C3233 1.561 . S
C3231 C3234 1.526 . S
C3232 H3216 0.959 . S
C3232 H3217 0.959 . S
C3232 H3218 0.961 . S
C3232 C3231 1.502 . S
C3233 H3219 0.960 . S
C3233 H3220 0.961 . S
C3233 H3221 0.959 . S
C3233 C3231 1.561 . S
C3234 C3231 1.526 . S
C3234 C3235 1.396 . S
C3234 C3239 1.390 . S
C3235 C3229 1.465 . S
C3235 C3234 1.396 . S
C3235 C3236 1.399 . S
C3236 H3222 0.929 . S
C3236 C3235 1.399 . S
C3236 C3237 1.385 . S
C3237 H3223 0.931 . S
C3237 C3236 1.385 . S
C3237 C3238 1.389 . S
C3238 C3237 1.389 . S
C3238 C3239 1.387 . S
C3239 H3224 0.930 . S
C3239 C3234 1.390 . S
C3239 C3238 1.387 . S
H3240 C3252 0.930 . S
H3241 C3254 0.930 . S
H3242 C3255 0.930 . S
H3243 C3259 0.959 . S
H3244 C3259 0.959 . S
H3245 C3259 0.961 . S
H3246 C3260 0.960 . S
H3247 C3260 0.961 . S
H3248 C3260 0.959 . S
H3249 C3263 0.929 . S
H3250 C3264 0.931 . S
H3251 C3266 0.930 . S
C3252 H3240 0.930 . S
C3252 C3253 1.399 . S
C3252 C3257 1.399 . S
C3253 C3252 1.399 . S
C3253 C3254 1.376 . S
C3254 H3241 0.930 . S
C3254 C3253 1.376 . S
C3254 C3255 1.388 . S
C3255 H3242 0.930 . S
C3255 C3254 1.388 . S
C3255 C3256 1.390 . S
C3256 C3255 1.390 . S
C3256 C3257 1.394 . S
C3256 C3262 1.465 . S
C3257 C3252 1.399 . S
C3257 C3256 1.394 . S
C3257 C3258 1.516 . S
C3258 C3257 1.516 . S
C3258 C3259 1.502 . S
C3258 C3260 1.561 . S
C3258 C3261 1.526 . S
C3259 H3243 0.959 . S
C3259 H3244 0.959 . S
C3259 H3245 0.961 . S
C3259 C3258 1.502 . S
C3260 H3246 0.960 . S
C3260 H3247 0.961 . S
C3260 H3248 0.959 . S
C3260 C3258 1.561 . S
C3261 C3258 1.526 . S
C3261 C3262 1.396 . S
C3261 C3266 1.390 . S
C3262 C3256 1.465 . S
C3262 C3261 1.396 . S
C3262 C3263 1.399 . S
C3263 H3249 0.929 . S
C3263 C3262 1.399 . S
C3263 C3264 1.385 . S
C3264 H3250 0.931 . S
C3264 C3263 1.385 . S
C3264 C3265 1.389 . S
C3265 C3264 1.389 . S
C3265 C3266 1.387 . S
C3266 H3251 0.930 . S
C3266 C3261 1.390 . S
C3266 C3265 1.387 . S
H3267 C3279 0.930 . S
H3268 C3281 0.930 . S
H3269 C3282 0.930 . S
H3270 C3286 0.959 . S
H3271 C3286 0.959 . S
H3272 C3286 0.961 . S
H3273 C3287 0.960 . S
H3274 C3287 0.961 . S
H3275 C3287 0.959 . S
H3276 C3290 0.929 . S
H3277 C3291 0.931 . S
H3278 C3293 0.930 1_455 S
C3279 H3267 0.930 . S
C3279 C3280 1.399 . S
C3279 C3284 1.399 . S
C3280 C3279 1.399 . S
C3280 C3281 1.376 . S
C3281 H3268 0.930 . S
C3281 C3280 1.376 . S
C3281 C3282 1.388 . S
C3282 H3269 0.930 . S
C3282 C3281 1.388 . S
C3282 C3283 1.390 . S
C3283 C3282 1.390 . S
C3283 C3284 1.394 . S
C3283 C3289 1.465 . S
C3284 C3279 1.399 . S
C3284 C3283 1.394 . S
C3284 C3285 1.516 . S
C3285 C3284 1.516 . S
C3285 C3286 1.502 1_655 S
C3285 C3287 1.561 . S
C3285 C3288 1.526 . S
C3286 H3270 0.959 . S
C3286 H3271 0.959 . S
C3286 H3272 0.961 . S
C3286 C3285 1.502 1_455 S
C3287 H3273 0.960 . S
C3287 H3274 0.961 . S
C3287 H3275 0.959 . S
C3287 C3285 1.561 . S
C3288 C3285 1.526 . S
C3288 C3289 1.396 . S
C3288 C3293 1.390 . S
C3289 C3283 1.465 . S
C3289 C3288 1.396 . S
C3289 C3290 1.399 . S
C3290 H3276 0.929 . S
C3290 C3289 1.399 . S
C3290 C3291 1.385 . S
C3291 H3277 0.931 . S
C3291 C3290 1.385 . S
C3291 C3292 1.389 . S
C3292 C3291 1.389 . S
C3292 C3293 1.387 . S
C3293 H3278 0.930 1_655 S
C3293 C3288 1.390 . S
C3293 C3292 1.387 . S
H3294 C3306 0.930 . S
H3295 C3308 0.930 . S
H3296 C3309 0.930 . S
H3297 C3313 0.959 . S
H3298 C3313 0.959 . S
H3299 C3313 0.961 . S
H3300 C3314 0.960 . S
H3301 C3314 0.961 . S
H3302 C3314 0.959 . S
H3303 C3317 0.929 . S
H3304 C3318 0.931 . S
H3305 C3320 0.930 . S
C3306 H3294 0.930 . S
C3306 C3307 1.399 . S
C3306 C3311 1.399 . S
C3307 C3306 1.399 . S
C3307 C3308 1.376 . S
C3308 H3295 0.930 . S
C3308 C3307 1.376 . S
C3308 C3309 1.388 . S
C3309 H3296 0.930 . S
C3309 C3308 1.388 . S
C3309 C3310 1.390 . S
C3310 C3309 1.390 . S
C3310 C3311 1.394 . S
C3310 C3316 1.465 . S
C3311 C3306 1.399 . S
C3311 C3310 1.394 . S
C3311 C3312 1.516 . S
C3312 C3311 1.516 . S
C3312 C3313 1.502 . S
C3312 C3314 1.561 . S
C3312 C3315 1.526 . S
C3313 H3297 0.959 . S
C3313 H3298 0.959 . S
C3313 H3299 0.961 . S
C3313 C3312 1.502 . S
C3314 H3300 0.960 . S
C3314 H3301 0.961 . S
C3314 H3302 0.959 . S
C3314 C3312 1.561 . S
C3315 C3312 1.526 . S
C3315 C3316 1.396 . S
C3315 C3320 1.390 . S
C3316 C3310 1.465 . S
C3316 C3315 1.396 . S
C3316 C3317 1.399 . S
C3317 H3303 0.929 . S
C3317 C3316 1.399 . S
C3317 C3318 1.385 . S
C3318 H3304 0.931 . S
C3318 C3317 1.385 . S
C3318 C3319 1.389 . S
C3319 C3318 1.389 . S
C3319 C3320 1.387 . S
C3320 H3305 0.930 . S
C3320 C3315 1.390 . S
C3320 C3319 1.387 . S
H3321 C3333 0.930 . S
H3322 C3335 0.930 . S
H3323 C3336 0.930 . S
H3324 C3340 0.959 . S
H3325 C3340 0.959 . S
H3326 C3340 0.961 . S
H3327 C3341 0.960 . S
H3328 C3341 0.961 . S
H3329 C3341 0.959 . S
H3330 C3344 0.929 . S
H3331 C3345 0.931 . S
H3332 C3347 0.930 . S
C3333 H3321 0.930 . S
C3333 C3334 1.399 . S
C3333 C3338 1.399 . S
C3334 C3333 1.399 . S
C3334 C3335 1.376 . S
C3335 H3322 0.930 . S
C3335 C3334 1.376 . S
C3335 C3336 1.388 . S
C3336 H3323 0.930 . S
C3336 C3335 1.388 . S
C3336 C3337 1.390 . S
C3337 C3336 1.390 . S
C3337 C3338 1.394 . S
C3337 C3343 1.465 . S
C3338 C3333 1.399 . S
C3338 C3337 1.394 . S
C3338 C3339 1.516 . S
C3339 C3338 1.516 . S
C3339 C3340 1.502 . S
C3339 C3341 1.561 . S
C3339 C3342 1.526 . S
C3340 H3324 0.959 . S
C3340 H3325 0.959 . S
C3340 H3326 0.961 . S
C3340 C3339 1.502 . S
C3341 H3327 0.960 . S
C3341 H3328 0.961 . S
C3341 H3329 0.959 . S
C3341 C3339 1.561 . S
C3342 C3339 1.526 . S
C3342 C3343 1.396 . S
C3342 C3347 1.390 . S
C3343 C3337 1.465 . S
C3343 C3342 1.396 . S
C3343 C3344 1.399 . S
C3344 H3330 0.929 . S
C3344 C3343 1.399 . S
C3344 C3345 1.385 . S
C3345 H3331 0.931 . S
C3345 C3344 1.385 . S
C3345 C3346 1.389 . S
C3346 C3345 1.389 . S
C3346 C3347 1.387 . S
C3347 H3332 0.930 . S
C3347 C3342 1.390 . S
C3347 C3346 1.387 . S
H3348 C3360 0.930 . S
H3349 C3362 0.930 . S
H3350 C3363 0.930 . S
H3351 C3367 0.959 . S
H3352 C3367 0.959 . S
H3353 C3367 0.961 . S
H3354 C3368 0.960 . S
H3355 C3368 0.961 . S
H3356 C3368 0.959 . S
H3357 C3371 0.929 . S
H3358 C3372 0.931 . S
H3359 C3374 0.930 . S
C3360 H3348 0.930 . S
C3360 C3361 1.399 . S
C3360 C3365 1.399 . S
C3361 C3360 1.399 . S
C3361 C3362 1.376 . S
C3362 H3349 0.930 . S
C3362 C3361 1.376 . S
C3362 C3363 1.388 . S
C3363 H3350 0.930 . S
C3363 C3362 1.388 . S
C3363 C3364 1.390 . S
C3364 C3363 1.390 . S
C3364 C3365 1.394 . S
C3364 C3370 1.465 . S
C3365 C3360 1.399 . S
C3365 C3364 1.394 . S
C3365 C3366 1.516 . S
C3366 C3365 1.516 . S
C3366 C3367 1.502 . S
C3366 C3368 1.561 . S
C3366 C3369 1.526 . S
C3367 H3351 0.959 . S
C3367 H3352 0.959 . S
C3367 H3353 0.961 . S
C3367 C3366 1.502 . S
C3368 H3354 0.960 . S
C3368 H3355 0.961 . S
C3368 H3356 0.959 . S
C3368 C3366 1.561 . S
C3369 C3366 1.526 . S
C3369 C3370 1.396 . S
C3369 C3374 1.390 . S
C3370 C3364 1.465 . S
C3370 C3369 1.396 . S
C3370 C3371 1.399 . S
C3371 H3357 0.929 . S
C3371 C3370 1.399 . S
C3371 C3372 1.385 . S
C3372 H3358 0.931 . S
C3372 C3371 1.385 . S
C3372 C3373 1.389 . S
C3373 C3372 1.389 . S
C3373 C3374 1.387 . S
C3374 H3359 0.930 . S
C3374 C3369 1.390 . S
C3374 C3373 1.387 . S
H3375 C3387 0.930 1_545 S
H3376 C3389 0.930 . S
H3377 C3390 0.930 . S
H3378 C3394 0.959 . S
H3379 C3394 0.959 . S
H3380 C3394 0.961 . S
H3381 C3395 0.960 . S
H3382 C3395 0.961 . S
H3383 C3395 0.959 . S
H3384 C3398 0.929 . S
H3385 C3399 0.931 . S
H3386 C3401 0.930 . S
C3387 H3375 0.930 1_565 S
C3387 C3388 1.399 . S
C3387 C3392 1.399 1_565 S
C3388 C3387 1.399 . S
C3388 C3389 1.376 . S
C3389 H3376 0.930 . S
C3389 C3388 1.376 . S
C3389 C3390 1.388 . S
C3390 H3377 0.930 . S
C3390 C3389 1.388 . S
C3390 C3391 1.390 1_565 S
C3391 C3390 1.390 1_545 S
C3391 C3392 1.394 . S
C3391 C3397 1.465 . S
C3392 C3387 1.399 1_545 S
C3392 C3391 1.394 . S
C3392 C3393 1.516 . S
C3393 C3392 1.516 . S
C3393 C3394 1.502 . S
C3393 C3395 1.561 . S
C3393 C3396 1.526 . S
C3394 H3378 0.959 . S
C3394 H3379 0.959 . S
C3394 H3380 0.961 . S
C3394 C3393 1.502 . S
C3395 H3381 0.960 . S
C3395 H3382 0.961 . S
C3395 H3383 0.959 . S
C3395 C3393 1.561 . S
C3396 C3393 1.526 . S
C3396 C3397 1.396 . S
C3396 C3401 1.390 . S
C3397 C3391 1.465 . S
C3397 C3396 1.396 . S
C3397 C3398 1.399 . S
C3398 H3384 0.929 . S
C3398 C3397 1.399 . S
C3398 C3399 1.385 . S
C3399 H3385 0.931 . S
C3399 C3398 1.385 . S
C3399 C3400 1.389 . S
C3400 C3399 1.389 . S
C3400 C3401 1.387 . S
C3401 H3386 0.930 . S
C3401 C3396 1.390 . S
C3401 C3400 1.387 . S
H3402 C3414 0.930 . S
H3403 C3416 0.930 . S
H3404 C3417 0.930 . S
H3405 C3421 0.959 . S
H3406 C3421 0.959 . S
H3407 C3421 0.961 . S
H3408 C3422 0.960 1_655 S
H3409 C3422 0.961 . S
H3410 C3422 0.959 . S
H3411 C3425 0.929 . S
H3412 C3426 0.931 . S
H3413 C3428 0.930 . S
C3414 H3402 0.930 . S
C3414 C3415 1.399 . S
C3414 C3419 1.399 . S
C3415 C3414 1.399 . S
C3415 C3416 1.376 . S
C3416 H3403 0.930 . S
C3416 C3415 1.376 . S
C3416 C3417 1.388 1_655 S
C3417 H3404 0.930 . S
C3417 C3416 1.388 1_455 S
C3417 C3418 1.390 . S
C3418 C3417 1.390 . S
C3418 C3419 1.394 1_455 S
C3418 C3424 1.465 . S
C3419 C3414 1.399 . S
C3419 C3418 1.394 1_655 S
C3419 C3420 1.516 1_655 S
C3420 C3419 1.516 1_455 S
C3420 C3421 1.502 1_455 S
C3420 C3422 1.561 . S
C3420 C3423 1.526 . S
C3421 H3405 0.959 . S
C3421 H3406 0.959 . S
C3421 H3407 0.961 . S
C3421 C3420 1.502 1_655 S
C3422 H3408 0.960 1_455 S
C3422 H3409 0.961 . S
C3422 H3410 0.959 . S
C3422 C3420 1.561 . S
C3423 C3420 1.526 . S
C3423 C3424 1.396 . S
C3423 C3428 1.390 . S
C3424 C3418 1.465 . S
C3424 C3423 1.396 . S
C3424 C3425 1.399 . S
C3425 H3411 0.929 . S
C3425 C3424 1.399 . S
C3425 C3426 1.385 . S
C3426 H3412 0.931 . S
C3426 C3425 1.385 . S
C3426 C3427 1.389 . S
C3427 C3426 1.389 . S
C3427 C3428 1.387 . S
C3428 H3413 0.930 . S
C3428 C3423 1.390 . S
C3428 C3427 1.387 . S
H3429 C3441 0.930 . S
H3430 C3443 0.930 . S
H3431 C3444 0.930 . S
H3432 C3448 0.959 . S
H3433 C3448 0.959 . S
H3434 C3448 0.961 . S
H3435 C3449 0.960 . S
H3436 C3449 0.961 . S
H3437 C3449 0.959 . S
H3438 C3452 0.929 . S
H3439 C3453 0.931 . S
H3440 C3455 0.930 . S
C3441 H3429 0.930 . S
C3441 C3442 1.399 . S
C3441 C3446 1.399 . S
C3442 C3441 1.399 . S
C3442 C3443 1.376 . S
C3443 H3430 0.930 . S
C3443 C3442 1.376 . S
C3443 C3444 1.388 . S
C3444 H3431 0.930 . S
C3444 C3443 1.388 . S
C3444 C3445 1.390 . S
C3445 C3444 1.390 . S
C3445 C3446 1.394 . S
C3445 C3451 1.465 . S
C3446 C3441 1.399 . S
C3446 C3445 1.394 . S
C3446 C3447 1.516 . S
C3447 C3446 1.516 . S
C3447 C3448 1.502 . S
C3447 C3449 1.561 . S
C3447 C3450 1.526 . S
C3448 H3432 0.959 . S
C3448 H3433 0.959 . S
C3448 H3434 0.961 . S
C3448 C3447 1.502 . S
C3449 H3435 0.960 . S
C3449 H3436 0.961 . S
C3449 H3437 0.959 . S
C3449 C3447 1.561 . S
C3450 C3447 1.526 . S
C3450 C3451 1.396 . S
C3450 C3455 1.390 . S
C3451 C3445 1.465 . S
C3451 C3450 1.396 . S
C3451 C3452 1.399 . S
C3452 H3438 0.929 . S
C3452 C3451 1.399 . S
C3452 C3453 1.385 . S
C3453 H3439 0.931 . S
C3453 C3452 1.385 . S
C3453 C3454 1.389 . S
C3454 C3453 1.389 . S
C3454 C3455 1.387 . S
C3455 H3440 0.930 . S
C3455 C3450 1.390 . S
C3455 C3454 1.387 . S
H3456 C3468 0.930 . S
H3457 C3470 0.930 . S
H3458 C3471 0.930 . S
H3459 C3475 0.959 1_545 S
H3460 C3475 0.959 . S
H3461 C3475 0.961 . S
H3462 C3476 0.960 . S
H3463 C3476 0.961 . S
H3464 C3476 0.959 . S
H3465 C3479 0.929 . S
H3466 C3480 0.931 . S
H3467 C3482 0.930 . S
C3468 H3456 0.930 . S
C3468 C3469 1.399 . S
C3468 C3473 1.399 . S
C3469 C3468 1.399 . S
C3469 C3470 1.376 . S
C3470 H3457 0.930 . S
C3470 C3469 1.376 . S
C3470 C3471 1.388 1_565 S
C3471 H3458 0.930 . S
C3471 C3470 1.388 1_545 S
C3471 C3472 1.390 . S
C3472 C3471 1.390 . S
C3472 C3473 1.394 1_545 S
C3472 C3478 1.465 . S
C3473 C3468 1.399 . S
C3473 C3472 1.394 1_565 S
C3473 C3474 1.516 1_565 S
C3474 C3473 1.516 1_545 S
C3474 C3475 1.502 1_545 S
C3474 C3476 1.561 1_545 S
C3474 C3477 1.526 . S
C3475 H3459 0.959 1_565 S
C3475 H3460 0.959 . S
C3475 H3461 0.961 . S
C3475 C3474 1.502 1_565 S
C3476 H3462 0.960 . S
C3476 H3463 0.961 . S
C3476 H3464 0.959 . S
C3476 C3474 1.561 1_565 S
C3477 C3474 1.526 . S
C3477 C3478 1.396 . S
C3477 C3482 1.390 . S
C3478 C3472 1.465 . S
C3478 C3477 1.396 . S
C3478 C3479 1.399 . S
C3479 H3465 0.929 . S
C3479 C3478 1.399 . S
C3479 C3480 1.385 . S
C3480 H3466 0.931 . S
C3480 C3479 1.385 . S
C3480 C3481 1.389 . S
C3481 C3480 1.389 . S
C3481 C3482 1.387 . S
C3482 H3467 0.930 . S
C3482 C3477 1.390 . S
C3482 C3481 1.387 . S
H3483 C3495 0.930 . S
H3484 C3497 0.930 . S
H3485 C3498 0.930 . S
H3486 C3502 0.959 . S
H3487 C3502 0.959 . S
H3488 C3502 0.961 . S
H3489 C3503 0.960 1_655 S
H3490 C3503 0.961 . S
H3491 C3503 0.959 . S
H3492 C3506 0.929 . S
H3493 C3507 0.931 . S
H3494 C3509 0.930 . S
C3495 H3483 0.930 . S
C3495 C3496 1.399 . S
C3495 C3500 1.394 1_655 S
C3496 C3495 1.399 . S
C3496 C3497 1.376 . S
C3497 H3484 0.930 . S
C3497 C3496 1.376 . S
C3497 C3498 1.388 1_655 S
C3498 H3485 0.930 . S
C3498 C3497 1.388 1_455 S
C3498 C3499 1.390 . S
C3499 C3498 1.390 . S
C3499 C3500 1.397 . S
C3499 C3505 1.465 . S
C3500 C3495 1.394 1_455 S
C3500 C3499 1.397 . S
C3500 C3501 1.519 . S
C3501 C3500 1.519 . S
C3501 C3502 1.502 1_455 S
C3501 C3503 1.561 . S
C3501 C3504 1.526 . S
C3502 H3486 0.959 . S
C3502 H3487 0.959 . S
C3502 H3488 0.961 . S
C3502 C3501 1.502 1_655 S
C3503 H3489 0.960 1_455 S
C3503 H3490 0.961 . S
C3503 H3491 0.959 . S
C3503 C3501 1.561 . S
C3504 C3501 1.526 . S
C3504 C3505 1.396 . S
C3504 C3509 1.390 . S
C3505 C3499 1.465 . S
C3505 C3504 1.396 . S
C3505 C3506 1.399 . S
C3506 H3492 0.929 . S
C3506 C3505 1.399 . S
C3506 C3507 1.385 . S
C3507 H3493 0.931 . S
C3507 C3506 1.385 . S
C3507 C3508 1.389 . S
C3508 C3507 1.389 . S
C3508 C3509 1.387 . S
C3509 H3494 0.930 . S
C3509 C3504 1.390 . S
C3509 C3508 1.387 . S
H3510 C3522 0.930 . S
H3511 C3524 0.930 . S
H3512 C3525 0.930 . S
H3513 C3529 0.984 . S
H3514 C3529 0.959 1_556 S
H3515 C3529 0.961 . S
H3516 C3530 0.960 . S
H3517 C3530 0.961 1_556 S
H3518 C3530 0.959 . S
H3519 C3533 0.929 . S
H3520 C3534 0.931 1_565 S
H3521 C3536 0.930 . S
C3522 H3510 0.930 . S
C3522 C3523 1.399 . S
C3522 C3527 1.399 . S
C3523 C3522 1.399 . S
C3523 C3524 1.376 1_545 S
C3524 H3511 0.930 . S
C3524 C3523 1.376 1_565 S
C3524 C3525 1.388 . S
C3525 H3512 0.930 . S
C3525 C3524 1.388 . S
C3525 C3526 1.390 1_565 S
C3526 C3525 1.390 1_545 S
C3526 C3527 1.394 . S
C3526 C3532 1.465 1_554 S
C3527 C3522 1.399 . S
C3527 C3526 1.394 . S
C3527 C3528 1.614 . S
C3528 C3527 1.614 . S
C3528 C3529 1.517 . S
C3528 C3530 1.570 . S
C3528 C3531 1.416 1_554 S
C3529 H3513 0.984 . S
C3529 H3514 0.959 1_554 S
C3529 H3515 0.961 . S
C3529 C3528 1.517 . S
C3530 H3516 0.960 . S
C3530 H3517 0.961 1_554 S
C3530 H3518 0.959 . S
C3530 C3528 1.570 . S
C3531 C3528 1.416 1_556 S
C3531 C3532 1.396 . S
C3531 C3536 1.390 . S
C3532 C3526 1.465 1_556 S
C3532 C3531 1.396 . S
C3532 C3533 1.399 1_545 S
C3533 H3519 0.929 . S
C3533 C3532 1.399 1_565 S
C3533 C3534 1.385 1_565 S
C3534 H3520 0.931 1_545 S
C3534 C3533 1.385 1_545 S
C3534 C3535 1.389 . S
C3535 C3534 1.389 . S
C3535 C3536 1.387 . S
C3536 H3521 0.930 . S
C3536 C3531 1.390 . S
C3536 C3535 1.387 . S
H3537 C3549 0.930 1_655 S
H3538 C3551 0.930 . S
H3539 C3552 0.930 . S
H3540 C3556 0.959 . S
H3541 C3556 0.959 . S
H3542 C3556 0.961 1_556 S
H3543 C3557 0.960 1_556 S
H3544 C3557 0.961 . S
H3545 C3557 0.959 . S
H3546 C3560 0.929 . S
H3547 C3561 0.931 . S
H3548 C3563 0.930 . S
C3549 H3537 0.930 1_455 S
C3549 C3550 1.399 . S
C3549 C3554 1.399 . S
C3550 C3549 1.399 . S
C3550 C3551 1.376 . S
C3551 H3538 0.930 . S
C3551 C3550 1.376 . S
C3551 C3552 1.388 . S
C3552 H3539 0.930 . S
C3552 C3551 1.388 . S
C3552 C3553 1.390 . S
C3553 C3552 1.390 . S
C3553 C3554 1.394 . S
C3553 C3559 1.465 1_556 S
C3554 C3549 1.399 . S
C3554 C3553 1.394 . S
C3554 C3555 1.516 1_556 S
C3555 C3554 1.516 1_554 S
C3555 C3556 1.502 1_455 S
C3555 C3557 1.561 . S
C3555 C3558 1.526 . S
C3556 H3540 0.959 . S
C3556 H3541 0.959 . S
C3556 H3542 0.961 1_554 S
C3556 C3555 1.502 1_655 S
C3557 H3543 0.960 1_554 S
C3557 H3544 0.961 . S
C3557 H3545 0.959 . S
C3557 C3555 1.561 . S
C3558 C3555 1.526 . S
C3558 C3559 1.396 . S
C3558 C3563 1.390 . S
C3559 C3553 1.465 1_554 S
C3559 C3558 1.396 . S
C3559 C3560 1.399 . S
C3560 H3546 0.929 . S
C3560 C3559 1.399 . S
C3560 C3561 1.385 . S
C3561 H3547 0.931 . S
C3561 C3560 1.385 . S
C3561 C3562 1.389 . S
C3562 C3561 1.389 . S
C3562 C3563 1.387 . S
C3563 H3548 0.930 . S
C3563 C3558 1.390 . S
C3563 C3562 1.387 . S
H3564 C3576 0.930 . S
H3565 C3578 0.930 . S
H3566 C3579 0.930 . S
H3567 C3583 0.959 . S
H3568 C3583 0.959 . S
H3569 C3583 0.961 1_554 S
H3570 C3584 1.026 . S
H3571 C3584 0.902 1_556 S
H3572 C3584 0.959 . S
H3573 C3587 0.929 . S
H3574 C3588 0.931 . S
H3575 C3590 0.930 . S
C3576 H3564 0.930 . S
C3576 C3577 1.399 . S
C3576 C3581 1.399 . S
C3577 C3576 1.399 . S
C3577 C3578 1.376 . S
C3578 H3565 0.930 . S
C3578 C3577 1.376 . S
C3578 C3579 1.388 . S
C3579 H3566 0.930 . S
C3579 C3578 1.388 . S
C3579 C3580 1.390 . S
C3580 C3579 1.390 . S
C3580 C3581 1.394 . S
C3580 C3586 1.465 1_554 S
C3581 C3576 1.399 . S
C3581 C3580 1.394 . S
C3581 C3582 1.509 1_554 S
C3582 C3581 1.509 1_556 S
C3582 C3583 1.503 . S
C3582 C3584 1.557 1_556 S
C3582 C3585 1.533 . S
C3583 H3567 0.959 . S
C3583 H3568 0.959 . S
C3583 H3569 0.961 1_556 S
C3583 C3582 1.503 . S
C3584 H3570 1.026 . S
C3584 H3571 0.902 1_554 S
C3584 H3572 0.959 . S
C3584 C3582 1.557 1_554 S
C3585 C3582 1.533 . S
C3585 C3586 1.396 . S
C3585 C3590 1.390 . S
C3586 C3580 1.465 1_556 S
C3586 C3585 1.396 . S
C3586 C3587 1.399 . S
C3587 H3573 0.929 . S
C3587 C3586 1.399 . S
C3587 C3588 1.385 . S
C3588 H3574 0.931 . S
C3588 C3587 1.385 . S
C3588 C3589 1.389 . S
C3589 C3588 1.389 . S
C3589 C3590 1.387 . S
C3590 H3575 0.930 . S
C3590 C3585 1.390 . S
C3590 C3589 1.387 . S
H3591 C3603 0.930 . S
H3592 C3605 0.930 . S
H3593 C3606 0.930 . S
H3594 C3610 0.959 . S
H3595 C3610 0.959 . S
H3596 C3610 0.961 . S
H3597 C3611 0.960 . S
H3598 C3611 0.961 . S
H3599 C3611 0.959 . S
H3600 C3614 0.929 . S
H3601 C3615 0.931 . S
H3602 C3617 0.930 . S
C3603 H3591 0.930 . S
C3603 C3604 1.399 . S
C3603 C3608 1.399 . S
C3604 C3603 1.399 . S
C3604 C3605 1.376 . S
C3605 H3592 0.930 . S
C3605 C3604 1.376 . S
C3605 C3606 1.388 . S
C3606 H3593 0.930 . S
C3606 C3605 1.388 . S
C3606 C3607 1.390 . S
C3607 C3606 1.390 . S
C3607 C3608 1.394 . S
C3607 C3613 1.465 . S
C3608 C3603 1.399 . S
C3608 C3607 1.394 . S
C3608 C3609 1.516 . S
C3609 C3608 1.516 . S
C3609 C3610 1.502 . S
C3609 C3611 1.561 . S
C3609 C3612 1.526 . S
C3610 H3594 0.959 . S
C3610 H3595 0.959 . S
C3610 H3596 0.961 . S
C3610 C3609 1.502 . S
C3611 H3597 0.960 . S
C3611 H3598 0.961 . S
C3611 H3599 0.959 . S
C3611 C3609 1.561 . S
C3612 C3609 1.526 . S
C3612 C3613 1.396 . S
C3612 C3617 1.390 . S
C3613 C3607 1.465 . S
C3613 C3612 1.396 . S
C3613 C3614 1.399 . S
C3614 H3600 0.929 . S
C3614 C3613 1.399 . S
C3614 C3615 1.385 . S
C3615 H3601 0.931 . S
C3615 C3614 1.385 . S
C3615 C3616 1.389 . S
C3616 C3615 1.389 . S
C3616 C3617 1.387 . S
C3617 H3602 0.930 . S
C3617 C3612 1.390 . S
C3617 C3616 1.387 . S
H3618 C3630 0.930 . S
H3619 C3632 0.930 . S
H3620 C3633 0.930 . S
H3621 C3637 0.959 . S
H3622 C3637 0.959 . S
H3623 C3637 0.961 . S
H3624 C3638 0.960 . S
H3625 C3638 0.961 . S
H3626 C3638 0.959 . S
H3627 C3641 0.929 . S
H3628 C3642 0.931 . S
H3629 C3644 0.930 . S
C3630 H3618 0.930 . S
C3630 C3631 1.399 . S
C3630 C3635 1.399 . S
C3631 C3630 1.399 . S
C3631 C3632 1.376 . S
C3632 H3619 0.930 . S
C3632 C3631 1.376 . S
C3632 C3633 1.388 . S
C3633 H3620 0.930 . S
C3633 C3632 1.388 . S
C3633 C3634 1.390 . S
C3634 C3633 1.390 . S
C3634 C3635 1.394 . S
C3634 C3640 1.465 . S
C3635 C3630 1.399 . S
C3635 C3634 1.394 . S
C3635 C3636 1.516 . S
C3636 C3635 1.516 . S
C3636 C3637 1.502 . S
C3636 C3638 1.561 . S
C3636 C3639 1.526 . S
C3637 H3621 0.959 . S
C3637 H3622 0.959 . S
C3637 H3623 0.961 . S
C3637 C3636 1.502 . S
C3638 H3624 0.960 . S
C3638 H3625 0.961 . S
C3638 H3626 0.959 . S
C3638 C3636 1.561 . S
C3639 C3636 1.526 . S
C3639 C3640 1.396 . S
C3639 C3644 1.390 . S
C3640 C3634 1.465 . S
C3640 C3639 1.396 . S
C3640 C3641 1.399 . S
C3641 H3627 0.929 . S
C3641 C3640 1.399 . S
C3641 C3642 1.385 . S
C3642 H3628 0.931 . S
C3642 C3641 1.385 . S
C3642 C3643 1.389 . S
C3643 C3642 1.389 . S
C3643 C3644 1.387 . S
C3644 H3629 0.930 . S
C3644 C3639 1.390 . S
C3644 C3643 1.387 . S
H3645 C3657 0.930 1_565 S
H3646 C3659 0.930 . S
H3647 C3660 0.930 . S
H3648 C3664 0.959 1_545 S
H3649 C3664 0.959 . S
H3650 C3664 0.961 . S
H3651 C3665 0.960 . S
H3652 C3665 0.961 . S
H3653 C3665 0.959 . S
H3654 C3668 0.929 . S
H3655 C3669 0.931 . S
H3656 C3671 0.920 1_565 S
C3657 H3645 0.930 1_545 S
C3657 C3658 1.399 . S
C3657 C3662 1.399 . S
C3658 C3657 1.399 . S
C3658 C3659 1.376 . S
C3659 H3646 0.930 . S
C3659 C3658 1.376 . S
C3659 C3660 1.388 . S
C3660 H3647 0.930 . S
C3660 C3659 1.388 . S
C3660 C3661 1.390 . S
C3661 C3660 1.390 . S
C3661 C3662 1.394 . S
C3661 C3667 1.465 . S
C3662 C3657 1.399 . S
C3662 C3661 1.394 . S
C3662 C3663 1.516 1_545 S
C3663 C3662 1.516 1_565 S
C3663 C3664 1.502 . S
C3663 C3665 1.561 . S
C3663 C3666 1.526 1_565 S
C3664 H3648 0.959 1_565 S
C3664 H3649 0.959 . S
C3664 H3650 0.961 . S
C3664 C3663 1.502 . S
C3665 H3651 0.960 . S
C3665 H3652 0.961 . S
C3665 H3653 0.959 . S
C3665 C3663 1.561 . S
C3666 C3663 1.526 1_545 S
C3666 C3667 1.396 . S
C3666 C3671 1.390 . S
C3667 C3661 1.465 . S
C3667 C3666 1.396 . S
C3667 C3668 1.399 . S
C3668 H3654 0.929 . S
C3668 C3667 1.399 . S
C3668 C3669 1.385 . S
C3669 H3655 0.931 . S
C3669 C3668 1.385 . S
C3669 C3670 1.389 . S
C3670 C3669 1.389 . S
C3670 C3671 1.387 . S
C3671 H3656 0.920 1_545 S
C3671 C3666 1.390 . S
C3671 C3670 1.387 . S
H3672 C3684 0.930 . S
H3673 C3686 0.930 . S
H3674 C3687 0.930 . S
H3675 C3691 0.959 . S
H3676 C3691 0.959 . S
H3677 C3691 0.961 . S
H3678 C3692 0.960 . S
H3679 C3692 0.961 . S
H3680 C3692 0.959 . S
H3681 C3695 0.929 . S
H3682 C3696 0.931 . S
H3683 C3698 0.930 . S
C3684 H3672 0.930 . S
C3684 C3685 1.399 . S
C3684 C3689 1.399 . S
C3685 C3684 1.399 . S
C3685 C3686 1.376 . S
C3686 H3673 0.930 . S
C3686 C3685 1.376 . S
C3686 C3687 1.388 . S
C3687 H3674 0.930 . S
C3687 C3686 1.388 . S
C3687 C3688 1.390 . S
C3688 C3687 1.390 . S
C3688 C3689 1.394 . S
C3688 C3694 1.465 . S
C3689 C3684 1.399 . S
C3689 C3688 1.394 . S
C3689 C3690 1.516 . S
C3690 C3689 1.516 . S
C3690 C3691 1.502 . S
C3690 C3692 1.561 . S
C3690 C3693 1.526 . S
C3691 H3675 0.959 . S
C3691 H3676 0.959 . S
C3691 H3677 0.961 . S
C3691 C3690 1.502 . S
C3692 H3678 0.960 . S
C3692 H3679 0.961 . S
C3692 H3680 0.959 . S
C3692 C3690 1.561 . S
C3693 C3690 1.526 . S
C3693 C3694 1.396 . S
C3693 C3698 1.390 . S
C3694 C3688 1.465 . S
C3694 C3693 1.396 . S
C3694 C3695 1.399 . S
C3695 H3681 0.929 . S
C3695 C3694 1.399 . S
C3695 C3696 1.385 . S
C3696 H3682 0.931 . S
C3696 C3695 1.385 . S
C3696 C3697 1.389 . S
C3697 C3696 1.389 . S
C3697 C3698 1.387 . S
C3698 H3683 0.930 . S
C3698 C3693 1.390 . S
C3698 C3697 1.387 . S
H3699 C3711 0.930 . S
H3700 C3713 0.930 . S
H3701 C3714 0.930 . S
H3702 C3718 0.959 . S
H3703 C3718 0.959 . S
H3704 C3718 0.961 . S
H3705 C3719 0.960 . S
H3706 C3719 0.961 . S
H3707 C3719 0.959 . S
H3708 C3722 0.929 . S
H3709 C3723 0.931 . S
H3710 C3725 0.930 . S
C3711 H3699 0.930 . S
C3711 C3712 1.399 . S
C3711 C3716 1.399 . S
C3712 C3711 1.399 . S
C3712 C3713 1.376 . S
C3713 H3700 0.930 . S
C3713 C3712 1.376 . S
C3713 C3714 1.388 . S
C3714 H3701 0.930 . S
C3714 C3713 1.388 . S
C3714 C3715 1.390 . S
C3715 C3714 1.390 . S
C3715 C3716 1.394 . S
C3715 C3721 1.465 . S
C3716 C3711 1.399 . S
C3716 C3715 1.394 . S
C3716 C3717 1.516 . S
C3717 C3716 1.516 . S
C3717 C3718 1.502 . S
C3717 C3719 1.561 . S
C3717 C3720 1.526 . S
C3718 H3702 0.959 . S
C3718 H3703 0.959 . S
C3718 H3704 0.961 . S
C3718 C3717 1.502 . S
C3719 H3705 0.960 . S
C3719 H3706 0.961 . S
C3719 H3707 0.959 . S
C3719 C3717 1.561 . S
C3720 C3717 1.526 . S
C3720 C3721 1.396 . S
C3720 C3725 1.390 . S
C3721 C3715 1.465 . S
C3721 C3720 1.396 . S
C3721 C3722 1.399 . S
C3722 H3708 0.929 . S
C3722 C3721 1.399 . S
C3722 C3723 1.385 . S
C3723 H3709 0.931 . S
C3723 C3722 1.385 . S
C3723 C3724 1.389 . S
C3724 C3723 1.389 . S
C3724 C3725 1.387 . S
C3725 H3710 0.930 . S
C3725 C3720 1.390 . S
C3725 C3724 1.387 . S
H3726 C3738 0.930 . S
H3727 C3740 0.930 . S
H3728 C3741 0.930 . S
H3729 C3745 0.959 . S
H3730 C3745 0.959 . S
H3731 C3745 0.961 . S
H3732 C3746 0.960 . S
H3733 C3746 0.961 . S
H3734 C3746 0.959 . S
H3735 C3749 0.929 . S
H3736 C3750 0.931 . S
H3737 C3752 0.930 . S
C3738 H3726 0.930 . S
C3738 C3739 1.399 . S
C3738 C3743 1.399 . S
C3739 C3738 1.399 . S
C3739 C3740 1.376 . S
C3740 H3727 0.930 . S
C3740 C3739 1.376 . S
C3740 C3741 1.388 . S
C3741 H3728 0.930 . S
C3741 C3740 1.388 . S
C3741 C3742 1.390 . S
C3742 C3741 1.390 . S
C3742 C3743 1.394 . S
C3742 C3748 1.465 . S
C3743 C3738 1.399 . S
C3743 C3742 1.394 . S
C3743 C3744 1.516 . S
C3744 C3743 1.516 . S
C3744 C3745 1.502 . S
C3744 C3746 1.561 . S
C3744 C3747 1.526 . S
C3745 H3729 0.959 . S
C3745 H3730 0.959 . S
C3745 H3731 0.961 . S
C3745 C3744 1.502 . S
C3746 H3732 0.960 . S
C3746 H3733 0.961 . S
C3746 H3734 0.959 . S
C3746 C3744 1.561 . S
C3747 C3744 1.526 . S
C3747 C3748 1.396 . S
C3747 C3752 1.390 . S
C3748 C3742 1.465 . S
C3748 C3747 1.396 . S
C3748 C3749 1.399 . S
C3749 H3735 0.929 . S
C3749 C3748 1.399 . S
C3749 C3750 1.385 . S
C3750 H3736 0.931 . S
C3750 C3749 1.385 . S
C3750 C3751 1.389 . S
C3751 C3750 1.389 . S
C3751 C3752 1.387 . S
C3752 H3737 0.930 . S
C3752 C3747 1.390 . S
C3752 C3751 1.387 . S
H3753 C3765 0.930 . S
H3754 C3767 0.930 . S
H3755 C3768 0.930 . S
H3756 C3772 0.959 . S
H3757 C3772 0.959 . S
H3758 C3772 0.961 . S
H3759 C3773 0.960 . S
H3760 C3773 0.961 . S
H3761 C3773 0.959 . S
H3762 C3776 0.929 . S
H3763 C3777 0.931 . S
H3764 C3779 0.930 . S
C3765 H3753 0.930 . S
C3765 C3766 1.399 . S
C3765 C3770 1.399 . S
C3766 C3765 1.399 . S
C3766 C3767 1.376 . S
C3767 H3754 0.930 . S
C3767 C3766 1.376 . S
C3767 C3768 1.388 . S
C3768 H3755 0.930 . S
C3768 C3767 1.388 . S
C3768 C3769 1.390 . S
C3769 C3768 1.390 . S
C3769 C3770 1.394 . S
C3769 C3775 1.465 . S
C3770 C3765 1.399 . S
C3770 C3769 1.394 . S
C3770 C3771 1.516 . S
C3771 C3770 1.516 . S
C3771 C3772 1.502 . S
C3771 C3773 1.561 . S
C3771 C3774 1.526 . S
C3772 H3756 0.959 . S
C3772 H3757 0.959 . S
C3772 H3758 0.961 . S
C3772 C3771 1.502 . S
C3773 H3759 0.960 . S
C3773 H3760 0.961 . S
C3773 H3761 0.959 . S
C3773 C3771 1.561 . S
C3774 C3771 1.526 . S
C3774 C3775 1.396 . S
C3774 C3779 1.390 . S
C3775 C3769 1.465 . S
C3775 C3774 1.396 . S
C3775 C3776 1.399 . S
C3776 H3762 0.929 . S
C3776 C3775 1.399 . S
C3776 C3777 1.385 . S
C3777 H3763 0.931 . S
C3777 C3776 1.385 . S
C3777 C3778 1.389 . S
C3778 C3777 1.389 . S
C3778 C3779 1.387 . S
C3779 H3764 0.930 . S
C3779 C3774 1.390 . S
C3779 C3778 1.387 . S
H3780 C3792 0.930 . S
H3781 C3794 0.930 . S
H3782 C3795 0.930 . S
H3783 C3799 0.959 . S
H3784 C3799 0.959 . S
H3785 C3799 0.961 . S
H3786 C3800 0.960 . S
H3787 C3800 0.961 . S
H3788 C3800 0.959 . S
H3789 C3803 0.929 . S
H3790 C3804 0.931 . S
H3791 C3806 0.930 . S
C3792 H3780 0.930 . S
C3792 C3793 1.399 . S
C3792 C3797 1.399 . S
C3793 C3792 1.399 . S
C3793 C3794 1.376 . S
C3794 H3781 0.930 . S
C3794 C3793 1.376 . S
C3794 C3795 1.388 . S
C3795 H3782 0.930 . S
C3795 C3794 1.388 . S
C3795 C3796 1.390 . S
C3796 C3795 1.390 . S
C3796 C3797 1.394 . S
C3796 C3802 1.465 . S
C3797 C3792 1.399 . S
C3797 C3796 1.394 . S
C3797 C3798 1.516 . S
C3798 C3797 1.516 . S
C3798 C3799 1.502 . S
C3798 C3800 1.561 . S
C3798 C3801 1.526 . S
C3799 H3783 0.959 . S
C3799 H3784 0.959 . S
C3799 H3785 0.961 . S
C3799 C3798 1.502 . S
C3800 H3786 0.960 . S
C3800 H3787 0.961 . S
C3800 H3788 0.959 . S
C3800 C3798 1.561 . S
C3801 C3798 1.526 . S
C3801 C3802 1.396 . S
C3801 C3806 1.390 . S
C3802 C3796 1.465 . S
C3802 C3801 1.396 . S
C3802 C3803 1.399 . S
C3803 H3789 0.929 . S
C3803 C3802 1.399 . S
C3803 C3804 1.385 . S
C3804 H3790 0.931 . S
C3804 C3803 1.385 . S
C3804 C3805 1.389 . S
C3805 C3804 1.389 . S
C3805 C3806 1.387 . S
C3806 H3791 0.930 . S
C3806 C3801 1.390 . S
C3806 C3805 1.387 . S
H3807 C3819 0.930 . S
H3808 C3821 0.930 . S
H3809 C3822 0.930 . S
H3810 C3826 0.959 . S
H3811 C3826 0.959 . S
H3812 C3826 0.961 . S
H3813 C3827 0.960 . S
H3814 C3827 0.961 . S
H3815 C3827 0.959 . S
H3816 C3830 0.929 . S
H3817 C3831 0.931 . S
H3818 C3833 0.930 . S
C3819 H3807 0.930 . S
C3819 C3820 1.399 . S
C3819 C3824 1.399 . S
C3820 C3819 1.399 . S
C3820 C3821 1.376 . S
C3821 H3808 0.930 . S
C3821 C3820 1.376 . S
C3821 C3822 1.388 . S
C3822 H3809 0.930 . S
C3822 C3821 1.388 . S
C3822 C3823 1.390 . S
C3823 C3822 1.390 . S
C3823 C3824 1.394 . S
C3823 C3829 1.465 . S
C3824 C3819 1.399 . S
C3824 C3823 1.394 . S
C3824 C3825 1.516 . S
C3825 C3824 1.516 . S
C3825 C3826 1.502 . S
C3825 C3827 1.561 . S
C3825 C3828 1.526 . S
C3826 H3810 0.959 . S
C3826 H3811 0.959 . S
C3826 H3812 0.961 . S
C3826 C3825 1.502 . S
C3827 H3813 0.960 . S
C3827 H3814 0.961 . S
C3827 H3815 0.959 . S
C3827 C3825 1.561 . S
C3828 C3825 1.526 . S
C3828 C3829 1.396 . S
C3828 C3833 1.390 . S
C3829 C3823 1.465 . S
C3829 C3828 1.396 . S
C3829 C3830 1.399 . S
C3830 H3816 0.929 . S
C3830 C3829 1.399 . S
C3830 C3831 1.385 . S
C3831 H3817 0.931 . S
C3831 C3830 1.385 . S
C3831 C3832 1.389 . S
C3832 C3831 1.389 . S
C3832 C3833 1.387 . S
C3833 H3818 0.930 . S
C3833 C3828 1.390 . S
C3833 C3832 1.387 . S
H3834 C3846 0.930 . S
H3835 C3848 0.930 . S
H3836 C3849 0.930 . S
H3837 C3853 0.959 . S
H3838 C3853 0.959 . S
H3839 C3853 0.961 . S
H3840 C3854 0.960 . S
H3841 C3854 0.961 . S
H3842 C3854 0.959 . S
H3843 C3857 0.929 . S
H3844 C3858 0.931 . S
H3845 C3860 0.930 . S
C3846 H3834 0.930 . S
C3846 C3847 1.399 . S
C3846 C3851 1.399 . S
C3847 C3846 1.399 . S
C3847 C3848 1.376 . S
C3848 H3835 0.930 . S
C3848 C3847 1.376 . S
C3848 C3849 1.388 . S
C3849 H3836 0.930 . S
C3849 C3848 1.388 . S
C3849 C3850 1.390 . S
C3850 C3849 1.390 . S
C3850 C3851 1.394 . S
C3850 C3856 1.465 . S
C3851 C3846 1.399 . S
C3851 C3850 1.394 . S
C3851 C3852 1.516 . S
C3852 C3851 1.516 . S
C3852 C3853 1.502 . S
C3852 C3854 1.561 . S
C3852 C3855 1.526 . S
C3853 H3837 0.959 . S
C3853 H3838 0.959 . S
C3853 H3839 0.961 . S
C3853 C3852 1.502 . S
C3854 H3840 0.960 . S
C3854 H3841 0.961 . S
C3854 H3842 0.959 . S
C3854 C3852 1.561 . S
C3855 C3852 1.526 . S
C3855 C3856 1.396 . S
C3855 C3860 1.390 . S
C3856 C3850 1.465 . S
C3856 C3855 1.396 . S
C3856 C3857 1.399 . S
C3857 H3843 0.929 . S
C3857 C3856 1.399 . S
C3857 C3858 1.385 . S
C3858 H3844 0.931 . S
C3858 C3857 1.385 . S
C3858 C3859 1.389 . S
C3859 C3858 1.389 . S
C3859 C3860 1.387 . S
C3860 H3845 0.930 . S
C3860 C3855 1.390 . S
C3860 C3859 1.387 . S
H3861 C3873 0.930 . S
H3862 C3875 0.930 . S
H3863 C3876 0.930 . S
H3864 C3880 0.959 . S
H3865 C3880 0.959 . S
H3866 C3880 0.961 . S
H3867 C3881 0.960 . S
H3868 C3881 0.961 . S
H3869 C3881 0.959 . S
H3870 C3884 0.929 . S
H3871 C3885 0.931 . S
H3872 C3887 0.930 . S
C3873 H3861 0.930 . S
C3873 C3874 1.399 . S
C3873 C3878 1.399 . S
C3874 C3873 1.399 . S
C3874 C3875 1.376 . S
C3875 H3862 0.930 . S
C3875 C3874 1.376 . S
C3875 C3876 1.388 . S
C3876 H3863 0.930 . S
C3876 C3875 1.388 . S
C3876 C3877 1.390 . S
C3877 C3876 1.390 . S
C3877 C3878 1.394 . S
C3877 C3883 1.465 . S
C3878 C3873 1.399 . S
C3878 C3877 1.394 . S
C3878 C3879 1.516 . S
C3879 C3878 1.516 . S
C3879 C3880 1.502 . S
C3879 C3881 1.561 . S
C3879 C3882 1.526 . S
C3880 H3864 0.959 . S
C3880 H3865 0.959 . S
C3880 H3866 0.961 . S
C3880 C3879 1.502 . S
C3881 H3867 0.960 . S
C3881 H3868 0.961 . S
C3881 H3869 0.959 . S
C3881 C3879 1.561 . S
C3882 C3879 1.526 . S
C3882 C3883 1.396 . S
C3882 C3887 1.390 . S
C3883 C3877 1.465 . S
C3883 C3882 1.396 . S
C3883 C3884 1.399 . S
C3884 H3870 0.929 . S
C3884 C3883 1.399 . S
C3884 C3885 1.385 . S
C3885 H3871 0.931 . S
C3885 C3884 1.385 . S
C3885 C3886 1.389 . S
C3886 C3885 1.389 . S
C3886 C3887 1.387 . S
C3887 H3872 0.930 . S
C3887 C3882 1.390 . S
C3887 C3886 1.387 . S
H3888 C3900 0.930 . S
H3889 C3902 0.930 . S
H3890 C3903 0.930 . S
H3891 C3907 0.959 . S
H3892 C3907 0.959 . S
H3893 C3907 0.961 . S
H3894 C3908 0.960 . S
H3895 C3908 0.961 . S
H3896 C3908 0.959 . S
H3897 C3911 0.929 . S
H3898 C3912 0.931 . S
H3899 C3914 0.930 . S
C3900 H3888 0.930 . S
C3900 C3901 1.399 . S
C3900 C3905 1.399 . S
C3901 C3900 1.399 . S
C3901 C3902 1.376 . S
C3902 H3889 0.930 . S
C3902 C3901 1.376 . S
C3902 C3903 1.388 . S
C3903 H3890 0.930 . S
C3903 C3902 1.388 . S
C3903 C3904 1.390 . S
C3904 C3903 1.390 . S
C3904 C3905 1.394 . S
C3904 C3910 1.465 . S
C3905 C3900 1.399 . S
C3905 C3904 1.394 . S
C3905 C3906 1.516 . S
C3906 C3905 1.516 . S
C3906 C3907 1.502 . S
C3906 C3908 1.561 . S
C3906 C3909 1.526 . S
C3907 H3891 0.959 . S
C3907 H3892 0.959 . S
C3907 H3893 0.961 . S
C3907 C3906 1.502 . S
C3908 H3894 0.960 . S
C3908 H3895 0.961 . S
C3908 H3896 0.959 . S
C3908 C3906 1.561 . S
C3909 C3906 1.526 . S
C3909 C3910 1.396 . S
C3909 C3914 1.390 . S
C3910 C3904 1.465 . S
C3910 C3909 1.396 . S
C3910 C3911 1.399 . S
C3911 H3897 0.929 . S
C3911 C3910 1.399 . S
C3911 C3912 1.385 . S
C3912 H3898 0.931 . S
C3912 C3911 1.385 . S
C3912 C3913 1.389 . S
C3913 C3912 1.389 . S
C3913 C3914 1.387 . S
C3914 H3899 0.930 . S
C3914 C3909 1.390 . S
C3914 C3913 1.387 . S
H3915 C3927 0.930 . S
H3916 C3929 0.930 . S
H3917 C3930 0.930 . S
H3918 C3934 0.959 . S
H3919 C3934 0.959 . S
H3920 C3934 0.961 . S
H3921 C3935 0.960 . S
H3922 C3935 0.961 . S
H3923 C3935 0.959 . S
H3924 C3938 0.929 . S
H3925 C3939 0.931 . S
H3926 C3941 0.930 . S
C3927 H3915 0.930 . S
C3927 C3928 1.399 . S
C3927 C3932 1.399 . S
C3928 C3927 1.399 . S
C3928 C3929 1.376 . S
C3929 H3916 0.930 . S
C3929 C3928 1.376 . S
C3929 C3930 1.388 . S
C3930 H3917 0.930 . S
C3930 C3929 1.388 . S
C3930 C3931 1.390 . S
C3931 C3930 1.390 . S
C3931 C3932 1.394 . S
C3931 C3937 1.465 . S
C3932 C3927 1.399 . S
C3932 C3931 1.394 . S
C3932 C3933 1.516 . S
C3933 C3932 1.516 . S
C3933 C3934 1.502 . S
C3933 C3935 1.561 . S
C3933 C3936 1.526 . S
C3934 H3918 0.959 . S
C3934 H3919 0.959 . S
C3934 H3920 0.961 . S
C3934 C3933 1.502 . S
C3935 H3921 0.960 . S
C3935 H3922 0.961 . S
C3935 H3923 0.959 . S
C3935 C3933 1.561 . S
C3936 C3933 1.526 . S
C3936 C3937 1.396 . S
C3936 C3941 1.390 . S
C3937 C3931 1.465 . S
C3937 C3936 1.396 . S
C3937 C3938 1.399 . S
C3938 H3924 0.929 . S
C3938 C3937 1.399 . S
C3938 C3939 1.385 . S
C3939 H3925 0.931 . S
C3939 C3938 1.385 . S
C3939 C3940 1.389 . S
C3940 C3939 1.389 . S
C3940 C3941 1.387 . S
C3941 H3926 0.930 . S
C3941 C3936 1.390 . S
C3941 C3940 1.387 . S
H3942 C3954 0.930 . S
H3943 C3956 0.930 . S
H3944 C3957 0.930 . S
H3945 C3961 0.959 . S
H3946 C3961 0.959 . S
H3947 C3961 0.961 . S
H3948 C3962 0.960 . S
H3949 C3962 0.961 . S
H3950 C3962 0.959 . S
H3951 C3965 0.929 . S
H3952 C3966 0.931 . S
H3953 C3968 0.930 . S
C3954 H3942 0.930 . S
C3954 C3955 1.399 . S
C3954 C3959 1.399 . S
C3955 C3954 1.399 . S
C3955 C3956 1.376 . S
C3956 H3943 0.930 . S
C3956 C3955 1.376 . S
C3956 C3957 1.388 . S
C3957 H3944 0.930 . S
C3957 C3956 1.388 . S
C3957 C3958 1.390 . S
C3958 C3957 1.390 . S
C3958 C3959 1.394 . S
C3958 C3964 1.465 . S
C3959 C3954 1.399 . S
C3959 C3958 1.394 . S
C3959 C3960 1.516 . S
C3960 C3959 1.516 . S
C3960 C3961 1.502 . S
C3960 C3962 1.561 . S
C3960 C3963 1.526 . S
C3961 H3945 0.959 . S
C3961 H3946 0.959 . S
C3961 H3947 0.961 . S
C3961 C3960 1.502 . S
C3962 H3948 0.960 . S
C3962 H3949 0.961 . S
C3962 H3950 0.959 . S
C3962 C3960 1.561 . S
C3963 C3960 1.526 . S
C3963 C3964 1.396 . S
C3963 C3968 1.390 . S
C3964 C3958 1.465 . S
C3964 C3963 1.396 . S
C3964 C3965 1.399 . S
C3965 H3951 0.929 . S
C3965 C3964 1.399 . S
C3965 C3966 1.385 . S
C3966 H3952 0.931 . S
C3966 C3965 1.385 . S
C3966 C3967 1.389 . S
C3967 C3966 1.389 . S
C3967 C3968 1.387 . S
C3968 H3953 0.930 . S
C3968 C3963 1.390 . S
C3968 C3967 1.387 . S
H3969 C3981 0.930 . S
H3970 C3983 0.930 . S
H3971 C3984 0.930 . S
H3972 C3988 0.959 . S
H3973 C3988 0.959 . S
H3974 C3988 0.961 . S
H3975 C3989 0.960 . S
H3976 C3989 0.961 . S
H3977 C3989 0.959 . S
H3978 C3992 0.929 . S
H3979 C3993 0.931 . S
H3980 C3995 0.930 . S
C3981 H3969 0.930 . S
C3981 C3982 1.399 . S
C3981 C3986 1.399 . S
C3982 C3981 1.399 . S
C3982 C3983 1.376 . S
C3983 H3970 0.930 . S
C3983 C3982 1.376 . S
C3983 C3984 1.388 . S
C3984 H3971 0.930 . S
C3984 C3983 1.388 . S
C3984 C3985 1.390 . S
C3985 C3984 1.390 . S
C3985 C3986 1.394 . S
C3985 C3991 1.465 . S
C3986 C3981 1.399 . S
C3986 C3985 1.394 . S
C3986 C3987 1.516 . S
C3987 C3986 1.516 . S
C3987 C3988 1.502 . S
C3987 C3989 1.561 . S
C3987 C3990 1.526 . S
C3988 H3972 0.959 . S
C3988 H3973 0.959 . S
C3988 H3974 0.961 . S
C3988 C3987 1.502 . S
C3989 H3975 0.960 . S
C3989 H3976 0.961 . S
C3989 H3977 0.959 . S
C3989 C3987 1.561 . S
C3990 C3987 1.526 . S
C3990 C3991 1.396 . S
C3990 C3995 1.390 . S
C3991 C3985 1.465 . S
C3991 C3990 1.396 . S
C3991 C3992 1.399 . S
C3992 H3978 0.929 . S
C3992 C3991 1.399 . S
C3992 C3993 1.385 . S
C3993 H3979 0.931 . S
C3993 C3992 1.385 . S
C3993 C3994 1.389 . S
C3994 C3993 1.389 . S
C3994 C3995 1.387 . S
C3995 H3980 0.930 . S
C3995 C3990 1.390 . S
C3995 C3994 1.387 . S
H3996 C4008 0.930 . S
H3997 C4010 0.930 . S
H3998 C4011 0.930 . S
H3999 C4015 0.959 . S
H4000 C4015 0.959 . S
H4001 C4015 0.961 . S
H4002 C4016 0.960 . S
H4003 C4016 0.961 . S
H4004 C4016 0.959 . S
H4005 C4019 0.929 . S
H4006 C4020 0.931 . S
H4007 C4022 0.930 . S
C4008 H3996 0.930 . S
C4008 C4009 1.399 . S
C4008 C4013 1.399 . S
C4009 C4008 1.399 . S
C4009 C4010 1.376 . S
C4010 H3997 0.930 . S
C4010 C4009 1.376 . S
C4010 C4011 1.388 . S
C4011 H3998 0.930 . S
C4011 C4010 1.388 . S
C4011 C4012 1.390 . S
C4012 C4011 1.390 . S
C4012 C4013 1.394 . S
C4012 C4018 1.465 . S
C4013 C4008 1.399 . S
C4013 C4012 1.394 . S
C4013 C4014 1.516 . S
C4014 C4013 1.516 . S
C4014 C4015 1.502 . S
C4014 C4016 1.561 . S
C4014 C4017 1.526 . S
C4015 H3999 0.959 . S
C4015 H4000 0.959 . S
C4015 H4001 0.961 . S
C4015 C4014 1.502 . S
C4016 H4002 0.960 . S
C4016 H4003 0.961 . S
C4016 H4004 0.959 . S
C4016 C4014 1.561 . S
C4017 C4014 1.526 . S
C4017 C4018 1.396 . S
C4017 C4022 1.390 . S
C4018 C4012 1.465 . S
C4018 C4017 1.396 . S
C4018 C4019 1.399 . S
C4019 H4005 0.929 . S
C4019 C4018 1.399 . S
C4019 C4020 1.385 . S
C4020 H4006 0.931 . S
C4020 C4019 1.385 . S
C4020 C4021 1.389 . S
C4021 C4020 1.389 . S
C4021 C4022 1.387 . S
C4022 H4007 0.930 . S
C4022 C4017 1.390 . S
C4022 C4021 1.387 . S
H4023 C4035 0.930 . S
H4024 C4037 0.930 . S
H4025 C4038 0.930 . S
H4026 C4042 0.959 . S
H4027 C4042 0.959 . S
H4028 C4042 0.961 . S
H4029 C4043 0.960 . S
H4030 C4043 0.961 . S
H4031 C4043 0.959 . S
H4032 C4046 0.929 . S
H4033 C4047 0.931 . S
H4034 C4049 0.930 . S
C4035 H4023 0.930 . S
C4035 C4036 1.399 . S
C4035 C4040 1.399 . S
C4036 C4035 1.399 . S
C4036 C4037 1.376 . S
C4037 H4024 0.930 . S
C4037 C4036 1.376 . S
C4037 C4038 1.388 . S
C4038 H4025 0.930 . S
C4038 C4037 1.388 . S
C4038 C4039 1.390 . S
C4039 C4038 1.390 . S
C4039 C4040 1.394 . S
C4039 C4045 1.465 . S
C4040 C4035 1.399 . S
C4040 C4039 1.394 . S
C4040 C4041 1.516 . S
C4041 C4040 1.516 . S
C4041 C4042 1.502 . S
C4041 C4043 1.561 . S
C4041 C4044 1.526 . S
C4042 H4026 0.959 . S
C4042 H4027 0.959 . S
C4042 H4028 0.961 . S
C4042 C4041 1.502 . S
C4043 H4029 0.960 . S
C4043 H4030 0.961 . S
C4043 H4031 0.959 . S
C4043 C4041 1.561 . S
C4044 C4041 1.526 . S
C4044 C4045 1.396 . S
C4044 C4049 1.390 . S
C4045 C4039 1.465 . S
C4045 C4044 1.396 . S
C4045 C4046 1.399 . S
C4046 H4032 0.929 . S
C4046 C4045 1.399 . S
C4046 C4047 1.385 . S
C4047 H4033 0.931 . S
C4047 C4046 1.385 . S
C4047 C4048 1.389 . S
C4048 C4047 1.389 . S
C4048 C4049 1.387 . S
C4049 H4034 0.930 . S
C4049 C4044 1.390 . S
C4049 C4048 1.387 . S
H4050 C4062 0.930 . S
H4051 C4064 0.930 . S
H4052 C4065 0.930 . S
H4053 C4069 0.959 . S
H4054 C4069 0.959 . S
H4055 C4069 0.961 . S
H4056 C4070 0.960 . S
H4057 C4070 0.961 . S
H4058 C4070 0.959 . S
H4059 C4073 0.929 . S
H4060 C4074 0.931 . S
H4061 C4076 0.930 . S
C4062 H4050 0.930 . S
C4062 C4063 1.399 . S
C4062 C4067 1.399 . S
C4063 C4062 1.399 . S
C4063 C4064 1.376 . S
C4064 H4051 0.930 . S
C4064 C4063 1.376 . S
C4064 C4065 1.388 . S
C4065 H4052 0.930 . S
C4065 C4064 1.388 . S
C4065 C4066 1.390 . S
C4066 C4065 1.390 . S
C4066 C4067 1.394 . S
C4066 C4072 1.465 . S
C4067 C4062 1.399 . S
C4067 C4066 1.394 . S
C4067 C4068 1.516 . S
C4068 C4067 1.516 . S
C4068 C4069 1.502 . S
C4068 C4070 1.561 . S
C4068 C4071 1.526 . S
C4069 H4053 0.959 . S
C4069 H4054 0.959 . S
C4069 H4055 0.961 . S
C4069 C4068 1.502 . S
C4070 H4056 0.960 . S
C4070 H4057 0.961 . S
C4070 H4058 0.959 . S
C4070 C4068 1.561 . S
C4071 C4068 1.526 . S
C4071 C4072 1.396 . S
C4071 C4076 1.390 . S
C4072 C4066 1.465 . S
C4072 C4071 1.396 . S
C4072 C4073 1.399 . S
C4073 H4059 0.929 . S
C4073 C4072 1.399 . S
C4073 C4074 1.385 . S
C4074 H4060 0.931 . S
C4074 C4073 1.385 . S
C4074 C4075 1.389 . S
C4075 C4074 1.389 . S
C4075 C4076 1.387 . S
C4076 H4061 0.930 . S
C4076 C4071 1.390 . S
C4076 C4075 1.387 . S
H4077 C4089 0.930 . S
H4078 C4091 0.930 . S
H4079 C4092 0.930 . S
H4080 C4096 0.959 . S
H4081 C4096 0.959 . S
H4082 C4096 0.961 . S
H4083 C4097 0.960 . S
H4084 C4097 0.961 . S
H4085 C4097 0.959 . S
H4086 C4100 0.929 . S
H4087 C4101 0.931 . S
H4088 C4103 0.930 . S
C4089 H4077 0.930 . S
C4089 C4090 1.399 . S
C4089 C4094 1.399 . S
C4090 C4089 1.399 . S
C4090 C4091 1.376 . S
C4091 H4078 0.930 . S
C4091 C4090 1.376 . S
C4091 C4092 1.388 . S
C4092 H4079 0.930 . S
C4092 C4091 1.388 . S
C4092 C4093 1.390 . S
C4093 C4092 1.390 . S
C4093 C4094 1.394 . S
C4093 C4099 1.465 . S
C4094 C4089 1.399 . S
C4094 C4093 1.394 . S
C4094 C4095 1.516 . S
C4095 C4094 1.516 . S
C4095 C4096 1.502 . S
C4095 C4097 1.561 . S
C4095 C4098 1.526 . S
C4096 H4080 0.959 . S
C4096 H4081 0.959 . S
C4096 H4082 0.961 . S
C4096 C4095 1.502 . S
C4097 H4083 0.960 . S
C4097 H4084 0.961 . S
C4097 H4085 0.959 . S
C4097 C4095 1.561 . S
C4098 C4095 1.526 . S
C4098 C4099 1.396 . S
C4098 C4103 1.390 . S
C4099 C4093 1.465 . S
C4099 C4098 1.396 . S
C4099 C4100 1.399 . S
C4100 H4086 0.929 . S
C4100 C4099 1.399 . S
C4100 C4101 1.385 . S
C4101 H4087 0.931 . S
C4101 C4100 1.385 . S
C4101 C4102 1.389 . S
C4102 C4101 1.389 . S
C4102 C4103 1.387 . S
C4103 H4088 0.930 . S
C4103 C4098 1.390 . S
C4103 C4102 1.387 . S
H4104 C4116 0.930 . S
H4105 C4118 0.930 . S
H4106 C4119 0.930 . S
H4107 C4123 0.959 . S
H4108 C4123 0.959 . S
H4109 C4123 0.961 . S
H4110 C4124 0.960 . S
H4111 C4124 0.961 . S
H4112 C4124 0.959 . S
H4113 C4127 0.929 . S
H4114 C4128 0.931 . S
H4115 C4130 0.930 . S
C4116 H4104 0.930 . S
C4116 C4117 1.399 . S
C4116 C4121 1.399 . S
C4117 C4116 1.399 . S
C4117 C4118 1.376 . S
C4118 H4105 0.930 . S
C4118 C4117 1.376 . S
C4118 C4119 1.388 . S
C4119 H4106 0.930 . S
C4119 C4118 1.388 . S
C4119 C4120 1.390 . S
C4120 C4119 1.390 . S
C4120 C4121 1.394 . S
C4120 C4126 1.465 . S
C4121 C4116 1.399 . S
C4121 C4120 1.394 . S
C4121 C4122 1.516 . S
C4122 C4121 1.516 . S
C4122 C4123 1.502 . S
C4122 C4124 1.561 . S
C4122 C4125 1.526 . S
C4123 H4107 0.959 . S
C4123 H4108 0.959 . S
C4123 H4109 0.961 . S
C4123 C4122 1.502 . S
C4124 H4110 0.960 . S
C4124 H4111 0.961 . S
C4124 H4112 0.959 . S
C4124 C4122 1.561 . S
C4125 C4122 1.526 . S
C4125 C4126 1.396 . S
C4125 C4130 1.390 . S
C4126 C4120 1.465 . S
C4126 C4125 1.396 . S
C4126 C4127 1.399 . S
C4127 H4113 0.929 . S
C4127 C4126 1.399 . S
C4127 C4128 1.385 . S
C4128 H4114 0.931 . S
C4128 C4127 1.385 . S
C4128 C4129 1.389 . S
C4129 C4128 1.389 . S
C4129 C4130 1.387 . S
C4130 H4115 0.930 . S
C4130 C4125 1.390 . S
C4130 C4129 1.387 . S
H4131 C4143 0.930 . S
H4132 C4145 0.930 . S
H4133 C4146 0.930 . S
H4134 C4150 0.959 . S
H4135 C4150 0.959 . S
H4136 C4150 0.961 . S
H4137 C4151 0.960 . S
H4138 C4151 0.961 . S
H4139 C4151 0.959 . S
H4140 C4154 0.929 . S
H4141 C4155 0.931 . S
H4142 C4157 0.930 . S
C4143 H4131 0.930 . S
C4143 C4144 1.399 . S
C4143 C4148 1.399 . S
C4144 C4143 1.399 . S
C4144 C4145 1.376 . S
C4145 H4132 0.930 . S
C4145 C4144 1.376 . S
C4145 C4146 1.388 . S
C4146 H4133 0.930 . S
C4146 C4145 1.388 . S
C4146 C4147 1.390 . S
C4147 C4146 1.390 . S
C4147 C4148 1.394 . S
C4147 C4153 1.465 . S
C4148 C4143 1.399 . S
C4148 C4147 1.394 . S
C4148 C4149 1.516 . S
C4149 C4148 1.516 . S
C4149 C4150 1.502 . S
C4149 C4151 1.561 . S
C4149 C4152 1.526 . S
C4150 H4134 0.959 . S
C4150 H4135 0.959 . S
C4150 H4136 0.961 . S
C4150 C4149 1.502 . S
C4151 H4137 0.960 . S
C4151 H4138 0.961 . S
C4151 H4139 0.959 . S
C4151 C4149 1.561 . S
C4152 C4149 1.526 . S
C4152 C4153 1.396 . S
C4152 C4157 1.390 . S
C4153 C4147 1.465 . S
C4153 C4152 1.396 . S
C4153 C4154 1.399 . S
C4154 H4140 0.929 . S
C4154 C4153 1.399 . S
C4154 C4155 1.385 . S
C4155 H4141 0.931 . S
C4155 C4154 1.385 . S
C4155 C4156 1.389 . S
C4156 C4155 1.389 . S
C4156 C4157 1.387 . S
C4157 H4142 0.930 . S
C4157 C4152 1.390 . S
C4157 C4156 1.387 . S
H4158 C4170 0.930 . S
H4159 C4172 0.930 . S
H4160 C4173 0.930 . S
H4161 C4177 0.959 . S
H4162 C4177 0.959 . S
H4163 C4177 0.961 . S
H4164 C4178 0.960 . S
H4165 C4178 0.961 . S
H4166 C4178 0.959 . S
H4167 C4181 0.929 . S
H4168 C4182 0.931 . S
H4169 C4184 0.930 . S
C4170 H4158 0.930 . S
C4170 C4171 1.399 . S
C4170 C4175 1.399 . S
C4171 C4170 1.399 . S
C4171 C4172 1.376 . S
C4172 H4159 0.930 . S
C4172 C4171 1.376 . S
C4172 C4173 1.388 . S
C4173 H4160 0.930 . S
C4173 C4172 1.388 . S
C4173 C4174 1.390 . S
C4174 C4173 1.390 . S
C4174 C4175 1.394 . S
C4174 C4180 1.465 . S
C4175 C4170 1.399 . S
C4175 C4174 1.394 . S
C4175 C4176 1.516 . S
C4176 C4175 1.516 . S
C4176 C4177 1.502 . S
C4176 C4178 1.561 . S
C4176 C4179 1.526 . S
C4177 H4161 0.959 . S
C4177 H4162 0.959 . S
C4177 H4163 0.961 . S
C4177 C4176 1.502 . S
C4178 H4164 0.960 . S
C4178 H4165 0.961 . S
C4178 H4166 0.959 . S
C4178 C4176 1.561 . S
C4179 C4176 1.526 . S
C4179 C4180 1.396 . S
C4179 C4184 1.390 . S
C4180 C4174 1.465 . S
C4180 C4179 1.396 . S
C4180 C4181 1.399 . S
C4181 H4167 0.929 . S
C4181 C4180 1.399 . S
C4181 C4182 1.385 . S
C4182 H4168 0.931 . S
C4182 C4181 1.385 . S
C4182 C4183 1.389 . S
C4183 C4182 1.389 . S
C4183 C4184 1.387 . S
C4184 H4169 0.930 . S
C4184 C4179 1.390 . S
C4184 C4183 1.387 . S
H4185 C4197 0.930 . S
H4186 C4199 0.930 . S
H4187 C4200 0.930 . S
H4188 C4204 0.959 . S
H4189 C4204 0.959 . S
H4190 C4204 0.961 . S
H4191 C4205 0.960 . S
H4192 C4205 0.961 . S
H4193 C4205 0.959 . S
H4194 C4208 0.929 . S
H4195 C4209 0.931 . S
H4196 C4211 0.930 . S
C4197 H4185 0.930 . S
C4197 C4198 1.399 . S
C4197 C4202 1.399 . S
C4198 C4197 1.399 . S
C4198 C4199 1.376 . S
C4199 H4186 0.930 . S
C4199 C4198 1.376 . S
C4199 C4200 1.388 . S
C4200 H4187 0.930 . S
C4200 C4199 1.388 . S
C4200 C4201 1.390 . S
C4201 C4200 1.390 . S
C4201 C4202 1.394 . S
C4201 C4207 1.465 . S
C4202 C4197 1.399 . S
C4202 C4201 1.394 . S
C4202 C4203 1.516 . S
C4203 C4202 1.516 . S
C4203 C4204 1.502 . S
C4203 C4205 1.561 . S
C4203 C4206 1.526 . S
C4204 H4188 0.959 . S
C4204 H4189 0.959 . S
C4204 H4190 0.961 . S
C4204 C4203 1.502 . S
C4205 H4191 0.960 . S
C4205 H4192 0.961 . S
C4205 H4193 0.959 . S
C4205 C4203 1.561 . S
C4206 C4203 1.526 . S
C4206 C4207 1.396 . S
C4206 C4211 1.390 . S
C4207 C4201 1.465 . S
C4207 C4206 1.396 . S
C4207 C4208 1.399 . S
C4208 H4194 0.929 . S
C4208 C4207 1.399 . S
C4208 C4209 1.385 . S
C4209 H4195 0.931 . S
C4209 C4208 1.385 . S
C4209 C4210 1.389 . S
C4210 C4209 1.389 . S
C4210 C4211 1.387 . S
C4211 H4196 0.930 . S
C4211 C4206 1.390 . S
C4211 C4210 1.387 . S
H4212 C4224 0.930 . S
H4213 C4226 0.930 . S
H4214 C4227 0.930 . S
H4215 C4231 0.959 . S
H4216 C4231 0.959 . S
H4217 C4231 0.961 . S
H4218 C4232 0.960 . S
H4219 C4232 0.961 . S
H4220 C4232 0.959 . S
H4221 C4235 0.929 . S
H4222 C4236 0.931 . S
H4223 C4238 0.930 . S
C4224 H4212 0.930 . S
C4224 C4225 1.399 . S
C4224 C4229 1.399 . S
C4225 C4224 1.399 . S
C4225 C4226 1.376 . S
C4226 H4213 0.930 . S
C4226 C4225 1.376 . S
C4226 C4227 1.388 . S
C4227 H4214 0.930 . S
C4227 C4226 1.388 . S
C4227 C4228 1.390 . S
C4228 C4227 1.390 . S
C4228 C4229 1.394 . S
C4228 C4234 1.465 . S
C4229 C4224 1.399 . S
C4229 C4228 1.394 . S
C4229 C4230 1.516 . S
C4230 C4229 1.516 . S
C4230 C4231 1.502 . S
C4230 C4232 1.561 . S
C4230 C4233 1.526 . S
C4231 H4215 0.959 . S
C4231 H4216 0.959 . S
C4231 H4217 0.961 . S
C4231 C4230 1.502 . S
C4232 H4218 0.960 . S
C4232 H4219 0.961 . S
C4232 H4220 0.959 . S
C4232 C4230 1.561 . S
C4233 C4230 1.526 . S
C4233 C4234 1.396 . S
C4233 C4238 1.390 . S
C4234 C4228 1.465 . S
C4234 C4233 1.396 . S
C4234 C4235 1.399 . S
C4235 H4221 0.929 . S
C4235 C4234 1.399 . S
C4235 C4236 1.385 . S
C4236 H4222 0.931 . S
C4236 C4235 1.385 . S
C4236 C4237 1.389 . S
C4237 C4236 1.389 . S
C4237 C4238 1.387 . S
C4238 H4223 0.930 . S
C4238 C4233 1.390 . S
C4238 C4237 1.387 . S
H4239 C4251 0.930 . S
H4240 C4253 0.930 . S
H4241 C4254 0.930 . S
H4242 C4258 0.959 . S
H4243 C4258 0.959 . S
H4244 C4258 0.961 . S
H4245 C4259 0.960 . S
H4246 C4259 0.961 . S
H4247 C4259 0.959 . S
H4248 C4262 0.929 . S
H4249 C4263 0.931 . S
H4250 C4265 0.930 . S
C4251 H4239 0.930 . S
C4251 C4252 1.399 . S
C4251 C4256 1.399 . S
C4252 C4251 1.399 . S
C4252 C4253 1.376 . S
C4253 H4240 0.930 . S
C4253 C4252 1.376 . S
C4253 C4254 1.388 . S
C4254 H4241 0.930 . S
C4254 C4253 1.388 . S
C4254 C4255 1.390 . S
C4255 C4254 1.390 . S
C4255 C4256 1.394 . S
C4255 C4261 1.465 . S
C4256 C4251 1.399 . S
C4256 C4255 1.394 . S
C4256 C4257 1.516 . S
C4257 C4256 1.516 . S
C4257 C4258 1.502 . S
C4257 C4259 1.561 . S
C4257 C4260 1.526 . S
C4258 H4242 0.959 . S
C4258 H4243 0.959 . S
C4258 H4244 0.961 . S
C4258 C4257 1.502 . S
C4259 H4245 0.960 . S
C4259 H4246 0.961 . S
C4259 H4247 0.959 . S
C4259 C4257 1.561 . S
C4260 C4257 1.526 . S
C4260 C4261 1.396 . S
C4260 C4265 1.390 . S
C4261 C4255 1.465 . S
C4261 C4260 1.396 . S
C4261 C4262 1.399 . S
C4262 H4248 0.929 . S
C4262 C4261 1.399 . S
C4262 C4263 1.385 . S
C4263 H4249 0.931 . S
C4263 C4262 1.385 . S
C4263 C4264 1.389 . S
C4264 C4263 1.389 . S
C4264 C4265 1.387 . S
C4265 H4250 0.930 . S
C4265 C4260 1.390 . S
C4265 C4264 1.387 . S
H4266 C4278 0.930 . S
H4267 C4280 0.930 . S
H4268 C4281 0.930 . S
H4269 C4285 0.959 . S
H4270 C4285 0.959 . S
H4271 C4285 0.961 . S
H4272 C4286 0.960 . S
H4273 C4286 0.961 . S
H4274 C4286 0.959 . S
H4275 C4289 0.929 . S
H4276 C4290 0.931 . S
H4277 C4292 0.930 . S
C4278 H4266 0.930 . S
C4278 C4279 1.399 . S
C4278 C4283 1.399 . S
C4279 C4278 1.399 . S
C4279 C4280 1.376 . S
C4280 H4267 0.930 . S
C4280 C4279 1.376 . S
C4280 C4281 1.388 . S
C4281 H4268 0.930 . S
C4281 C4280 1.388 . S
C4281 C4282 1.390 . S
C4282 C4281 1.390 . S
C4282 C4283 1.394 . S
C4282 C4288 1.465 . S
C4283 C4278 1.399 . S
C4283 C4282 1.394 . S
C4283 C4284 1.516 . S
C4284 C4283 1.516 . S
C4284 C4285 1.502 . S
C4284 C4286 1.561 . S
C4284 C4287 1.526 . S
C4285 H4269 0.959 . S
C4285 H4270 0.959 . S
C4285 H4271 0.961 . S
C4285 C4284 1.502 . S
C4286 H4272 0.960 . S
C4286 H4273 0.961 . S
C4286 H4274 0.959 . S
C4286 C4284 1.561 . S
C4287 C4284 1.526 . S
C4287 C4288 1.396 . S
C4287 C4292 1.390 . S
C4288 C4282 1.465 . S
C4288 C4287 1.396 . S
C4288 C4289 1.399 . S
C4289 H4275 0.929 . S
C4289 C4288 1.399 . S
C4289 C4290 1.385 . S
C4290 H4276 0.931 . S
C4290 C4289 1.385 . S
C4290 C4291 1.389 . S
C4291 C4290 1.389 . S
C4291 C4292 1.387 . S
C4292 H4277 0.930 . S
C4292 C4287 1.390 . S
C4292 C4291 1.387 . S
H4293 C4305 0.930 . S
H4294 C4307 0.930 . S
H4295 C4308 0.930 . S
H4296 C4312 0.959 . S
H4297 C4312 0.959 . S
H4298 C4312 0.961 . S
H4299 C4313 0.960 . S
H4300 C4313 0.961 . S
H4301 C4313 0.959 . S
H4302 C4316 0.929 . S
H4303 C4317 0.931 . S
H4304 C4319 0.930 . S
C4305 H4293 0.930 . S
C4305 C4306 1.399 . S
C4305 C4310 1.399 . S
C4306 C4305 1.399 . S
C4306 C4307 1.376 . S
C4307 H4294 0.930 . S
C4307 C4306 1.376 . S
C4307 C4308 1.388 . S
C4308 H4295 0.930 . S
C4308 C4307 1.388 . S
C4308 C4309 1.390 . S
C4309 C4308 1.390 . S
C4309 C4310 1.394 . S
C4309 C4315 1.465 . S
C4310 C4305 1.399 . S
C4310 C4309 1.394 . S
C4310 C4311 1.516 . S
C4311 C4310 1.516 . S
C4311 C4312 1.502 . S
C4311 C4313 1.561 . S
C4311 C4314 1.526 . S
C4312 H4296 0.959 . S
C4312 H4297 0.959 . S
C4312 H4298 0.961 . S
C4312 C4311 1.502 . S
C4313 H4299 0.960 . S
C4313 H4300 0.961 . S
C4313 H4301 0.959 . S
C4313 C4311 1.561 . S
C4314 C4311 1.526 . S
C4314 C4315 1.396 . S
C4314 C4319 1.390 . S
C4315 C4309 1.465 . S
C4315 C4314 1.396 . S
C4315 C4316 1.399 . S
C4316 H4302 0.929 . S
C4316 C4315 1.399 . S
C4316 C4317 1.385 . S
C4317 H4303 0.931 . S
C4317 C4316 1.385 . S
C4317 C4318 1.389 . S
C4318 C4317 1.389 . S
C4318 C4319 1.387 . S
C4319 H4304 0.930 . S
C4319 C4314 1.390 . S
C4319 C4318 1.387 . S
H4320 C4332 0.930 . S
H4321 C4334 0.930 . S
H4322 C4335 0.930 . S
H4323 C4339 0.959 . S
H4324 C4339 0.959 . S
H4325 C4339 0.961 . S
H4326 C4340 0.960 . S
H4327 C4340 0.961 . S
H4328 C4340 0.959 . S
H4329 C4343 0.929 . S
H4330 C4344 0.931 . S
H4331 C4346 0.930 . S
C4332 H4320 0.930 . S
C4332 C4333 1.399 1_545 S
C4332 C4337 1.399 . S
C4333 C4332 1.399 1_565 S
C4333 C4334 1.376 . S
C4334 H4321 0.930 . S
C4334 C4333 1.376 . S
C4334 C4335 1.388 1_565 S
C4335 H4322 0.930 . S
C4335 C4334 1.388 1_545 S
C4335 C4336 1.390 . S
C4336 C4335 1.390 . S
C4336 C4337 1.394 . S
C4336 C4342 1.465 . S
C4337 C4332 1.399 . S
C4337 C4336 1.394 . S
C4337 C4338 1.516 . S
C4338 C4337 1.516 . S
C4338 C4339 1.502 . S
C4338 C4340 1.561 . S
C4338 C4341 1.526 . S
C4339 H4323 0.959 . S
C4339 H4324 0.959 . S
C4339 H4325 0.961 . S
C4339 C4338 1.502 . S
C4340 H4326 0.960 . S
C4340 H4327 0.961 . S
C4340 H4328 0.959 . S
C4340 C4338 1.561 . S
C4341 C4338 1.526 . S
C4341 C4342 1.396 . S
C4341 C4346 1.390 . S
C4342 C4336 1.465 . S
C4342 C4341 1.396 . S
C4342 C4343 1.399 . S
C4343 H4329 0.929 . S
C4343 C4342 1.399 . S
C4343 C4344 1.385 . S
C4344 H4330 0.931 . S
C4344 C4343 1.385 . S
C4344 C4345 1.389 . S
C4345 C4344 1.389 . S
C4345 C4346 1.387 . S
C4346 H4331 0.930 . S
C4346 C4341 1.390 . S
C4346 C4345 1.387 . S
H4347 C4359 0.930 . S
H4348 C4361 0.930 . S
H4349 C4362 0.930 . S
H4350 C4366 0.959 . S
H4351 C4366 0.959 . S
H4352 C4366 0.961 . S
H4353 C4367 0.960 . S
H4354 C4367 0.961 1_655 S
H4355 C4367 0.959 . S
H4356 C4370 0.929 . S
H4357 C4371 0.931 . S
H4358 C4373 0.930 . S
C4359 H4347 0.930 . S
C4359 C4360 1.399 . S
C4359 C4364 1.399 . S
C4360 C4359 1.399 . S
C4360 C4361 1.376 . S
C4361 H4348 0.930 . S
C4361 C4360 1.376 . S
C4361 C4362 1.388 . S
C4362 H4349 0.930 . S
C4362 C4361 1.388 . S
C4362 C4363 1.390 . S
C4363 C4362 1.390 . S
C4363 C4364 1.394 . S
C4363 C4369 1.465 1_455 S
C4364 C4359 1.399 . S
C4364 C4363 1.394 . S
C4364 C4365 1.516 1_455 S
C4365 C4364 1.516 1_655 S
C4365 C4366 1.502 . S
C4365 C4367 1.561 1_655 S
C4365 C4368 1.526 . S
C4366 H4350 0.959 . S
C4366 H4351 0.959 . S
C4366 H4352 0.961 . S
C4366 C4365 1.502 . S
C4367 H4353 0.960 . S
C4367 H4354 0.961 1_455 S
C4367 H4355 0.959 . S
C4367 C4365 1.561 1_455 S
C4368 C4365 1.526 . S
C4368 C4369 1.396 . S
C4368 C4373 1.390 . S
C4369 C4363 1.465 1_655 S
C4369 C4368 1.396 . S
C4369 C4370 1.399 . S
C4370 H4356 0.929 . S
C4370 C4369 1.399 . S
C4370 C4371 1.385 . S
C4371 H4357 0.931 . S
C4371 C4370 1.385 . S
C4371 C4372 1.389 . S
C4372 C4371 1.389 . S
C4372 C4373 1.387 . S
C4373 H4358 0.930 . S
C4373 C4368 1.390 . S
C4373 C4372 1.387 . S
H4374 C4386 0.930 . S
H4375 C4388 0.930 . S
H4376 C4389 0.930 . S
H4377 C4393 0.959 . S
H4378 C4393 0.959 . S
H4379 C4393 0.961 . S
H4380 C4394 0.960 . S
H4381 C4394 0.961 . S
H4382 C4394 0.959 . S
H4383 C4397 0.929 . S
H4384 C4398 0.931 . S
H4385 C4400 0.930 . S
C4386 H4374 0.930 . S
C4386 C4387 1.399 . S
C4386 C4391 1.399 . S
C4387 C4386 1.399 . S
C4387 C4388 1.376 . S
C4388 H4375 0.930 . S
C4388 C4387 1.376 . S
C4388 C4389 1.388 . S
C4389 H4376 0.930 . S
C4389 C4388 1.388 . S
C4389 C4390 1.390 . S
C4390 C4389 1.390 . S
C4390 C4391 1.394 . S
C4390 C4396 1.465 . S
C4391 C4386 1.399 . S
C4391 C4390 1.394 . S
C4391 C4392 1.516 . S
C4392 C4391 1.516 . S
C4392 C4393 1.502 . S
C4392 C4394 1.561 . S
C4392 C4395 1.526 . S
C4393 H4377 0.959 . S
C4393 H4378 0.959 . S
C4393 H4379 0.961 . S
C4393 C4392 1.502 . S
C4394 H4380 0.960 . S
C4394 H4381 0.961 . S
C4394 H4382 0.959 . S
C4394 C4392 1.561 . S
C4395 C4392 1.526 . S
C4395 C4396 1.396 . S
C4395 C4400 1.390 . S
C4396 C4390 1.465 . S
C4396 C4395 1.396 . S
C4396 C4397 1.399 . S
C4397 H4383 0.929 . S
C4397 C4396 1.399 . S
C4397 C4398 1.385 . S
C4398 H4384 0.931 . S
C4398 C4397 1.385 . S
C4398 C4399 1.389 . S
C4399 C4398 1.389 . S
C4399 C4400 1.387 . S
C4400 H4385 0.930 . S
C4400 C4395 1.390 . S
C4400 C4399 1.387 . S
H4401 C4413 0.930 . S
H4402 C4415 0.930 . S
H4403 C4416 0.930 . S
H4404 C4420 0.959 . S
H4405 C4420 0.959 . S
H4406 C4420 0.961 . S
H4407 C4421 0.960 . S
H4408 C4421 0.961 . S
H4409 C4421 0.959 . S
H4410 C4424 0.929 . S
H4411 C4425 0.931 . S
H4412 C4427 0.930 . S
C4413 H4401 0.930 . S
C4413 C4414 1.399 . S
C4413 C4418 1.399 . S
C4414 C4413 1.399 . S
C4414 C4415 1.376 . S
C4415 H4402 0.930 . S
C4415 C4414 1.376 . S
C4415 C4416 1.388 . S
C4416 H4403 0.930 . S
C4416 C4415 1.388 . S
C4416 C4417 1.390 . S
C4417 C4416 1.390 . S
C4417 C4418 1.394 . S
C4417 C4423 1.465 . S
C4418 C4413 1.399 . S
C4418 C4417 1.394 . S
C4418 C4419 1.516 . S
C4419 C4418 1.516 . S
C4419 C4420 1.502 . S
C4419 C4421 1.561 . S
C4419 C4422 1.526 . S
C4420 H4404 0.959 . S
C4420 H4405 0.959 . S
C4420 H4406 0.961 . S
C4420 C4419 1.502 . S
C4421 H4407 0.960 . S
C4421 H4408 0.961 . S
C4421 H4409 0.959 . S
C4421 C4419 1.561 . S
C4422 C4419 1.526 . S
C4422 C4423 1.396 . S
C4422 C4427 1.390 . S
C4423 C4417 1.465 . S
C4423 C4422 1.396 . S
C4423 C4424 1.399 . S
C4424 H4410 0.929 . S
C4424 C4423 1.399 . S
C4424 C4425 1.385 . S
C4425 H4411 0.931 . S
C4425 C4424 1.385 . S
C4425 C4426 1.389 . S
C4426 C4425 1.389 . S
C4426 C4427 1.387 . S
C4427 H4412 0.930 . S
C4427 C4422 1.390 . S
C4427 C4426 1.387 . S
H4428 C4440 0.930 . S
H4429 C4442 0.930 . S
H4430 C4443 0.930 . S
H4431 C4447 0.959 . S
H4432 C4447 0.959 . S
H4433 C4447 0.961 . S
H4434 C4448 0.960 . S
H4435 C4448 0.961 . S
H4436 C4448 0.959 . S
H4437 C4451 0.929 . S
H4438 C4452 0.931 . S
H4439 C4454 0.930 . S
C4440 H4428 0.930 . S
C4440 C4441 1.399 . S
C4440 C4445 1.399 . S
C4441 C4440 1.399 . S
C4441 C4442 1.376 . S
C4442 H4429 0.930 . S
C4442 C4441 1.376 . S
C4442 C4443 1.388 . S
C4443 H4430 0.930 . S
C4443 C4442 1.388 . S
C4443 C4444 1.390 . S
C4444 C4443 1.390 . S
C4444 C4445 1.394 . S
C4444 C4450 1.465 . S
C4445 C4440 1.399 . S
C4445 C4444 1.394 . S
C4445 C4446 1.516 . S
C4446 C4445 1.516 . S
C4446 C4447 1.502 . S
C4446 C4448 1.561 . S
C4446 C4449 1.526 . S
C4447 H4431 0.959 . S
C4447 H4432 0.959 . S
C4447 H4433 0.961 . S
C4447 C4446 1.502 . S
C4448 H4434 0.960 . S
C4448 H4435 0.961 . S
C4448 H4436 0.959 . S
C4448 C4446 1.561 . S
C4449 C4446 1.526 . S
C4449 C4450 1.396 . S
C4449 C4454 1.390 . S
C4450 C4444 1.465 . S
C4450 C4449 1.396 . S
C4450 C4451 1.399 . S
C4451 H4437 0.929 . S
C4451 C4450 1.399 . S
C4451 C4452 1.385 . S
C4452 H4438 0.931 . S
C4452 C4451 1.385 . S
C4452 C4453 1.389 . S
C4453 C4452 1.389 . S
C4453 C4454 1.387 . S
C4454 H4439 0.930 . S
C4454 C4449 1.390 . S
C4454 C4453 1.387 . S
H4455 C4467 0.930 . S
H4456 C4469 0.930 . S
H4457 C4470 0.930 . S
H4458 C4474 0.959 . S
H4459 C4474 0.959 . S
H4460 C4474 0.961 . S
H4461 C4475 0.960 . S
H4462 C4475 0.961 . S
H4463 C4475 0.959 . S
H4464 C4478 0.929 . S
H4465 C4479 0.931 . S
H4466 C4481 0.930 . S
C4467 H4455 0.930 . S
C4467 C4468 1.399 . S
C4467 C4472 1.399 . S
C4468 C4467 1.399 . S
C4468 C4469 1.376 . S
C4469 H4456 0.930 . S
C4469 C4468 1.376 . S
C4469 C4470 1.388 . S
C4470 H4457 0.930 . S
C4470 C4469 1.388 . S
C4470 C4471 1.390 . S
C4471 C4470 1.390 . S
C4471 C4472 1.394 . S
C4471 C4477 1.465 . S
C4472 C4467 1.399 . S
C4472 C4471 1.394 . S
C4472 C4473 1.516 . S
C4473 C4472 1.516 . S
C4473 C4474 1.502 . S
C4473 C4475 1.561 . S
C4473 C4476 1.526 . S
C4474 H4458 0.959 . S
C4474 H4459 0.959 . S
C4474 H4460 0.961 . S
C4474 C4473 1.502 . S
C4475 H4461 0.960 . S
C4475 H4462 0.961 . S
C4475 H4463 0.959 . S
C4475 C4473 1.561 . S
C4476 C4473 1.526 . S
C4476 C4477 1.396 . S
C4476 C4481 1.390 . S
C4477 C4471 1.465 . S
C4477 C4476 1.396 . S
C4477 C4478 1.399 . S
C4478 H4464 0.929 . S
C4478 C4477 1.399 . S
C4478 C4479 1.385 . S
C4479 H4465 0.931 . S
C4479 C4478 1.385 . S
C4479 C4480 1.389 . S
C4480 C4479 1.389 . S
C4480 C4481 1.387 . S
C4481 H4466 0.930 . S
C4481 C4476 1.390 . S
C4481 C4480 1.387 . S
H4482 C4494 0.930 . S
H4483 C4496 0.930 . S
H4484 C4497 0.930 . S
H4485 C4501 0.959 . S
H4486 C4501 0.959 . S
H4487 C4501 0.961 . S
H4488 C4502 0.960 . S
H4489 C4502 0.961 . S
H4490 C4502 0.959 . S
H4491 C4505 0.929 . S
H4492 C4506 0.931 . S
H4493 C4508 0.930 . S
C4494 H4482 0.930 . S
C4494 C4495 1.399 . S
C4494 C4499 1.399 . S
C4495 C4494 1.399 . S
C4495 C4496 1.376 . S
C4496 H4483 0.930 . S
C4496 C4495 1.376 . S
C4496 C4497 1.388 . S
C4497 H4484 0.930 . S
C4497 C4496 1.388 . S
C4497 C4498 1.390 . S
C4498 C4497 1.390 . S
C4498 C4499 1.394 . S
C4498 C4504 1.465 . S
C4499 C4494 1.399 . S
C4499 C4498 1.394 . S
C4499 C4500 1.516 . S
C4500 C4499 1.516 . S
C4500 C4501 1.502 . S
C4500 C4502 1.561 . S
C4500 C4503 1.526 . S
C4501 H4485 0.959 . S
C4501 H4486 0.959 . S
C4501 H4487 0.961 . S
C4501 C4500 1.502 . S
C4502 H4488 0.960 . S
C4502 H4489 0.961 . S
C4502 H4490 0.959 . S
C4502 C4500 1.561 . S
C4503 C4500 1.526 . S
C4503 C4504 1.396 . S
C4503 C4508 1.390 . S
C4504 C4498 1.465 . S
C4504 C4503 1.396 . S
C4504 C4505 1.399 . S
C4505 H4491 0.929 . S
C4505 C4504 1.399 . S
C4505 C4506 1.385 . S
C4506 H4492 0.931 . S
C4506 C4505 1.385 . S
C4506 C4507 1.389 . S
C4507 C4506 1.389 . S
C4507 C4508 1.387 . S
C4508 H4493 0.930 . S
C4508 C4503 1.390 . S
C4508 C4507 1.387 . S
H4509 C4521 0.930 . S
H4510 C4523 0.930 . S
H4511 C4524 0.930 . S
H4512 C4528 0.959 . S
H4513 C4528 0.959 . S
H4514 C4528 0.961 . S
H4515 C4529 0.960 . S
H4516 C4529 0.961 . S
H4517 C4529 0.959 . S
H4518 C4532 0.929 . S
H4519 C4533 0.931 . S
H4520 C4535 0.930 . S
C4521 H4509 0.930 . S
C4521 C4522 1.399 . S
C4521 C4526 1.399 . S
C4522 C4521 1.399 . S
C4522 C4523 1.376 . S
C4523 H4510 0.930 . S
C4523 C4522 1.376 . S
C4523 C4524 1.388 . S
C4524 H4511 0.930 . S
C4524 C4523 1.388 . S
C4524 C4525 1.390 . S
C4525 C4524 1.390 . S
C4525 C4526 1.394 . S
C4525 C4531 1.465 . S
C4526 C4521 1.399 . S
C4526 C4525 1.394 . S
C4526 C4527 1.516 . S
C4527 C4526 1.516 . S
C4527 C4528 1.502 . S
C4527 C4529 1.561 . S
C4527 C4530 1.526 . S
C4528 H4512 0.959 . S
C4528 H4513 0.959 . S
C4528 H4514 0.961 . S
C4528 C4527 1.502 . S
C4529 H4515 0.960 . S
C4529 H4516 0.961 . S
C4529 H4517 0.959 . S
C4529 C4527 1.561 . S
C4530 C4527 1.526 . S
C4530 C4531 1.396 . S
C4530 C4535 1.390 . S
C4531 C4525 1.465 . S
C4531 C4530 1.396 . S
C4531 C4532 1.399 . S
C4532 H4518 0.929 . S
C4532 C4531 1.399 . S
C4532 C4533 1.385 . S
C4533 H4519 0.931 . S
C4533 C4532 1.385 . S
C4533 C4534 1.389 . S
C4534 C4533 1.389 . S
C4534 C4535 1.387 . S
C4535 H4520 0.930 . S
C4535 C4530 1.390 . S
C4535 C4534 1.387 . S
H4536 C4548 0.930 . S
H4537 C4550 0.930 . S
H4538 C4551 0.930 . S
H4539 C4555 0.959 . S
H4540 C4555 0.959 . S
H4541 C4555 0.961 . S
H4542 C4556 0.960 . S
H4543 C4556 0.961 . S
H4544 C4556 0.959 . S
H4545 C4559 0.929 . S
H4546 C4560 0.931 . S
H4547 C4562 0.930 . S
C4548 H4536 0.930 . S
C4548 C4549 1.399 . S
C4548 C4553 1.399 . S
C4549 C4548 1.399 . S
C4549 C4550 1.376 . S
C4550 H4537 0.930 . S
C4550 C4549 1.376 . S
C4550 C4551 1.388 . S
C4551 H4538 0.930 . S
C4551 C4550 1.388 . S
C4551 C4552 1.390 . S
C4552 C4551 1.390 . S
C4552 C4553 1.394 . S
C4552 C4558 1.465 . S
C4553 C4548 1.399 . S
C4553 C4552 1.394 . S
C4553 C4554 1.516 . S
C4554 C4553 1.516 . S
C4554 C4555 1.502 . S
C4554 C4556 1.561 . S
C4554 C4557 1.526 . S
C4555 H4539 0.959 . S
C4555 H4540 0.959 . S
C4555 H4541 0.961 . S
C4555 C4554 1.502 . S
C4556 H4542 0.960 . S
C4556 H4543 0.961 . S
C4556 H4544 0.959 . S
C4556 C4554 1.561 . S
C4557 C4554 1.526 . S
C4557 C4558 1.396 . S
C4557 C4562 1.390 . S
C4558 C4552 1.465 . S
C4558 C4557 1.396 . S
C4558 C4559 1.399 . S
C4559 H4545 0.929 . S
C4559 C4558 1.399 . S
C4559 C4560 1.385 . S
C4560 H4546 0.931 . S
C4560 C4559 1.385 . S
C4560 C4561 1.389 . S
C4561 C4560 1.389 . S
C4561 C4562 1.387 . S
C4562 H4547 0.930 . S
C4562 C4557 1.390 . S
C4562 C4561 1.387 . S
H4563 C4575 0.930 . S
H4564 C4577 0.930 . S
H4565 C4578 0.930 . S
H4566 C4582 0.959 . S
H4567 C4582 0.959 . S
H4568 C4582 0.961 . S
H4569 C4583 0.960 1_455 S
H4570 C4583 0.961 . S
H4571 C4583 0.959 . S
H4572 C4586 0.929 . S
H4573 C4587 0.931 . S
H4574 C4589 0.930 . S
C4575 H4563 0.930 . S
C4575 C4576 1.399 . S
C4575 C4580 1.399 . S
C4576 C4575 1.399 . S
C4576 C4577 1.376 . S
C4577 H4564 0.930 . S
C4577 C4576 1.376 . S
C4577 C4578 1.388 . S
C4578 H4565 0.930 . S
C4578 C4577 1.388 . S
C4578 C4579 1.390 . S
C4579 C4578 1.390 . S
C4579 C4580 1.394 . S
C4579 C4585 1.465 1_455 S
C4580 C4575 1.399 . S
C4580 C4579 1.394 . S
C4580 C4581 1.516 . S
C4581 C4580 1.516 . S
C4581 C4582 1.502 . S
C4581 C4583 1.561 1_455 S
C4581 C4584 1.526 1_455 S
C4582 H4566 0.959 . S
C4582 H4567 0.959 . S
C4582 H4568 0.961 . S
C4582 C4581 1.502 . S
C4583 H4569 0.960 1_655 S
C4583 H4570 0.961 . S
C4583 H4571 0.959 . S
C4583 C4581 1.561 1_655 S
C4584 C4581 1.526 1_655 S
C4584 C4585 1.396 . S
C4584 C4589 1.390 . S
C4585 C4579 1.465 1_655 S
C4585 C4584 1.396 . S
C4585 C4586 1.399 . S
C4586 H4572 0.929 . S
C4586 C4585 1.399 . S
C4586 C4587 1.385 . S
C4587 H4573 0.931 . S
C4587 C4586 1.385 . S
C4587 C4588 1.389 . S
C4588 C4587 1.389 . S
C4588 C4589 1.387 . S
C4589 H4574 0.930 . S
C4589 C4584 1.390 . S
C4589 C4588 1.387 . S
H4590 C4602 0.930 . S
H4591 C4604 0.930 . S
H4592 C4605 0.930 . S
H4593 C4609 0.959 . S
H4594 C4609 0.959 . S
H4595 C4609 0.961 . S
H4596 C4610 0.960 . S
H4597 C4610 0.961 . S
H4598 C4610 0.959 . S
H4599 C4613 0.929 . S
H4600 C4614 0.931 . S
H4601 C4616 0.930 . S
C4602 H4590 0.930 . S
C4602 C4603 1.399 . S
C4602 C4607 1.399 . S
C4603 C4602 1.399 . S
C4603 C4604 1.376 . S
C4604 H4591 0.930 . S
C4604 C4603 1.376 . S
C4604 C4605 1.388 . S
C4605 H4592 0.930 . S
C4605 C4604 1.388 . S
C4605 C4606 1.390 . S
C4606 C4605 1.390 . S
C4606 C4607 1.394 . S
C4606 C4612 1.465 . S
C4607 C4602 1.399 . S
C4607 C4606 1.394 . S
C4607 C4608 1.516 . S
C4608 C4607 1.516 . S
C4608 C4609 1.502 . S
C4608 C4610 1.561 . S
C4608 C4611 1.526 . S
C4609 H4593 0.959 . S
C4609 H4594 0.959 . S
C4609 H4595 0.961 . S
C4609 C4608 1.502 . S
C4610 H4596 0.960 . S
C4610 H4597 0.961 . S
C4610 H4598 0.959 . S
C4610 C4608 1.561 . S
C4611 C4608 1.526 . S
C4611 C4612 1.396 . S
C4611 C4616 1.390 . S
C4612 C4606 1.465 . S
C4612 C4611 1.396 . S
C4612 C4613 1.399 . S
C4613 H4599 0.929 . S
C4613 C4612 1.399 . S
C4613 C4614 1.385 . S
C4614 H4600 0.931 . S
C4614 C4613 1.385 . S
C4614 C4615 1.389 . S
C4615 C4614 1.389 . S
C4615 C4616 1.387 . S
C4616 H4601 0.930 . S
C4616 C4611 1.390 . S
C4616 C4615 1.387 . S
H4617 C4629 0.930 . S
H4618 C4631 0.930 . S
H4619 C4632 0.930 . S
H4620 C4636 0.959 . S
H4621 C4636 0.959 . S
H4622 C4636 0.961 . S
H4623 C4637 0.960 . S
H4624 C4637 0.961 . S
H4625 C4637 0.959 . S
H4626 C4640 0.929 . S
H4627 C4641 0.931 . S
H4628 C4643 0.930 . S
C4629 H4617 0.930 . S
C4629 C4630 1.399 1_545 S
C4629 C4634 1.399 . S
C4630 C4629 1.399 1_565 S
C4630 C4631 1.376 . S
C4631 H4618 0.930 . S
C4631 C4630 1.376 . S
C4631 C4632 1.388 1_565 S
C4632 H4619 0.930 . S
C4632 C4631 1.388 1_545 S
C4632 C4633 1.390 . S
C4633 C4632 1.390 . S
C4633 C4634 1.394 . S
C4633 C4639 1.465 . S
C4634 C4629 1.399 . S
C4634 C4633 1.394 . S
C4634 C4635 1.516 . S
C4635 C4634 1.516 . S
C4635 C4636 1.502 . S
C4635 C4637 1.561 . S
C4635 C4638 1.526 . S
C4636 H4620 0.959 . S
C4636 H4621 0.959 . S
C4636 H4622 0.961 . S
C4636 C4635 1.502 . S
C4637 H4623 0.960 . S
C4637 H4624 0.961 . S
C4637 H4625 0.959 . S
C4637 C4635 1.561 . S
C4638 C4635 1.526 . S
C4638 C4639 1.396 . S
C4638 C4643 1.390 . S
C4639 C4633 1.465 . S
C4639 C4638 1.396 . S
C4639 C4640 1.399 . S
C4640 H4626 0.929 . S
C4640 C4639 1.399 . S
C4640 C4641 1.385 . S
C4641 H4627 0.931 . S
C4641 C4640 1.385 . S
C4641 C4642 1.389 . S
C4642 C4641 1.389 . S
C4642 C4643 1.387 . S
C4643 H4628 0.930 . S
C4643 C4638 1.390 . S
C4643 C4642 1.387 . S
H4644 C4656 0.930 . S
H4645 C4658 0.930 . S
H4646 C4659 0.930 . S
H4647 C4663 0.959 . S
H4648 C4663 0.959 . S
H4649 C4663 0.961 . S
H4650 C4664 0.960 . S
H4651 C4664 0.961 . S
H4652 C4664 0.959 . S
H4653 C4667 0.929 . S
H4654 C4668 0.931 . S
H4655 C4670 0.930 . S
C4656 H4644 0.930 . S
C4656 C4657 1.399 . S
C4656 C4661 1.399 . S
C4657 C4656 1.399 . S
C4657 C4658 1.376 . S
C4658 H4645 0.930 . S
C4658 C4657 1.376 . S
C4658 C4659 1.388 . S
C4659 H4646 0.930 . S
C4659 C4658 1.388 . S
C4659 C4660 1.390 . S
C4660 C4659 1.390 . S
C4660 C4661 1.394 . S
C4660 C4666 1.465 . S
C4661 C4656 1.399 . S
C4661 C4660 1.394 . S
C4661 C4662 1.516 . S
C4662 C4661 1.516 . S
C4662 C4663 1.502 . S
C4662 C4664 1.561 . S
C4662 C4665 1.526 . S
C4663 H4647 0.959 . S
C4663 H4648 0.959 . S
C4663 H4649 0.961 . S
C4663 C4662 1.502 . S
C4664 H4650 0.960 . S
C4664 H4651 0.961 . S
C4664 H4652 0.959 . S
C4664 C4662 1.561 . S
C4665 C4662 1.526 . S
C4665 C4666 1.396 . S
C4665 C4670 1.390 . S
C4666 C4660 1.465 . S
C4666 C4665 1.396 . S
C4666 C4667 1.399 . S
C4667 H4653 0.929 . S
C4667 C4666 1.399 . S
C4667 C4668 1.385 . S
C4668 H4654 0.931 . S
C4668 C4667 1.385 . S
C4668 C4669 1.389 . S
C4669 C4668 1.389 . S
C4669 C4670 1.387 . S
C4670 H4655 0.930 . S
C4670 C4665 1.390 . S
C4670 C4669 1.387 . S
H4671 C4683 0.930 . S
H4672 C4685 0.930 . S
H4673 C4686 0.930 . S
H4674 C4690 0.959 . S
H4675 C4690 0.959 . S
H4676 C4690 0.961 . S
H4677 C4691 0.960 . S
H4678 C4691 0.961 . S
H4679 C4691 0.959 . S
H4680 C4694 0.929 . S
H4681 C4695 0.931 . S
H4682 C4697 0.930 . S
C4683 H4671 0.930 . S
C4683 C4684 1.399 . S
C4683 C4688 1.399 . S
C4684 C4683 1.399 . S
C4684 C4685 1.376 . S
C4685 H4672 0.930 . S
C4685 C4684 1.376 . S
C4685 C4686 1.388 . S
C4686 H4673 0.930 . S
C4686 C4685 1.388 . S
C4686 C4687 1.390 . S
C4687 C4686 1.390 . S
C4687 C4688 1.394 . S
C4687 C4693 1.465 . S
C4688 C4683 1.399 . S
C4688 C4687 1.394 . S
C4688 C4689 1.516 . S
C4689 C4688 1.516 . S
C4689 C4690 1.502 . S
C4689 C4691 1.561 . S
C4689 C4692 1.526 . S
C4690 H4674 0.959 . S
C4690 H4675 0.959 . S
C4690 H4676 0.961 . S
C4690 C4689 1.502 . S
C4691 H4677 0.960 . S
C4691 H4678 0.961 . S
C4691 H4679 0.959 . S
C4691 C4689 1.561 . S
C4692 C4689 1.526 . S
C4692 C4693 1.396 . S
C4692 C4697 1.390 . S
C4693 C4687 1.465 . S
C4693 C4692 1.396 . S
C4693 C4694 1.399 . S
C4694 H4680 0.929 . S
C4694 C4693 1.399 . S
C4694 C4695 1.385 . S
C4695 H4681 0.931 . S
C4695 C4694 1.385 . S
C4695 C4696 1.389 . S
C4696 C4695 1.389 . S
C4696 C4697 1.387 . S
C4697 H4682 0.930 . S
C4697 C4692 1.390 . S
C4697 C4696 1.387 . S
H4698 C4710 0.930 . S
H4699 C4712 0.930 . S
H4700 C4713 0.930 . S
H4701 C4717 0.959 . S
H4702 C4717 0.959 . S
H4703 C4717 0.961 . S
H4704 C4718 0.960 . S
H4705 C4718 0.961 . S
H4706 C4718 0.959 . S
H4707 C4721 0.929 . S
H4708 C4722 0.931 . S
H4709 C4724 0.930 . S
C4710 H4698 0.930 . S
C4710 C4711 1.399 . S
C4710 C4715 1.399 . S
C4711 C4710 1.399 . S
C4711 C4712 1.376 . S
C4712 H4699 0.930 . S
C4712 C4711 1.376 . S
C4712 C4713 1.388 . S
C4713 H4700 0.930 . S
C4713 C4712 1.388 . S
C4713 C4714 1.390 . S
C4714 C4713 1.390 . S
C4714 C4715 1.394 . S
C4714 C4720 1.465 . S
C4715 C4710 1.399 . S
C4715 C4714 1.394 . S
C4715 C4716 1.516 . S
C4716 C4715 1.516 . S
C4716 C4717 1.502 . S
C4716 C4718 1.561 . S
C4716 C4719 1.526 . S
C4717 H4701 0.959 . S
C4717 H4702 0.959 . S
C4717 H4703 0.961 . S
C4717 C4716 1.502 . S
C4718 H4704 0.960 . S
C4718 H4705 0.961 . S
C4718 H4706 0.959 . S
C4718 C4716 1.561 . S
C4719 C4716 1.526 . S
C4719 C4720 1.396 . S
C4719 C4724 1.390 . S
C4720 C4714 1.465 . S
C4720 C4719 1.396 . S
C4720 C4721 1.399 . S
C4721 H4707 0.929 . S
C4721 C4720 1.399 . S
C4721 C4722 1.385 . S
C4722 H4708 0.931 . S
C4722 C4721 1.385 . S
C4722 C4723 1.389 . S
C4723 C4722 1.389 . S
C4723 C4724 1.387 . S
C4724 H4709 0.930 . S
C4724 C4719 1.390 . S
C4724 C4723 1.387 . S
H4725 C4737 0.930 . S
H4726 C4739 0.930 . S
H4727 C4740 0.930 . S
H4728 C4744 0.959 . S
H4729 C4744 0.959 . S
H4730 C4744 0.961 . S
H4731 C4745 0.960 . S
H4732 C4745 0.961 . S
H4733 C4745 0.959 . S
H4734 C4748 0.929 . S
H4735 C4749 0.931 . S
H4736 C4751 0.930 1_655 S
C4737 H4725 0.930 . S
C4737 C4738 1.399 . S
C4737 C4742 1.399 . S
C4738 C4737 1.399 . S
C4738 C4739 1.376 . S
C4739 H4726 0.930 . S
C4739 C4738 1.376 . S
C4739 C4740 1.388 . S
C4740 H4727 0.930 . S
C4740 C4739 1.388 . S
C4740 C4741 1.390 . S
C4741 C4740 1.390 . S
C4741 C4742 1.394 . S
C4741 C4747 1.465 . S
C4742 C4737 1.399 . S
C4742 C4741 1.394 . S
C4742 C4743 1.516 . S
C4743 C4742 1.516 . S
C4743 C4744 1.502 . S
C4743 C4745 1.561 . S
C4743 C4746 1.526 . S
C4744 H4728 0.959 . S
C4744 H4729 0.959 . S
C4744 H4730 0.961 . S
C4744 C4743 1.502 . S
C4745 H4731 0.960 . S
C4745 H4732 0.961 . S
C4745 H4733 0.959 . S
C4745 C4743 1.561 . S
C4746 C4743 1.526 . S
C4746 C4747 1.396 . S
C4746 C4751 1.390 . S
C4747 C4741 1.465 . S
C4747 C4746 1.396 . S
C4747 C4748 1.399 . S
C4748 H4734 0.929 . S
C4748 C4747 1.399 . S
C4748 C4749 1.385 . S
C4749 H4735 0.931 . S
C4749 C4748 1.385 . S
C4749 C4750 1.389 1_455 S
C4750 C4749 1.389 1_655 S
C4750 C4751 1.387 1_655 S
C4751 H4736 0.930 1_455 S
C4751 C4746 1.390 . S
C4751 C4750 1.387 1_455 S
H4752 C4764 0.930 . S
H4753 C4766 0.930 . S
H4754 C4767 0.930 . S
H4755 C4771 0.959 . S
H4756 C4771 0.959 . S
H4757 C4771 0.961 . S
H4758 C4772 0.960 . S
H4759 C4772 0.961 . S
H4760 C4772 0.959 . S
H4761 C4775 0.929 . S
H4762 C4776 0.931 . S
H4763 C4778 0.930 . S
C4764 H4752 0.930 . S
C4764 C4765 1.399 . S
C4764 C4769 1.399 . S
C4765 C4764 1.399 . S
C4765 C4766 1.376 . S
C4766 H4753 0.930 . S
C4766 C4765 1.376 . S
C4766 C4767 1.388 . S
C4767 H4754 0.930 . S
C4767 C4766 1.388 . S
C4767 C4768 1.390 . S
C4768 C4767 1.390 . S
C4768 C4769 1.394 . S
C4768 C4774 1.465 . S
C4769 C4764 1.399 . S
C4769 C4768 1.394 . S
C4769 C4770 1.516 . S
C4770 C4769 1.516 . S
C4770 C4771 1.502 . S
C4770 C4772 1.561 . S
C4770 C4773 1.526 . S
C4771 H4755 0.959 . S
C4771 H4756 0.959 . S
C4771 H4757 0.961 . S
C4771 C4770 1.502 . S
C4772 H4758 0.960 . S
C4772 H4759 0.961 . S
C4772 H4760 0.959 . S
C4772 C4770 1.561 . S
C4773 C4770 1.526 . S
C4773 C4774 1.396 . S
C4773 C4778 1.390 . S
C4774 C4768 1.465 . S
C4774 C4773 1.396 . S
C4774 C4775 1.399 . S
C4775 H4761 0.929 . S
C4775 C4774 1.399 . S
C4775 C4776 1.385 . S
C4776 H4762 0.931 . S
C4776 C4775 1.385 . S
C4776 C4777 1.389 . S
C4777 C4776 1.389 . S
C4777 C4778 1.387 . S
C4778 H4763 0.930 . S
C4778 C4773 1.390 . S
C4778 C4777 1.387 . S
H4779 C4791 0.930 . S
H4780 C4793 0.930 . S
H4781 C4794 0.930 . S
H4782 C4798 0.959 . S
H4783 C4798 0.959 1_565 S
H4784 C4798 0.961 . S
H4785 C4799 0.960 . S
H4786 C4799 0.961 . S
H4787 C4799 0.959 . S
H4788 C4802 0.929 . S
H4789 C4803 0.931 . S
H4790 C4805 0.930 . S
C4791 H4779 0.930 . S
C4791 C4792 1.399 . S
C4791 C4796 1.399 . S
C4792 C4791 1.399 . S
C4792 C4793 1.376 . S
C4793 H4780 0.930 . S
C4793 C4792 1.376 . S
C4793 C4794 1.388 . S
C4794 H4781 0.930 . S
C4794 C4793 1.388 . S
C4794 C4795 1.390 . S
C4795 C4794 1.390 . S
C4795 C4796 1.394 . S
C4795 C4801 1.465 1_545 S
C4796 C4791 1.399 . S
C4796 C4795 1.394 . S
C4796 C4797 1.516 1_545 S
C4797 C4796 1.516 1_565 S
C4797 C4798 1.502 1_565 S
C4797 C4799 1.561 . S
C4797 C4800 1.526 . S
C4798 H4782 0.959 . S
C4798 H4783 0.959 1_545 S
C4798 H4784 0.961 . S
C4798 C4797 1.502 1_545 S
C4799 H4785 0.960 . S
C4799 H4786 0.961 . S
C4799 H4787 0.959 . S
C4799 C4797 1.561 . S
C4800 C4797 1.526 . S
C4800 C4801 1.396 . S
C4800 C4805 1.390 . S
C4801 C4795 1.465 1_565 S
C4801 C4800 1.396 . S
C4801 C4802 1.399 . S
C4802 H4788 0.929 . S
C4802 C4801 1.399 . S
C4802 C4803 1.385 . S
C4803 H4789 0.931 . S
C4803 C4802 1.385 . S
C4803 C4804 1.389 . S
C4804 C4803 1.389 . S
C4804 C4805 1.387 . S
C4805 H4790 0.930 . S
C4805 C4800 1.390 . S
C4805 C4804 1.387 . S
H4806 C4818 0.930 . S
H4807 C4820 0.930 . S
H4808 C4821 0.930 . S
H4809 C4825 0.959 . S
H4810 C4825 0.959 . S
H4811 C4825 0.961 . S
H4812 C4826 0.960 1_565 S
H4813 C4826 0.961 . S
H4814 C4826 0.959 . S
H4815 C4829 0.929 . S
H4816 C4830 0.931 . S
H4817 C4832 0.930 . S
C4818 H4806 0.930 . S
C4818 C4819 1.399 . S
C4818 C4823 1.399 . S
C4819 C4818 1.399 . S
C4819 C4820 1.376 . S
C4820 H4807 0.930 . S
C4820 C4819 1.376 . S
C4820 C4821 1.388 . S
C4821 H4808 0.930 . S
C4821 C4820 1.388 . S
C4821 C4822 1.390 . S
C4822 C4821 1.390 . S
C4822 C4823 1.394 . S
C4822 C4828 1.465 1_565 S
C4823 C4818 1.399 . S
C4823 C4822 1.394 . S
C4823 C4824 1.516 . S
C4824 C4823 1.516 . S
C4824 C4825 1.502 . S
C4824 C4826 1.561 1_565 S
C4824 C4827 1.526 1_565 S
C4825 H4809 0.959 . S
C4825 H4810 0.959 . S
C4825 H4811 0.961 . S
C4825 C4824 1.502 . S
C4826 H4812 0.960 1_545 S
C4826 H4813 0.961 . S
C4826 H4814 0.959 . S
C4826 C4824 1.561 1_545 S
C4827 C4824 1.526 1_545 S
C4827 C4828 1.396 . S
C4827 C4832 1.390 . S
C4828 C4822 1.465 1_545 S
C4828 C4827 1.396 . S
C4828 C4829 1.399 . S
C4829 H4815 0.929 . S
C4829 C4828 1.399 . S
C4829 C4830 1.385 . S
C4830 H4816 0.931 . S
C4830 C4829 1.385 . S
C4830 C4831 1.389 . S
C4831 C4830 1.389 . S
C4831 C4832 1.387 . S
C4832 H4817 0.930 . S
C4832 C4827 1.390 . S
C4832 C4831 1.387 . S
H4833 C4845 0.930 . S
H4834 C4847 0.930 . S
H4835 C4848 0.930 . S
H4836 C4852 0.959 . S
H4837 C4852 0.959 . S
H4838 C4852 0.961 . S
H4839 C4853 0.960 . S
H4840 C4853 0.961 . S
H4841 C4853 0.959 . S
H4842 C4856 0.929 . S
H4843 C4857 0.931 . S
H4844 C4859 0.930 . S
C4845 H4833 0.930 . S
C4845 C4846 1.399 . S
C4845 C4850 1.399 . S
C4846 C4845 1.399 . S
C4846 C4847 1.376 . S
C4847 H4834 0.930 . S
C4847 C4846 1.376 . S
C4847 C4848 1.388 . S
C4848 H4835 0.930 . S
C4848 C4847 1.388 . S
C4848 C4849 1.390 . S
C4849 C4848 1.390 . S
C4849 C4850 1.394 . S
C4849 C4855 1.465 . S
C4850 C4845 1.399 . S
C4850 C4849 1.394 . S
C4850 C4851 1.516 . S
C4851 C4850 1.516 . S
C4851 C4852 1.502 . S
C4851 C4853 1.561 . S
C4851 C4854 1.526 . S
C4852 H4836 0.959 . S
C4852 H4837 0.959 . S
C4852 H4838 0.961 . S
C4852 C4851 1.502 . S
C4853 H4839 0.960 . S
C4853 H4840 0.961 . S
C4853 H4841 0.959 . S
C4853 C4851 1.561 . S
C4854 C4851 1.526 . S
C4854 C4855 1.396 . S
C4854 C4859 1.390 . S
C4855 C4849 1.465 . S
C4855 C4854 1.396 . S
C4855 C4856 1.399 . S
C4856 H4842 0.929 . S
C4856 C4855 1.399 . S
C4856 C4857 1.385 1_455 S
C4857 H4843 0.931 . S
C4857 C4856 1.385 1_655 S
C4857 C4858 1.389 . S
C4858 C4857 1.389 . S
C4858 C4859 1.387 1_655 S
C4859 H4844 0.930 . S
C4859 C4854 1.390 . S
C4859 C4858 1.387 1_455 S
H4860 C4872 0.930 . S
H4861 C4874 0.930 . S
H4862 C4875 0.930 . S
H4863 C4879 0.959 . S
H4864 C4879 0.959 . S
H4865 C4879 0.961 . S
H4866 C4880 0.960 . S
H4867 C4880 0.961 . S
H4868 C4880 0.959 . S
H4869 C4883 0.929 . S
H4870 C4884 0.931 . S
H4871 C4886 0.930 . S
C4872 H4860 0.930 . S
C4872 C4873 1.399 . S
C4872 C4877 1.399 . S
C4873 C4872 1.399 . S
C4873 C4874 1.376 . S
C4874 H4861 0.930 . S
C4874 C4873 1.376 . S
C4874 C4875 1.388 . S
C4875 H4862 0.930 . S
C4875 C4874 1.388 . S
C4875 C4876 1.390 . S
C4876 C4875 1.390 . S
C4876 C4877 1.394 . S
C4876 C4882 1.465 . S
C4877 C4872 1.399 . S
C4877 C4876 1.394 . S
C4877 C4878 1.516 . S
C4878 C4877 1.516 . S
C4878 C4879 1.502 . S
C4878 C4880 1.561 . S
C4878 C4881 1.526 . S
C4879 H4863 0.959 . S
C4879 H4864 0.959 . S
C4879 H4865 0.961 . S
C4879 C4878 1.502 . S
C4880 H4866 0.960 . S
C4880 H4867 0.961 . S
C4880 H4868 0.959 . S
C4880 C4878 1.561 . S
C4881 C4878 1.526 . S
C4881 C4882 1.396 . S
C4881 C4886 1.390 . S
C4882 C4876 1.465 . S
C4882 C4881 1.396 . S
C4882 C4883 1.399 . S
C4883 H4869 0.929 . S
C4883 C4882 1.399 . S
C4883 C4884 1.385 . S
C4884 H4870 0.931 . S
C4884 C4883 1.385 . S
C4884 C4885 1.389 . S
C4885 C4884 1.389 . S
C4885 C4886 1.387 . S
C4886 H4871 0.930 . S
C4886 C4881 1.390 . S
C4886 C4885 1.387 . S
H4887 C4899 0.930 . S
H4888 C4901 0.930 . S
H4889 C4902 0.930 . S
H4890 C4906 0.959 . S
H4891 C4906 0.959 . S
H4892 C4906 0.961 . S
H4893 C4907 0.960 . S
H4894 C4907 0.961 . S
H4895 C4907 0.959 . S
H4896 C4910 0.929 . S
H4897 C4911 0.931 . S
H4898 C4913 0.930 . S
C4899 H4887 0.930 . S
C4899 C4900 1.399 . S
C4899 C4904 1.399 . S
C4900 C4899 1.399 . S
C4900 C4901 1.376 . S
C4901 H4888 0.930 . S
C4901 C4900 1.376 . S
C4901 C4902 1.388 . S
C4902 H4889 0.930 . S
C4902 C4901 1.388 . S
C4902 C4903 1.390 . S
C4903 C4902 1.390 . S
C4903 C4904 1.394 . S
C4903 C4909 1.465 . S
C4904 C4899 1.399 . S
C4904 C4903 1.394 . S
C4904 C4905 1.516 . S
C4905 C4904 1.516 . S
C4905 C4906 1.502 . S
C4905 C4907 1.561 . S
C4905 C4908 1.526 . S
C4906 H4890 0.959 . S
C4906 H4891 0.959 . S
C4906 H4892 0.961 . S
C4906 C4905 1.502 . S
C4907 H4893 0.960 . S
C4907 H4894 0.961 . S
C4907 H4895 0.959 . S
C4907 C4905 1.561 . S
C4908 C4905 1.526 . S
C4908 C4909 1.396 . S
C4908 C4913 1.390 . S
C4909 C4903 1.465 . S
C4909 C4908 1.396 . S
C4909 C4910 1.399 . S
C4910 H4896 0.929 . S
C4910 C4909 1.399 . S
C4910 C4911 1.385 . S
C4911 H4897 0.931 . S
C4911 C4910 1.385 . S
C4911 C4912 1.389 . S
C4912 C4911 1.389 . S
C4912 C4913 1.387 . S
C4913 H4898 0.930 . S
C4913 C4908 1.390 . S
C4913 C4912 1.387 . S
H4914 C4926 0.930 . S
H4915 C4928 0.930 . S
H4916 C4929 0.930 . S
H4917 C4933 0.959 . S
H4918 C4933 0.959 . S
H4919 C4933 0.961 . S
H4920 C4934 0.960 . S
H4921 C4934 0.961 . S
H4922 C4934 0.959 . S
H4923 C4937 0.929 . S
H4924 C4938 0.931 . S
H4925 C4940 0.930 . S
C4926 H4914 0.930 . S
C4926 C4927 1.399 . S
C4926 C4931 1.399 . S
C4927 C4926 1.399 . S
C4927 C4928 1.376 . S
C4928 H4915 0.930 . S
C4928 C4927 1.376 . S
C4928 C4929 1.388 . S
C4929 H4916 0.930 . S
C4929 C4928 1.388 . S
C4929 C4930 1.390 . S
C4930 C4929 1.390 . S
C4930 C4931 1.394 . S
C4930 C4936 1.465 . S
C4931 C4926 1.399 . S
C4931 C4930 1.394 . S
C4931 C4932 1.516 . S
C4932 C4931 1.516 . S
C4932 C4933 1.502 . S
C4932 C4934 1.561 . S
C4932 C4935 1.526 . S
C4933 H4917 0.959 . S
C4933 H4918 0.959 . S
C4933 H4919 0.961 . S
C4933 C4932 1.502 . S
C4934 H4920 0.960 . S
C4934 H4921 0.961 . S
C4934 H4922 0.959 . S
C4934 C4932 1.561 . S
C4935 C4932 1.526 . S
C4935 C4936 1.396 . S
C4935 C4940 1.390 . S
C4936 C4930 1.465 . S
C4936 C4935 1.396 . S
C4936 C4937 1.399 . S
C4937 H4923 0.929 . S
C4937 C4936 1.399 . S
C4937 C4938 1.385 . S
C4938 H4924 0.931 . S
C4938 C4937 1.385 . S
C4938 C4939 1.389 . S
C4939 C4938 1.389 . S
C4939 C4940 1.387 . S
C4940 H4925 0.930 . S
C4940 C4935 1.390 . S
C4940 C4939 1.387 . S
H4941 C4953 0.930 . S
H4942 C4955 0.930 . S
H4943 C4956 0.930 . S
H4944 C4960 0.959 . S
H4945 C4960 0.959 . S
H4946 C4960 0.961 . S
H4947 C4961 0.960 . S
H4948 C4961 0.961 . S
H4949 C4961 0.959 . S
H4950 C4964 0.929 . S
H4951 C4965 0.931 . S
H4952 C4967 0.930 . S
C4953 H4941 0.930 . S
C4953 C4954 1.399 . S
C4953 C4958 1.399 . S
C4954 C4953 1.399 . S
C4954 C4955 1.376 . S
C4955 H4942 0.930 . S
C4955 C4954 1.376 . S
C4955 C4956 1.388 . S
C4956 H4943 0.930 . S
C4956 C4955 1.388 . S
C4956 C4957 1.390 . S
C4957 C4956 1.390 . S
C4957 C4958 1.394 . S
C4957 C4963 1.465 . S
C4958 C4953 1.399 . S
C4958 C4957 1.394 . S
C4958 C4959 1.516 . S
C4959 C4958 1.516 . S
C4959 C4960 1.502 . S
C4959 C4961 1.561 . S
C4959 C4962 1.526 . S
C4960 H4944 0.959 . S
C4960 H4945 0.959 . S
C4960 H4946 0.961 . S
C4960 C4959 1.502 . S
C4961 H4947 0.960 . S
C4961 H4948 0.961 . S
C4961 H4949 0.959 . S
C4961 C4959 1.561 . S
C4962 C4959 1.526 . S
C4962 C4963 1.396 . S
C4962 C4967 1.390 . S
C4963 C4957 1.465 . S
C4963 C4962 1.396 . S
C4963 C4964 1.399 . S
C4964 H4950 0.929 . S
C4964 C4963 1.399 . S
C4964 C4965 1.385 . S
C4965 H4951 0.931 . S
C4965 C4964 1.385 . S
C4965 C4966 1.389 . S
C4966 C4965 1.389 . S
C4966 C4967 1.387 . S
C4967 H4952 0.930 . S
C4967 C4962 1.390 . S
C4967 C4966 1.387 . S
H4968 C4980 0.930 . S
H4969 C4982 0.930 . S
H4970 C4983 0.930 . S
H4971 C4987 0.959 . S
H4972 C4987 0.959 . S
H4973 C4987 0.961 . S
H4974 C4988 0.960 . S
H4975 C4988 0.961 . S
H4976 C4988 0.959 . S
H4977 C4991 0.929 . S
H4978 C4992 0.931 . S
H4979 C4994 0.930 . S
C4980 H4968 0.930 . S
C4980 C4981 1.399 . S
C4980 C4985 1.399 . S
C4981 C4980 1.399 . S
C4981 C4982 1.376 . S
C4982 H4969 0.930 . S
C4982 C4981 1.376 . S
C4982 C4983 1.388 . S
C4983 H4970 0.930 . S
C4983 C4982 1.388 . S
C4983 C4984 1.390 . S
C4984 C4983 1.390 . S
C4984 C4985 1.394 . S
C4984 C4990 1.465 . S
C4985 C4980 1.399 . S
C4985 C4984 1.394 . S
C4985 C4986 1.516 . S
C4986 C4985 1.516 . S
C4986 C4987 1.502 . S
C4986 C4988 1.561 . S
C4986 C4989 1.526 . S
C4987 H4971 0.959 . S
C4987 H4972 0.959 . S
C4987 H4973 0.961 . S
C4987 C4986 1.502 . S
C4988 H4974 0.960 . S
C4988 H4975 0.961 . S
C4988 H4976 0.959 . S
C4988 C4986 1.561 . S
C4989 C4986 1.526 . S
C4989 C4990 1.396 . S
C4989 C4994 1.390 . S
C4990 C4984 1.465 . S
C4990 C4989 1.396 . S
C4990 C4991 1.399 . S
C4991 H4977 0.929 . S
C4991 C4990 1.399 . S
C4991 C4992 1.385 . S
C4992 H4978 0.931 . S
C4992 C4991 1.385 . S
C4992 C4993 1.389 . S
C4993 C4992 1.389 . S
C4993 C4994 1.387 . S
C4994 H4979 0.930 . S
C4994 C4989 1.390 . S
C4994 C4993 1.387 . S
H4995 C5007 0.930 . S
H4996 C5009 0.930 . S
H4997 C5010 0.930 . S
H4998 C5014 0.959 . S
H4999 C5014 0.959 . S
H5000 C5014 0.961 . S
H5001 C5015 0.960 . S
H5002 C5015 0.961 . S
H5003 C5015 0.959 . S
H5004 C5018 0.929 . S
H5005 C5019 0.931 . S
H5006 C5021 0.930 . S
C5007 H4995 0.930 . S
C5007 C5008 1.399 . S
C5007 C5012 1.399 . S
C5008 C5007 1.399 . S
C5008 C5009 1.376 . S
C5009 H4996 0.930 . S
C5009 C5008 1.376 . S
C5009 C5010 1.388 . S
C5010 H4997 0.930 . S
C5010 C5009 1.388 . S
C5010 C5011 1.390 . S
C5011 C5010 1.390 . S
C5011 C5012 1.394 . S
C5011 C5017 1.465 . S
C5012 C5007 1.399 . S
C5012 C5011 1.394 . S
C5012 C5013 1.516 . S
C5013 C5012 1.516 . S
C5013 C5014 1.502 . S
C5013 C5015 1.561 . S
C5013 C5016 1.526 . S
C5014 H4998 0.959 . S
C5014 H4999 0.959 . S
C5014 H5000 0.961 . S
C5014 C5013 1.502 . S
C5015 H5001 0.960 . S
C5015 H5002 0.961 . S
C5015 H5003 0.959 . S
C5015 C5013 1.561 . S
C5016 C5013 1.526 . S
C5016 C5017 1.396 . S
C5016 C5021 1.390 . S
C5017 C5011 1.465 . S
C5017 C5016 1.396 . S
C5017 C5018 1.399 . S
C5018 H5004 0.929 . S
C5018 C5017 1.399 . S
C5018 C5019 1.385 . S
C5019 H5005 0.931 . S
C5019 C5018 1.385 . S
C5019 C5020 1.389 . S
C5020 C5019 1.389 . S
C5020 C5021 1.387 . S
C5021 H5006 0.930 . S
C5021 C5016 1.390 . S
C5021 C5020 1.387 . S
H5022 C5034 0.930 . S
H5023 C5036 0.930 . S
H5024 C5037 0.930 . S
H5025 C5041 0.959 . S
H5026 C5041 0.959 . S
H5027 C5041 0.961 . S
H5028 C5042 0.960 . S
H5029 C5042 0.961 . S
H5030 C5042 0.959 . S
H5031 C5045 0.929 . S
H5032 C5046 0.931 . S
H5033 C5048 0.930 . S
C5034 H5022 0.930 . S
C5034 C5035 1.399 . S
C5034 C5039 1.399 . S
C5035 C5034 1.399 . S
C5035 C5036 1.376 . S
C5036 H5023 0.930 . S
C5036 C5035 1.376 . S
C5036 C5037 1.388 . S
C5037 H5024 0.930 . S
C5037 C5036 1.388 . S
C5037 C5038 1.390 . S
C5038 C5037 1.390 . S
C5038 C5039 1.394 . S
C5038 C5044 1.465 . S
C5039 C5034 1.399 . S
C5039 C5038 1.394 . S
C5039 C5040 1.516 . S
C5040 C5039 1.516 . S
C5040 C5041 1.502 . S
C5040 C5042 1.561 . S
C5040 C5043 1.526 . S
C5041 H5025 0.959 . S
C5041 H5026 0.959 . S
C5041 H5027 0.961 . S
C5041 C5040 1.502 . S
C5042 H5028 0.960 . S
C5042 H5029 0.961 . S
C5042 H5030 0.959 . S
C5042 C5040 1.561 . S
C5043 C5040 1.526 . S
C5043 C5044 1.396 . S
C5043 C5048 1.390 . S
C5044 C5038 1.465 . S
C5044 C5043 1.396 . S
C5044 C5045 1.399 . S
C5045 H5031 0.929 . S
C5045 C5044 1.399 . S
C5045 C5046 1.385 . S
C5046 H5032 0.931 . S
C5046 C5045 1.385 . S
C5046 C5047 1.389 . S
C5047 C5046 1.389 . S
C5047 C5048 1.387 . S
C5048 H5033 0.930 . S
C5048 C5043 1.390 . S
C5048 C5047 1.387 . S
H5049 C5061 0.930 . S
H5050 C5063 0.930 . S
H5051 C5064 0.930 . S
H5052 C5068 0.959 . S
H5053 C5068 0.959 . S
H5054 C5068 0.961 . S
H5055 C5069 0.960 . S
H5056 C5069 0.961 . S
H5057 C5069 0.959 . S
H5058 C5072 0.929 . S
H5059 C5073 0.931 . S
H5060 C5075 0.930 . S
C5061 H5049 0.930 . S
C5061 C5062 1.399 . S
C5061 C5066 1.399 . S
C5062 C5061 1.399 . S
C5062 C5063 1.376 . S
C5063 H5050 0.930 . S
C5063 C5062 1.376 . S
C5063 C5064 1.388 . S
C5064 H5051 0.930 . S
C5064 C5063 1.388 . S
C5064 C5065 1.390 . S
C5065 C5064 1.390 . S
C5065 C5066 1.394 . S
C5065 C5071 1.465 . S
C5066 C5061 1.399 . S
C5066 C5065 1.394 . S
C5066 C5067 1.516 . S
C5067 C5066 1.516 . S
C5067 C5068 1.502 . S
C5067 C5069 1.561 . S
C5067 C5070 1.526 . S
C5068 H5052 0.959 . S
C5068 H5053 0.959 . S
C5068 H5054 0.961 . S
C5068 C5067 1.502 . S
C5069 H5055 0.960 . S
C5069 H5056 0.961 . S
C5069 H5057 0.959 . S
C5069 C5067 1.561 . S
C5070 C5067 1.526 . S
C5070 C5071 1.396 . S
C5070 C5075 1.390 . S
C5071 C5065 1.465 . S
C5071 C5070 1.396 . S
C5071 C5072 1.399 . S
C5072 H5058 0.929 . S
C5072 C5071 1.399 . S
C5072 C5073 1.385 . S
C5073 H5059 0.931 . S
C5073 C5072 1.385 . S
C5073 C5074 1.389 . S
C5074 C5073 1.389 . S
C5074 C5075 1.387 . S
C5075 H5060 0.930 . S
C5075 C5070 1.390 . S
C5075 C5074 1.387 . S
H5076 C5088 0.930 . S
H5077 C5090 0.930 . S
H5078 C5091 0.930 . S
H5079 C5095 0.959 . S
H5080 C5095 0.959 . S
H5081 C5095 0.961 . S
H5082 C5096 0.960 . S
H5083 C5096 0.961 . S
H5084 C5096 0.959 . S
H5085 C5099 0.929 . S
H5086 C5100 0.931 . S
H5087 C5102 0.930 . S
C5088 H5076 0.930 . S
C5088 C5089 1.399 . S
C5088 C5093 1.399 . S
C5089 C5088 1.399 . S
C5089 C5090 1.376 . S
C5090 H5077 0.930 . S
C5090 C5089 1.376 . S
C5090 C5091 1.388 . S
C5091 H5078 0.930 . S
C5091 C5090 1.388 . S
C5091 C5092 1.390 . S
C5092 C5091 1.390 . S
C5092 C5093 1.394 . S
C5092 C5098 1.465 . S
C5093 C5088 1.399 . S
C5093 C5092 1.394 . S
C5093 C5094 1.516 . S
C5094 C5093 1.516 . S
C5094 C5095 1.502 . S
C5094 C5096 1.561 . S
C5094 C5097 1.526 . S
C5095 H5079 0.959 . S
C5095 H5080 0.959 . S
C5095 H5081 0.961 . S
C5095 C5094 1.502 . S
C5096 H5082 0.960 . S
C5096 H5083 0.961 . S
C5096 H5084 0.959 . S
C5096 C5094 1.561 . S
C5097 C5094 1.526 . S
C5097 C5098 1.396 . S
C5097 C5102 1.390 . S
C5098 C5092 1.465 . S
C5098 C5097 1.396 . S
C5098 C5099 1.399 . S
C5099 H5085 0.929 . S
C5099 C5098 1.399 . S
C5099 C5100 1.385 . S
C5100 H5086 0.931 . S
C5100 C5099 1.385 . S
C5100 C5101 1.389 . S
C5101 C5100 1.389 . S
C5101 C5102 1.387 . S
C5102 H5087 0.930 . S
C5102 C5097 1.390 . S
C5102 C5101 1.387 . S
H5103 C5115 0.930 . S
H5104 C5117 0.930 . S
H5105 C5118 0.930 . S
H5106 C5122 0.959 . S
H5107 C5122 0.959 . S
H5108 C5122 0.961 . S
H5109 C5123 0.960 . S
H5110 C5123 0.961 . S
H5111 C5123 0.959 . S
H5112 C5126 0.929 . S
H5113 C5127 0.931 . S
H5114 C5129 0.930 . S
C5115 H5103 0.930 . S
C5115 C5116 1.399 . S
C5115 C5120 1.399 . S
C5116 C5115 1.399 . S
C5116 C5117 1.376 . S
C5117 H5104 0.930 . S
C5117 C5116 1.376 . S
C5117 C5118 1.388 . S
C5118 H5105 0.930 . S
C5118 C5117 1.388 . S
C5118 C5119 1.390 . S
C5119 C5118 1.390 . S
C5119 C5120 1.394 . S
C5119 C5125 1.465 . S
C5120 C5115 1.399 . S
C5120 C5119 1.394 . S
C5120 C5121 1.516 . S
C5121 C5120 1.516 . S
C5121 C5122 1.502 . S
C5121 C5123 1.561 . S
C5121 C5124 1.526 . S
C5122 H5106 0.959 . S
C5122 H5107 0.959 . S
C5122 H5108 0.961 . S
C5122 C5121 1.502 . S
C5123 H5109 0.960 . S
C5123 H5110 0.961 . S
C5123 H5111 0.959 . S
C5123 C5121 1.561 . S
C5124 C5121 1.526 . S
C5124 C5125 1.396 . S
C5124 C5129 1.390 . S
C5125 C5119 1.465 . S
C5125 C5124 1.396 . S
C5125 C5126 1.399 . S
C5126 H5112 0.929 . S
C5126 C5125 1.399 . S
C5126 C5127 1.385 . S
C5127 H5113 0.931 . S
C5127 C5126 1.385 . S
C5127 C5128 1.389 . S
C5128 C5127 1.389 . S
C5128 C5129 1.387 . S
C5129 H5114 0.930 . S
C5129 C5124 1.390 . S
C5129 C5128 1.387 . S
H5130 C5142 0.930 . S
H5131 C5144 0.930 . S
H5132 C5145 0.930 . S
H5133 C5149 0.959 . S
H5134 C5149 0.959 . S
H5135 C5149 0.961 . S
H5136 C5150 0.960 . S
H5137 C5150 0.961 . S
H5138 C5150 0.959 . S
H5139 C5153 0.929 . S
H5140 C5154 0.931 . S
H5141 C5156 0.930 . S
C5142 H5130 0.930 . S
C5142 C5143 1.399 . S
C5142 C5147 1.399 . S
C5143 C5142 1.399 . S
C5143 C5144 1.376 . S
C5144 H5131 0.930 . S
C5144 C5143 1.376 . S
C5144 C5145 1.388 . S
C5145 H5132 0.930 . S
C5145 C5144 1.388 . S
C5145 C5146 1.390 . S
C5146 C5145 1.390 . S
C5146 C5147 1.394 . S
C5146 C5152 1.465 . S
C5147 C5142 1.399 . S
C5147 C5146 1.394 . S
C5147 C5148 1.516 . S
C5148 C5147 1.516 . S
C5148 C5149 1.502 . S
C5148 C5150 1.561 . S
C5148 C5151 1.526 . S
C5149 H5133 0.959 . S
C5149 H5134 0.959 . S
C5149 H5135 0.961 . S
C5149 C5148 1.502 . S
C5150 H5136 0.960 . S
C5150 H5137 0.961 . S
C5150 H5138 0.959 . S
C5150 C5148 1.561 . S
C5151 C5148 1.526 . S
C5151 C5152 1.396 . S
C5151 C5156 1.390 . S
C5152 C5146 1.465 . S
C5152 C5151 1.396 . S
C5152 C5153 1.399 . S
C5153 H5139 0.929 . S
C5153 C5152 1.399 . S
C5153 C5154 1.385 . S
C5154 H5140 0.931 . S
C5154 C5153 1.385 . S
C5154 C5155 1.389 . S
C5155 C5154 1.389 . S
C5155 C5156 1.387 . S
C5156 H5141 0.930 . S
C5156 C5151 1.390 . S
C5156 C5155 1.387 . S
H5157 C5169 0.930 . S
H5158 C5171 0.930 . S
H5159 C5172 0.930 . S
H5160 C5176 0.959 . S
H5161 C5176 0.959 . S
H5162 C5176 0.961 . S
H5163 C5177 0.960 . S
H5164 C5177 0.961 . S
H5165 C5177 0.959 . S
H5166 C5180 0.929 . S
H5167 C5181 0.931 . S
H5168 C5183 0.930 . S
C5169 H5157 0.930 . S
C5169 C5170 1.399 . S
C5169 C5174 1.399 . S
C5170 C5169 1.399 . S
C5170 C5171 1.376 . S
C5171 H5158 0.930 . S
C5171 C5170 1.376 . S
C5171 C5172 1.388 . S
C5172 H5159 0.930 . S
C5172 C5171 1.388 . S
C5172 C5173 1.390 . S
C5173 C5172 1.390 . S
C5173 C5174 1.394 . S
C5173 C5179 1.465 . S
C5174 C5169 1.399 . S
C5174 C5173 1.394 . S
C5174 C5175 1.516 . S
C5175 C5174 1.516 . S
C5175 C5176 1.502 . S
C5175 C5177 1.561 . S
C5175 C5178 1.526 . S
C5176 H5160 0.959 . S
C5176 H5161 0.959 . S
C5176 H5162 0.961 . S
C5176 C5175 1.502 . S
C5177 H5163 0.960 . S
C5177 H5164 0.961 . S
C5177 H5165 0.959 . S
C5177 C5175 1.561 . S
C5178 C5175 1.526 . S
C5178 C5179 1.396 . S
C5178 C5183 1.390 . S
C5179 C5173 1.465 . S
C5179 C5178 1.396 . S
C5179 C5180 1.399 . S
C5180 H5166 0.929 . S
C5180 C5179 1.399 . S
C5180 C5181 1.385 . S
C5181 H5167 0.931 . S
C5181 C5180 1.385 . S
C5181 C5182 1.389 . S
C5182 C5181 1.389 . S
C5182 C5183 1.387 . S
C5183 H5168 0.930 . S
C5183 C5178 1.390 . S
C5183 C5182 1.387 . S
H5184 C5196 0.930 . S
H5185 C5198 0.930 . S
H5186 C5199 0.930 . S
H5187 C5203 0.959 . S
H5188 C5203 0.959 . S
H5189 C5203 0.961 . S
H5190 C5204 0.960 . S
H5191 C5204 0.961 . S
H5192 C5204 0.959 . S
H5193 C5207 0.929 . S
H5194 C5208 0.931 . S
H5195 C5210 0.930 . S
C5196 H5184 0.930 . S
C5196 C5197 1.399 . S
C5196 C5201 1.399 . S
C5197 C5196 1.399 . S
C5197 C5198 1.376 . S
C5198 H5185 0.930 . S
C5198 C5197 1.376 . S
C5198 C5199 1.388 . S
C5199 H5186 0.930 . S
C5199 C5198 1.388 . S
C5199 C5200 1.390 . S
C5200 C5199 1.390 . S
C5200 C5201 1.394 . S
C5200 C5206 1.465 . S
C5201 C5196 1.399 . S
C5201 C5200 1.394 . S
C5201 C5202 1.516 . S
C5202 C5201 1.516 . S
C5202 C5203 1.502 . S
C5202 C5204 1.561 . S
C5202 C5205 1.526 . S
C5203 H5187 0.959 . S
C5203 H5188 0.959 . S
C5203 H5189 0.961 . S
C5203 C5202 1.502 . S
C5204 H5190 0.960 . S
C5204 H5191 0.961 . S
C5204 H5192 0.959 . S
C5204 C5202 1.561 . S
C5205 C5202 1.526 . S
C5205 C5206 1.396 . S
C5205 C5210 1.390 . S
C5206 C5200 1.465 . S
C5206 C5205 1.396 . S
C5206 C5207 1.399 . S
C5207 H5193 0.929 . S
C5207 C5206 1.399 . S
C5207 C5208 1.385 . S
C5208 H5194 0.931 . S
C5208 C5207 1.385 . S
C5208 C5209 1.389 . S
C5209 C5208 1.389 . S
C5209 C5210 1.387 . S
C5210 H5195 0.930 . S
C5210 C5205 1.390 . S
C5210 C5209 1.387 . S
H5211 C5223 0.930 . S
H5212 C5225 0.930 . S
H5213 C5226 0.930 . S
H5214 C5230 0.959 . S
H5215 C5230 0.959 . S
H5216 C5230 0.961 . S
H5217 C5231 0.960 . S
H5218 C5231 0.961 . S
H5219 C5231 0.959 . S
H5220 C5234 0.929 . S
H5221 C5235 0.931 . S
H5222 C5237 0.930 . S
C5223 H5211 0.930 . S
C5223 C5224 1.399 . S
C5223 C5228 1.399 . S
C5224 C5223 1.399 . S
C5224 C5225 1.376 . S
C5225 H5212 0.930 . S
C5225 C5224 1.376 . S
C5225 C5226 1.388 . S
C5226 H5213 0.930 . S
C5226 C5225 1.388 . S
C5226 C5227 1.390 . S
C5227 C5226 1.390 . S
C5227 C5228 1.394 . S
C5227 C5233 1.465 . S
C5228 C5223 1.399 . S
C5228 C5227 1.394 . S
C5228 C5229 1.516 . S
C5229 C5228 1.516 . S
C5229 C5230 1.502 . S
C5229 C5231 1.561 . S
C5229 C5232 1.526 . S
C5230 H5214 0.959 . S
C5230 H5215 0.959 . S
C5230 H5216 0.961 . S
C5230 C5229 1.502 . S
C5231 H5217 0.960 . S
C5231 H5218 0.961 . S
C5231 H5219 0.959 . S
C5231 C5229 1.561 . S
C5232 C5229 1.526 . S
C5232 C5233 1.396 . S
C5232 C5237 1.390 . S
C5233 C5227 1.465 . S
C5233 C5232 1.396 . S
C5233 C5234 1.399 . S
C5234 H5220 0.929 . S
C5234 C5233 1.399 . S
C5234 C5235 1.385 . S
C5235 H5221 0.931 . S
C5235 C5234 1.385 . S
C5235 C5236 1.389 . S
C5236 C5235 1.389 . S
C5236 C5237 1.387 . S
C5237 H5222 0.930 . S
C5237 C5232 1.390 . S
C5237 C5236 1.387 . S
H5238 C5250 0.930 . S
H5239 C5252 0.930 . S
H5240 C5253 0.930 . S
H5241 C5257 0.959 . S
H5242 C5257 0.959 . S
H5243 C5257 0.961 . S
H5244 C5258 0.960 . S
H5245 C5258 0.961 . S
H5246 C5258 0.959 . S
H5247 C5261 0.929 . S
H5248 C5262 0.931 . S
H5249 C5264 0.930 . S
C5250 H5238 0.930 . S
C5250 C5251 1.399 . S
C5250 C5255 1.399 . S
C5251 C5250 1.399 . S
C5251 C5252 1.376 . S
C5252 H5239 0.930 . S
C5252 C5251 1.376 . S
C5252 C5253 1.388 . S
C5253 H5240 0.930 . S
C5253 C5252 1.388 . S
C5253 C5254 1.390 . S
C5254 C5253 1.390 . S
C5254 C5255 1.394 . S
C5254 C5260 1.465 . S
C5255 C5250 1.399 . S
C5255 C5254 1.394 . S
C5255 C5256 1.516 . S
C5256 C5255 1.516 . S
C5256 C5257 1.502 . S
C5256 C5258 1.561 . S
C5256 C5259 1.526 . S
C5257 H5241 0.959 . S
C5257 H5242 0.959 . S
C5257 H5243 0.961 . S
C5257 C5256 1.502 . S
C5258 H5244 0.960 . S
C5258 H5245 0.961 . S
C5258 H5246 0.959 . S
C5258 C5256 1.561 . S
C5259 C5256 1.526 . S
C5259 C5260 1.396 . S
C5259 C5264 1.390 . S
C5260 C5254 1.465 . S
C5260 C5259 1.396 . S
C5260 C5261 1.399 . S
C5261 H5247 0.929 . S
C5261 C5260 1.399 . S
C5261 C5262 1.385 . S
C5262 H5248 0.931 . S
C5262 C5261 1.385 . S
C5262 C5263 1.389 . S
C5263 C5262 1.389 . S
C5263 C5264 1.387 . S
C5264 H5249 0.930 . S
C5264 C5259 1.390 . S
C5264 C5263 1.387 . S
H5265 C5277 0.930 . S
H5266 C5279 0.930 . S
H5267 C5280 0.930 . S
H5268 C5284 0.959 . S
H5269 C5284 0.959 . S
H5270 C5284 0.961 . S
H5271 C5285 0.960 . S
H5272 C5285 0.961 . S
H5273 C5285 0.959 . S
H5274 C5288 0.929 . S
H5275 C5289 0.931 . S
H5276 C5291 0.930 . S
C5277 H5265 0.930 . S
C5277 C5278 1.399 . S
C5277 C5282 1.399 . S
C5278 C5277 1.399 . S
C5278 C5279 1.376 . S
C5279 H5266 0.930 . S
C5279 C5278 1.376 . S
C5279 C5280 1.388 . S
C5280 H5267 0.930 . S
C5280 C5279 1.388 . S
C5280 C5281 1.390 . S
C5281 C5280 1.390 . S
C5281 C5282 1.394 . S
C5281 C5287 1.465 . S
C5282 C5277 1.399 . S
C5282 C5281 1.394 . S
C5282 C5283 1.516 . S
C5283 C5282 1.516 . S
C5283 C5284 1.502 . S
C5283 C5285 1.561 . S
C5283 C5286 1.526 . S
C5284 H5268 0.959 . S
C5284 H5269 0.959 . S
C5284 H5270 0.961 . S
C5284 C5283 1.502 . S
C5285 H5271 0.960 . S
C5285 H5272 0.961 . S
C5285 H5273 0.959 . S
C5285 C5283 1.561 . S
C5286 C5283 1.526 . S
C5286 C5287 1.396 . S
C5286 C5291 1.390 . S
C5287 C5281 1.465 . S
C5287 C5286 1.396 . S
C5287 C5288 1.399 . S
C5288 H5274 0.929 . S
C5288 C5287 1.399 . S
C5288 C5289 1.385 . S
C5289 H5275 0.931 . S
C5289 C5288 1.385 . S
C5289 C5290 1.389 . S
C5290 C5289 1.389 . S
C5290 C5291 1.387 . S
C5291 H5276 0.930 . S
C5291 C5286 1.390 . S
C5291 C5290 1.387 . S
H5292 C5304 0.930 . S
H5293 C5306 0.930 . S
H5294 C5307 0.930 . S
H5295 C5311 0.959 . S
H5296 C5311 0.959 . S
H5297 C5311 0.961 . S
H5298 C5312 0.960 . S
H5299 C5312 0.961 . S
H5300 C5312 0.959 . S
H5301 C5315 0.929 . S
H5302 C5316 0.931 . S
H5303 C5318 0.930 . S
C5304 H5292 0.930 . S
C5304 C5305 1.399 . S
C5304 C5309 1.399 . S
C5305 C5304 1.399 . S
C5305 C5306 1.376 . S
C5306 H5293 0.930 . S
C5306 C5305 1.376 . S
C5306 C5307 1.388 . S
C5307 H5294 0.930 . S
C5307 C5306 1.388 . S
C5307 C5308 1.390 . S
C5308 C5307 1.390 . S
C5308 C5309 1.394 . S
C5308 C5314 1.465 . S
C5309 C5304 1.399 . S
C5309 C5308 1.394 . S
C5309 C5310 1.516 . S
C5310 C5309 1.516 . S
C5310 C5311 1.502 . S
C5310 C5312 1.561 . S
C5310 C5313 1.526 . S
C5311 H5295 0.959 . S
C5311 H5296 0.959 . S
C5311 H5297 0.961 . S
C5311 C5310 1.502 . S
C5312 H5298 0.960 . S
C5312 H5299 0.961 . S
C5312 H5300 0.959 . S
C5312 C5310 1.561 . S
C5313 C5310 1.526 . S
C5313 C5314 1.396 . S
C5313 C5318 1.390 . S
C5314 C5308 1.465 . S
C5314 C5313 1.396 . S
C5314 C5315 1.399 . S
C5315 H5301 0.929 . S
C5315 C5314 1.399 . S
C5315 C5316 1.385 . S
C5316 H5302 0.931 . S
C5316 C5315 1.385 . S
C5316 C5317 1.389 . S
C5317 C5316 1.389 . S
C5317 C5318 1.387 . S
C5318 H5303 0.930 . S
C5318 C5313 1.390 . S
C5318 C5317 1.387 . S
H5319 C5331 0.930 . S
H5320 C5333 0.930 . S
H5321 C5334 0.930 . S
H5322 C5338 0.959 . S
H5323 C5338 0.959 . S
H5324 C5338 0.961 . S
H5325 C5339 0.960 . S
H5326 C5339 0.961 . S
H5327 C5339 0.959 . S
H5328 C5342 0.929 . S
H5329 C5343 0.931 . S
H5330 C5345 0.930 . S
C5331 H5319 0.930 . S
C5331 C5332 1.399 . S
C5331 C5336 1.399 . S
C5332 C5331 1.399 . S
C5332 C5333 1.376 . S
C5333 H5320 0.930 . S
C5333 C5332 1.376 . S
C5333 C5334 1.388 . S
C5334 H5321 0.930 . S
C5334 C5333 1.388 . S
C5334 C5335 1.390 . S
C5335 C5334 1.390 . S
C5335 C5336 1.394 . S
C5335 C5341 1.465 . S
C5336 C5331 1.399 . S
C5336 C5335 1.394 . S
C5336 C5337 1.516 . S
C5337 C5336 1.516 . S
C5337 C5338 1.502 . S
C5337 C5339 1.561 . S
C5337 C5340 1.526 . S
C5338 H5322 0.959 . S
C5338 H5323 0.959 . S
C5338 H5324 0.961 . S
C5338 C5337 1.502 . S
C5339 H5325 0.960 . S
C5339 H5326 0.961 . S
C5339 H5327 0.959 . S
C5339 C5337 1.561 . S
C5340 C5337 1.526 . S
C5340 C5341 1.396 . S
C5340 C5345 1.390 . S
C5341 C5335 1.465 . S
C5341 C5340 1.396 . S
C5341 C5342 1.399 . S
C5342 H5328 0.929 . S
C5342 C5341 1.399 . S
C5342 C5343 1.385 . S
C5343 H5329 0.931 . S
C5343 C5342 1.385 . S
C5343 C5344 1.389 . S
C5344 C5343 1.389 . S
C5344 C5345 1.387 . S
C5345 H5330 0.930 . S
C5345 C5340 1.390 . S
C5345 C5344 1.387 . S
H5346 C5358 0.930 . S
H5347 C5360 0.930 . S
H5348 C5361 0.930 . S
H5349 C5365 0.959 . S
H5350 C5365 0.959 . S
H5351 C5365 0.961 . S
H5352 C5366 0.960 . S
H5353 C5366 0.961 . S
H5354 C5366 0.959 . S
H5355 C5369 0.929 . S
H5356 C5370 0.931 . S
H5357 C5372 0.930 . S
C5358 H5346 0.930 . S
C5358 C5359 1.399 . S
C5358 C5363 1.399 . S
C5359 C5358 1.399 . S
C5359 C5360 1.376 . S
C5360 H5347 0.930 . S
C5360 C5359 1.376 . S
C5360 C5361 1.388 . S
C5361 H5348 0.930 . S
C5361 C5360 1.388 . S
C5361 C5362 1.390 . S
C5362 C5361 1.390 . S
C5362 C5363 1.394 . S
C5362 C5368 1.465 . S
C5363 C5358 1.399 . S
C5363 C5362 1.394 . S
C5363 C5364 1.516 . S
C5364 C5363 1.516 . S
C5364 C5365 1.502 . S
C5364 C5366 1.561 . S
C5364 C5367 1.526 . S
C5365 H5349 0.959 . S
C5365 H5350 0.959 . S
C5365 H5351 0.961 . S
C5365 C5364 1.502 . S
C5366 H5352 0.960 . S
C5366 H5353 0.961 . S
C5366 H5354 0.959 . S
C5366 C5364 1.561 . S
C5367 C5364 1.526 . S
C5367 C5368 1.396 . S
C5367 C5372 1.390 . S
C5368 C5362 1.465 . S
C5368 C5367 1.396 . S
C5368 C5369 1.399 . S
C5369 H5355 0.929 . S
C5369 C5368 1.399 . S
C5369 C5370 1.385 . S
C5370 H5356 0.931 . S
C5370 C5369 1.385 . S
C5370 C5371 1.389 . S
C5371 C5370 1.389 . S
C5371 C5372 1.387 . S
C5372 H5357 0.930 . S
C5372 C5367 1.390 . S
C5372 C5371 1.387 . S
H5373 C5385 0.930 . S
H5374 C5387 0.930 . S
H5375 C5388 0.930 . S
H5376 C5392 0.959 . S
H5377 C5392 0.959 . S
H5378 C5392 0.961 . S
H5379 C5393 0.960 . S
H5380 C5393 0.961 1_655 S
H5381 C5393 0.959 . S
H5382 C5396 0.929 . S
H5383 C5397 0.931 . S
H5384 C5399 0.930 . S
C5385 H5373 0.930 . S
C5385 C5386 1.399 . S
C5385 C5390 1.399 . S
C5386 C5385 1.399 . S
C5386 C5387 1.376 . S
C5387 H5374 0.930 . S
C5387 C5386 1.376 . S
C5387 C5388 1.388 . S
C5388 H5375 0.930 . S
C5388 C5387 1.388 . S
C5388 C5389 1.390 . S
C5389 C5388 1.390 . S
C5389 C5390 1.394 . S
C5389 C5395 1.465 . S
C5390 C5385 1.399 . S
C5390 C5389 1.394 . S
C5390 C5391 1.516 . S
C5391 C5390 1.516 . S
C5391 C5392 1.502 . S
C5391 C5393 1.561 . S
C5391 C5394 1.526 1_455 S
C5392 H5376 0.959 . S
C5392 H5377 0.959 . S
C5392 H5378 0.961 . S
C5392 C5391 1.502 . S
C5393 H5379 0.960 . S
C5393 H5380 0.961 1_455 S
C5393 H5381 0.959 . S
C5393 C5391 1.561 . S
C5394 C5391 1.526 1_655 S
C5394 C5395 1.396 1_655 S
C5394 C5399 1.390 . S
C5395 C5389 1.465 . S
C5395 C5394 1.396 1_455 S
C5395 C5396 1.399 1_455 S
C5396 H5382 0.929 . S
C5396 C5395 1.399 1_655 S
C5396 C5397 1.385 . S
C5397 H5383 0.931 . S
C5397 C5396 1.385 . S
C5397 C5398 1.389 . S
C5398 C5397 1.389 . S
C5398 C5399 1.387 . S
C5399 H5384 0.930 . S
C5399 C5394 1.390 . S
C5399 C5398 1.387 . S
H5400 C5412 0.930 . S
H5401 C5414 0.930 . S
H5402 C5415 0.930 . S
H5403 C5419 0.959 . S
H5404 C5419 0.959 . S
H5405 C5419 0.961 . S
H5406 C5420 0.960 . S
H5407 C5420 0.961 . S
H5408 C5420 0.959 . S
H5409 C5423 0.929 . S
H5410 C5424 0.931 . S
H5411 C5426 0.930 . S
C5412 H5400 0.930 . S
C5412 C5413 1.399 . S
C5412 C5417 1.399 . S
C5413 C5412 1.399 . S
C5413 C5414 1.376 . S
C5414 H5401 0.930 . S
C5414 C5413 1.376 . S
C5414 C5415 1.388 . S
C5415 H5402 0.930 . S
C5415 C5414 1.388 . S
C5415 C5416 1.390 . S
C5416 C5415 1.390 . S
C5416 C5417 1.394 . S
C5416 C5422 1.465 . S
C5417 C5412 1.399 . S
C5417 C5416 1.394 . S
C5417 C5418 1.516 . S
C5418 C5417 1.516 . S
C5418 C5419 1.502 . S
C5418 C5420 1.561 . S
C5418 C5421 1.526 . S
C5419 H5403 0.959 . S
C5419 H5404 0.959 . S
C5419 H5405 0.961 . S
C5419 C5418 1.502 . S
C5420 H5406 0.960 . S
C5420 H5407 0.961 . S
C5420 H5408 0.959 . S
C5420 C5418 1.561 . S
C5421 C5418 1.526 . S
C5421 C5422 1.396 . S
C5421 C5426 1.390 . S
C5422 C5416 1.465 . S
C5422 C5421 1.396 . S
C5422 C5423 1.399 . S
C5423 H5409 0.929 . S
C5423 C5422 1.399 . S
C5423 C5424 1.385 . S
C5424 H5410 0.931 . S
C5424 C5423 1.385 . S
C5424 C5425 1.389 . S
C5425 C5424 1.389 . S
C5425 C5426 1.387 . S
C5426 H5411 0.930 . S
C5426 C5421 1.390 . S
C5426 C5425 1.387 . S
H5427 C5439 0.930 . S
H5428 C5441 0.930 . S
H5429 C5442 0.930 . S
H5430 C5446 0.959 . S
H5431 C5446 0.959 . S
H5432 C5446 0.961 . S
H5433 C5447 0.960 . S
H5434 C5447 0.961 . S
H5435 C5447 0.959 . S
H5436 C5450 0.929 . S
H5437 C5451 0.931 . S
H5438 C5453 0.930 . S
C5439 H5427 0.930 . S
C5439 C5440 1.399 . S
C5439 C5444 1.399 . S
C5440 C5439 1.399 . S
C5440 C5441 1.376 . S
C5441 H5428 0.930 . S
C5441 C5440 1.376 . S
C5441 C5442 1.388 . S
C5442 H5429 0.930 . S
C5442 C5441 1.388 . S
C5442 C5443 1.390 . S
C5443 C5442 1.390 . S
C5443 C5444 1.394 . S
C5443 C5449 1.465 . S
C5444 C5439 1.399 . S
C5444 C5443 1.394 . S
C5444 C5445 1.516 . S
C5445 C5444 1.516 . S
C5445 C5446 1.502 . S
C5445 C5447 1.561 . S
C5445 C5448 1.526 . S
C5446 H5430 0.959 . S
C5446 H5431 0.959 . S
C5446 H5432 0.961 . S
C5446 C5445 1.502 . S
C5447 H5433 0.960 . S
C5447 H5434 0.961 . S
C5447 H5435 0.959 . S
C5447 C5445 1.561 . S
C5448 C5445 1.526 . S
C5448 C5449 1.396 . S
C5448 C5453 1.390 1_545 S
C5449 C5443 1.465 . S
C5449 C5448 1.396 . S
C5449 C5450 1.399 1_545 S
C5450 H5436 0.929 . S
C5450 C5449 1.399 1_565 S
C5450 C5451 1.385 . S
C5451 H5437 0.931 . S
C5451 C5450 1.385 . S
C5451 C5452 1.389 . S
C5452 C5451 1.389 . S
C5452 C5453 1.387 . S
C5453 H5438 0.930 . S
C5453 C5448 1.390 1_565 S
C5453 C5452 1.387 . S
H5454 C5466 0.930 . S
H5455 C5468 0.930 . S
H5456 C5469 0.930 1_545 S
H5457 C5473 0.959 . S
H5458 C5473 0.959 . S
H5459 C5473 0.961 . S
H5460 C5474 0.960 . S
H5461 C5474 0.961 . S
H5462 C5474 0.959 . S
H5463 C5477 0.929 . S
H5464 C5478 0.931 . S
H5465 C5480 0.930 . S
C5466 H5454 0.930 . S
C5466 C5467 1.399 . S
C5466 C5471 1.399 1_565 S
C5467 C5466 1.399 . S
C5467 C5468 1.376 . S
C5468 H5455 0.930 . S
C5468 C5467 1.376 . S
C5468 C5469 1.388 . S
C5469 H5456 0.930 1_565 S
C5469 C5468 1.388 . S
C5469 C5470 1.390 1_565 S
C5470 C5469 1.390 1_545 S
C5470 C5471 1.394 . S
C5470 C5476 1.465 . S
C5471 C5466 1.399 1_545 S
C5471 C5470 1.394 . S
C5471 C5472 1.516 . S
C5472 C5471 1.516 . S
C5472 C5473 1.502 . S
C5472 C5474 1.561 . S
C5472 C5475 1.526 . S
C5473 H5457 0.959 . S
C5473 H5458 0.959 . S
C5473 H5459 0.961 . S
C5473 C5472 1.502 . S
C5474 H5460 0.960 . S
C5474 H5461 0.961 . S
C5474 H5462 0.959 . S
C5474 C5472 1.561 . S
C5475 C5472 1.526 . S
C5475 C5476 1.396 . S
C5475 C5480 1.390 . S
C5476 C5470 1.465 . S
C5476 C5475 1.396 . S
C5476 C5477 1.399 . S
C5477 H5463 0.929 . S
C5477 C5476 1.399 . S
C5477 C5478 1.385 . S
C5478 H5464 0.931 . S
C5478 C5477 1.385 . S
C5478 C5479 1.389 . S
C5479 C5478 1.389 . S
C5479 C5480 1.387 . S
C5480 H5465 0.930 . S
C5480 C5475 1.390 . S
C5480 C5479 1.387 . S
H5481 C5493 0.930 . S
H5482 C5495 0.930 . S
H5483 C5496 0.930 . S
H5484 C5500 0.960 1_655 S
H5485 C5500 0.959 1_655 S
H5486 C5500 0.961 . S
H5487 C5501 0.960 . S
H5488 C5501 0.961 1_655 S
H5489 C5501 0.959 . S
H5490 C5504 0.929 1_455 S
H5491 C5505 0.931 . S
H5492 C5507 0.930 . S
C5493 H5481 0.930 . S
C5493 C5494 1.399 . S
C5493 C5498 1.399 . S
C5494 C5493 1.399 . S
C5494 C5495 1.376 . S
C5495 H5482 0.930 . S
C5495 C5494 1.376 . S
C5495 C5496 1.388 . S
C5496 H5483 0.930 . S
C5496 C5495 1.388 . S
C5496 C5497 1.390 . S
C5497 C5496 1.390 . S
C5497 C5498 1.394 . S
C5497 C5503 1.465 . S
C5498 C5493 1.399 . S
C5498 C5497 1.394 . S
C5498 C5499 1.516 . S
C5499 C5498 1.516 . S
C5499 C5500 1.502 . S
C5499 C5501 1.561 . S
C5499 C5502 1.526 1_455 S
C5500 H5484 0.960 1_455 S
C5500 H5485 0.959 1_455 S
C5500 H5486 0.961 . S
C5500 C5499 1.502 . S
C5501 H5487 0.960 . S
C5501 H5488 0.961 1_455 S
C5501 H5489 0.959 . S
C5501 C5499 1.561 . S
C5502 C5499 1.526 1_655 S
C5502 C5503 1.396 1_655 S
C5502 C5507 1.390 . S
C5503 C5497 1.465 . S
C5503 C5502 1.396 1_455 S
C5503 C5504 1.399 1_455 S
C5504 H5490 0.929 1_655 S
C5504 C5503 1.399 1_655 S
C5504 C5505 1.385 . S
C5505 H5491 0.931 . S
C5505 C5504 1.385 . S
C5505 C5506 1.389 . S
C5506 C5505 1.389 . S
C5506 C5507 1.387 . S
C5507 H5492 0.930 . S
C5507 C5502 1.390 . S
C5507 C5506 1.387 . S
H5508 C5520 0.930 . S
H5509 C5522 0.930 . S
H5510 C5523 0.930 . S
H5511 C5527 0.959 . S
H5512 C5527 0.959 . S
H5513 C5527 0.961 . S
H5514 C5528 0.960 . S
H5515 C5528 0.961 . S
H5516 C5528 0.959 . S
H5517 C5531 0.929 . S
H5518 C5532 0.931 . S
H5519 C5534 0.930 . S
C5520 H5508 0.930 . S
C5520 C5521 1.399 . S
C5520 C5525 1.399 . S
C5521 C5520 1.399 . S
C5521 C5522 1.376 . S
C5522 H5509 0.930 . S
C5522 C5521 1.376 . S
C5522 C5523 1.388 . S
C5523 H5510 0.930 . S
C5523 C5522 1.388 . S
C5523 C5524 1.390 . S
C5524 C5523 1.390 . S
C5524 C5525 1.394 . S
C5524 C5530 1.465 . S
C5525 C5520 1.399 . S
C5525 C5524 1.394 . S
C5525 C5526 1.516 . S
C5526 C5525 1.516 . S
C5526 C5527 1.502 . S
C5526 C5528 1.561 . S
C5526 C5529 1.526 . S
C5527 H5511 0.959 . S
C5527 H5512 0.959 . S
C5527 H5513 0.961 . S
C5527 C5526 1.502 . S
C5528 H5514 0.960 . S
C5528 H5515 0.961 . S
C5528 H5516 0.959 . S
C5528 C5526 1.561 . S
C5529 C5526 1.526 . S
C5529 C5530 1.396 . S
C5529 C5534 1.390 . S
C5530 C5524 1.465 . S
C5530 C5529 1.396 . S
C5530 C5531 1.399 . S
C5531 H5517 0.929 . S
C5531 C5530 1.399 . S
C5531 C5532 1.385 . S
C5532 H5518 0.931 . S
C5532 C5531 1.385 . S
C5532 C5533 1.389 . S
C5533 C5532 1.389 . S
C5533 C5534 1.387 . S
C5534 H5519 0.930 . S
C5534 C5529 1.390 . S
C5534 C5533 1.387 . S
H5535 C5547 0.930 . S
H5536 C5549 0.930 . S
H5537 C5550 0.930 . S
H5538 C5554 0.959 . S
H5539 C5554 0.959 . S
H5540 C5554 0.961 . S
H5541 C5555 0.960 . S
H5542 C5555 0.961 . S
H5543 C5555 0.959 . S
H5544 C5558 0.929 . S
H5545 C5559 0.931 . S
H5546 C5561 0.930 . S
C5547 H5535 0.930 . S
C5547 C5548 1.399 . S
C5547 C5552 1.399 . S
C5548 C5547 1.399 . S
C5548 C5549 1.376 . S
C5549 H5536 0.930 . S
C5549 C5548 1.376 . S
C5549 C5550 1.388 . S
C5550 H5537 0.930 . S
C5550 C5549 1.388 . S
C5550 C5551 1.390 . S
C5551 C5550 1.390 . S
C5551 C5552 1.394 . S
C5551 C5557 1.465 . S
C5552 C5547 1.399 . S
C5552 C5551 1.394 . S
C5552 C5553 1.516 . S
C5553 C5552 1.516 . S
C5553 C5554 1.502 . S
C5553 C5555 1.561 . S
C5553 C5556 1.526 . S
C5554 H5538 0.959 . S
C5554 H5539 0.959 . S
C5554 H5540 0.961 . S
C5554 C5553 1.502 . S
C5555 H5541 0.960 . S
C5555 H5542 0.961 . S
C5555 H5543 0.959 . S
C5555 C5553 1.561 . S
C5556 C5553 1.526 . S
C5556 C5557 1.396 . S
C5556 C5561 1.390 . S
C5557 C5551 1.465 . S
C5557 C5556 1.396 . S
C5557 C5558 1.399 . S
C5558 H5544 0.929 . S
C5558 C5557 1.399 . S
C5558 C5559 1.385 . S
C5559 H5545 0.931 . S
C5559 C5558 1.385 . S
C5559 C5560 1.389 . S
C5560 C5559 1.389 . S
C5560 C5561 1.387 . S
C5561 H5546 0.930 . S
C5561 C5556 1.390 . S
C5561 C5560 1.387 . S
H5562 C5574 0.930 . S
H5563 C5576 0.930 . S
H5564 C5577 0.930 . S
H5565 C5581 0.959 . S
H5566 C5581 0.959 . S
H5567 C5581 0.961 . S
H5568 C5582 0.960 . S
H5569 C5582 0.961 . S
H5570 C5582 0.959 . S
H5571 C5585 0.929 . S
H5572 C5586 0.931 . S
H5573 C5588 0.930 . S
C5574 H5562 0.930 . S
C5574 C5575 1.399 . S
C5574 C5579 1.399 . S
C5575 C5574 1.399 . S
C5575 C5576 1.376 . S
C5576 H5563 0.930 . S
C5576 C5575 1.376 . S
C5576 C5577 1.388 . S
C5577 H5564 0.930 . S
C5577 C5576 1.388 . S
C5577 C5578 1.390 . S
C5578 C5577 1.390 . S
C5578 C5579 1.394 . S
C5578 C5584 1.465 . S
C5579 C5574 1.399 . S
C5579 C5578 1.394 . S
C5579 C5580 1.516 . S
C5580 C5579 1.516 . S
C5580 C5581 1.502 . S
C5580 C5582 1.561 . S
C5580 C5583 1.526 . S
C5581 H5565 0.959 . S
C5581 H5566 0.959 . S
C5581 H5567 0.961 . S
C5581 C5580 1.502 . S
C5582 H5568 0.960 . S
C5582 H5569 0.961 . S
C5582 H5570 0.959 . S
C5582 C5580 1.561 . S
C5583 C5580 1.526 . S
C5583 C5584 1.396 . S
C5583 C5588 1.390 . S
C5584 C5578 1.465 . S
C5584 C5583 1.396 . S
C5584 C5585 1.399 . S
C5585 H5571 0.929 . S
C5585 C5584 1.399 . S
C5585 C5586 1.385 . S
C5586 H5572 0.931 . S
C5586 C5585 1.385 . S
C5586 C5587 1.389 . S
C5587 C5586 1.389 . S
C5587 C5588 1.387 . S
C5588 H5573 0.930 . S
C5588 C5583 1.390 . S
C5588 C5587 1.387 . S
H5589 C5601 0.930 . S
H5590 C5603 0.930 . S
H5591 C5604 0.930 . S
H5592 C5608 0.959 . S
H5593 C5608 0.959 . S
H5594 C5608 0.961 . S
H5595 C5609 0.960 . S
H5596 C5609 0.961 . S
H5597 C5609 0.959 . S
H5598 C5612 0.929 . S
H5599 C5613 0.931 . S
H5600 C5615 0.930 . S
C5601 H5589 0.930 . S
C5601 C5602 1.399 . S
C5601 C5606 1.399 . S
C5602 C5601 1.399 . S
C5602 C5603 1.376 . S
C5603 H5590 0.930 . S
C5603 C5602 1.376 . S
C5603 C5604 1.388 . S
C5604 H5591 0.930 . S
C5604 C5603 1.388 . S
C5604 C5605 1.390 . S
C5605 C5604 1.390 . S
C5605 C5606 1.394 . S
C5605 C5611 1.465 . S
C5606 C5601 1.399 . S
C5606 C5605 1.394 . S
C5606 C5607 1.516 . S
C5607 C5606 1.516 . S
C5607 C5608 1.502 . S
C5607 C5609 1.561 . S
C5607 C5610 1.526 . S
C5608 H5592 0.959 . S
C5608 H5593 0.959 . S
C5608 H5594 0.961 . S
C5608 C5607 1.502 . S
C5609 H5595 0.960 . S
C5609 H5596 0.961 . S
C5609 H5597 0.959 . S
C5609 C5607 1.561 . S
C5610 C5607 1.526 . S
C5610 C5611 1.396 . S
C5610 C5615 1.390 . S
C5611 C5605 1.465 . S
C5611 C5610 1.396 . S
C5611 C5612 1.399 . S
C5612 H5598 0.929 . S
C5612 C5611 1.399 . S
C5612 C5613 1.385 . S
C5613 H5599 0.931 . S
C5613 C5612 1.385 . S
C5613 C5614 1.389 . S
C5614 C5613 1.389 . S
C5614 C5615 1.387 . S
C5615 H5600 0.930 . S
C5615 C5610 1.390 . S
C5615 C5614 1.387 . S
H5616 C5628 0.930 . S
H5617 C5630 0.930 . S
H5618 C5631 0.930 . S
H5619 C5635 0.959 . S
H5620 C5635 0.959 . S
H5621 C5635 0.961 1_565 S
H5622 C5636 0.960 . S
H5623 C5636 0.961 . S
H5624 C5636 0.959 . S
H5625 C5639 0.929 . S
H5626 C5640 0.931 . S
H5627 C5642 0.930 . S
C5628 H5616 0.930 . S
C5628 C5629 1.399 . S
C5628 C5633 1.399 . S
C5629 C5628 1.399 . S
C5629 C5630 1.376 . S
C5630 H5617 0.930 . S
C5630 C5629 1.376 . S
C5630 C5631 1.388 . S
C5631 H5618 0.930 . S
C5631 C5630 1.388 . S
C5631 C5632 1.390 1_565 S
C5632 C5631 1.390 1_545 S
C5632 C5633 1.394 1_545 S
C5632 C5638 1.465 . S
C5633 C5628 1.399 . S
C5633 C5632 1.394 1_565 S
C5633 C5634 1.516 1_565 S
C5634 C5633 1.516 1_545 S
C5634 C5635 1.502 . S
C5634 C5636 1.561 . S
C5634 C5637 1.526 . S
C5635 H5619 0.959 . S
C5635 H5620 0.959 . S
C5635 H5621 0.961 1_545 S
C5635 C5634 1.502 . S
C5636 H5622 0.960 . S
C5636 H5623 0.961 . S
C5636 H5624 0.959 . S
C5636 C5634 1.561 . S
C5637 C5634 1.526 . S
C5637 C5638 1.396 . S
C5637 C5642 1.390 . S
C5638 C5632 1.465 . S
C5638 C5637 1.396 . S
C5638 C5639 1.399 . S
C5639 H5625 0.929 . S
C5639 C5638 1.399 . S
C5639 C5640 1.385 . S
C5640 H5626 0.931 . S
C5640 C5639 1.385 . S
C5640 C5641 1.389 . S
C5641 C5640 1.389 . S
C5641 C5642 1.387 . S
C5642 H5627 0.930 . S
C5642 C5637 1.390 . S
C5642 C5641 1.387 . S
H5643 C5655 0.930 . S
H5644 C5657 0.930 . S
H5645 C5658 0.930 . S
H5646 C5662 0.959 . S
H5647 C5662 0.959 . S
H5648 C5662 0.961 . S
H5649 C5663 0.960 . S
H5650 C5663 0.961 . S
H5651 C5663 0.959 . S
H5652 C5666 0.929 . S
H5653 C5667 0.931 . S
H5654 C5669 0.930 . S
C5655 H5643 0.930 . S
C5655 C5656 1.399 . S
C5655 C5660 1.399 1_655 S
C5656 C5655 1.399 . S
C5656 C5657 1.376 . S
C5657 H5644 0.930 . S
C5657 C5656 1.376 . S
C5657 C5658 1.388 1_655 S
C5658 H5645 0.930 . S
C5658 C5657 1.388 1_455 S
C5658 C5659 1.390 . S
C5659 C5658 1.390 . S
C5659 C5660 1.394 . S
C5659 C5665 1.465 . S
C5660 C5655 1.399 1_455 S
C5660 C5659 1.394 . S
C5660 C5661 1.516 . S
C5661 C5660 1.516 . S
C5661 C5662 1.502 . S
C5661 C5663 1.561 . S
C5661 C5664 1.526 . S
C5662 H5646 0.959 . S
C5662 H5647 0.959 . S
C5662 H5648 0.961 . S
C5662 C5661 1.502 . S
C5663 H5649 0.960 . S
C5663 H5650 0.961 . S
C5663 H5651 0.959 . S
C5663 C5661 1.561 . S
C5664 C5661 1.526 . S
C5664 C5665 1.396 . S
C5664 C5669 1.390 . S
C5665 C5659 1.465 . S
C5665 C5664 1.396 . S
C5665 C5666 1.399 . S
C5666 H5652 0.929 . S
C5666 C5665 1.399 . S
C5666 C5667 1.385 . S
C5667 H5653 0.931 . S
C5667 C5666 1.385 . S
C5667 C5668 1.389 . S
C5668 C5667 1.389 . S
C5668 C5669 1.387 . S
C5669 H5654 0.930 . S
C5669 C5664 1.390 . S
C5669 C5668 1.387 . S
H5670 C5682 0.930 . S
H5671 C5684 0.930 . S
H5672 C5685 0.930 . S
H5673 C5689 0.959 . S
H5674 C5689 0.959 . S
H5675 C5689 0.961 . S
H5676 C5690 0.960 . S
H5677 C5690 0.961 . S
H5678 C5690 0.959 . S
H5679 C5693 0.929 . S
H5680 C5694 0.931 . S
H5681 C5696 0.930 . S
C5682 H5670 0.930 . S
C5682 C5683 1.399 . S
C5682 C5687 1.399 . S
C5683 C5682 1.399 . S
C5683 C5684 1.376 . S
C5684 H5671 0.930 . S
C5684 C5683 1.376 . S
C5684 C5685 1.388 . S
C5685 H5672 0.930 . S
C5685 C5684 1.388 . S
C5685 C5686 1.390 . S
C5686 C5685 1.390 . S
C5686 C5687 1.394 . S
C5686 C5692 1.465 . S
C5687 C5682 1.399 . S
C5687 C5686 1.394 . S
C5687 C5688 1.516 . S
C5688 C5687 1.516 . S
C5688 C5689 1.502 . S
C5688 C5690 1.561 . S
C5688 C5691 1.526 . S
C5689 H5673 0.959 . S
C5689 H5674 0.959 . S
C5689 H5675 0.961 . S
C5689 C5688 1.502 . S
C5690 H5676 0.960 . S
C5690 H5677 0.961 . S
C5690 H5678 0.959 . S
C5690 C5688 1.561 . S
C5691 C5688 1.526 . S
C5691 C5692 1.396 . S
C5691 C5696 1.390 . S
C5692 C5686 1.465 . S
C5692 C5691 1.396 . S
C5692 C5693 1.399 . S
C5693 H5679 0.929 . S
C5693 C5692 1.399 . S
C5693 C5694 1.385 . S
C5694 H5680 0.931 . S
C5694 C5693 1.385 . S
C5694 C5695 1.389 . S
C5695 C5694 1.389 . S
C5695 C5696 1.387 . S
C5696 H5681 0.930 . S
C5696 C5691 1.390 . S
C5696 C5695 1.387 . S
H5697 C5709 0.930 . S
H5698 C5711 0.930 . S
H5699 C5712 0.930 . S
H5700 C5716 0.959 . S
H5701 C5716 0.959 . S
H5702 C5716 0.961 . S
H5703 C5717 0.960 . S
H5704 C5717 0.961 . S
H5705 C5717 0.959 . S
H5706 C5720 0.929 . S
H5707 C5721 0.931 . S
H5708 C5723 0.930 . S
C5709 H5697 0.930 . S
C5709 C5710 1.399 . S
C5709 C5714 1.399 . S
C5710 C5709 1.399 . S
C5710 C5711 1.376 . S
C5711 H5698 0.930 . S
C5711 C5710 1.376 . S
C5711 C5712 1.388 . S
C5712 H5699 0.930 . S
C5712 C5711 1.388 . S
C5712 C5713 1.390 . S
C5713 C5712 1.390 . S
C5713 C5714 1.394 . S
C5713 C5719 1.465 . S
C5714 C5709 1.399 . S
C5714 C5713 1.394 . S
C5714 C5715 1.516 . S
C5715 C5714 1.516 . S
C5715 C5716 1.502 . S
C5715 C5717 1.561 . S
C5715 C5718 1.526 . S
C5716 H5700 0.959 . S
C5716 H5701 0.959 . S
C5716 H5702 0.961 . S
C5716 C5715 1.502 . S
C5717 H5703 0.960 . S
C5717 H5704 0.961 . S
C5717 H5705 0.959 . S
C5717 C5715 1.561 . S
C5718 C5715 1.526 . S
C5718 C5719 1.396 . S
C5718 C5723 1.390 . S
C5719 C5713 1.465 . S
C5719 C5718 1.396 . S
C5719 C5720 1.399 . S
C5720 H5706 0.929 . S
C5720 C5719 1.399 . S
C5720 C5721 1.385 . S
C5721 H5707 0.931 . S
C5721 C5720 1.385 . S
C5721 C5722 1.389 . S
C5722 C5721 1.389 . S
C5722 C5723 1.387 . S
C5723 H5708 0.930 . S
C5723 C5718 1.390 . S
C5723 C5722 1.387 . S
H5724 C5736 0.930 . S
H5725 C5738 0.930 . S
H5726 C5739 0.930 . S
H5727 C5743 0.959 . S
H5728 C5743 0.959 . S
H5729 C5743 0.961 . S
H5730 C5744 0.960 . S
H5731 C5744 0.961 . S
H5732 C5744 0.959 . S
H5733 C5747 0.929 . S
H5734 C5748 0.931 . S
H5735 C5750 0.930 . S
C5736 H5724 0.930 . S
C5736 C5737 1.399 . S
C5736 C5741 1.399 . S
C5737 C5736 1.399 . S
C5737 C5738 1.376 . S
C5738 H5725 0.930 . S
C5738 C5737 1.376 . S
C5738 C5739 1.388 . S
C5739 H5726 0.930 . S
C5739 C5738 1.388 . S
C5739 C5740 1.390 . S
C5740 C5739 1.390 . S
C5740 C5741 1.394 . S
C5740 C5746 1.465 . S
C5741 C5736 1.399 . S
C5741 C5740 1.394 . S
C5741 C5742 1.516 . S
C5742 C5741 1.516 . S
C5742 C5743 1.502 . S
C5742 C5744 1.561 . S
C5742 C5745 1.526 . S
C5743 H5727 0.959 . S
C5743 H5728 0.959 . S
C5743 H5729 0.961 . S
C5743 C5742 1.502 . S
C5744 H5730 0.960 . S
C5744 H5731 0.961 . S
C5744 H5732 0.959 . S
C5744 C5742 1.561 . S
C5745 C5742 1.526 . S
C5745 C5746 1.396 . S
C5745 C5750 1.390 . S
C5746 C5740 1.465 . S
C5746 C5745 1.396 . S
C5746 C5747 1.399 . S
C5747 H5733 0.929 . S
C5747 C5746 1.399 . S
C5747 C5748 1.385 . S
C5748 H5734 0.931 . S
C5748 C5747 1.385 . S
C5748 C5749 1.389 . S
C5749 C5748 1.389 . S
C5749 C5750 1.387 . S
C5750 H5735 0.930 . S
C5750 C5745 1.390 . S
C5750 C5749 1.387 . S
H5751 C5763 0.930 . S
H5752 C5765 0.930 . S
H5753 C5766 0.930 . S
H5754 C5770 0.959 . S
H5755 C5770 0.959 . S
H5756 C5770 0.961 . S
H5757 C5771 0.960 . S
H5758 C5771 0.961 . S
H5759 C5771 0.959 . S
H5760 C5774 0.929 . S
H5761 C5775 0.931 . S
H5762 C5777 0.930 . S
C5763 H5751 0.930 . S
C5763 C5764 1.399 . S
C5763 C5768 1.399 . S
C5764 C5763 1.399 . S
C5764 C5765 1.376 . S
C5765 H5752 0.930 . S
C5765 C5764 1.376 . S
C5765 C5766 1.388 . S
C5766 H5753 0.930 . S
C5766 C5765 1.388 . S
C5766 C5767 1.390 . S
C5767 C5766 1.390 . S
C5767 C5768 1.394 . S
C5767 C5773 1.465 . S
C5768 C5763 1.399 . S
C5768 C5767 1.394 . S
C5768 C5769 1.516 . S
C5769 C5768 1.516 . S
C5769 C5770 1.502 . S
C5769 C5771 1.561 . S
C5769 C5772 1.526 . S
C5770 H5754 0.959 . S
C5770 H5755 0.959 . S
C5770 H5756 0.961 . S
C5770 C5769 1.502 . S
C5771 H5757 0.960 . S
C5771 H5758 0.961 . S
C5771 H5759 0.959 . S
C5771 C5769 1.561 . S
C5772 C5769 1.526 . S
C5772 C5773 1.396 . S
C5772 C5777 1.390 . S
C5773 C5767 1.465 . S
C5773 C5772 1.396 . S
C5773 C5774 1.399 . S
C5774 H5760 0.929 . S
C5774 C5773 1.399 . S
C5774 C5775 1.385 . S
C5775 H5761 0.931 . S
C5775 C5774 1.385 . S
C5775 C5776 1.389 . S
C5776 C5775 1.389 . S
C5776 C5777 1.387 . S
C5777 H5762 0.930 . S
C5777 C5772 1.390 . S
C5777 C5776 1.387 . S
H5778 C5790 0.930 . S
H5779 C5792 0.930 . S
H5780 C5793 0.930 . S
H5781 C5797 0.959 . S
H5782 C5797 0.959 . S
H5783 C5797 0.961 . S
H5784 C5798 0.960 . S
H5785 C5798 0.961 . S
H5786 C5798 0.959 . S
H5787 C5801 0.929 . S
H5788 C5802 0.931 . S
H5789 C5804 0.930 . S
C5790 H5778 0.930 . S
C5790 C5791 1.399 . S
C5790 C5795 1.399 . S
C5791 C5790 1.399 . S
C5791 C5792 1.376 . S
C5792 H5779 0.930 . S
C5792 C5791 1.376 . S
C5792 C5793 1.388 . S
C5793 H5780 0.930 . S
C5793 C5792 1.388 . S
C5793 C5794 1.390 . S
C5794 C5793 1.390 . S
C5794 C5795 1.394 . S
C5794 C5800 1.465 . S
C5795 C5790 1.399 . S
C5795 C5794 1.394 . S
C5795 C5796 1.516 . S
C5796 C5795 1.516 . S
C5796 C5797 1.502 . S
C5796 C5798 1.561 . S
C5796 C5799 1.526 . S
C5797 H5781 0.959 . S
C5797 H5782 0.959 . S
C5797 H5783 0.961 . S
C5797 C5796 1.502 . S
C5798 H5784 0.960 . S
C5798 H5785 0.961 . S
C5798 H5786 0.959 . S
C5798 C5796 1.561 . S
C5799 C5796 1.526 . S
C5799 C5800 1.396 . S
C5799 C5804 1.390 . S
C5800 C5794 1.465 . S
C5800 C5799 1.396 . S
C5800 C5801 1.399 . S
C5801 H5787 0.929 . S
C5801 C5800 1.399 . S
C5801 C5802 1.385 . S
C5802 H5788 0.931 . S
C5802 C5801 1.385 . S
C5802 C5803 1.389 . S
C5803 C5802 1.389 . S
C5803 C5804 1.387 . S
C5804 H5789 0.930 . S
C5804 C5799 1.390 . S
C5804 C5803 1.387 . S
H5805 C5817 0.930 . S
H5806 C5819 0.930 . S
H5807 C5820 0.930 . S
H5808 C5824 0.959 . S
H5809 C5824 0.959 . S
H5810 C5824 0.961 . S
H5811 C5825 0.960 . S
H5812 C5825 0.961 . S
H5813 C5825 0.959 . S
H5814 C5828 0.929 . S
H5815 C5829 0.931 . S
H5816 C5831 0.930 . S
C5817 H5805 0.930 . S
C5817 C5818 1.399 . S
C5817 C5822 1.399 . S
C5818 C5817 1.399 . S
C5818 C5819 1.376 . S
C5819 H5806 0.930 . S
C5819 C5818 1.376 . S
C5819 C5820 1.388 . S
C5820 H5807 0.930 . S
C5820 C5819 1.388 . S
C5820 C5821 1.390 . S
C5821 C5820 1.390 . S
C5821 C5822 1.394 . S
C5821 C5827 1.465 . S
C5822 C5817 1.399 . S
C5822 C5821 1.394 . S
C5822 C5823 1.516 . S
C5823 C5822 1.516 . S
C5823 C5824 1.502 . S
C5823 C5825 1.561 . S
C5823 C5826 1.526 . S
C5824 H5808 0.959 . S
C5824 H5809 0.959 . S
C5824 H5810 0.961 . S
C5824 C5823 1.502 . S
C5825 H5811 0.960 . S
C5825 H5812 0.961 . S
C5825 H5813 0.959 . S
C5825 C5823 1.561 . S
C5826 C5823 1.526 . S
C5826 C5827 1.396 . S
C5826 C5831 1.390 . S
C5827 C5821 1.465 . S
C5827 C5826 1.396 . S
C5827 C5828 1.399 . S
C5828 H5814 0.929 . S
C5828 C5827 1.399 . S
C5828 C5829 1.385 . S
C5829 H5815 0.931 . S
C5829 C5828 1.385 . S
C5829 C5830 1.389 . S
C5830 C5829 1.389 . S
C5830 C5831 1.387 . S
C5831 H5816 0.930 . S
C5831 C5826 1.390 . S
C5831 C5830 1.387 . S
H5832 C5844 0.930 . S
H5833 C5846 0.930 . S
H5834 C5847 0.930 . S
H5835 C5851 0.959 . S
H5836 C5851 0.959 . S
H5837 C5851 0.961 . S
H5838 C5852 0.960 . S
H5839 C5852 0.961 . S
H5840 C5852 0.959 . S
H5841 C5855 0.929 . S
H5842 C5856 0.931 . S
H5843 C5858 0.930 . S
C5844 H5832 0.930 . S
C5844 C5845 1.399 . S
C5844 C5849 1.399 . S
C5845 C5844 1.399 . S
C5845 C5846 1.376 . S
C5846 H5833 0.930 . S
C5846 C5845 1.376 . S
C5846 C5847 1.388 . S
C5847 H5834 0.930 . S
C5847 C5846 1.388 . S
C5847 C5848 1.390 . S
C5848 C5847 1.390 . S
C5848 C5849 1.394 . S
C5848 C5854 1.465 . S
C5849 C5844 1.399 . S
C5849 C5848 1.394 . S
C5849 C5850 1.516 . S
C5850 C5849 1.516 . S
C5850 C5851 1.502 . S
C5850 C5852 1.561 . S
C5850 C5853 1.526 . S
C5851 H5835 0.959 . S
C5851 H5836 0.959 . S
C5851 H5837 0.961 . S
C5851 C5850 1.502 . S
C5852 H5838 0.960 . S
C5852 H5839 0.961 . S
C5852 H5840 0.959 . S
C5852 C5850 1.561 . S
C5853 C5850 1.526 . S
C5853 C5854 1.396 . S
C5853 C5858 1.390 . S
C5854 C5848 1.465 . S
C5854 C5853 1.396 . S
C5854 C5855 1.399 . S
C5855 H5841 0.929 . S
C5855 C5854 1.399 . S
C5855 C5856 1.385 . S
C5856 H5842 0.931 . S
C5856 C5855 1.385 . S
C5856 C5857 1.389 . S
C5857 C5856 1.389 . S
C5857 C5858 1.387 . S
C5858 H5843 0.930 . S
C5858 C5853 1.390 . S
C5858 C5857 1.387 . S
H5859 C5871 0.930 . S
H5860 C5873 0.930 . S
H5861 C5874 0.930 . S
H5862 C5878 0.959 . S
H5863 C5878 0.959 . S
H5864 C5878 0.961 . S
H5865 C5879 0.960 . S
H5866 C5879 0.961 . S
H5867 C5879 0.959 . S
H5868 C5882 0.929 . S
H5869 C5883 0.931 . S
H5870 C5885 0.930 . S
C5871 H5859 0.930 . S
C5871 C5872 1.399 . S
C5871 C5876 1.399 1_655 S
C5872 C5871 1.399 . S
C5872 C5873 1.376 . S
C5873 H5860 0.930 . S
C5873 C5872 1.376 . S
C5873 C5874 1.388 . S
C5874 H5861 0.930 . S
C5874 C5873 1.388 . S
C5874 C5875 1.390 1_655 S
C5875 C5874 1.390 1_455 S
C5875 C5876 1.394 . S
C5875 C5881 1.465 . S
C5876 C5871 1.399 1_455 S
C5876 C5875 1.394 . S
C5876 C5877 1.516 . S
C5877 C5876 1.516 . S
C5877 C5878 1.502 . S
C5877 C5879 1.561 . S
C5877 C5880 1.526 . S
C5878 H5862 0.959 . S
C5878 H5863 0.959 . S
C5878 H5864 0.961 . S
C5878 C5877 1.502 . S
C5879 H5865 0.960 . S
C5879 H5866 0.961 . S
C5879 H5867 0.959 . S
C5879 C5877 1.561 . S
C5880 C5877 1.526 . S
C5880 C5881 1.396 . S
C5880 C5885 1.390 . S
C5881 C5875 1.465 . S
C5881 C5880 1.396 . S
C5881 C5882 1.399 . S
C5882 H5868 0.929 . S
C5882 C5881 1.399 . S
C5882 C5883 1.385 . S
C5883 H5869 0.931 . S
C5883 C5882 1.385 . S
C5883 C5884 1.389 . S
C5884 C5883 1.389 . S
C5884 C5885 1.387 . S
C5885 H5870 0.930 . S
C5885 C5880 1.390 . S
C5885 C5884 1.387 . S
H5886 C5898 0.930 . S
H5887 C5900 0.930 . S
H5888 C5901 0.930 . S
H5889 C5905 0.959 . S
H5890 C5905 0.959 . S
H5891 C5905 0.961 . S
H5892 C5906 0.960 . S
H5893 C5906 0.961 . S
H5894 C5906 0.959 . S
H5895 C5909 0.929 . S
H5896 C5910 0.931 . S
H5897 C5912 0.930 . S
C5898 H5886 0.930 . S
C5898 C5899 1.399 . S
C5898 C5903 1.399 . S
C5899 C5898 1.399 . S
C5899 C5900 1.376 . S
C5900 H5887 0.930 . S
C5900 C5899 1.376 . S
C5900 C5901 1.388 . S
C5901 H5888 0.930 . S
C5901 C5900 1.388 . S
C5901 C5902 1.390 . S
C5902 C5901 1.390 . S
C5902 C5903 1.394 . S
C5902 C5908 1.465 . S
C5903 C5898 1.399 . S
C5903 C5902 1.394 . S
C5903 C5904 1.516 . S
C5904 C5903 1.516 . S
C5904 C5905 1.502 . S
C5904 C5906 1.561 . S
C5904 C5907 1.526 . S
C5905 H5889 0.959 . S
C5905 H5890 0.959 . S
C5905 H5891 0.961 . S
C5905 C5904 1.502 . S
C5906 H5892 0.960 . S
C5906 H5893 0.961 . S
C5906 H5894 0.959 . S
C5906 C5904 1.561 . S
C5907 C5904 1.526 . S
C5907 C5908 1.396 . S
C5907 C5912 1.390 . S
C5908 C5902 1.465 . S
C5908 C5907 1.396 . S
C5908 C5909 1.399 . S
C5909 H5895 0.929 . S
C5909 C5908 1.399 . S
C5909 C5910 1.385 . S
C5910 H5896 0.931 . S
C5910 C5909 1.385 . S
C5910 C5911 1.389 . S
C5911 C5910 1.389 . S
C5911 C5912 1.387 . S
C5912 H5897 0.930 . S
C5912 C5907 1.390 . S
C5912 C5911 1.387 . S
H5913 C5925 0.930 . S
H5914 C5927 0.930 . S
H5915 C5928 0.930 1_545 S
H5916 C5932 0.959 . S
H5917 C5932 0.959 . S
H5918 C5932 0.961 1_565 S
H5919 C5933 0.960 . S
H5920 C5933 0.961 . S
H5921 C5933 0.959 . S
H5922 C5936 0.929 . S
H5923 C5937 0.931 . S
H5924 C5939 0.930 . S
C5925 H5913 0.930 . S
C5925 C5926 1.399 . S
C5925 C5930 1.399 . S
C5926 C5925 1.399 . S
C5926 C5927 1.376 . S
C5927 H5914 0.930 . S
C5927 C5926 1.376 . S
C5927 C5928 1.388 . S
C5928 H5915 0.930 1_565 S
C5928 C5927 1.388 . S
C5928 C5929 1.390 1_565 S
C5929 C5928 1.390 1_545 S
C5929 C5930 1.394 1_545 S
C5929 C5935 1.465 . S
C5930 C5925 1.399 . S
C5930 C5929 1.394 1_565 S
C5930 C5931 1.516 1_565 S
C5931 C5930 1.516 1_545 S
C5931 C5932 1.502 . S
C5931 C5933 1.561 . S
C5931 C5934 1.526 . S
C5932 H5916 0.959 . S
C5932 H5917 0.959 . S
C5932 H5918 0.961 1_545 S
C5932 C5931 1.502 . S
C5933 H5919 0.960 . S
C5933 H5920 0.961 . S
C5933 H5921 0.959 . S
C5933 C5931 1.561 . S
C5934 C5931 1.526 . S
C5934 C5935 1.396 . S
C5934 C5939 1.390 . S
C5935 C5929 1.465 . S
C5935 C5934 1.396 . S
C5935 C5936 1.399 . S
C5936 H5922 0.929 . S
C5936 C5935 1.399 . S
C5936 C5937 1.385 . S
C5937 H5923 0.931 . S
C5937 C5936 1.385 . S
C5937 C5938 1.389 . S
C5938 C5937 1.389 . S
C5938 C5939 1.387 . S
C5939 H5924 0.930 . S
C5939 C5934 1.390 . S
C5939 C5938 1.387 . S
C3037 C2342 1.891 . S
C3049 C74 1.875 . S
C3064 C2426 1.876 . S
C3076 C158 1.861 1_655 S
C3091 C242 1.882 . S
C3103 C2510 1.894 . S
C3118 C326 1.859 . S
C3130 C1082 1.874 . S
C3145 C410 1.885 . S
C3157 C1166 1.894 . S
C3172 C1250 1.866 . S
C3184 C494 1.859 1_565 S
C3199 C567 1.880 1_565 S
C3211 C1827 1.858 . S
C3226 C1911 1.858 . S
C3238 C651 1.876 . S
C3253 C735 1.895 . S
C3265 C1995 1.874 . S
C3280 C2583 1.896 . S
C3292 C819 1.875 1_655 S
C3307 C903 1.890 . S
C3319 C2667 1.888 . S
C3334 C2751 1.872 . S
C3346 C987 1.860 . S
C3361 C2090 1.886 . S
C3373 C1334 1.869 . S
C3388 C1418 1.873 . S
C3400 C2174 1.860 . S
C3415 C2258 1.867 . S
C3427 C1502 1.885 . S
C3442 C1575 1.890 . S
C3454 C2835 1.863 . S
C3469 C1659 1.857 . S
C3481 C2919 1.881 . S
C3496 C3003 1.867 . S
C3508 C1743 1.893 . S
C3523 C63 1.818 . S
C3535 C578 1.732 . S
C3550 C662 1.732 . S
C3562 C147 1.819 . S
C3577 C231 1.745 . S
C3589 C746 1.795 . S
C3604 C830 1.805 . S
C3616 C315 1.758 . S
C3631 C399 1.816 . S
C3643 C914 1.742 . S
C3658 C998 1.783 . S
C3670 C483 1.783 . S
C3685 C1586 1.760 . S
C3697 C1071 1.803 . S
C3712 C1155 1.756 . S
C3724 C1670 1.806 . S
C3739 C1754 1.739 . S
C3751 C1239 1.802 . S
C3766 C1323 1.804 . S
C3778 C1838 1.760 . S
C3793 C1922 1.817 . S
C3805 C1407 1.733 . S
C3820 C1491 1.817 . S
C3832 C2006 1.732 . S
C3847 C2079 1.732 . S
C3859 C2594 1.819 . S
C3874 C2678 1.817 . S
C3886 C2163 1.732 . S
C3901 C2762 1.743 . S
C3913 C2247 1.797 . S
C3928 C2846 1.736 . S
C3940 C2331 1.806 . S
C3955 C2415 1.765 . S
C3967 C2930 1.799 . S
C3982 C2499 1.819 . S
C3994 C3014 1.734 . S
C4009 C58 1.488 . S
C4021 C235 1.729 . S
C4036 C142 1.581 . S
C4048 C67 1.699 . S
C4063 C151 1.713 . S
C4075 C226 1.497 . S
C4090 C310 1.509 . S
C4102 C403 1.735 . S
C4117 C487 1.716 . S
C4129 C394 1.597 . S
C4144 C319 1.715 . S
C4156 C478 1.495 . S
C4171 C728 1.698 . S
C4183 C573 1.596 . S
C4198 C657 1.603 . S
C4210 C560 1.701 . S
C4225 C741 1.580 . S
C4237 C644 1.715 . S
C4252 C896 1.699 . S
C4264 C825 1.580 . S
C4279 C909 1.582 . S
C4291 C980 1.714 . S
C4306 C993 1.587 . S
C4318 C812 1.712 . S
C4333 C1243 1.712 . S
C4345 C1066 1.499 . S
C4360 C1075 1.715 . S
C4372 C1150 1.495 . S
C4387 C1159 1.727 . S
C4399 C1234 1.578 1_655 S
C4414 C1411 1.701 . S
C4426 C1318 1.594 . S
C4441 C1402 1.499 . S
C4453 C1495 1.734 . S
C4468 C1327 1.718 . S
C4480 C1486 1.491 . S
C4495 C1581 1.580 . S
C4507 C1736 1.715 . S
C4522 C1568 1.736 . S
C4534 C1665 1.494 . S
C4549 C1749 1.510 . S
C4561 C1652 1.719 . S
C4576 C1904 1.735 . S
C4588 C1833 1.491 . S
C4603 C1988 1.699 . S
C4615 C1917 1.600 . S
C4630 C1820 1.698 . S
C4642 C2001 1.599 1_655 S
C4657 C2251 1.709 . S
C4669 C2074 1.506 . S
C4684 C2158 1.584 . S
C4696 C2083 1.699 . S
C4711 C2167 1.719 . S
C4723 C2242 1.489 . S
C4738 C2326 1.515 . S
C4750 C2419 1.735 . S
C4765 C2410 1.591 1_565 S
C4777 C2503 1.701 . S
C4792 C2335 1.709 . S
C4804 C2494 1.601 . S
C4819 C2589 1.513 . S
C4831 C2744 1.718 . S
C4846 C2673 1.501 1_565 S
C4858 C2576 1.723 . S
C4873 C2660 1.700 . S
C4885 C2757 1.601 . S
C4900 C2841 1.490 . S
C4912 C2912 1.728 . S
C4927 C2996 1.698 . S
C4939 C2925 1.597 . S
C4954 C2828 1.736 . S
C4966 C3009 1.494 . S
C4981 C224 1.074 . S
C4993 C69 0.889 . S
C5008 C153 0.883 . S
C5020 C56 1.091 . S
C5035 C140 1.068 . S
C5047 C237 1.027 . S
C5062 C392 1.064 . S
C5074 C321 1.036 . S
C5089 C405 1.044 . S
C5101 C476 1.045 . S
C5116 C489 1.046 . S
C5128 C308 1.045 . S
C5143 C739 1.044 . S
C5155 C562 1.056 . S
C5170 C646 1.027 . S
C5182 C571 1.054 . S
C5197 C655 1.091 . S
C5209 C730 0.871 . S
C5224 C907 1.069 . S
C5236 C814 0.969 . S
C5251 C991 1.045 . S
C5263 C898 1.056 . S
C5278 C823 1.090 . S
C5290 C982 0.874 . S
C5305 C1077 0.972 . S
C5317 C1232 1.082 . S
C5332 C1161 0.890 . S
C5344 C1064 1.091 . S
C5359 C1245 0.885 . S
C5371 C1148 1.091 . S
C5386 C1400 1.084 . S
C5398 C1329 0.872 . S
C5413 C1413 0.919 . S
C5425 C1484 1.089 . S
C5440 C1497 0.892 . S
C5452 C1316 1.091 . S
C5467 C1747 1.091 . S
C5479 C1570 0.871 . S
C5494 C1579 1.078 . S
C5506 C1654 0.933 . S
C5521 C1738 0.923 . S
C5533 C1663 1.080 . S
C5548 C1915 1.073 . S
C5560 C1822 0.954 . S
C5575 C1906 0.997 . S
C5587 C1999 1.060 . S
C5602 C1990 1.018 . S
C5614 C1831 1.057 . S
C5629 C2085 0.881 . S
C5641 C2240 1.091 . S
C5656 C2072 1.075 . S
C5668 C2169 0.888 . S
C5683 C2156 1.068 . S
C5695 C2253 0.907 . S
C5710 C2408 1.072 . S
C5722 C2337 1.012 . S
C5737 C2421 0.884 . S
C5749 C2492 1.091 . S
C5764 C2505 0.898 . S
C5776 C2324 1.091 . S
C5791 C2755 1.089 . S
C5803 C2578 0.882 . S
C5818 C2587 1.048 . S
C5830 C2662 1.041 . S
C5845 C2746 0.918 . S
C5857 C2671 1.079 . S
C5872 C2923 1.075 . S
C5884 C2830 0.946 . S
C5899 C2914 0.895 . S
C5911 C3007 1.084 . S
C5926 C2998 1.021 . S
C5938 C2839 1.056 . S
