# Generated by pormake.
# Topology snk, (6)-cn, num edge types: 1
# Building blocks:
#     Node 0, Type 0, BuildingBlock: BETFAJ_clean_sbu_0, # of connection points: 6
#     Node 1, Type 0, BuildingBlock: BETFAJ_clean_sbu_0, # of connection points: 6
#     Node 2, Type 0, BuildingBlock: BETFAJ_clean_sbu_0, # of connection points: 6
#     Node 3, Type 0, BuildingBlock: BETFAJ_clean_sbu_0, # of connection points: 6
#     Node 4, Type 0, BuildingBlock: BETFAJ_clean_sbu_0, # of connection points: 6
#     Node 5, Type 0, BuildingBlock: BETFAJ_clean_sbu_0, # of connection points: 6
#     Node 6, Type 0, BuildingBlock: BETFAJ_clean_sbu_0, # of connection points: 6
#     Node 7, Type 0, BuildingBlock: BETFAJ_clean_sbu_0, # of connection points: 6
#     Edge 8, Type (0, 0), BuildingBlock: MIFKUJ_clean_linker_0, # of connection points: 2
#     Edge 9, Type (0, 0), BuildingBlock: MIFKUJ_clean_linker_0, # of connection points: 2
#     Edge 10, Type (0, 0), BuildingBlock: MIFKUJ_clean_linker_0, # of connection points: 2
#     Edge 11, Type (0, 0), BuildingBlock: MIFKUJ_clean_linker_0, # of connection points: 2
#     Edge 12, Type (0, 0), BuildingBlock: MIFKUJ_clean_linker_0, # of connection points: 2
#     Edge 13, Type (0, 0), BuildingBlock: MIFKUJ_clean_linker_0, # of connection points: 2
#     Edge 14, Type (0, 0), BuildingBlock: MIFKUJ_clean_linker_0, # of connection points: 2
#     Edge 15, Type (0, 0), BuildingBlock: MIFKUJ_clean_linker_0, # of connection points: 2
#     Edge 16, Type (0, 0), BuildingBlock: MIFKUJ_clean_linker_0, # of connection points: 2
#     Edge 17, Type (0, 0), BuildingBlock: MIFKUJ_clean_linker_0, # of connection points: 2
#     Edge 18, Type (0, 0), BuildingBlock: MIFKUJ_clean_linker_0, # of connection points: 2
#     Edge 19, Type (0, 0), BuildingBlock: MIFKUJ_clean_linker_0, # of connection points: 2
#     Edge 20, Type (0, 0), BuildingBlock: MIFKUJ_clean_linker_0, # of connection points: 2
#     Edge 21, Type (0, 0), BuildingBlock: MIFKUJ_clean_linker_0, # of connection points: 2
#     Edge 22, Type (0, 0), BuildingBlock: MIFKUJ_clean_linker_0, # of connection points: 2
#     Edge 23, Type (0, 0), BuildingBlock: MIFKUJ_clean_linker_0, # of connection points: 2
#     Edge 24, Type (0, 0), BuildingBlock: MIFKUJ_clean_linker_0, # of connection points: 2
#     Edge 25, Type (0, 0), BuildingBlock: MIFKUJ_clean_linker_0, # of connection points: 2
#     Edge 26, Type (0, 0), BuildingBlock: MIFKUJ_clean_linker_0, # of connection points: 2
#     Edge 27, Type (0, 0), BuildingBlock: MIFKUJ_clean_linker_0, # of connection points: 2
#     Edge 28, Type (0, 0), BuildingBlock: MIFKUJ_clean_linker_0, # of connection points: 2
#     Edge 29, Type (0, 0), BuildingBlock: MIFKUJ_clean_linker_0, # of connection points: 2
#     Edge 30, Type (0, 0), BuildingBlock: MIFKUJ_clean_linker_0, # of connection points: 2
#     Edge 31, Type (0, 0), BuildingBlock: MIFKUJ_clean_linker_0, # of connection points: 2
# Relax obj value: 0.080
# Max RMSD: 0.134
# Mean RMSD: 0.118
data_MOF--net-snk--node1-BETFAJ_clean_sbu_0--edge1-MIFKUJ_clean_linker_0
_symmetry_space_group_name_H-M    P1
_symmetry_Int_Tables_number       1
_symmetry_cell_setting            triclinic
loop_
_symmetry_equiv_pos_as_xyz
'x, y, z'
_cell_length_a     50.296592
_cell_length_b     50.364905
_cell_length_c     30.299582
_cell_angle_alpha  82.649289
_cell_angle_beta   97.463019
_cell_angle_gamma 88.948769
loop_
_atom_site_label
_atom_site_type_symbol
_atom_site_fract_x
_atom_site_fract_y
_atom_site_fract_z
_atom_type_partial_charge
Sm0 Sm 0.99499 0.99902 0.45895 0.0
Sm1 Sm 0.01612 0.01409 0.55678 0.0
C2 C 0.97352 0.9991 0.37418 0.0
C3 C 0.98066 1.00332 0.32819 0.0
C4 C 0.96194 0.01613 0.2933 0.0
C5 C 0.96746 0.01885 0.24891 0.0
C6 C 0.99175 0.00856 0.23852 0.0
C7 C 0.01072 0.99619 0.27373 0.0
C8 C 1.00529 0.9937 0.3182 0.0
C9 C 0.03893 0.97026 0.50484 0.0
C10 C 0.03906 0.04659 0.46757 0.0
C11 C 0.04248 0.02116 0.63541 0.0
C12 C 0.03752 0.02023 0.68244 0.0
C13 C 0.05798 0.01063 0.71705 0.0
C14 C 0.05375 0.00948 0.76195 0.0
C15 C 0.02899 0.01802 0.77305 0.0
C16 C 0.00848 0.02764 0.73826 0.0
C17 C 0.01265 0.02858 0.69331 0.0
C18 C 0.96453 0.03047 0.5235 0.0
C19 C 0.97425 0.96593 0.546 0.0
O20 O 0.97279 0.02014 0.39527 0.0
O21 O 0.98375 0.97763 0.40018 0.0
O22 O 0.03388 0.9947 0.5045 0.0
O23 O 0.0213 0.9599 0.47737 0.0
O24 O 0.02492 0.03144 0.44113 0.0
O25 O 0.0388 0.0439 0.51169 0.0
O26 O 0.04247 0.99811 0.61951 0.0
O27 O 0.0306 0.04087 0.60661 0.0
O28 O 0.9839 0.02963 0.50143 0.0
O29 O 0.97277 0.02646 0.56627 0.0
O30 O 0.99566 0.97378 0.57074 0.0
O31 O 0.9671 0.97611 0.50351 0.0
H32 H 0.9428 0.02361 0.30031 0.0
H33 H 0.95234 0.02829 0.22256 0.0
H34 H 0.02975 0.98838 0.26686 0.0
H35 H 0.02014 0.9839 0.34463 0.0
H36 H 0.07727 0.00402 0.70932 0.0
H37 H 0.06999 1.00222 0.78805 0.0
H38 H 0.98911 0.03411 0.74584 0.0
H39 H 0.99646 0.03583 0.6671 0.0
Sm40 Sm 0.24384 0.7416 0.83141 0.0
Sm41 Sm 0.25129 0.76529 0.73126 0.0
C42 C 0.24191 0.71648 0.9133 0.0
C43 C 0.24292 0.72299 0.95987 0.0
C44 C 0.26519 0.71426 0.99175 0.0
C45 C 0.26639 0.71977 0.03605 0.0
C46 C 0.24522 0.734 0.04972 0.0
C47 C 0.22293 0.74277 0.01771 0.0
C48 C 0.22179 0.73735 0.97333 0.0
C49 C 0.21214 0.78532 0.79307 0.0
C50 C 0.28164 0.7923 0.81734 0.0
C51 C 0.252 0.79242 0.65061 0.0
C52 C 0.25105 0.78696 0.6034 0.0
C53 C 0.22722 0.79204 0.57335 0.0
C54 C 0.22639 0.78791 0.52837 0.0
C55 C 0.24933 0.77837 0.51246 0.0
C56 C 0.27311 0.77312 0.54258 0.0
C57 C 0.27401 0.77749 0.58743 0.0
C58 C 0.28213 0.72076 0.76644 0.0
C59 C 0.21584 0.71252 0.74508 0.0
O60 O 0.26413 0.71903 0.89515 0.0
O61 O 0.22048 0.7244 0.88488 0.0
O62 O 0.21827 0.76583 0.77406 0.0
O63 O 0.22186 0.78196 0.83533 0.0
O64 O 0.27763 0.77045 0.8444 0.0
O65 O 0.27018 0.79662 0.77497 0.0
O66 O 0.23 0.7889 0.66928 0.0
O67 O 0.27378 0.78458 0.67827 0.0
O68 O 0.27629 0.73944 0.78774 0.0
O69 O 0.27482 0.72677 0.7236 0.0
O70 O 0.22086 0.73347 0.71675 0.0
O71 O 0.22454 0.70993 0.78879 0.0
H72 H 0.28173 0.70308 0.98241 0.0
H73 H 0.28404 0.71302 0.05952 0.0
H74 H 0.20607 0.75342 0.02709 0.0
H75 H 0.20425 0.74428 0.94972 0.0
H76 H 0.2092 0.79938 0.58456 0.0
H77 H 0.20769 0.79194 0.50614 0.0
H78 H 0.29123 0.76609 0.53127 0.0
H79 H 0.2928 0.77356 0.60945 0.0
Sm80 Sm 0.51665 0.99308 0.05259 0.0
Sm81 Sm 0.49465 0.01754 0.9576 0.0
C82 C 0.53615 0.98351 0.13933 0.0
C83 C 0.53022 0.98717 0.18496 0.0
C84 C 0.54894 0.99977 0.21318 0.0
C85 C 0.54485 1.00205 0.25739 0.0
C86 C 0.52193 0.99176 0.27447 0.0
C87 C 0.50308 0.97922 0.24626 0.0
C88 C 0.50712 0.97702 0.20186 0.0
C89 C 0.47702 0.96455 1.01025 0.0
C90 C 0.46707 0.0398 0.03699 0.0
C91 C 0.47659 0.02677 0.87039 0.0
C92 C 0.48466 0.02211 0.82634 0.0
C93 C 0.47934 0.99791 0.80894 0.0
C94 C 0.48491 0.99446 0.76584 0.0
C95 C 0.49595 0.01515 0.73879 0.0
C96 C 0.5021 0.03904 0.757 0.0
C97 C 0.49634 0.04254 0.79996 0.0
C98 C 0.53334 0.04675 1.00001 0.0
C99 C 0.54433 0.97092 0.97334 0.0
O100 O 0.54148 0.00486 0.11303 0.0
O101 O 0.52216 0.96643 0.11774 0.0
O102 O 0.47683 0.98971 1.00882 0.0
O103 O 0.49789 0.95351 0.03628 0.0
O104 O 0.48775 0.02756 0.06398 0.0
O105 O 0.46267 0.03622 0.9941 0.0
O106 O 0.47002 0.00604 0.89697 0.0
O107 O 0.49005 0.04406 0.89229 0.0
O108 O 0.53423 0.02153 1.00159 0.0
O109 O 0.51242 0.05734 0.97364 0.0
O110 O 0.52355 0.98299 0.94642 0.0
O111 O 0.54868 0.97457 0.01615 0.0
H112 H 0.56704 0.00752 0.20121 0.0
H113 H 0.55991 0.01139 0.27863 0.0
H114 H 0.4852 0.97117 0.25853 0.0
H115 H 0.49232 0.96713 0.18102 0.0
H116 H 0.47034 0.98177 0.82831 0.0
H117 H 0.47971 0.9758 0.75331 0.0
H118 H 0.51124 0.05525 0.73802 0.0
H119 H 0.50071 0.06147 0.81224 0.0
Sm120 Sm 0.24669 0.26633 0.2134 0.0
Sm121 Sm 0.26971 0.24329 0.30985 0.0
C122 C 0.24095 0.28652 0.12718 0.0
C123 C 0.24554 0.27916 0.08287 0.0
C124 C 0.2601 0.29621 0.05529 0.0
C125 C 0.26362 0.29057 0.01232 0.0
C126 C 0.25252 0.26776 0.99578 0.0
C127 C 0.23836 0.2504 0.02382 0.0
C128 C 0.23497 0.25599 0.06695 0.0
C129 C 0.21565 0.22905 0.25408 0.0
C130 C 0.29094 0.21415 0.23054 0.0
C131 C 0.27693 0.22315 0.39622 0.0
C132 C 0.2724 0.22943 0.44124 0.0
C133 C 0.25858 0.21139 0.46852 0.0
C134 C 0.25581 0.21569 0.51249 0.0
C135 C 0.26695 0.2381 0.53036 0.0
C136 C 0.28034 0.25644 0.50265 0.0
C137 C 0.28299 0.2522 0.45858 0.0
C138 C 0.30012 0.28146 0.26901 0.0
C139 C 0.22455 0.29459 0.29267 0.0
O140 O 0.26226 0.2898 0.1554 0.0
O141 O 0.22174 0.2748 0.14675 0.0
O142 O 0.24097 0.22738 0.25713 0.0
O143 O 0.20588 0.24984 0.22647 0.0
O144 O 0.27787 0.23381 0.20234 0.0
O145 O 0.28922 0.21156 0.27413 0.0
O146 O 0.25587 0.2185 0.36844 0.0
O147 O 0.29502 0.23653 0.37621 0.0
O148 O 0.27486 0.28246 0.26644 0.0
O149 O 0.31031 0.26065 0.29609 0.0
O150 O 0.23663 0.27409 0.32032 0.0
O151 O 0.22798 0.29833 0.24969 0.0
H152 H 0.26841 0.31422 0.06674 0.0
H153 H 0.27438 0.30454 0.99155 0.0
H154 H 0.22987 0.23248 0.0124 0.0
H155 H 0.22383 0.24232 0.08757 0.0
H156 H 0.25038 0.1936 0.45611 0.0
H157 H 0.24563 0.201 0.53294 0.0
H158 H 0.28884 0.27409 0.51509 0.0
H159 H 0.29368 0.26655 0.43838 0.0
Sm160 Sm 0.75256 0.24108 0.30835 0.0
Sm161 Sm 0.76223 0.26542 0.21085 0.0
C162 C 0.74994 0.21266 0.38726 0.0
C163 C 0.75174 0.21649 0.43527 0.0
C164 C 0.7759 0.22306 0.45971 0.0
C165 C 0.77707 0.22638 0.50513 0.0
C166 C 0.75413 0.22318 0.5272 0.0
C167 C 0.73006 0.2164 0.50265 0.0
C168 C 0.72894 0.21299 0.45736 0.0
C169 C 0.72782 0.28996 0.27896 0.0
C170 C 0.79313 0.29028 0.29522 0.0
C171 C 0.75817 0.28689 0.12535 0.0
C172 C 0.75773 0.2791 0.07959 0.0
C173 C 0.73376 0.27219 0.05493 0.0
C174 C 0.73339 0.2666 1.01071 0.0
C175 C 0.75692 0.26786 0.99006 0.0
C176 C 0.7809 0.27447 0.01499 0.0
C177 C 0.78127 0.28012 0.05905 0.0
C178 C 0.79916 0.22745 0.25449 0.0
C179 C 0.72231 0.2148 0.22143 0.0
O180 O 0.77202 0.21454 0.3684 0.0
O181 O 0.72871 0.22329 0.36071 0.0
O182 O 0.73048 0.27166 0.25499 0.0
O183 O 0.73577 0.28177 0.32103 0.0
O184 O 0.78929 0.26738 0.32007 0.0
O185 O 0.78041 0.29655 0.25401 0.0
O186 O 0.73735 0.28165 0.14642 0.0
O187 O 0.7809 0.28331 0.15207 0.0
O188 O 0.77436 0.22709 0.25545 0.0
O189 O 0.80554 0.24703 0.22615 0.0
O190 O 0.73674 0.22955 0.19474 0.0
O191 O 0.7237 0.21657 0.26491 0.0
H192 H 0.79395 0.22562 0.44386 0.0
H193 H 0.79605 0.23116 0.52306 0.0
H194 H 0.7119 0.2141 0.51822 0.0
H195 H 0.71011 0.20771 0.43948 0.0
H196 H 0.71518 0.27154 0.06945 0.0
H197 H 0.71448 0.26203 0.9923 0.0
H198 H 0.79947 0.2753 1.00043 0.0
H199 H 0.80002 0.28562 0.07687 0.0
Sm200 Sm 0.74296 0.76514 0.70806 0.0
Sm201 Sm 0.76849 0.74441 0.80265 0.0
C202 C 0.73176 0.78306 0.62102 0.0
C203 C 0.73569 0.77685 0.5757 0.0
C204 C 0.76133 0.77386 0.56287 0.0
C205 C 0.76424 0.76986 0.51871 0.0
C206 C 0.74156 0.76859 0.48645 0.0
C207 C 0.71596 0.77087 0.49999 0.0
C208 C 0.7131 0.77508 0.5439 0.0
C209 C 0.71329 0.72871 0.75439 0.0
C210 C 0.78801 0.71398 0.7239 0.0
C211 C 0.77881 0.72613 0.88962 0.0
C212 C 0.77457 0.73255 0.93475 0.0
C213 C 0.74887 0.73348 0.94828 0.0
C214 C 0.74577 0.73754 0.99232 0.0
C215 C 0.76828 0.74072 0.0239 0.0
C216 C 0.79386 0.74043 1.00978 0.0
C217 C 0.79694 0.7363 0.96591 0.0
C218 C 0.79898 0.77966 0.75594 0.0
C219 C 0.72341 0.79574 0.78656 0.0
O220 O 0.75239 0.79064 0.64685 0.0
O221 O 0.71606 0.7676 0.64319 0.0
O222 O 0.73834 0.72679 0.7543 0.0
O223 O 0.70293 0.74979 0.72829 0.0
O224 O 0.77523 0.73395 0.69596 0.0
O225 O 0.78601 0.71136 0.76738 0.0
O226 O 0.75813 0.71908 0.86326 0.0
O227 O 0.79517 0.74102 0.86791 0.0
O228 O 0.77391 0.78247 0.75596 0.0
O229 O 0.80879 0.75857 0.78267 0.0
O230 O 0.73705 0.77645 0.81483 0.0
O231 O 0.72443 0.79774 0.74286 0.0
H232 H 0.77916 0.77502 0.58671 0.0
H233 H 0.78429 0.76844 0.50965 0.0
H234 H 0.69799 0.76939 0.47666 0.0
H235 H 0.69309 0.77725 0.55293 0.0
H236 H 0.73118 0.73059 0.92515 0.0
H237 H 0.72577 0.7374 1.00194 0.0
H238 H 0.81163 0.74334 0.03271 0.0
H239 H 0.81698 0.73564 0.9565 0.0
Sm240 Sm 0.49645 0.48969 0.95343 0.0
Sm241 Sm 0.52222 0.50379 0.04631 0.0
C242 C 0.47376 0.48834 0.86971 0.0
C243 C 0.48035 0.49017 0.82318 0.0
C244 C 0.49162 0.51306 0.80234 0.0
C245 C 0.49677 0.51436 0.75773 0.0
C246 C 0.49092 0.49277 0.73318 0.0
C247 C 0.47983 0.4699 0.75432 0.0
C248 C 0.47453 0.46867 0.79869 0.0
C249 C 0.53861 0.45704 0.99624 0.0
C250 C 0.54594 0.53264 0.9594 0.0
C251 C 0.54515 0.50403 0.13021 0.0
C252 C 0.53847 0.50238 0.1767 0.0
C253 C 0.52764 0.47936 0.19797 0.0
C254 C 0.52244 0.47819 0.24254 0.0
C255 C 0.52785 0.50003 0.26668 0.0
C256 C 0.53855 0.52302 0.24515 0.0
C257 C 0.54387 0.52413 0.20081 0.0
C258 C 0.47942 0.53603 1.00462 0.0
C259 C 0.47254 0.46135 0.0406 0.0
O260 O 0.47455 0.51015 0.88925 0.0
O261 O 0.48285 0.46692 0.89702 0.0
O262 O 0.53714 0.48205 0.99382 0.0
O263 O 0.51758 0.44807 0.9742 0.0
O264 O 0.52441 0.52469 0.93505 0.0
O265 O 0.55203 0.52355 1.0025 0.0
O266 O 0.5434 0.48236 0.11033 0.0
O267 O 0.53699 0.52582 0.1031 0.0
O268 O 0.48143 0.51114 1.00602 0.0
O269 O 0.49964 0.54502 0.02875 0.0
O270 O 0.49459 0.46857 0.06448 0.0
O271 O 0.46612 0.47093 0.9977 0.0
H272 H 0.49639 0.52996 0.82036 0.0
H273 H 0.50554 0.53218 0.74256 0.0
H274 H 0.47471 0.45308 0.73625 0.0
H275 H 0.46564 0.4509 0.81382 0.0
H276 H 0.52325 0.46223 0.18033 0.0
H277 H 0.514 0.46026 0.258 0.0
H278 H 0.54335 0.54003 0.26289 0.0
H279 H 0.55247 0.542 0.1854 0.0
Sm280 Sm 0.01658 0.48926 0.55885 0.0
Sm281 Sm 0.99671 0.51696 0.46382 0.0
C282 C 0.03437 0.47704 0.64583 0.0
C283 C 0.02914 0.48181 0.69132 0.0
C284 C 0.02711 0.50774 0.70347 0.0
C285 C 0.02384 0.51137 0.74768 0.0
C286 C 0.02253 0.48918 0.78072 0.0
C287 C 0.02404 0.46332 0.768 0.0
C288 C 0.02737 0.45972 0.72397 0.0
C289 C 0.97986 0.46144 0.50961 0.0
C290 C 0.96661 0.53592 0.54333 0.0
C291 C 0.9793 0.5294 0.37677 0.0
C292 C 0.98556 0.52537 0.33149 0.0
C293 C 0.98919 0.4997 0.3191 0.0
C294 C 0.99338 0.49664 0.27507 0.0
C295 C 0.99408 0.51916 0.24243 0.0
C296 C 0.99103 0.54479 0.25543 0.0
C297 C 0.98675 0.54782 0.29928 0.0
C298 C 0.03355 0.54443 0.51378 0.0
C299 C 0.04643 0.47021 0.47868 0.0
O300 O 0.04347 0.49671 0.61999 0.0
O301 O 0.01729 0.46266 0.6237 0.0
O302 O 0.97854 0.48642 0.51074 0.0
O303 O 1.00024 0.45014 0.53664 0.0
O304 O 0.9862 0.52234 0.57118 0.0
O305 O 0.96404 0.53462 0.49961 0.0
O306 O 0.97092 0.50896 0.40191 0.0
O307 O 0.99524 0.54442 0.3997 0.0
O308 O 0.03474 0.51957 0.51186 0.0
O309 O 0.01315 0.55594 0.48705 0.0
O310 O 0.02727 0.48441 0.45092 0.0
O311 O 0.04871 0.47078 0.52262 0.0
H312 H 0.02843 0.5252 0.67906 0.0
H313 H 0.02298 0.53158 0.75618 0.0
H314 H 0.0226 0.44574 0.79208 0.0
H315 H 0.02886 0.43953 0.71551 0.0
H316 H 0.98841 0.48199 0.34321 0.0
H317 H 0.99541 0.47658 0.26638 0.0
H318 H 0.99198 0.56264 0.23171 0.0
H319 H 0.98406 0.56782 0.30794 0.0
H320 H 0.0747 0.0788 0.51008 0.0
H321 H 0.10574 0.1095 0.47625 0.0
H322 H 0.07559 0.08949 0.34518 0.0
H323 H 0.04478 0.05853 0.37863 0.0
H324 H 0.1291 0.08984 0.35561 0.0
H325 H 0.05717 0.14831 0.37892 0.0
H326 H 0.02568 0.1679 0.42286 0.0
H327 H 0.09182 0.1951 0.50802 0.0
H328 H 0.12373 0.1753 0.46497 0.0
H329 H 0.1617 0.23253 0.25255 0.0
H330 H 0.13315 0.20138 0.29131 0.0
H331 H 0.20274 0.15152 0.34969 0.0
H332 H 0.23149 0.18259 0.31003 0.0
H333 H 0.13034 0.18581 0.37728 0.0
H334 H 0.1838 0.08595 0.36108 0.0
H335 H 0.21213 0.06719 0.3111 0.0
H336 H 0.17723 0.12463 0.20077 0.0
H337 H 0.14848 0.14349 0.24995 0.0
C338 C 0.07456 0.08098 0.47402 0.0
C339 C 0.05716 0.06615 0.44713 0.0
C340 C 0.09233 0.09859 0.45472 0.0
C341 C 0.09296 0.1019 0.40812 0.0
C342 C 0.07558 0.08719 0.38123 0.0
C343 C 0.05785 0.06957 0.40046 0.0
C344 C 0.11168 0.12065 0.38724 0.0
C345 C 0.12944 0.1108 0.36053 0.0
C346 C 0.11199 0.14807 0.39319 0.0
C347 C 0.09284 0.16008 0.41902 0.0
C348 C 0.065 0.15828 0.40724 0.0
C349 C 0.04708 0.16945 0.43194 0.0
C350 C 0.05675 0.18268 0.46828 0.0
C351 C 0.08436 0.18482 0.47991 0.0
C352 C 0.10237 0.17363 0.45536 0.0
C353 C 0.17095 0.2149 0.27355 0.0
C354 C 0.19882 0.20992 0.27813 0.0
C355 C 0.1546 0.19718 0.29592 0.0
C356 C 0.16571 0.17401 0.32327 0.0
C357 C 0.19365 0.16911 0.32837 0.0
C358 C 0.21007 0.18689 0.30585 0.0
C359 C 0.14779 0.155 0.34569 0.0
C360 C 0.13021 0.16478 0.37275 0.0
C361 C 0.14727 0.12764 0.33933 0.0
C362 C 0.16425 0.1163 0.30934 0.0
C363 C 0.18214 0.09451 0.32613 0.0
C364 C 0.19827 0.08388 0.29795 0.0
C365 C 0.19655 0.09478 0.25283 0.0
C366 C 0.17862 0.11628 0.23576 0.0
C367 C 0.16244 0.12697 0.26379 0.0
H368 H 0.20906 0.08653 0.23108 0.0
H369 H 0.04284 0.19133 0.48736 0.0
H370 H 0.05235 0.91709 0.51234 0.0
H371 H 0.08818 0.89266 0.56565 0.0
H372 H 0.11078 0.96607 0.61746 0.0
H373 H 0.07619 0.99085 0.56256 0.0
H374 H 0.14889 0.90911 0.58195 0.0
H375 H 0.11476 0.93586 0.74353 0.0
H376 H 0.07465 0.95287 0.77136 0.0
H377 H 0.02382 0.91785 0.67094 0.0
H378 H 0.06355 0.89927 0.64427 0.0
H379 H 0.20656 0.83461 0.82081 0.0
H380 H 0.18334 0.87472 0.77614 0.0
H381 H 0.16147 0.82891 0.66667 0.0
H382 H 0.18423 0.78934 0.71059 0.0
H383 H 0.13037 0.88313 0.73838 0.0
H384 H 0.16847 0.86624 0.56755 0.0
H385 H 0.21006 0.85151 0.54165 0.0
H386 H 0.25599 0.86959 0.66304 0.0
H387 H 0.21485 0.8855 0.68901 0.0
C388 C 0.0652 0.928 0.53472 0.0
C389 C 0.06126 0.95564 0.53424 0.0
C390 C 0.08556 0.91412 0.56495 0.0
C391 C 0.10161 0.9277 0.59556 0.0
C392 C 0.09826 0.95539 0.59427 0.0
C393 C 0.07842 0.96937 0.56324 0.0
C394 C 0.12135 0.91254 0.62968 0.0
C395 C 0.14501 0.90328 0.61619 0.0
C396 C 0.11652 0.90645 0.6747 0.0
C397 C 0.09224 0.91681 0.69106 0.0
C398 C 0.09503 0.93171 0.72746 0.0
C399 C 0.07234 0.94152 0.7432 0.0
C400 C 0.04669 0.93674 0.72258 0.0
C401 C 0.0437 0.92172 0.68667 0.0
C402 C 0.06633 0.91149 0.67128 0.0
C403 C 0.19665 0.83328 0.78726 0.0
C404 C 0.19734 0.80916 0.76874 0.0
C405 C 0.18356 0.85608 0.76187 0.0
C406 C 0.17132 0.85479 0.71788 0.0
C407 C 0.17143 0.83044 0.70013 0.0
C408 C 0.18437 0.80786 0.72529 0.0
C409 C 0.15739 0.87828 0.69004 0.0
C410 C 0.1348 0.88937 0.70457 0.0
C411 C 0.16339 0.88636 0.64604 0.0
C412 C 0.1884 0.87696 0.63041 0.0
C413 C 0.18743 0.86736 0.58861 0.0
C414 C 0.21097 0.85884 0.57385 0.0
C415 C 0.23564 0.85957 0.60071 0.0
C416 C 0.23686 0.869 0.64229 0.0
C417 C 0.21342 0.87783 0.65701 0.0
H418 H 0.25382 0.85279 0.58932 0.0
H419 H 0.02916 0.94454 0.73461 0.0
H420 H 0.32304 0.78313 0.88513 0.0
H421 H 0.35345 0.81538 0.9154 0.0
H422 H 0.31143 0.87914 0.82212 0.0
H423 H 0.28174 0.84641 0.78991 0.0
H424 H 0.361 0.88789 0.82687 0.0
H425 H 0.3047 0.86815 0.93969 0.0
H426 H 0.28048 0.83995 0.99281 0.0
H427 H 0.35532 0.80637 0.0643 0.0
H428 H 0.38 0.83409 1.01122 0.0
H429 H 0.43203 0.98406 0.95319 0.0
H430 H 0.3964 0.95808 0.91738 0.0
H431 H 0.4378 0.88473 0.98169 0.0
H432 H 0.47338 0.91046 0.01706 0.0
H433 H 0.38404 0.88569 0.99151 0.0
H434 H 0.43852 0.90462 0.86913 0.0
H435 H 0.45974 0.93308 0.81197 0.0
H436 H 0.38349 0.97205 0.75926 0.0
H437 H 0.36184 0.94377 0.81601 0.0
C438 C 0.32021 0.80403 0.87111 0.0
C439 C 0.29988 0.81226 0.83534 0.0
C440 C 0.33752 0.82256 0.88871 0.0
C441 C 0.3344 0.84995 0.87204 0.0
C442 C 0.31423 0.85819 0.83587 0.0
C443 C 0.29724 0.83949 0.81748 0.0
C444 C 0.35272 0.86966 0.89174 0.0
C445 C 0.36558 0.88771 0.8629 0.0
C446 C 0.35893 0.86957 0.9388 0.0
C447 C 0.3442 0.85309 0.97124 0.0
C448 C 0.316 0.85465 0.96659 0.0
C449 C 0.30218 0.83876 0.99671 0.0
C450 C 0.31635 0.82134 0.03185 0.0
C451 C 0.34437 0.81986 0.03704 0.0
C452 C 0.35829 0.83569 1.00698 0.0
C453 C 0.43355 0.96239 0.95943 0.0
C454 C 0.45548 0.94928 0.98795 0.0
C455 C 0.41324 0.94757 0.93886 0.0
C456 C 0.41446 0.91942 0.94671 0.0
C457 C 0.43639 0.9064 0.97517 0.0
C458 C 0.45673 0.92115 0.99535 0.0
C459 C 0.39268 0.90329 0.92661 0.0
C460 C 0.37912 0.886 0.9555 0.0
C461 C 0.38535 0.90455 0.87968 0.0
C462 C 0.39865 0.9223 0.84705 0.0
C463 C 0.42636 0.91946 0.84565 0.0
C464 C 0.43842 0.93546 0.81318 0.0
C465 C 0.42295 0.95438 0.78206 0.0
C466 C 0.39543 0.9574 0.7834 0.0
C467 C 0.38326 0.94136 0.81561 0.0
H468 H 0.43222 0.96666 0.75677 0.0
H469 H 0.30561 0.80902 0.0551 0.0
H470 H 0.47617 0.06063 0.11668 0.0
H471 H 0.44687 0.08997 0.14854 0.0
H472 H 0.38662 0.0893 0.03367 0.0
H473 H 0.41652 0.06064 1.00059 0.0
H474 H 0.38825 0.13791 0.05607 0.0
H475 H 0.38311 0.05053 0.14458 0.0
H476 H 0.40385 0.00983 0.19139 0.0
H477 H 0.44292 0.05797 0.28592 0.0
H478 H 0.42217 0.09891 0.23995 0.0
H479 H 0.28288 0.19683 0.14797 0.0
H480 H 0.3113 0.16644 0.11626 0.0
H481 H 0.36749 0.15865 0.23801 0.0
H482 H 0.33782 0.18747 0.27102 0.0
H483 H 0.36841 0.11414 0.21207 0.0
H484 H 0.3752 0.20074 0.12911 0.0
H485 H 0.35809 0.24322 0.08366 0.0
H486 H 0.3213 0.19994 0.97999 0.0
H487 H 0.33796 0.15715 0.02505 0.0
C488 C 0.45666 0.0666 0.09807 0.0
C489 C 0.44874 0.05791 0.05605 0.0
C490 C 0.43973 0.08337 0.11662 0.0
C491 C 0.41398 0.09155 0.09437 0.0
C492 C 0.4062 0.08329 0.05197 0.0
C493 C 0.42335 0.06678 0.03302 0.0
C494 C 0.39536 0.10874 0.11513 0.0
C495 C 0.38362 0.13246 0.08996 0.0
C496 C 0.38983 0.10245 0.16001 0.0
C497 C 0.40117 0.07775 0.18876 0.0
C498 C 0.39602 0.05239 0.17547 0.0
C499 C 0.40775 0.02929 0.20189 0.0
C500 C 0.42463 0.0313 0.24169 0.0
C501 C 0.42967 0.05642 0.2553 0.0
C502 C 0.41785 0.07956 0.22918 0.0
C503 C 0.30123 0.18851 0.16812 0.0
C504 C 0.30805 0.19473 0.21206 0.0
C505 C 0.31776 0.17126 0.14969 0.0
C506 C 0.34234 0.1606 0.17379 0.0
C507 C 0.34888 0.16647 0.21816 0.0
C508 C 0.33186 0.18306 0.23715 0.0
C509 C 0.36107 0.14343 0.15296 0.0
C510 C 0.37289 0.11969 0.17812 0.0
C511 C 0.36712 0.15002 0.10833 0.0
C512 C 0.35764 0.17573 0.08064 0.0
C513 C 0.3634 0.20028 0.09668 0.0
C514 C 0.35377 0.22441 0.071 0.0
C515 C 0.33855 0.22427 0.02903 0.0
C516 C 0.33306 0.2 0.01253 0.0
C517 C 0.34263 0.17581 0.03809 0.0
H518 H 0.33106 0.24297 1.00926 0.0
H519 H 0.43384 0.01342 0.26196 0.0
H520 H 0.96267 0.96059 0.63192 0.0
H521 H 0.93179 0.92975 0.66572 0.0
H522 H 0.9168 0.89487 0.54219 0.0
H523 H 0.94608 0.92724 0.50738 0.0
H524 H 0.87318 0.89646 0.57102 0.0
H525 H 0.95991 0.86418 0.64374 0.0
H526 H 1.00496 0.86769 0.68535 0.0
H527 H 0.96971 0.89138 0.79663 0.0
H528 H 0.92442 0.88819 0.75551 0.0
H529 H 0.85089 0.77155 0.7446 0.0
H530 H 0.87993 0.80244 0.70656 0.0
H531 H 0.81484 0.86171 0.6752 0.0
H532 H 0.78532 0.83024 0.71208 0.0
H533 H 0.89897 0.84671 0.72319 0.0
H534 H 0.82035 0.90239 0.58327 0.0
H535 H 0.77946 0.89256 0.5344 0.0
H536 H 0.80606 0.81018 0.54593 0.0
H537 H 0.84681 0.81942 0.59524 0.0
C538 C 0.95285 0.94623 0.61213 0.0
C539 C 0.95689 0.94612 0.56718 0.0
C540 C 0.93527 0.92846 0.63153 0.0
C541 C 0.92224 0.90939 0.60701 0.0
C542 C 0.92645 0.9093 0.56201 0.0
C543 C 0.94333 0.92768 0.54216 0.0
C544 C 0.90416 0.88971 0.62802 0.0
C545 C 0.87893 0.88562 0.60431 0.0
C546 C 0.91162 0.87489 0.67108 0.0
C547 C 0.93879 0.87616 0.6964 0.0
C548 C 0.96177 0.8702 0.67704 0.0
C549 C 0.98735 0.87213 0.70054 0.0
C550 C 0.9902 0.87984 0.74354 0.0
C551 C 0.96747 0.88544 0.76328 0.0
C552 C 0.94184 0.88352 0.73995 0.0
C553 C 0.8427 0.79113 0.72938 0.0
C554 C 0.81586 0.79854 0.73141 0.0
C555 C 0.85938 0.80884 0.70773 0.0
C556 C 0.84971 0.83449 0.6878 0.0
C557 C 0.82276 0.84192 0.68963 0.0
C558 C 0.80591 0.824 0.7109 0.0
C559 C 0.86809 0.85349 0.66614 0.0
C560 C 0.8933 0.85756 0.68989 0.0
C561 C 0.86117 0.86727 0.62229 0.0
C562 C 0.83645 0.86156 0.59328 0.0
C563 C 0.81738 0.88217 0.57546 0.0
C564 C 0.79418 0.87667 0.54782 0.0
C565 C 0.79002 0.85069 0.53739 0.0
C566 C 0.80907 0.83018 0.55451 0.0
C567 C 0.83217 0.83552 0.58244 0.0
H568 H 0.77211 0.84647 0.51586 0.0
H569 H 0.01002 0.88145 0.76158 0.0
H570 H 0.93604 0.01825 0.44773 0.0
H571 H 0.90021 0.04641 0.40129 0.0
H572 H 0.89853 0.09617 0.50688 0.0
H573 H 0.9343 0.06775 0.55351 0.0
H574 H 0.84868 0.09453 0.45369 0.0
H575 H 0.94205 0.10856 0.43738 0.0
H576 H 0.98731 0.09447 0.42439 0.0
H577 H 0.95549 0.07603 0.2938 0.0
H578 H 0.90989 0.0892 0.30659 0.0
H579 H 0.82132 0.22446 0.3408 0.0
H580 H 0.8447 0.18533 0.38665 0.0
H581 H 0.84064 0.144 0.26972 0.0
H582 H 0.81684 0.18326 0.22382 0.0
H583 H 0.89034 0.13804 0.32421 0.0
H584 H 0.79719 0.12851 0.33853 0.0
H585 H 0.75209 0.14183 0.35332 0.0
H586 H 0.78402 0.1536 0.48756 0.0
H587 H 0.8294 0.14058 0.47346 0.0
C588 C 0.92742 0.03477 0.46131 0.0
C589 C 0.9382 0.04157 0.50318 0.0
C590 C 0.9069 0.05065 0.43505 0.0
C591 C 0.89744 0.07369 0.45036 0.0
C592 C 0.90583 0.07851 0.49455 0.0
C593 C 0.9262 0.06237 0.52107 0.0
C594 C 0.88306 0.09509 0.41811 0.0
C595 C 0.85773 0.10415 0.42545 0.0
C596 C 0.89499 0.10726 0.38107 0.0
C597 C 0.92248 0.09954 0.37319 0.0
C598 C 0.94465 0.10123 0.40609 0.0
C599 C 0.97037 0.0934 0.39878 0.0
C600 C 0.97425 0.08426 0.35837 0.0
C601 C 0.95243 0.08297 0.32518 0.0
C602 C 0.92663 0.09057 0.33248 0.0
C603 C 0.82581 0.20715 0.32493 0.0
C604 C 0.81757 0.20655 0.27917 0.0
C605 C 0.83895 0.18484 0.35104 0.0
C606 C 0.84385 0.16176 0.33153 0.0
C607 C 0.83681 0.16168 0.2852 0.0
C608 C 0.8235 0.184 0.25911 0.0
C609 C 0.85598 0.13762 0.35989 0.0
C610 C 0.88104 0.12816 0.35198 0.0
C611 C 0.84389 0.12526 0.39652 0.0
C612 C 0.81673 0.13366 0.40486 0.0
C613 C 0.79464 0.13413 0.37109 0.0
C614 C 0.76901 0.14152 0.37941 0.0
C615 C 0.76518 0.14834 0.42146 0.0
C616 C 0.78701 0.14809 0.45513 0.0
C617 C 0.81268 0.14069 0.447 0.0
H618 H 0.7453 0.15394 0.4279 0.0
H619 H 0.99417 0.07821 0.35275 0.0
H620 H 0.7309 0.18427 0.15637 0.0
H621 H 0.70012 0.15354 0.12175 0.0
H622 H 0.64091 0.17283 0.20509 0.0
H623 H 0.67262 0.2019 0.24214 0.0
H624 H 0.6355 0.12532 0.19722 0.0
H625 H 0.64114 0.20081 0.08816 0.0
H626 H 0.66214 0.23496 0.0393 0.0
H627 H 0.6938 0.17348 0.97279 0.0
H628 H 0.67334 0.13891 0.02174 0.0
H629 H 0.53564 0.10087 0.99042 0.0
H630 H 0.56813 0.12821 0.02941 0.0
H631 H 0.60915 0.05673 0.10223 0.0
H632 H 0.57693 0.02906 0.06211 0.0
H633 H 0.62206 0.13092 0.03116 0.0
H634 H 0.62717 0.07319 0.21353 0.0
H635 H 0.59659 0.05002 0.26201 0.0
H636 H 0.52876 0.09082 0.17854 0.0
H637 H 0.55886 0.11457 0.1302 0.0
C638 C 0.71137 0.18173 0.16745 0.0
C639 C 0.70403 0.19554 0.20169 0.0
C640 C 0.69365 0.16432 0.14742 0.0
C641 C 0.66774 0.16125 0.15975 0.0
C642 C 0.66068 0.17471 0.19474 0.0
C643 C 0.67877 0.19143 0.21585 0.0
C644 C 0.64789 0.14451 0.13573 0.0
C645 C 0.63279 0.1265 0.16092 0.0
C646 C 0.64335 0.14656 0.08815 0.0
C647 C 0.65591 0.16725 0.05891 0.0
C648 C 0.65277 0.19456 0.06336 0.0
C649 C 0.66455 0.21398 0.03564 0.0
C650 C 0.67929 0.20637 1.003 0.0
C651 C 0.68237 0.17932 0.99811 0.0
C652 C 0.67069 0.1598 0.02583 0.0
C653 C 0.55165 0.09091 0.01456 0.0
C654 C 0.55367 0.0628 0.02338 0.0
C655 C 0.57023 0.10659 0.03675 0.0
C656 C 0.591 0.09455 0.06884 0.0
C657 C 0.59315 0.06644 0.07778 0.0
C658 C 0.57476 0.05067 0.05492 0.0
C659 C 0.61032 0.11155 0.09277 0.0
C660 C 0.62521 0.12957 0.0675 0.0
C661 C 0.6135 0.11065 0.14 0.0
C662 C 0.59531 0.09535 0.16784 0.0
C663 C 0.60573 0.07712 0.20544 0.0
C664 C 0.58847 0.06397 0.23299 0.0
C665 C 0.56076 0.069 0.22336 0.0
C666 C 0.55022 0.08692 0.1859 0.0
C667 C 0.56737 0.10017 0.15836 0.0
H668 H 0.54743 0.05919 0.24505 0.0
H669 H 0.68819 0.22144 0.98134 0.0
H670 H 0.73051 0.81333 0.86921 0.0
H671 H 0.70142 0.84374 0.89971 0.0
H672 H 0.64622 0.85053 0.77688 0.0
H673 H 0.67649 0.82175 0.74517 0.0
H674 H 0.64459 0.8951 0.80125 0.0
H675 H 0.63787 0.80937 0.88633 0.0
H676 H 0.65447 0.76729 0.93355 0.0
H677 H 0.68967 0.81181 0.03671 0.0
H678 H 0.67355 0.85421 0.98985 0.0
H679 H 0.53578 0.9501 0.89346 0.0
H680 H 0.56536 0.92061 0.86232 0.0
H681 H 0.62498 0.9216 0.97798 0.0
H682 H 0.59481 0.95029 1.01031 0.0
H683 H 0.62369 0.87316 0.95694 0.0
H684 H 0.62768 0.95986 0.86539 0.0
H685 H 0.60699 0.99965 0.81592 0.0
H686 H 0.57097 0.94929 0.72231 0.0
H687 H 0.59151 0.90922 0.77114 0.0
C688 C 0.71224 0.82144 0.84859 0.0
C689 C 0.7059 0.81499 0.80468 0.0
C690 C 0.69531 0.8387 0.86632 0.0
C691 C 0.67084 0.84915 0.84149 0.0
C692 C 0.66475 0.84295 0.79725 0.0
C693 C 0.68212 0.82635 0.77901 0.0
C694 C 0.65177 0.86654 0.86129 0.0
C695 C 0.63987 0.88995 0.83515 0.0
C696 C 0.64536 0.86045 0.90579 0.0
C697 C 0.6547 0.83498 0.93439 0.0
C698 C 0.64925 0.8102 0.919 0.0
C699 C 0.65857 0.78629 0.9457 0.0
C700 C 0.67317 0.78689 0.98805 0.0
C701 C 0.67839 0.81139 1.00387 0.0
C702 C 0.66913 0.83537 0.97728 0.0
C703 C 0.55522 0.94415 0.91238 0.0
C704 C 0.56285 0.95289 0.95445 0.0
C705 C 0.57232 0.92731 0.89424 0.0
C706 C 0.59798 0.91914 0.91696 0.0
C707 C 0.60549 0.92756 0.95932 0.0
C708 C 0.58817 0.94411 0.97785 0.0
C709 C 0.61676 0.90166 0.89698 0.0
C710 C 0.62854 0.87824 0.9231 0.0
C711 C 0.62252 0.90737 0.8521 0.0
C712 C 0.61101 0.93155 0.82205 0.0
C713 C 0.61537 0.95729 0.83423 0.0
C714 C 0.6037 0.97989 0.80627 0.0
C715 C 0.5877 0.977 0.76597 0.0
C716 C 0.58346 0.95151 0.75342 0.0
C717 C 0.59519 0.92886 0.78115 0.0
H718 H 0.57857 0.99449 0.74447 0.0
H719 H 0.68038 0.76836 1.00864 0.0
H720 H 0.58913 0.55659 1.00017 0.0
H721 H 0.61809 0.58919 0.96561 0.0
H722 H 0.57287 0.58512 0.83578 0.0
H723 H 0.5437 0.55233 0.87007 0.0
H724 H 0.62758 0.58466 0.83274 0.0
H725 H 0.56198 0.63666 0.89042 0.0
H726 H 0.53615 0.6498 0.94849 0.0
H727 H 0.60907 0.6682 0.02741 0.0
H728 H 0.63537 0.65477 0.9701 0.0
H729 H 0.66006 0.73225 0.76109 0.0
H730 H 0.63261 0.6984 0.79668 0.0
H731 H 0.70246 0.6455 0.83566 0.0
H732 H 0.73012 0.67945 0.79993 0.0
H733 H 0.63485 0.67456 0.883 0.0
H734 H 0.68116 0.58084 0.82752 0.0
H735 H 0.70521 0.56858 0.76665 0.0
H736 H 0.66714 0.63563 0.6776 0.0
H737 H 0.6426 0.64806 0.73773 0.0
C738 C 0.58533 0.56249 0.96421 0.0
C739 C 0.56397 0.55186 0.93794 0.0
C740 C 0.60191 0.58122 0.94454 0.0
C741 C 0.59752 0.58977 0.89818 0.0
C742 C 0.57661 0.57881 0.87164 0.0
C743 C 0.55989 0.56014 0.89134 0.0
C744 C 0.61446 0.61054 0.87761 0.0
C745 C 0.62922 0.60429 0.84381 0.0
C746 C 0.61646 0.63625 0.89177 0.0
C747 C 0.60066 0.64445 0.92617 0.0
C748 C 0.57252 0.6433 0.92033 0.0
C749 C 0.55779 0.65083 0.95308 0.0
C750 C 0.57096 0.65976 0.99167 0.0
C751 C 0.59889 0.66124 0.99753 0.0
C752 C 0.61372 0.65368 0.96491 0.0
C753 C 0.6696 0.71343 0.77732 0.0
C754 C 0.69718 0.7084 0.77749 0.0
C755 C 0.6539 0.69414 0.7978 0.0
C756 C 0.6654 0.66933 0.81851 0.0
C757 C 0.69309 0.6644 0.81943 0.0
C758 C 0.70888 0.68381 0.79915 0.0
C759 C 0.64819 0.6486 0.83844 0.0
C760 C 0.63337 0.65486 0.87216 0.0
C761 C 0.64595 0.62301 0.82391 0.0
C762 C 0.66029 0.61552 0.78729 0.0
C763 C 0.67786 0.5929 0.7949 0.0
C764 C 0.69159 0.58593 0.76053 0.0
C765 C 0.68778 0.60137 0.71833 0.0
C766 C 0.67016 0.62375 0.71035 0.0
C767 C 0.65636 0.63078 0.74458 0.0
H768 H 0.69845 0.59596 0.69179 0.0
H769 H 0.55953 0.66559 0.01698 0.0
H770 H 0.72461 0.32008 0.19814 0.0
H771 H 0.69061 0.35523 0.1667 0.0
H772 H 0.65749 0.34724 0.29191 0.0
H773 H 0.69227 0.3128 0.32421 0.0
H774 H 0.62769 0.33462 0.18929 0.0
H775 H 0.66546 0.39804 0.28569 0.0
H776 H 0.70313 0.4222 0.32054 0.0
H777 H 0.71958 0.45648 0.19011 0.0
H778 H 0.6823 0.4321 0.15447 0.0
H779 H 0.52444 0.41953 0.06038 0.0
H780 H 0.55395 0.39649 0.12507 0.0
H781 H 0.62218 0.43499 0.07481 0.0
H782 H 0.59219 0.45987 0.0127 0.0
H783 H 0.6294 0.43362 0.15812 0.0
H784 H 0.60257 0.36668 0.06088 0.0
H785 H 0.57038 0.3399 0.01829 0.0
H786 H 0.5392 0.30975 0.13965 0.0
H787 H 0.57106 0.33659 0.18287 0.0
C788 C 0.71052 0.32642 0.21921 0.0
C789 C 0.7107 0.31385 0.2632 0.0
C790 C 0.69133 0.34649 0.20146 0.0
C791 C 0.67187 0.35375 0.2273 0.0
C792 C 0.67273 0.34207 0.27197 0.0
C793 C 0.69245 0.32247 0.29018 0.0
C794 C 0.64842 0.36997 0.20457 0.0
C795 C 0.62749 0.35635 0.18334 0.0
C796 C 0.64904 0.39808 0.19612 0.0
C797 C 0.67124 0.41303 0.21743 0.0
C798 C 0.67729 0.41049 0.26443 0.0
C799 C 0.69853 0.42429 0.28433 0.0
C800 C 0.71378 0.44082 0.25755 0.0
C801 C 0.70776 0.44366 0.21082 0.0
C802 C 0.68656 0.42987 0.19076 0.0
C803 C 0.5458 0.42277 0.06324 0.0
C804 C 0.55642 0.44082 0.03155 0.0
C805 C 0.56262 0.4097 0.10011 0.0
C806 C 0.59039 0.41359 0.10442 0.0
C807 C 0.60084 0.4317 0.07238 0.0
C808 C 0.58387 0.44557 0.03661 0.0
C809 C 0.60889 0.39823 0.14116 0.0
C810 C 0.62894 0.41197 0.16494 0.0
C811 C 0.60804 0.37002 0.15088 0.0
C812 C 0.58892 0.35388 0.12496 0.0
C813 C 0.58872 0.35447 0.0784 0.0
C814 C 0.57056 0.33926 0.05417 0.0
C815 C 0.55269 0.32321 0.07623 0.0
C816 C 0.55301 0.32225 0.1226 0.0
C817 C 0.57111 0.33744 0.14697 0.0
H818 H 0.53864 0.31146 0.05741 0.0
H819 H 0.73023 0.45147 0.27302 0.0
H820 H 0.98339 0.40893 0.49863 0.0
H821 H 0.95064 0.38323 0.45657 0.0
H822 H 0.89891 0.45394 0.41871 0.0
H823 H 0.9318 0.47989 0.46101 0.0
H824 H 0.87158 0.4093 0.44884 0.0
H825 H 0.9325 0.43248 0.34207 0.0
H826 H 0.97706 0.43654 0.31671 0.0
H827 H 0.99013 0.35122 0.34369 0.0
H828 H 0.94575 0.34663 0.36969 0.0
H829 H 0.81333 0.33456 0.25069 0.0
H830 H 0.84401 0.36655 0.28221 0.0
H831 H 0.84599 0.32192 0.41395 0.0
H832 H 0.81547 0.28971 0.38276 0.0
H833 H 0.89602 0.35838 0.32924 0.0
H834 H 0.84641 0.3683 0.48829 0.0
H835 H 0.80156 0.36517 0.51288 0.0
H836 H 0.7647 0.38754 0.37686 0.0
H837 H 0.80931 0.39114 0.35158 0.0
C838 C 0.96507 0.41904 0.48128 0.0
C839 C 0.96009 0.44639 0.48312 0.0
C840 C 0.94642 0.40435 0.4571 0.0
C841 C 0.92241 0.4167 0.43426 0.0
C842 C 0.91733 0.44404 0.43609 0.0
C843 C 0.93613 0.45884 0.4601 0.0
C844 C 0.90253 0.40075 0.40927 0.0
C845 C 0.87688 0.39828 0.42255 0.0
C846 C 0.90935 0.38659 0.37461 0.0
C847 C 0.93584 0.38923 0.3581 0.0
C848 C 0.94492 0.41459 0.34281 0.0
C849 C 0.97015 0.41699 0.32831 0.0
C850 C 0.98646 0.39418 0.32872 0.0
C851 C 0.97748 0.36888 0.34339 0.0
C852 C 0.95227 0.36636 0.35795 0.0
C853 C 0.82027 0.33152 0.28639 0.0
C854 C 0.81188 0.30958 0.31422 0.0
C855 C 0.8379 0.34978 0.30428 0.0
C856 C 0.84714 0.34671 0.35042 0.0
C857 C 0.83891 0.32478 0.37828 0.0
C858 C 0.82153 0.30634 0.36036 0.0
C859 C 0.86532 0.36645 0.36959 0.0
C860 C 0.89067 0.36957 0.35529 0.0
C861 C 0.85815 0.38138 0.40305 0.0
C862 C 0.83122 0.37976 0.41803 0.0
C863 C 0.82873 0.37267 0.46368 0.0
C864 C 0.80335 0.37079 0.47773 0.0
C865 C 0.78029 0.37607 0.44644 0.0
C866 C 0.78257 0.38335 0.40105 0.0
C867 C 0.8079 0.38528 0.38683 0.0
H868 H 0.76067 0.37458 0.45738 0.0
H869 H 0.00602 0.39609 0.31763 0.0
H870 H 0.8225 0.6737 0.77057 0.0
H871 H 0.85201 0.64327 0.74048 0.0
H872 H 0.82295 0.67976 0.60592 0.0
H873 H 0.7934 0.71018 0.63566 0.0
H874 H 0.82671 0.6258 0.60944 0.0
H875 H 0.88439 0.69408 0.65856 0.0
H876 H 0.90551 0.72262 0.71256 0.0
H877 H 0.94006 0.65283 0.7987 0.0
H878 H 0.91878 0.62382 0.74551 0.0
H879 H 0.92708 0.57142 0.49717 0.0
H880 H 0.89687 0.60082 0.52758 0.0
H881 H 0.93196 0.56959 0.66211 0.0
H882 H 0.96275 0.54072 0.63185 0.0
H883 H 0.92478 0.62072 0.65918 0.0
H884 H 0.86722 0.55222 0.61123 0.0
H885 H 0.84568 0.52324 0.55829 0.0
H886 H 0.81058 0.59253 0.47143 0.0
H887 H 0.8322 0.62195 0.52359 0.0
C888 C 0.82226 0.67524 0.73454 0.0
C889 C 0.80544 0.69458 0.70572 0.0
C890 C 0.83933 0.65784 0.71731 0.0
C891 C 0.84008 0.65922 0.67075 0.0
C892 C 0.82291 0.67815 0.6419 0.0
C893 C 0.80599 0.69566 0.65909 0.0
C894 C 0.85878 0.64114 0.6521 0.0
C895 C 0.8482 0.62496 0.61997 0.0
C896 C 0.88685 0.63936 0.66633 0.0
C897 C 0.89975 0.65676 0.69827 0.0
C898 C 0.8963 0.6848 0.68919 0.0
C899 C 0.90833 0.70107 0.71962 0.0
C900 C 0.92406 0.68954 0.75909 0.0
C901 C 0.92784 0.66172 0.76815 0.0
C902 C 0.91581 0.64536 0.73786 0.0
C903 C 0.92835 0.57066 0.53326 0.0
C904 C 0.94742 0.55342 0.56188 0.0
C905 C 0.91086 0.58749 0.55075 0.0
C906 C 0.91158 0.58737 0.59745 0.0
C907 C 0.93074 0.57025 0.62603 0.0
C908 C 0.94837 0.55357 0.60857 0.0
C909 C 0.89275 0.60523 0.61648 0.0
C910 C 0.9033 0.62143 0.64867 0.0
C911 C 0.86462 0.60693 0.60247 0.0
C912 C 0.85154 0.58929 0.5711 0.0
C913 C 0.85506 0.56128 0.58068 0.0
C914 C 0.84282 0.54478 0.55084 0.0
C915 C 0.82683 0.55604 0.51147 0.0
C916 C 0.823 0.58383 0.50191 0.0
C917 C 0.83522 0.60043 0.53162 0.0
H918 H 0.81737 0.54322 0.48841 0.0
H919 H 0.93337 0.70217 0.78261 0.0
H920 H 0.35449 0.28305 0.27731 0.0
H921 H 0.38177 0.31551 0.2379 0.0
H922 H 0.30997 0.35727 0.16752 0.0
H923 H 0.28244 0.32534 0.20823 0.0
H924 H 0.35264 0.34387 0.11243 0.0
H925 H 0.33898 0.38684 0.24123 0.0
H926 H 0.33901 0.38889 0.3221 0.0
H927 H 0.42376 0.37043 0.34599 0.0
H928 H 0.42415 0.36786 0.2653 0.0
H929 H 0.41934 0.45478 0.01333 0.0
H930 H 0.3886 0.42573 0.05126 0.0
H931 H 0.45323 0.39734 0.15578 0.0
H932 H 0.48376 0.42728 0.11893 0.0
H933 H 0.41169 0.40497 0.19292 0.0
H934 H 0.42682 0.35989 0.06808 0.0
H935 H 0.42849 0.35457 0.9887 0.0
H936 H 0.34388 0.37295 0.95832 0.0
H937 H 0.34177 0.37878 0.03743 0.0
C938 C 0.34448 0.29922 0.25362 0.0
C939 C 0.31632 0.30155 0.24558 0.0
C940 C 0.3601 0.31772 0.23114 0.0
C941 C 0.34787 0.33873 0.19978 0.0
C942 C 0.31975 0.34111 0.19148 0.0
C943 C 0.30408 0.32286 0.21468 0.0
C944 C 0.36467 0.35806 0.17574 0.0
C945 C 0.36525 0.3576 0.12971 0.0
C946 C 0.3817 0.37526 0.19877 0.0
C947 C 0.38153 0.37689 0.24728 0.0
C948 C 0.35757 0.38297 0.26378 0.0
C949 C 0.35753 0.38428 0.30958 0.0
C950 C 0.38136 0.37972 0.33918 0.0
C951 C 0.40531 0.37392 0.32303 0.0
C952 C 0.40545 0.37255 0.27726 0.0
C953 C 0.42703 0.44228 0.04433 0.0
C954 C 0.45401 0.44328 0.06306 0.0
C955 C 0.40943 0.42553 0.06591 0.0
C956 C 0.41858 0.4089 0.10613 0.0
C957 C 0.44558 0.40993 0.12485 0.0
C958 C 0.46307 0.42703 0.10369 0.0
C959 C 0.4 0.39082 0.12921 0.0
C960 C 0.39906 0.39143 0.17525 0.0
C961 C 0.38296 0.37341 0.10625 0.0
C962 C 0.38421 0.37008 0.05859 0.0
C963 C 0.40862 0.36304 0.0444 0.0
C964 C 0.40963 0.35989 0.99946 0.0
C965 C 0.38632 0.36351 0.96846 0.0
C966 C 0.36193 0.37022 0.98235 0.0
C967 C 0.36081 0.37344 0.02724 0.0
H968 H 0.38715 0.36103 0.93369 0.0
H969 H 0.38128 0.38075 0.37463 0.0
H970 H 0.47397 0.59037 0.98905 0.0
H971 H 0.43509 0.61693 0.94826 0.0
H972 H 0.39371 0.54429 0.92726 0.0
H973 H 0.43278 0.51775 0.96657 0.0
H974 H 0.38668 0.57733 0.85365 0.0
H975 H 0.37728 0.58269 1.00602 0.0
H976 H 0.39097 0.5902 0.08445 0.0
H977 H 0.40532 0.67254 0.04058 0.0
H978 H 0.39208 0.66544 0.9618 0.0
H979 H 0.27152 0.68826 0.83936 0.0
H980 H 0.29902 0.64997 0.87961 0.0
H981 H 0.35296 0.65972 0.77918 0.0
H982 H 0.32503 0.69782 0.73878 0.0
H983 H 0.34728 0.65218 0.91833 0.0
H984 H 0.3854 0.60169 0.77336 0.0
H985 H 0.36749 0.59074 0.69841 0.0
H986 H 0.28749 0.59216 0.73341 0.0
H987 H 0.30493 0.6027 0.80879 0.0
C988 C 0.45652 0.58018 0.97577 0.0
C989 C 0.45618 0.55216 0.98098 0.0
C990 C 0.43434 0.59528 0.9527 0.0
C991 C 0.41142 0.58251 0.93538 0.0
C992 C 0.41119 0.55448 0.94043 0.0
C993 C 0.43345 0.5394 0.96298 0.0
C994 C 0.38783 0.59846 0.91139 0.0
C995 C 0.37792 0.59363 0.86777 0.0
C996 C 0.37589 0.61905 0.93058 0.0
C997 C 0.38387 0.62346 0.97795 0.0
C998 C 0.38354 0.60235 0.01306 0.0
C999 C 0.39119 0.60654 0.05759 0.0
C1000 C 0.39906 0.63182 0.06749 0.0
C1001 C 0.39924 0.65297 0.03286 0.0
C1002 C 0.39163 0.64888 0.98826 0.0
C1003 C 0.28931 0.68219 0.82626 0.0
C1004 C 0.29684 0.69619 0.78717 0.0
C1005 C 0.30479 0.66021 0.84879 0.0
C1006 C 0.32805 0.65209 0.83245 0.0
C1007 C 0.33486 0.66542 0.79203 0.0
C1008 C 0.3191 0.68721 0.76918 0.0
C1009 C 0.34666 0.63165 0.85995 0.0
C1010 C 0.35571 0.63566 0.90431 0.0
C1011 C 0.35713 0.60978 0.84192 0.0
C1012 C 0.3465 0.60321 0.79667 0.0
C1013 C 0.36401 0.59954 0.76517 0.0
C1014 C 0.35392 0.59342 0.72258 0.0
C1015 C 0.32636 0.59083 0.71111 0.0
C1016 C 0.30883 0.59427 0.74227 0.0
C1017 C 0.3188 0.60036 0.78492 0.0
H1018 H 0.3186 0.5861 0.67812 0.0
H1019 H 0.40497 0.63502 0.10199 0.0
H1020 H 0.17713 0.68308 0.78205 0.0
H1021 H 0.14784 0.65131 0.7464 0.0
H1022 H 0.1909 0.66127 0.63129 0.0
H1023 H 0.21876 0.69425 0.66558 0.0
H1024 H 0.14301 0.66343 0.60147 0.0
H1025 H 0.19465 0.6016 0.71459 0.0
H1026 H 0.21472 0.583 0.79118 0.0
H1027 H 0.13617 0.57405 0.8311 0.0
H1028 H 0.11564 0.59291 0.75488 0.0
H1029 H 0.08193 0.52574 0.56081 0.0
H1030 H 0.11488 0.55117 0.60388 0.0
H1031 H 0.06111 0.62078 0.57468 0.0
H1032 H 0.0287 0.59579 0.53066 0.0
H1033 H 0.11676 0.57611 0.67568 0.0
H1034 H 0.09465 0.67669 0.55764 0.0
H1035 H 0.07954 0.69235 0.47761 0.0
H1036 H 0.10869 0.61844 0.44177 0.0
H1037 H 0.12431 0.6025 0.52146 0.0
C1038 C 0.1804 0.6782 0.74934 0.0
C1039 C 0.20005 0.69116 0.7264 0.0
C1040 C 0.16378 0.65991 0.72903 0.0
C1041 C 0.16716 0.65357 0.68609 0.0
C1042 C 0.18759 0.66588 0.66415 0.0
C1043 C 0.2036 0.68468 0.68382 0.0
C1044 C 0.14852 0.63558 0.66252 0.0
C1045 C 0.13745 0.64431 0.61788 0.0
C1046 C 0.14134 0.61035 0.6833 0.0
C1047 C 0.15362 0.59889 0.72912 0.0
C1048 C 0.18167 0.59583 0.73978 0.0
C1049 C 0.19312 0.58521 0.78312 0.0
C1050 C 0.17673 0.57741 0.81601 0.0
C1051 C 0.14884 0.58013 0.8056 0.0
C1052 C 0.13729 0.59075 0.76232 0.0
C1053 C 0.07721 0.54647 0.5637 0.0
C1054 C 0.05297 0.55894 0.54188 0.0
C1055 C 0.09597 0.56094 0.58847 0.0
C1056 C 0.09072 0.58806 0.59191 0.0
C1057 C 0.06594 0.60009 0.57168 0.0
C1058 C 0.04739 0.58577 0.54658 0.0
C1059 C 0.11136 0.60418 0.61508 0.0
C1060 C 0.12259 0.59518 0.6595 0.0
C1061 C 0.11951 0.62877 0.59368 0.0
C1062 C 0.11039 0.63831 0.54558 0.0
C1063 C 0.09792 0.66383 0.53265 0.0
C1064 C 0.08925 0.67275 0.48736 0.0
C1065 C 0.09307 0.65637 0.45465 0.0
C1066 C 0.10565 0.63107 0.46715 0.0
C1067 C 0.11439 0.62207 0.51238 0.0
H1068 H 0.08633 0.6633 0.4196 0.0
H1069 H 0.18564 0.5692 0.84955 0.0
H1070 H 0.19606 0.33989 0.24839 0.0
H1071 H 0.16611 0.36986 0.27853 0.0
H1072 H 0.18203 0.3223 0.40848 0.0
H1073 H 0.21168 0.29217 0.37856 0.0
H1074 H 0.13005 0.33497 0.39093 0.0
H1075 H 0.21033 0.38462 0.38412 0.0
H1076 H 0.24721 0.4059 0.34809 0.0
H1077 H 0.19027 0.45669 0.25538 0.0
H1078 H 0.15301 0.43545 0.2905 0.0
H1079 H 0.08074 0.429 0.52252 0.0
H1080 H 0.11043 0.39991 0.48991 0.0
H1081 H 0.0853 0.44321 0.35857 0.0
H1082 H 0.05529 0.47204 0.39071 0.0
H1083 H 0.14117 0.43324 0.3754 0.0
H1084 H 0.06103 0.38453 0.38294 0.0
H1085 H 0.02402 0.36387 0.41934 0.0
H1086 H 0.08044 0.31147 0.51021 0.0
H1087 H 0.11789 0.33224 0.47499 0.0
C1088 C 0.1933 0.33581 0.28343 0.0
C1089 C 0.20656 0.31351 0.31089 0.0
C1090 C 0.17615 0.3531 0.30078 0.0
C1091 C 0.1718 0.3487 0.34615 0.0
C1092 C 0.18486 0.32633 0.37344 0.0
C1093 C 0.20201 0.30908 0.35619 0.0
C1094 C 0.15366 0.36721 0.36523 0.0
C1095 C 0.1328 0.3564 0.38796 0.0
C1096 C 0.15652 0.3954 0.36073 0.0
C1097 C 0.17887 0.40825 0.33964 0.0
C1098 C 0.20566 0.40019 0.35583 0.0
C1099 C 0.22664 0.41227 0.33561 0.0
C1100 C 0.22108 0.43258 0.29939 0.0
C1101 C 0.19454 0.44092 0.28339 0.0
C1102 C 0.17348 0.42888 0.30346 0.0
C1103 C 0.08158 0.43245 0.48672 0.0
C1104 C 0.06549 0.45299 0.45941 0.0
C1105 C 0.09855 0.41569 0.46802 0.0
C1106 C 0.10017 0.41918 0.42159 0.0
C1107 C 0.08455 0.44002 0.39442 0.0
C1108 C 0.06728 0.45649 0.41295 0.0
C1109 C 0.11782 0.40092 0.40132 0.0
C1110 C 0.1385 0.41179 0.37834 0.0
C1111 C 0.11478 0.37281 0.40554 0.0
C1112 C 0.09231 0.36016 0.42665 0.0
C1113 C 0.06558 0.36878 0.41096 0.0
C1114 C 0.04451 0.35702 0.43132 0.0
C1115 C 0.04988 0.3364 0.46709 0.0
C1116 C 0.07633 0.32747 0.48253 0.0
C1117 C 0.09749 0.33924 0.4624 0.0
H1118 H 0.03353 0.3273 0.48279 0.0
H1119 H 0.23735 0.44191 0.28378 0.0
H1120 H 0.04131 0.9766 0.84072 0.0
H1121 H 0.03486 0.97526 0.91977 0.0
H1122 H 1.00071 0.05579 0.89231 0.0
H1123 H 0.00713 0.05725 0.81317 0.0
H1124 H 0.03913 0.04751 0.96918 0.0
H1125 H 0.96016 0.0066 0.90613 0.0
H1126 H 0.935 0.97453 0.86332 0.0
H1127 H 0.97354 0.90889 0.95513 0.0
H1128 H 0.99927 0.94059 0.99814 0.0
H1129 H 0.98239 0.05116 0.17192 0.0
H1130 H 0.98919 0.05268 0.09307 0.0
H1131 H 0.01926 0.97066 0.11881 0.0
H1132 H 0.01218 0.96889 0.19756 0.0
H1133 H 0.98301 0.97968 0.04262 0.0
H1134 H 0.06202 0.01982 0.10562 0.0
H1135 H 0.08816 0.05134 0.14826 0.0
H1136 H 0.05067 0.1177 0.05688 0.0
H1137 H 0.02399 0.08657 0.01403 0.0
C1138 C 0.03249 0.99403 0.8516 0.0
C1139 C 0.02469 0.01703 0.82081 0.0
C1140 C 0.02869 0.9932 0.89667 0.0
C1141 C 0.0172 0.01539 0.91184 0.0
C1142 C 0.00959 0.03845 0.88126 0.0
C1143 C 0.0131 0.03919 0.83606 0.0
C1144 C 0.01325 0.01455 0.95971 0.0
C1145 C 0.02656 0.03293 0.98512 0.0
C1146 C 0.9974 0.99508 0.98071 0.0
C1147 C 0.98186 0.97597 0.95507 0.0
C1148 C 0.96346 0.98532 0.91697 0.0
C1149 C 0.94906 0.96721 0.89271 0.0
C1150 C 0.95273 0.93968 0.90641 0.0
C1151 C 0.97076 0.93022 0.94451 0.0
C1152 C 0.98524 0.94825 0.96886 0.0
C1153 C 0.99042 0.03344 0.16075 0.0
C1154 C 0.99682 0.00993 0.19101 0.0
C1155 C 0.99445 0.03438 0.11576 0.0
C1156 C 1.0049 0.01183 0.10009 0.0
C1157 C 0.01123 0.98831 0.13018 0.0
C1158 C 0.00738 0.98741 0.17524 0.0
C1159 C 0.00888 0.01267 0.05219 0.0
C1160 C 0.99557 0.99428 0.02673 0.0
C1161 C 0.02483 0.03207 0.03119 0.0
C1162 C 0.04078 0.05087 0.05691 0.0
C1163 C 0.05916 0.04115 0.09485 0.0
C1164 C 0.07411 0.05894 0.11901 0.0
C1165 C 0.07102 0.08651 0.10536 0.0
C1166 C 0.053 0.09634 0.06746 0.0
C1167 C 0.03797 0.07863 0.0432 0.0
H1168 H 0.08263 0.10025 0.1241 0.0
H1169 H 0.94157 0.92569 0.88758 0.0
H1170 H 0.27049 0.73584 0.47909 0.0
H1171 H 0.26992 0.72917 0.40048 0.0
H1172 H 0.22619 0.80461 0.35881 0.0
H1173 H 0.22639 0.8112 0.43751 0.0
H1174 H 0.20569 0.76858 0.31016 0.0
H1175 H 0.29454 0.79712 0.35222 0.0
H1176 H 0.33883 0.7964 0.39817 0.0
H1177 H 0.35537 0.71662 0.37077 0.0
H1178 H 0.31101 0.71672 0.32513 0.0
H1179 H 0.22817 0.77943 0.08095 0.0
H1180 H 0.22878 0.78745 0.15898 0.0
H1181 H 0.26553 0.70903 0.20433 0.0
H1182 H 0.26451 0.70058 0.12651 0.0
H1183 H 0.28977 0.74769 0.25019 0.0
H1184 H 0.2 0.71972 0.20847 0.0
H1185 H 0.15596 0.72156 0.1615 0.0
H1186 H 0.14166 0.80212 0.18725 0.0
H1187 H 0.18582 0.80089 0.23389 0.0
C1188 C 0.26089 0.75109 0.45317 0.0
C1189 C 0.2486 0.77411 0.46458 0.0
C1190 C 0.2606 0.74727 0.40819 0.0
C1191 C 0.24839 0.76658 0.37353 0.0
C1192 C 0.23576 0.78942 0.38486 0.0
C1193 C 0.23585 0.79314 0.42988 0.0
C1194 C 0.24862 0.76287 0.32555 0.0
C1195 C 0.22415 0.76441 0.29696 0.0
C1196 C 0.27261 0.75694 0.30828 0.0
C1197 C 0.29934 0.75684 0.33561 0.0
C1198 C 0.30754 0.77934 0.35627 0.0
C1199 C 0.33267 0.77906 0.38222 0.0
C1200 C 0.34987 0.75646 0.38748 0.0
C1201 C 0.34201 0.73411 0.36671 0.0
C1202 C 0.31688 0.73427 0.34077 0.0
C1203 C 0.23615 0.76375 0.10746 0.0
C1204 C 0.24618 0.73929 0.09727 0.0
C1205 C 0.23657 0.76843 0.1521 0.0
C1206 C 0.247 0.74875 0.18754 0.0
C1207 C 0.25745 0.72452 0.17754 0.0
C1208 C 0.25694 0.71978 0.13295 0.0
C1209 C 0.24688 0.75332 0.23505 0.0
C1210 C 0.27136 0.75194 0.26349 0.0
C1211 C 0.22294 0.75958 0.25208 0.0
C1212 C 0.19633 0.7603 0.2243 0.0
C1213 C 0.18755 0.7379 0.20383 0.0
C1214 C 0.16256 0.73882 0.17732 0.0
C1215 C 0.14605 0.76197 0.1713 0.0
C1216 C 0.15449 0.78422 0.19189 0.0
C1217 C 0.17949 0.78341 0.2184 0.0
H1218 H 0.12671 0.76265 0.15076 0.0
H1219 H 0.36932 0.75628 0.40758 0.0
H1220 H 0.50943 0.96947 0.70347 0.0
H1221 H 0.51277 0.96464 0.62543 0.0
H1222 H 0.49699 0.04959 0.58831 0.0
H1223 H 0.49113 0.0542 0.66539 0.0
H1224 H 0.47119 0.02684 0.52813 0.0
H1225 H 0.56223 0.01595 0.5985 0.0
H1226 H 0.59983 0.99656 0.65449 0.0
H1227 H 0.58748 0.91929 0.61124 0.0
H1228 H 0.5495 0.93811 0.55547 0.0
H1229 H 0.52419 0.03643 0.31722 0.0
H1230 H 0.51932 0.03946 0.39605 0.0
H1231 H 0.50721 0.95454 0.41792 0.0
H1232 H 0.51145 0.95152 0.33878 0.0
H1233 H 0.54705 0.97623 0.48462 0.0
H1234 H 0.45577 0.99019 0.41171 0.0
H1235 H 0.41959 0.0121 0.35537 0.0
H1236 H 0.43555 0.08767 0.40305 0.0
H1237 H 0.47218 0.0663 0.45915 0.0
C1238 C 0.50628 0.98714 0.67877 0.0
C1239 C 0.49996 0.01227 0.69135 0.0
C1240 C 0.50867 0.9844 0.63397 0.0
C1241 C 0.50561 0.00681 0.60062 0.0
C1242 C 0.49953 0.03192 0.61313 0.0
C1243 C 0.49659 0.03459 0.65769 0.0
C1244 C 0.50813 0.00414 0.55261 0.0
C1245 C 0.48804 0.01607 0.51882 0.0
C1246 C 0.52981 0.98972 0.53991 0.0
C1247 C 0.55286 0.9784 0.57305 0.0
C1248 C 0.56743 0.99479 0.60109 0.0
C1249 C 0.58883 0.98391 0.63276 0.0
C1250 C 0.59604 0.95672 0.6364 0.0
C1251 C 0.58188 0.94035 0.60836 0.0
C1252 C 0.56042 0.95111 0.57669 0.0
C1253 C 0.5204 0.01844 0.33884 0.0
C1254 C 0.51813 0.99375 0.32187 0.0
C1255 C 0.5176 0.0202 0.3838 0.0
C1256 C 0.51294 0.99721 0.41288 0.0
C1257 C 0.51084 0.9725 0.39609 0.0
C1258 C 0.51309 0.97083 0.35088 0.0
C1259 C 0.51028 0.99906 0.46077 0.0
C1260 C 0.53031 0.98699 0.49432 0.0
C1261 C 0.48888 0.01379 0.47322 0.0
C1262 C 0.46691 0.02667 0.43936 0.0
C1263 C 0.45176 0.01153 0.40989 0.0
C1264 C 0.43111 0.02383 0.37809 0.0
C1265 C 0.42525 0.05125 0.37569 0.0
C1266 C 0.44009 0.06642 0.405 0.0
C1267 C 0.46079 0.05422 0.4368 0.0
H1268 H 0.40924 0.06073 0.35108 0.0
H1269 H 0.61258 0.94832 0.661 0.0
H1270 H 0.29656 0.27343 0.9509 0.0
H1271 H 0.2995 0.26767 0.87271 0.0
H1272 H 0.21678 0.24533 0.85605 0.0
H1273 H 0.21377 0.25089 0.93428 0.0
H1274 H 0.24619 0.21388 0.81554 0.0
H1275 H 0.2359 0.3089 0.81711 0.0
H1276 H 0.24745 0.35228 0.8428 0.0
H1277 H 0.32549 0.3458 0.80126 0.0
H1278 H 0.31451 0.30218 0.77584 0.0
H1279 H 0.22391 0.23036 0.57724 0.0
H1280 H 0.22191 0.23488 0.65617 0.0
H1281 H 0.30427 0.25845 0.67072 0.0
H1282 H 0.30634 0.25414 0.59174 0.0
H1283 H 0.27552 0.28905 0.7126 0.0
H1284 H 0.28586 0.19435 0.71032 0.0
H1285 H 0.27465 0.15074 0.68521 0.0
H1286 H 0.19699 0.15634 0.72844 0.0
H1287 H 0.2076 0.20018 0.75327 0.0
C1288 C 0.27898 0.26732 0.93059 0.0
C1289 C 0.25488 0.26276 0.9489 0.0
C1290 C 0.28068 0.26405 0.88582 0.0
C1291 C 0.25823 0.25648 0.8581 0.0
C1292 C 0.23438 0.25121 0.87664 0.0
C1293 C 0.23271 0.25432 0.92149 0.0
C1294 C 0.25943 0.25444 0.80967 0.0
C1295 C 0.25229 0.23044 0.79293 0.0
C1296 C 0.26795 0.2758 0.7802 0.0
C1297 C 0.27447 0.30217 0.79497 0.0
C1298 C 0.25558 0.31665 0.81371 0.0
C1299 C 0.26201 0.34129 0.82819 0.0
C1300 C 0.28721 0.35176 0.82377 0.0
C1301 C 0.30599 0.33765 0.80471 0.0
C1302 C 0.29967 0.31298 0.79022 0.0
C1303 C 0.24165 0.23639 0.59728 0.0
C1304 C 0.26532 0.24179 0.57808 0.0
C1305 C 0.24049 0.23895 0.64249 0.0
C1306 C 0.26307 0.24662 0.66979 0.0
C1307 C 0.28657 0.2525 0.65049 0.0
C1308 C 0.28769 0.2501 0.60521 0.0
C1309 C 0.26225 0.24848 0.7184 0.0
C1310 C 0.26945 0.27246 0.73519 0.0
C1311 C 0.25382 0.22708 0.74793 0.0
C1312 C 0.24744 0.20066 0.73326 0.0
C1313 C 0.26632 0.18637 0.71418 0.0
C1314 C 0.26009 0.1616 0.70005 0.0
C1315 C 0.2351 0.15081 0.70513 0.0
C1316 C 0.21632 0.16474 0.72448 0.0
C1317 C 0.22245 0.18954 0.73862 0.0
H1318 H 0.23031 0.13163 0.69416 0.0
H1319 H 0.29216 0.37083 0.83503 0.0
H1320 H 0.73 0.22945 0.9471 0.0
H1321 H 0.72916 0.22179 0.86883 0.0
H1322 H 0.78272 0.28672 0.84737 0.0
H1323 H 0.78272 0.29521 0.92494 0.0
H1324 H 0.74398 0.2892 0.77871 0.0
H1325 H 0.8049 0.22022 0.86124 0.0
H1326 H 0.81892 0.18199 0.91955 0.0
H1327 H 0.75578 0.13563 0.86216 0.0
H1328 H 0.74116 0.17372 0.80382 0.0
H1329 H 0.78137 0.26084 0.57163 0.0
H1330 H 0.78231 0.26762 0.65019 0.0
H1331 H 0.72932 0.20208 0.67037 0.0
H1332 H 0.72928 0.19435 0.5924 0.0
H1333 H 0.76739 0.19975 0.73971 0.0
H1334 H 0.70657 0.26866 0.65698 0.0
H1335 H 0.69245 0.30693 0.5988 0.0
H1336 H 0.75524 0.3535 0.65668 0.0
H1337 H 0.76996 0.31537 0.7149 0.0
C1338 C 0.74135 0.2423 0.92561 0.0
C1339 C 0.75647 0.26291 0.94246 0.0
C1340 C 0.74111 0.2377 0.88094 0.0
C1341 C 0.75617 0.25345 0.85223 0.0
C1342 C 0.77102 0.27422 0.86883 0.0
C1343 C 0.7712 0.27888 0.91339 0.0
C1344 C 0.7564 0.24845 0.80485 0.0
C1345 C 0.74944 0.26972 0.77024 0.0
C1346 C 0.76292 0.22289 0.79357 0.0
C1347 C 0.77179 0.19991 0.82843 0.0
C1348 C 0.79389 0.20193 0.86124 0.0
C1349 C 0.80196 0.18028 0.89427 0.0
C1350 C 0.78821 0.15642 0.89463 0.0
C1351 C 0.76639 0.15413 0.86188 0.0
C1352 C 0.75822 0.17574 0.8288 0.0
C1353 C 0.77018 0.24761 0.59285 0.0
C1354 C 0.75513 0.22711 0.57542 0.0
C1355 C 0.77048 0.25173 0.63774 0.0
C1356 C 0.75551 0.23566 0.66615 0.0
C1357 C 0.74091 0.21486 0.64912 0.0
C1358 C 0.7407 0.21064 0.60432 0.0
C1359 C 0.75502 0.24052 0.71356 0.0
C1360 C 0.76192 0.21924 0.74816 0.0
C1361 C 0.74844 0.26607 0.72485 0.0
C1362 C 0.73952 0.28907 0.69004 0.0
C1363 C 0.71748 0.287 0.65712 0.0
C1364 C 0.70935 0.30867 0.62416 0.0
C1365 C 0.72298 0.33261 0.62398 0.0
C1366 C 0.74472 0.33494 0.65683 0.0
C1367 C 0.75295 0.31331 0.68984 0.0
H1368 H 0.71666 0.34936 0.59843 0.0
H1369 H 0.79448 0.13968 0.92023 0.0
H1370 H 0.77975 0.73877 0.45466 0.0
H1371 H 0.78434 0.73422 0.37656 0.0
H1372 H 0.71423 0.78593 0.33182 0.0
H1373 H 0.7099 0.79132 0.40948 0.0
H1374 H 0.71344 0.74099 0.28808 0.0
H1375 H 0.77458 0.80984 0.32274 0.0
H1376 H 0.81216 0.82956 0.36658 0.0
H1377 H 0.86597 0.7676 0.34188 0.0
H1378 H 0.82859 0.74725 0.29844 0.0
H1379 H 0.72883 0.76855 0.05603 0.0
H1380 H 0.7241 0.77265 0.13426 0.0
H1381 H 0.79639 0.72395 0.1782 0.0
H1382 H 0.80099 0.71929 0.10034 0.0
H1383 H 0.79611 0.76705 0.22265 0.0
H1384 H 0.73582 0.69798 0.18848 0.0
H1385 H 0.69861 0.67738 0.14525 0.0
H1386 H 0.64368 0.73846 0.1696 0.0
H1387 H 0.68068 0.75967 0.21248 0.0
C1388 C 0.76545 0.74946 0.4283 0.0
C1389 C 0.74443 0.76542 0.43876 0.0
C1390 C 0.76804 0.74671 0.38357 0.0
C1391 C 0.74968 0.75981 0.34822 0.0
C1392 C 0.72855 0.7755 0.35847 0.0
C1393 C 0.72606 0.77844 0.40309 0.0
C1394 C 0.75255 0.75735 0.30053 0.0
C1395 C 0.73138 0.74701 0.27361 0.0
C1396 C 0.77619 0.76461 0.28184 0.0
C1397 C 0.79873 0.77686 0.30774 0.0
C1398 C 0.79438 0.80029 0.32698 0.0
C1399 C 0.81565 0.8116 0.3517 0.0
C1400 C 0.84143 0.7998 0.35712 0.0
C1401 C 0.84599 0.77669 0.33772 0.0
C1402 C 0.82477 0.76527 0.31302 0.0
C1403 C 0.74358 0.75845 0.08229 0.0
C1404 C 0.76531 0.74358 0.0716 0.0
C1405 C 0.7409 0.7609 0.12709 0.0
C1406 C 0.75982 0.74848 0.16229 0.0
C1407 C 0.78161 0.73383 0.15173 0.0
C1408 C 0.78425 0.73129 0.10702 0.0
C1409 C 0.75697 0.75073 0.2101 0.0
C1410 C 0.77816 0.76102 0.23707 0.0
C1411 C 0.7334 0.74331 0.22889 0.0
C1412 C 0.71107 0.73058 0.20328 0.0
C1413 C 0.71585 0.70715 0.18431 0.0
C1414 C 0.69479 0.69534 0.15992 0.0
C1415 C 0.66881 0.70665 0.15457 0.0
C1416 C 0.66383 0.72975 0.17371 0.0
C1417 C 0.68483 0.74167 0.19809 0.0
H1418 H 0.65253 0.69747 0.13568 0.0
H1419 H 0.85787 0.80859 0.37627 0.0
H1420 H 0.48041 0.53496 0.66584 0.0
H1421 H 0.48688 0.53629 0.58686 0.0
H1422 H 0.51861 0.45486 0.61344 0.0
H1423 H 0.51267 0.45355 0.69257 0.0
H1424 H 0.54812 0.48623 0.55975 0.0
H1425 H 0.4551 0.46813 0.56388 0.0
H1426 H 0.40937 0.47599 0.58165 0.0
H1427 H 0.40405 0.55252 0.49967 0.0
H1428 H 0.44993 0.54528 0.48191 0.0
H1429 H 0.53874 0.45812 0.33446 0.0
H1430 H 0.53225 0.45698 0.41337 0.0
H1431 H 0.49983 0.53816 0.386 0.0
H1432 H 0.50573 0.53924 0.30689 0.0
H1433 H 0.47069 0.50708 0.4401 0.0
H1434 H 0.56358 0.52526 0.43582 0.0
H1435 H 0.60935 0.51758 0.4181 0.0
H1436 H 0.615 0.44115 0.50042 0.0
H1437 H 0.56908 0.44822 0.51812 0.0
C1438 C 0.48905 0.51744 0.65498 0.0
C1439 C 0.4959 0.4941 0.68552 0.0
C1440 C 0.49252 0.51815 0.60973 0.0
C1441 C 0.50293 0.49556 0.59405 0.0
C1442 C 0.51044 0.47249 0.62468 0.0
C1443 C 0.50685 0.47171 0.66985 0.0
C1444 C 0.50573 0.49583 0.54566 0.0
C1445 C 0.53112 0.49045 0.53364 0.0
C1446 C 0.48367 0.5019 0.51144 0.0
C1447 C 0.45606 0.50628 0.52195 0.0
C1448 C 0.44426 0.48674 0.54994 0.0
C1449 C 0.4183 0.49106 0.55996 0.0
C1450 C 0.40384 0.51477 0.5419 0.0
C1451 C 0.4153 0.53418 0.51369 0.0
C1452 C 0.44127 0.52997 0.50361 0.0
C1453 C 0.52994 0.47562 0.34511 0.0
C1454 C 0.52288 0.49882 0.31435 0.0
C1455 C 0.52646 0.47503 0.39034 0.0
C1456 C 0.51587 0.49761 0.4058 0.0
C1457 C 0.50816 0.52054 0.37495 0.0
C1458 C 0.51173 0.52119 0.32978 0.0
C1459 C 0.51309 0.49746 0.45418 0.0
C1460 C 0.48769 0.50286 0.46621 0.0
C1461 C 0.53515 0.49144 0.4884 0.0
C1462 C 0.56278 0.48715 0.47791 0.0
C1463 C 0.5745 0.50672 0.44984 0.0
C1464 C 0.60048 0.50249 0.43985 0.0
C1465 C 0.61505 0.47886 0.45802 0.0
C1466 C 0.60367 0.45943 0.48631 0.0
C1467 C 0.57767 0.46354 0.49636 0.0
H1468 H 0.63517 0.47563 0.45026 0.0
H1469 H 0.38374 0.51808 0.54969 0.0
H1470 H 0.9926 0.52742 0.81192 0.0
H1471 H 0.98854 0.53282 0.88991 0.0
H1472 H 0.04246 0.46447 0.93566 0.0
H1473 H 0.04689 0.45911 0.85796 0.0
H1474 H 1.00035 0.46188 0.98139 0.0
H1475 H 0.06318 0.5283 0.94242 0.0
H1476 H 0.07989 0.56705 0.89703 0.0
H1477 H 0.01404 0.61632 0.921 0.0
H1478 H 0.99672 0.57774 0.96604 0.0
H1479 H 0.02589 0.48223 0.2117 0.0
H1480 H 0.03091 0.47728 0.1339 0.0
H1481 H 0.9754 0.54428 0.08736 0.0
H1482 H 0.96988 0.54909 0.16484 0.0
H1483 H 0.01865 0.54756 0.04225 0.0
H1484 H 0.9559 0.48062 0.0812 0.0
H1485 H 0.93978 0.44174 0.1271 0.0
H1486 H 0.00632 0.39327 0.10352 0.0
H1487 H 0.02306 0.432 0.05798 0.0
C1488 C 1.00385 0.51369 0.83852 0.0
C1489 C 0.02006 0.49279 0.82836 0.0
C1490 C 1.00145 0.51678 0.88321 0.0
C1491 C 0.01533 0.49916 0.91889 0.0
C1492 C 0.03143 0.47826 0.90886 0.0
C1493 C 0.03386 0.47517 0.86425 0.0
C1494 C 0.01294 0.50233 0.96661 0.0
C1495 C 1.00471 0.48053 0.9948 0.0
C1496 C 0.0181 0.52678 0.98414 0.0
C1497 C 0.02851 0.55005 0.95723 0.0
C1498 C 0.05215 0.54734 0.93772 0.0
C1499 C 0.06175 0.56928 0.91211 0.0
C1500 C 0.048 0.59411 0.90604 0.0
C1501 C 0.02465 0.59706 0.92568 0.0
C1502 C 0.01494 0.57517 0.95128 0.0
C1503 C 0.01451 0.49577 0.18499 0.0
C1504 C 0.99745 0.51607 0.19489 0.0
C1505 C 0.01748 0.49296 0.1404 0.0
C1506 C 1.0034 0.5103 0.10457 0.0
C1507 C 0.98659 0.53072 0.11431 0.0
C1508 C 0.98354 0.5335 0.15881 0.0
C1509 C 0.00605 0.50712 0.05696 0.0
C1510 C 0.01431 0.52892 0.02881 0.0
C1511 C 1.001 0.48265 0.03949 0.0
C1512 C 0.99087 0.45928 0.06656 0.0
C1513 C 0.9672 0.46172 0.08609 0.0
C1514 C 0.95794 0.43971 0.11199 0.0
C1515 C 0.97206 0.41507 0.11833 0.0
C1516 C 0.99543 0.41238 0.09864 0.0
C1517 C 1.0048 0.43435 0.07275 0.0
H1518 H 0.96485 0.39805 0.1384 0.0
H1519 H 0.05547 0.61108 0.8862 0.0
loop_
_geom_bond_atom_site_label_1
_geom_bond_atom_site_label_2
_geom_bond_distance
_geom_bond_site_symmetry_2
_ccdc_geom_bond_type
Sm0 C2 2.846 1_655 S
Sm0 O20 2.543 1_565 S
Sm0 O21 2.450 1_655 S
Sm0 O22 2.681 1_655 S
Sm0 O23 2.464 1_655 S
Sm0 O24 2.396 1_665 S
Sm0 O28 2.386 1_565 S
Sm0 O31 2.408 . S
Sm1 C11 2.846 1_455 S
Sm1 O22 2.386 1_545 S
Sm1 O25 2.408 . S
Sm1 O26 2.543 1_545 S
Sm1 O27 2.450 1_455 S
Sm1 O28 2.681 1_455 S
Sm1 O29 2.464 1_455 S
Sm1 O30 2.396 1_445 S
C2 Sm0 2.846 1_455 S
C2 C3 1.506 . S
C2 O20 1.261 1_465 S
C2 O21 1.242 . S
C3 C2 1.506 . S
C3 C4 1.358 1_565 S
C3 C8 1.382 . S
C4 C3 1.358 1_545 S
C4 C5 1.385 . S
C4 H32 0.930 1_455 S
C5 C4 1.385 . S
C5 C6 1.395 . S
C5 H33 0.929 . S
C6 C5 1.395 . S
C6 C7 1.335 1_545 S
C7 C6 1.335 1_565 S
C7 C8 1.398 . S
C7 H34 0.930 . S
C8 C3 1.382 . S
C8 C7 1.398 . S
C8 H35 0.929 . S
C9 O22 1.271 . S
C9 O23 1.251 . S
C10 O24 1.252 . S
C10 O25 1.272 . S
C11 Sm1 2.846 1_655 S
C11 C12 1.506 . S
C11 O26 1.261 1_645 S
C11 O27 1.242 . S
C12 C11 1.506 . S
C12 C13 1.358 1_545 S
C12 C17 1.382 . S
C13 C12 1.358 1_565 S
C13 C14 1.385 . S
C13 H36 0.930 1_655 S
C14 C13 1.385 . S
C14 C15 1.395 . S
C14 H37 0.937 . S
C15 C14 1.395 . S
C15 C16 1.335 1_565 S
C16 C15 1.335 1_545 S
C16 C17 1.398 . S
C16 H38 0.930 . S
C17 C12 1.382 . S
C17 C16 1.398 . S
C17 H39 0.929 . S
C18 O28 1.271 . S
C18 O29 1.251 . S
C19 O30 1.252 . S
C19 O31 1.272 . S
O20 Sm0 2.543 1_545 S
O20 C2 1.261 1_645 S
O21 Sm0 2.450 1_455 S
O21 C2 1.242 . S
O22 Sm0 2.681 1_455 S
O22 Sm1 2.386 1_565 S
O22 C9 1.271 . S
O23 Sm0 2.464 1_455 S
O23 C9 1.251 . S
O24 Sm0 2.396 1_445 S
O24 C10 1.252 . S
O25 Sm1 2.408 . S
O25 C10 1.272 . S
O26 Sm1 2.543 1_565 S
O26 C11 1.261 1_465 S
O27 Sm1 2.450 1_655 S
O27 C11 1.242 . S
O28 Sm0 2.386 1_545 S
O28 Sm1 2.681 1_655 S
O28 C18 1.271 . S
O29 Sm1 2.464 1_655 S
O29 C18 1.251 . S
O30 Sm1 2.396 1_665 S
O30 C19 1.252 . S
O31 Sm0 2.408 . S
O31 C19 1.272 . S
H32 C4 0.930 1_655 S
H33 C5 0.929 . S
H34 C7 0.930 . S
H35 C8 0.929 . S
H36 C13 0.930 1_455 S
H37 C14 0.937 . S
H38 C16 0.930 . S
H39 C17 0.929 . S
Sm40 C42 2.846 . S
Sm40 O60 2.543 . S
Sm40 O61 2.450 . S
Sm40 O62 2.681 . S
Sm40 O63 2.464 . S
Sm40 O64 2.396 . S
Sm40 O68 2.386 . S
Sm40 O71 2.408 . S
Sm41 C51 2.846 . S
Sm41 O62 2.386 . S
Sm41 O65 2.408 . S
Sm41 O66 2.543 . S
Sm41 O67 2.450 . S
Sm41 O68 2.681 . S
Sm41 O69 2.464 . S
Sm41 O70 2.396 . S
C42 Sm40 2.846 . S
C42 C43 1.506 . S
C42 O60 1.261 . S
C42 O61 1.242 . S
C43 C42 1.506 . S
C43 C44 1.358 . S
C43 C48 1.382 . S
C44 C43 1.358 . S
C44 C45 1.385 1_556 S
C44 H72 0.930 . S
C45 C44 1.385 1_554 S
C45 C46 1.395 . S
C45 H73 0.929 . S
C46 C45 1.395 . S
C46 C47 1.335 1_554 S
C47 C46 1.335 1_556 S
C47 C48 1.398 . S
C47 H74 0.930 1_556 S
C48 C43 1.382 . S
C48 C47 1.398 . S
C48 H75 0.929 . S
C49 O62 1.271 . S
C49 O63 1.251 . S
C50 O64 1.252 . S
C50 O65 1.272 . S
C51 Sm41 2.846 . S
C51 C52 1.506 . S
C51 O66 1.261 . S
C51 O67 1.242 . S
C52 C51 1.506 . S
C52 C53 1.358 . S
C52 C57 1.382 . S
C53 C52 1.358 . S
C53 C54 1.385 . S
C53 H76 0.930 . S
C54 C53 1.385 . S
C54 C55 1.395 . S
C54 H77 0.929 . S
C55 C54 1.395 . S
C55 C56 1.335 . S
C56 C55 1.335 . S
C56 C57 1.398 . S
C56 H78 0.930 . S
C57 C52 1.382 . S
C57 C56 1.398 . S
C57 H79 0.929 . S
C58 O68 1.271 . S
C58 O69 1.251 . S
C59 O70 1.252 . S
C59 O71 1.272 . S
O60 Sm40 2.543 . S
O60 C42 1.261 . S
O61 Sm40 2.450 . S
O61 C42 1.242 . S
O62 Sm40 2.681 . S
O62 Sm41 2.386 . S
O62 C49 1.271 . S
O63 Sm40 2.464 . S
O63 C49 1.251 . S
O64 Sm40 2.396 . S
O64 C50 1.252 . S
O65 Sm41 2.408 . S
O65 C50 1.272 . S
O66 Sm41 2.543 . S
O66 C51 1.261 . S
O67 Sm41 2.450 . S
O67 C51 1.242 . S
O68 Sm40 2.386 . S
O68 Sm41 2.681 . S
O68 C58 1.271 . S
O69 Sm41 2.464 . S
O69 C58 1.251 . S
O70 Sm41 2.396 . S
O70 C59 1.252 . S
O71 Sm40 2.408 . S
O71 C59 1.272 . S
H72 C44 0.930 . S
H73 C45 0.929 . S
H74 C47 0.930 1_554 S
H75 C48 0.929 . S
H76 C53 0.930 . S
H77 C54 0.929 . S
H78 C56 0.930 . S
H79 C57 0.929 . S
Sm80 C82 2.846 . S
Sm80 O100 2.550 . S
Sm80 O101 2.450 . S
Sm80 O102 2.681 1_554 S
Sm80 O103 2.464 . S
Sm80 O104 2.396 1_565 S
Sm80 O108 2.386 1_565 S
Sm80 O111 2.408 . S
Sm81 C91 2.846 . S
Sm81 O102 2.386 1_545 S
Sm81 O105 2.408 . S
Sm81 O106 2.557 . S
Sm81 O107 2.450 . S
Sm81 O108 2.681 1_556 S
Sm81 O109 2.464 . S
Sm81 O110 2.396 1_545 S
C82 Sm80 2.846 . S
C82 C83 1.506 . S
C82 O100 1.270 . S
C82 O101 1.242 . S
C83 C82 1.506 . S
C83 C84 1.358 1_565 S
C83 C88 1.382 . S
C84 C83 1.358 1_545 S
C84 C85 1.385 . S
C84 H112 0.930 . S
C85 C84 1.385 . S
C85 C86 1.395 1_545 S
C85 H113 0.929 . S
C86 C85 1.395 1_565 S
C86 C87 1.335 . S
C87 C86 1.335 . S
C87 C88 1.398 . S
C87 H114 0.930 . S
C88 C83 1.382 . S
C88 C87 1.398 . S
C88 H115 0.929 . S
C89 O102 1.271 . S
C89 O103 1.251 1_556 S
C90 O104 1.252 . S
C90 O105 1.272 1_554 S
C91 Sm81 2.846 . S
C91 C92 1.506 . S
C91 O106 1.277 . S
C91 O107 1.242 . S
C92 C91 1.506 . S
C92 C93 1.358 1_545 S
C92 C97 1.382 . S
C93 C92 1.358 1_565 S
C93 C94 1.385 . S
C93 H116 0.930 . S
C94 C93 1.385 . S
C94 C95 1.395 1_565 S
C94 H117 0.929 . S
C95 C94 1.395 1_545 S
C95 C96 1.335 . S
C96 C95 1.335 . S
C96 C97 1.398 . S
C96 H118 0.930 . S
C97 C92 1.382 . S
C97 C96 1.398 . S
C97 H119 0.929 . S
C98 O108 1.271 . S
C98 O109 1.251 1_554 S
C99 O110 1.252 . S
C99 O111 1.272 1_556 S
O100 Sm80 2.550 . S
O100 C82 1.270 . S
O101 Sm80 2.450 . S
O101 C82 1.242 . S
O102 Sm80 2.681 1_556 S
O102 Sm81 2.386 1_565 S
O102 C89 1.271 . S
O103 Sm80 2.464 . S
O103 C89 1.251 1_554 S
O104 Sm80 2.396 1_545 S
O104 C90 1.252 . S
O105 Sm81 2.408 . S
O105 C90 1.272 1_556 S
O106 Sm81 2.557 . S
O106 C91 1.277 . S
O107 Sm81 2.450 . S
O107 C91 1.242 . S
O108 Sm80 2.386 1_545 S
O108 Sm81 2.681 1_554 S
O108 C98 1.271 . S
O109 Sm81 2.464 . S
O109 C98 1.251 1_556 S
O110 Sm81 2.396 1_565 S
O110 C99 1.252 . S
O111 Sm80 2.408 . S
O111 C99 1.272 1_554 S
H112 C84 0.930 . S
H113 C85 0.929 . S
H114 C87 0.930 . S
H115 C88 0.929 . S
H116 C93 0.930 . S
H117 C94 0.929 . S
H118 C96 0.930 . S
H119 C97 0.929 . S
Sm120 C122 2.846 . S
Sm120 O140 2.543 . S
Sm120 O141 2.450 . S
Sm120 O142 2.681 . S
Sm120 O143 2.464 . S
Sm120 O144 2.396 . S
Sm120 O148 2.386 . S
Sm120 O151 2.408 . S
Sm121 C131 2.846 . S
Sm121 O142 2.386 . S
Sm121 O145 2.408 . S
Sm121 O146 2.543 . S
Sm121 O147 2.450 . S
Sm121 O148 2.681 . S
Sm121 O149 2.464 . S
Sm121 O150 2.396 . S
C122 Sm120 2.846 . S
C122 C123 1.506 . S
C122 O140 1.261 . S
C122 O141 1.242 . S
C123 C122 1.506 . S
C123 C124 1.358 . S
C123 C128 1.382 . S
C124 C123 1.358 . S
C124 C125 1.385 1_554 S
C124 H152 0.930 . S
C125 C124 1.385 1_556 S
C125 C126 1.395 . S
C125 H153 0.929 . S
C126 C125 1.395 . S
C126 C127 1.335 . S
C127 C126 1.335 . S
C127 C128 1.398 1_556 S
C127 H154 0.930 . S
C128 C123 1.382 . S
C128 C127 1.398 1_554 S
C128 H155 0.929 . S
C129 O142 1.271 . S
C129 O143 1.251 . S
C130 O144 1.252 . S
C130 O145 1.272 . S
C131 Sm121 2.846 . S
C131 C132 1.506 . S
C131 O146 1.261 . S
C131 O147 1.242 . S
C132 C131 1.506 . S
C132 C133 1.358 . S
C132 C137 1.382 . S
C133 C132 1.358 . S
C133 C134 1.385 . S
C133 H156 0.930 . S
C134 C133 1.385 . S
C134 C135 1.395 . S
C134 H157 0.929 . S
C135 C134 1.395 . S
C135 C136 1.335 . S
C136 C135 1.335 . S
C136 C137 1.398 . S
C136 H158 0.930 . S
C137 C132 1.382 . S
C137 C136 1.398 . S
C137 H159 0.929 . S
C138 O148 1.271 . S
C138 O149 1.251 . S
C139 O150 1.252 . S
C139 O151 1.272 . S
O140 Sm120 2.543 . S
O140 C122 1.261 . S
O141 Sm120 2.450 . S
O141 C122 1.242 . S
O142 Sm120 2.681 . S
O142 Sm121 2.386 . S
O142 C129 1.271 . S
O143 Sm120 2.464 . S
O143 C129 1.251 . S
O144 Sm120 2.396 . S
O144 C130 1.252 . S
O145 Sm121 2.408 . S
O145 C130 1.272 . S
O146 Sm121 2.543 . S
O146 C131 1.261 . S
O147 Sm121 2.450 . S
O147 C131 1.242 . S
O148 Sm120 2.386 . S
O148 Sm121 2.681 . S
O148 C138 1.271 . S
O149 Sm121 2.464 . S
O149 C138 1.251 . S
O150 Sm121 2.396 . S
O150 C139 1.252 . S
O151 Sm120 2.408 . S
O151 C139 1.272 . S
H152 C124 0.930 . S
H153 C125 0.929 . S
H154 C127 0.930 . S
H155 C128 0.929 . S
H156 C133 0.930 . S
H157 C134 0.929 . S
H158 C136 0.930 . S
H159 C137 0.929 . S
Sm160 C162 2.846 . S
Sm160 O180 2.543 . S
Sm160 O181 2.450 . S
Sm160 O182 2.681 . S
Sm160 O183 2.464 . S
Sm160 O184 2.396 . S
Sm160 O188 2.386 . S
Sm160 O191 2.408 . S
Sm161 C171 2.846 . S
Sm161 O182 2.386 . S
Sm161 O185 2.408 . S
Sm161 O186 2.543 . S
Sm161 O187 2.450 . S
Sm161 O188 2.681 . S
Sm161 O189 2.464 . S
Sm161 O190 2.396 . S
C162 Sm160 2.846 . S
C162 C163 1.506 . S
C162 O180 1.261 . S
C162 O181 1.242 . S
C163 C162 1.506 . S
C163 C164 1.358 . S
C163 C168 1.382 . S
C164 C163 1.358 . S
C164 C165 1.385 . S
C164 H192 0.930 . S
C165 C164 1.385 . S
C165 C166 1.395 . S
C165 H193 0.929 . S
C166 C165 1.395 . S
C166 C167 1.335 . S
C167 C166 1.335 . S
C167 C168 1.398 . S
C167 H194 0.930 . S
C168 C163 1.382 . S
C168 C167 1.398 . S
C168 H195 0.929 . S
C169 O182 1.271 . S
C169 O183 1.251 . S
C170 O184 1.252 . S
C170 O185 1.272 . S
C171 Sm161 2.846 . S
C171 C172 1.506 . S
C171 O186 1.261 . S
C171 O187 1.242 . S
C172 C171 1.506 . S
C172 C173 1.358 . S
C172 C177 1.382 . S
C173 C172 1.358 . S
C173 C174 1.385 1_554 S
C173 H196 0.930 . S
C174 C173 1.385 1_556 S
C174 C175 1.395 . S
C174 H197 0.929 . S
C175 C174 1.395 . S
C175 C176 1.335 1_556 S
C176 C175 1.335 1_554 S
C176 C177 1.398 . S
C176 H198 0.930 1_554 S
C177 C172 1.382 . S
C177 C176 1.398 . S
C177 H199 0.929 . S
C178 O188 1.271 . S
C178 O189 1.251 . S
C179 O190 1.252 . S
C179 O191 1.272 . S
O180 Sm160 2.543 . S
O180 C162 1.261 . S
O181 Sm160 2.450 . S
O181 C162 1.242 . S
O182 Sm160 2.681 . S
O182 Sm161 2.386 . S
O182 C169 1.271 . S
O183 Sm160 2.464 . S
O183 C169 1.251 . S
O184 Sm160 2.396 . S
O184 C170 1.252 . S
O185 Sm161 2.408 . S
O185 C170 1.272 . S
O186 Sm161 2.543 . S
O186 C171 1.261 . S
O187 Sm161 2.450 . S
O187 C171 1.242 . S
O188 Sm160 2.386 . S
O188 Sm161 2.681 . S
O188 C178 1.271 . S
O189 Sm161 2.464 . S
O189 C178 1.251 . S
O190 Sm161 2.396 . S
O190 C179 1.252 . S
O191 Sm160 2.408 . S
O191 C179 1.272 . S
H192 C164 0.930 . S
H193 C165 0.929 . S
H194 C167 0.930 . S
H195 C168 0.929 . S
H196 C173 0.930 . S
H197 C174 0.929 . S
H198 C176 0.930 1_556 S
H199 C177 0.929 . S
Sm200 C202 2.846 . S
Sm200 O220 2.543 . S
Sm200 O221 2.450 . S
Sm200 O222 2.681 . S
Sm200 O223 2.464 . S
Sm200 O224 2.396 . S
Sm200 O228 2.386 . S
Sm200 O231 2.408 . S
Sm201 C211 2.846 . S
Sm201 O222 2.386 . S
Sm201 O225 2.408 . S
Sm201 O226 2.543 . S
Sm201 O227 2.450 . S
Sm201 O228 2.681 . S
Sm201 O229 2.464 . S
Sm201 O230 2.396 . S
C202 Sm200 2.846 . S
C202 C203 1.506 . S
C202 O220 1.261 . S
C202 O221 1.242 . S
C203 C202 1.506 . S
C203 C204 1.358 . S
C203 C208 1.382 . S
C204 C203 1.358 . S
C204 C205 1.385 . S
C204 H232 0.930 . S
C205 C204 1.385 . S
C205 C206 1.395 . S
C205 H233 0.929 . S
C206 C205 1.395 . S
C206 C207 1.335 . S
C207 C206 1.335 . S
C207 C208 1.398 . S
C207 H234 0.930 . S
C208 C203 1.382 . S
C208 C207 1.398 . S
C208 H235 0.929 . S
C209 O222 1.271 . S
C209 O223 1.251 . S
C210 O224 1.252 . S
C210 O225 1.272 . S
C211 Sm201 2.846 . S
C211 C212 1.506 . S
C211 O226 1.261 . S
C211 O227 1.242 . S
C212 C211 1.506 . S
C212 C213 1.358 . S
C212 C217 1.382 . S
C213 C212 1.358 . S
C213 C214 1.385 1_556 S
C213 H236 0.930 . S
C214 C213 1.385 1_554 S
C214 C215 1.395 . S
C214 H237 0.929 . S
C215 C214 1.395 . S
C215 C216 1.335 . S
C216 C215 1.335 . S
C216 C217 1.398 1_554 S
C216 H238 0.930 . S
C217 C212 1.382 . S
C217 C216 1.398 1_556 S
C217 H239 0.929 . S
C218 O228 1.271 . S
C218 O229 1.251 . S
C219 O230 1.252 . S
C219 O231 1.272 . S
O220 Sm200 2.543 . S
O220 C202 1.261 . S
O221 Sm200 2.450 . S
O221 C202 1.242 . S
O222 Sm200 2.681 . S
O222 Sm201 2.386 . S
O222 C209 1.271 . S
O223 Sm200 2.464 . S
O223 C209 1.251 . S
O224 Sm200 2.396 . S
O224 C210 1.252 . S
O225 Sm201 2.408 . S
O225 C210 1.272 . S
O226 Sm201 2.543 . S
O226 C211 1.261 . S
O227 Sm201 2.450 . S
O227 C211 1.242 . S
O228 Sm200 2.386 . S
O228 Sm201 2.681 . S
O228 C218 1.271 . S
O229 Sm201 2.464 . S
O229 C218 1.251 . S
O230 Sm201 2.396 . S
O230 C219 1.252 . S
O231 Sm200 2.408 . S
O231 C219 1.272 . S
H232 C204 0.930 . S
H233 C205 0.929 . S
H234 C207 0.930 . S
H235 C208 0.929 . S
H236 C213 0.930 . S
H237 C214 0.929 . S
H238 C216 0.930 . S
H239 C217 0.929 . S
Sm240 C242 2.846 . S
Sm240 O260 2.543 . S
Sm240 O261 2.450 . S
Sm240 O262 2.681 1_556 S
Sm240 O263 2.464 . S
Sm240 O264 2.396 . S
Sm240 O268 2.386 . S
Sm240 O271 2.408 1_556 S
Sm241 C251 2.846 . S
Sm241 O262 2.386 . S
Sm241 O265 2.408 1_554 S
Sm241 O266 2.543 . S
Sm241 O267 2.450 . S
Sm241 O268 2.681 1_554 S
Sm241 O269 2.464 . S
Sm241 O270 2.396 . S
C242 Sm240 2.846 . S
C242 C243 1.506 . S
C242 O260 1.261 . S
C242 O261 1.242 . S
C243 C242 1.506 . S
C243 C244 1.358 . S
C243 C248 1.382 . S
C244 C243 1.358 . S
C244 C245 1.385 . S
C244 H272 0.930 . S
C245 C244 1.385 . S
C245 C246 1.395 . S
C245 H273 0.929 . S
C246 C245 1.395 . S
C246 C247 1.335 . S
C247 C246 1.335 . S
C247 C248 1.398 . S
C247 H274 0.930 . S
C248 C243 1.382 . S
C248 C247 1.398 . S
C248 H275 0.929 . S
C249 O262 1.271 . S
C249 O263 1.251 1_554 S
C250 O264 1.252 . S
C250 O265 1.272 . S
C251 Sm241 2.846 . S
C251 C252 1.506 . S
C251 O266 1.261 . S
C251 O267 1.242 . S
C252 C251 1.506 . S
C252 C253 1.358 . S
C252 C257 1.382 . S
C253 C252 1.358 . S
C253 C254 1.385 . S
C253 H276 0.930 . S
C254 C253 1.385 . S
C254 C255 1.395 . S
C254 H277 0.929 . S
C255 C254 1.395 . S
C255 C256 1.335 . S
C256 C255 1.335 . S
C256 C257 1.398 . S
C256 H278 0.930 . S
C257 C252 1.382 . S
C257 C256 1.398 . S
C257 H279 0.929 . S
C258 O268 1.271 . S
C258 O269 1.251 1_556 S
C259 O270 1.252 . S
C259 O271 1.272 . S
O260 Sm240 2.543 . S
O260 C242 1.261 . S
O261 Sm240 2.450 . S
O261 C242 1.242 . S
O262 Sm240 2.681 1_554 S
O262 Sm241 2.386 . S
O262 C249 1.271 . S
O263 Sm240 2.464 . S
O263 C249 1.251 1_556 S
O264 Sm240 2.396 . S
O264 C250 1.252 . S
O265 Sm241 2.408 1_556 S
O265 C250 1.272 . S
O266 Sm241 2.543 . S
O266 C251 1.261 . S
O267 Sm241 2.450 . S
O267 C251 1.242 . S
O268 Sm240 2.386 . S
O268 Sm241 2.681 1_556 S
O268 C258 1.271 . S
O269 Sm241 2.464 . S
O269 C258 1.251 1_554 S
O270 Sm241 2.396 . S
O270 C259 1.252 . S
O271 Sm240 2.408 1_554 S
O271 C259 1.272 . S
H272 C244 0.930 . S
H273 C245 0.929 . S
H274 C247 0.930 . S
H275 C248 0.929 . S
H276 C253 0.930 . S
H277 C254 0.929 . S
H278 C256 0.930 . S
H279 C257 0.929 . S
Sm280 C282 2.846 1_455 S
Sm280 O300 2.543 . S
Sm280 O301 2.450 1_455 S
Sm280 O302 2.681 1_455 S
Sm280 O303 2.464 1_455 S
Sm280 O304 2.396 1_455 S
Sm280 O308 2.386 . S
Sm280 O311 2.408 . S
Sm281 C291 2.846 1_655 S
Sm281 O302 2.386 . S
Sm281 O305 2.408 . S
Sm281 O306 2.543 . S
Sm281 O307 2.450 1_655 S
Sm281 O308 2.681 1_655 S
Sm281 O309 2.464 1_655 S
Sm281 O310 2.396 1_655 S
C282 Sm280 2.846 1_655 S
C282 C283 1.506 . S
C282 O300 1.261 1_655 S
C282 O301 1.242 . S
C283 C282 1.506 . S
C283 C284 1.358 . S
C283 C288 1.382 . S
C284 C283 1.358 . S
C284 C285 1.385 . S
C284 H312 0.930 1_655 S
C285 C284 1.385 . S
C285 C286 1.395 . S
C285 H313 0.929 . S
C286 C285 1.395 . S
C286 C287 1.335 . S
C287 C286 1.335 . S
C287 C288 1.398 . S
C287 H314 0.930 . S
C288 C283 1.382 . S
C288 C287 1.398 . S
C288 H315 0.929 . S
C289 O302 1.271 . S
C289 O303 1.251 . S
C290 O304 1.252 . S
C290 O305 1.272 . S
C291 Sm281 2.846 1_455 S
C291 C292 1.506 . S
C291 O306 1.261 1_455 S
C291 O307 1.242 . S
C292 C291 1.506 . S
C292 C293 1.358 . S
C292 C297 1.382 . S
C293 C292 1.358 . S
C293 C294 1.385 . S
C293 H316 0.930 1_455 S
C294 C293 1.385 . S
C294 C295 1.395 . S
C294 H317 0.929 . S
C295 C294 1.395 . S
C295 C296 1.335 . S
C296 C295 1.335 . S
C296 C297 1.398 . S
C296 H318 0.930 . S
C297 C292 1.382 . S
C297 C296 1.398 . S
C297 H319 0.929 . S
C298 O308 1.271 . S
C298 O309 1.251 . S
C299 O310 1.252 . S
C299 O311 1.272 . S
O300 Sm280 2.543 . S
O300 C282 1.261 1_455 S
O301 Sm280 2.450 1_655 S
O301 C282 1.242 . S
O302 Sm280 2.681 1_655 S
O302 Sm281 2.386 . S
O302 C289 1.271 . S
O303 Sm280 2.464 1_655 S
O303 C289 1.251 . S
O304 Sm280 2.396 1_655 S
O304 C290 1.252 . S
O305 Sm281 2.408 . S
O305 C290 1.272 . S
O306 Sm281 2.543 . S
O306 C291 1.261 1_655 S
O307 Sm281 2.450 1_455 S
O307 C291 1.242 . S
O308 Sm280 2.386 . S
O308 Sm281 2.681 1_455 S
O308 C298 1.271 . S
O309 Sm281 2.464 1_455 S
O309 C298 1.251 . S
O310 Sm281 2.396 1_455 S
O310 C299 1.252 . S
O311 Sm280 2.408 . S
O311 C299 1.272 . S
H312 C284 0.930 1_455 S
H313 C285 0.929 . S
H314 C287 0.930 . S
H315 C288 0.929 . S
H316 C293 0.930 1_655 S
H317 C294 0.929 . S
H318 C296 0.930 . S
H319 C297 0.929 . S
H320 C338 0.951 . S
H321 C340 0.951 . S
H322 C342 0.950 . S
H323 C343 0.950 . S
H324 C345 0.950 . S
H325 C348 0.950 . S
H326 C349 0.950 . S
H327 C351 0.950 . S
H328 C352 0.950 . S
H329 C353 0.951 . S
H330 C355 0.951 . S
H331 C357 0.950 . S
H332 C358 0.950 . S
H333 C360 0.950 . S
H334 C363 0.950 . S
H335 C364 0.950 . S
H336 C366 0.950 . S
H337 C367 0.950 . S
C338 H320 0.951 . S
C338 C339 1.366 . S
C338 C340 1.388 . S
C339 C338 1.366 . S
C339 C343 1.385 . S
C340 H321 0.951 . S
C340 C338 1.388 . S
C340 C341 1.366 . S
C341 C340 1.366 . S
C341 C342 1.414 . S
C341 C344 1.499 . S
C342 H322 0.950 . S
C342 C341 1.414 . S
C342 C343 1.374 . S
C343 H323 0.950 . S
C343 C339 1.385 . S
C343 C342 1.374 . S
C344 C341 1.499 . S
C344 C345 1.373 . S
C344 C346 1.389 . S
C345 H324 0.950 . S
C345 C344 1.373 . S
C345 C361 1.377 . S
C346 C344 1.389 . S
C346 C347 1.524 . S
C346 C360 1.377 . S
C347 C346 1.524 . S
C347 C348 1.397 . S
C347 C352 1.363 . S
C348 H325 0.950 . S
C348 C347 1.397 . S
C348 C349 1.334 . S
C349 H326 0.950 . S
C349 C348 1.334 . S
C349 C350 1.287 . S
C350 C349 1.287 . S
C350 C351 1.524 . S
C350 H369 0.913 . S
C351 H327 0.950 . S
C351 C350 1.524 . S
C351 C352 1.415 . S
C352 H328 0.950 . S
C352 C347 1.363 . S
C352 C351 1.415 . S
C353 H329 0.951 . S
C353 C354 1.366 . S
C353 C355 1.388 . S
C354 C353 1.366 . S
C354 C358 1.385 . S
C355 H330 0.951 . S
C355 C353 1.388 . S
C355 C356 1.366 . S
C356 C355 1.366 . S
C356 C357 1.414 . S
C356 C359 1.499 . S
C357 H331 0.950 . S
C357 C356 1.414 . S
C357 C358 1.374 . S
C358 H332 0.950 . S
C358 C354 1.385 . S
C358 C357 1.374 . S
C359 C356 1.499 . S
C359 C360 1.373 . S
C359 C361 1.389 . S
C360 H333 0.950 . S
C360 C346 1.377 . S
C360 C359 1.373 . S
C361 C345 1.377 . S
C361 C359 1.389 . S
C361 C362 1.524 . S
C362 C361 1.524 . S
C362 C363 1.397 . S
C362 C367 1.363 . S
C363 H334 0.950 . S
C363 C362 1.397 . S
C363 C364 1.334 . S
C364 H335 0.950 . S
C364 C363 1.334 . S
C364 C365 1.287 . S
C365 C364 1.287 . S
C365 C366 1.524 . S
C365 H368 0.999 . S
C366 H336 0.950 . S
C366 C365 1.524 . S
C366 C367 1.415 . S
C367 H337 0.950 . S
C367 C362 1.363 . S
C367 C366 1.415 . S
H368 C365 0.999 . S
H369 C350 0.913 . S
H370 C388 0.951 . S
H371 C390 0.951 . S
H372 C392 0.950 . S
H373 C393 0.950 . S
H374 C395 0.950 . S
H375 C398 0.950 . S
H376 C399 0.950 . S
H377 C401 0.950 . S
H378 C402 0.950 . S
H379 C403 0.951 . S
H380 C405 0.951 . S
H381 C407 0.950 . S
H382 C408 0.950 . S
H383 C410 0.950 . S
H384 C413 0.950 . S
H385 C414 0.950 . S
H386 C416 0.950 . S
H387 C417 0.950 . S
C388 H370 0.951 . S
C388 C389 1.366 . S
C388 C390 1.388 . S
C389 C388 1.366 . S
C389 C393 1.385 . S
C390 H371 0.951 . S
C390 C388 1.388 . S
C390 C391 1.366 . S
C391 C390 1.366 . S
C391 C392 1.414 . S
C391 C394 1.499 . S
C392 H372 0.950 . S
C392 C391 1.414 . S
C392 C393 1.374 . S
C393 H373 0.950 . S
C393 C389 1.385 . S
C393 C392 1.374 . S
C394 C391 1.499 . S
C394 C395 1.373 . S
C394 C396 1.389 . S
C395 H374 0.950 . S
C395 C394 1.373 . S
C395 C411 1.377 . S
C396 C394 1.389 . S
C396 C397 1.524 . S
C396 C410 1.377 . S
C397 C396 1.524 . S
C397 C398 1.397 . S
C397 C402 1.363 . S
C398 H375 0.950 . S
C398 C397 1.397 . S
C398 C399 1.334 . S
C399 H376 0.950 . S
C399 C398 1.334 . S
C399 C400 1.287 . S
C400 C399 1.287 . S
C400 C401 1.524 . S
C400 H419 0.913 . S
C401 H377 0.950 . S
C401 C400 1.524 . S
C401 C402 1.415 . S
C402 H378 0.950 . S
C402 C397 1.363 . S
C402 C401 1.415 . S
C403 H379 0.951 . S
C403 C404 1.366 . S
C403 C405 1.388 . S
C404 C403 1.366 . S
C404 C408 1.385 . S
C405 H380 0.951 . S
C405 C403 1.388 . S
C405 C406 1.366 . S
C406 C405 1.366 . S
C406 C407 1.414 . S
C406 C409 1.499 . S
C407 H381 0.950 . S
C407 C406 1.414 . S
C407 C408 1.374 . S
C408 H382 0.950 . S
C408 C404 1.385 . S
C408 C407 1.374 . S
C409 C406 1.499 . S
C409 C410 1.373 . S
C409 C411 1.389 . S
C410 H383 0.950 . S
C410 C396 1.377 . S
C410 C409 1.373 . S
C411 C395 1.377 . S
C411 C409 1.389 . S
C411 C412 1.524 . S
C412 C411 1.524 . S
C412 C413 1.397 . S
C412 C417 1.363 . S
C413 H384 0.950 . S
C413 C412 1.397 . S
C413 C414 1.334 . S
C414 H385 0.950 . S
C414 C413 1.334 . S
C414 C415 1.287 . S
C415 C414 1.287 . S
C415 C416 1.524 . S
C415 H418 0.999 . S
C416 H386 0.950 . S
C416 C415 1.524 . S
C416 C417 1.415 . S
C417 H387 0.950 . S
C417 C412 1.363 . S
C417 C416 1.415 . S
H418 C415 0.999 . S
H419 C400 0.913 . S
H420 C438 0.951 . S
H421 C440 0.951 . S
H422 C442 0.950 . S
H423 C443 0.950 . S
H424 C445 0.950 . S
H425 C448 0.950 . S
H426 C449 0.950 . S
H427 C451 0.950 . S
H428 C452 0.950 . S
H429 C453 0.951 . S
H430 C455 0.951 . S
H431 C457 0.950 . S
H432 C458 0.950 . S
H433 C460 0.950 . S
H434 C463 0.950 . S
H435 C464 0.950 . S
H436 C466 0.950 . S
H437 C467 0.950 . S
C438 H420 0.951 . S
C438 C439 1.366 . S
C438 C440 1.388 . S
C439 C438 1.366 . S
C439 C443 1.385 . S
C440 H421 0.951 . S
C440 C438 1.388 . S
C440 C441 1.366 . S
C441 C440 1.366 . S
C441 C442 1.414 . S
C441 C444 1.499 . S
C442 H422 0.950 . S
C442 C441 1.414 . S
C442 C443 1.374 . S
C443 H423 0.950 . S
C443 C439 1.385 . S
C443 C442 1.374 . S
C444 C441 1.499 . S
C444 C445 1.373 . S
C444 C446 1.389 . S
C445 H424 0.950 . S
C445 C444 1.373 . S
C445 C461 1.377 . S
C446 C444 1.389 . S
C446 C447 1.524 . S
C446 C460 1.377 . S
C447 C446 1.524 . S
C447 C448 1.397 . S
C447 C452 1.363 . S
C448 H425 0.950 . S
C448 C447 1.397 . S
C448 C449 1.334 . S
C449 H426 0.950 . S
C449 C448 1.334 . S
C449 C450 1.287 . S
C450 C449 1.287 . S
C450 C451 1.524 . S
C450 H469 0.913 1_556 S
C451 H427 0.950 . S
C451 C450 1.524 . S
C451 C452 1.415 . S
C452 H428 0.950 . S
C452 C447 1.363 . S
C452 C451 1.415 . S
C453 H429 0.951 . S
C453 C454 1.366 . S
C453 C455 1.388 . S
C454 C453 1.366 . S
C454 C458 1.385 . S
C455 H430 0.951 . S
C455 C453 1.388 . S
C455 C456 1.366 . S
C456 C455 1.366 . S
C456 C457 1.414 . S
C456 C459 1.499 . S
C457 H431 0.950 . S
C457 C456 1.414 . S
C457 C458 1.374 . S
C458 H432 0.950 . S
C458 C454 1.385 . S
C458 C457 1.374 . S
C459 C456 1.499 . S
C459 C460 1.373 . S
C459 C461 1.389 . S
C460 H433 0.950 . S
C460 C446 1.377 . S
C460 C459 1.373 . S
C461 C445 1.377 . S
C461 C459 1.389 . S
C461 C462 1.524 . S
C462 C461 1.524 . S
C462 C463 1.397 . S
C462 C467 1.363 . S
C463 H434 0.950 . S
C463 C462 1.397 . S
C463 C464 1.334 . S
C464 H435 0.950 . S
C464 C463 1.334 . S
C464 C465 1.287 . S
C465 C464 1.287 . S
C465 C466 1.524 . S
C465 H468 0.999 . S
C466 H436 0.950 . S
C466 C465 1.524 . S
C466 C467 1.415 . S
C467 H437 0.950 . S
C467 C462 1.363 . S
C467 C466 1.415 . S
H468 C465 0.999 . S
H469 C450 0.913 1_554 S
H470 C488 0.951 . S
H471 C490 0.951 . S
H472 C492 0.950 . S
H473 C493 0.950 . S
H474 C495 0.950 . S
H475 C498 0.950 . S
H476 C499 0.950 . S
H477 C501 0.950 . S
H478 C502 0.950 . S
H479 C503 0.951 . S
H480 C505 0.951 . S
H481 C507 0.950 . S
H482 C508 0.950 . S
H483 C510 0.950 . S
H484 C513 0.950 . S
H485 C514 0.950 . S
H486 C516 0.950 1_556 S
H487 C517 0.950 . S
C488 H470 0.951 . S
C488 C489 1.366 . S
C488 C490 1.388 . S
C489 C488 1.366 . S
C489 C493 1.385 . S
C490 H471 0.951 . S
C490 C488 1.388 . S
C490 C491 1.366 . S
C491 C490 1.366 . S
C491 C492 1.414 . S
C491 C494 1.499 . S
C492 H472 0.950 . S
C492 C491 1.414 . S
C492 C493 1.374 . S
C493 H473 0.950 . S
C493 C489 1.385 . S
C493 C492 1.374 . S
C494 C491 1.499 . S
C494 C495 1.373 . S
C494 C496 1.389 . S
C495 H474 0.950 . S
C495 C494 1.373 . S
C495 C511 1.377 . S
C496 C494 1.389 . S
C496 C497 1.524 . S
C496 C510 1.377 . S
C497 C496 1.524 . S
C497 C498 1.397 . S
C497 C502 1.363 . S
C498 H475 0.950 . S
C498 C497 1.397 . S
C498 C499 1.334 . S
C499 H476 0.950 . S
C499 C498 1.334 . S
C499 C500 1.287 . S
C500 C499 1.287 . S
C500 C501 1.524 . S
C500 H519 0.913 . S
C501 H477 0.950 . S
C501 C500 1.524 . S
C501 C502 1.415 . S
C502 H478 0.950 . S
C502 C497 1.363 . S
C502 C501 1.415 . S
C503 H479 0.951 . S
C503 C504 1.366 . S
C503 C505 1.388 . S
C504 C503 1.366 . S
C504 C508 1.385 . S
C505 H480 0.951 . S
C505 C503 1.388 . S
C505 C506 1.366 . S
C506 C505 1.366 . S
C506 C507 1.414 . S
C506 C509 1.499 . S
C507 H481 0.950 . S
C507 C506 1.414 . S
C507 C508 1.374 . S
C508 H482 0.950 . S
C508 C504 1.385 . S
C508 C507 1.374 . S
C509 C506 1.499 . S
C509 C510 1.373 . S
C509 C511 1.389 . S
C510 H483 0.950 . S
C510 C496 1.377 . S
C510 C509 1.373 . S
C511 C495 1.377 . S
C511 C509 1.389 . S
C511 C512 1.524 . S
C512 C511 1.524 . S
C512 C513 1.397 . S
C512 C517 1.363 . S
C513 H484 0.950 . S
C513 C512 1.397 . S
C513 C514 1.334 . S
C514 H485 0.950 . S
C514 C513 1.334 . S
C514 C515 1.287 . S
C515 C514 1.287 . S
C515 C516 1.524 . S
C515 H518 0.999 1_554 S
C516 H486 0.950 1_554 S
C516 C515 1.524 . S
C516 C517 1.415 . S
C517 H487 0.950 . S
C517 C512 1.363 . S
C517 C516 1.415 . S
H518 C515 0.999 1_556 S
H519 C500 0.913 . S
H520 C538 0.951 . S
H521 C540 0.951 . S
H522 C542 0.950 . S
H523 C543 0.950 . S
H524 C545 0.950 . S
H525 C548 0.950 . S
H526 C549 0.950 . S
H527 C551 0.950 . S
H528 C552 0.950 . S
H529 C553 0.951 . S
H530 C555 0.951 . S
H531 C557 0.950 . S
H532 C558 0.950 . S
H533 C560 0.950 . S
H534 C563 0.950 . S
H535 C564 0.950 . S
H536 C566 0.950 . S
H537 C567 0.950 . S
C538 H520 0.951 . S
C538 C539 1.366 . S
C538 C540 1.388 . S
C539 C538 1.366 . S
C539 C543 1.385 . S
C540 H521 0.951 . S
C540 C538 1.388 . S
C540 C541 1.366 . S
C541 C540 1.366 . S
C541 C542 1.414 . S
C541 C544 1.499 . S
C542 H522 0.950 . S
C542 C541 1.414 . S
C542 C543 1.374 . S
C543 H523 0.950 . S
C543 C539 1.385 . S
C543 C542 1.374 . S
C544 C541 1.499 . S
C544 C545 1.373 . S
C544 C546 1.389 . S
C545 H524 0.950 . S
C545 C544 1.373 . S
C545 C561 1.377 . S
C546 C544 1.389 . S
C546 C547 1.524 . S
C546 C560 1.377 . S
C547 C546 1.524 . S
C547 C548 1.397 . S
C547 C552 1.363 . S
C548 H525 0.950 . S
C548 C547 1.397 . S
C548 C549 1.334 . S
C549 H526 0.950 . S
C549 C548 1.334 . S
C549 C550 1.287 . S
C550 C549 1.287 . S
C550 C551 1.524 . S
C550 H569 0.913 . S
C551 H527 0.950 . S
C551 C550 1.524 . S
C551 C552 1.415 . S
C552 H528 0.950 . S
C552 C547 1.363 . S
C552 C551 1.415 . S
C553 H529 0.951 . S
C553 C554 1.366 . S
C553 C555 1.388 . S
C554 C553 1.366 . S
C554 C558 1.385 . S
C555 H530 0.951 . S
C555 C553 1.388 . S
C555 C556 1.366 . S
C556 C555 1.366 . S
C556 C557 1.414 . S
C556 C559 1.499 . S
C557 H531 0.950 . S
C557 C556 1.414 . S
C557 C558 1.374 . S
C558 H532 0.950 . S
C558 C554 1.385 . S
C558 C557 1.374 . S
C559 C556 1.499 . S
C559 C560 1.373 . S
C559 C561 1.389 . S
C560 H533 0.950 . S
C560 C546 1.377 . S
C560 C559 1.373 . S
C561 C545 1.377 . S
C561 C559 1.389 . S
C561 C562 1.524 . S
C562 C561 1.524 . S
C562 C563 1.397 . S
C562 C567 1.363 . S
C563 H534 0.950 . S
C563 C562 1.397 . S
C563 C564 1.334 . S
C564 H535 0.950 . S
C564 C563 1.334 . S
C564 C565 1.287 . S
C565 C564 1.287 . S
C565 C566 1.524 . S
C565 H568 0.999 . S
C566 H536 0.950 . S
C566 C565 1.524 . S
C566 C567 1.415 . S
C567 H537 0.950 . S
C567 C562 1.363 . S
C567 C566 1.415 . S
H568 C565 0.999 . S
H569 C550 0.913 . S
H570 C588 0.951 . S
H571 C590 0.951 . S
H572 C592 0.950 . S
H573 C593 0.950 . S
H574 C595 0.950 . S
H575 C598 0.950 . S
H576 C599 0.950 . S
H577 C601 0.950 . S
H578 C602 0.950 . S
H579 C603 0.951 . S
H580 C605 0.951 . S
H581 C607 0.950 . S
H582 C608 0.950 . S
H583 C610 0.950 . S
H584 C613 0.950 . S
H585 C614 0.950 . S
H586 C616 0.950 . S
H587 C617 0.950 . S
C588 H570 0.951 . S
C588 C589 1.366 . S
C588 C590 1.388 . S
C589 C588 1.366 . S
C589 C593 1.385 . S
C590 H571 0.951 . S
C590 C588 1.388 . S
C590 C591 1.366 . S
C591 C590 1.366 . S
C591 C592 1.414 . S
C591 C594 1.499 . S
C592 H572 0.950 . S
C592 C591 1.414 . S
C592 C593 1.374 . S
C593 H573 0.950 . S
C593 C589 1.385 . S
C593 C592 1.374 . S
C594 C591 1.499 . S
C594 C595 1.373 . S
C594 C596 1.389 . S
C595 H574 0.950 . S
C595 C594 1.373 . S
C595 C611 1.377 . S
C596 C594 1.389 . S
C596 C597 1.524 . S
C596 C610 1.377 . S
C597 C596 1.524 . S
C597 C598 1.397 . S
C597 C602 1.363 . S
C598 H575 0.950 . S
C598 C597 1.397 . S
C598 C599 1.334 . S
C599 H576 0.950 . S
C599 C598 1.334 . S
C599 C600 1.287 . S
C600 C599 1.287 . S
C600 C601 1.524 . S
C600 H619 0.913 . S
C601 H577 0.950 . S
C601 C600 1.524 . S
C601 C602 1.415 . S
C602 H578 0.950 . S
C602 C597 1.363 . S
C602 C601 1.415 . S
C603 H579 0.951 . S
C603 C604 1.366 . S
C603 C605 1.388 . S
C604 C603 1.366 . S
C604 C608 1.385 . S
C605 H580 0.951 . S
C605 C603 1.388 . S
C605 C606 1.366 . S
C606 C605 1.366 . S
C606 C607 1.414 . S
C606 C609 1.499 . S
C607 H581 0.950 . S
C607 C606 1.414 . S
C607 C608 1.374 . S
C608 H582 0.950 . S
C608 C604 1.385 . S
C608 C607 1.374 . S
C609 C606 1.499 . S
C609 C610 1.373 . S
C609 C611 1.389 . S
C610 H583 0.950 . S
C610 C596 1.377 . S
C610 C609 1.373 . S
C611 C595 1.377 . S
C611 C609 1.389 . S
C611 C612 1.524 . S
C612 C611 1.524 . S
C612 C613 1.397 . S
C612 C617 1.363 . S
C613 H584 0.950 . S
C613 C612 1.397 . S
C613 C614 1.334 . S
C614 H585 0.950 . S
C614 C613 1.334 . S
C614 C615 1.287 . S
C615 C614 1.287 . S
C615 C616 1.524 . S
C615 H618 0.999 . S
C616 H586 0.950 . S
C616 C615 1.524 . S
C616 C617 1.415 . S
C617 H587 0.950 . S
C617 C612 1.363 . S
C617 C616 1.415 . S
H618 C615 0.999 . S
H619 C600 0.913 . S
H620 C638 0.951 . S
H621 C640 0.951 . S
H622 C642 0.950 . S
H623 C643 0.950 . S
H624 C645 0.950 . S
H625 C648 0.950 . S
H626 C649 0.950 . S
H627 C651 0.950 . S
H628 C652 0.950 . S
H629 C653 0.951 . S
H630 C655 0.951 . S
H631 C657 0.950 . S
H632 C658 0.950 . S
H633 C660 0.950 . S
H634 C663 0.950 . S
H635 C664 0.950 . S
H636 C666 0.950 . S
H637 C667 0.950 . S
C638 H620 0.951 . S
C638 C639 1.366 . S
C638 C640 1.388 . S
C639 C638 1.366 . S
C639 C643 1.385 . S
C640 H621 0.951 . S
C640 C638 1.388 . S
C640 C641 1.366 . S
C641 C640 1.366 . S
C641 C642 1.414 . S
C641 C644 1.499 . S
C642 H622 0.950 . S
C642 C641 1.414 . S
C642 C643 1.374 . S
C643 H623 0.950 . S
C643 C639 1.385 . S
C643 C642 1.374 . S
C644 C641 1.499 . S
C644 C645 1.373 . S
C644 C646 1.389 . S
C645 H624 0.950 . S
C645 C644 1.373 . S
C645 C661 1.377 . S
C646 C644 1.389 . S
C646 C647 1.524 . S
C646 C660 1.377 . S
C647 C646 1.524 . S
C647 C648 1.397 . S
C647 C652 1.363 . S
C648 H625 0.950 . S
C648 C647 1.397 . S
C648 C649 1.334 . S
C649 H626 0.950 . S
C649 C648 1.334 . S
C649 C650 1.287 . S
C650 C649 1.287 . S
C650 C651 1.524 . S
C650 H669 0.903 1_554 S
C651 H627 0.950 . S
C651 C650 1.524 . S
C651 C652 1.415 . S
C652 H628 0.950 . S
C652 C647 1.363 . S
C652 C651 1.415 . S
C653 H629 0.951 . S
C653 C654 1.366 . S
C653 C655 1.388 . S
C654 C653 1.366 . S
C654 C658 1.385 . S
C655 H630 0.951 . S
C655 C653 1.388 . S
C655 C656 1.366 . S
C656 C655 1.366 . S
C656 C657 1.414 . S
C656 C659 1.499 . S
C657 H631 0.950 . S
C657 C656 1.414 . S
C657 C658 1.374 . S
C658 H632 0.950 . S
C658 C654 1.385 . S
C658 C657 1.374 . S
C659 C656 1.499 . S
C659 C660 1.373 . S
C659 C661 1.389 . S
C660 H633 0.950 . S
C660 C646 1.377 . S
C660 C659 1.373 . S
C661 C645 1.377 . S
C661 C659 1.389 . S
C661 C662 1.524 . S
C662 C661 1.524 . S
C662 C663 1.397 . S
C662 C667 1.363 . S
C663 H634 0.950 . S
C663 C662 1.397 . S
C663 C664 1.334 . S
C664 H635 0.950 . S
C664 C663 1.334 . S
C664 C665 1.287 . S
C665 C664 1.287 . S
C665 C666 1.524 . S
C665 H668 0.999 . S
C666 H636 0.950 . S
C666 C665 1.524 . S
C666 C667 1.415 . S
C667 H637 0.950 . S
C667 C662 1.363 . S
C667 C666 1.415 . S
H668 C665 0.999 . S
H669 C650 0.903 1_556 S
H670 C688 0.951 . S
H671 C690 0.951 . S
H672 C692 0.950 . S
H673 C693 0.950 . S
H674 C695 0.950 . S
H675 C698 0.950 . S
H676 C699 0.950 . S
H677 C701 0.950 . S
H678 C702 0.950 . S
H679 C703 0.951 . S
H680 C705 0.951 . S
H681 C707 0.950 . S
H682 C708 0.950 . S
H683 C710 0.950 . S
H684 C713 0.950 . S
H685 C714 0.950 . S
H686 C716 0.950 . S
H687 C717 0.950 . S
C688 H670 0.951 . S
C688 C689 1.366 . S
C688 C690 1.388 . S
C689 C688 1.366 . S
C689 C693 1.385 . S
C690 H671 0.951 . S
C690 C688 1.388 . S
C690 C691 1.366 . S
C691 C690 1.366 . S
C691 C692 1.414 . S
C691 C694 1.499 . S
C692 H672 0.950 . S
C692 C691 1.414 . S
C692 C693 1.374 . S
C693 H673 0.950 . S
C693 C689 1.385 . S
C693 C692 1.374 . S
C694 C691 1.499 . S
C694 C695 1.373 . S
C694 C696 1.389 . S
C695 H674 0.950 . S
C695 C694 1.373 . S
C695 C711 1.377 . S
C696 C694 1.389 . S
C696 C697 1.524 . S
C696 C710 1.377 . S
C697 C696 1.524 . S
C697 C698 1.397 . S
C697 C702 1.363 . S
C698 H675 0.950 . S
C698 C697 1.397 . S
C698 C699 1.334 . S
C699 H676 0.950 . S
C699 C698 1.334 . S
C699 C700 1.287 . S
C700 C699 1.287 . S
C700 C701 1.524 . S
C700 H719 0.913 . S
C701 H677 0.950 . S
C701 C700 1.524 . S
C701 C702 1.415 . S
C702 H678 0.950 . S
C702 C697 1.363 . S
C702 C701 1.415 . S
C703 H679 0.951 . S
C703 C704 1.366 . S
C703 C705 1.388 . S
C704 C703 1.366 . S
C704 C708 1.385 . S
C705 H680 0.951 . S
C705 C703 1.388 . S
C705 C706 1.366 . S
C706 C705 1.366 . S
C706 C707 1.414 . S
C706 C709 1.499 . S
C707 H681 0.950 . S
C707 C706 1.414 . S
C707 C708 1.374 . S
C708 H682 0.950 . S
C708 C704 1.385 . S
C708 C707 1.374 . S
C709 C706 1.499 . S
C709 C710 1.373 . S
C709 C711 1.389 . S
C710 H683 0.950 . S
C710 C696 1.377 . S
C710 C709 1.373 . S
C711 C695 1.377 . S
C711 C709 1.389 . S
C711 C712 1.524 . S
C712 C711 1.524 . S
C712 C713 1.397 . S
C712 C717 1.363 . S
C713 H684 0.950 . S
C713 C712 1.397 . S
C713 C714 1.334 . S
C714 H685 0.950 . S
C714 C713 1.334 . S
C714 C715 1.287 . S
C715 C714 1.287 . S
C715 C716 1.524 . S
C715 H718 0.999 . S
C716 H686 0.950 . S
C716 C715 1.524 . S
C716 C717 1.415 . S
C717 H687 0.950 . S
C717 C712 1.363 . S
C717 C716 1.415 . S
H718 C715 0.999 . S
H719 C700 0.913 . S
H720 C738 0.951 . S
H721 C740 0.951 . S
H722 C742 0.950 . S
H723 C743 0.950 . S
H724 C745 0.950 . S
H725 C748 0.950 . S
H726 C749 0.950 . S
H727 C751 0.950 1_554 S
H728 C752 0.950 . S
H729 C753 0.951 . S
H730 C755 0.951 . S
H731 C757 0.950 . S
H732 C758 0.950 . S
H733 C760 0.950 . S
H734 C763 0.950 . S
H735 C764 0.950 . S
H736 C766 0.950 . S
H737 C767 0.950 . S
C738 H720 0.951 . S
C738 C739 1.366 . S
C738 C740 1.388 . S
C739 C738 1.366 . S
C739 C743 1.385 . S
C740 H721 0.951 . S
C740 C738 1.388 . S
C740 C741 1.366 . S
C741 C740 1.366 . S
C741 C742 1.414 . S
C741 C744 1.499 . S
C742 H722 0.950 . S
C742 C741 1.414 . S
C742 C743 1.374 . S
C743 H723 0.950 . S
C743 C739 1.385 . S
C743 C742 1.374 . S
C744 C741 1.499 . S
C744 C745 1.373 . S
C744 C746 1.389 . S
C745 H724 0.950 . S
C745 C744 1.373 . S
C745 C761 1.377 . S
C746 C744 1.389 . S
C746 C747 1.524 . S
C746 C760 1.377 . S
C747 C746 1.524 . S
C747 C748 1.397 . S
C747 C752 1.363 . S
C748 H725 0.950 . S
C748 C747 1.397 . S
C748 C749 1.334 . S
C749 H726 0.950 . S
C749 C748 1.334 . S
C749 C750 1.287 . S
C750 C749 1.287 . S
C750 C751 1.524 . S
C750 H769 0.913 . S
C751 H727 0.950 1_556 S
C751 C750 1.524 . S
C751 C752 1.415 . S
C752 H728 0.950 . S
C752 C747 1.363 . S
C752 C751 1.415 . S
C753 H729 0.951 . S
C753 C754 1.366 . S
C753 C755 1.388 . S
C754 C753 1.366 . S
C754 C758 1.385 . S
C755 H730 0.951 . S
C755 C753 1.388 . S
C755 C756 1.366 . S
C756 C755 1.366 . S
C756 C757 1.414 . S
C756 C759 1.499 . S
C757 H731 0.950 . S
C757 C756 1.414 . S
C757 C758 1.374 . S
C758 H732 0.950 . S
C758 C754 1.385 . S
C758 C757 1.374 . S
C759 C756 1.499 . S
C759 C760 1.373 . S
C759 C761 1.389 . S
C760 H733 0.950 . S
C760 C746 1.377 . S
C760 C759 1.373 . S
C761 C745 1.377 . S
C761 C759 1.389 . S
C761 C762 1.524 . S
C762 C761 1.524 . S
C762 C763 1.397 . S
C762 C767 1.363 . S
C763 H734 0.950 . S
C763 C762 1.397 . S
C763 C764 1.334 . S
C764 H735 0.950 . S
C764 C763 1.334 . S
C764 C765 1.287 . S
C765 C764 1.287 . S
C765 C766 1.524 . S
C765 H768 0.999 . S
C766 H736 0.950 . S
C766 C765 1.524 . S
C766 C767 1.415 . S
C767 H737 0.950 . S
C767 C762 1.363 . S
C767 C766 1.415 . S
H768 C765 0.999 . S
H769 C750 0.913 . S
H770 C788 0.951 . S
H771 C790 0.951 . S
H772 C792 0.950 . S
H773 C793 0.950 . S
H774 C795 0.950 . S
H775 C798 0.950 . S
H776 C799 0.950 . S
H777 C801 0.950 . S
H778 C802 0.950 . S
H779 C803 0.951 . S
H780 C805 0.951 . S
H781 C807 0.950 . S
H782 C808 0.950 . S
H783 C810 0.950 . S
H784 C813 0.950 . S
H785 C814 0.950 1_556 S
H786 C816 0.950 . S
H787 C817 0.950 . S
C788 H770 0.951 . S
C788 C789 1.366 . S
C788 C790 1.388 . S
C789 C788 1.366 . S
C789 C793 1.385 . S
C790 H771 0.951 . S
C790 C788 1.388 . S
C790 C791 1.366 . S
C791 C790 1.366 . S
C791 C792 1.414 . S
C791 C794 1.499 . S
C792 H772 0.950 . S
C792 C791 1.414 . S
C792 C793 1.374 . S
C793 H773 0.950 . S
C793 C789 1.385 . S
C793 C792 1.374 . S
C794 C791 1.499 . S
C794 C795 1.373 . S
C794 C796 1.389 . S
C795 H774 0.950 . S
C795 C794 1.373 . S
C795 C811 1.377 . S
C796 C794 1.389 . S
C796 C797 1.524 . S
C796 C810 1.377 . S
C797 C796 1.524 . S
C797 C798 1.397 . S
C797 C802 1.363 . S
C798 H775 0.950 . S
C798 C797 1.397 . S
C798 C799 1.334 . S
C799 H776 0.950 . S
C799 C798 1.334 . S
C799 C800 1.287 . S
C800 C799 1.287 . S
C800 C801 1.524 . S
C800 H819 0.913 . S
C801 H777 0.950 . S
C801 C800 1.524 . S
C801 C802 1.415 . S
C802 H778 0.950 . S
C802 C797 1.363 . S
C802 C801 1.415 . S
C803 H779 0.951 . S
C803 C804 1.366 . S
C803 C805 1.388 . S
C804 C803 1.366 . S
C804 C808 1.385 . S
C805 H780 0.951 . S
C805 C803 1.388 . S
C805 C806 1.366 . S
C806 C805 1.366 . S
C806 C807 1.414 . S
C806 C809 1.499 . S
C807 H781 0.950 . S
C807 C806 1.414 . S
C807 C808 1.374 . S
C808 H782 0.950 . S
C808 C804 1.385 . S
C808 C807 1.374 . S
C809 C806 1.499 . S
C809 C810 1.373 . S
C809 C811 1.389 . S
C810 H783 0.950 . S
C810 C796 1.377 . S
C810 C809 1.373 . S
C811 C795 1.377 . S
C811 C809 1.389 . S
C811 C812 1.524 . S
C812 C811 1.524 . S
C812 C813 1.397 . S
C812 C817 1.363 . S
C813 H784 0.950 . S
C813 C812 1.397 . S
C813 C814 1.334 . S
C814 H785 0.950 1_554 S
C814 C813 1.334 . S
C814 C815 1.287 . S
C815 C814 1.287 . S
C815 C816 1.524 . S
C815 H818 0.999 . S
C816 H786 0.950 . S
C816 C815 1.524 . S
C816 C817 1.415 . S
C817 H787 0.950 . S
C817 C812 1.363 . S
C817 C816 1.415 . S
H818 C815 0.999 . S
H819 C800 0.913 . S
H820 C838 0.951 . S
H821 C840 0.951 . S
H822 C842 0.950 . S
H823 C843 0.950 . S
H824 C845 0.950 . S
H825 C848 0.950 . S
H826 C849 0.950 . S
H827 C851 0.950 . S
H828 C852 0.950 . S
H829 C853 0.951 . S
H830 C855 0.951 . S
H831 C857 0.950 . S
H832 C858 0.950 . S
H833 C860 0.950 . S
H834 C863 0.950 . S
H835 C864 0.950 . S
H836 C866 0.950 . S
H837 C867 0.950 . S
C838 H820 0.951 . S
C838 C839 1.366 . S
C838 C840 1.388 . S
C839 C838 1.366 . S
C839 C843 1.385 . S
C840 H821 0.951 . S
C840 C838 1.388 . S
C840 C841 1.366 . S
C841 C840 1.366 . S
C841 C842 1.414 . S
C841 C844 1.499 . S
C842 H822 0.950 . S
C842 C841 1.414 . S
C842 C843 1.374 . S
C843 H823 0.950 . S
C843 C839 1.385 . S
C843 C842 1.374 . S
C844 C841 1.499 . S
C844 C845 1.373 . S
C844 C846 1.389 . S
C845 H824 0.950 . S
C845 C844 1.373 . S
C845 C861 1.377 . S
C846 C844 1.389 . S
C846 C847 1.524 . S
C846 C860 1.377 . S
C847 C846 1.524 . S
C847 C848 1.397 . S
C847 C852 1.363 . S
C848 H825 0.950 . S
C848 C847 1.397 . S
C848 C849 1.334 . S
C849 H826 0.950 . S
C849 C848 1.334 . S
C849 C850 1.287 . S
C850 C849 1.287 . S
C850 C851 1.524 . S
C850 H869 0.913 . S
C851 H827 0.950 . S
C851 C850 1.524 . S
C851 C852 1.415 . S
C852 H828 0.950 . S
C852 C847 1.363 . S
C852 C851 1.415 . S
C853 H829 0.951 . S
C853 C854 1.366 . S
C853 C855 1.388 . S
C854 C853 1.366 . S
C854 C858 1.385 . S
C855 H830 0.951 . S
C855 C853 1.388 . S
C855 C856 1.366 . S
C856 C855 1.366 . S
C856 C857 1.414 . S
C856 C859 1.499 . S
C857 H831 0.950 . S
C857 C856 1.414 . S
C857 C858 1.374 . S
C858 H832 0.950 . S
C858 C854 1.385 . S
C858 C857 1.374 . S
C859 C856 1.499 . S
C859 C860 1.373 . S
C859 C861 1.389 . S
C860 H833 0.950 . S
C860 C846 1.377 . S
C860 C859 1.373 . S
C861 C845 1.377 . S
C861 C859 1.389 . S
C861 C862 1.524 . S
C862 C861 1.524 . S
C862 C863 1.397 . S
C862 C867 1.363 . S
C863 H834 0.950 . S
C863 C862 1.397 . S
C863 C864 1.334 . S
C864 H835 0.950 . S
C864 C863 1.334 . S
C864 C865 1.287 . S
C865 C864 1.287 . S
C865 C866 1.524 . S
C865 H868 0.999 . S
C866 H836 0.950 . S
C866 C865 1.524 . S
C866 C867 1.415 . S
C867 H837 0.950 . S
C867 C862 1.363 . S
C867 C866 1.415 . S
H868 C865 0.999 . S
H869 C850 0.913 . S
H870 C888 0.951 . S
H871 C890 0.951 . S
H872 C892 0.950 . S
H873 C893 0.950 . S
H874 C895 0.950 . S
H875 C898 0.950 . S
H876 C899 0.950 . S
H877 C901 0.950 . S
H878 C902 0.950 . S
H879 C903 0.951 . S
H880 C905 0.951 . S
H881 C907 0.950 . S
H882 C908 0.950 . S
H883 C910 0.950 . S
H884 C913 0.950 . S
H885 C914 0.950 . S
H886 C916 0.950 . S
H887 C917 0.950 . S
C888 H870 0.951 . S
C888 C889 1.366 . S
C888 C890 1.388 . S
C889 C888 1.366 . S
C889 C893 1.385 . S
C890 H871 0.951 . S
C890 C888 1.388 . S
C890 C891 1.366 . S
C891 C890 1.366 . S
C891 C892 1.414 . S
C891 C894 1.499 . S
C892 H872 0.950 . S
C892 C891 1.414 . S
C892 C893 1.374 . S
C893 H873 0.950 . S
C893 C889 1.385 . S
C893 C892 1.374 . S
C894 C891 1.499 . S
C894 C895 1.373 . S
C894 C896 1.389 . S
C895 H874 0.950 . S
C895 C894 1.373 . S
C895 C911 1.377 . S
C896 C894 1.389 . S
C896 C897 1.524 . S
C896 C910 1.377 . S
C897 C896 1.524 . S
C897 C898 1.397 . S
C897 C902 1.363 . S
C898 H875 0.950 . S
C898 C897 1.397 . S
C898 C899 1.334 . S
C899 H876 0.950 . S
C899 C898 1.334 . S
C899 C900 1.287 . S
C900 C899 1.287 . S
C900 C901 1.524 . S
C900 H919 0.913 . S
C901 H877 0.950 . S
C901 C900 1.524 . S
C901 C902 1.415 . S
C902 H878 0.950 . S
C902 C897 1.363 . S
C902 C901 1.415 . S
C903 H879 0.951 . S
C903 C904 1.366 . S
C903 C905 1.388 . S
C904 C903 1.366 . S
C904 C908 1.385 . S
C905 H880 0.951 . S
C905 C903 1.388 . S
C905 C906 1.366 . S
C906 C905 1.366 . S
C906 C907 1.414 . S
C906 C909 1.499 . S
C907 H881 0.950 . S
C907 C906 1.414 . S
C907 C908 1.374 . S
C908 H882 0.950 . S
C908 C904 1.385 . S
C908 C907 1.374 . S
C909 C906 1.499 . S
C909 C910 1.373 . S
C909 C911 1.389 . S
C910 H883 0.950 . S
C910 C896 1.377 . S
C910 C909 1.373 . S
C911 C895 1.377 . S
C911 C909 1.389 . S
C911 C912 1.524 . S
C912 C911 1.524 . S
C912 C913 1.397 . S
C912 C917 1.363 . S
C913 H884 0.950 . S
C913 C912 1.397 . S
C913 C914 1.334 . S
C914 H885 0.950 . S
C914 C913 1.334 . S
C914 C915 1.287 . S
C915 C914 1.287 . S
C915 C916 1.524 . S
C915 H918 0.999 . S
C916 H886 0.950 . S
C916 C915 1.524 . S
C916 C917 1.415 . S
C917 H887 0.950 . S
C917 C912 1.363 . S
C917 C916 1.415 . S
H918 C915 0.999 . S
H919 C900 0.913 . S
H920 C938 0.951 . S
H921 C940 0.951 . S
H922 C942 0.950 . S
H923 C943 0.950 . S
H924 C945 0.950 . S
H925 C948 0.950 . S
H926 C949 0.950 . S
H927 C951 0.950 . S
H928 C952 0.950 . S
H929 C953 0.951 . S
H930 C955 0.951 . S
H931 C957 0.950 . S
H932 C958 0.950 . S
H933 C960 0.950 . S
H934 C963 0.950 . S
H935 C964 0.950 . S
H936 C966 0.950 . S
H937 C967 0.950 . S
C938 H920 0.951 . S
C938 C939 1.366 . S
C938 C940 1.388 . S
C939 C938 1.366 . S
C939 C943 1.385 . S
C940 H921 0.951 . S
C940 C938 1.388 . S
C940 C941 1.366 . S
C941 C940 1.366 . S
C941 C942 1.414 . S
C941 C944 1.499 . S
C942 H922 0.950 . S
C942 C941 1.414 . S
C942 C943 1.374 . S
C943 H923 0.950 . S
C943 C939 1.385 . S
C943 C942 1.374 . S
C944 C941 1.499 . S
C944 C945 1.373 . S
C944 C946 1.389 . S
C945 H924 0.950 . S
C945 C944 1.373 . S
C945 C961 1.377 . S
C946 C944 1.389 . S
C946 C947 1.524 . S
C946 C960 1.377 . S
C947 C946 1.524 . S
C947 C948 1.397 . S
C947 C952 1.363 . S
C948 H925 0.950 . S
C948 C947 1.397 . S
C948 C949 1.334 . S
C949 H926 0.950 . S
C949 C948 1.334 . S
C949 C950 1.287 . S
C950 C949 1.287 . S
C950 C951 1.524 . S
C950 H969 0.913 . S
C951 H927 0.950 . S
C951 C950 1.524 . S
C951 C952 1.415 . S
C952 H928 0.950 . S
C952 C947 1.363 . S
C952 C951 1.415 . S
C953 H929 0.951 . S
C953 C954 1.366 . S
C953 C955 1.388 . S
C954 C953 1.366 . S
C954 C958 1.385 . S
C955 H930 0.951 . S
C955 C953 1.388 . S
C955 C956 1.366 . S
C956 C955 1.366 . S
C956 C957 1.414 . S
C956 C959 1.499 . S
C957 H931 0.950 . S
C957 C956 1.414 . S
C957 C958 1.374 . S
C958 H932 0.950 . S
C958 C954 1.385 . S
C958 C957 1.374 . S
C959 C956 1.499 . S
C959 C960 1.373 . S
C959 C961 1.389 . S
C960 H933 0.950 . S
C960 C946 1.377 . S
C960 C959 1.373 . S
C961 C945 1.377 . S
C961 C959 1.389 . S
C961 C962 1.524 . S
C962 C961 1.524 . S
C962 C963 1.397 . S
C962 C967 1.363 . S
C963 H934 0.950 . S
C963 C962 1.397 . S
C963 C964 1.334 1_554 S
C964 H935 0.950 . S
C964 C963 1.334 1_556 S
C964 C965 1.287 . S
C965 C964 1.287 . S
C965 C966 1.524 . S
C965 H968 0.999 . S
C966 H936 0.950 . S
C966 C965 1.524 . S
C966 C967 1.415 1_556 S
C967 H937 0.950 . S
C967 C962 1.363 . S
C967 C966 1.415 1_554 S
H968 C965 0.999 . S
H969 C950 0.913 . S
H970 C988 0.951 . S
H971 C990 0.951 . S
H972 C992 0.950 . S
H973 C993 0.950 . S
H974 C995 0.950 . S
H975 C998 0.950 . S
H976 C999 0.950 . S
H977 C1001 0.950 . S
H978 C1002 0.950 . S
H979 C1003 0.951 . S
H980 C1005 0.951 . S
H981 C1007 0.950 . S
H982 C1008 0.950 . S
H983 C1010 0.950 . S
H984 C1013 0.950 . S
H985 C1014 0.950 . S
H986 C1016 0.950 . S
H987 C1017 0.950 . S
C988 H970 0.951 . S
C988 C989 1.366 . S
C988 C990 1.388 . S
C989 C988 1.366 . S
C989 C993 1.385 . S
C990 H971 0.951 . S
C990 C988 1.388 . S
C990 C991 1.366 . S
C991 C990 1.366 . S
C991 C992 1.414 . S
C991 C994 1.499 . S
C992 H972 0.950 . S
C992 C991 1.414 . S
C992 C993 1.374 . S
C993 H973 0.950 . S
C993 C989 1.385 . S
C993 C992 1.374 . S
C994 C991 1.499 . S
C994 C995 1.373 . S
C994 C996 1.389 . S
C995 H974 0.950 . S
C995 C994 1.373 . S
C995 C1011 1.377 . S
C996 C994 1.389 . S
C996 C997 1.524 . S
C996 C1010 1.377 . S
C997 C996 1.524 . S
C997 C998 1.397 . S
C997 C1002 1.363 . S
C998 H975 0.950 . S
C998 C997 1.397 . S
C998 C999 1.334 1_556 S
C999 H976 0.950 . S
C999 C998 1.334 1_554 S
C999 C1000 1.287 1_554 S
C1000 C999 1.287 1_556 S
C1000 C1001 1.524 . S
C1000 H1019 0.913 1_556 S
C1001 H977 0.950 . S
C1001 C1000 1.524 . S
C1001 C1002 1.415 . S
C1002 H978 0.950 . S
C1002 C997 1.363 . S
C1002 C1001 1.415 . S
C1003 H979 0.951 . S
C1003 C1004 1.366 . S
C1003 C1005 1.388 . S
C1004 C1003 1.366 . S
C1004 C1008 1.385 . S
C1005 H980 0.951 . S
C1005 C1003 1.388 . S
C1005 C1006 1.366 . S
C1006 C1005 1.366 . S
C1006 C1007 1.414 . S
C1006 C1009 1.499 . S
C1007 H981 0.950 . S
C1007 C1006 1.414 . S
C1007 C1008 1.374 . S
C1008 H982 0.950 . S
C1008 C1004 1.385 . S
C1008 C1007 1.374 . S
C1009 C1006 1.499 . S
C1009 C1010 1.373 . S
C1009 C1011 1.389 . S
C1010 H983 0.950 . S
C1010 C996 1.377 . S
C1010 C1009 1.373 . S
C1011 C995 1.377 . S
C1011 C1009 1.389 . S
C1011 C1012 1.524 . S
C1012 C1011 1.524 . S
C1012 C1013 1.397 . S
C1012 C1017 1.363 . S
C1013 H984 0.950 . S
C1013 C1012 1.397 . S
C1013 C1014 1.334 . S
C1014 H985 0.950 . S
C1014 C1013 1.334 . S
C1014 C1015 1.287 . S
C1015 C1014 1.287 . S
C1015 C1016 1.524 . S
C1015 H1018 0.999 . S
C1016 H986 0.950 . S
C1016 C1015 1.524 . S
C1016 C1017 1.415 . S
C1017 H987 0.950 . S
C1017 C1012 1.363 . S
C1017 C1016 1.415 . S
H1018 C1015 0.999 . S
H1019 C1000 0.913 1_554 S
H1020 C1038 0.951 . S
H1021 C1040 0.951 . S
H1022 C1042 0.950 . S
H1023 C1043 0.950 . S
H1024 C1045 0.950 . S
H1025 C1048 0.950 . S
H1026 C1049 0.950 . S
H1027 C1051 0.950 . S
H1028 C1052 0.950 . S
H1029 C1053 0.951 . S
H1030 C1055 0.951 . S
H1031 C1057 0.950 . S
H1032 C1058 0.950 . S
H1033 C1060 0.950 . S
H1034 C1063 0.950 . S
H1035 C1064 0.950 . S
H1036 C1066 0.950 . S
H1037 C1067 0.950 . S
C1038 H1020 0.951 . S
C1038 C1039 1.366 . S
C1038 C1040 1.388 . S
C1039 C1038 1.366 . S
C1039 C1043 1.385 . S
C1040 H1021 0.951 . S
C1040 C1038 1.388 . S
C1040 C1041 1.366 . S
C1041 C1040 1.366 . S
C1041 C1042 1.414 . S
C1041 C1044 1.499 . S
C1042 H1022 0.950 . S
C1042 C1041 1.414 . S
C1042 C1043 1.374 . S
C1043 H1023 0.950 . S
C1043 C1039 1.385 . S
C1043 C1042 1.374 . S
C1044 C1041 1.499 . S
C1044 C1045 1.373 . S
C1044 C1046 1.389 . S
C1045 H1024 0.950 . S
C1045 C1044 1.373 . S
C1045 C1061 1.377 . S
C1046 C1044 1.389 . S
C1046 C1047 1.524 . S
C1046 C1060 1.377 . S
C1047 C1046 1.524 . S
C1047 C1048 1.397 . S
C1047 C1052 1.363 . S
C1048 H1025 0.950 . S
C1048 C1047 1.397 . S
C1048 C1049 1.334 . S
C1049 H1026 0.950 . S
C1049 C1048 1.334 . S
C1049 C1050 1.287 . S
C1050 C1049 1.287 . S
C1050 C1051 1.524 . S
C1050 H1069 0.913 . S
C1051 H1027 0.950 . S
C1051 C1050 1.524 . S
C1051 C1052 1.415 . S
C1052 H1028 0.950 . S
C1052 C1047 1.363 . S
C1052 C1051 1.415 . S
C1053 H1029 0.951 . S
C1053 C1054 1.366 . S
C1053 C1055 1.388 . S
C1054 C1053 1.366 . S
C1054 C1058 1.385 . S
C1055 H1030 0.951 . S
C1055 C1053 1.388 . S
C1055 C1056 1.366 . S
C1056 C1055 1.366 . S
C1056 C1057 1.414 . S
C1056 C1059 1.499 . S
C1057 H1031 0.950 . S
C1057 C1056 1.414 . S
C1057 C1058 1.374 . S
C1058 H1032 0.950 . S
C1058 C1054 1.385 . S
C1058 C1057 1.374 . S
C1059 C1056 1.499 . S
C1059 C1060 1.373 . S
C1059 C1061 1.389 . S
C1060 H1033 0.950 . S
C1060 C1046 1.377 . S
C1060 C1059 1.373 . S
C1061 C1045 1.377 . S
C1061 C1059 1.389 . S
C1061 C1062 1.524 . S
C1062 C1061 1.524 . S
C1062 C1063 1.397 . S
C1062 C1067 1.363 . S
C1063 H1034 0.950 . S
C1063 C1062 1.397 . S
C1063 C1064 1.334 . S
C1064 H1035 0.950 . S
C1064 C1063 1.334 . S
C1064 C1065 1.287 . S
C1065 C1064 1.287 . S
C1065 C1066 1.524 . S
C1065 H1068 0.999 . S
C1066 H1036 0.950 . S
C1066 C1065 1.524 . S
C1066 C1067 1.415 . S
C1067 H1037 0.950 . S
C1067 C1062 1.363 . S
C1067 C1066 1.415 . S
H1068 C1065 0.999 . S
H1069 C1050 0.913 . S
H1070 C1088 0.951 . S
H1071 C1090 0.951 . S
H1072 C1092 0.950 . S
H1073 C1093 0.950 . S
H1074 C1095 0.950 . S
H1075 C1098 0.950 . S
H1076 C1099 0.950 . S
H1077 C1101 0.950 . S
H1078 C1102 0.950 . S
H1079 C1103 0.951 . S
H1080 C1105 0.951 . S
H1081 C1107 0.950 . S
H1082 C1108 0.950 . S
H1083 C1110 0.950 . S
H1084 C1113 0.950 . S
H1085 C1114 0.950 . S
H1086 C1116 0.950 . S
H1087 C1117 0.950 . S
C1088 H1070 0.951 . S
C1088 C1089 1.366 . S
C1088 C1090 1.388 . S
C1089 C1088 1.366 . S
C1089 C1093 1.385 . S
C1090 H1071 0.951 . S
C1090 C1088 1.388 . S
C1090 C1091 1.366 . S
C1091 C1090 1.366 . S
C1091 C1092 1.414 . S
C1091 C1094 1.499 . S
C1092 H1072 0.950 . S
C1092 C1091 1.414 . S
C1092 C1093 1.374 . S
C1093 H1073 0.950 . S
C1093 C1089 1.385 . S
C1093 C1092 1.374 . S
C1094 C1091 1.499 . S
C1094 C1095 1.373 . S
C1094 C1096 1.389 . S
C1095 H1074 0.950 . S
C1095 C1094 1.373 . S
C1095 C1111 1.377 . S
C1096 C1094 1.389 . S
C1096 C1097 1.524 . S
C1096 C1110 1.377 . S
C1097 C1096 1.524 . S
C1097 C1098 1.397 . S
C1097 C1102 1.363 . S
C1098 H1075 0.950 . S
C1098 C1097 1.397 . S
C1098 C1099 1.334 . S
C1099 H1076 0.950 . S
C1099 C1098 1.334 . S
C1099 C1100 1.287 . S
C1100 C1099 1.287 . S
C1100 C1101 1.524 . S
C1100 H1119 0.913 . S
C1101 H1077 0.950 . S
C1101 C1100 1.524 . S
C1101 C1102 1.415 . S
C1102 H1078 0.950 . S
C1102 C1097 1.363 . S
C1102 C1101 1.415 . S
C1103 H1079 0.951 . S
C1103 C1104 1.366 . S
C1103 C1105 1.388 . S
C1104 C1103 1.366 . S
C1104 C1108 1.385 . S
C1105 H1080 0.951 . S
C1105 C1103 1.388 . S
C1105 C1106 1.366 . S
C1106 C1105 1.366 . S
C1106 C1107 1.414 . S
C1106 C1109 1.499 . S
C1107 H1081 0.950 . S
C1107 C1106 1.414 . S
C1107 C1108 1.374 . S
C1108 H1082 0.950 . S
C1108 C1104 1.385 . S
C1108 C1107 1.374 . S
C1109 C1106 1.499 . S
C1109 C1110 1.373 . S
C1109 C1111 1.389 . S
C1110 H1083 0.950 . S
C1110 C1096 1.377 . S
C1110 C1109 1.373 . S
C1111 C1095 1.377 . S
C1111 C1109 1.389 . S
C1111 C1112 1.524 . S
C1112 C1111 1.524 . S
C1112 C1113 1.397 . S
C1112 C1117 1.363 . S
C1113 H1084 0.950 . S
C1113 C1112 1.397 . S
C1113 C1114 1.334 . S
C1114 H1085 0.950 . S
C1114 C1113 1.334 . S
C1114 C1115 1.287 . S
C1115 C1114 1.287 . S
C1115 C1116 1.524 . S
C1115 H1118 1.040 . S
C1116 H1086 0.950 . S
C1116 C1115 1.524 . S
C1116 C1117 1.415 . S
C1117 H1087 0.950 . S
C1117 C1112 1.363 . S
C1117 C1116 1.415 . S
H1118 C1115 1.040 . S
H1119 C1100 0.913 . S
H1120 C1138 0.951 . S
H1121 C1140 0.951 . S
H1122 C1142 0.950 1_455 S
H1123 C1143 0.950 . S
H1124 C1145 0.950 . S
H1125 C1148 0.950 . S
H1126 C1149 0.936 1_545 S
H1127 C1151 0.950 . S
H1128 C1152 0.950 1_554 S
H1129 C1153 0.951 . S
H1130 C1155 0.951 . S
H1131 C1157 0.950 1_655 S
H1132 C1158 0.950 . S
H1133 C1160 0.950 . S
H1134 C1163 0.950 . S
H1135 C1164 0.931 1_565 S
H1136 C1166 0.950 . S
H1137 C1167 0.950 1_556 S
C1138 H1120 0.951 . S
C1138 C1139 1.366 . S
C1138 C1140 1.388 . S
C1139 C1138 1.366 . S
C1139 C1143 1.385 1_565 S
C1140 H1121 0.951 . S
C1140 C1138 1.388 . S
C1140 C1141 1.366 . S
C1141 C1140 1.366 . S
C1141 C1142 1.414 1_565 S
C1141 C1144 1.498 . S
C1142 H1122 0.950 1_655 S
C1142 C1141 1.414 1_545 S
C1142 C1143 1.374 . S
C1143 H1123 0.950 . S
C1143 C1139 1.385 1_545 S
C1143 C1142 1.374 . S
C1144 C1141 1.498 . S
C1144 C1145 1.375 1_665 S
C1144 C1146 1.389 . S
C1145 H1124 0.950 . S
C1145 C1144 1.375 1_445 S
C1145 C1161 1.377 1_556 S
C1146 C1144 1.389 . S
C1146 C1147 1.524 . S
C1146 C1160 1.377 1_556 S
C1147 C1146 1.524 . S
C1147 C1148 1.397 1_565 S
C1147 C1152 1.363 . S
C1148 H1125 0.950 . S
C1148 C1147 1.397 1_545 S
C1148 C1149 1.328 1_545 S
C1149 H1126 0.936 1_565 S
C1149 C1148 1.328 1_565 S
C1149 C1150 1.308 . S
C1150 C1149 1.308 . S
C1150 C1151 1.524 . S
C1150 H1169 0.913 . S
C1151 H1127 0.950 . S
C1151 C1150 1.524 . S
C1151 C1152 1.415 . S
C1152 H1128 0.950 1_556 S
C1152 C1147 1.363 . S
C1152 C1151 1.415 . S
C1153 H1129 0.951 . S
C1153 C1154 1.366 . S
C1153 C1155 1.388 . S
C1154 C1153 1.366 . S
C1154 C1158 1.385 1_545 S
C1155 H1130 0.951 . S
C1155 C1153 1.388 . S
C1155 C1156 1.366 . S
C1156 C1155 1.366 . S
C1156 C1157 1.414 1_545 S
C1156 C1159 1.500 . S
C1157 H1131 0.950 1_455 S
C1157 C1156 1.414 1_565 S
C1157 C1158 1.374 . S
C1158 H1132 0.950 . S
C1158 C1154 1.385 1_565 S
C1158 C1157 1.374 . S
C1159 C1156 1.500 . S
C1159 C1160 1.371 1_445 S
C1159 C1161 1.391 . S
C1160 H1133 0.950 . S
C1160 C1146 1.377 1_554 S
C1160 C1159 1.371 1_665 S
C1161 C1145 1.377 1_554 S
C1161 C1159 1.391 . S
C1161 C1162 1.524 . S
C1162 C1161 1.524 . S
C1162 C1163 1.397 1_545 S
C1162 C1167 1.363 . S
C1163 H1134 0.950 . S
C1163 C1162 1.397 1_565 S
C1163 C1164 1.326 1_565 S
C1164 H1135 0.931 1_545 S
C1164 C1163 1.326 1_545 S
C1164 C1165 1.316 . S
C1165 C1164 1.316 . S
C1165 C1166 1.524 . S
C1165 H1168 0.999 . S
C1166 H1136 0.950 . S
C1166 C1165 1.524 . S
C1166 C1167 1.415 . S
C1167 H1137 0.950 1_554 S
C1167 C1162 1.363 . S
C1167 C1166 1.415 . S
H1168 C1165 0.999 . S
H1169 C1150 0.913 . S
H1170 C1188 0.951 . S
H1171 C1190 0.951 . S
H1172 C1192 0.950 . S
H1173 C1193 0.950 . S
H1174 C1195 0.950 . S
H1175 C1198 0.950 . S
H1176 C1199 0.950 . S
H1177 C1201 0.950 . S
H1178 C1202 0.950 . S
H1179 C1203 0.951 . S
H1180 C1205 0.951 . S
H1181 C1207 0.950 . S
H1182 C1208 0.950 . S
H1183 C1210 0.950 . S
H1184 C1213 0.950 . S
H1185 C1214 0.950 . S
H1186 C1216 0.950 . S
H1187 C1217 0.950 . S
C1188 H1170 0.951 . S
C1188 C1189 1.366 . S
C1188 C1190 1.388 . S
C1189 C1188 1.366 . S
C1189 C1193 1.385 . S
C1190 H1171 0.951 . S
C1190 C1188 1.388 . S
C1190 C1191 1.366 . S
C1191 C1190 1.366 . S
C1191 C1192 1.414 . S
C1191 C1194 1.499 . S
C1192 H1172 0.950 . S
C1192 C1191 1.414 . S
C1192 C1193 1.374 . S
C1193 H1173 0.950 . S
C1193 C1189 1.385 . S
C1193 C1192 1.374 . S
C1194 C1191 1.499 . S
C1194 C1195 1.373 . S
C1194 C1196 1.389 . S
C1195 H1174 0.950 . S
C1195 C1194 1.373 . S
C1195 C1211 1.377 . S
C1196 C1194 1.389 . S
C1196 C1197 1.524 . S
C1196 C1210 1.377 . S
C1197 C1196 1.524 . S
C1197 C1198 1.397 . S
C1197 C1202 1.363 . S
C1198 H1175 0.950 . S
C1198 C1197 1.397 . S
C1198 C1199 1.334 . S
C1199 H1176 0.950 . S
C1199 C1198 1.334 . S
C1199 C1200 1.287 . S
C1200 C1199 1.287 . S
C1200 C1201 1.524 . S
C1200 H1219 0.913 . S
C1201 H1177 0.950 . S
C1201 C1200 1.524 . S
C1201 C1202 1.415 . S
C1202 H1178 0.950 . S
C1202 C1197 1.363 . S
C1202 C1201 1.415 . S
C1203 H1179 0.951 . S
C1203 C1204 1.366 . S
C1203 C1205 1.388 . S
C1204 C1203 1.366 . S
C1204 C1208 1.385 . S
C1205 H1180 0.951 . S
C1205 C1203 1.388 . S
C1205 C1206 1.366 . S
C1206 C1205 1.366 . S
C1206 C1207 1.414 . S
C1206 C1209 1.499 . S
C1207 H1181 0.950 . S
C1207 C1206 1.414 . S
C1207 C1208 1.374 . S
C1208 H1182 0.950 . S
C1208 C1204 1.385 . S
C1208 C1207 1.374 . S
C1209 C1206 1.499 . S
C1209 C1210 1.373 . S
C1209 C1211 1.389 . S
C1210 H1183 0.950 . S
C1210 C1196 1.377 . S
C1210 C1209 1.373 . S
C1211 C1195 1.377 . S
C1211 C1209 1.389 . S
C1211 C1212 1.524 . S
C1212 C1211 1.524 . S
C1212 C1213 1.397 . S
C1212 C1217 1.363 . S
C1213 H1184 0.950 . S
C1213 C1212 1.397 . S
C1213 C1214 1.334 . S
C1214 H1185 0.950 . S
C1214 C1213 1.334 . S
C1214 C1215 1.287 . S
C1215 C1214 1.287 . S
C1215 C1216 1.524 . S
C1215 H1218 0.999 . S
C1216 H1186 0.950 . S
C1216 C1215 1.524 . S
C1216 C1217 1.415 . S
C1217 H1187 0.950 . S
C1217 C1212 1.363 . S
C1217 C1216 1.415 . S
H1218 C1215 0.999 . S
H1219 C1200 0.913 . S
H1220 C1238 0.951 . S
H1221 C1240 0.951 . S
H1222 C1242 0.950 . S
H1223 C1243 0.950 . S
H1224 C1245 0.950 . S
H1225 C1248 0.950 1_545 S
H1226 C1249 0.950 . S
H1227 C1251 0.950 . S
H1228 C1252 0.950 . S
H1229 C1253 0.951 . S
H1230 C1255 0.951 . S
H1231 C1257 0.950 . S
H1232 C1258 0.950 . S
H1233 C1260 0.950 . S
H1234 C1263 0.950 1_565 S
H1235 C1264 0.950 . S
H1236 C1266 0.950 . S
H1237 C1267 0.950 . S
C1238 H1220 0.951 . S
C1238 C1239 1.366 1_565 S
C1238 C1240 1.388 . S
C1239 C1238 1.366 1_545 S
C1239 C1243 1.385 . S
C1240 H1221 0.951 . S
C1240 C1238 1.388 . S
C1240 C1241 1.366 1_565 S
C1241 C1240 1.366 1_545 S
C1241 C1242 1.414 . S
C1241 C1244 1.499 . S
C1242 H1222 0.950 . S
C1242 C1241 1.414 . S
C1242 C1243 1.374 . S
C1243 H1223 0.950 . S
C1243 C1239 1.385 . S
C1243 C1242 1.374 . S
C1244 C1241 1.499 . S
C1244 C1245 1.373 . S
C1244 C1246 1.389 1_545 S
C1245 H1224 0.950 . S
C1245 C1244 1.373 . S
C1245 C1261 1.377 . S
C1246 C1244 1.389 1_565 S
C1246 C1247 1.524 . S
C1246 C1260 1.377 . S
C1247 C1246 1.524 . S
C1247 C1248 1.397 . S
C1247 C1252 1.363 . S
C1248 H1225 0.950 1_565 S
C1248 C1247 1.397 . S
C1248 C1249 1.334 . S
C1249 H1226 0.950 . S
C1249 C1248 1.334 . S
C1249 C1250 1.287 . S
C1250 C1249 1.287 . S
C1250 C1251 1.524 . S
C1250 H1269 0.913 . S
C1251 H1227 0.950 . S
C1251 C1250 1.524 . S
C1251 C1252 1.415 . S
C1252 H1228 0.950 . S
C1252 C1247 1.363 . S
C1252 C1251 1.415 . S
C1253 H1229 0.951 . S
C1253 C1254 1.366 1_545 S
C1253 C1255 1.388 . S
C1254 C1253 1.366 1_565 S
C1254 C1258 1.385 . S
C1255 H1230 0.951 . S
C1255 C1253 1.388 . S
C1255 C1256 1.366 1_545 S
C1256 C1255 1.366 1_565 S
C1256 C1257 1.414 . S
C1256 C1259 1.499 . S
C1257 H1231 0.950 . S
C1257 C1256 1.414 . S
C1257 C1258 1.374 . S
C1258 H1232 0.950 . S
C1258 C1254 1.385 . S
C1258 C1257 1.374 . S
C1259 C1256 1.499 . S
C1259 C1260 1.373 . S
C1259 C1261 1.389 1_565 S
C1260 H1233 0.950 . S
C1260 C1246 1.377 . S
C1260 C1259 1.373 . S
C1261 C1245 1.377 . S
C1261 C1259 1.389 1_545 S
C1261 C1262 1.524 . S
C1262 C1261 1.524 . S
C1262 C1263 1.397 . S
C1262 C1267 1.363 . S
C1263 H1234 0.950 1_545 S
C1263 C1262 1.397 . S
C1263 C1264 1.334 . S
C1264 H1235 0.950 . S
C1264 C1263 1.334 . S
C1264 C1265 1.287 . S
C1265 C1264 1.287 . S
C1265 C1266 1.524 . S
C1265 H1268 0.999 . S
C1266 H1236 0.950 . S
C1266 C1265 1.524 . S
C1266 C1267 1.415 . S
C1267 H1237 0.950 . S
C1267 C1262 1.363 . S
C1267 C1266 1.415 . S
H1268 C1265 0.999 . S
H1269 C1250 0.913 . S
H1270 C1288 0.951 . S
H1271 C1290 0.951 . S
H1272 C1292 0.950 . S
H1273 C1293 0.950 . S
H1274 C1295 0.950 . S
H1275 C1298 0.950 . S
H1276 C1299 0.950 . S
H1277 C1301 0.950 . S
H1278 C1302 0.950 . S
H1279 C1303 0.951 . S
H1280 C1305 0.951 . S
H1281 C1307 0.950 . S
H1282 C1308 0.950 . S
H1283 C1310 0.950 . S
H1284 C1313 0.950 . S
H1285 C1314 0.950 . S
H1286 C1316 0.950 . S
H1287 C1317 0.950 . S
C1288 H1270 0.951 . S
C1288 C1289 1.366 . S
C1288 C1290 1.388 . S
C1289 C1288 1.366 . S
C1289 C1293 1.385 . S
C1290 H1271 0.951 . S
C1290 C1288 1.388 . S
C1290 C1291 1.366 . S
C1291 C1290 1.366 . S
C1291 C1292 1.414 . S
C1291 C1294 1.499 . S
C1292 H1272 0.950 . S
C1292 C1291 1.414 . S
C1292 C1293 1.374 . S
C1293 H1273 0.950 . S
C1293 C1289 1.385 . S
C1293 C1292 1.374 . S
C1294 C1291 1.499 . S
C1294 C1295 1.373 . S
C1294 C1296 1.389 . S
C1295 H1274 0.950 . S
C1295 C1294 1.373 . S
C1295 C1311 1.377 . S
C1296 C1294 1.389 . S
C1296 C1297 1.524 . S
C1296 C1310 1.377 . S
C1297 C1296 1.524 . S
C1297 C1298 1.397 . S
C1297 C1302 1.363 . S
C1298 H1275 0.950 . S
C1298 C1297 1.397 . S
C1298 C1299 1.334 . S
C1299 H1276 0.950 . S
C1299 C1298 1.334 . S
C1299 C1300 1.287 . S
C1300 C1299 1.287 . S
C1300 C1301 1.524 . S
C1300 H1319 0.913 . S
C1301 H1277 0.950 . S
C1301 C1300 1.524 . S
C1301 C1302 1.415 . S
C1302 H1278 0.950 . S
C1302 C1297 1.363 . S
C1302 C1301 1.415 . S
C1303 H1279 0.951 . S
C1303 C1304 1.366 . S
C1303 C1305 1.388 . S
C1304 C1303 1.366 . S
C1304 C1308 1.385 . S
C1305 H1280 0.951 . S
C1305 C1303 1.388 . S
C1305 C1306 1.366 . S
C1306 C1305 1.366 . S
C1306 C1307 1.414 . S
C1306 C1309 1.499 . S
C1307 H1281 0.950 . S
C1307 C1306 1.414 . S
C1307 C1308 1.374 . S
C1308 H1282 0.950 . S
C1308 C1304 1.385 . S
C1308 C1307 1.374 . S
C1309 C1306 1.499 . S
C1309 C1310 1.373 . S
C1309 C1311 1.389 . S
C1310 H1283 0.950 . S
C1310 C1296 1.377 . S
C1310 C1309 1.373 . S
C1311 C1295 1.377 . S
C1311 C1309 1.389 . S
C1311 C1312 1.524 . S
C1312 C1311 1.524 . S
C1312 C1313 1.397 . S
C1312 C1317 1.363 . S
C1313 H1284 0.950 . S
C1313 C1312 1.397 . S
C1313 C1314 1.334 . S
C1314 H1285 0.950 . S
C1314 C1313 1.334 . S
C1314 C1315 1.287 . S
C1315 C1314 1.287 . S
C1315 C1316 1.524 . S
C1315 H1318 0.999 . S
C1316 H1286 0.950 . S
C1316 C1315 1.524 . S
C1316 C1317 1.415 . S
C1317 H1287 0.950 . S
C1317 C1312 1.363 . S
C1317 C1316 1.415 . S
H1318 C1315 0.999 . S
H1319 C1300 0.913 . S
H1320 C1338 0.951 . S
H1321 C1340 0.951 . S
H1322 C1342 0.950 . S
H1323 C1343 0.950 . S
H1324 C1345 0.950 . S
H1325 C1348 0.950 . S
H1326 C1349 0.950 . S
H1327 C1351 0.950 . S
H1328 C1352 0.950 . S
H1329 C1353 0.951 . S
H1330 C1355 0.951 . S
H1331 C1357 0.950 . S
H1332 C1358 0.950 . S
H1333 C1360 0.950 . S
H1334 C1363 0.950 . S
H1335 C1364 0.950 . S
H1336 C1366 0.950 . S
H1337 C1367 0.950 . S
C1338 H1320 0.951 . S
C1338 C1339 1.366 . S
C1338 C1340 1.388 . S
C1339 C1338 1.366 . S
C1339 C1343 1.385 . S
C1340 H1321 0.951 . S
C1340 C1338 1.388 . S
C1340 C1341 1.366 . S
C1341 C1340 1.366 . S
C1341 C1342 1.414 . S
C1341 C1344 1.499 . S
C1342 H1322 0.950 . S
C1342 C1341 1.414 . S
C1342 C1343 1.374 . S
C1343 H1323 0.950 . S
C1343 C1339 1.385 . S
C1343 C1342 1.374 . S
C1344 C1341 1.499 . S
C1344 C1345 1.373 . S
C1344 C1346 1.389 . S
C1345 H1324 0.950 . S
C1345 C1344 1.373 . S
C1345 C1361 1.377 . S
C1346 C1344 1.389 . S
C1346 C1347 1.524 . S
C1346 C1360 1.377 . S
C1347 C1346 1.524 . S
C1347 C1348 1.397 . S
C1347 C1352 1.363 . S
C1348 H1325 0.950 . S
C1348 C1347 1.397 . S
C1348 C1349 1.334 . S
C1349 H1326 0.950 . S
C1349 C1348 1.334 . S
C1349 C1350 1.287 . S
C1350 C1349 1.287 . S
C1350 C1351 1.524 . S
C1350 H1369 0.913 . S
C1351 H1327 0.950 . S
C1351 C1350 1.524 . S
C1351 C1352 1.415 . S
C1352 H1328 0.950 . S
C1352 C1347 1.363 . S
C1352 C1351 1.415 . S
C1353 H1329 0.951 . S
C1353 C1354 1.366 . S
C1353 C1355 1.388 . S
C1354 C1353 1.366 . S
C1354 C1358 1.385 . S
C1355 H1330 0.951 . S
C1355 C1353 1.388 . S
C1355 C1356 1.366 . S
C1356 C1355 1.366 . S
C1356 C1357 1.414 . S
C1356 C1359 1.499 . S
C1357 H1331 0.950 . S
C1357 C1356 1.414 . S
C1357 C1358 1.374 . S
C1358 H1332 0.950 . S
C1358 C1354 1.385 . S
C1358 C1357 1.374 . S
C1359 C1356 1.499 . S
C1359 C1360 1.373 . S
C1359 C1361 1.389 . S
C1360 H1333 0.950 . S
C1360 C1346 1.377 . S
C1360 C1359 1.373 . S
C1361 C1345 1.377 . S
C1361 C1359 1.389 . S
C1361 C1362 1.524 . S
C1362 C1361 1.524 . S
C1362 C1363 1.397 . S
C1362 C1367 1.363 . S
C1363 H1334 0.950 . S
C1363 C1362 1.397 . S
C1363 C1364 1.334 . S
C1364 H1335 0.950 . S
C1364 C1363 1.334 . S
C1364 C1365 1.287 . S
C1365 C1364 1.287 . S
C1365 C1366 1.524 . S
C1365 H1368 0.999 . S
C1366 H1336 0.950 . S
C1366 C1365 1.524 . S
C1366 C1367 1.415 . S
C1367 H1337 0.950 . S
C1367 C1362 1.363 . S
C1367 C1366 1.415 . S
H1368 C1365 0.999 . S
H1369 C1350 0.913 . S
H1370 C1388 0.951 . S
H1371 C1390 0.951 . S
H1372 C1392 0.950 . S
H1373 C1393 0.950 . S
H1374 C1395 0.950 . S
H1375 C1398 0.950 . S
H1376 C1399 0.950 . S
H1377 C1401 0.950 . S
H1378 C1402 0.950 . S
H1379 C1403 0.951 . S
H1380 C1405 0.951 . S
H1381 C1407 0.950 . S
H1382 C1408 0.950 . S
H1383 C1410 0.950 . S
H1384 C1413 0.950 . S
H1385 C1414 0.950 . S
H1386 C1416 0.950 . S
H1387 C1417 0.950 . S
C1388 H1370 0.951 . S
C1388 C1389 1.366 . S
C1388 C1390 1.388 . S
C1389 C1388 1.366 . S
C1389 C1393 1.385 . S
C1390 H1371 0.951 . S
C1390 C1388 1.388 . S
C1390 C1391 1.366 . S
C1391 C1390 1.366 . S
C1391 C1392 1.414 . S
C1391 C1394 1.499 . S
C1392 H1372 0.950 . S
C1392 C1391 1.414 . S
C1392 C1393 1.374 . S
C1393 H1373 0.950 . S
C1393 C1389 1.385 . S
C1393 C1392 1.374 . S
C1394 C1391 1.499 . S
C1394 C1395 1.373 . S
C1394 C1396 1.389 . S
C1395 H1374 0.950 . S
C1395 C1394 1.373 . S
C1395 C1411 1.377 . S
C1396 C1394 1.389 . S
C1396 C1397 1.524 . S
C1396 C1410 1.377 . S
C1397 C1396 1.524 . S
C1397 C1398 1.397 . S
C1397 C1402 1.363 . S
C1398 H1375 0.950 . S
C1398 C1397 1.397 . S
C1398 C1399 1.334 . S
C1399 H1376 0.950 . S
C1399 C1398 1.334 . S
C1399 C1400 1.287 . S
C1400 C1399 1.287 . S
C1400 C1401 1.524 . S
C1400 H1419 0.913 . S
C1401 H1377 0.950 . S
C1401 C1400 1.524 . S
C1401 C1402 1.415 . S
C1402 H1378 0.950 . S
C1402 C1397 1.363 . S
C1402 C1401 1.415 . S
C1403 H1379 0.951 . S
C1403 C1404 1.366 . S
C1403 C1405 1.388 . S
C1404 C1403 1.366 . S
C1404 C1408 1.385 . S
C1405 H1380 0.951 . S
C1405 C1403 1.388 . S
C1405 C1406 1.366 . S
C1406 C1405 1.366 . S
C1406 C1407 1.414 . S
C1406 C1409 1.499 . S
C1407 H1381 0.950 . S
C1407 C1406 1.414 . S
C1407 C1408 1.374 . S
C1408 H1382 0.950 . S
C1408 C1404 1.385 . S
C1408 C1407 1.374 . S
C1409 C1406 1.499 . S
C1409 C1410 1.373 . S
C1409 C1411 1.389 . S
C1410 H1383 0.950 . S
C1410 C1396 1.377 . S
C1410 C1409 1.373 . S
C1411 C1395 1.377 . S
C1411 C1409 1.389 . S
C1411 C1412 1.524 . S
C1412 C1411 1.524 . S
C1412 C1413 1.397 . S
C1412 C1417 1.363 . S
C1413 H1384 0.950 . S
C1413 C1412 1.397 . S
C1413 C1414 1.334 . S
C1414 H1385 0.950 . S
C1414 C1413 1.334 . S
C1414 C1415 1.287 . S
C1415 C1414 1.287 . S
C1415 C1416 1.524 . S
C1415 H1418 0.999 . S
C1416 H1386 0.950 . S
C1416 C1415 1.524 . S
C1416 C1417 1.415 . S
C1417 H1387 0.950 . S
C1417 C1412 1.363 . S
C1417 C1416 1.415 . S
H1418 C1415 0.999 . S
H1419 C1400 0.913 . S
H1420 C1438 0.951 . S
H1421 C1440 0.951 . S
H1422 C1442 0.950 . S
H1423 C1443 0.950 . S
H1424 C1445 0.950 . S
H1425 C1448 0.950 . S
H1426 C1449 0.950 . S
H1427 C1451 0.950 . S
H1428 C1452 0.950 . S
H1429 C1453 0.951 . S
H1430 C1455 0.951 . S
H1431 C1457 0.950 . S
H1432 C1458 0.950 . S
H1433 C1460 0.950 . S
H1434 C1463 0.950 . S
H1435 C1464 0.950 . S
H1436 C1466 0.950 . S
H1437 C1467 0.950 . S
C1438 H1420 0.951 . S
C1438 C1439 1.366 . S
C1438 C1440 1.388 . S
C1439 C1438 1.366 . S
C1439 C1443 1.385 . S
C1440 H1421 0.951 . S
C1440 C1438 1.388 . S
C1440 C1441 1.366 . S
C1441 C1440 1.366 . S
C1441 C1442 1.414 . S
C1441 C1444 1.499 . S
C1442 H1422 0.950 . S
C1442 C1441 1.414 . S
C1442 C1443 1.374 . S
C1443 H1423 0.950 . S
C1443 C1439 1.385 . S
C1443 C1442 1.374 . S
C1444 C1441 1.499 . S
C1444 C1445 1.373 . S
C1444 C1446 1.389 . S
C1445 H1424 0.950 . S
C1445 C1444 1.373 . S
C1445 C1461 1.377 . S
C1446 C1444 1.389 . S
C1446 C1447 1.524 . S
C1446 C1460 1.377 . S
C1447 C1446 1.524 . S
C1447 C1448 1.397 . S
C1447 C1452 1.363 . S
C1448 H1425 0.950 . S
C1448 C1447 1.397 . S
C1448 C1449 1.334 . S
C1449 H1426 0.950 . S
C1449 C1448 1.334 . S
C1449 C1450 1.287 . S
C1450 C1449 1.287 . S
C1450 C1451 1.524 . S
C1450 H1469 0.913 . S
C1451 H1427 0.950 . S
C1451 C1450 1.524 . S
C1451 C1452 1.415 . S
C1452 H1428 0.950 . S
C1452 C1447 1.363 . S
C1452 C1451 1.415 . S
C1453 H1429 0.951 . S
C1453 C1454 1.366 . S
C1453 C1455 1.388 . S
C1454 C1453 1.366 . S
C1454 C1458 1.385 . S
C1455 H1430 0.951 . S
C1455 C1453 1.388 . S
C1455 C1456 1.366 . S
C1456 C1455 1.366 . S
C1456 C1457 1.414 . S
C1456 C1459 1.499 . S
C1457 H1431 0.950 . S
C1457 C1456 1.414 . S
C1457 C1458 1.374 . S
C1458 H1432 0.950 . S
C1458 C1454 1.385 . S
C1458 C1457 1.374 . S
C1459 C1456 1.499 . S
C1459 C1460 1.373 . S
C1459 C1461 1.389 . S
C1460 H1433 0.950 . S
C1460 C1446 1.377 . S
C1460 C1459 1.373 . S
C1461 C1445 1.377 . S
C1461 C1459 1.389 . S
C1461 C1462 1.524 . S
C1462 C1461 1.524 . S
C1462 C1463 1.397 . S
C1462 C1467 1.363 . S
C1463 H1434 0.950 . S
C1463 C1462 1.397 . S
C1463 C1464 1.334 . S
C1464 H1435 0.950 . S
C1464 C1463 1.334 . S
C1464 C1465 1.287 . S
C1465 C1464 1.287 . S
C1465 C1466 1.524 . S
C1465 H1468 0.999 . S
C1466 H1436 0.950 . S
C1466 C1465 1.524 . S
C1466 C1467 1.415 . S
C1467 H1437 0.950 . S
C1467 C1462 1.363 . S
C1467 C1466 1.415 . S
H1468 C1465 0.999 . S
H1469 C1450 0.913 . S
H1470 C1488 0.951 . S
H1471 C1490 0.951 . S
H1472 C1492 0.950 . S
H1473 C1493 0.950 . S
H1474 C1495 0.950 . S
H1475 C1498 0.950 . S
H1476 C1499 0.950 . S
H1477 C1501 0.950 . S
H1478 C1502 0.950 . S
H1479 C1503 0.951 . S
H1480 C1505 0.951 . S
H1481 C1507 0.950 . S
H1482 C1508 0.950 . S
H1483 C1510 0.950 . S
H1484 C1513 0.950 . S
H1485 C1514 0.950 . S
H1486 C1516 0.950 . S
H1487 C1517 0.950 . S
C1488 H1470 0.951 . S
C1488 C1489 1.366 . S
C1488 C1490 1.388 . S
C1489 C1488 1.366 . S
C1489 C1493 1.385 . S
C1490 H1471 0.951 . S
C1490 C1488 1.388 . S
C1490 C1491 1.366 . S
C1491 C1490 1.366 . S
C1491 C1492 1.414 . S
C1491 C1494 1.499 . S
C1492 H1472 0.950 . S
C1492 C1491 1.414 . S
C1492 C1493 1.374 . S
C1493 H1473 0.950 . S
C1493 C1489 1.385 . S
C1493 C1492 1.374 . S
C1494 C1491 1.499 . S
C1494 C1495 1.373 . S
C1494 C1496 1.389 1_655 S
C1495 H1474 0.950 . S
C1495 C1494 1.373 . S
C1495 C1511 1.377 1_556 S
C1496 C1494 1.389 1_455 S
C1496 C1497 1.524 . S
C1496 C1510 1.377 1_556 S
C1497 C1496 1.524 . S
C1497 C1498 1.397 . S
C1497 C1502 1.363 . S
C1498 H1475 0.950 . S
C1498 C1497 1.397 . S
C1498 C1499 1.334 . S
C1499 H1476 0.950 . S
C1499 C1498 1.334 . S
C1499 C1500 1.287 . S
C1500 C1499 1.287 . S
C1500 C1501 1.524 . S
C1500 H1519 0.913 . S
C1501 H1477 0.950 . S
C1501 C1500 1.524 . S
C1501 C1502 1.415 . S
C1502 H1478 0.950 . S
C1502 C1497 1.363 . S
C1502 C1501 1.415 . S
C1503 H1479 0.951 . S
C1503 C1504 1.366 . S
C1503 C1505 1.388 . S
C1504 C1503 1.366 . S
C1504 C1508 1.385 . S
C1505 H1480 0.951 . S
C1505 C1503 1.388 . S
C1505 C1506 1.366 . S
C1506 C1505 1.366 . S
C1506 C1507 1.414 . S
C1506 C1509 1.499 . S
C1507 H1481 0.950 . S
C1507 C1506 1.414 . S
C1507 C1508 1.374 . S
C1508 H1482 0.950 . S
C1508 C1504 1.385 . S
C1508 C1507 1.374 . S
C1509 C1506 1.499 . S
C1509 C1510 1.373 . S
C1509 C1511 1.389 1_455 S
C1510 H1483 0.950 . S
C1510 C1496 1.377 1_554 S
C1510 C1509 1.373 . S
C1511 C1495 1.377 1_554 S
C1511 C1509 1.389 1_655 S
C1511 C1512 1.524 . S
C1512 C1511 1.524 . S
C1512 C1513 1.397 . S
C1512 C1517 1.363 . S
C1513 H1484 0.950 . S
C1513 C1512 1.397 . S
C1513 C1514 1.334 . S
C1514 H1485 0.950 . S
C1514 C1513 1.334 . S
C1514 C1515 1.287 . S
C1515 C1514 1.287 . S
C1515 C1516 1.524 . S
C1515 H1518 0.999 . S
C1516 H1486 0.950 . S
C1516 C1515 1.524 . S
C1516 C1517 1.415 . S
C1517 H1487 0.950 . S
C1517 C1512 1.363 . S
C1517 C1516 1.415 . S
H1518 C1515 0.999 . S
H1519 C1500 0.913 . S
C339 C10 1.520 . S
C354 C129 1.501 . S
C389 C9 0.770 . S
C404 C49 0.771 . S
C439 C50 1.520 . S
C454 C89 1.511 . S
C489 C90 2.160 . S
C504 C130 2.155 . S
C539 C19 1.520 . S
C554 C218 1.513 . S
C589 C18 0.770 . S
C604 C178 0.768 . S
C639 C179 1.520 . S
C654 C98 1.502 . S
C689 C219 2.160 . S
C704 C99 2.165 . S
C739 C250 1.520 . S
C754 C209 1.508 . S
C789 C169 0.770 . S
C804 C249 0.770 . S
C839 C289 1.507 . S
C854 C170 1.523 . S
C889 C210 2.160 . S
C904 C290 2.163 . S
C939 C138 1.507 . S
C954 C259 1.519 . S
C989 C258 0.771 . S
C1004 C58 0.772 . S
C1039 C59 1.520 . S
C1054 C298 1.504 . S
C1089 C139 2.160 . S
C1104 C299 2.157 . S
C1139 C15 1.463 . S
C1154 C6 1.463 . S
C1189 C55 1.463 . S
C1204 C46 1.463 . S
C1239 C95 1.536 . S
C1254 C86 1.536 . S
C1289 C126 1.536 . S
C1304 C135 1.536 . S
C1339 C175 1.463 . S
C1354 C166 1.463 . S
C1389 C206 1.536 . S
C1404 C215 1.536 . S
C1439 C246 1.463 . S
C1454 C255 1.463 . S
C1489 C286 1.536 . S
C1504 C295 1.536 . S
