# Generated by pormake.
# Topology une, (4)-cn, num edge types: 1
# Building blocks:
#     Node 0, Type 0, BuildingBlock: AZAVOO_clean_sbu_0, # of connection points: 4
#     Node 1, Type 0, BuildingBlock: AZAVOO_clean_sbu_0, # of connection points: 4
#     Node 2, Type 0, BuildingBlock: AZAVOO_clean_sbu_0, # of connection points: 4
#     Node 3, Type 0, BuildingBlock: AZAVOO_clean_sbu_0, # of connection points: 4
#     Node 4, Type 0, BuildingBlock: AZAVOO_clean_sbu_0, # of connection points: 4
#     Node 5, Type 0, BuildingBlock: AZAVOO_clean_sbu_0, # of connection points: 4
#     Node 6, Type 0, BuildingBlock: AZAVOO_clean_sbu_0, # of connection points: 4
#     Node 7, Type 0, BuildingBlock: AZAVOO_clean_sbu_0, # of connection points: 4
#     Node 8, Type 0, BuildingBlock: AZAVOO_clean_sbu_0, # of connection points: 4
#     Node 9, Type 0, BuildingBlock: AZAVOO_clean_sbu_0, # of connection points: 4
#     Node 10, Type 0, BuildingBlock: AZAVOO_clean_sbu_0, # of connection points: 4
#     Node 11, Type 0, BuildingBlock: AZAVOO_clean_sbu_0, # of connection points: 4
#     Node 12, Type 0, BuildingBlock: AZAVOO_clean_sbu_0, # of connection points: 4
#     Node 13, Type 0, BuildingBlock: AZAVOO_clean_sbu_0, # of connection points: 4
#     Node 14, Type 0, BuildingBlock: AZAVOO_clean_sbu_0, # of connection points: 4
#     Node 15, Type 0, BuildingBlock: AZAVOO_clean_sbu_0, # of connection points: 4
#     Node 16, Type 0, BuildingBlock: AZAVOO_clean_sbu_0, # of connection points: 4
#     Node 17, Type 0, BuildingBlock: AZAVOO_clean_sbu_0, # of connection points: 4
#     Edge 18, Type (0, 0), BuildingBlock: AJUNOK_clean_linker_0, # of connection points: 2
#     Edge 19, Type (0, 0), BuildingBlock: AJUNOK_clean_linker_0, # of connection points: 2
#     Edge 20, Type (0, 0), BuildingBlock: AJUNOK_clean_linker_0, # of connection points: 2
#     Edge 21, Type (0, 0), BuildingBlock: AJUNOK_clean_linker_0, # of connection points: 2
#     Edge 22, Type (0, 0), BuildingBlock: AJUNOK_clean_linker_0, # of connection points: 2
#     Edge 23, Type (0, 0), BuildingBlock: AJUNOK_clean_linker_0, # of connection points: 2
#     Edge 24, Type (0, 0), BuildingBlock: AJUNOK_clean_linker_0, # of connection points: 2
#     Edge 25, Type (0, 0), BuildingBlock: AJUNOK_clean_linker_0, # of connection points: 2
#     Edge 26, Type (0, 0), BuildingBlock: AJUNOK_clean_linker_0, # of connection points: 2
#     Edge 27, Type (0, 0), BuildingBlock: AJUNOK_clean_linker_0, # of connection points: 2
#     Edge 28, Type (0, 0), BuildingBlock: AJUNOK_clean_linker_0, # of connection points: 2
#     Edge 29, Type (0, 0), BuildingBlock: AJUNOK_clean_linker_0, # of connection points: 2
#     Edge 30, Type (0, 0), BuildingBlock: AJUNOK_clean_linker_0, # of connection points: 2
#     Edge 31, Type (0, 0), BuildingBlock: AJUNOK_clean_linker_0, # of connection points: 2
#     Edge 32, Type (0, 0), BuildingBlock: AJUNOK_clean_linker_0, # of connection points: 2
#     Edge 33, Type (0, 0), BuildingBlock: AJUNOK_clean_linker_0, # of connection points: 2
#     Edge 34, Type (0, 0), BuildingBlock: AJUNOK_clean_linker_0, # of connection points: 2
#     Edge 35, Type (0, 0), BuildingBlock: AJUNOK_clean_linker_0, # of connection points: 2
#     Edge 36, Type (0, 0), BuildingBlock: AJUNOK_clean_linker_0, # of connection points: 2
#     Edge 37, Type (0, 0), BuildingBlock: AJUNOK_clean_linker_0, # of connection points: 2
#     Edge 38, Type (0, 0), BuildingBlock: AJUNOK_clean_linker_0, # of connection points: 2
#     Edge 39, Type (0, 0), BuildingBlock: AJUNOK_clean_linker_0, # of connection points: 2
#     Edge 40, Type (0, 0), BuildingBlock: AJUNOK_clean_linker_0, # of connection points: 2
#     Edge 41, Type (0, 0), BuildingBlock: AJUNOK_clean_linker_0, # of connection points: 2
#     Edge 42, Type (0, 0), BuildingBlock: AJUNOK_clean_linker_0, # of connection points: 2
#     Edge 43, Type (0, 0), BuildingBlock: AJUNOK_clean_linker_0, # of connection points: 2
#     Edge 44, Type (0, 0), BuildingBlock: AJUNOK_clean_linker_0, # of connection points: 2
#     Edge 45, Type (0, 0), BuildingBlock: AJUNOK_clean_linker_0, # of connection points: 2
#     Edge 46, Type (0, 0), BuildingBlock: AJUNOK_clean_linker_0, # of connection points: 2
#     Edge 47, Type (0, 0), BuildingBlock: AJUNOK_clean_linker_0, # of connection points: 2
#     Edge 48, Type (0, 0), BuildingBlock: AJUNOK_clean_linker_0, # of connection points: 2
#     Edge 49, Type (0, 0), BuildingBlock: AJUNOK_clean_linker_0, # of connection points: 2
#     Edge 50, Type (0, 0), BuildingBlock: AJUNOK_clean_linker_0, # of connection points: 2
#     Edge 51, Type (0, 0), BuildingBlock: AJUNOK_clean_linker_0, # of connection points: 2
#     Edge 52, Type (0, 0), BuildingBlock: AJUNOK_clean_linker_0, # of connection points: 2
#     Edge 53, Type (0, 0), BuildingBlock: AJUNOK_clean_linker_0, # of connection points: 2
# Relax obj value: 0.220
# Max RMSD: 0.203
# Mean RMSD: 0.179
data_MOF--net-une--node1-AZAVOO_clean_sbu_0--edge1-AJUNOK_clean_linker_0
_symmetry_space_group_name_H-M    P1
_symmetry_Int_Tables_number       1
_symmetry_cell_setting            triclinic
loop_
_symmetry_equiv_pos_as_xyz
'x, y, z'
_cell_length_a     27.132348
_cell_length_b     28.090986
_cell_length_c     41.031761
_cell_angle_alpha  90.76034
_cell_angle_beta   88.375946
_cell_angle_gamma 120.84847
loop_
_atom_site_label
_atom_site_type_symbol
_atom_site_fract_x
_atom_site_fract_y
_atom_site_fract_z
_atom_type_partial_charge
Mg0 Mg 0.31922 0.00367 0.09569 0.0
O1 O 0.27973 0.01972 0.05194 0.0
O2 O 0.24257 0.94861 0.01699 0.0
Mg3 Mg 0.26339 0.88661 0.0385 0.0
C4 C 0.25301 -0.00354 0.02594 0.0
C5 C 0.32253 0.11193 0.1171 0.0
O6 O 0.26949 0.08158 0.10729 0.0
O7 O 0.3985 0.02337 0.06352 0.0
O8 O 0.35832 0.95054 0.02982 0.0
O9 O 0.23183 0.96105 0.119 0.0
O10 O 0.26668 0.91933 0.08806 0.0
C11 C 0.40147 -0.00379 0.03897 0.0
C12 C 0.22347 0.91767 0.10297 0.0
O13 O 0.35623 0.09317 0.11314 0.0
Mg14 Mg 0.98482 0.34497 0.061 0.0
O15 O 0.93835 0.27308 0.0255 0.0
O16 O 0.99394 0.28672 0.98113 0.0
Mg17 Mg 0.07317 0.37252 0.98556 0.0
C18 C 0.94812 0.25722 0.99806 0.0
C19 C 0.88323 0.25606 0.10376 0.0
O20 O 0.90483 0.22813 0.08983 0.0
O21 O 0.96188 0.39953 0.03014 0.0
O22 O 0.01853 0.41303 0.98625 0.0
O23 O 0.03123 0.30437 0.07969 0.0
O24 O 0.06354 0.36378 0.03884 0.0
C25 C 0.98166 0.4206 1.00176 0.0
C26 C 0.06856 0.32883 0.05627 0.0
O27 O 0.904 0.30661 0.09536 0.0
Mg28 Mg 0.66646 0.649 0.09904 0.0
O29 O 0.72694 0.68151 0.05439 0.0
O30 O 0.69637 0.71952 0.01857 0.0
Mg31 Mg 0.6092 0.70271 0.03839 0.0
C32 C 0.73276 0.70679 0.02764 0.0
C33 C 0.73805 0.63641 0.14923 0.0
O34 O 0.71598 0.66408 0.16289 0.0
O35 O 0.60564 0.57081 0.06878 0.0
O36 O 0.57516 0.61002 0.03366 0.0
O37 O 0.71082 0.73579 0.11882 0.0
O38 O 0.63416 0.69998 0.08828 0.0
C39 C 0.57557 0.56775 0.04428 0.0
C40 C 0.6743 0.74221 0.10289 0.0
O41 O 0.72199 0.61708 0.12064 0.0
Mg42 Mg 0.64624 0.92879 0.97135 0.0
O43 O 0.7315 0.01065 0.97171 0.0
O44 O 0.8028 0.99286 0.97132 0.0
Mg45 Mg 0.76291 0.89909 0.97125 0.0
C46 C 0.78484 0.02686 0.97155 0.0
C47 C 0.60525 0.00957 0.98591 0.0
O48 O 0.64776 0.02486 1.00591 0.0
O49 O 0.65925 0.91597 0.91681 0.0
O50 O 0.72711 0.89375 0.92073 0.0
O51 O 0.6437 0.92412 0.02568 0.0
O52 O 0.68415 0.88962 0.99349 0.0
C53 C 0.69258 0.90085 0.90383 0.0
C54 C 0.67238 0.8991 0.02258 0.0
O55 O 0.59728 0.9738 0.96405 0.0
Mg56 Mg 0.05139 0.74192 0.95161 0.0
O57 O 0.96683 0.74051 0.95807 0.0
O58 O 0.98828 0.8274 0.9682 0.0
Mg59 Mg 0.08569 0.88469 0.9671 0.0
C60 C 0.95177 0.77587 0.96465 0.0
C61 C 0.02568 0.62811 0.95593 0.0
O62 O 0.07294 0.66158 0.97136 0.0
O63 O 0.06851 0.77993 0.89945 0.0
O64 O 0.09332 0.86654 0.91312 0.0
O65 O 0.05017 0.73123 1.00521 0.0
O66 O 0.092 0.81303 0.9812 0.0
C67 C 0.08647 0.83049 0.89162 0.0
C68 C 0.07721 0.78443 1.00775 0.0
O69 O 0.00383 0.6492 0.93821 0.0
Mg70 Mg 0.30336 0.26968 0.94027 0.0
O71 O 0.2431 0.27364 0.97848 0.0
O72 O 0.25178 0.24451 0.02725 0.0
Mg73 Mg 0.322 0.22241 0.02016 0.0
C74 C 0.22905 0.26359 1.00862 0.0
C75 C 0.25179 0.28499 0.87825 0.0
O76 O 0.25654 0.24167 0.87146 0.0
O77 O 0.37775 0.34966 0.9636 0.0
O78 O 0.38578 0.31376 1.01016 0.0
O79 O 0.23969 0.17931 0.93042 0.0
O80 O 0.30627 0.21017 0.96783 0.0
C81 C 0.40237 0.35474 0.99084 0.0
C82 C 0.26275 0.16926 0.95445 0.0
O83 O 0.27376 0.31177 0.90442 0.0
Mg84 Mg 0.99043 0.331 0.4315 0.0
O85 O 0.94776 0.34843 0.38996 0.0
O86 O 0.91215 0.28038 0.35304 0.0
Mg87 Mg 0.93811 0.2196 0.3704 0.0
C88 C 0.9206 0.32668 0.36384 0.0
C89 C 0.98571 0.43239 0.45856 0.0
O90 O 0.93265 0.39919 0.44951 0.0
O91 O 0.0702 0.35755 0.39778 0.0
O92 O 0.03181 0.2873 0.36229 0.0
O93 O 0.90356 0.28209 0.45528 0.0
O94 O 0.94132 0.24698 0.42119 0.0
C95 C 0.07414 0.33299 0.37214 0.0
C96 C 0.89718 0.24139 0.43715 0.0
O97 O 0.02267 0.41812 0.4523 0.0
Mg98 Mg 0.64862 0.67914 0.3916 0.0
O99 O 0.60651 0.60554 0.35734 0.0
O100 O 0.6594 0.62016 0.31163 0.0
Mg101 Mg 0.73726 0.70722 0.31617 0.0
C102 C 0.61539 0.58992 0.32967 0.0
C103 C 0.54688 0.58706 0.43275 0.0
O104 O 0.57225 0.56173 0.42005 0.0
O105 O 0.62213 0.72973 0.35939 0.0
O106 O 0.68024 0.74509 0.31598 0.0
O107 O 0.69872 0.64345 0.41168 0.0
O108 O 0.72854 0.70095 0.36985 0.0
C109 C 0.64192 0.751 0.33106 0.0
C110 C 0.73598 0.66857 0.3883 0.0
O111 O 0.56634 0.63764 0.42487 0.0
Mg112 Mg 0.33248 0.98964 0.42717 0.0
O113 O 0.39884 0.02806 0.38567 0.0
O114 O 0.36587 0.05557 0.34501 0.0
Mg115 Mg 0.27553 0.0348 0.36129 0.0
C116 C 0.40485 0.04976 0.35768 0.0
C117 C 0.4145 0.9881 0.47723 0.0
O118 O 0.40018 0.02276 0.48971 0.0
O119 O 0.27886 0.90969 0.3962 0.0
O120 O 0.24604 0.9432 0.35873 0.0
O121 O 0.36705 0.07565 0.44695 0.0
O122 O 0.29521 0.03473 0.41293 0.0
C123 C 0.24903 0.90327 0.37093 0.0
C124 C 0.3307 0.07839 0.42857 0.0
O125 O 0.39079 0.96274 0.45098 0.0
Mg126 Mg 0.31219 0.27213 0.29643 0.0
O127 O 0.4011 0.3498 0.29925 0.0
O128 O 0.46615 0.3238 0.30327 0.0
Mg129 Mg 0.4198 0.22971 0.29979 0.0
C130 C 0.45265 0.36107 0.30224 0.0
C131 C 0.27905 0.35827 0.3117 0.0
O132 O 0.32211 0.37172 0.33096 0.0
O133 O 0.32885 0.26124 0.24218 0.0
O134 O 0.39159 0.23293 0.24826 0.0
O135 O 0.30386 0.26438 0.35069 0.0
O136 O 0.34272 0.22697 0.31951 0.0
C137 C 0.36143 0.24442 0.23025 0.0
C138 C 0.33015 0.23703 0.34826 0.0
O139 O 0.26984 0.32346 0.28895 0.0
Mg140 Mg 0.71614 0.07257 0.28525 0.0
O141 O 0.63689 0.08123 0.29274 0.0
O142 O 0.67003 0.17023 0.30562 0.0
Mg143 Mg 0.76792 0.21924 0.30285 0.0
C144 C 0.62874 0.12071 0.30111 0.0
C145 C 0.68315 0.95679 0.28606 0.0
O146 O 0.73247 0.98773 0.30026 0.0
O147 O 0.73568 0.11253 0.2336 0.0
O148 O 0.77012 0.2007 0.24835 0.0
O149 O 0.7153 0.05906 0.33874 0.0
O150 O 0.76308 0.14157 0.31551 0.0
C151 C 0.75832 0.16405 0.22634 0.0
C152 C 0.74624 0.1121 0.34174 0.0
O153 O 0.66142 0.98065 0.2708 0.0
Mg154 Mg 0.96755 0.59922 0.27767 0.0
O155 O 0.91068 0.60898 0.31553 0.0
O156 O 0.91945 0.58338 0.36536 0.0
Mg157 Mg 0.98756 0.55813 0.35919 0.0
C158 C 0.89768 0.60225 0.34587 0.0
C159 C 0.91111 0.61151 0.21635 0.0
O160 O 0.91185 0.56594 0.20992 0.0
O161 O 0.04498 0.67996 0.29831 0.0
O162 O 0.05368 0.64772 0.34611 0.0
O163 O 0.9015 0.50855 0.27065 0.0
O164 O 0.96951 0.54117 0.30723 0.0
C165 C 0.0708 0.68685 0.32532 0.0
C166 C 0.92493 0.49973 0.29499 0.0
O167 O 0.93784 0.64018 0.24111 0.0
Mg168 Mg 0.63474 0.65906 0.76201 0.0
O169 O 0.60054 0.68372 0.71931 0.0
O170 O 0.56378 0.61666 0.68167 0.0
Mg171 Mg 0.57742 0.54827 0.70054 0.0
C172 C 0.5754 0.66402 0.69242 0.0
C173 C 0.64221 0.76576 0.78982 0.0
O174 O 0.58841 0.7367 0.78111 0.0
O175 O 0.71481 0.67786 0.73042 0.0
O176 O 0.67383 0.60791 0.6949 0.0
O177 O 0.54545 0.61679 0.78358 0.0
O178 O 0.5797 0.57653 0.75098 0.0
C179 C 0.71797 0.65128 0.70556 0.0
C180 C 0.5365 0.57476 0.7659 0.0
O181 O 0.67506 0.74677 0.78317 0.0
Mg182 Mg 0.31503 0.01795 0.72851 0.0
O183 O 0.26963 0.94721 0.69263 0.0
O184 O 0.32354 0.95967 0.64776 0.0
Mg185 Mg 0.40339 0.04513 0.653 0.0
C186 C 0.2777 0.93118 0.66486 0.0
C187 C 0.2137 0.9267 0.77015 0.0
O188 O 0.23673 0.90019 0.75603 0.0
O189 O 0.29075 0.07119 0.69735 0.0
O190 O 0.34792 0.08457 0.6537 0.0
O191 O 0.3634 0.97905 0.74719 0.0
O192 O 0.39406 0.03843 0.70638 0.0
C193 C 0.31073 0.09203 0.66894 0.0
C194 C 0.4011 0.00521 0.72418 0.0
O195 O 0.23364 0.9774 0.76239 0.0
Mg196 Mg -0.00055 0.32064 0.766 0.0
O197 O 0.05526 0.35168 0.71959 0.0
O198 O 0.02128 0.38758 0.68459 0.0
Mg199 Mg 0.9365 0.37221 0.70767 0.0
C200 C 0.05845 0.37517 0.69254 0.0
C201 C 0.0775 0.30971 0.8128 0.0
O202 O 0.05918 0.33959 0.82777 0.0
O203 O 0.93669 0.24195 0.737 0.0
O204 O 0.90221 0.27943 0.70334 0.0
O205 O 0.04534 0.40762 0.78514 0.0
O206 O 0.96619 0.37113 0.75663 0.0
C207 C 0.904 0.23768 0.71367 0.0
C208 C 0.00774 0.41377 0.77018 0.0
O209 O 0.05689 0.28912 0.78507 0.0
Mg210 Mg 0.97798 0.59686 0.63868 0.0
O211 O 0.05927 0.68239 0.63807 0.0
O212 O 0.13504 0.67121 0.63699 0.0
Mg213 Mg 0.10254 0.57878 0.63837 0.0
C214 C 0.11337 0.70218 0.63738 0.0
C215 C 0.92623 0.6681 0.65438 0.0
O216 O 0.96744 0.68331 0.67525 0.0
O217 O 0.99099 0.58311 0.58408 0.0
O218 O 0.06313 0.56705 0.58843 0.0
O219 O 0.97688 0.594 0.69299 0.0
O220 O 0.02189 0.56359 0.66138 0.0
C221 C 0.02595 0.56972 0.57141 0.0
C222 C 0.00925 0.57284 0.69033 0.0
O223 O 0.922 0.63507 0.63151 0.0
Mg224 Mg 0.37055 0.40493 0.61265 0.0
O225 O 0.28567 0.40282 0.61721 0.0
O226 O 0.30553 0.48966 0.62558 0.0
Mg227 Mg 0.40299 0.54715 0.62565 0.0
C228 C 0.26975 0.43784 0.62261 0.0
C229 C 0.34766 0.29293 0.61692 0.0
O230 O 0.39548 0.3275 0.63157 0.0
O231 O 0.39042 0.44155 0.56029 0.0
O232 O 0.41502 0.5286 0.57223 0.0
O233 O 0.36597 0.39379 0.66609 0.0
O234 O 0.40893 0.47608 0.64242 0.0
C235 C 0.40965 0.49189 0.55158 0.0
C236 C 0.39197 0.44692 0.66886 0.0
O237 O 0.32424 0.31268 0.59947 0.0
Mg238 Mg 0.63263 0.94264 0.60876 0.0
O239 O 0.57495 0.9497 0.64735 0.0
O240 O 0.58528 0.92245 0.69637 0.0
Mg241 Mg 0.65086 0.89443 0.6885 0.0
C242 C 0.5629 0.94191 0.67778 0.0
C243 C 0.5829 0.95927 0.54663 0.0
O244 O 0.58699 0.91545 0.54032 0.0
O245 O 0.70911 0.02155 0.63157 0.0
O246 O 0.71761 0.98449 0.67763 0.0
O247 O 0.5667 0.85276 0.59934 0.0
O248 O 0.63382 0.88211 0.63633 0.0
C249 C 0.73486 0.02545 0.65822 0.0
C250 C 0.58972 0.84182 0.62299 0.0
O251 O 0.6046 0.9861 0.57283 0.0
C252 C 0.50808 0.03873 0.03957 0.0
C253 C 0.45713 0.01391 0.02202 0.0
C254 C 0.55799 0.042 0.02633 0.0
C255 C 0.55858 0.02045 0.99513 0.0
H256 H 0.50828 0.05168 0.06458 0.0
H257 H 0.5949 0.05776 0.04175 0.0
S258 S 0.44038 0.96511 0.93628 0.0
N259 N 0.41336 0.97766 0.9696 0.0
N260 N 0.50697 0.98356 0.94482 0.0
C261 C 0.50984 0.00158 0.97601 0.0
C262 C 0.45913 -0.0017 0.98946 0.0
C263 C 0.97114 0.50316 1.00985 0.0
C264 C 0.9718 0.46393 0.98852 0.0
C265 C 0.98317 0.55494 0.99829 0.0
C266 C 0.99494 0.56885 0.96498 0.0
H267 H 0.96719 0.49624 0.03595 0.0
H268 H 0.98756 0.58592 0.01589 0.0
S269 S 0.99053 0.47687 0.89838 0.0
N270 N 0.97682 0.43954 0.93183 0.0
N271 N -0.00135 0.53684 0.91036 0.0
C272 C 0.98936 0.52797 0.943 0.0
C273 C 0.97781 0.47539 0.95474 0.0
C274 C 0.47536 0.41296 0.03244 0.0
C275 C 0.45039 0.40945 1.00201 0.0
C276 C 0.51759 0.46378 0.04529 0.0
C277 C 0.53678 0.51356 0.0284 0.0
H278 H 0.46136 0.37621 0.04709 0.0
H279 H 0.53367 0.46411 0.06921 0.0
S280 S 0.49104 0.52729 0.94605 0.0
N281 N 0.45201 0.46034 0.95417 0.0
N282 N 0.53156 0.55582 0.97805 0.0
C283 C 0.51438 0.51059 0.9972 0.0
C284 C 0.47125 0.45867 0.98412 0.0
C285 C 0.12929 0.33381 0.32227 0.0
C286 C 0.12969 0.35389 0.35401 0.0
C287 C 0.17933 0.34047 0.30714 0.0
C288 C 0.23198 0.36744 0.32313 0.0
H289 H 0.08927 0.30964 0.30967 0.0
H290 H 0.17562 0.3207 0.28375 0.0
S291 S 0.25882 0.43933 0.40314 0.0
N292 N 0.18895 0.41032 0.39849 0.0
N293 N 0.28345 0.42363 0.36998 0.0
C294 C 0.23431 0.39359 0.35319 0.0
C295 C 0.18305 0.38662 0.36867 0.0
C296 C 0.6256 0.83034 0.33854 0.0
C297 C 0.63014 0.79289 0.3174 0.0
C298 C 0.63635 0.88181 0.32711 0.0
C299 C 0.6508 0.89714 0.29411 0.0
H300 H 0.61984 0.8226 0.36457 0.0
H301 H 0.63832 0.91179 0.34473 0.0
S302 S 0.65617 0.80945 0.22774 0.0
N303 N 0.64087 0.77117 0.26092 0.0
N304 N 0.66085 0.86798 0.23976 0.0
C305 C 0.64883 0.85771 0.27216 0.0
C306 C 0.63833 0.80542 0.28374 0.0
C307 C 0.14533 0.74828 0.36544 0.0
C308 C 0.12105 0.7417 0.33442 0.0
C309 C 0.18941 0.79988 0.37634 0.0
C310 C 0.21122 0.84735 0.35676 0.0
H311 H 0.12905 0.71359 0.38213 0.0
H312 H 0.20439 0.80297 0.40091 0.0
S313 S 0.16942 0.85184 0.27176 0.0
N314 N 0.12698 0.78663 0.28305 0.0
N315 N 0.21001 0.88352 0.30331 0.0
C316 C 0.19004 0.84091 0.32492 0.0
C317 C 0.14498 0.78825 0.31383 0.0
C318 C 0.82518 0.64501 0.64713 0.0
C319 C 0.87752 0.67633 0.66301 0.0
C320 C 0.77466 0.64054 0.66001 0.0
C321 C 0.77415 0.66712 0.68936 0.0
H322 H 0.82224 0.62077 0.62573 0.0
H323 H 0.73511 0.6135 0.64758 0.0
S324 S 0.90225 0.76424 0.7364 0.0
N325 N 0.92772 0.74225 0.70658 0.0
N326 N 0.83239 0.73313 0.73096 0.0
C327 C 0.82715 0.70316 0.70365 0.0
C328 C 0.87888 0.70791 0.69042 0.0
C329 C 0.31883 0.19443 0.60731 0.0
C330 C 0.3174 0.23446 0.62733 0.0
C331 C 0.30953 0.14458 0.6206 0.0
C332 C 0.29905 0.13339 0.65441 0.0
H333 H 0.33221 0.20368 0.58191 0.0
H334 H 0.31545 0.11671 0.60469 0.0
S335 S 0.28153 0.22193 0.71585 0.0
N336 N 0.29712 0.25719 0.68143 0.0
N337 N 0.27974 0.16369 0.7065 0.0
C338 C 0.29133 0.17067 0.6739 0.0
C339 C 0.30087 0.22139 0.66033 0.0
C340 C 0.78852 0.12935 0.65906 0.0
C341 C 0.78346 0.07953 0.66918 0.0
C342 C 0.8285 0.18004 0.67311 0.0
C343 C 0.86536 0.18323 0.69788 0.0
H344 H 0.75978 0.12908 0.64117 0.0
H345 H 0.82925 0.21689 0.66491 0.0
S346 S 0.87426 0.06507 0.72996 0.0
N347 N 0.82255 0.03685 0.70322 0.0
N348 N 0.89727 0.13203 0.72965 0.0
C349 C 0.86273 0.13395 0.70699 0.0
C350 C 0.82199 0.08223 0.69266 0.0
C351 C 0.29404 0.16703 0.15316 0.0
C352 C 0.33778 0.15927 0.13955 0.0
C353 C 0.30365 0.20053 0.18075 0.0
C354 C 0.35735 0.22746 0.19561 0.0
H355 H 0.25076 0.14363 0.14418 0.0
H356 H 0.26742 0.20101 0.19218 0.0
S357 S 0.48994 0.23331 0.16421 0.0
N358 N 0.43969 0.1907 0.13909 0.0
N359 N 0.4576 0.25344 0.19089 0.0
C360 C 0.4031 0.22573 0.17979 0.0
C361 C 0.39338 0.19168 0.15175 0.0
C362 C 0.82219 0.17522 0.141 0.0
C363 C 0.84204 0.23071 0.13209 0.0
C364 C 0.79137 0.15243 0.1704 0.0
C365 C 0.77912 0.18415 0.1923 0.0
H366 H 0.83265 0.1496 0.12584 0.0
H367 H 0.78004 0.11066 0.17679 0.0
S368 S 0.81308 0.32863 0.17835 0.0
N369 N 0.84104 0.31458 0.14604 0.0
N370 N 0.78309 0.27202 0.201 0.0
C371 C 0.79491 0.23834 0.18255 0.0
C372 C 0.82627 0.26151 0.15258 0.0
C373 C 0.84977 0.59701 0.16815 0.0
C374 C 0.87117 0.62284 0.19841 0.0
C375 C 0.80708 0.60165 0.15233 0.0
C376 C 0.7834 0.63178 0.16627 0.0
H377 H 0.86564 0.57233 0.15669 0.0
H378 H 0.79214 0.58088 0.12916 0.0
S379 S 0.82429 0.70722 0.24539 0.0
N380 N 0.86548 0.68 0.24161 0.0
N381 N 0.78537 0.68845 0.21236 0.0
C382 C 0.8049 0.65831 0.19645 0.0
C383 C 0.84874 0.65401 0.21235 0.0
C384 C 0.63032 0.85515 0.85595 0.0
C385 C 0.68509 0.88131 0.86955 0.0
C386 C 0.618 0.82131 0.82828 0.0
C387 C 0.65997 0.81234 0.81324 0.0
H388 H 0.59545 0.85694 0.86825 0.0
H389 H 0.57412 0.79896 0.82016 0.0
S390 S 0.81372 0.88306 0.83452 0.0
N391 N 0.78432 0.90463 0.86228 0.0
N392 N 0.76118 0.84106 0.81042 0.0
C393 C 0.71646 0.84343 0.82438 0.0
C394 C 0.729 0.8779 0.8525 0.0
C395 C 0.1238 0.82119 0.83641 0.0
C396 C 0.10783 0.85096 0.85767 0.0
C397 C 0.15512 0.84502 0.80729 0.0
C398 C 0.17192 0.89968 0.79805 0.0
H399 H 0.11496 0.78033 0.84312 0.0
H400 H 0.16846 0.82101 0.79266 0.0
S401 S 0.13251 0.99196 0.84235 0.0
N402 N 0.10486 0.93568 0.86519 0.0
N403 N 0.16387 0.98019 0.8108 0.0
C404 C 0.15241 0.92828 0.81781 0.0
C405 C 0.12042 0.90403 0.84746 0.0
C406 C 0.18913 0.32591 0.87322 0.0
C407 C 0.21193 0.29507 0.85929 0.0
C408 C 0.14589 0.33004 0.85793 0.0
C409 C 0.12354 0.30382 0.82786 0.0
H410 H 0.20344 0.34573 0.8967 0.0
H411 H 0.12954 0.35374 0.87015 0.0
S412 S 0.17172 0.22162 0.77971 0.0
N413 N 0.21106 0.2402 0.81262 0.0
N414 N 0.13006 0.24834 0.78386 0.0
C415 C 0.14717 0.27425 0.8131 0.0
C416 C 0.19123 0.26984 0.82877 0.0
C417 C 0.05331 0.50742 0.49592 0.0
C418 C -0.00092 0.4786 0.48169 0.0
C419 C 0.06313 0.54145 0.52316 0.0
C420 C 0.01915 0.54814 0.53746 0.0
H421 H 0.0876 0.50101 0.48735 0.0
H422 H 0.10466 0.55976 0.53436 0.0
S423 S 0.87322 0.49185 0.50507 0.0
N424 N 0.90368 0.46685 0.48045 0.0
N425 N 0.92211 0.53028 0.53197 0.0
C426 C 0.96668 0.52455 0.52134 0.0
C427 C 0.95663 0.48984 0.49342 0.0
C428 C 0.48942 0.5909 0.48084 0.0
C429 C 0.50268 0.55935 0.45943 0.0
C430 C 0.456 0.56755 0.50938 0.0
C431 C 0.43418 0.51148 0.51791 0.0
H432 H 0.50737 0.63477 0.47647 0.0
H433 H 0.44958 0.5947 0.52563 0.0
S434 S 0.44808 0.40842 0.46704 0.0
N435 N 0.48486 0.46705 0.44646 0.0
N436 N 0.42258 0.42344 0.50008 0.0
C437 C 0.44331 0.47837 0.49536 0.0
C438 C 0.47744 0.50222 0.46622 0.0
C439 C 0.52312 0.00303 0.53959 0.0
C440 C 0.54454 0.97028 0.5268 0.0
C441 C 0.48134 0.00831 0.52331 0.0
C442 C 0.45907 0.98123 0.49343 0.0
H443 H 0.53739 0.02354 0.56289 0.0
H444 H 0.46592 0.03344 0.53464 0.0
S445 S 0.50439 0.89431 0.44799 0.0
N446 N 0.54276 0.91294 0.48128 0.0
N447 N 0.46444 0.92302 0.45079 0.0
C448 C 0.48138 0.94972 0.47983 0.0
C449 C 0.52401 0.94428 0.49644 0.0
C450 C 0.13968 0.89688 0.07113 0.0
C451 C 0.16661 0.8772 0.09116 0.0
C452 C 0.10612 0.86464 0.04523 0.0
C453 C 0.09695 0.81128 0.03962 0.0
H454 H 0.15084 0.93982 0.0726 0.0
H455 H 0.09096 0.88313 0.02821 0.0
S456 S 0.14591 0.73646 0.09094 0.0
N457 N 0.17387 0.79857 0.10759 0.0
N458 N 0.10798 0.7364 0.06015 0.0
C459 C 0.11625 0.78829 0.06269 0.0
C460 C 0.15167 0.82169 0.08839 0.0
C461 C 0.15289 0.3433 0.02248 0.0
C462 C 0.1109 0.31241 0.04665 0.0
C463 C 0.19045 0.32678 1.01041 0.0
C464 C 0.18866 0.27938 0.02253 0.0
H465 H 0.15684 0.38061 0.01251 0.0
H466 H 0.22161 0.35179 0.99156 0.0
S467 S 0.08905 0.18506 0.08689 0.0
N468 N 0.07072 0.23238 0.08289 0.0
N469 N 0.14307 0.20242 0.06074 0.0
C470 C 0.14844 0.24897 0.04748 0.0
C471 C 0.10921 0.26526 0.05945 0.0
C472 C 0.73139 0.82716 0.07049 0.0
C473 C 0.68632 0.79706 0.09312 0.0
C474 C 0.72984 0.86515 0.04941 0.0
C475 C 0.6837 0.87462 0.05085 0.0
H476 H 0.76452 0.81688 0.06655 0.0
H477 H 0.7627 0.88403 0.03042 0.0
S478 S 0.56169 0.81395 0.11067 0.0
N479 N 0.5991 0.78444 0.11911 0.0
N480 N 0.59702 0.85751 0.0804 0.0
C481 C 0.64245 0.84998 0.07626 0.0
C482 C 0.6435 0.81053 0.0972 0.0
C483 C 0.80864 0.12212 0.98758 0.0
C484 C 0.82677 0.08688 0.97443 0.0
C485 C 0.84809 0.1778 0.99419 0.0
C486 C 0.90691 0.20061 0.98721 0.0
H487 H 0.76392 0.1062 0.99411 0.0
H488 H 0.83254 0.20294 1.00542 0.0
S489 S 0.97644 0.12735 0.95087 0.0
N490 N 0.90751 0.07964 0.95336 0.0
N491 N 0.98155 0.18478 0.96537 0.0
C492 C 0.9255 0.16669 0.97277 0.0
C493 C 0.88545 0.10967 0.96651 0.0
C494 C 0.80665 0.68692 1.0056 0.0
C495 C 0.78419 0.72223 1.00698 0.0
C496 C 0.85891 0.7029 0.98939 0.0
C497 C 0.89132 0.75538 0.97455 0.0
H498 H 0.78438 0.64713 0.01791 0.0
H499 H 0.87558 0.67521 0.9903 0.0
S500 S 0.8491 0.86125 0.96893 0.0
N501 N 0.79591 0.81013 0.99 0.0
N502 N 0.89511 0.84082 0.96007 0.0
C503 C 0.86793 0.78993 0.97433 0.0
C504 C 0.8141 0.7732 0.99039 0.0
C505 C 0.22456 0.10818 1.00225 0.0
C506 C 0.23839 0.11404 0.9688 0.0
C507 C 0.22388 0.06608 0.02023 0.0
C508 C 0.23668 0.02831 1.00523 0.0
H509 H 0.21903 0.13907 0.01512 0.0
H510 H 0.21739 0.06558 0.04643 0.0
S511 S 0.26217 0.01868 0.91677 0.0
N512 N 0.25534 0.07374 0.92021 0.0
N513 N 0.25314 0.99326 0.95401 0.0
C514 C 0.24297 0.02928 0.97106 0.0
C515 C 0.24406 0.07268 0.95275 0.0
C516 C 0.83182 0.14712 0.41731 0.0
C517 C 0.84078 0.1998 0.42504 0.0
C518 C 0.7956 0.11586 0.39211 0.0
C519 C 0.76836 0.13704 0.37362 0.0
H520 H 0.85776 0.13277 0.4283 0.0
H521 H 0.79379 0.07774 0.38491 0.0
S522 S 0.76563 0.26555 0.39 0.0
N523 N 0.81 0.26623 0.41702 0.0
N524 N 0.74278 0.20772 0.36896 0.0
C525 C 0.77101 0.18608 0.38385 0.0
C526 C 0.80683 0.21732 0.41004 0.0
C527 C 0.81421 0.58861 0.38096 0.0
C528 C 0.85928 0.62112 0.35876 0.0
C529 C 0.7752 0.60493 0.39124 0.0
C530 C 0.7806 0.65463 0.37996 0.0
H531 H 0.80791 0.5495 0.38952 0.0
H532 H 0.73969 0.57764 0.40737 0.0
S533 S 0.8976 0.75857 0.32591 0.0
N534 N 0.91075 0.70754 0.32841 0.0
N535 N 0.83906 0.73921 0.34853 0.0
C536 C 0.82762 0.68886 0.35922 0.0
C537 C 0.86655 0.67183 0.3484 0.0
C538 C 0.28813 0.17443 0.39553 0.0
C539 C 0.33719 0.21044 0.37678 0.0
C540 C 0.28817 0.13487 0.41583 0.0
C541 C 0.3377 0.13138 0.41858 0.0
H542 H 0.24795 0.173 0.39201 0.0
H543 H 0.248 0.10388 0.42726 0.0
S544 S 0.48029 0.22455 0.37992 0.0
N545 N 0.43868 0.24631 0.36597 0.0
N546 N 0.43921 0.17248 0.40485 0.0
C547 C 0.38881 0.17156 0.40303 0.0
C548 C 0.38841 0.21105 0.38179 0.0
C549 C 0.53837 0.51752 0.29556 0.0
C550 C 0.57738 0.53197 0.32078 0.0
C551 C 0.49831 0.46167 0.28922 0.0
C552 C 0.49745 0.41911 0.30742 0.0
H553 H 0.53767 0.54948 0.28144 0.0
H554 H 0.46763 0.45169 0.27018 0.0
S555 S 0.59182 0.43664 0.37579 0.0
N556 N 0.61326 0.50047 0.36393 0.0
N557 N 0.5392 0.39541 0.35148 0.0
C558 C 0.53742 0.43338 0.33213 0.0
C559 C 0.57715 0.49001 0.33897 0.0
C560 C 0.5646 0.12922 0.34178 0.0
C561 C 0.57072 0.10683 0.31213 0.0
C562 C 0.5104 0.11106 0.35598 0.0
C563 C 0.46041 0.07141 0.34047 0.0
H564 H 0.60209 0.1589 0.35503 0.0
H565 H 0.50763 0.12736 0.37959 0.0
S566 S 0.45267 0.00223 0.26174 0.0
N567 N 0.5222 0.0437 0.26737 0.0
N568 N 0.41964 0.01164 0.29345 0.0
C569 C 0.46553 0.05037 0.31017 0.0
C570 C 0.52096 0.06757 0.29615 0.0
C571 C 0.89329 0.44086 0.34392 0.0
C572 C 0.90153 0.445 0.30996 0.0
C573 C 0.89397 0.3987 0.3611 0.0
C574 C 0.90259 0.35912 0.3448 0.0
H575 H 0.89092 0.47292 0.35755 0.0
H576 H 0.89178 0.3995 0.38749 0.0
S577 S 0.9118 0.34453 0.25518 0.0
N578 N 0.90803 0.4011 0.25999 0.0
N579 N 0.90832 0.32056 0.29227 0.0
C580 C 0.9029 0.35844 0.31048 0.0
C581 C 0.90257 0.40187 0.29298 0.0
C582 C 0.43349 0.44967 0.72204 0.0
C583 C 0.411 0.47249 0.70101 0.0
C584 C 0.4677 0.48064 0.74793 0.0
C585 C 0.47958 0.53485 0.75373 0.0
H586 H 0.42996 0.41023 0.71646 0.0
H587 H 0.49052 0.46475 0.76091 0.0
S588 S 0.41357 0.60449 0.71267 0.0
N589 N 0.39051 0.54586 0.69247 0.0
N590 N 0.45429 0.60414 0.74178 0.0
C591 C 0.44934 0.55409 0.73633 0.0
C592 C 0.4154 0.52296 0.70949 0.0
C593 C 0.47985 0.92615 0.71393 0.0
C594 C 0.52476 0.96002 0.69195 0.0
C595 C 0.44079 0.94177 0.72529 0.0
C596 C 0.44606 0.99203 0.71532 0.0
H597 H 0.47364 0.88654 0.72139 0.0
H598 H 0.40528 0.9135 0.7411 0.0
S599 S 0.56289 0.09931 0.66259 0.0
N600 N 0.57611 0.04817 0.66339 0.0
N601 N 0.50456 0.07865 0.68564 0.0
C602 C 0.49319 0.02767 0.69501 0.0
C603 C 0.53206 0.01134 0.68307 0.0
C604 C 0.97273 0.47762 0.76108 0.0
C605 C 0.01895 0.46847 0.76055 0.0
C606 C 0.9733 0.5175 0.74082 0.0
C607 C 0.01945 0.54814 0.71882 0.0
H608 H 0.9338 0.45036 0.77496 0.0
H609 H 0.93471 0.51984 0.73989 0.0
S610 S 0.15599 0.54815 0.71368 0.0
N611 N 0.11612 0.49965 0.74085 0.0
N612 N 0.11687 0.57441 0.70227 0.0
C613 C 0.06863 0.54394 0.72091 0.0
C614 C 0.06849 0.50402 0.74203 0.0
C615 C 0.25049 0.84241 0.63651 0.0
C616 C 0.23385 0.87584 0.65354 0.0
C617 C 0.21058 0.78666 0.63012 0.0
C618 C 0.15255 0.76277 0.64003 0.0
H619 H 0.29512 0.85853 0.62958 0.0
H620 H 0.22571 0.76173 0.61817 0.0
S621 S 0.08646 0.83535 0.68192 0.0
N622 N 0.15513 0.88301 0.67774 0.0
N623 N 0.07985 0.77862 0.66528 0.0
C624 C 0.13485 0.79699 0.65519 0.0
C625 C 0.17562 0.85343 0.66212 0.0
C626 C 0.13257 0.35499 0.6714 0.0
C627 C 0.10706 0.38764 0.66996 0.0
C628 C 0.18265 0.36891 0.6534 0.0
C629 C 0.20988 0.4167 0.63374 0.0
H630 H 0.11469 0.31919 0.68735 0.0
H631 H 0.20222 0.34406 0.65676 0.0
S632 S 0.15643 0.5116 0.61774 0.0
N633 N 0.10894 0.46606 0.64406 0.0
N634 N 0.20479 0.49335 0.61105 0.0
C635 C 0.18305 0.44778 0.63042 0.0
C636 C 0.13115 0.43292 0.64828 0.0
C637 C 0.57676 0.70548 0.63883 0.0
C638 C 0.56294 0.69941 0.6724 0.0
C639 C 0.57877 0.7489 0.62114 0.0
C640 C 0.56551 0.78607 0.63648 0.0
H641 H 0.59105 0.67986 0.6269 0.0
H642 H 0.59556 0.75629 0.59627 0.0
S643 S 0.51371 0.77953 0.72162 0.0
N644 N 0.5279 0.72904 0.71893 0.0
N645 N 0.52793 0.8079 0.68499 0.0
C646 C 0.54493 0.77606 0.66882 0.0
C647 C 0.54463 0.73332 0.68705 0.0
loop_
_geom_bond_atom_site_label_1
_geom_bond_atom_site_label_2
_geom_bond_distance
_geom_bond_site_symmetry_2
_ccdc_geom_bond_type
Mg0 O1 2.028 . S
Mg0 O7 1.986 . S
Mg0 O9 2.114 1_545 S
Mg0 O10 2.251 1_545 S
Mg0 O13 2.010 . S
O1 Mg0 2.028 . S
O1 C4 1.250 . S
O2 Mg3 2.028 . S
O2 C4 1.248 1_556 S
Mg3 O2 2.028 . S
Mg3 O8 2.032 1_556 S
Mg3 O10 2.079 1_546 S
C4 O1 1.250 . S
C4 O2 1.248 1_554 S
C5 O6 1.264 . S
C5 O13 1.249 . S
O6 C5 1.264 . S
O7 Mg0 1.986 . S
O7 C11 1.246 . S
O8 Mg3 2.032 1_554 S
O8 C11 1.259 . S
O9 Mg0 2.114 1_565 S
O9 C12 1.252 . S
O10 Mg0 2.251 1_565 S
O10 Mg3 2.079 1_564 S
O10 C12 1.273 . S
C11 O7 1.246 . S
C11 O8 1.259 . S
C12 O9 1.252 . S
C12 O10 1.273 . S
O13 Mg0 2.010 . S
O13 C5 1.249 . S
Mg14 O15 2.028 . S
Mg14 O21 1.986 . S
Mg14 O23 2.114 1_655 S
Mg14 O24 2.251 1_655 S
Mg14 O27 2.010 . S
O15 Mg14 2.028 . S
O15 C18 1.250 . S
O16 Mg17 2.028 . S
O16 C18 1.248 1_556 S
Mg17 O16 2.028 . S
Mg17 O22 2.032 . S
Mg17 O24 2.079 1_656 S
C18 O15 1.250 . S
C18 O16 1.248 1_554 S
C19 O20 1.264 . S
C19 O27 1.249 . S
O20 C19 1.264 . S
O21 Mg14 1.986 . S
O21 C25 1.246 . S
O22 Mg17 2.032 . S
O22 C25 1.259 1_556 S
O23 Mg14 2.114 1_455 S
O23 C26 1.252 . S
O24 Mg14 2.251 1_455 S
O24 Mg17 2.079 1_454 S
O24 C26 1.273 . S
C25 O21 1.246 . S
C25 O22 1.259 1_554 S
C26 O23 1.252 . S
C26 O24 1.273 . S
O27 Mg14 2.010 . S
O27 C19 1.249 . S
Mg28 O29 2.028 . S
Mg28 O35 1.986 . S
Mg28 O37 2.114 . S
Mg28 O38 2.251 . S
Mg28 O41 2.010 . S
O29 Mg28 2.028 . S
O29 C32 1.250 . S
O30 Mg31 2.028 . S
O30 C32 1.248 1_556 S
Mg31 O30 2.028 . S
Mg31 O36 2.032 1_556 S
Mg31 O38 2.079 1_556 S
C32 O29 1.250 . S
C32 O30 1.248 1_554 S
C33 O34 1.264 . S
C33 O41 1.249 . S
O34 C33 1.264 . S
O35 Mg28 1.986 . S
O35 C39 1.246 . S
O36 Mg31 2.032 1_554 S
O36 C39 1.259 . S
O37 Mg28 2.114 . S
O37 C40 1.252 . S
O38 Mg28 2.251 . S
O38 Mg31 2.079 1_554 S
O38 C40 1.273 . S
C39 O35 1.246 . S
C39 O36 1.259 . S
C40 O37 1.252 . S
C40 O38 1.273 . S
O41 Mg28 2.010 . S
O41 C33 1.249 . S
Mg42 O43 2.028 1_565 S
Mg42 O49 1.986 . S
Mg42 O51 2.114 . S
Mg42 O52 2.251 . S
Mg42 O55 2.010 . S
O43 Mg42 2.028 1_545 S
O43 C46 1.250 . S
O44 Mg45 2.028 1_545 S
O44 C46 1.248 . S
Mg45 O44 2.028 1_565 S
Mg45 O50 2.032 . S
Mg45 O52 2.079 . S
C46 O43 1.250 . S
C46 O44 1.248 . S
C47 O48 1.264 . S
C47 O55 1.249 . S
O48 C47 1.264 . S
O49 Mg42 1.986 . S
O49 C53 1.246 . S
O50 Mg45 2.032 . S
O50 C53 1.259 . S
O51 Mg42 2.114 . S
O51 C54 1.252 . S
O52 Mg42 2.251 . S
O52 Mg45 2.079 . S
O52 C54 1.273 . S
C53 O49 1.246 . S
C53 O50 1.259 . S
C54 O51 1.252 . S
C54 O52 1.273 . S
O55 Mg42 2.010 . S
O55 C47 1.249 . S
Mg56 O57 2.028 1_455 S
Mg56 O63 1.986 . S
Mg56 O65 2.114 . S
Mg56 O66 2.251 . S
Mg56 O69 2.010 . S
O57 Mg56 2.028 1_655 S
O57 C60 1.250 . S
O58 Mg59 2.028 1_655 S
O58 C60 1.248 . S
Mg59 O58 2.028 1_455 S
Mg59 O64 2.032 . S
Mg59 O66 2.079 . S
C60 O57 1.250 . S
C60 O58 1.248 . S
C61 O62 1.264 . S
C61 O69 1.249 . S
O62 C61 1.264 . S
O63 Mg56 1.986 . S
O63 C67 1.246 . S
O64 Mg59 2.032 . S
O64 C67 1.259 . S
O65 Mg56 2.114 . S
O65 C68 1.252 . S
O66 Mg56 2.251 . S
O66 Mg59 2.079 . S
O66 C68 1.273 . S
C67 O63 1.246 . S
C67 O64 1.259 . S
C68 O65 1.252 . S
C68 O66 1.273 . S
O69 Mg56 2.010 . S
O69 C61 1.249 . S
Mg70 O71 2.028 . S
Mg70 O77 1.986 . S
Mg70 O79 2.114 . S
Mg70 O80 2.251 . S
Mg70 O83 2.010 . S
O71 Mg70 2.028 . S
O71 C74 1.250 . S
O72 Mg73 2.028 . S
O72 C74 1.248 1_554 S
Mg73 O72 2.028 . S
Mg73 O78 2.032 1_554 S
Mg73 O80 2.079 1_554 S
C74 O71 1.250 . S
C74 O72 1.248 1_556 S
C75 O76 1.264 . S
C75 O83 1.249 . S
O76 C75 1.264 . S
O77 Mg70 1.986 . S
O77 C81 1.246 . S
O78 Mg73 2.032 1_556 S
O78 C81 1.259 . S
O79 Mg70 2.114 . S
O79 C82 1.252 . S
O80 Mg70 2.251 . S
O80 Mg73 2.079 1_556 S
O80 C82 1.273 . S
C81 O77 1.246 . S
C81 O78 1.259 . S
C82 O79 1.252 . S
C82 O80 1.273 . S
O83 Mg70 2.010 . S
O83 C75 1.249 . S
Mg84 O85 2.028 . S
Mg84 O91 1.986 1_655 S
Mg84 O93 2.114 . S
Mg84 O94 2.251 . S
Mg84 O97 2.010 1_655 S
O85 Mg84 2.028 . S
O85 C88 1.250 . S
O86 Mg87 2.028 . S
O86 C88 1.248 . S
Mg87 O86 2.028 . S
Mg87 O92 2.032 1_655 S
Mg87 O94 2.079 . S
C88 O85 1.250 . S
C88 O86 1.248 . S
C89 O90 1.264 . S
C89 O97 1.249 1_655 S
O90 C89 1.264 . S
O91 Mg84 1.986 1_455 S
O91 C95 1.246 . S
O92 Mg87 2.032 1_455 S
O92 C95 1.259 . S
O93 Mg84 2.114 . S
O93 C96 1.252 . S
O94 Mg84 2.251 . S
O94 Mg87 2.079 . S
O94 C96 1.273 . S
C95 O91 1.246 . S
C95 O92 1.259 . S
C96 O93 1.252 . S
C96 O94 1.273 . S
O97 Mg84 2.010 1_455 S
O97 C89 1.249 1_455 S
Mg98 O99 2.028 . S
Mg98 O105 1.986 . S
Mg98 O107 2.114 . S
Mg98 O108 2.251 . S
Mg98 O111 2.010 . S
O99 Mg98 2.028 . S
O99 C102 1.250 . S
O100 Mg101 2.028 . S
O100 C102 1.248 . S
Mg101 O100 2.028 . S
Mg101 O106 2.032 . S
Mg101 O108 2.079 . S
C102 O99 1.250 . S
C102 O100 1.248 . S
C103 O104 1.264 . S
C103 O111 1.249 . S
O104 C103 1.264 . S
O105 Mg98 1.986 . S
O105 C109 1.246 . S
O106 Mg101 2.032 . S
O106 C109 1.259 . S
O107 Mg98 2.114 . S
O107 C110 1.252 . S
O108 Mg98 2.251 . S
O108 Mg101 2.079 . S
O108 C110 1.273 . S
C109 O105 1.246 . S
C109 O106 1.259 . S
C110 O107 1.252 . S
C110 O108 1.273 . S
O111 Mg98 2.010 . S
O111 C103 1.249 . S
Mg112 O113 2.028 . S
Mg112 O119 1.986 1_545 S
Mg112 O121 2.114 . S
Mg112 O122 2.251 . S
Mg112 O125 2.010 1_545 S
O113 Mg112 2.028 . S
O113 C116 1.250 . S
O114 Mg115 2.028 . S
O114 C116 1.248 . S
Mg115 O114 2.028 . S
Mg115 O120 2.032 1_545 S
Mg115 O122 2.079 . S
C116 O113 1.250 . S
C116 O114 1.248 . S
C117 O118 1.264 1_565 S
C117 O125 1.249 . S
O118 C117 1.264 1_545 S
O119 Mg112 1.986 1_565 S
O119 C123 1.246 . S
O120 Mg115 2.032 1_565 S
O120 C123 1.259 . S
O121 Mg112 2.114 . S
O121 C124 1.252 . S
O122 Mg112 2.251 . S
O122 Mg115 2.079 . S
O122 C124 1.273 . S
C123 O119 1.246 . S
C123 O120 1.259 . S
C124 O121 1.252 . S
C124 O122 1.273 . S
O125 Mg112 2.010 1_565 S
O125 C117 1.249 . S
Mg126 O127 2.028 . S
Mg126 O133 1.986 . S
Mg126 O135 2.114 . S
Mg126 O136 2.251 . S
Mg126 O139 2.010 . S
O127 Mg126 2.028 . S
O127 C130 1.250 . S
O128 Mg129 2.028 . S
O128 C130 1.248 . S
Mg129 O128 2.028 . S
Mg129 O134 2.032 . S
Mg129 O136 2.079 . S
C130 O127 1.250 . S
C130 O128 1.248 . S
C131 O132 1.264 . S
C131 O139 1.249 . S
O132 C131 1.264 . S
O133 Mg126 1.986 . S
O133 C137 1.246 . S
O134 Mg129 2.032 . S
O134 C137 1.259 . S
O135 Mg126 2.114 . S
O135 C138 1.252 . S
O136 Mg126 2.251 . S
O136 Mg129 2.079 . S
O136 C138 1.273 . S
C137 O133 1.246 . S
C137 O134 1.259 . S
C138 O135 1.252 . S
C138 O136 1.273 . S
O139 Mg126 2.010 . S
O139 C131 1.249 . S
Mg140 O141 2.028 . S
Mg140 O147 1.986 . S
Mg140 O149 2.114 . S
Mg140 O150 2.251 . S
Mg140 O153 2.010 1_545 S
O141 Mg140 2.028 . S
O141 C144 1.250 . S
O142 Mg143 2.028 . S
O142 C144 1.248 . S
Mg143 O142 2.028 . S
Mg143 O148 2.032 . S
Mg143 O150 2.079 . S
C144 O141 1.250 . S
C144 O142 1.248 . S
C145 O146 1.264 . S
C145 O153 1.249 . S
O146 C145 1.264 . S
O147 Mg140 1.986 . S
O147 C151 1.246 . S
O148 Mg143 2.032 . S
O148 C151 1.259 . S
O149 Mg140 2.114 . S
O149 C152 1.252 . S
O150 Mg140 2.251 . S
O150 Mg143 2.079 . S
O150 C152 1.273 . S
C151 O147 1.246 . S
C151 O148 1.259 . S
C152 O149 1.252 . S
C152 O150 1.273 . S
O153 Mg140 2.010 1_565 S
O153 C145 1.249 . S
Mg154 O155 2.028 . S
Mg154 O161 1.986 1_655 S
Mg154 O163 2.114 . S
Mg154 O164 2.251 . S
Mg154 O167 2.010 . S
O155 Mg154 2.028 . S
O155 C158 1.250 . S
O156 Mg157 2.028 . S
O156 C158 1.248 . S
Mg157 O156 2.028 . S
Mg157 O162 2.032 1_655 S
Mg157 O164 2.079 . S
C158 O155 1.250 . S
C158 O156 1.248 . S
C159 O160 1.264 . S
C159 O167 1.249 . S
O160 C159 1.264 . S
O161 Mg154 1.986 1_455 S
O161 C165 1.246 . S
O162 Mg157 2.032 1_455 S
O162 C165 1.259 . S
O163 Mg154 2.114 . S
O163 C166 1.252 . S
O164 Mg154 2.251 . S
O164 Mg157 2.079 . S
O164 C166 1.273 . S
C165 O161 1.246 . S
C165 O162 1.259 . S
C166 O163 1.252 . S
C166 O164 1.273 . S
O167 Mg154 2.010 . S
O167 C159 1.249 . S
Mg168 O169 2.028 . S
Mg168 O175 1.986 . S
Mg168 O177 2.114 . S
Mg168 O178 2.251 . S
Mg168 O181 2.010 . S
O169 Mg168 2.028 . S
O169 C172 1.250 . S
O170 Mg171 2.028 . S
O170 C172 1.248 . S
Mg171 O170 2.028 . S
Mg171 O176 2.032 . S
Mg171 O178 2.079 . S
C172 O169 1.250 . S
C172 O170 1.248 . S
C173 O174 1.264 . S
C173 O181 1.249 . S
O174 C173 1.264 . S
O175 Mg168 1.986 . S
O175 C179 1.246 . S
O176 Mg171 2.032 . S
O176 C179 1.259 . S
O177 Mg168 2.114 . S
O177 C180 1.252 . S
O178 Mg168 2.251 . S
O178 Mg171 2.079 . S
O178 C180 1.273 . S
C179 O175 1.246 . S
C179 O176 1.259 . S
C180 O177 1.252 . S
C180 O178 1.273 . S
O181 Mg168 2.010 . S
O181 C173 1.249 . S
Mg182 O183 2.028 . S
Mg182 O189 1.986 1_565 S
Mg182 O191 2.114 . S
Mg182 O192 2.251 . S
Mg182 O195 2.010 . S
O183 Mg182 2.028 . S
O183 C186 1.250 . S
O184 Mg185 2.028 . S
O184 C186 1.248 . S
Mg185 O184 2.028 . S
Mg185 O190 2.032 1_565 S
Mg185 O192 2.079 . S
C186 O183 1.250 . S
C186 O184 1.248 . S
C187 O188 1.264 . S
C187 O195 1.249 . S
O188 C187 1.264 . S
O189 Mg182 1.986 1_545 S
O189 C193 1.246 . S
O190 Mg185 2.032 1_545 S
O190 C193 1.259 . S
O191 Mg182 2.114 . S
O191 C194 1.252 . S
O192 Mg182 2.251 . S
O192 Mg185 2.079 . S
O192 C194 1.273 . S
C193 O189 1.246 . S
C193 O190 1.259 . S
C194 O191 1.252 . S
C194 O192 1.273 . S
O195 Mg182 2.010 . S
O195 C187 1.249 . S
Mg196 O197 2.028 . S
Mg196 O203 1.986 1_455 S
Mg196 O205 2.114 . S
Mg196 O206 2.251 . S
Mg196 O209 2.010 . S
O197 Mg196 2.028 . S
O197 C200 1.250 . S
O198 Mg199 2.028 . S
O198 C200 1.248 . S
Mg199 O198 2.028 . S
Mg199 O204 2.032 1_455 S
Mg199 O206 2.079 . S
C200 O197 1.250 . S
C200 O198 1.248 . S
C201 O202 1.264 . S
C201 O209 1.249 . S
O202 C201 1.264 . S
O203 Mg196 1.986 1_655 S
O203 C207 1.246 . S
O204 Mg199 2.032 1_655 S
O204 C207 1.259 . S
O205 Mg196 2.114 . S
O205 C208 1.252 . S
O206 Mg196 2.251 . S
O206 Mg199 2.079 . S
O206 C208 1.273 . S
C207 O203 1.246 . S
C207 O204 1.259 . S
C208 O205 1.252 . S
C208 O206 1.273 . S
O209 Mg196 2.010 . S
O209 C201 1.249 . S
Mg210 O211 2.028 1_655 S
Mg210 O217 1.986 . S
Mg210 O219 2.114 . S
Mg210 O220 2.251 1_655 S
Mg210 O223 2.010 . S
O211 Mg210 2.028 1_455 S
O211 C214 1.250 . S
O212 Mg213 2.028 . S
O212 C214 1.248 . S
Mg213 O212 2.028 . S
Mg213 O218 2.032 . S
Mg213 O220 2.079 . S
C214 O211 1.250 . S
C214 O212 1.248 . S
C215 O216 1.264 . S
C215 O223 1.249 . S
O216 C215 1.264 . S
O217 Mg210 1.986 . S
O217 C221 1.246 1_655 S
O218 Mg213 2.032 . S
O218 C221 1.259 . S
O219 Mg210 2.114 . S
O219 C222 1.252 1_655 S
O220 Mg210 2.251 1_455 S
O220 Mg213 2.079 . S
O220 C222 1.273 . S
C221 O217 1.246 1_455 S
C221 O218 1.259 . S
C222 O219 1.252 1_455 S
C222 O220 1.273 . S
O223 Mg210 2.010 . S
O223 C215 1.249 . S
Mg224 O225 2.028 . S
Mg224 O231 1.986 . S
Mg224 O233 2.114 . S
Mg224 O234 2.251 . S
Mg224 O237 2.010 . S
O225 Mg224 2.028 . S
O225 C228 1.250 . S
O226 Mg227 2.028 . S
O226 C228 1.248 . S
Mg227 O226 2.028 . S
Mg227 O232 2.032 . S
Mg227 O234 2.079 . S
C228 O225 1.250 . S
C228 O226 1.248 . S
C229 O230 1.264 . S
C229 O237 1.249 . S
O230 C229 1.264 . S
O231 Mg224 1.986 . S
O231 C235 1.246 . S
O232 Mg227 2.032 . S
O232 C235 1.259 . S
O233 Mg224 2.114 . S
O233 C236 1.252 . S
O234 Mg224 2.251 . S
O234 Mg227 2.079 . S
O234 C236 1.273 . S
C235 O231 1.246 . S
C235 O232 1.259 . S
C236 O233 1.252 . S
C236 O234 1.273 . S
O237 Mg224 2.010 . S
O237 C229 1.249 . S
Mg238 O239 2.028 . S
Mg238 O245 1.986 1_565 S
Mg238 O247 2.114 . S
Mg238 O248 2.251 . S
Mg238 O251 2.010 1_565 S
O239 Mg238 2.028 . S
O239 C242 1.250 . S
O240 Mg241 2.023 . S
O240 C242 1.248 . S
Mg241 O240 2.023 . S
Mg241 O246 2.025 1_565 S
Mg241 O248 2.085 . S
C242 O239 1.250 . S
C242 O240 1.248 . S
C243 O244 1.267 . S
C243 O251 1.250 1_565 S
O244 C243 1.267 . S
O245 Mg238 1.986 1_545 S
O245 C249 1.246 . S
O246 Mg241 2.025 1_545 S
O246 C249 1.259 . S
O247 Mg238 2.114 . S
O247 C250 1.252 . S
O248 Mg238 2.251 . S
O248 Mg241 2.085 . S
O248 C250 1.273 . S
C249 O245 1.246 . S
C249 O246 1.259 . S
C250 O247 1.252 . S
C250 O248 1.273 . S
O251 Mg238 2.010 1_545 S
O251 C243 1.250 1_545 S
C252 C253 1.369 1_565 S
C252 C254 1.419 1_554 S
C252 H256 0.930 . S
C253 C252 1.369 1_545 S
C253 C262 1.429 . S
C254 C252 1.419 1_556 S
C254 C255 1.363 1_565 S
C254 H257 0.929 . S
C255 C254 1.363 1_545 S
C255 C261 1.428 . S
H256 C252 0.930 . S
H257 C254 0.929 . S
S258 N259 1.613 . S
S258 N260 1.610 1_554 S
N259 S258 1.613 . S
N259 C262 1.350 . S
N260 S258 1.610 1_556 S
N260 C261 1.351 . S
C261 C255 1.428 . S
C261 N260 1.351 . S
C261 C262 1.434 1_556 S
C262 C253 1.429 . S
C262 N259 1.350 . S
C262 C261 1.434 1_554 S
C263 C264 1.369 1_455 S
C263 C265 1.419 1_554 S
C263 H267 0.930 . S
C264 C263 1.369 1_655 S
C264 C273 1.429 . S
C265 C263 1.419 1_556 S
C265 C266 1.363 1_455 S
C265 H268 0.929 . S
C266 C265 1.363 1_655 S
C266 C272 1.428 . S
H267 C263 0.930 . S
H268 C265 0.929 . S
S269 N270 1.613 . S
S269 N271 1.610 1_554 S
N270 S269 1.613 . S
N270 C273 1.350 . S
N271 S269 1.610 1_556 S
N271 C272 1.351 . S
C272 C266 1.428 . S
C272 N271 1.351 . S
C272 C273 1.434 1_556 S
C273 C264 1.429 . S
C273 N270 1.350 . S
C273 C272 1.434 1_554 S
C274 C275 1.369 1_554 S
C274 C276 1.419 . S
C274 H278 0.930 . S
C275 C274 1.369 1_556 S
C275 C284 1.429 . S
C276 C274 1.419 . S
C276 C277 1.363 . S
C276 H279 0.929 . S
C277 C276 1.363 . S
C277 C283 1.428 1_554 S
H278 C274 0.930 . S
H279 C276 0.929 . S
S280 N281 1.613 . S
S280 N282 1.610 . S
N281 S280 1.613 . S
N281 C284 1.350 . S
N282 S280 1.610 . S
N282 C283 1.351 . S
C283 C277 1.428 1_556 S
C283 N282 1.351 . S
C283 C284 1.434 . S
C284 C275 1.429 . S
C284 N281 1.350 . S
C284 C283 1.434 . S
C285 C286 1.369 . S
C285 C287 1.419 . S
C285 H289 0.930 . S
C286 C285 1.369 . S
C286 C295 1.429 . S
C287 C285 1.419 . S
C287 C288 1.363 . S
C287 H290 0.929 . S
C288 C287 1.363 . S
C288 C294 1.428 . S
H289 C285 0.930 . S
H290 C287 0.929 . S
S291 N292 1.613 . S
S291 N293 1.610 . S
N292 S291 1.613 . S
N292 C295 1.350 . S
N293 S291 1.610 . S
N293 C294 1.351 . S
C294 C288 1.428 . S
C294 N293 1.351 . S
C294 C295 1.434 . S
C295 C286 1.429 . S
C295 N292 1.350 . S
C295 C294 1.434 . S
C296 C297 1.369 . S
C296 C298 1.419 . S
C296 H300 0.930 . S
C297 C296 1.369 . S
C297 C306 1.429 . S
C298 C296 1.419 . S
C298 C299 1.363 . S
C298 H301 0.929 . S
C299 C298 1.363 . S
C299 C305 1.428 . S
H300 C296 0.930 . S
H301 C298 0.929 . S
S302 N303 1.613 . S
S302 N304 1.610 . S
N303 S302 1.613 . S
N303 C306 1.350 . S
N304 S302 1.610 . S
N304 C305 1.351 . S
C305 C299 1.428 . S
C305 N304 1.351 . S
C305 C306 1.434 . S
C306 C297 1.429 . S
C306 N303 1.350 . S
C306 C305 1.434 . S
C307 C308 1.369 . S
C307 C309 1.419 . S
C307 H311 0.930 . S
C308 C307 1.369 . S
C308 C317 1.429 . S
C309 C307 1.419 . S
C309 C310 1.363 . S
C309 H312 0.929 . S
C310 C309 1.363 . S
C310 C316 1.428 . S
H311 C307 0.930 . S
H312 C309 0.929 . S
S313 N314 1.613 . S
S313 N315 1.610 . S
N314 S313 1.613 . S
N314 C317 1.350 . S
N315 S313 1.610 . S
N315 C316 1.351 . S
C316 C310 1.428 . S
C316 N315 1.351 . S
C316 C317 1.434 . S
C317 C308 1.429 . S
C317 N314 1.350 . S
C317 C316 1.434 . S
C318 C319 1.369 . S
C318 C320 1.419 . S
C318 H322 0.930 . S
C319 C318 1.369 . S
C319 C328 1.429 . S
C320 C318 1.419 . S
C320 C321 1.363 . S
C320 H323 0.929 . S
C321 C320 1.363 . S
C321 C327 1.428 . S
H322 C318 0.930 . S
H323 C320 0.929 . S
S324 N325 1.613 . S
S324 N326 1.610 . S
N325 S324 1.613 . S
N325 C328 1.350 . S
N326 S324 1.610 . S
N326 C327 1.351 . S
C327 C321 1.428 . S
C327 N326 1.351 . S
C327 C328 1.434 . S
C328 C319 1.429 . S
C328 N325 1.350 . S
C328 C327 1.434 . S
C329 C330 1.369 . S
C329 C331 1.419 . S
C329 H333 0.930 . S
C330 C329 1.369 . S
C330 C339 1.429 . S
C331 C329 1.419 . S
C331 C332 1.363 . S
C331 H334 0.929 . S
C332 C331 1.363 . S
C332 C338 1.428 . S
H333 C329 0.930 . S
H334 C331 0.929 . S
S335 N336 1.613 . S
S335 N337 1.610 . S
N336 S335 1.613 . S
N336 C339 1.350 . S
N337 S335 1.610 . S
N337 C338 1.351 . S
C338 C332 1.428 . S
C338 N337 1.351 . S
C338 C339 1.434 . S
C339 C330 1.429 . S
C339 N336 1.350 . S
C339 C338 1.434 . S
C340 C341 1.369 . S
C340 C342 1.419 . S
C340 H344 0.930 . S
C341 C340 1.369 . S
C341 C350 1.429 . S
C342 C340 1.419 . S
C342 C343 1.363 . S
C342 H345 0.929 . S
C343 C342 1.363 . S
C343 C349 1.428 . S
H344 C340 0.930 . S
H345 C342 0.929 . S
S346 N347 1.613 . S
S346 N348 1.610 . S
N347 S346 1.613 . S
N347 C350 1.350 . S
N348 S346 1.610 . S
N348 C349 1.351 . S
C349 C343 1.428 . S
C349 N348 1.351 . S
C349 C350 1.434 . S
C350 C341 1.429 . S
C350 N347 1.350 . S
C350 C349 1.434 . S
C351 C352 1.369 . S
C351 C353 1.419 . S
C351 H355 0.930 . S
C352 C351 1.369 . S
C352 C361 1.429 . S
C353 C351 1.419 . S
C353 C354 1.363 . S
C353 H356 0.929 . S
C354 C353 1.363 . S
C354 C360 1.428 . S
H355 C351 0.930 . S
H356 C353 0.929 . S
S357 N358 1.613 . S
S357 N359 1.610 . S
N358 S357 1.613 . S
N358 C361 1.350 . S
N359 S357 1.610 . S
N359 C360 1.351 . S
C360 C354 1.428 . S
C360 N359 1.351 . S
C360 C361 1.434 . S
C361 C352 1.429 . S
C361 N358 1.350 . S
C361 C360 1.434 . S
C362 C363 1.369 . S
C362 C364 1.419 . S
C362 H366 0.930 . S
C363 C362 1.369 . S
C363 C372 1.429 . S
C364 C362 1.419 . S
C364 C365 1.363 . S
C364 H367 0.929 . S
C365 C364 1.363 . S
C365 C371 1.428 . S
H366 C362 0.930 . S
H367 C364 0.929 . S
S368 N369 1.613 . S
S368 N370 1.610 . S
N369 S368 1.613 . S
N369 C372 1.350 . S
N370 S368 1.610 . S
N370 C371 1.351 . S
C371 C365 1.428 . S
C371 N370 1.351 . S
C371 C372 1.434 . S
C372 C363 1.429 . S
C372 N369 1.350 . S
C372 C371 1.434 . S
C373 C374 1.369 . S
C373 C375 1.419 . S
C373 H377 0.930 . S
C374 C373 1.369 . S
C374 C383 1.429 . S
C375 C373 1.419 . S
C375 C376 1.363 . S
C375 H378 0.929 . S
C376 C375 1.363 . S
C376 C382 1.428 . S
H377 C373 0.930 . S
H378 C375 0.929 . S
S379 N380 1.613 . S
S379 N381 1.610 . S
N380 S379 1.613 . S
N380 C383 1.350 . S
N381 S379 1.610 . S
N381 C382 1.351 . S
C382 C376 1.428 . S
C382 N381 1.351 . S
C382 C383 1.434 . S
C383 C374 1.429 . S
C383 N380 1.350 . S
C383 C382 1.434 . S
C384 C385 1.369 . S
C384 C386 1.419 . S
C384 H388 0.930 . S
C385 C384 1.369 . S
C385 C394 1.429 . S
C386 C384 1.419 . S
C386 C387 1.363 . S
C386 H389 0.929 . S
C387 C386 1.363 . S
C387 C393 1.428 . S
H388 C384 0.930 . S
H389 C386 0.929 . S
S390 N391 1.613 . S
S390 N392 1.610 . S
N391 S390 1.613 . S
N391 C394 1.350 . S
N392 S390 1.610 . S
N392 C393 1.351 . S
C393 C387 1.428 . S
C393 N392 1.351 . S
C393 C394 1.434 . S
C394 C385 1.429 . S
C394 N391 1.350 . S
C394 C393 1.434 . S
C395 C396 1.369 . S
C395 C397 1.419 . S
C395 H399 0.930 . S
C396 C395 1.369 . S
C396 C405 1.429 . S
C397 C395 1.419 . S
C397 C398 1.363 . S
C397 H400 0.929 . S
C398 C397 1.363 . S
C398 C404 1.428 . S
H399 C395 0.930 . S
H400 C397 0.929 . S
S401 N402 1.613 . S
S401 N403 1.610 . S
N402 S401 1.613 . S
N402 C405 1.350 . S
N403 S401 1.610 . S
N403 C404 1.351 . S
C404 C398 1.428 . S
C404 N403 1.351 . S
C404 C405 1.434 . S
C405 C396 1.429 . S
C405 N402 1.350 . S
C405 C404 1.434 . S
C406 C407 1.369 . S
C406 C408 1.419 . S
C406 H410 0.930 . S
C407 C406 1.369 . S
C407 C416 1.429 . S
C408 C406 1.419 . S
C408 C409 1.363 . S
C408 H411 0.929 . S
C409 C408 1.363 . S
C409 C415 1.428 . S
H410 C406 0.930 . S
H411 C408 0.929 . S
S412 N413 1.613 . S
S412 N414 1.610 . S
N413 S412 1.613 . S
N413 C416 1.350 . S
N414 S412 1.610 . S
N414 C415 1.351 . S
C415 C409 1.428 . S
C415 N414 1.351 . S
C415 C416 1.434 . S
C416 C407 1.429 . S
C416 N413 1.350 . S
C416 C415 1.434 . S
C417 C418 1.370 . S
C417 C419 1.419 . S
C417 H421 0.930 . S
C418 C417 1.370 . S
C418 C427 1.422 1_455 S
C419 C417 1.419 . S
C419 C420 1.363 . S
C419 H422 0.929 . S
C420 C419 1.363 . S
C420 C426 1.428 1_455 S
H421 C417 0.930 . S
H422 C419 0.929 . S
S423 N424 1.613 . S
S423 N425 1.610 . S
N424 S423 1.613 . S
N424 C427 1.350 . S
N425 S423 1.610 . S
N425 C426 1.351 . S
C426 C420 1.428 1_655 S
C426 N425 1.351 . S
C426 C427 1.434 . S
C427 C418 1.422 1_655 S
C427 N424 1.350 . S
C427 C426 1.434 . S
C428 C429 1.369 . S
C428 C430 1.419 . S
C428 H432 0.930 . S
C429 C428 1.369 . S
C429 C438 1.429 . S
C430 C428 1.419 . S
C430 C431 1.363 . S
C430 H433 0.929 . S
C431 C430 1.363 . S
C431 C437 1.428 . S
H432 C428 0.930 . S
H433 C430 0.929 . S
S434 N435 1.613 . S
S434 N436 1.610 . S
N435 S434 1.613 . S
N435 C438 1.350 . S
N436 S434 1.610 . S
N436 C437 1.351 . S
C437 C431 1.428 . S
C437 N436 1.351 . S
C437 C438 1.434 . S
C438 C429 1.429 . S
C438 N435 1.350 . S
C438 C437 1.434 . S
C439 C440 1.368 . S
C439 C441 1.419 . S
C439 H443 0.930 . S
C440 C439 1.368 . S
C440 C449 1.427 1_565 S
C441 C439 1.419 . S
C441 C442 1.370 . S
C441 H444 0.929 . S
C442 C441 1.370 . S
C442 C448 1.432 1_565 S
H443 C439 0.930 . S
H444 C441 0.929 . S
S445 N446 1.613 . S
S445 N447 1.610 . S
N446 S445 1.613 . S
N446 C449 1.350 . S
N447 S445 1.610 . S
N447 C448 1.351 . S
C448 C442 1.432 1_545 S
C448 N447 1.351 . S
C448 C449 1.434 . S
C449 C440 1.427 1_545 S
C449 N446 1.350 . S
C449 C448 1.434 . S
C450 C451 1.369 . S
C450 C452 1.430 . S
C450 H454 0.930 . S
C451 C450 1.369 . S
C451 C460 1.429 . S
C452 C450 1.430 . S
C452 C453 1.361 1_554 S
C452 H455 0.920 1_554 S
C453 C452 1.361 1_556 S
C453 C459 1.428 1_556 S
H454 C450 0.930 . S
H455 C452 0.920 1_556 S
S456 N457 1.613 . S
S456 N458 1.610 . S
N457 S456 1.613 . S
N457 C460 1.350 . S
N458 S456 1.610 . S
N458 C459 1.351 . S
C459 C453 1.428 1_554 S
C459 N458 1.351 . S
C459 C460 1.434 . S
C460 C451 1.429 . S
C460 N457 1.350 . S
C460 C459 1.434 . S
C461 C462 1.369 1_556 S
C461 C463 1.419 . S
C461 H465 0.930 . S
C462 C461 1.369 1_554 S
C462 C471 1.429 . S
C463 C461 1.419 . S
C463 C464 1.363 . S
C463 H466 0.929 . S
C464 C463 1.363 . S
C464 C470 1.428 1_556 S
H465 C461 0.930 . S
H466 C463 0.929 . S
S467 N468 1.613 . S
S467 N469 1.610 . S
N468 S467 1.613 . S
N468 C471 1.350 . S
N469 S467 1.610 . S
N469 C470 1.351 . S
C470 C464 1.428 1_554 S
C470 N469 1.351 . S
C470 C471 1.434 . S
C471 C462 1.429 . S
C471 N468 1.350 . S
C471 C470 1.434 . S
C472 C473 1.369 . S
C472 C474 1.419 1_554 S
C472 H476 0.930 1_554 S
C473 C472 1.369 . S
C473 C482 1.429 . S
C474 C472 1.419 1_556 S
C474 C475 1.363 . S
C474 H477 0.929 . S
C475 C474 1.363 . S
C475 C481 1.428 1_556 S
H476 C472 0.930 1_556 S
H477 C474 0.929 . S
S478 N479 1.613 . S
S478 N480 1.610 . S
N479 S478 1.613 . S
N479 C482 1.350 . S
N480 S478 1.610 . S
N480 C481 1.351 . S
C481 C475 1.428 1_554 S
C481 N480 1.351 . S
C481 C482 1.434 . S
C482 C473 1.429 . S
C482 N479 1.350 . S
C482 C481 1.434 . S
C483 C484 1.369 . S
C483 C485 1.419 . S
C483 H487 0.930 . S
C484 C483 1.369 . S
C484 C493 1.429 . S
C485 C483 1.419 . S
C485 C486 1.363 1_556 S
C485 H488 0.929 . S
C486 C485 1.363 1_554 S
C486 C492 1.428 . S
H487 C483 0.930 . S
H488 C485 0.929 . S
S489 N490 1.613 . S
S489 N491 1.610 . S
N490 S489 1.613 . S
N490 C493 1.350 1_554 S
N491 S489 1.610 . S
N491 C492 1.351 . S
C492 C486 1.428 . S
C492 N491 1.351 . S
C492 C493 1.434 1_554 S
C493 C484 1.429 . S
C493 N490 1.350 1_556 S
C493 C492 1.434 1_556 S
C494 C495 1.369 . S
C494 C496 1.419 1_554 S
C494 H498 0.930 . S
C495 C494 1.369 . S
C495 C504 1.429 1_554 S
C496 C494 1.419 1_556 S
C496 C497 1.363 . S
C496 H499 0.929 . S
C497 C496 1.363 . S
C497 C503 1.428 . S
H498 C494 0.930 . S
H499 C496 0.929 . S
S500 N501 1.613 . S
S500 N502 1.610 . S
N501 S500 1.613 . S
N501 C504 1.350 . S
N502 S500 1.610 . S
N502 C503 1.351 . S
C503 C497 1.428 . S
C503 N502 1.351 . S
C503 C504 1.434 . S
C504 C495 1.429 1_556 S
C504 N501 1.350 . S
C504 C503 1.434 . S
C505 C506 1.369 . S
C505 C507 1.419 1_556 S
C505 H509 0.930 . S
C506 C505 1.369 . S
C506 C515 1.429 . S
C507 C505 1.419 1_554 S
C507 C508 1.363 . S
C507 H510 0.929 . S
C508 C507 1.363 . S
C508 C514 1.428 1_554 S
H509 C505 0.930 . S
H510 C507 0.929 . S
S511 N512 1.613 . S
S511 N513 1.610 . S
N512 S511 1.613 . S
N512 C515 1.350 . S
N513 S511 1.610 . S
N513 C514 1.351 . S
C514 C508 1.428 1_556 S
C514 N513 1.351 . S
C514 C515 1.434 . S
C515 C506 1.429 . S
C515 N512 1.350 . S
C515 C514 1.434 . S
C516 C517 1.369 . S
C516 C518 1.419 . S
C516 H520 0.930 . S
C517 C516 1.369 . S
C517 C526 1.429 . S
C518 C516 1.419 . S
C518 C519 1.363 . S
C518 H521 0.929 . S
C519 C518 1.363 . S
C519 C525 1.428 . S
H520 C516 0.930 . S
H521 C518 0.929 . S
S522 N523 1.613 . S
S522 N524 1.610 . S
N523 S522 1.613 . S
N523 C526 1.350 . S
N524 S522 1.610 . S
N524 C525 1.351 . S
C525 C519 1.428 . S
C525 N524 1.351 . S
C525 C526 1.434 . S
C526 C517 1.429 . S
C526 N523 1.350 . S
C526 C525 1.434 . S
C527 C528 1.369 . S
C527 C529 1.419 . S
C527 H531 0.930 . S
C528 C527 1.369 . S
C528 C537 1.429 . S
C529 C527 1.419 . S
C529 C530 1.363 . S
C529 H532 0.929 . S
C530 C529 1.363 . S
C530 C536 1.428 . S
H531 C527 0.930 . S
H532 C529 0.929 . S
S533 N534 1.613 . S
S533 N535 1.610 . S
N534 S533 1.613 . S
N534 C537 1.350 . S
N535 S533 1.610 . S
N535 C536 1.351 . S
C536 C530 1.428 . S
C536 N535 1.351 . S
C536 C537 1.434 . S
C537 C528 1.429 . S
C537 N534 1.350 . S
C537 C536 1.434 . S
C538 C539 1.369 . S
C538 C540 1.419 . S
C538 H542 0.930 . S
C539 C538 1.369 . S
C539 C548 1.429 . S
C540 C538 1.419 . S
C540 C541 1.363 . S
C540 H543 0.929 . S
C541 C540 1.363 . S
C541 C547 1.428 . S
H542 C538 0.930 . S
H543 C540 0.929 . S
S544 N545 1.613 . S
S544 N546 1.610 . S
N545 S544 1.613 . S
N545 C548 1.350 . S
N546 S544 1.610 . S
N546 C547 1.351 . S
C547 C541 1.428 . S
C547 N546 1.351 . S
C547 C548 1.434 . S
C548 C539 1.429 . S
C548 N545 1.350 . S
C548 C547 1.434 . S
C549 C550 1.369 . S
C549 C551 1.419 . S
C549 H553 0.930 . S
C550 C549 1.369 . S
C550 C559 1.429 . S
C551 C549 1.419 . S
C551 C552 1.363 . S
C551 H554 0.929 . S
C552 C551 1.363 . S
C552 C558 1.428 . S
H553 C549 0.930 . S
H554 C551 0.929 . S
S555 N556 1.613 . S
S555 N557 1.610 . S
N556 S555 1.613 . S
N556 C559 1.350 . S
N557 S555 1.610 . S
N557 C558 1.351 . S
C558 C552 1.428 . S
C558 N557 1.351 . S
C558 C559 1.434 . S
C559 C550 1.429 . S
C559 N556 1.350 . S
C559 C558 1.434 . S
C560 C561 1.369 . S
C560 C562 1.419 . S
C560 H564 0.930 . S
C561 C560 1.369 . S
C561 C570 1.429 1_545 S
C562 C560 1.419 . S
C562 C563 1.363 . S
C562 H565 0.929 . S
C563 C562 1.363 . S
C563 C569 1.428 1_545 S
H564 C560 0.930 . S
H565 C562 0.929 . S
S566 N567 1.613 . S
S566 N568 1.610 . S
N567 S566 1.613 . S
N567 C570 1.350 . S
N568 S566 1.610 . S
N568 C569 1.351 . S
C569 C563 1.428 1_565 S
C569 N568 1.351 . S
C569 C570 1.434 . S
C570 C561 1.429 1_565 S
C570 N567 1.350 . S
C570 C569 1.434 . S
C571 C572 1.369 . S
C571 C573 1.419 . S
C571 H575 0.930 . S
C572 C571 1.369 . S
C572 C581 1.429 . S
C573 C571 1.419 . S
C573 C574 1.363 . S
C573 H576 0.929 . S
C574 C573 1.363 . S
C574 C580 1.428 . S
H575 C571 0.930 . S
H576 C573 0.929 . S
S577 N578 1.613 . S
S577 N579 1.610 . S
N578 S577 1.613 . S
N578 C581 1.350 . S
N579 S577 1.610 . S
N579 C580 1.351 . S
C580 C574 1.428 . S
C580 N579 1.351 . S
C580 C581 1.434 . S
C581 C572 1.429 . S
C581 N578 1.350 . S
C581 C580 1.434 . S
C582 C583 1.369 . S
C582 C584 1.419 . S
C582 H586 0.930 . S
C583 C582 1.369 . S
C583 C592 1.429 . S
C584 C582 1.419 . S
C584 C585 1.363 . S
C584 H587 0.929 . S
C585 C584 1.363 . S
C585 C591 1.428 . S
H586 C582 0.930 . S
H587 C584 0.929 . S
S588 N589 1.613 . S
S588 N590 1.610 . S
N589 S588 1.613 . S
N589 C592 1.350 . S
N590 S588 1.610 . S
N590 C591 1.351 . S
C591 C585 1.428 . S
C591 N590 1.351 . S
C591 C592 1.434 . S
C592 C583 1.429 . S
C592 N589 1.350 . S
C592 C591 1.434 . S
C593 C594 1.369 . S
C593 C595 1.419 . S
C593 H597 0.930 . S
C594 C593 1.369 . S
C594 C603 1.429 1_565 S
C595 C593 1.419 . S
C595 C596 1.363 . S
C595 H598 0.929 . S
C596 C595 1.363 . S
C596 C602 1.428 . S
H597 C593 0.930 . S
H598 C595 0.929 . S
S599 N600 1.613 . S
S599 N601 1.613 . S
N600 S599 1.613 . S
N600 C603 1.350 . S
N601 S599 1.613 . S
N601 C602 1.344 1_545 S
C602 C596 1.428 . S
C602 N601 1.344 1_565 S
C602 C603 1.434 1_565 S
C603 C594 1.429 1_545 S
C603 N600 1.350 . S
C603 C602 1.434 1_545 S
C604 C605 1.369 1_655 S
C604 C606 1.419 . S
C604 H608 0.930 . S
C605 C604 1.369 1_455 S
C605 C614 1.429 . S
C606 C604 1.419 . S
C606 C607 1.363 1_655 S
C606 H609 0.929 . S
C607 C606 1.363 1_455 S
C607 C613 1.428 . S
H608 C604 0.930 . S
H609 C606 0.929 . S
S610 N611 1.613 . S
S610 N612 1.610 . S
N611 S610 1.613 . S
N611 C614 1.350 . S
N612 S610 1.610 . S
N612 C613 1.351 . S
C613 C607 1.428 . S
C613 N612 1.351 . S
C613 C614 1.434 . S
C614 C605 1.429 . S
C614 N611 1.350 . S
C614 C613 1.434 . S
C615 C616 1.369 . S
C615 C617 1.419 . S
C615 H619 0.930 . S
C616 C615 1.369 . S
C616 C625 1.429 . S
C617 C615 1.419 . S
C617 C618 1.363 . S
C617 H620 0.929 . S
C618 C617 1.363 . S
C618 C624 1.428 . S
H619 C615 0.930 . S
H620 C617 0.929 . S
S621 N622 1.613 . S
S621 N623 1.610 . S
N622 S621 1.613 . S
N622 C625 1.350 . S
N623 S621 1.610 . S
N623 C624 1.351 . S
C624 C618 1.428 . S
C624 N623 1.351 . S
C624 C625 1.434 . S
C625 C616 1.429 . S
C625 N622 1.350 . S
C625 C624 1.434 . S
C626 C627 1.369 . S
C626 C628 1.419 . S
C626 H630 0.930 . S
C627 C626 1.369 . S
C627 C636 1.429 . S
C628 C626 1.419 . S
C628 C629 1.363 . S
C628 H631 0.929 . S
C629 C628 1.363 . S
C629 C635 1.428 . S
H630 C626 0.930 . S
H631 C628 0.929 . S
S632 N633 1.613 . S
S632 N634 1.610 . S
N633 S632 1.613 . S
N633 C636 1.350 . S
N634 S632 1.610 . S
N634 C635 1.351 . S
C635 C629 1.428 . S
C635 N634 1.351 . S
C635 C636 1.434 . S
C636 C627 1.429 . S
C636 N633 1.350 . S
C636 C635 1.434 . S
C637 C638 1.369 . S
C637 C639 1.419 . S
C637 H641 0.930 . S
C638 C637 1.369 . S
C638 C647 1.429 . S
C639 C637 1.419 . S
C639 C640 1.363 . S
C639 H642 0.929 . S
C640 C639 1.363 . S
C640 C646 1.428 . S
H641 C637 0.930 . S
H642 C639 0.929 . S
S643 N644 1.613 . S
S643 N645 1.610 . S
N644 S643 1.613 . S
N644 C647 1.350 . S
N645 S643 1.610 . S
N645 C646 1.351 . S
C646 C640 1.428 . S
C646 N645 1.351 . S
C646 C647 1.434 . S
C647 C638 1.429 . S
C647 N644 1.350 . S
C647 C646 1.434 . S
C253 C11 1.497 . S
C255 C47 1.419 1_545 S
C264 C25 1.613 . S
C266 C61 1.507 1_655 S
C275 C81 1.545 . S
C277 C39 1.546 . S
C286 C95 1.462 . S
C288 C131 1.406 . S
C297 C109 1.591 . S
C299 C145 1.485 . S
C308 C165 1.494 . S
C310 C123 1.494 . S
C319 C215 1.407 . S
C321 C179 1.461 . S
C330 C229 1.476 . S
C332 C193 1.594 . S
C341 C249 1.487 . S
C343 C207 1.495 . S
C352 C5 1.825 . S
C354 C137 1.672 . S
C363 C19 1.859 . S
C365 C151 1.713 . S
C374 C159 1.883 . S
C376 C33 1.876 . S
C385 C53 1.682 . S
C387 C173 1.831 . S
C396 C67 1.721 . S
C398 C187 1.870 . S
C407 C75 1.880 . S
C409 C201 1.880 . S
C418 C89 1.841 1_455 S
C420 C221 1.661 . S
C429 C103 1.931 . S
C431 C235 1.772 . S
C440 C243 1.778 . S
C442 C117 1.765 . S
C451 C12 0.905 . S
C453 C68 0.920 . S
C462 C26 0.937 . S
C464 C74 0.925 . S
C473 C40 0.902 . S
C475 C54 0.908 . S
C484 C46 0.802 . S
C486 C18 0.811 . S
C495 C32 0.824 . S
C497 C60 0.830 . S
C506 C82 0.853 . S
C508 C4 0.840 . S
C517 C96 0.981 . S
C519 C152 0.987 . S
C528 C158 0.948 . S
C530 C110 0.949 . S
C539 C138 0.949 . S
C541 C124 0.949 . S
C550 C102 0.806 . S
C552 C130 0.806 . S
C561 C144 0.866 . S
C563 C116 0.854 . S
C572 C166 0.841 . S
C574 C88 0.821 . S
C583 C236 0.914 . S
C585 C180 0.907 . S
C594 C242 0.962 . S
C596 C194 0.963 . S
C605 C208 0.880 . S
C607 C222 0.883 . S
C616 C186 0.888 . S
C618 C214 0.883 . S
C627 C200 0.852 . S
C629 C228 0.863 . S
C638 C172 0.860 . S
C640 C250 0.866 . S
