# Generated by pormake.
# Topology lcy-a, (4)-cn, num edge types: 1
# Building blocks:
#     Node 0, Type 0, BuildingBlock: AZAVOO_clean_sbu_0, # of connection points: 4
#     Node 1, Type 0, BuildingBlock: AZAVOO_clean_sbu_0, # of connection points: 4
#     Node 2, Type 0, BuildingBlock: AZAVOO_clean_sbu_0, # of connection points: 4
#     Node 3, Type 0, BuildingBlock: AZAVOO_clean_sbu_0, # of connection points: 4
#     Node 4, Type 0, BuildingBlock: AZAVOO_clean_sbu_0, # of connection points: 4
#     Node 5, Type 0, BuildingBlock: AZAVOO_clean_sbu_0, # of connection points: 4
#     Node 6, Type 0, BuildingBlock: AZAVOO_clean_sbu_0, # of connection points: 4
#     Node 7, Type 0, BuildingBlock: AZAVOO_clean_sbu_0, # of connection points: 4
#     Node 8, Type 0, BuildingBlock: AZAVOO_clean_sbu_0, # of connection points: 4
#     Node 9, Type 0, BuildingBlock: AZAVOO_clean_sbu_0, # of connection points: 4
#     Node 10, Type 0, BuildingBlock: AZAVOO_clean_sbu_0, # of connection points: 4
#     Node 11, Type 0, BuildingBlock: AZAVOO_clean_sbu_0, # of connection points: 4
#     Node 12, Type 0, BuildingBlock: AZAVOO_clean_sbu_0, # of connection points: 4
#     Node 13, Type 0, BuildingBlock: AZAVOO_clean_sbu_0, # of connection points: 4
#     Node 14, Type 0, BuildingBlock: AZAVOO_clean_sbu_0, # of connection points: 4
#     Node 15, Type 0, BuildingBlock: AZAVOO_clean_sbu_0, # of connection points: 4
#     Node 16, Type 0, BuildingBlock: AZAVOO_clean_sbu_0, # of connection points: 4
#     Node 17, Type 0, BuildingBlock: AZAVOO_clean_sbu_0, # of connection points: 4
#     Node 18, Type 0, BuildingBlock: AZAVOO_clean_sbu_0, # of connection points: 4
#     Node 19, Type 0, BuildingBlock: AZAVOO_clean_sbu_0, # of connection points: 4
#     Node 20, Type 0, BuildingBlock: AZAVOO_clean_sbu_0, # of connection points: 4
#     Node 21, Type 0, BuildingBlock: AZAVOO_clean_sbu_0, # of connection points: 4
#     Node 22, Type 0, BuildingBlock: AZAVOO_clean_sbu_0, # of connection points: 4
#     Node 23, Type 0, BuildingBlock: AZAVOO_clean_sbu_0, # of connection points: 4
#     Edge 24, Type (0, 0), BuildingBlock: XIVTED_clean_linker_0, # of connection points: 2
#     Edge 25, Type (0, 0), BuildingBlock: XIVTED_clean_linker_0, # of connection points: 2
#     Edge 26, Type (0, 0), BuildingBlock: XIVTED_clean_linker_0, # of connection points: 2
#     Edge 27, Type (0, 0), BuildingBlock: XIVTED_clean_linker_0, # of connection points: 2
#     Edge 28, Type (0, 0), BuildingBlock: XIVTED_clean_linker_0, # of connection points: 2
#     Edge 29, Type (0, 0), BuildingBlock: XIVTED_clean_linker_0, # of connection points: 2
#     Edge 30, Type (0, 0), BuildingBlock: XIVTED_clean_linker_0, # of connection points: 2
#     Edge 31, Type (0, 0), BuildingBlock: XIVTED_clean_linker_0, # of connection points: 2
#     Edge 32, Type (0, 0), BuildingBlock: XIVTED_clean_linker_0, # of connection points: 2
#     Edge 33, Type (0, 0), BuildingBlock: XIVTED_clean_linker_0, # of connection points: 2
#     Edge 34, Type (0, 0), BuildingBlock: XIVTED_clean_linker_0, # of connection points: 2
#     Edge 35, Type (0, 0), BuildingBlock: XIVTED_clean_linker_0, # of connection points: 2
#     Edge 36, Type (0, 0), BuildingBlock: XIVTED_clean_linker_0, # of connection points: 2
#     Edge 37, Type (0, 0), BuildingBlock: XIVTED_clean_linker_0, # of connection points: 2
#     Edge 38, Type (0, 0), BuildingBlock: XIVTED_clean_linker_0, # of connection points: 2
#     Edge 39, Type (0, 0), BuildingBlock: XIVTED_clean_linker_0, # of connection points: 2
#     Edge 40, Type (0, 0), BuildingBlock: XIVTED_clean_linker_0, # of connection points: 2
#     Edge 41, Type (0, 0), BuildingBlock: XIVTED_clean_linker_0, # of connection points: 2
#     Edge 42, Type (0, 0), BuildingBlock: XIVTED_clean_linker_0, # of connection points: 2
#     Edge 43, Type (0, 0), BuildingBlock: XIVTED_clean_linker_0, # of connection points: 2
#     Edge 44, Type (0, 0), BuildingBlock: XIVTED_clean_linker_0, # of connection points: 2
#     Edge 45, Type (0, 0), BuildingBlock: XIVTED_clean_linker_0, # of connection points: 2
#     Edge 46, Type (0, 0), BuildingBlock: XIVTED_clean_linker_0, # of connection points: 2
#     Edge 47, Type (0, 0), BuildingBlock: XIVTED_clean_linker_0, # of connection points: 2
#     Edge 48, Type (0, 0), BuildingBlock: XIVTED_clean_linker_0, # of connection points: 2
#     Edge 49, Type (0, 0), BuildingBlock: XIVTED_clean_linker_0, # of connection points: 2
#     Edge 50, Type (0, 0), BuildingBlock: XIVTED_clean_linker_0, # of connection points: 2
#     Edge 51, Type (0, 0), BuildingBlock: XIVTED_clean_linker_0, # of connection points: 2
#     Edge 52, Type (0, 0), BuildingBlock: XIVTED_clean_linker_0, # of connection points: 2
#     Edge 53, Type (0, 0), BuildingBlock: XIVTED_clean_linker_0, # of connection points: 2
#     Edge 54, Type (0, 0), BuildingBlock: XIVTED_clean_linker_0, # of connection points: 2
#     Edge 55, Type (0, 0), BuildingBlock: XIVTED_clean_linker_0, # of connection points: 2
#     Edge 56, Type (0, 0), BuildingBlock: XIVTED_clean_linker_0, # of connection points: 2
#     Edge 57, Type (0, 0), BuildingBlock: XIVTED_clean_linker_0, # of connection points: 2
#     Edge 58, Type (0, 0), BuildingBlock: XIVTED_clean_linker_0, # of connection points: 2
#     Edge 59, Type (0, 0), BuildingBlock: XIVTED_clean_linker_0, # of connection points: 2
#     Edge 60, Type (0, 0), BuildingBlock: XIVTED_clean_linker_0, # of connection points: 2
#     Edge 61, Type (0, 0), BuildingBlock: XIVTED_clean_linker_0, # of connection points: 2
#     Edge 62, Type (0, 0), BuildingBlock: XIVTED_clean_linker_0, # of connection points: 2
#     Edge 63, Type (0, 0), BuildingBlock: XIVTED_clean_linker_0, # of connection points: 2
#     Edge 64, Type (0, 0), BuildingBlock: XIVTED_clean_linker_0, # of connection points: 2
#     Edge 65, Type (0, 0), BuildingBlock: XIVTED_clean_linker_0, # of connection points: 2
#     Edge 66, Type (0, 0), BuildingBlock: XIVTED_clean_linker_0, # of connection points: 2
#     Edge 67, Type (0, 0), BuildingBlock: XIVTED_clean_linker_0, # of connection points: 2
#     Edge 68, Type (0, 0), BuildingBlock: XIVTED_clean_linker_0, # of connection points: 2
#     Edge 69, Type (0, 0), BuildingBlock: XIVTED_clean_linker_0, # of connection points: 2
#     Edge 70, Type (0, 0), BuildingBlock: XIVTED_clean_linker_0, # of connection points: 2
#     Edge 71, Type (0, 0), BuildingBlock: XIVTED_clean_linker_0, # of connection points: 2
# Relax obj value: 0.406
# Max RMSD: 0.240
# Mean RMSD: 0.240
data_MOF--net-lcy-a--node1-AZAVOO_clean_sbu_0--edge1-XIVTED_clean_linker_0
_symmetry_space_group_name_H-M    P1
_symmetry_Int_Tables_number       1
_symmetry_cell_setting            triclinic
loop_
_symmetry_equiv_pos_as_xyz
'x, y, z'
_cell_length_a     55.612459
_cell_length_b     55.60901
_cell_length_c     55.614761
_cell_angle_alpha  89.997025
_cell_angle_beta   90.020367
_cell_angle_gamma 89.999245
loop_
_atom_site_label
_atom_site_type_symbol
_atom_site_fract_x
_atom_site_fract_y
_atom_site_fract_z
_atom_type_partial_charge
Mg0 Mg 0.17844 0.33036 0.39293 0.0
O1 O 0.2119 0.3084 0.3843 0.0
O2 O 0.2392 0.33172 0.36627 0.0
Mg3 Mg 0.22456 0.37037 0.36851 0.0
C4 C 0.23201 0.3112 0.37369 0.0
C5 C 0.14379 0.29087 0.41558 0.0
O6 O 0.12718 0.30181 0.40283 0.0
O7 O 0.1968 0.34539 0.42633 0.0
O8 O 0.22441 0.36956 0.40988 0.0
O9 O 0.16781 0.3236 0.35472 0.0
O10 O 0.1879 0.3557 0.36689 0.0
C11 C 0.21407 0.36038 0.42822 0.0
C12 C 0.18031 0.34254 0.34948 0.0
O13 O 0.16533 0.29839 0.41476 0.0
Mg14 Mg 0.92647 0.92146 0.63412 0.0
O15 O 0.95123 0.95166 0.62075 0.0
O16 O 0.93111 0.97385 0.59391 0.0
Mg17 Mg 0.89207 0.96077 0.59403 0.0
C18 C 0.95036 0.96865 0.60532 0.0
C19 C 0.97556 0.90496 0.65758 0.0
O20 O 0.98204 0.90315 0.63494 0.0
O21 O 0.90824 0.94778 0.66019 0.0
O22 O 0.88889 0.97087 0.63366 0.0
O23 O 0.93703 0.90175 0.60035 0.0
O24 O 0.90491 0.92486 0.60369 0.0
C25 C 0.89469 0.96568 0.65525 0.0
C26 C 0.91929 0.9129 0.59019 0.0
O27 O 0.95436 0.91187 0.66262 0.0
Mg28 Mg 0.32799 0.66983 0.89182 0.0
O29 O 0.29581 0.69415 0.88356 0.0
O30 O 0.26771 0.67215 0.86501 0.0
Mg31 Mg 0.27998 0.63271 0.86623 0.0
C32 C 0.2757 0.69229 0.87267 0.0
C33 C 0.34627 0.7215 0.90761 0.0
O34 O 0.33908 0.72733 0.88587 0.0
O35 O 0.30865 0.655 0.92489 0.0
O36 O 0.28034 0.63228 0.90754 0.0
O37 O 0.33926 0.67662 0.85369 0.0
O38 O 0.31713 0.64568 0.8652 0.0
C39 C 0.29088 0.64052 0.92621 0.0
C40 C 0.32574 0.6585 0.84806 0.0
O41 O 0.34428 0.69983 0.91462 0.0
Mg42 Mg 0.5719 0.0686 0.13311 0.0
O43 O 0.54379 0.04202 0.11826 0.0
O44 O 0.56211 0.01732 0.09235 0.0
Mg45 Mg 0.60247 0.02474 0.09492 0.0
C46 C 0.54316 0.02512 0.1027 0.0
C47 C 0.52459 0.09153 0.15576 0.0
O48 O 0.51858 0.09516 0.13321 0.0
O49 O 0.58519 0.04033 0.15987 0.0
O50 O 0.60176 0.01385 0.13461 0.0
O51 O 0.56584 0.08966 0.09913 0.0
O52 O 0.59423 0.06224 0.10392 0.0
C53 C 0.59574 0.02035 0.15579 0.0
C54 C 0.58244 0.07622 0.08985 0.0
O55 O 0.54457 0.08158 0.16062 0.0
Mg56 Mg 0.67474 0.17015 0.61997 0.0
O57 O 0.7028 0.19761 0.63298 0.0
O58 O 0.72788 0.17971 0.6588 0.0
Mg59 Mg 0.71929 0.1395 0.65757 0.0
C60 C 0.72025 0.19842 0.6479 0.0
C61 C 0.65508 0.21908 0.59959 0.0
O62 O 0.65687 0.22504 0.62238 0.0
O63 O 0.70171 0.15554 0.59228 0.0
O64 O 0.72842 0.13923 0.61752 0.0
O65 O 0.65533 0.17751 0.65466 0.0
O66 O 0.68175 0.14827 0.64957 0.0
C67 C 0.72158 0.14472 0.5963 0.0
C68 C 0.66871 0.16082 0.66388 0.0
O69 O 0.66094 0.19795 0.5931 0.0
Mg70 Mg 0.07335 0.4295 0.85757 0.0
O71 O 0.04993 0.46184 0.86739 0.0
O72 O 0.07367 0.49142 0.88073 0.0
Mg73 Mg 0.1128 0.47917 0.87564 0.0
C74 C 0.05285 0.48276 0.87633 0.0
C75 C 0.04339 0.39942 0.82166 0.0
O76 O 0.06529 0.39625 0.81337 0.0
O77 O 0.08327 0.44746 0.82175 0.0
O78 O 0.10816 0.47628 0.83491 0.0
O79 O 0.07288 0.41971 0.89697 0.0
O80 O 0.10085 0.4419 0.87968 0.0
C81 C 0.09764 0.46497 0.81795 0.0
C82 C 0.09149 0.43356 0.89904 0.0
O83 O 0.04044 0.41203 0.84048 0.0
Mg84 Mg 0.81906 0.82256 0.11519 0.0
O85 O 0.78694 0.79923 0.12553 0.0
O86 O 0.7611 0.82113 0.14713 0.0
Mg87 Mg 0.775 0.86008 0.1464 0.0
C88 C 0.76782 0.80113 0.13804 0.0
C89 C 0.85295 0.78969 0.08412 0.0
O90 O 0.86928 0.80457 0.09249 0.0
O91 O 0.79735 0.83942 0.08466 0.0
O92 O 0.77149 0.86235 0.10524 0.0
O93 O 0.8335 0.8136 0.15166 0.0
O94 O 0.81177 0.84594 0.14361 0.0
C95 C 0.78004 0.85449 0.08543 0.0
C96 C 0.82119 0.83184 0.15932 0.0
O97 O 0.83115 0.7924 0.09037 0.0
Mg98 Mg 0.42881 0.57169 0.37013 0.0
O99 O 0.45307 0.5398 0.37945 0.0
O100 O 0.43008 0.50967 0.39289 0.0
Mg101 Mg 0.39063 0.5212 0.38853 0.0
C102 C 0.45066 0.51875 0.38825 0.0
C103 C 0.45611 0.60287 0.33381 0.0
O104 O 0.43355 0.60588 0.32742 0.0
O105 O 0.4188 0.55352 0.33453 0.0
O106 O 0.39458 0.52415 0.34769 0.0
O107 O 0.42962 0.58145 0.4096 0.0
O108 O 0.40197 0.55866 0.39257 0.0
C109 C 0.40477 0.53576 0.33072 0.0
C110 C 0.41131 0.56722 0.41184 0.0
O111 O 0.46074 0.58993 0.35206 0.0
Mg112 Mg 0.38375 0.17401 0.32279 0.0
O113 O 0.3751 0.2074 0.30052 0.0
O114 O 0.35869 0.23525 0.32442 0.0
Mg115 Mg 0.36124 0.22091 0.36313 0.0
C116 C 0.36516 0.22782 0.30366 0.0
C117 C 0.42174 0.14511 0.29404 0.0
O118 O 0.42775 0.13959 0.31622 0.0
O119 O 0.41805 0.19208 0.33654 0.0
O120 O 0.40244 0.21959 0.36142 0.0
O121 O 0.34512 0.16391 0.31752 0.0
O122 O 0.35881 0.1843 0.3488 0.0
C123 C 0.42043 0.20912 0.35174 0.0
C124 C 0.34081 0.17674 0.33647 0.0
O125 O 0.40386 0.15888 0.29052 0.0
Mg126 Mg 0.07004 0.1311 0.56839 0.0
O127 O 0.04014 0.11735 0.54392 0.0
O128 O 0.01466 0.09486 0.56531 0.0
Mg129 Mg 0.02662 0.09781 0.60485 0.0
C130 C 0.02181 0.10365 0.54533 0.0
C131 C 0.10357 0.16148 0.53462 0.0
O132 O 0.12016 0.15237 0.54877 0.0
O133 O 0.0451 0.16033 0.5829 0.0
O134 O 0.01996 0.1386 0.60562 0.0
O135 O 0.08782 0.0955 0.56192 0.0
O136 O 0.06378 0.10324 0.59262 0.0
C137 C 0.0273 0.15871 0.5973 0.0
C138 C 0.07535 0.08775 0.58 0.0
O139 O 0.08171 0.15584 0.53801 0.0
Mg140 Mg 0.12402 0.82817 0.82078 0.0
O141 O 0.13359 0.79551 0.79775 0.0
O142 O 0.15026 0.76745 0.82124 0.0
Mg143 Mg 0.14716 0.78077 0.86026 0.0
C144 C 0.14389 0.7752 0.80057 0.0
C145 C 0.08434 0.85562 0.79304 0.0
O146 O 0.07777 0.85915 0.81546 0.0
O147 O 0.0901 0.80896 0.83381 0.0
O148 O 0.10594 0.78116 0.85824 0.0
O149 O 0.16255 0.83923 0.81625 0.0
O150 O 0.14895 0.81775 0.8468 0.0
C151 C 0.08787 0.79151 0.84855 0.0
C152 C 0.16693 0.82607 0.83497 0.0
O153 O 0.1034 0.84372 0.78888 0.0
Mg154 Mg 0.41828 0.87193 0.07143 0.0
O155 O 0.45013 0.88305 0.04768 0.0
O156 O 0.47301 0.90912 0.06801 0.0
Mg157 Mg 0.4584 0.91069 0.1065 0.0
C158 C 0.46791 0.89753 0.04884 0.0
C159 C 0.40411 0.84914 0.02166 0.0
O160 O 0.40632 0.87168 0.0149 0.0
O161 O 0.44238 0.84482 0.09132 0.0
O162 O 0.46578 0.8706 0.11134 0.0
O163 O 0.40085 0.90644 0.05943 0.0
O164 O 0.42254 0.90268 0.09248 0.0
C165 C 0.45969 0.84916 0.10583 0.0
C166 C 0.41186 0.91644 0.07735 0.0
O167 O 0.40794 0.84364 0.04353 0.0
Mg168 Mg 0.87993 0.3227 0.67374 0.0
O169 O 0.86944 0.293 0.70023 0.0
O170 O 0.84564 0.26681 0.68114 0.0
Mg171 Mg 0.84451 0.27779 0.64131 0.0
C172 C 0.85599 0.2744 0.7002 0.0
C173 C 0.90414 0.34219 0.72208 0.0
O174 O 0.88214 0.34151 0.73067 0.0
O175 O 0.90813 0.29808 0.65698 0.0
O176 O 0.88521 0.27175 0.63697 0.0
O177 O 0.84468 0.33984 0.68337 0.0
O178 O 0.85 0.31519 0.65263 0.0
C179 C 0.90577 0.27981 0.64329 0.0
C180 C 0.83553 0.32671 0.66644 0.0
O181 O 0.90795 0.33607 0.7004 0.0
Mg182 Mg 0.92591 0.64314 0.91816 0.0
O183 O 0.95934 0.6331 0.93972 0.0
O184 O 0.98491 0.61286 0.91624 0.0
Mg185 Mg 0.96928 0.61439 0.87796 0.0
C186 C 0.97878 0.62132 0.9367 0.0
C187 C 0.89343 0.66695 0.95824 0.0
O188 O 0.87703 0.65261 0.94911 0.0
O189 O 0.94618 0.6747 0.90165 0.0
O190 O 0.97194 0.65565 0.87733 0.0
O191 O 0.91285 0.60598 0.92643 0.0
O192 O 0.93304 0.61573 0.89358 0.0
C193 C 0.96313 0.67493 0.88619 0.0
C194 C 0.92453 0.59931 0.90742 0.0
O195 O 0.91452 0.66682 0.94949 0.0
Mg196 Mg 0.6079 0.67997 0.17481 0.0
O197 O 0.62199 0.70686 0.20292 0.0
O198 O 0.64652 0.73298 0.1847 0.0
Mg199 Mg 0.64322 0.72625 0.14428 0.0
C200 C 0.63682 0.72438 0.20365 0.0
C201 C 0.58783 0.65872 0.22392 0.0
O202 O 0.61055 0.6594 0.23037 0.0
O203 O 0.57939 0.707 0.16245 0.0
O204 O 0.60307 0.73515 0.14622 0.0
O205 O 0.6431 0.66067 0.17971 0.0
O206 O 0.63617 0.68819 0.15187 0.0
C207 C 0.58235 0.72743 0.1524 0.0
C208 C 0.65124 0.67475 0.16303 0.0
O209 O 0.58192 0.66537 0.20286 0.0
Mg210 Mg 0.57946 0.35763 0.42709 0.0
O211 O 0.54615 0.36603 0.44986 0.0
O212 O 0.51988 0.38612 0.42694 0.0
Mg213 Mg 0.53452 0.38615 0.38834 0.0
C214 C 0.52644 0.3775 0.44721 0.0
C215 C 0.59476 0.33933 0.47888 0.0
O216 O 0.58791 0.36103 0.48524 0.0
O217 O 0.55981 0.32588 0.41004 0.0
O218 O 0.5333 0.34489 0.38649 0.0
O219 O 0.59163 0.39495 0.43612 0.0
O220 O 0.57086 0.38552 0.40355 0.0
C221 C 0.54275 0.32562 0.39468 0.0
C222 C 0.57925 0.4018 0.41761 0.0
O223 O 0.59348 0.33319 0.4569 0.0
Mg224 Mg 0.32553 0.38868 0.17565 0.0
O225 O 0.30565 0.38057 0.21073 0.0
O226 O 0.32978 0.35938 0.23492 0.0
Mg227 Mg 0.36695 0.35857 0.21686 0.0
C228 C 0.30939 0.36882 0.23007 0.0
C229 C 0.27897 0.41052 0.15038 0.0
O230 O 0.27876 0.39 0.13868 0.0
O231 O 0.34543 0.41952 0.19377 0.0
O232 O 0.37016 0.39977 0.21855 0.0
O233 O 0.31404 0.35186 0.16421 0.0
O234 O 0.3488 0.35997 0.18178 0.0
C235 C 0.36192 0.41931 0.20972 0.0
C236 C 0.33334 0.34427 0.17482 0.0
O237 O 0.29534 0.41448 0.16581 0.0
Mg238 Mg 0.8267 0.11571 0.82297 0.0
O239 O 0.79817 0.1276 0.79544 0.0
O240 O 0.81514 0.15325 0.76954 0.0
Mg241 Mg 0.85556 0.15307 0.77718 0.0
C242 C 0.79676 0.14221 0.77777 0.0
C243 C 0.77905 0.09232 0.84397 0.0
O244 O 0.77112 0.11456 0.84304 0.0
O245 O 0.84135 0.0881 0.79618 0.0
O246 O 0.85673 0.11287 0.76855 0.0
O247 O 0.81898 0.15059 0.84202 0.0
O248 O 0.84769 0.14558 0.81503 0.0
C249 C 0.85175 0.09175 0.77604 0.0
C250 C 0.83525 0.15986 0.82818 0.0
O251 O 0.80046 0.08778 0.83741 0.0
Mg252 Mg 0.13205 0.57585 0.07795 0.0
O253 O 0.12538 0.5542 0.04388 0.0
O254 O 0.11412 0.57907 0.01433 0.0
Mg255 Mg 0.11343 0.61726 0.03026 0.0
C256 C 0.11875 0.55802 0.02229 0.0
C257 C 0.16648 0.54557 0.11021 0.0
O258 O 0.17004 0.56701 0.11948 0.0
O259 O 0.16761 0.58987 0.06239 0.0
O260 O 0.15425 0.61611 0.03495 0.0
O261 O 0.09289 0.57043 0.08533 0.0
O262 O 0.10788 0.60195 0.06624 0.0
C263 C 0.17135 0.60586 0.04632 0.0
C264 C 0.08943 0.58948 0.07237 0.0
O265 O 0.15132 0.54318 0.09329 0.0
Mg266 Mg 0.66856 0.87713 0.32587 0.0
O267 O 0.69307 0.86439 0.29525 0.0
O268 O 0.67323 0.8379 0.27245 0.0
Mg269 Mg 0.63427 0.83765 0.28592 0.0
C270 C 0.69235 0.84942 0.27786 0.0
C271 C 0.70652 0.90581 0.3561 0.0
O272 O 0.70021 0.88979 0.37228 0.0
O273 O 0.65018 0.90358 0.3001 0.0
O274 O 0.63095 0.87749 0.27641 0.0
O275 O 0.67935 0.84319 0.34501 0.0
O276 O 0.64709 0.84669 0.32208 0.0
C277 C 0.63671 0.89899 0.28205 0.0
C278 C 0.6616 0.8331 0.3338 0.0
O279 O 0.69676 0.90523 0.33545 0.0
Mg280 Mg 0.36978 0.41915 0.5858 0.0
O281 O 0.37636 0.4425 0.55269 0.0
O282 O 0.38874 0.41881 0.52261 0.0
Mg283 Mg 0.39022 0.38005 0.53689 0.0
C284 C 0.38343 0.43949 0.5311 0.0
C285 C 0.3552 0.47178 0.60333 0.0
O286 O 0.37623 0.4778 0.59441 0.0
O287 O 0.33498 0.40499 0.56884 0.0
O288 O 0.34927 0.38016 0.54058 0.0
O289 O 0.40879 0.42509 0.59422 0.0
O290 O 0.39478 0.39424 0.57341 0.0
C291 C 0.3318 0.38968 0.55201 0.0
C292 C 0.41288 0.40664 0.5806 0.0
O293 O 0.34862 0.4499 0.60279 0.0
Mg294 Mg 0.18326 0.61549 0.67016 0.0
O295 O 0.20347 0.62189 0.70548 0.0
O296 O 0.17971 0.64291 0.73018 0.0
Mg297 Mg 0.14253 0.64538 0.71231 0.0
C298 C 0.1999 0.63318 0.72514 0.0
C299 C 0.23489 0.59547 0.65666 0.0
O300 O 0.24138 0.61775 0.66108 0.0
O301 O 0.1625 0.58443 0.68722 0.0
O302 O 0.13809 0.60432 0.71221 0.0
O303 O 0.19547 0.6525 0.6599 0.0
O304 O 0.16063 0.64451 0.67731 0.0
C305 C 0.14574 0.58476 0.7029 0.0
C306 C 0.17631 0.66013 0.6707 0.0
O307 O 0.21289 0.5896 0.65865 0.0
Mg308 Mg 0.63094 0.92901 0.92211 0.0
O309 O 0.62011 0.95375 0.95296 0.0
O310 O 0.59958 0.93261 0.98028 0.0
Mg311 Mg 0.60119 0.89297 0.96853 0.0
C312 C 0.60797 0.95248 0.97236 0.0
C313 C 0.67448 0.95531 0.89806 0.0
O314 O 0.68198 0.93297 0.89636 0.0
O315 O 0.66228 0.91458 0.94467 0.0
O316 O 0.64236 0.89217 0.97154 0.0
O317 O 0.59391 0.9355 0.90753 0.0
O318 O 0.60356 0.90494 0.93107 0.0
C319 C 0.66191 0.90024 0.96262 0.0
C320 C 0.58718 0.9176 0.92083 0.0
O321 O 0.65411 0.9595 0.90752 0.0
Mg322 Mg 0.86411 0.06318 0.42831 0.0
O323 O 0.87823 0.03845 0.45814 0.0
O324 O 0.90455 0.0587 0.48075 0.0
Mg325 Mg 0.90335 0.09793 0.46809 0.0
C326 C 0.89363 0.03929 0.47514 0.0
C327 C 0.82779 0.03301 0.39781 0.0
O328 O 0.8342 0.04896 0.3816 0.0
O329 O 0.83743 0.0807 0.4546 0.0
O330 O 0.86354 0.1005 0.47778 0.0
O331 O 0.89807 0.05363 0.40855 0.0
O332 O 0.89397 0.08553 0.43188 0.0
C333 C 0.84205 0.09441 0.47246 0.0
C334 C 0.9078 0.07154 0.41981 0.0
O335 O 0.83694 0.03413 0.41872 0.0
H336 H 0.14832 0.17847 0.52294 0.0
H337 H 0.0994 0.27076 0.42361 0.0
H338 H 0.07349 0.18455 0.50314 0.0
H339 H 0.17407 0.2645 0.44398 0.0
H340 H 0.08966 0.23801 0.45134 0.0
H341 H 0.15826 0.20877 0.49274 0.0
C342 C 0.13398 0.1861 0.51219 0.0
C343 C 0.11002 0.17902 0.51567 0.0
C344 C 0.10819 0.24376 0.44967 0.0
C345 C 0.12126 0.2138 0.48106 0.0
C346 C 0.11376 0.26246 0.43383 0.0
C347 C 0.13757 0.27048 0.43153 0.0
C348 C 0.12656 0.23302 0.46332 0.0
C349 C 0.15544 0.259 0.44521 0.0
C350 C 0.13967 0.20342 0.49494 0.0
C351 C 0.0922 0.18951 0.50114 0.0
N352 N 0.14956 0.24094 0.46055 0.0
N353 N 0.09817 0.20642 0.48455 0.0
H354 H 0.02118 0.8865 0.65361 0.0
H355 H 0.04171 0.87993 0.79608 0.0
H356 H 0.96868 0.9091 0.70613 0.0
H357 H 0.09205 0.85121 0.74444 0.0
H358 H 0.0159 0.8929 0.76309 0.0
H359 H 0.04846 0.87552 0.68636 0.0
C360 C 0.01539 0.88922 0.67201 0.0
C361 C 0.99255 0.89867 0.67711 0.0
C362 C 0.03261 0.8838 0.75893 0.0
C363 C 0.02372 0.88617 0.71467 0.0
C364 C 0.04741 0.87642 0.77779 0.0
C365 C 0.06908 0.86439 0.77305 0.0
C366 C 0.03949 0.87919 0.73507 0.0
C367 C 0.07548 0.86038 0.74895 0.0
C368 C 0.03098 0.88291 0.6907 0.0
C369 C 0.98606 0.9018 0.70131 0.0
N370 N 0.06073 0.86772 0.73086 0.0
N371 N 0.00154 0.89555 0.71915 0.0
H372 H 0.3618 0.71556 0.95396 0.0
H373 H 0.39282 0.85483 0.97399 0.0
H374 H 0.35275 0.76969 0.89904 0.0
H375 H 0.39843 0.80082 0.02948 0.0
H376 H 0.37965 0.82379 0.94577 0.0
H377 H 0.37677 0.74641 0.98131 0.0
C378 C 0.36301 0.73393 0.9476 0.0
C379 C 0.35595 0.74002 0.92414 0.0
C380 C 0.38379 0.81873 0.96411 0.0
C381 C 0.3731 0.77554 0.95548 0.0
C382 C 0.39134 0.83645 0.98025 0.0
C383 C 0.39668 0.83046 0.00419 0.0
C384 C 0.38159 0.79481 0.97194 0.0
C385 C 0.39445 0.80631 0.01123 0.0
C386 C 0.37156 0.75156 0.96327 0.0
C387 C 0.35796 0.76416 0.91696 0.0
N388 N 0.38706 0.78941 0.9952 0.0
N389 N 0.36631 0.78103 0.93258 0.0
H390 H 0.48188 0.11626 0.15286 0.0
H391 H 0.4614 0.11609 0.29551 0.0
H392 H 0.53046 0.0836 0.20389 0.0
H393 H 0.41495 0.15364 0.24588 0.0
H394 H 0.48571 0.10239 0.2617 0.0
H395 H 0.45598 0.12862 0.18627 0.0
C396 C 0.48708 0.11164 0.17106 0.0
C397 C 0.50842 0.09893 0.17557 0.0
C398 C 0.47019 0.1136 0.25817 0.0
C399 C 0.47888 0.11296 0.21384 0.0
C400 C 0.45626 0.12142 0.27749 0.0
C401 C 0.43613 0.1361 0.27355 0.0
C402 C 0.46398 0.12048 0.23466 0.0
C403 C 0.43034 0.14238 0.24977 0.0
C404 C 0.4723 0.11872 0.19012 0.0
C405 C 0.51425 0.09345 0.19952 0.0
N406 N 0.44423 0.13456 0.23122 0.0
N407 N 0.49959 0.10049 0.2177 0.0
H408 H 0.6495 0.21277 0.55105 0.0
H409 H 0.60005 0.34611 0.52749 0.0
H410 H 0.64077 0.26567 0.60719 0.0
H411 H 0.60996 0.29307 0.47168 0.0
H412 H 0.61484 0.31704 0.55703 0.0
H413 H 0.63498 0.24208 0.52179 0.0
C414 C 0.64453 0.23055 0.55725 0.0
C415 C 0.64634 0.23674 0.58165 0.0
C416 C 0.61379 0.31178 0.53832 0.0
C417 C 0.62967 0.27047 0.54816 0.0
C418 C 0.60534 0.32838 0.52143 0.0
C419 C 0.60376 0.32205 0.49704 0.0
C420 C 0.62069 0.28867 0.53078 0.0
C421 C 0.61087 0.29878 0.49026 0.0
C422 C 0.63624 0.24731 0.54051 0.0
C423 C 0.63966 0.26009 0.58858 0.0
N424 N 0.619 0.28297 0.50702 0.0
N425 N 0.6316 0.27609 0.57193 0.0
H426 H 0.95194 0.34099 0.71099 0.0
H427 H 0.99552 0.40237 0.83356 0.0
H428 H 0.90304 0.36055 0.76801 0.0
H429 H 0.04357 0.37431 0.77944 0.0
H430 H 0.96129 0.38761 0.8101 0.0
H431 H 0.98556 0.35373 0.73595 0.0
C432 C 0.94824 0.34798 0.72878 0.0
C433 C 0.92458 0.34976 0.73738 0.0
C434 C 0.97934 0.3846 0.80344 0.0
C435 C 0.96318 0.36446 0.76616 0.0
C436 C 0.99889 0.39302 0.81682 0.0
C437 C 0.02247 0.38963 0.80842 0.0
C438 C 0.9834 0.37284 0.78146 0.0
C439 C 0.02574 0.37738 0.78662 0.0
C440 C 0.9675 0.35522 0.74308 0.0
C441 C 0.92097 0.35888 0.76065 0.0
N442 N 0.00644 0.36954 0.77387 0.0
N443 N 0.94007 0.36598 0.77422 0.0
H444 H 0.89751 0.77944 0.06573 0.0
H445 H 0.84978 0.67367 0.98023 0.0
H446 H 0.82346 0.75623 0.06319 0.0
H447 H 0.92335 0.69848 0.98135 0.0
H448 H 0.84013 0.7025 0.01199 0.0
H449 H 0.90768 0.74855 0.03619 0.0
C450 C 0.8834 0.76781 0.05903 0.0
C451 C 0.85958 0.77051 0.0669 0.0
C452 C 0.8584 0.70159 0.00532 0.0
C453 C 0.87109 0.73511 0.03301 0.0
C454 C 0.86393 0.68511 0.98719 0.0
C455 C 0.88739 0.68371 0.97802 0.0
C456 C 0.87646 0.71678 0.01437 0.0
C457 C 0.90499 0.69898 0.98778 0.0
C458 C 0.88921 0.75017 0.04214 0.0
C459 C 0.84206 0.75487 0.0576 0.0
N460 N 0.89915 0.7149 0.00536 0.0
N461 N 0.84815 0.7379 0.04111 0.0
H462 H 0.59357 0.64019 0.2694 0.0
H463 H 0.45185 0.62903 0.29249 0.0
H464 H 0.53913 0.65966 0.21756 0.0
H465 H 0.50495 0.59936 0.34076 0.0
H466 H 0.48406 0.64335 0.26651 0.0
H467 H 0.56179 0.6277 0.29726 0.0
C468 C 0.57497 0.64184 0.26387 0.0
C469 C 0.56903 0.65092 0.24106 0.0
C470 C 0.48872 0.63376 0.2828 0.0
C471 C 0.53263 0.63681 0.27286 0.0
C472 C 0.47031 0.62562 0.29772 0.0
C473 C 0.47568 0.61287 0.31881 0.0
C474 C 0.51278 0.6292 0.28898 0.0
C475 C 0.49997 0.60906 0.32463 0.0
C476 C 0.55685 0.63471 0.27977 0.0
C477 C 0.54461 0.65268 0.23488 0.0
N478 N 0.51764 0.61714 0.30976 0.0
N479 N 0.52736 0.64573 0.25068 0.0
H480 H 0.2425 0.4097 0.11703 0.0
H481 H 0.19979 0.54412 0.14642 0.0
H482 H 0.27392 0.45418 0.1724 0.0
H483 H 0.167 0.49985 0.09171 0.0
H484 H 0.22584 0.51053 0.15734 0.0
H485 H 0.21355 0.44174 0.10848 0.0
C486 C 0.24327 0.42614 0.12745 0.0
C487 C 0.26075 0.42928 0.14538 0.0
C488 C 0.21288 0.5081 0.14301 0.0
C489 C 0.22769 0.46601 0.13569 0.0
C490 C 0.19797 0.5273 0.13677 0.0
C491 C 0.18125 0.52485 0.11804 0.0
C492 C 0.21116 0.48629 0.13037 0.0
C493 C 0.17966 0.50257 0.10624 0.0
C494 C 0.22673 0.44443 0.12256 0.0
C495 C 0.26085 0.45097 0.15833 0.0
N496 N 0.19452 0.48419 0.11252 0.0
N497 N 0.24465 0.46849 0.15317 0.0
H498 H 0.71931 0.95276 0.87791 0.0
H499 H 0.73288 0.09529 0.86124 0.0
H500 H 0.6646 0.00364 0.89898 0.0
H501 H 0.78906 0.04417 0.84512 0.0
H502 H 0.7071 0.06205 0.87418 0.0
H503 H 0.74457 0.98611 0.86467 0.0
C504 C 0.71258 0.97094 0.87973 0.0
C505 C 0.68979 0.97538 0.88959 0.0
C506 C 0.72508 0.05813 0.86782 0.0
C507 C 0.71869 0.01374 0.87447 0.0
C508 C 0.73981 0.0771 0.86042 0.0
C509 C 0.7632 0.07254 0.8521 0.0
C510 C 0.73375 0.03441 0.86681 0.0
C511 C 0.77119 0.04859 0.85144 0.0
C512 C 0.72704 0.99 0.87218 0.0
C513 C 0.68204 0.99936 0.89148 0.0
N514 N 0.7565 0.03046 0.85866 0.0
N515 N 0.69646 0.01763 0.884 0.0
H516 H 0.72364 0.94154 0.3268 0.0
H517 H 0.81102 0.99703 0.42699 0.0
H518 H 0.73068 0.91265 0.39853 0.0
H519 H 0.80428 0.02564 0.35513 0.0
H520 H 0.78175 0.96591 0.41685 0.0
H521 H 0.75327 0.97235 0.33679 0.0
C522 C 0.73142 0.94165 0.34466 0.0
C523 C 0.72462 0.92447 0.36187 0.0
C524 C 0.78667 0.97898 0.40329 0.0
C525 C 0.75861 0.95977 0.37343 0.0
C526 C 0.8034 0.99678 0.40906 0.0
C527 C 0.81013 0.01401 0.39188 0.0
C528 C 0.77655 0.97837 0.38015 0.0
C529 C 0.79964 0.01275 0.36895 0.0
C530 C 0.74835 0.95927 0.35035 0.0
C531 C 0.73534 0.92552 0.3847 0.0
N532 N 0.78338 0.99525 0.36377 0.0
N533 N 0.75178 0.94288 0.38981 0.0
H534 H 0.22796 0.54724 0.65012 0.0
H535 H 0.36286 0.52044 0.60767 0.0
H536 H 0.28293 0.60198 0.64706 0.0
H537 H 0.30937 0.46553 0.61996 0.0
H538 H 0.33406 0.55081 0.6214 0.0
H539 H 0.25766 0.51732 0.63821 0.0
C540 C 0.24629 0.553 0.64693 0.0
C541 C 0.25293 0.5772 0.64956 0.0
C542 C 0.32869 0.5321 0.62118 0.0
C543 C 0.28715 0.5429 0.63585 0.0
C544 C 0.34513 0.51474 0.61334 0.0
C545 C 0.33853 0.49038 0.61261 0.0
C546 C 0.30547 0.52504 0.6282 0.0
C547 C 0.31529 0.48407 0.62018 0.0
C548 C 0.26328 0.53586 0.64017 0.0
C549 C 0.277 0.58353 0.64525 0.0
N550 N 0.29961 0.50127 0.62755 0.0
N551 N 0.29323 0.56649 0.63853 0.0
H552 H 0.31318 0.34638 0.53924 0.0
H553 H 0.23251 0.40317 0.44317 0.0
H554 H 0.29592 0.42185 0.54297 0.0
H555 H 0.21817 0.33091 0.4674 0.0
H556 H 0.25463 0.41085 0.48042 0.0
H557 H 0.27732 0.33976 0.51459 0.0
C558 C 0.30139 0.36142 0.53541 0.0
C559 C 0.30743 0.38468 0.54301 0.0
C560 C 0.24618 0.39349 0.47785 0.0
C561 C 0.26702 0.37743 0.51422 0.0
C562 C 0.2337 0.38906 0.45656 0.0
C563 C 0.22374 0.36632 0.45219 0.0
C564 C 0.24935 0.37481 0.4945 0.0
C565 C 0.22564 0.34868 0.47012 0.0
C566 C 0.28097 0.35766 0.52137 0.0
C567 C 0.29175 0.40363 0.5375 0.0
N568 N 0.23876 0.3531 0.4903 0.0
N569 N 0.27255 0.39971 0.52284 0.0
H570 H 0.86758 0.00603 0.64992 0.0
H571 H 0.8574 0.0436 0.78739 0.0
H572 H 0.90209 0.96277 0.70452 0.0
H573 H 0.85873 0.09346 0.72787 0.0
H574 H 0.86681 0.01069 0.75911 0.0
H575 H 0.85603 0.03479 0.68045 0.0
C576 C 0.87267 0.00242 0.66838 0.0
C577 C 0.88614 0.98198 0.67454 0.0
C578 C 0.86505 0.0289 0.75244 0.0
C579 C 0.87279 0.01522 0.7098 0.0
C580 C 0.85962 0.04761 0.76847 0.0
C581 C 0.85737 0.07132 0.75998 0.0
C582 C 0.86763 0.03403 0.72785 0.0
C583 C 0.86046 0.07555 0.73531 0.0
C584 C 0.86608 0.01899 0.68582 0.0
C585 C 0.89189 0.97838 0.69892 0.0
N586 N 0.86527 0.05712 0.72018 0.0
N587 N 0.88524 0.99494 0.71576 0.0
H588 H 0.27312 0.59703 0.93955 0.0
H589 H 0.19042 0.64966 0.03638 0.0
H590 H 0.28584 0.66869 0.96628 0.0
H591 H 0.2074 0.57405 0.03654 0.0
H592 H 0.22679 0.65745 0.01291 0.0
H593 H 0.25062 0.58773 0.97615 0.0
C594 C 0.2715 0.61067 0.95337 0.0
C595 C 0.2811 0.63371 0.94988 0.0
C596 C 0.22298 0.63924 0.01865 0.0
C597 C 0.25502 0.62339 0.99149 0.0
C598 C 0.20225 0.6348 0.03203 0.0
C599 C 0.19597 0.61119 0.03824 0.0
C600 C 0.23702 0.61982 0.01077 0.0
C601 C 0.21174 0.59251 0.03212 0.0
C602 C 0.25879 0.60532 0.9743 0.0
C603 C 0.27865 0.65071 0.96834 0.0
N604 N 0.23126 0.59714 0.01812 0.0
N605 N 0.2653 0.64541 0.98816 0.0
H606 H 0.6017 0.97211 0.15257 0.0
H607 H 0.64389 0.94814 0.28629 0.0
H608 H 0.60075 0.03 0.2043 0.0
H609 H 0.6106 0.89453 0.24091 0.0
H610 H 0.63239 0.97915 0.25679 0.0
H611 H 0.61012 0.94388 0.18477 0.0
C612 C 0.60332 0.97892 0.17075 0.0
C613 C 0.60055 0.00347 0.17574 0.0
C614 C 0.62748 0.96058 0.25358 0.0
C615 C 0.61029 0.97106 0.21286 0.0
C616 C 0.63405 0.94289 0.27032 0.0
C617 C 0.62842 0.91861 0.26602 0.0
C618 C 0.6156 0.95376 0.23236 0.0
C619 C 0.61556 0.9129 0.24504 0.0
C620 C 0.60799 0.96274 0.18917 0.0
C621 C 0.60268 0.01118 0.19973 0.0
N622 N 0.60985 0.93025 0.22897 0.0
N623 N 0.60765 0.995 0.21748 0.0
H624 H 0.7699 0.14085 0.59894 0.0
H625 H 0.79279 0.0869 0.46902 0.0
H626 H 0.7112 0.13548 0.54842 0.0
H627 H 0.84672 0.12268 0.51205 0.0
H628 H 0.76187 0.10082 0.49762 0.0
H629 H 0.79778 0.12986 0.56734 0.0
C630 C 0.76285 0.13733 0.58111 0.0
C631 C 0.73816 0.13901 0.57633 0.0
C632 C 0.7805 0.1057 0.50051 0.0
C633 C 0.77022 0.12625 0.53982 0.0
C634 C 0.79814 0.09772 0.4843 0.0
C635 C 0.82248 0.10338 0.48822 0.0
C636 C 0.78742 0.11911 0.52078 0.0
C637 C 0.82832 0.11759 0.50826 0.0
C638 C 0.77884 0.13117 0.563 0.0
C639 C 0.73014 0.13446 0.55279 0.0
N640 N 0.81101 0.12473 0.52378 0.0
N641 N 0.74616 0.12802 0.53534 0.0
H642 H 0.10074 0.57703 0.72061 0.0
H643 H 0.14051 0.46654 0.79524 0.0
H644 H 0.16774 0.54074 0.70609 0.0
H645 H 0.06564 0.48412 0.78615 0.0
H646 H 0.15019 0.49062 0.75975 0.0
H647 H 0.08638 0.54131 0.7417 0.0
C648 C 0.11229 0.56137 0.72156 0.0
C649 C 0.1356 0.56194 0.71193 0.0
C650 C 0.13155 0.48869 0.76502 0.0
C651 C 0.11941 0.52113 0.73634 0.0
C652 C 0.12604 0.47491 0.78521 0.0
C653 C 0.10228 0.47341 0.79341 0.0
C654 C 0.11323 0.50172 0.75352 0.0
C655 C 0.08415 0.48477 0.78015 0.0
C656 C 0.10403 0.54093 0.73348 0.0
C657 C 0.14971 0.54108 0.7134 0.0
N658 N 0.09006 0.49897 0.76112 0.0
N659 N 0.14159 0.52167 0.7259 0.0
H660 H 0.67493 0.85544 0.97674 0.0
H661 H 0.76213 0.89889 0.07536 0.0
H662 H 0.69953 0.92894 0.97606 0.0
H663 H 0.77134 0.82826 0.04469 0.0
H664 H 0.73825 0.9106 0.04023 0.0
H665 H 0.70912 0.8446 0.00232 0.0
C666 C 0.68783 0.86919 0.98167 0.0
C667 C 0.68452 0.89309 0.97439 0.0
C668 C 0.74588 0.8927 0.04099 0.0
C669 C 0.7231 0.881 0.0041 0.0
C670 C 0.75936 0.88597 0.06104 0.0
C671 C 0.76856 0.86255 0.06291 0.0
C672 C 0.74094 0.87565 0.02308 0.0
C673 C 0.76457 0.8465 0.04387 0.0
C674 C 0.70733 0.86299 0.99617 0.0
C675 C 0.70162 0.91029 0.98126 0.0
N676 N 0.75057 0.85318 0.02494 0.0
N677 N 0.71994 0.90402 0.99624 0.0
H678 H 0.33743 0.46179 0.21382 0.0
H679 H 0.43791 0.52183 0.29735 0.0
H680 H 0.40599 0.42881 0.22912 0.0
H681 H 0.36169 0.52925 0.30913 0.0
H682 H 0.42941 0.49826 0.26082 0.0
H683 H 0.34975 0.49702 0.23738 0.0
C684 C 0.35528 0.46222 0.22162 0.0
C685 C 0.37059 0.44224 0.21989 0.0
C686 C 0.41461 0.50567 0.27109 0.0
C687 C 0.38478 0.48239 0.24647 0.0
C688 C 0.41944 0.51919 0.29173 0.0
C689 C 0.40042 0.52726 0.30612 0.0
C690 C 0.39065 0.50068 0.26479 0.0
C691 C 0.37678 0.52316 0.29844 0.0
C692 C 0.36224 0.48225 0.23508 0.0
C693 C 0.39351 0.4437 0.23038 0.0
N694 N 0.37253 0.50999 0.27834 0.0
N695 N 0.39986 0.46336 0.2434 0.0
H696 H 0.53543 0.28536 0.42194 0.0
H697 H 0.45736 0.21914 0.32092 0.0
H698 H 0.52537 0.3138 0.35048 0.0
H699 H 0.43757 0.22095 0.39584 0.0
H700 H 0.49366 0.24262 0.33054 0.0
H701 H 0.51072 0.25039 0.41088 0.0
C702 C 0.52858 0.2839 0.40376 0.0
C703 C 0.53212 0.30253 0.38715 0.0
C704 C 0.48162 0.2373 0.34489 0.0
C705 C 0.50436 0.26273 0.37441 0.0
C706 C 0.46107 0.22385 0.33946 0.0
C707 C 0.4445 0.21839 0.35763 0.0
C708 C 0.48571 0.24474 0.36868 0.0
C709 C 0.44989 0.22507 0.38134 0.0
C710 C 0.51446 0.26406 0.39752 0.0
C711 C 0.52275 0.2999 0.36387 0.0
N712 N 0.47001 0.23802 0.3862 0.0
N713 N 0.50917 0.28042 0.3582 0.0
H714 H 0.01108 0.17034 0.64183 0.0
H715 H 0.91333 0.2593 0.59952 0.0
H716 H 0.01305 0.19614 0.56875 0.0
H717 H 0.94672 0.2701 0.66868 0.0
H718 H 0.94718 0.2336 0.58768 0.0
H719 H 0.98506 0.20425 0.65268 0.0
C720 C 0.00622 0.18334 0.62816 0.0
C721 C 0.01411 0.18055 0.60439 0.0
C722 C 0.94724 0.24193 0.60528 0.0
C723 C 0.98404 0.2188 0.61649 0.0
C724 C 0.92795 0.25644 0.61208 0.0
C725 C 0.9273 0.26672 0.6351 0.0
C726 C 0.96555 0.23707 0.62192 0.0
C727 C 0.94666 0.26255 0.65073 0.0
C728 C 0.99152 0.20268 0.63437 0.0
C729 C 0.00738 0.19782 0.5873 0.0
N730 N 0.96481 0.24758 0.64404 0.0
N731 N 0.99224 0.216 0.59356 0.0
H732 H 0.97112 0.71408 0.9148 0.0
H733 H 0.05108 0.7828 0.81714 0.0
H734 H 0.98154 0.68764 0.84263 0.0
H735 H 0.07068 0.77731 0.89196 0.0
H736 H 0.01459 0.75915 0.82554 0.0
H737 H 0.99681 0.74875 0.90522 0.0
C738 C 0.97828 0.71593 0.89678 0.0
C739 C 0.97451 0.69792 0.87953 0.0
C740 C 0.02666 0.76367 0.84015 0.0
C741 C 0.00339 0.73742 0.86848 0.0
C742 C 0.04732 0.7772 0.83542 0.0
C743 C 0.06387 0.78172 0.85388 0.0
C744 C 0.02242 0.75523 0.86356 0.0
C745 C 0.05839 0.77394 0.87723 0.0
C746 C 0.99296 0.73559 0.89139 0.0
C747 C 0.9843 0.70104 0.85649 0.0
N748 N 0.03814 0.76097 0.88142 0.0
N749 N 0.99842 0.72037 0.85164 0.0
H750 H 0.53539 0.71535 0.14164 0.0
H751 H 0.49413 0.85256 0.14037 0.0
H752 H 0.58231 0.77597 0.15365 0.0
H753 H 0.45853 0.80047 0.095 0.0
H754 H 0.52129 0.82145 0.15426 0.0
H755 H 0.50233 0.7436 0.13239 0.0
C756 C 0.53863 0.73453 0.14255 0.0
C757 C 0.56159 0.74341 0.14824 0.0
C758 C 0.50746 0.81675 0.14135 0.0
C759 C 0.52418 0.77542 0.13819 0.0
C760 C 0.49187 0.83452 0.13337 0.0
C761 C 0.47421 0.82928 0.11609 0.0
C762 C 0.50553 0.79339 0.13215 0.0
C763 C 0.47203 0.80536 0.10814 0.0
C764 C 0.51989 0.75054 0.13718 0.0
C765 C 0.56496 0.76836 0.14911 0.0
N766 N 0.48771 0.78824 0.11611 0.0
N767 N 0.54648 0.78343 0.14423 0.0
H768 H 0.18803 0.38377 0.32465 0.0
H769 H 0.30284 0.33125 0.26122 0.0
H770 H 0.20187 0.30755 0.32285 0.0
H771 H 0.2687 0.39593 0.23522 0.0
H772 H 0.26747 0.32327 0.28629 0.0
H773 H 0.21796 0.38958 0.29287 0.0
C774 C 0.19682 0.36819 0.31693 0.0
C775 C 0.19229 0.34514 0.32605 0.0
C776 C 0.26773 0.33914 0.275 0.0
C777 C 0.22733 0.35173 0.29073 0.0
C778 C 0.288 0.34387 0.26095 0.0
C779 C 0.28879 0.36442 0.2463 0.0
C780 C 0.24832 0.3553 0.27474 0.0
C781 C 0.26887 0.37994 0.24632 0.0
C782 C 0.21403 0.37151 0.29899 0.0
C783 C 0.20453 0.32556 0.31593 0.0
N784 N 0.24955 0.3752 0.26052 0.0
N785 N 0.22192 0.32934 0.29913 0.0
H786 H 0.93388 0.02968 0.50197 0.0
H787 H 0.88181 0.91253 0.5592 0.0
H788 H 0.86811 0.99718 0.47654 0.0
H789 H 0.95686 0.93086 0.56451 0.0
H790 H 0.87775 0.94018 0.52536 0.0
H791 H 0.94371 0.99227 0.52288 0.0
C792 C 0.92147 0.0147 0.50082 0.0
C793 C 0.89993 0.01672 0.4878 0.0
C794 C 0.89533 0.93762 0.53334 0.0
C795 C 0.91116 0.97378 0.51163 0.0
C796 C 0.89771 0.92154 0.55243 0.0
C797 C 0.91968 0.91947 0.5646 0.0
C798 C 0.91491 0.9522 0.52689 0.0
C799 C 0.93964 0.93186 0.55546 0.0
C800 C 0.92724 0.99325 0.51255 0.0
C801 C 0.8848 0.99653 0.48656 0.0
N802 N 0.93663 0.94832 0.5376 0.0
N803 N 0.89053 0.97605 0.4986 0.0
H804 H 0.23988 0.60494 0.73025 0.0
H805 H 0.30593 0.6944 0.8213 0.0
H806 H 0.20728 0.67026 0.75658 0.0
H807 H 0.31756 0.61779 0.8225 0.0
H808 H 0.27651 0.68894 0.78879 0.0
H809 H 0.27465 0.61236 0.75639 0.0
C810 C 0.24003 0.6208 0.74156 0.0
C811 C 0.22052 0.63682 0.74154 0.0
C812 C 0.28599 0.67343 0.79578 0.0
C813 C 0.26045 0.64573 0.77081 0.0
C814 C 0.30303 0.67657 0.814 0.0
C815 C 0.31431 0.65651 0.82429 0.0
C816 C 0.2806 0.65012 0.78763 0.0
C817 C 0.30936 0.63369 0.81479 0.0
C818 C 0.25987 0.62504 0.75637 0.0
C819 C 0.22174 0.65722 0.75637 0.0
N820 N 0.2928 0.63108 0.79702 0.0
N821 N 0.24143 0.66116 0.77035 0.0
H822 H 0.54488 0.06203 0.06206 0.0
H823 H 0.63375 0.99429 0.97191 0.0
H824 H 0.62137 0.07413 0.06075 0.0
H825 H 0.56963 0.96227 0.00168 0.0
H826 H 0.62482 0.03146 0.99385 0.0
H827 H 0.54913 0.03435 0.02797 0.0
C828 C 0.56236 0.05991 0.05372 0.0
C829 C 0.58285 0.07025 0.06415 0.0
C830 C 0.61263 0.01634 0.99534 0.0
C831 C 0.58786 0.03856 0.02567 0.0
C832 C 0.61773 0.99513 0.98296 0.0
C833 C 0.60264 0.97504 0.98535 0.0
C834 C 0.59203 0.01764 0.00984 0.0
C835 C 0.58201 0.97718 0.99974 0.0
C836 C 0.56483 0.04379 0.03459 0.0
C837 C 0.60517 0.06651 0.05308 0.0
N838 N 0.57732 0.99811 0.01149 0.0
N839 N 0.60717 0.05067 0.03461 0.0
H840 H 0.68252 0.19936 0.69058 0.0
H841 H 0.75647 0.11384 0.77931 0.0
H842 H 0.67346 0.12248 0.69354 0.0
H843 H 0.78277 0.18137 0.75147 0.0
H844 H 0.71818 0.12082 0.75858 0.0
H845 H 0.71047 0.19691 0.72462 0.0
C846 C 0.68539 0.18214 0.69925 0.0
C847 C 0.67576 0.16106 0.68934 0.0
C848 C 0.73227 0.13421 0.7573 0.0
C849 C 0.70788 0.15807 0.72774 0.0
C850 C 0.75412 0.13023 0.76905 0.0
C851 C 0.773 0.14682 0.7667 0.0
C852 C 0.72914 0.1551 0.74347 0.0
C853 C 0.76887 0.16786 0.75334 0.0
C854 C 0.70165 0.1807 0.71837 0.0
C855 C 0.68054 0.13911 0.70079 0.0
N856 N 0.74743 0.17134 0.74213 0.0
N857 N 0.69655 0.13811 0.7192 0.0
H858 H 0.09977 0.5143 0.03367 0.0
H859 H 0.13425 0.45417 0.90976 0.0
H860 H 0.13042 0.55442 0.97482 0.0
H861 H 0.06443 0.43944 0.94023 0.0
H862 H 0.14186 0.48297 0.94199 0.0
H863 H 0.09437 0.47962 0.00662 0.0
C864 C 0.10551 0.51569 0.01511 0.0
C865 C 0.11556 0.53714 0.00634 0.0
C866 C 0.12508 0.47307 0.94183 0.0
C867 C 0.11005 0.49769 0.97589 0.0
C868 C 0.12073 0.45656 0.92358 0.0
C869 C 0.09846 0.44479 0.92206 0.0
C870 C 0.10726 0.47747 0.95901 0.0
C871 C 0.08179 0.44824 0.9407 0.0
C872 C 0.10235 0.49602 0.9998 0.0
C873 C 0.12252 0.53822 0.98218 0.0
N874 N 0.08642 0.46456 0.9584 0.0
N875 N 0.11988 0.51864 0.96782 0.0
H876 H 0.70267 0.8111 0.24864 0.0
H877 H 0.81434 0.87096 0.18756 0.0
H878 H 0.73285 0.87735 0.27558 0.0
H879 H 0.80302 0.79435 0.18503 0.0
H880 H 0.78576 0.87372 0.22087 0.0
H881 H 0.73928 0.80456 0.22511 0.0
C882 C 0.717 0.82424 0.24965 0.0
C883 C 0.71458 0.84493 0.26392 0.0
C884 C 0.79002 0.8562 0.21352 0.0
C885 C 0.7565 0.83753 0.23708 0.0
C886 C 0.80649 0.85461 0.19469 0.0
C887 C 0.81115 0.83239 0.18376 0.0
C888 C 0.77758 0.83551 0.22091 0.0
C889 C 0.80016 0.81177 0.19325 0.0
C890 C 0.73798 0.82038 0.2364 0.0
C891 C 0.73387 0.86122 0.26474 0.0
N892 N 0.78339 0.81389 0.21093 0.0
N893 N 0.75388 0.85733 0.25126 0.0
H894 H 0.37316 0.44318 0.48342 0.0
H895 H 0.43892 0.56121 0.45267 0.0
H896 H 0.40001 0.484 0.54366 0.0
H897 H 0.36876 0.54654 0.42294 0.0
H898 H 0.43053 0.53208 0.48504 0.0
H899 H 0.37782 0.47882 0.45786 0.0
C900 C 0.38006 0.45965 0.4912 0.0
C901 C 0.38609 0.4608 0.51561 0.0
C902 C 0.41685 0.53578 0.47167 0.0
C903 C 0.39186 0.50125 0.48657 0.0
C904 C 0.42152 0.55248 0.45337 0.0
C905 C 0.40463 0.55596 0.43493 0.0
C906 C 0.39545 0.52239 0.47102 0.0
C907 C 0.38245 0.54402 0.43656 0.0
C908 C 0.38258 0.47994 0.47672 0.0
C909 C 0.39497 0.48257 0.52491 0.0
N910 N 0.37874 0.52731 0.45389 0.0
N911 N 0.39793 0.50196 0.51027 0.0
H912 H 0.23362 0.26921 0.39899 0.0
H913 H 0.31455 0.20024 0.30258 0.0
H914 H 0.26189 0.30346 0.33536 0.0
H915 H 0.31673 0.18369 0.37824 0.0
H916 H 0.28526 0.23222 0.31088 0.0
H917 H 0.25545 0.23243 0.38835 0.0
C918 C 0.24449 0.26899 0.38282 0.0
C919 C 0.24627 0.28949 0.36821 0.0
C920 C 0.29168 0.22111 0.32554 0.0
C921 C 0.27056 0.24735 0.35562 0.0
C922 C 0.308 0.20261 0.32077 0.0
C923 C 0.31779 0.18924 0.33978 0.0
C924 C 0.28486 0.22582 0.34939 0.0
C925 C 0.30935 0.19351 0.36313 0.0
C926 C 0.25682 0.24801 0.37674 0.0
C927 C 0.26041 0.28818 0.34735 0.0
N928 N 0.29343 0.21154 0.36733 0.0
N929 N 0.27196 0.2674 0.3416 0.0
H930 H 0.96024 0.99562 0.56539 0.0
H931 H 0.0713 0.0608 0.62034 0.0
H932 H 0.99142 0.97195 0.63242 0.0
H933 H 0.0591 0.0591 0.54386 0.0
H934 H 0.04418 0.02651 0.62508 0.0
H935 H 0.99684 0.01845 0.55695 0.0
C936 C 0.97479 0.99521 0.57832 0.0
C937 C 0.97264 0.98212 0.5998 0.0
C938 C 0.04801 0.0331 0.60716 0.0
C939 C 0.01461 0.00815 0.5902 0.0
C940 C 0.06368 0.05248 0.60444 0.0
C941 C 0.06751 0.06259 0.58169 0.0
C942 C 0.03552 0.02435 0.58704 0.0
C943 C 0.05683 0.05158 0.56168 0.0
C944 C 0.99579 0.00803 0.57336 0.0
C945 C 0.99223 0.98195 0.61573 0.0
N946 N 0.04075 0.03342 0.56488 0.0
N947 N 0.01226 0.99507 0.61079 0.0
H948 H 0.27538 0.73468 0.89768 0.0
H949 H 0.19434 0.80376 0.80123 0.0
H950 H 0.24644 0.70077 0.83415 0.0
H951 H 0.19068 0.81936 0.87703 0.0
H952 H 0.22436 0.77249 0.80961 0.0
H953 H 0.2539 0.77178 0.88701 0.0
C954 C 0.26451 0.73506 0.88151 0.0
C955 C 0.26231 0.71453 0.86699 0.0
C956 C 0.21749 0.78328 0.82429 0.0
C957 C 0.23852 0.75697 0.85435 0.0
C958 C 0.20072 0.80137 0.81949 0.0
C959 C 0.19029 0.81422 0.83849 0.0
C960 C 0.22411 0.77845 0.84819 0.0
C961 C 0.19855 0.80993 0.86192 0.0
C962 C 0.25238 0.7562 0.87542 0.0
C963 C 0.24821 0.71604 0.8461 0.0
N964 N 0.2149 0.79228 0.86617 0.0
N965 N 0.2369 0.73694 0.84035 0.0
H966 H 0.53201 0.99958 0.06213 0.0
H967 H 0.41259 0.94808 0.11431 0.0
H968 H 0.50055 0.0272 0.12748 0.0
H969 H 0.43143 0.9406 0.03958 0.0
H970 H 0.44126 0.98113 0.11793 0.0
H971 H 0.49365 0.98068 0.05215 0.0
C972 C 0.51702 0.0017 0.07438 0.0
C973 C 0.51964 0.01462 0.09592 0.0
C974 C 0.4386 0.97287 0.1005 0.0
C975 C 0.47558 0.99304 0.08453 0.0
C976 C 0.42197 0.95422 0.09837 0.0
C977 C 0.41969 0.94167 0.07663 0.0
C978 C 0.45349 0.97849 0.0809 0.0
C979 C 0.43255 0.94998 0.05661 0.0
C980 C 0.49503 0.99111 0.06853 0.0
C981 C 0.49943 0.01719 0.11082 0.0
N982 N 0.44949 0.96741 0.05939 0.0
N983 N 0.47837 0.00615 0.10505 0.0
H984 H 0.7188 0.23939 0.62056 0.0
H985 H 0.81085 0.31021 0.70527 0.0
H986 H 0.74775 0.211 0.68678 0.0
H987 H 0.80481 0.32198 0.62894 0.0
H988 H 0.77699 0.28201 0.70313 0.0
H989 H 0.74038 0.27708 0.62789 0.0
C990 C 0.7295 0.24115 0.63674 0.0
C991 C 0.73187 0.22185 0.65285 0.0
C992 C 0.78256 0.29142 0.68701 0.0
C993 C 0.75618 0.26503 0.6615 0.0
C994 C 0.80158 0.3078 0.6883 0.0
C995 C 0.81047 0.31842 0.66724 0.0
C996 C 0.77227 0.28601 0.66457 0.0
C997 C 0.79832 0.31418 0.64556 0.0
C998 C 0.74176 0.26267 0.64091 0.0
C999 C 0.74582 0.22524 0.67364 0.0
N1000 N 0.78 0.29807 0.64471 0.0
N1001 N 0.75756 0.24637 0.6773 0.0
H1002 H 0.0482 0.51622 0.91201 0.0
H1003 H 0.92827 0.57183 0.86732 0.0
H1004 H 0.0084 0.48124 0.85531 0.0
H1005 H 0.94683 0.57362 0.94252 0.0
H1006 H 0.95728 0.5392 0.86135 0.0
H1007 H 0.01216 0.53942 0.92231 0.0
C1008 C 0.0319 0.5135 0.90169 0.0
C1009 C 0.03131 0.49698 0.88263 0.0
C1010 C 0.95448 0.54624 0.87929 0.0
C1011 C 0.99017 0.52338 0.89431 0.0
C1012 C 0.93781 0.56466 0.88273 0.0
C1013 C 0.93501 0.57513 0.90547 0.0
C1014 C 0.96903 0.53894 0.89857 0.0
C1015 C 0.9482 0.56569 0.92479 0.0
C1016 C 0.01131 0.5265 0.90776 0.0
C1017 C 0.00962 0.49387 0.87008 0.0
N1018 N 0.96515 0.54852 0.92079 0.0
N1019 N 0.98998 0.50723 0.87589 0.0
H1020 H 0.67879 0.67795 0.12315 0.0
H1021 H 0.73843 0.79222 0.17653 0.0
H1022 H 0.67969 0.69029 0.19958 0.0
H1023 H 0.76653 0.75944 0.11204 0.0
H1024 H 0.71646 0.75502 0.18524 0.0
H1025 H 0.71236 0.70595 0.11857 0.0
C1026 C 0.68687 0.68572 0.13909 0.0
C1027 C 0.67663 0.68179 0.16176 0.0
C1028 C 0.72764 0.75592 0.16932 0.0
C1029 C 0.71388 0.7149 0.15656 0.0
C1030 C 0.73988 0.77724 0.16416 0.0
C1031 C 0.75403 0.77903 0.14334 0.0
C1032 C 0.72919 0.73644 0.15331 0.0
C1033 C 0.75567 0.75889 0.12819 0.0
C1034 C 0.70579 0.70196 0.13646 0.0
C1035 C 0.6873 0.69271 0.18183 0.0
N1036 N 0.74312 0.73856 0.13328 0.0
N1037 N 0.7049 0.70942 0.17869 0.0
H1038 H 0.49444 0.52091 0.36599 0.0
H1039 H 0.55713 0.42612 0.45376 0.0
H1040 H 0.4568 0.48529 0.42373 0.0
H1041 H 0.57427 0.43029 0.37832 0.0
H1042 H 0.52742 0.45833 0.44829 0.0
H1043 H 0.53043 0.49714 0.37548 0.0
C1044 C 0.49381 0.5082 0.38075 0.0
C1045 C 0.47255 0.50479 0.39391 0.0
C1046 C 0.53824 0.45266 0.43313 0.0
C1047 C 0.51369 0.47822 0.4052 0.0
C1048 C 0.55543 0.4346 0.4363 0.0
C1049 C 0.56824 0.42579 0.41646 0.0
C1050 C 0.53432 0.46219 0.41008 0.0
C1051 C 0.56484 0.43682 0.39405 0.0
C1052 C 0.51431 0.49473 0.38614 0.0
C1053 C 0.47272 0.48817 0.4129 0.0
N1054 N 0.5481 0.45441 0.3914 0.0
N1055 N 0.49301 0.47552 0.41804 0.0
H1056 H 0.38815 0.2277 0.26025 0.0
H1057 H 0.2977 0.32105 0.19897 0.0
H1058 H 0.3289 0.26064 0.29801 0.0
H1059 H 0.37212 0.31491 0.17826 0.0
H1060 H 0.30396 0.2894 0.22909 0.0
H1061 H 0.37785 0.25131 0.22449 0.0
C1062 C 0.37297 0.23989 0.26101 0.0
C1063 C 0.35957 0.2425 0.28222 0.0
C1064 C 0.31871 0.29453 0.21745 0.0
C1065 C 0.34736 0.26896 0.24126 0.0
C1066 C 0.31505 0.31224 0.2 0.0
C1067 C 0.33442 0.32038 0.18607 0.0
C1068 C 0.34177 0.2847 0.22056 0.0
C1069 C 0.35673 0.30893 0.1886 0.0
C1070 C 0.36709 0.25326 0.2406 0.0
C1071 C 0.33997 0.25842 0.28216 0.0
N1072 N 0.35987 0.29175 0.20567 0.0
N1073 N 0.33441 0.27103 0.26195 0.0
H1074 H 0.79679 0.1857 0.81266 0.0
H1075 H 0.88326 0.27552 0.74119 0.0
H1076 H 0.87318 0.19013 0.8247 0.0
H1077 H 0.81767 0.24585 0.71211 0.0
H1078 H 0.87546 0.25437 0.77905 0.0
H1079 H 0.79983 0.21911 0.784 0.0
C1080 C 0.81397 0.19459 0.81028 0.0
C1081 C 0.8348 0.18526 0.82098 0.0
C1082 C 0.86271 0.2527 0.76442 0.0
C1083 C 0.83848 0.22291 0.78807 0.0
C1084 C 0.86717 0.26465 0.74279 0.0
C1085 C 0.85134 0.26204 0.7233 0.0
C1086 C 0.84206 0.23838 0.76671 0.0
C1087 C 0.83063 0.24793 0.7265 0.0
C1088 C 0.81577 0.21332 0.7936 0.0
C1089 C 0.85673 0.19696 0.81682 0.0
N1090 N 0.82662 0.23657 0.74777 0.0
N1091 N 0.85808 0.21499 0.80042 0.0
H1092 H 0.00887 0.58303 0.944 0.0
H1093 H 0.06652 0.63158 0.06353 0.0
H1094 H 0.98193 0.64722 0.97829 0.0
H1095 H 0.06358 0.55568 0.04822 0.0
H1096 H 0.03686 0.63875 0.03174 0.0
H1097 H 0.03175 0.57373 0.98057 0.0
C1098 C 0.00793 0.59525 0.95914 0.0
C1099 C 0.99367 0.61604 0.95807 0.0
C1100 C 0.04225 0.62047 0.03572 0.0
C1101 C 0.0196 0.60546 0.99983 0.0
C1102 C 0.05897 0.61637 0.05396 0.0
C1103 C 0.0671 0.593 0.05868 0.0
C1104 C 0.03428 0.60112 0.02161 0.0
C1105 C 0.05732 0.5739 0.04542 0.0
C1106 C 0.02073 0.58978 0.98006 0.0
C1107 C 0.99277 0.63105 0.97835 0.0
N1108 N 0.04175 0.57843 0.0271 0.0
N1109 N 0.00577 0.62561 0.99831 0.0
H1110 H 0.62424 0.80192 0.33317 0.0
H1111 H 0.67722 0.75001 0.21507 0.0
H1112 H 0.69954 0.80781 0.31615 0.0
H1113 H 0.61207 0.72154 0.24619 0.0
H1114 H 0.68707 0.76849 0.25368 0.0
H1115 H 0.6208 0.7684 0.30503 0.0
C1116 C 0.64031 0.79533 0.32435 0.0
C1117 C 0.66217 0.80761 0.32689 0.0
C1118 C 0.67076 0.75797 0.25217 0.0
C1119 C 0.65815 0.77027 0.29368 0.0
C1120 C 0.66499 0.74763 0.23005 0.0
C1121 C 0.64354 0.73462 0.22728 0.0
C1122 C 0.65474 0.75574 0.27156 0.0
C1123 C 0.62865 0.73167 0.24745 0.0
C1124 C 0.6383 0.7764 0.30802 0.0
C1125 C 0.6824 0.79869 0.31477 0.0
N1126 N 0.63431 0.74252 0.26862 0.0
N1127 N 0.67975 0.78103 0.29805 0.0
H1128 H 0.4367 0.36496 0.57219 0.0
H1129 H 0.49591 0.41526 0.45473 0.0
H1130 H 0.43918 0.44107 0.55789 0.0
H1131 H 0.52401 0.35152 0.48897 0.0
H1132 H 0.47265 0.42397 0.4911 0.0
H1133 H 0.4676 0.35854 0.54143 0.0
C1134 C 0.4444 0.38038 0.5631 0.0
C1135 C 0.43578 0.40359 0.56777 0.0
C1136 C 0.48401 0.40815 0.49066 0.0
C1137 C 0.47003 0.39632 0.53185 0.0
C1138 C 0.49704 0.403 0.46983 0.0
C1139 C 0.51168 0.38247 0.46875 0.0
C1140 C 0.48525 0.39241 0.51036 0.0
C1141 C 0.51283 0.36746 0.48902 0.0
C1142 C 0.46185 0.37671 0.54546 0.0
C1143 C 0.44579 0.42296 0.55512 0.0
N1144 N 0.49954 0.37256 0.5089 0.0
N1145 N 0.46206 0.41884 0.53732 0.0
H1146 H 0.21191 0.68235 0.69587 0.0
H1147 H 0.12157 0.77613 0.75678 0.0
H1148 H 0.138 0.69008 0.67388 0.0
H1149 H 0.18029 0.74255 0.79486 0.0
H1150 H 0.13221 0.75292 0.72087 0.0
H1151 H 0.20568 0.71381 0.72621 0.0
C1152 C 0.1947 0.69147 0.69669 0.0
C1153 C 0.17545 0.68386 0.6823 0.0
C1154 C 0.14279 0.75075 0.73708 0.0
C1155 C 0.16812 0.71931 0.71704 0.0
C1156 C 0.13671 0.7639 0.75757 0.0
C1157 C 0.14985 0.76097 0.77893 0.0
C1158 C 0.16243 0.73493 0.7378 0.0
C1159 C 0.16942 0.74501 0.77889 0.0
C1160 C 0.19105 0.70908 0.71425 0.0
C1161 C 0.1533 0.69566 0.68456 0.0
N1162 N 0.17515 0.7326 0.75862 0.0
N1163 N 0.15017 0.71272 0.70175 0.0
H1164 H 0.49679 0.93607 0.03872 0.0
H1165 H 0.56073 0.87737 0.9282 0.0
H1166 H 0.47148 0.86907 0.00877 0.0
H1167 H 0.55975 0.95418 0.93822 0.0
H1168 H 0.52742 0.87357 0.9567 0.0
H1169 H 0.52059 0.9428 0.00234 0.0
C1170 C 0.49626 0.92276 0.02452 0.0
C1171 C 0.48235 0.90183 0.02691 0.0
C1172 C 0.534 0.89133 0.95215 0.0
C1173 C 0.50944 0.90949 0.98522 0.0
C1174 C 0.55281 0.8935 0.93573 0.0
C1175 C 0.56272 0.91612 0.93071 0.0
C1176 C 0.52562 0.91187 0.9642 0.0
C1177 C 0.55229 0.93647 0.94134 0.0
C1178 C 0.50963 0.92675 0.00365 0.0
C1179 C 0.48207 0.88537 0.00776 0.0
N1180 N 0.53466 0.93382 0.95808 0.0
N1181 N 0.49568 0.8894 0.98785 0.0
H1182 H 0.93405 0.03442 0.43783 0.0
H1183 H 0.02266 0.1273 0.50225 0.0
H1184 H 0.93818 0.10956 0.41947 0.0
H1185 H 0.99329 0.06428 0.53679 0.0
H1186 H 0.00192 0.11604 0.46511 0.0
H1187 H 0.96733 0.04 0.46624 0.0
C1188 C 0.94285 0.05178 0.43877 0.0
C1189 C 0.93336 0.07163 0.42645 0.0
C1190 C 0.00022 0.1046 0.48078 0.0
C1191 C 0.97089 0.07821 0.45904 0.0
C1192 C 0.01193 0.11104 0.50201 0.0
C1193 C 0.00934 0.09693 0.52279 0.0
C1194 C 0.9861 0.0837 0.48018 0.0
C1195 C 0.99538 0.07593 0.52134 0.0
C1196 C 0.9615 0.05505 0.45533 0.0
C1197 C 0.94506 0.09384 0.42869 0.0
N1198 N 0.98421 0.06998 0.5004 0.0
N1199 N 0.96299 0.09666 0.44502 0.0
loop_
_geom_bond_atom_site_label_1
_geom_bond_atom_site_label_2
_geom_bond_distance
_geom_bond_site_symmetry_2
_ccdc_geom_bond_type
Mg0 O1 2.028 . S
Mg0 O7 1.986 . S
Mg0 O9 2.114 . S
Mg0 O10 2.251 . S
Mg0 O13 2.010 . S
O1 Mg0 2.028 . S
O1 C4 1.250 . S
O2 Mg3 2.028 . S
O2 C4 1.248 . S
Mg3 O2 2.028 . S
Mg3 O8 2.032 . S
Mg3 O10 2.079 . S
C4 O1 1.250 . S
C4 O2 1.248 . S
C5 O6 1.264 . S
C5 O13 1.249 . S
O6 C5 1.264 . S
O7 Mg0 1.986 . S
O7 C11 1.246 . S
O8 Mg3 2.032 . S
O8 C11 1.259 . S
O9 Mg0 2.114 . S
O9 C12 1.252 . S
O10 Mg0 2.251 . S
O10 Mg3 2.079 . S
O10 C12 1.273 . S
C11 O7 1.246 . S
C11 O8 1.259 . S
C12 O9 1.252 . S
C12 O10 1.273 . S
O13 Mg0 2.010 . S
O13 C5 1.249 . S
Mg14 O15 2.028 . S
Mg14 O21 1.986 . S
Mg14 O23 2.114 . S
Mg14 O24 2.251 . S
Mg14 O27 2.010 . S
O15 Mg14 2.028 . S
O15 C18 1.250 . S
O16 Mg17 2.028 . S
O16 C18 1.248 . S
Mg17 O16 2.028 . S
Mg17 O22 2.032 . S
Mg17 O24 2.079 . S
C18 O15 1.250 . S
C18 O16 1.248 . S
C19 O20 1.264 . S
C19 O27 1.249 . S
O20 C19 1.264 . S
O21 Mg14 1.986 . S
O21 C25 1.246 . S
O22 Mg17 2.032 . S
O22 C25 1.259 . S
O23 Mg14 2.114 . S
O23 C26 1.252 . S
O24 Mg14 2.251 . S
O24 Mg17 2.079 . S
O24 C26 1.273 . S
C25 O21 1.246 . S
C25 O22 1.259 . S
C26 O23 1.252 . S
C26 O24 1.273 . S
O27 Mg14 2.010 . S
O27 C19 1.249 . S
Mg28 O29 2.028 . S
Mg28 O35 1.986 . S
Mg28 O37 2.114 . S
Mg28 O38 2.251 . S
Mg28 O41 2.010 . S
O29 Mg28 2.028 . S
O29 C32 1.250 . S
O30 Mg31 2.028 . S
O30 C32 1.248 . S
Mg31 O30 2.028 . S
Mg31 O36 2.032 . S
Mg31 O38 2.079 . S
C32 O29 1.250 . S
C32 O30 1.248 . S
C33 O34 1.264 . S
C33 O41 1.249 . S
O34 C33 1.264 . S
O35 Mg28 1.986 . S
O35 C39 1.246 . S
O36 Mg31 2.032 . S
O36 C39 1.259 . S
O37 Mg28 2.114 . S
O37 C40 1.252 . S
O38 Mg28 2.251 . S
O38 Mg31 2.079 . S
O38 C40 1.273 . S
C39 O35 1.246 . S
C39 O36 1.259 . S
C40 O37 1.252 . S
C40 O38 1.273 . S
O41 Mg28 2.010 . S
O41 C33 1.249 . S
Mg42 O43 2.028 . S
Mg42 O49 1.986 . S
Mg42 O51 2.114 . S
Mg42 O52 2.251 . S
Mg42 O55 2.010 . S
O43 Mg42 2.028 . S
O43 C46 1.250 . S
O44 Mg45 2.028 . S
O44 C46 1.248 . S
Mg45 O44 2.028 . S
Mg45 O50 2.032 . S
Mg45 O52 2.079 . S
C46 O43 1.250 . S
C46 O44 1.248 . S
C47 O48 1.264 . S
C47 O55 1.249 . S
O48 C47 1.264 . S
O49 Mg42 1.986 . S
O49 C53 1.246 . S
O50 Mg45 2.032 . S
O50 C53 1.259 . S
O51 Mg42 2.114 . S
O51 C54 1.252 . S
O52 Mg42 2.251 . S
O52 Mg45 2.079 . S
O52 C54 1.273 . S
C53 O49 1.246 . S
C53 O50 1.259 . S
C54 O51 1.252 . S
C54 O52 1.273 . S
O55 Mg42 2.010 . S
O55 C47 1.249 . S
Mg56 O57 2.028 . S
Mg56 O63 1.986 . S
Mg56 O65 2.114 . S
Mg56 O66 2.251 . S
Mg56 O69 2.010 . S
O57 Mg56 2.028 . S
O57 C60 1.250 . S
O58 Mg59 2.028 . S
O58 C60 1.248 . S
Mg59 O58 2.028 . S
Mg59 O64 2.032 . S
Mg59 O66 2.079 . S
C60 O57 1.250 . S
C60 O58 1.248 . S
C61 O62 1.264 . S
C61 O69 1.249 . S
O62 C61 1.264 . S
O63 Mg56 1.986 . S
O63 C67 1.246 . S
O64 Mg59 2.032 . S
O64 C67 1.259 . S
O65 Mg56 2.114 . S
O65 C68 1.252 . S
O66 Mg56 2.251 . S
O66 Mg59 2.079 . S
O66 C68 1.273 . S
C67 O63 1.246 . S
C67 O64 1.259 . S
C68 O65 1.252 . S
C68 O66 1.273 . S
O69 Mg56 2.010 . S
O69 C61 1.249 . S
Mg70 O71 2.028 . S
Mg70 O77 1.986 . S
Mg70 O79 2.114 . S
Mg70 O80 2.251 . S
Mg70 O83 2.010 . S
O71 Mg70 2.028 . S
O71 C74 1.250 . S
O72 Mg73 2.028 . S
O72 C74 1.248 . S
Mg73 O72 2.028 . S
Mg73 O78 2.032 . S
Mg73 O80 2.079 . S
C74 O71 1.250 . S
C74 O72 1.248 . S
C75 O76 1.264 . S
C75 O83 1.249 . S
O76 C75 1.264 . S
O77 Mg70 1.986 . S
O77 C81 1.246 . S
O78 Mg73 2.032 . S
O78 C81 1.259 . S
O79 Mg70 2.114 . S
O79 C82 1.252 . S
O80 Mg70 2.251 . S
O80 Mg73 2.079 . S
O80 C82 1.273 . S
C81 O77 1.246 . S
C81 O78 1.259 . S
C82 O79 1.252 . S
C82 O80 1.273 . S
O83 Mg70 2.010 . S
O83 C75 1.249 . S
Mg84 O85 2.028 . S
Mg84 O91 1.986 . S
Mg84 O93 2.114 . S
Mg84 O94 2.251 . S
Mg84 O97 2.010 . S
O85 Mg84 2.028 . S
O85 C88 1.250 . S
O86 Mg87 2.028 . S
O86 C88 1.248 . S
Mg87 O86 2.028 . S
Mg87 O92 2.032 . S
Mg87 O94 2.079 . S
C88 O85 1.250 . S
C88 O86 1.248 . S
C89 O90 1.264 . S
C89 O97 1.249 . S
O90 C89 1.264 . S
O91 Mg84 1.986 . S
O91 C95 1.246 . S
O92 Mg87 2.032 . S
O92 C95 1.259 . S
O93 Mg84 2.114 . S
O93 C96 1.252 . S
O94 Mg84 2.251 . S
O94 Mg87 2.079 . S
O94 C96 1.273 . S
C95 O91 1.246 . S
C95 O92 1.259 . S
C96 O93 1.252 . S
C96 O94 1.273 . S
O97 Mg84 2.010 . S
O97 C89 1.249 . S
Mg98 O99 2.028 . S
Mg98 O105 1.986 . S
Mg98 O107 2.114 . S
Mg98 O108 2.251 . S
Mg98 O111 2.010 . S
O99 Mg98 2.028 . S
O99 C102 1.250 . S
O100 Mg101 2.028 . S
O100 C102 1.248 . S
Mg101 O100 2.028 . S
Mg101 O106 2.032 . S
Mg101 O108 2.079 . S
C102 O99 1.250 . S
C102 O100 1.248 . S
C103 O104 1.264 . S
C103 O111 1.249 . S
O104 C103 1.264 . S
O105 Mg98 1.986 . S
O105 C109 1.246 . S
O106 Mg101 2.032 . S
O106 C109 1.259 . S
O107 Mg98 2.114 . S
O107 C110 1.252 . S
O108 Mg98 2.251 . S
O108 Mg101 2.079 . S
O108 C110 1.273 . S
C109 O105 1.246 . S
C109 O106 1.259 . S
C110 O107 1.252 . S
C110 O108 1.273 . S
O111 Mg98 2.010 . S
O111 C103 1.249 . S
Mg112 O113 2.028 . S
Mg112 O119 1.986 . S
Mg112 O121 2.114 . S
Mg112 O122 2.251 . S
Mg112 O125 2.010 . S
O113 Mg112 2.028 . S
O113 C116 1.250 . S
O114 Mg115 2.028 . S
O114 C116 1.248 . S
Mg115 O114 2.028 . S
Mg115 O120 2.032 . S
Mg115 O122 2.079 . S
C116 O113 1.250 . S
C116 O114 1.248 . S
C117 O118 1.264 . S
C117 O125 1.249 . S
O118 C117 1.264 . S
O119 Mg112 1.986 . S
O119 C123 1.246 . S
O120 Mg115 2.032 . S
O120 C123 1.259 . S
O121 Mg112 2.114 . S
O121 C124 1.252 . S
O122 Mg112 2.251 . S
O122 Mg115 2.079 . S
O122 C124 1.273 . S
C123 O119 1.246 . S
C123 O120 1.259 . S
C124 O121 1.252 . S
C124 O122 1.273 . S
O125 Mg112 2.010 . S
O125 C117 1.249 . S
Mg126 O127 2.028 . S
Mg126 O133 1.986 . S
Mg126 O135 2.114 . S
Mg126 O136 2.251 . S
Mg126 O139 2.010 . S
O127 Mg126 2.028 . S
O127 C130 1.250 . S
O128 Mg129 2.028 . S
O128 C130 1.248 . S
Mg129 O128 2.028 . S
Mg129 O134 2.032 . S
Mg129 O136 2.079 . S
C130 O127 1.250 . S
C130 O128 1.248 . S
C131 O132 1.264 . S
C131 O139 1.249 . S
O132 C131 1.264 . S
O133 Mg126 1.986 . S
O133 C137 1.246 . S
O134 Mg129 2.032 . S
O134 C137 1.259 . S
O135 Mg126 2.114 . S
O135 C138 1.252 . S
O136 Mg126 2.251 . S
O136 Mg129 2.079 . S
O136 C138 1.273 . S
C137 O133 1.246 . S
C137 O134 1.259 . S
C138 O135 1.252 . S
C138 O136 1.273 . S
O139 Mg126 2.010 . S
O139 C131 1.249 . S
Mg140 O141 2.028 . S
Mg140 O147 1.986 . S
Mg140 O149 2.114 . S
Mg140 O150 2.251 . S
Mg140 O153 2.010 . S
O141 Mg140 2.028 . S
O141 C144 1.250 . S
O142 Mg143 2.028 . S
O142 C144 1.248 . S
Mg143 O142 2.028 . S
Mg143 O148 2.032 . S
Mg143 O150 2.079 . S
C144 O141 1.250 . S
C144 O142 1.248 . S
C145 O146 1.264 . S
C145 O153 1.249 . S
O146 C145 1.264 . S
O147 Mg140 1.986 . S
O147 C151 1.246 . S
O148 Mg143 2.032 . S
O148 C151 1.259 . S
O149 Mg140 2.114 . S
O149 C152 1.252 . S
O150 Mg140 2.251 . S
O150 Mg143 2.079 . S
O150 C152 1.273 . S
C151 O147 1.246 . S
C151 O148 1.259 . S
C152 O149 1.252 . S
C152 O150 1.273 . S
O153 Mg140 2.010 . S
O153 C145 1.249 . S
Mg154 O155 2.028 . S
Mg154 O161 1.986 . S
Mg154 O163 2.114 . S
Mg154 O164 2.251 . S
Mg154 O167 2.010 . S
O155 Mg154 2.028 . S
O155 C158 1.250 . S
O156 Mg157 2.028 . S
O156 C158 1.248 . S
Mg157 O156 2.028 . S
Mg157 O162 2.032 . S
Mg157 O164 2.079 . S
C158 O155 1.250 . S
C158 O156 1.248 . S
C159 O160 1.264 . S
C159 O167 1.249 . S
O160 C159 1.264 . S
O161 Mg154 1.986 . S
O161 C165 1.246 . S
O162 Mg157 2.032 . S
O162 C165 1.259 . S
O163 Mg154 2.114 . S
O163 C166 1.252 . S
O164 Mg154 2.251 . S
O164 Mg157 2.079 . S
O164 C166 1.273 . S
C165 O161 1.246 . S
C165 O162 1.259 . S
C166 O163 1.252 . S
C166 O164 1.273 . S
O167 Mg154 2.010 . S
O167 C159 1.249 . S
Mg168 O169 2.028 . S
Mg168 O175 1.986 . S
Mg168 O177 2.114 . S
Mg168 O178 2.251 . S
Mg168 O181 2.010 . S
O169 Mg168 2.028 . S
O169 C172 1.250 . S
O170 Mg171 2.028 . S
O170 C172 1.248 . S
Mg171 O170 2.028 . S
Mg171 O176 2.032 . S
Mg171 O178 2.079 . S
C172 O169 1.250 . S
C172 O170 1.248 . S
C173 O174 1.264 . S
C173 O181 1.249 . S
O174 C173 1.264 . S
O175 Mg168 1.986 . S
O175 C179 1.246 . S
O176 Mg171 2.032 . S
O176 C179 1.259 . S
O177 Mg168 2.114 . S
O177 C180 1.252 . S
O178 Mg168 2.251 . S
O178 Mg171 2.079 . S
O178 C180 1.273 . S
C179 O175 1.246 . S
C179 O176 1.259 . S
C180 O177 1.252 . S
C180 O178 1.273 . S
O181 Mg168 2.010 . S
O181 C173 1.249 . S
Mg182 O183 2.028 . S
Mg182 O189 1.986 . S
Mg182 O191 2.114 . S
Mg182 O192 2.251 . S
Mg182 O195 2.010 . S
O183 Mg182 2.028 . S
O183 C186 1.250 . S
O184 Mg185 2.028 . S
O184 C186 1.248 . S
Mg185 O184 2.028 . S
Mg185 O190 2.032 . S
Mg185 O192 2.079 . S
C186 O183 1.250 . S
C186 O184 1.248 . S
C187 O188 1.264 . S
C187 O195 1.249 . S
O188 C187 1.264 . S
O189 Mg182 1.986 . S
O189 C193 1.246 . S
O190 Mg185 2.032 . S
O190 C193 1.259 . S
O191 Mg182 2.114 . S
O191 C194 1.252 . S
O192 Mg182 2.251 . S
O192 Mg185 2.079 . S
O192 C194 1.273 . S
C193 O189 1.246 . S
C193 O190 1.259 . S
C194 O191 1.252 . S
C194 O192 1.273 . S
O195 Mg182 2.010 . S
O195 C187 1.249 . S
Mg196 O197 2.028 . S
Mg196 O203 1.986 . S
Mg196 O205 2.114 . S
Mg196 O206 2.251 . S
Mg196 O209 2.010 . S
O197 Mg196 2.028 . S
O197 C200 1.250 . S
O198 Mg199 2.028 . S
O198 C200 1.248 . S
Mg199 O198 2.028 . S
Mg199 O204 2.032 . S
Mg199 O206 2.079 . S
C200 O197 1.250 . S
C200 O198 1.248 . S
C201 O202 1.264 . S
C201 O209 1.249 . S
O202 C201 1.264 . S
O203 Mg196 1.986 . S
O203 C207 1.246 . S
O204 Mg199 2.032 . S
O204 C207 1.259 . S
O205 Mg196 2.114 . S
O205 C208 1.252 . S
O206 Mg196 2.251 . S
O206 Mg199 2.079 . S
O206 C208 1.273 . S
C207 O203 1.246 . S
C207 O204 1.259 . S
C208 O205 1.252 . S
C208 O206 1.273 . S
O209 Mg196 2.010 . S
O209 C201 1.249 . S
Mg210 O211 2.028 . S
Mg210 O217 1.986 . S
Mg210 O219 2.114 . S
Mg210 O220 2.251 . S
Mg210 O223 2.010 . S
O211 Mg210 2.028 . S
O211 C214 1.250 . S
O212 Mg213 2.028 . S
O212 C214 1.248 . S
Mg213 O212 2.028 . S
Mg213 O218 2.032 . S
Mg213 O220 2.079 . S
C214 O211 1.250 . S
C214 O212 1.248 . S
C215 O216 1.264 . S
C215 O223 1.249 . S
O216 C215 1.264 . S
O217 Mg210 1.986 . S
O217 C221 1.246 . S
O218 Mg213 2.032 . S
O218 C221 1.259 . S
O219 Mg210 2.114 . S
O219 C222 1.252 . S
O220 Mg210 2.251 . S
O220 Mg213 2.079 . S
O220 C222 1.273 . S
C221 O217 1.246 . S
C221 O218 1.259 . S
C222 O219 1.252 . S
C222 O220 1.273 . S
O223 Mg210 2.010 . S
O223 C215 1.249 . S
Mg224 O225 2.028 . S
Mg224 O231 1.986 . S
Mg224 O233 2.114 . S
Mg224 O234 2.251 . S
Mg224 O237 2.010 . S
O225 Mg224 2.028 . S
O225 C228 1.250 . S
O226 Mg227 2.028 . S
O226 C228 1.248 . S
Mg227 O226 2.028 . S
Mg227 O232 2.032 . S
Mg227 O234 2.079 . S
C228 O225 1.250 . S
C228 O226 1.248 . S
C229 O230 1.264 . S
C229 O237 1.249 . S
O230 C229 1.264 . S
O231 Mg224 1.986 . S
O231 C235 1.246 . S
O232 Mg227 2.032 . S
O232 C235 1.259 . S
O233 Mg224 2.114 . S
O233 C236 1.252 . S
O234 Mg224 2.251 . S
O234 Mg227 2.079 . S
O234 C236 1.273 . S
C235 O231 1.246 . S
C235 O232 1.259 . S
C236 O233 1.252 . S
C236 O234 1.273 . S
O237 Mg224 2.010 . S
O237 C229 1.249 . S
Mg238 O239 2.028 . S
Mg238 O245 1.986 . S
Mg238 O247 2.114 . S
Mg238 O248 2.251 . S
Mg238 O251 2.010 . S
O239 Mg238 2.028 . S
O239 C242 1.250 . S
O240 Mg241 2.028 . S
O240 C242 1.248 . S
Mg241 O240 2.028 . S
Mg241 O246 2.032 . S
Mg241 O248 2.079 . S
C242 O239 1.250 . S
C242 O240 1.248 . S
C243 O244 1.264 . S
C243 O251 1.249 . S
O244 C243 1.264 . S
O245 Mg238 1.986 . S
O245 C249 1.246 . S
O246 Mg241 2.032 . S
O246 C249 1.259 . S
O247 Mg238 2.114 . S
O247 C250 1.252 . S
O248 Mg238 2.251 . S
O248 Mg241 2.079 . S
O248 C250 1.273 . S
C249 O245 1.246 . S
C249 O246 1.259 . S
C250 O247 1.252 . S
C250 O248 1.273 . S
O251 Mg238 2.010 . S
O251 C243 1.249 . S
Mg252 O253 2.028 . S
Mg252 O259 1.986 . S
Mg252 O261 2.114 . S
Mg252 O262 2.251 . S
Mg252 O265 2.010 . S
O253 Mg252 2.028 . S
O253 C256 1.250 . S
O254 Mg255 2.028 . S
O254 C256 1.248 . S
Mg255 O254 2.028 . S
Mg255 O260 2.032 . S
Mg255 O262 2.079 . S
C256 O253 1.250 . S
C256 O254 1.248 . S
C257 O258 1.264 . S
C257 O265 1.249 . S
O258 C257 1.264 . S
O259 Mg252 1.986 . S
O259 C263 1.246 . S
O260 Mg255 2.032 . S
O260 C263 1.259 . S
O261 Mg252 2.114 . S
O261 C264 1.252 . S
O262 Mg252 2.251 . S
O262 Mg255 2.079 . S
O262 C264 1.273 . S
C263 O259 1.246 . S
C263 O260 1.259 . S
C264 O261 1.252 . S
C264 O262 1.273 . S
O265 Mg252 2.010 . S
O265 C257 1.249 . S
Mg266 O267 2.028 . S
Mg266 O273 1.986 . S
Mg266 O275 2.114 . S
Mg266 O276 2.251 . S
Mg266 O279 2.010 . S
O267 Mg266 2.028 . S
O267 C270 1.250 . S
O268 Mg269 2.028 . S
O268 C270 1.248 . S
Mg269 O268 2.028 . S
Mg269 O274 2.032 . S
Mg269 O276 2.079 . S
C270 O267 1.250 . S
C270 O268 1.248 . S
C271 O272 1.264 . S
C271 O279 1.249 . S
O272 C271 1.264 . S
O273 Mg266 1.986 . S
O273 C277 1.246 . S
O274 Mg269 2.032 . S
O274 C277 1.259 . S
O275 Mg266 2.114 . S
O275 C278 1.252 . S
O276 Mg266 2.251 . S
O276 Mg269 2.079 . S
O276 C278 1.273 . S
C277 O273 1.246 . S
C277 O274 1.259 . S
C278 O275 1.252 . S
C278 O276 1.273 . S
O279 Mg266 2.010 . S
O279 C271 1.249 . S
Mg280 O281 2.028 . S
Mg280 O287 1.986 . S
Mg280 O289 2.114 . S
Mg280 O290 2.251 . S
Mg280 O293 2.010 . S
O281 Mg280 2.028 . S
O281 C284 1.250 . S
O282 Mg283 2.028 . S
O282 C284 1.248 . S
Mg283 O282 2.028 . S
Mg283 O288 2.032 . S
Mg283 O290 2.079 . S
C284 O281 1.250 . S
C284 O282 1.248 . S
C285 O286 1.264 . S
C285 O293 1.249 . S
O286 C285 1.264 . S
O287 Mg280 1.986 . S
O287 C291 1.246 . S
O288 Mg283 2.032 . S
O288 C291 1.259 . S
O289 Mg280 2.114 . S
O289 C292 1.252 . S
O290 Mg280 2.251 . S
O290 Mg283 2.079 . S
O290 C292 1.273 . S
C291 O287 1.246 . S
C291 O288 1.259 . S
C292 O289 1.252 . S
C292 O290 1.273 . S
O293 Mg280 2.010 . S
O293 C285 1.249 . S
Mg294 O295 2.028 . S
Mg294 O301 1.986 . S
Mg294 O303 2.114 . S
Mg294 O304 2.251 . S
Mg294 O307 2.010 . S
O295 Mg294 2.028 . S
O295 C298 1.250 . S
O296 Mg297 2.028 . S
O296 C298 1.248 . S
Mg297 O296 2.028 . S
Mg297 O302 2.032 . S
Mg297 O304 2.079 . S
C298 O295 1.250 . S
C298 O296 1.248 . S
C299 O300 1.264 . S
C299 O307 1.249 . S
O300 C299 1.264 . S
O301 Mg294 1.986 . S
O301 C305 1.246 . S
O302 Mg297 2.032 . S
O302 C305 1.259 . S
O303 Mg294 2.114 . S
O303 C306 1.252 . S
O304 Mg294 2.251 . S
O304 Mg297 2.079 . S
O304 C306 1.273 . S
C305 O301 1.246 . S
C305 O302 1.259 . S
C306 O303 1.252 . S
C306 O304 1.273 . S
O307 Mg294 2.010 . S
O307 C299 1.249 . S
Mg308 O309 2.028 . S
Mg308 O315 1.986 . S
Mg308 O317 2.114 . S
Mg308 O318 2.251 . S
Mg308 O321 2.010 . S
O309 Mg308 2.028 . S
O309 C312 1.250 . S
O310 Mg311 2.028 . S
O310 C312 1.248 . S
Mg311 O310 2.028 . S
Mg311 O316 2.032 . S
Mg311 O318 2.079 . S
C312 O309 1.250 . S
C312 O310 1.248 . S
C313 O314 1.264 . S
C313 O321 1.249 . S
O314 C313 1.264 . S
O315 Mg308 1.986 . S
O315 C319 1.246 . S
O316 Mg311 2.032 . S
O316 C319 1.259 . S
O317 Mg308 2.114 . S
O317 C320 1.252 . S
O318 Mg308 2.251 . S
O318 Mg311 2.079 . S
O318 C320 1.273 . S
C319 O315 1.246 . S
C319 O316 1.259 . S
C320 O317 1.252 . S
C320 O318 1.273 . S
O321 Mg308 2.010 . S
O321 C313 1.249 . S
Mg322 O323 2.028 . S
Mg322 O329 1.986 . S
Mg322 O331 2.114 . S
Mg322 O332 2.251 . S
Mg322 O335 2.010 . S
O323 Mg322 2.028 . S
O323 C326 1.250 . S
O324 Mg325 2.028 . S
O324 C326 1.248 . S
Mg325 O324 2.028 . S
Mg325 O330 2.032 . S
Mg325 O332 2.079 . S
C326 O323 1.250 . S
C326 O324 1.248 . S
C327 O328 1.264 . S
C327 O335 1.249 . S
O328 C327 1.264 . S
O329 Mg322 1.986 . S
O329 C333 1.246 . S
O330 Mg325 2.032 . S
O330 C333 1.259 . S
O331 Mg322 2.114 . S
O331 C334 1.252 . S
O332 Mg322 2.251 . S
O332 Mg325 2.079 . S
O332 C334 1.273 . S
C333 O329 1.246 . S
C333 O330 1.259 . S
C334 O331 1.252 . S
C334 O332 1.273 . S
O335 Mg322 2.010 . S
O335 C327 1.249 . S
H336 C342 0.930 . S
H337 C346 0.930 . S
H338 C351 0.929 . S
H339 C349 0.929 . S
H340 C344 0.929 . S
H341 C350 0.929 . S
C342 H336 0.930 . S
C342 C343 1.367 . S
C342 C350 1.378 . S
C343 C342 1.367 . S
C343 C351 1.433 . S
C344 H340 0.929 . S
C344 C346 1.378 . S
C344 C348 1.350 . S
C345 C348 1.463 . S
C345 C350 1.350 . S
C345 N353 1.427 . S
C346 H337 0.930 . S
C346 C344 1.378 . S
C346 C347 1.367 . S
C347 C346 1.367 . S
C347 C349 1.433 . S
C348 C344 1.350 . S
C348 C345 1.463 . S
C348 N352 1.427 . S
C349 H339 0.929 . S
C349 C347 1.433 . S
C349 N352 1.384 . S
C350 H341 0.929 . S
C350 C342 1.378 . S
C350 C345 1.350 . S
C351 H338 0.929 . S
C351 C343 1.433 . S
C351 N353 1.384 . S
N352 C348 1.427 . S
N352 C349 1.384 . S
N353 C345 1.427 . S
N353 C351 1.384 . S
H354 C360 0.930 . S
H355 C364 0.930 . S
H356 C369 0.942 . S
H357 C367 0.929 . S
H358 C362 0.929 . S
H359 C368 0.929 . S
C360 H354 0.930 . S
C360 C361 1.367 . S
C360 C368 1.378 . S
C361 C360 1.367 . S
C361 C369 1.433 1_455 S
C362 H358 0.929 . S
C362 C364 1.378 . S
C362 C366 1.350 . S
C363 C366 1.463 . S
C363 C368 1.350 . S
C363 N371 1.427 . S
C364 H355 0.930 . S
C364 C362 1.378 . S
C364 C365 1.367 . S
C365 C364 1.367 . S
C365 C367 1.433 . S
C366 C362 1.350 . S
C366 C363 1.463 . S
C366 N370 1.427 . S
C367 H357 0.929 . S
C367 C365 1.433 . S
C367 N370 1.384 . S
C368 H359 0.929 . S
C368 C360 1.378 . S
C368 C363 1.350 . S
C369 H356 0.942 . S
C369 C361 1.433 1_655 S
C369 N371 1.371 1_655 S
N370 C366 1.427 . S
N370 C367 1.384 . S
N371 C363 1.427 . S
N371 C369 1.371 1_455 S
H372 C378 0.930 . S
H373 C382 0.930 . S
H374 C387 0.929 . S
H375 C385 0.929 . S
H376 C380 0.929 . S
H377 C386 0.929 . S
C378 H372 0.930 . S
C378 C379 1.367 . S
C378 C386 1.378 . S
C379 C378 1.367 . S
C379 C387 1.433 . S
C380 H376 0.929 . S
C380 C382 1.378 . S
C380 C384 1.350 . S
C381 C384 1.463 . S
C381 C386 1.350 . S
C381 N389 1.427 . S
C382 H373 0.930 . S
C382 C380 1.378 . S
C382 C383 1.373 . S
C383 C382 1.373 . S
C383 C385 1.432 1_556 S
C384 C380 1.350 . S
C384 C381 1.463 . S
C384 N388 1.427 . S
C385 H375 0.929 . S
C385 C383 1.432 1_554 S
C385 N388 1.384 1_554 S
C386 H377 0.929 . S
C386 C378 1.378 . S
C386 C381 1.350 . S
C387 H374 0.929 . S
C387 C379 1.433 . S
C387 N389 1.384 . S
N388 C384 1.427 . S
N388 C385 1.384 1_556 S
N389 C381 1.427 . S
N389 C387 1.384 . S
H390 C396 0.930 . S
H391 C400 0.930 . S
H392 C405 0.929 . S
H393 C403 0.929 . S
H394 C398 0.929 . S
H395 C404 0.929 . S
C396 H390 0.930 . S
C396 C397 1.367 . S
C396 C404 1.378 . S
C397 C396 1.367 . S
C397 C405 1.433 . S
C398 H394 0.929 . S
C398 C400 1.378 . S
C398 C402 1.350 . S
C399 C402 1.463 . S
C399 C404 1.350 . S
C399 N407 1.427 . S
C400 H391 0.930 . S
C400 C398 1.378 . S
C400 C401 1.367 . S
C401 C400 1.367 . S
C401 C403 1.433 . S
C402 C398 1.350 . S
C402 C399 1.463 . S
C402 N406 1.427 . S
C403 H393 0.929 . S
C403 C401 1.433 . S
C403 N406 1.384 . S
C404 H395 0.929 . S
C404 C396 1.378 . S
C404 C399 1.350 . S
C405 H392 0.929 . S
C405 C397 1.433 . S
C405 N407 1.384 . S
N406 C402 1.427 . S
N406 C403 1.384 . S
N407 C399 1.427 . S
N407 C405 1.384 . S
H408 C414 0.930 . S
H409 C418 0.930 . S
H410 C423 0.929 . S
H411 C421 0.929 . S
H412 C416 0.929 . S
H413 C422 0.929 . S
C414 H408 0.930 . S
C414 C415 1.367 . S
C414 C422 1.378 . S
C415 C414 1.367 . S
C415 C423 1.433 . S
C416 H412 0.929 . S
C416 C418 1.378 . S
C416 C420 1.350 . S
C417 C420 1.463 . S
C417 C422 1.350 . S
C417 N425 1.427 . S
C418 H409 0.930 . S
C418 C416 1.378 . S
C418 C419 1.367 . S
C419 C418 1.367 . S
C419 C421 1.433 . S
C420 C416 1.350 . S
C420 C417 1.463 . S
C420 N424 1.427 . S
C421 H411 0.929 . S
C421 C419 1.433 . S
C421 N424 1.384 . S
C422 H413 0.929 . S
C422 C414 1.378 . S
C422 C417 1.350 . S
C423 H410 0.929 . S
C423 C415 1.433 . S
C423 N425 1.384 . S
N424 C420 1.427 . S
N424 C421 1.384 . S
N425 C417 1.427 . S
N425 C423 1.384 . S
H426 C432 0.930 . S
H427 C436 0.930 . S
H428 C441 0.929 . S
H429 C439 0.929 . S
H430 C434 0.929 . S
H431 C440 0.929 . S
C432 H426 0.930 . S
C432 C433 1.367 . S
C432 C440 1.378 . S
C433 C432 1.367 . S
C433 C441 1.433 . S
C434 H430 0.929 . S
C434 C436 1.378 . S
C434 C438 1.350 . S
C435 C438 1.463 . S
C435 C440 1.350 . S
C435 N443 1.427 . S
C436 H427 0.930 . S
C436 C434 1.378 . S
C436 C437 1.370 . S
C437 C436 1.370 . S
C437 C439 1.433 1_655 S
C438 C434 1.350 . S
C438 C435 1.463 . S
C438 N442 1.427 . S
C439 H429 0.929 . S
C439 C437 1.433 1_455 S
C439 N442 1.384 1_455 S
C440 H431 0.929 . S
C440 C432 1.378 . S
C440 C435 1.350 . S
C441 H428 0.929 . S
C441 C433 1.433 . S
C441 N443 1.384 . S
N442 C438 1.427 . S
N442 C439 1.384 1_655 S
N443 C435 1.427 . S
N443 C441 1.384 . S
H444 C450 0.930 . S
H445 C454 0.930 1_556 S
H446 C459 0.929 . S
H447 C457 0.929 . S
H448 C452 0.929 . S
H449 C458 0.929 . S
C450 H444 0.930 . S
C450 C451 1.367 . S
C450 C458 1.378 . S
C451 C450 1.367 . S
C451 C459 1.433 . S
C452 H448 0.929 . S
C452 C454 1.378 . S
C452 C456 1.350 . S
C453 C456 1.463 . S
C453 C458 1.350 . S
C453 N461 1.427 . S
C454 H445 0.930 1_554 S
C454 C452 1.378 . S
C454 C455 1.366 1_554 S
C455 C454 1.366 1_556 S
C455 C457 1.432 1_556 S
C456 C452 1.350 . S
C456 C453 1.463 . S
C456 N460 1.427 . S
C457 H447 0.929 . S
C457 C455 1.432 1_554 S
C457 N460 1.384 . S
C458 H449 0.929 . S
C458 C450 1.378 . S
C458 C453 1.350 . S
C459 H446 0.929 . S
C459 C451 1.433 . S
C459 N461 1.384 . S
N460 C456 1.427 . S
N460 C457 1.384 . S
N461 C453 1.427 . S
N461 C459 1.384 . S
H462 C468 0.930 . S
H463 C472 0.930 . S
H464 C477 0.929 . S
H465 C475 0.929 . S
H466 C470 0.929 . S
H467 C476 0.929 . S
C468 H462 0.930 . S
C468 C469 1.367 . S
C468 C476 1.378 . S
C469 C468 1.367 . S
C469 C477 1.433 . S
C470 H466 0.929 . S
C470 C472 1.378 . S
C470 C474 1.350 . S
C471 C474 1.463 . S
C471 C476 1.350 . S
C471 N479 1.427 . S
C472 H463 0.930 . S
C472 C470 1.378 . S
C472 C473 1.367 . S
C473 C472 1.367 . S
C473 C475 1.433 . S
C474 C470 1.350 . S
C474 C471 1.463 . S
C474 N478 1.427 . S
C475 H465 0.929 . S
C475 C473 1.433 . S
C475 N478 1.384 . S
C476 H467 0.929 . S
C476 C468 1.378 . S
C476 C471 1.350 . S
C477 H464 0.929 . S
C477 C469 1.433 . S
C477 N479 1.384 . S
N478 C474 1.427 . S
N478 C475 1.384 . S
N479 C471 1.427 . S
N479 C477 1.384 . S
H480 C486 0.930 . S
H481 C490 0.930 . S
H482 C495 0.929 . S
H483 C493 0.929 . S
H484 C488 0.929 . S
H485 C494 0.929 . S
C486 H480 0.930 . S
C486 C487 1.367 . S
C486 C494 1.378 . S
C487 C486 1.367 . S
C487 C495 1.433 . S
C488 H484 0.929 . S
C488 C490 1.378 . S
C488 C492 1.350 . S
C489 C492 1.463 . S
C489 C494 1.350 . S
C489 N497 1.427 . S
C490 H481 0.930 . S
C490 C488 1.378 . S
C490 C491 1.367 . S
C491 C490 1.367 . S
C491 C493 1.433 . S
C492 C488 1.350 . S
C492 C489 1.463 . S
C492 N496 1.427 . S
C493 H483 0.929 . S
C493 C491 1.433 . S
C493 N496 1.384 . S
C494 H485 0.929 . S
C494 C486 1.378 . S
C494 C489 1.350 . S
C495 H482 0.929 . S
C495 C487 1.433 . S
C495 N497 1.384 . S
N496 C492 1.427 . S
N496 C493 1.384 . S
N497 C489 1.427 . S
N497 C495 1.384 . S
H498 C504 0.930 . S
H499 C508 0.930 . S
H500 C513 0.929 . S
H501 C511 0.929 . S
H502 C506 0.929 . S
H503 C512 0.929 . S
C504 H498 0.930 . S
C504 C505 1.371 . S
C504 C512 1.378 1_565 S
C505 C504 1.371 . S
C505 C513 1.417 1_565 S
C506 H502 0.929 . S
C506 C508 1.378 . S
C506 C510 1.350 . S
C507 C510 1.463 . S
C507 C512 1.350 . S
C507 N515 1.427 . S
C508 H499 0.930 . S
C508 C506 1.378 . S
C508 C509 1.367 . S
C509 C508 1.367 . S
C509 C511 1.433 . S
C510 C506 1.350 . S
C510 C507 1.463 . S
C510 N514 1.427 . S
C511 H501 0.929 . S
C511 C509 1.433 . S
C511 N514 1.384 . S
C512 H503 0.929 . S
C512 C504 1.378 1_545 S
C512 C507 1.350 . S
C513 H500 0.929 . S
C513 C505 1.417 1_545 S
C513 N515 1.384 . S
N514 C510 1.427 . S
N514 C511 1.384 . S
N515 C507 1.427 . S
N515 C513 1.384 . S
H516 C522 0.930 . S
H517 C526 0.930 . S
H518 C531 0.929 . S
H519 C529 0.929 . S
H520 C524 0.929 . S
H521 C530 0.929 . S
C522 H516 0.930 . S
C522 C523 1.367 . S
C522 C530 1.378 . S
C523 C522 1.367 . S
C523 C531 1.433 . S
C524 H520 0.929 . S
C524 C526 1.378 . S
C524 C528 1.350 . S
C525 C528 1.463 . S
C525 C530 1.350 . S
C525 N533 1.427 . S
C526 H517 0.930 . S
C526 C524 1.378 . S
C526 C527 1.375 . S
C527 C526 1.375 . S
C527 C529 1.431 1_565 S
C528 C524 1.350 . S
C528 C525 1.463 . S
C528 N532 1.427 . S
C529 H519 0.929 . S
C529 C527 1.431 1_545 S
C529 N532 1.384 1_545 S
C530 H521 0.929 . S
C530 C522 1.378 . S
C530 C525 1.350 . S
C531 H518 0.929 . S
C531 C523 1.433 . S
C531 N533 1.384 . S
N532 C528 1.427 . S
N532 C529 1.384 1_565 S
N533 C525 1.427 . S
N533 C531 1.384 . S
H534 C540 0.930 . S
H535 C544 0.930 . S
H536 C549 0.929 . S
H537 C547 0.929 . S
H538 C542 0.929 . S
H539 C548 0.929 . S
C540 H534 0.930 . S
C540 C541 1.367 . S
C540 C548 1.378 . S
C541 C540 1.367 . S
C541 C549 1.433 . S
C542 H538 0.929 . S
C542 C544 1.378 . S
C542 C546 1.350 . S
C543 C546 1.463 . S
C543 C548 1.350 . S
C543 N551 1.427 . S
C544 H535 0.930 . S
C544 C542 1.378 . S
C544 C545 1.367 . S
C545 C544 1.367 . S
C545 C547 1.433 . S
C546 C542 1.350 . S
C546 C543 1.463 . S
C546 N550 1.427 . S
C547 H537 0.929 . S
C547 C545 1.433 . S
C547 N550 1.384 . S
C548 H539 0.929 . S
C548 C540 1.378 . S
C548 C543 1.350 . S
C549 H536 0.929 . S
C549 C541 1.433 . S
C549 N551 1.384 . S
N550 C546 1.427 . S
N550 C547 1.384 . S
N551 C543 1.427 . S
N551 C549 1.384 . S
H552 C558 0.930 . S
H553 C562 0.930 . S
H554 C567 0.929 . S
H555 C565 0.929 . S
H556 C560 0.929 . S
H557 C566 0.929 . S
C558 H552 0.930 . S
C558 C559 1.367 . S
C558 C566 1.378 . S
C559 C558 1.367 . S
C559 C567 1.433 . S
C560 H556 0.929 . S
C560 C562 1.378 . S
C560 C564 1.350 . S
C561 C564 1.463 . S
C561 C566 1.350 . S
C561 N569 1.427 . S
C562 H553 0.930 . S
C562 C560 1.378 . S
C562 C563 1.367 . S
C563 C562 1.367 . S
C563 C565 1.433 . S
C564 C560 1.350 . S
C564 C561 1.463 . S
C564 N568 1.427 . S
C565 H555 0.929 . S
C565 C563 1.433 . S
C565 N568 1.384 . S
C566 H557 0.929 . S
C566 C558 1.378 . S
C566 C561 1.350 . S
C567 H554 0.929 . S
C567 C559 1.433 . S
C567 N569 1.384 . S
N568 C564 1.427 . S
N568 C565 1.384 . S
N569 C561 1.427 . S
N569 C567 1.384 . S
H570 C576 0.930 . S
H571 C580 0.930 . S
H572 C585 0.929 . S
H573 C583 0.929 . S
H574 C578 0.929 . S
H575 C584 0.929 . S
C576 H570 0.930 . S
C576 C577 1.367 1_545 S
C576 C584 1.378 . S
C577 C576 1.367 1_565 S
C577 C585 1.433 . S
C578 H574 0.929 . S
C578 C580 1.378 . S
C578 C582 1.350 . S
C579 C582 1.463 . S
C579 C584 1.350 . S
C579 N587 1.427 1_545 S
C580 H571 0.930 . S
C580 C578 1.378 . S
C580 C581 1.367 . S
C581 C580 1.367 . S
C581 C583 1.433 . S
C582 C578 1.350 . S
C582 C579 1.463 . S
C582 N586 1.427 . S
C583 H573 0.929 . S
C583 C581 1.433 . S
C583 N586 1.384 . S
C584 H575 0.929 . S
C584 C576 1.378 . S
C584 C579 1.350 . S
C585 H572 0.929 . S
C585 C577 1.433 . S
C585 N587 1.384 . S
N586 C582 1.427 . S
N586 C583 1.384 . S
N587 C579 1.427 1_565 S
N587 C585 1.384 . S
H588 C594 0.930 . S
H589 C598 0.930 . S
H590 C603 0.929 . S
H591 C601 0.929 . S
H592 C596 0.927 1_554 S
H593 C602 0.929 . S
C594 H588 0.930 . S
C594 C595 1.367 . S
C594 C602 1.378 . S
C595 C594 1.367 . S
C595 C603 1.433 . S
C596 H592 0.927 1_556 S
C596 C598 1.371 1_556 S
C596 C600 1.358 . S
C597 C600 1.463 . S
C597 C602 1.350 . S
C597 N605 1.427 . S
C598 H589 0.930 . S
C598 C596 1.371 1_554 S
C598 C599 1.367 . S
C599 C598 1.367 . S
C599 C601 1.433 1_554 S
C600 C596 1.358 . S
C600 C597 1.463 . S
C600 N604 1.427 . S
C601 H591 0.929 . S
C601 C599 1.433 1_556 S
C601 N604 1.384 . S
C602 H593 0.929 . S
C602 C594 1.378 . S
C602 C597 1.350 . S
C603 H590 0.929 . S
C603 C595 1.433 . S
C603 N605 1.384 . S
N604 C600 1.427 . S
N604 C601 1.384 . S
N605 C597 1.427 . S
N605 C603 1.384 . S
H606 C612 0.930 . S
H607 C616 0.930 . S
H608 C621 0.929 . S
H609 C619 0.929 . S
H610 C614 0.929 . S
H611 C620 0.929 . S
C612 H606 0.930 . S
C612 C613 1.367 1_565 S
C612 C620 1.378 . S
C613 C612 1.367 1_545 S
C613 C621 1.433 . S
C614 H610 0.929 . S
C614 C616 1.378 . S
C614 C618 1.350 . S
C615 C618 1.463 . S
C615 C620 1.350 . S
C615 N623 1.427 1_565 S
C616 H607 0.930 . S
C616 C614 1.378 . S
C616 C617 1.367 . S
C617 C616 1.367 . S
C617 C619 1.433 . S
C618 C614 1.350 . S
C618 C615 1.463 . S
C618 N622 1.427 . S
C619 H609 0.929 . S
C619 C617 1.433 . S
C619 N622 1.384 . S
C620 H611 0.929 . S
C620 C612 1.378 . S
C620 C615 1.350 . S
C621 H608 0.929 . S
C621 C613 1.433 . S
C621 N623 1.384 . S
N622 C618 1.427 . S
N622 C619 1.384 . S
N623 C615 1.427 1_545 S
N623 C621 1.384 . S
H624 C630 0.930 . S
H625 C634 0.930 . S
H626 C639 0.929 . S
H627 C637 0.929 . S
H628 C632 0.929 . S
H629 C638 0.929 . S
C630 H624 0.930 . S
C630 C631 1.367 . S
C630 C638 1.378 . S
C631 C630 1.367 . S
C631 C639 1.433 . S
C632 H628 0.929 . S
C632 C634 1.378 . S
C632 C636 1.350 . S
C633 C636 1.463 . S
C633 C638 1.350 . S
C633 N641 1.427 . S
C634 H625 0.930 . S
C634 C632 1.378 . S
C634 C635 1.367 . S
C635 C634 1.367 . S
C635 C637 1.433 . S
C636 C632 1.350 . S
C636 C633 1.463 . S
C636 N640 1.427 . S
C637 H627 0.929 . S
C637 C635 1.433 . S
C637 N640 1.384 . S
C638 H629 0.929 . S
C638 C630 1.378 . S
C638 C633 1.350 . S
C639 H626 0.929 . S
C639 C631 1.433 . S
C639 N641 1.384 . S
N640 C636 1.427 . S
N640 C637 1.384 . S
N641 C633 1.427 . S
N641 C639 1.384 . S
H642 C648 0.930 . S
H643 C652 0.930 . S
H644 C657 0.929 . S
H645 C655 0.929 . S
H646 C650 0.929 . S
H647 C656 0.929 . S
C648 H642 0.930 . S
C648 C649 1.367 . S
C648 C656 1.378 . S
C649 C648 1.367 . S
C649 C657 1.433 . S
C650 H646 0.929 . S
C650 C652 1.378 . S
C650 C654 1.350 . S
C651 C654 1.463 . S
C651 C656 1.350 . S
C651 N659 1.427 . S
C652 H643 0.930 . S
C652 C650 1.378 . S
C652 C653 1.367 . S
C653 C652 1.367 . S
C653 C655 1.433 . S
C654 C650 1.350 . S
C654 C651 1.463 . S
C654 N658 1.427 . S
C655 H645 0.929 . S
C655 C653 1.433 . S
C655 N658 1.384 . S
C656 H647 0.929 . S
C656 C648 1.378 . S
C656 C651 1.350 . S
C657 H644 0.929 . S
C657 C649 1.433 . S
C657 N659 1.384 . S
N658 C654 1.427 . S
N658 C655 1.384 . S
N659 C651 1.427 . S
N659 C657 1.384 . S
H660 C666 0.930 . S
H661 C670 0.930 . S
H662 C675 0.929 . S
H663 C673 0.929 . S
H664 C668 0.929 . S
H665 C674 0.929 . S
C666 H660 0.930 . S
C666 C667 1.367 . S
C666 C674 1.378 1_556 S
C667 C666 1.367 . S
C667 C675 1.433 . S
C668 H664 0.929 . S
C668 C670 1.378 . S
C668 C672 1.350 . S
C669 C672 1.463 . S
C669 C674 1.350 . S
C669 N677 1.427 . S
C670 H661 0.930 . S
C670 C668 1.378 . S
C670 C671 1.367 . S
C671 C670 1.367 . S
C671 C673 1.433 . S
C672 C668 1.350 . S
C672 C669 1.463 . S
C672 N676 1.427 . S
C673 H663 0.929 . S
C673 C671 1.433 . S
C673 N676 1.384 . S
C674 H665 0.929 . S
C674 C666 1.378 1_554 S
C674 C669 1.350 . S
C675 H662 0.929 . S
C675 C667 1.433 . S
C675 N677 1.384 1_556 S
N676 C672 1.427 . S
N676 C673 1.384 . S
N677 C669 1.427 . S
N677 C675 1.384 1_554 S
H678 C684 0.930 . S
H679 C688 0.930 . S
H680 C693 0.929 . S
H681 C691 0.929 . S
H682 C686 0.929 . S
H683 C692 0.929 . S
C684 H678 0.930 . S
C684 C685 1.367 . S
C684 C692 1.378 . S
C685 C684 1.367 . S
C685 C693 1.433 . S
C686 H682 0.929 . S
C686 C688 1.378 . S
C686 C690 1.350 . S
C687 C690 1.463 . S
C687 C692 1.350 . S
C687 N695 1.427 . S
C688 H679 0.930 . S
C688 C686 1.378 . S
C688 C689 1.367 . S
C689 C688 1.367 . S
C689 C691 1.433 . S
C690 C686 1.350 . S
C690 C687 1.463 . S
C690 N694 1.427 . S
C691 H681 0.929 . S
C691 C689 1.433 . S
C691 N694 1.384 . S
C692 H683 0.929 . S
C692 C684 1.378 . S
C692 C687 1.350 . S
C693 H680 0.929 . S
C693 C685 1.433 . S
C693 N695 1.384 . S
N694 C690 1.427 . S
N694 C691 1.384 . S
N695 C687 1.427 . S
N695 C693 1.384 . S
H696 C702 0.930 . S
H697 C706 0.930 . S
H698 C711 0.929 . S
H699 C709 0.929 . S
H700 C704 0.929 . S
H701 C710 0.929 . S
C702 H696 0.930 . S
C702 C703 1.367 . S
C702 C710 1.378 . S
C703 C702 1.367 . S
C703 C711 1.433 . S
C704 H700 0.929 . S
C704 C706 1.378 . S
C704 C708 1.350 . S
C705 C708 1.463 . S
C705 C710 1.350 . S
C705 N713 1.427 . S
C706 H697 0.930 . S
C706 C704 1.378 . S
C706 C707 1.367 . S
C707 C706 1.367 . S
C707 C709 1.433 . S
C708 C704 1.350 . S
C708 C705 1.463 . S
C708 N712 1.427 . S
C709 H699 0.929 . S
C709 C707 1.433 . S
C709 N712 1.384 . S
C710 H701 0.929 . S
C710 C702 1.378 . S
C710 C705 1.350 . S
C711 H698 0.929 . S
C711 C703 1.433 . S
C711 N713 1.384 . S
N712 C708 1.427 . S
N712 C709 1.384 . S
N713 C705 1.427 . S
N713 C711 1.384 . S
H714 C720 0.930 . S
H715 C724 0.930 . S
H716 C729 0.929 . S
H717 C727 0.929 . S
H718 C722 0.929 . S
H719 C728 0.929 . S
C720 H714 0.930 . S
C720 C721 1.367 . S
C720 C728 1.378 . S
C721 C720 1.367 . S
C721 C729 1.433 1_455 S
C722 H718 0.929 . S
C722 C724 1.378 . S
C722 C726 1.350 . S
C723 C726 1.463 . S
C723 C728 1.350 1_655 S
C723 N731 1.427 . S
C724 H715 0.930 . S
C724 C722 1.378 . S
C724 C725 1.367 . S
C725 C724 1.367 . S
C725 C727 1.433 . S
C726 C722 1.350 . S
C726 C723 1.463 . S
C726 N730 1.427 . S
C727 H717 0.929 . S
C727 C725 1.433 . S
C727 N730 1.384 . S
C728 H719 0.929 . S
C728 C720 1.378 . S
C728 C723 1.350 1_455 S
C729 H716 0.929 . S
C729 C721 1.433 1_655 S
C729 N731 1.384 . S
N730 C726 1.427 . S
N730 C727 1.384 . S
N731 C723 1.427 . S
N731 C729 1.384 . S
H732 C738 0.930 . S
H733 C742 0.930 . S
H734 C747 0.929 . S
H735 C745 0.929 . S
H736 C740 0.929 . S
H737 C746 0.929 . S
C738 H732 0.930 . S
C738 C739 1.367 1_455 S
C738 C746 1.378 . S
C739 C738 1.367 1_655 S
C739 C747 1.433 . S
C740 H736 0.929 . S
C740 C742 1.378 . S
C740 C744 1.350 . S
C741 C744 1.463 . S
C741 C746 1.350 . S
C741 N749 1.427 1_455 S
C742 H733 0.930 . S
C742 C740 1.378 . S
C742 C743 1.367 . S
C743 C742 1.367 . S
C743 C745 1.433 . S
C744 C740 1.350 . S
C744 C741 1.463 . S
C744 N748 1.427 . S
C745 H735 0.929 . S
C745 C743 1.433 . S
C745 N748 1.384 . S
C746 H737 0.929 . S
C746 C738 1.378 . S
C746 C741 1.350 . S
C747 H734 0.929 . S
C747 C739 1.433 . S
C747 N749 1.384 . S
N748 C744 1.427 . S
N748 C745 1.384 . S
N749 C741 1.427 1_655 S
N749 C747 1.384 . S
H750 C756 0.930 . S
H751 C760 0.930 . S
H752 C765 0.929 . S
H753 C763 0.929 . S
H754 C758 0.929 . S
H755 C764 0.929 . S
C756 H750 0.930 . S
C756 C757 1.367 . S
C756 C764 1.378 . S
C757 C756 1.367 . S
C757 C765 1.433 . S
C758 H754 0.929 . S
C758 C760 1.378 . S
C758 C762 1.350 . S
C759 C762 1.463 . S
C759 C764 1.350 . S
C759 N767 1.427 . S
C760 H751 0.930 . S
C760 C758 1.378 . S
C760 C761 1.367 . S
C761 C760 1.367 . S
C761 C763 1.433 . S
C762 C758 1.350 . S
C762 C759 1.463 . S
C762 N766 1.427 . S
C763 H753 0.929 . S
C763 C761 1.433 . S
C763 N766 1.384 . S
C764 H755 0.929 . S
C764 C756 1.378 . S
C764 C759 1.350 . S
C765 H752 0.929 . S
C765 C757 1.433 . S
C765 N767 1.384 . S
N766 C762 1.427 . S
N766 C763 1.384 . S
N767 C759 1.427 . S
N767 C765 1.384 . S
H768 C774 0.930 . S
H769 C778 0.930 . S
H770 C783 0.929 . S
H771 C781 0.929 . S
H772 C776 0.929 . S
H773 C782 0.929 . S
C774 H768 0.930 . S
C774 C775 1.367 . S
C774 C782 1.378 . S
C775 C774 1.367 . S
C775 C783 1.433 . S
C776 H772 0.929 . S
C776 C778 1.378 . S
C776 C780 1.350 . S
C777 C780 1.463 . S
C777 C782 1.350 . S
C777 N785 1.427 . S
C778 H769 0.930 . S
C778 C776 1.378 . S
C778 C779 1.367 . S
C779 C778 1.367 . S
C779 C781 1.433 . S
C780 C776 1.350 . S
C780 C777 1.463 . S
C780 N784 1.427 . S
C781 H771 0.929 . S
C781 C779 1.433 . S
C781 N784 1.384 . S
C782 H773 0.929 . S
C782 C774 1.378 . S
C782 C777 1.350 . S
C783 H770 0.929 . S
C783 C775 1.433 . S
C783 N785 1.384 . S
N784 C780 1.427 . S
N784 C781 1.384 . S
N785 C777 1.427 . S
N785 C783 1.384 . S
H786 C792 0.930 . S
H787 C796 0.930 . S
H788 C801 0.929 . S
H789 C799 0.929 . S
H790 C794 0.929 . S
H791 C800 0.929 . S
C792 H786 0.930 . S
C792 C793 1.367 . S
C792 C800 1.378 1_545 S
C793 C792 1.367 . S
C793 C801 1.433 1_545 S
C794 H790 0.929 . S
C794 C796 1.378 . S
C794 C798 1.350 . S
C795 C798 1.463 . S
C795 C800 1.350 . S
C795 N803 1.427 . S
C796 H787 0.930 . S
C796 C794 1.378 . S
C796 C797 1.367 . S
C797 C796 1.367 . S
C797 C799 1.433 . S
C798 C794 1.350 . S
C798 C795 1.463 . S
C798 N802 1.427 . S
C799 H789 0.929 . S
C799 C797 1.433 . S
C799 N802 1.384 . S
C800 H791 0.929 . S
C800 C792 1.378 1_565 S
C800 C795 1.350 . S
C801 H788 0.929 . S
C801 C793 1.433 1_565 S
C801 N803 1.384 . S
N802 C798 1.427 . S
N802 C799 1.384 . S
N803 C795 1.427 . S
N803 C801 1.384 . S
H804 C810 0.930 . S
H805 C814 0.930 . S
H806 C819 0.929 . S
H807 C817 0.929 . S
H808 C812 0.929 . S
H809 C818 0.929 . S
C810 H804 0.930 . S
C810 C811 1.367 . S
C810 C818 1.378 . S
C811 C810 1.367 . S
C811 C819 1.433 . S
C812 H808 0.929 . S
C812 C814 1.378 . S
C812 C816 1.350 . S
C813 C816 1.463 . S
C813 C818 1.350 . S
C813 N821 1.427 . S
C814 H805 0.930 . S
C814 C812 1.378 . S
C814 C815 1.367 . S
C815 C814 1.367 . S
C815 C817 1.433 . S
C816 C812 1.350 . S
C816 C813 1.463 . S
C816 N820 1.427 . S
C817 H807 0.929 . S
C817 C815 1.433 . S
C817 N820 1.384 . S
C818 H809 0.929 . S
C818 C810 1.378 . S
C818 C813 1.350 . S
C819 H806 0.929 . S
C819 C811 1.433 . S
C819 N821 1.384 . S
N820 C816 1.427 . S
N820 C817 1.384 . S
N821 C813 1.427 . S
N821 C819 1.384 . S
H822 C828 0.930 . S
H823 C832 0.930 . S
H824 C837 0.929 . S
H825 C835 0.929 . S
H826 C830 0.929 . S
H827 C836 0.929 . S
C828 H822 0.930 . S
C828 C829 1.367 . S
C828 C836 1.378 . S
C829 C828 1.367 . S
C829 C837 1.433 . S
C830 H826 0.929 . S
C830 C832 1.378 1_545 S
C830 C834 1.350 . S
C831 C834 1.463 . S
C831 C836 1.350 . S
C831 N839 1.427 . S
C832 H823 0.930 . S
C832 C830 1.378 1_565 S
C832 C833 1.367 1_554 S
C833 C832 1.367 1_556 S
C833 C835 1.433 1_565 S
C834 C830 1.350 . S
C834 C831 1.463 . S
C834 N838 1.427 . S
C835 H825 0.929 . S
C835 C833 1.433 1_545 S
C835 N838 1.384 1_556 S
C836 H827 0.929 . S
C836 C828 1.378 . S
C836 C831 1.350 . S
C837 H824 0.929 . S
C837 C829 1.433 . S
C837 N839 1.384 . S
N838 C834 1.427 . S
N838 C835 1.384 1_554 S
N839 C831 1.427 . S
N839 C837 1.384 . S
H840 C846 0.930 . S
H841 C850 0.930 . S
H842 C855 0.929 . S
H843 C853 0.929 . S
H844 C848 0.929 . S
H845 C854 0.929 . S
C846 H840 0.930 . S
C846 C847 1.367 . S
C846 C854 1.378 . S
C847 C846 1.367 . S
C847 C855 1.433 . S
C848 H844 0.929 . S
C848 C850 1.378 . S
C848 C852 1.350 . S
C849 C852 1.463 . S
C849 C854 1.350 . S
C849 N857 1.427 . S
C850 H841 0.930 . S
C850 C848 1.378 . S
C850 C851 1.367 . S
C851 C850 1.367 . S
C851 C853 1.433 . S
C852 C848 1.350 . S
C852 C849 1.463 . S
C852 N856 1.427 . S
C853 H843 0.929 . S
C853 C851 1.433 . S
C853 N856 1.384 . S
C854 H845 0.929 . S
C854 C846 1.378 . S
C854 C849 1.350 . S
C855 H842 0.929 . S
C855 C847 1.433 . S
C855 N857 1.384 . S
N856 C852 1.427 . S
N856 C853 1.384 . S
N857 C849 1.427 . S
N857 C855 1.384 . S
H858 C864 0.930 . S
H859 C868 0.930 . S
H860 C873 0.929 . S
H861 C871 0.929 . S
H862 C866 0.929 . S
H863 C872 0.930 . S
C864 H858 0.930 . S
C864 C865 1.367 . S
C864 C872 1.378 1_554 S
C865 C864 1.367 . S
C865 C873 1.433 1_554 S
C866 H862 0.929 . S
C866 C868 1.378 . S
C866 C870 1.350 . S
C867 C870 1.463 . S
C867 C872 1.350 . S
C867 N875 1.427 . S
C868 H859 0.930 . S
C868 C866 1.378 . S
C868 C869 1.367 . S
C869 C868 1.367 . S
C869 C871 1.433 . S
C870 C866 1.350 . S
C870 C867 1.463 . S
C870 N874 1.427 . S
C871 H861 0.929 . S
C871 C869 1.433 . S
C871 N874 1.384 . S
C872 H863 0.930 . S
C872 C864 1.378 1_556 S
C872 C867 1.350 . S
C873 H860 0.929 . S
C873 C865 1.433 1_556 S
C873 N875 1.384 . S
N874 C870 1.427 . S
N874 C871 1.384 . S
N875 C867 1.427 . S
N875 C873 1.384 . S
H876 C882 0.930 . S
H877 C886 0.930 . S
H878 C891 0.929 . S
H879 C889 0.929 . S
H880 C884 0.929 . S
H881 C890 0.929 . S
C882 H876 0.930 . S
C882 C883 1.367 . S
C882 C890 1.378 . S
C883 C882 1.367 . S
C883 C891 1.433 . S
C884 H880 0.929 . S
C884 C886 1.378 . S
C884 C888 1.350 . S
C885 C888 1.463 . S
C885 C890 1.350 . S
C885 N893 1.427 . S
C886 H877 0.930 . S
C886 C884 1.378 . S
C886 C887 1.367 . S
C887 C886 1.367 . S
C887 C889 1.433 . S
C888 C884 1.350 . S
C888 C885 1.463 . S
C888 N892 1.427 . S
C889 H879 0.929 . S
C889 C887 1.433 . S
C889 N892 1.384 . S
C890 H881 0.929 . S
C890 C882 1.378 . S
C890 C885 1.350 . S
C891 H878 0.929 . S
C891 C883 1.433 . S
C891 N893 1.384 . S
N892 C888 1.427 . S
N892 C889 1.384 . S
N893 C885 1.427 . S
N893 C891 1.384 . S
H894 C900 0.930 . S
H895 C904 0.930 . S
H896 C909 0.929 . S
H897 C907 0.929 . S
H898 C902 0.929 . S
H899 C908 0.929 . S
C900 H894 0.930 . S
C900 C901 1.367 . S
C900 C908 1.378 . S
C901 C900 1.367 . S
C901 C909 1.433 . S
C902 H898 0.929 . S
C902 C904 1.378 . S
C902 C906 1.350 . S
C903 C906 1.463 . S
C903 C908 1.350 . S
C903 N911 1.427 . S
C904 H895 0.930 . S
C904 C902 1.378 . S
C904 C905 1.367 . S
C905 C904 1.367 . S
C905 C907 1.433 . S
C906 C902 1.350 . S
C906 C903 1.463 . S
C906 N910 1.427 . S
C907 H897 0.929 . S
C907 C905 1.433 . S
C907 N910 1.384 . S
C908 H899 0.929 . S
C908 C900 1.378 . S
C908 C903 1.350 . S
C909 H896 0.929 . S
C909 C901 1.433 . S
C909 N911 1.384 . S
N910 C906 1.427 . S
N910 C907 1.384 . S
N911 C903 1.427 . S
N911 C909 1.384 . S
H912 C918 0.930 . S
H913 C922 0.930 . S
H914 C927 0.929 . S
H915 C925 0.929 . S
H916 C920 0.929 . S
H917 C926 0.929 . S
C918 H912 0.930 . S
C918 C919 1.367 . S
C918 C926 1.378 . S
C919 C918 1.367 . S
C919 C927 1.433 . S
C920 H916 0.929 . S
C920 C922 1.378 . S
C920 C924 1.350 . S
C921 C924 1.463 . S
C921 C926 1.350 . S
C921 N929 1.427 . S
C922 H913 0.930 . S
C922 C920 1.378 . S
C922 C923 1.367 . S
C923 C922 1.367 . S
C923 C925 1.433 . S
C924 C920 1.350 . S
C924 C921 1.463 . S
C924 N928 1.427 . S
C925 H915 0.929 . S
C925 C923 1.433 . S
C925 N928 1.384 . S
C926 H917 0.929 . S
C926 C918 1.378 . S
C926 C921 1.350 . S
C927 H914 0.929 . S
C927 C919 1.433 . S
C927 N929 1.384 . S
N928 C924 1.427 . S
N928 C925 1.384 . S
N929 C921 1.427 . S
N929 C927 1.384 . S
H930 C936 0.930 . S
H931 C940 0.930 . S
H932 C945 0.936 . S
H933 C943 0.929 . S
H934 C938 0.929 . S
H935 C944 0.929 . S
C936 H930 0.930 . S
C936 C937 1.367 . S
C936 C944 1.378 1_665 S
C937 C936 1.367 . S
C937 C945 1.433 1_665 S
C938 H934 0.929 . S
C938 C940 1.378 . S
C938 C942 1.350 . S
C939 C942 1.463 . S
C939 C944 1.350 . S
C939 N947 1.427 . S
C940 H931 0.930 . S
C940 C938 1.378 . S
C940 C941 1.367 . S
C941 C940 1.367 . S
C941 C943 1.433 . S
C942 C938 1.350 . S
C942 C939 1.463 . S
C942 N946 1.427 . S
C943 H933 0.929 . S
C943 C941 1.433 . S
C943 N946 1.384 . S
C944 H935 0.929 . S
C944 C936 1.378 1_445 S
C944 C939 1.350 . S
C945 H932 0.936 . S
C945 C937 1.433 1_445 S
C945 N947 1.384 . S
N946 C942 1.427 . S
N946 C943 1.384 . S
N947 C939 1.427 . S
N947 C945 1.384 . S
H948 C954 0.930 . S
H949 C958 0.930 . S
H950 C963 0.929 . S
H951 C961 0.929 . S
H952 C956 0.929 . S
H953 C962 0.929 . S
C954 H948 0.930 . S
C954 C955 1.367 . S
C954 C962 1.378 . S
C955 C954 1.367 . S
C955 C963 1.433 . S
C956 H952 0.929 . S
C956 C958 1.378 . S
C956 C960 1.350 . S
C957 C960 1.463 . S
C957 C962 1.350 . S
C957 N965 1.427 . S
C958 H949 0.930 . S
C958 C956 1.378 . S
C958 C959 1.367 . S
C959 C958 1.367 . S
C959 C961 1.433 . S
C960 C956 1.350 . S
C960 C957 1.463 . S
C960 N964 1.427 . S
C961 H951 0.929 . S
C961 C959 1.433 . S
C961 N964 1.384 . S
C962 H953 0.929 . S
C962 C954 1.378 . S
C962 C957 1.350 . S
C963 H950 0.929 . S
C963 C955 1.433 . S
C963 N965 1.384 . S
N964 C960 1.427 . S
N964 C961 1.384 . S
N965 C957 1.427 . S
N965 C963 1.384 . S
H966 C972 0.930 . S
H967 C976 0.930 . S
H968 C981 0.929 . S
H969 C979 0.929 . S
H970 C974 0.929 . S
H971 C980 0.929 . S
C972 H966 0.930 . S
C972 C973 1.367 . S
C972 C980 1.378 1_545 S
C973 C972 1.367 . S
C973 C981 1.433 1_545 S
C974 H970 0.929 . S
C974 C976 1.378 . S
C974 C978 1.350 . S
C975 C978 1.463 . S
C975 C980 1.350 . S
C975 N983 1.427 . S
C976 H967 0.930 . S
C976 C974 1.378 . S
C976 C977 1.367 . S
C977 C976 1.367 . S
C977 C979 1.433 . S
C978 C974 1.350 . S
C978 C975 1.463 . S
C978 N982 1.427 . S
C979 H969 0.929 . S
C979 C977 1.433 . S
C979 N982 1.384 . S
C980 H971 0.929 . S
C980 C972 1.378 1_565 S
C980 C975 1.350 . S
C981 H968 0.929 . S
C981 C973 1.433 1_565 S
C981 N983 1.384 . S
N982 C978 1.427 . S
N982 C979 1.384 . S
N983 C975 1.427 . S
N983 C981 1.384 . S
H984 C990 0.930 . S
H985 C994 0.930 . S
H986 C999 0.929 . S
H987 C997 0.929 . S
H988 C992 0.929 . S
H989 C998 0.929 . S
C990 H984 0.930 . S
C990 C991 1.367 . S
C990 C998 1.378 . S
C991 C990 1.367 . S
C991 C999 1.433 . S
C992 H988 0.929 . S
C992 C994 1.378 . S
C992 C996 1.350 . S
C993 C996 1.463 . S
C993 C998 1.350 . S
C993 N1001 1.427 . S
C994 H985 0.930 . S
C994 C992 1.378 . S
C994 C995 1.367 . S
C995 C994 1.367 . S
C995 C997 1.433 . S
C996 C992 1.350 . S
C996 C993 1.463 . S
C996 N1000 1.427 . S
C997 H987 0.929 . S
C997 C995 1.433 . S
C997 N1000 1.384 . S
C998 H989 0.929 . S
C998 C990 1.378 . S
C998 C993 1.350 . S
C999 H986 0.929 . S
C999 C991 1.433 . S
C999 N1001 1.384 . S
N1000 C996 1.427 . S
N1000 C997 1.384 . S
N1001 C993 1.427 . S
N1001 C999 1.384 . S
H1002 C1008 0.930 . S
H1003 C1012 0.930 . S
H1004 C1017 0.929 . S
H1005 C1015 0.929 . S
H1006 C1010 0.929 . S
H1007 C1016 0.929 . S
C1008 H1002 0.930 . S
C1008 C1009 1.367 . S
C1008 C1016 1.378 . S
C1009 C1008 1.367 . S
C1009 C1017 1.433 1_455 S
C1010 H1006 0.929 . S
C1010 C1012 1.378 . S
C1010 C1014 1.350 . S
C1011 C1014 1.463 . S
C1011 C1016 1.350 1_655 S
C1011 N1019 1.427 . S
C1012 H1003 0.930 . S
C1012 C1010 1.378 . S
C1012 C1013 1.367 . S
C1013 C1012 1.367 . S
C1013 C1015 1.433 . S
C1014 C1010 1.350 . S
C1014 C1011 1.463 . S
C1014 N1018 1.427 . S
C1015 H1005 0.929 . S
C1015 C1013 1.433 . S
C1015 N1018 1.384 . S
C1016 H1007 0.929 . S
C1016 C1008 1.378 . S
C1016 C1011 1.350 1_455 S
C1017 H1004 0.929 . S
C1017 C1009 1.433 1_655 S
C1017 N1019 1.384 . S
N1018 C1014 1.427 . S
N1018 C1015 1.384 . S
N1019 C1011 1.427 . S
N1019 C1017 1.384 . S
H1020 C1026 0.930 . S
H1021 C1030 0.930 . S
H1022 C1035 0.929 . S
H1023 C1033 0.929 . S
H1024 C1028 0.929 . S
H1025 C1034 0.929 . S
C1026 H1020 0.930 . S
C1026 C1027 1.367 . S
C1026 C1034 1.378 . S
C1027 C1026 1.367 . S
C1027 C1035 1.433 . S
C1028 H1024 0.929 . S
C1028 C1030 1.378 . S
C1028 C1032 1.350 . S
C1029 C1032 1.463 . S
C1029 C1034 1.350 . S
C1029 N1037 1.427 . S
C1030 H1021 0.930 . S
C1030 C1028 1.378 . S
C1030 C1031 1.367 . S
C1031 C1030 1.367 . S
C1031 C1033 1.433 . S
C1032 C1028 1.350 . S
C1032 C1029 1.463 . S
C1032 N1036 1.427 . S
C1033 H1023 0.929 . S
C1033 C1031 1.433 . S
C1033 N1036 1.384 . S
C1034 H1025 0.929 . S
C1034 C1026 1.378 . S
C1034 C1029 1.350 . S
C1035 H1022 0.929 . S
C1035 C1027 1.433 . S
C1035 N1037 1.384 . S
N1036 C1032 1.427 . S
N1036 C1033 1.384 . S
N1037 C1029 1.427 . S
N1037 C1035 1.384 . S
H1038 C1044 0.930 . S
H1039 C1048 0.930 . S
H1040 C1053 0.929 . S
H1041 C1051 0.929 . S
H1042 C1046 0.929 . S
H1043 C1052 0.929 . S
C1044 H1038 0.930 . S
C1044 C1045 1.367 . S
C1044 C1052 1.378 . S
C1045 C1044 1.367 . S
C1045 C1053 1.433 . S
C1046 H1042 0.929 . S
C1046 C1048 1.378 . S
C1046 C1050 1.350 . S
C1047 C1050 1.463 . S
C1047 C1052 1.350 . S
C1047 N1055 1.427 . S
C1048 H1039 0.930 . S
C1048 C1046 1.378 . S
C1048 C1049 1.367 . S
C1049 C1048 1.367 . S
C1049 C1051 1.433 . S
C1050 C1046 1.350 . S
C1050 C1047 1.463 . S
C1050 N1054 1.427 . S
C1051 H1041 0.929 . S
C1051 C1049 1.433 . S
C1051 N1054 1.384 . S
C1052 H1043 0.929 . S
C1052 C1044 1.378 . S
C1052 C1047 1.350 . S
C1053 H1040 0.929 . S
C1053 C1045 1.433 . S
C1053 N1055 1.384 . S
N1054 C1050 1.427 . S
N1054 C1051 1.384 . S
N1055 C1047 1.427 . S
N1055 C1053 1.384 . S
H1056 C1062 0.930 . S
H1057 C1066 0.930 . S
H1058 C1071 0.929 . S
H1059 C1069 0.929 . S
H1060 C1064 0.929 . S
H1061 C1070 0.929 . S
C1062 H1056 0.930 . S
C1062 C1063 1.367 . S
C1062 C1070 1.378 . S
C1063 C1062 1.367 . S
C1063 C1071 1.433 . S
C1064 H1060 0.929 . S
C1064 C1066 1.378 . S
C1064 C1068 1.350 . S
C1065 C1068 1.463 . S
C1065 C1070 1.350 . S
C1065 N1073 1.427 . S
C1066 H1057 0.930 . S
C1066 C1064 1.378 . S
C1066 C1067 1.367 . S
C1067 C1066 1.367 . S
C1067 C1069 1.433 . S
C1068 C1064 1.350 . S
C1068 C1065 1.463 . S
C1068 N1072 1.427 . S
C1069 H1059 0.929 . S
C1069 C1067 1.433 . S
C1069 N1072 1.384 . S
C1070 H1061 0.929 . S
C1070 C1062 1.378 . S
C1070 C1065 1.350 . S
C1071 H1058 0.929 . S
C1071 C1063 1.433 . S
C1071 N1073 1.384 . S
N1072 C1068 1.427 . S
N1072 C1069 1.384 . S
N1073 C1065 1.427 . S
N1073 C1071 1.384 . S
H1074 C1080 0.930 . S
H1075 C1084 0.930 . S
H1076 C1089 0.929 . S
H1077 C1087 0.929 . S
H1078 C1082 0.929 . S
H1079 C1088 0.929 . S
C1080 H1074 0.930 . S
C1080 C1081 1.367 . S
C1080 C1088 1.378 . S
C1081 C1080 1.367 . S
C1081 C1089 1.433 . S
C1082 H1078 0.929 . S
C1082 C1084 1.378 . S
C1082 C1086 1.350 . S
C1083 C1086 1.463 . S
C1083 C1088 1.350 . S
C1083 N1091 1.427 . S
C1084 H1075 0.930 . S
C1084 C1082 1.378 . S
C1084 C1085 1.367 . S
C1085 C1084 1.367 . S
C1085 C1087 1.433 . S
C1086 C1082 1.350 . S
C1086 C1083 1.463 . S
C1086 N1090 1.427 . S
C1087 H1077 0.929 . S
C1087 C1085 1.433 . S
C1087 N1090 1.384 . S
C1088 H1079 0.929 . S
C1088 C1080 1.378 . S
C1088 C1083 1.350 . S
C1089 H1076 0.929 . S
C1089 C1081 1.433 . S
C1089 N1091 1.384 . S
N1090 C1086 1.427 . S
N1090 C1087 1.384 . S
N1091 C1083 1.427 . S
N1091 C1089 1.384 . S
H1092 C1098 0.930 . S
H1093 C1102 0.930 . S
H1094 C1107 0.929 . S
H1095 C1105 0.929 . S
H1096 C1100 0.929 . S
H1097 C1106 0.929 . S
C1098 H1092 0.930 . S
C1098 C1099 1.367 1_455 S
C1098 C1106 1.378 . S
C1099 C1098 1.367 1_655 S
C1099 C1107 1.433 1_556 S
C1100 H1096 0.929 . S
C1100 C1102 1.378 . S
C1100 C1104 1.350 . S
C1101 C1104 1.463 . S
C1101 C1106 1.350 1_554 S
C1101 N1109 1.427 . S
C1102 H1093 0.930 . S
C1102 C1100 1.378 . S
C1102 C1103 1.367 . S
C1103 C1102 1.367 . S
C1103 C1105 1.433 . S
C1104 C1100 1.350 . S
C1104 C1101 1.463 . S
C1104 N1108 1.427 . S
C1105 H1095 0.929 . S
C1105 C1103 1.433 . S
C1105 N1108 1.384 . S
C1106 H1097 0.929 . S
C1106 C1098 1.378 . S
C1106 C1101 1.350 1_556 S
C1107 H1094 0.929 . S
C1107 C1099 1.433 1_554 S
C1107 N1109 1.384 1_655 S
N1108 C1104 1.427 . S
N1108 C1105 1.384 . S
N1109 C1101 1.427 . S
N1109 C1107 1.384 1_455 S
H1110 C1116 0.930 . S
H1111 C1120 0.930 . S
H1112 C1125 0.929 . S
H1113 C1123 0.929 . S
H1114 C1118 0.929 . S
H1115 C1124 0.929 . S
C1116 H1110 0.930 . S
C1116 C1117 1.367 . S
C1116 C1124 1.378 . S
C1117 C1116 1.367 . S
C1117 C1125 1.433 . S
C1118 H1114 0.929 . S
C1118 C1120 1.378 . S
C1118 C1122 1.350 . S
C1119 C1122 1.463 . S
C1119 C1124 1.350 . S
C1119 N1127 1.427 . S
C1120 H1111 0.930 . S
C1120 C1118 1.378 . S
C1120 C1121 1.367 . S
C1121 C1120 1.367 . S
C1121 C1123 1.433 . S
C1122 C1118 1.350 . S
C1122 C1119 1.463 . S
C1122 N1126 1.427 . S
C1123 H1113 0.929 . S
C1123 C1121 1.433 . S
C1123 N1126 1.384 . S
C1124 H1115 0.929 . S
C1124 C1116 1.378 . S
C1124 C1119 1.350 . S
C1125 H1112 0.929 . S
C1125 C1117 1.433 . S
C1125 N1127 1.384 . S
N1126 C1122 1.427 . S
N1126 C1123 1.384 . S
N1127 C1119 1.427 . S
N1127 C1125 1.384 . S
H1128 C1134 0.930 . S
H1129 C1138 0.930 . S
H1130 C1143 0.929 . S
H1131 C1141 0.929 . S
H1132 C1136 0.929 . S
H1133 C1142 0.929 . S
C1134 H1128 0.930 . S
C1134 C1135 1.367 . S
C1134 C1142 1.378 . S
C1135 C1134 1.367 . S
C1135 C1143 1.433 . S
C1136 H1132 0.929 . S
C1136 C1138 1.378 . S
C1136 C1140 1.350 . S
C1137 C1140 1.463 . S
C1137 C1142 1.350 . S
C1137 N1145 1.427 . S
C1138 H1129 0.930 . S
C1138 C1136 1.378 . S
C1138 C1139 1.367 . S
C1139 C1138 1.367 . S
C1139 C1141 1.433 . S
C1140 C1136 1.350 . S
C1140 C1137 1.463 . S
C1140 N1144 1.427 . S
C1141 H1131 0.929 . S
C1141 C1139 1.433 . S
C1141 N1144 1.384 . S
C1142 H1133 0.929 . S
C1142 C1134 1.378 . S
C1142 C1137 1.350 . S
C1143 H1130 0.929 . S
C1143 C1135 1.433 . S
C1143 N1145 1.384 . S
N1144 C1140 1.427 . S
N1144 C1141 1.384 . S
N1145 C1137 1.427 . S
N1145 C1143 1.384 . S
H1146 C1152 0.930 . S
H1147 C1156 0.930 . S
H1148 C1161 0.929 . S
H1149 C1159 0.929 . S
H1150 C1154 0.929 . S
H1151 C1160 0.929 . S
C1152 H1146 0.930 . S
C1152 C1153 1.367 . S
C1152 C1160 1.378 . S
C1153 C1152 1.367 . S
C1153 C1161 1.433 . S
C1154 H1150 0.929 . S
C1154 C1156 1.378 . S
C1154 C1158 1.350 . S
C1155 C1158 1.463 . S
C1155 C1160 1.350 . S
C1155 N1163 1.427 . S
C1156 H1147 0.930 . S
C1156 C1154 1.378 . S
C1156 C1157 1.367 . S
C1157 C1156 1.367 . S
C1157 C1159 1.433 . S
C1158 C1154 1.350 . S
C1158 C1155 1.463 . S
C1158 N1162 1.427 . S
C1159 H1149 0.929 . S
C1159 C1157 1.433 . S
C1159 N1162 1.384 . S
C1160 H1151 0.929 . S
C1160 C1152 1.378 . S
C1160 C1155 1.350 . S
C1161 H1148 0.929 . S
C1161 C1153 1.433 . S
C1161 N1163 1.384 . S
N1162 C1158 1.427 . S
N1162 C1159 1.384 . S
N1163 C1155 1.427 . S
N1163 C1161 1.384 . S
H1164 C1170 0.930 . S
H1165 C1174 0.930 . S
H1166 C1179 0.929 . S
H1167 C1177 0.929 . S
H1168 C1172 0.929 . S
H1169 C1178 0.929 . S
C1170 H1164 0.930 . S
C1170 C1171 1.367 . S
C1170 C1178 1.378 1_554 S
C1171 C1170 1.367 . S
C1171 C1179 1.433 1_554 S
C1172 H1168 0.929 . S
C1172 C1174 1.378 . S
C1172 C1176 1.350 . S
C1173 C1176 1.463 . S
C1173 C1178 1.350 . S
C1173 N1181 1.427 . S
C1174 H1165 0.930 . S
C1174 C1172 1.378 . S
C1174 C1175 1.367 . S
C1175 C1174 1.367 . S
C1175 C1177 1.433 . S
C1176 C1172 1.350 . S
C1176 C1173 1.463 . S
C1176 N1180 1.427 . S
C1177 H1167 0.929 . S
C1177 C1175 1.433 . S
C1177 N1180 1.384 . S
C1178 H1169 0.929 . S
C1178 C1170 1.378 1_556 S
C1178 C1173 1.350 . S
C1179 H1166 0.929 . S
C1179 C1171 1.433 1_556 S
C1179 N1181 1.384 . S
N1180 C1176 1.427 . S
N1180 C1177 1.384 . S
N1181 C1173 1.427 . S
N1181 C1179 1.384 . S
H1182 C1188 0.930 . S
H1183 C1192 0.930 . S
H1184 C1197 0.929 . S
H1185 C1195 0.929 . S
H1186 C1190 0.929 . S
H1187 C1196 0.929 . S
C1188 H1182 0.930 . S
C1188 C1189 1.367 . S
C1188 C1196 1.378 . S
C1189 C1188 1.367 . S
C1189 C1197 1.433 . S
C1190 H1186 0.929 . S
C1190 C1192 1.378 . S
C1190 C1194 1.350 . S
C1191 C1194 1.463 . S
C1191 C1196 1.350 . S
C1191 N1199 1.427 . S
C1192 H1183 0.930 . S
C1192 C1190 1.378 . S
C1192 C1193 1.367 1_655 S
C1193 C1192 1.367 1_455 S
C1193 C1195 1.433 . S
C1194 C1190 1.350 . S
C1194 C1191 1.463 . S
C1194 N1198 1.427 . S
C1195 H1185 0.929 . S
C1195 C1193 1.433 . S
C1195 N1198 1.384 1_455 S
C1196 H1187 0.929 . S
C1196 C1188 1.378 . S
C1196 C1191 1.350 . S
C1197 H1184 0.929 . S
C1197 C1189 1.433 . S
C1197 N1199 1.384 . S
N1198 C1194 1.427 . S
N1198 C1195 1.384 1_655 S
N1199 C1191 1.427 . S
N1199 C1197 1.384 . S
C343 C131 1.151 . S
C347 C5 1.158 . S
C361 C19 1.166 1_455 S
C365 C145 1.147 . S
C379 C33 1.148 . S
C383 C159 1.165 1_556 S
C397 C47 1.167 . S
C401 C117 1.147 . S
C415 C61 1.147 . S
C419 C215 1.166 . S
C433 C173 1.162 . S
C437 C75 1.169 1_655 S
C451 C89 1.152 . S
C455 C187 1.159 . S
C469 C201 1.159 . S
C473 C103 1.151 . S
C487 C229 1.154 . S
C491 C257 1.155 . S
C505 C313 1.165 . S
C509 C243 1.165 . S
C523 C271 1.157 . S
C527 C327 1.167 1_565 S
C541 C299 1.152 . S
C545 C285 1.176 . S
C559 C291 1.541 . S
C563 C11 1.538 . S
C577 C25 1.533 . S
C581 C249 1.546 . S
C595 C39 1.539 . S
C599 C263 1.540 . S
C613 C53 1.533 . S
C617 C277 1.546 . S
C631 C67 1.533 . S
C635 C333 1.546 . S
C649 C305 1.534 . S
C653 C81 1.544 . S
C667 C319 1.537 . S
C671 C95 1.542 . S
C685 C235 1.540 . S
C689 C109 1.539 . S
C703 C221 1.540 . S
C707 C123 1.538 . S
C721 C137 1.543 . S
C725 C179 1.536 . S
C739 C193 1.535 . S
C743 C151 1.543 . S
C757 C207 1.545 . S
C761 C165 1.534 . S
C775 C12 0.844 . S
C779 C228 0.854 . S
C793 C326 0.845 . S
C797 C26 0.855 . S
C811 C298 0.845 . S
C815 C40 0.853 . S
C829 C54 0.852 . S
C833 C312 0.846 . S
C847 C68 0.850 . S
C851 C242 0.847 . S
C865 C256 0.864 . S
C869 C82 0.833 . S
C883 C270 0.847 . S
C887 C96 0.852 . S
C901 C284 0.846 . S
C905 C110 0.852 . S
C919 C4 0.849 . S
C923 C124 0.849 . S
C937 C18 0.847 . S
C941 C138 0.852 . S
C955 C32 0.867 . S
C959 C152 0.828 . S
C973 C46 0.847 . S
C977 C166 0.853 . S
C991 C60 0.868 . S
C995 C180 0.827 . S
C1009 C74 0.839 . S
C1013 C194 0.861 . S
C1027 C208 0.859 . S
C1031 C88 0.841 . S
C1045 C102 0.867 . S
C1049 C222 0.827 . S
C1063 C116 0.852 . S
C1067 C236 0.845 . S
C1081 C250 0.827 . S
C1085 C172 0.868 . S
C1099 C186 0.839 . S
C1103 C264 0.860 . S
C1117 C278 0.836 . S
C1121 C200 0.861 . S
C1135 C292 0.845 . S
C1139 C214 0.853 . S
C1153 C306 0.833 . S
C1157 C144 0.862 . S
C1171 C158 0.848 . S
C1175 C320 0.852 . S
C1189 C334 0.847 . S
C1193 C130 0.850 . S
