# Generated by pormake.
# Topology uks, (4)-cn, num edge types: 1
# Building blocks:
#     Node 0, Type 0, BuildingBlock: KOZSID_clean_sbu_0, # of connection points: 4
#     Node 1, Type 0, BuildingBlock: KOZSID_clean_sbu_0, # of connection points: 4
#     Node 2, Type 0, BuildingBlock: KOZSID_clean_sbu_0, # of connection points: 4
#     Node 3, Type 0, BuildingBlock: KOZSID_clean_sbu_0, # of connection points: 4
#     Node 4, Type 0, BuildingBlock: KOZSID_clean_sbu_0, # of connection points: 4
#     Node 5, Type 0, BuildingBlock: KOZSID_clean_sbu_0, # of connection points: 4
#     Node 6, Type 0, BuildingBlock: KOZSID_clean_sbu_0, # of connection points: 4
#     Node 7, Type 0, BuildingBlock: KOZSID_clean_sbu_0, # of connection points: 4
#     Node 8, Type 0, BuildingBlock: KOZSID_clean_sbu_0, # of connection points: 4
#     Node 9, Type 0, BuildingBlock: KOZSID_clean_sbu_0, # of connection points: 4
#     Node 10, Type 0, BuildingBlock: KOZSID_clean_sbu_0, # of connection points: 4
#     Node 11, Type 0, BuildingBlock: KOZSID_clean_sbu_0, # of connection points: 4
#     Node 12, Type 0, BuildingBlock: KOZSID_clean_sbu_0, # of connection points: 4
#     Node 13, Type 0, BuildingBlock: KOZSID_clean_sbu_0, # of connection points: 4
#     Node 14, Type 0, BuildingBlock: KOZSID_clean_sbu_0, # of connection points: 4
#     Node 15, Type 0, BuildingBlock: KOZSID_clean_sbu_0, # of connection points: 4
#     Node 16, Type 0, BuildingBlock: KOZSID_clean_sbu_0, # of connection points: 4
#     Node 17, Type 0, BuildingBlock: KOZSID_clean_sbu_0, # of connection points: 4
#     Node 18, Type 0, BuildingBlock: KOZSID_clean_sbu_0, # of connection points: 4
#     Node 19, Type 0, BuildingBlock: KOZSID_clean_sbu_0, # of connection points: 4
#     Node 20, Type 0, BuildingBlock: KOZSID_clean_sbu_0, # of connection points: 4
#     Node 21, Type 0, BuildingBlock: KOZSID_clean_sbu_0, # of connection points: 4
#     Node 22, Type 0, BuildingBlock: KOZSID_clean_sbu_0, # of connection points: 4
#     Node 23, Type 0, BuildingBlock: KOZSID_clean_sbu_0, # of connection points: 4
#     Edge 24, Type (0, 0), BuildingBlock: KIFKEQ_clean_linker_1, # of connection points: 2
#     Edge 25, Type (0, 0), BuildingBlock: KIFKEQ_clean_linker_1, # of connection points: 2
#     Edge 26, Type (0, 0), BuildingBlock: KIFKEQ_clean_linker_1, # of connection points: 2
#     Edge 27, Type (0, 0), BuildingBlock: KIFKEQ_clean_linker_1, # of connection points: 2
#     Edge 28, Type (0, 0), BuildingBlock: KIFKEQ_clean_linker_1, # of connection points: 2
#     Edge 29, Type (0, 0), BuildingBlock: KIFKEQ_clean_linker_1, # of connection points: 2
#     Edge 30, Type (0, 0), BuildingBlock: KIFKEQ_clean_linker_1, # of connection points: 2
#     Edge 31, Type (0, 0), BuildingBlock: KIFKEQ_clean_linker_1, # of connection points: 2
#     Edge 32, Type (0, 0), BuildingBlock: KIFKEQ_clean_linker_1, # of connection points: 2
#     Edge 33, Type (0, 0), BuildingBlock: KIFKEQ_clean_linker_1, # of connection points: 2
#     Edge 34, Type (0, 0), BuildingBlock: KIFKEQ_clean_linker_1, # of connection points: 2
#     Edge 35, Type (0, 0), BuildingBlock: KIFKEQ_clean_linker_1, # of connection points: 2
#     Edge 36, Type (0, 0), BuildingBlock: KIFKEQ_clean_linker_1, # of connection points: 2
#     Edge 37, Type (0, 0), BuildingBlock: KIFKEQ_clean_linker_1, # of connection points: 2
#     Edge 38, Type (0, 0), BuildingBlock: KIFKEQ_clean_linker_1, # of connection points: 2
#     Edge 39, Type (0, 0), BuildingBlock: KIFKEQ_clean_linker_1, # of connection points: 2
#     Edge 40, Type (0, 0), BuildingBlock: KIFKEQ_clean_linker_1, # of connection points: 2
#     Edge 41, Type (0, 0), BuildingBlock: KIFKEQ_clean_linker_1, # of connection points: 2
#     Edge 42, Type (0, 0), BuildingBlock: KIFKEQ_clean_linker_1, # of connection points: 2
#     Edge 43, Type (0, 0), BuildingBlock: KIFKEQ_clean_linker_1, # of connection points: 2
#     Edge 44, Type (0, 0), BuildingBlock: KIFKEQ_clean_linker_1, # of connection points: 2
#     Edge 45, Type (0, 0), BuildingBlock: KIFKEQ_clean_linker_1, # of connection points: 2
#     Edge 46, Type (0, 0), BuildingBlock: KIFKEQ_clean_linker_1, # of connection points: 2
#     Edge 47, Type (0, 0), BuildingBlock: KIFKEQ_clean_linker_1, # of connection points: 2
#     Edge 48, Type (0, 0), BuildingBlock: KIFKEQ_clean_linker_1, # of connection points: 2
#     Edge 49, Type (0, 0), BuildingBlock: KIFKEQ_clean_linker_1, # of connection points: 2
#     Edge 50, Type (0, 0), BuildingBlock: KIFKEQ_clean_linker_1, # of connection points: 2
#     Edge 51, Type (0, 0), BuildingBlock: KIFKEQ_clean_linker_1, # of connection points: 2
#     Edge 52, Type (0, 0), BuildingBlock: KIFKEQ_clean_linker_1, # of connection points: 2
#     Edge 53, Type (0, 0), BuildingBlock: KIFKEQ_clean_linker_1, # of connection points: 2
#     Edge 54, Type (0, 0), BuildingBlock: KIFKEQ_clean_linker_1, # of connection points: 2
#     Edge 55, Type (0, 0), BuildingBlock: KIFKEQ_clean_linker_1, # of connection points: 2
#     Edge 56, Type (0, 0), BuildingBlock: KIFKEQ_clean_linker_1, # of connection points: 2
#     Edge 57, Type (0, 0), BuildingBlock: KIFKEQ_clean_linker_1, # of connection points: 2
#     Edge 58, Type (0, 0), BuildingBlock: KIFKEQ_clean_linker_1, # of connection points: 2
#     Edge 59, Type (0, 0), BuildingBlock: KIFKEQ_clean_linker_1, # of connection points: 2
#     Edge 60, Type (0, 0), BuildingBlock: KIFKEQ_clean_linker_1, # of connection points: 2
#     Edge 61, Type (0, 0), BuildingBlock: KIFKEQ_clean_linker_1, # of connection points: 2
#     Edge 62, Type (0, 0), BuildingBlock: KIFKEQ_clean_linker_1, # of connection points: 2
#     Edge 63, Type (0, 0), BuildingBlock: KIFKEQ_clean_linker_1, # of connection points: 2
#     Edge 64, Type (0, 0), BuildingBlock: KIFKEQ_clean_linker_1, # of connection points: 2
#     Edge 65, Type (0, 0), BuildingBlock: KIFKEQ_clean_linker_1, # of connection points: 2
#     Edge 66, Type (0, 0), BuildingBlock: KIFKEQ_clean_linker_1, # of connection points: 2
#     Edge 67, Type (0, 0), BuildingBlock: KIFKEQ_clean_linker_1, # of connection points: 2
#     Edge 68, Type (0, 0), BuildingBlock: KIFKEQ_clean_linker_1, # of connection points: 2
#     Edge 69, Type (0, 0), BuildingBlock: KIFKEQ_clean_linker_1, # of connection points: 2
#     Edge 70, Type (0, 0), BuildingBlock: KIFKEQ_clean_linker_1, # of connection points: 2
#     Edge 71, Type (0, 0), BuildingBlock: KIFKEQ_clean_linker_1, # of connection points: 2
# Relax obj value: 0.062
# Max RMSD: 0.070
# Mean RMSD: 0.058
data_MOF--net-uks--node1-KOZSID_clean_sbu_0--edge1-KIFKEQ_clean_linker_1
_symmetry_space_group_name_H-M    P1
_symmetry_Int_Tables_number       1
_symmetry_cell_setting            triclinic
loop_
_symmetry_equiv_pos_as_xyz
'x, y, z'
_cell_length_a     62.701621
_cell_length_b     73.665925
_cell_length_c     65.242501
_cell_angle_alpha  89.273478
_cell_angle_beta   90.921589
_cell_angle_gamma 90.021189
loop_
_atom_site_label
_atom_site_type_symbol
_atom_site_fract_x
_atom_site_fract_y
_atom_site_fract_z
_atom_type_partial_charge
C0 C 0.07914 0.38611 0.70008 0.0
C1 C 0.06267 0.39121 0.71272 0.0
C2 C 0.07193 0.39875 0.72969 0.0
C3 C 0.09346 0.3979 0.72645 0.0
N4 N 0.09852 0.39053 0.70828 0.0
Co5 Co 0.12803 0.38597 0.69794 0.0
N6 N 0.14166 0.39362 0.72457 0.0
C7 C 0.13147 0.40003 0.74111 0.0
C8 C 0.14482 0.40379 0.75735 0.0
C9 C 0.16474 0.39936 0.7509 0.0
C10 C 0.1624 0.39308 0.73102 0.0
N11 N 0.15754 0.38138 0.68759 0.0
C12 C 0.17687 0.38226 0.69735 0.0
C13 C 0.19328 0.37755 0.68442 0.0
C14 C 0.18408 0.3736 0.6659 0.0
C15 C 0.16263 0.37603 0.66852 0.0
N16 N 0.11431 0.37786 0.67151 0.0
C17 C 0.1245 0.37261 0.65446 0.0
C18 C 0.11106 0.36663 0.6392 0.0
C19 C 0.09107 0.36781 0.64708 0.0
C20 C 0.09345 0.37455 0.66675 0.0
N21 N 0.12966 0.41153 0.68727 0.0
C22 C 0.13629 0.44769 0.6735 0.0
C23 C 0.13955 0.43303 0.66057 0.0
C24 C 0.13614 0.41528 0.66767 0.0
C25 C 0.12875 0.44397 0.69314 0.0
C26 C 0.12543 0.42601 0.69957 0.0
N27 N 0.12662 0.36076 0.70851 0.0
C28 C 0.13287 0.32871 0.70424 0.0
C29 C 0.12525 0.32495 0.72384 0.0
C30 C 0.11814 0.33942 0.73556 0.0
C31 C 0.11895 0.35708 0.72765 0.0
C32 C 0.13341 0.34658 0.69693 0.0
H33 H 0.11341 0.36759 0.73732 0.0
H34 H 0.13941 0.34862 0.68188 0.0
H35 H 0.13925 0.40488 0.65704 0.0
H36 H 0.11969 0.42431 0.71467 0.0
C37 C 0.10925 0.40184 0.74112 0.0
C38 C 0.07555 0.37673 0.68068 0.0
C39 C 0.18043 0.38693 0.71891 0.0
C40 C 0.14679 0.37205 0.65391 0.0
H41 H 0.04572 0.38928 0.71015 0.0
H42 H 0.06394 0.40356 0.74316 0.0
H43 H 0.14055 0.40893 0.7722 0.0
H44 H 0.17934 0.40055 0.75986 0.0
H45 H 0.21015 0.37673 0.68807 0.0
H46 H 0.19203 0.369 0.65231 0.0
H47 H 0.11534 0.36137 0.62441 0.0
H48 H 0.07648 0.36367 0.6394 0.0
H49 H 0.14539 0.43514 0.64519 0.0
H50 H 0.12545 0.45488 0.70361 0.0
H51 H 0.13825 0.31792 0.69446 0.0
H52 H 0.11233 0.33722 0.75094 0.0
C53 C 0.57768 0.61407 0.18643 0.0
C54 C 0.5733 0.61795 0.16591 0.0
C55 C 0.59248 0.6204 0.15672 0.0
C56 C 0.60739 0.61777 0.17207 0.0
N57 N 0.5989 0.61354 0.19044 0.0
Co58 Co 0.61457 0.60823 0.2168 0.0
N59 N 0.64255 0.61445 0.20404 0.0
C60 C 0.64594 0.61984 0.18445 0.0
C61 C 0.66685 0.6236 0.18037 0.0
C62 C 0.67748 0.62056 0.19847 0.0
C63 C 0.66233 0.61509 0.21257 0.0
N64 N 0.63027 0.60251 0.24306 0.0
C65 C 0.65133 0.60379 0.24769 0.0
C66 C 0.65577 0.59828 0.26774 0.0
C67 C 0.6368 0.59333 0.27607 0.0
C68 C 0.62194 0.59608 0.26072 0.0
N69 N 0.5864 0.60256 0.22963 0.0
C70 C 0.583 0.59683 0.24909 0.0
C71 C 0.56187 0.59525 0.25383 0.0
C72 C 0.55107 0.60057 0.23646 0.0
C73 C 0.56634 0.60498 0.22205 0.0
N74 N 0.6179 0.58219 0.2085 0.0
C75 C 0.62517 0.54528 0.19789 0.0
C76 C 0.61542 0.54987 0.21628 0.0
C77 C 0.61199 0.56813 0.22121 0.0
C78 C 0.63075 0.55963 0.18474 0.0
C79 C 0.62693 0.57769 0.19021 0.0
N80 N 0.61155 0.63412 0.22517 0.0
C81 C 0.60569 0.65655 0.25146 0.0
C82 C 0.60969 0.67092 0.23777 0.0
C83 C 0.61421 0.6664 0.21748 0.0
C84 C 0.61494 0.64813 0.21154 0.0
C85 C 0.6067 0.63848 0.24493 0.0
H86 H 0.61841 0.6456 0.19585 0.0
H87 H 0.60373 0.6282 0.25621 0.0
H88 H 0.60463 0.57045 0.2355 0.0
H89 H 0.6317 0.58775 0.1794 0.0
C90 C 0.62919 0.6209 0.17015 0.0
C91 C 0.56117 0.61227 0.20174 0.0
C92 C 0.66753 0.61051 0.23381 0.0
C93 C 0.59998 0.59388 0.26281 0.0
H94 H 0.55779 0.6194 0.15853 0.0
H95 H 0.59521 0.62429 0.14093 0.0
H96 H 0.67356 0.62799 0.16595 0.0
H97 H 0.69448 0.62214 0.20101 0.0
H98 H 0.67111 0.59807 0.27559 0.0
H99 H 0.6341 0.58861 0.2916 0.0
H100 H 0.55513 0.59122 0.26836 0.0
H101 H 0.53391 0.60148 0.2348 0.0
H102 H 0.61027 0.53943 0.22693 0.0
H103 H 0.63852 0.55705 0.17037 0.0
H104 H 0.60227 0.65915 0.26737 0.0
H105 H 0.61704 0.67691 0.2061 0.0
C106 C 0.43022 0.13954 0.70661 0.0
C107 C 0.44732 0.13543 0.71962 0.0
C108 C 0.43897 0.1284 0.7372 0.0
C109 C 0.41731 0.12867 0.73404 0.0
N110 N 0.41128 0.13521 0.71536 0.0
Co111 Co 0.38115 0.1391 0.70513 0.0
N112 N 0.36885 0.13123 0.7321 0.0
C113 C 0.37991 0.12495 0.7487 0.0
C114 C 0.36733 0.12058 0.76502 0.0
C115 C 0.34699 0.12436 0.75854 0.0
C116 C 0.34832 0.13094 0.73857 0.0
N117 N 0.35106 0.14327 0.69497 0.0
C118 C 0.33216 0.14193 0.70489 0.0
C119 C 0.31511 0.14667 0.69208 0.0
C120 C 0.32344 0.15106 0.67346 0.0
C121 C 0.34503 0.14887 0.67591 0.0
N122 N 0.39349 0.14708 0.67822 0.0
C123 C 0.38241 0.15173 0.66098 0.0
C124 C 0.39506 0.15722 0.64511 0.0
C125 C 0.41545 0.15628 0.65272 0.0
C126 C 0.41407 0.15031 0.67291 0.0
N127 N 0.37967 0.11347 0.69549 0.0
C128 C 0.37364 0.07694 0.68368 0.0
C129 C 0.3674 0.09131 0.67076 0.0
C130 C 0.3706 0.10926 0.67687 0.0
C131 C 0.3838 0.0812 0.70221 0.0
C132 C 0.38671 0.09934 0.7077 0.0
N133 N 0.38244 0.16444 0.71475 0.0
C134 C 0.37638 0.19647 0.70887 0.0
C135 C 0.38405 0.20046 0.72852 0.0
C136 C 0.39098 0.18609 0.74113 0.0
C137 C 0.39003 0.16833 0.73399 0.0
C138 C 0.37572 0.17852 0.70234 0.0
H139 H 0.39545 0.15795 0.74433 0.0
H140 H 0.36976 0.17633 0.68718 0.0
H141 H 0.36523 0.11943 0.66635 0.0
H142 H 0.39449 0.10147 0.72202 0.0
C143 C 0.4022 0.12416 0.74881 0.0
C144 C 0.43278 0.14828 0.68649 0.0
C145 C 0.32956 0.13662 0.72644 0.0
C146 C 0.36012 0.15249 0.66083 0.0
H147 H 0.4641 0.13769 0.71692 0.0
H148 H 0.44763 0.12418 0.75094 0.0
H149 H 0.37238 0.11547 0.77995 0.0
H150 H 0.33279 0.12254 0.76755 0.0
H151 H 0.29838 0.14712 0.69583 0.0
H152 H 0.3148 0.15558 0.65984 0.0
H153 H 0.39002 0.16195 0.63003 0.0
H154 H 0.4297 0.15992 0.64448 0.0
H155 H 0.35946 0.08878 0.6562 0.0
H156 H 0.38947 0.07059 0.71256 0.0
H157 H 0.37109 0.20717 0.69844 0.0
H158 H 0.39681 0.18848 0.75658 0.0
C159 C 0.89507 0.87835 0.17045 0.0
C160 C 0.896 0.8742 0.14979 0.0
C161 C 0.87554 0.87114 0.1433 0.0
C162 C 0.86332 0.87374 0.16024 0.0
N163 N 0.87473 0.87838 0.17713 0.0
Co164 Co 0.86328 0.88425 0.20473 0.0
N165 N 0.83374 0.87676 0.19617 0.0
C166 C 0.82747 0.87038 0.17768 0.0
C167 C 0.80648 0.86523 0.17677 0.0
C168 C 0.79895 0.86825 0.19593 0.0
C169 C 0.81584 0.87524 0.20738 0.0
N170 N 0.85174 0.89086 0.23206 0.0
C171 C 0.83188 0.88883 0.23954 0.0
C172 C 0.83036 0.89578 0.25915 0.0
C173 C 0.85009 0.9022 0.26434 0.0
C174 C 0.86242 0.89892 0.24763 0.0
N175 N 0.89306 0.89073 0.21365 0.0
C176 C 0.89932 0.89697 0.23221 0.0
C177 C 0.92094 0.89879 0.23452 0.0
C178 C 0.92908 0.89316 0.21643 0.0
C179 C 0.91181 0.88844 0.20396 0.0
N180 N 0.85772 0.90985 0.19494 0.0
C181 C 0.84768 0.94611 0.1826 0.0
C182 C 0.86262 0.94247 0.19827 0.0
C183 C 0.86729 0.92448 0.20418 0.0
C184 C 0.83826 0.93124 0.17292 0.0
C185 C 0.84357 0.91349 0.17911 0.0
N186 N 0.86844 0.85884 0.21456 0.0
C187 C 0.87656 0.83741 0.24215 0.0
C188 C 0.87214 0.82257 0.22951 0.0
C189 C 0.86644 0.82636 0.20904 0.0
C190 C 0.8647 0.84438 0.20196 0.0
C191 C 0.87476 0.85523 0.23442 0.0
H192 H 0.85994 0.84635 0.18628 0.0
H193 H 0.87831 0.86596 0.24484 0.0
H194 H 0.87858 0.92287 0.21642 0.0
H195 H 0.83584 0.90299 0.17079 0.0
C196 C 0.84161 0.86978 0.16141 0.0
C197 C 0.91397 0.88153 0.18321 0.0
C198 C 0.81421 0.88005 0.22888 0.0
C199 C 0.88446 0.90106 0.24713 0.0
H200 H 0.91008 0.87311 0.1405 0.0
H201 H 0.87028 0.86689 0.12822 0.0
H202 H 0.79775 0.85981 0.16378 0.0
H203 H 0.78288 0.86551 0.20093 0.0
H204 H 0.81652 0.89586 0.26886 0.0
H205 H 0.85506 0.90795 0.27884 0.0
H206 H 0.92976 0.9034 0.24787 0.0
H207 H 0.94587 0.89244 0.21305 0.0
H208 H 0.87038 0.95348 0.20633 0.0
H209 H 0.82692 0.93325 0.1604 0.0
H210 H 0.88148 0.83532 0.25799 0.0
H211 H 0.86273 0.81548 0.19856 0.0
C212 C 0.08188 0.13884 0.81105 0.0
C213 C 0.06472 0.13382 0.79867 0.0
C214 C 0.073 0.12531 0.78212 0.0
C215 C 0.09467 0.12563 0.78524 0.0
N216 N 0.10076 0.13353 0.803 0.0
Co217 Co 0.13088 0.13811 0.81267 0.0
N218 N 0.14313 0.12875 0.78654 0.0
C219 C 0.13202 0.1216 0.77063 0.0
C220 C 0.14448 0.11693 0.75447 0.0
C221 C 0.16478 0.12142 0.76032 0.0
C222 C 0.1636 0.12853 0.77988 0.0
N223 N 0.16094 0.14297 0.82228 0.0
C224 C 0.17976 0.14144 0.81234 0.0
C225 C 0.19689 0.14633 0.82484 0.0
C226 C 0.18864 0.15138 0.84314 0.0
C227 C 0.16702 0.14924 0.84089 0.0
N228 N 0.11859 0.14769 0.83868 0.0
C229 C 0.12965 0.15324 0.85543 0.0
C230 C 0.11701 0.16003 0.87048 0.0
C231 C 0.09667 0.1591 0.86275 0.0
C232 C 0.09807 0.15179 0.84332 0.0
N233 N 0.13255 0.11307 0.82492 0.0
C234 C 0.13933 0.07735 0.84033 0.0
C235 C 0.14491 0.09249 0.85192 0.0
C236 C 0.14129 0.11001 0.84407 0.0
C237 C 0.12938 0.08043 0.82129 0.0
C238 C 0.12611 0.09818 0.81402 0.0
N239 N 0.12941 0.16278 0.80052 0.0
C240 C 0.13525 0.19505 0.80322 0.0
C241 C 0.12721 0.19791 0.78336 0.0
C242 C 0.12028 0.18289 0.77223 0.0
C243 C 0.12148 0.16557 0.78106 0.0
C244 C 0.13624 0.1775 0.81143 0.0
H245 H 0.11585 0.15462 0.7719 0.0
H246 H 0.14264 0.17611 0.82661 0.0
H247 H 0.14599 0.12077 0.85378 0.0
H248 H 0.11868 0.09938 0.79936 0.0
C249 C 0.10974 0.1205 0.77083 0.0
C250 C 0.07952 0.14949 0.82969 0.0
C251 C 0.18229 0.13532 0.79122 0.0
C252 C 0.15196 0.15378 0.85558 0.0
H253 H 0.04799 0.13656 0.801 0.0
H254 H 0.06431 0.12026 0.7689 0.0
H255 H 0.13934 0.11134 0.73994 0.0
H256 H 0.17879 0.11991 0.75103 0.0
H257 H 0.21364 0.14632 0.8211 0.0
H258 H 0.19735 0.15629 0.85642 0.0
H259 H 0.12206 0.16572 0.88498 0.0
H260 H 0.08245 0.16369 0.87031 0.0
H261 H 0.15213 0.09089 0.86703 0.0
H262 H 0.1247 0.0692 0.81165 0.0
H263 H 0.14105 0.20627 0.81233 0.0
H264 H 0.11372 0.18449 0.75685 0.0
C265 C 0.90078 0.63732 0.3414 0.0
C266 C 0.902 0.64315 0.36155 0.0
C267 C 0.88156 0.64522 0.3679 0.0
C268 C 0.8691 0.64067 0.35133 0.0
N269 N 0.88029 0.63554 0.33482 0.0
Co270 Co 0.86863 0.62903 0.30703 0.0
N271 N 0.83873 0.63398 0.3158 0.0
C272 C 0.83232 0.63938 0.33446 0.0
C273 C 0.81072 0.64165 0.33584 0.0
C274 C 0.80279 0.63731 0.31696 0.0
C275 C 0.82012 0.63256 0.30516 0.0
N276 N 0.85706 0.62273 0.27917 0.0
C277 C 0.8367 0.62254 0.272 0.0
C278 C 0.8355 0.61724 0.25166 0.0
C279 C 0.85588 0.61395 0.24576 0.0
C280 C 0.86827 0.61738 0.26275 0.0
N281 N 0.89853 0.62395 0.29838 0.0
C282 C 0.90489 0.61759 0.28011 0.0
C283 C 0.92655 0.61555 0.27875 0.0
C284 C 0.93454 0.62121 0.29715 0.0
C285 C 0.9172 0.62647 0.30863 0.0
N286 N 0.86536 0.60304 0.31611 0.0
C287 C 0.85827 0.56616 0.32789 0.0
C288 C 0.86716 0.57076 0.30896 0.0
C289 C 0.87059 0.58901 0.3035 0.0
C290 C 0.8534 0.5805 0.34094 0.0
C291 C 0.85703 0.59858 0.33484 0.0
N292 N 0.87163 0.65493 0.29784 0.0
C293 C 0.88153 0.67725 0.27196 0.0
C294 C 0.87365 0.69155 0.2836 0.0
C295 C 0.86521 0.68709 0.30278 0.0
C296 C 0.86437 0.66892 0.30952 0.0
C297 C 0.88048 0.65928 0.27932 0.0
H298 H 0.85757 0.6665 0.32418 0.0
H299 H 0.88685 0.64909 0.26969 0.0
H300 H 0.87725 0.59137 0.28882 0.0
H301 H 0.85278 0.60871 0.34552 0.0
C302 C 0.84696 0.64227 0.35038 0.0
C303 C 0.9194 0.63474 0.32869 0.0
C304 C 0.81802 0.62655 0.28407 0.0
C305 C 0.89034 0.61502 0.26401 0.0
H306 H 0.91612 0.64614 0.37062 0.0
H307 H 0.87642 0.65008 0.38261 0.0
H308 H 0.80181 0.64591 0.34901 0.0
H309 H 0.78611 0.63753 0.31242 0.0
H310 H 0.82134 0.61566 0.24215 0.0
H311 H 0.86102 0.60932 0.23095 0.0
H312 H 0.93549 0.61105 0.2657 0.0
H313 H 0.95126 0.62186 0.30147 0.0
H314 H 0.87107 0.56036 0.29806 0.0
H315 H 0.84689 0.57785 0.35595 0.0
H316 H 0.88868 0.67987 0.25721 0.0
H317 H 0.85877 0.69753 0.31244 0.0
C318 C 0.42976 0.38863 0.80272 0.0
C319 C 0.44597 0.39473 0.79009 0.0
C320 C 0.43652 0.40511 0.77492 0.0
C321 C 0.4151 0.40459 0.77883 0.0
N322 N 0.41044 0.39442 0.79545 0.0
Co323 Co 0.38122 0.38907 0.80542 0.0
N324 N 0.36761 0.39688 0.77896 0.0
C325 C 0.37703 0.40691 0.76427 0.0
C326 C 0.36394 0.41023 0.74759 0.0
C327 C 0.34499 0.40195 0.75214 0.0
C328 C 0.34751 0.39412 0.77151 0.0
N329 N 0.35204 0.38365 0.81545 0.0
C330 C 0.33321 0.38196 0.80501 0.0
C331 C 0.31661 0.3787 0.81841 0.0
C332 C 0.32534 0.37852 0.83782 0.0
C333 C 0.34671 0.38169 0.83526 0.0
N334 N 0.39482 0.38139 0.83186 0.0
C335 C 0.38484 0.37994 0.84992 0.0
C336 C 0.39828 0.37486 0.86578 0.0
C337 C 0.41798 0.37309 0.85719 0.0
C338 C 0.41546 0.37711 0.83644 0.0
N339 N 0.37881 0.41391 0.81551 0.0
C340 C 0.37439 0.44903 0.83095 0.0
C341 C 0.39364 0.43952 0.83343 0.0
C342 C 0.39549 0.42196 0.82569 0.0
C343 C 0.35756 0.44067 0.82032 0.0
C344 C 0.36012 0.42324 0.81268 0.0
N345 N 0.38347 0.36435 0.79541 0.0
C346 C 0.3785 0.33228 0.80062 0.0
C347 C 0.38554 0.3289 0.78076 0.0
C348 C 0.39175 0.34366 0.76849 0.0
C349 C 0.39062 0.36124 0.7761 0.0
C350 C 0.37758 0.35006 0.80763 0.0
H351 H 0.39545 0.37232 0.76631 0.0
H352 H 0.37189 0.35227 0.82289 0.0
H353 H 0.41036 0.41484 0.82809 0.0
H354 H 0.34684 0.41733 0.80452 0.0
C355 C 0.39892 0.41045 0.76531 0.0
C356 C 0.43327 0.37826 0.82201 0.0
C357 C 0.33004 0.38547 0.7829 0.0
C358 C 0.36254 0.38065 0.85064 0.0
H359 H 0.46285 0.39191 0.79143 0.0
H360 H 0.44427 0.41146 0.76197 0.0
H361 H 0.3679 0.41727 0.7335 0.0
H362 H 0.33091 0.40184 0.74235 0.0
H363 H 0.29987 0.37705 0.81459 0.0
H364 H 0.31713 0.37604 0.85205 0.0
H365 H 0.39416 0.37222 0.88159 0.0
H366 H 0.43257 0.36947 0.86533 0.0
H367 H 0.40704 0.44548 0.84158 0.0
H368 H 0.34254 0.44764 0.8177 0.0
H369 H 0.37331 0.32131 0.81056 0.0
H370 H 0.39757 0.34166 0.75314 0.0
C371 C 0.58403 0.86135 0.34233 0.0
C372 C 0.57992 0.85599 0.36236 0.0
C373 C 0.59882 0.85013 0.37069 0.0
C374 C 0.61331 0.85219 0.35534 0.0
N375 N 0.60483 0.85899 0.33765 0.0
Co376 Co 0.62019 0.86418 0.31147 0.0
N377 N 0.64818 0.85644 0.32413 0.0
C378 C 0.65171 0.85012 0.34345 0.0
C379 C 0.6727 0.84633 0.34783 0.0
C380 C 0.68327 0.85059 0.33031 0.0
C381 C 0.66801 0.85671 0.31621 0.0
N382 N 0.63543 0.86933 0.28527 0.0
C383 C 0.65642 0.86814 0.28102 0.0
C384 C 0.66041 0.87279 0.26073 0.0
C385 C 0.64127 0.87733 0.25193 0.0
C386 C 0.62676 0.87513 0.26723 0.0
N387 N 0.59225 0.87211 0.29888 0.0
C388 C 0.58867 0.87815 0.27945 0.0
C389 C 0.56798 0.88315 0.27543 0.0
C390 C 0.55764 0.88016 0.29337 0.0
C391 C 0.57271 0.8734 0.30731 0.0
N392 N 0.6258 0.88963 0.3205 0.0
C393 C 0.63591 0.92557 0.33282 0.0
C394 C 0.62801 0.92198 0.31307 0.0
C395 C 0.62314 0.90412 0.30728 0.0
C396 C 0.63826 0.91076 0.34635 0.0
C397 C 0.6331 0.89315 0.33998 0.0
N398 N 0.61493 0.83858 0.30231 0.0
C399 C 0.60575 0.81707 0.27557 0.0
C400 C 0.6113 0.80219 0.28816 0.0
C401 C 0.61804 0.806 0.30823 0.0
C402 C 0.61959 0.82401 0.31492 0.0
C403 C 0.60758 0.83489 0.28287 0.0
H404 H 0.62492 0.82576 0.33033 0.0
H405 H 0.6031 0.84546 0.27239 0.0
H406 H 0.61746 0.90232 0.29193 0.0
H407 H 0.63527 0.88254 0.35109 0.0
C408 C 0.63506 0.84838 0.35727 0.0
C409 C 0.56757 0.86832 0.3283 0.0
C410 C 0.67316 0.86313 0.29572 0.0
C411 C 0.60511 0.87917 0.26537 0.0
H412 H 0.56482 0.8563 0.37016 0.0
H413 H 0.60169 0.8451 0.38615 0.0
H414 H 0.67953 0.84131 0.36215 0.0
H415 H 0.70031 0.84952 0.3282 0.0
H416 H 0.67564 0.87308 0.25315 0.0
H417 H 0.63832 0.88197 0.23633 0.0
H418 H 0.56124 0.88843 0.26119 0.0
H419 H 0.5409 0.88271 0.29592 0.0
H420 H 0.62601 0.93285 0.30187 0.0
H421 H 0.64391 0.91271 0.36194 0.0
H422 H 0.59988 0.81505 0.26006 0.0
H423 H 0.62267 0.79516 0.31875 0.0
C424 C 0.66755 0.1212 0.42279 0.0
C425 C 0.64633 0.1256 0.42595 0.0
C426 C 0.6376 0.12962 0.40717 0.0
C427 C 0.65386 0.1273 0.39367 0.0
N428 N 0.67243 0.1219 0.40266 0.0
Co429 Co 0.69972 0.11592 0.38868 0.0
N430 N 0.68727 0.12307 0.36129 0.0
C431 C 0.66782 0.1304 0.35744 0.0
C432 C 0.6641 0.13461 0.33719 0.0
C433 C 0.68221 0.12957 0.32749 0.0
C434 C 0.69589 0.12237 0.34245 0.0
N435 N 0.72672 0.10915 0.37463 0.0
C436 C 0.73108 0.10865 0.3544 0.0
C437 C 0.75121 0.10149 0.35101 0.0
C438 C 0.75995 0.09749 0.36978 0.0
C439 C 0.74465 0.1022 0.38346 0.0
N440 N 0.71237 0.10947 0.41627 0.0
C441 C 0.73251 0.10375 0.42036 0.0
C442 C 0.7371 0.10155 0.44082 0.0
C443 C 0.71889 0.10636 0.45048 0.0
C444 C 0.70409 0.11107 0.43524 0.0
N445 N 0.68943 0.09041 0.38491 0.0
C446 C 0.67686 0.05425 0.37562 0.0
C447 C 0.69572 0.05787 0.38666 0.0
C448 C 0.7016 0.07581 0.39113 0.0
C449 C 0.66409 0.06916 0.36999 0.0
C450 C 0.67054 0.08688 0.37481 0.0
N451 N 0.71017 0.14149 0.39198 0.0
C452 C 0.73941 0.163 0.39529 0.0
C453 C 0.72563 0.17784 0.39265 0.0
C454 C 0.70383 0.17406 0.39042 0.0
C455 C 0.69652 0.15601 0.39011 0.0
C456 C 0.73143 0.14518 0.3951 0.0
H457 H 0.67976 0.15416 0.38803 0.0
H458 H 0.74285 0.13458 0.39731 0.0
H459 H 0.71624 0.07753 0.39942 0.0
H460 H 0.66012 0.09755 0.36983 0.0
C461 C 0.65273 0.13159 0.37282 0.0
C462 C 0.6827 0.11764 0.43951 0.0
C463 C 0.71654 0.11447 0.33794 0.0
C464 C 0.74666 0.10032 0.40466 0.0
H465 H 0.63819 0.12628 0.44043 0.0
H466 H 0.62151 0.13421 0.40382 0.0
H467 H 0.64972 0.14023 0.33024 0.0
H468 H 0.68488 0.13076 0.31118 0.0
H469 H 0.75879 0.09916 0.3365 0.0
H470 H 0.77548 0.09164 0.37305 0.0
H471 H 0.75199 0.09715 0.44789 0.0
H472 H 0.71694 0.10657 0.46691 0.0
H473 H 0.70601 0.04691 0.39192 0.0
H474 H 0.64938 0.06731 0.36135 0.0
H475 H 0.75638 0.16509 0.39759 0.0
H476 H 0.69239 0.18496 0.38832 0.0
C477 C 0.92838 0.21172 0.88222 0.0
C478 C 0.943 0.21534 0.89784 0.0
C479 C 0.93185 0.22331 0.91325 0.0
C480 C 0.91112 0.22423 0.9062 0.0
N481 N 0.90853 0.21748 0.88726 0.0
Co482 Co 0.88101 0.21631 0.8716 0.0
N483 N 0.86703 0.23424 0.88968 0.0
C484 C 0.87412 0.23883 0.90852 0.0
C485 C 0.8609 0.25076 0.91809 0.0
C486 C 0.8443 0.25375 0.90456 0.0
C487 C 0.84835 0.24352 0.88731 0.0
N488 N 0.85358 0.21523 0.85575 0.0
C489 C 0.83641 0.22655 0.85559 0.0
C490 C 0.82125 0.221 0.84121 0.0
C491 C 0.82875 0.20535 0.83282 0.0
C492 C 0.84818 0.20232 0.84218 0.0
N493 N 0.89486 0.19817 0.85375 0.0
C494 C 0.88458 0.18669 0.8411 0.0
C495 C 0.89811 0.17542 0.8309 0.0
C496 C 0.91818 0.18 0.83763 0.0
C497 C 0.91578 0.19392 0.85157 0.0
N498 N 0.87136 0.19672 0.88961 0.0
C499 C 0.86 0.17383 0.92197 0.0
C500 C 0.84504 0.18569 0.91296 0.0
C501 C 0.85104 0.19701 0.89685 0.0
C502 C 0.88006 0.17227 0.91303 0.0
C503 C 0.88537 0.18378 0.89672 0.0
N504 N 0.89068 0.23595 0.85392 0.0
C505 C 0.89542 0.24837 0.82021 0.0
C506 C 0.90304 0.26458 0.82858 0.0
C507 C 0.90464 0.26616 0.84983 0.0
C508 C 0.89864 0.25155 0.86226 0.0
C509 C 0.88918 0.23428 0.83315 0.0
H510 H 0.90019 0.25298 0.87861 0.0
H511 H 0.88284 0.22215 0.82633 0.0
H512 H 0.83954 0.20675 0.89117 0.0
H513 H 0.90125 0.18293 0.89073 0.0
C514 C 0.89443 0.23346 0.91552 0.0
C515 C 0.93355 0.20165 0.86356 0.0
C516 C 0.83299 0.24149 0.8701 0.0
C517 C 0.86289 0.18908 0.83661 0.0
H518 H 0.9599 0.21238 0.89817 0.0
H519 H 0.93824 0.22832 0.92761 0.0
H520 H 0.86321 0.25681 0.933 0.0
H521 H 0.83057 0.2622 0.90733 0.0
H522 H 0.80619 0.22741 0.83729 0.0
H523 H 0.82121 0.19745 0.82085 0.0
H524 H 0.89396 0.16552 0.81939 0.0
H525 H 0.93289 0.17373 0.83292 0.0
H526 H 0.82915 0.18695 0.91907 0.0
H527 H 0.89205 0.16317 0.91945 0.0
H528 H 0.89366 0.24683 0.80378 0.0
H529 H 0.91044 0.27855 0.85674 0.0
C530 C 0.84644 0.35877 0.39799 0.0
C531 C 0.86672 0.35224 0.39406 0.0
C532 C 0.86863 0.35207 0.37327 0.0
C533 C 0.84945 0.35834 0.36574 0.0
N534 N 0.83553 0.36287 0.38045 0.0
Co535 Co 0.80506 0.37072 0.37649 0.0
N536 N 0.8066 0.36721 0.3462 0.0
C537 C 0.82395 0.36269 0.33533 0.0
C538 C 0.81996 0.36117 0.31472 0.0
C539 C 0.79875 0.36485 0.31229 0.0
C540 C 0.79103 0.36843 0.33167 0.0
N541 N 0.77446 0.37812 0.37272 0.0
C542 C 0.76186 0.37787 0.35571 0.0
C543 C 0.74123 0.38348 0.35971 0.0
C544 C 0.74073 0.38728 0.38011 0.0
C545 C 0.76098 0.38376 0.38732 0.0
N546 N 0.80366 0.37441 0.40674 0.0
C547 C 0.78731 0.38145 0.41734 0.0
C548 C 0.79113 0.38209 0.43806 0.0
C549 C 0.81093 0.3747 0.4409 0.0
C550 C 0.81797 0.36987 0.42166 0.0
N551 N 0.81429 0.39673 0.37253 0.0
C552 C 0.82525 0.43366 0.36424 0.0
C553 C 0.80777 0.42909 0.37631 0.0
C554 C 0.80273 0.41083 0.38031 0.0
C555 C 0.83753 0.41934 0.35693 0.0
C556 C 0.83184 0.40124 0.36119 0.0
N557 N 0.79572 0.34496 0.38018 0.0
C558 C 0.77163 0.32267 0.39484 0.0
C559 C 0.78118 0.30854 0.38411 0.0
C560 C 0.79843 0.31307 0.37162 0.0
C561 C 0.80532 0.33117 0.36984 0.0
C562 C 0.77915 0.34056 0.39279 0.0
H563 H 0.81835 0.33377 0.35985 0.0
H564 H 0.77128 0.35069 0.40149 0.0
H565 H 0.78926 0.4086 0.38964 0.0
H566 H 0.84184 0.39118 0.35487 0.0
C567 C 0.84335 0.35855 0.34507 0.0
C568 C 0.83764 0.35986 0.41845 0.0
C569 C 0.7687 0.37228 0.33559 0.0
C570 C 0.76773 0.38524 0.40774 0.0
H571 H 0.87868 0.34751 0.40499 0.0
H572 H 0.88204 0.34718 0.36468 0.0
H573 H 0.83101 0.35735 0.30295 0.0
H574 H 0.7899 0.36459 0.29792 0.0
H575 H 0.72792 0.38459 0.349 0.0
H576 H 0.72716 0.39185 0.38871 0.0
H577 H 0.78041 0.38659 0.4498 0.0
H578 H 0.81899 0.3725 0.45552 0.0
H579 H 0.79795 0.43957 0.38282 0.0
H580 H 0.85124 0.42201 0.34746 0.0
H581 H 0.75848 0.31995 0.40499 0.0
H582 H 0.80635 0.30275 0.36284 0.0
C583 C 0.58574 0.31945 0.8768 0.0
C584 C 0.56943 0.3071 0.88038 0.0
C585 C 0.57885 0.29116 0.88631 0.0
C586 C 0.60031 0.29451 0.88584 0.0
N587 N 0.60524 0.31173 0.88021 0.0
Co588 Co 0.63476 0.32167 0.87585 0.0
N589 N 0.64837 0.29715 0.88027 0.0
C590 C 0.63812 0.2815 0.88495 0.0
C591 C 0.65138 0.26688 0.88757 0.0
C592 C 0.67135 0.27347 0.88418 0.0
C593 C 0.66915 0.29183 0.87947 0.0
N594 N 0.66431 0.33165 0.87182 0.0
C595 C 0.68366 0.32317 0.87159 0.0
C596 C 0.69995 0.33545 0.86766 0.0
C597 C 0.69074 0.35217 0.86571 0.0
C598 C 0.66938 0.34926 0.86835 0.0
N599 N 0.62105 0.34602 0.87066 0.0
C600 C 0.63127 0.36185 0.86685 0.0
C601 C 0.61782 0.37618 0.86295 0.0
C602 C 0.59777 0.36902 0.86383 0.0
C603 C 0.60012 0.35061 0.86812 0.0
N604 N 0.63739 0.32675 0.90568 0.0
C605 C 0.6405 0.33416 0.94796 0.0
C606 C 0.64406 0.34774 0.9333 0.0
C607 C 0.64258 0.34374 0.91248 0.0
C608 C 0.63542 0.3168 0.94109 0.0
C609 C 0.63385 0.31346 0.92012 0.0
N610 N 0.63186 0.31686 0.84633 0.0
C611 C 0.63228 0.32795 0.81139 0.0
C612 C 0.62039 0.313 0.80504 0.0
C613 C 0.6156 0.29943 0.81935 0.0
C614 C 0.62171 0.30151 0.83975 0.0
C615 C 0.63786 0.32959 0.83205 0.0
H616 H 0.61759 0.29077 0.85005 0.0
H617 H 0.6465 0.34148 0.83621 0.0
H618 H 0.6457 0.35472 0.90231 0.0
H619 H 0.62983 0.29997 0.91612 0.0
C620 C 0.61605 0.28114 0.88753 0.0
C621 C 0.58199 0.33803 0.8691 0.0
C622 C 0.68737 0.3036 0.87464 0.0
C623 C 0.65355 0.36255 0.86607 0.0
H624 H 0.55246 0.30903 0.8782 0.0
H625 H 0.571 0.27836 0.88941 0.0
H626 H 0.64707 0.25309 0.89169 0.0
H627 H 0.68589 0.2656 0.88529 0.0
H628 H 0.71676 0.33264 0.86604 0.0
H629 H 0.69863 0.36489 0.86224 0.0
H630 H 0.62209 0.39008 0.85936 0.0
H631 H 0.58307 0.37645 0.86123 0.0
H632 H 0.64779 0.3615 0.93777 0.0
H633 H 0.6329 0.30567 0.95179 0.0
H634 H 0.63674 0.33853 0.8006 0.0
H635 H 0.60716 0.28725 0.81481 0.0
C636 C 0.65002 0.3481 0.11433 0.0
C637 C 0.62907 0.34324 0.10986 0.0
C638 C 0.62005 0.33841 0.12799 0.0
C639 C 0.63589 0.34067 0.14243 0.0
N640 N 0.65446 0.34684 0.13469 0.0
Co641 Co 0.68161 0.35192 0.15022 0.0
N642 N 0.66815 0.34492 0.17689 0.0
C643 C 0.64791 0.33921 0.17981 0.0
C644 C 0.64312 0.33598 0.19995 0.0
C645 C 0.66134 0.34007 0.2106 0.0
C646 C 0.67618 0.34557 0.19623 0.0
N647 N 0.70886 0.35666 0.16568 0.0
C648 C 0.7131 0.3558 0.18606 0.0
C649 C 0.73418 0.36024 0.19055 0.0
C650 C 0.74357 0.36416 0.17232 0.0
C651 C 0.72777 0.3619 0.15783 0.0
N652 N 0.69488 0.35935 0.12359 0.0
C653 C 0.71507 0.36528 0.12076 0.0
C654 C 0.7197 0.36912 0.10074 0.0
C655 C 0.70141 0.36539 0.09006 0.0
C656 C 0.68655 0.35954 0.10429 0.0
N657 N 0.67254 0.37763 0.15447 0.0
C658 C 0.6606 0.41403 0.16265 0.0
C659 C 0.68111 0.40975 0.15609 0.0
C660 C 0.68669 0.3917 0.15219 0.0
C661 C 0.64608 0.39969 0.16474 0.0
C662 C 0.65226 0.38181 0.16048 0.0
N663 N 0.69089 0.32614 0.14618 0.0
C664 C 0.71764 0.3044 0.13572 0.0
C665 C 0.7052 0.28974 0.14222 0.0
C666 C 0.68528 0.29364 0.15047 0.0
C667 C 0.67838 0.31173 0.15204 0.0
C668 C 0.71035 0.32225 0.13794 0.0
H669 H 0.66288 0.31369 0.15809 0.0
H670 H 0.72091 0.33266 0.13301 0.0
H671 H 0.70268 0.38944 0.14759 0.0
H672 H 0.64041 0.37155 0.1623 0.0
C673 C 0.63366 0.33737 0.16336 0.0
C674 C 0.66511 0.35353 0.09864 0.0
C675 C 0.69751 0.35164 0.20172 0.0
C676 C 0.72975 0.36594 0.13703 0.0
H677 H 0.62116 0.34311 0.09499 0.0
H678 H 0.60388 0.33379 0.13036 0.0
H679 H 0.6281 0.33143 0.20615 0.0
H680 H 0.66343 0.33929 0.22709 0.0
H681 H 0.74186 0.36095 0.2055 0.0
H682 H 0.7598 0.36862 0.16997 0.0
H683 H 0.73476 0.37363 0.09458 0.0
H684 H 0.69947 0.3665 0.07359 0.0
H685 H 0.69308 0.42024 0.1544 0.0
H686 H 0.62989 0.40223 0.16948 0.0
H687 H 0.73324 0.30216 0.12933 0.0
H688 H 0.67488 0.28276 0.15547 0.0
C689 C 0.58533 0.20054 0.62419 0.0
C690 C 0.57017 0.20482 0.60918 0.0
C691 C 0.58081 0.21345 0.5936 0.0
C692 C 0.60181 0.21398 0.59993 0.0
N693 N 0.60501 0.20629 0.61852 0.0
Co694 Co 0.63292 0.20434 0.63336 0.0
N695 N 0.64619 0.22349 0.61593 0.0
C696 C 0.63842 0.22942 0.59768 0.0
C697 C 0.65087 0.24262 0.5889 0.0
C698 C 0.66767 0.24498 0.60231 0.0
C699 C 0.66469 0.23292 0.61855 0.0
N700 N 0.6607 0.20244 0.64848 0.0
C701 C 0.6779 0.21371 0.64861 0.0
C702 C 0.6942 0.20658 0.66094 0.0
C703 C 0.68703 0.1903 0.66856 0.0
C704 C 0.66683 0.18832 0.66051 0.0
N705 N 0.61974 0.18502 0.65052 0.0
C706 C 0.6304 0.17263 0.66201 0.0
C707 C 0.61711 0.1609 0.67221 0.0
C708 C 0.59682 0.16623 0.66673 0.0
C709 C 0.59888 0.18097 0.65346 0.0
N710 N 0.64229 0.18606 0.61405 0.0
C711 C 0.65369 0.16479 0.58079 0.0
C712 C 0.6687 0.176 0.59052 0.0
C713 C 0.66262 0.18667 0.60685 0.0
C714 C 0.6334 0.16318 0.5894 0.0
C715 C 0.62815 0.17373 0.60623 0.0
N716 N 0.6235 0.22265 0.65228 0.0
C717 C 0.61891 0.23273 0.68666 0.0
C718 C 0.60967 0.2489 0.67929 0.0
C719 C 0.60742 0.25166 0.65815 0.0
C720 C 0.61434 0.23831 0.6449 0.0
C721 C 0.6258 0.21981 0.67289 0.0
H722 H 0.6123 0.2407 0.62869 0.0
H723 H 0.63309 0.20758 0.6789 0.0
H724 H 0.67418 0.19604 0.61291 0.0
H725 H 0.61225 0.17261 0.61219 0.0
C726 C 0.61806 0.22415 0.59076 0.0
C727 C 0.58083 0.19004 0.64297 0.0
C728 C 0.68051 0.22983 0.63526 0.0
C729 C 0.65234 0.1746 0.66571 0.0
H730 H 0.55325 0.20197 0.60945 0.0
H731 H 0.57388 0.21929 0.57971 0.0
H732 H 0.64779 0.25005 0.57474 0.0
H733 H 0.68073 0.2544 0.60022 0.0
H734 H 0.70989 0.21226 0.66367 0.0
H735 H 0.69546 0.18114 0.67894 0.0
H736 H 0.62158 0.15026 0.68303 0.0
H737 H 0.58219 0.15998 0.67189 0.0
H738 H 0.68485 0.1772 0.58502 0.0
H739 H 0.62123 0.15464 0.58258 0.0
H740 H 0.62129 0.23028 0.70294 0.0
H741 H 0.60033 0.264 0.65193 0.0
C742 C 0.78993 0.07857 0.12541 0.0
C743 C 0.77837 0.06493 0.11584 0.0
C744 C 0.76343 0.07338 0.1034 0.0
C745 C 0.76672 0.09165 0.106 0.0
N746 N 0.78273 0.09519 0.11933 0.0
Co747 Co 0.79277 0.11971 0.12726 0.0
N748 N 0.76573 0.13133 0.11769 0.0
C749 C 0.75146 0.12392 0.10461 0.0
C750 C 0.7346 0.13522 0.10006 0.0
C751 C 0.73861 0.15079 0.11077 0.0
C752 C 0.75775 0.14811 0.1214 0.0
N753 N 0.80288 0.14429 0.13521 0.0
C754 C 0.7918 0.15992 0.13785 0.0
C755 C 0.80536 0.17375 0.14418 0.0
C756 C 0.82558 0.16668 0.14479 0.0
C757 C 0.82331 0.14892 0.1391 0.0
N758 N 0.8198 0.10803 0.13676 0.0
C759 C 0.83842 0.11662 0.14026 0.0
C760 C 0.85417 0.10515 0.14745 0.0
C761 C 0.84491 0.0883 0.1484 0.0
C762 C 0.82396 0.09037 0.14152 0.0
N763 N 0.80474 0.12329 0.10012 0.0
C764 C 0.82313 0.12922 0.06198 0.0
C765 C 0.82504 0.11232 0.07183 0.0
C766 C 0.81584 0.10967 0.09101 0.0
C767 C 0.8115 0.14293 0.07136 0.0
C768 C 0.80237 0.13967 0.09032 0.0
N769 N 0.78094 0.11609 0.15427 0.0
C770 C 0.78501 0.1177 0.19075 0.0
C771 C 0.7648 0.10996 0.19326 0.0
C772 C 0.75273 0.10551 0.17579 0.0
C773 C 0.76107 0.10878 0.15641 0.0
C774 C 0.7928 0.12054 0.17118 0.0
H775 H 0.75152 0.10526 0.14317 0.0
H776 H 0.80847 0.12633 0.16975 0.0
H777 H 0.81787 0.09665 0.09853 0.0
H778 H 0.79351 0.15052 0.09708 0.0
C779 C 0.75306 0.10561 0.0992 0.0
C780 C 0.80871 0.07533 0.13877 0.0
C781 C 0.76892 0.16248 0.13289 0.0
C782 C 0.83921 0.1356 0.1406 0.0
H783 H 0.7806 0.05042 0.11754 0.0
H784 H 0.75114 0.06694 0.09419 0.0
H785 H 0.72082 0.13238 0.09043 0.0
H786 H 0.72878 0.16286 0.11043 0.0
H787 H 0.8012 0.18756 0.14789 0.0
H788 H 0.84007 0.17351 0.1496 0.0
H789 H 0.87015 0.10875 0.15246 0.0
H790 H 0.85271 0.07601 0.15377 0.0
H791 H 0.8339 0.1014 0.06499 0.0
H792 H 0.80934 0.15609 0.06401 0.0
H793 H 0.7947 0.12177 0.20378 0.0
H794 H 0.73707 0.09943 0.17703 0.0
C795 C 0.92642 0.30878 0.63643 0.0
C796 C 0.9437 0.29703 0.63592 0.0
C797 C 0.93588 0.28052 0.62981 0.0
C798 C 0.91434 0.28308 0.62689 0.0
N799 N 0.90813 0.30014 0.63086 0.0
Co800 Co 0.87843 0.30949 0.6285 0.0
N801 N 0.86608 0.2846 0.62931 0.0
C802 C 0.87687 0.26919 0.62574 0.0
C803 C 0.86426 0.25398 0.62663 0.0
C804 C 0.8442 0.2602 0.63077 0.0
C805 C 0.84567 0.27895 0.6322 0.0
N806 N 0.8487 0.31887 0.62597 0.0
C807 C 0.82971 0.31039 0.62898 0.0
C808 C 0.81283 0.32218 0.62496 0.0
C809 C 0.82156 0.3384 0.61885 0.0
C810 C 0.84322 0.33571 0.61955 0.0
N811 N 0.89088 0.33434 0.62772 0.0
C812 C 0.8808 0.34945 0.62102 0.0
C813 C 0.8933 0.36471 0.6225 0.0
C814 C 0.91248 0.35879 0.63055 0.0
C815 C 0.91063 0.34017 0.63349 0.0
N816 N 0.87999 0.30842 0.59869 0.0
C817 C 0.88027 0.31166 0.55606 0.0
C818 C 0.89799 0.31697 0.56781 0.0
C819 C 0.89758 0.31514 0.58906 0.0
C820 C 0.86298 0.30358 0.56596 0.0
C821 C 0.86314 0.3021 0.5873 0.0
N822 N 0.87719 0.31086 0.65815 0.0
C823 C 0.87363 0.32927 0.68805 0.0
C824 C 0.88448 0.31612 0.69969 0.0
C825 C 0.89012 0.29975 0.69064 0.0
C826 C 0.88605 0.29728 0.66987 0.0
C827 C 0.87016 0.32638 0.66716 0.0
H828 H 0.89113 0.28479 0.66306 0.0
H829 H 0.86282 0.33708 0.65815 0.0
H830 H 0.91122 0.31986 0.59772 0.0
H831 H 0.84925 0.29653 0.59457 0.0
C832 C 0.89913 0.26937 0.6241 0.0
C833 C 0.92821 0.32829 0.64063 0.0
C834 C 0.827 0.29094 0.63389 0.0
C835 C 0.8588 0.34916 0.61695 0.0
H836 H 0.96022 0.3001 0.63947 0.0
H837 H 0.94473 0.26799 0.62846 0.0
H838 H 0.86911 0.23999 0.62482 0.0
H839 H 0.83002 0.25192 0.63208 0.0
H840 H 0.79596 0.31931 0.62606 0.0
H841 H 0.81311 0.35079 0.61486 0.0
H842 H 0.88876 0.37859 0.61899 0.0
H843 H 0.9262 0.36723 0.63388 0.0
H844 H 0.91179 0.32306 0.56067 0.0
H845 H 0.84892 0.29936 0.5574 0.0
H846 H 0.86875 0.34194 0.6948 0.0
H847 H 0.89807 0.28912 0.69949 0.0
C848 C 0.38478 0.70337 0.0702 0.0
C849 C 0.39776 0.71075 0.05521 0.0
C850 C 0.41041 0.72338 0.06458 0.0
C851 C 0.40446 0.72318 0.0847 0.0
N852 N 0.38904 0.7109 0.08891 0.0
Co853 Co 0.37407 0.70804 0.11589 0.0
N854 N 0.39021 0.72876 0.12887 0.0
C855 C 0.40535 0.73896 0.11968 0.0
C856 C 0.414 0.75199 0.1321 0.0
C857 C 0.40398 0.74995 0.15042 0.0
C858 C 0.38975 0.73564 0.14824 0.0
N859 N 0.3588 0.70531 0.14274 0.0
C860 C 0.36104 0.71437 0.16083 0.0
C861 C 0.34769 0.70721 0.17566 0.0
C862 C 0.33667 0.69332 0.16678 0.0
C863 C 0.34389 0.69261 0.1471 0.0
N864 N 0.3579 0.68735 0.10298 0.0
C865 C 0.3437 0.67643 0.11247 0.0
C866 C 0.33444 0.66386 0.09982 0.0
C867 C 0.34286 0.66716 0.08098 0.0
C868 C 0.35672 0.68174 0.08312 0.0
N869 N 0.39648 0.69102 0.12615 0.0
C870 C 0.42829 0.66981 0.14541 0.0
C871 C 0.40707 0.66432 0.1458 0.0
C872 C 0.39146 0.67512 0.13616 0.0
C873 C 0.43359 0.68537 0.13432 0.0
C874 C 0.4176 0.69552 0.12459 0.0
N875 N 0.35195 0.72492 0.10547 0.0
C876 C 0.31556 0.72943 0.09442 0.0
C877 C 0.32136 0.74482 0.08313 0.0
C878 C 0.34236 0.75088 0.08434 0.0
C879 C 0.35734 0.74077 0.0956 0.0
C880 C 0.33097 0.71992 0.1057 0.0
H881 H 0.37323 0.74583 0.09571 0.0
H882 H 0.32566 0.70832 0.11411 0.0
H883 H 0.3755 0.67049 0.13745 0.0
H884 H 0.42276 0.70713 0.11629 0.0
C885 C 0.41123 0.73575 0.0994 0.0
C886 C 0.3678 0.69006 0.06566 0.0
C887 C 0.37617 0.72922 0.1651 0.0
C888 C 0.3377 0.67966 0.13267 0.0
H889 H 0.39759 0.70788 0.039 0.0
H890 H 0.42181 0.73233 0.05733 0.0
H891 H 0.42626 0.76178 0.12832 0.0
H892 H 0.40687 0.75807 0.16388 0.0
H893 H 0.34635 0.7113 0.19145 0.0
H894 H 0.32512 0.68448 0.17398 0.0
H895 H 0.32234 0.65395 0.10366 0.0
H896 H 0.33881 0.65997 0.06709 0.0
H897 H 0.40245 0.65214 0.15409 0.0
H898 H 0.45004 0.68978 0.13332 0.0
H899 H 0.29914 0.72486 0.09475 0.0
H900 H 0.34724 0.76316 0.07639 0.0
C901 C 0.39936 0.84542 0.36506 0.0
C902 C 0.39311 0.86072 0.35385 0.0
C903 C 0.37267 0.85763 0.34706 0.0
C904 C 0.36752 0.84075 0.3546 0.0
N905 N 0.38331 0.83312 0.36598 0.0
Co906 Co 0.38246 0.80876 0.37935 0.0
N907 N 0.35108 0.80758 0.37656 0.0
C908 C 0.33891 0.81749 0.36343 0.0
C909 C 0.31768 0.81317 0.36434 0.0
C910 C 0.31646 0.79967 0.37892 0.0
C911 C 0.33714 0.79659 0.38627 0.0
N912 N 0.38171 0.78448 0.39277 0.0
C913 C 0.36541 0.77612 0.40231 0.0
C914 C 0.37213 0.76 0.41165 0.0
C915 C 0.3932 0.75796 0.40711 0.0
C916 C 0.39825 0.77304 0.39563 0.0
N917 N 0.414 0.80977 0.38197 0.0
C918 C 0.42704 0.79548 0.38546 0.0
C919 C 0.44821 0.79999 0.3857 0.0
C920 C 0.44863 0.81825 0.38189 0.0
C921 C 0.42753 0.82393 0.37954 0.0
N922 N 0.3793 0.82022 0.40674 0.0
C923 C 0.3701 0.83344 0.44677 0.0
C924 C 0.38627 0.82048 0.44355 0.0
C925 C 0.39057 0.81412 0.42364 0.0
C926 C 0.35925 0.83991 0.42905 0.0
C927 C 0.36411 0.83331 0.40946 0.0
N928 N 0.38481 0.79715 0.35188 0.0
C929 C 0.37165 0.77519 0.32716 0.0
C930 C 0.38459 0.78226 0.31152 0.0
C931 C 0.39816 0.79675 0.31704 0.0
C932 C 0.39805 0.80392 0.33708 0.0
C933 C 0.37202 0.78268 0.34696 0.0
H934 H 0.40843 0.81521 0.34043 0.0
H935 H 0.36156 0.77686 0.35824 0.0
H936 H 0.40275 0.80391 0.42202 0.0
H937 H 0.35498 0.83847 0.39652 0.0
C938 C 0.34743 0.83257 0.35326 0.0
C939 C 0.42131 0.84222 0.37241 0.0
C940 C 0.34318 0.7822 0.40112 0.0
C941 C 0.4189 0.7786 0.3912 0.0
H942 H 0.40257 0.87265 0.35047 0.0
H943 H 0.36267 0.86673 0.33798 0.0
H944 H 0.30456 0.81947 0.35595 0.0
H945 H 0.30196 0.79284 0.38337 0.0
H946 H 0.36279 0.75062 0.42071 0.0
H947 H 0.40383 0.74729 0.4125 0.0
H948 H 0.46172 0.79115 0.38868 0.0
H949 H 0.463 0.82624 0.38045 0.0
H950 H 0.39565 0.81514 0.45631 0.0
H951 H 0.34647 0.84969 0.43018 0.0
H952 H 0.36119 0.76378 0.32424 0.0
H953 H 0.4085 0.80295 0.30581 0.0
C954 C 0.20345 0.88376 0.93447 0.0
C955 C 0.21726 0.88798 0.95054 0.0
C956 C 0.23523 0.89507 0.94201 0.0
C957 C 0.23143 0.89494 0.92126 0.0
N958 N 0.21198 0.88842 0.91597 0.0
Co959 Co 0.20066 0.88537 0.88714 0.0
N960 N 0.2285 0.89286 0.87449 0.0
C961 C 0.2462 0.89822 0.88489 0.0
C962 C 0.26324 0.90177 0.87258 0.0
C963 C 0.25611 0.8984 0.85311 0.0
C964 C 0.23493 0.89309 0.85455 0.0
N965 N 0.18938 0.88216 0.85831 0.0
C966 C 0.19923 0.8835 0.8398 0.0
C967 C 0.18505 0.88016 0.82375 0.0
C968 C 0.16579 0.87631 0.83229 0.0
C969 C 0.16915 0.8776 0.85303 0.0
N970 N 0.17297 0.87751 0.89984 0.0
C971 C 0.15488 0.87312 0.88948 0.0
C972 C 0.13883 0.86708 0.90184 0.0
C973 C 0.1472 0.86737 0.92129 0.0
C974 C 0.16797 0.87371 0.91979 0.0
N975 N 0.19087 0.91123 0.88633 0.0
C976 C 0.17858 0.94801 0.88069 0.0
C977 C 0.16439 0.93386 0.8765 0.0
C978 C 0.17075 0.91581 0.87951 0.0
C979 C 0.19871 0.9434 0.88868 0.0
C980 C 0.20441 0.92516 0.89144 0.0
N981 N 0.21034 0.85991 0.8877 0.0
C982 C 0.20415 0.82841 0.87992 0.0
C983 C 0.22459 0.82383 0.887 0.0
C984 C 0.23765 0.83754 0.89482 0.0
C985 C 0.23024 0.85537 0.89504 0.0
C986 C 0.19739 0.8464 0.88042 0.0
H987 H 0.24093 0.8653 0.90102 0.0
H988 H 0.18169 0.84908 0.87473 0.0
H989 H 0.15913 0.90587 0.87581 0.0
H990 H 0.21997 0.92275 0.89749 0.0
C991 C 0.24656 0.89902 0.90633 0.0
C992 C 0.18252 0.8752 0.93768 0.0
C993 C 0.22183 0.88803 0.83654 0.0
C994 C 0.15406 0.87347 0.86799 0.0
H995 H 0.21476 0.88584 0.96677 0.0
H996 H 0.24966 0.89925 0.94998 0.0
H997 H 0.27913 0.90594 0.87724 0.0
H998 H 0.2656 0.89947 0.83946 0.0
H999 H 0.18828 0.8804 0.8075 0.0
H1000 H 0.15116 0.87268 0.82432 0.0
H1001 H 0.12314 0.86238 0.8972 0.0
H1002 H 0.13905 0.86293 0.93496 0.0
H1003 H 0.14857 0.93661 0.8703 0.0
H1004 H 0.21014 0.95383 0.89274 0.0
H1005 H 0.19335 0.81817 0.87405 0.0
H1006 H 0.25369 0.83463 0.90033 0.0
C1007 C 0.13235 0.71037 0.42115 0.0
C1008 C 0.12398 0.71994 0.43734 0.0
C1009 C 0.11243 0.73407 0.42892 0.0
C1010 C 0.11426 0.73236 0.40808 0.0
N1011 N 0.12628 0.71809 0.40284 0.0
Co1012 Co 0.13252 0.71097 0.37413 0.0
N1013 N 0.12408 0.73521 0.36249 0.0
C1014 C 0.11268 0.74772 0.37245 0.0
C1015 C 0.10867 0.76305 0.36085 0.0
C1016 C 0.11783 0.75994 0.34228 0.0
C1017 C 0.12687 0.74276 0.34347 0.0
N1018 N 0.13868 0.70376 0.34538 0.0
C1019 C 0.1403 0.71385 0.32776 0.0
C1020 C 0.14389 0.70275 0.31113 0.0
C1021 C 0.14432 0.68524 0.31849 0.0
C1022 C 0.14094 0.68652 0.33915 0.0
N1023 N 0.14104 0.6868 0.38585 0.0
C1024 C 0.14325 0.67154 0.37495 0.0
C1025 C 0.14996 0.657 0.38673 0.0
C1026 C 0.15196 0.66344 0.4063 0.0
C1027 C 0.14613 0.68162 0.4055 0.0
N1028 N 0.10326 0.7024 0.37069 0.0
C1029 C 0.06205 0.68891 0.36514 0.0
C1030 C 0.07372 0.68481 0.38303 0.0
C1031 C 0.09422 0.69184 0.3856 0.0
C1032 C 0.07122 0.70009 0.35022 0.0
C1033 C 0.09187 0.70658 0.35322 0.0
N1034 N 0.16155 0.71932 0.37779 0.0
C1035 C 0.19889 0.71265 0.37749 0.0
C1036 C 0.20309 0.72824 0.38884 0.0
C1037 C 0.18626 0.73973 0.39379 0.0
C1038 C 0.16557 0.7351 0.38791 0.0
C1039 C 0.17799 0.70844 0.37209 0.0
H1040 H 0.15278 0.74398 0.39212 0.0
H1041 H 0.17509 0.69605 0.36396 0.0
H1042 H 0.10281 0.68855 0.39959 0.0
H1043 H 0.09866 0.71479 0.34123 0.0
C1044 C 0.10811 0.74536 0.39328 0.0
C1045 C 0.14441 0.69323 0.42379 0.0
C1046 C 0.13617 0.73354 0.32567 0.0
C1047 C 0.14242 0.67223 0.35349 0.0
H1048 H 0.12587 0.71695 0.45355 0.0
H1049 H 0.10432 0.74468 0.43706 0.0
H1050 H 0.10039 0.77519 0.36545 0.0
H1051 H 0.11751 0.76915 0.32923 0.0
H1052 H 0.14555 0.70684 0.29524 0.0
H1053 H 0.14713 0.67305 0.30984 0.0
H1054 H 0.15386 0.64351 0.38157 0.0
H1055 H 0.15721 0.65559 0.41955 0.0
H1056 H 0.06702 0.67631 0.39497 0.0
H1057 H 0.0627 0.70339 0.33608 0.0
H1058 H 0.2116 0.70351 0.3733 0.0
H1059 H 0.18908 0.75215 0.40213 0.0
C1060 C 0.30621 0.63784 0.9163 0.0
C1061 C 0.29435 0.63059 0.93219 0.0
C1062 C 0.27902 0.61976 0.92338 0.0
C1063 C 0.28233 0.62094 0.90264 0.0
N1064 N 0.29874 0.63186 0.89783 0.0
Co1065 Co 0.30855 0.63724 0.86945 0.0
N1066 N 0.2814 0.62851 0.85655 0.0
C1067 C 0.26675 0.61821 0.86611 0.0
C1068 C 0.24955 0.6141 0.85375 0.0
C1069 C 0.25373 0.62207 0.83515 0.0
C1070 C 0.27346 0.63051 0.83704 0.0
N1071 N 0.31843 0.64278 0.84111 0.0
C1072 C 0.30754 0.64364 0.82282 0.0
C1073 C 0.32137 0.6472 0.80686 0.0
C1074 C 0.34145 0.64848 0.81535 0.0
C1075 C 0.3389 0.64559 0.83599 0.0
N1076 N 0.33569 0.64585 0.88244 0.0
C1077 C 0.35422 0.64819 0.87264 0.0
C1078 C 0.37032 0.65434 0.88527 0.0
C1079 C 0.36141 0.6559 0.90425 0.0
C1080 C 0.34028 0.65053 0.9022 0.0
N1081 N 0.32044 0.61271 0.86764 0.0
C1082 C 0.33775 0.57782 0.86424 0.0
C1083 C 0.34007 0.58752 0.88249 0.0
C1084 C 0.33142 0.605 0.88383 0.0
C1085 C 0.32643 0.58588 0.84788 0.0
C1086 C 0.31786 0.60319 0.84991 0.0
N1087 N 0.29678 0.66154 0.87119 0.0
C1088 C 0.30092 0.69377 0.86731 0.0
C1089 C 0.28048 0.69649 0.87501 0.0
C1090 C 0.26827 0.68135 0.88053 0.0
C1091 C 0.27672 0.664 0.87851 0.0
C1092 C 0.30875 0.67619 0.86549 0.0
H1093 H 0.26709 0.6526 0.88309 0.0
H1094 H 0.32454 0.67447 0.85958 0.0
H1095 H 0.33367 0.61228 0.89793 0.0
H1096 H 0.30911 0.60881 0.83702 0.0
C1097 C 0.2684 0.61473 0.88726 0.0
C1098 C 0.3254 0.64915 0.91948 0.0
C1099 C 0.2848 0.63894 0.8196 0.0
C1100 C 0.35478 0.64745 0.85121 0.0
H1101 H 0.29664 0.63282 0.94845 0.0
H1102 H 0.26644 0.61248 0.93115 0.0
H1103 H 0.23537 0.60662 0.85791 0.0
H1104 H 0.24346 0.62152 0.82168 0.0
H1105 H 0.31746 0.64828 0.79067 0.0
H1106 H 0.35611 0.65141 0.80743 0.0
H1107 H 0.3864 0.65799 0.88104 0.0
H1108 H 0.36954 0.66048 0.91799 0.0
H1109 H 0.34875 0.58177 0.89551 0.0
H1110 H 0.32391 0.57875 0.83362 0.0
H1111 H 0.31075 0.70513 0.86259 0.0
H1112 H 0.25245 0.68289 0.88672 0.0
C1113 C 0.12274 0.81832 0.08687 0.0
C1114 C 0.11043 0.81013 0.07174 0.0
C1115 C 0.09692 0.7983 0.08151 0.0
C1116 C 0.10173 0.79976 0.10204 0.0
N1117 N 0.11745 0.81174 0.10579 0.0
Co1118 Co 0.12999 0.81697 0.13344 0.0
N1119 N 0.118 0.79442 0.14611 0.0
C1120 C 0.10218 0.78443 0.13774 0.0
C1121 C 0.09613 0.77012 0.15002 0.0
C1122 C 0.10865 0.7713 0.16737 0.0
C1123 C 0.12171 0.78634 0.16479 0.0
N1124 N 0.14278 0.82229 0.16097 0.0
C1125 C 0.14478 0.8118 0.17833 0.0
C1126 C 0.15396 0.82163 0.19418 0.0
C1127 C 0.15746 0.83883 0.18668 0.0
C1128 C 0.15028 0.83862 0.1667 0.0
N1129 N 0.14176 0.83952 0.12073 0.0
C1130 C 0.1489 0.85403 0.13109 0.0
C1131 C 0.15648 0.86753 0.11844 0.0
C1132 C 0.15397 0.8611 0.09889 0.0
C1133 C 0.14505 0.84394 0.10066 0.0
N1134 N 0.1041 0.83005 0.14061 0.0
C1135 C 0.06405 0.84475 0.14901 0.0
C1136 C 0.07564 0.83507 0.1641 0.0
C1137 C 0.09546 0.82775 0.15956 0.0
C1138 C 0.07362 0.84788 0.13001 0.0
C1139 C 0.09372 0.84059 0.12622 0.0
N1140 N 0.15548 0.80401 0.12584 0.0
C1141 C 0.19189 0.80652 0.11578 0.0
C1142 C 0.18923 0.7916 0.10291 0.0
C1143 C 0.1701 0.78187 0.10347 0.0
C1144 C 0.15348 0.7882 0.11527 0.0
C1145 C 0.17483 0.81241 0.12733 0.0
H1146 H 0.13849 0.78111 0.1145 0.0
H1147 H 0.17683 0.82451 0.13625 0.0
H1148 H 0.10339 0.81976 0.17128 0.0
H1149 H 0.10049 0.84293 0.11133 0.0
C1150 C 0.095 0.78786 0.11758 0.0
C1151 C 0.13866 0.83278 0.08293 0.0
C1152 C 0.13578 0.79341 0.18126 0.0
C1153 C 0.15207 0.85289 0.15238 0.0
H1154 H 0.11123 0.81225 0.05534 0.0
H1155 H 0.08572 0.78905 0.07438 0.0
H1156 H 0.08419 0.75992 0.14667 0.0
H1157 H 0.10791 0.76235 0.18063 0.0
H1158 H 0.15718 0.81701 0.20974 0.0
H1159 H 0.16452 0.85011 0.19483 0.0
H1160 H 0.16391 0.88017 0.12291 0.0
H1161 H 0.15826 0.86821 0.08493 0.0
H1162 H 0.06931 0.83279 0.17926 0.0
H1163 H 0.06538 0.85525 0.11782 0.0
H1164 H 0.20682 0.81392 0.11647 0.0
H1165 H 0.16754 0.77004 0.09405 0.0
C1166 C 0.2052 0.63767 0.5739 0.0
C1167 C 0.21928 0.63302 0.55865 0.0
C1168 C 0.23672 0.62545 0.56824 0.0
C1169 C 0.23244 0.62591 0.58877 0.0
N1170 N 0.21317 0.6331 0.5929 0.0
Co1171 Co 0.20144 0.63715 0.62104 0.0
N1172 N 0.2289 0.62966 0.63521 0.0
C1173 C 0.24664 0.62369 0.6259 0.0
C1174 C 0.26329 0.62008 0.63919 0.0
C1175 C 0.25588 0.62419 0.65816 0.0
C1176 C 0.23502 0.63014 0.65539 0.0
N1177 N 0.18962 0.64108 0.64916 0.0
C1178 C 0.19911 0.6401 0.66815 0.0
C1179 C 0.18478 0.64425 0.68338 0.0
C1180 C 0.16569 0.64791 0.67381 0.0
C1181 C 0.16934 0.64588 0.65331 0.0
N1182 N 0.1743 0.64538 0.6068 0.0
C1183 C 0.15608 0.65024 0.61608 0.0
C1184 C 0.14051 0.6564 0.60272 0.0
C1185 C 0.14943 0.65577 0.58377 0.0
C1186 C 0.17005 0.64929 0.58662 0.0
N1187 N 0.191 0.61146 0.62215 0.0
C1188 C 0.1778 0.57517 0.6292 0.0
C1189 C 0.16348 0.58958 0.63069 0.0
C1190 C 0.17032 0.60741 0.62705 0.0
C1191 C 0.1985 0.57916 0.62297 0.0
C1192 C 0.20463 0.59716 0.61939 0.0
N1193 N 0.21176 0.66239 0.62021 0.0
C1194 C 0.2065 0.69409 0.62724 0.0
C1195 C 0.22704 0.69812 0.62064 0.0
C1196 C 0.23967 0.68405 0.61343 0.0
C1197 C 0.23174 0.66639 0.6133 0.0
C1198 C 0.19922 0.67624 0.62691 0.0
H1199 H 0.24206 0.65616 0.60769 0.0
H1200 H 0.18351 0.67391 0.63235 0.0
H1201 H 0.15858 0.61762 0.62875 0.0
H1202 H 0.2206 0.59907 0.61472 0.0
C1203 C 0.24726 0.62207 0.60453 0.0
C1204 C 0.18495 0.64722 0.5696 0.0
C1205 C 0.2217 0.63585 0.67252 0.0
C1206 C 0.15469 0.65008 0.6375 0.0
H1207 H 0.2175 0.63539 0.54232 0.0
H1208 H 0.25126 0.621 0.56113 0.0
H1209 H 0.27905 0.61524 0.63552 0.0
H1210 H 0.26484 0.62297 0.67242 0.0
H1211 H 0.18786 0.64493 0.69971 0.0
H1212 H 0.15106 0.65213 0.68092 0.0
H1213 H 0.12477 0.66128 0.60639 0.0
H1214 H 0.14176 0.65991 0.56949 0.0
H1215 H 0.14719 0.58724 0.63534 0.0
H1216 H 0.21006 0.56842 0.62098 0.0
H1217 H 0.19624 0.70458 0.63313 0.0
H1218 H 0.25559 0.68663 0.60789 0.0
C1219 C 0.30627 0.88624 0.59403 0.0
C1220 C 0.29281 0.89127 0.57786 0.0
C1221 C 0.27521 0.89896 0.58625 0.0
C1222 C 0.27878 0.8982 0.60703 0.0
N1223 N 0.29776 0.89071 0.61247 0.0
Co1224 Co 0.30834 0.88602 0.64141 0.0
N1225 N 0.28086 0.89443 0.65379 0.0
C1226 C 0.26385 0.90129 0.6433 0.0
C1227 C 0.24712 0.90575 0.65554 0.0
C1228 C 0.25373 0.90137 0.67503 0.0
C1229 C 0.27419 0.89436 0.67364 0.0
N1230 N 0.3189 0.88118 0.67031 0.0
C1231 C 0.30888 0.88243 0.6887 0.0
C1232 C 0.32231 0.87715 0.70481 0.0
C1233 C 0.34136 0.87254 0.69645 0.0
C1234 C 0.33858 0.87513 0.67575 0.0
N1235 N 0.33563 0.87723 0.62897 0.0
C1236 C 0.35331 0.87175 0.63945 0.0
C1237 C 0.3692 0.86556 0.62714 0.0
C1238 C 0.3611 0.86687 0.60761 0.0
C1239 C 0.34061 0.87376 0.60907 0.0
N1240 N 0.3199 0.91129 0.64285 0.0
C1241 C 0.33472 0.94724 0.64856 0.0
C1242 C 0.34761 0.9323 0.6535 0.0
C1243 C 0.34001 0.91466 0.65047 0.0
C1244 C 0.3146 0.94385 0.63993 0.0
C1245 C 0.30765 0.92599 0.63715 0.0
N1246 N 0.29691 0.86113 0.64008 0.0
C1247 C 0.30162 0.82886 0.64474 0.0
C1248 C 0.2814 0.82562 0.63631 0.0
C1249 C 0.26889 0.84044 0.63019 0.0
C1250 C 0.27689 0.85797 0.63223 0.0
C1251 C 0.30899 0.84661 0.64651 0.0
H1252 H 0.26667 0.86875 0.62724 0.0
H1253 H 0.3246 0.84827 0.6529 0.0
H1254 H 0.35069 0.90404 0.65466 0.0
H1255 H 0.29214 0.92454 0.63067 0.0
C1256 C 0.26379 0.90269 0.62185 0.0
C1257 C 0.3265 0.87655 0.59106 0.0
C1258 C 0.28663 0.8881 0.69173 0.0
C1259 C 0.35371 0.87101 0.66092 0.0
H1260 H 0.29519 0.88914 0.56168 0.0
H1261 H 0.26109 0.90385 0.57817 0.0
H1262 H 0.23182 0.91133 0.65082 0.0
H1263 H 0.24449 0.90311 0.68873 0.0
H1264 H 0.31866 0.87641 0.72095 0.0
H1265 H 0.35542 0.86749 0.7045 0.0
H1266 H 0.38457 0.86013 0.63185 0.0
H1267 H 0.3692 0.86288 0.59385 0.0
H1268 H 0.36356 0.93415 0.65975 0.0
H1269 H 0.30391 0.9549 0.63584 0.0
H1270 H 0.31193 0.81775 0.64957 0.0
H1271 H 0.25296 0.83856 0.62391 0.0
H1272 H 0.13791 0.2085 0.74459 0.0
H1273 H 0.1143 0.22912 0.80163 0.0
H1274 H 0.1366 0.23905 0.72972 0.0
H1275 H 0.11359 0.25975 0.78695 0.0
H1276 H 0.0941 0.30846 0.74636 0.0
H1277 H 0.09406 0.27764 0.76048 0.0
H1278 H 0.15572 0.26802 0.73409 0.0
H1279 H 0.15586 0.29885 0.7201 0.0
C1280 C 0.13236 0.21955 0.75391 0.0
C1281 C 0.12622 0.21643 0.77427 0.0
C1282 C 0.13182 0.23706 0.74547 0.0
C1283 C 0.12504 0.25179 0.75719 0.0
C1284 C 0.11871 0.24864 0.77749 0.0
C1285 C 0.11933 0.23115 0.78596 0.0
C1286 C 0.10771 0.29981 0.7437 0.0
C1287 C 0.12499 0.3061 0.73212 0.0
C1288 C 0.10768 0.28216 0.75177 0.0
C1289 C 0.12489 0.27042 0.74838 0.0
C1290 C 0.14209 0.27667 0.73669 0.0
C1291 C 0.14215 0.29432 0.72867 0.0
H1292 H 0.68698 0.64134 0.24608 0.0
H1293 H 0.6974 0.58412 0.23758 0.0
H1294 H 0.7241 0.64494 0.25757 0.0
H1295 H 0.73471 0.58757 0.24865 0.0
H1296 H 0.79156 0.5986 0.29256 0.0
H1297 H 0.75489 0.5944 0.28008 0.0
H1298 H 0.76007 0.64353 0.24348 0.0
H1299 H 0.79661 0.6478 0.25648 0.0
C1300 C 0.69737 0.62959 0.24673 0.0
C1301 C 0.68969 0.61248 0.24119 0.0
C1302 C 0.71854 0.63162 0.25309 0.0
C1303 C 0.73227 0.61653 0.25392 0.0
C1304 C 0.72441 0.59938 0.24835 0.0
C1305 C 0.70322 0.59738 0.24201 0.0
C1306 C 0.78475 0.60834 0.28173 0.0
C1307 C 0.79655 0.62346 0.27534 0.0
C1308 C 0.76392 0.60595 0.27453 0.0
C1309 C 0.75465 0.61867 0.26085 0.0
C1310 C 0.76674 0.63366 0.25423 0.0
C1311 C 0.78758 0.63605 0.26147 0.0
H1312 H 0.39882 0.29801 0.80087 0.0
H1313 H 0.37331 0.31738 0.74269 0.0
H1314 H 0.3985 0.26702 0.78811 0.0
H1315 H 0.37371 0.2865 0.72971 0.0
H1316 H 0.35381 0.22685 0.72287 0.0
H1317 H 0.35467 0.25794 0.73523 0.0
H1318 H 0.41656 0.24804 0.76323 0.0
H1319 H 0.41572 0.21694 0.75084 0.0
C1320 C 0.39317 0.29565 0.78535 0.0
C1321 C 0.38605 0.31014 0.7728 0.0
C1322 C 0.3932 0.27793 0.77797 0.0
C1323 C 0.38607 0.27431 0.7579 0.0
C1324 C 0.37909 0.28882 0.74531 0.0
C1325 C 0.37909 0.30654 0.75267 0.0
C1326 C 0.3677 0.23137 0.73148 0.0
C1327 C 0.3847 0.21943 0.73588 0.0
C1328 C 0.36819 0.24917 0.73856 0.0
C1329 C 0.38569 0.25545 0.7502 0.0
C1330 C 0.40272 0.24353 0.75455 0.0
C1331 C 0.40223 0.22572 0.74746 0.0
H1332 H 0.69588 0.8942 0.29313 0.0
H1333 H 0.7 0.83647 0.28396 0.0
H1334 H 0.73128 0.89822 0.27841 0.0
H1335 H 0.73532 0.84035 0.26891 0.0
H1336 H 0.80582 0.85407 0.25741 0.0
H1337 H 0.77264 0.84974 0.27633 0.0
H1338 H 0.74461 0.89532 0.24332 0.0
H1339 H 0.77789 0.89966 0.22479 0.0
C1340 C 0.70465 0.88239 0.28822 0.0
C1341 C 0.69559 0.86506 0.28962 0.0
C1342 C 0.72471 0.88466 0.27968 0.0
C1343 C 0.73592 0.86961 0.27235 0.0
C1344 C 0.72711 0.85215 0.27458 0.0
C1345 C 0.707 0.84991 0.28313 0.0
C1346 C 0.79244 0.86304 0.2543 0.0
C1347 C 0.79404 0.87708 0.23972 0.0
C1348 C 0.77355 0.8606 0.26503 0.0
C1349 C 0.75612 0.87226 0.26135 0.0
C1350 C 0.7579 0.88632 0.24669 0.0
C1351 C 0.77675 0.88872 0.23597 0.0
H1352 H 0.72394 0.1154 0.20606 0.0
H1353 H 0.78651 0.09825 0.22753 0.0
H1354 H 0.71126 0.11429 0.2413 0.0
H1355 H 0.77393 0.09802 0.2627 0.0
H1356 H 0.74847 0.13198 0.31843 0.0
H1357 H 0.75951 0.12813 0.28289 0.0
H1358 H 0.70899 0.08911 0.27353 0.0
H1359 H 0.6984 0.09254 0.30942 0.0
C1360 C 0.73487 0.11108 0.21819 0.0
C1361 C 0.75632 0.10718 0.21407 0.0
C1362 C 0.72761 0.11052 0.23829 0.0
C1363 C 0.74177 0.10627 0.25448 0.0
C1364 C 0.76288 0.10154 0.25034 0.0
C1365 C 0.77005 0.10181 0.23028 0.0
C1366 C 0.73991 0.1225 0.30875 0.0
C1367 C 0.72282 0.1124 0.31642 0.0
C1368 C 0.74618 0.12028 0.28858 0.0
C1369 C 0.73512 0.10824 0.27576 0.0
C1370 C 0.7177 0.09842 0.28329 0.0
C1371 C 0.71169 0.10037 0.30363 0.0
H1372 H 0.9243 0.31936 0.7156 0.0
H1373 H 0.85792 0.3191 0.73183 0.0
H1374 H 0.93458 0.31558 0.75169 0.0
H1375 H 0.86794 0.31465 0.7678 0.0
H1376 H 0.8859 0.29847 0.82919 0.0
H1377 H 0.88572 0.32046 0.80071 0.0
H1378 H 0.92985 0.28646 0.76836 0.0
H1379 H 0.93011 0.26491 0.79676 0.0
C1380 C 0.91199 0.31908 0.72707 0.0
C1381 C 0.89038 0.31916 0.7212 0.0
C1382 C 0.91782 0.31692 0.74766 0.0
C1383 C 0.90208 0.31438 0.76252 0.0
C1384 C 0.88048 0.31664 0.75677 0.0
C1385 C 0.87467 0.31904 0.73618 0.0
C1386 C 0.89621 0.29621 0.81631 0.0
C1387 C 0.90775 0.27997 0.81483 0.0
C1388 C 0.89604 0.30871 0.80001 0.0
C1389 C 0.90749 0.30508 0.78217 0.0
C1390 C 0.92095 0.2898 0.78189 0.0
C1391 C 0.92099 0.27732 0.79806 0.0
H1392 H 0.74382 0.34311 0.32791 0.0
H1393 H 0.759 0.39686 0.30574 0.0
H1394 H 0.72167 0.33793 0.29723 0.0
H1395 H 0.73733 0.39175 0.27484 0.0
H1396 H 0.68914 0.38081 0.22503 0.0
H1397 H 0.70165 0.38625 0.26024 0.0
H1398 H 0.73193 0.33348 0.26156 0.0
H1399 H 0.71899 0.32811 0.2266 0.0
C1400 C 0.74199 0.35388 0.31655 0.0
C1401 C 0.75293 0.37031 0.31883 0.0
C1402 C 0.72951 0.35093 0.29903 0.0
C1403 C 0.72793 0.36438 0.28361 0.0
C1404 C 0.73804 0.38121 0.28657 0.0
C1405 C 0.75048 0.38415 0.30411 0.0
C1406 C 0.69819 0.37037 0.23314 0.0
C1407 C 0.70333 0.35414 0.22344 0.0
C1408 C 0.70538 0.37345 0.25313 0.0
C1409 C 0.71778 0.3603 0.2636 0.0
C1410 C 0.72214 0.34374 0.254 0.0
C1411 C 0.71494 0.34069 0.23403 0.0
H1412 H 0.58693 0.24479 0.71408 0.0
H1413 H 0.61918 0.28496 0.67708 0.0
H1414 H 0.58403 0.26647 0.7416 0.0
H1415 H 0.61577 0.30701 0.70452 0.0
H1416 H 0.64492 0.31659 0.77127 0.0
H1417 H 0.63597 0.30638 0.73688 0.0
H1418 H 0.57158 0.29473 0.75586 0.0
H1419 H 0.58081 0.30463 0.79048 0.0
C1420 C 0.59286 0.25845 0.71168 0.0
C1421 C 0.60367 0.26314 0.69374 0.0
C1422 C 0.59097 0.27098 0.72731 0.0
C1423 C 0.59989 0.28841 0.72527 0.0
C1424 C 0.60897 0.29361 0.70655 0.0
C1425 C 0.61082 0.28104 0.69085 0.0
C1426 C 0.62869 0.3124 0.76788 0.0
C1427 C 0.61368 0.31093 0.78349 0.0
C1428 C 0.62348 0.30666 0.74815 0.0
C1429 C 0.60314 0.29948 0.74379 0.0
C1430 C 0.58748 0.29989 0.75893 0.0
C1431 C 0.59276 0.30548 0.77868 0.0
H1432 H 0.31307 0.78077 0.08631 0.0
H1433 H 0.29222 0.73229 0.0554 0.0
H1434 H 0.27881 0.79486 0.079 0.0
H1435 H 0.25785 0.74655 0.04758 0.0
H1436 H 0.20293 0.75737 0.09517 0.0
H1437 H 0.23466 0.74878 0.07714 0.0
H1438 H 0.24627 0.80503 0.0611 0.0
H1439 H 0.21407 0.81366 0.07923 0.0
C1440 C 0.30152 0.77351 0.07699 0.0
C1441 C 0.3048 0.75529 0.07204 0.0
C1442 C 0.28187 0.78162 0.07265 0.0
C1443 C 0.2654 0.77151 0.06335 0.0
C1444 C 0.27012 0.75442 0.05526 0.0
C1445 C 0.28969 0.74626 0.05977 0.0
C1446 C 0.21182 0.76785 0.08724 0.0
C1447 C 0.20643 0.7862 0.08909 0.0
C1448 C 0.22995 0.76293 0.07667 0.0
C1449 C 0.2431 0.77628 0.06782 0.0
C1450 C 0.23655 0.7945 0.06798 0.0
C1451 C 0.21833 0.79943 0.07855 0.0
H1452 H 0.33708 0.74759 0.38893 0.0
H1453 H 0.31071 0.78914 0.42708 0.0
H1454 H 0.30489 0.72971 0.39248 0.0
H1455 H 0.27734 0.7721 0.42892 0.0
H1456 H 0.21776 0.73802 0.42672 0.0
H1457 H 0.25434 0.74657 0.43626 0.0
H1458 H 0.27361 0.73742 0.37382 0.0
H1459 H 0.2376 0.72853 0.3647 0.0
C1460 C 0.32462 0.75257 0.39871 0.0
C1461 C 0.32623 0.76966 0.40781 0.0
C1462 C 0.30605 0.74248 0.40048 0.0
C1463 C 0.28836 0.7498 0.41036 0.0
C1464 C 0.2907 0.76609 0.42119 0.0
C1465 C 0.30969 0.77591 0.42006 0.0
C1466 C 0.23001 0.73773 0.41521 0.0
C1467 C 0.22506 0.73268 0.395 0.0
C1468 C 0.25086 0.74254 0.42065 0.0
C1469 C 0.26691 0.74245 0.40589 0.0
C1470 C 0.26183 0.73709 0.38577 0.0
C1471 C 0.24115 0.73215 0.38043 0.0
H1472 H 0.24763 0.80466 0.91586 0.0
H1473 H 0.21924 0.80044 0.8553 0.0
H1474 H 0.2609 0.77362 0.91346 0.0
H1475 H 0.23241 0.76944 0.85296 0.0
H1476 H 0.24054 0.70871 0.86502 0.0
H1477 H 0.22651 0.73935 0.86882 0.0
H1478 H 0.28742 0.75683 0.89345 0.0
H1479 H 0.30123 0.72605 0.89026 0.0
C1480 C 0.24433 0.79713 0.90201 0.0
C1481 C 0.23238 0.80494 0.88578 0.0
C1482 C 0.2519 0.77939 0.90065 0.0
C1483 C 0.24764 0.76914 0.88303 0.0
C1484 C 0.23563 0.77693 0.86685 0.0
C1485 C 0.22809 0.79466 0.8682 0.0
C1486 C 0.25084 0.71907 0.87143 0.0
C1487 C 0.27197 0.71504 0.87732 0.0
C1488 C 0.24289 0.73662 0.87342 0.0
C1489 C 0.25591 0.75045 0.88138 0.0
C1490 C 0.27698 0.74638 0.88743 0.0
C1491 C 0.28495 0.72884 0.88539 0.0
H1492 H 0.2066 0.72959 0.60986 0.0
H1493 H 0.26632 0.70873 0.63431 0.0
H1494 H 0.21988 0.76054 0.61356 0.0
H1495 H 0.27984 0.73964 0.6374 0.0
H1496 H 0.28497 0.79719 0.66338 0.0
H1497 H 0.27216 0.76622 0.65885 0.0
H1498 H 0.24723 0.78084 0.59876 0.0
H1499 H 0.26012 0.8118 0.60323 0.0
C1500 C 0.22258 0.73164 0.61595 0.0
C1501 C 0.23543 0.7168 0.62184 0.0
C1502 C 0.23024 0.74931 0.61789 0.0
C1503 C 0.25086 0.75244 0.6258 0.0
C1504 C 0.26379 0.73759 0.63146 0.0
C1505 C 0.25616 0.71993 0.62947 0.0
C1506 C 0.27691 0.79374 0.64915 0.0
C1507 C 0.27351 0.80688 0.63367 0.0
C1508 C 0.2696 0.77603 0.64656 0.0
C1509 C 0.25874 0.77116 0.62845 0.0
C1510 C 0.25532 0.78431 0.61298 0.0
C1511 C 0.26266 0.802 0.61555 0.0
H1512 H 0.85947 0.80948 0.26711 0.0
H1513 H 0.88688 0.79195 0.21042 0.0
H1514 H 0.86014 0.7783 0.28004 0.0
H1515 H 0.88777 0.76078 0.22339 0.0
H1516 H 0.86612 0.70413 0.24423 0.0
H1517 H 0.86614 0.73534 0.23147 0.0
H1518 H 0.88213 0.75414 0.29224 0.0
H1519 H 0.8819 0.7229 0.30502 0.0
C1520 C 0.86591 0.79903 0.25746 0.0
C1521 C 0.8731 0.80339 0.23765 0.0
C1522 C 0.86631 0.78105 0.26491 0.0
C1523 C 0.87399 0.7668 0.25284 0.0
C1524 C 0.88135 0.7712 0.23309 0.0
C1525 C 0.88088 0.78917 0.22561 0.0
C1526 C 0.86986 0.71488 0.25487 0.0
C1527 C 0.87401 0.71083 0.27572 0.0
C1528 C 0.86988 0.73288 0.24752 0.0
C1529 C 0.87414 0.74748 0.26073 0.0
C1530 C 0.8784 0.74341 0.28157 0.0
C1531 C 0.8783 0.7254 0.28895 0.0
H1532 H 0.2139 0.40975 0.71141 0.0
H1533 H 0.19646 0.36292 0.74757 0.0
H1534 H 0.24979 0.40909 0.7268 0.0
H1535 H 0.23225 0.36228 0.76336 0.0
H1536 H 0.30552 0.35616 0.7721 0.0
H1537 H 0.26953 0.35614 0.75669 0.0
H1538 H 0.26852 0.41473 0.7586 0.0
H1539 H 0.30445 0.41457 0.77378 0.0
C1540 C 0.21782 0.39931 0.72269 0.0
C1541 C 0.20247 0.38635 0.72824 0.0
C1542 C 0.23833 0.39897 0.73165 0.0
C1543 C 0.24408 0.38564 0.74644 0.0
C1544 C 0.22861 0.37262 0.75189 0.0
C1545 C 0.20806 0.37302 0.74295 0.0
C1546 C 0.29752 0.36898 0.76917 0.0
C1547 C 0.30787 0.38536 0.77383 0.0
C1548 C 0.27685 0.36902 0.76044 0.0
C1549 C 0.26601 0.38546 0.75617 0.0
C1550 C 0.27639 0.40181 0.76122 0.0
C1551 C 0.29697 0.40175 0.77001 0.0
H1552 H 0.61989 0.78967 0.24942 0.0
H1553 H 0.60064 0.77077 0.30926 0.0
H1554 H 0.61862 0.75865 0.237 0.0
H1555 H 0.60048 0.73967 0.29714 0.0
H1556 H 0.58241 0.6871 0.26481 0.0
H1557 H 0.58228 0.7184 0.27646 0.0
H1558 H 0.63633 0.73029 0.23834 0.0
H1559 H 0.63626 0.69904 0.22652 0.0
C1560 C 0.61531 0.77896 0.25998 0.0
C1561 C 0.61035 0.78298 0.28043 0.0
C1562 C 0.61488 0.76102 0.25288 0.0
C1563 C 0.60951 0.7464 0.26599 0.0
C1564 C 0.60445 0.75043 0.28641 0.0
C1565 C 0.60484 0.76838 0.29349 0.0
C1566 C 0.59437 0.69634 0.25897 0.0
C1567 C 0.60935 0.69036 0.24467 0.0
C1568 C 0.59433 0.71439 0.26571 0.0
C1569 C 0.60933 0.72711 0.25847 0.0
C1570 C 0.62425 0.72113 0.24409 0.0
C1571 C 0.62424 0.7031 0.23728 0.0
H1572 H 0.31411 0.15928 0.75559 0.0
H1573 H 0.29621 0.11354 0.71865 0.0
H1574 H 0.27889 0.15895 0.77136 0.0
H1575 H 0.26079 0.11327 0.734 0.0
H1576 H 0.20701 0.10629 0.78073 0.0
H1577 H 0.24237 0.10653 0.76528 0.0
H1578 H 0.24172 0.16518 0.76467 0.0
H1579 H 0.20645 0.16474 0.78034 0.0
C1580 C 0.30253 0.1492 0.75081 0.0
C1581 C 0.30785 0.13648 0.73586 0.0
C1582 C 0.28227 0.14905 0.75973 0.0
C1583 C 0.26678 0.13609 0.75401 0.0
C1584 C 0.27226 0.12332 0.73905 0.0
C1585 C 0.29251 0.12352 0.73011 0.0
C1586 C 0.21446 0.1192 0.77719 0.0
C1587 C 0.20394 0.13549 0.78161 0.0
C1588 C 0.23471 0.11938 0.76825 0.0
C1589 C 0.24508 0.13589 0.76359 0.0
C1590 C 0.23448 0.15219 0.7682 0.0
C1591 C 0.2142 0.15198 0.77708 0.0
H1592 H 0.29746 0.9092 0.72498 0.0
H1593 H 0.25375 0.86715 0.70669 0.0
H1594 H 0.28217 0.90912 0.7593 0.0
H1595 H 0.23799 0.86719 0.74084 0.0
H1596 H 0.22709 0.8593 0.81036 0.0
H1597 H 0.24241 0.85921 0.77603 0.0
H1598 H 0.25265 0.91706 0.77958 0.0
H1599 H 0.23752 0.91692 0.81396 0.0
C1600 C 0.28452 0.89993 0.7283 0.0
C1601 C 0.27697 0.88812 0.713 0.0
C1602 C 0.27555 0.89996 0.74804 0.0
C1603 C 0.25864 0.88814 0.75328 0.0
C1604 C 0.25111 0.87635 0.73782 0.0
C1605 C 0.26006 0.87638 0.71807 0.0
C1606 C 0.2326 0.872 0.80377 0.0
C1607 C 0.23114 0.88809 0.81511 0.0
C1608 C 0.24134 0.872 0.78392 0.0
C1609 C 0.24902 0.88813 0.77462 0.0
C1610 C 0.24739 0.90425 0.78604 0.0
C1611 C 0.23857 0.90422 0.80584 0.0
H1612 H 0.17057 0.74415 0.30251 0.0
H1613 H 0.10199 0.74306 0.30072 0.0
H1614 H 0.17078 0.75854 0.26843 0.0
H1615 H 0.10191 0.75688 0.26643 0.0
H1616 H 0.10609 0.79619 0.2116 0.0
H1617 H 0.10636 0.78244 0.24594 0.0
H1618 H 0.16627 0.7563 0.23309 0.0
H1619 H 0.16605 0.77069 0.19899 0.0
C1620 C 0.15549 0.74699 0.29479 0.0
C1621 C 0.13627 0.74265 0.30458 0.0
C1622 C 0.15555 0.75515 0.27503 0.0
C1623 C 0.13635 0.75915 0.26417 0.0
C1624 C 0.11712 0.75455 0.27407 0.0
C1625 C 0.1171 0.74648 0.29384 0.0
C1626 C 0.1193 0.78749 0.21616 0.0
C1627 C 0.13601 0.78454 0.20244 0.0
C1628 C 0.11944 0.77942 0.23593 0.0
C1629 C 0.13631 0.76798 0.2428 0.0
C1630 C 0.15306 0.76511 0.22889 0.0
C1631 C 0.15292 0.77328 0.20913 0.0
H1632 H 0.27323 0.60937 0.7964 0.0
H1633 H 0.27554 0.66773 0.79352 0.0
H1634 H 0.25825 0.6087 0.76154 0.0
H1635 H 0.26043 0.66725 0.75859 0.0
H1636 H 0.25157 0.65936 0.68857 0.0
H1637 H 0.26672 0.66025 0.72345 0.0
H1638 H 0.22743 0.61454 0.74058 0.0
H1639 H 0.21268 0.61363 0.70559 0.0
C1640 C 0.27029 0.62211 0.78838 0.0
C1641 C 0.27528 0.63863 0.79802 0.0
C1642 C 0.26162 0.62176 0.76828 0.0
C1643 C 0.25782 0.63792 0.75691 0.0
C1644 C 0.26317 0.65445 0.76653 0.0
C1645 C 0.27174 0.65478 0.78669 0.0
C1646 C 0.24618 0.64953 0.69983 0.0
C1647 C 0.23081 0.63648 0.69422 0.0
C1648 C 0.25478 0.65008 0.71997 0.0
C1649 C 0.24844 0.63748 0.73523 0.0
C1650 C 0.23307 0.62438 0.72946 0.0
C1651 C 0.22442 0.62391 0.70935 0.0
H1652 H 0.41697 0.7793 0.28291 0.0
H1653 H 0.34997 0.76795 0.29007 0.0
H1654 H 0.41515 0.76741 0.24816 0.0
H1655 H 0.34837 0.75543 0.25576 0.0
H1656 H 0.34584 0.74859 0.1859 0.0
H1657 H 0.348 0.76149 0.22027 0.0
H1658 H 0.41243 0.74141 0.22721 0.0
H1659 H 0.41014 0.72877 0.19265 0.0
C1660 C 0.40178 0.77433 0.2772 0.0
C1661 C 0.38365 0.77473 0.28979 0.0
C1662 C 0.40078 0.76722 0.25714 0.0
C1663 C 0.38159 0.76027 0.24868 0.0
C1664 C 0.36347 0.76075 0.26126 0.0
C1665 C 0.36448 0.76778 0.28131 0.0
C1666 C 0.36047 0.74694 0.19478 0.0
C1667 C 0.37778 0.73756 0.18637 0.0
C1668 C 0.36173 0.75428 0.21468 0.0
C1669 C 0.3804 0.75259 0.22703 0.0
C1670 C 0.39781 0.74333 0.21841 0.0
C1671 C 0.3965 0.73596 0.19851 0.0
H1672 H 0.70132 0.27745 0.84847 0.0
H1673 H 0.7233 0.31131 0.89789 0.0
H1674 H 0.73644 0.2628 0.84757 0.0
H1675 H 0.7588 0.29725 0.89634 0.0
H1676 H 0.82509 0.27821 0.86756 0.0
H1677 H 0.7905 0.29397 0.86874 0.0
H1678 H 0.75852 0.24242 0.87489 0.0
H1679 H 0.79302 0.22682 0.87476 0.0
C1680 C 0.71373 0.28189 0.859 0.0
C1681 C 0.70947 0.29558 0.87323 0.0
C1682 C 0.73384 0.27348 0.85851 0.0
C1683 C 0.75046 0.27885 0.87187 0.0
C1684 C 0.74641 0.29288 0.88574 0.0
C1685 C 0.7261 0.30096 0.88659 0.0
C1686 C 0.81065 0.27029 0.8692 0.0
C1687 C 0.81181 0.25122 0.87057 0.0
C1688 C 0.79086 0.2793 0.86992 0.0
C1689 C 0.77169 0.26945 0.87166 0.0
C1690 C 0.77291 0.25041 0.87321 0.0
C1691 C 0.79268 0.24146 0.87303 0.0
H1692 H 0.80611 0.2764 0.66689 0.0
H1693 H 0.79871 0.28648 0.60202 0.0
H1694 H 0.7708 0.26197 0.66748 0.0
H1695 H 0.76336 0.27236 0.60245 0.0
H1696 H 0.71147 0.22835 0.60618 0.0
H1697 H 0.74634 0.24324 0.60609 0.0
H1698 H 0.73265 0.26754 0.66432 0.0
H1699 H 0.69771 0.25246 0.66428 0.0
C1700 C 0.79679 0.27566 0.6528 0.0
C1701 C 0.80504 0.28273 0.63447 0.0
C1702 C 0.7765 0.26746 0.65311 0.0
C1703 C 0.764 0.26593 0.63501 0.0
C1704 C 0.77245 0.27304 0.61667 0.0
C1705 C 0.79266 0.28128 0.61641 0.0
C1706 C 0.71584 0.23706 0.61882 0.0
C1707 C 0.70167 0.23952 0.63504 0.0
C1708 C 0.73586 0.24564 0.6188 0.0
C1709 C 0.74247 0.25679 0.63513 0.0
C1710 C 0.72831 0.25901 0.65152 0.0
C1711 C 0.7082 0.25049 0.65146 0.0
H1712 H 0.70459 0.26238 0.17124 0.0
H1713 H 0.72389 0.27383 0.1093 0.0
H1714 H 0.71945 0.23186 0.16909 0.0
H1715 H 0.73783 0.24314 0.1066 0.0
H1716 H 0.78066 0.19385 0.11316 0.0
H1717 H 0.7652 0.22402 0.11572 0.0
H1718 H 0.71742 0.2026 0.15657 0.0
H1719 H 0.73409 0.17262 0.15491 0.0
C1720 C 0.71173 0.25826 0.15703 0.0
C1721 C 0.71314 0.27063 0.1405 0.0
C1722 C 0.72023 0.24066 0.15571 0.0
C1723 C 0.73013 0.23476 0.13769 0.0
C1724 C 0.73096 0.24709 0.12098 0.0
C1725 C 0.7228 0.26476 0.12244 0.0
C1726 C 0.76704 0.1957 0.12293 0.0
C1727 C 0.75893 0.18096 0.13425 0.0
C1728 C 0.75788 0.213 0.12419 0.0
C1729 C 0.73988 0.21607 0.13639 0.0
C1730 C 0.73147 0.20109 0.14734 0.0
C1731 C 0.74091 0.18381 0.14631 0.0
H1732 H 0.80439 0.27681 0.38669 0.0
H1733 H 0.73962 0.29656 0.38528 0.0
H1734 H 0.79134 0.24571 0.38933 0.0
H1735 H 0.72646 0.26549 0.38741 0.0
H1736 H 0.70848 0.20859 0.40958 0.0
H1737 H 0.72187 0.23964 0.40808 0.0
H1738 H 0.77489 0.2218 0.37195 0.0
H1739 H 0.76171 0.19074 0.37391 0.0
C1740 C 0.78733 0.27453 0.38674 0.0
C1741 C 0.77313 0.28934 0.38578 0.0
C1742 C 0.77977 0.2566 0.3882 0.0
C1743 C 0.75772 0.2528 0.38858 0.0
C1744 C 0.74354 0.26766 0.38758 0.0
C1745 C 0.75111 0.2856 0.3863 0.0
C1746 C 0.72296 0.21129 0.40124 0.0
C1747 C 0.73396 0.19701 0.39191 0.0
C1748 C 0.73067 0.22921 0.40031 0.0
C1749 C 0.74958 0.23352 0.38985 0.0
C1750 C 0.76054 0.21918 0.38051 0.0
C1751 C 0.75292 0.20125 0.38159 0.0
H1752 H 0.20106 0.55006 0.65118 0.0
H1753 H 0.1402 0.55751 0.62026 0.0
H1754 H 0.19065 0.51942 0.66136 0.0
H1755 H 0.12956 0.52692 0.63093 0.0
H1756 H 0.12825 0.46403 0.63607 0.0
H1757 H 0.13817 0.49464 0.62488 0.0
H1758 H 0.16555 0.50483 0.6848 0.0
H1759 H 0.15615 0.47416 0.6958 0.0
C1760 C 0.1855 0.54512 0.64642 0.0
C1761 C 0.17149 0.55626 0.63485 0.0
C1762 C 0.17943 0.52761 0.65248 0.0
C1763 C 0.15922 0.52073 0.64706 0.0
C1764 C 0.14529 0.53176 0.63525 0.0
C1765 C 0.15132 0.54935 0.6293 0.0
C1766 C 0.13646 0.47279 0.64682 0.0
C1767 C 0.14141 0.46661 0.66684 0.0
C1768 C 0.14197 0.49039 0.64046 0.0
C1769 C 0.15273 0.50218 0.65391 0.0
C1770 C 0.1575 0.49604 0.67396 0.0
C1771 C 0.15188 0.47851 0.68035 0.0
H1772 H 0.44149 0.63501 0.14008 0.0
H1773 H 0.45248 0.68258 0.1766 0.0
H1774 H 0.47241 0.62022 0.15642 0.0
H1775 H 0.48263 0.66765 0.19381 0.0
H1776 H 0.5515 0.64758 0.19576 0.0
H1777 H 0.51759 0.66057 0.18438 0.0
H1778 H 0.48891 0.60713 0.18619 0.0
H1779 H 0.52348 0.59415 0.1966 0.0
C1780 C 0.4503 0.64207 0.15198 0.0
C1781 C 0.44496 0.6599 0.15702 0.0
C1782 C 0.4679 0.63362 0.16143 0.0
C1783 C 0.48019 0.64283 0.17628 0.0
C1784 C 0.47389 0.66033 0.18208 0.0
C1785 C 0.45658 0.66885 0.17238 0.0
C1786 C 0.53781 0.63873 0.19391 0.0
C1787 C 0.53984 0.61999 0.19714 0.0
C1788 C 0.51834 0.64612 0.18756 0.0
C1789 C 0.50042 0.63491 0.18447 0.0
C1790 C 0.50242 0.61612 0.18822 0.0
C1791 C 0.52205 0.6087 0.19438 0.0
H1792 H 0.32831 0.9781 0.62513 0.0
H1793 H 0.35722 0.95928 0.68208 0.0
H1794 H 0.33821 0.00919 0.63343 0.0
H1795 H 0.36792 0.99022 0.68994 0.0
H1796 H 0.36001 0.04947 0.70886 0.0
H1797 H 0.35163 0.01827 0.69997 0.0
H1798 H 0.36833 0.02956 0.6371 0.0
H1799 H 0.37667 0.06089 0.64602 0.0
C1800 C 0.33685 0.98056 0.63938 0.0
C1801 C 0.34188 0.96613 0.65295 0.0
C1802 C 0.34275 0.99839 0.64404 0.0
C1803 C 0.35383 1.00227 0.66239 0.0
C1804 C 0.35916 0.9878 0.67579 0.0
C1805 C 0.35326 0.96999 0.67114 0.0
C1806 C 0.36217 0.04527 0.69319 0.0
C1807 C 0.36908 0.05772 0.67818 0.0
C1808 C 0.35736 0.02734 0.68807 0.0
C1809 C 0.35934 0.02134 0.66781 0.0
C1810 C 0.36634 0.03376 0.6528 0.0
C1811 C 0.37113 0.05173 0.65792 0.0
H1812 H 0.03377 0.82687 0.17122 0.0
H1813 H 0.04354 0.87576 0.13518 0.0
H1814 H 0.99771 0.8363 0.17807 0.0
H1815 H 0.00663 0.88449 0.14065 0.0
H1816 H 0.94735 0.90413 0.17495 0.0
H1817 H 0.98354 0.89552 0.16567 0.0
H1818 H 0.96382 0.83926 0.16327 0.0
H1819 H 0.92816 0.84796 0.17392 0.0
C1820 C 0.02828 0.83968 0.16475 0.0
C1821 C 0.04177 0.85063 0.15282 0.0
C1822 C 0.00734 0.84492 0.16834 0.0
C1823 C 0.99908 0.86111 0.15978 0.0
C1824 C 0.01248 0.87202 0.14767 0.0
C1825 C 0.0336 0.86689 0.14431 0.0
C1826 C 0.95093 0.88995 0.17243 0.0
C1827 C 0.93531 0.87662 0.17553 0.0
C1828 C 0.97155 0.885 0.16692 0.0
C1829 C 0.97676 0.86664 0.16398 0.0
C1830 C 0.96061 0.85346 0.16599 0.0
C1831 C 0.94014 0.8584 0.17186 0.0
H1832 H 0.13995 0.96485 0.88609 0.0
H1833 H 0.2038 0.97491 0.86475 0.0
H1834 H 0.13014 0.99609 0.87735 0.0
H1835 H 0.19401 1.00608 0.85611 0.0
H1836 H 0.17556 0.06554 0.86037 0.0
H1837 H 0.18461 0.03474 0.87144 0.0
H1838 H 0.12426 0.01558 0.8473 0.0
H1839 H 0.11486 0.04653 0.83686 0.0
C1840 C 0.15189 0.97368 0.87947 0.0
C1841 C 0.1727 0.9673 0.87617 0.0
C1842 C 0.14625 0.99161 0.87445 0.0
C1843 C 0.16127 1.00364 0.86602 0.0
C1844 C 0.18212 0.99731 0.86289 0.0
C1845 C 0.18775 0.9794 0.86788 0.0
C1846 C 0.16406 0.05482 0.85769 0.0
C1847 C 0.14446 0.05856 0.84771 0.0
C1848 C 0.16937 0.0371 0.86382 0.0
C1849 C 0.15522 0.02263 0.86019 0.0
C1850 C 0.13547 0.0264 0.85051 0.0
C1851 C 0.13018 0.04413 0.84431 0.0
H1852 H 0.94584 0.62359 0.35996 0.0
H1853 H 0.93952 0.66318 0.31102 0.0
H1854 H 0.97984 0.63715 0.37051 0.0
H1855 H 0.97399 0.67621 0.32061 0.0
H1856 H 0.02582 0.70683 0.35362 0.0
H1857 H 0.99085 0.6938 0.3461 0.0
H1858 H 0.01568 0.64023 0.36031 0.0
H1859 H 0.05034 0.65349 0.36863 0.0
C1860 C 0.95188 0.63519 0.35149 0.0
C1861 C 0.94018 0.64258 0.33493 0.0
C1862 C 0.97137 0.64286 0.35735 0.0
C1863 C 0.97962 0.65785 0.34648 0.0
C1864 C 0.96792 0.66496 0.32963 0.0
C1865 C 0.94833 0.65744 0.32399 0.0
C1866 C 0.02366 0.69229 0.35523 0.0
C1867 C 0.04066 0.68113 0.36165 0.0
C1868 C 0.00371 0.68479 0.35081 0.0
C1869 C 1.00047 0.66593 0.35241 0.0
C1870 C 0.01749 0.65482 0.35919 0.0
C1871 C 0.03736 0.66238 0.36389 0.0
H1872 H 0.33523 0.54915 0.89123 0.0
H1873 H 0.36019 0.5646 0.83224 0.0
H1874 H 0.34671 0.51781 0.88584 0.0
H1875 H 0.37136 0.53336 0.82672 0.0
H1876 H 0.34056 0.46236 0.85182 0.0
H1877 H 0.33439 0.49359 0.8622 0.0
H1878 H 0.396 0.50901 0.83897 0.0
H1879 H 0.40203 0.47772 0.82827 0.0
C1880 C 0.34345 0.5459 0.87727 0.0
C1881 C 0.34667 0.55928 0.86209 0.0
C1882 C 0.34987 0.52795 0.87411 0.0
C1883 C 0.35986 0.52309 0.85581 0.0
C1884 C 0.36388 0.53667 0.84105 0.0
C1885 C 0.3573 0.55453 0.84413 0.0
C1886 C 0.35284 0.4724 0.84903 0.0
C1887 C 0.3717 0.46763 0.83906 0.0
C1888 C 0.3494 0.49025 0.85518 0.0
C1889 C 0.36468 0.50379 0.85136 0.0
C1890 C 0.38385 0.4989 0.84197 0.0
C1891 C 0.38738 0.48098 0.83598 0.0
H1892 H 0.43257 0.8474 0.33296 0.0
H1893 H 0.44991 0.8621 0.39477 0.0
H1894 H 0.4671 0.85795 0.32103 0.0
H1895 H 0.48502 0.872 0.38309 0.0
H1896 H 0.53802 0.84359 0.3172 0.0
H1897 H 0.50058 0.84234 0.32664 0.0
H1898 H 0.50878 0.89107 0.36221 0.0
H1899 H 0.54663 0.89196 0.35284 0.0
C1900 C 0.44352 0.85358 0.34384 0.0
C1901 C 0.43872 0.854 0.36474 0.0
C1902 C 0.46342 0.85934 0.3371 0.0
C1903 C 0.479 0.86531 0.35121 0.0
C1904 C 0.47337 0.86746 0.37183 0.0
C1905 C 0.45329 0.86188 0.37854 0.0
C1906 C 0.5317 0.85401 0.32698 0.0
C1907 C 0.54493 0.86782 0.33438 0.0
C1908 C 0.51026 0.85347 0.33222 0.0
C1909 C 0.5016 0.86679 0.34494 0.0
C1910 C 0.51498 0.88064 0.35239 0.0
C1911 C 0.53653 0.88117 0.34709 0.0
H1912 H 0.67825 0.17894 0.55031 0.0
H1913 H 0.63993 0.13194 0.56548 0.0
H1914 H 0.6854 0.16643 0.51718 0.0
H1915 H 0.64567 0.12009 0.53126 0.0
H1916 H 0.67769 0.09668 0.47401 0.0
H1917 H 0.67103 0.10715 0.50883 0.0
H1918 H 0.66752 0.16246 0.48588 0.0
H1919 H 0.67552 0.15197 0.45161 0.0
C1920 C 0.67146 0.16583 0.54672 0.0
C1921 C 0.65861 0.15642 0.56078 0.0
C1922 C 0.67521 0.15882 0.52742 0.0
C1923 C 0.66583 0.14239 0.52135 0.0
C1924 C 0.65323 0.13276 0.53545 0.0
C1925 C 0.64973 0.13966 0.555 0.0
C1926 C 0.6756 0.11106 0.47663 0.0
C1927 C 0.67745 0.12361 0.46042 0.0
C1928 C 0.6716 0.11705 0.49645 0.0
C1929 C 0.66902 0.13569 0.50024 0.0
C1930 C 0.67003 0.14808 0.48368 0.0
C1931 C 0.67438 0.14211 0.46403 0.0
H1932 H 0.84789 0.15791 0.05162 0.0
H1933 H 0.8204 0.10877 0.02732 0.0
H1934 H 0.85928 0.16682 0.01741 0.0
H1935 H 0.83166 0.11782 0.99282 0.0
H1936 H 0.86894 0.13888 0.93504 0.0
H1937 H 0.86326 0.12592 0.96945 0.0
H1938 H 0.83576 0.17669 0.98826 0.0
H1939 H 0.84176 0.18961 0.95452 0.0
C1940 C 0.84453 0.14894 0.03894 0.0
C1941 C 0.83297 0.13285 0.04195 0.0
C1942 C 0.85102 0.15402 0.0194 0.0
C1943 C 0.84596 0.14317 1.00246 0.0
C1944 C 0.83575 0.1264 0.00565 0.0
C1945 C 0.82931 0.12126 0.02532 0.0
C1946 C 0.86167 0.14718 0.9466 0.0
C1947 C 0.85561 0.16519 0.94206 0.0
C1948 C 0.85838 0.13977 0.96618 0.0
C1949 C 0.84931 0.15039 0.98152 0.0
C1950 C 0.8431 0.16828 0.97684 0.0
C1951 C 0.84624 0.17559 0.95739 0.0
H1952 H 0.86712 0.29015 0.52434 0.0
H1953 H 0.88953 0.34409 0.53827 0.0
H1954 H 0.86067 0.29951 0.48869 0.0
H1955 H 0.88246 0.35366 0.50314 0.0
H1956 H 0.87599 0.36683 0.43705 0.0
H1957 H 0.89064 0.35248 0.4682 0.0
H1958 H 0.83506 0.31775 0.47126 0.0
H1959 H 0.82133 0.33142 0.4395 0.0
C1960 C 0.87082 0.30395 0.51969 0.0
C1961 C 0.87879 0.3164 0.53401 0.0
C1962 C 0.86706 0.30935 0.49934 0.0
C1963 C 0.87089 0.32739 0.49303 0.0
C1964 C 0.87967 0.33959 0.50726 0.0
C1965 C 0.88367 0.33412 0.52748 0.0
C1966 C 0.86733 0.35577 0.44418 0.0
C1967 C 0.84771 0.35004 0.43598 0.0
C1968 C 0.87553 0.34768 0.4621 0.0
C1969 C 0.86398 0.33402 0.47237 0.0
C1970 C 0.84461 0.32798 0.46365 0.0
C1971 C 0.83661 0.33588 0.44559 0.0
H1972 H 0.61616 0.32047 0.97912 0.0
H1973 H 0.66918 0.35651 0.96729 0.0
H1974 H 0.62053 0.32565 0.01581 0.0
H1975 H 0.67289 0.36212 1.00389 0.0
H1976 H 0.65877 0.3801 0.06979 0.0
H1977 H 0.65119 0.37619 0.03306 0.0
H1978 H 0.65048 0.318 0.04207 0.0
H1979 H 0.6584 0.32199 0.07864 0.0
C1980 C 0.62875 0.32946 0.98429 0.0
C1981 C 0.6424 0.33799 0.97022 0.0
C1982 C 0.63113 0.3325 1.00528 0.0
C1983 C 0.647 0.34429 0.01259 0.0
C1984 C 0.66034 0.35314 0.99858 0.0
C1985 C 0.65815 0.34994 0.97762 0.0
C1986 C 0.6569 0.36654 0.06379 0.0
C1987 C 0.65928 0.35132 0.07675 0.0
C1988 C 0.65263 0.36429 0.04291 0.0
C1989 C 0.65031 0.3468 0.03483 0.0
C1990 C 0.65203 0.33162 0.04799 0.0
C1991 C 0.65661 0.33386 0.06879 0.0
H1992 H 0.82485 0.55235 0.35026 0.0
H1993 H 0.88153 0.53551 0.3189 0.0
H1994 H 0.81757 0.52092 0.35963 0.0
H1995 H 0.87359 0.50397 0.3273 0.0
H1996 H 0.8647 0.4501 0.36199 0.0
H1997 H 0.87286 0.48173 0.3538 0.0
H1998 H 0.80556 0.49301 0.34636 0.0
H1999 H 0.79746 0.46151 0.35482 0.0
C2000 C 0.83585 0.542 0.34537 0.0
C2001 C 0.85385 0.5467 0.33377 0.0
C2002 C 0.83147 0.52383 0.35052 0.0
C2003 C 0.84488 0.50967 0.34419 0.0
C2004 C 0.86294 0.51437 0.3327 0.0
C2005 C 0.86736 0.53256 0.3276 0.0
C2006 C 0.85163 0.45929 0.3585 0.0
C2007 C 0.83039 0.45312 0.35917 0.0
C2008 C 0.85632 0.47751 0.35374 0.0
C2009 C 0.83992 0.49015 0.3494 0.0
C2010 C 0.81869 0.48392 0.34999 0.0
C2011 C 0.814 0.46574 0.35484 0.0
H2012 H 0.44686 0.34411 0.833 0.0
H2013 H 0.46915 0.39932 0.82788 0.0
H2014 H 0.48262 0.33449 0.84494 0.0
H2015 H 0.50508 0.38952 0.83865 0.0
H2016 H 0.56888 0.35026 0.83112 0.0
H2017 H 0.53306 0.36031 0.81996 0.0
H2018 H 0.50952 0.34928 0.88054 0.0
H2019 H 0.54556 0.34016 0.89201 0.0
C2020 C 0.45945 0.35413 0.83418 0.0
C2021 C 0.45529 0.37239 0.8289 0.0
C2022 C 0.47987 0.34864 0.84102 0.0
C2023 C 0.49668 0.36123 0.84247 0.0
C2024 C 0.49251 0.37949 0.8374 0.0
C2025 C 0.47198 0.38506 0.83107 0.0
C2026 C 0.55608 0.3501 0.84207 0.0
C2027 C 0.56001 0.34417 0.86238 0.0
C2028 C 0.5356 0.3558 0.83568 0.0
C2029 C 0.51848 0.3554 0.84934 0.0
C2030 C 0.52238 0.34955 0.86964 0.0
C2031 C 0.54296 0.34428 0.87617 0.0
H2032 H 0.70312 0.02612 0.36453 0.0
H2033 H 0.63667 0.03893 0.37316 0.0
H2034 H 0.69328 0.99546 0.35449 0.0
H2035 H 0.62686 0.0083 0.3629 0.0
H2036 H 0.6154 0.95778 0.32331 0.0
H2037 H 0.62527 0.98847 0.3335 0.0
H2038 H 0.67942 0.96703 0.36758 0.0
H2039 H 0.66993 0.93643 0.3569 0.0
C2040 C 0.68641 0.02241 0.36453 0.0
C2041 C 0.67076 0.03521 0.36975 0.0
C2042 C 0.68074 1.00474 0.35871 0.0
C2043 C 0.65922 0.99926 0.35781 0.0
C2044 C 0.64356 0.01202 0.36305 0.0
C2045 C 0.64923 0.02968 0.36896 0.0
C2046 C 0.62952 0.95958 0.33284 0.0
C2047 C 0.64181 0.94448 0.33923 0.0
C2048 C 0.63507 0.97723 0.3389 0.0
C2049 C 0.65317 0.98037 0.35144 0.0
C2050 C 0.66549 0.96526 0.35778 0.0
C2051 C 0.65988 0.94762 0.35182 0.0
H2052 H 0.04442 0.13201 0.84482 0.0
H2053 H 0.067 0.18499 0.82693 0.0
H2054 H 0.00976 0.14501 0.85344 0.0
H2055 H 0.03246 0.19822 0.83571 0.0
H2056 H 0.95684 0.17635 0.88541 0.0
H2057 H 0.99217 0.16417 0.8778 0.0
H2058 H 0.99529 0.19946 0.82456 0.0
H2059 H 0.96004 0.21172 0.8325 0.0
C2060 C 0.04191 0.14647 0.84278 0.0
C2061 C 0.05832 0.15748 0.8351 0.0
C2062 C 0.0221 0.15399 0.84785 0.0
C2063 C 0.01812 0.17275 0.84532 0.0
C2064 C 0.03471 0.18372 0.83766 0.0
C2065 C 0.05456 0.17619 0.83271 0.0
C2066 C 0.96528 0.18166 0.87226 0.0
C2067 C 0.95587 0.19521 0.85975 0.0
C2068 C 0.98544 0.17454 0.86773 0.0
C2069 C 0.99677 0.18075 0.85051 0.0
C2070 C 0.98731 0.19447 0.8381 0.0
C2071 C 0.96708 0.2015 0.8426 0.0
H2072 H 0.78818 0.05348 0.16623 0.0
H2073 H 0.8414 0.0541 0.12528 0.0
H2074 H 0.79731 0.02234 0.17701 0.0
H2075 H 0.8508 0.02314 0.13616 0.0
H2076 H 0.87425 0.97547 0.17737 0.0
H2077 H 0.8647 1.00648 0.16702 0.0
H2078 H 0.79838 0.99098 0.16328 0.0
H2079 H 0.8079 0.96003 0.17381 0.0
C2080 C 0.80189 0.04695 0.15964 0.0
C2081 C 0.81438 0.05634 0.14531 0.0
C2082 C 0.80709 0.0291 0.16572 0.0
C2083 C 0.82495 0.02024 0.15763 0.0
C2084 C 0.83721 0.02962 0.14303 0.0
C2085 C 0.83186 0.04736 0.13679 0.0
C2086 C 0.85761 0.97869 0.17447 0.0
C2087 C 0.84187 0.96517 0.17641 0.0
C2088 C 0.85214 0.99645 0.16835 0.0
C2089 C 0.83075 1.00129 0.16426 0.0
C2090 C 0.81499 0.98782 0.16643 0.0
C2091 C 0.82048 0.97001 0.17229 0.0
H2092 H 0.04739 0.3907 0.65207 0.0
H2093 H 0.05442 0.34751 0.69672 0.0
H2094 H 0.0117 0.37965 0.6429 0.0
H2095 H 0.01899 0.33597 0.68732 0.0
H2096 H 0.9467 0.32882 0.67886 0.0
H2097 H 0.98176 0.34083 0.68892 0.0
H2098 H 0.99298 0.35631 0.62587 0.0
H2099 H 0.95772 0.34472 0.6162 0.0
C2100 C 0.04127 0.37874 0.65981 0.0
C2101 C 0.05369 0.36989 0.675 0.0
C2102 C 0.02084 0.37229 0.6545 0.0
C2103 C 0.01223 0.35677 0.66424 0.0
C2104 C 0.02476 0.34805 0.6796 0.0
C2105 C 0.04517 0.35456 0.68493 0.0
C2106 C 0.95669 0.33494 0.66726 0.0
C2107 C 0.94941 0.33609 0.64683 0.0
C2108 C 0.97689 0.3417 0.67295 0.0
C2109 C 0.99045 0.34968 0.65828 0.0
C2110 C 0.98302 0.35066 0.63776 0.0
C2111 C 0.96282 0.34395 0.63213 0.0
H2112 H 0.67109 0.44539 0.14179 0.0
H2113 H 0.63654 0.42632 0.19455 0.0
H2114 H 0.66232 0.47667 0.15025 0.0
H2115 H 0.62739 0.45761 0.20278 0.0
H2116 H 0.63655 0.51689 0.22385 0.0
H2117 H 0.64423 0.4855 0.21526 0.0
H2118 H 0.63231 0.49788 0.15127 0.0
H2119 H 0.62419 0.52921 0.15983 0.0
C2120 C 0.66162 0.44784 0.15521 0.0
C2121 C 0.65458 0.43322 0.16748 0.0
C2122 C 0.6564 0.46582 0.15996 0.0
C2123 C 0.64413 0.46978 0.17724 0.0
C2124 C 0.63704 0.45516 0.18948 0.0
C2125 C 0.6421 0.43716 0.18462 0.0
C2126 C 0.63522 0.51295 0.20795 0.0
C2127 C 0.62968 0.52583 0.1926 0.0
C2128 C 0.6397 0.49486 0.20301 0.0
C2129 C 0.63894 0.48905 0.18254 0.0
C2130 C 0.63338 0.50187 0.16718 0.0
C2131 C 0.62876 0.51993 0.17212 0.0
H2132 H 0.44713 0.18319 0.68243 0.0
H2133 H 0.46687 0.12774 0.67489 0.0
H2134 H 0.48226 0.19377 0.6713 0.0
H2135 H 0.50212 0.13811 0.66399 0.0
H2136 H 0.55635 0.16305 0.62638 0.0
H2137 H 0.52055 0.15322 0.6363 0.0
H2138 H 0.5195 0.19499 0.68215 0.0
H2139 H 0.55525 0.20478 0.67193 0.0
C2140 C 0.45907 0.17328 0.67842 0.0
C2141 C 0.45433 0.15466 0.67962 0.0
C2142 C 0.47927 0.1793 0.67214 0.0
C2143 C 0.49524 0.16685 0.66671 0.0
C2144 C 0.49028 0.14817 0.66777 0.0
C2145 C 0.47013 0.14218 0.67415 0.0
C2146 C 0.54831 0.17018 0.63844 0.0
C2147 C 0.55845 0.18477 0.64827 0.0
C2148 C 0.52786 0.16448 0.64429 0.0
C2149 C 0.51695 0.17324 0.66011 0.0
C2150 C 0.52715 0.18801 0.66976 0.0
C2151 C 0.54767 0.19362 0.66397 0.0
H2152 H 0.37359 0.81521 0.48446 0.0
H2153 H 0.35323 0.86669 0.4586 0.0
H2154 H 0.36422 0.82551 0.5184 0.0
H2155 H 0.34252 0.87649 0.49225 0.0
H2156 H 0.34001 0.89711 0.55808 0.0
H2157 H 0.35114 0.88708 0.52429 0.0
H2158 H 0.33849 0.83149 0.54223 0.0
H2159 H 0.32824 0.84174 0.57623 0.0
C2160 C 0.36717 0.82876 0.48582 0.0
C2161 C 0.36435 0.83994 0.4682 0.0
C2162 C 0.36137 0.83465 0.50554 0.0
C2163 C 0.35235 0.85198 0.50864 0.0
C2164 C 0.3496 0.86316 0.49103 0.0
C2165 C 0.35552 0.85733 0.47135 0.0
C2166 C 0.33963 0.88275 0.55475 0.0
C2167 C 0.33312 0.87028 0.56994 0.0
C2168 C 0.3459 0.8769 0.53518 0.0
C2169 C 0.34581 0.8583 0.52992 0.0
C2170 C 0.33927 0.84587 0.54533 0.0
C2171 C 0.33316 0.85175 0.56494 0.0
H2172 H 0.11331 0.84679 0.05142 0.0
H2173 H 0.17843 0.83249 0.06572 0.0
H2174 H 0.12356 0.85642 0.01694 0.0
H2175 H 0.18908 0.84265 0.03145 0.0
H2176 H 0.15062 0.88842 0.96219 0.0
H2177 H 0.14032 0.8784 0.99656 0.0
H2178 H 0.18937 0.83727 0.99597 0.0
H2179 H 0.19975 0.84769 0.96174 0.0
C2180 C 0.12985 0.84557 0.04714 0.0
C2181 C 0.14492 0.83846 0.06134 0.0
C2182 C 0.13588 0.85136 0.02731 0.0
C2183 C 0.1573 0.85043 0.0209 0.0
C2184 C 0.17238 0.84341 0.0353 0.0
C2185 C 0.16631 0.83762 0.05514 0.0
C2186 C 0.15913 0.87717 0.96938 0.0
C2187 C 0.17593 0.8688 0.95898 0.0
C2188 C 0.15316 0.87129 0.9892 0.0
C2189 C 0.16381 0.85682 0.9995 0.0
C2190 C 0.18077 0.84856 0.98902 0.0
C2191 C 0.18672 0.85446 0.9692 0.0
H2192 H 0.17473 0.62733 0.53523 0.0
H2193 H 0.18158 0.68246 0.55532 0.0
H2194 H 0.1653 0.63822 0.50059 0.0
H2195 H 0.17194 0.69355 0.52077 0.0
H2196 H 0.17348 0.70759 0.45125 0.0
H2197 H 0.18326 0.6968 0.48588 0.0
H2198 H 0.13827 0.65276 0.47981 0.0
H2199 H 0.12861 0.66368 0.4453 0.0
C2200 C 0.17422 0.64182 0.53223 0.0
C2201 C 0.17909 0.65398 0.54811 0.0
C2202 C 0.16865 0.64814 0.51231 0.0
C2203 C 0.16778 0.6669 0.50748 0.0
C2204 C 0.17265 0.67903 0.52351 0.0
C2205 C 0.17809 0.67269 0.54346 0.0
C2206 C 0.16575 0.69556 0.45731 0.0
C2207 C 0.15058 0.68632 0.44516 0.0
C2208 C 0.17126 0.68938 0.47732 0.0
C2209 C 0.16177 0.6737 0.48598 0.0
C2210 C 0.14638 0.66461 0.47381 0.0
C2211 C 0.14079 0.67088 0.45388 0.0
H2212 H 0.39267 0.67319 0.03681 0.0
H2213 H 0.32938 0.69412 0.04509 0.0
H2214 H 0.38294 0.66403 1.002 0.0
H2215 H 0.3191 0.68427 0.01067 0.0
H2216 H 0.30995 0.67801 0.9411 0.0
H2217 H 0.32028 0.68828 0.97541 0.0
H2218 H 0.36505 0.64383 0.98094 0.0
H2219 H 0.35504 0.63416 0.94636 0.0
C2220 C 0.37664 0.67591 0.03115 0.0
C2221 C 0.36195 0.68467 0.0438 0.0
C2222 C 0.37087 0.6704 0.01114 0.0
C2223 C 0.35006 0.67325 1.00299 0.0
C2224 C 0.33537 0.68199 0.01583 0.0
C2225 C 0.34122 0.68759 0.03578 0.0
C2226 C 0.32207 0.67052 0.94967 0.0
C2227 C 0.33181 0.65537 0.94081 0.0
C2228 C 0.32796 0.67631 0.96955 0.0
C2229 C 0.34371 0.66706 0.98146 0.0
C2230 C 0.35323 0.65173 0.97248 0.0
C2231 C 0.3474 0.64603 0.95257 0.0
loop_
_geom_bond_atom_site_label_1
_geom_bond_atom_site_label_2
_geom_bond_distance
_geom_bond_site_symmetry_2
_ccdc_geom_bond_type
C0 C1 1.443 . S
C0 N4 1.376 . S
C0 C38 1.389 . S
C1 C0 1.443 . S
C1 C2 1.340 . S
C1 H41 0.951 . S
C2 C1 1.340 . S
C2 C3 1.439 . S
C2 H42 0.950 . S
C3 C2 1.439 . S
C3 N4 1.374 . S
C3 C37 1.395 . S
N4 C0 1.376 . S
N4 C3 1.374 . S
N4 Co5 2.008 . S
Co5 N4 2.008 . S
Co5 N6 1.995 . S
Co5 N11 2.008 . S
Co5 N16 1.995 . S
Co5 N21 2.282 . S
Co5 N27 2.282 . S
N6 Co5 1.995 . S
N6 C7 1.376 . S
N6 C10 1.383 . S
C7 N6 1.376 . S
C7 C8 1.446 . S
C7 C37 1.391 . S
C8 C7 1.446 . S
C8 C9 1.339 . S
C8 H43 0.949 . S
C9 C8 1.339 . S
C9 C10 1.439 . S
C9 H44 0.950 . S
C10 N6 1.383 . S
C10 C9 1.439 . S
C10 C39 1.392 . S
N11 Co5 2.008 . S
N11 C12 1.376 . S
N11 C15 1.374 . S
C12 N11 1.376 . S
C12 C13 1.443 . S
C12 C39 1.389 . S
C13 C12 1.443 . S
C13 C14 1.340 . S
C13 H45 0.951 . S
C14 C13 1.340 . S
C14 C15 1.439 . S
C14 H46 0.950 . S
C15 N11 1.374 . S
C15 C14 1.439 . S
C15 C40 1.395 . S
N16 Co5 1.995 . S
N16 C17 1.376 . S
N16 C20 1.383 . S
C17 N16 1.376 . S
C17 C18 1.446 . S
C17 C40 1.391 . S
C18 C17 1.446 . S
C18 C19 1.339 . S
C18 H47 0.949 . S
C19 C18 1.339 . S
C19 C20 1.439 . S
C19 H48 0.950 . S
C20 N16 1.383 . S
C20 C19 1.439 . S
C20 C38 1.392 . S
N21 Co5 2.282 . S
N21 C24 1.332 . S
N21 C26 1.332 . S
C22 C23 1.386 . S
C22 C25 1.388 . S
C23 C22 1.386 . S
C23 C24 1.382 . S
C23 H49 0.950 . S
C24 N21 1.332 . S
C24 C23 1.382 . S
C24 H35 0.952 . S
C25 C22 1.388 . S
C25 C26 1.382 . S
C25 H50 0.950 . S
C26 N21 1.332 . S
C26 C25 1.382 . S
C26 H36 0.948 . S
N27 Co5 2.282 . S
N27 C31 1.332 . S
N27 C32 1.332 . S
C28 C29 1.388 . S
C28 C32 1.382 . S
C28 H51 0.950 . S
C29 C28 1.388 . S
C29 C30 1.386 . S
C30 C29 1.386 . S
C30 C31 1.382 . S
C30 H52 0.950 . S
C31 N27 1.332 . S
C31 C30 1.382 . S
C31 H33 0.952 . S
C32 N27 1.332 . S
C32 C28 1.382 . S
C32 H34 0.948 . S
H33 C31 0.952 . S
H34 C32 0.948 . S
H35 C24 0.952 . S
H36 C26 0.948 . S
C37 C3 1.395 . S
C37 C7 1.391 . S
C38 C0 1.389 . S
C38 C20 1.392 . S
C39 C10 1.392 . S
C39 C12 1.389 . S
C40 C15 1.395 . S
C40 C17 1.391 . S
H41 C1 0.951 . S
H42 C2 0.950 . S
H43 C8 0.949 . S
H44 C9 0.950 . S
H45 C13 0.951 . S
H46 C14 0.950 . S
H47 C18 0.949 . S
H48 C19 0.950 . S
H49 C23 0.950 . S
H50 C25 0.950 . S
H51 C28 0.950 . S
H52 C30 0.950 . S
C53 C54 1.443 . S
C53 N57 1.376 . S
C53 C91 1.389 . S
C54 C53 1.443 . S
C54 C55 1.340 . S
C54 H94 0.951 . S
C55 C54 1.340 . S
C55 C56 1.439 . S
C55 H95 0.950 . S
C56 C55 1.439 . S
C56 N57 1.374 . S
C56 C90 1.395 . S
N57 C53 1.376 . S
N57 C56 1.374 . S
N57 Co58 2.008 . S
Co58 N57 2.008 . S
Co58 N59 1.995 . S
Co58 N64 2.008 . S
Co58 N69 1.995 . S
Co58 N74 2.282 . S
Co58 N80 2.282 . S
N59 Co58 1.995 . S
N59 C60 1.376 . S
N59 C63 1.383 . S
C60 N59 1.376 . S
C60 C61 1.446 . S
C60 C90 1.391 . S
C61 C60 1.446 . S
C61 C62 1.339 . S
C61 H96 0.949 . S
C62 C61 1.339 . S
C62 C63 1.439 . S
C62 H97 0.950 . S
C63 N59 1.383 . S
C63 C62 1.439 . S
C63 C92 1.392 . S
N64 Co58 2.008 . S
N64 C65 1.376 . S
N64 C68 1.374 . S
C65 N64 1.376 . S
C65 C66 1.443 . S
C65 C92 1.389 . S
C66 C65 1.443 . S
C66 C67 1.340 . S
C66 H98 0.951 . S
C67 C66 1.340 . S
C67 C68 1.439 . S
C67 H99 0.950 . S
C68 N64 1.374 . S
C68 C67 1.439 . S
C68 C93 1.395 . S
N69 Co58 1.995 . S
N69 C70 1.376 . S
N69 C73 1.383 . S
C70 N69 1.376 . S
C70 C71 1.446 . S
C70 C93 1.391 . S
C71 C70 1.446 . S
C71 C72 1.339 . S
C71 H100 0.949 . S
C72 C71 1.339 . S
C72 C73 1.439 . S
C72 H101 0.950 . S
C73 N69 1.383 . S
C73 C72 1.439 . S
C73 C91 1.392 . S
N74 Co58 2.282 . S
N74 C77 1.332 . S
N74 C79 1.332 . S
C75 C76 1.386 . S
C75 C78 1.388 . S
C76 C75 1.386 . S
C76 C77 1.382 . S
C76 H102 0.950 . S
C77 N74 1.332 . S
C77 C76 1.382 . S
C77 H88 0.952 . S
C78 C75 1.388 . S
C78 C79 1.382 . S
C78 H103 0.950 . S
C79 N74 1.332 . S
C79 C78 1.382 . S
C79 H89 0.948 . S
N80 Co58 2.282 . S
N80 C84 1.332 . S
N80 C85 1.332 . S
C81 C82 1.388 . S
C81 C85 1.382 . S
C81 H104 0.950 . S
C82 C81 1.388 . S
C82 C83 1.386 . S
C83 C82 1.386 . S
C83 C84 1.382 . S
C83 H105 0.950 . S
C84 N80 1.332 . S
C84 C83 1.382 . S
C84 H86 0.952 . S
C85 N80 1.332 . S
C85 C81 1.382 . S
C85 H87 0.948 . S
H86 C84 0.952 . S
H87 C85 0.948 . S
H88 C77 0.952 . S
H89 C79 0.948 . S
C90 C56 1.395 . S
C90 C60 1.391 . S
C91 C53 1.389 . S
C91 C73 1.392 . S
C92 C63 1.392 . S
C92 C65 1.389 . S
C93 C68 1.395 . S
C93 C70 1.391 . S
H94 C54 0.951 . S
H95 C55 0.950 . S
H96 C61 0.949 . S
H97 C62 0.950 . S
H98 C66 0.951 . S
H99 C67 0.950 . S
H100 C71 0.949 . S
H101 C72 0.950 . S
H102 C76 0.950 . S
H103 C78 0.950 . S
H104 C81 0.950 . S
H105 C83 0.950 . S
C106 C107 1.443 . S
C106 N110 1.376 . S
C106 C144 1.389 . S
C107 C106 1.443 . S
C107 C108 1.340 . S
C107 H147 0.951 . S
C108 C107 1.340 . S
C108 C109 1.439 . S
C108 H148 0.950 . S
C109 C108 1.439 . S
C109 N110 1.374 . S
C109 C143 1.395 . S
N110 C106 1.376 . S
N110 C109 1.374 . S
N110 Co111 2.008 . S
Co111 N110 2.008 . S
Co111 N112 1.995 . S
Co111 N117 2.008 . S
Co111 N122 1.995 . S
Co111 N127 2.282 . S
Co111 N133 2.282 . S
N112 Co111 1.995 . S
N112 C113 1.376 . S
N112 C116 1.383 . S
C113 N112 1.376 . S
C113 C114 1.446 . S
C113 C143 1.391 . S
C114 C113 1.446 . S
C114 C115 1.339 . S
C114 H149 0.949 . S
C115 C114 1.339 . S
C115 C116 1.439 . S
C115 H150 0.950 . S
C116 N112 1.383 . S
C116 C115 1.439 . S
C116 C145 1.392 . S
N117 Co111 2.008 . S
N117 C118 1.376 . S
N117 C121 1.374 . S
C118 N117 1.376 . S
C118 C119 1.443 . S
C118 C145 1.389 . S
C119 C118 1.443 . S
C119 C120 1.340 . S
C119 H151 0.951 . S
C120 C119 1.340 . S
C120 C121 1.439 . S
C120 H152 0.950 . S
C121 N117 1.374 . S
C121 C120 1.439 . S
C121 C146 1.395 . S
N122 Co111 1.995 . S
N122 C123 1.376 . S
N122 C126 1.383 . S
C123 N122 1.376 . S
C123 C124 1.446 . S
C123 C146 1.391 . S
C124 C123 1.446 . S
C124 C125 1.339 . S
C124 H153 0.949 . S
C125 C124 1.339 . S
C125 C126 1.439 . S
C125 H154 0.950 . S
C126 N122 1.383 . S
C126 C125 1.439 . S
C126 C144 1.392 . S
N127 Co111 2.282 . S
N127 C130 1.332 . S
N127 C132 1.332 . S
C128 C129 1.386 . S
C128 C131 1.388 . S
C129 C128 1.386 . S
C129 C130 1.382 . S
C129 H155 0.950 . S
C130 N127 1.332 . S
C130 C129 1.382 . S
C130 H141 0.952 . S
C131 C128 1.388 . S
C131 C132 1.382 . S
C131 H156 0.950 . S
C132 N127 1.332 . S
C132 C131 1.382 . S
C132 H142 0.948 . S
N133 Co111 2.282 . S
N133 C137 1.332 . S
N133 C138 1.332 . S
C134 C135 1.388 . S
C134 C138 1.382 . S
C134 H157 0.950 . S
C135 C134 1.388 . S
C135 C136 1.386 . S
C136 C135 1.386 . S
C136 C137 1.382 . S
C136 H158 0.950 . S
C137 N133 1.332 . S
C137 C136 1.382 . S
C137 H139 0.952 . S
C138 N133 1.332 . S
C138 C134 1.382 . S
C138 H140 0.948 . S
H139 C137 0.952 . S
H140 C138 0.948 . S
H141 C130 0.952 . S
H142 C132 0.948 . S
C143 C109 1.395 . S
C143 C113 1.391 . S
C144 C106 1.389 . S
C144 C126 1.392 . S
C145 C116 1.392 . S
C145 C118 1.389 . S
C146 C121 1.395 . S
C146 C123 1.391 . S
H147 C107 0.951 . S
H148 C108 0.950 . S
H149 C114 0.949 . S
H150 C115 0.950 . S
H151 C119 0.951 . S
H152 C120 0.950 . S
H153 C124 0.949 . S
H154 C125 0.950 . S
H155 C129 0.950 . S
H156 C131 0.950 . S
H157 C134 0.950 . S
H158 C136 0.950 . S
C159 C160 1.443 . S
C159 N163 1.376 . S
C159 C197 1.389 . S
C160 C159 1.443 . S
C160 C161 1.340 . S
C160 H200 0.951 . S
C161 C160 1.340 . S
C161 C162 1.439 . S
C161 H201 0.950 . S
C162 C161 1.439 . S
C162 N163 1.374 . S
C162 C196 1.395 . S
N163 C159 1.376 . S
N163 C162 1.374 . S
N163 Co164 2.008 . S
Co164 N163 2.008 . S
Co164 N165 1.995 . S
Co164 N170 2.008 . S
Co164 N175 1.995 . S
Co164 N180 2.282 . S
Co164 N186 2.282 . S
N165 Co164 1.995 . S
N165 C166 1.376 . S
N165 C169 1.383 . S
C166 N165 1.376 . S
C166 C167 1.446 . S
C166 C196 1.391 . S
C167 C166 1.446 . S
C167 C168 1.339 . S
C167 H202 0.949 . S
C168 C167 1.339 . S
C168 C169 1.439 . S
C168 H203 0.950 . S
C169 N165 1.383 . S
C169 C168 1.439 . S
C169 C198 1.392 . S
N170 Co164 2.008 . S
N170 C171 1.376 . S
N170 C174 1.374 . S
C171 N170 1.376 . S
C171 C172 1.443 . S
C171 C198 1.389 . S
C172 C171 1.443 . S
C172 C173 1.340 . S
C172 H204 0.951 . S
C173 C172 1.340 . S
C173 C174 1.439 . S
C173 H205 0.950 . S
C174 N170 1.374 . S
C174 C173 1.439 . S
C174 C199 1.395 . S
N175 Co164 1.995 . S
N175 C176 1.376 . S
N175 C179 1.383 . S
C176 N175 1.376 . S
C176 C177 1.446 . S
C176 C199 1.391 . S
C177 C176 1.446 . S
C177 C178 1.339 . S
C177 H206 0.949 . S
C178 C177 1.339 . S
C178 C179 1.439 . S
C178 H207 0.950 . S
C179 N175 1.383 . S
C179 C178 1.439 . S
C179 C197 1.392 . S
N180 Co164 2.282 . S
N180 C183 1.332 . S
N180 C185 1.332 . S
C181 C182 1.386 . S
C181 C184 1.388 . S
C182 C181 1.386 . S
C182 C183 1.382 . S
C182 H208 0.950 . S
C183 N180 1.332 . S
C183 C182 1.382 . S
C183 H194 0.952 . S
C184 C181 1.388 . S
C184 C185 1.382 . S
C184 H209 0.950 . S
C185 N180 1.332 . S
C185 C184 1.382 . S
C185 H195 0.948 . S
N186 Co164 2.282 . S
N186 C190 1.332 . S
N186 C191 1.332 . S
C187 C188 1.388 . S
C187 C191 1.382 . S
C187 H210 0.950 . S
C188 C187 1.388 . S
C188 C189 1.386 . S
C189 C188 1.386 . S
C189 C190 1.382 . S
C189 H211 0.950 . S
C190 N186 1.332 . S
C190 C189 1.382 . S
C190 H192 0.952 . S
C191 N186 1.332 . S
C191 C187 1.382 . S
C191 H193 0.948 . S
H192 C190 0.952 . S
H193 C191 0.948 . S
H194 C183 0.952 . S
H195 C185 0.948 . S
C196 C162 1.395 . S
C196 C166 1.391 . S
C197 C159 1.389 . S
C197 C179 1.392 . S
C198 C169 1.392 . S
C198 C171 1.389 . S
C199 C174 1.395 . S
C199 C176 1.391 . S
H200 C160 0.951 . S
H201 C161 0.950 . S
H202 C167 0.949 . S
H203 C168 0.950 . S
H204 C172 0.951 . S
H205 C173 0.950 . S
H206 C177 0.949 . S
H207 C178 0.950 . S
H208 C182 0.950 . S
H209 C184 0.950 . S
H210 C187 0.950 . S
H211 C189 0.950 . S
C212 C213 1.443 . S
C212 N216 1.376 . S
C212 C250 1.389 . S
C213 C212 1.443 . S
C213 C214 1.340 . S
C213 H253 0.951 . S
C214 C213 1.340 . S
C214 C215 1.439 . S
C214 H254 0.950 . S
C215 C214 1.439 . S
C215 N216 1.374 . S
C215 C249 1.395 . S
N216 C212 1.376 . S
N216 C215 1.374 . S
N216 Co217 2.008 . S
Co217 N216 2.008 . S
Co217 N218 1.995 . S
Co217 N223 2.008 . S
Co217 N228 1.995 . S
Co217 N233 2.282 . S
Co217 N239 2.282 . S
N218 Co217 1.995 . S
N218 C219 1.376 . S
N218 C222 1.383 . S
C219 N218 1.376 . S
C219 C220 1.446 . S
C219 C249 1.391 . S
C220 C219 1.446 . S
C220 C221 1.339 . S
C220 H255 0.949 . S
C221 C220 1.339 . S
C221 C222 1.439 . S
C221 H256 0.950 . S
C222 N218 1.383 . S
C222 C221 1.439 . S
C222 C251 1.392 . S
N223 Co217 2.008 . S
N223 C224 1.376 . S
N223 C227 1.374 . S
C224 N223 1.376 . S
C224 C225 1.443 . S
C224 C251 1.389 . S
C225 C224 1.443 . S
C225 C226 1.340 . S
C225 H257 0.951 . S
C226 C225 1.340 . S
C226 C227 1.439 . S
C226 H258 0.950 . S
C227 N223 1.374 . S
C227 C226 1.439 . S
C227 C252 1.395 . S
N228 Co217 1.995 . S
N228 C229 1.376 . S
N228 C232 1.383 . S
C229 N228 1.376 . S
C229 C230 1.446 . S
C229 C252 1.391 . S
C230 C229 1.446 . S
C230 C231 1.339 . S
C230 H259 0.949 . S
C231 C230 1.339 . S
C231 C232 1.439 . S
C231 H260 0.950 . S
C232 N228 1.383 . S
C232 C231 1.439 . S
C232 C250 1.392 . S
N233 Co217 2.282 . S
N233 C236 1.332 . S
N233 C238 1.332 . S
C234 C235 1.386 . S
C234 C237 1.388 . S
C235 C234 1.386 . S
C235 C236 1.382 . S
C235 H261 0.950 . S
C236 N233 1.332 . S
C236 C235 1.382 . S
C236 H247 0.952 . S
C237 C234 1.388 . S
C237 C238 1.382 . S
C237 H262 0.950 . S
C238 N233 1.332 . S
C238 C237 1.382 . S
C238 H248 0.948 . S
N239 Co217 2.282 . S
N239 C243 1.332 . S
N239 C244 1.332 . S
C240 C241 1.388 . S
C240 C244 1.382 . S
C240 H263 0.950 . S
C241 C240 1.388 . S
C241 C242 1.386 . S
C242 C241 1.386 . S
C242 C243 1.382 . S
C242 H264 0.950 . S
C243 N239 1.332 . S
C243 C242 1.382 . S
C243 H245 0.952 . S
C244 N239 1.332 . S
C244 C240 1.382 . S
C244 H246 0.948 . S
H245 C243 0.952 . S
H246 C244 0.948 . S
H247 C236 0.952 . S
H248 C238 0.948 . S
C249 C215 1.395 . S
C249 C219 1.391 . S
C250 C212 1.389 . S
C250 C232 1.392 . S
C251 C222 1.392 . S
C251 C224 1.389 . S
C252 C227 1.395 . S
C252 C229 1.391 . S
H253 C213 0.951 . S
H254 C214 0.950 . S
H255 C220 0.949 . S
H256 C221 0.950 . S
H257 C225 0.951 . S
H258 C226 0.950 . S
H259 C230 0.949 . S
H260 C231 0.950 . S
H261 C235 0.950 . S
H262 C237 0.950 . S
H263 C240 0.950 . S
H264 C242 0.950 . S
C265 C266 1.443 . S
C265 N269 1.376 . S
C265 C303 1.389 . S
C266 C265 1.443 . S
C266 C267 1.340 . S
C266 H306 0.951 . S
C267 C266 1.340 . S
C267 C268 1.439 . S
C267 H307 0.950 . S
C268 C267 1.439 . S
C268 N269 1.374 . S
C268 C302 1.395 . S
N269 C265 1.376 . S
N269 C268 1.374 . S
N269 Co270 2.008 . S
Co270 N269 2.008 . S
Co270 N271 1.995 . S
Co270 N276 2.008 . S
Co270 N281 1.995 . S
Co270 N286 2.282 . S
Co270 N292 2.282 . S
N271 Co270 1.995 . S
N271 C272 1.376 . S
N271 C275 1.383 . S
C272 N271 1.376 . S
C272 C273 1.446 . S
C272 C302 1.391 . S
C273 C272 1.446 . S
C273 C274 1.339 . S
C273 H308 0.949 . S
C274 C273 1.339 . S
C274 C275 1.439 . S
C274 H309 0.950 . S
C275 N271 1.383 . S
C275 C274 1.439 . S
C275 C304 1.392 . S
N276 Co270 2.008 . S
N276 C277 1.376 . S
N276 C280 1.374 . S
C277 N276 1.376 . S
C277 C278 1.443 . S
C277 C304 1.389 . S
C278 C277 1.443 . S
C278 C279 1.340 . S
C278 H310 0.951 . S
C279 C278 1.340 . S
C279 C280 1.439 . S
C279 H311 0.950 . S
C280 N276 1.374 . S
C280 C279 1.439 . S
C280 C305 1.395 . S
N281 Co270 1.995 . S
N281 C282 1.376 . S
N281 C285 1.383 . S
C282 N281 1.376 . S
C282 C283 1.446 . S
C282 C305 1.391 . S
C283 C282 1.446 . S
C283 C284 1.339 . S
C283 H312 0.949 . S
C284 C283 1.339 . S
C284 C285 1.439 . S
C284 H313 0.950 . S
C285 N281 1.383 . S
C285 C284 1.439 . S
C285 C303 1.392 . S
N286 Co270 2.282 . S
N286 C289 1.332 . S
N286 C291 1.332 . S
C287 C288 1.386 . S
C287 C290 1.388 . S
C288 C287 1.386 . S
C288 C289 1.382 . S
C288 H314 0.950 . S
C289 N286 1.332 . S
C289 C288 1.382 . S
C289 H300 0.952 . S
C290 C287 1.388 . S
C290 C291 1.382 . S
C290 H315 0.950 . S
C291 N286 1.332 . S
C291 C290 1.382 . S
C291 H301 0.948 . S
N292 Co270 2.282 . S
N292 C296 1.332 . S
N292 C297 1.332 . S
C293 C294 1.388 . S
C293 C297 1.382 . S
C293 H316 0.950 . S
C294 C293 1.388 . S
C294 C295 1.386 . S
C295 C294 1.386 . S
C295 C296 1.382 . S
C295 H317 0.950 . S
C296 N292 1.332 . S
C296 C295 1.382 . S
C296 H298 0.952 . S
C297 N292 1.332 . S
C297 C293 1.382 . S
C297 H299 0.948 . S
H298 C296 0.952 . S
H299 C297 0.948 . S
H300 C289 0.952 . S
H301 C291 0.948 . S
C302 C268 1.395 . S
C302 C272 1.391 . S
C303 C265 1.389 . S
C303 C285 1.392 . S
C304 C275 1.392 . S
C304 C277 1.389 . S
C305 C280 1.395 . S
C305 C282 1.391 . S
H306 C266 0.951 . S
H307 C267 0.950 . S
H308 C273 0.949 . S
H309 C274 0.950 . S
H310 C278 0.951 . S
H311 C279 0.950 . S
H312 C283 0.949 . S
H313 C284 0.950 . S
H314 C288 0.950 . S
H315 C290 0.950 . S
H316 C293 0.950 . S
H317 C295 0.950 . S
C318 C319 1.443 . S
C318 N322 1.376 . S
C318 C356 1.389 . S
C319 C318 1.443 . S
C319 C320 1.340 . S
C319 H359 0.951 . S
C320 C319 1.340 . S
C320 C321 1.439 . S
C320 H360 0.950 . S
C321 C320 1.439 . S
C321 N322 1.374 . S
C321 C355 1.395 . S
N322 C318 1.376 . S
N322 C321 1.374 . S
N322 Co323 2.008 . S
Co323 N322 2.008 . S
Co323 N324 1.995 . S
Co323 N329 2.008 . S
Co323 N334 1.995 . S
Co323 N339 2.282 . S
Co323 N345 2.282 . S
N324 Co323 1.995 . S
N324 C325 1.376 . S
N324 C328 1.383 . S
C325 N324 1.376 . S
C325 C326 1.446 . S
C325 C355 1.391 . S
C326 C325 1.446 . S
C326 C327 1.339 . S
C326 H361 0.949 . S
C327 C326 1.339 . S
C327 C328 1.439 . S
C327 H362 0.950 . S
C328 N324 1.383 . S
C328 C327 1.439 . S
C328 C357 1.392 . S
N329 Co323 2.008 . S
N329 C330 1.376 . S
N329 C333 1.374 . S
C330 N329 1.376 . S
C330 C331 1.443 . S
C330 C357 1.389 . S
C331 C330 1.443 . S
C331 C332 1.340 . S
C331 H363 0.951 . S
C332 C331 1.340 . S
C332 C333 1.439 . S
C332 H364 0.950 . S
C333 N329 1.374 . S
C333 C332 1.439 . S
C333 C358 1.395 . S
N334 Co323 1.995 . S
N334 C335 1.376 . S
N334 C338 1.383 . S
C335 N334 1.376 . S
C335 C336 1.446 . S
C335 C358 1.391 . S
C336 C335 1.446 . S
C336 C337 1.339 . S
C336 H365 0.949 . S
C337 C336 1.339 . S
C337 C338 1.439 . S
C337 H366 0.950 . S
C338 N334 1.383 . S
C338 C337 1.439 . S
C338 C356 1.392 . S
N339 Co323 2.282 . S
N339 C342 1.332 . S
N339 C344 1.332 . S
C340 C341 1.386 . S
C340 C343 1.388 . S
C341 C340 1.386 . S
C341 C342 1.382 . S
C341 H367 0.950 . S
C342 N339 1.332 . S
C342 C341 1.382 . S
C342 H353 0.952 . S
C343 C340 1.388 . S
C343 C344 1.382 . S
C343 H368 0.950 . S
C344 N339 1.332 . S
C344 C343 1.382 . S
C344 H354 0.948 . S
N345 Co323 2.282 . S
N345 C349 1.332 . S
N345 C350 1.332 . S
C346 C347 1.388 . S
C346 C350 1.382 . S
C346 H369 0.950 . S
C347 C346 1.388 . S
C347 C348 1.386 . S
C348 C347 1.386 . S
C348 C349 1.382 . S
C348 H370 0.950 . S
C349 N345 1.332 . S
C349 C348 1.382 . S
C349 H351 0.952 . S
C350 N345 1.332 . S
C350 C346 1.382 . S
C350 H352 0.948 . S
H351 C349 0.952 . S
H352 C350 0.948 . S
H353 C342 0.952 . S
H354 C344 0.948 . S
C355 C321 1.395 . S
C355 C325 1.391 . S
C356 C318 1.389 . S
C356 C338 1.392 . S
C357 C328 1.392 . S
C357 C330 1.389 . S
C358 C333 1.395 . S
C358 C335 1.391 . S
H359 C319 0.951 . S
H360 C320 0.950 . S
H361 C326 0.949 . S
H362 C327 0.950 . S
H363 C331 0.951 . S
H364 C332 0.950 . S
H365 C336 0.949 . S
H366 C337 0.950 . S
H367 C341 0.950 . S
H368 C343 0.950 . S
H369 C346 0.950 . S
H370 C348 0.950 . S
C371 C372 1.443 . S
C371 N375 1.376 . S
C371 C409 1.389 . S
C372 C371 1.443 . S
C372 C373 1.340 . S
C372 H412 0.951 . S
C373 C372 1.340 . S
C373 C374 1.439 . S
C373 H413 0.950 . S
C374 C373 1.439 . S
C374 N375 1.374 . S
C374 C408 1.395 . S
N375 C371 1.376 . S
N375 C374 1.374 . S
N375 Co376 2.008 . S
Co376 N375 2.008 . S
Co376 N377 1.995 . S
Co376 N382 2.008 . S
Co376 N387 1.995 . S
Co376 N392 2.282 . S
Co376 N398 2.282 . S
N377 Co376 1.995 . S
N377 C378 1.376 . S
N377 C381 1.383 . S
C378 N377 1.376 . S
C378 C379 1.446 . S
C378 C408 1.391 . S
C379 C378 1.446 . S
C379 C380 1.339 . S
C379 H414 0.949 . S
C380 C379 1.339 . S
C380 C381 1.439 . S
C380 H415 0.950 . S
C381 N377 1.383 . S
C381 C380 1.439 . S
C381 C410 1.392 . S
N382 Co376 2.008 . S
N382 C383 1.376 . S
N382 C386 1.374 . S
C383 N382 1.376 . S
C383 C384 1.443 . S
C383 C410 1.389 . S
C384 C383 1.443 . S
C384 C385 1.340 . S
C384 H416 0.951 . S
C385 C384 1.340 . S
C385 C386 1.439 . S
C385 H417 0.950 . S
C386 N382 1.374 . S
C386 C385 1.439 . S
C386 C411 1.395 . S
N387 Co376 1.995 . S
N387 C388 1.376 . S
N387 C391 1.383 . S
C388 N387 1.376 . S
C388 C389 1.446 . S
C388 C411 1.391 . S
C389 C388 1.446 . S
C389 C390 1.339 . S
C389 H418 0.949 . S
C390 C389 1.339 . S
C390 C391 1.439 . S
C390 H419 0.950 . S
C391 N387 1.383 . S
C391 C390 1.439 . S
C391 C409 1.392 . S
N392 Co376 2.282 . S
N392 C395 1.332 . S
N392 C397 1.332 . S
C393 C394 1.386 . S
C393 C396 1.388 . S
C394 C393 1.386 . S
C394 C395 1.382 . S
C394 H420 0.950 . S
C395 N392 1.332 . S
C395 C394 1.382 . S
C395 H406 0.952 . S
C396 C393 1.388 . S
C396 C397 1.382 . S
C396 H421 0.950 . S
C397 N392 1.332 . S
C397 C396 1.382 . S
C397 H407 0.948 . S
N398 Co376 2.282 . S
N398 C402 1.332 . S
N398 C403 1.332 . S
C399 C400 1.388 . S
C399 C403 1.382 . S
C399 H422 0.950 . S
C400 C399 1.388 . S
C400 C401 1.386 . S
C401 C400 1.386 . S
C401 C402 1.382 . S
C401 H423 0.950 . S
C402 N398 1.332 . S
C402 C401 1.382 . S
C402 H404 0.952 . S
C403 N398 1.332 . S
C403 C399 1.382 . S
C403 H405 0.948 . S
H404 C402 0.952 . S
H405 C403 0.948 . S
H406 C395 0.952 . S
H407 C397 0.948 . S
C408 C374 1.395 . S
C408 C378 1.391 . S
C409 C371 1.389 . S
C409 C391 1.392 . S
C410 C381 1.392 . S
C410 C383 1.389 . S
C411 C386 1.395 . S
C411 C388 1.391 . S
H412 C372 0.951 . S
H413 C373 0.950 . S
H414 C379 0.949 . S
H415 C380 0.950 . S
H416 C384 0.951 . S
H417 C385 0.950 . S
H418 C389 0.949 . S
H419 C390 0.950 . S
H420 C394 0.950 . S
H421 C396 0.950 . S
H422 C399 0.950 . S
H423 C401 0.950 . S
C424 C425 1.443 . S
C424 N428 1.376 . S
C424 C462 1.389 . S
C425 C424 1.443 . S
C425 C426 1.340 . S
C425 H465 0.951 . S
C426 C425 1.340 . S
C426 C427 1.439 . S
C426 H466 0.950 . S
C427 C426 1.439 . S
C427 N428 1.374 . S
C427 C461 1.395 . S
N428 C424 1.376 . S
N428 C427 1.374 . S
N428 Co429 2.008 . S
Co429 N428 2.008 . S
Co429 N430 1.995 . S
Co429 N435 2.008 . S
Co429 N440 1.995 . S
Co429 N445 2.282 . S
Co429 N451 2.282 . S
N430 Co429 1.995 . S
N430 C431 1.376 . S
N430 C434 1.383 . S
C431 N430 1.376 . S
C431 C432 1.446 . S
C431 C461 1.391 . S
C432 C431 1.446 . S
C432 C433 1.339 . S
C432 H467 0.949 . S
C433 C432 1.339 . S
C433 C434 1.439 . S
C433 H468 0.950 . S
C434 N430 1.383 . S
C434 C433 1.439 . S
C434 C463 1.392 . S
N435 Co429 2.008 . S
N435 C436 1.376 . S
N435 C439 1.374 . S
C436 N435 1.376 . S
C436 C437 1.443 . S
C436 C463 1.389 . S
C437 C436 1.443 . S
C437 C438 1.340 . S
C437 H469 0.951 . S
C438 C437 1.340 . S
C438 C439 1.439 . S
C438 H470 0.950 . S
C439 N435 1.374 . S
C439 C438 1.439 . S
C439 C464 1.395 . S
N440 Co429 1.995 . S
N440 C441 1.376 . S
N440 C444 1.383 . S
C441 N440 1.376 . S
C441 C442 1.446 . S
C441 C464 1.391 . S
C442 C441 1.446 . S
C442 C443 1.339 . S
C442 H471 0.949 . S
C443 C442 1.339 . S
C443 C444 1.439 . S
C443 H472 0.950 . S
C444 N440 1.383 . S
C444 C443 1.439 . S
C444 C462 1.392 . S
N445 Co429 2.282 . S
N445 C448 1.332 . S
N445 C450 1.332 . S
C446 C447 1.386 . S
C446 C449 1.388 . S
C447 C446 1.386 . S
C447 C448 1.382 . S
C447 H473 0.950 . S
C448 N445 1.332 . S
C448 C447 1.382 . S
C448 H459 0.952 . S
C449 C446 1.388 . S
C449 C450 1.382 . S
C449 H474 0.950 . S
C450 N445 1.332 . S
C450 C449 1.382 . S
C450 H460 0.948 . S
N451 Co429 2.282 . S
N451 C455 1.332 . S
N451 C456 1.332 . S
C452 C453 1.388 . S
C452 C456 1.382 . S
C452 H475 0.950 . S
C453 C452 1.388 . S
C453 C454 1.386 . S
C454 C453 1.386 . S
C454 C455 1.382 . S
C454 H476 0.950 . S
C455 N451 1.332 . S
C455 C454 1.382 . S
C455 H457 0.952 . S
C456 N451 1.332 . S
C456 C452 1.382 . S
C456 H458 0.948 . S
H457 C455 0.952 . S
H458 C456 0.948 . S
H459 C448 0.952 . S
H460 C450 0.948 . S
C461 C427 1.395 . S
C461 C431 1.391 . S
C462 C424 1.389 . S
C462 C444 1.392 . S
C463 C434 1.392 . S
C463 C436 1.389 . S
C464 C439 1.395 . S
C464 C441 1.391 . S
H465 C425 0.951 . S
H466 C426 0.950 . S
H467 C432 0.949 . S
H468 C433 0.950 . S
H469 C437 0.951 . S
H470 C438 0.950 . S
H471 C442 0.949 . S
H472 C443 0.950 . S
H473 C447 0.950 . S
H474 C449 0.950 . S
H475 C452 0.950 . S
H476 C454 0.950 . S
C477 C478 1.443 . S
C477 N481 1.376 . S
C477 C515 1.389 . S
C478 C477 1.443 . S
C478 C479 1.340 . S
C478 H518 0.951 . S
C479 C478 1.340 . S
C479 C480 1.439 . S
C479 H519 0.950 . S
C480 C479 1.439 . S
C480 N481 1.374 . S
C480 C514 1.395 . S
N481 C477 1.376 . S
N481 C480 1.374 . S
N481 Co482 2.008 . S
Co482 N481 2.008 . S
Co482 N483 1.995 . S
Co482 N488 2.008 . S
Co482 N493 1.995 . S
Co482 N498 2.282 . S
Co482 N504 2.282 . S
N483 Co482 1.995 . S
N483 C484 1.376 . S
N483 C487 1.383 . S
C484 N483 1.376 . S
C484 C485 1.446 . S
C484 C514 1.391 . S
C485 C484 1.446 . S
C485 C486 1.339 . S
C485 H520 0.949 . S
C486 C485 1.339 . S
C486 C487 1.439 . S
C486 H521 0.950 . S
C487 N483 1.383 . S
C487 C486 1.439 . S
C487 C516 1.392 . S
N488 Co482 2.008 . S
N488 C489 1.376 . S
N488 C492 1.374 . S
C489 N488 1.376 . S
C489 C490 1.443 . S
C489 C516 1.389 . S
C490 C489 1.443 . S
C490 C491 1.340 . S
C490 H522 0.951 . S
C491 C490 1.340 . S
C491 C492 1.439 . S
C491 H523 0.950 . S
C492 N488 1.374 . S
C492 C491 1.439 . S
C492 C517 1.395 . S
N493 Co482 1.995 . S
N493 C494 1.376 . S
N493 C497 1.383 . S
C494 N493 1.376 . S
C494 C495 1.446 . S
C494 C517 1.391 . S
C495 C494 1.446 . S
C495 C496 1.339 . S
C495 H524 0.949 . S
C496 C495 1.339 . S
C496 C497 1.439 . S
C496 H525 0.950 . S
C497 N493 1.383 . S
C497 C496 1.439 . S
C497 C515 1.392 . S
N498 Co482 2.282 . S
N498 C501 1.332 . S
N498 C503 1.332 . S
C499 C500 1.386 . S
C499 C502 1.388 . S
C500 C499 1.386 . S
C500 C501 1.382 . S
C500 H526 0.950 . S
C501 N498 1.332 . S
C501 C500 1.382 . S
C501 H512 0.952 . S
C502 C499 1.388 . S
C502 C503 1.382 . S
C502 H527 0.950 . S
C503 N498 1.332 . S
C503 C502 1.382 . S
C503 H513 0.948 . S
N504 Co482 2.282 . S
N504 C508 1.332 . S
N504 C509 1.332 . S
C505 C506 1.388 . S
C505 C509 1.382 . S
C505 H528 0.950 . S
C506 C505 1.388 . S
C506 C507 1.386 . S
C507 C506 1.386 . S
C507 C508 1.382 . S
C507 H529 0.950 . S
C508 N504 1.332 . S
C508 C507 1.382 . S
C508 H510 0.952 . S
C509 N504 1.332 . S
C509 C505 1.382 . S
C509 H511 0.948 . S
H510 C508 0.952 . S
H511 C509 0.948 . S
H512 C501 0.952 . S
H513 C503 0.948 . S
C514 C480 1.395 . S
C514 C484 1.391 . S
C515 C477 1.389 . S
C515 C497 1.392 . S
C516 C487 1.392 . S
C516 C489 1.389 . S
C517 C492 1.395 . S
C517 C494 1.391 . S
H518 C478 0.951 . S
H519 C479 0.950 . S
H520 C485 0.949 . S
H521 C486 0.950 . S
H522 C490 0.951 . S
H523 C491 0.950 . S
H524 C495 0.949 . S
H525 C496 0.950 . S
H526 C500 0.950 . S
H527 C502 0.950 . S
H528 C505 0.950 . S
H529 C507 0.950 . S
C530 C531 1.443 . S
C530 N534 1.376 . S
C530 C568 1.389 . S
C531 C530 1.443 . S
C531 C532 1.340 . S
C531 H571 0.951 . S
C532 C531 1.340 . S
C532 C533 1.439 . S
C532 H572 0.950 . S
C533 C532 1.439 . S
C533 N534 1.374 . S
C533 C567 1.395 . S
N534 C530 1.376 . S
N534 C533 1.374 . S
N534 Co535 2.008 . S
Co535 N534 2.008 . S
Co535 N536 1.995 . S
Co535 N541 2.008 . S
Co535 N546 1.995 . S
Co535 N551 2.282 . S
Co535 N557 2.282 . S
N536 Co535 1.995 . S
N536 C537 1.376 . S
N536 C540 1.383 . S
C537 N536 1.376 . S
C537 C538 1.446 . S
C537 C567 1.391 . S
C538 C537 1.446 . S
C538 C539 1.339 . S
C538 H573 0.949 . S
C539 C538 1.339 . S
C539 C540 1.439 . S
C539 H574 0.950 . S
C540 N536 1.383 . S
C540 C539 1.439 . S
C540 C569 1.392 . S
N541 Co535 2.008 . S
N541 C542 1.376 . S
N541 C545 1.374 . S
C542 N541 1.376 . S
C542 C543 1.443 . S
C542 C569 1.389 . S
C543 C542 1.443 . S
C543 C544 1.340 . S
C543 H575 0.951 . S
C544 C543 1.340 . S
C544 C545 1.439 . S
C544 H576 0.950 . S
C545 N541 1.374 . S
C545 C544 1.439 . S
C545 C570 1.395 . S
N546 Co535 1.995 . S
N546 C547 1.376 . S
N546 C550 1.383 . S
C547 N546 1.376 . S
C547 C548 1.446 . S
C547 C570 1.391 . S
C548 C547 1.446 . S
C548 C549 1.339 . S
C548 H577 0.949 . S
C549 C548 1.339 . S
C549 C550 1.439 . S
C549 H578 0.950 . S
C550 N546 1.383 . S
C550 C549 1.439 . S
C550 C568 1.392 . S
N551 Co535 2.282 . S
N551 C554 1.332 . S
N551 C556 1.332 . S
C552 C553 1.386 . S
C552 C555 1.388 . S
C553 C552 1.386 . S
C553 C554 1.382 . S
C553 H579 0.950 . S
C554 N551 1.332 . S
C554 C553 1.382 . S
C554 H565 0.952 . S
C555 C552 1.388 . S
C555 C556 1.382 . S
C555 H580 0.950 . S
C556 N551 1.332 . S
C556 C555 1.382 . S
C556 H566 0.948 . S
N557 Co535 2.282 . S
N557 C561 1.332 . S
N557 C562 1.332 . S
C558 C559 1.388 . S
C558 C562 1.382 . S
C558 H581 0.950 . S
C559 C558 1.388 . S
C559 C560 1.386 . S
C560 C559 1.386 . S
C560 C561 1.382 . S
C560 H582 0.950 . S
C561 N557 1.332 . S
C561 C560 1.382 . S
C561 H563 0.952 . S
C562 N557 1.332 . S
C562 C558 1.382 . S
C562 H564 0.948 . S
H563 C561 0.952 . S
H564 C562 0.948 . S
H565 C554 0.952 . S
H566 C556 0.948 . S
C567 C533 1.395 . S
C567 C537 1.391 . S
C568 C530 1.389 . S
C568 C550 1.392 . S
C569 C540 1.392 . S
C569 C542 1.389 . S
C570 C545 1.395 . S
C570 C547 1.391 . S
H571 C531 0.951 . S
H572 C532 0.950 . S
H573 C538 0.949 . S
H574 C539 0.950 . S
H575 C543 0.951 . S
H576 C544 0.950 . S
H577 C548 0.949 . S
H578 C549 0.950 . S
H579 C553 0.950 . S
H580 C555 0.950 . S
H581 C558 0.950 . S
H582 C560 0.950 . S
C583 C584 1.443 . S
C583 N587 1.376 . S
C583 C621 1.389 . S
C584 C583 1.443 . S
C584 C585 1.340 . S
C584 H624 0.951 . S
C585 C584 1.340 . S
C585 C586 1.439 . S
C585 H625 0.950 . S
C586 C585 1.439 . S
C586 N587 1.374 . S
C586 C620 1.395 . S
N587 C583 1.376 . S
N587 C586 1.374 . S
N587 Co588 2.008 . S
Co588 N587 2.008 . S
Co588 N589 1.995 . S
Co588 N594 2.008 . S
Co588 N599 1.995 . S
Co588 N604 2.282 . S
Co588 N610 2.282 . S
N589 Co588 1.995 . S
N589 C590 1.376 . S
N589 C593 1.383 . S
C590 N589 1.376 . S
C590 C591 1.446 . S
C590 C620 1.391 . S
C591 C590 1.446 . S
C591 C592 1.339 . S
C591 H626 0.949 . S
C592 C591 1.339 . S
C592 C593 1.439 . S
C592 H627 0.950 . S
C593 N589 1.383 . S
C593 C592 1.439 . S
C593 C622 1.392 . S
N594 Co588 2.008 . S
N594 C595 1.376 . S
N594 C598 1.374 . S
C595 N594 1.376 . S
C595 C596 1.443 . S
C595 C622 1.389 . S
C596 C595 1.443 . S
C596 C597 1.340 . S
C596 H628 0.951 . S
C597 C596 1.340 . S
C597 C598 1.439 . S
C597 H629 0.950 . S
C598 N594 1.374 . S
C598 C597 1.439 . S
C598 C623 1.395 . S
N599 Co588 1.995 . S
N599 C600 1.376 . S
N599 C603 1.383 . S
C600 N599 1.376 . S
C600 C601 1.446 . S
C600 C623 1.391 . S
C601 C600 1.446 . S
C601 C602 1.339 . S
C601 H630 0.949 . S
C602 C601 1.339 . S
C602 C603 1.439 . S
C602 H631 0.950 . S
C603 N599 1.383 . S
C603 C602 1.439 . S
C603 C621 1.392 . S
N604 Co588 2.282 . S
N604 C607 1.332 . S
N604 C609 1.332 . S
C605 C606 1.386 . S
C605 C608 1.388 . S
C606 C605 1.386 . S
C606 C607 1.382 . S
C606 H632 0.950 . S
C607 N604 1.332 . S
C607 C606 1.382 . S
C607 H618 0.952 . S
C608 C605 1.388 . S
C608 C609 1.382 . S
C608 H633 0.950 . S
C609 N604 1.332 . S
C609 C608 1.382 . S
C609 H619 0.948 . S
N610 Co588 2.282 . S
N610 C614 1.332 . S
N610 C615 1.332 . S
C611 C612 1.388 . S
C611 C615 1.382 . S
C611 H634 0.950 . S
C612 C611 1.388 . S
C612 C613 1.386 . S
C613 C612 1.386 . S
C613 C614 1.382 . S
C613 H635 0.950 . S
C614 N610 1.332 . S
C614 C613 1.382 . S
C614 H616 0.952 . S
C615 N610 1.332 . S
C615 C611 1.382 . S
C615 H617 0.948 . S
H616 C614 0.952 . S
H617 C615 0.948 . S
H618 C607 0.952 . S
H619 C609 0.948 . S
C620 C586 1.395 . S
C620 C590 1.391 . S
C621 C583 1.389 . S
C621 C603 1.392 . S
C622 C593 1.392 . S
C622 C595 1.389 . S
C623 C598 1.395 . S
C623 C600 1.391 . S
H624 C584 0.951 . S
H625 C585 0.950 . S
H626 C591 0.949 . S
H627 C592 0.950 . S
H628 C596 0.951 . S
H629 C597 0.950 . S
H630 C601 0.949 . S
H631 C602 0.950 . S
H632 C606 0.950 . S
H633 C608 0.950 . S
H634 C611 0.950 . S
H635 C613 0.950 . S
C636 C637 1.443 . S
C636 N640 1.376 . S
C636 C674 1.389 . S
C637 C636 1.443 . S
C637 C638 1.340 . S
C637 H677 0.951 . S
C638 C637 1.340 . S
C638 C639 1.439 . S
C638 H678 0.950 . S
C639 C638 1.439 . S
C639 N640 1.374 . S
C639 C673 1.395 . S
N640 C636 1.376 . S
N640 C639 1.374 . S
N640 Co641 2.008 . S
Co641 N640 2.008 . S
Co641 N642 1.995 . S
Co641 N647 2.008 . S
Co641 N652 1.995 . S
Co641 N657 2.282 . S
Co641 N663 2.282 . S
N642 Co641 1.995 . S
N642 C643 1.376 . S
N642 C646 1.383 . S
C643 N642 1.376 . S
C643 C644 1.446 . S
C643 C673 1.391 . S
C644 C643 1.446 . S
C644 C645 1.339 . S
C644 H679 0.949 . S
C645 C644 1.339 . S
C645 C646 1.439 . S
C645 H680 0.950 . S
C646 N642 1.383 . S
C646 C645 1.439 . S
C646 C675 1.392 . S
N647 Co641 2.008 . S
N647 C648 1.376 . S
N647 C651 1.374 . S
C648 N647 1.376 . S
C648 C649 1.443 . S
C648 C675 1.389 . S
C649 C648 1.443 . S
C649 C650 1.340 . S
C649 H681 0.951 . S
C650 C649 1.340 . S
C650 C651 1.439 . S
C650 H682 0.950 . S
C651 N647 1.374 . S
C651 C650 1.439 . S
C651 C676 1.395 . S
N652 Co641 1.995 . S
N652 C653 1.376 . S
N652 C656 1.383 . S
C653 N652 1.376 . S
C653 C654 1.446 . S
C653 C676 1.391 . S
C654 C653 1.446 . S
C654 C655 1.339 . S
C654 H683 0.949 . S
C655 C654 1.339 . S
C655 C656 1.439 . S
C655 H684 0.950 . S
C656 N652 1.383 . S
C656 C655 1.439 . S
C656 C674 1.392 . S
N657 Co641 2.282 . S
N657 C660 1.332 . S
N657 C662 1.332 . S
C658 C659 1.386 . S
C658 C661 1.388 . S
C659 C658 1.386 . S
C659 C660 1.382 . S
C659 H685 0.950 . S
C660 N657 1.332 . S
C660 C659 1.382 . S
C660 H671 0.952 . S
C661 C658 1.388 . S
C661 C662 1.382 . S
C661 H686 0.950 . S
C662 N657 1.332 . S
C662 C661 1.382 . S
C662 H672 0.948 . S
N663 Co641 2.282 . S
N663 C667 1.332 . S
N663 C668 1.332 . S
C664 C665 1.388 . S
C664 C668 1.382 . S
C664 H687 0.950 . S
C665 C664 1.388 . S
C665 C666 1.386 . S
C666 C665 1.386 . S
C666 C667 1.382 . S
C666 H688 0.950 . S
C667 N663 1.332 . S
C667 C666 1.382 . S
C667 H669 0.952 . S
C668 N663 1.332 . S
C668 C664 1.382 . S
C668 H670 0.948 . S
H669 C667 0.952 . S
H670 C668 0.948 . S
H671 C660 0.952 . S
H672 C662 0.948 . S
C673 C639 1.395 . S
C673 C643 1.391 . S
C674 C636 1.389 . S
C674 C656 1.392 . S
C675 C646 1.392 . S
C675 C648 1.389 . S
C676 C651 1.395 . S
C676 C653 1.391 . S
H677 C637 0.951 . S
H678 C638 0.950 . S
H679 C644 0.949 . S
H680 C645 0.950 . S
H681 C649 0.951 . S
H682 C650 0.950 . S
H683 C654 0.949 . S
H684 C655 0.950 . S
H685 C659 0.950 . S
H686 C661 0.950 . S
H687 C664 0.950 . S
H688 C666 0.950 . S
C689 C690 1.443 . S
C689 N693 1.376 . S
C689 C727 1.389 . S
C690 C689 1.443 . S
C690 C691 1.340 . S
C690 H730 0.951 . S
C691 C690 1.340 . S
C691 C692 1.439 . S
C691 H731 0.950 . S
C692 C691 1.439 . S
C692 N693 1.374 . S
C692 C726 1.395 . S
N693 C689 1.376 . S
N693 C692 1.374 . S
N693 Co694 2.008 . S
Co694 N693 2.008 . S
Co694 N695 1.995 . S
Co694 N700 2.008 . S
Co694 N705 1.995 . S
Co694 N710 2.282 . S
Co694 N716 2.282 . S
N695 Co694 1.995 . S
N695 C696 1.376 . S
N695 C699 1.383 . S
C696 N695 1.376 . S
C696 C697 1.446 . S
C696 C726 1.391 . S
C697 C696 1.446 . S
C697 C698 1.339 . S
C697 H732 0.949 . S
C698 C697 1.339 . S
C698 C699 1.439 . S
C698 H733 0.950 . S
C699 N695 1.383 . S
C699 C698 1.439 . S
C699 C728 1.392 . S
N700 Co694 2.008 . S
N700 C701 1.376 . S
N700 C704 1.374 . S
C701 N700 1.376 . S
C701 C702 1.443 . S
C701 C728 1.389 . S
C702 C701 1.443 . S
C702 C703 1.340 . S
C702 H734 0.951 . S
C703 C702 1.340 . S
C703 C704 1.439 . S
C703 H735 0.950 . S
C704 N700 1.374 . S
C704 C703 1.439 . S
C704 C729 1.395 . S
N705 Co694 1.995 . S
N705 C706 1.376 . S
N705 C709 1.383 . S
C706 N705 1.376 . S
C706 C707 1.446 . S
C706 C729 1.391 . S
C707 C706 1.446 . S
C707 C708 1.339 . S
C707 H736 0.949 . S
C708 C707 1.339 . S
C708 C709 1.439 . S
C708 H737 0.950 . S
C709 N705 1.383 . S
C709 C708 1.439 . S
C709 C727 1.392 . S
N710 Co694 2.282 . S
N710 C713 1.332 . S
N710 C715 1.332 . S
C711 C712 1.386 . S
C711 C714 1.388 . S
C712 C711 1.386 . S
C712 C713 1.382 . S
C712 H738 0.950 . S
C713 N710 1.332 . S
C713 C712 1.382 . S
C713 H724 0.952 . S
C714 C711 1.388 . S
C714 C715 1.382 . S
C714 H739 0.950 . S
C715 N710 1.332 . S
C715 C714 1.382 . S
C715 H725 0.948 . S
N716 Co694 2.282 . S
N716 C720 1.332 . S
N716 C721 1.332 . S
C717 C718 1.388 . S
C717 C721 1.382 . S
C717 H740 0.950 . S
C718 C717 1.388 . S
C718 C719 1.386 . S
C719 C718 1.386 . S
C719 C720 1.382 . S
C719 H741 0.950 . S
C720 N716 1.332 . S
C720 C719 1.382 . S
C720 H722 0.952 . S
C721 N716 1.332 . S
C721 C717 1.382 . S
C721 H723 0.948 . S
H722 C720 0.952 . S
H723 C721 0.948 . S
H724 C713 0.952 . S
H725 C715 0.948 . S
C726 C692 1.395 . S
C726 C696 1.391 . S
C727 C689 1.389 . S
C727 C709 1.392 . S
C728 C699 1.392 . S
C728 C701 1.389 . S
C729 C704 1.395 . S
C729 C706 1.391 . S
H730 C690 0.951 . S
H731 C691 0.950 . S
H732 C697 0.949 . S
H733 C698 0.950 . S
H734 C702 0.951 . S
H735 C703 0.950 . S
H736 C707 0.949 . S
H737 C708 0.950 . S
H738 C712 0.950 . S
H739 C714 0.950 . S
H740 C717 0.950 . S
H741 C719 0.950 . S
C742 C743 1.443 . S
C742 N746 1.376 . S
C742 C780 1.389 . S
C743 C742 1.443 . S
C743 C744 1.340 . S
C743 H783 0.951 . S
C744 C743 1.340 . S
C744 C745 1.439 . S
C744 H784 0.950 . S
C745 C744 1.439 . S
C745 N746 1.374 . S
C745 C779 1.395 . S
N746 C742 1.376 . S
N746 C745 1.374 . S
N746 Co747 2.008 . S
Co747 N746 2.008 . S
Co747 N748 1.995 . S
Co747 N753 2.008 . S
Co747 N758 1.995 . S
Co747 N763 2.282 . S
Co747 N769 2.282 . S
N748 Co747 1.995 . S
N748 C749 1.376 . S
N748 C752 1.383 . S
C749 N748 1.376 . S
C749 C750 1.446 . S
C749 C779 1.391 . S
C750 C749 1.446 . S
C750 C751 1.339 . S
C750 H785 0.949 . S
C751 C750 1.339 . S
C751 C752 1.439 . S
C751 H786 0.950 . S
C752 N748 1.383 . S
C752 C751 1.439 . S
C752 C781 1.392 . S
N753 Co747 2.008 . S
N753 C754 1.376 . S
N753 C757 1.374 . S
C754 N753 1.376 . S
C754 C755 1.443 . S
C754 C781 1.389 . S
C755 C754 1.443 . S
C755 C756 1.340 . S
C755 H787 0.951 . S
C756 C755 1.340 . S
C756 C757 1.439 . S
C756 H788 0.950 . S
C757 N753 1.374 . S
C757 C756 1.439 . S
C757 C782 1.395 . S
N758 Co747 1.995 . S
N758 C759 1.376 . S
N758 C762 1.383 . S
C759 N758 1.376 . S
C759 C760 1.446 . S
C759 C782 1.391 . S
C760 C759 1.446 . S
C760 C761 1.339 . S
C760 H789 0.949 . S
C761 C760 1.339 . S
C761 C762 1.439 . S
C761 H790 0.950 . S
C762 N758 1.383 . S
C762 C761 1.439 . S
C762 C780 1.392 . S
N763 Co747 2.282 . S
N763 C766 1.332 . S
N763 C768 1.332 . S
C764 C765 1.386 . S
C764 C767 1.388 . S
C765 C764 1.386 . S
C765 C766 1.382 . S
C765 H791 0.950 . S
C766 N763 1.332 . S
C766 C765 1.382 . S
C766 H777 0.952 . S
C767 C764 1.388 . S
C767 C768 1.382 . S
C767 H792 0.950 . S
C768 N763 1.332 . S
C768 C767 1.382 . S
C768 H778 0.948 . S
N769 Co747 2.282 . S
N769 C773 1.332 . S
N769 C774 1.332 . S
C770 C771 1.388 . S
C770 C774 1.382 . S
C770 H793 0.950 . S
C771 C770 1.388 . S
C771 C772 1.386 . S
C772 C771 1.386 . S
C772 C773 1.382 . S
C772 H794 0.950 . S
C773 N769 1.332 . S
C773 C772 1.382 . S
C773 H775 0.952 . S
C774 N769 1.332 . S
C774 C770 1.382 . S
C774 H776 0.948 . S
H775 C773 0.952 . S
H776 C774 0.948 . S
H777 C766 0.952 . S
H778 C768 0.948 . S
C779 C745 1.395 . S
C779 C749 1.391 . S
C780 C742 1.389 . S
C780 C762 1.392 . S
C781 C752 1.392 . S
C781 C754 1.389 . S
C782 C757 1.395 . S
C782 C759 1.391 . S
H783 C743 0.951 . S
H784 C744 0.950 . S
H785 C750 0.949 . S
H786 C751 0.950 . S
H787 C755 0.951 . S
H788 C756 0.950 . S
H789 C760 0.949 . S
H790 C761 0.950 . S
H791 C765 0.950 . S
H792 C767 0.950 . S
H793 C770 0.950 . S
H794 C772 0.950 . S
C795 C796 1.443 . S
C795 N799 1.376 . S
C795 C833 1.389 . S
C796 C795 1.443 . S
C796 C797 1.340 . S
C796 H836 0.951 . S
C797 C796 1.340 . S
C797 C798 1.439 . S
C797 H837 0.950 . S
C798 C797 1.439 . S
C798 N799 1.374 . S
C798 C832 1.395 . S
N799 C795 1.376 . S
N799 C798 1.374 . S
N799 Co800 2.008 . S
Co800 N799 2.008 . S
Co800 N801 1.995 . S
Co800 N806 2.008 . S
Co800 N811 1.995 . S
Co800 N816 2.282 . S
Co800 N822 2.282 . S
N801 Co800 1.995 . S
N801 C802 1.376 . S
N801 C805 1.383 . S
C802 N801 1.376 . S
C802 C803 1.446 . S
C802 C832 1.391 . S
C803 C802 1.446 . S
C803 C804 1.339 . S
C803 H838 0.949 . S
C804 C803 1.339 . S
C804 C805 1.439 . S
C804 H839 0.950 . S
C805 N801 1.383 . S
C805 C804 1.439 . S
C805 C834 1.392 . S
N806 Co800 2.008 . S
N806 C807 1.376 . S
N806 C810 1.374 . S
C807 N806 1.376 . S
C807 C808 1.443 . S
C807 C834 1.389 . S
C808 C807 1.443 . S
C808 C809 1.340 . S
C808 H840 0.951 . S
C809 C808 1.340 . S
C809 C810 1.439 . S
C809 H841 0.950 . S
C810 N806 1.374 . S
C810 C809 1.439 . S
C810 C835 1.395 . S
N811 Co800 1.995 . S
N811 C812 1.376 . S
N811 C815 1.383 . S
C812 N811 1.376 . S
C812 C813 1.446 . S
C812 C835 1.391 . S
C813 C812 1.446 . S
C813 C814 1.339 . S
C813 H842 0.949 . S
C814 C813 1.339 . S
C814 C815 1.439 . S
C814 H843 0.950 . S
C815 N811 1.383 . S
C815 C814 1.439 . S
C815 C833 1.392 . S
N816 Co800 2.282 . S
N816 C819 1.332 . S
N816 C821 1.332 . S
C817 C818 1.386 . S
C817 C820 1.388 . S
C818 C817 1.386 . S
C818 C819 1.382 . S
C818 H844 0.950 . S
C819 N816 1.332 . S
C819 C818 1.382 . S
C819 H830 0.952 . S
C820 C817 1.388 . S
C820 C821 1.382 . S
C820 H845 0.950 . S
C821 N816 1.332 . S
C821 C820 1.382 . S
C821 H831 0.948 . S
N822 Co800 2.282 . S
N822 C826 1.332 . S
N822 C827 1.332 . S
C823 C824 1.388 . S
C823 C827 1.382 . S
C823 H846 0.950 . S
C824 C823 1.388 . S
C824 C825 1.386 . S
C825 C824 1.386 . S
C825 C826 1.382 . S
C825 H847 0.950 . S
C826 N822 1.332 . S
C826 C825 1.382 . S
C826 H828 0.952 . S
C827 N822 1.332 . S
C827 C823 1.382 . S
C827 H829 0.948 . S
H828 C826 0.952 . S
H829 C827 0.948 . S
H830 C819 0.952 . S
H831 C821 0.948 . S
C832 C798 1.395 . S
C832 C802 1.391 . S
C833 C795 1.389 . S
C833 C815 1.392 . S
C834 C805 1.392 . S
C834 C807 1.389 . S
C835 C810 1.395 . S
C835 C812 1.391 . S
H836 C796 0.951 . S
H837 C797 0.950 . S
H838 C803 0.949 . S
H839 C804 0.950 . S
H840 C808 0.951 . S
H841 C809 0.950 . S
H842 C813 0.949 . S
H843 C814 0.950 . S
H844 C818 0.950 . S
H845 C820 0.950 . S
H846 C823 0.950 . S
H847 C825 0.950 . S
C848 C849 1.443 . S
C848 N852 1.376 . S
C848 C886 1.389 . S
C849 C848 1.443 . S
C849 C850 1.340 . S
C849 H889 0.951 . S
C850 C849 1.340 . S
C850 C851 1.439 . S
C850 H890 0.950 . S
C851 C850 1.439 . S
C851 N852 1.374 . S
C851 C885 1.395 . S
N852 C848 1.376 . S
N852 C851 1.374 . S
N852 Co853 2.008 . S
Co853 N852 2.008 . S
Co853 N854 1.995 . S
Co853 N859 2.008 . S
Co853 N864 1.995 . S
Co853 N869 2.282 . S
Co853 N875 2.282 . S
N854 Co853 1.995 . S
N854 C855 1.376 . S
N854 C858 1.383 . S
C855 N854 1.376 . S
C855 C856 1.446 . S
C855 C885 1.391 . S
C856 C855 1.446 . S
C856 C857 1.339 . S
C856 H891 0.949 . S
C857 C856 1.339 . S
C857 C858 1.439 . S
C857 H892 0.950 . S
C858 N854 1.383 . S
C858 C857 1.439 . S
C858 C887 1.392 . S
N859 Co853 2.008 . S
N859 C860 1.376 . S
N859 C863 1.374 . S
C860 N859 1.376 . S
C860 C861 1.443 . S
C860 C887 1.389 . S
C861 C860 1.443 . S
C861 C862 1.340 . S
C861 H893 0.951 . S
C862 C861 1.340 . S
C862 C863 1.439 . S
C862 H894 0.950 . S
C863 N859 1.374 . S
C863 C862 1.439 . S
C863 C888 1.395 . S
N864 Co853 1.995 . S
N864 C865 1.376 . S
N864 C868 1.383 . S
C865 N864 1.376 . S
C865 C866 1.446 . S
C865 C888 1.391 . S
C866 C865 1.446 . S
C866 C867 1.339 . S
C866 H895 0.949 . S
C867 C866 1.339 . S
C867 C868 1.439 . S
C867 H896 0.950 . S
C868 N864 1.383 . S
C868 C867 1.439 . S
C868 C886 1.392 . S
N869 Co853 2.282 . S
N869 C872 1.332 . S
N869 C874 1.332 . S
C870 C871 1.386 . S
C870 C873 1.388 . S
C871 C870 1.386 . S
C871 C872 1.382 . S
C871 H897 0.950 . S
C872 N869 1.332 . S
C872 C871 1.382 . S
C872 H883 0.952 . S
C873 C870 1.388 . S
C873 C874 1.382 . S
C873 H898 0.950 . S
C874 N869 1.332 . S
C874 C873 1.382 . S
C874 H884 0.948 . S
N875 Co853 2.282 . S
N875 C879 1.332 . S
N875 C880 1.332 . S
C876 C877 1.388 . S
C876 C880 1.382 . S
C876 H899 0.950 . S
C877 C876 1.388 . S
C877 C878 1.386 . S
C878 C877 1.386 . S
C878 C879 1.382 . S
C878 H900 0.950 . S
C879 N875 1.332 . S
C879 C878 1.382 . S
C879 H881 0.952 . S
C880 N875 1.332 . S
C880 C876 1.382 . S
C880 H882 0.948 . S
H881 C879 0.952 . S
H882 C880 0.948 . S
H883 C872 0.952 . S
H884 C874 0.948 . S
C885 C851 1.395 . S
C885 C855 1.391 . S
C886 C848 1.389 . S
C886 C868 1.392 . S
C887 C858 1.392 . S
C887 C860 1.389 . S
C888 C863 1.395 . S
C888 C865 1.391 . S
H889 C849 0.951 . S
H890 C850 0.950 . S
H891 C856 0.949 . S
H892 C857 0.950 . S
H893 C861 0.951 . S
H894 C862 0.950 . S
H895 C866 0.949 . S
H896 C867 0.950 . S
H897 C871 0.950 . S
H898 C873 0.950 . S
H899 C876 0.950 . S
H900 C878 0.950 . S
C901 C902 1.443 . S
C901 N905 1.376 . S
C901 C939 1.389 . S
C902 C901 1.443 . S
C902 C903 1.340 . S
C902 H942 0.951 . S
C903 C902 1.340 . S
C903 C904 1.439 . S
C903 H943 0.950 . S
C904 C903 1.439 . S
C904 N905 1.374 . S
C904 C938 1.395 . S
N905 C901 1.376 . S
N905 C904 1.374 . S
N905 Co906 2.008 . S
Co906 N905 2.008 . S
Co906 N907 1.995 . S
Co906 N912 2.008 . S
Co906 N917 1.995 . S
Co906 N922 2.282 . S
Co906 N928 2.282 . S
N907 Co906 1.995 . S
N907 C908 1.376 . S
N907 C911 1.383 . S
C908 N907 1.376 . S
C908 C909 1.446 . S
C908 C938 1.391 . S
C909 C908 1.446 . S
C909 C910 1.339 . S
C909 H944 0.949 . S
C910 C909 1.339 . S
C910 C911 1.439 . S
C910 H945 0.950 . S
C911 N907 1.383 . S
C911 C910 1.439 . S
C911 C940 1.392 . S
N912 Co906 2.008 . S
N912 C913 1.376 . S
N912 C916 1.374 . S
C913 N912 1.376 . S
C913 C914 1.443 . S
C913 C940 1.389 . S
C914 C913 1.443 . S
C914 C915 1.340 . S
C914 H946 0.951 . S
C915 C914 1.340 . S
C915 C916 1.439 . S
C915 H947 0.950 . S
C916 N912 1.374 . S
C916 C915 1.439 . S
C916 C941 1.395 . S
N917 Co906 1.995 . S
N917 C918 1.376 . S
N917 C921 1.383 . S
C918 N917 1.376 . S
C918 C919 1.446 . S
C918 C941 1.391 . S
C919 C918 1.446 . S
C919 C920 1.339 . S
C919 H948 0.949 . S
C920 C919 1.339 . S
C920 C921 1.439 . S
C920 H949 0.950 . S
C921 N917 1.383 . S
C921 C920 1.439 . S
C921 C939 1.392 . S
N922 Co906 2.282 . S
N922 C925 1.332 . S
N922 C927 1.332 . S
C923 C924 1.386 . S
C923 C926 1.388 . S
C924 C923 1.386 . S
C924 C925 1.382 . S
C924 H950 0.950 . S
C925 N922 1.332 . S
C925 C924 1.382 . S
C925 H936 0.952 . S
C926 C923 1.388 . S
C926 C927 1.382 . S
C926 H951 0.950 . S
C927 N922 1.332 . S
C927 C926 1.382 . S
C927 H937 0.948 . S
N928 Co906 2.282 . S
N928 C932 1.332 . S
N928 C933 1.332 . S
C929 C930 1.388 . S
C929 C933 1.382 . S
C929 H952 0.950 . S
C930 C929 1.388 . S
C930 C931 1.386 . S
C931 C930 1.386 . S
C931 C932 1.382 . S
C931 H953 0.950 . S
C932 N928 1.332 . S
C932 C931 1.382 . S
C932 H934 0.952 . S
C933 N928 1.332 . S
C933 C929 1.382 . S
C933 H935 0.948 . S
H934 C932 0.952 . S
H935 C933 0.948 . S
H936 C925 0.952 . S
H937 C927 0.948 . S
C938 C904 1.395 . S
C938 C908 1.391 . S
C939 C901 1.389 . S
C939 C921 1.392 . S
C940 C911 1.392 . S
C940 C913 1.389 . S
C941 C916 1.395 . S
C941 C918 1.391 . S
H942 C902 0.951 . S
H943 C903 0.950 . S
H944 C909 0.949 . S
H945 C910 0.950 . S
H946 C914 0.951 . S
H947 C915 0.950 . S
H948 C919 0.949 . S
H949 C920 0.950 . S
H950 C924 0.950 . S
H951 C926 0.950 . S
H952 C929 0.950 . S
H953 C931 0.950 . S
C954 C955 1.443 . S
C954 N958 1.376 . S
C954 C992 1.389 . S
C955 C954 1.443 . S
C955 C956 1.340 . S
C955 H995 0.951 . S
C956 C955 1.340 . S
C956 C957 1.439 . S
C956 H996 0.950 . S
C957 C956 1.439 . S
C957 N958 1.374 . S
C957 C991 1.395 . S
N958 C954 1.376 . S
N958 C957 1.374 . S
N958 Co959 2.008 . S
Co959 N958 2.008 . S
Co959 N960 1.995 . S
Co959 N965 2.008 . S
Co959 N970 1.995 . S
Co959 N975 2.282 . S
Co959 N981 2.282 . S
N960 Co959 1.995 . S
N960 C961 1.376 . S
N960 C964 1.383 . S
C961 N960 1.376 . S
C961 C962 1.446 . S
C961 C991 1.391 . S
C962 C961 1.446 . S
C962 C963 1.339 . S
C962 H997 0.949 . S
C963 C962 1.339 . S
C963 C964 1.439 . S
C963 H998 0.950 . S
C964 N960 1.383 . S
C964 C963 1.439 . S
C964 C993 1.392 . S
N965 Co959 2.008 . S
N965 C966 1.376 . S
N965 C969 1.374 . S
C966 N965 1.376 . S
C966 C967 1.443 . S
C966 C993 1.389 . S
C967 C966 1.443 . S
C967 C968 1.340 . S
C967 H999 0.951 . S
C968 C967 1.340 . S
C968 C969 1.439 . S
C968 H1000 0.950 . S
C969 N965 1.374 . S
C969 C968 1.439 . S
C969 C994 1.395 . S
N970 Co959 1.995 . S
N970 C971 1.376 . S
N970 C974 1.383 . S
C971 N970 1.376 . S
C971 C972 1.446 . S
C971 C994 1.391 . S
C972 C971 1.446 . S
C972 C973 1.339 . S
C972 H1001 0.949 . S
C973 C972 1.339 . S
C973 C974 1.439 . S
C973 H1002 0.950 . S
C974 N970 1.383 . S
C974 C973 1.439 . S
C974 C992 1.392 . S
N975 Co959 2.282 . S
N975 C978 1.332 . S
N975 C980 1.332 . S
C976 C977 1.386 . S
C976 C979 1.388 . S
C977 C976 1.386 . S
C977 C978 1.382 . S
C977 H1003 0.950 . S
C978 N975 1.332 . S
C978 C977 1.382 . S
C978 H989 0.952 . S
C979 C976 1.388 . S
C979 C980 1.382 . S
C979 H1004 0.950 . S
C980 N975 1.332 . S
C980 C979 1.382 . S
C980 H990 0.948 . S
N981 Co959 2.282 . S
N981 C985 1.332 . S
N981 C986 1.332 . S
C982 C983 1.388 . S
C982 C986 1.382 . S
C982 H1005 0.950 . S
C983 C982 1.388 . S
C983 C984 1.386 . S
C984 C983 1.386 . S
C984 C985 1.382 . S
C984 H1006 0.950 . S
C985 N981 1.332 . S
C985 C984 1.382 . S
C985 H987 0.952 . S
C986 N981 1.332 . S
C986 C982 1.382 . S
C986 H988 0.948 . S
H987 C985 0.952 . S
H988 C986 0.948 . S
H989 C978 0.952 . S
H990 C980 0.948 . S
C991 C957 1.395 . S
C991 C961 1.391 . S
C992 C954 1.389 . S
C992 C974 1.392 . S
C993 C964 1.392 . S
C993 C966 1.389 . S
C994 C969 1.395 . S
C994 C971 1.391 . S
H995 C955 0.951 . S
H996 C956 0.950 . S
H997 C962 0.949 . S
H998 C963 0.950 . S
H999 C967 0.951 . S
H1000 C968 0.950 . S
H1001 C972 0.949 . S
H1002 C973 0.950 . S
H1003 C977 0.950 . S
H1004 C979 0.950 . S
H1005 C982 0.950 . S
H1006 C984 0.950 . S
C1007 C1008 1.443 . S
C1007 N1011 1.376 . S
C1007 C1045 1.389 . S
C1008 C1007 1.443 . S
C1008 C1009 1.340 . S
C1008 H1048 0.951 . S
C1009 C1008 1.340 . S
C1009 C1010 1.439 . S
C1009 H1049 0.950 . S
C1010 C1009 1.439 . S
C1010 N1011 1.374 . S
C1010 C1044 1.395 . S
N1011 C1007 1.376 . S
N1011 C1010 1.374 . S
N1011 Co1012 2.008 . S
Co1012 N1011 2.008 . S
Co1012 N1013 1.995 . S
Co1012 N1018 2.008 . S
Co1012 N1023 1.995 . S
Co1012 N1028 2.282 . S
Co1012 N1034 2.282 . S
N1013 Co1012 1.995 . S
N1013 C1014 1.376 . S
N1013 C1017 1.383 . S
C1014 N1013 1.376 . S
C1014 C1015 1.446 . S
C1014 C1044 1.391 . S
C1015 C1014 1.446 . S
C1015 C1016 1.339 . S
C1015 H1050 0.949 . S
C1016 C1015 1.339 . S
C1016 C1017 1.439 . S
C1016 H1051 0.950 . S
C1017 N1013 1.383 . S
C1017 C1016 1.439 . S
C1017 C1046 1.392 . S
N1018 Co1012 2.008 . S
N1018 C1019 1.376 . S
N1018 C1022 1.374 . S
C1019 N1018 1.376 . S
C1019 C1020 1.443 . S
C1019 C1046 1.389 . S
C1020 C1019 1.443 . S
C1020 C1021 1.340 . S
C1020 H1052 0.951 . S
C1021 C1020 1.340 . S
C1021 C1022 1.439 . S
C1021 H1053 0.950 . S
C1022 N1018 1.374 . S
C1022 C1021 1.439 . S
C1022 C1047 1.395 . S
N1023 Co1012 1.995 . S
N1023 C1024 1.376 . S
N1023 C1027 1.383 . S
C1024 N1023 1.376 . S
C1024 C1025 1.446 . S
C1024 C1047 1.391 . S
C1025 C1024 1.446 . S
C1025 C1026 1.339 . S
C1025 H1054 0.949 . S
C1026 C1025 1.339 . S
C1026 C1027 1.439 . S
C1026 H1055 0.950 . S
C1027 N1023 1.383 . S
C1027 C1026 1.439 . S
C1027 C1045 1.392 . S
N1028 Co1012 2.282 . S
N1028 C1031 1.332 . S
N1028 C1033 1.332 . S
C1029 C1030 1.386 . S
C1029 C1032 1.388 . S
C1030 C1029 1.386 . S
C1030 C1031 1.382 . S
C1030 H1056 0.950 . S
C1031 N1028 1.332 . S
C1031 C1030 1.382 . S
C1031 H1042 0.952 . S
C1032 C1029 1.388 . S
C1032 C1033 1.382 . S
C1032 H1057 0.950 . S
C1033 N1028 1.332 . S
C1033 C1032 1.382 . S
C1033 H1043 0.948 . S
N1034 Co1012 2.282 . S
N1034 C1038 1.332 . S
N1034 C1039 1.332 . S
C1035 C1036 1.388 . S
C1035 C1039 1.382 . S
C1035 H1058 0.950 . S
C1036 C1035 1.388 . S
C1036 C1037 1.386 . S
C1037 C1036 1.386 . S
C1037 C1038 1.382 . S
C1037 H1059 0.950 . S
C1038 N1034 1.332 . S
C1038 C1037 1.382 . S
C1038 H1040 0.952 . S
C1039 N1034 1.332 . S
C1039 C1035 1.382 . S
C1039 H1041 0.948 . S
H1040 C1038 0.952 . S
H1041 C1039 0.948 . S
H1042 C1031 0.952 . S
H1043 C1033 0.948 . S
C1044 C1010 1.395 . S
C1044 C1014 1.391 . S
C1045 C1007 1.389 . S
C1045 C1027 1.392 . S
C1046 C1017 1.392 . S
C1046 C1019 1.389 . S
C1047 C1022 1.395 . S
C1047 C1024 1.391 . S
H1048 C1008 0.951 . S
H1049 C1009 0.950 . S
H1050 C1015 0.949 . S
H1051 C1016 0.950 . S
H1052 C1020 0.951 . S
H1053 C1021 0.950 . S
H1054 C1025 0.949 . S
H1055 C1026 0.950 . S
H1056 C1030 0.950 . S
H1057 C1032 0.950 . S
H1058 C1035 0.950 . S
H1059 C1037 0.950 . S
C1060 C1061 1.443 . S
C1060 N1064 1.376 . S
C1060 C1098 1.389 . S
C1061 C1060 1.443 . S
C1061 C1062 1.340 . S
C1061 H1101 0.951 . S
C1062 C1061 1.340 . S
C1062 C1063 1.439 . S
C1062 H1102 0.950 . S
C1063 C1062 1.439 . S
C1063 N1064 1.374 . S
C1063 C1097 1.395 . S
N1064 C1060 1.376 . S
N1064 C1063 1.374 . S
N1064 Co1065 2.008 . S
Co1065 N1064 2.008 . S
Co1065 N1066 1.995 . S
Co1065 N1071 2.008 . S
Co1065 N1076 1.995 . S
Co1065 N1081 2.282 . S
Co1065 N1087 2.282 . S
N1066 Co1065 1.995 . S
N1066 C1067 1.376 . S
N1066 C1070 1.383 . S
C1067 N1066 1.376 . S
C1067 C1068 1.446 . S
C1067 C1097 1.391 . S
C1068 C1067 1.446 . S
C1068 C1069 1.339 . S
C1068 H1103 0.949 . S
C1069 C1068 1.339 . S
C1069 C1070 1.439 . S
C1069 H1104 0.950 . S
C1070 N1066 1.383 . S
C1070 C1069 1.439 . S
C1070 C1099 1.392 . S
N1071 Co1065 2.008 . S
N1071 C1072 1.376 . S
N1071 C1075 1.374 . S
C1072 N1071 1.376 . S
C1072 C1073 1.443 . S
C1072 C1099 1.389 . S
C1073 C1072 1.443 . S
C1073 C1074 1.340 . S
C1073 H1105 0.951 . S
C1074 C1073 1.340 . S
C1074 C1075 1.439 . S
C1074 H1106 0.950 . S
C1075 N1071 1.374 . S
C1075 C1074 1.439 . S
C1075 C1100 1.395 . S
N1076 Co1065 1.995 . S
N1076 C1077 1.376 . S
N1076 C1080 1.383 . S
C1077 N1076 1.376 . S
C1077 C1078 1.446 . S
C1077 C1100 1.391 . S
C1078 C1077 1.446 . S
C1078 C1079 1.339 . S
C1078 H1107 0.949 . S
C1079 C1078 1.339 . S
C1079 C1080 1.439 . S
C1079 H1108 0.950 . S
C1080 N1076 1.383 . S
C1080 C1079 1.439 . S
C1080 C1098 1.392 . S
N1081 Co1065 2.282 . S
N1081 C1084 1.332 . S
N1081 C1086 1.332 . S
C1082 C1083 1.386 . S
C1082 C1085 1.388 . S
C1083 C1082 1.386 . S
C1083 C1084 1.382 . S
C1083 H1109 0.950 . S
C1084 N1081 1.332 . S
C1084 C1083 1.382 . S
C1084 H1095 0.952 . S
C1085 C1082 1.388 . S
C1085 C1086 1.382 . S
C1085 H1110 0.950 . S
C1086 N1081 1.332 . S
C1086 C1085 1.382 . S
C1086 H1096 0.948 . S
N1087 Co1065 2.282 . S
N1087 C1091 1.332 . S
N1087 C1092 1.332 . S
C1088 C1089 1.388 . S
C1088 C1092 1.382 . S
C1088 H1111 0.950 . S
C1089 C1088 1.388 . S
C1089 C1090 1.386 . S
C1090 C1089 1.386 . S
C1090 C1091 1.382 . S
C1090 H1112 0.950 . S
C1091 N1087 1.332 . S
C1091 C1090 1.382 . S
C1091 H1093 0.952 . S
C1092 N1087 1.332 . S
C1092 C1088 1.382 . S
C1092 H1094 0.948 . S
H1093 C1091 0.952 . S
H1094 C1092 0.948 . S
H1095 C1084 0.952 . S
H1096 C1086 0.948 . S
C1097 C1063 1.395 . S
C1097 C1067 1.391 . S
C1098 C1060 1.389 . S
C1098 C1080 1.392 . S
C1099 C1070 1.392 . S
C1099 C1072 1.389 . S
C1100 C1075 1.395 . S
C1100 C1077 1.391 . S
H1101 C1061 0.951 . S
H1102 C1062 0.950 . S
H1103 C1068 0.949 . S
H1104 C1069 0.950 . S
H1105 C1073 0.951 . S
H1106 C1074 0.950 . S
H1107 C1078 0.949 . S
H1108 C1079 0.950 . S
H1109 C1083 0.950 . S
H1110 C1085 0.950 . S
H1111 C1088 0.950 . S
H1112 C1090 0.950 . S
C1113 C1114 1.443 . S
C1113 N1117 1.376 . S
C1113 C1151 1.389 . S
C1114 C1113 1.443 . S
C1114 C1115 1.340 . S
C1114 H1154 0.951 . S
C1115 C1114 1.340 . S
C1115 C1116 1.439 . S
C1115 H1155 0.950 . S
C1116 C1115 1.439 . S
C1116 N1117 1.374 . S
C1116 C1150 1.395 . S
N1117 C1113 1.376 . S
N1117 C1116 1.374 . S
N1117 Co1118 2.008 . S
Co1118 N1117 2.008 . S
Co1118 N1119 1.995 . S
Co1118 N1124 2.008 . S
Co1118 N1129 1.995 . S
Co1118 N1134 2.282 . S
Co1118 N1140 2.282 . S
N1119 Co1118 1.995 . S
N1119 C1120 1.376 . S
N1119 C1123 1.383 . S
C1120 N1119 1.376 . S
C1120 C1121 1.446 . S
C1120 C1150 1.391 . S
C1121 C1120 1.446 . S
C1121 C1122 1.339 . S
C1121 H1156 0.949 . S
C1122 C1121 1.339 . S
C1122 C1123 1.439 . S
C1122 H1157 0.950 . S
C1123 N1119 1.383 . S
C1123 C1122 1.439 . S
C1123 C1152 1.392 . S
N1124 Co1118 2.008 . S
N1124 C1125 1.376 . S
N1124 C1128 1.374 . S
C1125 N1124 1.376 . S
C1125 C1126 1.443 . S
C1125 C1152 1.389 . S
C1126 C1125 1.443 . S
C1126 C1127 1.340 . S
C1126 H1158 0.951 . S
C1127 C1126 1.340 . S
C1127 C1128 1.439 . S
C1127 H1159 0.950 . S
C1128 N1124 1.374 . S
C1128 C1127 1.439 . S
C1128 C1153 1.395 . S
N1129 Co1118 1.995 . S
N1129 C1130 1.376 . S
N1129 C1133 1.383 . S
C1130 N1129 1.376 . S
C1130 C1131 1.446 . S
C1130 C1153 1.391 . S
C1131 C1130 1.446 . S
C1131 C1132 1.339 . S
C1131 H1160 0.949 . S
C1132 C1131 1.339 . S
C1132 C1133 1.439 . S
C1132 H1161 0.950 . S
C1133 N1129 1.383 . S
C1133 C1132 1.439 . S
C1133 C1151 1.392 . S
N1134 Co1118 2.282 . S
N1134 C1137 1.332 . S
N1134 C1139 1.332 . S
C1135 C1136 1.386 . S
C1135 C1138 1.388 . S
C1136 C1135 1.386 . S
C1136 C1137 1.382 . S
C1136 H1162 0.950 . S
C1137 N1134 1.332 . S
C1137 C1136 1.382 . S
C1137 H1148 0.952 . S
C1138 C1135 1.388 . S
C1138 C1139 1.382 . S
C1138 H1163 0.950 . S
C1139 N1134 1.332 . S
C1139 C1138 1.382 . S
C1139 H1149 0.948 . S
N1140 Co1118 2.282 . S
N1140 C1144 1.332 . S
N1140 C1145 1.332 . S
C1141 C1142 1.388 . S
C1141 C1145 1.382 . S
C1141 H1164 0.950 . S
C1142 C1141 1.388 . S
C1142 C1143 1.386 . S
C1143 C1142 1.386 . S
C1143 C1144 1.382 . S
C1143 H1165 0.950 . S
C1144 N1140 1.332 . S
C1144 C1143 1.382 . S
C1144 H1146 0.952 . S
C1145 N1140 1.332 . S
C1145 C1141 1.382 . S
C1145 H1147 0.948 . S
H1146 C1144 0.952 . S
H1147 C1145 0.948 . S
H1148 C1137 0.952 . S
H1149 C1139 0.948 . S
C1150 C1116 1.395 . S
C1150 C1120 1.391 . S
C1151 C1113 1.389 . S
C1151 C1133 1.392 . S
C1152 C1123 1.392 . S
C1152 C1125 1.389 . S
C1153 C1128 1.395 . S
C1153 C1130 1.391 . S
H1154 C1114 0.951 . S
H1155 C1115 0.950 . S
H1156 C1121 0.949 . S
H1157 C1122 0.950 . S
H1158 C1126 0.951 . S
H1159 C1127 0.950 . S
H1160 C1131 0.949 . S
H1161 C1132 0.950 . S
H1162 C1136 0.950 . S
H1163 C1138 0.950 . S
H1164 C1141 0.950 . S
H1165 C1143 0.950 . S
C1166 C1167 1.443 . S
C1166 N1170 1.376 . S
C1166 C1204 1.389 . S
C1167 C1166 1.443 . S
C1167 C1168 1.340 . S
C1167 H1207 0.951 . S
C1168 C1167 1.340 . S
C1168 C1169 1.439 . S
C1168 H1208 0.950 . S
C1169 C1168 1.439 . S
C1169 N1170 1.374 . S
C1169 C1203 1.395 . S
N1170 C1166 1.376 . S
N1170 C1169 1.374 . S
N1170 Co1171 2.008 . S
Co1171 N1170 2.008 . S
Co1171 N1172 1.995 . S
Co1171 N1177 2.008 . S
Co1171 N1182 1.995 . S
Co1171 N1187 2.282 . S
Co1171 N1193 2.282 . S
N1172 Co1171 1.995 . S
N1172 C1173 1.376 . S
N1172 C1176 1.383 . S
C1173 N1172 1.376 . S
C1173 C1174 1.446 . S
C1173 C1203 1.391 . S
C1174 C1173 1.446 . S
C1174 C1175 1.339 . S
C1174 H1209 0.949 . S
C1175 C1174 1.339 . S
C1175 C1176 1.439 . S
C1175 H1210 0.950 . S
C1176 N1172 1.383 . S
C1176 C1175 1.439 . S
C1176 C1205 1.392 . S
N1177 Co1171 2.008 . S
N1177 C1178 1.376 . S
N1177 C1181 1.374 . S
C1178 N1177 1.376 . S
C1178 C1179 1.443 . S
C1178 C1205 1.389 . S
C1179 C1178 1.443 . S
C1179 C1180 1.340 . S
C1179 H1211 0.951 . S
C1180 C1179 1.340 . S
C1180 C1181 1.439 . S
C1180 H1212 0.950 . S
C1181 N1177 1.374 . S
C1181 C1180 1.439 . S
C1181 C1206 1.395 . S
N1182 Co1171 1.995 . S
N1182 C1183 1.376 . S
N1182 C1186 1.383 . S
C1183 N1182 1.376 . S
C1183 C1184 1.446 . S
C1183 C1206 1.391 . S
C1184 C1183 1.446 . S
C1184 C1185 1.339 . S
C1184 H1213 0.949 . S
C1185 C1184 1.339 . S
C1185 C1186 1.439 . S
C1185 H1214 0.950 . S
C1186 N1182 1.383 . S
C1186 C1185 1.439 . S
C1186 C1204 1.392 . S
N1187 Co1171 2.282 . S
N1187 C1190 1.332 . S
N1187 C1192 1.332 . S
C1188 C1189 1.386 . S
C1188 C1191 1.388 . S
C1189 C1188 1.386 . S
C1189 C1190 1.382 . S
C1189 H1215 0.950 . S
C1190 N1187 1.332 . S
C1190 C1189 1.382 . S
C1190 H1201 0.952 . S
C1191 C1188 1.388 . S
C1191 C1192 1.382 . S
C1191 H1216 0.950 . S
C1192 N1187 1.332 . S
C1192 C1191 1.382 . S
C1192 H1202 0.948 . S
N1193 Co1171 2.282 . S
N1193 C1197 1.332 . S
N1193 C1198 1.332 . S
C1194 C1195 1.388 . S
C1194 C1198 1.382 . S
C1194 H1217 0.950 . S
C1195 C1194 1.388 . S
C1195 C1196 1.386 . S
C1196 C1195 1.386 . S
C1196 C1197 1.382 . S
C1196 H1218 0.950 . S
C1197 N1193 1.332 . S
C1197 C1196 1.382 . S
C1197 H1199 0.952 . S
C1198 N1193 1.332 . S
C1198 C1194 1.382 . S
C1198 H1200 0.948 . S
H1199 C1197 0.952 . S
H1200 C1198 0.948 . S
H1201 C1190 0.952 . S
H1202 C1192 0.948 . S
C1203 C1169 1.395 . S
C1203 C1173 1.391 . S
C1204 C1166 1.389 . S
C1204 C1186 1.392 . S
C1205 C1176 1.392 . S
C1205 C1178 1.389 . S
C1206 C1181 1.395 . S
C1206 C1183 1.391 . S
H1207 C1167 0.951 . S
H1208 C1168 0.950 . S
H1209 C1174 0.949 . S
H1210 C1175 0.950 . S
H1211 C1179 0.951 . S
H1212 C1180 0.950 . S
H1213 C1184 0.949 . S
H1214 C1185 0.950 . S
H1215 C1189 0.950 . S
H1216 C1191 0.950 . S
H1217 C1194 0.950 . S
H1218 C1196 0.950 . S
C1219 C1220 1.443 . S
C1219 N1223 1.376 . S
C1219 C1257 1.389 . S
C1220 C1219 1.443 . S
C1220 C1221 1.340 . S
C1220 H1260 0.951 . S
C1221 C1220 1.340 . S
C1221 C1222 1.439 . S
C1221 H1261 0.950 . S
C1222 C1221 1.439 . S
C1222 N1223 1.374 . S
C1222 C1256 1.395 . S
N1223 C1219 1.376 . S
N1223 C1222 1.374 . S
N1223 Co1224 2.008 . S
Co1224 N1223 2.008 . S
Co1224 N1225 1.995 . S
Co1224 N1230 2.008 . S
Co1224 N1235 1.995 . S
Co1224 N1240 2.282 . S
Co1224 N1246 2.282 . S
N1225 Co1224 1.995 . S
N1225 C1226 1.376 . S
N1225 C1229 1.383 . S
C1226 N1225 1.376 . S
C1226 C1227 1.446 . S
C1226 C1256 1.391 . S
C1227 C1226 1.446 . S
C1227 C1228 1.339 . S
C1227 H1262 0.949 . S
C1228 C1227 1.339 . S
C1228 C1229 1.439 . S
C1228 H1263 0.950 . S
C1229 N1225 1.383 . S
C1229 C1228 1.439 . S
C1229 C1258 1.392 . S
N1230 Co1224 2.008 . S
N1230 C1231 1.376 . S
N1230 C1234 1.374 . S
C1231 N1230 1.376 . S
C1231 C1232 1.443 . S
C1231 C1258 1.389 . S
C1232 C1231 1.443 . S
C1232 C1233 1.340 . S
C1232 H1264 0.951 . S
C1233 C1232 1.340 . S
C1233 C1234 1.439 . S
C1233 H1265 0.950 . S
C1234 N1230 1.374 . S
C1234 C1233 1.439 . S
C1234 C1259 1.395 . S
N1235 Co1224 1.995 . S
N1235 C1236 1.376 . S
N1235 C1239 1.383 . S
C1236 N1235 1.376 . S
C1236 C1237 1.446 . S
C1236 C1259 1.391 . S
C1237 C1236 1.446 . S
C1237 C1238 1.339 . S
C1237 H1266 0.949 . S
C1238 C1237 1.339 . S
C1238 C1239 1.439 . S
C1238 H1267 0.950 . S
C1239 N1235 1.383 . S
C1239 C1238 1.439 . S
C1239 C1257 1.392 . S
N1240 Co1224 2.282 . S
N1240 C1243 1.332 . S
N1240 C1245 1.332 . S
C1241 C1242 1.386 . S
C1241 C1244 1.388 . S
C1242 C1241 1.386 . S
C1242 C1243 1.382 . S
C1242 H1268 0.950 . S
C1243 N1240 1.332 . S
C1243 C1242 1.382 . S
C1243 H1254 0.952 . S
C1244 C1241 1.388 . S
C1244 C1245 1.382 . S
C1244 H1269 0.950 . S
C1245 N1240 1.332 . S
C1245 C1244 1.382 . S
C1245 H1255 0.948 . S
N1246 Co1224 2.282 . S
N1246 C1250 1.332 . S
N1246 C1251 1.332 . S
C1247 C1248 1.388 . S
C1247 C1251 1.382 . S
C1247 H1270 0.950 . S
C1248 C1247 1.388 . S
C1248 C1249 1.386 . S
C1249 C1248 1.386 . S
C1249 C1250 1.382 . S
C1249 H1271 0.950 . S
C1250 N1246 1.332 . S
C1250 C1249 1.382 . S
C1250 H1252 0.952 . S
C1251 N1246 1.332 . S
C1251 C1247 1.382 . S
C1251 H1253 0.948 . S
H1252 C1250 0.952 . S
H1253 C1251 0.948 . S
H1254 C1243 0.952 . S
H1255 C1245 0.948 . S
C1256 C1222 1.395 . S
C1256 C1226 1.391 . S
C1257 C1219 1.389 . S
C1257 C1239 1.392 . S
C1258 C1229 1.392 . S
C1258 C1231 1.389 . S
C1259 C1234 1.395 . S
C1259 C1236 1.391 . S
H1260 C1220 0.951 . S
H1261 C1221 0.950 . S
H1262 C1227 0.949 . S
H1263 C1228 0.950 . S
H1264 C1232 0.951 . S
H1265 C1233 0.950 . S
H1266 C1237 0.949 . S
H1267 C1238 0.950 . S
H1268 C1242 0.950 . S
H1269 C1244 0.950 . S
H1270 C1247 0.950 . S
H1271 C1249 0.950 . S
H1272 C1280 0.950 . S
H1273 C1285 0.950 . S
H1274 C1282 0.950 . S
H1275 C1284 0.950 . S
H1276 C1286 0.950 . S
H1277 C1288 0.950 . S
H1278 C1290 0.950 . S
H1279 C1291 0.950 . S
C1280 H1272 0.950 . S
C1280 C1281 1.386 . S
C1280 C1282 1.391 . S
C1281 C1280 1.386 . S
C1281 C1285 1.393 . S
C1282 H1274 0.950 . S
C1282 C1280 1.391 . S
C1282 C1283 1.400 . S
C1283 C1282 1.400 . S
C1283 C1284 1.398 . S
C1283 C1289 1.491 . S
C1284 H1275 0.950 . S
C1284 C1283 1.398 . S
C1284 C1285 1.391 . S
C1285 H1273 0.950 . S
C1285 C1281 1.393 . S
C1285 C1284 1.391 . S
C1286 H1276 0.950 . S
C1286 C1287 1.386 . S
C1286 C1288 1.391 . S
C1287 C1286 1.386 . S
C1287 C1291 1.393 . S
C1288 H1277 0.950 . S
C1288 C1286 1.391 . S
C1288 C1289 1.400 . S
C1289 C1283 1.491 . S
C1289 C1288 1.400 . S
C1289 C1290 1.398 . S
C1290 H1278 0.950 . S
C1290 C1289 1.398 . S
C1290 C1291 1.391 . S
C1291 H1279 0.950 . S
C1291 C1287 1.393 . S
C1291 C1290 1.391 . S
H1292 C1300 0.950 . S
H1293 C1305 0.950 . S
H1294 C1302 0.950 . S
H1295 C1304 0.950 . S
H1296 C1306 0.950 . S
H1297 C1308 0.950 . S
H1298 C1310 0.950 . S
H1299 C1311 0.950 . S
C1300 H1292 0.950 . S
C1300 C1301 1.386 . S
C1300 C1302 1.391 . S
C1301 C1300 1.386 . S
C1301 C1305 1.393 . S
C1302 H1294 0.950 . S
C1302 C1300 1.391 . S
C1302 C1303 1.400 . S
C1303 C1302 1.400 . S
C1303 C1304 1.398 . S
C1303 C1309 1.491 . S
C1304 H1295 0.950 . S
C1304 C1303 1.398 . S
C1304 C1305 1.391 . S
C1305 H1293 0.950 . S
C1305 C1301 1.393 . S
C1305 C1304 1.391 . S
C1306 H1296 0.950 . S
C1306 C1307 1.386 . S
C1306 C1308 1.391 . S
C1307 C1306 1.386 . S
C1307 C1311 1.393 . S
C1308 H1297 0.950 . S
C1308 C1306 1.391 . S
C1308 C1309 1.400 . S
C1309 C1303 1.491 . S
C1309 C1308 1.400 . S
C1309 C1310 1.398 . S
C1310 H1298 0.950 . S
C1310 C1309 1.398 . S
C1310 C1311 1.391 . S
C1311 H1299 0.950 . S
C1311 C1307 1.393 . S
C1311 C1310 1.391 . S
H1312 C1320 0.950 . S
H1313 C1325 0.950 . S
H1314 C1322 0.950 . S
H1315 C1324 0.950 . S
H1316 C1326 0.950 . S
H1317 C1328 0.950 . S
H1318 C1330 0.950 . S
H1319 C1331 0.950 . S
C1320 H1312 0.950 . S
C1320 C1321 1.386 . S
C1320 C1322 1.391 . S
C1321 C1320 1.386 . S
C1321 C1325 1.393 . S
C1322 H1314 0.950 . S
C1322 C1320 1.391 . S
C1322 C1323 1.400 . S
C1323 C1322 1.400 . S
C1323 C1324 1.398 . S
C1323 C1329 1.491 . S
C1324 H1315 0.950 . S
C1324 C1323 1.398 . S
C1324 C1325 1.391 . S
C1325 H1313 0.950 . S
C1325 C1321 1.393 . S
C1325 C1324 1.391 . S
C1326 H1316 0.950 . S
C1326 C1327 1.386 . S
C1326 C1328 1.391 . S
C1327 C1326 1.386 . S
C1327 C1331 1.393 . S
C1328 H1317 0.950 . S
C1328 C1326 1.391 . S
C1328 C1329 1.400 . S
C1329 C1323 1.491 . S
C1329 C1328 1.400 . S
C1329 C1330 1.398 . S
C1330 H1318 0.950 . S
C1330 C1329 1.398 . S
C1330 C1331 1.391 . S
C1331 H1319 0.950 . S
C1331 C1327 1.393 . S
C1331 C1330 1.391 . S
H1332 C1340 0.950 . S
H1333 C1345 0.950 . S
H1334 C1342 0.950 . S
H1335 C1344 0.950 . S
H1336 C1346 0.950 . S
H1337 C1348 0.950 . S
H1338 C1350 0.950 . S
H1339 C1351 0.950 . S
C1340 H1332 0.950 . S
C1340 C1341 1.386 . S
C1340 C1342 1.391 . S
C1341 C1340 1.386 . S
C1341 C1345 1.393 . S
C1342 H1334 0.950 . S
C1342 C1340 1.391 . S
C1342 C1343 1.400 . S
C1343 C1342 1.400 . S
C1343 C1344 1.398 . S
C1343 C1349 1.491 . S
C1344 H1335 0.950 . S
C1344 C1343 1.398 . S
C1344 C1345 1.391 . S
C1345 H1333 0.950 . S
C1345 C1341 1.393 . S
C1345 C1344 1.391 . S
C1346 H1336 0.950 . S
C1346 C1347 1.386 . S
C1346 C1348 1.391 . S
C1347 C1346 1.386 . S
C1347 C1351 1.393 . S
C1348 H1337 0.950 . S
C1348 C1346 1.391 . S
C1348 C1349 1.400 . S
C1349 C1343 1.491 . S
C1349 C1348 1.400 . S
C1349 C1350 1.398 . S
C1350 H1338 0.950 . S
C1350 C1349 1.398 . S
C1350 C1351 1.391 . S
C1351 H1339 0.950 . S
C1351 C1347 1.393 . S
C1351 C1350 1.391 . S
H1352 C1360 0.950 . S
H1353 C1365 0.950 . S
H1354 C1362 0.950 . S
H1355 C1364 0.950 . S
H1356 C1366 0.950 . S
H1357 C1368 0.950 . S
H1358 C1370 0.950 . S
H1359 C1371 0.950 . S
C1360 H1352 0.950 . S
C1360 C1361 1.386 . S
C1360 C1362 1.391 . S
C1361 C1360 1.386 . S
C1361 C1365 1.393 . S
C1362 H1354 0.950 . S
C1362 C1360 1.391 . S
C1362 C1363 1.400 . S
C1363 C1362 1.400 . S
C1363 C1364 1.398 . S
C1363 C1369 1.491 . S
C1364 H1355 0.950 . S
C1364 C1363 1.398 . S
C1364 C1365 1.391 . S
C1365 H1353 0.950 . S
C1365 C1361 1.393 . S
C1365 C1364 1.391 . S
C1366 H1356 0.950 . S
C1366 C1367 1.386 . S
C1366 C1368 1.391 . S
C1367 C1366 1.386 . S
C1367 C1371 1.393 . S
C1368 H1357 0.950 . S
C1368 C1366 1.391 . S
C1368 C1369 1.400 . S
C1369 C1363 1.491 . S
C1369 C1368 1.400 . S
C1369 C1370 1.398 . S
C1370 H1358 0.950 . S
C1370 C1369 1.398 . S
C1370 C1371 1.391 . S
C1371 H1359 0.950 . S
C1371 C1367 1.393 . S
C1371 C1370 1.391 . S
H1372 C1380 0.950 . S
H1373 C1385 0.950 . S
H1374 C1382 0.950 . S
H1375 C1384 0.950 . S
H1376 C1386 0.950 . S
H1377 C1388 0.950 . S
H1378 C1390 0.950 . S
H1379 C1391 0.950 . S
C1380 H1372 0.950 . S
C1380 C1381 1.386 . S
C1380 C1382 1.391 . S
C1381 C1380 1.386 . S
C1381 C1385 1.393 . S
C1382 H1374 0.950 . S
C1382 C1380 1.391 . S
C1382 C1383 1.400 . S
C1383 C1382 1.400 . S
C1383 C1384 1.398 . S
C1383 C1389 1.491 . S
C1384 H1375 0.950 . S
C1384 C1383 1.398 . S
C1384 C1385 1.391 . S
C1385 H1373 0.950 . S
C1385 C1381 1.393 . S
C1385 C1384 1.391 . S
C1386 H1376 0.950 . S
C1386 C1387 1.386 . S
C1386 C1388 1.391 . S
C1387 C1386 1.386 . S
C1387 C1391 1.393 . S
C1388 H1377 0.950 . S
C1388 C1386 1.391 . S
C1388 C1389 1.400 . S
C1389 C1383 1.491 . S
C1389 C1388 1.400 . S
C1389 C1390 1.398 . S
C1390 H1378 0.950 . S
C1390 C1389 1.398 . S
C1390 C1391 1.391 . S
C1391 H1379 0.950 . S
C1391 C1387 1.393 . S
C1391 C1390 1.391 . S
H1392 C1400 0.950 . S
H1393 C1405 0.950 . S
H1394 C1402 0.950 . S
H1395 C1404 0.950 . S
H1396 C1406 0.950 . S
H1397 C1408 0.950 . S
H1398 C1410 0.950 . S
H1399 C1411 0.950 . S
C1400 H1392 0.950 . S
C1400 C1401 1.386 . S
C1400 C1402 1.391 . S
C1401 C1400 1.386 . S
C1401 C1405 1.393 . S
C1402 H1394 0.950 . S
C1402 C1400 1.391 . S
C1402 C1403 1.400 . S
C1403 C1402 1.400 . S
C1403 C1404 1.398 . S
C1403 C1409 1.491 . S
C1404 H1395 0.950 . S
C1404 C1403 1.398 . S
C1404 C1405 1.391 . S
C1405 H1393 0.950 . S
C1405 C1401 1.393 . S
C1405 C1404 1.391 . S
C1406 H1396 0.950 . S
C1406 C1407 1.386 . S
C1406 C1408 1.391 . S
C1407 C1406 1.386 . S
C1407 C1411 1.393 . S
C1408 H1397 0.950 . S
C1408 C1406 1.391 . S
C1408 C1409 1.400 . S
C1409 C1403 1.491 . S
C1409 C1408 1.400 . S
C1409 C1410 1.398 . S
C1410 H1398 0.950 . S
C1410 C1409 1.398 . S
C1410 C1411 1.391 . S
C1411 H1399 0.950 . S
C1411 C1407 1.393 . S
C1411 C1410 1.391 . S
H1412 C1420 0.950 . S
H1413 C1425 0.950 . S
H1414 C1422 0.950 . S
H1415 C1424 0.950 . S
H1416 C1426 0.950 . S
H1417 C1428 0.950 . S
H1418 C1430 0.950 . S
H1419 C1431 0.950 . S
C1420 H1412 0.950 . S
C1420 C1421 1.386 . S
C1420 C1422 1.391 . S
C1421 C1420 1.386 . S
C1421 C1425 1.393 . S
C1422 H1414 0.950 . S
C1422 C1420 1.391 . S
C1422 C1423 1.400 . S
C1423 C1422 1.400 . S
C1423 C1424 1.398 . S
C1423 C1429 1.491 . S
C1424 H1415 0.950 . S
C1424 C1423 1.398 . S
C1424 C1425 1.391 . S
C1425 H1413 0.950 . S
C1425 C1421 1.393 . S
C1425 C1424 1.391 . S
C1426 H1416 0.950 . S
C1426 C1427 1.386 . S
C1426 C1428 1.391 . S
C1427 C1426 1.386 . S
C1427 C1431 1.393 . S
C1428 H1417 0.950 . S
C1428 C1426 1.391 . S
C1428 C1429 1.400 . S
C1429 C1423 1.491 . S
C1429 C1428 1.400 . S
C1429 C1430 1.398 . S
C1430 H1418 0.950 . S
C1430 C1429 1.398 . S
C1430 C1431 1.391 . S
C1431 H1419 0.950 . S
C1431 C1427 1.393 . S
C1431 C1430 1.391 . S
H1432 C1440 0.950 . S
H1433 C1445 0.950 . S
H1434 C1442 0.950 . S
H1435 C1444 0.950 . S
H1436 C1446 0.950 . S
H1437 C1448 0.950 . S
H1438 C1450 0.950 . S
H1439 C1451 0.950 . S
C1440 H1432 0.950 . S
C1440 C1441 1.386 . S
C1440 C1442 1.391 . S
C1441 C1440 1.386 . S
C1441 C1445 1.393 . S
C1442 H1434 0.950 . S
C1442 C1440 1.391 . S
C1442 C1443 1.400 . S
C1443 C1442 1.400 . S
C1443 C1444 1.398 . S
C1443 C1449 1.491 . S
C1444 H1435 0.950 . S
C1444 C1443 1.398 . S
C1444 C1445 1.391 . S
C1445 H1433 0.950 . S
C1445 C1441 1.393 . S
C1445 C1444 1.391 . S
C1446 H1436 0.950 . S
C1446 C1447 1.386 . S
C1446 C1448 1.391 . S
C1447 C1446 1.386 . S
C1447 C1451 1.393 . S
C1448 H1437 0.950 . S
C1448 C1446 1.391 . S
C1448 C1449 1.400 . S
C1449 C1443 1.491 . S
C1449 C1448 1.400 . S
C1449 C1450 1.398 . S
C1450 H1438 0.950 . S
C1450 C1449 1.398 . S
C1450 C1451 1.391 . S
C1451 H1439 0.950 . S
C1451 C1447 1.393 . S
C1451 C1450 1.391 . S
H1452 C1460 0.950 . S
H1453 C1465 0.950 . S
H1454 C1462 0.950 . S
H1455 C1464 0.950 . S
H1456 C1466 0.950 . S
H1457 C1468 0.950 . S
H1458 C1470 0.950 . S
H1459 C1471 0.950 . S
C1460 H1452 0.950 . S
C1460 C1461 1.386 . S
C1460 C1462 1.391 . S
C1461 C1460 1.386 . S
C1461 C1465 1.393 . S
C1462 H1454 0.950 . S
C1462 C1460 1.391 . S
C1462 C1463 1.400 . S
C1463 C1462 1.400 . S
C1463 C1464 1.398 . S
C1463 C1469 1.491 . S
C1464 H1455 0.950 . S
C1464 C1463 1.398 . S
C1464 C1465 1.391 . S
C1465 H1453 0.950 . S
C1465 C1461 1.393 . S
C1465 C1464 1.391 . S
C1466 H1456 0.950 . S
C1466 C1467 1.386 . S
C1466 C1468 1.391 . S
C1467 C1466 1.386 . S
C1467 C1471 1.393 . S
C1468 H1457 0.950 . S
C1468 C1466 1.391 . S
C1468 C1469 1.400 . S
C1469 C1463 1.491 . S
C1469 C1468 1.400 . S
C1469 C1470 1.398 . S
C1470 H1458 0.950 . S
C1470 C1469 1.398 . S
C1470 C1471 1.391 . S
C1471 H1459 0.950 . S
C1471 C1467 1.393 . S
C1471 C1470 1.391 . S
H1472 C1480 0.950 . S
H1473 C1485 0.950 . S
H1474 C1482 0.950 . S
H1475 C1484 0.950 . S
H1476 C1486 0.950 . S
H1477 C1488 0.950 . S
H1478 C1490 0.950 . S
H1479 C1491 0.950 . S
C1480 H1472 0.950 . S
C1480 C1481 1.386 . S
C1480 C1482 1.391 . S
C1481 C1480 1.386 . S
C1481 C1485 1.393 . S
C1482 H1474 0.950 . S
C1482 C1480 1.391 . S
C1482 C1483 1.400 . S
C1483 C1482 1.400 . S
C1483 C1484 1.398 . S
C1483 C1489 1.491 . S
C1484 H1475 0.950 . S
C1484 C1483 1.398 . S
C1484 C1485 1.391 . S
C1485 H1473 0.950 . S
C1485 C1481 1.393 . S
C1485 C1484 1.391 . S
C1486 H1476 0.950 . S
C1486 C1487 1.386 . S
C1486 C1488 1.391 . S
C1487 C1486 1.386 . S
C1487 C1491 1.393 . S
C1488 H1477 0.950 . S
C1488 C1486 1.391 . S
C1488 C1489 1.400 . S
C1489 C1483 1.491 . S
C1489 C1488 1.400 . S
C1489 C1490 1.398 . S
C1490 H1478 0.950 . S
C1490 C1489 1.398 . S
C1490 C1491 1.391 . S
C1491 H1479 0.950 . S
C1491 C1487 1.393 . S
C1491 C1490 1.391 . S
H1492 C1500 0.950 . S
H1493 C1505 0.950 . S
H1494 C1502 0.950 . S
H1495 C1504 0.950 . S
H1496 C1506 0.950 . S
H1497 C1508 0.950 . S
H1498 C1510 0.950 . S
H1499 C1511 0.950 . S
C1500 H1492 0.950 . S
C1500 C1501 1.386 . S
C1500 C1502 1.391 . S
C1501 C1500 1.386 . S
C1501 C1505 1.393 . S
C1502 H1494 0.950 . S
C1502 C1500 1.391 . S
C1502 C1503 1.400 . S
C1503 C1502 1.400 . S
C1503 C1504 1.398 . S
C1503 C1509 1.491 . S
C1504 H1495 0.950 . S
C1504 C1503 1.398 . S
C1504 C1505 1.391 . S
C1505 H1493 0.950 . S
C1505 C1501 1.393 . S
C1505 C1504 1.391 . S
C1506 H1496 0.950 . S
C1506 C1507 1.386 . S
C1506 C1508 1.391 . S
C1507 C1506 1.386 . S
C1507 C1511 1.393 . S
C1508 H1497 0.950 . S
C1508 C1506 1.391 . S
C1508 C1509 1.400 . S
C1509 C1503 1.491 . S
C1509 C1508 1.400 . S
C1509 C1510 1.398 . S
C1510 H1498 0.950 . S
C1510 C1509 1.398 . S
C1510 C1511 1.391 . S
C1511 H1499 0.950 . S
C1511 C1507 1.393 . S
C1511 C1510 1.391 . S
H1512 C1520 0.950 . S
H1513 C1525 0.950 . S
H1514 C1522 0.950 . S
H1515 C1524 0.950 . S
H1516 C1526 0.950 . S
H1517 C1528 0.950 . S
H1518 C1530 0.950 . S
H1519 C1531 0.950 . S
C1520 H1512 0.950 . S
C1520 C1521 1.386 . S
C1520 C1522 1.391 . S
C1521 C1520 1.386 . S
C1521 C1525 1.393 . S
C1522 H1514 0.950 . S
C1522 C1520 1.391 . S
C1522 C1523 1.400 . S
C1523 C1522 1.400 . S
C1523 C1524 1.398 . S
C1523 C1529 1.491 . S
C1524 H1515 0.950 . S
C1524 C1523 1.398 . S
C1524 C1525 1.391 . S
C1525 H1513 0.950 . S
C1525 C1521 1.393 . S
C1525 C1524 1.391 . S
C1526 H1516 0.950 . S
C1526 C1527 1.386 . S
C1526 C1528 1.391 . S
C1527 C1526 1.386 . S
C1527 C1531 1.393 . S
C1528 H1517 0.950 . S
C1528 C1526 1.391 . S
C1528 C1529 1.400 . S
C1529 C1523 1.491 . S
C1529 C1528 1.400 . S
C1529 C1530 1.398 . S
C1530 H1518 0.950 . S
C1530 C1529 1.398 . S
C1530 C1531 1.391 . S
C1531 H1519 0.950 . S
C1531 C1527 1.393 . S
C1531 C1530 1.391 . S
H1532 C1540 0.950 . S
H1533 C1545 0.950 . S
H1534 C1542 0.950 . S
H1535 C1544 0.950 . S
H1536 C1546 0.950 . S
H1537 C1548 0.950 . S
H1538 C1550 0.950 . S
H1539 C1551 0.950 . S
C1540 H1532 0.950 . S
C1540 C1541 1.386 . S
C1540 C1542 1.391 . S
C1541 C1540 1.386 . S
C1541 C1545 1.393 . S
C1542 H1534 0.950 . S
C1542 C1540 1.391 . S
C1542 C1543 1.400 . S
C1543 C1542 1.400 . S
C1543 C1544 1.398 . S
C1543 C1549 1.491 . S
C1544 H1535 0.950 . S
C1544 C1543 1.398 . S
C1544 C1545 1.391 . S
C1545 H1533 0.950 . S
C1545 C1541 1.393 . S
C1545 C1544 1.391 . S
C1546 H1536 0.950 . S
C1546 C1547 1.386 . S
C1546 C1548 1.391 . S
C1547 C1546 1.386 . S
C1547 C1551 1.393 . S
C1548 H1537 0.950 . S
C1548 C1546 1.391 . S
C1548 C1549 1.400 . S
C1549 C1543 1.491 . S
C1549 C1548 1.400 . S
C1549 C1550 1.398 . S
C1550 H1538 0.950 . S
C1550 C1549 1.398 . S
C1550 C1551 1.391 . S
C1551 H1539 0.950 . S
C1551 C1547 1.393 . S
C1551 C1550 1.391 . S
H1552 C1560 0.950 . S
H1553 C1565 0.950 . S
H1554 C1562 0.950 . S
H1555 C1564 0.950 . S
H1556 C1566 0.950 . S
H1557 C1568 0.950 . S
H1558 C1570 0.950 . S
H1559 C1571 0.950 . S
C1560 H1552 0.950 . S
C1560 C1561 1.386 . S
C1560 C1562 1.391 . S
C1561 C1560 1.386 . S
C1561 C1565 1.393 . S
C1562 H1554 0.950 . S
C1562 C1560 1.391 . S
C1562 C1563 1.400 . S
C1563 C1562 1.400 . S
C1563 C1564 1.398 . S
C1563 C1569 1.491 . S
C1564 H1555 0.950 . S
C1564 C1563 1.398 . S
C1564 C1565 1.391 . S
C1565 H1553 0.950 . S
C1565 C1561 1.393 . S
C1565 C1564 1.391 . S
C1566 H1556 0.950 . S
C1566 C1567 1.386 . S
C1566 C1568 1.391 . S
C1567 C1566 1.386 . S
C1567 C1571 1.393 . S
C1568 H1557 0.950 . S
C1568 C1566 1.391 . S
C1568 C1569 1.400 . S
C1569 C1563 1.491 . S
C1569 C1568 1.400 . S
C1569 C1570 1.398 . S
C1570 H1558 0.950 . S
C1570 C1569 1.398 . S
C1570 C1571 1.391 . S
C1571 H1559 0.950 . S
C1571 C1567 1.393 . S
C1571 C1570 1.391 . S
H1572 C1580 0.950 . S
H1573 C1585 0.950 . S
H1574 C1582 0.950 . S
H1575 C1584 0.950 . S
H1576 C1586 0.950 . S
H1577 C1588 0.950 . S
H1578 C1590 0.950 . S
H1579 C1591 0.950 . S
C1580 H1572 0.950 . S
C1580 C1581 1.386 . S
C1580 C1582 1.391 . S
C1581 C1580 1.386 . S
C1581 C1585 1.393 . S
C1582 H1574 0.950 . S
C1582 C1580 1.391 . S
C1582 C1583 1.400 . S
C1583 C1582 1.400 . S
C1583 C1584 1.398 . S
C1583 C1589 1.491 . S
C1584 H1575 0.950 . S
C1584 C1583 1.398 . S
C1584 C1585 1.391 . S
C1585 H1573 0.950 . S
C1585 C1581 1.393 . S
C1585 C1584 1.391 . S
C1586 H1576 0.950 . S
C1586 C1587 1.386 . S
C1586 C1588 1.391 . S
C1587 C1586 1.386 . S
C1587 C1591 1.393 . S
C1588 H1577 0.950 . S
C1588 C1586 1.391 . S
C1588 C1589 1.400 . S
C1589 C1583 1.491 . S
C1589 C1588 1.400 . S
C1589 C1590 1.398 . S
C1590 H1578 0.950 . S
C1590 C1589 1.398 . S
C1590 C1591 1.391 . S
C1591 H1579 0.950 . S
C1591 C1587 1.393 . S
C1591 C1590 1.391 . S
H1592 C1600 0.950 . S
H1593 C1605 0.950 . S
H1594 C1602 0.950 . S
H1595 C1604 0.950 . S
H1596 C1606 0.950 . S
H1597 C1608 0.950 . S
H1598 C1610 0.950 . S
H1599 C1611 0.950 . S
C1600 H1592 0.950 . S
C1600 C1601 1.386 . S
C1600 C1602 1.391 . S
C1601 C1600 1.386 . S
C1601 C1605 1.393 . S
C1602 H1594 0.950 . S
C1602 C1600 1.391 . S
C1602 C1603 1.400 . S
C1603 C1602 1.400 . S
C1603 C1604 1.398 . S
C1603 C1609 1.491 . S
C1604 H1595 0.950 . S
C1604 C1603 1.398 . S
C1604 C1605 1.391 . S
C1605 H1593 0.950 . S
C1605 C1601 1.393 . S
C1605 C1604 1.391 . S
C1606 H1596 0.950 . S
C1606 C1607 1.386 . S
C1606 C1608 1.391 . S
C1607 C1606 1.386 . S
C1607 C1611 1.393 . S
C1608 H1597 0.950 . S
C1608 C1606 1.391 . S
C1608 C1609 1.400 . S
C1609 C1603 1.491 . S
C1609 C1608 1.400 . S
C1609 C1610 1.398 . S
C1610 H1598 0.950 . S
C1610 C1609 1.398 . S
C1610 C1611 1.391 . S
C1611 H1599 0.950 . S
C1611 C1607 1.393 . S
C1611 C1610 1.391 . S
H1612 C1620 0.950 . S
H1613 C1625 0.950 . S
H1614 C1622 0.950 . S
H1615 C1624 0.950 . S
H1616 C1626 0.950 . S
H1617 C1628 0.950 . S
H1618 C1630 0.950 . S
H1619 C1631 0.950 . S
C1620 H1612 0.950 . S
C1620 C1621 1.386 . S
C1620 C1622 1.391 . S
C1621 C1620 1.386 . S
C1621 C1625 1.393 . S
C1622 H1614 0.950 . S
C1622 C1620 1.391 . S
C1622 C1623 1.400 . S
C1623 C1622 1.400 . S
C1623 C1624 1.398 . S
C1623 C1629 1.491 . S
C1624 H1615 0.950 . S
C1624 C1623 1.398 . S
C1624 C1625 1.391 . S
C1625 H1613 0.950 . S
C1625 C1621 1.393 . S
C1625 C1624 1.391 . S
C1626 H1616 0.950 . S
C1626 C1627 1.386 . S
C1626 C1628 1.391 . S
C1627 C1626 1.386 . S
C1627 C1631 1.393 . S
C1628 H1617 0.950 . S
C1628 C1626 1.391 . S
C1628 C1629 1.400 . S
C1629 C1623 1.491 . S
C1629 C1628 1.400 . S
C1629 C1630 1.398 . S
C1630 H1618 0.950 . S
C1630 C1629 1.398 . S
C1630 C1631 1.391 . S
C1631 H1619 0.950 . S
C1631 C1627 1.393 . S
C1631 C1630 1.391 . S
H1632 C1640 0.950 . S
H1633 C1645 0.950 . S
H1634 C1642 0.950 . S
H1635 C1644 0.950 . S
H1636 C1646 0.950 . S
H1637 C1648 0.950 . S
H1638 C1650 0.950 . S
H1639 C1651 0.950 . S
C1640 H1632 0.950 . S
C1640 C1641 1.386 . S
C1640 C1642 1.391 . S
C1641 C1640 1.386 . S
C1641 C1645 1.393 . S
C1642 H1634 0.950 . S
C1642 C1640 1.391 . S
C1642 C1643 1.400 . S
C1643 C1642 1.400 . S
C1643 C1644 1.398 . S
C1643 C1649 1.491 . S
C1644 H1635 0.950 . S
C1644 C1643 1.398 . S
C1644 C1645 1.391 . S
C1645 H1633 0.950 . S
C1645 C1641 1.393 . S
C1645 C1644 1.391 . S
C1646 H1636 0.950 . S
C1646 C1647 1.386 . S
C1646 C1648 1.391 . S
C1647 C1646 1.386 . S
C1647 C1651 1.393 . S
C1648 H1637 0.950 . S
C1648 C1646 1.391 . S
C1648 C1649 1.400 . S
C1649 C1643 1.491 . S
C1649 C1648 1.400 . S
C1649 C1650 1.398 . S
C1650 H1638 0.950 . S
C1650 C1649 1.398 . S
C1650 C1651 1.391 . S
C1651 H1639 0.950 . S
C1651 C1647 1.393 . S
C1651 C1650 1.391 . S
H1652 C1660 0.950 . S
H1653 C1665 0.950 . S
H1654 C1662 0.950 . S
H1655 C1664 0.950 . S
H1656 C1666 0.950 . S
H1657 C1668 0.950 . S
H1658 C1670 0.950 . S
H1659 C1671 0.950 . S
C1660 H1652 0.950 . S
C1660 C1661 1.386 . S
C1660 C1662 1.391 . S
C1661 C1660 1.386 . S
C1661 C1665 1.393 . S
C1662 H1654 0.950 . S
C1662 C1660 1.391 . S
C1662 C1663 1.400 . S
C1663 C1662 1.400 . S
C1663 C1664 1.398 . S
C1663 C1669 1.491 . S
C1664 H1655 0.950 . S
C1664 C1663 1.398 . S
C1664 C1665 1.391 . S
C1665 H1653 0.950 . S
C1665 C1661 1.393 . S
C1665 C1664 1.391 . S
C1666 H1656 0.950 . S
C1666 C1667 1.386 . S
C1666 C1668 1.391 . S
C1667 C1666 1.386 . S
C1667 C1671 1.393 . S
C1668 H1657 0.950 . S
C1668 C1666 1.391 . S
C1668 C1669 1.400 . S
C1669 C1663 1.491 . S
C1669 C1668 1.400 . S
C1669 C1670 1.398 . S
C1670 H1658 0.950 . S
C1670 C1669 1.398 . S
C1670 C1671 1.391 . S
C1671 H1659 0.950 . S
C1671 C1667 1.393 . S
C1671 C1670 1.391 . S
H1672 C1680 0.950 . S
H1673 C1685 0.950 . S
H1674 C1682 0.950 . S
H1675 C1684 0.950 . S
H1676 C1686 0.950 . S
H1677 C1688 0.950 . S
H1678 C1690 0.950 . S
H1679 C1691 0.950 . S
C1680 H1672 0.950 . S
C1680 C1681 1.386 . S
C1680 C1682 1.391 . S
C1681 C1680 1.386 . S
C1681 C1685 1.393 . S
C1682 H1674 0.950 . S
C1682 C1680 1.391 . S
C1682 C1683 1.400 . S
C1683 C1682 1.400 . S
C1683 C1684 1.398 . S
C1683 C1689 1.491 . S
C1684 H1675 0.950 . S
C1684 C1683 1.398 . S
C1684 C1685 1.391 . S
C1685 H1673 0.950 . S
C1685 C1681 1.393 . S
C1685 C1684 1.391 . S
C1686 H1676 0.950 . S
C1686 C1687 1.386 . S
C1686 C1688 1.391 . S
C1687 C1686 1.386 . S
C1687 C1691 1.393 . S
C1688 H1677 0.950 . S
C1688 C1686 1.391 . S
C1688 C1689 1.400 . S
C1689 C1683 1.491 . S
C1689 C1688 1.400 . S
C1689 C1690 1.398 . S
C1690 H1678 0.950 . S
C1690 C1689 1.398 . S
C1690 C1691 1.391 . S
C1691 H1679 0.950 . S
C1691 C1687 1.393 . S
C1691 C1690 1.391 . S
H1692 C1700 0.950 . S
H1693 C1705 0.950 . S
H1694 C1702 0.950 . S
H1695 C1704 0.950 . S
H1696 C1706 0.950 . S
H1697 C1708 0.950 . S
H1698 C1710 0.950 . S
H1699 C1711 0.950 . S
C1700 H1692 0.950 . S
C1700 C1701 1.386 . S
C1700 C1702 1.391 . S
C1701 C1700 1.386 . S
C1701 C1705 1.393 . S
C1702 H1694 0.950 . S
C1702 C1700 1.391 . S
C1702 C1703 1.400 . S
C1703 C1702 1.400 . S
C1703 C1704 1.398 . S
C1703 C1709 1.491 . S
C1704 H1695 0.950 . S
C1704 C1703 1.398 . S
C1704 C1705 1.391 . S
C1705 H1693 0.950 . S
C1705 C1701 1.393 . S
C1705 C1704 1.391 . S
C1706 H1696 0.950 . S
C1706 C1707 1.386 . S
C1706 C1708 1.391 . S
C1707 C1706 1.386 . S
C1707 C1711 1.393 . S
C1708 H1697 0.950 . S
C1708 C1706 1.391 . S
C1708 C1709 1.400 . S
C1709 C1703 1.491 . S
C1709 C1708 1.400 . S
C1709 C1710 1.398 . S
C1710 H1698 0.950 . S
C1710 C1709 1.398 . S
C1710 C1711 1.391 . S
C1711 H1699 0.950 . S
C1711 C1707 1.393 . S
C1711 C1710 1.391 . S
H1712 C1720 0.950 . S
H1713 C1725 0.950 . S
H1714 C1722 0.950 . S
H1715 C1724 0.950 . S
H1716 C1726 0.950 . S
H1717 C1728 0.950 . S
H1718 C1730 0.950 . S
H1719 C1731 0.950 . S
C1720 H1712 0.950 . S
C1720 C1721 1.386 . S
C1720 C1722 1.391 . S
C1721 C1720 1.386 . S
C1721 C1725 1.393 . S
C1722 H1714 0.950 . S
C1722 C1720 1.391 . S
C1722 C1723 1.400 . S
C1723 C1722 1.400 . S
C1723 C1724 1.398 . S
C1723 C1729 1.491 . S
C1724 H1715 0.950 . S
C1724 C1723 1.398 . S
C1724 C1725 1.391 . S
C1725 H1713 0.950 . S
C1725 C1721 1.393 . S
C1725 C1724 1.391 . S
C1726 H1716 0.950 . S
C1726 C1727 1.386 . S
C1726 C1728 1.391 . S
C1727 C1726 1.386 . S
C1727 C1731 1.393 . S
C1728 H1717 0.950 . S
C1728 C1726 1.391 . S
C1728 C1729 1.400 . S
C1729 C1723 1.491 . S
C1729 C1728 1.400 . S
C1729 C1730 1.398 . S
C1730 H1718 0.950 . S
C1730 C1729 1.398 . S
C1730 C1731 1.391 . S
C1731 H1719 0.950 . S
C1731 C1727 1.393 . S
C1731 C1730 1.391 . S
H1732 C1740 0.950 . S
H1733 C1745 0.950 . S
H1734 C1742 0.950 . S
H1735 C1744 0.950 . S
H1736 C1746 0.950 . S
H1737 C1748 0.950 . S
H1738 C1750 0.950 . S
H1739 C1751 0.950 . S
C1740 H1732 0.950 . S
C1740 C1741 1.386 . S
C1740 C1742 1.391 . S
C1741 C1740 1.386 . S
C1741 C1745 1.393 . S
C1742 H1734 0.950 . S
C1742 C1740 1.391 . S
C1742 C1743 1.400 . S
C1743 C1742 1.400 . S
C1743 C1744 1.398 . S
C1743 C1749 1.491 . S
C1744 H1735 0.950 . S
C1744 C1743 1.398 . S
C1744 C1745 1.391 . S
C1745 H1733 0.950 . S
C1745 C1741 1.393 . S
C1745 C1744 1.391 . S
C1746 H1736 0.950 . S
C1746 C1747 1.386 . S
C1746 C1748 1.391 . S
C1747 C1746 1.386 . S
C1747 C1751 1.393 . S
C1748 H1737 0.950 . S
C1748 C1746 1.391 . S
C1748 C1749 1.400 . S
C1749 C1743 1.491 . S
C1749 C1748 1.400 . S
C1749 C1750 1.398 . S
C1750 H1738 0.950 . S
C1750 C1749 1.398 . S
C1750 C1751 1.391 . S
C1751 H1739 0.950 . S
C1751 C1747 1.393 . S
C1751 C1750 1.391 . S
H1752 C1760 0.950 . S
H1753 C1765 0.950 . S
H1754 C1762 0.950 . S
H1755 C1764 0.950 . S
H1756 C1766 0.950 . S
H1757 C1768 0.950 . S
H1758 C1770 0.950 . S
H1759 C1771 0.950 . S
C1760 H1752 0.950 . S
C1760 C1761 1.386 . S
C1760 C1762 1.391 . S
C1761 C1760 1.386 . S
C1761 C1765 1.393 . S
C1762 H1754 0.950 . S
C1762 C1760 1.391 . S
C1762 C1763 1.400 . S
C1763 C1762 1.400 . S
C1763 C1764 1.398 . S
C1763 C1769 1.491 . S
C1764 H1755 0.950 . S
C1764 C1763 1.398 . S
C1764 C1765 1.391 . S
C1765 H1753 0.950 . S
C1765 C1761 1.393 . S
C1765 C1764 1.391 . S
C1766 H1756 0.950 . S
C1766 C1767 1.386 . S
C1766 C1768 1.391 . S
C1767 C1766 1.386 . S
C1767 C1771 1.393 . S
C1768 H1757 0.950 . S
C1768 C1766 1.391 . S
C1768 C1769 1.400 . S
C1769 C1763 1.491 . S
C1769 C1768 1.400 . S
C1769 C1770 1.398 . S
C1770 H1758 0.950 . S
C1770 C1769 1.398 . S
C1770 C1771 1.391 . S
C1771 H1759 0.950 . S
C1771 C1767 1.393 . S
C1771 C1770 1.391 . S
H1772 C1780 0.950 . S
H1773 C1785 0.950 . S
H1774 C1782 0.950 . S
H1775 C1784 0.950 . S
H1776 C1786 0.950 . S
H1777 C1788 0.950 . S
H1778 C1790 0.950 . S
H1779 C1791 0.950 . S
C1780 H1772 0.950 . S
C1780 C1781 1.386 . S
C1780 C1782 1.391 . S
C1781 C1780 1.386 . S
C1781 C1785 1.393 . S
C1782 H1774 0.950 . S
C1782 C1780 1.391 . S
C1782 C1783 1.400 . S
C1783 C1782 1.400 . S
C1783 C1784 1.398 . S
C1783 C1789 1.491 . S
C1784 H1775 0.950 . S
C1784 C1783 1.398 . S
C1784 C1785 1.391 . S
C1785 H1773 0.950 . S
C1785 C1781 1.393 . S
C1785 C1784 1.391 . S
C1786 H1776 0.950 . S
C1786 C1787 1.386 . S
C1786 C1788 1.391 . S
C1787 C1786 1.386 . S
C1787 C1791 1.393 . S
C1788 H1777 0.950 . S
C1788 C1786 1.391 . S
C1788 C1789 1.400 . S
C1789 C1783 1.491 . S
C1789 C1788 1.400 . S
C1789 C1790 1.398 . S
C1790 H1778 0.950 . S
C1790 C1789 1.398 . S
C1790 C1791 1.391 . S
C1791 H1779 0.950 . S
C1791 C1787 1.393 . S
C1791 C1790 1.391 . S
H1792 C1800 0.950 . S
H1793 C1805 0.950 . S
H1794 C1802 0.950 1_545 S
H1795 C1804 0.950 . S
H1796 C1806 0.950 . S
H1797 C1808 0.949 1_565 S
H1798 C1810 0.950 . S
H1799 C1811 0.950 . S
C1800 H1792 0.950 . S
C1800 C1801 1.386 . S
C1800 C1802 1.391 . S
C1801 C1800 1.386 . S
C1801 C1805 1.393 . S
C1802 H1794 0.950 1_565 S
C1802 C1800 1.391 . S
C1802 C1803 1.400 . S
C1803 C1802 1.400 . S
C1803 C1804 1.398 . S
C1803 C1809 1.491 1_565 S
C1804 H1795 0.950 . S
C1804 C1803 1.398 . S
C1804 C1805 1.391 . S
C1805 H1793 0.950 . S
C1805 C1801 1.393 . S
C1805 C1804 1.391 . S
C1806 H1796 0.950 . S
C1806 C1807 1.386 . S
C1806 C1808 1.391 . S
C1807 C1806 1.386 . S
C1807 C1811 1.393 . S
C1808 H1797 0.949 1_545 S
C1808 C1806 1.391 . S
C1808 C1809 1.400 . S
C1809 C1803 1.491 1_545 S
C1809 C1808 1.400 . S
C1809 C1810 1.398 . S
C1810 H1798 0.950 . S
C1810 C1809 1.398 . S
C1810 C1811 1.391 . S
C1811 H1799 0.950 . S
C1811 C1807 1.393 . S
C1811 C1810 1.391 . S
H1812 C1820 0.950 . S
H1813 C1825 0.950 . S
H1814 C1822 0.953 . S
H1815 C1824 0.950 . S
H1816 C1826 0.950 . S
H1817 C1828 0.950 . S
H1818 C1830 0.950 . S
H1819 C1831 0.950 . S
C1820 H1812 0.950 . S
C1820 C1821 1.386 . S
C1820 C1822 1.391 1_455 S
C1821 C1820 1.386 . S
C1821 C1825 1.393 1_455 S
C1822 H1814 0.953 . S
C1822 C1820 1.391 1_655 S
C1822 C1823 1.400 . S
C1823 C1822 1.400 . S
C1823 C1824 1.398 . S
C1823 C1829 1.491 . S
C1824 H1815 0.950 . S
C1824 C1823 1.398 . S
C1824 C1825 1.391 . S
C1825 H1813 0.950 . S
C1825 C1821 1.393 1_655 S
C1825 C1824 1.391 . S
C1826 H1816 0.950 . S
C1826 C1827 1.386 . S
C1826 C1828 1.391 . S
C1827 C1826 1.386 . S
C1827 C1831 1.393 . S
C1828 H1817 0.950 . S
C1828 C1826 1.391 . S
C1828 C1829 1.400 . S
C1829 C1823 1.491 . S
C1829 C1828 1.400 . S
C1829 C1830 1.398 . S
C1830 H1818 0.950 . S
C1830 C1829 1.398 . S
C1830 C1831 1.391 . S
C1831 H1819 0.950 . S
C1831 C1827 1.393 . S
C1831 C1830 1.391 . S
H1832 C1840 0.950 . S
H1833 C1845 0.950 . S
H1834 C1842 0.950 . S
H1835 C1844 0.964 . S
H1836 C1846 0.950 . S
H1837 C1848 0.950 . S
H1838 C1850 0.950 . S
H1839 C1851 0.950 . S
C1840 H1832 0.950 . S
C1840 C1841 1.386 . S
C1840 C1842 1.391 . S
C1841 C1840 1.386 . S
C1841 C1845 1.393 . S
C1842 H1834 0.950 . S
C1842 C1840 1.391 . S
C1842 C1843 1.400 . S
C1843 C1842 1.400 . S
C1843 C1844 1.398 . S
C1843 C1849 1.491 1_565 S
C1844 H1835 0.964 . S
C1844 C1843 1.398 . S
C1844 C1845 1.391 . S
C1845 H1833 0.950 . S
C1845 C1841 1.393 . S
C1845 C1844 1.391 . S
C1846 H1836 0.950 . S
C1846 C1847 1.386 . S
C1846 C1848 1.391 . S
C1847 C1846 1.386 . S
C1847 C1851 1.393 . S
C1848 H1837 0.950 . S
C1848 C1846 1.391 . S
C1848 C1849 1.400 . S
C1849 C1843 1.491 1_545 S
C1849 C1848 1.400 . S
C1849 C1850 1.398 . S
C1850 H1838 0.950 . S
C1850 C1849 1.398 . S
C1850 C1851 1.391 . S
C1851 H1839 0.950 . S
C1851 C1847 1.393 . S
C1851 C1850 1.391 . S
H1852 C1860 0.950 . S
H1853 C1865 0.950 . S
H1854 C1862 0.927 1_455 S
H1855 C1864 0.950 . S
H1856 C1866 0.940 1_655 S
H1857 C1868 0.950 . S
H1858 C1870 0.950 . S
H1859 C1871 0.950 . S
C1860 H1852 0.950 . S
C1860 C1861 1.386 . S
C1860 C1862 1.391 . S
C1861 C1860 1.386 . S
C1861 C1865 1.393 . S
C1862 H1854 0.927 1_655 S
C1862 C1860 1.391 . S
C1862 C1863 1.400 . S
C1863 C1862 1.400 . S
C1863 C1864 1.398 . S
C1863 C1869 1.491 . S
C1864 H1855 0.950 . S
C1864 C1863 1.398 . S
C1864 C1865 1.391 . S
C1865 H1853 0.950 . S
C1865 C1861 1.393 . S
C1865 C1864 1.391 . S
C1866 H1856 0.940 1_455 S
C1866 C1867 1.414 . S
C1866 C1868 1.374 1_455 S
C1867 C1866 1.414 . S
C1867 C1871 1.393 . S
C1868 H1857 0.950 . S
C1868 C1866 1.374 1_655 S
C1868 C1869 1.400 . S
C1869 C1863 1.491 . S
C1869 C1868 1.400 . S
C1869 C1870 1.398 1_655 S
C1870 H1858 0.950 . S
C1870 C1869 1.398 1_455 S
C1870 C1871 1.391 . S
C1871 H1859 0.950 . S
C1871 C1867 1.393 . S
C1871 C1870 1.391 . S
H1872 C1880 0.950 . S
H1873 C1885 0.950 . S
H1874 C1882 0.950 . S
H1875 C1884 0.950 . S
H1876 C1886 0.950 . S
H1877 C1888 0.950 . S
H1878 C1890 0.950 . S
H1879 C1891 0.950 . S
C1880 H1872 0.950 . S
C1880 C1881 1.386 . S
C1880 C1882 1.391 . S
C1881 C1880 1.386 . S
C1881 C1885 1.393 . S
C1882 H1874 0.950 . S
C1882 C1880 1.391 . S
C1882 C1883 1.400 . S
C1883 C1882 1.400 . S
C1883 C1884 1.398 . S
C1883 C1889 1.491 . S
C1884 H1875 0.950 . S
C1884 C1883 1.398 . S
C1884 C1885 1.391 . S
C1885 H1873 0.950 . S
C1885 C1881 1.393 . S
C1885 C1884 1.391 . S
C1886 H1876 0.950 . S
C1886 C1887 1.386 . S
C1886 C1888 1.391 . S
C1887 C1886 1.386 . S
C1887 C1891 1.393 . S
C1888 H1877 0.950 . S
C1888 C1886 1.391 . S
C1888 C1889 1.400 . S
C1889 C1883 1.491 . S
C1889 C1888 1.400 . S
C1889 C1890 1.398 . S
C1890 H1878 0.950 . S
C1890 C1889 1.398 . S
C1890 C1891 1.391 . S
C1891 H1879 0.950 . S
C1891 C1887 1.393 . S
C1891 C1890 1.391 . S
H1892 C1900 0.950 . S
H1893 C1905 0.950 . S
H1894 C1902 0.950 . S
H1895 C1904 0.950 . S
H1896 C1906 0.950 . S
H1897 C1908 0.950 . S
H1898 C1910 0.950 . S
H1899 C1911 0.950 . S
C1900 H1892 0.950 . S
C1900 C1901 1.386 . S
C1900 C1902 1.391 . S
C1901 C1900 1.386 . S
C1901 C1905 1.393 . S
C1902 H1894 0.950 . S
C1902 C1900 1.391 . S
C1902 C1903 1.400 . S
C1903 C1902 1.400 . S
C1903 C1904 1.398 . S
C1903 C1909 1.491 . S
C1904 H1895 0.950 . S
C1904 C1903 1.398 . S
C1904 C1905 1.391 . S
C1905 H1893 0.950 . S
C1905 C1901 1.393 . S
C1905 C1904 1.391 . S
C1906 H1896 0.950 . S
C1906 C1907 1.386 . S
C1906 C1908 1.391 . S
C1907 C1906 1.386 . S
C1907 C1911 1.393 . S
C1908 H1897 0.950 . S
C1908 C1906 1.391 . S
C1908 C1909 1.400 . S
C1909 C1903 1.491 . S
C1909 C1908 1.400 . S
C1909 C1910 1.398 . S
C1910 H1898 0.950 . S
C1910 C1909 1.398 . S
C1910 C1911 1.391 . S
C1911 H1899 0.950 . S
C1911 C1907 1.393 . S
C1911 C1910 1.391 . S
H1912 C1920 0.950 . S
H1913 C1925 0.950 . S
H1914 C1922 0.950 . S
H1915 C1924 0.950 . S
H1916 C1926 0.950 . S
H1917 C1928 0.950 . S
H1918 C1930 0.950 . S
H1919 C1931 0.950 . S
C1920 H1912 0.950 . S
C1920 C1921 1.386 . S
C1920 C1922 1.391 . S
C1921 C1920 1.386 . S
C1921 C1925 1.393 . S
C1922 H1914 0.950 . S
C1922 C1920 1.391 . S
C1922 C1923 1.400 . S
C1923 C1922 1.400 . S
C1923 C1924 1.398 . S
C1923 C1929 1.491 . S
C1924 H1915 0.950 . S
C1924 C1923 1.398 . S
C1924 C1925 1.391 . S
C1925 H1913 0.950 . S
C1925 C1921 1.393 . S
C1925 C1924 1.391 . S
C1926 H1916 0.950 . S
C1926 C1927 1.386 . S
C1926 C1928 1.391 . S
C1927 C1926 1.386 . S
C1927 C1931 1.393 . S
C1928 H1917 0.950 . S
C1928 C1926 1.391 . S
C1928 C1929 1.400 . S
C1929 C1923 1.491 . S
C1929 C1928 1.400 . S
C1929 C1930 1.398 . S
C1930 H1918 0.950 . S
C1930 C1929 1.398 . S
C1930 C1931 1.391 . S
C1931 H1919 0.950 . S
C1931 C1927 1.393 . S
C1931 C1930 1.391 . S
H1932 C1940 0.950 . S
H1933 C1945 0.950 . S
H1934 C1942 0.950 . S
H1935 C1944 0.950 . S
H1936 C1946 0.950 . S
H1937 C1948 0.950 . S
H1938 C1950 0.950 . S
H1939 C1951 0.950 . S
C1940 H1932 0.950 . S
C1940 C1941 1.386 . S
C1940 C1942 1.391 . S
C1941 C1940 1.386 . S
C1941 C1945 1.393 . S
C1942 H1934 0.950 . S
C1942 C1940 1.391 . S
C1942 C1943 1.400 . S
C1943 C1942 1.400 . S
C1943 C1944 1.398 . S
C1943 C1949 1.491 . S
C1944 H1935 0.950 . S
C1944 C1943 1.398 . S
C1944 C1945 1.391 . S
C1945 H1933 0.950 . S
C1945 C1941 1.393 . S
C1945 C1944 1.391 . S
C1946 H1936 0.950 . S
C1946 C1947 1.386 . S
C1946 C1948 1.391 . S
C1947 C1946 1.386 . S
C1947 C1951 1.393 . S
C1948 H1937 0.950 . S
C1948 C1946 1.391 . S
C1948 C1949 1.400 1_556 S
C1949 C1943 1.491 . S
C1949 C1948 1.400 1_554 S
C1949 C1950 1.398 . S
C1950 H1938 0.950 . S
C1950 C1949 1.398 . S
C1950 C1951 1.391 1_554 S
C1951 H1939 0.950 . S
C1951 C1947 1.393 . S
C1951 C1950 1.391 1_556 S
H1952 C1960 0.950 . S
H1953 C1965 0.950 . S
H1954 C1962 0.950 . S
H1955 C1964 0.950 . S
H1956 C1966 0.950 . S
H1957 C1968 0.950 . S
H1958 C1970 0.950 . S
H1959 C1971 0.950 . S
C1960 H1952 0.950 . S
C1960 C1961 1.386 . S
C1960 C1962 1.391 . S
C1961 C1960 1.386 . S
C1961 C1965 1.393 . S
C1962 H1954 0.950 . S
C1962 C1960 1.391 . S
C1962 C1963 1.400 . S
C1963 C1962 1.400 . S
C1963 C1964 1.398 . S
C1963 C1969 1.491 . S
C1964 H1955 0.950 . S
C1964 C1963 1.398 . S
C1964 C1965 1.391 . S
C1965 H1953 0.950 . S
C1965 C1961 1.393 . S
C1965 C1964 1.391 . S
C1966 H1956 0.950 . S
C1966 C1967 1.386 . S
C1966 C1968 1.391 . S
C1967 C1966 1.386 . S
C1967 C1971 1.393 . S
C1968 H1957 0.950 . S
C1968 C1966 1.391 . S
C1968 C1969 1.400 . S
C1969 C1963 1.491 . S
C1969 C1968 1.400 . S
C1969 C1970 1.398 . S
C1970 H1958 0.950 . S
C1970 C1969 1.398 . S
C1970 C1971 1.391 . S
C1971 H1959 0.950 . S
C1971 C1967 1.393 . S
C1971 C1970 1.391 . S
H1972 C1980 0.950 . S
H1973 C1985 0.950 . S
H1974 C1982 0.950 . S
H1975 C1984 0.950 . S
H1976 C1986 0.950 . S
H1977 C1988 0.950 . S
H1978 C1990 0.950 . S
H1979 C1991 0.950 . S
C1980 H1972 0.950 . S
C1980 C1981 1.386 1_554 S
C1980 C1982 1.391 . S
C1981 C1980 1.386 1_556 S
C1981 C1985 1.393 . S
C1982 H1974 0.950 . S
C1982 C1980 1.391 . S
C1982 C1983 1.400 . S
C1983 C1982 1.400 . S
C1983 C1984 1.398 1_554 S
C1983 C1989 1.491 . S
C1984 H1975 0.950 . S
C1984 C1983 1.398 1_556 S
C1984 C1985 1.391 . S
C1985 H1973 0.950 . S
C1985 C1981 1.393 . S
C1985 C1984 1.391 . S
C1986 H1976 0.950 . S
C1986 C1987 1.386 . S
C1986 C1988 1.391 . S
C1987 C1986 1.386 . S
C1987 C1991 1.393 . S
C1988 H1977 0.950 . S
C1988 C1986 1.391 . S
C1988 C1989 1.400 . S
C1989 C1983 1.491 . S
C1989 C1988 1.400 . S
C1989 C1990 1.398 . S
C1990 H1978 0.950 . S
C1990 C1989 1.398 . S
C1990 C1991 1.391 . S
C1991 H1979 0.950 . S
C1991 C1987 1.393 . S
C1991 C1990 1.391 . S
H1992 C2000 0.950 . S
H1993 C2005 0.950 . S
H1994 C2002 0.950 . S
H1995 C2004 0.950 . S
H1996 C2006 0.950 . S
H1997 C2008 0.950 . S
H1998 C2010 0.950 . S
H1999 C2011 0.950 . S
C2000 H1992 0.950 . S
C2000 C2001 1.386 . S
C2000 C2002 1.391 . S
C2001 C2000 1.386 . S
C2001 C2005 1.393 . S
C2002 H1994 0.950 . S
C2002 C2000 1.391 . S
C2002 C2003 1.400 . S
C2003 C2002 1.400 . S
C2003 C2004 1.398 . S
C2003 C2009 1.491 . S
C2004 H1995 0.950 . S
C2004 C2003 1.398 . S
C2004 C2005 1.391 . S
C2005 H1993 0.950 . S
C2005 C2001 1.393 . S
C2005 C2004 1.391 . S
C2006 H1996 0.950 . S
C2006 C2007 1.386 . S
C2006 C2008 1.391 . S
C2007 C2006 1.386 . S
C2007 C2011 1.393 . S
C2008 H1997 0.950 . S
C2008 C2006 1.391 . S
C2008 C2009 1.400 . S
C2009 C2003 1.491 . S
C2009 C2008 1.400 . S
C2009 C2010 1.398 . S
C2010 H1998 0.950 . S
C2010 C2009 1.398 . S
C2010 C2011 1.391 . S
C2011 H1999 0.950 . S
C2011 C2007 1.393 . S
C2011 C2010 1.391 . S
H2012 C2020 0.950 . S
H2013 C2025 0.950 . S
H2014 C2022 0.950 . S
H2015 C2024 0.950 . S
H2016 C2026 0.950 . S
H2017 C2028 0.950 . S
H2018 C2030 0.950 . S
H2019 C2031 0.950 . S
C2020 H2012 0.950 . S
C2020 C2021 1.386 . S
C2020 C2022 1.391 . S
C2021 C2020 1.386 . S
C2021 C2025 1.393 . S
C2022 H2014 0.950 . S
C2022 C2020 1.391 . S
C2022 C2023 1.400 . S
C2023 C2022 1.400 . S
C2023 C2024 1.398 . S
C2023 C2029 1.491 . S
C2024 H2015 0.950 . S
C2024 C2023 1.398 . S
C2024 C2025 1.391 . S
C2025 H2013 0.950 . S
C2025 C2021 1.393 . S
C2025 C2024 1.391 . S
C2026 H2016 0.950 . S
C2026 C2027 1.386 . S
C2026 C2028 1.391 . S
C2027 C2026 1.386 . S
C2027 C2031 1.393 . S
C2028 H2017 0.950 . S
C2028 C2026 1.391 . S
C2028 C2029 1.400 . S
C2029 C2023 1.491 . S
C2029 C2028 1.400 . S
C2029 C2030 1.398 . S
C2030 H2018 0.950 . S
C2030 C2029 1.398 . S
C2030 C2031 1.391 . S
C2031 H2019 0.950 . S
C2031 C2027 1.393 . S
C2031 C2030 1.391 . S
H2032 C2040 0.950 . S
H2033 C2045 0.950 . S
H2034 C2042 0.950 1_565 S
H2035 C2044 0.950 . S
H2036 C2046 0.950 . S
H2037 C2048 0.950 . S
H2038 C2050 0.950 . S
H2039 C2051 0.950 . S
C2040 H2032 0.950 . S
C2040 C2041 1.386 . S
C2040 C2042 1.391 . S
C2041 C2040 1.386 . S
C2041 C2045 1.393 . S
C2042 H2034 0.950 1_545 S
C2042 C2040 1.391 . S
C2042 C2043 1.401 1_545 S
C2043 C2042 1.401 1_565 S
C2043 C2044 1.403 1_565 S
C2043 C2049 1.486 . S
C2044 H2035 0.950 . S
C2044 C2043 1.403 1_545 S
C2044 C2045 1.391 . S
C2045 H2033 0.950 . S
C2045 C2041 1.393 . S
C2045 C2044 1.391 . S
C2046 H2036 0.950 . S
C2046 C2047 1.386 . S
C2046 C2048 1.391 . S
C2047 C2046 1.386 . S
C2047 C2051 1.393 . S
C2048 H2037 0.950 . S
C2048 C2046 1.391 . S
C2048 C2049 1.400 . S
C2049 C2043 1.486 . S
C2049 C2048 1.400 . S
C2049 C2050 1.398 . S
C2050 H2038 0.950 . S
C2050 C2049 1.398 . S
C2050 C2051 1.391 . S
C2051 H2039 0.950 . S
C2051 C2047 1.393 . S
C2051 C2050 1.391 . S
H2052 C2060 0.950 . S
H2053 C2065 0.950 . S
H2054 C2062 0.950 1_655 S
H2055 C2064 0.950 . S
H2056 C2066 0.950 . S
H2057 C2068 0.950 . S
H2058 C2070 0.950 . S
H2059 C2071 0.950 . S
C2060 H2052 0.950 . S
C2060 C2061 1.386 . S
C2060 C2062 1.391 . S
C2061 C2060 1.386 . S
C2061 C2065 1.393 . S
C2062 H2054 0.950 1_455 S
C2062 C2060 1.391 . S
C2062 C2063 1.400 . S
C2063 C2062 1.400 . S
C2063 C2064 1.398 . S
C2063 C2069 1.491 1_455 S
C2064 H2055 0.950 . S
C2064 C2063 1.398 . S
C2064 C2065 1.391 . S
C2065 H2053 0.950 . S
C2065 C2061 1.393 . S
C2065 C2064 1.391 . S
C2066 H2056 0.950 . S
C2066 C2067 1.386 . S
C2066 C2068 1.391 1_655 S
C2067 C2066 1.386 . S
C2067 C2071 1.393 . S
C2068 H2057 0.950 . S
C2068 C2066 1.391 1_455 S
C2068 C2069 1.400 1_455 S
C2069 C2063 1.491 1_655 S
C2069 C2068 1.400 1_655 S
C2069 C2070 1.398 . S
C2070 H2058 0.950 . S
C2070 C2069 1.398 . S
C2070 C2071 1.391 . S
C2071 H2059 0.950 . S
C2071 C2067 1.393 . S
C2071 C2070 1.391 . S
H2072 C2080 0.950 . S
H2073 C2085 0.950 . S
H2074 C2082 0.950 . S
H2075 C2084 0.950 . S
H2076 C2086 0.950 . S
H2077 C2088 0.950 . S
H2078 C2090 0.950 . S
H2079 C2091 0.950 . S
C2080 H2072 0.950 . S
C2080 C2081 1.386 . S
C2080 C2082 1.391 . S
C2081 C2080 1.386 . S
C2081 C2085 1.393 . S
C2082 H2074 0.950 . S
C2082 C2080 1.391 . S
C2082 C2083 1.400 . S
C2083 C2082 1.400 . S
C2083 C2084 1.398 . S
C2083 C2089 1.491 . S
C2084 H2075 0.950 . S
C2084 C2083 1.398 . S
C2084 C2085 1.391 . S
C2085 H2073 0.950 . S
C2085 C2081 1.393 . S
C2085 C2084 1.391 . S
C2086 H2076 0.950 . S
C2086 C2087 1.386 . S
C2086 C2088 1.391 1_565 S
C2087 C2086 1.386 . S
C2087 C2091 1.393 . S
C2088 H2077 0.950 . S
C2088 C2086 1.391 1_545 S
C2088 C2089 1.400 . S
C2089 C2083 1.491 . S
C2089 C2088 1.400 . S
C2089 C2090 1.398 1_545 S
C2090 H2078 0.950 . S
C2090 C2089 1.398 1_565 S
C2090 C2091 1.391 . S
C2091 H2079 0.950 . S
C2091 C2087 1.393 . S
C2091 C2090 1.391 . S
H2092 C2100 0.950 . S
H2093 C2105 0.950 . S
H2094 C2102 0.950 1_655 S
H2095 C2104 0.950 . S
H2096 C2106 0.950 . S
H2097 C2108 0.950 1_455 S
H2098 C2110 0.950 . S
H2099 C2111 0.950 . S
C2100 H2092 0.950 . S
C2100 C2101 1.386 . S
C2100 C2102 1.391 . S
C2101 C2100 1.386 . S
C2101 C2105 1.393 . S
C2102 H2094 0.950 1_455 S
C2102 C2100 1.391 . S
C2102 C2103 1.400 . S
C2103 C2102 1.400 . S
C2103 C2104 1.398 . S
C2103 C2109 1.491 1_455 S
C2104 H2095 0.950 . S
C2104 C2103 1.398 . S
C2104 C2105 1.391 . S
C2105 H2093 0.950 . S
C2105 C2101 1.393 . S
C2105 C2104 1.391 . S
C2106 H2096 0.950 . S
C2106 C2107 1.386 . S
C2106 C2108 1.391 . S
C2107 C2106 1.386 . S
C2107 C2111 1.393 . S
C2108 H2097 0.950 1_655 S
C2108 C2106 1.391 . S
C2108 C2109 1.400 . S
C2109 C2103 1.491 1_655 S
C2109 C2108 1.400 . S
C2109 C2110 1.398 . S
C2110 H2098 0.950 . S
C2110 C2109 1.398 . S
C2110 C2111 1.391 . S
C2111 H2099 0.950 . S
C2111 C2107 1.393 . S
C2111 C2110 1.391 . S
H2112 C2120 0.950 . S
H2113 C2125 0.950 . S
H2114 C2122 0.950 . S
H2115 C2124 0.950 . S
H2116 C2126 0.950 . S
H2117 C2128 0.950 . S
H2118 C2130 0.950 . S
H2119 C2131 0.950 . S
C2120 H2112 0.950 . S
C2120 C2121 1.386 . S
C2120 C2122 1.391 . S
C2121 C2120 1.386 . S
C2121 C2125 1.393 . S
C2122 H2114 0.950 . S
C2122 C2120 1.391 . S
C2122 C2123 1.400 . S
C2123 C2122 1.400 . S
C2123 C2124 1.398 . S
C2123 C2129 1.491 . S
C2124 H2115 0.950 . S
C2124 C2123 1.398 . S
C2124 C2125 1.391 . S
C2125 H2113 0.950 . S
C2125 C2121 1.393 . S
C2125 C2124 1.391 . S
C2126 H2116 0.950 . S
C2126 C2127 1.386 . S
C2126 C2128 1.391 . S
C2127 C2126 1.386 . S
C2127 C2131 1.393 . S
C2128 H2117 0.950 . S
C2128 C2126 1.391 . S
C2128 C2129 1.400 . S
C2129 C2123 1.491 . S
C2129 C2128 1.400 . S
C2129 C2130 1.398 . S
C2130 H2118 0.950 . S
C2130 C2129 1.398 . S
C2130 C2131 1.391 . S
C2131 H2119 0.950 . S
C2131 C2127 1.393 . S
C2131 C2130 1.391 . S
H2132 C2140 0.950 . S
H2133 C2145 0.950 . S
H2134 C2142 0.950 . S
H2135 C2144 0.950 . S
H2136 C2146 0.950 . S
H2137 C2148 0.950 . S
H2138 C2150 0.950 . S
H2139 C2151 0.950 . S
C2140 H2132 0.950 . S
C2140 C2141 1.386 . S
C2140 C2142 1.391 . S
C2141 C2140 1.386 . S
C2141 C2145 1.393 . S
C2142 H2134 0.950 . S
C2142 C2140 1.391 . S
C2142 C2143 1.400 . S
C2143 C2142 1.400 . S
C2143 C2144 1.398 . S
C2143 C2149 1.491 . S
C2144 H2135 0.950 . S
C2144 C2143 1.398 . S
C2144 C2145 1.391 . S
C2145 H2133 0.950 . S
C2145 C2141 1.393 . S
C2145 C2144 1.391 . S
C2146 H2136 0.950 . S
C2146 C2147 1.386 . S
C2146 C2148 1.391 . S
C2147 C2146 1.386 . S
C2147 C2151 1.393 . S
C2148 H2137 0.950 . S
C2148 C2146 1.391 . S
C2148 C2149 1.400 . S
C2149 C2143 1.491 . S
C2149 C2148 1.400 . S
C2149 C2150 1.398 . S
C2150 H2138 0.950 . S
C2150 C2149 1.398 . S
C2150 C2151 1.391 . S
C2151 H2139 0.950 . S
C2151 C2147 1.393 . S
C2151 C2150 1.391 . S
H2152 C2160 0.950 . S
H2153 C2165 0.950 . S
H2154 C2162 0.950 . S
H2155 C2164 0.950 . S
H2156 C2166 0.950 . S
H2157 C2168 0.950 . S
H2158 C2170 0.950 . S
H2159 C2171 0.950 . S
C2160 H2152 0.950 . S
C2160 C2161 1.386 . S
C2160 C2162 1.391 . S
C2161 C2160 1.386 . S
C2161 C2165 1.393 . S
C2162 H2154 0.950 . S
C2162 C2160 1.391 . S
C2162 C2163 1.400 . S
C2163 C2162 1.400 . S
C2163 C2164 1.398 . S
C2163 C2169 1.491 . S
C2164 H2155 0.950 . S
C2164 C2163 1.398 . S
C2164 C2165 1.391 . S
C2165 H2153 0.950 . S
C2165 C2161 1.393 . S
C2165 C2164 1.391 . S
C2166 H2156 0.950 . S
C2166 C2167 1.386 . S
C2166 C2168 1.391 . S
C2167 C2166 1.386 . S
C2167 C2171 1.393 . S
C2168 H2157 0.950 . S
C2168 C2166 1.391 . S
C2168 C2169 1.400 . S
C2169 C2163 1.491 . S
C2169 C2168 1.400 . S
C2169 C2170 1.398 . S
C2170 H2158 0.950 . S
C2170 C2169 1.398 . S
C2170 C2171 1.391 . S
C2171 H2159 0.950 . S
C2171 C2167 1.393 . S
C2171 C2170 1.391 . S
H2172 C2180 0.950 . S
H2173 C2185 0.950 . S
H2174 C2182 0.950 1_556 S
H2175 C2184 0.950 . S
H2176 C2186 0.950 . S
H2177 C2188 0.950 1_554 S
H2178 C2190 0.950 . S
H2179 C2191 0.950 . S
C2180 H2172 0.950 . S
C2180 C2181 1.386 . S
C2180 C2182 1.391 . S
C2181 C2180 1.386 . S
C2181 C2185 1.393 . S
C2182 H2174 0.950 1_554 S
C2182 C2180 1.391 . S
C2182 C2183 1.400 . S
C2183 C2182 1.400 . S
C2183 C2184 1.398 . S
C2183 C2189 1.491 1_554 S
C2184 H2175 0.950 . S
C2184 C2183 1.398 . S
C2184 C2185 1.391 . S
C2185 H2173 0.950 . S
C2185 C2181 1.393 . S
C2185 C2184 1.391 . S
C2186 H2176 0.950 . S
C2186 C2187 1.386 . S
C2186 C2188 1.391 . S
C2187 C2186 1.386 . S
C2187 C2191 1.393 . S
C2188 H2177 0.950 1_556 S
C2188 C2186 1.391 . S
C2188 C2189 1.400 . S
C2189 C2183 1.491 1_556 S
C2189 C2188 1.400 . S
C2189 C2190 1.398 . S
C2190 H2178 0.950 . S
C2190 C2189 1.398 . S
C2190 C2191 1.391 . S
C2191 H2179 0.950 . S
C2191 C2187 1.393 . S
C2191 C2190 1.391 . S
H2192 C2200 0.950 . S
H2193 C2205 0.950 . S
H2194 C2202 0.950 . S
H2195 C2204 0.950 . S
H2196 C2206 0.950 . S
H2197 C2208 0.950 . S
H2198 C2210 0.950 . S
H2199 C2211 0.950 . S
C2200 H2192 0.950 . S
C2200 C2201 1.386 . S
C2200 C2202 1.391 . S
C2201 C2200 1.386 . S
C2201 C2205 1.393 . S
C2202 H2194 0.950 . S
C2202 C2200 1.391 . S
C2202 C2203 1.400 . S
C2203 C2202 1.400 . S
C2203 C2204 1.398 . S
C2203 C2209 1.491 . S
C2204 H2195 0.950 . S
C2204 C2203 1.398 . S
C2204 C2205 1.391 . S
C2205 H2193 0.950 . S
C2205 C2201 1.393 . S
C2205 C2204 1.391 . S
C2206 H2196 0.950 . S
C2206 C2207 1.386 . S
C2206 C2208 1.391 . S
C2207 C2206 1.386 . S
C2207 C2211 1.393 . S
C2208 H2197 0.950 . S
C2208 C2206 1.391 . S
C2208 C2209 1.400 . S
C2209 C2203 1.491 . S
C2209 C2208 1.400 . S
C2209 C2210 1.398 . S
C2210 H2198 0.950 . S
C2210 C2209 1.398 . S
C2210 C2211 1.391 . S
C2211 H2199 0.950 . S
C2211 C2207 1.393 . S
C2211 C2210 1.391 . S
H2212 C2220 0.950 . S
H2213 C2225 0.950 . S
H2214 C2222 0.950 1_556 S
H2215 C2224 0.950 . S
H2216 C2226 0.950 . S
H2217 C2228 0.950 . S
H2218 C2230 0.950 . S
H2219 C2231 0.950 . S
C2220 H2212 0.950 . S
C2220 C2221 1.386 . S
C2220 C2222 1.391 . S
C2221 C2220 1.386 . S
C2221 C2225 1.393 . S
C2222 H2214 0.950 1_554 S
C2222 C2220 1.391 . S
C2222 C2223 1.400 . S
C2223 C2222 1.400 . S
C2223 C2224 1.398 . S
C2223 C2229 1.491 1_554 S
C2224 H2215 0.950 . S
C2224 C2223 1.398 . S
C2224 C2225 1.391 . S
C2225 H2213 0.950 . S
C2225 C2221 1.393 . S
C2225 C2224 1.391 . S
C2226 H2216 0.950 . S
C2226 C2227 1.386 . S
C2226 C2228 1.391 . S
C2227 C2226 1.386 . S
C2227 C2231 1.393 . S
C2228 H2217 0.950 . S
C2228 C2226 1.391 . S
C2228 C2229 1.400 . S
C2229 C2223 1.491 1_556 S
C2229 C2228 1.400 . S
C2229 C2230 1.398 . S
C2230 H2218 0.950 . S
C2230 C2229 1.398 . S
C2230 C2231 1.391 . S
C2231 H2219 0.950 . S
C2231 C2227 1.393 . S
C2231 C2230 1.391 . S
C1281 C241 1.439 . S
C1287 C29 1.429 . S
C1301 C92 1.470 . S
C1307 C304 1.487 . S
C1321 C347 1.517 . S
C1327 C135 1.528 . S
C1341 C410 1.581 . S
C1347 C198 1.561 . S
C1361 C771 1.293 . S
C1367 C463 1.290 . S
C1381 C824 1.308 . S
C1387 C506 1.289 . S
C1401 C569 1.493 . S
C1407 C675 1.503 . S
C1421 C718 1.308 . S
C1427 C612 1.323 . S
C1441 C877 1.266 . S
C1447 C1142 1.261 . S
C1461 C940 1.595 . S
C1467 C1036 1.573 . S
C1481 C983 1.492 . S
C1487 C1089 1.488 . S
C1501 C1195 1.397 . S
C1507 C1248 1.411 . S
C1521 C188 1.728 . S
C1527 C294 1.728 . S
C1541 C39 2.056 . S
C1547 C357 2.050 . S
C1561 C400 1.734 . S
C1567 C82 1.750 . S
C1581 C145 2.083 . S
C1587 C251 2.084 . S
C1601 C1258 2.147 . S
C1607 C993 2.148 . S
C1621 C1046 2.358 . S
C1627 C1152 2.349 . S
C1641 C1099 2.160 . S
C1647 C1205 2.175 . S
C1661 C930 2.029 . S
C1667 C887 2.029 . S
C1681 C622 2.126 . S
C1687 C516 2.140 . S
C1701 C834 2.206 . S
C1707 C728 2.214 . S
C1721 C665 1.987 . S
C1727 C781 1.985 . S
C1741 C559 1.645 . S
C1747 C453 1.625 . S
C1761 C1188 1.635 . S
C1767 C22 1.639 . S
C1781 C870 1.472 . S
C1787 C91 1.462 . S
C1801 C1241 1.704 . S
C1807 C128 1.703 . S
C1821 C1135 1.502 . S
C1827 C197 1.489 . S
C1841 C976 1.637 . S
C1847 C234 1.638 . S
C1861 C303 1.524 . S
C1867 C1029 1.530 . S
C1881 C1082 1.741 . S
C1887 C340 1.738 . S
C1901 C939 1.485 . S
C1907 C409 1.491 . S
C1921 C711 1.439 . S
C1927 C462 1.427 . S
C1941 C764 1.465 . S
C1947 C499 1.465 . S
C1961 C817 1.303 . S
C1967 C568 1.294 . S
C1981 C605 1.382 . S
C1987 C674 1.377 . S
C2001 C287 1.741 . S
C2007 C552 1.750 . S
C2021 C356 2.007 . S
C2027 C621 2.009 . S
C2041 C446 1.771 . S
C2047 C393 1.773 . S
C2061 C250 1.957 . S
C2067 C515 1.960 . S
C2081 C780 1.797 . S
C2087 C181 1.794 . S
C2101 C38 1.943 . S
C2107 C833 1.943 . S
C2121 C658 1.724 . S
C2127 C75 1.731 . S
C2141 C144 2.014 . S
C2147 C727 2.019 . S
C2161 C923 2.059 . S
C2167 C1257 2.063 . S
C2181 C1151 2.094 . S
C2187 C992 2.096 . S
C2201 C1204 2.135 . S
C2207 C1045 2.139 . S
C2221 C886 2.087 . S
C2227 C1098 2.081 . S
