# Generated by pormake.
# Topology ung, (4)-cn, num edge types: 1
# Building blocks:
#     Node 0, Type 0, BuildingBlock: ESEHIV_clean_sbu_0, # of connection points: 4
#     Node 1, Type 0, BuildingBlock: ESEHIV_clean_sbu_0, # of connection points: 4
#     Node 2, Type 0, BuildingBlock: ESEHIV_clean_sbu_0, # of connection points: 4
#     Node 3, Type 0, BuildingBlock: ESEHIV_clean_sbu_0, # of connection points: 4
#     Node 4, Type 0, BuildingBlock: ESEHIV_clean_sbu_0, # of connection points: 4
#     Node 5, Type 0, BuildingBlock: ESEHIV_clean_sbu_0, # of connection points: 4
#     Node 6, Type 0, BuildingBlock: ESEHIV_clean_sbu_0, # of connection points: 4
#     Node 7, Type 0, BuildingBlock: ESEHIV_clean_sbu_0, # of connection points: 4
#     Node 8, Type 0, BuildingBlock: ESEHIV_clean_sbu_0, # of connection points: 4
#     Node 9, Type 0, BuildingBlock: ESEHIV_clean_sbu_0, # of connection points: 4
#     Node 10, Type 0, BuildingBlock: ESEHIV_clean_sbu_0, # of connection points: 4
#     Node 11, Type 0, BuildingBlock: ESEHIV_clean_sbu_0, # of connection points: 4
#     Node 12, Type 0, BuildingBlock: ESEHIV_clean_sbu_0, # of connection points: 4
#     Node 13, Type 0, BuildingBlock: ESEHIV_clean_sbu_0, # of connection points: 4
#     Node 14, Type 0, BuildingBlock: ESEHIV_clean_sbu_0, # of connection points: 4
#     Node 15, Type 0, BuildingBlock: ESEHIV_clean_sbu_0, # of connection points: 4
#     Node 16, Type 0, BuildingBlock: ESEHIV_clean_sbu_0, # of connection points: 4
#     Node 17, Type 0, BuildingBlock: ESEHIV_clean_sbu_0, # of connection points: 4
#     Edge 18, Type (0, 0), BuildingBlock: XUDNAN_clean_linker_2, # of connection points: 2
#     Edge 19, Type (0, 0), BuildingBlock: XUDNAN_clean_linker_2, # of connection points: 2
#     Edge 20, Type (0, 0), BuildingBlock: XUDNAN_clean_linker_2, # of connection points: 2
#     Edge 21, Type (0, 0), BuildingBlock: XUDNAN_clean_linker_2, # of connection points: 2
#     Edge 22, Type (0, 0), BuildingBlock: XUDNAN_clean_linker_2, # of connection points: 2
#     Edge 23, Type (0, 0), BuildingBlock: XUDNAN_clean_linker_2, # of connection points: 2
#     Edge 24, Type (0, 0), BuildingBlock: XUDNAN_clean_linker_2, # of connection points: 2
#     Edge 25, Type (0, 0), BuildingBlock: XUDNAN_clean_linker_2, # of connection points: 2
#     Edge 26, Type (0, 0), BuildingBlock: XUDNAN_clean_linker_2, # of connection points: 2
#     Edge 27, Type (0, 0), BuildingBlock: XUDNAN_clean_linker_2, # of connection points: 2
#     Edge 28, Type (0, 0), BuildingBlock: XUDNAN_clean_linker_2, # of connection points: 2
#     Edge 29, Type (0, 0), BuildingBlock: XUDNAN_clean_linker_2, # of connection points: 2
#     Edge 30, Type (0, 0), BuildingBlock: XUDNAN_clean_linker_2, # of connection points: 2
#     Edge 31, Type (0, 0), BuildingBlock: XUDNAN_clean_linker_2, # of connection points: 2
#     Edge 32, Type (0, 0), BuildingBlock: XUDNAN_clean_linker_2, # of connection points: 2
#     Edge 33, Type (0, 0), BuildingBlock: XUDNAN_clean_linker_2, # of connection points: 2
#     Edge 34, Type (0, 0), BuildingBlock: XUDNAN_clean_linker_2, # of connection points: 2
#     Edge 35, Type (0, 0), BuildingBlock: XUDNAN_clean_linker_2, # of connection points: 2
#     Edge 36, Type (0, 0), BuildingBlock: XUDNAN_clean_linker_2, # of connection points: 2
#     Edge 37, Type (0, 0), BuildingBlock: XUDNAN_clean_linker_2, # of connection points: 2
#     Edge 38, Type (0, 0), BuildingBlock: XUDNAN_clean_linker_2, # of connection points: 2
#     Edge 39, Type (0, 0), BuildingBlock: XUDNAN_clean_linker_2, # of connection points: 2
#     Edge 40, Type (0, 0), BuildingBlock: XUDNAN_clean_linker_2, # of connection points: 2
#     Edge 41, Type (0, 0), BuildingBlock: XUDNAN_clean_linker_2, # of connection points: 2
#     Edge 42, Type (0, 0), BuildingBlock: XUDNAN_clean_linker_2, # of connection points: 2
#     Edge 43, Type (0, 0), BuildingBlock: XUDNAN_clean_linker_2, # of connection points: 2
#     Edge 44, Type (0, 0), BuildingBlock: XUDNAN_clean_linker_2, # of connection points: 2
#     Edge 45, Type (0, 0), BuildingBlock: XUDNAN_clean_linker_2, # of connection points: 2
#     Edge 46, Type (0, 0), BuildingBlock: XUDNAN_clean_linker_2, # of connection points: 2
#     Edge 47, Type (0, 0), BuildingBlock: XUDNAN_clean_linker_2, # of connection points: 2
#     Edge 48, Type (0, 0), BuildingBlock: XUDNAN_clean_linker_2, # of connection points: 2
#     Edge 49, Type (0, 0), BuildingBlock: XUDNAN_clean_linker_2, # of connection points: 2
#     Edge 50, Type (0, 0), BuildingBlock: XUDNAN_clean_linker_2, # of connection points: 2
#     Edge 51, Type (0, 0), BuildingBlock: XUDNAN_clean_linker_2, # of connection points: 2
#     Edge 52, Type (0, 0), BuildingBlock: XUDNAN_clean_linker_2, # of connection points: 2
#     Edge 53, Type (0, 0), BuildingBlock: XUDNAN_clean_linker_2, # of connection points: 2
# Relax obj value: 0.012
# Max RMSD: 0.189
# Mean RMSD: 0.159
data_MOF--net-ung--node1-ESEHIV_clean_sbu_0--edge1-XUDNAN_clean_linker_2
_symmetry_space_group_name_H-M    P1
_symmetry_Int_Tables_number       1
_symmetry_cell_setting            triclinic
loop_
_symmetry_equiv_pos_as_xyz
'x, y, z'
_cell_length_a     89.315896
_cell_length_b     88.140192
_cell_length_c     21.401046
_cell_angle_alpha  96.625959
_cell_angle_beta   86.635472
_cell_angle_gamma 122.3337
loop_
_atom_site_label
_atom_site_type_symbol
_atom_site_fract_x
_atom_site_fract_y
_atom_site_fract_z
_atom_type_partial_charge
Cu0 Cu 0.04986 0.59542 0.23389 0.0
N1 N 0.04131 0.58089 0.30034 0.0
N2 N 0.03914 0.56211 0.36714 0.0
C3 C 0.04355 0.56727 0.30845 0.0
C4 C 0.03392 0.57283 0.39706 0.0
C5 C 0.03525 0.58439 0.35571 0.0
O6 O 0.05474 0.58207 0.16458 0.0
C7 C 0.07888 0.63355 0.24964 0.0
O8 O 0.07767 0.63475 0.18978 0.0
H9 H 0.04954 0.56219 0.2737 0.0
H10 H 0.033 0.59531 0.36633 0.0
N11 N 0.03257 0.59939 0.20841 0.0
N12 N 1.01899 0.60988 0.15865 0.0
C13 C 0.03418 0.61027 0.16558 0.0
C14 C 1.01579 0.59174 0.22907 0.0
C15 C 1.0074 0.59813 0.19861 0.0
C16 C 0.04091 0.56737 0.14323 0.0
O17 O 1.0255 0.56338 0.1674 0.0
H18 H 0.04629 0.61834 0.14033 0.0
H19 H 1.01 0.58205 0.26353 0.0
O20 O 0.0696 0.61831 0.27161 0.0
H21 H 0.03009 0.57278 0.44602 0.0
H22 H 0.99371 0.59413 0.20511 0.0
Cu23 Cu 0.49893 0.47411 0.18459 0.0
N24 N 0.50209 0.48741 0.11783 0.0
N25 N 0.51541 0.5061 0.04256 0.0
C26 C 0.5176 0.49864 0.0903 0.0
C27 C 0.49779 0.49919 0.04024 0.0
C28 C 0.48963 0.48768 0.08663 0.0
O29 O 0.52156 0.488 0.22945 0.0
C30 C 0.48466 0.43544 0.17293 0.0
O31 O 0.48174 0.43597 0.23378 0.0
H32 H 0.53023 0.50139 0.10558 0.0
H33 H 0.4756 0.47996 0.09673 0.0
N34 N 0.48113 0.47364 0.23729 0.0
N35 N 0.45631 0.46508 0.29368 0.0
C36 C 0.4649 0.45973 0.25126 0.0
C37 C 0.48273 0.48827 0.27109 0.0
C38 C 0.46756 0.48309 0.30574 0.0
C39 C 0.52367 0.48917 0.28854 0.0
O40 O 0.51024 0.4784 0.32309 0.0
H41 H 0.4596 0.44598 0.2313 0.0
H42 H 0.49427 0.5018 0.2708 0.0
O43 O 0.49242 0.45004 0.14649 0.0
H44 H 0.49116 0.50199 1.00679 0.0
H45 H 0.46507 0.49204 0.33709 0.0
Cu46 Cu 0.6178 0.02864 0.30536 0.0
N47 N 0.60438 0.01959 0.23109 0.0
N48 N 0.58564 0.01461 0.15513 0.0
C49 C 0.59442 0.02498 0.20791 0.0
C50 C 0.59032 1.0023 0.14459 0.0
C51 C 0.60188 1.00543 0.19136 0.0
O52 O 0.60454 0.03418 0.37007 0.0
C53 C 0.65094 0.04683 0.24659 0.0
O54 O 0.6445 0.03073 0.21614 0.0
H55 H 0.59317 0.0359 0.2302 0.0
H56 H 0.60789 0.99776 0.19658 0.0
N57 N 0.62007 1.01049 0.33203 0.0
N58 N 0.63127 0.99567 0.36781 0.0
C59 C 0.63477 1.01165 0.3515 0.0
C60 C 0.60685 0.99327 0.33621 0.0
C61 C 0.61369 0.9841 0.35812 0.0
C62 C 0.60207 0.04712 0.36974 0.0
O63 O 0.61012 0.05856 0.32709 0.0
H64 H 0.64768 0.02402 0.35448 0.0
H65 H 0.59318 0.98779 0.32394 0.0
O66 O 0.64139 0.04918 0.28848 0.0
H67 H 0.58571 0.99177 0.10585 0.0
H68 H 0.60628 0.96994 0.36552 0.0
Cu69 Cu 0.06513 0.46545 0.74615 0.0
N70 N 0.07331 0.48256 0.68784 0.0
N71 N 0.07249 0.49885 0.61687 0.0
C72 C 0.06402 0.4827 0.64059 0.0
C73 C 0.08767 0.50921 0.65006 0.0
C74 C 0.08814 0.49915 0.69367 0.0
O75 O 0.05454 0.47341 0.81416 0.0
C76 C 0.03322 0.43492 0.68605 0.0
O77 O 1.02631 0.44492 0.6951 0.0
H78 H 0.05079 0.47172 0.627 0.0
H79 H 0.09809 0.50401 0.72979 0.0
N80 N 0.0839 0.46482 0.77789 0.0
N81 N 0.09848 0.45639 0.8324 0.0
C82 C 0.0829 0.45504 0.82379 0.0
C83 C 0.10063 0.47254 0.75644 0.0
C84 C 0.10966 0.46747 0.79013 0.0
C85 C 0.06475 0.48775 0.8496 0.0
O86 O 0.08197 0.49556 0.84274 0.0
H87 H 0.07088 0.4469 0.8496 0.0
H88 H 0.10576 0.48075 0.71752 0.0
O89 O 0.04891 0.44127 0.70531 0.0
H90 H 0.09737 0.52328 0.64484 0.0
H91 H 0.12321 0.47107 0.78217 0.0
Cu92 Cu 0.64831 0.60978 0.64401 0.0
N93 N 0.6387 0.597 0.71514 0.0
N94 N 0.61873 0.5811 0.78719 0.0
C95 C 0.6216 0.5888 0.73309 0.0
C96 C 0.6347 0.58452 0.80368 0.0
C97 C 0.64699 0.59437 0.75927 0.0
O98 O 0.63047 0.59752 0.57672 0.0
C99 C 0.64862 0.64003 0.71171 0.0
O100 O 0.63415 0.62773 0.73817 0.0
H101 H 0.61147 0.58852 0.70668 0.0
H102 H 0.66101 0.59945 0.75953 0.0
N103 N 0.66845 0.60952 0.61551 0.0
N104 N 0.69427 0.61726 0.56765 0.0
C105 C 0.68256 0.62224 0.58523 0.0
C106 C 0.67134 0.59609 0.61735 0.0
C107 C 0.68721 0.60081 0.58802 0.0
C108 C 0.62194 0.5803 0.56859 0.0
O109 O 0.62551 0.57161 0.60506 0.0
H110 H 0.68393 0.63464 0.57476 0.0
H111 H 0.6624 0.58362 0.63788 0.0
O112 O 0.65586 0.63506 0.66784 0.0
H113 H 0.63743 0.5806 0.84561 0.0
H114 H 0.69309 0.59273 0.5823 0.0
Cu115 Cu 0.49176 0.04682 0.76844 0.0
N116 N 0.50542 0.0516 0.84002 0.0
N117 N 0.519 0.04729 0.9148 0.0
C118 C 0.5086 0.03995 0.86284 0.0
C119 C 0.52219 0.06417 0.92571 0.0
C120 C 0.51373 0.06674 0.87991 0.0
O121 O 0.50375 0.04371 0.69264 0.0
C122 C 0.45896 0.0291 0.82715 0.0
O123 O 0.46621 0.04522 0.85818 0.0
H124 H 0.50337 0.02634 0.84146 0.0
H125 H 0.51353 0.07876 0.87668 0.0
N126 N 0.49021 0.06665 0.75606 0.0
N127 N 0.48059 0.0827 0.71846 0.0
C128 C 0.47657 0.0661 0.72959 0.0
C129 C 0.50337 0.08415 0.76129 0.0
C130 C 0.49745 0.09407 0.73883 0.0
C131 C 0.51168 0.03516 0.68395 0.0
O132 O 0.51059 0.02508 0.72671 0.0
H133 H 0.46432 0.05363 0.71562 0.0
H134 H 0.51666 0.08926 0.77729 0.0
O135 O 0.46784 0.02641 0.78317 0.0
H136 H 0.52988 0.07395 0.96443 0.0
H137 H 0.50521 0.1085 0.7363 0.0
Cu138 Cu 0.73266 0.94712 0.64234 0.0
N139 N 0.72764 0.93323 0.70945 0.0
N140 N 0.72694 0.91424 0.77222 0.0
C141 C 0.73131 0.92044 0.71483 0.0
C142 C 0.72045 0.92362 0.80412 0.0
C143 C 0.72107 0.93541 0.76558 0.0
O144 O 0.73936 0.93624 0.56991 0.0
C145 C 0.75195 0.98613 0.66421 0.0
O146 O 0.74163 0.98523 0.62092 0.0
H147 H 0.73723 0.91593 0.67773 0.0
H148 H 0.71746 0.94528 0.7782 0.0
N149 N 0.71219 0.94657 0.6213 0.0
N150 N 0.69414 0.95222 0.57408 0.0
C151 C 0.70987 0.95331 0.57178 0.0
C152 C 0.69717 0.94049 0.65493 0.0
C153 C 0.68609 0.94398 0.62618 0.0
C154 C 0.72754 0.92009 0.54969 0.0
O155 O 0.71203 0.91236 0.57759 0.0
H156 H 0.71977 0.95935 0.53577 0.0
H157 H 0.69458 0.93436 0.69835 0.0
O158 O 0.75109 0.97176 0.67523 0.0
H159 H 0.71619 0.92254 0.85267 0.0
H160 H 0.67342 0.94138 0.64407 0.0
Cu161 Cu 0.15451 0.80162 0.57687 0.0
N162 N 0.16928 0.80805 0.64616 0.0
N163 N 0.18884 0.82561 0.72331 0.0
C164 C 0.17768 0.82432 0.67992 0.0
C165 C 0.18725 0.80936 0.71636 0.0
C166 C 0.17526 0.79861 0.66869 0.0
O167 O 0.16641 0.82338 0.53221 0.0
C168 C 0.12396 0.78518 0.65306 0.0
O169 O 0.13324 0.77999 0.67915 0.0
H170 H 0.17578 0.83507 0.67176 0.0
H171 H 0.17154 0.78508 0.65046 0.0
N172 N 0.1537 0.78233 0.526 0.0
N173 N 0.14423 0.75518 0.47391 0.0
C174 C 0.14008 0.765 0.51631 0.0
C175 C 0.16692 0.78335 0.4893 0.0
C176 C 0.16108 0.76669 0.45676 0.0
C177 C 0.16897 0.82432 0.47311 0.0
O178 O 0.16083 0.8095 0.43441 0.0
H179 H 0.12732 0.75979 0.53897 0.0
H180 H 0.17986 0.79547 0.48594 0.0
O181 O 0.13066 0.79476 0.60684 0.0
H182 H 0.19468 0.80563 0.74211 0.0
H183 H 0.16869 0.76324 0.42366 0.0
Cu184 Cu 0.30009 0.37787 0.62077 0.0
N185 N 0.2905 0.3849 0.68985 0.0
N186 N 0.27041 0.38235 0.76264 0.0
C187 C 0.27349 0.375 0.70835 0.0
C188 C 0.28613 0.39752 0.7789 0.0
C189 C 0.29853 0.39897 0.73423 0.0
O190 O 0.28261 0.36854 0.55307 0.0
C191 C 0.30947 0.35062 0.62576 0.0
O192 O 0.30962 0.34832 0.56404 0.0
H193 H 0.26366 0.36244 0.68285 0.0
H194 H 0.31253 0.40918 0.73554 0.0
N195 N 0.32154 0.39728 0.59337 0.0
N196 N 0.34694 0.41254 0.54027 0.0
C197 C 0.33318 0.39611 0.55314 0.0
C198 C 0.3281 0.41506 0.60603 0.0
C199 C 0.34375 0.42448 0.57369 0.0
C200 C 0.27915 0.38012 0.53998 0.0
O201 O 0.28785 0.39632 0.57054 0.0
H202 H 0.3315 0.38342 0.53348 0.0
H203 H 0.32171 0.42082 0.63519 0.0
O204 O 0.30504 0.36124 0.65322 0.0
H205 H 0.28869 0.40648 0.82147 0.0
H206 H 0.35183 0.43899 0.57324 0.0
Cu207 Cu 0.73081 0.80244 0.07273 0.0
N208 N 0.72552 0.8104 0.1514 0.0
N209 N 0.72528 0.82866 0.23322 0.0
C210 C 0.73175 0.82764 0.1751 0.0
C211 C 0.71464 0.81136 0.24639 0.0
C212 C 0.71486 0.80018 0.19609 0.0
O213 O 0.73756 0.82071 0.01548 0.0
C214 C 0.75924 0.80222 0.12865 0.0
O215 O 0.75927 0.81384 0.1731 0.0
H216 H 0.74069 0.83916 0.14981 0.0
H217 H 0.7078 0.78561 0.19242 0.0
N218 N 0.71108 0.78094 0.03765 0.0
N219 N 0.69533 0.75522 0.97485 0.0
C220 C 0.71165 0.76961 0.99087 0.0
C221 C 0.69382 0.77353 0.05181 0.0
C222 C 0.68408 0.75765 1.01332 0.0
C223 C 0.72635 0.82509 1.00811 0.0
O224 O 0.71136 0.81721 0.0393 0.0
H225 H 0.72387 0.77185 0.9696 0.0
H226 H 0.68866 0.77931 0.08729 0.0
O227 O 0.74894 0.79687 0.0815 0.0
H228 H 0.70741 0.80705 0.28975 0.0
H229 H 0.6698 0.74878 1.01307 0.0
Cu230 Cu 0.30081 0.94479 0.11703 0.0
N231 N 0.29184 0.93211 0.1889 0.0
N232 N 0.27346 0.91615 0.26419 0.0
C233 C 0.27482 0.92257 0.20837 0.0
C234 C 0.29014 0.92178 0.28033 0.0
C235 C 0.3014 0.93144 0.23364 0.0
O236 O 0.28268 0.93235 0.05133 0.0
C237 C 0.31734 0.97896 0.18651 0.0
O238 O 0.32334 0.97143 0.21844 0.0
H239 H 0.26375 0.9208 0.18313 0.0
H240 H 0.31564 0.93781 0.23287 0.0
N241 N 0.32095 0.94467 0.08685 0.0
N242 N 0.3457 0.95106 0.03335 0.0
C243 C 0.33442 0.95654 0.05187 0.0
C244 C 0.32394 0.93139 0.09087 0.0
C245 C 0.33912 0.93526 0.05801 0.0
C246 C 0.27553 0.91536 0.03882 0.0
O247 O 0.28056 0.90698 0.07086 0.0
H248 H 0.33553 0.96856 0.03827 0.0
H249 H 0.3154 0.91946 0.11479 0.0
O250 O 0.30727 0.96979 0.13918 0.0
H251 H 0.29389 0.91913 0.32307 0.0
H252 H 0.34481 0.927 0.05234 0.0
Cu253 Cu 0.15956 0.37318 0.14221 0.0
N254 N 0.17291 0.3787 0.21492 0.0
N255 N 0.19101 0.37915 0.28425 0.0
C256 C 0.18298 0.3722 0.2274 0.0
C257 C 0.18568 0.39035 0.30831 0.0
C258 C 0.17452 0.39001 0.26561 0.0
O259 O 0.17242 0.3696 0.07165 0.0
C260 C 0.12588 0.3552 0.19425 0.0
O261 O 0.1323 0.3714 0.2238 0.0
H262 H 0.18459 0.36281 0.19495 0.0
H263 H 0.16802 0.3975 0.2711 0.0
N264 N 0.15785 0.39269 0.12674 0.0
N265 N 0.1482 0.40847 0.08764 0.0
C266 C 0.14482 0.39188 0.09485 0.0
C267 C 0.16991 0.41037 0.1401 0.0
C268 C 0.16399 0.42014 0.11615 0.0
C269 C 0.17163 0.35502 0.05186 0.0
O270 O 0.16045 0.34016 0.07789 0.0
H271 H 0.13338 0.37934 0.0756 0.0
H272 H 0.18229 0.41577 0.16449 0.0
O273 O 0.1357 0.35257 0.15455 0.0
H274 H 0.18939 0.39811 0.35391 0.0
H275 H 0.17084 0.4347 0.11935 0.0
Cu276 Cu 0.39149 0.27885 0.89097 0.0
N277 N 0.38332 0.26667 0.96354 0.0
N278 N 0.38158 0.25235 0.04585 0.0
C279 C 0.39106 0.2602 0.9949 0.0
C280 C 0.36743 0.25405 0.04677 0.0
C281 C 0.36849 0.2628 0.99578 0.0
O282 O 0.39838 0.26564 0.82806 0.0
C283 C 0.40982 0.31226 0.96549 0.0
O284 O 0.39552 0.30412 1.00006 0.0
H285 H 0.40341 0.26127 0.98074 0.0
H286 H 0.35915 0.26619 0.98311 0.0
N287 N 0.3731 0.27902 0.85397 0.0
N288 N 0.35707 0.28814 0.81291 0.0
C289 C 0.37096 0.29294 0.85023 0.0
C290 C 0.3601 0.26502 0.81825 0.0
C291 C 0.35022 0.27058 0.79283 0.0
C292 C 0.39103 0.24855 0.8259 0.0
O293 O 0.37939 0.23972 0.86894 0.0
H294 H 0.37979 0.30644 0.87234 0.0
H295 H 0.35824 0.25178 0.80991 0.0
O296 O 0.41094 0.30375 0.91471 0.0
H297 H 0.35692 0.24905 0.08129 0.0
H298 H 0.33891 0.26237 0.76174 0.0
Cu299 Cu 0.81427 0.13582 0.99334 0.0
N300 N 0.82188 0.14887 0.92258 0.0
N301 N 0.83967 0.16494 0.84669 0.0
C302 C 0.83684 0.15358 0.88954 0.0
C303 C 0.82595 0.16734 0.8524 0.0
C304 C 0.81491 0.15729 0.89887 0.0
O305 O 0.83369 0.14807 0.05519 0.0
C306 C 0.79747 0.10314 0.91707 0.0
O307 O 0.79121 0.11155 0.89183 0.0
H308 H 0.84595 0.14957 0.89912 0.0
H309 H 0.80295 0.15665 0.91553 0.0
N310 N 0.79492 0.13625 0.03091 0.0
N311 N 0.76992 0.12925 0.08376 0.0
C312 C 0.77974 0.12295 0.0548 0.0
C313 C 0.79463 0.15135 0.04524 0.0
C314 C 0.77929 0.1471 0.07729 0.0
C315 C 0.84386 0.16526 0.05965 0.0
O316 O 0.84132 0.1744 0.02185 0.0
H317 H 0.77632 0.10912 0.05311 0.0
H318 H 0.8051 0.16466 0.03434 0.0
O319 O 0.8077 0.1111 0.9648 0.0
H320 H 0.82422 0.176 0.82562 0.0
H321 H 0.77543 0.15653 0.09488 0.0
Cu322 Cu 0.96986 0.70834 0.87704 0.0
N323 N 0.95378 0.70255 0.81241 0.0
N324 N 0.93881 0.70629 0.74152 0.0
C325 C 0.95279 0.71446 0.78145 0.0
C326 C 0.931 0.68847 0.74642 0.0
C327 C 0.94027 0.68621 0.78995 0.0
O328 O 0.96198 0.71612 0.95509 0.0
C329 C 1.00853 0.73205 0.86945 0.0
O330 O 1.00959 0.72771 0.92499 0.0
H331 H 0.9619 0.72891 0.78968 0.0
H332 H 0.93702 0.67353 0.80521 0.0
N333 N 0.96841 0.68725 0.8953 0.0
N334 N 0.9747 0.66838 0.93145 0.0
C335 C 0.98129 0.68419 0.90631 0.0
C336 C 0.95329 0.67285 0.91376 0.0
C337 C 0.95707 0.6612 0.93554 0.0
C338 C 0.95153 0.72192 0.95894 0.0
O339 O 0.94788 0.72643 0.90823 0.0
H340 H 0.99525 0.69376 0.89986 0.0
H341 H 0.94049 0.67146 0.91495 0.0
O342 O 0.99336 0.72592 0.84553 0.0
H343 H 0.91898 0.67782 0.72254 0.0
H344 H 0.94761 0.6487 0.9551 0.0
Cu345 Cu 0.39546 0.14143 0.39481 0.0
N346 N 0.40321 0.15658 0.33022 0.0
N347 N 0.40524 0.17713 0.2718 0.0
C348 C 0.39842 0.16844 0.32405 0.0
C349 C 0.41466 0.17031 0.24377 0.0
C350 C 0.41334 0.1576 0.27985 0.0
O351 O 0.38747 0.15312 0.45942 0.0
C352 C 0.36861 0.10314 0.38518 0.0
O353 O 0.37069 0.10398 0.44594 0.0
H354 H 0.3896 0.17019 0.35655 0.0
H355 H 0.41918 0.14955 0.26971 0.0
N356 N 0.41433 0.1404 0.42406 0.0
N357 N 0.42956 0.1316 0.47322 0.0
C358 C 0.41352 0.12912 0.46361 0.0
C359 C 0.43152 0.15048 0.40834 0.0
C360 C 0.44092 0.14509 0.43835 0.0
C361 C 0.39166 0.15698 0.51755 0.0
O362 O 0.39967 0.15015 0.54187 0.0
H363 H 0.40145 0.11952 0.48588 0.0
H364 H 0.43687 0.16095 0.37685 0.0
O365 O 0.37706 0.11753 0.35761 0.0
H366 H 0.42199 0.17417 0.20037 0.0
H367 H 0.45499 0.15056 0.43374 0.0
Cu368 Cu 0.96437 0.27361 0.4516 0.0
N369 N 0.95843 0.26523 0.53132 0.0
N370 N 0.94203 0.24768 0.60647 0.0
C371 C 0.94556 0.24847 0.54429 0.0
C372 C 0.95313 0.2645 0.63371 0.0
C373 C 0.96325 0.27527 0.58733 0.0
O374 O 0.94323 0.25736 0.40037 0.0
C375 C 0.9857 0.31083 0.48853 0.0
O376 O 0.99644 0.30598 0.50418 0.0
H377 H 0.93803 0.23744 0.50854 0.0
H378 H 0.97265 0.28966 0.59384 0.0
N379 N 0.98304 0.27143 0.41759 0.0
N380 N 1.00755 0.27644 0.36567 0.0
C381 C 0.99723 0.28305 0.3847 0.0
C382 C 0.98441 0.25702 0.41921 0.0
C383 C 0.99948 0.26005 0.3873 0.0
C384 C 0.9422 0.25568 0.34063 0.0
O385 O 0.95593 0.26684 0.30802 0.0
H386 H 0.99976 0.29594 0.37406 0.0
H387 H 0.97502 0.24509 0.44184 0.0
O388 O 0.971 0.29887 0.46178 0.0
H389 H 0.95338 0.26883 0.68329 0.0
H390 H 1.00423 0.25096 0.38121 0.0
Cu391 Cu 0.84285 0.72424 0.33665 0.0
N392 N 0.85489 0.73257 0.41394 0.0
N393 N 0.87256 0.73751 0.49376 0.0
C394 C 0.86662 0.72918 0.43547 0.0
C395 C 0.86426 0.74646 0.50943 0.0
C396 C 0.85337 0.74335 0.4603 0.0
O397 O 0.85758 0.72034 0.27363 0.0
C398 C 0.80842 0.70431 0.38482 0.0
O399 O 0.81274 0.72053 0.40908 0.0
H400 H 0.87093 0.72102 0.40881 0.0
H401 H 0.84489 0.74859 0.45853 0.0
N402 N 0.84012 0.7424 0.31236 0.0
N403 N 0.82921 0.7571 0.27356 0.0
C404 C 0.82676 0.74081 0.27986 0.0
C405 C 0.85142 0.76024 0.32633 0.0
C406 C 0.84471 0.76932 0.30279 0.0
C407 C 0.86132 0.70832 0.27528 0.0
O408 O 0.85368 0.69675 0.31768 0.0
H409 H 0.81533 0.72798 0.26243 0.0
H410 H 0.86367 0.76622 0.35225 0.0
O411 O 0.81956 0.70263 0.34936 0.0
H412 H 0.86569 0.75442 0.5537 0.0
H413 H 0.85087 0.78382 0.30633 0.0
H414 H 0.08352 0.51905 0.92814 0.0
H415 H 0.02992 0.47705 0.86975 0.0
H416 H 1.01838 0.49324 0.93725 0.0
H417 H 0.07302 0.52716 0.09031 0.0
H418 H 0.08875 0.55116 0.09434 0.0
H419 H 0.09274 0.53605 0.04273 0.0
H420 H 0.09564 0.55344 0.94854 0.0
H421 H 0.0915 0.56852 0.99973 0.0
H422 H 0.0778 0.55625 0.93116 0.0
H423 H 1.01272 0.51423 1.00836 0.0
H424 H 1.01287 0.53779 0.08236 0.0
H425 H 0.07024 0.5666 0.09583 0.0
C426 C 0.06932 0.51314 0.92985 0.0
C427 C 0.05761 0.4967 0.89356 0.0
C428 C 0.03915 0.48954 0.89715 0.0
C429 C 0.03248 0.49868 0.93524 0.0
C430 C 0.04442 0.51496 0.96958 0.0
C431 C 0.06244 0.52209 0.96763 0.0
C432 C 0.07239 0.53987 1.00902 0.0
C433 C 0.08231 0.53847 0.06226 0.0
C434 C 0.08508 0.55544 0.96975 0.0
C435 C 0.05714 0.54168 0.03443 0.0
C436 C 0.04115 0.52714 1.01086 0.0
C437 C 1.02515 0.52563 0.02723 0.0
C438 C 1.02542 0.53916 0.06942 0.0
C439 C 0.04157 0.55412 0.09518 0.0
C440 C 0.05768 0.55543 0.07682 0.0
H441 H 0.60873 0.55531 0.86747 0.0
H442 H 0.59115 0.58589 0.78455 0.0
H443 H 0.56285 0.57 0.84125 0.0
H444 H 0.56659 0.51346 0.86215 0.0
H445 H 0.56955 0.50762 0.93648 0.0
H446 H 0.58855 0.52147 0.88959 0.0
H447 H 0.60196 0.54617 0.9837 0.0
H448 H 0.583 0.5324 0.03087 0.0
H449 H 0.58917 0.55505 0.02061 0.0
H450 H 0.53642 0.5509 0.90711 0.0
H451 H 0.51366 0.52975 0.97682 0.0
H452 H 0.54814 0.5113 0.0169 0.0
C453 C 0.59901 0.55878 0.86159 0.0
C454 C 0.60222 0.57184 0.82111 0.0
C455 C 0.58897 0.57577 0.81431 0.0
C456 C 0.57286 0.56689 0.84673 0.0
C457 C 0.57012 0.55408 0.88596 0.0
C458 C 0.5828 0.55 0.89355 0.0
C459 C 0.5764 0.53553 0.93817 0.0
C460 C 0.5752 0.51851 0.90457 0.0
C461 C 0.58835 0.54272 0.99681 0.0
C462 C 0.55816 0.53213 0.95444 0.0
C463 C 0.55483 0.54299 0.92384 0.0
C464 C 0.53887 0.54228 0.93117 0.0
C465 C 0.52594 0.5301 0.97068 0.0
C466 C 0.52896 0.51871 1.00248 0.0
C467 C 0.54539 0.51987 0.99407 0.0
H468 H 0.58666 0.04512 0.13555 0.0
H469 H 0.5567 0.98698 0.09239 0.0
H470 H 0.5357 0.98899 0.02898 0.0
H471 H 0.54911 0.05078 0.14728 0.0
H472 H 0.56054 0.07152 0.1104 0.0
H473 H 0.57285 0.06546 0.1544 0.0
H474 H 0.59255 0.06822 0.05715 0.0
H475 H 0.58032 0.07431 1.01292 0.0
H476 H 0.58226 0.05543 0.9835 0.0
H477 H 0.51806 0.9973 0.97003 0.0
H478 H 0.50567 1.01132 0.91569 0.0
H479 H 0.54774 0.06431 0.99369 0.0
C480 C 0.57556 0.03282 0.1133 0.0
C481 C 0.57329 0.01588 0.11897 0.0
C482 C 0.55879 1.0001 0.0882 0.0
C483 C 0.54673 1.0011 0.05244 0.0
C484 C 0.5494 0.018 0.04756 0.0
C485 C 0.56349 0.0336 0.07685 0.0
C486 C 0.5637 0.05012 0.06196 0.0
C487 C 0.56141 0.06005 0.1221 0.0
C488 C 0.58072 0.06276 0.02678 0.0
C489 C 0.54754 0.04137 0.01961 0.0
C490 C 0.53943 0.02283 1.01233 0.0
C491 C 0.52435 1.01182 0.97515 0.0
C492 C 0.51747 0.01997 0.94403 0.0
C493 C 0.52571 0.03901 0.94966 0.0
C494 C 0.54091 0.04975 0.98858 0.0
H495 H 0.58503 0.02772 0.47123 0.0
H496 H 0.58893 0.06878 0.36499 0.0
H497 H 0.56569 0.06942 0.43129 0.0
H498 H 0.53799 1.00352 0.49412 0.0
H499 H 0.53893 0.99898 0.57332 0.0
H500 H 0.55597 1.00172 0.51784 0.0
H501 H 0.57999 0.02711 0.59413 0.0
H502 H 0.56304 0.02434 0.65006 0.0
H503 H 0.57832 0.04617 0.62323 0.0
H504 H 0.54142 0.06509 0.5074 0.0
H505 H 0.51951 0.05779 0.59274 0.0
H506 H 0.53166 0.02 0.65174 0.0
C507 C 0.58106 0.03691 0.46207 0.0
C508 C 0.58887 0.0482 0.41268 0.0
C509 C 0.58327 0.06005 0.40254 0.0
C510 C 0.56999 0.06046 0.43984 0.0
C511 C 0.56246 0.04903 0.48756 0.0
C512 C 0.56791 0.03761 0.49927 0.0
C513 C 0.55785 0.02695 0.55434 0.0
C514 C 0.54704 1.00658 0.53364 0.0
C515 C 0.57056 0.03142 0.60865 0.0
C516 C 0.54584 0.0341 0.57151 0.0
C517 C 0.54865 0.04675 0.53213 0.0
C518 C 0.53915 0.05524 0.53862 0.0
C519 C 0.52665 0.05094 0.58722 0.0
C520 C 0.52377 0.03829 0.62919 0.0
C521 C 0.53345 0.02968 0.62052 0.0
H522 H 0.05325 0.56701 0.48168 0.0
H523 H 0.03201 0.52952 0.31408 0.0
H524 H 0.03734 0.50833 0.36117 0.0
H525 H 0.08838 0.56008 0.50459 0.0
H526 H 0.08725 0.56243 0.58924 0.0
H527 H 0.08068 0.57389 0.54375 0.0
H528 H 0.04995 0.55861 0.59782 0.0
H529 H 0.05644 0.54711 0.64357 0.0
H530 H 0.03668 0.53436 0.5958 0.0
H531 H 0.04448 0.491 0.42921 0.0
H532 H 0.05545 0.4804 0.50753 0.0
H533 H 0.07394 0.53046 0.62608 0.0
C534 C 0.04952 0.55423 0.45536 0.0
C535 C 0.04198 0.54969 0.39471 0.0
C536 C 0.03772 0.53311 0.36075 0.0
C537 C 0.04065 0.52103 0.38721 0.0
C538 C 0.04813 0.52591 0.44726 0.0
C539 C 0.0527 0.54224 0.48052 0.0
C540 C 0.06147 0.54479 0.54257 0.0
C541 C 0.08058 0.56127 0.54515 0.0
C542 C 0.05047 0.5463 0.59822 0.0
C543 C 0.0611 0.52736 0.53926 0.0
C544 C 0.05313 0.51649 0.48441 0.0
C545 C 0.05086 0.49948 0.47204 0.0
C546 C 0.05706 0.49354 0.51665 0.0
C547 C 0.06569 0.50472 0.57215 0.0
C548 C 0.06765 0.52179 0.58343 0.0
H549 H 0.59319 0.54601 0.56997 0.0
H550 H 0.61986 0.59073 0.45474 0.0
H551 H 0.59821 0.57188 0.36879 0.0
H552 H 0.58215 0.51034 0.44894 0.0
H553 H 0.56065 0.49501 0.48037 0.0
H554 H 0.57821 0.51196 0.53233 0.0
H555 H 0.55846 0.52416 0.57483 0.0
H556 H 0.54076 0.50712 0.52353 0.0
H557 H 0.54864 0.53059 0.52042 0.0
H558 H 0.5745 0.54721 0.29327 0.0
H559 H 0.54852 0.5205 0.23943 0.0
H560 H 0.5362 0.49262 0.40728 0.0
C561 C 0.59445 0.55187 0.52668 0.0
C562 C 0.60828 0.5698 0.51874 0.0
C563 C 0.60935 0.57705 0.46181 0.0
C564 C 0.59717 0.56639 0.41269 0.0
C565 C 0.58385 0.54864 0.42175 0.0
C566 C 0.58224 0.54157 0.47786 0.0
C567 C 0.56639 0.52236 0.47674 0.0
C568 C 0.57221 0.50914 0.48508 0.0
C569 C 0.55275 0.52099 0.52684 0.0
C570 C 0.5594 0.51959 0.41088 0.0
C571 C 0.56979 0.53482 0.37962 0.0
C572 C 0.56622 0.53529 0.31758 0.0
C573 C 0.55147 0.51998 0.28722 0.0
C574 C 0.54027 0.50443 0.31909 0.0
C575 C 0.54444 0.50429 0.38166 0.0
H576 H 0.704 0.83142 0.3243 0.0
H577 H 0.75486 0.86251 0.23339 0.0
H578 H 0.76121 0.8897 0.3033 0.0
H579 H 0.69425 0.86633 0.34571 0.0
H580 H 0.68389 0.86002 0.42108 0.0
H581 H 0.68346 0.84323 0.36328 0.0
H582 H 0.69785 0.83485 0.44358 0.0
H583 H 0.69832 0.85161 0.50162 0.0
H584 H 0.71849 0.85223 0.48089 0.0
H585 H 0.76216 0.91362 0.38719 0.0
H586 H 0.75712 0.93171 0.47365 0.0
H587 H 0.70558 0.88454 0.50737 0.0
C588 C 0.71654 0.84388 0.31918 0.0
C589 C 0.72894 0.84472 0.27319 0.0
C590 C 0.74505 0.86148 0.26768 0.0
C591 C 0.74882 0.87701 0.3075 0.0
C592 C 0.73631 0.87564 0.35255 0.0
C593 C 0.72046 0.85948 0.35824 0.0
C594 C 0.70915 0.86146 0.41006 0.0
C595 C 0.69166 0.85753 0.38342 0.0
C596 C 0.70576 0.84932 0.46211 0.0
C597 C 0.72113 0.88123 0.43307 0.0
C598 C 0.73676 0.88925 0.39957 0.0
C599 C 0.74991 0.90744 0.41347 0.0
C600 C 0.74695 0.91763 0.46271 0.0
C601 C 0.73094 0.90963 0.49733 0.0
C602 C 0.71794 0.89117 0.48184 0.0
H603 H 0.18098 0.83078 0.35116 0.0
H604 H 0.19002 0.85679 0.54217 0.0
H605 H 0.21643 0.88408 0.50673 0.0
H606 H 0.2252 0.84709 0.31354 0.0
H607 H 0.22383 0.85057 0.23323 0.0
H608 H 0.20444 0.83372 0.2715 0.0
H609 H 0.18742 0.84863 0.24694 0.0
H610 H 0.20676 0.86549 0.20816 0.0
H611 H 0.19663 0.87225 0.27137 0.0
H612 H 0.2439 0.90693 0.45432 0.0
H613 H 0.26954 0.9247 0.38609 0.0
H614 H 0.24256 0.8851 0.22758 0.0
C615 C 0.18825 0.84236 0.3853 0.0
C616 C 0.18329 0.84157 0.44959 0.0
C617 C 0.1934 0.857 0.49271 0.0
C618 C 0.20848 0.87261 0.47301 0.0
C619 C 0.21326 0.87276 0.40981 0.0
C620 C 0.20333 0.85815 0.36631 0.0
C621 C 0.21194 0.86154 0.30177 0.0
C622 C 0.21663 0.84739 0.27869 0.0
C623 C 0.19997 0.86201 0.25425 0.0
C624 C 0.2285 0.8801 0.31624 0.0
C625 C 0.22895 0.8863 0.37893 0.0
C626 C 0.24352 0.90239 0.40492 0.0
C627 C 0.25803 0.91236 0.36603 0.0
C628 C 0.25784 0.90637 0.30169 0.0
C629 C 0.24278 0.89014 0.27631 0.0
H630 H 0.26807 0.40214 0.51501 0.0
H631 H 0.25851 0.34864 0.46181 0.0
H632 H 0.23504 0.34245 0.38759 0.0
H633 H 0.22316 0.38962 0.5139 0.0
H634 H 0.22812 0.4101 0.48383 0.0
H635 H 0.24434 0.41019 0.53023 0.0
H636 H 0.26724 0.42289 0.44035 0.0
H637 H 0.2511 0.42287 0.39367 0.0
H638 H 0.26169 0.41103 0.36256 0.0
H639 H 0.21217 0.34259 0.31889 0.0
H640 H 0.19205 0.34855 0.2665 0.0
H641 H 0.21726 0.4019 0.36804 0.0
C642 C 0.26117 0.3891 0.48768 0.0
C643 C 0.26522 0.37588 0.49415 0.0
C644 C 0.25568 0.35899 0.45758 0.0
C645 C 0.24235 0.35538 0.41532 0.0
C646 C 0.23871 0.3688 0.41042 0.0
C647 C 0.24789 0.3853 0.44593 0.0
C648 C 0.24142 0.39742 0.43378 0.0
C649 C 0.2338 0.4021 0.49401 0.0
C650 C 0.25625 0.41456 0.40592 0.0
C651 C 0.22703 0.38521 0.38588 0.0
C652 C 0.22565 0.36878 0.37247 0.0
C653 C 0.2132 0.35543 0.32919 0.0
C654 C 0.20187 0.35897 0.2994 0.0
C655 C 0.20297 0.37567 0.3133 0.0
C656 C 0.21584 0.3889 0.35695 0.0
H657 H 0.20094 0.38461 1.00772 0.0
H658 H 0.17089 0.32604 0.98518 0.0
H659 H 0.19243 0.32667 0.90569 0.0
H660 H 0.21405 0.39149 0.84464 0.0
H661 H 0.23581 0.41083 0.86444 0.0
H662 H 0.21752 0.40569 0.91694 0.0
H663 H 0.2351 0.40512 1.00781 0.0
H664 H 0.25342 0.41021 0.95561 0.0
H665 H 0.24357 0.39046 0.99776 0.0
H666 H 0.21768 0.33384 0.82959 0.0
H667 H 0.24504 0.34683 0.76631 0.0
H668 H 0.25892 0.4007 0.84073 0.0
C669 C 0.19875 0.37188 0.98566 0.0
C670 C 0.18412 0.35525 1.00245 0.0
C671 C 0.18194 0.33894 0.97303 0.0
C672 C 0.1941 0.33917 0.92774 0.0
C673 C 0.20843 0.35582 0.91265 0.0
C674 C 0.21083 0.37187 0.94092 0.0
C675 C 0.22768 0.38795 0.91831 0.0
C676 C 0.22351 0.39968 0.88404 0.0
C677 C 0.24071 0.39908 0.97314 0.0
C678 C 0.23449 0.37845 0.87312 0.0
C679 C 0.22312 0.35993 0.87006 0.0
C680 C 0.22663 0.34833 0.83151 0.0
C681 C 0.24218 0.35585 0.79542 0.0
C682 C 0.25416 0.3748 0.79837 0.0
C683 C 0.25014 0.38618 0.83779 0.0
H684 H 0.70697 0.84029 0.99776 0.0
H685 H 0.75343 0.84086 0.92245 0.0
H686 H 0.75832 0.86328 0.8507 0.0
H687 H 0.69154 0.84428 0.85313 0.0
H688 H 0.68426 0.85869 0.8899 0.0
H689 H 0.68441 0.84255 0.93398 0.0
H690 H 0.7042 0.86819 0.01935 0.0
H691 H 0.70407 0.88439 0.97565 0.0
H692 H 0.72483 0.88746 0.99679 0.0
H693 H 0.75769 0.88567 0.78614 0.0
H694 H 0.75267 0.90709 0.73986 0.0
H695 H 0.70689 0.89166 0.85989 0.0
C696 C 0.71817 0.84505 0.96613 0.0
C697 C 0.72978 0.83875 0.96555 0.0
C698 C 0.74436 0.8455 0.92372 0.0
C699 C 0.7472 0.85818 0.8827 0.0
C700 C 0.73541 0.86403 0.8844 0.0
C701 C 0.72125 0.85773 0.92542 0.0
C702 C 0.71068 0.86636 0.91946 0.0
C703 C 0.69159 0.85212 0.89781 0.0
C704 C 0.71097 0.87725 0.98149 0.0
C705 C 0.7211 0.87859 0.86874 0.0
C706 C 0.73524 0.877 0.84859 0.0
C707 C 0.74666 0.887 0.80169 0.0
C708 C 0.74365 0.89905 0.77538 0.0
C709 C 0.72943 0.90112 0.79642 0.0
C710 C 0.718 0.89058 0.84336 0.0
H711 H 0.25571 0.8787 1.01121 0.0
H712 H 0.26466 0.92841 0.95225 0.0
H713 H 0.24279 0.91077 0.86624 0.0
H714 H 0.25153 0.85612 0.85881 0.0
H715 H 0.23436 0.83425 0.88069 0.0
H716 H 0.25022 0.85076 0.93852 0.0
H717 H 0.22467 0.84812 1.01022 0.0
H718 H 0.20872 0.83154 0.95269 0.0
H719 H 0.20846 0.85155 0.97942 0.0
H720 H 0.2207 0.88747 0.78363 0.0
H721 H 0.20008 0.86083 0.71328 0.0
H722 H 0.20504 0.8264 0.82926 0.0
C723 C 0.25305 0.88593 0.98046 0.0
C724 C 0.26196 0.90498 0.98848 0.0
C725 C 0.258 0.91384 0.94716 0.0
C726 C 0.24561 0.90393 0.89814 0.0
C727 C 0.23719 0.88516 0.89134 0.0
C728 C 0.24069 0.87627 0.93168 0.0
C729 C 0.23002 0.85605 0.91416 0.0
C730 C 0.24227 0.84888 0.89702 0.0
C731 C 0.21721 0.84624 0.96728 0.0
C732 C 0.22012 0.85491 0.85702 0.0
C733 C 0.22438 0.87182 0.84464 0.0
C734 C 0.21716 0.87415 0.79333 0.0
C735 C 0.20532 0.85883 0.75368 0.0
C736 C 0.20071 0.8413 0.76536 0.0
C737 C 0.20826 0.83948 0.8182 0.0
H738 H 0.38994 0.21696 0.82594 0.0
H739 H 0.39732 0.25632 0.70341 0.0
H740 H 0.39741 0.23669 0.61088 0.0
H741 H 0.41901 0.20467 0.73683 0.0
H742 H 0.40544 0.18135 0.75231 0.0
H743 H 0.40628 0.19871 0.80829 0.0
H744 H 0.3721 0.18232 0.80282 0.0
H745 H 0.37116 0.16507 0.74607 0.0
H746 H 0.36146 0.17746 0.72777 0.0
H747 H 0.39382 0.21137 0.53144 0.0
H748 H 0.39202 0.18479 0.47147 0.0
H749 H 0.3895 0.16294 0.64613 0.0
C750 C 0.39182 0.22153 0.77963 0.0
C751 C 0.39362 0.23815 0.77166 0.0
C752 C 0.39609 0.24373 0.71051 0.0
C753 C 0.396 0.2326 0.65772 0.0
C754 C 0.39379 0.2161 0.66708 0.0
C755 C 0.39219 0.21079 0.72664 0.0
C756 C 0.39049 0.19265 0.72397 0.0
C757 C 0.40624 0.19446 0.75731 0.0
C758 C 0.37274 0.17855 0.75181 0.0
C759 C 0.39107 0.1884 0.65349 0.0
C760 C 0.39271 0.20199 0.62153 0.0
C761 C 0.39277 0.20077 0.55603 0.0
C762 C 0.39157 0.18552 0.52235 0.0
C763 C 0.39063 0.17177 0.55407 0.0
C764 C 0.39028 0.17325 0.62058 0.0
H765 H 0.85848 0.20042 0.83013 0.0
H766 H 0.85556 0.15006 0.77593 0.0
H767 H 0.88168 0.16572 0.70655 0.0
H768 H 0.87204 0.21895 0.68188 0.0
H769 H 0.88705 0.24168 0.71605 0.0
H770 H 0.86797 0.22631 0.75957 0.0
H771 H 0.8883 0.23172 0.85203 0.0
H772 H 0.90745 0.24712 0.80879 0.0
H773 H 0.90629 0.22808 0.83754 0.0
H774 H 0.90726 0.18701 0.63853 0.0
H775 H 0.932 0.21261 0.58643 0.0
H776 H 0.91938 0.24922 0.69268 0.0
C777 C 0.86333 0.19274 0.80328 0.0
C778 C 0.85499 0.17404 0.80745 0.0
C779 C 0.86185 0.1644 0.77296 0.0
C780 C 0.87659 0.17317 0.73346 0.0
C781 C 0.88449 0.19166 0.73012 0.0
C782 C 0.87825 0.20136 0.76493 0.0
C783 C 0.8895 0.2212 0.75518 0.0
C784 C 0.87848 0.22739 0.72645 0.0
C785 C 0.89841 0.2327 0.81707 0.0
C786 C 0.90294 0.22116 0.7088 0.0
C787 C 0.89974 0.20398 0.69425 0.0
C788 C 0.91 0.20055 0.65022 0.0
C789 C 0.92395 0.21509 0.62075 0.0
C790 C 0.92767 0.23282 0.63635 0.0
C791 C 0.91701 0.23582 0.68095 0.0
H792 H 0.91718 0.69166 0.63816 0.0
H793 H 0.94506 0.74018 0.76774 0.0
H794 H 0.93243 0.75403 0.71376 0.0
H795 H 0.92104 0.71408 0.49906 0.0
H796 H 0.89914 0.69682 0.47085 0.0
H797 H 0.91146 0.69112 0.51655 0.0
H798 H 0.88554 0.67754 0.59583 0.0
H799 H 0.87317 0.68319 0.55045 0.0
H800 H 0.87744 0.69123 0.63271 0.0
H801 H 0.91523 0.76194 0.65082 0.0
H802 H 0.89509 0.76353 0.58149 0.0
H803 H 0.87793 0.70983 0.49352 0.0
C804 C 0.92073 0.70523 0.65508 0.0
C805 C 0.93227 0.71481 0.70721 0.0
C806 C 0.93657 0.73261 0.72738 0.0
C807 C 0.92936 0.74059 0.69718 0.0
C808 C 0.91789 0.73068 0.64662 0.0
C809 C 0.91365 0.71342 0.62545 0.0
C810 C 0.90044 0.70545 0.57155 0.0
C811 C 0.90851 0.70165 0.51091 0.0
C812 C 0.88312 0.68834 0.58869 0.0
C813 C 0.8977 0.72082 0.56655 0.0
C814 C 0.90795 0.73526 0.61015 0.0
C815 C 0.90722 0.75076 0.61622 0.0
C816 C 0.89565 0.75149 0.57691 0.0
C817 C 0.88493 0.73683 0.53202 0.0
C818 C 0.88614 0.72137 0.52662 0.0
H819 H 0.87558 0.72531 0.16709 0.0
H820 H 0.87954 0.69218 0.29213 0.0
H821 H 0.90431 0.69381 0.22906 0.0
H822 H 0.88406 0.70498 0.02451 0.0
H823 H 0.89647 0.7258 0.98826 0.0
H824 H 0.87946 0.72253 0.04463 0.0
H825 H 0.90228 0.75188 0.11092 0.0
H826 H 0.91941 0.75513 0.05503 0.0
H827 H 0.92236 0.7543 0.1369 0.0
H828 H 0.92903 0.69936 0.15302 0.0
H829 H 0.94962 0.70562 0.06356 0.0
H830 H 0.92899 0.7342 0.9852 0.0
C831 C 0.88166 0.7184 0.18118 0.0
C832 C 0.87559 0.70864 0.23477 0.0
C833 C 0.88385 0.69967 0.25122 0.0
C834 C 0.89803 0.70062 0.21588 0.0
C835 C 0.90378 0.71046 0.1637 0.0
C836 C 0.89571 0.719 0.14585 0.0
C837 C 0.90395 0.728 0.08611 0.0
C838 C 0.89016 0.71983 0.03272 0.0
C839 C 0.91251 0.74855 0.09798 0.0
C840 C 0.91788 0.72317 0.07314 0.0
C841 C 0.9177 0.71323 0.11892 0.0
C842 C 0.92927 0.70712 0.11688 0.0
C843 C 0.94101 0.71084 0.06594 0.0
C844 C 0.94102 0.72045 0.01717 0.0
C845 C 0.92943 0.7269 0.02169 0.0
H846 H 0.4089 0.18671 0.15186 0.0
H847 H 0.39511 0.19789 0.34229 0.0
H848 H 0.38839 0.21897 0.305 0.0
H849 H 0.43011 0.23298 0.10945 0.0
H850 H 0.422 0.22581 0.02961 0.0
H851 H 0.42621 0.21182 0.07136 0.0
H852 H 0.39398 0.18504 0.04955 0.0
H853 H 0.38967 0.19895 1.00793 0.0
H854 H 0.37582 0.18786 0.07309 0.0
H855 H 0.38134 0.23742 0.24665 0.0
H856 H 0.37591 0.25321 0.17118 0.0
H857 H 0.39565 0.23156 0.01955 0.0
C858 C 0.40473 0.19375 0.18602 0.0
C859 C 0.40238 0.19036 0.25013 0.0
C860 C 0.39669 0.19984 0.29281 0.0
C861 C 0.39296 0.212 0.27217 0.0
C862 C 0.39515 0.21478 0.20871 0.0
C863 C 0.40106 0.20608 0.16629 0.0
C864 C 0.40206 0.21136 0.10041 0.0
C865 C 0.42124 0.22107 0.0763 0.0
C866 C 0.38964 0.19482 0.05509 0.0
C867 C 0.39554 0.22419 0.11242 0.0
C868 C 0.39159 0.22592 0.17525 0.0
C869 C 0.38456 0.23632 0.19745 0.0
C870 C 0.38144 0.24516 0.15431 0.0
C871 C 0.38547 0.24369 0.08979 0.0
C872 C 0.39276 0.23317 0.06882 0.0
H873 H 0.93099 0.25164 0.21915 0.0
H874 H 0.91723 0.22427 0.38874 0.0
H875 H 0.89146 0.19753 0.33406 0.0
H876 H 0.88599 0.23491 0.17483 0.0
H877 H 0.89005 0.23291 0.09169 0.0
H878 H 0.90774 0.2496 0.14372 0.0
H879 H 0.92686 0.23647 0.1032 0.0
H880 H 0.90915 0.21964 0.05145 0.0
H881 H 0.91827 0.21287 0.10732 0.0
H882 H 0.86751 0.17314 0.25905 0.0
H883 H 0.84546 0.15473 0.17391 0.0
H884 H 0.87385 0.19871 0.05605 0.0
C885 C 0.92255 0.24002 0.24477 0.0
C886 C 0.9262 0.24006 0.30822 0.0
C887 C 0.91471 0.22462 0.34021 0.0
C888 C 0.90008 0.2093 0.30942 0.0
C889 C 0.89693 0.20964 0.24673 0.0
C890 C 0.9077 0.22471 0.21505 0.0
C891 C 0.90094 0.22191 0.14875 0.0
C892 C 0.89588 0.23565 0.13922 0.0
C893 C 0.91462 0.22277 0.0998 0.0
C894 C 0.88472 0.20294 0.14811 0.0
C895 C 0.88276 0.19596 0.20469 0.0
C896 C 0.86887 0.17853 0.21466 0.0
C897 C 0.85647 0.16812 0.16598 0.0
C898 C 0.85789 0.1753 0.10853 0.0
C899 C 0.87234 0.19288 0.09961 0.0
H900 H 0.10409 0.66833 0.22281 0.0
H901 H 0.07542 0.63644 0.37743 0.0
H902 H 0.08892 0.66407 0.45105 0.0
H903 H 0.14479 0.70018 0.31307 0.0
H904 H 0.14915 0.71916 0.27374 0.0
H905 H 0.1375 0.69678 0.23306 0.0
H906 H 0.11158 0.70058 0.2101 0.0
H907 H 0.12308 0.72289 0.25119 0.0
H908 H 0.10098 0.70631 0.27452 0.0
H909 H 0.10361 0.69542 0.50708 0.0
H910 H 0.12147 0.72805 0.54329 0.0
H911 H 0.14216 0.7396 0.35486 0.0
C912 C 0.10082 0.66714 0.27225 0.0
C913 C 0.08865 0.65014 0.2941 0.0
C914 C 0.08476 0.64923 0.35931 0.0
C915 C 0.09229 0.66489 0.40163 0.0
C916 C 0.10396 0.68143 0.37846 0.0
C917 C 0.10848 0.68266 0.31553 0.0
C918 C 0.12159 0.70214 0.30322 0.0
C919 C 0.13931 0.70471 0.27937 0.0
C920 C 0.11384 0.70834 0.25702 0.0
C921 C 0.1235 0.71164 0.36882 0.0
C922 C 0.11306 0.69945 0.4114 0.0
C923 C 0.112 0.70507 0.47431 0.0
C924 C 0.12207 0.72361 0.49441 0.0
C925 C 0.13325 0.73628 0.45205 0.0
C926 C 0.1339 0.73015 0.38842 0.0
H927 H 0.4434 0.47379 0.40166 0.0
H928 H 0.42969 0.43104 0.25056 0.0
H929 H 0.40043 0.41244 0.29902 0.0
H930 H 0.42138 0.44548 0.52608 0.0
H931 H 0.41412 0.45972 0.56472 0.0
H932 H 0.43417 0.4694 0.51903 0.0
H933 H 0.42196 0.48312 0.45183 0.0
H934 H 0.40189 0.47352 0.49736 0.0
H935 H 0.4008 0.46858 0.41305 0.0
H936 H 0.37214 0.39857 0.36425 0.0
H937 H 0.34742 0.39114 0.43846 0.0
H938 H 0.37976 0.44329 0.54501 0.0
C939 C 0.43431 0.46061 0.37806 0.0
C940 C 0.43907 0.45403 0.32183 0.0
C941 C 0.42662 0.43646 0.29382 0.0
C942 C 0.40987 0.42577 0.32093 0.0
C943 C 0.40566 0.43278 0.37613 0.0
C944 C 0.41755 0.44983 0.40423 0.0
C945 C 0.40977 0.45441 0.46279 0.0
C946 C 0.4205 0.45742 0.52162 0.0
C947 C 0.40853 0.47088 0.45581 0.0
C948 C 0.39158 0.43732 0.46315 0.0
C949 C 0.38946 0.42494 0.41304 0.0
C950 C 0.3737 0.40817 0.40371 0.0
C951 C 0.35975 0.40402 0.4464 0.0
C952 C 0.36156 0.41661 0.49777 0.0
C953 C 0.3778 0.43343 0.506 0.0
H954 H 0.66005 0.94252 0.5559 0.0
H955 H 0.71438 0.98019 0.50283 0.0
H956 H 0.7041 0.99493 0.44123 0.0
H957 H 0.63945 0.93838 0.40849 0.0
H958 H 0.62042 0.93738 0.44644 0.0
H959 H 0.63201 0.92914 0.4831 0.0
H960 H 0.63643 0.9505 0.58387 0.0
H961 H 0.62491 0.95883 0.54749 0.0
H962 H 0.64698 0.97435 0.57818 0.0
H963 H 0.68787 1.0066 0.38935 0.0
H964 H 0.66698 1.01348 0.34928 0.0
H965 H 0.62357 0.96875 0.43957 0.0
C966 C 0.66983 0.95383 0.53131 0.0
C967 C 0.68806 0.96009 0.53434 0.0
C968 C 0.70033 0.97488 0.50069 0.0
C969 C 0.69462 0.98345 0.46582 0.0
C970 C 0.6766 0.97709 0.46481 0.0
C971 C 0.66438 0.96256 0.49646 0.0
C972 C 0.64582 0.95862 0.48928 0.0
C973 C 0.63372 0.93976 0.45476 0.0
C974 C 0.63809 0.96071 0.55352 0.0
C975 C 0.64951 0.97332 0.44914 0.0
C976 C 0.66732 0.98383 0.43536 0.0
C977 C 0.67388 0.99842 0.39977 0.0
C978 C 0.66191 1.00231 0.37756 0.0
C979 C 0.64356 0.99168 0.39102 0.0
C980 C 0.63741 0.97701 0.42743 0.0
H981 H 0.67405 0.04571 0.1583 0.0
H982 H 0.66908 0.08179 0.3019 0.0
H983 H 0.69933 0.10648 0.2774 0.0
H984 H 0.72031 0.06302 0.18534 0.0
H985 H 0.72516 0.06057 0.10318 0.0
H986 H 0.70325 0.04566 0.1325 0.0
H987 H 0.6899 0.05461 0.05031 0.0
H988 H 0.71175 0.0695 0.02062 0.0
H989 H 0.69787 0.0781 0.04679 0.0
H990 H 0.72996 0.12729 0.23657 0.0
H991 H 0.75855 0.14296 0.18176 0.0
H992 H 0.74373 0.09353 0.06339 0.0
C993 C 0.6793 0.05878 0.18481 0.0
C994 C 0.66913 0.06178 0.2322 0.0
C995 C 0.67656 0.07914 0.26548 0.0
C996 C 0.69375 0.09324 0.25192 0.0
C997 C 0.70338 0.0898 0.20496 0.0
C998 C 0.69642 0.07301 0.17185 0.0
C999 C 0.70945 0.07294 0.12304 0.0
C1000 C 0.71486 0.05977 0.13687 0.0
C1001 C 0.70178 0.06853 0.05624 0.0
C1002 C 0.72483 0.09237 0.13361 0.0
C1003 C 0.72103 0.10182 0.1812 0.0
C1004 C 0.73304 0.12002 0.19914 0.0
C1005 C 0.74924 0.12885 0.1673 0.0
C1006 C 0.75343 0.11957 0.1177 0.0
C1007 C 0.74104 0.10099 0.10129 0.0
H1008 H 0.96556 0.64884 0.03163 0.0
H1009 H 1.00602 0.67275 0.88949 0.0
H1010 H 1.02228 0.66058 0.93255 0.0
H1011 H 0.99491 0.6574 0.15718 0.0
H1012 H 0.97953 0.63653 0.19006 0.0
H1013 H 0.97139 0.64724 0.14785 0.0
H1014 H 0.9536 0.61787 0.0732 0.0
H1015 H 0.9617 0.60709 0.11512 0.0
H1016 H 0.96498 0.608 0.0314 0.0
H1017 H 0.03344 0.64462 0.99053 0.0
H1018 H 0.03908 0.62757 0.05905 0.0
H1019 H 0.99141 0.6152 0.16449 0.0
C1020 C 0.97775 0.6514 1.00901 0.0
C1021 C 0.98443 0.6616 0.95665 0.0
C1022 C 1.00068 0.66501 0.92967 0.0
C1023 C 1.00995 0.65809 0.9537 0.0
C1024 C 1.00286 0.64794 1.0051 0.0
C1025 C 0.98717 0.64474 0.03259 0.0
C1026 C 0.98237 0.63365 0.08775 0.0
C1027 C 0.98204 0.64435 0.14935 0.0
C1028 C 0.96461 0.61558 0.07614 0.0
C1029 C 0.99771 0.63089 0.08677 0.0
C1030 C 1.0094 0.63919 0.03884 0.0
C1031 C 1.02442 0.63819 0.02846 0.0
C1032 C 0.02754 0.62848 0.06807 0.0
C1033 C 1.01576 0.6199 0.11787 0.0
C1034 C 1.00068 0.6213 0.12691 0.0
H1035 H 0.41373 0.33095 0.08098 0.0
H1036 H 0.43825 0.33633 0.89705 0.0
H1037 H 0.46108 0.36814 0.93149 0.0
H1038 H 0.41999 0.37439 0.10526 0.0
H1039 H 0.42458 0.37747 0.18821 0.0
H1040 H 0.41074 0.35509 0.14955 0.0
H1041 H 0.43135 0.34579 0.18859 0.0
H1042 H 0.44529 0.36817 0.22739 0.0
H1043 H 0.45469 0.35872 0.17109 0.0
H1044 H 0.48007 0.4002 0.98487 0.0
H1045 H 0.49412 0.42908 0.05304 0.0
H1046 H 0.45776 0.40205 0.20322 0.0
C1047 C 0.42394 0.33875 0.04787 0.0
C1048 C 0.42414 0.33111 0.9861 0.0
C1049 C 0.43782 0.34184 0.94457 0.0
C1050 C 0.45084 0.35993 0.96376 0.0
C1051 C 0.45013 0.36705 0.02489 0.0
C1052 C 0.43709 0.3567 0.06643 0.0
C1053 C 0.43907 0.36752 0.12927 0.0
C1054 C 0.42262 0.36869 0.1439 0.0
C1055 C 0.44283 0.35958 0.18221 0.0
C1056 C 0.45511 0.38571 0.11649 0.0
C1057 C 0.4613 0.3852 0.05599 0.0
C1058 C 0.47545 0.40065 0.03253 0.0
C1059 C 0.48334 0.41701 0.07161 0.0
C1060 C 0.4772 0.41783 0.13379 0.0
C1061 C 0.46301 0.40185 0.15643 0.0
H1062 H 1.01613 0.33887 0.5457 0.0
H1063 H 0.96503 0.32505 0.47804 0.0
H1064 H 0.97169 0.35548 0.51952 0.0
H1065 H 1.01628 0.36347 0.68871 0.0
H1066 H 0.03969 0.38016 0.68717 0.0
H1067 H 0.03126 0.35774 0.64923 0.0
H1068 H 0.04567 0.37089 0.54424 0.0
H1069 H 0.05427 0.39338 0.58199 0.0
H1070 H 0.04073 0.3858 0.51232 0.0
H1071 H 0.98368 0.38731 0.57367 0.0
H1072 H 1.0002 0.41774 0.63154 0.0
H1073 H 0.04333 0.41029 0.66304 0.0
C1074 C 1.00636 0.34224 0.5389 0.0
C1075 C 0.99003 0.32951 0.50839 0.0
C1076 C 0.97765 0.33455 0.50091 0.0
C1077 C 0.98131 0.35181 0.5245 0.0
C1078 C 0.99744 0.3639 0.55526 0.0
C1079 C 1.0098 0.35934 0.56204 0.0
C1080 C 1.02598 0.37456 0.59793 0.0
C1081 C 0.02844 0.36862 0.6594 0.0
C1082 C 0.04265 0.38157 0.55664 0.0
C1083 C 1.02079 0.3884 0.61094 0.0
C1084 C 1.00429 0.38205 0.58596 0.0
C1085 C 0.99664 0.39241 0.59308 0.0
C1086 C 1.00612 0.40969 0.62622 0.0
C1087 C 1.0231 0.4165 0.65194 0.0
C1088 C 0.03042 0.40559 0.64396 0.0
H1089 H 0.71568 0.65379 0.56516 0.0
H1090 H 0.7101 0.60307 0.49097 0.0
H1091 H 0.73825 0.61965 0.43359 0.0
H1092 H 0.73474 0.67696 0.42458 0.0
H1093 H 0.74964 0.69836 0.46808 0.0
H1094 H 0.72879 0.68244 0.50204 0.0
H1095 H 0.74528 0.68335 0.59938 0.0
H1096 H 0.76616 0.69925 0.56574 0.0
H1097 H 0.7625 0.67846 0.58849 0.0
H1098 H 0.76755 0.64199 0.38492 0.0
H1099 H 0.7957 0.66826 0.35164 0.0
H1100 H 0.78205 0.70425 0.45752 0.0
C1101 C 0.72025 0.64614 0.5363 0.0
C1102 C 0.71059 0.62707 0.53287 0.0
C1103 C 0.71729 0.61766 0.4952 0.0
C1104 C 0.73324 0.62697 0.46199 0.0
C1105 C 0.74247 0.64575 0.46673 0.0
C1106 C 0.73622 0.65523 0.50301 0.0
C1107 C 0.7489 0.67541 0.50152 0.0
C1108 C 0.73998 0.68378 0.4723 0.0
C1109 C 0.75614 0.68466 0.56771 0.0
C1110 C 0.76328 0.67578 0.45901 0.0
C1111 C 0.75931 0.65855 0.43913 0.0
C1112 C 0.77076 0.65555 0.40011 0.0
C1113 C 0.78673 0.67056 0.38135 0.0
C1114 C 0.79116 0.68836 0.40177 0.0
C1115 C 0.77912 0.69086 0.44083 0.0
H1116 H 0.46211 0.14151 0.5169 0.0
H1117 H 0.40636 0.09895 0.51722 0.0
H1118 H 0.41327 0.08228 0.58266 0.0
H1119 H 0.47862 0.112 0.5031 0.0
H1120 H 0.4976 0.12709 0.55282 0.0
H1121 H 0.48814 0.13602 0.50782 0.0
H1122 H 0.48436 0.15256 0.60991 0.0
H1123 H 0.49374 0.14362 0.65527 0.0
H1124 H 0.47217 0.13983 0.67484 0.0
H1125 H 0.42634 0.06995 0.648 0.0
H1126 H 0.44463 0.06283 0.70556 0.0
H1127 H 0.49186 0.11273 0.65789 0.0
C1128 C 0.45129 0.12866 0.5302 0.0
C1129 C 0.43362 0.12174 0.51174 0.0
C1130 C 0.41997 0.10486 0.53124 0.0
C1131 C 0.42377 0.09517 0.5683 0.0
C1132 C 0.4413 0.10242 0.58548 0.0
C1133 C 0.45485 0.11875 0.56684 0.0
C1134 C 0.47263 0.12339 0.59048 0.0
C1135 C 0.48497 0.1247 0.53526 0.0
C1136 C 0.48123 0.14089 0.63529 0.0
C1137 C 0.46697 0.10712 0.62533 0.0
C1138 C 0.44884 0.0952 0.62208 0.0
C1139 C 0.44057 0.07917 0.65062 0.0
C1140 C 0.45111 0.07519 0.68299 0.0
C1141 C 0.46978 0.08714 0.68648 0.0
C1142 C 0.47768 0.10334 0.65718 0.0
H1143 H 0.36933 0.98711 0.02806 0.0
H1144 H 0.35701 0.93422 0.94781 0.0
H1145 H 0.3839 0.94835 0.88216 0.0
H1146 H 0.38789 1.0102 0.88563 0.0
H1147 H 0.40502 0.03069 0.92789 0.0
H1148 H 0.3842 0.01642 0.96563 0.0
H1149 H 0.40086 0.01445 0.05642 0.0
H1150 H 0.4217 0.02868 0.01896 0.0
H1151 H 0.4159 1.00682 0.03849 0.0
H1152 H 0.41276 0.96838 0.82657 0.0
H1153 H 0.44177 0.99264 0.78955 0.0
H1154 H 0.43566 0.0324 0.90797 0.0
C1155 C 0.37218 0.97855 0.99597 0.0
C1156 C 0.36103 0.95954 0.99305 0.0
C1157 C 0.36541 0.94879 0.95128 0.0
C1158 C 0.38062 0.9567 0.91348 0.0
C1159 C 0.39145 0.97546 0.918 0.0
C1160 C 0.38746 0.98625 0.95834 0.0
C1161 C 0.40178 1.00603 0.95652 0.0
C1162 C 0.39427 0.01644 0.93247 0.0
C1163 C 0.41058 0.01449 0.02145 0.0
C1164 C 0.41447 1.00465 0.90933 0.0
C1165 C 0.4082 0.98692 0.88712 0.0
C1166 C 0.41777 0.98232 0.84357 0.0
C1167 C 0.43423 0.9962 0.82268 0.0
C1168 C 0.44107 0.01445 0.84577 0.0
C1169 C 0.43088 0.01861 0.88933 0.0
H1170 H 0.13061 0.46681 0.88016 0.0
H1171 H 0.07485 0.42451 0.87945 0.0
H1172 H 0.08141 0.40796 0.94742 0.0
H1173 H 0.14737 0.43786 0.87152 0.0
H1174 H 0.16602 0.45301 0.92257 0.0
H1175 H 0.15679 0.46186 0.87607 0.0
H1176 H 0.15224 0.47825 0.97693 0.0
H1177 H 0.16146 0.46944 0.02377 0.0
H1178 H 0.13973 0.46546 0.04135 0.0
H1179 H 0.09434 0.39533 1.01215 0.0
H1180 H 0.11248 0.38818 0.07082 0.0
H1181 H 0.15975 0.43859 0.0281 0.0
C1182 C 0.11975 0.45406 0.89413 0.0
C1183 C 0.10218 0.44702 0.87429 0.0
C1184 C 0.08837 0.43036 0.89452 0.0
C1185 C 0.09199 0.42078 0.9329 0.0
C1186 C 0.10947 0.42805 0.95103 0.0
C1187 C 0.12311 0.44435 0.93253 0.0
C1188 C 0.14078 0.44912 0.95779 0.0
C1189 C 0.15348 0.45054 0.90376 0.0
C1190 C 0.14903 0.4666 1.00263 0.0
C1191 C 0.13499 0.43287 0.99295 0.0
C1192 C 0.11688 0.42086 0.9885 0.0
C1193 C 0.10853 0.40467 0.01607 0.0
C1194 C 0.11896 0.40068 0.04901 0.0
C1195 C 0.13756 0.41281 0.0543 0.0
C1196 C 0.14557 0.42914 0.02587 0.0
H1197 H 0.63845 0.65428 0.81395 0.0
H1198 H 0.67912 0.66932 0.6706 0.0
H1199 H 0.69503 0.70075 0.72043 0.0
H1200 H 0.63871 0.69612 0.83024 0.0
H1201 H 0.6354 0.69597 0.91412 0.0
H1202 H 0.62672 0.675 0.86475 0.0
H1203 H 0.64369 0.66607 0.93106 0.0
H1204 H 0.65248 0.68703 0.98042 0.0
H1205 H 0.66731 0.68103 0.94143 0.0
H1206 H 0.7073 0.73035 0.78967 0.0
H1207 H 0.71453 0.75565 0.87056 0.0
H1208 H 0.66603 0.72102 0.96947 0.0
C1209 C 0.65056 0.6642 0.79232 0.0
C1210 C 0.65746 0.65928 0.73798 0.0
C1211 C 0.67349 0.67272 0.71192 0.0
C1212 C 0.68265 0.69063 0.73999 0.0
C1213 C 0.67561 0.69493 0.7941 0.0
C1214 C 0.65988 0.6821 0.8198 0.0
C1215 C 0.65545 0.69001 0.87941 0.0
C1216 C 0.63804 0.68923 0.87164 0.0
C1217 C 0.65469 0.68047 0.93644 0.0
C1218 C 0.67122 0.70928 0.88364 0.0
C1219 C 0.68268 0.71186 0.83395 0.0
C1220 C 0.69837 0.72846 0.82864 0.0
C1221 C 0.70243 0.74275 0.87521 0.0
C1222 C 0.6909 0.74044 0.92675 0.0
C1223 C 0.67505 0.72341 0.93047 0.0
H1224 H 0.75348 0.01788 0.6601 0.0
H1225 H 0.77368 0.99301 0.76402 0.0
H1226 H 0.78837 0.02053 0.83924 0.0
H1227 H 0.79189 0.06395 0.682 0.0
H1228 H 0.77841 0.07363 0.68985 0.0
H1229 H 0.77078 0.05255 0.64229 0.0
H1230 H 0.74185 0.03753 0.70746 0.0
H1231 H 0.74945 0.0585 0.75557 0.0
H1232 H 0.74318 0.03841 0.79167 0.0
H1233 H 0.79968 0.05078 0.90677 0.0
H1234 H 0.80683 0.08065 0.95777 0.0
H1235 H 0.77843 0.08472 0.8094 0.0
C1236 C 0.76122 0.01825 0.698 0.0
C1237 C 0.76248 1.00324 0.70574 0.0
C1238 C 0.7726 1.00434 0.75668 0.0
C1239 C 0.78096 0.01992 0.79979 0.0
C1240 C 0.7791 0.03431 0.79141 0.0
C1241 C 0.76954 0.03359 0.74143 0.0
C1242 C 0.7689 0.05047 0.74385 0.0
C1243 C 0.77804 0.06076 0.68607 0.0
C1244 C 0.74971 0.04595 0.75002 0.0
C1245 C 0.77942 0.06078 0.80336 0.0
C1246 C 0.78531 0.05135 0.83015 0.0
C1247 C 0.79517 0.05827 0.88591 0.0
C1248 C 0.79915 0.07524 0.91466 0.0
C1249 C 0.79319 0.08508 0.88784 0.0
C1250 C 0.78319 0.07761 0.83144 0.0
H1251 H 0.10849 0.76891 0.76051 0.0
H1252 H 0.09855 0.78876 0.60144 0.0
H1253 H 0.06831 0.77847 0.64155 0.0
H1254 H 0.06565 0.72928 0.76762 0.0
H1255 H 0.06508 0.73058 0.85232 0.0
H1256 H 0.08599 0.74 0.81192 0.0
H1257 H 0.09714 0.77095 0.87623 0.0
H1258 H 0.07625 0.76162 0.91682 0.0
H1259 H 0.08445 0.78138 0.87592 0.0
H1260 H 0.0384 0.7644 0.69712 0.0
H1261 H 1.01192 0.74863 0.76393 0.0
H1262 H 0.04196 0.73896 0.88837 0.0
C1263 C 0.10002 0.77119 0.73407 0.0
C1264 C 0.10595 0.77964 0.67757 0.0
C1265 C 0.09437 0.78236 0.64479 0.0
C1266 C 0.07716 0.77655 0.66726 0.0
C1267 C 0.07173 0.76817 0.72294 0.0
C1268 C 0.0829 0.76562 0.75606 0.0
C1269 C 0.07388 0.75611 0.81427 0.0
C1270 C 0.07257 0.73792 0.81132 0.0
C1271 C 0.0835 0.76824 0.87436 0.0
C1272 C 0.05578 0.75348 0.80848 0.0
C1273 C 0.05478 0.76051 0.75547 0.0
C1274 C 0.03913 0.75901 0.739 0.0
C1275 C 1.02413 0.75001 0.77729 0.0
C1276 C 1.02484 0.74266 0.83184 0.0
C1277 C 0.041 0.74464 0.84765 0.0
H1278 H 0.31542 0.32304 0.58998 0.0
H1279 H 0.31906 0.36011 0.74958 0.0
H1280 H 0.33188 0.34837 0.81387 0.0
H1281 H 0.30294 0.28563 0.68159 0.0
H1282 H 0.31547 0.27809 0.63367 0.0
H1283 H 0.30659 0.28942 0.59957 0.0
H1284 H 0.33799 0.313 0.56221 0.0
H1285 H 0.34699 0.30179 0.59646 0.0
H1286 H 0.3558 0.32543 0.61876 0.0
H1287 H 0.34573 0.33378 0.86008 0.0
H1288 H 0.3571 0.31518 0.88728 0.0
H1289 H 0.3433 0.28654 0.70049 0.0
C1290 C 0.31885 0.32862 0.6385 0.0
C1291 C 0.31623 0.34254 0.66449 0.0
C1292 C 0.32084 0.34941 0.7284 0.0
C1293 C 0.32822 0.34288 0.76541 0.0
C1294 C 0.33077 0.32931 0.73832 0.0
C1295 C 0.32603 0.32206 0.67662 0.0
C1296 C 0.32987 0.30728 0.65965 0.0
C1297 C 0.3127 0.28902 0.64263 0.0
C1298 C 0.34347 0.31218 0.6061 0.0
C1299 C 0.33763 0.30748 0.72123 0.0
C1300 C 0.33817 0.32041 0.7658 0.0
C1301 C 0.34525 0.32351 0.8257 0.0
C1302 C 0.35177 0.31298 0.84067 0.0
C1303 C 0.35098 0.29936 0.79626 0.0
C1304 C 0.34384 0.29667 0.73573 0.0
H1305 H 0.03218 0.31243 0.3677 0.0
H1306 H 1.02012 0.25985 0.28432 0.0
H1307 H 0.04866 0.27424 0.22781 0.0
H1308 H 0.05456 0.33696 0.23135 0.0
H1309 H 0.07088 0.35685 0.27852 0.0
H1310 H 0.04909 0.34242 0.3097 0.0
H1311 H 0.06303 0.33896 0.40569 0.0
H1312 H 0.08484 0.35333 0.37478 0.0
H1313 H 0.07796 0.33103 0.39299 0.0
H1314 H 0.07913 0.29452 0.1821 0.0
H1315 H 0.10917 0.31896 0.15361 0.0
H1316 H 0.10127 0.35807 0.26817 0.0
C1317 C 0.03542 0.30397 0.3368 0.0
C1318 C 1.02387 0.28499 0.33042 0.0
C1319 C 0.0288 0.27439 0.29043 0.0
C1320 C 0.04495 0.28245 0.25783 0.0
C1321 C 0.05611 0.30118 0.2657 0.0
C1322 C 0.05156 0.3118 0.30426 0.0
C1323 C 0.06621 0.33155 0.30666 0.0
C1324 C 0.0598 0.34259 0.27995 0.0
C1325 C 0.07343 0.33916 0.37402 0.0
C1326 C 0.07976 0.33036 0.26387 0.0
C1327 C 0.07367 0.31276 0.24026 0.0
C1328 C 0.08401 0.30837 0.20021 0.0
C1329 C 0.10106 0.32233 0.18424 0.0
C1330 C 0.10764 0.34044 0.20864 0.0
C1331 C 0.09671 0.34439 0.24867 0.0
H1332 H 0.82419 0.78477 0.30597 0.0
H1333 H 0.80833 0.73802 0.17125 0.0
H1334 H 0.78949 0.74515 0.11642 0.0
H1335 H 0.78175 0.78022 0.31681 0.0
H1336 H 0.79089 0.8042 0.32456 0.0
H1337 H 0.80334 0.79554 0.35176 0.0
H1338 H 0.82969 0.81584 0.2813 0.0
H1339 H 0.81728 0.82448 0.25359 0.0
H1340 H 0.82616 0.81429 0.19812 0.0
H1341 H 0.77277 0.75787 0.07546 0.0
H1342 H 0.75762 0.77354 0.05652 0.0
H1343 H 0.78397 0.8116 0.22005 0.0
C1344 C 0.81686 0.77611 0.26465 0.0
C1345 C 0.81781 0.76089 0.24259 0.0
C1346 C 0.80771 0.74967 0.18913 0.0
C1347 C 0.79708 0.7537 0.1575 0.0
C1348 C 0.79658 0.76891 0.18024 0.0
C1349 C 0.80607 0.77983 0.233 0.0
C1350 C 0.80278 0.795 0.24923 0.0
C1351 C 0.79418 0.79365 0.31445 0.0
C1352 C 0.82001 0.8135 0.2453 0.0
C1353 C 0.78996 0.79096 0.1973 0.0
C1354 C 0.78667 0.77595 0.15766 0.0
C1355 C 0.77524 0.76962 0.10629 0.0
C1356 C 0.76674 0.77867 0.09579 0.0
C1357 C 0.76958 0.79383 0.13676 0.0
C1358 C 0.78151 0.80009 0.18778 0.0
H1359 H 0.33169 0.99855 0.29916 0.0
H1360 H 0.31467 1.0022 0.11874 0.0
H1361 H 0.32467 0.03416 0.15136 0.0
H1362 H 0.31846 0.02666 0.39247 0.0
H1363 H 0.33716 0.03666 0.44505 0.0
H1364 H 0.32821 0.01407 0.40775 0.0
H1365 H 0.35917 0.02328 0.36225 0.0
H1366 H 0.3682 0.04587 0.3994 0.0
H1367 H 0.37057 0.04219 0.31577 0.0
H1368 H 0.33874 0.06662 0.20206 0.0
H1369 H 0.3541 0.09596 0.26768 0.0
H1370 H 0.36026 0.07021 0.41652 0.0
C1371 C 0.32996 1.00601 0.26646 0.0
C1372 C 0.32245 0.99787 0.20619 0.0
C1373 C 0.32035 1.00813 0.16515 0.0
C1374 C 0.32602 0.02629 0.1833 0.0
C1375 C 0.33352 0.03393 0.24296 0.0
C1376 C 0.33531 0.02401 0.2841 0.0
C1377 C 0.34388 0.0353 0.34536 0.0
C1378 C 0.33117 0.02772 0.40093 0.0
C1379 C 0.3615 0.03675 0.3563 0.0
C1380 C 0.34692 0.05325 0.33213 0.0
C1381 C 0.34092 0.05225 0.27276 0.0
C1382 C 0.34324 0.06746 0.24892 0.0
C1383 C 0.352 0.08407 0.2865 0.0
C1384 C 0.35817 0.08535 0.34758 0.0
C1385 C 0.35538 0.06963 0.37062 0.0
loop_
_geom_bond_atom_site_label_1
_geom_bond_atom_site_label_2
_geom_bond_distance
_geom_bond_site_symmetry_2
_ccdc_geom_bond_type
Cu0 N1 1.999 . S
Cu0 O6 1.974 . S
Cu0 N11 1.985 . S
Cu0 O20 1.959 . S
N1 Cu0 1.999 . S
N1 C3 1.263 . S
N1 C5 1.389 . S
N2 C3 1.358 . S
N2 C4 1.400 . S
C3 N1 1.263 . S
C3 N2 1.358 . S
C3 H9 0.930 . S
C4 N2 1.400 . S
C4 C5 1.351 . S
C4 H21 0.930 . S
C5 N1 1.389 . S
C5 C4 1.351 . S
C5 H10 0.930 . S
O6 Cu0 1.974 . S
O6 C16 1.282 . S
C7 O8 1.261 . S
C7 O20 1.251 . S
O8 C7 1.261 . S
H9 C3 0.930 . S
H10 C5 0.930 . S
N11 Cu0 1.985 . S
N11 C13 1.335 . S
N11 C14 1.390 . S
N12 C13 1.345 . S
N12 C15 1.336 . S
C13 N11 1.335 . S
C13 N12 1.345 . S
C13 H18 0.930 . S
C14 N11 1.390 . S
C14 C15 1.346 . S
C14 H19 0.930 . S
C15 N12 1.336 . S
C15 C14 1.346 . S
C15 H22 0.929 . S
C16 O6 1.282 . S
C16 O17 1.216 . S
O17 C16 1.216 . S
H18 C13 0.930 . S
H19 C14 0.930 . S
O20 Cu0 1.959 . S
O20 C7 1.251 . S
H21 C4 0.930 . S
H22 C15 0.929 . S
Cu23 N24 1.999 . S
Cu23 O29 1.974 . S
Cu23 N34 1.985 . S
Cu23 O43 1.959 . S
N24 Cu23 1.999 . S
N24 C26 1.263 . S
N24 C28 1.389 . S
N25 C26 1.358 . S
N25 C27 1.400 . S
C26 N24 1.263 . S
C26 N25 1.358 . S
C26 H32 0.930 . S
C27 N25 1.400 . S
C27 C28 1.351 . S
C27 H44 0.930 1_554 S
C28 N24 1.389 . S
C28 C27 1.351 . S
C28 H33 0.930 . S
O29 Cu23 1.974 . S
O29 C39 1.282 . S
C30 O31 1.261 . S
C30 O43 1.251 . S
O31 C30 1.261 . S
H32 C26 0.930 . S
H33 C28 0.930 . S
N34 Cu23 1.985 . S
N34 C36 1.335 . S
N34 C37 1.390 . S
N35 C36 1.345 . S
N35 C38 1.336 . S
C36 N34 1.335 . S
C36 N35 1.345 . S
C36 H41 0.930 . S
C37 N34 1.390 . S
C37 C38 1.346 . S
C37 H42 0.930 . S
C38 N35 1.336 . S
C38 C37 1.346 . S
C38 H45 0.929 . S
C39 O29 1.282 . S
C39 O40 1.216 . S
O40 C39 1.216 . S
H41 C36 0.930 . S
H42 C37 0.930 . S
O43 Cu23 1.959 . S
O43 C30 1.251 . S
H44 C27 0.930 1_556 S
H45 C38 0.929 . S
Cu46 N47 1.999 . S
Cu46 O52 1.974 . S
Cu46 N57 1.985 . S
Cu46 O66 1.959 . S
N47 Cu46 1.999 . S
N47 C49 1.263 . S
N47 C51 1.389 . S
N48 C49 1.358 . S
N48 C50 1.400 . S
C49 N47 1.263 . S
C49 N48 1.358 . S
C49 H55 0.930 . S
C50 N48 1.400 . S
C50 C51 1.351 . S
C50 H67 0.930 . S
C51 N47 1.389 . S
C51 C50 1.351 . S
C51 H56 0.930 . S
O52 Cu46 1.974 . S
O52 C62 1.282 . S
C53 O54 1.261 . S
C53 O66 1.251 . S
O54 C53 1.261 . S
H55 C49 0.930 . S
H56 C51 0.930 . S
N57 Cu46 1.985 . S
N57 C59 1.335 . S
N57 C60 1.390 . S
N58 C59 1.345 . S
N58 C61 1.336 . S
C59 N57 1.335 . S
C59 N58 1.345 . S
C59 H64 0.930 . S
C60 N57 1.390 . S
C60 C61 1.346 . S
C60 H65 0.930 . S
C61 N58 1.336 . S
C61 C60 1.346 . S
C61 H68 0.929 . S
C62 O52 1.282 . S
C62 O63 1.216 . S
O63 C62 1.216 . S
H64 C59 0.930 . S
H65 C60 0.930 . S
O66 Cu46 1.959 . S
O66 C53 1.251 . S
H67 C50 0.930 . S
H68 C61 0.929 . S
Cu69 N70 1.999 . S
Cu69 O75 1.974 . S
Cu69 N80 1.985 . S
Cu69 O89 1.959 . S
N70 Cu69 1.999 . S
N70 C72 1.263 . S
N70 C74 1.389 . S
N71 C72 1.358 . S
N71 C73 1.400 . S
C72 N70 1.263 . S
C72 N71 1.358 . S
C72 H78 0.930 . S
C73 N71 1.400 . S
C73 C74 1.351 . S
C73 H90 0.930 . S
C74 N70 1.389 . S
C74 C73 1.351 . S
C74 H79 0.930 . S
O75 Cu69 1.974 . S
O75 C85 1.282 . S
C76 O77 1.261 . S
C76 O89 1.251 . S
O77 C76 1.261 . S
H78 C72 0.930 . S
H79 C74 0.930 . S
N80 Cu69 1.985 . S
N80 C82 1.335 . S
N80 C83 1.390 . S
N81 C82 1.345 . S
N81 C84 1.336 . S
C82 N80 1.335 . S
C82 N81 1.345 . S
C82 H87 0.930 . S
C83 N80 1.390 . S
C83 C84 1.346 . S
C83 H88 0.930 . S
C84 N81 1.336 . S
C84 C83 1.346 . S
C84 H91 0.929 . S
C85 O75 1.282 . S
C85 O86 1.216 . S
O86 C85 1.216 . S
H87 C82 0.930 . S
H88 C83 0.930 . S
O89 Cu69 1.959 . S
O89 C76 1.251 . S
H90 C73 0.930 . S
H91 C84 0.929 . S
Cu92 N93 1.999 . S
Cu92 O98 1.974 . S
Cu92 N103 1.985 . S
Cu92 O112 1.959 . S
N93 Cu92 1.999 . S
N93 C95 1.263 . S
N93 C97 1.389 . S
N94 C95 1.358 . S
N94 C96 1.400 . S
C95 N93 1.263 . S
C95 N94 1.358 . S
C95 H101 0.930 . S
C96 N94 1.400 . S
C96 C97 1.351 . S
C96 H113 0.930 . S
C97 N93 1.389 . S
C97 C96 1.351 . S
C97 H102 0.930 . S
O98 Cu92 1.974 . S
O98 C108 1.282 . S
C99 O100 1.261 . S
C99 O112 1.251 . S
O100 C99 1.261 . S
H101 C95 0.930 . S
H102 C97 0.930 . S
N103 Cu92 1.985 . S
N103 C105 1.335 . S
N103 C106 1.390 . S
N104 C105 1.345 . S
N104 C107 1.336 . S
C105 N103 1.335 . S
C105 N104 1.345 . S
C105 H110 0.930 . S
C106 N103 1.390 . S
C106 C107 1.346 . S
C106 H111 0.930 . S
C107 N104 1.336 . S
C107 C106 1.346 . S
C107 H114 0.929 . S
C108 O98 1.282 . S
C108 O109 1.216 . S
O109 C108 1.216 . S
H110 C105 0.930 . S
H111 C106 0.930 . S
O112 Cu92 1.959 . S
O112 C99 1.251 . S
H113 C96 0.930 . S
H114 C107 0.929 . S
Cu115 N116 1.999 . S
Cu115 O121 1.974 . S
Cu115 N126 1.985 . S
Cu115 O135 1.959 . S
N116 Cu115 1.999 . S
N116 C118 1.263 . S
N116 C120 1.389 . S
N117 C118 1.358 . S
N117 C119 1.400 . S
C118 N116 1.263 . S
C118 N117 1.358 . S
C118 H124 0.930 . S
C119 N117 1.400 . S
C119 C120 1.351 . S
C119 H136 0.930 . S
C120 N116 1.389 . S
C120 C119 1.351 . S
C120 H125 0.930 . S
O121 Cu115 1.974 . S
O121 C131 1.282 . S
C122 O123 1.261 . S
C122 O135 1.251 . S
O123 C122 1.261 . S
H124 C118 0.930 . S
H125 C120 0.930 . S
N126 Cu115 1.985 . S
N126 C128 1.335 . S
N126 C129 1.390 . S
N127 C128 1.345 . S
N127 C130 1.336 . S
C128 N126 1.335 . S
C128 N127 1.345 . S
C128 H133 0.930 . S
C129 N126 1.390 . S
C129 C130 1.346 . S
C129 H134 0.930 . S
C130 N127 1.336 . S
C130 C129 1.346 . S
C130 H137 0.929 . S
C131 O121 1.282 . S
C131 O132 1.216 . S
O132 C131 1.216 . S
H133 C128 0.930 . S
H134 C129 0.930 . S
O135 Cu115 1.959 . S
O135 C122 1.251 . S
H136 C119 0.930 . S
H137 C130 0.929 . S
Cu138 N139 1.999 . S
Cu138 O144 1.974 . S
Cu138 N149 1.985 . S
Cu138 O158 1.959 . S
N139 Cu138 1.999 . S
N139 C141 1.263 . S
N139 C143 1.389 . S
N140 C141 1.358 . S
N140 C142 1.400 . S
C141 N139 1.263 . S
C141 N140 1.358 . S
C141 H147 0.930 . S
C142 N140 1.400 . S
C142 C143 1.351 . S
C142 H159 0.930 . S
C143 N139 1.389 . S
C143 C142 1.351 . S
C143 H148 0.930 . S
O144 Cu138 1.974 . S
O144 C154 1.282 . S
C145 O146 1.261 . S
C145 O158 1.251 . S
O146 C145 1.261 . S
H147 C141 0.930 . S
H148 C143 0.930 . S
N149 Cu138 1.985 . S
N149 C151 1.335 . S
N149 C152 1.390 . S
N150 C151 1.345 . S
N150 C153 1.336 . S
C151 N149 1.335 . S
C151 N150 1.345 . S
C151 H156 0.930 . S
C152 N149 1.390 . S
C152 C153 1.346 . S
C152 H157 0.930 . S
C153 N150 1.336 . S
C153 C152 1.346 . S
C153 H160 0.929 . S
C154 O144 1.282 . S
C154 O155 1.216 . S
O155 C154 1.216 . S
H156 C151 0.930 . S
H157 C152 0.930 . S
O158 Cu138 1.959 . S
O158 C145 1.251 . S
H159 C142 0.930 . S
H160 C153 0.929 . S
Cu161 N162 1.999 . S
Cu161 O167 1.974 . S
Cu161 N172 1.985 . S
Cu161 O181 1.959 . S
N162 Cu161 1.999 . S
N162 C164 1.263 . S
N162 C166 1.389 . S
N163 C164 1.358 . S
N163 C165 1.400 . S
C164 N162 1.263 . S
C164 N163 1.358 . S
C164 H170 0.930 . S
C165 N163 1.400 . S
C165 C166 1.351 . S
C165 H182 0.930 . S
C166 N162 1.389 . S
C166 C165 1.351 . S
C166 H171 0.930 . S
O167 Cu161 1.974 . S
O167 C177 1.282 . S
C168 O169 1.261 . S
C168 O181 1.251 . S
O169 C168 1.261 . S
H170 C164 0.930 . S
H171 C166 0.930 . S
N172 Cu161 1.985 . S
N172 C174 1.335 . S
N172 C175 1.390 . S
N173 C174 1.345 . S
N173 C176 1.336 . S
C174 N172 1.335 . S
C174 N173 1.345 . S
C174 H179 0.930 . S
C175 N172 1.390 . S
C175 C176 1.346 . S
C175 H180 0.930 . S
C176 N173 1.336 . S
C176 C175 1.346 . S
C176 H183 0.929 . S
C177 O167 1.282 . S
C177 O178 1.216 . S
O178 C177 1.216 . S
H179 C174 0.930 . S
H180 C175 0.930 . S
O181 Cu161 1.959 . S
O181 C168 1.251 . S
H182 C165 0.930 . S
H183 C176 0.929 . S
Cu184 N185 1.999 . S
Cu184 O190 1.974 . S
Cu184 N195 1.985 . S
Cu184 O204 1.959 . S
N185 Cu184 1.999 . S
N185 C187 1.263 . S
N185 C189 1.389 . S
N186 C187 1.358 . S
N186 C188 1.400 . S
C187 N185 1.263 . S
C187 N186 1.358 . S
C187 H193 0.930 . S
C188 N186 1.400 . S
C188 C189 1.351 . S
C188 H205 0.930 . S
C189 N185 1.389 . S
C189 C188 1.351 . S
C189 H194 0.930 . S
O190 Cu184 1.974 . S
O190 C200 1.282 . S
C191 O192 1.261 . S
C191 O204 1.251 . S
O192 C191 1.261 . S
H193 C187 0.930 . S
H194 C189 0.930 . S
N195 Cu184 1.985 . S
N195 C197 1.335 . S
N195 C198 1.390 . S
N196 C197 1.345 . S
N196 C199 1.336 . S
C197 N195 1.335 . S
C197 N196 1.345 . S
C197 H202 0.930 . S
C198 N195 1.390 . S
C198 C199 1.346 . S
C198 H203 0.930 . S
C199 N196 1.336 . S
C199 C198 1.346 . S
C199 H206 0.929 . S
C200 O190 1.282 . S
C200 O201 1.216 . S
O201 C200 1.216 . S
H202 C197 0.930 . S
H203 C198 0.930 . S
O204 Cu184 1.959 . S
O204 C191 1.251 . S
H205 C188 0.930 . S
H206 C199 0.929 . S
Cu207 N208 1.999 . S
Cu207 O213 1.974 . S
Cu207 N218 1.985 1_554 S
Cu207 O227 1.959 . S
N208 Cu207 1.999 . S
N208 C210 1.263 . S
N208 C212 1.389 . S
N209 C210 1.358 . S
N209 C211 1.400 . S
C210 N208 1.263 . S
C210 N209 1.358 . S
C210 H216 0.930 . S
C211 N209 1.400 . S
C211 C212 1.351 . S
C211 H228 0.930 . S
C212 N208 1.389 . S
C212 C211 1.351 . S
C212 H217 0.930 . S
O213 Cu207 1.974 . S
O213 C223 1.282 1_554 S
C214 O215 1.261 . S
C214 O227 1.251 . S
O215 C214 1.261 . S
H216 C210 0.930 . S
H217 C212 0.930 . S
N218 Cu207 1.985 1_556 S
N218 C220 1.335 . S
N218 C221 1.390 . S
N219 C220 1.345 . S
N219 C222 1.336 . S
C220 N218 1.335 . S
C220 N219 1.345 . S
C220 H225 0.930 1_556 S
C221 N218 1.390 . S
C221 C222 1.346 . S
C221 H226 0.930 . S
C222 N219 1.336 . S
C222 C221 1.346 . S
C222 H229 0.929 . S
C223 O213 1.282 1_556 S
C223 O224 1.216 . S
O224 C223 1.216 . S
H225 C220 0.930 1_554 S
H226 C221 0.930 . S
O227 Cu207 1.959 . S
O227 C214 1.251 . S
H228 C211 0.930 . S
H229 C222 0.929 . S
Cu230 N231 1.999 . S
Cu230 O236 1.974 . S
Cu230 N241 1.985 . S
Cu230 O250 1.959 . S
N231 Cu230 1.999 . S
N231 C233 1.263 . S
N231 C235 1.389 . S
N232 C233 1.358 . S
N232 C234 1.400 . S
C233 N231 1.263 . S
C233 N232 1.358 . S
C233 H239 0.930 . S
C234 N232 1.400 . S
C234 C235 1.351 . S
C234 H251 0.930 . S
C235 N231 1.389 . S
C235 C234 1.351 . S
C235 H240 0.930 . S
O236 Cu230 1.974 . S
O236 C246 1.282 . S
C237 O238 1.261 . S
C237 O250 1.251 . S
O238 C237 1.261 . S
H239 C233 0.930 . S
H240 C235 0.930 . S
N241 Cu230 1.985 . S
N241 C243 1.335 . S
N241 C244 1.390 1_554 S
N242 C243 1.345 1_556 S
N242 C245 1.336 . S
C243 N241 1.335 . S
C243 N242 1.345 1_554 S
C243 H248 0.930 . S
C244 N241 1.390 1_556 S
C244 C245 1.346 . S
C244 H249 0.930 . S
C245 N242 1.336 . S
C245 C244 1.346 . S
C245 H252 0.929 . S
C246 O236 1.282 . S
C246 O247 1.216 . S
O247 C246 1.216 . S
H248 C243 0.930 . S
H249 C244 0.930 . S
O250 Cu230 1.959 . S
O250 C237 1.251 . S
H251 C234 0.930 . S
H252 C245 0.929 . S
Cu253 N254 1.999 . S
Cu253 O259 1.974 . S
Cu253 N264 1.985 . S
Cu253 O273 1.959 . S
N254 Cu253 1.999 . S
N254 C256 1.263 . S
N254 C258 1.389 . S
N255 C256 1.358 . S
N255 C257 1.400 . S
C256 N254 1.263 . S
C256 N255 1.358 . S
C256 H262 0.930 . S
C257 N255 1.400 . S
C257 C258 1.351 . S
C257 H274 0.930 . S
C258 N254 1.389 . S
C258 C257 1.351 . S
C258 H263 0.930 . S
O259 Cu253 1.974 . S
O259 C269 1.282 . S
C260 O261 1.261 . S
C260 O273 1.251 . S
O261 C260 1.261 . S
H262 C256 0.930 . S
H263 C258 0.930 . S
N264 Cu253 1.985 . S
N264 C266 1.335 . S
N264 C267 1.390 1_554 S
N265 C266 1.341 1_556 S
N265 C268 1.339 . S
C266 N264 1.335 . S
C266 N265 1.341 1_554 S
C266 H271 0.930 . S
C267 N264 1.390 1_556 S
C267 C268 1.346 . S
C267 H272 0.930 . S
C268 N265 1.339 . S
C268 C267 1.346 . S
C268 H275 0.929 . S
C269 O259 1.282 . S
C269 O270 1.216 . S
O270 C269 1.216 . S
H271 C266 0.930 . S
H272 C267 0.930 . S
O273 Cu253 1.959 . S
O273 C260 1.251 . S
H274 C257 0.930 . S
H275 C268 0.929 . S
Cu276 N277 1.999 . S
Cu276 O282 1.974 . S
Cu276 N287 1.985 . S
Cu276 O296 1.959 . S
N277 Cu276 1.999 . S
N277 C279 1.263 . S
N277 C281 1.389 1_556 S
N278 C279 1.358 1_554 S
N278 C280 1.400 . S
C279 N277 1.263 . S
C279 N278 1.358 1_556 S
C279 H285 0.930 . S
C280 N278 1.400 . S
C280 C281 1.351 . S
C280 H297 0.930 . S
C281 N277 1.389 1_554 S
C281 C280 1.351 . S
C281 H286 0.930 . S
O282 Cu276 1.974 . S
O282 C292 1.282 . S
C283 O284 1.261 . S
C283 O296 1.251 . S
O284 C283 1.261 . S
H285 C279 0.930 . S
H286 C281 0.930 . S
N287 Cu276 1.985 . S
N287 C289 1.335 . S
N287 C290 1.390 . S
N288 C289 1.345 . S
N288 C291 1.336 . S
C289 N287 1.335 . S
C289 N288 1.345 . S
C289 H294 0.930 . S
C290 N287 1.390 . S
C290 C291 1.346 . S
C290 H295 0.930 . S
C291 N288 1.336 . S
C291 C290 1.346 . S
C291 H298 0.929 . S
C292 O282 1.282 . S
C292 O293 1.216 . S
O293 C292 1.216 . S
H294 C289 0.930 . S
H295 C290 0.930 . S
O296 Cu276 1.959 . S
O296 C283 1.251 . S
H297 C280 0.930 . S
H298 C291 0.929 . S
Cu299 N300 1.999 . S
Cu299 O305 1.974 1_556 S
Cu299 N310 1.985 1_556 S
Cu299 O319 1.959 . S
N300 Cu299 1.999 . S
N300 C302 1.263 . S
N300 C304 1.389 . S
N301 C302 1.358 . S
N301 C303 1.400 . S
C302 N300 1.263 . S
C302 N301 1.358 . S
C302 H308 0.930 . S
C303 N301 1.400 . S
C303 C304 1.351 . S
C303 H320 0.930 . S
C304 N300 1.389 . S
C304 C303 1.351 . S
C304 H309 0.930 . S
O305 Cu299 1.974 1_554 S
O305 C315 1.282 . S
C306 O307 1.261 . S
C306 O319 1.251 . S
O307 C306 1.261 . S
H308 C302 0.930 . S
H309 C304 0.930 . S
N310 Cu299 1.985 1_554 S
N310 C312 1.335 . S
N310 C313 1.390 . S
N311 C312 1.345 . S
N311 C314 1.336 . S
C312 N310 1.335 . S
C312 N311 1.345 . S
C312 H317 0.930 . S
C313 N310 1.390 . S
C313 C314 1.346 . S
C313 H318 0.930 . S
C314 N311 1.336 . S
C314 C313 1.346 . S
C314 H321 0.929 . S
C315 O305 1.282 . S
C315 O316 1.216 . S
O316 C315 1.216 . S
H317 C312 0.930 . S
H318 C313 0.930 . S
O319 Cu299 1.959 . S
O319 C306 1.251 . S
H320 C303 0.930 . S
H321 C314 0.929 . S
Cu322 N323 1.999 . S
Cu322 O328 1.974 . S
Cu322 N333 1.985 . S
Cu322 O342 1.959 . S
N323 Cu322 1.999 . S
N323 C325 1.263 . S
N323 C327 1.389 . S
N324 C325 1.358 . S
N324 C326 1.400 . S
C325 N323 1.263 . S
C325 N324 1.358 . S
C325 H331 0.930 . S
C326 N324 1.400 . S
C326 C327 1.351 . S
C326 H343 0.930 . S
C327 N323 1.389 . S
C327 C326 1.351 . S
C327 H332 0.930 . S
O328 Cu322 1.974 . S
O328 C338 1.282 . S
C329 O330 1.261 . S
C329 O342 1.251 . S
O330 C329 1.261 . S
H331 C325 0.930 . S
H332 C327 0.930 . S
N333 Cu322 1.985 . S
N333 C335 1.335 . S
N333 C336 1.390 . S
N334 C335 1.345 . S
N334 C337 1.336 1_556 S
C335 N333 1.335 . S
C335 N334 1.345 . S
C335 H340 0.930 . S
C336 N333 1.390 . S
C336 C337 1.346 1_556 S
C336 H341 0.930 1_556 S
C337 N334 1.336 1_554 S
C337 C336 1.346 1_554 S
C337 H344 0.929 . S
C338 O328 1.282 . S
C338 O339 1.216 . S
O339 C338 1.216 . S
H340 C335 0.930 . S
H341 C336 0.930 1_554 S
O342 Cu322 1.959 . S
O342 C329 1.251 . S
H343 C326 0.930 . S
H344 C337 0.929 . S
Cu345 N346 1.999 . S
Cu345 O351 1.974 . S
Cu345 N356 1.985 . S
Cu345 O365 1.959 . S
N346 Cu345 1.999 . S
N346 C348 1.263 . S
N346 C350 1.389 . S
N347 C348 1.358 . S
N347 C349 1.400 . S
C348 N346 1.263 . S
C348 N347 1.358 . S
C348 H354 0.930 . S
C349 N347 1.400 . S
C349 C350 1.351 . S
C349 H366 0.930 . S
C350 N346 1.389 . S
C350 C349 1.351 . S
C350 H355 0.930 . S
O351 Cu345 1.974 . S
O351 C361 1.282 . S
C352 O353 1.261 . S
C352 O365 1.251 . S
O353 C352 1.261 . S
H354 C348 0.930 . S
H355 C350 0.930 . S
N356 Cu345 1.985 . S
N356 C358 1.335 . S
N356 C359 1.390 . S
N357 C358 1.345 . S
N357 C360 1.336 . S
C358 N356 1.335 . S
C358 N357 1.345 . S
C358 H363 0.930 . S
C359 N356 1.390 . S
C359 C360 1.346 . S
C359 H364 0.930 . S
C360 N357 1.336 . S
C360 C359 1.346 . S
C360 H367 0.929 . S
C361 O351 1.282 . S
C361 O362 1.216 . S
O362 C361 1.216 . S
H363 C358 0.930 . S
H364 C359 0.930 . S
O365 Cu345 1.959 . S
O365 C352 1.251 . S
H366 C349 0.930 . S
H367 C360 0.929 . S
Cu368 N369 1.999 . S
Cu368 O374 1.974 . S
Cu368 N379 1.985 . S
Cu368 O388 1.959 . S
N369 Cu368 1.999 . S
N369 C371 1.263 . S
N369 C373 1.389 . S
N370 C371 1.358 . S
N370 C372 1.400 . S
C371 N369 1.263 . S
C371 N370 1.358 . S
C371 H377 0.930 . S
C372 N370 1.400 . S
C372 C373 1.351 . S
C372 H389 0.930 . S
C373 N369 1.389 . S
C373 C372 1.351 . S
C373 H378 0.930 . S
O374 Cu368 1.974 . S
O374 C384 1.282 . S
C375 O376 1.261 . S
C375 O388 1.251 . S
O376 C375 1.261 . S
H377 C371 0.930 . S
H378 C373 0.930 . S
N379 Cu368 1.985 . S
N379 C381 1.335 . S
N379 C382 1.390 . S
N380 C381 1.345 . S
N380 C383 1.336 . S
C381 N379 1.335 . S
C381 N380 1.345 . S
C381 H386 0.930 . S
C382 N379 1.390 . S
C382 C383 1.346 . S
C382 H387 0.930 . S
C383 N380 1.336 . S
C383 C382 1.346 . S
C383 H390 0.929 . S
C384 O374 1.282 . S
C384 O385 1.216 . S
O385 C384 1.216 . S
H386 C381 0.930 . S
H387 C382 0.930 . S
O388 Cu368 1.959 . S
O388 C375 1.251 . S
H389 C372 0.930 . S
H390 C383 0.929 . S
Cu391 N392 1.999 . S
Cu391 O397 1.974 . S
Cu391 N402 1.985 . S
Cu391 O411 1.959 . S
N392 Cu391 1.999 . S
N392 C394 1.263 . S
N392 C396 1.389 . S
N393 C394 1.358 . S
N393 C395 1.400 . S
C394 N392 1.263 . S
C394 N393 1.358 . S
C394 H400 0.930 . S
C395 N393 1.400 . S
C395 C396 1.351 . S
C395 H412 0.930 . S
C396 N392 1.389 . S
C396 C395 1.351 . S
C396 H401 0.930 . S
O397 Cu391 1.974 . S
O397 C407 1.282 . S
C398 O399 1.261 . S
C398 O411 1.251 . S
O399 C398 1.261 . S
H400 C394 0.930 . S
H401 C396 0.930 . S
N402 Cu391 1.985 . S
N402 C404 1.335 . S
N402 C405 1.390 . S
N403 C404 1.345 . S
N403 C406 1.336 . S
C404 N402 1.335 . S
C404 N403 1.345 . S
C404 H409 0.930 . S
C405 N402 1.390 . S
C405 C406 1.346 . S
C405 H410 0.930 . S
C406 N403 1.336 . S
C406 C405 1.346 . S
C406 H413 0.929 . S
C407 O397 1.282 . S
C407 O408 1.216 . S
O408 C407 1.216 . S
H409 C404 0.930 . S
H410 C405 0.930 . S
O411 Cu391 1.959 . S
O411 C398 1.251 . S
H412 C395 0.930 . S
H413 C406 0.929 . S
H414 C426 0.930 . S
H415 C428 0.930 . S
H416 C429 0.930 . S
H417 C433 0.959 1_556 S
H418 C433 0.959 . S
H419 C433 0.961 1_556 S
H420 C434 0.960 . S
H421 C434 0.961 . S
H422 C434 0.959 . S
H423 C437 0.929 1_556 S
H424 C438 0.931 . S
H425 C440 0.930 . S
C426 H414 0.930 . S
C426 C427 1.399 . S
C426 C431 1.399 . S
C427 C426 1.399 . S
C427 C428 1.376 . S
C428 H415 0.930 . S
C428 C427 1.376 . S
C428 C429 1.388 . S
C429 H416 0.930 . S
C429 C428 1.388 . S
C429 C430 1.390 . S
C430 C429 1.390 . S
C430 C431 1.394 . S
C430 C436 1.465 . S
C431 C426 1.399 . S
C431 C430 1.394 . S
C431 C432 1.516 1_556 S
C432 C431 1.516 1_554 S
C432 C433 1.502 1_455 S
C432 C434 1.561 . S
C432 C435 1.526 . S
C433 H417 0.959 1_554 S
C433 H418 0.959 . S
C433 H419 0.961 1_554 S
C433 C432 1.502 1_655 S
C434 H420 0.960 . S
C434 H421 0.961 . S
C434 H422 0.959 . S
C434 C432 1.561 . S
C435 C432 1.526 . S
C435 C436 1.396 1_554 S
C435 C440 1.390 . S
C436 C430 1.465 . S
C436 C435 1.396 1_556 S
C436 C437 1.399 1_556 S
C437 H423 0.929 1_554 S
C437 C436 1.399 1_554 S
C437 C438 1.385 . S
C438 H424 0.931 . S
C438 C437 1.385 . S
C438 C439 1.389 . S
C439 C438 1.389 . S
C439 C440 1.387 . S
C440 H425 0.930 . S
C440 C435 1.390 . S
C440 C439 1.387 . S
H441 C453 0.930 . S
H442 C455 0.930 . S
H443 C456 0.930 . S
H444 C460 0.959 . S
H445 C460 0.959 . S
H446 C460 0.961 . S
H447 C461 0.960 . S
H448 C461 0.961 . S
H449 C461 0.959 . S
H450 C464 0.929 . S
H451 C465 0.931 . S
H452 C467 0.932 . S
C453 H441 0.930 . S
C453 C454 1.399 . S
C453 C458 1.399 . S
C454 C453 1.399 . S
C454 C455 1.376 . S
C455 H442 0.930 . S
C455 C454 1.376 . S
C455 C456 1.388 . S
C456 H443 0.930 . S
C456 C455 1.388 . S
C456 C457 1.390 . S
C457 C456 1.390 . S
C457 C458 1.394 . S
C457 C463 1.465 . S
C458 C453 1.399 . S
C458 C457 1.394 . S
C458 C459 1.516 . S
C459 C458 1.516 . S
C459 C460 1.502 . S
C459 C461 1.561 . S
C459 C462 1.526 . S
C460 H444 0.959 . S
C460 H445 0.959 . S
C460 H446 0.961 . S
C460 C459 1.502 . S
C461 H447 0.960 . S
C461 H448 0.961 . S
C461 H449 0.959 . S
C461 C459 1.561 . S
C462 C459 1.526 . S
C462 C463 1.396 . S
C462 C467 1.384 1_556 S
C463 C457 1.465 . S
C463 C462 1.396 . S
C463 C464 1.399 . S
C464 H450 0.929 . S
C464 C463 1.399 . S
C464 C465 1.385 1_556 S
C465 H451 0.931 . S
C465 C464 1.385 1_554 S
C465 C466 1.389 . S
C466 C465 1.389 . S
C466 C467 1.390 . S
C467 H452 0.932 . S
C467 C462 1.384 1_554 S
C467 C466 1.390 . S
H468 C480 0.930 . S
H469 C482 0.930 . S
H470 C483 0.930 1_565 S
H471 C487 0.959 . S
H472 C487 0.959 . S
H473 C487 0.961 . S
H474 C488 0.960 . S
H475 C488 0.961 1_556 S
H476 C488 0.959 1_556 S
H477 C491 0.929 1_565 S
H478 C492 0.931 1_565 S
H479 C494 0.930 . S
C480 H468 0.930 . S
C480 C481 1.399 . S
C480 C485 1.399 . S
C481 C480 1.399 . S
C481 C482 1.376 . S
C482 H469 0.930 . S
C482 C481 1.376 . S
C482 C483 1.388 . S
C483 H470 0.930 1_545 S
C483 C482 1.388 . S
C483 C484 1.390 . S
C484 C483 1.390 . S
C484 C485 1.394 . S
C484 C490 1.465 . S
C485 C480 1.399 . S
C485 C484 1.394 . S
C485 C486 1.516 . S
C486 C485 1.516 . S
C486 C487 1.502 . S
C486 C488 1.561 . S
C486 C489 1.526 . S
C487 H471 0.959 . S
C487 H472 0.959 . S
C487 H473 0.961 . S
C487 C486 1.502 . S
C488 H474 0.960 . S
C488 H475 0.961 1_554 S
C488 H476 0.959 1_554 S
C488 C486 1.561 . S
C489 C486 1.526 . S
C489 C490 1.396 . S
C489 C494 1.390 1_554 S
C490 C484 1.465 . S
C490 C489 1.396 . S
C490 C491 1.399 1_554 S
C491 H477 0.929 1_545 S
C491 C490 1.399 1_556 S
C491 C492 1.385 . S
C492 H478 0.931 1_545 S
C492 C491 1.385 . S
C492 C493 1.389 . S
C493 C492 1.389 . S
C493 C494 1.387 . S
C494 H479 0.930 . S
C494 C489 1.390 1_556 S
C494 C493 1.387 . S
H495 C507 0.930 . S
H496 C509 0.930 . S
H497 C510 0.930 . S
H498 C514 0.959 1_545 S
H499 C514 0.959 . S
H500 C514 0.961 . S
H501 C515 0.960 . S
H502 C515 0.961 . S
H503 C515 0.962 . S
H504 C518 0.929 . S
H505 C519 0.931 . S
H506 C521 0.930 . S
C507 H495 0.930 . S
C507 C508 1.399 . S
C507 C512 1.399 . S
C508 C507 1.399 . S
C508 C509 1.376 . S
C509 H496 0.930 . S
C509 C508 1.376 . S
C509 C510 1.388 . S
C510 H497 0.930 . S
C510 C509 1.388 . S
C510 C511 1.390 . S
C511 C510 1.390 . S
C511 C512 1.394 . S
C511 C517 1.465 . S
C512 C507 1.399 . S
C512 C511 1.394 . S
C512 C513 1.516 . S
C513 C512 1.516 . S
C513 C514 1.502 1_545 S
C513 C515 1.561 1_545 S
C513 C516 1.526 . S
C514 H498 0.959 1_565 S
C514 H499 0.959 . S
C514 H500 0.961 . S
C514 C513 1.502 1_565 S
C515 H501 0.960 . S
C515 H502 0.961 . S
C515 H503 0.962 . S
C515 C513 1.561 1_565 S
C516 C513 1.526 . S
C516 C517 1.396 . S
C516 C521 1.390 . S
C517 C511 1.465 . S
C517 C516 1.396 . S
C517 C518 1.399 . S
C518 H504 0.929 . S
C518 C517 1.399 . S
C518 C519 1.385 . S
C519 H505 0.931 . S
C519 C518 1.385 . S
C519 C520 1.389 . S
C520 C519 1.389 . S
C520 C521 1.387 . S
C521 H506 0.930 . S
C521 C516 1.390 . S
C521 C520 1.387 . S
H522 C534 0.930 . S
H523 C536 0.930 . S
H524 C537 0.967 . S
H525 C541 0.959 . S
H526 C541 0.959 . S
H527 C541 0.961 . S
H528 C542 0.960 . S
H529 C542 0.961 . S
H530 C542 0.959 . S
H531 C545 0.929 1_655 S
H532 C546 0.931 1_655 S
H533 C548 0.930 . S
C534 H522 0.930 . S
C534 C535 1.399 . S
C534 C539 1.399 . S
C535 C534 1.399 . S
C535 C536 1.376 . S
C536 H523 0.930 . S
C536 C535 1.376 . S
C536 C537 1.388 . S
C537 H524 0.967 . S
C537 C536 1.388 . S
C537 C538 1.390 . S
C538 C537 1.390 . S
C538 C539 1.394 . S
C538 C544 1.465 . S
C539 C534 1.399 . S
C539 C538 1.394 . S
C539 C540 1.516 . S
C540 C539 1.516 . S
C540 C541 1.502 . S
C540 C542 1.561 . S
C540 C543 1.526 . S
C541 H525 0.959 . S
C541 H526 0.959 . S
C541 H527 0.961 . S
C541 C540 1.502 . S
C542 H528 0.960 . S
C542 H529 0.961 . S
C542 H530 0.959 . S
C542 C540 1.561 . S
C543 C540 1.526 . S
C543 C544 1.396 . S
C543 C548 1.390 . S
C544 C538 1.465 . S
C544 C543 1.396 . S
C544 C545 1.399 . S
C545 H531 0.929 1_455 S
C545 C544 1.399 . S
C545 C546 1.385 . S
C546 H532 0.931 1_455 S
C546 C545 1.385 . S
C546 C547 1.389 . S
C547 C546 1.389 . S
C547 C548 1.387 . S
C548 H533 0.930 . S
C548 C543 1.390 . S
C548 C547 1.387 . S
H549 C561 0.930 . S
H550 C563 0.930 . S
H551 C564 0.930 . S
H552 C568 0.959 . S
H553 C568 0.959 . S
H554 C568 0.961 . S
H555 C569 0.960 . S
H556 C569 0.961 . S
H557 C569 0.959 . S
H558 C572 0.929 . S
H559 C573 0.931 . S
H560 C575 0.930 . S
C561 H549 0.930 . S
C561 C562 1.399 . S
C561 C566 1.399 . S
C562 C561 1.399 . S
C562 C563 1.376 . S
C563 H550 0.930 . S
C563 C562 1.376 . S
C563 C564 1.388 . S
C564 H551 0.930 . S
C564 C563 1.388 . S
C564 C565 1.390 . S
C565 C564 1.390 . S
C565 C566 1.394 . S
C565 C571 1.465 . S
C566 C561 1.399 . S
C566 C565 1.394 . S
C566 C567 1.516 . S
C567 C566 1.516 . S
C567 C568 1.502 . S
C567 C569 1.561 . S
C567 C570 1.526 . S
C568 H552 0.959 . S
C568 H553 0.959 . S
C568 H554 0.961 . S
C568 C567 1.502 . S
C569 H555 0.960 . S
C569 H556 0.961 . S
C569 H557 0.959 . S
C569 C567 1.561 . S
C570 C567 1.526 . S
C570 C571 1.396 . S
C570 C575 1.390 . S
C571 C565 1.465 . S
C571 C570 1.396 . S
C571 C572 1.399 . S
C572 H558 0.929 . S
C572 C571 1.399 . S
C572 C573 1.385 . S
C573 H559 0.931 . S
C573 C572 1.385 . S
C573 C574 1.389 . S
C574 C573 1.389 . S
C574 C575 1.387 . S
C575 H560 0.930 . S
C575 C570 1.390 . S
C575 C574 1.387 . S
H576 C588 0.930 . S
H577 C590 0.930 . S
H578 C591 0.930 . S
H579 C595 0.959 . S
H580 C595 0.959 . S
H581 C595 0.961 . S
H582 C596 0.960 . S
H583 C596 0.961 . S
H584 C596 0.959 . S
H585 C599 0.929 . S
H586 C600 0.931 . S
H587 C602 0.930 . S
C588 H576 0.930 . S
C588 C589 1.399 . S
C588 C593 1.399 . S
C589 C588 1.399 . S
C589 C590 1.376 . S
C590 H577 0.930 . S
C590 C589 1.376 . S
C590 C591 1.388 . S
C591 H578 0.930 . S
C591 C590 1.388 . S
C591 C592 1.390 . S
C592 C591 1.390 . S
C592 C593 1.394 . S
C592 C598 1.465 . S
C593 C588 1.399 . S
C593 C592 1.394 . S
C593 C594 1.516 . S
C594 C593 1.516 . S
C594 C595 1.502 . S
C594 C596 1.561 . S
C594 C597 1.526 . S
C595 H579 0.959 . S
C595 H580 0.959 . S
C595 H581 0.961 . S
C595 C594 1.502 . S
C596 H582 0.960 . S
C596 H583 0.961 . S
C596 H584 0.959 . S
C596 C594 1.561 . S
C597 C594 1.526 . S
C597 C598 1.396 . S
C597 C602 1.390 . S
C598 C592 1.465 . S
C598 C597 1.396 . S
C598 C599 1.399 . S
C599 H585 0.929 . S
C599 C598 1.399 . S
C599 C600 1.385 . S
C600 H586 0.931 . S
C600 C599 1.385 . S
C600 C601 1.389 . S
C601 C600 1.389 . S
C601 C602 1.387 . S
C602 H587 0.930 . S
C602 C597 1.390 . S
C602 C601 1.387 . S
H603 C615 0.930 . S
H604 C617 0.930 . S
H605 C618 0.930 . S
H606 C622 0.959 . S
H607 C622 0.959 . S
H608 C622 0.961 . S
H609 C623 0.960 . S
H610 C623 0.961 . S
H611 C623 0.959 . S
H612 C626 0.929 . S
H613 C627 0.931 . S
H614 C629 0.930 . S
C615 H603 0.930 . S
C615 C616 1.399 . S
C615 C620 1.399 . S
C616 C615 1.399 . S
C616 C617 1.376 . S
C617 H604 0.930 . S
C617 C616 1.376 . S
C617 C618 1.388 . S
C618 H605 0.930 . S
C618 C617 1.388 . S
C618 C619 1.390 . S
C619 C618 1.390 . S
C619 C620 1.394 . S
C619 C625 1.465 . S
C620 C615 1.399 . S
C620 C619 1.394 . S
C620 C621 1.516 . S
C621 C620 1.516 . S
C621 C622 1.502 . S
C621 C623 1.561 . S
C621 C624 1.526 . S
C622 H606 0.959 . S
C622 H607 0.959 . S
C622 H608 0.961 . S
C622 C621 1.502 . S
C623 H609 0.960 . S
C623 H610 0.961 . S
C623 H611 0.959 . S
C623 C621 1.561 . S
C624 C621 1.526 . S
C624 C625 1.396 . S
C624 C629 1.390 . S
C625 C619 1.465 . S
C625 C624 1.396 . S
C625 C626 1.399 . S
C626 H612 0.929 . S
C626 C625 1.399 . S
C626 C627 1.385 . S
C627 H613 0.931 . S
C627 C626 1.385 . S
C627 C628 1.389 . S
C628 C627 1.389 . S
C628 C629 1.387 . S
C629 H614 0.930 . S
C629 C624 1.390 . S
C629 C628 1.387 . S
H630 C642 0.930 . S
H631 C644 0.930 . S
H632 C645 0.930 . S
H633 C649 0.959 . S
H634 C649 0.959 . S
H635 C649 0.961 . S
H636 C650 0.960 . S
H637 C650 0.961 . S
H638 C650 0.959 . S
H639 C653 0.929 . S
H640 C654 0.931 . S
H641 C656 0.930 . S
C642 H630 0.930 . S
C642 C643 1.399 . S
C642 C647 1.399 . S
C643 C642 1.399 . S
C643 C644 1.376 . S
C644 H631 0.930 . S
C644 C643 1.376 . S
C644 C645 1.388 . S
C645 H632 0.930 . S
C645 C644 1.388 . S
C645 C646 1.390 . S
C646 C645 1.390 . S
C646 C647 1.394 . S
C646 C652 1.465 . S
C647 C642 1.399 . S
C647 C646 1.394 . S
C647 C648 1.516 . S
C648 C647 1.516 . S
C648 C649 1.502 . S
C648 C650 1.561 . S
C648 C651 1.526 . S
C649 H633 0.959 . S
C649 H634 0.959 . S
C649 H635 0.961 . S
C649 C648 1.502 . S
C650 H636 0.960 . S
C650 H637 0.961 . S
C650 H638 0.959 . S
C650 C648 1.561 . S
C651 C648 1.526 . S
C651 C652 1.396 . S
C651 C656 1.390 . S
C652 C646 1.465 . S
C652 C651 1.396 . S
C652 C653 1.399 . S
C653 H639 0.929 . S
C653 C652 1.399 . S
C653 C654 1.385 . S
C654 H640 0.931 . S
C654 C653 1.385 . S
C654 C655 1.389 . S
C655 C654 1.389 . S
C655 C656 1.387 . S
C656 H641 0.930 . S
C656 C651 1.390 . S
C656 C655 1.387 . S
H657 C669 0.930 . S
H658 C671 0.930 1_554 S
H659 C672 0.930 . S
H660 C676 0.959 . S
H661 C676 0.959 . S
H662 C676 0.961 . S
H663 C677 0.960 . S
H664 C677 0.961 . S
H665 C677 0.959 . S
H666 C680 0.929 . S
H667 C681 0.931 . S
H668 C683 0.930 . S
C669 H657 0.930 . S
C669 C670 1.399 . S
C669 C674 1.399 . S
C670 C669 1.399 . S
C670 C671 1.376 . S
C671 H658 0.930 1_556 S
C671 C670 1.376 . S
C671 C672 1.388 . S
C672 H659 0.930 . S
C672 C671 1.388 . S
C672 C673 1.390 . S
C673 C672 1.390 . S
C673 C674 1.394 . S
C673 C679 1.465 . S
C674 C669 1.399 . S
C674 C673 1.394 . S
C674 C675 1.516 . S
C675 C674 1.516 . S
C675 C676 1.502 . S
C675 C677 1.561 . S
C675 C678 1.526 . S
C676 H660 0.959 . S
C676 H661 0.959 . S
C676 H662 0.961 . S
C676 C675 1.502 . S
C677 H663 0.960 . S
C677 H664 0.961 . S
C677 H665 0.959 . S
C677 C675 1.561 . S
C678 C675 1.526 . S
C678 C679 1.396 . S
C678 C683 1.390 . S
C679 C673 1.465 . S
C679 C678 1.396 . S
C679 C680 1.399 . S
C680 H666 0.929 . S
C680 C679 1.399 . S
C680 C681 1.385 . S
C681 H667 0.931 . S
C681 C680 1.385 . S
C681 C682 1.389 . S
C682 C681 1.389 . S
C682 C683 1.387 . S
C683 H668 0.930 . S
C683 C678 1.390 . S
C683 C682 1.387 . S
H684 C696 0.930 . S
H685 C698 0.930 1_554 S
H686 C699 0.930 . S
H687 C703 0.959 . S
H688 C703 0.959 . S
H689 C703 0.961 . S
H690 C704 0.960 . S
H691 C704 0.961 . S
H692 C704 0.959 . S
H693 C707 0.929 . S
H694 C708 0.931 . S
H695 C710 0.930 . S
C696 H684 0.930 . S
C696 C697 1.399 . S
C696 C701 1.399 . S
C697 C696 1.399 . S
C697 C698 1.376 . S
C698 H685 0.930 1_556 S
C698 C697 1.376 . S
C698 C699 1.388 . S
C699 H686 0.930 . S
C699 C698 1.388 . S
C699 C700 1.390 . S
C700 C699 1.390 . S
C700 C701 1.394 . S
C700 C706 1.465 . S
C701 C696 1.399 . S
C701 C700 1.394 . S
C701 C702 1.516 . S
C702 C701 1.516 . S
C702 C703 1.502 . S
C702 C704 1.561 . S
C702 C705 1.526 . S
C703 H687 0.959 . S
C703 H688 0.959 . S
C703 H689 0.961 . S
C703 C702 1.502 . S
C704 H690 0.960 . S
C704 H691 0.961 . S
C704 H692 0.959 . S
C704 C702 1.561 . S
C705 C702 1.526 . S
C705 C706 1.396 . S
C705 C710 1.390 . S
C706 C700 1.465 . S
C706 C705 1.396 . S
C706 C707 1.399 . S
C707 H693 0.929 . S
C707 C706 1.399 . S
C707 C708 1.385 . S
C708 H694 0.931 . S
C708 C707 1.385 . S
C708 C709 1.389 . S
C709 C708 1.389 . S
C709 C710 1.387 . S
C710 H695 0.930 . S
C710 C705 1.390 . S
C710 C709 1.387 . S
H711 C723 0.930 1_554 S
H712 C725 0.930 . S
H713 C726 0.930 . S
H714 C730 0.959 . S
H715 C730 0.959 . S
H716 C730 0.961 . S
H717 C731 0.960 . S
H718 C731 0.961 . S
H719 C731 0.959 . S
H720 C734 0.929 . S
H721 C735 0.931 . S
H722 C737 0.930 . S
C723 H711 0.930 1_556 S
C723 C724 1.399 . S
C723 C728 1.399 . S
C724 C723 1.399 . S
C724 C725 1.376 . S
C725 H712 0.930 . S
C725 C724 1.376 . S
C725 C726 1.388 . S
C726 H713 0.930 . S
C726 C725 1.388 . S
C726 C727 1.390 . S
C727 C726 1.390 . S
C727 C728 1.394 . S
C727 C733 1.465 . S
C728 C723 1.399 . S
C728 C727 1.394 . S
C728 C729 1.516 . S
C729 C728 1.516 . S
C729 C730 1.502 . S
C729 C731 1.561 . S
C729 C732 1.526 . S
C730 H714 0.959 . S
C730 H715 0.959 . S
C730 H716 0.961 . S
C730 C729 1.502 . S
C731 H717 0.960 . S
C731 H718 0.961 . S
C731 H719 0.959 . S
C731 C729 1.561 . S
C732 C729 1.526 . S
C732 C733 1.396 . S
C732 C737 1.390 . S
C733 C727 1.465 . S
C733 C732 1.396 . S
C733 C734 1.399 . S
C734 H720 0.929 . S
C734 C733 1.399 . S
C734 C735 1.385 . S
C735 H721 0.931 . S
C735 C734 1.385 . S
C735 C736 1.389 . S
C736 C735 1.389 . S
C736 C737 1.387 . S
C737 H722 0.930 . S
C737 C732 1.390 . S
C737 C736 1.387 . S
H738 C750 0.930 . S
H739 C752 0.930 . S
H740 C753 0.930 . S
H741 C757 0.959 . S
H742 C757 0.959 . S
H743 C757 0.961 . S
H744 C758 0.960 . S
H745 C758 0.961 . S
H746 C758 0.959 . S
H747 C761 0.929 . S
H748 C762 0.931 . S
H749 C764 0.930 . S
C750 H738 0.930 . S
C750 C751 1.399 . S
C750 C755 1.399 . S
C751 C750 1.399 . S
C751 C752 1.376 . S
C752 H739 0.930 . S
C752 C751 1.376 . S
C752 C753 1.388 . S
C753 H740 0.930 . S
C753 C752 1.388 . S
C753 C754 1.390 . S
C754 C753 1.390 . S
C754 C755 1.394 . S
C754 C760 1.465 . S
C755 C750 1.399 . S
C755 C754 1.394 . S
C755 C756 1.516 . S
C756 C755 1.516 . S
C756 C757 1.502 . S
C756 C758 1.561 . S
C756 C759 1.526 . S
C757 H741 0.959 . S
C757 H742 0.959 . S
C757 H743 0.961 . S
C757 C756 1.502 . S
C758 H744 0.960 . S
C758 H745 0.961 . S
C758 H746 0.959 . S
C758 C756 1.561 . S
C759 C756 1.526 . S
C759 C760 1.396 . S
C759 C764 1.390 . S
C760 C754 1.465 . S
C760 C759 1.396 . S
C760 C761 1.399 . S
C761 H747 0.929 . S
C761 C760 1.399 . S
C761 C762 1.385 . S
C762 H748 0.931 . S
C762 C761 1.385 . S
C762 C763 1.389 . S
C763 C762 1.389 . S
C763 C764 1.387 . S
C764 H749 0.930 . S
C764 C759 1.390 . S
C764 C763 1.387 . S
H765 C777 0.930 . S
H766 C779 0.930 . S
H767 C780 0.930 . S
H768 C784 0.959 . S
H769 C784 0.959 . S
H770 C784 0.961 . S
H771 C785 0.960 . S
H772 C785 0.961 . S
H773 C785 0.959 . S
H774 C788 0.929 . S
H775 C789 0.931 . S
H776 C791 0.930 . S
C777 H765 0.930 . S
C777 C778 1.399 . S
C777 C782 1.399 . S
C778 C777 1.399 . S
C778 C779 1.376 . S
C779 H766 0.930 . S
C779 C778 1.376 . S
C779 C780 1.388 . S
C780 H767 0.930 . S
C780 C779 1.388 . S
C780 C781 1.390 . S
C781 C780 1.390 . S
C781 C782 1.394 . S
C781 C787 1.465 . S
C782 C777 1.399 . S
C782 C781 1.394 . S
C782 C783 1.516 . S
C783 C782 1.516 . S
C783 C784 1.502 . S
C783 C785 1.561 . S
C783 C786 1.526 . S
C784 H768 0.959 . S
C784 H769 0.959 . S
C784 H770 0.961 . S
C784 C783 1.502 . S
C785 H771 0.960 . S
C785 H772 0.961 . S
C785 H773 0.959 . S
C785 C783 1.561 . S
C786 C783 1.526 . S
C786 C787 1.396 . S
C786 C791 1.390 . S
C787 C781 1.465 . S
C787 C786 1.396 . S
C787 C788 1.399 . S
C788 H774 0.929 . S
C788 C787 1.399 . S
C788 C789 1.385 . S
C789 H775 0.931 . S
C789 C788 1.385 . S
C789 C790 1.389 . S
C790 C789 1.389 . S
C790 C791 1.387 . S
C791 H776 0.930 . S
C791 C786 1.390 . S
C791 C790 1.387 . S
H792 C804 0.930 . S
H793 C806 0.930 . S
H794 C807 0.930 . S
H795 C811 0.959 . S
H796 C811 0.959 . S
H797 C811 0.961 . S
H798 C812 0.960 . S
H799 C812 0.961 . S
H800 C812 0.959 . S
H801 C815 0.929 . S
H802 C816 0.931 . S
H803 C818 0.930 . S
C804 H792 0.930 . S
C804 C805 1.399 . S
C804 C809 1.399 . S
C805 C804 1.399 . S
C805 C806 1.376 . S
C806 H793 0.930 . S
C806 C805 1.376 . S
C806 C807 1.388 . S
C807 H794 0.930 . S
C807 C806 1.388 . S
C807 C808 1.390 . S
C808 C807 1.390 . S
C808 C809 1.394 . S
C808 C814 1.465 . S
C809 C804 1.399 . S
C809 C808 1.394 . S
C809 C810 1.516 . S
C810 C809 1.516 . S
C810 C811 1.502 . S
C810 C812 1.561 . S
C810 C813 1.526 . S
C811 H795 0.959 . S
C811 H796 0.959 . S
C811 H797 0.961 . S
C811 C810 1.502 . S
C812 H798 0.960 . S
C812 H799 0.961 . S
C812 H800 0.959 . S
C812 C810 1.561 . S
C813 C810 1.526 . S
C813 C814 1.396 . S
C813 C818 1.390 . S
C814 C808 1.465 . S
C814 C813 1.396 . S
C814 C815 1.399 . S
C815 H801 0.929 . S
C815 C814 1.399 . S
C815 C816 1.385 . S
C816 H802 0.931 . S
C816 C815 1.385 . S
C816 C817 1.389 . S
C817 C816 1.389 . S
C817 C818 1.387 . S
C818 H803 0.930 . S
C818 C813 1.390 . S
C818 C817 1.387 . S
H819 C831 0.930 . S
H820 C833 0.930 . S
H821 C834 0.930 . S
H822 C838 0.959 . S
H823 C838 0.959 . S
H824 C838 0.961 . S
H825 C839 0.960 . S
H826 C839 0.961 . S
H827 C839 0.959 . S
H828 C842 0.929 . S
H829 C843 0.931 . S
H830 C845 0.930 1_556 S
C831 H819 0.930 . S
C831 C832 1.399 . S
C831 C836 1.399 . S
C832 C831 1.399 . S
C832 C833 1.376 . S
C833 H820 0.930 . S
C833 C832 1.376 . S
C833 C834 1.388 . S
C834 H821 0.930 . S
C834 C833 1.388 . S
C834 C835 1.390 . S
C835 C834 1.390 . S
C835 C836 1.394 . S
C835 C841 1.465 . S
C836 C831 1.399 . S
C836 C835 1.394 . S
C836 C837 1.516 . S
C837 C836 1.516 . S
C837 C838 1.502 . S
C837 C839 1.561 . S
C837 C840 1.526 . S
C838 H822 0.959 . S
C838 H823 0.959 . S
C838 H824 0.961 . S
C838 C837 1.502 . S
C839 H825 0.960 . S
C839 H826 0.961 . S
C839 H827 0.959 . S
C839 C837 1.561 . S
C840 C837 1.526 . S
C840 C841 1.396 . S
C840 C845 1.390 . S
C841 C835 1.465 . S
C841 C840 1.396 . S
C841 C842 1.399 . S
C842 H828 0.929 . S
C842 C841 1.399 . S
C842 C843 1.385 . S
C843 H829 0.931 . S
C843 C842 1.385 . S
C843 C844 1.389 1_554 S
C844 C843 1.389 1_556 S
C844 C845 1.387 1_556 S
C845 H830 0.930 1_554 S
C845 C840 1.390 . S
C845 C844 1.387 1_554 S
H846 C858 0.930 . S
H847 C860 0.930 . S
H848 C861 0.930 . S
H849 C865 0.959 . S
H850 C865 0.959 . S
H851 C865 0.961 . S
H852 C866 0.960 . S
H853 C866 0.961 . S
H854 C866 0.959 . S
H855 C869 0.929 . S
H856 C870 0.931 . S
H857 C872 0.930 . S
C858 H846 0.930 . S
C858 C859 1.399 . S
C858 C863 1.399 . S
C859 C858 1.399 . S
C859 C860 1.376 . S
C860 H847 0.930 . S
C860 C859 1.376 . S
C860 C861 1.388 . S
C861 H848 0.930 . S
C861 C860 1.388 . S
C861 C862 1.390 . S
C862 C861 1.390 . S
C862 C863 1.394 . S
C862 C868 1.465 . S
C863 C858 1.399 . S
C863 C862 1.394 . S
C863 C864 1.516 . S
C864 C863 1.516 . S
C864 C865 1.502 . S
C864 C866 1.561 . S
C864 C867 1.526 . S
C865 H849 0.959 . S
C865 H850 0.959 . S
C865 H851 0.961 . S
C865 C864 1.502 . S
C866 H852 0.960 . S
C866 H853 0.961 . S
C866 H854 0.959 . S
C866 C864 1.561 . S
C867 C864 1.526 . S
C867 C868 1.396 . S
C867 C872 1.390 . S
C868 C862 1.465 . S
C868 C867 1.396 . S
C868 C869 1.399 . S
C869 H855 0.929 . S
C869 C868 1.399 . S
C869 C870 1.385 . S
C870 H856 0.931 . S
C870 C869 1.385 . S
C870 C871 1.389 . S
C871 C870 1.389 . S
C871 C872 1.387 . S
C872 H857 0.930 . S
C872 C867 1.390 . S
C872 C871 1.387 . S
H873 C885 0.930 . S
H874 C887 0.930 . S
H875 C888 0.930 . S
H876 C892 0.959 . S
H877 C892 0.959 . S
H878 C892 0.961 . S
H879 C893 0.960 . S
H880 C893 0.961 . S
H881 C893 0.959 . S
H882 C896 0.929 . S
H883 C897 0.931 . S
H884 C899 0.930 . S
C885 H873 0.930 . S
C885 C886 1.399 . S
C885 C890 1.399 . S
C886 C885 1.399 . S
C886 C887 1.376 . S
C887 H874 0.930 . S
C887 C886 1.376 . S
C887 C888 1.388 . S
C888 H875 0.930 . S
C888 C887 1.388 . S
C888 C889 1.390 . S
C889 C888 1.390 . S
C889 C890 1.394 . S
C889 C895 1.465 . S
C890 C885 1.399 . S
C890 C889 1.394 . S
C890 C891 1.516 . S
C891 C890 1.516 . S
C891 C892 1.502 . S
C891 C893 1.561 . S
C891 C894 1.526 . S
C892 H876 0.959 . S
C892 H877 0.959 . S
C892 H878 0.961 . S
C892 C891 1.502 . S
C893 H879 0.960 . S
C893 H880 0.961 . S
C893 H881 0.959 . S
C893 C891 1.561 . S
C894 C891 1.526 . S
C894 C895 1.396 . S
C894 C899 1.390 . S
C895 C889 1.465 . S
C895 C894 1.396 . S
C895 C896 1.399 . S
C896 H882 0.929 . S
C896 C895 1.399 . S
C896 C897 1.385 . S
C897 H883 0.931 . S
C897 C896 1.385 . S
C897 C898 1.389 . S
C898 C897 1.389 . S
C898 C899 1.387 . S
C899 H884 0.930 . S
C899 C894 1.390 . S
C899 C898 1.387 . S
H900 C912 0.930 . S
H901 C914 0.930 . S
H902 C915 0.930 . S
H903 C919 0.959 . S
H904 C919 0.959 . S
H905 C919 0.961 . S
H906 C920 0.960 . S
H907 C920 0.961 . S
H908 C920 0.959 . S
H909 C923 0.929 . S
H910 C924 0.931 . S
H911 C926 0.930 . S
C912 H900 0.930 . S
C912 C913 1.399 . S
C912 C917 1.399 . S
C913 C912 1.399 . S
C913 C914 1.376 . S
C914 H901 0.930 . S
C914 C913 1.376 . S
C914 C915 1.388 . S
C915 H902 0.930 . S
C915 C914 1.388 . S
C915 C916 1.390 . S
C916 C915 1.390 . S
C916 C917 1.394 . S
C916 C922 1.465 . S
C917 C912 1.399 . S
C917 C916 1.394 . S
C917 C918 1.516 . S
C918 C917 1.516 . S
C918 C919 1.502 . S
C918 C920 1.561 . S
C918 C921 1.526 . S
C919 H903 0.959 . S
C919 H904 0.959 . S
C919 H905 0.961 . S
C919 C918 1.502 . S
C920 H906 0.960 . S
C920 H907 0.961 . S
C920 H908 0.959 . S
C920 C918 1.561 . S
C921 C918 1.526 . S
C921 C922 1.396 . S
C921 C926 1.390 . S
C922 C916 1.465 . S
C922 C921 1.396 . S
C922 C923 1.399 . S
C923 H909 0.929 . S
C923 C922 1.399 . S
C923 C924 1.385 . S
C924 H910 0.931 . S
C924 C923 1.385 . S
C924 C925 1.389 . S
C925 C924 1.389 . S
C925 C926 1.387 . S
C926 H911 0.930 . S
C926 C921 1.390 . S
C926 C925 1.387 . S
H927 C939 0.930 . S
H928 C941 0.930 . S
H929 C942 0.930 . S
H930 C946 0.959 . S
H931 C946 0.959 . S
H932 C946 0.961 . S
H933 C947 0.960 . S
H934 C947 0.961 . S
H935 C947 0.959 . S
H936 C950 0.929 . S
H937 C951 0.931 . S
H938 C953 0.930 . S
C939 H927 0.930 . S
C939 C940 1.399 . S
C939 C944 1.399 . S
C940 C939 1.399 . S
C940 C941 1.376 . S
C941 H928 0.930 . S
C941 C940 1.376 . S
C941 C942 1.388 . S
C942 H929 0.930 . S
C942 C941 1.388 . S
C942 C943 1.390 . S
C943 C942 1.390 . S
C943 C944 1.394 . S
C943 C949 1.465 . S
C944 C939 1.399 . S
C944 C943 1.394 . S
C944 C945 1.516 . S
C945 C944 1.516 . S
C945 C946 1.502 . S
C945 C947 1.561 . S
C945 C948 1.526 . S
C946 H930 0.959 . S
C946 H931 0.959 . S
C946 H932 0.961 . S
C946 C945 1.502 . S
C947 H933 0.960 . S
C947 H934 0.961 . S
C947 H935 0.959 . S
C947 C945 1.561 . S
C948 C945 1.526 . S
C948 C949 1.396 . S
C948 C953 1.390 . S
C949 C943 1.465 . S
C949 C948 1.396 . S
C949 C950 1.399 . S
C950 H936 0.929 . S
C950 C949 1.399 . S
C950 C951 1.385 . S
C951 H937 0.931 . S
C951 C950 1.385 . S
C951 C952 1.389 . S
C952 C951 1.389 . S
C952 C953 1.387 . S
C953 H938 0.930 . S
C953 C948 1.390 . S
C953 C952 1.387 . S
H954 C966 0.930 . S
H955 C968 0.930 . S
H956 C969 0.930 . S
H957 C973 0.959 . S
H958 C973 0.959 . S
H959 C973 0.961 . S
H960 C974 0.960 . S
H961 C974 0.961 . S
H962 C974 0.959 . S
H963 C977 0.929 . S
H964 C978 0.902 1_545 S
H965 C980 0.930 . S
C966 H954 0.930 . S
C966 C967 1.399 . S
C966 C971 1.399 . S
C967 C966 1.399 . S
C967 C968 1.376 . S
C968 H955 0.930 . S
C968 C967 1.376 . S
C968 C969 1.388 . S
C969 H956 0.930 . S
C969 C968 1.388 . S
C969 C970 1.390 . S
C970 C969 1.390 . S
C970 C971 1.394 . S
C970 C976 1.465 . S
C971 C966 1.399 . S
C971 C970 1.394 . S
C971 C972 1.516 . S
C972 C971 1.516 . S
C972 C973 1.502 . S
C972 C974 1.561 1_565 S
C972 C975 1.526 . S
C973 H957 0.959 . S
C973 H958 0.959 . S
C973 H959 0.961 . S
C973 C972 1.502 . S
C974 H960 0.960 . S
C974 H961 0.961 . S
C974 H962 0.959 . S
C974 C972 1.561 1_545 S
C975 C972 1.526 . S
C975 C976 1.396 . S
C975 C980 1.390 1_565 S
C976 C970 1.465 . S
C976 C975 1.396 . S
C976 C977 1.399 . S
C977 H963 0.929 . S
C977 C976 1.399 . S
C977 C978 1.441 . S
C978 H964 0.902 1_565 S
C978 C977 1.441 . S
C978 C979 1.358 1_565 S
C979 C978 1.358 1_545 S
C979 C980 1.387 . S
C980 H965 0.930 . S
C980 C975 1.390 1_545 S
C980 C979 1.387 . S
H981 C993 0.930 . S
H982 C995 0.930 . S
H983 C996 0.930 . S
H984 C1000 0.959 . S
H985 C1000 0.959 . S
H986 C1000 0.961 . S
H987 C1001 0.960 . S
H988 C1001 0.961 . S
H989 C1001 0.959 . S
H990 C1004 0.929 . S
H991 C1005 0.931 . S
H992 C1007 0.930 . S
C993 H981 0.930 . S
C993 C994 1.399 . S
C993 C998 1.399 . S
C994 C993 1.399 . S
C994 C995 1.376 . S
C995 H982 0.930 . S
C995 C994 1.376 . S
C995 C996 1.388 . S
C996 H983 0.930 . S
C996 C995 1.388 . S
C996 C997 1.390 . S
C997 C996 1.390 . S
C997 C998 1.394 . S
C997 C1003 1.465 . S
C998 C993 1.399 . S
C998 C997 1.394 . S
C998 C999 1.516 . S
C999 C998 1.516 . S
C999 C1000 1.502 . S
C999 C1001 1.561 . S
C999 C1002 1.526 . S
C1000 H984 0.959 . S
C1000 H985 0.959 . S
C1000 H986 0.961 . S
C1000 C999 1.502 . S
C1001 H987 0.960 . S
C1001 H988 0.961 . S
C1001 H989 0.959 . S
C1001 C999 1.561 . S
C1002 C999 1.526 . S
C1002 C1003 1.396 . S
C1002 C1007 1.390 . S
C1003 C997 1.465 . S
C1003 C1002 1.396 . S
C1003 C1004 1.399 . S
C1004 H990 0.929 . S
C1004 C1003 1.399 . S
C1004 C1005 1.385 . S
C1005 H991 0.931 . S
C1005 C1004 1.385 . S
C1005 C1006 1.389 . S
C1006 C1005 1.389 . S
C1006 C1007 1.387 . S
C1007 H992 0.930 . S
C1007 C1002 1.390 . S
C1007 C1006 1.387 . S
H1008 C1020 0.930 . S
H1009 C1022 0.930 . S
H1010 C1023 0.930 . S
H1011 C1027 0.959 . S
H1012 C1027 0.959 . S
H1013 C1027 0.961 . S
H1014 C1028 0.960 . S
H1015 C1028 0.961 . S
H1016 C1028 0.959 . S
H1017 C1031 0.929 1_556 S
H1018 C1032 0.931 . S
H1019 C1034 0.930 . S
C1020 H1008 0.930 . S
C1020 C1021 1.399 1_554 S
C1020 C1025 1.399 . S
C1021 C1020 1.399 1_556 S
C1021 C1022 1.376 . S
C1022 H1009 0.930 . S
C1022 C1021 1.376 . S
C1022 C1023 1.388 1_655 S
C1023 H1010 0.930 . S
C1023 C1022 1.388 1_455 S
C1023 C1024 1.390 1_456 S
C1024 C1023 1.390 1_654 S
C1024 C1025 1.394 . S
C1024 C1030 1.465 1_655 S
C1025 C1020 1.399 . S
C1025 C1024 1.394 . S
C1025 C1026 1.516 . S
C1026 C1025 1.516 . S
C1026 C1027 1.502 . S
C1026 C1028 1.561 . S
C1026 C1029 1.526 . S
C1027 H1011 0.959 . S
C1027 H1012 0.959 . S
C1027 H1013 0.961 . S
C1027 C1026 1.502 . S
C1028 H1014 0.960 . S
C1028 H1015 0.961 . S
C1028 H1016 0.959 . S
C1028 C1026 1.561 . S
C1029 C1026 1.526 . S
C1029 C1030 1.396 1_655 S
C1029 C1034 1.390 . S
C1030 C1024 1.465 1_455 S
C1030 C1029 1.396 1_455 S
C1030 C1031 1.399 . S
C1031 H1017 0.929 1_554 S
C1031 C1030 1.399 . S
C1031 C1032 1.385 . S
C1032 H1018 0.931 . S
C1032 C1031 1.385 . S
C1032 C1033 1.389 . S
C1033 C1032 1.389 . S
C1033 C1034 1.387 1_455 S
C1034 H1019 0.930 . S
C1034 C1029 1.390 . S
C1034 C1033 1.387 1_655 S
H1035 C1047 0.930 . S
H1036 C1049 0.930 . S
H1037 C1050 0.930 . S
H1038 C1054 0.959 . S
H1039 C1054 0.959 . S
H1040 C1054 0.961 . S
H1041 C1055 0.960 . S
H1042 C1055 0.961 . S
H1043 C1055 0.959 . S
H1044 C1058 0.929 . S
H1045 C1059 0.931 . S
H1046 C1061 0.930 . S
C1047 H1035 0.930 . S
C1047 C1048 1.399 1_554 S
C1047 C1052 1.399 . S
C1048 C1047 1.399 1_556 S
C1048 C1049 1.376 . S
C1049 H1036 0.930 . S
C1049 C1048 1.376 . S
C1049 C1050 1.388 . S
C1050 H1037 0.930 . S
C1050 C1049 1.388 . S
C1050 C1051 1.390 . S
C1051 C1050 1.390 . S
C1051 C1052 1.394 1_556 S
C1051 C1057 1.465 1_556 S
C1052 C1047 1.399 . S
C1052 C1051 1.394 1_554 S
C1052 C1053 1.516 . S
C1053 C1052 1.516 . S
C1053 C1054 1.502 . S
C1053 C1055 1.561 . S
C1053 C1056 1.526 . S
C1054 H1038 0.959 . S
C1054 H1039 0.959 . S
C1054 H1040 0.961 . S
C1054 C1053 1.502 . S
C1055 H1041 0.960 . S
C1055 H1042 0.961 . S
C1055 H1043 0.959 . S
C1055 C1053 1.561 . S
C1056 C1053 1.526 . S
C1056 C1057 1.396 . S
C1056 C1061 1.390 . S
C1057 C1051 1.465 1_554 S
C1057 C1056 1.396 . S
C1057 C1058 1.399 1_554 S
C1058 H1044 0.929 . S
C1058 C1057 1.399 1_556 S
C1058 C1059 1.385 1_556 S
C1059 H1045 0.931 . S
C1059 C1058 1.385 1_554 S
C1059 C1060 1.389 . S
C1060 C1059 1.389 . S
C1060 C1061 1.387 . S
C1061 H1046 0.930 . S
C1061 C1056 1.390 . S
C1061 C1060 1.387 . S
H1062 C1074 0.930 . S
H1063 C1076 0.930 . S
H1064 C1077 0.930 . S
H1065 C1081 0.959 . S
H1066 C1081 0.959 . S
H1067 C1081 0.961 . S
H1068 C1082 0.960 . S
H1069 C1082 0.961 . S
H1070 C1082 0.959 1_655 S
H1071 C1085 0.929 . S
H1072 C1086 0.931 . S
H1073 C1088 0.930 . S
C1074 H1062 0.930 . S
C1074 C1075 1.399 . S
C1074 C1079 1.399 . S
C1075 C1074 1.399 . S
C1075 C1076 1.376 . S
C1076 H1063 0.930 . S
C1076 C1075 1.376 . S
C1076 C1077 1.388 . S
C1077 H1064 0.930 . S
C1077 C1076 1.388 . S
C1077 C1078 1.390 . S
C1078 C1077 1.390 . S
C1078 C1079 1.394 . S
C1078 C1084 1.465 . S
C1079 C1074 1.399 . S
C1079 C1078 1.394 . S
C1079 C1080 1.516 1_655 S
C1080 C1079 1.516 1_455 S
C1080 C1081 1.502 . S
C1080 C1082 1.561 . S
C1080 C1083 1.530 1_455 S
C1081 H1065 0.959 . S
C1081 H1066 0.959 . S
C1081 H1067 0.961 . S
C1081 C1080 1.502 . S
C1082 H1068 0.960 . S
C1082 H1069 0.961 . S
C1082 H1070 0.959 1_455 S
C1082 C1080 1.561 . S
C1083 C1080 1.530 1_655 S
C1083 C1084 1.390 . S
C1083 C1088 1.391 1_655 S
C1084 C1078 1.465 . S
C1084 C1083 1.390 . S
C1084 C1085 1.399 . S
C1085 H1071 0.929 . S
C1085 C1084 1.399 . S
C1085 C1086 1.385 . S
C1086 H1072 0.931 . S
C1086 C1085 1.385 . S
C1086 C1087 1.389 1_655 S
C1087 C1086 1.389 1_455 S
C1087 C1088 1.387 . S
C1088 H1073 0.930 . S
C1088 C1083 1.391 1_455 S
C1088 C1087 1.387 . S
H1089 C1101 0.930 . S
H1090 C1103 0.930 . S
H1091 C1104 0.930 . S
H1092 C1108 0.959 . S
H1093 C1108 0.959 . S
H1094 C1108 0.961 . S
H1095 C1109 0.960 . S
H1096 C1109 0.961 . S
H1097 C1109 0.959 . S
H1098 C1112 0.929 . S
H1099 C1113 0.931 . S
H1100 C1115 0.930 . S
C1101 H1089 0.930 . S
C1101 C1102 1.399 . S
C1101 C1106 1.399 . S
C1102 C1101 1.399 . S
C1102 C1103 1.376 . S
C1103 H1090 0.930 . S
C1103 C1102 1.376 . S
C1103 C1104 1.388 . S
C1104 H1091 0.930 . S
C1104 C1103 1.388 . S
C1104 C1105 1.390 . S
C1105 C1104 1.390 . S
C1105 C1106 1.394 . S
C1105 C1111 1.465 . S
C1106 C1101 1.399 . S
C1106 C1105 1.394 . S
C1106 C1107 1.516 . S
C1107 C1106 1.516 . S
C1107 C1108 1.502 . S
C1107 C1109 1.561 . S
C1107 C1110 1.526 . S
C1108 H1092 0.959 . S
C1108 H1093 0.959 . S
C1108 H1094 0.961 . S
C1108 C1107 1.502 . S
C1109 H1095 0.960 . S
C1109 H1096 0.961 . S
C1109 H1097 0.959 . S
C1109 C1107 1.561 . S
C1110 C1107 1.526 . S
C1110 C1111 1.396 . S
C1110 C1115 1.390 . S
C1111 C1105 1.465 . S
C1111 C1110 1.396 . S
C1111 C1112 1.399 . S
C1112 H1098 0.929 . S
C1112 C1111 1.399 . S
C1112 C1113 1.385 . S
C1113 H1099 0.931 . S
C1113 C1112 1.385 . S
C1113 C1114 1.389 . S
C1114 C1113 1.389 . S
C1114 C1115 1.387 . S
C1115 H1100 0.930 . S
C1115 C1110 1.390 . S
C1115 C1114 1.387 . S
H1116 C1128 0.930 . S
H1117 C1130 0.930 . S
H1118 C1131 0.930 . S
H1119 C1135 0.959 . S
H1120 C1135 0.959 . S
H1121 C1135 0.961 . S
H1122 C1136 0.960 . S
H1123 C1136 0.961 . S
H1124 C1136 0.959 . S
H1125 C1139 0.929 . S
H1126 C1140 0.931 . S
H1127 C1142 0.930 . S
C1128 H1116 0.930 . S
C1128 C1129 1.399 . S
C1128 C1133 1.399 . S
C1129 C1128 1.399 . S
C1129 C1130 1.376 . S
C1130 H1117 0.930 . S
C1130 C1129 1.376 . S
C1130 C1131 1.388 . S
C1131 H1118 0.930 . S
C1131 C1130 1.388 . S
C1131 C1132 1.390 . S
C1132 C1131 1.390 . S
C1132 C1133 1.394 . S
C1132 C1138 1.465 . S
C1133 C1128 1.399 . S
C1133 C1132 1.394 . S
C1133 C1134 1.516 . S
C1134 C1133 1.516 . S
C1134 C1135 1.502 . S
C1134 C1136 1.561 . S
C1134 C1137 1.526 . S
C1135 H1119 0.959 . S
C1135 H1120 0.959 . S
C1135 H1121 0.961 . S
C1135 C1134 1.502 . S
C1136 H1122 0.960 . S
C1136 H1123 0.961 . S
C1136 H1124 0.959 . S
C1136 C1134 1.561 . S
C1137 C1134 1.526 . S
C1137 C1138 1.396 . S
C1137 C1142 1.390 . S
C1138 C1132 1.465 . S
C1138 C1137 1.396 . S
C1138 C1139 1.399 . S
C1139 H1125 0.929 . S
C1139 C1138 1.399 . S
C1139 C1140 1.385 . S
C1140 H1126 0.931 . S
C1140 C1139 1.385 . S
C1140 C1141 1.389 . S
C1141 C1140 1.389 . S
C1141 C1142 1.387 . S
C1142 H1127 0.930 . S
C1142 C1137 1.390 . S
C1142 C1141 1.387 . S
H1143 C1155 0.969 . S
H1144 C1157 0.930 . S
H1145 C1158 0.930 . S
H1146 C1162 0.959 . S
H1147 C1162 0.959 . S
H1148 C1162 0.961 . S
H1149 C1163 0.960 . S
H1150 C1163 0.961 . S
H1151 C1163 0.959 . S
H1152 C1166 0.929 . S
H1153 C1167 0.931 . S
H1154 C1169 0.930 . S
C1155 H1143 0.969 . S
C1155 C1156 1.399 . S
C1155 C1160 1.399 . S
C1156 C1155 1.399 . S
C1156 C1157 1.376 . S
C1157 H1144 0.930 . S
C1157 C1156 1.376 . S
C1157 C1158 1.388 . S
C1158 H1145 0.930 . S
C1158 C1157 1.388 . S
C1158 C1159 1.390 . S
C1159 C1158 1.390 . S
C1159 C1160 1.394 . S
C1159 C1165 1.465 . S
C1160 C1155 1.399 . S
C1160 C1159 1.394 . S
C1160 C1161 1.516 1_565 S
C1161 C1160 1.516 1_545 S
C1161 C1162 1.502 . S
C1161 C1163 1.561 1_556 S
C1161 C1164 1.526 . S
C1162 H1146 0.959 . S
C1162 H1147 0.959 . S
C1162 H1148 0.961 . S
C1162 C1161 1.502 . S
C1163 H1149 0.960 . S
C1163 H1150 0.961 . S
C1163 H1151 0.959 . S
C1163 C1161 1.561 1_554 S
C1164 C1161 1.526 . S
C1164 C1165 1.396 1_545 S
C1164 C1169 1.390 . S
C1165 C1159 1.465 . S
C1165 C1164 1.396 1_565 S
C1165 C1166 1.399 . S
C1166 H1152 0.929 . S
C1166 C1165 1.399 . S
C1166 C1167 1.385 . S
C1167 H1153 0.931 . S
C1167 C1166 1.385 . S
C1167 C1168 1.389 1_565 S
C1168 C1167 1.389 1_545 S
C1168 C1169 1.387 . S
C1169 H1154 0.930 . S
C1169 C1164 1.390 . S
C1169 C1168 1.387 . S
H1170 C1182 0.930 . S
H1171 C1184 0.930 . S
H1172 C1185 0.930 1_554 S
H1173 C1189 0.959 . S
H1174 C1189 0.959 . S
H1175 C1189 0.961 . S
H1176 C1190 0.960 . S
H1177 C1190 0.961 . S
H1178 C1190 0.959 . S
H1179 C1193 0.929 . S
H1180 C1194 0.931 . S
H1181 C1196 0.930 . S
C1182 H1170 0.930 . S
C1182 C1183 1.399 . S
C1182 C1187 1.399 . S
C1183 C1182 1.399 . S
C1183 C1184 1.376 . S
C1184 H1171 0.930 . S
C1184 C1183 1.376 . S
C1184 C1185 1.388 . S
C1185 H1172 0.930 1_556 S
C1185 C1184 1.388 . S
C1185 C1186 1.390 . S
C1186 C1185 1.390 . S
C1186 C1187 1.394 . S
C1186 C1192 1.465 . S
C1187 C1182 1.399 . S
C1187 C1186 1.394 . S
C1187 C1188 1.516 . S
C1188 C1187 1.516 . S
C1188 C1189 1.502 . S
C1188 C1190 1.561 . S
C1188 C1191 1.526 . S
C1189 H1173 0.959 . S
C1189 H1174 0.959 . S
C1189 H1175 0.961 . S
C1189 C1188 1.502 . S
C1190 H1176 0.960 . S
C1190 H1177 0.961 . S
C1190 H1178 0.959 . S
C1190 C1188 1.561 . S
C1191 C1188 1.526 . S
C1191 C1192 1.396 . S
C1191 C1196 1.390 . S
C1192 C1186 1.465 . S
C1192 C1191 1.396 . S
C1192 C1193 1.399 1_556 S
C1193 H1179 0.929 . S
C1193 C1192 1.399 1_554 S
C1193 C1194 1.385 . S
C1194 H1180 0.931 . S
C1194 C1193 1.385 . S
C1194 C1195 1.389 1_554 S
C1195 C1194 1.389 1_556 S
C1195 C1196 1.387 . S
C1196 H1181 0.930 . S
C1196 C1191 1.390 . S
C1196 C1195 1.387 . S
H1197 C1209 0.930 . S
H1198 C1211 0.930 . S
H1199 C1212 0.930 . S
H1200 C1216 0.959 . S
H1201 C1216 0.959 . S
H1202 C1216 0.961 . S
H1203 C1217 0.960 . S
H1204 C1217 0.961 . S
H1205 C1217 0.959 . S
H1206 C1220 0.929 . S
H1207 C1221 0.931 . S
H1208 C1223 0.930 . S
C1209 H1197 0.930 . S
C1209 C1210 1.399 . S
C1209 C1214 1.399 . S
C1210 C1209 1.399 . S
C1210 C1211 1.376 . S
C1211 H1198 0.930 . S
C1211 C1210 1.376 . S
C1211 C1212 1.388 . S
C1212 H1199 0.930 . S
C1212 C1211 1.388 . S
C1212 C1213 1.390 . S
C1213 C1212 1.390 . S
C1213 C1214 1.394 . S
C1213 C1219 1.465 . S
C1214 C1209 1.399 . S
C1214 C1213 1.394 . S
C1214 C1215 1.516 . S
C1215 C1214 1.516 . S
C1215 C1216 1.502 . S
C1215 C1217 1.561 . S
C1215 C1218 1.526 . S
C1216 H1200 0.959 . S
C1216 H1201 0.959 . S
C1216 H1202 0.961 . S
C1216 C1215 1.502 . S
C1217 H1203 0.960 . S
C1217 H1204 0.961 . S
C1217 H1205 0.959 . S
C1217 C1215 1.561 . S
C1218 C1215 1.526 . S
C1218 C1219 1.396 . S
C1218 C1223 1.390 . S
C1219 C1213 1.465 . S
C1219 C1218 1.396 . S
C1219 C1220 1.399 . S
C1220 H1206 0.929 . S
C1220 C1219 1.399 . S
C1220 C1221 1.385 . S
C1221 H1207 0.931 . S
C1221 C1220 1.385 . S
C1221 C1222 1.389 . S
C1222 C1221 1.389 . S
C1222 C1223 1.387 . S
C1223 H1208 0.930 . S
C1223 C1218 1.390 . S
C1223 C1222 1.387 . S
H1224 C1236 0.930 . S
H1225 C1238 0.930 . S
H1226 C1239 0.930 . S
H1227 C1243 0.959 . S
H1228 C1243 0.959 . S
H1229 C1243 0.961 . S
H1230 C1244 0.960 . S
H1231 C1244 0.961 . S
H1232 C1244 0.959 . S
H1233 C1247 0.929 . S
H1234 C1248 0.931 . S
H1235 C1250 0.930 . S
C1236 H1224 0.930 . S
C1236 C1237 1.399 . S
C1236 C1241 1.399 1_565 S
C1237 C1236 1.399 . S
C1237 C1238 1.376 . S
C1238 H1225 0.930 . S
C1238 C1237 1.376 . S
C1238 C1239 1.388 . S
C1239 H1226 0.930 . S
C1239 C1238 1.388 . S
C1239 C1240 1.390 1_565 S
C1240 C1239 1.390 1_545 S
C1240 C1241 1.394 . S
C1240 C1246 1.465 . S
C1241 C1236 1.399 1_545 S
C1241 C1240 1.394 . S
C1241 C1242 1.516 . S
C1242 C1241 1.516 . S
C1242 C1243 1.502 . S
C1242 C1244 1.561 . S
C1242 C1245 1.526 . S
C1243 H1227 0.959 . S
C1243 H1228 0.959 . S
C1243 H1229 0.961 . S
C1243 C1242 1.502 . S
C1244 H1230 0.960 . S
C1244 H1231 0.961 . S
C1244 H1232 0.959 . S
C1244 C1242 1.561 . S
C1245 C1242 1.526 . S
C1245 C1246 1.396 . S
C1245 C1250 1.390 . S
C1246 C1240 1.465 . S
C1246 C1245 1.396 . S
C1246 C1247 1.399 . S
C1247 H1233 0.929 . S
C1247 C1246 1.399 . S
C1247 C1248 1.385 . S
C1248 H1234 0.931 . S
C1248 C1247 1.385 . S
C1248 C1249 1.389 . S
C1249 C1248 1.389 . S
C1249 C1250 1.387 . S
C1250 H1235 0.930 . S
C1250 C1245 1.390 . S
C1250 C1249 1.387 . S
H1251 C1263 0.930 . S
H1252 C1265 0.930 . S
H1253 C1266 0.930 . S
H1254 C1270 0.959 . S
H1255 C1270 0.959 . S
H1256 C1270 0.961 . S
H1257 C1271 0.960 . S
H1258 C1271 0.961 . S
H1259 C1271 0.959 . S
H1260 C1274 0.929 . S
H1261 C1275 0.931 . S
H1262 C1277 0.930 . S
C1263 H1251 0.930 . S
C1263 C1264 1.399 . S
C1263 C1268 1.399 . S
C1264 C1263 1.399 . S
C1264 C1265 1.376 . S
C1265 H1252 0.930 . S
C1265 C1264 1.376 . S
C1265 C1266 1.388 . S
C1266 H1253 0.930 . S
C1266 C1265 1.388 . S
C1266 C1267 1.390 . S
C1267 C1266 1.390 . S
C1267 C1268 1.394 . S
C1267 C1273 1.465 . S
C1268 C1263 1.399 . S
C1268 C1267 1.394 . S
C1268 C1269 1.516 . S
C1269 C1268 1.516 . S
C1269 C1270 1.502 . S
C1269 C1271 1.561 . S
C1269 C1272 1.526 . S
C1270 H1254 0.959 . S
C1270 H1255 0.959 . S
C1270 H1256 0.961 . S
C1270 C1269 1.502 . S
C1271 H1257 0.960 . S
C1271 H1258 0.961 . S
C1271 H1259 0.959 . S
C1271 C1269 1.561 . S
C1272 C1269 1.526 . S
C1272 C1273 1.396 . S
C1272 C1277 1.390 . S
C1273 C1267 1.465 . S
C1273 C1272 1.396 . S
C1273 C1274 1.399 . S
C1274 H1260 0.929 . S
C1274 C1273 1.399 . S
C1274 C1275 1.385 1_455 S
C1275 H1261 0.931 . S
C1275 C1274 1.385 1_655 S
C1275 C1276 1.389 . S
C1276 C1275 1.389 . S
C1276 C1277 1.387 1_655 S
C1277 H1262 0.930 . S
C1277 C1272 1.390 . S
C1277 C1276 1.387 1_455 S
H1278 C1290 0.930 . S
H1279 C1292 0.930 . S
H1280 C1293 0.930 . S
H1281 C1297 0.959 . S
H1282 C1297 0.959 . S
H1283 C1297 0.961 . S
H1284 C1298 0.960 . S
H1285 C1298 0.961 . S
H1286 C1298 0.959 . S
H1287 C1301 0.929 . S
H1288 C1302 0.931 . S
H1289 C1304 0.930 . S
C1290 H1278 0.930 . S
C1290 C1291 1.399 . S
C1290 C1295 1.399 . S
C1291 C1290 1.399 . S
C1291 C1292 1.376 . S
C1292 H1279 0.930 . S
C1292 C1291 1.376 . S
C1292 C1293 1.388 . S
C1293 H1280 0.930 . S
C1293 C1292 1.388 . S
C1293 C1294 1.390 . S
C1294 C1293 1.390 . S
C1294 C1295 1.394 . S
C1294 C1300 1.465 . S
C1295 C1290 1.399 . S
C1295 C1294 1.394 . S
C1295 C1296 1.516 . S
C1296 C1295 1.516 . S
C1296 C1297 1.502 . S
C1296 C1298 1.561 . S
C1296 C1299 1.526 . S
C1297 H1281 0.959 . S
C1297 H1282 0.959 . S
C1297 H1283 0.961 . S
C1297 C1296 1.502 . S
C1298 H1284 0.960 . S
C1298 H1285 0.961 . S
C1298 H1286 0.959 . S
C1298 C1296 1.561 . S
C1299 C1296 1.526 . S
C1299 C1300 1.396 . S
C1299 C1304 1.390 . S
C1300 C1294 1.465 . S
C1300 C1299 1.396 . S
C1300 C1301 1.399 . S
C1301 H1287 0.929 . S
C1301 C1300 1.399 . S
C1301 C1302 1.385 . S
C1302 H1288 0.931 . S
C1302 C1301 1.385 . S
C1302 C1303 1.389 . S
C1303 C1302 1.389 . S
C1303 C1304 1.387 . S
C1304 H1289 0.930 . S
C1304 C1299 1.390 . S
C1304 C1303 1.387 . S
H1305 C1317 0.930 . S
H1306 C1319 0.930 . S
H1307 C1320 0.930 . S
H1308 C1324 0.959 . S
H1309 C1324 0.959 . S
H1310 C1324 0.961 . S
H1311 C1325 0.960 . S
H1312 C1325 0.961 . S
H1313 C1325 0.959 . S
H1314 C1328 0.929 . S
H1315 C1329 0.931 . S
H1316 C1331 0.930 . S
C1317 H1305 0.930 . S
C1317 C1318 1.399 1_455 S
C1317 C1322 1.399 . S
C1318 C1317 1.399 1_655 S
C1318 C1319 1.376 . S
C1319 H1306 0.930 . S
C1319 C1318 1.376 . S
C1319 C1320 1.388 1_655 S
C1320 H1307 0.930 . S
C1320 C1319 1.388 1_455 S
C1320 C1321 1.390 . S
C1321 C1320 1.390 . S
C1321 C1322 1.394 . S
C1321 C1327 1.465 . S
C1322 C1317 1.399 . S
C1322 C1321 1.394 . S
C1322 C1323 1.516 . S
C1323 C1322 1.516 . S
C1323 C1324 1.502 . S
C1323 C1325 1.561 . S
C1323 C1326 1.526 . S
C1324 H1308 0.959 . S
C1324 H1309 0.959 . S
C1324 H1310 0.961 . S
C1324 C1323 1.502 . S
C1325 H1311 0.960 . S
C1325 H1312 0.961 . S
C1325 H1313 0.959 . S
C1325 C1323 1.561 . S
C1326 C1323 1.526 . S
C1326 C1327 1.396 . S
C1326 C1331 1.390 . S
C1327 C1321 1.465 . S
C1327 C1326 1.396 . S
C1327 C1328 1.399 . S
C1328 H1314 0.929 . S
C1328 C1327 1.399 . S
C1328 C1329 1.385 . S
C1329 H1315 0.931 . S
C1329 C1328 1.385 . S
C1329 C1330 1.389 . S
C1330 C1329 1.389 . S
C1330 C1331 1.387 . S
C1331 H1316 0.930 . S
C1331 C1326 1.390 . S
C1331 C1330 1.387 . S
H1332 C1344 0.930 . S
H1333 C1346 0.930 . S
H1334 C1347 0.930 . S
H1335 C1351 0.959 . S
H1336 C1351 0.959 . S
H1337 C1351 0.961 . S
H1338 C1352 0.960 . S
H1339 C1352 0.961 . S
H1340 C1352 0.959 . S
H1341 C1355 0.929 . S
H1342 C1356 0.931 . S
H1343 C1358 0.930 . S
C1344 H1332 0.930 . S
C1344 C1345 1.399 . S
C1344 C1349 1.399 . S
C1345 C1344 1.399 . S
C1345 C1346 1.376 . S
C1346 H1333 0.930 . S
C1346 C1345 1.376 . S
C1346 C1347 1.388 . S
C1347 H1334 0.930 . S
C1347 C1346 1.388 . S
C1347 C1348 1.390 . S
C1348 C1347 1.390 . S
C1348 C1349 1.394 . S
C1348 C1354 1.465 . S
C1349 C1344 1.399 . S
C1349 C1348 1.394 . S
C1349 C1350 1.516 . S
C1350 C1349 1.516 . S
C1350 C1351 1.502 . S
C1350 C1352 1.561 . S
C1350 C1353 1.526 . S
C1351 H1335 0.959 . S
C1351 H1336 0.959 . S
C1351 H1337 0.961 . S
C1351 C1350 1.502 . S
C1352 H1338 0.960 . S
C1352 H1339 0.961 . S
C1352 H1340 0.959 . S
C1352 C1350 1.561 . S
C1353 C1350 1.526 . S
C1353 C1354 1.396 . S
C1353 C1358 1.390 . S
C1354 C1348 1.465 . S
C1354 C1353 1.396 . S
C1354 C1355 1.399 . S
C1355 H1341 0.929 . S
C1355 C1354 1.399 . S
C1355 C1356 1.385 . S
C1356 H1342 0.931 . S
C1356 C1355 1.385 . S
C1356 C1357 1.389 . S
C1357 C1356 1.389 . S
C1357 C1358 1.387 . S
C1358 H1343 0.930 . S
C1358 C1353 1.390 . S
C1358 C1357 1.387 . S
H1359 C1371 0.930 . S
H1360 C1373 0.930 . S
H1361 C1374 0.930 . S
H1362 C1378 0.959 . S
H1363 C1378 0.959 . S
H1364 C1378 0.961 . S
H1365 C1379 0.960 . S
H1366 C1379 0.961 . S
H1367 C1379 0.959 . S
H1368 C1382 0.929 . S
H1369 C1383 0.931 . S
H1370 C1385 0.930 . S
C1371 H1359 0.930 . S
C1371 C1372 1.399 . S
C1371 C1376 1.399 1_565 S
C1372 C1371 1.399 . S
C1372 C1373 1.376 . S
C1373 H1360 0.930 . S
C1373 C1372 1.376 . S
C1373 C1374 1.388 1_565 S
C1374 H1361 0.930 . S
C1374 C1373 1.388 1_545 S
C1374 C1375 1.390 . S
C1375 C1374 1.390 . S
C1375 C1376 1.394 . S
C1375 C1381 1.465 . S
C1376 C1371 1.399 1_545 S
C1376 C1375 1.394 . S
C1376 C1377 1.516 . S
C1377 C1376 1.516 . S
C1377 C1378 1.502 . S
C1377 C1379 1.561 . S
C1377 C1380 1.526 . S
C1378 H1362 0.959 . S
C1378 H1363 0.959 . S
C1378 H1364 0.961 . S
C1378 C1377 1.502 . S
C1379 H1365 0.960 . S
C1379 H1366 0.961 . S
C1379 H1367 0.959 . S
C1379 C1377 1.561 . S
C1380 C1377 1.526 . S
C1380 C1381 1.396 . S
C1380 C1385 1.390 . S
C1381 C1375 1.465 . S
C1381 C1380 1.396 . S
C1381 C1382 1.399 . S
C1382 H1368 0.929 . S
C1382 C1381 1.399 . S
C1382 C1383 1.385 . S
C1383 H1369 0.931 . S
C1383 C1382 1.385 . S
C1383 C1384 1.389 . S
C1384 C1383 1.389 . S
C1384 C1385 1.387 . S
C1385 H1370 0.930 . S
C1385 C1380 1.390 . S
C1385 C1384 1.387 . S
C427 C85 1.644 . S
C439 C16 1.576 . S
C454 N94 1.637 . S
C466 N25 1.564 . S
C481 N48 1.535 . S
C493 N117 1.634 . S
C508 C62 1.701 . S
C520 C131 1.760 . S
C535 N2 1.667 . S
C547 N71 1.708 . S
C562 C108 1.704 . S
C574 C39 1.772 . S
C589 N209 1.754 . S
C601 C154 1.897 . S
C616 C177 1.851 . S
C628 N232 1.746 . S
C643 C200 1.754 . S
C655 N255 1.769 . S
C670 C269 1.587 1_556 S
C682 N186 1.554 . S
C697 C223 1.610 . S
C709 N140 1.478 . S
C724 C246 1.606 1_556 S
C736 N163 1.631 . S
C751 C292 1.631 . S
C763 C361 1.662 . S
C778 N301 1.659 . S
C790 N370 1.640 . S
C805 N324 1.670 . S
C817 N393 1.591 . S
C832 C407 1.753 . S
C844 C338 1.784 . S
C859 N347 1.781 . S
C871 N278 1.687 . S
C886 C384 1.801 . S
C898 C315 1.738 . S
C913 C7 1.572 . S
C925 N173 1.557 . S
C940 N35 1.542 . S
C952 N196 1.526 . S
C967 N150 1.520 . S
C979 N58 1.542 . S
C994 C53 1.637 . S
C1006 N311 1.595 . S
C1021 N334 1.624 . S
C1033 N12 1.624 . S
C1048 C283 1.572 . S
C1060 C30 1.612 . S
C1075 C375 1.576 . S
C1087 C76 1.580 . S
C1102 N104 1.596 . S
C1114 C398 1.602 . S
C1129 N357 1.586 . S
C1141 N127 1.608 . S
C1156 N242 1.594 . S
C1168 C122 1.630 . S
C1183 N81 1.582 . S
C1195 N265 1.607 . S
C1210 C99 1.650 . S
C1222 N219 1.628 . S
C1237 C145 1.718 . S
C1249 C306 1.698 . S
C1264 C168 1.665 . S
C1276 C329 1.682 . S
C1291 C191 1.715 . S
C1303 N288 1.700 . S
C1318 N380 1.578 . S
C1330 C260 1.598 . S
C1345 N403 1.587 . S
C1357 C214 1.600 . S
C1372 C237 1.582 . S
C1384 C352 1.608 . S
