# Generated by pormake.
# Topology fcr, (5)-cn, num edge types: 1
# Building blocks:
#     Node 0, Type 0, BuildingBlock: XOMCOT_clean_sbu_1, # of connection points: 5
#     Node 1, Type 0, BuildingBlock: XOMCOT_clean_sbu_1, # of connection points: 5
#     Node 2, Type 0, BuildingBlock: XOMCOT_clean_sbu_1, # of connection points: 5
#     Node 3, Type 0, BuildingBlock: XOMCOT_clean_sbu_1, # of connection points: 5
#     Node 4, Type 0, BuildingBlock: XOMCOT_clean_sbu_1, # of connection points: 5
#     Node 5, Type 0, BuildingBlock: XOMCOT_clean_sbu_1, # of connection points: 5
#     Node 6, Type 0, BuildingBlock: XOMCOT_clean_sbu_1, # of connection points: 5
#     Node 7, Type 0, BuildingBlock: XOMCOT_clean_sbu_1, # of connection points: 5
#     Node 8, Type 0, BuildingBlock: XOMCOT_clean_sbu_1, # of connection points: 5
#     Node 9, Type 0, BuildingBlock: XOMCOT_clean_sbu_1, # of connection points: 5
#     Node 10, Type 0, BuildingBlock: XOMCOT_clean_sbu_1, # of connection points: 5
#     Node 11, Type 0, BuildingBlock: XOMCOT_clean_sbu_1, # of connection points: 5
#     Node 12, Type 0, BuildingBlock: XOMCOT_clean_sbu_1, # of connection points: 5
#     Node 13, Type 0, BuildingBlock: XOMCOT_clean_sbu_1, # of connection points: 5
#     Node 14, Type 0, BuildingBlock: XOMCOT_clean_sbu_1, # of connection points: 5
#     Node 15, Type 0, BuildingBlock: XOMCOT_clean_sbu_1, # of connection points: 5
#     Node 16, Type 0, BuildingBlock: XOMCOT_clean_sbu_1, # of connection points: 5
#     Node 17, Type 0, BuildingBlock: XOMCOT_clean_sbu_1, # of connection points: 5
#     Node 18, Type 0, BuildingBlock: XOMCOT_clean_sbu_1, # of connection points: 5
#     Node 19, Type 0, BuildingBlock: XOMCOT_clean_sbu_1, # of connection points: 5
#     Node 20, Type 0, BuildingBlock: XOMCOT_clean_sbu_1, # of connection points: 5
#     Node 21, Type 0, BuildingBlock: XOMCOT_clean_sbu_1, # of connection points: 5
#     Node 22, Type 0, BuildingBlock: XOMCOT_clean_sbu_1, # of connection points: 5
#     Node 23, Type 0, BuildingBlock: XOMCOT_clean_sbu_1, # of connection points: 5
#     Node 24, Type 0, BuildingBlock: XOMCOT_clean_sbu_1, # of connection points: 5
#     Node 25, Type 0, BuildingBlock: XOMCOT_clean_sbu_1, # of connection points: 5
#     Node 26, Type 0, BuildingBlock: XOMCOT_clean_sbu_1, # of connection points: 5
#     Node 27, Type 0, BuildingBlock: XOMCOT_clean_sbu_1, # of connection points: 5
#     Node 28, Type 0, BuildingBlock: XOMCOT_clean_sbu_1, # of connection points: 5
#     Node 29, Type 0, BuildingBlock: XOMCOT_clean_sbu_1, # of connection points: 5
#     Node 30, Type 0, BuildingBlock: XOMCOT_clean_sbu_1, # of connection points: 5
#     Node 31, Type 0, BuildingBlock: XOMCOT_clean_sbu_1, # of connection points: 5
#     Node 32, Type 0, BuildingBlock: XOMCOT_clean_sbu_1, # of connection points: 5
#     Node 33, Type 0, BuildingBlock: XOMCOT_clean_sbu_1, # of connection points: 5
#     Node 34, Type 0, BuildingBlock: XOMCOT_clean_sbu_1, # of connection points: 5
#     Node 35, Type 0, BuildingBlock: XOMCOT_clean_sbu_1, # of connection points: 5
#     Node 36, Type 0, BuildingBlock: XOMCOT_clean_sbu_1, # of connection points: 5
#     Node 37, Type 0, BuildingBlock: XOMCOT_clean_sbu_1, # of connection points: 5
#     Node 38, Type 0, BuildingBlock: XOMCOT_clean_sbu_1, # of connection points: 5
#     Node 39, Type 0, BuildingBlock: XOMCOT_clean_sbu_1, # of connection points: 5
#     Node 40, Type 0, BuildingBlock: XOMCOT_clean_sbu_1, # of connection points: 5
#     Node 41, Type 0, BuildingBlock: XOMCOT_clean_sbu_1, # of connection points: 5
#     Node 42, Type 0, BuildingBlock: XOMCOT_clean_sbu_1, # of connection points: 5
#     Node 43, Type 0, BuildingBlock: XOMCOT_clean_sbu_1, # of connection points: 5
#     Node 44, Type 0, BuildingBlock: XOMCOT_clean_sbu_1, # of connection points: 5
#     Node 45, Type 0, BuildingBlock: XOMCOT_clean_sbu_1, # of connection points: 5
#     Node 46, Type 0, BuildingBlock: XOMCOT_clean_sbu_1, # of connection points: 5
#     Node 47, Type 0, BuildingBlock: XOMCOT_clean_sbu_1, # of connection points: 5
#     Edge 48, Type (0, 0), BuildingBlock: CIFDUS_clean_linker_0, # of connection points: 2
#     Edge 49, Type (0, 0), BuildingBlock: CIFDUS_clean_linker_0, # of connection points: 2
#     Edge 50, Type (0, 0), BuildingBlock: CIFDUS_clean_linker_0, # of connection points: 2
#     Edge 51, Type (0, 0), BuildingBlock: CIFDUS_clean_linker_0, # of connection points: 2
#     Edge 52, Type (0, 0), BuildingBlock: CIFDUS_clean_linker_0, # of connection points: 2
#     Edge 53, Type (0, 0), BuildingBlock: CIFDUS_clean_linker_0, # of connection points: 2
#     Edge 54, Type (0, 0), BuildingBlock: CIFDUS_clean_linker_0, # of connection points: 2
#     Edge 55, Type (0, 0), BuildingBlock: CIFDUS_clean_linker_0, # of connection points: 2
#     Edge 56, Type (0, 0), BuildingBlock: CIFDUS_clean_linker_0, # of connection points: 2
#     Edge 57, Type (0, 0), BuildingBlock: CIFDUS_clean_linker_0, # of connection points: 2
#     Edge 58, Type (0, 0), BuildingBlock: CIFDUS_clean_linker_0, # of connection points: 2
#     Edge 59, Type (0, 0), BuildingBlock: CIFDUS_clean_linker_0, # of connection points: 2
#     Edge 60, Type (0, 0), BuildingBlock: CIFDUS_clean_linker_0, # of connection points: 2
#     Edge 61, Type (0, 0), BuildingBlock: CIFDUS_clean_linker_0, # of connection points: 2
#     Edge 62, Type (0, 0), BuildingBlock: CIFDUS_clean_linker_0, # of connection points: 2
#     Edge 63, Type (0, 0), BuildingBlock: CIFDUS_clean_linker_0, # of connection points: 2
#     Edge 64, Type (0, 0), BuildingBlock: CIFDUS_clean_linker_0, # of connection points: 2
#     Edge 65, Type (0, 0), BuildingBlock: CIFDUS_clean_linker_0, # of connection points: 2
#     Edge 66, Type (0, 0), BuildingBlock: CIFDUS_clean_linker_0, # of connection points: 2
#     Edge 67, Type (0, 0), BuildingBlock: CIFDUS_clean_linker_0, # of connection points: 2
#     Edge 68, Type (0, 0), BuildingBlock: CIFDUS_clean_linker_0, # of connection points: 2
#     Edge 69, Type (0, 0), BuildingBlock: CIFDUS_clean_linker_0, # of connection points: 2
#     Edge 70, Type (0, 0), BuildingBlock: CIFDUS_clean_linker_0, # of connection points: 2
#     Edge 71, Type (0, 0), BuildingBlock: CIFDUS_clean_linker_0, # of connection points: 2
#     Edge 72, Type (0, 0), BuildingBlock: CIFDUS_clean_linker_0, # of connection points: 2
#     Edge 73, Type (0, 0), BuildingBlock: CIFDUS_clean_linker_0, # of connection points: 2
#     Edge 74, Type (0, 0), BuildingBlock: CIFDUS_clean_linker_0, # of connection points: 2
#     Edge 75, Type (0, 0), BuildingBlock: CIFDUS_clean_linker_0, # of connection points: 2
#     Edge 76, Type (0, 0), BuildingBlock: CIFDUS_clean_linker_0, # of connection points: 2
#     Edge 77, Type (0, 0), BuildingBlock: CIFDUS_clean_linker_0, # of connection points: 2
#     Edge 78, Type (0, 0), BuildingBlock: CIFDUS_clean_linker_0, # of connection points: 2
#     Edge 79, Type (0, 0), BuildingBlock: CIFDUS_clean_linker_0, # of connection points: 2
#     Edge 80, Type (0, 0), BuildingBlock: CIFDUS_clean_linker_0, # of connection points: 2
#     Edge 81, Type (0, 0), BuildingBlock: CIFDUS_clean_linker_0, # of connection points: 2
#     Edge 82, Type (0, 0), BuildingBlock: CIFDUS_clean_linker_0, # of connection points: 2
#     Edge 83, Type (0, 0), BuildingBlock: CIFDUS_clean_linker_0, # of connection points: 2
#     Edge 84, Type (0, 0), BuildingBlock: CIFDUS_clean_linker_0, # of connection points: 2
#     Edge 85, Type (0, 0), BuildingBlock: CIFDUS_clean_linker_0, # of connection points: 2
#     Edge 86, Type (0, 0), BuildingBlock: CIFDUS_clean_linker_0, # of connection points: 2
#     Edge 87, Type (0, 0), BuildingBlock: CIFDUS_clean_linker_0, # of connection points: 2
#     Edge 88, Type (0, 0), BuildingBlock: CIFDUS_clean_linker_0, # of connection points: 2
#     Edge 89, Type (0, 0), BuildingBlock: CIFDUS_clean_linker_0, # of connection points: 2
#     Edge 90, Type (0, 0), BuildingBlock: CIFDUS_clean_linker_0, # of connection points: 2
#     Edge 91, Type (0, 0), BuildingBlock: CIFDUS_clean_linker_0, # of connection points: 2
#     Edge 92, Type (0, 0), BuildingBlock: CIFDUS_clean_linker_0, # of connection points: 2
#     Edge 93, Type (0, 0), BuildingBlock: CIFDUS_clean_linker_0, # of connection points: 2
#     Edge 94, Type (0, 0), BuildingBlock: CIFDUS_clean_linker_0, # of connection points: 2
#     Edge 95, Type (0, 0), BuildingBlock: CIFDUS_clean_linker_0, # of connection points: 2
#     Edge 96, Type (0, 0), BuildingBlock: CIFDUS_clean_linker_0, # of connection points: 2
#     Edge 97, Type (0, 0), BuildingBlock: CIFDUS_clean_linker_0, # of connection points: 2
#     Edge 98, Type (0, 0), BuildingBlock: CIFDUS_clean_linker_0, # of connection points: 2
#     Edge 99, Type (0, 0), BuildingBlock: CIFDUS_clean_linker_0, # of connection points: 2
#     Edge 100, Type (0, 0), BuildingBlock: CIFDUS_clean_linker_0, # of connection points: 2
#     Edge 101, Type (0, 0), BuildingBlock: CIFDUS_clean_linker_0, # of connection points: 2
#     Edge 102, Type (0, 0), BuildingBlock: CIFDUS_clean_linker_0, # of connection points: 2
#     Edge 103, Type (0, 0), BuildingBlock: CIFDUS_clean_linker_0, # of connection points: 2
#     Edge 104, Type (0, 0), BuildingBlock: CIFDUS_clean_linker_0, # of connection points: 2
#     Edge 105, Type (0, 0), BuildingBlock: CIFDUS_clean_linker_0, # of connection points: 2
#     Edge 106, Type (0, 0), BuildingBlock: CIFDUS_clean_linker_0, # of connection points: 2
#     Edge 107, Type (0, 0), BuildingBlock: CIFDUS_clean_linker_0, # of connection points: 2
#     Edge 108, Type (0, 0), BuildingBlock: CIFDUS_clean_linker_0, # of connection points: 2
#     Edge 109, Type (0, 0), BuildingBlock: CIFDUS_clean_linker_0, # of connection points: 2
#     Edge 110, Type (0, 0), BuildingBlock: CIFDUS_clean_linker_0, # of connection points: 2
#     Edge 111, Type (0, 0), BuildingBlock: CIFDUS_clean_linker_0, # of connection points: 2
#     Edge 112, Type (0, 0), BuildingBlock: CIFDUS_clean_linker_0, # of connection points: 2
#     Edge 113, Type (0, 0), BuildingBlock: CIFDUS_clean_linker_0, # of connection points: 2
#     Edge 114, Type (0, 0), BuildingBlock: CIFDUS_clean_linker_0, # of connection points: 2
#     Edge 115, Type (0, 0), BuildingBlock: CIFDUS_clean_linker_0, # of connection points: 2
#     Edge 116, Type (0, 0), BuildingBlock: CIFDUS_clean_linker_0, # of connection points: 2
#     Edge 117, Type (0, 0), BuildingBlock: CIFDUS_clean_linker_0, # of connection points: 2
#     Edge 118, Type (0, 0), BuildingBlock: CIFDUS_clean_linker_0, # of connection points: 2
#     Edge 119, Type (0, 0), BuildingBlock: CIFDUS_clean_linker_0, # of connection points: 2
#     Edge 120, Type (0, 0), BuildingBlock: CIFDUS_clean_linker_0, # of connection points: 2
#     Edge 121, Type (0, 0), BuildingBlock: CIFDUS_clean_linker_0, # of connection points: 2
#     Edge 122, Type (0, 0), BuildingBlock: CIFDUS_clean_linker_0, # of connection points: 2
#     Edge 123, Type (0, 0), BuildingBlock: CIFDUS_clean_linker_0, # of connection points: 2
#     Edge 124, Type (0, 0), BuildingBlock: CIFDUS_clean_linker_0, # of connection points: 2
#     Edge 125, Type (0, 0), BuildingBlock: CIFDUS_clean_linker_0, # of connection points: 2
#     Edge 126, Type (0, 0), BuildingBlock: CIFDUS_clean_linker_0, # of connection points: 2
#     Edge 127, Type (0, 0), BuildingBlock: CIFDUS_clean_linker_0, # of connection points: 2
#     Edge 128, Type (0, 0), BuildingBlock: CIFDUS_clean_linker_0, # of connection points: 2
#     Edge 129, Type (0, 0), BuildingBlock: CIFDUS_clean_linker_0, # of connection points: 2
#     Edge 130, Type (0, 0), BuildingBlock: CIFDUS_clean_linker_0, # of connection points: 2
#     Edge 131, Type (0, 0), BuildingBlock: CIFDUS_clean_linker_0, # of connection points: 2
#     Edge 132, Type (0, 0), BuildingBlock: CIFDUS_clean_linker_0, # of connection points: 2
#     Edge 133, Type (0, 0), BuildingBlock: CIFDUS_clean_linker_0, # of connection points: 2
#     Edge 134, Type (0, 0), BuildingBlock: CIFDUS_clean_linker_0, # of connection points: 2
#     Edge 135, Type (0, 0), BuildingBlock: CIFDUS_clean_linker_0, # of connection points: 2
#     Edge 136, Type (0, 0), BuildingBlock: CIFDUS_clean_linker_0, # of connection points: 2
#     Edge 137, Type (0, 0), BuildingBlock: CIFDUS_clean_linker_0, # of connection points: 2
#     Edge 138, Type (0, 0), BuildingBlock: CIFDUS_clean_linker_0, # of connection points: 2
#     Edge 139, Type (0, 0), BuildingBlock: CIFDUS_clean_linker_0, # of connection points: 2
#     Edge 140, Type (0, 0), BuildingBlock: CIFDUS_clean_linker_0, # of connection points: 2
#     Edge 141, Type (0, 0), BuildingBlock: CIFDUS_clean_linker_0, # of connection points: 2
#     Edge 142, Type (0, 0), BuildingBlock: CIFDUS_clean_linker_0, # of connection points: 2
#     Edge 143, Type (0, 0), BuildingBlock: CIFDUS_clean_linker_0, # of connection points: 2
#     Edge 144, Type (0, 0), BuildingBlock: CIFDUS_clean_linker_0, # of connection points: 2
#     Edge 145, Type (0, 0), BuildingBlock: CIFDUS_clean_linker_0, # of connection points: 2
#     Edge 146, Type (0, 0), BuildingBlock: CIFDUS_clean_linker_0, # of connection points: 2
#     Edge 147, Type (0, 0), BuildingBlock: CIFDUS_clean_linker_0, # of connection points: 2
#     Edge 148, Type (0, 0), BuildingBlock: CIFDUS_clean_linker_0, # of connection points: 2
#     Edge 149, Type (0, 0), BuildingBlock: CIFDUS_clean_linker_0, # of connection points: 2
#     Edge 150, Type (0, 0), BuildingBlock: CIFDUS_clean_linker_0, # of connection points: 2
#     Edge 151, Type (0, 0), BuildingBlock: CIFDUS_clean_linker_0, # of connection points: 2
#     Edge 152, Type (0, 0), BuildingBlock: CIFDUS_clean_linker_0, # of connection points: 2
#     Edge 153, Type (0, 0), BuildingBlock: CIFDUS_clean_linker_0, # of connection points: 2
#     Edge 154, Type (0, 0), BuildingBlock: CIFDUS_clean_linker_0, # of connection points: 2
#     Edge 155, Type (0, 0), BuildingBlock: CIFDUS_clean_linker_0, # of connection points: 2
#     Edge 156, Type (0, 0), BuildingBlock: CIFDUS_clean_linker_0, # of connection points: 2
#     Edge 157, Type (0, 0), BuildingBlock: CIFDUS_clean_linker_0, # of connection points: 2
#     Edge 158, Type (0, 0), BuildingBlock: CIFDUS_clean_linker_0, # of connection points: 2
#     Edge 159, Type (0, 0), BuildingBlock: CIFDUS_clean_linker_0, # of connection points: 2
#     Edge 160, Type (0, 0), BuildingBlock: CIFDUS_clean_linker_0, # of connection points: 2
#     Edge 161, Type (0, 0), BuildingBlock: CIFDUS_clean_linker_0, # of connection points: 2
#     Edge 162, Type (0, 0), BuildingBlock: CIFDUS_clean_linker_0, # of connection points: 2
#     Edge 163, Type (0, 0), BuildingBlock: CIFDUS_clean_linker_0, # of connection points: 2
#     Edge 164, Type (0, 0), BuildingBlock: CIFDUS_clean_linker_0, # of connection points: 2
#     Edge 165, Type (0, 0), BuildingBlock: CIFDUS_clean_linker_0, # of connection points: 2
#     Edge 166, Type (0, 0), BuildingBlock: CIFDUS_clean_linker_0, # of connection points: 2
#     Edge 167, Type (0, 0), BuildingBlock: CIFDUS_clean_linker_0, # of connection points: 2
# Relax obj value: 0.107
# Max RMSD: 0.137
# Mean RMSD: 0.137
data_MOF--net-fcr--node1-XOMCOT_clean_sbu_1--edge1-CIFDUS_clean_linker_0
_symmetry_space_group_name_H-M    P1
_symmetry_Int_Tables_number       1
_symmetry_cell_setting            triclinic
loop_
_symmetry_equiv_pos_as_xyz
'x, y, z'
_cell_length_a     58.506533
_cell_length_b     58.529983
_cell_length_c     58.58361
_cell_angle_alpha  89.958931
_cell_angle_beta   89.984545
_cell_angle_gamma 89.9411
loop_
_atom_site_label
_atom_site_type_symbol
_atom_site_fract_x
_atom_site_fract_y
_atom_site_fract_z
_atom_type_partial_charge
C0 C 0.10241 0.35373 0.23088 0.0
C1 C 0.10142 0.3708 0.21468 0.0
N2 N 0.12182 0.38136 0.21402 0.0
N3 N 0.12337 0.35348 0.24063 0.0
C4 C 0.13465 0.37073 0.23002 0.0
H5 H 0.08874 0.34194 0.23469 0.0
Co6 Co 0.13588 0.33273 0.26244 0.0
C7 C 0.12737 0.37578 0.28909 0.0
O8 O 0.10988 0.38172 0.27633 0.0
N9 N 0.14843 0.31247 0.28351 0.0
C10 C 0.15968 0.29517 0.31537 0.0
C11 C 0.14797 0.31356 0.30652 0.0
C12 C 0.16024 0.29325 0.27877 0.0
N13 N 0.1674 0.2824 0.29786 0.0
O14 O 0.16619 0.3397 0.25206 0.0
H15 H 0.13953 0.32674 0.31633 0.0
H16 H 0.16371 0.28749 0.26157 0.0
O17 O 0.13793 0.35709 0.28513 0.0
C18 C 0.17111 0.32922 0.23361 0.0
O19 O 0.15511 0.31693 0.22378 0.0
N20 N 0.10665 0.32299 0.27151 0.0
C21 C 0.06702 0.29772 0.28106 0.0
C22 C 0.07276 0.31717 0.29406 0.0
C23 C 0.09285 0.32948 0.28918 0.0
C24 C 0.10143 0.30417 0.25892 0.0
C25 C 0.0819 0.29135 0.26336 0.0
H26 H 0.09744 0.34361 0.30001 0.0
H27 H 0.11299 0.29878 0.24554 0.0
H28 H 0.15217 0.37529 0.23368 0.0
H29 H 0.08717 0.37438 0.20344 0.0
H30 H 0.1619 0.29127 0.33329 0.0
H31 H 0.06194 0.32277 0.30797 0.0
H32 H 0.07889 0.27616 0.25327 0.0
C33 C 0.60389 0.66287 0.03884 0.0
C34 C 0.62118 0.66468 0.05463 0.0
N35 N 0.63391 0.64553 0.05384 0.0
N36 N 0.60551 0.64262 0.02786 0.0
C37 C 0.62411 0.63255 0.0374 0.0
H38 H 0.59105 0.67575 0.03587 0.0
Co39 Co 0.58583 0.62956 1.00545 0.0
C40 C 0.62903 0.64025 0.97957 0.0
O41 O 0.63297 0.65866 0.99175 0.0
N42 N 0.56659 0.6164 0.98375 0.0
C43 C 0.55094 0.60362 0.95161 0.0
C44 C 0.56912 0.61531 0.96086 0.0
C45 C 0.54672 0.6055 0.98796 0.0
N46 N 0.53684 0.59744 0.96871 0.0
O47 O 0.59324 0.59946 0.01635 0.0
H48 H 0.58313 0.6227 0.95136 0.0
H49 H 0.53976 0.60335 1.00493 0.0
O50 O 0.61117 0.62826 0.9835 0.0
C51 C 0.581 0.5948 0.03378 0.0
O52 O 0.56767 0.61095 0.04193 0.0
N53 N 0.57548 0.65855 0.99602 0.0
C54 C 0.55041 0.6985 0.98677 0.0
C55 C 0.56868 0.69165 0.97257 0.0
C56 C 0.58091 0.67147 0.97738 0.0
C57 C 0.5574 0.66451 1.00942 0.0
C58 C 0.54505 0.6845 1.00547 0.0
H59 H 0.59407 0.66602 0.96569 0.0
H60 H 0.55271 0.65364 0.02361 0.0
H61 H 0.63013 0.61574 0.03263 0.0
H62 H 0.62415 0.67915 0.06572 0.0
H63 H 0.54808 0.60041 0.93365 0.0
H64 H 0.57316 0.70142 0.95753 0.0
H65 H 0.53152 0.68892 0.01727 0.0
C66 C 0.91882 0.17209 0.23585 0.0
C67 C 0.92281 0.15608 0.21917 0.0
N68 N 0.90467 0.14204 0.21809 0.0
N69 N 0.89831 0.1681 0.24573 0.0
C70 C 0.88995 0.1498 0.23416 0.0
H71 H 0.93036 0.18577 0.24028 0.0
Co72 Co 0.88446 0.18475 0.27009 0.0
C73 C 0.89677 0.13917 0.2911 0.0
O74 O 0.91359 0.13598 0.27659 0.0
N75 N 0.87063 0.20119 0.29392 0.0
C76 C 0.86047 0.21378 0.32827 0.0
C77 C 0.87306 0.19773 0.31656 0.0
C78 C 0.85668 0.21955 0.29231 0.0
N79 N 0.85013 0.22756 0.31299 0.0
O80 O 0.85456 0.17739 0.25829 0.0
H81 H 0.88368 0.18465 0.32417 0.0
H82 H 0.85149 0.22692 0.27621 0.0
O83 O 0.88472 0.15741 0.28994 0.0
C84 C 0.85124 0.1925 0.24286 0.0
O85 O 0.8683 0.20616 0.23769 0.0
N86 N 0.91316 0.1956 0.27996 0.0
C87 C 0.95428 0.21965 0.28294 0.0
C88 C 0.95203 0.19806 0.29327 0.0
C89 C 0.93108 0.18622 0.29169 0.0
C90 C 0.91481 0.21719 0.27141 0.0
C91 C 0.93512 0.22941 0.27259 0.0
H92 H 0.92973 0.16949 0.29922 0.0
H93 H 0.90044 0.22461 0.26251 0.0
H94 H 0.87359 0.14197 0.23779 0.0
H95 H 0.93778 0.15509 0.20834 0.0
H96 H 0.8596 0.21554 0.34664 0.0
H97 H 0.96654 0.19004 0.30151 0.0
H98 H 0.93613 0.24607 0.26455 0.0
C99 C 0.4223 0.85234 0.03938 0.0
C100 C 0.40512 0.85154 0.05548 0.0
N101 N 0.39057 0.86892 0.05145 0.0
N102 N 0.41842 0.8699 0.02492 0.0
C103 C 0.39897 0.87968 0.03282 0.0
H104 H 0.43735 0.8416 0.0391 0.0
Co105 Co 0.43808 0.88184 1.00234 0.0
C106 C 0.40463 0.87329 0.96302 0.0
O107 O 0.41637 0.85641 0.95406 0.0
N108 N 0.4578 0.89474 0.98023 0.0
C109 C 0.47536 0.90743 0.94893 0.0
C110 C 0.45685 0.89552 0.95719 0.0
C111 C 0.47706 0.9064 0.98545 0.0
N112 N 0.48813 0.91422 0.96676 0.0
O113 O 0.43123 0.91222 0.01274 0.0
H114 H 0.44382 0.88798 0.94671 0.0
H115 H 0.48288 0.90901 1.00277 0.0
O116 O 0.41198 0.88362 0.98085 0.0
C117 C 0.44256 0.91696 0.03072 0.0
O118 O 0.45567 0.90097 0.03952 0.0
N119 N 0.44739 0.85173 0.99385 0.0
C120 C 0.46761 0.80835 0.9881 0.0
C121 C 0.44368 0.81124 0.9871 0.0
C122 C 0.4339 0.83294 0.9906 0.0
C123 C 0.47048 0.84899 0.99568 0.0
C124 C 0.48086 0.82776 0.99268 0.0
H125 H 0.41549 0.83454 0.99127 0.0
H126 H 0.4811 0.86322 1.0006 0.0
H127 H 0.39178 0.89523 0.02583 0.0
H128 H 0.40436 0.8402 0.07006 0.0
H129 H 0.47937 0.91037 0.93113 0.0
H130 H 0.43249 0.79686 0.98403 0.0
H131 H 0.49918 0.82656 0.99499 0.0
C132 C 0.1019 0.66402 0.28532 0.0
C133 C 0.10128 0.64725 0.30186 0.0
N134 N 0.12212 0.63761 0.3032 0.0
N135 N 0.12302 0.66493 0.27596 0.0
C136 C 0.13486 0.6485 0.28731 0.0
H137 H 0.08785 0.67522 0.28105 0.0
Co138 Co 0.13479 0.68598 0.25401 0.0
C139 C 0.12855 0.64185 0.22754 0.0
O140 O 0.11496 0.63281 0.24292 0.0
N141 N 0.1466 0.70683 0.23297 0.0
C142 C 0.15608 0.72547 0.20125 0.0
C143 C 0.14475 0.70678 0.21 0.0
C144 C 0.15874 0.72581 0.23779 0.0
N145 N 0.16484 0.73743 0.21881 0.0
O146 O 0.16551 0.67901 0.26357 0.0
H147 H 0.1354 0.69425 0.20021 0.0
H148 H 0.16306 0.73102 0.25496 0.0
O149 O 0.13636 0.66207 0.23039 0.0
C150 C 0.1707 0.69048 0.28135 0.0
O151 O 0.1548 0.70339 0.29059 0.0
N152 N 0.10516 0.69558 0.24584 0.0
C153 C 0.06406 0.71887 0.23765 0.0
C154 C 0.06881 0.69791 0.22678 0.0
C155 C 0.08966 0.68659 0.23092 0.0
C156 C 0.10066 0.7157 0.25666 0.0
C157 C 0.08038 0.72762 0.25278 0.0
H158 H 0.09325 0.67087 0.22203 0.0
H159 H 0.11316 0.72264 0.26835 0.0
H160 H 0.15265 0.64459 0.28418 0.0
H161 H 0.08693 0.64327 0.31282 0.0
H162 H 0.15721 0.73021 0.18343 0.0
H163 H 0.05669 0.69055 0.21491 0.0
H164 H 0.07739 0.74345 0.26187 0.0
C165 C 0.93139 0.66744 0.97582 0.0
C166 C 0.91525 0.67215 0.95937 0.0
N167 N 0.89723 0.65825 0.96263 0.0
N168 N 0.92346 0.65096 0.98986 0.0
C169 C 0.90267 0.64547 0.98115 0.0
H170 H 0.94814 0.67514 0.97705 0.0
Co171 Co 0.93974 0.63685 0.01394 0.0
C172 C 0.90423 0.64984 0.05036 0.0
O173 O 0.91579 0.66714 0.0586 0.0
N174 N 0.95592 0.62203 0.03789 0.0
C175 C 0.97001 0.61213 0.07183 0.0
C176 C 0.95496 0.62616 0.06056 0.0
C177 C 0.97201 0.60546 0.0359 0.0
N178 N 0.98082 0.59908 0.05632 0.0
O179 O 0.93016 0.60754 1.00291 0.0
H180 H 0.94482 0.63914 0.06863 0.0
H181 H 0.97749 0.59851 0.01971 0.0
O182 O 0.91224 0.63813 0.03369 0.0
C183 C 0.94339 0.60182 0.98658 0.0
O184 O 0.95919 0.61646 0.98018 0.0
N185 N 0.95212 0.6656 0.02298 0.0
C186 C 0.97815 0.70534 0.03121 0.0
C187 C 0.95403 0.70614 0.03017 0.0
C188 C 0.94143 0.68627 0.02517 0.0
C189 C 0.97541 0.66481 0.02271 0.0
C190 C 0.9886 0.68418 0.02677 0.0
H191 H 0.92316 0.68758 0.02271 0.0
H192 H 0.98406 0.64907 0.01843 0.0
H193 H 0.89194 0.63203 0.98795 0.0
H194 H 0.91706 0.68417 0.94543 0.0
H195 H 0.97351 0.61235 0.08997 0.0
H196 H 0.94478 0.7219 0.03287 0.0
H197 H 1.00696 0.68244 0.0256 0.0
C198 C 0.91957 0.85912 0.28743 0.0
C199 C 0.9198 0.87618 0.30366 0.0
N200 N 0.8986 0.88496 0.30529 0.0
N201 N 0.8983 0.8571 0.27859 0.0
C202 C 0.88602 0.87325 0.28986 0.0
H203 H 0.93411 0.84876 0.28277 0.0
Co204 Co 0.88679 0.83597 0.25652 0.0
C205 C 0.89345 0.87977 0.2303 0.0
O206 O 0.91112 0.88543 0.24289 0.0
N207 N 0.87513 0.81527 0.23511 0.0
C208 C 0.86306 0.79868 0.20315 0.0
C209 C 0.87386 0.8175 0.2122 0.0
C210 C 0.86534 0.79484 0.23951 0.0
N211 N 0.85767 0.78444 0.22039 0.0
O212 O 0.85618 0.84051 0.26792 0.0
H213 H 0.88036 0.83185 0.20255 0.0
H214 H 0.8635 0.78788 0.25651 0.0
O215 O 0.88306 0.8609 0.23411 0.0
C216 C 0.85407 0.82687 0.28482 0.0
O217 O 0.87224 0.81547 0.29152 0.0
N218 N 0.91651 0.82801 0.24699 0.0
C219 C 0.95738 0.80474 0.23758 0.0
C220 C 0.95053 0.8236 0.22424 0.0
C221 C 0.9297 0.83482 0.22897 0.0
C222 C 0.92306 0.80986 0.26003 0.0
C223 C 0.9433 0.79809 0.25572 0.0
H224 H 0.92406 0.84831 0.21776 0.0
H225 H 0.91219 0.80424 0.27384 0.0
H226 H 0.86804 0.87637 0.28695 0.0
H227 H 0.93424 0.88107 0.3141 0.0
H228 H 0.85972 0.79559 0.18524 0.0
H229 H 0.96079 0.82913 0.20988 0.0
H230 H 0.94791 0.78387 0.26664 0.0
C231 C 0.10528 0.85131 0.9867 0.0
C232 C 0.12195 0.84651 0.97081 0.0
N233 N 0.13476 0.86534 0.96783 0.0
N234 N 0.10751 0.87314 0.99399 0.0
C235 C 0.12582 0.88107 0.98216 0.0
H236 H 0.09205 0.83957 0.99193 0.0
Co237 Co 0.08892 0.8904 0.01443 0.0
C238 C 0.11358 0.8875 0.05892 0.0
O239 O 0.09382 0.88535 0.06939 0.0
N240 N 0.07093 0.90853 0.03433 0.0
C241 C 0.06157 0.93864 0.05563 0.0
C242 C 0.0792 0.92684 0.04565 0.0
C243 C 0.04802 0.90991 0.0374 0.0
N244 N 0.04182 0.92809 0.0504 0.0
O245 O 0.1002 0.9184 1.00142 0.0
H246 H 0.09694 0.93199 0.04572 0.0
H247 H 0.03602 0.89845 0.02943 0.0
O248 O 0.11404 0.88926 0.03712 0.0
C249 C 0.08671 0.92237 0.98473 0.0
O250 O 0.07162 0.90662 0.97952 0.0
N251 N 0.07458 0.8633 0.02486 0.0
C252 C 0.04553 0.82542 0.03087 0.0
C253 C 0.06611 0.82745 0.04333 0.0
C254 C 0.08069 0.84632 0.03972 0.0
C255 C 0.0552 0.86109 0.0122 0.0
C256 C 0.04068 0.8425 0.01476 0.0
H257 H 0.09689 0.84683 0.04847 0.0
H258 H 0.05109 0.87388 0.99956 0.0
H259 H 0.13245 0.89824 0.98373 0.0
H260 H 0.12384 0.83071 0.96139 0.0
H261 H 0.0632 0.9546 0.06478 0.0
H262 H 0.07105 0.81463 0.0557 0.0
H263 H 0.02596 0.84149 1.00364 0.0
C264 C 0.23514 0.10427 0.33924 0.0
C265 C 0.21664 0.10059 0.35319 0.0
N266 N 0.2151 0.11793 0.36824 0.0
N267 N 0.24585 0.12369 0.34551 0.0
C268 C 0.23304 0.13172 0.36315 0.0
H269 H 0.23992 0.09367 0.32492 0.0
Co270 Co 0.27043 0.13791 0.32962 0.0
C271 C 0.29116 0.13059 0.37727 0.0
O272 O 0.27528 0.11681 0.38508 0.0
N273 N 0.29446 0.15227 0.3137 0.0
C274 C 0.32913 0.16139 0.301 0.0
C275 C 0.31706 0.14869 0.31667 0.0
C276 C 0.29323 0.16699 0.29593 0.0
N277 N 0.31412 0.17287 0.28786 0.0
O278 O 0.25808 0.16725 0.33713 0.0
H279 H 0.32434 0.13691 0.3289 0.0
H280 H 0.27728 0.17296 0.28876 0.0
O281 O 0.28987 0.13835 0.3569 0.0
C282 C 0.24247 0.17171 0.32259 0.0
O283 O 0.23777 0.15618 0.30709 0.0
N284 N 0.28134 0.10937 0.31951 0.0
C285 C 0.28958 0.06801 0.29669 0.0
C286 C 0.29306 0.06997 0.32047 0.0
C287 C 0.28894 0.09091 0.3316 0.0
C288 C 0.27838 0.10786 0.2965 0.0
C289 C 0.2828 0.08768 0.28478 0.0
H290 H 0.29081 0.09191 0.34989 0.0
H291 H 0.27192 0.12243 0.28715 0.0
H292 H 0.23644 0.1478 0.37159 0.0
H293 H 0.20507 0.08623 0.35201 0.0
H294 H 0.3475 0.16131 0.29878 0.0
H295 H 0.29809 0.0553 0.33056 0.0
H296 H 0.28052 0.08756 0.26645 0.0
C297 C 0.35779 0.51917 0.89954 0.0
C298 C 0.35545 0.5371 0.8845 0.0
N299 N 0.37164 0.55269 0.88922 0.0
N300 N 0.37546 0.52321 0.91384 0.0
C301 C 0.38335 0.54397 0.90715 0.0
H302 H 0.34778 0.5037 0.89922 0.0
Co303 Co 0.38784 0.50228 0.93555 0.0
C304 C 0.39518 0.4781 0.89195 0.0
O305 O 0.40445 0.49673 0.88354 0.0
N306 N 0.39996 0.4813 0.95682 0.0
C307 C 0.40848 0.44899 0.97508 0.0
C308 C 0.39753 0.45835 0.95651 0.0
C309 C 0.41208 0.48545 0.97603 0.0
N310 N 0.41764 0.46608 0.98737 0.0
O311 O 0.41848 0.51136 0.92756 0.0
H312 H 0.38785 0.44893 0.94399 0.0
H313 H 0.41669 0.50236 0.98177 0.0
O314 O 0.38759 0.47809 0.91242 0.0
C315 C 0.42362 0.52744 0.94137 0.0
O316 O 0.40754 0.53496 0.95515 0.0
N317 N 0.35853 0.49522 0.94623 0.0
C318 C 0.31836 0.48841 0.97166 0.0
C319 C 0.32236 0.4764 0.95107 0.0
C320 C 0.34282 0.4797 0.93883 0.0
C321 C 0.35488 0.50717 0.96578 0.0
C322 C 0.33535 0.50376 0.97889 0.0
H323 H 0.34598 0.46982 0.92357 0.0
H324 H 0.36779 0.51895 0.97172 0.0
H325 H 0.39807 0.55223 0.9145 0.0
H326 H 0.34296 0.53833 0.87092 0.0
H327 H 0.40895 0.43106 0.97959 0.0
H328 H 0.30994 0.46452 0.94434 0.0
H329 H 0.33413 0.51285 0.99489 0.0
C330 C 0.79969 0.40482 0.33471 0.0
C331 C 0.81746 0.40884 0.34952 0.0
N332 N 0.81276 0.39863 0.36964 0.0
N333 N 0.78356 0.39234 0.34536 0.0
C334 C 0.79207 0.38865 0.36657 0.0
H335 H 0.79882 0.41014 0.31704 0.0
Co336 Co 0.75743 0.37997 0.3312 0.0
C337 C 0.7256 0.39257 0.37021 0.0
O338 O 0.71864 0.41112 0.35976 0.0
N339 N 0.73142 0.36647 0.31714 0.0
C340 C 0.69622 0.35752 0.30572 0.0
C341 C 0.70896 0.37081 0.32031 0.0
C342 C 0.73174 0.35043 0.30051 0.0
N343 N 0.71057 0.34463 0.29317 0.0
O344 O 0.76961 0.34977 0.33682 0.0
H345 H 0.70203 0.38341 0.33176 0.0
H346 H 0.74731 0.34341 0.29364 0.0
O347 O 0.74064 0.37964 0.36083 0.0
C348 C 0.78376 0.34659 0.32047 0.0
O349 O 0.78641 0.36325 0.30563 0.0
N350 N 0.74758 0.41012 0.32222 0.0
C351 C 0.74165 0.45325 0.30133 0.0
C352 C 0.74937 0.45135 0.32403 0.0
C353 C 0.75233 0.42973 0.33407 0.0
C354 C 0.74045 0.41183 0.30005 0.0
C355 C 0.73666 0.43295 0.28968 0.0
H356 H 0.75912 0.42878 0.35121 0.0
H357 H 0.73865 0.39682 0.28956 0.0
H358 H 0.78343 0.37842 0.37931 0.0
H359 H 0.83307 0.41783 0.34538 0.0
H360 H 0.67782 0.35808 0.30399 0.0
H361 H 0.75407 0.46633 0.33376 0.0
H362 H 0.73045 0.43313 0.27228 0.0
C363 C 0.66651 0.97693 0.93102 0.0
C364 C 0.67131 0.96052 0.91491 0.0
N365 N 0.65757 0.96391 0.89677 0.0
N366 N 0.65011 0.99101 0.92298 0.0
C367 C 0.6448 0.98246 0.90215 0.0
H368 H 0.67403 0.97811 0.94784 0.0
Co369 Co 0.63584 0.01459 0.93949 0.0
C370 C 0.64484 0.05273 0.90571 0.0
O371 O 0.65815 0.06358 0.92013 0.0
N372 N 0.62045 0.03762 0.95645 0.0
C373 C 0.60112 0.06807 0.96892 0.0
C374 C 0.61354 0.05905 0.95112 0.0
C375 C 0.61128 0.03395 0.97735 0.0
N376 N 0.59977 0.05225 0.98551 0.0
O377 O 0.6066 1.00218 0.93161 0.0
H378 H 0.61635 0.06769 0.93516 0.0
H379 H 0.61271 0.01783 0.98625 0.0
O380 O 0.63536 0.03391 0.91167 0.0
C381 C 0.60169 0.98603 0.94539 0.0
O382 O 0.617 0.98022 0.96076 0.0
N383 N 0.66506 0.02513 0.94969 0.0
C384 C 0.70837 0.03032 0.97001 0.0
C385 C 0.70585 0.03015 0.9461 0.0
C386 C 0.68412 0.02722 0.93629 0.0
C387 C 0.6674 0.02513 0.97289 0.0
C388 C 0.68862 0.02804 0.98331 0.0
H389 H 0.68275 0.02551 0.91796 0.0
H390 H 0.65307 0.02115 0.98366 0.0
H391 H 0.63138 0.98933 0.89143 0.0
H392 H 0.68318 0.94645 0.9169 0.0
H393 H 0.59367 0.08499 0.96952 0.0
H394 H 0.7206 0.03155 0.93503 0.0
H395 H 0.68962 0.02702 1.00174 0.0
C396 C 0.22927 0.91229 0.18393 0.0
C397 C 0.20995 0.91527 0.171 0.0
N398 N 0.21125 0.90147 0.15267 0.0
N399 N 0.24303 0.89682 0.1738 0.0
C400 C 0.23153 0.89046 0.1547 0.0
H401 H 0.23231 0.9197 0.20056 0.0
Co402 Co 0.26789 0.8828 0.18873 0.0
C403 C 0.30372 0.89219 0.15273 0.0
O404 O 0.31465 0.90642 0.16615 0.0
N405 N 0.2919 0.86761 0.20436 0.0
C406 C 0.32326 0.84949 0.21642 0.0
C407 C 0.3136 0.86183 0.19881 0.0
C408 C 0.28876 0.85801 0.22512 0.0
N409 N 0.30758 0.84725 0.23306 0.0
O410 O 0.25506 0.85349 0.18177 0.0
H411 H 0.32209 0.86573 0.18299 0.0
H412 H 0.27276 0.85897 0.23431 0.0
O413 O 0.28559 0.88214 0.15984 0.0
C414 C 0.23938 0.8488 0.19616 0.0
O415 O 0.23436 0.86416 0.21174 0.0
N416 N 0.27901 0.91217 0.19807 0.0
C417 C 0.28499 0.9557 0.21759 0.0
C418 C 0.28205 0.9531 0.19389 0.0
C419 C 0.27891 0.93124 0.1845 0.0
C420 C 0.28193 0.9146 0.22109 0.0
C421 C 0.28537 0.93597 0.23106 0.0
H422 H 0.27522 0.92973 0.16647 0.0
H423 H 0.27992 0.90024 0.23234 0.0
H424 H 0.23682 0.87651 0.14378 0.0
H425 H 0.19528 0.92561 0.17554 0.0
H426 H 0.34056 0.84296 0.21701 0.0
H427 H 0.28136 0.96788 0.18279 0.0
H428 H 0.28668 0.93707 0.24947 0.0
C429 C 0.158 0.54649 0.08769 0.0
C430 C 0.15991 0.56254 0.10479 0.0
N431 N 0.14606 0.55648 0.12223 0.0
N432 N 0.14331 0.53008 0.09434 0.0
C433 C 0.13622 0.5367 0.1153 0.0
H434 H 0.16647 0.54695 0.07128 0.0
Co435 Co 0.13193 0.50553 0.07708 0.0
C436 C 0.14158 0.46925 0.11232 0.0
O437 O 0.15723 0.46001 0.09916 0.0
N438 N 0.11911 0.48128 0.05975 0.0
C439 C 0.10274 0.44932 0.04693 0.0
C440 C 0.11407 0.45931 0.06493 0.0
C441 C 0.11011 0.48419 0.03868 0.0
N442 N 0.10038 0.46504 0.03037 0.0
O443 O 0.10141 0.51702 0.08166 0.0
H444 H 0.11752 0.45085 0.08086 0.0
H445 H 0.11058 0.50026 0.02959 0.0
O446 O 0.1303 0.48669 0.10526 0.0
C447 C 0.09875 0.53208 0.06607 0.0
O448 O 0.11644 0.53703 0.05312 0.0
N449 N 0.16252 0.49622 0.0695 0.0
C450 C 0.20703 0.49167 0.05199 0.0
C451 C 0.20342 0.49589 0.07533 0.0
C452 C 0.18099 0.49801 0.08378 0.0
C453 C 0.16613 0.49246 0.04674 0.0
C454 C 0.18799 0.48948 0.03784 0.0
H455 H 0.17851 0.50207 0.10162 0.0
H456 H 0.1523 0.4933 0.03475 0.0
H457 H 0.12327 0.52758 0.1248 0.0
H458 H 0.17055 0.57762 0.10415 0.0
H459 H 0.09674 0.43185 0.04612 0.0
H460 H 0.21777 0.49819 0.08676 0.0
H461 H 0.19002 0.48719 0.01959 0.0
C462 C 0.7926 0.60459 0.17048 0.0
C463 C 0.80876 0.60435 0.15332 0.0
N464 N 0.80769 0.62442 0.14213 0.0
N465 N 0.78118 0.62468 0.17002 0.0
C466 C 0.79083 0.63628 0.15249 0.0
H467 H 0.78993 0.59115 0.18285 0.0
Co468 Co 0.75865 0.63626 0.19012 0.0
C469 C 0.73375 0.62872 0.14548 0.0
O470 O 0.74825 0.61296 0.13872 0.0
N471 N 0.73677 0.6481 0.21004 0.0
C472 C 0.70453 0.65941 0.22673 0.0
C473 C 0.71375 0.64769 0.2085 0.0
C474 C 0.74111 0.65977 0.22941 0.0
N475 N 0.72183 0.66698 0.23986 0.0
O476 O 0.76896 0.66688 0.18401 0.0
H477 H 0.70421 0.63941 0.19505 0.0
H478 H 0.75818 0.66321 0.23556 0.0
O479 O 0.73625 0.63817 0.16504 0.0
C480 C 0.78645 0.67109 0.19633 0.0
O481 O 0.79446 0.65461 0.20933 0.0
N482 N 0.75007 0.60662 0.19902 0.0
C483 C 0.74354 0.56452 0.22073 0.0
C484 C 0.73278 0.56938 0.19979 0.0
C485 C 0.736 0.59076 0.18929 0.0
C486 C 0.76045 0.60214 0.21937 0.0
C487 C 0.75735 0.58136 0.23054 0.0
H488 H 0.72717 0.59433 0.17358 0.0
H489 H 0.77143 0.61492 0.22692 0.0
H490 H 0.78569 0.6533 0.14743 0.0
H491 H 0.82106 0.59092 0.15005 0.0
H492 H 0.68653 0.66185 0.23022 0.0
H493 H 0.72182 0.55685 0.19174 0.0
H494 H 0.7662 0.5783 0.2465 0.0
C495 C 0.86686 0.97892 0.09264 0.0
C496 C 0.8651 0.96222 0.10919 0.0
N497 N 0.87692 0.96894 0.12781 0.0
N498 N 0.87954 0.99631 0.10076 0.0
C499 C 0.88531 0.98979 0.12217 0.0
H500 H 0.86042 0.97788 0.07536 0.0
Co501 Co 0.89212 0.02101 0.08444 0.0
C502 C 0.87659 0.05907 0.11492 0.0
O503 O 0.8658 0.06831 0.09755 0.0
N504 N 0.90639 0.04549 0.06818 0.0
C505 C 0.92724 0.07642 0.06004 0.0
C506 C 0.91413 0.06573 0.07628 0.0
C507 C 0.91607 0.04408 0.04715 0.0
N508 N 0.92853 0.06278 0.04166 0.0
O509 O 0.92205 0.01124 0.09373 0.0
H510 H 0.91218 0.07195 0.09345 0.0
H511 H 0.9152 0.02896 0.03658 0.0
O512 O 0.8883 0.04073 0.112 0.0
C513 C 0.92741 0.99566 0.07941 0.0
O514 O 0.91236 0.99036 0.06361 0.0
N515 N 0.86253 0.02844 0.07253 0.0
C516 C 0.82008 0.03311 0.05027 0.0
C517 C 0.82137 0.0313 0.07421 0.0
C518 C 0.84271 0.02861 0.08497 0.0
C519 C 0.86133 0.02935 0.04928 0.0
C520 C 0.84058 0.03223 0.03794 0.0
H521 H 0.84328 0.02625 0.10327 0.0
H522 H 0.87637 0.02684 0.03909 0.0
H523 H 0.89644 0.99982 0.13293 0.0
H524 H 0.85691 0.94581 0.10701 0.0
H525 H 0.9358 0.09269 0.06199 0.0
H526 H 0.80602 0.03119 0.08453 0.0
H527 H 0.84071 0.03342 0.0195 0.0
C528 C 0.34482 0.2277 0.1014 0.0
C529 C 0.3613 0.21151 0.097 0.0
N530 N 0.3773 0.21274 0.11344 0.0
N531 N 0.35053 0.23952 0.12036 0.0
C532 C 0.37035 0.22978 0.12743 0.0
H533 H 0.32936 0.23019 0.09162 0.0
Co534 Co 0.33353 0.2628 0.13495 0.0
C535 C 0.36306 0.30366 0.12762 0.0
O536 O 0.34503 0.31475 0.12014 0.0
N537 N 0.31659 0.2858 0.15067 0.0
C538 C 0.30783 0.31278 0.1762 0.0
C539 C 0.32528 0.30142 0.1653 0.0
C540 C 0.29371 0.28741 0.15398 0.0
N541 N 0.28789 0.30392 0.16905 0.0
O542 O 0.3413 0.25013 0.16437 0.0
H543 H 0.34322 0.30365 0.16899 0.0
H544 H 0.28148 0.27553 0.14711 0.0
O545 O 0.36111 0.28286 0.13432 0.0
C546 C 0.32502 0.23587 0.16744 0.0
O547 O 0.31061 0.23275 0.15052 0.0
N548 N 0.32252 0.27297 0.10597 0.0
C549 C 0.29906 0.27973 0.06445 0.0
C550 C 0.32264 0.28454 0.06639 0.0
C551 C 0.33414 0.28072 0.08723 0.0
C552 C 0.30014 0.26699 0.10377 0.0
C553 C 0.28797 0.27102 0.08378 0.0
H554 H 0.35244 0.28309 0.08792 0.0
H555 H 0.29181 0.25769 0.11723 0.0
H556 H 0.37935 0.23485 0.14275 0.0
H557 H 0.36102 0.1991 0.08331 0.0
H558 H 0.30981 0.32599 0.18895 0.0
H559 H 0.33235 0.29039 0.0518 0.0
H560 H 0.26998 0.26679 0.0836 0.0
C561 C 0.34419 0.78946 0.40773 0.0
C562 C 0.36053 0.80624 0.40986 0.0
N563 N 0.37914 0.80013 0.39765 0.0
N564 N 0.35239 0.77257 0.39444 0.0
C565 C 0.37368 0.77949 0.38862 0.0
H566 H 0.32693 0.79016 0.4143 0.0
Co567 Co 0.33532 0.74873 0.38141 0.0
C568 C 0.36664 0.71014 0.39492 0.0
O569 O 0.35054 0.70123 0.40775 0.0
N570 N 0.31789 0.72555 0.36693 0.0
C571 C 0.30365 0.69467 0.34967 0.0
C572 C 0.32192 0.70338 0.36174 0.0
C573 C 0.29749 0.72996 0.35698 0.0
N574 N 0.28817 0.71145 0.34689 0.0
O575 O 0.34425 0.75921 0.35156 0.0
H576 H 0.33719 0.69394 0.36583 0.0
H577 H 0.28948 0.74662 0.35736 0.0
O578 O 0.36256 0.72828 0.38329 0.0
C579 C 0.33121 0.77598 0.34649 0.0
O580 O 0.31628 0.78272 0.36187 0.0
N581 N 0.32393 0.74034 0.41111 0.0
C582 C 0.30222 0.73514 0.4539 0.0
C583 C 0.32612 0.73782 0.45227 0.0
C584 C 0.3366 0.7405 0.43077 0.0
C585 C 0.30073 0.73833 0.41265 0.0
C586 C 0.28976 0.73496 0.43347 0.0
H587 H 0.35485 0.74333 0.42998 0.0
H588 H 0.29008 0.74038 0.3979 0.0
H589 H 0.38436 0.77001 0.37692 0.0
H590 H 0.35813 0.82235 0.41857 0.0
H591 H 0.30178 0.67727 0.34373 0.0
H592 H 0.33664 0.73866 0.46743 0.0
H593 H 0.27141 0.73271 0.43336 0.0
C594 C 0.03672 0.42449 0.85505 0.0
C595 C 0.05346 0.40795 0.85365 0.0
N596 N 0.04909 0.39184 0.86947 0.0
N597 N 0.0215 0.41862 0.87135 0.0
C598 C 0.02959 0.39866 0.87984 0.0
H599 H 0.03655 0.44053 0.84585 0.0
Co600 Co 0.9986 0.43705 0.88466 0.0
C601 C 0.96033 0.40338 0.87504 0.0
O602 O 0.95217 0.41528 0.85789 0.0
N603 N 0.97634 0.45539 0.89922 0.0
C604 C 0.94501 0.47276 0.9122 0.0
C605 C 0.95326 0.45449 0.89983 0.0
C606 C 0.9816 0.47415 0.91157 0.0
N607 N 0.96292 0.48523 0.9194 0.0
O608 O 1.01037 0.42943 0.91421 0.0
H609 H 0.94281 0.44195 0.89138 0.0
H610 H 0.99892 0.48003 0.91406 0.0
O611 O 0.9778 0.41052 0.88609 0.0
C612 C 0.0282 0.44133 0.91806 0.0
O613 O 0.03545 0.4551 0.90187 0.0
N614 N 0.98867 0.44723 0.85505 0.0
C615 C 0.98206 0.46866 0.81236 0.0
C616 C 0.98535 0.44483 0.81399 0.0
C617 C 0.98862 0.43448 0.83546 0.0
C618 C 0.98589 0.47036 0.85349 0.0
C619 C 0.98166 0.48112 0.83276 0.0
H620 H 0.99196 0.41631 0.83623 0.0
H621 H 0.98795 0.48116 0.86818 0.0
H622 H 0.02223 0.39013 0.89449 0.0
H623 H 0.06872 0.40873 0.84321 0.0
H624 H 0.9272 0.47708 0.91476 0.0
H625 H 0.98632 0.4343 0.79885 0.0
H626 H 0.97875 0.49937 0.83294 0.0
C627 C 0.6754 0.73716 0.41452 0.0
C628 C 0.65973 0.71954 0.41532 0.0
N629 N 0.64802 0.71942 0.39556 0.0
N630 N 0.67336 0.74843 0.39447 0.0
C631 C 0.65658 0.73699 0.38331 0.0
H632 H 0.688 0.74086 0.42749 0.0
Co633 Co 0.69125 0.77277 0.38242 0.0
C634 C 0.64444 0.79445 0.38967 0.0
O635 O 0.63676 0.77827 0.40319 0.0
N636 N 0.70875 0.7967 0.36996 0.0
C637 C 0.72234 0.83125 0.36183 0.0
C638 C 0.70631 0.81925 0.37415 0.0
C639 C 0.7265 0.79542 0.35523 0.0
N640 N 0.73508 0.81623 0.34991 0.0
O641 O 0.6849 0.7621 0.35211 0.0
H642 H 0.69389 0.82653 0.38573 0.0
H643 H 0.73303 0.7795 0.34853 0.0
O644 O 0.66472 0.79328 0.38162 0.0
C645 C 0.69889 0.74587 0.34801 0.0
O646 O 0.71351 0.7402 0.36411 0.0
N647 N 0.70044 0.78191 0.41197 0.0
C648 C 0.72259 0.78977 0.45394 0.0
C649 C 0.69877 0.79318 0.45145 0.0
C650 C 0.68806 0.78946 0.43023 0.0
C651 C 0.72336 0.77847 0.41408 0.0
C652 C 0.73477 0.78289 0.43444 0.0
H653 H 0.66984 0.79181 0.42885 0.0
H654 H 0.73301 0.77213 0.39966 0.0
H655 H 0.65074 0.7413 0.36632 0.0
H656 H 0.65791 0.70708 0.42886 0.0
H657 H 0.72483 0.84957 0.36217 0.0
H658 H 0.68825 0.79813 0.46581 0.0
H659 H 0.75312 0.78078 0.43458 0.0
C660 C 0.48401 0.59477 0.35328 0.0
C661 C 0.46742 0.61082 0.34882 0.0
N662 N 0.47002 0.62826 0.36353 0.0
N663 N 0.49757 0.60222 0.37037 0.0
C664 C 0.48832 0.62259 0.37653 0.0
H665 H 0.48557 0.5783 0.34507 0.0
Co666 Co 0.5211 0.58525 0.38471 0.0
C667 C 0.55993 0.61801 0.37448 0.0
O668 O 0.57021 0.60326 0.36106 0.0
N669 N 0.5439 0.56792 0.40018 0.0
C670 C 0.57451 0.55459 0.41871 0.0
C671 C 0.56572 0.57256 0.40629 0.0
C672 C 0.5398 0.54729 0.40984 0.0
N673 N 0.55817 0.53859 0.42082 0.0
O674 O 0.50933 0.59404 0.41384 0.0
H675 H 0.57487 0.58808 0.40273 0.0
H676 H 0.52339 0.53886 0.40895 0.0
O677 O 0.54115 0.61256 0.38437 0.0
C678 C 0.49293 0.58059 0.41876 0.0
O679 O 0.48672 0.56545 0.4034 0.0
N680 N 0.53107 0.57402 0.35565 0.0
C681 C 0.53526 0.55203 0.31313 0.0
C682 C 0.53568 0.57603 0.31474 0.0
C683 C 0.53339 0.58671 0.33614 0.0
C684 C 0.53047 0.55074 0.35412 0.0
C685 C 0.53301 0.53949 0.33332 0.0
H686 H 0.53217 0.60513 0.33687 0.0
H687 H 0.52624 0.54055 0.36878 0.0
H688 H 0.49443 0.63273 0.39071 0.0
H689 H 0.4537 0.60924 0.33652 0.0
H690 H 0.59169 0.55337 0.42545 0.0
H691 H 0.53696 0.58649 0.29954 0.0
H692 H 0.53157 0.52104 0.33295 0.0
C693 C 0.1749 0.78828 0.60555 0.0
C694 C 0.15873 0.80536 0.60414 0.0
N695 N 0.14459 0.80367 0.62224 0.0
N696 N 0.17096 0.77552 0.62434 0.0
C697 C 0.15253 0.78551 0.63422 0.0
H698 H 0.18888 0.7857 0.59376 0.0
Co699 Co 0.18889 0.75127 0.63619 0.0
C700 C 0.14253 0.72865 0.62806 0.0
O701 O 0.13493 0.74432 0.6139 0.0
N702 N 0.20661 0.72746 0.64826 0.0
C703 C 0.22146 0.69316 0.65506 0.0
C704 C 0.20545 0.70514 0.64268 0.0
C705 C 0.22347 0.72864 0.66396 0.0
N706 N 0.23285 0.70796 0.66852 0.0
O707 O 0.18195 0.76131 0.66661 0.0
H708 H 0.19391 0.69804 0.63013 0.0
H709 H 0.2287 0.74445 0.67187 0.0
O710 O 0.16261 0.73034 0.63653 0.0
C711 C 0.19498 0.77813 0.67136 0.0
O712 O 0.20931 0.78517 0.65556 0.0
N713 N 0.19851 0.74291 0.60665 0.0
C714 C 0.22053 0.73731 0.56455 0.0
C715 C 0.1974 0.73121 0.56733 0.0
C716 C 0.18668 0.73398 0.58867 0.0
C717 C 0.22094 0.74872 0.6042 0.0
C718 C 0.23231 0.74587 0.58348 0.0
H719 H 0.16893 0.72948 0.59039 0.0
H720 H 0.23001 0.75615 0.61847 0.0
H721 H 0.14532 0.77969 0.65019 0.0
H722 H 0.1576 0.81802 0.59072 0.0
H723 H 0.22479 0.67502 0.65372 0.0
H724 H 0.18766 0.72454 0.55311 0.0
H725 H 0.24997 0.75121 0.5821 0.0
C726 C 0.03497 0.59957 0.66402 0.0
C727 C 0.05145 0.61632 0.66572 0.0
N728 N 0.04979 0.63014 0.64738 0.0
N729 N 0.0227 0.60282 0.64478 0.0
C730 C 0.03232 0.62149 0.63498 0.0
H731 H 0.03256 0.58564 0.67589 0.0
Co732 Co 0.99994 0.58365 0.63195 0.0
C733 C 0.97556 0.62858 0.64016 0.0
O734 O 0.99023 0.63532 0.65572 0.0
N735 N 0.97804 0.56443 0.61876 0.0
C736 C 0.946 0.54773 0.60691 0.0
C737 C 0.955 0.56584 0.61901 0.0
C738 C 0.98259 0.54533 0.60668 0.0
N739 N 0.96344 0.53481 0.59921 0.0
O740 O 1.01061 0.59121 0.60214 0.0
H741 H 0.94531 0.57892 0.62773 0.0
H742 H 0.99973 0.53923 0.60345 0.0
O743 O 0.97779 0.60894 0.63081 0.0
C744 C 0.02814 0.57891 0.59822 0.0
O745 O 0.03559 0.56549 0.61463 0.0
N746 N 0.99082 0.57349 0.66097 0.0
C747 C 0.98409 0.55076 0.7024 0.0
C748 C 0.97559 0.57301 0.69906 0.0
C749 C 0.97888 0.58405 0.678 0.0
C750 C 0.99897 0.55187 0.66399 0.0
C751 C 0.99561 0.54012 0.68439 0.0
H752 H 0.97215 0.60101 0.67575 0.0
H753 H 1.0086 0.5438 0.65045 0.0
H754 H 0.02685 0.62834 0.61872 0.0
H755 H 0.06372 0.61806 0.67942 0.0
H756 H 0.92804 0.54402 0.60455 0.0
H757 H 0.96658 0.58178 0.71263 0.0
H758 H 1.00277 0.52316 0.68635 0.0
C759 C 0.98841 0.92587 0.66608 0.0
C760 C 0.97201 0.90908 0.66782 0.0
N761 N 0.97312 0.8958 0.64908 0.0
N762 N 1.0001 0.92325 0.64637 0.0
C763 C 0.99027 0.90479 0.63642 0.0
H764 H 0.99115 0.93938 0.67832 0.0
Co765 Co 0.02251 0.94279 0.63334 0.0
C766 C 0.04753 0.89817 0.64135 0.0
O767 O 0.03356 0.89195 0.65777 0.0
N768 N 0.04399 0.96232 0.62002 0.0
C769 C 0.07565 0.97888 0.60701 0.0
C770 C 0.06703 0.96101 0.61975 0.0
C771 C 0.03907 0.98118 0.60769 0.0
N772 N 0.05798 0.99156 0.59943 0.0
O773 O 0.01133 0.93556 0.60345 0.0
H774 H 0.07697 0.94799 0.6283 0.0
H775 H 0.02181 0.98701 0.60455 0.0
O776 O 0.04482 0.91754 0.6315 0.0
C777 C 0.99357 0.94753 0.59934 0.0
O778 O 0.98564 0.96069 0.61572 0.0
N779 N 0.03218 0.95263 0.66239 0.0
C780 C 0.04047 0.97513 0.70383 0.0
C781 C 0.05141 0.95431 0.69865 0.0
C782 C 0.04723 0.9434 0.67767 0.0
C783 C 0.02183 0.97298 0.667 0.0
C784 C 0.02566 0.98446 0.68749 0.0
H785 H 0.05617 0.92776 0.67391 0.0
H786 H 1.01014 0.98021 0.65464 0.0
H787 H 0.99529 0.89839 0.61984 0.0
H788 H 0.96015 0.90695 0.68184 0.0
H789 H 0.09354 0.98246 0.60393 0.0
H790 H 0.06323 0.94661 0.71063 0.0
H791 H 0.01655 1.00025 0.69072 0.0
C792 C 0.61777 0.84009 0.73007 0.0
C793 C 0.6166 0.85599 0.71278 0.0
N794 N 0.62731 0.87523 0.71962 0.0
N795 N 0.6289 0.84919 0.74802 0.0
C796 C 0.63454 0.87056 0.74114 0.0
H797 H 0.61191 0.82259 0.7292 0.0
Co798 Co 0.63958 0.83301 0.77377 0.0
C799 C 0.62238 0.86841 0.80778 0.0
O800 O 0.60468 0.85595 0.81353 0.0
N801 N 0.65149 0.81673 0.79929 0.0
C802 C 0.65859 0.80213 0.83369 0.0
C803 C 0.64582 0.81774 0.82159 0.0
C804 C 0.6678 0.80029 0.79841 0.0
N805 N 0.67256 0.79102 0.81911 0.0
O806 O 0.6702 0.84136 0.76523 0.0
H807 H 0.63279 0.82851 0.82882 0.0
H808 H 0.67572 0.79498 0.78268 0.0
O809 O 0.63675 0.86107 0.79294 0.0
C810 C 0.67581 0.82739 0.74945 0.0
O811 O 0.6609 0.81163 0.74364 0.0
N812 N 0.60927 0.82204 0.7799 0.0
C813 C 0.56651 0.79997 0.78007 0.0
C814 C 0.56823 0.82357 0.77589 0.0
C815 C 0.58972 0.8342 0.77558 0.0
C816 C 0.60776 0.79902 0.78368 0.0
C817 C 0.58669 0.78782 0.78431 0.0
H818 H 0.5907 0.85214 0.77127 0.0
H819 H 0.62301 0.78872 0.78496 0.0
H820 H 0.64469 0.88202 0.75145 0.0
H821 H 0.60957 0.85297 0.69598 0.0
H822 H 0.65704 0.79891 0.85179 0.0
H823 H 0.55314 0.83368 0.77232 0.0
H824 H 0.58639 0.76948 0.78675 0.0
C825 C 0.10089 0.16715 0.52713 0.0
C826 C 0.1165 0.16805 0.54476 0.0
N827 N 0.12764 0.14797 0.54559 0.0
N828 N 0.10226 0.14659 0.51663 0.0
C829 C 0.11885 0.13542 0.52838 0.0
H830 H 0.0892 0.1807 0.52263 0.0
Co831 Co 0.08468 0.13435 0.49202 0.0
C832 C 0.1298 0.14766 0.47122 0.0
O833 O 0.13183 0.1646 0.48576 0.0
N834 N 0.06729 0.12188 0.46825 0.0
C835 C 0.05455 0.11006 0.43447 0.0
C836 C 0.07158 0.1219 0.4456 0.0
C837 C 0.04745 0.11028 0.4704 0.0
N838 N 0.03936 0.10276 0.45012 0.0
O839 O 0.09192 0.10383 0.50226 0.0
H840 H 0.08606 0.13006 0.43755 0.0
H841 H 0.03923 0.10711 0.48663 0.0
O842 O 0.11193 0.13501 0.47179 0.0
C843 C 0.07795 0.09914 0.51838 0.0
O844 O 0.06311 0.11493 0.52432 0.0
N845 N 0.07426 0.16363 0.48353 0.0
C846 C 0.04933 0.20416 0.47712 0.0
C847 C 0.0694 0.1998 0.46448 0.0
C848 C 0.08159 0.17923 0.46779 0.0
C849 C 0.05445 0.16728 0.49519 0.0
C850 C 0.04185 0.18725 0.49234 0.0
H851 H 0.09655 0.17592 0.45755 0.0
H852 H 0.04838 0.15442 0.50697 0.0
H853 H 0.12446 0.11823 0.52453 0.0
H854 H 0.1188 0.18204 0.55662 0.0
H855 H 0.05327 0.10737 0.41624 0.0
H856 H 0.07573 0.21219 0.45229 0.0
H857 H 0.02614 0.18925 0.50191 0.0
C858 C 0.41287 0.67741 0.7292 0.0
C859 C 0.41427 0.66122 0.71212 0.0
N860 N 0.39623 0.64708 0.71408 0.0
N861 N 0.39417 0.67333 0.74209 0.0
C862 C 0.38447 0.65471 0.73241 0.0
H863 H 0.42431 0.69173 0.7314 0.0
Co864 Co 0.38138 0.69052 0.76611 0.0
C865 C 0.38781 0.65983 0.80621 0.0
O866 O 0.39587 0.67727 0.81781 0.0
N867 N 0.3672 0.70749 0.78999 0.0
C868 C 0.34155 0.71598 0.81692 0.0
C869 C 0.35207 0.69871 0.8051 0.0
C870 C 0.3646 0.73039 0.7924 0.0
N871 N 0.34928 0.73603 0.80881 0.0
O872 O 0.35126 0.68414 0.75461 0.0
H873 H 0.3475 0.68088 0.8064 0.0
H874 H 0.37199 0.74276 0.78095 0.0
O875 O 0.3816 0.66271 0.7854 0.0
C876 C 0.34741 0.70113 0.74146 0.0
O877 O 0.36388 0.71612 0.73854 0.0
N878 N 0.41107 0.69992 0.77532 0.0
C879 C 0.45389 0.72097 0.78112 0.0
C880 C 0.45079 0.6976 0.78614 0.0
C881 C 0.42929 0.68727 0.78275 0.0
C882 C 0.41424 0.72218 0.76938 0.0
C883 C 0.43504 0.73315 0.77276 0.0
H884 H 0.42763 0.66907 0.78526 0.0
H885 H 0.4008 0.73137 0.76082 0.0
H886 H 0.36859 0.64727 0.73826 0.0
H887 H 0.42678 0.66072 0.69851 0.0
H888 H 0.32835 0.7138 0.82966 0.0
H889 H 0.46498 0.68718 0.79184 0.0
H890 H 0.43625 0.75109 0.76845 0.0
C891 C 0.92176 0.35664 0.53823 0.0
C892 C 0.90546 0.35537 0.55514 0.0
N893 N 0.89091 0.37308 0.55274 0.0
N894 N 0.91765 0.37503 0.52489 0.0
C895 C 0.8987 0.38464 0.53425 0.0
H896 H 0.93577 0.34483 0.53617 0.0
Co897 Co 0.93509 0.38691 0.50006 0.0
C898 C 0.89098 0.37187 0.47852 0.0
O899 O 0.88908 0.35484 0.49302 0.0
N900 N 0.95219 0.399 0.47584 0.0
C901 C 0.96574 0.40682 0.44125 0.0
C902 C 0.9497 0.39463 0.45338 0.0
C903 C 0.96989 0.41379 0.47694 0.0
N904 N 0.97849 0.41897 0.45608 0.0
O905 O 0.92698 0.41748 0.50941 0.0
H906 H 0.9372 0.3831 0.4462 0.0
H907 H 0.97624 0.42066 0.49282 0.0
O908 O 0.90829 0.38517 0.47969 0.0
C909 C 0.94068 0.42271 0.52556 0.0
O910 O 0.95557 0.40721 0.53213 0.0
N911 N 0.94627 0.35753 0.49252 0.0
C912 C 0.97149 0.31699 0.48851 0.0
C913 C 0.95181 0.32058 0.47515 0.0
C914 C 0.93939 0.34116 0.47734 0.0
C915 C 0.96611 0.35473 0.50438 0.0
C916 C 0.97872 0.33461 0.50291 0.0
H917 H 0.92457 0.34381 0.46673 0.0
H918 H 0.97189 0.36815 0.51563 0.0
H919 H 0.89102 0.40016 0.52779 0.0
H920 H 0.90445 0.34228 0.56814 0.0
H921 H 0.96809 0.40626 0.42294 0.0
H922 H 0.94586 0.30747 0.46357 0.0
H923 H 0.994 0.33276 0.5132 0.0
C924 C 0.60163 0.16584 0.78562 0.0
C925 C 0.60092 0.14937 0.80251 0.0
N926 N 0.62121 0.13854 0.80292 0.0
N927 N 0.62224 0.16528 0.77516 0.0
C928 C 0.63364 0.14833 0.78615 0.0
H929 H 0.58824 0.17805 0.78203 0.0
Co930 Co 0.63479 0.18562 0.75301 0.0
C931 C 0.62698 0.14146 0.7274 0.0
O932 O 0.61231 0.13376 0.74252 0.0
N933 N 0.64765 0.2058 0.73175 0.0
C934 C 0.65913 0.22363 0.7002 0.0
C935 C 0.64706 0.20526 0.70872 0.0
C936 C 0.65985 0.2247 0.73679 0.0
N937 N 0.66712 0.23586 0.71794 0.0
O938 O 0.6649 0.17815 0.76319 0.0
H939 H 0.63816 0.19257 0.69871 0.0
H940 H 0.66337 0.23018 0.75406 0.0
O941 O 0.63592 0.16125 0.72991 0.0
C942 C 0.66872 0.18985 0.78114 0.0
O943 O 0.65215 0.20282 0.78904 0.0
N944 N 0.60562 0.1959 0.74447 0.0
C945 C 0.56513 0.22062 0.73691 0.0
C946 C 0.56803 0.19834 0.72804 0.0
C947 C 0.58858 0.18632 0.73179 0.0
C948 C 0.60299 0.21722 0.75334 0.0
C949 C 0.58332 0.22996 0.74942 0.0
H950 H 0.59054 0.16945 0.72469 0.0
H951 H 0.61664 0.22461 0.76335 0.0
H952 H 0.65108 0.14347 0.78236 0.0
H953 H 0.5871 0.14657 0.81448 0.0
H954 H 0.6613 0.22797 0.68237 0.0
H955 H 0.55456 0.19009 0.71847 0.0
H956 H 0.58273 0.2472 0.75604 0.0
C957 C 0.42588 0.16201 0.47906 0.0
C958 C 0.40913 0.16405 0.46267 0.0
N959 N 0.39125 0.15065 0.46852 0.0
N960 N 0.41862 0.14774 0.49556 0.0
C961 C 0.39756 0.14108 0.48867 0.0
H962 H 0.44265 0.16976 0.47853 0.0
Co963 Co 0.43594 0.13525 0.51962 0.0
C964 C 0.40452 0.14918 0.55771 0.0
O965 O 0.42048 0.16221 0.56655 0.0
N966 N 0.45338 0.12125 0.54316 0.0
C967 C 0.46638 0.10318 0.57415 0.0
C968 C 0.44864 0.11579 0.56511 0.0
C969 C 0.47377 0.11105 0.53924 0.0
N970 N 0.48227 0.10031 0.55782 0.0
O971 O 0.42728 0.10522 0.50965 0.0
H972 H 0.43305 0.11969 0.57407 0.0
H973 H 0.4821 0.11124 0.52276 0.0
O974 O 0.40875 0.13728 0.53984 0.0
C975 C 0.44058 0.10016 0.49313 0.0
O976 O 0.4555 0.1156 0.48653 0.0
N977 N 0.44707 0.16517 0.52751 0.0
C978 C 0.46817 0.20826 0.53065 0.0
C979 C 0.44431 0.20636 0.5285 0.0
C980 C 0.43409 0.18467 0.52695 0.0
C981 C 0.47031 0.16702 0.52918 0.0
C982 C 0.48106 0.18817 0.53136 0.0
H983 H 0.41581 0.18356 0.52444 0.0
H984 H 0.48107 0.15226 0.52742 0.0
H985 H 0.38774 0.12834 0.49773 0.0
H986 H 0.41056 0.17418 0.44731 0.0
H987 H 0.46743 0.09661 0.59139 0.0
H988 H 0.43371 0.2215 0.52747 0.0
H989 H 0.49955 0.18882 0.53207 0.0
C990 C 0.4062 0.34066 0.79138 0.0
C991 C 0.40953 0.35671 0.80819 0.0
N992 N 0.39992 0.37649 0.80137 0.0
N993 N 0.39458 0.35023 0.77394 0.0
C994 C 0.39103 0.37213 0.78049 0.0
H995 H 0.41113 0.32285 0.79215 0.0
Co996 Co 0.38202 0.33378 0.74953 0.0
C997 C 0.39371 0.36932 0.71358 0.0
O998 O 0.41091 0.35744 0.70546 0.0
N999 N 0.36826 0.31694 0.72572 0.0
C1000 C 0.35516 0.30201 0.69324 0.0
C1001 C 0.36697 0.31999 0.70287 0.0
C1002 C 0.35682 0.29725 0.72946 0.0
N1003 N 0.349 0.28762 0.71005 0.0
O1004 O 0.35205 0.34129 0.76058 0.0
H1005 H 0.37441 0.33395 0.69348 0.0
H1006 H 0.35493 0.28967 0.74617 0.0
O1007 O 0.38184 0.36152 0.73023 0.0
C1008 C 0.34694 0.32773 0.77685 0.0
O1009 O 0.36229 0.31261 0.78323 0.0
N1010 N 0.41201 0.32393 0.74041 0.0
C1011 C 0.45543 0.30355 0.73708 0.0
C1012 C 0.45316 0.3271 0.74118 0.0
C1013 C 0.43131 0.33696 0.74281 0.0
C1014 C 0.41422 0.30099 0.73651 0.0
C1015 C 0.43557 0.29066 0.73423 0.0
H1016 H 0.42991 0.35491 0.74697 0.0
H1017 H 0.39957 0.28993 0.73672 0.0
H1018 H 0.38097 0.38425 0.77079 0.0
H1019 H 0.41798 0.35393 0.8244 0.0
H1020 H 0.35218 0.29929 0.67521 0.0
H1021 H 0.46812 0.33765 0.74384 0.0
H1022 H 0.43646 0.27231 0.73192 0.0
C1023 C 0.60457 0.35572 0.48384 0.0
C1024 C 0.62181 0.35434 0.46781 0.0
N1025 N 0.63433 0.3736 0.4689 0.0
N1026 N 0.60628 0.37568 0.49528 0.0
C1027 C 0.62457 0.38615 0.48568 0.0
H1028 H 0.59119 0.34324 0.48627 0.0
Co1029 Co 0.58609 0.38832 0.51729 0.0
C1030 C 0.63009 0.37992 0.54368 0.0
O1031 O 0.63802 0.36508 0.52885 0.0
N1032 N 0.56608 0.4012 0.53864 0.0
C1033 C 0.54821 0.41169 0.57049 0.0
C1034 C 0.56666 0.39999 0.56165 0.0
C1035 C 0.54709 0.41343 0.53391 0.0
N1036 N 0.53589 0.42006 0.55296 0.0
O1037 O 0.5939 0.41864 0.50715 0.0
H1038 H 0.57932 0.39075 0.57142 0.0
H1039 H 0.54147 0.41723 0.51674 0.0
O1040 O 0.61045 0.38908 0.54057 0.0
C1041 C 0.5821 0.4233 0.48941 0.0
O1042 O 0.56895 0.40716 0.48102 0.0
N1043 N 0.57546 0.35907 0.52567 0.0
C1044 C 0.55086 0.3183 0.53248 0.0
C1045 C 0.57346 0.32082 0.54066 0.0
C1046 C 0.58541 0.34147 0.5373 0.0
C1047 C 0.5538 0.35684 0.51747 0.0
C1048 C 0.54113 0.33704 0.52107 0.0
H1049 H 0.60257 0.343 0.54377 0.0
H1050 H 0.54614 0.37081 0.5081 0.0
H1051 H 0.63054 0.40287 0.49076 0.0
H1052 H 0.62417 0.34075 0.45552 0.0
H1053 H 0.54378 0.4132 0.58836 0.0
H1054 H 0.58209 0.30695 0.54931 0.0
H1055 H 0.52368 0.33678 0.51501 0.0
C1056 C 0.7291 0.61645 0.84263 0.0
C1057 C 0.71249 0.61473 0.85921 0.0
N1058 N 0.71889 0.62733 0.87741 0.0
N1059 N 0.74614 0.62986 0.85031 0.0
C1060 C 0.73944 0.63627 0.87148 0.0
H1061 H 0.72833 0.60924 0.82566 0.0
Co1062 Co 0.77063 0.6412 0.83302 0.0
C1063 C 0.80916 0.62839 0.86432 0.0
O1064 O 0.81817 0.61601 0.84794 0.0
N1065 N 0.79474 0.65403 0.81532 0.0
C1066 C 0.82541 0.67328 0.80317 0.0
C1067 C 0.81562 0.66195 0.82134 0.0
C1068 C 0.79206 0.6617 0.79367 0.0
N1069 N 0.81052 0.67301 0.78571 0.0
O1070 O 0.76095 0.67191 0.84011 0.0
H1071 H 0.82304 0.66105 0.83814 0.0
H1072 H 0.7763 0.65998 0.7842 0.0
O1073 O 0.79074 0.63976 0.86059 0.0
C1074 C 0.7462 0.67693 0.82483 0.0
O1075 O 0.74031 0.661 0.81017 0.0
N1076 N 0.77804 0.61065 0.82333 0.0
C1077 C 0.78121 0.5665 0.80439 0.0
C1078 C 0.77989 0.56966 0.82818 0.0
C1079 C 0.77819 0.59186 0.8373 0.0
C1080 C 0.77854 0.60756 0.80022 0.0
C1081 C 0.78071 0.58591 0.7905 0.0
H1082 H 0.77624 0.59391 0.85555 0.0
H1083 H 0.7758 0.62165 0.78885 0.0
H1084 H 0.74914 0.64799 0.88193 0.0
H1085 H 0.69638 0.60587 0.85739 0.0
H1086 H 0.84198 0.68147 0.80304 0.0
H1087 H 0.77972 0.5551 0.83959 0.0
H1088 H 0.78058 0.58435 0.77208 0.0
C1089 C 0.85613 0.04902 0.43381 0.0
C1090 C 0.85172 0.06596 0.41811 0.0
N1091 N 0.86412 0.06185 0.3991 0.0
N1092 N 0.87104 0.03398 0.42481 0.0
C1093 C 0.87566 0.04226 0.4037 0.0
H1094 H 0.84973 0.0483 0.45113 0.0
Co1095 Co 0.88621 0.01058 0.44081 0.0
C1096 C 0.8768 0.97342 0.40618 0.0
O1097 O 0.86252 0.96325 0.42015 0.0
N1098 N 0.90267 0.98778 0.45696 0.0
C1099 C 0.92062 0.95669 0.46987 0.0
C1100 C 0.90764 0.96566 0.45241 0.0
C1101 C 0.9134 0.99185 0.47699 0.0
N1102 N 0.92406 0.9732 0.48544 0.0
O1103 O 0.91507 0.02475 0.43329 0.0
H1104 H 0.90245 0.95626 0.43753 0.0
H1105 H 0.91294 1.00822 0.4855 0.0
O1106 O 0.88714 0.99168 0.41255 0.0
C1107 C 0.91784 0.04089 0.44772 0.0
O1108 O 0.90126 0.04473 0.46239 0.0
N1109 N 0.85732 0.99855 0.45126 0.0
C1110 C 0.81556 0.98787 0.47259 0.0
C1111 C 0.81636 0.99322 0.44922 0.0
C1112 C 0.83745 0.99849 0.43884 0.0
C1113 C 0.8563 0.99425 0.4742 0.0
C1114 C 0.83593 0.98824 0.48495 0.0
H1115 H 0.83772 1.00308 0.42095 0.0
H1116 H 0.87099 0.99663 0.4849 0.0
H1117 H 0.888 0.03448 0.39237 0.0
H1118 H 0.84116 0.08083 0.4211 0.0
H1119 H 0.9265 0.93921 0.47126 0.0
H1120 H 0.80083 0.99362 0.43918 0.0
H1121 H 0.83592 0.98515 0.50319 0.0
C1122 C 0.29066 0.91509 0.84473 0.0
C1123 C 0.30744 0.91613 0.86124 0.0
N1124 N 0.30311 0.89994 0.87698 0.0
N1125 N 0.27555 0.89856 0.85024 0.0
C1126 C 0.28363 0.88973 0.87002 0.0
H1127 H 0.29042 0.92472 0.82897 0.0
Co1128 Co 0.2523 0.88569 0.83203 0.0
C1129 C 0.212 0.89804 0.86115 0.0
O1130 O 0.2027 0.90908 0.84395 0.0
N1131 N 0.22961 0.87147 0.81377 0.0
C1132 C 0.19988 0.85136 0.80089 0.0
C1133 C 0.20851 0.86356 0.81899 0.0
C1134 C 0.23367 0.86278 0.79275 0.0
N1135 N 0.21576 0.85088 0.78431 0.0
O1136 O 0.262 0.85578 0.84104 0.0
H1137 H 0.20012 0.86502 0.83527 0.0
H1138 H 0.25002 0.86418 0.78425 0.0
O1139 O 0.2311 0.88765 0.85843 0.0
C1140 C 0.27989 0.85049 0.82975 0.0
O1141 O 0.28838 0.86565 0.81553 0.0
N1142 N 0.24452 0.91533 0.82065 0.0
C1143 C 0.24003 0.95812 0.79925 0.0
C1144 C 0.23889 0.9561 0.82316 0.0
C1145 C 0.24148 0.9346 0.83355 0.0
C1146 C 0.24651 0.91733 0.79752 0.0
C1147 C 0.24386 0.93828 0.78651 0.0
H1148 H 0.24171 0.93352 0.85198 0.0
H1149 H 0.2515 0.90289 0.78737 0.0
H1150 H 0.27624 0.87497 0.87836 0.0
H1151 H 0.32269 0.92658 0.86065 0.0
H1152 H 0.18336 0.84309 0.80028 0.0
H1153 H 0.23645 0.97104 0.83379 0.0
H1154 H 0.24604 0.93905 0.76816 0.0
C1155 C 0.15626 0.47105 0.42835 0.0
C1156 C 0.15766 0.45488 0.41131 0.0
N1157 N 0.14445 0.46165 0.39364 0.0
N1158 N 0.14239 0.48808 0.42147 0.0
C1159 C 0.13555 0.48194 0.40032 0.0
H1160 H 0.16391 0.46989 0.44512 0.0
Co1161 Co 0.13043 0.51208 0.43886 0.0
C1162 C 0.14269 0.54931 0.40469 0.0
O1163 O 0.15827 0.55822 0.41811 0.0
N1164 N 0.11736 0.5361 0.45626 0.0
C1165 C 0.10298 0.56864 0.47004 0.0
C1166 C 0.1146 0.55871 0.45219 0.0
C1167 C 0.10675 0.5328 0.47649 0.0
N1168 N 0.09821 0.55226 0.48538 0.0
O1169 O 0.09991 0.50178 0.43181 0.0
H1170 H 0.12018 0.5678 0.43726 0.0
H1171 H 0.10531 0.5163 0.48466 0.0
O1172 O 0.13112 0.53197 0.41142 0.0
C1173 C 0.09635 0.48626 0.44677 0.0
O1174 O 0.11341 0.48043 0.46018 0.0
N1175 N 0.16032 0.51961 0.44934 0.0
C1176 C 0.202 0.52117 0.47306 0.0
C1177 C 0.20152 0.52259 0.44907 0.0
C1178 C 0.18042 0.52112 0.43744 0.0
C1179 C 0.16096 0.51763 0.47254 0.0
C1180 C 0.1813 0.51885 0.48464 0.0
H1181 H 0.18033 0.52028 0.419 0.0
H1182 H 0.14575 0.51348 0.48195 0.0
H1183 H 0.12346 0.49186 0.39048 0.0
H1184 H 0.16671 0.4388 0.4125 0.0
H1185 H 0.09871 0.58655 0.47176 0.0
H1186 H 0.21729 0.52359 0.43944 0.0
H1187 H 0.18086 0.5171 0.50306 0.0
C1188 C 0.73251 0.41327 0.67768 0.0
C1189 C 0.71609 0.4149 0.66086 0.0
N1190 N 0.71852 0.39706 0.64649 0.0
N1191 N 0.74555 0.39463 0.67392 0.0
C1192 C 0.73637 0.38501 0.65498 0.0
H1193 H 0.73452 0.42485 0.69191 0.0
Co1194 Co 0.76933 0.38244 0.69215 0.0
C1195 C 0.79285 0.39158 0.64634 0.0
O1196 O 0.77735 0.40607 0.63902 0.0
N1197 N 0.79272 0.36986 0.71023 0.0
C1198 C 0.82673 0.36196 0.72527 0.0
C1199 C 0.81528 0.37443 0.70894 0.0
C1200 C 0.79086 0.35472 0.72757 0.0
N1201 N 0.81133 0.34952 0.73704 0.0
O1202 O 0.7592 0.35209 0.68459 0.0
H1203 H 0.82293 0.3864 0.69712 0.0
H1204 H 0.77475 0.34765 0.73315 0.0
O1205 O 0.79087 0.3825 0.66615 0.0
C1206 C 0.74255 0.34728 0.69783 0.0
O1207 O 0.73592 0.36294 0.71251 0.0
N1208 N 0.77767 0.41192 0.70245 0.0
C1209 C 0.78422 0.45347 0.7258 0.0
C1210 C 0.78958 0.45129 0.70237 0.0
C1211 C 0.78635 0.43031 0.69103 0.0
C1212 C 0.77234 0.41374 0.72502 0.0
C1213 C 0.77585 0.43399 0.73703 0.0
H1214 H 0.79033 0.42919 0.67314 0.0
H1215 H 0.76519 0.39919 0.73387 0.0
H1216 H 0.74264 0.36923 0.64769 0.0
H1217 H 0.70343 0.4283 0.65937 0.0
H1218 H 0.84491 0.36255 0.72861 0.0
H1219 H 0.79576 0.46573 0.69264 0.0
H1220 H 0.77201 0.43414 0.75509 0.0
C1221 C 0.65987 0.03689 0.59534 0.0
C1222 C 0.66181 0.05341 0.61197 0.0
N1223 N 0.64497 0.05033 0.6274 0.0
N1224 N 0.642 0.02318 0.60025 0.0
C1225 C 0.63325 0.03191 0.61979 0.0
H1226 H 0.6706 0.03537 0.5804 0.0
Co1227 Co 0.62956 0.99918 0.58264 0.0
C1228 C 0.6421 0.97535 0.62744 0.0
O1229 O 0.65802 0.98999 0.63337 0.0
N1230 N 0.61693 0.97544 0.56537 0.0
C1231 C 0.60891 0.94107 0.55136 0.0
C1232 C 0.62154 0.95291 0.56724 0.0
C1233 C 0.60167 0.9769 0.54815 0.0
N1234 N 0.59642 0.9562 0.53932 0.0
O1235 O 0.59925 1.00863 0.59148 0.0
H1236 H 0.63363 0.94553 0.57911 0.0
H1237 H 0.59459 0.99288 0.54215 0.0
O1238 O 0.63133 0.97798 0.60861 0.0
C1239 C 0.5942 0.02541 0.57845 0.0
O1240 O 0.60968 0.03218 0.56366 0.0
N1241 N 0.65859 0.99192 0.57076 0.0
C1242 C 0.69865 0.99148 0.54444 0.0
C1243 C 0.69841 0.98216 0.56667 0.0
C1244 C 0.67805 0.98256 0.57968 0.0
C1245 C 0.65848 1.00003 0.54896 0.0
C1246 C 0.67806 0.99982 0.53556 0.0
H1247 H 0.67823 0.97602 0.59689 0.0
H1248 H 0.643 1.00744 0.54209 0.0
H1249 H 0.61814 0.02512 0.62797 0.0
H1250 H 0.67464 0.06669 0.6125 0.0
H1251 H 0.60948 0.92282 0.54844 0.0
H1252 H 0.71393 0.97546 0.57421 0.0
H1253 H 0.67711 1.00665 0.5184 0.0
C1254 C 0.28865 0.10699 0.67377 0.0
C1255 C 0.30516 0.10223 0.65774 0.0
N1256 N 0.30231 0.11655 0.63999 0.0
N1257 N 0.27497 0.12386 0.66597 0.0
C1258 C 0.28399 0.12958 0.64543 0.0
H1259 H 0.28724 0.09918 0.69046 0.0
Co1260 Co 0.25164 0.13869 0.6825 0.0
C1261 C 0.21343 0.12823 0.64909 0.0
O1262 O 0.20324 0.11422 0.66334 0.0
N1263 N 0.22897 0.15461 0.69933 0.0
C1264 C 0.19793 0.17149 0.71369 0.0
C1265 C 0.20654 0.15893 0.69574 0.0
C1266 C 0.23358 0.16537 0.71922 0.0
N1267 N 0.21498 0.17535 0.72858 0.0
O1268 O 0.26395 0.16769 0.6735 0.0
H1269 H 0.19669 0.15352 0.68123 0.0
H1270 H 0.25035 0.1654 0.72696 0.0
O1271 O 0.23185 0.13845 0.65507 0.0
C1272 C 0.28088 0.17248 0.68634 0.0
O1273 O 0.28741 0.15711 0.70137 0.0
N1274 N 0.2411 0.10984 0.69394 0.0
C1275 C 0.23471 0.0679 0.71672 0.0
C1276 C 0.23597 0.0689 0.69272 0.0
C1277 C 0.23936 0.09 0.68167 0.0
C1278 C 0.24014 0.1089 0.71721 0.0
C1279 C 0.2363 0.08848 0.72877 0.0
H1280 H 0.24166 0.09026 0.66335 0.0
H1281 H 0.24364 0.12378 0.72733 0.0
H1282 H 0.27775 0.14356 0.63504 0.0
H1283 H 0.31903 0.0901 0.65956 0.0
H1284 H 0.18032 0.17674 0.71588 0.0
H1285 H 0.2354 0.05347 0.68256 0.0
H1286 H 0.23529 0.08891 0.74721 0.0
C1287 C 0.35874 0.4816 0.59172 0.0
C1288 C 0.35703 0.46507 0.60843 0.0
N1289 N 0.3725 0.4697 0.62479 0.0
N1290 N 0.3749 0.4969 0.59774 0.0
C1291 C 0.38297 0.4891 0.61795 0.0
H1292 H 0.3498 0.48162 0.57556 0.0
Co1293 Co 0.38832 0.52004 0.57984 0.0
C1294 C 0.37653 0.55802 0.61347 0.0
O1295 O 0.35971 0.56605 0.60102 0.0
N1296 N 0.40287 0.54279 0.56212 0.0
C1297 C 0.41541 0.57472 0.54557 0.0
C1298 C 0.40276 0.56586 0.56333 0.0
C1299 C 0.41592 0.53817 0.54366 0.0
N1300 N 0.42351 0.55721 0.53309 0.0
O1301 O 0.41801 0.50887 0.58839 0.0
H1302 H 0.39364 0.5759 0.57573 0.0
H1303 H 0.41912 0.52103 0.53757 0.0
O1304 O 0.38818 0.54081 0.60654 0.0
C1305 C 0.42255 0.4917 0.57575 0.0
O1306 O 0.40678 0.48478 0.56134 0.0
N1307 N 0.35894 0.52908 0.56842 0.0
C1308 C 0.31761 0.53527 0.5448 0.0
C1309 C 0.31779 0.53282 0.56867 0.0
C1310 C 0.33871 0.52969 0.58021 0.0
C1311 C 0.35851 0.53026 0.54511 0.0
C1312 C 0.33834 0.53405 0.53314 0.0
H1313 H 0.33858 0.52701 0.59848 0.0
H1314 H 0.37372 0.52708 0.53527 0.0
H1315 H 0.39734 0.49668 0.62677 0.0
H1316 H 0.34661 0.44981 0.60767 0.0
H1317 H 0.41754 0.59264 0.54156 0.0
H1318 H 0.30195 0.53301 0.57824 0.0
H1319 H 0.33885 0.53479 0.51465 0.0
C1320 C 0.84882 0.73901 0.60484 0.0
C1321 C 0.86529 0.72229 0.60268 0.0
N1322 N 0.87951 0.72364 0.62073 0.0
N1323 N 0.85271 0.75115 0.62403 0.0
C1324 C 0.87139 0.74116 0.63339 0.0
H1325 H 0.83455 0.74162 0.59341 0.0
Co1326 Co 0.83406 0.77379 0.63751 0.0
C1327 C 0.87948 0.7982 0.62969 0.0
O1328 O 0.88693 0.78312 0.61486 0.0
N1329 N 0.8153 0.79552 0.65137 0.0
C1330 C 0.79838 0.82711 0.66407 0.0
C1331 C 0.81631 0.81856 0.65132 0.0
C1332 C 0.79671 0.7905 0.664 0.0
N1333 N 0.78604 0.80935 0.67195 0.0
O1334 O 0.84206 0.76248 0.66731 0.0
H1335 H 0.82898 0.82853 0.64231 0.0
H1336 H 0.79106 0.77322 0.66722 0.0
O1337 O 0.85956 0.79597 0.63854 0.0
C1338 C 0.83058 0.7445 0.67181 0.0
O1339 O 0.81688 0.73647 0.65594 0.0
N1340 N 0.82355 0.78353 0.60854 0.0
C1341 C 0.80179 0.78954 0.56639 0.0
C1342 C 0.82483 0.79569 0.56932 0.0
C1343 C 0.83538 0.79283 0.5907 0.0
C1344 C 0.80111 0.77775 0.6059 0.0
C1345 C 0.78982 0.78095 0.58517 0.0
H1346 H 0.85313 0.79721 0.59244 0.0
H1347 H 0.79204 0.76977 0.61987 0.0
H1348 H 0.87856 0.74637 0.64958 0.0
H1349 H 0.86649 0.71 0.58895 0.0
H1350 H 0.79437 0.84497 0.66674 0.0
H1351 H 0.83469 0.8022 0.55508 0.0
H1352 H 0.77219 0.77557 0.58351 0.0
C1353 C 0.83837 0.29219 0.91586 0.0
C1354 C 0.85469 0.3092 0.9166 0.0
N1355 N 0.87009 0.30518 0.9 0.0
N1356 N 0.84374 0.27728 0.89912 0.0
C1357 C 0.86309 0.28575 0.88976 0.0
H1358 H 0.82302 0.29139 0.92612 0.0
Co1359 Co 0.82658 0.25295 0.88719 0.0
C1360 C 0.86133 0.21604 0.89636 0.0
O1361 O 0.84741 0.20583 0.91068 0.0
N1362 N 0.80944 0.22887 0.87387 0.0
C1363 C 0.79744 0.1976 0.85565 0.0
C1364 C 0.81533 0.20751 0.86718 0.0
C1365 C 0.78808 0.23158 0.86548 0.0
N1366 N 0.78027 0.2128 0.85467 0.0
O1367 O 0.8318 0.26464 0.85685 0.0
H1368 H 0.83179 0.1996 0.86925 0.0
H1369 H 0.7786 0.2474 0.86673 0.0
O1370 O 0.85482 0.2342 0.88595 0.0
C1371 C 0.81638 0.27983 0.85385 0.0
O1372 O 0.80277 0.28458 0.87108 0.0
N1373 N 0.81835 0.24343 0.91741 0.0
C1374 C 0.79979 0.23776 0.96135 0.0
C1375 C 0.82354 0.23993 0.95816 0.0
C1376 C 0.83249 0.24287 0.93604 0.0
C1377 C 0.79526 0.24196 0.92058 0.0
C1378 C 0.78575 0.23854 0.9421 0.0
H1379 H 0.85066 0.24561 0.93396 0.0
H1380 H 0.78371 0.24497 0.90667 0.0
H1381 H 0.87129 0.27841 0.87491 0.0
H1382 H 0.85437 0.3242 0.92741 0.0
H1383 H 0.79725 0.18063 0.84832 0.0
H1384 H 0.83502 0.23996 0.97266 0.0
H1385 H 0.76731 0.23807 0.94376 0.0
C1386 C 0.5364 0.92401 0.35686 0.0
C1387 C 0.55299 0.9074 0.35481 0.0
N1388 N 0.55172 0.89346 0.3731 0.0
N1389 N 0.52447 0.92053 0.37627 0.0
C1390 C 0.53439 0.90193 0.38585 0.0
H1391 H 0.53356 0.93795 0.34507 0.0
Co1392 Co 0.50134 0.93891 0.38931 0.0
C1393 C 0.47816 0.89306 0.38181 0.0
O1394 O 0.49225 0.88698 0.36544 0.0
N1395 N 0.4788 0.95731 0.40275 0.0
C1396 C 0.44635 0.97236 0.41577 0.0
C1397 C 0.45598 0.95415 0.40429 0.0
C1398 C 0.48255 0.9775 0.41318 0.0
N1399 N 0.46316 0.98706 0.42125 0.0
O1400 O 0.51358 0.93295 0.41917 0.0
H1401 H 0.4468 0.93976 0.39727 0.0
H1402 H 0.4993 0.98513 0.41479 0.0
O1403 O 0.4804 0.91256 0.39148 0.0
C1404 C 0.5298 0.94739 0.42135 0.0
O1405 O 0.53516 0.96001 0.40356 0.0
N1406 N 0.49105 0.94818 0.36024 0.0
C1407 C 0.48319 0.97141 0.31892 0.0
C1408 C 0.47613 0.94851 0.32195 0.0
C1409 C 0.47997 0.93725 0.3429 0.0
C1410 C 0.49781 0.97028 0.35759 0.0
C1411 C 0.4936 0.98227 0.33755 0.0
H1412 H 0.4744 0.91984 0.34476 0.0
H1413 H 0.50679 0.97876 0.37128 0.0
H1414 H 0.52916 0.89495 0.40213 0.0
H1415 H 0.56502 0.90575 0.34087 0.0
H1416 H 0.42835 0.97489 0.41922 0.0
H1417 H 0.46812 0.93912 0.30822 0.0
H1418 H 0.49864 1.00003 0.33691 0.0
C1419 C 0.17532 0.22666 0.9064 0.0
C1420 C 0.1583 0.21052 0.9083 0.0
N1421 N 0.14008 0.21747 0.89596 0.0
N1422 N 0.16791 0.24394 0.89313 0.0
C1423 C 0.14644 0.23788 0.88704 0.0
H1424 H 0.19243 0.22533 0.91326 0.0
Co1425 Co 0.1858 0.26761 0.88102 0.0
C1426 C 0.15101 0.30482 0.8924 0.0
O1427 O 0.16237 0.3125 0.9101 0.0
N1428 N 0.2038 0.2908 0.86777 0.0
C1429 C 0.22025 0.32291 0.85561 0.0
C1430 C 0.20224 0.31384 0.86781 0.0
C1431 C 0.22273 0.28639 0.85533 0.0
N1432 N 0.23321 0.30554 0.84792 0.0
O1433 O 0.17825 0.25732 0.85081 0.0
H1434 H 0.18928 0.32367 0.87644 0.0
H1435 H 0.22907 0.26931 0.85225 0.0
O1436 O 0.15891 0.28812 0.88067 0.0
C1437 C 0.19076 0.24024 0.84558 0.0
O1438 O 0.20484 0.23226 0.86116 0.0
N1439 N 0.19585 0.27594 0.91107 0.0
C1440 C 0.21666 0.27904 0.9543 0.0
C1441 C 0.19282 0.2766 0.95219 0.0
C1442 C 0.18276 0.27494 0.93043 0.0
C1443 C 0.21905 0.27792 0.9131 0.0
C1444 C 0.22965 0.28004 0.9343 0.0
H1445 H 0.16457 0.27192 0.92918 0.0
H1446 H 0.22994 0.27642 0.89837 0.0
H1447 H 0.13617 0.24788 0.87539 0.0
H1448 H 0.1599 0.1943 0.91702 0.0
H1449 H 0.22398 0.34088 0.85334 0.0
H1450 H 0.18211 0.27535 0.96721 0.0
H1451 H 0.24813 0.28091 0.93501 0.0
C1452 C 0.98185 0.1035 0.85317 0.0
C1453 C 0.96488 0.11986 0.85292 0.0
N1454 N 0.96341 0.12908 0.87389 0.0
N1455 N 0.99128 0.10241 0.87423 0.0
C1456 C 0.97962 0.11835 0.88636 0.0
H1457 H 0.98663 0.09297 0.83882 0.0
Co1458 Co 0.01464 0.08288 0.8858 0.0
C1459 C 0.03768 0.12854 0.88011 0.0
O1460 O 0.02483 0.13397 0.86254 0.0
N1461 N 0.0375 0.06387 0.89746 0.0
C1462 C 0.07097 0.04954 0.90847 0.0
C1463 C 0.06027 0.06769 0.89804 0.0
C1464 C 0.03484 0.04319 0.90732 0.0
N1465 N 0.05494 0.03413 0.91429 0.0
O1466 O 1.00247 0.08636 0.91625 0.0
H1467 H 0.06869 0.08261 0.89115 0.0
H1468 H 0.0184 0.03504 0.90955 0.0
O1469 O 0.03501 0.10922 0.88999 0.0
C1470 C 0.9855 0.07278 0.91824 0.0
O1471 O 0.9797 0.06054 0.90036 0.0
N1472 N 0.02509 0.07609 0.85618 0.0
C1473 C 0.03593 0.05516 0.81453 0.0
C1474 C 0.04764 0.07487 0.82183 0.0
C1475 C 0.04221 0.08494 0.843 0.0
C1476 C 0.01376 0.05696 0.84933 0.0
C1477 C 0.01877 0.04634 0.82867 0.0
H1478 H 0.05215 0.09928 0.84883 0.0
H1479 H 1.00065 0.04981 0.8602 0.0
H1480 H 0.98289 0.1221 0.90414 0.0
H1481 H 0.95387 0.12401 0.83865 0.0
H1482 H 0.08919 0.04761 0.91109 0.0
H1483 H 0.06126 0.08207 0.81158 0.0
H1484 H 1.00906 0.03139 0.82374 0.0
C1485 C 0.67176 0.282 0.11243 0.0
C1486 C 0.65569 0.2992 0.11124 0.0
N1487 N 0.64464 0.30019 0.13134 0.0
N1488 N 0.67065 0.27175 0.13311 0.0
C1489 C 0.65408 0.28354 0.14429 0.0
H1490 H 0.68377 0.27772 0.09909 0.0
Co1491 Co 0.68885 0.24735 0.14488 0.0
C1492 C 0.64208 0.2256 0.13773 0.0
O1493 O 0.63433 0.24194 0.12445 0.0
N1494 N 0.70664 0.22323 0.15682 0.0
C1495 C 0.72088 0.18853 0.16317 0.0
C1496 C 0.70477 0.20092 0.15134 0.0
C1497 C 0.72413 0.22396 0.1719 0.0
N1498 N 0.73312 0.20304 0.17617 0.0
O1499 O 0.6832 0.25795 0.17548 0.0
H1500 H 0.69273 0.1941 0.13911 0.0
H1501 H 0.73023 0.23959 0.17953 0.0
O1502 O 0.66239 0.22669 0.14575 0.0
C1503 C 0.69836 0.2734 0.17829 0.0
O1504 O 0.71147 0.27864 0.16082 0.0
N1505 N 0.69785 0.23858 0.11529 0.0
C1506 C 0.72073 0.23199 0.07362 0.0
C1507 C 0.69735 0.22634 0.07609 0.0
C1508 C 0.68622 0.22956 0.09722 0.0
C1509 C 0.7204 0.24391 0.11319 0.0
C1510 C 0.73218 0.24032 0.09292 0.0
H1511 H 0.6683 0.22551 0.09873 0.0
H1512 H 0.72943 0.2511 0.12759 0.0
H1513 H 0.64883 0.27995 0.16164 0.0
H1514 H 0.65297 0.3107 0.09701 0.0
H1515 H 0.72374 0.17033 0.16169 0.0
H1516 H 0.68754 0.22002 0.06178 0.0
H1517 H 0.75026 0.24414 0.0926 0.0
C1518 C 0.53954 0.08999 0.16095 0.0
C1519 C 0.55587 0.1066 0.16406 0.0
N1520 N 0.55068 0.12471 0.15072 0.0
N1521 N 0.52374 0.09758 0.14604 0.0
C1522 C 0.531 0.1187 0.14004 0.0
H1523 H 0.53955 0.07315 0.16857 0.0
Co1524 Co 0.49999 0.08032 0.13304 0.0
C1525 C 0.46062 0.11074 0.14496 0.0
O1526 O 0.45118 0.09387 0.15636 0.0
N1527 N 0.4769 0.0627 0.11864 0.0
C1528 C 0.44699 0.04979 0.09881 0.0
C1529 C 0.45589 0.0681 0.1106 0.0
C1530 C 0.48062 0.0414 0.11048 0.0
N1531 N 0.46259 0.03291 0.09888 0.0
O1532 O 0.51074 0.08864 0.10321 0.0
H1533 H 0.44769 0.08453 0.11198 0.0
H1534 H 0.49671 0.03249 0.11245 0.0
O1535 O 0.47954 0.10753 0.13435 0.0
C1536 C 0.52723 0.0752 0.09832 0.0
O1537 O 0.53362 0.06027 0.11384 0.0
N1538 N 0.49123 0.06973 0.16283 0.0
C1539 C 0.48653 0.05017 0.20641 0.0
C1540 C 0.48794 0.07398 0.2037 0.0
C1541 C 0.49032 0.08343 0.18177 0.0
C1542 C 0.49038 0.04655 0.1655 0.0
C1543 C 0.48743 0.03651 0.18689 0.0
H1544 H 0.49234 0.10172 0.18008 0.0
H1545 H 0.49347 0.03536 0.15135 0.0
H1546 H 0.52259 0.12888 0.12712 0.0
H1547 H 0.57064 0.10508 0.17504 0.0
H1548 H 0.43041 0.0491 0.09066 0.0
H1549 H 0.48782 0.08514 0.21844 0.0
H1550 H 0.48741 0.01805 0.18826 0.0
C1551 C 0.47804 0.42217 0.16686 0.0
C1552 C 0.46177 0.40582 0.17145 0.0
N1553 N 0.4642 0.3887 0.15632 0.0
N1554 N 0.49118 0.41523 0.14923 0.0
C1555 C 0.48206 0.39485 0.14296 0.0
H1556 H 0.4797 0.43842 0.17547 0.0
Co1557 Co 0.51456 0.43215 0.13466 0.0
C1558 C 0.55413 0.40071 0.1452 0.0
O1559 O 0.56468 0.41695 0.15651 0.0
N1560 N 0.53745 0.44926 0.11883 0.0
C1561 C 0.56771 0.46099 0.09867 0.0
C1562 C 0.55817 0.44308 0.11056 0.0
C1563 C 0.53451 0.4707 0.11056 0.0
N1564 N 0.55282 0.47849 0.09881 0.0
O1565 O 0.50267 0.4232 0.10555 0.0
H1566 H 0.56584 0.42642 0.11195 0.0
H1567 H 0.51881 0.48026 0.11249 0.0
O1568 O 0.53478 0.40483 0.13574 0.0
C1569 C 0.48705 0.43767 0.10074 0.0
O1570 O 0.48181 0.45307 0.11622 0.0
N1571 N 0.52446 0.44384 0.1636 0.0
C1572 C 0.53207 0.46729 0.20497 0.0
C1573 C 0.53255 0.4432 0.20405 0.0
C1574 C 0.52842 0.43179 0.18326 0.0
C1575 C 0.52296 0.46706 0.16465 0.0
C1576 C 0.52746 0.47903 0.18465 0.0
H1577 H 0.52765 0.41333 0.18312 0.0
H1578 H 0.51706 0.47666 0.15021 0.0
H1579 H 0.48807 0.38494 0.12856 0.0
H1580 H 0.44847 0.40692 0.18426 0.0
H1581 H 0.58431 0.46101 0.09054 0.0
H1582 H 0.53527 0.43318 0.21935 0.0
H1583 H 0.52681 0.4975 0.18405 0.0
H1584 H 0.21387 0.18641 0.28965 0.0
H1585 H 0.24376 0.20695 0.35375 0.0
H1586 H 0.22301 0.24337 0.35173 0.0
H1587 H 0.1963 0.26923 0.33148 0.0
H1588 H 0.16696 0.2478 0.2674 0.0
H1589 H 0.18786 0.21186 0.26959 0.0
C1590 C 0.21588 0.19877 0.30328 0.0
C1591 C 0.23028 0.1939 0.3219 0.0
C1592 C 0.20407 0.21955 0.30192 0.0
C1593 C 0.23277 0.21026 0.33925 0.0
C1594 C 0.2209 0.23106 0.33809 0.0
C1595 C 0.19437 0.25663 0.31809 0.0
C1596 C 0.18005 0.26127 0.29927 0.0
C1597 C 0.20646 0.23587 0.31949 0.0
C1598 C 0.17804 0.24487 0.28189 0.0
C1599 C 0.18989 0.22422 0.28321 0.0
H1600 H 0.43846 0.55617 0.97385 0.0
H1601 H 0.46057 0.52213 0.91237 0.0
H1602 H 0.49806 0.54084 0.91551 0.0
H1603 H 0.5242 0.56733 0.93586 0.0
H1604 H 0.50069 0.60094 0.99713 0.0
H1605 H 0.46403 0.58167 0.994 0.0
C1606 C 0.45139 0.55279 0.961 0.0
C1607 C 0.44664 0.53788 0.94277 0.0
C1608 C 0.47267 0.56348 0.96297 0.0
C1609 C 0.46377 0.53356 0.92653 0.0
C1610 C 0.48517 0.54428 0.92834 0.0
C1611 C 0.51101 0.57053 0.94844 0.0
C1612 C 0.5153 0.58561 0.96676 0.0
C1613 C 0.48976 0.55939 0.94647 0.0
C1614 C 0.49808 0.58925 0.98308 0.0
C1615 C 0.47701 0.57834 0.98121 0.0
H1616 H 0.84287 0.26378 0.28549 0.0
H1617 H 0.82561 0.2363 0.35159 0.0
H1618 H 0.80305 0.27044 0.36011 0.0
H1619 H 0.78856 0.30891 0.34879 0.0
H1620 H 0.80642 0.33495 0.28209 0.0
H1621 H 0.82784 0.3006 0.27385 0.0
C1622 C 0.83396 0.26499 0.30165 0.0
C1623 C 0.83607 0.24736 0.3178 0.0
C1624 C 0.82098 0.28459 0.30642 0.0
C1625 C 0.82461 0.24966 0.33886 0.0
C1626 C 0.81157 0.26918 0.34373 0.0
C1627 C 0.79707 0.30696 0.33247 0.0
C1628 C 0.79592 0.32469 0.31624 0.0
C1629 C 0.80971 0.2869 0.32767 0.0
C1630 C 0.80709 0.32182 0.29511 0.0
C1631 C 0.81939 0.30208 0.29026 0.0
H1632 H 0.50255 0.9439 0.9343 0.0
H1633 H 0.52251 0.91147 0.99743 0.0
H1634 H 0.55922 0.93098 0.99615 0.0
H1635 H 0.5858 0.95666 0.97714 0.0
H1636 H 0.56673 0.98967 0.91406 0.0
H1637 H 0.52955 0.97028 0.91514 0.0
C1638 C 0.51499 0.94101 0.94769 0.0
C1639 C 0.50968 0.92622 0.96598 0.0
C1640 C 0.53623 0.95229 0.94681 0.0
C1641 C 0.52591 0.92296 0.98336 0.0
C1642 C 0.54701 0.934 0.98255 0.0
C1643 C 0.5736 0.95963 0.96352 0.0
C1644 C 0.57911 0.97453 0.94547 0.0
C1645 C 0.55235 0.94863 0.96437 0.0
C1646 C 0.56294 0.97827 0.92814 0.0
C1647 C 0.54169 0.96718 0.92876 0.0
H1648 H 0.1929 0.75168 0.18494 0.0
H1649 H 0.16474 0.77114 0.25018 0.0
H1650 H 0.18552 0.80715 0.24872 0.0
H1651 H 0.21126 0.83315 0.22907 0.0
H1652 H 0.24027 0.81449 0.16397 0.0
H1653 H 0.21945 0.7781 0.16512 0.0
C1654 C 0.19123 0.76389 0.19874 0.0
C1655 C 0.17729 0.75867 0.21768 0.0
C1656 C 0.20333 0.78466 0.1978 0.0
C1657 C 0.17555 0.77454 0.23558 0.0
C1658 C 0.18733 0.79521 0.23469 0.0
C1659 C 0.21305 0.82121 0.21503 0.0
C1660 C 0.22723 0.8266 0.19639 0.0
C1661 C 0.20123 0.80043 0.21591 0.0
C1662 C 0.22946 0.81076 0.17851 0.0
C1663 C 0.21754 0.78998 0.17917 0.0
H1664 H 0.06062 0.53684 0.09345 0.0
H1665 H 0.08693 0.5519 0.02624 0.0
H1666 H 0.05227 0.57255 0.01674 0.0
H1667 H 0.01556 0.58869 0.02798 0.0
H1668 H 0.98856 0.57474 0.095 0.0
H1669 H 0.02215 0.55154 0.10403 0.0
C1670 C 0.0586 0.54448 0.0767 0.0
C1671 C 0.07651 0.543 0.06074 0.0
C1672 C 0.03851 0.55675 0.07128 0.0
C1673 C 0.07363 0.55301 0.03906 0.0
C1674 C 0.05373 0.56483 0.0335 0.0
C1675 C 0.01677 0.58026 0.04441 0.0
C1676 C 0.99957 0.58361 0.06078 0.0
C1677 C 0.03621 0.56714 0.04957 0.0
C1678 C 1.0017 0.57275 0.08215 0.0
C1679 C 0.0209 0.5594 0.08732 0.0
H1680 H 0.8176 0.68546 0.22703 0.0
H1681 H 0.77995 0.70805 0.16784 0.0
H1682 H 0.79895 0.74538 0.16994 0.0
H1683 H 0.82638 0.7715 0.18889 0.0
H1684 H 0.86325 0.74814 0.24828 0.0
H1685 H 0.84424 0.71118 0.2459 0.0
C1686 C 0.81352 0.69848 0.21449 0.0
C1687 C 0.79743 0.69391 0.19722 0.0
C1688 C 0.82433 0.71979 0.21592 0.0
C1689 C 0.79225 0.71112 0.1813 0.0
C1690 C 0.80314 0.73244 0.1825 0.0
C1691 C 0.83036 0.75826 0.20119 0.0
C1692 C 0.84627 0.76263 0.21876 0.0
C1693 C 0.81926 0.73695 0.19974 0.0
C1694 C 0.85093 0.74538 0.23478 0.0
C1695 C 0.84015 0.72418 0.23335 0.0
H1696 H 0.02899 0.95855 0.08308 0.0
H1697 H 1.00256 0.91701 0.0281 0.0
H1698 H 0.96486 0.93325 0.03374 0.0
H1699 H 0.93987 0.96073 0.0522 0.0
H1700 H 0.96558 1.00413 0.10587 0.0
H1701 H 1.00323 0.98576 0.1026 0.0
C1702 C 0.01509 0.95308 0.07221 0.0
C1703 C 0.01898 0.93656 0.05501 0.0
C1704 C 0.99331 0.96294 0.07519 0.0
C1705 C 1.00038 0.92942 0.04157 0.0
C1706 C 0.97871 0.93888 0.04466 0.0
C1707 C 0.95362 0.96623 0.06332 0.0
C1708 C 0.94992 0.98395 0.07917 0.0
C1709 C 0.97509 0.95586 0.06113 0.0
C1710 C 0.96796 0.99059 0.0935 0.0
C1711 C 0.98948 0.98011 0.09158 0.0
H1712 H 0.28771 0.17898 0.25081 0.0
H1713 H 0.35272 0.1975 0.27991 0.0
H1714 H 0.36231 0.21914 0.24541 0.0
H1715 H 0.35222 0.23236 0.20615 0.0
H1716 H 0.28678 0.2126 0.17825 0.0
H1717 H 0.27746 0.19235 0.21296 0.0
C1718 C 0.30383 0.18801 0.24982 0.0
C1719 C 0.31938 0.1866 0.26801 0.0
C1720 C 0.30928 0.20025 0.22995 0.0
C1721 C 0.34046 0.19809 0.2661 0.0
C1722 C 0.34594 0.21055 0.24637 0.0
C1723 C 0.33595 0.22365 0.20775 0.0
C1724 C 0.32038 0.224 0.18941 0.0
C1725 C 0.33053 0.21165 0.22803 0.0
C1726 C 0.29932 0.21258 0.19185 0.0
C1727 C 0.29383 0.20095 0.21181 0.0
H1728 H 0.44384 0.43072 1.00174 0.0
H1729 H 0.41833 0.49704 0.02152 0.0
H1730 H 0.43777 0.49382 0.05813 0.0
H1731 H 0.46131 0.47226 0.08467 0.0
H1732 H 0.48768 0.40603 0.06582 0.0
H1733 H 0.4684 0.40902 0.02867 0.0
C1734 C 0.44246 0.44439 0.01413 0.0
C1735 C 0.42961 0.46413 1.00883 0.0
C1736 C 0.45373 0.44241 0.03528 0.0
C1737 C 0.42829 0.48184 0.02495 0.0
C1738 C 0.43929 0.47993 0.04598 0.0
C1739 C 0.46285 0.45835 0.07253 0.0
C1740 C 0.4758 0.43884 0.0781 0.0
C1741 C 0.45196 0.4603 0.05133 0.0
C1742 C 0.47778 0.4212 0.06198 0.0
C1743 C 0.46675 0.42292 0.04076 0.0
H1744 H 0.73886 0.32807 0.26053 0.0
H1745 H 0.66873 0.32623 0.28346 0.0
H1746 H 0.65853 0.30263 0.2507 0.0
H1747 H 0.66933 0.28395 0.21396 0.0
H1748 H 0.7399 0.28629 0.19258 0.0
H1749 H 0.75006 0.3076 0.22659 0.0
C1750 C 0.72138 0.32233 0.25882 0.0
C1751 C 0.70467 0.32932 0.27462 0.0
C1752 C 0.71562 0.30865 0.24005 0.0
C1753 C 0.68204 0.32163 0.2715 0.0
C1754 C 0.67615 0.30794 0.25276 0.0
C1755 C 0.68693 0.28887 0.21702 0.0
C1756 C 0.70377 0.28375 0.20065 0.0
C1757 C 0.69275 0.30156 0.2367 0.0
C1758 C 0.72652 0.2903 0.20474 0.0
C1759 C 0.73241 0.3025 0.22422 0.0
H1760 H 0.56468 0.08053 0.9969 0.0
H1761 H 0.61008 0.02903 0.02406 0.0
H1762 H 0.5917 0.03208 0.06114 0.0
H1763 H 0.56299 0.04897 0.08584 0.0
H1764 H 0.51729 0.10076 0.05992 0.0
H1765 H 0.53591 0.09832 0.02241 0.0
C1766 C 0.57069 0.07011 0.01095 0.0
C1767 C 0.58872 0.05441 1.00749 0.0
C1768 C 0.56008 0.07208 0.03247 0.0
C1769 C 0.59603 0.0409 0.02595 0.0
C1770 C 0.58563 0.04277 0.04728 0.0
C1771 C 0.55703 0.05984 0.07207 0.0
C1772 C 0.5387 0.07502 0.07572 0.0
C1773 C 0.56764 0.05822 0.0507 0.0
C1774 C 0.53136 0.08895 0.0576 0.0
C1775 C 0.54198 0.0875 0.03615 0.0
H1776 H 0.30572 0.81212 0.33389 0.0
H1777 H 0.3566 0.76541 0.30804 0.0
H1778 H 0.35415 0.78376 0.27034 0.0
H1779 H 0.33627 0.81249 0.24453 0.0
H1780 H 0.28542 0.85849 0.27183 0.0
H1781 H 0.28895 0.84069 0.30912 0.0
C1782 C 0.3164 0.80587 0.3201 0.0
C1783 C 0.33129 0.78733 0.32382 0.0
C1784 C 0.31472 0.81627 0.29864 0.0
C1785 C 0.345 0.77965 0.30567 0.0
C1786 C 0.34354 0.79011 0.28411 0.0
C1787 C 0.32611 0.8187 0.25869 0.0
C1788 C 0.31038 0.8367 0.2552 0.0
C1789 C 0.32829 0.80836 0.28035 0.0
C1790 C 0.29726 0.84441 0.27377 0.0
C1791 C 0.2994 0.83435 0.29521 0.0
H1792 H 0.06475 0.46665 0.92983 0.0
H1793 H 0.01795 0.4164 0.95665 0.0
H1794 H 0.03673 0.41882 0.99403 0.0
H1795 H 0.0657 0.43653 0.01931 0.0
H1796 H 0.1117 0.48702 0.99156 0.0
H1797 H 0.09372 0.48336 0.95428 0.0
C1798 C 0.05863 0.45609 0.94377 0.0
C1799 C 0.03992 0.4414 0.94045 0.0
C1800 C 0.06926 0.45779 0.96509 0.0
C1801 C 0.03231 0.42787 0.95876 0.0
C1802 C 0.04302 0.42929 0.98012 0.0
C1803 C 0.0719 0.44655 1.00504 0.0
C1804 C 0.08993 0.46217 1.00829 0.0
C1805 C 0.0614 0.44437 0.98353 0.0
C1806 C 0.09761 0.4752 0.98966 0.0
C1807 C 0.08744 0.47301 0.96829 0.0
H1808 H 0.68896 0.69736 0.25178 0.0
H1809 H 0.75129 0.66558 0.27519 0.0
H1810 H 0.74961 0.68759 0.31038 0.0
H1811 H 0.73069 0.71549 0.33452 0.0
H1812 H 0.6683 0.74792 0.31222 0.0
H1813 H 0.66968 0.72593 0.27653 0.0
C1814 C 0.70204 0.69515 0.26468 0.0
C1815 C 0.72029 0.67986 0.26079 0.0
C1816 C 0.70098 0.70797 0.28501 0.0
C1817 C 0.73728 0.67742 0.27756 0.0
C1818 C 0.73626 0.68993 0.29776 0.0
C1819 C 0.7173 0.71782 0.32192 0.0
C1820 C 0.69938 0.73332 0.32606 0.0
C1821 C 0.71825 0.70524 0.30163 0.0
C1822 C 0.68232 0.73615 0.30942 0.0
C1823 C 0.68309 0.72353 0.28907 0.0
H1824 H 0.91941 0.04694 0.99954 0.0
H1825 H 0.96728 0.08801 0.03744 0.0
H1826 H 0.98893 0.09562 1.00262 0.0
H1827 H 0.99464 0.09017 0.96102 0.0
H1828 H 0.94637 0.04871 0.92377 0.0
H1829 H 0.92481 0.04175 0.95845 0.0
C1830 C 0.93468 0.05739 1.00022 0.0
C1831 C 0.94162 0.06685 0.02112 0.0
C1832 C 0.94708 0.06172 0.98011 0.0
C1833 C 0.96131 0.08069 0.02158 0.0
C1834 C 0.97381 0.08499 1.00164 0.0
C1835 C 0.97936 0.07973 0.96051 0.0
C1836 C 0.97229 0.06997 0.93973 0.0
C1837 C 0.96686 0.07562 0.98074 0.0
C1838 C 0.9524 0.05642 0.93945 0.0
C1839 C 0.93996 0.05236 0.95934 0.0
H1840 H 0.27613 0.32358 0.20944 0.0
H1841 H 0.24802 0.29677 0.14678 0.0
H1842 H 0.20949 0.30342 0.16095 0.0
H1843 H 0.18371 0.31515 0.19156 0.0
H1844 H 0.21113 0.34263 0.25412 0.0
H1845 H 0.25003 0.33799 0.23926 0.0
C1846 C 0.26164 0.31946 0.19871 0.0
C1847 C 0.26514 0.30933 0.17713 0.0
C1848 C 0.23938 0.32352 0.20692 0.0
C1849 C 0.24598 0.30404 0.16364 0.0
C1850 C 0.22387 0.308 0.17166 0.0
C1851 C 0.19817 0.32029 0.20194 0.0
C1852 C 0.19453 0.32906 0.224 0.0
C1853 C 0.22038 0.31742 0.19337 0.0
C1854 C 0.21346 0.33586 0.23708 0.0
C1855 C 0.23571 0.33309 0.22862 0.0
H1856 H 0.18603 0.71721 0.31553 0.0
H1857 H 0.20807 0.66433 0.2692 0.0
H1858 H 0.24667 0.66594 0.28558 0.0
H1859 H 0.27426 0.68302 0.313 0.0
H1860 H 0.25099 0.73603 0.35866 0.0
H1861 H 0.21284 0.73384 0.34241 0.0
C1862 C 0.19918 0.70591 0.30898 0.0
C1863 C 0.1941 0.69062 0.29117 0.0
C1864 C 0.22122 0.70709 0.31829 0.0
C1865 C 0.2115 0.67626 0.2829 0.0
C1866 C 0.23357 0.67719 0.29227 0.0
C1867 C 0.26079 0.69399 0.31943 0.0
C1868 C 0.26563 0.70983 0.33694 0.0
C1869 C 0.23866 0.69262 0.30996 0.0
C1870 C 0.24797 0.72403 0.34494 0.0
C1871 C 0.22605 0.72267 0.33577 0.0
H1872 H 0.93062 0.50112 0.94861 0.0
H1873 H 0.99372 0.51925 0.91497 0.0
H1874 H 0.9929 0.55665 0.93288 0.0
H1875 H 0.97445 0.58436 0.95751 0.0
H1876 H 0.91148 0.5675 0.99192 0.0
H1877 H 0.91191 0.52951 0.97408 0.0
C1878 C 0.94412 0.51331 0.94517 0.0
C1879 C 0.9623 0.50722 0.93055 0.0
C1880 C 0.94351 0.53503 0.95555 0.0
C1881 C 0.97977 0.52318 0.92644 0.0
C1882 C 0.97922 0.54471 0.93654 0.0
C1883 C 0.9607 0.57248 0.96113 0.0
C1884 C 0.94288 0.57883 0.97596 0.0
C1885 C 0.9612 0.5508 0.95106 0.0
C1886 C 0.92538 0.56306 0.98054 0.0
C1887 C 0.92564 0.54135 0.97035 0.0
H1888 H 0.81577 0.85413 0.28909 0.0
H1889 H 0.84267 0.78734 0.30523 0.0
H1890 H 0.80801 0.77783 0.3259 0.0
H1891 H 0.77098 0.7888 0.34127 0.0
H1892 H 0.74328 0.85541 0.32634 0.0
H1893 H 0.77717 0.86468 0.30368 0.0
C1894 C 0.81386 0.83747 0.29697 0.0
C1895 C 0.83187 0.82157 0.29574 0.0
C1896 C 0.7938 0.83209 0.30929 0.0
C1897 C 0.82922 0.80005 0.30613 0.0
C1898 C 0.80935 0.79451 0.31796 0.0
C1899 C 0.77212 0.80522 0.3328 0.0
C1900 C 0.75455 0.82134 0.33559 0.0
C1901 C 0.79167 0.81046 0.31992 0.0
C1902 C 0.75665 0.84273 0.32476 0.0
C1903 C 0.77601 0.84803 0.31168 0.0
H1904 H 0.58678 0.52612 0.45522 0.0
H1905 H 0.53421 0.50062 0.41026 0.0
H1906 H 0.53738 0.46296 0.42751 0.0
H1907 H 0.55489 0.43718 0.45492 0.0
H1908 H 0.60749 0.46151 0.50041 0.0
H1909 H 0.60475 0.49966 0.48311 0.0
C1910 C 0.57612 0.5123 0.44911 0.0
C1911 C 0.56015 0.51637 0.43148 0.0
C1912 C 0.57811 0.49045 0.4591 0.0
C1913 C 0.54632 0.49823 0.42401 0.0
C1914 C 0.54825 0.47657 0.43376 0.0
C1915 C 0.56589 0.45073 0.4611 0.0
C1916 C 0.58144 0.44641 0.47894 0.0
C1917 C 0.56406 0.4725 0.45127 0.0
C1918 C 0.5954 0.46433 0.48669 0.0
C1919 C 0.5938 0.48614 0.47681 0.0
H1920 H 0.26403 0.73769 0.68495 0.0
H1921 H 0.2447 0.66657 0.68653 0.0
H1922 H 0.27784 0.65786 0.71032 0.0
H1923 H 0.31362 0.67041 0.72965 0.0
H1924 H 0.33145 0.74196 0.72775 0.0
H1925 H 0.2974 0.75045 0.70574 0.0
C1926 C 0.26668 0.72032 0.69071 0.0
C1927 C 0.25176 0.70289 0.68367 0.0
C1928 C 0.28566 0.71542 0.70451 0.0
C1929 C 0.256 0.6804 0.69123 0.0
C1930 C 0.27493 0.67537 0.70502 0.0
C1931 C 0.30982 0.68784 0.72463 0.0
C1932 C 0.3252 0.70545 0.73017 0.0
C1933 C 0.29008 0.69273 0.7116 0.0
C1934 C 0.3201 0.72798 0.72348 0.0
C1935 C 0.30058 0.73293 0.71087 0.0
H1936 H 0.9303 0.52136 0.56962 0.0
H1937 H 0.99358 0.49997 0.60099 0.0
H1938 H 0.99203 0.46397 0.58042 0.0
H1939 H 0.9729 0.43836 0.55425 0.0
H1940 H 0.90953 0.45823 0.52221 0.0
H1941 H 0.91088 0.49506 0.54238 0.0
C1942 C 0.94366 0.50875 0.57201 0.0
C1943 C 0.96212 0.51351 0.58682 0.0
C1944 C 0.94265 0.48785 0.56005 0.0
C1945 C 0.97941 0.49704 0.5895 0.0
C1946 C 0.97847 0.47633 0.57783 0.0
C1947 C 0.95926 0.45065 0.5516 0.0
C1948 C 0.94105 0.44545 0.5368 0.0
C1949 C 0.9602 0.47157 0.56314 0.0
C1950 C 0.92374 0.46178 0.5335 0.0
C1951 C 0.92451 0.4828 0.54508 0.0
H1952 H 0.09049 1.00369 0.56855 0.0
H1953 H 0.02745 0.02614 0.59967 0.0
H1954 H 0.02807 0.06074 0.57673 0.0
H1955 H 0.0463 0.08485 0.54845 0.0
H1956 H 0.10954 0.06393 0.51683 0.0
H1957 H 0.10909 0.02848 0.5394 0.0
C1958 C 0.07699 0.01624 0.5704 0.0
C1959 C 0.05887 0.01217 0.58583 0.0
C1960 C 0.07747 0.03633 0.55708 0.0
C1961 C 0.04138 0.02854 0.58777 0.0
C1962 C 0.04179 0.04845 0.57472 0.0
C1963 C 0.06008 0.07261 0.5464 0.0
C1964 C 0.07799 0.07711 0.53097 0.0
C1965 C 0.0597 0.0525 0.55937 0.0
C1966 C 0.09553 0.06088 0.52852 0.0
C1967 C 0.09529 0.04066 0.54149 0.0
H1968 H 0.73062 0.70781 0.85678 0.0
H1969 H 0.74048 0.69779 0.78453 0.0
H1970 H 0.71966 0.73285 0.77631 0.0
H1971 H 0.69587 0.76421 0.7891 0.0
H1972 H 0.68514 0.77501 0.86129 0.0
H1973 H 0.70878 0.74194 0.86987 0.0
C1974 C 0.72858 0.71365 0.83933 0.0
C1975 C 0.73701 0.70022 0.82129 0.0
C1976 C 0.71601 0.73377 0.83459 0.0
C1977 C 0.73402 0.70779 0.79871 0.0
C1978 C 0.72205 0.72782 0.79396 0.0
C1979 C 0.69871 0.75973 0.80678 0.0
C1980 C 0.68809 0.77229 0.82435 0.0
C1981 C 0.71245 0.74063 0.81171 0.0
C1982 C 0.69245 0.76571 0.84715 0.0
C1983 C 0.70619 0.74672 0.85218 0.0
H1984 H 0.95716 0.03903 0.4214 0.0
H1985 H 0.9267 0.07354 0.47909 0.0
H1986 H 0.9613 0.09536 0.48488 0.0
H1987 H 1.0004 0.10484 0.47425 0.0
H1988 H 0.03177 0.07162 0.41661 0.0
H1989 H 0.99685 0.04949 0.41005 0.0
C1990 C 0.95811 0.05138 0.43515 0.0
C1991 C 0.93923 0.05445 0.44976 0.0
C1992 C 0.97831 0.06421 0.43848 0.0
C1993 C 0.94083 0.07064 0.46749 0.0
C1994 C 0.9607 0.08322 0.47092 0.0
C1995 C 0.99968 0.09263 0.46037 0.0
C1996 C 0.01873 0.08982 0.44607 0.0
C1997 C 0.97958 0.08009 0.45665 0.0
C1998 C 0.0173 0.07424 0.42782 0.0
C1999 C 0.99735 0.0615 0.42411 0.0
H2000 H 0.32284 0.83943 0.81738 0.0
H2001 H 0.26096 0.81032 0.84484 0.0
H2002 H 0.2776 0.77196 0.84181 0.0
H2003 H 0.30843 0.74685 0.82822 0.0
H2004 H 0.37053 0.77649 0.80146 0.0
H2005 H 0.35484 0.81463 0.80708 0.0
C2006 C 0.31302 0.82471 0.82289 0.0
C2007 C 0.29061 0.82765 0.83109 0.0
C2008 C 0.32261 0.80284 0.82093 0.0
C2009 C 0.27825 0.80848 0.83848 0.0
C2010 C 0.28772 0.78656 0.83661 0.0
C2011 C 0.31879 0.76154 0.82394 0.0
C2012 C 0.34062 0.75859 0.81404 0.0
C2013 C 0.30972 0.78353 0.8274 0.0
C2014 C 0.35353 0.77809 0.80855 0.0
C2015 C 0.34462 0.79996 0.81191 0.0
H2016 H 0.01169 0.43289 0.48495 0.0
H2017 H 0.98928 0.43825 0.41498 0.0
H2018 H 0.02305 0.46086 0.40569 0.0
H2019 H 0.0604 0.47786 0.41723 0.0
H2020 H 0.08136 0.4721 0.48765 0.0
H2021 H 0.04658 0.45159 0.49691 0.0
C2022 C 0.01382 0.43922 0.46773 0.0
C2023 C 0.99782 0.43353 0.45076 0.0
C2024 C 0.0332 0.45233 0.46249 0.0
C2025 C 1.00138 0.44186 0.42844 0.0
C2026 C 0.0207 0.45499 0.42308 0.0
C2027 C 0.05711 0.47236 0.4346 0.0
C2028 C 0.07359 0.4763 0.45163 0.0
C2029 C 0.03694 0.46014 0.43992 0.0
C2030 C 0.06915 0.46901 0.47409 0.0
C2031 C 0.04921 0.45726 0.47948 0.0
H2032 H 0.71318 0.33161 0.72954 0.0
H2033 H 0.74569 0.31233 0.66631 0.0
H2034 H 0.72495 0.27583 0.66681 0.0
H2035 H 0.69713 0.24961 0.68542 0.0
H2036 H 0.66544 0.27002 0.74874 0.0
H2037 H 0.68644 0.30587 0.74803 0.0
C2038 C 0.71579 0.3195 0.71577 0.0
C2039 C 0.7309 0.32477 0.69783 0.0
C2040 C 0.70395 0.29871 0.71625 0.0
C2041 C 0.73417 0.3087 0.68032 0.0
C2042 C 0.72227 0.28787 0.6806 0.0
C2043 C 0.69477 0.26198 0.69896 0.0
C2044 C 0.67974 0.25704 0.71717 0.0
C2045 C 0.70701 0.28273 0.69846 0.0
C2046 C 0.67709 0.27316 0.73474 0.0
C2047 C 0.689 0.29376 0.73427 0.0
H2048 H 0.58149 0.06088 0.55212 0.0
H2049 H 0.55614 0.01633 0.60507 0.0
H2050 H 0.51893 0.03588 0.60359 0.0
H2051 H 0.49353 0.06538 0.58638 0.0
H2052 H 0.52038 0.10931 0.53356 0.0
H2053 H 0.55707 0.08996 0.53573 0.0
C2054 C 0.56792 0.05534 0.56345 0.0
C2055 C 0.57165 0.03709 0.57869 0.0
C2056 C 0.54677 0.06648 0.56239 0.0
C2057 C 0.55376 0.03031 0.59318 0.0
C2058 C 0.53249 0.04148 0.5923 0.0
C2059 C 0.50746 0.07081 0.57548 0.0
C2060 C 0.50403 0.08873 0.55966 0.0
C2061 C 0.52877 0.05957 0.57687 0.0
C2062 C 0.52228 0.09536 0.54554 0.0
C2063 C 0.54338 0.0844 0.54688 0.0
H2064 H 0.31805 0.27403 0.67841 0.0
H2065 H 0.35704 0.25084 0.73652 0.0
H2066 H 0.33973 0.21322 0.73364 0.0
H2067 H 0.31347 0.18706 0.71528 0.0
H2068 H 0.27337 0.20908 0.6575 0.0
H2069 H 0.29139 0.24693 0.65936 0.0
C2070 C 0.32279 0.26067 0.69032 0.0
C2071 C 0.33866 0.26536 0.70782 0.0
C2072 C 0.31266 0.23888 0.68859 0.0
C2073 C 0.34455 0.2479 0.72322 0.0
C2074 C 0.33479 0.22629 0.72148 0.0
C2075 C 0.30866 0.20003 0.70295 0.0
C2076 C 0.29209 0.1952 0.68624 0.0
C2077 C 0.31878 0.22164 0.70434 0.0
C2078 C 0.28609 0.21234 0.67052 0.0
C2079 C 0.29636 0.23398 0.67162 0.0
H2080 H 0.52163 0.44889 0.58621 0.0
H2081 H 0.5015 0.41806 0.52242 0.0
H2082 H 0.46488 0.43773 0.52411 0.0
H2083 H 0.43848 0.46312 0.54355 0.0
H2084 H 0.4576 0.49498 0.60711 0.0
H2085 H 0.49474 0.47535 0.60577 0.0
C2086 C 0.50915 0.44643 0.57277 0.0
C2087 C 0.51437 0.43205 0.55416 0.0
C2088 C 0.48799 0.45791 0.57384 0.0
C2089 C 0.49813 0.42925 0.53673 0.0
C2090 C 0.47709 0.44038 0.53776 0.0
C2091 C 0.45068 0.46578 0.55723 0.0
C2092 C 0.44521 0.48039 0.5755 0.0
C2093 C 0.47186 0.45468 0.55621 0.0
C2094 C 0.4614 0.48381 0.59286 0.0
C2095 C 0.48259 0.47257 0.5921 0.0
H2096 H 0.83628 0.70987 0.77422 0.0
H2097 H 0.79075 0.6589 0.74664 0.0
H2098 H 0.79369 0.67627 0.709 0.0
H2099 H 0.80829 0.70609 0.6841 0.0
H2100 H 0.85375 0.75763 0.71065 0.0
H2101 H 0.85207 0.73961 0.74847 0.0
C2102 C 0.8272 0.70244 0.75993 0.0
C2103 C 0.81313 0.68316 0.76337 0.0
C2104 C 0.82898 0.71257 0.73816 0.0
C2105 C 0.80132 0.67393 0.74464 0.0
C2106 C 0.80311 0.68377 0.72305 0.0
C2107 C 0.81796 0.71343 0.69808 0.0
C2108 C 0.83108 0.73326 0.69452 0.0
C2109 C 0.81673 0.70316 0.71966 0.0
C2110 C 0.84352 0.74238 0.71289 0.0
C2111 C 0.8425 0.73211 0.73453 0.0
H2112 H 0.95923 0.97529 0.58625 0.0
H2113 H 1.00377 0.92222 0.56097 0.0
H2114 H 0.98607 0.92546 0.52311 0.0
H2115 H 0.95811 0.94402 0.49718 0.0
H2116 H 0.9142 0.99712 0.52358 0.0
H2117 H 0.93179 0.99341 0.56098 0.0
C2118 C 0.96509 0.9643 0.57254 0.0
C2119 C 0.98277 0.94847 0.57648 0.0
C2120 C 0.95507 0.96643 0.55095 0.0
C2121 C 0.99016 0.93452 0.55841 0.0
C2122 C 0.98006 0.9364 0.53677 0.0
C2123 C 0.95234 0.95468 0.51116 0.0
C2124 C 0.93493 0.97096 0.50745 0.0
C2125 C 0.96253 0.95238 0.53283 0.0
C2126 C 0.92782 0.98478 0.52573 0.0
C2127 C 0.93774 0.98254 0.54723 0.0
H2128 H 0.2208 0.8141 0.68405 0.0
H2129 H 0.1699 0.76737 0.70973 0.0
H2130 H 0.17186 0.78585 0.74728 0.0
H2131 H 0.18871 0.81497 0.77279 0.0
H2132 H 0.23919 0.86165 0.74602 0.0
H2133 H 0.23694 0.84314 0.70892 0.0
C2134 C 0.21005 0.80789 0.69779 0.0
C2135 C 0.19522 0.78933 0.69406 0.0
C2136 C 0.21134 0.81849 0.71919 0.0
C2137 C 0.18144 0.78163 0.71213 0.0
C2138 C 0.1826 0.79217 0.73359 0.0
C2139 C 0.19908 0.82125 0.75883 0.0
C2140 C 0.21422 0.83969 0.76237 0.0
C2141 C 0.19756 0.8106 0.73733 0.0
C2142 C 0.22771 0.84731 0.74403 0.0
C2143 C 0.22631 0.83683 0.7227 0.0
H2144 H 0.06576 0.58304 0.49702 0.0
H2145 H 0.10673 0.52755 0.52321 0.0
H2146 H 0.08873 0.53142 0.56044 0.0
H2147 H 0.06154 0.55011 0.58539 0.0
H2148 H 0.01969 0.60543 0.56026 0.0
H2149 H 0.03811 0.6023 0.52272 0.0
C2150 C 0.07081 0.57194 0.51095 0.0
C2151 C 0.08746 0.55493 0.5073 0.0
C2152 C 0.06033 0.57426 0.53243 0.0
C2153 C 0.09369 0.54049 0.52543 0.0
C2154 C 0.08353 0.54279 0.54678 0.0
C2155 C 0.05643 0.56162 0.57179 0.0
C2156 C 0.03931 0.57803 0.57562 0.0
C2157 C 0.06683 0.55955 0.55042 0.0
C2158 C 0.03286 0.59266 0.55772 0.0
C2159 C 0.04337 0.59085 0.53629 0.0
H2160 H 0.78178 0.33799 0.77043 0.0
H2161 H 0.85107 0.32763 0.74753 0.0
H2162 H 0.85895 0.30413 0.78114 0.0
H2163 H 0.84629 0.28734 0.81812 0.0
H2164 H 0.77669 0.29849 0.83999 0.0
H2165 H 0.76881 0.32028 0.80564 0.0
C2166 C 0.79852 0.33035 0.7725 0.0
C2167 C 0.81576 0.33473 0.75637 0.0
C2168 C 0.80294 0.31686 0.79183 0.0
C2169 C 0.8375 0.32489 0.75976 0.0
C2170 C 0.84201 0.3113 0.77896 0.0
C2171 C 0.82939 0.29436 0.81518 0.0
C2172 C 0.81219 0.29138 0.83172 0.0
C2173 C 0.8249 0.30729 0.79528 0.0
C2174 C 0.79037 0.3007 0.82771 0.0
C2175 C 0.78577 0.31319 0.80801 0.0
H2176 H 0.58723 0.98416 0.50412 0.0
H2177 H 0.57295 0.91706 0.53086 0.0
H2178 H 0.54994 0.90823 0.4971 0.0
H2179 H 0.53486 0.9194 0.45894 0.0
H2180 H 0.55041 0.98672 0.43306 0.0
H2181 H 0.57145 0.99568 0.46755 0.0
C2182 C 0.57881 0.96773 0.5028 0.0
C2183 C 0.58186 0.95134 0.52003 0.0
C2184 C 0.56578 0.96275 0.48336 0.0
C2185 C 0.57113 0.92994 0.51772 0.0
C2186 C 0.55787 0.9249 0.49845 0.0
C2187 C 0.54273 0.93604 0.46102 0.0
C2188 C 0.54121 0.95225 0.44334 0.0
C2189 C 0.55524 0.94112 0.48099 0.0
C2190 C 0.55154 0.97376 0.44623 0.0
C2191 C 0.56357 0.97899 0.466 0.0
H2192 H 0.21984 0.20804 0.83014 0.0
H2193 H 0.16343 0.25037 0.8085 0.0
H2194 H 0.16599 0.23403 0.76998 0.0
H2195 H 0.18476 0.20773 0.74246 0.0
H2196 H 0.24117 0.16597 0.76538 0.0
H2197 H 0.23828 0.18241 0.80332 0.0
C2198 C 0.20798 0.21373 0.8171 0.0
C2199 C 0.19139 0.23037 0.82227 0.0
C2200 C 0.20971 0.20448 0.79512 0.0
C2201 C 0.17633 0.23755 0.80501 0.0
C2202 C 0.17782 0.22823 0.78298 0.0
C2203 C 0.19634 0.20218 0.75579 0.0
C2204 C 0.21329 0.1857 0.7509 0.0
C2205 C 0.19451 0.21168 0.77783 0.0
C2206 C 0.22828 0.17889 0.76839 0.0
C2207 C 0.22652 0.18815 0.79022 0.0
H2208 H 0.45246 0.59031 0.51869 0.0
H2209 H 0.4205 0.52705 0.49842 0.0
H2210 H 0.43928 0.52903 0.46149 0.0
H2211 H 0.46416 0.54858 0.43479 0.0
H2212 H 0.49695 0.61174 0.45386 0.0
H2213 H 0.47825 0.6101 0.49138 0.0
C2214 C 0.44959 0.57703 0.50613 0.0
C2215 C 0.43519 0.55847 0.51145 0.0
C2216 C 0.46047 0.57831 0.48471 0.0
C2217 C 0.4318 0.54128 0.49505 0.0
C2218 C 0.44239 0.54249 0.4738 0.0
C2219 C 0.46723 0.56211 0.44706 0.0
C2220 C 0.48183 0.58034 0.44147 0.0
C2221 C 0.45668 0.56091 0.46846 0.0
C2222 C 0.48574 0.59754 0.45773 0.0
C2223 C 0.47506 0.59658 0.47916 0.0
H2224 H 0.69151 0.79627 0.7197 0.0
H2225 H 0.7104 0.85954 0.75236 0.0
H2226 H 0.74658 0.85973 0.73094 0.0
H2227 H 0.7726 0.8416 0.70247 0.0
H2228 H 0.75188 0.77859 0.67031 0.0
H2229 H 0.71661 0.77862 0.69214 0.0
C2230 C 0.70345 0.8102 0.72224 0.0
C2231 C 0.69819 0.82792 0.73759 0.0
C2232 C 0.72393 0.81019 0.70994 0.0
C2233 C 0.71404 0.84567 0.74067 0.0
C2234 C 0.73468 0.84579 0.72839 0.0
C2235 C 0.76028 0.82799 0.70019 0.0
C2236 C 0.76504 0.81 0.68485 0.0
C2237 C 0.73976 0.82814 0.71286 0.0
C2238 C 0.74895 0.79238 0.68224 0.0
C2239 C 0.72867 0.79246 0.69463 0.0
H2240 H 0.77007 0.18599 0.81845 0.0
H2241 H 0.74083 0.2332 0.86696 0.0
H2242 H 0.70368 0.22957 0.84862 0.0
H2243 H 0.67976 0.21374 0.81876 0.0
H2244 H 0.70805 0.16661 0.76965 0.0
H2245 H 0.74537 0.16913 0.7886 0.0
C2246 C 0.75551 0.19529 0.82513 0.0
C2247 C 0.75828 0.20998 0.84398 0.0
C2248 C 0.73409 0.1931 0.81447 0.0
C2249 C 0.73929 0.22211 0.85226 0.0
C2250 C 0.71799 0.21993 0.84188 0.0
C2251 C 0.69402 0.2039 0.81215 0.0
C2252 C 0.69114 0.19005 0.79276 0.0
C2253 C 0.71526 0.20561 0.82293 0.0
C2254 C 0.70983 0.17741 0.78454 0.0
C2255 C 0.73115 0.17889 0.79534 0.0
H2256 H 0.43208 0.99968 0.45324 0.0
H2257 H 0.48937 0.02409 0.41375 0.0
H2258 H 0.48696 0.06106 0.4325 0.0
H2259 H 0.46923 0.08628 0.46001 0.0
H2260 H 0.41209 0.06317 0.50047 0.0
H2261 H 0.41364 0.02587 0.48126 0.0
C2262 C 0.44389 0.01318 0.44867 0.0
C2263 C 0.46102 1.00903 0.43221 0.0
C2264 C 0.44244 0.03457 0.45964 0.0
C2265 C 0.47633 0.02663 0.42661 0.0
C2266 C 0.47487 0.04786 0.43722 0.0
C2267 C 0.45698 0.07318 0.4647 0.0
C2268 C 0.44054 0.07756 0.48169 0.0
C2269 C 0.45811 0.05195 0.4538 0.0
C2270 C 0.42492 0.06026 0.48746 0.0
C2271 C 0.42583 0.03895 0.47648 0.0
H2272 H 0.33134 0.29653 0.80673 0.0
H2273 H 0.31137 0.35845 0.77202 0.0
H2274 H 0.27404 0.35722 0.79125 0.0
H2275 H 0.24713 0.33811 0.81808 0.0
H2276 H 0.26841 0.27611 0.85191 0.0
H2277 H 0.30518 0.27776 0.83268 0.0
C2278 C 0.31892 0.30988 0.80332 0.0
C2279 C 0.3242 0.32763 0.78802 0.0
C2280 C 0.29767 0.30895 0.81423 0.0
C2281 C 0.30774 0.3446 0.78375 0.0
C2282 C 0.28642 0.34389 0.79475 0.0
C2283 C 0.25989 0.32506 0.82127 0.0
C2284 C 0.25491 0.3069 0.83631 0.0
C2285 C 0.2812 0.32612 0.81007 0.0
C2286 C 0.27156 0.29001 0.84013 0.0
C2287 C 0.29269 0.29102 0.82926 0.0
H2288 H 0.08818 0.02293 0.94447 0.0
H2289 H 0.03001 0.99594 0.90816 0.0
H2290 H 0.0357 0.95883 0.92615 0.0
H2291 H 0.05648 0.93437 0.95228 0.0
H2292 H 0.1141 0.96049 0.99009 0.0
H2293 H 0.10963 0.99767 0.97103 0.0
C2294 C 0.07689 1.00886 0.9404 0.0
C2295 C 0.05861 0.01225 0.92503 0.0
C2296 C 0.08022 0.98748 0.95095 0.0
C2297 C 0.04395 0.99392 0.92014 0.0
C2298 C 0.0473 0.97265 0.93031 0.0
C2299 C 0.06825 0.94808 0.95638 0.0
C2300 C 0.08567 0.9446 0.97261 0.0
C2301 C 0.06528 0.96929 0.94577 0.0
C2302 C 0.1006 0.96268 0.97763 0.0
C2303 C 0.09798 0.98393 0.96679 0.0
H2304 H 0.76641 0.23165 0.19025 0.0
H2305 H 0.74394 0.16161 0.19464 0.0
H2306 H 0.77789 0.15186 0.21688 0.0
H2307 H 0.81531 0.1631 0.23392 0.0
H2308 H 0.83643 0.23358 0.22891 0.0
H2309 H 0.80156 0.24322 0.20874 0.0
C2310 C 0.76859 0.21431 0.19631 0.0
C2311 C 0.75252 0.19746 0.1905 0.0
C2312 C 0.78809 0.20881 0.20913 0.0
C2313 C 0.75612 0.17497 0.19841 0.0
C2314 C 0.77553 0.16936 0.2113 0.0
C2315 C 0.81206 0.18056 0.22861 0.0
C2316 C 0.8286 0.1975 0.2327 0.0
C2317 C 0.79184 0.1861 0.21658 0.0
C2318 C 0.82419 0.22008 0.22568 0.0
C2319 C 0.80419 0.22569 0.21414 0.0
H2320 H 0.46628 0.93063 0.06778 0.0
H2321 H 0.4188 0.9553 0.01706 0.0
H2322 H 0.42053 0.99362 0.03393 0.0
H2323 H 0.43656 0.02026 0.06265 0.0
H2324 H 0.48398 0.99455 0.11295 0.0
H2325 H 0.48144 0.95653 0.09643 0.0
C2326 C 0.45619 0.94431 0.06037 0.0
C2327 C 0.44244 0.94006 0.04113 0.0
C2328 C 0.45743 0.96619 0.06999 0.0
C2329 C 0.42952 0.95808 0.03186 0.0
C2330 C 0.43056 0.98 0.04149 0.0
C2331 C 0.44619 1.00631 0.0701 0.0
C2332 C 0.46061 1.01041 0.08896 0.0
C2333 C 0.44458 0.98429 0.0605 0.0
C2334 C 0.47312 0.99209 0.09822 0.0
C2335 C 0.47155 0.97025 0.08887 0.0
H2336 H 0.55527 0.58151 0.06967 0.0
H2337 H 0.60363 0.55564 0.0204 0.0
H2338 H 0.5992 0.51707 0.03625 0.0
H2339 H 0.5806 0.49063 0.06361 0.0
H2340 H 0.5324 0.51757 0.11254 0.0
H2341 H 0.5375 0.55574 0.09697 0.0
C2342 C 0.56499 0.56752 0.06237 0.0
C2343 C 0.57979 0.57153 0.04384 0.0
C2344 C 0.56217 0.54549 0.07137 0.0
C2345 C 0.59217 0.55308 0.03469 0.0
C2346 C 0.58957 0.53101 0.04372 0.0
C2347 C 0.57133 0.50485 0.07098 0.0
C2348 C 0.55596 0.50104 0.08919 0.0
C2349 C 0.57448 0.52699 0.06199 0.0
C2350 C 0.54396 0.51977 0.0983 0.0
C2351 C 0.54702 0.5417 0.08951 0.0
H2352 H 0.03966 0.2759 0.25032 0.0
H2353 H 0.04699 0.28772 0.32266 0.0
H2354 H 0.01362 0.26364 0.33007 0.0
H2355 H 0.9818 0.2391 0.31572 0.0
H2356 H 0.97617 0.22706 0.24337 0.0
H2357 H 1.00991 0.25051 0.23637 0.0
C2358 C 0.03431 0.273 0.2678 0.0
C2359 C 0.0461 0.28369 0.28585 0.0
C2360 C 0.01547 0.25874 0.27198 0.0
C2361 C 0.03822 0.28008 0.3083 0.0
C2362 C 0.01922 0.26606 0.3126 0.0
C2363 C 0.9883 0.24134 0.29853 0.0
C2364 C 0.97666 0.23125 0.28007 0.0
C2365 C 1.00769 0.25522 0.29456 0.0
C2366 C 0.98497 0.23456 0.25781 0.0
C2367 C 1.00416 0.24808 0.2538 0.0
H2368 H 0.50485 0.70678 0.99514 0.0
H2369 H 0.56569 0.73926 0.9688 0.0
H2370 H 0.54477 0.77506 0.9646 0.0
H2371 H 0.51007 0.79791 0.97069 0.0
H2372 H 0.45076 0.76637 1.00136 0.0
H2373 H 0.47024 0.72961 1.00135 0.0
C2374 C 0.51376 0.72167 0.98872 0.0
C2375 C 0.53709 0.72008 0.98257 0.0
C2376 C 0.50184 0.74254 0.98708 0.0
C2377 C 0.5478 0.73962 0.97352 0.0
C2378 C 0.53586 0.76027 0.97128 0.0
C2379 C 0.50135 0.78312 0.9776 0.0
C2380 C 0.47884 0.7853 0.98618 0.0
C2381 C 0.513 0.76204 0.9784 0.0
C2382 C 0.46784 0.76551 0.99434 0.0
C2383 C 0.47911 0.74438 0.99458 0.0
H2384 H 0.96336 0.75854 0.23595 0.0
H2385 H 1.00015 0.82202 0.22965 0.0
H2386 H 0.03634 0.801 0.2276 0.0
H2387 H 0.05773 0.76468 0.23068 0.0
H2388 H 0.02077 0.70127 0.23697 0.0
H2389 H 0.98451 0.72209 0.23576 0.0
C2390 C 0.9793 0.76778 0.23397 0.0
C2391 C 0.97903 0.79189 0.23319 0.0
C2392 C 1.00004 0.75556 0.23291 0.0
C2393 C 0.99982 0.80353 0.23022 0.0
C2394 C 0.02054 0.7915 0.22921 0.0
C2395 C 0.04173 0.7554 0.23166 0.0
C2396 C 0.04204 0.73139 0.23413 0.0
C2397 C 0.0209 0.76754 0.23103 0.0
C2398 C 0.0211 0.71966 0.23496 0.0
C2399 C 1.00034 0.7316 0.23442 0.0
H2400 H 0.96764 0.75096 0.02372 0.0
H2401 H 0.02178 0.70763 0.04947 0.0
H2402 H 0.04715 0.74024 0.05146 0.0
H2403 H 0.05503 0.78082 0.04368 0.0
H2404 H 0.99881 0.82496 0.02484 0.0
H2405 H 0.97348 0.79231 0.02288 0.0
C2406 C 0.98474 0.74843 0.03028 0.0
C2407 C 0.99264 0.72623 0.03551 0.0
C2408 C 0.9992 0.76756 0.03251 0.0
C2409 C 0.01514 0.72401 0.04405 0.0
C2410 C 0.02978 0.74284 0.04555 0.0
C2411 C 0.03719 0.78355 0.03959 0.0
C2412 C 0.0294 0.80555 0.03348 0.0
C2413 C 0.02216 0.76467 0.03939 0.0
C2414 C 1.00593 0.80829 0.02848 0.0
C2415 C 0.99118 0.78956 0.02759 0.0
H2416 H 0.3115 0.97072 0.25322 0.0
H2417 H 0.25771 0.99219 0.20755 0.0
H2418 H 0.25429 0.02825 0.22808 0.0
H2419 H 0.26488 0.05271 0.26004 0.0
H2420 H 0.3198 0.03263 0.30508 0.0
H2421 H 0.3237 0.9966 0.28433 0.0
C2422 C 0.29911 0.98335 0.24769 0.0
C2423 C 0.28493 0.97867 0.22873 0.0
C2424 C 0.2971 1.00412 0.25973 0.0
C2425 C 0.26911 0.99536 0.22176 0.0
C2426 C 0.26696 0.01594 0.23367 0.0
C2427 C 0.27811 0.04081 0.26517 0.0
C2428 C 0.29211 0.04574 0.2842 0.0
C2429 C 0.28069 0.0204 0.2528 0.0
C2430 C 0.30853 0.02941 0.29079 0.0
C2431 C 0.31093 1.00882 0.27876 0.0
H2432 H 0.29794 0.51839 1.00191 0.0
H2433 H 0.29004 0.45042 0.97397 0.0
H2434 H 0.25561 0.44521 0.99662 0.0
H2435 H 0.22715 0.46009 0.02423 0.0
H2436 H 0.238 0.52601 0.0551 0.0
H2437 H 0.27272 0.53119 0.0324 0.0
C2438 C 0.28934 0.50206 1.00103 0.0
C2439 C 0.29709 0.48492 0.98583 0.0
C2440 C 0.27011 0.49861 0.01503 0.0
C2441 C 0.2846 0.46433 0.98482 0.0
C2442 C 0.26492 0.46114 0.9981 0.0
C2443 C 0.23741 0.47538 0.02625 0.0
C2444 C 0.2301 0.49261 0.0414 0.0
C2445 C 0.25748 0.47817 0.01323 0.0
C2446 C 0.24345 0.51238 0.04383 0.0
C2447 C 0.26315 0.51544 0.03065 0.0
H2448 H 0.73423 0.55568 0.26553 0.0
H2449 H 0.74857 0.52242 0.20145 0.0
H2450 H 0.74933 0.48528 0.22064 0.0
H2451 H 0.74833 0.46274 0.25578 0.0
H2452 H 0.73124 0.49546 0.3197 0.0
H2453 H 0.72997 0.53239 0.30047 0.0
C2454 C 0.73737 0.54026 0.25577 0.0
C2455 C 0.74141 0.54182 0.23208 0.0
C2456 C 0.73769 0.51892 0.26692 0.0
C2457 C 0.74522 0.52168 0.21962 0.0
C2458 C 0.74583 0.50046 0.23064 0.0
C2459 C 0.74375 0.47772 0.26561 0.0
C2460 C 0.73994 0.47595 0.28939 0.0
C2461 C 0.74235 0.49891 0.25432 0.0
C2462 C 0.73474 0.49604 0.30157 0.0
C2463 C 0.73378 0.51726 0.29051 0.0
H2464 H 0.8078 0.01391 1.00941 0.0
H2465 H 0.78163 0.05688 0.06332 0.0
H2466 H 0.74536 0.06057 0.04295 0.0
H2467 H 0.72102 0.0517 1.00975 0.0
H2468 H 0.74757 1.0088 0.95597 0.0
H2469 H 0.78405 1.00599 0.9759 0.0
C2470 C 0.79436 0.0244 0.01664 0.0
C2471 C 0.79768 0.03515 0.03797 0.0
C2472 C 0.77363 0.02675 1.00467 0.0
C2473 C 0.77963 0.04814 0.04715 0.0
C2474 C 0.75889 0.05044 0.03539 0.0
C2475 C 0.73476 0.0417 1.00235 0.0
C2476 C 0.73137 0.03052 0.98125 0.0
C2477 C 0.75568 0.0398 0.01414 0.0
C2478 C 0.74962 0.01794 0.9719 0.0
C2479 C 0.77048 0.0161 0.98345 0.0
H2480 H 0.2522 0.30541 0.96963 0.0
H2481 H 0.20826 0.24967 0.98948 0.0
H2482 H 0.23022 0.24457 0.02454 0.0
H2483 H 0.26289 0.25438 0.0484 0.0
H2484 H 0.30568 0.31178 0.0304 0.0
H2485 H 0.28382 0.31698 0.99524 0.0
C2486 C 0.24734 0.29225 0.98172 0.0
C2487 C 0.22849 0.27798 0.97688 0.0
C2488 C 0.26013 0.28936 1.00194 0.0
C2489 C 0.22239 0.26112 0.99284 0.0
C2490 C 0.23513 0.25803 0.01281 0.0
C2491 C 0.26729 0.26846 0.03723 0.0
C2492 C 0.28604 0.28277 0.0425 0.0
C2493 C 0.25415 0.27189 0.01742 0.0
C2494 C 0.29167 0.30024 0.02694 0.0
C2495 C 0.27898 0.3034 1.00685 0.0
H2496 H 0.25904 0.7503 0.46482 0.0
H2497 H 0.31761 0.71632 0.4944 0.0
H2498 H 0.29757 0.71372 0.53086 0.0
H2499 H 0.26323 0.72099 0.5545 0.0
H2500 H 0.20406 0.7524 0.5237 0.0
H2501 H 0.22421 0.75499 0.48725 0.0
C2502 C 0.26743 0.74178 0.47893 0.0
C2503 C 0.29 0.73343 0.47645 0.0
C2504 C 0.25553 0.73961 0.49969 0.0
C2505 C 0.3005 0.72327 0.49558 0.0
C2506 C 0.28893 0.72155 0.51648 0.0
C2507 C 0.25472 0.72827 0.53975 0.0
C2508 C 0.23211 0.73648 0.54186 0.0
C2509 C 0.26643 0.72966 0.51874 0.0
C2510 C 0.22129 0.7457 0.52253 0.0
C2511 C 0.2329 0.74738 0.50172 0.0
H2512 H 0.9957 0.51236 0.8019 0.0
H2513 H 0.96463 0.45275 0.77138 0.0
H2514 H 0.9623 0.47282 0.73491 0.0
H2515 H 0.96918 0.50749 0.71152 0.0
H2516 H 0.9967 0.56776 0.74361 0.0
H2517 H 0.99914 0.5475 0.78003 0.0
C2518 C 0.98774 0.50372 0.78764 0.0
C2519 C 0.98022 0.48087 0.78984 0.0
C2520 C 0.98556 0.51565 0.76695 0.0
C2521 C 0.97093 0.4701 0.77044 0.0
C2522 C 0.96935 0.48168 0.74953 0.0
C2523 C 0.97547 0.5162 0.7266 0.0
C2524 C 0.98274 0.53912 0.72491 0.0
C2525 C 0.97663 0.50447 0.74758 0.0
C2526 C 0.99078 0.55025 0.74454 0.0
C2527 C 0.99236 0.5386 0.7653 0.0
H2528 H 0.76251 0.76924 0.46868 0.0
H2529 H 0.7106 0.81702 0.49093 0.0
H2530 H 0.73021 0.82108 0.52736 0.0
H2531 H 0.76236 0.81104 0.55327 0.0
H2532 H 0.81615 0.7672 0.52855 0.0
H2533 H 0.79606 0.76265 0.49224 0.0
C2534 C 0.75556 0.78117 0.48096 0.0
C2535 C 0.7348 0.79279 0.47646 0.0
C2536 C 0.76751 0.78437 0.50154 0.0
C2537 C 0.72613 0.80734 0.4936 0.0
C2538 C 0.73754 0.80994 0.51451 0.0
C2539 C 0.76976 0.80077 0.53975 0.0
C2540 C 0.79076 0.78952 0.54351 0.0
C2541 C 0.75825 0.79853 0.51869 0.0
C2542 C 0.80018 0.77623 0.52594 0.0
C2543 C 0.78859 0.77348 0.50526 0.0
H2544 H 0.51183 0.50762 0.21788 0.0
H2545 H 0.55964 0.45663 0.24175 0.0
H2546 H 0.56543 0.47855 0.27677 0.0
H2547 H 0.55705 0.51244 0.30064 0.0
H2548 H 0.51068 0.56395 0.27534 0.0
H2549 H 0.50526 0.54211 0.2403 0.0
C2550 C 0.52396 0.50137 0.23038 0.0
C2551 C 0.53539 0.48037 0.22679 0.0
C2552 C 0.52776 0.51439 0.25018 0.0
C2553 C 0.55033 0.47247 0.24392 0.0
C2554 C 0.55385 0.48515 0.26393 0.0
C2555 C 0.54586 0.51895 0.28738 0.0
C2556 C 0.53435 0.53993 0.29069 0.0
C2557 C 0.54268 0.50617 0.26723 0.0
C2558 C 0.52006 0.54813 0.27321 0.0
C2559 C 0.51674 0.53549 0.25324 0.0
H2560 H 0.04019 1.00949 0.80622 0.0
H2561 H 0.04279 0.07507 0.77272 0.0
H2562 H 0.04619 0.05613 0.73561 0.0
H2563 H 0.04532 0.02089 0.71246 0.0
H2564 H 0.04185 0.9554 0.74616 0.0
H2565 H 0.0421 0.97432 0.78331 0.0
C2566 C 0.04159 0.01966 0.7908 0.0
C2567 C 0.04097 0.04372 0.79228 0.0
C2568 C 0.0433 1.00864 0.76951 0.0
C2569 C 0.0433 0.05658 0.77214 0.0
C2570 C 0.04508 0.04573 0.75089 0.0
C2571 C 0.04469 0.01074 0.72794 0.0
C2572 C 0.04337 0.98669 0.72641 0.0
C2573 C 0.0446 0.02177 0.74932 0.0
C2574 C 0.04304 0.97386 0.74671 0.0
C2575 C 0.043 0.98469 0.76801 0.0
H2576 H 0.47221 0.75435 0.75394 0.0
H2577 H 0.48697 0.71416 0.814 0.0
H2578 H 0.52292 0.73489 0.81904 0.0
H2579 H 0.54971 0.76538 0.80699 0.0
H2580 H 0.53342 0.80632 0.74786 0.0
H2581 H 0.49804 0.78501 0.74257 0.0
C2582 C 0.48299 0.75026 0.76842 0.0
C2583 C 0.47653 0.73274 0.7837 0.0
C2584 C 0.5033 0.76267 0.7716 0.0
C2585 C 0.4914 0.72735 0.80181 0.0
C2586 C 0.51192 0.73937 0.80484 0.0
C2587 C 0.53841 0.76963 0.79294 0.0
C2588 C 0.54425 0.78761 0.77794 0.0
C2589 C 0.51798 0.7572 0.78992 0.0
C2590 C 0.52927 0.79293 0.75993 0.0
C2591 C 0.50909 0.78057 0.75675 0.0
H2592 H 0.99132 0.29342 0.45282 0.0
H2593 H 0.98039 0.29119 0.52559 0.0
H2594 H 1.00393 0.25692 0.52849 0.0
H2595 H 0.02849 0.22831 0.51093 0.0
H2596 H 0.03984 0.22919 0.43819 0.0
H2597 H 0.01596 0.2635 0.4348 0.0
C2598 C 0.99391 0.28519 0.46921 0.0
C2599 C 0.98406 0.29482 0.48898 0.0
C2600 C 1.00787 0.26547 0.47084 0.0
C2601 C 0.9878 0.28415 0.51016 0.0
C2602 C 1.00132 0.26459 0.51185 0.0
C2603 C 0.02559 0.23577 0.49422 0.0
C2604 C 0.03591 0.22591 0.47483 0.0
C2605 C 0.0116 0.25522 0.49238 0.0
C2606 C 0.03235 0.23639 0.45348 0.0
C2607 C 0.01848 0.25594 0.4515 0.0
H2608 H 0.47333 0.27169 0.70794 0.0
H2609 H 0.48754 0.30809 0.77032 0.0
H2610 H 0.52191 0.28512 0.77617 0.0
H2611 H 0.54644 0.25343 0.76492 0.0
H2612 H 0.53476 0.21903 0.70067 0.0
H2613 H 0.50029 0.24175 0.69486 0.0
C2614 C 0.48413 0.27473 0.72267 0.0
C2615 C 0.47791 0.29167 0.73864 0.0
C2616 C 0.504 0.26147 0.7259 0.0
C2617 C 0.49208 0.29545 0.75761 0.0
C2618 C 0.51162 0.28213 0.76109 0.0
C2619 C 0.53688 0.2511 0.74927 0.0
C2620 C 0.54365 0.23431 0.73327 0.0
C2621 C 0.51759 0.26493 0.74548 0.0
C2622 C 0.53007 0.23134 0.71362 0.0
C2623 C 0.51039 0.24459 0.7101 0.0
H2624 H 0.51637 0.30111 0.50534 0.0
H2625 H 0.55439 0.28581 0.5668 0.0
H2626 H 0.53231 0.25088 0.5717 0.0
H2627 H 0.50189 0.22446 0.55867 0.0
H2628 H 0.46174 0.24221 0.49954 0.0
H2629 H 0.48422 0.27702 0.49442 0.0
C2630 C 0.51966 0.29066 0.52023 0.0
C2631 C 0.53731 0.29659 0.53565 0.0
C2632 C 0.50619 0.27103 0.52359 0.0
C2633 C 0.54142 0.28185 0.55426 0.0
C2634 C 0.52854 0.26187 0.55728 0.0
C2635 C 0.49794 0.23611 0.54482 0.0
C2636 C 0.48008 0.23076 0.52954 0.0
C2637 C 0.51086 0.25628 0.54207 0.0
C2638 C 0.47514 0.24604 0.51171 0.0
C2639 C 0.48815 0.26585 0.50865 0.0
H2640 H 0.80747 0.55063 0.76911 0.0
H2641 H 0.75351 0.53049 0.81505 0.0
H2642 H 0.74941 0.49428 0.79468 0.0
H2643 H 0.75949 0.46946 0.76262 0.0
H2644 H 0.81543 0.48814 0.71814 0.0
H2645 H 0.81966 0.52412 0.73858 0.0
C2646 C 0.79493 0.53822 0.77476 0.0
C2647 C 0.78082 0.54334 0.79365 0.0
C2648 C 0.79267 0.51735 0.76294 0.0
C2649 C 0.76478 0.52696 0.80081 0.0
C2650 C 0.76228 0.50632 0.789 0.0
C2651 C 0.77303 0.48099 0.75753 0.0
C2652 C 0.78706 0.47567 0.73856 0.0
C2653 C 0.77595 0.50143 0.76989 0.0
C2654 C 0.80395 0.49161 0.7322 0.0
C2655 C 0.8066 0.51222 0.7441 0.0
H2656 H 0.73353 0.96032 0.53789 0.0
H2657 H 0.71196 0.02845 0.51961 0.0
H2658 H 0.7446 0.03241 0.49423 0.0
H2659 H 0.77983 0.01701 0.47727 0.0
H2660 H 0.80326 0.95009 0.4969 0.0
H2661 H 0.76955 0.94508 0.52132 0.0
C2662 C 0.7361 0.97608 0.5285 0.0
C2663 C 0.72 0.9939 0.53052 0.0
C2664 C 0.75521 0.97839 0.51386 0.0
C2665 C 0.72371 0.01421 0.51812 0.0
C2666 C 0.74246 0.01657 0.50357 0.0
C2667 C 0.77728 1.00119 0.48659 0.0
C2668 C 0.79374 0.98378 0.48498 0.0
C2669 C 0.75825 0.99875 0.50115 0.0
C2670 C 0.79061 0.9636 0.49765 0.0
C2671 C 0.77143 0.96082 0.51174 0.0
H2672 H 0.21848 0.96924 0.75925 0.0
H2673 H 0.26061 0.99789 0.81248 0.0
H2674 H 0.26274 0.03394 0.79163 0.0
H2675 H 0.25448 0.05658 0.75757 0.0
H2676 H 0.21133 0.02883 0.70461 0.0
H2677 H 0.20863 0.99285 0.72567 0.0
C2678 C 0.22809 0.9834 0.76632 0.0
C2679 C 0.23935 0.98077 0.78749 0.0
C2680 C 0.22942 1.00411 0.75411 0.0
C2681 C 0.2515 0.99943 0.79646 0.0
C2682 C 0.25292 0.02001 0.78441 0.0
C2683 C 0.24405 0.04293 0.7507 0.0
C2684 C 0.233 0.04571 0.72943 0.0
C2685 C 0.24215 0.02246 0.76314 0.0
C2686 C 0.22026 0.02729 0.72072 0.0
C2687 C 0.21854 1.00672 0.73288 0.0
H2688 H 0.28192 0.5057 0.5441 0.0
H2689 H 0.3061 0.56845 0.51431 0.0
H2690 H 0.27325 0.56926 0.48836 0.0
H2691 H 0.23754 0.55168 0.47375 0.0
H2692 H 0.21436 0.48827 0.50314 0.0
H2693 H 0.24688 0.4879 0.52921 0.0
C2694 C 0.27972 0.51973 0.53219 0.0
C2695 C 0.29615 0.53718 0.53136 0.0
C2696 C 0.26113 0.51973 0.51691 0.0
C2697 C 0.29347 0.55497 0.51542 0.0
C2698 C 0.27479 0.55534 0.50047 0.0
C2699 C 0.23986 0.53767 0.48565 0.0
C2700 C 0.22357 0.52003 0.4865 0.0
C2701 C 0.25859 0.53768 0.50087 0.0
C2702 C 0.22664 0.50208 0.50221 0.0
C2703 C 0.24518 0.5019 0.51721 0.0
H2704 H 0.75657 0.25788 0.05772 0.0
H2705 H 0.7136 0.20095 0.03867 0.0
H2706 H 0.73458 0.19727 1.00283 0.0
H2707 H 0.76526 0.21024 0.97673 0.0
H2708 H 0.80965 0.26518 0.99762 0.0
H2709 H 0.78873 0.26863 0.03355 0.0
C2710 C 0.75196 0.2442 0.04618 0.0
C2711 C 0.73336 0.22965 0.05134 0.0
C2712 C 0.76466 0.24157 0.02596 0.0
C2713 C 0.72746 0.21271 0.03532 0.0
C2714 C 0.73967 0.2104 0.01483 0.0
C2715 C 0.77049 0.2228 0.98928 0.0
C2716 C 0.78908 0.23741 0.98447 0.0
C2717 C 0.75831 0.22472 1.00997 0.0
C2718 C 0.79568 0.25352 1.00096 0.0
C2719 C 0.78354 0.25567 0.02142 0.0
H2720 H 0.50983 1.00596 0.30144 0.0
H2721 H 0.45001 0.96563 0.28561 0.0
H2722 H 0.44561 0.98643 0.24978 0.0
H2723 H 0.45874 0.01634 0.22275 0.0
H2724 H 0.51608 0.05876 0.2411 0.0
H2725 H 0.52058 0.03762 0.2768 0.0
C2726 C 0.49535 1.00193 0.29068 0.0
C2727 C 0.48023 0.98406 0.29672 0.0
C2728 C 0.49225 0.01464 0.27056 0.0
C2729 C 0.46225 0.97887 0.28158 0.0
C2730 C 0.45952 0.99099 0.26109 0.0
C2731 C 0.47203 0.02109 0.23474 0.0
C2732 C 0.48702 0.03917 0.22932 0.0
C2733 C 0.47441 1.00893 0.2554 0.0
C2734 C 0.50414 0.04516 0.24499 0.0
C2735 C 0.50686 0.03292 0.2653 0.0
H2736 H 0.16755 0.43976 0.1367 0.0
H2737 H 0.10078 0.47102 0.13555 0.0
H2738 H 0.08885 0.44698 0.16771 0.0
H2739 H 0.09679 0.41512 0.19461 0.0
H2740 H 0.16398 0.38476 0.19559 0.0
H2741 H 0.17636 0.41045 0.16525 0.0
C2742 C 0.15042 0.44147 0.14359 0.0
C2743 C 0.13501 0.45702 0.13357 0.0
C2744 C 0.14372 0.42765 0.16205 0.0
C2745 C 0.113 0.45922 0.14293 0.0
C2746 C 0.10613 0.44537 0.16125 0.0
C2747 C 0.11415 0.41425 0.18822 0.0
C2748 C 0.1294 0.39795 0.19737 0.0
C2749 C 0.12122 0.4292 0.17068 0.0
C2750 C 0.15195 0.39724 0.1891 0.0
C2751 C 0.15902 0.41184 0.1716 0.0
H2752 H 0.72316 0.61149 0.1035 0.0
H2753 H 0.69924 0.65913 0.15445 0.0
H2754 H 0.66625 0.66838 0.13065 0.0
H2755 H 0.64396 0.66272 0.0956 0.0
H2756 H 0.66823 0.6157 0.04428 0.0
H2757 H 0.70108 0.60625 0.06817 0.0
C2758 C 0.71077 0.62392 0.10944 0.0
C2759 C 0.71377 0.63455 0.13084 0.0
C2760 C 0.69178 0.62921 0.09563 0.0
C2761 C 0.69745 0.65063 0.13814 0.0
C2762 C 0.67853 0.65594 0.12451 0.0
C2763 C 0.6565 0.65059 0.08944 0.0
C2764 C 0.65345 0.63999 0.06802 0.0
C2765 C 0.67551 0.64534 0.10322 0.0
C2766 C 0.66983 0.62396 0.06071 0.0
C2767 C 0.68876 0.61863 0.07434 0.0
H2768 H 0.86634 0.12972 0.19567 0.0
H2769 H 0.93719 0.11212 0.20503 0.0
H2770 H 0.93424 0.08264 0.17559 0.0
H2771 H 0.91231 0.06404 0.14468 0.0
H2772 H 0.84226 0.08389 0.13343 0.0
H2773 H 0.84389 0.10983 0.16605 0.0
C2774 C 0.88096 0.11913 0.1915 0.0
C2775 C 0.90196 0.12313 0.20247 0.0
C2776 C 0.87929 0.10259 0.17406 0.0
C2777 C 0.9209 0.1095 0.19667 0.0
C2778 C 0.91921 0.09261 0.17985 0.0
C2779 C 0.8973 0.07371 0.14971 0.0
C2780 C 0.87716 0.07197 0.13672 0.0
C2781 C 0.89862 0.08929 0.16806 0.0
C2782 C 0.85797 0.08494 0.14316 0.0
C2783 C 0.8589 0.09984 0.16179 0.0
H2784 H 0.35879 0.84386 0.07347 0.0
H2785 H 0.38375 0.9125 0.06457 0.0
H2786 H 0.35768 0.92618 0.09421 0.0
H2787 H 0.33008 0.91806 0.12489 0.0
H2788 H 0.30346 0.84988 0.13285 0.0
H2789 H 0.32753 0.83659 0.10127 0.0
C2790 C 0.35823 0.86183 0.0779 0.0
C2791 C 0.37321 0.87714 0.06692 0.0
C2792 C 0.34295 0.86962 0.09483 0.0
C2793 C 0.37226 0.90044 0.07262 0.0
C2794 C 0.35746 0.90823 0.08968 0.0
C2795 C 0.3293 0.90036 0.11946 0.0
C2796 C 0.31512 0.88495 0.13128 0.0
C2797 C 0.34304 0.89292 0.10119 0.0
C2798 C 0.31413 0.86212 0.12395 0.0
C2799 C 0.32803 0.85447 0.10601 0.0
H2800 H 0.09794 0.60297 0.32196 0.0
H2801 H 0.16387 0.63579 0.32281 0.0
H2802 H 0.17646 0.61041 0.35341 0.0
H2803 H 0.1681 0.58042 0.38149 0.0
H2804 H 0.10258 0.54671 0.3805 0.0
H2805 H 0.09054 0.5707 0.3484 0.0
C2806 C 0.11507 0.60447 0.32882 0.0
C2807 C 0.1299 0.62135 0.32012 0.0
C2808 C 0.12227 0.58967 0.34645 0.0
C2809 C 0.15218 0.62287 0.32899 0.0
C2810 C 0.15935 0.60843 0.34661 0.0
C2811 C 0.15123 0.57817 0.37416 0.0
C2812 C 0.13621 0.56189 0.38357 0.0
C2813 C 0.14446 0.59198 0.35568 0.0
C2814 C 0.11452 0.55907 0.37363 0.0
C2815 C 0.10757 0.57288 0.35533 0.0
H2816 H 0.82026 0.66705 0.88809 0.0
H2817 H 0.82787 0.59385 0.88853 0.0
H2818 H 0.85402 0.59629 0.92101 0.0
H2819 H 0.87783 0.61951 0.94695 0.0
H2820 H 0.87319 0.69283 0.94407 0.0
H2821 H 0.84298 0.69025 0.91523 0.0
C2822 C 0.82727 0.65166 0.89569 0.0
C2823 C 0.82196 0.63028 0.88611 0.0
C2824 C 0.84313 0.65328 0.91383 0.0
C2825 C 0.83161 0.61049 0.89572 0.0
C2826 C 0.84666 0.61188 0.91424 0.0
C2827 C 0.86984 0.63485 0.94031 0.0
C2828 C 0.87765 0.65634 0.9477 0.0
C2829 C 0.85299 0.6332 0.92312 0.0
C2830 C 0.86748 0.67612 0.93859 0.0
C2831 C 0.85022 0.67463 0.92209 0.0
H2832 H 0.85197 0.94176 0.38338 0.0
H2833 H 0.91632 0.97756 0.38107 0.0
H2834 H 0.9286 0.95372 0.34891 0.0
H2835 H 0.92189 0.9208 0.32303 0.0
H2836 H 0.85708 0.88586 0.32543 0.0
H2837 H 0.84412 0.91129 0.35578 0.0
C2838 C 0.86863 0.94452 0.37572 0.0
C2839 C 0.88327 0.96133 0.38479 0.0
C2840 C 0.87554 0.93077 0.35728 0.0
C2841 C 0.90467 0.96481 0.37444 0.0
C2842 C 0.91176 0.95106 0.35612 0.0
C2843 C 0.90492 0.91885 0.33016 0.0
C2844 C 0.89053 0.90132 0.32198 0.0
C2845 C 0.8975 0.93368 0.34767 0.0
C2846 C 0.86844 0.89925 0.3312 0.0
C2847 C 0.86106 0.91373 0.34868 0.0
H2848 H 0.14265 0.90349 0.9434 0.0
H2849 H 0.16602 0.83443 0.95355 0.0
H2850 H 0.19386 0.83896 0.92261 0.0
H2851 H 0.20992 0.86198 0.8909 0.0
H2852 H 0.18419 0.93008 0.87943 0.0
H2853 H 0.15928 0.92671 0.91271 0.0
C2854 C 0.15411 0.88958 0.93909 0.0
C2855 C 0.15233 0.86867 0.95082 0.0
C2856 C 0.16965 0.89215 0.92093 0.0
C2857 C 0.16699 0.85064 0.94469 0.0
C2858 C 0.18292 0.85325 0.92702 0.0
C2859 C 0.19911 0.87616 0.89595 0.0
C2860 C 0.19894 0.89628 0.88277 0.0
C2861 C 0.1842 0.87383 0.91476 0.0
C2862 C 0.18457 0.9144 0.88927 0.0
C2863 C 0.1703 0.91249 0.90829 0.0
H2864 H 0.21653 0.14474 0.40617 0.0
H2865 H 0.17269 0.09878 0.36876 0.0
H2866 H 0.14303 0.10315 0.39741 0.0
H2867 H 0.12893 0.12015 0.43323 0.0
H2868 H 0.17204 0.16732 0.46989 0.0
H2869 H 0.20212 0.16246 0.4415 0.0
C2870 C 0.20047 0.1358 0.40412 0.0
C2871 C 0.19724 0.12125 0.3852 0.0
C2872 C 0.18311 0.1386 0.42066 0.0
C2873 C 0.17616 0.10974 0.38319 0.0
C2874 C 0.15896 0.11234 0.39958 0.0
C2875 C 0.1449 0.12934 0.43505 0.0
C2876 C 0.14806 0.14408 0.45378 0.0
C2877 C 0.16221 0.12666 0.41845 0.0
C2878 C 0.16895 0.15589 0.45569 0.0
C2879 C 0.18626 0.15312 0.43942 0.0
H2880 H 0.3981 0.64925 0.85026 0.0
H2881 H 0.36904 0.62042 0.78901 0.0
H2882 H 0.36146 0.58466 0.80933 0.0
H2883 H 0.3627 0.56173 0.84469 0.0
H2884 H 0.39142 0.59105 0.90583 0.0
H2885 H 0.39966 0.62636 0.88527 0.0
C2886 C 0.39017 0.63516 0.84126 0.0
C2887 C 0.38412 0.63763 0.81808 0.0
C2888 C 0.38578 0.61469 0.85306 0.0
C2889 C 0.37389 0.61907 0.80681 0.0
C2890 C 0.36951 0.5986 0.81845 0.0
C2891 C 0.37057 0.57589 0.8536 0.0
C2892 C 0.37635 0.57363 0.87689 0.0
C2893 C 0.37523 0.59626 0.84163 0.0
C2894 C 0.38697 0.59212 0.88794 0.0
C2895 C 0.3916 0.6124 0.87619 0.0
H2896 H 0.88824 0.40558 0.44612 0.0
H2897 H 0.85494 0.34383 0.46879 0.0
H2898 H 0.82744 0.34691 0.43768 0.0
H2899 H 0.8134 0.36641 0.40312 0.0
H2900 H 0.84612 0.42868 0.38108 0.0
H2901 H 0.8731 0.42599 0.41259 0.0
C2902 C 0.87493 0.39282 0.44432 0.0
C2903 C 0.87383 0.37445 0.45985 0.0
C2904 C 0.859 0.3947 0.42634 0.0
C2905 C 0.85634 0.35816 0.45718 0.0
C2906 C 0.84053 0.35989 0.43932 0.0
C2907 C 0.8262 0.37957 0.40532 0.0
C2908 C 0.82769 0.3976 0.38941 0.0
C2909 C 0.84174 0.37802 0.42369 0.0
C2910 C 0.84469 0.41434 0.39264 0.0
C2911 C 0.86014 0.4129 0.41081 0.0
H2912 H 0.61883 0.95272 0.87445 0.0
H2913 H 0.69146 0.94072 0.87568 0.0
H2914 H 0.68757 0.91167 0.84591 0.0
H2915 H 0.6629 0.88705 0.82196 0.0
H2916 H 0.59 0.8977 0.82286 0.0
H2917 H 0.59457 0.92997 0.84883 0.0
C2918 C 0.63384 0.94408 0.86785 0.0
C2919 C 0.65539 0.94885 0.87734 0.0
C2920 C 0.63138 0.92699 0.85109 0.0
C2921 C 0.67465 0.9372 0.86883 0.0
C2922 C 0.67243 0.9206 0.85178 0.0
C2923 C 0.64812 0.89679 0.82747 0.0
C2924 C 0.62615 0.89002 0.82046 0.0
C2925 C 0.65081 0.91496 0.8431 0.0
C2926 C 0.60709 0.90255 0.82806 0.0
C2927 C 0.60968 0.92098 0.84297 0.0
H2928 H 0.21088 0.89938 0.10639 0.0
H2929 H 0.16883 0.89113 0.16618 0.0
H2930 H 0.13521 0.88503 0.14235 0.0
H2931 H 0.11727 0.88408 0.10491 0.0
H2932 H 0.15805 0.89343 0.04427 0.0
H2933 H 0.19253 0.89701 0.06785 0.0
C2934 C 0.19436 0.89597 0.11403 0.0
C2935 C 0.19226 0.89582 0.138 0.0
C2936 C 0.17485 0.89288 0.10009 0.0
C2937 C 0.17077 0.89154 0.1478 0.0
C2938 C 0.15156 0.88805 0.13418 0.0
C2939 C 0.13367 0.8868 0.09672 0.0
C2940 C 0.13494 0.88858 0.07278 0.0
C2941 C 0.1533 0.88905 0.11035 0.0
C2942 C 0.15648 0.89203 0.06264 0.0
C2943 C 0.17623 0.8941 0.07614 0.0
H2944 H 0.15704 0.60072 0.13173 0.0
H2945 H 0.12529 0.54076 0.16085 0.0
H2946 H 0.11684 0.56191 0.19552 0.0
H2947 H 0.11822 0.59742 0.21785 0.0
H2948 H 0.1516 0.65677 0.18958 0.0
H2949 H 0.15984 0.63571 0.15459 0.0
C2950 C 0.14848 0.59205 0.14562 0.0
C2951 C 0.14173 0.569 0.14322 0.0
C2952 C 0.14391 0.60426 0.16585 0.0
C2953 C 0.13043 0.55847 0.16169 0.0
C2954 C 0.12566 0.57056 0.18174 0.0
C2955 C 0.12729 0.60581 0.20406 0.0
C2956 C 0.13406 0.62881 0.2064 0.0
C2957 C 0.13223 0.59349 0.18399 0.0
C2958 C 0.14601 0.6392 0.18832 0.0
C2959 C 0.15077 0.62712 0.16825 0.0
H2960 H 0.87818 0.67471 0.07925 0.0
H2961 H 0.88469 0.60715 0.05062 0.0
H2962 H 0.85458 0.59326 0.0762 0.0
H2963 H 0.82825 0.59992 0.10878 0.0
H2964 H 0.82225 0.6678 0.13677 0.0
H2965 H 0.85019 0.68195 0.10937 0.0
C2966 C 0.87288 0.65698 0.07842 0.0
C2967 C 0.88382 0.64196 0.06317 0.0
C2968 C 0.85572 0.64913 0.09322 0.0
C2969 C 0.87653 0.6191 0.06215 0.0
C2970 C 0.85942 0.61112 0.0769 0.0
C2971 C 0.83306 0.61779 0.10878 0.0
C2972 C 0.8232 0.63275 0.12486 0.0
C2973 C 0.84922 0.62588 0.09286 0.0
C2974 C 0.82935 0.65596 0.12447 0.0
C2975 C 0.84545 0.66406 0.10887 0.0
H2976 H 0.85412 0.93152 0.14352 0.0
H2977 H 0.91151 0.97551 0.15833 0.0
H2978 H 0.92091 0.95241 0.19143 0.0
H2979 H 0.91394 0.91903 0.21577 0.0
H2980 H 0.85759 0.87402 0.2006 0.0
H2981 H 0.84704 0.898 0.16804 0.0
C2982 C 0.86877 0.93608 0.15383 0.0
C2983 C 0.88196 0.95549 0.14809 0.0
C2984 C 0.87444 0.92239 0.17287 0.0
C2985 C 0.90069 0.96105 0.16215 0.0
C2986 C 0.90627 0.94767 0.18115 0.0
C2987 C 0.89929 0.91443 0.20542 0.0
C2988 C 0.88663 0.89464 0.21074 0.0
C2989 C 0.89338 0.92823 0.1866 0.0
C2990 C 0.86771 0.88908 0.197 0.0
C2991 C 0.86165 0.90282 0.17833 0.0
H2992 H 0.45413 0.13776 0.1074 0.0
H2993 H 0.43773 0.13202 0.17887 0.0
H2994 H 0.41221 0.16499 0.1761 0.0
H2995 H 0.39163 0.19326 0.15257 0.0
H2996 H 0.40516 0.19682 0.08044 0.0
H2997 H 0.43459 0.16722 0.0841 0.0
C2998 C 0.44531 0.14408 0.1224 0.0
C2999 C 0.44791 0.13259 0.14334 0.0
C3000 C 0.42989 0.16257 0.12047 0.0
C3001 C 0.436 0.14063 0.16258 0.0
C3002 C 0.42135 0.15944 0.16099 0.0
C3003 C 0.40137 0.18783 0.13779 0.0
C3004 C 0.39631 0.19724 0.11628 0.0
C3005 C 0.41773 0.17024 0.13993 0.0
C3006 C 0.40874 0.18974 0.09715 0.0
C3007 C 0.42554 0.17281 0.09924 0.0
H3008 H 0.39322 0.83821 0.42036 0.0
H3009 H 0.41075 0.79413 0.3638 0.0
H3010 H 0.44303 0.81846 0.35464 0.0
H3011 H 0.46576 0.853 0.36152 0.0
H3012 H 0.44752 0.89806 0.41692 0.0
H3013 H 0.41592 0.8728 0.42728 0.0
C3014 C 0.40389 0.83387 0.40591 0.0
C3015 C 0.39911 0.81413 0.39285 0.0
C3016 C 0.42237 0.84828 0.40034 0.0
C3017 C 0.41375 0.80888 0.37446 0.0
C3018 C 0.43228 0.82296 0.36903 0.0
C3019 C 0.45494 0.85733 0.37592 0.0
C3020 C 0.45909 0.87752 0.38836 0.0
C3021 C 0.43666 0.84279 0.38171 0.0
C3022 C 0.44476 0.88274 0.40694 0.0
C3023 C 0.42667 0.86825 0.41291 0.0
H3024 H 0.12139 0.3294 0.91827 0.0
H3025 H 0.13482 0.30921 0.84878 0.0
H3026 H 0.10378 0.33396 0.83541 0.0
H3027 H 0.07428 0.36342 0.84339 0.0
H3028 H 0.05987 0.38187 0.9131 0.0
H3029 H 0.08958 0.3557 0.9265 0.0
C3030 C 0.11738 0.33027 0.90021 0.0
C3031 C 0.13054 0.31763 0.88453 0.0
C3032 C 0.09933 0.3443 0.89269 0.0
C3033 C 0.12494 0.31871 0.86122 0.0
C3034 C 0.10726 0.33296 0.85355 0.0
C3035 C 0.07756 0.36145 0.8615 0.0
C3036 C 0.06492 0.37456 0.87723 0.0
C3037 C 0.09457 0.34613 0.8691 0.0
C3038 C 0.06917 0.3718 0.90068 0.0
C3039 C 0.08629 0.35696 0.90834 0.0
H3040 H 0.61392 0.70007 0.41988 0.0
H3041 H 0.64633 0.70021 0.35385 0.0
H3042 H 0.62112 0.66948 0.34107 0.0
H3043 H 0.59116 0.64117 0.34927 0.0
H3044 H 0.55705 0.64206 0.41451 0.0
H3045 H 0.58129 0.67383 0.42693 0.0
C3046 C 0.61531 0.69337 0.40269 0.0
C3047 C 0.63204 0.70229 0.38787 0.0
C3048 C 0.60042 0.6759 0.39532 0.0
C3049 C 0.63352 0.69372 0.36551 0.0
C3050 C 0.61917 0.67608 0.35824 0.0
C3051 C 0.58888 0.64847 0.36614 0.0
C3052 C 0.57241 0.63915 0.38099 0.0
C3053 C 0.60272 0.66687 0.37306 0.0
C3054 C 0.56951 0.64896 0.4027 0.0
C3055 C 0.58349 0.66704 0.40986 0.0
H3056 H 0.39286 0.70284 0.35684 0.0
H3057 H 0.38941 0.68881 0.42897 0.0
H3058 H 0.42304 0.66416 0.42623 0.0
H3059 H 0.45142 0.6436 0.40271 0.0
H3060 H 0.45263 0.65456 0.3301 0.0
H3061 H 0.42229 0.6833 0.33348 0.0
C3062 C 0.39979 0.69471 0.37198 0.0
C3063 C 0.38873 0.69774 0.3931 0.0
C3064 C 0.41871 0.67979 0.37011 0.0
C3065 C 0.39762 0.68674 0.41252 0.0
C3066 C 0.41684 0.67259 0.41096 0.0
C3067 C 0.44532 0.65268 0.38776 0.0
C3068 C 0.45433 0.64714 0.3662 0.0
C3069 C 0.42726 0.66856 0.38978 0.0
C3070 C 0.44594 0.65862 0.34685 0.0
C3071 C 0.42857 0.67499 0.34879 0.0
H3072 H 0.13622 0.84664 0.60658 0.0
H3073 H 0.10904 0.79403 0.65061 0.0
H3074 H 0.07704 0.81868 0.66055 0.0
H3075 H 0.05643 0.85508 0.65676 0.0
H3076 H 0.08271 0.90722 0.61173 0.0
H3077 H 0.11508 0.88268 0.60198 0.0
C3078 C 0.12325 0.84036 0.61818 0.0
C3079 C 0.12537 0.81834 0.62785 0.0
C3080 C 0.10458 0.85459 0.62366 0.0
C3081 C 0.10831 0.8109 0.64311 0.0
C3082 C 0.08981 0.82499 0.64873 0.0
C3083 C 0.06922 0.86114 0.64481 0.0
C3084 C 0.06709 0.8831 0.63511 0.0
C3085 C 0.08778 0.84687 0.63915 0.0
C3086 C 0.08385 0.89048 0.61954 0.0
C3087 C 0.10241 0.87643 0.61395 0.0
H3088 H 0.09319 0.63825 0.66151 0.0
H3089 H 0.03861 0.66637 0.62066 0.0
H3090 H 0.0625 0.69905 0.61084 0.0
H3091 H 0.09884 0.71995 0.61397 0.0
H3092 H 0.15324 0.69214 0.65534 0.0
H3093 H 0.1294 0.65931 0.66498 0.0
C3094 C 0.08638 0.65159 0.65064 0.0
C3095 C 0.06402 0.64965 0.64184 0.0
C3096 C 0.10023 0.67051 0.64513 0.0
C3097 C 0.05578 0.66709 0.62746 0.0
C3098 C 0.06943 0.68593 0.62193 0.0
C3099 C 0.10554 0.70673 0.62509 0.0
C3100 C 0.1279 0.70863 0.63386 0.0
C3101 C 0.09169 0.68782 0.63063 0.0
C3102 C 0.13615 0.69124 0.64829 0.0
C3103 C 0.1225 0.6724 0.65383 0.0
H3104 H 0.92248 0.80755 0.61431 0.0
H3105 H 0.86982 0.83358 0.65892 0.0
H3106 H 0.89411 0.86605 0.66882 0.0
H3107 H 0.93023 0.88723 0.66463 0.0
H3108 H 0.98308 0.86059 0.62061 0.0
H3109 H 0.95867 0.82841 0.61054 0.0
C3110 C 0.91624 0.8203 0.62619 0.0
C3111 C 0.89422 0.81804 0.63577 0.0
C3112 C 0.93034 0.83893 0.63189 0.0
C3113 C 0.88659 0.83481 0.65119 0.0
C3114 C 0.90051 0.85342 0.6569 0.0
C3115 C 0.93657 0.87432 0.65301 0.0
C3116 C 0.9586 0.87655 0.6434 0.0
C3117 C 0.92244 0.85566 0.64737 0.0
C3118 C 0.96619 0.85966 0.62807 0.0
C3119 C 0.95225 0.84111 0.62238 0.0
H3120 H 0.66243 0.96318 0.66785 0.0
H3121 H 0.60874 0.9432 0.62144 0.0
H3122 H 0.599 0.91113 0.64618 0.0
H3123 H 0.60561 0.8886 0.68084 0.0
H3124 H 0.66017 0.90759 0.72669 0.0
H3125 H 0.66919 0.94029 0.70261 0.0
C3126 C 0.64859 0.95183 0.66311 0.0
C3127 C 0.6364 0.95572 0.64268 0.0
C3128 C 0.64306 0.93323 0.67744 0.0
C3129 C 0.61851 0.94072 0.63695 0.0
C3130 C 0.61287 0.92233 0.65114 0.0
C3131 C 0.61962 0.89969 0.6856 0.0
C3132 C 0.63214 0.89528 0.70575 0.0
C3133 C 0.62505 0.91837 0.6714 0.0
C3134 C 0.64994 0.9104 0.71158 0.0
C3135 C 0.65528 0.92913 0.69766 0.0
H3136 H 0.1831 0.10259 0.62535 0.0
H3137 H 0.2165 0.16822 0.6249 0.0
H3138 H 0.19305 0.18018 0.59236 0.0
H3139 H 0.16126 0.17262 0.56534 0.0
H3140 H 0.12935 0.1063 0.56507 0.0
H3141 H 0.15398 0.09392 0.59643 0.0
C3142 C 0.1854 0.11945 0.618 0.0
C3143 C 0.20141 0.13455 0.62767 0.0
C3144 C 0.17199 0.12611 0.5992 0.0
C3145 C 0.20436 0.15623 0.61777 0.0
C3146 C 0.19084 0.16313 0.59923 0.0
C3147 C 0.15984 0.15545 0.57214 0.0
C3148 C 0.14342 0.14043 0.56298 0.0
C3149 C 0.17432 0.14834 0.59004 0.0
C3150 C 0.14194 0.11811 0.57171 0.0
C3151 C 0.15594 0.11106 0.58972 0.0
H3152 H 0.42283 0.61683 0.69153 0.0
H3153 H 0.35317 0.63938 0.69971 0.0
H3154 H 0.34075 0.61289 0.67 0.0
H3155 H 0.34993 0.5849 0.64016 0.0
H3156 H 0.41917 0.56075 0.63269 0.0
H3157 H 0.43151 0.58601 0.66368 0.0
C3158 C 0.40495 0.61578 0.68683 0.0
C3159 C 0.38896 0.6301 0.69775 0.0
C3160 C 0.39787 0.60025 0.66984 0.0
C3161 C 0.36577 0.62842 0.69173 0.0
C3162 C 0.35868 0.61336 0.67464 0.0
C3163 C 0.3677 0.58501 0.64545 0.0
C3164 C 0.38364 0.57109 0.634 0.0
C3165 C 0.3746 0.59941 0.66338 0.0
C3166 C 0.40654 0.57124 0.64125 0.0
C3167 C 0.41363 0.58579 0.65889 0.0
H3168 H 0.88348 0.35945 0.59646 0.0
H3169 H 0.85414 0.39943 0.54185 0.0
H3170 H 0.82161 0.40898 0.56606 0.0
H3171 H 0.80107 0.40571 0.6026 0.0
H3172 H 0.82991 0.36485 0.65682 0.0
H3173 H 0.86277 0.35573 0.63276 0.0
C3174 C 0.86993 0.37006 0.58967 0.0
C3175 C 0.87151 0.37866 0.56718 0.0
C3176 C 0.85104 0.37534 0.60365 0.0
C3177 C 0.85375 0.39275 0.55906 0.0
C3178 C 0.83498 0.39813 0.5729 0.0
C3179 C 0.81453 0.39482 0.60922 0.0
C3180 C 0.81291 0.38604 0.63161 0.0
C3181 C 0.83342 0.38953 0.59522 0.0
C3182 C 0.83059 0.3719 0.63973 0.0
C3183 C 0.84944 0.36666 0.62595 0.0
H3184 H 0.66901 0.08448 0.88225 0.0
H3185 H 0.60511 0.04788 0.88135 0.0
H3186 H 0.59206 0.07107 0.84901 0.0
H3187 H 0.59808 0.10356 0.82231 0.0
H3188 H 0.66279 0.13868 0.82262 0.0
H3189 H 0.67627 0.11433 0.8537 0.0
C3190 C 0.65231 0.08142 0.87484 0.0
C3191 C 0.63801 0.06457 0.88432 0.0
C3192 C 0.64501 0.09469 0.85617 0.0
C3193 C 0.6165 0.06067 0.87435 0.0
C3194 C 0.60898 0.07404 0.85594 0.0
C3195 C 0.61515 0.10572 0.82916 0.0
C3196 C 0.62939 0.12294 0.82021 0.0
C3197 C 0.62294 0.09139 0.84694 0.0
C3198 C 0.65158 0.12544 0.82905 0.0
C3199 C 0.65926 0.11159 0.84692 0.0
H3200 H 0.38247 0.16348 0.42458 0.0
H3201 H 0.35318 0.12684 0.48161 0.0
H3202 H 0.32005 0.11724 0.45853 0.0
H3203 H 0.29923 0.11871 0.42189 0.0
H3204 H 0.32803 0.15691 0.36577 0.0
H3205 H 0.36122 0.16642 0.3889 0.0
C3206 C 0.36893 0.15355 0.43226 0.0
C3207 C 0.37089 0.14583 0.45505 0.0
C3208 C 0.34962 0.14823 0.41894 0.0
C3209 C 0.35274 0.13287 0.46418 0.0
C3210 C 0.33356 0.12738 0.45096 0.0
C3211 C 0.31275 0.12913 0.41469 0.0
C3212 C 0.3111 0.13678 0.3919 0.0
C3213 C 0.33185 0.13484 0.42825 0.0
C3214 C 0.32879 0.15047 0.38307 0.0
C3215 C 0.34784 0.15601 0.39635 0.0
H3216 H 0.39307 0.37994 0.84665 0.0
H3217 H 0.40274 0.41982 0.78561 0.0
H3218 H 0.40191 0.45509 0.80821 0.0
H3219 H 0.39966 0.47443 0.84566 0.0
H3220 H 0.38813 0.43421 0.90633 0.0
H3221 H 0.38848 0.39931 0.88364 0.0
C3222 C 0.39505 0.39637 0.83833 0.0
C3223 C 0.39823 0.39728 0.81452 0.0
C3224 C 0.39426 0.41651 0.85141 0.0
C3225 C 0.40025 0.41871 0.80389 0.0
C3226 C 0.39986 0.43884 0.81683 0.0
C3227 C 0.39718 0.45803 0.85392 0.0
C3228 C 0.39411 0.45701 0.87779 0.0
C3229 C 0.39707 0.43794 0.84065 0.0
C3230 C 0.3906 0.4356 0.8881 0.0
C3231 C 0.39084 0.41557 0.8751 0.0
H3232 H 0.66476 0.34647 0.44681 0.0
H3233 H 0.64425 0.41675 0.4557 0.0
H3234 H 0.67238 0.42881 0.42756 0.0
H3235 H 0.7007 0.41939 0.39838 0.0
H3236 H 0.72156 0.34939 0.38853 0.0
H3237 H 0.69566 0.33728 0.41918 0.0
C3238 C 0.66652 0.36441 0.44262 0.0
C3239 C 0.65226 0.38064 0.45339 0.0
C3240 C 0.6828 0.3713 0.42621 0.0
C3241 C 0.65505 0.40388 0.44797 0.0
C3242 C 0.67108 0.41081 0.43171 0.0
C3243 C 0.69981 0.40148 0.40307 0.0
C3244 C 0.71295 0.38531 0.39101 0.0
C3245 C 0.68476 0.39466 0.42048 0.0
C3246 C 0.71172 0.36222 0.39754 0.0
C3247 C 0.69676 0.35528 0.41496 0.0
H3248 H 0.68399 0.6021 0.89455 0.0
H3249 H 0.7229 0.66363 0.90628 0.0
H3250 H 0.69915 0.67253 0.93923 0.0
H3251 H 0.66638 0.66373 0.96412 0.0
H3252 H 0.62666 0.6029 0.95157 0.0
H3253 H 0.65143 0.59316 0.91947 0.0
C3254 C 0.68727 0.61755 0.90415 0.0
C3255 C 0.70537 0.63212 0.89765 0.0
C3256 C 0.67324 0.62283 0.92299 0.0
C3257 C 0.70942 0.65184 0.91079 0.0
C3258 C 0.69567 0.65709 0.92965 0.0
C3259 C 0.66314 0.6483 0.95443 0.0
C3260 C 0.64456 0.63413 0.96034 0.0
C3261 C 0.67742 0.64281 0.93582 0.0
C3262 C 0.64073 0.6142 0.94748 0.0
C3263 C 0.65493 0.60859 0.92907 0.0
H3264 H 0.89839 0.06271 0.36762 0.0
H3265 H 0.83438 0.09492 0.3854 0.0
H3266 H 0.83884 0.12173 0.35397 0.0
H3267 H 0.86123 0.13681 0.32159 0.0
H3268 H 0.92435 0.10345 0.30294 0.0
H3269 H 0.91966 0.07637 0.3342 0.0
C3270 C 0.8852 0.07533 0.36456 0.0
C3271 C 0.86617 0.07671 0.37931 0.0
C3272 C 0.8877 0.09069 0.34616 0.0
C3273 C 0.84948 0.09353 0.37484 0.0
C3274 C 0.85193 0.1089 0.35669 0.0
C3275 C 0.87393 0.12359 0.32432 0.0
C3276 C 0.89316 0.12234 0.30987 0.0
C3277 C 0.87107 0.1078 0.34233 0.0
C3278 C 0.90935 0.10493 0.31368 0.0
C3279 C 0.90672 0.08938 0.33163 0.0
H3280 H 0.32804 0.92488 0.90658 0.0
H3281 H 0.31427 0.85599 0.88475 0.0
H3282 H 0.34391 0.8415 0.91034 0.0
H3283 H 0.37539 0.84861 0.93715 0.0
H3284 H 0.38827 0.9171 0.96085 0.0
H3285 H 0.35731 0.93158 0.9366 0.0
C3286 C 0.33146 0.90671 0.90769 0.0
C3287 C 0.31901 0.89152 0.89382 0.0
C3288 C 0.34841 0.89846 0.92271 0.0
C3289 C 0.32343 0.86797 0.89544 0.0
C3290 C 0.34049 0.8597 0.90996 0.0
C3291 C 0.37128 0.86669 0.93715 0.0
C3292 C 0.38423 0.88179 0.95061 0.0
C3293 C 0.35331 0.87481 0.92342 0.0
C3294 C 0.37852 0.90512 0.95069 0.0
C3295 C 0.3609 0.91342 0.93672 0.0
H3296 H 0.16795 0.42585 0.37573 0.0
H3297 H 0.10815 0.46792 0.36505 0.0
H3298 H 0.09825 0.4457 0.33154 0.0
H3299 H 0.10562 0.41354 0.30568 0.0
H3300 H 0.16434 0.37032 0.31718 0.0
H3301 H 0.17523 0.39353 0.35003 0.0
C3302 C 0.15265 0.43015 0.36626 0.0
C3303 C 0.13895 0.44875 0.37322 0.0
C3304 C 0.1467 0.41695 0.34707 0.0
C3305 C 0.11937 0.45407 0.36023 0.0
C3306 C 0.11351 0.44119 0.34102 0.0
C3307 C 0.12085 0.4092 0.31531 0.0
C3308 C 0.1341 0.39016 0.30889 0.0
C3309 C 0.12695 0.42251 0.33435 0.0
C3310 C 0.15375 0.38482 0.32169 0.0
C3311 C 0.16002 0.39811 0.34051 0.0
H3312 H 0.67288 0.36484 0.55458 0.0
H3313 H 0.61836 0.40791 0.57942 0.0
H3314 H 0.64076 0.41684 0.61343 0.0
H3315 H 0.67574 0.41223 0.63636 0.0
H3316 H 0.73069 0.37018 0.61063 0.0
H3317 H 0.70809 0.36094 0.57704 0.0
C3318 C 0.66583 0.37618 0.56741 0.0
C3319 C 0.64382 0.38555 0.56437 0.0
C3320 C 0.67888 0.3814 0.58693 0.0
C3321 C 0.63514 0.40031 0.58124 0.0
C3322 C 0.64798 0.40547 0.60074 0.0
C3323 C 0.68294 0.40121 0.62338 0.0
C3324 C 0.70501 0.39187 0.62636 0.0
C3325 C 0.66989 0.39611 0.60379 0.0
C3326 C 0.71372 0.37737 0.60925 0.0
C3327 C 0.70082 0.37216 0.58984 0.0
H3328 H 0.61373 0.09768 0.71871 0.0
H3329 H 0.65329 0.1531 0.69041 0.0
H3330 H 0.66227 0.12986 0.65698 0.0
H3331 H 0.65852 0.09397 0.63553 0.0
H3332 H 0.62018 0.0381 0.66471 0.0
H3333 H 0.61095 0.06147 0.6978 0.0
C3334 C 0.6243 0.10475 0.70524 0.0
C3335 C 0.63267 0.12724 0.70711 0.0
C3336 C 0.62958 0.0912 0.6861 0.0
C3337 C 0.64649 0.13594 0.68948 0.0
C3338 C 0.65166 0.12262 0.67031 0.0
C3339 C 0.64835 0.08673 0.64917 0.0
C3340 C 0.64001 0.06417 0.64732 0.0
C3341 C 0.64329 0.10022 0.66842 0.0
C3342 C 0.62657 0.05541 0.66525 0.0
C3343 C 0.62137 0.06876 0.68435 0.0
H3344 H 0.31979 0.1559 0.62399 0.0
H3345 H 0.32066 0.08302 0.61447 0.0
H3346 H 0.35083 0.08675 0.58563 0.0
H3347 H 0.37947 0.1106 0.56564 0.0
H3348 H 0.38093 0.18309 0.57837 0.0
H3349 H 0.34739 0.17986 0.60305 0.0
C3350 C 0.3263 0.14095 0.6152 0.0
C3351 C 0.31796 0.11924 0.62115 0.0
C3352 C 0.34424 0.1432 0.59929 0.0
C3353 C 0.32687 0.09989 0.61007 0.0
C3354 C 0.34412 0.10203 0.59365 0.0
C3355 C 0.37211 0.12569 0.57349 0.0
C3356 C 0.38254 0.14707 0.57011 0.0
C3357 C 0.35331 0.12356 0.58845 0.0
C3358 C 0.37317 0.16645 0.58074 0.0
C3359 C 0.35402 0.16461 0.59489 0.0
H3360 H 0.34583 0.4453 0.65334 0.0
H3361 H 0.41595 0.45902 0.63566 0.0
H3362 H 0.42888 0.42991 0.6627 0.0
H3363 H 0.42011 0.39866 0.68939 0.0
H3364 H 0.3502 0.38589 0.70879 0.0
H3365 H 0.33729 0.41657 0.68338 0.0
C3366 C 0.36391 0.44201 0.65567 0.0
C3367 C 0.37992 0.45424 0.64251 0.0
C3368 C 0.37123 0.42537 0.6715 0.0
C3369 C 0.40334 0.45 0.64574 0.0
C3370 C 0.41072 0.43325 0.66109 0.0
C3371 C 0.40207 0.40278 0.68825 0.0
C3372 C 0.38613 0.3899 0.70082 0.0
C3373 C 0.39482 0.42058 0.67379 0.0
C3374 C 0.36283 0.39559 0.69937 0.0
C3375 C 0.35543 0.41305 0.68472 0.0
H3376 H 0.9676 0.6721 0.65453 0.0
H3377 H 0.93965 0.61914 0.61159 0.0
H3378 H 0.90749 0.6439 0.60172 0.0
H3379 H 0.88701 0.68043 0.60568 0.0
H3380 H 0.91583 0.73369 0.64769 0.0
H3381 H 0.94774 0.70886 0.65763 0.0
C3382 C 0.95449 0.6659 0.64302 0.0
C3383 C 0.95605 0.64366 0.63396 0.0
C3384 C 0.9361 0.68029 0.63728 0.0
C3385 C 0.93891 0.63609 0.61894 0.0
C3386 C 0.92048 0.65027 0.61325 0.0
C3387 C 0.90034 0.68676 0.61682 0.0
C3388 C 0.89877 0.70898 0.62599 0.0
C3389 C 0.91888 0.67241 0.62234 0.0
C3390 C 0.91622 0.71662 0.64065 0.0
C3391 C 0.93463 0.70244 0.64626 0.0
H3392 H 0.89999 0.32918 0.92548 0.0
H3393 H 0.87873 0.31635 0.85627 0.0
H3394 H 0.90576 0.34493 0.84227 0.0
H3395 H 0.93382 0.37516 0.84986 0.0
H3396 H 0.95684 0.38705 0.91872 0.0
H3397 H 0.93105 0.35718 0.93273 0.0
C3398 C 0.90148 0.33261 0.90735 0.0
C3399 C 0.88738 0.32076 0.89192 0.0
C3400 C 0.91735 0.3489 0.89939 0.0
C3401 C 0.88955 0.32512 0.86843 0.0
C3402 C 0.9049 0.34154 0.86044 0.0
C3403 C 0.93335 0.37105 0.86791 0.0
C3404 C 0.94708 0.38341 0.88325 0.0
C3405 C 0.91867 0.35374 0.87577 0.0
C3406 C 0.9465 0.37773 0.90656 0.0
C3407 C 0.93164 0.36075 0.91458 0.0
H3408 H 0.60097 0.80303 0.40446 0.0
H3409 H 0.65473 0.83112 0.3625 0.0
H3410 H 0.63084 0.86417 0.3537 0.0
H3411 H 0.5948 0.88537 0.35813 0.0
H3412 H 0.54083 0.85696 0.39954 0.0
H3413 H 0.56477 0.82402 0.40848 0.0
C3414 C 0.60751 0.81635 0.39338 0.0
C3415 C 0.62972 0.81449 0.38423 0.0
C3416 C 0.59364 0.83538 0.38833 0.0
C3417 C 0.63778 0.83201 0.36987 0.0
C3418 C 0.6241 0.85097 0.3648 0.0
C3419 C 0.58814 0.87191 0.36893 0.0
C3420 C 0.56596 0.87383 0.37816 0.0
C3421 C 0.60199 0.85285 0.37392 0.0
C3422 C 0.55789 0.85624 0.39243 0.0
C3423 C 0.57155 0.83726 0.39746 0.0
H3424 H 0.1233 0.18131 0.91979 0.0
H3425 H 0.10999 0.22378 0.8609 0.0
H3426 H 0.07669 0.20081 0.85167 0.0
H3427 H 0.05211 0.16759 0.85906 0.0
H3428 H 0.06633 0.12401 0.91682 0.0
H3429 H 0.09857 0.14828 0.9274 0.0
C3430 C 0.1133 0.18556 0.90483 0.0
C3431 C 0.11953 0.20442 0.89112 0.0
C3432 C 0.09426 0.17193 0.89926 0.0
C3433 C 0.1058 0.20968 0.87206 0.0
C3434 C 0.0867 0.19638 0.8666 0.0
C3435 C 0.06216 0.16342 0.87405 0.0
C3436 C 0.05672 0.14391 0.88708 0.0
C3437 C 0.08089 0.17734 0.87993 0.0
C3438 C 0.07007 0.13884 0.90641 0.0
C3439 C 0.08855 0.15274 0.91249 0.0
H3440 H 0.88462 0.18452 0.92098 0.0
H3441 H 0.88591 0.22037 0.85665 0.0
H3442 H 0.91825 0.19688 0.84408 0.0
H3443 H 0.9447 0.16436 0.85061 0.0
H3444 H 0.94354 0.12949 0.91545 0.0
H3445 H 0.91278 0.15441 0.92862 0.0
C3446 C 0.89209 0.18735 0.90426 0.0
C3447 C 0.88271 0.20406 0.88971 0.0
C3448 C 0.91068 0.17384 0.89721 0.0
C3449 C 0.8928 0.20767 0.86822 0.0
C3450 C 0.91122 0.19414 0.86098 0.0
C3451 C 0.93773 0.16232 0.86763 0.0
C3452 C 0.94635 0.145 0.88199 0.0
C3453 C 0.92004 0.17688 0.87517 0.0
C3454 C 0.93738 0.14276 0.90414 0.0
C3455 C 0.91968 0.15694 0.91163 0.0
H3456 H 0.58587 0.38022 0.17205 0.0
H3457 H 0.55115 0.37314 0.10755 0.0
H3458 H 0.57593 0.34085 0.09761 0.0
H3459 H 0.60938 0.3162 0.10632 0.0
H3460 H 0.64248 0.32214 0.1717 0.0
H3461 H 0.61647 0.35315 0.18233 0.0
C3462 C 0.58356 0.37143 0.15592 0.0
C3463 C 0.56679 0.37919 0.14049 0.0
C3464 C 0.59772 0.35275 0.15044 0.0
C3465 C 0.56384 0.36747 0.11976 0.0
C3466 C 0.57813 0.3491 0.11402 0.0
C3467 C 0.61073 0.32425 0.12292 0.0
C3468 C 0.62794 0.31705 0.13815 0.0
C3469 C 0.59542 0.34185 0.12904 0.0
C3470 C 0.62934 0.32733 0.15976 0.0
C3471 C 0.61453 0.34513 0.16578 0.0
H3472 H 0.59714 0.21899 0.1266 0.0
H3473 H 0.65433 0.1862 0.15978 0.0
H3474 H 0.63116 0.15229 0.16668 0.0
H3475 H 0.59513 0.13158 0.16262 0.0
H3476 H 0.53725 0.16473 0.1309 0.0
H3477 H 0.56036 0.19861 0.12395 0.0
C3478 C 0.60456 0.20445 0.13537 0.0
C3479 C 0.62758 0.20522 0.14251 0.0
C3480 C 0.59105 0.18494 0.13947 0.0
C3481 C 0.63676 0.18619 0.15399 0.0
C3482 C 0.62349 0.16672 0.15795 0.0
C3483 C 0.5873 0.14619 0.15443 0.0
C3484 C 0.56426 0.14521 0.14726 0.0
C3485 C 0.60064 0.16586 0.15071 0.0
C3486 C 0.55489 0.16455 0.13638 0.0
C3487 C 0.56812 0.18411 0.13247 0.0
H3488 H 0.4453 0.3726 0.11753 0.0
H3489 H 0.4484 0.3619 0.19014 0.0
H3490 H 0.41926 0.33197 0.18742 0.0
H3491 H 0.39014 0.31128 0.16475 0.0
H3492 H 0.38436 0.32508 0.09278 0.0
H3493 H 0.41723 0.35088 0.09464 0.0
C3494 C 0.43988 0.36334 0.13262 0.0
C3495 C 0.44907 0.36932 0.154 0.0
C3496 C 0.42248 0.34671 0.131 0.0
C3497 C 0.44155 0.35756 0.17353 0.0
C3498 C 0.42487 0.34048 0.17196 0.0
C3499 C 0.3965 0.31955 0.14943 0.0
C3500 C 0.38512 0.31604 0.12858 0.0
C3501 C 0.41483 0.3352 0.15086 0.0
C3502 C 0.39304 0.32736 0.10896 0.0
C3503 C 0.41176 0.34221 0.11005 0.0
loop_
_geom_bond_atom_site_label_1
_geom_bond_atom_site_label_2
_geom_bond_distance
_geom_bond_site_symmetry_2
_ccdc_geom_bond_type
C0 C1 1.351 . S
C0 N3 1.368 . S
C0 H5 0.931 . S
C1 C0 1.351 . S
C1 N2 1.373 . S
C1 H29 0.930 . S
N2 C1 1.373 . S
N2 C4 1.340 . S
N3 C0 1.368 . S
N3 C4 1.321 . S
N3 Co6 2.135 . S
C4 N2 1.340 . S
C4 N3 1.321 . S
C4 H28 0.930 . S
H5 C0 0.931 . S
Co6 N3 2.135 . S
Co6 N9 2.121 . S
Co6 O14 2.055 . S
Co6 O17 2.039 . S
Co6 N20 2.140 . S
C7 O8 1.227 . S
C7 O17 1.265 . S
O8 C7 1.227 . S
N9 Co6 2.121 . S
N9 C11 1.375 . S
N9 C12 1.313 . S
C10 C11 1.338 . S
C10 N13 1.377 . S
C10 H30 0.930 . S
C11 N9 1.375 . S
C11 C10 1.338 . S
C11 H15 0.931 . S
C12 N9 1.313 . S
C12 N13 1.344 . S
C12 H16 0.930 . S
N13 C10 1.377 . S
N13 C12 1.344 . S
O14 Co6 2.055 . S
O14 C18 1.253 . S
H15 C11 0.931 . S
H16 C12 0.930 . S
O17 Co6 2.039 . S
O17 C7 1.265 . S
C18 O14 1.253 . S
C18 O19 1.227 . S
O19 C18 1.227 . S
N20 Co6 2.140 . S
N20 C23 1.346 . S
N20 C24 1.345 . S
C21 C22 1.387 . S
C21 C25 1.391 . S
C22 C21 1.387 . S
C22 C23 1.369 . S
C22 H31 0.929 . S
C23 N20 1.346 . S
C23 C22 1.369 . S
C23 H26 0.928 . S
C24 N20 1.345 . S
C24 C25 1.371 . S
C24 H27 0.931 . S
C25 C21 1.391 . S
C25 C24 1.371 . S
C25 H32 0.930 . S
H26 C23 0.928 . S
H27 C24 0.931 . S
H28 C4 0.930 . S
H29 C1 0.930 . S
H30 C10 0.930 . S
H31 C22 0.929 . S
H32 C25 0.930 . S
C33 C34 1.351 . S
C33 N36 1.368 . S
C33 H38 0.931 . S
C34 C33 1.351 . S
C34 N35 1.373 . S
C34 H62 0.930 . S
N35 C34 1.373 . S
N35 C37 1.340 . S
N36 C33 1.368 . S
N36 C37 1.321 . S
N36 Co39 2.135 . S
C37 N35 1.340 . S
C37 N36 1.321 . S
C37 H61 0.930 . S
H38 C33 0.931 . S
Co39 N36 2.135 . S
Co39 N42 2.121 1_554 S
Co39 O47 2.055 . S
Co39 O50 2.039 1_554 S
Co39 N53 2.140 . S
C40 O41 1.227 . S
C40 O50 1.265 . S
O41 C40 1.227 . S
N42 Co39 2.121 1_556 S
N42 C44 1.375 . S
N42 C45 1.313 . S
C43 C44 1.338 . S
C43 N46 1.377 . S
C43 H63 0.930 . S
C44 N42 1.375 . S
C44 C43 1.338 . S
C44 H48 0.931 . S
C45 N42 1.313 . S
C45 N46 1.344 . S
C45 H49 0.930 1_556 S
N46 C43 1.377 . S
N46 C45 1.344 . S
O47 Co39 2.055 . S
O47 C51 1.253 . S
H48 C44 0.931 . S
H49 C45 0.930 1_554 S
O50 Co39 2.039 1_556 S
O50 C40 1.265 . S
C51 O47 1.253 . S
C51 O52 1.227 . S
O52 C51 1.227 . S
N53 Co39 2.140 . S
N53 C56 1.346 . S
N53 C57 1.345 . S
C54 C55 1.387 . S
C54 C58 1.391 . S
C55 C54 1.387 . S
C55 C56 1.369 . S
C55 H64 0.929 . S
C56 N53 1.346 . S
C56 C55 1.369 . S
C56 H59 0.928 . S
C57 N53 1.345 . S
C57 C58 1.371 . S
C57 H60 0.931 . S
C58 C54 1.391 . S
C58 C57 1.371 . S
C58 H65 0.930 . S
H59 C56 0.928 . S
H60 C57 0.931 . S
H61 C37 0.930 . S
H62 C34 0.930 . S
H63 C43 0.930 . S
H64 C55 0.929 . S
H65 C58 0.930 . S
C66 C67 1.351 . S
C66 N69 1.368 . S
C66 H71 0.931 . S
C67 C66 1.351 . S
C67 N68 1.373 . S
C67 H95 0.930 . S
N68 C67 1.373 . S
N68 C70 1.340 . S
N69 C66 1.368 . S
N69 C70 1.321 . S
N69 Co72 2.135 . S
C70 N68 1.340 . S
C70 N69 1.321 . S
C70 H94 0.930 . S
H71 C66 0.931 . S
Co72 N69 2.135 . S
Co72 N75 2.121 . S
Co72 O80 2.055 . S
Co72 O83 2.039 . S
Co72 N86 2.140 . S
C73 O74 1.227 . S
C73 O83 1.265 . S
O74 C73 1.227 . S
N75 Co72 2.121 . S
N75 C77 1.375 . S
N75 C78 1.313 . S
C76 C77 1.338 . S
C76 N79 1.377 . S
C76 H96 0.930 . S
C77 N75 1.375 . S
C77 C76 1.338 . S
C77 H81 0.931 . S
C78 N75 1.313 . S
C78 N79 1.344 . S
C78 H82 0.930 . S
N79 C76 1.377 . S
N79 C78 1.344 . S
O80 Co72 2.055 . S
O80 C84 1.253 . S
H81 C77 0.931 . S
H82 C78 0.930 . S
O83 Co72 2.039 . S
O83 C73 1.265 . S
C84 O80 1.253 . S
C84 O85 1.227 . S
O85 C84 1.227 . S
N86 Co72 2.140 . S
N86 C89 1.346 . S
N86 C90 1.345 . S
C87 C88 1.387 . S
C87 C91 1.391 . S
C88 C87 1.387 . S
C88 C89 1.369 . S
C88 H97 0.929 . S
C89 N86 1.346 . S
C89 C88 1.369 . S
C89 H92 0.928 . S
C90 N86 1.345 . S
C90 C91 1.371 . S
C90 H93 0.931 . S
C91 C87 1.391 . S
C91 C90 1.371 . S
C91 H98 0.930 . S
H92 C89 0.928 . S
H93 C90 0.931 . S
H94 C70 0.930 . S
H95 C67 0.930 . S
H96 C76 0.930 . S
H97 C88 0.929 . S
H98 C91 0.930 . S
C99 C100 1.351 . S
C99 N102 1.368 . S
C99 H104 0.931 . S
C100 C99 1.351 . S
C100 N101 1.373 . S
C100 H128 0.930 . S
N101 C100 1.373 . S
N101 C103 1.340 . S
N102 C99 1.368 . S
N102 C103 1.321 . S
N102 Co105 2.135 . S
C103 N101 1.340 . S
C103 N102 1.321 . S
C103 H127 0.930 . S
H104 C99 0.931 . S
Co105 N102 2.135 . S
Co105 N108 2.121 1_554 S
Co105 O113 2.055 . S
Co105 O116 2.039 1_554 S
Co105 N119 2.140 . S
C106 O107 1.227 . S
C106 O116 1.265 . S
O107 C106 1.227 . S
N108 Co105 2.121 1_556 S
N108 C110 1.375 . S
N108 C111 1.313 . S
C109 C110 1.338 . S
C109 N112 1.377 . S
C109 H129 0.930 . S
C110 N108 1.375 . S
C110 C109 1.338 . S
C110 H114 0.931 . S
C111 N108 1.313 . S
C111 N112 1.344 . S
C111 H115 0.930 1_556 S
N112 C109 1.377 . S
N112 C111 1.344 . S
O113 Co105 2.055 . S
O113 C117 1.253 . S
H114 C110 0.931 . S
H115 C111 0.930 1_554 S
O116 Co105 2.039 1_556 S
O116 C106 1.265 . S
C117 O113 1.253 . S
C117 O118 1.227 . S
O118 C117 1.227 . S
N119 Co105 2.140 . S
N119 C122 1.346 . S
N119 C123 1.345 . S
C120 C121 1.387 . S
C120 C124 1.391 . S
C121 C120 1.387 . S
C121 C122 1.369 . S
C121 H130 0.929 . S
C122 N119 1.346 . S
C122 C121 1.369 . S
C122 H125 0.928 . S
C123 N119 1.345 . S
C123 C124 1.371 . S
C123 H126 0.931 . S
C124 C120 1.391 . S
C124 C123 1.371 . S
C124 H131 0.930 . S
H125 C122 0.928 . S
H126 C123 0.931 . S
H127 C103 0.930 . S
H128 C100 0.930 . S
H129 C109 0.930 . S
H130 C121 0.929 . S
H131 C124 0.930 . S
C132 C133 1.351 . S
C132 N135 1.368 . S
C132 H137 0.931 . S
C133 C132 1.351 . S
C133 N134 1.373 . S
C133 H161 0.930 . S
N134 C133 1.373 . S
N134 C136 1.340 . S
N135 C132 1.368 . S
N135 C136 1.321 . S
N135 Co138 2.135 . S
C136 N134 1.340 . S
C136 N135 1.321 . S
C136 H160 0.930 . S
H137 C132 0.931 . S
Co138 N135 2.135 . S
Co138 N141 2.121 . S
Co138 O146 2.055 . S
Co138 O149 2.039 . S
Co138 N152 2.140 . S
C139 O140 1.227 . S
C139 O149 1.265 . S
O140 C139 1.227 . S
N141 Co138 2.121 . S
N141 C143 1.375 . S
N141 C144 1.313 . S
C142 C143 1.338 . S
C142 N145 1.377 . S
C142 H162 0.930 . S
C143 N141 1.375 . S
C143 C142 1.338 . S
C143 H147 0.931 . S
C144 N141 1.313 . S
C144 N145 1.344 . S
C144 H148 0.930 . S
N145 C142 1.377 . S
N145 C144 1.344 . S
O146 Co138 2.055 . S
O146 C150 1.253 . S
H147 C143 0.931 . S
H148 C144 0.930 . S
O149 Co138 2.039 . S
O149 C139 1.265 . S
C150 O146 1.253 . S
C150 O151 1.227 . S
O151 C150 1.227 . S
N152 Co138 2.140 . S
N152 C155 1.346 . S
N152 C156 1.345 . S
C153 C154 1.387 . S
C153 C157 1.391 . S
C154 C153 1.387 . S
C154 C155 1.369 . S
C154 H163 0.929 . S
C155 N152 1.346 . S
C155 C154 1.369 . S
C155 H158 0.928 . S
C156 N152 1.345 . S
C156 C157 1.371 . S
C156 H159 0.931 . S
C157 C153 1.391 . S
C157 C156 1.371 . S
C157 H164 0.930 . S
H158 C155 0.928 . S
H159 C156 0.931 . S
H160 C136 0.930 . S
H161 C133 0.930 . S
H162 C142 0.930 . S
H163 C154 0.929 . S
H164 C157 0.930 . S
C165 C166 1.351 . S
C165 N168 1.368 . S
C165 H170 0.931 . S
C166 C165 1.351 . S
C166 N167 1.373 . S
C166 H194 0.930 . S
N167 C166 1.373 . S
N167 C169 1.340 . S
N168 C165 1.368 . S
N168 C169 1.321 . S
N168 Co171 2.135 . S
C169 N167 1.340 . S
C169 N168 1.321 . S
C169 H193 0.930 . S
H170 C165 0.931 . S
Co171 N168 2.135 . S
Co171 N174 2.121 1_556 S
Co171 O179 2.055 . S
Co171 O182 2.039 1_556 S
Co171 N185 2.140 . S
C172 O173 1.227 . S
C172 O182 1.265 . S
O173 C172 1.227 . S
N174 Co171 2.121 1_554 S
N174 C176 1.375 . S
N174 C177 1.313 . S
C175 C176 1.338 . S
C175 N178 1.377 . S
C175 H195 0.930 . S
C176 N174 1.375 . S
C176 C175 1.338 . S
C176 H180 0.931 . S
C177 N174 1.313 . S
C177 N178 1.344 . S
C177 H181 0.930 1_554 S
N178 C175 1.377 . S
N178 C177 1.344 . S
O179 Co171 2.055 . S
O179 C183 1.253 . S
H180 C176 0.931 . S
H181 C177 0.930 1_556 S
O182 Co171 2.039 1_554 S
O182 C172 1.265 . S
C183 O179 1.253 . S
C183 O184 1.227 . S
O184 C183 1.227 . S
N185 Co171 2.140 . S
N185 C188 1.346 . S
N185 C189 1.345 . S
C186 C187 1.387 . S
C186 C190 1.391 . S
C187 C186 1.387 . S
C187 C188 1.369 . S
C187 H196 0.929 . S
C188 N185 1.346 . S
C188 C187 1.369 . S
C188 H191 0.928 . S
C189 N185 1.345 . S
C189 C190 1.371 . S
C189 H192 0.931 . S
C190 C186 1.391 . S
C190 C189 1.371 . S
C190 H197 0.930 . S
H191 C188 0.928 . S
H192 C189 0.931 . S
H193 C169 0.930 . S
H194 C166 0.930 . S
H195 C175 0.930 . S
H196 C187 0.929 . S
H197 C190 0.930 . S
C198 C199 1.351 . S
C198 N201 1.368 . S
C198 H203 0.931 . S
C199 C198 1.351 . S
C199 N200 1.373 . S
C199 H227 0.930 . S
N200 C199 1.373 . S
N200 C202 1.340 . S
N201 C198 1.368 . S
N201 C202 1.321 . S
N201 Co204 2.135 . S
C202 N200 1.340 . S
C202 N201 1.321 . S
C202 H226 0.930 . S
H203 C198 0.931 . S
Co204 N201 2.135 . S
Co204 N207 2.121 . S
Co204 O212 2.055 . S
Co204 O215 2.039 . S
Co204 N218 2.140 . S
C205 O206 1.227 . S
C205 O215 1.265 . S
O206 C205 1.227 . S
N207 Co204 2.121 . S
N207 C209 1.375 . S
N207 C210 1.313 . S
C208 C209 1.338 . S
C208 N211 1.377 . S
C208 H228 0.930 . S
C209 N207 1.375 . S
C209 C208 1.338 . S
C209 H213 0.931 . S
C210 N207 1.313 . S
C210 N211 1.344 . S
C210 H214 0.930 . S
N211 C208 1.377 . S
N211 C210 1.344 . S
O212 Co204 2.055 . S
O212 C216 1.253 . S
H213 C209 0.931 . S
H214 C210 0.930 . S
O215 Co204 2.039 . S
O215 C205 1.265 . S
C216 O212 1.253 . S
C216 O217 1.227 . S
O217 C216 1.227 . S
N218 Co204 2.140 . S
N218 C221 1.346 . S
N218 C222 1.345 . S
C219 C220 1.387 . S
C219 C223 1.391 . S
C220 C219 1.387 . S
C220 C221 1.369 . S
C220 H229 0.929 . S
C221 N218 1.346 . S
C221 C220 1.369 . S
C221 H224 0.928 . S
C222 N218 1.345 . S
C222 C223 1.371 . S
C222 H225 0.931 . S
C223 C219 1.391 . S
C223 C222 1.371 . S
C223 H230 0.930 . S
H224 C221 0.928 . S
H225 C222 0.931 . S
H226 C202 0.930 . S
H227 C199 0.930 . S
H228 C208 0.930 . S
H229 C220 0.929 . S
H230 C223 0.930 . S
C231 C232 1.351 . S
C231 N234 1.368 . S
C231 H236 0.931 . S
C232 C231 1.351 . S
C232 N233 1.373 . S
C232 H260 0.930 . S
N233 C232 1.373 . S
N233 C235 1.340 . S
N234 C231 1.368 . S
N234 C235 1.321 . S
N234 Co237 2.135 . S
C235 N233 1.340 . S
C235 N234 1.321 . S
C235 H259 0.930 . S
H236 C231 0.931 . S
Co237 N234 2.135 . S
Co237 N240 2.121 1_556 S
Co237 O245 2.055 . S
Co237 O248 2.039 1_556 S
Co237 N251 2.140 . S
C238 O239 1.227 . S
C238 O248 1.265 . S
O239 C238 1.227 . S
N240 Co237 2.121 1_554 S
N240 C242 1.375 . S
N240 C243 1.313 . S
C241 C242 1.338 . S
C241 N244 1.377 . S
C241 H261 0.930 . S
C242 N240 1.375 . S
C242 C241 1.338 . S
C242 H246 0.931 . S
C243 N240 1.313 . S
C243 N244 1.344 . S
C243 H247 0.930 1_554 S
N244 C241 1.377 . S
N244 C243 1.344 . S
O245 Co237 2.055 . S
O245 C249 1.253 . S
H246 C242 0.931 . S
H247 C243 0.930 1_556 S
O248 Co237 2.039 1_554 S
O248 C238 1.265 . S
C249 O245 1.253 . S
C249 O250 1.227 . S
O250 C249 1.227 . S
N251 Co237 2.140 . S
N251 C254 1.346 . S
N251 C255 1.345 . S
C252 C253 1.387 . S
C252 C256 1.391 . S
C253 C252 1.387 . S
C253 C254 1.369 . S
C253 H262 0.929 . S
C254 N251 1.346 . S
C254 C253 1.369 . S
C254 H257 0.928 . S
C255 N251 1.345 . S
C255 C256 1.371 . S
C255 H258 0.931 . S
C256 C252 1.391 . S
C256 C255 1.371 . S
C256 H263 0.930 . S
H257 C254 0.928 . S
H258 C255 0.931 . S
H259 C235 0.930 . S
H260 C232 0.930 . S
H261 C241 0.930 . S
H262 C253 0.929 . S
H263 C256 0.930 . S
C264 C265 1.351 . S
C264 N267 1.368 . S
C264 H269 0.931 . S
C265 C264 1.351 . S
C265 N266 1.373 . S
C265 H293 0.930 . S
N266 C265 1.373 . S
N266 C268 1.340 . S
N267 C264 1.368 . S
N267 C268 1.321 . S
N267 Co270 2.135 . S
C268 N266 1.340 . S
C268 N267 1.321 . S
C268 H292 0.930 . S
H269 C264 0.931 . S
Co270 N267 2.135 . S
Co270 N273 2.121 . S
Co270 O278 2.055 . S
Co270 O281 2.039 . S
Co270 N284 2.140 . S
C271 O272 1.227 . S
C271 O281 1.265 . S
O272 C271 1.227 . S
N273 Co270 2.121 . S
N273 C275 1.375 . S
N273 C276 1.313 . S
C274 C275 1.338 . S
C274 N277 1.377 . S
C274 H294 0.930 . S
C275 N273 1.375 . S
C275 C274 1.338 . S
C275 H279 0.931 . S
C276 N273 1.313 . S
C276 N277 1.344 . S
C276 H280 0.930 . S
N277 C274 1.377 . S
N277 C276 1.344 . S
O278 Co270 2.055 . S
O278 C282 1.253 . S
H279 C275 0.931 . S
H280 C276 0.930 . S
O281 Co270 2.039 . S
O281 C271 1.265 . S
C282 O278 1.253 . S
C282 O283 1.227 . S
O283 C282 1.227 . S
N284 Co270 2.140 . S
N284 C287 1.346 . S
N284 C288 1.345 . S
C285 C286 1.387 . S
C285 C289 1.391 . S
C286 C285 1.387 . S
C286 C287 1.369 . S
C286 H295 0.929 . S
C287 N284 1.346 . S
C287 C286 1.369 . S
C287 H290 0.928 . S
C288 N284 1.345 . S
C288 C289 1.371 . S
C288 H291 0.931 . S
C289 C285 1.391 . S
C289 C288 1.371 . S
C289 H296 0.930 . S
H290 C287 0.928 . S
H291 C288 0.931 . S
H292 C268 0.930 . S
H293 C265 0.930 . S
H294 C274 0.930 . S
H295 C286 0.929 . S
H296 C289 0.930 . S
C297 C298 1.351 . S
C297 N300 1.368 . S
C297 H302 0.931 . S
C298 C297 1.351 . S
C298 N299 1.373 . S
C298 H326 0.930 . S
N299 C298 1.373 . S
N299 C301 1.340 . S
N300 C297 1.368 . S
N300 C301 1.321 . S
N300 Co303 2.135 . S
C301 N299 1.340 . S
C301 N300 1.321 . S
C301 H325 0.930 . S
H302 C297 0.931 . S
Co303 N300 2.135 . S
Co303 N306 2.121 . S
Co303 O311 2.055 . S
Co303 O314 2.039 . S
Co303 N317 2.140 . S
C304 O305 1.227 . S
C304 O314 1.265 . S
O305 C304 1.227 . S
N306 Co303 2.121 . S
N306 C308 1.375 . S
N306 C309 1.313 . S
C307 C308 1.338 . S
C307 N310 1.377 . S
C307 H327 0.930 . S
C308 N306 1.375 . S
C308 C307 1.338 . S
C308 H312 0.931 . S
C309 N306 1.313 . S
C309 N310 1.344 . S
C309 H313 0.930 . S
N310 C307 1.377 . S
N310 C309 1.344 . S
O311 Co303 2.055 . S
O311 C315 1.253 . S
H312 C308 0.931 . S
H313 C309 0.930 . S
O314 Co303 2.039 . S
O314 C304 1.265 . S
C315 O311 1.253 . S
C315 O316 1.227 . S
O316 C315 1.227 . S
N317 Co303 2.140 . S
N317 C320 1.346 . S
N317 C321 1.345 . S
C318 C319 1.387 . S
C318 C322 1.391 . S
C319 C318 1.387 . S
C319 C320 1.369 . S
C319 H328 0.929 . S
C320 N317 1.346 . S
C320 C319 1.369 . S
C320 H323 0.928 . S
C321 N317 1.345 . S
C321 C322 1.371 . S
C321 H324 0.931 . S
C322 C318 1.391 . S
C322 C321 1.371 . S
C322 H329 0.930 . S
H323 C320 0.928 . S
H324 C321 0.931 . S
H325 C301 0.930 . S
H326 C298 0.930 . S
H327 C307 0.930 . S
H328 C319 0.929 . S
H329 C322 0.930 . S
C330 C331 1.351 . S
C330 N333 1.368 . S
C330 H335 0.931 . S
C331 C330 1.351 . S
C331 N332 1.373 . S
C331 H359 0.930 . S
N332 C331 1.373 . S
N332 C334 1.340 . S
N333 C330 1.368 . S
N333 C334 1.321 . S
N333 Co336 2.135 . S
C334 N332 1.340 . S
C334 N333 1.321 . S
C334 H358 0.930 . S
H335 C330 0.931 . S
Co336 N333 2.135 . S
Co336 N339 2.121 . S
Co336 O344 2.055 . S
Co336 O347 2.039 . S
Co336 N350 2.140 . S
C337 O338 1.227 . S
C337 O347 1.265 . S
O338 C337 1.227 . S
N339 Co336 2.121 . S
N339 C341 1.375 . S
N339 C342 1.313 . S
C340 C341 1.338 . S
C340 N343 1.377 . S
C340 H360 0.930 . S
C341 N339 1.375 . S
C341 C340 1.338 . S
C341 H345 0.931 . S
C342 N339 1.313 . S
C342 N343 1.344 . S
C342 H346 0.930 . S
N343 C340 1.377 . S
N343 C342 1.344 . S
O344 Co336 2.055 . S
O344 C348 1.253 . S
H345 C341 0.931 . S
H346 C342 0.930 . S
O347 Co336 2.039 . S
O347 C337 1.265 . S
C348 O344 1.253 . S
C348 O349 1.227 . S
O349 C348 1.227 . S
N350 Co336 2.140 . S
N350 C353 1.346 . S
N350 C354 1.345 . S
C351 C352 1.387 . S
C351 C355 1.391 . S
C352 C351 1.387 . S
C352 C353 1.369 . S
C352 H361 0.929 . S
C353 N350 1.346 . S
C353 C352 1.369 . S
C353 H356 0.928 . S
C354 N350 1.345 . S
C354 C355 1.371 . S
C354 H357 0.931 . S
C355 C351 1.391 . S
C355 C354 1.371 . S
C355 H362 0.930 . S
H356 C353 0.928 . S
H357 C354 0.931 . S
H358 C334 0.930 . S
H359 C331 0.930 . S
H360 C340 0.930 . S
H361 C352 0.929 . S
H362 C355 0.930 . S
C363 C364 1.351 . S
C363 N366 1.368 . S
C363 H368 0.931 . S
C364 C363 1.351 . S
C364 N365 1.373 . S
C364 H392 0.930 . S
N365 C364 1.373 . S
N365 C367 1.340 . S
N366 C363 1.368 . S
N366 C367 1.321 . S
N366 Co369 2.135 . S
C367 N365 1.340 . S
C367 N366 1.321 . S
C367 H391 0.930 . S
H368 C363 0.931 . S
Co369 N366 2.135 . S
Co369 N372 2.121 1_565 S
Co369 O377 2.055 . S
Co369 O380 2.039 1_565 S
Co369 N383 2.140 . S
C370 O371 1.227 . S
C370 O380 1.265 . S
O371 C370 1.227 . S
N372 Co369 2.121 1_545 S
N372 C374 1.375 . S
N372 C375 1.313 . S
C373 C374 1.338 . S
C373 N376 1.377 . S
C373 H393 0.930 . S
C374 N372 1.375 . S
C374 C373 1.338 . S
C374 H378 0.931 . S
C375 N372 1.313 . S
C375 N376 1.344 . S
C375 H379 0.930 1_545 S
N376 C373 1.377 . S
N376 C375 1.344 . S
O377 Co369 2.055 . S
O377 C381 1.253 . S
H378 C374 0.931 . S
H379 C375 0.930 1_565 S
O380 Co369 2.039 1_545 S
O380 C370 1.265 . S
C381 O377 1.253 . S
C381 O382 1.227 . S
O382 C381 1.227 . S
N383 Co369 2.140 . S
N383 C386 1.346 . S
N383 C387 1.345 . S
C384 C385 1.387 . S
C384 C388 1.391 . S
C385 C384 1.387 . S
C385 C386 1.369 . S
C385 H394 0.929 . S
C386 N383 1.346 . S
C386 C385 1.369 . S
C386 H389 0.928 . S
C387 N383 1.345 . S
C387 C388 1.371 . S
C387 H390 0.931 . S
C388 C384 1.391 . S
C388 C387 1.371 . S
C388 H395 0.930 . S
H389 C386 0.928 . S
H390 C387 0.931 . S
H391 C367 0.930 . S
H392 C364 0.930 . S
H393 C373 0.930 . S
H394 C385 0.929 . S
H395 C388 0.930 . S
C396 C397 1.351 . S
C396 N399 1.368 . S
C396 H401 0.931 . S
C397 C396 1.351 . S
C397 N398 1.373 . S
C397 H425 0.930 . S
N398 C397 1.373 . S
N398 C400 1.340 . S
N399 C396 1.368 . S
N399 C400 1.321 . S
N399 Co402 2.135 . S
C400 N398 1.340 . S
C400 N399 1.321 . S
C400 H424 0.930 . S
H401 C396 0.931 . S
Co402 N399 2.135 . S
Co402 N405 2.121 . S
Co402 O410 2.055 . S
Co402 O413 2.039 . S
Co402 N416 2.140 . S
C403 O404 1.227 . S
C403 O413 1.265 . S
O404 C403 1.227 . S
N405 Co402 2.121 . S
N405 C407 1.375 . S
N405 C408 1.313 . S
C406 C407 1.338 . S
C406 N409 1.377 . S
C406 H426 0.930 . S
C407 N405 1.375 . S
C407 C406 1.338 . S
C407 H411 0.931 . S
C408 N405 1.313 . S
C408 N409 1.344 . S
C408 H412 0.930 . S
N409 C406 1.377 . S
N409 C408 1.344 . S
O410 Co402 2.055 . S
O410 C414 1.253 . S
H411 C407 0.931 . S
H412 C408 0.930 . S
O413 Co402 2.039 . S
O413 C403 1.265 . S
C414 O410 1.253 . S
C414 O415 1.227 . S
O415 C414 1.227 . S
N416 Co402 2.140 . S
N416 C419 1.346 . S
N416 C420 1.345 . S
C417 C418 1.387 . S
C417 C421 1.391 . S
C418 C417 1.387 . S
C418 C419 1.369 . S
C418 H427 0.929 . S
C419 N416 1.346 . S
C419 C418 1.369 . S
C419 H422 0.928 . S
C420 N416 1.345 . S
C420 C421 1.371 . S
C420 H423 0.931 . S
C421 C417 1.391 . S
C421 C420 1.371 . S
C421 H428 0.930 . S
H422 C419 0.928 . S
H423 C420 0.931 . S
H424 C400 0.930 . S
H425 C397 0.930 . S
H426 C406 0.930 . S
H427 C418 0.929 . S
H428 C421 0.930 . S
C429 C430 1.351 . S
C429 N432 1.368 . S
C429 H434 0.931 . S
C430 C429 1.351 . S
C430 N431 1.373 . S
C430 H458 0.930 . S
N431 C430 1.373 . S
N431 C433 1.340 . S
N432 C429 1.368 . S
N432 C433 1.321 . S
N432 Co435 2.135 . S
C433 N431 1.340 . S
C433 N432 1.321 . S
C433 H457 0.930 . S
H434 C429 0.931 . S
Co435 N432 2.135 . S
Co435 N438 2.121 . S
Co435 O443 2.055 . S
Co435 O446 2.039 . S
Co435 N449 2.140 . S
C436 O437 1.227 . S
C436 O446 1.265 . S
O437 C436 1.227 . S
N438 Co435 2.121 . S
N438 C440 1.375 . S
N438 C441 1.313 . S
C439 C440 1.338 . S
C439 N442 1.377 . S
C439 H459 0.930 . S
C440 N438 1.375 . S
C440 C439 1.338 . S
C440 H444 0.931 . S
C441 N438 1.313 . S
C441 N442 1.344 . S
C441 H445 0.930 . S
N442 C439 1.377 . S
N442 C441 1.344 . S
O443 Co435 2.055 . S
O443 C447 1.253 . S
H444 C440 0.931 . S
H445 C441 0.930 . S
O446 Co435 2.039 . S
O446 C436 1.265 . S
C447 O443 1.253 . S
C447 O448 1.227 . S
O448 C447 1.227 . S
N449 Co435 2.140 . S
N449 C452 1.346 . S
N449 C453 1.345 . S
C450 C451 1.387 . S
C450 C454 1.391 . S
C451 C450 1.387 . S
C451 C452 1.369 . S
C451 H460 0.929 . S
C452 N449 1.346 . S
C452 C451 1.369 . S
C452 H455 0.928 . S
C453 N449 1.345 . S
C453 C454 1.371 . S
C453 H456 0.931 . S
C454 C450 1.391 . S
C454 C453 1.371 . S
C454 H461 0.930 . S
H455 C452 0.928 . S
H456 C453 0.931 . S
H457 C433 0.930 . S
H458 C430 0.930 . S
H459 C439 0.930 . S
H460 C451 0.929 . S
H461 C454 0.930 . S
C462 C463 1.351 . S
C462 N465 1.368 . S
C462 H467 0.931 . S
C463 C462 1.351 . S
C463 N464 1.373 . S
C463 H491 0.930 . S
N464 C463 1.373 . S
N464 C466 1.340 . S
N465 C462 1.368 . S
N465 C466 1.321 . S
N465 Co468 2.135 . S
C466 N464 1.340 . S
C466 N465 1.321 . S
C466 H490 0.930 . S
H467 C462 0.931 . S
Co468 N465 2.135 . S
Co468 N471 2.121 . S
Co468 O476 2.055 . S
Co468 O479 2.039 . S
Co468 N482 2.140 . S
C469 O470 1.227 . S
C469 O479 1.265 . S
O470 C469 1.227 . S
N471 Co468 2.121 . S
N471 C473 1.375 . S
N471 C474 1.313 . S
C472 C473 1.338 . S
C472 N475 1.377 . S
C472 H492 0.930 . S
C473 N471 1.375 . S
C473 C472 1.338 . S
C473 H477 0.931 . S
C474 N471 1.313 . S
C474 N475 1.344 . S
C474 H478 0.930 . S
N475 C472 1.377 . S
N475 C474 1.344 . S
O476 Co468 2.055 . S
O476 C480 1.253 . S
H477 C473 0.931 . S
H478 C474 0.930 . S
O479 Co468 2.039 . S
O479 C469 1.265 . S
C480 O476 1.253 . S
C480 O481 1.227 . S
O481 C480 1.227 . S
N482 Co468 2.140 . S
N482 C485 1.346 . S
N482 C486 1.345 . S
C483 C484 1.387 . S
C483 C487 1.391 . S
C484 C483 1.387 . S
C484 C485 1.369 . S
C484 H493 0.929 . S
C485 N482 1.346 . S
C485 C484 1.369 . S
C485 H488 0.928 . S
C486 N482 1.345 . S
C486 C487 1.371 . S
C486 H489 0.931 . S
C487 C483 1.391 . S
C487 C486 1.371 . S
C487 H494 0.930 . S
H488 C485 0.928 . S
H489 C486 0.931 . S
H490 C466 0.930 . S
H491 C463 0.930 . S
H492 C472 0.930 . S
H493 C484 0.929 . S
H494 C487 0.930 . S
C495 C496 1.351 . S
C495 N498 1.368 . S
C495 H500 0.931 . S
C496 C495 1.351 . S
C496 N497 1.373 . S
C496 H524 0.930 . S
N497 C496 1.373 . S
N497 C499 1.340 . S
N498 C495 1.368 . S
N498 C499 1.321 . S
N498 Co501 2.135 . S
C499 N497 1.340 . S
C499 N498 1.321 . S
C499 H523 0.930 . S
H500 C495 0.931 . S
Co501 N498 2.135 . S
Co501 N504 2.121 1_565 S
Co501 O509 2.055 . S
Co501 O512 2.039 1_565 S
Co501 N515 2.140 . S
C502 O503 1.227 . S
C502 O512 1.265 . S
O503 C502 1.227 . S
N504 Co501 2.121 1_545 S
N504 C506 1.375 . S
N504 C507 1.313 . S
C505 C506 1.338 . S
C505 N508 1.377 . S
C505 H525 0.930 . S
C506 N504 1.375 . S
C506 C505 1.338 . S
C506 H510 0.931 . S
C507 N504 1.313 . S
C507 N508 1.344 . S
C507 H511 0.930 1_545 S
N508 C505 1.377 . S
N508 C507 1.344 . S
O509 Co501 2.055 . S
O509 C513 1.253 . S
H510 C506 0.931 . S
H511 C507 0.930 1_565 S
O512 Co501 2.039 1_545 S
O512 C502 1.265 . S
C513 O509 1.253 . S
C513 O514 1.227 . S
O514 C513 1.227 . S
N515 Co501 2.140 . S
N515 C518 1.346 . S
N515 C519 1.345 . S
C516 C517 1.387 . S
C516 C520 1.391 . S
C517 C516 1.387 . S
C517 C518 1.369 . S
C517 H526 0.929 . S
C518 N515 1.346 . S
C518 C517 1.369 . S
C518 H521 0.928 . S
C519 N515 1.345 . S
C519 C520 1.371 . S
C519 H522 0.931 . S
C520 C516 1.391 . S
C520 C519 1.371 . S
C520 H527 0.930 . S
H521 C518 0.928 . S
H522 C519 0.931 . S
H523 C499 0.930 . S
H524 C496 0.930 . S
H525 C505 0.930 . S
H526 C517 0.929 . S
H527 C520 0.930 . S
C528 C529 1.351 . S
C528 N531 1.368 . S
C528 H533 0.931 . S
C529 C528 1.351 . S
C529 N530 1.373 . S
C529 H557 0.930 . S
N530 C529 1.373 . S
N530 C532 1.340 . S
N531 C528 1.368 . S
N531 C532 1.321 . S
N531 Co534 2.135 . S
C532 N530 1.340 . S
C532 N531 1.321 . S
C532 H556 0.930 . S
H533 C528 0.931 . S
Co534 N531 2.135 . S
Co534 N537 2.121 . S
Co534 O542 2.055 . S
Co534 O545 2.039 . S
Co534 N548 2.140 . S
C535 O536 1.227 . S
C535 O545 1.265 . S
O536 C535 1.227 . S
N537 Co534 2.121 . S
N537 C539 1.375 . S
N537 C540 1.313 . S
C538 C539 1.338 . S
C538 N541 1.377 . S
C538 H558 0.930 . S
C539 N537 1.375 . S
C539 C538 1.338 . S
C539 H543 0.931 . S
C540 N537 1.313 . S
C540 N541 1.344 . S
C540 H544 0.930 . S
N541 C538 1.377 . S
N541 C540 1.344 . S
O542 Co534 2.055 . S
O542 C546 1.253 . S
H543 C539 0.931 . S
H544 C540 0.930 . S
O545 Co534 2.039 . S
O545 C535 1.265 . S
C546 O542 1.253 . S
C546 O547 1.227 . S
O547 C546 1.227 . S
N548 Co534 2.140 . S
N548 C551 1.346 . S
N548 C552 1.345 . S
C549 C550 1.387 . S
C549 C553 1.391 . S
C550 C549 1.387 . S
C550 C551 1.369 . S
C550 H559 0.929 . S
C551 N548 1.346 . S
C551 C550 1.369 . S
C551 H554 0.928 . S
C552 N548 1.345 . S
C552 C553 1.371 . S
C552 H555 0.931 . S
C553 C549 1.391 . S
C553 C552 1.371 . S
C553 H560 0.930 . S
H554 C551 0.928 . S
H555 C552 0.931 . S
H556 C532 0.930 . S
H557 C529 0.930 . S
H558 C538 0.930 . S
H559 C550 0.929 . S
H560 C553 0.930 . S
C561 C562 1.351 . S
C561 N564 1.368 . S
C561 H566 0.931 . S
C562 C561 1.351 . S
C562 N563 1.373 . S
C562 H590 0.930 . S
N563 C562 1.373 . S
N563 C565 1.340 . S
N564 C561 1.368 . S
N564 C565 1.321 . S
N564 Co567 2.135 . S
C565 N563 1.340 . S
C565 N564 1.321 . S
C565 H589 0.930 . S
H566 C561 0.931 . S
Co567 N564 2.135 . S
Co567 N570 2.121 . S
Co567 O575 2.055 . S
Co567 O578 2.039 . S
Co567 N581 2.140 . S
C568 O569 1.227 . S
C568 O578 1.265 . S
O569 C568 1.227 . S
N570 Co567 2.121 . S
N570 C572 1.375 . S
N570 C573 1.313 . S
C571 C572 1.338 . S
C571 N574 1.377 . S
C571 H591 0.930 . S
C572 N570 1.375 . S
C572 C571 1.338 . S
C572 H576 0.931 . S
C573 N570 1.313 . S
C573 N574 1.344 . S
C573 H577 0.930 . S
N574 C571 1.377 . S
N574 C573 1.344 . S
O575 Co567 2.055 . S
O575 C579 1.253 . S
H576 C572 0.931 . S
H577 C573 0.930 . S
O578 Co567 2.039 . S
O578 C568 1.265 . S
C579 O575 1.253 . S
C579 O580 1.227 . S
O580 C579 1.227 . S
N581 Co567 2.140 . S
N581 C584 1.346 . S
N581 C585 1.345 . S
C582 C583 1.387 . S
C582 C586 1.391 . S
C583 C582 1.387 . S
C583 C584 1.369 . S
C583 H592 0.929 . S
C584 N581 1.346 . S
C584 C583 1.369 . S
C584 H587 0.928 . S
C585 N581 1.345 . S
C585 C586 1.371 . S
C585 H588 0.931 . S
C586 C582 1.391 . S
C586 C585 1.371 . S
C586 H593 0.930 . S
H587 C584 0.928 . S
H588 C585 0.931 . S
H589 C565 0.930 . S
H590 C562 0.930 . S
H591 C571 0.930 . S
H592 C583 0.929 . S
H593 C586 0.930 . S
C594 C595 1.351 . S
C594 N597 1.368 . S
C594 H599 0.931 . S
C595 C594 1.351 . S
C595 N596 1.373 . S
C595 H623 0.930 . S
N596 C595 1.373 . S
N596 C598 1.340 . S
N597 C594 1.368 . S
N597 C598 1.321 . S
N597 Co600 2.135 . S
C598 N596 1.340 . S
C598 N597 1.321 . S
C598 H622 0.930 . S
H599 C594 0.931 . S
Co600 N597 2.135 . S
Co600 N603 2.121 1_455 S
Co600 O608 2.055 . S
Co600 O611 2.039 1_455 S
Co600 N614 2.140 . S
C601 O602 1.227 . S
C601 O611 1.265 . S
O602 C601 1.227 . S
N603 Co600 2.121 1_655 S
N603 C605 1.375 . S
N603 C606 1.313 . S
C604 C605 1.338 . S
C604 N607 1.377 . S
C604 H624 0.930 . S
C605 N603 1.375 . S
C605 C604 1.338 . S
C605 H609 0.931 . S
C606 N603 1.313 . S
C606 N607 1.344 . S
C606 H610 0.930 1_655 S
N607 C604 1.377 . S
N607 C606 1.344 . S
O608 Co600 2.055 . S
O608 C612 1.253 . S
H609 C605 0.931 . S
H610 C606 0.930 1_455 S
O611 Co600 2.039 1_655 S
O611 C601 1.265 . S
C612 O608 1.253 . S
C612 O613 1.227 . S
O613 C612 1.227 . S
N614 Co600 2.140 . S
N614 C617 1.346 . S
N614 C618 1.345 . S
C615 C616 1.387 . S
C615 C619 1.391 . S
C616 C615 1.387 . S
C616 C617 1.369 . S
C616 H625 0.929 . S
C617 N614 1.346 . S
C617 C616 1.369 . S
C617 H620 0.928 . S
C618 N614 1.345 . S
C618 C619 1.371 . S
C618 H621 0.931 . S
C619 C615 1.391 . S
C619 C618 1.371 . S
C619 H626 0.930 . S
H620 C617 0.928 . S
H621 C618 0.931 . S
H622 C598 0.930 . S
H623 C595 0.930 . S
H624 C604 0.930 . S
H625 C616 0.929 . S
H626 C619 0.930 . S
C627 C628 1.351 . S
C627 N630 1.368 . S
C627 H632 0.931 . S
C628 C627 1.351 . S
C628 N629 1.373 . S
C628 H656 0.930 . S
N629 C628 1.373 . S
N629 C631 1.340 . S
N630 C627 1.368 . S
N630 C631 1.321 . S
N630 Co633 2.135 . S
C631 N629 1.340 . S
C631 N630 1.321 . S
C631 H655 0.930 . S
H632 C627 0.931 . S
Co633 N630 2.135 . S
Co633 N636 2.121 . S
Co633 O641 2.055 . S
Co633 O644 2.039 . S
Co633 N647 2.140 . S
C634 O635 1.227 . S
C634 O644 1.265 . S
O635 C634 1.227 . S
N636 Co633 2.121 . S
N636 C638 1.375 . S
N636 C639 1.313 . S
C637 C638 1.338 . S
C637 N640 1.377 . S
C637 H657 0.930 . S
C638 N636 1.375 . S
C638 C637 1.338 . S
C638 H642 0.931 . S
C639 N636 1.313 . S
C639 N640 1.344 . S
C639 H643 0.930 . S
N640 C637 1.377 . S
N640 C639 1.344 . S
O641 Co633 2.055 . S
O641 C645 1.253 . S
H642 C638 0.931 . S
H643 C639 0.930 . S
O644 Co633 2.039 . S
O644 C634 1.265 . S
C645 O641 1.253 . S
C645 O646 1.227 . S
O646 C645 1.227 . S
N647 Co633 2.140 . S
N647 C650 1.346 . S
N647 C651 1.345 . S
C648 C649 1.387 . S
C648 C652 1.391 . S
C649 C648 1.387 . S
C649 C650 1.369 . S
C649 H658 0.929 . S
C650 N647 1.346 . S
C650 C649 1.369 . S
C650 H653 0.928 . S
C651 N647 1.345 . S
C651 C652 1.371 . S
C651 H654 0.931 . S
C652 C648 1.391 . S
C652 C651 1.371 . S
C652 H659 0.930 . S
H653 C650 0.928 . S
H654 C651 0.931 . S
H655 C631 0.930 . S
H656 C628 0.930 . S
H657 C637 0.930 . S
H658 C649 0.929 . S
H659 C652 0.930 . S
C660 C661 1.351 . S
C660 N663 1.368 . S
C660 H665 0.931 . S
C661 C660 1.351 . S
C661 N662 1.373 . S
C661 H689 0.930 . S
N662 C661 1.373 . S
N662 C664 1.340 . S
N663 C660 1.368 . S
N663 C664 1.321 . S
N663 Co666 2.135 . S
C664 N662 1.340 . S
C664 N663 1.321 . S
C664 H688 0.930 . S
H665 C660 0.931 . S
Co666 N663 2.135 . S
Co666 N669 2.121 . S
Co666 O674 2.055 . S
Co666 O677 2.039 . S
Co666 N680 2.140 . S
C667 O668 1.227 . S
C667 O677 1.265 . S
O668 C667 1.227 . S
N669 Co666 2.121 . S
N669 C671 1.375 . S
N669 C672 1.313 . S
C670 C671 1.338 . S
C670 N673 1.377 . S
C670 H690 0.930 . S
C671 N669 1.375 . S
C671 C670 1.338 . S
C671 H675 0.931 . S
C672 N669 1.313 . S
C672 N673 1.344 . S
C672 H676 0.930 . S
N673 C670 1.377 . S
N673 C672 1.344 . S
O674 Co666 2.055 . S
O674 C678 1.253 . S
H675 C671 0.931 . S
H676 C672 0.930 . S
O677 Co666 2.039 . S
O677 C667 1.265 . S
C678 O674 1.253 . S
C678 O679 1.227 . S
O679 C678 1.227 . S
N680 Co666 2.140 . S
N680 C683 1.346 . S
N680 C684 1.345 . S
C681 C682 1.387 . S
C681 C685 1.391 . S
C682 C681 1.387 . S
C682 C683 1.369 . S
C682 H691 0.929 . S
C683 N680 1.346 . S
C683 C682 1.369 . S
C683 H686 0.928 . S
C684 N680 1.345 . S
C684 C685 1.371 . S
C684 H687 0.931 . S
C685 C681 1.391 . S
C685 C684 1.371 . S
C685 H692 0.930 . S
H686 C683 0.928 . S
H687 C684 0.931 . S
H688 C664 0.930 . S
H689 C661 0.930 . S
H690 C670 0.930 . S
H691 C682 0.929 . S
H692 C685 0.930 . S
C693 C694 1.351 . S
C693 N696 1.368 . S
C693 H698 0.931 . S
C694 C693 1.351 . S
C694 N695 1.373 . S
C694 H722 0.930 . S
N695 C694 1.373 . S
N695 C697 1.340 . S
N696 C693 1.368 . S
N696 C697 1.321 . S
N696 Co699 2.135 . S
C697 N695 1.340 . S
C697 N696 1.321 . S
C697 H721 0.930 . S
H698 C693 0.931 . S
Co699 N696 2.135 . S
Co699 N702 2.121 . S
Co699 O707 2.055 . S
Co699 O710 2.039 . S
Co699 N713 2.140 . S
C700 O701 1.227 . S
C700 O710 1.265 . S
O701 C700 1.227 . S
N702 Co699 2.121 . S
N702 C704 1.375 . S
N702 C705 1.313 . S
C703 C704 1.338 . S
C703 N706 1.377 . S
C703 H723 0.930 . S
C704 N702 1.375 . S
C704 C703 1.338 . S
C704 H708 0.931 . S
C705 N702 1.313 . S
C705 N706 1.344 . S
C705 H709 0.930 . S
N706 C703 1.377 . S
N706 C705 1.344 . S
O707 Co699 2.055 . S
O707 C711 1.253 . S
H708 C704 0.931 . S
H709 C705 0.930 . S
O710 Co699 2.039 . S
O710 C700 1.265 . S
C711 O707 1.253 . S
C711 O712 1.227 . S
O712 C711 1.227 . S
N713 Co699 2.140 . S
N713 C716 1.346 . S
N713 C717 1.345 . S
C714 C715 1.387 . S
C714 C718 1.391 . S
C715 C714 1.387 . S
C715 C716 1.369 . S
C715 H724 0.929 . S
C716 N713 1.346 . S
C716 C715 1.369 . S
C716 H719 0.928 . S
C717 N713 1.345 . S
C717 C718 1.371 . S
C717 H720 0.931 . S
C718 C714 1.391 . S
C718 C717 1.371 . S
C718 H725 0.930 . S
H719 C716 0.928 . S
H720 C717 0.931 . S
H721 C697 0.930 . S
H722 C694 0.930 . S
H723 C703 0.930 . S
H724 C715 0.929 . S
H725 C718 0.930 . S
C726 C727 1.351 . S
C726 N729 1.368 . S
C726 H731 0.931 . S
C727 C726 1.351 . S
C727 N728 1.373 . S
C727 H755 0.930 . S
N728 C727 1.373 . S
N728 C730 1.340 . S
N729 C726 1.368 . S
N729 C730 1.321 . S
N729 Co732 2.135 . S
C730 N728 1.340 . S
C730 N729 1.321 . S
C730 H754 0.930 . S
H731 C726 0.931 . S
Co732 N729 2.135 . S
Co732 N735 2.121 1_455 S
Co732 O740 2.055 . S
Co732 O743 2.039 1_455 S
Co732 N746 2.140 . S
C733 O734 1.227 . S
C733 O743 1.265 . S
O734 C733 1.227 . S
N735 Co732 2.121 1_655 S
N735 C737 1.375 . S
N735 C738 1.313 . S
C736 C737 1.338 . S
C736 N739 1.377 . S
C736 H756 0.930 . S
C737 N735 1.375 . S
C737 C736 1.338 . S
C737 H741 0.931 . S
C738 N735 1.313 . S
C738 N739 1.344 . S
C738 H742 0.930 1_655 S
N739 C736 1.377 . S
N739 C738 1.344 . S
O740 Co732 2.055 . S
O740 C744 1.253 . S
H741 C737 0.931 . S
H742 C738 0.930 1_455 S
O743 Co732 2.039 1_655 S
O743 C733 1.265 . S
C744 O740 1.253 . S
C744 O745 1.227 . S
O745 C744 1.227 . S
N746 Co732 2.140 . S
N746 C749 1.346 . S
N746 C750 1.345 . S
C747 C748 1.387 . S
C747 C751 1.391 . S
C748 C747 1.387 . S
C748 C749 1.369 . S
C748 H757 0.929 . S
C749 N746 1.346 . S
C749 C748 1.369 . S
C749 H752 0.928 . S
C750 N746 1.345 . S
C750 C751 1.371 . S
C750 H753 0.931 . S
C751 C747 1.391 . S
C751 C750 1.371 . S
C751 H758 0.930 . S
H752 C749 0.928 . S
H753 C750 0.931 . S
H754 C730 0.930 . S
H755 C727 0.930 . S
H756 C736 0.930 . S
H757 C748 0.929 . S
H758 C751 0.930 . S
C759 C760 1.351 . S
C759 N762 1.368 . S
C759 H764 0.931 . S
C760 C759 1.351 . S
C760 N761 1.373 . S
C760 H788 0.930 . S
N761 C760 1.373 . S
N761 C763 1.340 . S
N762 C759 1.368 . S
N762 C763 1.321 . S
N762 Co765 2.135 . S
C763 N761 1.340 . S
C763 N762 1.321 . S
C763 H787 0.930 . S
H764 C759 0.931 . S
Co765 N762 2.135 . S
Co765 N768 2.121 1_655 S
Co765 O773 2.055 . S
Co765 O776 2.039 1_655 S
Co765 N779 2.140 . S
C766 O767 1.227 . S
C766 O776 1.265 . S
O767 C766 1.227 . S
N768 Co765 2.121 1_455 S
N768 C770 1.375 . S
N768 C771 1.313 . S
C769 C770 1.338 . S
C769 N772 1.377 . S
C769 H789 0.930 . S
C770 N768 1.375 . S
C770 C769 1.338 . S
C770 H774 0.931 . S
C771 N768 1.313 . S
C771 N772 1.344 . S
C771 H775 0.930 1_455 S
N772 C769 1.377 . S
N772 C771 1.344 . S
O773 Co765 2.055 . S
O773 C777 1.253 . S
H774 C770 0.931 . S
H775 C771 0.930 1_655 S
O776 Co765 2.039 1_455 S
O776 C766 1.265 . S
C777 O773 1.253 . S
C777 O778 1.227 . S
O778 C777 1.227 . S
N779 Co765 2.140 . S
N779 C782 1.346 . S
N779 C783 1.345 . S
C780 C781 1.387 . S
C780 C784 1.391 . S
C781 C780 1.387 . S
C781 C782 1.369 . S
C781 H790 0.929 . S
C782 N779 1.346 . S
C782 C781 1.369 . S
C782 H785 0.928 . S
C783 N779 1.345 . S
C783 C784 1.371 . S
C783 H786 0.931 . S
C784 C780 1.391 . S
C784 C783 1.371 . S
C784 H791 0.930 . S
H785 C782 0.928 . S
H786 C783 0.931 . S
H787 C763 0.930 . S
H788 C760 0.930 . S
H789 C769 0.930 . S
H790 C781 0.929 . S
H791 C784 0.930 . S
C792 C793 1.351 . S
C792 N795 1.368 . S
C792 H797 0.931 . S
C793 C792 1.351 . S
C793 N794 1.373 . S
C793 H821 0.930 . S
N794 C793 1.373 . S
N794 C796 1.340 . S
N795 C792 1.368 . S
N795 C796 1.321 . S
N795 Co798 2.135 . S
C796 N794 1.340 . S
C796 N795 1.321 . S
C796 H820 0.930 . S
H797 C792 0.931 . S
Co798 N795 2.135 . S
Co798 N801 2.121 . S
Co798 O806 2.055 . S
Co798 O809 2.039 . S
Co798 N812 2.140 . S
C799 O800 1.227 . S
C799 O809 1.265 . S
O800 C799 1.227 . S
N801 Co798 2.121 . S
N801 C803 1.375 . S
N801 C804 1.313 . S
C802 C803 1.338 . S
C802 N805 1.377 . S
C802 H822 0.930 . S
C803 N801 1.375 . S
C803 C802 1.338 . S
C803 H807 0.931 . S
C804 N801 1.313 . S
C804 N805 1.344 . S
C804 H808 0.930 . S
N805 C802 1.377 . S
N805 C804 1.344 . S
O806 Co798 2.055 . S
O806 C810 1.253 . S
H807 C803 0.931 . S
H808 C804 0.930 . S
O809 Co798 2.039 . S
O809 C799 1.265 . S
C810 O806 1.253 . S
C810 O811 1.227 . S
O811 C810 1.227 . S
N812 Co798 2.140 . S
N812 C815 1.346 . S
N812 C816 1.345 . S
C813 C814 1.387 . S
C813 C817 1.391 . S
C814 C813 1.387 . S
C814 C815 1.369 . S
C814 H823 0.929 . S
C815 N812 1.346 . S
C815 C814 1.369 . S
C815 H818 0.928 . S
C816 N812 1.345 . S
C816 C817 1.371 . S
C816 H819 0.931 . S
C817 C813 1.391 . S
C817 C816 1.371 . S
C817 H824 0.930 . S
H818 C815 0.928 . S
H819 C816 0.931 . S
H820 C796 0.930 . S
H821 C793 0.930 . S
H822 C802 0.930 . S
H823 C814 0.929 . S
H824 C817 0.930 . S
C825 C826 1.351 . S
C825 N828 1.368 . S
C825 H830 0.931 . S
C826 C825 1.351 . S
C826 N827 1.373 . S
C826 H854 0.930 . S
N827 C826 1.373 . S
N827 C829 1.340 . S
N828 C825 1.368 . S
N828 C829 1.321 . S
N828 Co831 2.135 . S
C829 N827 1.340 . S
C829 N828 1.321 . S
C829 H853 0.930 . S
H830 C825 0.931 . S
Co831 N828 2.135 . S
Co831 N834 2.121 . S
Co831 O839 2.055 . S
Co831 O842 2.039 . S
Co831 N845 2.140 . S
C832 O833 1.227 . S
C832 O842 1.265 . S
O833 C832 1.227 . S
N834 Co831 2.121 . S
N834 C836 1.375 . S
N834 C837 1.313 . S
C835 C836 1.338 . S
C835 N838 1.377 . S
C835 H855 0.930 . S
C836 N834 1.375 . S
C836 C835 1.338 . S
C836 H840 0.931 . S
C837 N834 1.313 . S
C837 N838 1.344 . S
C837 H841 0.930 . S
N838 C835 1.377 . S
N838 C837 1.344 . S
O839 Co831 2.055 . S
O839 C843 1.253 . S
H840 C836 0.931 . S
H841 C837 0.930 . S
O842 Co831 2.039 . S
O842 C832 1.265 . S
C843 O839 1.253 . S
C843 O844 1.227 . S
O844 C843 1.227 . S
N845 Co831 2.140 . S
N845 C848 1.346 . S
N845 C849 1.345 . S
C846 C847 1.387 . S
C846 C850 1.391 . S
C847 C846 1.387 . S
C847 C848 1.369 . S
C847 H856 0.929 . S
C848 N845 1.346 . S
C848 C847 1.369 . S
C848 H851 0.928 . S
C849 N845 1.345 . S
C849 C850 1.371 . S
C849 H852 0.931 . S
C850 C846 1.391 . S
C850 C849 1.371 . S
C850 H857 0.930 . S
H851 C848 0.928 . S
H852 C849 0.931 . S
H853 C829 0.930 . S
H854 C826 0.930 . S
H855 C835 0.930 . S
H856 C847 0.929 . S
H857 C850 0.930 . S
C858 C859 1.351 . S
C858 N861 1.368 . S
C858 H863 0.931 . S
C859 C858 1.351 . S
C859 N860 1.373 . S
C859 H887 0.930 . S
N860 C859 1.373 . S
N860 C862 1.340 . S
N861 C858 1.368 . S
N861 C862 1.321 . S
N861 Co864 2.135 . S
C862 N860 1.340 . S
C862 N861 1.321 . S
C862 H886 0.930 . S
H863 C858 0.931 . S
Co864 N861 2.135 . S
Co864 N867 2.121 . S
Co864 O872 2.055 . S
Co864 O875 2.039 . S
Co864 N878 2.140 . S
C865 O866 1.227 . S
C865 O875 1.265 . S
O866 C865 1.227 . S
N867 Co864 2.121 . S
N867 C869 1.375 . S
N867 C870 1.313 . S
C868 C869 1.338 . S
C868 N871 1.377 . S
C868 H888 0.930 . S
C869 N867 1.375 . S
C869 C868 1.338 . S
C869 H873 0.931 . S
C870 N867 1.313 . S
C870 N871 1.344 . S
C870 H874 0.930 . S
N871 C868 1.377 . S
N871 C870 1.344 . S
O872 Co864 2.055 . S
O872 C876 1.253 . S
H873 C869 0.931 . S
H874 C870 0.930 . S
O875 Co864 2.039 . S
O875 C865 1.265 . S
C876 O872 1.253 . S
C876 O877 1.227 . S
O877 C876 1.227 . S
N878 Co864 2.140 . S
N878 C881 1.346 . S
N878 C882 1.345 . S
C879 C880 1.387 . S
C879 C883 1.391 . S
C880 C879 1.387 . S
C880 C881 1.369 . S
C880 H889 0.929 . S
C881 N878 1.346 . S
C881 C880 1.369 . S
C881 H884 0.928 . S
C882 N878 1.345 . S
C882 C883 1.371 . S
C882 H885 0.931 . S
C883 C879 1.391 . S
C883 C882 1.371 . S
C883 H890 0.930 . S
H884 C881 0.928 . S
H885 C882 0.931 . S
H886 C862 0.930 . S
H887 C859 0.930 . S
H888 C868 0.930 . S
H889 C880 0.929 . S
H890 C883 0.930 . S
C891 C892 1.351 . S
C891 N894 1.368 . S
C891 H896 0.931 . S
C892 C891 1.351 . S
C892 N893 1.373 . S
C892 H920 0.930 . S
N893 C892 1.373 . S
N893 C895 1.340 . S
N894 C891 1.368 . S
N894 C895 1.321 . S
N894 Co897 2.135 . S
C895 N893 1.340 . S
C895 N894 1.321 . S
C895 H919 0.930 . S
H896 C891 0.931 . S
Co897 N894 2.135 . S
Co897 N900 2.121 . S
Co897 O905 2.055 . S
Co897 O908 2.039 . S
Co897 N911 2.140 . S
C898 O899 1.227 . S
C898 O908 1.265 . S
O899 C898 1.227 . S
N900 Co897 2.121 . S
N900 C902 1.375 . S
N900 C903 1.313 . S
C901 C902 1.338 . S
C901 N904 1.377 . S
C901 H921 0.930 . S
C902 N900 1.375 . S
C902 C901 1.338 . S
C902 H906 0.931 . S
C903 N900 1.313 . S
C903 N904 1.344 . S
C903 H907 0.930 . S
N904 C901 1.377 . S
N904 C903 1.344 . S
O905 Co897 2.055 . S
O905 C909 1.253 . S
H906 C902 0.931 . S
H907 C903 0.930 . S
O908 Co897 2.039 . S
O908 C898 1.265 . S
C909 O905 1.253 . S
C909 O910 1.227 . S
O910 C909 1.227 . S
N911 Co897 2.140 . S
N911 C914 1.346 . S
N911 C915 1.345 . S
C912 C913 1.387 . S
C912 C916 1.391 . S
C913 C912 1.387 . S
C913 C914 1.369 . S
C913 H922 0.929 . S
C914 N911 1.346 . S
C914 C913 1.369 . S
C914 H917 0.928 . S
C915 N911 1.345 . S
C915 C916 1.371 . S
C915 H918 0.931 . S
C916 C912 1.391 . S
C916 C915 1.371 . S
C916 H923 0.930 . S
H917 C914 0.928 . S
H918 C915 0.931 . S
H919 C895 0.930 . S
H920 C892 0.930 . S
H921 C901 0.930 . S
H922 C913 0.929 . S
H923 C916 0.930 . S
C924 C925 1.351 . S
C924 N927 1.368 . S
C924 H929 0.931 . S
C925 C924 1.351 . S
C925 N926 1.373 . S
C925 H953 0.930 . S
N926 C925 1.373 . S
N926 C928 1.340 . S
N927 C924 1.368 . S
N927 C928 1.321 . S
N927 Co930 2.135 . S
C928 N926 1.340 . S
C928 N927 1.321 . S
C928 H952 0.930 . S
H929 C924 0.931 . S
Co930 N927 2.135 . S
Co930 N933 2.121 . S
Co930 O938 2.055 . S
Co930 O941 2.039 . S
Co930 N944 2.140 . S
C931 O932 1.227 . S
C931 O941 1.265 . S
O932 C931 1.227 . S
N933 Co930 2.121 . S
N933 C935 1.375 . S
N933 C936 1.313 . S
C934 C935 1.338 . S
C934 N937 1.377 . S
C934 H954 0.930 . S
C935 N933 1.375 . S
C935 C934 1.338 . S
C935 H939 0.931 . S
C936 N933 1.313 . S
C936 N937 1.344 . S
C936 H940 0.930 . S
N937 C934 1.377 . S
N937 C936 1.344 . S
O938 Co930 2.055 . S
O938 C942 1.253 . S
H939 C935 0.931 . S
H940 C936 0.930 . S
O941 Co930 2.039 . S
O941 C931 1.265 . S
C942 O938 1.253 . S
C942 O943 1.227 . S
O943 C942 1.227 . S
N944 Co930 2.140 . S
N944 C947 1.346 . S
N944 C948 1.345 . S
C945 C946 1.387 . S
C945 C949 1.391 . S
C946 C945 1.387 . S
C946 C947 1.369 . S
C946 H955 0.929 . S
C947 N944 1.346 . S
C947 C946 1.369 . S
C947 H950 0.928 . S
C948 N944 1.345 . S
C948 C949 1.371 . S
C948 H951 0.931 . S
C949 C945 1.391 . S
C949 C948 1.371 . S
C949 H956 0.930 . S
H950 C947 0.928 . S
H951 C948 0.931 . S
H952 C928 0.930 . S
H953 C925 0.930 . S
H954 C934 0.930 . S
H955 C946 0.929 . S
H956 C949 0.930 . S
C957 C958 1.351 . S
C957 N960 1.368 . S
C957 H962 0.931 . S
C958 C957 1.351 . S
C958 N959 1.373 . S
C958 H986 0.930 . S
N959 C958 1.373 . S
N959 C961 1.340 . S
N960 C957 1.368 . S
N960 C961 1.321 . S
N960 Co963 2.135 . S
C961 N959 1.340 . S
C961 N960 1.321 . S
C961 H985 0.930 . S
H962 C957 0.931 . S
Co963 N960 2.135 . S
Co963 N966 2.121 . S
Co963 O971 2.055 . S
Co963 O974 2.039 . S
Co963 N977 2.140 . S
C964 O965 1.227 . S
C964 O974 1.265 . S
O965 C964 1.227 . S
N966 Co963 2.121 . S
N966 C968 1.375 . S
N966 C969 1.313 . S
C967 C968 1.338 . S
C967 N970 1.377 . S
C967 H987 0.930 . S
C968 N966 1.375 . S
C968 C967 1.338 . S
C968 H972 0.931 . S
C969 N966 1.313 . S
C969 N970 1.344 . S
C969 H973 0.930 . S
N970 C967 1.377 . S
N970 C969 1.344 . S
O971 Co963 2.055 . S
O971 C975 1.253 . S
H972 C968 0.931 . S
H973 C969 0.930 . S
O974 Co963 2.039 . S
O974 C964 1.265 . S
C975 O971 1.253 . S
C975 O976 1.227 . S
O976 C975 1.227 . S
N977 Co963 2.140 . S
N977 C980 1.346 . S
N977 C981 1.345 . S
C978 C979 1.387 . S
C978 C982 1.391 . S
C979 C978 1.387 . S
C979 C980 1.369 . S
C979 H988 0.929 . S
C980 N977 1.346 . S
C980 C979 1.369 . S
C980 H983 0.928 . S
C981 N977 1.345 . S
C981 C982 1.371 . S
C981 H984 0.931 . S
C982 C978 1.391 . S
C982 C981 1.371 . S
C982 H989 0.930 . S
H983 C980 0.928 . S
H984 C981 0.931 . S
H985 C961 0.930 . S
H986 C958 0.930 . S
H987 C967 0.930 . S
H988 C979 0.929 . S
H989 C982 0.930 . S
C990 C991 1.351 . S
C990 N993 1.368 . S
C990 H995 0.931 . S
C991 C990 1.351 . S
C991 N992 1.373 . S
C991 H1019 0.930 . S
N992 C991 1.373 . S
N992 C994 1.340 . S
N993 C990 1.368 . S
N993 C994 1.321 . S
N993 Co996 2.135 . S
C994 N992 1.340 . S
C994 N993 1.321 . S
C994 H1018 0.930 . S
H995 C990 0.931 . S
Co996 N993 2.135 . S
Co996 N999 2.121 . S
Co996 O1004 2.055 . S
Co996 O1007 2.039 . S
Co996 N1010 2.140 . S
C997 O998 1.227 . S
C997 O1007 1.265 . S
O998 C997 1.227 . S
N999 Co996 2.121 . S
N999 C1001 1.375 . S
N999 C1002 1.313 . S
C1000 C1001 1.338 . S
C1000 N1003 1.377 . S
C1000 H1020 0.930 . S
C1001 N999 1.375 . S
C1001 C1000 1.338 . S
C1001 H1005 0.931 . S
C1002 N999 1.313 . S
C1002 N1003 1.344 . S
C1002 H1006 0.930 . S
N1003 C1000 1.377 . S
N1003 C1002 1.344 . S
O1004 Co996 2.055 . S
O1004 C1008 1.253 . S
H1005 C1001 0.931 . S
H1006 C1002 0.930 . S
O1007 Co996 2.039 . S
O1007 C997 1.265 . S
C1008 O1004 1.253 . S
C1008 O1009 1.227 . S
O1009 C1008 1.227 . S
N1010 Co996 2.140 . S
N1010 C1013 1.346 . S
N1010 C1014 1.345 . S
C1011 C1012 1.387 . S
C1011 C1015 1.391 . S
C1012 C1011 1.387 . S
C1012 C1013 1.369 . S
C1012 H1021 0.929 . S
C1013 N1010 1.346 . S
C1013 C1012 1.369 . S
C1013 H1016 0.928 . S
C1014 N1010 1.345 . S
C1014 C1015 1.371 . S
C1014 H1017 0.931 . S
C1015 C1011 1.391 . S
C1015 C1014 1.371 . S
C1015 H1022 0.930 . S
H1016 C1013 0.928 . S
H1017 C1014 0.931 . S
H1018 C994 0.930 . S
H1019 C991 0.930 . S
H1020 C1000 0.930 . S
H1021 C1012 0.929 . S
H1022 C1015 0.930 . S
C1023 C1024 1.351 . S
C1023 N1026 1.368 . S
C1023 H1028 0.931 . S
C1024 C1023 1.351 . S
C1024 N1025 1.373 . S
C1024 H1052 0.930 . S
N1025 C1024 1.373 . S
N1025 C1027 1.340 . S
N1026 C1023 1.368 . S
N1026 C1027 1.321 . S
N1026 Co1029 2.135 . S
C1027 N1025 1.340 . S
C1027 N1026 1.321 . S
C1027 H1051 0.930 . S
H1028 C1023 0.931 . S
Co1029 N1026 2.135 . S
Co1029 N1032 2.121 . S
Co1029 O1037 2.055 . S
Co1029 O1040 2.039 . S
Co1029 N1043 2.140 . S
C1030 O1031 1.227 . S
C1030 O1040 1.265 . S
O1031 C1030 1.227 . S
N1032 Co1029 2.121 . S
N1032 C1034 1.375 . S
N1032 C1035 1.313 . S
C1033 C1034 1.338 . S
C1033 N1036 1.377 . S
C1033 H1053 0.930 . S
C1034 N1032 1.375 . S
C1034 C1033 1.338 . S
C1034 H1038 0.931 . S
C1035 N1032 1.313 . S
C1035 N1036 1.344 . S
C1035 H1039 0.930 . S
N1036 C1033 1.377 . S
N1036 C1035 1.344 . S
O1037 Co1029 2.055 . S
O1037 C1041 1.253 . S
H1038 C1034 0.931 . S
H1039 C1035 0.930 . S
O1040 Co1029 2.039 . S
O1040 C1030 1.265 . S
C1041 O1037 1.253 . S
C1041 O1042 1.227 . S
O1042 C1041 1.227 . S
N1043 Co1029 2.140 . S
N1043 C1046 1.346 . S
N1043 C1047 1.345 . S
C1044 C1045 1.387 . S
C1044 C1048 1.391 . S
C1045 C1044 1.387 . S
C1045 C1046 1.369 . S
C1045 H1054 0.929 . S
C1046 N1043 1.346 . S
C1046 C1045 1.369 . S
C1046 H1049 0.928 . S
C1047 N1043 1.345 . S
C1047 C1048 1.371 . S
C1047 H1050 0.931 . S
C1048 C1044 1.391 . S
C1048 C1047 1.371 . S
C1048 H1055 0.930 . S
H1049 C1046 0.928 . S
H1050 C1047 0.931 . S
H1051 C1027 0.930 . S
H1052 C1024 0.930 . S
H1053 C1033 0.930 . S
H1054 C1045 0.929 . S
H1055 C1048 0.930 . S
C1056 C1057 1.351 . S
C1056 N1059 1.368 . S
C1056 H1061 0.931 . S
C1057 C1056 1.351 . S
C1057 N1058 1.373 . S
C1057 H1085 0.930 . S
N1058 C1057 1.373 . S
N1058 C1060 1.340 . S
N1059 C1056 1.368 . S
N1059 C1060 1.321 . S
N1059 Co1062 2.135 . S
C1060 N1058 1.340 . S
C1060 N1059 1.321 . S
C1060 H1084 0.930 . S
H1061 C1056 0.931 . S
Co1062 N1059 2.135 . S
Co1062 N1065 2.121 . S
Co1062 O1070 2.055 . S
Co1062 O1073 2.039 . S
Co1062 N1076 2.140 . S
C1063 O1064 1.227 . S
C1063 O1073 1.265 . S
O1064 C1063 1.227 . S
N1065 Co1062 2.121 . S
N1065 C1067 1.375 . S
N1065 C1068 1.313 . S
C1066 C1067 1.338 . S
C1066 N1069 1.377 . S
C1066 H1086 0.930 . S
C1067 N1065 1.375 . S
C1067 C1066 1.338 . S
C1067 H1071 0.931 . S
C1068 N1065 1.313 . S
C1068 N1069 1.344 . S
C1068 H1072 0.930 . S
N1069 C1066 1.377 . S
N1069 C1068 1.344 . S
O1070 Co1062 2.055 . S
O1070 C1074 1.253 . S
H1071 C1067 0.931 . S
H1072 C1068 0.930 . S
O1073 Co1062 2.039 . S
O1073 C1063 1.265 . S
C1074 O1070 1.253 . S
C1074 O1075 1.227 . S
O1075 C1074 1.227 . S
N1076 Co1062 2.140 . S
N1076 C1079 1.346 . S
N1076 C1080 1.345 . S
C1077 C1078 1.387 . S
C1077 C1081 1.391 . S
C1078 C1077 1.387 . S
C1078 C1079 1.369 . S
C1078 H1087 0.929 . S
C1079 N1076 1.346 . S
C1079 C1078 1.369 . S
C1079 H1082 0.928 . S
C1080 N1076 1.345 . S
C1080 C1081 1.371 . S
C1080 H1083 0.931 . S
C1081 C1077 1.391 . S
C1081 C1080 1.371 . S
C1081 H1088 0.930 . S
H1082 C1079 0.928 . S
H1083 C1080 0.931 . S
H1084 C1060 0.930 . S
H1085 C1057 0.930 . S
H1086 C1066 0.930 . S
H1087 C1078 0.929 . S
H1088 C1081 0.930 . S
C1089 C1090 1.351 . S
C1089 N1092 1.368 . S
C1089 H1094 0.931 . S
C1090 C1089 1.351 . S
C1090 N1091 1.373 . S
C1090 H1118 0.930 . S
N1091 C1090 1.373 . S
N1091 C1093 1.340 . S
N1092 C1089 1.368 . S
N1092 C1093 1.321 . S
N1092 Co1095 2.135 . S
C1093 N1091 1.340 . S
C1093 N1092 1.321 . S
C1093 H1117 0.930 . S
H1094 C1089 0.931 . S
Co1095 N1092 2.135 . S
Co1095 N1098 2.121 1_545 S
Co1095 O1103 2.055 . S
Co1095 O1106 2.039 1_545 S
Co1095 N1109 2.140 . S
C1096 O1097 1.227 . S
C1096 O1106 1.265 . S
O1097 C1096 1.227 . S
N1098 Co1095 2.121 1_565 S
N1098 C1100 1.375 . S
N1098 C1101 1.313 . S
C1099 C1100 1.338 . S
C1099 N1102 1.377 . S
C1099 H1119 0.930 . S
C1100 N1098 1.375 . S
C1100 C1099 1.338 . S
C1100 H1104 0.931 . S
C1101 N1098 1.313 . S
C1101 N1102 1.344 . S
C1101 H1105 0.930 1_565 S
N1102 C1099 1.377 . S
N1102 C1101 1.344 . S
O1103 Co1095 2.055 . S
O1103 C1107 1.253 . S
H1104 C1100 0.931 . S
H1105 C1101 0.930 1_545 S
O1106 Co1095 2.039 1_565 S
O1106 C1096 1.265 . S
C1107 O1103 1.253 . S
C1107 O1108 1.227 . S
O1108 C1107 1.227 . S
N1109 Co1095 2.140 . S
N1109 C1112 1.346 . S
N1109 C1113 1.345 . S
C1110 C1111 1.387 . S
C1110 C1114 1.391 . S
C1111 C1110 1.387 . S
C1111 C1112 1.369 . S
C1111 H1120 0.929 . S
C1112 N1109 1.346 . S
C1112 C1111 1.369 . S
C1112 H1115 0.928 . S
C1113 N1109 1.345 . S
C1113 C1114 1.371 . S
C1113 H1116 0.931 . S
C1114 C1110 1.391 . S
C1114 C1113 1.371 . S
C1114 H1121 0.930 . S
H1115 C1112 0.928 . S
H1116 C1113 0.931 . S
H1117 C1093 0.930 . S
H1118 C1090 0.930 . S
H1119 C1099 0.930 . S
H1120 C1111 0.929 . S
H1121 C1114 0.930 . S
C1122 C1123 1.351 . S
C1122 N1125 1.368 . S
C1122 H1127 0.931 . S
C1123 C1122 1.351 . S
C1123 N1124 1.373 . S
C1123 H1151 0.930 . S
N1124 C1123 1.373 . S
N1124 C1126 1.340 . S
N1125 C1122 1.368 . S
N1125 C1126 1.321 . S
N1125 Co1128 2.135 . S
C1126 N1124 1.340 . S
C1126 N1125 1.321 . S
C1126 H1150 0.930 . S
H1127 C1122 0.931 . S
Co1128 N1125 2.135 . S
Co1128 N1131 2.121 . S
Co1128 O1136 2.055 . S
Co1128 O1139 2.039 . S
Co1128 N1142 2.140 . S
C1129 O1130 1.227 . S
C1129 O1139 1.265 . S
O1130 C1129 1.227 . S
N1131 Co1128 2.121 . S
N1131 C1133 1.375 . S
N1131 C1134 1.313 . S
C1132 C1133 1.338 . S
C1132 N1135 1.377 . S
C1132 H1152 0.930 . S
C1133 N1131 1.375 . S
C1133 C1132 1.338 . S
C1133 H1137 0.931 . S
C1134 N1131 1.313 . S
C1134 N1135 1.344 . S
C1134 H1138 0.930 . S
N1135 C1132 1.377 . S
N1135 C1134 1.344 . S
O1136 Co1128 2.055 . S
O1136 C1140 1.253 . S
H1137 C1133 0.931 . S
H1138 C1134 0.930 . S
O1139 Co1128 2.039 . S
O1139 C1129 1.265 . S
C1140 O1136 1.253 . S
C1140 O1141 1.227 . S
O1141 C1140 1.227 . S
N1142 Co1128 2.140 . S
N1142 C1145 1.346 . S
N1142 C1146 1.345 . S
C1143 C1144 1.387 . S
C1143 C1147 1.391 . S
C1144 C1143 1.387 . S
C1144 C1145 1.369 . S
C1144 H1153 0.929 . S
C1145 N1142 1.346 . S
C1145 C1144 1.369 . S
C1145 H1148 0.928 . S
C1146 N1142 1.345 . S
C1146 C1147 1.371 . S
C1146 H1149 0.931 . S
C1147 C1143 1.391 . S
C1147 C1146 1.371 . S
C1147 H1154 0.930 . S
H1148 C1145 0.928 . S
H1149 C1146 0.931 . S
H1150 C1126 0.930 . S
H1151 C1123 0.930 . S
H1152 C1132 0.930 . S
H1153 C1144 0.929 . S
H1154 C1147 0.930 . S
C1155 C1156 1.351 . S
C1155 N1158 1.368 . S
C1155 H1160 0.931 . S
C1156 C1155 1.351 . S
C1156 N1157 1.373 . S
C1156 H1184 0.930 . S
N1157 C1156 1.373 . S
N1157 C1159 1.340 . S
N1158 C1155 1.368 . S
N1158 C1159 1.321 . S
N1158 Co1161 2.135 . S
C1159 N1157 1.340 . S
C1159 N1158 1.321 . S
C1159 H1183 0.930 . S
H1160 C1155 0.931 . S
Co1161 N1158 2.135 . S
Co1161 N1164 2.121 . S
Co1161 O1169 2.055 . S
Co1161 O1172 2.039 . S
Co1161 N1175 2.140 . S
C1162 O1163 1.227 . S
C1162 O1172 1.265 . S
O1163 C1162 1.227 . S
N1164 Co1161 2.121 . S
N1164 C1166 1.375 . S
N1164 C1167 1.313 . S
C1165 C1166 1.338 . S
C1165 N1168 1.377 . S
C1165 H1185 0.930 . S
C1166 N1164 1.375 . S
C1166 C1165 1.338 . S
C1166 H1170 0.931 . S
C1167 N1164 1.313 . S
C1167 N1168 1.344 . S
C1167 H1171 0.930 . S
N1168 C1165 1.377 . S
N1168 C1167 1.344 . S
O1169 Co1161 2.055 . S
O1169 C1173 1.253 . S
H1170 C1166 0.931 . S
H1171 C1167 0.930 . S
O1172 Co1161 2.039 . S
O1172 C1162 1.265 . S
C1173 O1169 1.253 . S
C1173 O1174 1.227 . S
O1174 C1173 1.227 . S
N1175 Co1161 2.140 . S
N1175 C1178 1.346 . S
N1175 C1179 1.345 . S
C1176 C1177 1.387 . S
C1176 C1180 1.391 . S
C1177 C1176 1.387 . S
C1177 C1178 1.369 . S
C1177 H1186 0.929 . S
C1178 N1175 1.346 . S
C1178 C1177 1.369 . S
C1178 H1181 0.928 . S
C1179 N1175 1.345 . S
C1179 C1180 1.371 . S
C1179 H1182 0.931 . S
C1180 C1176 1.391 . S
C1180 C1179 1.371 . S
C1180 H1187 0.930 . S
H1181 C1178 0.928 . S
H1182 C1179 0.931 . S
H1183 C1159 0.930 . S
H1184 C1156 0.930 . S
H1185 C1165 0.930 . S
H1186 C1177 0.929 . S
H1187 C1180 0.930 . S
C1188 C1189 1.351 . S
C1188 N1191 1.368 . S
C1188 H1193 0.931 . S
C1189 C1188 1.351 . S
C1189 N1190 1.373 . S
C1189 H1217 0.930 . S
N1190 C1189 1.373 . S
N1190 C1192 1.340 . S
N1191 C1188 1.368 . S
N1191 C1192 1.321 . S
N1191 Co1194 2.135 . S
C1192 N1190 1.340 . S
C1192 N1191 1.321 . S
C1192 H1216 0.930 . S
H1193 C1188 0.931 . S
Co1194 N1191 2.135 . S
Co1194 N1197 2.121 . S
Co1194 O1202 2.055 . S
Co1194 O1205 2.039 . S
Co1194 N1208 2.140 . S
C1195 O1196 1.227 . S
C1195 O1205 1.265 . S
O1196 C1195 1.227 . S
N1197 Co1194 2.121 . S
N1197 C1199 1.375 . S
N1197 C1200 1.313 . S
C1198 C1199 1.338 . S
C1198 N1201 1.377 . S
C1198 H1218 0.930 . S
C1199 N1197 1.375 . S
C1199 C1198 1.338 . S
C1199 H1203 0.931 . S
C1200 N1197 1.313 . S
C1200 N1201 1.344 . S
C1200 H1204 0.930 . S
N1201 C1198 1.377 . S
N1201 C1200 1.344 . S
O1202 Co1194 2.055 . S
O1202 C1206 1.253 . S
H1203 C1199 0.931 . S
H1204 C1200 0.930 . S
O1205 Co1194 2.039 . S
O1205 C1195 1.265 . S
C1206 O1202 1.253 . S
C1206 O1207 1.227 . S
O1207 C1206 1.227 . S
N1208 Co1194 2.140 . S
N1208 C1211 1.346 . S
N1208 C1212 1.345 . S
C1209 C1210 1.387 . S
C1209 C1213 1.391 . S
C1210 C1209 1.387 . S
C1210 C1211 1.369 . S
C1210 H1219 0.929 . S
C1211 N1208 1.346 . S
C1211 C1210 1.369 . S
C1211 H1214 0.928 . S
C1212 N1208 1.345 . S
C1212 C1213 1.371 . S
C1212 H1215 0.931 . S
C1213 C1209 1.391 . S
C1213 C1212 1.371 . S
C1213 H1220 0.930 . S
H1214 C1211 0.928 . S
H1215 C1212 0.931 . S
H1216 C1192 0.930 . S
H1217 C1189 0.930 . S
H1218 C1198 0.930 . S
H1219 C1210 0.929 . S
H1220 C1213 0.930 . S
C1221 C1222 1.351 . S
C1221 N1224 1.368 . S
C1221 H1226 0.931 . S
C1222 C1221 1.351 . S
C1222 N1223 1.373 . S
C1222 H1250 0.930 . S
N1223 C1222 1.373 . S
N1223 C1225 1.340 . S
N1224 C1221 1.368 . S
N1224 C1225 1.321 . S
N1224 Co1227 2.135 . S
C1225 N1223 1.340 . S
C1225 N1224 1.321 . S
C1225 H1249 0.930 . S
H1226 C1221 0.931 . S
Co1227 N1224 2.135 . S
Co1227 N1230 2.121 1_545 S
Co1227 O1235 2.055 . S
Co1227 O1238 2.039 1_545 S
Co1227 N1241 2.140 . S
C1228 O1229 1.227 . S
C1228 O1238 1.265 . S
O1229 C1228 1.227 . S
N1230 Co1227 2.121 1_565 S
N1230 C1232 1.375 . S
N1230 C1233 1.313 . S
C1231 C1232 1.338 . S
C1231 N1234 1.377 . S
C1231 H1251 0.930 . S
C1232 N1230 1.375 . S
C1232 C1231 1.338 . S
C1232 H1236 0.931 . S
C1233 N1230 1.313 . S
C1233 N1234 1.344 . S
C1233 H1237 0.930 1_565 S
N1234 C1231 1.377 . S
N1234 C1233 1.344 . S
O1235 Co1227 2.055 . S
O1235 C1239 1.253 . S
H1236 C1232 0.931 . S
H1237 C1233 0.930 1_545 S
O1238 Co1227 2.039 1_565 S
O1238 C1228 1.265 . S
C1239 O1235 1.253 . S
C1239 O1240 1.227 . S
O1240 C1239 1.227 . S
N1241 Co1227 2.140 . S
N1241 C1244 1.346 . S
N1241 C1245 1.345 . S
C1242 C1243 1.387 . S
C1242 C1246 1.391 . S
C1243 C1242 1.387 . S
C1243 C1244 1.369 . S
C1243 H1252 0.929 . S
C1244 N1241 1.346 . S
C1244 C1243 1.369 . S
C1244 H1247 0.928 . S
C1245 N1241 1.345 . S
C1245 C1246 1.371 . S
C1245 H1248 0.931 . S
C1246 C1242 1.391 . S
C1246 C1245 1.371 . S
C1246 H1253 0.930 . S
H1247 C1244 0.928 . S
H1248 C1245 0.931 . S
H1249 C1225 0.930 . S
H1250 C1222 0.930 . S
H1251 C1231 0.930 . S
H1252 C1243 0.929 . S
H1253 C1246 0.930 . S
C1254 C1255 1.351 . S
C1254 N1257 1.368 . S
C1254 H1259 0.931 . S
C1255 C1254 1.351 . S
C1255 N1256 1.373 . S
C1255 H1283 0.930 . S
N1256 C1255 1.373 . S
N1256 C1258 1.340 . S
N1257 C1254 1.368 . S
N1257 C1258 1.321 . S
N1257 Co1260 2.135 . S
C1258 N1256 1.340 . S
C1258 N1257 1.321 . S
C1258 H1282 0.930 . S
H1259 C1254 0.931 . S
Co1260 N1257 2.135 . S
Co1260 N1263 2.121 . S
Co1260 O1268 2.055 . S
Co1260 O1271 2.039 . S
Co1260 N1274 2.140 . S
C1261 O1262 1.227 . S
C1261 O1271 1.265 . S
O1262 C1261 1.227 . S
N1263 Co1260 2.121 . S
N1263 C1265 1.375 . S
N1263 C1266 1.313 . S
C1264 C1265 1.338 . S
C1264 N1267 1.377 . S
C1264 H1284 0.930 . S
C1265 N1263 1.375 . S
C1265 C1264 1.338 . S
C1265 H1269 0.931 . S
C1266 N1263 1.313 . S
C1266 N1267 1.344 . S
C1266 H1270 0.930 . S
N1267 C1264 1.377 . S
N1267 C1266 1.344 . S
O1268 Co1260 2.055 . S
O1268 C1272 1.253 . S
H1269 C1265 0.931 . S
H1270 C1266 0.930 . S
O1271 Co1260 2.039 . S
O1271 C1261 1.265 . S
C1272 O1268 1.253 . S
C1272 O1273 1.227 . S
O1273 C1272 1.227 . S
N1274 Co1260 2.140 . S
N1274 C1277 1.346 . S
N1274 C1278 1.345 . S
C1275 C1276 1.387 . S
C1275 C1279 1.391 . S
C1276 C1275 1.387 . S
C1276 C1277 1.369 . S
C1276 H1285 0.929 . S
C1277 N1274 1.346 . S
C1277 C1276 1.369 . S
C1277 H1280 0.928 . S
C1278 N1274 1.345 . S
C1278 C1279 1.371 . S
C1278 H1281 0.931 . S
C1279 C1275 1.391 . S
C1279 C1278 1.371 . S
C1279 H1286 0.930 . S
H1280 C1277 0.928 . S
H1281 C1278 0.931 . S
H1282 C1258 0.930 . S
H1283 C1255 0.930 . S
H1284 C1264 0.930 . S
H1285 C1276 0.929 . S
H1286 C1279 0.930 . S
C1287 C1288 1.351 . S
C1287 N1290 1.368 . S
C1287 H1292 0.931 . S
C1288 C1287 1.351 . S
C1288 N1289 1.373 . S
C1288 H1316 0.930 . S
N1289 C1288 1.373 . S
N1289 C1291 1.340 . S
N1290 C1287 1.368 . S
N1290 C1291 1.321 . S
N1290 Co1293 2.135 . S
C1291 N1289 1.340 . S
C1291 N1290 1.321 . S
C1291 H1315 0.930 . S
H1292 C1287 0.931 . S
Co1293 N1290 2.135 . S
Co1293 N1296 2.121 . S
Co1293 O1301 2.055 . S
Co1293 O1304 2.039 . S
Co1293 N1307 2.140 . S
C1294 O1295 1.227 . S
C1294 O1304 1.265 . S
O1295 C1294 1.227 . S
N1296 Co1293 2.121 . S
N1296 C1298 1.375 . S
N1296 C1299 1.313 . S
C1297 C1298 1.338 . S
C1297 N1300 1.377 . S
C1297 H1317 0.930 . S
C1298 N1296 1.375 . S
C1298 C1297 1.338 . S
C1298 H1302 0.931 . S
C1299 N1296 1.313 . S
C1299 N1300 1.344 . S
C1299 H1303 0.930 . S
N1300 C1297 1.377 . S
N1300 C1299 1.344 . S
O1301 Co1293 2.055 . S
O1301 C1305 1.253 . S
H1302 C1298 0.931 . S
H1303 C1299 0.930 . S
O1304 Co1293 2.039 . S
O1304 C1294 1.265 . S
C1305 O1301 1.253 . S
C1305 O1306 1.227 . S
O1306 C1305 1.227 . S
N1307 Co1293 2.140 . S
N1307 C1310 1.346 . S
N1307 C1311 1.345 . S
C1308 C1309 1.387 . S
C1308 C1312 1.391 . S
C1309 C1308 1.387 . S
C1309 C1310 1.369 . S
C1309 H1318 0.929 . S
C1310 N1307 1.346 . S
C1310 C1309 1.369 . S
C1310 H1313 0.928 . S
C1311 N1307 1.345 . S
C1311 C1312 1.371 . S
C1311 H1314 0.931 . S
C1312 C1308 1.391 . S
C1312 C1311 1.371 . S
C1312 H1319 0.930 . S
H1313 C1310 0.928 . S
H1314 C1311 0.931 . S
H1315 C1291 0.930 . S
H1316 C1288 0.930 . S
H1317 C1297 0.930 . S
H1318 C1309 0.929 . S
H1319 C1312 0.930 . S
C1320 C1321 1.351 . S
C1320 N1323 1.368 . S
C1320 H1325 0.931 . S
C1321 C1320 1.351 . S
C1321 N1322 1.373 . S
C1321 H1349 0.930 . S
N1322 C1321 1.373 . S
N1322 C1324 1.340 . S
N1323 C1320 1.368 . S
N1323 C1324 1.321 . S
N1323 Co1326 2.135 . S
C1324 N1322 1.340 . S
C1324 N1323 1.321 . S
C1324 H1348 0.930 . S
H1325 C1320 0.931 . S
Co1326 N1323 2.135 . S
Co1326 N1329 2.121 . S
Co1326 O1334 2.055 . S
Co1326 O1337 2.039 . S
Co1326 N1340 2.140 . S
C1327 O1328 1.227 . S
C1327 O1337 1.265 . S
O1328 C1327 1.227 . S
N1329 Co1326 2.121 . S
N1329 C1331 1.375 . S
N1329 C1332 1.313 . S
C1330 C1331 1.338 . S
C1330 N1333 1.377 . S
C1330 H1350 0.930 . S
C1331 N1329 1.375 . S
C1331 C1330 1.338 . S
C1331 H1335 0.931 . S
C1332 N1329 1.313 . S
C1332 N1333 1.344 . S
C1332 H1336 0.930 . S
N1333 C1330 1.377 . S
N1333 C1332 1.344 . S
O1334 Co1326 2.055 . S
O1334 C1338 1.253 . S
H1335 C1331 0.931 . S
H1336 C1332 0.930 . S
O1337 Co1326 2.039 . S
O1337 C1327 1.265 . S
C1338 O1334 1.253 . S
C1338 O1339 1.227 . S
O1339 C1338 1.227 . S
N1340 Co1326 2.140 . S
N1340 C1343 1.346 . S
N1340 C1344 1.345 . S
C1341 C1342 1.387 . S
C1341 C1345 1.391 . S
C1342 C1341 1.387 . S
C1342 C1343 1.369 . S
C1342 H1351 0.929 . S
C1343 N1340 1.346 . S
C1343 C1342 1.369 . S
C1343 H1346 0.928 . S
C1344 N1340 1.345 . S
C1344 C1345 1.371 . S
C1344 H1347 0.931 . S
C1345 C1341 1.391 . S
C1345 C1344 1.371 . S
C1345 H1352 0.930 . S
H1346 C1343 0.928 . S
H1347 C1344 0.931 . S
H1348 C1324 0.930 . S
H1349 C1321 0.930 . S
H1350 C1330 0.930 . S
H1351 C1342 0.929 . S
H1352 C1345 0.930 . S
C1353 C1354 1.351 . S
C1353 N1356 1.368 . S
C1353 H1358 0.931 . S
C1354 C1353 1.351 . S
C1354 N1355 1.373 . S
C1354 H1382 0.930 . S
N1355 C1354 1.373 . S
N1355 C1357 1.340 . S
N1356 C1353 1.368 . S
N1356 C1357 1.321 . S
N1356 Co1359 2.135 . S
C1357 N1355 1.340 . S
C1357 N1356 1.321 . S
C1357 H1381 0.930 . S
H1358 C1353 0.931 . S
Co1359 N1356 2.135 . S
Co1359 N1362 2.121 . S
Co1359 O1367 2.055 . S
Co1359 O1370 2.039 . S
Co1359 N1373 2.140 . S
C1360 O1361 1.227 . S
C1360 O1370 1.265 . S
O1361 C1360 1.227 . S
N1362 Co1359 2.121 . S
N1362 C1364 1.375 . S
N1362 C1365 1.313 . S
C1363 C1364 1.338 . S
C1363 N1366 1.377 . S
C1363 H1383 0.930 . S
C1364 N1362 1.375 . S
C1364 C1363 1.338 . S
C1364 H1368 0.931 . S
C1365 N1362 1.313 . S
C1365 N1366 1.344 . S
C1365 H1369 0.930 . S
N1366 C1363 1.377 . S
N1366 C1365 1.344 . S
O1367 Co1359 2.055 . S
O1367 C1371 1.253 . S
H1368 C1364 0.931 . S
H1369 C1365 0.930 . S
O1370 Co1359 2.039 . S
O1370 C1360 1.265 . S
C1371 O1367 1.253 . S
C1371 O1372 1.227 . S
O1372 C1371 1.227 . S
N1373 Co1359 2.140 . S
N1373 C1376 1.346 . S
N1373 C1377 1.345 . S
C1374 C1375 1.387 . S
C1374 C1378 1.391 . S
C1375 C1374 1.387 . S
C1375 C1376 1.369 . S
C1375 H1384 0.929 . S
C1376 N1373 1.346 . S
C1376 C1375 1.369 . S
C1376 H1379 0.928 . S
C1377 N1373 1.345 . S
C1377 C1378 1.371 . S
C1377 H1380 0.931 . S
C1378 C1374 1.391 . S
C1378 C1377 1.371 . S
C1378 H1385 0.930 . S
H1379 C1376 0.928 . S
H1380 C1377 0.931 . S
H1381 C1357 0.930 . S
H1382 C1354 0.930 . S
H1383 C1363 0.930 . S
H1384 C1375 0.929 . S
H1385 C1378 0.930 . S
C1386 C1387 1.351 . S
C1386 N1389 1.368 . S
C1386 H1391 0.931 . S
C1387 C1386 1.351 . S
C1387 N1388 1.373 . S
C1387 H1415 0.930 . S
N1388 C1387 1.373 . S
N1388 C1390 1.340 . S
N1389 C1386 1.368 . S
N1389 C1390 1.321 . S
N1389 Co1392 2.135 . S
C1390 N1388 1.340 . S
C1390 N1389 1.321 . S
C1390 H1414 0.930 . S
H1391 C1386 0.931 . S
Co1392 N1389 2.135 . S
Co1392 N1395 2.121 . S
Co1392 O1400 2.055 . S
Co1392 O1403 2.039 . S
Co1392 N1406 2.140 . S
C1393 O1394 1.227 . S
C1393 O1403 1.265 . S
O1394 C1393 1.227 . S
N1395 Co1392 2.121 . S
N1395 C1397 1.375 . S
N1395 C1398 1.313 . S
C1396 C1397 1.338 . S
C1396 N1399 1.377 . S
C1396 H1416 0.930 . S
C1397 N1395 1.375 . S
C1397 C1396 1.338 . S
C1397 H1401 0.931 . S
C1398 N1395 1.313 . S
C1398 N1399 1.344 . S
C1398 H1402 0.930 . S
N1399 C1396 1.377 . S
N1399 C1398 1.344 . S
O1400 Co1392 2.055 . S
O1400 C1404 1.253 . S
H1401 C1397 0.931 . S
H1402 C1398 0.930 . S
O1403 Co1392 2.039 . S
O1403 C1393 1.265 . S
C1404 O1400 1.253 . S
C1404 O1405 1.227 . S
O1405 C1404 1.227 . S
N1406 Co1392 2.140 . S
N1406 C1409 1.346 . S
N1406 C1410 1.345 . S
C1407 C1408 1.387 . S
C1407 C1411 1.391 . S
C1408 C1407 1.387 . S
C1408 C1409 1.369 . S
C1408 H1417 0.929 . S
C1409 N1406 1.346 . S
C1409 C1408 1.369 . S
C1409 H1412 0.928 . S
C1410 N1406 1.345 . S
C1410 C1411 1.371 . S
C1410 H1413 0.931 . S
C1411 C1407 1.391 . S
C1411 C1410 1.371 . S
C1411 H1418 0.930 . S
H1412 C1409 0.928 . S
H1413 C1410 0.931 . S
H1414 C1390 0.930 . S
H1415 C1387 0.930 . S
H1416 C1396 0.930 . S
H1417 C1408 0.929 . S
H1418 C1411 0.930 . S
C1419 C1420 1.351 . S
C1419 N1422 1.368 . S
C1419 H1424 0.931 . S
C1420 C1419 1.351 . S
C1420 N1421 1.373 . S
C1420 H1448 0.930 . S
N1421 C1420 1.373 . S
N1421 C1423 1.340 . S
N1422 C1419 1.368 . S
N1422 C1423 1.321 . S
N1422 Co1425 2.135 . S
C1423 N1421 1.340 . S
C1423 N1422 1.321 . S
C1423 H1447 0.930 . S
H1424 C1419 0.931 . S
Co1425 N1422 2.135 . S
Co1425 N1428 2.121 . S
Co1425 O1433 2.055 . S
Co1425 O1436 2.039 . S
Co1425 N1439 2.140 . S
C1426 O1427 1.227 . S
C1426 O1436 1.265 . S
O1427 C1426 1.227 . S
N1428 Co1425 2.121 . S
N1428 C1430 1.375 . S
N1428 C1431 1.313 . S
C1429 C1430 1.338 . S
C1429 N1432 1.377 . S
C1429 H1449 0.930 . S
C1430 N1428 1.375 . S
C1430 C1429 1.338 . S
C1430 H1434 0.931 . S
C1431 N1428 1.313 . S
C1431 N1432 1.344 . S
C1431 H1435 0.930 . S
N1432 C1429 1.377 . S
N1432 C1431 1.344 . S
O1433 Co1425 2.055 . S
O1433 C1437 1.253 . S
H1434 C1430 0.931 . S
H1435 C1431 0.930 . S
O1436 Co1425 2.039 . S
O1436 C1426 1.265 . S
C1437 O1433 1.253 . S
C1437 O1438 1.227 . S
O1438 C1437 1.227 . S
N1439 Co1425 2.140 . S
N1439 C1442 1.346 . S
N1439 C1443 1.345 . S
C1440 C1441 1.387 . S
C1440 C1444 1.391 . S
C1441 C1440 1.387 . S
C1441 C1442 1.369 . S
C1441 H1450 0.929 . S
C1442 N1439 1.346 . S
C1442 C1441 1.369 . S
C1442 H1445 0.928 . S
C1443 N1439 1.345 . S
C1443 C1444 1.371 . S
C1443 H1446 0.931 . S
C1444 C1440 1.391 . S
C1444 C1443 1.371 . S
C1444 H1451 0.930 . S
H1445 C1442 0.928 . S
H1446 C1443 0.931 . S
H1447 C1423 0.930 . S
H1448 C1420 0.930 . S
H1449 C1429 0.930 . S
H1450 C1441 0.929 . S
H1451 C1444 0.930 . S
C1452 C1453 1.351 . S
C1452 N1455 1.368 . S
C1452 H1457 0.931 . S
C1453 C1452 1.351 . S
C1453 N1454 1.373 . S
C1453 H1481 0.930 . S
N1454 C1453 1.373 . S
N1454 C1456 1.340 . S
N1455 C1452 1.368 . S
N1455 C1456 1.321 . S
N1455 Co1458 2.135 . S
C1456 N1454 1.340 . S
C1456 N1455 1.321 . S
C1456 H1480 0.930 . S
H1457 C1452 0.931 . S
Co1458 N1455 2.135 . S
Co1458 N1461 2.121 1_655 S
Co1458 O1466 2.055 . S
Co1458 O1469 2.039 1_655 S
Co1458 N1472 2.140 . S
C1459 O1460 1.227 . S
C1459 O1469 1.265 . S
O1460 C1459 1.227 . S
N1461 Co1458 2.121 1_455 S
N1461 C1463 1.375 . S
N1461 C1464 1.313 . S
C1462 C1463 1.338 . S
C1462 N1465 1.377 . S
C1462 H1482 0.930 . S
C1463 N1461 1.375 . S
C1463 C1462 1.338 . S
C1463 H1467 0.931 . S
C1464 N1461 1.313 . S
C1464 N1465 1.344 . S
C1464 H1468 0.930 1_455 S
N1465 C1462 1.377 . S
N1465 C1464 1.344 . S
O1466 Co1458 2.055 . S
O1466 C1470 1.253 . S
H1467 C1463 0.931 . S
H1468 C1464 0.930 1_655 S
O1469 Co1458 2.039 1_455 S
O1469 C1459 1.265 . S
C1470 O1466 1.253 . S
C1470 O1471 1.227 . S
O1471 C1470 1.227 . S
N1472 Co1458 2.140 . S
N1472 C1475 1.346 . S
N1472 C1476 1.345 . S
C1473 C1474 1.387 . S
C1473 C1477 1.391 . S
C1474 C1473 1.387 . S
C1474 C1475 1.369 . S
C1474 H1483 0.929 . S
C1475 N1472 1.346 . S
C1475 C1474 1.369 . S
C1475 H1478 0.928 . S
C1476 N1472 1.345 . S
C1476 C1477 1.371 . S
C1476 H1479 0.931 . S
C1477 C1473 1.391 . S
C1477 C1476 1.371 . S
C1477 H1484 0.930 . S
H1478 C1475 0.928 . S
H1479 C1476 0.931 . S
H1480 C1456 0.930 . S
H1481 C1453 0.930 . S
H1482 C1462 0.930 . S
H1483 C1474 0.929 . S
H1484 C1477 0.930 . S
C1485 C1486 1.351 . S
C1485 N1488 1.368 . S
C1485 H1490 0.931 . S
C1486 C1485 1.351 . S
C1486 N1487 1.373 . S
C1486 H1514 0.930 . S
N1487 C1486 1.373 . S
N1487 C1489 1.340 . S
N1488 C1485 1.368 . S
N1488 C1489 1.321 . S
N1488 Co1491 2.135 . S
C1489 N1487 1.340 . S
C1489 N1488 1.321 . S
C1489 H1513 0.930 . S
H1490 C1485 0.931 . S
Co1491 N1488 2.135 . S
Co1491 N1494 2.121 . S
Co1491 O1499 2.055 . S
Co1491 O1502 2.039 . S
Co1491 N1505 2.140 . S
C1492 O1493 1.227 . S
C1492 O1502 1.265 . S
O1493 C1492 1.227 . S
N1494 Co1491 2.121 . S
N1494 C1496 1.375 . S
N1494 C1497 1.313 . S
C1495 C1496 1.338 . S
C1495 N1498 1.377 . S
C1495 H1515 0.930 . S
C1496 N1494 1.375 . S
C1496 C1495 1.338 . S
C1496 H1500 0.931 . S
C1497 N1494 1.313 . S
C1497 N1498 1.344 . S
C1497 H1501 0.930 . S
N1498 C1495 1.377 . S
N1498 C1497 1.344 . S
O1499 Co1491 2.055 . S
O1499 C1503 1.253 . S
H1500 C1496 0.931 . S
H1501 C1497 0.930 . S
O1502 Co1491 2.039 . S
O1502 C1492 1.265 . S
C1503 O1499 1.253 . S
C1503 O1504 1.227 . S
O1504 C1503 1.227 . S
N1505 Co1491 2.140 . S
N1505 C1508 1.346 . S
N1505 C1509 1.345 . S
C1506 C1507 1.387 . S
C1506 C1510 1.391 . S
C1507 C1506 1.387 . S
C1507 C1508 1.369 . S
C1507 H1516 0.929 . S
C1508 N1505 1.346 . S
C1508 C1507 1.369 . S
C1508 H1511 0.928 . S
C1509 N1505 1.345 . S
C1509 C1510 1.371 . S
C1509 H1512 0.931 . S
C1510 C1506 1.391 . S
C1510 C1509 1.371 . S
C1510 H1517 0.930 . S
H1511 C1508 0.928 . S
H1512 C1509 0.931 . S
H1513 C1489 0.930 . S
H1514 C1486 0.930 . S
H1515 C1495 0.930 . S
H1516 C1507 0.929 . S
H1517 C1510 0.930 . S
C1518 C1519 1.351 . S
C1518 N1521 1.368 . S
C1518 H1523 0.931 . S
C1519 C1518 1.351 . S
C1519 N1520 1.373 . S
C1519 H1547 0.930 . S
N1520 C1519 1.373 . S
N1520 C1522 1.340 . S
N1521 C1518 1.368 . S
N1521 C1522 1.321 . S
N1521 Co1524 2.135 . S
C1522 N1520 1.340 . S
C1522 N1521 1.321 . S
C1522 H1546 0.930 . S
H1523 C1518 0.931 . S
Co1524 N1521 2.135 . S
Co1524 N1527 2.121 . S
Co1524 O1532 2.055 . S
Co1524 O1535 2.039 . S
Co1524 N1538 2.140 . S
C1525 O1526 1.227 . S
C1525 O1535 1.265 . S
O1526 C1525 1.227 . S
N1527 Co1524 2.121 . S
N1527 C1529 1.375 . S
N1527 C1530 1.313 . S
C1528 C1529 1.338 . S
C1528 N1531 1.377 . S
C1528 H1548 0.930 . S
C1529 N1527 1.375 . S
C1529 C1528 1.338 . S
C1529 H1533 0.931 . S
C1530 N1527 1.313 . S
C1530 N1531 1.344 . S
C1530 H1534 0.930 . S
N1531 C1528 1.377 . S
N1531 C1530 1.344 . S
O1532 Co1524 2.055 . S
O1532 C1536 1.253 . S
H1533 C1529 0.931 . S
H1534 C1530 0.930 . S
O1535 Co1524 2.039 . S
O1535 C1525 1.265 . S
C1536 O1532 1.253 . S
C1536 O1537 1.227 . S
O1537 C1536 1.227 . S
N1538 Co1524 2.140 . S
N1538 C1541 1.346 . S
N1538 C1542 1.345 . S
C1539 C1540 1.387 . S
C1539 C1543 1.391 . S
C1540 C1539 1.387 . S
C1540 C1541 1.369 . S
C1540 H1549 0.929 . S
C1541 N1538 1.346 . S
C1541 C1540 1.369 . S
C1541 H1544 0.928 . S
C1542 N1538 1.345 . S
C1542 C1543 1.371 . S
C1542 H1545 0.931 . S
C1543 C1539 1.391 . S
C1543 C1542 1.371 . S
C1543 H1550 0.930 . S
H1544 C1541 0.928 . S
H1545 C1542 0.931 . S
H1546 C1522 0.930 . S
H1547 C1519 0.930 . S
H1548 C1528 0.930 . S
H1549 C1540 0.929 . S
H1550 C1543 0.930 . S
C1551 C1552 1.351 . S
C1551 N1554 1.368 . S
C1551 H1556 0.931 . S
C1552 C1551 1.351 . S
C1552 N1553 1.373 . S
C1552 H1580 0.930 . S
N1553 C1552 1.373 . S
N1553 C1555 1.340 . S
N1554 C1551 1.368 . S
N1554 C1555 1.321 . S
N1554 Co1557 2.135 . S
C1555 N1553 1.340 . S
C1555 N1554 1.321 . S
C1555 H1579 0.930 . S
H1556 C1551 0.931 . S
Co1557 N1554 2.135 . S
Co1557 N1560 2.121 . S
Co1557 O1565 2.055 . S
Co1557 O1568 2.039 . S
Co1557 N1571 2.140 . S
C1558 O1559 1.227 . S
C1558 O1568 1.265 . S
O1559 C1558 1.227 . S
N1560 Co1557 2.121 . S
N1560 C1562 1.375 . S
N1560 C1563 1.313 . S
C1561 C1562 1.338 . S
C1561 N1564 1.377 . S
C1561 H1581 0.930 . S
C1562 N1560 1.375 . S
C1562 C1561 1.338 . S
C1562 H1566 0.931 . S
C1563 N1560 1.313 . S
C1563 N1564 1.344 . S
C1563 H1567 0.930 . S
N1564 C1561 1.377 . S
N1564 C1563 1.344 . S
O1565 Co1557 2.055 . S
O1565 C1569 1.253 . S
H1566 C1562 0.931 . S
H1567 C1563 0.930 . S
O1568 Co1557 2.039 . S
O1568 C1558 1.265 . S
C1569 O1565 1.253 . S
C1569 O1570 1.227 . S
O1570 C1569 1.227 . S
N1571 Co1557 2.140 . S
N1571 C1574 1.346 . S
N1571 C1575 1.345 . S
C1572 C1573 1.387 . S
C1572 C1576 1.391 . S
C1573 C1572 1.387 . S
C1573 C1574 1.369 . S
C1573 H1582 0.929 . S
C1574 N1571 1.346 . S
C1574 C1573 1.369 . S
C1574 H1577 0.928 . S
C1575 N1571 1.345 . S
C1575 C1576 1.371 . S
C1575 H1578 0.931 . S
C1576 C1572 1.391 . S
C1576 C1575 1.371 . S
C1576 H1583 0.930 . S
H1577 C1574 0.928 . S
H1578 C1575 0.931 . S
H1579 C1555 0.930 . S
H1580 C1552 0.930 . S
H1581 C1561 0.930 . S
H1582 C1573 0.929 . S
H1583 C1576 0.930 . S
H1584 C1590 0.930 . S
H1585 C1593 0.930 . S
H1586 C1594 0.930 . S
H1587 C1595 0.930 . S
H1588 C1598 0.930 . S
H1589 C1599 0.930 . S
C1590 H1584 0.930 . S
C1590 C1591 1.355 . S
C1590 C1592 1.415 . S
C1591 C1590 1.355 . S
C1591 C1593 1.419 . S
C1592 C1590 1.415 . S
C1592 C1597 1.425 . S
C1592 C1599 1.409 . S
C1593 H1585 0.930 . S
C1593 C1591 1.419 . S
C1593 C1594 1.362 . S
C1594 H1586 0.930 . S
C1594 C1593 1.362 . S
C1594 C1597 1.409 . S
C1595 H1587 0.930 . S
C1595 C1596 1.355 . S
C1595 C1597 1.415 . S
C1596 C1595 1.355 . S
C1596 C1598 1.419 . S
C1597 C1592 1.425 . S
C1597 C1594 1.409 . S
C1597 C1595 1.415 . S
C1598 H1588 0.930 . S
C1598 C1596 1.419 . S
C1598 C1599 1.362 . S
C1599 H1589 0.930 . S
C1599 C1592 1.409 . S
C1599 C1598 1.362 . S
H1600 C1606 0.930 . S
H1601 C1609 0.930 . S
H1602 C1610 0.930 . S
H1603 C1611 0.930 . S
H1604 C1614 0.930 . S
H1605 C1615 0.930 . S
C1606 H1600 0.930 . S
C1606 C1607 1.355 . S
C1606 C1608 1.415 . S
C1607 C1606 1.355 . S
C1607 C1609 1.419 . S
C1608 C1606 1.415 . S
C1608 C1613 1.425 . S
C1608 C1615 1.409 . S
C1609 H1601 0.930 . S
C1609 C1607 1.419 . S
C1609 C1610 1.362 . S
C1610 H1602 0.930 . S
C1610 C1609 1.362 . S
C1610 C1613 1.409 . S
C1611 H1603 0.930 . S
C1611 C1612 1.355 . S
C1611 C1613 1.415 . S
C1612 C1611 1.355 . S
C1612 C1614 1.419 . S
C1613 C1608 1.425 . S
C1613 C1610 1.409 . S
C1613 C1611 1.415 . S
C1614 H1604 0.930 . S
C1614 C1612 1.419 . S
C1614 C1615 1.362 . S
C1615 H1605 0.930 . S
C1615 C1608 1.409 . S
C1615 C1614 1.362 . S
H1616 C1622 0.930 . S
H1617 C1625 0.930 . S
H1618 C1626 0.930 . S
H1619 C1627 0.930 . S
H1620 C1630 0.930 . S
H1621 C1631 0.930 . S
C1622 H1616 0.930 . S
C1622 C1623 1.355 . S
C1622 C1624 1.415 . S
C1623 C1622 1.355 . S
C1623 C1625 1.419 . S
C1624 C1622 1.415 . S
C1624 C1629 1.425 . S
C1624 C1631 1.409 . S
C1625 H1617 0.930 . S
C1625 C1623 1.419 . S
C1625 C1626 1.362 . S
C1626 H1618 0.930 . S
C1626 C1625 1.362 . S
C1626 C1629 1.409 . S
C1627 H1619 0.930 . S
C1627 C1628 1.355 . S
C1627 C1629 1.415 . S
C1628 C1627 1.355 . S
C1628 C1630 1.419 . S
C1629 C1624 1.425 . S
C1629 C1626 1.409 . S
C1629 C1627 1.415 . S
C1630 H1620 0.930 . S
C1630 C1628 1.419 . S
C1630 C1631 1.362 . S
C1631 H1621 0.930 . S
C1631 C1624 1.409 . S
C1631 C1630 1.362 . S
H1632 C1638 0.930 . S
H1633 C1641 0.930 . S
H1634 C1642 0.930 . S
H1635 C1643 0.930 . S
H1636 C1646 0.930 . S
H1637 C1647 0.930 . S
C1638 H1632 0.930 . S
C1638 C1639 1.355 . S
C1638 C1640 1.415 . S
C1639 C1638 1.355 . S
C1639 C1641 1.419 . S
C1640 C1638 1.415 . S
C1640 C1645 1.425 . S
C1640 C1647 1.409 . S
C1641 H1633 0.930 . S
C1641 C1639 1.419 . S
C1641 C1642 1.362 . S
C1642 H1634 0.930 . S
C1642 C1641 1.362 . S
C1642 C1645 1.409 . S
C1643 H1635 0.930 . S
C1643 C1644 1.355 . S
C1643 C1645 1.415 . S
C1644 C1643 1.355 . S
C1644 C1646 1.419 . S
C1645 C1640 1.425 . S
C1645 C1642 1.409 . S
C1645 C1643 1.415 . S
C1646 H1636 0.930 . S
C1646 C1644 1.419 . S
C1646 C1647 1.362 . S
C1647 H1637 0.930 . S
C1647 C1640 1.409 . S
C1647 C1646 1.362 . S
H1648 C1654 0.930 . S
H1649 C1657 0.930 . S
H1650 C1658 0.930 . S
H1651 C1659 0.930 . S
H1652 C1662 0.930 . S
H1653 C1663 0.930 . S
C1654 H1648 0.930 . S
C1654 C1655 1.355 . S
C1654 C1656 1.415 . S
C1655 C1654 1.355 . S
C1655 C1657 1.419 . S
C1656 C1654 1.415 . S
C1656 C1661 1.425 . S
C1656 C1663 1.409 . S
C1657 H1649 0.930 . S
C1657 C1655 1.419 . S
C1657 C1658 1.362 . S
C1658 H1650 0.930 . S
C1658 C1657 1.362 . S
C1658 C1661 1.409 . S
C1659 H1651 0.930 . S
C1659 C1660 1.355 . S
C1659 C1661 1.415 . S
C1660 C1659 1.355 . S
C1660 C1662 1.419 . S
C1661 C1656 1.425 . S
C1661 C1658 1.409 . S
C1661 C1659 1.415 . S
C1662 H1652 0.930 . S
C1662 C1660 1.419 . S
C1662 C1663 1.362 . S
C1663 H1653 0.930 . S
C1663 C1656 1.409 . S
C1663 C1662 1.362 . S
H1664 C1670 0.930 . S
H1665 C1673 0.930 . S
H1666 C1674 0.954 . S
H1667 C1675 0.935 . S
H1668 C1678 0.930 1_655 S
H1669 C1679 0.930 . S
C1670 H1664 0.930 . S
C1670 C1671 1.355 . S
C1670 C1672 1.415 . S
C1671 C1670 1.355 . S
C1671 C1673 1.419 . S
C1672 C1670 1.415 . S
C1672 C1677 1.425 . S
C1672 C1679 1.409 . S
C1673 H1665 0.930 . S
C1673 C1671 1.419 . S
C1673 C1674 1.362 . S
C1674 H1666 0.954 . S
C1674 C1673 1.362 . S
C1674 C1677 1.409 . S
C1675 H1667 0.935 . S
C1675 C1676 1.340 1_455 S
C1675 C1677 1.415 . S
C1676 C1675 1.340 1_655 S
C1676 C1678 1.413 1_655 S
C1677 C1672 1.425 . S
C1677 C1674 1.409 . S
C1677 C1675 1.415 . S
C1678 H1668 0.930 1_455 S
C1678 C1676 1.413 1_455 S
C1678 C1679 1.362 . S
C1679 H1669 0.930 . S
C1679 C1672 1.409 . S
C1679 C1678 1.362 . S
H1680 C1686 0.930 . S
H1681 C1689 0.930 . S
H1682 C1690 0.930 . S
H1683 C1691 0.930 . S
H1684 C1694 0.930 . S
H1685 C1695 0.930 . S
C1686 H1680 0.930 . S
C1686 C1687 1.355 . S
C1686 C1688 1.415 . S
C1687 C1686 1.355 . S
C1687 C1689 1.419 . S
C1688 C1686 1.415 . S
C1688 C1693 1.425 . S
C1688 C1695 1.409 . S
C1689 H1681 0.930 . S
C1689 C1687 1.419 . S
C1689 C1690 1.362 . S
C1690 H1682 0.930 . S
C1690 C1689 1.362 . S
C1690 C1693 1.409 . S
C1691 H1683 0.930 . S
C1691 C1692 1.355 . S
C1691 C1693 1.415 . S
C1692 C1691 1.355 . S
C1692 C1694 1.419 . S
C1693 C1688 1.425 . S
C1693 C1690 1.409 . S
C1693 C1691 1.415 . S
C1694 H1684 0.930 . S
C1694 C1692 1.419 . S
C1694 C1695 1.362 . S
C1695 H1685 0.930 . S
C1695 C1688 1.409 . S
C1695 C1694 1.362 . S
H1696 C1702 0.930 1_455 S
H1697 C1705 0.930 1_556 S
H1698 C1706 0.930 . S
H1699 C1707 0.930 . S
H1700 C1710 0.930 . S
H1701 C1711 0.930 . S
C1702 H1696 0.930 1_655 S
C1702 C1703 1.357 . S
C1702 C1704 1.415 . S
C1703 C1702 1.357 . S
C1703 C1705 1.428 . S
C1704 C1702 1.415 . S
C1704 C1709 1.425 . S
C1704 C1711 1.409 . S
C1705 H1697 0.930 1_554 S
C1705 C1703 1.428 . S
C1705 C1706 1.362 . S
C1706 H1698 0.930 . S
C1706 C1705 1.362 . S
C1706 C1709 1.409 . S
C1707 H1699 0.930 . S
C1707 C1708 1.355 . S
C1707 C1709 1.415 . S
C1708 C1707 1.355 . S
C1708 C1710 1.419 . S
C1709 C1704 1.425 . S
C1709 C1706 1.409 . S
C1709 C1707 1.415 . S
C1710 H1700 0.930 . S
C1710 C1708 1.419 . S
C1710 C1711 1.362 . S
C1711 H1701 0.930 . S
C1711 C1704 1.409 . S
C1711 C1710 1.362 . S
H1712 C1718 0.930 . S
H1713 C1721 0.930 . S
H1714 C1722 0.930 . S
H1715 C1723 0.930 . S
H1716 C1726 0.930 . S
H1717 C1727 0.930 . S
C1718 H1712 0.930 . S
C1718 C1719 1.355 . S
C1718 C1720 1.415 . S
C1719 C1718 1.355 . S
C1719 C1721 1.419 . S
C1720 C1718 1.415 . S
C1720 C1725 1.425 . S
C1720 C1727 1.409 . S
C1721 H1713 0.930 . S
C1721 C1719 1.419 . S
C1721 C1722 1.362 . S
C1722 H1714 0.930 . S
C1722 C1721 1.362 . S
C1722 C1725 1.409 . S
C1723 H1715 0.930 . S
C1723 C1724 1.355 . S
C1723 C1725 1.415 . S
C1724 C1723 1.355 . S
C1724 C1726 1.419 . S
C1725 C1720 1.425 . S
C1725 C1722 1.409 . S
C1725 C1723 1.415 . S
C1726 H1716 0.930 . S
C1726 C1724 1.419 . S
C1726 C1727 1.362 . S
C1727 H1717 0.930 . S
C1727 C1720 1.409 . S
C1727 C1726 1.362 . S
H1728 C1734 0.930 1_556 S
H1729 C1737 0.930 . S
H1730 C1738 0.930 . S
H1731 C1739 0.930 . S
H1732 C1742 0.930 . S
H1733 C1743 0.930 . S
C1734 H1728 0.930 1_554 S
C1734 C1735 1.353 1_554 S
C1734 C1736 1.415 . S
C1735 C1734 1.353 1_556 S
C1735 C1737 1.416 1_556 S
C1736 C1734 1.415 . S
C1736 C1741 1.425 . S
C1736 C1743 1.409 . S
C1737 H1729 0.930 . S
C1737 C1735 1.416 1_554 S
C1737 C1738 1.362 . S
C1738 H1730 0.930 . S
C1738 C1737 1.362 . S
C1738 C1741 1.409 . S
C1739 H1731 0.930 . S
C1739 C1740 1.355 . S
C1739 C1741 1.415 . S
C1740 C1739 1.355 . S
C1740 C1742 1.419 . S
C1741 C1736 1.425 . S
C1741 C1738 1.409 . S
C1741 C1739 1.415 . S
C1742 H1732 0.930 . S
C1742 C1740 1.419 . S
C1742 C1743 1.362 . S
C1743 H1733 0.930 . S
C1743 C1736 1.409 . S
C1743 C1742 1.362 . S
H1744 C1750 0.930 . S
H1745 C1753 0.930 . S
H1746 C1754 0.930 . S
H1747 C1755 0.930 . S
H1748 C1758 0.930 . S
H1749 C1759 0.930 . S
C1750 H1744 0.930 . S
C1750 C1751 1.355 . S
C1750 C1752 1.415 . S
C1751 C1750 1.355 . S
C1751 C1753 1.419 . S
C1752 C1750 1.415 . S
C1752 C1757 1.425 . S
C1752 C1759 1.409 . S
C1753 H1745 0.930 . S
C1753 C1751 1.419 . S
C1753 C1754 1.362 . S
C1754 H1746 0.930 . S
C1754 C1753 1.362 . S
C1754 C1757 1.409 . S
C1755 H1747 0.930 . S
C1755 C1756 1.355 . S
C1755 C1757 1.415 . S
C1756 C1755 1.355 . S
C1756 C1758 1.419 . S
C1757 C1752 1.425 . S
C1757 C1754 1.409 . S
C1757 C1755 1.415 . S
C1758 H1748 0.930 . S
C1758 C1756 1.419 . S
C1758 C1759 1.362 . S
C1759 H1749 0.930 . S
C1759 C1752 1.409 . S
C1759 C1758 1.362 . S
H1760 C1766 0.930 1_556 S
H1761 C1769 0.930 1_565 S
H1762 C1770 0.930 . S
H1763 C1771 0.930 . S
H1764 C1774 0.930 . S
H1765 C1775 0.930 . S
C1766 H1760 0.930 1_554 S
C1766 C1767 1.357 . S
C1766 C1768 1.415 . S
C1767 C1766 1.357 . S
C1767 C1769 1.428 . S
C1768 C1766 1.415 . S
C1768 C1773 1.425 . S
C1768 C1775 1.409 . S
C1769 H1761 0.930 1_545 S
C1769 C1767 1.428 . S
C1769 C1770 1.362 . S
C1770 H1762 0.930 . S
C1770 C1769 1.362 . S
C1770 C1773 1.409 . S
C1771 H1763 0.930 . S
C1771 C1772 1.355 . S
C1771 C1773 1.415 . S
C1772 C1771 1.355 . S
C1772 C1774 1.419 . S
C1773 C1768 1.425 . S
C1773 C1770 1.409 . S
C1773 C1771 1.415 . S
C1774 H1764 0.930 . S
C1774 C1772 1.419 . S
C1774 C1775 1.362 . S
C1775 H1765 0.930 . S
C1775 C1768 1.409 . S
C1775 C1774 1.362 . S
H1776 C1782 0.930 . S
H1777 C1785 0.930 . S
H1778 C1786 0.930 . S
H1779 C1787 0.930 . S
H1780 C1790 0.930 . S
H1781 C1791 0.930 . S
C1782 H1776 0.930 . S
C1782 C1783 1.355 . S
C1782 C1784 1.415 . S
C1783 C1782 1.355 . S
C1783 C1785 1.419 . S
C1784 C1782 1.415 . S
C1784 C1789 1.425 . S
C1784 C1791 1.409 . S
C1785 H1777 0.930 . S
C1785 C1783 1.419 . S
C1785 C1786 1.362 . S
C1786 H1778 0.930 . S
C1786 C1785 1.362 . S
C1786 C1789 1.409 . S
C1787 H1779 0.930 . S
C1787 C1788 1.355 . S
C1787 C1789 1.415 . S
C1788 C1787 1.355 . S
C1788 C1790 1.419 . S
C1789 C1784 1.425 . S
C1789 C1786 1.409 . S
C1789 C1787 1.415 . S
C1790 H1780 0.930 . S
C1790 C1788 1.419 . S
C1790 C1791 1.362 . S
C1791 H1781 0.930 . S
C1791 C1784 1.409 . S
C1791 C1790 1.362 . S
H1792 C1798 0.930 . S
H1793 C1801 0.930 . S
H1794 C1802 0.930 . S
H1795 C1803 0.930 . S
H1796 C1806 0.930 . S
H1797 C1807 0.930 . S
C1798 H1792 0.930 . S
C1798 C1799 1.355 . S
C1798 C1800 1.415 . S
C1799 C1798 1.355 . S
C1799 C1801 1.419 . S
C1800 C1798 1.415 . S
C1800 C1805 1.425 . S
C1800 C1807 1.409 . S
C1801 H1793 0.930 . S
C1801 C1799 1.419 . S
C1801 C1802 1.362 . S
C1802 H1794 0.930 . S
C1802 C1801 1.362 . S
C1802 C1805 1.409 . S
C1803 H1795 0.930 . S
C1803 C1804 1.339 1_556 S
C1803 C1805 1.415 . S
C1804 C1803 1.339 1_554 S
C1804 C1806 1.402 1_554 S
C1805 C1800 1.425 . S
C1805 C1802 1.409 . S
C1805 C1803 1.415 . S
C1806 H1796 0.930 . S
C1806 C1804 1.402 1_556 S
C1806 C1807 1.362 . S
C1807 H1797 0.930 . S
C1807 C1800 1.409 . S
C1807 C1806 1.362 . S
H1808 C1814 0.930 . S
H1809 C1817 0.930 . S
H1810 C1818 0.930 . S
H1811 C1819 0.930 . S
H1812 C1822 0.930 . S
H1813 C1823 0.930 . S
C1814 H1808 0.930 . S
C1814 C1815 1.355 . S
C1814 C1816 1.415 . S
C1815 C1814 1.355 . S
C1815 C1817 1.419 . S
C1816 C1814 1.415 . S
C1816 C1821 1.425 . S
C1816 C1823 1.409 . S
C1817 H1809 0.930 . S
C1817 C1815 1.419 . S
C1817 C1818 1.362 . S
C1818 H1810 0.930 . S
C1818 C1817 1.362 . S
C1818 C1821 1.409 . S
C1819 H1811 0.930 . S
C1819 C1820 1.355 . S
C1819 C1821 1.415 . S
C1820 C1819 1.355 . S
C1820 C1822 1.419 . S
C1821 C1816 1.425 . S
C1821 C1818 1.409 . S
C1821 C1819 1.415 . S
C1822 H1812 0.930 . S
C1822 C1820 1.419 . S
C1822 C1823 1.362 . S
C1823 H1813 0.930 . S
C1823 C1816 1.409 . S
C1823 C1822 1.362 . S
H1824 C1830 0.930 . S
H1825 C1833 0.930 . S
H1826 C1834 0.930 . S
H1827 C1835 0.930 . S
H1828 C1838 0.930 . S
H1829 C1839 0.930 . S
C1830 H1824 0.930 . S
C1830 C1831 1.355 1_556 S
C1830 C1832 1.415 . S
C1831 C1830 1.355 1_554 S
C1831 C1833 1.419 . S
C1832 C1830 1.415 . S
C1832 C1837 1.425 . S
C1832 C1839 1.409 . S
C1833 H1825 0.930 . S
C1833 C1831 1.419 . S
C1833 C1834 1.362 1_554 S
C1834 H1826 0.930 . S
C1834 C1833 1.362 1_556 S
C1834 C1837 1.409 . S
C1835 H1827 0.930 . S
C1835 C1836 1.355 . S
C1835 C1837 1.415 . S
C1836 C1835 1.355 . S
C1836 C1838 1.419 . S
C1837 C1832 1.425 . S
C1837 C1834 1.409 . S
C1837 C1835 1.415 . S
C1838 H1828 0.930 . S
C1838 C1836 1.419 . S
C1838 C1839 1.362 . S
C1839 H1829 0.930 . S
C1839 C1832 1.409 . S
C1839 C1838 1.362 . S
H1840 C1846 0.930 . S
H1841 C1849 0.930 . S
H1842 C1850 0.930 . S
H1843 C1851 0.930 . S
H1844 C1854 0.930 . S
H1845 C1855 0.930 . S
C1846 H1840 0.930 . S
C1846 C1847 1.355 . S
C1846 C1848 1.415 . S
C1847 C1846 1.355 . S
C1847 C1849 1.419 . S
C1848 C1846 1.415 . S
C1848 C1853 1.425 . S
C1848 C1855 1.409 . S
C1849 H1841 0.930 . S
C1849 C1847 1.419 . S
C1849 C1850 1.362 . S
C1850 H1842 0.930 . S
C1850 C1849 1.362 . S
C1850 C1853 1.409 . S
C1851 H1843 0.930 . S
C1851 C1852 1.355 . S
C1851 C1853 1.415 . S
C1852 C1851 1.355 . S
C1852 C1854 1.419 . S
C1853 C1848 1.425 . S
C1853 C1850 1.409 . S
C1853 C1851 1.415 . S
C1854 H1844 0.930 . S
C1854 C1852 1.419 . S
C1854 C1855 1.362 . S
C1855 H1845 0.930 . S
C1855 C1848 1.409 . S
C1855 C1854 1.362 . S
H1856 C1862 0.930 . S
H1857 C1865 0.930 . S
H1858 C1866 0.930 . S
H1859 C1867 0.930 . S
H1860 C1870 0.930 . S
H1861 C1871 0.930 . S
C1862 H1856 0.930 . S
C1862 C1863 1.355 . S
C1862 C1864 1.415 . S
C1863 C1862 1.355 . S
C1863 C1865 1.419 . S
C1864 C1862 1.415 . S
C1864 C1869 1.425 . S
C1864 C1871 1.409 . S
C1865 H1857 0.930 . S
C1865 C1863 1.419 . S
C1865 C1866 1.362 . S
C1866 H1858 0.930 . S
C1866 C1865 1.362 . S
C1866 C1869 1.409 . S
C1867 H1859 0.930 . S
C1867 C1868 1.355 . S
C1867 C1869 1.415 . S
C1868 C1867 1.355 . S
C1868 C1870 1.419 . S
C1869 C1864 1.425 . S
C1869 C1866 1.409 . S
C1869 C1867 1.415 . S
C1870 H1860 0.930 . S
C1870 C1868 1.419 . S
C1870 C1871 1.362 . S
C1871 H1861 0.930 . S
C1871 C1864 1.409 . S
C1871 C1870 1.362 . S
H1872 C1878 0.930 . S
H1873 C1881 0.930 . S
H1874 C1882 0.930 . S
H1875 C1883 0.930 . S
H1876 C1886 0.930 . S
H1877 C1887 0.930 . S
C1878 H1872 0.930 . S
C1878 C1879 1.355 . S
C1878 C1880 1.415 . S
C1879 C1878 1.355 . S
C1879 C1881 1.419 . S
C1880 C1878 1.415 . S
C1880 C1885 1.425 . S
C1880 C1887 1.409 . S
C1881 H1873 0.930 . S
C1881 C1879 1.419 . S
C1881 C1882 1.362 . S
C1882 H1874 0.930 . S
C1882 C1881 1.362 . S
C1882 C1885 1.409 . S
C1883 H1875 0.930 . S
C1883 C1884 1.355 . S
C1883 C1885 1.415 . S
C1884 C1883 1.355 . S
C1884 C1886 1.419 . S
C1885 C1880 1.425 . S
C1885 C1882 1.409 . S
C1885 C1883 1.415 . S
C1886 H1876 0.930 . S
C1886 C1884 1.419 . S
C1886 C1887 1.362 . S
C1887 H1877 0.930 . S
C1887 C1880 1.409 . S
C1887 C1886 1.362 . S
H1888 C1894 0.930 . S
H1889 C1897 0.930 . S
H1890 C1898 0.930 . S
H1891 C1899 0.930 . S
H1892 C1902 0.930 . S
H1893 C1903 0.930 . S
C1894 H1888 0.930 . S
C1894 C1895 1.355 . S
C1894 C1896 1.415 . S
C1895 C1894 1.355 . S
C1895 C1897 1.419 . S
C1896 C1894 1.415 . S
C1896 C1901 1.425 . S
C1896 C1903 1.409 . S
C1897 H1889 0.930 . S
C1897 C1895 1.419 . S
C1897 C1898 1.362 . S
C1898 H1890 0.930 . S
C1898 C1897 1.362 . S
C1898 C1901 1.409 . S
C1899 H1891 0.930 . S
C1899 C1900 1.355 . S
C1899 C1901 1.415 . S
C1900 C1899 1.355 . S
C1900 C1902 1.419 . S
C1901 C1896 1.425 . S
C1901 C1898 1.409 . S
C1901 C1899 1.415 . S
C1902 H1892 0.930 . S
C1902 C1900 1.419 . S
C1902 C1903 1.362 . S
C1903 H1893 0.930 . S
C1903 C1896 1.409 . S
C1903 C1902 1.362 . S
H1904 C1910 0.930 . S
H1905 C1913 0.930 . S
H1906 C1914 0.930 . S
H1907 C1915 0.930 . S
H1908 C1918 0.930 . S
H1909 C1919 0.930 . S
C1910 H1904 0.930 . S
C1910 C1911 1.355 . S
C1910 C1912 1.415 . S
C1911 C1910 1.355 . S
C1911 C1913 1.419 . S
C1912 C1910 1.415 . S
C1912 C1917 1.425 . S
C1912 C1919 1.409 . S
C1913 H1905 0.930 . S
C1913 C1911 1.419 . S
C1913 C1914 1.362 . S
C1914 H1906 0.930 . S
C1914 C1913 1.362 . S
C1914 C1917 1.409 . S
C1915 H1907 0.930 . S
C1915 C1916 1.355 . S
C1915 C1917 1.415 . S
C1916 C1915 1.355 . S
C1916 C1918 1.419 . S
C1917 C1912 1.425 . S
C1917 C1914 1.409 . S
C1917 C1915 1.415 . S
C1918 H1908 0.930 . S
C1918 C1916 1.419 . S
C1918 C1919 1.362 . S
C1919 H1909 0.930 . S
C1919 C1912 1.409 . S
C1919 C1918 1.362 . S
H1920 C1926 0.930 . S
H1921 C1929 0.930 . S
H1922 C1930 0.930 . S
H1923 C1931 0.930 . S
H1924 C1934 0.930 . S
H1925 C1935 0.930 . S
C1926 H1920 0.930 . S
C1926 C1927 1.355 . S
C1926 C1928 1.415 . S
C1927 C1926 1.355 . S
C1927 C1929 1.419 . S
C1928 C1926 1.415 . S
C1928 C1933 1.425 . S
C1928 C1935 1.409 . S
C1929 H1921 0.930 . S
C1929 C1927 1.419 . S
C1929 C1930 1.362 . S
C1930 H1922 0.930 . S
C1930 C1929 1.362 . S
C1930 C1933 1.409 . S
C1931 H1923 0.930 . S
C1931 C1932 1.355 . S
C1931 C1933 1.415 . S
C1932 C1931 1.355 . S
C1932 C1934 1.419 . S
C1933 C1928 1.425 . S
C1933 C1930 1.409 . S
C1933 C1931 1.415 . S
C1934 H1924 0.930 . S
C1934 C1932 1.419 . S
C1934 C1935 1.362 . S
C1935 H1925 0.930 . S
C1935 C1928 1.409 . S
C1935 C1934 1.362 . S
H1936 C1942 0.930 . S
H1937 C1945 0.930 . S
H1938 C1946 0.930 . S
H1939 C1947 0.930 . S
H1940 C1950 0.930 . S
H1941 C1951 0.930 . S
C1942 H1936 0.930 . S
C1942 C1943 1.355 . S
C1942 C1944 1.415 . S
C1943 C1942 1.355 . S
C1943 C1945 1.419 . S
C1944 C1942 1.415 . S
C1944 C1949 1.425 . S
C1944 C1951 1.409 . S
C1945 H1937 0.930 . S
C1945 C1943 1.419 . S
C1945 C1946 1.362 . S
C1946 H1938 0.930 . S
C1946 C1945 1.362 . S
C1946 C1949 1.409 . S
C1947 H1939 0.930 . S
C1947 C1948 1.355 . S
C1947 C1949 1.415 . S
C1948 C1947 1.355 . S
C1948 C1950 1.419 . S
C1949 C1944 1.425 . S
C1949 C1946 1.409 . S
C1949 C1947 1.415 . S
C1950 H1940 0.930 . S
C1950 C1948 1.419 . S
C1950 C1951 1.362 . S
C1951 H1941 0.930 . S
C1951 C1944 1.409 . S
C1951 C1950 1.362 . S
H1952 C1958 0.927 1_565 S
H1953 C1961 0.930 1_655 S
H1954 C1962 0.930 1_655 S
H1955 C1963 0.930 . S
H1956 C1966 0.930 . S
H1957 C1967 0.930 . S
C1958 H1952 0.927 1_545 S
C1958 C1959 1.354 . S
C1958 C1960 1.415 . S
C1959 C1958 1.354 . S
C1959 C1961 1.419 . S
C1960 C1958 1.415 . S
C1960 C1965 1.425 . S
C1960 C1967 1.409 . S
C1961 H1953 0.930 1_455 S
C1961 C1959 1.419 . S
C1961 C1962 1.362 . S
C1962 H1954 0.930 1_455 S
C1962 C1961 1.362 . S
C1962 C1965 1.409 . S
C1963 H1955 0.930 . S
C1963 C1964 1.355 . S
C1963 C1965 1.415 . S
C1964 C1963 1.355 . S
C1964 C1966 1.419 . S
C1965 C1960 1.425 . S
C1965 C1962 1.409 . S
C1965 C1963 1.415 . S
C1966 H1956 0.930 . S
C1966 C1964 1.419 . S
C1966 C1967 1.362 . S
C1967 H1957 0.930 . S
C1967 C1960 1.409 . S
C1967 C1966 1.362 . S
H1968 C1974 0.930 . S
H1969 C1977 0.930 . S
H1970 C1978 0.930 . S
H1971 C1979 0.930 . S
H1972 C1982 0.930 . S
H1973 C1983 0.930 . S
C1974 H1968 0.930 . S
C1974 C1975 1.355 . S
C1974 C1976 1.415 . S
C1975 C1974 1.355 . S
C1975 C1977 1.419 . S
C1976 C1974 1.415 . S
C1976 C1981 1.425 . S
C1976 C1983 1.409 . S
C1977 H1969 0.930 . S
C1977 C1975 1.419 . S
C1977 C1978 1.362 . S
C1978 H1970 0.930 . S
C1978 C1977 1.362 . S
C1978 C1981 1.409 . S
C1979 H1971 0.930 . S
C1979 C1980 1.355 . S
C1979 C1981 1.415 . S
C1980 C1979 1.355 . S
C1980 C1982 1.419 . S
C1981 C1976 1.425 . S
C1981 C1978 1.409 . S
C1981 C1979 1.415 . S
C1982 H1972 0.930 . S
C1982 C1980 1.419 . S
C1982 C1983 1.362 . S
C1983 H1973 0.930 . S
C1983 C1976 1.409 . S
C1983 C1982 1.362 . S
H1984 C1990 0.930 . S
H1985 C1993 0.930 . S
H1986 C1994 0.930 . S
H1987 C1995 0.930 . S
H1988 C1998 0.933 1_455 S
H1989 C1999 0.930 . S
C1990 H1984 0.930 . S
C1990 C1991 1.355 . S
C1990 C1992 1.415 . S
C1991 C1990 1.355 . S
C1991 C1993 1.419 . S
C1992 C1990 1.415 . S
C1992 C1997 1.425 . S
C1992 C1999 1.409 . S
C1993 H1985 0.930 . S
C1993 C1991 1.419 . S
C1993 C1994 1.362 . S
C1994 H1986 0.930 . S
C1994 C1993 1.362 . S
C1994 C1997 1.409 . S
C1995 H1987 0.930 . S
C1995 C1996 1.355 1_655 S
C1995 C1997 1.415 . S
C1996 C1995 1.355 1_455 S
C1996 C1998 1.419 1_455 S
C1997 C1992 1.425 . S
C1997 C1994 1.409 . S
C1997 C1995 1.415 . S
C1998 H1988 0.933 1_655 S
C1998 C1996 1.419 1_655 S
C1998 C1999 1.358 . S
C1999 H1989 0.930 . S
C1999 C1992 1.409 . S
C1999 C1998 1.358 . S
H2000 C2006 0.930 . S
H2001 C2009 0.930 . S
H2002 C2010 0.930 . S
H2003 C2011 0.930 . S
H2004 C2014 0.930 . S
H2005 C2015 0.930 . S
C2006 H2000 0.930 . S
C2006 C2007 1.355 . S
C2006 C2008 1.415 . S
C2007 C2006 1.355 . S
C2007 C2009 1.419 . S
C2008 C2006 1.415 . S
C2008 C2013 1.425 . S
C2008 C2015 1.409 . S
C2009 H2001 0.930 . S
C2009 C2007 1.419 . S
C2009 C2010 1.362 . S
C2010 H2002 0.930 . S
C2010 C2009 1.362 . S
C2010 C2013 1.409 . S
C2011 H2003 0.930 . S
C2011 C2012 1.355 . S
C2011 C2013 1.415 . S
C2012 C2011 1.355 . S
C2012 C2014 1.419 . S
C2013 C2008 1.425 . S
C2013 C2010 1.409 . S
C2013 C2011 1.415 . S
C2014 H2004 0.930 . S
C2014 C2012 1.419 . S
C2014 C2015 1.362 . S
C2015 H2005 0.930 . S
C2015 C2008 1.409 . S
C2015 C2014 1.362 . S
H2016 C2022 0.930 . S
H2017 C2025 0.930 . S
H2018 C2026 0.930 . S
H2019 C2027 0.930 . S
H2020 C2030 0.930 . S
H2021 C2031 0.930 . S
C2022 H2016 0.930 . S
C2022 C2023 1.355 1_455 S
C2022 C2024 1.415 . S
C2023 C2022 1.355 1_655 S
C2023 C2025 1.419 . S
C2024 C2022 1.415 . S
C2024 C2029 1.425 . S
C2024 C2031 1.409 . S
C2025 H2017 0.930 . S
C2025 C2023 1.419 . S
C2025 C2026 1.362 1_655 S
C2026 H2018 0.930 . S
C2026 C2025 1.362 1_455 S
C2026 C2029 1.409 . S
C2027 H2019 0.930 . S
C2027 C2028 1.355 . S
C2027 C2029 1.415 . S
C2028 C2027 1.355 . S
C2028 C2030 1.419 . S
C2029 C2024 1.425 . S
C2029 C2026 1.409 . S
C2029 C2027 1.415 . S
C2030 H2020 0.930 . S
C2030 C2028 1.419 . S
C2030 C2031 1.362 . S
C2031 H2021 0.930 . S
C2031 C2024 1.409 . S
C2031 C2030 1.362 . S
H2032 C2038 0.930 . S
H2033 C2041 0.930 . S
H2034 C2042 0.930 . S
H2035 C2043 0.930 . S
H2036 C2046 0.930 . S
H2037 C2047 0.930 . S
C2038 H2032 0.930 . S
C2038 C2039 1.355 . S
C2038 C2040 1.415 . S
C2039 C2038 1.355 . S
C2039 C2041 1.419 . S
C2040 C2038 1.415 . S
C2040 C2045 1.425 . S
C2040 C2047 1.409 . S
C2041 H2033 0.930 . S
C2041 C2039 1.419 . S
C2041 C2042 1.362 . S
C2042 H2034 0.930 . S
C2042 C2041 1.362 . S
C2042 C2045 1.409 . S
C2043 H2035 0.930 . S
C2043 C2044 1.355 . S
C2043 C2045 1.415 . S
C2044 C2043 1.355 . S
C2044 C2046 1.419 . S
C2045 C2040 1.425 . S
C2045 C2042 1.409 . S
C2045 C2043 1.415 . S
C2046 H2036 0.930 . S
C2046 C2044 1.419 . S
C2046 C2047 1.362 . S
C2047 H2037 0.930 . S
C2047 C2040 1.409 . S
C2047 C2046 1.362 . S
H2048 C2054 0.930 . S
H2049 C2057 0.930 . S
H2050 C2058 0.930 . S
H2051 C2059 0.930 . S
H2052 C2062 0.930 . S
H2053 C2063 0.930 . S
C2054 H2048 0.930 . S
C2054 C2055 1.355 . S
C2054 C2056 1.415 . S
C2055 C2054 1.355 . S
C2055 C2057 1.419 . S
C2056 C2054 1.415 . S
C2056 C2061 1.425 . S
C2056 C2063 1.409 . S
C2057 H2049 0.930 . S
C2057 C2055 1.419 . S
C2057 C2058 1.362 . S
C2058 H2050 0.930 . S
C2058 C2057 1.362 . S
C2058 C2061 1.409 . S
C2059 H2051 0.930 . S
C2059 C2060 1.355 . S
C2059 C2061 1.415 . S
C2060 C2059 1.355 . S
C2060 C2062 1.419 . S
C2061 C2056 1.425 . S
C2061 C2058 1.409 . S
C2061 C2059 1.415 . S
C2062 H2052 0.930 . S
C2062 C2060 1.419 . S
C2062 C2063 1.362 . S
C2063 H2053 0.930 . S
C2063 C2056 1.409 . S
C2063 C2062 1.362 . S
H2064 C2070 0.930 . S
H2065 C2073 0.930 . S
H2066 C2074 0.930 . S
H2067 C2075 0.930 . S
H2068 C2078 0.930 . S
H2069 C2079 0.930 . S
C2070 H2064 0.930 . S
C2070 C2071 1.355 . S
C2070 C2072 1.415 . S
C2071 C2070 1.355 . S
C2071 C2073 1.419 . S
C2072 C2070 1.415 . S
C2072 C2077 1.425 . S
C2072 C2079 1.409 . S
C2073 H2065 0.930 . S
C2073 C2071 1.419 . S
C2073 C2074 1.362 . S
C2074 H2066 0.930 . S
C2074 C2073 1.362 . S
C2074 C2077 1.409 . S
C2075 H2067 0.930 . S
C2075 C2076 1.355 . S
C2075 C2077 1.415 . S
C2076 C2075 1.355 . S
C2076 C2078 1.419 . S
C2077 C2072 1.425 . S
C2077 C2074 1.409 . S
C2077 C2075 1.415 . S
C2078 H2068 0.930 . S
C2078 C2076 1.419 . S
C2078 C2079 1.362 . S
C2079 H2069 0.930 . S
C2079 C2072 1.409 . S
C2079 C2078 1.362 . S
H2080 C2086 0.930 . S
H2081 C2089 0.930 . S
H2082 C2090 0.930 . S
H2083 C2091 0.930 . S
H2084 C2094 0.930 . S
H2085 C2095 0.930 . S
C2086 H2080 0.930 . S
C2086 C2087 1.355 . S
C2086 C2088 1.415 . S
C2087 C2086 1.355 . S
C2087 C2089 1.419 . S
C2088 C2086 1.415 . S
C2088 C2093 1.425 . S
C2088 C2095 1.409 . S
C2089 H2081 0.930 . S
C2089 C2087 1.419 . S
C2089 C2090 1.362 . S
C2090 H2082 0.930 . S
C2090 C2089 1.362 . S
C2090 C2093 1.409 . S
C2091 H2083 0.930 . S
C2091 C2092 1.355 . S
C2091 C2093 1.415 . S
C2092 C2091 1.355 . S
C2092 C2094 1.419 . S
C2093 C2088 1.425 . S
C2093 C2090 1.409 . S
C2093 C2091 1.415 . S
C2094 H2084 0.930 . S
C2094 C2092 1.419 . S
C2094 C2095 1.362 . S
C2095 H2085 0.930 . S
C2095 C2088 1.409 . S
C2095 C2094 1.362 . S
H2096 C2102 0.930 . S
H2097 C2105 0.930 . S
H2098 C2106 0.930 . S
H2099 C2107 0.930 . S
H2100 C2110 0.930 . S
H2101 C2111 0.930 . S
C2102 H2096 0.930 . S
C2102 C2103 1.355 . S
C2102 C2104 1.415 . S
C2103 C2102 1.355 . S
C2103 C2105 1.419 . S
C2104 C2102 1.415 . S
C2104 C2109 1.425 . S
C2104 C2111 1.409 . S
C2105 H2097 0.930 . S
C2105 C2103 1.419 . S
C2105 C2106 1.362 . S
C2106 H2098 0.930 . S
C2106 C2105 1.362 . S
C2106 C2109 1.409 . S
C2107 H2099 0.930 . S
C2107 C2108 1.355 . S
C2107 C2109 1.415 . S
C2108 C2107 1.355 . S
C2108 C2110 1.419 . S
C2109 C2104 1.425 . S
C2109 C2106 1.409 . S
C2109 C2107 1.415 . S
C2110 H2100 0.930 . S
C2110 C2108 1.419 . S
C2110 C2111 1.362 . S
C2111 H2101 0.930 . S
C2111 C2104 1.409 . S
C2111 C2110 1.362 . S
H2112 C2118 0.930 . S
H2113 C2121 0.930 . S
H2114 C2122 0.930 . S
H2115 C2123 0.930 . S
H2116 C2126 0.930 . S
H2117 C2127 0.930 . S
C2118 H2112 0.930 . S
C2118 C2119 1.355 . S
C2118 C2120 1.415 . S
C2119 C2118 1.355 . S
C2119 C2121 1.419 . S
C2120 C2118 1.415 . S
C2120 C2125 1.425 . S
C2120 C2127 1.409 . S
C2121 H2113 0.930 . S
C2121 C2119 1.419 . S
C2121 C2122 1.362 . S
C2122 H2114 0.930 . S
C2122 C2121 1.362 . S
C2122 C2125 1.409 . S
C2123 H2115 0.930 . S
C2123 C2124 1.355 . S
C2123 C2125 1.415 . S
C2124 C2123 1.355 . S
C2124 C2126 1.419 . S
C2125 C2120 1.425 . S
C2125 C2122 1.409 . S
C2125 C2123 1.415 . S
C2126 H2116 0.930 . S
C2126 C2124 1.419 . S
C2126 C2127 1.362 . S
C2127 H2117 0.930 . S
C2127 C2120 1.409 . S
C2127 C2126 1.362 . S
H2128 C2134 0.930 . S
H2129 C2137 0.930 . S
H2130 C2138 0.930 . S
H2131 C2139 0.930 . S
H2132 C2142 0.930 . S
H2133 C2143 0.930 . S
C2134 H2128 0.930 . S
C2134 C2135 1.355 . S
C2134 C2136 1.415 . S
C2135 C2134 1.355 . S
C2135 C2137 1.419 . S
C2136 C2134 1.415 . S
C2136 C2141 1.425 . S
C2136 C2143 1.409 . S
C2137 H2129 0.930 . S
C2137 C2135 1.419 . S
C2137 C2138 1.362 . S
C2138 H2130 0.930 . S
C2138 C2137 1.362 . S
C2138 C2141 1.409 . S
C2139 H2131 0.930 . S
C2139 C2140 1.355 . S
C2139 C2141 1.415 . S
C2140 C2139 1.355 . S
C2140 C2142 1.419 . S
C2141 C2136 1.425 . S
C2141 C2138 1.409 . S
C2141 C2139 1.415 . S
C2142 H2132 0.930 . S
C2142 C2140 1.419 . S
C2142 C2143 1.362 . S
C2143 H2133 0.930 . S
C2143 C2136 1.409 . S
C2143 C2142 1.362 . S
H2144 C2150 0.930 . S
H2145 C2153 0.930 . S
H2146 C2154 0.930 . S
H2147 C2155 0.930 . S
H2148 C2158 0.930 . S
H2149 C2159 0.930 . S
C2150 H2144 0.930 . S
C2150 C2151 1.355 . S
C2150 C2152 1.415 . S
C2151 C2150 1.355 . S
C2151 C2153 1.419 . S
C2152 C2150 1.415 . S
C2152 C2157 1.425 . S
C2152 C2159 1.409 . S
C2153 H2145 0.930 . S
C2153 C2151 1.419 . S
C2153 C2154 1.362 . S
C2154 H2146 0.930 . S
C2154 C2153 1.362 . S
C2154 C2157 1.409 . S
C2155 H2147 0.930 . S
C2155 C2156 1.355 . S
C2155 C2157 1.415 . S
C2156 C2155 1.355 . S
C2156 C2158 1.419 . S
C2157 C2152 1.425 . S
C2157 C2154 1.409 . S
C2157 C2155 1.415 . S
C2158 H2148 0.930 . S
C2158 C2156 1.419 . S
C2158 C2159 1.362 . S
C2159 H2149 0.930 . S
C2159 C2152 1.409 . S
C2159 C2158 1.362 . S
H2160 C2166 0.930 . S
H2161 C2169 0.930 . S
H2162 C2170 0.930 . S
H2163 C2171 0.930 . S
H2164 C2174 0.930 . S
H2165 C2175 0.930 . S
C2166 H2160 0.930 . S
C2166 C2167 1.355 . S
C2166 C2168 1.415 . S
C2167 C2166 1.355 . S
C2167 C2169 1.419 . S
C2168 C2166 1.415 . S
C2168 C2173 1.425 . S
C2168 C2175 1.409 . S
C2169 H2161 0.930 . S
C2169 C2167 1.419 . S
C2169 C2170 1.362 . S
C2170 H2162 0.930 . S
C2170 C2169 1.362 . S
C2170 C2173 1.409 . S
C2171 H2163 0.930 . S
C2171 C2172 1.355 . S
C2171 C2173 1.415 . S
C2172 C2171 1.355 . S
C2172 C2174 1.419 . S
C2173 C2168 1.425 . S
C2173 C2170 1.409 . S
C2173 C2171 1.415 . S
C2174 H2164 0.930 . S
C2174 C2172 1.419 . S
C2174 C2175 1.362 . S
C2175 H2165 0.930 . S
C2175 C2168 1.409 . S
C2175 C2174 1.362 . S
H2176 C2182 0.930 . S
H2177 C2185 0.930 . S
H2178 C2186 0.930 . S
H2179 C2187 0.930 . S
H2180 C2190 0.930 . S
H2181 C2191 0.916 1_545 S
C2182 H2176 0.930 . S
C2182 C2183 1.355 . S
C2182 C2184 1.415 . S
C2183 C2182 1.355 . S
C2183 C2185 1.419 . S
C2184 C2182 1.415 . S
C2184 C2189 1.425 . S
C2184 C2191 1.409 . S
C2185 H2177 0.930 . S
C2185 C2183 1.419 . S
C2185 C2186 1.362 . S
C2186 H2178 0.930 . S
C2186 C2185 1.362 . S
C2186 C2189 1.409 . S
C2187 H2179 0.930 . S
C2187 C2188 1.355 . S
C2187 C2189 1.415 . S
C2188 C2187 1.355 . S
C2188 C2190 1.419 . S
C2189 C2184 1.425 . S
C2189 C2186 1.409 . S
C2189 C2187 1.415 . S
C2190 H2180 0.930 . S
C2190 C2188 1.419 . S
C2190 C2191 1.362 . S
C2191 H2181 0.916 1_565 S
C2191 C2184 1.409 . S
C2191 C2190 1.362 . S
H2192 C2198 0.930 . S
H2193 C2201 0.930 . S
H2194 C2202 0.930 . S
H2195 C2203 0.930 . S
H2196 C2206 0.930 . S
H2197 C2207 0.930 . S
C2198 H2192 0.930 . S
C2198 C2199 1.355 . S
C2198 C2200 1.415 . S
C2199 C2198 1.355 . S
C2199 C2201 1.419 . S
C2200 C2198 1.415 . S
C2200 C2205 1.425 . S
C2200 C2207 1.409 . S
C2201 H2193 0.930 . S
C2201 C2199 1.419 . S
C2201 C2202 1.362 . S
C2202 H2194 0.930 . S
C2202 C2201 1.362 . S
C2202 C2205 1.409 . S
C2203 H2195 0.930 . S
C2203 C2204 1.355 . S
C2203 C2205 1.415 . S
C2204 C2203 1.355 . S
C2204 C2206 1.419 . S
C2205 C2200 1.425 . S
C2205 C2202 1.409 . S
C2205 C2203 1.415 . S
C2206 H2196 0.930 . S
C2206 C2204 1.419 . S
C2206 C2207 1.362 . S
C2207 H2197 0.930 . S
C2207 C2200 1.409 . S
C2207 C2206 1.362 . S
H2208 C2214 0.930 . S
H2209 C2217 0.930 . S
H2210 C2218 0.930 . S
H2211 C2219 0.930 . S
H2212 C2222 0.930 . S
H2213 C2223 0.930 . S
C2214 H2208 0.930 . S
C2214 C2215 1.355 . S
C2214 C2216 1.415 . S
C2215 C2214 1.355 . S
C2215 C2217 1.419 . S
C2216 C2214 1.415 . S
C2216 C2221 1.425 . S
C2216 C2223 1.409 . S
C2217 H2209 0.930 . S
C2217 C2215 1.419 . S
C2217 C2218 1.362 . S
C2218 H2210 0.930 . S
C2218 C2217 1.362 . S
C2218 C2221 1.409 . S
C2219 H2211 0.930 . S
C2219 C2220 1.355 . S
C2219 C2221 1.415 . S
C2220 C2219 1.355 . S
C2220 C2222 1.419 . S
C2221 C2216 1.425 . S
C2221 C2218 1.409 . S
C2221 C2219 1.415 . S
C2222 H2212 0.930 . S
C2222 C2220 1.419 . S
C2222 C2223 1.362 . S
C2223 H2213 0.930 . S
C2223 C2216 1.409 . S
C2223 C2222 1.362 . S
H2224 C2230 0.930 . S
H2225 C2233 0.930 . S
H2226 C2234 0.930 . S
H2227 C2235 0.930 . S
H2228 C2238 0.930 . S
H2229 C2239 0.930 . S
C2230 H2224 0.930 . S
C2230 C2231 1.355 . S
C2230 C2232 1.415 . S
C2231 C2230 1.355 . S
C2231 C2233 1.419 . S
C2232 C2230 1.415 . S
C2232 C2237 1.425 . S
C2232 C2239 1.409 . S
C2233 H2225 0.930 . S
C2233 C2231 1.419 . S
C2233 C2234 1.362 . S
C2234 H2226 0.930 . S
C2234 C2233 1.362 . S
C2234 C2237 1.409 . S
C2235 H2227 0.930 . S
C2235 C2236 1.355 . S
C2235 C2237 1.415 . S
C2236 C2235 1.355 . S
C2236 C2238 1.419 . S
C2237 C2232 1.425 . S
C2237 C2234 1.409 . S
C2237 C2235 1.415 . S
C2238 H2228 0.930 . S
C2238 C2236 1.419 . S
C2238 C2239 1.362 . S
C2239 H2229 0.930 . S
C2239 C2232 1.409 . S
C2239 C2238 1.362 . S
H2240 C2246 0.930 . S
H2241 C2249 0.930 . S
H2242 C2250 0.930 . S
H2243 C2251 0.930 . S
H2244 C2254 0.930 . S
H2245 C2255 0.930 . S
C2246 H2240 0.930 . S
C2246 C2247 1.355 . S
C2246 C2248 1.415 . S
C2247 C2246 1.355 . S
C2247 C2249 1.419 . S
C2248 C2246 1.415 . S
C2248 C2253 1.425 . S
C2248 C2255 1.409 . S
C2249 H2241 0.930 . S
C2249 C2247 1.419 . S
C2249 C2250 1.362 . S
C2250 H2242 0.930 . S
C2250 C2249 1.362 . S
C2250 C2253 1.409 . S
C2251 H2243 0.930 . S
C2251 C2252 1.355 . S
C2251 C2253 1.415 . S
C2252 C2251 1.355 . S
C2252 C2254 1.419 . S
C2253 C2248 1.425 . S
C2253 C2250 1.409 . S
C2253 C2251 1.415 . S
C2254 H2244 0.930 . S
C2254 C2252 1.419 . S
C2254 C2255 1.362 . S
C2255 H2245 0.930 . S
C2255 C2248 1.409 . S
C2255 C2254 1.362 . S
H2256 C2262 0.930 1_565 S
H2257 C2265 0.930 . S
H2258 C2266 0.930 . S
H2259 C2267 0.930 . S
H2260 C2270 0.930 . S
H2261 C2271 0.930 . S
C2262 H2256 0.930 1_545 S
C2262 C2263 1.353 . S
C2262 C2264 1.415 . S
C2263 C2262 1.353 . S
C2263 C2265 1.415 . S
C2264 C2262 1.415 . S
C2264 C2269 1.425 . S
C2264 C2271 1.409 . S
C2265 H2257 0.930 . S
C2265 C2263 1.415 . S
C2265 C2266 1.362 . S
C2266 H2258 0.930 . S
C2266 C2265 1.362 . S
C2266 C2269 1.409 . S
C2267 H2259 0.930 . S
C2267 C2268 1.355 . S
C2267 C2269 1.415 . S
C2268 C2267 1.355 . S
C2268 C2270 1.419 . S
C2269 C2264 1.425 . S
C2269 C2266 1.409 . S
C2269 C2267 1.415 . S
C2270 H2260 0.930 . S
C2270 C2268 1.419 . S
C2270 C2271 1.362 . S
C2271 H2261 0.930 . S
C2271 C2264 1.409 . S
C2271 C2270 1.362 . S
H2272 C2278 0.930 . S
H2273 C2281 0.930 . S
H2274 C2282 0.930 . S
H2275 C2283 0.930 . S
H2276 C2286 0.930 . S
H2277 C2287 0.930 . S
C2278 H2272 0.930 . S
C2278 C2279 1.355 . S
C2278 C2280 1.415 . S
C2279 C2278 1.355 . S
C2279 C2281 1.419 . S
C2280 C2278 1.415 . S
C2280 C2285 1.425 . S
C2280 C2287 1.409 . S
C2281 H2273 0.930 . S
C2281 C2279 1.419 . S
C2281 C2282 1.362 . S
C2282 H2274 0.930 . S
C2282 C2281 1.362 . S
C2282 C2285 1.409 . S
C2283 H2275 0.930 . S
C2283 C2284 1.355 . S
C2283 C2285 1.415 . S
C2284 C2283 1.355 . S
C2284 C2286 1.419 . S
C2285 C2280 1.425 . S
C2285 C2282 1.409 . S
C2285 C2283 1.415 . S
C2286 H2276 0.930 . S
C2286 C2284 1.419 . S
C2286 C2287 1.362 . S
C2287 H2277 0.930 . S
C2287 C2280 1.409 . S
C2287 C2286 1.362 . S
H2288 C2294 0.930 1_545 S
H2289 C2297 0.930 1_655 S
H2290 C2298 0.930 1_655 S
H2291 C2299 0.930 . S
H2292 C2302 0.930 . S
H2293 C2303 0.930 . S
C2294 H2288 0.930 1_565 S
C2294 C2295 1.356 . S
C2294 C2296 1.415 . S
C2295 C2294 1.356 . S
C2295 C2297 1.421 . S
C2296 C2294 1.415 . S
C2296 C2301 1.425 . S
C2296 C2303 1.409 . S
C2297 H2289 0.930 1_455 S
C2297 C2295 1.421 . S
C2297 C2298 1.362 . S
C2298 H2290 0.930 1_455 S
C2298 C2297 1.362 . S
C2298 C2301 1.409 . S
C2299 H2291 0.930 . S
C2299 C2300 1.355 . S
C2299 C2301 1.415 . S
C2300 C2299 1.355 . S
C2300 C2302 1.419 . S
C2301 C2296 1.425 . S
C2301 C2298 1.409 . S
C2301 C2299 1.415 . S
C2302 H2292 0.930 . S
C2302 C2300 1.419 . S
C2302 C2303 1.362 . S
C2303 H2293 0.930 . S
C2303 C2296 1.409 . S
C2303 C2302 1.362 . S
H2304 C2310 0.930 . S
H2305 C2313 0.930 . S
H2306 C2314 0.930 . S
H2307 C2315 0.930 . S
H2308 C2318 0.930 . S
H2309 C2319 0.930 . S
C2310 H2304 0.930 . S
C2310 C2311 1.355 . S
C2310 C2312 1.415 . S
C2311 C2310 1.355 . S
C2311 C2313 1.419 . S
C2312 C2310 1.415 . S
C2312 C2317 1.425 . S
C2312 C2319 1.409 . S
C2313 H2305 0.930 . S
C2313 C2311 1.419 . S
C2313 C2314 1.362 . S
C2314 H2306 0.930 . S
C2314 C2313 1.362 . S
C2314 C2317 1.409 . S
C2315 H2307 0.930 . S
C2315 C2316 1.355 . S
C2315 C2317 1.415 . S
C2316 C2315 1.355 . S
C2316 C2318 1.419 . S
C2317 C2312 1.425 . S
C2317 C2314 1.409 . S
C2317 C2315 1.415 . S
C2318 H2308 0.930 . S
C2318 C2316 1.419 . S
C2318 C2319 1.362 . S
C2319 H2309 0.930 . S
C2319 C2312 1.409 . S
C2319 C2318 1.362 . S
H2320 C2326 0.930 . S
H2321 C2329 0.930 . S
H2322 C2330 0.930 . S
H2323 C2331 0.930 1_545 S
H2324 C2334 0.930 . S
H2325 C2335 0.930 . S
C2326 H2320 0.930 . S
C2326 C2327 1.355 . S
C2326 C2328 1.415 . S
C2327 C2326 1.355 . S
C2327 C2329 1.419 . S
C2328 C2326 1.415 . S
C2328 C2333 1.425 . S
C2328 C2335 1.409 . S
C2329 H2321 0.930 . S
C2329 C2327 1.419 . S
C2329 C2330 1.362 . S
C2330 H2322 0.930 . S
C2330 C2329 1.362 . S
C2330 C2333 1.409 . S
C2331 H2323 0.930 1_565 S
C2331 C2332 1.357 . S
C2331 C2333 1.415 . S
C2332 C2331 1.357 . S
C2332 C2334 1.428 . S
C2333 C2328 1.425 . S
C2333 C2330 1.409 . S
C2333 C2331 1.415 . S
C2334 H2324 0.930 . S
C2334 C2332 1.428 . S
C2334 C2335 1.362 . S
C2335 H2325 0.930 . S
C2335 C2328 1.409 . S
C2335 C2334 1.362 . S
H2336 C2342 0.930 . S
H2337 C2345 0.930 . S
H2338 C2346 0.930 . S
H2339 C2347 0.930 . S
H2340 C2350 0.930 . S
H2341 C2351 0.930 . S
C2342 H2336 0.930 . S
C2342 C2343 1.355 . S
C2342 C2344 1.415 . S
C2343 C2342 1.355 . S
C2343 C2345 1.419 . S
C2344 C2342 1.415 . S
C2344 C2349 1.425 . S
C2344 C2351 1.409 . S
C2345 H2337 0.930 . S
C2345 C2343 1.419 . S
C2345 C2346 1.362 . S
C2346 H2338 0.930 . S
C2346 C2345 1.362 . S
C2346 C2349 1.409 . S
C2347 H2339 0.930 . S
C2347 C2348 1.355 . S
C2347 C2349 1.415 . S
C2348 C2347 1.355 . S
C2348 C2350 1.419 . S
C2349 C2344 1.425 . S
C2349 C2346 1.409 . S
C2349 C2347 1.415 . S
C2350 H2340 0.930 . S
C2350 C2348 1.419 . S
C2350 C2351 1.362 . S
C2351 H2341 0.930 . S
C2351 C2344 1.409 . S
C2351 C2350 1.362 . S
H2352 C2358 0.930 . S
H2353 C2361 0.930 . S
H2354 C2362 0.930 . S
H2355 C2363 0.930 . S
H2356 C2366 0.930 . S
H2357 C2367 0.930 . S
C2358 H2352 0.930 . S
C2358 C2359 1.355 . S
C2358 C2360 1.415 1_455 S
C2359 C2358 1.355 . S
C2359 C2361 1.419 . S
C2360 C2358 1.415 1_655 S
C2360 C2365 1.425 1_655 S
C2360 C2367 1.409 . S
C2361 H2353 0.930 . S
C2361 C2359 1.419 . S
C2361 C2362 1.362 . S
C2362 H2354 0.930 . S
C2362 C2361 1.362 . S
C2362 C2365 1.409 . S
C2363 H2355 0.930 . S
C2363 C2364 1.355 . S
C2363 C2365 1.415 1_655 S
C2364 C2363 1.355 . S
C2364 C2366 1.419 . S
C2365 C2360 1.425 1_455 S
C2365 C2362 1.409 . S
C2365 C2363 1.415 1_455 S
C2366 H2356 0.930 . S
C2366 C2364 1.419 . S
C2366 C2367 1.362 . S
C2367 H2357 0.930 . S
C2367 C2360 1.409 . S
C2367 C2366 1.362 . S
H2368 C2374 0.930 . S
H2369 C2377 0.930 . S
H2370 C2378 0.930 . S
H2371 C2379 0.930 . S
H2372 C2382 0.930 . S
H2373 C2383 0.930 . S
C2374 H2368 0.930 . S
C2374 C2375 1.355 . S
C2374 C2376 1.415 . S
C2375 C2374 1.355 . S
C2375 C2377 1.419 . S
C2376 C2374 1.415 . S
C2376 C2381 1.425 . S
C2376 C2383 1.409 . S
C2377 H2369 0.930 . S
C2377 C2375 1.419 . S
C2377 C2378 1.362 . S
C2378 H2370 0.930 . S
C2378 C2377 1.362 . S
C2378 C2381 1.409 . S
C2379 H2371 0.930 . S
C2379 C2380 1.355 . S
C2379 C2381 1.415 . S
C2380 C2379 1.355 . S
C2380 C2382 1.419 . S
C2381 C2376 1.425 . S
C2381 C2378 1.409 . S
C2381 C2379 1.415 . S
C2382 H2372 0.930 . S
C2382 C2380 1.419 . S
C2382 C2383 1.362 . S
C2383 H2373 0.930 . S
C2383 C2376 1.409 . S
C2383 C2382 1.362 . S
H2384 C2390 0.930 . S
H2385 C2393 0.930 . S
H2386 C2394 0.930 . S
H2387 C2395 0.930 . S
H2388 C2398 0.930 . S
H2389 C2399 0.930 . S
C2390 H2384 0.930 . S
C2390 C2391 1.355 . S
C2390 C2392 1.415 . S
C2391 C2390 1.355 . S
C2391 C2393 1.419 . S
C2392 C2390 1.415 . S
C2392 C2397 1.425 1_655 S
C2392 C2399 1.409 . S
C2393 H2385 0.930 . S
C2393 C2391 1.419 . S
C2393 C2394 1.362 1_655 S
C2394 H2386 0.930 . S
C2394 C2393 1.362 1_455 S
C2394 C2397 1.409 . S
C2395 H2387 0.930 . S
C2395 C2396 1.355 . S
C2395 C2397 1.415 . S
C2396 C2395 1.355 . S
C2396 C2398 1.419 . S
C2397 C2392 1.425 1_455 S
C2397 C2394 1.409 . S
C2397 C2395 1.415 . S
C2398 H2388 0.930 . S
C2398 C2396 1.419 . S
C2398 C2399 1.362 1_455 S
C2399 H2389 0.930 . S
C2399 C2392 1.409 . S
C2399 C2398 1.362 1_655 S
H2400 C2406 0.930 . S
H2401 C2409 0.930 1_455 S
H2402 C2410 0.930 . S
H2403 C2411 0.930 . S
H2404 C2414 0.930 1_655 S
H2405 C2415 0.930 . S
C2406 H2400 0.930 . S
C2406 C2407 1.355 . S
C2406 C2408 1.415 . S
C2407 C2406 1.355 . S
C2407 C2409 1.419 . S
C2408 C2406 1.415 . S
C2408 C2413 1.425 1_655 S
C2408 C2415 1.409 . S
C2409 H2401 0.930 1_655 S
C2409 C2407 1.419 . S
C2409 C2410 1.362 1_655 S
C2410 H2402 0.930 . S
C2410 C2409 1.362 1_455 S
C2410 C2413 1.409 . S
C2411 H2403 0.930 . S
C2411 C2412 1.355 . S
C2411 C2413 1.415 . S
C2412 C2411 1.355 . S
C2412 C2414 1.419 . S
C2413 C2408 1.425 1_455 S
C2413 C2410 1.409 . S
C2413 C2411 1.415 . S
C2414 H2404 0.930 1_455 S
C2414 C2412 1.419 . S
C2414 C2415 1.362 1_455 S
C2415 H2405 0.930 . S
C2415 C2408 1.409 . S
C2415 C2414 1.362 1_655 S
H2416 C2422 0.930 . S
H2417 C2425 0.930 . S
H2418 C2426 0.930 . S
H2419 C2427 0.930 . S
H2420 C2430 0.930 . S
H2421 C2431 0.930 . S
C2422 H2416 0.930 . S
C2422 C2423 1.355 . S
C2422 C2424 1.415 1_565 S
C2423 C2422 1.355 . S
C2423 C2425 1.419 . S
C2424 C2422 1.415 1_545 S
C2424 C2429 1.425 1_545 S
C2424 C2431 1.409 . S
C2425 H2417 0.930 . S
C2425 C2423 1.419 . S
C2425 C2426 1.362 . S
C2426 H2418 0.930 . S
C2426 C2425 1.362 . S
C2426 C2429 1.409 . S
C2427 H2419 0.930 . S
C2427 C2428 1.355 . S
C2427 C2429 1.415 1_545 S
C2428 C2427 1.355 . S
C2428 C2430 1.419 . S
C2429 C2424 1.425 1_565 S
C2429 C2426 1.409 . S
C2429 C2427 1.415 1_565 S
C2430 H2420 0.930 . S
C2430 C2428 1.419 . S
C2430 C2431 1.362 . S
C2431 H2421 0.930 . S
C2431 C2424 1.409 . S
C2431 C2430 1.362 . S
H2432 C2438 0.930 1_554 S
H2433 C2441 0.930 . S
H2434 C2442 0.930 . S
H2435 C2443 0.930 1_556 S
H2436 C2446 0.930 . S
H2437 C2447 0.930 . S
C2438 H2432 0.930 1_556 S
C2438 C2439 1.355 . S
C2438 C2440 1.415 1_556 S
C2439 C2438 1.355 . S
C2439 C2441 1.419 . S
C2440 C2438 1.415 1_554 S
C2440 C2445 1.425 1_554 S
C2440 C2447 1.409 . S
C2441 H2433 0.930 . S
C2441 C2439 1.419 . S
C2441 C2442 1.362 . S
C2442 H2434 0.930 . S
C2442 C2441 1.362 . S
C2442 C2445 1.409 . S
C2443 H2435 0.930 1_554 S
C2443 C2444 1.355 . S
C2443 C2445 1.415 1_554 S
C2444 C2443 1.355 . S
C2444 C2446 1.419 . S
C2445 C2440 1.425 1_556 S
C2445 C2442 1.409 . S
C2445 C2443 1.415 1_556 S
C2446 H2436 0.930 . S
C2446 C2444 1.419 . S
C2446 C2447 1.362 . S
C2447 H2437 0.930 . S
C2447 C2440 1.409 . S
C2447 C2446 1.362 . S
H2448 C2454 0.930 . S
H2449 C2457 0.930 . S
H2450 C2458 0.930 . S
H2451 C2459 0.930 . S
H2452 C2462 0.930 . S
H2453 C2463 0.930 . S
C2454 H2448 0.930 . S
C2454 C2455 1.355 . S
C2454 C2456 1.415 . S
C2455 C2454 1.355 . S
C2455 C2457 1.419 . S
C2456 C2454 1.415 . S
C2456 C2461 1.425 . S
C2456 C2463 1.409 . S
C2457 H2449 0.930 . S
C2457 C2455 1.419 . S
C2457 C2458 1.362 . S
C2458 H2450 0.930 . S
C2458 C2457 1.362 . S
C2458 C2461 1.409 . S
C2459 H2451 0.930 . S
C2459 C2460 1.355 . S
C2459 C2461 1.415 . S
C2460 C2459 1.355 . S
C2460 C2462 1.419 . S
C2461 C2456 1.425 . S
C2461 C2458 1.409 . S
C2461 C2459 1.415 . S
C2462 H2452 0.930 . S
C2462 C2460 1.419 . S
C2462 C2463 1.362 . S
C2463 H2453 0.930 . S
C2463 C2456 1.409 . S
C2463 C2462 1.362 . S
H2464 C2470 0.930 1_556 S
H2465 C2473 0.930 . S
H2466 C2474 0.930 . S
H2467 C2475 0.930 1_554 S
H2468 C2478 0.930 . S
H2469 C2479 0.930 . S
C2470 H2464 0.930 1_554 S
C2470 C2471 1.355 . S
C2470 C2472 1.415 1_554 S
C2471 C2470 1.355 . S
C2471 C2473 1.419 . S
C2472 C2470 1.415 1_556 S
C2472 C2477 1.425 1_556 S
C2472 C2479 1.409 . S
C2473 H2465 0.930 . S
C2473 C2471 1.419 . S
C2473 C2474 1.362 . S
C2474 H2466 0.930 . S
C2474 C2473 1.362 . S
C2474 C2477 1.409 . S
C2475 H2467 0.930 1_556 S
C2475 C2476 1.355 . S
C2475 C2477 1.415 1_556 S
C2476 C2475 1.355 . S
C2476 C2478 1.419 . S
C2477 C2472 1.425 1_554 S
C2477 C2474 1.409 . S
C2477 C2475 1.415 1_554 S
C2478 H2468 0.930 . S
C2478 C2476 1.419 . S
C2478 C2479 1.362 . S
C2479 H2469 0.930 . S
C2479 C2472 1.409 . S
C2479 C2478 1.362 . S
H2480 C2486 0.930 . S
H2481 C2489 0.930 . S
H2482 C2490 0.930 . S
H2483 C2491 0.930 . S
H2484 C2494 0.930 . S
H2485 C2495 0.930 . S
C2486 H2480 0.930 . S
C2486 C2487 1.355 . S
C2486 C2488 1.415 . S
C2487 C2486 1.355 . S
C2487 C2489 1.419 . S
C2488 C2486 1.415 . S
C2488 C2493 1.425 1_556 S
C2488 C2495 1.409 1_556 S
C2489 H2481 0.930 . S
C2489 C2487 1.419 . S
C2489 C2490 1.362 . S
C2490 H2482 0.930 . S
C2490 C2489 1.362 . S
C2490 C2493 1.409 1_556 S
C2491 H2483 0.930 . S
C2491 C2492 1.355 . S
C2491 C2493 1.415 . S
C2492 C2491 1.355 . S
C2492 C2494 1.419 . S
C2493 C2488 1.425 1_554 S
C2493 C2490 1.409 1_554 S
C2493 C2491 1.415 . S
C2494 H2484 0.930 . S
C2494 C2492 1.419 . S
C2494 C2495 1.362 . S
C2495 H2485 0.930 . S
C2495 C2488 1.409 1_554 S
C2495 C2494 1.362 . S
H2496 C2502 0.930 . S
H2497 C2505 0.930 . S
H2498 C2506 0.930 . S
H2499 C2507 0.930 . S
H2500 C2510 0.930 . S
H2501 C2511 0.930 . S
C2502 H2496 0.930 . S
C2502 C2503 1.355 . S
C2502 C2504 1.415 . S
C2503 C2502 1.355 . S
C2503 C2505 1.419 . S
C2504 C2502 1.415 . S
C2504 C2509 1.425 . S
C2504 C2511 1.409 . S
C2505 H2497 0.930 . S
C2505 C2503 1.419 . S
C2505 C2506 1.362 . S
C2506 H2498 0.930 . S
C2506 C2505 1.362 . S
C2506 C2509 1.409 . S
C2507 H2499 0.930 . S
C2507 C2508 1.355 . S
C2507 C2509 1.415 . S
C2508 C2507 1.355 . S
C2508 C2510 1.419 . S
C2509 C2504 1.425 . S
C2509 C2506 1.409 . S
C2509 C2507 1.415 . S
C2510 H2500 0.930 . S
C2510 C2508 1.419 . S
C2510 C2511 1.362 . S
C2511 H2501 0.930 . S
C2511 C2504 1.409 . S
C2511 C2510 1.362 . S
H2512 C2518 0.930 . S
H2513 C2521 0.918 1_655 S
H2514 C2522 0.930 1_655 S
H2515 C2523 0.930 . S
H2516 C2526 0.930 . S
H2517 C2527 0.930 . S
C2518 H2512 0.930 . S
C2518 C2519 1.355 . S
C2518 C2520 1.415 . S
C2519 C2518 1.355 . S
C2519 C2521 1.419 . S
C2520 C2518 1.415 . S
C2520 C2525 1.425 . S
C2520 C2527 1.409 . S
C2521 H2513 0.918 1_455 S
C2521 C2519 1.419 . S
C2521 C2522 1.362 . S
C2522 H2514 0.930 1_455 S
C2522 C2521 1.362 . S
C2522 C2525 1.409 . S
C2523 H2515 0.930 . S
C2523 C2524 1.355 . S
C2523 C2525 1.415 . S
C2524 C2523 1.355 . S
C2524 C2526 1.419 . S
C2525 C2520 1.425 . S
C2525 C2522 1.409 . S
C2525 C2523 1.415 . S
C2526 H2516 0.930 . S
C2526 C2524 1.419 . S
C2526 C2527 1.362 . S
C2527 H2517 0.930 . S
C2527 C2520 1.409 . S
C2527 C2526 1.362 . S
H2528 C2534 0.930 . S
H2529 C2537 0.930 . S
H2530 C2538 0.930 . S
H2531 C2539 0.930 . S
H2532 C2542 0.930 . S
H2533 C2543 0.930 . S
C2534 H2528 0.930 . S
C2534 C2535 1.355 . S
C2534 C2536 1.415 . S
C2535 C2534 1.355 . S
C2535 C2537 1.419 . S
C2536 C2534 1.415 . S
C2536 C2541 1.425 . S
C2536 C2543 1.409 . S
C2537 H2529 0.930 . S
C2537 C2535 1.419 . S
C2537 C2538 1.362 . S
C2538 H2530 0.930 . S
C2538 C2537 1.362 . S
C2538 C2541 1.409 . S
C2539 H2531 0.930 . S
C2539 C2540 1.355 . S
C2539 C2541 1.415 . S
C2540 C2539 1.355 . S
C2540 C2542 1.419 . S
C2541 C2536 1.425 . S
C2541 C2538 1.409 . S
C2541 C2539 1.415 . S
C2542 H2532 0.930 . S
C2542 C2540 1.419 . S
C2542 C2543 1.362 . S
C2543 H2533 0.930 . S
C2543 C2536 1.409 . S
C2543 C2542 1.362 . S
H2544 C2550 0.930 . S
H2545 C2553 0.930 . S
H2546 C2554 0.930 . S
H2547 C2555 0.930 . S
H2548 C2558 0.930 . S
H2549 C2559 0.930 . S
C2550 H2544 0.930 . S
C2550 C2551 1.355 . S
C2550 C2552 1.415 . S
C2551 C2550 1.355 . S
C2551 C2553 1.419 . S
C2552 C2550 1.415 . S
C2552 C2557 1.425 . S
C2552 C2559 1.409 . S
C2553 H2545 0.930 . S
C2553 C2551 1.419 . S
C2553 C2554 1.362 . S
C2554 H2546 0.930 . S
C2554 C2553 1.362 . S
C2554 C2557 1.409 . S
C2555 H2547 0.930 . S
C2555 C2556 1.355 . S
C2555 C2557 1.415 . S
C2556 C2555 1.355 . S
C2556 C2558 1.419 . S
C2557 C2552 1.425 . S
C2557 C2554 1.409 . S
C2557 C2555 1.415 . S
C2558 H2548 0.930 . S
C2558 C2556 1.419 . S
C2558 C2559 1.362 . S
C2559 H2549 0.930 . S
C2559 C2552 1.409 . S
C2559 C2558 1.362 . S
H2560 C2566 0.930 1_565 S
H2561 C2569 0.930 . S
H2562 C2570 0.930 . S
H2563 C2571 0.930 1_545 S
H2564 C2574 0.930 . S
H2565 C2575 0.930 . S
C2566 H2560 0.930 1_545 S
C2566 C2567 1.355 . S
C2566 C2568 1.415 1_545 S
C2567 C2566 1.355 . S
C2567 C2569 1.419 . S
C2568 C2566 1.415 1_565 S
C2568 C2573 1.425 1_565 S
C2568 C2575 1.409 . S
C2569 H2561 0.930 . S
C2569 C2567 1.419 . S
C2569 C2570 1.362 . S
C2570 H2562 0.930 . S
C2570 C2569 1.362 . S
C2570 C2573 1.409 . S
C2571 H2563 0.930 1_565 S
C2571 C2572 1.355 . S
C2571 C2573 1.415 1_565 S
C2572 C2571 1.355 . S
C2572 C2574 1.419 . S
C2573 C2568 1.425 1_545 S
C2573 C2570 1.409 . S
C2573 C2571 1.415 1_545 S
C2574 H2564 0.930 . S
C2574 C2572 1.419 . S
C2574 C2575 1.362 . S
C2575 H2565 0.930 . S
C2575 C2568 1.409 . S
C2575 C2574 1.362 . S
H2576 C2582 0.930 . S
H2577 C2585 0.930 . S
H2578 C2586 0.930 . S
H2579 C2587 0.930 . S
H2580 C2590 0.930 . S
H2581 C2591 0.930 . S
C2582 H2576 0.930 . S
C2582 C2583 1.355 . S
C2582 C2584 1.415 . S
C2583 C2582 1.355 . S
C2583 C2585 1.419 . S
C2584 C2582 1.415 . S
C2584 C2589 1.425 . S
C2584 C2591 1.409 . S
C2585 H2577 0.930 . S
C2585 C2583 1.419 . S
C2585 C2586 1.362 . S
C2586 H2578 0.930 . S
C2586 C2585 1.362 . S
C2586 C2589 1.409 . S
C2587 H2579 0.930 . S
C2587 C2588 1.355 . S
C2587 C2589 1.415 . S
C2588 C2587 1.355 . S
C2588 C2590 1.419 . S
C2589 C2584 1.425 . S
C2589 C2586 1.409 . S
C2589 C2587 1.415 . S
C2590 H2580 0.930 . S
C2590 C2588 1.419 . S
C2590 C2591 1.362 . S
C2591 H2581 0.930 . S
C2591 C2584 1.409 . S
C2591 C2590 1.362 . S
H2592 C2598 0.930 . S
H2593 C2601 0.930 . S
H2594 C2602 0.930 . S
H2595 C2603 0.930 . S
H2596 C2606 0.930 . S
H2597 C2607 0.930 . S
C2598 H2592 0.930 . S
C2598 C2599 1.355 . S
C2598 C2600 1.415 . S
C2599 C2598 1.355 . S
C2599 C2601 1.419 . S
C2600 C2598 1.415 . S
C2600 C2605 1.425 1_655 S
C2600 C2607 1.409 . S
C2601 H2593 0.930 . S
C2601 C2599 1.419 . S
C2601 C2602 1.362 1_655 S
C2602 H2594 0.930 . S
C2602 C2601 1.362 1_455 S
C2602 C2605 1.409 . S
C2603 H2595 0.930 . S
C2603 C2604 1.355 . S
C2603 C2605 1.415 . S
C2604 C2603 1.355 . S
C2604 C2606 1.419 . S
C2605 C2600 1.425 1_455 S
C2605 C2602 1.409 . S
C2605 C2603 1.415 . S
C2606 H2596 0.930 . S
C2606 C2604 1.419 . S
C2606 C2607 1.362 1_455 S
C2607 H2597 0.930 . S
C2607 C2600 1.409 . S
C2607 C2606 1.362 1_655 S
H2608 C2614 0.930 . S
H2609 C2617 0.930 . S
H2610 C2618 0.930 . S
H2611 C2619 0.930 . S
H2612 C2622 0.930 . S
H2613 C2623 0.930 . S
C2614 H2608 0.930 . S
C2614 C2615 1.355 . S
C2614 C2616 1.415 . S
C2615 C2614 1.355 . S
C2615 C2617 1.419 . S
C2616 C2614 1.415 . S
C2616 C2621 1.425 . S
C2616 C2623 1.409 . S
C2617 H2609 0.930 . S
C2617 C2615 1.419 . S
C2617 C2618 1.362 . S
C2618 H2610 0.930 . S
C2618 C2617 1.362 . S
C2618 C2621 1.409 . S
C2619 H2611 0.930 . S
C2619 C2620 1.355 . S
C2619 C2621 1.415 . S
C2620 C2619 1.355 . S
C2620 C2622 1.419 . S
C2621 C2616 1.425 . S
C2621 C2618 1.409 . S
C2621 C2619 1.415 . S
C2622 H2612 0.930 . S
C2622 C2620 1.419 . S
C2622 C2623 1.362 . S
C2623 H2613 0.930 . S
C2623 C2616 1.409 . S
C2623 C2622 1.362 . S
H2624 C2630 0.930 . S
H2625 C2633 0.930 . S
H2626 C2634 0.930 . S
H2627 C2635 0.930 . S
H2628 C2638 0.930 . S
H2629 C2639 0.930 . S
C2630 H2624 0.930 . S
C2630 C2631 1.355 . S
C2630 C2632 1.415 . S
C2631 C2630 1.355 . S
C2631 C2633 1.419 . S
C2632 C2630 1.415 . S
C2632 C2637 1.425 . S
C2632 C2639 1.409 . S
C2633 H2625 0.930 . S
C2633 C2631 1.419 . S
C2633 C2634 1.362 . S
C2634 H2626 0.930 . S
C2634 C2633 1.362 . S
C2634 C2637 1.409 . S
C2635 H2627 0.930 . S
C2635 C2636 1.355 . S
C2635 C2637 1.415 . S
C2636 C2635 1.355 . S
C2636 C2638 1.419 . S
C2637 C2632 1.425 . S
C2637 C2634 1.409 . S
C2637 C2635 1.415 . S
C2638 H2628 0.930 . S
C2638 C2636 1.419 . S
C2638 C2639 1.362 . S
C2639 H2629 0.930 . S
C2639 C2632 1.409 . S
C2639 C2638 1.362 . S
H2640 C2646 0.930 . S
H2641 C2649 0.930 . S
H2642 C2650 0.930 . S
H2643 C2651 0.930 . S
H2644 C2654 0.930 . S
H2645 C2655 0.930 . S
C2646 H2640 0.930 . S
C2646 C2647 1.355 . S
C2646 C2648 1.415 . S
C2647 C2646 1.355 . S
C2647 C2649 1.419 . S
C2648 C2646 1.415 . S
C2648 C2653 1.425 . S
C2648 C2655 1.409 . S
C2649 H2641 0.930 . S
C2649 C2647 1.419 . S
C2649 C2650 1.362 . S
C2650 H2642 0.930 . S
C2650 C2649 1.362 . S
C2650 C2653 1.409 . S
C2651 H2643 0.930 . S
C2651 C2652 1.355 . S
C2651 C2653 1.415 . S
C2652 C2651 1.355 . S
C2652 C2654 1.419 . S
C2653 C2648 1.425 . S
C2653 C2650 1.409 . S
C2653 C2651 1.415 . S
C2654 H2644 0.930 . S
C2654 C2652 1.419 . S
C2654 C2655 1.362 . S
C2655 H2645 0.930 . S
C2655 C2648 1.409 . S
C2655 C2654 1.362 . S
H2656 C2662 0.930 . S
H2657 C2665 0.930 . S
H2658 C2666 0.930 . S
H2659 C2667 0.930 . S
H2660 C2670 0.930 . S
H2661 C2671 0.930 . S
C2662 H2656 0.930 . S
C2662 C2663 1.355 . S
C2662 C2664 1.415 . S
C2663 C2662 1.355 . S
C2663 C2665 1.419 . S
C2664 C2662 1.415 . S
C2664 C2669 1.425 . S
C2664 C2671 1.409 . S
C2665 H2657 0.930 . S
C2665 C2663 1.419 . S
C2665 C2666 1.362 . S
C2666 H2658 0.930 . S
C2666 C2665 1.362 . S
C2666 C2669 1.409 . S
C2667 H2659 0.930 . S
C2667 C2668 1.355 . S
C2667 C2669 1.415 . S
C2668 C2667 1.355 . S
C2668 C2670 1.419 . S
C2669 C2664 1.425 . S
C2669 C2666 1.409 . S
C2669 C2667 1.415 . S
C2670 H2660 0.930 . S
C2670 C2668 1.419 . S
C2670 C2671 1.362 . S
C2671 H2661 0.930 . S
C2671 C2664 1.409 . S
C2671 C2670 1.362 . S
H2672 C2678 0.930 . S
H2673 C2681 0.930 . S
H2674 C2682 0.930 . S
H2675 C2683 0.930 . S
H2676 C2686 0.930 . S
H2677 C2687 0.930 . S
C2678 H2672 0.930 . S
C2678 C2679 1.355 . S
C2678 C2680 1.415 . S
C2679 C2678 1.355 . S
C2679 C2681 1.419 . S
C2680 C2678 1.415 . S
C2680 C2685 1.425 1_565 S
C2680 C2687 1.409 . S
C2681 H2673 0.930 . S
C2681 C2679 1.419 . S
C2681 C2682 1.362 1_565 S
C2682 H2674 0.930 . S
C2682 C2681 1.362 1_545 S
C2682 C2685 1.409 . S
C2683 H2675 0.930 . S
C2683 C2684 1.355 . S
C2683 C2685 1.415 . S
C2684 C2683 1.355 . S
C2684 C2686 1.419 . S
C2685 C2680 1.425 1_545 S
C2685 C2682 1.409 . S
C2685 C2683 1.415 . S
C2686 H2676 0.930 . S
C2686 C2684 1.419 . S
C2686 C2687 1.362 1_545 S
C2687 H2677 0.930 . S
C2687 C2680 1.409 . S
C2687 C2686 1.362 1_565 S
H2688 C2694 0.930 . S
H2689 C2697 0.930 . S
H2690 C2698 0.930 . S
H2691 C2699 0.930 . S
H2692 C2702 0.930 . S
H2693 C2703 0.930 . S
C2694 H2688 0.930 . S
C2694 C2695 1.355 . S
C2694 C2696 1.415 . S
C2695 C2694 1.355 . S
C2695 C2697 1.419 . S
C2696 C2694 1.415 . S
C2696 C2701 1.425 . S
C2696 C2703 1.409 . S
C2697 H2689 0.930 . S
C2697 C2695 1.419 . S
C2697 C2698 1.362 . S
C2698 H2690 0.930 . S
C2698 C2697 1.362 . S
C2698 C2701 1.409 . S
C2699 H2691 0.930 . S
C2699 C2700 1.355 . S
C2699 C2701 1.415 . S
C2700 C2699 1.355 . S
C2700 C2702 1.419 . S
C2701 C2696 1.425 . S
C2701 C2698 1.409 . S
C2701 C2699 1.415 . S
C2702 H2692 0.930 . S
C2702 C2700 1.419 . S
C2702 C2703 1.362 . S
C2703 H2693 0.930 . S
C2703 C2696 1.409 . S
C2703 C2702 1.362 . S
H2704 C2710 0.930 . S
H2705 C2713 0.930 . S
H2706 C2714 0.930 . S
H2707 C2715 0.930 . S
H2708 C2718 0.930 . S
H2709 C2719 0.930 . S
C2710 H2704 0.930 . S
C2710 C2711 1.355 . S
C2710 C2712 1.415 1_554 S
C2711 C2710 1.355 . S
C2711 C2713 1.419 . S
C2712 C2710 1.415 1_556 S
C2712 C2717 1.425 1_556 S
C2712 C2719 1.409 . S
C2713 H2705 0.930 . S
C2713 C2711 1.419 . S
C2713 C2714 1.362 . S
C2714 H2706 0.930 . S
C2714 C2713 1.362 . S
C2714 C2717 1.409 . S
C2715 H2707 0.930 . S
C2715 C2716 1.355 . S
C2715 C2717 1.415 1_556 S
C2716 C2715 1.355 . S
C2716 C2718 1.419 . S
C2717 C2712 1.425 1_554 S
C2717 C2714 1.409 . S
C2717 C2715 1.415 1_554 S
C2718 H2708 0.930 . S
C2718 C2716 1.419 . S
C2718 C2719 1.362 . S
C2719 H2709 0.930 . S
C2719 C2712 1.409 . S
C2719 C2718 1.362 . S
H2720 C2726 0.930 . S
H2721 C2729 0.930 . S
H2722 C2730 0.930 . S
H2723 C2731 0.930 . S
H2724 C2734 0.930 . S
H2725 C2735 0.930 . S
C2726 H2720 0.930 . S
C2726 C2727 1.355 . S
C2726 C2728 1.415 . S
C2727 C2726 1.355 . S
C2727 C2729 1.419 . S
C2728 C2726 1.415 . S
C2728 C2733 1.425 1_565 S
C2728 C2735 1.409 . S
C2729 H2721 0.930 . S
C2729 C2727 1.419 . S
C2729 C2730 1.362 1_565 S
C2730 H2722 0.930 . S
C2730 C2729 1.362 1_545 S
C2730 C2733 1.409 . S
C2731 H2723 0.930 . S
C2731 C2732 1.355 . S
C2731 C2733 1.415 . S
C2732 C2731 1.355 . S
C2732 C2734 1.419 . S
C2733 C2728 1.425 1_545 S
C2733 C2730 1.409 . S
C2733 C2731 1.415 . S
C2734 H2724 0.930 . S
C2734 C2732 1.419 . S
C2734 C2735 1.362 1_545 S
C2735 H2725 0.930 . S
C2735 C2728 1.409 . S
C2735 C2734 1.362 1_565 S
H2736 C2742 0.930 . S
H2737 C2745 0.930 . S
H2738 C2746 0.930 . S
H2739 C2747 0.930 . S
H2740 C2750 0.930 . S
H2741 C2751 0.930 . S
C2742 H2736 0.930 . S
C2742 C2743 1.355 . S
C2742 C2744 1.415 . S
C2743 C2742 1.355 . S
C2743 C2745 1.419 . S
C2744 C2742 1.415 . S
C2744 C2749 1.425 . S
C2744 C2751 1.409 . S
C2745 H2737 0.930 . S
C2745 C2743 1.419 . S
C2745 C2746 1.362 . S
C2746 H2738 0.930 . S
C2746 C2745 1.362 . S
C2746 C2749 1.409 . S
C2747 H2739 0.930 . S
C2747 C2748 1.355 . S
C2747 C2749 1.415 . S
C2748 C2747 1.355 . S
C2748 C2750 1.419 . S
C2749 C2744 1.425 . S
C2749 C2746 1.409 . S
C2749 C2747 1.415 . S
C2750 H2740 0.930 . S
C2750 C2748 1.419 . S
C2750 C2751 1.362 . S
C2751 H2741 0.930 . S
C2751 C2744 1.409 . S
C2751 C2750 1.362 . S
H2752 C2758 0.930 . S
H2753 C2761 0.930 . S
H2754 C2762 0.930 . S
H2755 C2763 0.930 . S
H2756 C2766 0.930 . S
H2757 C2767 0.930 . S
C2758 H2752 0.930 . S
C2758 C2759 1.355 . S
C2758 C2760 1.415 . S
C2759 C2758 1.355 . S
C2759 C2761 1.419 . S
C2760 C2758 1.415 . S
C2760 C2765 1.425 . S
C2760 C2767 1.409 . S
C2761 H2753 0.930 . S
C2761 C2759 1.419 . S
C2761 C2762 1.362 . S
C2762 H2754 0.930 . S
C2762 C2761 1.362 . S
C2762 C2765 1.409 . S
C2763 H2755 0.930 . S
C2763 C2764 1.355 . S
C2763 C2765 1.415 . S
C2764 C2763 1.355 . S
C2764 C2766 1.419 . S
C2765 C2760 1.425 . S
C2765 C2762 1.409 . S
C2765 C2763 1.415 . S
C2766 H2756 0.930 . S
C2766 C2764 1.419 . S
C2766 C2767 1.362 . S
C2767 H2757 0.930 . S
C2767 C2760 1.409 . S
C2767 C2766 1.362 . S
H2768 C2774 0.930 . S
H2769 C2777 0.930 . S
H2770 C2778 0.930 . S
H2771 C2779 0.930 . S
H2772 C2782 0.930 . S
H2773 C2783 0.930 . S
C2774 H2768 0.930 . S
C2774 C2775 1.355 . S
C2774 C2776 1.415 . S
C2775 C2774 1.355 . S
C2775 C2777 1.419 . S
C2776 C2774 1.415 . S
C2776 C2781 1.425 . S
C2776 C2783 1.409 . S
C2777 H2769 0.930 . S
C2777 C2775 1.419 . S
C2777 C2778 1.362 . S
C2778 H2770 0.930 . S
C2778 C2777 1.362 . S
C2778 C2781 1.409 . S
C2779 H2771 0.930 . S
C2779 C2780 1.355 . S
C2779 C2781 1.415 . S
C2780 C2779 1.355 . S
C2780 C2782 1.419 . S
C2781 C2776 1.425 . S
C2781 C2778 1.409 . S
C2781 C2779 1.415 . S
C2782 H2772 0.930 . S
C2782 C2780 1.419 . S
C2782 C2783 1.362 . S
C2783 H2773 0.930 . S
C2783 C2776 1.409 . S
C2783 C2782 1.362 . S
H2784 C2790 0.930 . S
H2785 C2793 0.930 . S
H2786 C2794 0.930 . S
H2787 C2795 0.930 . S
H2788 C2798 0.930 . S
H2789 C2799 0.930 . S
C2790 H2784 0.930 . S
C2790 C2791 1.355 . S
C2790 C2792 1.415 . S
C2791 C2790 1.355 . S
C2791 C2793 1.419 . S
C2792 C2790 1.415 . S
C2792 C2797 1.425 . S
C2792 C2799 1.409 . S
C2793 H2785 0.930 . S
C2793 C2791 1.419 . S
C2793 C2794 1.362 . S
C2794 H2786 0.930 . S
C2794 C2793 1.362 . S
C2794 C2797 1.409 . S
C2795 H2787 0.930 . S
C2795 C2796 1.355 . S
C2795 C2797 1.415 . S
C2796 C2795 1.355 . S
C2796 C2798 1.419 . S
C2797 C2792 1.425 . S
C2797 C2794 1.409 . S
C2797 C2795 1.415 . S
C2798 H2788 0.930 . S
C2798 C2796 1.419 . S
C2798 C2799 1.362 . S
C2799 H2789 0.930 . S
C2799 C2792 1.409 . S
C2799 C2798 1.362 . S
H2800 C2806 0.930 . S
H2801 C2809 0.930 . S
H2802 C2810 0.930 . S
H2803 C2811 0.930 . S
H2804 C2814 0.930 . S
H2805 C2815 0.930 . S
C2806 H2800 0.930 . S
C2806 C2807 1.355 . S
C2806 C2808 1.415 . S
C2807 C2806 1.355 . S
C2807 C2809 1.419 . S
C2808 C2806 1.415 . S
C2808 C2813 1.425 . S
C2808 C2815 1.409 . S
C2809 H2801 0.930 . S
C2809 C2807 1.419 . S
C2809 C2810 1.362 . S
C2810 H2802 0.930 . S
C2810 C2809 1.362 . S
C2810 C2813 1.409 . S
C2811 H2803 0.930 . S
C2811 C2812 1.355 . S
C2811 C2813 1.415 . S
C2812 C2811 1.355 . S
C2812 C2814 1.419 . S
C2813 C2808 1.425 . S
C2813 C2810 1.409 . S
C2813 C2811 1.415 . S
C2814 H2804 0.930 . S
C2814 C2812 1.419 . S
C2814 C2815 1.362 . S
C2815 H2805 0.930 . S
C2815 C2808 1.409 . S
C2815 C2814 1.362 . S
H2816 C2822 0.930 . S
H2817 C2825 0.930 . S
H2818 C2826 0.930 . S
H2819 C2827 0.930 . S
H2820 C2830 0.930 . S
H2821 C2831 0.930 . S
C2822 H2816 0.930 . S
C2822 C2823 1.355 . S
C2822 C2824 1.415 . S
C2823 C2822 1.355 . S
C2823 C2825 1.419 . S
C2824 C2822 1.415 . S
C2824 C2829 1.425 . S
C2824 C2831 1.409 . S
C2825 H2817 0.930 . S
C2825 C2823 1.419 . S
C2825 C2826 1.362 . S
C2826 H2818 0.930 . S
C2826 C2825 1.362 . S
C2826 C2829 1.409 . S
C2827 H2819 0.930 . S
C2827 C2828 1.355 . S
C2827 C2829 1.415 . S
C2828 C2827 1.355 . S
C2828 C2830 1.419 . S
C2829 C2824 1.425 . S
C2829 C2826 1.409 . S
C2829 C2827 1.415 . S
C2830 H2820 0.930 . S
C2830 C2828 1.419 . S
C2830 C2831 1.362 . S
C2831 H2821 0.930 . S
C2831 C2824 1.409 . S
C2831 C2830 1.362 . S
H2832 C2838 0.930 . S
H2833 C2841 0.930 . S
H2834 C2842 0.930 . S
H2835 C2843 0.930 . S
H2836 C2846 0.930 . S
H2837 C2847 0.930 . S
C2838 H2832 0.930 . S
C2838 C2839 1.355 . S
C2838 C2840 1.415 . S
C2839 C2838 1.355 . S
C2839 C2841 1.419 . S
C2840 C2838 1.415 . S
C2840 C2845 1.425 . S
C2840 C2847 1.409 . S
C2841 H2833 0.930 . S
C2841 C2839 1.419 . S
C2841 C2842 1.362 . S
C2842 H2834 0.930 . S
C2842 C2841 1.362 . S
C2842 C2845 1.409 . S
C2843 H2835 0.930 . S
C2843 C2844 1.355 . S
C2843 C2845 1.415 . S
C2844 C2843 1.355 . S
C2844 C2846 1.419 . S
C2845 C2840 1.425 . S
C2845 C2842 1.409 . S
C2845 C2843 1.415 . S
C2846 H2836 0.930 . S
C2846 C2844 1.419 . S
C2846 C2847 1.362 . S
C2847 H2837 0.930 . S
C2847 C2840 1.409 . S
C2847 C2846 1.362 . S
H2848 C2854 0.930 . S
H2849 C2857 0.930 . S
H2850 C2858 0.930 . S
H2851 C2859 0.930 . S
H2852 C2862 0.930 . S
H2853 C2863 0.930 . S
C2854 H2848 0.930 . S
C2854 C2855 1.355 . S
C2854 C2856 1.415 . S
C2855 C2854 1.355 . S
C2855 C2857 1.419 . S
C2856 C2854 1.415 . S
C2856 C2861 1.425 . S
C2856 C2863 1.409 . S
C2857 H2849 0.930 . S
C2857 C2855 1.419 . S
C2857 C2858 1.362 . S
C2858 H2850 0.930 . S
C2858 C2857 1.362 . S
C2858 C2861 1.409 . S
C2859 H2851 0.930 . S
C2859 C2860 1.355 . S
C2859 C2861 1.415 . S
C2860 C2859 1.355 . S
C2860 C2862 1.419 . S
C2861 C2856 1.425 . S
C2861 C2858 1.409 . S
C2861 C2859 1.415 . S
C2862 H2852 0.930 . S
C2862 C2860 1.419 . S
C2862 C2863 1.362 . S
C2863 H2853 0.930 . S
C2863 C2856 1.409 . S
C2863 C2862 1.362 . S
H2864 C2870 0.930 . S
H2865 C2873 0.930 . S
H2866 C2874 0.930 . S
H2867 C2875 0.930 . S
H2868 C2878 0.930 . S
H2869 C2879 0.930 . S
C2870 H2864 0.930 . S
C2870 C2871 1.355 . S
C2870 C2872 1.415 . S
C2871 C2870 1.355 . S
C2871 C2873 1.419 . S
C2872 C2870 1.415 . S
C2872 C2877 1.425 . S
C2872 C2879 1.409 . S
C2873 H2865 0.930 . S
C2873 C2871 1.419 . S
C2873 C2874 1.362 . S
C2874 H2866 0.930 . S
C2874 C2873 1.362 . S
C2874 C2877 1.409 . S
C2875 H2867 0.930 . S
C2875 C2876 1.355 . S
C2875 C2877 1.415 . S
C2876 C2875 1.355 . S
C2876 C2878 1.419 . S
C2877 C2872 1.425 . S
C2877 C2874 1.409 . S
C2877 C2875 1.415 . S
C2878 H2868 0.930 . S
C2878 C2876 1.419 . S
C2878 C2879 1.362 . S
C2879 H2869 0.930 . S
C2879 C2872 1.409 . S
C2879 C2878 1.362 . S
H2880 C2886 0.930 . S
H2881 C2889 0.930 . S
H2882 C2890 0.930 . S
H2883 C2891 0.930 . S
H2884 C2894 0.930 . S
H2885 C2895 0.930 . S
C2886 H2880 0.930 . S
C2886 C2887 1.355 . S
C2886 C2888 1.415 . S
C2887 C2886 1.355 . S
C2887 C2889 1.419 . S
C2888 C2886 1.415 . S
C2888 C2893 1.425 . S
C2888 C2895 1.409 . S
C2889 H2881 0.930 . S
C2889 C2887 1.419 . S
C2889 C2890 1.362 . S
C2890 H2882 0.930 . S
C2890 C2889 1.362 . S
C2890 C2893 1.409 . S
C2891 H2883 0.930 . S
C2891 C2892 1.355 . S
C2891 C2893 1.415 . S
C2892 C2891 1.355 . S
C2892 C2894 1.419 . S
C2893 C2888 1.425 . S
C2893 C2890 1.409 . S
C2893 C2891 1.415 . S
C2894 H2884 0.930 . S
C2894 C2892 1.419 . S
C2894 C2895 1.362 . S
C2895 H2885 0.930 . S
C2895 C2888 1.409 . S
C2895 C2894 1.362 . S
H2896 C2902 0.930 . S
H2897 C2905 0.930 . S
H2898 C2906 0.930 . S
H2899 C2907 0.930 . S
H2900 C2910 0.930 . S
H2901 C2911 0.930 . S
C2902 H2896 0.930 . S
C2902 C2903 1.355 . S
C2902 C2904 1.415 . S
C2903 C2902 1.355 . S
C2903 C2905 1.419 . S
C2904 C2902 1.415 . S
C2904 C2909 1.425 . S
C2904 C2911 1.409 . S
C2905 H2897 0.930 . S
C2905 C2903 1.419 . S
C2905 C2906 1.362 . S
C2906 H2898 0.930 . S
C2906 C2905 1.362 . S
C2906 C2909 1.409 . S
C2907 H2899 0.930 . S
C2907 C2908 1.355 . S
C2907 C2909 1.415 . S
C2908 C2907 1.355 . S
C2908 C2910 1.419 . S
C2909 C2904 1.425 . S
C2909 C2906 1.409 . S
C2909 C2907 1.415 . S
C2910 H2900 0.930 . S
C2910 C2908 1.419 . S
C2910 C2911 1.362 . S
C2911 H2901 0.930 . S
C2911 C2904 1.409 . S
C2911 C2910 1.362 . S
H2912 C2918 0.930 . S
H2913 C2921 0.930 . S
H2914 C2922 0.930 . S
H2915 C2923 0.930 . S
H2916 C2926 0.930 . S
H2917 C2927 0.930 . S
C2918 H2912 0.930 . S
C2918 C2919 1.355 . S
C2918 C2920 1.415 . S
C2919 C2918 1.355 . S
C2919 C2921 1.419 . S
C2920 C2918 1.415 . S
C2920 C2925 1.425 . S
C2920 C2927 1.409 . S
C2921 H2913 0.930 . S
C2921 C2919 1.419 . S
C2921 C2922 1.362 . S
C2922 H2914 0.930 . S
C2922 C2921 1.362 . S
C2922 C2925 1.409 . S
C2923 H2915 0.930 . S
C2923 C2924 1.355 . S
C2923 C2925 1.415 . S
C2924 C2923 1.355 . S
C2924 C2926 1.419 . S
C2925 C2920 1.425 . S
C2925 C2922 1.409 . S
C2925 C2923 1.415 . S
C2926 H2916 0.930 . S
C2926 C2924 1.419 . S
C2926 C2927 1.362 . S
C2927 H2917 0.930 . S
C2927 C2920 1.409 . S
C2927 C2926 1.362 . S
H2928 C2934 0.930 . S
H2929 C2937 0.930 . S
H2930 C2938 0.930 . S
H2931 C2939 0.930 . S
H2932 C2942 0.930 . S
H2933 C2943 0.930 . S
C2934 H2928 0.930 . S
C2934 C2935 1.355 . S
C2934 C2936 1.415 . S
C2935 C2934 1.355 . S
C2935 C2937 1.419 . S
C2936 C2934 1.415 . S
C2936 C2941 1.425 . S
C2936 C2943 1.409 . S
C2937 H2929 0.930 . S
C2937 C2935 1.419 . S
C2937 C2938 1.362 . S
C2938 H2930 0.930 . S
C2938 C2937 1.362 . S
C2938 C2941 1.409 . S
C2939 H2931 0.930 . S
C2939 C2940 1.355 . S
C2939 C2941 1.415 . S
C2940 C2939 1.355 . S
C2940 C2942 1.419 . S
C2941 C2936 1.425 . S
C2941 C2938 1.409 . S
C2941 C2939 1.415 . S
C2942 H2932 0.930 . S
C2942 C2940 1.419 . S
C2942 C2943 1.362 . S
C2943 H2933 0.930 . S
C2943 C2936 1.409 . S
C2943 C2942 1.362 . S
H2944 C2950 0.930 . S
H2945 C2953 0.930 . S
H2946 C2954 0.930 . S
H2947 C2955 0.930 . S
H2948 C2958 0.930 . S
H2949 C2959 0.930 . S
C2950 H2944 0.930 . S
C2950 C2951 1.355 . S
C2950 C2952 1.415 . S
C2951 C2950 1.355 . S
C2951 C2953 1.419 . S
C2952 C2950 1.415 . S
C2952 C2957 1.425 . S
C2952 C2959 1.409 . S
C2953 H2945 0.930 . S
C2953 C2951 1.419 . S
C2953 C2954 1.362 . S
C2954 H2946 0.930 . S
C2954 C2953 1.362 . S
C2954 C2957 1.409 . S
C2955 H2947 0.930 . S
C2955 C2956 1.355 . S
C2955 C2957 1.415 . S
C2956 C2955 1.355 . S
C2956 C2958 1.419 . S
C2957 C2952 1.425 . S
C2957 C2954 1.409 . S
C2957 C2955 1.415 . S
C2958 H2948 0.930 . S
C2958 C2956 1.419 . S
C2958 C2959 1.362 . S
C2959 H2949 0.930 . S
C2959 C2952 1.409 . S
C2959 C2958 1.362 . S
H2960 C2966 0.930 . S
H2961 C2969 0.930 . S
H2962 C2970 0.930 . S
H2963 C2971 0.930 . S
H2964 C2974 0.930 . S
H2965 C2975 0.930 . S
C2966 H2960 0.930 . S
C2966 C2967 1.355 . S
C2966 C2968 1.415 . S
C2967 C2966 1.355 . S
C2967 C2969 1.419 . S
C2968 C2966 1.415 . S
C2968 C2973 1.425 . S
C2968 C2975 1.409 . S
C2969 H2961 0.930 . S
C2969 C2967 1.419 . S
C2969 C2970 1.362 . S
C2970 H2962 0.930 . S
C2970 C2969 1.362 . S
C2970 C2973 1.409 . S
C2971 H2963 0.930 . S
C2971 C2972 1.355 . S
C2971 C2973 1.415 . S
C2972 C2971 1.355 . S
C2972 C2974 1.419 . S
C2973 C2968 1.425 . S
C2973 C2970 1.409 . S
C2973 C2971 1.415 . S
C2974 H2964 0.930 . S
C2974 C2972 1.419 . S
C2974 C2975 1.362 . S
C2975 H2965 0.930 . S
C2975 C2968 1.409 . S
C2975 C2974 1.362 . S
H2976 C2982 0.930 . S
H2977 C2985 0.930 . S
H2978 C2986 0.930 . S
H2979 C2987 0.930 . S
H2980 C2990 0.930 . S
H2981 C2991 0.930 . S
C2982 H2976 0.930 . S
C2982 C2983 1.355 . S
C2982 C2984 1.415 . S
C2983 C2982 1.355 . S
C2983 C2985 1.419 . S
C2984 C2982 1.415 . S
C2984 C2989 1.425 . S
C2984 C2991 1.409 . S
C2985 H2977 0.930 . S
C2985 C2983 1.419 . S
C2985 C2986 1.362 . S
C2986 H2978 0.930 . S
C2986 C2985 1.362 . S
C2986 C2989 1.409 . S
C2987 H2979 0.930 . S
C2987 C2988 1.355 . S
C2987 C2989 1.415 . S
C2988 C2987 1.355 . S
C2988 C2990 1.419 . S
C2989 C2984 1.425 . S
C2989 C2986 1.409 . S
C2989 C2987 1.415 . S
C2990 H2980 0.930 . S
C2990 C2988 1.419 . S
C2990 C2991 1.362 . S
C2991 H2981 0.930 . S
C2991 C2984 1.409 . S
C2991 C2990 1.362 . S
H2992 C2998 0.930 . S
H2993 C3001 0.930 . S
H2994 C3002 0.930 . S
H2995 C3003 0.930 . S
H2996 C3006 0.930 . S
H2997 C3007 0.930 . S
C2998 H2992 0.930 . S
C2998 C2999 1.355 . S
C2998 C3000 1.415 . S
C2999 C2998 1.355 . S
C2999 C3001 1.419 . S
C3000 C2998 1.415 . S
C3000 C3005 1.425 . S
C3000 C3007 1.409 . S
C3001 H2993 0.930 . S
C3001 C2999 1.419 . S
C3001 C3002 1.362 . S
C3002 H2994 0.930 . S
C3002 C3001 1.362 . S
C3002 C3005 1.409 . S
C3003 H2995 0.930 . S
C3003 C3004 1.355 . S
C3003 C3005 1.415 . S
C3004 C3003 1.355 . S
C3004 C3006 1.419 . S
C3005 C3000 1.425 . S
C3005 C3002 1.409 . S
C3005 C3003 1.415 . S
C3006 H2996 0.930 . S
C3006 C3004 1.419 . S
C3006 C3007 1.362 . S
C3007 H2997 0.930 . S
C3007 C3000 1.409 . S
C3007 C3006 1.362 . S
H3008 C3014 0.930 . S
H3009 C3017 0.930 . S
H3010 C3018 0.930 . S
H3011 C3019 0.930 . S
H3012 C3022 0.930 . S
H3013 C3023 0.930 . S
C3014 H3008 0.930 . S
C3014 C3015 1.355 . S
C3014 C3016 1.415 . S
C3015 C3014 1.355 . S
C3015 C3017 1.419 . S
C3016 C3014 1.415 . S
C3016 C3021 1.425 . S
C3016 C3023 1.409 . S
C3017 H3009 0.930 . S
C3017 C3015 1.419 . S
C3017 C3018 1.362 . S
C3018 H3010 0.930 . S
C3018 C3017 1.362 . S
C3018 C3021 1.409 . S
C3019 H3011 0.930 . S
C3019 C3020 1.355 . S
C3019 C3021 1.415 . S
C3020 C3019 1.355 . S
C3020 C3022 1.419 . S
C3021 C3016 1.425 . S
C3021 C3018 1.409 . S
C3021 C3019 1.415 . S
C3022 H3012 0.930 . S
C3022 C3020 1.419 . S
C3022 C3023 1.362 . S
C3023 H3013 0.930 . S
C3023 C3016 1.409 . S
C3023 C3022 1.362 . S
H3024 C3030 0.930 . S
H3025 C3033 0.930 . S
H3026 C3034 0.930 . S
H3027 C3035 0.930 . S
H3028 C3038 0.930 . S
H3029 C3039 0.930 . S
C3030 H3024 0.930 . S
C3030 C3031 1.355 . S
C3030 C3032 1.415 . S
C3031 C3030 1.355 . S
C3031 C3033 1.419 . S
C3032 C3030 1.415 . S
C3032 C3037 1.425 . S
C3032 C3039 1.409 . S
C3033 H3025 0.930 . S
C3033 C3031 1.419 . S
C3033 C3034 1.362 . S
C3034 H3026 0.930 . S
C3034 C3033 1.362 . S
C3034 C3037 1.409 . S
C3035 H3027 0.930 . S
C3035 C3036 1.355 . S
C3035 C3037 1.415 . S
C3036 C3035 1.355 . S
C3036 C3038 1.419 . S
C3037 C3032 1.425 . S
C3037 C3034 1.409 . S
C3037 C3035 1.415 . S
C3038 H3028 0.930 . S
C3038 C3036 1.419 . S
C3038 C3039 1.362 . S
C3039 H3029 0.930 . S
C3039 C3032 1.409 . S
C3039 C3038 1.362 . S
H3040 C3046 0.930 . S
H3041 C3049 0.930 . S
H3042 C3050 0.930 . S
H3043 C3051 0.930 . S
H3044 C3054 0.930 . S
H3045 C3055 0.930 . S
C3046 H3040 0.930 . S
C3046 C3047 1.355 . S
C3046 C3048 1.415 . S
C3047 C3046 1.355 . S
C3047 C3049 1.419 . S
C3048 C3046 1.415 . S
C3048 C3053 1.425 . S
C3048 C3055 1.409 . S
C3049 H3041 0.930 . S
C3049 C3047 1.419 . S
C3049 C3050 1.362 . S
C3050 H3042 0.930 . S
C3050 C3049 1.362 . S
C3050 C3053 1.409 . S
C3051 H3043 0.930 . S
C3051 C3052 1.355 . S
C3051 C3053 1.415 . S
C3052 C3051 1.355 . S
C3052 C3054 1.419 . S
C3053 C3048 1.425 . S
C3053 C3050 1.409 . S
C3053 C3051 1.415 . S
C3054 H3044 0.930 . S
C3054 C3052 1.419 . S
C3054 C3055 1.362 . S
C3055 H3045 0.930 . S
C3055 C3048 1.409 . S
C3055 C3054 1.362 . S
H3056 C3062 0.930 . S
H3057 C3065 0.930 . S
H3058 C3066 0.930 . S
H3059 C3067 0.930 . S
H3060 C3070 0.930 . S
H3061 C3071 0.930 . S
C3062 H3056 0.930 . S
C3062 C3063 1.355 . S
C3062 C3064 1.415 . S
C3063 C3062 1.355 . S
C3063 C3065 1.419 . S
C3064 C3062 1.415 . S
C3064 C3069 1.425 . S
C3064 C3071 1.409 . S
C3065 H3057 0.930 . S
C3065 C3063 1.419 . S
C3065 C3066 1.362 . S
C3066 H3058 0.930 . S
C3066 C3065 1.362 . S
C3066 C3069 1.409 . S
C3067 H3059 0.930 . S
C3067 C3068 1.355 . S
C3067 C3069 1.415 . S
C3068 C3067 1.355 . S
C3068 C3070 1.419 . S
C3069 C3064 1.425 . S
C3069 C3066 1.409 . S
C3069 C3067 1.415 . S
C3070 H3060 0.930 . S
C3070 C3068 1.419 . S
C3070 C3071 1.362 . S
C3071 H3061 0.930 . S
C3071 C3064 1.409 . S
C3071 C3070 1.362 . S
H3072 C3078 0.930 . S
H3073 C3081 0.930 . S
H3074 C3082 0.930 . S
H3075 C3083 0.930 . S
H3076 C3086 0.930 . S
H3077 C3087 0.930 . S
C3078 H3072 0.930 . S
C3078 C3079 1.355 . S
C3078 C3080 1.415 . S
C3079 C3078 1.355 . S
C3079 C3081 1.419 . S
C3080 C3078 1.415 . S
C3080 C3085 1.425 . S
C3080 C3087 1.409 . S
C3081 H3073 0.930 . S
C3081 C3079 1.419 . S
C3081 C3082 1.362 . S
C3082 H3074 0.930 . S
C3082 C3081 1.362 . S
C3082 C3085 1.409 . S
C3083 H3075 0.930 . S
C3083 C3084 1.355 . S
C3083 C3085 1.415 . S
C3084 C3083 1.355 . S
C3084 C3086 1.419 . S
C3085 C3080 1.425 . S
C3085 C3082 1.409 . S
C3085 C3083 1.415 . S
C3086 H3076 0.930 . S
C3086 C3084 1.419 . S
C3086 C3087 1.362 . S
C3087 H3077 0.930 . S
C3087 C3080 1.409 . S
C3087 C3086 1.362 . S
H3088 C3094 0.930 . S
H3089 C3097 0.930 . S
H3090 C3098 0.930 . S
H3091 C3099 0.930 . S
H3092 C3102 0.930 . S
H3093 C3103 0.930 . S
C3094 H3088 0.930 . S
C3094 C3095 1.355 . S
C3094 C3096 1.415 . S
C3095 C3094 1.355 . S
C3095 C3097 1.419 . S
C3096 C3094 1.415 . S
C3096 C3101 1.425 . S
C3096 C3103 1.409 . S
C3097 H3089 0.930 . S
C3097 C3095 1.419 . S
C3097 C3098 1.362 . S
C3098 H3090 0.930 . S
C3098 C3097 1.362 . S
C3098 C3101 1.409 . S
C3099 H3091 0.930 . S
C3099 C3100 1.355 . S
C3099 C3101 1.415 . S
C3100 C3099 1.355 . S
C3100 C3102 1.419 . S
C3101 C3096 1.425 . S
C3101 C3098 1.409 . S
C3101 C3099 1.415 . S
C3102 H3092 0.930 . S
C3102 C3100 1.419 . S
C3102 C3103 1.362 . S
C3103 H3093 0.930 . S
C3103 C3096 1.409 . S
C3103 C3102 1.362 . S
H3104 C3110 0.930 . S
H3105 C3113 0.930 . S
H3106 C3114 0.930 . S
H3107 C3115 0.930 . S
H3108 C3118 0.930 . S
H3109 C3119 0.930 . S
C3110 H3104 0.930 . S
C3110 C3111 1.355 . S
C3110 C3112 1.415 . S
C3111 C3110 1.355 . S
C3111 C3113 1.419 . S
C3112 C3110 1.415 . S
C3112 C3117 1.425 . S
C3112 C3119 1.409 . S
C3113 H3105 0.930 . S
C3113 C3111 1.419 . S
C3113 C3114 1.362 . S
C3114 H3106 0.930 . S
C3114 C3113 1.362 . S
C3114 C3117 1.409 . S
C3115 H3107 0.930 . S
C3115 C3116 1.355 . S
C3115 C3117 1.415 . S
C3116 C3115 1.355 . S
C3116 C3118 1.419 . S
C3117 C3112 1.425 . S
C3117 C3114 1.409 . S
C3117 C3115 1.415 . S
C3118 H3108 0.930 . S
C3118 C3116 1.419 . S
C3118 C3119 1.362 . S
C3119 H3109 0.930 . S
C3119 C3112 1.409 . S
C3119 C3118 1.362 . S
H3120 C3126 0.930 . S
H3121 C3129 0.930 . S
H3122 C3130 0.930 . S
H3123 C3131 0.930 . S
H3124 C3134 0.930 . S
H3125 C3135 0.930 . S
C3126 H3120 0.930 . S
C3126 C3127 1.355 . S
C3126 C3128 1.415 . S
C3127 C3126 1.355 . S
C3127 C3129 1.419 . S
C3128 C3126 1.415 . S
C3128 C3133 1.425 . S
C3128 C3135 1.409 . S
C3129 H3121 0.930 . S
C3129 C3127 1.419 . S
C3129 C3130 1.362 . S
C3130 H3122 0.930 . S
C3130 C3129 1.362 . S
C3130 C3133 1.409 . S
C3131 H3123 0.930 . S
C3131 C3132 1.355 . S
C3131 C3133 1.415 . S
C3132 C3131 1.355 . S
C3132 C3134 1.419 . S
C3133 C3128 1.425 . S
C3133 C3130 1.409 . S
C3133 C3131 1.415 . S
C3134 H3124 0.930 . S
C3134 C3132 1.419 . S
C3134 C3135 1.362 . S
C3135 H3125 0.930 . S
C3135 C3128 1.409 . S
C3135 C3134 1.362 . S
H3136 C3142 0.930 . S
H3137 C3145 0.930 . S
H3138 C3146 0.930 . S
H3139 C3147 0.930 . S
H3140 C3150 0.930 . S
H3141 C3151 0.930 . S
C3142 H3136 0.930 . S
C3142 C3143 1.355 . S
C3142 C3144 1.415 . S
C3143 C3142 1.355 . S
C3143 C3145 1.419 . S
C3144 C3142 1.415 . S
C3144 C3149 1.425 . S
C3144 C3151 1.409 . S
C3145 H3137 0.930 . S
C3145 C3143 1.419 . S
C3145 C3146 1.362 . S
C3146 H3138 0.930 . S
C3146 C3145 1.362 . S
C3146 C3149 1.409 . S
C3147 H3139 0.930 . S
C3147 C3148 1.355 . S
C3147 C3149 1.415 . S
C3148 C3147 1.355 . S
C3148 C3150 1.419 . S
C3149 C3144 1.425 . S
C3149 C3146 1.409 . S
C3149 C3147 1.415 . S
C3150 H3140 0.930 . S
C3150 C3148 1.419 . S
C3150 C3151 1.362 . S
C3151 H3141 0.930 . S
C3151 C3144 1.409 . S
C3151 C3150 1.362 . S
H3152 C3158 0.930 . S
H3153 C3161 0.930 . S
H3154 C3162 0.930 . S
H3155 C3163 0.930 . S
H3156 C3166 0.930 . S
H3157 C3167 0.930 . S
C3158 H3152 0.930 . S
C3158 C3159 1.355 . S
C3158 C3160 1.415 . S
C3159 C3158 1.355 . S
C3159 C3161 1.419 . S
C3160 C3158 1.415 . S
C3160 C3165 1.425 . S
C3160 C3167 1.409 . S
C3161 H3153 0.930 . S
C3161 C3159 1.419 . S
C3161 C3162 1.362 . S
C3162 H3154 0.930 . S
C3162 C3161 1.362 . S
C3162 C3165 1.409 . S
C3163 H3155 0.930 . S
C3163 C3164 1.355 . S
C3163 C3165 1.415 . S
C3164 C3163 1.355 . S
C3164 C3166 1.419 . S
C3165 C3160 1.425 . S
C3165 C3162 1.409 . S
C3165 C3163 1.415 . S
C3166 H3156 0.930 . S
C3166 C3164 1.419 . S
C3166 C3167 1.362 . S
C3167 H3157 0.930 . S
C3167 C3160 1.409 . S
C3167 C3166 1.362 . S
H3168 C3174 0.930 . S
H3169 C3177 0.930 . S
H3170 C3178 0.930 . S
H3171 C3179 0.930 . S
H3172 C3182 0.930 . S
H3173 C3183 0.930 . S
C3174 H3168 0.930 . S
C3174 C3175 1.355 . S
C3174 C3176 1.415 . S
C3175 C3174 1.355 . S
C3175 C3177 1.419 . S
C3176 C3174 1.415 . S
C3176 C3181 1.425 . S
C3176 C3183 1.409 . S
C3177 H3169 0.930 . S
C3177 C3175 1.419 . S
C3177 C3178 1.362 . S
C3178 H3170 0.930 . S
C3178 C3177 1.362 . S
C3178 C3181 1.409 . S
C3179 H3171 0.930 . S
C3179 C3180 1.355 . S
C3179 C3181 1.415 . S
C3180 C3179 1.355 . S
C3180 C3182 1.419 . S
C3181 C3176 1.425 . S
C3181 C3178 1.409 . S
C3181 C3179 1.415 . S
C3182 H3172 0.930 . S
C3182 C3180 1.419 . S
C3182 C3183 1.362 . S
C3183 H3173 0.930 . S
C3183 C3176 1.409 . S
C3183 C3182 1.362 . S
H3184 C3190 0.930 . S
H3185 C3193 0.930 . S
H3186 C3194 0.930 . S
H3187 C3195 0.930 . S
H3188 C3198 0.930 . S
H3189 C3199 0.930 . S
C3190 H3184 0.930 . S
C3190 C3191 1.355 . S
C3190 C3192 1.415 . S
C3191 C3190 1.355 . S
C3191 C3193 1.419 . S
C3192 C3190 1.415 . S
C3192 C3197 1.425 . S
C3192 C3199 1.409 . S
C3193 H3185 0.930 . S
C3193 C3191 1.419 . S
C3193 C3194 1.362 . S
C3194 H3186 0.930 . S
C3194 C3193 1.362 . S
C3194 C3197 1.409 . S
C3195 H3187 0.930 . S
C3195 C3196 1.355 . S
C3195 C3197 1.415 . S
C3196 C3195 1.355 . S
C3196 C3198 1.419 . S
C3197 C3192 1.425 . S
C3197 C3194 1.409 . S
C3197 C3195 1.415 . S
C3198 H3188 0.930 . S
C3198 C3196 1.419 . S
C3198 C3199 1.362 . S
C3199 H3189 0.930 . S
C3199 C3192 1.409 . S
C3199 C3198 1.362 . S
H3200 C3206 0.930 . S
H3201 C3209 0.930 . S
H3202 C3210 0.930 . S
H3203 C3211 0.930 . S
H3204 C3214 0.930 . S
H3205 C3215 0.930 . S
C3206 H3200 0.930 . S
C3206 C3207 1.355 . S
C3206 C3208 1.415 . S
C3207 C3206 1.355 . S
C3207 C3209 1.419 . S
C3208 C3206 1.415 . S
C3208 C3213 1.425 . S
C3208 C3215 1.409 . S
C3209 H3201 0.930 . S
C3209 C3207 1.419 . S
C3209 C3210 1.362 . S
C3210 H3202 0.930 . S
C3210 C3209 1.362 . S
C3210 C3213 1.409 . S
C3211 H3203 0.930 . S
C3211 C3212 1.355 . S
C3211 C3213 1.415 . S
C3212 C3211 1.355 . S
C3212 C3214 1.419 . S
C3213 C3208 1.425 . S
C3213 C3210 1.409 . S
C3213 C3211 1.415 . S
C3214 H3204 0.930 . S
C3214 C3212 1.419 . S
C3214 C3215 1.362 . S
C3215 H3205 0.930 . S
C3215 C3208 1.409 . S
C3215 C3214 1.362 . S
H3216 C3222 0.930 . S
H3217 C3225 0.930 . S
H3218 C3226 0.930 . S
H3219 C3227 0.930 . S
H3220 C3230 0.930 . S
H3221 C3231 0.930 . S
C3222 H3216 0.930 . S
C3222 C3223 1.355 . S
C3222 C3224 1.415 . S
C3223 C3222 1.355 . S
C3223 C3225 1.419 . S
C3224 C3222 1.415 . S
C3224 C3229 1.425 . S
C3224 C3231 1.409 . S
C3225 H3217 0.930 . S
C3225 C3223 1.419 . S
C3225 C3226 1.362 . S
C3226 H3218 0.930 . S
C3226 C3225 1.362 . S
C3226 C3229 1.409 . S
C3227 H3219 0.930 . S
C3227 C3228 1.355 . S
C3227 C3229 1.415 . S
C3228 C3227 1.355 . S
C3228 C3230 1.419 . S
C3229 C3224 1.425 . S
C3229 C3226 1.409 . S
C3229 C3227 1.415 . S
C3230 H3220 0.930 . S
C3230 C3228 1.419 . S
C3230 C3231 1.362 . S
C3231 H3221 0.930 . S
C3231 C3224 1.409 . S
C3231 C3230 1.362 . S
H3232 C3238 0.930 . S
H3233 C3241 0.930 . S
H3234 C3242 0.930 . S
H3235 C3243 0.930 . S
H3236 C3246 0.930 . S
H3237 C3247 0.930 . S
C3238 H3232 0.930 . S
C3238 C3239 1.355 . S
C3238 C3240 1.415 . S
C3239 C3238 1.355 . S
C3239 C3241 1.419 . S
C3240 C3238 1.415 . S
C3240 C3245 1.425 . S
C3240 C3247 1.409 . S
C3241 H3233 0.930 . S
C3241 C3239 1.419 . S
C3241 C3242 1.362 . S
C3242 H3234 0.930 . S
C3242 C3241 1.362 . S
C3242 C3245 1.409 . S
C3243 H3235 0.930 . S
C3243 C3244 1.355 . S
C3243 C3245 1.415 . S
C3244 C3243 1.355 . S
C3244 C3246 1.419 . S
C3245 C3240 1.425 . S
C3245 C3242 1.409 . S
C3245 C3243 1.415 . S
C3246 H3236 0.930 . S
C3246 C3244 1.419 . S
C3246 C3247 1.362 . S
C3247 H3237 0.930 . S
C3247 C3240 1.409 . S
C3247 C3246 1.362 . S
H3248 C3254 0.930 . S
H3249 C3257 0.930 . S
H3250 C3258 0.930 . S
H3251 C3259 0.930 . S
H3252 C3262 0.930 . S
H3253 C3263 0.930 . S
C3254 H3248 0.930 . S
C3254 C3255 1.355 . S
C3254 C3256 1.415 . S
C3255 C3254 1.355 . S
C3255 C3257 1.419 . S
C3256 C3254 1.415 . S
C3256 C3261 1.425 . S
C3256 C3263 1.409 . S
C3257 H3249 0.930 . S
C3257 C3255 1.419 . S
C3257 C3258 1.362 . S
C3258 H3250 0.930 . S
C3258 C3257 1.362 . S
C3258 C3261 1.409 . S
C3259 H3251 0.930 . S
C3259 C3260 1.355 . S
C3259 C3261 1.415 . S
C3260 C3259 1.355 . S
C3260 C3262 1.419 . S
C3261 C3256 1.425 . S
C3261 C3258 1.409 . S
C3261 C3259 1.415 . S
C3262 H3252 0.930 . S
C3262 C3260 1.419 . S
C3262 C3263 1.362 . S
C3263 H3253 0.930 . S
C3263 C3256 1.409 . S
C3263 C3262 1.362 . S
H3264 C3270 0.930 . S
H3265 C3273 0.930 . S
H3266 C3274 0.930 . S
H3267 C3275 0.930 . S
H3268 C3278 0.930 . S
H3269 C3279 0.930 . S
C3270 H3264 0.930 . S
C3270 C3271 1.355 . S
C3270 C3272 1.415 . S
C3271 C3270 1.355 . S
C3271 C3273 1.419 . S
C3272 C3270 1.415 . S
C3272 C3277 1.425 . S
C3272 C3279 1.409 . S
C3273 H3265 0.930 . S
C3273 C3271 1.419 . S
C3273 C3274 1.362 . S
C3274 H3266 0.930 . S
C3274 C3273 1.362 . S
C3274 C3277 1.409 . S
C3275 H3267 0.930 . S
C3275 C3276 1.355 . S
C3275 C3277 1.415 . S
C3276 C3275 1.355 . S
C3276 C3278 1.419 . S
C3277 C3272 1.425 . S
C3277 C3274 1.409 . S
C3277 C3275 1.415 . S
C3278 H3268 0.930 . S
C3278 C3276 1.419 . S
C3278 C3279 1.362 . S
C3279 H3269 0.930 . S
C3279 C3272 1.409 . S
C3279 C3278 1.362 . S
H3280 C3286 0.930 . S
H3281 C3289 0.930 . S
H3282 C3290 0.930 . S
H3283 C3291 0.930 . S
H3284 C3294 0.930 . S
H3285 C3295 0.930 . S
C3286 H3280 0.930 . S
C3286 C3287 1.355 . S
C3286 C3288 1.415 . S
C3287 C3286 1.355 . S
C3287 C3289 1.419 . S
C3288 C3286 1.415 . S
C3288 C3293 1.425 . S
C3288 C3295 1.409 . S
C3289 H3281 0.930 . S
C3289 C3287 1.419 . S
C3289 C3290 1.362 . S
C3290 H3282 0.930 . S
C3290 C3289 1.362 . S
C3290 C3293 1.409 . S
C3291 H3283 0.930 . S
C3291 C3292 1.355 . S
C3291 C3293 1.415 . S
C3292 C3291 1.355 . S
C3292 C3294 1.419 . S
C3293 C3288 1.425 . S
C3293 C3290 1.409 . S
C3293 C3291 1.415 . S
C3294 H3284 0.930 . S
C3294 C3292 1.419 . S
C3294 C3295 1.362 . S
C3295 H3285 0.930 . S
C3295 C3288 1.409 . S
C3295 C3294 1.362 . S
H3296 C3302 0.930 . S
H3297 C3305 0.930 . S
H3298 C3306 0.930 . S
H3299 C3307 0.930 . S
H3300 C3310 0.930 . S
H3301 C3311 0.930 . S
C3302 H3296 0.930 . S
C3302 C3303 1.355 . S
C3302 C3304 1.415 . S
C3303 C3302 1.355 . S
C3303 C3305 1.419 . S
C3304 C3302 1.415 . S
C3304 C3309 1.425 . S
C3304 C3311 1.409 . S
C3305 H3297 0.930 . S
C3305 C3303 1.419 . S
C3305 C3306 1.362 . S
C3306 H3298 0.930 . S
C3306 C3305 1.362 . S
C3306 C3309 1.409 . S
C3307 H3299 0.930 . S
C3307 C3308 1.355 . S
C3307 C3309 1.415 . S
C3308 C3307 1.355 . S
C3308 C3310 1.419 . S
C3309 C3304 1.425 . S
C3309 C3306 1.409 . S
C3309 C3307 1.415 . S
C3310 H3300 0.930 . S
C3310 C3308 1.419 . S
C3310 C3311 1.362 . S
C3311 H3301 0.930 . S
C3311 C3304 1.409 . S
C3311 C3310 1.362 . S
H3312 C3318 0.930 . S
H3313 C3321 0.930 . S
H3314 C3322 0.930 . S
H3315 C3323 0.930 . S
H3316 C3326 0.930 . S
H3317 C3327 0.930 . S
C3318 H3312 0.930 . S
C3318 C3319 1.355 . S
C3318 C3320 1.415 . S
C3319 C3318 1.355 . S
C3319 C3321 1.419 . S
C3320 C3318 1.415 . S
C3320 C3325 1.425 . S
C3320 C3327 1.409 . S
C3321 H3313 0.930 . S
C3321 C3319 1.419 . S
C3321 C3322 1.362 . S
C3322 H3314 0.930 . S
C3322 C3321 1.362 . S
C3322 C3325 1.409 . S
C3323 H3315 0.930 . S
C3323 C3324 1.355 . S
C3323 C3325 1.415 . S
C3324 C3323 1.355 . S
C3324 C3326 1.419 . S
C3325 C3320 1.425 . S
C3325 C3322 1.409 . S
C3325 C3323 1.415 . S
C3326 H3316 0.930 . S
C3326 C3324 1.419 . S
C3326 C3327 1.362 . S
C3327 H3317 0.930 . S
C3327 C3320 1.409 . S
C3327 C3326 1.362 . S
H3328 C3334 0.930 . S
H3329 C3337 0.930 . S
H3330 C3338 0.930 . S
H3331 C3339 0.930 . S
H3332 C3342 0.930 . S
H3333 C3343 0.930 . S
C3334 H3328 0.930 . S
C3334 C3335 1.355 . S
C3334 C3336 1.415 . S
C3335 C3334 1.355 . S
C3335 C3337 1.419 . S
C3336 C3334 1.415 . S
C3336 C3341 1.425 . S
C3336 C3343 1.409 . S
C3337 H3329 0.930 . S
C3337 C3335 1.419 . S
C3337 C3338 1.362 . S
C3338 H3330 0.930 . S
C3338 C3337 1.362 . S
C3338 C3341 1.409 . S
C3339 H3331 0.930 . S
C3339 C3340 1.355 . S
C3339 C3341 1.415 . S
C3340 C3339 1.355 . S
C3340 C3342 1.419 . S
C3341 C3336 1.425 . S
C3341 C3338 1.409 . S
C3341 C3339 1.415 . S
C3342 H3332 0.930 . S
C3342 C3340 1.419 . S
C3342 C3343 1.362 . S
C3343 H3333 0.930 . S
C3343 C3336 1.409 . S
C3343 C3342 1.362 . S
H3344 C3350 0.930 . S
H3345 C3353 0.930 . S
H3346 C3354 0.930 . S
H3347 C3355 0.930 . S
H3348 C3358 0.930 . S
H3349 C3359 0.930 . S
C3350 H3344 0.930 . S
C3350 C3351 1.355 . S
C3350 C3352 1.415 . S
C3351 C3350 1.355 . S
C3351 C3353 1.419 . S
C3352 C3350 1.415 . S
C3352 C3357 1.425 . S
C3352 C3359 1.409 . S
C3353 H3345 0.930 . S
C3353 C3351 1.419 . S
C3353 C3354 1.362 . S
C3354 H3346 0.930 . S
C3354 C3353 1.362 . S
C3354 C3357 1.409 . S
C3355 H3347 0.930 . S
C3355 C3356 1.355 . S
C3355 C3357 1.415 . S
C3356 C3355 1.355 . S
C3356 C3358 1.419 . S
C3357 C3352 1.425 . S
C3357 C3354 1.409 . S
C3357 C3355 1.415 . S
C3358 H3348 0.930 . S
C3358 C3356 1.419 . S
C3358 C3359 1.362 . S
C3359 H3349 0.930 . S
C3359 C3352 1.409 . S
C3359 C3358 1.362 . S
H3360 C3366 0.930 . S
H3361 C3369 0.930 . S
H3362 C3370 0.930 . S
H3363 C3371 0.930 . S
H3364 C3374 0.930 . S
H3365 C3375 0.930 . S
C3366 H3360 0.930 . S
C3366 C3367 1.355 . S
C3366 C3368 1.415 . S
C3367 C3366 1.355 . S
C3367 C3369 1.419 . S
C3368 C3366 1.415 . S
C3368 C3373 1.425 . S
C3368 C3375 1.409 . S
C3369 H3361 0.930 . S
C3369 C3367 1.419 . S
C3369 C3370 1.362 . S
C3370 H3362 0.930 . S
C3370 C3369 1.362 . S
C3370 C3373 1.409 . S
C3371 H3363 0.930 . S
C3371 C3372 1.355 . S
C3371 C3373 1.415 . S
C3372 C3371 1.355 . S
C3372 C3374 1.419 . S
C3373 C3368 1.425 . S
C3373 C3370 1.409 . S
C3373 C3371 1.415 . S
C3374 H3364 0.930 . S
C3374 C3372 1.419 . S
C3374 C3375 1.362 . S
C3375 H3365 0.930 . S
C3375 C3368 1.409 . S
C3375 C3374 1.362 . S
H3376 C3382 0.930 . S
H3377 C3385 0.930 . S
H3378 C3386 0.930 . S
H3379 C3387 0.930 . S
H3380 C3390 0.930 . S
H3381 C3391 0.930 . S
C3382 H3376 0.930 . S
C3382 C3383 1.355 . S
C3382 C3384 1.415 . S
C3383 C3382 1.355 . S
C3383 C3385 1.419 . S
C3384 C3382 1.415 . S
C3384 C3389 1.425 . S
C3384 C3391 1.409 . S
C3385 H3377 0.930 . S
C3385 C3383 1.419 . S
C3385 C3386 1.362 . S
C3386 H3378 0.930 . S
C3386 C3385 1.362 . S
C3386 C3389 1.409 . S
C3387 H3379 0.930 . S
C3387 C3388 1.355 . S
C3387 C3389 1.415 . S
C3388 C3387 1.355 . S
C3388 C3390 1.419 . S
C3389 C3384 1.425 . S
C3389 C3386 1.409 . S
C3389 C3387 1.415 . S
C3390 H3380 0.930 . S
C3390 C3388 1.419 . S
C3390 C3391 1.362 . S
C3391 H3381 0.930 . S
C3391 C3384 1.409 . S
C3391 C3390 1.362 . S
H3392 C3398 0.930 . S
H3393 C3401 0.930 . S
H3394 C3402 0.930 . S
H3395 C3403 0.930 . S
H3396 C3406 0.930 . S
H3397 C3407 0.930 . S
C3398 H3392 0.930 . S
C3398 C3399 1.355 . S
C3398 C3400 1.415 . S
C3399 C3398 1.355 . S
C3399 C3401 1.419 . S
C3400 C3398 1.415 . S
C3400 C3405 1.425 . S
C3400 C3407 1.409 . S
C3401 H3393 0.930 . S
C3401 C3399 1.419 . S
C3401 C3402 1.362 . S
C3402 H3394 0.930 . S
C3402 C3401 1.362 . S
C3402 C3405 1.409 . S
C3403 H3395 0.930 . S
C3403 C3404 1.355 . S
C3403 C3405 1.415 . S
C3404 C3403 1.355 . S
C3404 C3406 1.419 . S
C3405 C3400 1.425 . S
C3405 C3402 1.409 . S
C3405 C3403 1.415 . S
C3406 H3396 0.930 . S
C3406 C3404 1.419 . S
C3406 C3407 1.362 . S
C3407 H3397 0.930 . S
C3407 C3400 1.409 . S
C3407 C3406 1.362 . S
H3408 C3414 0.930 . S
H3409 C3417 0.930 . S
H3410 C3418 0.930 . S
H3411 C3419 0.930 . S
H3412 C3422 0.930 . S
H3413 C3423 0.930 . S
C3414 H3408 0.930 . S
C3414 C3415 1.355 . S
C3414 C3416 1.415 . S
C3415 C3414 1.355 . S
C3415 C3417 1.419 . S
C3416 C3414 1.415 . S
C3416 C3421 1.425 . S
C3416 C3423 1.409 . S
C3417 H3409 0.930 . S
C3417 C3415 1.419 . S
C3417 C3418 1.362 . S
C3418 H3410 0.930 . S
C3418 C3417 1.362 . S
C3418 C3421 1.409 . S
C3419 H3411 0.930 . S
C3419 C3420 1.355 . S
C3419 C3421 1.415 . S
C3420 C3419 1.355 . S
C3420 C3422 1.419 . S
C3421 C3416 1.425 . S
C3421 C3418 1.409 . S
C3421 C3419 1.415 . S
C3422 H3412 0.930 . S
C3422 C3420 1.419 . S
C3422 C3423 1.362 . S
C3423 H3413 0.930 . S
C3423 C3416 1.409 . S
C3423 C3422 1.362 . S
H3424 C3430 0.930 . S
H3425 C3433 0.930 . S
H3426 C3434 0.930 . S
H3427 C3435 0.930 . S
H3428 C3438 0.930 . S
H3429 C3439 0.930 . S
C3430 H3424 0.930 . S
C3430 C3431 1.355 . S
C3430 C3432 1.415 . S
C3431 C3430 1.355 . S
C3431 C3433 1.419 . S
C3432 C3430 1.415 . S
C3432 C3437 1.425 . S
C3432 C3439 1.409 . S
C3433 H3425 0.930 . S
C3433 C3431 1.419 . S
C3433 C3434 1.362 . S
C3434 H3426 0.930 . S
C3434 C3433 1.362 . S
C3434 C3437 1.409 . S
C3435 H3427 0.930 . S
C3435 C3436 1.355 . S
C3435 C3437 1.415 . S
C3436 C3435 1.355 . S
C3436 C3438 1.419 . S
C3437 C3432 1.425 . S
C3437 C3434 1.409 . S
C3437 C3435 1.415 . S
C3438 H3428 0.930 . S
C3438 C3436 1.419 . S
C3438 C3439 1.362 . S
C3439 H3429 0.930 . S
C3439 C3432 1.409 . S
C3439 C3438 1.362 . S
H3440 C3446 0.930 . S
H3441 C3449 0.930 . S
H3442 C3450 0.930 . S
H3443 C3451 0.930 . S
H3444 C3454 0.930 . S
H3445 C3455 0.930 . S
C3446 H3440 0.930 . S
C3446 C3447 1.355 . S
C3446 C3448 1.415 . S
C3447 C3446 1.355 . S
C3447 C3449 1.419 . S
C3448 C3446 1.415 . S
C3448 C3453 1.425 . S
C3448 C3455 1.409 . S
C3449 H3441 0.930 . S
C3449 C3447 1.419 . S
C3449 C3450 1.362 . S
C3450 H3442 0.930 . S
C3450 C3449 1.362 . S
C3450 C3453 1.409 . S
C3451 H3443 0.930 . S
C3451 C3452 1.355 . S
C3451 C3453 1.415 . S
C3452 C3451 1.355 . S
C3452 C3454 1.419 . S
C3453 C3448 1.425 . S
C3453 C3450 1.409 . S
C3453 C3451 1.415 . S
C3454 H3444 0.930 . S
C3454 C3452 1.419 . S
C3454 C3455 1.362 . S
C3455 H3445 0.930 . S
C3455 C3448 1.409 . S
C3455 C3454 1.362 . S
H3456 C3462 0.930 . S
H3457 C3465 0.930 . S
H3458 C3466 0.930 . S
H3459 C3467 0.930 . S
H3460 C3470 0.930 . S
H3461 C3471 0.930 . S
C3462 H3456 0.930 . S
C3462 C3463 1.355 . S
C3462 C3464 1.415 . S
C3463 C3462 1.355 . S
C3463 C3465 1.419 . S
C3464 C3462 1.415 . S
C3464 C3469 1.425 . S
C3464 C3471 1.409 . S
C3465 H3457 0.930 . S
C3465 C3463 1.419 . S
C3465 C3466 1.362 . S
C3466 H3458 0.930 . S
C3466 C3465 1.362 . S
C3466 C3469 1.409 . S
C3467 H3459 0.930 . S
C3467 C3468 1.355 . S
C3467 C3469 1.415 . S
C3468 C3467 1.355 . S
C3468 C3470 1.419 . S
C3469 C3464 1.425 . S
C3469 C3466 1.409 . S
C3469 C3467 1.415 . S
C3470 H3460 0.930 . S
C3470 C3468 1.419 . S
C3470 C3471 1.362 . S
C3471 H3461 0.930 . S
C3471 C3464 1.409 . S
C3471 C3470 1.362 . S
H3472 C3478 0.930 . S
H3473 C3481 0.930 . S
H3474 C3482 0.930 . S
H3475 C3483 0.930 . S
H3476 C3486 0.930 . S
H3477 C3487 0.930 . S
C3478 H3472 0.930 . S
C3478 C3479 1.355 . S
C3478 C3480 1.415 . S
C3479 C3478 1.355 . S
C3479 C3481 1.419 . S
C3480 C3478 1.415 . S
C3480 C3485 1.425 . S
C3480 C3487 1.409 . S
C3481 H3473 0.930 . S
C3481 C3479 1.419 . S
C3481 C3482 1.362 . S
C3482 H3474 0.930 . S
C3482 C3481 1.362 . S
C3482 C3485 1.409 . S
C3483 H3475 0.930 . S
C3483 C3484 1.355 . S
C3483 C3485 1.415 . S
C3484 C3483 1.355 . S
C3484 C3486 1.419 . S
C3485 C3480 1.425 . S
C3485 C3482 1.409 . S
C3485 C3483 1.415 . S
C3486 H3476 0.930 . S
C3486 C3484 1.419 . S
C3486 C3487 1.362 . S
C3487 H3477 0.930 . S
C3487 C3480 1.409 . S
C3487 C3486 1.362 . S
H3488 C3494 0.930 . S
H3489 C3497 0.930 . S
H3490 C3498 0.930 . S
H3491 C3499 0.930 . S
H3492 C3502 0.930 . S
H3493 C3503 0.930 . S
C3494 H3488 0.930 . S
C3494 C3495 1.355 . S
C3494 C3496 1.415 . S
C3495 C3494 1.355 . S
C3495 C3497 1.419 . S
C3496 C3494 1.415 . S
C3496 C3501 1.425 . S
C3496 C3503 1.409 . S
C3497 H3489 0.930 . S
C3497 C3495 1.419 . S
C3497 C3498 1.362 . S
C3498 H3490 0.930 . S
C3498 C3497 1.362 . S
C3498 C3501 1.409 . S
C3499 H3491 0.930 . S
C3499 C3500 1.355 . S
C3499 C3501 1.415 . S
C3500 C3499 1.355 . S
C3500 C3502 1.419 . S
C3501 C3496 1.425 . S
C3501 C3498 1.409 . S
C3501 C3499 1.415 . S
C3502 H3492 0.930 . S
C3502 C3500 1.419 . S
C3502 C3503 1.362 . S
C3503 H3493 0.930 . S
C3503 C3496 1.409 . S
C3503 C3502 1.362 . S
C1591 C282 1.047 . S
C1596 N13 1.048 . S
C1607 C315 1.023 . S
C1612 N46 1.043 . S
C1623 N79 1.025 . S
C1628 C348 1.029 . S
C1639 N112 1.033 . S
C1644 C381 1.017 . S
C1655 N145 1.039 . S
C1660 C414 1.053 . S
C1671 C447 1.021 . S
C1676 N178 1.049 . S
C1687 C480 1.052 . S
C1692 N211 1.036 . S
C1703 N244 1.029 1_655 S
C1708 C513 1.020 . S
C1719 N277 1.026 . S
C1724 C546 1.038 . S
C1735 N310 1.033 . S
C1740 C1569 1.018 . S
C1751 N343 1.025 . S
C1756 C1503 1.033 . S
C1767 N376 1.028 1_554 S
C1772 C1536 1.019 . S
C1783 C579 1.025 . S
C1788 N409 1.044 . S
C1799 C612 1.045 . S
C1804 N442 1.082 . S
C1815 N475 1.035 . S
C1820 C645 1.051 . S
C1831 N508 1.035 . S
C1836 C1470 1.051 . S
C1847 N541 1.032 . S
C1852 C18 1.017 . S
C1863 C150 1.053 . S
C1868 N574 1.040 . S
C1879 N607 1.048 . S
C1884 C183 1.047 . S
C1895 C216 1.052 . S
C1900 N640 1.036 . S
C1911 N673 1.030 . S
C1916 C1041 1.017 . S
C1927 N706 1.025 . S
C1932 C876 1.034 . S
C1943 N739 1.047 . S
C1948 C909 1.050 . S
C1959 N772 1.047 1_545 S
C1964 C843 1.029 . S
C1975 C1074 1.051 . S
C1980 N805 1.034 . S
C1991 C1107 1.028 . S
C1996 N838 1.025 . S
C2007 C1140 1.017 . S
C2012 N871 1.036 . S
C2023 N904 1.036 . S
C2028 C1173 1.052 . S
C2039 C1206 1.031 . S
C2044 N937 1.047 . S
C2055 C1239 1.045 . S
C2060 N970 1.029 . S
C2071 N1003 1.045 . S
C2076 C1272 1.027 . S
C2087 N1036 1.046 . S
C2092 C1305 1.052 . S
C2103 N1069 1.035 . S
C2108 C1338 1.051 . S
C2119 C777 1.048 . S
C2124 N1102 1.032 . S
C2135 C711 1.039 . S
C2140 N1135 1.049 . S
C2151 N1168 1.049 . S
C2156 C744 1.045 . S
C2167 N1201 1.025 . S
C2172 C1371 1.029 . S
C2183 N1234 1.025 . S
C2188 C1404 1.031 . S
C2199 C1437 1.018 . S
C2204 N1267 1.028 . S
C2215 N1300 1.035 . S
C2220 C678 1.017 . S
C2231 C810 1.052 . S
C2236 N1333 1.045 . S
C2247 N1366 1.049 . S
C2252 C942 1.040 . S
C2263 N1399 1.036 1_545 S
C2268 C975 1.017 . S
C2279 C1008 1.017 . S
C2284 N1432 1.030 . S
C2295 N1465 1.043 1_565 S
C2300 C249 1.027 . S
C2311 N1498 1.025 . S
C2316 C84 1.024 . S
C2327 C117 1.021 . S
C2332 N1531 1.030 1_565 S
C2343 C51 1.018 . S
C2348 N1564 1.029 . S
C2359 C21 1.798 . S
C2364 C87 1.812 . S
C2375 C54 1.824 . S
C2380 C120 1.831 . S
C2391 C219 1.831 . S
C2396 C153 1.821 . S
C2407 C186 1.802 . S
C2412 C252 1.796 . S
C2423 C417 1.803 . S
C2428 C285 1.796 . S
C2439 C318 1.823 . S
C2444 C450 1.831 . S
C2455 C483 1.827 . S
C2460 C351 1.811 . S
C2471 C516 1.819 . S
C2476 C384 1.831 . S
C2487 C1440 1.816 . S
C2492 C549 1.799 . S
C2503 C582 1.830 . S
C2508 C714 1.827 . S
C2519 C615 1.800 . S
C2524 C747 1.816 . S
C2535 C648 1.829 . S
C2540 C1341 1.828 . S
C2551 C1572 1.801 . S
C2556 C681 1.818 . S
C2567 C1473 1.818 . S
C2572 C780 1.831 . S
C2583 C879 1.807 . S
C2588 C813 1.824 . S
C2599 C912 1.813 . S
C2604 C846 1.798 . S
C2615 C1011 1.830 . S
C2620 C945 1.816 . S
C2631 C1044 1.798 . S
C2636 C978 1.799 . S
C2647 C1077 1.802 . S
C2652 C1209 1.796 . S
C2663 C1242 1.805 . S
C2668 C1110 1.796 . S
C2679 C1143 1.831 . S
C2684 C1275 1.820 . S
C2695 C1308 1.796 . S
C2700 C1176 1.809 . S
C2711 C1506 1.796 . S
C2716 C1374 1.806 . S
C2727 C1407 1.797 . S
C2732 C1539 1.800 . S
C2743 C436 1.723 . S
C2748 N2 1.562 . S
C2759 C469 1.723 . S
C2764 N35 1.631 . S
C2775 N68 1.639 . S
C2780 C502 1.714 . S
C2791 N101 1.559 . S
C2796 C403 1.719 . S
C2807 N134 1.566 . S
C2812 C1162 1.716 . S
C2823 C1063 1.712 . S
C2828 N167 1.614 . S
C2839 C1096 1.718 . S
C2844 N200 1.560 . S
C2855 N233 1.571 . S
C2860 C1129 1.715 . S
C2871 N266 1.593 . S
C2876 C832 1.713 . S
C2887 C865 1.722 . S
C2892 N299 1.561 . S
C2903 C898 1.714 . S
C2908 N332 1.576 . S
C2919 N365 1.629 . S
C2924 C799 1.713 . S
C2935 N398 1.575 . S
C2940 C238 1.714 . S
C2951 N431 1.620 . S
C2956 C139 1.725 . S
C2967 C172 1.718 . S
C2972 N464 1.561 . S
C2983 N497 1.590 . S
C2988 C205 1.726 . S
C2999 C1525 1.713 . S
C3004 N530 1.584 . S
C3015 N563 1.628 . S
C3020 C1393 1.724 . S
C3031 C1426 1.719 . S
C3036 N596 1.559 . S
C3047 N629 1.562 . S
C3052 C667 1.722 . S
C3063 C568 1.712 . S
C3068 N662 1.611 . S
C3079 N695 1.626 . S
C3084 C766 1.724 . S
C3095 N728 1.644 . S
C3100 C700 1.720 . S
C3111 C1327 1.725 . S
C3116 N761 1.577 . S
C3127 C1228 1.722 . S
C3132 N794 1.639 . S
C3143 C1261 1.714 . S
C3148 N827 1.582 . S
C3159 N860 1.567 . S
C3164 C1294 1.716 . S
C3175 N893 1.631 . S
C3180 C1195 1.723 . S
C3191 C370 1.718 . S
C3196 N926 1.560 . S
C3207 N959 1.642 . S
C3212 C271 1.721 . S
C3223 N992 1.646 . S
C3228 C304 1.718 . S
C3239 N1025 1.559 . S
C3244 C337 1.719 . S
C3255 N1058 1.633 . S
C3260 C40 1.723 . S
C3271 N1091 1.570 . S
C3276 C73 1.715 . S
C3287 N1124 1.560 . S
C3292 C106 1.719 . S
C3303 N1157 1.607 . S
C3308 C7 1.726 . S
C3319 C1030 1.719 . S
C3324 N1190 1.645 . S
C3335 C931 1.724 . S
C3340 N1223 1.572 . S
C3351 N1256 1.642 . S
C3356 C964 1.715 . S
C3367 N1289 1.560 . S
C3372 C997 1.718 . S
C3383 C733 1.716 . S
C3388 N1322 1.645 . S
C3399 N1355 1.582 . S
C3404 C601 1.714 . S
C3415 C634 1.725 . S
C3420 N1388 1.576 . S
C3431 N1421 1.628 . S
C3436 C1459 1.724 . S
C3447 C1360 1.713 . S
C3452 N1454 1.585 . S
C3463 C1558 1.723 . S
C3468 N1487 1.564 . S
C3479 C1492 1.725 . S
C3484 N1520 1.611 . S
C3495 N1553 1.567 . S
C3500 C535 1.716 . S
