# Generated by pormake.
# Topology ume, (4)-cn, num edge types: 1
# Building blocks:
#     Node 0, Type 0, BuildingBlock: GALJAG_clean_sbu_0, # of connection points: 4
#     Node 1, Type 0, BuildingBlock: GALJAG_clean_sbu_0, # of connection points: 4
#     Node 2, Type 0, BuildingBlock: GALJAG_clean_sbu_0, # of connection points: 4
#     Node 3, Type 0, BuildingBlock: GALJAG_clean_sbu_0, # of connection points: 4
#     Node 4, Type 0, BuildingBlock: GALJAG_clean_sbu_0, # of connection points: 4
#     Node 5, Type 0, BuildingBlock: GALJAG_clean_sbu_0, # of connection points: 4
#     Node 6, Type 0, BuildingBlock: GALJAG_clean_sbu_0, # of connection points: 4
#     Node 7, Type 0, BuildingBlock: GALJAG_clean_sbu_0, # of connection points: 4
#     Node 8, Type 0, BuildingBlock: GALJAG_clean_sbu_0, # of connection points: 4
#     Node 9, Type 0, BuildingBlock: GALJAG_clean_sbu_0, # of connection points: 4
#     Node 10, Type 0, BuildingBlock: GALJAG_clean_sbu_0, # of connection points: 4
#     Node 11, Type 0, BuildingBlock: GALJAG_clean_sbu_0, # of connection points: 4
#     Node 12, Type 0, BuildingBlock: GALJAG_clean_sbu_0, # of connection points: 4
#     Node 13, Type 0, BuildingBlock: GALJAG_clean_sbu_0, # of connection points: 4
#     Node 14, Type 0, BuildingBlock: GALJAG_clean_sbu_0, # of connection points: 4
#     Node 15, Type 0, BuildingBlock: GALJAG_clean_sbu_0, # of connection points: 4
#     Edge 16, Type (0, 0), BuildingBlock: MIFKUJ_clean_linker_0, # of connection points: 2
#     Edge 17, Type (0, 0), BuildingBlock: MIFKUJ_clean_linker_0, # of connection points: 2
#     Edge 18, Type (0, 0), BuildingBlock: MIFKUJ_clean_linker_0, # of connection points: 2
#     Edge 19, Type (0, 0), BuildingBlock: MIFKUJ_clean_linker_0, # of connection points: 2
#     Edge 20, Type (0, 0), BuildingBlock: MIFKUJ_clean_linker_0, # of connection points: 2
#     Edge 21, Type (0, 0), BuildingBlock: MIFKUJ_clean_linker_0, # of connection points: 2
#     Edge 22, Type (0, 0), BuildingBlock: MIFKUJ_clean_linker_0, # of connection points: 2
#     Edge 23, Type (0, 0), BuildingBlock: MIFKUJ_clean_linker_0, # of connection points: 2
#     Edge 24, Type (0, 0), BuildingBlock: MIFKUJ_clean_linker_0, # of connection points: 2
#     Edge 25, Type (0, 0), BuildingBlock: MIFKUJ_clean_linker_0, # of connection points: 2
#     Edge 26, Type (0, 0), BuildingBlock: MIFKUJ_clean_linker_0, # of connection points: 2
#     Edge 27, Type (0, 0), BuildingBlock: MIFKUJ_clean_linker_0, # of connection points: 2
#     Edge 28, Type (0, 0), BuildingBlock: MIFKUJ_clean_linker_0, # of connection points: 2
#     Edge 29, Type (0, 0), BuildingBlock: MIFKUJ_clean_linker_0, # of connection points: 2
#     Edge 30, Type (0, 0), BuildingBlock: MIFKUJ_clean_linker_0, # of connection points: 2
#     Edge 31, Type (0, 0), BuildingBlock: MIFKUJ_clean_linker_0, # of connection points: 2
#     Edge 32, Type (0, 0), BuildingBlock: MIFKUJ_clean_linker_0, # of connection points: 2
#     Edge 33, Type (0, 0), BuildingBlock: MIFKUJ_clean_linker_0, # of connection points: 2
#     Edge 34, Type (0, 0), BuildingBlock: MIFKUJ_clean_linker_0, # of connection points: 2
#     Edge 35, Type (0, 0), BuildingBlock: MIFKUJ_clean_linker_0, # of connection points: 2
#     Edge 36, Type (0, 0), BuildingBlock: MIFKUJ_clean_linker_0, # of connection points: 2
#     Edge 37, Type (0, 0), BuildingBlock: MIFKUJ_clean_linker_0, # of connection points: 2
#     Edge 38, Type (0, 0), BuildingBlock: MIFKUJ_clean_linker_0, # of connection points: 2
#     Edge 39, Type (0, 0), BuildingBlock: MIFKUJ_clean_linker_0, # of connection points: 2
#     Edge 40, Type (0, 0), BuildingBlock: MIFKUJ_clean_linker_0, # of connection points: 2
#     Edge 41, Type (0, 0), BuildingBlock: MIFKUJ_clean_linker_0, # of connection points: 2
#     Edge 42, Type (0, 0), BuildingBlock: MIFKUJ_clean_linker_0, # of connection points: 2
#     Edge 43, Type (0, 0), BuildingBlock: MIFKUJ_clean_linker_0, # of connection points: 2
#     Edge 44, Type (0, 0), BuildingBlock: MIFKUJ_clean_linker_0, # of connection points: 2
#     Edge 45, Type (0, 0), BuildingBlock: MIFKUJ_clean_linker_0, # of connection points: 2
#     Edge 46, Type (0, 0), BuildingBlock: MIFKUJ_clean_linker_0, # of connection points: 2
#     Edge 47, Type (0, 0), BuildingBlock: MIFKUJ_clean_linker_0, # of connection points: 2
# Relax obj value: 0.060
# Max RMSD: 0.125
# Mean RMSD: 0.125
data_MOF--net-ume--node1-GALJAG_clean_sbu_0--edge1-MIFKUJ_clean_linker_0
_symmetry_space_group_name_H-M    P1
_symmetry_Int_Tables_number       1
_symmetry_cell_setting            triclinic
loop_
_symmetry_equiv_pos_as_xyz
'x, y, z'
_cell_length_a     36.309387
_cell_length_b     36.309662
_cell_length_c     146.31075
_cell_angle_alpha  89.987581
_cell_angle_beta   89.995646
_cell_angle_gamma 90.012712
loop_
_atom_site_label
_atom_site_type_symbol
_atom_site_fract_x
_atom_site_fract_y
_atom_site_fract_z
_atom_type_partial_charge
In0 In 0.25348 0.11112 0.31027 0.0
O1 O 0.2548 0.15753 0.32094 0.0
O2 O 0.24254 0.103 0.32532 0.0
C3 C 0.25646 0.14664 0.29415 0.0
C4 C 0.18709 0.07895 0.30831 0.0
C5 C 0.32136 0.08086 0.31088 0.0
O6 O 0.25096 0.16359 0.30157 0.0
O7 O 0.26056 0.1123 0.29494 0.0
O8 O 0.29267 0.06178 0.30965 0.0
O9 O 0.31565 0.11489 0.31186 0.0
C10 C 0.24682 0.13631 0.3275 0.0
O11 O 0.21634 0.06041 0.30921 0.0
O12 O 0.19153 0.11343 0.30836 0.0
In13 In 0.89333 0.75941 0.55964 0.0
O14 O 0.84594 0.75995 0.57006 0.0
O15 O 0.89995 0.74635 0.5746 0.0
C16 C 0.86017 0.76629 0.5433 0.0
C17 C 0.92513 0.69309 0.5573 0.0
C18 C 0.92358 0.82685 0.56129 0.0
O19 O 0.84261 0.75618 0.55033 0.0
O20 O 0.89391 0.77268 0.54457 0.0
O21 O 0.94288 0.79827 0.56009 0.0
O22 O 0.88933 0.82118 0.56177 0.0
C23 C 0.8665 0.75067 0.57664 0.0
O24 O 0.94389 0.72222 0.5582 0.0
O25 O 0.8907 0.69774 0.55743 0.0
In26 In 0.25144 0.39481 0.81005 0.0
O27 O 0.2887 0.44565 0.80859 0.0
O28 O 0.31363 0.3927 0.8096 0.0
C29 C 0.19034 0.43807 0.80959 0.0
C30 C 0.25049 0.35952 0.82634 0.0
C31 C 0.2511 0.35096 0.79518 0.0
O32 O 0.21219 0.43794 0.81628 0.0
O33 O 0.20032 0.41802 0.80303 0.0
O34 O 0.238 0.34055 0.80275 0.0
O35 O 0.26469 0.38288 0.7952 0.0
C36 C 0.31817 0.427 0.80879 0.0
O37 O 0.22722 0.35265 0.82016 0.0
O38 O 0.27411 0.38339 0.82421 0.0
In39 In 0.60703 0.75187 0.05769 0.0
O40 O 0.65318 0.76125 0.06821 0.0
O41 O 0.60437 0.7337 0.07245 0.0
C42 C 0.64159 0.75353 0.04143 0.0
C43 C 0.5726 0.81786 0.05834 0.0
C44 C 0.57698 0.68437 0.05628 0.0
O45 O 0.65917 0.7519 0.04887 0.0
O46 O 0.60705 0.75469 0.04225 0.0
O47 O 0.55763 0.71295 0.05752 0.0
O48 O 0.61123 0.69009 0.05566 0.0
C49 C 0.63577 0.74559 0.07459 0.0
O50 O 0.55513 0.78809 0.05728 0.0
O51 O 0.60691 0.8141 0.05916 0.0
In52 In 0.25097 0.39309 0.93732 0.0
O53 O 0.23934 0.34453 0.92765 0.0
O54 O 0.26254 0.3934 0.9221 0.0
C55 C 0.25294 0.36148 0.95395 0.0
C56 C 0.18462 0.42689 0.93701 0.0
C57 C 0.31876 0.42317 0.93795 0.0
O58 O 0.25262 0.34262 0.94669 0.0
O59 O 0.25221 0.39589 0.95277 0.0
O60 O 0.28979 0.44256 0.93814 0.0
O61 O 0.31335 0.38885 0.93744 0.0
C62 C 0.25095 0.36124 0.92065 0.0
O63 O 0.21425 0.44432 0.93567 0.0
O64 O 0.18872 0.393 0.93851 0.0
In65 In 0.61184 0.74841 0.18807 0.0
O66 O 0.65596 0.74334 0.17693 0.0
O67 O 0.60337 0.76448 0.17327 0.0
C68 C 0.65193 0.74525 0.2035 0.0
C69 C 0.58092 0.68089 0.18726 0.0
C70 C 0.57905 0.81397 0.19107 0.0
O71 O 0.66541 0.75608 0.19601 0.0
O72 O 0.61865 0.73544 0.20313 0.0
O73 O 0.56069 0.78467 0.18998 0.0
O74 O 0.61351 0.80991 0.19069 0.0
C75 C 0.63536 0.75586 0.17071 0.0
O76 O 0.56228 0.70945 0.189 0.0
O77 O 0.61474 0.6866 0.1859 0.0
In78 In 0.24632 0.10566 0.43952 0.0
O79 O 0.248 0.15284 0.42906 0.0
O80 O 0.2375 0.0984 0.42435 0.0
C81 C 0.2483 0.14017 0.45578 0.0
C82 C 0.31359 0.07416 0.43888 0.0
C83 C 0.17879 0.07543 0.44108 0.0
O84 O 0.24746 0.15776 0.44832 0.0
O85 O 0.24842 0.10558 0.45496 0.0
O86 O 0.20782 0.05616 0.44116 0.0
O87 O 0.18403 0.10965 0.44027 0.0
C88 C 0.24132 0.13194 0.42235 0.0
O89 O 0.28434 0.05531 0.43907 0.0
O90 O 0.30874 0.10852 0.43903 0.0
In91 In 0.89425 0.74343 0.68829 0.0
O92 O 0.84726 0.74569 0.67782 0.0
O93 O 0.90113 0.73183 0.67322 0.0
C94 C 0.86002 0.74926 0.70453 0.0
C95 C 0.9266 0.81011 0.68723 0.0
C96 C 0.9236 0.67582 0.69056 0.0
O97 O 0.84244 0.74317 0.69722 0.0
O98 O 0.89436 0.75262 0.70356 0.0
O99 O 0.94338 0.70433 0.68976 0.0
O100 O 0.88937 0.68163 0.69024 0.0
C101 C 0.86778 0.73699 0.67118 0.0
O102 O 0.94498 0.78089 0.68836 0.0
O103 O 0.89229 0.80545 0.68654 0.0
In104 In 0.75267 0.60539 0.81009 0.0
O105 O 0.75565 0.65403 0.82002 0.0
O106 O 0.73487 0.60267 0.82485 0.0
C107 C 0.76449 0.64046 0.79414 0.0
C108 C 0.68569 0.57475 0.80748 0.0
C109 C 0.81815 0.57138 0.81248 0.0
O110 O 0.75132 0.65693 0.801 0.0
O111 O 0.77167 0.6069 0.79539 0.0
O112 O 0.79141 0.55591 0.80849 0.0
O113 O 0.81152 0.60337 0.8154 0.0
C114 C 0.74254 0.63581 0.82664 0.0
O115 O 0.71341 0.5558 0.80977 0.0
O116 O 0.6921 0.60857 0.80637 0.0
In117 In 0.3927 0.25179 0.05881 0.0
O118 O 0.34866 0.25438 0.07011 0.0
O119 O 0.40477 0.24605 0.07382 0.0
C120 C 0.35659 0.25597 0.0428 0.0
C121 C 0.42032 0.18323 0.05735 0.0
C122 C 0.42507 0.31863 0.05865 0.0
O123 O 0.33953 0.2533 0.05032 0.0
O124 O 0.39122 0.2563 0.04346 0.0
O125 O 0.44315 0.28928 0.05741 0.0
O126 O 0.39104 0.31404 0.05998 0.0
C127 C 0.37191 0.2497 0.07646 0.0
O128 O 0.44071 0.21147 0.05754 0.0
O129 O 0.38621 0.18974 0.05784 0.0
In130 In 0.75427 0.89661 0.30841 0.0
O131 O 0.75518 0.84904 0.31875 0.0
O132 O 0.75953 0.90405 0.32366 0.0
C133 C 0.75278 0.86221 0.29214 0.0
C134 C 0.8222 0.92586 0.30731 0.0
C135 C 0.68711 0.92874 0.30856 0.0
O136 O 0.74755 0.8451 0.29956 0.0
O137 O 0.75872 0.89625 0.29298 0.0
O138 O 0.7165 0.94737 0.30852 0.0
O139 O 0.69178 0.89436 0.3085 0.0
C140 C 0.75868 0.87018 0.32556 0.0
O141 O 0.79345 0.94549 0.3069 0.0
O142 O 0.81649 0.89175 0.30823 0.0
In143 In 0.10674 0.25996 0.56013 0.0
O144 O 0.05764 0.29912 0.55902 0.0
O145 O 0.11138 0.32231 0.55982 0.0
C146 C 0.07563 0.19259 0.56004 0.0
C147 C 0.13077 0.25868 0.57752 0.0
C148 C 0.1406 0.25692 0.54381 0.0
O149 O 0.05664 0.22176 0.55961 0.0
O150 O 0.10999 0.19761 0.56045 0.0
O151 O 0.15859 0.26057 0.55117 0.0
O152 O 0.10613 0.25518 0.54478 0.0
C153 C 0.07718 0.32793 0.55919 0.0
O154 O 0.15302 0.2586 0.57086 0.0
O155 O 0.09722 0.26007 0.57532 0.0
In156 In 0.74666 0.89119 0.43726 0.0
O157 O 0.70748 0.94047 0.43755 0.0
O158 O 0.68461 0.88701 0.43569 0.0
C159 C 0.81359 0.92244 0.43907 0.0
C160 C 0.75337 0.86546 0.4201 0.0
C161 C 0.74387 0.85763 0.45362 0.0
O162 O 0.78454 0.94144 0.43833 0.0
O163 O 0.80865 0.88804 0.43893 0.0
O164 O 0.74907 0.83977 0.44631 0.0
O165 O 0.73959 0.89184 0.45258 0.0
C166 C 0.67886 0.92115 0.43644 0.0
O167 O 0.74606 0.84428 0.42672 0.0
O168 O 0.75683 0.89897 0.42219 0.0
In169 In 0.10753 0.24361 0.69007 0.0
O170 O 0.15374 0.24216 0.67931 0.0
O171 O 0.09796 0.24376 0.67486 0.0
C172 C 0.14214 0.2437 0.7063 0.0
C173 C 0.0784 0.17554 0.69044 0.0
C174 C 0.07539 0.31049 0.69109 0.0
O175 O 0.15929 0.24959 0.69891 0.0
O176 O 0.10813 0.23762 0.70541 0.0
O177 O 0.05693 0.28099 0.69132 0.0
O178 O 0.1097 0.30608 0.69031 0.0
C179 C 0.13149 0.24243 0.67265 0.0
O180 O 0.05859 0.2042 0.69054 0.0
O181 O 0.11268 0.18139 0.69021 0.0
In182 In 0.75106 0.60908 0.93721 0.0
O183 O 0.75082 0.65746 0.92715 0.0
O184 O 0.73893 0.60366 0.92214 0.0
C185 C 0.7545 0.64278 0.95357 0.0
C186 C 0.81885 0.57883 0.93595 0.0
C187 C 0.68414 0.57734 0.93866 0.0
O188 O 0.75274 0.66072 0.94618 0.0
O189 O 0.7549 0.60826 0.95264 0.0
O190 O 0.71325 0.55861 0.93767 0.0
O191 O 0.68902 0.61174 0.939 0.0
C192 C 0.7425 0.63748 0.92038 0.0
O193 O 0.79065 0.55991 0.93784 0.0
O194 O 0.81269 0.61258 0.93467 0.0
In195 In 0.3982 0.24722 0.19017 0.0
O196 O 0.35269 0.2493 0.17924 0.0
O197 O 0.40796 0.23943 0.17508 0.0
C198 C 0.36225 0.24982 0.20622 0.0
C199 C 0.42981 0.31454 0.18978 0.0
C200 C 0.42706 0.1792 0.19204 0.0
O201 O 0.34525 0.24879 0.19868 0.0
O202 O 0.39691 0.24978 0.20559 0.0
O203 O 0.44681 0.20791 0.19225 0.0
O204 O 0.39308 0.18499 0.19089 0.0
C205 C 0.3748 0.24341 0.17273 0.0
O206 O 0.44867 0.28529 0.19 0.0
O207 O 0.39543 0.30963 0.18981 0.0
H208 H 0.88712 0.88866 0.30854 0.0
H209 H 0.9494 0.91406 0.30813 0.0
H210 H 0.90481 0.02329 0.30466 0.0
H211 H 0.84221 0.99795 0.30499 0.0
H212 H 0.96348 0.01051 0.29328 0.0
H213 H 0.93572 0.99672 0.32517 0.0
H214 H 0.91565 0.96349 0.339 0.0
H215 H 0.00482 0.8869 0.33582 0.0
H216 H 0.02512 0.91938 0.32189 0.0
H217 H 0.12165 0.11383 0.30556 0.0
H218 H 0.06037 0.08631 0.30471 0.0
H219 H 0.1077 0.97835 0.30839 0.0
H220 H 0.16929 0.00583 0.30932 0.0
H221 H 0.04816 0.98931 0.31939 0.0
H222 H 0.07706 0.0043 0.2877 0.0
H223 H 0.09732 0.03799 0.27396 0.0
H224 H 0.00631 0.11262 0.27678 0.0
H225 H 0.98579 0.07969 0.29062 0.0
C226 C 0.89054 0.91809 0.30767 0.0
C227 C 0.85979 0.94137 0.30685 0.0
C228 C 0.92615 0.93256 0.30746 0.0
C229 C 0.93171 0.9706 0.30647 0.0
C230 C 0.90109 0.99385 0.30545 0.0
C231 C 0.86538 0.97938 0.30567 0.0
C232 C 0.96951 0.98606 0.30661 0.0
C233 C 0.98186 0.00629 0.29903 0.0
C234 C 0.99375 0.97975 0.31403 0.0
C235 C 0.98171 0.96027 0.32243 0.0
C236 C 0.95088 0.97262 0.32738 0.0
C237 C 0.93949 0.95394 0.33524 0.0
C238 C 0.95889 0.92304 0.33827 0.0
C239 C 0.98979 0.91081 0.33346 0.0
C240 C 0.00126 0.92935 0.32558 0.0
C241 C 0.11907 0.0842 0.30615 0.0
C242 C 0.15027 0.06195 0.30749 0.0
C243 C 0.08403 0.06851 0.30562 0.0
C244 C 0.07952 0.03026 0.3064 0.0
C245 C 0.11062 0.00794 0.30776 0.0
C246 C 0.14575 0.02363 0.30826 0.0
C247 C 0.04216 0.0138 0.30606 0.0
C248 C 0.02985 0.99342 0.31361 0.0
C249 C 0.01799 0.02 0.29862 0.0
C250 C 0.03008 0.03971 0.29025 0.0
C251 C 0.06152 0.02806 0.28543 0.0
C252 C 0.07303 0.047 0.27762 0.0
C253 C 0.05317 0.07748 0.27451 0.0
C254 C 0.02169 0.08902 0.2792 0.0
C255 C 0.01008 0.07021 0.28703 0.0
H256 H 0.06215 0.09212 0.26846 0.0
H257 H 0.95003 0.90862 0.34436 0.0
H258 H 0.88929 0.62745 0.55621 0.0
H259 H 0.91617 0.56583 0.55615 0.0
H260 H 0.02516 0.613 0.55699 0.0
H261 H 0.99837 0.67504 0.55701 0.0
H262 H 0.01998 0.5548 0.54487 0.0
H263 H 0.98925 0.57993 0.57605 0.0
H264 H 0.94913 0.59888 0.5888 0.0
H265 H 0.87548 0.50943 0.58294 0.0
H266 H 0.91489 0.49025 0.57004 0.0
H267 H 0.11451 0.393 0.55876 0.0
H268 H 0.08885 0.45512 0.55799 0.0
H269 H 0.97897 0.40992 0.55767 0.0
H270 H 0.00451 0.34752 0.55851 0.0
H271 H 0.98524 0.46755 0.56954 0.0
H272 H 0.01668 0.44254 0.53828 0.0
H273 H 0.05737 0.42397 0.52561 0.0
H274 H 0.13052 0.51351 0.53177 0.0
H275 H 0.09051 0.53233 0.54458 0.0
C276 C 0.919 0.62477 0.55633 0.0
C277 C 0.94176 0.65606 0.55666 0.0
C278 C 0.93429 0.58953 0.55633 0.0
C279 C 0.97261 0.58488 0.55669 0.0
C280 C 0.9955 0.61605 0.55673 0.0
C281 C 0.98018 0.65142 0.55676 0.0
C282 C 0.98858 0.54739 0.55722 0.0
C283 C 0.01282 0.53586 0.55033 0.0
C284 C 0.97858 0.52252 0.56425 0.0
C285 C 0.95486 0.53386 0.57202 0.0
C286 C 0.96434 0.56447 0.57742 0.0
C287 C 0.94176 0.57523 0.58469 0.0
C288 C 0.90974 0.55542 0.58666 0.0
C289 C 0.90027 0.52477 0.58139 0.0
C290 C 0.92274 0.51392 0.57411 0.0
C291 C 0.08487 0.39626 0.55851 0.0
C292 C 0.06149 0.36541 0.55868 0.0
C293 C 0.07027 0.43177 0.55804 0.0
C294 C 0.03202 0.43711 0.55768 0.0
C295 C 0.00857 0.40637 0.55792 0.0
C296 C 0.02319 0.37078 0.55838 0.0
C297 C 0.01654 0.47484 0.55716 0.0
C298 C 0.9924 0.48645 0.56407 0.0
C299 C 0.02673 0.4998 0.55017 0.0
C300 C 0.05077 0.48862 0.54245 0.0
C301 C 0.0416 0.45809 0.53699 0.0
C302 C 0.06451 0.44755 0.52977 0.0
C303 C 0.09656 0.46749 0.5279 0.0
C304 C 0.10571 0.49807 0.53323 0.0
C305 C 0.08291 0.5087 0.54047 0.0
H306 H 0.11426 0.45929 0.52231 0.0
H307 H 0.89235 0.56377 0.5923 0.0
H308 H 0.66397 0.50287 0.80942 0.0
H309 H 0.60096 0.47867 0.80886 0.0
H310 H 0.55971 0.58775 0.80323 0.0
H311 H 0.62241 0.61207 0.80381 0.0
H312 H 0.52071 0.55398 0.8167 0.0
H313 H 0.56296 0.52463 0.78648 0.0
H314 H 0.60499 0.49789 0.77503 0.0
H315 H 0.58684 0.39006 0.78622 0.0
H316 H 0.54507 0.41624 0.79782 0.0
H317 H 0.33661 0.4996 0.80625 0.0
H318 H 0.39874 0.5259 0.8053 0.0
H319 H 0.44551 0.41777 0.80918 0.0
H320 H 0.38382 0.39139 0.80994 0.0
H321 H 0.48131 0.4528 0.79612 0.0
H322 H 0.44163 0.48139 0.82665 0.0
H323 H 0.4004 0.50726 0.8384 0.0
H324 H 0.41456 0.61535 0.82701 0.0
H325 H 0.45551 0.59001 0.81511 0.0
C326 C 0.64148 0.5216 0.80799 0.0
C327 C 0.64813 0.55934 0.80665 0.0
C328 C 0.60553 0.50775 0.80765 0.0
C329 C 0.57566 0.53141 0.80596 0.0
C330 C 0.58233 0.56903 0.80456 0.0
C331 C 0.6182 0.58284 0.80486 0.0
C332 C 0.53732 0.51721 0.8059 0.0
C333 C 0.51192 0.53222 0.8121 0.0
C334 C 0.52612 0.48828 0.80006 0.0
C335 C 0.55116 0.47246 0.79307 0.0
C336 C 0.56817 0.49526 0.78655 0.0
C337 C 0.5919 0.48019 0.78002 0.0
C338 C 0.59866 0.44231 0.77991 0.0
C339 C 0.58162 0.4194 0.78632 0.0
C340 C 0.55788 0.43434 0.79286 0.0
C341 C 0.36018 0.48151 0.80689 0.0
C342 C 0.35535 0.44347 0.80819 0.0
C343 C 0.39565 0.49655 0.80638 0.0
C344 C 0.42683 0.47384 0.80726 0.0
C345 C 0.42193 0.43583 0.80847 0.0
C346 C 0.3866 0.42082 0.80893 0.0
C347 C 0.46467 0.48942 0.80695 0.0
C348 C 0.49001 0.47467 0.80069 0.0
C349 C 0.47589 0.51844 0.81278 0.0
C350 C 0.4513 0.53374 0.81993 0.0
C351 C 0.43571 0.51062 0.82661 0.0
C352 C 0.41243 0.5252 0.8333 0.0
C353 C 0.40477 0.56291 0.83344 0.0
C354 C 0.42046 0.58613 0.82689 0.0
C355 C 0.44372 0.57169 0.82017 0.0
H356 H 0.38676 0.57414 0.83863 0.0
H357 H 0.61704 0.4307 0.77485 0.0
H358 H 0.38136 0.11926 0.05603 0.0
H359 H 0.40538 0.05641 0.05578 0.0
H360 H 0.51629 0.09851 0.05755 0.0
H361 H 0.49242 0.16159 0.05762 0.0
H362 H 0.5122 0.04374 0.04538 0.0
H363 H 0.47195 0.06302 0.07632 0.0
H364 H 0.42767 0.07963 0.08842 0.0
H365 H 0.35571 0.99245 0.07978 0.0
H366 H 0.39936 0.97565 0.06754 0.0
H367 H 0.60619 0.88449 0.05989 0.0
H368 H 0.57784 0.94537 0.0593 0.0
H369 H 0.47083 0.89542 0.05608 0.0
H370 H 0.49913 0.83406 0.05672 0.0
H371 H 0.47033 0.95268 0.06846 0.0
H372 H 0.51244 0.93187 0.03789 0.0
H373 H 0.55739 0.91532 0.02595 0.0
H374 H 0.62656 0.00552 0.03405 0.0
H375 H 0.58226 0.02231 0.04614 0.0
C376 C 0.41088 0.11515 0.05634 0.0
C377 C 0.43503 0.14533 0.05689 0.0
C378 C 0.42456 0.07919 0.05623 0.0
C379 C 0.46261 0.07272 0.05678 0.0
C380 C 0.48682 0.10286 0.05714 0.0
C381 C 0.47316 0.13887 0.0572 0.0
C382 C 0.47718 0.03453 0.05704 0.0
C383 C 0.50336 0.02398 0.0505 0.0
C384 C 0.46492 0.00842 0.06357 0.0
C385 C 0.43875 0.01833 0.07096 0.0
C386 C 0.44656 0.04757 0.07696 0.0
C387 C 0.42159 0.05699 0.08384 0.0
C388 C 0.38885 0.03717 0.08485 0.0
C389 C 0.38106 0.00782 0.07898 0.0
C390 C 0.40591 0.99832 0.07208 0.0
C391 C 0.5766 0.88639 0.05908 0.0
C392 C 0.55487 0.8545 0.05831 0.0
C393 C 0.56047 0.92122 0.05871 0.0
C394 C 0.52231 0.92492 0.05752 0.0
C395 C 0.50036 0.89314 0.05696 0.0
C396 C 0.51654 0.85816 0.05731 0.0
C397 C 0.50559 0.96208 0.05686 0.0
C398 C 0.47901 0.97242 0.06332 0.0
C399 C 0.51755 0.98804 0.05028 0.0
C400 C 0.54416 0.97815 0.04298 0.0
C401 C 0.53737 0.94801 0.03718 0.0
C402 C 0.56271 0.93862 0.03037 0.0
C403 C 0.59485 0.9593 0.02926 0.0
C404 C 0.60166 0.9895 0.03493 0.0
C405 C 0.57643 0.99899 0.04175 0.0
H406 H 0.61444 0.95198 0.02399 0.0
H407 H 0.36955 0.04451 0.09019 0.0
H408 H 0.11929 0.39526 0.94152 0.0
H409 H 0.05802 0.42257 0.94084 0.0
H410 H 0.1049 0.52451 0.93111 0.0
H411 H 0.16675 0.49743 0.93199 0.0
H412 H 0.05322 0.53735 0.94369 0.0
H413 H 0.06077 0.46474 0.91646 0.0
H414 H 0.07241 0.40874 0.90738 0.0
H415 H 0.98723 0.35169 0.92202 0.0
H416 H 0.97542 0.40721 0.93128 0.0
H417 H 0.8816 0.61356 0.9305 0.0
H418 H 0.94409 0.58872 0.93013 0.0
H419 H 0.90373 0.48436 0.94008 0.0
H420 H 0.84085 0.50888 0.94026 0.0
H421 H 0.95296 0.47447 0.92673 0.0
H422 H 0.9472 0.54664 0.95432 0.0
H423 H 0.93578 0.60271 0.96339 0.0
H424 H 0.01785 0.66081 0.94793 0.0
H425 H 0.02941 0.60519 0.93868 0.0
C426 C 0.11662 0.42352 0.93923 0.0
C427 C 0.1478 0.44417 0.93676 0.0
C428 C 0.08152 0.43904 0.9388 0.0
C429 C 0.07676 0.47537 0.93575 0.0
C430 C 0.10793 0.49635 0.93343 0.0
C431 C 0.1432 0.48087 0.93393 0.0
C432 C 0.0392 0.49134 0.93508 0.0
C433 C 0.03145 0.52393 0.93986 0.0
C434 C 0.01058 0.47342 0.93023 0.0
C435 C 0.01741 0.44007 0.92462 0.0
C436 C 0.04468 0.44018 0.91779 0.0
C437 C 0.05129 0.40853 0.9126 0.0
C438 C 0.03063 0.37666 0.91413 0.0
C439 C 0.00324 0.3764 0.92084 0.0
C440 C 0.99654 0.40796 0.92606 0.0
C441 C 0.88601 0.58528 0.93259 0.0
C442 C 0.85638 0.56319 0.93546 0.0
C443 C 0.92177 0.57117 0.93241 0.0
C444 C 0.92871 0.53486 0.93522 0.0
C445 C 0.89903 0.5125 0.93791 0.0
C446 C 0.86316 0.52654 0.93803 0.0
C447 C 0.96691 0.52028 0.9354 0.0
C448 C 0.97478 0.48796 0.93053 0.0
C449 C 0.99565 0.53848 0.94015 0.0
C450 C 0.98891 0.57186 0.94575 0.0
C451 C 0.96262 0.57145 0.95281 0.0
C452 C 0.95616 0.60313 0.95799 0.0
C453 C 0.97601 0.63533 0.95623 0.0
C454 C 0.00246 0.63587 0.94929 0.0
C455 C 0.009 0.60426 0.94408 0.0
H456 H 0.97096 0.65984 0.96024 0.0
H457 H 0.03579 0.35218 0.91011 0.0
H458 H 0.39415 0.3802 0.19111 0.0
H459 H 0.42058 0.44189 0.19037 0.0
H460 H 0.52881 0.3951 0.18668 0.0
H461 H 0.50248 0.33301 0.18766 0.0
H462 H 0.53204 0.45025 0.19833 0.0
H463 H 0.48144 0.43472 0.16844 0.0
H464 H 0.43417 0.41976 0.15695 0.0
H465 H 0.36432 0.50505 0.16755 0.0
H466 H 0.41126 0.52055 0.17912 0.0
H467 H 0.61676 0.6164 0.18395 0.0
H468 H 0.59129 0.55415 0.18411 0.0
H469 H 0.48384 0.59806 0.19038 0.0
H470 H 0.50917 0.6607 0.19015 0.0
H471 H 0.48131 0.5442 0.17715 0.0
H472 H 0.53541 0.55971 0.207 0.0
H473 H 0.58551 0.57463 0.21777 0.0
H474 H 0.65169 0.48793 0.20643 0.0
H475 H 0.60216 0.47283 0.19551 0.0
C476 C 0.42359 0.38301 0.19013 0.0
C477 C 0.44625 0.35177 0.18941 0.0
C478 C 0.43865 0.41833 0.18966 0.0
C479 C 0.47662 0.42321 0.1883 0.0
C480 C 0.49941 0.39203 0.18769 0.0
C481 C 0.48436 0.35659 0.18824 0.0
C482 C 0.49244 0.46091 0.18769 0.0
C483 C 0.5213 0.4706 0.1936 0.0
C484 C 0.47805 0.48775 0.18163 0.0
C485 C 0.44971 0.47855 0.1747 0.0
C486 C 0.45589 0.45011 0.16836 0.0
C487 C 0.42917 0.44157 0.16182 0.0
C488 C 0.39615 0.46128 0.16154 0.0
C489 C 0.38988 0.48975 0.16778 0.0
C490 C 0.41658 0.49851 0.17431 0.0
C491 C 0.58768 0.61286 0.18534 0.0
C492 C 0.56497 0.64343 0.18708 0.0
C493 C 0.5732 0.57724 0.18546 0.0
C494 C 0.53578 0.57144 0.18737 0.0
C495 C 0.51283 0.60195 0.18892 0.0
C496 C 0.52733 0.63767 0.1888 0.0
C497 C 0.52072 0.53349 0.18781 0.0
C498 C 0.49202 0.52379 0.18187 0.0
C499 C 0.53555 0.50654 0.19376 0.0
C500 C 0.5652 0.51536 0.20039 0.0
C501 C 0.56074 0.54399 0.20676 0.0
C502 C 0.58902 0.55246 0.2129 0.0
C503 C 0.6218 0.5323 0.21277 0.0
C504 C 0.62631 0.50355 0.20652 0.0
C505 C 0.59813 0.495 0.20036 0.0
H506 H 0.64366 0.5389 0.21752 0.0
H507 H 0.37548 0.45457 0.15648 0.0
H508 H 0.33165 0.00146 0.4368 0.0
H509 H 0.39352 0.97475 0.43602 0.0
H510 H 0.44101 0.08282 0.43948 0.0
H511 H 0.37941 0.10969 0.44002 0.0
H512 H 0.47642 0.04688 0.42658 0.0
H513 H 0.43695 0.01934 0.45721 0.0
H514 H 0.39548 0.99417 0.46901 0.0
H515 H 0.40796 0.88577 0.4577 0.0
H516 H 0.44915 0.91039 0.44575 0.0
H517 H 0.65884 0.99331 0.43846 0.0
H518 H 0.59636 0.01871 0.43852 0.0
H519 H 0.5519 0.91005 0.43396 0.0
H520 H 0.61415 0.88446 0.43402 0.0
H521 H 0.51472 0.94527 0.44715 0.0
H522 H 0.55565 0.97318 0.41671 0.0
H523 H 0.59759 0.99879 0.40507 0.0
H524 H 0.58285 0.10713 0.41625 0.0
H525 H 0.54119 0.08208 0.42803 0.0
C526 C 0.35532 0.01946 0.4374 0.0
C527 C 0.35073 0.05762 0.4385 0.0
C528 C 0.39064 0.00418 0.43699 0.0
C529 C 0.42194 0.02674 0.43779 0.0
C530 C 0.41731 0.06487 0.43883 0.0
C531 C 0.38207 0.08017 0.43918 0.0
C532 C 0.45959 0.0108 0.43751 0.0
C533 C 0.48492 0.02496 0.43115 0.0
C534 C 0.47049 0.98165 0.44333 0.0
C535 C 0.44583 0.96678 0.45053 0.0
C536 C 0.43063 0.99018 0.45719 0.0
C537 C 0.40721 0.97601 0.46392 0.0
C538 C 0.39901 0.93842 0.46409 0.0
C539 C 0.4143 0.9149 0.45755 0.0
C540 C 0.4377 0.92894 0.45081 0.0
C541 C 0.63574 0.97489 0.43743 0.0
C542 C 0.64136 0.93692 0.43622 0.0
C543 C 0.60008 0.98944 0.43744 0.0
C544 C 0.56948 0.96631 0.43616 0.0
C545 C 0.5751 0.92839 0.43495 0.0
C546 C 0.61069 0.91384 0.43496 0.0
C547 C 0.53153 0.98146 0.43626 0.0
C548 C 0.50617 0.96714 0.44257 0.0
C549 C 0.52065 0.01055 0.43041 0.0
C550 C 0.54557 0.02569 0.42331 0.0
C551 C 0.56157 0.00242 0.41673 0.0
C552 C 0.58525 0.01684 0.4101 0.0
C553 C 0.59295 0.05455 0.40993 0.0
C554 C 0.5769 0.07792 0.41639 0.0
C555 C 0.55322 0.06363 0.42304 0.0
H556 H 0.61129 0.06566 0.40479 0.0
H557 H 0.38087 0.92749 0.4693 0.0
H558 H 0.1159 0.11075 0.69162 0.0
H559 H 0.09069 0.04841 0.6912 0.0
H560 H 0.98094 0.09282 0.68866 0.0
H561 H 0.00599 0.15542 0.68929 0.0
H562 H 0.98217 0.03647 0.70044 0.0
H563 H 0.02773 0.059 0.67015 0.0
H564 H 0.07457 0.07717 0.65883 0.0
H565 H 0.14367 0.98754 0.66735 0.0
H566 H 0.0975 0.96928 0.67887 0.0
H567 H 0.89158 0.87588 0.68525 0.0
H568 H 0.91858 0.93744 0.68579 0.0
H569 H 0.02641 0.88996 0.68956 0.0
H570 H 0.99953 0.82802 0.68894 0.0
H571 H 0.0271 0.9472 0.6773 0.0
H572 H 0.98149 0.92467 0.70755 0.0
H573 H 0.93516 0.90723 0.71908 0.0
H574 H 0.86616 0.99696 0.71059 0.0
H575 H 0.91187 0.01463 0.69891 0.0
C576 C 0.08638 0.10725 0.691 0.0
C577 C 0.0629 0.13794 0.69044 0.0
C578 C 0.07203 0.0716 0.69072 0.0
C579 C 0.03398 0.06594 0.68975 0.0
C580 C 0.0104 0.09656 0.68938 0.0
C581 C 0.02473 0.13228 0.68972 0.0
C582 C 0.01884 0.02808 0.68906 0.0
C583 C 0.99163 0.01713 0.6953 0.0
C584 C 0.03185 0.00254 0.68249 0.0
C585 C 0.0593 0.01299 0.67543 0.0
C586 C 0.05301 0.04329 0.66965 0.0
C587 C 0.07945 0.0536 0.66319 0.0
C588 C 0.11213 0.03356 0.66238 0.0
C589 C 0.11836 0.00307 0.668 0.0
C590 C 0.09207 0.99272 0.67449 0.0
C591 C 0.92108 0.87849 0.68615 0.0
C592 C 0.94345 0.84714 0.68711 0.0
C593 C 0.93643 0.9137 0.6865 0.0
C594 C 0.97442 0.91826 0.68785 0.0
C595 C 0.99701 0.887 0.68855 0.0
C596 C 0.98163 0.85169 0.68821 0.0
C597 C 0.99033 0.95572 0.68865 0.0
C598 C 0.01767 0.96658 0.68244 0.0
C599 C 0.97741 0.9812 0.69524 0.0
C600 C 0.94996 0.97076 0.70229 0.0
C601 C 0.95631 0.94051 0.70809 0.0
C602 C 0.93018 0.93061 0.71466 0.0
C603 C 0.8977 0.95092 0.71556 0.0
C604 C 0.89132 0.98123 0.70989 0.0
C605 C 0.91734 0.99122 0.70329 0.0
H606 H 0.8775 0.94321 0.72065 0.0
H607 H 0.13263 0.0416 0.65739 0.0
H608 H 0.62127 0.89325 0.30743 0.0
H609 H 0.55967 0.92016 0.30778 0.0
H610 H 0.607 0.02862 0.31041 0.0
H611 H 0.66902 0.00175 0.31008 0.0
H612 H 0.54956 0.01682 0.32245 0.0
H613 H 0.57223 0.00246 0.29036 0.0
H614 H 0.58976 0.96895 0.27636 0.0
H615 H 0.50024 0.8934 0.28041 0.0
H616 H 0.48248 0.92615 0.29451 0.0
H617 H 0.38633 0.11734 0.31309 0.0
H618 H 0.4485 0.0917 0.31281 0.0
H619 H 0.40358 0.983 0.3086 0.0
H620 H 0.34115 0.00866 0.30873 0.0
H621 H 0.46033 0.99559 0.2973 0.0
H622 H 0.43781 0.00872 0.32937 0.0
H623 H 0.42017 0.04115 0.34352 0.0
H624 H 0.50903 0.11769 0.33971 0.0
H625 H 0.5269 0.08601 0.32547 0.0
C626 C 0.61862 0.92285 0.30806 0.0
C627 C 0.64998 0.94543 0.3087 0.0
C628 C 0.58339 0.93819 0.30823 0.0
C629 C 0.57876 0.97641 0.30903 0.0
C630 C 0.61 0.99905 0.30977 0.0
C631 C 0.64536 0.9837 0.30955 0.0
C632 C 0.54123 0.99253 0.30919 0.0
C633 C 0.5302 0.0127 0.31689 0.0
C634 C 0.51571 0.98624 0.30204 0.0
C635 C 0.52624 0.96657 0.29354 0.0
C636 C 0.55646 0.97852 0.28831 0.0
C637 C 0.56641 0.9597 0.28035 0.0
C638 C 0.54619 0.92901 0.27751 0.0
C639 C 0.51591 0.91715 0.28262 0.0
C640 C 0.50587 0.93585 0.2906 0.0
C641 C 0.38966 0.08795 0.31214 0.0
C642 C 0.35886 0.06498 0.31095 0.0
C643 C 0.42522 0.07331 0.31202 0.0
C644 C 0.43071 0.03536 0.31078 0.0
C645 C 0.39998 0.01236 0.30957 0.0
C646 C 0.36435 0.02701 0.30968 0.0
C647 C 0.46855 0.01986 0.31058 0.0
C648 C 0.47966 0.99979 0.30286 0.0
C649 C 0.49409 0.02612 0.31773 0.0
C650 C 0.48346 0.0452 0.3263 0.0
C651 C 0.4534 0.03265 0.33151 0.0
C652 C 0.4434 0.05086 0.33955 0.0
C653 C 0.46341 0.08152 0.3425 0.0
C654 C 0.49353 0.09397 0.33741 0.0
C655 C 0.50362 0.07587 0.32936 0.0
H656 H 0.45562 0.09558 0.34873 0.0
H657 H 0.55393 0.91448 0.27135 0.0
H658 H 0.88647 0.89189 0.56235 0.0
H659 H 0.91221 0.95408 0.56238 0.0
H660 H 0.02199 0.90896 0.56119 0.0
H661 H 0.99637 0.84645 0.56117 0.0
H662 H 0.01556 0.96626 0.57366 0.0
H663 H 0.98447 0.94226 0.5423 0.0
H664 H 0.94362 0.92386 0.52964 0.0
H665 H 0.87017 0.01284 0.53606 0.0
H666 H 0.91033 0.03145 0.54886 0.0
H667 H 0.11177 0.12695 0.56058 0.0
H668 H 0.08513 0.06525 0.56107 0.0
H669 H 0.97593 0.11201 0.56044 0.0
H670 H 0.00253 0.17405 0.5598 0.0
H671 H 0.9812 0.05402 0.54908 0.0
H672 H 0.01185 0.07882 0.58027 0.0
H673 H 0.05179 0.09731 0.5931 0.0
H674 H 0.12484 0.00733 0.58729 0.0
H675 H 0.0856 0.98859 0.57433 0.0
C676 C 0.91611 0.89517 0.56213 0.0
C677 C 0.93942 0.86431 0.56172 0.0
C678 C 0.93075 0.93072 0.56212 0.0
C679 C 0.96898 0.93611 0.56168 0.0
C680 C 0.9924 0.90536 0.5615 0.0
C681 C 0.97774 0.86972 0.56147 0.0
C682 C 0.98439 0.97389 0.56129 0.0
C683 C 0.00846 0.98533 0.56823 0.0
C684 C 0.9743 0.99901 0.55432 0.0
C685 C 0.95023 0.98802 0.5466 0.0
C686 C 0.95946 0.95772 0.54106 0.0
C687 C 0.93645 0.94728 0.53385 0.0
C688 C 0.90427 0.9671 0.53206 0.0
C689 C 0.89508 0.99748 0.53746 0.0
C690 C 0.91797 0.008 0.54469 0.0
C691 C 0.08207 0.12414 0.56054 0.0
C692 C 0.05921 0.15534 0.56019 0.0
C693 C 0.06688 0.08884 0.56086 0.0
C694 C 0.02853 0.08402 0.56093 0.0
C695 C 0.0056 0.11511 0.56043 0.0
C696 C 0.02081 0.15051 0.56008 0.0
C697 C 0.01249 0.04647 0.56145 0.0
C698 C 0.98828 0.03504 0.55453 0.0
C699 C 0.02234 0.02141 0.56846 0.0
C700 C 0.04595 0.03251 0.57627 0.0
C701 C 0.03658 0.06314 0.58168 0.0
C702 C 0.05907 0.07364 0.58898 0.0
C703 C 0.09088 0.05356 0.59099 0.0
C704 C 0.10021 0.02288 0.58571 0.0
C705 C 0.07784 0.01229 0.57839 0.0
H706 H 0.10825 0.06173 0.59665 0.0
H707 H 0.8865 0.95898 0.52647 0.0
H708 H 0.15981 0.4787 0.82343 0.0
H709 H 0.09676 0.50253 0.82426 0.0
H710 H 0.07521 0.46103 0.79714 0.0
H711 H 0.13824 0.438 0.79621 0.0
H712 H 0.04376 0.52495 0.79891 0.0
H713 H 0.04673 0.41449 0.81632 0.0
H714 H 0.0675 0.37052 0.82807 0.0
H715 H 0.04011 0.44807 0.84915 0.0
H716 H 0.01966 0.49281 0.8375 0.0
H717 H 0.84709 0.51656 0.80192 0.0
H718 H 0.911 0.49449 0.80184 0.0
H719 H 0.93668 0.56677 0.82433 0.0
H720 H 0.87316 0.58968 0.82428 0.0
H721 H 0.9652 0.48781 0.8251 0.0
H722 H 0.96107 0.59786 0.80614 0.0
H723 H 0.93574 0.63539 0.79358 0.0
H724 H 0.96178 0.54978 0.7744 0.0
H725 H 0.98672 0.51147 0.78688 0.0
C726 C 0.14177 0.47518 0.8176 0.0
C727 C 0.15394 0.4564 0.80976 0.0
C728 C 0.10565 0.48853 0.81811 0.0
C729 C 0.08097 0.48301 0.81082 0.0
C730 C 0.09363 0.46557 0.80286 0.0
C731 C 0.12971 0.45238 0.80234 0.0
C732 C 0.04174 0.4945 0.81155 0.0
C733 C 0.02661 0.51653 0.80461 0.0
C734 C 0.01916 0.48364 0.81899 0.0
C735 C 0.03205 0.45716 0.82603 0.0
C736 C 0.0455 0.42234 0.82345 0.0
C737 C 0.05713 0.39725 0.8301 0.0
C738 C 0.05514 0.40651 0.83935 0.0
C739 C 0.04163 0.44095 0.84198 0.0
C740 C 0.03002 0.4662 0.83536 0.0
C741 C 0.86625 0.52735 0.80692 0.0
C742 C 0.85525 0.55487 0.81309 0.0
C743 C 0.90269 0.51483 0.80685 0.0
C744 C 0.92846 0.52915 0.81306 0.0
C745 C 0.91713 0.5554 0.8195 0.0
C746 C 0.88093 0.56849 0.81945 0.0
C747 C 0.96768 0.51824 0.81251 0.0
C748 C 0.98264 0.49632 0.81946 0.0
C749 C 0.98987 0.52843 0.80498 0.0
C750 C 0.97538 0.55166 0.79746 0.0
C751 C 0.96109 0.58691 0.79926 0.0
C752 C 0.94686 0.60835 0.79215 0.0
C753 C 0.94705 0.59494 0.7832 0.0
C754 C 0.9616 0.56011 0.78134 0.0
C755 C 0.9758 0.53853 0.78843 0.0
H756 H 0.93601 0.61157 0.77771 0.0
H757 H 0.06395 0.38693 0.84448 0.0
H758 H 0.61333 0.6199 0.0532 0.0
H759 H 0.58801 0.55754 0.05339 0.0
H760 H 0.47991 0.60144 0.05894 0.0
H761 H 0.50517 0.66404 0.05883 0.0
H762 H 0.49666 0.5439 0.07013 0.0
H763 H 0.50102 0.56922 0.03792 0.0
H764 H 0.53024 0.5881 0.02344 0.0
H765 H 0.60752 0.49906 0.02572 0.0
H766 H 0.57907 0.47995 0.04029 0.0
H767 H 0.39096 0.38442 0.06141 0.0
H768 H 0.4182 0.44585 0.06095 0.0
H769 H 0.52447 0.39838 0.05504 0.0
H770 H 0.49719 0.33657 0.05539 0.0
H771 H 0.51021 0.4571 0.04415 0.0
H772 H 0.50593 0.43106 0.07615 0.0
H773 H 0.47755 0.41204 0.09071 0.0
H774 H 0.40132 0.50216 0.08898 0.0
H775 H 0.42891 0.52142 0.07433 0.0
C776 C 0.58412 0.61631 0.0544 0.0
C777 C 0.5612 0.64686 0.05598 0.0
C778 C 0.56968 0.58066 0.05449 0.0
C779 C 0.53202 0.57485 0.05611 0.0
C780 C 0.50904 0.60532 0.05767 0.0
C781 C 0.52347 0.64105 0.05757 0.0
C782 C 0.51682 0.53693 0.05639 0.0
C783 C 0.49914 0.52508 0.0644 0.0
C784 C 0.52109 0.51204 0.04902 0.0
C785 C 0.53813 0.52338 0.04024 0.0
C786 C 0.52443 0.55384 0.03537 0.0
C787 C 0.54082 0.56455 0.02714 0.0
C788 C 0.57078 0.54485 0.02368 0.0
C789 C 0.58434 0.51433 0.02842 0.0
C790 C 0.56807 0.50352 0.03666 0.0
C791 C 0.42016 0.387 0.06003 0.0
C792 C 0.44199 0.35566 0.05847 0.0
C793 C 0.43572 0.42214 0.05981 0.0
C794 C 0.47345 0.42669 0.05807 0.0
C795 C 0.4953 0.39547 0.05642 0.0
C796 C 0.47973 0.36021 0.05665 0.0
C797 C 0.48982 0.46415 0.05786 0.0
C798 C 0.50776 0.4759 0.04988 0.0
C799 C 0.48591 0.48893 0.06527 0.0
C800 C 0.46928 0.47747 0.07409 0.0
C801 C 0.48292 0.44665 0.07883 0.0
C802 C 0.46701 0.43585 0.08711 0.0
C803 C 0.43759 0.45582 0.09076 0.0
C804 C 0.42408 0.48669 0.08614 0.0
C805 C 0.43987 0.49758 0.07786 0.0
H806 H 0.42531 0.44742 0.09717 0.0
H807 H 0.58343 0.55319 0.01731 0.0
H808 H 0.38424 0.38655 0.93728 0.0
H809 H 0.44622 0.41268 0.93769 0.0
H810 H 0.40022 0.5219 0.93977 0.0
H811 H 0.33796 0.4959 0.93922 0.0
H812 H 0.45563 0.52008 0.92761 0.0
H813 H 0.43722 0.47893 0.95841 0.0
H814 H 0.42154 0.43439 0.97053 0.0
H815 H 0.51039 0.3644 0.96198 0.0
H816 H 0.52629 0.40829 0.94972 0.0
H817 H 0.61857 0.61296 0.94054 0.0
H818 H 0.55688 0.58615 0.94068 0.0
H819 H 0.60363 0.47755 0.93782 0.0
H820 H 0.66569 0.50426 0.93777 0.0
H821 H 0.54808 0.47884 0.9504 0.0
H822 H 0.56635 0.52007 0.91959 0.0
H823 H 0.58213 0.56478 0.90753 0.0
H824 H 0.49342 0.63481 0.91615 0.0
H825 H 0.47744 0.59074 0.92837 0.0
C826 C 0.38729 0.41614 0.93784 0.0
C827 C 0.35621 0.43918 0.93825 0.0
C828 C 0.42276 0.43103 0.93812 0.0
C829 C 0.4279 0.46923 0.93888 0.0
C830 C 0.3969 0.49234 0.9392 0.0
C831 C 0.36136 0.47745 0.93891 0.0
C832 C 0.46564 0.48503 0.93923 0.0
C833 C 0.47566 0.51145 0.93268 0.0
C834 C 0.4921 0.47311 0.9457 0.0
C835 C 0.48272 0.44674 0.95309 0.0
C836 C 0.45324 0.45391 0.95907 0.0
C837 C 0.44434 0.4288 0.96597 0.0
C838 C 0.46489 0.39654 0.96701 0.0
C839 C 0.49446 0.38938 0.96116 0.0
C840 C 0.50345 0.41437 0.95424 0.0
C841 C 0.61577 0.58335 0.93997 0.0
C842 C 0.64698 0.56071 0.93909 0.0
C843 C 0.58047 0.56808 0.94002 0.0
C844 C 0.57561 0.5299 0.93914 0.0
C845 C 0.60676 0.50711 0.93848 0.0
C846 C 0.64216 0.52239 0.93843 0.0
C847 C 0.53798 0.51392 0.9388 0.0
C848 C 0.528 0.48746 0.94534 0.0
C849 C 0.51153 0.52582 0.93233 0.0
C850 C 0.52092 0.55226 0.92495 0.0
C851 C 0.55038 0.54513 0.91896 0.0
C852 C 0.55934 0.57034 0.91209 0.0
C853 C 0.53885 0.60266 0.91109 0.0
C854 C 0.50929 0.60978 0.91694 0.0
C855 C 0.50025 0.58468 0.92384 0.0
H856 H 0.54583 0.62214 0.90576 0.0
H857 H 0.45796 0.37714 0.97235 0.0
H858 H 0.61395 0.87924 0.19402 0.0
H859 H 0.58647 0.94035 0.19528 0.0
H860 H 0.47816 0.89289 0.19234 0.0
H861 H 0.50566 0.83146 0.19093 0.0
H862 H 0.48643 0.95146 0.18144 0.0
H863 H 0.50862 0.92519 0.21296 0.0
H864 H 0.54509 0.9064 0.22639 0.0
H865 H 0.61823 0.99779 0.22223 0.0
H866 H 0.58257 0.01681 0.20867 0.0
H867 H 0.38915 0.11446 0.19196 0.0
H868 H 0.41401 0.05207 0.19284 0.0
H869 H 0.52407 0.09609 0.19485 0.0
H870 H 0.49925 0.15884 0.19408 0.0
H871 H 0.51337 0.03868 0.20668 0.0
H872 H 0.49303 0.06286 0.17478 0.0
H873 H 0.45686 0.08155 0.16129 0.0
H874 H 0.38041 0.99351 0.16622 0.0
H875 H 0.41587 0.9746 0.17982 0.0
C876 C 0.58425 0.88174 0.1937 0.0
C877 C 0.56193 0.85055 0.19236 0.0
C878 C 0.56856 0.9167 0.19447 0.0
C879 C 0.53022 0.9212 0.194 0.0
C880 C 0.50782 0.89004 0.19275 0.0
C881 C 0.52353 0.85498 0.19197 0.0
C882 C 0.51377 0.95863 0.19438 0.0
C883 C 0.49179 0.97029 0.18704 0.0
C884 C 0.52158 0.98356 0.20157 0.0
C885 C 0.54304 0.97228 0.20975 0.0
C886 C 0.53263 0.94115 0.21486 0.0
C887 C 0.55313 0.93049 0.22251 0.0
C888 C 0.58391 0.95093 0.22517 0.0
C889 C 0.59432 0.98203 0.22017 0.0
C890 C 0.57397 0.99278 0.21251 0.0
C891 C 0.41865 0.11091 0.19262 0.0
C892 C 0.44229 0.14156 0.19289 0.0
C893 C 0.43282 0.07521 0.1931 0.0
C894 C 0.47093 0.06939 0.19379 0.0
C895 C 0.49457 0.09995 0.1943 0.0
C896 C 0.48038 0.13576 0.19383 0.0
C897 C 0.48608 0.03139 0.19374 0.0
C898 C 0.50787 0.01971 0.20111 0.0
C899 C 0.47813 0.00638 0.18658 0.0
C900 C 0.4569 0.01755 0.17837 0.0
C901 C 0.46835 0.04766 0.17303 0.0
C902 C 0.448 0.05826 0.16535 0.0
C903 C 0.4163 0.03879 0.16291 0.0
C904 C 0.40494 0.0086 0.16812 0.0
C905 C 0.42517 0.99791 0.17581 0.0
H906 H 0.40058 0.04704 0.15697 0.0
H907 H 0.59973 0.94264 0.23109 0.0
H908 H 0.87879 0.88626 0.44102 0.0
H909 H 0.94046 0.91278 0.44196 0.0
H910 H 0.89432 0.02196 0.43992 0.0
H911 H 0.83233 0.99548 0.43885 0.0
H912 H 0.95336 0.0132 0.42873 0.0
H913 H 0.92533 0.98944 0.46027 0.0
H914 H 0.90494 0.95094 0.4732 0.0
H915 H 0.9954 0.87706 0.46864 0.0
H916 H 0.01606 0.91486 0.45559 0.0
H917 H 0.11337 0.11203 0.44073 0.0
H918 H 0.05143 0.08583 0.44102 0.0
H919 H 0.09743 0.97657 0.4429 0.0
H920 H 0.15973 0.00272 0.4427 0.0
H921 H 0.03846 0.98533 0.45436 0.0
H922 H 0.06593 0.00712 0.42283 0.0
H923 H 0.08588 0.04339 0.40947 0.0
H924 H 0.99645 0.11886 0.41367 0.0
H925 H 0.97627 0.08333 0.42715 0.0
C926 C 0.88172 0.91593 0.4408 0.0
C927 C 0.85072 0.93882 0.43988 0.0
C928 C 0.917 0.93105 0.44138 0.0
C929 C 0.92197 0.96937 0.44111 0.0
C930 C 0.89107 0.99232 0.44016 0.0
C931 C 0.8557 0.97718 0.43958 0.0
C932 C 0.95954 0.98535 0.44163 0.0
C933 C 0.97175 0.00763 0.43441 0.0
C934 C 0.98389 0.97712 0.44892 0.0
C935 C 0.97206 0.95483 0.4569 0.0
C936 C 0.94077 0.96488 0.46199 0.0
C937 C 0.92917 0.94319 0.46935 0.0
C938 C 0.9488 0.91151 0.47172 0.0
C939 C 0.9802 0.90158 0.46678 0.0
C940 C 0.99189 0.92316 0.45941 0.0
C941 C 0.11035 0.08242 0.44125 0.0
C942 C 0.14142 0.05939 0.44164 0.0
C943 C 0.07492 0.06749 0.44139 0.0
C944 C 0.06982 0.02922 0.44187 0.0
C945 C 0.10077 0.00618 0.44251 0.0
C946 C 0.13631 0.02113 0.44236 0.0
C947 C 0.03216 0.01338 0.44148 0.0
C948 C 0.01998 0.99106 0.44871 0.0
C949 C 0.00784 0.02139 0.43418 0.0
C950 C 0.01982 0.04277 0.42606 0.0
C951 C 0.0507 0.03163 0.42095 0.0
C952 C 0.06202 0.05202 0.41335 0.0
C953 C 0.04251 0.08347 0.41074 0.0
C954 C 0.01157 0.09453 0.41571 0.0
C955 C 1.00016 0.07426 0.42333 0.0
H956 H 0.05131 0.09921 0.40485 0.0
H957 H 0.93972 0.8947 0.4774 0.0
H958 H 0.11068 0.37657 0.69179 0.0
H959 H 0.08323 0.43787 0.69257 0.0
H960 H 0.97466 0.38959 0.69248 0.0
H961 H 0.00205 0.32792 0.69164 0.0
H962 H 0.98008 0.44728 0.6806 0.0
H963 H 0.00852 0.42415 0.71191 0.0
H964 H 0.04771 0.40586 0.7249 0.0
H965 H 0.12135 0.4955 0.71919 0.0
H966 H 0.08282 0.51407 0.70608 0.0
H967 H 0.88568 0.61136 0.69195 0.0
H968 H 0.91068 0.54901 0.69286 0.0
H969 H 0.02108 0.59284 0.69224 0.0
H970 H 0.99618 0.65555 0.69139 0.0
H971 H 0.013 0.53667 0.70493 0.0
H972 H 0.98486 0.55804 0.67323 0.0
H973 H 0.94522 0.57565 0.66027 0.0
H974 H 0.87012 0.48828 0.6669 0.0
H975 H 0.90907 0.47047 0.68 0.0
C976 C 0.08095 0.37895 0.69196 0.0
C977 C 0.05849 0.34744 0.69167 0.0
C978 C 0.06531 0.41401 0.69245 0.0
C979 C 0.02692 0.41828 0.69268 0.0
C980 C 0.00437 0.38688 0.69233 0.0
C981 C 0.02003 0.35171 0.69187 0.0
C982 C 0.01048 0.45564 0.69307 0.0
C983 C 0.98678 0.46662 0.68601 0.0
C984 C 0.01988 0.4811 0.70002 0.0
C985 C 0.04295 0.47031 0.70796 0.0
C986 C 0.03322 0.43982 0.71338 0.0
C987 C 0.05529 0.42941 0.72077 0.0
C988 C 0.08707 0.44943 0.72285 0.0
C989 C 0.09675 0.47999 0.71756 0.0
C990 C 0.07477 0.4905 0.71016 0.0
C991 C 0.91529 0.60778 0.69205 0.0
C992 C 0.939 0.63833 0.69153 0.0
C993 C 0.92952 0.57212 0.69255 0.0
C994 C 0.96772 0.56628 0.69251 0.0
C995 C 0.9915 0.59677 0.69227 0.0
C996 C 0.97726 0.63253 0.69174 0.0
C997 C 0.98273 0.52829 0.69245 0.0
C998 C 0.00618 0.51724 0.69956 0.0
C999 C 0.97302 0.50267 0.68556 0.0
C1000 C 0.94969 0.51316 0.67765 0.0
C1001 C 0.95975 0.54276 0.67197 0.0
C1002 C 0.93743 0.55275 0.66459 0.0
C1003 C 0.90512 0.53316 0.66278 0.0
C1004 C 0.89513 0.50346 0.66833 0.0
C1005 C 0.91733 0.49339 0.67572 0.0
H1006 H 0.88788 0.54093 0.65706 0.0
H1007 H 0.10414 0.44129 0.72857 0.0
H1008 H 0.21699 0.098 0.34153 0.0
H1009 H 0.21204 0.11637 0.35747 0.0
H1010 H 0.26272 0.22082 0.35119 0.0
H1011 H 0.26762 0.20249 0.33502 0.0
H1012 H 0.29388 0.18456 0.3664 0.0
H1013 H 0.17596 0.22339 0.35679 0.0
H1014 H 0.11655 0.21987 0.34869 0.0
H1015 H 0.08599 0.1255 0.36467 0.0
H1016 H 0.14545 0.12806 0.37277 0.0
H1017 H 0.26251 0.19874 0.41525 0.0
H1018 H 0.2599 0.21789 0.39912 0.0
H1019 H 0.21034 0.11371 0.39206 0.0
H1020 H 0.21307 0.0945 0.40799 0.0
H1021 H 0.17646 0.17319 0.38353 0.0
H1022 H 0.30052 0.12566 0.38951 0.0
H1023 H 0.36073 0.12666 0.39732 0.0
H1024 H 0.37929 0.23721 0.38795 0.0
H1025 H 0.3189 0.23698 0.38018 0.0
C1026 C 0.22687 0.12501 0.3435 0.0
C1027 C 0.24272 0.14882 0.33704 0.0
C1028 C 0.22381 0.13557 0.35261 0.0
C1029 C 0.23659 0.17012 0.35548 0.0
C1030 C 0.25245 0.19414 0.34907 0.0
C1031 C 0.25517 0.18368 0.33987 0.0
C1032 C 0.23492 0.17942 0.36533 0.0
C1033 C 0.26811 0.1833 0.37014 0.0
C1034 C 0.2013 0.17754 0.37019 0.0
C1035 C 0.16529 0.17591 0.36538 0.0
C1036 C 0.15668 0.20174 0.35854 0.0
C1037 C 0.12297 0.19993 0.35395 0.0
C1038 C 0.09752 0.17247 0.35616 0.0
C1039 C 0.10572 0.14679 0.36297 0.0
C1040 C 0.13941 0.14846 0.36758 0.0
C1041 C 0.2508 0.18016 0.41024 0.0
C1042 C 0.2382 0.14507 0.41284 0.0
C1043 C 0.24936 0.19109 0.40106 0.0
C1044 C 0.23494 0.16717 0.39442 0.0
C1045 C 0.22139 0.13265 0.39708 0.0
C1046 C 0.22319 0.12162 0.40618 0.0
C1047 C 0.23548 0.17645 0.38457 0.0
C1048 C 0.20206 0.17599 0.37976 0.0
C1049 C 0.26884 0.18142 0.37972 0.0
C1050 C 0.30504 0.18151 0.38438 0.0
C1051 C 0.31731 0.15029 0.38919 0.0
C1052 C 0.35148 0.15069 0.39359 0.0
C1053 C 0.37376 0.18203 0.39316 0.0
C1054 C 0.36195 0.21299 0.3883 0.0
C1055 C 0.32777 0.21275 0.3839 0.0
H1056 H 0.40021 0.18228 0.39656 0.0
H1057 H 0.07144 0.17111 0.35259 0.0
H1058 H 0.90339 0.71797 0.59049 0.0
H1059 H 0.88399 0.71078 0.60629 0.0
H1060 H 0.78053 0.76363 0.60012 0.0
H1061 H 0.79996 0.77089 0.58409 0.0
H1062 H 0.81572 0.79233 0.61558 0.0
H1063 H 0.77699 0.67546 0.60523 0.0
H1064 H 0.78061 0.61695 0.59674 0.0
H1065 H 0.87498 0.58484 0.61251 0.0
H1066 H 0.87225 0.64336 0.62103 0.0
H1067 H 0.80122 0.75874 0.66409 0.0
H1068 H 0.78205 0.75637 0.64798 0.0
H1069 H 0.88547 0.70527 0.64091 0.0
H1070 H 0.90463 0.70757 0.65685 0.0
H1071 H 0.82678 0.67324 0.63199 0.0
H1072 H 0.87422 0.79676 0.63873 0.0
H1073 H 0.87313 0.8562 0.64689 0.0
H1074 H 0.76263 0.87554 0.63759 0.0
H1075 H 0.76296 0.81594 0.62946 0.0
C1076 C 0.87636 0.72785 0.59245 0.0
C1077 C 0.85319 0.74507 0.58607 0.0
C1078 C 0.8652 0.72347 0.60148 0.0
C1079 C 0.83063 0.73623 0.60435 0.0
C1080 C 0.8072 0.75334 0.598 0.0
C1081 C 0.81828 0.75743 0.58888 0.0
C1082 C 0.8209 0.73351 0.61415 0.0
C1083 C 0.81687 0.76619 0.61916 0.0
C1084 C 0.82269 0.69941 0.61881 0.0
C1085 C 0.8244 0.6639 0.61377 0.0
C1086 C 0.79863 0.65602 0.60686 0.0
C1087 C 0.80051 0.62282 0.60205 0.0
C1088 C 0.82798 0.59718 0.60409 0.0
C1089 C 0.85365 0.60469 0.61096 0.0
C1090 C 0.85189 0.63785 0.6158 0.0
C1091 C 0.81961 0.74668 0.65909 0.0
C1092 C 0.85451 0.73359 0.66169 0.0
C1093 C 0.80866 0.74536 0.64991 0.0
C1094 C 0.83241 0.73073 0.64326 0.0
C1095 C 0.86665 0.71651 0.64594 0.0
C1096 C 0.87767 0.71807 0.65504 0.0
C1097 C 0.82343 0.73216 0.63339 0.0
C1098 C 0.82404 0.6992 0.62839 0.0
C1099 C 0.81854 0.76598 0.62874 0.0
C1100 C 0.81842 0.80174 0.63361 0.0
C1101 C 0.84959 0.81357 0.63849 0.0
C1102 C 0.84913 0.84729 0.6431 0.0
C1103 C 0.81777 0.86957 0.64279 0.0
C1104 C 0.78685 0.85821 0.63785 0.0
C1105 C 0.78716 0.82447 0.63324 0.0
H1106 H 0.81747 0.89568 0.64636 0.0
H1107 H 0.82934 0.57148 0.60036 0.0
H1108 H 0.19403 0.32074 0.83424 0.0
H1109 H 0.18919 0.30213 0.85034 0.0
H1110 H 0.29846 0.34432 0.85534 0.0
H1111 H 0.30345 0.36272 0.83937 0.0
H1112 H 0.28691 0.28168 0.86486 0.0
H1113 H 0.22502 0.39724 0.85927 0.0
H1114 H 0.17964 0.43862 0.85208 0.0
H1115 H 0.09139 0.37078 0.862 0.0
H1116 H 0.13638 0.32865 0.86915 0.0
H1117 H 0.29678 0.37727 0.90665 0.0
H1118 H 0.29199 0.35671 0.89079 0.0
H1119 H 0.19709 0.29093 0.89769 0.0
H1120 H 0.20254 0.31058 0.91376 0.0
H1121 H 0.19105 0.34827 0.88249 0.0
H1122 H 0.25967 0.24268 0.89169 0.0
H1123 H 0.30961 0.20938 0.89956 0.0
H1124 H 0.38999 0.26622 0.88329 0.0
H1125 H 0.34058 0.30032 0.87542 0.0
C1126 C 0.21723 0.32533 0.83875 0.0
C1127 C 0.24898 0.34346 0.8356 0.0
C1128 C 0.21441 0.31478 0.84794 0.0
C1129 C 0.24336 0.32213 0.85405 0.0
C1130 C 0.27583 0.33828 0.85075 0.0
C1131 C 0.27856 0.34899 0.84162 0.0
C1132 C 0.23906 0.31658 0.86403 0.0
C1133 C 0.26577 0.29594 0.86872 0.0
C1134 C 0.21111 0.33474 0.86905 0.0
C1135 C 0.18404 0.35952 0.86462 0.0
C1136 C 0.19595 0.39091 0.85982 0.0
C1137 C 0.17032 0.41454 0.85578 0.0
C1138 C 0.13268 0.40728 0.85656 0.0
C1139 C 0.12058 0.37631 0.86138 0.0
C1140 C 0.14612 0.35253 0.86543 0.0
C1141 C 0.2753 0.35791 0.90482 0.0
C1142 C 0.25001 0.34549 0.91139 0.0
C1143 C 0.27267 0.34611 0.89578 0.0
C1144 C 0.2443 0.32224 0.89311 0.0
C1145 C 0.21931 0.30917 0.89967 0.0
C1146 C 0.2225 0.3203 0.90881 0.0
C1147 C 0.23942 0.31419 0.88329 0.0
C1148 C 0.2112 0.33262 0.87862 0.0
C1149 C 0.26646 0.29473 0.8783 0.0
C1150 C 0.29636 0.2742 0.88299 0.0
C1151 C 0.288 0.24831 0.88984 0.0
C1152 C 0.31623 0.22924 0.89429 0.0
C1153 C 0.35295 0.23571 0.89193 0.0
C1154 C 0.36153 0.26123 0.88511 0.0
C1155 C 0.33341 0.28039 0.88064 0.0
H1156 H 0.37476 0.22091 0.89539 0.0
H1157 H 0.11291 0.4258 0.85349 0.0
H1158 H 0.67556 0.79602 0.08428 0.0
H1159 H 0.68761 0.79477 0.10076 0.0
H1160 H 0.64028 0.68576 0.10232 0.0
H1161 H 0.62617 0.68818 0.08603 0.0
H1162 H 0.60938 0.72417 0.11402 0.0
H1163 H 0.73562 0.70622 0.10653 0.0
H1164 H 0.79495 0.71827 0.0989 0.0
H1165 H 0.80065 0.8247 0.1116 0.0
H1166 H 0.74108 0.81352 0.11922 0.0
H1167 H 0.69301 0.72115 0.16226 0.0
H1168 H 0.70474 0.7181 0.14574 0.0
H1169 H 0.61503 0.79361 0.14099 0.0
H1170 H 0.60257 0.79588 0.15736 0.0
H1171 H 0.71949 0.76505 0.13134 0.0
H1172 H 0.56227 0.76141 0.1243 0.0
H1173 H 0.50516 0.74265 0.13216 0.0
H1174 H 0.56618 0.66554 0.14847 0.0
H1175 H 0.62353 0.68342 0.1406 0.0
C1176 C 0.66854 0.77157 0.08815 0.0
C1177 C 0.6497 0.74233 0.08398 0.0
C1178 C 0.67558 0.77073 0.09755 0.0
C1179 C 0.66486 0.74013 0.10283 0.0
C1180 C 0.64849 0.70984 0.09845 0.0
C1181 C 0.64051 0.71116 0.08914 0.0
C1182 C 0.66616 0.74135 0.11298 0.0
C1183 C 0.63369 0.73283 0.11775 0.0
C1184 C 0.69785 0.75228 0.11795 0.0
C1185 C 0.73371 0.75913 0.11339 0.0
C1186 C 0.74937 0.73231 0.10765 0.0
C1187 C 0.78308 0.73897 0.10333 0.0
C1188 C 0.80152 0.77226 0.10475 0.0
C1189 C 0.78632 0.79894 0.11051 0.0
C1190 C 0.75261 0.79243 0.11483 0.0
C1191 C 0.67625 0.73753 0.15768 0.0
C1192 C 0.64649 0.75823 0.16104 0.0
C1193 C 0.68306 0.73588 0.14827 0.0
C1194 C 0.66031 0.7551 0.14215 0.0
C1195 C 0.63247 0.77804 0.14559 0.0
C1196 C 0.62536 0.77929 0.15494 0.0
C1197 C 0.66269 0.7484 0.13219 0.0
C1198 C 0.69557 0.75602 0.12751 0.0
C1199 C 0.63176 0.73549 0.12727 0.0
C1200 C 0.59723 0.72401 0.13191 0.0
C1201 C 0.56346 0.74032 0.12952 0.0
C1202 C 0.53105 0.72986 0.13399 0.0
C1203 C 0.53206 0.703 0.14083 0.0
C1204 C 0.56545 0.68642 0.14319 0.0
C1205 C 0.59792 0.69672 0.13873 0.0
H1206 H 0.50695 0.69498 0.14429 0.0
H1207 H 0.82761 0.77736 0.1014 0.0
H1208 H 0.70432 0.6053 0.8406 0.0
H1209 H 0.69963 0.62721 0.85627 0.0
H1210 H 0.76489 0.72261 0.84941 0.0
H1211 H 0.76974 0.70059 0.83355 0.0
H1212 H 0.79052 0.68675 0.86459 0.0
H1213 H 0.6769 0.73622 0.85517 0.0
H1214 H 0.61689 0.73862 0.84732 0.0
H1215 H 0.57717 0.64974 0.86398 0.0
H1216 H 0.63711 0.64636 0.87184 0.0
H1217 H 0.76595 0.70362 0.91342 0.0
H1218 H 0.76166 0.72427 0.89743 0.0
H1219 H 0.70359 0.62443 0.89051 0.0
H1220 H 0.7081 0.60365 0.9063 0.0
H1221 H 0.67377 0.68774 0.88222 0.0
H1222 H 0.7935 0.62814 0.88754 0.0
H1223 H 0.85399 0.62364 0.89514 0.0
H1224 H 0.88152 0.73252 0.88592 0.0
H1225 H 0.82092 0.73779 0.87836 0.0
C1226 C 0.71731 0.63119 0.84238 0.0
C1227 C 0.73749 0.6512 0.83588 0.0
C1228 C 0.71435 0.64385 0.85133 0.0
C1229 C 0.73149 0.6768 0.85398 0.0
C1230 C 0.75121 0.69728 0.84747 0.0
C1231 C 0.75392 0.68471 0.83844 0.0
C1232 C 0.73125 0.68728 0.86376 0.0
C1233 C 0.76499 0.68827 0.86843 0.0
C1234 C 0.69794 0.68911 0.86876 0.0
C1235 C 0.66162 0.69103 0.86409 0.0
C1236 C 0.65546 0.71703 0.85713 0.0
C1237 C 0.62143 0.71858 0.85268 0.0
C1238 C 0.59324 0.69435 0.85515 0.0
C1239 C 0.59902 0.66853 0.86208 0.0
C1240 C 0.63301 0.66685 0.86655 0.0
C1241 C 0.75192 0.68639 0.90848 0.0
C1242 C 0.73764 0.65192 0.91105 0.0
C1243 C 0.74948 0.6982 0.89938 0.0
C1244 C 0.73232 0.67582 0.89281 0.0
C1245 C 0.71675 0.64217 0.89549 0.0
C1246 C 0.71959 0.63021 0.9045 0.0
C1247 C 0.73288 0.68524 0.88298 0.0
C1248 C 0.69922 0.6879 0.87833 0.0
C1249 C 0.76621 0.68681 0.878 0.0
C1250 C 0.80257 0.68356 0.88251 0.0
C1251 C 0.81235 0.65122 0.8872 0.0
C1252 C 0.84665 0.64851 0.89149 0.0
C1253 C 0.87153 0.67783 0.89104 0.0
C1254 C 0.86218 0.70987 0.88628 0.0
C1255 C 0.82787 0.71274 0.882 0.0
H1256 H 0.89809 0.67567 0.89436 0.0
H1257 H 0.56692 0.69559 0.85169 0.0
H1258 H 0.41654 0.22179 0.15839 0.0
H1259 H 0.40206 0.22647 0.1422 0.0
H1260 H 0.29413 0.26851 0.14871 0.0
H1261 H 0.30843 0.26354 0.16513 0.0
H1262 H 0.29697 0.21669 0.13325 0.0
H1263 H 0.35084 0.32929 0.14307 0.0
H1264 H 0.39522 0.36759 0.15153 0.0
H1265 H 0.48401 0.32296 0.13561 0.0
H1266 H 0.44017 0.28377 0.12718 0.0
H1267 H 0.30543 0.26594 0.0846 0.0
H1268 H 0.29261 0.26904 0.10112 0.0
H1269 H 0.40437 0.23572 0.10677 0.0
H1270 H 0.41732 0.233 0.0905 0.0
H1271 H 0.38491 0.29634 0.1164 0.0
H1272 H 0.33119 0.1762 0.10877 0.0
H1273 H 0.28681 0.1363 0.10071 0.0
H1274 H 0.19687 0.19677 0.11245 0.0
H1275 H 0.24078 0.2373 0.1205 0.0
C1276 C 0.38954 0.23168 0.15641 0.0
C1277 C 0.36377 0.24275 0.16302 0.0
C1278 C 0.3813 0.23428 0.14715 0.0
C1279 C 0.34726 0.24834 0.14427 0.0
C1280 C 0.32058 0.25768 0.15082 0.0
C1281 C 0.32882 0.25493 0.16017 0.0
C1282 C 0.34154 0.25555 0.13442 0.0
C1283 C 0.31554 0.23475 0.12956 0.0
C1284 C 0.36571 0.27924 0.12963 0.0
C1285 C 0.39218 0.30349 0.13451 0.0
C1286 C 0.37984 0.32751 0.1414 0.0
C1287 C 0.40493 0.34939 0.1462 0.0
C1288 C 0.44245 0.34774 0.14411 0.0
C1289 C 0.45493 0.32425 0.13721 0.0
C1290 C 0.42996 0.30221 0.13241 0.0
C1291 C 0.32707 0.25905 0.0894 0.0
C1292 C 0.36243 0.24945 0.08627 0.0
C1293 C 0.31972 0.2608 0.09881 0.0
C1294 C 0.34762 0.25276 0.10516 0.0
C1295 C 0.38255 0.24237 0.102 0.0
C1296 C 0.38987 0.24074 0.09268 0.0
C1297 C 0.34173 0.25596 0.11516 0.0
C1298 C 0.36558 0.27901 0.12007 0.0
C1299 C 0.31546 0.23453 0.11994 0.0
C1300 C 0.28922 0.21003 0.11514 0.0
C1301 C 0.30195 0.18115 0.10957 0.0
C1302 C 0.27689 0.15839 0.10502 0.0
C1303 C 0.23905 0.16407 0.10604 0.0
C1304 C 0.22619 0.19245 0.11165 0.0
C1305 C 0.25114 0.2153 0.11621 0.0
H1306 H 0.21969 0.14643 0.10251 0.0
H1307 H 0.46186 0.36464 0.14784 0.0
H1308 H 0.74335 0.80128 0.33235 0.0
H1309 H 0.747 0.78142 0.34842 0.0
H1310 H 0.78559 0.88951 0.35605 0.0
H1311 H 0.78169 0.90944 0.34019 0.0
H1312 H 0.82552 0.832 0.36422 0.0
H1313 H 0.69744 0.86911 0.35837 0.0
H1314 H 0.63759 0.8628 0.35054 0.0
H1315 H 0.62944 0.75063 0.35964 0.0
H1316 H 0.68952 0.7562 0.36743 0.0
H1317 H 0.78008 0.90489 0.40589 0.0
H1318 H 0.78609 0.88598 0.39003 0.0
H1319 H 0.74272 0.77868 0.39672 0.0
H1320 H 0.73663 0.79763 0.41282 0.0
H1321 H 0.70946 0.81098 0.38135 0.0
H1322 H 0.82992 0.7821 0.39104 0.0
H1323 H 0.88883 0.79042 0.39915 0.0
H1324 H 0.91211 0.88643 0.38302 0.0
H1325 H 0.85309 0.87908 0.3749 0.0
C1326 C 0.75281 0.82061 0.33748 0.0
C1327 C 0.76204 0.85694 0.33505 0.0
C1328 C 0.75488 0.80926 0.34662 0.0
C1329 C 0.76662 0.83403 0.35339 0.0
C1330 C 0.77668 0.86993 0.35091 0.0
C1331 C 0.7742 0.88135 0.34185 0.0
C1332 C 0.76695 0.82401 0.36319 0.0
C1333 C 0.80027 0.82704 0.36798 0.0
C1334 C 0.73416 0.81615 0.36803 0.0
C1335 C 0.69813 0.81289 0.36336 0.0
C1336 C 0.68302 0.84301 0.35863 0.0
C1337 C 0.64904 0.83959 0.35422 0.0
C1338 C 0.62979 0.80629 0.35456 0.0
C1339 C 0.64443 0.77637 0.35935 0.0
C1340 C 0.67843 0.77964 0.36377 0.0
C1341 C 0.772 0.87716 0.40403 0.0
C1342 C 0.75786 0.85272 0.41059 0.0
C1343 C 0.77569 0.8663 0.39497 0.0
C1344 C 0.76535 0.83076 0.39223 0.0
C1345 C 0.75113 0.80613 0.39873 0.0
C1346 C 0.74772 0.81695 0.4079 0.0
C1347 C 0.7678 0.82102 0.38242 0.0
C1348 C 0.73505 0.81433 0.37761 0.0
C1349 C 0.80118 0.82549 0.37755 0.0
C1350 C 0.83696 0.83001 0.38236 0.0
C1351 C 0.84749 0.80511 0.38925 0.0
C1352 C 0.88093 0.80965 0.39385 0.0
C1353 C 0.9042 0.83893 0.3916 0.0
C1354 C 0.89408 0.86372 0.38474 0.0
C1355 C 0.86066 0.85933 0.38012 0.0
H1356 H 0.93007 0.84241 0.39517 0.0
H1357 H 0.60348 0.8037 0.35115 0.0
H1358 H 0.08704 0.23477 0.65795 0.0
H1359 H 0.10439 0.23127 0.64193 0.0
H1360 H 0.21896 0.2422 0.64924 0.0
H1361 H 0.20161 0.24573 0.66551 0.0
H1362 H 0.19699 0.28806 0.63455 0.0
H1363 H 0.19273 0.16126 0.64204 0.0
H1364 H 0.16898 0.10357 0.64872 0.0
H1365 H 0.07199 0.11141 0.63206 0.0
H1366 H 0.09476 0.16944 0.6254 0.0
H1367 H 0.20095 0.25985 0.5847 0.0
H1368 H 0.21822 0.25223 0.60088 0.0
H1369 H 0.10343 0.24224 0.60807 0.0
H1370 H 0.08614 0.25003 0.59214 0.0
H1371 H 0.14844 0.18639 0.61537 0.0
H1372 H 0.14613 0.32079 0.61156 0.0
H1373 H 0.16853 0.37884 0.60479 0.0
H1374 H 0.27775 0.35573 0.61448 0.0
H1375 H 0.25601 0.29726 0.62121 0.0
C1376 C 0.11599 0.23635 0.65619 0.0
C1377 C 0.14299 0.24046 0.66299 0.0
C1378 C 0.12588 0.23413 0.64703 0.0
C1379 C 0.16299 0.23589 0.64442 0.0
C1380 C 0.19019 0.24049 0.65115 0.0
C1381 C 0.18026 0.24247 0.6604 0.0
C1382 C 0.17224 0.2341 0.63457 0.0
C1383 C 0.18743 0.26536 0.63036 0.0
C1384 C 0.15971 0.20448 0.62911 0.0
C1385 C 0.14554 0.16979 0.63321 0.0
C1386 C 0.1662 0.15086 0.63985 0.0
C1387 C 0.15292 0.11806 0.64363 0.0
C1388 C 0.11905 0.10381 0.64079 0.0
C1389 C 0.09827 0.12244 0.63422 0.0
C1390 C 0.11139 0.15526 0.63044 0.0
C1391 C 0.17952 0.25617 0.58976 0.0
C1392 C 0.14221 0.25552 0.58717 0.0
C1393 C 0.1894 0.25182 0.59897 0.0
C1394 C 0.16206 0.24647 0.60563 0.0
C1395 C 0.12494 0.24606 0.60302 0.0
C1396 C 0.11511 0.2507 0.59391 0.0
C1397 C 0.17104 0.24115 0.61541 0.0
C1398 C 0.15932 0.20845 0.61959 0.0
C1399 C 0.18664 0.26939 0.62081 0.0
C1400 C 0.19959 0.30446 0.61677 0.0
C1401 C 0.17499 0.32793 0.61217 0.0
C1402 C 0.18754 0.36093 0.60836 0.0
C1403 C 0.22457 0.3709 0.60917 0.0
C1404 C 0.2491 0.34792 0.61383 0.0
C1405 C 0.23668 0.31486 0.61765 0.0
H1406 H 0.23424 0.39647 0.60622 0.0
H1407 H 0.10892 0.07828 0.64365 0.0
H1408 H 0.24431 0.21952 0.29017 0.0
H1409 H 0.24824 0.2492 0.27511 0.0
H1410 H 0.27769 0.1449 0.263 0.0
H1411 H 0.27292 0.11523 0.27784 0.0
H1412 H 0.30369 0.25845 0.26411 0.0
H1413 H 0.2479 0.13548 0.24203 0.0
H1414 H 0.199 0.08856 0.24309 0.0
H1415 H 0.13918 0.15678 0.2619 0.0
H1416 H 0.18739 0.2044 0.26084 0.0
H1417 H 0.394 0.24154 0.22286 0.0
H1418 H 0.36383 0.23704 0.23764 0.0
H1419 H 0.25811 0.25377 0.22479 0.0
H1420 H 0.2884 0.25693 0.2098 0.0
H1421 H 0.25233 0.20068 0.23614 0.0
H1422 H 0.29755 0.32107 0.23907 0.0
H1423 H 0.34153 0.37264 0.2381 0.0
H1424 H 0.41215 0.31924 0.25755 0.0
H1425 H 0.36889 0.26706 0.25855 0.0
C1426 C 0.25131 0.20298 0.28426 0.0
C1427 C 0.25822 0.16507 0.28517 0.0
C1428 C 0.25353 0.21993 0.27568 0.0
C1429 C 0.26258 0.19916 0.26789 0.0
C1430 C 0.26964 0.16135 0.26884 0.0
C1431 C 0.26722 0.14445 0.27736 0.0
C1432 C 0.26721 0.21683 0.25881 0.0
C1433 C 0.29212 0.24617 0.25799 0.0
C1434 C 0.25089 0.20185 0.25085 0.0
C1435 C 0.22141 0.17351 0.25138 0.0
C1436 C 0.22419 0.14064 0.24633 0.0
C1437 C 0.19661 0.11387 0.24695 0.0
C1438 C 0.16604 0.11966 0.25257 0.0
C1439 C 0.16292 0.15229 0.25757 0.0
C1440 C 0.19039 0.17917 0.25697 0.0
C1441 C 0.36435 0.24465 0.22317 0.0
C1442 C 0.34354 0.24959 0.21518 0.0
C1443 C 0.34711 0.24241 0.23166 0.0
C1444 C 0.3087 0.24584 0.23239 0.0
C1445 C 0.2878 0.25129 0.22441 0.0
C1446 C 0.30509 0.2531 0.21586 0.0
C1447 C 0.29073 0.24063 0.24142 0.0
C1448 C 0.26321 0.21367 0.24224 0.0
C1449 C 0.30378 0.25863 0.24938 0.0
C1450 C 0.32993 0.29006 0.24887 0.0
C1451 C 0.32254 0.32021 0.24311 0.0
C1452 C 0.34735 0.34957 0.24256 0.0
C1453 C 0.37962 0.34921 0.24776 0.0
C1454 C 0.38712 0.3195 0.25353 0.0
C1455 C 0.36241 0.29005 0.25411 0.0
H1456 H 0.3988 0.37196 0.24731 0.0
H1457 H 0.14475 0.09887 0.25305 0.0
H1458 H 0.7327 0.89159 0.46991 0.0
H1459 H 0.74454 0.86699 0.48512 0.0
H1460 H 0.771 0.7612 0.4734 0.0
H1461 H 0.75983 0.78602 0.45805 0.0
H1462 H 0.72015 0.81405 0.49593 0.0
H1463 H 0.84498 0.72719 0.48469 0.0
H1464 H 0.89101 0.72501 0.47227 0.0
H1465 H 0.87946 0.84156 0.46816 0.0
H1466 H 0.83361 0.84441 0.48059 0.0
H1467 H 0.79516 0.73708 0.53711 0.0
H1468 H 0.76875 0.74348 0.52174 0.0
H1469 H 0.85991 0.81317 0.51395 0.0
H1470 H 0.88697 0.80541 0.52904 0.0
H1471 H 0.84767 0.7693 0.50088 0.0
H1472 H 0.77063 0.8465 0.51974 0.0
H1473 H 0.72846 0.86027 0.53251 0.0
H1474 H 0.65054 0.78185 0.52208 0.0
H1475 H 0.69248 0.76732 0.5093 0.0
C1476 C 0.74053 0.86292 0.47056 0.0
C1477 C 0.74582 0.84083 0.46279 0.0
C1478 C 0.74707 0.84883 0.47927 0.0
C1479 C 0.75907 0.81241 0.48039 0.0
C1480 C 0.76219 0.78955 0.47267 0.0
C1481 C 0.75573 0.80371 0.46392 0.0
C1482 C 0.77163 0.79993 0.48951 0.0
C1483 C 0.74788 0.80382 0.49702 0.0
C1484 C 0.80804 0.78735 0.49095 0.0
C1485 C 0.83555 0.78587 0.48347 0.0
C1486 C 0.85229 0.75231 0.48113 0.0
C1487 C 0.87833 0.75097 0.47409 0.0
C1488 C 0.88802 0.78309 0.4694 0.0
C1489 C 0.87179 0.81666 0.47176 0.0
C1490 C 0.84573 0.81814 0.47879 0.0
C1491 C 0.80942 0.75374 0.53209 0.0
C1492 C 0.84307 0.77074 0.53424 0.0
C1493 C 0.79431 0.75746 0.52333 0.0
C1494 C 0.81222 0.779 0.51668 0.0
C1495 C 0.8457 0.79614 0.51891 0.0
C1496 C 0.86108 0.79184 0.52756 0.0
C1497 C 0.7965 0.78422 0.5074 0.0
C1498 C 0.81964 0.77873 0.49982 0.0
C1499 C 0.76005 0.79685 0.50596 0.0
C1500 C 0.73486 0.8055 0.51364 0.0
C1501 C 0.74462 0.832 0.52022 0.0
C1502 C 0.72075 0.83997 0.52745 0.0
C1503 C 0.6869 0.82185 0.52813 0.0
C1504 C 0.67681 0.7958 0.52156 0.0
C1505 C 0.70061 0.78769 0.51432 0.0
H1506 H 0.66845 0.82807 0.53373 0.0
H1507 H 0.90819 0.78199 0.46396 0.0
H1508 H 0.11315 0.22076 0.7224 0.0
H1509 H 0.13783 0.23055 0.73771 0.0
H1510 H 0.23431 0.28213 0.72619 0.0
H1511 H 0.20998 0.2716 0.71074 0.0
H1512 H 0.25184 0.24085 0.74114 0.0
H1513 H 0.16583 0.33499 0.73364 0.0
H1514 H 0.10722 0.36124 0.72818 0.0
H1515 H 0.04937 0.30728 0.75 0.0
H1516 H 0.10764 0.28024 0.75552 0.0
H1517 H 0.28969 0.36016 0.77943 0.0
H1518 H 0.27718 0.33166 0.76459 0.0
H1519 H 0.19092 0.26634 0.77676 0.0
H1520 H 0.20374 0.2943 0.79168 0.0
H1521 H 0.16971 0.31254 0.76161 0.0
H1522 H 0.26167 0.22262 0.76953 0.0
H1523 H 0.32297 0.20199 0.77464 0.0
H1524 H 0.37298 0.25582 0.75164 0.0
H1525 H 0.312 0.27725 0.74646 0.0
C1526 C 0.13986 0.23376 0.72311 0.0
C1527 C 0.15948 0.24585 0.7154 0.0
C1528 C 0.15389 0.23937 0.73186 0.0
C1529 C 0.18754 0.25772 0.73308 0.0
C1530 C 0.20821 0.26804 0.72538 0.0
C1531 C 0.19428 0.2621 0.71658 0.0
C1532 C 0.19951 0.26834 0.74239 0.0
C1533 C 0.23407 0.2568 0.7456 0.0
C1534 C 0.1762 0.28904 0.74821 0.0
C1535 C 0.14105 0.30527 0.74493 0.0
C1536 C 0.14057 0.32847 0.73723 0.0
C1537 C 0.10742 0.34354 0.73413 0.0
C1538 C 0.07457 0.33586 0.73873 0.0
C1539 C 0.07483 0.31316 0.74644 0.0
C1540 C 0.10792 0.29797 0.74956 0.0
C1541 C 0.26862 0.33911 0.77898 0.0
C1542 C 0.24753 0.32951 0.78667 0.0
C1543 C 0.26161 0.32279 0.77052 0.0
C1544 C 0.23317 0.29695 0.76961 0.0
C1545 C 0.21308 0.28617 0.77736 0.0
C1546 C 0.22049 0.30206 0.78587 0.0
C1547 C 0.22175 0.28454 0.76042 0.0
C1548 C 0.18732 0.29619 0.7572 0.0
C1549 C 0.24558 0.26478 0.75455 0.0
C1550 C 0.28227 0.25183 0.75765 0.0
C1551 C 0.28576 0.23036 0.7656 0.0
C1552 C 0.32045 0.21845 0.76851 0.0
C1553 C 0.35186 0.22766 0.76349 0.0
C1554 C 0.34863 0.24873 0.75553 0.0
C1555 C 0.314 0.26073 0.7526 0.0
H1556 H 0.37869 0.21841 0.76574 0.0
H1557 H 0.04892 0.34756 0.73632 0.0
H1558 H 0.74453 0.60904 0.96991 0.0
H1559 H 0.73592 0.63779 0.98477 0.0
H1560 H 0.75489 0.74481 0.97278 0.0
H1561 H 0.76196 0.71602 0.95772 0.0
H1562 H 0.77295 0.67615 0.99618 0.0
H1563 H 0.70135 0.808 0.98367 0.0
H1564 H 0.66668 0.83096 0.97032 0.0
H1565 H 0.63007 0.72108 0.96436 0.0
H1566 H 0.66416 0.6976 0.97773 0.0
H1567 H 0.7146 0.7633 0.03729 0.0
H1568 H 0.74386 0.75624 0.02228 0.0
H1569 H 0.63802 0.73061 0.0104 0.0
H1570 H 0.60874 0.73941 0.02519 0.0
H1571 H 0.67344 0.76905 0.99891 0.0
H1572 H 0.70342 0.66279 0.01763 0.0
H1573 H 0.73 0.63124 0.03103 0.0
H1574 H 0.83657 0.67557 0.02461 0.0
H1575 H 0.81048 0.70771 0.01122 0.0
C1576 C 0.74719 0.63868 0.97044 0.0
C1577 C 0.75347 0.66036 0.96265 0.0
C1578 C 0.74247 0.6551 0.97896 0.0
C1579 C 0.7443 0.69353 0.9799 0.0
C1580 C 0.75267 0.71515 0.9722 0.0
C1581 C 0.7568 0.69871 0.96361 0.0
C1582 C 0.73467 0.71047 0.98882 0.0
C1583 C 0.75148 0.6968 0.99677 0.0
C1584 C 0.70648 0.73721 0.98963 0.0
C1585 C 0.68571 0.75104 0.98161 0.0
C1586 C 0.68586 0.78879 0.97951 0.0
C1587 C 0.66631 0.80188 0.97194 0.0
C1588 C 0.64632 0.77747 0.96647 0.0
C1589 C 0.64569 0.73994 0.96858 0.0
C1590 C 0.66514 0.72672 0.97614 0.0
C1591 C 0.69766 0.75659 0.03143 0.0
C1592 C 0.65948 0.75168 0.0324 0.0
C1593 C 0.71437 0.75245 0.02287 0.0
C1594 C 0.69324 0.74237 0.01521 0.0
C1595 C 0.65496 0.73856 0.01617 0.0
C1596 C 0.63824 0.7434 0.02465 0.0
C1597 C 0.71059 0.73353 0.00629 0.0
C1598 C 0.69552 0.74904 0.99833 0.0
C1599 C 0.73925 0.70728 0.00548 0.0
C1600 C 0.75494 0.688 0.01351 0.0
C1601 C 0.73247 0.66599 0.01912 0.0
C1602 C 0.74744 0.64798 0.0267 0.0
C1603 C 0.78492 0.65151 0.02869 0.0
C1604 C 0.80753 0.67295 0.02308 0.0
C1605 C 0.79267 0.69106 0.01549 0.0
H1606 H 0.79647 0.63754 0.03456 0.0
H1607 H 0.63123 0.78766 0.96061 0.0
H1608 H 0.28245 0.25354 0.03903 0.0
H1609 H 0.25296 0.26077 0.02401 0.0
H1610 H 0.35983 0.27459 0.01156 0.0
H1611 H 0.38916 0.26653 0.02635 0.0
H1612 H 0.25135 0.3165 0.01271 0.0
H1613 H 0.36388 0.24236 0.99068 0.0
H1614 H 0.40393 0.18774 0.99186 0.0
H1615 H 0.32947 0.13906 0.0112 0.0
H1616 H 0.28867 0.19311 0.01004 0.0
H1617 H 0.26968 0.39621 0.96983 0.0
H1618 H 0.27533 0.36933 0.98501 0.0
H1619 H 0.24503 0.26293 0.97419 0.0
H1620 H 0.24097 0.28964 0.95882 0.0
H1621 H 0.29884 0.25394 0.98496 0.0
H1622 H 0.18521 0.31486 0.98837 0.0
H1623 H 0.13993 0.36525 0.98727 0.0
H1624 H 0.20569 0.43159 0.00526 0.0
H1625 H 0.25167 0.38183 0.00636 0.0
C1626 C 0.29954 0.25776 0.03306 0.0
C1627 C 0.33809 0.25932 0.03385 0.0
C1628 C 0.28271 0.26191 0.0245 0.0
C1629 C 0.30421 0.26757 0.01663 0.0
C1630 C 0.34266 0.26927 0.01747 0.0
C1631 C 0.35941 0.26492 0.02596 0.0
C1632 C 0.287 0.27391 0.00756 0.0
C1633 C 0.26136 0.30256 0.00664 0.0
C1634 C 0.29904 0.25482 -0.00033 0.0
C1635 C 0.32327 0.22193 0.0003 0.0
C1636 C 0.35589 0.2199 0.99514 0.0
C1637 C 0.37877 0.18906 0.99581 0.0
C1638 C 0.36928 0.15998 0.00161 0.0
C1639 C 0.33684 0.16164 0.00673 0.0
C1640 C 0.31385 0.1924 0.00607 0.0
C1641 C 0.26397 0.36712 0.97069 0.0
C1642 C 0.25484 0.34499 0.96316 0.0
C1643 C 0.26687 0.35181 0.9794 0.0
C1644 C 0.2598 0.31421 0.98082 0.0
C1645 C 0.25042 0.29205 0.97329 0.0
C1646 C 0.2481 0.30729 0.96452 0.0
C1647 C 0.26476 0.29796 0.99006 0.0
C1648 C 0.28809 0.26739 0.99102 0.0
C1649 C 0.24969 0.31457 0.99799 0.0
C1650 C 0.22198 0.34459 0.99742 0.0
C1651 C 0.19013 0.34026 0.99205 0.0
C1652 C 0.16432 0.36872 0.99143 0.0
C1653 C 0.16994 0.40161 0.99618 0.0
C1654 C 0.20136 0.40608 0.00158 0.0
C1655 C 0.22727 0.37772 0.00223 0.0
H1656 H 0.14994 0.42361 0.99569 0.0
H1657 H 0.38705 0.13614 0.00213 0.0
H1658 H 0.72005 0.79683 0.28774 0.0
H1659 H 0.71142 0.77112 0.27243 0.0
H1660 H 0.77333 0.86151 0.26093 0.0
H1661 H 0.78047 0.88805 0.27616 0.0
H1662 H 0.71465 0.85356 0.2517 0.0
H1663 H 0.80688 0.76958 0.26207 0.0
H1664 H 0.83621 0.72483 0.27244 0.0
H1665 H 0.74438 0.65145 0.2692 0.0
H1666 H 0.71425 0.696 0.2589 0.0
H1667 H 0.71575 0.78232 0.20696 0.0
H1668 H 0.74236 0.79551 0.22199 0.0
H1669 H 0.65961 0.72757 0.23476 0.0
H1670 H 0.63262 0.71455 0.21978 0.0
H1671 H 0.73347 0.72299 0.24283 0.0
H1672 H 0.64003 0.81175 0.23353 0.0
H1673 H 0.6133 0.85595 0.22256 0.0
H1674 H 0.7123 0.92052 0.22351 0.0
H1675 H 0.73981 0.8764 0.23439 0.0
C1676 C 0.73215 0.8109 0.28195 0.0
C1677 C 0.75075 0.84447 0.2831 0.0
C1678 C 0.72742 0.7961 0.2732 0.0
C1679 C 0.74202 0.81418 0.26551 0.0
C1680 C 0.7617 0.8471 0.26674 0.0
C1681 C 0.76582 0.86221 0.27544 0.0
C1682 C 0.73451 0.80043 0.25613 0.0
C1683 C 0.71951 0.82515 0.24975 0.0
C1684 C 0.74011 0.76319 0.25358 0.0
C1685 C 0.75816 0.73629 0.25977 0.0
C1686 C 0.79281 0.74403 0.26362 0.0
C1687 C 0.8096 0.71867 0.26948 0.0
C1688 C 0.79213 0.68536 0.2715 0.0
C1689 C 0.75786 0.67729 0.26764 0.0
C1690 C 0.74093 0.70256 0.26178 0.0
C1691 C 0.70379 0.7695 0.21295 0.0
C1692 C 0.67191 0.74776 0.21224 0.0
C1693 C 0.71898 0.77706 0.22151 0.0
C1694 C 0.70268 0.76271 0.22945 0.0
C1695 C 0.67254 0.7388 0.22869 0.0
C1696 C 0.65708 0.73157 0.22015 0.0
C1697 C 0.714 0.77619 0.23854 0.0
C1698 C 0.72929 0.75145 0.24484 0.0
C1699 C 0.70908 0.81348 0.24101 0.0
C1700 C 0.69213 0.84057 0.23468 0.0
C1701 C 0.65617 0.83525 0.23135 0.0
C1702 C 0.64088 0.86029 0.22516 0.0
C1703 C 0.66118 0.89089 0.2223 0.0
C1704 C 0.69667 0.89672 0.2257 0.0
C1705 C 0.71211 0.87174 0.23189 0.0
H1706 H 0.64939 0.91013 0.21747 0.0
H1707 H 0.80518 0.66576 0.27603 0.0
H1708 H 0.23907 0.10714 0.47225 0.0
H1709 H 0.23116 0.1365 0.48707 0.0
H1710 H 0.24824 0.24313 0.47471 0.0
H1711 H 0.2548 0.21373 0.4597 0.0
H1712 H 0.26944 0.17625 0.49817 0.0
H1713 H 0.19425 0.30597 0.48568 0.0
H1714 H 0.15801 0.32766 0.47245 0.0
H1715 H 0.12269 0.21689 0.46705 0.0
H1716 H 0.15837 0.19467 0.4803 0.0
H1717 H 0.21314 0.26772 0.53917 0.0
H1718 H 0.24128 0.2588 0.52407 0.0
H1719 H 0.13535 0.22758 0.51312 0.0
H1720 H 0.10718 0.23775 0.52797 0.0
H1721 H 0.16839 0.26732 0.50121 0.0
H1722 H 0.20307 0.16337 0.52027 0.0
H1723 H 0.23212 0.13377 0.53363 0.0
H1724 H 0.33672 0.17989 0.52608 0.0
H1725 H 0.30814 0.2101 0.51273 0.0
C1726 C 0.24143 0.13683 0.47268 0.0
C1727 C 0.24712 0.1582 0.46481 0.0
C1728 C 0.23712 0.1536 0.48118 0.0
C1729 C 0.23871 0.19207 0.48201 0.0
C1730 C 0.24629 0.21343 0.47422 0.0
C1731 C 0.2501 0.19664 0.46566 0.0
C1732 C 0.22969 0.20933 0.49094 0.0
C1733 C 0.24764 0.19652 0.49882 0.0
C1734 C 0.20111 0.2356 0.49183 0.0
C1735 C 0.17937 0.24866 0.48389 0.0
C1736 C 0.17871 0.28629 0.48167 0.0
C1737 C 0.15826 0.29867 0.47417 0.0
C1738 C 0.13819 0.27365 0.46889 0.0
C1739 C 0.13838 0.23622 0.47112 0.0
C1740 C 0.15872 0.22373 0.47862 0.0
C1741 C 0.19594 0.25927 0.5335 0.0
C1742 C 0.15804 0.25326 0.53475 0.0
C1743 C 0.21202 0.2541 0.52489 0.0
C1744 C 0.1905 0.24217 0.51746 0.0
C1745 C 0.15253 0.237 0.51871 0.0
C1746 C 0.13647 0.24264 0.52723 0.0
C1747 C 0.20711 0.23312 0.50846 0.0
C1748 C 0.19083 0.24775 0.50055 0.0
C1749 C 0.23624 0.20745 0.50757 0.0
C1750 C 0.25341 0.18935 0.51558 0.0
C1751 C 0.23221 0.16739 0.5215 0.0
C1752 C 0.24859 0.15048 0.52906 0.0
C1753 C 0.28622 0.15506 0.53072 0.0
C1754 C 0.30756 0.17646 0.5248 0.0
C1755 C 0.2913 0.19347 0.51724 0.0
H1756 H 0.29885 0.14194 0.53658 0.0
H1757 H 0.12241 0.28328 0.46309 0.0
H1758 H 0.89325 0.76281 0.7208 0.0
H1759 H 0.86754 0.75402 0.73602 0.0
H1760 H 0.76185 0.72789 0.72419 0.0
H1761 H 0.78778 0.73597 0.70884 0.0
H1762 H 0.81365 0.78023 0.74657 0.0
H1763 H 0.72696 0.65473 0.73606 0.0
H1764 H 0.72381 0.6084 0.72373 0.0
H1765 H 0.84011 0.61949 0.71914 0.0
H1766 H 0.84399 0.66545 0.73151 0.0
H1767 H 0.73483 0.70501 0.7878 0.0
H1768 H 0.74228 0.73162 0.77248 0.0
H1769 H 0.81582 0.64283 0.76526 0.0
H1770 H 0.80735 0.61566 0.78033 0.0
H1771 H 0.77007 0.65267 0.75211 0.0
H1772 H 0.84582 0.73273 0.77076 0.0
H1773 H 0.85788 0.77623 0.78336 0.0
H1774 H 0.77819 0.85134 0.77228 0.0
H1775 H 0.76537 0.80804 0.75967 0.0
C1776 C 0.86437 0.75574 0.72143 0.0
C1777 C 0.84264 0.74947 0.71364 0.0
C1778 C 0.84964 0.751 0.73014 0.0
C1779 C 0.81293 0.73986 0.73124 0.0
C1780 C 0.7904 0.73608 0.72348 0.0
C1781 C 0.80521 0.74071 0.71473 0.0
C1782 C 0.80002 0.72813 0.74039 0.0
C1783 C 0.80364 0.7525 0.74779 0.0
C1784 C 0.78756 0.69178 0.74199 0.0
C1785 C 0.78562 0.66386 0.73461 0.0
C1786 C 0.75183 0.6472 0.73242 0.0
C1787 C 0.74993 0.62101 0.72543 0.0
C1788 C 0.78171 0.61113 0.72063 0.0
C1789 C 0.81549 0.62727 0.72284 0.0
C1790 C 0.81755 0.6534 0.72983 0.0
C1791 C 0.75269 0.6914 0.78293 0.0
C1792 C 0.77045 0.65828 0.78522 0.0
C1793 C 0.75697 0.70661 0.7742 0.0
C1794 C 0.77967 0.68925 0.76771 0.0
C1795 C 0.79788 0.65654 0.7701 0.0
C1796 C 0.79316 0.64111 0.77873 0.0
C1797 C 0.78456 0.70444 0.75838 0.0
C1798 C 0.77923 0.68071 0.75092 0.0
C1799 C 0.7966 0.74097 0.75678 0.0
C1800 C 0.80432 0.76698 0.76434 0.0
C1801 C 0.83068 0.7584 0.77106 0.0
C1802 C 0.83768 0.78304 0.77819 0.0
C1803 C 0.81872 0.81647 0.77864 0.0
C1804 C 0.79279 0.8254 0.77193 0.0
C1805 C 0.78566 0.80083 0.76479 0.0
H1806 H 0.82419 0.83551 0.78416 0.0
H1807 H 0.78016 0.59089 0.71521 0.0
loop_
_geom_bond_atom_site_label_1
_geom_bond_atom_site_label_2
_geom_bond_distance
_geom_bond_site_symmetry_2
_ccdc_geom_bond_type
In0 O1 2.294 . S
In0 O2 2.326 . S
In0 O6 2.266 . S
In0 O7 2.326 . S
In0 O8 2.266 . S
In0 O9 2.326 . S
In0 O11 2.294 . S
In0 O12 2.326 . S
O1 In0 2.294 . S
O1 C10 1.240 . S
O2 In0 2.326 . S
O2 C10 1.252 . S
C3 O6 1.252 . S
C3 O7 1.260 . S
C4 O11 1.240 . S
C4 O12 1.252 . S
C5 O8 1.252 . S
C5 O9 1.260 . S
O6 In0 2.266 . S
O6 C3 1.252 . S
O7 In0 2.326 . S
O7 C3 1.260 . S
O8 In0 2.266 . S
O8 C5 1.252 . S
O9 In0 2.326 . S
O9 C5 1.260 . S
C10 O1 1.240 . S
C10 O2 1.252 . S
O11 In0 2.294 . S
O11 C4 1.240 . S
O12 In0 2.326 . S
O12 C4 1.252 . S
In13 O14 2.294 . S
In13 O15 2.326 . S
In13 O19 2.266 . S
In13 O20 2.326 . S
In13 O21 2.266 . S
In13 O22 2.326 . S
In13 O24 2.294 . S
In13 O25 2.326 . S
O14 In13 2.294 . S
O14 C23 1.240 . S
O15 In13 2.326 . S
O15 C23 1.252 . S
C16 O19 1.252 . S
C16 O20 1.260 . S
C17 O24 1.240 . S
C17 O25 1.252 . S
C18 O21 1.252 . S
C18 O22 1.260 . S
O19 In13 2.266 . S
O19 C16 1.252 . S
O20 In13 2.326 . S
O20 C16 1.260 . S
O21 In13 2.266 . S
O21 C18 1.252 . S
O22 In13 2.326 . S
O22 C18 1.260 . S
C23 O14 1.240 . S
C23 O15 1.252 . S
O24 In13 2.294 . S
O24 C17 1.240 . S
O25 In13 2.326 . S
O25 C17 1.252 . S
In26 O27 2.294 . S
In26 O28 2.326 . S
In26 O32 2.266 . S
In26 O33 2.326 . S
In26 O34 2.266 . S
In26 O35 2.326 . S
In26 O37 2.294 . S
In26 O38 2.326 . S
O27 In26 2.294 . S
O27 C36 1.240 . S
O28 In26 2.326 . S
O28 C36 1.252 . S
C29 O32 1.252 . S
C29 O33 1.260 . S
C30 O37 1.240 . S
C30 O38 1.252 . S
C31 O34 1.252 . S
C31 O35 1.260 . S
O32 In26 2.266 . S
O32 C29 1.252 . S
O33 In26 2.326 . S
O33 C29 1.260 . S
O34 In26 2.266 . S
O34 C31 1.252 . S
O35 In26 2.326 . S
O35 C31 1.260 . S
C36 O27 1.240 . S
C36 O28 1.252 . S
O37 In26 2.294 . S
O37 C30 1.240 . S
O38 In26 2.326 . S
O38 C30 1.252 . S
In39 O40 2.294 . S
In39 O41 2.326 . S
In39 O45 2.266 . S
In39 O46 2.326 . S
In39 O47 2.266 . S
In39 O48 2.326 . S
In39 O50 2.294 . S
In39 O51 2.326 . S
O40 In39 2.294 . S
O40 C49 1.240 . S
O41 In39 2.326 . S
O41 C49 1.252 . S
C42 O45 1.252 . S
C42 O46 1.260 . S
C43 O50 1.240 . S
C43 O51 1.252 . S
C44 O47 1.252 . S
C44 O48 1.260 . S
O45 In39 2.266 . S
O45 C42 1.252 . S
O46 In39 2.326 . S
O46 C42 1.260 . S
O47 In39 2.266 . S
O47 C44 1.252 . S
O48 In39 2.326 . S
O48 C44 1.260 . S
C49 O40 1.240 . S
C49 O41 1.252 . S
O50 In39 2.294 . S
O50 C43 1.240 . S
O51 In39 2.326 . S
O51 C43 1.252 . S
In52 O53 2.294 . S
In52 O54 2.326 . S
In52 O58 2.266 . S
In52 O59 2.326 . S
In52 O60 2.266 . S
In52 O61 2.326 . S
In52 O63 2.294 . S
In52 O64 2.326 . S
O53 In52 2.294 . S
O53 C62 1.240 . S
O54 In52 2.326 . S
O54 C62 1.252 . S
C55 O58 1.252 . S
C55 O59 1.260 . S
C56 O63 1.240 . S
C56 O64 1.252 . S
C57 O60 1.252 . S
C57 O61 1.260 . S
O58 In52 2.266 . S
O58 C55 1.252 . S
O59 In52 2.326 . S
O59 C55 1.260 . S
O60 In52 2.266 . S
O60 C57 1.252 . S
O61 In52 2.326 . S
O61 C57 1.260 . S
C62 O53 1.240 . S
C62 O54 1.252 . S
O63 In52 2.294 . S
O63 C56 1.240 . S
O64 In52 2.326 . S
O64 C56 1.252 . S
In65 O66 2.294 . S
In65 O67 2.326 . S
In65 O71 2.266 . S
In65 O72 2.326 . S
In65 O73 2.266 . S
In65 O74 2.326 . S
In65 O76 2.294 . S
In65 O77 2.326 . S
O66 In65 2.294 . S
O66 C75 1.240 . S
O67 In65 2.326 . S
O67 C75 1.252 . S
C68 O71 1.252 . S
C68 O72 1.260 . S
C69 O76 1.240 . S
C69 O77 1.252 . S
C70 O73 1.252 . S
C70 O74 1.260 . S
O71 In65 2.266 . S
O71 C68 1.252 . S
O72 In65 2.326 . S
O72 C68 1.260 . S
O73 In65 2.266 . S
O73 C70 1.252 . S
O74 In65 2.326 . S
O74 C70 1.260 . S
C75 O66 1.240 . S
C75 O67 1.252 . S
O76 In65 2.294 . S
O76 C69 1.240 . S
O77 In65 2.326 . S
O77 C69 1.252 . S
In78 O79 2.294 . S
In78 O80 2.326 . S
In78 O84 2.266 . S
In78 O85 2.326 . S
In78 O86 2.266 . S
In78 O87 2.326 . S
In78 O89 2.294 . S
In78 O90 2.326 . S
O79 In78 2.294 . S
O79 C88 1.240 . S
O80 In78 2.326 . S
O80 C88 1.252 . S
C81 O84 1.252 . S
C81 O85 1.260 . S
C82 O89 1.240 . S
C82 O90 1.252 . S
C83 O86 1.252 . S
C83 O87 1.260 . S
O84 In78 2.266 . S
O84 C81 1.252 . S
O85 In78 2.326 . S
O85 C81 1.260 . S
O86 In78 2.266 . S
O86 C83 1.252 . S
O87 In78 2.326 . S
O87 C83 1.260 . S
C88 O79 1.240 . S
C88 O80 1.252 . S
O89 In78 2.294 . S
O89 C82 1.240 . S
O90 In78 2.326 . S
O90 C82 1.252 . S
In91 O92 2.294 . S
In91 O93 2.326 . S
In91 O97 2.266 . S
In91 O98 2.326 . S
In91 O99 2.266 . S
In91 O100 2.326 . S
In91 O102 2.294 . S
In91 O103 2.326 . S
O92 In91 2.294 . S
O92 C101 1.240 . S
O93 In91 2.326 . S
O93 C101 1.252 . S
C94 O97 1.252 . S
C94 O98 1.260 . S
C95 O102 1.240 . S
C95 O103 1.252 . S
C96 O99 1.252 . S
C96 O100 1.260 . S
O97 In91 2.266 . S
O97 C94 1.252 . S
O98 In91 2.326 . S
O98 C94 1.260 . S
O99 In91 2.266 . S
O99 C96 1.252 . S
O100 In91 2.326 . S
O100 C96 1.260 . S
C101 O92 1.240 . S
C101 O93 1.252 . S
O102 In91 2.294 . S
O102 C95 1.240 . S
O103 In91 2.326 . S
O103 C95 1.252 . S
In104 O105 2.294 . S
In104 O106 2.326 . S
In104 O110 2.266 . S
In104 O111 2.326 . S
In104 O112 2.266 . S
In104 O113 2.326 . S
In104 O115 2.294 . S
In104 O116 2.326 . S
O105 In104 2.294 . S
O105 C114 1.240 . S
O106 In104 2.326 . S
O106 C114 1.252 . S
C107 O110 1.252 . S
C107 O111 1.260 . S
C108 O115 1.240 . S
C108 O116 1.252 . S
C109 O112 1.252 . S
C109 O113 1.260 . S
O110 In104 2.266 . S
O110 C107 1.252 . S
O111 In104 2.326 . S
O111 C107 1.260 . S
O112 In104 2.266 . S
O112 C109 1.252 . S
O113 In104 2.326 . S
O113 C109 1.260 . S
C114 O105 1.240 . S
C114 O106 1.252 . S
O115 In104 2.294 . S
O115 C108 1.240 . S
O116 In104 2.326 . S
O116 C108 1.252 . S
In117 O118 2.294 . S
In117 O119 2.326 . S
In117 O123 2.266 . S
In117 O124 2.326 . S
In117 O125 2.266 . S
In117 O126 2.326 . S
In117 O128 2.294 . S
In117 O129 2.326 . S
O118 In117 2.294 . S
O118 C127 1.240 . S
O119 In117 2.326 . S
O119 C127 1.252 . S
C120 O123 1.252 . S
C120 O124 1.260 . S
C121 O128 1.240 . S
C121 O129 1.252 . S
C122 O125 1.252 . S
C122 O126 1.260 . S
O123 In117 2.266 . S
O123 C120 1.252 . S
O124 In117 2.326 . S
O124 C120 1.260 . S
O125 In117 2.266 . S
O125 C122 1.252 . S
O126 In117 2.326 . S
O126 C122 1.260 . S
C127 O118 1.240 . S
C127 O119 1.252 . S
O128 In117 2.294 . S
O128 C121 1.240 . S
O129 In117 2.326 . S
O129 C121 1.252 . S
In130 O131 2.294 . S
In130 O132 2.326 . S
In130 O136 2.266 . S
In130 O137 2.326 . S
In130 O138 2.266 . S
In130 O139 2.326 . S
In130 O141 2.294 . S
In130 O142 2.326 . S
O131 In130 2.294 . S
O131 C140 1.240 . S
O132 In130 2.326 . S
O132 C140 1.252 . S
C133 O136 1.252 . S
C133 O137 1.260 . S
C134 O141 1.240 . S
C134 O142 1.252 . S
C135 O138 1.252 . S
C135 O139 1.260 . S
O136 In130 2.266 . S
O136 C133 1.252 . S
O137 In130 2.326 . S
O137 C133 1.260 . S
O138 In130 2.266 . S
O138 C135 1.252 . S
O139 In130 2.326 . S
O139 C135 1.260 . S
C140 O131 1.240 . S
C140 O132 1.252 . S
O141 In130 2.294 . S
O141 C134 1.240 . S
O142 In130 2.326 . S
O142 C134 1.252 . S
In143 O144 2.294 . S
In143 O145 2.326 . S
In143 O149 2.266 . S
In143 O150 2.326 . S
In143 O151 2.266 . S
In143 O152 2.326 . S
In143 O154 2.294 . S
In143 O155 2.326 . S
O144 In143 2.294 . S
O144 C153 1.240 . S
O145 In143 2.326 . S
O145 C153 1.252 . S
C146 O149 1.252 . S
C146 O150 1.260 . S
C147 O154 1.240 . S
C147 O155 1.252 . S
C148 O151 1.252 . S
C148 O152 1.260 . S
O149 In143 2.266 . S
O149 C146 1.252 . S
O150 In143 2.326 . S
O150 C146 1.260 . S
O151 In143 2.266 . S
O151 C148 1.252 . S
O152 In143 2.326 . S
O152 C148 1.260 . S
C153 O144 1.240 . S
C153 O145 1.252 . S
O154 In143 2.294 . S
O154 C147 1.240 . S
O155 In143 2.326 . S
O155 C147 1.252 . S
In156 O157 2.294 . S
In156 O158 2.326 . S
In156 O162 2.266 . S
In156 O163 2.326 . S
In156 O164 2.266 . S
In156 O165 2.326 . S
In156 O167 2.294 . S
In156 O168 2.326 . S
O157 In156 2.294 . S
O157 C166 1.240 . S
O158 In156 2.326 . S
O158 C166 1.252 . S
C159 O162 1.252 . S
C159 O163 1.260 . S
C160 O167 1.240 . S
C160 O168 1.252 . S
C161 O164 1.252 . S
C161 O165 1.260 . S
O162 In156 2.266 . S
O162 C159 1.252 . S
O163 In156 2.326 . S
O163 C159 1.260 . S
O164 In156 2.266 . S
O164 C161 1.252 . S
O165 In156 2.326 . S
O165 C161 1.260 . S
C166 O157 1.240 . S
C166 O158 1.252 . S
O167 In156 2.294 . S
O167 C160 1.240 . S
O168 In156 2.326 . S
O168 C160 1.252 . S
In169 O170 2.294 . S
In169 O171 2.326 . S
In169 O175 2.266 . S
In169 O176 2.326 . S
In169 O177 2.266 . S
In169 O178 2.326 . S
In169 O180 2.294 . S
In169 O181 2.326 . S
O170 In169 2.294 . S
O170 C179 1.240 . S
O171 In169 2.326 . S
O171 C179 1.252 . S
C172 O175 1.252 . S
C172 O176 1.260 . S
C173 O180 1.240 . S
C173 O181 1.252 . S
C174 O177 1.252 . S
C174 O178 1.260 . S
O175 In169 2.266 . S
O175 C172 1.252 . S
O176 In169 2.326 . S
O176 C172 1.260 . S
O177 In169 2.266 . S
O177 C174 1.252 . S
O178 In169 2.326 . S
O178 C174 1.260 . S
C179 O170 1.240 . S
C179 O171 1.252 . S
O180 In169 2.294 . S
O180 C173 1.240 . S
O181 In169 2.326 . S
O181 C173 1.252 . S
In182 O183 2.294 . S
In182 O184 2.326 . S
In182 O188 2.266 . S
In182 O189 2.326 . S
In182 O190 2.266 . S
In182 O191 2.326 . S
In182 O193 2.294 . S
In182 O194 2.326 . S
O183 In182 2.294 . S
O183 C192 1.240 . S
O184 In182 2.326 . S
O184 C192 1.252 . S
C185 O188 1.252 . S
C185 O189 1.260 . S
C186 O193 1.240 . S
C186 O194 1.252 . S
C187 O190 1.252 . S
C187 O191 1.260 . S
O188 In182 2.266 . S
O188 C185 1.252 . S
O189 In182 2.326 . S
O189 C185 1.260 . S
O190 In182 2.266 . S
O190 C187 1.252 . S
O191 In182 2.326 . S
O191 C187 1.260 . S
C192 O183 1.240 . S
C192 O184 1.252 . S
O193 In182 2.294 . S
O193 C186 1.240 . S
O194 In182 2.326 . S
O194 C186 1.252 . S
In195 O196 2.294 . S
In195 O197 2.326 . S
In195 O201 2.266 . S
In195 O202 2.326 . S
In195 O203 2.266 . S
In195 O204 2.326 . S
In195 O206 2.294 . S
In195 O207 2.326 . S
O196 In195 2.294 . S
O196 C205 1.240 . S
O197 In195 2.326 . S
O197 C205 1.252 . S
C198 O201 1.252 . S
C198 O202 1.260 . S
C199 O206 1.240 . S
C199 O207 1.252 . S
C200 O203 1.252 . S
C200 O204 1.260 . S
O201 In195 2.266 . S
O201 C198 1.252 . S
O202 In195 2.326 . S
O202 C198 1.260 . S
O203 In195 2.266 . S
O203 C200 1.252 . S
O204 In195 2.326 . S
O204 C200 1.260 . S
C205 O196 1.240 . S
C205 O197 1.252 . S
O206 In195 2.294 . S
O206 C199 1.240 . S
O207 In195 2.326 . S
O207 C199 1.252 . S
H208 C226 0.951 . S
H209 C228 0.951 . S
H210 C230 0.950 1_545 S
H211 C231 0.950 . S
H212 C233 0.950 . S
H213 C236 0.950 . S
H214 C237 0.950 . S
H215 C239 0.950 . S
H216 C240 0.950 1_455 S
H217 C241 0.951 . S
H218 C243 0.951 . S
H219 C245 0.950 1_565 S
H220 C246 0.950 . S
H221 C248 0.950 . S
H222 C251 0.950 . S
H223 C252 0.950 . S
H224 C254 0.950 . S
H225 C255 0.950 1_655 S
C226 H208 0.951 . S
C226 C227 1.366 . S
C226 C228 1.388 . S
C227 C226 1.366 . S
C227 C231 1.385 . S
C228 H209 0.951 . S
C228 C226 1.388 . S
C228 C229 1.366 . S
C229 C228 1.366 . S
C229 C230 1.414 . S
C229 C232 1.499 . S
C230 H210 0.950 1_565 S
C230 C229 1.414 . S
C230 C231 1.374 . S
C231 H211 0.950 . S
C231 C227 1.385 . S
C231 C230 1.374 . S
C232 C229 1.499 . S
C232 C233 1.373 . S
C232 C234 1.389 . S
C233 H212 0.950 . S
C233 C232 1.373 . S
C233 C249 1.377 1_665 S
C234 C232 1.389 . S
C234 C235 1.524 . S
C234 C248 1.377 1_665 S
C235 C234 1.524 . S
C235 C236 1.397 1_565 S
C235 C240 1.363 . S
C236 H213 0.950 . S
C236 C235 1.397 1_545 S
C236 C237 1.334 . S
C237 H214 0.950 . S
C237 C236 1.334 . S
C237 C238 1.287 . S
C238 C237 1.287 . S
C238 C239 1.524 1_545 S
C238 H257 0.913 . S
C239 H215 0.950 . S
C239 C238 1.524 1_565 S
C239 C240 1.415 . S
C240 H216 0.950 1_655 S
C240 C235 1.363 . S
C240 C239 1.415 . S
C241 H217 0.951 . S
C241 C242 1.366 . S
C241 C243 1.388 . S
C242 C241 1.366 . S
C242 C246 1.385 . S
C243 H218 0.951 . S
C243 C241 1.388 . S
C243 C244 1.366 . S
C244 C243 1.366 . S
C244 C245 1.414 . S
C244 C247 1.499 . S
C245 H219 0.950 1_545 S
C245 C244 1.414 . S
C245 C246 1.374 . S
C246 H220 0.950 . S
C246 C242 1.385 . S
C246 C245 1.374 . S
C247 C244 1.499 . S
C247 C248 1.373 . S
C247 C249 1.389 . S
C248 H221 0.950 . S
C248 C234 1.377 1_445 S
C248 C247 1.373 . S
C249 C233 1.377 1_445 S
C249 C247 1.389 . S
C249 C250 1.524 . S
C250 C249 1.524 . S
C250 C251 1.397 1_545 S
C250 C255 1.363 . S
C251 H222 0.950 . S
C251 C250 1.397 1_565 S
C251 C252 1.334 . S
C252 H223 0.950 . S
C252 C251 1.334 . S
C252 C253 1.287 . S
C253 C252 1.287 . S
C253 C254 1.524 1_565 S
C253 H256 0.999 . S
C254 H224 0.950 . S
C254 C253 1.524 1_545 S
C254 C255 1.415 . S
C255 H225 0.950 1_455 S
C255 C250 1.363 . S
C255 C254 1.415 . S
H256 C253 0.999 . S
H257 C238 0.913 . S
H258 C276 0.951 . S
H259 C278 0.951 . S
H260 C280 0.950 1_455 S
H261 C281 0.950 . S
H262 C283 0.950 . S
H263 C286 0.950 . S
H264 C287 0.950 . S
H265 C289 0.950 . S
H266 C290 0.950 . S
H267 C291 0.951 . S
H268 C293 0.951 . S
H269 C295 0.950 1_655 S
H270 C296 0.950 . S
H271 C298 0.950 . S
H272 C301 0.950 . S
H273 C302 0.950 . S
H274 C304 0.950 . S
H275 C305 0.950 . S
C276 H258 0.951 . S
C276 C277 1.366 . S
C276 C278 1.388 . S
C277 C276 1.366 . S
C277 C281 1.385 . S
C278 H259 0.951 . S
C278 C276 1.388 . S
C278 C279 1.366 . S
C279 C278 1.366 . S
C279 C280 1.414 . S
C279 C282 1.499 . S
C280 H260 0.950 1_655 S
C280 C279 1.414 . S
C280 C281 1.374 . S
C281 H261 0.950 . S
C281 C277 1.385 . S
C281 C280 1.374 . S
C282 C279 1.499 . S
C282 C283 1.373 1_655 S
C282 C284 1.389 . S
C283 H262 0.950 . S
C283 C282 1.373 1_455 S
C283 C299 1.377 . S
C284 C282 1.389 . S
C284 C285 1.524 . S
C284 C298 1.377 . S
C285 C284 1.524 . S
C285 C286 1.397 . S
C285 C290 1.363 . S
C286 H263 0.950 . S
C286 C285 1.397 . S
C286 C287 1.334 . S
C287 H264 0.950 . S
C287 C286 1.334 . S
C287 C288 1.287 . S
C288 C287 1.287 . S
C288 C289 1.524 . S
C288 H307 0.913 . S
C289 H265 0.950 . S
C289 C288 1.524 . S
C289 C290 1.415 . S
C290 H266 0.950 . S
C290 C285 1.363 . S
C290 C289 1.415 . S
C291 H267 0.951 . S
C291 C292 1.366 . S
C291 C293 1.388 . S
C292 C291 1.366 . S
C292 C296 1.385 . S
C293 H268 0.951 . S
C293 C291 1.388 . S
C293 C294 1.366 . S
C294 C293 1.366 . S
C294 C295 1.414 . S
C294 C297 1.499 . S
C295 H269 0.950 1_455 S
C295 C294 1.414 . S
C295 C296 1.374 . S
C296 H270 0.950 . S
C296 C292 1.385 . S
C296 C295 1.374 . S
C297 C294 1.499 . S
C297 C298 1.373 1_455 S
C297 C299 1.389 . S
C298 H271 0.950 . S
C298 C284 1.377 . S
C298 C297 1.373 1_655 S
C299 C283 1.377 . S
C299 C297 1.389 . S
C299 C300 1.524 . S
C300 C299 1.524 . S
C300 C301 1.397 . S
C300 C305 1.363 . S
C301 H272 0.950 . S
C301 C300 1.397 . S
C301 C302 1.334 . S
C302 H273 0.950 . S
C302 C301 1.334 . S
C302 C303 1.287 . S
C303 C302 1.287 . S
C303 C304 1.524 . S
C303 H306 0.999 . S
C304 H274 0.950 . S
C304 C303 1.524 . S
C304 C305 1.415 . S
C305 H275 0.950 . S
C305 C300 1.363 . S
C305 C304 1.415 . S
H306 C303 0.999 . S
H307 C288 0.913 . S
H308 C326 0.951 . S
H309 C328 0.951 . S
H310 C330 0.950 . S
H311 C331 0.950 . S
H312 C333 0.950 . S
H313 C336 0.950 . S
H314 C337 0.950 . S
H315 C339 0.950 . S
H316 C340 0.950 . S
H317 C341 0.951 . S
H318 C343 0.951 . S
H319 C345 0.950 . S
H320 C346 0.950 . S
H321 C348 0.950 . S
H322 C351 0.950 . S
H323 C352 0.950 . S
H324 C354 0.950 . S
H325 C355 0.950 . S
C326 H308 0.951 . S
C326 C327 1.366 . S
C326 C328 1.388 . S
C327 C326 1.366 . S
C327 C331 1.385 . S
C328 H309 0.951 . S
C328 C326 1.388 . S
C328 C329 1.366 . S
C329 C328 1.366 . S
C329 C330 1.414 . S
C329 C332 1.499 . S
C330 H310 0.950 . S
C330 C329 1.414 . S
C330 C331 1.374 . S
C331 H311 0.950 . S
C331 C327 1.385 . S
C331 C330 1.374 . S
C332 C329 1.499 . S
C332 C333 1.373 . S
C332 C334 1.389 . S
C333 H312 0.950 . S
C333 C332 1.373 . S
C333 C349 1.377 . S
C334 C332 1.389 . S
C334 C335 1.524 . S
C334 C348 1.377 . S
C335 C334 1.524 . S
C335 C336 1.397 . S
C335 C340 1.363 . S
C336 H313 0.950 . S
C336 C335 1.397 . S
C336 C337 1.334 . S
C337 H314 0.950 . S
C337 C336 1.334 . S
C337 C338 1.287 . S
C338 C337 1.287 . S
C338 C339 1.524 . S
C338 H357 0.913 . S
C339 H315 0.950 . S
C339 C338 1.524 . S
C339 C340 1.415 . S
C340 H316 0.950 . S
C340 C335 1.363 . S
C340 C339 1.415 . S
C341 H317 0.951 . S
C341 C342 1.366 . S
C341 C343 1.388 . S
C342 C341 1.366 . S
C342 C346 1.385 . S
C343 H318 0.951 . S
C343 C341 1.388 . S
C343 C344 1.366 . S
C344 C343 1.366 . S
C344 C345 1.414 . S
C344 C347 1.499 . S
C345 H319 0.950 . S
C345 C344 1.414 . S
C345 C346 1.374 . S
C346 H320 0.950 . S
C346 C342 1.385 . S
C346 C345 1.374 . S
C347 C344 1.499 . S
C347 C348 1.373 . S
C347 C349 1.389 . S
C348 H321 0.950 . S
C348 C334 1.377 . S
C348 C347 1.373 . S
C349 C333 1.377 . S
C349 C347 1.389 . S
C349 C350 1.524 . S
C350 C349 1.524 . S
C350 C351 1.397 . S
C350 C355 1.363 . S
C351 H322 0.950 . S
C351 C350 1.397 . S
C351 C352 1.334 . S
C352 H323 0.950 . S
C352 C351 1.334 . S
C352 C353 1.287 . S
C353 C352 1.287 . S
C353 C354 1.524 . S
C353 H356 0.999 . S
C354 H324 0.950 . S
C354 C353 1.524 . S
C354 C355 1.415 . S
C355 H325 0.950 . S
C355 C350 1.363 . S
C355 C354 1.415 . S
H356 C353 0.999 . S
H357 C338 0.913 . S
H358 C376 0.951 . S
H359 C378 0.951 . S
H360 C380 0.950 . S
H361 C381 0.950 . S
H362 C383 0.950 . S
H363 C386 0.950 . S
H364 C387 0.950 . S
H365 C389 0.950 1_565 S
H366 C390 0.950 1_565 S
H367 C391 0.951 . S
H368 C393 0.951 . S
H369 C395 0.950 . S
H370 C396 0.950 . S
H371 C398 0.950 . S
H372 C401 0.950 . S
H373 C402 0.950 . S
H374 C404 0.950 1_545 S
H375 C405 0.950 1_545 S
C376 H358 0.951 . S
C376 C377 1.366 . S
C376 C378 1.388 . S
C377 C376 1.366 . S
C377 C381 1.385 . S
C378 H359 0.951 . S
C378 C376 1.388 . S
C378 C379 1.366 . S
C379 C378 1.366 . S
C379 C380 1.414 . S
C379 C382 1.499 . S
C380 H360 0.950 . S
C380 C379 1.414 . S
C380 C381 1.374 . S
C381 H361 0.950 . S
C381 C377 1.385 . S
C381 C380 1.374 . S
C382 C379 1.499 . S
C382 C383 1.373 . S
C382 C384 1.389 . S
C383 H362 0.950 . S
C383 C382 1.373 . S
C383 C399 1.377 1_545 S
C384 C382 1.389 . S
C384 C385 1.524 . S
C384 C398 1.377 1_545 S
C385 C384 1.524 . S
C385 C386 1.397 . S
C385 C390 1.363 . S
C386 H363 0.950 . S
C386 C385 1.397 . S
C386 C387 1.334 . S
C387 H364 0.950 . S
C387 C386 1.334 . S
C387 C388 1.287 . S
C388 C387 1.287 . S
C388 C389 1.524 . S
C388 H407 0.913 . S
C389 H365 0.950 1_545 S
C389 C388 1.524 . S
C389 C390 1.415 . S
C390 H366 0.950 1_545 S
C390 C385 1.363 . S
C390 C389 1.415 . S
C391 H367 0.951 . S
C391 C392 1.366 . S
C391 C393 1.388 . S
C392 C391 1.366 . S
C392 C396 1.385 . S
C393 H368 0.951 . S
C393 C391 1.388 . S
C393 C394 1.366 . S
C394 C393 1.366 . S
C394 C395 1.414 . S
C394 C397 1.499 . S
C395 H369 0.950 . S
C395 C394 1.414 . S
C395 C396 1.374 . S
C396 H370 0.950 . S
C396 C392 1.385 . S
C396 C395 1.374 . S
C397 C394 1.499 . S
C397 C398 1.373 . S
C397 C399 1.389 . S
C398 H371 0.950 . S
C398 C384 1.377 1_565 S
C398 C397 1.373 . S
C399 C383 1.377 1_565 S
C399 C397 1.389 . S
C399 C400 1.524 . S
C400 C399 1.524 . S
C400 C401 1.397 . S
C400 C405 1.363 . S
C401 H372 0.950 . S
C401 C400 1.397 . S
C401 C402 1.334 . S
C402 H373 0.950 . S
C402 C401 1.334 . S
C402 C403 1.287 . S
C403 C402 1.287 . S
C403 C404 1.524 . S
C403 H406 0.999 . S
C404 H374 0.950 1_565 S
C404 C403 1.524 . S
C404 C405 1.415 . S
C405 H375 0.950 1_565 S
C405 C400 1.363 . S
C405 C404 1.415 . S
H406 C403 0.999 . S
H407 C388 0.913 . S
H408 C426 0.951 . S
H409 C428 0.951 . S
H410 C430 0.950 . S
H411 C431 0.950 . S
H412 C433 0.950 . S
H413 C436 0.950 . S
H414 C437 0.950 . S
H415 C439 0.957 . S
H416 C440 0.950 . S
H417 C441 0.951 . S
H418 C443 0.951 . S
H419 C445 0.950 . S
H420 C446 0.950 . S
H421 C448 0.950 . S
H422 C451 0.950 . S
H423 C452 0.950 . S
H424 C454 0.956 . S
H425 C455 0.950 . S
C426 H408 0.951 . S
C426 C427 1.366 . S
C426 C428 1.388 . S
C427 C426 1.366 . S
C427 C431 1.385 . S
C428 H409 0.951 . S
C428 C426 1.388 . S
C428 C429 1.366 . S
C429 C428 1.366 . S
C429 C430 1.414 . S
C429 C432 1.499 . S
C430 H410 0.950 . S
C430 C429 1.414 . S
C430 C431 1.374 . S
C431 H411 0.950 . S
C431 C427 1.385 . S
C431 C430 1.374 . S
C432 C429 1.499 . S
C432 C433 1.373 . S
C432 C434 1.389 . S
C433 H412 0.950 . S
C433 C432 1.373 . S
C433 C449 1.377 1_455 S
C434 C432 1.389 . S
C434 C435 1.524 . S
C434 C448 1.377 1_455 S
C435 C434 1.524 . S
C435 C436 1.397 . S
C435 C440 1.363 1_455 S
C436 H413 0.950 . S
C436 C435 1.397 . S
C436 C437 1.334 . S
C437 H414 0.950 . S
C437 C436 1.334 . S
C437 C438 1.287 . S
C438 C437 1.287 . S
C438 C439 1.516 1_455 S
C438 H457 0.913 . S
C439 H415 0.957 . S
C439 C438 1.516 1_655 S
C439 C440 1.416 . S
C440 H416 0.950 . S
C440 C435 1.363 1_655 S
C440 C439 1.416 . S
C441 H417 0.951 . S
C441 C442 1.366 . S
C441 C443 1.388 . S
C442 C441 1.366 . S
C442 C446 1.385 . S
C443 H418 0.951 . S
C443 C441 1.388 . S
C443 C444 1.366 . S
C444 C443 1.366 . S
C444 C445 1.414 . S
C444 C447 1.499 . S
C445 H419 0.950 . S
C445 C444 1.414 . S
C445 C446 1.374 . S
C446 H420 0.950 . S
C446 C442 1.385 . S
C446 C445 1.374 . S
C447 C444 1.499 . S
C447 C448 1.373 . S
C447 C449 1.389 . S
C448 H421 0.950 . S
C448 C434 1.377 1_655 S
C448 C447 1.373 . S
C449 C433 1.377 1_655 S
C449 C447 1.389 . S
C449 C450 1.524 . S
C450 C449 1.524 . S
C450 C451 1.397 . S
C450 C455 1.363 1_655 S
C451 H422 0.950 . S
C451 C450 1.397 . S
C451 C452 1.334 . S
C452 H423 0.950 . S
C452 C451 1.334 . S
C452 C453 1.287 . S
C453 C452 1.287 . S
C453 C454 1.516 1_655 S
C453 H456 0.999 . S
C454 H424 0.956 . S
C454 C453 1.516 1_455 S
C454 C455 1.416 . S
C455 H425 0.950 . S
C455 C450 1.363 1_455 S
C455 C454 1.416 . S
H456 C453 0.999 . S
H457 C438 0.913 . S
H458 C476 0.951 . S
H459 C478 0.951 . S
H460 C480 0.950 . S
H461 C481 0.950 . S
H462 C483 0.950 . S
H463 C486 0.950 . S
H464 C487 0.950 . S
H465 C489 0.950 . S
H466 C490 0.950 . S
H467 C491 0.951 . S
H468 C493 0.951 . S
H469 C495 0.950 . S
H470 C496 0.950 . S
H471 C498 0.950 . S
H472 C501 0.950 . S
H473 C502 0.950 . S
H474 C504 0.950 . S
H475 C505 0.950 . S
C476 H458 0.951 . S
C476 C477 1.366 . S
C476 C478 1.388 . S
C477 C476 1.366 . S
C477 C481 1.385 . S
C478 H459 0.951 . S
C478 C476 1.388 . S
C478 C479 1.366 . S
C479 C478 1.366 . S
C479 C480 1.414 . S
C479 C482 1.499 . S
C480 H460 0.950 . S
C480 C479 1.414 . S
C480 C481 1.374 . S
C481 H461 0.950 . S
C481 C477 1.385 . S
C481 C480 1.374 . S
C482 C479 1.499 . S
C482 C483 1.373 . S
C482 C484 1.389 . S
C483 H462 0.950 . S
C483 C482 1.373 . S
C483 C499 1.377 . S
C484 C482 1.389 . S
C484 C485 1.524 . S
C484 C498 1.377 . S
C485 C484 1.524 . S
C485 C486 1.397 . S
C485 C490 1.363 . S
C486 H463 0.950 . S
C486 C485 1.397 . S
C486 C487 1.334 . S
C487 H464 0.950 . S
C487 C486 1.334 . S
C487 C488 1.287 . S
C488 C487 1.287 . S
C488 C489 1.524 . S
C488 H507 0.913 . S
C489 H465 0.950 . S
C489 C488 1.524 . S
C489 C490 1.415 . S
C490 H466 0.950 . S
C490 C485 1.363 . S
C490 C489 1.415 . S
C491 H467 0.951 . S
C491 C492 1.366 . S
C491 C493 1.388 . S
C492 C491 1.366 . S
C492 C496 1.385 . S
C493 H468 0.951 . S
C493 C491 1.388 . S
C493 C494 1.366 . S
C494 C493 1.366 . S
C494 C495 1.414 . S
C494 C497 1.499 . S
C495 H469 0.950 . S
C495 C494 1.414 . S
C495 C496 1.374 . S
C496 H470 0.950 . S
C496 C492 1.385 . S
C496 C495 1.374 . S
C497 C494 1.499 . S
C497 C498 1.373 . S
C497 C499 1.389 . S
C498 H471 0.950 . S
C498 C484 1.377 . S
C498 C497 1.373 . S
C499 C483 1.377 . S
C499 C497 1.389 . S
C499 C500 1.524 . S
C500 C499 1.524 . S
C500 C501 1.397 . S
C500 C505 1.363 . S
C501 H472 0.950 . S
C501 C500 1.397 . S
C501 C502 1.334 . S
C502 H473 0.950 . S
C502 C501 1.334 . S
C502 C503 1.287 . S
C503 C502 1.287 . S
C503 C504 1.524 . S
C503 H506 0.999 . S
C504 H474 0.950 . S
C504 C503 1.524 . S
C504 C505 1.415 . S
C505 H475 0.950 . S
C505 C500 1.363 . S
C505 C504 1.415 . S
H506 C503 0.999 . S
H507 C488 0.913 . S
H508 C526 0.951 . S
H509 C528 0.958 . S
H510 C530 0.950 . S
H511 C531 0.950 . S
H512 C533 0.950 . S
H513 C536 0.950 . S
H514 C537 0.950 . S
H515 C539 0.950 . S
H516 C540 0.950 . S
H517 C541 0.951 . S
H518 C543 0.961 . S
H519 C545 0.950 . S
H520 C546 0.950 . S
H521 C548 0.950 . S
H522 C551 0.950 . S
H523 C552 0.950 . S
H524 C554 0.950 . S
H525 C555 0.950 . S
C526 H508 0.951 . S
C526 C527 1.366 . S
C526 C528 1.388 . S
C527 C526 1.366 . S
C527 C531 1.385 . S
C528 H509 0.958 . S
C528 C526 1.388 . S
C528 C529 1.366 . S
C529 C528 1.366 . S
C529 C530 1.414 . S
C529 C532 1.499 . S
C530 H510 0.950 . S
C530 C529 1.414 . S
C530 C531 1.374 . S
C531 H511 0.950 . S
C531 C527 1.385 . S
C531 C530 1.374 . S
C532 C529 1.499 . S
C532 C533 1.373 . S
C532 C534 1.389 1_545 S
C533 H512 0.950 . S
C533 C532 1.373 . S
C533 C549 1.377 . S
C534 C532 1.389 1_565 S
C534 C535 1.524 . S
C534 C548 1.377 . S
C535 C534 1.524 . S
C535 C536 1.397 . S
C535 C540 1.363 . S
C536 H513 0.950 . S
C536 C535 1.397 . S
C536 C537 1.334 . S
C537 H514 0.950 . S
C537 C536 1.334 . S
C537 C538 1.287 . S
C538 C537 1.287 . S
C538 C539 1.524 . S
C538 H557 0.913 . S
C539 H515 0.950 . S
C539 C538 1.524 . S
C539 C540 1.415 . S
C540 H516 0.950 . S
C540 C535 1.363 . S
C540 C539 1.415 . S
C541 H517 0.951 . S
C541 C542 1.366 . S
C541 C543 1.388 . S
C542 C541 1.366 . S
C542 C546 1.385 . S
C543 H518 0.961 . S
C543 C541 1.388 . S
C543 C544 1.366 . S
C544 C543 1.366 . S
C544 C545 1.414 . S
C544 C547 1.499 . S
C545 H519 0.950 . S
C545 C544 1.414 . S
C545 C546 1.374 . S
C546 H520 0.950 . S
C546 C542 1.385 . S
C546 C545 1.374 . S
C547 C544 1.499 . S
C547 C548 1.373 . S
C547 C549 1.389 1_565 S
C548 H521 0.950 . S
C548 C534 1.377 . S
C548 C547 1.373 . S
C549 C533 1.377 . S
C549 C547 1.389 1_545 S
C549 C550 1.524 . S
C550 C549 1.524 . S
C550 C551 1.397 . S
C550 C555 1.363 . S
C551 H522 0.950 . S
C551 C550 1.397 . S
C551 C552 1.334 . S
C552 H523 0.950 . S
C552 C551 1.334 . S
C552 C553 1.287 . S
C553 C552 1.287 . S
C553 C554 1.524 . S
C553 H556 0.999 . S
C554 H524 0.950 . S
C554 C553 1.524 . S
C554 C555 1.415 . S
C555 H525 0.950 . S
C555 C550 1.363 . S
C555 C554 1.415 . S
H556 C553 0.999 . S
H557 C538 0.913 . S
H558 C576 0.951 . S
H559 C578 0.951 . S
H560 C580 0.950 1_655 S
H561 C581 0.950 . S
H562 C583 0.950 . S
H563 C586 0.950 . S
H564 C587 0.950 . S
H565 C589 0.950 1_565 S
H566 C590 0.950 . S
H567 C591 0.951 . S
H568 C593 0.951 . S
H569 C595 0.950 1_455 S
H570 C596 0.950 . S
H571 C598 0.950 . S
H572 C601 0.950 . S
H573 C602 0.950 . S
H574 C604 0.950 1_545 S
H575 C605 0.950 . S
C576 H558 0.951 . S
C576 C577 1.366 . S
C576 C578 1.388 . S
C577 C576 1.366 . S
C577 C581 1.385 . S
C578 H559 0.951 . S
C578 C576 1.388 . S
C578 C579 1.366 . S
C579 C578 1.366 . S
C579 C580 1.414 . S
C579 C582 1.499 . S
C580 H560 0.950 1_455 S
C580 C579 1.414 . S
C580 C581 1.374 . S
C581 H561 0.950 . S
C581 C577 1.385 . S
C581 C580 1.374 . S
C582 C579 1.499 . S
C582 C583 1.373 1_455 S
C582 C584 1.389 . S
C583 H562 0.950 . S
C583 C582 1.373 1_655 S
C583 C599 1.377 1_545 S
C584 C582 1.389 . S
C584 C585 1.524 . S
C584 C598 1.377 1_545 S
C585 C584 1.524 . S
C585 C586 1.397 . S
C585 C590 1.363 1_545 S
C586 H563 0.950 . S
C586 C585 1.397 . S
C586 C587 1.334 . S
C587 H564 0.950 . S
C587 C586 1.334 . S
C587 C588 1.287 . S
C588 C587 1.287 . S
C588 C589 1.524 . S
C588 H607 0.913 . S
C589 H565 0.950 1_545 S
C589 C588 1.524 . S
C589 C590 1.415 1_545 S
C590 H566 0.950 . S
C590 C585 1.363 1_565 S
C590 C589 1.415 1_565 S
C591 H567 0.951 . S
C591 C592 1.366 . S
C591 C593 1.388 . S
C592 C591 1.366 . S
C592 C596 1.385 . S
C593 H568 0.951 . S
C593 C591 1.388 . S
C593 C594 1.366 . S
C594 C593 1.366 . S
C594 C595 1.414 . S
C594 C597 1.499 . S
C595 H569 0.950 1_655 S
C595 C594 1.414 . S
C595 C596 1.374 . S
C596 H570 0.950 . S
C596 C592 1.385 . S
C596 C595 1.374 . S
C597 C594 1.499 . S
C597 C598 1.373 1_655 S
C597 C599 1.389 . S
C598 H571 0.950 . S
C598 C584 1.377 1_565 S
C598 C597 1.373 1_455 S
C599 C583 1.377 1_565 S
C599 C597 1.389 . S
C599 C600 1.524 . S
C600 C599 1.524 . S
C600 C601 1.397 . S
C600 C605 1.363 1_565 S
C601 H572 0.950 . S
C601 C600 1.397 . S
C601 C602 1.334 . S
C602 H573 0.950 . S
C602 C601 1.334 . S
C602 C603 1.287 . S
C603 C602 1.287 . S
C603 C604 1.524 . S
C603 H606 0.999 . S
C604 H574 0.950 1_565 S
C604 C603 1.524 . S
C604 C605 1.415 1_565 S
C605 H575 0.950 . S
C605 C600 1.363 1_545 S
C605 C604 1.415 1_545 S
H606 C603 0.999 . S
H607 C588 0.913 . S
H608 C626 0.951 . S
H609 C628 0.951 . S
H610 C630 0.950 1_545 S
H611 C631 0.950 . S
H612 C633 0.950 . S
H613 C636 0.950 1_545 S
H614 C637 0.950 . S
H615 C639 0.950 . S
H616 C640 0.950 . S
H617 C641 0.951 . S
H618 C643 0.951 . S
H619 C645 0.950 1_565 S
H620 C646 0.950 . S
H621 C648 0.950 . S
H622 C651 0.950 1_565 S
H623 C652 0.950 . S
H624 C654 0.950 . S
H625 C655 0.950 . S
C626 H608 0.951 . S
C626 C627 1.366 . S
C626 C628 1.388 . S
C627 C626 1.366 . S
C627 C631 1.385 . S
C628 H609 0.951 . S
C628 C626 1.388 . S
C628 C629 1.366 . S
C629 C628 1.366 . S
C629 C630 1.414 . S
C629 C632 1.499 . S
C630 H610 0.950 1_565 S
C630 C629 1.414 . S
C630 C631 1.374 . S
C631 H611 0.950 . S
C631 C627 1.385 . S
C631 C630 1.374 . S
C632 C629 1.499 . S
C632 C633 1.373 1_565 S
C632 C634 1.389 . S
C633 H612 0.950 . S
C633 C632 1.373 1_545 S
C633 C649 1.377 . S
C634 C632 1.389 . S
C634 C635 1.524 . S
C634 C648 1.377 . S
C635 C634 1.524 . S
C635 C636 1.397 . S
C635 C640 1.363 . S
C636 H613 0.950 1_565 S
C636 C635 1.397 . S
C636 C637 1.334 . S
C637 H614 0.950 . S
C637 C636 1.334 . S
C637 C638 1.287 . S
C638 C637 1.287 . S
C638 C639 1.524 . S
C638 H657 0.913 . S
C639 H615 0.950 . S
C639 C638 1.524 . S
C639 C640 1.415 . S
C640 H616 0.950 . S
C640 C635 1.363 . S
C640 C639 1.415 . S
C641 H617 0.951 . S
C641 C642 1.366 . S
C641 C643 1.388 . S
C642 C641 1.366 . S
C642 C646 1.385 . S
C643 H618 0.951 . S
C643 C641 1.388 . S
C643 C644 1.366 . S
C644 C643 1.366 . S
C644 C645 1.414 . S
C644 C647 1.499 . S
C645 H619 0.950 1_545 S
C645 C644 1.414 . S
C645 C646 1.374 . S
C646 H620 0.950 . S
C646 C642 1.385 . S
C646 C645 1.374 . S
C647 C644 1.499 . S
C647 C648 1.373 1_545 S
C647 C649 1.389 . S
C648 H621 0.950 . S
C648 C634 1.377 . S
C648 C647 1.373 1_565 S
C649 C633 1.377 . S
C649 C647 1.389 . S
C649 C650 1.524 . S
C650 C649 1.524 . S
C650 C651 1.397 . S
C650 C655 1.363 . S
C651 H622 0.950 1_545 S
C651 C650 1.397 . S
C651 C652 1.334 . S
C652 H623 0.950 . S
C652 C651 1.334 . S
C652 C653 1.287 . S
C653 C652 1.287 . S
C653 C654 1.524 . S
C653 H656 0.999 . S
C654 H624 0.950 . S
C654 C653 1.524 . S
C654 C655 1.415 . S
C655 H625 0.950 . S
C655 C650 1.363 . S
C655 C654 1.415 . S
H656 C653 0.999 . S
H657 C638 0.913 . S
H658 C676 0.951 . S
H659 C678 0.951 . S
H660 C680 0.950 1_455 S
H661 C681 0.950 . S
H662 C683 0.950 . S
H663 C686 0.949 . S
H664 C687 0.950 1_455 S
H665 C689 0.950 . S
H666 C690 0.950 1_545 S
H667 C691 0.951 . S
H668 C693 0.951 . S
H669 C695 0.950 1_655 S
H670 C696 0.950 . S
H671 C698 0.950 . S
H672 C701 0.951 1_655 S
H673 C702 0.950 1_655 S
H674 C704 0.950 . S
H675 C705 0.950 1_565 S
C676 H658 0.951 . S
C676 C677 1.366 . S
C676 C678 1.388 . S
C677 C676 1.366 . S
C677 C681 1.385 . S
C678 H659 0.951 . S
C678 C676 1.388 . S
C678 C679 1.366 . S
C679 C678 1.366 . S
C679 C680 1.414 . S
C679 C682 1.499 . S
C680 H660 0.950 1_655 S
C680 C679 1.414 . S
C680 C681 1.374 . S
C681 H661 0.950 . S
C681 C677 1.385 . S
C681 C680 1.374 . S
C682 C679 1.499 . S
C682 C683 1.373 . S
C682 C684 1.389 . S
C683 H662 0.950 . S
C683 C682 1.373 . S
C683 C699 1.377 1_665 S
C684 C682 1.389 . S
C684 C685 1.524 . S
C684 C698 1.377 1_665 S
C685 C684 1.524 . S
C685 C686 1.397 1_655 S
C685 C690 1.363 . S
C686 H663 0.949 . S
C686 C685 1.397 1_455 S
C686 C687 1.334 1_455 S
C687 H664 0.950 1_655 S
C687 C686 1.334 1_655 S
C687 C688 1.287 . S
C688 C687 1.287 . S
C688 C689 1.524 . S
C688 H707 0.913 . S
C689 H665 0.950 . S
C689 C688 1.524 . S
C689 C690 1.415 . S
C690 H666 0.950 1_565 S
C690 C685 1.363 . S
C690 C689 1.415 . S
C691 H667 0.951 . S
C691 C692 1.366 . S
C691 C693 1.388 . S
C692 C691 1.366 . S
C692 C696 1.385 . S
C693 H668 0.951 . S
C693 C691 1.388 . S
C693 C694 1.366 . S
C694 C693 1.366 . S
C694 C695 1.414 . S
C694 C697 1.499 . S
C695 H669 0.950 1_455 S
C695 C694 1.414 . S
C695 C696 1.374 . S
C696 H670 0.950 . S
C696 C692 1.385 . S
C696 C695 1.374 . S
C697 C694 1.499 . S
C697 C698 1.373 . S
C697 C699 1.389 . S
C698 H671 0.950 . S
C698 C684 1.377 1_445 S
C698 C697 1.373 . S
C699 C683 1.377 1_445 S
C699 C697 1.389 . S
C699 C700 1.524 . S
C700 C699 1.524 . S
C700 C701 1.395 . S
C700 C705 1.363 . S
C701 H672 0.951 1_455 S
C701 C700 1.395 . S
C701 C702 1.334 . S
C702 H673 0.950 1_455 S
C702 C701 1.334 . S
C702 C703 1.287 . S
C703 C702 1.287 . S
C703 C704 1.524 . S
C703 H706 0.999 . S
C704 H674 0.950 . S
C704 C703 1.524 . S
C704 C705 1.415 . S
C705 H675 0.950 1_545 S
C705 C700 1.363 . S
C705 C704 1.415 . S
H706 C703 0.999 . S
H707 C688 0.913 . S
H708 C726 0.951 . S
H709 C728 0.951 . S
H710 C730 0.950 . S
H711 C731 0.950 . S
H712 C733 0.950 . S
H713 C736 0.950 . S
H714 C737 0.950 . S
H715 C739 0.950 . S
H716 C740 0.950 . S
H717 C741 0.951 . S
H718 C743 0.951 . S
H719 C745 0.950 . S
H720 C746 0.950 . S
H721 C748 0.950 . S
H722 C751 0.950 . S
H723 C752 0.950 . S
H724 C754 0.950 . S
H725 C755 0.950 . S
C726 H708 0.951 . S
C726 C727 1.366 . S
C726 C728 1.388 . S
C727 C726 1.366 . S
C727 C731 1.385 . S
C728 H709 0.951 . S
C728 C726 1.388 . S
C728 C729 1.366 . S
C729 C728 1.366 . S
C729 C730 1.414 . S
C729 C732 1.499 . S
C730 H710 0.950 . S
C730 C729 1.414 . S
C730 C731 1.374 . S
C731 H711 0.950 . S
C731 C727 1.385 . S
C731 C730 1.374 . S
C732 C729 1.499 . S
C732 C733 1.373 . S
C732 C734 1.389 . S
C733 H712 0.950 . S
C733 C732 1.373 . S
C733 C749 1.377 1_455 S
C734 C732 1.389 . S
C734 C735 1.524 . S
C734 C748 1.377 1_455 S
C735 C734 1.524 . S
C735 C736 1.397 . S
C735 C740 1.363 . S
C736 H713 0.950 . S
C736 C735 1.397 . S
C736 C737 1.334 . S
C737 H714 0.950 . S
C737 C736 1.334 . S
C737 C738 1.287 . S
C738 C737 1.287 . S
C738 C739 1.524 . S
C738 H757 0.913 . S
C739 H715 0.950 . S
C739 C738 1.524 . S
C739 C740 1.415 . S
C740 H716 0.950 . S
C740 C735 1.363 . S
C740 C739 1.415 . S
C741 H717 0.951 . S
C741 C742 1.366 . S
C741 C743 1.388 . S
C742 C741 1.366 . S
C742 C746 1.385 . S
C743 H718 0.951 . S
C743 C741 1.388 . S
C743 C744 1.366 . S
C744 C743 1.366 . S
C744 C745 1.414 . S
C744 C747 1.499 . S
C745 H719 0.950 . S
C745 C744 1.414 . S
C745 C746 1.374 . S
C746 H720 0.950 . S
C746 C742 1.385 . S
C746 C745 1.374 . S
C747 C744 1.499 . S
C747 C748 1.373 . S
C747 C749 1.389 . S
C748 H721 0.950 . S
C748 C734 1.377 1_655 S
C748 C747 1.373 . S
C749 C733 1.377 1_655 S
C749 C747 1.389 . S
C749 C750 1.524 . S
C750 C749 1.524 . S
C750 C751 1.397 . S
C750 C755 1.363 . S
C751 H722 0.950 . S
C751 C750 1.397 . S
C751 C752 1.334 . S
C752 H723 0.950 . S
C752 C751 1.334 . S
C752 C753 1.287 . S
C753 C752 1.287 . S
C753 C754 1.524 . S
C753 H756 0.999 . S
C754 H724 0.950 . S
C754 C753 1.524 . S
C754 C755 1.415 . S
C755 H725 0.950 . S
C755 C750 1.363 . S
C755 C754 1.415 . S
H756 C753 0.999 . S
H757 C738 0.913 . S
H758 C776 0.951 . S
H759 C778 0.951 . S
H760 C780 0.950 . S
H761 C781 0.950 . S
H762 C783 0.950 . S
H763 C786 0.950 . S
H764 C787 0.950 . S
H765 C789 0.950 . S
H766 C790 0.950 . S
H767 C791 0.951 . S
H768 C793 0.951 . S
H769 C795 0.950 . S
H770 C796 0.950 . S
H771 C798 0.950 . S
H772 C801 0.950 . S
H773 C802 0.950 . S
H774 C804 0.950 . S
H775 C805 0.950 . S
C776 H758 0.951 . S
C776 C777 1.366 . S
C776 C778 1.388 . S
C777 C776 1.366 . S
C777 C781 1.385 . S
C778 H759 0.951 . S
C778 C776 1.388 . S
C778 C779 1.366 . S
C779 C778 1.366 . S
C779 C780 1.414 . S
C779 C782 1.499 . S
C780 H760 0.950 . S
C780 C779 1.414 . S
C780 C781 1.374 . S
C781 H761 0.950 . S
C781 C777 1.385 . S
C781 C780 1.374 . S
C782 C779 1.499 . S
C782 C783 1.373 . S
C782 C784 1.389 . S
C783 H762 0.950 . S
C783 C782 1.373 . S
C783 C799 1.377 . S
C784 C782 1.389 . S
C784 C785 1.524 . S
C784 C798 1.377 . S
C785 C784 1.524 . S
C785 C786 1.397 . S
C785 C790 1.363 . S
C786 H763 0.950 . S
C786 C785 1.397 . S
C786 C787 1.334 . S
C787 H764 0.950 . S
C787 C786 1.334 . S
C787 C788 1.287 . S
C788 C787 1.287 . S
C788 C789 1.524 . S
C788 H807 0.913 . S
C789 H765 0.950 . S
C789 C788 1.524 . S
C789 C790 1.415 . S
C790 H766 0.950 . S
C790 C785 1.363 . S
C790 C789 1.415 . S
C791 H767 0.951 . S
C791 C792 1.366 . S
C791 C793 1.388 . S
C792 C791 1.366 . S
C792 C796 1.385 . S
C793 H768 0.951 . S
C793 C791 1.388 . S
C793 C794 1.366 . S
C794 C793 1.366 . S
C794 C795 1.414 . S
C794 C797 1.499 . S
C795 H769 0.950 . S
C795 C794 1.414 . S
C795 C796 1.374 . S
C796 H770 0.950 . S
C796 C792 1.385 . S
C796 C795 1.374 . S
C797 C794 1.499 . S
C797 C798 1.373 . S
C797 C799 1.389 . S
C798 H771 0.950 . S
C798 C784 1.377 . S
C798 C797 1.373 . S
C799 C783 1.377 . S
C799 C797 1.389 . S
C799 C800 1.524 . S
C800 C799 1.524 . S
C800 C801 1.397 . S
C800 C805 1.363 . S
C801 H772 0.950 . S
C801 C800 1.397 . S
C801 C802 1.334 . S
C802 H773 0.950 . S
C802 C801 1.334 . S
C802 C803 1.287 . S
C803 C802 1.287 . S
C803 C804 1.524 . S
C803 H806 0.999 . S
C804 H774 0.950 . S
C804 C803 1.524 . S
C804 C805 1.415 . S
C805 H775 0.950 . S
C805 C800 1.363 . S
C805 C804 1.415 . S
H806 C803 0.999 . S
H807 C788 0.913 . S
H808 C826 0.951 . S
H809 C828 0.951 . S
H810 C830 0.950 . S
H811 C831 0.950 . S
H812 C833 0.950 . S
H813 C836 0.950 . S
H814 C837 0.950 . S
H815 C839 0.950 . S
H816 C840 0.950 . S
H817 C841 0.951 . S
H818 C843 0.951 . S
H819 C845 0.950 . S
H820 C846 0.950 . S
H821 C848 0.950 . S
H822 C851 0.950 . S
H823 C852 0.950 . S
H824 C854 0.950 . S
H825 C855 0.950 . S
C826 H808 0.951 . S
C826 C827 1.366 . S
C826 C828 1.388 . S
C827 C826 1.366 . S
C827 C831 1.385 . S
C828 H809 0.951 . S
C828 C826 1.388 . S
C828 C829 1.366 . S
C829 C828 1.366 . S
C829 C830 1.414 . S
C829 C832 1.499 . S
C830 H810 0.950 . S
C830 C829 1.414 . S
C830 C831 1.374 . S
C831 H811 0.950 . S
C831 C827 1.385 . S
C831 C830 1.374 . S
C832 C829 1.499 . S
C832 C833 1.373 . S
C832 C834 1.389 . S
C833 H812 0.950 . S
C833 C832 1.373 . S
C833 C849 1.377 . S
C834 C832 1.389 . S
C834 C835 1.524 . S
C834 C848 1.377 . S
C835 C834 1.524 . S
C835 C836 1.397 . S
C835 C840 1.363 . S
C836 H813 0.950 . S
C836 C835 1.397 . S
C836 C837 1.334 . S
C837 H814 0.950 . S
C837 C836 1.334 . S
C837 C838 1.287 . S
C838 C837 1.287 . S
C838 C839 1.524 . S
C838 H857 0.913 . S
C839 H815 0.950 . S
C839 C838 1.524 . S
C839 C840 1.415 . S
C840 H816 0.950 . S
C840 C835 1.363 . S
C840 C839 1.415 . S
C841 H817 0.951 . S
C841 C842 1.366 . S
C841 C843 1.388 . S
C842 C841 1.366 . S
C842 C846 1.385 . S
C843 H818 0.951 . S
C843 C841 1.388 . S
C843 C844 1.366 . S
C844 C843 1.366 . S
C844 C845 1.414 . S
C844 C847 1.499 . S
C845 H819 0.950 . S
C845 C844 1.414 . S
C845 C846 1.374 . S
C846 H820 0.950 . S
C846 C842 1.385 . S
C846 C845 1.374 . S
C847 C844 1.499 . S
C847 C848 1.373 . S
C847 C849 1.389 . S
C848 H821 0.950 . S
C848 C834 1.377 . S
C848 C847 1.373 . S
C849 C833 1.377 . S
C849 C847 1.389 . S
C849 C850 1.524 . S
C850 C849 1.524 . S
C850 C851 1.397 . S
C850 C855 1.363 . S
C851 H822 0.950 . S
C851 C850 1.397 . S
C851 C852 1.334 . S
C852 H823 0.950 . S
C852 C851 1.334 . S
C852 C853 1.287 . S
C853 C852 1.287 . S
C853 C854 1.524 . S
C853 H856 0.999 . S
C854 H824 0.950 . S
C854 C853 1.524 . S
C854 C855 1.415 . S
C855 H825 0.950 . S
C855 C850 1.363 . S
C855 C854 1.415 . S
H856 C853 0.999 . S
H857 C838 0.913 . S
H858 C876 0.951 . S
H859 C878 0.951 . S
H860 C880 0.950 . S
H861 C881 0.950 . S
H862 C883 0.950 . S
H863 C886 0.950 . S
H864 C887 0.950 . S
H865 C889 0.950 . S
H866 C890 0.950 . S
H867 C891 0.951 . S
H868 C893 0.951 . S
H869 C895 0.950 . S
H870 C896 0.950 . S
H871 C898 0.950 . S
H872 C901 0.950 . S
H873 C902 0.950 . S
H874 C904 0.950 . S
H875 C905 0.950 . S
C876 H858 0.951 . S
C876 C877 1.366 . S
C876 C878 1.388 . S
C877 C876 1.366 . S
C877 C881 1.385 . S
C878 H859 0.951 . S
C878 C876 1.388 . S
C878 C879 1.366 . S
C879 C878 1.366 . S
C879 C880 1.414 . S
C879 C882 1.499 . S
C880 H860 0.950 . S
C880 C879 1.414 . S
C880 C881 1.374 . S
C881 H861 0.950 . S
C881 C877 1.385 . S
C881 C880 1.374 . S
C882 C879 1.499 . S
C882 C883 1.373 . S
C882 C884 1.389 . S
C883 H862 0.950 . S
C883 C882 1.373 . S
C883 C899 1.377 1_565 S
C884 C882 1.389 . S
C884 C885 1.524 . S
C884 C898 1.377 1_565 S
C885 C884 1.524 . S
C885 C886 1.397 . S
C885 C890 1.363 1_565 S
C886 H863 0.950 . S
C886 C885 1.397 . S
C886 C887 1.334 . S
C887 H864 0.950 . S
C887 C886 1.334 . S
C887 C888 1.287 . S
C888 C887 1.287 . S
C888 C889 1.524 1_565 S
C888 H907 0.913 . S
C889 H865 0.950 . S
C889 C888 1.524 1_545 S
C889 C890 1.415 . S
C890 H866 0.950 . S
C890 C885 1.363 1_545 S
C890 C889 1.415 . S
C891 H867 0.951 . S
C891 C892 1.366 . S
C891 C893 1.388 . S
C892 C891 1.366 . S
C892 C896 1.385 . S
C893 H868 0.951 . S
C893 C891 1.388 . S
C893 C894 1.366 . S
C894 C893 1.366 . S
C894 C895 1.414 . S
C894 C897 1.499 . S
C895 H869 0.950 . S
C895 C894 1.414 . S
C895 C896 1.374 . S
C896 H870 0.950 . S
C896 C892 1.385 . S
C896 C895 1.374 . S
C897 C894 1.499 . S
C897 C898 1.373 . S
C897 C899 1.389 . S
C898 H871 0.950 . S
C898 C884 1.377 1_545 S
C898 C897 1.373 . S
C899 C883 1.377 1_545 S
C899 C897 1.389 . S
C899 C900 1.524 . S
C900 C899 1.524 . S
C900 C901 1.397 . S
C900 C905 1.363 1_545 S
C901 H872 0.950 . S
C901 C900 1.397 . S
C901 C902 1.334 . S
C902 H873 0.950 . S
C902 C901 1.334 . S
C902 C903 1.287 . S
C903 C902 1.287 . S
C903 C904 1.524 1_545 S
C903 H906 0.999 . S
C904 H874 0.950 . S
C904 C903 1.524 1_565 S
C904 C905 1.415 . S
C905 H875 0.950 . S
C905 C900 1.363 1_565 S
C905 C904 1.415 . S
H906 C903 0.999 . S
H907 C888 0.913 . S
H908 C926 0.951 . S
H909 C928 0.951 . S
H910 C930 0.950 . S
H911 C931 0.950 . S
H912 C933 0.950 . S
H913 C936 0.950 . S
H914 C937 0.950 . S
H915 C939 0.950 . S
H916 C940 0.950 . S
H917 C941 0.951 . S
H918 C943 0.951 . S
H919 C945 0.950 . S
H920 C946 0.950 . S
H921 C948 0.950 . S
H922 C951 0.950 . S
H923 C952 0.950 . S
H924 C954 0.950 . S
H925 C955 0.950 . S
C926 H908 0.951 . S
C926 C927 1.366 . S
C926 C928 1.388 . S
C927 C926 1.366 . S
C927 C931 1.385 . S
C928 H909 0.951 . S
C928 C926 1.388 . S
C928 C929 1.366 . S
C929 C928 1.366 . S
C929 C930 1.414 . S
C929 C932 1.499 . S
C930 H910 0.950 . S
C930 C929 1.414 . S
C930 C931 1.374 . S
C931 H911 0.950 . S
C931 C927 1.385 . S
C931 C930 1.374 . S
C932 C929 1.499 . S
C932 C933 1.373 . S
C932 C934 1.389 1_565 S
C933 H912 0.950 . S
C933 C932 1.373 . S
C933 C949 1.377 1_655 S
C934 C932 1.389 1_545 S
C934 C935 1.524 . S
C934 C948 1.377 1_655 S
C935 C934 1.524 . S
C935 C936 1.397 . S
C935 C940 1.363 . S
C936 H913 0.950 . S
C936 C935 1.397 . S
C936 C937 1.334 . S
C937 H914 0.950 . S
C937 C936 1.334 . S
C937 C938 1.287 . S
C938 C937 1.287 . S
C938 C939 1.524 . S
C938 H957 0.913 . S
C939 H915 0.950 . S
C939 C938 1.524 . S
C939 C940 1.415 . S
C940 H916 0.950 . S
C940 C935 1.363 . S
C940 C939 1.415 . S
C941 H917 0.951 . S
C941 C942 1.366 . S
C941 C943 1.388 . S
C942 C941 1.366 . S
C942 C946 1.385 . S
C943 H918 0.951 . S
C943 C941 1.388 . S
C943 C944 1.366 . S
C944 C943 1.366 . S
C944 C945 1.414 . S
C944 C947 1.499 . S
C945 H919 0.950 . S
C945 C944 1.414 . S
C945 C946 1.374 . S
C946 H920 0.950 . S
C946 C942 1.385 . S
C946 C945 1.374 . S
C947 C944 1.499 . S
C947 C948 1.373 . S
C947 C949 1.389 1_545 S
C948 H921 0.950 . S
C948 C934 1.377 1_455 S
C948 C947 1.373 . S
C949 C933 1.377 1_455 S
C949 C947 1.389 1_565 S
C949 C950 1.524 . S
C950 C949 1.524 . S
C950 C951 1.397 . S
C950 C955 1.363 . S
C951 H922 0.950 . S
C951 C950 1.397 . S
C951 C952 1.334 . S
C952 H923 0.950 . S
C952 C951 1.334 . S
C952 C953 1.287 . S
C953 C952 1.287 . S
C953 C954 1.524 . S
C953 H956 0.999 . S
C954 H924 0.950 . S
C954 C953 1.524 . S
C954 C955 1.415 . S
C955 H925 0.950 . S
C955 C950 1.363 . S
C955 C954 1.415 . S
H956 C953 0.999 . S
H957 C938 0.913 . S
H958 C976 0.951 . S
H959 C978 0.951 . S
H960 C980 0.950 1_655 S
H961 C981 0.950 . S
H962 C983 0.950 . S
H963 C986 0.950 . S
H964 C987 0.950 . S
H965 C989 0.950 . S
H966 C990 0.950 . S
H967 C991 0.951 . S
H968 C993 0.951 . S
H969 C995 0.950 1_455 S
H970 C996 0.950 . S
H971 C998 0.950 . S
H972 C1001 0.950 . S
H973 C1002 0.950 . S
H974 C1004 0.950 . S
H975 C1005 0.950 . S
C976 H958 0.951 . S
C976 C977 1.366 . S
C976 C978 1.388 . S
C977 C976 1.366 . S
C977 C981 1.385 . S
C978 H959 0.951 . S
C978 C976 1.388 . S
C978 C979 1.366 . S
C979 C978 1.366 . S
C979 C980 1.414 . S
C979 C982 1.499 . S
C980 H960 0.950 1_455 S
C980 C979 1.414 . S
C980 C981 1.374 . S
C981 H961 0.950 . S
C981 C977 1.385 . S
C981 C980 1.374 . S
C982 C979 1.499 . S
C982 C983 1.373 1_455 S
C982 C984 1.389 . S
C983 H962 0.950 . S
C983 C982 1.373 1_655 S
C983 C999 1.377 . S
C984 C982 1.389 . S
C984 C985 1.524 . S
C984 C998 1.377 . S
C985 C984 1.524 . S
C985 C986 1.397 . S
C985 C990 1.363 . S
C986 H963 0.950 . S
C986 C985 1.397 . S
C986 C987 1.334 . S
C987 H964 0.950 . S
C987 C986 1.334 . S
C987 C988 1.287 . S
C988 C987 1.287 . S
C988 C989 1.524 . S
C988 H1007 0.913 . S
C989 H965 0.950 . S
C989 C988 1.524 . S
C989 C990 1.415 . S
C990 H966 0.950 . S
C990 C985 1.363 . S
C990 C989 1.415 . S
C991 H967 0.951 . S
C991 C992 1.366 . S
C991 C993 1.388 . S
C992 C991 1.366 . S
C992 C996 1.385 . S
C993 H968 0.951 . S
C993 C991 1.388 . S
C993 C994 1.366 . S
C994 C993 1.366 . S
C994 C995 1.414 . S
C994 C997 1.499 . S
C995 H969 0.950 1_655 S
C995 C994 1.414 . S
C995 C996 1.374 . S
C996 H970 0.950 . S
C996 C992 1.385 . S
C996 C995 1.374 . S
C997 C994 1.499 . S
C997 C998 1.373 1_655 S
C997 C999 1.389 . S
C998 H971 0.950 . S
C998 C984 1.377 . S
C998 C997 1.373 1_455 S
C999 C983 1.377 . S
C999 C997 1.389 . S
C999 C1000 1.524 . S
C1000 C999 1.524 . S
C1000 C1001 1.397 . S
C1000 C1005 1.363 . S
C1001 H972 0.950 . S
C1001 C1000 1.397 . S
C1001 C1002 1.334 . S
C1002 H973 0.950 . S
C1002 C1001 1.334 . S
C1002 C1003 1.287 . S
C1003 C1002 1.287 . S
C1003 C1004 1.524 . S
C1003 H1006 0.999 . S
C1004 H974 0.950 . S
C1004 C1003 1.524 . S
C1004 C1005 1.415 . S
C1005 H975 0.950 . S
C1005 C1000 1.363 . S
C1005 C1004 1.415 . S
H1006 C1003 0.999 . S
H1007 C988 0.913 . S
H1008 C1026 0.951 . S
H1009 C1028 0.951 . S
H1010 C1030 0.950 . S
H1011 C1031 0.950 . S
H1012 C1033 0.950 . S
H1013 C1036 0.950 . S
H1014 C1037 0.950 . S
H1015 C1039 0.950 . S
H1016 C1040 0.950 . S
H1017 C1041 0.951 . S
H1018 C1043 0.951 . S
H1019 C1045 0.950 . S
H1020 C1046 0.950 . S
H1021 C1048 0.950 . S
H1022 C1051 0.950 . S
H1023 C1052 0.950 . S
H1024 C1054 0.950 . S
H1025 C1055 0.950 . S
C1026 H1008 0.951 . S
C1026 C1027 1.366 . S
C1026 C1028 1.388 . S
C1027 C1026 1.366 . S
C1027 C1031 1.385 . S
C1028 H1009 0.951 . S
C1028 C1026 1.388 . S
C1028 C1029 1.366 . S
C1029 C1028 1.366 . S
C1029 C1030 1.414 . S
C1029 C1032 1.499 . S
C1030 H1010 0.950 . S
C1030 C1029 1.414 . S
C1030 C1031 1.374 . S
C1031 H1011 0.950 . S
C1031 C1027 1.385 . S
C1031 C1030 1.374 . S
C1032 C1029 1.499 . S
C1032 C1033 1.373 . S
C1032 C1034 1.389 . S
C1033 H1012 0.950 . S
C1033 C1032 1.373 . S
C1033 C1049 1.377 . S
C1034 C1032 1.389 . S
C1034 C1035 1.524 . S
C1034 C1048 1.377 . S
C1035 C1034 1.524 . S
C1035 C1036 1.397 . S
C1035 C1040 1.363 . S
C1036 H1013 0.950 . S
C1036 C1035 1.397 . S
C1036 C1037 1.334 . S
C1037 H1014 0.950 . S
C1037 C1036 1.334 . S
C1037 C1038 1.287 . S
C1038 C1037 1.287 . S
C1038 C1039 1.524 . S
C1038 H1057 0.913 . S
C1039 H1015 0.950 . S
C1039 C1038 1.524 . S
C1039 C1040 1.415 . S
C1040 H1016 0.950 . S
C1040 C1035 1.363 . S
C1040 C1039 1.415 . S
C1041 H1017 0.951 . S
C1041 C1042 1.366 . S
C1041 C1043 1.388 . S
C1042 C1041 1.366 . S
C1042 C1046 1.385 . S
C1043 H1018 0.951 . S
C1043 C1041 1.388 . S
C1043 C1044 1.366 . S
C1044 C1043 1.366 . S
C1044 C1045 1.414 . S
C1044 C1047 1.499 . S
C1045 H1019 0.950 . S
C1045 C1044 1.414 . S
C1045 C1046 1.374 . S
C1046 H1020 0.950 . S
C1046 C1042 1.385 . S
C1046 C1045 1.374 . S
C1047 C1044 1.499 . S
C1047 C1048 1.373 . S
C1047 C1049 1.389 . S
C1048 H1021 0.950 . S
C1048 C1034 1.377 . S
C1048 C1047 1.373 . S
C1049 C1033 1.377 . S
C1049 C1047 1.389 . S
C1049 C1050 1.524 . S
C1050 C1049 1.524 . S
C1050 C1051 1.397 . S
C1050 C1055 1.363 . S
C1051 H1022 0.950 . S
C1051 C1050 1.397 . S
C1051 C1052 1.334 . S
C1052 H1023 0.950 . S
C1052 C1051 1.334 . S
C1052 C1053 1.287 . S
C1053 C1052 1.287 . S
C1053 C1054 1.524 . S
C1053 H1056 0.999 . S
C1054 H1024 0.950 . S
C1054 C1053 1.524 . S
C1054 C1055 1.415 . S
C1055 H1025 0.950 . S
C1055 C1050 1.363 . S
C1055 C1054 1.415 . S
H1056 C1053 0.999 . S
H1057 C1038 0.913 . S
H1058 C1076 0.951 . S
H1059 C1078 0.951 . S
H1060 C1080 0.950 . S
H1061 C1081 0.950 . S
H1062 C1083 0.950 . S
H1063 C1086 0.950 . S
H1064 C1087 0.950 . S
H1065 C1089 0.950 . S
H1066 C1090 0.950 . S
H1067 C1091 0.951 . S
H1068 C1093 0.951 . S
H1069 C1095 0.950 . S
H1070 C1096 0.950 . S
H1071 C1098 0.950 . S
H1072 C1101 0.950 . S
H1073 C1102 0.950 . S
H1074 C1104 0.950 . S
H1075 C1105 0.950 . S
C1076 H1058 0.951 . S
C1076 C1077 1.366 . S
C1076 C1078 1.388 . S
C1077 C1076 1.366 . S
C1077 C1081 1.385 . S
C1078 H1059 0.951 . S
C1078 C1076 1.388 . S
C1078 C1079 1.366 . S
C1079 C1078 1.366 . S
C1079 C1080 1.414 . S
C1079 C1082 1.499 . S
C1080 H1060 0.950 . S
C1080 C1079 1.414 . S
C1080 C1081 1.374 . S
C1081 H1061 0.950 . S
C1081 C1077 1.385 . S
C1081 C1080 1.374 . S
C1082 C1079 1.499 . S
C1082 C1083 1.373 . S
C1082 C1084 1.389 . S
C1083 H1062 0.950 . S
C1083 C1082 1.373 . S
C1083 C1099 1.377 . S
C1084 C1082 1.389 . S
C1084 C1085 1.524 . S
C1084 C1098 1.377 . S
C1085 C1084 1.524 . S
C1085 C1086 1.397 . S
C1085 C1090 1.363 . S
C1086 H1063 0.950 . S
C1086 C1085 1.397 . S
C1086 C1087 1.334 . S
C1087 H1064 0.950 . S
C1087 C1086 1.334 . S
C1087 C1088 1.287 . S
C1088 C1087 1.287 . S
C1088 C1089 1.524 . S
C1088 H1107 0.913 . S
C1089 H1065 0.950 . S
C1089 C1088 1.524 . S
C1089 C1090 1.415 . S
C1090 H1066 0.950 . S
C1090 C1085 1.363 . S
C1090 C1089 1.415 . S
C1091 H1067 0.951 . S
C1091 C1092 1.366 . S
C1091 C1093 1.388 . S
C1092 C1091 1.366 . S
C1092 C1096 1.385 . S
C1093 H1068 0.951 . S
C1093 C1091 1.388 . S
C1093 C1094 1.366 . S
C1094 C1093 1.366 . S
C1094 C1095 1.414 . S
C1094 C1097 1.499 . S
C1095 H1069 0.950 . S
C1095 C1094 1.414 . S
C1095 C1096 1.374 . S
C1096 H1070 0.950 . S
C1096 C1092 1.385 . S
C1096 C1095 1.374 . S
C1097 C1094 1.499 . S
C1097 C1098 1.373 . S
C1097 C1099 1.389 . S
C1098 H1071 0.950 . S
C1098 C1084 1.377 . S
C1098 C1097 1.373 . S
C1099 C1083 1.377 . S
C1099 C1097 1.389 . S
C1099 C1100 1.524 . S
C1100 C1099 1.524 . S
C1100 C1101 1.397 . S
C1100 C1105 1.363 . S
C1101 H1072 0.950 . S
C1101 C1100 1.397 . S
C1101 C1102 1.334 . S
C1102 H1073 0.950 . S
C1102 C1101 1.334 . S
C1102 C1103 1.287 . S
C1103 C1102 1.287 . S
C1103 C1104 1.524 . S
C1103 H1106 0.999 . S
C1104 H1074 0.950 . S
C1104 C1103 1.524 . S
C1104 C1105 1.415 . S
C1105 H1075 0.950 . S
C1105 C1100 1.363 . S
C1105 C1104 1.415 . S
H1106 C1103 0.999 . S
H1107 C1088 0.913 . S
H1108 C1126 0.951 . S
H1109 C1128 0.951 . S
H1110 C1130 0.950 . S
H1111 C1131 0.950 . S
H1112 C1133 0.950 . S
H1113 C1136 0.950 . S
H1114 C1137 0.950 . S
H1115 C1139 0.950 . S
H1116 C1140 0.950 . S
H1117 C1141 0.951 . S
H1118 C1143 0.951 . S
H1119 C1145 0.950 . S
H1120 C1146 0.950 . S
H1121 C1148 0.950 . S
H1122 C1151 0.950 . S
H1123 C1152 0.950 . S
H1124 C1154 0.950 . S
H1125 C1155 0.950 . S
C1126 H1108 0.951 . S
C1126 C1127 1.366 . S
C1126 C1128 1.388 . S
C1127 C1126 1.366 . S
C1127 C1131 1.385 . S
C1128 H1109 0.951 . S
C1128 C1126 1.388 . S
C1128 C1129 1.366 . S
C1129 C1128 1.366 . S
C1129 C1130 1.414 . S
C1129 C1132 1.499 . S
C1130 H1110 0.950 . S
C1130 C1129 1.414 . S
C1130 C1131 1.374 . S
C1131 H1111 0.950 . S
C1131 C1127 1.385 . S
C1131 C1130 1.374 . S
C1132 C1129 1.499 . S
C1132 C1133 1.373 . S
C1132 C1134 1.389 . S
C1133 H1112 0.950 . S
C1133 C1132 1.373 . S
C1133 C1149 1.377 . S
C1134 C1132 1.389 . S
C1134 C1135 1.524 . S
C1134 C1148 1.377 . S
C1135 C1134 1.524 . S
C1135 C1136 1.397 . S
C1135 C1140 1.363 . S
C1136 H1113 0.950 . S
C1136 C1135 1.397 . S
C1136 C1137 1.334 . S
C1137 H1114 0.950 . S
C1137 C1136 1.334 . S
C1137 C1138 1.287 . S
C1138 C1137 1.287 . S
C1138 C1139 1.524 . S
C1138 H1157 0.913 . S
C1139 H1115 0.950 . S
C1139 C1138 1.524 . S
C1139 C1140 1.415 . S
C1140 H1116 0.950 . S
C1140 C1135 1.363 . S
C1140 C1139 1.415 . S
C1141 H1117 0.951 . S
C1141 C1142 1.366 . S
C1141 C1143 1.388 . S
C1142 C1141 1.366 . S
C1142 C1146 1.385 . S
C1143 H1118 0.951 . S
C1143 C1141 1.388 . S
C1143 C1144 1.366 . S
C1144 C1143 1.366 . S
C1144 C1145 1.414 . S
C1144 C1147 1.499 . S
C1145 H1119 0.950 . S
C1145 C1144 1.414 . S
C1145 C1146 1.374 . S
C1146 H1120 0.950 . S
C1146 C1142 1.385 . S
C1146 C1145 1.374 . S
C1147 C1144 1.499 . S
C1147 C1148 1.373 . S
C1147 C1149 1.389 . S
C1148 H1121 0.950 . S
C1148 C1134 1.377 . S
C1148 C1147 1.373 . S
C1149 C1133 1.377 . S
C1149 C1147 1.389 . S
C1149 C1150 1.524 . S
C1150 C1149 1.524 . S
C1150 C1151 1.397 . S
C1150 C1155 1.363 . S
C1151 H1122 0.950 . S
C1151 C1150 1.397 . S
C1151 C1152 1.334 . S
C1152 H1123 0.950 . S
C1152 C1151 1.334 . S
C1152 C1153 1.287 . S
C1153 C1152 1.287 . S
C1153 C1154 1.524 . S
C1153 H1156 0.999 . S
C1154 H1124 0.950 . S
C1154 C1153 1.524 . S
C1154 C1155 1.415 . S
C1155 H1125 0.950 . S
C1155 C1150 1.363 . S
C1155 C1154 1.415 . S
H1156 C1153 0.999 . S
H1157 C1138 0.913 . S
H1158 C1176 0.951 . S
H1159 C1178 0.951 . S
H1160 C1180 0.950 . S
H1161 C1181 0.950 . S
H1162 C1183 0.950 . S
H1163 C1186 0.950 . S
H1164 C1187 0.950 . S
H1165 C1189 0.950 . S
H1166 C1190 0.950 . S
H1167 C1191 0.951 . S
H1168 C1193 0.951 . S
H1169 C1195 0.950 . S
H1170 C1196 0.950 . S
H1171 C1198 0.950 . S
H1172 C1201 0.950 . S
H1173 C1202 0.950 . S
H1174 C1204 0.950 . S
H1175 C1205 0.950 . S
C1176 H1158 0.951 . S
C1176 C1177 1.366 . S
C1176 C1178 1.388 . S
C1177 C1176 1.366 . S
C1177 C1181 1.385 . S
C1178 H1159 0.951 . S
C1178 C1176 1.388 . S
C1178 C1179 1.366 . S
C1179 C1178 1.366 . S
C1179 C1180 1.414 . S
C1179 C1182 1.499 . S
C1180 H1160 0.950 . S
C1180 C1179 1.414 . S
C1180 C1181 1.374 . S
C1181 H1161 0.950 . S
C1181 C1177 1.385 . S
C1181 C1180 1.374 . S
C1182 C1179 1.499 . S
C1182 C1183 1.373 . S
C1182 C1184 1.389 . S
C1183 H1162 0.950 . S
C1183 C1182 1.373 . S
C1183 C1199 1.377 . S
C1184 C1182 1.389 . S
C1184 C1185 1.524 . S
C1184 C1198 1.377 . S
C1185 C1184 1.524 . S
C1185 C1186 1.397 . S
C1185 C1190 1.363 . S
C1186 H1163 0.950 . S
C1186 C1185 1.397 . S
C1186 C1187 1.334 . S
C1187 H1164 0.950 . S
C1187 C1186 1.334 . S
C1187 C1188 1.287 . S
C1188 C1187 1.287 . S
C1188 C1189 1.524 . S
C1188 H1207 0.913 . S
C1189 H1165 0.950 . S
C1189 C1188 1.524 . S
C1189 C1190 1.415 . S
C1190 H1166 0.950 . S
C1190 C1185 1.363 . S
C1190 C1189 1.415 . S
C1191 H1167 0.951 . S
C1191 C1192 1.366 . S
C1191 C1193 1.388 . S
C1192 C1191 1.366 . S
C1192 C1196 1.385 . S
C1193 H1168 0.951 . S
C1193 C1191 1.388 . S
C1193 C1194 1.366 . S
C1194 C1193 1.366 . S
C1194 C1195 1.414 . S
C1194 C1197 1.499 . S
C1195 H1169 0.950 . S
C1195 C1194 1.414 . S
C1195 C1196 1.374 . S
C1196 H1170 0.950 . S
C1196 C1192 1.385 . S
C1196 C1195 1.374 . S
C1197 C1194 1.499 . S
C1197 C1198 1.373 . S
C1197 C1199 1.389 . S
C1198 H1171 0.950 . S
C1198 C1184 1.377 . S
C1198 C1197 1.373 . S
C1199 C1183 1.377 . S
C1199 C1197 1.389 . S
C1199 C1200 1.524 . S
C1200 C1199 1.524 . S
C1200 C1201 1.397 . S
C1200 C1205 1.363 . S
C1201 H1172 0.950 . S
C1201 C1200 1.397 . S
C1201 C1202 1.334 . S
C1202 H1173 0.950 . S
C1202 C1201 1.334 . S
C1202 C1203 1.287 . S
C1203 C1202 1.287 . S
C1203 C1204 1.524 . S
C1203 H1206 0.999 . S
C1204 H1174 0.950 . S
C1204 C1203 1.524 . S
C1204 C1205 1.415 . S
C1205 H1175 0.950 . S
C1205 C1200 1.363 . S
C1205 C1204 1.415 . S
H1206 C1203 0.999 . S
H1207 C1188 0.913 . S
H1208 C1226 0.951 . S
H1209 C1228 0.951 . S
H1210 C1230 0.950 . S
H1211 C1231 0.950 . S
H1212 C1233 0.950 . S
H1213 C1236 0.950 . S
H1214 C1237 0.950 . S
H1215 C1239 0.950 . S
H1216 C1240 0.950 . S
H1217 C1241 0.951 . S
H1218 C1243 0.951 . S
H1219 C1245 0.950 . S
H1220 C1246 0.950 . S
H1221 C1248 0.950 . S
H1222 C1251 0.950 . S
H1223 C1252 0.950 . S
H1224 C1254 0.950 . S
H1225 C1255 0.950 . S
C1226 H1208 0.951 . S
C1226 C1227 1.366 . S
C1226 C1228 1.388 . S
C1227 C1226 1.366 . S
C1227 C1231 1.385 . S
C1228 H1209 0.951 . S
C1228 C1226 1.388 . S
C1228 C1229 1.366 . S
C1229 C1228 1.366 . S
C1229 C1230 1.414 . S
C1229 C1232 1.499 . S
C1230 H1210 0.950 . S
C1230 C1229 1.414 . S
C1230 C1231 1.374 . S
C1231 H1211 0.950 . S
C1231 C1227 1.385 . S
C1231 C1230 1.374 . S
C1232 C1229 1.499 . S
C1232 C1233 1.373 . S
C1232 C1234 1.389 . S
C1233 H1212 0.950 . S
C1233 C1232 1.373 . S
C1233 C1249 1.377 . S
C1234 C1232 1.389 . S
C1234 C1235 1.524 . S
C1234 C1248 1.377 . S
C1235 C1234 1.524 . S
C1235 C1236 1.397 . S
C1235 C1240 1.363 . S
C1236 H1213 0.950 . S
C1236 C1235 1.397 . S
C1236 C1237 1.334 . S
C1237 H1214 0.950 . S
C1237 C1236 1.334 . S
C1237 C1238 1.287 . S
C1238 C1237 1.287 . S
C1238 C1239 1.524 . S
C1238 H1257 0.913 . S
C1239 H1215 0.950 . S
C1239 C1238 1.524 . S
C1239 C1240 1.415 . S
C1240 H1216 0.950 . S
C1240 C1235 1.363 . S
C1240 C1239 1.415 . S
C1241 H1217 0.951 . S
C1241 C1242 1.366 . S
C1241 C1243 1.388 . S
C1242 C1241 1.366 . S
C1242 C1246 1.385 . S
C1243 H1218 0.951 . S
C1243 C1241 1.388 . S
C1243 C1244 1.366 . S
C1244 C1243 1.366 . S
C1244 C1245 1.414 . S
C1244 C1247 1.499 . S
C1245 H1219 0.950 . S
C1245 C1244 1.414 . S
C1245 C1246 1.374 . S
C1246 H1220 0.950 . S
C1246 C1242 1.385 . S
C1246 C1245 1.374 . S
C1247 C1244 1.499 . S
C1247 C1248 1.373 . S
C1247 C1249 1.389 . S
C1248 H1221 0.950 . S
C1248 C1234 1.377 . S
C1248 C1247 1.373 . S
C1249 C1233 1.377 . S
C1249 C1247 1.389 . S
C1249 C1250 1.524 . S
C1250 C1249 1.524 . S
C1250 C1251 1.397 . S
C1250 C1255 1.363 . S
C1251 H1222 0.950 . S
C1251 C1250 1.397 . S
C1251 C1252 1.334 . S
C1252 H1223 0.950 . S
C1252 C1251 1.334 . S
C1252 C1253 1.287 . S
C1253 C1252 1.287 . S
C1253 C1254 1.524 . S
C1253 H1256 0.999 . S
C1254 H1224 0.950 . S
C1254 C1253 1.524 . S
C1254 C1255 1.415 . S
C1255 H1225 0.950 . S
C1255 C1250 1.363 . S
C1255 C1254 1.415 . S
H1256 C1253 0.999 . S
H1257 C1238 0.913 . S
H1258 C1276 0.951 . S
H1259 C1278 0.951 . S
H1260 C1280 0.950 . S
H1261 C1281 0.950 . S
H1262 C1283 0.950 . S
H1263 C1286 0.950 . S
H1264 C1287 0.950 . S
H1265 C1289 0.950 . S
H1266 C1290 0.950 . S
H1267 C1291 0.951 . S
H1268 C1293 0.951 . S
H1269 C1295 0.950 . S
H1270 C1296 0.950 . S
H1271 C1298 0.950 . S
H1272 C1301 0.950 . S
H1273 C1302 0.950 . S
H1274 C1304 0.950 . S
H1275 C1305 0.950 . S
C1276 H1258 0.951 . S
C1276 C1277 1.366 . S
C1276 C1278 1.388 . S
C1277 C1276 1.366 . S
C1277 C1281 1.385 . S
C1278 H1259 0.951 . S
C1278 C1276 1.388 . S
C1278 C1279 1.366 . S
C1279 C1278 1.366 . S
C1279 C1280 1.414 . S
C1279 C1282 1.499 . S
C1280 H1260 0.950 . S
C1280 C1279 1.414 . S
C1280 C1281 1.374 . S
C1281 H1261 0.950 . S
C1281 C1277 1.385 . S
C1281 C1280 1.374 . S
C1282 C1279 1.499 . S
C1282 C1283 1.373 . S
C1282 C1284 1.389 . S
C1283 H1262 0.950 . S
C1283 C1282 1.373 . S
C1283 C1299 1.377 . S
C1284 C1282 1.389 . S
C1284 C1285 1.524 . S
C1284 C1298 1.377 . S
C1285 C1284 1.524 . S
C1285 C1286 1.397 . S
C1285 C1290 1.363 . S
C1286 H1263 0.950 . S
C1286 C1285 1.397 . S
C1286 C1287 1.334 . S
C1287 H1264 0.950 . S
C1287 C1286 1.334 . S
C1287 C1288 1.287 . S
C1288 C1287 1.287 . S
C1288 C1289 1.524 . S
C1288 H1307 0.913 . S
C1289 H1265 0.950 . S
C1289 C1288 1.524 . S
C1289 C1290 1.415 . S
C1290 H1266 0.950 . S
C1290 C1285 1.363 . S
C1290 C1289 1.415 . S
C1291 H1267 0.951 . S
C1291 C1292 1.366 . S
C1291 C1293 1.388 . S
C1292 C1291 1.366 . S
C1292 C1296 1.385 . S
C1293 H1268 0.951 . S
C1293 C1291 1.388 . S
C1293 C1294 1.366 . S
C1294 C1293 1.366 . S
C1294 C1295 1.414 . S
C1294 C1297 1.499 . S
C1295 H1269 0.950 . S
C1295 C1294 1.414 . S
C1295 C1296 1.374 . S
C1296 H1270 0.950 . S
C1296 C1292 1.385 . S
C1296 C1295 1.374 . S
C1297 C1294 1.499 . S
C1297 C1298 1.373 . S
C1297 C1299 1.389 . S
C1298 H1271 0.950 . S
C1298 C1284 1.377 . S
C1298 C1297 1.373 . S
C1299 C1283 1.377 . S
C1299 C1297 1.389 . S
C1299 C1300 1.524 . S
C1300 C1299 1.524 . S
C1300 C1301 1.397 . S
C1300 C1305 1.363 . S
C1301 H1272 0.950 . S
C1301 C1300 1.397 . S
C1301 C1302 1.334 . S
C1302 H1273 0.950 . S
C1302 C1301 1.334 . S
C1302 C1303 1.287 . S
C1303 C1302 1.287 . S
C1303 C1304 1.524 . S
C1303 H1306 0.999 . S
C1304 H1274 0.950 . S
C1304 C1303 1.524 . S
C1304 C1305 1.415 . S
C1305 H1275 0.950 . S
C1305 C1300 1.363 . S
C1305 C1304 1.415 . S
H1306 C1303 0.999 . S
H1307 C1288 0.913 . S
H1308 C1326 0.951 . S
H1309 C1328 0.951 . S
H1310 C1330 0.950 . S
H1311 C1331 0.950 . S
H1312 C1333 0.950 . S
H1313 C1336 0.950 . S
H1314 C1337 0.950 . S
H1315 C1339 0.950 . S
H1316 C1340 0.950 . S
H1317 C1341 0.951 . S
H1318 C1343 0.951 . S
H1319 C1345 0.950 . S
H1320 C1346 0.950 . S
H1321 C1348 0.950 . S
H1322 C1351 0.950 . S
H1323 C1352 0.950 . S
H1324 C1354 0.950 . S
H1325 C1355 0.950 . S
C1326 H1308 0.951 . S
C1326 C1327 1.366 . S
C1326 C1328 1.388 . S
C1327 C1326 1.366 . S
C1327 C1331 1.385 . S
C1328 H1309 0.951 . S
C1328 C1326 1.388 . S
C1328 C1329 1.366 . S
C1329 C1328 1.366 . S
C1329 C1330 1.414 . S
C1329 C1332 1.499 . S
C1330 H1310 0.950 . S
C1330 C1329 1.414 . S
C1330 C1331 1.374 . S
C1331 H1311 0.950 . S
C1331 C1327 1.385 . S
C1331 C1330 1.374 . S
C1332 C1329 1.499 . S
C1332 C1333 1.373 . S
C1332 C1334 1.389 . S
C1333 H1312 0.950 . S
C1333 C1332 1.373 . S
C1333 C1349 1.377 . S
C1334 C1332 1.389 . S
C1334 C1335 1.524 . S
C1334 C1348 1.377 . S
C1335 C1334 1.524 . S
C1335 C1336 1.397 . S
C1335 C1340 1.363 . S
C1336 H1313 0.950 . S
C1336 C1335 1.397 . S
C1336 C1337 1.334 . S
C1337 H1314 0.950 . S
C1337 C1336 1.334 . S
C1337 C1338 1.287 . S
C1338 C1337 1.287 . S
C1338 C1339 1.524 . S
C1338 H1357 0.913 . S
C1339 H1315 0.950 . S
C1339 C1338 1.524 . S
C1339 C1340 1.415 . S
C1340 H1316 0.950 . S
C1340 C1335 1.363 . S
C1340 C1339 1.415 . S
C1341 H1317 0.951 . S
C1341 C1342 1.366 . S
C1341 C1343 1.388 . S
C1342 C1341 1.366 . S
C1342 C1346 1.385 . S
C1343 H1318 0.951 . S
C1343 C1341 1.388 . S
C1343 C1344 1.366 . S
C1344 C1343 1.366 . S
C1344 C1345 1.414 . S
C1344 C1347 1.499 . S
C1345 H1319 0.950 . S
C1345 C1344 1.414 . S
C1345 C1346 1.374 . S
C1346 H1320 0.950 . S
C1346 C1342 1.385 . S
C1346 C1345 1.374 . S
C1347 C1344 1.499 . S
C1347 C1348 1.373 . S
C1347 C1349 1.389 . S
C1348 H1321 0.950 . S
C1348 C1334 1.377 . S
C1348 C1347 1.373 . S
C1349 C1333 1.377 . S
C1349 C1347 1.389 . S
C1349 C1350 1.524 . S
C1350 C1349 1.524 . S
C1350 C1351 1.397 . S
C1350 C1355 1.363 . S
C1351 H1322 0.950 . S
C1351 C1350 1.397 . S
C1351 C1352 1.334 . S
C1352 H1323 0.950 . S
C1352 C1351 1.334 . S
C1352 C1353 1.287 . S
C1353 C1352 1.287 . S
C1353 C1354 1.524 . S
C1353 H1356 0.999 . S
C1354 H1324 0.950 . S
C1354 C1353 1.524 . S
C1354 C1355 1.415 . S
C1355 H1325 0.950 . S
C1355 C1350 1.363 . S
C1355 C1354 1.415 . S
H1356 C1353 0.999 . S
H1357 C1338 0.913 . S
H1358 C1376 0.951 . S
H1359 C1378 0.951 . S
H1360 C1380 0.950 . S
H1361 C1381 0.950 . S
H1362 C1383 0.950 . S
H1363 C1386 0.950 . S
H1364 C1387 0.950 . S
H1365 C1389 0.950 . S
H1366 C1390 0.950 . S
H1367 C1391 0.951 . S
H1368 C1393 0.951 . S
H1369 C1395 0.950 . S
H1370 C1396 0.950 . S
H1371 C1398 0.950 . S
H1372 C1401 0.950 . S
H1373 C1402 0.950 . S
H1374 C1404 0.950 . S
H1375 C1405 0.950 . S
C1376 H1358 0.951 . S
C1376 C1377 1.366 . S
C1376 C1378 1.388 . S
C1377 C1376 1.366 . S
C1377 C1381 1.385 . S
C1378 H1359 0.951 . S
C1378 C1376 1.388 . S
C1378 C1379 1.366 . S
C1379 C1378 1.366 . S
C1379 C1380 1.414 . S
C1379 C1382 1.499 . S
C1380 H1360 0.950 . S
C1380 C1379 1.414 . S
C1380 C1381 1.374 . S
C1381 H1361 0.950 . S
C1381 C1377 1.385 . S
C1381 C1380 1.374 . S
C1382 C1379 1.499 . S
C1382 C1383 1.373 . S
C1382 C1384 1.389 . S
C1383 H1362 0.950 . S
C1383 C1382 1.373 . S
C1383 C1399 1.377 . S
C1384 C1382 1.389 . S
C1384 C1385 1.524 . S
C1384 C1398 1.377 . S
C1385 C1384 1.524 . S
C1385 C1386 1.397 . S
C1385 C1390 1.363 . S
C1386 H1363 0.950 . S
C1386 C1385 1.397 . S
C1386 C1387 1.334 . S
C1387 H1364 0.950 . S
C1387 C1386 1.334 . S
C1387 C1388 1.287 . S
C1388 C1387 1.287 . S
C1388 C1389 1.524 . S
C1388 H1407 0.913 . S
C1389 H1365 0.950 . S
C1389 C1388 1.524 . S
C1389 C1390 1.415 . S
C1390 H1366 0.950 . S
C1390 C1385 1.363 . S
C1390 C1389 1.415 . S
C1391 H1367 0.951 . S
C1391 C1392 1.366 . S
C1391 C1393 1.388 . S
C1392 C1391 1.366 . S
C1392 C1396 1.385 . S
C1393 H1368 0.951 . S
C1393 C1391 1.388 . S
C1393 C1394 1.366 . S
C1394 C1393 1.366 . S
C1394 C1395 1.414 . S
C1394 C1397 1.499 . S
C1395 H1369 0.950 . S
C1395 C1394 1.414 . S
C1395 C1396 1.374 . S
C1396 H1370 0.950 . S
C1396 C1392 1.385 . S
C1396 C1395 1.374 . S
C1397 C1394 1.499 . S
C1397 C1398 1.373 . S
C1397 C1399 1.389 . S
C1398 H1371 0.950 . S
C1398 C1384 1.377 . S
C1398 C1397 1.373 . S
C1399 C1383 1.377 . S
C1399 C1397 1.389 . S
C1399 C1400 1.524 . S
C1400 C1399 1.524 . S
C1400 C1401 1.397 . S
C1400 C1405 1.363 . S
C1401 H1372 0.950 . S
C1401 C1400 1.397 . S
C1401 C1402 1.334 . S
C1402 H1373 0.950 . S
C1402 C1401 1.334 . S
C1402 C1403 1.287 . S
C1403 C1402 1.287 . S
C1403 C1404 1.524 . S
C1403 H1406 0.999 . S
C1404 H1374 0.950 . S
C1404 C1403 1.524 . S
C1404 C1405 1.415 . S
C1405 H1375 0.950 . S
C1405 C1400 1.363 . S
C1405 C1404 1.415 . S
H1406 C1403 0.999 . S
H1407 C1388 0.913 . S
H1408 C1426 0.951 . S
H1409 C1428 0.951 . S
H1410 C1430 0.950 . S
H1411 C1431 0.950 . S
H1412 C1433 0.950 . S
H1413 C1436 0.950 . S
H1414 C1437 0.950 . S
H1415 C1439 0.950 . S
H1416 C1440 0.950 . S
H1417 C1441 0.951 . S
H1418 C1443 0.951 . S
H1419 C1445 0.950 . S
H1420 C1446 0.950 . S
H1421 C1448 0.950 . S
H1422 C1451 0.950 . S
H1423 C1452 0.950 . S
H1424 C1454 0.950 . S
H1425 C1455 0.950 . S
C1426 H1408 0.951 . S
C1426 C1427 1.366 . S
C1426 C1428 1.388 . S
C1427 C1426 1.366 . S
C1427 C1431 1.385 . S
C1428 H1409 0.951 . S
C1428 C1426 1.388 . S
C1428 C1429 1.366 . S
C1429 C1428 1.366 . S
C1429 C1430 1.414 . S
C1429 C1432 1.499 . S
C1430 H1410 0.950 . S
C1430 C1429 1.414 . S
C1430 C1431 1.374 . S
C1431 H1411 0.950 . S
C1431 C1427 1.385 . S
C1431 C1430 1.374 . S
C1432 C1429 1.499 . S
C1432 C1433 1.373 . S
C1432 C1434 1.389 . S
C1433 H1412 0.950 . S
C1433 C1432 1.373 . S
C1433 C1449 1.377 . S
C1434 C1432 1.389 . S
C1434 C1435 1.524 . S
C1434 C1448 1.377 . S
C1435 C1434 1.524 . S
C1435 C1436 1.397 . S
C1435 C1440 1.363 . S
C1436 H1413 0.950 . S
C1436 C1435 1.397 . S
C1436 C1437 1.334 . S
C1437 H1414 0.950 . S
C1437 C1436 1.334 . S
C1437 C1438 1.287 . S
C1438 C1437 1.287 . S
C1438 C1439 1.524 . S
C1438 H1457 0.913 . S
C1439 H1415 0.950 . S
C1439 C1438 1.524 . S
C1439 C1440 1.415 . S
C1440 H1416 0.950 . S
C1440 C1435 1.363 . S
C1440 C1439 1.415 . S
C1441 H1417 0.951 . S
C1441 C1442 1.366 . S
C1441 C1443 1.388 . S
C1442 C1441 1.366 . S
C1442 C1446 1.385 . S
C1443 H1418 0.951 . S
C1443 C1441 1.388 . S
C1443 C1444 1.366 . S
C1444 C1443 1.366 . S
C1444 C1445 1.414 . S
C1444 C1447 1.499 . S
C1445 H1419 0.950 . S
C1445 C1444 1.414 . S
C1445 C1446 1.374 . S
C1446 H1420 0.950 . S
C1446 C1442 1.385 . S
C1446 C1445 1.374 . S
C1447 C1444 1.499 . S
C1447 C1448 1.373 . S
C1447 C1449 1.389 . S
C1448 H1421 0.950 . S
C1448 C1434 1.377 . S
C1448 C1447 1.373 . S
C1449 C1433 1.377 . S
C1449 C1447 1.389 . S
C1449 C1450 1.524 . S
C1450 C1449 1.524 . S
C1450 C1451 1.397 . S
C1450 C1455 1.363 . S
C1451 H1422 0.950 . S
C1451 C1450 1.397 . S
C1451 C1452 1.334 . S
C1452 H1423 0.950 . S
C1452 C1451 1.334 . S
C1452 C1453 1.287 . S
C1453 C1452 1.287 . S
C1453 C1454 1.524 . S
C1453 H1456 0.999 . S
C1454 H1424 0.950 . S
C1454 C1453 1.524 . S
C1454 C1455 1.415 . S
C1455 H1425 0.950 . S
C1455 C1450 1.363 . S
C1455 C1454 1.415 . S
H1456 C1453 0.999 . S
H1457 C1438 0.913 . S
H1458 C1476 0.951 . S
H1459 C1478 0.951 . S
H1460 C1480 0.950 . S
H1461 C1481 0.950 . S
H1462 C1483 0.950 . S
H1463 C1486 0.950 . S
H1464 C1487 0.950 . S
H1465 C1489 0.950 . S
H1466 C1490 0.950 . S
H1467 C1491 0.951 . S
H1468 C1493 0.951 . S
H1469 C1495 0.950 . S
H1470 C1496 0.950 . S
H1471 C1498 0.950 . S
H1472 C1501 0.950 . S
H1473 C1502 0.950 . S
H1474 C1504 0.950 . S
H1475 C1505 0.950 . S
C1476 H1458 0.951 . S
C1476 C1477 1.366 . S
C1476 C1478 1.388 . S
C1477 C1476 1.366 . S
C1477 C1481 1.385 . S
C1478 H1459 0.951 . S
C1478 C1476 1.388 . S
C1478 C1479 1.366 . S
C1479 C1478 1.366 . S
C1479 C1480 1.414 . S
C1479 C1482 1.499 . S
C1480 H1460 0.950 . S
C1480 C1479 1.414 . S
C1480 C1481 1.374 . S
C1481 H1461 0.950 . S
C1481 C1477 1.385 . S
C1481 C1480 1.374 . S
C1482 C1479 1.499 . S
C1482 C1483 1.373 . S
C1482 C1484 1.389 . S
C1483 H1462 0.950 . S
C1483 C1482 1.373 . S
C1483 C1499 1.377 . S
C1484 C1482 1.389 . S
C1484 C1485 1.524 . S
C1484 C1498 1.377 . S
C1485 C1484 1.524 . S
C1485 C1486 1.397 . S
C1485 C1490 1.363 . S
C1486 H1463 0.950 . S
C1486 C1485 1.397 . S
C1486 C1487 1.334 . S
C1487 H1464 0.950 . S
C1487 C1486 1.334 . S
C1487 C1488 1.287 . S
C1488 C1487 1.287 . S
C1488 C1489 1.524 . S
C1488 H1507 0.913 . S
C1489 H1465 0.950 . S
C1489 C1488 1.524 . S
C1489 C1490 1.415 . S
C1490 H1466 0.950 . S
C1490 C1485 1.363 . S
C1490 C1489 1.415 . S
C1491 H1467 0.951 . S
C1491 C1492 1.366 . S
C1491 C1493 1.388 . S
C1492 C1491 1.366 . S
C1492 C1496 1.385 . S
C1493 H1468 0.951 . S
C1493 C1491 1.388 . S
C1493 C1494 1.366 . S
C1494 C1493 1.366 . S
C1494 C1495 1.414 . S
C1494 C1497 1.499 . S
C1495 H1469 0.950 . S
C1495 C1494 1.414 . S
C1495 C1496 1.374 . S
C1496 H1470 0.950 . S
C1496 C1492 1.385 . S
C1496 C1495 1.374 . S
C1497 C1494 1.499 . S
C1497 C1498 1.373 . S
C1497 C1499 1.389 . S
C1498 H1471 0.950 . S
C1498 C1484 1.377 . S
C1498 C1497 1.373 . S
C1499 C1483 1.377 . S
C1499 C1497 1.389 . S
C1499 C1500 1.524 . S
C1500 C1499 1.524 . S
C1500 C1501 1.397 . S
C1500 C1505 1.363 . S
C1501 H1472 0.950 . S
C1501 C1500 1.397 . S
C1501 C1502 1.334 . S
C1502 H1473 0.950 . S
C1502 C1501 1.334 . S
C1502 C1503 1.287 . S
C1503 C1502 1.287 . S
C1503 C1504 1.524 . S
C1503 H1506 0.999 . S
C1504 H1474 0.950 . S
C1504 C1503 1.524 . S
C1504 C1505 1.415 . S
C1505 H1475 0.950 . S
C1505 C1500 1.363 . S
C1505 C1504 1.415 . S
H1506 C1503 0.999 . S
H1507 C1488 0.913 . S
H1508 C1526 0.951 . S
H1509 C1528 0.951 . S
H1510 C1530 0.950 . S
H1511 C1531 0.950 . S
H1512 C1533 0.950 . S
H1513 C1536 0.950 . S
H1514 C1537 0.950 . S
H1515 C1539 0.950 . S
H1516 C1540 0.950 . S
H1517 C1541 0.951 . S
H1518 C1543 0.951 . S
H1519 C1545 0.950 . S
H1520 C1546 0.950 . S
H1521 C1548 0.950 . S
H1522 C1551 0.950 . S
H1523 C1552 0.950 . S
H1524 C1554 0.950 . S
H1525 C1555 0.950 . S
C1526 H1508 0.951 . S
C1526 C1527 1.366 . S
C1526 C1528 1.388 . S
C1527 C1526 1.366 . S
C1527 C1531 1.385 . S
C1528 H1509 0.951 . S
C1528 C1526 1.388 . S
C1528 C1529 1.366 . S
C1529 C1528 1.366 . S
C1529 C1530 1.414 . S
C1529 C1532 1.499 . S
C1530 H1510 0.950 . S
C1530 C1529 1.414 . S
C1530 C1531 1.374 . S
C1531 H1511 0.950 . S
C1531 C1527 1.385 . S
C1531 C1530 1.374 . S
C1532 C1529 1.499 . S
C1532 C1533 1.373 . S
C1532 C1534 1.389 . S
C1533 H1512 0.950 . S
C1533 C1532 1.373 . S
C1533 C1549 1.377 . S
C1534 C1532 1.389 . S
C1534 C1535 1.524 . S
C1534 C1548 1.377 . S
C1535 C1534 1.524 . S
C1535 C1536 1.397 . S
C1535 C1540 1.363 . S
C1536 H1513 0.950 . S
C1536 C1535 1.397 . S
C1536 C1537 1.334 . S
C1537 H1514 0.950 . S
C1537 C1536 1.334 . S
C1537 C1538 1.287 . S
C1538 C1537 1.287 . S
C1538 C1539 1.524 . S
C1538 H1557 0.913 . S
C1539 H1515 0.950 . S
C1539 C1538 1.524 . S
C1539 C1540 1.415 . S
C1540 H1516 0.950 . S
C1540 C1535 1.363 . S
C1540 C1539 1.415 . S
C1541 H1517 0.951 . S
C1541 C1542 1.366 . S
C1541 C1543 1.388 . S
C1542 C1541 1.366 . S
C1542 C1546 1.385 . S
C1543 H1518 0.951 . S
C1543 C1541 1.388 . S
C1543 C1544 1.366 . S
C1544 C1543 1.366 . S
C1544 C1545 1.414 . S
C1544 C1547 1.499 . S
C1545 H1519 0.950 . S
C1545 C1544 1.414 . S
C1545 C1546 1.374 . S
C1546 H1520 0.950 . S
C1546 C1542 1.385 . S
C1546 C1545 1.374 . S
C1547 C1544 1.499 . S
C1547 C1548 1.373 . S
C1547 C1549 1.389 . S
C1548 H1521 0.950 . S
C1548 C1534 1.377 . S
C1548 C1547 1.373 . S
C1549 C1533 1.377 . S
C1549 C1547 1.389 . S
C1549 C1550 1.524 . S
C1550 C1549 1.524 . S
C1550 C1551 1.397 . S
C1550 C1555 1.363 . S
C1551 H1522 0.950 . S
C1551 C1550 1.397 . S
C1551 C1552 1.334 . S
C1552 H1523 0.950 . S
C1552 C1551 1.334 . S
C1552 C1553 1.287 . S
C1553 C1552 1.287 . S
C1553 C1554 1.524 . S
C1553 H1556 0.999 . S
C1554 H1524 0.950 . S
C1554 C1553 1.524 . S
C1554 C1555 1.415 . S
C1555 H1525 0.950 . S
C1555 C1550 1.363 . S
C1555 C1554 1.415 . S
H1556 C1553 0.999 . S
H1557 C1538 0.913 . S
H1558 C1576 0.951 . S
H1559 C1578 0.951 . S
H1560 C1580 0.950 . S
H1561 C1581 0.950 . S
H1562 C1583 0.950 . S
H1563 C1586 0.950 . S
H1564 C1587 0.950 . S
H1565 C1589 0.950 . S
H1566 C1590 0.950 . S
H1567 C1591 0.951 . S
H1568 C1593 0.951 . S
H1569 C1595 0.950 . S
H1570 C1596 0.950 . S
H1571 C1598 0.950 . S
H1572 C1601 0.950 . S
H1573 C1602 0.950 . S
H1574 C1604 0.950 . S
H1575 C1605 0.950 . S
C1576 H1558 0.951 . S
C1576 C1577 1.366 . S
C1576 C1578 1.388 . S
C1577 C1576 1.366 . S
C1577 C1581 1.385 . S
C1578 H1559 0.951 . S
C1578 C1576 1.388 . S
C1578 C1579 1.366 . S
C1579 C1578 1.366 . S
C1579 C1580 1.414 . S
C1579 C1582 1.499 . S
C1580 H1560 0.950 . S
C1580 C1579 1.414 . S
C1580 C1581 1.374 . S
C1581 H1561 0.950 . S
C1581 C1577 1.385 . S
C1581 C1580 1.374 . S
C1582 C1579 1.499 . S
C1582 C1583 1.373 . S
C1582 C1584 1.389 . S
C1583 H1562 0.950 . S
C1583 C1582 1.373 . S
C1583 C1599 1.377 1_556 S
C1584 C1582 1.389 . S
C1584 C1585 1.524 . S
C1584 C1598 1.377 1_556 S
C1585 C1584 1.524 . S
C1585 C1586 1.397 . S
C1585 C1590 1.363 . S
C1586 H1563 0.950 . S
C1586 C1585 1.397 . S
C1586 C1587 1.334 . S
C1587 H1564 0.950 . S
C1587 C1586 1.334 . S
C1587 C1588 1.287 . S
C1588 C1587 1.287 . S
C1588 C1589 1.524 . S
C1588 H1607 0.913 . S
C1589 H1565 0.950 . S
C1589 C1588 1.524 . S
C1589 C1590 1.415 . S
C1590 H1566 0.950 . S
C1590 C1585 1.363 . S
C1590 C1589 1.415 . S
C1591 H1567 0.951 . S
C1591 C1592 1.366 . S
C1591 C1593 1.388 . S
C1592 C1591 1.366 . S
C1592 C1596 1.385 . S
C1593 H1568 0.951 . S
C1593 C1591 1.388 . S
C1593 C1594 1.366 . S
C1594 C1593 1.366 . S
C1594 C1595 1.414 . S
C1594 C1597 1.499 . S
C1595 H1569 0.950 . S
C1595 C1594 1.414 . S
C1595 C1596 1.374 . S
C1596 H1570 0.950 . S
C1596 C1592 1.385 . S
C1596 C1595 1.374 . S
C1597 C1594 1.499 . S
C1597 C1598 1.373 . S
C1597 C1599 1.389 . S
C1598 H1571 0.950 . S
C1598 C1584 1.377 1_554 S
C1598 C1597 1.373 . S
C1599 C1583 1.377 1_554 S
C1599 C1597 1.389 . S
C1599 C1600 1.524 . S
C1600 C1599 1.524 . S
C1600 C1601 1.397 . S
C1600 C1605 1.363 . S
C1601 H1572 0.950 . S
C1601 C1600 1.397 . S
C1601 C1602 1.334 . S
C1602 H1573 0.950 . S
C1602 C1601 1.334 . S
C1602 C1603 1.287 . S
C1603 C1602 1.287 . S
C1603 C1604 1.524 . S
C1603 H1606 0.999 . S
C1604 H1574 0.950 . S
C1604 C1603 1.524 . S
C1604 C1605 1.415 . S
C1605 H1575 0.950 . S
C1605 C1600 1.363 . S
C1605 C1604 1.415 . S
H1606 C1603 0.999 . S
H1607 C1588 0.913 . S
H1608 C1626 0.951 . S
H1609 C1628 0.951 . S
H1610 C1630 0.950 . S
H1611 C1631 0.950 . S
H1612 C1633 0.950 . S
H1613 C1636 0.950 . S
H1614 C1637 0.950 . S
H1615 C1639 0.985 . S
H1616 C1640 0.950 1_556 S
H1617 C1641 0.951 . S
H1618 C1643 0.951 . S
H1619 C1645 0.950 . S
H1620 C1646 0.950 . S
H1621 C1648 0.950 . S
H1622 C1651 0.950 . S
H1623 C1652 0.950 . S
H1624 C1654 0.985 . S
H1625 C1655 0.950 1_554 S
C1626 H1608 0.951 . S
C1626 C1627 1.366 . S
C1626 C1628 1.388 . S
C1627 C1626 1.366 . S
C1627 C1631 1.385 . S
C1628 H1609 0.951 . S
C1628 C1626 1.388 . S
C1628 C1629 1.366 . S
C1629 C1628 1.366 . S
C1629 C1630 1.414 . S
C1629 C1632 1.499 . S
C1630 H1610 0.950 . S
C1630 C1629 1.414 . S
C1630 C1631 1.374 . S
C1631 H1611 0.950 . S
C1631 C1627 1.385 . S
C1631 C1630 1.374 . S
C1632 C1629 1.499 . S
C1632 C1633 1.373 . S
C1632 C1634 1.389 . S
C1633 H1612 0.950 . S
C1633 C1632 1.373 . S
C1633 C1649 1.377 1_554 S
C1634 C1632 1.389 . S
C1634 C1635 1.524 . S
C1634 C1648 1.377 1_554 S
C1635 C1634 1.524 . S
C1635 C1636 1.397 . S
C1635 C1640 1.363 . S
C1636 H1613 0.950 . S
C1636 C1635 1.397 . S
C1636 C1637 1.334 . S
C1637 H1614 0.950 . S
C1637 C1636 1.334 . S
C1637 C1638 1.287 . S
C1638 C1637 1.287 . S
C1638 C1639 1.524 . S
C1638 H1657 0.913 . S
C1639 H1615 0.985 . S
C1639 C1638 1.524 . S
C1639 C1640 1.415 . S
C1640 H1616 0.950 1_554 S
C1640 C1635 1.363 . S
C1640 C1639 1.415 . S
C1641 H1617 0.951 . S
C1641 C1642 1.366 . S
C1641 C1643 1.388 . S
C1642 C1641 1.366 . S
C1642 C1646 1.385 . S
C1643 H1618 0.951 . S
C1643 C1641 1.388 . S
C1643 C1644 1.366 . S
C1644 C1643 1.366 . S
C1644 C1645 1.414 . S
C1644 C1647 1.499 . S
C1645 H1619 0.950 . S
C1645 C1644 1.414 . S
C1645 C1646 1.374 . S
C1646 H1620 0.950 . S
C1646 C1642 1.385 . S
C1646 C1645 1.374 . S
C1647 C1644 1.499 . S
C1647 C1648 1.373 . S
C1647 C1649 1.389 . S
C1648 H1621 0.950 . S
C1648 C1634 1.377 1_556 S
C1648 C1647 1.373 . S
C1649 C1633 1.377 1_556 S
C1649 C1647 1.389 . S
C1649 C1650 1.524 . S
C1650 C1649 1.524 . S
C1650 C1651 1.397 . S
C1650 C1655 1.363 . S
C1651 H1622 0.950 . S
C1651 C1650 1.397 . S
C1651 C1652 1.334 . S
C1652 H1623 0.950 . S
C1652 C1651 1.334 . S
C1652 C1653 1.287 . S
C1653 C1652 1.287 . S
C1653 C1654 1.524 . S
C1653 H1656 0.999 . S
C1654 H1624 0.985 . S
C1654 C1653 1.524 . S
C1654 C1655 1.415 . S
C1655 H1625 0.950 1_556 S
C1655 C1650 1.363 . S
C1655 C1654 1.415 . S
H1656 C1653 0.999 . S
H1657 C1638 0.913 . S
H1658 C1676 0.951 . S
H1659 C1678 0.951 . S
H1660 C1680 0.950 . S
H1661 C1681 0.950 . S
H1662 C1683 0.950 . S
H1663 C1686 0.950 . S
H1664 C1687 0.950 . S
H1665 C1689 0.950 . S
H1666 C1690 0.950 . S
H1667 C1691 0.951 . S
H1668 C1693 0.951 . S
H1669 C1695 0.950 . S
H1670 C1696 0.950 . S
H1671 C1698 0.950 . S
H1672 C1701 0.950 . S
H1673 C1702 0.950 . S
H1674 C1704 0.950 . S
H1675 C1705 0.950 . S
C1676 H1658 0.951 . S
C1676 C1677 1.366 . S
C1676 C1678 1.388 . S
C1677 C1676 1.366 . S
C1677 C1681 1.385 . S
C1678 H1659 0.951 . S
C1678 C1676 1.388 . S
C1678 C1679 1.366 . S
C1679 C1678 1.366 . S
C1679 C1680 1.414 . S
C1679 C1682 1.499 . S
C1680 H1660 0.950 . S
C1680 C1679 1.414 . S
C1680 C1681 1.374 . S
C1681 H1661 0.950 . S
C1681 C1677 1.385 . S
C1681 C1680 1.374 . S
C1682 C1679 1.499 . S
C1682 C1683 1.373 . S
C1682 C1684 1.389 . S
C1683 H1662 0.950 . S
C1683 C1682 1.373 . S
C1683 C1699 1.377 . S
C1684 C1682 1.389 . S
C1684 C1685 1.524 . S
C1684 C1698 1.377 . S
C1685 C1684 1.524 . S
C1685 C1686 1.397 . S
C1685 C1690 1.363 . S
C1686 H1663 0.950 . S
C1686 C1685 1.397 . S
C1686 C1687 1.334 . S
C1687 H1664 0.950 . S
C1687 C1686 1.334 . S
C1687 C1688 1.287 . S
C1688 C1687 1.287 . S
C1688 C1689 1.524 . S
C1688 H1707 0.913 . S
C1689 H1665 0.950 . S
C1689 C1688 1.524 . S
C1689 C1690 1.415 . S
C1690 H1666 0.950 . S
C1690 C1685 1.363 . S
C1690 C1689 1.415 . S
C1691 H1667 0.951 . S
C1691 C1692 1.366 . S
C1691 C1693 1.388 . S
C1692 C1691 1.366 . S
C1692 C1696 1.385 . S
C1693 H1668 0.951 . S
C1693 C1691 1.388 . S
C1693 C1694 1.366 . S
C1694 C1693 1.366 . S
C1694 C1695 1.414 . S
C1694 C1697 1.499 . S
C1695 H1669 0.950 . S
C1695 C1694 1.414 . S
C1695 C1696 1.374 . S
C1696 H1670 0.950 . S
C1696 C1692 1.385 . S
C1696 C1695 1.374 . S
C1697 C1694 1.499 . S
C1697 C1698 1.373 . S
C1697 C1699 1.389 . S
C1698 H1671 0.950 . S
C1698 C1684 1.377 . S
C1698 C1697 1.373 . S
C1699 C1683 1.377 . S
C1699 C1697 1.389 . S
C1699 C1700 1.524 . S
C1700 C1699 1.524 . S
C1700 C1701 1.397 . S
C1700 C1705 1.363 . S
C1701 H1672 0.950 . S
C1701 C1700 1.397 . S
C1701 C1702 1.334 . S
C1702 H1673 0.950 . S
C1702 C1701 1.334 . S
C1702 C1703 1.287 . S
C1703 C1702 1.287 . S
C1703 C1704 1.524 . S
C1703 H1706 0.999 . S
C1704 H1674 0.950 . S
C1704 C1703 1.524 . S
C1704 C1705 1.415 . S
C1705 H1675 0.950 . S
C1705 C1700 1.363 . S
C1705 C1704 1.415 . S
H1706 C1703 0.999 . S
H1707 C1688 0.913 . S
H1708 C1726 0.951 . S
H1709 C1728 0.951 . S
H1710 C1730 0.950 . S
H1711 C1731 0.950 . S
H1712 C1733 0.950 . S
H1713 C1736 0.950 . S
H1714 C1737 0.950 . S
H1715 C1739 0.950 . S
H1716 C1740 0.950 . S
H1717 C1741 0.951 . S
H1718 C1743 0.951 . S
H1719 C1745 0.950 . S
H1720 C1746 0.950 . S
H1721 C1748 0.950 . S
H1722 C1751 0.950 . S
H1723 C1752 0.950 . S
H1724 C1754 0.950 . S
H1725 C1755 0.950 . S
C1726 H1708 0.951 . S
C1726 C1727 1.366 . S
C1726 C1728 1.388 . S
C1727 C1726 1.366 . S
C1727 C1731 1.385 . S
C1728 H1709 0.951 . S
C1728 C1726 1.388 . S
C1728 C1729 1.366 . S
C1729 C1728 1.366 . S
C1729 C1730 1.414 . S
C1729 C1732 1.499 . S
C1730 H1710 0.950 . S
C1730 C1729 1.414 . S
C1730 C1731 1.374 . S
C1731 H1711 0.950 . S
C1731 C1727 1.385 . S
C1731 C1730 1.374 . S
C1732 C1729 1.499 . S
C1732 C1733 1.373 . S
C1732 C1734 1.389 . S
C1733 H1712 0.950 . S
C1733 C1732 1.373 . S
C1733 C1749 1.377 . S
C1734 C1732 1.389 . S
C1734 C1735 1.524 . S
C1734 C1748 1.377 . S
C1735 C1734 1.524 . S
C1735 C1736 1.397 . S
C1735 C1740 1.363 . S
C1736 H1713 0.950 . S
C1736 C1735 1.397 . S
C1736 C1737 1.334 . S
C1737 H1714 0.950 . S
C1737 C1736 1.334 . S
C1737 C1738 1.287 . S
C1738 C1737 1.287 . S
C1738 C1739 1.524 . S
C1738 H1757 0.913 . S
C1739 H1715 0.950 . S
C1739 C1738 1.524 . S
C1739 C1740 1.415 . S
C1740 H1716 0.950 . S
C1740 C1735 1.363 . S
C1740 C1739 1.415 . S
C1741 H1717 0.951 . S
C1741 C1742 1.366 . S
C1741 C1743 1.388 . S
C1742 C1741 1.366 . S
C1742 C1746 1.385 . S
C1743 H1718 0.951 . S
C1743 C1741 1.388 . S
C1743 C1744 1.366 . S
C1744 C1743 1.366 . S
C1744 C1745 1.414 . S
C1744 C1747 1.499 . S
C1745 H1719 0.950 . S
C1745 C1744 1.414 . S
C1745 C1746 1.374 . S
C1746 H1720 0.950 . S
C1746 C1742 1.385 . S
C1746 C1745 1.374 . S
C1747 C1744 1.499 . S
C1747 C1748 1.373 . S
C1747 C1749 1.389 . S
C1748 H1721 0.950 . S
C1748 C1734 1.377 . S
C1748 C1747 1.373 . S
C1749 C1733 1.377 . S
C1749 C1747 1.389 . S
C1749 C1750 1.524 . S
C1750 C1749 1.524 . S
C1750 C1751 1.397 . S
C1750 C1755 1.363 . S
C1751 H1722 0.950 . S
C1751 C1750 1.397 . S
C1751 C1752 1.334 . S
C1752 H1723 0.950 . S
C1752 C1751 1.334 . S
C1752 C1753 1.287 . S
C1753 C1752 1.287 . S
C1753 C1754 1.524 . S
C1753 H1756 0.999 . S
C1754 H1724 0.950 . S
C1754 C1753 1.524 . S
C1754 C1755 1.415 . S
C1755 H1725 0.950 . S
C1755 C1750 1.363 . S
C1755 C1754 1.415 . S
H1756 C1753 0.999 . S
H1757 C1738 0.913 . S
H1758 C1776 0.951 . S
H1759 C1778 0.951 . S
H1760 C1780 0.950 . S
H1761 C1781 0.950 . S
H1762 C1783 0.950 . S
H1763 C1786 0.950 . S
H1764 C1787 0.950 . S
H1765 C1789 0.950 . S
H1766 C1790 0.950 . S
H1767 C1791 0.951 . S
H1768 C1793 0.951 . S
H1769 C1795 0.950 . S
H1770 C1796 0.950 . S
H1771 C1798 0.950 . S
H1772 C1801 0.950 . S
H1773 C1802 0.950 . S
H1774 C1804 0.950 . S
H1775 C1805 0.950 . S
C1776 H1758 0.951 . S
C1776 C1777 1.366 . S
C1776 C1778 1.388 . S
C1777 C1776 1.366 . S
C1777 C1781 1.385 . S
C1778 H1759 0.951 . S
C1778 C1776 1.388 . S
C1778 C1779 1.366 . S
C1779 C1778 1.366 . S
C1779 C1780 1.414 . S
C1779 C1782 1.499 . S
C1780 H1760 0.950 . S
C1780 C1779 1.414 . S
C1780 C1781 1.374 . S
C1781 H1761 0.950 . S
C1781 C1777 1.385 . S
C1781 C1780 1.374 . S
C1782 C1779 1.499 . S
C1782 C1783 1.373 . S
C1782 C1784 1.389 . S
C1783 H1762 0.950 . S
C1783 C1782 1.373 . S
C1783 C1799 1.377 . S
C1784 C1782 1.389 . S
C1784 C1785 1.524 . S
C1784 C1798 1.377 . S
C1785 C1784 1.524 . S
C1785 C1786 1.397 . S
C1785 C1790 1.363 . S
C1786 H1763 0.950 . S
C1786 C1785 1.397 . S
C1786 C1787 1.334 . S
C1787 H1764 0.950 . S
C1787 C1786 1.334 . S
C1787 C1788 1.287 . S
C1788 C1787 1.287 . S
C1788 C1789 1.524 . S
C1788 H1807 0.913 . S
C1789 H1765 0.950 . S
C1789 C1788 1.524 . S
C1789 C1790 1.415 . S
C1790 H1766 0.950 . S
C1790 C1785 1.363 . S
C1790 C1789 1.415 . S
C1791 H1767 0.951 . S
C1791 C1792 1.366 . S
C1791 C1793 1.388 . S
C1792 C1791 1.366 . S
C1792 C1796 1.385 . S
C1793 H1768 0.951 . S
C1793 C1791 1.388 . S
C1793 C1794 1.366 . S
C1794 C1793 1.366 . S
C1794 C1795 1.414 . S
C1794 C1797 1.499 . S
C1795 H1769 0.950 . S
C1795 C1794 1.414 . S
C1795 C1796 1.374 . S
C1796 H1770 0.950 . S
C1796 C1792 1.385 . S
C1796 C1795 1.374 . S
C1797 C1794 1.499 . S
C1797 C1798 1.373 . S
C1797 C1799 1.389 . S
C1798 H1771 0.950 . S
C1798 C1784 1.377 . S
C1798 C1797 1.373 . S
C1799 C1783 1.377 . S
C1799 C1797 1.389 . S
C1799 C1800 1.524 . S
C1800 C1799 1.524 . S
C1800 C1801 1.397 . S
C1800 C1805 1.363 . S
C1801 H1772 0.950 . S
C1801 C1800 1.397 . S
C1801 C1802 1.334 . S
C1802 H1773 0.950 . S
C1802 C1801 1.334 . S
C1802 C1803 1.287 . S
C1803 C1802 1.287 . S
C1803 C1804 1.524 . S
C1803 H1806 0.999 . S
C1804 H1774 0.950 . S
C1804 C1803 1.524 . S
C1804 C1805 1.415 . S
C1805 H1775 0.950 . S
C1805 C1800 1.363 . S
C1805 C1804 1.415 . S
H1806 C1803 0.999 . S
H1807 C1788 0.913 . S
C227 C134 1.803 . S
C242 C4 1.802 . S
C277 C17 1.803 . S
C292 C153 1.803 . S
C327 C108 1.803 . S
C342 C36 1.803 . S
C377 C121 1.803 . S
C392 C43 1.803 . S
C427 C56 1.803 . S
C442 C186 1.803 . S
C477 C199 1.803 . S
C492 C69 1.803 . S
C527 C82 1.803 . S
C542 C166 1.803 . S
C577 C173 1.803 . S
C592 C95 1.802 . S
C627 C135 1.215 . S
C642 C5 1.215 . S
C677 C18 1.214 . S
C692 C146 1.215 . S
C727 C29 1.215 . S
C742 C109 1.214 . S
C777 C44 1.216 . S
C792 C122 1.216 . S
C827 C57 1.216 . S
C842 C187 1.216 . S
C877 C70 1.214 . S
C892 C200 1.215 . S
C927 C159 1.214 . S
C942 C83 1.215 . S
C977 C174 1.215 . S
C992 C96 1.215 . S
C1027 C10 1.296 . S
C1042 C88 1.296 . S
C1077 C23 1.296 . S
C1092 C101 1.297 . S
C1127 C30 1.297 . S
C1142 C62 1.297 . S
C1177 C49 1.297 . S
C1192 C75 1.297 . S
C1227 C114 1.297 . S
C1242 C192 1.298 . S
C1277 C205 1.298 . S
C1292 C127 1.298 . S
C1327 C140 1.298 . S
C1342 C160 1.298 . S
C1377 C179 1.297 . S
C1392 C147 1.297 . S
C1427 C3 1.199 . S
C1442 C198 1.199 . S
C1477 C161 1.198 . S
C1492 C16 1.198 . S
C1527 C172 1.199 . S
C1542 C31 1.199 . S
C1577 C185 1.199 . S
C1592 C42 1.199 . S
C1627 C120 1.199 . S
C1642 C55 1.199 . S
C1677 C133 1.198 . S
C1692 C68 1.199 . S
C1727 C81 1.199 . S
C1742 C148 1.199 . S
C1777 C94 1.199 . S
C1792 C107 1.198 . S
