# Generated by pormake.
# Topology wjd, (6)-cn, num edge types: 1
# Building blocks:
#     Node 0, Type 0, BuildingBlock: JUFBIX_clean_sbu_0, # of connection points: 6
#     Node 1, Type 0, BuildingBlock: JUFBIX_clean_sbu_0, # of connection points: 6
#     Node 2, Type 0, BuildingBlock: JUFBIX_clean_sbu_0, # of connection points: 6
#     Node 3, Type 0, BuildingBlock: JUFBIX_clean_sbu_0, # of connection points: 6
#     Node 4, Type 0, BuildingBlock: JUFBIX_clean_sbu_0, # of connection points: 6
#     Node 5, Type 0, BuildingBlock: JUFBIX_clean_sbu_0, # of connection points: 6
#     Node 6, Type 0, BuildingBlock: JUFBIX_clean_sbu_0, # of connection points: 6
#     Node 7, Type 0, BuildingBlock: JUFBIX_clean_sbu_0, # of connection points: 6
#     Node 8, Type 0, BuildingBlock: JUFBIX_clean_sbu_0, # of connection points: 6
#     Node 9, Type 0, BuildingBlock: JUFBIX_clean_sbu_0, # of connection points: 6
#     Node 10, Type 0, BuildingBlock: JUFBIX_clean_sbu_0, # of connection points: 6
#     Node 11, Type 0, BuildingBlock: JUFBIX_clean_sbu_0, # of connection points: 6
#     Edge 12, Type (0, 0), BuildingBlock: KIFKEQ_clean_linker_1, # of connection points: 2
#     Edge 13, Type (0, 0), BuildingBlock: KIFKEQ_clean_linker_1, # of connection points: 2
#     Edge 14, Type (0, 0), BuildingBlock: KIFKEQ_clean_linker_1, # of connection points: 2
#     Edge 15, Type (0, 0), BuildingBlock: KIFKEQ_clean_linker_1, # of connection points: 2
#     Edge 16, Type (0, 0), BuildingBlock: KIFKEQ_clean_linker_1, # of connection points: 2
#     Edge 17, Type (0, 0), BuildingBlock: KIFKEQ_clean_linker_1, # of connection points: 2
#     Edge 18, Type (0, 0), BuildingBlock: KIFKEQ_clean_linker_1, # of connection points: 2
#     Edge 19, Type (0, 0), BuildingBlock: KIFKEQ_clean_linker_1, # of connection points: 2
#     Edge 20, Type (0, 0), BuildingBlock: KIFKEQ_clean_linker_1, # of connection points: 2
#     Edge 21, Type (0, 0), BuildingBlock: KIFKEQ_clean_linker_1, # of connection points: 2
#     Edge 22, Type (0, 0), BuildingBlock: KIFKEQ_clean_linker_1, # of connection points: 2
#     Edge 23, Type (0, 0), BuildingBlock: KIFKEQ_clean_linker_1, # of connection points: 2
#     Edge 24, Type (0, 0), BuildingBlock: KIFKEQ_clean_linker_1, # of connection points: 2
#     Edge 25, Type (0, 0), BuildingBlock: KIFKEQ_clean_linker_1, # of connection points: 2
#     Edge 26, Type (0, 0), BuildingBlock: KIFKEQ_clean_linker_1, # of connection points: 2
#     Edge 27, Type (0, 0), BuildingBlock: KIFKEQ_clean_linker_1, # of connection points: 2
#     Edge 28, Type (0, 0), BuildingBlock: KIFKEQ_clean_linker_1, # of connection points: 2
#     Edge 29, Type (0, 0), BuildingBlock: KIFKEQ_clean_linker_1, # of connection points: 2
#     Edge 30, Type (0, 0), BuildingBlock: KIFKEQ_clean_linker_1, # of connection points: 2
#     Edge 31, Type (0, 0), BuildingBlock: KIFKEQ_clean_linker_1, # of connection points: 2
#     Edge 32, Type (0, 0), BuildingBlock: KIFKEQ_clean_linker_1, # of connection points: 2
#     Edge 33, Type (0, 0), BuildingBlock: KIFKEQ_clean_linker_1, # of connection points: 2
#     Edge 34, Type (0, 0), BuildingBlock: KIFKEQ_clean_linker_1, # of connection points: 2
#     Edge 35, Type (0, 0), BuildingBlock: KIFKEQ_clean_linker_1, # of connection points: 2
#     Edge 36, Type (0, 0), BuildingBlock: KIFKEQ_clean_linker_1, # of connection points: 2
#     Edge 37, Type (0, 0), BuildingBlock: KIFKEQ_clean_linker_1, # of connection points: 2
#     Edge 38, Type (0, 0), BuildingBlock: KIFKEQ_clean_linker_1, # of connection points: 2
#     Edge 39, Type (0, 0), BuildingBlock: KIFKEQ_clean_linker_1, # of connection points: 2
#     Edge 40, Type (0, 0), BuildingBlock: KIFKEQ_clean_linker_1, # of connection points: 2
#     Edge 41, Type (0, 0), BuildingBlock: KIFKEQ_clean_linker_1, # of connection points: 2
#     Edge 42, Type (0, 0), BuildingBlock: KIFKEQ_clean_linker_1, # of connection points: 2
#     Edge 43, Type (0, 0), BuildingBlock: KIFKEQ_clean_linker_1, # of connection points: 2
#     Edge 44, Type (0, 0), BuildingBlock: KIFKEQ_clean_linker_1, # of connection points: 2
#     Edge 45, Type (0, 0), BuildingBlock: KIFKEQ_clean_linker_1, # of connection points: 2
#     Edge 46, Type (0, 0), BuildingBlock: KIFKEQ_clean_linker_1, # of connection points: 2
#     Edge 47, Type (0, 0), BuildingBlock: KIFKEQ_clean_linker_1, # of connection points: 2
# Relax obj value: 0.303
# Max RMSD: 0.238
# Mean RMSD: 0.238
data_MOF--net-wjd--node1-JUFBIX_clean_sbu_0--edge1-KIFKEQ_clean_linker_1
_symmetry_space_group_name_H-M    P1
_symmetry_Int_Tables_number       1
_symmetry_cell_setting            triclinic
loop_
_symmetry_equiv_pos_as_xyz
'x, y, z'
_cell_length_a     33.684785
_cell_length_b     33.55876
_cell_length_c     56.463207
_cell_angle_alpha  89.973394
_cell_angle_beta   90.019342
_cell_angle_gamma 119.784
loop_
_atom_site_label
_atom_site_type_symbol
_atom_site_fract_x
_atom_site_fract_y
_atom_site_fract_z
_atom_type_partial_charge
Co0 Co 0.31719 0.13856 0.13862 0.0
C1 C 0.3621 0.14858 0.18311 0.0
Co2 Co 0.3648 0.1115 0.14105 0.0
C3 C 0.23919 0.15756 0.13549 0.0
C4 C 0.30233 0.21112 0.14938 0.0
N5 N 0.28283 0.16829 0.14029 0.0
N6 N 0.23147 0.1925 0.14116 0.0
C7 C 0.27131 0.22582 0.15 0.0
H8 H 0.21375 0.1249 0.12821 0.0
H9 H 0.33709 0.23047 0.15583 0.0
C10 C 0.31755 0.09706 0.09733 0.0
N11 N 0.40295 0.08666 0.13986 0.0
C12 C 0.4485 0.11003 0.14356 0.0
C13 C 0.39466 0.04703 0.12951 0.0
N14 N 0.46931 0.08772 0.13497 0.0
C15 C 0.43557 0.04781 0.12626 0.0
C16 C 0.27463 0.04869 0.1524 0.0
O17 O 0.2979 0.11744 0.10661 0.0
O18 O 0.3491 0.09523 0.10885 0.0
O19 O 0.31444 0.05388 0.14969 0.0
O20 O 0.26824 0.08279 0.14976 0.0
O21 O 0.37964 0.12682 0.17344 0.0
H22 H 0.3617 0.02124 0.12282 0.0
H23 H 0.46676 0.14494 0.15012 0.0
O24 O 0.33586 0.15755 0.17084 0.0
O25 O 0.36662 0.1942 0.12703 0.0
O26 O 0.41487 0.16965 0.13216 0.0
C27 C 0.40728 0.2017 0.12644 0.0
H28 H 0.27751 0.25822 0.15729 0.0
H29 H 0.44048 0.02259 0.11673 0.0
Co30 Co 0.77537 0.68855 0.39314 0.0
C31 C 0.8012 0.64832 0.35891 0.0
Co32 Co 0.80026 0.64434 0.40867 0.0
C33 C 0.77416 0.7718 0.38793 0.0
C34 C 0.72701 0.72202 0.36356 0.0
N35 N 0.75649 0.72772 0.38113 0.0
N36 N 0.75776 0.79437 0.37516 0.0
C37 C 0.72763 0.76306 0.35988 0.0
H38 H 0.79921 0.78722 0.40193 0.0
H39 H 0.70748 0.6906 0.35364 0.0
C40 C 0.77259 0.68695 0.44234 0.0
N41 N 0.82203 0.60718 0.42115 0.0
C42 C 0.82881 0.57529 0.41005 0.0
C43 C 0.84026 0.61109 0.44288 0.0
N44 N 0.85096 0.55964 0.42389 0.0
C45 C 0.85779 0.58196 0.44464 0.0
C46 C 0.86971 0.73301 0.40154 0.0
O47 O 0.76546 0.70322 0.42365 0.0
O48 O 0.7885 0.65958 0.44055 0.0
O49 O 0.86014 0.69411 0.40973 0.0
O50 O 0.83763 0.73869 0.39347 0.0
O51 O 0.81086 0.6307 0.37645 0.0
H52 H 0.84241 0.63489 0.4564 0.0
H53 H 0.81947 0.56516 0.39181 0.0
O54 O 0.78485 0.67452 0.36256 0.0
O55 O 0.71373 0.63701 0.39274 0.0
O56 O 0.74051 0.59409 0.40744 0.0
C57 C 0.70716 0.59803 0.39981 0.0
H58 H 0.70874 0.76973 0.34645 0.0
H59 H 0.87481 0.57811 0.46 0.0
Co60 Co 0.85852 0.1787 0.1312 0.0
C61 C 0.84773 0.21157 0.17597 0.0
Co62 Co 0.89034 0.25383 0.13492 0.0
C63 C 0.833 0.08 0.12754 0.0
C64 C 0.77868 0.09325 0.13575 0.0
N65 N 0.82376 0.11464 0.13046 0.0
N66 N 0.79505 0.03826 0.13049 0.0
C67 C 0.76113 0.04694 0.13563 0.0
H68 H 0.86686 0.0853 0.12398 0.0
H69 H 0.75971 0.11025 0.14056 0.0
C70 C 0.90555 0.22327 0.09101 0.0
N71 N 0.91991 0.31777 0.13593 0.0
C72 C 0.89905 0.34294 0.13881 0.0
C73 C 0.96346 0.34869 0.13019 0.0
N74 N 0.92715 0.38792 0.13445 0.0
C75 C 0.96805 0.39196 0.12934 0.0
C76 C 0.94561 0.2157 0.14686 0.0
O77 O 0.88294 0.18272 0.09959 0.0
O78 O 0.90859 0.25682 0.10299 0.0
O79 O 0.94505 0.25326 0.14419 0.0
O80 O 0.90931 0.17754 0.14356 0.0
O81 O 0.87305 0.25098 0.16704 0.0
H82 H 0.9894 0.34005 0.12545 0.0
H83 H 0.86316 0.32838 0.14305 0.0
O84 O 0.83619 0.17629 0.16313 0.0
O85 O 0.80803 0.18002 0.11828 0.0
O86 O 0.83484 0.25252 0.12538 0.0
C87 C 0.80253 0.2145 0.11813 0.0
H88 H 0.72645 0.02169 0.14039 0.0
H89 H 0.99812 0.4233 0.1238 0.0
Co90 Co 0.30953 0.08002 0.39359 0.0
C91 C 0.34972 0.14565 0.35903 0.0
Co92 Co 0.35249 0.14936 0.40879 0.0
C93 C 0.22843 0.99397 0.39087 0.0
C94 C 0.27239 1.00054 0.36202 0.0
N95 N 0.27046 0.02177 0.38191 0.0
N96 N 0.20367 0.95658 0.37739 0.0
C97 C 0.2311 0.96043 0.35911 0.0
H98 H 0.21507 0.00259 0.40628 0.0
H99 H 0.30098 0.01436 0.34987 0.0
C100 C 0.30978 0.08012 0.44293 0.0
N101 N 0.38895 0.20829 0.42094 0.0
C102 C 0.42617 0.24459 0.41133 0.0
C103 C 0.37891 0.2255 0.44015 0.0
N104 N 0.43915 0.28378 0.42361 0.0
C105 C 0.40955 0.27173 0.44181 0.0
C106 C 0.2642 0.12976 0.40088 0.0
O107 O 0.29545 0.05632 0.42426 0.0
O108 O 0.33619 0.12345 0.44098 0.0
O109 O 0.30279 0.15982 0.40873 0.0
O110 O 0.25912 0.09157 0.3938 0.0
O111 O 0.36737 0.17302 0.3765 0.0
H112 H 0.34986 0.2061 0.45165 0.0
H113 H 0.44197 0.24285 0.39496 0.0
O114 O 0.32325 0.10328 0.36284 0.0
O115 O 0.3613 0.07004 0.39324 0.0
O116 O 0.40251 0.13938 0.4084 0.0
C117 C 0.39971 0.1026 0.40052 0.0
H118 H 0.22162 0.93667 0.34444 0.0
H119 H 0.40949 0.2949 0.45513 0.0
Co120 Co 0.83301 0.70475 0.14081 0.0
C121 C 0.79672 0.65378 0.1834 0.0
Co122 Co 0.7604 0.65073 0.14013 0.0
C123 C 0.93386 0.76056 0.13818 0.0
C124 C 0.90227 0.77949 0.16551 0.0
N125 N 0.89252 0.75129 0.14664 0.0
N126 N 0.96828 0.79283 0.15142 0.0
C127 C 0.94842 0.80495 0.16838 0.0
H128 H 0.93859 0.74233 0.12363 0.0
H129 H 0.87739 0.77975 0.17751 0.0
C130 C 0.79452 0.70333 0.09809 0.0
N131 N 0.70031 0.60476 0.13589 0.0
C132 C 0.68184 0.55881 0.13795 0.0
C133 C 0.6657 0.61084 0.12829 0.0
N134 N 0.63711 0.53615 0.13197 0.0
C135 C 0.62686 0.56885 0.12597 0.0
C136 C 0.77084 0.73371 0.15291 0.0
O137 O 0.83304 0.72517 0.10868 0.0
O138 O 0.76177 0.66888 0.1083 0.0
O139 O 0.73995 0.69264 0.14902 0.0
O140 O 0.81226 0.74442 0.15088 0.0
O141 O 0.75889 0.63324 0.17237 0.0
H142 H 0.66872 0.64366 0.12405 0.0
H143 H 0.70086 0.54229 0.14356 0.0
O144 O 0.83169 0.68454 0.17264 0.0
O145 O 0.85367 0.66456 0.13058 0.0
O146 O 0.78192 0.60954 0.13117 0.0
C147 C 0.82409 0.62234 0.12822 0.0
H148 H 0.9662 0.82977 0.18228 0.0
H149 H 0.59403 0.56277 0.11955 0.0
Co150 Co 0.91632 0.22453 0.38683 0.0
C151 C 0.85225 0.20699 0.35224 0.0
Co152 Co 0.84844 0.20423 0.4021 0.0
C153 C 0.99582 0.21714 0.38168 0.0
C154 C 0.99923 0.26876 0.35819 0.0
N155 N 0.9728 0.23853 0.37493 0.0
N156 N 0.03533 0.23221 0.36978 0.0
C157 C 0.03798 0.26508 0.35504 0.0
H158 H 0.98384 0.19106 0.39533 0.0
H159 H 0.99065 0.29151 0.34873 0.0
C160 C 0.91612 0.22232 0.43612 0.0
N161 N 0.79132 0.18869 0.41463 0.0
C162 C 0.74964 0.16427 0.40443 0.0
C163 C 0.78285 0.20024 0.43617 0.0
N164 N 0.71565 0.16005 0.41878 0.0
C165 C 0.73649 0.18257 0.43879 0.0
C166 C 0.85897 0.12975 0.39318 0.0
O167 O 0.94001 0.2306 0.41756 0.0
O168 O 0.87367 0.20937 0.43398 0.0
O169 O 0.83108 0.14157 0.40104 0.0
O170 O 0.89844 0.16067 0.3865 0.0
O171 O 0.82554 0.20004 0.36974 0.0
H172 H 0.80873 0.22098 0.44903 0.0
H173 H 0.74426 0.1499 0.38679 0.0
O174 O 0.89357 0.21834 0.35612 0.0
O175 O 0.93264 0.28844 0.38716 0.0
O176 O 0.86532 0.26645 0.40323 0.0
C177 C 0.90351 0.29823 0.39575 0.0
H178 H 0.0654 0.28437 0.3426 0.0
H179 H 0.71959 0.18744 0.45391 0.0
Co180 Co 0.10262 0.36167 0.6334 0.0
C181 C 0.09982 0.3257 0.58822 0.0
Co182 Co 0.13882 0.32203 0.63073 0.0
C183 C 0.09014 0.43941 0.64054 0.0
C184 C 0.03134 0.38438 0.62403 0.0
N185 N 0.07168 0.39489 0.63408 0.0
N186 N 0.06392 0.45776 0.63427 0.0
C187 C 0.02651 0.42291 0.62408 0.0
H188 H 0.12403 0.45907 0.64803 0.0
H189 H 0.00845 0.35184 0.61573 0.0
C190 C 0.13715 0.35579 0.67643 0.0
N191 N 0.17465 0.2935 0.63053 0.0
C192 C 0.16665 0.25055 0.62568 0.0
C193 C 0.2186 0.31624 0.63796 0.0
N194 N 0.20435 0.24653 0.62941 0.0
C195 C 0.2368 0.28792 0.63711 0.0
C196 C 0.19378 0.4154 0.62292 0.0
O197 O 0.11207 0.36924 0.66647 0.0
O198 O 0.15397 0.33623 0.6639 0.0
O199 O 0.19106 0.37665 0.62183 0.0
O200 O 0.15867 0.41785 0.62838 0.0
O201 O 0.12149 0.30747 0.59774 0.0
H202 H 0.23624 0.35111 0.64453 0.0
H203 H 0.13382 0.22274 0.61999 0.0
O204 O 0.09232 0.35314 0.60042 0.0
O205 O 0.04726 0.30432 0.63833 0.0
O206 O 0.08648 0.26767 0.63929 0.0
C207 C 0.0485 0.26704 0.64056 0.0
H208 H 0.99856 0.42544 0.6162 0.0
H209 H 0.27077 0.29653 0.64295 0.0
Co210 Co 0.17804 0.85928 0.90706 0.0
C211 C 0.21724 0.85693 0.86273 0.0
Co212 Co 0.25257 0.88987 0.90612 0.0
C213 C 0.08082 0.83579 0.91025 0.0
C214 C 0.09297 0.78381 0.89591 0.0
N215 N 0.11467 0.8266 0.90511 0.0
N216 N 0.03907 0.79998 0.90471 0.0
C217 C 0.04702 0.76753 0.89565 0.0
H218 H 0.08673 0.86804 0.91763 0.0
H219 H 0.10969 0.7657 0.8892 0.0
C220 C 0.21648 0.89737 0.94984 0.0
N221 N 0.31549 0.91788 0.90782 0.0
C222 C 0.34024 0.8976 0.9024 0.0
C223 C 0.3447 0.95668 0.91939 0.0
N224 N 0.38319 0.92103 0.91092 0.0
C225 C 0.38638 0.95856 0.92145 0.0
C226 C 0.21934 0.94906 0.89564 0.0
O227 O 0.17757 0.87842 0.93952 0.0
O228 O 0.25083 0.901 0.93865 0.0
O229 O 0.25554 0.94698 0.89956 0.0
O230 O 0.18046 0.9129 0.89656 0.0
O231 O 0.25489 0.87998 0.87353 0.0
H232 H 0.33525 0.97997 0.92752 0.0
H233 H 0.32573 0.86392 0.89441 0.0
O234 O 0.18018 0.8425 0.87433 0.0
O235 O 0.1754 0.80544 0.91807 0.0
O236 O 0.24825 0.83186 0.91284 0.0
C237 C 0.20925 0.79907 0.91847 0.0
H238 H 0.02159 0.73485 0.8884 0.0
H239 H 0.41572 0.98398 0.93123 0.0
Co240 Co 0.63678 0.74055 0.63824 0.0
C241 C 0.68142 0.77767 0.59494 0.0
Co242 Co 0.68562 0.81489 0.63873 0.0
C243 C 0.55196 0.65799 0.64031 0.0
C244 C 0.603 0.64549 0.62525 0.0
N245 N 0.59708 0.67826 0.63579 0.0
N246 N 0.52913 0.61465 0.63228 0.0
C247 C 0.56098 0.60605 0.62308 0.0
H248 H 0.53544 0.67556 0.64798 0.0
H249 H 0.63506 0.65096 0.618 0.0
C250 C 0.64273 0.77562 0.68255 0.0
N251 N 0.72151 0.87839 0.64179 0.0
C252 C 0.7627 0.91118 0.63356 0.0
C253 C 0.70522 0.90184 0.65401 0.0
N254 N 0.77187 0.95382 0.64013 0.0
C255 C 0.7358 0.94759 0.65312 0.0
C256 C 0.59599 0.79245 0.62809 0.0
O257 O 0.62372 0.738 0.67123 0.0
O258 O 0.66925 0.81224 0.67146 0.0
O259 O 0.637 0.82453 0.62954 0.0
O260 O 0.58737 0.75164 0.63145 0.0
O261 O 0.7027 0.81574 0.60607 0.0
H262 H 0.67247 0.88664 0.66288 0.0
H263 H 0.78487 0.90409 0.62264 0.0
O264 O 0.65009 0.74267 0.60549 0.0
O265 O 0.68683 0.73061 0.64481 0.0
O266 O 0.73378 0.80529 0.64769 0.0
C267 C 0.72677 0.76439 0.64853 0.0
H268 H 0.55393 0.57501 0.61378 0.0
H269 H 0.73188 0.9743 0.66168 0.0
Co270 Co 0.14202 0.31669 0.90018 0.0
C271 C 0.14722 0.35807 0.8554 0.0
Co272 Co 0.11219 0.36154 0.89825 0.0
C273 C 0.16464 0.24291 0.9061 0.0
C274 C 0.21644 0.30476 0.89 0.0
N275 N 0.17398 0.28528 0.89936 0.0
N276 N 0.20003 0.23575 0.90136 0.0
C277 C 0.23238 0.27467 0.89118 0.0
H278 H 0.13266 0.21797 0.91414 0.0
H279 H 0.23464 0.3388 0.88238 0.0
C280 C 0.1022 0.31813 0.9424 0.0
N281 N 0.08477 0.39725 0.89878 0.0
C282 C 0.10668 0.44215 0.89324 0.0
C283 C 0.04642 0.38975 0.9101 0.0
N284 N 0.0852 0.46382 0.90179 0.0
C285 C 0.04663 0.43084 0.912 0.0
C286 C 0.05301 0.26923 0.88772 0.0
O287 O 0.12208 0.29834 0.93269 0.0
O288 O 0.09839 0.3484 0.93071 0.0
O289 O 0.05534 0.30799 0.89079 0.0
O290 O 0.0887 0.26578 0.88974 0.0
O291 O 0.12493 0.37427 0.86569 0.0
H292 H 0.02244 0.35773 0.91853 0.0
H293 H 0.14004 0.45953 0.88495 0.0
O294 O 0.15957 0.334 0.8674 0.0
O295 O 0.19579 0.36747 0.91117 0.0
O296 O 0.16993 0.41469 0.90605 0.0
C297 C 0.20232 0.40781 0.91186 0.0
H298 H 0.26476 0.28053 0.88418 0.0
H299 H 0.02286 0.43674 0.92223 0.0
Co300 Co 0.244 0.89231 0.6387 0.0
C301 C 0.20513 0.90132 0.59635 0.0
Co302 Co 0.172 0.87532 0.64147 0.0
C303 C 0.32251 0.87846 0.63621 0.0
C304 C 0.337 0.94441 0.62346 0.0
N305 N 0.30388 0.9058 0.63367 0.0
N306 N 0.36566 0.89832 0.62768 0.0
C307 C 0.37491 0.93999 0.61983 0.0
H308 H 0.30404 0.84381 0.64309 0.0
H309 H 0.33327 0.9733 0.61805 0.0
C310 C 0.21305 0.86963 0.68413 0.0
N311 N 0.11264 0.8625 0.64746 0.0
C312 C 0.07153 0.82902 0.63957 0.0
C313 C 0.10262 0.88252 0.66548 0.0
N314 N 0.03687 0.82739 0.65238 0.0
C315 C 0.05636 0.86116 0.66848 0.0
C316 C 0.17953 0.79886 0.63217 0.0
O317 O 0.24918 0.88407 0.67177 0.0
O318 O 0.1764 0.86266 0.67407 0.0
O319 O 0.15105 0.81304 0.6341 0.0
O320 O 0.22214 0.82777 0.63363 0.0
O321 O 0.16914 0.88983 0.6086 0.0
H322 H 0.1275 0.90937 0.67676 0.0
H323 H 0.06719 0.80479 0.62577 0.0
O324 O 0.23901 0.90095 0.60599 0.0
O325 O 0.26438 0.95689 0.64368 0.0
O326 O 0.19248 0.93659 0.64871 0.0
C327 C 0.23389 0.96768 0.64806 0.0
H328 H 0.40655 0.96524 0.61163 0.0
H329 H 0.03829 0.86903 0.68188 0.0
Co330 Co 0.68786 0.82504 0.90426 0.0
C331 C 0.64282 0.78213 0.86133 0.0
Co332 Co 0.64254 0.75061 0.90573 0.0
C333 C 0.76259 0.92203 0.90579 0.0
C334 C 0.6999 0.90975 0.88981 0.0
N335 N 0.71994 0.88816 0.90041 0.0
N336 N 0.76928 0.96368 0.899 0.0
C337 C 0.72984 0.95565 0.88888 0.0
H338 H 0.78797 0.91625 0.91444 0.0
H339 H 0.6654 0.89302 0.88289 0.0
C340 C 0.68956 0.79064 0.94815 0.0
N341 N 0.6054 0.68798 0.90901 0.0
C342 C 0.56069 0.66553 0.90329 0.0
C343 C 0.61205 0.65727 0.92125 0.0
N344 N 0.53851 0.62275 0.91222 0.0
C345 C 0.57078 0.61691 0.92323 0.0
C346 C 0.73325 0.77949 0.89393 0.0
O347 O 0.70918 0.82832 0.93655 0.0
O348 O 0.65765 0.75514 0.93821 0.0
O349 O 0.69486 0.74425 0.89894 0.0
O350 O 0.73696 0.81905 0.89372 0.0
O351 O 0.62812 0.7454 0.87314 0.0
H352 H 0.64387 0.66486 0.92971 0.0
H353 H 0.54401 0.68137 0.89396 0.0
O354 O 0.66719 0.82019 0.87182 0.0
O355 O 0.63915 0.83156 0.91526 0.0
O356 O 0.59075 0.7585 0.91281 0.0
C357 C 0.59869 0.79886 0.91704 0.0
H358 H 0.72334 0.98098 0.88064 0.0
H359 H 0.56439 0.58711 0.93355 0.0
H360 H 0.9605 0.15165 0.16849 0.0
H361 H 0.02765 0.27804 0.12872 0.0
H362 H 0.02952 0.14534 0.16637 0.0
H363 H 0.09518 0.27035 0.1249 0.0
H364 H 0.225 0.26954 0.13886 0.0
H365 H 0.15746 0.27583 0.14294 0.0
H366 H 0.07405 0.12772 0.14179 0.0
H367 H 0.14333 0.12156 0.1402 0.0
C368 C 0.99035 0.17834 0.15953 0.0
C369 C 0.98918 0.2158 0.14917 0.0
C370 C 0.02964 0.17433 0.1579 0.0
C371 C 0.06822 0.20709 0.14531 0.0
C372 C 0.06688 0.24488 0.13524 0.0
C373 C 0.0281 0.24949 0.13745 0.0
C374 C 0.19246 0.2381 0.13985 0.0
C375 C 0.18993 0.19497 0.13981 0.0
C376 C 0.15326 0.24176 0.14174 0.0
C377 C 0.10982 0.20236 0.14281 0.0
C378 C 0.10691 0.15896 0.14159 0.0
C379 C 0.14659 0.1553 0.14024 0.0
H380 H 0.13879 0.91341 0.34365 0.0
H381 H 0.16087 0.92513 0.41921 0.0
H382 H 0.05688 0.86125 0.35017 0.0
H383 H 0.07932 0.87372 0.42576 0.0
H384 H 0.94214 0.73723 0.42501 0.0
H385 H 0.02301 0.79135 0.41896 0.0
H386 H 0.98863 0.86451 0.36744 0.0
H387 H 0.9071 0.80997 0.37348 0.0
C388 C 0.12619 0.90445 0.36161 0.0
C389 C 0.15616 0.92322 0.38093 0.0
C390 C 0.0793 0.87517 0.36535 0.0
C391 C 0.06168 0.86366 0.38848 0.0
C392 C 0.09188 0.88181 0.40774 0.0
C393 C 0.13851 0.91136 0.404 0.0
C394 C 0.95172 0.76514 0.41257 0.0
C395 C 0.91822 0.76935 0.39973 0.0
C396 C 0.99809 0.79619 0.40915 0.0
C397 C 0.01217 0.83199 0.39263 0.0
C398 C 0.97873 0.83689 0.3801 0.0
C399 C 0.93212 0.80601 0.38373 0.0
H400 H 0.71923 0.95752 0.12092 0.0
H401 H 0.86041 0.01677 0.14235 0.0
H402 H 0.7065 0.8814 0.12955 0.0
H403 H 0.84872 0.93989 0.14933 0.0
H404 H 0.8094 0.80577 0.18291 0.0
H405 H 0.81347 0.87965 0.177 0.0
H406 H 0.71985 0.82262 0.11794 0.0
H407 H 0.71411 0.74828 0.12494 0.0
C408 C 0.74779 0.95421 0.12723 0.0
C409 C 0.79065 0.99334 0.13141 0.0
C410 C 0.74056 0.91036 0.13196 0.0
C411 C 0.77628 0.90431 0.14058 0.0
C412 C 0.81998 0.9433 0.14341 0.0
C413 C 0.82704 0.9874 0.13896 0.0
C414 C 0.78821 0.80877 0.16937 0.0
C415 C 0.76092 0.77143 0.1546 0.0
C416 C 0.79133 0.85129 0.16558 0.0
C417 C 0.76803 0.85759 0.14657 0.0
C418 C 0.73815 0.81915 0.13284 0.0
C419 C 0.73437 0.77632 0.13697 0.0
H420 H 0.26573 0.20821 0.41472 0.0
H421 H 0.18043 0.07842 0.37975 0.0
H422 H 0.20967 0.23177 0.40613 0.0
H423 H 0.12438 0.10246 0.3709 0.0
H424 H 0.01568 0.14658 0.38238 0.0
H425 H 0.06979 0.12013 0.39051 0.0
H426 H 0.18147 0.2535 0.37103 0.0
H427 H 0.12717 0.28042 0.36359 0.0
C428 C 0.23485 0.18454 0.40532 0.0
C429 C 0.22757 0.14144 0.39786 0.0
C430 C 0.20294 0.19829 0.4002 0.0
C431 C 0.16294 0.16927 0.38755 0.0
C432 C 0.15487 0.12553 0.38074 0.0
C433 C 0.18692 0.11175 0.38583 0.0
C434 C 0.05179 0.17035 0.37994 0.0
C435 C 0.06726 0.21582 0.37263 0.0
C436 C 0.08274 0.155 0.38435 0.0
C437 C 0.12989 0.1848 0.38159 0.0
C438 C 0.14532 0.22993 0.37365 0.0
C439 C 0.11429 0.24524 0.36914 0.0
H440 H 0.26474 0.96923 0.13424 0.0
H441 H 0.19471 0.02456 0.17499 0.0
H442 H 0.19395 0.89456 0.13245 0.0
H443 H 0.12475 0.9497 0.17383 0.0
H444 H 0.02489 0.80084 0.18658 0.0
H445 H 0.10674 0.85622 0.18754 0.0
H446 H 0.103 0.88364 0.11319 0.0
H447 H 0.02036 0.82848 0.11239 0.0
C448 C 0.23461 0.96499 0.14339 0.0
C449 C 0.235 0.00237 0.15492 0.0
C450 C 0.1943 0.92255 0.14219 0.0
C451 C 0.15445 0.91686 0.15304 0.0
C452 C 0.15543 0.95356 0.16547 0.0
C453 C 0.19526 0.99617 0.16617 0.0
C454 C 0.04205 0.81731 0.17025 0.0
C455 C 0.01665 0.81117 0.14949 0.0
C456 C 0.08866 0.84882 0.17081 0.0
C457 C 0.11059 0.87409 0.15051 0.0
C458 C 0.08651 0.86405 0.129 0.0
C459 C 0.03951 0.83254 0.12848 0.0
H460 H 0.8406 0.86257 0.38941 0.0
H461 H 0.70849 0.8359 0.36431 0.0
H462 H 0.86468 0.94337 0.3939 0.0
H463 H 0.73334 0.91765 0.36797 0.0
H464 H 0.77617 0.05581 0.4044 0.0
H465 H 0.75162 0.97476 0.3992 0.0
H466 H 0.88431 0.01118 0.37052 0.0
H467 H 0.90924 0.0923 0.37615 0.0
C468 C 0.81658 0.87391 0.3849 0.0
C469 C 0.77234 0.8426 0.37677 0.0
C470 C 0.83067 0.92045 0.38717 0.0
C471 C 0.80096 0.937 0.38132 0.0
C472 C 0.75688 0.90587 0.37289 0.0
C473 C 0.74277 0.85915 0.37056 0.0
C474 C 0.80021 0.04656 0.39708 0.0
C475 C 0.84474 0.08053 0.39076 0.0
C476 C 0.78596 1.00008 0.3939 0.0
C477 C 0.81591 0.98648 0.38435 0.0
C478 C 0.86053 0.02048 0.37814 0.0
C479 C 0.87479 0.06699 0.38131 0.0
H480 H 0.28659 0.03738 0.61773 0.0
H481 H 0.19803 0.00304 0.6785 0.0
H482 H 0.27964 0.10576 0.61095 0.0
H483 H 0.19198 0.07165 0.67234 0.0
H484 H 0.13976 0.15845 0.63889 0.0
H485 H 0.15277 0.09344 0.64398 0.0
H486 H 0.29467 0.17987 0.62467 0.0
H487 H 0.28101 0.24388 0.61865 0.0
C488 C 0.26743 0.0457 0.63026 0.0
C489 C 0.24325 0.01537 0.64877 0.0
C490 C 0.26289 0.08449 0.62624 0.0
C491 C 0.23423 0.09356 0.64076 0.0
C492 C 0.21314 0.06498 0.66037 0.0
C493 C 0.21737 0.02622 0.66423 0.0
C494 C 0.17335 0.16313 0.6352 0.0
C495 C 0.20943 0.20636 0.62865 0.0
C496 C 0.18111 0.12618 0.63849 0.0
C497 C 0.22512 0.13172 0.63527 0.0
C498 C 0.26046 0.17432 0.62739 0.0
C499 C 0.25267 0.2111 0.62408 0.0
H500 H 0.02031 0.86999 0.90375 0.0
H501 H 0.9572 0.72238 0.90828 0.0
H502 H 0.94472 0.8628 0.90094 0.0
H503 H 0.88256 0.71491 0.90354 0.0
H504 H 0.75098 0.71823 0.91611 0.0
H505 H 0.82544 0.72407 0.92098 0.0
H506 H 0.88492 0.84049 0.87334 0.0
H507 H 0.81073 0.83595 0.86965 0.0
C508 C 0.9904 0.8361 0.90428 0.0
C509 C 0.99488 0.79678 0.90585 0.0
C510 C 0.94706 0.83184 0.90224 0.0
C511 C 0.90743 0.78818 0.90154 0.0
C512 C 0.91206 0.74909 0.9041 0.0
C513 C 0.95512 0.75339 0.90649 0.0
C514 C 0.77982 0.74434 0.90628 0.0
C515 C 0.77521 0.77649 0.89243 0.0
C516 C 0.82263 0.74791 0.90913 0.0
C517 C 0.86149 0.78319 0.8978 0.0
C518 C 0.85611 0.81374 0.88288 0.0
C519 C 0.81349 0.81068 0.88042 0.0
H520 H 0.77337 0.03439 0.63554 0.0
H521 H 0.85978 0.97325 0.63404 0.0
H522 H 0.83979 0.1101 0.63577 0.0
H523 H 0.92735 0.04995 0.63233 0.0
H524 H 0.03639 0.18844 0.66094 0.0
H525 H 0.96974 0.112 0.65785 0.0
H526 H 0.90091 0.1677 0.61605 0.0
H527 H 0.96659 0.24434 0.62054 0.0
C528 C 0.80679 0.03722 0.6349 0.0
C529 C 0.81138 0.99783 0.6354 0.0
C530 C 0.84508 0.08087 0.63468 0.0
C531 C 0.88925 0.0865 0.63439 0.0
C532 C 0.89388 0.04699 0.6332 0.0
C533 C 0.85525 0.003 0.63377 0.0
C534 C 0.00653 0.18426 0.6515 0.0
C535 C 0.00621 0.22226 0.64131 0.0
C536 C 0.96862 0.14034 0.64934 0.0
C537 C 0.92988 0.13331 0.63649 0.0
C538 C 0.92967 0.17167 0.62644 0.0
C539 C 0.96723 0.21573 0.62906 0.0
H540 H 0.1295 0.14794 0.90297 0.0
H541 H 0.27682 0.23021 0.90606 0.0
H542 H 0.1356 0.07855 0.9022 0.0
H543 H 0.28319 0.16192 0.90312 0.0
H544 H 0.28014 0.02807 0.91718 0.0
H545 H 0.274 0.09678 0.9217 0.0
H546 H 0.15614 0.03855 0.87526 0.0
H547 H 0.16081 0.96858 0.87213 0.0
C548 C 0.1631 0.15123 0.90364 0.0
C549 C 0.20267 0.19459 0.90411 0.0
C550 C 0.1667 0.11155 0.90276 0.0
C551 C 0.20995 0.11464 0.90207 0.0
C552 C 0.24931 0.15801 0.90371 0.0
C553 C 0.24566 0.19738 0.90504 0.0
C554 C 0.25355 0.03049 0.90758 0.0
C555 C 0.22115 0.99344 0.89417 0.0
C556 C 0.24984 0.06977 0.91022 0.0
C557 C 0.21427 0.07311 0.89902 0.0
C558 C 0.18317 0.03667 0.88467 0.0
C559 C 0.18627 0.99696 0.8825 0.0
H560 H 0.98114 0.7817 0.68838 0.0
H561 H 0.98434 0.80398 0.61309 0.0
H562 H 0.89828 0.74944 0.68854 0.0
H563 H 0.90089 0.77146 0.6131 0.0
H564 H 0.74366 0.70295 0.62556 0.0
H565 H 0.81584 0.70114 0.62593 0.0
H566 H 0.86955 0.80836 0.67873 0.0
H567 H 0.7986 0.81109 0.67781 0.0
C568 C 0.96365 0.77797 0.67173 0.0
C569 C 0.98875 0.79589 0.65079 0.0
C570 C 0.91642 0.75953 0.67181 0.0
C571 C 0.89357 0.7587 0.65092 0.0
C572 C 0.91789 0.77159 0.62942 0.0
C573 C 0.96544 0.79014 0.62937 0.0
C574 C 0.77064 0.72521 0.63763 0.0
C575 C 0.76589 0.75709 0.65175 0.0
C576 C 0.81177 0.72432 0.63773 0.0
C577 C 0.84787 0.75435 0.65247 0.0
C578 C 0.84193 0.7844 0.66746 0.0
C579 C 0.80151 0.78611 0.6669 0.0
H580 H 0.03427 0.18998 0.86565 0.0
H581 H 0.9733 0.25285 0.90776 0.0
H582 H 0.96494 0.11566 0.86963 0.0
H583 H 0.90515 0.17843 0.91311 0.0
H584 H 0.77353 0.04606 0.90043 0.0
H585 H 0.84066 0.12042 0.8955 0.0
H586 H 0.92575 0.05741 0.89778 0.0
H587 H 0.85737 0.98186 0.90061 0.0
C588 C 0.00565 0.18782 0.8755 0.0
C589 C 0.00868 0.22697 0.88617 0.0
C590 C 0.9663 0.1452 0.87816 0.0
C591 C 0.92964 0.14079 0.89201 0.0
C592 C 0.93234 0.18048 0.90205 0.0
C593 C 0.97131 0.22325 0.89891 0.0
C594 C 0.80648 0.04788 0.89966 0.0
C595 C 0.81001 0.00787 0.9003 0.0
C596 C 0.8452 0.0908 0.89718 0.0
C597 C 0.88874 0.09506 0.89592 0.0
C598 C 0.89261 0.05528 0.89803 0.0
C599 C 0.85354 0.01201 0.90009 0.0
H600 H 0.43134 0.19435 0.33546 0.0
H601 H 0.28514 0.12929 0.32661 0.0
H602 H 0.44123 0.2048 0.29221 0.0
H603 H 0.29469 0.14018 0.28391 0.0
H604 H 0.32353 0.18901 0.20921 0.0
H605 H 0.32685 0.20007 0.25196 0.0
H606 H 0.41918 0.14629 0.25802 0.0
H607 H 0.41597 0.1351 0.21506 0.0
C608 C 0.40156 0.18373 0.32432 0.0
C609 C 0.35753 0.16147 0.33424 0.0
C610 C 0.40711 0.18921 0.29963 0.0
C611 C 0.36872 0.17331 0.28465 0.0
C612 C 0.32498 0.15332 0.29491 0.0
C613 C 0.31946 0.14706 0.31935 0.0
C614 C 0.34511 0.1801 0.21955 0.0
C615 C 0.36903 0.16057 0.20869 0.0
C616 C 0.34696 0.18645 0.24408 0.0
C617 C 0.37303 0.17379 0.25839 0.0
C618 C 0.39906 0.15671 0.24745 0.0
C619 C 0.39695 0.15 0.22285 0.0
H620 H 0.8564 0.7141 0.32869 0.0
H621 H 0.76362 0.56835 0.33338 0.0
H622 H 0.85827 0.70865 0.2858 0.0
H623 H 0.76522 0.56243 0.28994 0.0
H624 H 0.72806 0.59785 0.21419 0.0
H625 H 0.7347 0.58961 0.25687 0.0
H626 H 0.88094 0.67889 0.25228 0.0
H627 H 0.87434 0.68778 0.20997 0.0
C628 C 0.83762 0.68057 0.32046 0.0
C629 C 0.81047 0.64155 0.33422 0.0
C630 C 0.83859 0.67737 0.29587 0.0
C631 C 0.8118 0.63509 0.28437 0.0
C632 C 0.78604 0.59552 0.29827 0.0
C633 C 0.78558 0.5987 0.32308 0.0
C634 C 0.76166 0.61521 0.22226 0.0
C635 C 0.80054 0.64404 0.20871 0.0
C636 C 0.76552 0.61021 0.24669 0.0
C637 C 0.80834 0.63392 0.25804 0.0
C638 C 0.84738 0.66071 0.24419 0.0
C639 C 0.84354 0.66576 0.21988 0.0
H640 H 0.86094 0.27944 0.20737 0.0
H641 H 0.8066 0.13292 0.20259 0.0
H642 H 0.85007 0.27286 0.25028 0.0
H643 H 0.79575 0.12648 0.24548 0.0
H644 H 0.86609 0.15618 0.32018 0.0
H645 H 0.85425 0.15323 0.27756 0.0
H646 H 0.79389 0.23994 0.28483 0.0
H647 H 0.80541 0.24226 0.32806 0.0
C648 C 0.84595 0.24571 0.2154 0.0
C649 C 0.83516 0.20678 0.20151 0.0
C650 C 0.8394 0.24193 0.24001 0.0
C651 C 0.82231 0.19919 0.25135 0.0
C652 C 0.80939 0.15997 0.23732 0.0
C653 C 0.81552 0.16367 0.2127 0.0
C654 C 0.84918 0.17364 0.31275 0.0
C655 C 0.8364 0.19922 0.32738 0.0
C656 C 0.84227 0.17186 0.28831 0.0
C657 C 0.82315 0.19636 0.27772 0.0
C658 C 0.80882 0.22079 0.29246 0.0
C659 C 0.81498 0.22181 0.31717 0.0
H660 H 0.09389 0.38167 0.7086 0.0
H661 H 0.19671 0.341 0.70337 0.0
H662 H 0.10151 0.38538 0.75134 0.0
H663 H 0.20597 0.34664 0.74639 0.0
H664 H 0.1683 0.30736 0.8252 0.0
H665 H 0.17005 0.30993 0.78203 0.0
H666 H 0.14642 0.4253 0.78368 0.0
H667 H 0.14251 0.42111 0.8267 0.0
C668 C 0.11873 0.37419 0.71656 0.0
C669 C 0.1446 0.36092 0.70248 0.0
C670 C 0.1234 0.37666 0.74121 0.0
C671 C 0.15455 0.36652 0.75259 0.0
C672 C 0.18113 0.35408 0.73842 0.0
C673 C 0.17607 0.35113 0.71369 0.0
C674 C 0.16403 0.3336 0.81631 0.0
C675 C 0.15486 0.36376 0.8294 0.0
C676 C 0.16519 0.33523 0.79148 0.0
C677 C 0.15778 0.36746 0.77911 0.0
C678 C 0.15101 0.39913 0.79239 0.0
C679 C 0.14919 0.39705 0.81715 0.0
H680 H 0.14384 0.80418 0.83395 0.0
H681 H 0.28966 0.89729 0.83234 0.0
H682 H 0.14261 0.80133 0.79076 0.0
H683 H 0.28825 0.89622 0.78937 0.0
H684 H 0.27974 0.86692 0.71099 0.0
H685 H 0.28004 0.85683 0.75382 0.0
H686 H 0.14774 0.84789 0.75868 0.0
H687 H 0.14673 0.85592 0.71602 0.0
C688 C 0.17567 0.82385 0.82439 0.0
C689 C 0.21678 0.85108 0.83664 0.0
C690 C 0.17496 0.82259 0.79957 0.0
C691 C 0.21526 0.84897 0.78636 0.0
C692 C 0.25658 0.87494 0.79875 0.0
C693 C 0.25736 0.87577 0.82351 0.0
C694 C 0.25063 0.86246 0.72124 0.0
C695 C 0.21328 0.8623 0.71006 0.0
C696 C 0.25084 0.8569 0.74585 0.0
C697 C 0.21393 0.85157 0.75993 0.0
C698 C 0.17642 0.85094 0.74857 0.0
C699 C 0.17599 0.85595 0.72401 0.0
H700 H 0.69318 0.8465 0.71267 0.0
H701 H 0.57924 0.70787 0.71131 0.0
H702 H 0.6884 0.84758 0.75549 0.0
H703 H 0.57273 0.70958 0.75432 0.0
H704 H 0.61256 0.70794 0.83204 0.0
H705 H 0.60846 0.70658 0.78907 0.0
H706 H 0.64982 0.85095 0.78879 0.0
H707 H 0.65621 0.85259 0.83182 0.0
C708 C 0.66649 0.81644 0.72151 0.0
C709 C 0.63674 0.77698 0.70854 0.0
C710 C 0.66348 0.81716 0.74619 0.0
C711 C 0.63015 0.77867 0.75864 0.0
C712 C 0.59944 0.73963 0.74552 0.0
C713 C 0.6029 0.73869 0.7208 0.0
C714 C 0.62037 0.73931 0.82282 0.0
C715 C 0.63506 0.78046 0.83538 0.0
C716 C 0.61774 0.73851 0.79807 0.0
C717 C 0.62911 0.77873 0.78518 0.0
C718 C 0.64185 0.81947 0.79792 0.0
C719 C 0.64515 0.8204 0.82267 0.0
H720 H 0.29542 0.93498 0.97473 0.0
H721 H 0.15909 0.9165 0.97726 0.0
H722 H 0.31702 0.98434 1.00864 0.0
H723 H 0.1804 0.96486 1.01305 0.0
H724 H 0.33885 0.03382 0.08177 0.0
H725 H 0.30834 0.98218 0.04885 0.0
H726 H 0.22626 0.04294 0.02886 0.0
H727 H 0.25524 0.09382 0.06367 0.0
C728 C 0.26943 0.9405 0.98288 0.0
C729 C 0.22521 0.92114 0.97318 0.0
C730 C 0.28192 0.96895 1.00265 0.0
C731 C 0.25047 0.97849 1.01405 0.0
C732 C 0.20572 0.9586 1.00471 0.0
C733 C 0.19324 0.93025 0.98443 0.0
C734 C 0.31457 0.03685 0.07042 0.0
C735 C 0.30031 0.06893 0.07531 0.0
C736 C 0.29701 0.00697 0.05127 0.0
C737 C 0.26538 0.00866 0.03564 0.0
C738 C 0.25048 0.04043 0.04049 0.0
C739 C 0.26753 0.07006 0.06025 0.0
H740 H 0.80807 0.69092 0.48726 0.0
H741 H 0.70904 0.71243 0.4492 0.0
H742 H 0.78836 0.71716 0.524 0.0
H743 H 0.68938 0.73765 0.48539 0.0
H744 H 0.62744 0.71951 0.56062 0.0
H745 H 0.65125 0.69754 0.52443 0.0
H746 H 0.79229 0.79504 0.54009 0.0
H747 H 0.7682 0.8178 0.57641 0.0
C748 C 0.78199 0.70082 0.48676 0.0
C749 C 0.76014 0.69952 0.46531 0.0
C750 C 0.77104 0.71625 0.50767 0.0
C751 C 0.73739 0.72959 0.50752 0.0
C752 C 0.7153 0.72752 0.48613 0.0
C753 C 0.7267 0.71305 0.46536 0.0
C754 C 0.66346 0.73702 0.55611 0.0
C755 C 0.69586 0.77094 0.57116 0.0
C756 C 0.67713 0.7242 0.53546 0.0
C757 C 0.72367 0.74426 0.52951 0.0
C758 C 0.75622 0.7787 0.54435 0.0
C759 C 0.74239 0.79226 0.56489 0.0
H760 H 0.08361 0.24238 0.97037 0.0
H761 H 0.06401 0.36004 0.9668 0.0
H762 H 0.03597 0.21642 1.00634 0.0
H763 H 0.01574 0.33359 1.00126 0.0
H764 H 0.9076 0.16389 0.05707 0.0
H765 H 0.9575 0.18499 0.02197 0.0
H766 H 0.01967 0.32781 0.04194 0.0
H767 H 0.96943 0.30743 0.07553 0.0
C768 C 0.06973 0.26297 0.97735 0.0
C769 C 0.07831 0.30366 0.96574 0.0
C770 C 0.04184 0.24775 0.99776 0.0
C771 C 0.02199 0.27294 1.00698 0.0
C772 C 0.03102 0.3136 0.99527 0.0
C773 C 0.05884 0.32881 0.97524 0.0
C774 C 0.93156 0.19977 0.05367 0.0
C775 C 0.93353 0.23389 0.06894 0.0
C776 C 0.96058 0.21188 0.03371 0.0
C777 C 0.99243 0.2583 0.02876 0.0
C778 C 0.99488 0.29187 0.04452 0.0
C779 C 0.9658 0.28 0.06401 0.0
H780 H 0.30832 0.11414 0.48773 0.0
H781 H 0.27581 0.98931 0.4503 0.0
H782 H 0.27813 0.0692 0.52452 0.0
H783 H 0.24615 0.94541 0.48636 0.0
H784 H 0.25453 0.89403 0.56056 0.0
H785 H 0.27994 0.93928 0.52433 0.0
H786 H 0.20077 0.00406 0.54229 0.0
H787 H 0.17492 0.95807 0.57886 0.0
C788 C 0.29513 0.07742 0.48735 0.0
C789 C 0.29476 0.05551 0.46604 0.0
C790 C 0.2774 0.05162 0.50831 0.0
C791 C 0.25969 0.00365 0.50836 0.0
C792 C 0.25978 0.98221 0.48706 0.0
C793 C 0.27683 0.0076 0.4663 0.0
C794 C 0.24157 0.91706 0.55652 0.0
C795 C 0.21196 0.92174 0.57234 0.0
C796 C 0.25639 0.94327 0.53582 0.0
C797 C 0.24262 0.97554 0.53044 0.0
C798 C 0.21229 0.97978 0.54603 0.0
C799 C 0.19679 0.95284 0.56671 0.0
H800 H 0.85207 0.76036 0.06223 0.0
H801 H 0.71131 0.68858 0.08534 0.0
H802 H 0.82893 0.78671 0.02668 0.0
H803 H 0.68909 0.71618 0.0514 0.0
H804 H 0.64887 0.71567 0.9764 0.0
H805 H 0.67829 0.69854 1.01139 0.0
H806 H 0.79788 0.83372 1.0093 0.0
H807 H 0.76876 0.85043 0.97277 0.0
C808 C 0.81642 0.75028 0.05979 0.0
C809 C 0.78344 0.72109 0.0763 0.0
C810 C 0.80316 0.76572 0.03957 0.0
C811 C 0.75682 0.75281 0.03576 0.0
C812 C 0.72473 0.72559 0.05304 0.0
C813 C 0.73765 0.70965 0.0727 0.0
C814 C 0.68126 0.74227 0.98337 0.0
C815 C 0.7061 0.78473 0.97171 0.0
C816 C 0.6982 0.73241 1.0037 0.0
C817 C 0.74041 0.76483 1.01358 0.0
C818 C 0.76536 0.80777 1.00219 0.0
C819 C 0.74836 0.81763 0.98145 0.0
H820 H 0.09305 0.25661 0.55883 0.0
H821 H 0.05286 0.36008 0.56456 0.0
H822 H 0.04587 0.22664 0.52309 0.0
H823 H 0.00616 0.33028 0.52924 0.0
H824 H 0.88965 0.23908 0.47956 0.0
H825 H 0.93465 0.26207 0.51628 0.0
H826 H 0.04123 0.24783 0.48169 0.0
H827 H 0.99651 0.2248 0.44535 0.0
C828 C 0.07486 0.27343 0.55232 0.0
C829 C 0.07707 0.31091 0.56464 0.0
C830 C 0.04756 0.25609 0.5319 0.0
C831 C 0.02151 0.27555 0.52346 0.0
C832 C 0.02479 0.3137 0.53547 0.0
C833 C 0.05219 0.33117 0.55565 0.0
C834 C 0.9223 0.24012 0.47997 0.0
C835 C 0.93947 0.23029 0.45947 0.0
C836 C 0.94835 0.25371 0.50092 0.0
C837 C 0.99188 0.25723 0.50192 0.0
C838 C 0.0079 0.24531 0.48169 0.0
C839 C 0.98222 0.23229 0.46077 0.0
H840 H 0.73597 0.14451 0.09325 0.0
H841 H 0.76414 0.26578 0.13293 0.0
H842 H 0.65496 0.11762 0.09521 0.0
H843 H 0.68215 0.23973 0.13403 0.0
H844 H 0.53798 0.14222 0.16433 0.0
H845 H 0.61984 0.18117 0.15576 0.0
H846 H 0.59036 0.12236 0.08541 0.0
H847 H 0.50895 0.08208 0.0946 0.0
C848 C 0.72482 0.16627 0.10171 0.0
C849 C 0.7563 0.2069 0.11325 0.0
C850 C 0.67816 0.15088 0.10275 0.0
C851 C 0.66176 0.17602 0.11517 0.0
C852 C 0.6936 0.21895 0.12483 0.0
C853 C 0.74059 0.2343 0.12388 0.0
C854 C 0.54934 0.13754 0.14715 0.0
C855 C 0.51745 0.10847 0.13032 0.0
C856 C 0.59609 0.16034 0.14206 0.0
C857 C 0.61187 0.1551 0.11983 0.0
C858 C 0.57963 0.12661 0.10285 0.0
C859 C 0.53299 0.10325 0.10812 0.0
H860 H 0.6365 0.5737 0.43029 0.0
H861 H 0.67816 0.52794 0.36877 0.0
H862 H 0.56919 0.49757 0.4345 0.0
H863 H 0.60983 0.45231 0.37195 0.0
H864 H 0.52117 0.30876 0.40351 0.0
H865 H 0.5827 0.38663 0.39539 0.0
H866 H 0.49776 0.44047 0.42118 0.0
H867 H 0.43734 0.3627 0.43008 0.0
C868 C 0.63012 0.54766 0.41716 0.0
C869 C 0.66181 0.55657 0.39902 0.0
C870 C 0.59161 0.50391 0.41952 0.0
C871 C 0.58395 0.46824 0.40369 0.0
C872 C 0.61487 0.47833 0.38481 0.0
C873 C 0.65364 0.52185 0.3827 0.0
C874 C 0.51573 0.33732 0.40728 0.0
C875 C 0.47466 0.32964 0.41766 0.0
C876 C 0.55087 0.38208 0.4025 0.0
C877 C 0.54553 0.42031 0.40764 0.0
C878 C 0.50376 0.41226 0.41743 0.0
C879 C 0.46897 0.36759 0.42251 0.0
H880 H 0.84772 0.37537 0.11625 0.0
H881 H 0.97624 0.4781 0.14581 0.0
H882 H 0.82377 0.43228 0.11162 0.0
H883 H 0.95173 0.53537 0.14219 0.0
H884 H 0.90966 0.63726 0.11716 0.0
H885 H 0.93557 0.58108 0.11661 0.0
H886 H 0.79847 0.47377 0.13366 0.0
H887 H 0.77242 0.52938 0.13308 0.0
C888 C 0.87062 0.41016 0.12208 0.0
C889 C 0.91363 0.42222 0.13169 0.0
C890 C 0.85688 0.4429 0.11947 0.0
C891 C 0.88548 0.48858 0.12674 0.0
C892 C 0.92891 0.50077 0.13608 0.0
C893 C 0.94295 0.46799 0.13834 0.0
C894 C 0.88495 0.6015 0.12038 0.0
C895 C 0.83893 0.58782 0.12509 0.0
C896 C 0.89992 0.56931 0.12034 0.0
C897 C 0.86932 0.52272 0.12527 0.0
C898 C 0.82305 0.50906 0.1294 0.0
C899 C 0.80802 0.54109 0.12914 0.0
H900 H 0.41624 0.0335 0.41433 0.0
H901 H 0.47948 0.16839 0.38283 0.0
H902 H 0.49158 0.03812 0.41623 0.0
H903 H 0.55375 0.17263 0.38416 0.0
H904 H 0.67821 0.15846 0.3761 0.0
H905 H 0.59803 0.13451 0.36808 0.0
H906 H 0.5643 0.09328 0.44107 0.0
H907 H 0.64449 0.11723 0.44907 0.0
C908 C 0.44601 0.06347 0.40728 0.0
C909 C 0.44233 0.10063 0.39848 0.0
C910 C 0.48899 0.06626 0.40847 0.0
C911 C 0.52847 0.10571 0.40028 0.0
C912 C 0.52398 0.14161 0.39034 0.0
C913 C 0.48152 0.13928 0.38969 0.0
C914 C 0.6535 0.14328 0.39028 0.0
C915 C 0.66769 0.14016 0.41327 0.0
C916 C 0.60767 0.12974 0.38571 0.0
C917 C 0.57497 0.11214 0.40397 0.0
C918 C 0.58864 0.10636 0.42661 0.0
C919 C 0.63458 0.12051 0.43125 0.0
H920 H 0.40226 0.27212 0.10569 0.0
H921 H 0.49747 0.23787 0.13835 0.0
H922 H 0.46083 0.35274 0.10519 0.0
H923 H 0.55585 0.31905 0.13866 0.0
H924 H 0.65923 0.47069 0.12138 0.0
H925 H 0.60628 0.38832 0.11677 0.0
H926 H 0.49364 0.40932 0.13564 0.0
H927 H 0.54627 0.49113 0.13978 0.0
C928 C 0.43593 0.28181 0.11251 0.0
C929 C 0.44516 0.24878 0.12226 0.0
C930 C 0.46939 0.32808 0.11245 0.0
C931 C 0.51269 0.34251 0.12243 0.0
C932 C 0.52288 0.30912 0.13082 0.0
C933 C 0.48943 0.2626 0.13065 0.0
C934 C 0.62318 0.45747 0.12471 0.0
C935 C 0.60677 0.48733 0.13075 0.0
C936 C 0.59285 0.41037 0.12202 0.0
C937 C 0.5456 0.3923 0.12544 0.0
C938 C 0.5296 0.42218 0.13215 0.0
C939 C 0.55976 0.46908 0.13466 0.0
H940 H 0.81686 0.49411 0.38952 0.0
H941 H 0.9211 0.55308 0.44363 0.0
H942 H 0.84071 0.43798 0.38051 0.0
H943 H 0.94435 0.49671 0.4348 0.0
H944 H 0.91236 0.34367 0.43626 0.0
H945 H 0.90677 0.41289 0.44123 0.0
H946 H 0.90451 0.42646 0.36521 0.0
H947 H 0.91044 0.35675 0.36041 0.0
C948 C 0.8452 0.4956 0.39929 0.0
C949 C 0.8665 0.52785 0.41757 0.0
C950 C 0.859 0.46348 0.39405 0.0
C951 C 0.89433 0.46278 0.40701 0.0
C952 C 0.91662 0.49596 0.42471 0.0
C953 C 0.90299 0.52812 0.42988 0.0
C954 C 0.91243 0.36253 0.42066 0.0
C955 C 0.91271 0.34566 0.39799 0.0
C956 C 0.90906 0.40206 0.42345 0.0
C957 C 0.90497 0.42509 0.4036 0.0
C958 C 0.90734 0.40929 0.38083 0.0
C959 C 0.91139 0.3699 0.37804 0.0
H960 H 0.09149 0.72981 0.62565 0.0
H961 H 0.22918 0.75431 0.63488 0.0
H962 H 0.06246 0.64729 0.62628 0.0
H963 H 0.20004 0.67152 0.63527 0.0
H964 H 0.12566 0.52368 0.66358 0.0
H965 H 0.15406 0.60599 0.66168 0.0
H966 H 0.06208 0.58475 0.60368 0.0
H967 H 0.034 0.50247 0.60534 0.0
C968 C 0.11568 0.71763 0.62754 0.0
C969 C 0.16272 0.7488 0.63024 0.0
C970 C 0.09899 0.67022 0.62784 0.0
C971 C 0.12883 0.65268 0.63098 0.0
C972 C 0.17601 0.68385 0.63317 0.0
C973 C 0.19278 0.73134 0.63272 0.0
C974 C 0.11155 0.53643 0.65034 0.0
C975 C 0.07761 0.50609 0.63454 0.0
C976 C 0.12797 0.58376 0.64922 0.0
C977 C 0.11072 0.60212 0.63237 0.0
C978 C 0.07593 0.57178 0.61699 0.0
C979 C 0.05964 0.52442 0.61803 0.0
H980 H 0.43871 0.93214 0.94795 0.0
H981 H 0.39557 0.86764 0.87948 0.0
H982 H 0.48551 0.8961 0.95331 0.0
H983 H 0.44305 0.83207 0.88455 0.0
H984 H 0.50708 0.74755 0.90649 0.0
H985 H 0.4515 0.77461 0.90713 0.0
H986 H 0.55421 0.90342 0.93724 0.0
H987 H 0.60856 0.87619 0.93718 0.0
C988 C 0.4399 0.91091 0.93386 0.0
C989 C 0.41391 0.90309 0.91318 0.0
C990 C 0.46641 0.88993 0.93699 0.0
C991 C 0.46784 0.86098 0.91941 0.0
C992 C 0.44197 0.85337 0.89866 0.0
C993 C 0.41521 0.87412 0.89562 0.0
C994 C 0.51715 0.78108 0.91382 0.0
C995 C 0.56215 0.8099 0.92161 0.0
C996 C 0.48562 0.79682 0.91393 0.0
C997 C 0.49863 0.84142 0.92197 0.0
C998 C 0.54283 0.86883 0.93111 0.0
C999 C 0.57413 0.85324 0.93096 0.0
H1000 H 0.47529 0.5243 0.64086 0.0
H1001 H 0.47389 0.64564 0.61686 0.0
H1002 H 0.39132 0.48054 0.63823 0.0
H1003 H 0.39035 0.60197 0.61384 0.0
H1004 H 0.24484 0.47293 0.58719 0.0
H1005 H 0.32825 0.52499 0.58852 0.0
H1006 H 0.32874 0.49396 0.66269 0.0
H1007 H 0.24585 0.44332 0.66146 0.0
C1008 C 0.45692 0.54127 0.63484 0.0
C1009 C 0.48055 0.58814 0.62935 0.0
C1010 C 0.40923 0.51656 0.63342 0.0
C1011 C 0.38482 0.53827 0.62597 0.0
C1012 C 0.40859 0.5847 0.61962 0.0
C1013 C 0.45611 0.60956 0.6215 0.0
C1014 C 0.26279 0.47896 0.60389 0.0
C1015 C 0.23945 0.45532 0.62434 0.0
C1016 C 0.31024 0.50812 0.60461 0.0
C1017 C 0.3345 0.51265 0.62564 0.0
C1018 C 0.31063 0.49055 0.64628 0.0
C1019 C 0.26338 0.46226 0.64565 0.0
H1020 H 0.25533 0.75913 0.89929 0.0
H1021 H 0.14201 0.73293 0.9449 0.0
H1022 H 0.22687 0.67661 0.89655 0.0
H1023 H 0.11429 0.65085 0.94279 0.0
H1024 H 0.04211 0.51338 0.90381 0.0
H1025 H 0.0772 0.5958 0.91126 0.0
H1026 H 0.20994 0.60591 0.91644 0.0
H1027 H 0.17506 0.52417 0.90877 0.0
C1028 C 0.22535 0.7358 0.90942 0.0
C1029 C 0.20057 0.75212 0.92211 0.0
C1030 C 0.20887 0.68858 0.90777 0.0
C1031 C 0.16767 0.65724 0.91899 0.0
C1032 C 0.14533 0.67408 0.93337 0.0
C1033 C 0.16151 0.72105 0.93483 0.0
C1034 C 0.07872 0.53339 0.9065 0.0
C1035 C 0.10579 0.5125 0.90535 0.0
C1036 C 0.09885 0.58041 0.91094 0.0
C1037 C 0.1464 0.6073 0.91455 0.0
C1038 C 0.17339 0.58629 0.91342 0.0
C1039 C 0.15333 0.53944 0.90888 0.0
H1040 H 0.36705 0.83381 0.65616 0.0
H1041 H 0.42976 0.91675 0.59409 0.0
H1042 H 0.41969 0.80352 0.65369 0.0
H1043 H 0.48194 0.88657 0.59157 0.0
H1044 H 0.6056 0.87546 0.61672 0.0
H1045 H 0.54669 0.89688 0.61504 0.0
H1046 H 0.44356 0.75667 0.62985 0.0
H1047 H 0.50312 0.73509 0.63189 0.0
C1048 C 0.39165 0.84514 0.64185 0.0
C1049 C 0.39474 0.8783 0.62558 0.0
C1050 C 0.42169 0.82768 0.64037 0.0
C1051 C 0.45529 0.84299 0.62256 0.0
C1052 C 0.45709 0.87479 0.60579 0.0
C1053 C 0.42727 0.89225 0.6073 0.0
C1054 C 0.57035 0.84896 0.61936 0.0
C1055 C 0.55907 0.80356 0.62447 0.0
C1056 C 0.53649 0.86125 0.61828 0.0
C1057 C 0.49041 0.82849 0.62231 0.0
C1058 C 0.47884 0.78275 0.62688 0.0
C1059 C 0.51287 0.77034 0.62785 0.0
H1060 H 0.49089 0.53006 0.91294 0.0
H1061 H 0.47563 0.6503 0.91553 0.0
H1062 H 0.40794 0.48123 0.91555 0.0
H1063 H 0.3931 0.60192 0.91859 0.0
H1064 H 0.24509 0.49547 0.89439 0.0
H1065 H 0.32733 0.54992 0.89578 0.0
H1066 H 0.3459 0.45842 0.94257 0.0
H1067 H 0.26445 0.40375 0.94041 0.0
C1068 C 0.46977 0.54594 0.91421 0.0
C1069 C 0.48967 0.59383 0.91374 0.0
C1070 C 0.42232 0.51813 0.91585 0.0
C1071 C 0.39382 0.53772 0.91737 0.0
C1072 C 0.41389 0.5857 0.91708 0.0
C1073 C 0.46124 0.61342 0.91526 0.0
C1074 C 0.26675 0.48773 0.90541 0.0
C1075 C 0.24871 0.44538 0.9171 0.0
C1076 C 0.31384 0.51875 0.90617 0.0
C1077 C 0.34336 0.50798 0.91885 0.0
C1078 C 0.32441 0.46713 0.93203 0.0
C1079 C 0.27768 0.43607 0.93104 0.0
loop_
_geom_bond_atom_site_label_1
_geom_bond_atom_site_label_2
_geom_bond_distance
_geom_bond_site_symmetry_2
_ccdc_geom_bond_type
Co0 N5 2.057 . S
Co0 O17 2.021 . S
Co0 O20 2.062 . S
Co0 O24 2.117 . S
Co0 O25 2.020 . S
C1 O21 1.259 . S
C1 O24 1.258 . S
Co2 N11 2.057 . S
Co2 O18 2.117 . S
Co2 O19 2.020 . S
Co2 O21 2.021 . S
Co2 O26 2.062 . S
C3 N5 1.316 . S
C3 N6 1.347 . S
C3 H8 0.931 . S
C4 N5 1.375 . S
C4 C7 1.350 . S
C4 H9 0.930 . S
N5 Co0 2.057 . S
N5 C3 1.316 . S
N5 C4 1.375 . S
N6 C3 1.347 . S
N6 C7 1.373 . S
C7 C4 1.350 . S
C7 N6 1.373 . S
C7 H28 0.931 . S
H8 C3 0.931 . S
H9 C4 0.930 . S
C10 O17 1.259 . S
C10 O18 1.258 . S
N11 Co2 2.057 . S
N11 C12 1.316 . S
N11 C13 1.375 . S
C12 N11 1.316 . S
C12 N14 1.347 . S
C12 H23 0.931 . S
C13 N11 1.375 . S
C13 C15 1.350 . S
C13 H22 0.930 . S
N14 C12 1.347 . S
N14 C15 1.373 . S
C15 C13 1.350 . S
C15 N14 1.373 . S
C15 H29 0.931 . S
C16 O19 1.256 . S
C16 O20 1.255 . S
O17 Co0 2.021 . S
O17 C10 1.259 . S
O18 Co2 2.117 . S
O18 C10 1.258 . S
O19 Co2 2.020 . S
O19 C16 1.256 . S
O20 Co0 2.062 . S
O20 C16 1.255 . S
O21 C1 1.259 . S
O21 Co2 2.021 . S
H22 C13 0.930 . S
H23 C12 0.931 . S
O24 Co0 2.117 . S
O24 C1 1.258 . S
O25 Co0 2.020 . S
O25 C27 1.256 . S
O26 Co2 2.062 . S
O26 C27 1.255 . S
C27 O25 1.256 . S
C27 O26 1.255 . S
H28 C7 0.931 . S
H29 C15 0.931 . S
Co30 N35 2.057 . S
Co30 O47 2.021 . S
Co30 O50 2.062 . S
Co30 O54 2.117 . S
Co30 O55 2.020 . S
C31 O51 1.259 . S
C31 O54 1.258 . S
Co32 N41 2.057 . S
Co32 O48 2.117 . S
Co32 O49 2.020 . S
Co32 O51 2.021 . S
Co32 O56 2.062 . S
C33 N35 1.316 . S
C33 N36 1.347 . S
C33 H38 0.931 . S
C34 N35 1.375 . S
C34 C37 1.350 . S
C34 H39 0.930 . S
N35 Co30 2.057 . S
N35 C33 1.316 . S
N35 C34 1.375 . S
N36 C33 1.347 . S
N36 C37 1.373 . S
C37 C34 1.350 . S
C37 N36 1.373 . S
C37 H58 0.931 . S
H38 C33 0.931 . S
H39 C34 0.930 . S
C40 O47 1.259 . S
C40 O48 1.258 . S
N41 Co32 2.057 . S
N41 C42 1.316 . S
N41 C43 1.375 . S
C42 N41 1.316 . S
C42 N44 1.347 . S
C42 H53 0.931 . S
C43 N41 1.375 . S
C43 C45 1.350 . S
C43 H52 0.930 . S
N44 C42 1.347 . S
N44 C45 1.373 . S
C45 C43 1.350 . S
C45 N44 1.373 . S
C45 H59 0.931 . S
C46 O49 1.256 . S
C46 O50 1.255 . S
O47 Co30 2.021 . S
O47 C40 1.259 . S
O48 Co32 2.117 . S
O48 C40 1.258 . S
O49 Co32 2.020 . S
O49 C46 1.256 . S
O50 Co30 2.062 . S
O50 C46 1.255 . S
O51 C31 1.259 . S
O51 Co32 2.021 . S
H52 C43 0.930 . S
H53 C42 0.931 . S
O54 Co30 2.117 . S
O54 C31 1.258 . S
O55 Co30 2.020 . S
O55 C57 1.256 . S
O56 Co32 2.062 . S
O56 C57 1.255 . S
C57 O55 1.256 . S
C57 O56 1.255 . S
H58 C37 0.931 . S
H59 C45 0.931 . S
Co60 N65 2.057 . S
Co60 O77 2.021 . S
Co60 O80 2.062 . S
Co60 O84 2.117 . S
Co60 O85 2.020 . S
C61 O81 1.259 . S
C61 O84 1.258 . S
Co62 N71 2.057 . S
Co62 O78 2.117 . S
Co62 O79 2.020 . S
Co62 O81 2.021 . S
Co62 O86 2.062 . S
C63 N65 1.316 . S
C63 N66 1.347 . S
C63 H68 0.931 . S
C64 N65 1.375 . S
C64 C67 1.350 . S
C64 H69 0.930 . S
N65 Co60 2.057 . S
N65 C63 1.316 . S
N65 C64 1.375 . S
N66 C63 1.347 . S
N66 C67 1.373 . S
C67 C64 1.350 . S
C67 N66 1.373 . S
C67 H88 0.931 1_545 S
H68 C63 0.931 . S
H69 C64 0.930 . S
C70 O77 1.259 . S
C70 O78 1.258 . S
N71 Co62 2.057 . S
N71 C72 1.316 . S
N71 C73 1.375 . S
C72 N71 1.316 . S
C72 N74 1.347 . S
C72 H83 0.931 . S
C73 N71 1.375 . S
C73 C75 1.350 . S
C73 H82 0.930 . S
N74 C72 1.347 . S
N74 C75 1.373 . S
C75 C73 1.350 . S
C75 N74 1.373 . S
C75 H89 0.931 . S
C76 O79 1.256 . S
C76 O80 1.255 . S
O77 Co60 2.021 . S
O77 C70 1.259 . S
O78 Co62 2.117 . S
O78 C70 1.258 . S
O79 Co62 2.020 . S
O79 C76 1.256 . S
O80 Co60 2.062 . S
O80 C76 1.255 . S
O81 C61 1.259 . S
O81 Co62 2.021 . S
H82 C73 0.930 . S
H83 C72 0.931 . S
O84 Co60 2.117 . S
O84 C61 1.258 . S
O85 Co60 2.020 . S
O85 C87 1.256 . S
O86 Co62 2.062 . S
O86 C87 1.255 . S
C87 O85 1.256 . S
C87 O86 1.255 . S
H88 C67 0.931 1_565 S
H89 C75 0.931 . S
Co90 N95 2.057 . S
Co90 O107 2.021 . S
Co90 O110 2.062 . S
Co90 O114 2.117 . S
Co90 O115 2.020 . S
C91 O111 1.259 . S
C91 O114 1.258 . S
Co92 N101 2.057 . S
Co92 O108 2.117 . S
Co92 O109 2.020 . S
Co92 O111 2.021 . S
Co92 O116 2.062 . S
C93 N95 1.316 1_565 S
C93 N96 1.347 . S
C93 H98 0.931 . S
C94 N95 1.375 . S
C94 C97 1.350 1_545 S
C94 H99 0.930 . S
N95 Co90 2.057 . S
N95 C93 1.316 1_545 S
N95 C94 1.375 . S
N96 C93 1.347 . S
N96 C97 1.373 . S
C97 C94 1.350 1_565 S
C97 N96 1.373 . S
C97 H118 0.931 . S
H98 C93 0.931 . S
H99 C94 0.930 . S
C100 O107 1.259 . S
C100 O108 1.258 . S
N101 Co92 2.057 . S
N101 C102 1.316 . S
N101 C103 1.375 . S
C102 N101 1.316 . S
C102 N104 1.347 . S
C102 H113 0.931 . S
C103 N101 1.375 . S
C103 C105 1.350 . S
C103 H112 0.930 . S
N104 C102 1.347 . S
N104 C105 1.373 . S
C105 C103 1.350 . S
C105 N104 1.373 . S
C105 H119 0.931 . S
C106 O109 1.256 . S
C106 O110 1.255 . S
O107 Co90 2.021 . S
O107 C100 1.259 . S
O108 Co92 2.117 . S
O108 C100 1.258 . S
O109 Co92 2.020 . S
O109 C106 1.256 . S
O110 Co90 2.062 . S
O110 C106 1.255 . S
O111 C91 1.259 . S
O111 Co92 2.021 . S
H112 C103 0.930 . S
H113 C102 0.931 . S
O114 Co90 2.117 . S
O114 C91 1.258 . S
O115 Co90 2.020 . S
O115 C117 1.256 . S
O116 Co92 2.062 . S
O116 C117 1.255 . S
C117 O115 1.256 . S
C117 O116 1.255 . S
H118 C97 0.931 . S
H119 C105 0.931 . S
Co120 N125 2.057 . S
Co120 O137 2.021 . S
Co120 O140 2.062 . S
Co120 O144 2.117 . S
Co120 O145 2.020 . S
C121 O141 1.259 . S
C121 O144 1.258 . S
Co122 N131 2.057 . S
Co122 O138 2.117 . S
Co122 O139 2.020 . S
Co122 O141 2.021 . S
Co122 O146 2.062 . S
C123 N125 1.316 . S
C123 N126 1.347 . S
C123 H128 0.931 . S
C124 N125 1.375 . S
C124 C127 1.350 . S
C124 H129 0.930 . S
N125 Co120 2.057 . S
N125 C123 1.316 . S
N125 C124 1.375 . S
N126 C123 1.347 . S
N126 C127 1.373 . S
C127 C124 1.350 . S
C127 N126 1.373 . S
C127 H148 0.931 1_655 S
H128 C123 0.931 . S
H129 C124 0.930 . S
C130 O137 1.259 . S
C130 O138 1.258 . S
N131 Co122 2.057 . S
N131 C132 1.316 . S
N131 C133 1.375 . S
C132 N131 1.316 . S
C132 N134 1.347 . S
C132 H143 0.931 . S
C133 N131 1.375 . S
C133 C135 1.350 . S
C133 H142 0.930 . S
N134 C132 1.347 . S
N134 C135 1.373 . S
C135 C133 1.350 . S
C135 N134 1.373 . S
C135 H149 0.931 . S
C136 O139 1.256 . S
C136 O140 1.255 . S
O137 Co120 2.021 . S
O137 C130 1.259 . S
O138 Co122 2.117 . S
O138 C130 1.258 . S
O139 Co122 2.020 . S
O139 C136 1.256 . S
O140 Co120 2.062 . S
O140 C136 1.255 . S
O141 C121 1.259 . S
O141 Co122 2.021 . S
H142 C133 0.930 . S
H143 C132 0.931 . S
O144 Co120 2.117 . S
O144 C121 1.258 . S
O145 Co120 2.020 . S
O145 C147 1.256 . S
O146 Co122 2.062 . S
O146 C147 1.255 . S
C147 O145 1.256 . S
C147 O146 1.255 . S
H148 C127 0.931 1_455 S
H149 C135 0.931 . S
Co150 N155 2.057 . S
Co150 O167 2.021 . S
Co150 O170 2.062 . S
Co150 O174 2.117 . S
Co150 O175 2.020 . S
C151 O171 1.259 . S
C151 O174 1.258 . S
Co152 N161 2.057 . S
Co152 O168 2.117 . S
Co152 O169 2.020 . S
Co152 O171 2.021 . S
Co152 O176 2.062 . S
C153 N155 1.316 1_455 S
C153 N156 1.347 . S
C153 H158 0.931 . S
C154 N155 1.375 . S
C154 C157 1.350 1_655 S
C154 H159 0.930 . S
N155 Co150 2.057 . S
N155 C153 1.316 1_655 S
N155 C154 1.375 . S
N156 C153 1.347 . S
N156 C157 1.373 . S
C157 C154 1.350 1_455 S
C157 N156 1.373 . S
C157 H178 0.931 . S
H158 C153 0.931 . S
H159 C154 0.930 . S
C160 O167 1.259 . S
C160 O168 1.258 . S
N161 Co152 2.057 . S
N161 C162 1.316 . S
N161 C163 1.375 . S
C162 N161 1.316 . S
C162 N164 1.347 . S
C162 H173 0.931 . S
C163 N161 1.375 . S
C163 C165 1.350 . S
C163 H172 0.930 . S
N164 C162 1.347 . S
N164 C165 1.373 . S
C165 C163 1.350 . S
C165 N164 1.373 . S
C165 H179 0.931 . S
C166 O169 1.256 . S
C166 O170 1.255 . S
O167 Co150 2.021 . S
O167 C160 1.259 . S
O168 Co152 2.117 . S
O168 C160 1.258 . S
O169 Co152 2.020 . S
O169 C166 1.256 . S
O170 Co150 2.062 . S
O170 C166 1.255 . S
O171 C151 1.259 . S
O171 Co152 2.021 . S
H172 C163 0.930 . S
H173 C162 0.931 . S
O174 Co150 2.117 . S
O174 C151 1.258 . S
O175 Co150 2.020 . S
O175 C177 1.256 . S
O176 Co152 2.062 . S
O176 C177 1.255 . S
C177 O175 1.256 . S
C177 O176 1.255 . S
H178 C157 0.931 . S
H179 C165 0.931 . S
Co180 N185 2.057 . S
Co180 O197 2.021 . S
Co180 O200 2.062 . S
Co180 O204 2.117 . S
Co180 O205 2.020 . S
C181 O201 1.259 . S
C181 O204 1.258 . S
Co182 N191 2.057 . S
Co182 O198 2.117 . S
Co182 O199 2.020 . S
Co182 O201 2.021 . S
Co182 O206 2.062 . S
C183 N185 1.316 . S
C183 N186 1.347 . S
C183 H188 0.931 . S
C184 N185 1.375 . S
C184 C187 1.350 . S
C184 H189 0.930 . S
N185 Co180 2.057 . S
N185 C183 1.316 . S
N185 C184 1.375 . S
N186 C183 1.347 . S
N186 C187 1.373 . S
C187 C184 1.350 . S
C187 N186 1.373 . S
C187 H208 0.931 . S
H188 C183 0.931 . S
H189 C184 0.930 . S
C190 O197 1.259 . S
C190 O198 1.258 . S
N191 Co182 2.057 . S
N191 C192 1.316 . S
N191 C193 1.375 . S
C192 N191 1.316 . S
C192 N194 1.347 . S
C192 H203 0.931 . S
C193 N191 1.375 . S
C193 C195 1.350 . S
C193 H202 0.930 . S
N194 C192 1.347 . S
N194 C195 1.373 . S
C195 C193 1.350 . S
C195 N194 1.373 . S
C195 H209 0.931 . S
C196 O199 1.256 . S
C196 O200 1.255 . S
O197 Co180 2.021 . S
O197 C190 1.259 . S
O198 Co182 2.117 . S
O198 C190 1.258 . S
O199 Co182 2.020 . S
O199 C196 1.256 . S
O200 Co180 2.062 . S
O200 C196 1.255 . S
O201 C181 1.259 . S
O201 Co182 2.021 . S
H202 C193 0.930 . S
H203 C192 0.931 . S
O204 Co180 2.117 . S
O204 C181 1.258 . S
O205 Co180 2.020 . S
O205 C207 1.256 . S
O206 Co182 2.062 . S
O206 C207 1.255 . S
C207 O205 1.256 . S
C207 O206 1.255 . S
H208 C187 0.931 . S
H209 C195 0.931 . S
Co210 N215 2.057 . S
Co210 O227 2.021 . S
Co210 O230 2.062 . S
Co210 O234 2.117 . S
Co210 O235 2.020 . S
C211 O231 1.259 . S
C211 O234 1.258 . S
Co212 N221 2.057 . S
Co212 O228 2.117 . S
Co212 O229 2.020 . S
Co212 O231 2.021 . S
Co212 O236 2.062 . S
C213 N215 1.316 . S
C213 N216 1.347 . S
C213 H218 0.931 . S
C214 N215 1.375 . S
C214 C217 1.350 . S
C214 H219 0.930 . S
N215 Co210 2.057 . S
N215 C213 1.316 . S
N215 C214 1.375 . S
N216 C213 1.347 . S
N216 C217 1.373 . S
C217 C214 1.350 . S
C217 N216 1.373 . S
C217 H238 0.931 1_455 S
H218 C213 0.931 . S
H219 C214 0.930 . S
C220 O227 1.259 . S
C220 O228 1.258 . S
N221 Co212 2.057 . S
N221 C222 1.316 . S
N221 C223 1.375 . S
C222 N221 1.316 . S
C222 N224 1.347 . S
C222 H233 0.931 . S
C223 N221 1.375 . S
C223 C225 1.350 . S
C223 H232 0.930 . S
N224 C222 1.347 . S
N224 C225 1.373 . S
C225 C223 1.350 . S
C225 N224 1.373 . S
C225 H239 0.931 . S
C226 O229 1.256 . S
C226 O230 1.255 . S
O227 Co210 2.021 . S
O227 C220 1.259 . S
O228 Co212 2.117 . S
O228 C220 1.258 . S
O229 Co212 2.020 . S
O229 C226 1.256 . S
O230 Co210 2.062 . S
O230 C226 1.255 . S
O231 C211 1.259 . S
O231 Co212 2.021 . S
H232 C223 0.930 . S
H233 C222 0.931 . S
O234 Co210 2.117 . S
O234 C211 1.258 . S
O235 Co210 2.020 . S
O235 C237 1.256 . S
O236 Co212 2.062 . S
O236 C237 1.255 . S
C237 O235 1.256 . S
C237 O236 1.255 . S
H238 C217 0.931 1_655 S
H239 C225 0.931 . S
Co240 N245 2.057 . S
Co240 O257 2.021 . S
Co240 O260 2.062 . S
Co240 O264 2.117 . S
Co240 O265 2.020 . S
C241 O261 1.259 . S
C241 O264 1.258 . S
Co242 N251 2.057 . S
Co242 O258 2.117 . S
Co242 O259 2.020 . S
Co242 O261 2.021 . S
Co242 O266 2.062 . S
C243 N245 1.316 . S
C243 N246 1.347 . S
C243 H248 0.931 . S
C244 N245 1.375 . S
C244 C247 1.350 . S
C244 H249 0.930 . S
N245 Co240 2.057 . S
N245 C243 1.316 . S
N245 C244 1.375 . S
N246 C243 1.347 . S
N246 C247 1.373 . S
C247 C244 1.350 . S
C247 N246 1.373 . S
C247 H268 0.931 . S
H248 C243 0.931 . S
H249 C244 0.930 . S
C250 O257 1.259 . S
C250 O258 1.258 . S
N251 Co242 2.057 . S
N251 C252 1.316 . S
N251 C253 1.375 . S
C252 N251 1.316 . S
C252 N254 1.347 . S
C252 H263 0.931 . S
C253 N251 1.375 . S
C253 C255 1.350 . S
C253 H262 0.930 . S
N254 C252 1.347 . S
N254 C255 1.373 . S
C255 C253 1.350 . S
C255 N254 1.373 . S
C255 H269 0.931 1_565 S
C256 O259 1.256 . S
C256 O260 1.255 . S
O257 Co240 2.021 . S
O257 C250 1.259 . S
O258 Co242 2.117 . S
O258 C250 1.258 . S
O259 Co242 2.020 . S
O259 C256 1.256 . S
O260 Co240 2.062 . S
O260 C256 1.255 . S
O261 C241 1.259 . S
O261 Co242 2.021 . S
H262 C253 0.930 . S
H263 C252 0.931 . S
O264 Co240 2.117 . S
O264 C241 1.258 . S
O265 Co240 2.020 . S
O265 C267 1.256 . S
O266 Co242 2.062 . S
O266 C267 1.255 . S
C267 O265 1.256 . S
C267 O266 1.255 . S
H268 C247 0.931 . S
H269 C255 0.931 1_545 S
Co270 N275 2.057 . S
Co270 O287 2.021 . S
Co270 O290 2.062 . S
Co270 O294 2.117 . S
Co270 O295 2.020 . S
C271 O291 1.259 . S
C271 O294 1.258 . S
Co272 N281 2.057 . S
Co272 O288 2.117 . S
Co272 O289 2.020 . S
Co272 O291 2.021 . S
Co272 O296 2.062 . S
C273 N275 1.316 . S
C273 N276 1.347 . S
C273 H278 0.931 . S
C274 N275 1.375 . S
C274 C277 1.350 . S
C274 H279 0.930 . S
N275 Co270 2.057 . S
N275 C273 1.316 . S
N275 C274 1.375 . S
N276 C273 1.347 . S
N276 C277 1.373 . S
C277 C274 1.350 . S
C277 N276 1.373 . S
C277 H298 0.931 . S
H278 C273 0.931 . S
H279 C274 0.930 . S
C280 O287 1.259 . S
C280 O288 1.258 . S
N281 Co272 2.057 . S
N281 C282 1.316 . S
N281 C283 1.375 . S
C282 N281 1.316 . S
C282 N284 1.347 . S
C282 H293 0.931 . S
C283 N281 1.375 . S
C283 C285 1.350 . S
C283 H292 0.930 . S
N284 C282 1.347 . S
N284 C285 1.373 . S
C285 C283 1.350 . S
C285 N284 1.373 . S
C285 H299 0.931 . S
C286 O289 1.256 . S
C286 O290 1.255 . S
O287 Co270 2.021 . S
O287 C280 1.259 . S
O288 Co272 2.117 . S
O288 C280 1.258 . S
O289 Co272 2.020 . S
O289 C286 1.256 . S
O290 Co270 2.062 . S
O290 C286 1.255 . S
O291 C271 1.259 . S
O291 Co272 2.021 . S
H292 C283 0.930 . S
H293 C282 0.931 . S
O294 Co270 2.117 . S
O294 C271 1.258 . S
O295 Co270 2.020 . S
O295 C297 1.256 . S
O296 Co272 2.062 . S
O296 C297 1.255 . S
C297 O295 1.256 . S
C297 O296 1.255 . S
H298 C277 0.931 . S
H299 C285 0.931 . S
Co300 N305 2.057 . S
Co300 O317 2.021 . S
Co300 O320 2.062 . S
Co300 O324 2.117 . S
Co300 O325 2.020 . S
C301 O321 1.259 . S
C301 O324 1.258 . S
Co302 N311 2.057 . S
Co302 O318 2.117 . S
Co302 O319 2.020 . S
Co302 O321 2.021 . S
Co302 O326 2.062 . S
C303 N305 1.316 . S
C303 N306 1.347 . S
C303 H308 0.931 . S
C304 N305 1.375 . S
C304 C307 1.350 . S
C304 H309 0.930 . S
N305 Co300 2.057 . S
N305 C303 1.316 . S
N305 C304 1.375 . S
N306 C303 1.347 . S
N306 C307 1.373 . S
C307 C304 1.350 . S
C307 N306 1.373 . S
C307 H328 0.931 . S
H308 C303 0.931 . S
H309 C304 0.930 . S
C310 O317 1.259 . S
C310 O318 1.258 . S
N311 Co302 2.057 . S
N311 C312 1.316 . S
N311 C313 1.375 . S
C312 N311 1.316 . S
C312 N314 1.347 . S
C312 H323 0.931 . S
C313 N311 1.375 . S
C313 C315 1.350 . S
C313 H322 0.930 . S
N314 C312 1.347 . S
N314 C315 1.373 . S
C315 C313 1.350 . S
C315 N314 1.373 . S
C315 H329 0.931 1_455 S
C316 O319 1.256 . S
C316 O320 1.255 . S
O317 Co300 2.021 . S
O317 C310 1.259 . S
O318 Co302 2.117 . S
O318 C310 1.258 . S
O319 Co302 2.020 . S
O319 C316 1.256 . S
O320 Co300 2.062 . S
O320 C316 1.255 . S
O321 C301 1.259 . S
O321 Co302 2.021 . S
H322 C313 0.930 . S
H323 C312 0.931 . S
O324 Co300 2.117 . S
O324 C301 1.258 . S
O325 Co300 2.020 . S
O325 C327 1.256 . S
O326 Co302 2.062 . S
O326 C327 1.255 . S
C327 O325 1.256 . S
C327 O326 1.255 . S
H328 C307 0.931 . S
H329 C315 0.931 1_655 S
Co330 N335 2.057 . S
Co330 O347 2.021 . S
Co330 O350 2.062 . S
Co330 O354 2.117 . S
Co330 O355 2.020 . S
C331 O351 1.259 . S
C331 O354 1.258 . S
Co332 N341 2.057 . S
Co332 O348 2.117 . S
Co332 O349 2.020 . S
Co332 O351 2.021 . S
Co332 O356 2.062 . S
C333 N335 1.316 . S
C333 N336 1.347 . S
C333 H338 0.931 . S
C334 N335 1.375 . S
C334 C337 1.350 . S
C334 H339 0.930 . S
N335 Co330 2.057 . S
N335 C333 1.316 . S
N335 C334 1.375 . S
N336 C333 1.347 . S
N336 C337 1.373 . S
C337 C334 1.350 . S
C337 N336 1.373 . S
C337 H358 0.931 1_565 S
H338 C333 0.931 . S
H339 C334 0.930 . S
C340 O347 1.259 . S
C340 O348 1.258 . S
N341 Co332 2.057 . S
N341 C342 1.316 . S
N341 C343 1.375 . S
C342 N341 1.316 . S
C342 N344 1.347 . S
C342 H353 0.931 . S
C343 N341 1.375 . S
C343 C345 1.350 . S
C343 H352 0.930 . S
N344 C342 1.347 . S
N344 C345 1.373 . S
C345 C343 1.350 . S
C345 N344 1.373 . S
C345 H359 0.931 . S
C346 O349 1.256 . S
C346 O350 1.255 . S
O347 Co330 2.021 . S
O347 C340 1.259 . S
O348 Co332 2.117 . S
O348 C340 1.258 . S
O349 Co332 2.020 . S
O349 C346 1.256 . S
O350 Co330 2.062 . S
O350 C346 1.255 . S
O351 C331 1.259 . S
O351 Co332 2.021 . S
H352 C343 0.930 . S
H353 C342 0.931 . S
O354 Co330 2.117 . S
O354 C331 1.258 . S
O355 Co330 2.020 . S
O355 C357 1.256 . S
O356 Co332 2.062 . S
O356 C357 1.255 . S
C357 O355 1.256 . S
C357 O356 1.255 . S
H358 C337 0.931 1_545 S
H359 C345 0.931 . S
H360 C368 0.950 . S
H361 C373 0.950 . S
H362 C370 0.950 1_655 S
H363 C372 0.950 . S
H364 C374 0.950 . S
H365 C376 0.950 . S
H366 C378 0.950 . S
H367 C379 0.950 . S
C368 H360 0.950 . S
C368 C369 1.386 . S
C368 C370 1.391 1_655 S
C369 C368 1.386 . S
C369 C373 1.393 1_655 S
C370 H362 0.950 1_455 S
C370 C368 1.391 1_455 S
C370 C371 1.400 . S
C371 C370 1.400 . S
C371 C372 1.398 . S
C371 C377 1.491 . S
C372 H363 0.950 . S
C372 C371 1.398 . S
C372 C373 1.391 . S
C373 H361 0.950 . S
C373 C369 1.393 1_455 S
C373 C372 1.391 . S
C374 H364 0.950 . S
C374 C375 1.386 . S
C374 C376 1.391 . S
C375 C374 1.386 . S
C375 C379 1.393 . S
C376 H365 0.950 . S
C376 C374 1.391 . S
C376 C377 1.400 . S
C377 C371 1.491 . S
C377 C376 1.400 . S
C377 C378 1.398 . S
C378 H366 0.950 . S
C378 C377 1.398 . S
C378 C379 1.391 . S
C379 H367 0.950 . S
C379 C375 1.393 . S
C379 C378 1.391 . S
H380 C388 0.950 . S
H381 C393 0.950 . S
H382 C390 0.950 . S
H383 C392 0.950 . S
H384 C394 0.950 . S
H385 C396 0.950 . S
H386 C398 0.950 1_455 S
H387 C399 0.950 . S
C388 H380 0.950 . S
C388 C389 1.386 . S
C388 C390 1.391 . S
C389 C388 1.386 . S
C389 C393 1.393 . S
C390 H382 0.950 . S
C390 C388 1.391 . S
C390 C391 1.400 . S
C391 C390 1.400 . S
C391 C392 1.398 . S
C391 C397 1.491 . S
C392 H383 0.950 . S
C392 C391 1.398 . S
C392 C393 1.391 . S
C393 H381 0.950 . S
C393 C389 1.393 . S
C393 C392 1.391 . S
C394 H384 0.950 . S
C394 C395 1.386 . S
C394 C396 1.391 . S
C395 C394 1.386 . S
C395 C399 1.393 . S
C396 H385 0.950 . S
C396 C394 1.391 . S
C396 C397 1.400 1_655 S
C397 C391 1.491 . S
C397 C396 1.400 1_455 S
C397 C398 1.398 1_455 S
C398 H386 0.950 1_655 S
C398 C397 1.398 1_655 S
C398 C399 1.391 . S
C399 H387 0.950 . S
C399 C395 1.393 . S
C399 C398 1.391 . S
H400 C408 0.950 . S
H401 C413 0.950 . S
H402 C410 0.950 . S
H403 C412 0.950 . S
H404 C414 0.950 . S
H405 C416 0.950 . S
H406 C418 0.950 . S
H407 C419 0.950 . S
C408 H400 0.950 . S
C408 C409 1.386 . S
C408 C410 1.391 . S
C409 C408 1.386 . S
C409 C413 1.393 . S
C410 H402 0.950 . S
C410 C408 1.391 . S
C410 C411 1.400 . S
C411 C410 1.400 . S
C411 C412 1.398 . S
C411 C417 1.491 . S
C412 H403 0.950 . S
C412 C411 1.398 . S
C412 C413 1.391 . S
C413 H401 0.950 . S
C413 C409 1.393 . S
C413 C412 1.391 . S
C414 H404 0.950 . S
C414 C415 1.386 . S
C414 C416 1.391 . S
C415 C414 1.386 . S
C415 C419 1.393 . S
C416 H405 0.950 . S
C416 C414 1.391 . S
C416 C417 1.400 . S
C417 C411 1.491 . S
C417 C416 1.400 . S
C417 C418 1.398 . S
C418 H406 0.950 . S
C418 C417 1.398 . S
C418 C419 1.391 . S
C419 H407 0.950 . S
C419 C415 1.393 . S
C419 C418 1.391 . S
H420 C428 0.950 . S
H421 C433 0.950 . S
H422 C430 0.950 . S
H423 C432 0.950 . S
H424 C434 0.950 . S
H425 C436 0.950 . S
H426 C438 0.950 . S
H427 C439 0.950 . S
C428 H420 0.950 . S
C428 C429 1.386 . S
C428 C430 1.391 . S
C429 C428 1.386 . S
C429 C433 1.393 . S
C430 H422 0.950 . S
C430 C428 1.391 . S
C430 C431 1.400 . S
C431 C430 1.400 . S
C431 C432 1.398 . S
C431 C437 1.491 . S
C432 H423 0.950 . S
C432 C431 1.398 . S
C432 C433 1.391 . S
C433 H421 0.950 . S
C433 C429 1.393 . S
C433 C432 1.391 . S
C434 H424 0.950 . S
C434 C435 1.386 . S
C434 C436 1.391 . S
C435 C434 1.386 . S
C435 C439 1.393 . S
C436 H425 0.950 . S
C436 C434 1.391 . S
C436 C437 1.400 . S
C437 C431 1.491 . S
C437 C436 1.400 . S
C437 C438 1.398 . S
C438 H426 0.950 . S
C438 C437 1.398 . S
C438 C439 1.391 . S
C439 H427 0.950 . S
C439 C435 1.393 . S
C439 C438 1.391 . S
H440 C448 0.950 . S
H441 C453 0.950 . S
H442 C450 0.950 . S
H443 C452 0.950 . S
H444 C454 0.950 . S
H445 C456 0.950 . S
H446 C458 0.950 . S
H447 C459 0.950 . S
C448 H440 0.950 . S
C448 C449 1.386 . S
C448 C450 1.391 1_545 S
C449 C448 1.386 . S
C449 C453 1.393 1_545 S
C450 H442 0.950 . S
C450 C448 1.391 1_565 S
C450 C451 1.400 . S
C451 C450 1.400 . S
C451 C452 1.398 . S
C451 C457 1.491 . S
C452 H443 0.950 . S
C452 C451 1.398 . S
C452 C453 1.391 . S
C453 H441 0.950 . S
C453 C449 1.393 1_565 S
C453 C452 1.391 . S
C454 H444 0.950 . S
C454 C455 1.386 . S
C454 C456 1.391 . S
C455 C454 1.386 . S
C455 C459 1.393 . S
C456 H445 0.950 . S
C456 C454 1.391 . S
C456 C457 1.400 . S
C457 C451 1.491 . S
C457 C456 1.400 . S
C457 C458 1.398 . S
C458 H446 0.950 . S
C458 C457 1.398 . S
C458 C459 1.391 . S
C459 H447 0.950 . S
C459 C455 1.393 . S
C459 C458 1.391 . S
H460 C468 0.950 . S
H461 C473 0.950 . S
H462 C470 0.950 . S
H463 C472 0.950 . S
H464 C474 0.950 . S
H465 C476 0.950 1_565 S
H466 C478 0.950 . S
H467 C479 0.950 . S
C468 H460 0.950 . S
C468 C469 1.386 . S
C468 C470 1.391 . S
C469 C468 1.386 . S
C469 C473 1.393 . S
C470 H462 0.950 . S
C470 C468 1.391 . S
C470 C471 1.400 . S
C471 C470 1.400 . S
C471 C472 1.398 . S
C471 C477 1.491 . S
C472 H463 0.950 . S
C472 C471 1.398 . S
C472 C473 1.391 . S
C473 H461 0.950 . S
C473 C469 1.393 . S
C473 C472 1.391 . S
C474 H464 0.950 . S
C474 C475 1.386 . S
C474 C476 1.391 . S
C475 C474 1.386 . S
C475 C479 1.393 . S
C476 H465 0.950 1_545 S
C476 C474 1.391 . S
C476 C477 1.400 1_545 S
C477 C471 1.491 . S
C477 C476 1.400 1_565 S
C477 C478 1.398 1_565 S
C478 H466 0.950 . S
C478 C477 1.398 1_545 S
C478 C479 1.391 . S
C479 H467 0.950 . S
C479 C475 1.393 . S
C479 C478 1.391 . S
H480 C488 0.950 1_565 S
H481 C493 0.950 . S
H482 C490 0.950 . S
H483 C492 0.950 . S
H484 C494 0.950 . S
H485 C496 0.950 . S
H486 C498 0.950 . S
H487 C499 0.950 . S
C488 H480 0.950 1_545 S
C488 C489 1.386 1_545 S
C488 C490 1.391 . S
C489 C488 1.386 1_565 S
C489 C493 1.393 . S
C490 H482 0.950 . S
C490 C488 1.391 . S
C490 C491 1.400 . S
C491 C490 1.400 . S
C491 C492 1.398 . S
C491 C497 1.491 . S
C492 H483 0.950 . S
C492 C491 1.398 . S
C492 C493 1.391 1_545 S
C493 H481 0.950 . S
C493 C489 1.393 . S
C493 C492 1.391 1_565 S
C494 H484 0.950 . S
C494 C495 1.386 . S
C494 C496 1.391 . S
C495 C494 1.386 . S
C495 C499 1.393 . S
C496 H485 0.950 . S
C496 C494 1.391 . S
C496 C497 1.400 . S
C497 C491 1.491 . S
C497 C496 1.400 . S
C497 C498 1.398 . S
C498 H486 0.950 . S
C498 C497 1.398 . S
C498 C499 1.391 . S
C499 H487 0.950 . S
C499 C495 1.393 . S
C499 C498 1.391 . S
H500 C508 0.950 1_455 S
H501 C513 0.950 . S
H502 C510 0.950 . S
H503 C512 0.950 . S
H504 C514 0.950 . S
H505 C516 0.950 . S
H506 C518 0.950 . S
H507 C519 0.950 . S
C508 H500 0.950 1_655 S
C508 C509 1.386 . S
C508 C510 1.391 . S
C509 C508 1.386 . S
C509 C513 1.393 . S
C510 H502 0.950 . S
C510 C508 1.391 . S
C510 C511 1.400 . S
C511 C510 1.400 . S
C511 C512 1.398 . S
C511 C517 1.491 . S
C512 H503 0.950 . S
C512 C511 1.398 . S
C512 C513 1.391 . S
C513 H501 0.950 . S
C513 C509 1.393 . S
C513 C512 1.391 . S
C514 H504 0.950 . S
C514 C515 1.386 . S
C514 C516 1.391 . S
C515 C514 1.386 . S
C515 C519 1.393 . S
C516 H505 0.950 . S
C516 C514 1.391 . S
C516 C517 1.400 . S
C517 C511 1.491 . S
C517 C516 1.400 . S
C517 C518 1.398 . S
C518 H506 0.950 . S
C518 C517 1.398 . S
C518 C519 1.391 . S
C519 H507 0.950 . S
C519 C515 1.393 . S
C519 C518 1.391 . S
H520 C528 0.950 . S
H521 C533 0.950 1_565 S
H522 C530 0.950 . S
H523 C532 0.950 . S
H524 C534 0.950 . S
H525 C536 0.950 . S
H526 C538 0.950 . S
H527 C539 0.950 . S
C528 H520 0.950 . S
C528 C529 1.386 . S
C528 C530 1.391 . S
C529 C528 1.386 . S
C529 C533 1.393 . S
C530 H522 0.950 . S
C530 C528 1.391 . S
C530 C531 1.400 . S
C531 C530 1.400 . S
C531 C532 1.398 . S
C531 C537 1.491 . S
C532 H523 0.950 . S
C532 C531 1.398 . S
C532 C533 1.391 . S
C533 H521 0.950 1_545 S
C533 C529 1.393 . S
C533 C532 1.391 . S
C534 H524 0.950 . S
C534 C535 1.386 . S
C534 C536 1.391 1_455 S
C535 C534 1.386 . S
C535 C539 1.393 1_455 S
C536 H525 0.950 . S
C536 C534 1.391 1_655 S
C536 C537 1.400 . S
C537 C531 1.491 . S
C537 C536 1.400 . S
C537 C538 1.398 . S
C538 H526 0.950 . S
C538 C537 1.398 . S
C538 C539 1.391 . S
C539 H527 0.950 . S
C539 C535 1.393 1_655 S
C539 C538 1.391 . S
H540 C548 0.950 . S
H541 C553 0.950 . S
H542 C550 0.950 . S
H543 C552 0.950 . S
H544 C554 0.950 . S
H545 C556 0.950 . S
H546 C558 0.950 . S
H547 C559 0.950 . S
C548 H540 0.950 . S
C548 C549 1.386 . S
C548 C550 1.391 . S
C549 C548 1.386 . S
C549 C553 1.393 . S
C550 H542 0.950 . S
C550 C548 1.391 . S
C550 C551 1.400 . S
C551 C550 1.400 . S
C551 C552 1.398 . S
C551 C557 1.491 . S
C552 H543 0.950 . S
C552 C551 1.398 . S
C552 C553 1.391 . S
C553 H541 0.950 . S
C553 C549 1.393 . S
C553 C552 1.391 . S
C554 H544 0.950 . S
C554 C555 1.386 1_545 S
C554 C556 1.391 . S
C555 C554 1.386 1_565 S
C555 C559 1.393 . S
C556 H545 0.950 . S
C556 C554 1.391 . S
C556 C557 1.400 . S
C557 C551 1.491 . S
C557 C556 1.400 . S
C557 C558 1.398 . S
C558 H546 0.950 . S
C558 C557 1.398 . S
C558 C559 1.391 1_545 S
C559 H547 0.950 . S
C559 C555 1.393 . S
C559 C558 1.391 1_565 S
H560 C568 0.950 . S
H561 C573 0.950 . S
H562 C570 0.950 . S
H563 C572 0.950 . S
H564 C574 0.950 . S
H565 C576 0.950 . S
H566 C578 0.950 . S
H567 C579 0.950 . S
C568 H560 0.950 . S
C568 C569 1.386 . S
C568 C570 1.391 . S
C569 C568 1.386 . S
C569 C573 1.393 . S
C570 H562 0.950 . S
C570 C568 1.391 . S
C570 C571 1.400 . S
C571 C570 1.400 . S
C571 C572 1.398 . S
C571 C577 1.491 . S
C572 H563 0.950 . S
C572 C571 1.398 . S
C572 C573 1.391 . S
C573 H561 0.950 . S
C573 C569 1.393 . S
C573 C572 1.391 . S
C574 H564 0.950 . S
C574 C575 1.386 . S
C574 C576 1.391 . S
C575 C574 1.386 . S
C575 C579 1.393 . S
C576 H565 0.950 . S
C576 C574 1.391 . S
C576 C577 1.400 . S
C577 C571 1.491 . S
C577 C576 1.400 . S
C577 C578 1.398 . S
C578 H566 0.950 . S
C578 C577 1.398 . S
C578 C579 1.391 . S
C579 H567 0.950 . S
C579 C575 1.393 . S
C579 C578 1.391 . S
H580 C588 0.950 1_455 S
H581 C593 0.950 . S
H582 C590 0.950 . S
H583 C592 0.950 . S
H584 C594 0.950 . S
H585 C596 0.950 . S
H586 C598 0.950 . S
H587 C599 0.950 . S
C588 H580 0.950 1_655 S
C588 C589 1.386 1_655 S
C588 C590 1.391 . S
C589 C588 1.386 1_455 S
C589 C593 1.393 . S
C590 H582 0.950 . S
C590 C588 1.391 . S
C590 C591 1.400 . S
C591 C590 1.400 . S
C591 C592 1.398 . S
C591 C597 1.491 . S
C592 H583 0.950 . S
C592 C591 1.398 . S
C592 C593 1.391 1_655 S
C593 H581 0.950 . S
C593 C589 1.393 . S
C593 C592 1.391 1_455 S
C594 H584 0.950 . S
C594 C595 1.386 . S
C594 C596 1.391 . S
C595 C594 1.386 . S
C595 C599 1.393 . S
C596 H585 0.950 . S
C596 C594 1.391 . S
C596 C597 1.400 . S
C597 C591 1.491 . S
C597 C596 1.400 . S
C597 C598 1.398 . S
C598 H586 0.950 . S
C598 C597 1.398 . S
C598 C599 1.391 . S
C599 H587 0.950 . S
C599 C595 1.393 . S
C599 C598 1.391 . S
H600 C608 0.950 . S
H601 C613 0.950 . S
H602 C610 0.950 . S
H603 C612 0.950 . S
H604 C614 0.950 . S
H605 C616 0.950 . S
H606 C618 0.950 . S
H607 C619 0.950 . S
C608 H600 0.950 . S
C608 C609 1.386 . S
C608 C610 1.391 . S
C609 C608 1.386 . S
C609 C613 1.393 . S
C610 H602 0.950 . S
C610 C608 1.391 . S
C610 C611 1.400 . S
C611 C610 1.400 . S
C611 C612 1.398 . S
C611 C617 1.491 . S
C612 H603 0.950 . S
C612 C611 1.398 . S
C612 C613 1.391 . S
C613 H601 0.950 . S
C613 C609 1.393 . S
C613 C612 1.391 . S
C614 H604 0.950 . S
C614 C615 1.386 . S
C614 C616 1.391 . S
C615 C614 1.386 . S
C615 C619 1.393 . S
C616 H605 0.950 . S
C616 C614 1.391 . S
C616 C617 1.400 . S
C617 C611 1.491 . S
C617 C616 1.400 . S
C617 C618 1.398 . S
C618 H606 0.950 . S
C618 C617 1.398 . S
C618 C619 1.391 . S
C619 H607 0.950 . S
C619 C615 1.393 . S
C619 C618 1.391 . S
H620 C628 0.950 . S
H621 C633 0.950 . S
H622 C630 0.950 . S
H623 C632 0.950 . S
H624 C634 0.950 . S
H625 C636 0.950 . S
H626 C638 0.950 . S
H627 C639 0.950 . S
C628 H620 0.950 . S
C628 C629 1.386 . S
C628 C630 1.391 . S
C629 C628 1.386 . S
C629 C633 1.393 . S
C630 H622 0.950 . S
C630 C628 1.391 . S
C630 C631 1.400 . S
C631 C630 1.400 . S
C631 C632 1.398 . S
C631 C637 1.491 . S
C632 H623 0.950 . S
C632 C631 1.398 . S
C632 C633 1.391 . S
C633 H621 0.950 . S
C633 C629 1.393 . S
C633 C632 1.391 . S
C634 H624 0.950 . S
C634 C635 1.386 . S
C634 C636 1.391 . S
C635 C634 1.386 . S
C635 C639 1.393 . S
C636 H625 0.950 . S
C636 C634 1.391 . S
C636 C637 1.400 . S
C637 C631 1.491 . S
C637 C636 1.400 . S
C637 C638 1.398 . S
C638 H626 0.950 . S
C638 C637 1.398 . S
C638 C639 1.391 . S
C639 H627 0.950 . S
C639 C635 1.393 . S
C639 C638 1.391 . S
H640 C648 0.950 . S
H641 C653 0.950 . S
H642 C650 0.950 . S
H643 C652 0.950 . S
H644 C654 0.950 . S
H645 C656 0.950 . S
H646 C658 0.950 . S
H647 C659 0.950 . S
C648 H640 0.950 . S
C648 C649 1.386 . S
C648 C650 1.391 . S
C649 C648 1.386 . S
C649 C653 1.393 . S
C650 H642 0.950 . S
C650 C648 1.391 . S
C650 C651 1.400 . S
C651 C650 1.400 . S
C651 C652 1.398 . S
C651 C657 1.491 . S
C652 H643 0.950 . S
C652 C651 1.398 . S
C652 C653 1.391 . S
C653 H641 0.950 . S
C653 C649 1.393 . S
C653 C652 1.391 . S
C654 H644 0.950 . S
C654 C655 1.386 . S
C654 C656 1.391 . S
C655 C654 1.386 . S
C655 C659 1.393 . S
C656 H645 0.950 . S
C656 C654 1.391 . S
C656 C657 1.400 . S
C657 C651 1.491 . S
C657 C656 1.400 . S
C657 C658 1.398 . S
C658 H646 0.950 . S
C658 C657 1.398 . S
C658 C659 1.391 . S
C659 H647 0.950 . S
C659 C655 1.393 . S
C659 C658 1.391 . S
H660 C668 0.950 . S
H661 C673 0.950 . S
H662 C670 0.950 . S
H663 C672 0.950 . S
H664 C674 0.950 . S
H665 C676 0.950 . S
H666 C678 0.950 . S
H667 C679 0.950 . S
C668 H660 0.950 . S
C668 C669 1.386 . S
C668 C670 1.391 . S
C669 C668 1.386 . S
C669 C673 1.393 . S
C670 H662 0.950 . S
C670 C668 1.391 . S
C670 C671 1.400 . S
C671 C670 1.400 . S
C671 C672 1.398 . S
C671 C677 1.491 . S
C672 H663 0.950 . S
C672 C671 1.398 . S
C672 C673 1.391 . S
C673 H661 0.950 . S
C673 C669 1.393 . S
C673 C672 1.391 . S
C674 H664 0.950 . S
C674 C675 1.386 . S
C674 C676 1.391 . S
C675 C674 1.386 . S
C675 C679 1.393 . S
C676 H665 0.950 . S
C676 C674 1.391 . S
C676 C677 1.400 . S
C677 C671 1.491 . S
C677 C676 1.400 . S
C677 C678 1.398 . S
C678 H666 0.950 . S
C678 C677 1.398 . S
C678 C679 1.391 . S
C679 H667 0.950 . S
C679 C675 1.393 . S
C679 C678 1.391 . S
H680 C688 0.950 . S
H681 C693 0.950 . S
H682 C690 0.950 . S
H683 C692 0.950 . S
H684 C694 0.950 . S
H685 C696 0.950 . S
H686 C698 0.950 . S
H687 C699 0.950 . S
C688 H680 0.950 . S
C688 C689 1.386 . S
C688 C690 1.391 . S
C689 C688 1.386 . S
C689 C693 1.393 . S
C690 H682 0.950 . S
C690 C688 1.391 . S
C690 C691 1.400 . S
C691 C690 1.400 . S
C691 C692 1.398 . S
C691 C697 1.491 . S
C692 H683 0.950 . S
C692 C691 1.398 . S
C692 C693 1.391 . S
C693 H681 0.950 . S
C693 C689 1.393 . S
C693 C692 1.391 . S
C694 H684 0.950 . S
C694 C695 1.386 . S
C694 C696 1.391 . S
C695 C694 1.386 . S
C695 C699 1.393 . S
C696 H685 0.950 . S
C696 C694 1.391 . S
C696 C697 1.400 . S
C697 C691 1.491 . S
C697 C696 1.400 . S
C697 C698 1.398 . S
C698 H686 0.950 . S
C698 C697 1.398 . S
C698 C699 1.391 . S
C699 H687 0.950 . S
C699 C695 1.393 . S
C699 C698 1.391 . S
H700 C708 0.950 . S
H701 C713 0.950 . S
H702 C710 0.950 . S
H703 C712 0.950 . S
H704 C714 0.950 . S
H705 C716 0.950 . S
H706 C718 0.950 . S
H707 C719 0.950 . S
C708 H700 0.950 . S
C708 C709 1.386 . S
C708 C710 1.391 . S
C709 C708 1.386 . S
C709 C713 1.393 . S
C710 H702 0.950 . S
C710 C708 1.391 . S
C710 C711 1.400 . S
C711 C710 1.400 . S
C711 C712 1.398 . S
C711 C717 1.491 . S
C712 H703 0.950 . S
C712 C711 1.398 . S
C712 C713 1.391 . S
C713 H701 0.950 . S
C713 C709 1.393 . S
C713 C712 1.391 . S
C714 H704 0.950 . S
C714 C715 1.386 . S
C714 C716 1.391 . S
C715 C714 1.386 . S
C715 C719 1.393 . S
C716 H705 0.950 . S
C716 C714 1.391 . S
C716 C717 1.400 . S
C717 C711 1.491 . S
C717 C716 1.400 . S
C717 C718 1.398 . S
C718 H706 0.950 . S
C718 C717 1.398 . S
C718 C719 1.391 . S
C719 H707 0.950 . S
C719 C715 1.393 . S
C719 C718 1.391 . S
H720 C728 0.950 . S
H721 C733 0.950 . S
H722 C730 0.950 1_545 S
H723 C732 0.950 1_554 S
H724 C734 0.950 . S
H725 C736 0.950 1_565 S
H726 C738 0.950 1_556 S
H727 C739 0.950 . S
C728 H720 0.950 . S
C728 C729 1.386 . S
C728 C730 1.391 . S
C729 C728 1.386 . S
C729 C733 1.393 . S
C730 H722 0.950 1_565 S
C730 C728 1.391 . S
C730 C731 1.400 . S
C731 C730 1.400 . S
C731 C732 1.398 . S
C731 C737 1.491 1_566 S
C732 H723 0.950 1_556 S
C732 C731 1.398 . S
C732 C733 1.391 . S
C733 H721 0.950 . S
C733 C729 1.393 . S
C733 C732 1.391 . S
C734 H724 0.950 . S
C734 C735 1.386 . S
C734 C736 1.391 . S
C735 C734 1.386 . S
C735 C739 1.393 . S
C736 H725 0.950 1_545 S
C736 C734 1.391 . S
C736 C737 1.400 . S
C737 C731 1.491 1_544 S
C737 C736 1.400 . S
C737 C738 1.398 . S
C738 H726 0.950 1_554 S
C738 C737 1.398 . S
C738 C739 1.391 . S
C739 H727 0.950 . S
C739 C735 1.393 . S
C739 C738 1.391 . S
H740 C748 0.950 . S
H741 C753 0.950 . S
H742 C750 0.950 . S
H743 C752 0.950 . S
H744 C754 0.950 . S
H745 C756 0.950 . S
H746 C758 0.950 . S
H747 C759 0.950 . S
C748 H740 0.950 . S
C748 C749 1.386 . S
C748 C750 1.391 . S
C749 C748 1.386 . S
C749 C753 1.393 . S
C750 H742 0.950 . S
C750 C748 1.391 . S
C750 C751 1.400 . S
C751 C750 1.400 . S
C751 C752 1.398 . S
C751 C757 1.491 . S
C752 H743 0.950 . S
C752 C751 1.398 . S
C752 C753 1.391 . S
C753 H741 0.950 . S
C753 C749 1.393 . S
C753 C752 1.391 . S
C754 H744 0.950 . S
C754 C755 1.386 . S
C754 C756 1.391 . S
C755 C754 1.386 . S
C755 C759 1.393 . S
C756 H745 0.950 . S
C756 C754 1.391 . S
C756 C757 1.400 . S
C757 C751 1.491 . S
C757 C756 1.400 . S
C757 C758 1.398 . S
C758 H746 0.950 . S
C758 C757 1.398 . S
C758 C759 1.391 . S
C759 H747 0.950 . S
C759 C755 1.393 . S
C759 C758 1.391 . S
H760 C768 0.950 . S
H761 C773 0.950 . S
H762 C770 0.950 1_554 S
H763 C772 0.950 1_655 S
H764 C774 0.950 . S
H765 C776 0.950 1_556 S
H766 C778 0.950 1_455 S
H767 C779 0.950 . S
C768 H760 0.950 . S
C768 C769 1.386 . S
C768 C770 1.391 . S
C769 C768 1.386 . S
C769 C773 1.393 . S
C770 H762 0.950 1_556 S
C770 C768 1.391 . S
C770 C771 1.400 . S
C771 C770 1.400 . S
C771 C772 1.398 . S
C771 C777 1.491 1_456 S
C772 H763 0.950 1_455 S
C772 C771 1.398 . S
C772 C773 1.391 . S
C773 H761 0.950 . S
C773 C769 1.393 . S
C773 C772 1.391 . S
C774 H764 0.950 . S
C774 C775 1.386 . S
C774 C776 1.391 . S
C775 C774 1.386 . S
C775 C779 1.393 . S
C776 H765 0.950 1_554 S
C776 C774 1.391 . S
C776 C777 1.400 . S
C777 C771 1.491 1_654 S
C777 C776 1.400 . S
C777 C778 1.398 . S
C778 H766 0.950 1_655 S
C778 C777 1.398 . S
C778 C779 1.391 . S
C779 H767 0.950 . S
C779 C775 1.393 . S
C779 C778 1.391 . S
H780 C788 0.950 . S
H781 C793 0.950 . S
H782 C790 0.950 . S
H783 C792 0.950 1_565 S
H784 C794 0.950 . S
H785 C796 0.950 . S
H786 C798 0.950 1_545 S
H787 C799 0.950 . S
C788 H780 0.950 . S
C788 C789 1.386 . S
C788 C790 1.391 . S
C789 C788 1.386 . S
C789 C793 1.393 . S
C790 H782 0.950 . S
C790 C788 1.391 . S
C790 C791 1.400 . S
C791 C790 1.400 . S
C791 C792 1.398 . S
C791 C797 1.491 1_545 S
C792 H783 0.950 1_545 S
C792 C791 1.398 . S
C792 C793 1.391 . S
C793 H781 0.950 . S
C793 C789 1.393 . S
C793 C792 1.391 . S
C794 H784 0.950 . S
C794 C795 1.386 . S
C794 C796 1.391 . S
C795 C794 1.386 . S
C795 C799 1.393 . S
C796 H785 0.950 . S
C796 C794 1.391 . S
C796 C797 1.400 . S
C797 C791 1.491 1_565 S
C797 C796 1.400 . S
C797 C798 1.398 . S
C798 H786 0.950 1_565 S
C798 C797 1.398 . S
C798 C799 1.391 . S
C799 H787 0.950 . S
C799 C795 1.393 . S
C799 C798 1.391 . S
H800 C808 0.950 . S
H801 C813 0.950 . S
H802 C810 0.950 . S
H803 C812 0.950 1_556 S
H804 C814 0.950 . S
H805 C816 0.950 . S
H806 C818 0.950 1_554 S
H807 C819 0.950 . S
C808 H800 0.950 . S
C808 C809 1.386 . S
C808 C810 1.391 . S
C809 C808 1.386 . S
C809 C813 1.393 . S
C810 H802 0.950 . S
C810 C808 1.391 . S
C810 C811 1.400 . S
C811 C810 1.400 . S
C811 C812 1.398 . S
C811 C817 1.491 1_554 S
C812 H803 0.950 1_554 S
C812 C811 1.398 . S
C812 C813 1.391 . S
C813 H801 0.950 . S
C813 C809 1.393 . S
C813 C812 1.391 . S
C814 H804 0.950 . S
C814 C815 1.386 . S
C814 C816 1.391 . S
C815 C814 1.386 . S
C815 C819 1.393 . S
C816 H805 0.950 . S
C816 C814 1.391 . S
C816 C817 1.400 . S
C817 C811 1.491 1_556 S
C817 C816 1.400 . S
C817 C818 1.398 . S
C818 H806 0.950 1_556 S
C818 C817 1.398 . S
C818 C819 1.391 . S
C819 H807 0.950 . S
C819 C815 1.393 . S
C819 C818 1.391 . S
H820 C828 0.950 . S
H821 C833 0.950 . S
H822 C830 0.950 . S
H823 C832 0.950 1_655 S
H824 C834 0.950 . S
H825 C836 0.950 . S
H826 C838 0.950 1_455 S
H827 C839 0.950 . S
C828 H820 0.950 . S
C828 C829 1.386 . S
C828 C830 1.391 . S
C829 C828 1.386 . S
C829 C833 1.393 . S
C830 H822 0.950 . S
C830 C828 1.391 . S
C830 C831 1.400 . S
C831 C830 1.400 . S
C831 C832 1.398 . S
C831 C837 1.491 1_455 S
C832 H823 0.950 1_455 S
C832 C831 1.398 . S
C832 C833 1.391 . S
C833 H821 0.950 . S
C833 C829 1.393 . S
C833 C832 1.391 . S
C834 H824 0.950 . S
C834 C835 1.386 . S
C834 C836 1.391 . S
C835 C834 1.386 . S
C835 C839 1.393 . S
C836 H825 0.950 . S
C836 C834 1.391 . S
C836 C837 1.400 . S
C837 C831 1.491 1_655 S
C837 C836 1.400 . S
C837 C838 1.398 . S
C838 H826 0.950 1_655 S
C838 C837 1.398 . S
C838 C839 1.391 . S
C839 H827 0.950 . S
C839 C835 1.393 . S
C839 C838 1.391 . S
H840 C848 0.950 . S
H841 C853 0.950 . S
H842 C850 0.950 . S
H843 C852 0.950 . S
H844 C854 0.950 . S
H845 C856 0.950 . S
H846 C858 0.950 . S
H847 C859 0.950 . S
C848 H840 0.950 . S
C848 C849 1.386 . S
C848 C850 1.391 . S
C849 C848 1.386 . S
C849 C853 1.393 . S
C850 H842 0.950 . S
C850 C848 1.391 . S
C850 C851 1.400 . S
C851 C850 1.400 . S
C851 C852 1.398 . S
C851 C857 1.491 . S
C852 H843 0.950 . S
C852 C851 1.398 . S
C852 C853 1.391 . S
C853 H841 0.950 . S
C853 C849 1.393 . S
C853 C852 1.391 . S
C854 H844 0.950 . S
C854 C855 1.386 . S
C854 C856 1.391 . S
C855 C854 1.386 . S
C855 C859 1.393 . S
C856 H845 0.950 . S
C856 C854 1.391 . S
C856 C857 1.400 . S
C857 C851 1.491 . S
C857 C856 1.400 . S
C857 C858 1.398 . S
C858 H846 0.950 . S
C858 C857 1.398 . S
C858 C859 1.391 . S
C859 H847 0.950 . S
C859 C855 1.393 . S
C859 C858 1.391 . S
H860 C868 0.950 . S
H861 C873 0.950 . S
H862 C870 0.950 . S
H863 C872 0.950 . S
H864 C874 0.950 . S
H865 C876 0.950 . S
H866 C878 0.950 . S
H867 C879 0.950 . S
C868 H860 0.950 . S
C868 C869 1.386 . S
C868 C870 1.391 . S
C869 C868 1.386 . S
C869 C873 1.393 . S
C870 H862 0.950 . S
C870 C868 1.391 . S
C870 C871 1.400 . S
C871 C870 1.400 . S
C871 C872 1.398 . S
C871 C877 1.491 . S
C872 H863 0.950 . S
C872 C871 1.398 . S
C872 C873 1.391 . S
C873 H861 0.950 . S
C873 C869 1.393 . S
C873 C872 1.391 . S
C874 H864 0.950 . S
C874 C875 1.386 . S
C874 C876 1.391 . S
C875 C874 1.386 . S
C875 C879 1.393 . S
C876 H865 0.950 . S
C876 C874 1.391 . S
C876 C877 1.400 . S
C877 C871 1.491 . S
C877 C876 1.400 . S
C877 C878 1.398 . S
C878 H866 0.950 . S
C878 C877 1.398 . S
C878 C879 1.391 . S
C879 H867 0.950 . S
C879 C875 1.393 . S
C879 C878 1.391 . S
H880 C888 0.950 . S
H881 C893 0.950 . S
H882 C890 0.950 . S
H883 C892 0.950 . S
H884 C894 0.950 . S
H885 C896 0.950 . S
H886 C898 0.950 . S
H887 C899 0.950 . S
C888 H880 0.950 . S
C888 C889 1.386 . S
C888 C890 1.391 . S
C889 C888 1.386 . S
C889 C893 1.393 . S
C890 H882 0.950 . S
C890 C888 1.391 . S
C890 C891 1.400 . S
C891 C890 1.400 . S
C891 C892 1.398 . S
C891 C897 1.491 . S
C892 H883 0.950 . S
C892 C891 1.398 . S
C892 C893 1.391 . S
C893 H881 0.950 . S
C893 C889 1.393 . S
C893 C892 1.391 . S
C894 H884 0.950 . S
C894 C895 1.386 . S
C894 C896 1.391 . S
C895 C894 1.386 . S
C895 C899 1.393 . S
C896 H885 0.950 . S
C896 C894 1.391 . S
C896 C897 1.400 . S
C897 C891 1.491 . S
C897 C896 1.400 . S
C897 C898 1.398 . S
C898 H886 0.950 . S
C898 C897 1.398 . S
C898 C899 1.391 . S
C899 H887 0.950 . S
C899 C895 1.393 . S
C899 C898 1.391 . S
H900 C908 0.950 . S
H901 C913 0.950 . S
H902 C910 0.950 . S
H903 C912 0.950 . S
H904 C914 0.950 . S
H905 C916 0.950 . S
H906 C918 0.950 . S
H907 C919 0.950 . S
C908 H900 0.950 . S
C908 C909 1.386 . S
C908 C910 1.391 . S
C909 C908 1.386 . S
C909 C913 1.393 . S
C910 H902 0.950 . S
C910 C908 1.391 . S
C910 C911 1.400 . S
C911 C910 1.400 . S
C911 C912 1.398 . S
C911 C917 1.491 . S
C912 H903 0.950 . S
C912 C911 1.398 . S
C912 C913 1.391 . S
C913 H901 0.950 . S
C913 C909 1.393 . S
C913 C912 1.391 . S
C914 H904 0.950 . S
C914 C915 1.386 . S
C914 C916 1.391 . S
C915 C914 1.386 . S
C915 C919 1.393 . S
C916 H905 0.950 . S
C916 C914 1.391 . S
C916 C917 1.400 . S
C917 C911 1.491 . S
C917 C916 1.400 . S
C917 C918 1.398 . S
C918 H906 0.950 . S
C918 C917 1.398 . S
C918 C919 1.391 . S
C919 H907 0.950 . S
C919 C915 1.393 . S
C919 C918 1.391 . S
H920 C928 0.950 . S
H921 C933 0.950 . S
H922 C930 0.950 . S
H923 C932 0.950 . S
H924 C934 0.950 . S
H925 C936 0.950 . S
H926 C938 0.950 . S
H927 C939 0.950 . S
C928 H920 0.950 . S
C928 C929 1.386 . S
C928 C930 1.391 . S
C929 C928 1.386 . S
C929 C933 1.393 . S
C930 H922 0.950 . S
C930 C928 1.391 . S
C930 C931 1.400 . S
C931 C930 1.400 . S
C931 C932 1.398 . S
C931 C937 1.491 . S
C932 H923 0.950 . S
C932 C931 1.398 . S
C932 C933 1.391 . S
C933 H921 0.950 . S
C933 C929 1.393 . S
C933 C932 1.391 . S
C934 H924 0.950 . S
C934 C935 1.386 . S
C934 C936 1.391 . S
C935 C934 1.386 . S
C935 C939 1.393 . S
C936 H925 0.950 . S
C936 C934 1.391 . S
C936 C937 1.400 . S
C937 C931 1.491 . S
C937 C936 1.400 . S
C937 C938 1.398 . S
C938 H926 0.950 . S
C938 C937 1.398 . S
C938 C939 1.391 . S
C939 H927 0.950 . S
C939 C935 1.393 . S
C939 C938 1.391 . S
H940 C948 0.950 . S
H941 C953 0.950 . S
H942 C950 0.950 . S
H943 C952 0.950 . S
H944 C954 0.950 . S
H945 C956 0.950 . S
H946 C958 0.950 . S
H947 C959 0.950 . S
C948 H940 0.950 . S
C948 C949 1.386 . S
C948 C950 1.391 . S
C949 C948 1.386 . S
C949 C953 1.393 . S
C950 H942 0.950 . S
C950 C948 1.391 . S
C950 C951 1.400 . S
C951 C950 1.400 . S
C951 C952 1.398 . S
C951 C957 1.491 . S
C952 H943 0.950 . S
C952 C951 1.398 . S
C952 C953 1.391 . S
C953 H941 0.950 . S
C953 C949 1.393 . S
C953 C952 1.391 . S
C954 H944 0.950 . S
C954 C955 1.386 . S
C954 C956 1.391 . S
C955 C954 1.386 . S
C955 C959 1.393 . S
C956 H945 0.950 . S
C956 C954 1.391 . S
C956 C957 1.400 . S
C957 C951 1.491 . S
C957 C956 1.400 . S
C957 C958 1.398 . S
C958 H946 0.950 . S
C958 C957 1.398 . S
C958 C959 1.391 . S
C959 H947 0.950 . S
C959 C955 1.393 . S
C959 C958 1.391 . S
H960 C968 0.950 . S
H961 C973 0.950 . S
H962 C970 0.950 . S
H963 C972 0.950 . S
H964 C974 0.950 . S
H965 C976 0.950 . S
H966 C978 0.950 . S
H967 C979 0.950 . S
C968 H960 0.950 . S
C968 C969 1.386 . S
C968 C970 1.391 . S
C969 C968 1.386 . S
C969 C973 1.393 . S
C970 H962 0.950 . S
C970 C968 1.391 . S
C970 C971 1.400 . S
C971 C970 1.400 . S
C971 C972 1.398 . S
C971 C977 1.491 . S
C972 H963 0.950 . S
C972 C971 1.398 . S
C972 C973 1.391 . S
C973 H961 0.950 . S
C973 C969 1.393 . S
C973 C972 1.391 . S
C974 H964 0.950 . S
C974 C975 1.386 . S
C974 C976 1.391 . S
C975 C974 1.386 . S
C975 C979 1.393 . S
C976 H965 0.950 . S
C976 C974 1.391 . S
C976 C977 1.400 . S
C977 C971 1.491 . S
C977 C976 1.400 . S
C977 C978 1.398 . S
C978 H966 0.950 . S
C978 C977 1.398 . S
C978 C979 1.391 . S
C979 H967 0.950 . S
C979 C975 1.393 . S
C979 C978 1.391 . S
H980 C988 0.950 . S
H981 C993 0.950 . S
H982 C990 0.950 . S
H983 C992 0.950 . S
H984 C994 0.950 . S
H985 C996 0.950 . S
H986 C998 0.950 . S
H987 C999 0.950 . S
C988 H980 0.950 . S
C988 C989 1.386 . S
C988 C990 1.391 . S
C989 C988 1.386 . S
C989 C993 1.393 . S
C990 H982 0.950 . S
C990 C988 1.391 . S
C990 C991 1.400 . S
C991 C990 1.400 . S
C991 C992 1.398 . S
C991 C997 1.491 . S
C992 H983 0.950 . S
C992 C991 1.398 . S
C992 C993 1.391 . S
C993 H981 0.950 . S
C993 C989 1.393 . S
C993 C992 1.391 . S
C994 H984 0.950 . S
C994 C995 1.386 . S
C994 C996 1.391 . S
C995 C994 1.386 . S
C995 C999 1.393 . S
C996 H985 0.950 . S
C996 C994 1.391 . S
C996 C997 1.400 . S
C997 C991 1.491 . S
C997 C996 1.400 . S
C997 C998 1.398 . S
C998 H986 0.950 . S
C998 C997 1.398 . S
C998 C999 1.391 . S
C999 H987 0.950 . S
C999 C995 1.393 . S
C999 C998 1.391 . S
H1000 C1008 0.950 . S
H1001 C1013 0.950 . S
H1002 C1010 0.950 . S
H1003 C1012 0.950 . S
H1004 C1014 0.950 . S
H1005 C1016 0.950 . S
H1006 C1018 0.950 . S
H1007 C1019 0.950 . S
C1008 H1000 0.950 . S
C1008 C1009 1.386 . S
C1008 C1010 1.391 . S
C1009 C1008 1.386 . S
C1009 C1013 1.393 . S
C1010 H1002 0.950 . S
C1010 C1008 1.391 . S
C1010 C1011 1.400 . S
C1011 C1010 1.400 . S
C1011 C1012 1.398 . S
C1011 C1017 1.491 . S
C1012 H1003 0.950 . S
C1012 C1011 1.398 . S
C1012 C1013 1.391 . S
C1013 H1001 0.950 . S
C1013 C1009 1.393 . S
C1013 C1012 1.391 . S
C1014 H1004 0.950 . S
C1014 C1015 1.386 . S
C1014 C1016 1.391 . S
C1015 C1014 1.386 . S
C1015 C1019 1.393 . S
C1016 H1005 0.950 . S
C1016 C1014 1.391 . S
C1016 C1017 1.400 . S
C1017 C1011 1.491 . S
C1017 C1016 1.400 . S
C1017 C1018 1.398 . S
C1018 H1006 0.950 . S
C1018 C1017 1.398 . S
C1018 C1019 1.391 . S
C1019 H1007 0.950 . S
C1019 C1015 1.393 . S
C1019 C1018 1.391 . S
H1020 C1028 0.950 . S
H1021 C1033 0.950 . S
H1022 C1030 0.950 . S
H1023 C1032 0.950 . S
H1024 C1034 0.950 . S
H1025 C1036 0.950 . S
H1026 C1038 0.950 . S
H1027 C1039 0.950 . S
C1028 H1020 0.950 . S
C1028 C1029 1.386 . S
C1028 C1030 1.391 . S
C1029 C1028 1.386 . S
C1029 C1033 1.393 . S
C1030 H1022 0.950 . S
C1030 C1028 1.391 . S
C1030 C1031 1.400 . S
C1031 C1030 1.400 . S
C1031 C1032 1.398 . S
C1031 C1037 1.491 . S
C1032 H1023 0.950 . S
C1032 C1031 1.398 . S
C1032 C1033 1.391 . S
C1033 H1021 0.950 . S
C1033 C1029 1.393 . S
C1033 C1032 1.391 . S
C1034 H1024 0.950 . S
C1034 C1035 1.386 . S
C1034 C1036 1.391 . S
C1035 C1034 1.386 . S
C1035 C1039 1.393 . S
C1036 H1025 0.950 . S
C1036 C1034 1.391 . S
C1036 C1037 1.400 . S
C1037 C1031 1.491 . S
C1037 C1036 1.400 . S
C1037 C1038 1.398 . S
C1038 H1026 0.950 . S
C1038 C1037 1.398 . S
C1038 C1039 1.391 . S
C1039 H1027 0.950 . S
C1039 C1035 1.393 . S
C1039 C1038 1.391 . S
H1040 C1048 0.950 . S
H1041 C1053 0.950 . S
H1042 C1050 0.950 . S
H1043 C1052 0.950 . S
H1044 C1054 0.950 . S
H1045 C1056 0.950 . S
H1046 C1058 0.950 . S
H1047 C1059 0.950 . S
C1048 H1040 0.950 . S
C1048 C1049 1.386 . S
C1048 C1050 1.391 . S
C1049 C1048 1.386 . S
C1049 C1053 1.393 . S
C1050 H1042 0.950 . S
C1050 C1048 1.391 . S
C1050 C1051 1.400 . S
C1051 C1050 1.400 . S
C1051 C1052 1.398 . S
C1051 C1057 1.491 . S
C1052 H1043 0.950 . S
C1052 C1051 1.398 . S
C1052 C1053 1.391 . S
C1053 H1041 0.950 . S
C1053 C1049 1.393 . S
C1053 C1052 1.391 . S
C1054 H1044 0.950 . S
C1054 C1055 1.386 . S
C1054 C1056 1.391 . S
C1055 C1054 1.386 . S
C1055 C1059 1.393 . S
C1056 H1045 0.950 . S
C1056 C1054 1.391 . S
C1056 C1057 1.400 . S
C1057 C1051 1.491 . S
C1057 C1056 1.400 . S
C1057 C1058 1.398 . S
C1058 H1046 0.950 . S
C1058 C1057 1.398 . S
C1058 C1059 1.391 . S
C1059 H1047 0.950 . S
C1059 C1055 1.393 . S
C1059 C1058 1.391 . S
H1060 C1068 0.950 . S
H1061 C1073 0.950 . S
H1062 C1070 0.950 . S
H1063 C1072 0.950 . S
H1064 C1074 0.950 . S
H1065 C1076 0.950 . S
H1066 C1078 0.950 . S
H1067 C1079 0.950 . S
C1068 H1060 0.950 . S
C1068 C1069 1.386 . S
C1068 C1070 1.391 . S
C1069 C1068 1.386 . S
C1069 C1073 1.393 . S
C1070 H1062 0.950 . S
C1070 C1068 1.391 . S
C1070 C1071 1.400 . S
C1071 C1070 1.400 . S
C1071 C1072 1.398 . S
C1071 C1077 1.491 . S
C1072 H1063 0.950 . S
C1072 C1071 1.398 . S
C1072 C1073 1.391 . S
C1073 H1061 0.950 . S
C1073 C1069 1.393 . S
C1073 C1072 1.391 . S
C1074 H1064 0.950 . S
C1074 C1075 1.386 . S
C1074 C1076 1.391 . S
C1075 C1074 1.386 . S
C1075 C1079 1.393 . S
C1076 H1065 0.950 . S
C1076 C1074 1.391 . S
C1076 C1077 1.400 . S
C1077 C1071 1.491 . S
C1077 C1076 1.400 . S
C1077 C1078 1.398 . S
C1078 H1066 0.950 . S
C1078 C1077 1.398 . S
C1078 C1079 1.391 . S
C1079 H1067 0.950 . S
C1079 C1075 1.393 . S
C1079 C1078 1.391 . S
C369 C76 0.792 . S
C375 N6 0.776 . S
C389 N96 0.947 . S
C395 C46 0.939 . S
C409 N66 0.806 1_565 S
C415 C136 0.814 . S
C429 C106 0.933 . S
C435 N156 0.930 . S
C449 C16 0.806 . S
C455 N126 0.792 1_455 S
C469 N36 0.936 . S
C475 C166 0.949 . S
C489 C327 0.782 . S
C495 N194 0.779 . S
C509 N216 0.772 1_655 S
C515 C346 0.784 . S
C529 N254 0.772 1_545 S
C535 C207 0.787 . S
C549 N276 0.772 . S
C555 C226 0.783 . S
C569 N314 0.792 1_655 S
C575 C267 0.806 . S
C589 C286 0.786 . S
C595 N336 0.786 1_545 S
C609 C91 1.691 . S
C615 C1 1.681 . S
C629 C31 1.691 . S
C635 C121 1.670 . S
C649 C61 1.679 . S
C655 C151 1.691 . S
C669 C190 1.675 . S
C675 C271 1.675 . S
C689 C211 1.677 . S
C695 C310 1.673 . S
C709 C250 1.681 . S
C715 C331 1.669 . S
C729 C220 1.975 . S
C735 C10 1.979 . S
C749 C40 1.901 . S
C755 C241 1.974 . S
C769 C280 1.978 . S
C775 C70 1.974 . S
C789 C100 1.901 . S
C795 C301 1.974 . S
C809 C130 1.981 . S
C815 C340 1.984 . S
C829 C181 1.970 . S
C835 C160 1.898 . S
C849 C87 1.251 . S
C855 N14 1.213 . S
C869 C57 1.135 . S
C875 N104 1.137 . S
C889 N74 1.233 . S
C895 C147 1.260 . S
C909 C117 1.129 . S
C915 N164 1.135 . S
C929 C27 1.248 . S
C935 N134 1.212 . S
C949 N44 1.138 . S
C955 C177 1.122 . S
C969 C316 1.257 . S
C975 N186 1.224 . S
C989 N224 1.212 . S
C995 C357 1.250 . S
C1009 N246 1.228 . S
C1015 C196 1.256 . S
C1029 C237 1.260 . S
C1035 N284 1.237 . S
C1049 N306 1.218 . S
C1055 C256 1.253 . S
C1069 N344 1.212 . S
C1075 C297 1.248 . S
