# Generated by pormake.
# Topology uog, (4)-cn, num edge types: 1
# Building blocks:
#     Node 0, Type 0, BuildingBlock: KOZSID_clean_sbu_0, # of connection points: 4
#     Node 1, Type 0, BuildingBlock: KOZSID_clean_sbu_0, # of connection points: 4
#     Node 2, Type 0, BuildingBlock: KOZSID_clean_sbu_0, # of connection points: 4
#     Node 3, Type 0, BuildingBlock: KOZSID_clean_sbu_0, # of connection points: 4
#     Node 4, Type 0, BuildingBlock: KOZSID_clean_sbu_0, # of connection points: 4
#     Node 5, Type 0, BuildingBlock: KOZSID_clean_sbu_0, # of connection points: 4
#     Edge 6, Type (0, 0), BuildingBlock: XUDNAN_clean_linker_2, # of connection points: 2
#     Edge 7, Type (0, 0), BuildingBlock: XUDNAN_clean_linker_2, # of connection points: 2
#     Edge 8, Type (0, 0), BuildingBlock: XUDNAN_clean_linker_2, # of connection points: 2
#     Edge 9, Type (0, 0), BuildingBlock: XUDNAN_clean_linker_2, # of connection points: 2
#     Edge 10, Type (0, 0), BuildingBlock: XUDNAN_clean_linker_2, # of connection points: 2
#     Edge 11, Type (0, 0), BuildingBlock: XUDNAN_clean_linker_2, # of connection points: 2
#     Edge 12, Type (0, 0), BuildingBlock: XUDNAN_clean_linker_2, # of connection points: 2
#     Edge 13, Type (0, 0), BuildingBlock: XUDNAN_clean_linker_2, # of connection points: 2
#     Edge 14, Type (0, 0), BuildingBlock: XUDNAN_clean_linker_2, # of connection points: 2
#     Edge 15, Type (0, 0), BuildingBlock: XUDNAN_clean_linker_2, # of connection points: 2
#     Edge 16, Type (0, 0), BuildingBlock: XUDNAN_clean_linker_2, # of connection points: 2
#     Edge 17, Type (0, 0), BuildingBlock: XUDNAN_clean_linker_2, # of connection points: 2
# Relax obj value: 0.022
# Max RMSD: 0.256
# Mean RMSD: 0.256
data_MOF--net-uog--node1-KOZSID_clean_sbu_0--edge1-XUDNAN_clean_linker_2
_symmetry_space_group_name_H-M    P1
_symmetry_Int_Tables_number       1
_symmetry_cell_setting            triclinic
loop_
_symmetry_equiv_pos_as_xyz
'x, y, z'
_cell_length_a     37.903547
_cell_length_b     38.02841
_cell_length_c     46.648476
_cell_angle_alpha  89.971936
_cell_angle_beta   89.819499
_cell_angle_gamma 119.79274
loop_
_atom_site_label
_atom_site_type_symbol
_atom_site_fract_x
_atom_site_fract_y
_atom_site_fract_z
_atom_type_partial_charge
C0 C 0.57296 0.31036 0.23524 0.0
C1 C 0.5358 0.29978 0.24787 0.0
C2 C 0.50835 0.29017 0.22604 0.0
C3 C 0.53003 0.29518 0.20127 0.0
N4 N 0.56928 0.30642 0.20611 0.0
Co5 Co 0.61131 0.32147 0.1755 0.0
N6 N 0.57054 0.2986 0.14398 0.0
C7 C 0.53119 0.28828 0.14629 0.0
C8 C 0.51015 0.27329 0.12116 0.0
C9 C 0.5381 0.27439 0.10177 0.0
C10 C 0.57475 0.2899 0.11617 0.0
N11 N 0.65397 0.33763 0.14507 0.0
C12 C 0.65141 0.32406 0.11783 0.0
C13 C 0.68989 0.33916 0.10569 0.0
C14 C 0.71712 0.36466 0.12517 0.0
C15 C 0.69421 0.3628 0.14841 0.0
N16 N 0.65328 0.34395 0.20654 0.0
C17 C 0.69363 0.36786 0.20243 0.0
C18 C 0.71583 0.37967 0.22704 0.0
C19 C 0.68796 0.3631 0.24842 0.0
C20 C 0.64977 0.34182 0.2356 0.0
N21 N 0.60714 0.26698 0.17935 0.0
C22 C 0.59626 0.18694 0.1836 0.0
C23 C 0.63537 0.2219 0.18294 0.0
C24 C 0.64013 0.26135 0.18068 0.0
C25 C 0.56318 0.1937 0.18219 0.0
C26 C 0.56916 0.2332 0.18027 0.0
N27 N 0.6118 0.37454 0.17202 0.0
C28 C 0.59956 0.42341 0.19736 0.0
C29 C 0.58329 0.4316 0.17291 0.0
C30 C 0.58607 0.41378 0.14713 0.0
C31 C 0.60067 0.38578 0.1471 0.0
C32 C 0.61383 0.39563 0.19642 0.0
H33 H 0.60043 0.37141 0.1271 0.0
H34 H 0.62372 0.38943 0.2163 0.0
H35 H 0.67046 0.28719 0.17996 0.0
H36 H 0.54238 0.23599 0.17955 0.0
C37 C 0.51451 0.28821 0.17323 0.0
C38 C 0.61145 0.32758 0.25158 0.0
C39 C 0.61346 0.29875 0.10224 0.0
C40 C 0.71034 0.37645 0.17526 0.0
H41 H 0.52954 0.30025 0.27048 0.0
H42 H 0.47646 0.28101 0.22802 0.0
H43 H 0.47808 0.26185 0.11753 0.0
H44 H 0.5323 0.26511 0.07956 0.0
H45 H 0.69807 0.33199 0.08519 0.0
H46 H 0.74994 0.3802 0.12343 0.0
H47 H 0.74845 0.39844 0.22919 0.0
H48 H 0.69572 0.36858 0.27079 0.0
H49 H 0.6623 0.21894 0.18382 0.0
H50 H 0.53234 0.16854 0.18319 0.0
H51 H 0.59986 0.43727 0.2177 0.0
H52 H 0.57486 0.4195 0.12736 0.0
C53 C 0.2824 0.55341 0.56078 0.0
C54 C 0.25213 0.51706 0.57226 0.0
C55 C 0.23806 0.48935 0.55047 0.0
C56 C 0.25972 0.51007 0.52669 0.0
N57 N 0.28737 0.54904 0.5321 0.0
Co58 Co 0.31681 0.5905 0.50144 0.0
N59 N 0.30247 0.54955 0.47032 0.0
C60 C 0.27548 0.50984 0.47289 0.0
C61 C 0.27617 0.48772 0.44989 0.0
C62 C 0.30514 0.51529 0.43156 0.0
C63 C 0.32005 0.55325 0.44395 0.0
N64 N 0.34446 0.63254 0.47107 0.0
C65 C 0.35207 0.62915 0.44305 0.0
C66 C 0.36461 0.66547 0.42852 0.0
C67 C 0.3675 0.69305 0.4484 0.0
C68 C 0.35534 0.67192 0.47364 0.0
N69 N 0.33358 0.63245 0.53211 0.0
C70 C 0.35389 0.67286 0.52801 0.0
C71 C 0.36841 0.69462 0.55277 0.0
C72 C 0.35551 0.66626 0.57407 0.0
C73 C 0.33216 0.62874 0.56112 0.0
N74 N 0.36706 0.58673 0.508 0.0
C75 C 0.43663 0.57646 0.51361 0.0
C76 C 0.44041 0.61518 0.51023 0.0
C77 C 0.40553 0.61962 0.50731 0.0
C78 C 0.39698 0.54343 0.51434 0.0
C79 C 0.36321 0.54915 0.51175 0.0
N80 N 0.26486 0.59115 0.49468 0.0
C81 C 0.20069 0.5814 0.51388 0.0
C82 C 0.18189 0.57058 0.48691 0.0
C83 C 0.20688 0.57309 0.46363 0.0
C84 C 0.24783 0.58349 0.46789 0.0
C85 C 0.24189 0.59212 0.51719 0.0
H86 H 0.26512 0.58356 0.44946 0.0
H87 H 0.25443 0.59973 0.53836 0.0
H88 H 0.40977 0.64962 0.50424 0.0
H89 H 0.3338 0.52246 0.51249 0.0
C90 C 0.25564 0.49398 0.49906 0.0
C91 C 0.30266 0.59228 0.57696 0.0
C92 C 0.34842 0.5925 0.42958 0.0
C93 C 0.36041 0.68927 0.50059 0.0
H94 H 0.23984 0.51115 0.59375 0.0
H95 H 0.21405 0.45805 0.55169 0.0
H96 H 0.25932 0.45512 0.44743 0.0
H97 H 0.31449 0.50767 0.41173 0.0
H98 H 0.37157 0.67182 0.40597 0.0
H99 H 0.3786 0.72503 0.44501 0.0
H100 H 0.38622 0.7272 0.55509 0.0
H101 H 0.36061 0.67277 0.59674 0.0
H102 H 0.47019 0.642 0.50938 0.0
H103 H 0.39174 0.51298 0.51743 0.0
H104 H 0.18368 0.58152 0.53254 0.0
H105 H 0.19457 0.56554 0.44218 0.0
C106 C 0.75379 0.2875 0.8999 0.0
C107 C 0.76903 0.26815 0.91683 0.0
C108 C 0.78964 0.25598 0.89889 0.0
C109 C 0.78603 0.2686 0.87203 0.0
N110 N 0.76485 0.2884 0.87184 0.0
Co111 Co 0.75028 0.30853 0.83676 0.0
N112 N 0.78215 0.29321 0.81032 0.0
C113 C 0.80326 0.27502 0.81817 0.0
C114 C 0.82804 0.27472 0.79673 0.0
C115 C 0.82256 0.29434 0.77394 0.0
C116 C 0.79423 0.30516 0.78258 0.0
N117 N 0.73149 0.32477 0.80181 0.0
C118 C 0.74087 0.3242 0.77389 0.0
C119 C 0.71472 0.32947 0.75589 0.0
C120 C 0.689 0.33525 0.77321 0.0
C121 C 0.70045 0.33232 0.80055 0.0
N122 N 0.72066 0.32752 0.86267 0.0
C123 C 0.69596 0.34155 0.85396 0.0
C124 C 0.67896 0.35199 0.87579 0.0
C125 C 0.69267 0.34321 0.90012 0.0
C126 C 0.71769 0.32778 0.89181 0.0
N127 N 0.80209 0.36319 0.83993 0.0
C128 C 0.88674 0.42353 0.83519 0.0
C129 C 0.8583 0.41868 0.81399 0.0
C130 C 0.81658 0.38958 0.8171 0.0
C131 C 0.87056 0.40065 0.86032 0.0
C132 C 0.82871 0.37135 0.86235 0.0
N133 N 0.70086 0.25273 0.83356 0.0
C134 C 0.64211 0.19615 0.8562 0.0
C135 C 0.63928 0.16851 0.83501 0.0
C136 C 0.66644 0.18531 0.81172 0.0
C137 C 0.69634 0.22713 0.81125 0.0
C138 C 0.67271 0.23712 0.8553 0.0
H139 H 0.71647 0.23811 0.79299 0.0
H140 H 0.67366 0.25534 0.87304 0.0
H141 H 0.79677 0.38798 0.8002 0.0
H142 H 0.81906 0.35462 0.88205 0.0
C143 C 0.80312 0.26381 0.84674 0.0
C144 C 0.73029 0.30582 0.91163 0.0
C145 C 0.77807 0.32554 0.76405 0.0
C146 C 0.68611 0.34096 0.82529 0.0
H147 H 0.7659 0.26366 0.93981 0.0
H148 H 0.8056 0.24009 0.90479 0.0
H149 H 0.84915 0.2634 0.79795 0.0
H150 H 0.83835 0.30052 0.75365 0.0
H151 H 0.71563 0.33116 0.73271 0.0
H152 H 0.66587 0.34236 0.76668 0.0
H153 H 0.65717 0.36245 0.87423 0.0
H154 H 0.68213 0.34512 0.92123 0.0
H155 H 0.86824 0.43685 0.79464 0.0
H156 H 0.89041 0.40371 0.87794 0.0
H157 H 0.62112 0.18631 0.87412 0.0
H158 H 0.66574 0.16617 0.79431 0.0
C159 C 0.50825 0.74185 0.23207 0.0
C160 C 0.54655 0.75583 0.24354 0.0
C161 C 0.57385 0.78334 0.22405 0.0
C162 C 0.55079 0.7847 0.20174 0.0
N163 N 0.51091 0.75991 0.20615 0.0
Co164 Co 0.46716 0.74845 0.17803 0.0
N165 N 0.50527 0.77258 0.14509 0.0
C166 C 0.54566 0.79755 0.14772 0.0
C167 C 0.56472 0.81081 0.12164 0.0
C168 C 0.53435 0.79387 0.10151 0.0
C169 C 0.49805 0.77123 0.11631 0.0
N170 N 0.42187 0.73493 0.15062 0.0
C171 C 0.42125 0.73606 0.12148 0.0
C172 C 0.38316 0.72808 0.11184 0.0
C173 C 0.3596 0.72219 0.13542 0.0
C174 C 0.3842 0.72708 0.15817 0.0
N175 N 0.42867 0.72659 0.21086 0.0
C176 C 0.39142 0.7226 0.21193 0.0
C177 C 0.37291 0.71028 0.23821 0.0
C178 C 0.4003 0.70618 0.25483 0.0
C179 C 0.43381 0.71602 0.23748 0.0
N180 N 0.47345 0.80348 0.18463 0.0
C181 C 0.50086 0.88815 0.19091 0.0
C182 C 0.48564 0.86796 0.16475 0.0
C183 C 0.4723 0.82617 0.16208 0.0
C184 C 0.49927 0.86383 0.21431 0.0
C185 C 0.48529 0.82198 0.21083 0.0
N186 N 0.46482 0.69498 0.17147 0.0
C187 C 0.43703 0.62276 0.18062 0.0
C188 C 0.47345 0.62406 0.17163 0.0
C189 C 0.50431 0.66149 0.16168 0.0
C190 C 0.49963 0.6958 0.16198 0.0
C191 C 0.4332 0.65823 0.18011 0.0
H192 H 0.52606 0.72349 0.15593 0.0
H193 H 0.40526 0.65611 0.18773 0.0
H194 H 0.46302 0.81298 0.14114 0.0
H195 H 0.48577 0.80499 0.22922 0.0
C196 C 0.56488 0.80231 0.17449 0.0
C197 C 0.46941 0.71393 0.24675 0.0
C198 C 0.45725 0.75142 0.10259 0.0
C199 C 0.3724 0.72355 0.18681 0.0
H200 H 0.5539 0.74709 0.26375 0.0
H201 H 0.60668 0.79897 0.22543 0.0
H202 H 0.59698 0.82957 0.11763 0.0
H203 H 0.53851 0.79803 0.07855 0.0
H204 H 0.37355 0.72893 0.09021 0.0
H205 H 0.32851 0.71613 0.13591 0.0
H206 H 0.34248 0.70325 0.24419 0.0
H207 H 0.39589 0.69637 0.27699 0.0
H208 H 0.48592 0.88468 0.14589 0.0
H209 H 0.5095 0.87715 0.23528 0.0
H210 H 0.41175 0.59467 0.18841 0.0
H211 H 0.5334 0.66524 0.15509 0.0
C212 C 0.79617 0.49039 0.56855 0.0
C213 C 0.82967 0.52557 0.57808 0.0
C214 C 0.84477 0.551 0.55485 0.0
C215 C 0.81983 0.52996 0.53238 0.0
N216 N 0.78909 0.49319 0.54001 0.0
Co217 Co 0.75143 0.45067 0.51217 0.0
N218 N 0.76968 0.4888 0.4788 0.0
C219 C 0.8024 0.52624 0.47858 0.0
C220 C 0.80865 0.54537 0.45253 0.0
C221 C 0.77811 0.51816 0.43514 0.0
C222 C 0.75472 0.48383 0.45157 0.0
N223 N 0.71422 0.40713 0.48506 0.0
C224 C 0.70239 0.40965 0.45807 0.0
C225 C 0.67104 0.37232 0.44887 0.0
C226 C 0.66439 0.34515 0.47 0.0
C227 C 0.6909 0.36731 0.49125 0.0
N228 N 0.73175 0.41205 0.54552 0.0
C229 C 0.70429 0.37219 0.54465 0.0
C230 C 0.69307 0.35397 0.571 0.0
C231 C 0.71543 0.3839 0.59003 0.0
C232 C 0.73953 0.41859 0.57402 0.0
N233 N 0.70818 0.46549 0.5198 0.0
C234 C 0.64963 0.49228 0.52412 0.0
C235 C 0.63768 0.45072 0.52293 0.0
C236 C 0.66723 0.43803 0.52095 0.0
C237 C 0.69165 0.51952 0.52311 0.0
C238 C 0.71977 0.50581 0.52113 0.0
N239 N 0.79693 0.43946 0.50341 0.0
C240 C 0.8633 0.45191 0.51937 0.0
C241 C 0.8789 0.459 0.49128 0.0
C242 C 0.85024 0.45066 0.46925 0.0
C243 C 0.80977 0.44075 0.47571 0.0
C244 C 0.82261 0.44148 0.52471 0.0
H245 H 0.78986 0.43697 0.4581 0.0
H246 H 0.81326 0.43859 0.54639 0.0
H247 H 0.65664 0.40602 0.52001 0.0
H248 H 0.75119 0.5286 0.51989 0.0
C249 C 0.82466 0.54302 0.50375 0.0
C250 C 0.77531 0.4532 0.58625 0.0
C251 C 0.72095 0.44595 0.43986 0.0
C252 C 0.68787 0.35319 0.51896 0.0
H253 H 0.8428 0.5314 0.59932 0.0
H254 H 0.87161 0.58074 0.55422 0.0
H255 H 0.83244 0.57557 0.44687 0.0
H256 H 0.77397 0.52271 0.41277 0.0
H257 H 0.65385 0.36526 0.4292 0.0
H258 H 0.64092 0.31357 0.47064 0.0
H259 H 0.67148 0.32258 0.57576 0.0
H260 H 0.71606 0.38013 0.613 0.0
H261 H 0.60577 0.42803 0.52381 0.0
H262 H 0.70326 0.5519 0.52321 0.0
H263 H 0.88275 0.45672 0.53759 0.0
H264 H 0.85903 0.45302 0.44695 0.0
C265 C 0.32027 0.75543 0.89587 0.0
C266 C 0.30935 0.78055 0.91026 0.0
C267 C 0.29599 0.79733 0.88994 0.0
C268 C 0.29931 0.78161 0.86424 0.0
N269 N 0.31299 0.75514 0.86718 0.0
Co270 Co 0.32635 0.72997 0.83451 0.0
N271 N 0.2989 0.74649 0.80538 0.0
C272 C 0.28403 0.7715 0.80994 0.0
C273 C 0.26236 0.77322 0.78685 0.0
C274 C 0.26348 0.74736 0.76661 0.0
C275 C 0.28587 0.73133 0.77845 0.0
N276 N 0.34376 0.70825 0.80197 0.0
C277 C 0.33277 0.70335 0.77413 0.0
C278 C 0.35646 0.69245 0.75773 0.0
C279 C 0.38262 0.68933 0.77622 0.0
C280 C 0.37364 0.69894 0.80256 0.0
N281 N 0.35149 0.70968 0.86313 0.0
C282 C 0.3757 0.69409 0.85668 0.0
C283 C 0.38917 0.68266 0.88006 0.0
C284 C 0.37359 0.69249 0.90299 0.0
C285 C 0.35129 0.70977 0.89235 0.0
N286 N 0.27219 0.67828 0.83847 0.0
C287 C 0.19016 0.61161 0.83511 0.0
C288 C 0.22355 0.60911 0.82381 0.0
C289 C 0.26403 0.64222 0.82611 0.0
C290 C 0.19955 0.64768 0.84914 0.0
C291 C 0.23976 0.68008 0.8503 0.0
N292 N 0.37851 0.78348 0.83064 0.0
C293 C 0.43601 0.83943 0.85447 0.0
C294 C 0.44086 0.86729 0.83279 0.0
C295 C 0.4159 0.85072 0.80852 0.0
C296 C 0.38564 0.80901 0.8077 0.0
C297 C 0.40502 0.79869 0.85321 0.0
H298 H 0.36701 0.79816 0.78878 0.0
H299 H 0.402 0.78047 0.87156 0.0
H300 H 0.28834 0.63882 0.81696 0.0
H301 H 0.24324 0.70717 0.85982 0.0
C302 C 0.28635 0.78775 0.83737 0.0
C303 C 0.33917 0.73405 0.91022 0.0
C304 C 0.29737 0.70435 0.76319 0.0
C305 C 0.38675 0.69211 0.82856 0.0
H306 H 0.31131 0.78649 0.93305 0.0
H307 H 0.28484 0.81821 0.89356 0.0
H308 H 0.24629 0.79002 0.7853 0.0
H309 H 0.24965 0.74115 0.74561 0.0
H310 H 0.35376 0.68568 0.73504 0.0
H311 H 0.40388 0.67896 0.77132 0.0
H312 H 0.40944 0.67027 0.88044 0.0
H313 H 0.38099 0.68982 0.92489 0.0
H314 H 0.2185 0.58186 0.81295 0.0
H315 H 0.17553 0.652 0.85799 0.0
H316 H 0.4554 0.84903 0.87315 0.0
H317 H 0.4184 0.86999 0.79065 0.0
H318 H 0.53536 0.11411 0.15979 0.0
H319 H 0.64093 0.16106 0.21511 0.0
H320 H 0.62816 0.0914 0.22276 0.0
H321 H 0.47206 1.02301 0.20019 0.0
H322 H 0.44945 0.99174 0.1691 0.0
H323 H 0.46716 0.04531 0.1674 0.0
H324 H 0.51275 0.05225 0.12394 0.0
H325 H 0.49509 0.99868 0.12546 0.0
H326 H 0.54878 0.03456 0.12691 0.0
H327 H 0.60198 1.01487 0.22614 0.0
H328 H 0.56804 0.94044 0.2225 0.0
H329 H 0.47925 0.94152 0.16455 0.0
C330 C 0.55589 0.10996 0.1736 0.0
C331 C 0.58943 0.14403 0.18681 0.0
C332 C 0.61545 0.13632 0.20433 0.0
C333 C 0.60819 0.0965 0.20902 0.0
C334 C 0.57478 0.06388 0.19595 0.0
C335 C 0.54924 0.07023 0.17835 0.0
C336 C 0.51566 0.02983 0.16664 0.0
C337 C 0.47359 1.02202 0.17642 0.0
C338 C 0.51823 0.02878 0.13379 0.0
C339 C 0.52604 0.99971 0.18052 0.0
C340 C 0.56018 1.02006 0.19748 0.0
C341 C 0.57528 0.99886 0.21285 0.0
C342 C 0.5554 0.95618 0.21081 0.0
C343 C 0.52045 0.93412 0.19338 0.0
C344 C 0.50589 0.9568 0.17798 0.0
H345 H 0.44909 0.51387 0.49316 0.0
H346 H 0.50743 0.6244 0.54332 0.0
H347 H 0.5655 0.61354 0.552 0.0
H348 H 0.48124 0.45583 0.53657 0.0
H349 H 0.48992 0.43111 0.50662 0.0
H350 H 0.45262 0.4472 0.504 0.0
H351 H 0.48856 0.48909 0.45868 0.0
H352 H 0.52584 0.47296 0.46106 0.0
H353 H 0.5419 0.52622 0.46011 0.0
H354 H 0.61672 0.58951 0.55715 0.0
H355 H 0.65966 0.55805 0.55515 0.0
H356 H 0.57139 0.46338 0.50004 0.0
C357 C 0.47399 0.53583 0.50606 0.0
C358 C 0.47309 0.57027 0.5175 0.0
C359 C 0.50699 0.59818 0.5339 0.0
C360 C 0.5402 0.59203 0.53918 0.0
C361 C 0.53986 0.55783 0.52783 0.0
C362 C 0.50783 0.53034 0.51134 0.0
C363 C 0.51573 0.49655 0.5012 0.0
C364 C 0.48292 0.45522 0.51279 0.0
C365 C 0.51815 0.49619 0.46831 0.0
C366 C 0.55709 0.50919 0.51468 0.0
C367 C 0.57012 0.54455 0.53009 0.0
C368 C 0.60692 0.56215 0.54479 0.0
C369 C 0.63142 0.54395 0.54333 0.0
C370 C 0.61997 0.50832 0.52695 0.0
C371 C 0.58156 0.49047 0.5128 0.0
H372 H 0.94847 0.47524 0.87353 0.0
H373 H 0.93005 0.43237 0.78573 0.0
H374 H 1.00393 0.47283 0.7769 0.0
H375 H 1.02859 0.57811 0.85715 0.0
H376 H 0.05712 0.58333 0.88925 0.0
H377 H 1.00281 0.55029 0.88905 0.0
H378 H 1.01229 0.49065 0.90573 0.0
H379 H 0.06665 0.52349 0.90585 0.0
H380 H 0.04436 0.47743 0.88517 0.0
H381 H 0.08191 0.51717 0.77772 0.0
H382 H 0.1545 0.56569 0.78683 0.0
H383 H 0.12399 0.58338 0.87332 0.0
C384 C 0.95988 0.47424 0.85243 0.0
C385 C 0.9325 0.45017 0.83033 0.0
C386 C 0.94952 0.45056 0.80305 0.0
C387 C 0.99183 0.47338 0.79784 0.0
C388 C 1.01777 0.49657 0.81995 0.0
C389 C 1.00236 0.49758 0.84666 0.0
C390 C 1.03696 0.52621 0.8664 0.0
C391 C 1.031 0.56158 0.87603 0.0
C392 C 0.04025 0.50306 0.89233 0.0
C393 C 0.07408 0.54101 0.84672 0.0
C394 C 0.06233 0.52309 0.82011 0.0
C395 C 0.0912 0.53138 0.79852 0.0
C396 C 0.13273 0.55893 0.80399 0.0
C397 C 0.14586 0.57885 0.83081 0.0
C398 C 0.11557 0.56921 0.85245 0.0
H399 H 0.11519 0.52321 0.52293 0.0
H400 H 0.14585 0.58757 0.44171 0.0
H401 H 0.07346 0.56536 0.43392 0.0
H402 H 1.02021 0.43725 0.49971 0.0
H403 H 0.99405 0.43192 0.53316 0.0
H404 H 0.04841 0.45301 0.53274 0.0
H405 H 0.05746 0.51716 0.55854 0.0
H406 H 1.00312 0.49622 0.55908 0.0
H407 H 1.03535 0.54528 0.54323 0.0
H408 H 0.99673 0.53704 0.43507 0.0
H409 H 0.92355 0.50532 0.44468 0.0
H410 H 0.94005 0.45602 0.52441 0.0
C411 C 0.10684 0.53296 0.50357 0.0
C412 C 0.1371 0.55732 0.4829 0.0
C413 C 0.12397 0.56862 0.45779 0.0
C414 C 0.08262 0.55625 0.45321 0.0
C415 C 0.05382 0.53217 0.4738 0.0
C416 C 0.06534 0.52055 0.49851 0.0
C417 C 1.02798 0.49421 0.51706 0.0
C418 C 1.02234 0.45156 0.52089 0.0
C419 C 1.03118 0.51443 0.54621 0.0
C420 C 0.99377 0.49298 0.49901 0.0
C421 C 1.00949 0.5152 0.47418 0.0
C422 C 0.9842 0.51923 0.45436 0.0
C423 C 0.94206 0.50043 0.45997 0.0
C424 C 0.92443 0.47706 0.48522 0.0
C425 C 0.9514 0.47351 0.5049 0.0
H426 H 0.48466 0.93048 0.7919 0.0
H427 H 0.46249 0.90967 0.88354 0.0
H428 H 0.51071 0.98094 0.89261 0.0
H429 H 0.59202 1.00586 0.79594 0.0
H430 H 0.59077 0.03799 0.76801 0.0
H431 H 0.55506 0.98435 0.76762 0.0
H432 H 0.49531 0.99884 0.76604 0.0
H433 H 0.53085 0.05253 0.76631 0.0
H434 H 0.49143 0.03051 0.79318 0.0
H435 H 0.56331 0.0538 0.8933 0.0
H436 H 0.61248 0.12524 0.88539 0.0
H437 H 0.59938 0.10616 0.79321 0.0
C438 C 0.48977 0.94077 0.8139 0.0
C439 C 0.46996 0.91275 0.83696 0.0
C440 C 0.47789 0.92878 0.86527 0.0
C441 C 0.50522 0.96987 0.87079 0.0
C442 C 0.52463 0.99605 0.84791 0.0
C443 C 0.51702 0.98252 0.81994 0.0
C444 C 0.54161 1.01831 0.79953 0.0
C445 C 0.57165 1.01119 0.78171 0.0
C446 C 0.5131 0.02547 0.78011 0.0
C447 C 0.5642 0.05364 0.82051 0.0
C448 C 0.55382 0.03957 0.84826 0.0
C449 C 0.57098 0.06529 0.87161 0.0
C450 C 0.5989 0.10647 0.86674 0.0
C451 C 0.60969 0.12302 0.83859 0.0
C452 C 0.5921 0.09546 0.8151 0.0
H453 H 0.51959 0.60235 0.13605 0.0
H454 H 0.44673 0.56504 0.21383 0.0
H455 H 0.465 0.51173 0.22127 0.0
H456 H 0.49636 0.5005 0.11342 0.0
H457 H 0.54688 0.51742 0.09985 0.0
H458 H 0.52649 0.55132 0.0997 0.0
H459 H 0.58856 0.60384 0.12854 0.0
H460 H 0.60908 0.57007 0.12887 0.0
H461 H 0.60083 0.58907 0.16213 0.0
H462 H 0.49499 0.46457 0.22215 0.0
H463 H 0.53057 0.42583 0.21532 0.0
H464 H 0.58467 0.49212 0.13669 0.0
C465 C 0.50719 0.58296 0.15466 0.0
C466 C 0.4813 0.58849 0.17432 0.0
C467 C 0.46586 0.56163 0.19809 0.0
C468 C 0.47645 0.53126 0.20265 0.0
C469 C 0.50249 0.52731 0.18321 0.0
C470 C 0.51735 0.5522 0.15949 0.0
C471 C 0.54521 0.54179 0.14203 0.0
C472 C 0.52769 0.52687 0.11196 0.0
C473 C 0.58849 0.57837 0.14029 0.0
C474 C 0.54427 0.50755 0.15982 0.0
C475 C 0.51939 0.49983 0.18351 0.0
C476 C 0.51437 0.47046 0.20359 0.0
C477 C 0.53511 0.44864 0.19956 0.0
C478 C 0.56104 0.45564 0.17555 0.0
C479 C 0.56511 0.4855 0.15523 0.0
H480 H 0.73565 0.35765 0.95513 0.0
H481 H 0.68084 0.23011 0.9348 0.0
H482 H 0.64132 0.21288 0.98019 0.0
H483 H 0.73737 0.35206 0.03267 0.0
H484 H 0.72265 0.38999 0.03775 0.0
H485 H 0.75049 0.39112 1.00609 0.0
H486 H 0.69383 0.39001 0.97457 0.0
H487 H 0.66531 0.38799 1.00611 0.0
H488 H 0.64215 0.34953 0.97893 0.0
H489 H 0.60873 0.21072 0.03009 0.0
H490 H 0.58681 0.22422 0.07713 0.0
H491 H 0.6502 0.35253 0.05788 0.0
C492 C 0.71571 0.32604 0.96043 0.0
C493 C 0.71162 0.29525 0.94134 0.0
C494 C 0.68502 0.25427 0.94913 0.0
C495 C 0.66204 0.24424 0.97477 0.0
C496 C 0.66502 0.27552 0.99221 0.0
C497 C 0.69098 0.31564 0.98508 0.0
C498 C 0.68633 0.34377 1.00588 0.0
C499 C 0.7266 0.37082 0.02153 0.0
C500 C 0.67099 0.36933 0.99045 0.0
C501 C 0.65426 0.31342 0.02621 0.0
C502 C 0.64285 0.27413 0.01843 0.0
C503 C 0.61697 0.24138 0.03597 0.0
C504 C 0.60415 0.24919 0.06255 0.0
C505 C 0.61642 0.28934 0.07116 0.0
C506 C 0.63974 0.32143 0.05174 0.0
H507 H 0.49691 0.7285 0.30371 0.0
H508 H 0.42158 0.63294 0.24445 0.0
H509 H 0.38554 0.5875 0.28496 0.0
H510 H 0.50156 0.65452 0.35913 0.0
H511 H 0.50188 0.68531 0.38861 0.0
H512 H 0.52557 0.70874 0.355 0.0
H513 H 0.4812 0.74287 0.35295 0.0
H514 H 0.45676 0.71893 0.38615 0.0
H515 H 0.42661 0.7118 0.35461 0.0
H516 H 0.34403 0.56221 0.33082 0.0
H517 H 0.31386 0.55005 0.37899 0.0
H518 H 0.42593 0.64977 0.41168 0.0
C519 C 0.47471 0.69724 0.29928 0.0
C520 C 0.46256 0.68432 0.27061 0.0
C521 C 0.43203 0.64345 0.266 0.0
C522 C 0.41091 0.61746 0.28899 0.0
C523 C 0.42171 0.63179 0.3169 0.0
C524 C 0.45436 0.66992 0.32225 0.0
C525 C 0.45908 0.67751 0.35452 0.0
C526 C 0.49943 0.68177 0.36493 0.0
C527 C 0.45571 0.715 0.3625 0.0
C528 C 0.42287 0.63875 0.36614 0.0
C529 C 0.40109 0.61332 0.34396 0.0
C530 C 0.36223 0.58026 0.34863 0.0
C531 C 0.34546 0.57286 0.37651 0.0
C532 C 0.36811 0.59674 0.4002 0.0
C533 C 0.40802 0.62963 0.39457 0.0
H534 H 0.79258 0.40145 0.74925 0.0
H535 H 0.80057 0.29961 0.71526 0.0
H536 H 0.81683 0.33198 0.66758 0.0
H537 H 0.73315 0.40021 0.69347 0.0
H538 H 0.75174 0.454 0.69256 0.0
H539 H 0.75368 0.4302 0.72537 0.0
H540 H 0.83118 0.47965 0.72869 0.0
H541 H 0.8295 0.50375 0.69581 0.0
H542 H 0.86365 0.48381 0.69903 0.0
H543 H 0.82197 0.36964 0.62249 0.0
H544 H 0.80668 0.40214 0.58337 0.0
H545 H 0.78487 0.47577 0.64392 0.0
C546 C 0.7995 0.38673 0.73204 0.0
C547 C 0.79724 0.34862 0.73667 0.0
C548 C 0.80456 0.32969 0.71309 0.0
C549 C 0.81317 0.34772 0.68566 0.0
C550 C 0.81328 0.38428 0.68173 0.0
C551 C 0.80601 0.40328 0.70427 0.0
C552 C 0.79966 0.43764 0.69352 0.0
C553 C 0.75704 0.43005 0.70171 0.0
C554 C 0.83299 0.47865 0.70495 0.0
C555 C 0.80372 0.43464 0.66126 0.0
C556 C 0.81287 0.40441 0.65517 0.0
C557 C 0.81572 0.39391 0.62709 0.0
C558 C 0.80759 0.41343 0.60471 0.0
C559 C 0.79618 0.44328 0.61002 0.0
C560 C 0.79509 0.45448 0.63889 0.0
H561 H 0.32735 0.68508 0.95753 0.0
H562 H 0.39466 0.81009 0.92936 0.0
H563 H 0.43394 0.82865 0.97457 0.0
H564 H 0.32731 0.70175 0.03494 0.0
H565 H 0.33582 0.66041 0.04372 0.0
H566 H 0.30921 0.6587 0.01136 0.0
H567 H 0.3611 0.64787 0.98193 0.0
H568 H 0.3884 0.65046 0.01413 0.0
H569 H 0.41453 0.68423 0.98463 0.0
H570 H 0.46584 0.8331 0.02422 0.0
H571 H 0.48737 0.82283 0.07204 0.0
H572 H 0.40942 0.69314 0.06314 0.0
C573 C 0.34977 0.71654 0.96119 0.0
C574 C 0.35741 0.74621 0.9399 0.0
C575 C 0.38756 0.7869 0.94542 0.0
C576 C 0.41042 0.79763 0.97096 0.0
C577 C 0.40361 0.76723 0.99074 0.0
C578 C 0.37411 0.72742 0.986 0.0
C579 C 0.37502 0.69993 0.00936 0.0
C580 C 0.33443 0.67896 0.02582 0.0
C581 C 0.38538 0.66878 0.99675 0.0
C582 C 0.4093 0.73042 0.02818 0.0
C583 C 0.42496 0.76921 0.01738 0.0
C584 C 0.45435 0.80272 0.03246 0.0
C585 C 0.467 0.79656 0.05952 0.0
C586 C 0.45131 0.75707 0.07115 0.0
C587 C 0.42305 0.7236 0.05454 0.0
H588 H 0.72598 0.39498 0.40066 0.0
H589 H 0.68552 0.48267 0.40964 0.0
H590 H 0.64954 0.46031 0.363 0.0
H591 H 0.73334 0.39285 0.32248 0.0
H592 H 0.71221 0.33866 0.32189 0.0
H593 H 0.74056 0.36737 0.35259 0.0
H594 H 0.67918 0.32156 0.38521 0.0
H595 H 0.65017 0.29338 0.35454 0.0
H596 H 0.63037 0.31702 0.37815 0.0
H597 H 0.61711 0.42609 0.31435 0.0
H598 H 0.59314 0.38529 0.2699 0.0
H599 H 0.64144 0.30995 0.29975 0.0
C600 C 0.71056 0.41034 0.39235 0.0
C601 C 0.70889 0.4409 0.40871 0.0
C602 C 0.68774 0.45968 0.39736 0.0
C603 C 0.66675 0.4467 0.37105 0.0
C604 C 0.66636 0.4142 0.35666 0.0
C605 C 0.68768 0.39623 0.36711 0.0
C606 C 0.67925 0.35924 0.34959 0.0
C607 C 0.71867 0.36488 0.33582 0.0
C608 C 0.65851 0.32052 0.36798 0.0
C609 C 0.65035 0.35936 0.32721 0.0
C610 C 0.64383 0.39173 0.33123 0.0
C611 C 0.6215 0.40029 0.31142 0.0
C612 C 0.60739 0.37654 0.28636 0.0
C613 C 0.61471 0.3439 0.28152 0.0
C614 C 0.63443 0.33399 0.30318 0.0
H615 H 0.28894 0.7236 0.70641 0.0
H616 H 0.26221 0.62293 0.76294 0.0
H617 H 0.2555 0.58038 0.72131 0.0
H618 H 0.21358 0.65433 0.64795 0.0
H619 H 0.24604 0.68698 0.61981 0.0
H620 H 0.2439 0.70813 0.65393 0.0
H621 H 0.32201 0.74109 0.65808 0.0
H622 H 0.32436 0.71919 0.62444 0.0
H623 H 0.34507 0.70954 0.65626 0.0
H624 H 0.27382 0.55729 0.67497 0.0
H625 H 0.29213 0.54674 0.62611 0.0
H626 H 0.28498 0.65126 0.59667 0.0
C627 C 0.2791 0.69191 0.70993 0.0
C628 C 0.27589 0.67672 0.73822 0.0
C629 C 0.2643 0.63524 0.74167 0.0
C630 C 0.26099 0.61087 0.71805 0.0
C631 C 0.26711 0.62743 0.69063 0.0
C632 C 0.27346 0.66618 0.68627 0.0
C633 C 0.27846 0.67608 0.65431 0.0
C634 C 0.2434 0.68171 0.64335 0.0
C635 C 0.31994 0.71371 0.64792 0.0
C636 C 0.27621 0.63793 0.64182 0.0
C637 C 0.27086 0.61075 0.66325 0.0
C638 C 0.27561 0.57717 0.65773 0.0
C639 C 0.28563 0.57107 0.62968 0.0
C640 C 0.28891 0.59711 0.60679 0.0
C641 C 0.28271 0.63033 0.61326 0.0
loop_
_geom_bond_atom_site_label_1
_geom_bond_atom_site_label_2
_geom_bond_distance
_geom_bond_site_symmetry_2
_ccdc_geom_bond_type
C0 C1 1.443 . S
C0 N4 1.376 . S
C0 C38 1.389 . S
C1 C0 1.443 . S
C1 C2 1.340 . S
C1 H41 0.951 . S
C2 C1 1.340 . S
C2 C3 1.439 . S
C2 H42 0.950 . S
C3 C2 1.439 . S
C3 N4 1.374 . S
C3 C37 1.395 . S
N4 C0 1.376 . S
N4 C3 1.374 . S
N4 Co5 2.008 . S
Co5 N4 2.008 . S
Co5 N6 1.995 . S
Co5 N11 2.008 . S
Co5 N16 1.995 . S
Co5 N21 2.282 . S
Co5 N27 2.282 . S
N6 Co5 1.995 . S
N6 C7 1.376 . S
N6 C10 1.383 . S
C7 N6 1.376 . S
C7 C8 1.446 . S
C7 C37 1.391 . S
C8 C7 1.446 . S
C8 C9 1.339 . S
C8 H43 0.949 . S
C9 C8 1.339 . S
C9 C10 1.439 . S
C9 H44 0.950 . S
C10 N6 1.383 . S
C10 C9 1.439 . S
C10 C39 1.392 . S
N11 Co5 2.008 . S
N11 C12 1.376 . S
N11 C15 1.374 . S
C12 N11 1.376 . S
C12 C13 1.443 . S
C12 C39 1.389 . S
C13 C12 1.443 . S
C13 C14 1.340 . S
C13 H45 0.951 . S
C14 C13 1.340 . S
C14 C15 1.439 . S
C14 H46 0.950 . S
C15 N11 1.374 . S
C15 C14 1.439 . S
C15 C40 1.395 . S
N16 Co5 1.995 . S
N16 C17 1.376 . S
N16 C20 1.383 . S
C17 N16 1.376 . S
C17 C18 1.446 . S
C17 C40 1.391 . S
C18 C17 1.446 . S
C18 C19 1.339 . S
C18 H47 0.949 . S
C19 C18 1.339 . S
C19 C20 1.439 . S
C19 H48 0.950 . S
C20 N16 1.383 . S
C20 C19 1.439 . S
C20 C38 1.392 . S
N21 Co5 2.282 . S
N21 C24 1.332 . S
N21 C26 1.332 . S
C22 C23 1.386 . S
C22 C25 1.388 . S
C23 C22 1.386 . S
C23 C24 1.382 . S
C23 H49 0.950 . S
C24 N21 1.332 . S
C24 C23 1.382 . S
C24 H35 0.952 . S
C25 C22 1.388 . S
C25 C26 1.382 . S
C25 H50 0.950 . S
C26 N21 1.332 . S
C26 C25 1.382 . S
C26 H36 0.948 . S
N27 Co5 2.282 . S
N27 C31 1.332 . S
N27 C32 1.332 . S
C28 C29 1.388 . S
C28 C32 1.382 . S
C28 H51 0.950 . S
C29 C28 1.388 . S
C29 C30 1.386 . S
C30 C29 1.386 . S
C30 C31 1.382 . S
C30 H52 0.950 . S
C31 N27 1.332 . S
C31 C30 1.382 . S
C31 H33 0.952 . S
C32 N27 1.332 . S
C32 C28 1.382 . S
C32 H34 0.948 . S
H33 C31 0.952 . S
H34 C32 0.948 . S
H35 C24 0.952 . S
H36 C26 0.948 . S
C37 C3 1.395 . S
C37 C7 1.391 . S
C38 C0 1.389 . S
C38 C20 1.392 . S
C39 C10 1.392 . S
C39 C12 1.389 . S
C40 C15 1.395 . S
C40 C17 1.391 . S
H41 C1 0.951 . S
H42 C2 0.950 . S
H43 C8 0.949 . S
H44 C9 0.950 . S
H45 C13 0.951 . S
H46 C14 0.950 . S
H47 C18 0.949 . S
H48 C19 0.950 . S
H49 C23 0.950 . S
H50 C25 0.950 . S
H51 C28 0.950 . S
H52 C30 0.950 . S
C53 C54 1.443 . S
C53 N57 1.376 . S
C53 C91 1.389 . S
C54 C53 1.443 . S
C54 C55 1.340 . S
C54 H94 0.951 . S
C55 C54 1.340 . S
C55 C56 1.439 . S
C55 H95 0.950 . S
C56 C55 1.439 . S
C56 N57 1.374 . S
C56 C90 1.395 . S
N57 C53 1.376 . S
N57 C56 1.374 . S
N57 Co58 2.008 . S
Co58 N57 2.008 . S
Co58 N59 1.995 . S
Co58 N64 2.008 . S
Co58 N69 1.995 . S
Co58 N74 2.282 . S
Co58 N80 2.282 . S
N59 Co58 1.995 . S
N59 C60 1.376 . S
N59 C63 1.383 . S
C60 N59 1.376 . S
C60 C61 1.446 . S
C60 C90 1.391 . S
C61 C60 1.446 . S
C61 C62 1.339 . S
C61 H96 0.949 . S
C62 C61 1.339 . S
C62 C63 1.439 . S
C62 H97 0.950 . S
C63 N59 1.383 . S
C63 C62 1.439 . S
C63 C92 1.392 . S
N64 Co58 2.008 . S
N64 C65 1.376 . S
N64 C68 1.374 . S
C65 N64 1.376 . S
C65 C66 1.443 . S
C65 C92 1.389 . S
C66 C65 1.443 . S
C66 C67 1.340 . S
C66 H98 0.951 . S
C67 C66 1.340 . S
C67 C68 1.439 . S
C67 H99 0.950 . S
C68 N64 1.374 . S
C68 C67 1.439 . S
C68 C93 1.395 . S
N69 Co58 1.995 . S
N69 C70 1.376 . S
N69 C73 1.383 . S
C70 N69 1.376 . S
C70 C71 1.446 . S
C70 C93 1.391 . S
C71 C70 1.446 . S
C71 C72 1.339 . S
C71 H100 0.949 . S
C72 C71 1.339 . S
C72 C73 1.439 . S
C72 H101 0.950 . S
C73 N69 1.383 . S
C73 C72 1.439 . S
C73 C91 1.392 . S
N74 Co58 2.282 . S
N74 C77 1.332 . S
N74 C79 1.332 . S
C75 C76 1.386 . S
C75 C78 1.388 . S
C76 C75 1.386 . S
C76 C77 1.382 . S
C76 H102 0.950 . S
C77 N74 1.332 . S
C77 C76 1.382 . S
C77 H88 0.952 . S
C78 C75 1.388 . S
C78 C79 1.382 . S
C78 H103 0.950 . S
C79 N74 1.332 . S
C79 C78 1.382 . S
C79 H89 0.948 . S
N80 Co58 2.282 . S
N80 C84 1.332 . S
N80 C85 1.332 . S
C81 C82 1.388 . S
C81 C85 1.382 . S
C81 H104 0.950 . S
C82 C81 1.388 . S
C82 C83 1.386 . S
C83 C82 1.386 . S
C83 C84 1.382 . S
C83 H105 0.950 . S
C84 N80 1.332 . S
C84 C83 1.382 . S
C84 H86 0.952 . S
C85 N80 1.332 . S
C85 C81 1.382 . S
C85 H87 0.948 . S
H86 C84 0.952 . S
H87 C85 0.948 . S
H88 C77 0.952 . S
H89 C79 0.948 . S
C90 C56 1.395 . S
C90 C60 1.391 . S
C91 C53 1.389 . S
C91 C73 1.392 . S
C92 C63 1.392 . S
C92 C65 1.389 . S
C93 C68 1.395 . S
C93 C70 1.391 . S
H94 C54 0.951 . S
H95 C55 0.950 . S
H96 C61 0.949 . S
H97 C62 0.950 . S
H98 C66 0.951 . S
H99 C67 0.950 . S
H100 C71 0.949 . S
H101 C72 0.950 . S
H102 C76 0.950 . S
H103 C78 0.950 . S
H104 C81 0.950 . S
H105 C83 0.950 . S
C106 C107 1.443 . S
C106 N110 1.376 . S
C106 C144 1.389 . S
C107 C106 1.443 . S
C107 C108 1.340 . S
C107 H147 0.951 . S
C108 C107 1.340 . S
C108 C109 1.439 . S
C108 H148 0.950 . S
C109 C108 1.439 . S
C109 N110 1.374 . S
C109 C143 1.395 . S
N110 C106 1.376 . S
N110 C109 1.374 . S
N110 Co111 2.008 . S
Co111 N110 2.008 . S
Co111 N112 1.995 . S
Co111 N117 2.008 . S
Co111 N122 1.995 . S
Co111 N127 2.282 . S
Co111 N133 2.282 . S
N112 Co111 1.995 . S
N112 C113 1.376 . S
N112 C116 1.383 . S
C113 N112 1.376 . S
C113 C114 1.446 . S
C113 C143 1.391 . S
C114 C113 1.446 . S
C114 C115 1.339 . S
C114 H149 0.949 . S
C115 C114 1.339 . S
C115 C116 1.439 . S
C115 H150 0.950 . S
C116 N112 1.383 . S
C116 C115 1.439 . S
C116 C145 1.392 . S
N117 Co111 2.008 . S
N117 C118 1.376 . S
N117 C121 1.374 . S
C118 N117 1.376 . S
C118 C119 1.443 . S
C118 C145 1.389 . S
C119 C118 1.443 . S
C119 C120 1.340 . S
C119 H151 0.951 . S
C120 C119 1.340 . S
C120 C121 1.439 . S
C120 H152 0.950 . S
C121 N117 1.374 . S
C121 C120 1.439 . S
C121 C146 1.395 . S
N122 Co111 1.995 . S
N122 C123 1.376 . S
N122 C126 1.383 . S
C123 N122 1.376 . S
C123 C124 1.446 . S
C123 C146 1.391 . S
C124 C123 1.446 . S
C124 C125 1.339 . S
C124 H153 0.949 . S
C125 C124 1.339 . S
C125 C126 1.439 . S
C125 H154 0.950 . S
C126 N122 1.383 . S
C126 C125 1.439 . S
C126 C144 1.392 . S
N127 Co111 2.282 . S
N127 C130 1.332 . S
N127 C132 1.332 . S
C128 C129 1.386 . S
C128 C131 1.388 . S
C129 C128 1.386 . S
C129 C130 1.382 . S
C129 H155 0.950 . S
C130 N127 1.332 . S
C130 C129 1.382 . S
C130 H141 0.952 . S
C131 C128 1.388 . S
C131 C132 1.382 . S
C131 H156 0.950 . S
C132 N127 1.332 . S
C132 C131 1.382 . S
C132 H142 0.948 . S
N133 Co111 2.282 . S
N133 C137 1.332 . S
N133 C138 1.332 . S
C134 C135 1.388 . S
C134 C138 1.382 . S
C134 H157 0.950 . S
C135 C134 1.388 . S
C135 C136 1.386 . S
C136 C135 1.386 . S
C136 C137 1.382 . S
C136 H158 0.950 . S
C137 N133 1.332 . S
C137 C136 1.382 . S
C137 H139 0.952 . S
C138 N133 1.332 . S
C138 C134 1.382 . S
C138 H140 0.948 . S
H139 C137 0.952 . S
H140 C138 0.948 . S
H141 C130 0.952 . S
H142 C132 0.948 . S
C143 C109 1.395 . S
C143 C113 1.391 . S
C144 C106 1.389 . S
C144 C126 1.392 . S
C145 C116 1.392 . S
C145 C118 1.389 . S
C146 C121 1.395 . S
C146 C123 1.391 . S
H147 C107 0.951 . S
H148 C108 0.950 . S
H149 C114 0.949 . S
H150 C115 0.950 . S
H151 C119 0.951 . S
H152 C120 0.950 . S
H153 C124 0.949 . S
H154 C125 0.950 . S
H155 C129 0.950 . S
H156 C131 0.950 . S
H157 C134 0.950 . S
H158 C136 0.950 . S
C159 C160 1.443 . S
C159 N163 1.376 . S
C159 C197 1.389 . S
C160 C159 1.443 . S
C160 C161 1.340 . S
C160 H200 0.951 . S
C161 C160 1.340 . S
C161 C162 1.439 . S
C161 H201 0.950 . S
C162 C161 1.439 . S
C162 N163 1.374 . S
C162 C196 1.395 . S
N163 C159 1.376 . S
N163 C162 1.374 . S
N163 Co164 2.008 . S
Co164 N163 2.008 . S
Co164 N165 1.995 . S
Co164 N170 2.008 . S
Co164 N175 1.995 . S
Co164 N180 2.282 . S
Co164 N186 2.282 . S
N165 Co164 1.995 . S
N165 C166 1.376 . S
N165 C169 1.383 . S
C166 N165 1.376 . S
C166 C167 1.446 . S
C166 C196 1.391 . S
C167 C166 1.446 . S
C167 C168 1.339 . S
C167 H202 0.949 . S
C168 C167 1.339 . S
C168 C169 1.439 . S
C168 H203 0.950 . S
C169 N165 1.383 . S
C169 C168 1.439 . S
C169 C198 1.392 . S
N170 Co164 2.008 . S
N170 C171 1.376 . S
N170 C174 1.374 . S
C171 N170 1.376 . S
C171 C172 1.443 . S
C171 C198 1.389 . S
C172 C171 1.443 . S
C172 C173 1.340 . S
C172 H204 0.951 . S
C173 C172 1.340 . S
C173 C174 1.439 . S
C173 H205 0.950 . S
C174 N170 1.374 . S
C174 C173 1.439 . S
C174 C199 1.395 . S
N175 Co164 1.995 . S
N175 C176 1.376 . S
N175 C179 1.383 . S
C176 N175 1.376 . S
C176 C177 1.446 . S
C176 C199 1.391 . S
C177 C176 1.446 . S
C177 C178 1.339 . S
C177 H206 0.949 . S
C178 C177 1.339 . S
C178 C179 1.439 . S
C178 H207 0.950 . S
C179 N175 1.383 . S
C179 C178 1.439 . S
C179 C197 1.392 . S
N180 Co164 2.282 . S
N180 C183 1.332 . S
N180 C185 1.332 . S
C181 C182 1.386 . S
C181 C184 1.388 . S
C182 C181 1.386 . S
C182 C183 1.382 . S
C182 H208 0.950 . S
C183 N180 1.332 . S
C183 C182 1.382 . S
C183 H194 0.952 . S
C184 C181 1.388 . S
C184 C185 1.382 . S
C184 H209 0.950 . S
C185 N180 1.332 . S
C185 C184 1.382 . S
C185 H195 0.948 . S
N186 Co164 2.282 . S
N186 C190 1.332 . S
N186 C191 1.332 . S
C187 C188 1.388 . S
C187 C191 1.382 . S
C187 H210 0.950 . S
C188 C187 1.388 . S
C188 C189 1.386 . S
C189 C188 1.386 . S
C189 C190 1.382 . S
C189 H211 0.950 . S
C190 N186 1.332 . S
C190 C189 1.382 . S
C190 H192 0.952 . S
C191 N186 1.332 . S
C191 C187 1.382 . S
C191 H193 0.948 . S
H192 C190 0.952 . S
H193 C191 0.948 . S
H194 C183 0.952 . S
H195 C185 0.948 . S
C196 C162 1.395 . S
C196 C166 1.391 . S
C197 C159 1.389 . S
C197 C179 1.392 . S
C198 C169 1.392 . S
C198 C171 1.389 . S
C199 C174 1.395 . S
C199 C176 1.391 . S
H200 C160 0.951 . S
H201 C161 0.950 . S
H202 C167 0.949 . S
H203 C168 0.950 . S
H204 C172 0.951 . S
H205 C173 0.950 . S
H206 C177 0.949 . S
H207 C178 0.950 . S
H208 C182 0.950 . S
H209 C184 0.950 . S
H210 C187 0.950 . S
H211 C189 0.950 . S
C212 C213 1.443 . S
C212 N216 1.376 . S
C212 C250 1.389 . S
C213 C212 1.443 . S
C213 C214 1.340 . S
C213 H253 0.951 . S
C214 C213 1.340 . S
C214 C215 1.439 . S
C214 H254 0.950 . S
C215 C214 1.439 . S
C215 N216 1.374 . S
C215 C249 1.395 . S
N216 C212 1.376 . S
N216 C215 1.374 . S
N216 Co217 2.008 . S
Co217 N216 2.008 . S
Co217 N218 1.995 . S
Co217 N223 2.008 . S
Co217 N228 1.995 . S
Co217 N233 2.282 . S
Co217 N239 2.282 . S
N218 Co217 1.995 . S
N218 C219 1.376 . S
N218 C222 1.383 . S
C219 N218 1.376 . S
C219 C220 1.446 . S
C219 C249 1.391 . S
C220 C219 1.446 . S
C220 C221 1.339 . S
C220 H255 0.949 . S
C221 C220 1.339 . S
C221 C222 1.439 . S
C221 H256 0.950 . S
C222 N218 1.383 . S
C222 C221 1.439 . S
C222 C251 1.392 . S
N223 Co217 2.008 . S
N223 C224 1.376 . S
N223 C227 1.374 . S
C224 N223 1.376 . S
C224 C225 1.443 . S
C224 C251 1.389 . S
C225 C224 1.443 . S
C225 C226 1.340 . S
C225 H257 0.951 . S
C226 C225 1.340 . S
C226 C227 1.439 . S
C226 H258 0.950 . S
C227 N223 1.374 . S
C227 C226 1.439 . S
C227 C252 1.395 . S
N228 Co217 1.995 . S
N228 C229 1.376 . S
N228 C232 1.383 . S
C229 N228 1.376 . S
C229 C230 1.446 . S
C229 C252 1.391 . S
C230 C229 1.446 . S
C230 C231 1.339 . S
C230 H259 0.949 . S
C231 C230 1.339 . S
C231 C232 1.439 . S
C231 H260 0.950 . S
C232 N228 1.383 . S
C232 C231 1.439 . S
C232 C250 1.392 . S
N233 Co217 2.282 . S
N233 C236 1.332 . S
N233 C238 1.332 . S
C234 C235 1.386 . S
C234 C237 1.388 . S
C235 C234 1.386 . S
C235 C236 1.382 . S
C235 H261 0.950 . S
C236 N233 1.332 . S
C236 C235 1.382 . S
C236 H247 0.952 . S
C237 C234 1.388 . S
C237 C238 1.382 . S
C237 H262 0.950 . S
C238 N233 1.332 . S
C238 C237 1.382 . S
C238 H248 0.948 . S
N239 Co217 2.282 . S
N239 C243 1.332 . S
N239 C244 1.332 . S
C240 C241 1.388 . S
C240 C244 1.382 . S
C240 H263 0.950 . S
C241 C240 1.388 . S
C241 C242 1.386 . S
C242 C241 1.386 . S
C242 C243 1.382 . S
C242 H264 0.950 . S
C243 N239 1.332 . S
C243 C242 1.382 . S
C243 H245 0.952 . S
C244 N239 1.332 . S
C244 C240 1.382 . S
C244 H246 0.948 . S
H245 C243 0.952 . S
H246 C244 0.948 . S
H247 C236 0.952 . S
H248 C238 0.948 . S
C249 C215 1.395 . S
C249 C219 1.391 . S
C250 C212 1.389 . S
C250 C232 1.392 . S
C251 C222 1.392 . S
C251 C224 1.389 . S
C252 C227 1.395 . S
C252 C229 1.391 . S
H253 C213 0.951 . S
H254 C214 0.950 . S
H255 C220 0.949 . S
H256 C221 0.950 . S
H257 C225 0.951 . S
H258 C226 0.950 . S
H259 C230 0.949 . S
H260 C231 0.950 . S
H261 C235 0.950 . S
H262 C237 0.950 . S
H263 C240 0.950 . S
H264 C242 0.950 . S
C265 C266 1.443 . S
C265 N269 1.376 . S
C265 C303 1.389 . S
C266 C265 1.443 . S
C266 C267 1.340 . S
C266 H306 0.951 . S
C267 C266 1.340 . S
C267 C268 1.439 . S
C267 H307 0.950 . S
C268 C267 1.439 . S
C268 N269 1.374 . S
C268 C302 1.395 . S
N269 C265 1.376 . S
N269 C268 1.374 . S
N269 Co270 2.008 . S
Co270 N269 2.008 . S
Co270 N271 1.995 . S
Co270 N276 2.008 . S
Co270 N281 1.995 . S
Co270 N286 2.282 . S
Co270 N292 2.282 . S
N271 Co270 1.995 . S
N271 C272 1.376 . S
N271 C275 1.383 . S
C272 N271 1.376 . S
C272 C273 1.446 . S
C272 C302 1.391 . S
C273 C272 1.446 . S
C273 C274 1.339 . S
C273 H308 0.949 . S
C274 C273 1.339 . S
C274 C275 1.439 . S
C274 H309 0.950 . S
C275 N271 1.383 . S
C275 C274 1.439 . S
C275 C304 1.392 . S
N276 Co270 2.008 . S
N276 C277 1.376 . S
N276 C280 1.374 . S
C277 N276 1.376 . S
C277 C278 1.443 . S
C277 C304 1.389 . S
C278 C277 1.443 . S
C278 C279 1.340 . S
C278 H310 0.951 . S
C279 C278 1.340 . S
C279 C280 1.439 . S
C279 H311 0.950 . S
C280 N276 1.374 . S
C280 C279 1.439 . S
C280 C305 1.395 . S
N281 Co270 1.995 . S
N281 C282 1.376 . S
N281 C285 1.383 . S
C282 N281 1.376 . S
C282 C283 1.446 . S
C282 C305 1.391 . S
C283 C282 1.446 . S
C283 C284 1.339 . S
C283 H312 0.949 . S
C284 C283 1.339 . S
C284 C285 1.439 . S
C284 H313 0.950 . S
C285 N281 1.383 . S
C285 C284 1.439 . S
C285 C303 1.392 . S
N286 Co270 2.282 . S
N286 C289 1.332 . S
N286 C291 1.332 . S
C287 C288 1.386 . S
C287 C290 1.388 . S
C288 C287 1.386 . S
C288 C289 1.382 . S
C288 H314 0.950 . S
C289 N286 1.332 . S
C289 C288 1.382 . S
C289 H300 0.952 . S
C290 C287 1.388 . S
C290 C291 1.382 . S
C290 H315 0.950 . S
C291 N286 1.332 . S
C291 C290 1.382 . S
C291 H301 0.948 . S
N292 Co270 2.282 . S
N292 C296 1.332 . S
N292 C297 1.332 . S
C293 C294 1.388 . S
C293 C297 1.382 . S
C293 H316 0.950 . S
C294 C293 1.388 . S
C294 C295 1.386 . S
C295 C294 1.386 . S
C295 C296 1.382 . S
C295 H317 0.950 . S
C296 N292 1.332 . S
C296 C295 1.382 . S
C296 H298 0.952 . S
C297 N292 1.332 . S
C297 C293 1.382 . S
C297 H299 0.948 . S
H298 C296 0.952 . S
H299 C297 0.948 . S
H300 C289 0.952 . S
H301 C291 0.948 . S
C302 C268 1.395 . S
C302 C272 1.391 . S
C303 C265 1.389 . S
C303 C285 1.392 . S
C304 C275 1.392 . S
C304 C277 1.389 . S
C305 C280 1.395 . S
C305 C282 1.391 . S
H306 C266 0.951 . S
H307 C267 0.950 . S
H308 C273 0.949 . S
H309 C274 0.950 . S
H310 C278 0.951 . S
H311 C279 0.950 . S
H312 C283 0.949 . S
H313 C284 0.950 . S
H314 C288 0.950 . S
H315 C290 0.950 . S
H316 C293 0.950 . S
H317 C295 0.950 . S
H318 C330 0.930 . S
H319 C332 0.930 . S
H320 C333 0.930 . S
H321 C337 0.959 . S
H322 C337 0.959 . S
H323 C337 0.961 1_545 S
H324 C338 0.960 . S
H325 C338 0.961 1_565 S
H326 C338 0.959 . S
H327 C341 0.929 . S
H328 C342 0.931 . S
H329 C344 0.930 . S
C330 H318 0.930 . S
C330 C331 1.399 . S
C330 C335 1.399 . S
C331 C330 1.399 . S
C331 C332 1.376 . S
C332 H319 0.930 . S
C332 C331 1.376 . S
C332 C333 1.388 . S
C333 H320 0.930 . S
C333 C332 1.388 . S
C333 C334 1.390 . S
C334 C333 1.390 . S
C334 C335 1.394 . S
C334 C340 1.465 1_545 S
C335 C330 1.399 . S
C335 C334 1.394 . S
C335 C336 1.516 1_545 S
C336 C335 1.516 1_565 S
C336 C337 1.502 . S
C336 C338 1.561 1_565 S
C336 C339 1.526 . S
C337 H321 0.959 . S
C337 H322 0.959 . S
C337 H323 0.961 1_565 S
C337 C336 1.502 . S
C338 H324 0.960 . S
C338 H325 0.961 1_545 S
C338 H326 0.959 . S
C338 C336 1.561 1_545 S
C339 C336 1.526 . S
C339 C340 1.396 . S
C339 C344 1.390 . S
C340 C334 1.465 1_565 S
C340 C339 1.396 . S
C340 C341 1.399 . S
C341 H327 0.929 . S
C341 C340 1.399 . S
C341 C342 1.385 . S
C342 H328 0.931 . S
C342 C341 1.385 . S
C342 C343 1.389 . S
C343 C342 1.389 . S
C343 C344 1.387 . S
C344 H329 0.930 . S
C344 C339 1.390 . S
C344 C343 1.387 . S
H345 C357 0.930 . S
H346 C359 0.930 . S
H347 C360 0.930 . S
H348 C364 0.959 . S
H349 C364 0.959 . S
H350 C364 0.961 . S
H351 C365 0.960 . S
H352 C365 0.961 . S
H353 C365 0.959 . S
H354 C368 0.929 . S
H355 C369 0.931 . S
H356 C371 0.930 . S
C357 H345 0.930 . S
C357 C358 1.399 . S
C357 C362 1.399 . S
C358 C357 1.399 . S
C358 C359 1.376 . S
C359 H346 0.930 . S
C359 C358 1.376 . S
C359 C360 1.388 . S
C360 H347 0.930 . S
C360 C359 1.388 . S
C360 C361 1.390 . S
C361 C360 1.390 . S
C361 C362 1.394 . S
C361 C367 1.465 . S
C362 C357 1.399 . S
C362 C361 1.394 . S
C362 C363 1.516 . S
C363 C362 1.516 . S
C363 C364 1.502 . S
C363 C365 1.561 . S
C363 C366 1.526 . S
C364 H348 0.959 . S
C364 H349 0.959 . S
C364 H350 0.961 . S
C364 C363 1.502 . S
C365 H351 0.960 . S
C365 H352 0.961 . S
C365 H353 0.959 . S
C365 C363 1.561 . S
C366 C363 1.526 . S
C366 C367 1.396 . S
C366 C371 1.390 . S
C367 C361 1.465 . S
C367 C366 1.396 . S
C367 C368 1.399 . S
C368 H354 0.929 . S
C368 C367 1.399 . S
C368 C369 1.385 . S
C369 H355 0.931 . S
C369 C368 1.385 . S
C369 C370 1.389 . S
C370 C369 1.389 . S
C370 C371 1.387 . S
C371 H356 0.930 . S
C371 C366 1.390 . S
C371 C370 1.387 . S
H372 C384 0.930 . S
H373 C386 0.930 . S
H374 C387 0.930 . S
H375 C391 0.959 . S
H376 C391 0.959 1_455 S
H377 C391 0.961 . S
H378 C392 0.960 1_655 S
H379 C392 0.961 . S
H380 C392 0.959 . S
H381 C395 0.929 . S
H382 C396 0.931 . S
H383 C398 0.930 . S
C384 H372 0.930 . S
C384 C385 1.399 . S
C384 C389 1.399 . S
C385 C384 1.399 . S
C385 C386 1.376 . S
C386 H373 0.930 . S
C386 C385 1.376 . S
C386 C387 1.388 . S
C387 H374 0.930 . S
C387 C386 1.388 . S
C387 C388 1.390 . S
C388 C387 1.390 . S
C388 C389 1.394 . S
C388 C394 1.465 1_655 S
C389 C384 1.399 . S
C389 C388 1.394 . S
C389 C390 1.516 . S
C390 C389 1.516 . S
C390 C391 1.502 . S
C390 C392 1.561 1_655 S
C390 C393 1.526 1_655 S
C391 H375 0.959 . S
C391 H376 0.959 1_655 S
C391 H377 0.961 . S
C391 C390 1.502 . S
C392 H378 0.960 1_455 S
C392 H379 0.961 . S
C392 H380 0.959 . S
C392 C390 1.561 1_455 S
C393 C390 1.526 1_455 S
C393 C394 1.396 . S
C393 C398 1.390 . S
C394 C388 1.465 1_455 S
C394 C393 1.396 . S
C394 C395 1.399 . S
C395 H381 0.929 . S
C395 C394 1.399 . S
C395 C396 1.385 . S
C396 H382 0.931 . S
C396 C395 1.385 . S
C396 C397 1.389 . S
C397 C396 1.389 . S
C397 C398 1.387 . S
C398 H383 0.930 . S
C398 C393 1.390 . S
C398 C397 1.387 . S
H399 C411 0.930 . S
H400 C413 0.930 . S
H401 C414 0.930 . S
H402 C418 0.959 . S
H403 C418 0.959 . S
H404 C418 0.961 1_455 S
H405 C419 0.960 . S
H406 C419 0.961 1_655 S
H407 C419 0.959 . S
H408 C422 0.929 . S
H409 C423 0.931 . S
H410 C425 0.930 . S
C411 H399 0.930 . S
C411 C412 1.399 . S
C411 C416 1.399 . S
C412 C411 1.399 . S
C412 C413 1.376 . S
C413 H400 0.930 . S
C413 C412 1.376 . S
C413 C414 1.388 . S
C414 H401 0.930 . S
C414 C413 1.388 . S
C414 C415 1.390 . S
C415 C414 1.390 . S
C415 C416 1.394 . S
C415 C421 1.465 1_455 S
C416 C411 1.399 . S
C416 C415 1.394 . S
C416 C417 1.516 1_455 S
C417 C416 1.516 1_655 S
C417 C418 1.502 . S
C417 C419 1.561 1_655 S
C417 C420 1.526 . S
C418 H402 0.959 . S
C418 H403 0.959 . S
C418 H404 0.961 1_655 S
C418 C417 1.502 . S
C419 H405 0.960 . S
C419 H406 0.961 1_455 S
C419 H407 0.959 . S
C419 C417 1.561 1_455 S
C420 C417 1.526 . S
C420 C421 1.396 . S
C420 C425 1.390 . S
C421 C415 1.465 1_655 S
C421 C420 1.396 . S
C421 C422 1.399 . S
C422 H408 0.929 . S
C422 C421 1.399 . S
C422 C423 1.385 . S
C423 H409 0.931 . S
C423 C422 1.385 . S
C423 C424 1.389 . S
C424 C423 1.389 . S
C424 C425 1.387 . S
C425 H410 0.930 . S
C425 C420 1.390 . S
C425 C424 1.387 . S
H426 C438 0.930 . S
H427 C440 0.930 . S
H428 C441 0.930 . S
H429 C445 0.959 . S
H430 C445 0.959 1_545 S
H431 C445 0.961 . S
H432 C446 0.960 1_565 S
H433 C446 0.961 . S
H434 C446 0.959 . S
H435 C449 0.929 . S
H436 C450 0.931 . S
H437 C452 0.930 . S
C438 H426 0.930 . S
C438 C439 1.399 . S
C438 C443 1.399 . S
C439 C438 1.399 . S
C439 C440 1.376 . S
C440 H427 0.930 . S
C440 C439 1.376 . S
C440 C441 1.388 . S
C441 H428 0.930 . S
C441 C440 1.388 . S
C441 C442 1.390 . S
C442 C441 1.390 . S
C442 C443 1.394 . S
C442 C448 1.465 1_565 S
C443 C438 1.399 . S
C443 C442 1.394 . S
C443 C444 1.516 . S
C444 C443 1.516 . S
C444 C445 1.502 . S
C444 C446 1.561 1_565 S
C444 C447 1.526 1_565 S
C445 H429 0.959 . S
C445 H430 0.959 1_565 S
C445 H431 0.961 . S
C445 C444 1.502 . S
C446 H432 0.960 1_545 S
C446 H433 0.961 . S
C446 H434 0.959 . S
C446 C444 1.561 1_545 S
C447 C444 1.526 1_545 S
C447 C448 1.396 . S
C447 C452 1.390 . S
C448 C442 1.465 1_545 S
C448 C447 1.396 . S
C448 C449 1.399 . S
C449 H435 0.929 . S
C449 C448 1.399 . S
C449 C450 1.385 . S
C450 H436 0.931 . S
C450 C449 1.385 . S
C450 C451 1.389 . S
C451 C450 1.389 . S
C451 C452 1.387 . S
C452 H437 0.930 . S
C452 C447 1.390 . S
C452 C451 1.387 . S
H453 C465 0.930 . S
H454 C467 0.930 . S
H455 C468 0.930 . S
H456 C472 0.959 . S
H457 C472 0.959 . S
H458 C472 0.961 . S
H459 C473 0.960 . S
H460 C473 0.961 . S
H461 C473 0.959 . S
H462 C476 0.929 . S
H463 C477 0.931 . S
H464 C479 0.930 . S
C465 H453 0.930 . S
C465 C466 1.399 . S
C465 C470 1.399 . S
C466 C465 1.399 . S
C466 C467 1.376 . S
C467 H454 0.930 . S
C467 C466 1.376 . S
C467 C468 1.388 . S
C468 H455 0.930 . S
C468 C467 1.388 . S
C468 C469 1.390 . S
C469 C468 1.390 . S
C469 C470 1.394 . S
C469 C475 1.465 . S
C470 C465 1.399 . S
C470 C469 1.394 . S
C470 C471 1.516 . S
C471 C470 1.516 . S
C471 C472 1.502 . S
C471 C473 1.561 . S
C471 C474 1.526 . S
C472 H456 0.959 . S
C472 H457 0.959 . S
C472 H458 0.961 . S
C472 C471 1.502 . S
C473 H459 0.960 . S
C473 H460 0.961 . S
C473 H461 0.959 . S
C473 C471 1.561 . S
C474 C471 1.526 . S
C474 C475 1.396 . S
C474 C479 1.390 . S
C475 C469 1.465 . S
C475 C474 1.396 . S
C475 C476 1.399 . S
C476 H462 0.929 . S
C476 C475 1.399 . S
C476 C477 1.385 . S
C477 H463 0.931 . S
C477 C476 1.385 . S
C477 C478 1.389 . S
C478 C477 1.389 . S
C478 C479 1.387 . S
C479 H464 0.930 . S
C479 C474 1.390 . S
C479 C478 1.387 . S
H480 C492 0.930 . S
H481 C494 0.930 . S
H482 C495 0.930 . S
H483 C499 0.959 . S
H484 C499 0.959 . S
H485 C499 0.961 . S
H486 C500 0.960 . S
H487 C500 0.961 1_554 S
H488 C500 0.959 . S
H489 C503 0.929 . S
H490 C504 0.931 . S
H491 C506 0.930 . S
C492 H480 0.930 . S
C492 C493 1.399 . S
C492 C497 1.399 . S
C493 C492 1.399 . S
C493 C494 1.376 . S
C494 H481 0.930 . S
C494 C493 1.376 . S
C494 C495 1.388 . S
C495 H482 0.930 . S
C495 C494 1.388 . S
C495 C496 1.390 . S
C496 C495 1.390 . S
C496 C497 1.394 . S
C496 C502 1.465 1_556 S
C497 C492 1.399 . S
C497 C496 1.394 . S
C497 C498 1.516 1_556 S
C498 C497 1.516 1_554 S
C498 C499 1.502 . S
C498 C500 1.561 1_554 S
C498 C501 1.526 . S
C499 H483 0.959 . S
C499 H484 0.959 . S
C499 H485 0.961 . S
C499 C498 1.502 . S
C500 H486 0.960 . S
C500 H487 0.961 1_556 S
C500 H488 0.959 . S
C500 C498 1.561 1_556 S
C501 C498 1.526 . S
C501 C502 1.396 . S
C501 C506 1.390 . S
C502 C496 1.465 1_554 S
C502 C501 1.396 . S
C502 C503 1.399 . S
C503 H489 0.929 . S
C503 C502 1.399 . S
C503 C504 1.385 . S
C504 H490 0.931 . S
C504 C503 1.385 . S
C504 C505 1.389 . S
C505 C504 1.389 . S
C505 C506 1.387 . S
C506 H491 0.930 . S
C506 C501 1.390 . S
C506 C505 1.387 . S
H507 C519 0.930 . S
H508 C521 0.930 . S
H509 C522 0.930 . S
H510 C526 0.959 . S
H511 C526 0.959 . S
H512 C526 0.961 . S
H513 C527 0.960 . S
H514 C527 0.961 . S
H515 C527 0.959 . S
H516 C530 0.929 . S
H517 C531 0.931 . S
H518 C533 0.930 . S
C519 H507 0.930 . S
C519 C520 1.399 . S
C519 C524 1.399 . S
C520 C519 1.399 . S
C520 C521 1.376 . S
C521 H508 0.930 . S
C521 C520 1.376 . S
C521 C522 1.388 . S
C522 H509 0.930 . S
C522 C521 1.388 . S
C522 C523 1.390 . S
C523 C522 1.390 . S
C523 C524 1.394 . S
C523 C529 1.465 . S
C524 C519 1.399 . S
C524 C523 1.394 . S
C524 C525 1.516 . S
C525 C524 1.516 . S
C525 C526 1.502 . S
C525 C527 1.561 . S
C525 C528 1.526 . S
C526 H510 0.959 . S
C526 H511 0.959 . S
C526 H512 0.961 . S
C526 C525 1.502 . S
C527 H513 0.960 . S
C527 H514 0.961 . S
C527 H515 0.959 . S
C527 C525 1.561 . S
C528 C525 1.526 . S
C528 C529 1.396 . S
C528 C533 1.390 . S
C529 C523 1.465 . S
C529 C528 1.396 . S
C529 C530 1.399 . S
C530 H516 0.929 . S
C530 C529 1.399 . S
C530 C531 1.385 . S
C531 H517 0.931 . S
C531 C530 1.385 . S
C531 C532 1.389 . S
C532 C531 1.389 . S
C532 C533 1.387 . S
C533 H518 0.930 . S
C533 C528 1.390 . S
C533 C532 1.387 . S
H534 C546 0.930 . S
H535 C548 0.930 . S
H536 C549 0.930 . S
H537 C553 0.959 . S
H538 C553 0.959 . S
H539 C553 0.961 . S
H540 C554 0.960 . S
H541 C554 0.961 . S
H542 C554 0.959 . S
H543 C557 0.929 . S
H544 C558 0.931 . S
H545 C560 0.930 . S
C546 H534 0.930 . S
C546 C547 1.399 . S
C546 C551 1.399 . S
C547 C546 1.399 . S
C547 C548 1.376 . S
C548 H535 0.930 . S
C548 C547 1.376 . S
C548 C549 1.388 . S
C549 H536 0.930 . S
C549 C548 1.388 . S
C549 C550 1.390 . S
C550 C549 1.390 . S
C550 C551 1.394 . S
C550 C556 1.465 . S
C551 C546 1.399 . S
C551 C550 1.394 . S
C551 C552 1.516 . S
C552 C551 1.516 . S
C552 C553 1.502 . S
C552 C554 1.561 . S
C552 C555 1.526 . S
C553 H537 0.959 . S
C553 H538 0.959 . S
C553 H539 0.961 . S
C553 C552 1.502 . S
C554 H540 0.960 . S
C554 H541 0.961 . S
C554 H542 0.959 . S
C554 C552 1.561 . S
C555 C552 1.526 . S
C555 C556 1.396 . S
C555 C560 1.390 . S
C556 C550 1.465 . S
C556 C555 1.396 . S
C556 C557 1.399 . S
C557 H543 0.929 . S
C557 C556 1.399 . S
C557 C558 1.385 . S
C558 H544 0.931 . S
C558 C557 1.385 . S
C558 C559 1.389 . S
C559 C558 1.389 . S
C559 C560 1.387 . S
C560 H545 0.930 . S
C560 C555 1.390 . S
C560 C559 1.387 . S
H561 C573 0.930 . S
H562 C575 0.930 . S
H563 C576 0.930 . S
H564 C580 0.959 . S
H565 C580 0.959 . S
H566 C580 0.961 . S
H567 C581 0.960 . S
H568 C581 0.961 . S
H569 C581 0.959 . S
H570 C584 0.929 . S
H571 C585 0.931 . S
H572 C587 0.930 . S
C573 H561 0.930 . S
C573 C574 1.399 . S
C573 C578 1.399 . S
C574 C573 1.399 . S
C574 C575 1.376 . S
C575 H562 0.930 . S
C575 C574 1.376 . S
C575 C576 1.388 . S
C576 H563 0.930 . S
C576 C575 1.388 . S
C576 C577 1.390 . S
C577 C576 1.390 . S
C577 C578 1.394 . S
C577 C583 1.465 1_556 S
C578 C573 1.399 . S
C578 C577 1.394 . S
C578 C579 1.503 1_556 S
C579 C578 1.503 1_554 S
C579 C580 1.514 . S
C579 C581 1.550 1_554 S
C579 C582 1.538 . S
C580 H564 0.959 . S
C580 H565 0.959 . S
C580 H566 0.961 . S
C580 C579 1.514 . S
C581 H567 0.960 . S
C581 H568 0.961 . S
C581 H569 0.959 . S
C581 C579 1.550 1_556 S
C582 C579 1.538 . S
C582 C583 1.396 . S
C582 C587 1.390 . S
C583 C577 1.465 1_554 S
C583 C582 1.396 . S
C583 C584 1.399 . S
C584 H570 0.929 . S
C584 C583 1.399 . S
C584 C585 1.385 . S
C585 H571 0.931 . S
C585 C584 1.385 . S
C585 C586 1.389 . S
C586 C585 1.389 . S
C586 C587 1.387 . S
C587 H572 0.930 . S
C587 C582 1.390 . S
C587 C586 1.387 . S
H588 C600 0.930 . S
H589 C602 0.930 . S
H590 C603 0.930 . S
H591 C607 0.959 . S
H592 C607 0.959 . S
H593 C607 0.961 . S
H594 C608 0.960 . S
H595 C608 0.961 . S
H596 C608 0.959 . S
H597 C611 0.929 . S
H598 C612 0.931 . S
H599 C614 0.930 . S
C600 H588 0.930 . S
C600 C601 1.399 . S
C600 C605 1.399 . S
C601 C600 1.399 . S
C601 C602 1.376 . S
C602 H589 0.930 . S
C602 C601 1.376 . S
C602 C603 1.388 . S
C603 H590 0.930 . S
C603 C602 1.388 . S
C603 C604 1.390 . S
C604 C603 1.390 . S
C604 C605 1.394 . S
C604 C610 1.465 . S
C605 C600 1.399 . S
C605 C604 1.394 . S
C605 C606 1.516 . S
C606 C605 1.516 . S
C606 C607 1.502 . S
C606 C608 1.561 . S
C606 C609 1.526 . S
C607 H591 0.959 . S
C607 H592 0.959 . S
C607 H593 0.961 . S
C607 C606 1.502 . S
C608 H594 0.960 . S
C608 H595 0.961 . S
C608 H596 0.959 . S
C608 C606 1.561 . S
C609 C606 1.526 . S
C609 C610 1.396 . S
C609 C614 1.390 . S
C610 C604 1.465 . S
C610 C609 1.396 . S
C610 C611 1.399 . S
C611 H597 0.929 . S
C611 C610 1.399 . S
C611 C612 1.385 . S
C612 H598 0.931 . S
C612 C611 1.385 . S
C612 C613 1.389 . S
C613 C612 1.389 . S
C613 C614 1.387 . S
C614 H599 0.930 . S
C614 C609 1.390 . S
C614 C613 1.387 . S
H615 C627 0.930 . S
H616 C629 0.930 . S
H617 C630 0.930 . S
H618 C634 0.959 . S
H619 C634 0.959 . S
H620 C634 0.961 . S
H621 C635 0.960 . S
H622 C635 0.961 . S
H623 C635 0.959 . S
H624 C638 0.929 . S
H625 C639 0.931 . S
H626 C641 0.930 . S
C627 H615 0.930 . S
C627 C628 1.399 . S
C627 C632 1.399 . S
C628 C627 1.399 . S
C628 C629 1.376 . S
C629 H616 0.930 . S
C629 C628 1.376 . S
C629 C630 1.388 . S
C630 H617 0.930 . S
C630 C629 1.388 . S
C630 C631 1.390 . S
C631 C630 1.390 . S
C631 C632 1.394 . S
C631 C637 1.465 . S
C632 C627 1.399 . S
C632 C631 1.394 . S
C632 C633 1.516 . S
C633 C632 1.516 . S
C633 C634 1.502 . S
C633 C635 1.561 . S
C633 C636 1.526 . S
C634 H618 0.959 . S
C634 H619 0.959 . S
C634 H620 0.961 . S
C634 C633 1.502 . S
C635 H621 0.960 . S
C635 H622 0.961 . S
C635 H623 0.959 . S
C635 C633 1.561 . S
C636 C633 1.526 . S
C636 C637 1.396 . S
C636 C641 1.390 . S
C637 C631 1.465 . S
C637 C636 1.396 . S
C637 C638 1.399 . S
C638 H624 0.929 . S
C638 C637 1.399 . S
C638 C639 1.385 . S
C639 H625 0.931 . S
C639 C638 1.385 . S
C639 C640 1.389 . S
C640 C639 1.389 . S
C640 C641 1.387 . S
C641 H626 0.930 . S
C641 C636 1.390 . S
C641 C640 1.387 . S
C331 C22 1.660 . S
C343 C181 1.633 . S
C358 C75 1.662 . S
C370 C234 1.631 . S
C385 C128 1.635 . S
C397 C287 1.662 . S
C412 C82 1.659 . S
C424 C241 1.641 . S
C439 C294 1.643 . S
C451 C135 1.664 . S
C466 C188 1.643 . S
C478 C29 1.664 . S
C493 C144 2.302 . S
C505 C39 2.317 . S
C520 C197 2.281 . S
C532 C92 2.315 . S
C547 C145 2.321 . S
C559 C250 2.294 . S
C574 C303 2.306 . S
C586 C198 2.314 . S
C601 C251 2.315 . S
C613 C38 2.305 . S
C628 C304 2.268 . S
C640 C91 2.332 . S
