# Generated by pormake.
# Topology oof, (8)-cn, num edge types: 1
# Building blocks:
#     Node 0, Type 0, BuildingBlock: LIZSOE_clean_sbu_0, # of connection points: 8
#     Node 1, Type 0, BuildingBlock: LIZSOE_clean_sbu_0, # of connection points: 8
#     Node 2, Type 0, BuildingBlock: LIZSOE_clean_sbu_0, # of connection points: 8
#     Node 3, Type 0, BuildingBlock: LIZSOE_clean_sbu_0, # of connection points: 8
#     Edge 4, Type (0, 0), BuildingBlock: FUNLAD_clean_linker_0, # of connection points: 2
#     Edge 5, Type (0, 0), BuildingBlock: FUNLAD_clean_linker_0, # of connection points: 2
#     Edge 6, Type (0, 0), BuildingBlock: FUNLAD_clean_linker_0, # of connection points: 2
#     Edge 7, Type (0, 0), BuildingBlock: FUNLAD_clean_linker_0, # of connection points: 2
#     Edge 8, Type (0, 0), BuildingBlock: FUNLAD_clean_linker_0, # of connection points: 2
#     Edge 9, Type (0, 0), BuildingBlock: FUNLAD_clean_linker_0, # of connection points: 2
#     Edge 10, Type (0, 0), BuildingBlock: FUNLAD_clean_linker_0, # of connection points: 2
#     Edge 11, Type (0, 0), BuildingBlock: FUNLAD_clean_linker_0, # of connection points: 2
#     Edge 12, Type (0, 0), BuildingBlock: FUNLAD_clean_linker_0, # of connection points: 2
#     Edge 13, Type (0, 0), BuildingBlock: FUNLAD_clean_linker_0, # of connection points: 2
#     Edge 14, Type (0, 0), BuildingBlock: FUNLAD_clean_linker_0, # of connection points: 2
#     Edge 15, Type (0, 0), BuildingBlock: FUNLAD_clean_linker_0, # of connection points: 2
#     Edge 16, Type (0, 0), BuildingBlock: FUNLAD_clean_linker_0, # of connection points: 2
#     Edge 17, Type (0, 0), BuildingBlock: FUNLAD_clean_linker_0, # of connection points: 2
#     Edge 18, Type (0, 0), BuildingBlock: FUNLAD_clean_linker_0, # of connection points: 2
#     Edge 19, Type (0, 0), BuildingBlock: FUNLAD_clean_linker_0, # of connection points: 2
# Relax obj value: 0.080
# Max RMSD: 0.205
# Mean RMSD: 0.202
data_MOF--net-oof--node1-LIZSOE_clean_sbu_0--edge1-FUNLAD_clean_linker_0
_symmetry_space_group_name_H-M    P1
_symmetry_Int_Tables_number       1
_symmetry_cell_setting            triclinic
loop_
_symmetry_equiv_pos_as_xyz
'x, y, z'
_cell_length_a     17.866592
_cell_length_b     49.705904
_cell_length_c     25.757935
_cell_angle_alpha  88.034218
_cell_angle_beta   115.10562
_cell_angle_gamma 90.045367
loop_
_atom_site_label
_atom_site_type_symbol
_atom_site_fract_x
_atom_site_fract_y
_atom_site_fract_z
_atom_type_partial_charge
Co0 Co 0.0631 0.1755 0.15757 0.0
N1 N 0.11249 0.17789 0.10769 0.0
C2 C 0.19261 0.17873 0.11669 0.0
N3 N 0.11926 0.18053 0.02279 0.0
C4 C 0.06935 0.17911 0.05025 0.0
C5 C 0.19681 0.18043 0.06458 0.0
Co6 Co 0.01856 0.13211 0.38232 0.0
N7 N 0.97828 0.13621 0.43866 0.0
N8 N 0.96334 0.14125 0.52007 0.0
C9 C 0.90362 0.12502 0.48648 0.0
C10 C 0.91273 0.12202 0.43684 0.0
C11 C 0.00818 0.14786 0.49041 0.0
Co12 Co 0.03954 0.15055 0.26919 0.0
C13 C 0.08969 0.12042 0.3917 0.0
H14 H 0.87671 0.10873 0.40314 0.0
O15 O 0.01254 0.17623 0.2013 0.0
O16 O 0.06647 0.18232 0.31776 0.0
O17 O 0.1606 0.1478 0.28871 0.0
O18 O 0.01951 0.11904 0.217 0.0
O19 O 0.05913 0.13808 0.15235 0.0
O20 O 1.00088 0.1703 0.36918 0.0
O21 O 0.06101 0.12413 0.33489 0.0
O22 O 0.91205 0.12725 0.32609 0.0
O23 O 0.1673 0.17301 0.2185 0.0
O24 O 0.06299 0.21036 0.16736 0.0
O25 O 0.91739 0.15188 0.25255 0.0
O26 O 0.12488 0.13913 0.42789 0.0
C27 C 0.20194 0.16055 0.26639 0.0
C28 C 0.08761 0.16303 0.51511 0.0
H29 H 0.09518 0.17563 0.4815 0.0
H30 H 0.09039 0.17614 0.54976 0.0
H31 H 0.14002 0.1484 0.53351 0.0
C32 C 0.03687 0.18807 0.35249 0.0
C33 C 0.03894 0.11755 0.17433 0.0
H34 H 0.24495 0.178 0.15812 0.0
H35 H 0.9532 0.1594 1.01241 0.0
H36 H 0.95406 0.19237 0.98105 0.0
H37 H 0.95245 0.18869 0.05102 0.0
C38 C 0.97678 0.18016 0.02183 0.0
C39 C 0.0193 0.20226 0.19435 0.0
C40 C 0.87711 0.13883 0.27647 0.0
H41 H 0.25263 0.18096 0.05783 0.0
H42 H 0.85936 0.11486 0.49851 0.0
Co43 Co 0.02778 0.90989 0.64995 0.0
N44 N 0.0576 0.8989 0.59371 0.0
C45 C 0.09307 0.87557 0.58962 0.0
N46 N 0.05384 0.89727 0.50589 0.0
C47 C 0.03486 0.91176 0.54227 0.0
C48 C 0.09125 0.87463 0.53584 0.0
Co49 Co 0.96215 0.87511 0.87097 0.0
N50 N 0.91024 0.87689 0.91995 0.0
N51 N 0.88516 0.87975 0.99788 0.0
C52 C 0.82028 0.86792 0.95705 0.0
C53 C 0.8359 0.86611 0.90935 0.0
C54 C 0.93853 0.8853 0.97446 0.0
Co55 Co 0.00731 0.8984 0.7667 0.0
C56 C 0.07902 0.86833 0.88233 0.0
H57 H 0.7972 0.85623 0.87042 0.0
O58 O 0.99948 0.92418 0.70173 0.0
O59 O 0.03142 0.92995 0.81835 0.0
O60 O 0.12846 0.89344 0.78949 0.0
O61 O 0.97514 0.86602 0.71529 0.0
O62 O 0.94804 0.88422 0.62896 0.0
O63 O 0.97392 0.9128 0.87352 0.0
O64 O 0.01905 0.87196 0.83066 0.0
O65 O 0.86162 0.8793 0.80857 0.0
O66 O 0.10943 0.88497 0.7016 0.0
O67 O 0.10137 0.93471 0.67454 0.0
O68 O 0.88388 0.90421 0.7427 0.0
O69 O 0.062 0.87084 0.92609 0.0
C70 C 0.15556 0.88489 0.75478 0.0
C71 C 0.02068 0.89837 1.0066 0.0
H72 H 0.03886 0.91108 0.97797 0.0
H73 H 0.01885 0.9111 0.04062 0.0
H74 H 0.0689 0.88252 0.0274 0.0
C75 C 1.00342 0.93258 0.85621 0.0
C76 C 0.94022 0.86533 0.66035 0.0
H77 H 0.11445 0.85948 0.62209 0.0
H78 H 0.93003 0.93739 0.52443 0.0
H79 H 0.99401 0.94842 0.48893 0.0
H80 H 0.02814 0.95236 0.5647 0.0
C81 C 0.99432 0.93908 0.52873 0.0
C82 C 0.05353 0.94158 0.69854 0.0
C83 C 0.83534 0.89271 0.76144 0.0
H84 H 0.11098 0.85783 0.51876 0.0
H85 H 0.76814 0.85956 0.96271 0.0
Co86 Co 0.47935 0.65407 0.13207 0.0
N87 N 0.49982 0.64548 0.06929 0.0
C88 C 0.45579 0.62704 0.03132 0.0
N89 N 0.54433 0.64328 0.99996 0.0
C90 C 0.5535 0.65524 0.04875 0.0
C91 C 0.48339 0.62547 0.9893 0.0
Co92 Co 0.52072 0.63665 0.39741 0.0
N93 N 0.50491 0.64649 0.46205 0.0
N94 N 0.51448 0.66089 0.54632 0.0
C95 C 0.44456 0.64689 0.52185 0.0
C96 C 0.43931 0.63789 0.47077 0.0
C97 C 0.55055 0.66036 0.50954 0.0
Co98 Co 0.50176 0.64602 0.26636 0.0
C99 C 0.58096 0.62045 0.3982 0.0
H100 H 0.39164 0.62501 0.44267 0.0
O101 O 0.45836 0.66542 0.18857 0.0
O102 O 0.52997 0.68238 0.29989 0.0
O103 O 0.61595 0.64321 0.2725 0.0
O104 O 0.47629 0.60943 0.23069 0.0
O105 O 0.45283 0.61879 0.13953 0.0
O106 O 0.52174 0.67351 0.38109 0.0
O107 O 0.53978 0.62477 0.34173 0.0
O108 O 0.40614 0.63642 0.35236 0.0
O109 O 0.59019 0.6457 0.1802 0.0
O110 O 0.50383 0.68812 0.13103 0.0
O111 O 0.38719 0.64816 0.26224 0.0
O112 O 0.63165 0.63768 0.43204 0.0
C113 C 0.63971 0.64224 0.23258 0.0
C114 C 0.63201 0.67309 0.52087 0.0
H115 H 0.63371 0.681 0.48077 0.0
H116 H 0.64452 0.68978 0.55082 0.0
H117 H 0.68191 0.65766 0.54063 0.0
C118 C 0.52981 0.69015 0.34607 0.0
C119 C 0.45598 0.60242 0.1791 0.0
H120 H 0.40524 0.61572 0.03322 0.0
H121 H 0.5852 0.69679 0.06084 0.0
H122 H 0.66862 0.67517 0.06508 0.0
H123 H 0.63896 0.67565 0.1236 0.0
C124 C 0.61542 0.67678 0.07638 0.0
C125 C 0.4771 0.68848 0.17072 0.0
C126 C 0.35957 0.64192 0.2996 0.0
H127 H 0.45836 0.61296 0.95232 0.0
H128 H 0.40219 0.64244 0.54097 0.0
Co129 Co 0.49883 0.40915 0.65746 0.0
N130 N 0.52014 0.39641 0.59873 0.0
C131 C 0.54346 0.37138 0.59237 0.0
N132 N 0.51847 0.39418 0.51158 0.0
C133 C 0.50548 0.40989 0.54893 0.0
C134 C 0.54309 0.37005 0.53906 0.0
Co135 Co 0.44471 0.37658 0.8815 0.0
N136 N 0.39125 0.37848 0.92925 0.0
N137 N 0.35994 0.38228 1.00433 0.0
C138 C 0.30431 0.36616 0.96664 0.0
C139 C 0.32327 0.36402 0.92056 0.0
C140 C 0.41219 0.38958 0.98091 0.0
Co141 Co 0.48947 0.39938 0.7774 0.0
C142 C 0.56242 0.37041 0.89429 0.0
H143 H 0.29245 0.35128 0.88458 0.0
O144 O 0.4794 0.42497 0.71151 0.0
O145 O 0.51611 0.43091 0.82897 0.0
O146 O 0.60937 0.39401 0.79679 0.0
O147 O 0.45535 0.36669 0.72745 0.0
O148 O 0.41334 0.38511 0.63995 0.0
O149 O 0.45312 0.41455 0.88156 0.0
O150 O 0.50297 0.3733 0.84224 0.0
O151 O 0.34414 0.3792 0.81848 0.0
O152 O 0.5804 0.38333 0.70812 0.0
O153 O 0.57707 0.43255 0.67864 0.0
O154 O 0.36671 0.40572 0.75514 0.0
O155 O 0.54431 0.3736 0.93747 0.0
C156 C 0.63175 0.38462 0.76024 0.0
C157 C 0.49007 0.40498 1.01267 0.0
H158 H 0.51987 0.41214 0.98516 0.0
H159 H 0.4764 0.42275 0.03221 0.0
H160 H 0.53451 0.39186 0.04803 0.0
C161 C 0.48502 0.43395 0.86501 0.0
C162 C 0.40979 0.36649 0.67348 0.0
H163 H 0.5563 0.35476 0.62331 0.0
H164 H 0.41304 0.4406 0.5309 0.0
H165 H 0.48534 0.44779 0.49993 0.0
H166 H 0.51612 0.4507 0.57548 0.0
C167 C 0.47852 0.43891 0.53773 0.0
C168 C 0.53463 0.44094 0.70546 0.0
C169 C 0.31791 0.39334 0.77234 0.0
H170 H 0.55563 0.3523 0.52065 0.0
H171 H 0.25687 0.35525 0.97385 0.0
C172 C 0.03951 0.16249 0.92714 0.0
C173 C 0.09727 0.18071 0.96227 0.0
C174 C 0.02176 0.16165 0.869 0.0
C175 C 0.06273 0.17874 0.84506 0.0
C176 C 0.11916 0.19736 0.88003 0.0
C177 C 0.13683 0.19817 0.93825 0.0
C178 C 0.04816 0.17752 0.78401 0.0
C179 C 0.02621 0.15468 0.7549 0.0
C180 C 0.01324 0.15231 0.69438 0.0
C181 C 0.01453 0.12646 0.67439 0.0
C182 C 0.99968 0.12299 0.61739 0.0
C183 C 0.98328 0.14529 0.57926 0.0
H184 H 0.99231 0.1949 0.66888 0.0
C185 C 0.98164 0.17116 0.59865 0.0
C186 C 0.99642 0.17472 0.65581 0.0
H187 H 0.96716 0.18848 0.56918 0.0
H188 H 0.00957 0.14842 0.94491 0.0
H189 H 0.97601 0.14757 0.84312 0.0
H190 H 0.15102 0.21089 0.86259 0.0
H191 H 0.18164 0.21237 0.96472 0.0
H192 H 0.06124 0.19542 0.76417 0.0
H193 H 0.02108 0.13629 0.77712 0.0
H194 H 0.02669 0.10884 0.7029 0.0
H195 H 1.00049 0.10286 0.60276 0.0
C196 C 0.08357 0.89678 0.42132 0.0
C197 C 0.02814 0.90181 0.44541 0.0
C198 C 0.05678 0.89824 0.36197 0.0
C199 C 0.97359 0.90447 0.32567 0.0
C200 C 0.91892 0.91054 0.34987 0.0
C201 C 0.94568 0.90886 0.4093 0.0
C202 C 0.94219 0.90397 0.26256 0.0
C203 C 0.9696 0.88543 0.23764 0.0
C204 C 0.94278 0.88377 0.17495 0.0
C205 C 0.99148 0.86816 0.15634 0.0
C206 C 0.97136 0.86648 0.09816 0.0
C207 C 0.90208 0.88036 0.05734 0.0
H208 H 0.83047 0.90845 0.14593 0.0
C209 C 0.85104 0.8951 0.07516 0.0
C210 C 0.87121 0.89689 0.13368 0.0
H211 H 0.79675 0.90561 0.04382 0.0
H212 H 0.14733 0.89133 0.44858 0.0
H213 H 0.10106 0.89426 0.34458 0.0
H214 H 0.85467 0.91545 0.3227 0.0
H215 H 0.90129 0.9121 0.4269 0.0
H216 H 0.89414 0.91842 0.23703 0.0
H217 H 0.01601 0.87077 0.26485 0.0
H218 H 0.04618 0.85754 0.18699 0.0
H219 H 0.01024 0.8545 0.08482 0.0
C220 C 0.58433 0.67599 0.94235 0.0
C221 C 0.58297 0.64943 0.96222 0.0
C222 C 0.60944 0.68132 0.89853 0.0
C223 C 0.63229 0.66004 0.87323 0.0
C224 C 0.63606 0.63372 0.89594 0.0
C225 C 0.61096 0.62844 0.93967 0.0
C226 C 0.6442 0.66383 0.81977 0.0
C227 C 0.60474 0.68341 0.77986 0.0
C228 C 0.5914 0.68167 0.71914 0.0
C229 C 0.5171 0.69216 0.67628 0.0
C230 C 0.49408 0.68657 0.61888 0.0
C231 C 0.54571 0.6709 0.60315 0.0
H232 H 0.7048 0.65985 0.73457 0.0
C233 C 0.62294 0.66213 0.64522 0.0
C234 C 0.64593 0.66757 0.70286 0.0
H235 H 0.66322 0.64974 0.63395 0.0
H236 H 0.56185 0.69245 0.95852 0.0
H237 H 0.6081 0.70197 0.88342 0.0
H238 H 0.65393 0.61696 0.8776 0.0
H239 H 0.61037 0.60783 0.95453 0.0
H240 H 0.67441 0.64742 0.80893 0.0
H241 H 0.56861 0.69857 0.78886 0.0
H242 H 0.4742 0.70324 0.68752 0.0
H243 H 0.43424 0.69345 0.58686 0.0
C244 C 0.37677 0.40897 0.08719 0.0
C245 C 0.37538 0.38396 0.06337 0.0
C246 C 0.39999 0.41059 0.14608 0.0
C247 C 0.42188 0.38708 0.18174 0.0
C248 C 0.41901 0.36209 0.15731 0.0
C249 C 0.39543 0.36052 0.09857 0.0
C250 C 0.45154 0.38776 0.24475 0.0
C251 C 0.43094 0.40727 0.27138 0.0
C252 C 0.4575 0.40589 0.33418 0.0
C253 C 0.40297 0.41478 0.35642 0.0
C254 C 0.42355 0.41146 0.41496 0.0
C255 C 0.49999 0.39986 0.45235 0.0
H256 H 0.57928 0.38853 0.35617 0.0
C257 C 0.55574 0.39183 0.43043 0.0
C258 C 0.53498 0.39493 0.37188 0.0
H259 H 0.61495 0.38286 0.45869 0.0
H260 H 0.36149 0.42722 0.06032 0.0
H261 H 0.40319 0.43027 0.16355 0.0
H262 H 0.43589 0.34372 0.18384 0.0
H263 H 0.39539 0.34111 0.0807 0.0
H264 H 0.48785 0.37051 0.26992 0.0
H265 H 0.38778 0.4232 0.24649 0.0
H266 H 0.34298 0.42328 0.32817 0.0
H267 H 0.37866 0.41711 0.43072 0.0
C268 C 0.74388 0.11921 0.2642 0.0
C269 C 0.78647 0.14067 0.25268 0.0
C270 C 0.66465 0.12315 0.26059 0.0
C271 C 0.62673 0.14874 0.24576 0.0
C272 C 0.66557 0.1694 0.22806 0.0
C273 C 0.74526 0.16543 0.23164 0.0
C274 C 0.54895 0.15474 0.25095 0.0
C275 C 0.52845 0.14217 0.29036 0.0
C276 C 0.45103 0.14843 0.29573 0.0
C277 C 0.40981 0.12772 0.3111 0.0
C278 C 0.33054 0.13224 0.30783 0.0
C279 C 0.2923 0.15763 0.28964 0.0
H280 H 0.44792 0.19117 0.27432 0.0
C281 C 0.33743 0.179 0.28064 0.0
C282 C 0.41609 0.17447 0.28365 0.0
H283 H 0.30937 0.19885 0.26713 0.0
H284 H 0.77423 0.09981 0.27996 0.0
H285 H 0.63484 0.10638 0.27165 0.0
H286 H 0.63666 0.18915 0.21524 0.0
H287 H 0.77704 0.18233 0.22286 0.0
H288 H 0.50944 0.17077 0.22309 0.0
H289 H 0.56766 0.12612 0.31828 0.0
H290 H 0.43648 0.1076 0.32179 0.0
H291 H 0.29676 0.11542 0.31468 0.0
C292 C 0.71362 0.92187 0.74291 0.0
C293 C 0.74534 0.89741 0.73448 0.0
C294 C 0.63475 0.92306 0.74229 0.0
C295 C 0.58673 0.89977 0.73392 0.0
C296 C 0.61544 0.87602 0.7196 0.0
C297 C 0.69413 0.87485 0.72037 0.0
C298 C 0.50929 0.90067 0.74282 0.0
C299 C 0.47696 0.87873 0.75781 0.0
C300 C 0.39932 0.87936 0.76607 0.0
C301 C 0.34736 0.85699 0.75049 0.0
C302 C 0.27014 0.85774 0.75213 0.0
C303 C 0.24446 0.88051 0.77137 0.0
H304 H 0.41523 0.9189 0.80229 0.0
C305 C 0.29896 0.90208 0.79133 0.0
C306 C 0.37563 0.90161 0.78839 0.0
H307 H 0.27969 0.92015 0.80501 0.0
H308 H 0.75272 0.93935 0.75555 0.0
H309 H 0.61378 0.94177 0.75243 0.0
H310 H 0.57911 0.85793 0.71017 0.0
H311 H 0.71775 0.85563 0.71466 0.0
H312 H 0.47976 0.92021 0.73883 0.0
H313 H 0.50606 0.85913 0.76201 0.0
H314 H 0.36444 0.83946 0.7338 0.0
H315 H 0.22844 0.84113 0.73528 0.0
C316 C 0.78887 0.6422 0.30185 0.0
C317 C 0.72763 0.63801 0.24652 0.0
C318 C 0.87224 0.64032 0.31289 0.0
C319 C 0.8954 0.63435 0.26881 0.0
C320 C 0.83404 0.62883 0.21424 0.0
C321 C 0.75102 0.63074 0.2032 0.0
C322 C 0.98392 0.63371 0.28117 0.0
C323 C 0.01152 0.6387 0.24063 0.0
C324 C 0.10042 0.63834 0.25391 0.0
C325 C 0.15675 0.62211 0.29937 0.0
C326 C 0.24069 0.6232 0.31333 0.0
C327 C 0.27012 0.64018 0.28169 0.0
H328 H 0.08661 0.66671 0.18458 0.0
C329 C 0.21375 0.65533 0.23424 0.0
C330 C 0.12924 0.6544 0.22047 0.0
H331 H 0.23505 0.66837 0.20886 0.0
H332 H 0.77249 0.64765 0.33612 0.0
H333 H 0.91868 0.64421 0.35556 0.0
H334 H 0.84966 0.62296 0.17993 0.0
H335 H 0.70511 0.62669 0.16045 0.0
H336 H 0.02765 0.63058 0.32574 0.0
H337 H 0.96849 0.64475 0.19722 0.0
H338 H 0.13644 0.60845 0.32427 0.0
H339 H 0.28261 0.61058 0.34894 0.0
C340 C 0.77677 0.40097 0.79688 0.0
C341 C 0.71969 0.38039 0.7729 0.0
C342 C 0.85328 0.40064 0.79363 0.0
C343 C 0.87432 0.37946 0.76709 0.0
C344 C 0.8194 0.35803 0.74686 0.0
C345 C 0.74238 0.35871 0.74879 0.0
C346 C 0.95279 0.37884 0.75989 0.0
C347 C 0.98877 0.40104 0.74939 0.0
C348 C 0.06756 0.4003 0.74212 0.0
C349 C 0.11654 0.42346 0.75298 0.0
C350 C 0.1962 0.42238 0.75494 0.0
C351 C 0.22793 0.39815 0.74551 0.0
H352 H 0.05989 0.35887 0.71563 0.0
C353 C 0.17624 0.37575 0.72926 0.0
C354 C 0.09665 0.37684 0.72698 0.0
H355 H 0.19983 0.35671 0.72265 0.0
H356 H 0.76005 0.4182 0.81459 0.0
H357 H 0.89515 0.41712 0.81106 0.0
H358 H 0.83441 0.34132 0.72686 0.0
H359 H 0.69894 0.34284 0.72914 0.0
H360 H 0.97949 0.3591 0.7613 0.0
H361 H 0.96117 0.42068 0.74804 0.0
H362 H 0.09545 0.44197 0.76384 0.0
H363 H 0.23562 0.43971 0.76914 0.0
C364 C 0.28436 0.3475 0.59751 0.0
C365 C 0.35885 0.34311 0.64667 0.0
C366 C 0.2416 0.32602 0.5649 0.0
C367 C 0.27288 0.29958 0.58046 0.0
C368 C 0.34581 0.29507 0.63094 0.0
C369 C 0.38804 0.31664 0.66427 0.0
C370 C 0.23579 0.27705 0.5415 0.0
C371 C 0.15528 0.27639 0.5044 0.0
C372 C 0.12202 0.25513 0.46179 0.0
C373 C 0.04459 0.24406 0.45044 0.0
C374 C 0.01438 0.22306 0.41242 0.0
C375 C 0.06013 0.21333 0.38386 0.0
H376 H 0.22495 0.25494 0.43818 0.0
C377 C 0.1351 0.22568 0.39247 0.0
C378 C 0.16612 0.2462 0.43145 0.0
H379 H 0.17197 0.21856 0.37132 0.0
H380 H 0.26073 0.36777 0.58296 0.0
H381 H 0.18677 0.33044 0.52577 0.0
H382 H 0.37151 0.2749 0.64365 0.0
H383 H 0.44583 0.31279 0.70164 0.0
H384 H 0.2766 0.26052 0.54301 0.0
H385 H 0.11201 0.29124 0.50626 0.0
H386 H 0.00897 0.25092 0.4727 0.0
H387 H 0.95655 0.21386 0.40673 0.0
C388 C 0.7062 0.3581 0.95936 0.0
C389 C 0.63611 0.35307 0.90842 0.0
C390 C 0.75583 0.33684 0.99382 0.0
C391 C 0.73677 0.31003 0.97774 0.0
C392 C 0.67448 0.30544 0.92271 0.0
C393 C 0.62446 0.32679 0.88828 0.0
C394 C 0.77745 0.28656 1.01804 0.0
C395 C 0.80941 0.2878 0.07595 0.0
C396 C 0.85103 0.26447 0.11608 0.0
C397 C 0.91959 0.2691 0.16808 0.0
C398 C 0.96924 0.24757 0.2016 0.0
C399 C 0.95016 0.22095 0.18437 0.0
H400 H 0.77187 0.23342 0.06413 0.0
C401 C 0.87483 0.21619 0.13705 0.0
C402 C 0.82626 0.23775 0.10268 0.0
H403 H 0.859 0.19594 0.12212 0.0
H404 H 0.71671 0.37817 0.97602 0.0
H405 H 0.80608 0.34143 0.0344 0.0
H406 H 0.65979 0.28508 0.90834 0.0
H407 H 0.57056 0.32216 0.84959 0.0
H408 H 0.77797 0.26739 0.99915 0.0
H409 H 0.80926 0.30687 0.0952 0.0
H410 H 0.93906 0.28949 0.18022 0.0
H411 H 0.02752 0.2519 0.23721 0.0
C412 C 0.54197 0.7266 0.41314 0.0
C413 C 0.55571 0.71759 0.36661 0.0
C414 C 0.58518 0.74841 0.44433 0.0
C415 C 0.64262 0.76192 0.42929 0.0
C416 C 0.64991 0.75472 0.37924 0.0
C417 C 0.60713 0.73264 0.34824 0.0
C418 C 0.69741 0.78297 0.4656 0.0
C419 C 0.7243 0.78305 0.52331 0.0
C420 C 0.78463 0.80281 0.56044 0.0
C421 C 0.78872 0.80772 0.61518 0.0
C422 C 0.84263 0.82705 0.6499 0.0
C423 C 0.89333 0.84171 0.63029 0.0
H424 H 0.84176 0.81242 0.50255 0.0
C425 C 0.89232 0.83571 0.57703 0.0
C426 C 0.83933 0.81643 0.5428 0.0
H427 H 0.93173 0.84636 0.5611 0.0
H428 H 0.50143 0.71573 0.42774 0.0
H429 H 0.57496 0.75414 0.48099 0.0
H430 H 0.6925 0.76519 0.366 0.0
H431 H 0.61884 0.72629 0.3125 0.0
H432 H 0.71938 0.79793 0.44393 0.0
H433 H 0.70195 0.76801 0.54467 0.0
H434 H 0.7484 0.79716 0.63041 0.0
H435 H 0.84192 0.83134 0.69064 0.0
C436 C 0.47251 0.73811 0.16501 0.0
C437 C 0.43377 0.71401 0.16943 0.0
C438 C 0.42629 0.75986 0.12998 0.0
C439 C 0.33993 0.75807 0.09914 0.0
C440 C 0.30065 0.73568 0.11114 0.0
C441 C 0.34704 0.71389 0.14611 0.0
C442 C 0.28921 0.77774 0.05156 0.0
C443 C 0.32015 0.79576 0.02533 0.0
C444 C 0.26597 0.81391 0.97626 0.0
C445 C 0.28595 0.84118 0.97473 0.0
C446 C 0.22872 0.8595 0.93501 0.0
C447 C 0.15147 0.85074 0.89508 0.0
H448 H 0.17711 0.78362 0.93094 0.0
C449 C 0.13695 0.82291 0.89138 0.0
C450 C 0.19299 0.80469 0.93214 0.0
H451 H 0.07736 0.81556 0.86194 0.0
H452 H 0.53936 0.73883 0.18257 0.0
H453 H 0.45932 0.77718 0.12466 0.0
H454 H 0.23407 0.73394 0.08946 0.0
H455 H 0.31508 0.69563 0.1482 0.0
H456 H 0.22241 0.77638 0.03535 0.0
H457 H 0.38632 0.7983 0.04105 0.0
H458 H 0.34258 0.84875 1.00749 0.0
H459 H 0.24095 0.88084 0.93982 0.0
C460 C 0.09259 0.08858 0.12063 0.0
C461 C 0.03865 0.09171 0.14711 0.0
C462 C 0.0865 0.06667 0.08679 0.0
C463 C 0.02544 0.04726 0.07779 0.0
C464 C 0.97458 0.04949 0.10703 0.0
C465 C 0.98104 0.07153 0.14144 0.0
C466 C 0.01338 1.02457 0.03854 0.0
C467 C 0.03893 1.02483 0.99587 0.0
C468 C 0.02545 1.00227 0.95617 0.0
C469 C 0.07786 0.99913 0.92837 0.0
C470 C 0.06898 0.97729 0.893 0.0
C471 C 0.00717 0.9583 0.88473 0.0
H472 H 0.91635 0.98637 0.96281 0.0
C473 C 0.95187 0.96245 0.90978 0.0
C474 C 0.96064 0.9841 0.9448 0.0
H475 H 0.90235 0.94849 0.90337 0.0
H476 H 0.13895 0.10353 0.12511 0.0
H477 H 0.12974 0.06525 0.0677 0.0
H478 H 0.92786 0.03458 0.10176 0.0
H479 H 0.9387 0.07339 0.16127 0.0
H480 H 0.9807 1.00725 0.04479 0.0
H481 H 0.07192 0.04203 0.98956 0.0
H482 H 0.12744 1.01314 0.93547 0.0
H483 H 0.11241 0.97467 0.87428 0.0
C484 C 0.14349 0.08848 0.47792 0.0
C485 C 0.09022 0.09296 0.41936 0.0
C486 C 0.12597 0.06914 0.5118 0.0
C487 C 0.05455 0.05346 0.48821 0.0
C488 C 0.00619 0.05582 0.42844 0.0
C489 C 0.02378 0.07534 0.39432 0.0
C490 C 0.03012 0.03435 0.52466 0.0
C491 C 0.05354 0.03703 0.58172 0.0
C492 C 0.03863 1.01629 0.61973 0.0
C493 C 0.09968 1.01168 0.67597 0.0
C494 C 0.09684 0.98891 0.70879 0.0
C495 C 0.03202 0.97054 0.68645 0.0
H496 H 0.91848 1.00352 0.55828 0.0
C497 C 0.96433 0.97762 0.63417 0.0
C498 C 0.96821 1.00001 0.60055 0.0
H499 H 0.91393 0.96373 0.61529 0.0
H500 H 0.19606 0.10132 0.49884 0.0
H501 H 0.1678 0.06707 0.5568 0.0
H502 H 0.95198 0.04353 0.40853 0.0
H503 H 0.98125 0.07812 0.34956 0.0
H504 H 0.99209 1.01743 0.50365 0.0
H505 H 0.09129 0.05395 0.60285 0.0
H506 H 0.15379 1.02425 0.69255 0.0
H507 H 0.15043 0.9839 0.74842 0.0
C508 C 0.52674 0.56151 0.17119 0.0
C509 C 0.45251 0.57403 0.16443 0.0
C510 C 0.52618 0.54087 0.13536 0.0
C511 C 0.45108 0.53224 0.09249 0.0
C512 C 0.37666 0.54284 0.08996 0.0
C513 C 0.37736 0.56389 0.12493 0.0
C514 C 0.44791 0.51339 0.04794 0.0
C515 C 0.50396 0.51332 0.02541 0.0
C516 C 0.49689 0.49609 0.97718 0.0
C517 C 0.5685 0.48882 0.97058 0.0
C518 C 0.56445 0.47053 0.92908 0.0
C519 C 0.48844 0.4595 0.89319 0.0
H520 H 0.363 0.49268 0.9393 0.0
C521 C 0.41626 0.46845 0.89672 0.0
C522 C 0.42018 0.48666 0.9378 0.0
H523 H 0.35692 0.46004 0.86976 0.0
H524 H 0.58559 0.56952 0.20016 0.0
H525 H 0.58459 0.53258 0.13958 0.0
H526 H 0.3179 0.53633 0.05774 0.0
H527 H 0.31951 0.57378 0.11759 0.0
H528 H 0.3944 0.50054 0.03075 0.0
H529 H 0.55739 0.52623 0.04296 0.0
H530 H 0.6283 0.49615 0.99961 0.0
H531 H 0.62117 0.46348 0.92808 0.0
C532 C 0.45046 0.47858 0.64375 0.0
C533 C 0.51894 0.47024 0.69454 0.0
C534 C 0.45565 0.50103 0.61075 0.0
C535 C 0.52861 0.51607 0.62894 0.0
C536 C 0.59186 0.51004 0.68377 0.0
C537 C 0.5875 0.48722 0.71593 0.0
C538 C 0.54355 0.53705 0.59132 0.0
C539 C 0.51285 0.53608 0.53333 0.0
C540 C 0.53627 0.55536 0.4966 0.0
C541 C 0.48298 0.5596 0.43799 0.0
C542 C 0.50109 0.57881 0.40359 0.0
C543 C 0.57331 0.59416 0.42701 0.0
H544 H 0.65654 0.56572 0.5624 0.0
C545 C 0.62956 0.58825 0.48435 0.0
C546 C 0.61152 0.56919 0.51853 0.0
H547 H 0.6862 0.59942 0.50408 0.0
H548 H 0.39733 0.46568 0.62543 0.0
H549 H 0.40436 0.50561 0.5697 0.0
H550 H 0.64819 0.52156 0.69959 0.0
H551 H 0.64187 0.48112 0.75419 0.0
H552 H 0.58679 0.55269 0.61309 0.0
H553 H 0.46933 0.52047 0.51162 0.0
H554 H 0.42534 0.54887 0.4193 0.0
H555 H 0.45592 0.58288 0.3599 0.0
loop_
_geom_bond_atom_site_label_1
_geom_bond_atom_site_label_2
_geom_bond_distance
_geom_bond_site_symmetry_2
_ccdc_geom_bond_type
Co0 N1 2.034 . S
Co0 O15 2.262 1_455 S
Co0 O19 1.958 1_455 S
Co0 O23 1.950 . S
Co0 O24 2.057 1_455 S
N1 Co0 2.034 . S
N1 C2 1.366 . S
N1 C4 1.332 . S
C2 N1 1.366 . S
C2 C5 1.377 1_554 S
C2 H34 0.931 1_455 S
N3 C4 1.346 1_556 S
N3 C5 1.337 . S
C4 N1 1.332 . S
C4 N3 1.346 1_554 S
C4 C38 1.361 . S
C5 C2 1.377 1_556 S
C5 N3 1.337 . S
C5 H41 0.930 . S
Co6 N7 2.034 . S
Co6 O20 1.950 1_655 S
Co6 O21 2.262 1_655 S
Co6 O22 1.958 . S
Co6 O26 2.057 1_655 S
N7 Co6 2.034 . S
N7 C10 1.366 . S
N7 C11 1.332 . S
N8 C9 1.337 . S
N8 C11 1.346 . S
C9 N8 1.337 . S
C9 C10 1.377 . S
C9 H42 0.930 . S
C10 N7 1.366 . S
C10 C9 1.377 . S
C10 H14 0.931 . S
C11 N7 1.332 . S
C11 N8 1.346 . S
C11 C28 1.361 1_655 S
Co12 O15 2.097 . S
Co12 O16 2.065 1_655 S
Co12 O17 2.065 1_655 S
Co12 O18 2.042 . S
Co12 O21 2.097 1_655 S
Co12 O25 2.042 . S
C13 O21 1.253 . S
C13 O26 1.263 . S
H14 C10 0.931 . S
O15 Co0 2.262 1_655 S
O15 Co12 2.097 . S
O15 C39 1.253 . S
O16 Co12 2.065 1_455 S
O16 C32 1.221 . S
O17 Co12 2.065 1_455 S
O17 C27 1.221 . S
O18 Co12 2.042 . S
O18 C33 1.237 . S
O19 Co0 1.958 1_655 S
O19 C33 1.278 . S
O20 Co6 1.950 1_455 S
O20 C32 1.277 . S
O21 Co6 2.262 1_455 S
O21 Co12 2.097 1_455 S
O21 C13 1.253 . S
O22 Co6 1.958 . S
O22 C40 1.278 . S
O23 Co0 1.950 . S
O23 C27 1.277 . S
O24 Co0 2.057 1_655 S
O24 C39 1.263 . S
O25 Co12 2.042 . S
O25 C40 1.237 . S
O26 Co6 2.057 1_455 S
O26 C13 1.263 . S
C27 O17 1.221 . S
C27 O23 1.277 . S
C28 C11 1.361 1_455 S
C28 H29 0.960 . S
C28 H30 0.961 . S
C28 H31 0.961 . S
H29 C28 0.960 . S
H30 C28 0.961 . S
H31 C28 0.961 . S
C32 O16 1.221 . S
C32 O20 1.277 . S
C33 O18 1.237 . S
C33 O19 1.278 . S
H34 C2 0.931 1_655 S
H35 C38 0.961 . S
H36 C38 0.961 . S
H37 C38 0.960 . S
C38 C4 1.361 . S
C38 H35 0.961 . S
C38 H36 0.961 . S
C38 H37 0.960 . S
C39 O15 1.253 . S
C39 O24 1.263 . S
C40 O22 1.278 . S
C40 O25 1.237 . S
H41 C5 0.930 . S
H42 C9 0.930 . S
Co43 N44 2.034 . S
Co43 O58 2.262 1_455 S
Co43 O62 1.958 1_455 S
Co43 O66 1.950 . S
Co43 O67 2.057 1_455 S
N44 Co43 2.034 . S
N44 C45 1.366 . S
N44 C47 1.332 . S
C45 N44 1.366 . S
C45 C48 1.377 . S
C45 H77 0.931 1_455 S
N46 C47 1.346 . S
N46 C48 1.337 . S
C47 N44 1.332 . S
C47 N46 1.346 . S
C47 C81 1.361 . S
C48 C45 1.377 . S
C48 N46 1.337 . S
C48 H84 0.930 . S
Co49 N50 2.034 . S
Co49 O63 1.950 1_655 S
Co49 O64 2.262 1_655 S
Co49 O65 1.958 . S
Co49 O69 2.057 1_655 S
N50 Co49 2.034 . S
N50 C53 1.366 . S
N50 C54 1.332 . S
N51 C52 1.337 1_554 S
N51 C54 1.346 1_554 S
C52 N51 1.337 1_556 S
C52 C53 1.377 . S
C52 H85 0.930 . S
C53 N50 1.366 . S
C53 C52 1.377 . S
C53 H57 0.931 . S
C54 N50 1.332 . S
C54 N51 1.346 1_556 S
C54 C71 1.361 1_656 S
Co55 O58 2.097 . S
Co55 O59 2.065 1_655 S
Co55 O60 2.065 1_655 S
Co55 O61 2.042 . S
Co55 O64 2.097 1_655 S
Co55 O68 2.042 . S
C56 O64 1.253 . S
C56 O69 1.263 . S
H57 C53 0.931 . S
O58 Co43 2.262 1_655 S
O58 Co55 2.097 . S
O58 C82 1.253 . S
O59 Co55 2.065 1_455 S
O59 C75 1.221 . S
O60 Co55 2.065 1_455 S
O60 C70 1.221 . S
O61 Co55 2.042 . S
O61 C76 1.237 . S
O62 Co43 1.958 1_655 S
O62 C76 1.278 . S
O63 Co49 1.950 1_455 S
O63 C75 1.277 . S
O64 Co49 2.262 1_455 S
O64 Co55 2.097 1_455 S
O64 C56 1.253 . S
O65 Co49 1.958 . S
O65 C83 1.278 . S
O66 Co43 1.950 . S
O66 C70 1.277 . S
O67 Co43 2.057 1_655 S
O67 C82 1.263 . S
O68 Co55 2.042 . S
O68 C83 1.237 . S
O69 Co49 2.057 1_455 S
O69 C56 1.263 . S
C70 O60 1.221 . S
C70 O66 1.277 . S
C71 C54 1.361 1_454 S
C71 H72 0.960 1_554 S
C71 H73 0.961 . S
C71 H74 0.961 . S
H72 C71 0.960 1_556 S
H73 C71 0.961 . S
H74 C71 0.961 . S
C75 O59 1.221 . S
C75 O63 1.277 . S
C76 O61 1.237 . S
C76 O62 1.278 . S
H77 C45 0.931 1_655 S
H78 C81 0.961 . S
H79 C81 0.961 . S
H80 C81 0.960 . S
C81 C47 1.361 . S
C81 H78 0.961 . S
C81 H79 0.961 . S
C81 H80 0.960 . S
C82 O58 1.253 . S
C82 O67 1.263 . S
C83 O65 1.278 . S
C83 O68 1.237 . S
H84 C48 0.930 . S
H85 C52 0.930 . S
Co86 N87 2.034 . S
Co86 O101 2.262 . S
Co86 O105 1.958 . S
Co86 O109 1.950 . S
Co86 O110 2.057 . S
N87 Co86 2.034 . S
N87 C88 1.366 . S
N87 C90 1.332 . S
C88 N87 1.366 . S
C88 C91 1.377 1_554 S
C88 H120 0.931 . S
N89 C90 1.346 1_556 S
N89 C91 1.337 . S
C90 N87 1.332 . S
C90 N89 1.346 1_554 S
C90 C124 1.361 . S
C91 C88 1.377 1_556 S
C91 N89 1.337 . S
C91 H127 0.930 . S
Co92 N93 2.034 . S
Co92 O106 1.950 . S
Co92 O107 2.262 . S
Co92 O108 1.958 . S
Co92 O112 2.057 . S
N93 Co92 2.034 . S
N93 C96 1.366 . S
N93 C97 1.332 . S
N94 C95 1.337 . S
N94 C97 1.346 . S
C95 N94 1.337 . S
C95 C96 1.377 . S
C95 H128 0.930 . S
C96 N93 1.366 . S
C96 C95 1.377 . S
C96 H100 0.931 . S
C97 N93 1.332 . S
C97 N94 1.346 . S
C97 C114 1.361 . S
Co98 O101 2.097 . S
Co98 O102 2.065 . S
Co98 O103 2.065 . S
Co98 O104 2.042 . S
Co98 O107 2.097 . S
Co98 O111 2.042 . S
C99 O107 1.253 . S
C99 O112 1.263 . S
H100 C96 0.931 . S
O101 Co86 2.262 . S
O101 Co98 2.097 . S
O101 C125 1.253 . S
O102 Co98 2.065 . S
O102 C118 1.221 . S
O103 Co98 2.065 . S
O103 C113 1.221 . S
O104 Co98 2.042 . S
O104 C119 1.237 . S
O105 Co86 1.958 . S
O105 C119 1.278 . S
O106 Co92 1.950 . S
O106 C118 1.277 . S
O107 Co92 2.262 . S
O107 Co98 2.097 . S
O107 C99 1.253 . S
O108 Co92 1.958 . S
O108 C126 1.278 . S
O109 Co86 1.950 . S
O109 C113 1.277 . S
O110 Co86 2.057 . S
O110 C125 1.263 . S
O111 Co98 2.042 . S
O111 C126 1.237 . S
O112 Co92 2.057 . S
O112 C99 1.263 . S
C113 O103 1.221 . S
C113 O109 1.277 . S
C114 C97 1.361 . S
C114 H115 0.960 . S
C114 H116 0.961 . S
C114 H117 0.961 . S
H115 C114 0.960 . S
H116 C114 0.961 . S
H117 C114 0.961 . S
C118 O102 1.221 . S
C118 O106 1.277 . S
C119 O104 1.237 . S
C119 O105 1.278 . S
H120 C88 0.931 . S
H121 C124 0.961 . S
H122 C124 0.961 . S
H123 C124 0.960 . S
C124 C90 1.361 . S
C124 H121 0.961 . S
C124 H122 0.961 . S
C124 H123 0.960 . S
C125 O101 1.253 . S
C125 O110 1.263 . S
C126 O108 1.278 . S
C126 O111 1.237 . S
H127 C91 0.930 . S
H128 C95 0.930 . S
Co129 N130 2.034 . S
Co129 O144 2.262 . S
Co129 O148 1.958 . S
Co129 O152 1.950 . S
Co129 O153 2.057 . S
N130 Co129 2.034 . S
N130 C131 1.366 . S
N130 C133 1.332 . S
C131 N130 1.366 . S
C131 C134 1.377 . S
C131 H163 0.931 . S
N132 C133 1.346 . S
N132 C134 1.337 . S
C133 N130 1.332 . S
C133 N132 1.346 . S
C133 C167 1.361 . S
C134 C131 1.377 . S
C134 N132 1.337 . S
C134 H170 0.930 . S
Co135 N136 2.034 . S
Co135 O149 1.950 . S
Co135 O150 2.262 . S
Co135 O151 1.958 . S
Co135 O155 2.057 . S
N136 Co135 2.034 . S
N136 C139 1.366 . S
N136 C140 1.332 . S
N137 C138 1.337 1_554 S
N137 C140 1.346 1_554 S
C138 N137 1.337 1_556 S
C138 C139 1.377 . S
C138 H171 0.930 . S
C139 N136 1.366 . S
C139 C138 1.377 . S
C139 H143 0.931 . S
C140 N136 1.332 . S
C140 N137 1.346 1_556 S
C140 C157 1.361 1_556 S
Co141 O144 2.097 . S
Co141 O145 2.065 . S
Co141 O146 2.065 . S
Co141 O147 2.042 . S
Co141 O150 2.097 . S
Co141 O154 2.042 . S
C142 O150 1.253 . S
C142 O155 1.263 . S
H143 C139 0.931 . S
O144 Co129 2.262 . S
O144 Co141 2.097 . S
O144 C168 1.253 . S
O145 Co141 2.065 . S
O145 C161 1.221 . S
O146 Co141 2.065 . S
O146 C156 1.221 . S
O147 Co141 2.042 . S
O147 C162 1.237 . S
O148 Co129 1.958 . S
O148 C162 1.278 . S
O149 Co135 1.950 . S
O149 C161 1.277 . S
O150 Co135 2.262 . S
O150 Co141 2.097 . S
O150 C142 1.253 . S
O151 Co135 1.958 . S
O151 C169 1.278 . S
O152 Co129 1.950 . S
O152 C156 1.277 . S
O153 Co129 2.057 . S
O153 C168 1.263 . S
O154 Co141 2.042 . S
O154 C169 1.237 . S
O155 Co135 2.057 . S
O155 C142 1.263 . S
C156 O146 1.221 . S
C156 O152 1.277 . S
C157 C140 1.361 1_554 S
C157 H158 0.960 1_554 S
C157 H159 0.961 . S
C157 H160 0.961 . S
H158 C157 0.960 1_556 S
H159 C157 0.961 . S
H160 C157 0.961 . S
C161 O145 1.221 . S
C161 O149 1.277 . S
C162 O147 1.237 . S
C162 O148 1.278 . S
H163 C131 0.931 . S
H164 C167 0.961 . S
H165 C167 0.961 . S
H166 C167 0.960 . S
C167 C133 1.361 . S
C167 H164 0.961 . S
C167 H165 0.961 . S
C167 H166 0.960 . S
C168 O144 1.253 . S
C168 O153 1.263 . S
C169 O151 1.278 . S
C169 O154 1.237 . S
H170 C134 0.930 . S
H171 C138 0.930 . S
C172 C173 1.386 . S
C172 C174 1.386 1_455 S
C172 H188 0.951 1_455 S
C173 C172 1.386 . S
C173 C177 1.383 . S
C174 C172 1.386 1_655 S
C174 C175 1.391 1_655 S
C174 H189 0.958 . S
C175 C174 1.391 1_455 S
C175 C176 1.375 . S
C175 C178 1.481 . S
C176 C175 1.375 . S
C176 C177 1.367 . S
C176 H190 0.951 . S
C177 C173 1.383 . S
C177 C176 1.367 . S
C177 H191 0.950 . S
C178 C175 1.481 . S
C178 C179 1.297 1_455 S
C178 H192 0.950 . S
C179 C178 1.297 1_655 S
C179 C180 1.479 . S
C179 H193 0.950 . S
C180 C179 1.479 . S
C180 C181 1.375 . S
C180 C186 1.404 1_655 S
C181 C180 1.375 . S
C181 C182 1.369 . S
C181 H194 0.950 . S
C182 C181 1.369 . S
C182 C183 1.392 . S
C182 H195 0.951 . S
C183 C182 1.392 . S
C183 C185 1.384 1_655 S
H184 C186 0.949 . S
C185 C183 1.384 1_455 S
C185 C186 1.385 . S
C185 H187 0.950 . S
C186 C180 1.404 1_455 S
C186 H184 0.949 . S
C186 C185 1.385 . S
H187 C185 0.950 . S
H188 C172 0.951 1_655 S
H189 C174 0.958 . S
H190 C176 0.951 . S
H191 C177 0.950 . S
H192 C178 0.950 . S
H193 C179 0.950 . S
H194 C181 0.950 . S
H195 C182 0.951 . S
C196 C197 1.386 . S
C196 C198 1.383 . S
C196 H212 0.951 . S
C197 C196 1.386 . S
C197 C201 1.383 1_455 S
C198 C196 1.383 . S
C198 C199 1.402 . S
C198 H213 0.951 . S
C199 C198 1.402 . S
C199 C200 1.375 1_455 S
C199 C202 1.481 1_455 S
C200 C199 1.375 1_655 S
C200 C201 1.367 . S
C200 H214 0.951 . S
C201 C197 1.383 1_655 S
C201 C200 1.367 . S
C201 H215 0.950 . S
C202 C199 1.481 1_655 S
C202 C203 1.297 1_655 S
C202 H216 0.950 . S
C203 C202 1.297 1_455 S
C203 C204 1.479 . S
C203 H217 0.950 . S
C204 C203 1.479 . S
C204 C205 1.375 . S
C204 C210 1.404 1_455 S
C205 C204 1.375 . S
C205 C206 1.369 . S
C205 H218 0.950 . S
C206 C205 1.369 . S
C206 C207 1.392 1_455 S
C206 H219 0.951 . S
C207 C206 1.392 1_655 S
C207 C209 1.384 . S
H208 C210 0.949 . S
C209 C207 1.384 . S
C209 C210 1.385 . S
C209 H211 0.950 . S
C210 C204 1.404 1_655 S
C210 H208 0.949 . S
C210 C209 1.385 . S
H211 C209 0.950 . S
H212 C196 0.951 . S
H213 C198 0.951 . S
H214 C200 0.951 . S
H215 C201 0.950 . S
H216 C202 0.950 . S
H217 C203 0.950 . S
H218 C205 0.950 . S
H219 C206 0.951 . S
C220 C221 1.386 . S
C220 C222 1.383 . S
C220 H236 0.951 . S
C221 C220 1.386 . S
C221 C225 1.383 . S
C222 C220 1.383 . S
C222 C223 1.402 . S
C222 H237 0.951 . S
C223 C222 1.402 . S
C223 C224 1.375 . S
C223 C226 1.481 . S
C224 C223 1.375 . S
C224 C225 1.367 . S
C224 H238 0.951 . S
C225 C221 1.383 . S
C225 C224 1.367 . S
C225 H239 0.950 . S
C226 C223 1.481 . S
C226 C227 1.297 . S
C226 H240 0.950 . S
C227 C226 1.297 . S
C227 C228 1.479 . S
C227 H241 0.950 . S
C228 C227 1.479 . S
C228 C229 1.375 . S
C228 C234 1.404 . S
C229 C228 1.375 . S
C229 C230 1.369 . S
C229 H242 0.950 . S
C230 C229 1.369 . S
C230 C231 1.392 . S
C230 H243 0.951 . S
C231 C230 1.392 . S
C231 C233 1.384 . S
H232 C234 0.949 . S
C233 C231 1.384 . S
C233 C234 1.385 . S
C233 H235 0.950 . S
C234 C228 1.404 . S
C234 H232 0.949 . S
C234 C233 1.385 . S
H235 C233 0.950 . S
H236 C220 0.951 . S
H237 C222 0.951 . S
H238 C224 0.951 . S
H239 C225 0.950 . S
H240 C226 0.950 . S
H241 C227 0.950 . S
H242 C229 0.950 . S
H243 C230 0.951 . S
C244 C245 1.386 . S
C244 C246 1.383 . S
C244 H260 0.951 . S
C245 C244 1.386 . S
C245 C249 1.383 . S
C246 C244 1.383 . S
C246 C247 1.402 . S
C246 H261 0.951 . S
C247 C246 1.402 . S
C247 C248 1.375 . S
C247 C250 1.481 . S
C248 C247 1.375 . S
C248 C249 1.367 . S
C248 H262 0.951 . S
C249 C245 1.383 . S
C249 C248 1.367 . S
C249 H263 0.950 . S
C250 C247 1.481 . S
C250 C251 1.297 . S
C250 H264 0.950 . S
C251 C250 1.297 . S
C251 C252 1.479 . S
C251 H265 0.950 . S
C252 C251 1.479 . S
C252 C253 1.375 . S
C252 C258 1.404 . S
C253 C252 1.375 . S
C253 C254 1.369 . S
C253 H266 0.950 . S
C254 C253 1.369 . S
C254 C255 1.392 . S
C254 H267 0.951 . S
C255 C254 1.392 . S
C255 C257 1.384 . S
H256 C258 0.949 . S
C257 C255 1.384 . S
C257 C258 1.385 . S
C257 H259 0.950 . S
C258 C252 1.404 . S
C258 H256 0.949 . S
C258 C257 1.385 . S
H259 C257 0.950 . S
H260 C244 0.951 . S
H261 C246 0.951 . S
H262 C248 0.951 . S
H263 C249 0.950 . S
H264 C250 0.950 . S
H265 C251 0.950 . S
H266 C253 0.950 . S
H267 C254 0.951 . S
C268 C269 1.386 . S
C268 C270 1.383 . S
C268 H284 0.951 . S
C269 C268 1.386 . S
C269 C273 1.383 . S
C270 C268 1.383 . S
C270 C271 1.402 . S
C270 H285 0.951 . S
C271 C270 1.402 . S
C271 C272 1.375 . S
C271 C274 1.481 . S
C272 C271 1.375 . S
C272 C273 1.367 . S
C272 H286 0.951 . S
C273 C269 1.383 . S
C273 C272 1.367 . S
C273 H287 0.950 . S
C274 C271 1.481 . S
C274 C275 1.297 . S
C274 H288 0.950 . S
C275 C274 1.297 . S
C275 C276 1.479 . S
C275 H289 0.950 . S
C276 C275 1.479 . S
C276 C277 1.375 . S
C276 C282 1.404 . S
C277 C276 1.375 . S
C277 C278 1.369 . S
C277 H290 0.950 . S
C278 C277 1.369 . S
C278 C279 1.392 . S
C278 H291 0.951 . S
C279 C278 1.392 . S
C279 C281 1.384 . S
H280 C282 0.949 . S
C281 C279 1.384 . S
C281 C282 1.385 . S
C281 H283 0.950 . S
C282 C276 1.404 . S
C282 H280 0.949 . S
C282 C281 1.385 . S
H283 C281 0.950 . S
H284 C268 0.951 . S
H285 C270 0.951 . S
H286 C272 0.951 . S
H287 C273 0.950 . S
H288 C274 0.950 . S
H289 C275 0.950 . S
H290 C277 0.950 . S
H291 C278 0.951 . S
C292 C293 1.386 . S
C292 C294 1.383 . S
C292 H308 0.951 . S
C293 C292 1.386 . S
C293 C297 1.383 . S
C294 C292 1.383 . S
C294 C295 1.402 . S
C294 H309 0.951 . S
C295 C294 1.402 . S
C295 C296 1.375 . S
C295 C298 1.481 . S
C296 C295 1.375 . S
C296 C297 1.367 . S
C296 H310 0.951 . S
C297 C293 1.383 . S
C297 C296 1.367 . S
C297 H311 0.950 . S
C298 C295 1.481 . S
C298 C299 1.297 . S
C298 H312 0.950 . S
C299 C298 1.297 . S
C299 C300 1.479 . S
C299 H313 0.950 . S
C300 C299 1.479 . S
C300 C301 1.375 . S
C300 C306 1.404 . S
C301 C300 1.375 . S
C301 C302 1.369 . S
C301 H314 0.950 . S
C302 C301 1.369 . S
C302 C303 1.392 . S
C302 H315 0.951 . S
C303 C302 1.392 . S
C303 C305 1.384 . S
H304 C306 0.949 . S
C305 C303 1.384 . S
C305 C306 1.385 . S
C305 H307 0.950 . S
C306 C300 1.404 . S
C306 H304 0.949 . S
C306 C305 1.385 . S
H307 C305 0.950 . S
H308 C292 0.951 . S
H309 C294 0.951 . S
H310 C296 0.951 . S
H311 C297 0.950 . S
H312 C298 0.950 . S
H313 C299 0.950 . S
H314 C301 0.950 . S
H315 C302 0.951 . S
C316 C317 1.386 . S
C316 C318 1.383 . S
C316 H332 0.951 . S
C317 C316 1.386 . S
C317 C321 1.383 . S
C318 C316 1.383 . S
C318 C319 1.402 . S
C318 H333 0.951 . S
C319 C318 1.402 . S
C319 C320 1.375 . S
C319 C322 1.481 . S
C320 C319 1.375 . S
C320 C321 1.367 . S
C320 H334 0.951 . S
C321 C317 1.383 . S
C321 C320 1.367 . S
C321 H335 0.950 . S
C322 C319 1.481 . S
C322 C323 1.297 1_655 S
C322 H336 0.950 . S
C323 C322 1.297 1_455 S
C323 C324 1.479 . S
C323 H337 0.950 . S
C324 C323 1.479 . S
C324 C325 1.375 . S
C324 C330 1.404 . S
C325 C324 1.375 . S
C325 C326 1.369 . S
C325 H338 0.950 . S
C326 C325 1.369 . S
C326 C327 1.392 . S
C326 H339 0.951 . S
C327 C326 1.392 . S
C327 C329 1.384 . S
H328 C330 0.949 . S
C329 C327 1.384 . S
C329 C330 1.385 . S
C329 H331 0.950 . S
C330 C324 1.404 . S
C330 H328 0.949 . S
C330 C329 1.385 . S
H331 C329 0.950 . S
H332 C316 0.951 . S
H333 C318 0.951 . S
H334 C320 0.951 . S
H335 C321 0.950 . S
H336 C322 0.950 . S
H337 C323 0.950 . S
H338 C325 0.950 . S
H339 C326 0.951 . S
C340 C341 1.386 . S
C340 C342 1.383 . S
C340 H356 0.951 . S
C341 C340 1.386 . S
C341 C345 1.383 . S
C342 C340 1.383 . S
C342 C343 1.402 . S
C342 H357 0.951 . S
C343 C342 1.402 . S
C343 C344 1.375 . S
C343 C346 1.481 . S
C344 C343 1.375 . S
C344 C345 1.367 . S
C344 H358 0.951 . S
C345 C341 1.383 . S
C345 C344 1.367 . S
C345 H359 0.950 . S
C346 C343 1.481 . S
C346 C347 1.297 1_655 S
C346 H360 0.950 . S
C347 C346 1.297 1_455 S
C347 C348 1.479 . S
C347 H361 0.950 . S
C348 C347 1.479 . S
C348 C349 1.375 . S
C348 C354 1.404 . S
C349 C348 1.375 . S
C349 C350 1.369 . S
C349 H362 0.950 . S
C350 C349 1.369 . S
C350 C351 1.392 . S
C350 H363 0.951 . S
C351 C350 1.392 . S
C351 C353 1.384 . S
H352 C354 0.949 . S
C353 C351 1.384 . S
C353 C354 1.385 . S
C353 H355 0.950 . S
C354 C348 1.404 . S
C354 H352 0.949 . S
C354 C353 1.385 . S
H355 C353 0.950 . S
H356 C340 0.951 . S
H357 C342 0.951 . S
H358 C344 0.951 . S
H359 C345 0.950 . S
H360 C346 0.950 . S
H361 C347 0.950 . S
H362 C349 0.950 . S
H363 C350 0.951 . S
C364 C365 1.386 . S
C364 C366 1.383 . S
C364 H380 0.951 . S
C365 C364 1.386 . S
C365 C369 1.383 . S
C366 C364 1.383 . S
C366 C367 1.402 . S
C366 H381 0.951 . S
C367 C366 1.402 . S
C367 C368 1.375 . S
C367 C370 1.481 . S
C368 C367 1.375 . S
C368 C369 1.367 . S
C368 H382 0.951 . S
C369 C365 1.383 . S
C369 C368 1.367 . S
C369 H383 0.950 . S
C370 C367 1.481 . S
C370 C371 1.297 . S
C370 H384 0.950 . S
C371 C370 1.297 . S
C371 C372 1.479 . S
C371 H385 0.950 . S
C372 C371 1.479 . S
C372 C373 1.375 . S
C372 C378 1.404 . S
C373 C372 1.375 . S
C373 C374 1.369 . S
C373 H386 0.950 . S
C374 C373 1.369 . S
C374 C375 1.392 . S
C374 H387 0.951 1_455 S
C375 C374 1.392 . S
C375 C377 1.384 . S
H376 C378 0.949 . S
C377 C375 1.384 . S
C377 C378 1.385 . S
C377 H379 0.950 . S
C378 C372 1.404 . S
C378 H376 0.949 . S
C378 C377 1.385 . S
H379 C377 0.950 . S
H380 C364 0.951 . S
H381 C366 0.951 . S
H382 C368 0.951 . S
H383 C369 0.950 . S
H384 C370 0.950 . S
H385 C371 0.950 . S
H386 C373 0.950 . S
H387 C374 0.951 1_655 S
C388 C389 1.386 . S
C388 C390 1.383 . S
C388 H404 0.951 . S
C389 C388 1.386 . S
C389 C393 1.383 . S
C390 C388 1.383 . S
C390 C391 1.402 . S
C390 H405 0.951 . S
C391 C390 1.402 . S
C391 C392 1.375 . S
C391 C394 1.481 . S
C392 C391 1.375 . S
C392 C393 1.367 . S
C392 H406 0.951 . S
C393 C389 1.383 . S
C393 C392 1.367 . S
C393 H407 0.950 . S
C394 C391 1.481 . S
C394 C395 1.297 1_556 S
C394 H408 0.950 . S
C395 C394 1.297 1_554 S
C395 C396 1.479 . S
C395 H409 0.950 . S
C396 C395 1.479 . S
C396 C397 1.375 . S
C396 C402 1.404 . S
C397 C396 1.375 . S
C397 C398 1.369 . S
C397 H410 0.950 . S
C398 C397 1.369 . S
C398 C399 1.392 . S
C398 H411 0.951 . S
C399 C398 1.392 . S
C399 C401 1.384 . S
H400 C402 0.949 1_556 S
C401 C399 1.384 . S
C401 C402 1.385 . S
C401 H403 0.950 . S
C402 C396 1.404 . S
C402 H400 0.949 1_554 S
C402 C401 1.385 . S
H403 C401 0.950 . S
H404 C388 0.951 . S
H405 C390 0.951 . S
H406 C392 0.951 . S
H407 C393 0.950 . S
H408 C394 0.950 . S
H409 C395 0.950 . S
H410 C397 0.950 . S
H411 C398 0.951 . S
C412 C413 1.386 . S
C412 C414 1.383 . S
C412 H428 0.951 . S
C413 C412 1.386 . S
C413 C417 1.383 . S
C414 C412 1.383 . S
C414 C415 1.402 . S
C414 H429 0.951 . S
C415 C414 1.402 . S
C415 C416 1.375 . S
C415 C418 1.481 . S
C416 C415 1.375 . S
C416 C417 1.367 . S
C416 H430 0.951 . S
C417 C413 1.383 . S
C417 C416 1.367 . S
C417 H431 0.950 . S
C418 C415 1.481 . S
C418 C419 1.297 . S
C418 H432 0.950 . S
C419 C418 1.297 . S
C419 C420 1.479 . S
C419 H433 0.950 . S
C420 C419 1.479 . S
C420 C421 1.375 . S
C420 C426 1.404 . S
C421 C420 1.375 . S
C421 C422 1.369 . S
C421 H434 0.950 . S
C422 C421 1.369 . S
C422 C423 1.392 . S
C422 H435 0.951 . S
C423 C422 1.392 . S
C423 C425 1.384 . S
H424 C426 0.949 . S
C425 C423 1.384 . S
C425 C426 1.385 . S
C425 H427 0.950 . S
C426 C420 1.404 . S
C426 H424 0.949 . S
C426 C425 1.385 . S
H427 C425 0.950 . S
H428 C412 0.951 . S
H429 C414 0.951 . S
H430 C416 0.951 . S
H431 C417 0.950 . S
H432 C418 0.950 . S
H433 C419 0.950 . S
H434 C421 0.950 . S
H435 C422 0.951 . S
C436 C437 1.386 . S
C436 C438 1.383 . S
C436 H452 0.951 . S
C437 C436 1.386 . S
C437 C441 1.383 . S
C438 C436 1.383 . S
C438 C439 1.402 . S
C438 H453 0.951 . S
C439 C438 1.402 . S
C439 C440 1.375 . S
C439 C442 1.481 1_554 S
C440 C439 1.375 . S
C440 C441 1.367 . S
C440 H454 0.951 1_554 S
C441 C437 1.383 . S
C441 C440 1.367 . S
C441 H455 0.950 . S
C442 C439 1.481 1_556 S
C442 C443 1.297 . S
C442 H456 0.950 . S
C443 C442 1.297 . S
C443 C444 1.479 . S
C443 H457 0.950 1_556 S
C444 C443 1.479 . S
C444 C445 1.375 . S
C444 C450 1.404 . S
C445 C444 1.375 . S
C445 C446 1.369 . S
C445 H458 0.950 1_556 S
C446 C445 1.369 . S
C446 C447 1.392 . S
C446 H459 0.951 . S
C447 C446 1.392 . S
C447 C449 1.384 . S
H448 C450 0.949 . S
C449 C447 1.384 . S
C449 C450 1.385 . S
C449 H451 0.950 . S
C450 C444 1.404 . S
C450 H448 0.949 . S
C450 C449 1.385 . S
H451 C449 0.950 . S
H452 C436 0.951 . S
H453 C438 0.951 . S
H454 C440 0.951 1_556 S
H455 C441 0.950 . S
H456 C442 0.950 . S
H457 C443 0.950 1_554 S
H458 C445 0.950 1_554 S
H459 C446 0.951 . S
C460 C461 1.386 . S
C460 C462 1.383 1_655 S
C460 H476 0.951 1_655 S
C461 C460 1.386 . S
C461 C465 1.383 . S
C462 C460 1.383 1_455 S
C462 C463 1.402 1_455 S
C462 H477 0.951 . S
C463 C462 1.402 1_655 S
C463 C464 1.375 . S
C463 C466 1.481 1_545 S
C464 C463 1.375 . S
C464 C465 1.367 . S
C464 H478 0.951 1_545 S
C465 C461 1.383 . S
C465 C464 1.367 . S
C465 H479 0.950 . S
C466 C463 1.481 1_565 S
C466 C467 1.297 1_655 S
C466 H480 0.950 . S
C467 C466 1.297 1_455 S
C467 C468 1.479 1_554 S
C467 H481 0.950 1_565 S
C468 C467 1.479 1_556 S
C468 C469 1.375 . S
C468 C474 1.404 . S
C469 C468 1.375 . S
C469 C470 1.369 . S
C469 H482 0.950 . S
C470 C469 1.369 . S
C470 C471 1.392 . S
C470 H483 0.951 . S
C471 C470 1.392 . S
C471 C473 1.384 . S
H472 C474 0.949 1_655 S
C473 C471 1.384 . S
C473 C474 1.385 . S
C473 H475 0.950 1_455 S
C474 C468 1.404 . S
C474 H472 0.949 1_455 S
C474 C473 1.385 . S
H475 C473 0.950 1_655 S
H476 C460 0.951 1_455 S
H477 C462 0.951 . S
H478 C464 0.951 1_565 S
H479 C465 0.950 . S
H480 C466 0.950 . S
H481 C467 0.950 1_545 S
H482 C469 0.950 . S
H483 C470 0.951 . S
C484 C485 1.386 . S
C484 C486 1.383 . S
C484 H500 0.951 . S
C485 C484 1.386 . S
C485 C489 1.383 1_455 S
C486 C484 1.383 . S
C486 C487 1.399 1_455 S
C486 H501 0.951 . S
C487 C486 1.399 1_655 S
C487 C488 1.376 . S
C487 C490 1.482 . S
C488 C487 1.376 . S
C488 C489 1.367 . S
C488 H502 0.951 . S
C489 C485 1.383 1_655 S
C489 C488 1.367 . S
C489 H503 0.950 . S
C490 C487 1.482 . S
C490 C491 1.297 1_655 S
C490 H504 0.950 . S
C491 C490 1.297 1_455 S
C491 C492 1.479 1_445 S
C491 H505 0.950 . S
C492 C491 1.479 1_665 S
C492 C493 1.375 1_655 S
C492 C498 1.404 . S
C493 C492 1.375 1_455 S
C493 C494 1.369 . S
C493 H506 0.950 . S
C494 C493 1.369 . S
C494 C495 1.392 1_455 S
C494 H507 0.951 . S
C495 C494 1.392 1_655 S
C495 C497 1.384 . S
H496 C498 0.949 . S
C497 C495 1.384 . S
C497 C498 1.385 . S
C497 H499 0.950 . S
C498 C492 1.404 . S
C498 H496 0.949 . S
C498 C497 1.385 . S
H499 C497 0.950 . S
H500 C484 0.951 . S
H501 C486 0.951 . S
H502 C488 0.951 . S
H503 C489 0.950 . S
H504 C490 0.950 . S
H505 C491 0.950 . S
H506 C493 0.950 . S
H507 C494 0.951 . S
C508 C509 1.386 . S
C508 C510 1.383 . S
C508 H524 0.951 . S
C509 C508 1.386 . S
C509 C513 1.383 . S
C510 C508 1.383 . S
C510 C511 1.402 . S
C510 H525 0.951 . S
C511 C510 1.402 . S
C511 C512 1.375 . S
C511 C514 1.481 . S
C512 C511 1.375 . S
C512 C513 1.367 . S
C512 H526 0.951 . S
C513 C509 1.383 . S
C513 C512 1.367 . S
C513 H527 0.950 . S
C514 C511 1.481 . S
C514 C515 1.297 . S
C514 H528 0.950 . S
C515 C514 1.297 . S
C515 C516 1.479 1_554 S
C515 H529 0.950 . S
C516 C515 1.479 1_556 S
C516 C517 1.375 . S
C516 C522 1.404 . S
C517 C516 1.375 . S
C517 C518 1.369 . S
C517 H530 0.950 . S
C518 C517 1.369 . S
C518 C519 1.392 . S
C518 H531 0.951 . S
C519 C518 1.392 . S
C519 C521 1.384 . S
H520 C522 0.949 . S
C521 C519 1.384 . S
C521 C522 1.385 . S
C521 H523 0.950 . S
C522 C516 1.404 . S
C522 H520 0.949 . S
C522 C521 1.385 . S
H523 C521 0.950 . S
H524 C508 0.951 . S
H525 C510 0.951 . S
H526 C512 0.951 . S
H527 C513 0.950 . S
H528 C514 0.950 . S
H529 C515 0.950 . S
H530 C517 0.950 . S
H531 C518 0.951 . S
C532 C533 1.386 . S
C532 C534 1.383 . S
C532 H548 0.951 . S
C533 C532 1.386 . S
C533 C537 1.383 . S
C534 C532 1.383 . S
C534 C535 1.402 . S
C534 H549 0.951 . S
C535 C534 1.402 . S
C535 C536 1.375 . S
C535 C538 1.481 . S
C536 C535 1.375 . S
C536 C537 1.367 . S
C536 H550 0.951 . S
C537 C533 1.383 . S
C537 C536 1.367 . S
C537 H551 0.950 . S
C538 C535 1.481 . S
C538 C539 1.297 . S
C538 H552 0.950 . S
C539 C538 1.297 . S
C539 C540 1.479 . S
C539 H553 0.950 . S
C540 C539 1.479 . S
C540 C541 1.375 . S
C540 C546 1.404 . S
C541 C540 1.375 . S
C541 C542 1.369 . S
C541 H554 0.950 . S
C542 C541 1.369 . S
C542 C543 1.392 . S
C542 H555 0.951 . S
C543 C542 1.392 . S
C543 C545 1.384 . S
H544 C546 0.949 . S
C545 C543 1.384 . S
C545 C546 1.385 . S
C545 H547 0.950 . S
C546 C540 1.404 . S
C546 H544 0.949 . S
C546 C545 1.385 . S
H547 C545 0.950 . S
H548 C532 0.951 . S
H549 C534 0.951 . S
H550 C536 0.951 . S
H551 C537 0.950 . S
H552 C538 0.950 . S
H553 C539 0.950 . S
H554 C541 0.950 . S
H555 C542 0.951 . S
C173 N3 1.286 . S
C183 N8 1.260 . S
C197 N46 1.224 . S
C207 N51 1.329 . S
C221 N89 1.260 . S
C231 N94 1.277 . S
C245 N137 1.313 . S
C255 N132 1.239 . S
C269 C40 1.132 . S
C279 C27 1.196 . S
C293 C83 1.098 . S
C303 C70 1.112 . S
C317 C113 1.098 . S
C327 C126 1.120 . S
C341 C156 1.157 . S
C351 C169 1.057 . S
C365 C162 1.434 . S
C375 C32 1.484 . S
C389 C142 1.525 . S
C399 C39 1.512 . S
C413 C118 1.459 . S
C423 C76 1.488 . S
C437 C125 1.456 . S
C447 C56 1.540 . S
C461 C33 1.748 . S
C471 C75 1.702 . S
C485 C13 1.710 . S
C495 C82 1.834 . S
C509 C119 1.754 . S
C519 C161 1.680 . S
C533 C168 1.826 . S
C543 C99 1.679 . S
