# Generated by pormake.
# Topology lcy, (6)-cn, num edge types: 1
# Building blocks:
#     Node 0, Type 0, BuildingBlock: MIDCAF_clean_sbu_0, # of connection points: 6
#     Node 1, Type 0, BuildingBlock: MIDCAF_clean_sbu_0, # of connection points: 6
#     Node 2, Type 0, BuildingBlock: MIDCAF_clean_sbu_0, # of connection points: 6
#     Node 3, Type 0, BuildingBlock: MIDCAF_clean_sbu_0, # of connection points: 6
#     Edge 4, Type (0, 0), BuildingBlock: FUNLAD_clean_linker_1, # of connection points: 2
#     Edge 5, Type (0, 0), BuildingBlock: FUNLAD_clean_linker_1, # of connection points: 2
#     Edge 6, Type (0, 0), BuildingBlock: FUNLAD_clean_linker_1, # of connection points: 2
#     Edge 7, Type (0, 0), BuildingBlock: FUNLAD_clean_linker_1, # of connection points: 2
#     Edge 8, Type (0, 0), BuildingBlock: FUNLAD_clean_linker_1, # of connection points: 2
#     Edge 9, Type (0, 0), BuildingBlock: FUNLAD_clean_linker_1, # of connection points: 2
#     Edge 10, Type (0, 0), BuildingBlock: FUNLAD_clean_linker_1, # of connection points: 2
#     Edge 11, Type (0, 0), BuildingBlock: FUNLAD_clean_linker_1, # of connection points: 2
#     Edge 12, Type (0, 0), BuildingBlock: FUNLAD_clean_linker_1, # of connection points: 2
#     Edge 13, Type (0, 0), BuildingBlock: FUNLAD_clean_linker_1, # of connection points: 2
#     Edge 14, Type (0, 0), BuildingBlock: FUNLAD_clean_linker_1, # of connection points: 2
#     Edge 15, Type (0, 0), BuildingBlock: FUNLAD_clean_linker_1, # of connection points: 2
# Relax obj value: 0.076
# Max RMSD: 0.123
# Mean RMSD: 0.122
data_MOF--net-lcy--node1-MIDCAF_clean_sbu_0--edge1-FUNLAD_clean_linker_1
_symmetry_space_group_name_H-M    P1
_symmetry_Int_Tables_number       1
_symmetry_cell_setting            triclinic
loop_
_symmetry_equiv_pos_as_xyz
'x, y, z'
_cell_length_a     26.338077
_cell_length_b     26.543156
_cell_length_c     26.216493
_cell_angle_alpha  90.092258
_cell_angle_beta   89.994097
_cell_angle_gamma 89.893537
loop_
_atom_site_label
_atom_site_type_symbol
_atom_site_fract_x
_atom_site_fract_y
_atom_site_fract_z
_atom_type_partial_charge
Zn0 Zn 0.32536 0.30838 0.30956 0.0
Zn1 Zn 0.4364 0.43129 0.42941 0.0
Zn2 Zn 0.38039 0.37248 0.36746 0.0
C3 C 0.34468 0.41263 0.47904 0.0
C4 C 0.42393 0.48236 0.33695 0.0
O5 O 0.42483 0.30392 0.34941 0.0
O6 O 0.37596 0.2539 0.30295 0.0
C7 C 0.26743 0.33053 0.39551 0.0
O8 O 0.33686 0.38708 0.43799 0.0
O9 O 0.38578 0.43632 0.48517 0.0
O10 O 0.44256 0.48792 0.38091 0.0
O11 O 0.39925 0.44209 0.3252 0.0
O12 O 0.26673 0.30204 0.35685 0.0
O13 O 0.30626 0.3586 0.40461 0.0
O14 O 0.36358 0.41357 0.29678 0.0
O15 O 0.31985 0.35723 0.25238 0.0
C16 C 0.33866 0.40075 0.25655 0.0
O17 O 0.45021 0.33043 0.38856 0.0
O18 O 0.49418 0.38336 0.43668 0.0
C19 C 0.41821 0.26305 0.32368 0.0
C20 C 0.48962 0.34073 0.41582 0.0
Zn21 Zn 0.81894 0.17871 0.6674 0.0
Zn22 Zn 0.94208 0.05072 0.56719 0.0
Zn23 Zn 0.87991 0.11312 0.61422 0.0
C24 C 0.98601 0.14436 0.55863 0.0
C25 C 0.84826 0.04862 0.51645 0.0
O26 O 0.86749 0.08363 0.69116 0.0
O27 O 0.81393 0.1358 0.72984 0.0
C28 C 0.91117 0.22707 0.64481 0.0
O29 O 0.94759 0.15566 0.58698 0.0
O30 O 0.9922 0.09996 0.54271 0.0
O31 O 0.88962 0.02475 0.51959 0.0
O32 O 0.83814 0.08498 0.54745 0.0
O33 O 0.86906 0.23459 0.66669 0.0
O34 O 0.92048 0.18482 0.62247 0.0
O35 O 0.80594 0.11965 0.57342 0.0
O36 O 0.76318 0.17748 0.61692 0.0
C37 C 0.76603 0.1472 0.57979 0.0
O38 O 0.90073 0.04988 0.66626 0.0
O39 O 0.96234 0.00933 0.62587 0.0
C40 C 0.8408 0.09631 0.73032 0.0
C41 C 0.9349 0.01504 0.66478 0.0
Zn42 Zn 0.1759 0.68905 0.83055 0.0
Zn43 Zn 0.05968 0.54512 0.92823 0.0
Zn44 Zn 0.11725 0.61552 0.87383 0.0
C45 C 0.14008 0.57333 0.98986 0.0
C46 C 0.0925 0.50476 0.83193 0.0
O47 O 0.07044 0.68245 0.85888 0.0
O48 O 0.11955 0.73792 0.81976 0.0
C49 C 0.21829 0.66604 0.92467 0.0
O50 O 0.14933 0.60056 0.95029 0.0
O51 O 0.10263 0.54369 0.99055 0.0
O52 O 0.07044 0.49371 0.87329 0.0
O53 O 0.1118 0.54872 0.82508 0.0
O54 O 0.22257 0.69796 0.88925 0.0
O55 O 0.18224 0.63331 0.92387 0.0
O56 O 0.14769 0.58284 0.80313 0.0
O57 O 0.19876 0.64307 0.7749 0.0
C58 C 0.18024 0.59942 0.77061 0.0
O59 O 0.04011 0.64457 0.88107 0.0
O60 O -0.00306 0.58879 0.9267 0.0
C61 C 0.07676 0.72561 0.83758 0.0
C62 C -0.00131 0.62983 0.90227 0.0
Zn63 Zn 0.68543 0.81027 0.17228 0.0
Zn64 Zn 0.56633 0.91677 0.04984 0.0
Zn65 Zn 0.62571 0.86586 0.10961 0.0
C66 C 0.5696 0.96876 0.14278 0.0
C67 C 0.52126 0.82506 0.05674 0.0
O68 O 0.69778 0.85127 0.06916 0.0
O69 O 0.74332 0.80697 0.12444 0.0
C70 C 0.66212 0.89819 0.22367 0.0
O71 O 0.60374 0.93525 0.15238 0.0
O72 O 0.54457 0.9669 0.10179 0.0
O73 O 0.51836 0.864 0.02956 0.0
O74 O 0.55714 0.82017 0.08989 0.0
O75 O 0.68819 0.85862 0.229 0.0
O76 O 0.63647 0.90598 0.18257 0.0
O77 O 0.58932 0.79224 0.12225 0.0
O78 O 0.63894 0.75158 0.17678 0.0
C79 C 0.5994 0.75314 0.14955 0.0
O80 O 0.67102 0.88855 0.04184 0.0
O81 O 0.61711 0.93627 -0.00133 0.0
C82 C 0.7385 0.82696 0.0811 0.0
C83 C 0.6608 0.91753 0.00377 0.0
H84 H 0.19663 0.60981 0.04004 0.0
C85 C 0.17428 0.57608 0.03416 0.0
H86 H 0.15778 0.50295 0.06062 0.0
H87 H 0.38514 0.50891 0.15546 0.0
H88 H 0.41569 0.51684 0.06823 0.0
H89 H 0.35554 0.53146 -0.00246 0.0
H90 H 0.26546 0.54016 0.01372 0.0
C91 C 0.18052 0.53674 0.06546 0.0
C92 C 0.21837 0.53708 0.10742 0.0
C93 C 0.27091 0.53164 0.09667 0.0
C94 C 0.30537 0.52122 0.13699 0.0
C95 C 0.35763 0.51612 0.12583 0.0
C96 C 0.3755 0.52059 0.07606 0.0
C97 C 0.34168 0.52907 0.03632 0.0
C98 C 0.28994 0.53421 0.04621 0.0
H99 H 0.31668 0.4211 0.17896 0.0
C100 C 0.32713 0.43688 0.21582 0.0
H101 H 0.32364 0.50105 0.26302 0.0
H102 H 0.12218 0.55599 0.14141 0.0
H103 H 0.09326 0.55325 0.22943 0.0
H104 H 0.15288 0.53329 0.29917 0.0
H105 H 0.24165 0.51622 0.28147 0.0
C106 C 0.31763 0.48571 0.22509 0.0
C107 C 0.28701 0.51451 0.1873 0.0
C108 C 0.2357 0.52601 0.19875 0.0
C109 C 0.20125 0.5371 0.1586 0.0
C110 C 0.14975 0.54685 0.1706 0.0
C111 C 0.13273 0.54555 0.22089 0.0
C112 C 0.16631 0.53434 0.26016 0.0
C113 C 0.21719 0.52447 0.24944 0.0
H114 H 0.63453 0.96581 0.26353 0.0
C115 C 0.66319 0.93672 0.26386 0.0
H116 H 0.72947 0.90811 0.29874 0.0
H117 H 0.79499 0.12338 0.37771 0.0
H118 H 0.80829 0.14417 0.2885 0.0
H119 H 0.77502 0.08915 0.2203 0.0
H120 H 0.72827 0.01305 0.24095 0.0
C121 C 0.70065 0.93746 0.29849 0.0
C122 C 0.70639 0.97817 0.33667 0.0
C123 C 0.7327 0.02288 0.3237 0.0
C124 C 0.75179 0.05461 0.36294 0.0
C125 C 0.77959 0.09809 0.34932 0.0
C126 C 0.78743 0.11044 0.29829 0.0
C127 C 0.76868 0.07947 0.25989 0.0
C128 C 0.74197 0.03589 0.27222 0.0
H129 H 0.81264 0.99173 0.46794 0.0
C130 C 0.81121 0.03135 0.4786 0.0
H131 H 0.78073 0.10248 0.46062 0.0
H132 H 0.64651 0.90237 0.37274 0.0
H133 H 0.62405 0.88763 0.46161 0.0
H134 H 0.65521 0.94426 0.52952 0.0
H135 H 0.70956 0.0156 0.50902 0.0
C136 C 0.77881 0.06213 0.45446 0.0
C137 C 0.74479 0.04095 0.4146 0.0
C138 C 0.7116 0.00085 0.42704 0.0
C139 C 0.69299 0.96886 0.38795 0.0
C140 C 0.66169 0.9277 0.40131 0.0
C141 C 0.64838 0.91905 0.452 0.0
C142 C 0.66595 0.95091 0.49025 0.0
C143 C 0.69729 0.99141 0.47812 0.0
H144 H 0.2399 0.57374 0.71853 0.0
C145 C 0.20096 0.56678 0.73045 0.0
H146 H 0.13411 0.52633 0.7143 0.0
H147 H 0.23741 0.49034 0.49457 0.0
H148 H 0.1653 0.54276 0.47186 0.0
H149 H 0.10747 0.57568 0.53813 0.0
H150 H 0.12164 0.55644 0.62771 0.0
C151 C 0.17424 0.53072 0.70702 0.0
C152 C 0.1992 0.50009 0.66683 0.0
C153 C 0.18938 0.51039 0.61485 0.0
C154 C 0.22246 0.49103 0.57671 0.0
C155 C 0.21327 0.50368 0.5251 0.0
C156 C 0.172 0.53375 0.51155 0.0
C157 C 0.13945 0.55232 0.54888 0.0
C158 C 0.14802 0.54113 0.60006 0.0
H159 H 0.27155 0.39256 0.51572 0.0
C160 C 0.30448 0.41678 0.518 0.0
H161 H 0.33953 0.47668 0.55769 0.0
H162 H 0.21948 0.46294 0.76174 0.0
H163 H 0.28728 0.40456 0.78411 0.0
H164 H 0.3452 0.37126 0.71804 0.0
H165 H 0.33555 0.39598 0.62919 0.0
C166 C 0.30665 0.45221 0.55445 0.0
C167 C 0.2647 0.46102 0.59105 0.0
C168 C 0.27067 0.44584 0.64238 0.0
C169 C 0.23766 0.46527 0.68039 0.0
C170 C 0.24434 0.44984 0.73159 0.0
C171 C 0.28281 0.4162 0.74481 0.0
C172 C 0.3154 0.39742 0.7076 0.0
C173 C 0.30963 0.41202 0.65687 0.0
H174 H 0.68337 0.94384 0.92855 0.0
C175 C 0.6985 0.9304 0.9647 0.0
H176 H 0.76415 0.92543 0.0106 0.0
H177 H 0.78882 0.98228 0.75955 0.0
H178 H 0.77299 0.89386 0.74412 0.0
H179 H 0.76196 0.83472 0.81582 0.0
H180 H 0.76519 0.86486 0.90352 0.0
C181 C 0.74852 0.93447 0.9734 0.0
C182 C 0.77982 0.96132 0.93466 0.0
C183 C 0.78136 0.94298 0.88396 0.0
C184 C 0.79077 0.97656 0.84294 0.0
C185 C 0.78566 0.95813 0.79245 0.0
C186 C 0.77586 0.90739 0.78298 0.0
C187 C 0.76942 0.87414 0.8233 0.0
C188 C 0.77134 0.89174 0.8733 0.0
H189 H 0.8691 0.03403 0.77703 0.0
C190 C 0.84084 0.06328 0.77523 0.0
H191 H 0.77665 0.09528 0.81091 0.0
H192 H 0.79328 0.00438 0.02842 0.0
H193 H 0.82098 0.09006 0.04539 0.0
H194 H 0.84181 0.14769 0.97465 0.0
H195 H 0.83455 0.12016 0.88647 0.0
C196 C 0.80499 0.06548 0.81141 0.0
C197 C 0.80258 0.0278 0.85335 0.0
C198 C 0.80857 0.04399 0.90454 0.0
C199 C 0.79714 0.01064 0.94534 0.0
C200 C 0.80146 0.02828 0.99609 0.0
C201 C 0.81752 0.07726 0.00632 0.0
C202 C 0.82924 0.10972 0.96648 0.0
C203 C 0.82479 0.09352 0.91609 0.0
H204 H 0.06133 0.16647 0.53215 0.0
C205 C 0.02502 0.18147 0.54503 0.0
H206 H 0.98001 0.24719 0.55102 0.0
H207 H 0.23121 0.29269 0.52143 0.0
H208 H 0.23784 0.27193 0.61111 0.0
H209 H 0.16207 0.24719 0.66045 0.0
H210 H 0.07906 0.24305 0.61984 0.0
C211 C 0.01712 0.23133 0.5428 0.0
C212 C 0.05761 0.26342 0.52041 0.0
C213 C 0.10557 0.26661 0.54465 0.0
C214 C 0.14895 0.28178 0.51637 0.0
C215 C 0.19674 0.28246 0.54108 0.0
C216 C 0.20111 0.27043 0.59263 0.0
C217 C 0.15849 0.25639 0.62039 0.0
C218 C 0.11123 0.25392 0.59671 0.0
H219 H 0.2191 0.36261 0.45678 0.0
C220 C 0.22336 0.33156 0.43026 0.0
H221 H 0.19176 0.26411 0.40221 0.0
H222 H 0.96893 0.27375 0.46721 0.0
H223 H 0.96019 0.30385 0.38011 0.0
H224 H 0.03533 0.33057 0.33088 0.0
H225 H 0.11975 0.32724 0.36847 0.0
C226 C 0.18873 0.2946 0.42979 0.0
C227 C 0.14374 0.29397 0.46396 0.0
C228 C 0.09471 0.29755 0.44205 0.0
C229 C 0.05142 0.28253 0.47048 0.0
C230 C 0.00303 0.28477 0.44716 0.0
C231 C -0.00248 0.30207 0.3973 0.0
C232 C 0.03983 0.31709 0.36956 0.0
C233 C 0.088 0.31481 0.39144 0.0
H234 H -0.00173 0.75159 0.85224 0.0
C235 C 0.03343 0.7604 0.83304 0.0
H236 H 0.07094 0.81228 0.78518 0.0
H237 H 0.85797 0.87925 0.69152 0.0
H238 H 0.85444 0.79531 0.6544 0.0
H239 H 0.91372 0.72881 0.68258 0.0
H240 H 0.97669 0.74574 0.74805 0.0
C241 C 0.03592 0.80195 0.80439 0.0
C242 C 0.99158 0.83558 0.79755 0.0
C243 C 0.95435 0.82429 0.76026 0.0
C244 C 0.92047 0.86263 0.74374 0.0
C245 C 0.88473 0.85141 0.70513 0.0
C246 C 0.88225 0.80341 0.68368 0.0
C247 C 0.91561 0.76595 0.69958 0.0
C248 C 0.95155 0.77614 0.73721 0.0
H249 H 0.98486 0.97364 0.71614 0.0
C250 C 0.94518 0.98232 0.70856 0.0
H251 H 0.86971 0.95935 0.72023 0.0
H252 H 0.0495 0.86434 0.8789 0.0
H253 H 0.04568 0.94522 0.92275 0.0
H254 H 0.98553 0.01115 0.89479 0.0
H255 H 0.92944 -0.00347 0.82246 0.0
C256 C 0.90905 0.95519 0.73174 0.0
C257 C 0.92504 0.91189 0.76387 0.0
C258 C 0.95613 0.92032 0.80707 0.0
C259 C 0.99009 0.88221 0.82355 0.0
C260 C 0.02284 0.89224 0.86508 0.0
C261 C 0.02091 0.93834 0.89055 0.0
C262 C 0.98706 0.97546 0.87481 0.0
C263 C 0.95523 0.96683 0.83326 0.0
H264 H 0.26041 0.63159 0.9889 0.0
C265 C 0.25587 0.66539 0.96627 0.0
H266 H 0.28079 0.73964 0.95354 0.0
H267 H 0.39018 0.80075 0.14816 0.0
H268 H 0.30721 0.83613 0.16755 0.0
H269 H 0.23167 0.81108 0.11793 0.0
H270 H 0.23884 0.75056 0.04833 0.0
C271 C 0.28612 0.70497 0.97493 0.0
C272 C 0.32578 0.70527 0.01507 0.0
C273 C 0.3206 0.739 0.05661 0.0
C274 C 0.36394 0.75295 0.08553 0.0
C275 C 0.35835 0.78872 0.12518 0.0
C276 C 0.31095 0.80918 0.13674 0.0
C277 C 0.26841 0.7951 0.10878 0.0
C278 C 0.273 0.76058 0.06892 0.0
H279 H 0.47053 0.78079 0.00867 0.0
C280 C 0.48356 0.78548 0.04777 0.0
H281 H 0.46732 0.77095 0.12488 0.0
H282 H 0.34662 0.63064 0.94512 0.0
H283 H 0.42704 0.58754 0.93385 0.0
H284 H 0.50106 0.60921 0.98725 0.0
H285 H 0.49492 0.67519 0.05156 0.0
C286 C 0.45843 0.76225 0.08545 0.0
C287 C 0.41204 0.73302 0.07241 0.0
C288 C 0.41526 0.69262 0.03719 0.0
C289 C 0.37221 0.67922 0.00759 0.0
C290 C 0.37765 0.64167 0.96958 0.0
C291 C 0.42372 0.61665 0.96263 0.0
C292 C 0.46541 0.62886 0.99265 0.0
C293 C 0.46152 0.66672 0.02929 0.0
H294 H 0.49942 0.24239 0.32312 0.0
C295 C 0.46157 0.22929 0.31385 0.0
H296 H 0.418 0.17324 0.27739 0.0
H297 H 0.57799 0.09685 0.12243 0.0
H298 H 0.5307 0.15461 0.0681 0.0
H299 H 0.46886 0.21429 0.10524 0.0
H300 H 0.45407 0.21675 0.19671 0.0
C301 C 0.45562 0.18549 0.28904 0.0
C302 C 0.49939 0.15676 0.2685 0.0
C303 C 0.5077 0.15632 0.21514 0.0
C304 C 0.5428 0.12171 0.19367 0.0
C305 C 0.55069 0.12181 0.14028 0.0
C306 C 0.52414 0.15494 0.10886 0.0
C307 C 0.48935 0.18856 0.12978 0.0
C308 C 0.48107 0.18944 0.18229 0.0
H309 H 0.51533 0.01781 0.18095 0.0
C310 C 0.55552 0.00828 0.17959 0.0
H311 H 0.62936 0.03309 0.20006 0.0
H312 H 0.49782 0.15302 0.373 0.0
H313 H 0.55368 0.10324 0.4269 0.0
H314 H 0.61906 0.04826 0.38904 0.0
H315 H 0.62791 0.04183 0.29644 0.0
C316 C 0.58869 0.03942 0.20259 0.0
C317 C 0.56862 0.08703 0.2255 0.0
C318 C 0.56637 0.09326 0.27907 0.0
C319 C 0.53047 0.12713 0.30082 0.0
C320 C 0.52564 0.12923 0.35453 0.0
C321 C 0.55732 0.10073 0.38585 0.0
C322 C 0.59404 0.06953 0.36449 0.0
C323 C 0.59838 0.06549 0.31164 0.0
H324 H 0.71758 0.11136 0.52039 0.0
C325 C 0.72293 0.14457 0.54374 0.0
H326 H 0.69468 0.21622 0.56411 0.0
H327 H 0.58433 0.24168 0.35053 0.0
H328 H 0.66755 0.23543 0.3106 0.0
H329 H 0.74187 0.20664 0.35996 0.0
H330 H 0.73324 0.18262 0.44896 0.0
C331 C 0.69016 0.18322 0.53994 0.0
C332 C 0.64565 0.18363 0.50519 0.0
C333 C 0.65164 0.19718 0.45331 0.0
C334 C 0.60913 0.21509 0.42522 0.0
C335 C 0.61575 0.22874 0.37357 0.0
C336 C 0.66318 0.22514 0.3503 0.0
C337 C 0.705 0.20875 0.37806 0.0
C338 C 0.69959 0.19514 0.42911 0.0
H339 H 0.56686 0.31773 0.43662 0.0
C340 C 0.52999 0.30332 0.42493 0.0
H341 H 0.48369 0.23876 0.42041 0.0
H342 H 0.61996 0.14773 0.59894 0.0
H343 H 0.53523 0.14653 0.63614 0.0
H344 H 0.46149 0.17838 0.58777 0.0
H345 H 0.47183 0.21154 0.50213 0.0
C346 C 0.52148 0.25351 0.42732 0.0
C347 C 0.56124 0.22 0.44939 0.0
C348 C 0.55394 0.19925 0.49857 0.0
C349 C 0.5964 0.18119 0.52658 0.0
C350 C 0.58879 0.16236 0.57644 0.0
C351 C 0.54047 0.16129 0.59803 0.0
C352 C 0.49894 0.1792 0.57077 0.0
C353 C 0.50539 0.19822 0.52168 0.0
H354 H 0.07052 0.48526 0.75395 0.0
C355 C 0.08665 0.46993 0.78874 0.0
H356 H 0.10235 0.40506 0.83146 0.0
H357 H 0.90547 0.29369 0.75914 0.0
H358 H 0.89331 0.30104 0.85023 0.0
H359 H 0.95378 0.34882 0.90323 0.0
H360 H 0.02702 0.38862 0.86563 0.0
C361 C 0.0874 0.41993 0.79588 0.0
C362 C 0.05449 0.38693 0.7641 0.0
C363 C 0.01126 0.36445 0.78699 0.0
C364 C 0.97557 0.33828 0.7563 0.0
C365 C 0.93332 0.31511 0.78028 0.0
C366 C 0.92585 0.31887 0.8327 0.0
C367 C 0.95993 0.34566 0.86252 0.0
C368 C 0.00207 0.3683 0.84023 0.0
H369 H 0.99137 0.24919 0.6512 0.0
C370 C 0.95266 0.26329 0.65289 0.0
H371 H 0.90459 0.32296 0.67451 0.0
H372 H 0.13768 0.41672 0.71012 0.0
H373 H 0.14914 0.41058 0.61795 0.0
H374 H 0.08222 0.37451 0.56357 0.0
H375 H 0.00548 0.33962 0.60099 0.0
C376 C 0.94349 0.30944 0.67165 0.0
C377 C 0.98239 0.33575 0.70268 0.0
C378 C 0.02592 0.35739 0.67988 0.0
C379 C 0.06282 0.38171 0.71089 0.0
C380 C 0.10754 0.40016 0.68775 0.0
C381 C 0.11452 0.39686 0.63514 0.0
C382 C 0.077 0.37602 0.6045 0.0
C383 C 0.03324 0.35607 0.62642 0.0
H384 H 0.94872 0.6866 0.86675 0.0
C385 C 0.95374 0.66262 0.89978 0.0
H386 H 0.92667 0.64365 0.97295 0.0
H387 H 0.8415 0.87374 0.9733 0.0
H388 H 0.93028 0.89935 0.97173 0.0
H389 H -0.00182 0.83622 0.95941 0.0
H390 H 0.97791 0.74829 0.94585 0.0
C391 C 0.92221 0.66742 0.93953 0.0
C392 C 0.88223 0.70693 0.94087 0.0
C393 C 0.89536 0.75808 0.94962 0.0
C394 C 0.85659 0.79402 0.95957 0.0
C395 C 0.87001 0.84506 0.96697 0.0
C396 C 0.92062 0.86011 0.96606 0.0
C397 C 0.95881 0.82463 0.95879 0.0
C398 C 0.9466 0.77416 0.95084 0.0
H399 H 0.81535 0.80548 0.05896 0.0
C400 C 0.77866 0.81685 0.04369 0.0
H401 H 0.73105 0.81623 0.97923 0.0
H402 H 0.84438 0.61452 0.91554 0.0
H403 H 0.75533 0.59064 0.91319 0.0
H404 H 0.68826 0.65252 0.93359 0.0
H405 H 0.70965 0.73854 0.95605 0.0
C406 C 0.76881 0.80891 0.9941 0.0
C407 C 0.80546 0.77824 0.96382 0.0
C408 C 0.79193 0.7286 0.94926 0.0
C409 C 0.83053 0.69281 0.93789 0.0
C410 C 0.8164 0.64299 0.92493 0.0
C411 C 0.76551 0.62886 0.92334 0.0
C412 C 0.72775 0.66371 0.93482 0.0
C413 C 0.74058 0.71299 0.94785 0.0
H414 H 0.53494 0.70841 0.12104 0.0
C415 C 0.56396 0.71034 0.14996 0.0
H416 H 0.59509 0.67577 0.21528 0.0
H417 H 0.36687 0.58176 0.23679 0.0
H418 H 0.33526 0.66795 0.24069 0.0
H419 H 0.39274 0.73954 0.22477 0.0
H420 H 0.48097 0.72549 0.20284 0.0
C421 C 0.56533 0.67517 0.18657 0.0
C422 C 0.52779 0.63354 0.18923 0.0
C423 C 0.47672 0.64311 0.2037 0.0
C424 C 0.44431 0.60217 0.21592 0.0
C425 C 0.39309 0.61197 0.22869 0.0
C426 C 0.37461 0.66109 0.23092 0.0
C427 C 0.4069 0.70137 0.22165 0.0
C428 C 0.4575 0.69273 0.20864 0.0
H429 H 0.44548 0.55861 0.3148 0.0
C430 C 0.43404 0.52221 0.29954 0.0
H431 H 0.4316 0.47626 0.23403 0.0
H432 H 0.6193 0.60231 0.15155 0.0
H433 H 0.64834 0.51568 0.14323 0.0
H434 H 0.59307 0.44496 0.16836 0.0
H435 H 0.50843 0.46031 0.20152 0.0
C436 C 0.43876 0.5136 0.24931 0.0
C437 C 0.46392 0.55248 0.21712 0.0
C438 C 0.51263 0.54252 0.19657 0.0
C439 C 0.54466 0.58325 0.18259 0.0
C440 C 0.59374 0.57263 0.16331 0.0
C441 C 0.61076 0.52315 0.1582 0.0
C442 C 0.57963 0.48334 0.17234 0.0
C443 C 0.53116 0.49268 0.19151 0.0
loop_
_geom_bond_atom_site_label_1
_geom_bond_atom_site_label_2
_geom_bond_distance
_geom_bond_site_symmetry_2
_ccdc_geom_bond_type
Zn0 O6 1.920 . S
Zn0 O12 1.898 . S
Zn0 O15 1.905 . S
Zn1 O9 1.905 . S
Zn1 O10 1.898 . S
Zn1 O18 1.920 . S
Zn2 O5 2.080 . S
Zn2 O8 2.114 . S
Zn2 O11 2.120 . S
Zn2 O13 2.120 . S
Zn2 O14 2.114 . S
Zn2 O17 2.080 . S
C3 O8 1.166 . S
C3 O9 1.182 . S
C4 O10 1.167 . S
C4 O11 1.299 . S
O5 Zn2 2.080 . S
O5 C19 1.305 . S
O6 Zn0 1.920 . S
O6 C19 1.234 . S
C7 O12 1.167 . S
C7 O13 1.299 . S
O8 Zn2 2.114 . S
O8 C3 1.166 . S
O9 Zn1 1.905 . S
O9 C3 1.182 . S
O10 Zn1 1.898 . S
O10 C4 1.167 . S
O11 Zn2 2.120 . S
O11 C4 1.299 . S
O12 Zn0 1.898 . S
O12 C7 1.167 . S
O13 Zn2 2.120 . S
O13 C7 1.299 . S
O14 Zn2 2.114 . S
O14 C16 1.166 . S
O15 Zn0 1.905 . S
O15 C16 1.182 . S
C16 O14 1.166 . S
C16 O15 1.182 . S
O17 Zn2 2.080 . S
O17 C20 1.305 . S
O18 Zn1 1.920 . S
O18 C20 1.234 . S
C19 O5 1.305 . S
C19 O6 1.234 . S
C20 O17 1.305 . S
C20 O18 1.234 . S
Zn21 O27 1.920 . S
Zn21 O33 1.898 . S
Zn21 O36 1.905 . S
Zn22 O30 1.905 . S
Zn22 O31 1.898 . S
Zn22 O39 1.920 . S
Zn23 O26 2.080 . S
Zn23 O29 2.114 . S
Zn23 O32 2.120 . S
Zn23 O34 2.120 . S
Zn23 O35 2.114 . S
Zn23 O38 2.080 . S
C24 O29 1.166 . S
C24 O30 1.182 . S
C25 O31 1.167 . S
C25 O32 1.299 . S
O26 Zn23 2.080 . S
O26 C40 1.305 . S
O27 Zn21 1.920 . S
O27 C40 1.234 . S
C28 O33 1.167 . S
C28 O34 1.299 . S
O29 Zn23 2.114 . S
O29 C24 1.166 . S
O30 Zn22 1.905 . S
O30 C24 1.182 . S
O31 Zn22 1.898 . S
O31 C25 1.167 . S
O32 Zn23 2.120 . S
O32 C25 1.299 . S
O33 Zn21 1.898 . S
O33 C28 1.167 . S
O34 Zn23 2.120 . S
O34 C28 1.299 . S
O35 Zn23 2.114 . S
O35 C37 1.166 . S
O36 Zn21 1.905 . S
O36 C37 1.182 . S
C37 O35 1.166 . S
C37 O36 1.182 . S
O38 Zn23 2.080 . S
O38 C41 1.305 . S
O39 Zn22 1.920 . S
O39 C41 1.234 . S
C40 O26 1.305 . S
C40 O27 1.234 . S
C41 O38 1.305 . S
C41 O39 1.234 . S
Zn42 O48 1.920 . S
Zn42 O54 1.898 . S
Zn42 O57 1.905 . S
Zn43 O51 1.905 . S
Zn43 O52 1.898 . S
Zn43 O60 1.920 . S
Zn44 O47 2.080 . S
Zn44 O50 2.114 . S
Zn44 O53 2.120 . S
Zn44 O55 2.120 . S
Zn44 O56 2.114 . S
Zn44 O59 2.080 . S
C45 O50 1.166 . S
C45 O51 1.182 . S
C46 O52 1.167 . S
C46 O53 1.299 . S
O47 Zn44 2.080 . S
O47 C61 1.305 . S
O48 Zn42 1.920 . S
O48 C61 1.234 . S
C49 O54 1.167 . S
C49 O55 1.299 . S
O50 Zn44 2.114 . S
O50 C45 1.166 . S
O51 Zn43 1.905 . S
O51 C45 1.182 . S
O52 Zn43 1.898 . S
O52 C46 1.167 . S
O53 Zn44 2.120 . S
O53 C46 1.299 . S
O54 Zn42 1.898 . S
O54 C49 1.167 . S
O55 Zn44 2.120 . S
O55 C49 1.299 . S
O56 Zn44 2.114 . S
O56 C58 1.166 . S
O57 Zn42 1.905 . S
O57 C58 1.182 . S
C58 O56 1.166 . S
C58 O57 1.182 . S
O59 Zn44 2.080 . S
O59 C62 1.305 . S
O60 Zn43 1.920 . S
O60 C62 1.234 . S
C61 O47 1.305 . S
C61 O48 1.234 . S
C62 O59 1.305 . S
C62 O60 1.234 . S
Zn63 O69 1.920 . S
Zn63 O75 1.898 . S
Zn63 O78 1.905 . S
Zn64 O72 1.905 . S
Zn64 O73 1.898 . S
Zn64 O81 1.920 . S
Zn65 O68 2.080 . S
Zn65 O71 2.114 . S
Zn65 O74 2.120 . S
Zn65 O76 2.120 . S
Zn65 O77 2.114 . S
Zn65 O80 2.080 . S
C66 O71 1.166 . S
C66 O72 1.182 . S
C67 O73 1.167 . S
C67 O74 1.299 . S
O68 Zn65 2.080 . S
O68 C82 1.305 . S
O69 Zn63 1.920 . S
O69 C82 1.234 . S
C70 O75 1.167 . S
C70 O76 1.299 . S
O71 Zn65 2.114 . S
O71 C66 1.166 . S
O72 Zn64 1.905 . S
O72 C66 1.182 . S
O73 Zn64 1.898 . S
O73 C67 1.167 . S
O74 Zn65 2.120 . S
O74 C67 1.299 . S
O75 Zn63 1.898 . S
O75 C70 1.167 . S
O76 Zn65 2.120 . S
O76 C70 1.299 . S
O77 Zn65 2.114 . S
O77 C79 1.166 . S
O78 Zn63 1.905 . S
O78 C79 1.182 . S
C79 O77 1.166 . S
C79 O78 1.182 . S
O80 Zn65 2.080 . S
O80 C83 1.305 . S
O81 Zn64 1.920 . S
O81 C83 1.234 . S
C82 O68 1.305 . S
C82 O69 1.234 . S
C83 O80 1.305 . S
C83 O81 1.234 . S
H84 C85 0.951 . S
C85 H84 0.951 . S
C85 C91 1.265 . S
H86 C91 0.950 1_556 S
H87 C95 0.949 . S
H88 C96 0.950 . S
H89 C97 0.951 . S
H90 C98 0.951 . S
C91 C85 1.265 . S
C91 H86 0.950 1_554 S
C91 C92 1.478 . S
C92 C91 1.478 . S
C92 C93 1.397 . S
C92 C109 1.394 . S
C93 C92 1.397 . S
C93 C94 1.438 . S
C93 C98 1.429 . S
C94 C93 1.438 . S
C94 C95 1.428 . S
C94 C107 1.394 . S
C95 H87 0.949 . S
C95 C94 1.428 . S
C95 C96 1.345 . S
C96 H88 0.950 . S
C96 C95 1.345 . S
C96 C97 1.424 . S
C97 H89 0.951 . S
C97 C96 1.424 . S
C97 C98 1.347 . S
C98 H90 0.951 . S
C98 C93 1.429 . S
C98 C97 1.347 . S
H99 C100 0.951 . S
C100 H99 0.951 . S
C100 C106 1.265 . S
H101 C106 0.950 . S
H102 C110 0.949 . S
H103 C111 0.950 . S
H104 C112 0.951 . S
H105 C113 0.951 . S
C106 C100 1.265 . S
C106 H101 0.950 . S
C106 C107 1.478 . S
C107 C94 1.394 . S
C107 C106 1.478 . S
C107 C108 1.397 . S
C108 C107 1.397 . S
C108 C109 1.438 . S
C108 C113 1.429 . S
C109 C92 1.394 . S
C109 C108 1.438 . S
C109 C110 1.428 . S
C110 H102 0.949 . S
C110 C109 1.428 . S
C110 C111 1.345 . S
C111 H103 0.950 . S
C111 C110 1.345 . S
C111 C112 1.424 . S
C112 H104 0.951 . S
C112 C111 1.424 . S
C112 C113 1.347 . S
C113 H105 0.951 . S
C113 C108 1.429 . S
C113 C112 1.347 . S
H114 C115 0.951 . S
C115 H114 0.951 . S
C115 C121 1.265 . S
H116 C121 0.950 . S
H117 C125 0.949 . S
H118 C126 0.950 . S
H119 C127 0.951 . S
H120 C128 0.951 . S
C121 C115 1.265 . S
C121 H116 0.950 . S
C121 C122 1.478 . S
C122 C121 1.478 . S
C122 C123 1.397 1_565 S
C122 C139 1.394 . S
C123 C122 1.397 1_545 S
C123 C124 1.438 . S
C123 C128 1.429 . S
C124 C123 1.438 . S
C124 C125 1.428 . S
C124 C137 1.394 . S
C125 H117 0.949 . S
C125 C124 1.428 . S
C125 C126 1.345 . S
C126 H118 0.950 . S
C126 C125 1.345 . S
C126 C127 1.424 . S
C127 H119 0.951 . S
C127 C126 1.424 . S
C127 C128 1.347 . S
C128 H120 0.951 . S
C128 C123 1.429 . S
C128 C127 1.347 . S
H129 C130 0.951 . S
C130 H129 0.951 . S
C130 C136 1.265 . S
H131 C136 0.950 . S
H132 C140 0.949 . S
H133 C141 0.950 . S
H134 C142 0.951 . S
H135 C143 0.951 . S
C136 C130 1.265 . S
C136 H131 0.950 . S
C136 C137 1.478 . S
C137 C124 1.394 . S
C137 C136 1.478 . S
C137 C138 1.397 1_545 S
C138 C137 1.397 1_565 S
C138 C139 1.438 . S
C138 C143 1.429 . S
C139 C122 1.394 . S
C139 C138 1.438 . S
C139 C140 1.428 . S
C140 H132 0.949 . S
C140 C139 1.428 . S
C140 C141 1.345 . S
C141 H133 0.950 . S
C141 C140 1.345 . S
C141 C142 1.424 . S
C142 H134 0.951 . S
C142 C141 1.424 . S
C142 C143 1.347 . S
C143 H135 0.951 . S
C143 C138 1.429 . S
C143 C142 1.347 . S
H144 C145 0.951 . S
C145 H144 0.951 . S
C145 C151 1.265 . S
H146 C151 0.950 . S
H147 C155 0.949 . S
H148 C156 0.950 . S
H149 C157 0.951 . S
H150 C158 0.951 . S
C151 C145 1.265 . S
C151 H146 0.950 . S
C151 C152 1.478 . S
C152 C151 1.478 . S
C152 C153 1.397 . S
C152 C169 1.394 . S
C153 C152 1.397 . S
C153 C154 1.438 . S
C153 C158 1.429 . S
C154 C153 1.438 . S
C154 C155 1.428 . S
C154 C167 1.394 . S
C155 H147 0.949 . S
C155 C154 1.428 . S
C155 C156 1.345 . S
C156 H148 0.950 . S
C156 C155 1.345 . S
C156 C157 1.424 . S
C157 H149 0.951 . S
C157 C156 1.424 . S
C157 C158 1.347 . S
C158 H150 0.951 . S
C158 C153 1.429 . S
C158 C157 1.347 . S
H159 C160 0.951 . S
C160 H159 0.951 . S
C160 C166 1.265 . S
H161 C166 0.950 . S
H162 C170 0.949 . S
H163 C171 0.950 . S
H164 C172 0.951 . S
H165 C173 0.951 . S
C166 C160 1.265 . S
C166 H161 0.950 . S
C166 C167 1.478 . S
C167 C154 1.394 . S
C167 C166 1.478 . S
C167 C168 1.397 . S
C168 C167 1.397 . S
C168 C169 1.438 . S
C168 C173 1.429 . S
C169 C152 1.394 . S
C169 C168 1.438 . S
C169 C170 1.428 . S
C170 H162 0.949 . S
C170 C169 1.428 . S
C170 C171 1.345 . S
C171 H163 0.950 . S
C171 C170 1.345 . S
C171 C172 1.424 . S
C172 H164 0.951 . S
C172 C171 1.424 . S
C172 C173 1.347 . S
C173 H165 0.951 . S
C173 C168 1.429 . S
C173 C172 1.347 . S
H174 C175 0.951 . S
C175 H174 0.951 . S
C175 C181 1.265 . S
H176 C181 0.950 1_554 S
H177 C185 0.949 . S
H178 C186 0.950 . S
H179 C187 0.951 . S
H180 C188 0.951 . S
C181 C175 1.265 . S
C181 H176 0.950 1_556 S
C181 C182 1.478 . S
C182 C181 1.478 . S
C182 C183 1.397 . S
C182 C199 1.394 1_565 S
C183 C182 1.397 . S
C183 C184 1.438 . S
C183 C188 1.429 . S
C184 C183 1.438 . S
C184 C185 1.428 . S
C184 C197 1.394 1_565 S
C185 H177 0.949 . S
C185 C184 1.428 . S
C185 C186 1.345 . S
C186 H178 0.950 . S
C186 C185 1.345 . S
C186 C187 1.424 . S
C187 H179 0.951 . S
C187 C186 1.424 . S
C187 C188 1.347 . S
C188 H180 0.951 . S
C188 C183 1.429 . S
C188 C187 1.347 . S
H189 C190 0.951 . S
C190 H189 0.951 . S
C190 C196 1.265 . S
H191 C196 0.950 . S
H192 C200 0.949 . S
H193 C201 0.950 . S
H194 C202 0.951 . S
H195 C203 0.951 . S
C196 C190 1.265 . S
C196 H191 0.950 . S
C196 C197 1.478 . S
C197 C184 1.394 1_545 S
C197 C196 1.478 . S
C197 C198 1.397 . S
C198 C197 1.397 . S
C198 C199 1.438 . S
C198 C203 1.429 . S
C199 C182 1.394 1_545 S
C199 C198 1.438 . S
C199 C200 1.428 . S
C200 H192 0.949 . S
C200 C199 1.428 . S
C200 C201 1.345 . S
C201 H193 0.950 . S
C201 C200 1.345 . S
C201 C202 1.424 . S
C202 H194 0.951 . S
C202 C201 1.424 . S
C202 C203 1.347 . S
C203 H195 0.951 . S
C203 C198 1.429 . S
C203 C202 1.347 . S
H204 C205 0.950 1_655 S
C205 H204 0.950 1_455 S
C205 C211 1.269 . S
H206 C211 0.950 . S
H207 C215 0.949 . S
H208 C216 0.950 . S
H209 C217 0.951 . S
H210 C218 0.951 . S
C211 C205 1.269 . S
C211 H206 0.950 . S
C211 C212 1.478 . S
C212 C211 1.478 . S
C212 C213 1.397 . S
C212 C229 1.394 . S
C213 C212 1.397 . S
C213 C214 1.438 . S
C213 C218 1.429 . S
C214 C213 1.438 . S
C214 C215 1.428 . S
C214 C227 1.394 . S
C215 H207 0.949 . S
C215 C214 1.428 . S
C215 C216 1.345 . S
C216 H208 0.950 . S
C216 C215 1.345 . S
C216 C217 1.424 . S
C217 H209 0.951 . S
C217 C216 1.424 . S
C217 C218 1.347 . S
C218 H210 0.951 . S
C218 C213 1.429 . S
C218 C217 1.347 . S
H219 C220 0.951 . S
C220 H219 0.951 . S
C220 C226 1.265 . S
H221 C226 0.950 . S
H222 C230 0.949 1_655 S
H223 C231 0.950 1_655 S
H224 C232 0.951 . S
H225 C233 0.951 . S
C226 C220 1.265 . S
C226 H221 0.950 . S
C226 C227 1.478 . S
C227 C214 1.394 . S
C227 C226 1.478 . S
C227 C228 1.397 . S
C228 C227 1.397 . S
C228 C229 1.438 . S
C228 C233 1.429 . S
C229 C212 1.394 . S
C229 C228 1.438 . S
C229 C230 1.428 . S
C230 H222 0.949 1_455 S
C230 C229 1.428 . S
C230 C231 1.345 . S
C231 H223 0.950 1_455 S
C231 C230 1.345 . S
C231 C232 1.424 . S
C232 H224 0.951 . S
C232 C231 1.424 . S
C232 C233 1.347 . S
C233 H225 0.951 . S
C233 C228 1.429 . S
C233 C232 1.347 . S
H234 C235 0.951 . S
C235 H234 0.951 . S
C235 C241 1.265 . S
H236 C241 0.950 . S
H237 C245 0.949 . S
H238 C246 0.950 . S
H239 C247 0.951 . S
H240 C248 0.951 . S
C241 C235 1.265 . S
C241 H236 0.950 . S
C241 C242 1.478 . S
C242 C241 1.478 . S
C242 C243 1.397 . S
C242 C259 1.394 . S
C243 C242 1.397 . S
C243 C244 1.438 . S
C243 C248 1.429 . S
C244 C243 1.438 . S
C244 C245 1.428 1_455 S
C244 C257 1.394 1_455 S
C245 H237 0.949 . S
C245 C244 1.428 1_655 S
C245 C246 1.345 1_655 S
C246 H238 0.950 . S
C246 C245 1.345 1_455 S
C246 C247 1.424 . S
C247 H239 0.951 . S
C247 C246 1.424 . S
C247 C248 1.347 . S
C248 H240 0.951 . S
C248 C243 1.429 . S
C248 C247 1.347 . S
H249 C250 0.951 . S
C250 H249 0.951 . S
C250 C256 1.265 . S
H251 C256 0.950 . S
H252 C260 0.949 . S
H253 C261 0.950 . S
H254 C262 0.951 . S
H255 C263 0.951 . S
C256 C250 1.265 . S
C256 H251 0.950 . S
C256 C257 1.478 . S
C257 C244 1.394 1_655 S
C257 C256 1.478 . S
C257 C258 1.397 . S
C258 C257 1.397 . S
C258 C259 1.438 1_655 S
C258 C263 1.429 . S
C259 C242 1.394 . S
C259 C258 1.438 1_455 S
C259 C260 1.428 . S
C260 H252 0.949 . S
C260 C259 1.428 . S
C260 C261 1.345 . S
C261 H253 0.950 . S
C261 C260 1.345 . S
C261 C262 1.424 1_455 S
C262 H254 0.951 . S
C262 C261 1.424 1_655 S
C262 C263 1.347 . S
C263 H255 0.951 . S
C263 C258 1.429 . S
C263 C262 1.347 . S
H264 C265 0.951 . S
C265 H264 0.951 . S
C265 C271 1.265 . S
H266 C271 0.950 . S
H267 C275 0.949 . S
H268 C276 0.950 . S
H269 C277 0.951 . S
H270 C278 0.951 . S
C271 C265 1.265 . S
C271 H266 0.950 . S
C271 C272 1.478 . S
C272 C271 1.478 . S
C272 C273 1.397 1_556 S
C272 C289 1.394 . S
C273 C272 1.397 1_554 S
C273 C274 1.438 . S
C273 C278 1.429 . S
C274 C273 1.438 . S
C274 C275 1.428 . S
C274 C287 1.394 . S
C275 H267 0.949 . S
C275 C274 1.428 . S
C275 C276 1.345 . S
C276 H268 0.950 . S
C276 C275 1.345 . S
C276 C277 1.424 . S
C277 H269 0.951 . S
C277 C276 1.424 . S
C277 C278 1.347 . S
C278 H270 0.951 . S
C278 C273 1.429 . S
C278 C277 1.347 . S
H279 C280 0.951 . S
C280 H279 0.951 . S
C280 C286 1.265 . S
H281 C286 0.950 1_556 S
H282 C290 0.949 . S
H283 C291 0.950 . S
H284 C292 0.951 . S
H285 C293 0.951 . S
C286 C280 1.265 . S
C286 H281 0.950 1_554 S
C286 C287 1.478 . S
C287 C274 1.394 . S
C287 C286 1.478 . S
C287 C288 1.397 1_554 S
C288 C287 1.397 1_556 S
C288 C289 1.438 . S
C288 C293 1.429 . S
C289 C272 1.394 . S
C289 C288 1.438 . S
C289 C290 1.428 . S
C290 H282 0.949 . S
C290 C289 1.428 . S
C290 C291 1.345 . S
C291 H283 0.950 . S
C291 C290 1.345 . S
C291 C292 1.424 . S
C292 H284 0.951 . S
C292 C291 1.424 . S
C292 C293 1.347 . S
C293 H285 0.951 . S
C293 C288 1.429 . S
C293 C292 1.347 . S
H294 C295 0.951 . S
C295 H294 0.951 . S
C295 C301 1.265 . S
H296 C301 0.950 . S
H297 C305 0.949 . S
H298 C306 0.950 . S
H299 C307 0.951 . S
H300 C308 0.951 . S
C301 C295 1.265 . S
C301 H296 0.950 . S
C301 C302 1.478 . S
C302 C301 1.478 . S
C302 C303 1.397 . S
C302 C319 1.394 . S
C303 C302 1.397 . S
C303 C304 1.438 . S
C303 C308 1.429 . S
C304 C303 1.438 . S
C304 C305 1.428 . S
C304 C317 1.394 . S
C305 H297 0.949 . S
C305 C304 1.428 . S
C305 C306 1.345 . S
C306 H298 0.950 . S
C306 C305 1.345 . S
C306 C307 1.424 . S
C307 H299 0.951 . S
C307 C306 1.424 . S
C307 C308 1.347 . S
C308 H300 0.951 . S
C308 C303 1.429 . S
C308 C307 1.347 . S
H309 C310 0.951 . S
C310 H309 0.951 . S
C310 C316 1.265 . S
H311 C316 0.950 . S
H312 C320 0.949 . S
H313 C321 0.950 . S
H314 C322 0.951 . S
H315 C323 0.951 . S
C316 C310 1.265 . S
C316 H311 0.950 . S
C316 C317 1.478 . S
C317 C304 1.394 . S
C317 C316 1.478 . S
C317 C318 1.397 . S
C318 C317 1.397 . S
C318 C319 1.438 . S
C318 C323 1.429 . S
C319 C302 1.394 . S
C319 C318 1.438 . S
C319 C320 1.428 . S
C320 H312 0.949 . S
C320 C319 1.428 . S
C320 C321 1.345 . S
C321 H313 0.950 . S
C321 C320 1.345 . S
C321 C322 1.424 . S
C322 H314 0.951 . S
C322 C321 1.424 . S
C322 C323 1.347 . S
C323 H315 0.951 . S
C323 C318 1.429 . S
C323 C322 1.347 . S
H324 C325 0.951 . S
C325 H324 0.951 . S
C325 C331 1.265 . S
H326 C331 0.950 . S
H327 C335 0.949 . S
H328 C336 0.950 . S
H329 C337 0.951 . S
H330 C338 0.951 . S
C331 C325 1.265 . S
C331 H326 0.950 . S
C331 C332 1.478 . S
C332 C331 1.478 . S
C332 C333 1.397 . S
C332 C349 1.394 . S
C333 C332 1.397 . S
C333 C334 1.438 . S
C333 C338 1.429 . S
C334 C333 1.438 . S
C334 C335 1.428 . S
C334 C347 1.394 . S
C335 H327 0.949 . S
C335 C334 1.428 . S
C335 C336 1.345 . S
C336 H328 0.950 . S
C336 C335 1.345 . S
C336 C337 1.424 . S
C337 H329 0.951 . S
C337 C336 1.424 . S
C337 C338 1.347 . S
C338 H330 0.951 . S
C338 C333 1.429 . S
C338 C337 1.347 . S
H339 C340 0.951 . S
C340 H339 0.951 . S
C340 C346 1.265 . S
H341 C346 0.950 . S
H342 C350 0.949 . S
H343 C351 0.950 . S
H344 C352 0.951 . S
H345 C353 0.951 . S
C346 C340 1.265 . S
C346 H341 0.950 . S
C346 C347 1.478 . S
C347 C334 1.394 . S
C347 C346 1.478 . S
C347 C348 1.397 . S
C348 C347 1.397 . S
C348 C349 1.438 . S
C348 C353 1.429 . S
C349 C332 1.394 . S
C349 C348 1.438 . S
C349 C350 1.428 . S
C350 H342 0.949 . S
C350 C349 1.428 . S
C350 C351 1.345 . S
C351 H343 0.950 . S
C351 C350 1.345 . S
C351 C352 1.424 . S
C352 H344 0.951 . S
C352 C351 1.424 . S
C352 C353 1.347 . S
C353 H345 0.951 . S
C353 C348 1.429 . S
C353 C352 1.347 . S
H354 C355 0.951 . S
C355 H354 0.951 . S
C355 C361 1.265 . S
H356 C361 0.950 . S
H357 C365 0.949 . S
H358 C366 0.950 . S
H359 C367 0.951 . S
H360 C368 0.951 . S
C361 C355 1.265 . S
C361 H356 0.950 . S
C361 C362 1.478 . S
C362 C361 1.478 . S
C362 C363 1.397 1_455 S
C362 C379 1.394 . S
C363 C362 1.397 1_655 S
C363 C364 1.438 . S
C363 C368 1.429 . S
C364 C363 1.438 . S
C364 C365 1.428 . S
C364 C377 1.394 . S
C365 H357 0.949 . S
C365 C364 1.428 . S
C365 C366 1.345 . S
C366 H358 0.950 . S
C366 C365 1.345 . S
C366 C367 1.424 . S
C367 H359 0.951 . S
C367 C366 1.424 . S
C367 C368 1.347 . S
C368 H360 0.951 . S
C368 C363 1.429 . S
C368 C367 1.347 . S
H369 C370 0.951 . S
C370 H369 0.951 . S
C370 C376 1.265 . S
H371 C376 0.950 . S
H372 C380 0.949 . S
H373 C381 0.950 . S
H374 C382 0.951 . S
H375 C383 0.951 . S
C376 C370 1.265 . S
C376 H371 0.950 . S
C376 C377 1.478 . S
C377 C364 1.394 . S
C377 C376 1.478 . S
C377 C378 1.397 1_655 S
C378 C377 1.397 1_455 S
C378 C379 1.438 . S
C378 C383 1.429 . S
C379 C362 1.394 . S
C379 C378 1.438 . S
C379 C380 1.428 . S
C380 H372 0.949 . S
C380 C379 1.428 . S
C380 C381 1.345 . S
C381 H373 0.950 . S
C381 C380 1.345 . S
C381 C382 1.424 . S
C382 H374 0.951 . S
C382 C381 1.424 . S
C382 C383 1.347 . S
C383 H375 0.951 . S
C383 C378 1.429 . S
C383 C382 1.347 . S
H384 C385 0.946 1_455 S
C385 H384 0.946 1_655 S
C385 C391 1.284 . S
H386 C391 0.950 . S
H387 C395 0.949 . S
H388 C396 0.950 . S
H389 C397 0.951 . S
H390 C398 0.951 . S
C391 C385 1.284 . S
C391 H386 0.950 . S
C391 C392 1.478 . S
C392 C391 1.478 . S
C392 C393 1.397 1_556 S
C392 C409 1.394 . S
C393 C392 1.397 1_554 S
C393 C394 1.438 . S
C393 C398 1.429 . S
C394 C393 1.438 . S
C394 C395 1.428 . S
C394 C407 1.394 . S
C395 H387 0.949 . S
C395 C394 1.428 . S
C395 C396 1.345 . S
C396 H388 0.950 . S
C396 C395 1.345 . S
C396 C397 1.424 . S
C397 H389 0.951 . S
C397 C396 1.424 . S
C397 C398 1.347 . S
C398 H390 0.951 . S
C398 C393 1.429 . S
C398 C397 1.347 . S
H399 C400 0.951 . S
C400 H399 0.951 . S
C400 C406 1.265 . S
H401 C406 0.950 . S
H402 C410 0.949 . S
H403 C411 0.950 . S
H404 C412 0.951 . S
H405 C413 0.951 . S
C406 C400 1.265 . S
C406 H401 0.950 . S
C406 C407 1.478 . S
C407 C394 1.394 . S
C407 C406 1.478 . S
C407 C408 1.397 1_554 S
C408 C407 1.397 1_556 S
C408 C409 1.438 . S
C408 C413 1.429 . S
C409 C392 1.394 . S
C409 C408 1.438 . S
C409 C410 1.428 . S
C410 H402 0.949 . S
C410 C409 1.428 . S
C410 C411 1.345 . S
C411 H403 0.950 . S
C411 C410 1.345 . S
C411 C412 1.424 . S
C412 H404 0.951 . S
C412 C411 1.424 . S
C412 C413 1.347 . S
C413 H405 0.951 . S
C413 C408 1.429 . S
C413 C412 1.347 . S
H414 C415 0.951 . S
C415 H414 0.951 . S
C415 C421 1.265 . S
H416 C421 0.950 . S
H417 C425 0.949 . S
H418 C426 0.950 . S
H419 C427 0.951 . S
H420 C428 0.951 . S
C421 C415 1.265 . S
C421 H416 0.950 . S
C421 C422 1.478 . S
C422 C421 1.478 . S
C422 C423 1.397 . S
C422 C439 1.394 . S
C423 C422 1.397 . S
C423 C424 1.438 . S
C423 C428 1.429 . S
C424 C423 1.438 . S
C424 C425 1.428 . S
C424 C437 1.394 . S
C425 H417 0.949 . S
C425 C424 1.428 . S
C425 C426 1.345 . S
C426 H418 0.950 . S
C426 C425 1.345 . S
C426 C427 1.424 . S
C427 H419 0.951 . S
C427 C426 1.424 . S
C427 C428 1.347 . S
C428 H420 0.951 . S
C428 C423 1.429 . S
C428 C427 1.347 . S
H429 C430 0.951 . S
C430 H429 0.951 . S
C430 C436 1.265 . S
H431 C436 0.950 . S
H432 C440 0.949 . S
H433 C441 0.950 . S
H434 C442 0.951 . S
H435 C443 0.951 . S
C436 C430 1.265 . S
C436 H431 0.950 . S
C436 C437 1.478 . S
C437 C424 1.394 . S
C437 C436 1.478 . S
C437 C438 1.397 . S
C438 C437 1.397 . S
C438 C439 1.438 . S
C438 C443 1.429 . S
C439 C422 1.394 . S
C439 C438 1.438 . S
C439 C440 1.428 . S
C440 H432 0.949 . S
C440 C439 1.428 . S
C440 C441 1.345 . S
C441 H433 0.950 . S
C441 C440 1.345 . S
C441 C442 1.424 . S
C442 H434 0.951 . S
C442 C441 1.424 . S
C442 C443 1.347 . S
C443 H435 0.951 . S
C443 C438 1.429 . S
C443 C442 1.347 . S
C85 C45 1.319 1_554 S
C100 C16 1.336 . S
C115 C70 1.286 . S
C130 C25 1.170 . S
C145 C58 1.341 . S
C160 C3 1.418 . S
C175 C83 1.203 1_556 S
C190 C40 1.251 . S
C205 C24 1.285 1_455 S
C220 C7 1.382 . S
C235 C61 1.351 . S
C250 C41 1.240 1_565 S
C265 C49 1.228 . S
C280 C67 1.219 . S
C295 C19 1.388 . S
C310 C66 1.275 1_545 S
C325 C37 1.306 . S
C340 C20 1.280 . S
C355 C46 1.298 . S
C370 C28 1.277 . S
C385 C62 1.329 1_655 S
C400 C82 1.282 . S
C415 C79 1.263 . S
C430 C4 1.320 . S
