# Generated by pormake.
# Topology hjm, (4)-cn, num edge types: 1
# Building blocks:
#     Node 0, Type 0, BuildingBlock: GALJAG_clean_sbu_0, # of connection points: 4
#     Node 1, Type 0, BuildingBlock: GALJAG_clean_sbu_0, # of connection points: 4
#     Node 2, Type 0, BuildingBlock: GALJAG_clean_sbu_0, # of connection points: 4
#     Node 3, Type 0, BuildingBlock: GALJAG_clean_sbu_0, # of connection points: 4
#     Node 4, Type 0, BuildingBlock: GALJAG_clean_sbu_0, # of connection points: 4
#     Node 5, Type 0, BuildingBlock: GALJAG_clean_sbu_0, # of connection points: 4
#     Node 6, Type 0, BuildingBlock: GALJAG_clean_sbu_0, # of connection points: 4
#     Node 7, Type 0, BuildingBlock: GALJAG_clean_sbu_0, # of connection points: 4
#     Edge 8, Type (0, 0), BuildingBlock: MIFKUJ_clean_linker_0, # of connection points: 2
#     Edge 9, Type (0, 0), BuildingBlock: MIFKUJ_clean_linker_0, # of connection points: 2
#     Edge 10, Type (0, 0), BuildingBlock: MIFKUJ_clean_linker_0, # of connection points: 2
#     Edge 11, Type (0, 0), BuildingBlock: MIFKUJ_clean_linker_0, # of connection points: 2
#     Edge 12, Type (0, 0), BuildingBlock: MIFKUJ_clean_linker_0, # of connection points: 2
#     Edge 13, Type (0, 0), BuildingBlock: MIFKUJ_clean_linker_0, # of connection points: 2
#     Edge 14, Type (0, 0), BuildingBlock: MIFKUJ_clean_linker_0, # of connection points: 2
#     Edge 15, Type (0, 0), BuildingBlock: MIFKUJ_clean_linker_0, # of connection points: 2
#     Edge 16, Type (0, 0), BuildingBlock: MIFKUJ_clean_linker_0, # of connection points: 2
#     Edge 17, Type (0, 0), BuildingBlock: MIFKUJ_clean_linker_0, # of connection points: 2
#     Edge 18, Type (0, 0), BuildingBlock: MIFKUJ_clean_linker_0, # of connection points: 2
#     Edge 19, Type (0, 0), BuildingBlock: MIFKUJ_clean_linker_0, # of connection points: 2
#     Edge 20, Type (0, 0), BuildingBlock: MIFKUJ_clean_linker_0, # of connection points: 2
#     Edge 21, Type (0, 0), BuildingBlock: MIFKUJ_clean_linker_0, # of connection points: 2
#     Edge 22, Type (0, 0), BuildingBlock: MIFKUJ_clean_linker_0, # of connection points: 2
#     Edge 23, Type (0, 0), BuildingBlock: MIFKUJ_clean_linker_0, # of connection points: 2
# Relax obj value: 0.069
# Max RMSD: 0.136
# Mean RMSD: 0.136
data_MOF--net-hjm--node1-GALJAG_clean_sbu_0--edge1-MIFKUJ_clean_linker_0
_symmetry_space_group_name_H-M    P1
_symmetry_Int_Tables_number       1
_symmetry_cell_setting            triclinic
loop_
_symmetry_equiv_pos_as_xyz
'x, y, z'
_cell_length_a     33.024307
_cell_length_b     27.401173
_cell_length_c     33.071102
_cell_angle_alpha  89.996432
_cell_angle_beta   69.595454
_cell_angle_gamma 89.993758
loop_
_atom_site_label
_atom_site_type_symbol
_atom_site_fract_x
_atom_site_fract_y
_atom_site_fract_z
_atom_type_partial_charge
In0 In 0.18439 0.25108 0.314 0.0
O1 O 0.13676 0.31453 0.32449 0.0
O2 O 0.1622 0.29934 0.37393 0.0
C3 C 0.19759 0.25356 0.22829 0.0
C4 C 0.13587 0.17603 0.35854 0.0
C5 C 0.26633 0.24945 0.31376 0.0
O6 O 0.20982 0.28709 0.24747 0.0
O7 O 0.17816 0.21895 0.25235 0.0
O8 O 0.24854 0.21273 0.30399 0.0
O9 O 0.2427 0.28694 0.32391 0.0
C10 C 0.13706 0.32507 0.36153 0.0
O11 O 0.17564 0.17989 0.35234 0.0
O12 O 0.12093 0.20915 0.34132 0.0
In13 In 0.81237 0.23977 0.18057 0.0
O14 O 0.87421 0.28483 0.15472 0.0
O15 O 0.82228 0.30369 0.13374 0.0
C16 C 0.81787 0.23669 0.26025 0.0
C17 C 0.84706 0.16526 0.1257 0.0
C18 C 0.72506 0.24532 0.20596 0.0
O19 O 0.82371 0.2753 0.2382 0.0
O20 O 0.81053 0.19932 0.24161 0.0
O21 O 0.74565 0.20614 0.19356 0.0
O22 O 0.74853 0.28209 0.20431 0.0
C23 C 0.86051 0.31237 0.1317 0.0
O24 O 0.8223 0.19659 0.11869 0.0
O25 O 0.85389 0.17112 0.16064 0.0
In26 In 0.81853 0.75094 0.69943 0.0
O27 O 0.86118 0.68285 0.68649 0.0
O28 O 0.82914 0.69859 0.64256 0.0
C29 C 0.82425 0.75323 0.77871 0.0
C30 C 0.86727 0.82662 0.65537 0.0
C31 C 0.7318 0.74738 0.7152 0.0
O32 O 0.82451 0.7139 0.75862 0.0
O33 O 0.82095 0.79159 0.75881 0.0
O34 O 0.75938 0.74935 0.6776 0.0
O35 O 0.74782 0.74724 0.74459 0.0
C36 C 0.855 0.67112 0.65226 0.0
O37 O 0.82654 0.82829 0.66996 0.0
O38 O 0.88288 0.78758 0.66354 0.0
In39 In 0.18841 0.74791 0.81155 0.0
O40 O 0.16383 0.80689 0.86288 0.0
O41 O 0.13438 0.80193 0.81524 0.0
C42 C 0.27148 0.74359 0.80892 0.0
C43 C 0.13735 0.67656 0.85959 0.0
C44 C 0.20555 0.74947 0.72571 0.0
O45 O 0.25111 0.78314 0.81214 0.0
O46 O 0.24953 0.70606 0.80864 0.0
O47 O 0.19457 0.71101 0.74788 0.0
O48 O 0.20694 0.78726 0.74701 0.0
C49 C 0.13546 0.82296 0.84879 0.0
O50 O 0.14404 0.6817 0.81987 0.0
O51 O 0.15727 0.70651 0.87482 0.0
In52 In 0.69276 0.7381 0.32185 0.0
O53 O 0.63743 0.79185 0.33096 0.0
O54 O 0.67203 0.79578 0.37441 0.0
C55 C 0.71876 0.74217 0.23484 0.0
C56 C 0.64143 0.664 0.36474 0.0
C57 C 0.77311 0.73738 0.32525 0.0
O58 O 0.70937 0.77982 0.25819 0.0
O59 O 0.71341 0.70252 0.2554 0.0
O60 O 0.75493 0.69948 0.3182 0.0
O61 O 0.75029 0.77551 0.33181 0.0
C62 C 0.64169 0.81232 0.36345 0.0
O63 O 0.67176 0.68096 0.37537 0.0
O64 O 0.6374 0.68372 0.33188 0.0
In65 In 0.31914 0.77489 0.18661 0.0
O66 O 0.37207 0.83254 0.16756 0.0
O67 O 0.3196 0.84137 0.14499 0.0
C68 C 0.32279 0.76484 0.26641 0.0
C69 C 0.36797 0.71003 0.12802 0.0
C70 C 0.23238 0.76923 0.2085 0.0
O71 O 0.32895 0.80522 0.24682 0.0
O72 O 0.31589 0.72942 0.24529 0.0
O73 O 0.25737 0.73541 0.18871 0.0
O74 O 0.25119 0.8062 0.21617 0.0
C75 C 0.35517 0.85754 0.14556 0.0
O76 O 0.34172 0.73854 0.12007 0.0
O77 O 0.36888 0.71342 0.16572 0.0
In78 In 0.30424 0.23474 0.68492 0.0
O79 O 0.35646 0.1765 0.67169 0.0
O80 O 0.31796 0.17774 0.63183 0.0
C81 C 0.29516 0.24133 0.7693 0.0
C82 C 0.35435 0.30441 0.63307 0.0
C83 C 0.21937 0.23025 0.69599 0.0
O84 O 0.30327 0.20164 0.74871 0.0
O85 O 0.29237 0.27785 0.74719 0.0
O86 O 0.23946 0.2701 0.69265 0.0
O87 O 0.24224 0.19263 0.69307 0.0
C88 C 0.34875 0.15814 0.64013 0.0
O89 O 0.32018 0.28893 0.62865 0.0
O90 O 0.36236 0.28603 0.66442 0.0
In91 In 0.68191 0.27309 0.80508 0.0
O92 O 0.61764 0.23152 0.82477 0.0
O93 O 0.66062 0.21661 0.85835 0.0
C94 C 0.69813 0.27003 0.71924 0.0
C95 C 0.64357 0.35536 0.84584 0.0
C96 C 0.76309 0.25518 0.80271 0.0
O97 O 0.6791 0.23593 0.74435 0.0
O98 O 0.70787 0.30623 0.7376 0.0
O99 O 0.74639 0.29719 0.80985 0.0
O100 O 0.7388 0.22246 0.79702 0.0
C101 C 0.62476 0.20779 0.85434 0.0
O102 O 0.66413 0.32651 0.86127 0.0
O103 O 0.64303 0.34342 0.80918 0.0
H104 H 0.16162 0.09483 0.39098 0.0
H105 H 0.11553 0.03498 0.44126 0.0
H106 H 0.00211 0.11211 0.44004 0.0
H107 H 0.04791 0.17179 0.38948 0.0
H108 H 0.00295 0.09175 0.52335 0.0
H109 H 0.02358 0.00612 0.38951 0.0
H110 H 0.06593 0.9693 0.3194 0.0
H111 H 0.13105 0.87653 0.38177 0.0
H112 H 0.08922 0.91299 0.45224 0.0
H113 H 0.84215 0.91398 0.63104 0.0
H114 H 0.88853 0.97524 0.5826 0.0
H115 H 0.00088 0.88843 0.57165 0.0
H116 H 0.9549 0.82723 0.61957 0.0
H117 H 0.00159 0.91426 0.49447 0.0
H118 H 0.98108 0.99458 0.6277 0.0
H119 H 0.94315 0.03188 0.6987 0.0
H120 H 0.88347 0.13586 0.64006 0.0
H121 H 0.92042 0.09864 0.56875 0.0
C122 C 0.12685 0.09869 0.40107 0.0
C123 C 0.10833 0.13787 0.38628 0.0
C124 C 0.10061 0.06446 0.42968 0.0
C125 C 0.05547 0.0691 0.44419 0.0
C126 C 0.0369 0.10792 0.42914 0.0
C127 C 0.06309 0.14182 0.40016 0.0
C128 C 0.02765 0.03467 0.4765 0.0
C129 C 0.00196 0.05301 0.51693 0.0
C130 C 0.02789 0.98401 0.46848 0.0
C131 C 0.05357 0.96262 0.42607 0.0
C132 C 0.04721 0.97818 0.38821 0.0
C133 C 0.07102 0.95726 0.34843 0.0
C134 C 0.10125 0.92069 0.34612 0.0
C135 C 0.10774 0.90498 0.38359 0.0
C136 C 0.08392 0.92567 0.42346 0.0
C137 C 0.87677 0.9083 0.61863 0.0
C138 C 0.89487 0.86575 0.62896 0.0
C139 C 0.90326 0.94339 0.59112 0.0
C140 C 0.94822 0.93649 0.57359 0.0
C141 C 0.9663 0.89449 0.5847 0.0
C142 C 0.93994 0.85958 0.61218 0.0
C143 C 0.97626 0.97126 0.54154 0.0
C144 C 0.00221 0.95299 0.50108 0.0
C145 C 0.97663 0.02194 0.54981 0.0
C146 C 0.95303 0.04326 0.59291 0.0
C147 C 0.95933 0.02488 0.63 0.0
C148 C 0.93812 0.04613 0.67029 0.0
C149 C 0.91077 0.08606 0.6739 0.0
C150 C 0.90456 0.10483 0.63723 0.0
C151 C 0.92561 0.08364 0.59687 0.0
H152 H 0.89449 0.10254 0.70509 0.0
H153 H 0.1196 0.9045 0.31532 0.0
H154 H 0.08117 0.8754 0.81877 0.0
H155 H 0.02592 0.93451 0.85909 0.0
H156 H 0.06252 0.91331 0.97094 0.0
H157 H 0.11835 0.85548 0.93068 0.0
H158 H 0.97218 0.90179 0.98541 0.0
H159 H 0.09172 0.01256 0.91341 0.0
H160 H 0.14509 0.0522 0.85029 0.0
H161 H 0.04307 0.10343 0.80872 0.0
H162 H 0.98909 0.06323 0.87119 0.0
H163 H 0.89338 0.08787 0.13793 0.0
H164 H 0.93262 0.02684 0.08489 0.0
H165 H 0.88806 0.09361 0.98983 0.0
H166 H 0.84863 0.15491 0.04293 0.0
H167 H 0.97218 0.07953 0.95741 0.0
H168 H 0.85248 0.9824 0.02803 0.0
H169 H 0.79387 0.93957 0.08413 0.0
H170 H 0.88698 0.85971 0.12148 0.0
H171 H 0.94627 0.9025 0.06604 0.0
C172 C 0.07765 0.8838 0.85183 0.0
C173 C 0.10402 0.86089 0.87164 0.0
C174 C 0.0461 0.91748 0.87478 0.0
C175 C 0.04002 0.92799 0.91804 0.0
C176 C 0.06667 0.90555 0.9376 0.0
C177 C 0.09864 0.87269 0.91452 0.0
C178 C 0.00492 0.96074 0.94401 0.0
C179 C 0.97231 0.9408 0.97975 0.0
C180 C 0.00372 0.01096 0.93466 0.0
C181 C 0.03639 0.03416 0.89664 0.0
C182 C 0.08068 0.03162 0.89049 0.0
C183 C 0.11105 0.05434 0.85488 0.0
C184 C 0.0975 0.08011 0.82539 0.0
C185 C 0.05354 0.08327 0.83148 0.0
C186 C 0.02306 0.06049 0.86696 0.0
C187 C 0.8915 0.08921 0.10589 0.0
C188 C 0.86801 0.1262 0.09456 0.0
C189 C 0.9137 0.05409 0.07566 0.0
C190 C 0.91299 0.05533 0.03344 0.0
C191 C 0.88892 0.09179 0.02225 0.0
C192 C 0.86637 0.12673 0.05263 0.0
C193 C 0.94047 0.02104 0.00043 0.0
C194 C 0.97155 0.0405 0.96315 0.0
C195 C 0.93955 0.97007 0.0077 0.0
C196 C 0.90398 0.94616 0.04297 0.0
C197 C 0.86056 0.95632 0.04863 0.0
C198 C 0.82716 0.93183 0.08022 0.0
C199 C 0.83668 0.89702 0.10644 0.0
C200 C 0.87964 0.88671 0.10118 0.0
C201 C 0.91318 0.91106 0.06963 0.0
H202 H 0.81079 0.87797 0.13077 0.0
H203 H 0.12104 0.0978 0.79793 0.0
H204 H 0.34405 0.34951 0.56337 0.0
H205 H 0.39303 0.408 0.51401 0.0
H206 H 0.48029 0.3961 0.58492 0.0
H207 H 0.43126 0.33848 0.6346 0.0
H208 H 0.4664 0.48792 0.57227 0.0
H209 H 0.50517 0.34516 0.48144 0.0
H210 H 0.49571 0.27431 0.43961 0.0
H211 H 0.44115 0.36693 0.36727 0.0
H212 H 0.45057 0.43854 0.40847 0.0
H213 H 0.64838 0.61155 0.43206 0.0
H214 H 0.59867 0.54975 0.47522 0.0
H215 H 0.51763 0.56847 0.39839 0.0
H216 H 0.56797 0.62958 0.35432 0.0
H217 H 0.52554 0.47478 0.41277 0.0
H218 H 0.48928 0.61785 0.50227 0.0
H219 H 0.50133 0.68869 0.54256 0.0
H220 H 0.55167 0.59466 0.61748 0.0
H221 H 0.54 0.5231 0.57758 0.0
C222 C 0.37372 0.35937 0.56835 0.0
C223 C 0.38367 0.33971 0.60305 0.0
C224 C 0.40188 0.39243 0.53988 0.0
C225 C 0.44059 0.40613 0.54547 0.0
C226 C 0.45064 0.3861 0.57992 0.0
C227 C 0.42253 0.35324 0.60837 0.0
C228 C 0.46935 0.44372 0.51745 0.0
C229 C 0.47981 0.48463 0.53741 0.0
C230 C 0.48565 0.44039 0.47184 0.0
C231 C 0.478 0.3971 0.44849 0.0
C232 C 0.49061 0.35034 0.45703 0.0
C233 C 0.4854 0.31007 0.43332 0.0
C234 C 0.46747 0.31603 0.40111 0.0
C235 C 0.45486 0.36234 0.39238 0.0
C236 C 0.46024 0.40281 0.41581 0.0
C237 C 0.62003 0.60242 0.42428 0.0
C238 C 0.612 0.62548 0.38988 0.0
C239 C 0.59147 0.5673 0.44917 0.0
C240 C 0.55395 0.55504 0.44058 0.0
C241 C 0.54626 0.57744 0.40574 0.0
C242 C 0.57503 0.61236 0.3806 0.0
C243 C 0.52308 0.51848 0.46772 0.0
C244 C 0.51203 0.47801 0.44763 0.0
C245 C 0.50618 0.52209 0.51327 0.0
C246 C 0.51414 0.56518 0.53664 0.0
C247 C 0.5033 0.61232 0.52705 0.0
C248 C 0.50997 0.65261 0.54989 0.0
C249 C 0.52744 0.64627 0.58242 0.0
C250 C 0.53821 0.59955 0.59223 0.0
C251 C 0.53148 0.55909 0.56959 0.0
H252 H 0.53247 0.67751 0.60013 0.0
H253 H 0.46354 0.28482 0.38281 0.0
H254 H 0.3873 0.71219 0.04068 0.0
H255 H 0.43793 0.65952 0.98651 0.0
H256 H 0.46316 0.57958 0.08772 0.0
H257 H 0.41412 0.63345 0.14165 0.0
H258 H 0.53571 0.59684 0.0254 0.0
H259 H 0.39454 0.53677 0.03062 0.0
H260 H 0.32277 0.54555 0.02393 0.0
H261 H 0.38217 0.59438 0.89307 0.0
H262 H 0.45425 0.5862 0.89912 0.0
H263 H 0.62433 0.37458 0.93105 0.0
H264 H 0.58086 0.4413 0.97283 0.0
H265 H 0.56628 0.4998 0.85745 0.0
H266 H 0.60837 0.43143 0.81571 0.0
H267 H 0.4929 0.50318 0.91842 0.0
H268 H 0.63383 0.55592 0.90934 0.0
H269 H 0.7063 0.54816 0.91427 0.0
H270 H 0.6495 0.51497 0.04927 0.0
H271 H 0.5767 0.52297 0.04525 0.0
C272 C 0.40351 0.68318 0.0513 0.0
C273 C 0.39667 0.67674 0.09537 0.0
C274 C 0.43234 0.653 0.02033 0.0
C275 C 0.45402 0.61509 0.03299 0.0
C276 C 0.44692 0.60859 0.07708 0.0
C277 C 0.41873 0.63923 0.10793 0.0
C278 C 0.48457 0.58232 0.0007 0.0
C279 C 0.52619 0.57603 0.00227 0.0
C280 C 0.47299 0.55676 0.96911 0.0
C281 C 0.42969 0.56138 0.96549 0.0
C282 C 0.39224 0.54965 0.00052 0.0
C283 C 0.35152 0.55445 0.99682 0.0
C284 C 0.34791 0.57064 0.95814 0.0
C285 C 0.38501 0.58191 0.92303 0.0
C286 C 0.42579 0.57715 0.92656 0.0
C287 C 0.61226 0.40194 0.91447 0.0
C288 C 0.61989 0.39796 0.8701 0.0
C289 C 0.5876 0.44034 0.93837 0.0
C290 C 0.57098 0.47638 0.91824 0.0
C291 C 0.57894 0.47269 0.87372 0.0
C292 C 0.60306 0.43371 0.84987 0.0
C293 C 0.54348 0.51622 0.94429 0.0
C294 C 0.50263 0.52423 0.94128 0.0
C295 C 0.55591 0.54376 0.97429 0.0
C296 C 0.59975 0.53992 0.97694 0.0
C297 C 0.63676 0.54703 0.94009 0.0
C298 C 0.67794 0.5427 0.94274 0.0
C299 C 0.68254 0.53119 0.98207 0.0
C300 C 0.64595 0.52419 0.01887 0.0
C301 C 0.60471 0.52883 0.01647 0.0
H302 H 0.71446 0.52765 0.984 0.0
H303 H 0.31636 0.57434 0.95535 0.0
H304 H 0.84029 0.37093 0.07467 0.0
H305 H 0.88595 0.43269 0.0267 0.0
H306 H 0.98688 0.40325 0.07822 0.0
H307 H 0.94175 0.3407 0.12553 0.0
H308 H 0.9194 0.51531 0.0403 0.0
H309 H 0.08583 0.41925 0.99864 0.0
H310 H 0.11611 0.33608 0.99104 0.0
H311 H 0.00588 0.28073 0.96524 0.0
H312 H 0.97537 0.36372 0.97192 0.0
H313 H 0.10114 0.67412 0.94736 0.0
H314 H 0.05035 0.61357 0.99189 0.0
H315 H 0.05552 0.53489 0.87728 0.0
H316 H 0.10558 0.5959 0.83247 0.0
H317 H 0.06791 0.47623 0.9424 0.0
H318 H 0.97035 0.59436 0.92361 0.0
H319 H 0.93572 0.67434 0.92499 0.0
H320 H 0.90271 0.68156 0.06237 0.0
H321 H 0.93814 0.60216 0.06178 0.0
C322 C 0.8722 0.37767 0.07579 0.0
C323 C 0.8875 0.35088 0.10376 0.0
C324 C 0.89822 0.41306 0.04844 0.0
C325 C 0.94003 0.42233 0.0485 0.0
C326 C 0.95503 0.39622 0.07704 0.0
C327 C 0.92913 0.36063 0.10422 0.0
C328 C 0.9679 0.45919 0.01861 0.0
C329 C 0.95193 0.5068 0.019 0.0
C330 C 0.01007 0.44785 0.99016 0.0
C331 C 0.02811 0.39769 0.98618 0.0
C332 C 0.06812 0.38936 0.99121 0.0
C333 C 0.08534 0.34224 0.98706 0.0
C334 C 0.06286 0.3031 0.97783 0.0
C335 C 0.02319 0.31103 0.97256 0.0
C336 C 0.00592 0.35812 0.97653 0.0
C337 C 0.09142 0.64391 0.93167 0.0
C338 C 0.1074 0.63956 0.88648 0.0
C339 C 0.06225 0.60958 0.95711 0.0
C340 C 0.04907 0.56997 0.93781 0.0
C341 C 0.06526 0.56531 0.89272 0.0
C342 C 0.09381 0.60012 0.86722 0.0
C343 C 0.01968 0.5324 0.96481 0.0
C344 C 0.03545 0.48473 0.96391 0.0
C345 C 0.97712 0.54354 0.99223 0.0
C346 C 0.95752 0.59247 0.99254 0.0
C347 C 0.95644 0.61335 0.95404 0.0
C348 C 0.93653 0.65856 0.95471 0.0
C349 C 0.91725 0.68315 0.99372 0.0
C350 C 0.91791 0.66262 0.03215 0.0
C351 C 0.93794 0.61752 0.03166 0.0
H352 H 0.90164 0.718 0.99421 0.0
H353 H 0.07623 0.26664 0.9747 0.0
H354 H 0.13604 0.35752 0.43981 0.0
H355 H 0.08532 0.41493 0.48821 0.0
H356 H 0.02103 0.4326 0.39575 0.0
H357 H 0.07235 0.37586 0.34671 0.0
H358 H 0.03049 0.5189 0.42991 0.0
H359 H 0.97716 0.36081 0.48447 0.0
H360 H 0.98196 0.27716 0.50989 0.0
H361 H 0.01678 0.33381 0.61435 0.0
H362 H 0.01259 0.4179 0.58926 0.0
H363 H 0.84774 0.63962 0.5766 0.0
H364 H 0.89255 0.57879 0.52659 0.0
H365 H 0.96267 0.55323 0.61294 0.0
H366 H 0.91745 0.61319 0.66339 0.0
H367 H 0.94711 0.46916 0.5803 0.0
H368 H 0.0028 0.62769 0.52324 0.0
H369 H 0.99735 0.71096 0.49719 0.0
H370 H 0.9579 0.65261 0.39626 0.0
H371 H 0.96249 0.56895 0.42208 0.0
C372 C 0.11129 0.37389 0.42965 0.0
C373 C 0.10813 0.36217 0.3895 0.0
C374 C 0.08216 0.40646 0.45745 0.0
C375 C 0.04894 0.42748 0.44591 0.0
C376 C 0.04635 0.41674 0.40536 0.0
C377 C 0.07567 0.38434 0.37739 0.0
C378 C 0.01687 0.46046 0.4763 0.0
C379 C 0.01176 0.5078 0.4626 0.0
C380 C 0.99293 0.44618 0.51917 0.0
C381 C 0.99488 0.39567 0.53476 0.0
C382 C 0.98605 0.35544 0.51273 0.0
C383 C 0.98862 0.30794 0.52711 0.0
C384 C 0.99976 0.30017 0.56367 0.0
C385 C 0.00817 0.33991 0.58603 0.0
C386 C 0.00563 0.3875 0.57178 0.0
C387 C 0.8724 0.62063 0.58512 0.0
C388 C 0.87919 0.63129 0.62385 0.0
C389 C 0.89817 0.5861 0.55639 0.0
C390 C 0.93148 0.56201 0.56566 0.0
C391 C 0.93727 0.57143 0.60502 0.0
C392 C 0.9114 0.60574 0.63383 0.0
C393 C 0.96101 0.52782 0.53407 0.0
C394 C 0.96566 0.4802 0.54756 0.0
C395 C 0.98444 0.54181 0.49095 0.0
C396 C 0.98238 0.59208 0.47499 0.0
C397 C 0.99263 0.63261 0.4957 0.0
C398 C 0.98972 0.67986 0.48096 0.0
C399 C 0.9769 0.68702 0.44535 0.0
C400 C 0.96754 0.64696 0.42402 0.0
C401 C 0.97032 0.59963 0.43867 0.0
H402 H 0.97425 0.7236 0.43425 0.0
H403 H 0.00179 0.26337 0.57473 0.0
H404 H 0.63438 0.15512 0.91991 0.0
H405 H 0.58323 0.09825 0.968 0.0
H406 H 0.49362 0.12447 0.9017 0.0
H407 H 0.54467 0.18251 0.85356 0.0
H408 H 0.4538 0.12424 0.99087 0.0
H409 H 0.5487 0.02114 0.88277 0.0
H410 H 0.61869 0.9889 0.83487 0.0
H411 H 0.65095 0.94684 0.94501 0.0
H412 H 0.58139 0.97947 0.99361 0.0
H413 H 0.32792 0.91306 0.09129 0.0
H414 H 0.36854 0.97707 0.04215 0.0
H415 H 0.47238 0.96155 0.0921 0.0
H416 H 0.43223 0.89729 0.14085 0.0
H417 H 0.50086 0.95533 0.00584 0.0
H418 H 0.40839 0.0641 0.1137 0.0
H419 H 0.33927 0.09851 0.16159 0.0
H420 H 0.30217 0.12927 0.05205 0.0
H421 H 0.37092 0.09422 0.00353 0.0
C422 C 0.60382 0.14883 0.91546 0.0
C423 C 0.59359 0.17305 0.88283 0.0
C424 C 0.57466 0.11624 0.94293 0.0
C425 C 0.53482 0.10684 0.93813 0.0
C426 C 0.52419 0.13135 0.90592 0.0
C427 C 0.55343 0.16419 0.87835 0.0
C428 C 0.50473 0.07116 0.96697 0.0
C429 C 0.46369 0.087 0.99367 0.0
C430 C 0.51803 0.02289 0.97098 0.0
C431 C 0.55992 0.00312 0.94184 0.0
C432 C 0.57085 0.00537 0.89679 0.0
C433 C 0.61042 0.98696 0.86951 0.0
C434 C 0.63928 0.96592 0.88689 0.0
C435 C 0.62857 0.96317 0.93159 0.0
C436 C 0.58905 0.98157 0.95902 0.0
C437 C 0.35913 0.92385 0.09223 0.0
C438 C 0.37706 0.90002 0.1197 0.0
C439 C 0.38221 0.96054 0.06427 0.0
C440 C 0.42344 0.97409 0.06353 0.0
C441 C 0.44064 0.95154 0.0921 0.0
C442 C 0.41764 0.9149 0.11998 0.0
C443 C 0.45034 0.0087 0.03071 0.0
C444 C 0.49076 0.99246 0.00295 0.0
C445 C 0.43636 0.05644 0.02579 0.0
C446 C 0.39465 0.07633 0.05502 0.0
C447 C 0.38532 0.07777 0.09986 0.0
C448 C 0.34627 0.09746 0.1271 0.0
C449 C 0.31635 0.11605 0.10985 0.0
C450 C 0.32541 0.11489 0.06532 0.0
C451 C 0.36441 0.09518 0.03795 0.0
H452 H 0.28619 0.1314 0.13097 0.0
H453 H 0.6699 0.95168 0.86571 0.0
H454 H 0.64619 0.86187 0.43303 0.0
H455 H 0.59456 0.92103 0.47764 0.0
H456 H 0.51859 0.90878 0.39523 0.0
H457 H 0.57058 0.84969 0.34993 0.0
H458 H 0.5235 0.00369 0.42037 0.0
H459 H 0.4826 0.84834 0.49031 0.0
H460 H 0.49731 0.76938 0.51781 0.0
H461 H 0.54861 0.84316 0.60402 0.0
H462 H 0.53382 0.92284 0.57705 0.0
H463 H 0.33746 0.11248 0.57158 0.0
H464 H 0.38489 0.05199 0.52366 0.0
H465 H 0.46818 0.05581 0.59923 0.0
H466 H 0.42046 0.11568 0.64776 0.0
H467 H 0.45621 0.96309 0.57599 0.0
H468 H 0.4973 0.11922 0.50413 0.0
H469 H 0.48023 0.19745 0.47709 0.0
H470 H 0.42673 0.12107 0.39397 0.0
H471 H 0.4433 0.04219 0.42088 0.0
C472 C 0.61868 0.872 0.42417 0.0
C473 C 0.61219 0.85084 0.38824 0.0
C474 C 0.58915 0.90569 0.44976 0.0
C475 C 0.55235 0.91852 0.44017 0.0
C476 C 0.54666 0.89906 0.40328 0.0
C477 C 0.57631 0.86531 0.37754 0.0
C478 C 0.51909 0.95063 0.46988 0.0
C479 C 0.50831 0.99451 0.45424 0.0
C480 C 0.49962 0.93893 0.51414 0.0
C481 C 0.5073 0.8914 0.53156 0.0
C482 C 0.49698 0.84768 0.51516 0.0
C483 C 0.50529 0.8028 0.53071 0.0
C484 C 0.52398 0.80117 0.56266 0.0
C485 C 0.53423 0.84449 0.57921 0.0
C486 C 0.52562 0.88954 0.56401 0.0
C487 C 0.36567 0.10009 0.5782 0.0
C488 C 0.37543 0.11894 0.61324 0.0
C489 C 0.39282 0.06574 0.55069 0.0
C490 C 0.43038 0.05005 0.55753 0.0
C491 C 0.4394 0.06757 0.59335 0.0
C492 C 0.41216 0.1018 0.62098 0.0
C493 C 0.46099 0.01646 0.52666 0.0
C494 C 0.47123 0.97221 0.54209 0.0
C495 C 0.47971 0.02777 0.4822 0.0
C496 C 0.47131 0.07492 0.46466 0.0
C497 C 0.48187 0.11915 0.4801 0.0
C498 C 0.47227 0.1636 0.46479 0.0
C499 C 0.45234 0.16431 0.43382 0.0
C500 C 0.44204 0.12048 0.41806 0.0
C501 C 0.45168 0.07588 0.43319 0.0
H502 H 0.44501 0.19877 0.42193 0.0
H503 H 0.53041 0.76639 0.57468 0.0
H504 H 0.33148 0.83682 0.31996 0.0
H505 H 0.31772 0.8306 0.39741 0.0
H506 H 0.29361 0.67629 0.3929 0.0
H507 H 0.30686 0.68237 0.31559 0.0
H508 H 0.22945 0.71967 0.45422 0.0
H509 H 0.38289 0.71823 0.41113 0.0
H510 H 0.45809 0.74538 0.37526 0.0
H511 H 0.42998 0.87975 0.44642 0.0
H512 H 0.35432 0.85376 0.48227 0.0
H513 H 0.20768 0.67232 0.67274 0.0
H514 H 0.23132 0.67259 0.59391 0.0
H515 H 0.25464 0.8276 0.59283 0.0
H516 H 0.23158 0.82747 0.6716 0.0
H517 H 0.32119 0.78075 0.5343 0.0
H518 H 0.16624 0.78229 0.5747 0.0
H519 H 0.0917 0.75307 0.61103 0.0
H520 H 0.12423 0.61603 0.54459 0.0
H521 H 0.19916 0.64419 0.5083 0.0
C522 C 0.32396 0.80142 0.33535 0.0
C523 C 0.32001 0.76012 0.3118 0.0
C524 C 0.31629 0.79788 0.37958 0.0
C525 C 0.30476 0.75294 0.40093 0.0
C526 C 0.30241 0.71133 0.37708 0.0
C527 C 0.31007 0.71485 0.3329 0.0
C528 C 0.29133 0.75018 0.4486 0.0
C529 C 0.24985 0.73224 0.47169 0.0
C530 C 0.31751 0.76781 0.47139 0.0
C531 C 0.36271 0.78424 0.44902 0.0
C532 C 0.39253 0.75384 0.41874 0.0
C533 C 0.43529 0.76896 0.39851 0.0
C534 C 0.44874 0.8143 0.40846 0.0
C535 C 0.41946 0.84467 0.43867 0.0
C536 C 0.37663 0.82975 0.45897 0.0
C537 C 0.21758 0.7065 0.6557 0.0
C538 C 0.21769 0.7499 0.6783 0.0
C539 C 0.23098 0.70662 0.61069 0.0
C540 C 0.24444 0.75019 0.58753 0.0
C541 C 0.24441 0.79358 0.61008 0.0
C542 C 0.23106 0.79348 0.65507 0.0
C543 C 0.25933 0.75047 0.53974 0.0
C544 C 0.30097 0.76803 0.5167 0.0
C545 C 0.2334 0.73235 0.51691 0.0
C546 C 0.18846 0.71517 0.53915 0.0
C547 C 0.15762 0.74575 0.56817 0.0
C548 C 0.11527 0.72941 0.58868 0.0
C549 C 0.10327 0.68268 0.58022 0.0
C550 C 0.13359 0.65219 0.55118 0.0
C551 C 0.176 0.66833 0.53062 0.0
H552 H 0.07045 0.67013 0.59608 0.0
H553 H 0.48188 0.82579 0.39282 0.0
H554 H 0.80973 0.83079 0.83391 0.0
H555 H 0.80359 0.82952 0.90976 0.0
H556 H 0.83572 0.67624 0.89922 0.0
H557 H 0.84057 0.67703 0.82376 0.0
H558 H 0.76575 0.69062 0.96462 0.0
H559 H 0.9058 0.76595 0.91663 0.0
H560 H 0.96088 0.82648 0.8775 0.0
H561 H 0.88124 0.94221 0.95093 0.0
H562 H 0.82576 0.88242 0.99073 0.0
H563 H 0.75612 0.66836 0.17932 0.0
H564 H 0.78558 0.67146 0.1006 0.0
H565 H 0.75067 0.82357 0.104 0.0
H566 H 0.72257 0.82111 0.18305 0.0
H567 H 0.82758 0.80759 0.04193 0.0
H568 H 0.68495 0.73386 0.08262 0.0
H569 H 0.62905 0.67421 0.1219 0.0
H570 H 0.7145 0.55631 0.06172 0.0
H571 H 0.7706 0.61528 0.02166 0.0
C572 C 0.81609 0.797 0.84763 0.0
C573 C 0.82525 0.75391 0.82305 0.0
C574 C 0.81293 0.7964 0.89092 0.0
C575 C 0.81953 0.75285 0.91022 0.0
C576 C 0.83046 0.71027 0.88509 0.0
C577 C 0.83318 0.71075 0.84198 0.0
C578 C 0.81024 0.75035 0.95751 0.0
C579 C 0.78007 0.71562 0.98127 0.0
C580 C 0.82785 0.78378 0.97963 0.0
C581 C 0.86144 0.81974 0.95631 0.0
C582 C 0.89996 0.80433 0.92432 0.0
C583 C 0.9313 0.83849 0.90214 0.0
C584 C 0.9244 0.88814 0.91163 0.0
C585 C 0.88643 0.90372 0.94365 0.0
C586 C 0.85514 0.86971 0.96616 0.0
C587 C 0.75469 0.70246 0.1633 0.0
C588 C 0.73638 0.74429 0.18725 0.0
C589 C 0.77156 0.7042 0.11832 0.0
C590 C 0.76953 0.74749 0.09636 0.0
C591 C 0.7524 0.78972 0.12025 0.0
C592 C 0.73607 0.78818 0.16536 0.0
C593 C 0.7832 0.74795 0.04858 0.0
C594 C 0.81387 0.78233 0.02494 0.0
C595 C 0.76606 0.71432 0.02635 0.0
C596 C 0.73195 0.67888 0.04941 0.0
C597 C 0.69171 0.69518 0.07776 0.0
C598 C 0.65997 0.66152 0.10004 0.0
C599 C 0.66817 0.61149 0.09425 0.0
C600 C 0.70807 0.59505 0.066 0.0
C601 C 0.73976 0.62855 0.04333 0.0
H602 H 0.64362 0.58547 0.11164 0.0
H603 H 0.94843 0.91461 0.89421 0.0
H604 H 0.83391 0.31216 0.30653 0.0
H605 H 0.82001 0.31447 0.38419 0.0
H606 H 0.78147 0.16323 0.39461 0.0
H607 H 0.79525 0.16068 0.317 0.0
H608 H 0.72063 0.22114 0.4499 0.0
H609 H 0.87337 0.19666 0.41075 0.0
H610 H 0.95111 0.21251 0.37399 0.0
H611 H 0.93645 0.35531 0.43074 0.0
H612 H 0.85853 0.34049 0.46761 0.0
H613 H 0.68809 0.1921 0.67222 0.0
H614 H 0.71243 0.18474 0.5937 0.0
H615 H 0.76009 0.33268 0.58071 0.0
H616 H 0.73668 0.33985 0.65929 0.0
H617 H 0.81788 0.27494 0.52653 0.0
H618 H 0.66602 0.30211 0.56321 0.0
H619 H 0.58809 0.28805 0.60052 0.0
H620 H 0.6005 0.14349 0.54745 0.0
H621 H 0.67867 0.15643 0.5103 0.0
C622 C 0.82325 0.27915 0.32524 0.0
C623 C 0.81542 0.23631 0.30575 0.0
C624 C 0.8155 0.28047 0.36959 0.0
C625 C 0.79978 0.23899 0.39517 0.0
C626 C 0.79361 0.19564 0.37544 0.0
C627 C 0.80158 0.19422 0.33109 0.0
C628 C 0.78558 0.24218 0.44288 0.0
C629 C 0.7421 0.23206 0.46674 0.0
C630 C 0.81325 0.25815 0.46463 0.0
C631 C 0.85994 0.26763 0.44158 0.0
C632 C 0.88659 0.23166 0.41502 0.0
C633 C 0.93075 0.24039 0.3943 0.0
C634 C 0.9487 0.28491 0.39998 0.0
C635 C 0.92252 0.32082 0.4264 0.0
C636 C 0.87836 0.31224 0.44725 0.0
C637 C 0.70345 0.22319 0.65263 0.0
C638 C 0.71033 0.26662 0.67189 0.0
C639 C 0.71727 0.21898 0.60775 0.0
C640 C 0.73773 0.25833 0.58126 0.0
C641 C 0.7444 0.30184 0.60048 0.0
C642 C 0.73082 0.30597 0.64537 0.0
C643 C 0.75294 0.25379 0.53353 0.0
C644 C 0.79649 0.26382 0.50968 0.0
C645 C 0.72527 0.23815 0.51164 0.0
C646 C 0.67833 0.23006 0.53436 0.0
C647 C 0.65223 0.26715 0.55984 0.0
C648 C 0.60799 0.25941 0.58088 0.0
C649 C 0.58938 0.21485 0.57646 0.0
C650 C 0.61498 0.17795 0.55092 0.0
C651 C 0.65925 0.18548 0.52984 0.0
H652 H 0.55512 0.20896 0.59273 0.0
H653 H 0.9829 0.29157 0.38399 0.0
H654 H 0.25168 0.31461 0.16861 0.0
H655 H 0.26818 0.31438 0.09046 0.0
H656 H 0.18022 0.19424 0.10345 0.0
H657 H 0.16397 0.19377 0.18174 0.0
H658 H 0.30275 0.23657 0.0323 0.0
H659 H 0.13155 0.21649 0.02625 0.0
H660 H 0.05616 0.23883 0.06822 0.0
H661 H 0.10044 0.36138 0.12228 0.0
H662 H 0.17605 0.3399 0.08047 0.0
H663 H 0.30646 0.1696 0.82177 0.0
H664 H 0.29099 0.17385 0.89971 0.0
H665 H 0.25093 0.32376 0.90035 0.0
H666 H 0.26644 0.31983 0.82241 0.0
H667 H 0.1928 0.2692 0.96474 0.0
H668 H 0.34688 0.30005 0.91042 0.0
H669 H 0.42314 0.28243 0.86766 0.0
H670 H 0.41422 0.14548 0.93337 0.0
H671 H 0.33774 0.16211 0.97593 0.0
C672 C 0.23572 0.28825 0.15486 0.0
C673 C 0.20648 0.25425 0.18126 0.0
C674 C 0.24528 0.28808 0.11023 0.0
C675 C 0.22526 0.25448 0.09127 0.0
C676 C 0.19575 0.22072 0.11755 0.0
C677 C 0.18659 0.22043 0.16219 0.0
C678 C 0.23607 0.25415 0.04385 0.0
C679 C 0.27871 0.24366 0.0175 0.0
C680 C 0.20473 0.26356 0.02463 0.0
C681 C 0.15945 0.27622 0.05063 0.0
C682 C 0.12518 0.24809 0.04722 0.0
C683 C 0.08241 0.26059 0.07099 0.0
C684 C 0.07351 0.3014 0.09801 0.0
C685 C 0.10738 0.32967 0.10146 0.0
C686 C 0.1502 0.31724 0.07787 0.0
C687 C 0.29462 0.20356 0.83848 0.0
C688 C 0.28772 0.24442 0.816 0.0
C689 C 0.2859 0.20596 0.88297 0.0
C690 C 0.26999 0.24919 0.90576 0.0
C691 C 0.26318 0.29005 0.88335 0.0
C692 C 0.27221 0.2878 0.83883 0.0
C693 C 0.25949 0.25149 0.95314 0.0
C694 C 0.21684 0.26204 0.97951 0.0
C695 C 0.29086 0.24235 0.97239 0.0
C696 C 0.33664 0.2322 0.94628 0.0
C697 C 0.36114 0.26604 0.9155 0.0
C698 C 0.40441 0.25628 0.89133 0.0
C699 C 0.42356 0.21288 0.89779 0.0
C700 C 0.39945 0.17913 0.92842 0.0
C701 C 0.35618 0.18873 0.95261 0.0
H702 H 0.45706 0.20541 0.87908 0.0
H703 H 0.04038 0.3112 0.11616 0.0
H704 H 0.31143 0.32393 0.33328 0.0
H705 H 0.38809 0.32499 0.32486 0.0
H706 H 0.40071 0.17572 0.28073 0.0
H707 H 0.32398 0.17418 0.28968 0.0
H708 H 0.44704 0.19275 0.33393 0.0
H709 H 0.42914 0.26833 0.20871 0.0
H710 H 0.39842 0.32797 0.17149 0.0
H711 H 0.44764 0.44586 0.22645 0.0
H712 H 0.47815 0.38684 0.26449 0.0
H713 H 0.66857 0.17122 0.21023 0.0
H714 H 0.58972 0.17446 0.23832 0.0
H715 H 0.59459 0.32696 0.26886 0.0
H716 H 0.67368 0.32415 0.23987 0.0
H717 H 0.53854 0.31335 0.22996 0.0
H718 H 0.55771 0.24082 0.35398 0.0
H719 H 0.58797 0.18303 0.39321 0.0
H720 H 0.5377 0.0625 0.34239 0.0
H721 H 0.50702 0.11965 0.30297 0.0
C722 C 0.33045 0.2912 0.32216 0.0
C723 C 0.31181 0.24912 0.31172 0.0
C724 C 0.37424 0.29188 0.31733 0.0
C725 C 0.40024 0.25063 0.30161 0.0
C726 C 0.38127 0.20796 0.29286 0.0
C727 C 0.33747 0.20722 0.29779 0.0
C728 C 0.44765 0.25278 0.29164 0.0
C729 C 0.4671 0.21886 0.31097 0.0
C730 C 0.47374 0.28777 0.26267 0.0
C731 C 0.45554 0.32322 0.23974 0.0
C732 C 0.43313 0.30698 0.21309 0.0
C733 C 0.4158 0.34066 0.19182 0.0
C734 C 0.42099 0.39067 0.19669 0.0
C735 C 0.4436 0.40711 0.22277 0.0
C736 C 0.46093 0.37357 0.24416 0.0
C737 C 0.65286 0.20544 0.22299 0.0
C738 C 0.67731 0.24748 0.22271 0.0
C739 C 0.60774 0.20713 0.23947 0.0
C740 C 0.58613 0.25076 0.25644 0.0
C741 C 0.61053 0.29283 0.25615 0.0
C742 C 0.6557 0.2912 0.23949 0.0
C743 C 0.53815 0.25299 0.27187 0.0
C744 C 0.51854 0.28763 0.25341 0.0
C745 C 0.51195 0.21898 0.3019 0.0
C746 C 0.53041 0.18444 0.32531 0.0
C747 C 0.55339 0.20196 0.35096 0.0
C748 C 0.57052 0.16934 0.37329 0.0
C749 C 0.56493 0.11911 0.37013 0.0
C750 C 0.54217 0.1014 0.34464 0.0
C751 C 0.52472 0.13389 0.32247 0.0
H752 H 0.57802 0.09392 0.3876 0.0
H753 H 0.40757 0.41669 0.18018 0.0
H754 H 0.66714 0.75985 0.79276 0.0
H755 H 0.58926 0.7566 0.8082 0.0
H756 H 0.61176 0.72511 0.67423 0.0
H757 H 0.68983 0.73036 0.65837 0.0
H758 H 0.54961 0.78638 0.70052 0.0
H759 H 0.58004 0.63588 0.758 0.0
H760 H 0.60829 0.58291 0.80238 0.0
H761 H 0.52379 0.65163 0.91754 0.0
H762 H 0.49544 0.70554 0.87389 0.0
H763 H 0.32311 0.6629 0.79648 0.0
H764 H 0.40144 0.66055 0.7795 0.0
H765 H 0.40357 0.81742 0.78965 0.0
H766 H 0.32546 0.82006 0.80595 0.0
H767 H 0.45325 0.68733 0.82152 0.0
H768 H 0.49182 0.86248 0.71871 0.0
H769 H 0.46208 0.90935 0.67168 0.0
H770 H 0.40922 0.77795 0.63956 0.0
H771 H 0.43861 0.73035 0.68641 0.0
C772 C 0.65548 0.75221 0.76659 0.0
C773 C 0.68461 0.74521 0.72435 0.0
C774 C 0.61088 0.75003 0.77551 0.0
C775 C 0.59439 0.73969 0.74259 0.0
C776 C 0.62354 0.73304 0.70027 0.0
C777 C 0.66818 0.73594 0.69122 0.0
C778 C 0.54684 0.73676 0.75209 0.0
C779 C 0.52871 0.76458 0.72695 0.0
C780 C 0.51921 0.70783 0.7862 0.0
C781 C 0.53605 0.67523 0.81257 0.0
C782 C 0.56774 0.64 0.79276 0.0
C783 C 0.58373 0.60978 0.81779 0.0
C784 C 0.56805 0.61421 0.86268 0.0
C785 C 0.53606 0.64849 0.88273 0.0
C786 C 0.51999 0.67885 0.85786 0.0
C787 C 0.34025 0.69686 0.79536 0.0
C788 C 0.31815 0.74169 0.80239 0.0
C789 C 0.38501 0.69547 0.78564 0.0
C790 C 0.40853 0.73885 0.78258 0.0
C791 C 0.38628 0.78353 0.79096 0.0
C792 C 0.34156 0.78497 0.80059 0.0
C793 C 0.45634 0.73749 0.77045 0.0
C794 C 0.47439 0.70896 0.79508 0.0
C795 C 0.48398 0.76484 0.73535 0.0
C796 C 0.46707 0.793 0.70635 0.0
C797 C 0.4739 0.84362 0.70155 0.0
C798 C 0.4569 0.87034 0.67513 0.0
C799 C 0.43346 0.8467 0.65295 0.0
C800 C 0.42708 0.79627 0.65703 0.0
C801 C 0.44379 0.76943 0.6836 0.0
H802 H 0.42061 0.8674 0.63227 0.0
H803 H 0.5807 0.59106 0.8819 0.0
H804 H 0.17276 0.83528 0.2558 0.0
H805 H 0.09402 0.82795 0.28113 0.0
H806 H 0.10588 0.68676 0.22035 0.0
H807 H 0.18467 0.69405 0.19454 0.0
H808 H 0.04741 0.74266 0.2027 0.0
H809 H 0.07803 0.6978 0.32978 0.0
H810 H 0.10697 0.70716 0.38874 0.0
H811 H 0.03014 0.83601 0.43243 0.0
H812 H 0.00181 0.82836 0.37292 0.0
H813 H 0.83202 0.6642 0.29687 0.0
H814 H 0.90975 0.6686 0.28255 0.0
H815 H 0.89543 0.81598 0.33129 0.0
H816 H 0.81752 0.81205 0.3454 0.0
H817 H 0.95435 0.75731 0.35674 0.0
H818 H 0.92513 0.80481 0.2305 0.0
H819 H 0.89324 0.79601 0.17375 0.0
H820 H 0.96643 0.66496 0.12898 0.0
H821 H 0.998 0.67228 0.18631 0.0
C822 C 0.15858 0.80269 0.24779 0.0
C823 C 0.18484 0.76525 0.2231 0.0
C824 C 0.11361 0.79842 0.26257 0.0
C825 C 0.09411 0.75656 0.25306 0.0
C826 C 0.12029 0.7193 0.22815 0.0
C827 C 0.16526 0.72351 0.21342 0.0
C828 C 0.04641 0.75229 0.26773 0.0
C829 C 0.02716 0.74515 0.23646 0.0
C830 C 0.01989 0.75709 0.31167 0.0
C831 C 0.03817 0.76278 0.34654 0.0
C832 C 0.06786 0.72859 0.35151 0.0
C833 C 0.08415 0.7336 0.38506 0.0
C834 C 0.07067 0.77238 0.41411 0.0
C835 C 0.04086 0.80624 0.40969 0.0
C836 C 0.02475 0.80165 0.37599 0.0
C837 C 0.84529 0.69729 0.30517 0.0
C838 C 0.81882 0.73794 0.32195 0.0
C839 C 0.88967 0.69975 0.2969 0.0
C840 C 0.90823 0.74276 0.3055 0.0
C841 C 0.8816 0.7825 0.32444 0.0
C842 C 0.83721 0.78025 0.33233 0.0
C843 C 0.95574 0.74736 0.29174 0.0
C844 C 0.9748 0.75473 0.32306 0.0
C845 C 0.98216 0.74322 0.24782 0.0
C846 C 0.96354 0.73878 0.21306 0.0
C847 C 0.93411 0.77382 0.20886 0.0
C848 C 0.91615 0.76916 0.17654 0.0
C849 C 0.92777 0.72994 0.14781 0.0
C850 C 0.95742 0.69529 0.15133 0.0
C851 C 0.97533 0.69965 0.18377 0.0
H852 H 0.91386 0.7265 0.12279 0.0
H853 H 0.08313 0.77604 0.44021 0.0
H854 H 0.17058 0.14963 0.6958 0.0
H855 H 0.09179 0.14566 0.7153 0.0
H856 H 0.08346 0.30108 0.73708 0.0
H857 H 0.16198 0.3055 0.71714 0.0
H858 H 0.02841 0.24244 0.80671 0.0
H859 H 0.06883 0.2626 0.65197 0.0
H860 H 0.10307 0.24238 0.57486 0.0
H861 H 0.03765 0.10418 0.59612 0.0
H862 H 0.00363 0.12325 0.67356 0.0
H863 H 0.8211 0.31909 0.8151 0.0
H864 H 0.89751 0.30432 0.80285 0.0
H865 H 0.88325 0.15448 0.77016 0.0
H866 H 0.80688 0.16908 0.78193 0.0
H867 H 0.94926 0.19808 0.70917 0.0
H868 H 0.90469 0.17748 0.86062 0.0
H869 H 0.86796 0.1951 0.93795 0.0
H870 H 0.93867 0.32924 0.92421 0.0
H871 H 0.97579 0.3125 0.84679 0.0
C872 C 0.15195 0.183 0.70429 0.0
C873 C 0.17237 0.2279 0.70496 0.0
C874 C 0.10705 0.18066 0.71528 0.0
C875 C 0.08199 0.22311 0.72747 0.0
C876 C 0.10236 0.26797 0.72768 0.0
C877 C 0.14718 0.27044 0.7162 0.0
C878 C 0.03432 0.22077 0.74231 0.0
C879 C 0.011 0.23317 0.78534 0.0
C880 C 0.01186 0.20654 0.71481 0.0
C881 C 0.03431 0.19398 0.66875 0.0
C882 C 0.06241 0.2275 0.6404 0.0
C883 C 0.08162 0.21635 0.59657 0.0
C884 C 0.07275 0.17191 0.58064 0.0
C885 C 0.04468 0.13849 0.60852 0.0
C886 C 0.02547 0.14943 0.65238 0.0
C887 C 0.83413 0.28285 0.80581 0.0
C888 C 0.80814 0.24534 0.79917 0.0
C889 C 0.8777 0.27435 0.79912 0.0
C890 C 0.89598 0.22821 0.78575 0.0
C891 C 0.86975 0.19032 0.78038 0.0
C892 C 0.82616 0.19875 0.78717 0.0
C893 C 0.94322 0.22112 0.77331 0.0
C894 C 0.96654 0.20676 0.73079 0.0
C895 C 0.96568 0.23303 0.80139 0.0
C896 C 0.94273 0.24393 0.84776 0.0
C897 C 0.91211 0.21097 0.87399 0.0
C898 C 0.89136 0.2207 0.9179 0.0
C899 C 0.90095 0.26329 0.93599 0.0
C900 C 0.93135 0.29621 0.9102 0.0
C901 C 0.95232 0.28658 0.86631 0.0
H902 H 0.88488 0.27075 0.96999 0.0
H903 H 0.08748 0.16346 0.54666 0.0
loop_
_geom_bond_atom_site_label_1
_geom_bond_atom_site_label_2
_geom_bond_distance
_geom_bond_site_symmetry_2
_ccdc_geom_bond_type
In0 O1 2.294 . S
In0 O2 2.326 . S
In0 O6 2.266 . S
In0 O7 2.326 . S
In0 O8 2.266 . S
In0 O9 2.326 . S
In0 O11 2.294 . S
In0 O12 2.326 . S
O1 In0 2.294 . S
O1 C10 1.240 . S
O2 In0 2.326 . S
O2 C10 1.252 . S
C3 O6 1.252 . S
C3 O7 1.260 . S
C4 O11 1.240 . S
C4 O12 1.252 . S
C5 O8 1.252 . S
C5 O9 1.260 . S
O6 In0 2.266 . S
O6 C3 1.252 . S
O7 In0 2.326 . S
O7 C3 1.260 . S
O8 In0 2.266 . S
O8 C5 1.252 . S
O9 In0 2.326 . S
O9 C5 1.260 . S
C10 O1 1.240 . S
C10 O2 1.252 . S
O11 In0 2.294 . S
O11 C4 1.240 . S
O12 In0 2.326 . S
O12 C4 1.252 . S
In13 O14 2.294 . S
In13 O15 2.326 . S
In13 O19 2.266 . S
In13 O20 2.326 . S
In13 O21 2.266 . S
In13 O22 2.326 . S
In13 O24 2.294 . S
In13 O25 2.326 . S
O14 In13 2.294 . S
O14 C23 1.240 . S
O15 In13 2.326 . S
O15 C23 1.252 . S
C16 O19 1.252 . S
C16 O20 1.260 . S
C17 O24 1.240 . S
C17 O25 1.252 . S
C18 O21 1.252 . S
C18 O22 1.260 . S
O19 In13 2.266 . S
O19 C16 1.252 . S
O20 In13 2.326 . S
O20 C16 1.260 . S
O21 In13 2.266 . S
O21 C18 1.252 . S
O22 In13 2.326 . S
O22 C18 1.260 . S
C23 O14 1.240 . S
C23 O15 1.252 . S
O24 In13 2.294 . S
O24 C17 1.240 . S
O25 In13 2.326 . S
O25 C17 1.252 . S
In26 O27 2.294 . S
In26 O28 2.326 . S
In26 O32 2.266 . S
In26 O33 2.326 . S
In26 O34 2.266 . S
In26 O35 2.326 . S
In26 O37 2.294 . S
In26 O38 2.326 . S
O27 In26 2.294 . S
O27 C36 1.240 . S
O28 In26 2.326 . S
O28 C36 1.252 . S
C29 O32 1.252 . S
C29 O33 1.260 . S
C30 O37 1.240 . S
C30 O38 1.252 . S
C31 O34 1.252 . S
C31 O35 1.260 . S
O32 In26 2.266 . S
O32 C29 1.252 . S
O33 In26 2.326 . S
O33 C29 1.260 . S
O34 In26 2.266 . S
O34 C31 1.252 . S
O35 In26 2.326 . S
O35 C31 1.260 . S
C36 O27 1.240 . S
C36 O28 1.252 . S
O37 In26 2.294 . S
O37 C30 1.240 . S
O38 In26 2.326 . S
O38 C30 1.252 . S
In39 O40 2.294 . S
In39 O41 2.326 . S
In39 O45 2.266 . S
In39 O46 2.326 . S
In39 O47 2.266 . S
In39 O48 2.326 . S
In39 O50 2.294 . S
In39 O51 2.326 . S
O40 In39 2.294 . S
O40 C49 1.240 . S
O41 In39 2.326 . S
O41 C49 1.252 . S
C42 O45 1.252 . S
C42 O46 1.260 . S
C43 O50 1.240 . S
C43 O51 1.252 . S
C44 O47 1.252 . S
C44 O48 1.260 . S
O45 In39 2.266 . S
O45 C42 1.252 . S
O46 In39 2.326 . S
O46 C42 1.260 . S
O47 In39 2.266 . S
O47 C44 1.252 . S
O48 In39 2.326 . S
O48 C44 1.260 . S
C49 O40 1.240 . S
C49 O41 1.252 . S
O50 In39 2.294 . S
O50 C43 1.240 . S
O51 In39 2.326 . S
O51 C43 1.252 . S
In52 O53 2.294 . S
In52 O54 2.326 . S
In52 O58 2.266 . S
In52 O59 2.326 . S
In52 O60 2.266 . S
In52 O61 2.326 . S
In52 O63 2.294 . S
In52 O64 2.326 . S
O53 In52 2.294 . S
O53 C62 1.240 . S
O54 In52 2.326 . S
O54 C62 1.252 . S
C55 O58 1.252 . S
C55 O59 1.260 . S
C56 O63 1.240 . S
C56 O64 1.252 . S
C57 O60 1.252 . S
C57 O61 1.260 . S
O58 In52 2.266 . S
O58 C55 1.252 . S
O59 In52 2.326 . S
O59 C55 1.260 . S
O60 In52 2.266 . S
O60 C57 1.252 . S
O61 In52 2.326 . S
O61 C57 1.260 . S
C62 O53 1.240 . S
C62 O54 1.252 . S
O63 In52 2.294 . S
O63 C56 1.240 . S
O64 In52 2.326 . S
O64 C56 1.252 . S
In65 O66 2.294 . S
In65 O67 2.326 . S
In65 O71 2.266 . S
In65 O72 2.326 . S
In65 O73 2.266 . S
In65 O74 2.326 . S
In65 O76 2.294 . S
In65 O77 2.326 . S
O66 In65 2.294 . S
O66 C75 1.240 . S
O67 In65 2.326 . S
O67 C75 1.252 . S
C68 O71 1.252 . S
C68 O72 1.260 . S
C69 O76 1.240 . S
C69 O77 1.252 . S
C70 O73 1.252 . S
C70 O74 1.260 . S
O71 In65 2.266 . S
O71 C68 1.252 . S
O72 In65 2.326 . S
O72 C68 1.260 . S
O73 In65 2.266 . S
O73 C70 1.252 . S
O74 In65 2.326 . S
O74 C70 1.260 . S
C75 O66 1.240 . S
C75 O67 1.252 . S
O76 In65 2.294 . S
O76 C69 1.240 . S
O77 In65 2.326 . S
O77 C69 1.252 . S
In78 O79 2.294 . S
In78 O80 2.326 . S
In78 O84 2.266 . S
In78 O85 2.326 . S
In78 O86 2.266 . S
In78 O87 2.326 . S
In78 O89 2.294 . S
In78 O90 2.326 . S
O79 In78 2.294 . S
O79 C88 1.240 . S
O80 In78 2.326 . S
O80 C88 1.252 . S
C81 O84 1.252 . S
C81 O85 1.260 . S
C82 O89 1.240 . S
C82 O90 1.252 . S
C83 O86 1.252 . S
C83 O87 1.260 . S
O84 In78 2.266 . S
O84 C81 1.252 . S
O85 In78 2.326 . S
O85 C81 1.260 . S
O86 In78 2.266 . S
O86 C83 1.252 . S
O87 In78 2.326 . S
O87 C83 1.260 . S
C88 O79 1.240 . S
C88 O80 1.252 . S
O89 In78 2.294 . S
O89 C82 1.240 . S
O90 In78 2.326 . S
O90 C82 1.252 . S
In91 O92 2.294 . S
In91 O93 2.326 . S
In91 O97 2.266 . S
In91 O98 2.326 . S
In91 O99 2.266 . S
In91 O100 2.326 . S
In91 O102 2.294 . S
In91 O103 2.326 . S
O92 In91 2.294 . S
O92 C101 1.240 . S
O93 In91 2.326 . S
O93 C101 1.252 . S
C94 O97 1.252 . S
C94 O98 1.260 . S
C95 O102 1.240 . S
C95 O103 1.252 . S
C96 O99 1.252 . S
C96 O100 1.260 . S
O97 In91 2.266 . S
O97 C94 1.252 . S
O98 In91 2.326 . S
O98 C94 1.260 . S
O99 In91 2.266 . S
O99 C96 1.252 . S
O100 In91 2.326 . S
O100 C96 1.260 . S
C101 O92 1.240 . S
C101 O93 1.252 . S
O102 In91 2.294 . S
O102 C95 1.240 . S
O103 In91 2.326 . S
O103 C95 1.252 . S
H104 C122 0.951 . S
H105 C124 0.951 . S
H106 C126 0.950 . S
H107 C127 0.950 . S
H108 C129 0.950 . S
H109 C132 0.950 1_655 S
H110 C133 0.950 . S
H111 C135 0.950 . S
H112 C136 0.950 . S
H113 C137 0.951 . S
H114 C139 0.951 . S
H115 C141 0.950 . S
H116 C142 0.950 . S
H117 C144 0.950 . S
H118 C147 0.950 1_455 S
H119 C148 0.950 . S
H120 C150 0.950 . S
H121 C151 0.950 . S
C122 H104 0.951 . S
C122 C123 1.366 . S
C122 C124 1.388 . S
C123 C122 1.366 . S
C123 C127 1.385 . S
C124 H105 0.951 . S
C124 C122 1.388 . S
C124 C125 1.366 . S
C125 C124 1.366 . S
C125 C126 1.414 . S
C125 C128 1.499 . S
C126 H106 0.950 . S
C126 C125 1.414 . S
C126 C127 1.374 . S
C127 H107 0.950 . S
C127 C123 1.385 . S
C127 C126 1.374 . S
C128 C125 1.499 . S
C128 C129 1.373 . S
C128 C130 1.389 1_545 S
C129 H108 0.950 . S
C129 C128 1.373 . S
C129 C145 1.377 1_455 S
C130 C128 1.389 1_565 S
C130 C131 1.524 . S
C130 C144 1.377 1_455 S
C131 C130 1.524 . S
C131 C132 1.397 1_565 S
C131 C136 1.363 . S
C132 H109 0.950 1_455 S
C132 C131 1.397 1_545 S
C132 C133 1.334 . S
C133 H110 0.950 . S
C133 C132 1.334 . S
C133 C134 1.287 1_545 S
C134 C133 1.287 1_565 S
C134 C135 1.524 . S
C134 H153 0.913 . S
C135 H111 0.950 . S
C135 C134 1.524 . S
C135 C136 1.415 . S
C136 H112 0.950 . S
C136 C131 1.363 . S
C136 C135 1.415 . S
C137 H113 0.951 . S
C137 C138 1.366 . S
C137 C139 1.388 . S
C138 C137 1.366 . S
C138 C142 1.385 . S
C139 H114 0.951 . S
C139 C137 1.388 . S
C139 C140 1.366 . S
C140 C139 1.366 . S
C140 C141 1.414 . S
C140 C143 1.499 . S
C141 H115 0.950 . S
C141 C140 1.414 . S
C141 C142 1.374 . S
C142 H116 0.950 . S
C142 C138 1.385 . S
C142 C141 1.374 . S
C143 C140 1.499 . S
C143 C144 1.373 . S
C143 C145 1.389 1_565 S
C144 H117 0.950 . S
C144 C130 1.377 1_655 S
C144 C143 1.373 . S
C145 C129 1.377 1_655 S
C145 C143 1.389 1_545 S
C145 C146 1.524 . S
C146 C145 1.524 . S
C146 C147 1.397 1_545 S
C146 C151 1.363 . S
C147 H118 0.950 1_655 S
C147 C146 1.397 1_565 S
C147 C148 1.334 . S
C148 H119 0.950 . S
C148 C147 1.334 . S
C148 C149 1.287 1_565 S
C149 C148 1.287 1_545 S
C149 C150 1.524 . S
C149 H152 0.999 . S
C150 H120 0.950 . S
C150 C149 1.524 . S
C150 C151 1.415 . S
C151 H121 0.950 . S
C151 C146 1.363 . S
C151 C150 1.415 . S
H152 C149 0.999 . S
H153 C134 0.913 . S
H154 C172 0.951 . S
H155 C174 0.951 . S
H156 C176 0.950 . S
H157 C177 0.950 . S
H158 C179 0.950 . S
H159 C182 0.942 1_565 S
H160 C183 0.950 1_565 S
H161 C185 0.950 . S
H162 C186 0.950 . S
H163 C187 0.951 . S
H164 C189 0.951 . S
H165 C191 0.950 . S
H166 C192 0.950 . S
H167 C194 0.950 . S
H168 C197 0.942 1_545 S
H169 C198 0.950 1_545 S
H170 C200 0.950 . S
H171 C201 0.950 . S
C172 H154 0.951 . S
C172 C173 1.366 . S
C172 C174 1.388 . S
C173 C172 1.366 . S
C173 C177 1.385 . S
C174 H155 0.951 . S
C174 C172 1.388 . S
C174 C175 1.366 . S
C175 C174 1.366 . S
C175 C176 1.414 . S
C175 C178 1.499 . S
C176 H156 0.950 . S
C176 C175 1.414 . S
C176 C177 1.374 . S
C177 H157 0.950 . S
C177 C173 1.385 . S
C177 C176 1.374 . S
C178 C175 1.499 . S
C178 C179 1.373 1_456 S
C178 C180 1.389 1_565 S
C179 H158 0.950 . S
C179 C178 1.373 1_654 S
C179 C195 1.377 . S
C180 C178 1.389 1_545 S
C180 C181 1.524 . S
C180 C194 1.377 . S
C181 C180 1.524 . S
C181 C182 1.402 . S
C181 C186 1.363 . S
C182 H159 0.942 1_545 S
C182 C181 1.402 . S
C182 C183 1.336 . S
C183 H160 0.950 1_545 S
C183 C182 1.336 . S
C183 C184 1.287 . S
C184 C183 1.287 . S
C184 C185 1.524 . S
C184 H203 0.913 . S
C185 H161 0.950 . S
C185 C184 1.524 . S
C185 C186 1.415 . S
C186 H162 0.950 . S
C186 C181 1.363 . S
C186 C185 1.415 . S
C187 H163 0.951 . S
C187 C188 1.366 . S
C187 C189 1.388 . S
C188 C187 1.366 . S
C188 C192 1.385 . S
C189 H164 0.951 . S
C189 C187 1.388 . S
C189 C190 1.366 . S
C190 C189 1.366 . S
C190 C191 1.414 . S
C190 C193 1.499 . S
C191 H165 0.950 . S
C191 C190 1.414 . S
C191 C192 1.374 . S
C192 H166 0.950 . S
C192 C188 1.385 . S
C192 C191 1.374 . S
C193 C190 1.499 . S
C193 C194 1.373 1_654 S
C193 C195 1.389 1_545 S
C194 H167 0.950 . S
C194 C180 1.377 . S
C194 C193 1.373 1_456 S
C195 C179 1.377 . S
C195 C193 1.389 1_565 S
C195 C196 1.524 . S
C196 C195 1.524 . S
C196 C197 1.402 . S
C196 C201 1.363 . S
C197 H168 0.942 1_565 S
C197 C196 1.402 . S
C197 C198 1.336 . S
C198 H169 0.950 1_565 S
C198 C197 1.336 . S
C198 C199 1.287 . S
C199 C198 1.287 . S
C199 C200 1.524 . S
C199 H202 0.999 . S
C200 H170 0.950 . S
C200 C199 1.524 . S
C200 C201 1.415 . S
C201 H171 0.950 . S
C201 C196 1.363 . S
C201 C200 1.415 . S
H202 C199 0.999 . S
H203 C184 0.913 . S
H204 C222 0.951 . S
H205 C224 0.951 . S
H206 C226 0.950 . S
H207 C227 0.950 . S
H208 C229 0.950 . S
H209 C232 0.950 . S
H210 C233 0.950 . S
H211 C235 0.950 . S
H212 C236 0.950 . S
H213 C237 0.951 . S
H214 C239 0.951 . S
H215 C241 0.950 . S
H216 C242 0.950 . S
H217 C244 0.950 . S
H218 C247 0.950 . S
H219 C248 0.950 . S
H220 C250 0.950 . S
H221 C251 0.950 . S
C222 H204 0.951 . S
C222 C223 1.366 . S
C222 C224 1.388 . S
C223 C222 1.366 . S
C223 C227 1.385 . S
C224 H205 0.951 . S
C224 C222 1.388 . S
C224 C225 1.366 . S
C225 C224 1.366 . S
C225 C226 1.414 . S
C225 C228 1.499 . S
C226 H206 0.950 . S
C226 C225 1.414 . S
C226 C227 1.374 . S
C227 H207 0.950 . S
C227 C223 1.385 . S
C227 C226 1.374 . S
C228 C225 1.499 . S
C228 C229 1.373 . S
C228 C230 1.389 . S
C229 H208 0.950 . S
C229 C228 1.373 . S
C229 C245 1.377 . S
C230 C228 1.389 . S
C230 C231 1.524 . S
C230 C244 1.377 . S
C231 C230 1.524 . S
C231 C232 1.397 . S
C231 C236 1.363 . S
C232 H209 0.950 . S
C232 C231 1.397 . S
C232 C233 1.334 . S
C233 H210 0.950 . S
C233 C232 1.334 . S
C233 C234 1.287 . S
C234 C233 1.287 . S
C234 C235 1.524 . S
C234 H253 0.913 . S
C235 H211 0.950 . S
C235 C234 1.524 . S
C235 C236 1.415 . S
C236 H212 0.950 . S
C236 C231 1.363 . S
C236 C235 1.415 . S
C237 H213 0.951 . S
C237 C238 1.366 . S
C237 C239 1.388 . S
C238 C237 1.366 . S
C238 C242 1.385 . S
C239 H214 0.951 . S
C239 C237 1.388 . S
C239 C240 1.366 . S
C240 C239 1.366 . S
C240 C241 1.414 . S
C240 C243 1.499 . S
C241 H215 0.950 . S
C241 C240 1.414 . S
C241 C242 1.374 . S
C242 H216 0.950 . S
C242 C238 1.385 . S
C242 C241 1.374 . S
C243 C240 1.499 . S
C243 C244 1.373 . S
C243 C245 1.389 . S
C244 H217 0.950 . S
C244 C230 1.377 . S
C244 C243 1.373 . S
C245 C229 1.377 . S
C245 C243 1.389 . S
C245 C246 1.524 . S
C246 C245 1.524 . S
C246 C247 1.397 . S
C246 C251 1.363 . S
C247 H218 0.950 . S
C247 C246 1.397 . S
C247 C248 1.334 . S
C248 H219 0.950 . S
C248 C247 1.334 . S
C248 C249 1.287 . S
C249 C248 1.287 . S
C249 C250 1.524 . S
C249 H252 0.999 . S
C250 H220 0.950 . S
C250 C249 1.524 . S
C250 C251 1.415 . S
C251 H221 0.950 . S
C251 C246 1.363 . S
C251 C250 1.415 . S
H252 C249 0.999 . S
H253 C234 0.913 . S
H254 C272 0.951 . S
H255 C274 0.951 . S
H256 C276 0.950 . S
H257 C277 0.950 . S
H258 C279 0.950 . S
H259 C282 0.950 . S
H260 C283 0.950 1_554 S
H261 C285 0.950 . S
H262 C286 0.950 . S
H263 C287 0.951 . S
H264 C289 0.951 . S
H265 C291 0.950 . S
H266 C292 0.950 . S
H267 C294 0.950 . S
H268 C297 0.950 . S
H269 C298 0.950 1_556 S
H270 C300 0.950 . S
H271 C301 0.950 . S
C272 H254 0.951 . S
C272 C273 1.366 . S
C272 C274 1.388 . S
C273 C272 1.366 . S
C273 C277 1.385 . S
C274 H255 0.951 . S
C274 C272 1.388 . S
C274 C275 1.366 . S
C275 C274 1.366 . S
C275 C276 1.414 . S
C275 C278 1.499 . S
C276 H256 0.950 . S
C276 C275 1.414 . S
C276 C277 1.374 . S
C277 H257 0.950 . S
C277 C273 1.385 . S
C277 C276 1.374 . S
C278 C275 1.499 . S
C278 C279 1.373 . S
C278 C280 1.389 1_554 S
C279 H258 0.950 . S
C279 C278 1.373 . S
C279 C295 1.377 . S
C280 C278 1.389 1_556 S
C280 C281 1.524 . S
C280 C294 1.377 . S
C281 C280 1.524 . S
C281 C282 1.397 1_556 S
C281 C286 1.363 . S
C282 H259 0.950 . S
C282 C281 1.397 1_554 S
C282 C283 1.334 1_554 S
C283 H260 0.950 1_556 S
C283 C282 1.334 1_556 S
C283 C284 1.287 . S
C284 C283 1.287 . S
C284 C285 1.524 . S
C284 H303 0.913 . S
C285 H261 0.950 . S
C285 C284 1.524 . S
C285 C286 1.415 . S
C286 H262 0.950 . S
C286 C281 1.363 . S
C286 C285 1.415 . S
C287 H263 0.951 . S
C287 C288 1.366 . S
C287 C289 1.388 . S
C288 C287 1.366 . S
C288 C292 1.385 . S
C289 H264 0.951 . S
C289 C287 1.388 . S
C289 C290 1.366 . S
C290 C289 1.366 . S
C290 C291 1.414 . S
C290 C293 1.499 . S
C291 H265 0.950 . S
C291 C290 1.414 . S
C291 C292 1.374 . S
C292 H266 0.950 . S
C292 C288 1.385 . S
C292 C291 1.374 . S
C293 C290 1.499 . S
C293 C294 1.373 . S
C293 C295 1.389 1_556 S
C294 H267 0.950 . S
C294 C280 1.377 . S
C294 C293 1.373 . S
C295 C279 1.377 . S
C295 C293 1.389 1_554 S
C295 C296 1.524 . S
C296 C295 1.524 . S
C296 C297 1.397 1_554 S
C296 C301 1.363 . S
C297 H268 0.950 . S
C297 C296 1.397 1_556 S
C297 C298 1.334 1_556 S
C298 H269 0.950 1_554 S
C298 C297 1.334 1_554 S
C298 C299 1.287 . S
C299 C298 1.287 . S
C299 C300 1.524 . S
C299 H302 0.999 . S
C300 H270 0.950 . S
C300 C299 1.524 . S
C300 C301 1.415 . S
C301 H271 0.950 . S
C301 C296 1.363 . S
C301 C300 1.415 . S
H302 C299 0.999 . S
H303 C284 0.913 . S
H304 C322 0.951 . S
H305 C324 0.951 . S
H306 C326 0.950 . S
H307 C327 0.950 . S
H308 C329 0.950 . S
H309 C332 0.950 . S
H310 C333 0.950 . S
H311 C335 0.950 . S
H312 C336 0.950 . S
H313 C337 0.951 . S
H314 C339 0.951 . S
H315 C341 0.950 . S
H316 C342 0.950 . S
H317 C344 0.950 . S
H318 C347 0.950 . S
H319 C348 0.950 . S
H320 C350 0.950 . S
H321 C351 0.950 . S
C322 H304 0.951 . S
C322 C323 1.366 . S
C322 C324 1.388 . S
C323 C322 1.366 . S
C323 C327 1.385 . S
C324 H305 0.951 . S
C324 C322 1.388 . S
C324 C325 1.366 . S
C325 C324 1.366 . S
C325 C326 1.414 . S
C325 C328 1.499 . S
C326 H306 0.950 . S
C326 C325 1.414 . S
C326 C327 1.374 . S
C327 H307 0.950 . S
C327 C323 1.385 . S
C327 C326 1.374 . S
C328 C325 1.499 . S
C328 C329 1.373 . S
C328 C330 1.389 1_655 S
C329 H308 0.950 . S
C329 C328 1.373 . S
C329 C345 1.377 1_554 S
C330 C328 1.389 1_455 S
C330 C331 1.524 . S
C330 C344 1.377 1_554 S
C331 C330 1.524 . S
C331 C332 1.397 . S
C331 C336 1.363 1_554 S
C332 H309 0.950 . S
C332 C331 1.397 . S
C332 C333 1.334 . S
C333 H310 0.950 . S
C333 C332 1.334 . S
C333 C334 1.287 . S
C334 C333 1.287 . S
C334 C335 1.524 1_554 S
C334 H353 0.913 . S
C335 H311 0.950 . S
C335 C334 1.524 1_556 S
C335 C336 1.415 . S
C336 H312 0.950 . S
C336 C331 1.363 1_556 S
C336 C335 1.415 . S
C337 H313 0.951 . S
C337 C338 1.366 . S
C337 C339 1.388 . S
C338 C337 1.366 . S
C338 C342 1.385 . S
C339 H314 0.951 . S
C339 C337 1.388 . S
C339 C340 1.366 . S
C340 C339 1.366 . S
C340 C341 1.414 . S
C340 C343 1.499 . S
C341 H315 0.950 . S
C341 C340 1.414 . S
C341 C342 1.374 . S
C342 H316 0.950 . S
C342 C338 1.385 . S
C342 C341 1.374 . S
C343 C340 1.499 . S
C343 C344 1.373 . S
C343 C345 1.389 1_455 S
C344 H317 0.950 . S
C344 C330 1.377 1_556 S
C344 C343 1.373 . S
C345 C329 1.377 1_556 S
C345 C343 1.389 1_655 S
C345 C346 1.524 . S
C346 C345 1.524 . S
C346 C347 1.397 . S
C346 C351 1.363 1_556 S
C347 H318 0.950 . S
C347 C346 1.397 . S
C347 C348 1.334 . S
C348 H319 0.950 . S
C348 C347 1.334 . S
C348 C349 1.287 . S
C349 C348 1.287 . S
C349 C350 1.524 1_556 S
C349 H352 0.999 . S
C350 H320 0.950 . S
C350 C349 1.524 1_554 S
C350 C351 1.415 . S
C351 H321 0.950 . S
C351 C346 1.363 1_554 S
C351 C350 1.415 . S
H352 C349 0.999 . S
H353 C334 0.913 . S
H354 C372 0.951 . S
H355 C374 0.951 . S
H356 C376 0.950 . S
H357 C377 0.950 . S
H358 C379 0.950 . S
H359 C382 0.950 . S
H360 C383 0.950 . S
H361 C385 0.950 . S
H362 C386 0.950 . S
H363 C387 0.951 . S
H364 C389 0.951 . S
H365 C391 0.950 . S
H366 C392 0.950 . S
H367 C394 0.950 . S
H368 C397 0.950 . S
H369 C398 0.950 . S
H370 C400 0.950 . S
H371 C401 0.950 . S
C372 H354 0.951 . S
C372 C373 1.366 . S
C372 C374 1.388 . S
C373 C372 1.366 . S
C373 C377 1.385 . S
C374 H355 0.951 . S
C374 C372 1.388 . S
C374 C375 1.366 . S
C375 C374 1.366 . S
C375 C376 1.414 . S
C375 C378 1.499 . S
C376 H356 0.950 . S
C376 C375 1.414 . S
C376 C377 1.374 . S
C377 H357 0.950 . S
C377 C373 1.385 . S
C377 C376 1.374 . S
C378 C375 1.499 . S
C378 C379 1.373 1_455 S
C378 C380 1.389 . S
C379 H358 0.950 . S
C379 C378 1.373 1_655 S
C379 C395 1.377 . S
C380 C378 1.389 . S
C380 C381 1.524 . S
C380 C394 1.377 . S
C381 C380 1.524 . S
C381 C382 1.397 . S
C381 C386 1.363 . S
C382 H359 0.950 . S
C382 C381 1.397 . S
C382 C383 1.334 . S
C383 H360 0.950 . S
C383 C382 1.334 . S
C383 C384 1.287 . S
C384 C383 1.287 . S
C384 C385 1.524 . S
C384 H403 0.913 . S
C385 H361 0.950 . S
C385 C384 1.524 . S
C385 C386 1.415 . S
C386 H362 0.950 . S
C386 C381 1.363 . S
C386 C385 1.415 . S
C387 H363 0.951 . S
C387 C388 1.366 . S
C387 C389 1.388 . S
C388 C387 1.366 . S
C388 C392 1.385 . S
C389 H364 0.951 . S
C389 C387 1.388 . S
C389 C390 1.366 . S
C390 C389 1.366 . S
C390 C391 1.414 . S
C390 C393 1.499 . S
C391 H365 0.950 . S
C391 C390 1.414 . S
C391 C392 1.374 . S
C392 H366 0.950 . S
C392 C388 1.385 . S
C392 C391 1.374 . S
C393 C390 1.499 . S
C393 C394 1.373 1_655 S
C393 C395 1.389 . S
C394 H367 0.950 . S
C394 C380 1.377 . S
C394 C393 1.373 1_455 S
C395 C379 1.377 . S
C395 C393 1.389 . S
C395 C396 1.524 . S
C396 C395 1.524 . S
C396 C397 1.397 . S
C396 C401 1.363 . S
C397 H368 0.950 . S
C397 C396 1.397 . S
C397 C398 1.334 . S
C398 H369 0.950 . S
C398 C397 1.334 . S
C398 C399 1.287 . S
C399 C398 1.287 . S
C399 C400 1.524 . S
C399 H402 0.999 . S
C400 H370 0.950 . S
C400 C399 1.524 . S
C400 C401 1.415 . S
C401 H371 0.950 . S
C401 C396 1.363 . S
C401 C400 1.415 . S
H402 C399 0.999 . S
H403 C384 0.913 . S
H404 C422 0.951 . S
H405 C424 0.951 . S
H406 C426 0.950 . S
H407 C427 0.950 . S
H408 C429 0.950 . S
H409 C432 0.950 . S
H410 C433 0.950 . S
H411 C435 0.950 . S
H412 C436 0.950 . S
H413 C437 0.951 . S
H414 C439 0.951 . S
H415 C441 0.950 . S
H416 C442 0.950 . S
H417 C444 0.950 . S
H418 C447 0.950 . S
H419 C448 0.950 . S
H420 C450 0.950 . S
H421 C451 0.950 . S
C422 H404 0.951 . S
C422 C423 1.366 . S
C422 C424 1.388 . S
C423 C422 1.366 . S
C423 C427 1.385 . S
C424 H405 0.951 . S
C424 C422 1.388 . S
C424 C425 1.366 . S
C425 C424 1.366 . S
C425 C426 1.414 . S
C425 C428 1.499 . S
C426 H406 0.950 . S
C426 C425 1.414 . S
C426 C427 1.374 . S
C427 H407 0.950 . S
C427 C423 1.385 . S
C427 C426 1.374 . S
C428 C425 1.499 . S
C428 C429 1.373 . S
C428 C430 1.389 1_545 S
C429 H408 0.950 . S
C429 C428 1.373 . S
C429 C445 1.377 1_556 S
C430 C428 1.389 1_565 S
C430 C431 1.524 . S
C430 C444 1.377 1_556 S
C431 C430 1.524 . S
C431 C432 1.397 . S
C431 C436 1.363 1_556 S
C432 H409 0.950 . S
C432 C431 1.397 . S
C432 C433 1.334 . S
C433 H410 0.950 . S
C433 C432 1.334 . S
C433 C434 1.287 . S
C434 C433 1.287 . S
C434 C435 1.524 1_556 S
C434 H453 0.913 . S
C435 H411 0.950 . S
C435 C434 1.524 1_554 S
C435 C436 1.415 . S
C436 H412 0.950 . S
C436 C431 1.363 1_554 S
C436 C435 1.415 . S
C437 H413 0.951 . S
C437 C438 1.366 . S
C437 C439 1.388 . S
C438 C437 1.366 . S
C438 C442 1.385 . S
C439 H414 0.951 . S
C439 C437 1.388 . S
C439 C440 1.366 . S
C440 C439 1.366 . S
C440 C441 1.414 . S
C440 C443 1.499 . S
C441 H415 0.950 . S
C441 C440 1.414 . S
C441 C442 1.374 . S
C442 H416 0.950 . S
C442 C438 1.385 . S
C442 C441 1.374 . S
C443 C440 1.499 . S
C443 C444 1.373 . S
C443 C445 1.389 1_565 S
C444 H417 0.950 . S
C444 C430 1.377 1_554 S
C444 C443 1.373 . S
C445 C429 1.377 1_554 S
C445 C443 1.389 1_545 S
C445 C446 1.524 . S
C446 C445 1.524 . S
C446 C447 1.397 . S
C446 C451 1.363 1_554 S
C447 H418 0.950 . S
C447 C446 1.397 . S
C447 C448 1.334 . S
C448 H419 0.950 . S
C448 C447 1.334 . S
C448 C449 1.287 . S
C449 C448 1.287 . S
C449 C450 1.524 1_554 S
C449 H452 0.999 . S
C450 H420 0.950 . S
C450 C449 1.524 1_556 S
C450 C451 1.415 . S
C451 H421 0.950 . S
C451 C446 1.363 1_556 S
C451 C450 1.415 . S
H452 C449 0.999 . S
H453 C434 0.913 . S
H454 C472 0.951 . S
H455 C474 0.951 . S
H456 C476 0.950 . S
H457 C477 0.950 . S
H458 C479 0.950 . S
H459 C482 0.950 . S
H460 C483 0.950 . S
H461 C485 0.950 . S
H462 C486 0.950 1_545 S
H463 C487 0.951 . S
H464 C489 0.951 . S
H465 C491 0.950 . S
H466 C492 0.950 . S
H467 C494 0.950 . S
H468 C497 0.950 . S
H469 C498 0.950 . S
H470 C500 0.950 . S
H471 C501 0.950 1_565 S
C472 H454 0.951 . S
C472 C473 1.366 . S
C472 C474 1.388 . S
C473 C472 1.366 . S
C473 C477 1.385 . S
C474 H455 0.951 . S
C474 C472 1.388 . S
C474 C475 1.366 . S
C475 C474 1.366 . S
C475 C476 1.414 . S
C475 C478 1.499 . S
C476 H456 0.950 . S
C476 C475 1.414 . S
C476 C477 1.374 . S
C477 H457 0.950 . S
C477 C473 1.385 . S
C477 C476 1.374 . S
C478 C475 1.499 . S
C478 C479 1.373 . S
C478 C480 1.389 . S
C479 H458 0.950 . S
C479 C478 1.373 . S
C479 C495 1.377 1_565 S
C480 C478 1.389 . S
C480 C481 1.524 . S
C480 C494 1.377 1_565 S
C481 C480 1.524 . S
C481 C482 1.397 . S
C481 C486 1.363 . S
C482 H459 0.950 . S
C482 C481 1.397 . S
C482 C483 1.334 . S
C483 H460 0.950 . S
C483 C482 1.334 . S
C483 C484 1.287 . S
C484 C483 1.287 . S
C484 C485 1.524 . S
C484 H503 0.913 . S
C485 H461 0.950 . S
C485 C484 1.524 . S
C485 C486 1.415 . S
C486 H462 0.950 1_565 S
C486 C481 1.363 . S
C486 C485 1.415 . S
C487 H463 0.951 . S
C487 C488 1.366 . S
C487 C489 1.388 . S
C488 C487 1.366 . S
C488 C492 1.385 . S
C489 H464 0.951 . S
C489 C487 1.388 . S
C489 C490 1.366 . S
C490 C489 1.366 . S
C490 C491 1.414 . S
C490 C493 1.499 . S
C491 H465 0.950 . S
C491 C490 1.414 . S
C491 C492 1.374 . S
C492 H466 0.950 . S
C492 C488 1.385 . S
C492 C491 1.374 . S
C493 C490 1.499 . S
C493 C494 1.373 . S
C493 C495 1.389 . S
C494 H467 0.950 . S
C494 C480 1.377 1_545 S
C494 C493 1.373 . S
C495 C479 1.377 1_545 S
C495 C493 1.389 . S
C495 C496 1.524 . S
C496 C495 1.524 . S
C496 C497 1.397 . S
C496 C501 1.363 . S
C497 H468 0.950 . S
C497 C496 1.397 . S
C497 C498 1.334 . S
C498 H469 0.950 . S
C498 C497 1.334 . S
C498 C499 1.287 . S
C499 C498 1.287 . S
C499 C500 1.524 . S
C499 H502 0.999 . S
C500 H470 0.950 . S
C500 C499 1.524 . S
C500 C501 1.415 . S
C501 H471 0.950 1_545 S
C501 C496 1.363 . S
C501 C500 1.415 . S
H502 C499 0.999 . S
H503 C484 0.913 . S
H504 C522 0.951 . S
H505 C524 0.951 . S
H506 C526 0.950 . S
H507 C527 0.950 . S
H508 C529 0.950 . S
H509 C532 0.950 . S
H510 C533 0.950 . S
H511 C535 0.950 . S
H512 C536 0.950 . S
H513 C537 0.951 . S
H514 C539 0.951 . S
H515 C541 0.950 . S
H516 C542 0.950 . S
H517 C544 0.950 . S
H518 C547 0.950 . S
H519 C548 0.950 . S
H520 C550 0.950 . S
H521 C551 0.950 . S
C522 H504 0.951 . S
C522 C523 1.366 . S
C522 C524 1.388 . S
C523 C522 1.366 . S
C523 C527 1.385 . S
C524 H505 0.951 . S
C524 C522 1.388 . S
C524 C525 1.366 . S
C525 C524 1.366 . S
C525 C526 1.414 . S
C525 C528 1.499 . S
C526 H506 0.950 . S
C526 C525 1.414 . S
C526 C527 1.374 . S
C527 H507 0.950 . S
C527 C523 1.385 . S
C527 C526 1.374 . S
C528 C525 1.499 . S
C528 C529 1.373 . S
C528 C530 1.389 . S
C529 H508 0.950 . S
C529 C528 1.373 . S
C529 C545 1.377 . S
C530 C528 1.389 . S
C530 C531 1.524 . S
C530 C544 1.377 . S
C531 C530 1.524 . S
C531 C532 1.397 . S
C531 C536 1.363 . S
C532 H509 0.950 . S
C532 C531 1.397 . S
C532 C533 1.334 . S
C533 H510 0.950 . S
C533 C532 1.334 . S
C533 C534 1.287 . S
C534 C533 1.287 . S
C534 C535 1.524 . S
C534 H553 0.913 . S
C535 H511 0.950 . S
C535 C534 1.524 . S
C535 C536 1.415 . S
C536 H512 0.950 . S
C536 C531 1.363 . S
C536 C535 1.415 . S
C537 H513 0.951 . S
C537 C538 1.366 . S
C537 C539 1.388 . S
C538 C537 1.366 . S
C538 C542 1.385 . S
C539 H514 0.951 . S
C539 C537 1.388 . S
C539 C540 1.366 . S
C540 C539 1.366 . S
C540 C541 1.414 . S
C540 C543 1.499 . S
C541 H515 0.950 . S
C541 C540 1.414 . S
C541 C542 1.374 . S
C542 H516 0.950 . S
C542 C538 1.385 . S
C542 C541 1.374 . S
C543 C540 1.499 . S
C543 C544 1.373 . S
C543 C545 1.389 . S
C544 H517 0.950 . S
C544 C530 1.377 . S
C544 C543 1.373 . S
C545 C529 1.377 . S
C545 C543 1.389 . S
C545 C546 1.524 . S
C546 C545 1.524 . S
C546 C547 1.397 . S
C546 C551 1.363 . S
C547 H518 0.950 . S
C547 C546 1.397 . S
C547 C548 1.334 . S
C548 H519 0.950 . S
C548 C547 1.334 . S
C548 C549 1.287 . S
C549 C548 1.287 . S
C549 C550 1.524 . S
C549 H552 0.999 . S
C550 H520 0.950 . S
C550 C549 1.524 . S
C550 C551 1.415 . S
C551 H521 0.950 . S
C551 C546 1.363 . S
C551 C550 1.415 . S
H552 C549 0.999 . S
H553 C534 0.913 . S
H554 C572 0.951 . S
H555 C574 0.951 . S
H556 C576 0.950 . S
H557 C577 0.950 . S
H558 C579 0.950 . S
H559 C582 0.950 . S
H560 C583 0.950 . S
H561 C585 0.950 . S
H562 C586 0.950 . S
H563 C587 0.951 . S
H564 C589 0.951 . S
H565 C591 0.950 . S
H566 C592 0.950 . S
H567 C594 0.950 . S
H568 C597 0.950 . S
H569 C598 0.950 . S
H570 C600 0.950 . S
H571 C601 0.950 . S
C572 H554 0.951 . S
C572 C573 1.366 . S
C572 C574 1.388 . S
C573 C572 1.366 . S
C573 C577 1.385 . S
C574 H555 0.951 . S
C574 C572 1.388 . S
C574 C575 1.366 . S
C575 C574 1.366 . S
C575 C576 1.414 . S
C575 C578 1.499 . S
C576 H556 0.950 . S
C576 C575 1.414 . S
C576 C577 1.374 . S
C577 H557 0.950 . S
C577 C573 1.385 . S
C577 C576 1.374 . S
C578 C575 1.499 . S
C578 C579 1.373 . S
C578 C580 1.389 . S
C579 H558 0.950 . S
C579 C578 1.373 . S
C579 C595 1.377 1_556 S
C580 C578 1.389 . S
C580 C581 1.524 . S
C580 C594 1.377 1_556 S
C581 C580 1.524 . S
C581 C582 1.397 . S
C581 C586 1.363 . S
C582 H559 0.950 . S
C582 C581 1.397 . S
C582 C583 1.334 . S
C583 H560 0.950 . S
C583 C582 1.334 . S
C583 C584 1.287 . S
C584 C583 1.287 . S
C584 C585 1.524 . S
C584 H603 0.913 . S
C585 H561 0.950 . S
C585 C584 1.524 . S
C585 C586 1.415 . S
C586 H562 0.950 . S
C586 C581 1.363 . S
C586 C585 1.415 . S
C587 H563 0.951 . S
C587 C588 1.366 . S
C587 C589 1.388 . S
C588 C587 1.366 . S
C588 C592 1.385 . S
C589 H564 0.951 . S
C589 C587 1.388 . S
C589 C590 1.366 . S
C590 C589 1.366 . S
C590 C591 1.414 . S
C590 C593 1.499 . S
C591 H565 0.950 . S
C591 C590 1.414 . S
C591 C592 1.374 . S
C592 H566 0.950 . S
C592 C588 1.385 . S
C592 C591 1.374 . S
C593 C590 1.499 . S
C593 C594 1.373 . S
C593 C595 1.389 . S
C594 H567 0.950 . S
C594 C580 1.377 1_554 S
C594 C593 1.373 . S
C595 C579 1.377 1_554 S
C595 C593 1.389 . S
C595 C596 1.524 . S
C596 C595 1.524 . S
C596 C597 1.397 . S
C596 C601 1.363 . S
C597 H568 0.950 . S
C597 C596 1.397 . S
C597 C598 1.334 . S
C598 H569 0.950 . S
C598 C597 1.334 . S
C598 C599 1.287 . S
C599 C598 1.287 . S
C599 C600 1.524 . S
C599 H602 0.999 . S
C600 H570 0.950 . S
C600 C599 1.524 . S
C600 C601 1.415 . S
C601 H571 0.950 . S
C601 C596 1.363 . S
C601 C600 1.415 . S
H602 C599 0.999 . S
H603 C584 0.913 . S
H604 C622 0.951 . S
H605 C624 0.951 . S
H606 C626 0.950 . S
H607 C627 0.950 . S
H608 C629 0.950 . S
H609 C632 0.950 . S
H610 C633 0.950 . S
H611 C635 0.950 . S
H612 C636 0.950 . S
H613 C637 0.951 . S
H614 C639 0.951 . S
H615 C641 0.950 . S
H616 C642 0.950 . S
H617 C644 0.950 . S
H618 C647 0.950 . S
H619 C648 0.950 . S
H620 C650 0.950 . S
H621 C651 0.950 . S
C622 H604 0.951 . S
C622 C623 1.366 . S
C622 C624 1.388 . S
C623 C622 1.366 . S
C623 C627 1.385 . S
C624 H605 0.951 . S
C624 C622 1.388 . S
C624 C625 1.366 . S
C625 C624 1.366 . S
C625 C626 1.414 . S
C625 C628 1.499 . S
C626 H606 0.950 . S
C626 C625 1.414 . S
C626 C627 1.374 . S
C627 H607 0.950 . S
C627 C623 1.385 . S
C627 C626 1.374 . S
C628 C625 1.499 . S
C628 C629 1.373 . S
C628 C630 1.389 . S
C629 H608 0.950 . S
C629 C628 1.373 . S
C629 C645 1.377 . S
C630 C628 1.389 . S
C630 C631 1.524 . S
C630 C644 1.377 . S
C631 C630 1.524 . S
C631 C632 1.397 . S
C631 C636 1.363 . S
C632 H609 0.950 . S
C632 C631 1.397 . S
C632 C633 1.334 . S
C633 H610 0.950 . S
C633 C632 1.334 . S
C633 C634 1.287 . S
C634 C633 1.287 . S
C634 C635 1.524 . S
C634 H653 0.913 . S
C635 H611 0.950 . S
C635 C634 1.524 . S
C635 C636 1.415 . S
C636 H612 0.950 . S
C636 C631 1.363 . S
C636 C635 1.415 . S
C637 H613 0.951 . S
C637 C638 1.366 . S
C637 C639 1.388 . S
C638 C637 1.366 . S
C638 C642 1.385 . S
C639 H614 0.951 . S
C639 C637 1.388 . S
C639 C640 1.366 . S
C640 C639 1.366 . S
C640 C641 1.414 . S
C640 C643 1.499 . S
C641 H615 0.950 . S
C641 C640 1.414 . S
C641 C642 1.374 . S
C642 H616 0.950 . S
C642 C638 1.385 . S
C642 C641 1.374 . S
C643 C640 1.499 . S
C643 C644 1.373 . S
C643 C645 1.389 . S
C644 H617 0.950 . S
C644 C630 1.377 . S
C644 C643 1.373 . S
C645 C629 1.377 . S
C645 C643 1.389 . S
C645 C646 1.524 . S
C646 C645 1.524 . S
C646 C647 1.397 . S
C646 C651 1.363 . S
C647 H618 0.950 . S
C647 C646 1.397 . S
C647 C648 1.334 . S
C648 H619 0.950 . S
C648 C647 1.334 . S
C648 C649 1.287 . S
C649 C648 1.287 . S
C649 C650 1.524 . S
C649 H652 0.999 . S
C650 H620 0.950 . S
C650 C649 1.524 . S
C650 C651 1.415 . S
C651 H621 0.950 . S
C651 C646 1.363 . S
C651 C650 1.415 . S
H652 C649 0.999 . S
H653 C634 0.913 . S
H654 C672 0.951 . S
H655 C674 0.951 . S
H656 C676 0.950 . S
H657 C677 0.950 . S
H658 C679 0.950 . S
H659 C682 0.950 . S
H660 C683 0.950 . S
H661 C685 0.950 . S
H662 C686 0.950 . S
H663 C687 0.951 . S
H664 C689 0.951 . S
H665 C691 0.950 . S
H666 C692 0.950 . S
H667 C694 0.950 . S
H668 C697 0.950 . S
H669 C698 0.950 . S
H670 C700 0.950 . S
H671 C701 0.950 . S
C672 H654 0.951 . S
C672 C673 1.366 . S
C672 C674 1.388 . S
C673 C672 1.366 . S
C673 C677 1.385 . S
C674 H655 0.951 . S
C674 C672 1.388 . S
C674 C675 1.366 . S
C675 C674 1.366 . S
C675 C676 1.414 . S
C675 C678 1.499 . S
C676 H656 0.950 . S
C676 C675 1.414 . S
C676 C677 1.374 . S
C677 H657 0.950 . S
C677 C673 1.385 . S
C677 C676 1.374 . S
C678 C675 1.499 . S
C678 C679 1.373 . S
C678 C680 1.389 . S
C679 H658 0.950 . S
C679 C678 1.373 . S
C679 C695 1.377 1_554 S
C680 C678 1.389 . S
C680 C681 1.524 . S
C680 C694 1.377 1_554 S
C681 C680 1.524 . S
C681 C682 1.397 . S
C681 C686 1.363 . S
C682 H659 0.950 . S
C682 C681 1.397 . S
C682 C683 1.334 . S
C683 H660 0.950 . S
C683 C682 1.334 . S
C683 C684 1.287 . S
C684 C683 1.287 . S
C684 C685 1.524 . S
C684 H703 0.913 . S
C685 H661 0.950 . S
C685 C684 1.524 . S
C685 C686 1.415 . S
C686 H662 0.950 . S
C686 C681 1.363 . S
C686 C685 1.415 . S
C687 H663 0.951 . S
C687 C688 1.366 . S
C687 C689 1.388 . S
C688 C687 1.366 . S
C688 C692 1.385 . S
C689 H664 0.951 . S
C689 C687 1.388 . S
C689 C690 1.366 . S
C690 C689 1.366 . S
C690 C691 1.414 . S
C690 C693 1.499 . S
C691 H665 0.950 . S
C691 C690 1.414 . S
C691 C692 1.374 . S
C692 H666 0.950 . S
C692 C688 1.385 . S
C692 C691 1.374 . S
C693 C690 1.499 . S
C693 C694 1.373 . S
C693 C695 1.389 . S
C694 H667 0.950 . S
C694 C680 1.377 1_556 S
C694 C693 1.373 . S
C695 C679 1.377 1_556 S
C695 C693 1.389 . S
C695 C696 1.524 . S
C696 C695 1.524 . S
C696 C697 1.397 . S
C696 C701 1.363 . S
C697 H668 0.950 . S
C697 C696 1.397 . S
C697 C698 1.334 . S
C698 H669 0.950 . S
C698 C697 1.334 . S
C698 C699 1.287 . S
C699 C698 1.287 . S
C699 C700 1.524 . S
C699 H702 0.999 . S
C700 H670 0.950 . S
C700 C699 1.524 . S
C700 C701 1.415 . S
C701 H671 0.950 . S
C701 C696 1.363 . S
C701 C700 1.415 . S
H702 C699 0.999 . S
H703 C684 0.913 . S
H704 C722 0.951 . S
H705 C724 0.951 . S
H706 C726 0.950 . S
H707 C727 0.950 . S
H708 C729 0.950 . S
H709 C732 0.950 . S
H710 C733 0.950 . S
H711 C735 0.950 . S
H712 C736 0.950 . S
H713 C737 0.951 . S
H714 C739 0.951 . S
H715 C741 0.950 . S
H716 C742 0.950 . S
H717 C744 0.950 . S
H718 C747 0.950 . S
H719 C748 0.950 . S
H720 C750 0.950 . S
H721 C751 0.950 . S
C722 H704 0.951 . S
C722 C723 1.366 . S
C722 C724 1.388 . S
C723 C722 1.366 . S
C723 C727 1.385 . S
C724 H705 0.951 . S
C724 C722 1.388 . S
C724 C725 1.366 . S
C725 C724 1.366 . S
C725 C726 1.414 . S
C725 C728 1.499 . S
C726 H706 0.950 . S
C726 C725 1.414 . S
C726 C727 1.374 . S
C727 H707 0.950 . S
C727 C723 1.385 . S
C727 C726 1.374 . S
C728 C725 1.499 . S
C728 C729 1.373 . S
C728 C730 1.389 . S
C729 H708 0.950 . S
C729 C728 1.373 . S
C729 C745 1.377 . S
C730 C728 1.389 . S
C730 C731 1.524 . S
C730 C744 1.377 . S
C731 C730 1.524 . S
C731 C732 1.397 . S
C731 C736 1.363 . S
C732 H709 0.950 . S
C732 C731 1.397 . S
C732 C733 1.334 . S
C733 H710 0.950 . S
C733 C732 1.334 . S
C733 C734 1.287 . S
C734 C733 1.287 . S
C734 C735 1.524 . S
C734 H753 0.913 . S
C735 H711 0.950 . S
C735 C734 1.524 . S
C735 C736 1.415 . S
C736 H712 0.950 . S
C736 C731 1.363 . S
C736 C735 1.415 . S
C737 H713 0.951 . S
C737 C738 1.366 . S
C737 C739 1.388 . S
C738 C737 1.366 . S
C738 C742 1.385 . S
C739 H714 0.951 . S
C739 C737 1.388 . S
C739 C740 1.366 . S
C740 C739 1.366 . S
C740 C741 1.414 . S
C740 C743 1.499 . S
C741 H715 0.950 . S
C741 C740 1.414 . S
C741 C742 1.374 . S
C742 H716 0.950 . S
C742 C738 1.385 . S
C742 C741 1.374 . S
C743 C740 1.499 . S
C743 C744 1.373 . S
C743 C745 1.389 . S
C744 H717 0.950 . S
C744 C730 1.377 . S
C744 C743 1.373 . S
C745 C729 1.377 . S
C745 C743 1.389 . S
C745 C746 1.524 . S
C746 C745 1.524 . S
C746 C747 1.397 . S
C746 C751 1.363 . S
C747 H718 0.950 . S
C747 C746 1.397 . S
C747 C748 1.334 . S
C748 H719 0.950 . S
C748 C747 1.334 . S
C748 C749 1.287 . S
C749 C748 1.287 . S
C749 C750 1.524 . S
C749 H752 0.999 . S
C750 H720 0.950 . S
C750 C749 1.524 . S
C750 C751 1.415 . S
C751 H721 0.950 . S
C751 C746 1.363 . S
C751 C750 1.415 . S
H752 C749 0.999 . S
H753 C734 0.913 . S
H754 C772 0.951 . S
H755 C774 0.951 . S
H756 C776 0.950 . S
H757 C777 0.950 . S
H758 C779 0.950 . S
H759 C782 0.950 . S
H760 C783 0.950 . S
H761 C785 0.950 . S
H762 C786 0.950 . S
H763 C787 0.951 . S
H764 C789 0.951 . S
H765 C791 0.950 . S
H766 C792 0.950 . S
H767 C794 0.950 . S
H768 C797 0.950 . S
H769 C798 0.950 . S
H770 C800 0.950 . S
H771 C801 0.950 . S
C772 H754 0.951 . S
C772 C773 1.366 . S
C772 C774 1.388 . S
C773 C772 1.366 . S
C773 C777 1.385 . S
C774 H755 0.951 . S
C774 C772 1.388 . S
C774 C775 1.366 . S
C775 C774 1.366 . S
C775 C776 1.414 . S
C775 C778 1.499 . S
C776 H756 0.950 . S
C776 C775 1.414 . S
C776 C777 1.374 . S
C777 H757 0.950 . S
C777 C773 1.385 . S
C777 C776 1.374 . S
C778 C775 1.499 . S
C778 C779 1.373 . S
C778 C780 1.389 . S
C779 H758 0.950 . S
C779 C778 1.373 . S
C779 C795 1.377 . S
C780 C778 1.389 . S
C780 C781 1.524 . S
C780 C794 1.377 . S
C781 C780 1.524 . S
C781 C782 1.397 . S
C781 C786 1.363 . S
C782 H759 0.950 . S
C782 C781 1.397 . S
C782 C783 1.334 . S
C783 H760 0.950 . S
C783 C782 1.334 . S
C783 C784 1.287 . S
C784 C783 1.287 . S
C784 C785 1.524 . S
C784 H803 0.913 . S
C785 H761 0.950 . S
C785 C784 1.524 . S
C785 C786 1.415 . S
C786 H762 0.950 . S
C786 C781 1.363 . S
C786 C785 1.415 . S
C787 H763 0.951 . S
C787 C788 1.366 . S
C787 C789 1.388 . S
C788 C787 1.366 . S
C788 C792 1.385 . S
C789 H764 0.951 . S
C789 C787 1.388 . S
C789 C790 1.366 . S
C790 C789 1.366 . S
C790 C791 1.414 . S
C790 C793 1.499 . S
C791 H765 0.950 . S
C791 C790 1.414 . S
C791 C792 1.374 . S
C792 H766 0.950 . S
C792 C788 1.385 . S
C792 C791 1.374 . S
C793 C790 1.499 . S
C793 C794 1.373 . S
C793 C795 1.389 . S
C794 H767 0.950 . S
C794 C780 1.377 . S
C794 C793 1.373 . S
C795 C779 1.377 . S
C795 C793 1.389 . S
C795 C796 1.524 . S
C796 C795 1.524 . S
C796 C797 1.397 . S
C796 C801 1.363 . S
C797 H768 0.950 . S
C797 C796 1.397 . S
C797 C798 1.334 . S
C798 H769 0.950 . S
C798 C797 1.334 . S
C798 C799 1.287 . S
C799 C798 1.287 . S
C799 C800 1.524 . S
C799 H802 0.999 . S
C800 H770 0.950 . S
C800 C799 1.524 . S
C800 C801 1.415 . S
C801 H771 0.950 . S
C801 C796 1.363 . S
C801 C800 1.415 . S
H802 C799 0.999 . S
H803 C784 0.913 . S
H804 C822 0.951 . S
H805 C824 0.951 . S
H806 C826 0.950 . S
H807 C827 0.950 . S
H808 C829 0.950 . S
H809 C832 0.950 . S
H810 C833 0.950 . S
H811 C835 0.950 . S
H812 C836 0.950 1_655 S
H813 C837 0.951 . S
H814 C839 0.951 . S
H815 C841 0.950 . S
H816 C842 0.950 . S
H817 C844 0.950 . S
H818 C847 0.950 . S
H819 C848 0.950 . S
H820 C850 0.950 . S
H821 C851 0.950 1_455 S
C822 H804 0.951 . S
C822 C823 1.366 . S
C822 C824 1.388 . S
C823 C822 1.366 . S
C823 C827 1.385 . S
C824 H805 0.951 . S
C824 C822 1.388 . S
C824 C825 1.366 . S
C825 C824 1.366 . S
C825 C826 1.414 . S
C825 C828 1.499 . S
C826 H806 0.950 . S
C826 C825 1.414 . S
C826 C827 1.374 . S
C827 H807 0.950 . S
C827 C823 1.385 . S
C827 C826 1.374 . S
C828 C825 1.499 . S
C828 C829 1.373 . S
C828 C830 1.389 . S
C829 H808 0.950 . S
C829 C828 1.373 . S
C829 C845 1.377 1_455 S
C830 C828 1.389 . S
C830 C831 1.524 . S
C830 C844 1.377 1_455 S
C831 C830 1.524 . S
C831 C832 1.397 . S
C831 C836 1.363 . S
C832 H809 0.950 . S
C832 C831 1.397 . S
C832 C833 1.334 . S
C833 H810 0.950 . S
C833 C832 1.334 . S
C833 C834 1.287 . S
C834 C833 1.287 . S
C834 C835 1.524 . S
C834 H853 0.913 . S
C835 H811 0.950 . S
C835 C834 1.524 . S
C835 C836 1.415 . S
C836 H812 0.950 1_455 S
C836 C831 1.363 . S
C836 C835 1.415 . S
C837 H813 0.951 . S
C837 C838 1.366 . S
C837 C839 1.388 . S
C838 C837 1.366 . S
C838 C842 1.385 . S
C839 H814 0.951 . S
C839 C837 1.388 . S
C839 C840 1.366 . S
C840 C839 1.366 . S
C840 C841 1.414 . S
C840 C843 1.499 . S
C841 H815 0.950 . S
C841 C840 1.414 . S
C841 C842 1.374 . S
C842 H816 0.950 . S
C842 C838 1.385 . S
C842 C841 1.374 . S
C843 C840 1.499 . S
C843 C844 1.373 . S
C843 C845 1.389 . S
C844 H817 0.950 . S
C844 C830 1.377 1_655 S
C844 C843 1.373 . S
C845 C829 1.377 1_655 S
C845 C843 1.389 . S
C845 C846 1.524 . S
C846 C845 1.524 . S
C846 C847 1.397 . S
C846 C851 1.363 . S
C847 H818 0.950 . S
C847 C846 1.397 . S
C847 C848 1.334 . S
C848 H819 0.950 . S
C848 C847 1.334 . S
C848 C849 1.287 . S
C849 C848 1.287 . S
C849 C850 1.524 . S
C849 H852 0.999 . S
C850 H820 0.950 . S
C850 C849 1.524 . S
C850 C851 1.415 . S
C851 H821 0.950 1_655 S
C851 C846 1.363 . S
C851 C850 1.415 . S
H852 C849 0.999 . S
H853 C834 0.913 . S
H854 C872 0.951 . S
H855 C874 0.951 . S
H856 C876 0.950 . S
H857 C877 0.950 . S
H858 C879 0.950 . S
H859 C882 0.950 . S
H860 C883 0.950 . S
H861 C885 0.950 . S
H862 C886 0.950 . S
H863 C887 0.951 . S
H864 C889 0.951 . S
H865 C891 0.950 . S
H866 C892 0.950 . S
H867 C894 0.950 . S
H868 C897 0.950 . S
H869 C898 0.950 . S
H870 C900 0.950 . S
H871 C901 0.950 . S
C872 H854 0.951 . S
C872 C873 1.366 . S
C872 C874 1.388 . S
C873 C872 1.366 . S
C873 C877 1.385 . S
C874 H855 0.951 . S
C874 C872 1.388 . S
C874 C875 1.366 . S
C875 C874 1.366 . S
C875 C876 1.414 . S
C875 C878 1.499 . S
C876 H856 0.950 . S
C876 C875 1.414 . S
C876 C877 1.374 . S
C877 H857 0.950 . S
C877 C873 1.385 . S
C877 C876 1.374 . S
C878 C875 1.499 . S
C878 C879 1.373 . S
C878 C880 1.389 . S
C879 H858 0.950 . S
C879 C878 1.373 . S
C879 C895 1.377 1_455 S
C880 C878 1.389 . S
C880 C881 1.524 . S
C880 C894 1.377 1_455 S
C881 C880 1.524 . S
C881 C882 1.397 . S
C881 C886 1.363 . S
C882 H859 0.950 . S
C882 C881 1.397 . S
C882 C883 1.334 . S
C883 H860 0.950 . S
C883 C882 1.334 . S
C883 C884 1.287 . S
C884 C883 1.287 . S
C884 C885 1.524 . S
C884 H903 0.913 . S
C885 H861 0.950 . S
C885 C884 1.524 . S
C885 C886 1.415 . S
C886 H862 0.950 . S
C886 C881 1.363 . S
C886 C885 1.415 . S
C887 H863 0.951 . S
C887 C888 1.366 . S
C887 C889 1.388 . S
C888 C887 1.366 . S
C888 C892 1.385 . S
C889 H864 0.951 . S
C889 C887 1.388 . S
C889 C890 1.366 . S
C890 C889 1.366 . S
C890 C891 1.414 . S
C890 C893 1.499 . S
C891 H865 0.950 . S
C891 C890 1.414 . S
C891 C892 1.374 . S
C892 H866 0.950 . S
C892 C888 1.385 . S
C892 C891 1.374 . S
C893 C890 1.499 . S
C893 C894 1.373 . S
C893 C895 1.389 . S
C894 H867 0.950 . S
C894 C880 1.377 1_655 S
C894 C893 1.373 . S
C895 C879 1.377 1_655 S
C895 C893 1.389 . S
C895 C896 1.524 . S
C896 C895 1.524 . S
C896 C897 1.397 . S
C896 C901 1.363 . S
C897 H868 0.950 . S
C897 C896 1.397 . S
C897 C898 1.334 . S
C898 H869 0.950 . S
C898 C897 1.334 . S
C898 C899 1.287 . S
C899 C898 1.287 . S
C899 C900 1.524 . S
C899 H902 0.999 . S
C900 H870 0.950 . S
C900 C899 1.524 . S
C900 C901 1.415 . S
C901 H871 0.950 . S
C901 C896 1.363 . S
C901 C900 1.415 . S
H902 C899 0.999 . S
H903 C884 0.913 . S
C123 C4 1.934 . S
C138 C30 1.934 . S
C173 C49 1.934 . S
C188 C17 1.934 . S
C223 C82 1.935 . S
C238 C56 1.934 . S
C273 C69 1.935 . S
C288 C95 1.934 . S
C323 C23 1.142 . S
C338 C43 1.142 . S
C373 C10 1.142 . S
C388 C36 1.142 . S
C423 C101 1.142 . S
C438 C75 1.142 . S
C473 C62 1.142 . S
C488 C88 1.142 . S
C523 C68 1.527 . S
C538 C44 1.527 . S
C573 C29 1.527 . S
C588 C55 1.527 . S
C623 C16 1.527 . S
C638 C94 1.527 . S
C673 C3 1.527 . S
C688 C81 1.527 . S
C723 C5 1.553 . S
C738 C18 1.553 . S
C773 C31 1.553 . S
C788 C42 1.553 . S
C823 C70 1.553 . S
C838 C57 1.553 . S
C873 C83 1.553 . S
C888 C96 1.553 . S
