# Generated by pormake.
# Topology unm, (4)-cn, num edge types: 1
# Building blocks:
#     Node 0, Type 0, BuildingBlock: ICAMEG_clean_sbu_1, # of connection points: 4
#     Node 1, Type 0, BuildingBlock: ICAMEG_clean_sbu_1, # of connection points: 4
#     Node 2, Type 0, BuildingBlock: ICAMEG_clean_sbu_1, # of connection points: 4
#     Node 3, Type 0, BuildingBlock: ICAMEG_clean_sbu_1, # of connection points: 4
#     Node 4, Type 0, BuildingBlock: ICAMEG_clean_sbu_1, # of connection points: 4
#     Node 5, Type 0, BuildingBlock: ICAMEG_clean_sbu_1, # of connection points: 4
#     Node 6, Type 0, BuildingBlock: ICAMEG_clean_sbu_1, # of connection points: 4
#     Node 7, Type 0, BuildingBlock: ICAMEG_clean_sbu_1, # of connection points: 4
#     Edge 8, Type (0, 0), BuildingBlock: CIFDUS_clean_linker_0, # of connection points: 2
#     Edge 9, Type (0, 0), BuildingBlock: CIFDUS_clean_linker_0, # of connection points: 2
#     Edge 10, Type (0, 0), BuildingBlock: CIFDUS_clean_linker_0, # of connection points: 2
#     Edge 11, Type (0, 0), BuildingBlock: CIFDUS_clean_linker_0, # of connection points: 2
#     Edge 12, Type (0, 0), BuildingBlock: CIFDUS_clean_linker_0, # of connection points: 2
#     Edge 13, Type (0, 0), BuildingBlock: CIFDUS_clean_linker_0, # of connection points: 2
#     Edge 14, Type (0, 0), BuildingBlock: CIFDUS_clean_linker_0, # of connection points: 2
#     Edge 15, Type (0, 0), BuildingBlock: CIFDUS_clean_linker_0, # of connection points: 2
#     Edge 16, Type (0, 0), BuildingBlock: CIFDUS_clean_linker_0, # of connection points: 2
#     Edge 17, Type (0, 0), BuildingBlock: CIFDUS_clean_linker_0, # of connection points: 2
#     Edge 18, Type (0, 0), BuildingBlock: CIFDUS_clean_linker_0, # of connection points: 2
#     Edge 19, Type (0, 0), BuildingBlock: CIFDUS_clean_linker_0, # of connection points: 2
#     Edge 20, Type (0, 0), BuildingBlock: CIFDUS_clean_linker_0, # of connection points: 2
#     Edge 21, Type (0, 0), BuildingBlock: CIFDUS_clean_linker_0, # of connection points: 2
#     Edge 22, Type (0, 0), BuildingBlock: CIFDUS_clean_linker_0, # of connection points: 2
#     Edge 23, Type (0, 0), BuildingBlock: CIFDUS_clean_linker_0, # of connection points: 2
# Relax obj value: 0.083
# Max RMSD: 0.087
# Mean RMSD: 0.087
data_MOF--net-unm--node1-ICAMEG_clean_sbu_1--edge1-CIFDUS_clean_linker_0
_symmetry_space_group_name_H-M    P1
_symmetry_Int_Tables_number       1
_symmetry_cell_setting            triclinic
loop_
_symmetry_equiv_pos_as_xyz
'x, y, z'
_cell_length_a     22.353608
_cell_length_b     22.365547
_cell_length_c     44.837389
_cell_angle_alpha  89.972219
_cell_angle_beta   89.960821
_cell_angle_gamma 89.926001
loop_
_atom_site_label
_atom_site_type_symbol
_atom_site_fract_x
_atom_site_fract_y
_atom_site_fract_z
_atom_type_partial_charge
Co0 Co 0.15815 0.2493 0.14716 0.0
Co1 Co 0.23667 0.35506 0.18852 0.0
O2 O 0.2331 0.28621 0.16111 0.0
C3 C 0.21625 0.28037 0.08928 0.0
O4 O 0.23227 0.33236 0.10025 0.0
C5 C 0.33419 0.2698 0.21066 0.0
O6 O 0.32111 0.22915 0.19064 0.0
O7 O 0.17656 0.31791 0.21627 0.0
O8 O 0.12324 0.25518 0.18756 0.0
H9 H 0.14687 0.51645 0.25253 0.0
H10 H 0.27209 0.18722 0.13335 0.0
O11 O 0.18987 0.24206 0.10563 0.0
H12 H 0.15788 0.0463 0.19589 0.0
H13 H 0.03571 0.09991 0.0895 0.0
H14 H 0.02915 0.27249 0.15783 0.0
H15 H 0.11547 0.14452 0.18259 0.0
H16 H 0.12901 0.14653 0.10727 0.0
O17 O 0.30391 0.31816 0.21242 0.0
H18 H 0.145 0.43069 0.21799 0.0
H19 H 0.335 0.42528 0.21722 0.0
H20 H 0.93479 0.22703 0.14075 0.0
H21 H 0.31595 0.08904 0.14585 0.0
H22 H 0.93768 0.14008 0.10632 0.0
H23 H 0.25876 0.01791 0.17743 0.0
O24 O 0.12301 0.32888 0.13687 0.0
H25 H 0.41571 0.36013 0.11997 0.0
H26 H 0.25138 0.47775 0.16399 0.0
H27 H 0.32178 0.5265 0.12945 0.0
H28 H 0.40497 0.4677 0.10729 0.0
H29 H 0.34399 0.31308 0.1542 0.0
H30 H 0.33881 0.51047 0.25208 0.0
H31 H 0.24427 0.55692 0.26979 0.0
O32 O 0.17106 0.39507 0.16602 0.0
C33 C 0.13347 0.28142 0.2121 0.0
C34 C 0.18837 0.49672 0.24488 0.0
C35 C 0.29609 0.49329 0.24467 0.0
N36 N 0.2398 0.42313 0.21543 0.0
C37 C 0.18761 0.44825 0.22524 0.0
C38 C 0.29362 0.4449 0.22501 0.0
C39 C 0.24304 0.51934 0.25461 0.0
C40 C 0.24676 0.15628 0.14689 0.0
N41 N 0.19135 0.17165 0.15722 0.0
C42 C 0.2719 0.10086 0.15399 0.0
C43 C 0.23983 0.061 0.17174 0.0
C44 C 0.18328 0.07695 0.18217 0.0
C45 C 0.15962 0.13278 0.17466 0.0
C46 C 0.03385 0.13781 0.10448 0.0
C47 C 0.03082 0.23465 0.14287 0.0
C48 C 0.08655 0.16452 0.11455 0.0
N49 N 0.08457 0.21229 0.13354 0.0
C50 C 0.97721 0.2091 0.13327 0.0
C51 C 0.97887 0.16035 0.11394 0.0
C52 C 0.13156 0.38174 0.14667 0.0
C53 C 0.37998 0.38639 0.1297 0.0
C54 C 0.28741 0.45175 0.15451 0.0
C55 C 0.3272 0.47968 0.13494 0.0
C56 C 0.37385 0.44668 0.12252 0.0
N57 N 0.29404 0.39271 0.16177 0.0
C58 C 0.33936 0.36 0.14938 0.0
Co59 Co 0.27564 0.67006 0.6487 0.0
Co60 Co 0.15301 0.7315 0.68555 0.0
O61 O 0.22483 0.7379 0.66033 0.0
C62 C 0.23634 0.71951 0.5899 0.0
O63 O 0.18368 0.73238 0.60119 0.0
C64 C 0.22598 0.83305 0.71207 0.0
O65 O 0.27251 0.81886 0.69571 0.0
O66 O 0.19332 0.67415 0.71376 0.0
O67 O 0.27546 0.64009 0.69022 0.0
H68 H 0.9952 0.62034 0.74316 0.0
H69 H 0.31455 0.792 0.63143 0.0
O70 O 0.27731 0.69719 0.60619 0.0
H71 H 0.47523 0.71367 0.69589 0.0
H72 H 0.44726 0.57137 0.59486 0.0
H73 H 0.27779 0.54077 0.66364 0.0
H74 H 0.38641 0.65239 0.68479 0.0
H75 H 0.38253 0.6559 0.60931 0.0
O76 O 0.17833 0.80169 0.71101 0.0
H77 H 0.08448 0.63011 0.71121 0.0
H78 H 0.06798 0.81933 0.71277 0.0
H79 H 0.34164 0.45511 0.64992 0.0
H80 H 0.4027 0.85484 0.64196 0.0
H81 H 0.42715 0.47014 0.61531 0.0
H82 H 0.4837 0.81576 0.67453 0.0
O83 O 0.20453 0.61901 0.63957 0.0
H84 H 0.13441 0.91441 0.62055 0.0
H85 H 0.03424 0.73117 0.65567 0.0
H86 H 0.98226 0.79754 0.62024 0.0
H87 H 0.03228 0.8901 0.60253 0.0
H88 H 0.18499 0.84654 0.65563 0.0
H89 H 0.97898 0.81156 0.74507 0.0
H90 H 0.94194 0.71153 0.76043 0.0
O91 O 0.12496 0.66268 0.66131 0.0
C92 C 0.24046 0.64178 0.71254 0.0
C93 C 0.0109 0.66419 0.73662 0.0
C94 C 1.00185 0.77151 0.73772 0.0
N95 N 0.08157 0.72519 0.71012 0.0
C96 C 0.0614 0.67 0.71847 0.0
C97 C 0.05245 0.77561 0.71951 0.0
C98 C 0.98105 0.71536 0.74631 0.0
C99 C 0.34983 0.77456 0.64544 0.0
N100 N 0.3453 0.71864 0.65748 0.0
C101 C 0.39952 0.81042 0.65142 0.0
C102 C 0.44491 0.78851 0.66972 0.0
C103 C 0.4401 0.7313 0.6818 0.0
C104 C 0.38957 0.69689 0.67551 0.0
C105 C 0.41016 0.56426 0.60996 0.0
C106 C 0.31497 0.54774 0.64862 0.0
C107 C 0.37323 0.61192 0.61817 0.0
N108 N 0.32648 0.60336 0.63738 0.0
C109 C 0.35093 0.49902 0.6409 0.0
C110 C 0.39886 0.50747 0.62146 0.0
C111 C 0.1487 0.62182 0.64545 0.0
C112 C 0.11196 0.87445 0.62828 0.0
C113 C 0.05634 0.77138 0.64812 0.0
C114 C 0.02664 0.80881 0.62805 0.0
C115 C 0.05471 0.86073 0.61813 0.0
N116 N 0.1123 0.7854 0.65824 0.0
C117 C 0.14027 0.83599 0.64838 0.0
Co118 Co 0.8445 0.74747 0.14247 0.0
Co119 Co 0.76507 0.64631 0.18579 0.0
O120 O 0.7694 0.71306 0.15724 0.0
C121 C 0.78248 0.71933 0.085 0.0
O122 O 0.76392 0.66801 0.0958 0.0
C123 C 0.6879 0.7412 0.21346 0.0
O124 O 0.72857 0.78136 0.20679 0.0
O125 O 0.82563 0.68421 0.21321 0.0
O126 O 0.88078 0.74069 0.18244 0.0
H127 H 0.8505 0.48617 0.25205 0.0
H128 H 0.7303 0.81066 0.13121 0.0
O129 O 0.81151 0.7557 0.10128 0.0
H130 H 0.85284 0.9522 0.18918 0.0
H131 H 0.96941 0.89268 0.08327 0.0
H132 H 0.97316 0.72106 0.15229 0.0
H133 H 0.89244 0.8529 0.17567 0.0
H134 H 0.87537 0.84873 0.1018 0.0
O135 O 0.69716 0.68627 0.20751 0.0
H136 H 0.85473 0.57089 0.21687 0.0
H137 H 0.66491 0.5795 0.21491 0.0
H138 H 0.06822 0.76394 0.13452 0.0
H139 H 0.68897 0.90974 0.14407 0.0
H140 H 0.06676 0.8504 0.09972 0.0
H141 H 0.75045 0.98125 0.17327 0.0
O142 O 0.87665 0.66656 0.13223 0.0
H143 H 0.58358 0.64196 0.11968 0.0
H144 H 0.74949 0.52321 0.16147 0.0
H145 H 0.6778 0.47526 0.12725 0.0
H146 H 0.59396 0.53475 0.10617 0.0
H147 H 0.65673 0.68822 0.15371 0.0
H148 H 0.65871 0.49546 0.25042 0.0
H149 H 0.75198 0.44784 0.26899 0.0
O150 O 0.83084 0.604 0.16433 0.0
C151 C 0.87107 0.7172 0.20777 0.0
C152 C 0.80955 0.50647 0.24405 0.0
C153 C 0.70191 0.51174 0.24316 0.0
N154 N 0.76014 0.58005 0.21373 0.0
C155 C 0.81164 0.55437 0.22406 0.0
C156 C 0.70572 0.55952 0.22316 0.0
C157 C 0.75425 0.48504 0.25359 0.0
C158 C 0.75741 0.84172 0.14377 0.0
N159 N 0.81376 0.82606 0.15262 0.0
C160 C 0.73373 0.89767 0.15105 0.0
C161 C 0.76822 0.93776 0.16745 0.0
C162 C 0.82565 0.92145 0.17642 0.0
C163 C 0.84775 0.86504 0.16883 0.0
C164 C 0.97064 0.85495 0.09837 0.0
C165 C 0.97208 0.75861 0.13713 0.0
C166 C 0.91751 0.82968 0.10885 0.0
N167 N 0.91869 0.78215 0.12802 0.0
C168 C 0.0261 0.78274 0.12715 0.0
C169 C 0.02525 0.83123 0.10763 0.0
C170 C 0.86883 0.61492 0.1438 0.0
C171 C 0.6199 0.61556 0.12873 0.0
C172 C 0.71351 0.54949 0.15216 0.0
C173 C 0.67285 0.52204 0.13292 0.0
C174 C 0.62579 0.55542 0.12113 0.0
N175 N 0.70746 0.60847 0.15952 0.0
C176 C 0.66139 0.64147 0.14807 0.0
Co177 Co 0.75471 0.35156 0.6444 0.0
Co178 Co 0.86913 0.28545 0.68546 0.0
O179 O 0.79942 0.28155 0.65869 0.0
C180 C 0.78941 0.29201 0.5873 0.0
O181 O 0.84252 0.2802 0.59833 0.0
C182 C 0.78979 0.18748 0.71073 0.0
O183 O 0.74474 0.2047 0.69412 0.0
O184 O 0.82807 0.34368 0.71291 0.0
O185 O 0.75855 0.38843 0.68448 0.0
H186 H 0.02546 0.39025 0.74684 0.0
H187 H 0.70394 0.23184 0.63154 0.0
O188 O 0.74979 0.31766 0.60321 0.0
H189 H 0.55364 0.3329 0.6944 0.0
H190 H 0.59116 0.45606 0.58722 0.0
H191 H 0.76414 0.48254 0.65409 0.0
H192 H 0.64687 0.38437 0.68025 0.0
H193 H 0.64869 0.36878 0.60481 0.0
O194 O 0.83921 0.21598 0.71015 0.0
H195 H 0.93859 0.38416 0.71305 0.0
H196 H 0.94853 0.19444 0.7141 0.0
H197 H 0.70757 0.57097 0.63722 0.0
H198 H 0.61068 0.17912 0.64463 0.0
H199 H 0.62034 0.55803 0.60354 0.0
H200 H 0.5349 0.2296 0.67643 0.0
O201 O 0.83 0.39409 0.63327 0.0
H202 H 0.88662 0.10243 0.62063 0.0
H203 H 0.99064 0.28128 0.6583 0.0
H204 H 0.04308 0.21329 0.62381 0.0
H205 H 0.9911 0.12293 0.60482 0.0
H206 H 0.83567 0.17192 0.65482 0.0
H207 H 0.03485 0.19856 0.74822 0.0
H208 H 0.0739 0.29685 0.76475 0.0
O209 O 0.90196 0.35367 0.66202 0.0
C210 C 0.78754 0.38325 0.70874 0.0
C211 C 0.0088 0.3471 0.73976 0.0
C212 C 0.01403 0.23951 0.74057 0.0
N213 N 0.93842 0.28904 0.71157 0.0
C214 C 0.95972 0.34336 0.72057 0.0
C215 C 0.96495 0.23749 0.72134 0.0
C216 C 0.03599 0.29473 0.74982 0.0
C217 C 0.67088 0.25436 0.6451 0.0
N218 N 0.68104 0.31105 0.65522 0.0
C219 C 0.61829 0.22416 0.65257 0.0
C220 C 0.57584 0.25246 0.67045 0.0
C221 C 0.58638 0.31038 0.68059 0.0
C222 C 0.6395 0.33916 0.67269 0.0
C223 C 0.62912 0.46228 0.60186 0.0
C224 C 0.72625 0.47649 0.63944 0.0
C225 C 0.66203 0.41303 0.61181 0.0
N226 N 0.70982 0.4205 0.63045 0.0
C227 C 0.6944 0.52676 0.62995 0.0
C228 C 0.64549 0.51948 0.61104 0.0
C229 C 0.88383 0.39141 0.6427 0.0
C230 C 0.90988 0.14146 0.62889 0.0
C231 C 0.96763 0.24217 0.65011 0.0
C232 C 0.99762 0.20374 0.63061 0.0
C233 C 0.96845 0.15305 0.61998 0.0
N234 N 0.9103 0.23033 0.65894 0.0
C235 C 0.88133 0.18086 0.64845 0.0
Co236 Co 0.67373 0.23332 0.36334 0.0
Co237 Co 0.74814 0.13392 0.31722 0.0
O238 O 0.74656 0.19914 0.34626 0.0
C239 C 0.74424 0.19819 0.41671 0.0
O240 O 0.75784 0.14794 0.40318 0.0
C241 C 0.81987 0.23113 0.2893 0.0
O242 O 0.77628 0.2685 0.29553 0.0
O243 O 0.68531 0.17341 0.29178 0.0
O244 O 0.63274 0.22936 0.32409 0.0
H245 H 0.65725 0.97516 0.25226 0.0
H246 H 0.78968 0.29478 0.37246 0.0
O247 O 0.71248 0.23751 0.40354 0.0
H248 H 0.66337 0.43932 0.31819 0.0
H249 H 0.55878 0.3751 0.4292 0.0
H250 H 0.54359 0.21059 0.35645 0.0
H251 H 0.62355 0.34065 0.33262 0.0
H252 H 0.64964 0.331 0.40699 0.0
O253 O 0.81396 0.1756 0.29493 0.0
H254 H 0.65592 0.05999 0.28738 0.0
H255 H 0.84568 0.06897 0.28499 0.0
H256 H 0.4516 0.25368 0.3779 0.0
H257 H 0.83112 0.39326 0.35876 0.0
H258 H 0.45884 0.33656 0.41459 0.0
H259 H 0.76786 0.46617 0.33129 0.0
O260 O 0.64168 0.15246 0.37318 0.0
H261 H 0.93608 0.12535 0.37866 0.0
H262 H 0.76509 0.00985 0.34014 0.0
H263 H 0.83982 0.95991 0.37205 0.0
H264 H 0.92622 0.01775 0.39146 0.0
H265 H 0.85991 0.17365 0.34701 0.0
H266 H 0.84897 0.98467 0.24952 0.0
H267 H 0.75425 0.93645 0.23345 0.0
O268 O 0.6841 0.09075 0.33954 0.0
C269 C 0.64042 0.20648 0.29836 0.0
C270 C 0.6988 0.99557 0.25928 0.0
C271 C 0.80641 1.00097 0.25771 0.0
N272 N 0.75068 0.06911 0.28844 0.0
C273 C 0.69836 0.04354 0.27921 0.0
C274 C 0.80425 0.04887 0.27769 0.0
C275 C 0.75327 0.97401 0.24863 0.0
C276 C 0.76167 0.32657 0.36083 0.0
N277 N 0.7042 0.31208 0.35346 0.0
C278 C 0.78546 0.38215 0.35301 0.0
C279 C 0.74996 0.42301 0.33757 0.0
C280 C 0.69133 0.40796 0.33019 0.0
C281 C 0.66908 0.35195 0.33835 0.0
C282 C 0.55504 0.33896 0.41327 0.0
C283 C 0.54715 0.24663 0.37238 0.0
C284 C 0.60635 0.31364 0.40071 0.0
N285 N 0.60196 0.26812 0.38049 0.0
C286 C 0.49488 0.27086 0.38446 0.0
C287 C 0.49898 0.31734 0.40505 0.0
C288 C 0.64789 0.10129 0.36092 0.0
C289 C 0.89868 0.09965 0.37031 0.0
C290 C 0.80222 0.03542 0.34873 0.0
C291 C 0.84458 0.00685 0.36667 0.0
C292 C 0.89307 0.0393 0.37752 0.0
N293 N 0.80802 0.09461 0.34173 0.0
C294 C 0.85548 0.12671 0.35228 0.0
Co295 Co 0.24046 0.17756 0.86108 0.0
Co296 Co 0.35333 0.24148 0.81896 0.0
O297 O 0.28574 0.24597 0.84638 0.0
C298 C 0.28404 0.23768 0.91553 0.0
O299 O 0.3355 0.2441 0.90181 0.0
C300 C 0.26685 0.32503 0.79074 0.0
O301 O 0.22512 0.28516 0.79606 0.0
O302 O 0.30957 0.18542 0.79174 0.0
O303 O 0.24166 0.13967 0.82086 0.0
H304 H 0.50494 0.1376 0.75427 0.0
H305 H 0.19524 0.30017 0.87258 0.0
O306 O 0.24009 0.21307 0.9022 0.0
H307 H 0.03906 0.20203 0.8124 0.0
H308 H 0.079 0.08009 0.92238 0.0
H309 H 0.24359 0.04615 0.85109 0.0
H310 H 0.12982 0.14681 0.82737 0.0
H311 H 0.13818 0.16482 0.90319 0.0
O312 O 0.32124 0.31318 0.79697 0.0
H313 H 0.41933 0.14333 0.78888 0.0
H314 H 0.4315 0.33284 0.79006 0.0
H315 H 0.18527 0.96025 0.86948 0.0
H316 H 0.10493 0.35694 0.8583 0.0
H317 H 0.10225 0.97694 0.9054 0.0
H318 H 0.02626 0.30789 0.82784 0.0
O319 O 0.31497 0.13291 0.87099 0.0
H320 H 0.37852 0.42318 0.88375 0.0
H321 H 0.47551 0.24056 0.84545 0.0
H322 H 0.53074 0.30617 0.87996 0.0
H323 H 0.48223 0.39832 0.89931 0.0
H324 H 0.3247 0.35597 0.84947 0.0
H325 H 0.51691 0.32915 0.75521 0.0
H326 H 0.5545 0.23094 0.73733 0.0
O327 O 0.38637 0.17081 0.8409 0.0
C328 C 0.26996 0.14516 0.7963 0.0
C329 C 0.48911 0.18064 0.76201 0.0
C330 C 0.49576 0.28816 0.7625 0.0
N331 N 0.42061 0.23833 0.79161 0.0
C332 C 0.44074 0.18417 0.78167 0.0
C333 C 0.44725 0.28997 0.78215 0.0
C334 C 0.51681 0.23305 0.75245 0.0
C335 C 0.1608 0.27832 0.85967 0.0
N336 N 0.16762 0.22019 0.85096 0.0
C337 C 0.10991 0.31076 0.85153 0.0
C338 C 0.06581 0.28324 0.83441 0.0
C339 C 0.07299 0.22384 0.82572 0.0
C340 C 0.12452 0.19284 0.83422 0.0
C341 C 0.11511 0.07223 0.90676 0.0
C342 C 0.20758 0.05383 0.8667 0.0
C343 C 0.14893 0.12001 0.89591 0.0
N344 N 0.19439 0.11046 0.87606 0.0
C345 C 0.1747 0.00498 0.87705 0.0
C346 C 0.12815 0.01437 0.89721 0.0
C347 C 0.36802 0.13341 0.86041 0.0
C348 C 0.40019 0.38324 0.87541 0.0
C349 C 0.45402 0.28041 0.85388 0.0
C350 C 0.48557 0.3175 0.87334 0.0
C351 C 0.45834 0.36922 0.88417 0.0
N352 N 0.39701 0.29447 0.84537 0.0
C353 C 0.37003 0.34514 0.85588 0.0
Co354 Co 0.34172 0.74908 0.36308 0.0
Co355 Co 0.27549 0.85729 0.31809 0.0
O356 O 0.27172 0.78997 0.34618 0.0
C357 C 0.27606 0.79242 0.41651 0.0
O358 O 0.26531 0.84252 0.40222 0.0
C359 C 0.1791 0.77412 0.29398 0.0
O360 O 0.19181 0.7328 0.31373 0.0
O361 O 0.33793 0.8159 0.29316 0.0
O362 O 0.38106 0.74778 0.32333 0.0
H363 H 0.38101 0.01217 0.25613 0.0
H364 H 0.22211 0.69736 0.37586 0.0
O365 O 0.30453 0.75015 0.40376 0.0
H366 H 0.33029 0.54219 0.3192 0.0
H367 H 0.44472 0.59856 0.42902 0.0
H368 H 0.47313 0.75944 0.35513 0.0
H369 H 0.37922 0.63773 0.33155 0.0
H370 H 0.35775 0.65044 0.40716 0.0
O371 O 0.20971 0.82228 0.29262 0.0
H372 H 0.37437 0.92722 0.29106 0.0
H373 H 0.18469 0.93076 0.28551 0.0
H374 H 0.56134 0.70847 0.37626 0.0
H375 H 0.17189 0.60188 0.36453 0.0
H376 H 0.54742 0.62739 0.41351 0.0
H377 H 0.2259 0.52371 0.33577 0.0
O378 O 0.3823 0.82637 0.37219 0.0
H379 H 0.0863 0.87492 0.37888 0.0
H380 H 0.26445 0.98111 0.34168 0.0
H381 H 0.19154 0.03484 0.37299 0.0
H382 H 0.10144 0.98182 0.3917 0.0
H383 H 0.16058 0.82273 0.34794 0.0
H384 H 0.18934 0.01541 0.25034 0.0
H385 H 0.28804 0.057 0.23561 0.0
O386 O 0.33966 0.89502 0.34229 0.0
C387 C 0.37686 0.77536 0.29858 0.0
C388 C 0.33774 0.99454 0.26244 0.0
C389 C 0.23018 0.99628 0.25914 0.0
N390 N 0.27923 0.92411 0.29043 0.0
C391 C 0.33369 0.94649 0.28226 0.0
C392 C 0.22785 0.94817 0.27899 0.0
C393 C 0.28556 0.0196 0.25088 0.0
C394 C 0.24619 0.66324 0.36371 0.0
N395 N 0.30344 0.67326 0.3543 0.0
C396 C 0.21741 0.60938 0.35721 0.0
C397 C 0.24771 0.56557 0.34105 0.0
C398 C 0.30625 0.57595 0.3317 0.0
C399 C 0.33359 0.63033 0.3386 0.0
C400 C 0.45137 0.6338 0.4128 0.0
C401 C 0.46669 0.72409 0.37125 0.0
C402 C 0.4023 0.66345 0.4004 0.0
N403 N 0.41035 0.70788 0.37984 0.0
C404 C 0.51682 0.69544 0.38317 0.0
C405 C 0.50898 0.64998 0.40408 0.0
C406 C 0.37724 0.87949 0.36216 0.0
C407 C 0.12508 0.89868 0.37062 0.0
C408 C 0.22537 0.95762 0.34966 0.0
C409 C 0.1842 0.98836 0.3674 0.0
C410 C 0.13367 0.95861 0.37788 0.0
N411 N 0.21636 0.89897 0.34229 0.0
C412 C 0.16718 0.86941 0.35279 0.0
Co413 Co 0.75121 0.84339 0.85971 0.0
Co414 Co 0.63464 0.78701 0.81722 0.0
O415 O 0.70259 0.7776 0.84428 0.0
C416 C 0.70532 0.78285 0.9138 0.0
O417 O 0.65326 0.77966 0.90039 0.0
C418 C 0.71272 0.69215 0.78974 0.0
O419 O 0.76029 0.71791 0.80098 0.0
O420 O 0.68114 0.84184 0.7905 0.0
O421 O 0.75177 0.88268 0.81981 0.0
H422 H 0.48812 0.90354 0.75502 0.0
H423 H 0.79215 0.71916 0.87141 0.0
O424 O 0.74999 0.80626 0.90049 0.0
H425 H 0.95104 0.81109 0.8104 0.0
H426 H 0.91697 0.93077 0.92184 0.0
H427 H 0.75445 0.9751 0.85088 0.0
H428 H 0.86231 0.86953 0.82533 0.0
H429 H 0.85406 0.84965 0.90184 0.0
O430 O 0.66106 0.7154 0.79334 0.0
H431 H 0.57465 0.89055 0.78852 0.0
H432 H 0.54927 0.70234 0.78828 0.0
H433 H 0.81653 0.05748 0.87011 0.0
H434 H 0.88072 0.65944 0.85747 0.0
H435 H 0.89852 0.03555 0.90588 0.0
H436 H 0.96069 0.70528 0.82652 0.0
O437 O 0.67914 0.89157 0.87024 0.0
H438 H 0.60142 0.60377 0.8801 0.0
H439 H 0.51304 0.79279 0.84442 0.0
H440 H 0.45522 0.72839 0.87851 0.0
H441 H 0.49937 0.63302 0.89653 0.0
H442 H 0.6579 0.66983 0.84628 0.0
H443 H 0.46252 0.71333 0.75475 0.0
H444 H 0.43119 0.81456 0.73806 0.0
O445 O 0.60587 0.85771 0.84028 0.0
C446 C 0.72314 0.8795 0.79525 0.0
C447 C 0.50124 0.85922 0.76221 0.0
C448 C 0.48695 0.75246 0.76201 0.0
N449 N 0.56687 0.79579 0.79048 0.0
C450 C 0.55016 0.85158 0.78122 0.0
C451 C 0.53623 0.74651 0.78093 0.0
C452 C 0.46938 0.80926 0.75266 0.0
C453 C 0.82722 0.73971 0.85836 0.0
N454 N 0.82206 0.79778 0.84923 0.0
C455 C 0.87709 0.70556 0.85037 0.0
C456 C 0.9219 0.73127 0.83297 0.0
C457 C 0.91648 0.79063 0.82388 0.0
C458 C 0.86599 0.82341 0.8323 0.0
C459 C 0.88134 0.9409 0.90629 0.0
C460 C 0.78999 0.96515 0.86642 0.0
C461 C 0.84542 0.89518 0.89497 0.0
N462 N 0.8005 0.90761 0.87524 0.0
C463 C 0.82502 0.01201 0.87725 0.0
C464 C 0.87099 0.99968 0.89732 0.0
C465 C 0.62599 0.89358 0.85995 0.0
C466 C 0.58161 0.64511 0.87232 0.0
C467 C 0.53265 0.7515 0.85226 0.0
C468 C 0.49963 0.71512 0.87149 0.0
C469 C 0.5244 0.6616 0.88157 0.0
N470 N 0.58869 0.73497 0.84322 0.0
C471 C 0.61328 0.68257 0.85303 0.0
H472 H 0.29393 0.33045 0.04896 0.0
H473 H 0.15195 0.20069 0.05709 0.0
H474 H 0.15868 0.17846 0.0042 0.0
H475 H 0.20486 0.19441 0.9556 0.0
H476 H 0.35094 0.31888 0.94668 0.0
H477 H 0.34252 0.34473 0.99965 0.0
C478 C 0.26456 0.29738 0.03908 0.0
C479 C 0.22265 0.26725 0.05705 0.0
C480 C 0.26923 0.28389 0.00844 0.0
C481 C 0.18507 0.22421 0.04395 0.0
C482 C 0.18861 0.21156 0.01359 0.0
C483 C 0.2346 0.22754 0.96517 0.0
C484 C 0.27813 0.25499 0.94723 0.0
C485 C 0.23048 0.241 0.99565 0.0
C486 C 0.31699 0.29712 0.96008 0.0
C487 C 0.3122 0.3119 0.99035 0.0
H488 H 0.18216 0.79542 0.55004 0.0
H489 H 0.31767 0.65838 0.55724 0.0
H490 H 0.33977 0.66749 0.50437 0.0
H491 H 0.3225 0.71469 0.4563 0.0
H492 H 0.19196 0.8559 0.44809 0.0
H493 H 0.16605 0.84488 0.501 0.0
C494 C 0.21634 0.76755 0.53993 0.0
C495 C 0.24822 0.72637 0.55761 0.0
C496 C 0.2298 0.77374 0.50934 0.0
C497 C 0.29276 0.69082 0.54427 0.0
C498 C 0.30537 0.69579 0.51396 0.0
C499 C 0.28805 0.74288 0.46597 0.0
C500 C 0.25894 0.78577 0.44825 0.0
C501 C 0.2744 0.73715 0.49634 0.0
C502 C 0.21506 0.82251 0.46129 0.0
C503 C 0.20022 0.81619 0.49152 0.0
H504 H 0.69677 0.68014 0.04566 0.0
H505 H 0.85351 0.79197 0.05236 0.0
H506 H 0.84465 0.81919 1.00015 0.0
H507 H 0.79222 0.81342 0.95273 0.0
H508 H 0.63233 0.70682 0.94511 0.0
H509 H 0.64262 0.67541 0.99726 0.0
C510 C 0.72894 0.71028 0.03558 0.0
C511 C 0.77552 0.73414 0.05299 0.0
C512 C 0.72309 0.7268 0.00534 0.0
C513 C 0.81676 0.77344 0.03967 0.0
C514 C 0.81196 0.78894 0.0097 0.0
C515 C 0.75976 0.78299 0.96237 0.0
C516 C 0.71177 0.76232 0.94504 0.0
C517 C 0.76525 0.76618 0.99237 0.0
C518 C 0.6697 0.72349 0.95803 0.0
C519 C 0.67558 0.70548 0.98784 0.0
H520 H 0.69531 0.27683 0.45527 0.0
H521 H 0.83279 0.14198 0.44876 0.0
H522 H 0.86047 0.15957 0.50099 0.0
H523 H 0.84447 0.21354 0.54886 0.0
H524 H 0.70274 0.34458 0.55426 0.0
H525 H 0.67805 0.3281 0.50221 0.0
C526 C 0.73163 0.25143 0.46514 0.0
C527 C 0.76221 0.20847 0.44808 0.0
C528 C 0.74643 0.26098 0.49512 0.0
C529 C 0.80852 0.17536 0.46144 0.0
C530 C 0.82438 0.18545 0.49128 0.0
C531 C 0.80831 0.23843 0.53856 0.0
C532 C 0.77553 0.28016 0.55554 0.0
C533 C 0.79351 0.22815 0.50841 0.0
C534 C 0.72847 0.31182 0.54191 0.0
C535 C 0.71435 0.30265 0.51204 0.0
H536 H 0.43133 0.19589 0.2026 0.0
H537 H 0.35895 0.33027 0.26167 0.0
H538 H 0.44853 0.32512 0.29238 0.0
H539 H 0.54625 0.28267 0.30299 0.0
H540 H 0.62144 0.14834 0.24484 0.0
H541 H 0.53256 0.15439 0.21294 0.0
C542 C 0.43504 0.22369 0.22231 0.0
C543 C 0.38804 0.26315 0.22986 0.0
C544 C 0.48752 0.22121 0.23983 0.0
C545 C 0.39412 0.29944 0.25528 0.0
C546 C 0.44551 0.29669 0.27286 0.0
C547 C 0.54384 0.25486 0.28323 0.0
C548 C 0.59093 0.21506 0.27646 0.0
C549 C 0.49246 0.25793 0.26532 0.0
C550 C 0.58636 0.17973 0.25059 0.0
C551 C 0.5352 0.18281 0.23246 0.0
H552 H 0.29925 0.93028 0.7058 0.0
H553 H 0.15079 0.86315 0.75749 0.0
H554 H 0.14733 0.9562 0.7858 0.0
H555 H 0.18816 0.05485 0.79715 0.0
H556 H 0.33654 0.12334 0.74577 0.0
H557 H 0.33689 0.03244 0.71556 0.0
C558 C 0.26634 0.93591 0.72336 0.0
C559 C 0.22581 0.88933 0.72971 0.0
C560 C 0.26392 0.99018 0.73935 0.0
C561 C 0.18277 0.89795 0.7522 0.0
C562 C 0.18058 0.95132 0.76836 0.0
C563 C 0.22024 0.05052 0.77912 0.0
C564 C 0.26255 0.09618 0.77403 0.0
C565 C 0.22102 0.99762 0.7622 0.0
C566 C 0.3033 0.08935 0.75031 0.0
C567 C 0.30394 0.03697 0.73315 0.0
H568 H 0.45754 0.85293 0.2752 0.0
H569 H 0.40545 0.66756 0.27526 0.0
H570 H 0.49641 0.64102 0.24788 0.0
H571 H 0.59401 0.66915 0.22759 0.0
H572 H 0.65019 0.8537 0.22978 0.0
H573 H 0.55483 0.88194 0.25274 0.0
C574 C 0.46543 0.8071 0.26835 0.0
C575 C 0.42429 0.76234 0.27655 0.0
C576 C 0.51919 0.79188 0.25364 0.0
C577 C 0.43598 0.70276 0.26863 0.0
C578 C 0.48824 0.68756 0.25327 0.0
C579 C 0.58557 0.71566 0.23298 0.0
C580 C 0.62973 0.7591 0.22711 0.0
C581 C 0.53082 0.7315 0.2463 0.0
C582 C 0.6174 0.81916 0.23417 0.0
C583 C 0.56269 0.8354 0.24724 0.0
H584 H 0.71015 0.09548 0.70429 0.0
H585 H 0.86185 0.15262 0.75651 0.0
H586 H 0.85817 0.05991 0.78511 0.0
H587 H 0.81037 0.96449 0.79651 0.0
H588 H 0.65862 0.90594 0.74465 0.0
H589 H 0.66513 0.9964 0.71422 0.0
C590 C 0.74222 0.08774 0.72202 0.0
C591 C 0.78581 0.13141 0.72842 0.0
C592 C 0.74046 0.03366 0.7382 0.0
C593 C 0.82765 0.12008 0.75115 0.0
C594 C 0.82573 0.06691 0.76749 0.0
C595 C 0.779 0.97088 0.77834 0.0
C596 C 0.73381 0.92816 0.77314 0.0
C597 C 0.78225 0.02351 0.76128 0.0
C598 C 0.69402 0.93762 0.74926 0.0
C599 C 0.69734 0.98976 0.73197 0.0
H600 H 0.92517 0.17066 0.28583 0.0
H601 H 0.84507 0.34187 0.26608 0.0
H602 H 0.93966 0.37647 0.24466 0.0
H603 H 0.04273 0.35453 0.22742 0.0
H604 H 0.12038 0.18213 0.24569 0.0
H605 H 0.02986 0.1519 0.2725 0.0
C606 C 0.9283 0.21564 0.27691 0.0
C607 C 0.87764 0.25323 0.27713 0.0
C608 C 0.98284 0.23527 0.26476 0.0
C609 C 0.88304 0.31173 0.26593 0.0
C610 C 0.93724 0.33162 0.25375 0.0
C611 C 0.04045 0.31131 0.23837 0.0
C612 C 0.08859 0.27114 0.23551 0.0
C613 C 0.98723 0.29351 0.25268 0.0
C614 C 0.08449 0.21426 0.24853 0.0
C615 C 0.0324 0.19672 0.2634 0.0
H616 H 0.16051 0.56217 0.73439 0.0
H617 H 0.34587 0.61387 0.73907 0.0
H618 H 0.37021 0.52063 0.7649 0.0
H619 H 0.34076 0.42011 0.78121 0.0
H620 H 0.15605 0.36594 0.77442 0.0
H621 H 0.12959 0.46385 0.75413 0.0
C622 C 0.20575 0.55392 0.74209 0.0
C623 C 0.25116 0.59534 0.73539 0.0
C624 C 0.21984 0.49889 0.75573 0.0
C625 C 0.31005 0.5831 0.74449 0.0
C626 C 0.32408 0.52945 0.75889 0.0
C627 C 0.29464 0.42964 0.77538 0.0
C628 C 0.25065 0.3851 0.77891 0.0
C629 C 0.27971 0.48618 0.76374 0.0
C630 C 0.19103 0.39884 0.77155 0.0
C631 C 0.17576 0.45507 0.76009 0.0
H632 H 0.08294 0.69888 0.3015 0.0
H633 H 0.15121 0.83977 0.245 0.0
H634 H 0.05971 0.83794 0.21574 0.0
H635 H 0.96223 0.79637 0.20546 0.0
H636 H 0.89132 0.65398 0.25999 0.0
H637 H 0.98135 0.65774 0.29133 0.0
C638 C 0.0779 0.72883 0.28264 0.0
C639 C 0.12432 0.76918 0.27539 0.0
C640 C 0.02441 0.72806 0.26589 0.0
C641 C 0.11657 0.8082 0.25112 0.0
C642 C 0.06407 0.8074 0.2344 0.0
C643 C 0.96568 0.7663 0.22434 0.0
C644 C 0.91963 0.72486 0.23022 0.0
C645 C 0.01782 0.76768 0.2416 0.0
C646 C 0.92557 0.68669 0.25499 0.0
C647 C 0.97743 0.68841 0.27272 0.0
H648 H 0.6923 0.4578 0.71268 0.0
H649 H 0.86229 0.41979 0.75414 0.0
H650 H 0.85477 0.51273 0.78288 0.0
H651 H 0.80277 0.60891 0.79332 0.0
H652 H 0.63275 0.64414 0.75109 0.0
H653 H 0.63814 0.54864 0.72517 0.0
C654 C 0.72748 0.46909 0.72831 0.0
C655 C 0.77797 0.43166 0.73104 0.0
C656 C 0.72341 0.52292 0.74421 0.0
C657 C 0.82273 0.44732 0.75164 0.0
C658 C 0.81876 0.50092 0.76784 0.0
C659 C 0.76705 0.59566 0.77837 0.0
C660 C 0.7177 0.63408 0.77392 0.0
C661 C 0.76995 0.53985 0.76374 0.0
C662 C 0.67131 0.61574 0.75487 0.0
C663 C 0.67424 0.56097 0.74008 0.0
H664 H 0.98788 0.62085 0.13237 0.0
H665 H 0.84035 0.49742 0.13736 0.0
H666 H 0.9093 0.413 0.13385 0.0
H667 H 0.01216 0.37448 0.13654 0.0
H668 H 0.15976 0.49827 0.13669 0.0
H669 H 0.0907 0.58209 0.13066 0.0
C670 C 0.97081 0.57554 0.13194 0.0
C671 C 0.90918 0.56538 0.13532 0.0
C672 C 0.01099 0.52715 0.13119 0.0
C673 C 0.88768 0.50634 0.13507 0.0
C674 C 0.92711 0.45803 0.13311 0.0
C675 C 0.02919 0.41966 0.13451 0.0
C676 C 0.09087 0.43025 0.13722 0.0
C677 C 0.989 0.46785 0.13225 0.0
C678 C 0.11237 0.48911 0.13494 0.0
C679 C 0.07289 0.53706 0.13151 0.0
H680 H 0.00486 0.38271 0.63927 0.0
H681 H 0.85887 0.5063 0.62621 0.0
H682 H 0.9296 0.58908 0.62243 0.0
H683 H 0.03163 0.62759 0.62998 0.0
H684 H 0.17778 0.50378 0.64182 0.0
H685 H 0.1084 0.41965 0.63848 0.0
C686 C 0.98859 0.42758 0.63503 0.0
C687 C 0.92662 0.43845 0.63359 0.0
C688 C 0.02953 0.47495 0.63288 0.0
C689 C 0.90626 0.49668 0.62755 0.0
C690 C 0.9467 0.54415 0.62557 0.0
C691 C 0.04836 0.5821 0.63118 0.0
C692 C 0.10954 0.57184 0.6365 0.0
C693 C 0.00822 0.53403 0.62929 0.0
C694 C 0.13091 0.5128 0.63765 0.0
C695 C 0.09117 0.4647 0.636 0.0
H696 H 0.53137 0.11058 0.37696 0.0
H697 H 0.67264 0.98213 0.36325 0.0
H698 H 0.6011 0.90023 0.36778 0.0
H699 H 0.49667 0.8662 0.36826 0.0
H700 H 0.35447 0.99557 0.37577 0.0
H701 H 0.42764 0.076 0.38142 0.0
C702 C 0.54665 0.06466 0.37567 0.0
C703 C 0.6071 0.05241 0.3696 0.0
C704 C 0.50479 0.01795 0.3769 0.0
C705 C 0.62623 0.99266 0.36767 0.0
C706 C 0.58531 0.94582 0.37021 0.0
C707 C 0.48189 0.91179 0.37198 0.0
C708 C 0.42053 0.92516 0.37169 0.0
C709 C 0.52419 0.95802 0.37374 0.0
C710 C 0.40165 0.98448 0.37589 0.0
C711 C 0.44343 0.0304 0.37902 0.0
H712 H 0.4891 0.13737 0.86595 0.0
H713 H 0.33819 0.01818 0.87279 0.0
H714 H 0.40544 0.93252 0.87618 0.0
H715 H 0.50683 0.89082 0.87082 0.0
H716 H 0.65808 0.00989 0.8671 0.0
H717 H 0.59128 0.0963 0.86944 0.0
C718 C 0.47106 0.09273 0.86873 0.0
C719 C 0.40879 0.08402 0.86858 0.0
C720 C 0.51006 0.04365 0.87109 0.0
C721 C 0.38592 0.0261 0.8727 0.0
C722 C 0.42437 0.97699 0.8745 0.0
C723 C 0.52509 0.93571 0.87117 0.0
C724 C 0.5871 0.9441 0.8684 0.0
C725 C 0.48643 0.98511 0.87277 0.0
C726 C 0.61048 1.00234 0.86925 0.0
C727 C 0.57225 0.05178 0.87035 0.0
loop_
_geom_bond_atom_site_label_1
_geom_bond_atom_site_label_2
_geom_bond_distance
_geom_bond_site_symmetry_2
_ccdc_geom_bond_type
Co0 O2 2.143 . S
Co0 O8 2.074 . S
Co0 O11 2.093 . S
Co0 O24 2.097 . S
Co0 N41 2.151 . S
Co0 N49 2.214 . S
Co1 O2 2.160 . S
Co1 O7 2.058 . S
Co1 O17 2.057 . S
Co1 O32 2.037 . S
Co1 N36 2.145 . S
Co1 N57 2.257 . S
O2 Co0 2.143 . S
O2 Co1 2.160 . S
C3 O4 1.278 . S
C3 O11 1.224 . S
O4 C3 1.278 . S
C5 O6 1.245 . S
C5 O17 1.232 . S
O6 C5 1.245 . S
O7 Co1 2.058 . S
O7 C33 1.269 . S
O8 Co0 2.074 . S
O8 C33 1.257 . S
H9 C34 0.930 . S
H10 C40 0.930 . S
O11 Co0 2.093 . S
O11 C3 1.224 . S
H12 C44 0.929 . S
H13 C46 0.930 . S
H14 C47 0.930 . S
H15 C45 0.929 . S
H16 C48 0.928 . S
O17 Co1 2.057 . S
O17 C5 1.232 . S
H18 C37 0.929 . S
H19 C38 0.929 . S
H20 C50 0.931 . S
H21 C42 0.929 . S
H22 C51 0.930 . S
H23 C43 0.931 . S
O24 Co0 2.097 . S
O24 C52 1.214 . S
H25 C53 0.929 . S
H26 C54 0.929 . S
H27 C55 0.930 . S
H28 C56 0.929 . S
H29 C58 0.930 . S
H30 C35 0.930 . S
H31 C39 0.930 . S
O32 Co1 2.037 . S
O32 C52 1.234 . S
C33 O7 1.269 . S
C33 O8 1.257 . S
C34 H9 0.930 . S
C34 C37 1.388 . S
C34 C39 1.418 . S
C35 H30 0.930 . S
C35 C38 1.404 . S
C35 C39 1.353 . S
N36 Co1 2.145 . S
N36 C37 1.397 . S
N36 C38 1.334 . S
C37 H18 0.929 . S
C37 C34 1.388 . S
C37 N36 1.397 . S
C38 H19 0.929 . S
C38 C35 1.404 . S
C38 N36 1.334 . S
C39 H31 0.930 . S
C39 C34 1.418 . S
C39 C35 1.353 . S
C40 H10 0.930 . S
C40 N41 1.330 . S
C40 C42 1.446 . S
N41 Co0 2.151 . S
N41 C40 1.330 . S
N41 C45 1.418 . S
C42 H21 0.929 . S
C42 C40 1.446 . S
C42 C43 1.332 . S
C43 H23 0.931 . S
C43 C42 1.332 . S
C43 C44 1.267 . S
C44 H12 0.929 . S
C44 C43 1.267 . S
C44 C45 1.251 . S
C45 H15 0.929 . S
C45 N41 1.418 . S
C45 C44 1.251 . S
C46 H13 0.930 . S
C46 C48 1.406 1_655 S
C46 C51 1.261 . S
C47 H14 0.930 . S
C47 N49 1.325 . S
C47 C50 1.357 1_455 S
C48 H16 0.928 . S
C48 C46 1.406 1_455 S
C48 N49 1.261 . S
N49 Co0 2.214 . S
N49 C47 1.325 . S
N49 C48 1.261 . S
C50 H20 0.931 . S
C50 C47 1.357 1_655 S
C50 C51 1.312 . S
C51 H22 0.930 . S
C51 C46 1.261 . S
C51 C50 1.312 . S
C52 O24 1.214 . S
C52 O32 1.234 . S
C53 H25 0.929 . S
C53 C56 1.391 . S
C53 C58 1.391 . S
C54 H26 0.929 . S
C54 C55 1.390 . S
C54 N57 1.391 . S
C55 H27 0.930 . S
C55 C54 1.390 . S
C55 C56 1.392 . S
C56 H28 0.929 . S
C56 C53 1.391 . S
C56 C55 1.392 . S
N57 Co1 2.257 . S
N57 C54 1.391 . S
N57 C58 1.388 . S
C58 H29 0.930 . S
C58 C53 1.391 . S
C58 N57 1.388 . S
Co59 O61 2.143 . S
Co59 O67 2.074 . S
Co59 O70 2.093 . S
Co59 O83 2.097 . S
Co59 N100 2.151 . S
Co59 N108 2.214 . S
Co60 O61 2.160 . S
Co60 O66 2.058 . S
Co60 O76 2.057 . S
Co60 O91 2.037 . S
Co60 N95 2.145 . S
Co60 N116 2.257 . S
O61 Co59 2.143 . S
O61 Co60 2.160 . S
C62 O63 1.278 . S
C62 O70 1.224 . S
O63 C62 1.278 . S
C64 O65 1.245 . S
C64 O76 1.232 . S
O65 C64 1.245 . S
O66 Co60 2.058 . S
O66 C92 1.269 . S
O67 Co59 2.074 . S
O67 C92 1.257 . S
H68 C93 0.930 1_655 S
H69 C99 0.930 . S
O70 Co59 2.093 . S
O70 C62 1.224 . S
H71 C103 0.929 . S
H72 C105 0.930 . S
H73 C106 0.930 . S
H74 C104 0.929 . S
H75 C107 0.928 . S
O76 Co60 2.057 . S
O76 C64 1.232 . S
H77 C96 0.929 . S
H78 C97 0.929 . S
H79 C109 0.931 . S
H80 C101 0.929 . S
H81 C110 0.930 . S
H82 C102 0.931 . S
O83 Co59 2.097 . S
O83 C111 1.214 . S
H84 C112 0.929 . S
H85 C113 0.929 1_655 S
H86 C114 0.930 . S
H87 C115 0.929 . S
H88 C117 0.930 . S
H89 C94 0.930 . S
H90 C98 0.930 . S
O91 Co60 2.037 . S
O91 C111 1.234 . S
C92 O66 1.269 . S
C92 O67 1.257 . S
C93 H68 0.930 1_455 S
C93 C96 1.388 . S
C93 C98 1.418 1_455 S
C94 H89 0.930 . S
C94 C97 1.404 . S
C94 C98 1.353 1_455 S
N95 Co60 2.145 . S
N95 C96 1.397 . S
N95 C97 1.334 . S
C96 H77 0.929 . S
C96 C93 1.388 . S
C96 N95 1.397 . S
C97 H78 0.929 . S
C97 C94 1.404 . S
C97 N95 1.334 . S
C98 H90 0.930 . S
C98 C93 1.418 1_655 S
C98 C94 1.353 1_655 S
C99 H69 0.930 . S
C99 N100 1.330 . S
C99 C101 1.446 . S
N100 Co59 2.151 . S
N100 C99 1.330 . S
N100 C104 1.418 . S
C101 H80 0.929 . S
C101 C99 1.446 . S
C101 C102 1.332 . S
C102 H82 0.931 . S
C102 C101 1.332 . S
C102 C103 1.267 . S
C103 H71 0.929 . S
C103 C102 1.267 . S
C103 C104 1.251 . S
C104 H74 0.929 . S
C104 N100 1.418 . S
C104 C103 1.251 . S
C105 H72 0.930 . S
C105 C107 1.406 . S
C105 C110 1.261 . S
C106 H73 0.930 . S
C106 N108 1.325 . S
C106 C109 1.357 . S
C107 H75 0.928 . S
C107 C105 1.406 . S
C107 N108 1.261 . S
N108 Co59 2.214 . S
N108 C106 1.325 . S
N108 C107 1.261 . S
C109 H79 0.931 . S
C109 C106 1.357 . S
C109 C110 1.312 . S
C110 H81 0.930 . S
C110 C105 1.261 . S
C110 C109 1.312 . S
C111 O83 1.214 . S
C111 O91 1.234 . S
C112 H84 0.929 . S
C112 C115 1.391 1_455 S
C112 C117 1.391 . S
C113 H85 0.929 1_455 S
C113 C114 1.390 1_455 S
C113 N116 1.391 . S
C114 H86 0.930 . S
C114 C113 1.390 1_655 S
C114 C115 1.392 . S
C115 H87 0.929 . S
C115 C112 1.391 1_655 S
C115 C114 1.392 . S
N116 Co60 2.257 . S
N116 C113 1.391 . S
N116 C117 1.388 . S
C117 H88 0.930 . S
C117 C112 1.391 . S
C117 N116 1.388 . S
Co118 O120 2.143 . S
Co118 O126 2.074 . S
Co118 O129 2.093 . S
Co118 O142 2.097 . S
Co118 N159 2.151 . S
Co118 N167 2.214 . S
Co119 O120 2.160 . S
Co119 O125 2.058 . S
Co119 O135 2.057 . S
Co119 O150 2.037 . S
Co119 N154 2.145 . S
Co119 N175 2.257 . S
O120 Co118 2.143 . S
O120 Co119 2.160 . S
C121 O122 1.278 . S
C121 O129 1.224 . S
O122 C121 1.278 . S
C123 O124 1.245 . S
C123 O135 1.232 . S
O124 C123 1.245 . S
O125 Co119 2.058 . S
O125 C151 1.269 . S
O126 Co118 2.074 . S
O126 C151 1.257 . S
H127 C152 0.930 . S
H128 C158 0.930 . S
O129 Co118 2.093 . S
O129 C121 1.224 . S
H130 C162 0.929 . S
H131 C164 0.930 . S
H132 C165 0.930 . S
H133 C163 0.929 . S
H134 C166 0.928 . S
O135 Co119 2.057 . S
O135 C123 1.232 . S
H136 C155 0.929 . S
H137 C156 0.929 . S
H138 C168 0.931 . S
H139 C160 0.929 . S
H140 C169 0.930 . S
H141 C161 0.931 . S
O142 Co118 2.097 . S
O142 C170 1.214 . S
H143 C171 0.929 . S
H144 C172 0.929 . S
H145 C173 0.930 . S
H146 C174 0.929 . S
H147 C176 0.930 . S
H148 C153 0.930 . S
H149 C157 0.930 . S
O150 Co119 2.037 . S
O150 C170 1.234 . S
C151 O125 1.269 . S
C151 O126 1.257 . S
C152 H127 0.930 . S
C152 C155 1.388 . S
C152 C157 1.418 . S
C153 H148 0.930 . S
C153 C156 1.404 . S
C153 C157 1.353 . S
N154 Co119 2.145 . S
N154 C155 1.397 . S
N154 C156 1.334 . S
C155 H136 0.929 . S
C155 C152 1.388 . S
C155 N154 1.397 . S
C156 H137 0.929 . S
C156 C153 1.404 . S
C156 N154 1.334 . S
C157 H149 0.930 . S
C157 C152 1.418 . S
C157 C153 1.353 . S
C158 H128 0.930 . S
C158 N159 1.330 . S
C158 C160 1.446 . S
N159 Co118 2.151 . S
N159 C158 1.330 . S
N159 C163 1.418 . S
C160 H139 0.929 . S
C160 C158 1.446 . S
C160 C161 1.332 . S
C161 H141 0.931 . S
C161 C160 1.332 . S
C161 C162 1.267 . S
C162 H130 0.929 . S
C162 C161 1.267 . S
C162 C163 1.251 . S
C163 H133 0.929 . S
C163 N159 1.418 . S
C163 C162 1.251 . S
C164 H131 0.930 . S
C164 C166 1.406 1_455 S
C164 C169 1.261 . S
C165 H132 0.930 . S
C165 N167 1.325 . S
C165 C168 1.357 1_655 S
C166 H134 0.928 . S
C166 C164 1.406 1_655 S
C166 N167 1.261 . S
N167 Co118 2.214 . S
N167 C165 1.325 . S
N167 C166 1.261 . S
C168 H138 0.931 . S
C168 C165 1.357 1_455 S
C168 C169 1.312 . S
C169 H140 0.930 . S
C169 C164 1.261 . S
C169 C168 1.312 . S
C170 O142 1.214 . S
C170 O150 1.234 . S
C171 H143 0.929 . S
C171 C174 1.391 . S
C171 C176 1.391 . S
C172 H144 0.929 . S
C172 C173 1.390 . S
C172 N175 1.391 . S
C173 H145 0.930 . S
C173 C172 1.390 . S
C173 C174 1.392 . S
C174 H146 0.929 . S
C174 C171 1.391 . S
C174 C173 1.392 . S
N175 Co119 2.257 . S
N175 C172 1.391 . S
N175 C176 1.388 . S
C176 H147 0.930 . S
C176 C171 1.391 . S
C176 N175 1.388 . S
Co177 O179 2.143 . S
Co177 O185 2.074 . S
Co177 O188 2.093 . S
Co177 O201 2.097 . S
Co177 N218 2.151 . S
Co177 N226 2.214 . S
Co178 O179 2.160 . S
Co178 O184 2.058 . S
Co178 O194 2.057 . S
Co178 O209 2.037 . S
Co178 N213 2.145 . S
Co178 N234 2.257 . S
O179 Co177 2.143 . S
O179 Co178 2.160 . S
C180 O181 1.278 . S
C180 O188 1.224 . S
O181 C180 1.278 . S
C182 O183 1.245 . S
C182 O194 1.232 . S
O183 C182 1.245 . S
O184 Co178 2.058 . S
O184 C210 1.269 . S
O185 Co177 2.074 . S
O185 C210 1.257 . S
H186 C211 0.930 1_455 S
H187 C217 0.930 . S
O188 Co177 2.093 . S
O188 C180 1.224 . S
H189 C221 0.929 . S
H190 C223 0.930 . S
H191 C224 0.930 . S
H192 C222 0.929 . S
H193 C225 0.928 . S
O194 Co178 2.057 . S
O194 C182 1.232 . S
H195 C214 0.929 . S
H196 C215 0.929 . S
H197 C227 0.931 . S
H198 C219 0.929 . S
H199 C228 0.930 . S
H200 C220 0.931 . S
O201 Co177 2.097 . S
O201 C229 1.214 . S
H202 C230 0.929 . S
H203 C231 0.929 1_455 S
H204 C232 0.930 . S
H205 C233 0.929 . S
H206 C235 0.930 . S
H207 C212 0.930 . S
H208 C216 0.930 . S
O209 Co178 2.037 . S
O209 C229 1.234 . S
C210 O184 1.269 . S
C210 O185 1.257 . S
C211 H186 0.930 1_655 S
C211 C214 1.388 . S
C211 C216 1.418 1_655 S
C212 H207 0.930 . S
C212 C215 1.404 . S
C212 C216 1.353 1_655 S
N213 Co178 2.145 . S
N213 C214 1.397 . S
N213 C215 1.334 . S
C214 H195 0.929 . S
C214 C211 1.388 . S
C214 N213 1.397 . S
C215 H196 0.929 . S
C215 C212 1.404 . S
C215 N213 1.334 . S
C216 H208 0.930 . S
C216 C211 1.418 1_455 S
C216 C212 1.353 1_455 S
C217 H187 0.930 . S
C217 N218 1.330 . S
C217 C219 1.446 . S
N218 Co177 2.151 . S
N218 C217 1.330 . S
N218 C222 1.418 . S
C219 H198 0.929 . S
C219 C217 1.446 . S
C219 C220 1.332 . S
C220 H200 0.931 . S
C220 C219 1.332 . S
C220 C221 1.267 . S
C221 H189 0.929 . S
C221 C220 1.267 . S
C221 C222 1.251 . S
C222 H192 0.929 . S
C222 N218 1.418 . S
C222 C221 1.251 . S
C223 H190 0.930 . S
C223 C225 1.406 . S
C223 C228 1.261 . S
C224 H191 0.930 . S
C224 N226 1.325 . S
C224 C227 1.357 . S
C225 H193 0.928 . S
C225 C223 1.406 . S
C225 N226 1.261 . S
N226 Co177 2.214 . S
N226 C224 1.325 . S
N226 C225 1.261 . S
C227 H197 0.931 . S
C227 C224 1.357 . S
C227 C228 1.312 . S
C228 H199 0.930 . S
C228 C223 1.261 . S
C228 C227 1.312 . S
C229 O201 1.214 . S
C229 O209 1.234 . S
C230 H202 0.929 . S
C230 C233 1.391 1_655 S
C230 C235 1.391 . S
C231 H203 0.929 1_655 S
C231 C232 1.390 1_655 S
C231 N234 1.391 . S
C232 H204 0.930 . S
C232 C231 1.390 1_455 S
C232 C233 1.392 . S
C233 H205 0.929 . S
C233 C230 1.391 1_455 S
C233 C232 1.392 . S
N234 Co178 2.257 . S
N234 C231 1.391 . S
N234 C235 1.388 . S
C235 H206 0.930 . S
C235 C230 1.391 . S
C235 N234 1.388 . S
Co236 O238 2.143 . S
Co236 O244 2.074 . S
Co236 O247 2.093 . S
Co236 O260 2.097 . S
Co236 N277 2.151 . S
Co236 N285 2.214 . S
Co237 O238 2.160 . S
Co237 O243 2.058 . S
Co237 O253 2.057 . S
Co237 O268 2.037 . S
Co237 N272 2.145 . S
Co237 N293 2.257 . S
O238 Co236 2.143 . S
O238 Co237 2.160 . S
C239 O240 1.278 . S
C239 O247 1.224 . S
O240 C239 1.278 . S
C241 O242 1.245 . S
C241 O253 1.232 . S
O242 C241 1.245 . S
O243 Co237 2.058 . S
O243 C269 1.269 . S
O244 Co236 2.074 . S
O244 C269 1.257 . S
H245 C270 0.930 1_565 S
H246 C276 0.930 . S
O247 Co236 2.093 . S
O247 C239 1.224 . S
H248 C280 0.929 . S
H249 C282 0.930 . S
H250 C283 0.930 . S
H251 C281 0.929 . S
H252 C284 0.928 . S
O253 Co237 2.057 . S
O253 C241 1.232 . S
H254 C273 0.929 . S
H255 C274 0.929 . S
H256 C286 0.931 . S
H257 C278 0.929 . S
H258 C287 0.930 . S
H259 C279 0.931 . S
O260 Co236 2.097 . S
O260 C288 1.214 . S
H261 C289 0.929 . S
H262 C290 0.929 1_565 S
H263 C291 0.930 . S
H264 C292 0.929 . S
H265 C294 0.930 . S
H266 C271 0.930 . S
H267 C275 0.930 . S
O268 Co237 2.037 . S
O268 C288 1.234 . S
C269 O243 1.269 . S
C269 O244 1.257 . S
C270 H245 0.930 1_545 S
C270 C273 1.388 . S
C270 C275 1.418 1_545 S
C271 H266 0.930 . S
C271 C274 1.404 . S
C271 C275 1.353 1_545 S
N272 Co237 2.145 . S
N272 C273 1.397 . S
N272 C274 1.334 . S
C273 H254 0.929 . S
C273 C270 1.388 . S
C273 N272 1.397 . S
C274 H255 0.929 . S
C274 C271 1.404 . S
C274 N272 1.334 . S
C275 H267 0.930 . S
C275 C270 1.418 1_565 S
C275 C271 1.353 1_565 S
C276 H246 0.930 . S
C276 N277 1.330 . S
C276 C278 1.446 . S
N277 Co236 2.151 . S
N277 C276 1.330 . S
N277 C281 1.418 . S
C278 H257 0.929 . S
C278 C276 1.446 . S
C278 C279 1.332 . S
C279 H259 0.931 . S
C279 C278 1.332 . S
C279 C280 1.267 . S
C280 H248 0.929 . S
C280 C279 1.267 . S
C280 C281 1.251 . S
C281 H251 0.929 . S
C281 N277 1.418 . S
C281 C280 1.251 . S
C282 H249 0.930 . S
C282 C284 1.406 . S
C282 C287 1.261 . S
C283 H250 0.930 . S
C283 N285 1.325 . S
C283 C286 1.357 . S
C284 H252 0.928 . S
C284 C282 1.406 . S
C284 N285 1.261 . S
N285 Co236 2.214 . S
N285 C283 1.325 . S
N285 C284 1.261 . S
C286 H256 0.931 . S
C286 C283 1.357 . S
C286 C287 1.312 . S
C287 H258 0.930 . S
C287 C282 1.261 . S
C287 C286 1.312 . S
C288 O260 1.214 . S
C288 O268 1.234 . S
C289 H261 0.929 . S
C289 C292 1.391 1_545 S
C289 C294 1.391 . S
C290 H262 0.929 1_545 S
C290 C291 1.390 1_545 S
C290 N293 1.391 . S
C291 H263 0.930 . S
C291 C290 1.390 1_565 S
C291 C292 1.392 . S
C292 H264 0.929 . S
C292 C289 1.391 1_565 S
C292 C291 1.392 . S
N293 Co237 2.257 . S
N293 C290 1.391 . S
N293 C294 1.388 . S
C294 H265 0.930 . S
C294 C289 1.391 . S
C294 N293 1.388 . S
Co295 O297 2.143 . S
Co295 O303 2.074 . S
Co295 O306 2.093 . S
Co295 O319 2.097 . S
Co295 N336 2.151 . S
Co295 N344 2.214 . S
Co296 O297 2.160 . S
Co296 O302 2.058 . S
Co296 O312 2.057 . S
Co296 O327 2.037 . S
Co296 N331 2.145 . S
Co296 N352 2.257 . S
O297 Co295 2.143 . S
O297 Co296 2.160 . S
C298 O299 1.278 . S
C298 O306 1.224 . S
O299 C298 1.278 . S
C300 O301 1.245 . S
C300 O312 1.232 . S
O301 C300 1.245 . S
O302 Co296 2.058 . S
O302 C328 1.269 . S
O303 Co295 2.074 . S
O303 C328 1.257 . S
H304 C329 0.930 . S
H305 C335 0.930 . S
O306 Co295 2.093 . S
O306 C298 1.224 . S
H307 C339 0.929 . S
H308 C341 0.930 . S
H309 C342 0.930 . S
H310 C340 0.929 . S
H311 C343 0.928 . S
O312 Co296 2.057 . S
O312 C300 1.232 . S
H313 C332 0.929 . S
H314 C333 0.929 . S
H315 C345 0.931 . S
H316 C337 0.929 . S
H317 C346 0.930 . S
H318 C338 0.931 . S
O319 Co295 2.097 . S
O319 C347 1.214 . S
H320 C348 0.929 . S
H321 C349 0.929 . S
H322 C350 0.930 . S
H323 C351 0.929 . S
H324 C353 0.930 . S
H325 C330 0.930 . S
H326 C334 0.930 . S
O327 Co296 2.037 . S
O327 C347 1.234 . S
C328 O302 1.269 . S
C328 O303 1.257 . S
C329 H304 0.930 . S
C329 C332 1.388 . S
C329 C334 1.418 . S
C330 H325 0.930 . S
C330 C333 1.404 . S
C330 C334 1.353 . S
N331 Co296 2.145 . S
N331 C332 1.397 . S
N331 C333 1.334 . S
C332 H313 0.929 . S
C332 C329 1.388 . S
C332 N331 1.397 . S
C333 H314 0.929 . S
C333 C330 1.404 . S
C333 N331 1.334 . S
C334 H326 0.930 . S
C334 C329 1.418 . S
C334 C330 1.353 . S
C335 H305 0.930 . S
C335 N336 1.330 . S
C335 C337 1.446 . S
N336 Co295 2.151 . S
N336 C335 1.330 . S
N336 C340 1.418 . S
C337 H316 0.929 . S
C337 C335 1.446 . S
C337 C338 1.332 . S
C338 H318 0.931 . S
C338 C337 1.332 . S
C338 C339 1.267 . S
C339 H307 0.929 . S
C339 C338 1.267 . S
C339 C340 1.251 . S
C340 H310 0.929 . S
C340 N336 1.418 . S
C340 C339 1.251 . S
C341 H308 0.930 . S
C341 C343 1.406 1_565 S
C341 C346 1.261 . S
C342 H309 0.930 . S
C342 N344 1.325 . S
C342 C345 1.357 1_545 S
C343 H311 0.928 . S
C343 C341 1.406 1_545 S
C343 N344 1.261 . S
N344 Co295 2.214 . S
N344 C342 1.325 . S
N344 C343 1.261 . S
C345 H315 0.931 . S
C345 C342 1.357 1_565 S
C345 C346 1.312 . S
C346 H317 0.930 . S
C346 C341 1.261 . S
C346 C345 1.312 . S
C347 O319 1.214 . S
C347 O327 1.234 . S
C348 H320 0.929 . S
C348 C351 1.391 . S
C348 C353 1.391 . S
C349 H321 0.929 . S
C349 C350 1.390 . S
C349 N352 1.391 . S
C350 H322 0.930 . S
C350 C349 1.390 . S
C350 C351 1.392 . S
C351 H323 0.929 . S
C351 C348 1.391 . S
C351 C350 1.392 . S
N352 Co296 2.257 . S
N352 C349 1.391 . S
N352 C353 1.388 . S
C353 H324 0.930 . S
C353 C348 1.391 . S
C353 N352 1.388 . S
Co354 O356 2.143 . S
Co354 O362 2.074 . S
Co354 O365 2.093 . S
Co354 O378 2.097 . S
Co354 N395 2.151 . S
Co354 N403 2.214 . S
Co355 O356 2.160 . S
Co355 O361 2.058 . S
Co355 O371 2.057 . S
Co355 O386 2.037 . S
Co355 N390 2.145 . S
Co355 N411 2.257 . S
O356 Co354 2.143 . S
O356 Co355 2.160 . S
C357 O358 1.278 . S
C357 O365 1.224 . S
O358 C357 1.278 . S
C359 O360 1.245 . S
C359 O371 1.232 . S
O360 C359 1.245 . S
O361 Co355 2.058 . S
O361 C387 1.269 . S
O362 Co354 2.074 . S
O362 C387 1.257 . S
H363 C388 0.930 1_545 S
H364 C394 0.930 . S
O365 Co354 2.093 . S
O365 C357 1.224 . S
H366 C398 0.929 . S
H367 C400 0.930 . S
H368 C401 0.930 . S
H369 C399 0.929 . S
H370 C402 0.928 . S
O371 Co355 2.057 . S
O371 C359 1.232 . S
H372 C391 0.929 . S
H373 C392 0.929 . S
H374 C404 0.931 . S
H375 C396 0.929 . S
H376 C405 0.930 . S
H377 C397 0.931 . S
O378 Co354 2.097 . S
O378 C406 1.214 . S
H379 C407 0.929 . S
H380 C408 0.929 1_545 S
H381 C409 0.930 . S
H382 C410 0.929 . S
H383 C412 0.930 . S
H384 C389 0.930 . S
H385 C393 0.930 . S
O386 Co355 2.037 . S
O386 C406 1.234 . S
C387 O361 1.269 . S
C387 O362 1.257 . S
C388 H363 0.930 1_565 S
C388 C391 1.388 . S
C388 C393 1.418 1_565 S
C389 H384 0.930 . S
C389 C392 1.404 . S
C389 C393 1.353 1_565 S
N390 Co355 2.145 . S
N390 C391 1.397 . S
N390 C392 1.334 . S
C391 H372 0.929 . S
C391 C388 1.388 . S
C391 N390 1.397 . S
C392 H373 0.929 . S
C392 C389 1.404 . S
C392 N390 1.334 . S
C393 H385 0.930 . S
C393 C388 1.418 1_545 S
C393 C389 1.353 1_545 S
C394 H364 0.930 . S
C394 N395 1.330 . S
C394 C396 1.446 . S
N395 Co354 2.151 . S
N395 C394 1.330 . S
N395 C399 1.418 . S
C396 H375 0.929 . S
C396 C394 1.446 . S
C396 C397 1.332 . S
C397 H377 0.931 . S
C397 C396 1.332 . S
C397 C398 1.267 . S
C398 H366 0.929 . S
C398 C397 1.267 . S
C398 C399 1.251 . S
C399 H369 0.929 . S
C399 N395 1.418 . S
C399 C398 1.251 . S
C400 H367 0.930 . S
C400 C402 1.406 . S
C400 C405 1.261 . S
C401 H368 0.930 . S
C401 N403 1.325 . S
C401 C404 1.357 . S
C402 H370 0.928 . S
C402 C400 1.406 . S
C402 N403 1.261 . S
N403 Co354 2.214 . S
N403 C401 1.325 . S
N403 C402 1.261 . S
C404 H374 0.931 . S
C404 C401 1.357 . S
C404 C405 1.312 . S
C405 H376 0.930 . S
C405 C400 1.261 . S
C405 C404 1.312 . S
C406 O378 1.214 . S
C406 O386 1.234 . S
C407 H379 0.929 . S
C407 C410 1.391 1_565 S
C407 C412 1.391 . S
C408 H380 0.929 1_565 S
C408 C409 1.390 1_565 S
C408 N411 1.391 . S
C409 H381 0.930 . S
C409 C408 1.390 1_545 S
C409 C410 1.392 . S
C410 H382 0.929 . S
C410 C407 1.391 1_545 S
C410 C409 1.392 . S
N411 Co355 2.257 . S
N411 C408 1.391 . S
N411 C412 1.388 . S
C412 H383 0.930 . S
C412 C407 1.391 . S
C412 N411 1.388 . S
Co413 O415 2.143 . S
Co413 O421 2.074 . S
Co413 O424 2.093 . S
Co413 O437 2.097 . S
Co413 N454 2.151 . S
Co413 N462 2.214 . S
Co414 O415 2.160 . S
Co414 O420 2.058 . S
Co414 O430 2.057 . S
Co414 O445 2.037 . S
Co414 N449 2.145 . S
Co414 N470 2.257 . S
O415 Co413 2.143 . S
O415 Co414 2.160 . S
C416 O417 1.278 . S
C416 O424 1.224 . S
O417 C416 1.278 . S
C418 O419 1.245 . S
C418 O430 1.232 . S
O419 C418 1.245 . S
O420 Co414 2.058 . S
O420 C446 1.269 . S
O421 Co413 2.074 . S
O421 C446 1.257 . S
H422 C447 0.930 . S
H423 C453 0.930 . S
O424 Co413 2.093 . S
O424 C416 1.224 . S
H425 C457 0.929 . S
H426 C459 0.930 . S
H427 C460 0.930 . S
H428 C458 0.929 . S
H429 C461 0.928 . S
O430 Co414 2.057 . S
O430 C418 1.232 . S
H431 C450 0.929 . S
H432 C451 0.929 . S
H433 C463 0.931 . S
H434 C455 0.929 . S
H435 C464 0.930 . S
H436 C456 0.931 . S
O437 Co413 2.097 . S
O437 C465 1.214 . S
H438 C466 0.929 . S
H439 C467 0.929 . S
H440 C468 0.930 . S
H441 C469 0.929 . S
H442 C471 0.930 . S
H443 C448 0.930 . S
H444 C452 0.930 . S
O445 Co414 2.037 . S
O445 C465 1.234 . S
C446 O420 1.269 . S
C446 O421 1.257 . S
C447 H422 0.930 . S
C447 C450 1.388 . S
C447 C452 1.418 . S
C448 H443 0.930 . S
C448 C451 1.404 . S
C448 C452 1.353 . S
N449 Co414 2.145 . S
N449 C450 1.397 . S
N449 C451 1.334 . S
C450 H431 0.929 . S
C450 C447 1.388 . S
C450 N449 1.397 . S
C451 H432 0.929 . S
C451 C448 1.404 . S
C451 N449 1.334 . S
C452 H444 0.930 . S
C452 C447 1.418 . S
C452 C448 1.353 . S
C453 H423 0.930 . S
C453 N454 1.330 . S
C453 C455 1.446 . S
N454 Co413 2.151 . S
N454 C453 1.330 . S
N454 C458 1.418 . S
C455 H434 0.929 . S
C455 C453 1.446 . S
C455 C456 1.332 . S
C456 H436 0.931 . S
C456 C455 1.332 . S
C456 C457 1.267 . S
C457 H425 0.929 . S
C457 C456 1.267 . S
C457 C458 1.251 . S
C458 H428 0.929 . S
C458 N454 1.418 . S
C458 C457 1.251 . S
C459 H426 0.930 . S
C459 C461 1.406 1_545 S
C459 C464 1.261 . S
C460 H427 0.930 . S
C460 N462 1.325 . S
C460 C463 1.357 1_565 S
C461 H429 0.928 . S
C461 C459 1.406 1_565 S
C461 N462 1.261 . S
N462 Co413 2.214 . S
N462 C460 1.325 . S
N462 C461 1.261 . S
C463 H433 0.931 . S
C463 C460 1.357 1_545 S
C463 C464 1.312 . S
C464 H435 0.930 . S
C464 C459 1.261 . S
C464 C463 1.312 . S
C465 O437 1.214 . S
C465 O445 1.234 . S
C466 H438 0.929 . S
C466 C469 1.391 . S
C466 C471 1.391 . S
C467 H439 0.929 . S
C467 C468 1.390 . S
C467 N470 1.391 . S
C468 H440 0.930 . S
C468 C467 1.390 . S
C468 C469 1.392 . S
C469 H441 0.929 . S
C469 C466 1.391 . S
C469 C468 1.392 . S
N470 Co414 2.257 . S
N470 C467 1.391 . S
N470 C471 1.388 . S
C471 H442 0.930 . S
C471 C466 1.391 . S
C471 N470 1.388 . S
H472 C478 0.930 . S
H473 C481 0.930 . S
H474 C482 0.930 1_556 S
H475 C483 0.930 . S
H476 C486 0.930 . S
H477 C487 0.930 1_554 S
C478 H472 0.930 . S
C478 C479 1.355 . S
C478 C480 1.415 . S
C479 C478 1.355 . S
C479 C481 1.419 . S
C480 C478 1.415 . S
C480 C485 1.425 1_554 S
C480 C487 1.409 1_554 S
C481 H473 0.930 . S
C481 C479 1.419 . S
C481 C482 1.362 . S
C482 H474 0.930 1_554 S
C482 C481 1.362 . S
C482 C485 1.409 1_554 S
C483 H475 0.930 . S
C483 C484 1.355 . S
C483 C485 1.415 . S
C484 C483 1.355 . S
C484 C486 1.419 . S
C485 C480 1.425 1_556 S
C485 C482 1.409 1_556 S
C485 C483 1.415 . S
C486 H476 0.930 . S
C486 C484 1.419 . S
C486 C487 1.362 . S
C487 H477 0.930 1_556 S
C487 C480 1.409 1_556 S
C487 C486 1.362 . S
H488 C494 0.930 . S
H489 C497 0.930 . S
H490 C498 0.930 . S
H491 C499 0.930 . S
H492 C502 0.930 . S
H493 C503 0.930 . S
C494 H488 0.930 . S
C494 C495 1.355 . S
C494 C496 1.415 . S
C495 C494 1.355 . S
C495 C497 1.419 . S
C496 C494 1.415 . S
C496 C501 1.425 . S
C496 C503 1.409 . S
C497 H489 0.930 . S
C497 C495 1.419 . S
C497 C498 1.362 . S
C498 H490 0.930 . S
C498 C497 1.362 . S
C498 C501 1.409 . S
C499 H491 0.930 . S
C499 C500 1.355 . S
C499 C501 1.415 . S
C500 C499 1.355 . S
C500 C502 1.419 . S
C501 C496 1.425 . S
C501 C498 1.409 . S
C501 C499 1.415 . S
C502 H492 0.930 . S
C502 C500 1.419 . S
C502 C503 1.362 . S
C503 H493 0.930 . S
C503 C496 1.409 . S
C503 C502 1.362 . S
H504 C510 0.930 . S
H505 C513 0.930 . S
H506 C514 0.930 . S
H507 C515 0.930 . S
H508 C518 0.930 . S
H509 C519 0.930 . S
C510 H504 0.930 . S
C510 C511 1.355 . S
C510 C512 1.415 . S
C511 C510 1.355 . S
C511 C513 1.419 . S
C512 C510 1.415 . S
C512 C517 1.425 1_554 S
C512 C519 1.409 1_554 S
C513 H505 0.930 . S
C513 C511 1.419 . S
C513 C514 1.362 . S
C514 H506 0.930 . S
C514 C513 1.362 . S
C514 C517 1.409 1_554 S
C515 H507 0.930 . S
C515 C516 1.355 . S
C515 C517 1.415 . S
C516 C515 1.355 . S
C516 C518 1.419 . S
C517 C512 1.425 1_556 S
C517 C514 1.409 1_556 S
C517 C515 1.415 . S
C518 H508 0.930 . S
C518 C516 1.419 . S
C518 C519 1.362 . S
C519 H509 0.930 . S
C519 C512 1.409 1_556 S
C519 C518 1.362 . S
H520 C526 0.930 . S
H521 C529 0.930 . S
H522 C530 0.930 . S
H523 C531 0.930 . S
H524 C534 0.930 . S
H525 C535 0.930 . S
C526 H520 0.930 . S
C526 C527 1.355 . S
C526 C528 1.415 . S
C527 C526 1.355 . S
C527 C529 1.419 . S
C528 C526 1.415 . S
C528 C533 1.425 . S
C528 C535 1.409 . S
C529 H521 0.930 . S
C529 C527 1.419 . S
C529 C530 1.362 . S
C530 H522 0.930 . S
C530 C529 1.362 . S
C530 C533 1.409 . S
C531 H523 0.930 . S
C531 C532 1.355 . S
C531 C533 1.415 . S
C532 C531 1.355 . S
C532 C534 1.419 . S
C533 C528 1.425 . S
C533 C530 1.409 . S
C533 C531 1.415 . S
C534 H524 0.930 . S
C534 C532 1.419 . S
C534 C535 1.362 . S
C535 H525 0.930 . S
C535 C528 1.409 . S
C535 C534 1.362 . S
H536 C542 0.930 . S
H537 C545 0.930 . S
H538 C546 0.930 . S
H539 C547 0.930 . S
H540 C550 0.930 . S
H541 C551 0.930 . S
C542 H536 0.930 . S
C542 C543 1.355 . S
C542 C544 1.415 . S
C543 C542 1.355 . S
C543 C545 1.419 . S
C544 C542 1.415 . S
C544 C549 1.425 . S
C544 C551 1.409 . S
C545 H537 0.930 . S
C545 C543 1.419 . S
C545 C546 1.362 . S
C546 H538 0.930 . S
C546 C545 1.362 . S
C546 C549 1.409 . S
C547 H539 0.930 . S
C547 C548 1.355 . S
C547 C549 1.415 . S
C548 C547 1.355 . S
C548 C550 1.419 . S
C549 C544 1.425 . S
C549 C546 1.409 . S
C549 C547 1.415 . S
C550 H540 0.930 . S
C550 C548 1.419 . S
C550 C551 1.362 . S
C551 H541 0.930 . S
C551 C544 1.409 . S
C551 C550 1.362 . S
H552 C558 0.930 . S
H553 C561 0.930 . S
H554 C562 0.930 . S
H555 C563 0.930 . S
H556 C566 0.930 . S
H557 C567 0.930 . S
C558 H552 0.930 . S
C558 C559 1.355 . S
C558 C560 1.415 . S
C559 C558 1.355 . S
C559 C561 1.419 . S
C560 C558 1.415 . S
C560 C565 1.425 . S
C560 C567 1.409 . S
C561 H553 0.930 . S
C561 C559 1.419 . S
C561 C562 1.362 . S
C562 H554 0.930 . S
C562 C561 1.362 . S
C562 C565 1.409 . S
C563 H555 0.930 . S
C563 C564 1.355 . S
C563 C565 1.415 1_545 S
C564 C563 1.355 . S
C564 C566 1.419 . S
C565 C560 1.425 . S
C565 C562 1.409 . S
C565 C563 1.415 1_565 S
C566 H556 0.930 . S
C566 C564 1.419 . S
C566 C567 1.362 1_545 S
C567 H557 0.930 . S
C567 C560 1.409 . S
C567 C566 1.362 1_565 S
H568 C574 0.930 . S
H569 C577 0.930 . S
H570 C578 0.930 . S
H571 C579 0.930 . S
H572 C582 0.930 . S
H573 C583 0.930 . S
C574 H568 0.930 . S
C574 C575 1.355 . S
C574 C576 1.415 . S
C575 C574 1.355 . S
C575 C577 1.419 . S
C576 C574 1.415 . S
C576 C581 1.425 . S
C576 C583 1.409 . S
C577 H569 0.930 . S
C577 C575 1.419 . S
C577 C578 1.362 . S
C578 H570 0.930 . S
C578 C577 1.362 . S
C578 C581 1.409 . S
C579 H571 0.930 . S
C579 C580 1.355 . S
C579 C581 1.415 . S
C580 C579 1.355 . S
C580 C582 1.419 . S
C581 C576 1.425 . S
C581 C578 1.409 . S
C581 C579 1.415 . S
C582 H572 0.930 . S
C582 C580 1.419 . S
C582 C583 1.362 . S
C583 H573 0.930 . S
C583 C576 1.409 . S
C583 C582 1.362 . S
H584 C590 0.930 . S
H585 C593 0.930 . S
H586 C594 0.930 . S
H587 C595 0.930 . S
H588 C598 0.930 . S
H589 C599 0.930 . S
C590 H584 0.930 . S
C590 C591 1.355 . S
C590 C592 1.415 . S
C591 C590 1.355 . S
C591 C593 1.419 . S
C592 C590 1.415 . S
C592 C597 1.425 . S
C592 C599 1.409 1_545 S
C593 H585 0.930 . S
C593 C591 1.419 . S
C593 C594 1.362 . S
C594 H586 0.930 . S
C594 C593 1.362 . S
C594 C597 1.409 . S
C595 H587 0.930 . S
C595 C596 1.355 . S
C595 C597 1.415 1_565 S
C596 C595 1.355 . S
C596 C598 1.419 . S
C597 C592 1.425 . S
C597 C594 1.409 . S
C597 C595 1.415 1_545 S
C598 H588 0.930 . S
C598 C596 1.419 . S
C598 C599 1.362 . S
C599 H589 0.930 . S
C599 C592 1.409 1_565 S
C599 C598 1.362 . S
H600 C606 0.930 . S
H601 C609 0.930 . S
H602 C610 0.930 . S
H603 C611 0.930 . S
H604 C614 0.930 . S
H605 C615 0.930 . S
C606 H600 0.930 . S
C606 C607 1.355 . S
C606 C608 1.415 . S
C607 C606 1.355 . S
C607 C609 1.419 . S
C608 C606 1.415 . S
C608 C613 1.425 . S
C608 C615 1.409 1_655 S
C609 H601 0.930 . S
C609 C607 1.419 . S
C609 C610 1.362 . S
C610 H602 0.930 . S
C610 C609 1.362 . S
C610 C613 1.409 . S
C611 H603 0.930 . S
C611 C612 1.355 . S
C611 C613 1.415 1_455 S
C612 C611 1.355 . S
C612 C614 1.419 . S
C613 C608 1.425 . S
C613 C610 1.409 . S
C613 C611 1.415 1_655 S
C614 H604 0.930 . S
C614 C612 1.419 . S
C614 C615 1.362 . S
C615 H605 0.930 . S
C615 C608 1.409 1_455 S
C615 C614 1.362 . S
H616 C622 0.930 . S
H617 C625 0.930 . S
H618 C626 0.930 . S
H619 C627 0.930 . S
H620 C630 0.930 . S
H621 C631 0.930 . S
C622 H616 0.930 . S
C622 C623 1.355 . S
C622 C624 1.415 . S
C623 C622 1.355 . S
C623 C625 1.419 . S
C624 C622 1.415 . S
C624 C629 1.425 . S
C624 C631 1.409 . S
C625 H617 0.930 . S
C625 C623 1.419 . S
C625 C626 1.362 . S
C626 H618 0.930 . S
C626 C625 1.362 . S
C626 C629 1.409 . S
C627 H619 0.930 . S
C627 C628 1.355 . S
C627 C629 1.415 . S
C628 C627 1.355 . S
C628 C630 1.419 . S
C629 C624 1.425 . S
C629 C626 1.409 . S
C629 C627 1.415 . S
C630 H620 0.930 . S
C630 C628 1.419 . S
C630 C631 1.362 . S
C631 H621 0.930 . S
C631 C624 1.409 . S
C631 C630 1.362 . S
H632 C638 0.930 . S
H633 C641 0.930 . S
H634 C642 0.930 . S
H635 C643 0.930 . S
H636 C646 0.930 . S
H637 C647 0.930 . S
C638 H632 0.930 . S
C638 C639 1.355 . S
C638 C640 1.415 . S
C639 C638 1.355 . S
C639 C641 1.419 . S
C640 C638 1.415 . S
C640 C645 1.425 . S
C640 C647 1.409 1_455 S
C641 H633 0.930 . S
C641 C639 1.419 . S
C641 C642 1.362 . S
C642 H634 0.930 . S
C642 C641 1.362 . S
C642 C645 1.409 . S
C643 H635 0.930 . S
C643 C644 1.355 . S
C643 C645 1.415 1_655 S
C644 C643 1.355 . S
C644 C646 1.419 . S
C645 C640 1.425 . S
C645 C642 1.409 . S
C645 C643 1.415 1_455 S
C646 H636 0.930 . S
C646 C644 1.419 . S
C646 C647 1.362 . S
C647 H637 0.930 . S
C647 C640 1.409 1_655 S
C647 C646 1.362 . S
H648 C654 0.930 . S
H649 C657 0.930 . S
H650 C658 0.930 . S
H651 C659 0.930 . S
H652 C662 0.930 . S
H653 C663 0.930 . S
C654 H648 0.930 . S
C654 C655 1.355 . S
C654 C656 1.415 . S
C655 C654 1.355 . S
C655 C657 1.419 . S
C656 C654 1.415 . S
C656 C661 1.425 . S
C656 C663 1.409 . S
C657 H649 0.930 . S
C657 C655 1.419 . S
C657 C658 1.362 . S
C658 H650 0.930 . S
C658 C657 1.362 . S
C658 C661 1.409 . S
C659 H651 0.930 . S
C659 C660 1.355 . S
C659 C661 1.415 . S
C660 C659 1.355 . S
C660 C662 1.419 . S
C661 C656 1.425 . S
C661 C658 1.409 . S
C661 C659 1.415 . S
C662 H652 0.930 . S
C662 C660 1.419 . S
C662 C663 1.362 . S
C663 H653 0.930 . S
C663 C656 1.409 . S
C663 C662 1.362 . S
H664 C670 0.930 . S
H665 C673 0.930 . S
H666 C674 0.930 . S
H667 C675 0.930 . S
H668 C678 0.930 . S
H669 C679 0.930 . S
C670 H664 0.930 . S
C670 C671 1.355 . S
C670 C672 1.415 . S
C671 C670 1.355 . S
C671 C673 1.419 . S
C672 C670 1.415 . S
C672 C677 1.425 1_655 S
C672 C679 1.409 1_655 S
C673 H665 0.930 . S
C673 C671 1.419 . S
C673 C674 1.362 . S
C674 H666 0.930 . S
C674 C673 1.362 . S
C674 C677 1.409 1_655 S
C675 H667 0.930 . S
C675 C676 1.355 . S
C675 C677 1.415 . S
C676 C675 1.355 . S
C676 C678 1.419 . S
C677 C672 1.425 1_455 S
C677 C674 1.409 1_455 S
C677 C675 1.415 . S
C678 H668 0.930 . S
C678 C676 1.419 . S
C678 C679 1.362 . S
C679 H669 0.930 . S
C679 C672 1.409 1_455 S
C679 C678 1.362 . S
H680 C686 0.930 . S
H681 C689 0.930 . S
H682 C690 0.934 . S
H683 C691 0.930 . S
H684 C694 0.930 . S
H685 C695 0.934 . S
C686 H680 0.930 . S
C686 C687 1.355 . S
C686 C688 1.415 . S
C687 C686 1.355 . S
C687 C689 1.419 . S
C688 C686 1.415 . S
C688 C693 1.425 1_655 S
C688 C695 1.409 1_655 S
C689 H681 0.930 . S
C689 C687 1.419 . S
C689 C690 1.362 . S
C690 H682 0.934 . S
C690 C689 1.362 . S
C690 C693 1.409 1_655 S
C691 H683 0.930 . S
C691 C692 1.355 . S
C691 C693 1.415 . S
C692 C691 1.355 . S
C692 C694 1.419 . S
C693 C688 1.425 1_455 S
C693 C690 1.409 1_455 S
C693 C691 1.415 . S
C694 H684 0.930 . S
C694 C692 1.419 . S
C694 C695 1.362 . S
C695 H685 0.934 . S
C695 C688 1.409 1_455 S
C695 C694 1.362 . S
H696 C702 0.930 . S
H697 C705 0.930 . S
H698 C706 0.930 . S
H699 C707 0.930 . S
H700 C710 0.930 . S
H701 C711 0.930 . S
C702 H696 0.930 . S
C702 C703 1.355 . S
C702 C704 1.415 . S
C703 C702 1.355 . S
C703 C705 1.419 1_545 S
C704 C702 1.415 . S
C704 C709 1.425 1_545 S
C704 C711 1.409 . S
C705 H697 0.930 . S
C705 C703 1.419 1_565 S
C705 C706 1.362 . S
C706 H698 0.930 . S
C706 C705 1.362 . S
C706 C709 1.409 . S
C707 H699 0.930 . S
C707 C708 1.355 . S
C707 C709 1.415 . S
C708 C707 1.355 . S
C708 C710 1.419 1_565 S
C709 C704 1.425 1_565 S
C709 C706 1.409 . S
C709 C707 1.415 . S
C710 H700 0.930 . S
C710 C708 1.419 1_545 S
C710 C711 1.362 . S
C711 H701 0.930 . S
C711 C704 1.409 . S
C711 C710 1.362 . S
H712 C718 0.930 . S
H713 C721 0.930 . S
H714 C722 0.930 . S
H715 C723 0.930 . S
H716 C726 0.930 . S
H717 C727 0.930 . S
C718 H712 0.930 . S
C718 C719 1.355 . S
C718 C720 1.415 . S
C719 C718 1.355 . S
C719 C721 1.419 . S
C720 C718 1.415 . S
C720 C725 1.425 1_545 S
C720 C727 1.409 . S
C721 H713 0.930 . S
C721 C719 1.419 . S
C721 C722 1.362 1_545 S
C722 H714 0.930 . S
C722 C721 1.362 1_565 S
C722 C725 1.409 . S
C723 H715 0.930 . S
C723 C724 1.355 . S
C723 C725 1.415 . S
C724 C723 1.355 . S
C724 C726 1.419 . S
C725 C720 1.425 1_565 S
C725 C722 1.409 . S
C725 C723 1.415 . S
C726 H716 0.930 . S
C726 C724 1.419 . S
C726 C727 1.362 1_565 S
C727 H717 0.930 . S
C727 C720 1.409 . S
C727 C726 1.362 1_545 S
C479 C3 1.448 . S
C484 C298 1.454 . S
C495 C62 1.462 . S
C500 C357 1.477 . S
C511 C121 1.450 . S
C516 C416 1.461 . S
C527 C239 1.456 . S
C532 C180 1.448 . S
C543 C5 1.622 . S
C548 C269 1.634 . S
C559 C64 1.628 . S
C564 C328 1.607 . S
C575 C387 1.610 . S
C580 C123 1.636 . S
C591 C182 1.623 . S
C596 C446 1.617 . S
C607 C241 1.624 . S
C612 C33 1.634 . S
C623 C92 1.633 . S
C628 C300 1.626 . S
C639 C359 1.620 . S
C644 C151 1.627 . S
C655 C210 1.605 . S
C660 C418 1.635 . S
C671 C170 0.947 . S
C676 C52 0.927 . S
C687 C229 0.928 . S
C692 C111 0.907 . S
C703 C288 0.961 . S
C708 C406 0.945 . S
C719 C347 0.887 . S
C724 C465 0.900 . S
