# Generated by pormake.
# Topology npo, (4)-cn, num edge types: 1
# Building blocks:
#     Node 0, Type 0, BuildingBlock: ICAMEG_clean_sbu_1, # of connection points: 4
#     Node 1, Type 0, BuildingBlock: ICAMEG_clean_sbu_1, # of connection points: 4
#     Node 2, Type 0, BuildingBlock: ICAMEG_clean_sbu_1, # of connection points: 4
#     Node 3, Type 0, BuildingBlock: ICAMEG_clean_sbu_1, # of connection points: 4
#     Node 4, Type 0, BuildingBlock: ICAMEG_clean_sbu_1, # of connection points: 4
#     Node 5, Type 0, BuildingBlock: ICAMEG_clean_sbu_1, # of connection points: 4
#     Edge 6, Type (0, 0), BuildingBlock: FUNLAD_clean_linker_0, # of connection points: 2
#     Edge 7, Type (0, 0), BuildingBlock: FUNLAD_clean_linker_0, # of connection points: 2
#     Edge 8, Type (0, 0), BuildingBlock: FUNLAD_clean_linker_0, # of connection points: 2
#     Edge 9, Type (0, 0), BuildingBlock: FUNLAD_clean_linker_0, # of connection points: 2
#     Edge 10, Type (0, 0), BuildingBlock: FUNLAD_clean_linker_0, # of connection points: 2
#     Edge 11, Type (0, 0), BuildingBlock: FUNLAD_clean_linker_0, # of connection points: 2
#     Edge 12, Type (0, 0), BuildingBlock: FUNLAD_clean_linker_0, # of connection points: 2
#     Edge 13, Type (0, 0), BuildingBlock: FUNLAD_clean_linker_0, # of connection points: 2
#     Edge 14, Type (0, 0), BuildingBlock: FUNLAD_clean_linker_0, # of connection points: 2
#     Edge 15, Type (0, 0), BuildingBlock: FUNLAD_clean_linker_0, # of connection points: 2
#     Edge 16, Type (0, 0), BuildingBlock: FUNLAD_clean_linker_0, # of connection points: 2
#     Edge 17, Type (0, 0), BuildingBlock: FUNLAD_clean_linker_0, # of connection points: 2
# Relax obj value: 0.244
# Max RMSD: 0.245
# Mean RMSD: 0.244
data_MOF--net-npo--node1-ICAMEG_clean_sbu_1--edge1-FUNLAD_clean_linker_0
_symmetry_space_group_name_H-M    P1
_symmetry_Int_Tables_number       1
_symmetry_cell_setting            triclinic
loop_
_symmetry_equiv_pos_as_xyz
'x, y, z'
_cell_length_a     53.358014
_cell_length_b     53.30616
_cell_length_c     29.956479
_cell_angle_alpha  90.183162
_cell_angle_beta   89.908647
_cell_angle_gamma 120.00399
loop_
_atom_site_label
_atom_site_type_symbol
_atom_site_fract_x
_atom_site_fract_y
_atom_site_fract_z
_atom_type_partial_charge
Co0 Co 0.57055 0.12282 0.19769 0.0
Co1 Co 0.55651 0.1231 0.31112 0.0
O2 O 0.55407 0.10261 0.25473 0.0
C3 C 0.50949 0.07854 0.17087 0.0
O4 O 0.49923 0.07969 0.2102 0.0
C5 C 0.57172 0.07739 0.3398 0.0
O6 O 0.57402 0.07024 0.29867 0.0
O7 O 0.59906 0.14981 0.3033 0.0
O8 O 0.60546 0.15279 0.22913 0.0
H9 H 0.58663 0.21169 0.40571 0.0
H10 H 0.55005 0.06006 0.20378 0.0
O11 O 0.53643 0.09355 0.16265 0.0
H12 H 0.65398 0.10593 0.16808 0.0
H13 H 0.59573 0.1291 0.03432 0.0
H14 H 0.6014 0.18443 0.16989 0.0
H15 H 0.63052 0.13547 0.17623 0.0
H16 H 0.57513 0.10393 0.10539 0.0
O17 O 0.56505 0.0968 0.34769 0.0
H18 H 0.58312 0.18502 0.33643 0.0
H19 H 0.53491 0.10488 0.40432 0.0
H20 H 0.62249 0.21046 0.09958 0.0
H21 H 0.57252 0.0296 0.19522 0.0
H22 H 0.61972 0.18276 0.03113 0.0
H23 H 0.62489 0.05255 0.17742 0.0
O24 O 0.55175 0.14703 0.20454 0.0
H25 H 0.4652 0.02606 0.31281 0.0
H26 H 0.50659 0.13111 0.33499 0.0
H27 H 0.45405 0.09858 0.34368 0.0
H28 H 0.43302 0.04559 0.33277 0.0
H29 H 0.51752 0.05944 0.30378 0.0
H30 H 0.53817 0.13071 0.4744 0.0
H31 H 0.56407 0.1845 0.47536 0.0
O32 O 0.54819 0.15049 0.27863 0.0
C33 C 0.61476 0.16067 0.26866 0.0
C34 C 0.57522 0.18825 0.40569 0.0
C35 C 0.54805 0.1428 0.44426 0.0
N36 N 0.55867 0.14342 0.36619 0.0
C37 C 0.57309 0.17302 0.36653 0.0
C38 C 0.54635 0.12829 0.40447 0.0
C39 C 0.56258 0.17298 0.44477 0.0
C40 C 0.57279 0.07017 0.19565 0.0
N41 N 0.58895 0.09952 0.19057 0.0
C42 C 0.58542 0.05283 0.19102 0.0
C43 C 0.61482 0.06573 0.1811 0.0
C44 C 0.63115 0.09567 0.17592 0.0
C45 C 0.61778 0.11233 0.18083 0.0
C46 C 0.59709 0.14141 0.06393 0.0
C47 C 0.6002 0.17221 0.14031 0.0
C48 C 0.5854 0.12728 0.10427 0.0
N49 N 0.58713 0.14269 0.14185 0.0
C50 C 0.61214 0.18708 0.10056 0.0
C51 C 0.61056 0.17152 0.06216 0.0
C52 C 0.54597 0.15746 0.23889 0.0
C53 C 0.47411 0.0491 0.31783 0.0
C54 C 0.49761 0.10815 0.32985 0.0
C55 C 0.46784 0.0898 0.33501 0.0
C56 C 0.45606 0.06007 0.32894 0.0
N57 N 0.51522 0.09723 0.31911 0.0
C58 C 0.50379 0.06811 0.313 0.0
Co59 Co 0.4443 0.56281 0.70334 0.0
Co60 Co 0.43577 0.56304 0.81683 0.0
O61 O 0.4499 0.55211 0.76379 0.0
C62 C 0.41995 0.50727 0.65391 0.0
O63 O 0.39662 0.50921 0.64761 0.0
C64 C 0.49627 0.57962 0.84546 0.0
O65 O 0.50674 0.58949 0.80559 0.0
O66 O 0.45772 0.60451 0.79883 0.0
O67 O 0.44892 0.60041 0.72525 0.0
H68 H 0.3938 0.61616 0.89824 0.0
H69 H 0.48842 0.54547 0.7181 0.0
O70 O 0.4402 0.52561 0.67908 0.0
H71 H 0.54237 0.64497 0.65909 0.0
H72 H 0.45956 0.5736 0.53671 0.0
H73 H 0.40985 0.58727 0.66543 0.0
H74 H 0.48951 0.62074 0.66929 0.0
H75 H 0.46687 0.56071 0.61262 0.0
O76 O 0.46933 0.56818 0.85328 0.0
H77 H 0.41115 0.60138 0.83243 0.0
H78 H 0.43114 0.54867 0.91397 0.0
H79 H 0.40202 0.60057 0.5901 0.0
H80 H 0.54125 0.56876 0.70782 0.0
H81 H 0.42696 0.59374 0.52507 0.0
H82 H 0.5686 0.6189 0.67824 0.0
O83 O 0.40162 0.54376 0.71382 0.0
H84 H 0.42373 0.46466 0.84362 0.0
H85 H 0.37505 0.52259 0.84658 0.0
H86 H 0.3476 0.47091 0.8668 0.0
H87 H 0.37199 0.44158 0.86556 0.0
H88 H 0.45029 0.5164 0.82316 0.0
H89 H 0.4142 0.56306 0.98069 0.0
H90 H 0.39525 0.59696 0.97304 0.0
O91 O 0.4012 0.55803 0.78394 0.0
C92 C 0.45729 0.61535 0.7611 0.0
C93 C 0.40195 0.60133 0.90199 0.0
C94 C 0.41343 0.57156 0.94827 0.0
N95 N 0.42203 0.57407 0.86926 0.0
C96 C 0.41177 0.59285 0.86483 0.0
C97 C 0.42306 0.56354 0.91036 0.0
C98 C 0.40279 0.59057 0.94395 0.0
C99 C 0.50012 0.56719 0.7048 0.0
N100 N 0.48584 0.58165 0.69414 0.0
C101 C 0.53006 0.58031 0.69923 0.0
C102 C 0.54539 0.60846 0.6827 0.0
C103 C 0.5307 0.62311 0.67199 0.0
C104 C 0.50076 0.60931 0.67802 0.0
C105 C 0.44856 0.57668 0.56477 0.0
C106 C 0.42079 0.58424 0.63733 0.0
C107 C 0.45259 0.56939 0.60784 0.0
N108 N 0.43878 0.5732 0.64348 0.0
C109 C 0.41628 0.59181 0.59473 0.0
C110 C 0.43027 0.58798 0.55827 0.0
C111 C 0.38864 0.54726 0.74698 0.0
C112 C 0.41288 0.47722 0.84436 0.0
C113 C 0.38578 0.50996 0.84566 0.0
C114 C 0.37014 0.48071 0.85731 0.0
C115 C 0.38384 0.46428 0.85663 0.0
N116 N 0.41428 0.52252 0.8338 0.0
C117 C 0.42782 0.50653 0.83292 0.0
Co118 Co 0.87641 0.441 0.33213 0.0
Co119 Co 0.88444 0.44949 0.21835 0.0
O120 O 0.90084 0.4547 0.2786 0.0
C121 C 0.92006 0.50192 0.35828 0.0
O122 O 0.91865 0.51143 0.31852 0.0
C123 C 0.91417 0.42459 0.16672 0.0
O124 O 0.88847 0.40215 0.15883 0.0
O125 O 0.85963 0.40681 0.22849 0.0
O126 O 0.84673 0.40614 0.29986 0.0
H127 H 0.80404 0.40928 0.10533 0.0
H128 H 0.93777 0.45606 0.3371 0.0
O129 O 0.90528 0.4751 0.36744 0.0
H130 H 0.88166 0.35363 0.38254 0.0
H131 H 0.85707 0.42115 0.49663 0.0
H132 H 0.81357 0.41564 0.34922 0.0
H133 H 0.85691 0.38061 0.36261 0.0
H134 H 0.88751 0.43768 0.42908 0.0
O135 O 0.9167 0.4442 0.194 0.0
H136 H 0.8253 0.41638 0.18052 0.0
H137 H 0.90912 0.47204 0.12765 0.0
H138 H 0.78231 0.39866 0.41586 0.0
H139 H 0.96346 0.42998 0.35723 0.0
H140 H 0.80404 0.40136 0.49025 0.0
H141 H 0.93534 0.37836 0.38008 0.0
O142 O 0.85623 0.46246 0.31462 0.0
H143 H 0.97728 0.54497 0.22333 0.0
H144 H 0.87361 0.49609 0.18486 0.0
H145 H 0.90361 0.54891 0.1751 0.0
H146 H 0.9559 0.5737 0.19421 0.0
H147 H 0.94637 0.49222 0.23322 0.0
H148 H 0.88875 0.46546 0.05189 0.0
H149 H 0.83584 0.43389 0.04034 0.0
O150 O 0.85239 0.45522 0.24057 0.0
C151 C 0.84373 0.39385 0.26219 0.0
C152 C 0.82713 0.42307 0.10993 0.0
C153 C 0.87466 0.45461 0.07993 0.0
N154 N 0.86843 0.44456 0.15855 0.0
C155 C 0.8393 0.42718 0.15244 0.0
C156 C 0.88607 0.45824 0.12293 0.0
C157 C 0.84498 0.43689 0.07348 0.0
C158 C 0.92541 0.43365 0.34725 0.0
N159 N 0.89589 0.41991 0.3488 0.0
C160 C 0.94006 0.41897 0.35851 0.0
C161 C 0.92427 0.39001 0.37129 0.0
C162 C 0.89415 0.37611 0.37264 0.0
C163 C 0.88025 0.39148 0.36115 0.0
C164 C 0.84734 0.41985 0.4644 0.0
C165 C 0.82319 0.41681 0.38144 0.0
C166 C 0.86448 0.42926 0.42604 0.0
N167 N 0.85233 0.42756 0.38518 0.0
C168 C 0.80538 0.40719 0.41907 0.0
C169 C 0.81759 0.40873 0.4608 0.0
C170 C 0.84534 0.4627 0.27681 0.0
C171 C 0.95455 0.5344 0.21476 0.0
C172 C 0.89626 0.50671 0.19361 0.0
C173 C 0.91319 0.53663 0.18781 0.0
C174 C 0.94253 0.55052 0.19849 0.0
N175 N 0.90822 0.49102 0.20945 0.0
C176 C 0.93696 0.50451 0.22009 0.0
Co177 Co 0.44732 0.87962 0.81112 0.0
Co178 Co 0.42912 0.87757 0.70033 0.0
O179 O 0.44804 0.89934 0.75512 0.0
C180 C 0.42911 0.92154 0.84432 0.0
O181 O 0.41302 0.9172 0.80884 0.0
C182 C 0.48744 0.91917 0.66085 0.0
O183 O 0.50111 0.91464 0.69347 0.0
O184 O 0.45066 0.85583 0.70357 0.0
O185 O 0.45097 0.84944 0.7774 0.0
H186 H 0.37757 0.78764 0.60614 0.0
H187 H 0.48875 0.94218 0.80023 0.0
O188 O 0.44409 0.90915 0.8482 0.0
H189 H 0.54905 0.89755 0.8268 0.0
H190 H 0.47438 0.87486 0.97071 0.0
H191 H 0.41813 0.81827 0.84013 0.0
H192 H 0.49583 0.8677 0.82604 0.0
H193 H 0.47535 0.89936 0.90053 0.0
O194 O 0.46001 0.90758 0.66142 0.0
H195 H 0.40128 0.81567 0.6741 0.0
H196 H 0.41637 0.8932 0.61078 0.0
H197 H 0.41676 0.7929 0.90955 0.0
H198 H 0.54194 0.97295 0.80112 0.0
H199 H 0.44502 0.82124 0.9755 0.0
H200 H 0.57245 0.95061 0.81439 0.0
O201 O 0.40409 0.85512 0.80895 0.0
H202 H 0.42006 0.96687 0.70542 0.0
H203 H 0.36699 0.86068 0.68759 0.0
H204 H 0.34017 0.8872 0.68604 0.0
H205 H 0.36675 0.94072 0.69487 0.0
H206 H 0.44599 0.93938 0.7073 0.0
H207 H 0.39298 0.86602 0.54204 0.0
H208 H 0.37331 0.81282 0.53944 0.0
O209 O 0.39711 0.84674 0.73554 0.0
C210 C 0.45449 0.84363 0.73743 0.0
C211 C 0.38605 0.8108 0.60685 0.0
C212 C 0.39471 0.85479 0.57087 0.0
N213 N 0.41024 0.85606 0.64645 0.0
C214 C 0.39949 0.82681 0.64525 0.0
C215 C 0.40801 0.87008 0.60986 0.0
C216 C 0.38367 0.82495 0.56944 0.0
C217 C 0.5019 0.93235 0.80628 0.0
N218 N 0.48919 0.90318 0.81314 0.0
C219 C 0.532 0.94986 0.80663 0.0
C220 C 0.54911 0.93731 0.81403 0.0
C221 C 0.53599 0.90754 0.82096 0.0
C222 C 0.50583 0.89071 0.82032 0.0
C223 C 0.46199 0.86227 0.9422 0.0
C224 C 0.43058 0.83076 0.86861 0.0
C225 C 0.46238 0.87603 0.90239 0.0
N226 N 0.44687 0.86027 0.86617 0.0
C227 C 0.42968 0.81627 0.90787 0.0
C228 C 0.44552 0.83218 0.94486 0.0
C229 C 0.3882 0.84132 0.77565 0.0
C230 C 0.40824 0.94356 0.70146 0.0
C231 C 0.37869 0.88391 0.6918 0.0
C232 C 0.36339 0.89884 0.69069 0.0
C233 C 0.37832 0.92887 0.6956 0.0
N234 N 0.40804 0.89846 0.69753 0.0
C235 C 0.42282 0.9279 0.70234 0.0
Co236 Co 0.55608 0.43076 0.17429 0.0
Co237 Co 0.56265 0.44444 0.28806 0.0
O238 O 0.54978 0.44811 0.2281 0.0
C239 C 0.57826 0.49245 0.14497 0.0
O240 O 0.58823 0.50265 0.18496 0.0
C241 C 0.50997 0.42243 0.34378 0.0
O242 O 0.51288 0.39987 0.35236 0.0
O243 O 0.54374 0.40129 0.28146 0.0
O244 O 0.5471 0.39522 0.20798 0.0
H245 H 0.60588 0.4072 0.40059 0.0
H246 H 0.51578 0.45368 0.17281 0.0
O247 O 0.56496 0.46535 0.13732 0.0
H248 H 0.45682 0.351 0.12912 0.0
H249 H 0.54805 0.4058 0.01053 0.0
H250 H 0.58594 0.3975 0.15643 0.0
H251 H 0.50882 0.37229 0.14538 0.0
H252 H 0.53971 0.4272 0.07803 0.0
O253 O 0.52636 0.44096 0.31481 0.0
H254 H 0.58933 0.41199 0.32597 0.0
H255 H 0.56416 0.47044 0.37759 0.0
H256 H 0.59451 0.37554 0.08981 0.0
H257 H 0.4639 0.43344 0.15626 0.0
H258 H 0.57552 0.37964 0.01619 0.0
H259 H 0.43403 0.38171 0.13435 0.0
O260 O 0.59813 0.44799 0.18855 0.0
H261 H 0.56736 0.54084 0.27922 0.0
H262 H 0.62174 0.49116 0.31525 0.0
H263 H 0.6459 0.54434 0.32139 0.0
H264 H 0.61864 0.56953 0.30351 0.0
H265 H 0.54414 0.48771 0.27286 0.0
H266 H 0.58038 0.46622 0.45277 0.0
H267 H 0.60142 0.43441 0.46466 0.0
O268 O 0.59901 0.44836 0.26344 0.0
C269 C 0.54141 0.38556 0.24769 0.0
C270 C 0.5967 0.42109 0.39585 0.0
C271 C 0.58241 0.45422 0.42514 0.0
N272 N 0.57563 0.44134 0.34739 0.0
C273 C 0.58726 0.42387 0.35367 0.0
C274 C 0.57323 0.45649 0.38248 0.0
C275 C 0.59421 0.43637 0.43178 0.0
C276 C 0.50293 0.43117 0.16319 0.0
N277 N 0.51529 0.41412 0.16034 0.0
C278 C 0.47356 0.41982 0.15391 0.0
C279 C 0.45681 0.3908 0.14166 0.0
C280 C 0.46957 0.37355 0.13878 0.0
C281 C 0.499 0.38565 0.14833 0.0
C282 C 0.5564 0.40384 0.04243 0.0
C283 C 0.57745 0.39924 0.12456 0.0
C284 C 0.55183 0.41599 0.08077 0.0
N285 N 0.5622 0.41348 0.12123 0.0
C286 C 0.58244 0.38682 0.08693 0.0
C287 C 0.57181 0.38915 0.04563 0.0
C288 C 0.61116 0.4513 0.22569 0.0
C289 C 0.57944 0.5301 0.28725 0.0
C290 C 0.60977 0.50195 0.30706 0.0
C291 C 0.62355 0.53207 0.31079 0.0
C292 C 0.60823 0.54619 0.3008 0.0
N293 N 0.58149 0.48628 0.2939 0.0
C294 C 0.56637 0.5 0.28391 0.0
Co295 Co 0.12449 0.56035 0.69436 0.0
Co296 Co 0.11821 0.55862 0.80845 0.0
O297 O 0.10071 0.54925 0.74866 0.0
C298 C 0.08132 0.57912 0.67275 0.0
O299 O 0.08269 0.58877 0.71357 0.0
C300 C 0.08659 0.50247 0.85573 0.0
O301 O 0.11156 0.50354 0.86058 0.0
O302 O 0.14074 0.53886 0.7942 0.0
O303 O 0.15396 0.55355 0.72384 0.0
H304 H 0.20014 0.59248 0.91802 0.0
H305 H 0.06264 0.51528 0.68979 0.0
O306 O 0.09591 0.5672 0.66156 0.0
H307 H 0.11582 0.46762 0.63558 0.0
H308 H 0.1418 0.56253 0.52864 0.0
H309 H 0.18728 0.59708 0.67614 0.0
H310 H 0.14205 0.51893 0.65856 0.0
H311 H 0.11212 0.54794 0.59702 0.0
O312 O 0.08497 0.52147 0.83197 0.0
H313 H 0.1776 0.58102 0.84342 0.0
H314 H 0.09553 0.55564 0.90098 0.0
H315 H 0.21779 0.61199 0.60862 0.0
H316 H 0.03549 0.46397 0.66667 0.0
H317 H 0.19506 0.59468 0.53419 0.0
H318 H 0.06213 0.4398 0.63938 0.0
O319 O 0.14563 0.60155 0.71437 0.0
H320 H 0.02871 0.56732 0.81269 0.0
H321 H 0.13307 0.61639 0.84658 0.0
H322 H 0.10579 0.64159 0.86158 0.0
H323 H 0.05319 0.61698 0.84479 0.0
H324 H 0.05691 0.54306 0.79759 0.0
H325 H 0.11717 0.56672 0.9762 0.0
H326 H 0.16986 0.58531 0.98508 0.0
O327 O 0.15135 0.59614 0.78717 0.0
C328 C 0.15631 0.54229 0.75985 0.0
C329 C 0.17716 0.58439 0.91459 0.0
C330 C 0.1306 0.56993 0.94724 0.0
N331 N 0.13527 0.56765 0.86778 0.0
C332 C 0.16427 0.57786 0.87242 0.0
C333 C 0.11846 0.56367 0.90455 0.0
C334 C 0.16016 0.58036 0.9522 0.0
C335 C 0.07436 0.50494 0.67773 0.0
N336 N 0.10388 0.52012 0.67541 0.0
C337 C 0.05888 0.47587 0.66479 0.0
C338 C 0.07384 0.46231 0.64952 0.0
C339 C 0.10397 0.4779 0.6474 0.0
C340 C 0.11872 0.50694 0.66063 0.0
C341 C 0.15197 0.57019 0.56088 0.0
C342 C 0.17722 0.58936 0.6439 0.0
C343 C 0.13526 0.56207 0.59973 0.0
N344 N 0.14796 0.57154 0.6406 0.0
C345 C 0.19462 0.59792 0.60577 0.0
C346 C 0.18185 0.58822 0.56402 0.0
C347 C 0.15766 0.61163 0.75208 0.0
C348 C 0.05161 0.57823 0.82028 0.0
C349 C 0.11024 0.6056 0.83885 0.0
C350 C 0.09488 0.61994 0.8476 0.0
C351 C 0.06536 0.60612 0.83822 0.0
N352 N 0.09659 0.57821 0.82136 0.0
C353 C 0.06766 0.56455 0.81198 0.0
C354 C 0.52707 0.18833 0.27036 0.0
C355 C 0.53823 0.18045 0.23369 0.0
C356 C 0.52306 0.21223 0.26825 0.0
C357 C 0.53058 0.22932 0.22953 0.0
C358 C 0.54045 0.22066 0.19211 0.0
C359 C 0.54422 0.19649 0.19409 0.0
C360 C 0.52881 0.25634 0.22687 0.0
C361 C 0.52699 0.27086 0.26277 0.0
C362 C 0.52751 0.29905 0.25968 0.0
C363 C 0.53527 0.31724 0.29745 0.0
C364 C 0.53828 0.34489 0.29466 0.0
C365 C 0.53369 0.35491 0.25388 0.0
H366 H 0.51353 0.29478 0.19048 0.0
C367 C 0.52431 0.33601 0.21694 0.0
C368 C 0.52094 0.30841 0.21986 0.0
H369 H 0.5202 0.34272 0.1851 0.0
H370 H 0.52192 0.1764 0.30135 0.0
H371 H 0.51428 0.21717 0.29731 0.0
H372 H 0.54606 0.23314 0.16154 0.0
H373 H 0.55286 0.19108 0.16523 0.0
H374 H 0.53106 0.26547 0.19382 0.0
H375 H 0.52715 0.26309 0.29611 0.0
H376 H 0.53998 0.31044 0.32885 0.0
H377 H 0.54544 0.35881 0.32381 0.0
C378 C 0.34433 0.54441 0.78016 0.0
C379 C 0.35787 0.53961 0.74335 0.0
C380 C 0.31587 0.53858 0.77755 0.0
C381 C 0.2998 0.52742 0.7381 0.0
C382 C 0.31315 0.52235 0.7013 0.0
C383 C 0.34188 0.52831 0.70387 0.0
C384 C 0.27026 0.52352 0.73301 0.0
C385 C 0.25347 0.52225 0.76783 0.0
C386 C 0.2267 0.52434 0.76371 0.0
C387 C 0.20949 0.51986 0.80185 0.0
C388 C 0.18607 0.52484 0.80074 0.0
C389 C 0.1794 0.5345 0.76135 0.0
H390 H 0.23218 0.53774 0.69403 0.0
C391 C 0.19613 0.53817 0.72294 0.0
C392 C 0.21945 0.53329 0.72408 0.0
H393 H 0.19183 0.54566 0.69189 0.0
H394 H 0.35588 0.55334 0.81113 0.0
H395 H 0.30714 0.54394 0.80625 0.0
H396 H 0.30146 0.51415 0.67021 0.0
H397 H 0.35162 0.52446 0.67483 0.0
H398 H 0.26274 0.5225 0.69912 0.0
H399 H 0.25996 0.52059 0.80148 0.0
H400 H 0.21463 0.51318 0.83302 0.0
H401 H 0.17372 0.52185 0.83096 0.0
C402 C 0.66299 0.19501 0.23531 0.0
C403 C 0.64513 0.18461 0.27333 0.0
C404 C 0.69081 0.21895 0.23803 0.0
C405 C 0.70148 0.23347 0.27883 0.0
C406 C 0.68415 0.22245 0.31723 0.0
C407 C 0.65623 0.19831 0.31456 0.0
C408 C 0.73023 0.26033 0.28258 0.0
C409 C 0.74393 0.2783 0.24796 0.0
C410 C 0.77086 0.30696 0.25267 0.0
C411 C 0.78757 0.32071 0.21456 0.0
C412 C 0.81178 0.34866 0.21733 0.0
C413 C 0.81961 0.36349 0.25834 0.0
H414 H 0.76643 0.31273 0.32367 0.0
C415 C 0.80302 0.34948 0.29644 0.0
C416 C 0.77901 0.32178 0.29367 0.0
H417 H 0.80805 0.36016 0.32866 0.0
H418 H 0.65542 0.18497 0.20295 0.0
H419 H 0.70371 0.22588 0.20793 0.0
H420 H 0.69193 0.23302 0.34925 0.0
H421 H 0.64314 0.1909 0.34451 0.0
H422 H 0.73955 0.26596 0.31576 0.0
H423 H 0.73471 0.27259 0.21472 0.0
H424 H 0.78164 0.30996 0.18238 0.0
H425 H 0.82391 0.35882 0.18728 0.0
C426 C 0.46779 0.80868 0.76937 0.0
C427 C 0.46155 0.82017 0.73151 0.0
C428 C 0.47124 0.78453 0.76604 0.0
C429 C 0.46882 0.77112 0.72454 0.0
C430 C 0.46335 0.783 0.68636 0.0
C431 C 0.45988 0.80737 0.68971 0.0
C432 C 0.46908 0.74334 0.72082 0.0
C433 C 0.48015 0.73363 0.75252 0.0
C434 C 0.47608 0.70388 0.75312 0.0
C435 C 0.47766 0.69208 0.79424 0.0
C436 C 0.47215 0.66356 0.79696 0.0
C437 C 0.46515 0.64624 0.75844 0.0
H438 H 0.46964 0.69538 0.68181 0.0
C439 C 0.46465 0.65845 0.71703 0.0
C440 C 0.47012 0.68691 0.71435 0.0
H441 H 0.45967 0.64593 0.68648 0.0
H442 H 0.46902 0.81764 0.8023 0.0
H443 H 0.47442 0.77585 0.79669 0.0
H444 H 0.46108 0.77298 0.65397 0.0
H445 H 0.45491 0.81551 0.65992 0.0
H446 H 0.4583 0.72991 0.69196 0.0
H447 H 0.49124 0.74723 0.78106 0.0
H448 H 0.48243 0.70473 0.82464 0.0
H449 H 0.47283 0.65496 0.82936 0.0
C450 C 0.6561 0.46202 0.26719 0.0
C451 C 0.64168 0.45787 0.22615 0.0
C452 C 0.68406 0.46625 0.26888 0.0
C453 C 0.6986 0.46668 0.22946 0.0
C454 C 0.6844 0.46295 0.18835 0.0
C455 C 0.65628 0.45869 0.18663 0.0
C456 C 0.72748 0.4687 0.23012 0.0
C457 C 0.74579 0.47847 0.26533 0.0
C458 C 0.77293 0.47707 0.26753 0.0
C459 C 0.78412 0.47598 0.30952 0.0
C460 C 0.80831 0.47237 0.31292 0.0
C461 C 0.82188 0.46989 0.27426 0.0
H462 H 0.78044 0.47815 0.196 0.0
C463 C 0.8115 0.47245 0.23231 0.0
C464 C 0.78749 0.47617 0.22896 0.0
H465 H 0.82154 0.471 0.20171 0.0
H466 H 0.64559 0.46132 0.29848 0.0
H467 H 0.69353 0.46807 0.30143 0.0
H468 H 0.69494 0.46292 0.15743 0.0
H469 H 0.64582 0.45543 0.15448 0.0
H470 H 0.73316 0.46071 0.20068 0.0
H471 H 0.74022 0.48644 0.29487 0.0
H472 H 0.77355 0.47698 0.33983 0.0
H473 H 0.81574 0.47058 0.34574 0.0
C474 C 0.34102 0.8033 0.74438 0.0
C475 C 0.35828 0.8168 0.78218 0.0
C476 C 0.31382 0.7788 0.74842 0.0
C477 C 0.30267 0.76699 0.79056 0.0
C478 C 0.31965 0.78052 0.82861 0.0
C479 C 0.34716 0.80532 0.82454 0.0
C480 C 0.27472 0.73924 0.79499 0.0
C481 C 0.25379 0.72947 0.76344 0.0
C482 C 0.2281 0.69974 0.76238 0.0
C483 C 0.21392 0.68873 0.72139 0.0
C484 C 0.19078 0.66033 0.71794 0.0
C485 C 0.1811 0.64231 0.75561 0.0
H486 H 0.22746 0.68978 0.83286 0.0
C487 C 0.19469 0.65367 0.79697 0.0
C488 C 0.21784 0.68201 0.80038 0.0
H489 H 0.1877 0.64056 0.8269 0.0
H490 H 0.34876 0.81106 0.71101 0.0
H491 H 0.3023 0.76861 0.71799 0.0
H492 H 0.31178 0.77165 0.8615 0.0
H493 H 0.35994 0.81496 0.85431 0.0
H494 H 0.27229 0.7261 0.824 0.0
H495 H 0.25624 0.7432 0.73519 0.0
H496 H 0.22123 0.70194 0.69156 0.0
H497 H 0.18082 0.6524 0.6856 0.0
C498 C 0.43752 0.93609 0.9245 0.0
C499 C 0.4302 0.94059 0.88135 0.0
C500 C 0.44119 0.95505 0.95939 0.0
C501 C 0.43781 0.97922 0.95204 0.0
C502 C 0.42987 0.98343 0.90911 0.0
C503 C 0.42572 0.96408 0.87416 0.0
C504 C 0.44579 0.0019 0.9871 0.0
C505 C 0.44458 0.99638 0.0313 0.0
C506 C 0.45875 0.0194 0.06599 0.0
C507 C 0.44937 0.01337 0.11064 0.0
C508 C 0.46487 0.03318 0.14487 0.0
C509 C 0.49045 0.05908 0.13511 0.0
H510 H 0.4921 0.05122 0.02257 0.0
C511 C 0.49929 0.06546 0.09032 0.0
C512 C 0.48366 0.04597 0.05621 0.0
H513 H 0.51887 0.08532 0.08164 0.0
H514 H 0.44097 0.9181 0.93126 0.0
H515 H 0.44804 0.95139 0.9915 0.0
H516 H 0.42745 0.00206 0.90236 0.0
H517 H 0.42019 0.96816 0.84124 0.0
H518 H 0.45396 0.024 0.97586 0.0
H519 H 0.43381 0.97405 0.04266 0.0
H520 H 0.43043 0.99294 0.11922 0.0
H521 H 0.45761 0.0276 0.17907 0.0
C522 C 0.47733 0.41152 0.41031 0.0
C523 C 0.49382 0.43049 0.37576 0.0
C524 C 0.46666 0.42104 0.44534 0.0
C525 C 0.47237 0.44982 0.4466 0.0
C526 C 0.4877 0.46832 0.41106 0.0
C527 C 0.49808 0.45875 0.37589 0.0
C528 C 0.46512 0.46214 0.48597 0.0
C529 C 0.44349 0.44649 0.51491 0.0
C530 C 0.43759 0.46022 0.55376 0.0
C531 C 0.40893 0.45159 0.56549 0.0
C532 C 0.40305 0.46601 0.59953 0.0
C533 C 0.42576 0.48881 0.62335 0.0
H534 H 0.48259 0.48874 0.5714 0.0
C535 C 0.45441 0.49611 0.61351 0.0
C536 C 0.46027 0.48213 0.57888 0.0
H537 H 0.47244 0.51359 0.63111 0.0
H538 H 0.47375 0.38965 0.41141 0.0
H539 H 0.45533 0.40625 0.47241 0.0
H540 H 0.49243 0.4906 0.41113 0.0
H541 H 0.51077 0.47406 0.35006 0.0
H542 H 0.47786 0.48548 0.49063 0.0
H543 H 0.42864 0.42367 0.50853 0.0
H544 H 0.39107 0.43451 0.547 0.0
H545 H 0.38076 0.45983 0.60637 0.0
C546 C 0.04143 0.49195 0.89674 0.0
C547 C 0.06251 0.48432 0.88663 0.0
C548 C 0.02185 0.47839 0.93164 0.0
C549 C 0.02262 0.45658 0.95685 0.0
C550 C 0.04231 0.44754 0.94486 0.0
C551 C 0.06235 0.46153 0.91046 0.0
C552 C 0.00338 0.44352 0.99616 0.0
C553 C 0.99837 0.45991 0.02518 0.0
C554 C 0.97896 0.44847 0.06471 0.0
C555 C 0.98289 0.46757 0.09988 0.0
C556 C 0.96297 0.45905 0.1349 0.0
C557 C 0.93827 0.43128 0.13526 0.0
H558 H 0.95118 0.40485 0.03953 0.0
C559 C 0.93506 0.41161 0.10122 0.0
C560 C 0.9552 0.42008 0.06632 0.0
H561 H 0.91624 0.39008 0.10032 0.0
H562 H 0.04089 0.5094 0.87914 0.0
H563 H 0.00637 0.48529 0.93934 0.0
H564 H 0.04306 0.43051 0.96342 0.0
H565 H 0.07825 0.45508 0.90341 0.0
H566 H 0.99481 0.42063 1.00264 0.0
H567 H 0.00958 0.48324 0.02025 0.0
H568 H 0.00098 0.48956 0.09955 0.0
H569 H 0.9662 0.47486 0.16038 0.0
C570 C 0.56783 0.03244 0.37412 0.0
C571 C 0.57358 0.06109 0.37848 0.0
C572 C 0.56524 0.01601 0.41219 0.0
C573 C 0.56855 0.02805 0.45529 0.0
C574 C 0.57635 0.05728 0.4592 0.0
C575 C 0.57858 0.07352 0.42138 0.0
C576 C 0.56224 0.01059 0.49691 0.0
C577 C 0.54188 0.98235 0.49862 0.0
C578 C 0.52975 0.96612 0.54099 0.0
C579 C 0.50102 0.94336 0.54047 0.0
C580 C 0.48771 0.92836 0.57941 0.0
C581 C 0.50287 0.93528 0.62008 0.0
H582 H 0.5678 0.98984 0.58287 0.0
C583 C 0.53207 0.95732 0.62062 0.0
C584 C 0.54538 0.97282 0.58142 0.0
H585 H 0.54437 0.96294 0.65138 0.0
H586 H 0.56404 0.02232 0.34153 0.0
H587 H 0.56009 0.99377 0.40777 0.0
H588 H 0.57934 0.06725 0.4918 0.0
H589 H 0.58342 0.09568 0.42591 0.0
H590 H 0.57155 0.02223 0.52785 0.0
H591 H 0.53079 0.97151 0.46803 0.0
H592 H 0.48847 0.93752 0.50991 0.0
H593 H 0.46541 0.91113 0.57742 0.0
C594 C 0.54118 0.58127 0.87589 0.0
C595 C 0.51517 0.58133 0.8829 0.0
C596 C 0.55667 0.57932 0.91233 0.0
C597 C 0.54645 0.57765 0.95635 0.0
C598 C 0.52151 0.57966 0.96309 0.0
C599 C 0.50597 0.58124 0.92694 0.0
C600 C 0.55965 0.57194 0.99605 0.0
C601 C 0.57394 0.55709 0.99385 0.0
C602 C 0.57924 0.54364 0.03363 0.0
C603 C 0.58017 0.51807 0.02713 0.0
C604 C 0.58099 0.50224 0.06347 0.0
C605 C 0.58141 0.5118 0.1074 0.0
H606 H 0.58163 0.57435 0.08386 0.0
C607 C 0.58259 0.53845 0.11416 0.0
C608 C 0.5814 0.55424 0.07755 0.0
H609 H 0.58315 0.54644 0.14765 0.0
H610 H 0.54891 0.58159 0.84233 0.0
H611 H 0.5763 0.5787 0.90582 0.0
H612 H 0.51324 0.57875 0.99648 0.0
H613 H 0.48631 0.58183 0.93357 0.0
H614 H 0.55356 0.57627 0.02854 0.0
H615 H 0.57799 0.55072 0.96138 0.0
H616 H 0.57887 0.50951 0.99382 0.0
H617 H 0.58057 0.48201 0.05708 0.0
C618 C 0.06765 0.57903 0.59329 0.0
C619 C 0.06199 0.58061 0.63876 0.0
C620 C 0.04798 0.57652 0.56056 0.0
C621 C 0.02198 0.57553 0.5724 0.0
C622 C 0.01684 0.57833 0.61777 0.0
C623 C 0.03679 0.58112 0.65068 0.0
C624 C 0.9984 0.56761 0.53915 0.0
C625 C 0.00284 0.57048 0.49457 0.0
C626 C 0.97934 0.55526 0.46102 0.0
C627 C 0.98411 0.56464 0.41633 0.0
C628 C 0.96423 0.54817 0.38281 0.0
C629 C 0.93947 0.52172 0.39336 0.0
H630 H 0.94951 0.52086 0.50518 0.0
C631 C 0.93421 0.51294 0.43824 0.0
C632 C 0.95382 0.52941 0.47161 0.0
H633 H 0.91522 0.49275 0.44759 0.0
H634 H 0.08699 0.57879 0.58294 0.0
H635 H 0.05263 0.57372 0.52634 0.0
H636 H 0.99688 0.57735 0.62794 0.0
H637 H 0.03181 0.58221 0.68545 0.0
H638 H 0.97646 0.55748 0.55202 0.0
H639 H 0.02473 0.58315 0.48178 0.0
H640 H 0.00372 0.5843 0.4071 0.0
H641 H 0.9689 0.55545 0.34852 0.0
loop_
_geom_bond_atom_site_label_1
_geom_bond_atom_site_label_2
_geom_bond_distance
_geom_bond_site_symmetry_2
_ccdc_geom_bond_type
Co0 O2 2.143 . S
Co0 O8 2.074 . S
Co0 O11 2.093 . S
Co0 O24 2.097 . S
Co0 N41 2.151 . S
Co0 N49 2.214 . S
Co1 O2 2.160 . S
Co1 O7 2.058 . S
Co1 O17 2.057 . S
Co1 O32 2.037 . S
Co1 N36 2.145 . S
Co1 N57 2.257 . S
O2 Co0 2.143 . S
O2 Co1 2.160 . S
C3 O4 1.278 . S
C3 O11 1.224 . S
O4 C3 1.278 . S
C5 O6 1.245 . S
C5 O17 1.232 . S
O6 C5 1.245 . S
O7 Co1 2.058 . S
O7 C33 1.269 . S
O8 Co0 2.074 . S
O8 C33 1.257 . S
H9 C34 0.930 . S
H10 C40 0.930 . S
O11 Co0 2.093 . S
O11 C3 1.224 . S
H12 C44 0.929 . S
H13 C46 0.930 . S
H14 C47 0.930 . S
H15 C45 0.929 . S
H16 C48 0.928 . S
O17 Co1 2.057 . S
O17 C5 1.232 . S
H18 C37 0.929 . S
H19 C38 0.929 . S
H20 C50 0.931 . S
H21 C42 0.929 . S
H22 C51 0.930 . S
H23 C43 0.931 . S
O24 Co0 2.097 . S
O24 C52 1.214 . S
H25 C53 0.929 . S
H26 C54 0.929 . S
H27 C55 0.930 . S
H28 C56 0.929 . S
H29 C58 0.930 . S
H30 C35 0.930 . S
H31 C39 0.930 . S
O32 Co1 2.037 . S
O32 C52 1.234 . S
C33 O7 1.269 . S
C33 O8 1.257 . S
C34 H9 0.930 . S
C34 C37 1.388 . S
C34 C39 1.418 . S
C35 H30 0.930 . S
C35 C38 1.404 . S
C35 C39 1.353 . S
N36 Co1 2.145 . S
N36 C37 1.397 . S
N36 C38 1.334 . S
C37 H18 0.929 . S
C37 C34 1.388 . S
C37 N36 1.397 . S
C38 H19 0.929 . S
C38 C35 1.404 . S
C38 N36 1.334 . S
C39 H31 0.930 . S
C39 C34 1.418 . S
C39 C35 1.353 . S
C40 H10 0.930 . S
C40 N41 1.330 . S
C40 C42 1.446 . S
N41 Co0 2.151 . S
N41 C40 1.330 . S
N41 C45 1.418 . S
C42 H21 0.929 . S
C42 C40 1.446 . S
C42 C43 1.332 . S
C43 H23 0.931 . S
C43 C42 1.332 . S
C43 C44 1.267 . S
C44 H12 0.929 . S
C44 C43 1.267 . S
C44 C45 1.251 . S
C45 H15 0.929 . S
C45 N41 1.418 . S
C45 C44 1.251 . S
C46 H13 0.930 . S
C46 C48 1.406 . S
C46 C51 1.261 . S
C47 H14 0.930 . S
C47 N49 1.325 . S
C47 C50 1.357 . S
C48 H16 0.928 . S
C48 C46 1.406 . S
C48 N49 1.261 . S
N49 Co0 2.214 . S
N49 C47 1.325 . S
N49 C48 1.261 . S
C50 H20 0.931 . S
C50 C47 1.357 . S
C50 C51 1.312 . S
C51 H22 0.930 . S
C51 C46 1.261 . S
C51 C50 1.312 . S
C52 O24 1.214 . S
C52 O32 1.234 . S
C53 H25 0.929 . S
C53 C56 1.391 . S
C53 C58 1.391 . S
C54 H26 0.929 . S
C54 C55 1.390 . S
C54 N57 1.391 . S
C55 H27 0.930 . S
C55 C54 1.390 . S
C55 C56 1.392 . S
C56 H28 0.929 . S
C56 C53 1.391 . S
C56 C55 1.392 . S
N57 Co1 2.257 . S
N57 C54 1.391 . S
N57 C58 1.388 . S
C58 H29 0.930 . S
C58 C53 1.391 . S
C58 N57 1.388 . S
Co59 O61 2.143 . S
Co59 O67 2.074 . S
Co59 O70 2.093 . S
Co59 O83 2.097 . S
Co59 N100 2.151 . S
Co59 N108 2.214 . S
Co60 O61 2.160 . S
Co60 O66 2.058 . S
Co60 O76 2.057 . S
Co60 O91 2.037 . S
Co60 N95 2.145 . S
Co60 N116 2.257 . S
O61 Co59 2.143 . S
O61 Co60 2.160 . S
C62 O63 1.278 . S
C62 O70 1.224 . S
O63 C62 1.278 . S
C64 O65 1.245 . S
C64 O76 1.232 . S
O65 C64 1.245 . S
O66 Co60 2.058 . S
O66 C92 1.269 . S
O67 Co59 2.074 . S
O67 C92 1.257 . S
H68 C93 0.930 . S
H69 C99 0.930 . S
O70 Co59 2.093 . S
O70 C62 1.224 . S
H71 C103 0.929 . S
H72 C105 0.930 . S
H73 C106 0.930 . S
H74 C104 0.929 . S
H75 C107 0.928 . S
O76 Co60 2.057 . S
O76 C64 1.232 . S
H77 C96 0.929 . S
H78 C97 0.929 . S
H79 C109 0.931 . S
H80 C101 0.929 . S
H81 C110 0.930 . S
H82 C102 0.931 . S
O83 Co59 2.097 . S
O83 C111 1.214 . S
H84 C112 0.929 . S
H85 C113 0.929 . S
H86 C114 0.930 . S
H87 C115 0.929 . S
H88 C117 0.930 . S
H89 C94 0.930 . S
H90 C98 0.930 . S
O91 Co60 2.037 . S
O91 C111 1.234 . S
C92 O66 1.269 . S
C92 O67 1.257 . S
C93 H68 0.930 . S
C93 C96 1.388 . S
C93 C98 1.418 . S
C94 H89 0.930 . S
C94 C97 1.404 . S
C94 C98 1.353 . S
N95 Co60 2.145 . S
N95 C96 1.397 . S
N95 C97 1.334 . S
C96 H77 0.929 . S
C96 C93 1.388 . S
C96 N95 1.397 . S
C97 H78 0.929 . S
C97 C94 1.404 . S
C97 N95 1.334 . S
C98 H90 0.930 . S
C98 C93 1.418 . S
C98 C94 1.353 . S
C99 H69 0.930 . S
C99 N100 1.330 . S
C99 C101 1.446 . S
N100 Co59 2.151 . S
N100 C99 1.330 . S
N100 C104 1.418 . S
C101 H80 0.929 . S
C101 C99 1.446 . S
C101 C102 1.332 . S
C102 H82 0.931 . S
C102 C101 1.332 . S
C102 C103 1.267 . S
C103 H71 0.929 . S
C103 C102 1.267 . S
C103 C104 1.251 . S
C104 H74 0.929 . S
C104 N100 1.418 . S
C104 C103 1.251 . S
C105 H72 0.930 . S
C105 C107 1.406 . S
C105 C110 1.261 . S
C106 H73 0.930 . S
C106 N108 1.325 . S
C106 C109 1.357 . S
C107 H75 0.928 . S
C107 C105 1.406 . S
C107 N108 1.261 . S
N108 Co59 2.214 . S
N108 C106 1.325 . S
N108 C107 1.261 . S
C109 H79 0.931 . S
C109 C106 1.357 . S
C109 C110 1.312 . S
C110 H81 0.930 . S
C110 C105 1.261 . S
C110 C109 1.312 . S
C111 O83 1.214 . S
C111 O91 1.234 . S
C112 H84 0.929 . S
C112 C115 1.391 . S
C112 C117 1.391 . S
C113 H85 0.929 . S
C113 C114 1.390 . S
C113 N116 1.391 . S
C114 H86 0.930 . S
C114 C113 1.390 . S
C114 C115 1.392 . S
C115 H87 0.929 . S
C115 C112 1.391 . S
C115 C114 1.392 . S
N116 Co60 2.257 . S
N116 C113 1.391 . S
N116 C117 1.388 . S
C117 H88 0.930 . S
C117 C112 1.391 . S
C117 N116 1.388 . S
Co118 O120 2.143 . S
Co118 O126 2.074 . S
Co118 O129 2.093 . S
Co118 O142 2.097 . S
Co118 N159 2.151 . S
Co118 N167 2.214 . S
Co119 O120 2.160 . S
Co119 O125 2.058 . S
Co119 O135 2.057 . S
Co119 O150 2.037 . S
Co119 N154 2.145 . S
Co119 N175 2.257 . S
O120 Co118 2.143 . S
O120 Co119 2.160 . S
C121 O122 1.278 . S
C121 O129 1.224 . S
O122 C121 1.278 . S
C123 O124 1.245 . S
C123 O135 1.232 . S
O124 C123 1.245 . S
O125 Co119 2.058 . S
O125 C151 1.269 . S
O126 Co118 2.074 . S
O126 C151 1.257 . S
H127 C152 0.930 . S
H128 C158 0.930 . S
O129 Co118 2.093 . S
O129 C121 1.224 . S
H130 C162 0.929 . S
H131 C164 0.930 . S
H132 C165 0.930 . S
H133 C163 0.929 . S
H134 C166 0.928 . S
O135 Co119 2.057 . S
O135 C123 1.232 . S
H136 C155 0.929 . S
H137 C156 0.929 . S
H138 C168 0.931 . S
H139 C160 0.929 . S
H140 C169 0.930 . S
H141 C161 0.931 . S
O142 Co118 2.097 . S
O142 C170 1.214 . S
H143 C171 0.929 . S
H144 C172 0.929 . S
H145 C173 0.930 . S
H146 C174 0.929 . S
H147 C176 0.930 . S
H148 C153 0.930 . S
H149 C157 0.930 . S
O150 Co119 2.037 . S
O150 C170 1.234 . S
C151 O125 1.269 . S
C151 O126 1.257 . S
C152 H127 0.930 . S
C152 C155 1.388 . S
C152 C157 1.418 . S
C153 H148 0.930 . S
C153 C156 1.404 . S
C153 C157 1.353 . S
N154 Co119 2.145 . S
N154 C155 1.397 . S
N154 C156 1.334 . S
C155 H136 0.929 . S
C155 C152 1.388 . S
C155 N154 1.397 . S
C156 H137 0.929 . S
C156 C153 1.404 . S
C156 N154 1.334 . S
C157 H149 0.930 . S
C157 C152 1.418 . S
C157 C153 1.353 . S
C158 H128 0.930 . S
C158 N159 1.330 . S
C158 C160 1.446 . S
N159 Co118 2.151 . S
N159 C158 1.330 . S
N159 C163 1.418 . S
C160 H139 0.929 . S
C160 C158 1.446 . S
C160 C161 1.332 . S
C161 H141 0.931 . S
C161 C160 1.332 . S
C161 C162 1.267 . S
C162 H130 0.929 . S
C162 C161 1.267 . S
C162 C163 1.251 . S
C163 H133 0.929 . S
C163 N159 1.418 . S
C163 C162 1.251 . S
C164 H131 0.930 . S
C164 C166 1.406 . S
C164 C169 1.261 . S
C165 H132 0.930 . S
C165 N167 1.325 . S
C165 C168 1.357 . S
C166 H134 0.928 . S
C166 C164 1.406 . S
C166 N167 1.261 . S
N167 Co118 2.214 . S
N167 C165 1.325 . S
N167 C166 1.261 . S
C168 H138 0.931 . S
C168 C165 1.357 . S
C168 C169 1.312 . S
C169 H140 0.930 . S
C169 C164 1.261 . S
C169 C168 1.312 . S
C170 O142 1.214 . S
C170 O150 1.234 . S
C171 H143 0.929 . S
C171 C174 1.391 . S
C171 C176 1.391 . S
C172 H144 0.929 . S
C172 C173 1.390 . S
C172 N175 1.391 . S
C173 H145 0.930 . S
C173 C172 1.390 . S
C173 C174 1.392 . S
C174 H146 0.929 . S
C174 C171 1.391 . S
C174 C173 1.392 . S
N175 Co119 2.257 . S
N175 C172 1.391 . S
N175 C176 1.388 . S
C176 H147 0.930 . S
C176 C171 1.391 . S
C176 N175 1.388 . S
Co177 O179 2.143 . S
Co177 O185 2.074 . S
Co177 O188 2.093 . S
Co177 O201 2.097 . S
Co177 N218 2.151 . S
Co177 N226 2.214 . S
Co178 O179 2.160 . S
Co178 O184 2.058 . S
Co178 O194 2.057 . S
Co178 O209 2.037 . S
Co178 N213 2.145 . S
Co178 N234 2.257 . S
O179 Co177 2.143 . S
O179 Co178 2.160 . S
C180 O181 1.278 . S
C180 O188 1.224 . S
O181 C180 1.278 . S
C182 O183 1.245 . S
C182 O194 1.232 . S
O183 C182 1.245 . S
O184 Co178 2.058 . S
O184 C210 1.269 . S
O185 Co177 2.074 . S
O185 C210 1.257 . S
H186 C211 0.930 . S
H187 C217 0.930 . S
O188 Co177 2.093 . S
O188 C180 1.224 . S
H189 C221 0.929 . S
H190 C223 0.930 . S
H191 C224 0.930 . S
H192 C222 0.929 . S
H193 C225 0.928 . S
O194 Co178 2.057 . S
O194 C182 1.232 . S
H195 C214 0.929 . S
H196 C215 0.929 . S
H197 C227 0.931 . S
H198 C219 0.929 . S
H199 C228 0.930 . S
H200 C220 0.931 . S
O201 Co177 2.097 . S
O201 C229 1.214 . S
H202 C230 0.929 . S
H203 C231 0.929 . S
H204 C232 0.930 . S
H205 C233 0.929 . S
H206 C235 0.930 . S
H207 C212 0.930 . S
H208 C216 0.930 . S
O209 Co178 2.037 . S
O209 C229 1.234 . S
C210 O184 1.269 . S
C210 O185 1.257 . S
C211 H186 0.930 . S
C211 C214 1.388 . S
C211 C216 1.418 . S
C212 H207 0.930 . S
C212 C215 1.404 . S
C212 C216 1.353 . S
N213 Co178 2.145 . S
N213 C214 1.397 . S
N213 C215 1.334 . S
C214 H195 0.929 . S
C214 C211 1.388 . S
C214 N213 1.397 . S
C215 H196 0.929 . S
C215 C212 1.404 . S
C215 N213 1.334 . S
C216 H208 0.930 . S
C216 C211 1.418 . S
C216 C212 1.353 . S
C217 H187 0.930 . S
C217 N218 1.330 . S
C217 C219 1.446 . S
N218 Co177 2.151 . S
N218 C217 1.330 . S
N218 C222 1.418 . S
C219 H198 0.929 . S
C219 C217 1.446 . S
C219 C220 1.332 . S
C220 H200 0.931 . S
C220 C219 1.332 . S
C220 C221 1.267 . S
C221 H189 0.929 . S
C221 C220 1.267 . S
C221 C222 1.251 . S
C222 H192 0.929 . S
C222 N218 1.418 . S
C222 C221 1.251 . S
C223 H190 0.930 . S
C223 C225 1.406 . S
C223 C228 1.261 . S
C224 H191 0.930 . S
C224 N226 1.325 . S
C224 C227 1.357 . S
C225 H193 0.928 . S
C225 C223 1.406 . S
C225 N226 1.261 . S
N226 Co177 2.214 . S
N226 C224 1.325 . S
N226 C225 1.261 . S
C227 H197 0.931 . S
C227 C224 1.357 . S
C227 C228 1.312 . S
C228 H199 0.930 . S
C228 C223 1.261 . S
C228 C227 1.312 . S
C229 O201 1.214 . S
C229 O209 1.234 . S
C230 H202 0.929 . S
C230 C233 1.391 . S
C230 C235 1.391 . S
C231 H203 0.929 . S
C231 C232 1.390 . S
C231 N234 1.391 . S
C232 H204 0.930 . S
C232 C231 1.390 . S
C232 C233 1.392 . S
C233 H205 0.929 . S
C233 C230 1.391 . S
C233 C232 1.392 . S
N234 Co178 2.257 . S
N234 C231 1.391 . S
N234 C235 1.388 . S
C235 H206 0.930 . S
C235 C230 1.391 . S
C235 N234 1.388 . S
Co236 O238 2.143 . S
Co236 O244 2.074 . S
Co236 O247 2.093 . S
Co236 O260 2.097 . S
Co236 N277 2.151 . S
Co236 N285 2.214 . S
Co237 O238 2.160 . S
Co237 O243 2.058 . S
Co237 O253 2.057 . S
Co237 O268 2.037 . S
Co237 N272 2.145 . S
Co237 N293 2.257 . S
O238 Co236 2.143 . S
O238 Co237 2.160 . S
C239 O240 1.278 . S
C239 O247 1.224 . S
O240 C239 1.278 . S
C241 O242 1.245 . S
C241 O253 1.232 . S
O242 C241 1.245 . S
O243 Co237 2.058 . S
O243 C269 1.269 . S
O244 Co236 2.074 . S
O244 C269 1.257 . S
H245 C270 0.930 . S
H246 C276 0.930 . S
O247 Co236 2.093 . S
O247 C239 1.224 . S
H248 C280 0.929 . S
H249 C282 0.930 . S
H250 C283 0.930 . S
H251 C281 0.929 . S
H252 C284 0.928 . S
O253 Co237 2.057 . S
O253 C241 1.232 . S
H254 C273 0.929 . S
H255 C274 0.929 . S
H256 C286 0.931 . S
H257 C278 0.929 . S
H258 C287 0.930 . S
H259 C279 0.931 . S
O260 Co236 2.097 . S
O260 C288 1.214 . S
H261 C289 0.929 . S
H262 C290 0.929 . S
H263 C291 0.930 . S
H264 C292 0.929 . S
H265 C294 0.930 . S
H266 C271 0.930 . S
H267 C275 0.930 . S
O268 Co237 2.037 . S
O268 C288 1.234 . S
C269 O243 1.269 . S
C269 O244 1.257 . S
C270 H245 0.930 . S
C270 C273 1.388 . S
C270 C275 1.418 . S
C271 H266 0.930 . S
C271 C274 1.404 . S
C271 C275 1.353 . S
N272 Co237 2.145 . S
N272 C273 1.397 . S
N272 C274 1.334 . S
C273 H254 0.929 . S
C273 C270 1.388 . S
C273 N272 1.397 . S
C274 H255 0.929 . S
C274 C271 1.404 . S
C274 N272 1.334 . S
C275 H267 0.930 . S
C275 C270 1.418 . S
C275 C271 1.353 . S
C276 H246 0.930 . S
C276 N277 1.330 . S
C276 C278 1.446 . S
N277 Co236 2.151 . S
N277 C276 1.330 . S
N277 C281 1.418 . S
C278 H257 0.929 . S
C278 C276 1.446 . S
C278 C279 1.332 . S
C279 H259 0.931 . S
C279 C278 1.332 . S
C279 C280 1.267 . S
C280 H248 0.929 . S
C280 C279 1.267 . S
C280 C281 1.251 . S
C281 H251 0.929 . S
C281 N277 1.418 . S
C281 C280 1.251 . S
C282 H249 0.930 . S
C282 C284 1.406 . S
C282 C287 1.261 . S
C283 H250 0.930 . S
C283 N285 1.325 . S
C283 C286 1.357 . S
C284 H252 0.928 . S
C284 C282 1.406 . S
C284 N285 1.261 . S
N285 Co236 2.214 . S
N285 C283 1.325 . S
N285 C284 1.261 . S
C286 H256 0.931 . S
C286 C283 1.357 . S
C286 C287 1.312 . S
C287 H258 0.930 . S
C287 C282 1.261 . S
C287 C286 1.312 . S
C288 O260 1.214 . S
C288 O268 1.234 . S
C289 H261 0.929 . S
C289 C292 1.391 . S
C289 C294 1.391 . S
C290 H262 0.929 . S
C290 C291 1.390 . S
C290 N293 1.391 . S
C291 H263 0.930 . S
C291 C290 1.390 . S
C291 C292 1.392 . S
C292 H264 0.929 . S
C292 C289 1.391 . S
C292 C291 1.392 . S
N293 Co237 2.257 . S
N293 C290 1.391 . S
N293 C294 1.388 . S
C294 H265 0.930 . S
C294 C289 1.391 . S
C294 N293 1.388 . S
Co295 O297 2.143 . S
Co295 O303 2.074 . S
Co295 O306 2.093 . S
Co295 O319 2.097 . S
Co295 N336 2.151 . S
Co295 N344 2.214 . S
Co296 O297 2.160 . S
Co296 O302 2.058 . S
Co296 O312 2.057 . S
Co296 O327 2.037 . S
Co296 N331 2.145 . S
Co296 N352 2.257 . S
O297 Co295 2.143 . S
O297 Co296 2.160 . S
C298 O299 1.278 . S
C298 O306 1.224 . S
O299 C298 1.278 . S
C300 O301 1.245 . S
C300 O312 1.232 . S
O301 C300 1.245 . S
O302 Co296 2.058 . S
O302 C328 1.269 . S
O303 Co295 2.074 . S
O303 C328 1.257 . S
H304 C329 0.930 . S
H305 C335 0.930 . S
O306 Co295 2.093 . S
O306 C298 1.224 . S
H307 C339 0.929 . S
H308 C341 0.930 . S
H309 C342 0.930 . S
H310 C340 0.929 . S
H311 C343 0.928 . S
O312 Co296 2.057 . S
O312 C300 1.232 . S
H313 C332 0.929 . S
H314 C333 0.929 . S
H315 C345 0.931 . S
H316 C337 0.929 . S
H317 C346 0.930 . S
H318 C338 0.931 . S
O319 Co295 2.097 . S
O319 C347 1.214 . S
H320 C348 0.929 . S
H321 C349 0.929 . S
H322 C350 0.930 . S
H323 C351 0.929 . S
H324 C353 0.930 . S
H325 C330 0.930 . S
H326 C334 0.930 . S
O327 Co296 2.037 . S
O327 C347 1.234 . S
C328 O302 1.269 . S
C328 O303 1.257 . S
C329 H304 0.930 . S
C329 C332 1.388 . S
C329 C334 1.418 . S
C330 H325 0.930 . S
C330 C333 1.404 . S
C330 C334 1.353 . S
N331 Co296 2.145 . S
N331 C332 1.397 . S
N331 C333 1.334 . S
C332 H313 0.929 . S
C332 C329 1.388 . S
C332 N331 1.397 . S
C333 H314 0.929 . S
C333 C330 1.404 . S
C333 N331 1.334 . S
C334 H326 0.930 . S
C334 C329 1.418 . S
C334 C330 1.353 . S
C335 H305 0.930 . S
C335 N336 1.330 . S
C335 C337 1.446 . S
N336 Co295 2.151 . S
N336 C335 1.330 . S
N336 C340 1.418 . S
C337 H316 0.929 . S
C337 C335 1.446 . S
C337 C338 1.332 . S
C338 H318 0.931 . S
C338 C337 1.332 . S
C338 C339 1.267 . S
C339 H307 0.929 . S
C339 C338 1.267 . S
C339 C340 1.251 . S
C340 H310 0.929 . S
C340 N336 1.418 . S
C340 C339 1.251 . S
C341 H308 0.930 . S
C341 C343 1.406 . S
C341 C346 1.261 . S
C342 H309 0.930 . S
C342 N344 1.325 . S
C342 C345 1.357 . S
C343 H311 0.928 . S
C343 C341 1.406 . S
C343 N344 1.261 . S
N344 Co295 2.214 . S
N344 C342 1.325 . S
N344 C343 1.261 . S
C345 H315 0.931 . S
C345 C342 1.357 . S
C345 C346 1.312 . S
C346 H317 0.930 . S
C346 C341 1.261 . S
C346 C345 1.312 . S
C347 O319 1.214 . S
C347 O327 1.234 . S
C348 H320 0.929 . S
C348 C351 1.391 . S
C348 C353 1.391 . S
C349 H321 0.929 . S
C349 C350 1.390 . S
C349 N352 1.391 . S
C350 H322 0.930 . S
C350 C349 1.390 . S
C350 C351 1.392 . S
C351 H323 0.929 . S
C351 C348 1.391 . S
C351 C350 1.392 . S
N352 Co296 2.257 . S
N352 C349 1.391 . S
N352 C353 1.388 . S
C353 H324 0.930 . S
C353 C348 1.391 . S
C353 N352 1.388 . S
C354 C355 1.386 . S
C354 C356 1.383 . S
C354 H370 0.951 . S
C355 C354 1.386 . S
C355 C359 1.383 . S
C356 C354 1.383 . S
C356 C357 1.402 . S
C356 H371 0.951 . S
C357 C356 1.402 . S
C357 C358 1.375 . S
C357 C360 1.481 . S
C358 C357 1.375 . S
C358 C359 1.367 . S
C358 H372 0.951 . S
C359 C355 1.383 . S
C359 C358 1.367 . S
C359 H373 0.950 . S
C360 C357 1.481 . S
C360 C361 1.297 . S
C360 H374 0.950 . S
C361 C360 1.297 . S
C361 C362 1.479 . S
C361 H375 0.950 . S
C362 C361 1.479 . S
C362 C363 1.375 . S
C362 C368 1.404 . S
C363 C362 1.375 . S
C363 C364 1.369 . S
C363 H376 0.950 . S
C364 C363 1.369 . S
C364 C365 1.392 . S
C364 H377 0.951 . S
C365 C364 1.392 . S
C365 C367 1.384 . S
H366 C368 0.949 . S
C367 C365 1.384 . S
C367 C368 1.385 . S
C367 H369 0.950 . S
C368 C362 1.404 . S
C368 H366 0.949 . S
C368 C367 1.385 . S
H369 C367 0.950 . S
H370 C354 0.951 . S
H371 C356 0.951 . S
H372 C358 0.951 . S
H373 C359 0.950 . S
H374 C360 0.950 . S
H375 C361 0.950 . S
H376 C363 0.950 . S
H377 C364 0.951 . S
C378 C379 1.386 . S
C378 C380 1.383 . S
C378 H394 0.951 . S
C379 C378 1.386 . S
C379 C383 1.383 . S
C380 C378 1.383 . S
C380 C381 1.402 . S
C380 H395 0.951 . S
C381 C380 1.402 . S
C381 C382 1.375 . S
C381 C384 1.481 . S
C382 C381 1.375 . S
C382 C383 1.367 . S
C382 H396 0.951 . S
C383 C379 1.383 . S
C383 C382 1.367 . S
C383 H397 0.950 . S
C384 C381 1.481 . S
C384 C385 1.297 . S
C384 H398 0.950 . S
C385 C384 1.297 . S
C385 C386 1.479 . S
C385 H399 0.950 . S
C386 C385 1.479 . S
C386 C387 1.375 . S
C386 C392 1.404 . S
C387 C386 1.375 . S
C387 C388 1.369 . S
C387 H400 0.950 . S
C388 C387 1.369 . S
C388 C389 1.392 . S
C388 H401 0.951 . S
C389 C388 1.392 . S
C389 C391 1.384 . S
H390 C392 0.949 . S
C391 C389 1.384 . S
C391 C392 1.385 . S
C391 H393 0.950 . S
C392 C386 1.404 . S
C392 H390 0.949 . S
C392 C391 1.385 . S
H393 C391 0.950 . S
H394 C378 0.951 . S
H395 C380 0.951 . S
H396 C382 0.951 . S
H397 C383 0.950 . S
H398 C384 0.950 . S
H399 C385 0.950 . S
H400 C387 0.950 . S
H401 C388 0.951 . S
C402 C403 1.386 . S
C402 C404 1.383 . S
C402 H418 0.951 . S
C403 C402 1.386 . S
C403 C407 1.383 . S
C404 C402 1.383 . S
C404 C405 1.402 . S
C404 H419 0.951 . S
C405 C404 1.402 . S
C405 C406 1.375 . S
C405 C408 1.481 . S
C406 C405 1.375 . S
C406 C407 1.367 . S
C406 H420 0.951 . S
C407 C403 1.383 . S
C407 C406 1.367 . S
C407 H421 0.950 . S
C408 C405 1.481 . S
C408 C409 1.297 . S
C408 H422 0.950 . S
C409 C408 1.297 . S
C409 C410 1.479 . S
C409 H423 0.950 . S
C410 C409 1.479 . S
C410 C411 1.375 . S
C410 C416 1.404 . S
C411 C410 1.375 . S
C411 C412 1.369 . S
C411 H424 0.950 . S
C412 C411 1.369 . S
C412 C413 1.392 . S
C412 H425 0.951 . S
C413 C412 1.392 . S
C413 C415 1.384 . S
H414 C416 0.949 . S
C415 C413 1.384 . S
C415 C416 1.385 . S
C415 H417 0.950 . S
C416 C410 1.404 . S
C416 H414 0.949 . S
C416 C415 1.385 . S
H417 C415 0.950 . S
H418 C402 0.951 . S
H419 C404 0.951 . S
H420 C406 0.951 . S
H421 C407 0.950 . S
H422 C408 0.950 . S
H423 C409 0.950 . S
H424 C411 0.950 . S
H425 C412 0.951 . S
C426 C427 1.386 . S
C426 C428 1.383 . S
C426 H442 0.951 . S
C427 C426 1.386 . S
C427 C431 1.383 . S
C428 C426 1.383 . S
C428 C429 1.402 . S
C428 H443 0.951 . S
C429 C428 1.402 . S
C429 C430 1.375 . S
C429 C432 1.481 . S
C430 C429 1.375 . S
C430 C431 1.367 . S
C430 H444 0.951 . S
C431 C427 1.383 . S
C431 C430 1.367 . S
C431 H445 0.950 . S
C432 C429 1.481 . S
C432 C433 1.297 . S
C432 H446 0.950 . S
C433 C432 1.297 . S
C433 C434 1.479 . S
C433 H447 0.950 . S
C434 C433 1.479 . S
C434 C435 1.375 . S
C434 C440 1.404 . S
C435 C434 1.375 . S
C435 C436 1.369 . S
C435 H448 0.950 . S
C436 C435 1.369 . S
C436 C437 1.392 . S
C436 H449 0.951 . S
C437 C436 1.392 . S
C437 C439 1.384 . S
H438 C440 0.949 . S
C439 C437 1.384 . S
C439 C440 1.385 . S
C439 H441 0.950 . S
C440 C434 1.404 . S
C440 H438 0.949 . S
C440 C439 1.385 . S
H441 C439 0.950 . S
H442 C426 0.951 . S
H443 C428 0.951 . S
H444 C430 0.951 . S
H445 C431 0.950 . S
H446 C432 0.950 . S
H447 C433 0.950 . S
H448 C435 0.950 . S
H449 C436 0.951 . S
C450 C451 1.386 . S
C450 C452 1.383 . S
C450 H466 0.951 . S
C451 C450 1.386 . S
C451 C455 1.383 . S
C452 C450 1.383 . S
C452 C453 1.402 . S
C452 H467 0.951 . S
C453 C452 1.402 . S
C453 C454 1.375 . S
C453 C456 1.481 . S
C454 C453 1.375 . S
C454 C455 1.367 . S
C454 H468 0.951 . S
C455 C451 1.383 . S
C455 C454 1.367 . S
C455 H469 0.950 . S
C456 C453 1.481 . S
C456 C457 1.297 . S
C456 H470 0.950 . S
C457 C456 1.297 . S
C457 C458 1.479 . S
C457 H471 0.950 . S
C458 C457 1.479 . S
C458 C459 1.375 . S
C458 C464 1.404 . S
C459 C458 1.375 . S
C459 C460 1.369 . S
C459 H472 0.950 . S
C460 C459 1.369 . S
C460 C461 1.392 . S
C460 H473 0.951 . S
C461 C460 1.392 . S
C461 C463 1.384 . S
H462 C464 0.949 . S
C463 C461 1.384 . S
C463 C464 1.385 . S
C463 H465 0.950 . S
C464 C458 1.404 . S
C464 H462 0.949 . S
C464 C463 1.385 . S
H465 C463 0.950 . S
H466 C450 0.951 . S
H467 C452 0.951 . S
H468 C454 0.951 . S
H469 C455 0.950 . S
H470 C456 0.950 . S
H471 C457 0.950 . S
H472 C459 0.950 . S
H473 C460 0.951 . S
C474 C475 1.386 . S
C474 C476 1.383 . S
C474 H490 0.951 . S
C475 C474 1.386 . S
C475 C479 1.383 . S
C476 C474 1.383 . S
C476 C477 1.402 . S
C476 H491 0.951 . S
C477 C476 1.402 . S
C477 C478 1.375 . S
C477 C480 1.481 . S
C478 C477 1.375 . S
C478 C479 1.367 . S
C478 H492 0.951 . S
C479 C475 1.383 . S
C479 C478 1.367 . S
C479 H493 0.950 . S
C480 C477 1.481 . S
C480 C481 1.297 . S
C480 H494 0.950 . S
C481 C480 1.297 . S
C481 C482 1.479 . S
C481 H495 0.950 . S
C482 C481 1.479 . S
C482 C483 1.375 . S
C482 C488 1.404 . S
C483 C482 1.375 . S
C483 C484 1.369 . S
C483 H496 0.950 . S
C484 C483 1.369 . S
C484 C485 1.392 . S
C484 H497 0.951 . S
C485 C484 1.392 . S
C485 C487 1.384 . S
H486 C488 0.949 . S
C487 C485 1.384 . S
C487 C488 1.385 . S
C487 H489 0.950 . S
C488 C482 1.404 . S
C488 H486 0.949 . S
C488 C487 1.385 . S
H489 C487 0.950 . S
H490 C474 0.951 . S
H491 C476 0.951 . S
H492 C478 0.951 . S
H493 C479 0.950 . S
H494 C480 0.950 . S
H495 C481 0.950 . S
H496 C483 0.950 . S
H497 C484 0.951 . S
C498 C499 1.386 . S
C498 C500 1.383 . S
C498 H514 0.951 . S
C499 C498 1.386 . S
C499 C503 1.383 . S
C500 C498 1.383 . S
C500 C501 1.402 . S
C500 H515 0.951 . S
C501 C500 1.402 . S
C501 C502 1.375 . S
C501 C504 1.494 . S
C502 C501 1.375 . S
C502 C503 1.367 . S
C502 H516 0.951 1_565 S
C503 C499 1.383 . S
C503 C502 1.367 . S
C503 H517 0.950 . S
C504 C501 1.494 . S
C504 C505 1.297 1_556 S
C504 H518 0.936 1_565 S
C505 C504 1.297 1_554 S
C505 C506 1.479 1_565 S
C505 H519 0.950 . S
C506 C505 1.479 1_545 S
C506 C507 1.375 . S
C506 C512 1.404 . S
C507 C506 1.375 . S
C507 C508 1.369 . S
C507 H520 0.950 1_545 S
C508 C507 1.369 . S
C508 C509 1.392 . S
C508 H521 0.951 . S
C509 C508 1.392 . S
C509 C511 1.384 . S
H510 C512 0.949 . S
C511 C509 1.384 . S
C511 C512 1.385 . S
C511 H513 0.950 . S
C512 C506 1.404 . S
C512 H510 0.949 . S
C512 C511 1.385 . S
H513 C511 0.950 . S
H514 C498 0.951 . S
H515 C500 0.951 . S
H516 C502 0.951 1_545 S
H517 C503 0.950 . S
H518 C504 0.936 1_545 S
H519 C505 0.950 . S
H520 C507 0.950 1_565 S
H521 C508 0.951 . S
C522 C523 1.386 . S
C522 C524 1.383 . S
C522 H538 0.951 . S
C523 C522 1.386 . S
C523 C527 1.383 . S
C524 C522 1.383 . S
C524 C525 1.402 . S
C524 H539 0.951 . S
C525 C524 1.402 . S
C525 C526 1.375 . S
C525 C528 1.481 . S
C526 C525 1.375 . S
C526 C527 1.367 . S
C526 H540 0.951 . S
C527 C523 1.383 . S
C527 C526 1.367 . S
C527 H541 0.950 . S
C528 C525 1.481 . S
C528 C529 1.297 . S
C528 H542 0.950 . S
C529 C528 1.297 . S
C529 C530 1.479 . S
C529 H543 0.950 . S
C530 C529 1.479 . S
C530 C531 1.375 . S
C530 C536 1.404 . S
C531 C530 1.375 . S
C531 C532 1.369 . S
C531 H544 0.950 . S
C532 C531 1.369 . S
C532 C533 1.392 . S
C532 H545 0.951 . S
C533 C532 1.392 . S
C533 C535 1.384 . S
H534 C536 0.949 . S
C535 C533 1.384 . S
C535 C536 1.385 . S
C535 H537 0.950 . S
C536 C530 1.404 . S
C536 H534 0.949 . S
C536 C535 1.385 . S
H537 C535 0.950 . S
H538 C522 0.951 . S
H539 C524 0.951 . S
H540 C526 0.951 . S
H541 C527 0.950 . S
H542 C528 0.950 . S
H543 C529 0.950 . S
H544 C531 0.950 . S
H545 C532 0.951 . S
C546 C547 1.386 . S
C546 C548 1.383 . S
C546 H562 0.951 . S
C547 C546 1.386 . S
C547 C551 1.383 . S
C548 C546 1.383 . S
C548 C549 1.402 . S
C548 H563 0.951 . S
C549 C548 1.402 . S
C549 C550 1.375 . S
C549 C552 1.481 . S
C550 C549 1.375 . S
C550 C551 1.367 . S
C550 H564 0.951 . S
C551 C547 1.383 . S
C551 C550 1.367 . S
C551 H565 0.950 . S
C552 C549 1.481 . S
C552 C553 1.297 1_455 S
C552 H566 0.950 1_556 S
C553 C552 1.297 1_655 S
C553 C554 1.479 1_556 S
C553 H567 0.950 . S
C554 C553 1.479 1_554 S
C554 C555 1.375 . S
C554 C560 1.404 . S
C555 C554 1.375 . S
C555 C556 1.369 . S
C555 H568 0.950 . S
C556 C555 1.369 . S
C556 C557 1.392 . S
C556 H569 0.951 . S
C557 C556 1.392 . S
C557 C559 1.384 . S
H558 C560 0.949 . S
C559 C557 1.384 . S
C559 C560 1.385 . S
C559 H561 0.950 . S
C560 C554 1.404 . S
C560 H558 0.949 . S
C560 C559 1.385 . S
H561 C559 0.950 . S
H562 C546 0.951 . S
H563 C548 0.951 . S
H564 C550 0.951 . S
H565 C551 0.950 . S
H566 C552 0.950 1_554 S
H567 C553 0.950 . S
H568 C555 0.950 . S
H569 C556 0.951 . S
C570 C571 1.386 . S
C570 C572 1.383 . S
C570 H586 0.951 . S
C571 C570 1.386 . S
C571 C575 1.383 . S
C572 C570 1.383 . S
C572 C573 1.402 . S
C572 H587 0.949 . S
C573 C572 1.402 . S
C573 C574 1.375 . S
C573 C576 1.481 . S
C574 C573 1.375 . S
C574 C575 1.367 . S
C574 H588 0.951 . S
C575 C571 1.383 . S
C575 C574 1.367 . S
C575 H589 0.950 . S
C576 C573 1.481 . S
C576 C577 1.297 1_545 S
C576 H590 0.950 . S
C577 C576 1.297 1_565 S
C577 C578 1.479 . S
C577 H591 0.950 . S
C578 C577 1.479 . S
C578 C579 1.375 . S
C578 C584 1.404 . S
C579 C578 1.375 . S
C579 C580 1.369 . S
C579 H592 0.950 . S
C580 C579 1.369 . S
C580 C581 1.392 . S
C580 H593 0.951 . S
C581 C580 1.392 . S
C581 C583 1.384 . S
H582 C584 0.949 1_545 S
C583 C581 1.384 . S
C583 C584 1.385 . S
C583 H585 0.950 . S
C584 C578 1.404 . S
C584 H582 0.949 1_565 S
C584 C583 1.385 . S
H585 C583 0.950 . S
H586 C570 0.951 . S
H587 C572 0.949 . S
H588 C574 0.951 . S
H589 C575 0.950 . S
H590 C576 0.950 . S
H591 C577 0.950 . S
H592 C579 0.950 . S
H593 C580 0.951 . S
C594 C595 1.386 . S
C594 C596 1.383 . S
C594 H610 0.951 . S
C595 C594 1.386 . S
C595 C599 1.383 . S
C596 C594 1.383 . S
C596 C597 1.402 . S
C596 H611 0.951 . S
C597 C596 1.402 . S
C597 C598 1.375 . S
C597 C600 1.481 1_556 S
C598 C597 1.375 . S
C598 C599 1.367 . S
C598 H612 0.951 . S
C599 C595 1.383 . S
C599 C598 1.367 . S
C599 H613 0.950 . S
C600 C597 1.481 1_554 S
C600 C601 1.297 . S
C600 H614 0.950 . S
C601 C600 1.297 . S
C601 C602 1.479 . S
C601 H615 0.950 1_554 S
C602 C601 1.479 . S
C602 C603 1.375 . S
C602 C608 1.404 . S
C603 C602 1.375 . S
C603 C604 1.369 . S
C603 H616 0.950 . S
C604 C603 1.369 . S
C604 C605 1.392 . S
C604 H617 0.951 . S
C605 C604 1.392 . S
C605 C607 1.384 . S
H606 C608 0.949 . S
C607 C605 1.384 . S
C607 C608 1.385 . S
C607 H609 0.950 . S
C608 C602 1.404 . S
C608 H606 0.949 . S
C608 C607 1.385 . S
H609 C607 0.950 . S
H610 C594 0.951 . S
H611 C596 0.951 . S
H612 C598 0.951 . S
H613 C599 0.950 . S
H614 C600 0.950 . S
H615 C601 0.950 1_556 S
H616 C603 0.950 . S
H617 C604 0.951 . S
C618 C619 1.386 . S
C618 C620 1.383 . S
C618 H634 0.951 . S
C619 C618 1.386 . S
C619 C623 1.383 . S
C620 C618 1.383 . S
C620 C621 1.402 . S
C620 H635 0.951 . S
C621 C620 1.402 . S
C621 C622 1.375 . S
C621 C624 1.481 1_455 S
C622 C621 1.375 . S
C622 C623 1.367 . S
C622 H636 0.951 1_455 S
C623 C619 1.383 . S
C623 C622 1.367 . S
C623 H637 0.950 . S
C624 C621 1.481 1_655 S
C624 C625 1.297 1_655 S
C624 H638 0.950 . S
C625 C624 1.297 1_455 S
C625 C626 1.479 1_455 S
C625 H639 0.950 . S
C626 C625 1.479 1_655 S
C626 C627 1.375 . S
C626 C632 1.404 . S
C627 C626 1.375 . S
C627 C628 1.369 . S
C627 H640 0.950 1_655 S
C628 C627 1.369 . S
C628 C629 1.392 . S
C628 H641 0.951 . S
C629 C628 1.392 . S
C629 C631 1.384 . S
H630 C632 0.949 . S
C631 C629 1.384 . S
C631 C632 1.385 . S
C631 H633 0.950 . S
C632 C626 1.404 . S
C632 H630 0.949 . S
C632 C631 1.385 . S
H633 C631 0.950 . S
H634 C618 0.951 . S
H635 C620 0.951 . S
H636 C622 0.951 1_655 S
H637 C623 0.950 . S
H638 C624 0.950 . S
H639 C625 0.950 . S
H640 C627 0.950 1_455 S
H641 C628 0.951 . S
C355 C52 1.240 . S
C365 C269 1.184 . S
C379 C111 1.245 . S
C389 C328 1.171 . S
C403 C33 1.202 . S
C413 C151 1.231 . S
C427 C210 1.244 . S
C437 C92 1.162 . S
C451 C288 1.230 . S
C461 C170 1.191 . S
C475 C229 1.224 . S
C485 C347 1.202 . S
C499 C180 1.472 . S
C509 C3 1.476 . S
C523 C241 1.471 . S
C533 C62 1.486 . S
C547 C300 1.486 . S
C557 C123 1.466 . S
C571 C5 1.475 . S
C581 C182 1.486 . S
C595 C64 1.475 . S
C605 C239 1.475 . S
C619 C298 1.478 . S
C629 C121 1.464 . S
