# Generated by pormake.
# Topology noo, (5)-cn, num edge types: 1
# Building blocks:
#     Node 0, Type 0, BuildingBlock: BEQFEK_clean_sbu_0, # of connection points: 5
#     Node 1, Type 0, BuildingBlock: BEQFEK_clean_sbu_0, # of connection points: 5
#     Node 2, Type 0, BuildingBlock: BEQFEK_clean_sbu_0, # of connection points: 5
#     Node 3, Type 0, BuildingBlock: BEQFEK_clean_sbu_0, # of connection points: 5
#     Node 4, Type 0, BuildingBlock: BEQFEK_clean_sbu_0, # of connection points: 5
#     Node 5, Type 0, BuildingBlock: BEQFEK_clean_sbu_0, # of connection points: 5
#     Node 6, Type 0, BuildingBlock: BEQFEK_clean_sbu_0, # of connection points: 5
#     Node 7, Type 0, BuildingBlock: BEQFEK_clean_sbu_0, # of connection points: 5
#     Edge 8, Type (0, 0), BuildingBlock: XIVTED_clean_linker_0, # of connection points: 2
#     Edge 9, Type (0, 0), BuildingBlock: XIVTED_clean_linker_0, # of connection points: 2
#     Edge 10, Type (0, 0), BuildingBlock: XIVTED_clean_linker_0, # of connection points: 2
#     Edge 11, Type (0, 0), BuildingBlock: XIVTED_clean_linker_0, # of connection points: 2
#     Edge 12, Type (0, 0), BuildingBlock: XIVTED_clean_linker_0, # of connection points: 2
#     Edge 13, Type (0, 0), BuildingBlock: XIVTED_clean_linker_0, # of connection points: 2
#     Edge 14, Type (0, 0), BuildingBlock: XIVTED_clean_linker_0, # of connection points: 2
#     Edge 15, Type (0, 0), BuildingBlock: XIVTED_clean_linker_0, # of connection points: 2
#     Edge 16, Type (0, 0), BuildingBlock: XIVTED_clean_linker_0, # of connection points: 2
#     Edge 17, Type (0, 0), BuildingBlock: XIVTED_clean_linker_0, # of connection points: 2
#     Edge 18, Type (0, 0), BuildingBlock: XIVTED_clean_linker_0, # of connection points: 2
#     Edge 19, Type (0, 0), BuildingBlock: XIVTED_clean_linker_0, # of connection points: 2
#     Edge 20, Type (0, 0), BuildingBlock: XIVTED_clean_linker_0, # of connection points: 2
#     Edge 21, Type (0, 0), BuildingBlock: XIVTED_clean_linker_0, # of connection points: 2
#     Edge 22, Type (0, 0), BuildingBlock: XIVTED_clean_linker_0, # of connection points: 2
#     Edge 23, Type (0, 0), BuildingBlock: XIVTED_clean_linker_0, # of connection points: 2
#     Edge 24, Type (0, 0), BuildingBlock: XIVTED_clean_linker_0, # of connection points: 2
#     Edge 25, Type (0, 0), BuildingBlock: XIVTED_clean_linker_0, # of connection points: 2
#     Edge 26, Type (0, 0), BuildingBlock: XIVTED_clean_linker_0, # of connection points: 2
#     Edge 27, Type (0, 0), BuildingBlock: XIVTED_clean_linker_0, # of connection points: 2
# Relax obj value: 0.155
# Max RMSD: 0.153
# Mean RMSD: 0.153
data_MOF--net-noo--node1-BEQFEK_clean_sbu_0--edge1-XIVTED_clean_linker_0
_symmetry_space_group_name_H-M    P1
_symmetry_Int_Tables_number       1
_symmetry_cell_setting            triclinic
loop_
_symmetry_equiv_pos_as_xyz
'x, y, z'
_cell_length_a     40.655976
_cell_length_b     40.651379
_cell_length_c     29.321237
_cell_angle_alpha  89.989583
_cell_angle_beta   90.093889
_cell_angle_gamma 89.89127
loop_
_atom_site_label
_atom_site_type_symbol
_atom_site_fract_x
_atom_site_fract_y
_atom_site_fract_z
_atom_type_partial_charge
Co0 Co 0.37409 0.26816 0.04976 0.0
Co1 Co 0.40152 0.19715 0.06351 0.0
C2 C 0.36283 0.21249 0.98118 0.0
O3 O 0.35926 0.24228 0.99451 0.0
O4 O 0.37871 0.1915 1.00496 0.0
C5 C 0.32403 0.31915 0.04022 0.0
O6 O 0.30326 0.29524 0.03147 0.0
C7 C 0.42455 0.12755 0.07129 0.0
C8 C 0.45334 0.1323 0.13505 0.0
C9 C 0.44468 0.11018 0.10128 0.0
N10 N 0.42158 0.15851 0.08702 0.0
N11 N 0.43899 0.1611 0.12491 0.0
C12 C 0.40797 0.11513 0.02916 0.0
H13 H 0.38402 0.12779 0.02433 0.0
H14 H 0.40402 0.08816 0.0311 0.0
H15 H 0.42367 0.12063 0.9992 0.0
C16 C 0.34595 0.25361 0.14268 0.0
N17 N 0.3629 0.24554 0.1046 0.0
N18 N 0.37267 0.21478 0.10794 0.0
C19 C 0.36118 0.2019 0.14703 0.0
C20 C 0.34454 0.22616 0.17105 0.0
C21 C 0.33311 0.28733 0.15269 0.0
H22 H 0.35022 0.30614 0.1391 0.0
H23 H 0.30897 0.2905 0.13553 0.0
H24 H 0.32977 0.29107 0.18988 0.0
O25 O 0.42225 0.27647 0.0466 0.0
O26 O 0.43998 0.22539 0.05394 0.0
H27 H 0.38648 0.16226 0.18014 0.0
H28 H 0.34249 0.15865 0.18074 0.0
C29 C 0.36386 0.16629 0.15974 0.0
H30 H 0.3649 0.15076 0.12869 0.0
H31 H 0.44138 0.18281 0.14361 0.0
O32 O 0.3539 0.31236 0.04879 0.0
C33 C 0.44568 0.25576 0.0482 0.0
Co34 Co 0.73452 0.37397 0.05229 0.0
Co35 Co 0.8053 0.4009 0.06952 0.0
C36 C 0.79038 0.36442 0.9843 0.0
O37 O 0.76053 0.36029 0.99683 0.0
O38 O 0.81097 0.37978 1.00933 0.0
C39 C 0.6818 0.32676 0.03508 0.0
O40 O 0.70466 0.30685 0.01949 0.0
C41 C 0.87459 0.42406 0.07607 0.0
C42 C 0.87126 0.45098 0.14146 0.0
C43 C 0.89244 0.44378 0.10594 0.0
N44 N 0.84425 0.41999 0.09345 0.0
N45 N 0.84251 0.43625 0.13237 0.0
C46 C 0.88592 0.40909 0.03224 0.0
H47 H 0.87422 0.38471 0.02735 0.0
H48 H 0.91307 0.40623 0.03182 0.0
H49 H 0.87835 0.42521 1.00352 0.0
C50 C 0.74807 0.34199 0.14257 0.0
N51 N 0.75674 0.36101 0.1068 0.0
N52 N 0.78738 0.37061 0.11228 0.0
C53 C 0.79961 0.35688 0.15063 0.0
C54 C 0.77504 0.33857 0.17142 0.0
C55 C 0.71486 0.32681 0.14829 0.0
H56 H 0.69554 0.34565 0.14238 0.0
H57 H 0.71168 0.30721 0.12235 0.0
H58 H 0.71185 0.31584 0.18268 0.0
O59 O 0.72657 0.42215 0.05111 0.0
O60 O 0.77722 0.43997 0.06193 0.0
H61 H 0.83443 0.38394 0.19021 0.0
H62 H 0.8425 0.34069 0.18836 0.0
C63 C 0.83393 0.36194 0.16788 0.0
H64 H 0.85109 0.3656 0.13901 0.0
H65 H 0.82128 0.43795 0.15221 0.0
O66 O 0.68986 0.35485 0.05029 0.0
C67 C 0.74693 0.44564 0.05513 0.0
Co68 Co 0.62823 0.73417 0.0542 0.0
Co69 Co 0.60234 0.80551 0.07058 0.0
C70 C 0.6376 0.78951 0.98511 0.0
O71 O 0.64147 0.75971 0.99815 0.0
O72 O 0.62279 0.81058 1.00999 0.0
C73 C 0.67649 0.68221 0.03927 0.0
O74 O 0.6966 0.7057 0.02643 0.0
C75 C 0.5792 0.87487 0.07617 0.0
C76 C 0.55281 0.87217 0.14196 0.0
C77 C 0.55954 0.89299 0.10583 0.0
N78 N 0.58362 0.84475 0.09422 0.0
N79 N 0.56772 0.84339 0.13341 0.0
C80 C 0.59374 0.88572 0.03185 0.0
H81 H 0.61804 0.87385 0.02677 0.0
H82 H 0.59665 0.91285 0.03087 0.0
H83 H 0.57732 0.878 1.00357 0.0
C84 C 0.66069 0.74782 0.14421 0.0
N85 N 0.64186 0.7566 0.10819 0.0
N86 N 0.63285 0.78751 0.11306 0.0
C87 C 0.64685 0.79978 0.15115 0.0
C88 C 0.66466 0.77499 0.17247 0.0
C89 C 0.67495 0.71423 0.15095 0.0
H90 H 0.69561 0.71075 0.12677 0.0
H91 H 0.6844 0.71087 0.18616 0.0
H92 H 0.65606 0.69533 0.1434 0.0
O93 O 0.57996 0.72665 0.0541 0.0
O94 O 0.56309 0.77775 0.06426 0.0
H95 H 0.6207 0.83532 0.19073 0.0
H96 H 0.66399 0.84277 0.18753 0.0
C97 C 0.64235 0.83432 0.16781 0.0
H98 H 0.63843 0.85128 0.13871 0.0
H99 H 0.56627 0.82236 0.15373 0.0
O100 O 0.64758 0.68952 0.05212 0.0
C101 C 0.55685 0.74751 0.05822 0.0
Co102 Co 0.26863 0.62718 0.05426 0.0
Co103 Co 0.19672 0.60164 0.06438 0.0
C104 C 0.21424 0.6406 0.98393 0.0
O105 O 0.24409 0.64189 0.99774 0.0
O106 O 0.19187 0.62631 1.00704 0.0
C107 C 0.32053 0.67638 0.04793 0.0
O108 O 0.29702 0.69783 0.03982 0.0
C109 C 0.12693 0.57869 0.06996 0.0
C110 C 0.13119 0.54953 0.13342 0.0
C111 C 0.10937 0.55829 0.09925 0.0
N112 N 0.15769 0.58171 0.08649 0.0
N113 N 0.15997 0.56407 0.12421 0.0
C114 C 0.11489 0.59536 0.02765 0.0
H115 H 0.12784 0.61911 0.02287 0.0
H116 H 0.08796 0.5997 0.02932 0.0
H117 H 0.12031 0.57948 0.9978 0.0
C118 C 0.25271 0.65481 0.14719 0.0
N119 N 0.24507 0.63858 0.10832 0.0
N120 N 0.21409 0.62945 0.11022 0.0
C121 C 0.20066 0.64075 0.14907 0.0
C122 C 0.22475 0.65648 0.17451 0.0
C123 C 0.28648 0.6666 0.15898 0.0
H124 H 0.30519 0.64929 0.14543 0.0
H125 H 0.29047 0.69098 0.14293 0.0
H126 H 0.28957 0.66913 0.19643 0.0
O127 O 0.27629 0.57924 0.05144 0.0
O128 O 0.22471 0.56255 0.05438 0.0
H129 H 0.15991 0.6161 0.18013 0.0
H130 H 0.15714 0.66014 0.18137 0.0
C131 C 0.16477 0.63878 0.16029 0.0
H132 H 0.14984 0.63832 0.12861 0.0
H133 H 0.1815 0.56161 0.14336 0.0
O134 O 0.31319 0.64648 0.05498 0.0
C135 C 0.25518 0.55627 0.05084 0.0
Co136 Co 0.87227 0.23343 0.60448 0.0
Co137 Co 0.8988 0.30451 0.58831 0.0
C138 C 0.86292 0.28886 0.6735 0.0
O139 O 0.85886 0.2591 0.66043 0.0
O140 O 0.87806 0.30974 0.64875 0.0
C141 C 0.82405 0.18142 0.61931 0.0
O142 O 0.80392 0.20483 0.63261 0.0
C143 C 0.92208 0.37384 0.58255 0.0
C144 C 0.94862 0.37082 0.51689 0.0
C145 C 0.9417 0.39182 0.55276 0.0
N146 N 0.91781 0.34362 0.56479 0.0
N147 N 0.93385 0.34206 0.5257 0.0
C148 C 0.9074 0.38494 0.62668 0.0
H149 H 0.92379 0.37735 0.65512 0.0
H150 H 0.88312 0.37312 0.63178 0.0
H151 H 0.90445 0.41208 0.62737 0.0
C152 C 0.8402 0.24752 0.51425 0.0
N153 N 0.85903 0.25604 0.55035 0.0
N154 N 0.86834 0.28683 0.54552 0.0
C155 C 0.85455 0.29929 0.50736 0.0
C156 C 0.83655 0.27474 0.48595 0.0
C157 C 0.82556 0.21415 0.50755 0.0
H158 H 0.80506 0.21087 0.53203 0.0
H159 H 0.81582 0.21101 0.47246 0.0
H160 H 0.84432 0.19498 0.51476 0.0
O161 O 0.9205 0.22551 0.6051 0.0
O162 O 0.93789 0.27637 0.59496 0.0
H163 H 0.83789 0.34248 0.47079 0.0
H164 H 0.8632 0.3507 0.51992 0.0
C165 C 0.85935 0.3338 0.49076 0.0
H166 H 0.88114 0.33459 0.4681 0.0
H167 H 0.93537 0.32095 0.50556 0.0
O168 O 0.85286 0.18883 0.60624 0.0
C169 C 0.94383 0.24607 0.60113 0.0
Co170 Co 0.76609 0.87305 0.60646 0.0
Co171 Co 0.69561 0.90071 0.58878 0.0
C172 C 0.70985 0.86414 0.674 0.0
O173 O 0.73971 0.8598 0.66164 0.0
O174 O 0.68939 0.87964 0.64885 0.0
C175 C 0.81734 0.82404 0.62298 0.0
O176 O 0.79373 0.80436 0.63666 0.0
C177 C 0.62645 0.92427 0.58123 0.0
C178 C 0.63062 0.95218 0.51674 0.0
C179 C 0.60899 0.94456 0.55155 0.0
N180 N 0.657 0.92034 0.56448 0.0
N181 N 0.65924 0.93715 0.52606 0.0
C182 C 0.61455 0.90855 0.62425 0.0
H183 H 0.62646 0.8842 0.62886 0.0
H184 H 0.58744 0.90546 0.62365 0.0
H185 H 0.62139 0.9243 0.65366 0.0
C186 C 0.75264 0.84131 0.51602 0.0
N187 N 0.744 0.86035 0.55179 0.0
N188 N 0.71344 0.8703 0.54615 0.0
C189 C 0.70125 0.8568 0.50767 0.0
C190 C 0.72574 0.83824 0.48701 0.0
C191 C 0.78577 0.8258 0.51038 0.0
H192 H 0.80523 0.84418 0.51764 0.0
H193 H 0.78838 0.80548 0.53538 0.0
H194 H 0.7891 0.81565 0.47557 0.0
O195 O 0.77464 0.92118 0.60759 0.0
O196 O 0.72405 0.93936 0.59672 0.0
H197 H 0.66685 0.88478 0.46843 0.0
H198 H 0.6585 0.84158 0.46896 0.0
C199 C 0.66708 0.86243 0.49013 0.0
H200 H 0.64976 0.86588 0.51889 0.0
H201 H 0.6807 0.93901 0.50675 0.0
O202 O 0.81026 0.85279 0.60914 0.0
C203 C 0.75435 0.94482 0.60358 0.0
Co204 Co 0.12488 0.76805 0.60576 0.0
Co205 Co 0.09964 0.69606 0.59569 0.0
C206 C 0.13875 0.71382 0.67603 0.0
O207 O 0.13985 0.74365 0.66217 0.0
O208 O 0.12449 0.69134 0.65302 0.0
C209 C 0.17376 0.82003 0.61263 0.0
O210 O 0.19517 0.79653 0.62101 0.0
C211 C 0.07684 0.6262 0.59017 0.0
C212 C 0.04853 0.63 0.52588 0.0
C213 C 0.05685 0.60842 0.56052 0.0
N214 N 0.08004 0.65686 0.5734 0.0
N215 N 0.06292 0.65886 0.53518 0.0
C216 C 0.09297 0.61446 0.63305 0.0
H217 H 0.11668 0.6274 0.63826 0.0
H218 H 0.09729 0.58751 0.63183 0.0
H219 H 0.07674 0.62014 0.66242 0.0
C220 C 0.15298 0.75209 0.5132 0.0
N221 N 0.13636 0.74455 0.55174 0.0
N222 N 0.12737 0.71353 0.54984 0.0
C223 C 0.13921 0.69995 0.5114 0.0
C224 C 0.15512 0.72401 0.48611 0.0
C225 C 0.16489 0.78585 0.50162 0.0
H226 H 0.1478 0.80462 0.51551 0.0
H227 H 0.18943 0.78962 0.51737 0.0
H228 H 0.16715 0.78906 0.46417 0.0
O229 O 0.07699 0.77546 0.60868 0.0
O230 O 0.06034 0.72385 0.60592 0.0
H231 H 0.11578 0.65831 0.48062 0.0
H232 H 0.1599 0.65633 0.48079 0.0
C233 C 0.13808 0.66387 0.50098 0.0
H234 H 0.1374 0.64936 0.53299 0.0
H235 H 0.06069 0.68026 0.51573 0.0
O236 O 0.14392 0.81266 0.60517 0.0
C237 C 0.05405 0.75434 0.60947 0.0
Co238 Co 0.23262 0.12769 0.60214 0.0
Co239 Co 0.30372 0.10062 0.58763 0.0
C240 C 0.2882 0.13774 0.67125 0.0
O241 O 0.25842 0.14174 0.65803 0.0
O242 O 0.30907 0.12222 0.64694 0.0
C243 C 0.18115 0.17739 0.61129 0.0
O244 O 0.20494 0.1985 0.61903 0.0
C245 C 0.37336 0.07798 0.58053 0.0
C246 C 0.36942 0.05009 0.51598 0.0
C247 C 0.39111 0.05826 0.55055 0.0
N248 N 0.3426 0.08117 0.56408 0.0
N249 N 0.34049 0.06431 0.52569 0.0
C250 C 0.38523 0.09395 0.62342 0.0
H251 H 0.37271 0.11796 0.62829 0.0
H252 H 0.41225 0.09771 0.62249 0.0
H253 H 0.37909 0.07796 0.65286 0.0
C254 C 0.24717 0.15708 0.50972 0.0
N255 N 0.25527 0.13978 0.54757 0.0
N256 N 0.28608 0.13021 0.54417 0.0
C257 C 0.29898 0.14222 0.50542 0.0
C258 C 0.27466 0.15894 0.48153 0.0
C259 C 0.21339 0.16975 0.49965 0.0
H260 H 0.19466 0.15256 0.51324 0.0
H261 H 0.21012 0.1939 0.51669 0.0
H262 H 0.20963 0.17308 0.46243 0.0
O263 O 0.22458 0.07944 0.60398 0.0
O264 O 0.27561 0.06194 0.59543 0.0
H265 H 0.33893 0.11766 0.4721 0.0
H266 H 0.34221 0.16168 0.4726 0.0
C267 C 0.33466 0.13997 0.493 0.0
H268 H 0.35008 0.1386 0.52417 0.0
H269 H 0.319 0.06212 0.50642 0.0
O270 O 0.18817 0.14748 0.60346 0.0
C271 C 0.2453 0.05609 0.60119 0.0
H272 H 0.53685 0.9241 0.02788 0.0
H273 H 0.45528 0.06926 0.1722 0.0
H274 H 0.54732 0.93638 0.17338 0.0
H275 H 0.46466 0.07467 0.02583 0.0
H276 H 0.48368 0.01658 0.1714 0.0
H277 H 0.50713 0.9766 0.02439 0.0
C278 C 0.5337 0.93818 0.05887 0.0
C279 C 0.54511 0.92616 0.10094 0.0
C280 C 0.47935 0.02908 0.13932 0.0
C281 C 0.50999 0.98525 0.09739 0.0
C282 C 0.46296 0.05908 0.13975 0.0
C283 C 0.45736 0.0762 0.09902 0.0
C284 C 0.49051 0.01604 0.09782 0.0
C285 C 0.46783 0.06192 0.05792 0.0
C286 C 0.51632 0.96789 0.05692 0.0
C287 C 0.53903 0.94478 0.14024 0.0
N288 N 0.48412 0.03261 0.05835 0.0
N289 N 0.52182 0.97326 0.13752 0.0
H290 H 0.93552 0.45447 0.17435 0.0
H291 H 0.07444 0.53923 0.02261 0.0
H292 H 0.92437 0.4665 0.02894 0.0
H293 H 0.06825 0.54599 0.16922 0.0
H294 H 0.02138 0.51048 0.0218 0.0
H295 H 0.98744 0.4839 0.17083 0.0
C296 C 0.94427 0.46297 0.14152 0.0
C297 C 0.92582 0.45766 0.10184 0.0
C298 C 0.03153 0.51868 0.054 0.0
C299 C 0.98514 0.492 0.09752 0.0
C300 C 0.06157 0.53547 0.05445 0.0
C301 C 0.07556 0.54534 0.09606 0.0
C302 C 0.01582 0.51149 0.09547 0.0
C303 C 0.05837 0.53876 0.13641 0.0
C304 C 0.97384 0.47996 0.13953 0.0
C305 C 0.93824 0.46929 0.06019 0.0
N306 N 0.02957 0.52213 0.1351 0.0
N307 N 0.96719 0.48607 0.05909 0.0
H308 H 0.9525 0.43507 0.48469 0.0
H309 H 0.03691 0.57395 0.63706 0.0
H310 H 0.96462 0.42348 0.63004 0.0
H311 H 0.04532 0.56684 0.49069 0.0
H312 H 0.00806 0.52093 0.6377 0.0
H313 H 0.98213 0.48686 0.48859 0.0
C314 C 0.96106 0.44369 0.51759 0.0
C315 C 0.95571 0.42514 0.55714 0.0
C316 C 0.01666 0.53087 0.6056 0.0
C317 C 0.99027 0.48434 0.56188 0.0
C318 C 0.0335 0.56089 0.60526 0.0
C319 C 0.04385 0.57462 0.56375 0.0
C320 C 0.00988 0.51494 0.56412 0.0
C321 C 0.0377 0.55718 0.52342 0.0
C322 C 0.97816 0.47318 0.51979 0.0
C323 C 0.96743 0.43742 0.59889 0.0
N324 N 0.021 0.52842 0.52461 0.0
N325 N 0.9843 0.46632 0.60019 0.0
H326 H 0.57581 0.96528 0.62872 0.0
H327 H 0.43304 0.04829 0.48071 0.0
H328 H 0.56717 0.9579 0.48236 0.0
H329 H 0.42538 0.03724 0.62665 0.0
H330 H 0.48576 0.01997 0.48269 0.0
H331 H 0.523 0.99448 0.63077 0.0
C332 C 0.56246 0.969 0.59719 0.0
C333 C 0.57561 0.95863 0.55532 0.0
C334 C 0.47275 0.02391 0.51443 0.0
C335 C 0.51613 0.99314 0.5573 0.0
C336 C 0.44273 0.04025 0.51332 0.0
C337 C 0.42499 0.04542 0.5536 0.0
C338 C 0.4852 0.01237 0.55614 0.0
C339 C 0.43863 0.03446 0.59494 0.0
C340 C 0.53257 0.98609 0.59834 0.0
C341 C 0.5579 0.9654 0.51537 0.0
N342 N 0.46797 0.01826 0.59516 0.0
N343 N 0.5292 0.98229 0.51735 0.0
H344 H 0.3182 0.53183 0.0497 0.0
H345 H 0.26149 0.34363 0.02903 0.0
H346 H 0.21655 0.50144 0.04348 0.0
H347 H 0.36193 0.37395 0.05174 0.0
H348 H 0.24465 0.40148 0.02984 0.0
H349 H 0.3349 0.47411 0.04575 0.0
C350 C 0.29939 0.51307 0.04735 0.0
C351 C 0.26592 0.52155 0.04704 0.0
C352 C 0.27037 0.39543 0.03463 0.0
C353 C 0.28486 0.45539 0.04253 0.0
C354 C 0.28 0.36241 0.03413 0.0
C355 C 0.31315 0.3539 0.04037 0.0
C356 C 0.29411 0.42009 0.04123 0.0
C357 C 0.33607 0.3793 0.04686 0.0
C358 C 0.30894 0.4801 0.04519 0.0
C359 C 0.24264 0.49611 0.04395 0.0
N360 N 0.32612 0.4112 0.04708 0.0
N361 N 0.25256 0.46422 0.04185 0.0
H362 H 0.50004 0.21713 0.0369 0.0
H363 H 0.62833 0.36476 0.05593 0.0
H364 H 0.47042 0.31879 0.04964 0.0
H365 H 0.65541 0.26633 0.01514 0.0
H366 H 0.57068 0.34814 0.05714 0.0
H367 H 0.5572 0.23452 0.03205 0.0
C368 C 0.50552 0.24318 0.03862 0.0
C369 C 0.4803 0.26656 0.0438 0.0
C370 C 0.58921 0.33021 0.04777 0.0
C371 C 0.54601 0.2866 0.03842 0.0
C372 C 0.62218 0.33962 0.0472 0.0
C373 C 0.6468 0.31687 0.03545 0.0
C374 C 0.58073 0.29771 0.03691 0.0
C375 C 0.63729 0.2847 0.02435 0.0
C376 C 0.53823 0.25306 0.03572 0.0
C377 C 0.48901 0.29993 0.04561 0.0
N378 N 0.60501 0.27604 0.02555 0.0
N379 N 0.52118 0.30895 0.04317 0.0
H380 H 0.73851 0.65748 0.02525 0.0
H381 H 0.68352 0.46924 0.05148 0.0
H382 H 0.63893 0.62763 0.05479 0.0
H383 H 0.78484 0.501 0.05054 0.0
H384 H 0.66618 0.52684 0.04622 0.0
H385 H 0.75551 0.59972 0.02782 0.0
C386 C 0.72021 0.6388 0.03215 0.0
C387 C 0.68727 0.64743 0.03991 0.0
C388 C 0.6922 0.52114 0.04719 0.0
C389 C 0.70651 0.58132 0.04278 0.0
C390 C 0.70211 0.48827 0.0501 0.0
C391 C 0.73568 0.48023 0.05158 0.0
C392 C 0.71602 0.54613 0.04537 0.0
C393 C 0.75868 0.50597 0.04969 0.0
C394 C 0.72993 0.60585 0.03373 0.0
C395 C 0.66462 0.62216 0.04876 0.0
N396 N 0.74842 0.5377 0.04661 0.0
N397 N 0.67465 0.59028 0.04988 0.0
H398 H 0.37479 0.63715 0.05788 0.0
H399 H 0.50211 0.78662 0.05707 0.0
H400 H 0.34597 0.73868 0.04052 0.0
H401 H 0.53199 0.68462 0.0542 0.0
H402 H 0.44481 0.76946 0.05402 0.0
H403 H 0.43231 0.65408 0.05968 0.0
C404 C 0.38053 0.66305 0.05444 0.0
C405 C 0.35545 0.68656 0.04903 0.0
C406 C 0.46386 0.7508 0.05397 0.0
C407 C 0.42142 0.70608 0.05115 0.0
C408 C 0.49667 0.76056 0.0558 0.0
C409 C 0.52202 0.737 0.05594 0.0
C410 C 0.45615 0.7172 0.05252 0.0
C411 C 0.51331 0.70363 0.05412 0.0
C412 C 0.41343 0.67266 0.05539 0.0
C413 C 0.36445 0.71971 0.04471 0.0
N414 N 0.48109 0.69473 0.05262 0.0
N415 N 0.3967 0.72849 0.04597 0.0
H416 H 0.81779 0.96829 0.60684 0.0
H417 H 0.76226 0.15655 0.6339 0.0
H418 H 0.71642 1.00024 0.60864 0.0
H419 H 0.8618 0.1269 0.60308 0.0
H420 H 0.74555 0.09879 0.63141 0.0
H421 H 0.83504 0.0259 0.612 0.0
C422 C 0.79918 0.98735 0.60841 0.0
C423 C 0.76562 0.97937 0.60718 0.0
C424 C 0.77105 0.10495 0.6252 0.0
C425 C 0.78515 0.04525 0.61328 0.0
C426 C 0.78061 0.13792 0.62672 0.0
C427 C 0.81345 0.14661 0.6186 0.0
C428 C 0.79455 0.08046 0.61582 0.0
C429 C 0.83617 0.12138 0.60941 0.0
C430 C 0.80903 0.02023 0.61125 0.0
C431 C 0.74258 0.00516 0.60929 0.0
N432 N 0.82631 0.08947 0.60834 0.0
N433 N 0.75277 0.03687 0.61231 0.0
H434 H 0.02969 0.81733 0.60842 0.0
H435 H 0.842 0.76237 0.64085 0.0
H436 H 0.9993 0.71593 0.6201 0.0
H437 H 0.87187 0.86089 0.60489 0.0
H438 H 0.89981 0.7453 0.63945 0.0
H439 H 0.97212 0.83425 0.6134 0.0
C440 C 0.01096 0.79862 0.61218 0.0
C441 C 0.01939 0.76515 0.61371 0.0
C442 C 0.89365 0.77065 0.63189 0.0
C443 C 0.95338 0.78436 0.61947 0.0
C444 C 0.86068 0.78041 0.63276 0.0
C445 C 0.85206 0.81309 0.6229 0.0
C446 C 0.91816 0.79378 0.62138 0.0
C447 C 0.87731 0.83541 0.61259 0.0
C448 C 0.97806 0.80829 0.61491 0.0
C449 C 0.99398 0.74201 0.61861 0.0
N450 N 0.90916 0.82536 0.61217 0.0
N451 N 0.96215 0.75205 0.62132 0.0
H452 H 0.28414 0.00129 0.60479 0.0
H453 H 0.13454 0.87425 0.60226 0.0
H454 H 0.18223 0.03153 0.60464 0.0
H455 H 0.23598 0.84548 0.62084 0.0
H456 H 0.15146 0.93178 0.60066 0.0
H457 H 0.2668 0.94412 0.60842 0.0
C458 C 0.25805 0.99596 0.60556 0.0
C459 C 0.23458 0.02137 0.60434 0.0
C460 C 0.17001 0.91291 0.60518 0.0
C461 C 0.21457 0.9556 0.60841 0.0
C462 C 0.16041 0.88 0.60601 0.0
C463 C 0.18391 0.85494 0.6117 0.0
C464 C 0.2034 0.9209 0.60981 0.0
C465 C 0.21702 0.86394 0.61643 0.0
C466 C 0.24819 0.96321 0.60771 0.0
C467 C 0.20117 0.01279 0.60556 0.0
N468 N 0.22578 0.89619 0.61527 0.0
N469 N 0.19215 0.9806 0.60737 0.0
H470 H 0.96797 0.18286 0.6061 0.0
H471 H 0.15642 0.24002 0.61926 0.0
H472 H 0.99899 0.28439 0.60227 0.0
H473 H 0.12641 0.13888 0.6027 0.0
H474 H 0.09855 0.2566 0.61793 0.0
H475 H 0.02578 0.16602 0.60968 0.0
C476 C 0.98687 0.2016 0.60608 0.0
C477 C 0.97855 0.23508 0.60378 0.0
C478 C 0.10466 0.23078 0.61459 0.0
C479 C 0.04471 0.216 0.60798 0.0
C480 C 0.1377 0.2213 0.61542 0.0
C481 C 0.14632 0.18803 0.61102 0.0
C482 C 0.08003 0.2068 0.60954 0.0
C483 C 0.12096 0.16484 0.6061 0.0
C484 C 0.01987 0.19198 0.60805 0.0
C485 C 0.00416 0.25828 0.60385 0.0
N486 N 0.08901 0.17466 0.60554 0.0
N487 N 0.03601 0.2483 0.60596 0.0
H488 H 0.37797 0.20156 0.24309 0.0
H489 H 0.25603 0.21935 0.44594 0.0
H490 H 0.28428 0.24433 0.20735 0.0
H491 H 0.29997 0.12646 0.40924 0.0
H492 H 0.27013 0.24071 0.36924 0.0
H493 H 0.35631 0.18758 0.31811 0.0
C494 C 0.35284 0.20819 0.25119 0.0
C495 C 0.33258 0.22328 0.21863 0.0
C496 C 0.27622 0.21558 0.37818 0.0
C497 C 0.30798 0.2081 0.30488 0.0
C498 C 0.26815 0.20338 0.42162 0.0
C499 C 0.27759 0.17136 0.43414 0.0
C500 C 0.29419 0.19562 0.34806 0.0
C501 C 0.29321 0.15161 0.40151 0.0
C502 C 0.34059 0.20031 0.29398 0.0
C503 C 0.30054 0.23242 0.23153 0.0
N504 N 0.30157 0.16423 0.3604 0.0
N505 N 0.28898 0.22444 0.27385 0.0
H506 H 0.74088 0.35456 0.24812 0.0
H507 H 0.85369 0.24155 0.40888 0.0
H508 H 0.81377 0.28691 0.19744 0.0
H509 H 0.78463 0.31306 0.45971 0.0
H510 H 0.83332 0.2515 0.33124 0.0
H511 H 0.7503 0.33355 0.32555 0.0
C512 C 0.75845 0.33484 0.25335 0.0
C513 C 0.77681 0.32257 0.21671 0.0
C514 C 0.82229 0.26476 0.35937 0.0
C515 C 0.78812 0.2987 0.30493 0.0
C516 C 0.83379 0.25891 0.40363 0.0
C517 C 0.82092 0.27672 0.4404 0.0
C518 C 0.7978 0.28867 0.35194 0.0
C519 C 0.79536 0.2991 0.432 0.0
C520 C 0.76399 0.32298 0.29749 0.0
C521 C 0.79941 0.29719 0.22506 0.0
N522 N 0.78483 0.30469 0.38861 0.0
N523 N 0.80468 0.2863 0.26834 0.0
H524 H 0.76023 0.85384 0.41049 0.0
H525 H 0.64707 0.74199 0.24943 0.0
H526 H 0.68673 0.78701 0.4609 0.0
H527 H 0.71692 0.81256 0.19883 0.0
H528 H 0.66736 0.75169 0.32714 0.0
H529 H 0.75097 0.8328 0.33308 0.0
C530 C 0.74256 0.83429 0.40521 0.0
C531 C 0.724 0.82225 0.44175 0.0
C532 C 0.67858 0.76478 0.29904 0.0
C533 C 0.71286 0.79836 0.35357 0.0
C534 C 0.66713 0.75908 0.25475 0.0
C535 C 0.68026 0.77671 0.21803 0.0
C536 C 0.70327 0.78839 0.30655 0.0
C537 C 0.70601 0.79875 0.2265 0.0
C538 C 0.73712 0.82241 0.36109 0.0
C539 C 0.70126 0.7971 0.43335 0.0
N540 N 0.71648 0.80422 0.26992 0.0
N541 N 0.69608 0.78619 0.39008 0.0
H542 H 0.21426 0.74483 0.44913 0.0
H543 H 0.19862 0.62195 0.24421 0.0
H544 H 0.12414 0.69458 0.4154 0.0
H545 H 0.24298 0.71568 0.21398 0.0
H546 H 0.18377 0.64214 0.31968 0.0
H547 H 0.23581 0.73074 0.37259 0.0
C548 C 0.19894 0.73122 0.42555 0.0
C549 C 0.16766 0.72016 0.43889 0.0
C550 C 0.19696 0.65824 0.29666 0.0
C551 C 0.19224 0.70351 0.3529 0.0
C552 C 0.20537 0.6468 0.25362 0.0
C553 C 0.22122 0.66751 0.22247 0.0
C554 C 0.20493 0.69049 0.30926 0.0
C555 C 0.23049 0.69911 0.23705 0.0
C556 C 0.21126 0.72315 0.38219 0.0
C557 C 0.14878 0.70263 0.40715 0.0
N558 N 0.22198 0.70987 0.27959 0.0
N559 N 0.16153 0.69439 0.36607 0.0
H560 H 0.68159 0.7578 0.92888 0.0
H561 H 0.65412 0.88119 0.72054 0.0
H562 H 0.62046 0.84456 0.93695 0.0
H563 H 0.74048 0.81962 0.7308 0.0
H564 H 0.63707 0.86264 0.79604 0.0
H565 H 0.69956 0.77517 0.85269 0.0
C566 C 0.67196 0.78046 0.91471 0.0
C567 C 0.64949 0.79976 0.93944 0.0
C568 C 0.65976 0.85318 0.78178 0.0
C569 C 0.66964 0.81947 0.85222 0.0
C570 C 0.66945 0.86363 0.73853 0.0
C571 C 0.69886 0.85203 0.71923 0.0
C572 C 0.6793 0.83058 0.80589 0.0
C573 C 0.71771 0.82935 0.7444 0.0
C574 C 0.68229 0.79038 0.87131 0.0
C575 C 0.6379 0.82894 0.91933 0.0
N576 N 0.70755 0.81925 0.78637 0.0
N577 N 0.64792 0.83776 0.87687 0.0
H578 H 0.17183 0.65771 0.69878 0.0
H579 H 0.15816 0.6738 0.96152 0.0
H580 H 0.1382 0.74998 0.75451 0.0
H581 H 0.24984 0.63934 0.90502 0.0
H582 H 0.14239 0.69466 0.88582 0.0
H583 H 0.19334 0.64251 0.77438 0.0
C584 C 0.16912 0.67476 0.72691 0.0
C585 C 0.15337 0.70516 0.72056 0.0
C586 C 0.16604 0.68275 0.89027 0.0
C587 C 0.17693 0.68758 0.8067 0.0
C588 C 0.17498 0.67079 0.93319 0.0
C589 C 0.20537 0.655 0.93936 0.0
C590 C 0.18712 0.67779 0.8531 0.0
C591 C 0.2263 0.65163 0.90162 0.0
C592 C 0.18146 0.66615 0.76977 0.0
C593 C 0.15042 0.72642 0.75805 0.0
N594 N 0.21654 0.66242 0.85978 0.0
N595 N 0.16158 0.71699 0.79984 0.0
H596 H 0.34379 0.12117 0.71816 0.0
H597 H 0.31802 0.24457 0.92607 0.0
H598 H 0.25691 0.18205 0.72797 0.0
H599 H 0.37795 0.1569 0.93339 0.0
H600 H 0.29873 0.22716 0.85032 0.0
H601 H 0.36069 0.13976 0.79349 0.0
C602 C 0.32828 0.1386 0.73603 0.0
C603 C 0.29879 0.15 0.71661 0.0
C604 C 0.31599 0.21176 0.86876 0.0
C605 C 0.31823 0.17149 0.8033 0.0
C606 C 0.32707 0.22169 0.91188 0.0
C607 C 0.34968 0.20219 0.93618 0.0
C608 C 0.32807 0.18248 0.8496 0.0
C609 C 0.36048 0.17273 0.91611 0.0
C610 C 0.33791 0.14907 0.77924 0.0
C611 C 0.27975 0.17251 0.7417 0.0
N612 N 0.34979 0.16395 0.87397 0.0
N613 N 0.28987 0.18266 0.78375 0.0
H614 H 0.81855 0.25761 0.72956 0.0
H615 H 0.84607 0.38111 0.93761 0.0
H616 H 0.88008 0.34386 0.7216 0.0
H617 H 0.75955 0.3201 0.9275 0.0
H618 H 0.86308 0.36237 0.86219 0.0
H619 H 0.80038 0.27525 0.80558 0.0
C620 C 0.82823 0.28022 0.74372 0.0
C621 C 0.85087 0.29928 0.71906 0.0
C622 C 0.84037 0.35308 0.87645 0.0
C623 C 0.83049 0.31931 0.8061 0.0
C624 C 0.83069 0.36363 0.91967 0.0
C625 C 0.80125 0.35223 0.93901 0.0
C626 C 0.82078 0.33056 0.85238 0.0
C627 C 0.78234 0.32966 0.91387 0.0
C628 C 0.81778 0.29029 0.78702 0.0
C629 C 0.86251 0.32841 0.73915 0.0
N630 N 0.79249 0.31945 0.87192 0.0
N631 N 0.85237 0.33738 0.78151 0.0
loop_
_geom_bond_atom_site_label_1
_geom_bond_atom_site_label_2
_geom_bond_distance
_geom_bond_site_symmetry_2
_ccdc_geom_bond_type
Co0 O3 1.970 1_554 S
Co0 N17 1.989 . S
Co0 O25 1.967 . S
Co0 O32 1.920 . S
Co1 O4 1.966 1_554 S
Co1 N10 2.022 . S
Co1 N18 1.993 . S
Co1 O26 1.941 . S
C2 O3 1.258 . S
C2 O4 1.263 . S
O3 Co0 1.970 1_556 S
O3 C2 1.258 . S
O4 Co1 1.966 1_556 S
O4 C2 1.263 . S
C5 O6 1.235 . S
C5 O32 1.289 . S
O6 C5 1.235 . S
C7 C9 1.400 . S
C7 N10 1.351 . S
C7 C12 1.501 1_554 S
C8 C9 1.387 . S
C8 N11 1.341 . S
C9 C7 1.400 . S
C9 C8 1.387 . S
N10 Co1 2.022 . S
N10 C7 1.351 . S
N10 N11 1.365 . S
N11 C8 1.341 . S
N11 N10 1.365 . S
N11 H31 0.862 . S
C12 C7 1.501 1_556 S
C12 H13 0.961 . S
C12 H14 0.966 . S
C12 H15 0.960 . S
H13 C12 0.961 . S
H14 C12 0.966 . S
H15 C12 0.960 . S
C16 N17 1.342 . S
C16 C20 1.401 . S
C16 C21 1.499 . S
N17 Co0 1.989 . S
N17 C16 1.342 . S
N17 N18 1.388 . S
N18 Co1 1.993 . S
N18 N17 1.388 . S
N18 C19 1.346 . S
C19 N18 1.346 . S
C19 C20 1.396 . S
C19 C29 1.510 . S
C20 C16 1.401 . S
C20 C19 1.396 . S
C21 C16 1.499 . S
C21 H22 0.959 . S
C21 H23 0.960 . S
C21 H24 0.961 . S
H22 C21 0.959 . S
H23 C21 0.960 . S
H24 C21 0.961 . S
O25 Co0 1.967 . S
O25 C33 1.258 . S
O26 Co1 1.941 . S
O26 C33 1.266 . S
H27 C29 0.959 . S
H28 C29 0.961 . S
C29 C19 1.510 . S
C29 H27 0.959 . S
C29 H28 0.961 . S
C29 H30 0.960 . S
H30 C29 0.960 . S
H31 N11 0.862 . S
O32 Co0 1.920 . S
O32 C5 1.289 . S
C33 O25 1.258 . S
C33 O26 1.266 . S
Co34 O37 1.970 1_554 S
Co34 N51 1.989 . S
Co34 O59 1.967 . S
Co34 O66 1.920 . S
Co35 O38 1.966 1_554 S
Co35 N44 2.022 . S
Co35 N52 1.993 . S
Co35 O60 1.941 . S
C36 O37 1.258 . S
C36 O38 1.263 . S
O37 Co34 1.970 1_556 S
O37 C36 1.258 . S
O38 Co35 1.966 1_556 S
O38 C36 1.263 . S
C39 O40 1.235 . S
C39 O66 1.289 . S
O40 C39 1.235 . S
C41 C43 1.400 . S
C41 N44 1.351 . S
C41 C46 1.501 1_554 S
C42 C43 1.387 . S
C42 N45 1.341 . S
C43 C41 1.400 . S
C43 C42 1.387 . S
N44 Co35 2.022 . S
N44 C41 1.351 . S
N44 N45 1.365 . S
N45 C42 1.341 . S
N45 N44 1.365 . S
N45 H65 0.862 . S
C46 C41 1.501 1_556 S
C46 H47 0.961 . S
C46 H48 0.966 . S
C46 H49 0.960 . S
H47 C46 0.961 . S
H48 C46 0.966 . S
H49 C46 0.960 . S
C50 N51 1.342 . S
C50 C54 1.401 . S
C50 C55 1.499 . S
N51 Co34 1.989 . S
N51 C50 1.342 . S
N51 N52 1.388 . S
N52 Co35 1.993 . S
N52 N51 1.388 . S
N52 C53 1.346 . S
C53 N52 1.346 . S
C53 C54 1.396 . S
C53 C63 1.510 . S
C54 C50 1.401 . S
C54 C53 1.396 . S
C55 C50 1.499 . S
C55 H56 0.959 . S
C55 H57 0.960 . S
C55 H58 0.961 . S
H56 C55 0.959 . S
H57 C55 0.960 . S
H58 C55 0.961 . S
O59 Co34 1.967 . S
O59 C67 1.258 . S
O60 Co35 1.941 . S
O60 C67 1.266 . S
H61 C63 0.959 . S
H62 C63 0.961 . S
C63 C53 1.510 . S
C63 H61 0.959 . S
C63 H62 0.961 . S
C63 H64 0.960 . S
H64 C63 0.960 . S
H65 N45 0.862 . S
O66 Co34 1.920 . S
O66 C39 1.289 . S
C67 O59 1.258 . S
C67 O60 1.266 . S
Co68 O71 1.970 1_554 S
Co68 N85 1.989 . S
Co68 O93 1.967 . S
Co68 O100 1.920 . S
Co69 O72 1.966 1_554 S
Co69 N78 2.022 . S
Co69 N86 1.993 . S
Co69 O94 1.941 . S
C70 O71 1.258 . S
C70 O72 1.263 . S
O71 Co68 1.970 1_556 S
O71 C70 1.258 . S
O72 Co69 1.966 1_556 S
O72 C70 1.263 . S
C73 O74 1.235 . S
C73 O100 1.289 . S
O74 C73 1.235 . S
C75 C77 1.400 . S
C75 N78 1.351 . S
C75 C80 1.501 1_554 S
C76 C77 1.387 . S
C76 N79 1.341 . S
C77 C75 1.400 . S
C77 C76 1.387 . S
N78 Co69 2.022 . S
N78 C75 1.351 . S
N78 N79 1.365 . S
N79 C76 1.341 . S
N79 N78 1.365 . S
N79 H99 0.862 . S
C80 C75 1.501 1_556 S
C80 H81 0.961 . S
C80 H82 0.966 . S
C80 H83 0.960 . S
H81 C80 0.961 . S
H82 C80 0.966 . S
H83 C80 0.960 . S
C84 N85 1.342 . S
C84 C88 1.401 . S
C84 C89 1.499 . S
N85 Co68 1.989 . S
N85 C84 1.342 . S
N85 N86 1.388 . S
N86 Co69 1.993 . S
N86 N85 1.388 . S
N86 C87 1.346 . S
C87 N86 1.346 . S
C87 C88 1.396 . S
C87 C97 1.510 . S
C88 C84 1.401 . S
C88 C87 1.396 . S
C89 C84 1.499 . S
C89 H90 0.959 . S
C89 H91 0.960 . S
C89 H92 0.961 . S
H90 C89 0.959 . S
H91 C89 0.960 . S
H92 C89 0.961 . S
O93 Co68 1.967 . S
O93 C101 1.258 . S
O94 Co69 1.941 . S
O94 C101 1.266 . S
H95 C97 0.959 . S
H96 C97 0.961 . S
C97 C87 1.510 . S
C97 H95 0.959 . S
C97 H96 0.961 . S
C97 H98 0.960 . S
H98 C97 0.960 . S
H99 N79 0.862 . S
O100 Co68 1.920 . S
O100 C73 1.289 . S
C101 O93 1.258 . S
C101 O94 1.266 . S
Co102 O105 1.970 1_554 S
Co102 N119 1.989 . S
Co102 O127 1.967 . S
Co102 O134 1.920 . S
Co103 O106 1.966 1_554 S
Co103 N112 2.022 . S
Co103 N120 1.993 . S
Co103 O128 1.941 . S
C104 O105 1.258 . S
C104 O106 1.263 . S
O105 Co102 1.970 1_556 S
O105 C104 1.258 . S
O106 Co103 1.966 1_556 S
O106 C104 1.263 . S
C107 O108 1.235 . S
C107 O134 1.289 . S
O108 C107 1.235 . S
C109 C111 1.400 . S
C109 N112 1.351 . S
C109 C114 1.501 1_554 S
C110 C111 1.387 . S
C110 N113 1.341 . S
C111 C109 1.400 . S
C111 C110 1.387 . S
N112 Co103 2.022 . S
N112 C109 1.351 . S
N112 N113 1.365 . S
N113 C110 1.341 . S
N113 N112 1.365 . S
N113 H133 0.862 . S
C114 C109 1.501 1_556 S
C114 H115 0.961 . S
C114 H116 0.966 . S
C114 H117 0.960 . S
H115 C114 0.961 . S
H116 C114 0.966 . S
H117 C114 0.960 . S
C118 N119 1.342 . S
C118 C122 1.401 . S
C118 C123 1.499 . S
N119 Co102 1.989 . S
N119 C118 1.342 . S
N119 N120 1.388 . S
N120 Co103 1.993 . S
N120 N119 1.388 . S
N120 C121 1.346 . S
C121 N120 1.346 . S
C121 C122 1.396 . S
C121 C131 1.510 . S
C122 C118 1.401 . S
C122 C121 1.396 . S
C123 C118 1.499 . S
C123 H124 0.959 . S
C123 H125 0.960 . S
C123 H126 0.961 . S
H124 C123 0.959 . S
H125 C123 0.960 . S
H126 C123 0.961 . S
O127 Co102 1.967 . S
O127 C135 1.258 . S
O128 Co103 1.941 . S
O128 C135 1.266 . S
H129 C131 0.959 . S
H130 C131 0.961 . S
C131 C121 1.510 . S
C131 H129 0.959 . S
C131 H130 0.961 . S
C131 H132 0.960 . S
H132 C131 0.960 . S
H133 N113 0.862 . S
O134 Co102 1.920 . S
O134 C107 1.289 . S
C135 O127 1.258 . S
C135 O128 1.266 . S
Co136 O139 1.970 . S
Co136 N153 1.989 . S
Co136 O161 1.967 . S
Co136 O168 1.920 . S
Co137 O140 1.966 . S
Co137 N146 2.022 . S
Co137 N154 1.993 . S
Co137 O162 1.941 . S
C138 O139 1.258 . S
C138 O140 1.263 . S
O139 Co136 1.970 . S
O139 C138 1.258 . S
O140 Co137 1.966 . S
O140 C138 1.263 . S
C141 O142 1.235 . S
C141 O168 1.289 . S
O142 C141 1.235 . S
C143 C145 1.400 . S
C143 N146 1.351 . S
C143 C148 1.501 . S
C144 C145 1.387 . S
C144 N147 1.341 . S
C145 C143 1.400 . S
C145 C144 1.387 . S
N146 Co137 2.022 . S
N146 C143 1.351 . S
N146 N147 1.365 . S
N147 C144 1.341 . S
N147 N146 1.365 . S
N147 H167 0.862 . S
C148 C143 1.501 . S
C148 H149 0.961 . S
C148 H150 0.961 . S
C148 H151 0.960 . S
H149 C148 0.961 . S
H150 C148 0.961 . S
H151 C148 0.960 . S
C152 N153 1.342 . S
C152 C156 1.401 . S
C152 C157 1.499 . S
N153 Co136 1.989 . S
N153 C152 1.342 . S
N153 N154 1.388 . S
N154 Co137 1.993 . S
N154 N153 1.388 . S
N154 C155 1.346 . S
C155 N154 1.346 . S
C155 C156 1.396 . S
C155 C165 1.510 . S
C156 C152 1.401 . S
C156 C155 1.396 . S
C157 C152 1.499 . S
C157 H158 0.959 . S
C157 H159 0.960 . S
C157 H160 0.961 . S
H158 C157 0.959 . S
H159 C157 0.960 . S
H160 C157 0.961 . S
O161 Co136 1.967 . S
O161 C169 1.258 . S
O162 Co137 1.941 . S
O162 C169 1.266 . S
H163 C165 0.959 . S
H164 C165 0.961 . S
C165 C155 1.510 . S
C165 H163 0.959 . S
C165 H164 0.961 . S
C165 H166 0.960 . S
H166 C165 0.960 . S
H167 N147 0.862 . S
O168 Co136 1.920 . S
O168 C141 1.289 . S
C169 O161 1.258 . S
C169 O162 1.266 . S
Co170 O173 1.970 . S
Co170 N187 1.989 . S
Co170 O195 1.967 . S
Co170 O202 1.920 . S
Co171 O174 1.966 . S
Co171 N180 2.022 . S
Co171 N188 1.993 . S
Co171 O196 1.941 . S
C172 O173 1.258 . S
C172 O174 1.263 . S
O173 Co170 1.970 . S
O173 C172 1.258 . S
O174 Co171 1.966 . S
O174 C172 1.263 . S
C175 O176 1.235 . S
C175 O202 1.289 . S
O176 C175 1.235 . S
C177 C179 1.400 . S
C177 N180 1.351 . S
C177 C182 1.501 . S
C178 C179 1.387 . S
C178 N181 1.341 . S
C179 C177 1.400 . S
C179 C178 1.387 . S
N180 Co171 2.022 . S
N180 C177 1.351 . S
N180 N181 1.365 . S
N181 C178 1.341 . S
N181 N180 1.365 . S
N181 H201 0.862 . S
C182 C177 1.501 . S
C182 H183 0.961 . S
C182 H184 0.961 . S
C182 H185 0.960 . S
H183 C182 0.961 . S
H184 C182 0.961 . S
H185 C182 0.960 . S
C186 N187 1.342 . S
C186 C190 1.401 . S
C186 C191 1.499 . S
N187 Co170 1.989 . S
N187 C186 1.342 . S
N187 N188 1.388 . S
N188 Co171 1.993 . S
N188 N187 1.388 . S
N188 C189 1.346 . S
C189 N188 1.346 . S
C189 C190 1.396 . S
C189 C199 1.510 . S
C190 C186 1.401 . S
C190 C189 1.396 . S
C191 C186 1.499 . S
C191 H192 0.959 . S
C191 H193 0.960 . S
C191 H194 0.961 . S
H192 C191 0.959 . S
H193 C191 0.960 . S
H194 C191 0.961 . S
O195 Co170 1.967 . S
O195 C203 1.258 . S
O196 Co171 1.941 . S
O196 C203 1.266 . S
H197 C199 0.959 . S
H198 C199 0.961 . S
C199 C189 1.510 . S
C199 H197 0.959 . S
C199 H198 0.961 . S
C199 H200 0.960 . S
H200 C199 0.960 . S
H201 N181 0.862 . S
O202 Co170 1.920 . S
O202 C175 1.289 . S
C203 O195 1.258 . S
C203 O196 1.266 . S
Co204 O207 1.970 . S
Co204 N221 1.989 . S
Co204 O229 1.967 . S
Co204 O236 1.920 . S
Co205 O208 1.966 . S
Co205 N214 2.022 . S
Co205 N222 1.993 . S
Co205 O230 1.941 . S
C206 O207 1.258 . S
C206 O208 1.263 . S
O207 Co204 1.970 . S
O207 C206 1.258 . S
O208 Co205 1.966 . S
O208 C206 1.263 . S
C209 O210 1.235 . S
C209 O236 1.289 . S
O210 C209 1.235 . S
C211 C213 1.400 . S
C211 N214 1.351 . S
C211 C216 1.501 . S
C212 C213 1.387 . S
C212 N215 1.341 . S
C213 C211 1.400 . S
C213 C212 1.387 . S
N214 Co205 2.022 . S
N214 C211 1.351 . S
N214 N215 1.365 . S
N215 C212 1.341 . S
N215 N214 1.365 . S
N215 H235 0.862 . S
C216 C211 1.501 . S
C216 H217 0.961 . S
C216 H218 0.961 . S
C216 H219 0.960 . S
H217 C216 0.961 . S
H218 C216 0.961 . S
H219 C216 0.960 . S
C220 N221 1.342 . S
C220 C224 1.401 . S
C220 C225 1.499 . S
N221 Co204 1.989 . S
N221 C220 1.342 . S
N221 N222 1.388 . S
N222 Co205 1.993 . S
N222 N221 1.388 . S
N222 C223 1.346 . S
C223 N222 1.346 . S
C223 C224 1.396 . S
C223 C233 1.510 . S
C224 C220 1.401 . S
C224 C223 1.396 . S
C225 C220 1.499 . S
C225 H226 0.959 . S
C225 H227 0.960 . S
C225 H228 0.961 . S
H226 C225 0.959 . S
H227 C225 0.960 . S
H228 C225 0.961 . S
O229 Co204 1.967 . S
O229 C237 1.258 . S
O230 Co205 1.941 . S
O230 C237 1.266 . S
H231 C233 0.959 . S
H232 C233 0.961 . S
C233 C223 1.510 . S
C233 H231 0.959 . S
C233 H232 0.961 . S
C233 H234 0.960 . S
H234 C233 0.960 . S
H235 N215 0.862 . S
O236 Co204 1.920 . S
O236 C209 1.289 . S
C237 O229 1.258 . S
C237 O230 1.266 . S
Co238 O241 1.970 . S
Co238 N255 1.989 . S
Co238 O263 1.967 . S
Co238 O270 1.920 . S
Co239 O242 1.966 . S
Co239 N248 2.022 . S
Co239 N256 1.993 . S
Co239 O264 1.941 . S
C240 O241 1.258 . S
C240 O242 1.263 . S
O241 Co238 1.970 . S
O241 C240 1.258 . S
O242 Co239 1.966 . S
O242 C240 1.263 . S
C243 O244 1.235 . S
C243 O270 1.289 . S
O244 C243 1.235 . S
C245 C247 1.400 . S
C245 N248 1.351 . S
C245 C250 1.501 . S
C246 C247 1.387 . S
C246 N249 1.341 . S
C247 C245 1.400 . S
C247 C246 1.387 . S
N248 Co239 2.022 . S
N248 C245 1.351 . S
N248 N249 1.365 . S
N249 C246 1.341 . S
N249 N248 1.365 . S
N249 H269 0.862 . S
C250 C245 1.501 . S
C250 H251 0.961 . S
C250 H252 0.961 . S
C250 H253 0.960 . S
H251 C250 0.961 . S
H252 C250 0.961 . S
H253 C250 0.960 . S
C254 N255 1.342 . S
C254 C258 1.401 . S
C254 C259 1.499 . S
N255 Co238 1.989 . S
N255 C254 1.342 . S
N255 N256 1.388 . S
N256 Co239 1.993 . S
N256 N255 1.388 . S
N256 C257 1.346 . S
C257 N256 1.346 . S
C257 C258 1.396 . S
C257 C267 1.510 . S
C258 C254 1.401 . S
C258 C257 1.396 . S
C259 C254 1.499 . S
C259 H260 0.959 . S
C259 H261 0.960 . S
C259 H262 0.961 . S
H260 C259 0.959 . S
H261 C259 0.960 . S
H262 C259 0.961 . S
O263 Co238 1.967 . S
O263 C271 1.258 . S
O264 Co239 1.941 . S
O264 C271 1.266 . S
H265 C267 0.959 . S
H266 C267 0.961 . S
C267 C257 1.510 . S
C267 H265 0.959 . S
C267 H266 0.961 . S
C267 H268 0.960 . S
H268 C267 0.960 . S
H269 N249 0.862 . S
O270 Co238 1.920 . S
O270 C243 1.289 . S
C271 O263 1.258 . S
C271 O264 1.266 . S
H272 C278 0.930 1_556 S
H273 C282 0.930 . S
H274 C287 0.929 . S
H275 C285 0.929 1_556 S
H276 C280 0.929 . S
H277 C286 0.929 1_556 S
C278 H272 0.930 1_554 S
C278 C279 1.367 . S
C278 C286 1.378 . S
C279 C278 1.367 . S
C279 C287 1.433 . S
C280 H276 0.929 . S
C280 C282 1.378 . S
C280 C284 1.350 . S
C281 C284 1.463 1_565 S
C281 C286 1.350 . S
C281 N289 1.427 . S
C282 H273 0.930 . S
C282 C280 1.378 . S
C282 C283 1.367 . S
C283 C282 1.367 . S
C283 C285 1.433 . S
C284 C280 1.350 . S
C284 C281 1.463 1_545 S
C284 N288 1.427 . S
C285 H275 0.929 1_554 S
C285 C283 1.433 . S
C285 N288 1.384 . S
C286 H277 0.929 1_554 S
C286 C278 1.378 . S
C286 C281 1.350 . S
C287 H274 0.929 . S
C287 C279 1.433 . S
C287 N289 1.384 . S
N288 C284 1.427 . S
N288 C285 1.384 . S
N289 C281 1.427 . S
N289 C287 1.384 . S
H290 C296 0.930 . S
H291 C300 0.930 1_556 S
H292 C305 0.929 1_556 S
H293 C303 0.929 . S
H294 C298 0.929 1_556 S
H295 C304 0.929 . S
C296 H290 0.930 . S
C296 C297 1.367 . S
C296 C304 1.378 . S
C297 C296 1.367 . S
C297 C305 1.433 . S
C298 H294 0.929 1_554 S
C298 C300 1.378 . S
C298 C302 1.350 . S
C299 C302 1.463 1_655 S
C299 C304 1.350 . S
C299 N307 1.427 . S
C300 H291 0.930 1_554 S
C300 C298 1.378 . S
C300 C301 1.367 . S
C301 C300 1.367 . S
C301 C303 1.433 . S
C302 C298 1.350 . S
C302 C299 1.463 1_455 S
C302 N306 1.427 . S
C303 H293 0.929 . S
C303 C301 1.433 . S
C303 N306 1.384 . S
C304 H295 0.929 . S
C304 C296 1.378 . S
C304 C299 1.350 . S
C305 H292 0.929 1_554 S
C305 C297 1.433 . S
C305 N307 1.384 . S
N306 C302 1.427 . S
N306 C303 1.384 . S
N307 C299 1.427 . S
N307 C305 1.384 . S
H308 C314 0.930 . S
H309 C318 0.930 . S
H310 C323 0.929 . S
H311 C321 0.929 . S
H312 C316 0.929 . S
H313 C322 0.929 . S
C314 H308 0.930 . S
C314 C315 1.367 . S
C314 C322 1.378 . S
C315 C314 1.367 . S
C315 C323 1.433 . S
C316 H312 0.929 . S
C316 C318 1.378 . S
C316 C320 1.350 . S
C317 C320 1.463 1_655 S
C317 C322 1.350 . S
C317 N325 1.427 . S
C318 H309 0.930 . S
C318 C316 1.378 . S
C318 C319 1.367 . S
C319 C318 1.367 . S
C319 C321 1.433 . S
C320 C316 1.350 . S
C320 C317 1.463 1_455 S
C320 N324 1.427 . S
C321 H311 0.929 . S
C321 C319 1.433 . S
C321 N324 1.384 . S
C322 H313 0.929 . S
C322 C314 1.378 . S
C322 C317 1.350 . S
C323 H310 0.929 . S
C323 C315 1.433 . S
C323 N325 1.384 . S
N324 C320 1.427 . S
N324 C321 1.384 . S
N325 C317 1.427 . S
N325 C323 1.384 . S
H326 C332 0.930 . S
H327 C336 0.930 . S
H328 C341 0.929 . S
H329 C339 0.929 . S
H330 C334 0.929 . S
H331 C340 0.929 . S
C332 H326 0.930 . S
C332 C333 1.367 . S
C332 C340 1.378 . S
C333 C332 1.367 . S
C333 C341 1.433 . S
C334 H330 0.929 . S
C334 C336 1.378 . S
C334 C338 1.350 . S
C335 C338 1.463 1_565 S
C335 C340 1.350 . S
C335 N343 1.427 . S
C336 H327 0.930 . S
C336 C334 1.378 . S
C336 C337 1.367 . S
C337 C336 1.367 . S
C337 C339 1.433 . S
C338 C334 1.350 . S
C338 C335 1.463 1_545 S
C338 N342 1.427 . S
C339 H329 0.929 . S
C339 C337 1.433 . S
C339 N342 1.384 . S
C340 H331 0.929 . S
C340 C332 1.378 . S
C340 C335 1.350 . S
C341 H328 0.929 . S
C341 C333 1.433 . S
C341 N343 1.384 . S
N342 C338 1.427 . S
N342 C339 1.384 . S
N343 C335 1.427 . S
N343 C341 1.384 . S
H344 C350 0.930 . S
H345 C354 0.930 1_556 S
H346 C359 0.929 . S
H347 C357 0.929 . S
H348 C352 0.929 1_556 S
H349 C358 0.929 . S
C350 H344 0.930 . S
C350 C351 1.367 . S
C350 C358 1.378 . S
C351 C350 1.367 . S
C351 C359 1.433 1_554 S
C352 H348 0.929 1_554 S
C352 C354 1.378 . S
C352 C356 1.350 . S
C353 C356 1.463 . S
C353 C358 1.350 . S
C353 N361 1.427 1_554 S
C354 H345 0.930 1_554 S
C354 C352 1.378 . S
C354 C355 1.367 . S
C355 C354 1.367 . S
C355 C357 1.433 . S
C356 C352 1.350 . S
C356 C353 1.463 . S
C356 N360 1.427 . S
C357 H347 0.929 . S
C357 C355 1.433 . S
C357 N360 1.384 . S
C358 H349 0.929 . S
C358 C350 1.378 . S
C358 C353 1.350 . S
C359 H346 0.929 . S
C359 C351 1.433 1_556 S
C359 N361 1.384 . S
N360 C356 1.427 . S
N360 C357 1.384 . S
N361 C353 1.427 1_556 S
N361 C359 1.384 . S
H362 C368 0.930 . S
H363 C372 0.930 . S
H364 C377 0.929 . S
H365 C375 0.929 . S
H366 C370 0.929 . S
H367 C376 0.929 . S
C368 H362 0.930 . S
C368 C369 1.367 . S
C368 C376 1.378 . S
C369 C368 1.367 . S
C369 C377 1.433 . S
C370 H366 0.929 . S
C370 C372 1.378 . S
C370 C374 1.350 . S
C371 C374 1.463 . S
C371 C376 1.350 . S
C371 N379 1.427 . S
C372 H363 0.930 . S
C372 C370 1.378 . S
C372 C373 1.367 . S
C373 C372 1.367 . S
C373 C375 1.433 . S
C374 C370 1.350 . S
C374 C371 1.463 . S
C374 N378 1.427 . S
C375 H365 0.929 . S
C375 C373 1.433 . S
C375 N378 1.384 . S
C376 H367 0.929 . S
C376 C368 1.378 . S
C376 C371 1.350 . S
C377 H364 0.929 . S
C377 C369 1.433 . S
C377 N379 1.384 . S
N378 C374 1.427 . S
N378 C375 1.384 . S
N379 C371 1.427 . S
N379 C377 1.384 . S
H380 C386 0.930 1_556 S
H381 C390 0.930 . S
H382 C395 0.929 . S
H383 C393 0.929 . S
H384 C388 0.929 . S
H385 C394 0.929 1_556 S
C386 H380 0.930 1_554 S
C386 C387 1.367 . S
C386 C394 1.378 . S
C387 C386 1.367 . S
C387 C395 1.433 . S
C388 H384 0.929 . S
C388 C390 1.378 . S
C388 C392 1.350 . S
C389 C392 1.463 . S
C389 C394 1.350 . S
C389 N397 1.427 . S
C390 H381 0.930 . S
C390 C388 1.378 . S
C390 C391 1.367 . S
C391 C390 1.367 . S
C391 C393 1.433 1_554 S
C392 C388 1.350 . S
C392 C389 1.463 . S
C392 N396 1.430 . S
C393 H383 0.929 . S
C393 C391 1.433 1_556 S
C393 N396 1.383 1_556 S
C394 H385 0.929 1_554 S
C394 C386 1.378 . S
C394 C389 1.350 . S
C395 H382 0.929 . S
C395 C387 1.433 . S
C395 N397 1.384 . S
N396 C392 1.430 . S
N396 C393 1.383 1_554 S
N397 C389 1.427 . S
N397 C395 1.384 . S
H398 C404 0.930 . S
H399 C408 0.930 . S
H400 C413 0.929 1_556 S
H401 C411 0.929 . S
H402 C406 0.929 . S
H403 C412 0.929 . S
C404 H398 0.930 . S
C404 C405 1.367 . S
C404 C412 1.378 . S
C405 C404 1.367 . S
C405 C413 1.433 . S
C406 H402 0.929 . S
C406 C408 1.378 . S
C406 C410 1.350 1_556 S
C407 C410 1.463 . S
C407 C412 1.350 . S
C407 N415 1.419 1_554 S
C408 H399 0.930 . S
C408 C406 1.378 . S
C408 C409 1.367 1_556 S
C409 C408 1.367 1_554 S
C409 C411 1.433 . S
C410 C406 1.350 1_554 S
C410 C407 1.463 . S
C410 N414 1.427 . S
C411 H401 0.929 . S
C411 C409 1.433 . S
C411 N414 1.384 . S
C412 H403 0.929 . S
C412 C404 1.378 . S
C412 C407 1.350 . S
C413 H400 0.929 1_554 S
C413 C405 1.433 . S
C413 N415 1.383 1_554 S
N414 C410 1.427 . S
N414 C411 1.384 . S
N415 C407 1.419 1_556 S
N415 C413 1.383 1_556 S
H416 C422 0.930 1_565 S
H417 C426 0.930 . S
H418 C431 0.929 . S
H419 C429 0.929 . S
H420 C424 0.929 . S
H421 C430 0.929 . S
C422 H416 0.930 1_545 S
C422 C423 1.367 1_545 S
C422 C430 1.378 . S
C423 C422 1.367 1_565 S
C423 C431 1.433 1_565 S
C424 H420 0.929 . S
C424 C426 1.378 . S
C424 C428 1.350 . S
C425 C428 1.463 . S
C425 C430 1.350 . S
C425 N433 1.427 . S
C426 H417 0.930 . S
C426 C424 1.378 . S
C426 C427 1.367 . S
C427 C426 1.367 . S
C427 C429 1.433 . S
C428 C424 1.350 . S
C428 C425 1.463 . S
C428 N432 1.427 . S
C429 H419 0.929 . S
C429 C427 1.433 . S
C429 N432 1.384 . S
C430 H421 0.929 . S
C430 C422 1.378 . S
C430 C425 1.350 . S
C431 H418 0.929 . S
C431 C423 1.433 1_545 S
C431 N433 1.384 . S
N432 C428 1.427 . S
N432 C429 1.384 . S
N433 C425 1.427 . S
N433 C431 1.384 . S
H434 C440 0.930 1_455 S
H435 C444 0.930 . S
H436 C449 0.929 . S
H437 C447 0.929 . S
H438 C442 0.929 . S
H439 C448 0.929 . S
C440 H434 0.930 1_655 S
C440 C441 1.367 1_655 S
C440 C448 1.378 . S
C441 C440 1.367 1_455 S
C441 C449 1.433 1_455 S
C442 H438 0.929 . S
C442 C444 1.378 . S
C442 C446 1.350 . S
C443 C446 1.463 . S
C443 C448 1.350 . S
C443 N451 1.427 . S
C444 H435 0.930 . S
C444 C442 1.378 . S
C444 C445 1.367 . S
C445 C444 1.367 . S
C445 C447 1.433 . S
C446 C442 1.350 . S
C446 C443 1.463 . S
C446 N450 1.427 . S
C447 H437 0.929 . S
C447 C445 1.433 . S
C447 N450 1.384 . S
C448 H439 0.929 . S
C448 C440 1.378 . S
C448 C443 1.350 . S
C449 H436 0.929 . S
C449 C441 1.433 1_655 S
C449 N451 1.384 . S
N450 C446 1.427 . S
N450 C447 1.384 . S
N451 C443 1.427 . S
N451 C449 1.384 . S
H452 C458 0.930 . S
H453 C462 0.930 . S
H454 C467 0.929 1_545 S
H455 C465 0.929 . S
H456 C460 0.929 . S
H457 C466 0.929 . S
C458 H452 0.930 . S
C458 C459 1.367 1_565 S
C458 C466 1.378 . S
C459 C458 1.367 1_545 S
C459 C467 1.433 1_545 S
C460 H456 0.929 . S
C460 C462 1.378 . S
C460 C464 1.350 . S
C461 C464 1.463 . S
C461 C466 1.350 . S
C461 N469 1.427 . S
C462 H453 0.930 . S
C462 C460 1.378 . S
C462 C463 1.367 . S
C463 C462 1.367 . S
C463 C465 1.433 . S
C464 C460 1.350 . S
C464 C461 1.463 . S
C464 N468 1.427 . S
C465 H455 0.929 . S
C465 C463 1.433 . S
C465 N468 1.384 . S
C466 H457 0.929 . S
C466 C458 1.378 . S
C466 C461 1.350 . S
C467 H454 0.929 1_565 S
C467 C459 1.433 1_565 S
C467 N469 1.384 . S
N468 C464 1.427 . S
N468 C465 1.384 . S
N469 C461 1.427 . S
N469 C467 1.384 . S
H470 C476 0.930 1_655 S
H471 C480 0.930 . S
H472 C485 0.929 . S
H473 C483 0.929 . S
H474 C478 0.929 . S
H475 C484 0.929 . S
C476 H470 0.930 1_455 S
C476 C477 1.367 1_455 S
C476 C484 1.378 . S
C477 C476 1.367 1_655 S
C477 C485 1.433 1_655 S
C478 H474 0.929 . S
C478 C480 1.378 . S
C478 C482 1.350 . S
C479 C482 1.463 . S
C479 C484 1.350 . S
C479 N487 1.427 . S
C480 H471 0.930 . S
C480 C478 1.378 . S
C480 C481 1.367 . S
C481 C480 1.367 . S
C481 C483 1.433 . S
C482 C478 1.350 . S
C482 C479 1.463 . S
C482 N486 1.427 . S
C483 H473 0.929 . S
C483 C481 1.433 . S
C483 N486 1.384 . S
C484 H475 0.929 . S
C484 C476 1.378 . S
C484 C479 1.350 . S
C485 H472 0.929 . S
C485 C477 1.433 1_455 S
C485 N487 1.384 . S
N486 C482 1.427 . S
N486 C483 1.384 . S
N487 C479 1.427 . S
N487 C485 1.384 . S
H488 C494 0.930 . S
H489 C498 0.930 . S
H490 C503 0.929 . S
H491 C501 0.929 . S
H492 C496 0.929 . S
H493 C502 0.929 . S
C494 H488 0.930 . S
C494 C495 1.367 . S
C494 C502 1.378 . S
C495 C494 1.367 . S
C495 C503 1.433 . S
C496 H492 0.929 . S
C496 C498 1.378 . S
C496 C500 1.350 . S
C497 C500 1.463 . S
C497 C502 1.350 . S
C497 N505 1.427 . S
C498 H489 0.930 . S
C498 C496 1.378 . S
C498 C499 1.367 . S
C499 C498 1.367 . S
C499 C501 1.433 . S
C500 C496 1.350 . S
C500 C497 1.463 . S
C500 N504 1.427 . S
C501 H491 0.929 . S
C501 C499 1.433 . S
C501 N504 1.384 . S
C502 H493 0.929 . S
C502 C494 1.378 . S
C502 C497 1.350 . S
C503 H490 0.929 . S
C503 C495 1.433 . S
C503 N505 1.384 . S
N504 C500 1.427 . S
N504 C501 1.384 . S
N505 C497 1.427 . S
N505 C503 1.384 . S
H506 C512 0.930 . S
H507 C516 0.930 . S
H508 C521 0.929 . S
H509 C519 0.929 . S
H510 C514 0.929 . S
H511 C520 0.929 . S
C512 H506 0.930 . S
C512 C513 1.367 . S
C512 C520 1.378 . S
C513 C512 1.367 . S
C513 C521 1.433 . S
C514 H510 0.929 . S
C514 C516 1.378 . S
C514 C518 1.350 . S
C515 C518 1.463 . S
C515 C520 1.350 . S
C515 N523 1.427 . S
C516 H507 0.930 . S
C516 C514 1.378 . S
C516 C517 1.367 . S
C517 C516 1.367 . S
C517 C519 1.433 . S
C518 C514 1.350 . S
C518 C515 1.463 . S
C518 N522 1.427 . S
C519 H509 0.929 . S
C519 C517 1.433 . S
C519 N522 1.384 . S
C520 H511 0.929 . S
C520 C512 1.378 . S
C520 C515 1.350 . S
C521 H508 0.929 . S
C521 C513 1.433 . S
C521 N523 1.384 . S
N522 C518 1.427 . S
N522 C519 1.384 . S
N523 C515 1.427 . S
N523 C521 1.384 . S
H524 C530 0.930 . S
H525 C534 0.930 . S
H526 C539 0.929 . S
H527 C537 0.929 . S
H528 C532 0.929 . S
H529 C538 0.929 . S
C530 H524 0.930 . S
C530 C531 1.367 . S
C530 C538 1.378 . S
C531 C530 1.367 . S
C531 C539 1.433 . S
C532 H528 0.929 . S
C532 C534 1.378 . S
C532 C536 1.350 . S
C533 C536 1.463 . S
C533 C538 1.350 . S
C533 N541 1.427 . S
C534 H525 0.930 . S
C534 C532 1.378 . S
C534 C535 1.367 . S
C535 C534 1.367 . S
C535 C537 1.433 . S
C536 C532 1.350 . S
C536 C533 1.463 . S
C536 N540 1.427 . S
C537 H527 0.929 . S
C537 C535 1.433 . S
C537 N540 1.384 . S
C538 H529 0.929 . S
C538 C530 1.378 . S
C538 C533 1.350 . S
C539 H526 0.929 . S
C539 C531 1.433 . S
C539 N541 1.384 . S
N540 C536 1.427 . S
N540 C537 1.384 . S
N541 C533 1.427 . S
N541 C539 1.384 . S
H542 C548 0.930 . S
H543 C552 0.930 . S
H544 C557 0.929 . S
H545 C555 0.929 . S
H546 C550 0.929 . S
H547 C556 0.929 . S
C548 H542 0.930 . S
C548 C549 1.367 . S
C548 C556 1.378 . S
C549 C548 1.367 . S
C549 C557 1.433 . S
C550 H546 0.929 . S
C550 C552 1.378 . S
C550 C554 1.350 . S
C551 C554 1.463 . S
C551 C556 1.350 . S
C551 N559 1.427 . S
C552 H543 0.930 . S
C552 C550 1.378 . S
C552 C553 1.367 . S
C553 C552 1.367 . S
C553 C555 1.433 . S
C554 C550 1.350 . S
C554 C551 1.463 . S
C554 N558 1.427 . S
C555 H545 0.929 . S
C555 C553 1.433 . S
C555 N558 1.384 . S
C556 H547 0.929 . S
C556 C548 1.378 . S
C556 C551 1.350 . S
C557 H544 0.929 . S
C557 C549 1.433 . S
C557 N559 1.384 . S
N558 C554 1.427 . S
N558 C555 1.384 . S
N559 C551 1.427 . S
N559 C557 1.384 . S
H560 C566 0.930 . S
H561 C570 0.930 . S
H562 C575 0.929 . S
H563 C573 0.929 . S
H564 C568 0.929 . S
H565 C574 0.929 . S
C566 H560 0.930 . S
C566 C567 1.367 . S
C566 C574 1.378 . S
C567 C566 1.367 . S
C567 C575 1.433 . S
C568 H564 0.929 . S
C568 C570 1.378 . S
C568 C572 1.350 . S
C569 C572 1.463 . S
C569 C574 1.350 . S
C569 N577 1.427 . S
C570 H561 0.930 . S
C570 C568 1.378 . S
C570 C571 1.367 . S
C571 C570 1.367 . S
C571 C573 1.433 . S
C572 C568 1.350 . S
C572 C569 1.463 . S
C572 N576 1.427 . S
C573 H563 0.929 . S
C573 C571 1.433 . S
C573 N576 1.384 . S
C574 H565 0.929 . S
C574 C566 1.378 . S
C574 C569 1.350 . S
C575 H562 0.929 . S
C575 C567 1.433 . S
C575 N577 1.384 . S
N576 C572 1.427 . S
N576 C573 1.384 . S
N577 C569 1.427 . S
N577 C575 1.384 . S
H578 C584 0.930 . S
H579 C588 0.930 . S
H580 C593 0.929 . S
H581 C591 0.929 . S
H582 C586 0.929 . S
H583 C592 0.929 . S
C584 H578 0.930 . S
C584 C585 1.367 . S
C584 C592 1.378 . S
C585 C584 1.367 . S
C585 C593 1.433 . S
C586 H582 0.929 . S
C586 C588 1.378 . S
C586 C590 1.350 . S
C587 C590 1.463 . S
C587 C592 1.350 . S
C587 N595 1.427 . S
C588 H579 0.930 . S
C588 C586 1.378 . S
C588 C589 1.367 . S
C589 C588 1.367 . S
C589 C591 1.433 . S
C590 C586 1.350 . S
C590 C587 1.463 . S
C590 N594 1.427 . S
C591 H581 0.929 . S
C591 C589 1.433 . S
C591 N594 1.384 . S
C592 H583 0.929 . S
C592 C584 1.378 . S
C592 C587 1.350 . S
C593 H580 0.929 . S
C593 C585 1.433 . S
C593 N595 1.384 . S
N594 C590 1.427 . S
N594 C591 1.384 . S
N595 C587 1.427 . S
N595 C593 1.384 . S
H596 C602 0.930 . S
H597 C606 0.930 . S
H598 C611 0.929 . S
H599 C609 0.929 . S
H600 C604 0.929 . S
H601 C610 0.929 . S
C602 H596 0.930 . S
C602 C603 1.367 . S
C602 C610 1.378 . S
C603 C602 1.367 . S
C603 C611 1.433 . S
C604 H600 0.929 . S
C604 C606 1.378 . S
C604 C608 1.350 . S
C605 C608 1.463 . S
C605 C610 1.350 . S
C605 N613 1.427 . S
C606 H597 0.930 . S
C606 C604 1.378 . S
C606 C607 1.367 . S
C607 C606 1.367 . S
C607 C609 1.433 . S
C608 C604 1.350 . S
C608 C605 1.463 . S
C608 N612 1.427 . S
C609 H599 0.929 . S
C609 C607 1.433 . S
C609 N612 1.384 . S
C610 H601 0.929 . S
C610 C602 1.378 . S
C610 C605 1.350 . S
C611 H598 0.929 . S
C611 C603 1.433 . S
C611 N613 1.384 . S
N612 C608 1.427 . S
N612 C609 1.384 . S
N613 C605 1.427 . S
N613 C611 1.384 . S
H614 C620 0.930 . S
H615 C624 0.930 . S
H616 C629 0.929 . S
H617 C627 0.929 . S
H618 C622 0.929 . S
H619 C628 0.929 . S
C620 H614 0.930 . S
C620 C621 1.367 . S
C620 C628 1.378 . S
C621 C620 1.367 . S
C621 C629 1.433 . S
C622 H618 0.929 . S
C622 C624 1.378 . S
C622 C626 1.350 . S
C623 C626 1.463 . S
C623 C628 1.350 . S
C623 N631 1.427 . S
C624 H615 0.930 . S
C624 C622 1.378 . S
C624 C625 1.367 . S
C625 C624 1.367 . S
C625 C627 1.433 . S
C626 C622 1.350 . S
C626 C623 1.463 . S
C626 N630 1.427 . S
C627 H617 0.929 . S
C627 C625 1.433 . S
C627 N630 1.384 . S
C628 H619 0.929 . S
C628 C620 1.378 . S
C628 C623 1.350 . S
C629 H616 0.929 . S
C629 C621 1.433 . S
C629 N631 1.384 . S
N630 C626 1.427 . S
N630 C627 1.384 . S
N631 C623 1.427 . S
N631 C629 1.384 . S
C279 C77 0.976 . S
C283 C9 0.969 . S
C297 C43 0.963 . S
C301 C111 0.971 . S
C315 C145 0.969 . S
C319 C213 0.976 . S
C333 C179 0.964 . S
C337 C247 0.957 . S
C351 C135 1.659 . S
C355 C5 1.680 . S
C369 C33 1.655 . S
C373 C39 1.680 . S
C387 C73 1.680 . S
C391 C67 1.660 . S
C405 C107 1.682 . S
C409 C101 1.661 . S
C423 C203 1.663 . S
C427 C141 1.682 . S
C441 C237 1.662 . S
C445 C175 1.682 . S
C459 C271 1.655 . S
C463 C209 1.680 . S
C477 C169 1.658 . S
C481 C243 1.680 . S
C495 C20 1.736 . S
C499 C258 1.737 . S
C513 C54 1.737 . S
C517 C156 1.738 . S
C531 C190 1.738 . S
C535 C88 1.738 . S
C549 C224 1.738 . S
C553 C122 1.737 . S
C567 C70 1.919 . S
C571 C172 1.919 . S
C585 C206 1.919 . S
C589 C104 1.919 . S
C603 C240 1.923 . S
C607 C2 1.923 . S
C621 C138 1.926 . S
C625 C36 1.925 . S
