# Generated by pormake.
# Topology rkf, (6)-cn, num edge types: 1
# Building blocks:
#     Node 0, Type 0, BuildingBlock: PAMTUU_clean_sbu_0, # of connection points: 6
#     Node 1, Type 0, BuildingBlock: PAMTUU_clean_sbu_0, # of connection points: 6
#     Node 2, Type 0, BuildingBlock: PAMTUU_clean_sbu_0, # of connection points: 6
#     Node 3, Type 0, BuildingBlock: PAMTUU_clean_sbu_0, # of connection points: 6
#     Node 4, Type 0, BuildingBlock: PAMTUU_clean_sbu_0, # of connection points: 6
#     Node 5, Type 0, BuildingBlock: PAMTUU_clean_sbu_0, # of connection points: 6
#     Edge 6, Type (0, 0), BuildingBlock: ZUJKAS_clean_linker_0, # of connection points: 2
#     Edge 7, Type (0, 0), BuildingBlock: ZUJKAS_clean_linker_0, # of connection points: 2
#     Edge 8, Type (0, 0), BuildingBlock: ZUJKAS_clean_linker_0, # of connection points: 2
#     Edge 9, Type (0, 0), BuildingBlock: ZUJKAS_clean_linker_0, # of connection points: 2
#     Edge 10, Type (0, 0), BuildingBlock: ZUJKAS_clean_linker_0, # of connection points: 2
#     Edge 11, Type (0, 0), BuildingBlock: ZUJKAS_clean_linker_0, # of connection points: 2
#     Edge 12, Type (0, 0), BuildingBlock: ZUJKAS_clean_linker_0, # of connection points: 2
#     Edge 13, Type (0, 0), BuildingBlock: ZUJKAS_clean_linker_0, # of connection points: 2
#     Edge 14, Type (0, 0), BuildingBlock: ZUJKAS_clean_linker_0, # of connection points: 2
#     Edge 15, Type (0, 0), BuildingBlock: ZUJKAS_clean_linker_0, # of connection points: 2
#     Edge 16, Type (0, 0), BuildingBlock: ZUJKAS_clean_linker_0, # of connection points: 2
#     Edge 17, Type (0, 0), BuildingBlock: ZUJKAS_clean_linker_0, # of connection points: 2
#     Edge 18, Type (0, 0), BuildingBlock: ZUJKAS_clean_linker_0, # of connection points: 2
#     Edge 19, Type (0, 0), BuildingBlock: ZUJKAS_clean_linker_0, # of connection points: 2
#     Edge 20, Type (0, 0), BuildingBlock: ZUJKAS_clean_linker_0, # of connection points: 2
#     Edge 21, Type (0, 0), BuildingBlock: ZUJKAS_clean_linker_0, # of connection points: 2
#     Edge 22, Type (0, 0), BuildingBlock: ZUJKAS_clean_linker_0, # of connection points: 2
#     Edge 23, Type (0, 0), BuildingBlock: ZUJKAS_clean_linker_0, # of connection points: 2
# Relax obj value: 0.612
# Max RMSD: 0.270
# Mean RMSD: 0.270
data_MOF--net-rkf--node1-PAMTUU_clean_sbu_0--edge1-ZUJKAS_clean_linker_0
_symmetry_space_group_name_H-M    P1
_symmetry_Int_Tables_number       1
_symmetry_cell_setting            triclinic
loop_
_symmetry_equiv_pos_as_xyz
'x, y, z'
_cell_length_a     32.681431
_cell_length_b     32.767452
_cell_length_c     57.830521
_cell_angle_alpha  90.212812
_cell_angle_beta   89.538244
_cell_angle_gamma 120.8387
loop_
_atom_site_label
_atom_site_type_symbol
_atom_site_fract_x
_atom_site_fract_y
_atom_site_fract_z
_atom_type_partial_charge
Tb0 Tb 0.13915 0.93891 0.10973 0.0
Tb1 Tb 0.18432 0.05043 0.0952 0.0
C2 C 0.24821 0.00653 0.09871 0.0
C3 C 0.11475 0.8344 0.14435 0.0
C4 C 0.11639 0.79165 0.18629 0.0
C5 C 0.10991 0.76774 0.16511 0.0
C6 C 0.10888 0.78893 0.14431 0.0
C7 C 0.12383 0.85938 0.1652 0.0
C8 C 0.12422 0.83815 0.18593 0.0
C9 C 0.10933 0.85499 0.12293 0.0
O10 O 0.13929 0.97609 0.14231 0.0
O11 O 0.19763 0.05173 0.13259 0.0
O12 O 0.11116 0.01475 0.10733 0.0
O13 O 0.08244 0.94223 0.09283 0.0
O14 O 0.23827 0.12194 0.09765 0.0
O15 O 0.17033 0.10182 1.08221 0.0
O16 O 0.16215 0.01497 1.06118 0.0
O17 O 0.13995 0.93772 1.07102 0.0
O18 O 0.21638 0.97544 0.11318 0.0
O19 O 0.23897 0.03415 1.08622 0.0
C20 C 0.17027 0.02056 0.14844 0.0
O21 O 0.08504 0.87642 0.12497 0.0
O22 O 0.14795 0.87966 0.11055 0.0
C23 C 0.07858 0.97959 0.09511 0.0
C24 C 0.23716 0.17396 1.06993 0.0
C25 C 0.28352 0.24799 1.03752 0.0
C26 C 0.25335 0.24947 1.05455 0.0
C27 C 0.23049 0.21283 1.0706 0.0
C28 C 0.26722 0.17203 1.05307 0.0
C29 C 0.2903 0.20887 1.03695 0.0
C30 C 0.21283 0.13668 1.08736 0.0
C31 C 0.14643 0.97019 1.05525 0.0
H32 H 0.10447 0.73226 0.16464 0.0
H33 H 0.10233 0.76938 0.12828 0.0
H34 H 0.12881 0.89472 0.16558 0.0
H35 H 0.12827 0.85758 0.20175 0.0
H36 H 0.24636 0.2784 1.05514 0.0
H37 H 0.20727 0.21471 1.0835 0.0
H38 H 0.27276 0.14215 1.05239 0.0
H39 H 0.31337 0.20677 1.02406 0.0
Tb40 Tb 0.19642 0.27072 0.4259 0.0
Tb41 Tb 0.26068 0.22356 0.43952 0.0
C42 C 0.3067 0.33085 0.42656 0.0
C43 C 0.10075 0.29194 0.4033 0.0
C44 C 0.01588 0.27069 0.38107 0.0
C45 C 0.04463 0.3152 0.39155 0.0
C46 C 0.08667 0.32566 0.40258 0.0
C47 C 0.07252 0.24748 0.39281 0.0
C48 C 0.03036 0.23696 0.38168 0.0
C49 C 0.14295 0.30291 0.41668 0.0
O50 O 0.20901 0.24624 0.39211 0.0
O51 O 0.23394 0.19558 0.40437 0.0
O52 O 0.19264 0.17878 0.45622 0.0
O53 O 0.1558 0.1939 0.42799 0.0
O54 O 0.32873 0.23963 0.44931 0.0
O55 O 0.27375 0.1672 0.44149 0.0
O56 O 0.24885 0.24906 0.47377 0.0
O57 O 0.19676 0.27398 0.46385 0.0
O58 O 0.2677 0.33016 0.43259 0.0
O59 O 0.30549 0.29112 0.42198 0.0
C60 C 0.21939 0.21273 0.38766 0.0
O61 O 0.13568 0.27396 0.43369 0.0
O62 O 0.18216 0.31478 0.40527 0.0
C63 C 0.15319 0.17291 0.44761 0.0
C64 C 0.33149 0.17966 0.46932 0.0
C65 C 0.36565 0.15982 0.50957 0.0
C66 C 0.32308 0.16085 0.51011 0.0
C67 C 0.30625 0.17093 0.49015 0.0
C68 C 0.37329 0.17769 0.4685 0.0
C69 C 0.39027 0.16774 0.48849 0.0
C70 C 0.31716 0.19516 0.44889 0.0
C71 C 0.21966 0.26469 0.47973 0.0
H72 H 0.03496 0.34224 0.39098 0.0
H73 H 0.10802 0.36003 0.41076 0.0
H74 H 0.08278 0.22088 0.39349 0.0
H75 H 0.00881 0.20233 0.3738 0.0
H76 H 0.30273 0.15387 0.52598 0.0
H77 H 0.27407 0.17272 0.49105 0.0
H78 H 0.39338 0.18494 0.45251 0.0
H79 H 0.42321 0.16739 0.48757 0.0
Tb80 Tb 0.0754 0.31416 0.77101 0.0
Tb81 Tb 0.96718 0.23123 0.7583 0.0
C82 C -0.00153 0.33779 0.7578 0.0
C83 C 0.18993 0.40249 0.79918 0.0
C84 C 0.2467 0.43613 0.8389 0.0
C85 C 0.26781 0.44117 0.81704 0.0
C86 C 0.23957 0.42452 0.79731 0.0
C87 C 0.16881 0.39946 0.8208 0.0
C88 C 0.19709 0.41646 0.84054 0.0
C89 C 0.16078 0.37815 0.77898 0.0
O90 O 0.04305 0.29062 0.80613 0.0
O91 O 0.96381 0.24519 0.7958 0.0
O92 O -0.00613 0.19791 0.78085 0.0
O93 O 0.07083 0.2461 0.77016 0.0
O94 O 0.89492 0.20995 0.75975 0.0
O95 O 0.91799 0.16509 0.74389 0.0
O96 O 0.01091 0.23396 0.72804 0.0
O97 O 0.07386 0.30987 0.73263 0.0
O98 O 0.0306 0.34485 0.77315 0.0
O99 O 0.97768 0.29849 0.7457 0.0
C100 C -0.00284 0.265 0.81196 0.0
O101 O 0.14579 0.33301 0.77785 0.0
O102 O 0.12728 0.38683 0.77379 0.0
C103 C 0.03861 0.21013 0.78217 0.0
C104 C 0.85043 0.16341 0.72855 0.0
C105 C 0.78793 0.1493 0.69216 0.0
C106 C 0.7701 0.12703 0.71366 0.0
C107 C 0.80117 0.13404 0.73169 0.0
C108 C 0.8685 0.18642 0.7073 0.0
C109 C 0.83746 0.17925 0.68919 0.0
C110 C 0.88218 0.17135 0.74794 0.0
C111 C 0.04977 0.27148 0.71962 0.0
H112 H 0.30594 0.45621 0.81534 0.0
H113 H 0.2563 0.42687 0.78072 0.0
H114 H 0.13042 0.38202 0.82254 0.0
H115 H 0.17985 0.41145 0.85722 0.0
H116 H 0.73222 0.10325 0.71636 0.0
H117 H 0.78673 0.1164 0.7481 0.0
H118 H 0.90652 0.20983 0.70475 0.0
H119 H 0.85214 0.19714 0.67286 0.0
Tb120 Tb 0.80123 0.05698 0.09753 0.0
Tb121 Tb 0.83015 0.16558 0.11039 0.0
C122 C 0.72483 0.08542 0.1 0.0
C123 C 0.75562 0.93391 1.07506 0.0
C124 C 0.69998 0.85611 1.04603 0.0
C125 C 0.69843 0.89809 1.04408 0.0
C126 C 0.72612 0.93678 1.0585 0.0
C127 C 0.757 0.89212 1.07723 0.0
C128 C 0.72943 0.85347 1.06281 0.0
C129 C 0.78316 0.97311 0.09105 0.0
O130 O 0.81995 0.09055 1.06304 0.0
O131 O 0.83329 0.1656 1.07155 0.0
O132 O 0.89359 0.17285 0.09498 0.0
O133 O 0.87408 0.10175 0.10913 0.0
O134 O 0.81039 0.2172 0.10877 0.0
O135 O 0.87393 0.23078 0.12684 0.0
O136 O 0.83494 0.1339 0.14373 0.0
O137 O 0.78584 0.05544 0.13477 0.0
O138 O 0.73959 0.0615 1.08783 0.0
O139 O 0.75355 0.11877 0.11435 0.0
C140 C 0.83138 0.13382 1.05637 0.0
O141 O 0.82072 0.01061 1.08263 0.0
O142 O 0.75798 0.98432 0.10428 0.0
C143 C 0.9037 0.13949 0.09712 0.0
C144 C 0.82683 0.25634 0.14453 0.0
C145 C 0.8086 0.27544 0.18968 0.0
C146 C 0.7847 0.22868 0.1811 0.0
C147 C 0.79379 0.21925 0.15874 0.0
C148 C 0.84809 0.30335 0.15226 0.0
C149 C 0.8388 0.31291 0.17467 0.0
C150 C 0.84361 0.24481 0.12332 0.0
C151 C 0.80879 0.08887 0.15037 0.0
H152 H 0.67671 0.90143 1.03104 0.0
H153 H 0.72456 0.96888 1.05677 0.0
H154 H 0.77928 0.88932 0.09015 0.0
H155 H 0.73112 0.8215 1.06478 0.0
H156 H 0.76185 0.19884 0.19219 0.0
H157 H 0.77731 0.18263 0.15309 0.0
H158 H 0.87373 0.33235 0.14148 0.0
H159 H 0.85729 0.34937 0.18068 0.0
Tb160 Tb 0.71901 0.8782 0.44195 0.0
Tb161 Tb 0.8211 0.89026 0.43232 0.0
C162 C 0.72544 0.79595 0.42284 0.0
C163 C 0.61606 0.87236 0.47122 0.0
C164 C 0.58524 0.90385 0.5092 0.0
C165 C 0.56134 0.89393 0.48795 0.0
C166 C 0.57668 0.87824 0.46907 0.0
C167 C 0.63895 0.88067 0.49257 0.0
C168 C 0.62362 0.89612 0.51139 0.0
C169 C 0.63667 0.86306 0.45073 0.0
O170 O 0.74078 0.85657 0.47477 0.0
O171 O 0.82161 0.89773 0.46975 0.0
O172 O 0.83544 0.96154 0.4416 0.0
O173 O 0.76485 0.94327 0.45945 0.0
O174 O 0.86777 0.86622 0.44016 0.0
O175 O 0.88664 0.9209 0.4146 0.0
O176 O 0.79771 0.89702 0.39763 0.0
O177 O 0.74289 0.9174 0.40834 0.0
O178 O 0.70929 0.82372 0.41795 0.0
O179 O 0.76638 0.81396 0.43349 0.0
C180 C 0.78451 0.87469 0.48345 0.0
O181 O 0.6699 0.90116 0.44041 0.0
O182 O 0.64883 0.83104 0.45307 0.0
C183 C 0.80954 0.9732 0.45464 0.0
C184 C 0.91193 0.86614 0.4083 0.0
C185 C 0.93746 0.81404 0.37896 0.0
C186 C 0.96476 0.83692 0.39862 0.0
C187 C 0.95209 0.86289 0.41317 0.0
C188 C 0.88406 0.84266 0.38895 0.0
C189 C 0.89685 0.81698 0.37433 0.0
C190 C 0.89805 0.89208 0.4241 0.0
C191 C 0.77135 0.91554 0.39238 0.0
H192 H 0.53166 0.89949 0.48577 0.0
H193 H 0.55894 0.87237 0.45259 0.0
H194 H 0.66995 0.87712 0.49443 0.0
H195 H 0.64358 0.90446 0.52731 0.0
H196 H -0.00356 0.83558 0.40246 0.0
H197 H 0.97364 0.88045 0.42821 0.0
H198 H 0.85243 0.84415 0.38518 0.0
H199 H 0.87489 0.79925 0.35944 0.0
Tb200 Tb 0.00796 0.84597 0.75983 0.0
Tb201 Tb 0.89648 0.79963 0.7737 0.0
C202 C 0.942 0.73934 0.76299 0.0
C203 C 0.13452 0.90577 0.73459 0.0
C204 C 0.21423 0.95973 0.70599 0.0
C205 C 0.21926 0.94224 0.72722 0.0
C206 C 0.17968 0.91551 0.74139 0.0
C207 C 0.1291 0.92353 0.71359 0.0
C208 C 0.16882 0.95043 0.69935 0.0
C209 C 0.0942 0.87664 0.7499 0.0
O210 O 0.97023 0.8349 0.72611 0.0
O211 O 0.90166 0.83052 0.73928 0.0
O212 O 0.93284 0.8693 0.78979 0.0
O213 O -0.00521 0.90378 0.76408 0.0
O214 O 0.83527 0.73608 0.78324 0.0
O215 O 0.83195 0.79911 0.77595 0.0
O216 O 0.93013 0.80542 0.80809 0.0
O217 O 0.00983 0.84479 0.79793 0.0
O218 O 0.98078 0.77434 0.77159 0.0
O219 O 0.90841 0.74705 0.75641 0.0
C220 C 0.93032 0.83507 0.72198 0.0
O221 O 0.07982 0.89894 0.76327 0.0
O222 O 0.05882 0.83741 0.74152 0.0
C223 C 0.97204 0.9067 0.7822 0.0
C224 C 0.77739 0.74397 0.80309 0.0
C225 C 0.71771 0.7151 0.84229 0.0
C226 C 0.76669 0.74881 0.84425 0.0
C227 C 0.79635 0.76303 0.82479 0.0
C228 C 0.72858 0.71101 0.80093 0.0
C229 C 0.69886 0.6967 0.82039 0.0
C230 C 0.80851 0.75493 0.78292 0.0
C231 C 0.97595 0.8275 0.81394 0.0
H232 H 0.25381 0.9493 0.73288 0.0
H233 H 0.1843 0.90214 0.75768 0.0
H234 H 0.09432 0.91622 0.70817 0.0
H235 H 0.16384 0.96303 0.68293 0.0
H236 H 0.78212 0.76436 0.86082 0.0
H237 H 0.83411 0.78833 0.8267 0.0
H238 H 0.71364 0.69562 0.78425 0.0
H239 H 0.66139 0.67056 0.81837 0.0
H240 H 0.92534 0.07033 0.09206 0.0
H241 H 0.95326 0.05102 1.05718 0.0
H242 H 0.97027 0.17634 1.02351 0.0
H243 H 0.94361 0.19683 1.05896 0.0
H244 H 0.91073 0.03256 1.01098 0.0
H245 H 0.09511 0.18354 1.00603 0.0
H246 H 0.06517 0.18242 1.0325 0.0
H247 H 0.04348 0.19018 1.00534 0.0
C248 C 0.93588 0.09434 1.07745 0.0
C249 C 0.93153 0.13459 1.07823 0.0
C250 C 0.95117 0.08296 1.05728 0.0
C251 C 0.9624 0.11143 1.03732 0.0
C252 C 0.96115 0.15344 1.03846 0.0
H253 H 0.06683 0.05547 0.09199 0.0
H254 H 0.04451 0.08239 1.05805 0.0
C255 C 0.94629 0.16523 1.05888 0.0
C256 C 0.97793 0.09693 1.01632 0.0
H257 H 0.08551 0.10591 1.01345 0.0
C258 C 0.94917 0.04879 1.0103 0.0
C259 C 0.02739 0.11876 1.0123 0.0
C260 C 0.05973 0.17178 1.01402 0.0
C261 C 0.96878 0.01943 1.01099 0.0
C262 C 0.01771 0.04072 1.01622 0.0
C263 C 0.04723 0.08961 1.01173 0.0
C264 C 0.03131 0.02246 1.03637 0.0
C265 C 0.93593 0.96633 1.01114 0.0
C266 C 0.02882 0.9785 1.03618 0.0
C267 C 0.04007 0.96224 1.05609 0.0
C268 C 0.05539 0.99041 1.07627 0.0
C269 C 0.05567 0.03321 1.07671 0.0
C270 C 0.04367 0.04895 1.05706 0.0
H271 H 0.90081 0.95584 1.00347 0.0
H272 H 0.9521 0.949 1.00123 0.0
H273 H 0.92991 0.95307 1.02922 0.0
H274 H 0.01915 0.95719 1.02064 0.0
H275 H 0.0392 0.92879 1.05524 0.0
H276 H 0.89391 0.05342 0.44441 0.0
H277 H 0.93954 0.12052 0.46998 0.0
H278 H 0.82417 0.06221 0.51966 0.0
H279 H 0.77756 -0.00499 0.49385 0.0
H280 H 0.93036 0.19292 0.50127 0.0
H281 H 0.93387 0.05016 0.54989 0.0
H282 H 0.90428 0.03041 0.52251 0.0
H283 H 0.87971 0.05075 0.54458 0.0
C284 C 0.87764 0.05559 0.46041 0.0
C285 C 0.83279 0.01855 0.46733 0.0
C286 C 0.90348 0.09428 0.47496 0.0
C287 C 0.88537 0.0962 0.49685 0.0
C288 C 0.83873 0.0615 0.50288 0.0
H289 H 0.14829 0.15475 0.49429 0.0
H290 H 0.09483 0.16004 0.52238 0.0
C291 C 0.81239 0.02301 0.4881 0.0
C292 C 0.92009 0.12685 0.51447 0.0
H293 H 0.00799 0.10767 0.53057 0.0
C294 C 0.94734 0.17546 0.50917 0.0
C295 C 0.94201 0.10625 0.52696 0.0
C296 C 0.91338 0.05665 0.53666 0.0
C297 C -0.00282 0.19797 0.50866 0.0
C298 C 0.01806 0.17012 0.51287 0.0
C299 C -0.00834 0.12789 0.52551 0.0
C300 C 0.05464 0.17252 0.49669 0.0
C301 C 0.02615 0.2481 0.49969 0.0
C302 C 0.04846 0.17529 0.4728 0.0
C303 C 0.0781 0.17134 0.45677 0.0
C304 C 0.11516 0.165 0.46415 0.0
C305 C 0.12004 0.15975 0.48799 0.0
C306 C 0.09011 0.16366 0.50413 0.0
H307 H 0.01555 0.27108 0.50891 0.0
H308 H 0.06497 0.26284 0.50197 0.0
H309 H 0.01863 0.24896 0.48107 0.0
H310 H 0.02011 0.17982 0.4663 0.0
H311 H 0.0729 0.17495 0.43858 0.0
H312 H 0.94453 0.96115 0.80557 0.0
H313 H -0.01115 0.01927 0.83577 0.0
H314 H 0.09947 0.98421 0.83135 0.0
H315 H 0.0594 0.93326 0.79868 0.0
H316 H 0.02277 0.02794 0.8772 0.0
H317 H 0.1899 0.11491 0.82474 0.0
H318 H 0.13915 0.06678 0.81079 0.0
H319 H 0.16518 0.05574 0.83572 0.0
C320 C 0.97911 0.96733 0.81063 0.0
C321 C -0.00063 0.94423 0.7992 0.0
C322 C 0.00409 -0.00038 0.82832 0.0
C323 C 0.04874 0.00758 0.83571 0.0
C324 C 0.06679 0.98122 0.82542 0.0
H325 H 0.98405 0.13042 0.80738 0.0
H326 H 0.00681 0.10336 0.84089 0.0
C327 C 0.04343 0.95156 0.80673 0.0
C328 C 0.07816 0.04834 0.85138 0.0
H329 H 0.16178 0.16243 0.8387 0.0
C330 C 0.05423 0.0573 0.86924 0.0
C331 C 0.1225 0.08695 0.84353 0.0
C332 C 0.15605 0.08082 0.82782 0.0
C333 C 0.0641 0.10383 0.87292 0.0
C334 C 0.09674 0.13966 0.85779 0.0
C335 C 0.13223 0.13319 0.84781 0.0
C336 C 0.07945 0.16392 0.84246 0.0
C337 C 0.03267 0.11235 0.88889 0.0
C338 C 0.11199 0.20709 0.83167 0.0
C339 C 0.09924 0.2215 0.81163 0.0
C340 C 0.05342 0.19347 0.80226 0.0
C341 C 0.01995 0.15217 0.81389 0.0
C342 C 0.03279 0.13743 0.83364 0.0
H343 H 0.03314 0.09891 0.90643 0.0
H344 H 0.04448 0.15071 0.89 0.0
H345 H -0.00476 0.09213 0.88281 0.0
H346 H 0.14815 0.22822 0.83793 0.0
H347 H 0.12538 0.25451 0.80349 0.0
H348 H 0.32287 0.34405 1.04319 0.0
H349 H 0.34161 0.4029 1.01269 0.0
H350 H 0.31114 0.29624 0.96093 0.0
H351 H 0.291 0.23688 0.99113 0.0
H352 H 0.40043 0.41091 0.95646 0.0
H353 H 0.21161 0.36253 0.97069 0.0
H354 H 0.24997 0.37132 0.9948 0.0
H355 H 0.22948 0.31994 0.97679 0.0
C356 C 0.32092 0.33331 1.02531 0.0
C357 C 0.30465 0.2856 1.01955 0.0
C358 C 0.33215 0.36709 1.00797 0.0
C359 C 0.32768 0.35367 0.9847 0.0
C360 C 0.31517 0.30714 0.97888 0.0
H361 H 0.30736 0.405 0.8479 0.0
H362 H 0.33943 0.40238 0.88522 0.0
C363 C 0.30371 0.2733 0.99617 0.0
C364 C 0.32763 0.38499 0.96654 0.0
H365 H 0.2498 0.4049 0.93717 0.0
C366 C 0.36794 0.41063 0.95241 0.0
C367 C 0.28542 0.38505 0.96169 0.0
C368 C 0.24147 0.35836 0.97671 0.0
C369 C 0.36615 0.43432 0.93259 0.0
C370 C 0.32247 0.43069 0.92653 0.0
C371 C 0.28332 0.4078 0.94171 0.0
C372 C 0.31364 0.44309 0.9032 0.0
C373 C 0.41071 0.46198 0.91814 0.0
C374 C 0.28863 0.46718 0.90063 0.0
C375 C 0.26914 0.46767 0.87928 0.0
C376 C 0.27491 0.44459 0.86012 0.0
C377 C 0.303 0.42374 0.86229 0.0
C378 C 0.32177 0.42258 0.88366 0.0
H379 H 0.44283 0.47868 0.92927 0.0
H380 H 0.41416 0.43732 0.90619 0.0
H381 H 0.41005 0.49016 0.90784 0.0
H382 H 0.28168 0.48305 0.91548 0.0
H383 H 0.24775 0.48414 0.87799 0.0
H384 H 0.9481 0.29123 0.395 0.0
H385 H 0.88256 0.28505 0.37196 0.0
H386 H 0.92067 0.22292 0.31609 0.0
H387 H -0.01424 0.22889 0.33892 0.0
H388 H 0.89365 0.33163 0.33336 0.0
H389 H 0.77813 0.14224 0.31473 0.0
H390 H 0.82229 0.16292 0.33721 0.0
H391 H 0.83789 0.15751 0.30781 0.0
C392 C 0.94192 0.27556 0.37792 0.0
C393 C 0.9722 0.26077 0.36868 0.0
C394 C 0.90432 0.27179 0.36487 0.0
C395 C 0.89623 0.2529 0.34244 0.0
C396 C 0.92526 0.23632 0.3336 0.0
H397 H 0.88443 0.33476 0.2163 0.0
H398 H 0.88994 0.33289 0.25789 0.0
C399 C 0.96268 0.23995 0.34664 0.0
C400 C 0.86256 0.25658 0.32684 0.0
H401 H 0.78848 0.19697 0.28212 0.0
C402 C 0.86936 0.30184 0.32263 0.0
C403 C 0.82944 0.21765 0.31336 0.0
C404 C 0.81621 0.16732 0.31876 0.0
C405 C 0.84878 0.31018 0.30343 0.0
C406 C 0.82202 0.27263 0.28778 0.0
C407 C 0.81004 0.22622 0.29374 0.0
C408 C 0.81496 0.28187 0.26351 0.0
C409 C 0.85836 0.35977 0.29935 0.0
C410 C 0.77073 0.2545 0.25264 0.0
C411 C 0.76745 0.25549 0.22856 0.0
C412 C 0.8085 0.28346 0.21498 0.0
C413 C 0.85189 0.31347 0.22612 0.0
C414 C 0.8551 0.31249 0.25008 0.0
H415 H 0.85918 0.37709 0.31603 0.0
H416 H 0.89389 0.38152 0.29105 0.0
H417 H 0.83101 0.35975 0.28807 0.0
H418 H 0.73933 0.23046 0.26265 0.0
H419 H 0.73337 0.23234 0.2205 0.0
H420 H 0.79953 0.12858 0.64796 0.0
H421 H 0.74216 0.10182 0.61673 0.0
H422 H 0.64403 0.1182 0.66059 0.0
H423 H 0.7016 0.14455 0.69229 0.0
H424 H 0.60023 0.03443 0.64138 0.0
H425 H 0.6973 0.16189 0.57191 0.0
H426 H 0.73571 0.14271 0.5829 0.0
H427 H 0.71681 0.17439 0.60158 0.0
C428 C 0.76634 0.12781 0.65079 0.0
C429 C 0.7551 0.13873 0.67254 0.0
C430 C 0.73356 0.11275 0.63285 0.0
C431 C 0.68911 0.10902 0.6361 0.0
C432 C 0.67827 0.12126 0.65762 0.0
H433 H 0.5663 0.97599 0.50637 0.0
H434 H 0.56921 0.02698 0.53803 0.0
C435 C 0.71104 0.13605 0.67571 0.0
C436 C 0.65252 0.08635 0.61788 0.0
H437 H 0.64603 0.07783 0.55927 0.0
C438 C 0.60943 0.04473 0.62342 0.0
C439 C 0.66304 0.10058 0.59449 0.0
C440 C 0.70553 0.14772 0.58749 0.0
C441 C 0.58018 0.01377 0.60603 0.0
C442 C 0.59541 0.02404 0.58271 0.0
C443 C 0.63477 0.06888 0.57715 0.0
C444 C 0.5783 0.98632 0.5648 0.0
C445 C 0.5347 0.96919 0.61297 0.0
C446 C 0.57984 0.94503 0.56937 0.0
C447 C 0.57733 0.91545 0.55139 0.0
C448 C 0.57435 0.92708 0.52837 0.0
C449 C 0.56847 0.96595 0.52394 0.0
C450 C 0.57038 -0.00468 0.54203 0.0
H451 H 0.51689 0.97686 0.62736 0.0
H452 H 0.50952 0.95368 0.59832 0.0
H453 H 0.5432 0.94254 0.61943 0.0
H454 H 0.58711 0.93763 0.58659 0.0
H455 H 0.58116 0.88531 0.55538 0.0
H456 H 0.73301 0.80565 1.02351 0.0
H457 H 0.69523 0.74978 0.99187 0.0
H458 H 0.57 0.76123 0.99915 0.0
H459 H 0.60803 0.81791 1.03098 0.0
H460 H 0.60777 0.66274 0.98327 0.0
H461 H 0.62264 0.81742 0.93515 0.0
H462 H 0.65095 0.82532 0.96275 0.0
H463 H 0.58734 0.79794 0.96118 0.0
C464 C 0.69693 0.79536 1.01885 0.0
C465 C 0.67373 0.81667 1.02947 0.0
C466 C 0.67529 0.76329 1.00079 0.0
C467 C 0.6301 0.75189 0.99301 0.0
C468 C 0.6052 0.77017 1.00472 0.0
H469 H 0.62825 0.70217 0.84664 0.0
H470 H 0.58304 0.68987 0.88248 0.0
C471 C 0.62703 0.80264 1.02277 0.0
C472 C 0.61371 0.72732 0.97057 0.0
H473 H 0.61867 0.75577 0.91368 0.0
C474 C 0.60853 0.68229 0.96802 0.0
C475 C 0.61382 0.75252 0.95073 0.0
C476 C 0.6191 0.80103 0.95239 0.0
C477 C 0.60875 0.66418 0.94603 0.0
C478 C 0.61529 0.69235 0.92633 0.0
C479 C 0.61418 0.73439 0.92882 0.0
C480 C 0.63428 0.68559 0.90424 0.0
C481 C 0.60504 0.61649 0.94424 0.0
C482 C 0.67736 0.68582 0.90447 0.0
C483 C 0.70308 0.69266 0.88408 0.0
C484 C 0.68659 0.70007 0.86309 0.0
C485 C 0.64185 0.69651 0.86257 0.0
C486 C 0.61592 0.68939 0.88302 0.0
H487 H 0.57989 0.59167 0.95751 0.0
H488 H 0.59289 0.60038 0.92687 0.0
H489 H 0.64044 0.62083 0.94764 0.0
H490 H 0.69305 0.68427 0.92062 0.0
H491 H 0.73699 0.6943 0.88494 0.0
H492 H 0.943 0.82192 0.33227 0.0
H493 H 0.97017 0.78399 0.30505 0.0
H494 H -0.00634 0.71225 0.36126 0.0
H495 H 0.96706 0.7513 0.38889 0.0
H496 H 0.06691 0.74786 0.33235 0.0
H497 H 0.90595 0.65201 0.28005 0.0
H498 H 0.91916 0.71201 0.28251 0.0
H499 H 0.90501 0.67576 0.30816 0.0
C500 C 0.9531 0.79742 0.33883 0.0
C501 C 0.95243 0.78915 0.36265 0.0
C502 C 0.96838 0.77548 0.32325 0.0
C503 C 0.98254 0.74405 0.33103 0.0
C504 C 0.98223 0.73582 0.35486 0.0
H505 H 0.05475 0.69733 0.19682 0.0
H506 H 0.02828 0.66367 0.23522 0.0
C507 C 0.96725 0.75824 0.37058 0.0
C508 C 0.00114 0.72355 0.314 0.0
H509 H 0.98221 0.68724 0.25807 0.0
C510 C 0.04799 0.73315 0.3163 0.0
C511 C 0.97587 0.70171 0.29355 0.0
C512 C 0.92349 0.68425 0.29112 0.0
C513 C 0.07228 0.72802 0.29741 0.0
C514 C 0.04975 0.71526 0.27556 0.0
C515 C 0.00069 0.69875 0.27443 0.0
C516 C 0.07721 0.72837 0.25342 0.0
C517 C 0.12237 0.73839 0.30092 0.0
C518 C 0.11648 0.77468 0.25066 0.0
C519 C 0.13314 0.79337 0.22867 0.0
C520 C 0.10953 0.76706 0.20886 0.0
C521 C 0.07375 0.719 0.21158 0.0
C522 C 0.05819 0.6997 0.23367 0.0
H523 H 0.12452 0.72225 0.31739 0.0
H524 H 0.13452 0.72451 0.28654 0.0
H525 H 0.14697 0.77735 0.30246 0.0
H526 H 0.13166 0.79832 0.26529 0.0
H527 H 0.16203 0.82992 0.22728 0.0
H528 H 0.23942 0.04052 0.68172 0.0
H529 H 0.30272 0.07888 0.65272 0.0
H530 H 0.34725 0.97821 0.66655 0.0
H531 H 0.28317 0.93883 0.69531 0.0
H532 H 0.40861 0.11674 0.65278 0.0
H533 H 0.30058 0.95627 0.5979 0.0
H534 H 0.27459 0.96706 0.62309 0.0
H535 H 0.31821 0.94984 0.62642 0.0
C536 C 0.2629 0.02677 0.67872 0.0
C537 C 0.25592 0.98628 0.69048 0.0
C538 C 0.29939 0.04905 0.6624 0.0
C539 C 0.32939 0.03117 0.65753 0.0
C540 C 0.32435 0.99242 0.67013 0.0
H541 H 0.40399 0.10306 0.51492 0.0
H542 H 0.42131 0.0775 0.55138 0.0
C543 C 0.28781 0.97007 0.68653 0.0
C544 C 0.36056 0.04924 0.63697 0.0
H545 H 0.35323 0.02704 0.57924 0.0
C546 C 0.39777 0.09682 0.63673 0.0
C547 C 0.34712 0.02276 0.61622 0.0
C548 C 0.30795 0.97114 0.61569 0.0
C549 C 0.41823 0.1201 0.61579 0.0
C550 C 0.39967 0.09542 0.59477 0.0
C551 C 0.36706 0.04626 0.59532 0.0
C552 C 0.40372 0.12066 0.57291 0.0
C553 C 0.45729 0.17163 0.61637 0.0
C554 C 0.3897 0.15463 0.57281 0.0
C555 C 0.38022 0.16951 0.55208 0.0
C556 C 0.38367 0.15008 0.531 0.0
C557 C 0.401 0.11866 0.53091 0.0
C558 C 0.41096 0.10407 0.55173 0.0
H559 H 0.48198 0.17803 0.63088 0.0
H560 H 0.47802 0.18288 0.59995 0.0
H561 H 0.44143 0.19409 0.61951 0.0
H562 H 0.38246 0.16709 0.58882 0.0
H563 H 0.36795 0.19457 0.55267 0.0
H564 H 0.32885 0.07636 1.07697 0.0
H565 H 0.40777 0.08501 1.07565 0.0
H566 H 0.35448 0.95608 0.1153 0.0
H567 H 0.27594 0.94788 0.11724 0.0
H568 H 0.43668 0.02365 0.13208 0.0
H569 H 0.45646 0.016 1.03729 0.0
H570 H 0.44469 0.06179 1.04567 0.0
H571 H 0.40039 0.00044 1.05086 0.0
C572 C 0.33382 0.04966 1.08529 0.0
C573 C 0.29596 0.01142 0.09722 0.0
C574 C 0.37896 0.05446 1.08436 0.0
C575 C 0.38703 0.02073 0.09501 0.0
C576 C 0.3492 0.98248 0.10685 0.0
H577 H 0.64968 0.01115 1.07712 0.0
H578 H 0.56673 0.99253 1.07591 0.0
C579 C 0.30424 0.97787 0.10796 0.0
C580 C 0.43536 0.02651 0.0949 0.0
H581 H 0.52719 0.04314 1.05961 0.0
C582 C 0.45625 0.02755 0.1162 0.0
C583 C 0.46077 0.03077 1.0742 0.0
C584 C 0.43925 0.0267 1.05071 0.0
C585 C 0.50213 0.03404 0.11741 0.0
C586 C 0.52858 0.04094 0.09678 0.0
C587 C 0.50721 0.03845 1.07544 0.0
C588 C 0.5789 0.05225 0.09714 0.0
C589 C 0.5216 0.03294 0.14084 0.0
C590 C 0.61352 0.09243 0.10907 0.0
C591 C 0.66064 0.10293 0.10992 0.0
C592 C 0.67459 0.07383 0.09859 0.0
C593 C 0.64015 0.03418 1.08612 0.0
C594 C 0.59274 0.02353 1.0854 0.0
H595 H 0.49249 0.01274 0.1536 0.0
H596 H 0.54417 0.01669 0.13987 0.0
H597 H 0.5437 0.06983 0.14737 0.0
H598 H 0.60411 0.11588 0.11773 0.0
H599 H 0.68621 0.13412 0.11944 0.0
H600 H 0.3235 0.42123 0.43345 0.0
H601 H 0.40002 0.49622 0.43173 0.0
H602 H 0.47127 0.41966 0.41502 0.0
H603 H 0.39502 0.34472 0.41634 0.0
H604 H 0.48125 0.52599 0.4576 0.0
H605 H 0.5208 0.52029 0.36451 0.0
H606 H 0.46259 0.48162 0.37697 0.0
H607 H 0.50941 0.46876 0.38067 0.0
C608 C 0.35536 0.4203 0.42921 0.0
C609 C 0.35286 0.3768 0.42485 0.0
C610 C 0.39917 0.46326 0.42831 0.0
C611 C 0.44147 0.4638 0.42293 0.0
C612 C 0.43912 0.42042 0.41871 0.0
H613 H 0.72323 0.72214 0.44683 0.0
H614 H 0.65841 0.63837 0.44676 0.0
C615 C 0.39536 0.37747 0.41957 0.0
C616 C 0.48801 0.50965 0.42221 0.0
H617 H 0.58121 0.5827 0.3866 0.0
C618 C 0.50322 0.53829 0.44211 0.0
C619 C 0.51664 0.52589 0.40196 0.0
C620 C 0.50147 0.49783 0.37973 0.0
C621 C 0.54582 0.58278 0.44224 0.0
C622 C 0.57456 0.59893 0.42202 0.0
C623 C 0.5596 0.57007 0.4022 0.0
C624 C 0.61731 0.64774 0.42035 0.0
C625 C 0.55873 0.61296 0.46377 0.0
C626 C 0.61709 0.68028 0.40474 0.0
C627 C 0.65401 0.72775 0.40465 0.0
C628 C 0.69239 0.74395 0.42007 0.0
C629 C 0.6943 0.71077 0.43469 0.0
C630 C 0.65698 0.66302 0.43485 0.0
H631 H 0.52844 0.59947 0.47621 0.0
H632 H 0.58875 0.61283 0.47252 0.0
H633 H 0.57034 0.65033 0.45934 0.0
H634 H 0.58716 0.66943 0.39329 0.0
H635 H 0.65151 0.75228 0.39307 0.0
H636 H 0.92397 0.33171 0.73306 0.0
H637 H 0.90377 0.39389 0.72824 0.0
H638 H 0.02433 0.4893 0.76992 0.0
H639 H 0.04463 0.42794 0.77492 0.0
H640 H 0.88788 0.44714 0.76685 0.0
H641 H 0.03746 0.56168 0.70752 0.0
H642 H 0.0155 0.499 0.71119 0.0
H643 H 0.0543 0.54103 0.73239 0.0
C644 C 0.94625 0.36602 0.74111 0.0
C645 C -0.01401 0.3749 0.75433 0.0
C646 C 0.93458 0.40138 0.73838 0.0
C647 C 0.96286 0.44622 0.74855 0.0
C648 C 0.00239 0.45506 0.76173 0.0
H649 H 0.00562 0.71465 0.77682 0.0
H650 H 0.00317 0.64009 0.77052 0.0
C651 C 0.01382 0.41982 0.76462 0.0
C652 C 0.95138 0.4842 0.74595 0.0
H653 H -8e-05 0.59843 0.72708 0.0
C654 C 0.91165 0.47992 0.75775 0.0
C655 C 0.98248 0.52673 0.73401 0.0
C656 C 0.02464 0.53243 0.72036 0.0
C657 C 0.90411 0.51846 0.75924 0.0
C658 C 0.93685 0.56193 0.74837 0.0
C659 C 0.97494 0.56511 0.73546 0.0
C660 C 0.93596 0.6062 0.75246 0.0
C661 C 0.86305 0.51346 0.7736 0.0
C662 C 0.89869 0.61192 0.74448 0.0
C663 C 0.89988 0.65492 0.74813 0.0
C664 C 0.93849 0.69275 0.7597 0.0
C665 C 0.97536 0.68644 0.76779 0.0
C666 C 0.97411 0.64376 0.76417 0.0
H667 H 0.84477 0.47951 0.7834 0.0
H668 H 0.87571 0.54343 0.786 0.0
H669 H 0.83664 0.5146 0.7621 0.0
H670 H 0.86917 0.58352 0.73515 0.0
H671 H 0.87104 0.65875 0.74162 0.0
H672 H 0.24038 0.10429 0.16826 0.0
H673 H 0.2473 0.13334 0.20784 0.0
H674 H 0.11512 0.00658 0.22582 0.0
H675 H 0.10942 0.97634 0.18635 0.0
H676 H 0.20624 0.16214 0.23365 0.0
H677 H 0.18163 0.00531 0.28104 0.0
H678 H 0.1882 0.00974 0.25006 0.0
H679 H 0.13104 0.99044 0.26343 0.0
C680 C 0.21284 0.08202 0.18061 0.0
C681 C 0.17446 0.03732 0.17359 0.0
C682 C 0.21677 0.09903 0.20357 0.0
C683 C 0.1824 0.07248 0.22082 0.0
C684 C 0.14356 0.02793 0.21373 0.0
H685 H 0.25157 0.15558 0.36911 0.0
H686 H 0.24301 0.12392 0.32985 0.0
C687 C 0.13997 0.01054 0.19076 0.0
C688 C 0.18698 0.09234 0.24559 0.0
H689 H 0.1786 0.06447 0.30363 0.0
C690 C 0.20026 0.14041 0.24883 0.0
C691 C 0.1803 0.06547 0.26612 0.0
C692 C 0.17002 0.01509 0.26505 0.0
C693 C 0.20655 0.16163 0.27112 0.0
C694 C 0.19778 0.13421 0.29165 0.0
C695 C 0.18493 0.08625 0.28843 0.0
C696 C 0.20302 0.15454 0.31634 0.0
C697 C 0.22457 0.21418 0.27216 0.0
C698 C 0.18329 0.18257 0.32304 0.0
C699 C 0.18897 0.20165 0.34571 0.0
C700 C 0.2137 0.19276 0.36307 0.0
C701 C 0.23239 0.16379 0.35658 0.0
C702 C 0.22729 0.14529 0.33382 0.0
H703 H 0.24466 0.23263 0.25621 0.0
H704 H 0.19379 0.21957 0.2736 0.0
H705 H 0.24824 0.23116 0.28721 0.0
H706 H 0.1627 0.18944 0.31079 0.0
H707 H 0.1732 0.22296 0.34972 0.0
H708 H 0.1639 0.29873 0.49734 0.0
H709 H 0.1376 0.29885 0.53689 0.0
H710 H 0.21621 0.2344 0.56034 0.0
H711 H 0.24361 0.23512 0.5205 0.0
H712 H 0.08396 0.23654 0.56675 0.0
H713 H 0.25952 0.33215 0.60919 0.0
H714 H 0.25377 0.32734 0.57818 0.0
H715 H 0.24916 0.27896 0.595 0.0
C716 C 0.17661 0.28524 0.51083 0.0
C717 C 0.20717 0.26779 0.50514 0.0
C718 C 0.16097 0.28501 0.53379 0.0
C719 C 0.17506 0.26755 0.55252 0.0
C720 C 0.2054 0.24972 0.5469 0.0
H721 H 0.12676 0.34289 0.69483 0.0
H722 H 0.15483 0.34091 0.65559 0.0
C723 C 0.22122 0.24999 0.52379 0.0
C724 C 0.1569 0.26723 0.57734 0.0
H725 H 0.19192 0.29816 0.63404 0.0
C726 C 0.10795 0.25015 0.58135 0.0
C727 C 0.18715 0.28542 0.59702 0.0
C728 C 0.24035 0.30745 0.59468 0.0
C729 C 0.08894 0.25038 0.60365 0.0
C730 C 0.11894 0.26716 0.62348 0.0
C731 C 0.16797 0.28466 0.61944 0.0
C732 C 0.10076 0.26804 0.64817 0.0
C733 C 0.03667 0.234 0.60539 0.0
C734 C 0.0608 0.2279 0.65826 0.0
C735 C 0.04425 0.22913 0.68095 0.0
C736 C 0.06713 0.27039 0.69492 0.0
C737 C 0.10752 0.3103 0.68499 0.0
C738 C 0.12392 0.30911 0.66226 0.0
H739 H 0.02248 0.23727 0.58854 0.0
H740 H 0.01646 0.19595 0.61043 0.0
H741 H 0.02997 0.25477 0.61851 0.0
H742 H 0.04242 0.19489 0.64872 0.0
H743 H 0.01348 0.19723 0.68763 0.0
H744 H 0.05256 0.28735 0.852 0.0
H745 H 0.02633 0.26747 0.89256 0.0
H746 H 0.87998 0.19653 0.8709 0.0
H747 H 0.90583 0.21683 0.83068 0.0
H748 H 0.97735 0.18782 0.91755 0.0
H749 H 0.87039 0.27429 0.92122 0.0
H750 H 0.85083 0.23078 0.89864 0.0
H751 H 0.90958 0.28291 0.89722 0.0
C752 C 0.01471 0.26805 0.85579 0.0
C753 C 0.98171 0.25467 0.83749 0.0
C754 C -0.00047 0.2563 0.87926 0.0
C755 C 0.95066 0.23102 0.88561 0.0
C756 C 0.91782 0.21718 0.86726 0.0
H757 H 0.86444 0.22123 1.03416 0.0
H758 H 0.89407 0.24443 0.99432 0.0
C759 C 0.93291 0.22875 0.84388 0.0
C760 C 0.934 0.21846 0.91103 0.0
H761 H 0.85929 0.22229 0.95244 0.0
C762 C 0.9516 0.19563 0.92505 0.0
C763 C 0.90082 0.22878 0.92173 0.0
C764 C 0.88216 0.25596 0.90903 0.0
C765 C 0.93661 0.18223 0.9485 0.0
C766 C 0.90187 0.19078 0.95887 0.0
C767 C 0.88522 0.21466 0.94502 0.0
C768 C 0.88287 0.17595 0.98385 0.0
C769 C 0.95952 0.16009 0.96209 0.0
C770 C 0.86511 0.12919 0.9921 0.0
C771 C 0.84781 0.11571 1.01509 0.0
C772 C 0.84688 0.14811 1.03107 0.0
C773 C 0.86387 0.1947 1.02274 0.0
C774 C 0.88116 0.20817 0.99967 0.0
H775 H -0.00502 0.16988 0.95482 0.0
H776 H 0.96405 0.17116 0.98049 0.0
H777 H 0.93663 0.12081 0.96131 0.0
H778 H 0.86415 0.1025 0.98067 0.0
H779 H 0.83549 0.07954 1.02038 0.0
H780 H 0.75327 -0.00039 0.16974 0.0
H781 H 0.74666 0.97391 0.20985 0.0
H782 H 0.84984 0.11719 0.2299 0.0
H783 H 0.85543 0.14344 0.18961 0.0
H784 H 0.79902 0.96554 0.23886 0.0
H785 H 0.75797 0.09199 0.28023 0.0
H786 H 0.76134 0.08816 0.24933 0.0
H787 H 0.81483 0.12302 0.2659 0.0
C788 C 0.77448 0.02612 0.18258 0.0
C789 C 0.80482 0.07408 0.17584 0.0
C790 C 0.77073 0.01109 0.20586 0.0
C791 C 0.79703 0.04311 0.2238 0.0
C792 C 0.82774 0.09115 0.2171 0.0
H793 H 0.71512 0.9463 0.37093 0.0
H794 H 0.72089 0.97598 0.33128 0.0
C795 C 0.83131 0.10634 0.19371 0.0
C796 C 0.79298 0.02552 0.24894 0.0
H797 H 0.77831 0.04794 0.3059 0.0
C798 C 0.7944 0.98386 0.25338 0.0
C799 C 0.78579 0.04776 0.26855 0.0
C800 C 0.77939 0.08988 0.26579 0.0
C801 C 0.78965 0.96471 0.27602 0.0
C802 C 0.78489 0.98823 0.29578 0.0
C803 C 0.78267 0.02953 0.29135 0.0
C804 C 0.78159 0.97032 0.32082 0.0
C805 C 0.78796 0.918 0.27818 0.0
C806 C 0.81387 0.95739 0.32931 0.0
C807 C 0.81012 0.93961 0.35206 0.0
C808 C 0.77449 0.93471 0.36781 0.0
C809 C 0.74296 0.94893 0.35964 0.0
C810 C 0.74642 0.96628 0.3367 0.0
H811 H 0.77522 0.89693 0.26198 0.0
H812 H 0.8244 0.92498 0.28146 0.0
H813 H 0.76417 0.89616 0.29257 0.0
H814 H 0.84273 0.9614 0.31839 0.0
H815 H 0.83583 0.93008 0.35737 0.0
H816 H 0.86544 0.9327 0.50823 0.0
H817 H 0.88694 0.9247 0.54761 0.0
H818 H 0.74963 0.79815 0.55695 0.0
H819 H 0.72758 0.80634 0.51719 0.0
H820 H 0.85154 0.92484 0.59089 0.0
H821 H 0.83753 0.75054 0.57783 0.0
H822 H 0.83777 0.78613 0.554 0.0
H823 H 0.78459 0.75172 0.57098 0.0
C824 C 0.83938 0.903 0.51852 0.0
C825 C 0.7945 0.8701 0.50892 0.0
C826 C 0.85195 0.89848 0.54136 0.0
C827 C 0.82075 0.86026 0.5558 0.0
C828 C 0.77537 0.82765 0.54648 0.0
H829 H 0.96903 0.83108 0.67903 0.0
H830 H 0.94305 0.83675 0.63984 0.0
C831 C 0.76239 0.83261 0.52358 0.0
C832 C 0.83616 0.85543 0.58029 0.0
H833 H 0.85506 0.78209 0.61575 0.0
C834 C 0.85195 0.89335 0.5962 0.0
C835 C 0.83805 0.81504 0.58779 0.0
C836 C 0.82403 0.77361 0.57178 0.0
C837 C 0.86824 0.89176 0.61883 0.0
C838 C 0.86934 0.85104 0.6265 0.0
C839 C 0.85434 0.81342 0.61046 0.0
C840 C 0.88555 0.84703 0.65092 0.0
C841 C 0.88527 0.93461 0.63424 0.0
C842 C 0.86236 0.85026 0.67096 0.0
C843 C 0.87703 0.84663 0.69351 0.0
C844 C 0.91594 0.83986 0.69732 0.0
C845 C 0.93923 0.83657 0.67726 0.0
C846 C 0.9241 0.83965 0.6546 0.0
H847 H 0.89431 0.96703 0.62418 0.0
H848 H 0.85655 0.92803 0.64672 0.0
H849 H 0.91708 0.94144 0.64421 0.0
H850 H 0.83214 0.85507 0.66921 0.0
H851 H 0.85751 0.84918 0.70811 0.0
H852 H 0.92093 0.80957 0.85431 0.0
H853 H 0.94806 0.83137 0.89452 0.0
H854 H 0.09371 0.8941 0.87162 0.0
H855 H 0.06704 0.87183 0.83185 0.0
H856 H 0.00191 0.91394 0.91746 0.0
H857 H 0.09761 0.8162 0.92348 0.0
H858 H 0.11893 0.85744 0.89983 0.0
H859 H 0.05861 0.80778 0.89973 0.0
C860 C 0.95875 0.82732 0.85779 0.0
C861 C -0.00867 0.83782 0.83931 0.0
C862 C 0.97446 0.84022 0.88102 0.0
C863 C 0.02339 0.86387 0.88686 0.0
C864 C 0.05579 0.87476 0.86833 0.0
H865 H 0.10668 0.88033 1.03506 0.0
H866 H 0.07652 0.85537 0.99565 0.0
C867 C 0.04021 0.86195 0.84523 0.0
C868 C 0.0407 0.87796 0.91191 0.0
H869 H 0.11276 0.87216 0.95347 0.0
C870 C 0.02605 0.90453 0.92522 0.0
C871 C 0.07187 0.86568 0.92287 0.0
C872 C 0.08732 0.8348 0.91086 0.0
C873 C 0.04203 0.91963 0.9483 0.0
C874 C 0.07472 0.90894 0.95892 0.0
C875 C 0.08845 0.88142 0.94578 0.0
C876 C 0.09432 0.92503 0.98353 0.0
C877 C 0.02232 0.94586 0.96129 0.0
C878 C 0.11596 0.97301 0.99063 0.0
C879 C 0.13362 0.98754 1.01338 0.0
C880 C 0.13089 0.95489 1.03019 0.0
C881 C 0.11008 0.90704 1.02296 0.0
C882 C 0.09249 0.89254 1.00016 0.0
H883 H -0.01206 0.9387 0.95395 0.0
H884 H 0.01663 0.93568 0.97983 0.0
H885 H 0.04791 0.98467 0.96005 0.0
H886 H 0.11963 -0.00024 0.9785 0.0
H887 H 0.14901 0.02466 1.01786 0.0
loop_
_geom_bond_atom_site_label_1
_geom_bond_atom_site_label_2
_geom_bond_distance
_geom_bond_site_symmetry_2
_ccdc_geom_bond_type
Tb0 C9 2.764 . S
Tb0 O10 2.325 1_565 S
Tb0 O13 2.303 . S
Tb0 O17 2.340 . S
Tb0 O18 2.349 . S
Tb0 O21 2.415 . S
Tb0 O22 2.399 . S
Tb1 O11 2.322 . S
Tb1 O12 2.349 . S
Tb1 O14 2.415 1_554 S
Tb1 O15 2.399 1_554 S
Tb1 O16 2.325 1_554 S
Tb1 O19 2.303 . S
Tb1 C30 2.764 1_554 S
C2 O18 1.261 1_545 S
C2 O19 1.257 . S
C3 C6 1.358 . S
C3 C7 1.332 . S
C3 C9 1.504 . S
C4 C5 1.373 . S
C4 C8 1.308 . S
C5 C4 1.373 . S
C5 C6 1.429 . S
C5 H32 0.932 . S
C6 C3 1.358 . S
C6 C5 1.429 . S
C6 H33 0.930 . S
C7 C3 1.332 . S
C7 C8 1.394 . S
C7 H34 0.932 . S
C8 C4 1.308 . S
C8 C7 1.394 . S
C8 H35 0.929 . S
C9 Tb0 2.764 . S
C9 C3 1.504 . S
C9 O21 1.239 . S
C9 O22 1.263 . S
O10 Tb0 2.325 1_545 S
O10 C20 1.236 . S
O11 Tb1 2.322 . S
O11 C20 1.257 . S
O12 Tb1 2.349 . S
O12 C23 1.261 . S
O13 Tb0 2.303 . S
O13 C23 1.257 1_565 S
O14 Tb1 2.415 1_556 S
O14 C30 1.239 . S
O15 Tb1 2.399 1_556 S
O15 C30 1.263 . S
O16 Tb1 2.325 1_556 S
O16 C31 1.236 1_545 S
O17 Tb0 2.340 . S
O17 C31 1.242 1_554 S
O18 Tb0 2.349 . S
O18 C2 1.261 1_565 S
O19 Tb1 2.303 . S
O19 C2 1.257 . S
C20 O10 1.236 . S
C20 O11 1.257 . S
O21 Tb0 2.415 . S
O21 C9 1.239 . S
O22 Tb0 2.399 . S
O22 C9 1.263 . S
C23 O12 1.261 . S
C23 O13 1.257 1_545 S
C24 C27 1.358 . S
C24 C28 1.332 . S
C24 C30 1.504 . S
C25 C26 1.373 . S
C25 C29 1.308 . S
C26 C25 1.373 . S
C26 C27 1.429 . S
C26 H36 0.932 . S
C27 C24 1.358 . S
C27 C26 1.429 . S
C27 H37 0.930 . S
C28 C24 1.332 . S
C28 C29 1.394 . S
C28 H38 0.932 . S
C29 C25 1.308 . S
C29 C28 1.394 . S
C29 H39 0.929 . S
C30 Tb1 2.764 1_556 S
C30 O14 1.239 . S
C30 O15 1.263 . S
C30 C24 1.504 . S
C31 O16 1.236 1_565 S
C31 O17 1.242 1_556 S
H32 C5 0.932 . S
H33 C6 0.930 . S
H34 C7 0.932 . S
H35 C8 0.929 . S
H36 C26 0.932 . S
H37 C27 0.930 . S
H38 C28 0.932 . S
H39 C29 0.929 . S
Tb40 C49 2.764 . S
Tb40 O50 2.325 . S
Tb40 O53 2.303 . S
Tb40 O57 2.322 . S
Tb40 O58 2.349 . S
Tb40 O61 2.415 . S
Tb40 O62 2.399 . S
Tb41 O51 2.322 . S
Tb41 O52 2.349 . S
Tb41 O54 2.415 . S
Tb41 O55 2.399 . S
Tb41 O56 2.325 . S
Tb41 O59 2.303 . S
Tb41 C70 2.764 . S
C42 O58 1.261 . S
C42 O59 1.257 . S
C43 C46 1.358 . S
C43 C47 1.332 . S
C43 C49 1.504 . S
C44 C45 1.373 . S
C44 C48 1.308 . S
C45 C44 1.373 . S
C45 C46 1.429 . S
C45 H72 0.932 . S
C46 C43 1.358 . S
C46 C45 1.429 . S
C46 H73 0.930 . S
C47 C43 1.332 . S
C47 C48 1.394 . S
C47 H74 0.932 . S
C48 C44 1.308 . S
C48 C47 1.394 . S
C48 H75 0.929 . S
C49 Tb40 2.764 . S
C49 C43 1.504 . S
C49 O61 1.239 . S
C49 O62 1.263 . S
O50 Tb40 2.325 . S
O50 C60 1.236 . S
O51 Tb41 2.322 . S
O51 C60 1.257 . S
O52 Tb41 2.349 . S
O52 C63 1.261 . S
O53 Tb40 2.303 . S
O53 C63 1.257 . S
O54 Tb41 2.415 . S
O54 C70 1.239 . S
O55 Tb41 2.399 . S
O55 C70 1.263 . S
O56 Tb41 2.325 . S
O56 C71 1.236 . S
O57 Tb40 2.322 . S
O57 C71 1.257 . S
O58 Tb40 2.349 . S
O58 C42 1.261 . S
O59 Tb41 2.303 . S
O59 C42 1.257 . S
C60 O50 1.236 . S
C60 O51 1.257 . S
O61 Tb40 2.415 . S
O61 C49 1.239 . S
O62 Tb40 2.399 . S
O62 C49 1.263 . S
C63 O52 1.261 . S
C63 O53 1.257 . S
C64 C67 1.358 . S
C64 C68 1.332 . S
C64 C70 1.504 . S
C65 C66 1.373 . S
C65 C69 1.308 . S
C66 C65 1.373 . S
C66 C67 1.429 . S
C66 H76 0.932 . S
C67 C64 1.358 . S
C67 C66 1.429 . S
C67 H77 0.930 . S
C68 C64 1.332 . S
C68 C69 1.394 . S
C68 H78 0.932 . S
C69 C65 1.308 . S
C69 C68 1.394 . S
C69 H79 0.929 . S
C70 Tb41 2.764 . S
C70 O54 1.239 . S
C70 O55 1.263 . S
C70 C64 1.504 . S
C71 O56 1.236 . S
C71 O57 1.257 . S
H72 C45 0.932 . S
H73 C46 0.930 . S
H74 C47 0.932 . S
H75 C48 0.929 . S
H76 C66 0.932 . S
H77 C67 0.930 . S
H78 C68 0.932 . S
H79 C69 0.929 . S
Tb80 C89 2.764 . S
Tb80 O90 2.325 . S
Tb80 O93 2.303 . S
Tb80 O97 2.322 . S
Tb80 O98 2.349 . S
Tb80 O101 2.415 . S
Tb80 O102 2.399 . S
Tb81 O91 2.322 . S
Tb81 O92 2.349 1_655 S
Tb81 O94 2.415 . S
Tb81 O95 2.399 . S
Tb81 O96 2.325 1_655 S
Tb81 O99 2.303 1_655 S
Tb81 C110 2.764 . S
C82 O98 1.261 . S
C82 O99 1.257 . S
C83 C86 1.358 . S
C83 C87 1.332 . S
C83 C89 1.504 . S
C84 C85 1.373 . S
C84 C88 1.308 . S
C85 C84 1.373 . S
C85 C86 1.429 . S
C85 H112 0.932 . S
C86 C83 1.358 . S
C86 C85 1.429 . S
C86 H113 0.930 . S
C87 C83 1.332 . S
C87 C88 1.394 . S
C87 H114 0.932 . S
C88 C84 1.308 . S
C88 C87 1.394 . S
C88 H115 0.929 . S
C89 Tb80 2.764 . S
C89 C83 1.504 . S
C89 O101 1.239 . S
C89 O102 1.263 . S
O90 Tb80 2.325 . S
O90 C100 1.236 . S
O91 Tb81 2.322 . S
O91 C100 1.257 1_655 S
O92 Tb81 2.349 1_455 S
O92 C103 1.261 . S
O93 Tb80 2.303 . S
O93 C103 1.257 . S
O94 Tb81 2.415 . S
O94 C110 1.239 . S
O95 Tb81 2.399 . S
O95 C110 1.263 . S
O96 Tb81 2.325 1_455 S
O96 C111 1.236 . S
O97 Tb80 2.322 . S
O97 C111 1.257 . S
O98 Tb80 2.349 . S
O98 C82 1.261 . S
O99 Tb81 2.303 1_455 S
O99 C82 1.257 . S
C100 O90 1.236 . S
C100 O91 1.257 1_455 S
O101 Tb80 2.415 . S
O101 C89 1.239 . S
O102 Tb80 2.399 . S
O102 C89 1.263 . S
C103 O92 1.261 . S
C103 O93 1.257 . S
C104 C107 1.358 . S
C104 C108 1.332 . S
C104 C110 1.504 . S
C105 C106 1.373 . S
C105 C109 1.308 . S
C106 C105 1.373 . S
C106 C107 1.429 . S
C106 H116 0.932 . S
C107 C104 1.358 . S
C107 C106 1.429 . S
C107 H117 0.930 . S
C108 C104 1.332 . S
C108 C109 1.394 . S
C108 H118 0.932 . S
C109 C105 1.308 . S
C109 C108 1.394 . S
C109 H119 0.929 . S
C110 Tb81 2.764 . S
C110 O94 1.239 . S
C110 O95 1.263 . S
C110 C104 1.504 . S
C111 O96 1.236 . S
C111 O97 1.257 . S
H112 C85 0.932 . S
H113 C86 0.930 . S
H114 C87 0.932 . S
H115 C88 0.929 . S
H116 C106 0.932 . S
H117 C107 0.930 . S
H118 C108 0.932 . S
H119 C109 0.929 . S
Tb120 C129 2.747 1_554 S
Tb120 O130 2.315 1_564 S
Tb120 O133 2.309 . S
Tb120 O137 2.340 . S
Tb120 O138 2.352 . S
Tb120 O141 2.401 1_554 S
Tb120 O142 2.384 1_554 S
Tb121 O131 2.322 1_554 S
Tb121 O132 2.349 . S
Tb121 O134 2.415 . S
Tb121 O135 2.399 . S
Tb121 O136 2.325 . S
Tb121 O139 2.303 . S
Tb121 C150 2.764 . S
C122 O138 1.261 1_545 S
C122 O139 1.257 . S
C123 C126 1.358 . S
C123 C127 1.332 . S
C123 C129 1.504 . S
C124 C125 1.373 . S
C124 C128 1.308 . S
C125 C124 1.373 . S
C125 C126 1.429 . S
C125 H152 0.932 . S
C126 C123 1.358 . S
C126 C125 1.429 . S
C126 H153 0.930 . S
C127 C123 1.332 . S
C127 C128 1.394 . S
C127 H154 0.932 . S
C128 C124 1.308 . S
C128 C127 1.394 . S
C128 H155 0.929 . S
C129 Tb120 2.747 1_556 S
C129 C123 1.504 . S
C129 O141 1.239 . S
C129 O142 1.263 . S
O130 Tb120 2.315 1_546 S
O130 C140 1.236 . S
O131 Tb121 2.322 1_556 S
O131 C140 1.257 . S
O132 Tb121 2.349 . S
O132 C143 1.261 . S
O133 Tb120 2.309 . S
O133 C143 1.257 1_565 S
O134 Tb121 2.415 . S
O134 C150 1.239 . S
O135 Tb121 2.399 . S
O135 C150 1.263 . S
O136 Tb121 2.325 . S
O136 C151 1.236 1_545 S
O137 Tb120 2.340 . S
O137 C151 1.257 . S
O138 Tb120 2.352 . S
O138 C122 1.261 1_565 S
O139 Tb121 2.303 . S
O139 C122 1.257 . S
C140 O130 1.236 . S
C140 O131 1.257 . S
O141 Tb120 2.401 1_556 S
O141 C129 1.239 . S
O142 Tb120 2.384 1_556 S
O142 C129 1.263 . S
C143 O132 1.261 . S
C143 O133 1.257 1_545 S
C144 C147 1.358 . S
C144 C148 1.332 . S
C144 C150 1.504 . S
C145 C146 1.373 . S
C145 C149 1.308 . S
C146 C145 1.373 . S
C146 C147 1.429 . S
C146 H156 0.932 . S
C147 C144 1.358 . S
C147 C146 1.429 . S
C147 H157 0.930 . S
C148 C144 1.332 . S
C148 C149 1.394 . S
C148 H158 0.932 . S
C149 C145 1.308 . S
C149 C148 1.394 . S
C149 H159 0.929 . S
C150 Tb121 2.764 . S
C150 O134 1.239 . S
C150 O135 1.263 . S
C150 C144 1.504 . S
C151 O136 1.236 1_565 S
C151 O137 1.257 . S
H152 C125 0.932 . S
H153 C126 0.930 . S
H154 C127 0.932 . S
H155 C128 0.929 . S
H156 C146 0.932 . S
H157 C147 0.930 . S
H158 C148 0.932 . S
H159 C149 0.929 . S
Tb160 C169 2.764 . S
Tb160 O170 2.325 . S
Tb160 O173 2.303 . S
Tb160 O177 2.322 . S
Tb160 O178 2.349 . S
Tb160 O181 2.415 . S
Tb160 O182 2.399 . S
Tb161 O171 2.322 . S
Tb161 O172 2.349 . S
Tb161 O174 2.415 . S
Tb161 O175 2.399 . S
Tb161 O176 2.325 . S
Tb161 O179 2.303 . S
Tb161 C190 2.764 . S
C162 O178 1.261 . S
C162 O179 1.257 . S
C163 C166 1.358 . S
C163 C167 1.332 . S
C163 C169 1.504 . S
C164 C165 1.373 . S
C164 C168 1.308 . S
C165 C164 1.373 . S
C165 C166 1.429 . S
C165 H192 0.932 . S
C166 C163 1.358 . S
C166 C165 1.429 . S
C166 H193 0.930 . S
C167 C163 1.332 . S
C167 C168 1.394 . S
C167 H194 0.932 . S
C168 C164 1.308 . S
C168 C167 1.394 . S
C168 H195 0.929 . S
C169 Tb160 2.764 . S
C169 C163 1.504 . S
C169 O181 1.239 . S
C169 O182 1.263 . S
O170 Tb160 2.325 . S
O170 C180 1.236 . S
O171 Tb161 2.322 . S
O171 C180 1.257 . S
O172 Tb161 2.349 . S
O172 C183 1.261 . S
O173 Tb160 2.303 . S
O173 C183 1.257 . S
O174 Tb161 2.415 . S
O174 C190 1.239 . S
O175 Tb161 2.399 . S
O175 C190 1.263 . S
O176 Tb161 2.325 . S
O176 C191 1.236 . S
O177 Tb160 2.322 . S
O177 C191 1.257 . S
O178 Tb160 2.349 . S
O178 C162 1.261 . S
O179 Tb161 2.303 . S
O179 C162 1.257 . S
C180 O170 1.236 . S
C180 O171 1.257 . S
O181 Tb160 2.415 . S
O181 C169 1.239 . S
O182 Tb160 2.399 . S
O182 C169 1.263 . S
C183 O172 1.261 . S
C183 O173 1.257 . S
C184 C187 1.358 . S
C184 C188 1.332 . S
C184 C190 1.504 . S
C185 C186 1.373 . S
C185 C189 1.308 . S
C186 C185 1.373 . S
C186 C187 1.429 . S
C186 H196 0.932 . S
C187 C184 1.358 . S
C187 C186 1.429 . S
C187 H197 0.930 . S
C188 C184 1.332 . S
C188 C189 1.394 . S
C188 H198 0.932 . S
C189 C185 1.308 . S
C189 C188 1.394 . S
C189 H199 0.929 . S
C190 Tb161 2.764 . S
C190 O174 1.239 . S
C190 O175 1.263 . S
C190 C184 1.504 . S
C191 O176 1.236 . S
C191 O177 1.257 . S
H192 C165 0.932 . S
H193 C166 0.930 . S
H194 C167 0.932 . S
H195 C168 0.929 . S
H196 C186 0.932 . S
H197 C187 0.930 . S
H198 C188 0.932 . S
H199 C189 0.929 . S
Tb200 C209 2.764 . S
Tb200 O210 2.325 . S
Tb200 O213 2.303 . S
Tb200 O217 2.322 . S
Tb200 O218 2.349 . S
Tb200 O221 2.415 . S
Tb200 O222 2.399 . S
Tb201 O211 2.322 . S
Tb201 O212 2.349 1_655 S
Tb201 O214 2.415 . S
Tb201 O215 2.399 . S
Tb201 O216 2.325 1_655 S
Tb201 O219 2.303 1_655 S
Tb201 C230 2.764 . S
C202 O218 1.261 . S
C202 O219 1.257 . S
C203 C206 1.358 . S
C203 C207 1.332 . S
C203 C209 1.504 . S
C204 C205 1.373 . S
C204 C208 1.308 . S
C205 C204 1.373 . S
C205 C206 1.429 . S
C205 H232 0.932 . S
C206 C203 1.358 . S
C206 C205 1.429 . S
C206 H233 0.930 . S
C207 C203 1.332 . S
C207 C208 1.394 . S
C207 H234 0.932 . S
C208 C204 1.308 . S
C208 C207 1.394 . S
C208 H235 0.929 . S
C209 Tb200 2.764 . S
C209 C203 1.504 . S
C209 O221 1.239 . S
C209 O222 1.263 . S
O210 Tb200 2.325 . S
O210 C220 1.236 . S
O211 Tb201 2.322 . S
O211 C220 1.257 1_655 S
O212 Tb201 2.349 1_455 S
O212 C223 1.261 . S
O213 Tb200 2.303 . S
O213 C223 1.257 . S
O214 Tb201 2.415 . S
O214 C230 1.239 . S
O215 Tb201 2.399 . S
O215 C230 1.263 . S
O216 Tb201 2.325 1_455 S
O216 C231 1.236 . S
O217 Tb200 2.322 . S
O217 C231 1.257 . S
O218 Tb200 2.349 . S
O218 C202 1.261 . S
O219 Tb201 2.303 1_455 S
O219 C202 1.257 . S
C220 O210 1.236 . S
C220 O211 1.257 1_455 S
O221 Tb200 2.415 . S
O221 C209 1.239 . S
O222 Tb200 2.399 . S
O222 C209 1.263 . S
C223 O212 1.261 . S
C223 O213 1.257 . S
C224 C227 1.358 . S
C224 C228 1.332 . S
C224 C230 1.504 . S
C225 C226 1.373 . S
C225 C229 1.308 . S
C226 C225 1.373 . S
C226 C227 1.429 . S
C226 H236 0.932 . S
C227 C224 1.358 . S
C227 C226 1.429 . S
C227 H237 0.930 . S
C228 C224 1.332 . S
C228 C229 1.394 . S
C228 H238 0.932 . S
C229 C225 1.308 . S
C229 C228 1.394 . S
C229 H239 0.929 . S
C230 Tb201 2.764 . S
C230 O214 1.239 . S
C230 O215 1.263 . S
C230 C224 1.504 . S
C231 O216 1.236 . S
C231 O217 1.257 . S
H232 C205 0.932 . S
H233 C206 0.930 . S
H234 C207 0.932 . S
H235 C208 0.929 . S
H236 C226 0.932 . S
H237 C227 0.930 . S
H238 C228 0.932 . S
H239 C229 0.929 . S
H240 C248 0.929 . S
H241 C250 0.930 . S
H242 C252 0.930 . S
H243 C255 0.929 . S
H244 C258 0.930 . S
H245 C260 0.960 . S
H246 C260 0.960 1_565 S
H247 C260 0.960 . S
C248 H240 0.929 . S
C248 C249 1.377 1_565 S
C248 C250 1.384 . S
C249 C248 1.377 1_545 S
C249 C255 1.390 . S
C250 H241 0.930 . S
C250 C248 1.384 . S
C250 C251 1.372 1_565 S
C251 C250 1.372 1_545 S
C251 C252 1.400 . S
C251 C256 1.490 . S
C252 H242 0.930 . S
C252 C251 1.400 . S
C252 C255 1.386 . S
H253 C269 0.930 . S
H254 C270 0.931 . S
C255 H243 0.929 . S
C255 C249 1.390 . S
C255 C252 1.386 . S
C256 C251 1.490 . S
C256 C258 1.395 1_544 S
C256 C259 1.403 . S
H257 C263 0.940 . S
C258 H244 0.930 . S
C258 C256 1.395 1_566 S
C258 C261 1.403 . S
C259 C256 1.403 . S
C259 C260 1.524 . S
C259 C263 1.381 1_655 S
C260 H245 0.960 . S
C260 H246 0.960 1_545 S
C260 H247 0.960 . S
C260 C259 1.524 . S
C261 C258 1.403 . S
C261 C262 1.392 1_666 S
C261 C265 1.495 1_655 S
C262 C261 1.392 1_444 S
C262 C263 1.395 . S
C262 C264 1.478 . S
C263 H257 0.940 . S
C263 C259 1.381 1_455 S
C263 C262 1.395 . S
C264 C262 1.478 . S
C264 C266 1.381 1_545 S
C264 C270 1.383 . S
C265 C261 1.495 1_455 S
C265 H271 0.959 1_455 S
C265 H272 0.961 1_565 S
C265 H273 0.960 . S
C266 C264 1.381 1_565 S
C266 C267 1.394 . S
C266 H274 0.930 . S
C267 C266 1.394 . S
C267 C268 1.383 1_565 S
C267 H275 0.929 . S
C268 C267 1.383 1_545 S
C268 C269 1.377 . S
C269 H253 0.930 . S
C269 C268 1.377 . S
C269 C270 1.379 . S
C270 H254 0.931 . S
C270 C264 1.383 . S
C270 C269 1.379 . S
H271 C265 0.959 1_655 S
H272 C265 0.961 1_545 S
H273 C265 0.960 . S
H274 C266 0.930 . S
H275 C267 0.929 . S
H276 C284 0.929 . S
H277 C286 0.930 . S
H278 C288 0.930 1_545 S
H279 C291 0.929 . S
H280 C294 0.930 . S
H281 C296 0.960 . S
H282 C296 0.960 . S
H283 C296 0.960 . S
C284 H276 0.929 . S
C284 C285 1.377 . S
C284 C286 1.384 . S
C285 C284 1.377 . S
C285 C291 1.390 . S
C286 H277 0.930 . S
C286 C284 1.384 . S
C286 C287 1.372 . S
C287 C286 1.372 . S
C287 C288 1.400 . S
C287 C292 1.490 1_565 S
C288 H278 0.930 1_565 S
C288 C287 1.400 . S
C288 C291 1.386 . S
H289 C305 0.930 . S
H290 C306 0.931 . S
C291 H279 0.929 . S
C291 C285 1.390 . S
C291 C288 1.386 . S
C292 C287 1.490 1_545 S
C292 C294 1.395 . S
C292 C295 1.403 . S
H293 C299 0.930 . S
C294 H280 0.930 . S
C294 C292 1.395 . S
C294 C297 1.403 . S
C295 C292 1.403 . S
C295 C296 1.524 . S
C295 C299 1.400 1_655 S
C296 H281 0.960 . S
C296 H282 0.960 . S
C296 H283 0.960 . S
C296 C295 1.524 . S
C297 C294 1.403 . S
C297 C298 1.392 1_655 S
C297 C301 1.495 . S
C298 C297 1.392 1_455 S
C298 C299 1.385 . S
C298 C300 1.478 . S
C299 H293 0.930 . S
C299 C295 1.400 1_455 S
C299 C298 1.385 . S
C300 C298 1.478 . S
C300 C302 1.381 . S
C300 C306 1.383 . S
C301 C297 1.495 . S
C301 H307 0.959 . S
C301 H308 0.961 . S
C301 H309 0.960 1_655 S
C302 C300 1.381 . S
C302 C303 1.394 . S
C302 H310 0.930 . S
C303 C302 1.394 . S
C303 C304 1.383 . S
C303 H311 0.929 . S
C304 C303 1.383 . S
C304 C305 1.377 . S
C305 H289 0.930 . S
C305 C304 1.377 . S
C305 C306 1.379 . S
C306 H290 0.931 . S
C306 C300 1.383 . S
C306 C305 1.379 . S
H307 C301 0.959 . S
H308 C301 0.961 . S
H309 C301 0.960 1_455 S
H310 C302 0.930 . S
H311 C303 0.929 . S
H312 C320 0.929 . S
H313 C322 0.930 . S
H314 C324 0.930 . S
H315 C327 0.929 . S
H316 C330 0.930 1_655 S
H317 C332 0.960 . S
H318 C332 0.960 . S
H319 C332 0.960 . S
C320 H312 0.929 . S
C320 C321 1.377 . S
C320 C322 1.384 . S
C321 C320 1.377 . S
C321 C327 1.390 . S
C322 H313 0.930 . S
C322 C320 1.384 . S
C322 C323 1.375 . S
C323 C322 1.375 . S
C323 C324 1.404 . S
C323 C328 1.483 1_565 S
C324 H314 0.930 . S
C324 C323 1.404 . S
C324 C327 1.386 . S
H325 C341 0.930 . S
H326 C342 0.931 . S
C327 H315 0.929 . S
C327 C321 1.390 . S
C327 C324 1.386 . S
C328 C323 1.483 1_545 S
C328 C330 1.395 . S
C328 C331 1.403 . S
H329 C335 0.930 . S
C330 H316 0.930 1_455 S
C330 C328 1.395 . S
C330 C333 1.403 . S
C331 C328 1.403 . S
C331 C332 1.524 . S
C331 C335 1.400 . S
C332 H317 0.960 . S
C332 H318 0.960 . S
C332 H319 0.960 . S
C332 C331 1.524 . S
C333 C330 1.403 . S
C333 C334 1.392 . S
C333 C337 1.495 1_455 S
C334 C333 1.392 . S
C334 C335 1.385 . S
C334 C336 1.478 . S
C335 H329 0.930 . S
C335 C331 1.400 . S
C335 C334 1.385 . S
C336 C334 1.478 . S
C336 C338 1.381 . S
C336 C342 1.383 . S
C337 C333 1.495 1_655 S
C337 H343 0.959 . S
C337 H344 0.961 . S
C337 H345 0.960 . S
C338 C336 1.381 . S
C338 C339 1.394 . S
C338 H346 0.930 . S
C339 C338 1.394 . S
C339 C340 1.383 . S
C339 H347 0.929 . S
C340 C339 1.383 . S
C340 C341 1.377 . S
C341 H325 0.930 . S
C341 C340 1.377 . S
C341 C342 1.379 . S
C342 H326 0.931 . S
C342 C336 1.383 . S
C342 C341 1.379 . S
H343 C337 0.959 . S
H344 C337 0.961 . S
H345 C337 0.960 . S
H346 C338 0.930 . S
H347 C339 0.929 . S
H348 C356 0.929 . S
H349 C358 0.930 . S
H350 C360 0.930 . S
H351 C363 0.929 . S
H352 C366 0.930 . S
H353 C368 0.960 . S
H354 C368 0.960 . S
H355 C368 0.960 . S
C356 H348 0.929 . S
C356 C357 1.377 . S
C356 C358 1.384 . S
C357 C356 1.377 . S
C357 C363 1.390 . S
C358 H349 0.930 . S
C358 C356 1.384 . S
C358 C359 1.372 . S
C359 C358 1.372 . S
C359 C360 1.400 . S
C359 C364 1.490 . S
C360 H350 0.930 . S
C360 C359 1.400 . S
C360 C363 1.386 . S
H361 C377 0.930 . S
H362 C378 0.931 . S
C363 H351 0.929 . S
C363 C357 1.390 . S
C363 C360 1.386 . S
C364 C359 1.490 . S
C364 C366 1.395 . S
C364 C367 1.403 . S
H365 C371 0.930 . S
C366 H352 0.930 . S
C366 C364 1.395 . S
C366 C369 1.403 . S
C367 C364 1.403 . S
C367 C368 1.524 . S
C367 C371 1.400 . S
C368 H353 0.960 . S
C368 H354 0.960 . S
C368 H355 0.960 . S
C368 C367 1.524 . S
C369 C366 1.403 . S
C369 C370 1.392 . S
C369 C373 1.495 . S
C370 C369 1.392 . S
C370 C371 1.385 . S
C370 C372 1.478 . S
C371 H365 0.930 . S
C371 C367 1.400 . S
C371 C370 1.385 . S
C372 C370 1.478 . S
C372 C374 1.381 . S
C372 C378 1.383 . S
C373 C369 1.495 . S
C373 H379 0.959 . S
C373 H380 0.961 . S
C373 H381 0.960 . S
C374 C372 1.381 . S
C374 C375 1.394 . S
C374 H382 0.930 . S
C375 C374 1.394 . S
C375 C376 1.383 . S
C375 H383 0.929 . S
C376 C375 1.383 . S
C376 C377 1.377 . S
C377 H361 0.930 . S
C377 C376 1.377 . S
C377 C378 1.379 . S
C378 H362 0.931 . S
C378 C372 1.383 . S
C378 C377 1.379 . S
H379 C373 0.959 . S
H380 C373 0.961 . S
H381 C373 0.960 . S
H382 C374 0.930 . S
H383 C375 0.929 . S
H384 C392 0.929 . S
H385 C394 0.930 1_655 S
H386 C396 0.930 . S
H387 C399 0.929 . S
H388 C402 0.930 . S
H389 C404 0.960 . S
H390 C404 0.960 . S
H391 C404 0.960 1_455 S
C392 H384 0.929 . S
C392 C393 1.377 . S
C392 C394 1.384 . S
C393 C392 1.377 . S
C393 C399 1.390 . S
C394 H385 0.930 1_455 S
C394 C392 1.384 . S
C394 C395 1.372 . S
C395 C394 1.372 . S
C395 C396 1.400 . S
C395 C400 1.490 1_455 S
C396 H386 0.930 . S
C396 C395 1.400 . S
C396 C399 1.386 . S
H397 C413 0.930 . S
H398 C414 0.931 . S
C399 H387 0.929 . S
C399 C393 1.390 . S
C399 C396 1.386 . S
C400 C395 1.490 1_655 S
C400 C402 1.395 . S
C400 C403 1.403 . S
H401 C407 0.930 . S
C402 H388 0.930 . S
C402 C400 1.395 . S
C402 C405 1.403 . S
C403 C400 1.403 . S
C403 C404 1.524 . S
C403 C407 1.400 . S
C404 H389 0.960 . S
C404 H390 0.960 . S
C404 H391 0.960 1_655 S
C404 C403 1.524 . S
C405 C402 1.403 . S
C405 C406 1.392 . S
C405 C409 1.495 . S
C406 C405 1.392 . S
C406 C407 1.385 . S
C406 C408 1.478 . S
C407 H401 0.930 . S
C407 C403 1.400 . S
C407 C406 1.385 . S
C408 C406 1.478 . S
C408 C410 1.381 . S
C408 C414 1.383 . S
C409 C405 1.495 . S
C409 H415 0.959 . S
C409 H416 0.961 . S
C409 H417 0.960 . S
C410 C408 1.381 . S
C410 C411 1.394 . S
C410 H418 0.930 . S
C411 C410 1.394 . S
C411 C412 1.383 . S
C411 H419 0.929 . S
C412 C411 1.383 . S
C412 C413 1.377 . S
C413 H397 0.930 . S
C413 C412 1.377 . S
C413 C414 1.379 . S
C414 H398 0.931 . S
C414 C408 1.383 . S
C414 C413 1.379 . S
H415 C409 0.959 . S
H416 C409 0.961 . S
H417 C409 0.960 . S
H418 C410 0.930 . S
H419 C411 0.929 . S
H420 C428 0.929 . S
H421 C430 0.930 . S
H422 C432 0.930 . S
H423 C435 0.929 . S
H424 C438 0.930 . S
H425 C440 0.960 . S
H426 C440 0.960 . S
H427 C440 0.960 . S
C428 H420 0.929 . S
C428 C429 1.377 . S
C428 C430 1.384 . S
C429 C428 1.377 . S
C429 C435 1.390 . S
C430 H421 0.930 . S
C430 C428 1.384 . S
C430 C431 1.372 . S
C431 C430 1.372 . S
C431 C432 1.400 . S
C431 C436 1.490 . S
C432 H422 0.930 . S
C432 C431 1.400 . S
C432 C435 1.386 . S
H433 C449 0.930 . S
H434 C450 0.931 . S
C435 H423 0.929 . S
C435 C429 1.390 . S
C435 C432 1.386 . S
C436 C431 1.490 . S
C436 C438 1.395 . S
C436 C439 1.403 . S
H437 C443 0.930 . S
C438 H424 0.930 . S
C438 C436 1.395 . S
C438 C441 1.403 . S
C439 C436 1.403 . S
C439 C440 1.524 . S
C439 C443 1.400 . S
C440 H425 0.960 . S
C440 H426 0.960 . S
C440 H427 0.960 . S
C440 C439 1.524 . S
C441 C438 1.403 . S
C441 C442 1.392 . S
C441 C445 1.495 . S
C442 C441 1.392 . S
C442 C443 1.385 . S
C442 C444 1.478 . S
C443 H437 0.930 . S
C443 C439 1.400 . S
C443 C442 1.385 . S
C444 C442 1.478 . S
C444 C446 1.381 1_545 S
C444 C450 1.383 . S
C445 C441 1.495 . S
C445 H451 0.959 . S
C445 H452 0.961 . S
C445 H453 0.960 1_545 S
C446 C444 1.381 1_565 S
C446 C447 1.394 . S
C446 H454 0.930 . S
C447 C446 1.394 . S
C447 C448 1.383 . S
C447 H455 0.929 . S
C448 C447 1.383 . S
C448 C449 1.377 . S
C449 H433 0.930 . S
C449 C448 1.377 . S
C449 C450 1.379 1_565 S
C450 H434 0.931 . S
C450 C444 1.383 . S
C450 C449 1.379 1_545 S
H451 C445 0.959 . S
H452 C445 0.961 . S
H453 C445 0.960 1_565 S
H454 C446 0.930 . S
H455 C447 0.929 . S
H456 C464 0.929 . S
H457 C466 0.930 . S
H458 C468 0.930 . S
H459 C471 0.929 . S
H460 C474 0.930 . S
H461 C476 0.960 . S
H462 C476 0.960 . S
H463 C476 0.960 . S
C464 H456 0.929 . S
C464 C465 1.377 . S
C464 C466 1.384 . S
C465 C464 1.377 . S
C465 C471 1.390 . S
C466 H457 0.930 . S
C466 C464 1.384 . S
C466 C467 1.372 . S
C467 C466 1.372 . S
C467 C468 1.400 . S
C467 C472 1.490 . S
C468 H458 0.930 . S
C468 C467 1.400 . S
C468 C471 1.386 . S
H469 C485 0.930 . S
H470 C486 0.931 . S
C471 H459 0.929 . S
C471 C465 1.390 . S
C471 C468 1.386 . S
C472 C467 1.490 . S
C472 C474 1.395 . S
C472 C475 1.403 . S
H473 C479 0.930 . S
C474 H460 0.930 . S
C474 C472 1.395 . S
C474 C477 1.403 . S
C475 C472 1.403 . S
C475 C476 1.524 . S
C475 C479 1.400 . S
C476 H461 0.960 . S
C476 H462 0.960 . S
C476 H463 0.960 . S
C476 C475 1.524 . S
C477 C474 1.403 . S
C477 C478 1.392 . S
C477 C481 1.495 . S
C478 C477 1.392 . S
C478 C479 1.385 . S
C478 C480 1.478 . S
C479 H473 0.930 . S
C479 C475 1.400 . S
C479 C478 1.385 . S
C480 C478 1.478 . S
C480 C482 1.381 . S
C480 C486 1.383 . S
C481 C477 1.495 . S
C481 H487 0.959 . S
C481 H488 0.961 . S
C481 H489 0.960 . S
C482 C480 1.381 . S
C482 C483 1.394 . S
C482 H490 0.930 . S
C483 C482 1.394 . S
C483 C484 1.383 . S
C483 H491 0.929 . S
C484 C483 1.383 . S
C484 C485 1.377 . S
C485 H469 0.930 . S
C485 C484 1.377 . S
C485 C486 1.379 . S
C486 H470 0.931 . S
C486 C480 1.383 . S
C486 C485 1.379 . S
H487 C481 0.959 . S
H488 C481 0.961 . S
H489 C481 0.960 . S
H490 C482 0.930 . S
H491 C483 0.929 . S
H492 C500 0.929 . S
H493 C502 0.930 . S
H494 C504 0.930 . S
H495 C507 0.929 . S
H496 C510 0.930 . S
H497 C512 0.960 . S
H498 C512 0.960 . S
H499 C512 0.960 . S
C500 H492 0.929 . S
C500 C501 1.377 . S
C500 C502 1.384 . S
C501 C500 1.377 . S
C501 C507 1.390 . S
C502 H493 0.930 . S
C502 C500 1.384 . S
C502 C503 1.372 . S
C503 C502 1.372 . S
C503 C504 1.400 . S
C503 C508 1.490 . S
C504 H494 0.930 . S
C504 C503 1.400 . S
C504 C507 1.386 . S
H505 C521 0.930 . S
H506 C522 0.931 . S
C507 H495 0.929 . S
C507 C501 1.390 . S
C507 C504 1.386 . S
C508 C503 1.490 . S
C508 C510 1.395 . S
C508 C511 1.403 . S
H509 C515 0.930 . S
C510 H496 0.930 . S
C510 C508 1.395 . S
C510 C513 1.403 1_655 S
C511 C508 1.403 . S
C511 C512 1.524 . S
C511 C515 1.400 . S
C512 H497 0.960 . S
C512 H498 0.960 . S
C512 H499 0.960 . S
C512 C511 1.524 . S
C513 C510 1.403 1_455 S
C513 C514 1.392 1_455 S
C513 C517 1.495 . S
C514 C513 1.392 1_655 S
C514 C515 1.394 . S
C514 C516 1.469 1_655 S
C515 H509 0.930 . S
C515 C511 1.400 . S
C515 C514 1.394 . S
C516 C514 1.469 1_455 S
C516 C518 1.381 . S
C516 C522 1.383 . S
C517 C513 1.495 . S
C517 H523 0.959 . S
C517 H524 0.961 . S
C517 H525 0.960 . S
C518 C516 1.381 . S
C518 C519 1.394 . S
C518 H526 0.930 . S
C519 C518 1.394 . S
C519 C520 1.383 . S
C519 H527 0.929 . S
C520 C519 1.383 . S
C520 C521 1.377 . S
C521 H505 0.930 . S
C521 C520 1.377 . S
C521 C522 1.379 . S
C522 H506 0.931 . S
C522 C516 1.383 . S
C522 C521 1.379 . S
H523 C517 0.959 . S
H524 C517 0.961 . S
H525 C517 0.960 . S
H526 C518 0.930 . S
H527 C519 0.929 . S
H528 C536 0.929 . S
H529 C538 0.930 . S
H530 C540 0.930 . S
H531 C543 0.929 . S
H532 C546 0.930 . S
H533 C548 0.960 . S
H534 C548 0.960 . S
H535 C548 0.960 1_565 S
C536 H528 0.929 . S
C536 C537 1.377 . S
C536 C538 1.384 1_565 S
C537 C536 1.377 . S
C537 C543 1.390 . S
C538 H529 0.930 . S
C538 C536 1.384 1_545 S
C538 C539 1.372 . S
C539 C538 1.372 . S
C539 C540 1.400 1_545 S
C539 C544 1.490 . S
C540 H530 0.930 . S
C540 C539 1.400 1_565 S
C540 C543 1.386 . S
H541 C557 0.930 . S
H542 C558 0.931 . S
C543 H531 0.929 . S
C543 C537 1.390 . S
C543 C540 1.386 . S
C544 C539 1.490 . S
C544 C546 1.395 . S
C544 C547 1.403 . S
H545 C551 0.930 . S
C546 H532 0.930 . S
C546 C544 1.395 . S
C546 C549 1.403 . S
C547 C544 1.403 . S
C547 C548 1.524 . S
C547 C551 1.400 . S
C548 H533 0.960 . S
C548 H534 0.960 . S
C548 H535 0.960 1_545 S
C548 C547 1.524 . S
C549 C546 1.403 . S
C549 C550 1.392 . S
C549 C553 1.495 . S
C550 C549 1.392 . S
C550 C551 1.385 . S
C550 C552 1.478 . S
C551 H545 0.930 . S
C551 C547 1.400 . S
C551 C550 1.385 . S
C552 C550 1.478 . S
C552 C554 1.381 . S
C552 C558 1.383 . S
C553 C549 1.495 . S
C553 H559 0.959 . S
C553 H560 0.961 . S
C553 H561 0.960 . S
C554 C552 1.381 . S
C554 C555 1.394 . S
C554 H562 0.930 . S
C555 C554 1.394 . S
C555 C556 1.383 . S
C555 H563 0.929 . S
C556 C555 1.383 . S
C556 C557 1.377 . S
C557 H541 0.930 . S
C557 C556 1.377 . S
C557 C558 1.379 . S
C558 H542 0.931 . S
C558 C552 1.383 . S
C558 C557 1.379 . S
H559 C553 0.959 . S
H560 C553 0.961 . S
H561 C553 0.960 . S
H562 C554 0.930 . S
H563 C555 0.929 . S
H564 C572 0.929 . S
H565 C574 0.930 . S
H566 C576 0.930 . S
H567 C579 0.949 . S
H568 C582 0.930 . S
H569 C584 0.960 . S
H570 C584 0.960 . S
H571 C584 0.960 1_565 S
C572 H564 0.929 . S
C572 C573 1.377 . S
C572 C574 1.384 . S
C573 C572 1.377 . S
C573 C579 1.390 1_545 S
C574 H565 0.930 . S
C574 C572 1.384 . S
C574 C575 1.372 . S
C575 C574 1.372 . S
C575 C576 1.400 1_545 S
C575 C580 1.490 . S
C576 H566 0.930 . S
C576 C575 1.400 1_565 S
C576 C579 1.386 . S
H577 C593 0.930 . S
H578 C594 0.931 . S
C579 H567 0.949 . S
C579 C573 1.390 1_565 S
C579 C576 1.386 . S
C580 C575 1.490 . S
C580 C582 1.395 . S
C580 C583 1.445 . S
H581 C587 0.930 1_556 S
C582 H568 0.930 . S
C582 C580 1.395 . S
C582 C585 1.403 . S
C583 C580 1.445 . S
C583 C584 1.477 1_554 S
C583 C587 1.407 . S
C584 H569 0.960 . S
C584 H570 0.960 . S
C584 H571 0.960 1_545 S
C584 C583 1.477 1_556 S
C585 C582 1.403 . S
C585 C586 1.392 . S
C585 C589 1.495 . S
C586 C585 1.392 . S
C586 C587 1.385 . S
C586 C588 1.478 . S
C587 H581 0.930 1_554 S
C587 C583 1.407 . S
C587 C586 1.385 . S
C588 C586 1.478 . S
C588 C590 1.381 . S
C588 C594 1.383 1_545 S
C589 C585 1.495 . S
C589 H595 0.959 . S
C589 H596 0.961 1_545 S
C589 H597 0.960 . S
C590 C588 1.381 . S
C590 C591 1.394 . S
C590 H598 0.930 . S
C591 C590 1.394 . S
C591 C592 1.383 . S
C591 H599 0.929 . S
C592 C591 1.383 . S
C592 C593 1.377 1_545 S
C593 H577 0.930 . S
C593 C592 1.377 1_565 S
C593 C594 1.379 . S
C594 H578 0.931 . S
C594 C588 1.383 1_565 S
C594 C593 1.379 . S
H595 C589 0.959 . S
H596 C589 0.961 1_565 S
H597 C589 0.960 . S
H598 C590 0.930 . S
H599 C591 0.929 . S
H600 C608 0.929 . S
H601 C610 0.930 . S
H602 C612 0.930 . S
H603 C615 0.929 . S
H604 C618 0.930 . S
H605 C620 0.960 . S
H606 C620 0.960 . S
H607 C620 0.960 . S
C608 H600 0.929 . S
C608 C609 1.377 . S
C608 C610 1.384 . S
C609 C608 1.377 . S
C609 C615 1.390 . S
C610 H601 0.930 . S
C610 C608 1.384 . S
C610 C611 1.372 . S
C611 C610 1.372 . S
C611 C612 1.400 . S
C611 C616 1.490 . S
C612 H602 0.930 . S
C612 C611 1.400 . S
C612 C615 1.386 . S
H613 C629 0.930 . S
H614 C630 0.931 . S
C615 H603 0.929 . S
C615 C609 1.390 . S
C615 C612 1.386 . S
C616 C611 1.490 . S
C616 C618 1.395 . S
C616 C619 1.403 . S
H617 C623 0.930 . S
C618 H604 0.930 . S
C618 C616 1.395 . S
C618 C621 1.403 . S
C619 C616 1.403 . S
C619 C620 1.524 . S
C619 C623 1.400 . S
C620 H605 0.960 . S
C620 H606 0.960 . S
C620 H607 0.960 . S
C620 C619 1.524 . S
C621 C618 1.403 . S
C621 C622 1.392 . S
C621 C625 1.495 . S
C622 C621 1.392 . S
C622 C623 1.385 . S
C622 C624 1.478 . S
C623 H617 0.930 . S
C623 C619 1.400 . S
C623 C622 1.385 . S
C624 C622 1.478 . S
C624 C626 1.381 . S
C624 C630 1.383 . S
C625 C621 1.495 . S
C625 H631 0.959 . S
C625 H632 0.961 . S
C625 H633 0.960 . S
C626 C624 1.381 . S
C626 C627 1.394 . S
C626 H634 0.930 . S
C627 C626 1.394 . S
C627 C628 1.383 . S
C627 H635 0.929 . S
C628 C627 1.383 . S
C628 C629 1.377 . S
C629 H613 0.930 . S
C629 C628 1.377 . S
C629 C630 1.379 . S
C630 H614 0.931 . S
C630 C624 1.383 . S
C630 C629 1.379 . S
H631 C625 0.959 . S
H632 C625 0.961 . S
H633 C625 0.960 . S
H634 C626 0.930 . S
H635 C627 0.929 . S
H636 C644 0.929 1_655 S
H637 C646 0.930 1_655 S
H638 C648 0.930 . S
H639 C651 0.929 . S
H640 C654 0.930 . S
H641 C656 0.960 . S
H642 C656 0.960 . S
H643 C656 0.960 . S
C644 H636 0.929 1_455 S
C644 C645 1.377 . S
C644 C646 1.384 . S
C645 C644 1.377 . S
C645 C651 1.390 . S
C646 H637 0.930 1_455 S
C646 C644 1.384 . S
C646 C647 1.372 . S
C647 C646 1.372 . S
C647 C648 1.400 . S
C647 C652 1.490 . S
C648 H638 0.930 . S
C648 C647 1.400 . S
C648 C651 1.386 . S
H649 C665 0.930 . S
H650 C666 0.931 . S
C651 H639 0.929 . S
C651 C645 1.390 . S
C651 C648 1.386 . S
C652 C647 1.490 . S
C652 C654 1.395 . S
C652 C655 1.403 . S
H653 C659 0.930 . S
C654 H640 0.930 . S
C654 C652 1.395 . S
C654 C657 1.403 . S
C655 C652 1.403 . S
C655 C656 1.524 . S
C655 C659 1.400 . S
C656 H641 0.960 . S
C656 H642 0.960 . S
C656 H643 0.960 . S
C656 C655 1.524 . S
C657 C654 1.403 . S
C657 C658 1.392 . S
C657 C661 1.495 1_455 S
C658 C657 1.392 . S
C658 C659 1.385 . S
C658 C660 1.478 . S
C659 H653 0.930 . S
C659 C655 1.400 . S
C659 C658 1.385 . S
C660 C658 1.478 . S
C660 C662 1.381 . S
C660 C666 1.383 . S
C661 C657 1.495 1_655 S
C661 H667 0.959 . S
C661 H668 0.961 1_655 S
C661 H669 0.960 . S
C662 C660 1.381 . S
C662 C663 1.394 . S
C662 H670 0.930 1_455 S
C663 C662 1.394 . S
C663 C664 1.383 . S
C663 H671 0.929 1_455 S
C664 C663 1.383 . S
C664 C665 1.377 . S
C665 H649 0.930 . S
C665 C664 1.377 . S
C665 C666 1.379 . S
C666 H650 0.931 . S
C666 C660 1.383 . S
C666 C665 1.379 . S
H667 C661 0.959 . S
H668 C661 0.961 1_455 S
H669 C661 0.960 . S
H670 C662 0.930 1_655 S
H671 C663 0.929 1_655 S
H672 C680 0.929 . S
H673 C682 0.930 . S
H674 C684 0.930 . S
H675 C687 0.929 . S
H676 C690 0.930 . S
H677 C692 0.960 . S
H678 C692 0.960 . S
H679 C692 0.960 . S
C680 H672 0.929 . S
C680 C681 1.377 . S
C680 C682 1.384 . S
C681 C680 1.377 . S
C681 C687 1.390 . S
C682 H673 0.930 . S
C682 C680 1.384 . S
C682 C683 1.372 . S
C683 C682 1.372 . S
C683 C684 1.400 . S
C683 C688 1.490 . S
C684 H674 0.930 . S
C684 C683 1.400 . S
C684 C687 1.386 . S
H685 C701 0.930 . S
H686 C702 0.931 . S
C687 H675 0.929 . S
C687 C681 1.390 . S
C687 C684 1.386 . S
C688 C683 1.490 . S
C688 C690 1.395 . S
C688 C691 1.403 . S
H689 C695 0.930 . S
C690 H676 0.930 . S
C690 C688 1.395 . S
C690 C693 1.403 . S
C691 C688 1.403 . S
C691 C692 1.524 . S
C691 C695 1.400 . S
C692 H677 0.960 . S
C692 H678 0.960 . S
C692 H679 0.960 . S
C692 C691 1.524 . S
C693 C690 1.403 . S
C693 C694 1.392 . S
C693 C697 1.495 . S
C694 C693 1.392 . S
C694 C695 1.385 . S
C694 C696 1.478 . S
C695 H689 0.930 . S
C695 C691 1.400 . S
C695 C694 1.385 . S
C696 C694 1.478 . S
C696 C698 1.381 . S
C696 C702 1.383 . S
C697 C693 1.495 . S
C697 H703 0.959 . S
C697 H704 0.961 . S
C697 H705 0.960 . S
C698 C696 1.381 . S
C698 C699 1.394 . S
C698 H706 0.930 . S
C699 C698 1.394 . S
C699 C700 1.383 . S
C699 H707 0.929 . S
C700 C699 1.383 . S
C700 C701 1.377 . S
C701 H685 0.930 . S
C701 C700 1.377 . S
C701 C702 1.379 . S
C702 H686 0.931 . S
C702 C696 1.383 . S
C702 C701 1.379 . S
H703 C697 0.959 . S
H704 C697 0.961 . S
H705 C697 0.960 . S
H706 C698 0.930 . S
H707 C699 0.929 . S
H708 C716 0.929 . S
H709 C718 0.930 . S
H710 C720 0.930 . S
H711 C723 0.929 . S
H712 C726 0.930 . S
H713 C728 0.960 . S
H714 C728 0.960 . S
H715 C728 0.960 . S
C716 H708 0.929 . S
C716 C717 1.377 . S
C716 C718 1.384 . S
C717 C716 1.377 . S
C717 C723 1.390 . S
C718 H709 0.930 . S
C718 C716 1.384 . S
C718 C719 1.372 . S
C719 C718 1.372 . S
C719 C720 1.400 . S
C719 C724 1.490 . S
C720 H710 0.930 . S
C720 C719 1.400 . S
C720 C723 1.386 . S
H721 C737 0.930 . S
H722 C738 0.931 . S
C723 H711 0.929 . S
C723 C717 1.390 . S
C723 C720 1.386 . S
C724 C719 1.490 . S
C724 C726 1.395 . S
C724 C727 1.403 . S
H725 C731 0.930 . S
C726 H712 0.930 . S
C726 C724 1.395 . S
C726 C729 1.403 . S
C727 C724 1.403 . S
C727 C728 1.524 . S
C727 C731 1.400 . S
C728 H713 0.960 . S
C728 H714 0.960 . S
C728 H715 0.960 . S
C728 C727 1.524 . S
C729 C726 1.403 . S
C729 C730 1.392 . S
C729 C733 1.495 . S
C730 C729 1.392 . S
C730 C731 1.385 . S
C730 C732 1.478 . S
C731 H725 0.930 . S
C731 C727 1.400 . S
C731 C730 1.385 . S
C732 C730 1.478 . S
C732 C734 1.381 . S
C732 C738 1.383 . S
C733 C729 1.495 . S
C733 H739 0.959 . S
C733 H740 0.961 . S
C733 H741 0.960 . S
C734 C732 1.381 . S
C734 C735 1.394 . S
C734 H742 0.930 . S
C735 C734 1.394 . S
C735 C736 1.383 . S
C735 H743 0.929 . S
C736 C735 1.383 . S
C736 C737 1.377 . S
C737 H721 0.930 . S
C737 C736 1.377 . S
C737 C738 1.379 . S
C738 H722 0.931 . S
C738 C732 1.383 . S
C738 C737 1.379 . S
H739 C733 0.959 . S
H740 C733 0.961 . S
H741 C733 0.960 . S
H742 C734 0.930 . S
H743 C735 0.929 . S
H744 C752 0.929 . S
H745 C754 0.930 . S
H746 C756 0.930 . S
H747 C759 0.929 . S
H748 C762 0.930 . S
H749 C764 0.960 . S
H750 C764 0.960 . S
H751 C764 0.960 . S
C752 H744 0.929 . S
C752 C753 1.377 . S
C752 C754 1.384 . S
C753 C752 1.377 . S
C753 C759 1.390 . S
C754 H745 0.930 . S
C754 C752 1.384 . S
C754 C755 1.372 . S
C755 C754 1.372 . S
C755 C756 1.400 . S
C755 C760 1.490 . S
C756 H746 0.930 . S
C756 C755 1.400 . S
C756 C759 1.386 . S
H757 C773 0.930 . S
H758 C774 0.931 . S
C759 H747 0.929 . S
C759 C753 1.390 . S
C759 C756 1.386 . S
C760 C755 1.490 . S
C760 C762 1.395 . S
C760 C763 1.403 . S
H761 C767 0.930 . S
C762 H748 0.930 . S
C762 C760 1.395 . S
C762 C765 1.403 . S
C763 C760 1.403 . S
C763 C764 1.524 . S
C763 C767 1.400 . S
C764 H749 0.960 . S
C764 H750 0.960 . S
C764 H751 0.960 . S
C764 C763 1.524 . S
C765 C762 1.403 . S
C765 C766 1.392 . S
C765 C769 1.495 . S
C766 C765 1.392 . S
C766 C767 1.385 . S
C766 C768 1.478 . S
C767 H761 0.930 . S
C767 C763 1.400 . S
C767 C766 1.385 . S
C768 C766 1.478 . S
C768 C770 1.381 . S
C768 C774 1.383 . S
C769 C765 1.495 . S
C769 H775 0.959 . S
C769 H776 0.961 . S
C769 H777 0.960 . S
C770 C768 1.381 . S
C770 C771 1.394 . S
C770 H778 0.930 . S
C771 C770 1.394 . S
C771 C772 1.383 . S
C771 H779 0.929 . S
C772 C771 1.383 . S
C772 C773 1.377 . S
C773 H757 0.930 . S
C773 C772 1.377 . S
C773 C774 1.379 . S
C774 H758 0.931 . S
C774 C768 1.383 . S
C774 C773 1.379 . S
H775 C769 0.959 . S
H776 C769 0.961 . S
H777 C769 0.960 . S
H778 C770 0.930 . S
H779 C771 0.929 . S
H780 C788 0.929 . S
H781 C790 0.930 . S
H782 C792 0.930 . S
H783 C795 0.929 . S
H784 C798 0.930 . S
H785 C800 0.960 . S
H786 C800 0.960 . S
H787 C800 0.960 . S
C788 H780 0.929 . S
C788 C789 1.377 . S
C788 C790 1.384 . S
C789 C788 1.377 . S
C789 C795 1.390 . S
C790 H781 0.930 . S
C790 C788 1.384 . S
C790 C791 1.372 . S
C791 C790 1.372 . S
C791 C792 1.400 . S
C791 C796 1.490 . S
C792 H782 0.930 . S
C792 C791 1.400 . S
C792 C795 1.386 . S
H793 C809 0.930 . S
H794 C810 0.931 . S
C795 H783 0.929 . S
C795 C789 1.390 . S
C795 C792 1.386 . S
C796 C791 1.490 . S
C796 C798 1.395 . S
C796 C799 1.403 . S
H797 C803 0.930 . S
C798 H784 0.930 . S
C798 C796 1.395 . S
C798 C801 1.403 . S
C799 C796 1.403 . S
C799 C800 1.524 . S
C799 C803 1.400 . S
C800 H785 0.960 . S
C800 H786 0.960 . S
C800 H787 0.960 . S
C800 C799 1.524 . S
C801 C798 1.403 . S
C801 C802 1.392 . S
C801 C805 1.495 . S
C802 C801 1.392 . S
C802 C803 1.385 . S
C802 C804 1.478 . S
C803 H797 0.930 . S
C803 C799 1.400 . S
C803 C802 1.385 . S
C804 C802 1.478 . S
C804 C806 1.381 . S
C804 C810 1.383 . S
C805 C801 1.495 . S
C805 H811 0.959 . S
C805 H812 0.961 . S
C805 H813 0.960 . S
C806 C804 1.381 . S
C806 C807 1.394 . S
C806 H814 0.930 . S
C807 C806 1.394 . S
C807 C808 1.383 . S
C807 H815 0.929 . S
C808 C807 1.383 . S
C808 C809 1.377 . S
C809 H793 0.930 . S
C809 C808 1.377 . S
C809 C810 1.379 . S
C810 H794 0.931 . S
C810 C804 1.383 . S
C810 C809 1.379 . S
H811 C805 0.959 . S
H812 C805 0.961 . S
H813 C805 0.960 . S
H814 C806 0.930 . S
H815 C807 0.929 . S
H816 C824 0.929 . S
H817 C826 0.930 . S
H818 C828 0.930 . S
H819 C831 0.929 . S
H820 C834 0.930 . S
H821 C836 0.960 . S
H822 C836 0.960 . S
H823 C836 0.960 . S
C824 H816 0.929 . S
C824 C825 1.377 . S
C824 C826 1.384 . S
C825 C824 1.377 . S
C825 C831 1.390 . S
C826 H817 0.930 . S
C826 C824 1.384 . S
C826 C827 1.372 . S
C827 C826 1.372 . S
C827 C828 1.400 . S
C827 C832 1.490 . S
C828 H818 0.930 . S
C828 C827 1.400 . S
C828 C831 1.386 . S
H829 C845 0.930 . S
H830 C846 0.931 . S
C831 H819 0.929 . S
C831 C825 1.390 . S
C831 C828 1.386 . S
C832 C827 1.490 . S
C832 C834 1.395 . S
C832 C835 1.403 . S
H833 C839 0.930 . S
C834 H820 0.930 . S
C834 C832 1.395 . S
C834 C837 1.403 . S
C835 C832 1.403 . S
C835 C836 1.524 . S
C835 C839 1.400 . S
C836 H821 0.960 . S
C836 H822 0.960 . S
C836 H823 0.960 . S
C836 C835 1.524 . S
C837 C834 1.403 . S
C837 C838 1.392 . S
C837 C841 1.495 . S
C838 C837 1.392 . S
C838 C839 1.385 . S
C838 C840 1.478 . S
C839 H833 0.930 . S
C839 C835 1.400 . S
C839 C838 1.385 . S
C840 C838 1.478 . S
C840 C842 1.381 . S
C840 C846 1.383 . S
C841 C837 1.495 . S
C841 H847 0.959 . S
C841 H848 0.961 . S
C841 H849 0.960 . S
C842 C840 1.381 . S
C842 C843 1.394 . S
C842 H850 0.930 . S
C843 C842 1.394 . S
C843 C844 1.383 . S
C843 H851 0.929 . S
C844 C843 1.383 . S
C844 C845 1.377 . S
C845 H829 0.930 . S
C845 C844 1.377 . S
C845 C846 1.379 . S
C846 H830 0.931 . S
C846 C840 1.383 . S
C846 C845 1.379 . S
H847 C841 0.959 . S
H848 C841 0.961 . S
H849 C841 0.960 . S
H850 C842 0.930 . S
H851 C843 0.929 . S
H852 C860 0.929 . S
H853 C862 0.930 . S
H854 C864 0.930 . S
H855 C867 0.929 . S
H856 C870 0.930 . S
H857 C872 0.960 . S
H858 C872 0.960 . S
H859 C872 0.960 . S
C860 H852 0.929 . S
C860 C861 1.377 . S
C860 C862 1.384 . S
C861 C860 1.377 . S
C861 C867 1.390 . S
C862 H853 0.930 . S
C862 C860 1.384 . S
C862 C863 1.372 . S
C863 C862 1.372 . S
C863 C864 1.400 . S
C863 C868 1.490 . S
C864 H854 0.930 . S
C864 C863 1.400 . S
C864 C867 1.386 . S
H865 C881 0.930 . S
H866 C882 0.931 . S
C867 H855 0.929 . S
C867 C861 1.390 . S
C867 C864 1.386 . S
C868 C863 1.490 . S
C868 C870 1.395 . S
C868 C871 1.403 . S
H869 C875 0.930 . S
C870 H856 0.930 . S
C870 C868 1.395 . S
C870 C873 1.403 . S
C871 C868 1.403 . S
C871 C872 1.524 . S
C871 C875 1.400 . S
C872 H857 0.960 . S
C872 H858 0.960 . S
C872 H859 0.960 . S
C872 C871 1.524 . S
C873 C870 1.403 . S
C873 C874 1.392 . S
C873 C877 1.495 . S
C874 C873 1.392 . S
C874 C875 1.385 . S
C874 C876 1.478 . S
C875 H869 0.930 . S
C875 C871 1.400 . S
C875 C874 1.385 . S
C876 C874 1.478 . S
C876 C878 1.381 . S
C876 C882 1.383 . S
C877 C873 1.495 . S
C877 H883 0.959 . S
C877 H884 0.961 . S
C877 H885 0.960 . S
C878 C876 1.381 . S
C878 C879 1.394 . S
C878 H886 0.930 . S
C879 C878 1.394 . S
C879 C880 1.383 . S
C879 H887 0.929 1_565 S
C880 C879 1.383 . S
C880 C881 1.377 . S
C881 H865 0.930 . S
C881 C880 1.377 . S
C881 C882 1.379 . S
C882 H866 0.931 . S
C882 C876 1.383 . S
C882 C881 1.379 . S
H883 C877 0.959 . S
H884 C877 0.961 . S
H885 C877 0.960 . S
H886 C878 0.930 . S
H887 C879 0.929 1_545 S
C249 C143 0.928 . S
C268 C23 0.906 . S
C285 C183 0.920 . S
C304 C63 0.979 . S
C321 C223 0.937 . S
C340 C103 0.898 . S
C357 C25 0.489 . S
C376 C84 0.576 . S
C393 C44 0.536 . S
C412 C145 0.553 . S
C429 C105 0.494 . S
C448 C164 0.634 . S
C465 C124 0.545 . S
C484 C225 0.582 . S
C501 C185 0.496 . S
C520 C4 0.627 . S
C537 C204 0.537 . S
C556 C65 0.595 . S
C573 C2 0.507 . S
C592 C122 0.546 . S
C609 C42 0.479 . S
C628 C162 0.420 . S
C645 C82 0.509 . S
C664 C202 0.565 . S
C681 C20 4.017 . S
C700 C60 4.008 . S
C717 C71 3.622 . S
C736 C111 3.606 . S
C753 C100 4.017 1_655 S
C772 C140 4.012 . S
C789 C151 3.622 . S
C808 C191 3.607 . S
C825 C180 4.017 . S
C844 C220 4.015 1_655 S
C861 C231 3.621 . S
C880 C31 3.610 . S
