# Generated by pormake.
# Topology rhr, (4)-cn, num edge types: 1
# Building blocks:
#     Node 0, Type 0, BuildingBlock: MUDLON_clean_sbu_0, # of connection points: 4
#     Node 1, Type 0, BuildingBlock: MUDLON_clean_sbu_0, # of connection points: 4
#     Node 2, Type 0, BuildingBlock: MUDLON_clean_sbu_0, # of connection points: 4
#     Node 3, Type 0, BuildingBlock: MUDLON_clean_sbu_0, # of connection points: 4
#     Node 4, Type 0, BuildingBlock: MUDLON_clean_sbu_0, # of connection points: 4
#     Node 5, Type 0, BuildingBlock: MUDLON_clean_sbu_0, # of connection points: 4
#     Node 6, Type 0, BuildingBlock: MUDLON_clean_sbu_0, # of connection points: 4
#     Node 7, Type 0, BuildingBlock: MUDLON_clean_sbu_0, # of connection points: 4
#     Node 8, Type 0, BuildingBlock: MUDLON_clean_sbu_0, # of connection points: 4
#     Node 9, Type 0, BuildingBlock: MUDLON_clean_sbu_0, # of connection points: 4
#     Node 10, Type 0, BuildingBlock: MUDLON_clean_sbu_0, # of connection points: 4
#     Node 11, Type 0, BuildingBlock: MUDLON_clean_sbu_0, # of connection points: 4
#     Node 12, Type 0, BuildingBlock: MUDLON_clean_sbu_0, # of connection points: 4
#     Node 13, Type 0, BuildingBlock: MUDLON_clean_sbu_0, # of connection points: 4
#     Node 14, Type 0, BuildingBlock: MUDLON_clean_sbu_0, # of connection points: 4
#     Node 15, Type 0, BuildingBlock: MUDLON_clean_sbu_0, # of connection points: 4
#     Node 16, Type 0, BuildingBlock: MUDLON_clean_sbu_0, # of connection points: 4
#     Node 17, Type 0, BuildingBlock: MUDLON_clean_sbu_0, # of connection points: 4
#     Node 18, Type 0, BuildingBlock: MUDLON_clean_sbu_0, # of connection points: 4
#     Node 19, Type 0, BuildingBlock: MUDLON_clean_sbu_0, # of connection points: 4
#     Node 20, Type 0, BuildingBlock: MUDLON_clean_sbu_0, # of connection points: 4
#     Node 21, Type 0, BuildingBlock: MUDLON_clean_sbu_0, # of connection points: 4
#     Node 22, Type 0, BuildingBlock: MUDLON_clean_sbu_0, # of connection points: 4
#     Node 23, Type 0, BuildingBlock: MUDLON_clean_sbu_0, # of connection points: 4
#     Edge 24, Type (0, 0), BuildingBlock: CIFDUS_clean_linker_0, # of connection points: 2
#     Edge 25, Type (0, 0), BuildingBlock: CIFDUS_clean_linker_0, # of connection points: 2
#     Edge 26, Type (0, 0), BuildingBlock: CIFDUS_clean_linker_0, # of connection points: 2
#     Edge 27, Type (0, 0), BuildingBlock: CIFDUS_clean_linker_0, # of connection points: 2
#     Edge 28, Type (0, 0), BuildingBlock: CIFDUS_clean_linker_0, # of connection points: 2
#     Edge 29, Type (0, 0), BuildingBlock: CIFDUS_clean_linker_0, # of connection points: 2
#     Edge 30, Type (0, 0), BuildingBlock: CIFDUS_clean_linker_0, # of connection points: 2
#     Edge 31, Type (0, 0), BuildingBlock: CIFDUS_clean_linker_0, # of connection points: 2
#     Edge 32, Type (0, 0), BuildingBlock: CIFDUS_clean_linker_0, # of connection points: 2
#     Edge 33, Type (0, 0), BuildingBlock: CIFDUS_clean_linker_0, # of connection points: 2
#     Edge 34, Type (0, 0), BuildingBlock: CIFDUS_clean_linker_0, # of connection points: 2
#     Edge 35, Type (0, 0), BuildingBlock: CIFDUS_clean_linker_0, # of connection points: 2
#     Edge 36, Type (0, 0), BuildingBlock: CIFDUS_clean_linker_0, # of connection points: 2
#     Edge 37, Type (0, 0), BuildingBlock: CIFDUS_clean_linker_0, # of connection points: 2
#     Edge 38, Type (0, 0), BuildingBlock: CIFDUS_clean_linker_0, # of connection points: 2
#     Edge 39, Type (0, 0), BuildingBlock: CIFDUS_clean_linker_0, # of connection points: 2
#     Edge 40, Type (0, 0), BuildingBlock: CIFDUS_clean_linker_0, # of connection points: 2
#     Edge 41, Type (0, 0), BuildingBlock: CIFDUS_clean_linker_0, # of connection points: 2
#     Edge 42, Type (0, 0), BuildingBlock: CIFDUS_clean_linker_0, # of connection points: 2
#     Edge 43, Type (0, 0), BuildingBlock: CIFDUS_clean_linker_0, # of connection points: 2
#     Edge 44, Type (0, 0), BuildingBlock: CIFDUS_clean_linker_0, # of connection points: 2
#     Edge 45, Type (0, 0), BuildingBlock: CIFDUS_clean_linker_0, # of connection points: 2
#     Edge 46, Type (0, 0), BuildingBlock: CIFDUS_clean_linker_0, # of connection points: 2
#     Edge 47, Type (0, 0), BuildingBlock: CIFDUS_clean_linker_0, # of connection points: 2
#     Edge 48, Type (0, 0), BuildingBlock: CIFDUS_clean_linker_0, # of connection points: 2
#     Edge 49, Type (0, 0), BuildingBlock: CIFDUS_clean_linker_0, # of connection points: 2
#     Edge 50, Type (0, 0), BuildingBlock: CIFDUS_clean_linker_0, # of connection points: 2
#     Edge 51, Type (0, 0), BuildingBlock: CIFDUS_clean_linker_0, # of connection points: 2
#     Edge 52, Type (0, 0), BuildingBlock: CIFDUS_clean_linker_0, # of connection points: 2
#     Edge 53, Type (0, 0), BuildingBlock: CIFDUS_clean_linker_0, # of connection points: 2
#     Edge 54, Type (0, 0), BuildingBlock: CIFDUS_clean_linker_0, # of connection points: 2
#     Edge 55, Type (0, 0), BuildingBlock: CIFDUS_clean_linker_0, # of connection points: 2
#     Edge 56, Type (0, 0), BuildingBlock: CIFDUS_clean_linker_0, # of connection points: 2
#     Edge 57, Type (0, 0), BuildingBlock: CIFDUS_clean_linker_0, # of connection points: 2
#     Edge 58, Type (0, 0), BuildingBlock: CIFDUS_clean_linker_0, # of connection points: 2
#     Edge 59, Type (0, 0), BuildingBlock: CIFDUS_clean_linker_0, # of connection points: 2
#     Edge 60, Type (0, 0), BuildingBlock: CIFDUS_clean_linker_0, # of connection points: 2
#     Edge 61, Type (0, 0), BuildingBlock: CIFDUS_clean_linker_0, # of connection points: 2
#     Edge 62, Type (0, 0), BuildingBlock: CIFDUS_clean_linker_0, # of connection points: 2
#     Edge 63, Type (0, 0), BuildingBlock: CIFDUS_clean_linker_0, # of connection points: 2
#     Edge 64, Type (0, 0), BuildingBlock: CIFDUS_clean_linker_0, # of connection points: 2
#     Edge 65, Type (0, 0), BuildingBlock: CIFDUS_clean_linker_0, # of connection points: 2
#     Edge 66, Type (0, 0), BuildingBlock: CIFDUS_clean_linker_0, # of connection points: 2
#     Edge 67, Type (0, 0), BuildingBlock: CIFDUS_clean_linker_0, # of connection points: 2
#     Edge 68, Type (0, 0), BuildingBlock: CIFDUS_clean_linker_0, # of connection points: 2
#     Edge 69, Type (0, 0), BuildingBlock: CIFDUS_clean_linker_0, # of connection points: 2
#     Edge 70, Type (0, 0), BuildingBlock: CIFDUS_clean_linker_0, # of connection points: 2
#     Edge 71, Type (0, 0), BuildingBlock: CIFDUS_clean_linker_0, # of connection points: 2
# Relax obj value: 0.018
# Max RMSD: 0.032
# Mean RMSD: 0.029
data_MOF--net-rhr--node1-MUDLON_clean_sbu_0--edge1-CIFDUS_clean_linker_0
_symmetry_space_group_name_H-M    P1
_symmetry_Int_Tables_number       1
_symmetry_cell_setting            triclinic
loop_
_symmetry_equiv_pos_as_xyz
'x, y, z'
_cell_length_a     45.565045
_cell_length_b     45.642176
_cell_length_c     45.721443
_cell_angle_alpha  89.935588
_cell_angle_beta   89.529882
_cell_angle_gamma 90.278915
loop_
_atom_site_label
_atom_site_type_symbol
_atom_site_fract_x
_atom_site_fract_y
_atom_site_fract_z
_atom_type_partial_charge
Mg0 Mg 0.32434 0.98136 0.33766 0.0
C1 C 0.3634 0.93308 0.3225 0.0
O2 O 0.33743 0.9256 0.31262 0.0
C3 C 0.28854 0.01844 0.37506 0.0
O4 O 0.27041 1.00508 0.35722 0.0
C5 C 0.34366 1.00776 0.27979 0.0
O6 O 0.36422 0.988 0.28298 0.0
O7 O 0.32206 1.00779 0.2977 0.0
O8 O 0.36592 0.95742 0.33595 0.0
O9 O 0.29193 0.94731 0.34762 0.0
C10 C 0.30009 0.93386 0.37058 0.0
O11 O 0.32494 0.94189 0.38265 0.0
O12 O 0.31589 1.01289 0.37276 0.0
Mg13 Mg 0.07412 0.35709 0.31343 0.0
C14 C 0.02298 0.33976 0.27486 0.0
O15 O 0.01554 0.32356 0.2975 0.0
C16 C 0.12322 0.33085 0.34617 0.0
O17 O 0.12005 0.35662 0.35855 0.0
C18 C 0.10232 0.42065 0.31812 0.0
O19 O 0.09712 0.41966 0.34641 0.0
O20 O 0.0952 0.39894 0.30229 0.0
O21 O 0.04851 0.3511 0.27399 0.0
O22 O 0.04154 0.35419 0.34916 0.0
C23 C 0.03744 0.32847 0.35954 0.0
O24 O 0.05427 0.30718 0.34999 0.0
O25 O 0.10755 0.32474 0.32402 0.0
Mg26 Mg 0.65916 0.05645 0.35925 0.0
C27 C 0.63939 0.10894 0.31936 0.0
O28 O 0.66459 0.10285 0.30667 0.0
C29 C 0.71152 1.01277 0.36822 0.0
O30 O 0.72275 0.02996 0.3479 0.0
C31 C 0.64603 1.01347 0.3079 0.0
O32 O 0.67378 0.01964 0.30273 0.0
O33 O 0.63346 0.02477 0.3301 0.0
O34 O 0.63129 0.0941 0.34157 0.0
O35 O 0.68573 0.08903 0.38704 0.0
C36 C 0.70643 0.10332 0.37464 0.0
O37 O 0.71207 0.09833 0.34687 0.0
O38 O 0.68575 0.01795 0.37769 0.0
Mg39 Mg 0.02611 0.70727 0.36848 0.0
C40 C 0.05996 0.7673 0.37999 0.0
O41 O 0.05044 0.7737 0.35373 0.0
C42 C 0.97698 0.67792 0.32857 0.0
O43 O 0.97351 0.70529 0.32046 0.0
C44 C 0.97593 0.75311 0.37819 0.0
O45 O 0.98475 0.76176 0.35214 0.0
O46 O 0.98707 0.73029 0.38945 0.0
O47 O 0.05482 0.74204 0.39076 0.0
O48 O 0.06647 0.68445 0.34878 0.0
C49 C 0.08384 0.69794 0.33145 0.0
O50 O 0.07833 0.72535 0.3248 0.0
O51 O 0.99635 0.672 0.34758 0.0
Mg52 Mg 0.33781 0.037 0.72463 0.0
C53 C 0.36029 0.08008 0.77328 0.0
O54 O 0.34482 0.06231 0.78999 0.0
C55 C 0.30264 0.97623 0.71406 0.0
O56 O 0.305 0.97259 0.74242 0.0
C57 C 0.36146 0.9964 0.77911 0.0
O58 O 0.33579 0.99944 0.79202 0.0
O59 O 0.36574 1.00702 0.75365 0.0
O60 O 0.36115 0.07578 0.74581 0.0
O61 O 0.31468 0.06754 0.69252 0.0
C62 C 0.30914 0.09472 0.69517 0.0
O63 O 0.31496 0.10812 0.71987 0.0
O64 O 0.31423 0.99864 0.70201 0.0
Mg65 Mg 0.02944 0.35788 0.68409 0.0
C66 C 0.97391 0.35797 0.64743 0.0
O67 O 0.96114 0.35444 0.67306 0.0
C68 C 0.08242 0.39662 0.69481 0.0
O69 O 0.09569 0.37114 0.69521 0.0
C70 C 0.05371 0.30261 0.65539 0.0
O71 O 0.02722 0.30167 0.64429 0.0
O72 O 0.05959 0.32199 0.67455 0.0
O73 O 1.00161 0.3614 0.64614 0.0
O74 O 1.0015 0.3552 0.72318 0.0
C75 C 1.00659 0.37207 0.74477 0.0
O76 O 0.03092 0.38762 0.74473 0.0
O77 O 0.05522 0.39755 0.68889 0.0
Mg78 Mg 0.70806 0.07127 0.68908 0.0
C79 C 0.68834 0.04731 0.74821 0.0
O80 O 0.67762 0.07387 0.75059 0.0
C81 C 0.75322 0.09969 0.65222 0.0
O82 O 0.73389 0.08934 0.63372 0.0
C83 C 0.67778 0.12826 0.70221 0.0
O84 O 0.70546 0.13614 0.70418 0.0
O85 O 0.6718 0.10225 0.69395 0.0
O86 O 0.70495 0.0414 0.72651 0.0
O87 O 0.70633 0.03984 0.6534 0.0
C88 C 0.72986 0.02487 0.65289 0.0
O89 O 0.74963 0.02989 0.67308 0.0
O90 O 0.74866 0.09599 0.67956 0.0
Mg91 Mg 0.97712 0.67084 0.66645 0.0
C92 C 0.02202 0.64984 0.71548 0.0
O93 O 1.00577 0.66693 0.73201 0.0
C94 C 0.93281 0.72105 0.65522 0.0
O95 O 0.94788 0.73068 0.67766 0.0
C96 C 0.93366 0.65917 0.71824 0.0
O97 O 0.94147 0.68635 0.72371 0.0
O98 O 0.94425 0.64654 0.69581 0.0
O99 O 0.01536 0.64656 0.68864 0.0
O100 O 1.01028 0.69409 0.6365 0.0
C101 C 0.0338 0.70541 0.64629 0.0
O102 O 0.0387 0.70474 0.67455 0.0
O103 O 0.93929 0.69614 0.64457 0.0
Mg104 Mg 0.35413 0.39017 0.01659 0.0
C105 C 0.41521 0.37592 0.99563 0.0
O106 O 0.41838 0.37365 0.02409 0.0
C107 C 0.36198 0.43591 0.06773 0.0
O108 O 0.37427 0.41501 0.08304 0.0
C109 C 0.34771 0.34744 0.07039 0.0
O110 O 0.3351 0.36903 0.08459 0.0
O111 O 0.35546 0.35087 0.04379 0.0
O112 O 0.39077 0.38482 0.98589 0.0
O113 O 0.315 0.39248 0.98956 0.0
C114 C 0.29479 0.41087 0.99518 0.0
O115 O 0.2963 0.42636 0.01932 0.0
O116 O 0.35459 0.4311 0.04136 0.0
Mg117 Mg 0.69897 0.312 0.06003 0.0
C118 C 0.64659 0.30078 0.10345 0.0
O119 O 0.64412 0.32917 0.09943 0.0
C120 C 0.72128 0.34946 1.00491 0.0
O121 O 0.69319 0.35064 0.99882 0.0
C122 C 0.64618 0.29476 0.0202 0.0
O123 O 0.63274 0.31188 0.03903 0.0
O124 O 0.6737 0.29106 0.02238 0.0
O125 O 0.66827 0.28759 0.09189 0.0
O126 O 0.72583 0.33219 0.09726 0.0
C127 C 0.72118 0.35715 0.10878 0.0
O128 O 0.69789 0.37204 0.10107 0.0
O129 O 0.72953 0.3356 0.02756 0.0
Mg130 Mg 0.74053 0.72018 0.03004 0.0
C131 C 0.77157 0.66583 0.06138 0.0
O132 O 0.76301 0.6515 0.03805 0.0
C133 C 0.69071 0.75895 1.00041 0.0
O134 O 0.6762 0.75147 0.02423 0.0
C135 C 0.74209 0.6772 0.97697 0.0
O136 O 0.71373 0.68194 0.97913 0.0
O137 O 0.75934 0.69114 0.99371 0.0
O138 O 0.7652 0.69282 0.06414 0.0
O139 O 0.72172 0.74839 0.06671 0.0
C140 C 0.70518 0.73725 0.08635 0.0
O141 O 0.69996 0.70892 0.08592 0.0
O142 O 0.71652 0.74897 0.99628 0.0
Mg143 Mg 0.37361 0.71306 0.97913 0.0
C144 C 0.35696 0.65166 0.95936 0.0
O145 O 0.3491 0.64891 0.98694 0.0
C146 C 0.41245 0.74321 0.02043 0.0
O147 O 0.39868 0.76424 1.00659 0.0
C148 C 0.32817 0.71668 0.02837 0.0
O149 O 0.35022 0.72939 0.04172 0.0
O150 O 0.33059 0.71128 1.00114 0.0
O151 O 0.37117 0.67438 0.95141 0.0
O152 O 0.38659 0.74715 0.94779 0.0
C153 C 0.40986 0.73925 0.9343 0.0
O154 O 0.42038 0.7131 0.93992 0.0
O155 O 0.40701 0.71673 0.01322 0.0
Mg156 Mg 0.84748 0.49549 0.86488 0.0
C157 C 0.88731 0.44869 0.84592 0.0
O158 O 0.86134 0.44005 0.83698 0.0
C159 C 0.81707 0.54157 0.89541 0.0
O160 O 0.79956 0.53201 0.87477 0.0
C161 C 0.85975 0.54418 0.82605 0.0
O162 O 0.87105 0.55125 0.85142 0.0
O163 O 0.84606 0.51989 0.82384 0.0
O164 O 0.88896 0.47201 0.86115 0.0
O165 O 0.813 0.46384 0.87527 0.0
C166 C 0.81921 0.449 0.89797 0.0
O167 O 0.84494 0.45322 0.91011 0.0
O168 O 0.84181 0.52908 0.89844 0.0
Mg169 Mg 0.55345 0.89547 0.86366 0.0
C170 C 0.60268 0.90949 0.81534 0.0
O171 O 0.5985 0.88326 0.8043 0.0
C172 C 0.53592 0.83138 0.85636 0.0
O173 O 0.56262 0.8265 0.86571 0.0
C174 C 0.51387 0.93601 0.83726 0.0
O175 O 0.53242 0.92728 0.81698 0.0
O176 O 0.5173 0.92685 0.86335 0.0
O177 O 0.58789 0.91742 0.83765 0.0
O178 O 0.57356 0.88081 0.90452 0.0
C179 C 0.5992 0.87016 0.9012 0.0
O180 O 0.61164 0.8719 0.87523 0.0
O181 O 0.52887 0.85724 0.84901 0.0
Mg182 Mg 0.19643 0.54524 0.83735 0.0
C183 C 0.15989 0.5852 0.80178 0.0
O184 O 0.18002 0.57616 0.78317 0.0
C185 C 0.2021 0.49371 0.87595 0.0
O186 O 0.21171 0.48402 0.85061 0.0
C187 C 0.16701 0.50857 0.79508 0.0
O188 O 0.1461 0.52004 0.8113 0.0
O189 O 0.19357 0.51481 0.80084 0.0
O190 O 0.16204 0.57758 0.82852 0.0
O191 O 0.23946 0.5643 0.84562 0.0
C192 C 0.24779 0.59036 0.84022 0.0
O193 O 0.23076 0.60765 0.82494 0.0
O194 O 0.19084 0.51918 0.87702 0.0
Mg195 Mg 0.52217 0.23218 0.84261 0.0
C196 C 0.46948 0.21015 0.81444 0.0
O197 O 0.47825 0.23215 0.79793 0.0
C198 C 0.57723 0.22366 0.87775 0.0
O199 O 0.5894 0.22759 0.85189 0.0
C200 C 0.5477 0.1967 0.79575 0.0
O201 O 0.53105 0.17879 0.81118 0.0
O202 O 0.54883 0.2236 0.80324 0.0
O203 O 0.4836 0.20467 0.83767 0.0
O204 O 0.50509 0.27586 0.85385 0.0
C205 C 0.50091 0.27832 0.88138 0.0
O206 O 0.50719 0.25598 0.89824 0.0
O207 O 0.54949 0.22106 0.87965 0.0
Mg208 Mg 0.87671 0.50901 0.20365 0.0
C209 C 0.90579 0.53375 0.25843 0.0
O210 O 0.91816 0.50782 0.25816 0.0
C211 C 0.83627 0.46351 0.18405 0.0
O212 O 0.86002 0.46051 0.16786 0.0
C213 C 0.9099 0.45379 0.2141 0.0
O214 O 0.88509 0.44861 0.22806 0.0
O215 O 0.91314 0.47814 0.20078 0.0
O216 O 0.88593 0.53928 0.2398 0.0
O217 O 0.87119 0.53632 0.16514 0.0
C218 C 0.85767 0.56025 0.16966 0.0
O219 O 0.85077 0.56737 0.19667 0.0
O220 O 0.83596 0.48332 0.20369 0.0
Mg221 Mg 0.53178 0.84449 0.20183 0.0
C222 C 0.50365 0.81106 0.1535 0.0
O223 O 0.51575 0.79027 0.16914 0.0
C224 C 0.53766 0.90732 0.221 0.0
O225 O 0.5096 0.90301 0.22639 0.0
C226 C 0.58957 0.82233 0.18476 0.0
O227 O 0.58998 0.84983 0.17622 0.0
O228 O 0.56732 0.81302 0.19904 0.0
O229 O 0.5065 0.83757 0.16187 0.0
O230 O 0.50299 0.84194 0.23992 0.0
C231 C 0.47663 0.83305 0.23801 0.0
O232 O 0.46821 0.81994 0.21391 0.0
O233 O 0.55196 0.8875 0.20759 0.0
Mg234 Mg 0.22388 0.58235 0.18929 0.0
C235 C 0.24651 0.63151 0.15605 0.0
O236 O 0.26026 0.63067 0.1812 0.0
C237 C 0.1893 0.5415 0.22391 0.0
O238 O 0.20915 0.55302 0.24118 0.0
C239 C 0.2693 0.55074 0.15777 0.0
O240 O 0.25107 0.56066 0.13803 0.0
O241 O 0.26413 0.55656 0.18459 0.0
O242 O 0.22655 0.61242 0.15138 0.0
O243 O 0.21726 0.61124 0.22701 0.0
C244 C 0.20132 0.63345 0.22177 0.0
O245 O 0.19287 0.63835 0.19484 0.0
O246 O 0.18906 0.54962 0.19715 0.0
Mg247 Mg 0.46552 0.19116 0.19987 0.0
C248 C 0.5255 0.18973 0.1672 0.0
O249 O 0.53005 0.16542 0.18187 0.0
C250 C 0.41846 0.14568 0.20497 0.0
O251 O 0.40498 0.16916 0.2147 0.0
C252 C 0.4221 0.224 0.16735 0.0
O253 O 0.42948 0.20189 0.15047 0.0
O254 O 0.43331 0.22549 0.19272 0.0
O255 O 0.50066 0.20221 0.16911 0.0
O256 O 0.4865 0.18868 0.24242 0.0
C257 C 0.51163 0.20027 0.24622 0.0
O258 O 0.52167 0.21899 0.22669 0.0
O259 O 0.4445 0.14839 0.19494 0.0
Mg260 Mg 0.81663 0.85648 0.50788 0.0
C261 C 0.78871 0.90227 0.54321 0.0
O262 O 0.76654 0.88823 0.53139 0.0
C263 C 0.87899 0.83943 0.49529 0.0
O264 O 0.87819 0.8352 0.5237 0.0
C265 C 0.79158 0.88672 0.45806 0.0
O266 O 0.81944 0.89425 0.45849 0.0
O267 O 0.78263 0.86726 0.47611 0.0
O268 O 0.81469 0.8938 0.53735 0.0
O269 O 0.81623 0.81595 0.5339 0.0
C270 C 0.82381 0.81846 0.56057 0.0
O271 O 0.82493 0.84484 0.57196 0.0
O272 O 0.85714 0.85142 0.48309 0.0
Mg273 Mg 0.18495 0.85253 0.54647 0.0
C274 C 0.14111 0.86655 0.49744 0.0
O275 O 0.16302 0.88077 0.48497 0.0
C276 C 0.21114 0.88038 0.5997 0.0
O277 O 0.21298 0.85246 0.6064 0.0
C278 C 0.1582 0.79479 0.56071 0.0
O279 O 0.15144 0.79755 0.53296 0.0
O280 O 0.17553 0.81345 0.57202 0.0
O281 O 0.14348 0.85852 0.52395 0.0
O282 O 0.2196 0.84808 0.51385 0.0
C283 C 0.21607 0.83822 0.48808 0.0
O284 O 0.19101 0.82594 0.48097 0.0
O285 O 0.1988 0.8876 0.57587 0.0
Mg286 Mg 0.20988 0.19198 0.51441 0.0
C287 C 0.16396 0.22249 0.54663 0.0
O288 O 0.1834 0.24264 0.53941 0.0
C289 C 0.24655 0.15041 0.48275 0.0
O290 O 0.26433 0.17107 0.4921 0.0
C291 C 0.19997 0.22355 0.45896 0.0
O292 O 0.19092 0.19677 0.45338 0.0
O293 O 0.21155 0.22871 0.48372 0.0
O294 O 0.16776 0.19641 0.53744 0.0
O295 O 0.2425 0.18851 0.54899 0.0
C296 C 0.24177 0.20045 0.57413 0.0
O297 O 0.2226 0.22112 0.57959 0.0
O298 O 0.21926 0.15256 0.48878 0.0
Mg299 Mg 0.86128 0.22912 0.49212 0.0
C300 C 0.82546 0.21427 0.43891 0.0
O301 O 0.85141 0.21786 0.42668 0.0
C302 C 0.88714 0.27521 0.52676 0.0
O303 O 0.90906 0.25928 0.51704 0.0
C304 C 0.85561 0.19532 0.54937 0.0
O305 O 0.85517 0.22208 0.55987 0.0
O306 O 0.86095 0.19165 0.52218 0.0
O307 O 0.82232 0.22018 0.46594 0.0
O308 O 0.89991 0.23482 0.46327 0.0
C309 C 0.90307 0.26004 0.45149 0.0
O310 O 0.88255 0.27972 0.45587 0.0
O311 O 0.86112 0.26808 0.5197 0.0
H312 H 0.21669 0.10724 0.45368 0.0
H313 H 0.30414 0.13846 0.47223 0.0
H314 H 0.32506 0.09988 0.44194 0.0
H315 H 0.31875 0.05811 0.40845 0.0
H316 H 0.23125 0.02754 0.38919 0.0
H317 H 0.21044 0.06462 0.42135 0.0
C318 C 0.24031 0.10549 0.45123 0.0
C319 C 0.2587 0.12586 0.46517 0.0
C320 C 0.25235 0.08328 0.43349 0.0
C321 C 0.28933 0.12323 0.46167 0.0
C322 C 0.30141 0.10111 0.44432 0.0
C323 C 0.29517 0.05943 0.41148 0.0
C324 C 0.27669 0.04008 0.39628 0.0
C325 C 0.28317 0.08114 0.42988 0.0
C326 C 0.2461 0.04221 0.40044 0.0
C327 C 0.23409 0.06346 0.41888 0.0
H328 H 0.02335 0.27541 0.38293 0.0
H329 H 0.99359 0.36497 0.37894 0.0
H330 H 0.94952 0.35154 0.40695 0.0
H331 H 0.91876 0.31407 0.43118 0.0
H332 H 0.94862 0.22453 0.43492 0.0
H333 H 0.9933 0.2383 0.40816 0.0
C334 C 1.00736 0.29213 0.3883 0.0
C335 C 1.01187 0.32123 0.37874 0.0
C336 C 0.98195 0.28417 0.40414 0.0
C337 C 0.99082 0.34247 0.38602 0.0
C338 C 0.96552 0.33475 0.40194 0.0
C339 C 0.93498 0.29749 0.42611 0.0
C340 C 0.93016 0.26819 0.43494 0.0
C341 C 0.96071 0.30561 0.41083 0.0
C342 C 0.95163 0.24716 0.42835 0.0
C343 C 0.97723 0.25505 0.41307 0.0
H344 H 0.80551 0.92262 0.41302 0.0
H345 H 0.73162 0.8915 0.46399 0.0
H346 H 0.6998 0.92718 0.43989 0.0
H347 H 0.69405 0.96996 0.40695 0.0
H348 H 0.76885 1.00056 0.35673 0.0
H349 H 0.79916 0.96247 0.37805 0.0
C350 C 0.78235 0.92335 0.41867 0.0
C351 C 0.77102 0.9045 0.44041 0.0
C352 C 0.7644 0.94414 0.40509 0.0
C353 C 0.74091 0.90564 0.44724 0.0
C354 C 0.72276 0.92623 0.43362 0.0
C355 C 0.71695 0.9682 0.40058 0.0
C356 C 0.72916 0.98839 0.38043 0.0
C357 C 0.73442 0.94606 0.41297 0.0
C358 C 0.75882 0.98554 0.37225 0.0
C359 C 0.77624 0.9637 0.38444 0.0
H360 H 0.13698 0.86659 0.43778 0.0
H361 H 0.09619 0.83103 0.5158 0.0
H362 H 0.06759 0.79716 0.48627 0.0
H363 H 0.05723 0.77457 0.43869 0.0
H364 H 0.0961 0.811 0.36037 0.0
H365 H 0.12248 0.84742 0.38959 0.0
C366 C 0.12137 0.85191 0.44832 0.0
C367 C 0.11908 0.85125 0.47907 0.0
C368 C 0.10505 0.83219 0.43117 0.0
C369 C 0.09862 0.83202 0.49223 0.0
C370 C 0.08235 0.81242 0.47536 0.0
C371 C 0.07151 0.79049 0.42806 0.0
C372 C 0.07521 0.7898 0.39753 0.0
C373 C 0.08603 0.81172 0.44492 0.0
C374 C 0.09314 0.81099 0.38391 0.0
C375 C 0.10816 0.83183 0.40059 0.0
H376 H 0.23279 0.87266 0.65438 0.0
H377 H 0.22283 0.93796 0.58688 0.0
H378 H 0.25062 0.97316 0.61607 0.0
H379 H 0.27896 0.98498 0.66023 0.0
H380 H 0.2874 0.92008 0.72832 0.0
H381 H 0.25914 0.88512 0.69935 0.0
C382 C 0.23655 0.89463 0.64607 0.0
C383 C 0.22581 0.90257 0.61838 0.0
C384 C 0.25249 0.91479 0.663 0.0
C385 C 0.23075 0.93124 0.60812 0.0
C386 C 0.24678 0.95136 0.62475 0.0
C387 C 0.2747 0.96314 0.66869 0.0
C388 C 0.28553 0.95508 0.69632 0.0
C389 C 0.25801 0.94328 0.6521 0.0
C390 C 0.27941 0.92685 0.70713 0.0
C391 C 0.26323 0.90684 0.69057 0.0
H392 H 0.04918 0.25738 0.61631 0.0
H393 H 0.11261 0.30991 0.6628 0.0
H394 H 0.15222 0.28833 0.63413 0.0
H395 H 0.16852 0.25831 0.59283 0.0
H396 H 0.10646 0.204 0.54707 0.0
H397 H 0.06659 0.22237 0.57856 0.0
C398 C 0.07171 0.26377 0.62048 0.0
C399 C 0.07778 0.28557 0.6415 0.0
C400 C 0.09457 0.2512 0.60384 0.0
C401 C 0.10717 0.29332 0.64678 0.0
C402 C 0.1299 0.28109 0.63025 0.0
C403 C 0.14627 0.2503 0.58993 0.0
C404 C 0.14024 0.23022 0.56744 0.0
C405 C 0.12377 0.26066 0.60824 0.0
C406 C 0.11152 0.21954 0.56422 0.0
C407 C 0.08878 0.23014 0.58214 0.0
H408 H 0.84244 0.19565 0.60778 0.0
H409 H 0.84062 0.14018 0.53133 0.0
H410 H 0.81123 0.10407 0.55801 0.0
H411 H 0.78069 0.09137 0.6006 0.0
H412 H 0.78198 0.14622 0.67727 0.0
H413 H 0.81722 0.17932 0.65308 0.0
C414 C 0.83609 0.17541 0.59709 0.0
C415 C 0.84339 0.17093 0.56736 0.0
C416 C 0.81883 0.15479 0.61251 0.0
C417 C 0.83524 0.14439 0.55405 0.0
C418 C 0.81825 0.12375 0.56927 0.0
C419 C 0.78906 0.11035 0.61219 0.0
C420 C 0.77848 0.11663 0.6405 0.0
C421 C 0.80907 0.12923 0.59811 0.0
C422 C 0.7898 0.14096 0.65547 0.0
C423 C 0.80979 0.15996 0.64155 0.0
H424 H 0.90321 0.71366 0.6034 0.0
H425 H 0.90959 0.77054 0.67853 0.0
H426 H 0.87385 0.80356 0.65732 0.0
H427 H 0.84364 0.81849 0.61625 0.0
H428 H 0.83807 0.76364 0.5397 0.0
H429 H 0.86997 0.72749 0.56287 0.0
C430 C 0.89657 0.73314 0.61522 0.0
C431 C 0.90938 0.73964 0.64248 0.0
C432 C 0.87605 0.75246 0.60267 0.0
C433 C 0.90042 0.76502 0.65745 0.0
C434 C 0.87987 0.78397 0.64535 0.0
C435 C 0.84899 0.79845 0.60469 0.0
C436 C 0.83847 0.79395 0.57617 0.0
C437 C 0.86794 0.7782 0.6178 0.0
C438 C 0.84569 0.76772 0.5617 0.0
C439 C 0.86417 0.74712 0.57488 0.0
H440 H 0.35809 0.34031 0.12871 0.0
H441 H 0.35777 0.294 0.04647 0.0
H442 H 0.37825 0.25084 0.07009 0.0
H443 H 0.4 0.22778 0.11276 0.0
H444 H 0.40355 0.27437 0.19474 0.0
H445 H 0.37783 0.31579 0.17265 0.0
C446 C 0.36203 0.32058 0.11611 0.0
C447 C 0.35644 0.32037 0.08585 0.0
C448 C 0.37464 0.29601 0.12972 0.0
C449 C 0.36199 0.29477 0.06974 0.0
C450 C 0.37375 0.27009 0.08322 0.0
C451 C 0.39494 0.24684 0.12598 0.0
C452 C 0.40389 0.24799 0.15535 0.0
C453 C 0.38078 0.27071 0.113 0.0
C454 C 0.39702 0.27291 0.17207 0.0
C455 C 0.38235 0.29663 0.15941 0.0
H456 H 0.8366 0.40818 0.16396 0.0
H457 H 0.77797 0.47776 0.18894 0.0
H458 H 0.73621 0.44986 0.16959 0.0
H459 H 0.71751 0.40771 0.14091 0.0
H460 H 0.77699 0.33802 0.11741 0.0
H461 H 0.81716 0.36381 0.14107 0.0
C462 C 0.81459 0.41705 0.16556 0.0
C463 C 0.81035 0.44507 0.17754 0.0
C464 C 0.79089 0.40095 0.15443 0.0
C465 C 0.78174 0.45618 0.17985 0.0
C466 C 0.75793 0.44032 0.16859 0.0
C467 C 0.73918 0.398 0.14131 0.0
C468 C 0.74422 0.3711 0.12699 0.0
C469 C 0.76237 0.41299 0.15511 0.0
C470 C 0.77239 0.3587 0.12806 0.0
C471 C 0.79548 0.3735 0.14153 0.0
H472 H 0.66363 0.72148 0.12679 0.0
H473 H 0.71111 0.79639 0.0927 0.0
H474 H 0.68145 0.82896 0.1229 0.0
H475 H 0.63931 0.83661 0.15526 0.0
H476 H 0.59032 0.76228 0.18828 0.0
H477 H 0.62367 0.72904 0.16261 0.0
C478 C 0.66773 0.7449 0.12621 0.0
C479 C 0.68938 0.75646 0.10723 0.0
C480 C 0.65028 0.76363 0.14337 0.0
C481 C 0.69447 0.78687 0.1069 0.0
C482 C 0.67749 0.80555 0.12416 0.0
C483 C 0.63608 0.81312 0.15718 0.0
C484 C 0.61216 0.80198 0.17342 0.0
C485 C 0.65491 0.79423 0.14192 0.0
C486 C 0.60852 0.77147 0.17588 0.0
C487 C 0.62749 0.75245 0.16106 0.0
H488 H 0.24464 0.6285 0.09583 0.0
H489 H 0.26999 0.68452 0.16736 0.0
H490 H 0.29412 0.71811 0.13346 0.0
H491 H 0.31362 0.7284 0.08467 0.0
H492 H 0.29026 0.67246 1.0125 0.0
H493 H 0.25949 0.64258 0.04512 0.0
C494 C 0.25485 0.64842 0.10382 0.0
C495 C 0.25578 0.65379 0.13414 0.0
C496 C 0.26936 0.6676 0.08408 0.0
C497 C 0.26925 0.67964 0.14419 0.0
C498 C 0.28312 0.69891 0.1248 0.0
C499 C 0.30136 0.71001 0.07591 0.0
C500 C 0.30457 0.70258 0.04623 0.0
C501 C 0.2842 0.69262 0.09487 0.0
C502 C 0.28827 0.67877 0.03525 0.0
C503 C 0.2708 0.66149 0.05398 0.0
H504 H 0.46014 0.72701 0.90496 0.0
H505 H 0.39864 0.79697 0.92075 0.0
H506 H 0.4307 0.83098 0.89375 0.0
H507 H 0.47867 0.84177 0.87045 0.0
H508 H 0.54129 0.7721 0.85851 0.0
H509 H 0.50605 0.73688 0.87884 0.0
C510 C 0.45347 0.74963 0.90231 0.0
C511 C 0.42707 0.75945 0.91516 0.0
C512 C 0.47229 0.7691 0.88742 0.0
C513 C 0.41885 0.78882 0.91123 0.0
C514 C 0.43723 0.80828 0.89583 0.0
C515 C 0.48433 0.81875 0.8716 0.0
C516 C 0.51259 0.80952 0.86286 0.0
C517 C 0.46434 0.79881 0.88444 0.0
C518 C 0.51972 0.77972 0.86501 0.0
C519 C 0.49963 0.75962 0.8768 0.0
H520 H 0.25485 0.45518 0.99639 0.0
H521 H 0.28587 0.38382 0.94265 0.0
H522 H 0.25615 0.40116 0.90208 0.0
H523 H 0.22661 0.43985 0.88004 0.0
H524 H 0.19729 0.51258 0.9328 0.0
H525 H 0.22061 0.49108 0.97569 0.0
C526 C 0.25475 0.4431 0.97598 0.0
C527 C 0.27296 0.41844 0.9725 0.0
C528 C 0.23804 0.45355 0.95247 0.0
C529 C 0.27234 0.403 0.94591 0.0
C530 C 0.25538 0.41295 0.92264 0.0
C531 C 0.22485 0.45081 0.90101 0.0
C532 C 0.21055 0.47804 0.90305 0.0
C533 C 0.23894 0.43872 0.92538 0.0
C534 C 0.20825 0.4917 0.93051 0.0
C535 C 0.22176 0.47949 0.95504 0.0
H536 H 0.55641 0.2421 0.93023 0.0
H537 H 0.63667 0.22085 0.88442 0.0
H538 H 0.66535 0.23955 0.92547 0.0
H539 H 0.66747 0.26576 0.97249 0.0
H540 H 0.58678 0.28998 0.01614 0.0
H541 H 0.55842 0.26659 0.9776 0.0
C542 C 0.58016 0.24103 0.92939 0.0
C543 C 0.59439 0.23004 0.90432 0.0
C544 C 0.59644 0.25286 0.95248 0.0
C545 C 0.62521 0.22917 0.90351 0.0
C546 C 0.6416 0.24002 0.92689 0.0
C547 C 0.64369 0.26574 0.97366 0.0
C548 C 0.62929 0.27976 0.99708 0.0
C549 C 0.62745 0.25258 0.95116 0.0
C550 C 0.59845 0.27959 0.99824 0.0
C551 C 0.58218 0.2661 0.97627 0.0
H552 H 0.79543 0.65008 0.97911 0.0
H553 H 0.71348 0.65042 0.93235 0.0
H554 H 0.72968 0.60872 0.90322 0.0
H555 H 0.76614 0.57146 0.89193 0.0
H556 H 0.84797 0.56965 0.93876 0.0
H557 H 0.83266 0.61258 0.96715 0.0
C558 C 0.78125 0.64122 0.96233 0.0
C559 C 0.75326 0.65344 0.95788 0.0
C560 C 0.79054 0.61683 0.9459 0.0
C561 C 0.73507 0.64147 0.93626 0.0
C562 C 0.74429 0.61757 0.91962 0.0
C563 C 0.78073 0.58036 0.90834 0.0
C564 C 0.80817 0.56724 0.91325 0.0
C565 C 0.77181 0.60491 0.92447 0.0
C566 C 0.8267 0.57922 0.9346 0.0
C567 C 0.81798 0.60382 0.95077 0.0
H568 H 0.10904 0.43331 0.25985 0.0
H569 H 0.12966 0.466 0.34591 0.0
H570 H 0.15689 0.50679 0.32409 0.0
H571 H 0.17675 0.53191 0.28096 0.0
H572 H 0.15614 0.50039 0.19459 0.0
H573 H 0.12667 0.46056 0.21617 0.0
C574 C 0.11941 0.4494 0.27386 0.0
C575 C 0.11747 0.44634 0.30459 0.0
C576 C 0.13501 0.473 0.26111 0.0
C577 C 0.1308 0.46765 0.3223 0.0
C578 C 0.14643 0.49101 0.30981 0.0
C579 C 0.16573 0.51642 0.26675 0.0
C580 C 0.16891 0.51899 0.23614 0.0
C581 C 0.14897 0.49369 0.2793 0.0
C582 C 0.15409 0.49895 0.21816 0.0
C583 C 0.13736 0.4761 0.23054 0.0
H584 H 0.14226 0.58874 0.74545 0.0
H585 H 0.11707 0.61409 0.83296 0.0
H586 H 0.07216 0.63632 0.81403 0.0
H587 H 0.03985 0.64807 0.77247 0.0
H588 H 0.06494 0.62081 0.68542 0.0
H589 H 0.10999 0.59965 0.70442 0.0
C590 C 0.12712 0.59934 0.76045 0.0
C591 C 0.13322 0.59997 0.79061 0.0
C592 C 0.10117 0.61154 0.74948 0.0
C593 C 0.11302 0.6134 0.80966 0.0
C594 C 0.0873 0.62605 0.79883 0.0
C595 C 0.05514 0.63747 0.75765 0.0
C596 C 0.04891 0.63609 0.72749 0.0
C597 C 0.08108 0.62515 0.76877 0.0
C598 C 0.06901 0.62215 0.70869 0.0
C599 C 0.09488 0.6101 0.71953 0.0
H600 H 0.38156 0.12872 0.74636 0.0
H601 H 0.37889 0.08433 0.8297 0.0
H602 H 0.41149 0.12145 0.85045 0.0
H603 H 0.44298 0.1651 0.84401 0.0
H604 H 0.44422 0.20989 0.76076 0.0
H605 H 0.40984 0.1742 0.74103 0.0
C606 C 0.38802 0.12725 0.7691 0.0
C607 C 0.37809 0.10371 0.78638 0.0
C608 C 0.40656 0.14873 0.78092 0.0
C609 C 0.38627 0.10229 0.81593 0.0
C610 C 0.40498 0.12344 0.82778 0.0
C611 C 0.43552 0.16717 0.82164 0.0
C612 C 0.44637 0.19 0.80386 0.0
C613 C 0.41559 0.14656 0.81036 0.0
C614 C 0.4363 0.19252 0.77497 0.0
C615 C 0.41668 0.17205 0.76358 0.0
H616 H 0.88977 0.39879 0.81376 0.0
H617 H 0.94487 0.46574 0.85154 0.0
H618 H 0.98756 0.44556 0.82594 0.0
H619 H 1.00798 0.41233 0.78874 0.0
H620 H 0.95218 0.3467 0.74962 0.0
H621 H 0.91111 0.36279 0.78013 0.0
C622 C 0.91116 0.4088 0.81675 0.0
C623 C 0.91399 0.43399 0.83433 0.0
C624 C 0.93548 0.39742 0.80154 0.0
C625 C 0.94198 0.44643 0.83809 0.0
C626 C 0.9664 0.43496 0.82334 0.0
C627 C 0.98698 0.40119 0.78717 0.0
C628 C 0.98317 0.37848 0.76662 0.0
C629 C 0.96324 0.41097 0.80438 0.0
C630 C 0.95577 0.3643 0.76507 0.0
C631 C 0.9322 0.37358 0.78246 0.0
H632 H 0.68652 0.98853 0.73664 0.0
H633 H 0.6616 0.05272 0.80136 0.0
H634 H 0.63444 0.01529 0.82868 0.0
H635 H 0.61443 0.96552 0.83215 0.0
H636 H 0.63731 0.90144 0.76656 0.0
H637 H 0.66856 0.93759 0.74172 0.0
C638 C 0.67564 0.99421 0.75703 0.0
C639 C 0.67615 0.02347 0.76693 0.0
C640 C 0.65932 0.97266 0.77229 0.0
C641 C 0.66158 0.03044 0.79321 0.0
C642 C 0.64591 1.00905 0.8088 0.0
C643 C 0.62639 0.95929 0.81253 0.0
C644 C 0.62327 0.93074 0.80119 0.0
C645 C 0.64405 0.98028 0.79818 0.0
C646 C 0.63911 0.92322 0.77577 0.0
C647 C 0.65702 0.94392 0.76153 0.0
H648 H 0.97996 0.61884 0.33832 0.0
H649 H 0.93375 0.6837 0.28793 0.0
H650 H 0.90593 0.64512 0.26359 0.0
H651 H 0.89651 0.59278 0.2545 0.0
H652 H 0.94362 0.5279 0.30401 0.0
H653 H 0.96886 0.56657 0.33089 0.0
C654 C 0.9637 0.62459 0.32214 0.0
C655 C 0.95918 0.65423 0.31492 0.0
C656 C 0.94782 0.60221 0.308 0.0
C657 C 0.93789 0.66114 0.2939 0.0
C658 C 0.92189 0.63905 0.27993 0.0
C659 C 0.91198 0.58707 0.27146 0.0
C660 C 0.91814 0.55738 0.27712 0.0
C661 C 0.9269 0.60948 0.28654 0.0
C662 C 0.93845 0.5505 0.29908 0.0
C663 C 0.95301 0.57264 0.31444 0.0
H664 H 0.36244 0.87868 0.29939 0.0
H665 H 0.42209 0.94656 0.32749 0.0
H666 H 0.46354 0.91889 0.30734 0.0
H667 H 0.48171 0.87838 0.27658 0.0
H668 H 0.42092 0.81261 0.24592 0.0
H669 H 0.38105 0.83627 0.27275 0.0
C670 C 0.38454 0.88735 0.30145 0.0
C671 C 0.38911 0.91487 0.31459 0.0
C672 C 0.40803 0.87169 0.28927 0.0
C673 C 0.41793 0.92551 0.31739 0.0
C674 C 0.44162 0.90973 0.30576 0.0
C675 C 0.45987 0.86886 0.27625 0.0
C676 C 0.45425 0.84385 0.25902 0.0
C677 C 0.4368 0.8832 0.29092 0.0
C678 C 0.4258 0.8319 0.25882 0.0
C679 C 0.40296 0.8455 0.27406 0.0
H680 H 0.58131 0.11784 0.33116 0.0
H681 H 0.65357 0.15036 0.2786 0.0
H682 H 0.62081 0.18451 0.25416 0.0
H683 H 0.5711 0.20185 0.24448 0.0
H684 H 0.49807 0.16712 0.29443 0.0
H685 H 0.53173 0.13756 0.32349 0.0
C686 C 0.58996 0.13265 0.31462 0.0
C687 C 0.61984 0.13136 0.30659 0.0
C688 C 0.57084 0.15186 0.30017 0.0
C689 C 0.63064 0.15067 0.28504 0.0
C690 C 0.61192 0.17027 0.27106 0.0
C691 C 0.56255 0.18833 0.26214 0.0
C692 C 0.53208 0.18673 0.26728 0.0
C693 C 0.58189 0.17062 0.27801 0.0
C694 C 0.52142 0.16876 0.29003 0.0
C695 C 0.54065 0.15173 0.30654 0.0
H696 H 0.78214 0.99994 0.64032 0.0
H697 H 0.69157 1.00101 0.61342 0.0
H698 H 0.70217 0.96359 0.5765 0.0
H699 H 0.73689 0.92972 0.55304 0.0
H700 H 0.82759 0.92942 0.57965 0.0
H701 H 0.81718 0.9677 0.61557 0.0
C702 C 0.76465 0.992 0.62641 0.0
C703 C 0.73601 1.00303 0.62979 0.0
C704 C 0.77095 0.97071 0.60523 0.0
C705 C 0.71375 0.99281 0.61131 0.0
C706 C 0.71981 0.97141 0.59024 0.0
C707 C 0.75443 0.93805 0.56665 0.0
C708 C 0.78296 0.92658 0.56381 0.0
C709 C 0.74828 0.96006 0.58719 0.0
C710 C 0.80546 0.93785 0.5814 0.0
C711 C 0.7995 0.95967 0.60199 0.0
H712 H 0.11004 0.7632 0.54574 0.0
H713 H 0.16674 0.78213 0.61858 0.0
H714 H 0.13367 0.75511 0.65135 0.0
H715 H 0.08691 0.72922 0.65987 0.0
H716 H 0.02964 0.71186 0.58705 0.0
H717 H 0.06468 0.73534 0.55378 0.0
C718 C 0.11547 0.76106 0.5687 0.0
C719 C 0.14084 0.77475 0.57968 0.0
C720 C 0.09602 0.74614 0.58752 0.0
C721 C 0.14737 0.77184 0.60954 0.0
C722 C 0.12838 0.75652 0.62833 0.0
C723 C 0.0821 0.73049 0.63672 0.0
C724 C 0.05552 0.71899 0.62606 0.0
C725 C 0.10232 0.74415 0.61767 0.0
C726 C 0.04981 0.72066 0.59593 0.0
C727 C 0.06987 0.73404 0.57684 0.0
H728 H 0.26589 0.14631 0.5751 0.0
H729 H 0.25224 0.22295 0.62859 0.0
H730 H 0.27252 0.19725 0.67084 0.0
H731 H 0.29164 0.15195 0.69314 0.0
H732 H 0.30235 0.07485 0.63946 0.0
H733 H 0.28543 0.10176 0.59689 0.0
C734 C 0.26774 0.15762 0.59586 0.0
C735 C 0.25768 0.18658 0.59862 0.0
C736 C 0.27849 0.14244 0.6202 0.0
C737 C 0.25991 0.20068 0.62584 0.0
C738 C 0.27135 0.18594 0.65004 0.0
C739 C 0.29027 0.14104 0.67213 0.0
C740 C 0.29816 0.11134 0.66963 0.0
C741 C 0.28022 0.15662 0.64761 0.0
C742 C 0.29626 0.0976 0.64217 0.0
C743 C 0.28669 0.11301 0.61771 0.0
H744 H 0.93343 0.31139 0.52608 0.0
H745 H 0.85572 0.28957 0.57595 0.0
H746 H 0.87427 0.31784 0.61758 0.0
H747 H 0.91654 0.34122 0.64199 0.0
H748 H 0.99462 0.36143 0.59147 0.0
H749 H 0.97177 0.34174 0.54775 0.0
C750 C 0.92024 0.31351 0.54584 0.0
C751 C 0.89353 0.29826 0.54827 0.0
C752 C 0.93132 0.32914 0.56966 0.0
C753 C 0.87636 0.30127 0.57369 0.0
C754 C 0.88713 0.31715 0.59755 0.0
C755 C 0.92831 0.34191 0.62129 0.0
C756 C 0.95753 0.35215 0.6202 0.0
C757 C 0.91519 0.33005 0.59618 0.0
C758 C 0.97231 0.35324 0.5931 0.0
C759 C 0.95929 0.34193 0.56804 0.0
H760 H 0.74816 0.14 0.35262 0.0
H761 H 0.7048 0.11573 0.4334 0.0
H762 H 0.73594 0.15013 0.46022 0.0
H763 H 0.77765 0.18495 0.46102 0.0
H764 H 0.82137 0.20782 0.38 0.0
H765 H 0.78764 0.17647 0.35301 0.0
C766 C 0.74539 0.14224 0.37609 0.0
C767 C 0.7243 0.12506 0.39097 0.0
C768 C 0.76341 0.16195 0.39135 0.0
C769 C 0.72092 0.12855 0.42137 0.0
C770 C 0.73873 0.14825 0.43673 0.0
C771 C 0.77946 0.18348 0.43741 0.0
C772 C 0.80209 0.19872 0.42257 0.0
C773 C 0.7603 0.16483 0.422 0.0
C774 C 0.80425 0.1963 0.39199 0.0
C775 C 0.78502 0.17827 0.37652 0.0
H776 H 0.97302 0.75685 0.43717 0.0
H777 H 0.93512 0.79184 0.35846 0.0
H778 H 0.90304 0.82343 0.38773 0.0
H779 H 0.88477 0.8398 0.43581 0.0
H780 H 0.92411 0.80554 0.51431 0.0
H781 H 0.95704 0.77544 0.48493 0.0
C782 C 0.95758 0.77124 0.42643 0.0
C783 C 0.95603 0.77168 0.39574 0.0
C784 C 0.93973 0.78972 0.44334 0.0
C785 C 0.93649 0.79096 0.38208 0.0
C786 C 0.91823 0.80906 0.3988 0.0
C787 C 0.90079 0.82604 0.4465 0.0
C788 C 0.90178 0.82485 0.47726 0.0
C789 C 0.91959 0.80854 0.42946 0.0
C790 C 0.92278 0.80693 0.49071 0.0
C791 C 0.94154 0.78952 0.47392 0.0
H792 H 0.31551 0.90011 0.4163 0.0
H793 H 0.24334 0.91713 0.35826 0.0
H794 H 0.21175 0.88451 0.3875 0.0
H795 H 0.20336 0.8562 0.43303 0.0
H796 H 0.27513 0.84325 0.49253 0.0
H797 H 0.3084 0.8689 0.45894 0.0
C798 C 0.29294 0.89653 0.40977 0.0
C799 C 0.28167 0.91137 0.38535 0.0
C800 C 0.27488 0.87844 0.42701 0.0
C801 C 0.2525 0.90611 0.37706 0.0
C802 C 0.23443 0.88753 0.39382 0.0
C803 C 0.22648 0.85831 0.43818 0.0
C804 C 0.23692 0.84781 0.46513 0.0
C805 C 0.24519 0.87422 0.41931 0.0
C806 C 0.26672 0.85113 0.47188 0.0
C807 C 0.28566 0.86593 0.45278 0.0
H808 H 0.1771 0.21841 0.40451 0.0
H809 H 0.20573 0.28281 0.46734 0.0
H810 H 0.18687 0.322 0.43631 0.0
H811 H 0.15806 0.33749 0.39381 0.0
H812 H 0.1283 0.27284 0.33174 0.0
H813 H 0.15208 0.23427 0.35993 0.0
C814 C 0.17956 0.24104 0.41132 0.0
C815 C 0.19257 0.24759 0.43842 0.0
C816 C 0.16828 0.26342 0.39358 0.0
C817 C 0.19576 0.27708 0.44668 0.0
C818 C 0.18486 0.29952 0.42898 0.0
C819 C 0.15705 0.31502 0.3862 0.0
C820 C 0.14112 0.30809 0.36079 0.0
C821 C 0.17042 0.29287 0.40276 0.0
C822 C 0.14029 0.27884 0.35122 0.0
C823 C 0.1538 0.25674 0.36741 0.0
H824 H 0.63905 0.78876 1.00575 0.0
H825 H 0.71293 0.77622 0.9474 0.0
H826 H 0.6918 0.81063 0.91265 0.0
H827 H 0.65214 0.8434 0.89827 0.0
H828 H 0.57777 0.85598 0.95589 0.0
H829 H 0.59955 0.8227 0.99165 0.0
C830 C 0.65053 0.79349 0.98542 0.0
C831 C 0.67755 0.77973 0.97921 0.0
C832 C 0.63827 0.81346 0.96548 0.0
C833 C 0.69213 0.78636 0.9528 0.0
C834 C 0.68007 0.8061 0.93289 0.0
C835 C 0.64069 0.8391 0.91873 0.0
C836 C 0.61329 0.85225 0.92432 0.0
C837 C 0.65315 0.8197 0.93897 0.0
C838 C 0.5989 0.8463 0.951 0.0
C839 C 0.61129 0.82714 0.97141 0.0
H840 H 0.34401 0.66636 0.90333 0.0
H841 H 0.33652 0.59573 0.96577 0.0
H842 H 0.30491 0.56861 0.93219 0.0
H843 H 0.27477 0.56776 0.88797 0.0
H844 H 0.27835 0.64068 0.82785 0.0
H845 H 0.31629 0.66402 0.85751 0.0
C846 C 0.33604 0.64472 0.90932 0.0
C847 C 0.34268 0.63302 0.93702 0.0
C848 C 0.31684 0.62986 0.89044 0.0
C849 C 0.33176 0.60518 0.94459 0.0
C850 C 0.31357 0.58975 0.92545 0.0
C851 C 0.28421 0.58852 0.88101 0.0
C852 C 0.27363 0.6025 0.85572 0.0
C853 C 0.30523 0.60228 0.89873 0.0
C854 C 0.28597 0.62951 0.84726 0.0
C855 C 0.30764 0.64289 0.86425 0.0
H856 H 0.41285 0.36903 0.9359 0.0
H857 H 0.46854 0.35422 1.01044 0.0
H858 H 0.50211 0.32591 0.98016 0.0
H859 H 0.51235 0.30004 0.93453 0.0
H860 H 0.45742 0.31359 0.85952 0.0
H861 H 0.42722 0.34817 0.88772 0.0
C862 C 0.4326 0.36007 0.94539 0.0
C863 C 0.43781 0.3634 0.97563 0.0
C864 C 0.45189 0.34344 0.92779 0.0
C865 C 0.46369 0.35179 0.98742 0.0
C866 C 0.48295 0.33551 0.9701 0.0
C867 C 0.49411 0.31105 0.92415 0.0
C868 C 0.48691 0.30413 0.89512 0.0
C869 C 0.47676 0.3304 0.94058 0.0
C870 C 0.46345 0.31869 0.88181 0.0
C871 C 0.44603 0.33822 0.89805 0.0
H872 H 0.71183 0.38046 0.95457 0.0
H873 H 0.78032 0.35326 0.01333 0.0
H874 H 0.81651 0.38018 0.98437 0.0
H875 H 0.82861 0.41298 0.94388 0.0
H876 H 0.76086 0.44115 0.88491 0.0
H877 H 0.72458 0.412 0.91226 0.0
C878 C 0.73469 0.38032 0.96097 0.0
C879 C 0.74323 0.36494 0.98626 0.0
C880 C 0.75555 0.39599 0.94419 0.0
C881 C 0.77301 0.36492 0.99409 0.0
C882 C 0.79379 0.38034 0.97753 0.0
C883 C 0.80595 0.41268 0.93682 0.0
C884 C 0.79747 0.42939 0.91246 0.0
C885 C 0.78527 0.39617 0.95275 0.0
C886 C 0.76801 0.42849 0.90357 0.0
C887 C 0.74724 0.41192 0.91929 0.0
H888 H 0.6436 0.24179 0.11431 0.0
H889 H 0.59417 0.32186 0.12299 0.0
H890 H 0.55213 0.29434 0.14173 0.0
H891 H 0.52908 0.24781 0.15534 0.0
H892 H 0.57846 0.16762 0.14913 0.0
H893 H 0.62069 0.19489 0.12943 0.0
C894 C 0.6237 0.25324 0.12049 0.0
C895 C 0.62215 0.28392 0.11719 0.0
C896 C 0.59946 0.23723 0.13138 0.0
C897 C 0.59614 0.29834 0.12533 0.0
C898 C 0.57196 0.28259 0.13594 0.0
C899 C 0.54895 0.23617 0.14939 0.0
C900 C 0.55046 0.20563 0.15335 0.0
C901 C 0.57329 0.25205 0.13885 0.0
C902 C 0.57664 0.19108 0.14609 0.0
C903 C 0.60082 0.20669 0.13495 0.0
H904 H 0.83415 0.61457 0.17264 0.0
H905 H 0.85507 0.54551 0.11164 0.0
H906 H 0.83061 0.57241 0.07256 0.0
H907 H 0.80083 0.61425 0.0565 0.0
H908 H 0.78069 0.6835 0.11757 0.0
H909 H 0.80724 0.65771 0.1559 0.0
C910 C 0.83359 0.60548 0.15074 0.0
C911 C 0.84624 0.57796 0.14513 0.0
C912 C 0.81939 0.62096 0.12847 0.0
C913 C 0.84555 0.56665 0.11656 0.0
C914 C 0.83141 0.58195 0.09424 0.0
C915 C 0.80227 0.6237 0.0782 0.0
C916 C 0.78853 0.65061 0.08425 0.0
C917 C 0.81781 0.60887 0.10008 0.0
C918 C 0.79098 0.66279 0.11235 0.0
C919 C 0.80615 0.64805 0.13429 0.0
H920 H 0.4254 0.79757 0.04075 0.0
H921 H 0.44312 0.70604 0.05621 0.0
H922 H 0.47327 0.71914 0.09837 0.0
H923 H 0.49356 0.75652 0.13143 0.0
H924 H 0.47509 0.84794 0.11606 0.0
H925 H 0.44618 0.83483 0.07318 0.0
C926 C 0.43591 0.78039 0.05322 0.0
C927 C 0.43192 0.75079 0.04526 0.0
C928 C 0.453 0.78807 0.07751 0.0
C929 C 0.44579 0.72896 0.06177 0.0
C930 C 0.463 0.73645 0.08592 0.0
C931 C 0.48328 0.77365 0.1187 0.0
C932 C 0.4865 0.80324 0.12708 0.0
C933 C 0.46658 0.76593 0.0941 0.0
C934 C 0.473 0.82504 0.11022 0.0
C935 C 0.45645 0.81754 0.08567 0.0
H936 H 0.35301 0.44583 0.12622 0.0
H937 H 0.34657 0.4868 0.04135 0.0
H938 H 0.32047 0.52797 0.06297 0.0
H939 H 0.29412 0.54912 0.10433 0.0
H940 H 0.29805 0.50823 0.18923 0.0
H941 H 0.33094 0.47052 0.16942 0.0
C942 C 0.34649 0.46409 0.1126 0.0
C943 C 0.3515 0.46306 0.08212 0.0
C944 C 0.33076 0.48755 0.12513 0.0
C945 C 0.34278 0.48688 0.06478 0.0
C946 C 0.32777 0.51042 0.07711 0.0
C947 C 0.30247 0.53218 0.11865 0.0
C948 C 0.29334 0.53119 0.14809 0.0
C949 C 0.32077 0.51046 0.10701 0.0
C950 C 0.30473 0.50942 0.16647 0.0
C951 C 0.32337 0.48777 0.15507 0.0
H952 H 0.87042 0.60205 0.82694 0.0
H953 H 0.86479 0.52842 0.76825 0.0
H954 H 0.88553 0.55843 0.72851 0.0
H955 H 0.91024 0.60417 0.71235 0.0
H956 H 0.9155 0.67727 0.77205 0.0
H957 H 0.88986 0.64886 0.80948 0.0
C958 C 0.87332 0.59268 0.80531 0.0
C959 C 0.86643 0.56303 0.80055 0.0
C960 C 0.88552 0.60987 0.78288 0.0
C961 C 0.86989 0.55124 0.77239 0.0
C962 C 0.88198 0.56832 0.74977 0.0
C963 C 0.90551 0.61397 0.73345 0.0
C964 C 0.91521 0.6427 0.7395 0.0
C965 C 0.8907 0.59743 0.75504 0.0
C966 C 0.90854 0.65518 0.76683 0.0
C967 C 0.89388 0.63893 0.78831 0.0
H968 H 0.90673 0.39757 0.23296 0.0
H969 H 0.96808 0.46273 0.20111 0.0
H970 H 1.00902 0.43034 0.2126 0.0
H971 H 0.02729 0.38664 0.23791 0.0
H972 H 0.96565 0.32254 0.27154 0.0
H973 H 0.92494 0.35109 0.25242 0.0
C974 C 0.92904 0.40457 0.22818 0.0
C975 C 0.93437 0.43274 0.21669 0.0
C976 C 0.95244 0.38602 0.23519 0.0
C977 C 0.96337 0.44125 0.21015 0.0
C978 C 0.9868 0.42276 0.21679 0.0
C979 C 1.00502 0.37848 0.24045 0.0
C980 C 0.99956 0.35266 0.2566 0.0
C981 C 0.98161 0.3955 0.23019 0.0
C982 C 0.97052 0.34244 0.25948 0.0
C983 C 0.94718 0.35888 0.24871 0.0
H984 H 0.58679 1.00614 0.30389 0.0
H985 H 0.66886 0.97637 0.26701 0.0
H986 H 0.64254 0.94257 0.23511 0.0
H987 H 0.59637 0.91962 0.21942 0.0
H988 H 0.51425 0.94978 0.25601 0.0
H989 H 0.54041 0.9855 0.28579 0.0
C990 C 0.59891 0.99227 0.28886 0.0
C991 C 0.62977 0.99359 0.28809 0.0
C992 C 0.58362 0.97302 0.27035 0.0
C993 C 0.64511 0.97575 0.26816 0.0
C994 C 0.63007 0.9564 0.24987 0.0
C995 C 0.58414 0.93427 0.2336 0.0
C996 C 0.55336 0.93182 0.23552 0.0
C997 C 0.59934 0.95463 0.25097 0.0
C998 C 0.53793 0.95107 0.25403 0.0
C999 C 0.55289 0.97145 0.27125 0.0
H1000 H 0.17539 0.61304 0.27147 0.0
H1001 H 0.1948 0.6921 0.22331 0.0
H1002 H 0.16199 0.71991 0.2553 0.0
H1003 H 0.1233 0.72044 0.29261 0.0
H1004 H 0.10073 0.64079 0.33871 0.0
H1005 H 0.13914 0.61454 0.312 0.0
C1006 C 0.17308 0.63653 0.26869 0.0
C1007 C 0.18762 0.65068 0.24536 0.0
C1008 C 0.15309 0.65211 0.28635 0.0
C1009 C 0.18394 0.68092 0.24134 0.0
C1010 C 0.16501 0.69674 0.25944 0.0
C1011 C 0.12693 0.69741 0.29709 0.0
C1012 C 0.10887 0.68257 0.31739 0.0
C1013 C 0.14868 0.68236 0.28131 0.0
C1014 C 0.11411 0.65274 0.32301 0.0
C1015 C 0.13611 0.63769 0.30775 0.0
H1016 H 0.36395 0.13316 0.22648 0.0
H1017 H 0.44374 0.09197 0.19637 0.0
H1018 H 0.42547 0.04449 0.21344 0.0
H1019 H 0.38977 0.01603 0.24241 0.0
H1020 H 0.3108 0.05762 0.27415 0.0
H1021 H 0.32563 0.1034 0.25046 0.0
C1022 C 0.3772 0.11375 0.22323 0.0
C1023 C 0.4054 0.11628 0.21053 0.0
C1024 C 0.36677 0.08657 0.23356 0.0
C1025 C 0.42207 0.09078 0.20623 0.0
C1026 C 0.41167 0.06359 0.2161 0.0
C1027 C 0.37549 0.03493 0.24375 0.0
C1028 C 0.34937 0.03341 0.26046 0.0
C1029 C 0.38448 0.06141 0.23064 0.0
C1030 C 0.33108 0.05811 0.26163 0.0
C1031 C 0.33964 0.0844 0.24821 0.0
H1032 H 0.13902 0.40177 0.71338 0.0
H1033 H 0.05878 0.45071 0.70338 0.0
H1034 H 0.07954 0.49112 0.7312 0.0
H1035 H 0.11777 0.5099 0.76338 0.0
H1036 H 0.19813 0.46175 0.77408 0.0
H1037 H 0.18018 0.42377 0.74064 0.0
C1038 C 0.12625 0.42147 0.71686 0.0
C1039 C 0.09717 0.42294 0.70673 0.0
C1040 C 0.13822 0.44462 0.73323 0.0
C1041 C 0.08109 0.4488 0.71114 0.0
C1042 C 0.09289 0.47193 0.72716 0.0
C1043 C 0.1315 0.49123 0.75809 0.0
C1044 C 0.15895 0.48823 0.77145 0.0
C1045 C 0.12099 0.46962 0.73912 0.0
C1046 C 0.17684 0.46438 0.76406 0.0
C1047 C 0.16651 0.44264 0.7451 0.0
H1048 H 0.60012 0.21754 0.774 0.0
H1049 H 0.53731 0.14715 0.7651 0.0
H1050 H 0.57075 0.12108 0.7326 0.0
H1051 H 0.61984 0.11545 0.7112 0.0
H1052 H 0.68371 0.18475 0.72117 0.0
H1053 H 0.64795 0.21398 0.74823 0.0
C1054 C 0.59356 0.19682 0.76441 0.0
C1055 C 0.56636 0.18423 0.77219 0.0
C1056 C 0.61327 0.18148 0.7461 0.0
C1057 C 0.55825 0.15723 0.75973 0.0
C1058 C 0.57739 0.14222 0.74114 0.0
C1059 C 0.62582 0.13715 0.71882 0.0
C1060 C 0.65457 0.14766 0.71435 0.0
C1061 C 0.6053 0.15369 0.73487 0.0
C1062 C 0.66183 0.17591 0.72444 0.0
C1063 C 0.64138 0.19269 0.74002 0.0
H1064 H 0.45692 0.93343 0.85736 0.0
H1065 H 0.51394 0.97729 0.79536 0.0
H1066 H 0.47183 1.00004 0.77225 0.0
H1067 H 0.41902 1.00458 0.76701 0.0
H1068 H 0.36062 0.96119 0.82801 0.0
H1069 H 0.4029 0.94102 0.85402 0.0
C1070 C 0.46004 0.94854 0.83927 0.0
C1071 C 0.48849 0.95375 0.82809 0.0
C1072 C 0.43548 0.9611 0.8255 0.0
C1073 C 0.49225 0.97297 0.80433 0.0
C1074 C 0.46818 0.98584 0.79097 0.0
C1075 C 0.41543 0.99062 0.78593 0.0
C1076 C 0.38667 0.98399 0.79522 0.0
C1077 C 0.4397 0.97945 0.80084 0.0
C1078 C 0.38254 0.9664 0.82022 0.0
C1079 C 0.40672 0.95494 0.83514 0.0
loop_
_geom_bond_atom_site_label_1
_geom_bond_atom_site_label_2
_geom_bond_distance
_geom_bond_site_symmetry_2
_ccdc_geom_bond_type
Mg0 O7 2.141 . S
Mg0 O8 2.048 1_545 S
Mg0 O9 2.048 1_545 S
Mg0 O12 2.141 . S
C1 O2 1.313 . S
C1 O8 1.195 . S
O2 C1 1.313 . S
C3 O4 1.245 . S
C3 O12 1.289 . S
O4 C3 1.245 . S
C5 O6 1.245 . S
C5 O7 1.289 . S
O6 C5 1.245 . S
O7 Mg0 2.141 . S
O7 C5 1.289 . S
O8 Mg0 2.048 1_565 S
O8 C1 1.195 . S
O9 Mg0 2.048 1_565 S
O9 C10 1.195 . S
C10 O9 1.195 . S
C10 O11 1.313 . S
O11 C10 1.313 . S
O12 Mg0 2.141 . S
O12 C3 1.289 . S
Mg13 O20 2.141 . S
Mg13 O21 2.048 1_455 S
Mg13 O22 2.048 1_455 S
Mg13 O25 2.141 . S
C14 O15 1.313 . S
C14 O21 1.195 . S
O15 C14 1.313 . S
C16 O17 1.245 . S
C16 O25 1.289 . S
O17 C16 1.245 . S
C18 O19 1.245 . S
C18 O20 1.289 . S
O19 C18 1.245 . S
O20 Mg13 2.141 . S
O20 C18 1.289 . S
O21 Mg13 2.048 1_655 S
O21 C14 1.195 . S
O22 Mg13 2.048 1_655 S
O22 C23 1.195 . S
C23 O22 1.195 . S
C23 O24 1.313 . S
O24 C23 1.313 . S
O25 Mg13 2.141 . S
O25 C16 1.289 . S
Mg26 O33 2.141 1_545 S
Mg26 O34 2.048 . S
Mg26 O35 2.048 . S
Mg26 O38 2.141 1_545 S
C27 O28 1.313 . S
C27 O34 1.195 . S
O28 C27 1.313 . S
C29 O30 1.245 . S
C29 O38 1.289 . S
O30 C29 1.245 . S
C31 O32 1.245 . S
C31 O33 1.289 . S
O32 C31 1.245 . S
O33 Mg26 2.141 1_565 S
O33 C31 1.289 . S
O34 Mg26 2.048 . S
O34 C27 1.195 . S
O35 Mg26 2.048 . S
O35 C36 1.195 . S
C36 O35 1.195 . S
C36 O37 1.313 . S
O37 C36 1.313 . S
O38 Mg26 2.141 1_565 S
O38 C29 1.289 . S
Mg39 O46 2.141 1_455 S
Mg39 O47 2.048 . S
Mg39 O48 2.048 . S
Mg39 O51 2.141 1_455 S
C40 O41 1.313 . S
C40 O47 1.195 . S
O41 C40 1.313 . S
C42 O43 1.245 . S
C42 O51 1.289 . S
O43 C42 1.245 . S
C44 O45 1.245 . S
C44 O46 1.289 . S
O45 C44 1.245 . S
O46 Mg39 2.141 1_655 S
O46 C44 1.289 . S
O47 Mg39 2.048 . S
O47 C40 1.195 . S
O48 Mg39 2.048 . S
O48 C49 1.195 . S
C49 O48 1.195 . S
C49 O50 1.313 . S
O50 C49 1.313 . S
O51 Mg39 2.141 1_655 S
O51 C42 1.289 . S
Mg52 O59 2.141 1_545 S
Mg52 O60 2.048 . S
Mg52 O61 2.048 . S
Mg52 O64 2.141 1_545 S
C53 O54 1.313 . S
C53 O60 1.195 . S
O54 C53 1.313 . S
C55 O56 1.245 . S
C55 O64 1.289 . S
O56 C55 1.245 . S
C57 O58 1.245 . S
C57 O59 1.289 . S
O58 C57 1.245 . S
O59 Mg52 2.141 1_565 S
O59 C57 1.289 . S
O60 Mg52 2.048 . S
O60 C53 1.195 . S
O61 Mg52 2.048 . S
O61 C62 1.195 . S
C62 O61 1.195 . S
C62 O63 1.313 . S
O63 C62 1.313 . S
O64 Mg52 2.141 1_565 S
O64 C55 1.289 . S
Mg65 O72 2.141 . S
Mg65 O73 2.048 1_455 S
Mg65 O74 2.048 1_455 S
Mg65 O77 2.141 . S
C66 O67 1.313 . S
C66 O73 1.195 . S
O67 C66 1.313 . S
C68 O69 1.245 . S
C68 O77 1.289 . S
O69 C68 1.245 . S
C70 O71 1.245 . S
C70 O72 1.289 . S
O71 C70 1.245 . S
O72 Mg65 2.141 . S
O72 C70 1.289 . S
O73 Mg65 2.048 1_655 S
O73 C66 1.195 . S
O74 Mg65 2.048 1_655 S
O74 C75 1.195 . S
C75 O74 1.195 . S
C75 O76 1.313 . S
O76 C75 1.313 . S
O77 Mg65 2.141 . S
O77 C68 1.289 . S
Mg78 O85 2.141 . S
Mg78 O86 2.048 1_545 S
Mg78 O87 2.048 1_545 S
Mg78 O90 2.141 . S
C79 O80 1.313 . S
C79 O86 1.195 . S
O80 C79 1.313 . S
C81 O82 1.245 . S
C81 O90 1.289 . S
O82 C81 1.245 . S
C83 O84 1.245 . S
C83 O85 1.289 . S
O84 C83 1.245 . S
O85 Mg78 2.141 . S
O85 C83 1.289 . S
O86 Mg78 2.048 1_565 S
O86 C79 1.195 . S
O87 Mg78 2.048 1_565 S
O87 C88 1.195 . S
C88 O87 1.195 . S
C88 O89 1.313 . S
O89 C88 1.313 . S
O90 Mg78 2.141 . S
O90 C81 1.289 . S
Mg91 O98 2.141 1_455 S
Mg91 O99 2.048 . S
Mg91 O100 2.048 . S
Mg91 O103 2.141 1_455 S
C92 O93 1.313 . S
C92 O99 1.195 . S
O93 C92 1.313 . S
C94 O95 1.245 . S
C94 O103 1.289 . S
O95 C94 1.245 . S
C96 O97 1.245 . S
C96 O98 1.289 . S
O97 C96 1.245 . S
O98 Mg91 2.141 1_655 S
O98 C96 1.289 . S
O99 Mg91 2.048 . S
O99 C92 1.195 . S
O100 Mg91 2.048 . S
O100 C101 1.195 . S
C101 O100 1.195 . S
C101 O102 1.313 . S
O102 C101 1.313 . S
O103 Mg91 2.141 1_655 S
O103 C94 1.289 . S
Mg104 O111 2.141 . S
Mg104 O112 2.048 1_554 S
Mg104 O113 2.048 1_554 S
Mg104 O116 2.141 . S
C105 O106 1.313 . S
C105 O112 1.195 . S
O106 C105 1.313 . S
C107 O108 1.245 . S
C107 O116 1.289 . S
O108 C107 1.245 . S
C109 O110 1.245 . S
C109 O111 1.289 . S
O110 C109 1.245 . S
O111 Mg104 2.141 . S
O111 C109 1.289 . S
O112 Mg104 2.048 1_556 S
O112 C105 1.195 . S
O113 Mg104 2.048 1_556 S
O113 C114 1.195 . S
C114 O113 1.195 . S
C114 O115 1.313 . S
O115 C114 1.313 . S
O116 Mg104 2.141 . S
O116 C107 1.289 . S
Mg117 O124 2.141 1_554 S
Mg117 O125 2.048 . S
Mg117 O126 2.048 . S
Mg117 O129 2.141 1_554 S
C118 O119 1.313 . S
C118 O125 1.195 . S
O119 C118 1.313 . S
C120 O121 1.245 . S
C120 O129 1.289 . S
O121 C120 1.245 . S
C122 O123 1.245 . S
C122 O124 1.289 . S
O123 C122 1.245 . S
O124 Mg117 2.141 1_556 S
O124 C122 1.289 . S
O125 Mg117 2.048 . S
O125 C118 1.195 . S
O126 Mg117 2.048 . S
O126 C127 1.195 . S
C127 O126 1.195 . S
C127 O128 1.313 . S
O128 C127 1.313 . S
O129 Mg117 2.141 1_556 S
O129 C120 1.289 . S
Mg130 O137 2.141 1_554 S
Mg130 O138 2.048 . S
Mg130 O139 2.048 . S
Mg130 O142 2.141 1_554 S
C131 O132 1.313 . S
C131 O138 1.195 . S
O132 C131 1.313 . S
C133 O134 1.245 . S
C133 O142 1.289 . S
O134 C133 1.245 . S
C135 O136 1.245 . S
C135 O137 1.289 . S
O136 C135 1.245 . S
O137 Mg130 2.141 1_556 S
O137 C135 1.289 . S
O138 Mg130 2.048 . S
O138 C131 1.195 . S
O139 Mg130 2.048 . S
O139 C140 1.195 . S
C140 O139 1.195 . S
C140 O141 1.313 . S
O141 C140 1.313 . S
O142 Mg130 2.141 1_556 S
O142 C133 1.289 . S
Mg143 O150 2.141 . S
Mg143 O151 2.048 1_554 S
Mg143 O152 2.048 1_554 S
Mg143 O155 2.141 . S
C144 O145 1.313 . S
C144 O151 1.195 . S
O145 C144 1.313 . S
C146 O147 1.245 . S
C146 O155 1.289 . S
O147 C146 1.245 . S
C148 O149 1.245 . S
C148 O150 1.289 . S
O149 C148 1.245 . S
O150 Mg143 2.141 . S
O150 C148 1.289 . S
O151 Mg143 2.048 1_556 S
O151 C144 1.195 . S
O152 Mg143 2.048 1_556 S
O152 C153 1.195 . S
C153 O152 1.195 . S
C153 O154 1.313 . S
O154 C153 1.313 . S
O155 Mg143 2.141 . S
O155 C146 1.289 . S
Mg156 O163 2.141 . S
Mg156 O164 2.048 . S
Mg156 O165 2.048 . S
Mg156 O168 2.141 . S
C157 O158 1.313 . S
C157 O164 1.195 . S
O158 C157 1.313 . S
C159 O160 1.245 . S
C159 O168 1.289 . S
O160 C159 1.245 . S
C161 O162 1.245 . S
C161 O163 1.289 . S
O162 C161 1.245 . S
O163 Mg156 2.141 . S
O163 C161 1.289 . S
O164 Mg156 2.048 . S
O164 C157 1.195 . S
O165 Mg156 2.048 . S
O165 C166 1.195 . S
C166 O165 1.195 . S
C166 O167 1.313 . S
O167 C166 1.313 . S
O168 Mg156 2.141 . S
O168 C159 1.289 . S
Mg169 O176 2.141 . S
Mg169 O177 2.048 . S
Mg169 O178 2.048 . S
Mg169 O181 2.141 . S
C170 O171 1.313 . S
C170 O177 1.195 . S
O171 C170 1.313 . S
C172 O173 1.245 . S
C172 O181 1.289 . S
O173 C172 1.245 . S
C174 O175 1.245 . S
C174 O176 1.289 . S
O175 C174 1.245 . S
O176 Mg169 2.141 . S
O176 C174 1.289 . S
O177 Mg169 2.048 . S
O177 C170 1.195 . S
O178 Mg169 2.048 . S
O178 C179 1.195 . S
C179 O178 1.195 . S
C179 O180 1.313 . S
O180 C179 1.313 . S
O181 Mg169 2.141 . S
O181 C172 1.289 . S
Mg182 O189 2.141 . S
Mg182 O190 2.048 . S
Mg182 O191 2.048 . S
Mg182 O194 2.141 . S
C183 O184 1.313 . S
C183 O190 1.195 . S
O184 C183 1.313 . S
C185 O186 1.245 . S
C185 O194 1.289 . S
O186 C185 1.245 . S
C187 O188 1.245 . S
C187 O189 1.289 . S
O188 C187 1.245 . S
O189 Mg182 2.141 . S
O189 C187 1.289 . S
O190 Mg182 2.048 . S
O190 C183 1.195 . S
O191 Mg182 2.048 . S
O191 C192 1.195 . S
C192 O191 1.195 . S
C192 O193 1.313 . S
O193 C192 1.313 . S
O194 Mg182 2.141 . S
O194 C185 1.289 . S
Mg195 O202 2.141 . S
Mg195 O203 2.048 . S
Mg195 O204 2.048 . S
Mg195 O207 2.141 . S
C196 O197 1.313 . S
C196 O203 1.195 . S
O197 C196 1.313 . S
C198 O199 1.245 . S
C198 O207 1.289 . S
O199 C198 1.245 . S
C200 O201 1.245 . S
C200 O202 1.289 . S
O201 C200 1.245 . S
O202 Mg195 2.141 . S
O202 C200 1.289 . S
O203 Mg195 2.048 . S
O203 C196 1.195 . S
O204 Mg195 2.048 . S
O204 C205 1.195 . S
C205 O204 1.195 . S
C205 O206 1.313 . S
O206 C205 1.313 . S
O207 Mg195 2.141 . S
O207 C198 1.289 . S
Mg208 O215 2.141 . S
Mg208 O216 2.048 . S
Mg208 O217 2.048 . S
Mg208 O220 2.141 . S
C209 O210 1.313 . S
C209 O216 1.195 . S
O210 C209 1.313 . S
C211 O212 1.245 . S
C211 O220 1.289 . S
O212 C211 1.245 . S
C213 O214 1.245 . S
C213 O215 1.289 . S
O214 C213 1.245 . S
O215 Mg208 2.141 . S
O215 C213 1.289 . S
O216 Mg208 2.048 . S
O216 C209 1.195 . S
O217 Mg208 2.048 . S
O217 C218 1.195 . S
C218 O217 1.195 . S
C218 O219 1.313 . S
O219 C218 1.313 . S
O220 Mg208 2.141 . S
O220 C211 1.289 . S
Mg221 O228 2.141 . S
Mg221 O229 2.048 . S
Mg221 O230 2.048 . S
Mg221 O233 2.141 . S
C222 O223 1.313 . S
C222 O229 1.195 . S
O223 C222 1.313 . S
C224 O225 1.245 . S
C224 O233 1.289 . S
O225 C224 1.245 . S
C226 O227 1.245 . S
C226 O228 1.289 . S
O227 C226 1.245 . S
O228 Mg221 2.141 . S
O228 C226 1.289 . S
O229 Mg221 2.048 . S
O229 C222 1.195 . S
O230 Mg221 2.048 . S
O230 C231 1.195 . S
C231 O230 1.195 . S
C231 O232 1.313 . S
O232 C231 1.313 . S
O233 Mg221 2.141 . S
O233 C224 1.289 . S
Mg234 O241 2.141 . S
Mg234 O242 2.048 . S
Mg234 O243 2.048 . S
Mg234 O246 2.141 . S
C235 O236 1.313 . S
C235 O242 1.195 . S
O236 C235 1.313 . S
C237 O238 1.245 . S
C237 O246 1.289 . S
O238 C237 1.245 . S
C239 O240 1.245 . S
C239 O241 1.289 . S
O240 C239 1.245 . S
O241 Mg234 2.141 . S
O241 C239 1.289 . S
O242 Mg234 2.048 . S
O242 C235 1.195 . S
O243 Mg234 2.048 . S
O243 C244 1.195 . S
C244 O243 1.195 . S
C244 O245 1.313 . S
O245 C244 1.313 . S
O246 Mg234 2.141 . S
O246 C237 1.289 . S
Mg247 O254 2.141 . S
Mg247 O255 2.048 . S
Mg247 O256 2.048 . S
Mg247 O259 2.141 . S
C248 O249 1.313 . S
C248 O255 1.195 . S
O249 C248 1.313 . S
C250 O251 1.245 . S
C250 O259 1.289 . S
O251 C250 1.245 . S
C252 O253 1.245 . S
C252 O254 1.289 . S
O253 C252 1.245 . S
O254 Mg247 2.141 . S
O254 C252 1.289 . S
O255 Mg247 2.048 . S
O255 C248 1.195 . S
O256 Mg247 2.048 . S
O256 C257 1.195 . S
C257 O256 1.195 . S
C257 O258 1.313 . S
O258 C257 1.313 . S
O259 Mg247 2.141 . S
O259 C250 1.289 . S
Mg260 O267 2.141 . S
Mg260 O268 2.048 . S
Mg260 O269 2.048 . S
Mg260 O272 2.141 . S
C261 O262 1.313 . S
C261 O268 1.195 . S
O262 C261 1.313 . S
C263 O264 1.245 . S
C263 O272 1.289 . S
O264 C263 1.245 . S
C265 O266 1.245 . S
C265 O267 1.289 . S
O266 C265 1.245 . S
O267 Mg260 2.141 . S
O267 C265 1.289 . S
O268 Mg260 2.048 . S
O268 C261 1.195 . S
O269 Mg260 2.048 . S
O269 C270 1.195 . S
C270 O269 1.195 . S
C270 O271 1.313 . S
O271 C270 1.313 . S
O272 Mg260 2.141 . S
O272 C263 1.289 . S
Mg273 O280 2.141 . S
Mg273 O281 2.048 . S
Mg273 O282 2.048 . S
Mg273 O285 2.141 . S
C274 O275 1.313 . S
C274 O281 1.195 . S
O275 C274 1.313 . S
C276 O277 1.245 . S
C276 O285 1.289 . S
O277 C276 1.245 . S
C278 O279 1.245 . S
C278 O280 1.289 . S
O279 C278 1.245 . S
O280 Mg273 2.141 . S
O280 C278 1.289 . S
O281 Mg273 2.048 . S
O281 C274 1.195 . S
O282 Mg273 2.048 . S
O282 C283 1.195 . S
C283 O282 1.195 . S
C283 O284 1.313 . S
O284 C283 1.313 . S
O285 Mg273 2.141 . S
O285 C276 1.289 . S
Mg286 O293 2.141 . S
Mg286 O294 2.048 . S
Mg286 O295 2.048 . S
Mg286 O298 2.141 . S
C287 O288 1.313 . S
C287 O294 1.195 . S
O288 C287 1.313 . S
C289 O290 1.245 . S
C289 O298 1.289 . S
O290 C289 1.245 . S
C291 O292 1.245 . S
C291 O293 1.289 . S
O292 C291 1.245 . S
O293 Mg286 2.141 . S
O293 C291 1.289 . S
O294 Mg286 2.048 . S
O294 C287 1.195 . S
O295 Mg286 2.048 . S
O295 C296 1.195 . S
C296 O295 1.195 . S
C296 O297 1.313 . S
O297 C296 1.313 . S
O298 Mg286 2.141 . S
O298 C289 1.289 . S
Mg299 O306 2.141 . S
Mg299 O307 2.048 . S
Mg299 O308 2.048 . S
Mg299 O311 2.141 . S
C300 O301 1.313 . S
C300 O307 1.195 . S
O301 C300 1.313 . S
C302 O303 1.245 . S
C302 O311 1.289 . S
O303 C302 1.245 . S
C304 O305 1.245 . S
C304 O306 1.289 . S
O305 C304 1.245 . S
O306 Mg299 2.141 . S
O306 C304 1.289 . S
O307 Mg299 2.048 . S
O307 C300 1.195 . S
O308 Mg299 2.048 . S
O308 C309 1.195 . S
C309 O308 1.195 . S
C309 O310 1.313 . S
O310 C309 1.313 . S
O311 Mg299 2.141 . S
O311 C302 1.289 . S
H312 C318 0.930 . S
H313 C321 0.930 . S
H314 C322 0.930 . S
H315 C323 0.930 . S
H316 C326 0.930 . S
H317 C327 0.930 . S
C318 H312 0.930 . S
C318 C319 1.355 . S
C318 C320 1.415 . S
C319 C318 1.355 . S
C319 C321 1.419 . S
C320 C318 1.415 . S
C320 C325 1.425 . S
C320 C327 1.409 . S
C321 H313 0.930 . S
C321 C319 1.419 . S
C321 C322 1.362 . S
C322 H314 0.930 . S
C322 C321 1.362 . S
C322 C325 1.409 . S
C323 H315 0.930 . S
C323 C324 1.355 . S
C323 C325 1.415 . S
C324 C323 1.355 . S
C324 C326 1.419 . S
C325 C320 1.425 . S
C325 C322 1.409 . S
C325 C323 1.415 . S
C326 H316 0.930 . S
C326 C324 1.419 . S
C326 C327 1.362 . S
C327 H317 0.930 . S
C327 C320 1.409 . S
C327 C326 1.362 . S
H328 C334 0.930 . S
H329 C337 0.930 . S
H330 C338 0.930 . S
H331 C339 0.930 . S
H332 C342 0.930 . S
H333 C343 0.930 . S
C334 H328 0.930 . S
C334 C335 1.355 . S
C334 C336 1.415 . S
C335 C334 1.355 . S
C335 C337 1.419 . S
C336 C334 1.415 . S
C336 C341 1.425 . S
C336 C343 1.409 . S
C337 H329 0.930 . S
C337 C335 1.419 . S
C337 C338 1.362 . S
C338 H330 0.930 . S
C338 C337 1.362 . S
C338 C341 1.409 . S
C339 H331 0.930 . S
C339 C340 1.355 . S
C339 C341 1.415 . S
C340 C339 1.355 . S
C340 C342 1.419 . S
C341 C336 1.425 . S
C341 C338 1.409 . S
C341 C339 1.415 . S
C342 H332 0.930 . S
C342 C340 1.419 . S
C342 C343 1.362 . S
C343 H333 0.930 . S
C343 C336 1.409 . S
C343 C342 1.362 . S
H344 C350 0.930 . S
H345 C353 0.930 . S
H346 C354 0.930 . S
H347 C355 0.930 . S
H348 C358 0.930 . S
H349 C359 0.930 . S
C350 H344 0.930 . S
C350 C351 1.355 . S
C350 C352 1.415 . S
C351 C350 1.355 . S
C351 C353 1.419 . S
C352 C350 1.415 . S
C352 C357 1.425 . S
C352 C359 1.409 . S
C353 H345 0.930 . S
C353 C351 1.419 . S
C353 C354 1.362 . S
C354 H346 0.930 . S
C354 C353 1.362 . S
C354 C357 1.409 . S
C355 H347 0.930 . S
C355 C356 1.355 . S
C355 C357 1.415 . S
C356 C355 1.355 . S
C356 C358 1.419 . S
C357 C352 1.425 . S
C357 C354 1.409 . S
C357 C355 1.415 . S
C358 H348 0.930 . S
C358 C356 1.419 . S
C358 C359 1.362 . S
C359 H349 0.930 . S
C359 C352 1.409 . S
C359 C358 1.362 . S
H360 C366 0.930 . S
H361 C369 0.930 . S
H362 C370 0.930 . S
H363 C371 0.930 . S
H364 C374 0.930 . S
H365 C375 0.930 . S
C366 H360 0.930 . S
C366 C367 1.355 . S
C366 C368 1.415 . S
C367 C366 1.355 . S
C367 C369 1.419 . S
C368 C366 1.415 . S
C368 C373 1.425 . S
C368 C375 1.409 . S
C369 H361 0.930 . S
C369 C367 1.419 . S
C369 C370 1.362 . S
C370 H362 0.930 . S
C370 C369 1.362 . S
C370 C373 1.409 . S
C371 H363 0.930 . S
C371 C372 1.355 . S
C371 C373 1.415 . S
C372 C371 1.355 . S
C372 C374 1.419 . S
C373 C368 1.425 . S
C373 C370 1.409 . S
C373 C371 1.415 . S
C374 H364 0.930 . S
C374 C372 1.419 . S
C374 C375 1.362 . S
C375 H365 0.930 . S
C375 C368 1.409 . S
C375 C374 1.362 . S
H376 C382 0.930 . S
H377 C385 0.930 . S
H378 C386 0.930 . S
H379 C387 0.930 . S
H380 C390 0.930 . S
H381 C391 0.930 . S
C382 H376 0.930 . S
C382 C383 1.355 . S
C382 C384 1.415 . S
C383 C382 1.355 . S
C383 C385 1.419 . S
C384 C382 1.415 . S
C384 C389 1.425 . S
C384 C391 1.409 . S
C385 H377 0.930 . S
C385 C383 1.419 . S
C385 C386 1.362 . S
C386 H378 0.930 . S
C386 C385 1.362 . S
C386 C389 1.409 . S
C387 H379 0.930 . S
C387 C388 1.355 . S
C387 C389 1.415 . S
C388 C387 1.355 . S
C388 C390 1.419 . S
C389 C384 1.425 . S
C389 C386 1.409 . S
C389 C387 1.415 . S
C390 H380 0.930 . S
C390 C388 1.419 . S
C390 C391 1.362 . S
C391 H381 0.930 . S
C391 C384 1.409 . S
C391 C390 1.362 . S
H392 C398 0.930 . S
H393 C401 0.930 . S
H394 C402 0.930 . S
H395 C403 0.930 . S
H396 C406 0.930 . S
H397 C407 0.930 . S
C398 H392 0.930 . S
C398 C399 1.355 . S
C398 C400 1.415 . S
C399 C398 1.355 . S
C399 C401 1.419 . S
C400 C398 1.415 . S
C400 C405 1.425 . S
C400 C407 1.409 . S
C401 H393 0.930 . S
C401 C399 1.419 . S
C401 C402 1.362 . S
C402 H394 0.930 . S
C402 C401 1.362 . S
C402 C405 1.409 . S
C403 H395 0.930 . S
C403 C404 1.355 . S
C403 C405 1.415 . S
C404 C403 1.355 . S
C404 C406 1.419 . S
C405 C400 1.425 . S
C405 C402 1.409 . S
C405 C403 1.415 . S
C406 H396 0.930 . S
C406 C404 1.419 . S
C406 C407 1.362 . S
C407 H397 0.930 . S
C407 C400 1.409 . S
C407 C406 1.362 . S
H408 C414 0.930 . S
H409 C417 0.930 . S
H410 C418 0.930 . S
H411 C419 0.930 . S
H412 C422 0.930 . S
H413 C423 0.930 . S
C414 H408 0.930 . S
C414 C415 1.355 . S
C414 C416 1.415 . S
C415 C414 1.355 . S
C415 C417 1.419 . S
C416 C414 1.415 . S
C416 C421 1.425 . S
C416 C423 1.409 . S
C417 H409 0.930 . S
C417 C415 1.419 . S
C417 C418 1.362 . S
C418 H410 0.930 . S
C418 C417 1.362 . S
C418 C421 1.409 . S
C419 H411 0.930 . S
C419 C420 1.355 . S
C419 C421 1.415 . S
C420 C419 1.355 . S
C420 C422 1.419 . S
C421 C416 1.425 . S
C421 C418 1.409 . S
C421 C419 1.415 . S
C422 H412 0.930 . S
C422 C420 1.419 . S
C422 C423 1.362 . S
C423 H413 0.930 . S
C423 C416 1.409 . S
C423 C422 1.362 . S
H424 C430 0.930 . S
H425 C433 0.930 . S
H426 C434 0.930 . S
H427 C435 0.930 . S
H428 C438 0.930 . S
H429 C439 0.930 . S
C430 H424 0.930 . S
C430 C431 1.355 . S
C430 C432 1.415 . S
C431 C430 1.355 . S
C431 C433 1.419 . S
C432 C430 1.415 . S
C432 C437 1.425 . S
C432 C439 1.409 . S
C433 H425 0.930 . S
C433 C431 1.419 . S
C433 C434 1.362 . S
C434 H426 0.930 . S
C434 C433 1.362 . S
C434 C437 1.409 . S
C435 H427 0.930 . S
C435 C436 1.355 . S
C435 C437 1.415 . S
C436 C435 1.355 . S
C436 C438 1.419 . S
C437 C432 1.425 . S
C437 C434 1.409 . S
C437 C435 1.415 . S
C438 H428 0.930 . S
C438 C436 1.419 . S
C438 C439 1.362 . S
C439 H429 0.930 . S
C439 C432 1.409 . S
C439 C438 1.362 . S
H440 C446 0.930 . S
H441 C449 0.930 . S
H442 C450 0.930 . S
H443 C451 0.930 . S
H444 C454 0.930 . S
H445 C455 0.930 . S
C446 H440 0.930 . S
C446 C447 1.355 . S
C446 C448 1.415 . S
C447 C446 1.355 . S
C447 C449 1.419 . S
C448 C446 1.415 . S
C448 C453 1.425 . S
C448 C455 1.409 . S
C449 H441 0.930 . S
C449 C447 1.419 . S
C449 C450 1.362 . S
C450 H442 0.930 . S
C450 C449 1.362 . S
C450 C453 1.409 . S
C451 H443 0.930 . S
C451 C452 1.355 . S
C451 C453 1.415 . S
C452 C451 1.355 . S
C452 C454 1.419 . S
C453 C448 1.425 . S
C453 C450 1.409 . S
C453 C451 1.415 . S
C454 H444 0.930 . S
C454 C452 1.419 . S
C454 C455 1.362 . S
C455 H445 0.930 . S
C455 C448 1.409 . S
C455 C454 1.362 . S
H456 C462 0.930 . S
H457 C465 0.930 . S
H458 C466 0.930 . S
H459 C467 0.930 . S
H460 C470 0.930 . S
H461 C471 0.930 . S
C462 H456 0.930 . S
C462 C463 1.355 . S
C462 C464 1.415 . S
C463 C462 1.355 . S
C463 C465 1.419 . S
C464 C462 1.415 . S
C464 C469 1.425 . S
C464 C471 1.409 . S
C465 H457 0.930 . S
C465 C463 1.419 . S
C465 C466 1.362 . S
C466 H458 0.930 . S
C466 C465 1.362 . S
C466 C469 1.409 . S
C467 H459 0.930 . S
C467 C468 1.355 . S
C467 C469 1.415 . S
C468 C467 1.355 . S
C468 C470 1.419 . S
C469 C464 1.425 . S
C469 C466 1.409 . S
C469 C467 1.415 . S
C470 H460 0.930 . S
C470 C468 1.419 . S
C470 C471 1.362 . S
C471 H461 0.930 . S
C471 C464 1.409 . S
C471 C470 1.362 . S
H472 C478 0.930 . S
H473 C481 0.930 . S
H474 C482 0.930 . S
H475 C483 0.930 . S
H476 C486 0.930 . S
H477 C487 0.930 . S
C478 H472 0.930 . S
C478 C479 1.355 . S
C478 C480 1.415 . S
C479 C478 1.355 . S
C479 C481 1.419 . S
C480 C478 1.415 . S
C480 C485 1.425 . S
C480 C487 1.409 . S
C481 H473 0.930 . S
C481 C479 1.419 . S
C481 C482 1.362 . S
C482 H474 0.930 . S
C482 C481 1.362 . S
C482 C485 1.409 . S
C483 H475 0.930 . S
C483 C484 1.355 . S
C483 C485 1.415 . S
C484 C483 1.355 . S
C484 C486 1.419 . S
C485 C480 1.425 . S
C485 C482 1.409 . S
C485 C483 1.415 . S
C486 H476 0.930 . S
C486 C484 1.419 . S
C486 C487 1.362 . S
C487 H477 0.930 . S
C487 C480 1.409 . S
C487 C486 1.362 . S
H488 C494 0.930 . S
H489 C497 0.930 . S
H490 C498 0.930 . S
H491 C499 0.930 . S
H492 C502 0.930 . S
H493 C503 0.930 . S
C494 H488 0.930 . S
C494 C495 1.355 . S
C494 C496 1.415 . S
C495 C494 1.355 . S
C495 C497 1.419 . S
C496 C494 1.415 . S
C496 C501 1.425 . S
C496 C503 1.409 . S
C497 H489 0.930 . S
C497 C495 1.419 . S
C497 C498 1.362 . S
C498 H490 0.930 . S
C498 C497 1.362 . S
C498 C501 1.409 . S
C499 H491 0.930 . S
C499 C500 1.355 . S
C499 C501 1.415 . S
C500 C499 1.355 . S
C500 C502 1.419 . S
C501 C496 1.425 . S
C501 C498 1.409 . S
C501 C499 1.415 . S
C502 H492 0.930 . S
C502 C500 1.419 . S
C502 C503 1.362 . S
C503 H493 0.930 . S
C503 C496 1.409 . S
C503 C502 1.362 . S
H504 C510 0.930 . S
H505 C513 0.930 . S
H506 C514 0.930 . S
H507 C515 0.930 . S
H508 C518 0.930 . S
H509 C519 0.930 . S
C510 H504 0.930 . S
C510 C511 1.355 . S
C510 C512 1.415 . S
C511 C510 1.355 . S
C511 C513 1.419 . S
C512 C510 1.415 . S
C512 C517 1.425 . S
C512 C519 1.409 . S
C513 H505 0.930 . S
C513 C511 1.419 . S
C513 C514 1.362 . S
C514 H506 0.930 . S
C514 C513 1.362 . S
C514 C517 1.409 . S
C515 H507 0.930 . S
C515 C516 1.355 . S
C515 C517 1.415 . S
C516 C515 1.355 . S
C516 C518 1.419 . S
C517 C512 1.425 . S
C517 C514 1.409 . S
C517 C515 1.415 . S
C518 H508 0.930 . S
C518 C516 1.419 . S
C518 C519 1.362 . S
C519 H509 0.930 . S
C519 C512 1.409 . S
C519 C518 1.362 . S
H520 C526 0.930 . S
H521 C529 0.930 . S
H522 C530 0.930 . S
H523 C531 0.930 . S
H524 C534 0.930 . S
H525 C535 0.930 . S
C526 H520 0.930 . S
C526 C527 1.355 . S
C526 C528 1.415 . S
C527 C526 1.355 . S
C527 C529 1.419 . S
C528 C526 1.415 . S
C528 C533 1.425 . S
C528 C535 1.409 . S
C529 H521 0.930 . S
C529 C527 1.419 . S
C529 C530 1.362 . S
C530 H522 0.930 . S
C530 C529 1.362 . S
C530 C533 1.409 . S
C531 H523 0.930 . S
C531 C532 1.355 . S
C531 C533 1.415 . S
C532 C531 1.355 . S
C532 C534 1.419 . S
C533 C528 1.425 . S
C533 C530 1.409 . S
C533 C531 1.415 . S
C534 H524 0.930 . S
C534 C532 1.419 . S
C534 C535 1.362 . S
C535 H525 0.930 . S
C535 C528 1.409 . S
C535 C534 1.362 . S
H536 C542 0.930 . S
H537 C545 0.930 . S
H538 C546 0.930 . S
H539 C547 0.930 . S
H540 C550 0.930 . S
H541 C551 0.930 . S
C542 H536 0.930 . S
C542 C543 1.355 . S
C542 C544 1.415 . S
C543 C542 1.355 . S
C543 C545 1.419 . S
C544 C542 1.415 . S
C544 C549 1.425 . S
C544 C551 1.409 . S
C545 H537 0.930 . S
C545 C543 1.419 . S
C545 C546 1.362 . S
C546 H538 0.930 . S
C546 C545 1.362 . S
C546 C549 1.409 . S
C547 H539 0.930 . S
C547 C548 1.355 . S
C547 C549 1.415 . S
C548 C547 1.355 . S
C548 C550 1.419 . S
C549 C544 1.425 . S
C549 C546 1.409 . S
C549 C547 1.415 . S
C550 H540 0.930 . S
C550 C548 1.419 . S
C550 C551 1.362 . S
C551 H541 0.930 . S
C551 C544 1.409 . S
C551 C550 1.362 . S
H552 C558 0.930 . S
H553 C561 0.930 . S
H554 C562 0.930 . S
H555 C563 0.930 . S
H556 C566 0.930 . S
H557 C567 0.930 . S
C558 H552 0.930 . S
C558 C559 1.355 . S
C558 C560 1.415 . S
C559 C558 1.355 . S
C559 C561 1.419 . S
C560 C558 1.415 . S
C560 C565 1.425 . S
C560 C567 1.409 . S
C561 H553 0.930 . S
C561 C559 1.419 . S
C561 C562 1.362 . S
C562 H554 0.930 . S
C562 C561 1.362 . S
C562 C565 1.409 . S
C563 H555 0.930 . S
C563 C564 1.355 . S
C563 C565 1.415 . S
C564 C563 1.355 . S
C564 C566 1.419 . S
C565 C560 1.425 . S
C565 C562 1.409 . S
C565 C563 1.415 . S
C566 H556 0.930 . S
C566 C564 1.419 . S
C566 C567 1.362 . S
C567 H557 0.930 . S
C567 C560 1.409 . S
C567 C566 1.362 . S
H568 C574 0.930 . S
H569 C577 0.930 . S
H570 C578 0.930 . S
H571 C579 0.930 . S
H572 C582 0.930 . S
H573 C583 0.930 . S
C574 H568 0.930 . S
C574 C575 1.355 . S
C574 C576 1.415 . S
C575 C574 1.355 . S
C575 C577 1.419 . S
C576 C574 1.415 . S
C576 C581 1.425 . S
C576 C583 1.409 . S
C577 H569 0.930 . S
C577 C575 1.419 . S
C577 C578 1.362 . S
C578 H570 0.930 . S
C578 C577 1.362 . S
C578 C581 1.409 . S
C579 H571 0.930 . S
C579 C580 1.355 . S
C579 C581 1.415 . S
C580 C579 1.355 . S
C580 C582 1.419 . S
C581 C576 1.425 . S
C581 C578 1.409 . S
C581 C579 1.415 . S
C582 H572 0.930 . S
C582 C580 1.419 . S
C582 C583 1.362 . S
C583 H573 0.930 . S
C583 C576 1.409 . S
C583 C582 1.362 . S
H584 C590 0.930 . S
H585 C593 0.930 . S
H586 C594 0.930 . S
H587 C595 0.930 . S
H588 C598 0.930 . S
H589 C599 0.930 . S
C590 H584 0.930 . S
C590 C591 1.355 . S
C590 C592 1.415 . S
C591 C590 1.355 . S
C591 C593 1.419 . S
C592 C590 1.415 . S
C592 C597 1.425 . S
C592 C599 1.409 . S
C593 H585 0.930 . S
C593 C591 1.419 . S
C593 C594 1.362 . S
C594 H586 0.930 . S
C594 C593 1.362 . S
C594 C597 1.409 . S
C595 H587 0.930 . S
C595 C596 1.355 . S
C595 C597 1.415 . S
C596 C595 1.355 . S
C596 C598 1.419 . S
C597 C592 1.425 . S
C597 C594 1.409 . S
C597 C595 1.415 . S
C598 H588 0.930 . S
C598 C596 1.419 . S
C598 C599 1.362 . S
C599 H589 0.930 . S
C599 C592 1.409 . S
C599 C598 1.362 . S
H600 C606 0.930 . S
H601 C609 0.930 . S
H602 C610 0.930 . S
H603 C611 0.930 . S
H604 C614 0.930 . S
H605 C615 0.930 . S
C606 H600 0.930 . S
C606 C607 1.355 . S
C606 C608 1.415 . S
C607 C606 1.355 . S
C607 C609 1.419 . S
C608 C606 1.415 . S
C608 C613 1.425 . S
C608 C615 1.409 . S
C609 H601 0.930 . S
C609 C607 1.419 . S
C609 C610 1.362 . S
C610 H602 0.930 . S
C610 C609 1.362 . S
C610 C613 1.409 . S
C611 H603 0.930 . S
C611 C612 1.355 . S
C611 C613 1.415 . S
C612 C611 1.355 . S
C612 C614 1.419 . S
C613 C608 1.425 . S
C613 C610 1.409 . S
C613 C611 1.415 . S
C614 H604 0.930 . S
C614 C612 1.419 . S
C614 C615 1.362 . S
C615 H605 0.930 . S
C615 C608 1.409 . S
C615 C614 1.362 . S
H616 C622 0.930 . S
H617 C625 0.930 . S
H618 C626 0.930 . S
H619 C627 0.930 . S
H620 C630 0.930 . S
H621 C631 0.930 . S
C622 H616 0.930 . S
C622 C623 1.355 . S
C622 C624 1.415 . S
C623 C622 1.355 . S
C623 C625 1.419 . S
C624 C622 1.415 . S
C624 C629 1.425 . S
C624 C631 1.409 . S
C625 H617 0.930 . S
C625 C623 1.419 . S
C625 C626 1.362 . S
C626 H618 0.930 . S
C626 C625 1.362 . S
C626 C629 1.409 . S
C627 H619 0.930 . S
C627 C628 1.355 . S
C627 C629 1.415 . S
C628 C627 1.355 . S
C628 C630 1.419 . S
C629 C624 1.425 . S
C629 C626 1.409 . S
C629 C627 1.415 . S
C630 H620 0.930 . S
C630 C628 1.419 . S
C630 C631 1.362 . S
C631 H621 0.930 . S
C631 C624 1.409 . S
C631 C630 1.362 . S
H632 C638 0.930 . S
H633 C641 0.930 . S
H634 C642 0.930 . S
H635 C643 0.930 . S
H636 C646 0.930 . S
H637 C647 0.930 . S
C638 H632 0.930 . S
C638 C639 1.355 . S
C638 C640 1.415 . S
C639 C638 1.355 . S
C639 C641 1.419 . S
C640 C638 1.415 . S
C640 C645 1.425 . S
C640 C647 1.409 . S
C641 H633 0.930 . S
C641 C639 1.419 . S
C641 C642 1.362 . S
C642 H634 0.930 . S
C642 C641 1.362 . S
C642 C645 1.409 . S
C643 H635 0.930 . S
C643 C644 1.355 . S
C643 C645 1.415 . S
C644 C643 1.355 . S
C644 C646 1.419 . S
C645 C640 1.425 . S
C645 C642 1.409 . S
C645 C643 1.415 . S
C646 H636 0.930 . S
C646 C644 1.419 . S
C646 C647 1.362 . S
C647 H637 0.930 . S
C647 C640 1.409 . S
C647 C646 1.362 . S
H648 C654 0.930 . S
H649 C657 0.930 . S
H650 C658 0.930 . S
H651 C659 0.930 . S
H652 C662 0.930 . S
H653 C663 0.930 . S
C654 H648 0.930 . S
C654 C655 1.355 . S
C654 C656 1.415 . S
C655 C654 1.355 . S
C655 C657 1.419 . S
C656 C654 1.415 . S
C656 C661 1.425 . S
C656 C663 1.409 . S
C657 H649 0.930 . S
C657 C655 1.419 . S
C657 C658 1.362 . S
C658 H650 0.930 . S
C658 C657 1.362 . S
C658 C661 1.409 . S
C659 H651 0.930 . S
C659 C660 1.355 . S
C659 C661 1.415 . S
C660 C659 1.355 . S
C660 C662 1.419 . S
C661 C656 1.425 . S
C661 C658 1.409 . S
C661 C659 1.415 . S
C662 H652 0.930 . S
C662 C660 1.419 . S
C662 C663 1.362 . S
C663 H653 0.930 . S
C663 C656 1.409 . S
C663 C662 1.362 . S
H664 C670 0.930 . S
H665 C673 0.930 . S
H666 C674 0.930 . S
H667 C675 0.930 . S
H668 C678 0.930 . S
H669 C679 0.930 . S
C670 H664 0.930 . S
C670 C671 1.355 . S
C670 C672 1.415 . S
C671 C670 1.355 . S
C671 C673 1.419 . S
C672 C670 1.415 . S
C672 C677 1.425 . S
C672 C679 1.409 . S
C673 H665 0.930 . S
C673 C671 1.419 . S
C673 C674 1.362 . S
C674 H666 0.930 . S
C674 C673 1.362 . S
C674 C677 1.409 . S
C675 H667 0.930 . S
C675 C676 1.355 . S
C675 C677 1.415 . S
C676 C675 1.355 . S
C676 C678 1.419 . S
C677 C672 1.425 . S
C677 C674 1.409 . S
C677 C675 1.415 . S
C678 H668 0.930 . S
C678 C676 1.419 . S
C678 C679 1.362 . S
C679 H669 0.930 . S
C679 C672 1.409 . S
C679 C678 1.362 . S
H680 C686 0.930 . S
H681 C689 0.930 . S
H682 C690 0.930 . S
H683 C691 0.930 . S
H684 C694 0.930 . S
H685 C695 0.930 . S
C686 H680 0.930 . S
C686 C687 1.355 . S
C686 C688 1.415 . S
C687 C686 1.355 . S
C687 C689 1.419 . S
C688 C686 1.415 . S
C688 C693 1.425 . S
C688 C695 1.409 . S
C689 H681 0.930 . S
C689 C687 1.419 . S
C689 C690 1.362 . S
C690 H682 0.930 . S
C690 C689 1.362 . S
C690 C693 1.409 . S
C691 H683 0.930 . S
C691 C692 1.355 . S
C691 C693 1.415 . S
C692 C691 1.355 . S
C692 C694 1.419 . S
C693 C688 1.425 . S
C693 C690 1.409 . S
C693 C691 1.415 . S
C694 H684 0.930 . S
C694 C692 1.419 . S
C694 C695 1.362 . S
C695 H685 0.930 . S
C695 C688 1.409 . S
C695 C694 1.362 . S
H696 C702 0.930 . S
H697 C705 0.930 . S
H698 C706 0.930 . S
H699 C707 0.930 . S
H700 C710 0.930 . S
H701 C711 0.930 . S
C702 H696 0.930 . S
C702 C703 1.355 . S
C702 C704 1.415 . S
C703 C702 1.355 . S
C703 C705 1.419 . S
C704 C702 1.415 . S
C704 C709 1.425 . S
C704 C711 1.409 . S
C705 H697 0.930 . S
C705 C703 1.419 . S
C705 C706 1.362 . S
C706 H698 0.930 . S
C706 C705 1.362 . S
C706 C709 1.409 . S
C707 H699 0.930 . S
C707 C708 1.355 . S
C707 C709 1.415 . S
C708 C707 1.355 . S
C708 C710 1.419 . S
C709 C704 1.425 . S
C709 C706 1.409 . S
C709 C707 1.415 . S
C710 H700 0.930 . S
C710 C708 1.419 . S
C710 C711 1.362 . S
C711 H701 0.930 . S
C711 C704 1.409 . S
C711 C710 1.362 . S
H712 C718 0.930 . S
H713 C721 0.930 . S
H714 C722 0.930 . S
H715 C723 0.930 . S
H716 C726 0.930 . S
H717 C727 0.930 . S
C718 H712 0.930 . S
C718 C719 1.355 . S
C718 C720 1.415 . S
C719 C718 1.355 . S
C719 C721 1.419 . S
C720 C718 1.415 . S
C720 C725 1.425 . S
C720 C727 1.409 . S
C721 H713 0.930 . S
C721 C719 1.419 . S
C721 C722 1.362 . S
C722 H714 0.930 . S
C722 C721 1.362 . S
C722 C725 1.409 . S
C723 H715 0.930 . S
C723 C724 1.355 . S
C723 C725 1.415 . S
C724 C723 1.355 . S
C724 C726 1.419 . S
C725 C720 1.425 . S
C725 C722 1.409 . S
C725 C723 1.415 . S
C726 H716 0.930 . S
C726 C724 1.419 . S
C726 C727 1.362 . S
C727 H717 0.930 . S
C727 C720 1.409 . S
C727 C726 1.362 . S
H728 C734 0.930 . S
H729 C737 0.930 . S
H730 C738 0.930 . S
H731 C739 0.930 . S
H732 C742 0.930 . S
H733 C743 0.930 . S
C734 H728 0.930 . S
C734 C735 1.355 . S
C734 C736 1.415 . S
C735 C734 1.355 . S
C735 C737 1.419 . S
C736 C734 1.415 . S
C736 C741 1.425 . S
C736 C743 1.409 . S
C737 H729 0.930 . S
C737 C735 1.419 . S
C737 C738 1.362 . S
C738 H730 0.930 . S
C738 C737 1.362 . S
C738 C741 1.409 . S
C739 H731 0.930 . S
C739 C740 1.355 . S
C739 C741 1.415 . S
C740 C739 1.355 . S
C740 C742 1.419 . S
C741 C736 1.425 . S
C741 C738 1.409 . S
C741 C739 1.415 . S
C742 H732 0.930 . S
C742 C740 1.419 . S
C742 C743 1.362 . S
C743 H733 0.930 . S
C743 C736 1.409 . S
C743 C742 1.362 . S
H744 C750 0.930 . S
H745 C753 0.930 . S
H746 C754 0.930 . S
H747 C755 0.930 . S
H748 C758 0.930 . S
H749 C759 0.930 . S
C750 H744 0.930 . S
C750 C751 1.355 . S
C750 C752 1.415 . S
C751 C750 1.355 . S
C751 C753 1.419 . S
C752 C750 1.415 . S
C752 C757 1.425 . S
C752 C759 1.409 . S
C753 H745 0.930 . S
C753 C751 1.419 . S
C753 C754 1.362 . S
C754 H746 0.930 . S
C754 C753 1.362 . S
C754 C757 1.409 . S
C755 H747 0.930 . S
C755 C756 1.355 . S
C755 C757 1.415 . S
C756 C755 1.355 . S
C756 C758 1.419 . S
C757 C752 1.425 . S
C757 C754 1.409 . S
C757 C755 1.415 . S
C758 H748 0.930 . S
C758 C756 1.419 . S
C758 C759 1.362 . S
C759 H749 0.930 . S
C759 C752 1.409 . S
C759 C758 1.362 . S
H760 C766 0.930 . S
H761 C769 0.930 . S
H762 C770 0.930 . S
H763 C771 0.930 . S
H764 C774 0.930 . S
H765 C775 0.930 . S
C766 H760 0.930 . S
C766 C767 1.355 . S
C766 C768 1.415 . S
C767 C766 1.355 . S
C767 C769 1.419 . S
C768 C766 1.415 . S
C768 C773 1.425 . S
C768 C775 1.409 . S
C769 H761 0.930 . S
C769 C767 1.419 . S
C769 C770 1.362 . S
C770 H762 0.930 . S
C770 C769 1.362 . S
C770 C773 1.409 . S
C771 H763 0.930 . S
C771 C772 1.355 . S
C771 C773 1.415 . S
C772 C771 1.355 . S
C772 C774 1.419 . S
C773 C768 1.425 . S
C773 C770 1.409 . S
C773 C771 1.415 . S
C774 H764 0.930 . S
C774 C772 1.419 . S
C774 C775 1.362 . S
C775 H765 0.930 . S
C775 C768 1.409 . S
C775 C774 1.362 . S
H776 C782 0.930 . S
H777 C785 0.930 . S
H778 C786 0.930 . S
H779 C787 0.930 . S
H780 C790 0.930 . S
H781 C791 0.930 . S
C782 H776 0.930 . S
C782 C783 1.355 . S
C782 C784 1.415 . S
C783 C782 1.355 . S
C783 C785 1.419 . S
C784 C782 1.415 . S
C784 C789 1.425 . S
C784 C791 1.409 . S
C785 H777 0.930 . S
C785 C783 1.419 . S
C785 C786 1.362 . S
C786 H778 0.930 . S
C786 C785 1.362 . S
C786 C789 1.409 . S
C787 H779 0.930 . S
C787 C788 1.355 . S
C787 C789 1.415 . S
C788 C787 1.355 . S
C788 C790 1.419 . S
C789 C784 1.425 . S
C789 C786 1.409 . S
C789 C787 1.415 . S
C790 H780 0.930 . S
C790 C788 1.419 . S
C790 C791 1.362 . S
C791 H781 0.930 . S
C791 C784 1.409 . S
C791 C790 1.362 . S
H792 C798 0.930 . S
H793 C801 0.930 . S
H794 C802 0.930 . S
H795 C803 0.930 . S
H796 C806 0.930 . S
H797 C807 0.930 . S
C798 H792 0.930 . S
C798 C799 1.355 . S
C798 C800 1.415 . S
C799 C798 1.355 . S
C799 C801 1.419 . S
C800 C798 1.415 . S
C800 C805 1.425 . S
C800 C807 1.409 . S
C801 H793 0.930 . S
C801 C799 1.419 . S
C801 C802 1.362 . S
C802 H794 0.930 . S
C802 C801 1.362 . S
C802 C805 1.409 . S
C803 H795 0.930 . S
C803 C804 1.355 . S
C803 C805 1.415 . S
C804 C803 1.355 . S
C804 C806 1.419 . S
C805 C800 1.425 . S
C805 C802 1.409 . S
C805 C803 1.415 . S
C806 H796 0.930 . S
C806 C804 1.419 . S
C806 C807 1.362 . S
C807 H797 0.930 . S
C807 C800 1.409 . S
C807 C806 1.362 . S
H808 C814 0.930 . S
H809 C817 0.930 . S
H810 C818 0.930 . S
H811 C819 0.930 . S
H812 C822 0.930 . S
H813 C823 0.930 . S
C814 H808 0.930 . S
C814 C815 1.355 . S
C814 C816 1.415 . S
C815 C814 1.355 . S
C815 C817 1.419 . S
C816 C814 1.415 . S
C816 C821 1.425 . S
C816 C823 1.409 . S
C817 H809 0.930 . S
C817 C815 1.419 . S
C817 C818 1.362 . S
C818 H810 0.930 . S
C818 C817 1.362 . S
C818 C821 1.409 . S
C819 H811 0.930 . S
C819 C820 1.355 . S
C819 C821 1.415 . S
C820 C819 1.355 . S
C820 C822 1.419 . S
C821 C816 1.425 . S
C821 C818 1.409 . S
C821 C819 1.415 . S
C822 H812 0.930 . S
C822 C820 1.419 . S
C822 C823 1.362 . S
C823 H813 0.930 . S
C823 C816 1.409 . S
C823 C822 1.362 . S
H824 C830 0.930 . S
H825 C833 0.930 . S
H826 C834 0.930 . S
H827 C835 0.930 . S
H828 C838 0.930 . S
H829 C839 0.930 . S
C830 H824 0.930 . S
C830 C831 1.355 . S
C830 C832 1.415 . S
C831 C830 1.355 . S
C831 C833 1.419 . S
C832 C830 1.415 . S
C832 C837 1.425 . S
C832 C839 1.409 . S
C833 H825 0.930 . S
C833 C831 1.419 . S
C833 C834 1.362 . S
C834 H826 0.930 . S
C834 C833 1.362 . S
C834 C837 1.409 . S
C835 H827 0.930 . S
C835 C836 1.355 . S
C835 C837 1.415 . S
C836 C835 1.355 . S
C836 C838 1.419 . S
C837 C832 1.425 . S
C837 C834 1.409 . S
C837 C835 1.415 . S
C838 H828 0.930 . S
C838 C836 1.419 . S
C838 C839 1.362 . S
C839 H829 0.930 . S
C839 C832 1.409 . S
C839 C838 1.362 . S
H840 C846 0.930 . S
H841 C849 0.930 . S
H842 C850 0.930 . S
H843 C851 0.930 . S
H844 C854 0.930 . S
H845 C855 0.930 . S
C846 H840 0.930 . S
C846 C847 1.355 . S
C846 C848 1.415 . S
C847 C846 1.355 . S
C847 C849 1.419 . S
C848 C846 1.415 . S
C848 C853 1.425 . S
C848 C855 1.409 . S
C849 H841 0.930 . S
C849 C847 1.419 . S
C849 C850 1.362 . S
C850 H842 0.930 . S
C850 C849 1.362 . S
C850 C853 1.409 . S
C851 H843 0.930 . S
C851 C852 1.355 . S
C851 C853 1.415 . S
C852 C851 1.355 . S
C852 C854 1.419 . S
C853 C848 1.425 . S
C853 C850 1.409 . S
C853 C851 1.415 . S
C854 H844 0.930 . S
C854 C852 1.419 . S
C854 C855 1.362 . S
C855 H845 0.930 . S
C855 C848 1.409 . S
C855 C854 1.362 . S
H856 C862 0.930 . S
H857 C865 0.930 . S
H858 C866 0.930 . S
H859 C867 0.930 . S
H860 C870 0.930 . S
H861 C871 0.930 . S
C862 H856 0.930 . S
C862 C863 1.355 . S
C862 C864 1.415 . S
C863 C862 1.355 . S
C863 C865 1.419 . S
C864 C862 1.415 . S
C864 C869 1.425 . S
C864 C871 1.409 . S
C865 H857 0.930 . S
C865 C863 1.419 . S
C865 C866 1.362 . S
C866 H858 0.930 . S
C866 C865 1.362 . S
C866 C869 1.409 . S
C867 H859 0.930 . S
C867 C868 1.355 . S
C867 C869 1.415 . S
C868 C867 1.355 . S
C868 C870 1.419 . S
C869 C864 1.425 . S
C869 C866 1.409 . S
C869 C867 1.415 . S
C870 H860 0.930 . S
C870 C868 1.419 . S
C870 C871 1.362 . S
C871 H861 0.930 . S
C871 C864 1.409 . S
C871 C870 1.362 . S
H872 C878 0.930 . S
H873 C881 0.930 . S
H874 C882 0.930 . S
H875 C883 0.930 . S
H876 C886 0.930 . S
H877 C887 0.930 . S
C878 H872 0.930 . S
C878 C879 1.355 . S
C878 C880 1.415 . S
C879 C878 1.355 . S
C879 C881 1.419 . S
C880 C878 1.415 . S
C880 C885 1.425 . S
C880 C887 1.409 . S
C881 H873 0.930 . S
C881 C879 1.419 . S
C881 C882 1.362 . S
C882 H874 0.930 . S
C882 C881 1.362 . S
C882 C885 1.409 . S
C883 H875 0.930 . S
C883 C884 1.355 . S
C883 C885 1.415 . S
C884 C883 1.355 . S
C884 C886 1.419 . S
C885 C880 1.425 . S
C885 C882 1.409 . S
C885 C883 1.415 . S
C886 H876 0.930 . S
C886 C884 1.419 . S
C886 C887 1.362 . S
C887 H877 0.930 . S
C887 C880 1.409 . S
C887 C886 1.362 . S
H888 C894 0.930 . S
H889 C897 0.930 . S
H890 C898 0.930 . S
H891 C899 0.930 . S
H892 C902 0.930 . S
H893 C903 0.930 . S
C894 H888 0.930 . S
C894 C895 1.355 . S
C894 C896 1.415 . S
C895 C894 1.355 . S
C895 C897 1.419 . S
C896 C894 1.415 . S
C896 C901 1.425 . S
C896 C903 1.409 . S
C897 H889 0.930 . S
C897 C895 1.419 . S
C897 C898 1.362 . S
C898 H890 0.930 . S
C898 C897 1.362 . S
C898 C901 1.409 . S
C899 H891 0.930 . S
C899 C900 1.355 . S
C899 C901 1.415 . S
C900 C899 1.355 . S
C900 C902 1.419 . S
C901 C896 1.425 . S
C901 C898 1.409 . S
C901 C899 1.415 . S
C902 H892 0.930 . S
C902 C900 1.419 . S
C902 C903 1.362 . S
C903 H893 0.930 . S
C903 C896 1.409 . S
C903 C902 1.362 . S
H904 C910 0.930 . S
H905 C913 0.930 . S
H906 C914 0.930 . S
H907 C915 0.930 . S
H908 C918 0.930 . S
H909 C919 0.930 . S
C910 H904 0.930 . S
C910 C911 1.355 . S
C910 C912 1.415 . S
C911 C910 1.355 . S
C911 C913 1.419 . S
C912 C910 1.415 . S
C912 C917 1.425 . S
C912 C919 1.409 . S
C913 H905 0.930 . S
C913 C911 1.419 . S
C913 C914 1.362 . S
C914 H906 0.930 . S
C914 C913 1.362 . S
C914 C917 1.409 . S
C915 H907 0.930 . S
C915 C916 1.355 . S
C915 C917 1.415 . S
C916 C915 1.355 . S
C916 C918 1.419 . S
C917 C912 1.425 . S
C917 C914 1.409 . S
C917 C915 1.415 . S
C918 H908 0.930 . S
C918 C916 1.419 . S
C918 C919 1.362 . S
C919 H909 0.930 . S
C919 C912 1.409 . S
C919 C918 1.362 . S
H920 C926 0.930 . S
H921 C929 0.930 . S
H922 C930 0.930 . S
H923 C931 0.930 . S
H924 C934 0.930 . S
H925 C935 0.930 . S
C926 H920 0.930 . S
C926 C927 1.355 . S
C926 C928 1.415 . S
C927 C926 1.355 . S
C927 C929 1.419 . S
C928 C926 1.415 . S
C928 C933 1.425 . S
C928 C935 1.409 . S
C929 H921 0.930 . S
C929 C927 1.419 . S
C929 C930 1.362 . S
C930 H922 0.930 . S
C930 C929 1.362 . S
C930 C933 1.409 . S
C931 H923 0.930 . S
C931 C932 1.355 . S
C931 C933 1.415 . S
C932 C931 1.355 . S
C932 C934 1.419 . S
C933 C928 1.425 . S
C933 C930 1.409 . S
C933 C931 1.415 . S
C934 H924 0.930 . S
C934 C932 1.419 . S
C934 C935 1.362 . S
C935 H925 0.930 . S
C935 C928 1.409 . S
C935 C934 1.362 . S
H936 C942 0.930 . S
H937 C945 0.930 . S
H938 C946 0.930 . S
H939 C947 0.930 . S
H940 C950 0.930 . S
H941 C951 0.930 . S
C942 H936 0.930 . S
C942 C943 1.355 . S
C942 C944 1.415 . S
C943 C942 1.355 . S
C943 C945 1.419 . S
C944 C942 1.415 . S
C944 C949 1.425 . S
C944 C951 1.409 . S
C945 H937 0.930 . S
C945 C943 1.419 . S
C945 C946 1.362 . S
C946 H938 0.930 . S
C946 C945 1.362 . S
C946 C949 1.409 . S
C947 H939 0.930 . S
C947 C948 1.355 . S
C947 C949 1.415 . S
C948 C947 1.355 . S
C948 C950 1.419 . S
C949 C944 1.425 . S
C949 C946 1.409 . S
C949 C947 1.415 . S
C950 H940 0.930 . S
C950 C948 1.419 . S
C950 C951 1.362 . S
C951 H941 0.930 . S
C951 C944 1.409 . S
C951 C950 1.362 . S
H952 C958 0.930 . S
H953 C961 0.930 . S
H954 C962 0.930 . S
H955 C963 0.930 . S
H956 C966 0.930 . S
H957 C967 0.930 . S
C958 H952 0.930 . S
C958 C959 1.355 . S
C958 C960 1.415 . S
C959 C958 1.355 . S
C959 C961 1.419 . S
C960 C958 1.415 . S
C960 C965 1.425 . S
C960 C967 1.409 . S
C961 H953 0.930 . S
C961 C959 1.419 . S
C961 C962 1.362 . S
C962 H954 0.930 . S
C962 C961 1.362 . S
C962 C965 1.409 . S
C963 H955 0.930 . S
C963 C964 1.355 . S
C963 C965 1.415 . S
C964 C963 1.355 . S
C964 C966 1.419 . S
C965 C960 1.425 . S
C965 C962 1.409 . S
C965 C963 1.415 . S
C966 H956 0.930 . S
C966 C964 1.419 . S
C966 C967 1.362 . S
C967 H957 0.930 . S
C967 C960 1.409 . S
C967 C966 1.362 . S
H968 C974 0.930 . S
H969 C977 0.930 . S
H970 C978 0.930 . S
H971 C979 0.930 . S
H972 C982 0.930 . S
H973 C983 0.930 . S
C974 H968 0.930 . S
C974 C975 1.355 . S
C974 C976 1.415 . S
C975 C974 1.355 . S
C975 C977 1.419 . S
C976 C974 1.415 . S
C976 C981 1.425 . S
C976 C983 1.409 . S
C977 H969 0.930 . S
C977 C975 1.419 . S
C977 C978 1.362 . S
C978 H970 0.930 . S
C978 C977 1.362 . S
C978 C981 1.409 . S
C979 H971 0.930 . S
C979 C980 1.355 . S
C979 C981 1.415 . S
C980 C979 1.355 . S
C980 C982 1.419 . S
C981 C976 1.425 . S
C981 C978 1.409 . S
C981 C979 1.415 . S
C982 H972 0.930 . S
C982 C980 1.419 . S
C982 C983 1.362 . S
C983 H973 0.930 . S
C983 C976 1.409 . S
C983 C982 1.362 . S
H984 C990 0.930 . S
H985 C993 0.930 . S
H986 C994 0.930 . S
H987 C995 0.930 . S
H988 C998 0.930 . S
H989 C999 0.930 . S
C990 H984 0.930 . S
C990 C991 1.355 . S
C990 C992 1.415 . S
C991 C990 1.355 . S
C991 C993 1.419 . S
C992 C990 1.415 . S
C992 C997 1.425 . S
C992 C999 1.409 . S
C993 H985 0.930 . S
C993 C991 1.419 . S
C993 C994 1.362 . S
C994 H986 0.930 . S
C994 C993 1.362 . S
C994 C997 1.409 . S
C995 H987 0.930 . S
C995 C996 1.355 . S
C995 C997 1.415 . S
C996 C995 1.355 . S
C996 C998 1.419 . S
C997 C992 1.425 . S
C997 C994 1.409 . S
C997 C995 1.415 . S
C998 H988 0.930 . S
C998 C996 1.419 . S
C998 C999 1.362 . S
C999 H989 0.930 . S
C999 C992 1.409 . S
C999 C998 1.362 . S
H1000 C1006 0.930 . S
H1001 C1009 0.930 . S
H1002 C1010 0.930 . S
H1003 C1011 0.930 . S
H1004 C1014 0.930 . S
H1005 C1015 0.930 . S
C1006 H1000 0.930 . S
C1006 C1007 1.355 . S
C1006 C1008 1.415 . S
C1007 C1006 1.355 . S
C1007 C1009 1.419 . S
C1008 C1006 1.415 . S
C1008 C1013 1.425 . S
C1008 C1015 1.409 . S
C1009 H1001 0.930 . S
C1009 C1007 1.419 . S
C1009 C1010 1.362 . S
C1010 H1002 0.930 . S
C1010 C1009 1.362 . S
C1010 C1013 1.409 . S
C1011 H1003 0.930 . S
C1011 C1012 1.355 . S
C1011 C1013 1.415 . S
C1012 C1011 1.355 . S
C1012 C1014 1.419 . S
C1013 C1008 1.425 . S
C1013 C1010 1.409 . S
C1013 C1011 1.415 . S
C1014 H1004 0.930 . S
C1014 C1012 1.419 . S
C1014 C1015 1.362 . S
C1015 H1005 0.930 . S
C1015 C1008 1.409 . S
C1015 C1014 1.362 . S
H1016 C1022 0.930 . S
H1017 C1025 0.930 . S
H1018 C1026 0.930 . S
H1019 C1027 0.930 . S
H1020 C1030 0.930 . S
H1021 C1031 0.930 . S
C1022 H1016 0.930 . S
C1022 C1023 1.355 . S
C1022 C1024 1.415 . S
C1023 C1022 1.355 . S
C1023 C1025 1.419 . S
C1024 C1022 1.415 . S
C1024 C1029 1.425 . S
C1024 C1031 1.409 . S
C1025 H1017 0.930 . S
C1025 C1023 1.419 . S
C1025 C1026 1.362 . S
C1026 H1018 0.930 . S
C1026 C1025 1.362 . S
C1026 C1029 1.409 . S
C1027 H1019 0.930 . S
C1027 C1028 1.355 . S
C1027 C1029 1.415 . S
C1028 C1027 1.355 . S
C1028 C1030 1.419 . S
C1029 C1024 1.425 . S
C1029 C1026 1.409 . S
C1029 C1027 1.415 . S
C1030 H1020 0.930 . S
C1030 C1028 1.419 . S
C1030 C1031 1.362 . S
C1031 H1021 0.930 . S
C1031 C1024 1.409 . S
C1031 C1030 1.362 . S
H1032 C1038 0.930 . S
H1033 C1041 0.930 . S
H1034 C1042 0.930 . S
H1035 C1043 0.930 . S
H1036 C1046 0.930 . S
H1037 C1047 0.930 . S
C1038 H1032 0.930 . S
C1038 C1039 1.355 . S
C1038 C1040 1.415 . S
C1039 C1038 1.355 . S
C1039 C1041 1.419 . S
C1040 C1038 1.415 . S
C1040 C1045 1.425 . S
C1040 C1047 1.409 . S
C1041 H1033 0.930 . S
C1041 C1039 1.419 . S
C1041 C1042 1.362 . S
C1042 H1034 0.930 . S
C1042 C1041 1.362 . S
C1042 C1045 1.409 . S
C1043 H1035 0.930 . S
C1043 C1044 1.355 . S
C1043 C1045 1.415 . S
C1044 C1043 1.355 . S
C1044 C1046 1.419 . S
C1045 C1040 1.425 . S
C1045 C1042 1.409 . S
C1045 C1043 1.415 . S
C1046 H1036 0.930 . S
C1046 C1044 1.419 . S
C1046 C1047 1.362 . S
C1047 H1037 0.930 . S
C1047 C1040 1.409 . S
C1047 C1046 1.362 . S
H1048 C1054 0.930 . S
H1049 C1057 0.930 . S
H1050 C1058 0.930 . S
H1051 C1059 0.930 . S
H1052 C1062 0.930 . S
H1053 C1063 0.930 . S
C1054 H1048 0.930 . S
C1054 C1055 1.355 . S
C1054 C1056 1.415 . S
C1055 C1054 1.355 . S
C1055 C1057 1.419 . S
C1056 C1054 1.415 . S
C1056 C1061 1.425 . S
C1056 C1063 1.409 . S
C1057 H1049 0.930 . S
C1057 C1055 1.419 . S
C1057 C1058 1.362 . S
C1058 H1050 0.930 . S
C1058 C1057 1.362 . S
C1058 C1061 1.409 . S
C1059 H1051 0.930 . S
C1059 C1060 1.355 . S
C1059 C1061 1.415 . S
C1060 C1059 1.355 . S
C1060 C1062 1.419 . S
C1061 C1056 1.425 . S
C1061 C1058 1.409 . S
C1061 C1059 1.415 . S
C1062 H1052 0.930 . S
C1062 C1060 1.419 . S
C1062 C1063 1.362 . S
C1063 H1053 0.930 . S
C1063 C1056 1.409 . S
C1063 C1062 1.362 . S
H1064 C1070 0.930 . S
H1065 C1073 0.930 . S
H1066 C1074 0.930 . S
H1067 C1075 0.930 . S
H1068 C1078 0.930 . S
H1069 C1079 0.930 . S
C1070 H1064 0.930 . S
C1070 C1071 1.355 . S
C1070 C1072 1.415 . S
C1071 C1070 1.355 . S
C1071 C1073 1.419 . S
C1072 C1070 1.415 . S
C1072 C1077 1.425 . S
C1072 C1079 1.409 . S
C1073 H1065 0.930 . S
C1073 C1071 1.419 . S
C1073 C1074 1.362 . S
C1074 H1066 0.930 . S
C1074 C1073 1.362 . S
C1074 C1077 1.409 . S
C1075 H1067 0.930 . S
C1075 C1076 1.355 . S
C1075 C1077 1.415 . S
C1076 C1075 1.355 . S
C1076 C1078 1.419 . S
C1077 C1072 1.425 . S
C1077 C1074 1.409 . S
C1077 C1075 1.415 . S
C1078 H1068 0.930 . S
C1078 C1076 1.419 . S
C1078 C1079 1.362 . S
C1079 H1069 0.930 . S
C1079 C1072 1.409 . S
C1079 C1078 1.362 . S
C319 C289 1.726 . S
C324 C3 1.725 . S
C335 C23 1.693 . S
C340 C309 1.670 . S
C351 C265 1.626 . S
C356 C29 1.708 . S
C367 C274 1.807 . S
C372 C40 1.808 . S
C383 C276 1.741 . S
C388 C55 1.741 . S
C399 C70 1.654 . S
C404 C287 1.721 . S
C415 C304 1.629 . S
C420 C81 1.731 . S
C431 C94 1.746 . S
C436 C270 1.703 . S
C447 C109 1.654 . S
C452 C252 1.670 . S
C463 C211 1.756 . S
C468 C127 1.692 . S
C479 C140 1.661 . S
C484 C226 1.671 . S
C495 C235 1.732 . S
C500 C148 1.674 . S
C511 C153 1.706 . S
C516 C172 1.761 . S
C527 C114 1.691 . S
C532 C185 1.745 . S
C543 C198 1.721 . S
C548 C122 1.627 . S
C559 C135 1.618 . S
C564 C159 1.693 . S
C575 C18 1.588 . S
C580 C237 1.693 . S
C591 C183 1.759 . S
C596 C92 1.760 . S
C607 C53 1.776 . S
C612 C196 1.776 . S
C623 C157 1.741 . S
C628 C75 1.685 . S
C639 C79 1.785 . S
C644 C170 1.785 . S
C655 C42 1.798 . S
C660 C209 1.791 . S
C671 C1 1.738 . S
C676 C231 1.665 . S
C687 C27 1.741 . S
C692 C257 1.688 . S
C703 C88 1.733 . S
C708 C261 1.660 . S
C719 C278 1.737 . S
C724 C101 1.730 . S
C735 C296 1.723 . S
C740 C62 1.723 . S
C751 C302 1.676 . S
C756 C66 1.672 . S
C767 C36 1.761 . S
C772 C300 1.691 . S
C783 C44 1.696 . S
C788 C263 1.597 . S
C799 C10 1.759 . S
C804 C283 1.759 . S
C815 C291 1.703 . S
C820 C16 1.652 . S
C831 C133 1.680 . S
C836 C179 1.744 . S
C847 C144 1.749 . S
C852 C192 1.811 . S
C863 C105 1.673 . S
C868 C205 1.739 . S
C879 C120 1.675 . S
C884 C166 1.726 . S
C895 C118 1.678 . S
C900 C248 1.693 . S
C911 C218 1.787 . S
C916 C131 1.738 . S
C927 C146 1.705 . S
C932 C222 1.698 . S
C943 C107 1.628 . S
C948 C239 1.696 . S
C959 C161 1.701 . S
C964 C96 1.698 . S
C975 C213 1.715 . S
C980 C14 1.632 . S
C991 C31 1.731 . S
C996 C224 1.628 . S
C1007 C244 1.746 . S
C1012 C49 1.746 . S
C1023 C250 1.643 . S
C1028 C5 1.739 . S
C1039 C68 1.635 . S
C1044 C187 1.731 . S
C1055 C200 1.729 . S
C1060 C83 1.729 . S
C1071 C174 1.713 . S
C1076 C57 1.715 . S
