# Generated by pormake.
# Topology ukn, (4)-cn, num edge types: 1
# Building blocks:
#     Node 0, Type 0, BuildingBlock: NAHDIM_clean_sbu_0, # of connection points: 4
#     Node 1, Type 0, BuildingBlock: NAHDIM_clean_sbu_0, # of connection points: 4
#     Node 2, Type 0, BuildingBlock: NAHDIM_clean_sbu_0, # of connection points: 4
#     Node 3, Type 0, BuildingBlock: NAHDIM_clean_sbu_0, # of connection points: 4
#     Node 4, Type 0, BuildingBlock: NAHDIM_clean_sbu_0, # of connection points: 4
#     Node 5, Type 0, BuildingBlock: NAHDIM_clean_sbu_0, # of connection points: 4
#     Node 6, Type 0, BuildingBlock: NAHDIM_clean_sbu_0, # of connection points: 4
#     Node 7, Type 0, BuildingBlock: NAHDIM_clean_sbu_0, # of connection points: 4
#     Node 8, Type 0, BuildingBlock: NAHDIM_clean_sbu_0, # of connection points: 4
#     Node 9, Type 0, BuildingBlock: NAHDIM_clean_sbu_0, # of connection points: 4
#     Node 10, Type 0, BuildingBlock: NAHDIM_clean_sbu_0, # of connection points: 4
#     Node 11, Type 0, BuildingBlock: NAHDIM_clean_sbu_0, # of connection points: 4
#     Node 12, Type 0, BuildingBlock: NAHDIM_clean_sbu_0, # of connection points: 4
#     Node 13, Type 0, BuildingBlock: NAHDIM_clean_sbu_0, # of connection points: 4
#     Node 14, Type 0, BuildingBlock: NAHDIM_clean_sbu_0, # of connection points: 4
#     Node 15, Type 0, BuildingBlock: NAHDIM_clean_sbu_0, # of connection points: 4
#     Node 16, Type 0, BuildingBlock: NAHDIM_clean_sbu_0, # of connection points: 4
#     Node 17, Type 0, BuildingBlock: NAHDIM_clean_sbu_0, # of connection points: 4
#     Node 18, Type 0, BuildingBlock: NAHDIM_clean_sbu_0, # of connection points: 4
#     Node 19, Type 0, BuildingBlock: NAHDIM_clean_sbu_0, # of connection points: 4
#     Node 20, Type 0, BuildingBlock: NAHDIM_clean_sbu_0, # of connection points: 4
#     Node 21, Type 0, BuildingBlock: NAHDIM_clean_sbu_0, # of connection points: 4
#     Node 22, Type 0, BuildingBlock: NAHDIM_clean_sbu_0, # of connection points: 4
#     Node 23, Type 0, BuildingBlock: NAHDIM_clean_sbu_0, # of connection points: 4
#     Node 24, Type 0, BuildingBlock: NAHDIM_clean_sbu_0, # of connection points: 4
#     Node 25, Type 0, BuildingBlock: NAHDIM_clean_sbu_0, # of connection points: 4
#     Node 26, Type 0, BuildingBlock: NAHDIM_clean_sbu_0, # of connection points: 4
#     Node 27, Type 0, BuildingBlock: NAHDIM_clean_sbu_0, # of connection points: 4
#     Node 28, Type 0, BuildingBlock: NAHDIM_clean_sbu_0, # of connection points: 4
#     Node 29, Type 0, BuildingBlock: NAHDIM_clean_sbu_0, # of connection points: 4
#     Node 30, Type 0, BuildingBlock: NAHDIM_clean_sbu_0, # of connection points: 4
#     Node 31, Type 0, BuildingBlock: NAHDIM_clean_sbu_0, # of connection points: 4
#     Node 32, Type 0, BuildingBlock: NAHDIM_clean_sbu_0, # of connection points: 4
#     Node 33, Type 0, BuildingBlock: NAHDIM_clean_sbu_0, # of connection points: 4
#     Node 34, Type 0, BuildingBlock: NAHDIM_clean_sbu_0, # of connection points: 4
#     Node 35, Type 0, BuildingBlock: NAHDIM_clean_sbu_0, # of connection points: 4
#     Edge 36, Type (0, 0), BuildingBlock: KIFKEQ_clean_linker_1, # of connection points: 2
#     Edge 37, Type (0, 0), BuildingBlock: KIFKEQ_clean_linker_1, # of connection points: 2
#     Edge 38, Type (0, 0), BuildingBlock: KIFKEQ_clean_linker_1, # of connection points: 2
#     Edge 39, Type (0, 0), BuildingBlock: KIFKEQ_clean_linker_1, # of connection points: 2
#     Edge 40, Type (0, 0), BuildingBlock: KIFKEQ_clean_linker_1, # of connection points: 2
#     Edge 41, Type (0, 0), BuildingBlock: KIFKEQ_clean_linker_1, # of connection points: 2
#     Edge 42, Type (0, 0), BuildingBlock: KIFKEQ_clean_linker_1, # of connection points: 2
#     Edge 43, Type (0, 0), BuildingBlock: KIFKEQ_clean_linker_1, # of connection points: 2
#     Edge 44, Type (0, 0), BuildingBlock: KIFKEQ_clean_linker_1, # of connection points: 2
#     Edge 45, Type (0, 0), BuildingBlock: KIFKEQ_clean_linker_1, # of connection points: 2
#     Edge 46, Type (0, 0), BuildingBlock: KIFKEQ_clean_linker_1, # of connection points: 2
#     Edge 47, Type (0, 0), BuildingBlock: KIFKEQ_clean_linker_1, # of connection points: 2
#     Edge 48, Type (0, 0), BuildingBlock: KIFKEQ_clean_linker_1, # of connection points: 2
#     Edge 49, Type (0, 0), BuildingBlock: KIFKEQ_clean_linker_1, # of connection points: 2
#     Edge 50, Type (0, 0), BuildingBlock: KIFKEQ_clean_linker_1, # of connection points: 2
#     Edge 51, Type (0, 0), BuildingBlock: KIFKEQ_clean_linker_1, # of connection points: 2
#     Edge 52, Type (0, 0), BuildingBlock: KIFKEQ_clean_linker_1, # of connection points: 2
#     Edge 53, Type (0, 0), BuildingBlock: KIFKEQ_clean_linker_1, # of connection points: 2
#     Edge 54, Type (0, 0), BuildingBlock: KIFKEQ_clean_linker_1, # of connection points: 2
#     Edge 55, Type (0, 0), BuildingBlock: KIFKEQ_clean_linker_1, # of connection points: 2
#     Edge 56, Type (0, 0), BuildingBlock: KIFKEQ_clean_linker_1, # of connection points: 2
#     Edge 57, Type (0, 0), BuildingBlock: KIFKEQ_clean_linker_1, # of connection points: 2
#     Edge 58, Type (0, 0), BuildingBlock: KIFKEQ_clean_linker_1, # of connection points: 2
#     Edge 59, Type (0, 0), BuildingBlock: KIFKEQ_clean_linker_1, # of connection points: 2
#     Edge 60, Type (0, 0), BuildingBlock: KIFKEQ_clean_linker_1, # of connection points: 2
#     Edge 61, Type (0, 0), BuildingBlock: KIFKEQ_clean_linker_1, # of connection points: 2
#     Edge 62, Type (0, 0), BuildingBlock: KIFKEQ_clean_linker_1, # of connection points: 2
#     Edge 63, Type (0, 0), BuildingBlock: KIFKEQ_clean_linker_1, # of connection points: 2
#     Edge 64, Type (0, 0), BuildingBlock: KIFKEQ_clean_linker_1, # of connection points: 2
#     Edge 65, Type (0, 0), BuildingBlock: KIFKEQ_clean_linker_1, # of connection points: 2
#     Edge 66, Type (0, 0), BuildingBlock: KIFKEQ_clean_linker_1, # of connection points: 2
#     Edge 67, Type (0, 0), BuildingBlock: KIFKEQ_clean_linker_1, # of connection points: 2
#     Edge 68, Type (0, 0), BuildingBlock: KIFKEQ_clean_linker_1, # of connection points: 2
#     Edge 69, Type (0, 0), BuildingBlock: KIFKEQ_clean_linker_1, # of connection points: 2
#     Edge 70, Type (0, 0), BuildingBlock: KIFKEQ_clean_linker_1, # of connection points: 2
#     Edge 71, Type (0, 0), BuildingBlock: KIFKEQ_clean_linker_1, # of connection points: 2
#     Edge 72, Type (0, 0), BuildingBlock: KIFKEQ_clean_linker_1, # of connection points: 2
#     Edge 73, Type (0, 0), BuildingBlock: KIFKEQ_clean_linker_1, # of connection points: 2
#     Edge 74, Type (0, 0), BuildingBlock: KIFKEQ_clean_linker_1, # of connection points: 2
#     Edge 75, Type (0, 0), BuildingBlock: KIFKEQ_clean_linker_1, # of connection points: 2
#     Edge 76, Type (0, 0), BuildingBlock: KIFKEQ_clean_linker_1, # of connection points: 2
#     Edge 77, Type (0, 0), BuildingBlock: KIFKEQ_clean_linker_1, # of connection points: 2
#     Edge 78, Type (0, 0), BuildingBlock: KIFKEQ_clean_linker_1, # of connection points: 2
#     Edge 79, Type (0, 0), BuildingBlock: KIFKEQ_clean_linker_1, # of connection points: 2
#     Edge 80, Type (0, 0), BuildingBlock: KIFKEQ_clean_linker_1, # of connection points: 2
#     Edge 81, Type (0, 0), BuildingBlock: KIFKEQ_clean_linker_1, # of connection points: 2
#     Edge 82, Type (0, 0), BuildingBlock: KIFKEQ_clean_linker_1, # of connection points: 2
#     Edge 83, Type (0, 0), BuildingBlock: KIFKEQ_clean_linker_1, # of connection points: 2
#     Edge 84, Type (0, 0), BuildingBlock: KIFKEQ_clean_linker_1, # of connection points: 2
#     Edge 85, Type (0, 0), BuildingBlock: KIFKEQ_clean_linker_1, # of connection points: 2
#     Edge 86, Type (0, 0), BuildingBlock: KIFKEQ_clean_linker_1, # of connection points: 2
#     Edge 87, Type (0, 0), BuildingBlock: KIFKEQ_clean_linker_1, # of connection points: 2
#     Edge 88, Type (0, 0), BuildingBlock: KIFKEQ_clean_linker_1, # of connection points: 2
#     Edge 89, Type (0, 0), BuildingBlock: KIFKEQ_clean_linker_1, # of connection points: 2
#     Edge 90, Type (0, 0), BuildingBlock: KIFKEQ_clean_linker_1, # of connection points: 2
#     Edge 91, Type (0, 0), BuildingBlock: KIFKEQ_clean_linker_1, # of connection points: 2
#     Edge 92, Type (0, 0), BuildingBlock: KIFKEQ_clean_linker_1, # of connection points: 2
#     Edge 93, Type (0, 0), BuildingBlock: KIFKEQ_clean_linker_1, # of connection points: 2
#     Edge 94, Type (0, 0), BuildingBlock: KIFKEQ_clean_linker_1, # of connection points: 2
#     Edge 95, Type (0, 0), BuildingBlock: KIFKEQ_clean_linker_1, # of connection points: 2
#     Edge 96, Type (0, 0), BuildingBlock: KIFKEQ_clean_linker_1, # of connection points: 2
#     Edge 97, Type (0, 0), BuildingBlock: KIFKEQ_clean_linker_1, # of connection points: 2
#     Edge 98, Type (0, 0), BuildingBlock: KIFKEQ_clean_linker_1, # of connection points: 2
#     Edge 99, Type (0, 0), BuildingBlock: KIFKEQ_clean_linker_1, # of connection points: 2
#     Edge 100, Type (0, 0), BuildingBlock: KIFKEQ_clean_linker_1, # of connection points: 2
#     Edge 101, Type (0, 0), BuildingBlock: KIFKEQ_clean_linker_1, # of connection points: 2
#     Edge 102, Type (0, 0), BuildingBlock: KIFKEQ_clean_linker_1, # of connection points: 2
#     Edge 103, Type (0, 0), BuildingBlock: KIFKEQ_clean_linker_1, # of connection points: 2
#     Edge 104, Type (0, 0), BuildingBlock: KIFKEQ_clean_linker_1, # of connection points: 2
#     Edge 105, Type (0, 0), BuildingBlock: KIFKEQ_clean_linker_1, # of connection points: 2
#     Edge 106, Type (0, 0), BuildingBlock: KIFKEQ_clean_linker_1, # of connection points: 2
#     Edge 107, Type (0, 0), BuildingBlock: KIFKEQ_clean_linker_1, # of connection points: 2
# Relax obj value: 0.143
# Max RMSD: 0.134
# Mean RMSD: 0.134
data_MOF--net-ukn--node1-NAHDIM_clean_sbu_0--edge1-KIFKEQ_clean_linker_1
_symmetry_space_group_name_H-M    P1
_symmetry_Int_Tables_number       1
_symmetry_cell_setting            triclinic
loop_
_symmetry_equiv_pos_as_xyz
'x, y, z'
_cell_length_a     111.22555
_cell_length_b     111.2438
_cell_length_c     24.428347
_cell_angle_alpha  89.983592
_cell_angle_beta   89.995758
_cell_angle_gamma 119.99964
loop_
_atom_site_label
_atom_site_type_symbol
_atom_site_fract_x
_atom_site_fract_y
_atom_site_fract_z
_atom_type_partial_charge
C0 C 0.04801 0.26429 0.06411 0.0
O1 O 0.05414 0.25711 0.07555 0.0
O2 O 0.07848 0.30072 0.14732 0.0
Zn3 Zn 0.07543 0.28964 0.07827 0.0
O4 O 0.08306 0.30273 0.01422 0.0
C5 C 0.0866 0.27331 0.12678 0.0
O6 O 0.07987 0.27345 0.17076 0.0
O7 O 0.05501 0.27747 0.06446 0.0
C8 C 0.09508 0.30688 0.99439 0.0
O9 O 0.10316 0.30281 0.01704 0.0
C10 C 0.09079 0.30874 0.16402 0.0
O11 O 0.10123 0.30951 0.13593 0.0
O12 O 0.08558 0.27895 0.08313 0.0
C13 C 0.72225 0.77033 0.04348 0.0
O14 O 0.7094 0.76233 0.05994 0.0
O15 O 0.7048 0.78275 0.1355 0.0
Zn16 Zn 0.71432 0.79042 0.0632 0.0
O17 O 0.69996 0.78437 0.00356 0.0
C18 C 0.73102 0.81863 0.10559 0.0
O19 O 0.7326 0.8126 0.14908 0.0
O20 O 0.72727 0.7834 0.04339 0.0
C21 C 0.68811 0.77344 0.00578 0.0
O22 O 0.68471 0.76545 0.04929 0.0
C23 C 0.69622 0.78638 0.15161 0.0
O24 O 0.69428 0.79503 0.12129 0.0
O25 O 0.72417 0.81122 0.06501 0.0
C26 C 0.22414 0.95551 0.10365 0.0
O27 O 0.22752 0.95199 0.15004 0.0
O28 O 0.21639 0.92244 0.15411 0.0
Zn29 Zn 0.20862 0.92572 0.08449 0.0
O30 O 0.21411 0.91842 0.01958 0.0
C31 C 0.18124 0.91059 0.13304 0.0
O32 O 0.18827 0.91331 0.17897 0.0
O33 O 0.21596 0.94606 0.07101 0.0
C34 C 0.208 0.90555 0.00818 0.0
O35 O 0.19809 0.8967 0.0406 0.0
C36 C 0.22655 0.92023 0.15534 0.0
O37 O 0.23273 0.92036 0.10935 0.0
O38 O 0.18775 0.91533 0.0883 0.0
C39 C 0.28051 0.05389 0.96837 0.0
O40 O 0.29391 0.06031 0.97815 0.0
O41 O 0.29933 0.08322 0.8593 0.0
Zn42 Zn 0.28867 0.08076 0.92946 0.0
O43 O 0.30126 0.08843 0.99498 0.0
C44 C 0.27236 0.09203 0.88113 0.0
O45 O 0.27161 0.08461 0.83805 0.0
O46 O 0.27538 0.06053 0.94497 0.0
C47 C 0.31322 0.0992 0.99623 0.0
O48 O 0.31859 0.10632 0.95109 0.0
C49 C 0.31024 0.0823 0.85556 0.0
O50 O 0.31512 0.07939 0.89948 0.0
O51 O 0.27863 0.09149 0.9237 0.0
C52 C 0.94766 0.21999 0.94834 0.0
O53 O 0.94116 0.22697 0.95631 0.0
O54 O 0.92016 0.21061 0.83556 0.0
Zn55 Zn 0.92124 0.20146 0.90539 0.0
O56 O 0.91267 0.20656 0.96716 0.0
C57 C 0.90378 0.17466 0.85452 0.0
O58 O 0.90511 0.18224 0.81122 0.0
O59 O 0.94122 0.2082 0.92507 0.0
C60 C 0.91201 0.20152 0.01449 0.0
O61 O 0.91664 0.19284 0.02152 0.0
C62 C 0.91851 0.22113 0.83557 0.0
O63 O 0.91786 0.22654 0.88249 0.0
O64 O 0.91025 0.18062 0.89814 0.0
C65 C 0.77093 0.72328 0.87782 0.0
O66 O 0.76308 0.71094 0.8563 0.0
O67 O 0.78298 0.70361 0.80193 0.0
Zn68 Zn 0.79061 0.71407 0.87297 0.0
O69 O 0.7843 0.70081 0.93665 0.0
C70 C 0.81846 0.72349 0.83234 0.0
O71 O 0.81188 0.71705 0.78748 0.0
O72 O 0.78365 0.72737 0.88692 0.0
C73 C 0.79024 0.69392 0.94866 0.0
O74 O 0.8004 0.69509 0.91755 0.0
C75 C 0.77284 0.69122 0.80035 0.0
O76 O 0.7668 0.68498 0.84628 0.0
O77 O 0.81153 0.72405 0.87267 0.0
C78 C 0.94975 0.73275 0.9459 0.0
O79 O 0.94734 0.72874 0.89454 0.0
O80 O 0.91997 0.70189 0.89448 0.0
Zn81 Zn 0.92044 0.71261 0.96182 0.0
O82 O 0.91344 0.69941 0.02562 0.0
C83 C 0.90779 0.72641 0.90572 0.0
O84 O 0.91659 0.72795 0.86672 0.0
O85 O 0.93983 0.72752 0.98012 0.0
C86 C 0.90104 0.69382 0.04331 0.0
O87 O 0.89219 0.69667 0.01931 0.0
C88 C 0.9081 0.69253 0.878 0.0
O89 O 0.89703 0.6905 0.90504 0.0
O90 O 0.90796 0.7206 0.95027 0.0
C91 C 0.26984 0.22482 0.92611 0.0
O92 O 0.28303 0.23277 0.91378 0.0
O93 O 0.28933 0.21405 0.84208 0.0
Zn94 Zn 0.27803 0.20496 0.91001 0.0
O95 O 0.29088 0.21061 0.97505 0.0
C96 C 0.26646 0.17789 0.85761 0.0
O97 O 0.27014 0.18514 0.81205 0.0
O98 O 0.26466 0.21173 0.92519 0.0
C99 C 0.29504 0.20287 0.99602 0.0
O100 O 0.29115 0.19069 0.97405 0.0
C101 C 0.2994 0.21216 0.8303 0.0
O102 O 0.3021 0.20436 0.86261 0.0
O103 O 0.26822 0.18413 0.90305 0.0
C104 C 0.76866 0.04534 0.96348 0.0
O105 O 0.75984 0.04989 0.95955 0.0
O106 O 0.77866 0.07574 0.87058 0.0
Zn107 Zn 0.78735 0.07373 0.93994 0.0
O108 O 0.78162 0.08126 0.00362 0.0
C109 C 0.81472 0.08603 0.8902 0.0
O110 O 0.80794 0.07829 0.84796 0.0
O111 O 0.78147 0.05376 0.95516 0.0
C112 C 0.77068 0.08218 0.00359 0.0
O113 O 0.7625 0.07794 0.96057 0.0
C114 C 0.78234 0.08802 0.85515 0.0
O115 O 0.79152 0.09851 0.88451 0.0
O116 O 0.80808 0.08532 0.93355 0.0
C117 C 0.73312 0.94609 0.07967 0.0
O118 O 0.73982 0.94259 0.11459 0.0
O119 O 0.70035 0.91117 0.14336 0.0
Zn120 Zn 0.71184 0.9163 0.07453 0.0
O121 O 0.69891 0.9071 0.01135 0.0
C122 C 0.72806 0.90542 0.12358 0.0
O123 O 0.72373 0.90821 0.16931 0.0
O124 O 0.72164 0.93678 0.05992 0.0
C125 C 0.69053 0.91122 0.99796 0.0
O126 O 0.69046 0.92121 0.02637 0.0
C127 C 0.69605 0.91856 0.16642 0.0
O128 O 0.69934 0.9307 0.14552 0.0
O129 O 0.7249 0.90871 0.07819 0.0
C130 C 0.04806 0.78127 0.08048 0.0
O131 O 0.05083 0.77573 0.12266 0.0
O132 O 0.08027 0.78643 0.13147 0.0
Zn133 Zn 0.07782 0.79484 0.06194 0.0
O134 O 0.08347 0.78827 0.99532 0.0
C135 C 0.09112 0.82276 0.10674 0.0
O136 O 0.08296 0.81679 0.14899 0.0
O137 O 0.05797 0.78996 0.05066 0.0
C138 C 0.09533 0.78934 0.99012 0.0
O139 O 0.10421 0.79432 0.03086 0.0
C140 C 0.07996 0.77486 0.13364 0.0
O141 O 0.07773 0.76759 0.08859 0.0
O142 O 0.09031 0.81545 0.06549 0.0
C143 C 0.22083 0.27214 0.08706 0.0
O144 O 0.22872 0.28514 0.10196 0.0
O145 O 0.20997 0.29102 0.17308 0.0
Zn146 Zn 0.20098 0.2803 0.10366 0.0
O147 O 0.20649 0.29347 0.04006 0.0
C148 C 0.17409 0.27053 0.15433 0.0
O149 O 0.18159 0.27591 0.1986 0.0
O150 O 0.20775 0.26701 0.08636 0.0
C151 C 0.20276 0.28874 0.99193 0.0
O152 O 0.19514 0.27525 0.98485 0.0
C153 C 0.21863 0.30398 0.17246 0.0
O154 O 0.2221 0.31058 0.12541 0.0
O155 O 0.18011 0.27065 0.10989 0.0
C156 C 0.71512 0.59711 0.39134 0.0
O157 O 0.71767 0.60215 0.4413 0.0
O158 O 0.74588 0.62685 0.44171 0.0
Zn159 Zn 0.74459 0.6163 0.37265 0.0
O160 O 0.75107 0.62906 0.30748 0.0
C161 C 0.75682 0.60212 0.42654 0.0
O162 O 0.74795 0.60067 0.46508 0.0
O163 O 0.72501 0.6014 0.35709 0.0
C164 C 0.76378 0.63646 0.29441 0.0
O165 O 0.77329 0.63613 0.32521 0.0
C166 C 0.74763 0.63905 0.44236 0.0
O167 O 0.74816 0.64522 0.39583 0.0
O168 O 0.75692 0.6081 0.38207 0.0
C169 C 0.39484 0.10826 0.40163 0.0
O170 O 0.38124 0.10057 0.40001 0.0
O171 O 0.37521 0.11848 0.49759 0.0
Zn172 Zn 0.38653 0.12737 0.42927 0.0
O173 O 0.3745 0.12214 0.36205 0.0
C174 C 0.39613 0.15428 0.47957 0.0
O175 O 0.39084 0.14687 0.52415 0.0
O176 O 0.40022 0.12089 0.41602 0.0
C177 C 0.36497 0.1251 0.35482 0.0
O178 O 0.36217 0.13144 0.39389 0.0
C179 C 0.36274 0.10849 0.49789 0.0
O180 O 0.35655 0.10302 0.45123 0.0
O181 O 0.39601 0.14819 0.43537 0.0
C182 C 0.89839 0.28322 0.37239 0.0
O183 O 0.90576 0.27702 0.36762 0.0
O184 O 0.88635 0.25338 0.4759 0.0
Zn185 Zn 0.87896 0.25598 0.4041 0.0
O186 O 0.88519 0.24845 0.3423 0.0
C187 C 0.85101 0.24409 0.44772 0.0
O188 O 0.8573 0.25169 0.49092 0.0
O189 O 0.88594 0.27622 0.38929 0.0
C190 C 0.88079 0.23554 0.33756 0.0
O191 O 0.87215 0.22695 0.37437 0.0
C192 C 0.89707 0.2521 0.47887 0.0
O193 O 0.90393 0.25292 0.43392 0.0
O194 O 0.85816 0.24484 0.40596 0.0
C195 C 0.94229 0.38312 0.25125 0.0
O196 O 0.95573 0.39114 0.25799 0.0
O197 O 0.95718 0.41011 0.13574 0.0
Zn198 Zn 0.94673 0.40823 0.20586 0.0
O199 O 0.96026 0.41842 0.26658 0.0
C200 C 0.93632 0.42498 0.15777 0.0
O201 O 0.94446 0.42587 0.11714 0.0
O202 O 0.93551 0.38809 0.22788 0.0
C203 C 0.95566 0.41976 0.31243 0.0
O204 O 0.94224 0.41471 0.31839 0.0
C205 C 0.9698 0.41307 0.13571 0.0
O206 O 0.97618 0.4146 0.18262 0.0
O207 O 0.93496 0.41727 0.19843 0.0
C208 C 0.61706 0.55069 0.25713 0.0
O209 O 0.61476 0.55588 0.21265 0.0
O210 O 0.58631 0.54935 0.20789 0.0
Zn211 Zn 0.58778 0.54025 0.27735 0.0
O212 O 0.58297 0.54759 0.34397 0.0
C213 C 0.57269 0.51152 0.23715 0.0
O214 O 0.58216 0.51566 0.19856 0.0
O215 O 0.60699 0.5433 0.28895 0.0
C216 C 0.57078 0.54556 0.35115 0.0
O217 O 0.56143 0.53935 0.31261 0.0
C218 C 0.58612 0.56068 0.20659 0.0
O219 O 0.5873 0.56732 0.25254 0.0
O220 O 0.57361 0.52005 0.27374 0.0
C221 C 0.45087 0.0678 0.24516 0.0
O222 O 0.4624 0.07536 0.21763 0.0
O223 O 0.44804 0.03532 0.1522 0.0
Zn224 Zn 0.45548 0.04431 0.22546 0.0
O225 O 0.45094 0.02939 0.28138 0.0
C226 C 0.4833 0.05648 0.18123 0.0
O227 O 0.4767 0.04956 0.1372 0.0
O228 O 0.44634 0.0549 0.25136 0.0
C229 C 0.45778 0.03237 0.32582 0.0
O230 O 0.46793 0.04514 0.33371 0.0
C231 C 0.43732 0.02335 0.14849 0.0
O232 O 0.43047 0.0171 0.19318 0.0
O233 O 0.47634 0.0563 0.22279 0.0
C234 C 0.61744 0.0676 0.28183 0.0
O235 O 0.61574 0.0624 0.23228 0.0
O236 O 0.5859 0.0398 0.22184 0.0
Zn237 Zn 0.58727 0.04988 0.29252 0.0
O238 O 0.57988 0.03655 0.35562 0.0
C239 C 0.57489 0.06452 0.24151 0.0
O240 O 0.58319 0.06586 0.20081 0.0
O241 O 0.60689 0.06404 0.31203 0.0
C242 C 0.56701 0.0282 0.3631 0.0
O243 O 0.55801 0.02782 0.32728 0.0
C244 C 0.58309 0.02724 0.21997 0.0
O245 O 0.58177 0.02054 0.2659 0.0
O246 O 0.57534 0.0586 0.2853 0.0
C247 C 0.93366 0.55211 0.25959 0.0
O248 O 0.94042 0.55583 0.2129 0.0
O249 O 0.96097 0.54762 0.21033 0.0
Zn250 Zn 0.9494 0.53804 0.27696 0.0
O251 O 0.96183 0.54352 0.34304 0.0
C252 C 0.93436 0.5116 0.22168 0.0
O253 O 0.93372 0.51919 0.18184 0.0
O254 O 0.93546 0.54415 0.29159 0.0
C255 C 0.96671 0.53627 0.36279 0.0
O256 O 0.96384 0.52456 0.33882 0.0
C257 C 0.96982 0.54441 0.19354 0.0
O258 O 0.97123 0.53494 0.22031 0.0
O259 O 0.94013 0.51741 0.2665 0.0
C260 C 0.4339 0.37896 0.25286 0.0
O261 O 0.42633 0.38499 0.25053 0.0
O262 O 0.44442 0.40646 0.14282 0.0
Zn263 Zn 0.45294 0.4054 0.21431 0.0
O264 O 0.44762 0.41424 0.27446 0.0
C265 C 0.4774 0.42952 0.19556 0.0
O266 O 0.46772 0.43284 0.18762 0.0
O267 O 0.44645 0.3857 0.23684 0.0
C268 C 0.45487 0.41816 0.3179 0.0
O269 O 0.46552 0.41618 0.32262 0.0
C270 C 0.43501 0.40977 0.14078 0.0
O271 O 0.42992 0.41152 0.18666 0.0
O272 O 0.47369 0.41699 0.20683 0.0
C273 C 0.38877 0.28295 0.41506 0.0
O274 O 0.37845 0.27939 0.44945 0.0
O275 O 0.36636 0.24998 0.47723 0.0
Zn276 Zn 0.37686 0.2533 0.40612 0.0
O277 O 0.36369 0.24661 0.34232 0.0
C278 C 0.39293 0.24158 0.44967 0.0
O279 O 0.39409 0.24924 0.49249 0.0
O280 O 0.39047 0.27353 0.39332 0.0
C281 C 0.35518 0.23379 0.33467 0.0
O282 O 0.35471 0.22469 0.37015 0.0
C283 C 0.35404 0.2479 0.47977 0.0
O284 O 0.3479 0.24845 0.43469 0.0
O285 O 0.38647 0.24211 0.40767 0.0
C286 C 0.71312 0.11294 0.44478 0.0
O287 O 0.7152 0.10596 0.4834 0.0
O288 O 0.74537 0.12031 0.50922 0.0
Zn289 Zn 0.74324 0.12817 0.43758 0.0
O290 O 0.74925 0.12051 0.37562 0.0
C291 C 0.76102 0.1558 0.48097 0.0
O292 O 0.7578 0.1493 0.52823 0.0
O293 O 0.7235 0.12307 0.42194 0.0
C294 C 0.74763 0.12348 0.32695 0.0
O295 O 0.74237 0.13161 0.3191 0.0
C296 C 0.74616 0.10931 0.51157 0.0
O297 O 0.74482 0.10234 0.46638 0.0
O298 O 0.7557 0.14894 0.43737 0.0
C299 C 0.89246 0.60749 0.4128 0.0
O300 O 0.89949 0.621 0.40551 0.0
O301 O 0.88188 0.62431 0.5323 0.0
Zn302 Zn 0.87377 0.61485 0.46023 0.0
O303 O 0.87894 0.62927 0.40141 0.0
C304 C 0.84637 0.60646 0.50233 0.0
O305 O 0.85343 0.61481 0.54276 0.0
O306 O 0.88089 0.60214 0.43772 0.0
C307 C 0.87215 0.62597 0.35683 0.0
O308 O 0.86181 0.61323 0.35047 0.0
C309 C 0.89228 0.63653 0.53465 0.0
O310 O 0.89849 0.64285 0.48907 0.0
O311 O 0.85288 0.60439 0.46414 0.0
C312 C 0.37863 0.92884 0.74511 0.0
O313 O 0.38232 0.93384 0.79483 0.0
O314 O 0.40943 0.95845 0.78798 0.0
Zn315 Zn 0.40783 0.94675 0.72235 0.0
O316 O 0.41487 0.95923 0.65635 0.0
C317 C 0.42082 0.93343 0.7803 0.0
O318 O 0.41314 0.93329 0.82145 0.0
O319 O 0.38788 0.93249 0.7083 0.0
C320 C 0.42726 0.96442 0.63895 0.0
O321 O 0.43592 0.96156 0.66454 0.0
C322 C 0.42141 0.96763 0.8042 0.0
O323 O 0.43238 0.96916 0.77778 0.0
O324 O 0.41971 0.93807 0.73419 0.0
C325 C 0.06356 0.45093 0.71614 0.0
O326 O 0.06228 0.45197 0.76913 0.0
O327 O 0.03348 0.4512 0.77624 0.0
Zn328 Zn 0.04277 0.45962 0.70436 0.0
O329 O 0.02865 0.45297 0.64408 0.0
C330 C 0.05928 0.48705 0.75016 0.0
O331 O 0.06182 0.48035 0.7886 0.0
O332 O 0.05658 0.45391 0.68332 0.0
C333 C 0.01988 0.45699 0.63749 0.0
O334 O 0.01966 0.4659 0.67223 0.0
C335 C 0.0224 0.43949 0.77908 0.0
O336 O 0.01705 0.43235 0.73399 0.0
O337 O 0.05174 0.48032 0.70969 0.0
C338 C 0.56031 0.6166 0.73412 0.0
O339 O 0.56631 0.60915 0.7258 0.0
O340 O 0.55003 0.58896 0.84798 0.0
Zn341 Zn 0.54103 0.59088 0.77884 0.0
O342 O 0.54488 0.58224 0.71365 0.0
C343 C 0.51433 0.57177 0.82506 0.0
O344 O 0.5221 0.57024 0.86171 0.0
O345 O 0.54878 0.61111 0.75947 0.0
C346 C 0.54555 0.57118 0.71173 0.0
O347 O 0.54371 0.56394 0.7566 0.0
C348 C 0.56126 0.58858 0.84991 0.0
O349 O 0.56811 0.58987 0.80444 0.0
O350 O 0.52016 0.58067 0.78712 0.0
C351 C 0.60916 0.7148 0.59004 0.0
O352 O 0.6228 0.72146 0.58985 0.0
O353 O 0.62699 0.74582 0.49754 0.0
Zn354 Zn 0.61593 0.74198 0.5674 0.0
O355 O 0.62883 0.74829 0.63237 0.0
C356 C 0.61209 0.76501 0.58503 0.0
O357 O 0.62441 0.76962 0.60693 0.0
O358 O 0.60298 0.72147 0.57814 0.0
C359 C 0.62381 0.74578 0.68047 0.0
O360 O 0.61027 0.7393 0.68679 0.0
C361 C 0.6397 0.74906 0.49713 0.0
O362 O 0.64583 0.74941 0.54353 0.0
O363 O 0.60581 0.75286 0.56471 0.0
C364 C 0.27975 0.88937 0.62301 0.0
O365 O 0.27418 0.89718 0.63207 0.0
O366 O 0.25072 0.88027 0.51474 0.0
Zn367 Zn 0.25246 0.87191 0.58559 0.0
O368 O 0.2457 0.87848 0.64913 0.0
C369 C 0.23961 0.84418 0.53901 0.0
O370 O 0.24739 0.85056 0.49629 0.0
O371 O 0.27241 0.87757 0.60069 0.0
C372 C 0.23304 0.87296 0.66318 0.0
O373 O 0.22354 0.8626 0.6343 0.0
C374 C 0.24995 0.89129 0.51308 0.0
O375 O 0.25063 0.89775 0.55896 0.0
O376 O 0.2405 0.85118 0.58144 0.0
C377 C 0.1101 0.3993 0.5781 0.0
O378 O 0.10208 0.38745 0.55324 0.0
O379 O 0.12141 0.37749 0.51194 0.0
Zn380 Zn 0.12855 0.38834 0.58234 0.0
O381 O 0.1217 0.37543 0.64683 0.0
C382 C 0.15642 0.40032 0.53935 0.0
O383 O 0.15004 0.39746 0.49186 0.0
O384 O 0.12223 0.40222 0.59258 0.0
C385 C 0.12583 0.36681 0.65523 0.0
O386 O 0.13444 0.36613 0.62021 0.0
C387 C 0.11092 0.36532 0.50982 0.0
O388 O 0.10387 0.3596 0.55476 0.0
O389 O 0.14936 0.3978 0.58304 0.0
C390 C 0.28219 0.39616 0.57579 0.0
O391 O 0.27773 0.39185 0.52587 0.0
O392 O 0.24981 0.36778 0.53339 0.0
Zn393 Zn 0.25339 0.37785 0.60529 0.0
O394 O 0.24716 0.36413 0.6671 0.0
C395 C 0.24258 0.39534 0.56962 0.0
O396 O 0.25134 0.39822 0.52895 0.0
O397 O 0.27361 0.39172 0.61528 0.0
C398 C 0.23465 0.3543 0.6696 0.0
O399 O 0.22594 0.35315 0.6309 0.0
C400 C 0.25099 0.35707 0.52734 0.0
O401 O 0.25504 0.3525 0.56902 0.0
O402 O 0.24203 0.38722 0.60737 0.0
C403 C 0.60703 0.89537 0.60061 0.0
O404 O 0.62067 0.90191 0.6 0.0
O405 O 0.62373 0.88188 0.50551 0.0
Zn406 Zn 0.61264 0.87434 0.57489 0.0
O407 O 0.62607 0.88055 0.63821 0.0
C408 C 0.59993 0.84603 0.53225 0.0
O409 O 0.60367 0.85206 0.48411 0.0
O410 O 0.6004 0.88257 0.58806 0.0
C411 C 0.62832 0.87246 0.66762 0.0
O412 O 0.62186 0.85913 0.65642 0.0
C413 C 0.63425 0.88039 0.49894 0.0
O414 O 0.63714 0.87377 0.5366 0.0
O415 O 0.60199 0.85346 0.57456 0.0
C416 C 0.10222 0.71585 0.60103 0.0
O417 O 0.09635 0.72343 0.60891 0.0
O418 O 0.11429 0.74486 0.49349 0.0
Zn419 Zn 0.1226 0.74184 0.56227 0.0
O420 O 0.11893 0.75029 0.62854 0.0
C421 C 0.14962 0.75671 0.50998 0.0
O422 O 0.14224 0.75511 0.46579 0.0
O423 O 0.11412 0.72141 0.5785 0.0
C424 C 0.11969 0.76204 0.63136 0.0
O425 O 0.12294 0.76989 0.58748 0.0
C426 C 0.10361 0.74622 0.49159 0.0
O427 O 0.09692 0.7454 0.53703 0.0
O428 O 0.14341 0.75128 0.55469 0.0
C429 C 0.05302 0.61721 0.74036 0.0
O430 O 0.03943 0.60992 0.73628 0.0
O431 O 0.03731 0.58678 0.84322 0.0
Zn432 Zn 0.04776 0.59073 0.7717 0.0
O433 O 0.03432 0.58269 0.70906 0.0
C434 C 0.06075 0.57551 0.81279 0.0
O435 O 0.05592 0.57684 0.8601 0.0
O436 O 0.05951 0.61125 0.75761 0.0
C437 C 0.02673 0.56972 0.70126 0.0
O438 O 0.0273 0.56102 0.73614 0.0
C439 C 0.0248 0.5841 0.84626 0.0
O440 O 0.01843 0.58447 0.80156 0.0
O441 O 0.05913 0.58125 0.77063 0.0
C442 C 0.38321 0.44254 0.67352 0.0
O443 O 0.38914 0.43502 0.66528 0.0
O444 O 0.41063 0.44979 0.78016 0.0
Zn445 Zn 0.41005 0.45992 0.71284 0.0
O446 O 0.4173 0.45393 0.64918 0.0
C447 C 0.42336 0.48627 0.76988 0.0
O448 O 0.4157 0.47874 0.81108 0.0
O449 O 0.39024 0.4544 0.69578 0.0
C450 C 0.42954 0.4606 0.62998 0.0
O451 O 0.4386 0.47245 0.6524 0.0
C452 C 0.42218 0.45102 0.79453 0.0
O453 O 0.4333 0.45896 0.76537 0.0
O454 O 0.4222 0.48051 0.72377 0.0
C455 C 0.55991 0.946 0.74905 0.0
O456 O 0.56631 0.95959 0.74466 0.0
O457 O 0.54887 0.96304 0.85684 0.0
Zn458 Zn 0.53987 0.95196 0.78838 0.0
O459 O 0.54451 0.96501 0.72444 0.0
C460 C 0.51244 0.94064 0.83818 0.0
O461 O 0.51942 0.94703 0.88242 0.0
O462 O 0.54782 0.9397 0.76987 0.0
C463 C 0.53631 0.96851 0.7029 0.0
O464 O 0.52389 0.96389 0.72398 0.0
C465 C 0.54845 0.97406 0.86641 0.0
O466 O 0.54203 0.97792 0.83157 0.0
O467 O 0.51901 0.94088 0.79525 0.0
H468 H 0.09254 0.26173 0.2143 0.0
H469 H 0.10413 0.27444 0.04629 0.0
H470 H 0.11174 0.25711 0.22256 0.0
H471 H 0.12346 0.2703 0.055 0.0
H472 H 0.1552 0.25785 0.07195 0.0
H473 H 0.13187 0.25458 0.06614 0.0
H474 H 0.13635 0.27144 0.22912 0.0
H475 H 0.15939 0.27421 0.23561 0.0
C476 C 0.09907 0.26338 0.17895 0.0
C477 C 0.09689 0.2686 0.12984 0.0
C478 C 0.11013 0.26081 0.18377 0.0
C479 C 0.11926 0.26346 0.13965 0.0
C480 C 0.11658 0.26796 0.08969 0.0
C481 C 0.10551 0.27045 0.0848 0.0
C482 C 0.15109 0.2606 0.10693 0.0
C483 C 0.15923 0.26648 0.15394 0.0
C484 C 0.13774 0.2588 0.10349 0.0
C485 C 0.13229 0.26294 0.1468 0.0
C486 C 0.14012 0.26801 0.19511 0.0
C487 C 0.15342 0.26969 0.19871 0.0
H488 H 0.74411 0.83751 0.18808 0.0
H489 H 0.72762 0.83353 0.0247 0.0
H490 H 0.74812 0.86117 0.19321 0.0
H491 H 0.73114 0.85678 0.03046 0.0
H492 H 0.74067 0.89979 0.03935 0.0
H493 H 0.74601 0.88107 0.03496 0.0
H494 H 0.73331 0.87075 0.20377 0.0
H495 H 0.72856 0.88978 0.20868 0.0
C496 C 0.74151 0.84173 0.15303 0.0
C497 C 0.73537 0.83357 0.10628 0.0
C498 C 0.74374 0.85527 0.15607 0.0
C499 C 0.73984 0.86088 0.11249 0.0
C500 C 0.73446 0.85294 0.06461 0.0
C501 C 0.7323 0.83949 0.06148 0.0
C502 C 0.73935 0.89372 0.07587 0.0
C503 C 0.73396 0.8961 0.12406 0.0
C504 C 0.74233 0.88294 0.0733 0.0
C505 C 0.7398 0.87418 0.11862 0.0
C506 C 0.73547 0.87729 0.16809 0.0
C507 C 0.73266 0.88819 0.17085 0.0
H508 H 0.09726 0.84128 0.19086 0.0
H509 H 0.11032 0.83749 0.02824 0.0
H510 H 0.11733 0.86464 0.19813 0.0
H511 H 0.13045 0.86049 0.03608 0.0
H512 H 0.16319 0.90427 0.04763 0.0
H513 H 0.13949 0.88489 0.04152 0.0
H514 H 0.14188 0.87396 0.20939 0.0
H515 H 0.16536 0.8936 0.21603 0.0
C516 C 0.10432 0.84547 0.15648 0.0
C517 C 0.10226 0.83747 0.1092 0.0
C518 C 0.11586 0.85883 0.16075 0.0
C519 C 0.12557 0.86443 0.11785 0.0
C520 C 0.12312 0.85663 0.06966 0.0
C521 C 0.1116 0.84335 0.06534 0.0
C522 C 0.15855 0.89788 0.08355 0.0
C523 C 0.16622 0.90034 0.13206 0.0
C524 C 0.14499 0.88673 0.07997 0.0
C525 C 0.13885 0.87771 0.12465 0.0
C526 C 0.14622 0.88073 0.17427 0.0
C527 C 0.15974 0.89196 0.17799 0.0
H528 H 0.25969 0.09723 0.79525 0.0
H529 H 0.27419 0.11001 0.96077 0.0
H530 H 0.25431 0.11594 0.78797 0.0
H531 H 0.26929 0.12884 0.95295 0.0
H532 H 0.25512 0.15912 0.9409 0.0
H533 H 0.25268 0.13613 0.94568 0.0
H534 H 0.2676 0.14064 0.7793 0.0
H535 H 0.26949 0.16335 0.77391 0.0
C536 C 0.2616 0.10393 0.83024 0.0
C537 C 0.2675 0.10221 0.87839 0.0
C538 C 0.25859 0.1147 0.82597 0.0
C539 C 0.26144 0.12398 0.86972 0.0
C540 C 0.26674 0.12181 0.91865 0.0
C541 C 0.26968 0.11104 0.92299 0.0
C542 C 0.25759 0.15506 0.90498 0.0
C543 C 0.26268 0.16312 0.85729 0.0
C544 C 0.25628 0.14192 0.90781 0.0
C545 C 0.26019 0.13662 0.86326 0.0
C546 C 0.26439 0.14431 0.81432 0.0
C547 C 0.26555 0.1574 0.81129 0.0
H548 H 0.83122 0.10432 0.96851 0.0
H549 H 0.83176 0.09215 0.80092 0.0
H550 H 0.85442 0.12401 0.9574 0.0
H551 H 0.85528 0.11177 0.79018 0.0
H552 H 0.88491 0.15971 0.77494 0.0
H553 H 0.86493 0.1365 0.78297 0.0
H554 H 0.87868 0.13243 0.94386 0.0
H555 H 0.89848 0.15588 0.93649 0.0
C556 C 0.8364 0.10568 0.92955 0.0
C557 C 0.82955 0.09676 0.88538 0.0
C558 C 0.84979 0.11694 0.92329 0.0
C559 C 0.85672 0.11953 0.87277 0.0
C560 C 0.85015 0.11018 0.82939 0.0
C561 C 0.8367 0.0989 0.83564 0.0
C562 C 0.88382 0.15379 0.81166 0.0
C563 C 0.89316 0.15974 0.85545 0.0
C564 C 0.87238 0.14041 0.81614 0.0
C565 C 0.87008 0.13265 0.86438 0.0
C566 C 0.87998 0.13825 0.9066 0.0
C567 C 0.89138 0.15166 0.90225 0.0
H568 H 0.83515 0.73685 0.92002 0.0
H569 H 0.83543 0.72024 0.7604 0.0
H570 H 0.85853 0.74102 0.9369 0.0
H571 H 0.8586 0.72406 0.77787 0.0
H572 H 0.903 0.73716 0.81271 0.0
H573 H 0.88303 0.74 0.79315 0.0
H574 H 0.86728 0.72558 0.95613 0.0
H575 H 0.88729 0.72308 0.97602 0.0
C576 C 0.84026 0.73425 0.88824 0.0
C577 C 0.83335 0.72803 0.83915 0.0
C578 C 0.85363 0.73658 0.89805 0.0
C579 C 0.86037 0.7327 0.85908 0.0
C580 C 0.85378 0.72727 0.80864 0.0
C581 C 0.84043 0.725 0.79874 0.0
C582 C 0.89538 0.73482 0.84462 0.0
C583 C 0.89667 0.72977 0.89574 0.0
C584 C 0.88391 0.73638 0.83332 0.0
C585 C 0.8735 0.73293 0.87292 0.0
C586 C 0.87516 0.72851 0.92486 0.0
C587 C 0.88661 0.72697 0.93616 0.0
H588 H 0.82969 0.61073 0.57216 0.0
H589 H 0.82912 0.59105 0.41887 0.0
H590 H 0.80627 0.60621 0.55469 0.0
H591 H 0.80552 0.58627 0.40196 0.0
H592 H 0.77683 0.60422 0.35615 0.0
H593 H 0.79681 0.60173 0.37752 0.0
H594 H 0.78165 0.58944 0.54262 0.0
H595 H 0.76169 0.59217 0.52149 0.0
C596 C 0.82446 0.60516 0.53532 0.0
C597 C 0.83136 0.60146 0.4965 0.0
C598 C 0.81097 0.60248 0.52546 0.0
C599 C 0.80409 0.59601 0.47661 0.0
C600 C 0.81065 0.59148 0.43953 0.0
C601 C 0.82414 0.59416 0.44939 0.0
C602 C 0.77762 0.60077 0.39679 0.0
C603 C 0.76776 0.59857 0.43732 0.0
C604 C 0.78904 0.59924 0.40894 0.0
C605 C 0.79087 0.59546 0.46191 0.0
C606 C 0.78062 0.59253 0.50165 0.0
C607 C 0.76916 0.59405 0.48944 0.0
H608 H 0.40805 0.17277 0.39543 0.0
H609 H 0.3929 0.16927 0.56093 0.0
H610 H 0.41098 0.19594 0.38853 0.0
H611 H 0.39543 0.19222 0.55347 0.0
H612 H 0.40544 0.23622 0.53543 0.0
H613 H 0.40999 0.21698 0.54388 0.0
H614 H 0.39457 0.20381 0.37962 0.0
H615 H 0.3904 0.22313 0.37069 0.0
C616 C 0.40551 0.17701 0.43059 0.0
C617 C 0.40005 0.1691 0.47847 0.0
C618 C 0.40712 0.19027 0.42653 0.0
C619 C 0.40324 0.19587 0.47012 0.0
C620 C 0.39863 0.1883 0.51922 0.0
C621 C 0.39709 0.17507 0.5234 0.0
C622 C 0.40326 0.22934 0.50082 0.0
C623 C 0.39742 0.23112 0.4526 0.0
C624 C 0.4058 0.21828 0.50577 0.0
C625 C 0.40255 0.20877 0.46262 0.0
C626 C 0.39737 0.211 0.41347 0.0
C627 C 0.39487 0.22205 0.40849 0.0
H628 H 0.83253 0.23884 0.53116 0.0
H629 H 0.83589 0.22485 0.36984 0.0
H630 H 0.80895 0.2192 0.53918 0.0
H631 H 0.81266 0.20509 0.37851 0.0
H632 H 0.76834 0.17309 0.3924 0.0
H633 H 0.78839 0.19634 0.38374 0.0
H634 H 0.79902 0.1948 0.55281 0.0
H635 H 0.77873 0.17182 0.56193 0.0
C636 C 0.8282 0.23167 0.4972 0.0
C637 C 0.83614 0.23334 0.45009 0.0
C638 C 0.81471 0.22036 0.50192 0.0
C639 C 0.80892 0.21047 0.45972 0.0
C640 C 0.81666 0.21256 0.41159 0.0
C641 C 0.83008 0.22388 0.40676 0.0
C642 C 0.77484 0.17782 0.42795 0.0
C643 C 0.77205 0.17054 0.47766 0.0
C644 C 0.78638 0.19112 0.42292 0.0
C645 C 0.79546 0.19739 0.46733 0.0
C646 C 0.79221 0.19038 0.51786 0.0
C647 C 0.7806 0.17714 0.52302 0.0
H648 H 0.93541 0.49352 0.29435 0.0
H649 H 0.92401 0.49639 0.12773 0.0
H650 H 0.93198 0.4706 0.27556 0.0
H651 H 0.92025 0.47319 0.10921 0.0
H652 H 0.94016 0.44506 0.08408 0.0
H653 H 0.93595 0.46426 0.09848 0.0
H654 H 0.91637 0.44656 0.25354 0.0
H655 H 0.92092 0.42749 0.2398 0.0
C656 C 0.93189 0.48914 0.25397 0.0
C657 C 0.93017 0.49687 0.21232 0.0
C658 C 0.9298 0.47591 0.24329 0.0
C659 C 0.92591 0.47007 0.19074 0.0
C660 C 0.92343 0.47748 0.14991 0.0
C661 C 0.92553 0.49075 0.1606 0.0
C662 C 0.9347 0.44509 0.12076 0.0
C663 C 0.93111 0.43488 0.16125 0.0
C664 C 0.9322 0.45608 0.12888 0.0
C665 C 0.926 0.45706 0.17757 0.0
C666 C 0.92142 0.44625 0.21609 0.0
C667 C 0.92396 0.43528 0.20805 0.0
H668 H 0.56611 0.49054 0.16284 0.0
H669 H 0.55027 0.50142 0.30473 0.0
H670 H 0.5435 0.46932 0.1516 0.0
H671 H 0.5279 0.48049 0.29273 0.0
H672 H 0.48747 0.45731 0.19272 0.0
H673 H 0.51137 0.47578 0.20393 0.0
H674 H 0.52481 0.44557 0.21344 0.0
H675 H 0.50061 0.42677 0.20303 0.0
C676 C 0.55793 0.48832 0.19204 0.0
C677 C 0.55993 0.49776 0.23423 0.0
C678 C 0.54505 0.47619 0.18564 0.0
C679 C 0.53402 0.47345 0.221 0.0
C680 C 0.53625 0.48249 0.26472 0.0
C681 C 0.54908 0.49446 0.2715 0.0
C682 C 0.49547 0.45452 0.19674 0.0
C683 C 0.49213 0.44056 0.19738 0.0
C684 C 0.50914 0.46512 0.20334 0.0
C685 C 0.51982 0.46202 0.20999 0.0
C686 C 0.51668 0.44814 0.20839 0.0
C687 C 0.50288 0.43744 0.20257 0.0
H688 H 0.55513 0.06138 0.31539 0.0
H689 H 0.56921 0.07513 0.15017 0.0
H690 H 0.53461 0.06319 0.29852 0.0
H691 H 0.54874 0.07731 0.13367 0.0
H692 H 0.50025 0.0712 0.26657 0.0
H693 H 0.52435 0.07728 0.28034 0.0
H694 H 0.52458 0.06053 0.12098 0.0
H695 H 0.5007 0.05486 0.10657 0.0
C696 C 0.554 0.0651 0.27579 0.0
C697 C 0.56371 0.06791 0.23386 0.0
C698 C 0.54225 0.06624 0.26622 0.0
C699 C 0.53995 0.0703 0.21455 0.0
C700 C 0.55009 0.07394 0.17364 0.0
C701 C 0.56186 0.07276 0.1832 0.0
C702 C 0.50554 0.06909 0.23401 0.0
C703 C 0.49849 0.06235 0.18581 0.0
C704 C 0.51934 0.07251 0.24203 0.0
C705 C 0.52634 0.0692 0.20215 0.0
C706 C 0.51957 0.06333 0.15243 0.0
C707 C 0.50581 0.05999 0.14429 0.0
H708 H 0.42745 0.92478 0.87489 0.0
H709 H 0.43992 0.93516 0.70596 0.0
H710 H 0.44799 0.92275 0.89199 0.0
H711 H 0.46052 0.93356 0.72331 0.0
H712 H 0.49458 0.92519 0.75648 0.0
H713 H 0.47059 0.91963 0.74465 0.0
H714 H 0.47233 0.93902 0.90005 0.0
H715 H 0.49611 0.94412 0.91268 0.0
C716 C 0.43447 0.92646 0.84126 0.0
C717 C 0.43211 0.93027 0.7892 0.0
C718 C 0.44629 0.92537 0.85114 0.0
C719 C 0.45599 0.9281 0.80919 0.0
C720 C 0.45322 0.9312 0.75649 0.0
C721 C 0.44141 0.93223 0.74659 0.0
C722 C 0.48974 0.92802 0.78861 0.0
C723 C 0.49731 0.93527 0.83518 0.0
C724 C 0.47601 0.9249 0.78169 0.0
C725 C 0.46958 0.92907 0.82094 0.0
C726 C 0.47688 0.93554 0.86914 0.0
C727 C 0.49058 0.93855 0.87627 0.0
H728 H 0.07196 0.57063 0.72173 0.0
H729 H 0.06014 0.55722 0.88897 0.0
H730 H 0.07561 0.55106 0.70591 0.0
H731 H 0.06338 0.53747 0.87271 0.0
H732 H 0.05489 0.50348 0.6797 0.0
H733 H 0.05911 0.52678 0.6958 0.0
H734 H 0.07806 0.52781 0.85149 0.0
H735 H 0.07351 0.50421 0.83589 0.0
C736 C 0.07035 0.56363 0.75538 0.0
C737 C 0.06553 0.56535 0.80634 0.0
C738 C 0.07237 0.55238 0.74622 0.0
C739 C 0.06954 0.54255 0.78772 0.0
C740 C 0.06574 0.54487 0.83988 0.0
C741 C 0.0638 0.55617 0.84915 0.0
C742 C 0.06014 0.50872 0.71706 0.0
C743 C 0.06369 0.50191 0.75683 0.0
C744 C 0.06268 0.52217 0.72611 0.0
C745 C 0.06888 0.52917 0.77509 0.0
C746 C 0.0731 0.52263 0.81366 0.0
C747 C 0.07054 0.50913 0.80461 0.0
H748 H 0.44178 0.50413 0.69455 0.0
H749 H 0.43035 0.50124 0.86517 0.0
H750 H 0.46219 0.52661 0.71145 0.0
H751 H 0.4507 0.52396 0.88187 0.0
H752 H 0.49557 0.5697 0.74748 0.0
H753 H 0.47171 0.5508 0.73631 0.0
H754 H 0.47534 0.53192 0.88532 0.0
H755 H 0.49898 0.55088 0.89712 0.0
C756 C 0.44347 0.50842 0.73549 0.0
C757 C 0.43453 0.5008 0.77866 0.0
C758 C 0.45514 0.52139 0.74511 0.0
C759 C 0.45814 0.52706 0.79813 0.0
C760 C 0.44879 0.51978 0.84072 0.0
C761 C 0.43709 0.50679 0.83108 0.0
C762 C 0.49117 0.56166 0.77844 0.0
C763 C 0.49924 0.5617 0.82281 0.0
C764 C 0.47753 0.55079 0.77186 0.0
C765 C 0.47167 0.53976 0.80954 0.0
C766 C 0.47946 0.54029 0.85572 0.0
C767 C 0.49309 0.55114 0.8623 0.0
H768 H 0.59261 0.83082 0.6266 0.0
H769 H 0.59907 0.82805 0.45361 0.0
H770 H 0.59164 0.80871 0.64157 0.0
H771 H 0.59822 0.80597 0.46892 0.0
H772 H 0.5923 0.76358 0.51387 0.0
H773 H 0.58508 0.78096 0.50161 0.0
H774 H 0.61176 0.80482 0.63538 0.0
H775 H 0.61893 0.78764 0.64742 0.0
C776 C 0.59352 0.82537 0.59155 0.0
C777 C 0.59621 0.83134 0.53904 0.0
C778 C 0.59299 0.81271 0.60021 0.0
C779 C 0.59509 0.80575 0.55658 0.0
C780 C 0.59653 0.81108 0.50333 0.0
C781 C 0.59708 0.82378 0.49462 0.0
C782 C 0.5964 0.77243 0.54118 0.0
C783 C 0.60626 0.77433 0.58133 0.0
C784 C 0.59231 0.78237 0.53402 0.0
C785 C 0.59783 0.79422 0.56759 0.0
C786 C 0.60717 0.79572 0.60934 0.0
C787 C 0.61138 0.78593 0.61594 0.0
H788 H 0.16814 0.76189 0.59282 0.0
H789 H 0.16522 0.77435 0.42804 0.0
H790 H 0.19192 0.78113 0.59905 0.0
H791 H 0.18878 0.79379 0.43488 0.0
H792 H 0.22098 0.8286 0.61808 0.0
H793 H 0.20098 0.80554 0.60891 0.0
H794 H 0.21338 0.80296 0.44364 0.0
H795 H 0.23333 0.82635 0.45236 0.0
C796 C 0.17263 0.76861 0.55764 0.0
C797 C 0.16471 0.76672 0.51025 0.0
C798 C 0.18624 0.77969 0.56132 0.0
C799 C 0.19219 0.78916 0.51785 0.0
C800 C 0.18459 0.78667 0.46906 0.0
C801 C 0.17102 0.77554 0.46524 0.0
C802 C 0.21959 0.82307 0.57999 0.0
C803 C 0.22866 0.8294 0.53569 0.0
C804 C 0.20814 0.80975 0.57487 0.0
C805 C 0.20551 0.80239 0.5254 0.0
C806 C 0.215 0.80843 0.48203 0.0
C807 C 0.22647 0.8218 0.48712 0.0
H808 H 0.22258 0.39018 0.64535 0.0
H809 H 0.23918 0.41102 0.49115 0.0
H810 H 0.20367 0.39499 0.63799 0.0
H811 H 0.22032 0.4162 0.48446 0.0
H812 H 0.17299 0.40023 0.45697 0.0
H813 H 0.19578 0.40244 0.46608 0.0
H814 H 0.19629 0.41182 0.63805 0.0
H815 H 0.17326 0.40915 0.62927 0.0
C816 C 0.22235 0.39604 0.61034 0.0
C817 C 0.23229 0.40006 0.56848 0.0
C818 C 0.21154 0.39892 0.60633 0.0
C819 C 0.21043 0.40594 0.56048 0.0
C820 C 0.22078 0.4106 0.51993 0.0
C821 C 0.23161 0.40769 0.52389 0.0
C822 C 0.17807 0.40302 0.49651 0.0
C823 C 0.17121 0.40426 0.54261 0.0
C824 C 0.1912 0.40438 0.50169 0.0
C825 C 0.19779 0.40711 0.55301 0.0
C826 C 0.19136 0.4094 0.5982 0.0
C827 C 0.17819 0.40793 0.59312 0.0
H828 H 0.03346 0.27634 0.02692 0.0
H829 H 0.02899 0.23638 0.06549 0.0
H830 H 0.00931 0.26512 0.99941 0.0
H831 H 0.00451 0.22509 0.03918 0.0
H832 H 0.9653 0.20983 0.93029 0.0
H833 H 0.98949 0.22008 0.95945 0.0
H834 H 0.98669 0.25324 0.03943 0.0
H835 H 0.9628 0.24328 0.00918 0.0
C836 C 0.02729 0.26515 0.03001 0.0
C837 C 0.03316 0.25726 0.04862 0.0
C838 C 0.01338 0.25871 0.01447 0.0
C839 C 0.00492 0.24421 0.01747 0.0
C840 C 0.01078 0.23628 0.03592 0.0
C841 C 0.02477 0.24274 0.0513 0.0
C842 C 0.96988 0.2193 0.95411 0.0
C843 C 0.96218 0.22581 0.96697 0.0
C844 C 0.9837 0.22513 0.97112 0.0
C845 C 0.99006 0.23754 0.00143 0.0
C846 C 0.98222 0.24383 0.01519 0.0
C847 C 0.96848 0.23808 0.99801 0.0
H848 H 0.78313 0.74727 0.93807 0.0
H849 H 0.74443 0.71782 0.86129 0.0
H850 H 0.77186 0.75922 0.97809 0.0
H851 H 0.73329 0.7299 0.90035 0.0
H852 H 0.71389 0.74284 0.03454 0.0
H853 H 0.72622 0.73238 0.99207 0.0
H854 H 0.76084 0.77314 0.95692 0.0
H855 H 0.74856 0.78369 0.00039 0.0
C856 C 0.77228 0.74347 0.92907 0.0
C857 C 0.76464 0.73151 0.89694 0.0
C858 C 0.76584 0.75034 0.9519 0.0
C859 C 0.75164 0.74539 0.94299 0.0
C860 C 0.74417 0.73378 0.90898 0.0
C861 C 0.75059 0.72691 0.88628 0.0
C862 C 0.72417 0.7496 0.01808 0.0
C863 C 0.73022 0.7641 0.02074 0.0
C864 C 0.73119 0.7436 0.99329 0.0
C865 C 0.74444 0.75193 0.97053 0.0
C866 C 0.75066 0.76645 0.97427 0.0
C867 C 0.74361 0.77248 0.99907 0.0
H868 H 0.22022 0.96617 0.00877 0.0
H869 H 0.24352 0.97819 0.15997 0.0
H870 H 0.2332 0.99011 0.97674 0.0
H871 H 0.25633 0.00215 0.1282 0.0
H872 H 0.28851 0.03774 0.02311 0.0
H873 H 0.27396 0.01431 0.05755 0.0
H874 H 0.23762 0.01391 0.9928 0.0
H875 H 0.25227 0.03743 0.95745 0.0
C876 C 0.22798 0.97394 0.03549 0.0
C877 C 0.23093 0.97024 0.08674 0.0
C878 C 0.23537 0.98768 0.0172 0.0
C879 C 0.24588 0.99799 0.0497 0.0
C880 C 0.24845 0.99438 0.1018 0.0
C881 C 0.24105 0.98066 0.12015 0.0
C882 C 0.27742 0.03268 0.01604 0.0
C883 C 0.27155 0.03946 0.98752 0.0
C884 C 0.26906 0.01928 0.03624 0.0
C885 C 0.25462 0.0123 0.02837 0.0
C886 C 0.24873 0.019 0.99929 0.0
C887 C 0.25711 0.03247 0.97916 0.0
H888 H 0.95807 0.74289 0.04927 0.0
H889 H 0.97384 0.74385 0.88661 0.0
H890 H 0.98173 0.75649 0.0834 0.0
H891 H 0.99752 0.75725 0.92106 0.0
H892 H 0.03877 0.78935 0.9919 0.0
H893 H 0.01489 0.77949 0.96011 0.0
H894 H 0.00063 0.75181 0.0993 0.0
H895 H 0.02443 0.76181 0.13161 0.0
C896 C 0.96658 0.74608 0.02067 0.0
C897 C 0.96407 0.74217 0.96526 0.0
C898 C 0.98014 0.75382 0.04034 0.0
C899 C 0.9915 0.75784 0.00508 0.0
C900 C 0.98899 0.75442 0.94922 0.0
C901 C 0.97541 0.74667 0.92951 0.0
C902 C 0.03052 0.78128 0.0161 0.0
C903 C 0.03351 0.7763 0.06414 0.0
C904 C 0.01685 0.77558 0.99767 0.0
C905 C 0.00588 0.76481 0.02696 0.0
C906 C 0.00883 0.7602 0.07606 0.0
C907 C 0.02249 0.76588 0.09445 0.0
H908 H 0.27741 0.25218 0.92566 0.0
H909 H 0.24385 0.21171 0.97196 0.0
H910 H 0.26496 0.2629 0.9648 0.0
H911 H 0.2315 0.22251 0.01256 0.0
H912 H 0.20828 0.24714 0.03339 0.0
H913 H 0.21952 0.23525 0.99238 0.0
H914 H 0.25912 0.26715 0.05462 0.0
H915 H 0.24799 0.27916 0.09416 0.0
C916 C 0.26735 0.24556 0.94412 0.0
C917 C 0.26166 0.2311 0.94596 0.0
C918 C 0.26025 0.25172 0.96698 0.0
C919 C 0.24732 0.24359 0.99257 0.0
C920 C 0.24141 0.22907 0.99294 0.0
C921 C 0.24851 0.22289 0.96979 0.0
C922 C 0.21937 0.25153 0.03864 0.0
C923 C 0.22727 0.26414 0.06666 0.0
C924 C 0.2258 0.24471 0.01523 0.0
C925 C 0.24025 0.25034 0.01959 0.0
C926 C 0.24802 0.2627 0.04931 0.0
C927 C 0.24162 0.26954 0.07238 0.0
H928 H 0.78412 0.03264 0.97852 0.0
H929 H 0.74209 0.02516 0.98559 0.0
H930 H 0.77586 0.00867 0.0066 0.0
H931 H 0.73393 0.0014 0.01455 0.0
H932 H 0.72199 0.95611 0.00568 0.0
H933 H 0.73098 0.97998 0.97688 0.0
H934 H 0.76588 0.99322 0.08623 0.0
H935 H 0.757 0.96913 0.11449 0.0
C936 C 0.77313 0.0259 0.98608 0.0
C937 C 0.76375 0.03079 0.9796 0.0
C938 C 0.76842 0.0122 0.00255 0.0
C939 C 0.75424 0.00313 0.01273 0.0
C940 C 0.7449 0.00806 0.00627 0.0
C941 C 0.74959 0.02171 0.98987 0.0
C942 C 0.73159 0.96407 0.02369 0.0
C943 C 0.73876 0.9607 0.06257 0.0
C944 C 0.7367 0.97779 0.00732 0.0
C945 C 0.7491 0.98852 0.02948 0.0
C946 C 0.75636 0.98516 0.06803 0.0
C947 C 0.75124 0.97139 0.08445 0.0
H948 H 0.6255 0.54322 0.34989 0.0
H949 H 0.64111 0.56776 0.20249 0.0
H950 H 0.64922 0.55227 0.38229 0.0
H951 H 0.66477 0.57697 0.23534 0.0
H952 H 0.70652 0.58488 0.2911 0.0
H953 H 0.68278 0.57141 0.25755 0.0
H954 H 0.66739 0.57481 0.41581 0.0
H955 H 0.69112 0.58807 0.44977 0.0
C956 C 0.63399 0.55043 0.32413 0.0
C957 C 0.63141 0.55486 0.27377 0.0
C958 C 0.64757 0.55567 0.34288 0.0
C959 C 0.65887 0.56541 0.31162 0.0
C960 C 0.65631 0.56937 0.26021 0.0
C961 C 0.64273 0.56415 0.24148 0.0
C962 C 0.69807 0.58262 0.31899 0.0
C963 C 0.70072 0.58767 0.373 0.0
C964 C 0.68447 0.57495 0.29963 0.0
C965 C 0.67321 0.57215 0.33383 0.0
C966 C 0.67583 0.57668 0.38854 0.0
C967 C 0.68944 0.58435 0.40794 0.0
H968 H 0.42909 0.05569 0.31605 0.0
H969 H 0.45549 0.09428 0.23171 0.0
H970 H 0.41633 0.06579 0.35738 0.0
H971 H 0.44238 0.10432 0.27216 0.0
H972 H 0.42325 0.12149 0.39409 0.0
H973 H 0.43735 0.11202 0.35846 0.0
H974 H 0.4001 0.07274 0.32894 0.0
H975 H 0.38613 0.08203 0.36556 0.0
C976 C 0.43213 0.06632 0.30604 0.0
C977 C 0.44326 0.07415 0.27024 0.0
C978 C 0.42477 0.0721 0.32964 0.0
C979 C 0.42826 0.08583 0.31778 0.0
C980 C 0.43952 0.09375 0.28257 0.0
C981 C 0.44696 0.08798 0.25911 0.0
C982 C 0.41811 0.1108 0.38039 0.0
C983 C 0.40357 0.1025 0.38277 0.0
C984 C 0.42617 0.10541 0.35959 0.0
C985 C 0.41986 0.09163 0.34084 0.0
C986 C 0.40533 0.08334 0.34378 0.0
C987 C 0.3973 0.0887 0.36457 0.0
H988 H 0.92412 0.30018 0.3304 0.0
H989 H 0.88636 0.29957 0.37752 0.0
H990 H 0.93415 0.3242 0.30181 0.0
H991 H 0.8966 0.32387 0.34988 0.0
H992 H 0.91509 0.36277 0.23729 0.0
H993 H 0.9041 0.33863 0.26791 0.0
H994 H 0.94277 0.3468 0.34181 0.0
H995 H 0.95377 0.37067 0.3103 0.0
C996 C 0.91798 0.3052 0.33505 0.0
C997 C 0.90445 0.29796 0.35639 0.0
C998 C 0.92377 0.31902 0.31889 0.0
C999 C 0.91621 0.32599 0.32385 0.0
C1000 C 0.90265 0.31876 0.34508 0.0
C1001 C 0.89682 0.30487 0.36123 0.0
C1002 C 0.92122 0.35939 0.26012 0.0
C1003 C 0.93533 0.3686 0.27093 0.0
C1004 C 0.9149 0.34559 0.27795 0.0
C1005 C 0.92259 0.34076 0.30696 0.0
C1006 C 0.93662 0.3501 0.31864 0.0
C1007 C 0.94291 0.36382 0.30074 0.0
H1008 H 0.68848 0.09303 0.48819 0.0
H1009 H 0.70574 0.1218 0.35299 0.0
H1010 H 0.66537 0.08357 0.44859 0.0
H1011 H 0.68259 0.11234 0.31361 0.0
H1012 H 0.64244 0.07725 0.22993 0.0
H1013 H 0.66555 0.08966 0.27081 0.0
H1014 H 0.64741 0.08999 0.42668 0.0
H1015 H 0.62433 0.07755 0.38616 0.0
C1016 C 0.68733 0.09744 0.45038 0.0
C1017 C 0.69896 0.10812 0.42368 0.0
C1018 C 0.67408 0.09206 0.42782 0.0
C1019 C 0.67219 0.09719 0.37788 0.0
C1020 C 0.68376 0.1081 0.35185 0.0
C1021 C 0.697 0.11356 0.37464 0.0
C1022 C 0.64339 0.0801 0.27275 0.0
C1023 C 0.63153 0.07632 0.30482 0.0
C1024 C 0.65663 0.08727 0.2961 0.0
C1025 C 0.65827 0.09072 0.35203 0.0
C1026 C 0.64645 0.08731 0.38365 0.0
C1027 C 0.63323 0.08024 0.36028 0.0
H1028 H 0.91598 0.61577 0.35282 0.0
H1029 H 0.88067 0.57922 0.42007 0.0
H1030 H 0.92447 0.60136 0.31317 0.0
H1031 H 0.88912 0.56474 0.37955 0.0
H1032 H 0.91942 0.54758 0.35575 0.0
H1033 H 0.90856 0.56033 0.39123 0.0
H1034 H 0.91855 0.58395 0.24113 0.0
H1035 H 0.92962 0.57137 0.20585 0.0
C1036 C 0.91001 0.60465 0.35908 0.0
C1037 C 0.89766 0.59865 0.38973 0.0
C1038 C 0.91482 0.59638 0.3359 0.0
C1039 C 0.90741 0.5819 0.34287 0.0
C1040 C 0.89509 0.57588 0.37374 0.0
C1041 C 0.89025 0.58417 0.39684 0.0
C1042 C 0.91916 0.55538 0.33 0.0
C1043 C 0.92551 0.55856 0.27816 0.0
C1044 C 0.91288 0.56264 0.3503 0.0
C1045 C 0.91283 0.57325 0.31922 0.0
C1046 C 0.91865 0.576 0.26643 0.0
C1047 C 0.92491 0.56873 0.24608 0.0
H1048 H 0.40758 0.3623 0.2901 0.0
H1049 H 0.44698 0.36391 0.27042 0.0
H1050 H 0.39792 0.33957 0.33236 0.0
H1051 H 0.43732 0.34113 0.3139 0.0
H1052 H 0.40856 0.29331 0.33457 0.0
H1053 H 0.42024 0.31674 0.29681 0.0
H1054 H 0.39984 0.32904 0.41641 0.0
H1055 H 0.38793 0.30557 0.45341 0.0
C1056 C 0.41421 0.35782 0.29488 0.0
C1057 C 0.42806 0.36493 0.27687 0.0
C1058 C 0.40869 0.34482 0.3196 0.0
C1059 C 0.41689 0.3386 0.32704 0.0
C1060 C 0.43071 0.34562 0.3085 0.0
C1061 C 0.43625 0.35868 0.2837 0.0
C1062 C 0.40668 0.30105 0.35323 0.0
C1063 C 0.39719 0.29753 0.39663 0.0
C1064 C 0.41343 0.3145 0.33168 0.0
C1065 C 0.41083 0.32471 0.35316 0.0
C1066 C 0.40183 0.32133 0.39819 0.0
C1067 C 0.39507 0.3079 0.41964 0.0
H1068 H 0.29562 0.87729 0.60279 0.0
H1069 H 0.29631 0.91203 0.68506 0.0
H1070 H 0.31925 0.8851 0.63499 0.0
H1071 H 0.31978 0.91977 0.71683 0.0
H1072 H 0.35618 0.92283 0.80919 0.0
H1073 H 0.33193 0.91191 0.78098 0.0
H1074 H 0.3432 0.90555 0.61884 0.0
H1075 H 0.36746 0.9164 0.64697 0.0
C1076 C 0.30079 0.88657 0.62767 0.0
C1077 C 0.2941 0.89405 0.6413 0.0
C1078 C 0.31431 0.89104 0.64599 0.0
C1079 C 0.32129 0.90297 0.67877 0.0
C1080 C 0.31457 0.91041 0.69239 0.0
C1081 C 0.30116 0.90603 0.67374 0.0
C1082 C 0.35348 0.91893 0.76775 0.0
C1083 C 0.36377 0.92061 0.73017 0.0
C1084 C 0.3396 0.91275 0.75154 0.0
C1085 C 0.33572 0.90803 0.69755 0.0
C1086 C 0.34588 0.90904 0.66077 0.0
C1087 C 0.35979 0.91531 0.67686 0.0
H1088 H 0.07958 0.44291 0.77336 0.0
H1089 H 0.06678 0.44599 0.6093 0.0
H1090 H 0.09199 0.43168 0.73707 0.0
H1091 H 0.07923 0.4349 0.57333 0.0
H1092 H 0.08553 0.39716 0.54723 0.0
H1093 H 0.07552 0.411 0.57926 0.0
H1094 H 0.11206 0.4359 0.67712 0.0
H1095 H 0.1221 0.422 0.64533 0.0
C1096 C 0.07953 0.44133 0.72959 0.0
C1097 C 0.0721 0.44524 0.69432 0.0
C1098 C 0.08669 0.43497 0.7088 0.0
C1099 C 0.08648 0.43234 0.65241 0.0
C1100 C 0.07941 0.43663 0.61704 0.0
C1101 C 0.07233 0.44304 0.63772 0.0
C1102 C 0.0915 0.40566 0.57518 0.0
C1103 C 0.10459 0.40845 0.59385 0.0
C1104 C 0.08579 0.41363 0.59333 0.0
C1105 C 0.093 0.4245 0.6308 0.0
C1106 C 0.10621 0.42749 0.64866 0.0
C1107 C 0.11199 0.41958 0.63015 0.0
H1108 H 0.5526 0.63628 0.7509 0.0
H1109 H 0.58257 0.62912 0.66623 0.0
H1110 H 0.56389 0.65996 0.71443 0.0
H1111 H 0.59348 0.6524 0.62883 0.0
H1112 H 0.61992 0.69906 0.62635 0.0
H1113 H 0.6076 0.67553 0.66123 0.0
H1114 H 0.56843 0.67362 0.63039 0.0
H1115 H 0.58088 0.69755 0.59663 0.0
C1116 C 0.56153 0.63973 0.72436 0.0
C1117 C 0.56678 0.63088 0.71196 0.0
C1118 C 0.56794 0.65324 0.70315 0.0
C1119 C 0.57966 0.65812 0.66904 0.0
C1120 C 0.58466 0.64911 0.65589 0.0
C1121 C 0.57835 0.63571 0.67725 0.0
C1122 C 0.60868 0.69365 0.62665 0.0
C1123 C 0.60138 0.70018 0.60843 0.0
C1124 C 0.6016 0.68009 0.6465 0.0
C1125 C 0.58701 0.67263 0.64831 0.0
C1126 C 0.57967 0.67913 0.63 0.0
C1127 C 0.58679 0.69279 0.61026 0.0
H1128 H 0.36748 0.42006 0.60952 0.0
H1129 H 0.36609 0.45291 0.6986 0.0
H1130 H 0.34335 0.41062 0.58285 0.0
H1131 H 0.34179 0.44339 0.67157 0.0
H1132 H 0.29453 0.40868 0.67225 0.0
H1133 H 0.3193 0.42144 0.69293 0.0
H1134 H 0.32853 0.41669 0.5253 0.0
H1135 H 0.30376 0.40385 0.50447 0.0
C1136 C 0.36204 0.42531 0.62325 0.0
C1137 C 0.36867 0.4372 0.6564 0.0
C1138 C 0.34824 0.41996 0.60754 0.0
C1139 C 0.34072 0.42631 0.62495 0.0
C1140 C 0.34735 0.43827 0.65778 0.0
C1141 C 0.36125 0.44373 0.67309 0.0
C1142 C 0.30184 0.41048 0.63962 0.0
C1143 C 0.29718 0.40513 0.58684 0.0
C1144 C 0.31603 0.41787 0.65143 0.0
C1145 C 0.32582 0.41997 0.61081 0.0
C1146 C 0.32119 0.41507 0.55754 0.0
C1147 C 0.30701 0.40778 0.5456 0.0
H1148 H 0.61864 0.92142 0.64285 0.0
H1149 H 0.57898 0.88569 0.60291 0.0
H1150 H 0.60696 0.93317 0.67911 0.0
H1151 H 0.56721 0.89771 0.63781 0.0
H1152 H 0.55111 0.91824 0.75935 0.0
H1153 H 0.56219 0.90577 0.7222 0.0
H1154 H 0.59422 0.94386 0.64969 0.0
H1155 H 0.58348 0.95632 0.68813 0.0
C1156 C 0.6074 0.91612 0.64119 0.0
C1157 C 0.59974 0.90263 0.61984 0.0
C1158 C 0.60069 0.9229 0.66182 0.0
C1159 C 0.58613 0.91642 0.6612 0.0
C1160 C 0.57843 0.90294 0.63951 0.0
C1161 C 0.58517 0.89609 0.61912 0.0
C1162 C 0.56054 0.92393 0.73563 0.0
C1163 C 0.56648 0.93828 0.72708 0.0
C1164 C 0.56683 0.91677 0.71397 0.0
C1165 C 0.57913 0.92382 0.68312 0.0
C1166 C 0.58492 0.93814 0.67414 0.0
C1167 C 0.57871 0.94529 0.69605 0.0
H1168 H 0.04198 0.63182 0.69455 0.0
H1169 H 0.08108 0.63554 0.74281 0.0
H1170 H 0.05414 0.65543 0.65989 0.0
H1171 H 0.0933 0.65945 0.7092 0.0
H1172 H 0.11076 0.69669 0.58976 0.0
H1173 H 0.09913 0.67284 0.62414 0.0
H1174 H 0.06672 0.67876 0.69349 0.0
H1175 H 0.07805 0.70229 0.65816 0.0
C1176 C 0.05318 0.63772 0.69825 0.0
C1177 C 0.06056 0.6318 0.72161 0.0
C1178 C 0.06016 0.6513 0.67853 0.0
C1179 C 0.07469 0.65936 0.68194 0.0
C1180 C 0.0821 0.65346 0.70541 0.0
C1181 C 0.0751 0.63981 0.72506 0.0
C1182 C 0.10112 0.69285 0.61217 0.0
C1183 C 0.09529 0.70135 0.62091 0.0
C1184 C 0.09452 0.67923 0.63221 0.0
C1185 C 0.08197 0.67388 0.66141 0.0
C1186 C 0.07623 0.68246 0.67036 0.0
C1187 C 0.08278 0.69599 0.65024 0.0
H1188 H 0.10979 0.36718 0.73911 0.0
H1189 H 0.13151 0.34634 0.68311 0.0
H1190 H 0.10265 0.35295 0.82141 0.0
H1191 H 0.12404 0.33183 0.76491 0.0
H1192 H 0.12047 0.31869 0.94443 0.0
H1193 H 0.12794 0.33322 0.86269 0.0
H1194 H 0.08743 0.32944 0.85036 0.0
H1195 H 0.08009 0.31525 0.93276 0.0
C1196 C 0.11297 0.35949 0.74416 0.0
C1197 C 0.12123 0.35789 0.70454 0.0
C1198 C 0.10881 0.35128 0.79127 0.0
C1199 C 0.11276 0.34123 0.79978 0.0
C1200 C 0.12098 0.3396 0.76001 0.0
C1201 C 0.12518 0.34786 0.71294 0.0
C1202 C 0.11318 0.321 0.92435 0.0
C1203 C 0.0997 0.31583 0.94518 0.0
C1204 C 0.11743 0.32925 0.87727 0.0
C1205 C 0.10828 0.33248 0.8499 0.0
C1206 C 0.09481 0.32732 0.87085 0.0
C1207 C 0.09058 0.31912 0.91798 0.0
H1208 H 0.69167 0.78809 0.91159 0.0
H1209 H 0.66261 0.75017 0.99434 0.0
H1210 H 0.67593 0.78165 0.83393 0.0
H1211 H 0.64699 0.74359 0.91601 0.0
H1212 H 0.61655 0.74303 0.78857 0.0
H1213 H 0.6319 0.75002 0.86786 0.0
H1214 H 0.66738 0.76481 0.76041 0.0
H1215 H 0.65209 0.75812 0.6812 0.0
C1216 C 0.68193 0.77836 0.91319 0.0
C1217 C 0.67841 0.76962 0.95912 0.0
C1218 C 0.67294 0.77464 0.86851 0.0
C1219 C 0.66023 0.76208 0.86866 0.0
C1220 C 0.65664 0.75341 0.91485 0.0
C1221 C 0.66563 0.75714 0.95962 0.0
C1222 C 0.62763 0.7478 0.78188 0.0
C1223 C 0.6331 0.75004 0.7286 0.0
C1224 C 0.63642 0.75173 0.82733 0.0
C1225 C 0.65086 0.75797 0.82046 0.0
C1226 C 0.65632 0.76021 0.76712 0.0
C1227 C 0.64754 0.7563 0.72171 0.0
H1228 H 0.22714 0.92133 0.93062 0.0
H1229 H 0.1972 0.87885 0.97167 0.0
H1230 H 0.23285 0.91351 0.84666 0.0
H1231 H 0.20316 0.871 0.88809 0.0
H1232 H 0.20707 0.86356 0.70591 0.0
H1233 H 0.20094 0.87145 0.78904 0.0
H1234 H 0.24428 0.90107 0.81682 0.0
H1235 H 0.25037 0.89343 0.73335 0.0
C1236 C 0.22183 0.91031 0.92193 0.0
C1237 C 0.21171 0.90071 0.9579 0.0
C1238 C 0.22516 0.90582 0.87386 0.0
C1239 C 0.21847 0.89162 0.86064 0.0
C1240 C 0.20837 0.88202 0.89669 0.0
C1241 C 0.20503 0.88652 0.9448 0.0
C1242 C 0.21528 0.87179 0.72966 0.0
C1243 C 0.2292 0.87788 0.71293 0.0
C1244 C 0.21178 0.87625 0.77751 0.0
C1245 C 0.22212 0.88688 0.80963 0.0
C1246 C 0.23603 0.89299 0.79268 0.0
C1247 C 0.23953 0.88855 0.7449 0.0
H1248 H 0.30295 0.09054 0.09895 0.0
H1249 H 0.34083 0.11775 0.0119 0.0
H1250 H 0.31554 0.09738 0.18549 0.0
H1251 H 0.35345 0.12451 0.09886 0.0
H1252 H 0.37196 0.11746 0.25924 0.0
H1253 H 0.35959 0.11189 0.17215 0.0
H1254 H 0.32847 0.11936 0.24401 0.0
H1255 H 0.34089 0.12506 0.33134 0.0
C1256 C 0.31396 0.09799 0.09827 0.0
C1257 C 0.32091 0.10359 0.04855 0.0
C1258 C 0.32114 0.10196 0.14788 0.0
C1259 C 0.33545 0.11147 0.14881 0.0
C1260 C 0.34242 0.1171 0.09919 0.0
C1261 C 0.3352 0.11327 0.04952 0.0
C1262 C 0.36249 0.11793 0.25654 0.0
C1263 C 0.35738 0.12168 0.30222 0.0
C1264 C 0.35547 0.11484 0.20655 0.0
C1265 C 0.34311 0.11523 0.20139 0.0
C1266 C 0.33795 0.11892 0.24703 0.0
C1267 C 0.34508 0.12222 0.2969 0.0
H1268 H 0.8736 0.20865 0.31515 0.0
H1269 H 0.898 0.25054 0.25364 0.0
H1270 H 0.88062 0.20004 0.23662 0.0
H1271 H 0.90515 0.24195 0.17577 0.0
H1272 H 0.90299 0.22031 0.01475 0.0
H1273 H 0.89509 0.22815 0.09284 0.0
H1274 H 0.90148 0.20076 0.1989 0.0
H1275 H 0.90918 0.19274 0.12068 0.0
C1276 C 0.88049 0.21603 0.28502 0.0
C1277 C 0.88522 0.23028 0.2906 0.0
C1278 C 0.88456 0.21109 0.24017 0.0
C1279 C 0.8934 0.22031 0.1999 0.0
C1280 C 0.89817 0.23456 0.20566 0.0
C1281 C 0.89413 0.23949 0.25051 0.0
C1282 C 0.90265 0.21591 0.05466 0.0
C1283 C 0.90674 0.20592 0.06151 0.0
C1284 C 0.8982 0.22046 0.09946 0.0
C1285 C 0.89772 0.21512 0.15208 0.0
C1286 C 0.90161 0.20498 0.15879 0.0
C1287 C 0.90609 0.20044 0.114 0.0
H1288 H 0.74654 0.63888 0.22123 0.0
H1289 H 0.78987 0.65334 0.25347 0.0
H1290 H 0.75285 0.65244 0.1372 0.0
H1291 H 0.7962 0.66716 0.16979 0.0
H1292 H 0.80098 0.67815 0.98722 0.0
H1293 H 0.79457 0.66424 0.07063 0.0
H1294 H 0.76409 0.67636 0.10701 0.0
H1295 H 0.77028 0.69002 0.0232 0.0
C1296 C 0.75743 0.64502 0.21058 0.0
C1297 C 0.7677 0.64502 0.24409 0.0
C1298 C 0.76105 0.65285 0.16249 0.0
C1299 C 0.77503 0.66089 0.14676 0.0
C1300 C 0.78532 0.66093 0.18037 0.0
C1301 C 0.7817 0.65308 0.22853 0.0
C1302 C 0.79287 0.6778 0.0129 0.0
C1303 C 0.78613 0.68518 0.9985 0.0
C1304 C 0.78927 0.66991 0.06091 0.0
C1305 C 0.77884 0.66921 0.09556 0.0
C1306 C 0.77205 0.67653 0.08092 0.0
C1307 C 0.77564 0.68442 0.03295 0.0
H1308 H 0.91723 0.68732 0.10666 0.0
H1309 H 0.87494 0.6784 0.08613 0.0
H1310 H 0.91 0.67115 0.18324 0.0
H1311 H 0.86776 0.6623 0.16322 0.0
H1312 H 0.85873 0.62283 0.25969 0.0
H1313 H 0.86559 0.63948 0.18474 0.0
H1314 H 0.90121 0.66896 0.27796 0.0
H1315 H 0.89446 0.65229 0.35278 0.0
C1316 C 0.9064 0.68195 0.11857 0.0
C1317 C 0.89666 0.68414 0.09025 0.0
C1318 C 0.90228 0.67274 0.16267 0.0
C1319 C 0.88832 0.66547 0.17926 0.0
C1320 C 0.87857 0.66766 0.15101 0.0
C1321 C 0.8827 0.67693 0.10705 0.0
C1322 C 0.86801 0.63288 0.26428 0.0
C1323 C 0.87607 0.63622 0.31211 0.0
C1324 C 0.87188 0.64243 0.22146 0.0
C1325 C 0.88395 0.65551 0.22546 0.0
C1326 C 0.89195 0.6589 0.27348 0.0
C1327 C 0.88803 0.64938 0.31642 0.0
H1328 H 0.30704 0.18968 0.04762 0.0
H1329 H 0.30306 0.22633 0.0565 0.0
H1330 H 0.32153 0.19714 0.12939 0.0
H1331 H 0.31722 0.2336 0.13899 0.0
H1332 H 0.35513 0.2498 0.24997 0.0
H1333 H 0.34077 0.24227 0.16808 0.0
H1334 H 0.32022 0.19996 0.22686 0.0
H1335 H 0.33487 0.20745 0.30825 0.0
C1336 C 0.30921 0.1993 0.06712 0.0
C1337 C 0.30392 0.20742 0.04546 0.0
C1338 C 0.31744 0.20353 0.11423 0.0
C1339 C 0.32053 0.21596 0.14083 0.0
C1340 C 0.31522 0.22407 0.11911 0.0
C1341 C 0.30703 0.21987 0.07193 0.0
C1342 C 0.34754 0.23889 0.24552 0.0
C1343 C 0.34616 0.22922 0.28565 0.0
C1344 C 0.33924 0.23458 0.19865 0.0
C1345 C 0.32932 0.22051 0.19087 0.0
C1346 C 0.32789 0.21085 0.23118 0.0
C1347 C 0.33623 0.21515 0.27802 0.0
H1348 H 0.74816 0.08559 0.01703 0.0
H1349 H 0.78555 0.09226 0.09815 0.0
H1350 H 0.74266 0.09549 0.0955 0.0
H1351 H 0.78017 0.10241 0.17611 0.0
H1352 H 0.75806 0.10583 0.32888 0.0
H1353 H 0.76352 0.09571 0.25094 0.0
H1354 H 0.75109 0.11785 0.14043 0.0
H1355 H 0.74539 0.12777 0.21826 0.0
C1356 C 0.75523 0.0892 0.05151 0.0
C1357 C 0.76729 0.08813 0.05132 0.0
C1358 C 0.75212 0.09495 0.09635 0.0
C1359 C 0.76099 0.09977 0.14199 0.0
C1360 C 0.77303 0.09865 0.14187 0.0
C1361 C 0.77615 0.09289 0.09703 0.0
C1362 C 0.75651 0.10855 0.28796 0.0
C1363 C 0.75128 0.11759 0.27977 0.0
C1364 C 0.7597 0.1028 0.2433 0.0
C1365 C 0.75772 0.10596 0.18949 0.0
C1366 C 0.75255 0.11506 0.18136 0.0
C1367 C 0.74937 0.12081 0.226 0.0
H1368 H 0.64333 0.89944 0.70108 0.0
H1369 H 0.63469 0.85804 0.74177 0.0
H1370 H 0.65842 0.90856 0.78063 0.0
H1371 H 0.6496 0.86717 0.82212 0.0
H1372 H 0.68876 0.89114 0.92822 0.0
H1373 H 0.67396 0.88173 0.84774 0.0
H1374 H 0.6564 0.90799 0.87975 0.0
H1375 H 0.67136 0.91761 0.95946 0.0
C1376 C 0.64463 0.89227 0.72703 0.0
C1377 C 0.63778 0.878 0.71514 0.0
C1378 C 0.65322 0.89749 0.77284 0.0
C1379 C 0.65515 0.88858 0.80789 0.0
C1380 C 0.64843 0.87433 0.79564 0.0
C1381 C 0.63984 0.86909 0.74974 0.0
C1382 C 0.68172 0.89489 0.91812 0.0
C1383 C 0.68127 0.90516 0.95014 0.0
C1384 C 0.67319 0.88944 0.87216 0.0
C1385 C 0.66404 0.89415 0.85724 0.0
C1386 C 0.6635 0.90431 0.88963 0.0
C1387 C 0.67202 0.90976 0.93554 0.0
H1388 H 0.11421 0.78315 0.64895 0.0
H1389 H 0.11854 0.75129 0.73274 0.0
H1390 H 0.10871 0.79015 0.73616 0.0
H1391 H 0.11315 0.75837 0.81954 0.0
H1392 H 0.11746 0.78563 0.96983 0.0
H1393 H 0.12392 0.77959 0.88267 0.0
H1394 H 0.0886 0.77863 0.80491 0.0
H1395 H 0.08205 0.78456 0.89183 0.0
C1396 C 0.11407 0.77771 0.68593 0.0
C1397 C 0.11677 0.76665 0.68396 0.0
C1398 C 0.11086 0.78167 0.73572 0.0
C1399 C 0.11052 0.77479 0.7845 0.0
C1400 C 0.11346 0.76391 0.78263 0.0
C1401 C 0.11646 0.75982 0.73285 0.0
C1402 C 0.11107 0.78412 0.93415 0.0
C1403 C 0.09923 0.78553 0.93775 0.0
C1404 C 0.11476 0.78064 0.88436 0.0
C1405 C 0.10678 0.7787 0.8371 0.0
C1406 C 0.09501 0.78021 0.8406 0.0
C1407 C 0.09121 0.7835 0.89047 0.0
H1408 H 0.21923 0.31697 0.9924 0.0
H1409 H 0.19633 0.28207 0.88406 0.0
H1410 H 0.22675 0.33265 0.91412 0.0
H1411 H 0.20405 0.29776 0.80568 0.0
H1412 H 0.20875 0.33204 0.68711 0.0
H1413 H 0.20087 0.31618 0.76496 0.0
H1414 H 0.24205 0.3383 0.83462 0.0
H1415 H 0.24988 0.35429 0.75735 0.0
C1416 C 0.21581 0.31264 0.95189 0.0
C1417 C 0.20718 0.29827 0.94446 0.0
C1418 C 0.22019 0.32162 0.907 0.0
C1419 C 0.21603 0.31644 0.85369 0.0
C1420 C 0.20732 0.30208 0.8463 0.0
C1421 C 0.20295 0.29309 0.8912 0.0
C1422 C 0.21612 0.33352 0.719 0.0
C1423 C 0.22993 0.34445 0.71608 0.0
C1424 C 0.21162 0.32438 0.76346 0.0
C1425 C 0.22083 0.32601 0.80601 0.0
C1426 C 0.23466 0.33689 0.80288 0.0
C1427 C 0.23916 0.346 0.7584 0.0
H1428 H -0.0002 0.46333 0.60983 0.0
H1429 H 0.01832 0.43908 0.55795 0.0
H1430 H 0.9844 0.45513 0.53033 0.0
H1431 H 0.00286 0.43078 0.47937 0.0
H1432 H 0.98369 0.43007 0.31501 0.0
H1433 H -0.0008 0.43971 0.39329 0.0
H1434 H 0.96469 0.43352 0.49438 0.0
H1435 H 0.94917 0.42407 0.41584 0.0
C1436 C 0.00056 0.45623 0.58164 0.0
C1437 C 0.0103 0.45189 0.59017 0.0
C1438 C 0.99171 0.4515 0.53624 0.0
C1439 C 0.99247 0.44237 0.49842 0.0
C1440 C 0.00217 0.43799 0.50723 0.0
C1441 C 0.01097 0.44268 0.55254 0.0
C1442 C 0.97941 0.43083 0.35382 0.0
C1443 C 0.96518 0.42624 0.35926 0.0
C1444 C 0.98829 0.43629 0.39876 0.0
C1445 C 0.98315 0.43729 0.45011 0.0
C1446 C 0.96898 0.43299 0.45525 0.0
C1447 C 0.96008 0.42751 0.4103 0.0
H1448 H 0.5474 0.54681 0.37452 0.0
H1449 H 0.58548 0.55278 0.44672 0.0
H1450 H 0.54084 0.55245 0.46224 0.0
H1451 H 0.57884 0.55832 0.53433 0.0
H1452 H 0.5539 0.55212 0.69429 0.0
H1453 H 0.55982 0.54569 0.60665 0.0
H1454 H 0.55012 0.57395 0.52275 0.0
H1455 H 0.5443 0.58045 0.60987 0.0
C1456 C 0.55437 0.54934 0.40903 0.0
C1457 C 0.56697 0.54938 0.40365 0.0
C1458 C 0.55062 0.55259 0.45915 0.0
C1459 C 0.55932 0.55576 0.50503 0.0
C1460 C 0.57189 0.55577 0.49974 0.0
C1461 C 0.57572 0.5527 0.44947 0.0
C1462 C 0.55298 0.5569 0.6571 0.0
C1463 C 0.54866 0.5668 0.659 0.0
C1464 C 0.55643 0.55328 0.60707 0.0
C1465 C 0.55542 0.55934 0.55802 0.0
C1466 C 0.55088 0.56904 0.55988 0.0
C1467 C 0.54763 0.5728 0.60984 0.0
H1468 H 0.45352 0.97921 0.59706 0.0
H1469 H 0.41154 0.97086 0.57241 0.0
H1470 H 0.46125 0.99508 0.51912 0.0
H1471 H 0.41931 0.98679 0.49495 0.0
H1472 H 0.43567 0.0059 0.32712 0.0
H1473 H 0.42859 0.98894 0.40101 0.0
H1474 H 0.46383 0.01804 0.49697 0.0
H1475 H 0.47101 0.03497 0.423 0.0
C1476 C 0.44594 0.98073 0.57499 0.0
C1477 C 0.43192 0.97379 0.591 0.0
C1478 C 0.45038 0.98986 0.53053 0.0
C1479 C 0.44088 0.99217 0.50095 0.0
C1480 C 0.42684 0.9851 0.51655 0.0
C1481 C 0.42241 0.97604 0.56116 0.0
C1482 C 0.44196 0.00866 0.36383 0.0
C1483 C 0.45387 0.02181 0.3693 0.0
C1484 C 0.43786 -0.00104 0.40623 0.0
C1485 C 0.44562 0.00218 0.45484 0.0
C1486 C 0.45771 0.01521 0.45979 0.0
C1487 C 0.46177 0.02494 0.41752 0.0
H1488 H 0.52247 0.97975 0.65025 0.0
H1489 H 0.55992 0.97711 0.64307 0.0
H1490 H 0.52974 0.9942 0.56813 0.0
H1491 H 0.56695 0.99115 0.56045 0.0
H1492 H 0.58276 0.02866 0.44946 0.0
H1493 H 0.57513 0.01449 0.53169 0.0
H1494 H 0.53302 0.99322 0.47066 0.0
H1495 H 0.54062 0.00775 0.38875 0.0
C1496 C 0.53222 0.98221 0.63107 0.0
C1497 C 0.54064 0.97734 0.65335 0.0
C1498 C 0.53634 0.99041 0.58379 0.0
C1499 C 0.54894 0.99386 0.55771 0.0
C1500 C 0.5573 0.9889 0.57997 0.0
C1501 C 0.55323 0.98079 0.62727 0.0
C1502 C 0.57187 0.02096 0.45345 0.0
C1503 C 0.5623 0.01932 0.41248 0.0
C1504 C 0.5675 0.01277 0.50056 0.0
C1505 C 0.55347 0.00267 0.50775 0.0
C1506 C 0.54388 0.00103 0.46674 0.0
C1507 C 0.54825 0.00928 0.41963 0.0
H1508 H 0.98042 0.52447 0.41205 0.0
H1509 H 0.97245 0.55858 0.42705 0.0
H1510 H 0.9948 0.53238 0.49422 0.0
H1511 H 0.98647 0.56623 0.50975 0.0
H1512 H 0.02474 0.58506 0.61835 0.0
H1513 H 0.01031 0.57675 0.53693 0.0
H1514 H 0.99348 0.53445 0.59253 0.0
H1515 H 0.00826 0.54277 0.6736 0.0
C1516 C 0.98168 0.53361 0.433 0.0
C1517 C 0.97534 0.54093 0.41285 0.0
C1518 C 0.98984 0.53808 0.48031 0.0
C1519 C 0.99181 0.54996 0.50854 0.0
C1520 C 0.98537 0.55718 0.48854 0.0
C1521 C 0.97727 0.55275 0.44121 0.0
C1522 C 0.01796 0.57398 0.61334 0.0
C1523 C 0.01765 0.56457 0.65251 0.0
C1524 C 0.00962 0.56922 0.56673 0.0
C1525 C 0.0007 0.55493 0.55823 0.0
C1526 C 0.00036 0.54551 0.59749 0.0
C1527 C 0.00876 0.55028 0.64412 0.0
H1528 H 0.43264 0.42226 0.32411 0.0
H1529 H 0.46929 0.42933 0.41245 0.0
H1530 H 0.42682 0.43314 0.39826 0.0
H1531 H 0.46336 0.44006 0.48679 0.0
H1532 H 0.45523 0.47075 0.58343 0.0
H1533 H 0.46156 0.46099 0.50651 0.0
H1534 H 0.41905 0.42767 0.4942 0.0
H1535 H 0.41268 0.43745 0.57039 0.0
C1536 C 0.43945 0.42613 0.35933 0.0
C1537 C 0.4514 0.42488 0.36249 0.0
C1538 C 0.43608 0.4323 0.40188 0.0
C1539 C 0.44462 0.43743 0.44837 0.0
C1540 C 0.45665 0.43634 0.45123 0.0
C1541 C 0.45999 0.4301 0.40879 0.0
C1542 C 0.44723 0.46137 0.56419 0.0
C1543 C 0.43346 0.45488 0.58305 0.0
C1544 C 0.45087 0.45575 0.52035 0.0
C1545 C 0.44079 0.44357 0.49432 0.0
C1546 C 0.42701 0.43716 0.51297 0.0
C1547 C 0.42339 0.44272 0.55688 0.0
H1548 H 0.07164 0.3096 0.232 0.0
H1549 H 0.11581 0.32692 0.20966 0.0
H1550 H 0.07604 0.32362 0.31433 0.0
H1551 H 0.12017 0.34072 0.29231 0.0
H1552 H 0.12379 0.37384 0.41049 0.0
H1553 H 0.11849 0.36039 0.32631 0.0
H1554 H 0.08464 0.32529 0.40769 0.0
H1555 H 0.08977 0.33882 0.4917 0.0
C1556 C 0.08228 0.31636 0.2447 0.0
C1557 C 0.09338 0.31715 0.21421 0.0
C1558 C 0.0848 0.32435 0.29202 0.0
C1559 C 0.09846 0.33331 0.30983 0.0
C1560 C 0.10954 0.33408 0.27928 0.0
C1561 C 0.10703 0.32609 0.23206 0.0
C1562 C 0.11515 0.36328 0.41038 0.0
C1563 C 0.10722 0.35739 0.4579 0.0
C1564 C 0.11218 0.35554 0.3622 0.0
C1565 C 0.1012 0.34173 0.36037 0.0
C1566 C 0.09309 0.33594 0.40757 0.0
C1567 C 0.09607 0.34368 0.45581 0.0
H1568 H 0.63064 0.75105 0.39525 0.0
H1569 H 0.66702 0.75685 0.48211 0.0
H1570 H 0.64425 0.75946 0.31147 0.0
H1571 H 0.68067 0.76547 0.3984 0.0
H1572 H 0.69745 0.76816 0.22383 0.0
H1573 H 0.68354 0.75826 0.30639 0.0
H1574 H 0.66279 0.7817 0.27689 0.0
H1575 H 0.6765 0.79142 0.19423 0.0
C1576 C 0.64152 0.75407 0.39647 0.0
C1577 C 0.64775 0.75334 0.44547 0.0
C1578 C 0.64934 0.75897 0.3485 0.0
C1579 C 0.66357 0.76323 0.34837 0.0
C1580 C 0.66971 0.76216 0.39703 0.0
C1581 C 0.6619 0.75729 0.44507 0.0
C1582 C 0.68993 0.7712 0.23502 0.0
C1583 C 0.68808 0.78057 0.20241 0.0
C1584 C 0.682 0.76557 0.28241 0.0
C1585 C 0.67202 0.76914 0.29805 0.0
C1586 C 0.67023 0.77855 0.26551 0.0
C1587 C 0.67817 0.78421 0.21831 0.0
H1588 H 0.24678 0.91345 0.17217 0.0
H1589 H 0.21625 0.91962 0.25753 0.0
H1590 H 0.2534 0.90731 0.25847 0.0
H1591 H 0.22273 0.91329 0.34348 0.0
H1592 H 0.24652 0.91368 0.49567 0.0
H1593 H 0.24184 0.92153 0.40922 0.0
H1594 H 0.2433 0.88818 0.32468 0.0
H1595 H 0.24818 0.88044 0.41091 0.0
C1596 C 0.2415 0.91354 0.20931 0.0
C1597 C 0.23096 0.91701 0.2079 0.0
C1598 C 0.24525 0.90994 0.25871 0.0
C1599 C 0.23858 0.90979 0.30783 0.0
C1600 C 0.22819 0.91347 0.3065 0.0
C1601 C 0.22442 0.91702 0.25713 0.0
C1602 C 0.24593 0.90807 0.45862 0.0
C1603 C 0.24769 0.89641 0.46027 0.0
C1604 C 0.24317 0.91252 0.40911 0.0
C1605 C 0.24215 0.90545 0.36008 0.0
C1606 C 0.24417 0.89395 0.3616 0.0
C1607 C 0.24689 0.88947 0.41112 0.0
H1608 H 0.3728 0.11672 0.60156 0.0
H1609 H 0.33532 0.08923 0.51287 0.0
H1610 H 0.35995 0.10954 0.68746 0.0
H1611 H 0.32251 0.08196 0.599 0.0
H1612 H 0.30212 0.08701 0.75599 0.0
H1613 H 0.31477 0.0925 0.66965 0.0
H1614 H 0.34778 0.08924 0.74859 0.0
H1615 H 0.3352 0.08388 0.83525 0.0
C1616 C 0.36184 0.10907 0.60038 0.0
C1617 C 0.35508 0.10358 0.55028 0.0
C1618 C 0.3545 0.1049 0.64969 0.0
C1619 C 0.3402 0.0952 0.65004 0.0
C1620 C 0.33348 0.08957 0.60002 0.0
C1621 C 0.34085 0.09368 0.5507 0.0
C1622 C 0.31205 0.08741 0.75495 0.0
C1623 C 0.31767 0.08505 0.80261 0.0
C1624 C 0.31926 0.09047 0.70535 0.0
C1625 C 0.33228 0.09132 0.70228 0.0
C1626 C 0.33783 0.08881 0.74978 0.0
C1627 C 0.33058 0.08567 0.79936 0.0
H1628 H 0.91351 0.24262 0.8213 0.0
H1629 H 0.91913 0.21229 0.73167 0.0
H1630 H 0.90934 0.25118 0.73555 0.0
H1631 H 0.91476 0.22072 0.64613 0.0
H1632 H 0.91854 0.24734 0.49853 0.0
H1633 H 0.92475 0.24089 0.58501 0.0
H1634 H 0.89118 0.24285 0.66541 0.0
H1635 H 0.88509 0.2495 0.57921 0.0
C1636 C 0.9139 0.23781 0.78334 0.0
C1637 C 0.91662 0.22675 0.78337 0.0
C1638 C 0.91144 0.24267 0.73423 0.0
C1639 C 0.91168 0.23661 0.68405 0.0
C1640 C 0.91466 0.22572 0.68403 0.0
C1641 C 0.91709 0.22084 0.73312 0.0
C1642 C 0.91254 0.24649 0.53471 0.0
C1643 C 0.90129 0.24889 0.5319 0.0
C1644 C 0.91605 0.24272 0.58421 0.0
C1645 C 0.90842 0.24131 0.63203 0.0
C1646 C 0.89736 0.244 0.62945 0.0
C1647 C 0.89382 0.24773 0.57994 0.0
H1648 H 0.75136 0.66491 0.78252 0.0
H1649 H 0.78378 0.70066 0.69854 0.0
H1650 H 0.74417 0.65235 0.69601 0.0
H1651 H 0.77675 0.688 0.61226 0.0
H1652 H 0.75299 0.66563 0.45862 0.0
H1653 H 0.75809 0.67829 0.54494 0.0
H1654 H 0.75303 0.64213 0.63118 0.0
H1655 H 0.74768 0.62941 0.54523 0.0
C1656 C 0.75695 0.6701 0.74562 0.0
C1657 C 0.76817 0.68377 0.7475 0.0
C1658 C 0.75286 0.66287 0.69606 0.0
C1659 C 0.7599 0.66915 0.64722 0.0
C1660 C 0.77098 0.68291 0.64899 0.0
C1661 C 0.77507 0.69014 0.69855 0.0
C1662 C 0.75286 0.66035 0.49604 0.0
C1663 C 0.74996 0.64652 0.49497 0.0
C1664 C 0.75587 0.66763 0.54548 0.0
C1665 C 0.75602 0.66124 0.59495 0.0
C1666 C 0.75284 0.64732 0.59394 0.0
C1667 C 0.74985 0.64004 0.54456 0.0
H1668 H 0.8811 0.62676 0.63577 0.0
H1669 H 0.91231 0.66352 0.55276 0.0
H1670 H 0.88592 0.6399 0.72057 0.0
H1671 H 0.91691 0.67672 0.63737 0.0
H1672 H 0.92868 0.69401 0.8114 0.0
H1673 H 0.92597 0.67988 0.73069 0.0
H1674 H 0.88149 0.65789 0.75341 0.0
H1675 H 0.88418 0.67175 0.83421 0.0
C1676 C 0.88906 0.63762 0.63567 0.0
C1677 C 0.89624 0.64412 0.58735 0.0
C1678 C 0.89176 0.64517 0.68422 0.0
C1679 C 0.90168 0.6594 0.68559 0.0
C1680 C 0.90927 0.66576 0.63783 0.0
C1681 C 0.90658 0.6582 0.58923 0.0
C1682 C 0.91833 0.68612 0.79922 0.0
C1683 C 0.90664 0.68401 0.82924 0.0
C1684 C 0.91678 0.67807 0.75289 0.0
C1685 C 0.90352 0.66772 0.73574 0.0
C1686 C 0.89187 0.6656 0.766 0.0
C1687 C 0.89341 0.67363 0.81215 0.0
H1688 H 0.32029 0.20853 0.79058 0.0
H1689 H 0.29738 0.22962 0.75644 0.0
H1690 H 0.33364 0.218 0.70705 0.0
H1691 H 0.31102 0.23941 0.6733 0.0
H1692 H 0.32682 0.24009 0.49779 0.0
H1693 H 0.31391 0.23217 0.5833 0.0
H1694 H 0.35118 0.23935 0.66674 0.0
H1695 H 0.36402 0.24693 0.58098 0.0
C1696 C 0.31817 0.21528 0.76547 0.0
C1697 C 0.30774 0.21829 0.78015 0.0
C1698 C 0.3259 0.2208 0.71769 0.0
C1699 C 0.32344 0.2295 0.68347 0.0
C1700 C 0.31307 0.2326 0.69838 0.0
C1701 C 0.3053 0.22705 0.74617 0.0
C1702 C 0.33229 0.24007 0.53444 0.0
C1703 C 0.34643 0.24406 0.53246 0.0
C1704 C 0.32489 0.23559 0.58358 0.0
C1705 C 0.33148 0.23504 0.63189 0.0
C1706 C 0.34572 0.2394 0.63012 0.0
C1707 C 0.3531 0.24383 0.58098 0.0
H1708 H 0.76235 0.06884 0.78709 0.0
H1709 H 0.78859 0.11302 0.81118 0.0
H1710 H 0.75233 0.07326 0.70589 0.0
H1711 H 0.77882 0.11741 0.72972 0.0
H1712 H 0.74985 0.1215 0.61205 0.0
H1713 H 0.75756 0.11569 0.69621 0.0
H1714 H 0.75883 0.08208 0.61302 0.0
H1715 H 0.75081 0.08768 0.52912 0.0
C1716 C 0.76601 0.07948 0.775 0.0
C1717 C 0.77627 0.09057 0.80563 0.0
C1718 C 0.7603 0.08202 0.72835 0.0
C1719 C 0.76473 0.09569 0.71139 0.0
C1720 C 0.77499 0.10675 0.74213 0.0
C1721 C 0.78067 0.10423 0.78867 0.0
C1722 C 0.75165 0.11279 0.6118 0.0
C1723 C 0.74979 0.10511 0.56374 0.0
C1724 C 0.75616 0.10952 0.65999 0.0
C1725 C 0.75895 0.0985 0.66125 0.0
C1726 C 0.75667 0.09055 0.61362 0.0
C1727 C 0.75214 0.09381 0.56542 0.0
H1728 H 0.68735 0.89386 0.21858 0.0
H1729 H 0.68445 0.93116 0.22543 0.0
H1730 H 0.6723 0.88479 0.2982 0.0
H1731 H 0.66957 0.92215 0.30609 0.0
H1732 H 0.6313 0.89449 0.41279 0.0
H1733 H 0.64626 0.9039 0.33256 0.0
H1734 H 0.67274 0.889 0.39555 0.0
H1735 H 0.65768 0.87938 0.47495 0.0
C1736 C 0.68356 0.90017 0.23723 0.0
C1737 C 0.68711 0.91325 0.21561 0.0
C1738 C 0.67499 0.89499 0.28312 0.0
C1739 C 0.66976 0.90276 0.30862 0.0
C1740 C 0.6733 0.91584 0.28703 0.0
C1741 C 0.6819 0.92104 0.24103 0.0
C1742 C 0.6403 0.89321 0.40944 0.0
C1743 C 0.64326 0.88614 0.45017 0.0
C1744 C 0.64893 0.89868 0.36365 0.0
C1745 C 0.66068 0.89718 0.35761 0.0
C1746 C 0.66365 0.89016 0.39852 0.0
C1747 C 0.65505 0.8847 0.44421 0.0
H1748 H 0.11404 0.74687 0.38957 0.0
H1749 H 0.08323 0.75276 0.47418 0.0
H1750 H 0.10752 0.75309 0.30332 0.0
H1751 H 0.07666 0.75887 0.38764 0.0
H1752 H 0.08245 0.7861 0.23538 0.0
H1753 H 0.08738 0.77838 0.32157 0.0
H1754 H 0.08797 0.74452 0.23758 0.0
H1755 H 0.08313 0.75229 0.1511 0.0
C1756 C 0.10581 0.7494 0.38975 0.0
C1757 C 0.09918 0.74936 0.43884 0.0
C1758 C 0.10203 0.75288 0.34023 0.0
C1759 C 0.09159 0.75649 0.33867 0.0
C1760 C 0.08485 0.75628 0.38763 0.0
C1761 C 0.08856 0.75271 0.43715 0.0
C1762 C 0.08357 0.77697 0.23525 0.0
C1763 C 0.08244 0.76984 0.18628 0.0
C1764 C 0.08632 0.7725 0.28474 0.0
C1765 C 0.08807 0.76084 0.28638 0.0
C1766 C 0.0868 0.75362 0.23753 0.0
C1767 C 0.08396 0.75804 0.18804 0.0
H1768 H 0.23648 0.33177 0.18512 0.0
H1769 H 0.21364 0.29366 0.27693 0.0
H1770 H 0.24518 0.34466 0.27027 0.0
H1771 H 0.22221 0.30662 0.36219 0.0
H1772 H 0.25057 0.33288 0.50224 0.0
H1773 H 0.24359 0.32008 0.41601 0.0
H1774 H 0.23569 0.35127 0.3474 0.0
H1775 H 0.24285 0.36415 0.43305 0.0
C1776 C 0.23333 0.32613 0.22344 0.0
C1777 C 0.22433 0.31169 0.22421 0.0
C1778 C 0.23827 0.33354 0.27226 0.0
C1779 C 0.23434 0.32667 0.32299 0.0
C1780 C 0.22554 0.31219 0.32376 0.0
C1781 C 0.22057 0.30478 0.27489 0.0
C1782 C 0.24742 0.33704 0.46865 0.0
C1783 C 0.24725 0.34953 0.47456 0.0
C1784 C 0.24334 0.32967 0.41937 0.0
C1785 C 0.23907 0.33466 0.3749 0.0
C1786 C 0.23909 0.34724 0.38064 0.0
C1787 C 0.24312 0.35458 0.42989 0.0
H1788 H 0.03083 0.45156 0.87974 0.0
H1789 H 0.99744 0.41604 0.79838 0.0
H1790 H 0.01813 0.44414 0.96583 0.0
H1791 H 0.98483 0.40852 0.88486 0.0
H1792 H 0.95985 0.41112 0.03172 0.0
H1793 H 0.97279 0.41655 0.94612 0.0
H1794 H 0.00997 0.42593 0.03568 0.0
H1795 H 0.99708 0.42069 0.12144 0.0
C1796 C 0.02084 0.44209 0.8803 0.0
C1797 C 0.01512 0.43443 0.8321 0.0
C1798 C 0.0136 0.4378 0.92976 0.0
C1799 C 0.00045 0.42576 0.93216 0.0
C1800 C 0.99486 0.41794 0.88419 0.0
C1801 C 0.00213 0.42221 0.83472 0.0
C1802 C 0.97076 0.41425 0.03317 0.0
C1803 C 0.97744 0.41553 0.08347 0.0
C1804 C 0.97816 0.41729 0.98405 0.0
C1805 C 0.99242 0.42171 0.98411 0.0
C1806 C -0.00096 0.42272 0.03433 0.0
C1807 C 0.99163 0.41965 0.08345 0.0
H1808 H 0.58181 0.58259 0.19057 0.0
H1809 H 0.58521 0.55058 0.1037 0.0
H1810 H 0.57687 0.59042 0.10447 0.0
H1811 H 0.58016 0.55835 0.01786 0.0
H1812 H 0.58289 0.58387 0.86711 0.0
H1813 H 0.59 0.57818 0.95332 0.0
H1814 H 0.5575 0.58119 0.03788 0.0
H1815 H 0.55044 0.58698 0.95196 0.0
C1816 C 0.58158 0.57727 0.15312 0.0
C1817 C 0.58386 0.56593 0.15407 0.0
C1818 C 0.57868 0.58171 0.10385 0.0
C1819 C 0.57809 0.57498 0.05438 0.0
C1820 C 0.58068 0.56384 0.05518 0.0
C1821 C 0.58349 0.55934 0.10446 0.0
C1822 C 0.57732 0.58342 0.90414 0.0
C1823 C 0.56607 0.58585 0.90258 0.0
C1824 C 0.58135 0.58009 0.95347 0.0
C1825 C 0.57429 0.57921 0.00239 0.0
C1826 C 0.56324 0.58193 0.00101 0.0
C1827 C 0.55915 0.58517 0.95167 0.0
H1828 H 0.41673 0.99673 0.12808 0.0
H1829 H 0.44955 0.03313 0.04885 0.0
H1830 H 0.41228 0.98375 0.04301 0.0
H1831 H 0.44488 0.02022 0.96349 0.0
H1832 H 0.44556 0.98783 0.84914 0.0
H1833 H 0.44845 0.00175 0.93006 0.0
H1834 H 0.4039 0.9813 0.94934 0.0
H1835 H 0.401 0.96711 0.86875 0.0
C1836 C 0.42285 0.00203 0.09231 0.0
C1837 C 0.43358 0.01594 0.0954 0.0
C1838 C 0.42026 0.9946 0.04344 0.0
C1839 C 0.42831 0.00091 0.99656 0.0
C1840 C 0.43866 0.01498 0.99913 0.0
C1841 C 0.44128 0.0224 0.04799 0.0
C1842 C 0.43637 0.98631 0.87048 0.0
C1843 C 0.42305 0.97633 0.85256 0.0
C1844 C 0.43802 0.99438 0.91668 0.0
C1845 C 0.42641 0.99268 0.9461 0.0
C1846 C 0.41307 0.98277 0.92791 0.0
C1847 C 0.41141 0.97469 0.8816 0.0
H1848 H 0.54757 0.99686 0.90195 0.0
H1849 H 0.56346 0.96972 0.94504 0.0
H1850 H 0.55714 0.00989 0.98602 0.0
H1851 H 0.57338 0.98303 0.02872 0.0
H1852 H 0.5733 -0.00041 0.20233 0.0
H1853 H 0.5659 0.98707 0.11592 0.0
H1854 H 0.57855 0.02564 0.03074 0.0
H1855 H 0.58559 0.03812 0.11739 0.0
C1856 C 0.55322 0.99374 0.92914 0.0
C1857 C 0.5547 0.98221 0.91683 0.0
C1858 C 0.5588 0.00129 0.97723 0.0
C1859 C 0.56607 0.99755 0.01416 0.0
C1860 C 0.5677 0.9861 0.00154 0.0
C1861 C 0.56206 0.97851 0.95343 0.0
C1862 C 0.57462 0.00543 0.16512 0.0
C1863 C 0.57994 0.01985 0.16686 0.0
C1864 C 0.57044 0.99824 0.11547 0.0
C1865 C 0.57152 0.00532 0.06635 0.0
C1866 C 0.57731 0.01982 0.06791 0.0
C1867 C 0.58144 0.02699 0.11757 0.0
H1868 H 0.03454 0.5811 0.94516 0.0
H1869 H 0.99782 0.57688 0.86645 0.0
H1870 H 0.02164 0.57242 0.03039 0.0
H1871 H 0.98487 0.56797 0.95146 0.0
H1872 H 0.96909 0.56389 0.12717 0.0
H1873 H 0.98284 0.57453 0.045 0.0
H1874 H 0.00317 0.55036 0.06538 0.0
H1875 H 0.98964 0.53992 0.14787 0.0
C1876 C 0.02373 0.57838 0.94606 0.0
C1877 C 0.0172 0.57964 0.8989 0.0
C1878 C 0.01631 0.57332 0.99484 0.0
C1879 C 0.0022 0.56942 0.99765 0.0
C1880 C 0.99576 0.571 0.95085 0.0
C1881 C 0.00317 0.57605 0.90201 0.0
C1882 C 0.97653 0.56088 0.11422 0.0
C1883 C 0.97826 0.55104 0.14408 0.0
C1884 C 0.98436 0.56694 0.06698 0.0
C1885 C 0.99411 0.56331 0.04864 0.0
C1886 C 0.99589 0.55354 0.07879 0.0
C1887 C 0.98806 0.54748 0.12592 0.0
H1888 H 0.41707 0.41943 0.12274 0.0
H1889 H 0.44456 0.4086 0.03884 0.0
H1890 H 0.41315 0.42824 0.03731 0.0
H1891 H 0.4404 0.41716 0.95319 0.0
H1892 H 0.44526 0.45154 0.83531 0.0
H1893 H 0.4471 0.44001 0.91685 0.0
H1894 H 0.4031 0.42215 0.94574 0.0
H1895 H 0.40129 0.43393 0.86446 0.0
C1896 C 0.4221 0.41872 0.08592 0.0
C1897 C 0.43124 0.41343 0.08775 0.0
C1898 C 0.4198 0.42372 0.03685 0.0
C1899 C 0.42657 0.42353 0.98854 0.0
C1900 C 0.43523 0.41769 0.98992 0.0
C1901 C 0.43754 0.41269 0.03896 0.0
C1902 C 0.43596 0.44513 0.8589 0.0
C1903 C 0.42314 0.4437 0.84346 0.0
C1904 C 0.43699 0.43842 0.90545 0.0
C1905 C 0.42524 0.43011 0.93771 0.0
C1906 C 0.41238 0.42858 0.92203 0.0
C1907 C 0.41134 0.43529 0.87536 0.0
loop_
_geom_bond_atom_site_label_1
_geom_bond_atom_site_label_2
_geom_bond_distance
_geom_bond_site_symmetry_2
_ccdc_geom_bond_type
C0 O1 1.160 . S
C0 O7 1.185 . S
O1 C0 1.160 . S
O2 Zn3 1.899 . S
O2 C10 1.284 . S
Zn3 O2 1.899 . S
Zn3 O4 2.032 . S
Zn3 O7 2.086 . S
Zn3 O12 1.977 . S
O4 Zn3 2.032 . S
O4 C8 1.278 1_554 S
C5 O6 1.203 . S
C5 O12 1.267 . S
O6 C5 1.203 . S
O7 C0 1.185 . S
O7 Zn3 2.086 . S
C8 O4 1.278 1_556 S
C8 O9 1.211 . S
O9 C8 1.211 . S
C10 O2 1.284 . S
C10 O11 1.273 . S
O11 C10 1.273 . S
O12 Zn3 1.977 . S
O12 C5 1.267 . S
C13 O14 1.160 . S
C13 O20 1.185 . S
O14 C13 1.160 . S
O15 Zn16 1.899 . S
O15 C23 1.284 . S
Zn16 O15 1.899 . S
Zn16 O17 2.032 . S
Zn16 O20 2.086 . S
Zn16 O25 1.977 . S
O17 Zn16 2.032 . S
O17 C21 1.278 1_554 S
C18 O19 1.203 . S
C18 O25 1.267 . S
O19 C18 1.203 . S
O20 C13 1.185 . S
O20 Zn16 2.086 . S
C21 O17 1.278 1_556 S
C21 O22 1.211 . S
O22 C21 1.211 . S
C23 O15 1.284 . S
C23 O24 1.273 . S
O24 C23 1.273 . S
O25 Zn16 1.977 . S
O25 C18 1.267 . S
C26 O27 1.160 . S
C26 O33 1.185 . S
O27 C26 1.160 . S
O28 Zn29 1.899 . S
O28 C36 1.284 . S
Zn29 O28 1.899 . S
Zn29 O30 2.032 . S
Zn29 O33 2.086 . S
Zn29 O38 1.977 . S
O30 Zn29 2.032 . S
O30 C34 1.278 1_554 S
C31 O32 1.203 . S
C31 O38 1.267 . S
O32 C31 1.203 . S
O33 C26 1.185 . S
O33 Zn29 2.086 . S
C34 O30 1.278 1_556 S
C34 O35 1.211 . S
O35 C34 1.211 . S
C36 O28 1.284 . S
C36 O37 1.273 . S
O37 C36 1.273 . S
O38 Zn29 1.977 . S
O38 C31 1.267 . S
C39 O40 1.160 . S
C39 O46 1.185 . S
O40 C39 1.160 . S
O41 Zn42 1.899 . S
O41 C49 1.284 . S
Zn42 O41 1.899 . S
Zn42 O43 2.032 . S
Zn42 O46 2.086 . S
Zn42 O51 1.977 . S
O43 Zn42 2.032 . S
O43 C47 1.278 1_556 S
C44 O45 1.203 . S
C44 O51 1.267 . S
O45 C44 1.203 . S
O46 C39 1.185 . S
O46 Zn42 2.086 . S
C47 O43 1.278 1_554 S
C47 O48 1.211 . S
O48 C47 1.211 . S
C49 O41 1.284 . S
C49 O50 1.273 . S
O50 C49 1.273 . S
O51 Zn42 1.977 . S
O51 C44 1.267 . S
C52 O53 1.160 . S
C52 O59 1.185 . S
O53 C52 1.160 . S
O54 Zn55 1.899 . S
O54 C62 1.284 . S
Zn55 O54 1.899 . S
Zn55 O56 2.032 . S
Zn55 O59 2.086 . S
Zn55 O64 1.977 . S
O56 Zn55 2.032 . S
O56 C60 1.278 1_556 S
C57 O58 1.203 . S
C57 O64 1.267 . S
O58 C57 1.203 . S
O59 C52 1.185 . S
O59 Zn55 2.086 . S
C60 O56 1.278 1_554 S
C60 O61 1.211 . S
O61 C60 1.211 . S
C62 O54 1.284 . S
C62 O63 1.273 . S
O63 C62 1.273 . S
O64 Zn55 1.977 . S
O64 C57 1.267 . S
C65 O66 1.160 . S
C65 O72 1.185 . S
O66 C65 1.160 . S
O67 Zn68 1.899 . S
O67 C75 1.284 . S
Zn68 O67 1.899 . S
Zn68 O69 2.032 . S
Zn68 O72 2.086 . S
Zn68 O77 1.977 . S
O69 Zn68 2.032 . S
O69 C73 1.278 1_556 S
C70 O71 1.203 . S
C70 O77 1.267 . S
O71 C70 1.203 . S
O72 C65 1.185 . S
O72 Zn68 2.086 . S
C73 O69 1.278 1_554 S
C73 O74 1.211 . S
O74 C73 1.211 . S
C75 O67 1.284 . S
C75 O76 1.273 . S
O76 C75 1.273 . S
O77 Zn68 1.977 . S
O77 C70 1.267 . S
C78 O79 1.160 . S
C78 O85 1.185 . S
O79 C78 1.160 . S
O80 Zn81 1.899 . S
O80 C88 1.284 . S
Zn81 O80 1.899 . S
Zn81 O82 2.032 . S
Zn81 O85 2.086 . S
Zn81 O90 1.977 . S
O82 Zn81 2.032 . S
O82 C86 1.278 1_556 S
C83 O84 1.203 . S
C83 O90 1.267 . S
O84 C83 1.203 . S
O85 C78 1.185 . S
O85 Zn81 2.086 . S
C86 O82 1.278 1_554 S
C86 O87 1.211 . S
O87 C86 1.211 . S
C88 O80 1.284 . S
C88 O89 1.273 . S
O89 C88 1.273 . S
O90 Zn81 1.977 . S
O90 C83 1.267 . S
C91 O92 1.160 . S
C91 O98 1.185 . S
O92 C91 1.160 . S
O93 Zn94 1.899 . S
O93 C101 1.284 . S
Zn94 O93 1.899 . S
Zn94 O95 2.032 . S
Zn94 O98 2.086 . S
Zn94 O103 1.977 . S
O95 Zn94 2.032 . S
O95 C99 1.278 1_556 S
C96 O97 1.203 . S
C96 O103 1.267 . S
O97 C96 1.203 . S
O98 C91 1.185 . S
O98 Zn94 2.086 . S
C99 O95 1.278 1_554 S
C99 O100 1.211 . S
O100 C99 1.211 . S
C101 O93 1.284 . S
C101 O102 1.273 . S
O102 C101 1.273 . S
O103 Zn94 1.977 . S
O103 C96 1.267 . S
C104 O105 1.160 . S
C104 O111 1.185 . S
O105 C104 1.160 . S
O106 Zn107 1.899 . S
O106 C114 1.284 . S
Zn107 O106 1.899 . S
Zn107 O108 2.032 . S
Zn107 O111 2.086 . S
Zn107 O116 1.977 . S
O108 Zn107 2.032 . S
O108 C112 1.278 1_556 S
C109 O110 1.203 . S
C109 O116 1.267 . S
O110 C109 1.203 . S
O111 C104 1.185 . S
O111 Zn107 2.086 . S
C112 O108 1.278 1_554 S
C112 O113 1.211 . S
O113 C112 1.211 . S
C114 O106 1.284 . S
C114 O115 1.273 . S
O115 C114 1.273 . S
O116 Zn107 1.977 . S
O116 C109 1.267 . S
C117 O118 1.160 . S
C117 O124 1.185 . S
O118 C117 1.160 . S
O119 Zn120 1.899 . S
O119 C127 1.284 . S
Zn120 O119 1.899 . S
Zn120 O121 2.032 . S
Zn120 O124 2.086 . S
Zn120 O129 1.977 . S
O121 Zn120 2.032 . S
O121 C125 1.278 1_554 S
C122 O123 1.203 . S
C122 O129 1.267 . S
O123 C122 1.203 . S
O124 C117 1.185 . S
O124 Zn120 2.086 . S
C125 O121 1.278 1_556 S
C125 O126 1.211 . S
O126 C125 1.211 . S
C127 O119 1.284 . S
C127 O128 1.273 . S
O128 C127 1.273 . S
O129 Zn120 1.977 . S
O129 C122 1.267 . S
C130 O131 1.160 . S
C130 O137 1.185 . S
O131 C130 1.160 . S
O132 Zn133 1.899 . S
O132 C140 1.284 . S
Zn133 O132 1.899 . S
Zn133 O134 2.032 . S
Zn133 O137 2.086 . S
Zn133 O142 1.977 . S
O134 Zn133 2.032 . S
O134 C138 1.278 1_554 S
C135 O136 1.203 . S
C135 O142 1.267 . S
O136 C135 1.203 . S
O137 C130 1.185 . S
O137 Zn133 2.086 . S
C138 O134 1.278 1_556 S
C138 O139 1.211 . S
O139 C138 1.211 . S
C140 O132 1.284 . S
C140 O141 1.273 . S
O141 C140 1.273 . S
O142 Zn133 1.977 . S
O142 C135 1.267 . S
C143 O144 1.160 . S
C143 O150 1.185 . S
O144 C143 1.160 . S
O145 Zn146 1.899 . S
O145 C153 1.284 . S
Zn146 O145 1.899 . S
Zn146 O147 2.032 . S
Zn146 O150 2.086 . S
Zn146 O155 1.977 . S
O147 Zn146 2.032 . S
O147 C151 1.278 1_554 S
C148 O149 1.203 . S
C148 O155 1.267 . S
O149 C148 1.203 . S
O150 C143 1.185 . S
O150 Zn146 2.086 . S
C151 O147 1.278 1_556 S
C151 O152 1.211 . S
O152 C151 1.211 . S
C153 O145 1.284 . S
C153 O154 1.273 . S
O154 C153 1.273 . S
O155 Zn146 1.977 . S
O155 C148 1.267 . S
C156 O157 1.160 . S
C156 O163 1.185 . S
O157 C156 1.160 . S
O158 Zn159 1.899 . S
O158 C166 1.284 . S
Zn159 O158 1.899 . S
Zn159 O160 2.032 . S
Zn159 O163 2.086 . S
Zn159 O168 1.977 . S
O160 Zn159 2.032 . S
O160 C164 1.278 . S
C161 O162 1.203 . S
C161 O168 1.267 . S
O162 C161 1.203 . S
O163 C156 1.185 . S
O163 Zn159 2.086 . S
C164 O160 1.278 . S
C164 O165 1.211 . S
O165 C164 1.211 . S
C166 O158 1.284 . S
C166 O167 1.273 . S
O167 C166 1.273 . S
O168 Zn159 1.977 . S
O168 C161 1.267 . S
C169 O170 1.160 . S
C169 O176 1.185 . S
O170 C169 1.160 . S
O171 Zn172 1.899 . S
O171 C179 1.284 . S
Zn172 O171 1.899 . S
Zn172 O173 2.032 . S
Zn172 O176 2.086 . S
Zn172 O181 1.977 . S
O173 Zn172 2.032 . S
O173 C177 1.278 . S
C174 O175 1.203 . S
C174 O181 1.267 . S
O175 C174 1.203 . S
O176 C169 1.185 . S
O176 Zn172 2.086 . S
C177 O173 1.278 . S
C177 O178 1.211 . S
O178 C177 1.211 . S
C179 O171 1.284 . S
C179 O180 1.273 . S
O180 C179 1.273 . S
O181 Zn172 1.977 . S
O181 C174 1.267 . S
C182 O183 1.160 . S
C182 O189 1.185 . S
O183 C182 1.160 . S
O184 Zn185 1.899 . S
O184 C192 1.284 . S
Zn185 O184 1.899 . S
Zn185 O186 2.032 . S
Zn185 O189 2.086 . S
Zn185 O194 1.977 . S
O186 Zn185 2.032 . S
O186 C190 1.278 . S
C187 O188 1.203 . S
C187 O194 1.267 . S
O188 C187 1.203 . S
O189 C182 1.185 . S
O189 Zn185 2.086 . S
C190 O186 1.278 . S
C190 O191 1.211 . S
O191 C190 1.211 . S
C192 O184 1.284 . S
C192 O193 1.273 . S
O193 C192 1.273 . S
O194 Zn185 1.977 . S
O194 C187 1.267 . S
C195 O196 1.160 . S
C195 O202 1.185 . S
O196 C195 1.160 . S
O197 Zn198 1.899 . S
O197 C205 1.284 . S
Zn198 O197 1.899 . S
Zn198 O199 2.032 . S
Zn198 O202 2.086 . S
Zn198 O207 1.977 . S
O199 Zn198 2.032 . S
O199 C203 1.278 . S
C200 O201 1.203 . S
C200 O207 1.267 . S
O201 C200 1.203 . S
O202 C195 1.185 . S
O202 Zn198 2.086 . S
C203 O199 1.278 . S
C203 O204 1.211 . S
O204 C203 1.211 . S
C205 O197 1.284 . S
C205 O206 1.273 . S
O206 C205 1.273 . S
O207 Zn198 1.977 . S
O207 C200 1.267 . S
C208 O209 1.160 . S
C208 O215 1.185 . S
O209 C208 1.160 . S
O210 Zn211 1.899 . S
O210 C218 1.284 . S
Zn211 O210 1.899 . S
Zn211 O212 2.032 . S
Zn211 O215 2.086 . S
Zn211 O220 1.977 . S
O212 Zn211 2.032 . S
O212 C216 1.278 . S
C213 O214 1.203 . S
C213 O220 1.267 . S
O214 C213 1.203 . S
O215 C208 1.185 . S
O215 Zn211 2.086 . S
C216 O212 1.278 . S
C216 O217 1.211 . S
O217 C216 1.211 . S
C218 O210 1.284 . S
C218 O219 1.273 . S
O219 C218 1.273 . S
O220 Zn211 1.977 . S
O220 C213 1.267 . S
C221 O222 1.160 . S
C221 O228 1.185 . S
O222 C221 1.160 . S
O223 Zn224 1.899 . S
O223 C231 1.284 . S
Zn224 O223 1.899 . S
Zn224 O225 2.032 . S
Zn224 O228 2.086 . S
Zn224 O233 1.977 . S
O225 Zn224 2.032 . S
O225 C229 1.278 . S
C226 O227 1.203 . S
C226 O233 1.267 . S
O227 C226 1.203 . S
O228 C221 1.185 . S
O228 Zn224 2.086 . S
C229 O225 1.278 . S
C229 O230 1.211 . S
O230 C229 1.211 . S
C231 O223 1.284 . S
C231 O232 1.273 . S
O232 C231 1.273 . S
O233 Zn224 1.977 . S
O233 C226 1.267 . S
C234 O235 1.160 . S
C234 O241 1.185 . S
O235 C234 1.160 . S
O236 Zn237 1.899 . S
O236 C244 1.284 . S
Zn237 O236 1.899 . S
Zn237 O238 2.032 . S
Zn237 O241 2.086 . S
Zn237 O246 1.977 . S
O238 Zn237 2.032 . S
O238 C242 1.278 . S
C239 O240 1.203 . S
C239 O246 1.267 . S
O240 C239 1.203 . S
O241 C234 1.185 . S
O241 Zn237 2.086 . S
C242 O238 1.278 . S
C242 O243 1.211 . S
O243 C242 1.211 . S
C244 O236 1.284 . S
C244 O245 1.273 . S
O245 C244 1.273 . S
O246 Zn237 1.977 . S
O246 C239 1.267 . S
C247 O248 1.160 . S
C247 O254 1.185 . S
O248 C247 1.160 . S
O249 Zn250 1.899 . S
O249 C257 1.284 . S
Zn250 O249 1.899 . S
Zn250 O251 2.032 . S
Zn250 O254 2.086 . S
Zn250 O259 1.977 . S
O251 Zn250 2.032 . S
O251 C255 1.278 . S
C252 O253 1.203 . S
C252 O259 1.267 . S
O253 C252 1.203 . S
O254 C247 1.185 . S
O254 Zn250 2.086 . S
C255 O251 1.278 . S
C255 O256 1.211 . S
O256 C255 1.211 . S
C257 O249 1.284 . S
C257 O258 1.273 . S
O258 C257 1.273 . S
O259 Zn250 1.977 . S
O259 C252 1.267 . S
C260 O261 1.160 . S
C260 O267 1.185 . S
O261 C260 1.160 . S
O262 Zn263 1.899 . S
O262 C270 1.284 . S
Zn263 O262 1.899 . S
Zn263 O264 2.032 . S
Zn263 O267 2.086 . S
Zn263 O272 1.977 . S
O264 Zn263 2.032 . S
O264 C268 1.278 . S
C265 O266 1.203 . S
C265 O272 1.267 . S
O266 C265 1.203 . S
O267 C260 1.185 . S
O267 Zn263 2.086 . S
C268 O264 1.278 . S
C268 O269 1.211 . S
O269 C268 1.211 . S
C270 O262 1.284 . S
C270 O271 1.273 . S
O271 C270 1.273 . S
O272 Zn263 1.977 . S
O272 C265 1.267 . S
C273 O274 1.160 . S
C273 O280 1.185 . S
O274 C273 1.160 . S
O275 Zn276 1.899 . S
O275 C283 1.284 . S
Zn276 O275 1.899 . S
Zn276 O277 2.032 . S
Zn276 O280 2.086 . S
Zn276 O285 1.977 . S
O277 Zn276 2.032 . S
O277 C281 1.278 . S
C278 O279 1.203 . S
C278 O285 1.267 . S
O279 C278 1.203 . S
O280 C273 1.185 . S
O280 Zn276 2.086 . S
C281 O277 1.278 . S
C281 O282 1.211 . S
O282 C281 1.211 . S
C283 O275 1.284 . S
C283 O284 1.273 . S
O284 C283 1.273 . S
O285 Zn276 1.977 . S
O285 C278 1.267 . S
C286 O287 1.160 . S
C286 O293 1.185 . S
O287 C286 1.160 . S
O288 Zn289 1.899 . S
O288 C296 1.284 . S
Zn289 O288 1.899 . S
Zn289 O290 2.032 . S
Zn289 O293 2.086 . S
Zn289 O298 1.977 . S
O290 Zn289 2.032 . S
O290 C294 1.278 . S
C291 O292 1.203 . S
C291 O298 1.267 . S
O292 C291 1.203 . S
O293 C286 1.185 . S
O293 Zn289 2.086 . S
C294 O290 1.278 . S
C294 O295 1.211 . S
O295 C294 1.211 . S
C296 O288 1.284 . S
C296 O297 1.273 . S
O297 C296 1.273 . S
O298 Zn289 1.977 . S
O298 C291 1.267 . S
C299 O300 1.160 . S
C299 O306 1.185 . S
O300 C299 1.160 . S
O301 Zn302 1.899 . S
O301 C309 1.284 . S
Zn302 O301 1.899 . S
Zn302 O303 2.032 . S
Zn302 O306 2.086 . S
Zn302 O311 1.977 . S
O303 Zn302 2.032 . S
O303 C307 1.278 . S
C304 O305 1.203 . S
C304 O311 1.267 . S
O305 C304 1.203 . S
O306 C299 1.185 . S
O306 Zn302 2.086 . S
C307 O303 1.278 . S
C307 O308 1.211 . S
O308 C307 1.211 . S
C309 O301 1.284 . S
C309 O310 1.273 . S
O310 C309 1.273 . S
O311 Zn302 1.977 . S
O311 C304 1.267 . S
C312 O313 1.160 . S
C312 O319 1.185 . S
O313 C312 1.160 . S
O314 Zn315 1.899 . S
O314 C322 1.284 . S
Zn315 O314 1.899 . S
Zn315 O316 2.032 . S
Zn315 O319 2.086 . S
Zn315 O324 1.977 . S
O316 Zn315 2.032 . S
O316 C320 1.278 . S
C317 O318 1.203 . S
C317 O324 1.267 . S
O318 C317 1.203 . S
O319 C312 1.185 . S
O319 Zn315 2.086 . S
C320 O316 1.278 . S
C320 O321 1.211 . S
O321 C320 1.211 . S
C322 O314 1.284 . S
C322 O323 1.273 . S
O323 C322 1.273 . S
O324 Zn315 1.977 . S
O324 C317 1.267 . S
C325 O326 1.160 . S
C325 O332 1.185 . S
O326 C325 1.160 . S
O327 Zn328 1.899 . S
O327 C335 1.284 . S
Zn328 O327 1.899 . S
Zn328 O329 2.032 . S
Zn328 O332 2.086 . S
Zn328 O337 1.977 . S
O329 Zn328 2.032 . S
O329 C333 1.278 . S
C330 O331 1.203 . S
C330 O337 1.267 . S
O331 C330 1.203 . S
O332 C325 1.185 . S
O332 Zn328 2.086 . S
C333 O329 1.278 . S
C333 O334 1.211 . S
O334 C333 1.211 . S
C335 O327 1.284 . S
C335 O336 1.273 . S
O336 C335 1.273 . S
O337 Zn328 1.977 . S
O337 C330 1.267 . S
C338 O339 1.160 . S
C338 O345 1.185 . S
O339 C338 1.160 . S
O340 Zn341 1.899 . S
O340 C348 1.284 . S
Zn341 O340 1.899 . S
Zn341 O342 2.032 . S
Zn341 O345 2.086 . S
Zn341 O350 1.977 . S
O342 Zn341 2.032 . S
O342 C346 1.278 . S
C343 O344 1.203 . S
C343 O350 1.267 . S
O344 C343 1.203 . S
O345 C338 1.185 . S
O345 Zn341 2.086 . S
C346 O342 1.278 . S
C346 O347 1.211 . S
O347 C346 1.211 . S
C348 O340 1.284 . S
C348 O349 1.273 . S
O349 C348 1.273 . S
O350 Zn341 1.977 . S
O350 C343 1.267 . S
C351 O352 1.160 . S
C351 O358 1.185 . S
O352 C351 1.160 . S
O353 Zn354 1.899 . S
O353 C361 1.284 . S
Zn354 O353 1.899 . S
Zn354 O355 2.032 . S
Zn354 O358 2.086 . S
Zn354 O363 1.977 . S
O355 Zn354 2.032 . S
O355 C359 1.278 . S
C356 O357 1.203 . S
C356 O363 1.267 . S
O357 C356 1.203 . S
O358 C351 1.185 . S
O358 Zn354 2.086 . S
C359 O355 1.278 . S
C359 O360 1.211 . S
O360 C359 1.211 . S
C361 O353 1.284 . S
C361 O362 1.273 . S
O362 C361 1.273 . S
O363 Zn354 1.977 . S
O363 C356 1.267 . S
C364 O365 1.160 . S
C364 O371 1.185 . S
O365 C364 1.160 . S
O366 Zn367 1.899 . S
O366 C374 1.284 . S
Zn367 O366 1.899 . S
Zn367 O368 2.032 . S
Zn367 O371 2.086 . S
Zn367 O376 1.977 . S
O368 Zn367 2.032 . S
O368 C372 1.278 . S
C369 O370 1.203 . S
C369 O376 1.267 . S
O370 C369 1.203 . S
O371 C364 1.185 . S
O371 Zn367 2.086 . S
C372 O368 1.278 . S
C372 O373 1.211 . S
O373 C372 1.211 . S
C374 O366 1.284 . S
C374 O375 1.273 . S
O375 C374 1.273 . S
O376 Zn367 1.977 . S
O376 C369 1.267 . S
C377 O378 1.160 . S
C377 O384 1.185 . S
O378 C377 1.160 . S
O379 Zn380 1.899 . S
O379 C387 1.284 . S
Zn380 O379 1.899 . S
Zn380 O381 2.032 . S
Zn380 O384 2.086 . S
Zn380 O389 1.977 . S
O381 Zn380 2.032 . S
O381 C385 1.278 . S
C382 O383 1.203 . S
C382 O389 1.267 . S
O383 C382 1.203 . S
O384 C377 1.185 . S
O384 Zn380 2.086 . S
C385 O381 1.278 . S
C385 O386 1.211 . S
O386 C385 1.211 . S
C387 O379 1.284 . S
C387 O388 1.273 . S
O388 C387 1.273 . S
O389 Zn380 1.977 . S
O389 C382 1.267 . S
C390 O391 1.160 . S
C390 O397 1.185 . S
O391 C390 1.160 . S
O392 Zn393 1.899 . S
O392 C400 1.284 . S
Zn393 O392 1.899 . S
Zn393 O394 2.032 . S
Zn393 O397 2.086 . S
Zn393 O402 1.977 . S
O394 Zn393 2.032 . S
O394 C398 1.278 . S
C395 O396 1.203 . S
C395 O402 1.267 . S
O396 C395 1.203 . S
O397 C390 1.185 . S
O397 Zn393 2.086 . S
C398 O394 1.278 . S
C398 O399 1.211 . S
O399 C398 1.211 . S
C400 O392 1.284 . S
C400 O401 1.273 . S
O401 C400 1.273 . S
O402 Zn393 1.977 . S
O402 C395 1.267 . S
C403 O404 1.160 . S
C403 O410 1.185 . S
O404 C403 1.160 . S
O405 Zn406 1.899 . S
O405 C413 1.284 . S
Zn406 O405 1.899 . S
Zn406 O407 2.032 . S
Zn406 O410 2.086 . S
Zn406 O415 1.977 . S
O407 Zn406 2.032 . S
O407 C411 1.278 . S
C408 O409 1.203 . S
C408 O415 1.267 . S
O409 C408 1.203 . S
O410 C403 1.185 . S
O410 Zn406 2.086 . S
C411 O407 1.278 . S
C411 O412 1.211 . S
O412 C411 1.211 . S
C413 O405 1.284 . S
C413 O414 1.273 . S
O414 C413 1.273 . S
O415 Zn406 1.977 . S
O415 C408 1.267 . S
C416 O417 1.160 . S
C416 O423 1.185 . S
O417 C416 1.160 . S
O418 Zn419 1.899 . S
O418 C426 1.284 . S
Zn419 O418 1.899 . S
Zn419 O420 2.032 . S
Zn419 O423 2.086 . S
Zn419 O428 1.977 . S
O420 Zn419 2.032 . S
O420 C424 1.278 . S
C421 O422 1.203 . S
C421 O428 1.267 . S
O422 C421 1.203 . S
O423 C416 1.185 . S
O423 Zn419 2.086 . S
C424 O420 1.278 . S
C424 O425 1.211 . S
O425 C424 1.211 . S
C426 O418 1.284 . S
C426 O427 1.273 . S
O427 C426 1.273 . S
O428 Zn419 1.977 . S
O428 C421 1.267 . S
C429 O430 1.160 . S
C429 O436 1.185 . S
O430 C429 1.160 . S
O431 Zn432 1.899 . S
O431 C439 1.284 . S
Zn432 O431 1.899 . S
Zn432 O433 2.032 . S
Zn432 O436 2.086 . S
Zn432 O441 1.977 . S
O433 Zn432 2.032 . S
O433 C437 1.278 . S
C434 O435 1.203 . S
C434 O441 1.267 . S
O435 C434 1.203 . S
O436 C429 1.185 . S
O436 Zn432 2.086 . S
C437 O433 1.278 . S
C437 O438 1.211 . S
O438 C437 1.211 . S
C439 O431 1.284 . S
C439 O440 1.273 . S
O440 C439 1.273 . S
O441 Zn432 1.977 . S
O441 C434 1.267 . S
C442 O443 1.160 . S
C442 O449 1.185 . S
O443 C442 1.160 . S
O444 Zn445 1.899 . S
O444 C452 1.284 . S
Zn445 O444 1.899 . S
Zn445 O446 2.032 . S
Zn445 O449 2.086 . S
Zn445 O454 1.977 . S
O446 Zn445 2.032 . S
O446 C450 1.278 . S
C447 O448 1.203 . S
C447 O454 1.267 . S
O448 C447 1.203 . S
O449 C442 1.185 . S
O449 Zn445 2.086 . S
C450 O446 1.278 . S
C450 O451 1.211 . S
O451 C450 1.211 . S
C452 O444 1.284 . S
C452 O453 1.273 . S
O453 C452 1.273 . S
O454 Zn445 1.977 . S
O454 C447 1.267 . S
C455 O456 1.160 . S
C455 O462 1.185 . S
O456 C455 1.160 . S
O457 Zn458 1.899 . S
O457 C465 1.284 . S
Zn458 O457 1.899 . S
Zn458 O459 2.032 . S
Zn458 O462 2.086 . S
Zn458 O467 1.977 . S
O459 Zn458 2.032 . S
O459 C463 1.278 . S
C460 O461 1.203 . S
C460 O467 1.267 . S
O461 C460 1.203 . S
O462 C455 1.185 . S
O462 Zn458 2.086 . S
C463 O459 1.278 . S
C463 O464 1.211 . S
O464 C463 1.211 . S
C465 O457 1.284 . S
C465 O466 1.273 . S
O466 C465 1.273 . S
O467 Zn458 1.977 . S
O467 C460 1.267 . S
H468 C476 0.950 . S
H469 C481 0.950 1_556 S
H470 C478 0.950 . S
H471 C480 0.950 1_556 S
H472 C482 0.950 1_556 S
H473 C484 0.950 1_556 S
H474 C486 0.950 . S
H475 C487 0.950 . S
C476 H468 0.950 . S
C476 C477 1.386 . S
C476 C478 1.391 . S
C477 C476 1.386 . S
C477 C481 1.393 . S
C478 H470 0.950 . S
C478 C476 1.391 . S
C478 C479 1.400 . S
C479 C478 1.400 . S
C479 C480 1.398 . S
C479 C485 1.491 . S
C480 H471 0.950 1_554 S
C480 C479 1.398 . S
C480 C481 1.391 . S
C481 H469 0.950 1_554 S
C481 C477 1.393 . S
C481 C480 1.391 . S
C482 H472 0.950 1_554 S
C482 C483 1.386 . S
C482 C484 1.391 . S
C483 C482 1.386 . S
C483 C487 1.393 . S
C484 H473 0.950 1_554 S
C484 C482 1.391 . S
C484 C485 1.400 . S
C485 C479 1.491 . S
C485 C484 1.400 . S
C485 C486 1.398 . S
C486 H474 0.950 . S
C486 C485 1.398 . S
C486 C487 1.391 . S
C487 H475 0.950 . S
C487 C483 1.393 . S
C487 C486 1.391 . S
H488 C496 0.950 . S
H489 C501 0.950 . S
H490 C498 0.950 . S
H491 C500 0.950 . S
H492 C502 0.950 . S
H493 C504 0.950 . S
H494 C506 0.950 . S
H495 C507 0.950 . S
C496 H488 0.950 . S
C496 C497 1.386 . S
C496 C498 1.391 . S
C497 C496 1.386 . S
C497 C501 1.393 . S
C498 H490 0.950 . S
C498 C496 1.391 . S
C498 C499 1.400 . S
C499 C498 1.400 . S
C499 C500 1.398 . S
C499 C505 1.491 . S
C500 H491 0.950 . S
C500 C499 1.398 . S
C500 C501 1.391 . S
C501 H489 0.950 . S
C501 C497 1.393 . S
C501 C500 1.391 . S
C502 H492 0.950 . S
C502 C503 1.386 . S
C502 C504 1.391 . S
C503 C502 1.386 . S
C503 C507 1.393 . S
C504 H493 0.950 . S
C504 C502 1.391 . S
C504 C505 1.400 . S
C505 C499 1.491 . S
C505 C504 1.400 . S
C505 C506 1.398 . S
C506 H494 0.950 . S
C506 C505 1.398 . S
C506 C507 1.391 . S
C507 H495 0.950 . S
C507 C503 1.393 . S
C507 C506 1.391 . S
H508 C516 0.950 . S
H509 C521 0.950 . S
H510 C518 0.950 . S
H511 C520 0.950 . S
H512 C522 0.950 . S
H513 C524 0.950 . S
H514 C526 0.950 . S
H515 C527 0.950 . S
C516 H508 0.950 . S
C516 C517 1.386 . S
C516 C518 1.391 . S
C517 C516 1.386 . S
C517 C521 1.393 . S
C518 H510 0.950 . S
C518 C516 1.391 . S
C518 C519 1.400 . S
C519 C518 1.400 . S
C519 C520 1.398 . S
C519 C525 1.491 . S
C520 H511 0.950 . S
C520 C519 1.398 . S
C520 C521 1.391 . S
C521 H509 0.950 . S
C521 C517 1.393 . S
C521 C520 1.391 . S
C522 H512 0.950 . S
C522 C523 1.386 . S
C522 C524 1.391 . S
C523 C522 1.386 . S
C523 C527 1.393 . S
C524 H513 0.950 . S
C524 C522 1.391 . S
C524 C525 1.400 . S
C525 C519 1.491 . S
C525 C524 1.400 . S
C525 C526 1.398 . S
C526 H514 0.950 . S
C526 C525 1.398 . S
C526 C527 1.391 . S
C527 H515 0.950 . S
C527 C523 1.393 . S
C527 C526 1.391 . S
H528 C536 0.950 . S
H529 C541 0.950 1_554 S
H530 C538 0.950 . S
H531 C540 0.950 1_554 S
H532 C542 0.950 1_554 S
H533 C544 0.950 1_554 S
H534 C546 0.950 . S
H535 C547 0.950 . S
C536 H528 0.950 . S
C536 C537 1.386 . S
C536 C538 1.391 . S
C537 C536 1.386 . S
C537 C541 1.393 . S
C538 H530 0.950 . S
C538 C536 1.391 . S
C538 C539 1.400 . S
C539 C538 1.400 . S
C539 C540 1.398 . S
C539 C545 1.491 . S
C540 H531 0.950 1_556 S
C540 C539 1.398 . S
C540 C541 1.391 . S
C541 H529 0.950 1_556 S
C541 C537 1.393 . S
C541 C540 1.391 . S
C542 H532 0.950 1_556 S
C542 C543 1.386 . S
C542 C544 1.391 . S
C543 C542 1.386 . S
C543 C547 1.393 . S
C544 H533 0.950 1_556 S
C544 C542 1.391 . S
C544 C545 1.400 . S
C545 C539 1.491 . S
C545 C544 1.400 . S
C545 C546 1.398 . S
C546 H534 0.950 . S
C546 C545 1.398 . S
C546 C547 1.391 . S
C547 H535 0.950 . S
C547 C543 1.393 . S
C547 C546 1.391 . S
H548 C556 0.958 . S
H549 C561 0.950 . S
H550 C558 0.963 . S
H551 C560 0.950 . S
H552 C562 0.950 . S
H553 C564 0.950 . S
H554 C566 0.950 . S
H555 C567 0.950 . S
C556 H548 0.958 . S
C556 C557 1.386 . S
C556 C558 1.391 . S
C557 C556 1.386 . S
C557 C561 1.393 . S
C558 H550 0.963 . S
C558 C556 1.391 . S
C558 C559 1.400 . S
C559 C558 1.400 . S
C559 C560 1.398 . S
C559 C565 1.491 . S
C560 H551 0.950 . S
C560 C559 1.398 . S
C560 C561 1.391 . S
C561 H549 0.950 . S
C561 C557 1.393 . S
C561 C560 1.391 . S
C562 H552 0.950 . S
C562 C563 1.386 . S
C562 C564 1.391 . S
C563 C562 1.386 . S
C563 C567 1.393 . S
C564 H553 0.950 . S
C564 C562 1.391 . S
C564 C565 1.400 . S
C565 C559 1.491 . S
C565 C564 1.400 . S
C565 C566 1.398 . S
C566 H554 0.950 . S
C566 C565 1.398 . S
C566 C567 1.391 . S
C567 H555 0.950 . S
C567 C563 1.393 . S
C567 C566 1.391 . S
H568 C576 0.950 . S
H569 C581 0.950 . S
H570 C578 0.950 . S
H571 C580 0.950 . S
H572 C582 0.950 . S
H573 C584 0.950 . S
H574 C586 0.950 . S
H575 C587 0.950 . S
C576 H568 0.950 . S
C576 C577 1.386 . S
C576 C578 1.391 . S
C577 C576 1.386 . S
C577 C581 1.393 . S
C578 H570 0.950 . S
C578 C576 1.391 . S
C578 C579 1.400 . S
C579 C578 1.400 . S
C579 C580 1.398 . S
C579 C585 1.491 . S
C580 H571 0.950 . S
C580 C579 1.398 . S
C580 C581 1.391 . S
C581 H569 0.950 . S
C581 C577 1.393 . S
C581 C580 1.391 . S
C582 H572 0.950 . S
C582 C583 1.386 . S
C582 C584 1.391 . S
C583 C582 1.386 . S
C583 C587 1.393 . S
C584 H573 0.950 . S
C584 C582 1.391 . S
C584 C585 1.400 . S
C585 C579 1.491 . S
C585 C584 1.400 . S
C585 C586 1.398 . S
C586 H574 0.950 . S
C586 C585 1.398 . S
C586 C587 1.391 . S
C587 H575 0.950 . S
C587 C583 1.393 . S
C587 C586 1.391 . S
H588 C596 0.950 . S
H589 C601 0.950 . S
H590 C598 0.950 . S
H591 C600 0.950 . S
H592 C602 0.950 . S
H593 C604 0.950 . S
H594 C606 0.950 . S
H595 C607 0.950 . S
C596 H588 0.950 . S
C596 C597 1.386 . S
C596 C598 1.391 . S
C597 C596 1.386 . S
C597 C601 1.393 . S
C598 H590 0.950 . S
C598 C596 1.391 . S
C598 C599 1.400 . S
C599 C598 1.400 . S
C599 C600 1.398 . S
C599 C605 1.491 . S
C600 H591 0.950 . S
C600 C599 1.398 . S
C600 C601 1.391 . S
C601 H589 0.950 . S
C601 C597 1.393 . S
C601 C600 1.391 . S
C602 H592 0.950 . S
C602 C603 1.386 . S
C602 C604 1.391 . S
C603 C602 1.386 . S
C603 C607 1.393 . S
C604 H593 0.950 . S
C604 C602 1.391 . S
C604 C605 1.400 . S
C605 C599 1.491 . S
C605 C604 1.400 . S
C605 C606 1.398 . S
C606 H594 0.950 . S
C606 C605 1.398 . S
C606 C607 1.391 . S
C607 H595 0.950 . S
C607 C603 1.393 . S
C607 C606 1.391 . S
H608 C616 0.950 . S
H609 C621 0.950 . S
H610 C618 0.950 . S
H611 C620 0.950 . S
H612 C622 0.950 . S
H613 C624 0.950 . S
H614 C626 0.950 . S
H615 C627 0.950 . S
C616 H608 0.950 . S
C616 C617 1.386 . S
C616 C618 1.391 . S
C617 C616 1.386 . S
C617 C621 1.393 . S
C618 H610 0.950 . S
C618 C616 1.391 . S
C618 C619 1.400 . S
C619 C618 1.400 . S
C619 C620 1.398 . S
C619 C625 1.491 . S
C620 H611 0.950 . S
C620 C619 1.398 . S
C620 C621 1.391 . S
C621 H609 0.950 . S
C621 C617 1.393 . S
C621 C620 1.391 . S
C622 H612 0.950 . S
C622 C623 1.386 . S
C622 C624 1.391 . S
C623 C622 1.386 . S
C623 C627 1.393 . S
C624 H613 0.950 . S
C624 C622 1.391 . S
C624 C625 1.400 . S
C625 C619 1.491 . S
C625 C624 1.400 . S
C625 C626 1.398 . S
C626 H614 0.950 . S
C626 C625 1.398 . S
C626 C627 1.391 . S
C627 H615 0.950 . S
C627 C623 1.393 . S
C627 C626 1.391 . S
H628 C636 0.950 . S
H629 C641 0.950 . S
H630 C638 0.950 . S
H631 C640 0.950 . S
H632 C642 0.950 . S
H633 C644 0.950 . S
H634 C646 0.950 . S
H635 C647 0.950 . S
C636 H628 0.950 . S
C636 C637 1.386 . S
C636 C638 1.391 . S
C637 C636 1.386 . S
C637 C641 1.393 . S
C638 H630 0.950 . S
C638 C636 1.391 . S
C638 C639 1.400 . S
C639 C638 1.400 . S
C639 C640 1.398 . S
C639 C645 1.491 . S
C640 H631 0.950 . S
C640 C639 1.398 . S
C640 C641 1.391 . S
C641 H629 0.950 . S
C641 C637 1.393 . S
C641 C640 1.391 . S
C642 H632 0.950 . S
C642 C643 1.386 . S
C642 C644 1.391 . S
C643 C642 1.386 . S
C643 C647 1.393 . S
C644 H633 0.950 . S
C644 C642 1.391 . S
C644 C645 1.400 . S
C645 C639 1.491 . S
C645 C644 1.400 . S
C645 C646 1.398 . S
C646 H634 0.950 . S
C646 C645 1.398 . S
C646 C647 1.391 . S
C647 H635 0.950 . S
C647 C643 1.393 . S
C647 C646 1.391 . S
H648 C656 0.950 . S
H649 C661 0.950 . S
H650 C658 0.950 . S
H651 C660 0.950 . S
H652 C662 0.950 . S
H653 C664 0.950 . S
H654 C666 0.950 . S
H655 C667 0.950 . S
C656 H648 0.950 . S
C656 C657 1.386 . S
C656 C658 1.391 . S
C657 C656 1.386 . S
C657 C661 1.393 . S
C658 H650 0.950 . S
C658 C656 1.391 . S
C658 C659 1.400 . S
C659 C658 1.400 . S
C659 C660 1.398 . S
C659 C665 1.491 . S
C660 H651 0.950 . S
C660 C659 1.398 . S
C660 C661 1.391 . S
C661 H649 0.950 . S
C661 C657 1.393 . S
C661 C660 1.391 . S
C662 H652 0.950 . S
C662 C663 1.386 . S
C662 C664 1.391 . S
C663 C662 1.386 . S
C663 C667 1.393 . S
C664 H653 0.950 . S
C664 C662 1.391 . S
C664 C665 1.400 . S
C665 C659 1.491 . S
C665 C664 1.400 . S
C665 C666 1.398 . S
C666 H654 0.950 . S
C666 C665 1.398 . S
C666 C667 1.391 . S
C667 H655 0.950 . S
C667 C663 1.393 . S
C667 C666 1.391 . S
H668 C676 0.950 . S
H669 C681 0.950 . S
H670 C678 0.950 . S
H671 C680 0.950 . S
H672 C682 0.950 . S
H673 C684 0.950 . S
H674 C686 0.950 . S
H675 C687 0.950 . S
C676 H668 0.950 . S
C676 C677 1.386 . S
C676 C678 1.391 . S
C677 C676 1.386 . S
C677 C681 1.393 . S
C678 H670 0.950 . S
C678 C676 1.391 . S
C678 C679 1.400 . S
C679 C678 1.400 . S
C679 C680 1.398 . S
C679 C685 1.491 . S
C680 H671 0.950 . S
C680 C679 1.398 . S
C680 C681 1.391 . S
C681 H669 0.950 . S
C681 C677 1.393 . S
C681 C680 1.391 . S
C682 H672 0.950 . S
C682 C683 1.386 . S
C682 C684 1.391 . S
C683 C682 1.386 . S
C683 C687 1.393 . S
C684 H673 0.950 . S
C684 C682 1.391 . S
C684 C685 1.400 . S
C685 C679 1.491 . S
C685 C684 1.400 . S
C685 C686 1.398 . S
C686 H674 0.950 . S
C686 C685 1.398 . S
C686 C687 1.391 . S
C687 H675 0.950 . S
C687 C683 1.393 . S
C687 C686 1.391 . S
H688 C696 0.950 . S
H689 C701 0.950 . S
H690 C698 0.950 . S
H691 C700 0.950 . S
H692 C702 0.950 . S
H693 C704 0.950 . S
H694 C706 0.950 . S
H695 C707 0.950 . S
C696 H688 0.950 . S
C696 C697 1.386 . S
C696 C698 1.391 . S
C697 C696 1.386 . S
C697 C701 1.393 . S
C698 H690 0.950 . S
C698 C696 1.391 . S
C698 C699 1.400 . S
C699 C698 1.400 . S
C699 C700 1.398 . S
C699 C705 1.491 . S
C700 H691 0.950 . S
C700 C699 1.398 . S
C700 C701 1.391 . S
C701 H689 0.950 . S
C701 C697 1.393 . S
C701 C700 1.391 . S
C702 H692 0.950 . S
C702 C703 1.386 . S
C702 C704 1.391 . S
C703 C702 1.386 . S
C703 C707 1.393 . S
C704 H693 0.950 . S
C704 C702 1.391 . S
C704 C705 1.400 . S
C705 C699 1.491 . S
C705 C704 1.400 . S
C705 C706 1.398 . S
C706 H694 0.950 . S
C706 C705 1.398 . S
C706 C707 1.391 . S
C707 H695 0.950 . S
C707 C703 1.393 . S
C707 C706 1.391 . S
H708 C716 0.950 . S
H709 C721 0.950 . S
H710 C718 0.950 . S
H711 C720 0.950 . S
H712 C722 0.950 . S
H713 C724 0.950 . S
H714 C726 0.950 . S
H715 C727 0.950 . S
C716 H708 0.950 . S
C716 C717 1.386 . S
C716 C718 1.391 . S
C717 C716 1.386 . S
C717 C721 1.393 . S
C718 H710 0.950 . S
C718 C716 1.391 . S
C718 C719 1.400 . S
C719 C718 1.400 . S
C719 C720 1.398 . S
C719 C725 1.491 . S
C720 H711 0.950 . S
C720 C719 1.398 . S
C720 C721 1.391 . S
C721 H709 0.950 . S
C721 C717 1.393 . S
C721 C720 1.391 . S
C722 H712 0.950 . S
C722 C723 1.386 . S
C722 C724 1.391 . S
C723 C722 1.386 . S
C723 C727 1.393 . S
C724 H713 0.950 . S
C724 C722 1.391 . S
C724 C725 1.400 . S
C725 C719 1.491 . S
C725 C724 1.400 . S
C725 C726 1.398 . S
C726 H714 0.950 . S
C726 C725 1.398 . S
C726 C727 1.391 . S
C727 H715 0.950 . S
C727 C723 1.393 . S
C727 C726 1.391 . S
H728 C736 0.950 . S
H729 C741 0.950 . S
H730 C738 0.950 . S
H731 C740 0.950 . S
H732 C742 0.950 . S
H733 C744 0.950 . S
H734 C746 0.950 . S
H735 C747 0.950 . S
C736 H728 0.950 . S
C736 C737 1.386 . S
C736 C738 1.391 . S
C737 C736 1.386 . S
C737 C741 1.393 . S
C738 H730 0.950 . S
C738 C736 1.391 . S
C738 C739 1.400 . S
C739 C738 1.400 . S
C739 C740 1.398 . S
C739 C745 1.491 . S
C740 H731 0.950 . S
C740 C739 1.398 . S
C740 C741 1.391 . S
C741 H729 0.950 . S
C741 C737 1.393 . S
C741 C740 1.391 . S
C742 H732 0.950 . S
C742 C743 1.386 . S
C742 C744 1.391 . S
C743 C742 1.386 . S
C743 C747 1.393 . S
C744 H733 0.950 . S
C744 C742 1.391 . S
C744 C745 1.400 . S
C745 C739 1.491 . S
C745 C744 1.400 . S
C745 C746 1.398 . S
C746 H734 0.950 . S
C746 C745 1.398 . S
C746 C747 1.391 . S
C747 H735 0.950 . S
C747 C743 1.393 . S
C747 C746 1.391 . S
H748 C756 0.950 . S
H749 C761 0.950 . S
H750 C758 0.950 . S
H751 C760 0.950 . S
H752 C762 0.950 . S
H753 C764 0.950 . S
H754 C766 0.950 . S
H755 C767 0.950 . S
C756 H748 0.950 . S
C756 C757 1.386 . S
C756 C758 1.391 . S
C757 C756 1.386 . S
C757 C761 1.393 . S
C758 H750 0.950 . S
C758 C756 1.391 . S
C758 C759 1.400 . S
C759 C758 1.400 . S
C759 C760 1.398 . S
C759 C765 1.491 . S
C760 H751 0.950 . S
C760 C759 1.398 . S
C760 C761 1.391 . S
C761 H749 0.950 . S
C761 C757 1.393 . S
C761 C760 1.391 . S
C762 H752 0.950 . S
C762 C763 1.386 . S
C762 C764 1.391 . S
C763 C762 1.386 . S
C763 C767 1.393 . S
C764 H753 0.950 . S
C764 C762 1.391 . S
C764 C765 1.400 . S
C765 C759 1.491 . S
C765 C764 1.400 . S
C765 C766 1.398 . S
C766 H754 0.950 . S
C766 C765 1.398 . S
C766 C767 1.391 . S
C767 H755 0.950 . S
C767 C763 1.393 . S
C767 C766 1.391 . S
H768 C776 0.950 . S
H769 C781 0.950 . S
H770 C778 0.950 . S
H771 C780 0.950 . S
H772 C782 0.950 . S
H773 C784 0.950 . S
H774 C786 0.950 . S
H775 C787 0.950 . S
C776 H768 0.950 . S
C776 C777 1.386 . S
C776 C778 1.391 . S
C777 C776 1.386 . S
C777 C781 1.393 . S
C778 H770 0.950 . S
C778 C776 1.391 . S
C778 C779 1.400 . S
C779 C778 1.400 . S
C779 C780 1.398 . S
C779 C785 1.491 . S
C780 H771 0.950 . S
C780 C779 1.398 . S
C780 C781 1.391 . S
C781 H769 0.950 . S
C781 C777 1.393 . S
C781 C780 1.391 . S
C782 H772 0.950 . S
C782 C783 1.386 . S
C782 C784 1.391 . S
C783 C782 1.386 . S
C783 C787 1.393 . S
C784 H773 0.950 . S
C784 C782 1.391 . S
C784 C785 1.400 . S
C785 C779 1.491 . S
C785 C784 1.400 . S
C785 C786 1.398 . S
C786 H774 0.950 . S
C786 C785 1.398 . S
C786 C787 1.391 . S
C787 H775 0.950 . S
C787 C783 1.393 . S
C787 C786 1.391 . S
H788 C796 0.950 . S
H789 C801 0.950 . S
H790 C798 0.950 . S
H791 C800 0.950 . S
H792 C802 0.950 . S
H793 C804 0.950 . S
H794 C806 0.950 . S
H795 C807 0.950 . S
C796 H788 0.950 . S
C796 C797 1.386 . S
C796 C798 1.391 . S
C797 C796 1.386 . S
C797 C801 1.393 . S
C798 H790 0.950 . S
C798 C796 1.391 . S
C798 C799 1.400 . S
C799 C798 1.400 . S
C799 C800 1.398 . S
C799 C805 1.491 . S
C800 H791 0.950 . S
C800 C799 1.398 . S
C800 C801 1.391 . S
C801 H789 0.950 . S
C801 C797 1.393 . S
C801 C800 1.391 . S
C802 H792 0.950 . S
C802 C803 1.386 . S
C802 C804 1.391 . S
C803 C802 1.386 . S
C803 C807 1.393 . S
C804 H793 0.950 . S
C804 C802 1.391 . S
C804 C805 1.400 . S
C805 C799 1.491 . S
C805 C804 1.400 . S
C805 C806 1.398 . S
C806 H794 0.950 . S
C806 C805 1.398 . S
C806 C807 1.391 . S
C807 H795 0.950 . S
C807 C803 1.393 . S
C807 C806 1.391 . S
H808 C816 0.950 . S
H809 C821 0.950 . S
H810 C818 0.950 . S
H811 C820 0.950 . S
H812 C822 0.950 . S
H813 C824 0.950 . S
H814 C826 0.950 . S
H815 C827 0.950 . S
C816 H808 0.950 . S
C816 C817 1.386 . S
C816 C818 1.391 . S
C817 C816 1.386 . S
C817 C821 1.393 . S
C818 H810 0.950 . S
C818 C816 1.391 . S
C818 C819 1.400 . S
C819 C818 1.400 . S
C819 C820 1.398 . S
C819 C825 1.491 . S
C820 H811 0.950 . S
C820 C819 1.398 . S
C820 C821 1.391 . S
C821 H809 0.950 . S
C821 C817 1.393 . S
C821 C820 1.391 . S
C822 H812 0.950 . S
C822 C823 1.386 . S
C822 C824 1.391 . S
C823 C822 1.386 . S
C823 C827 1.393 . S
C824 H813 0.950 . S
C824 C822 1.391 . S
C824 C825 1.400 . S
C825 C819 1.491 . S
C825 C824 1.400 . S
C825 C826 1.398 . S
C826 H814 0.950 . S
C826 C825 1.398 . S
C826 C827 1.391 . S
C827 H815 0.950 . S
C827 C823 1.393 . S
C827 C826 1.391 . S
H828 C836 0.950 . S
H829 C841 0.950 . S
H830 C838 0.950 . S
H831 C840 0.950 . S
H832 C842 0.950 . S
H833 C844 0.950 . S
H834 C846 0.950 . S
H835 C847 0.950 . S
C836 H828 0.950 . S
C836 C837 1.386 . S
C836 C838 1.391 1_554 S
C837 C836 1.386 . S
C837 C841 1.393 . S
C838 H830 0.950 . S
C838 C836 1.391 1_556 S
C838 C839 1.400 1_556 S
C839 C838 1.400 1_554 S
C839 C840 1.398 . S
C839 C845 1.491 1_454 S
C840 H831 0.950 . S
C840 C839 1.398 . S
C840 C841 1.391 . S
C841 H829 0.950 . S
C841 C837 1.393 . S
C841 C840 1.391 . S
C842 H832 0.950 . S
C842 C843 1.386 . S
C842 C844 1.391 1_556 S
C843 C842 1.386 . S
C843 C847 1.393 . S
C844 H833 0.950 . S
C844 C842 1.391 1_554 S
C844 C845 1.400 1_554 S
C845 C839 1.491 1_656 S
C845 C844 1.400 1_556 S
C845 C846 1.398 . S
C846 H834 0.950 . S
C846 C845 1.398 . S
C846 C847 1.391 . S
C847 H835 0.950 . S
C847 C843 1.393 . S
C847 C846 1.391 . S
H848 C856 0.950 1_554 S
H849 C861 0.950 . S
H850 C858 0.950 . S
H851 C860 0.950 . S
H852 C862 0.950 1_556 S
H853 C864 0.950 . S
H854 C866 0.950 . S
H855 C867 0.950 . S
C856 H848 0.950 1_556 S
C856 C857 1.386 . S
C856 C858 1.391 1_556 S
C857 C856 1.386 . S
C857 C861 1.393 . S
C858 H850 0.950 . S
C858 C856 1.391 1_554 S
C858 C859 1.400 1_554 S
C859 C858 1.400 1_556 S
C859 C860 1.398 . S
C859 C865 1.491 1_556 S
C860 H851 0.950 . S
C860 C859 1.398 . S
C860 C861 1.391 . S
C861 H849 0.950 . S
C861 C857 1.393 . S
C861 C860 1.391 . S
C862 H852 0.950 1_554 S
C862 C863 1.386 . S
C862 C864 1.391 1_554 S
C863 C862 1.386 . S
C863 C867 1.393 . S
C864 H853 0.950 . S
C864 C862 1.391 1_556 S
C864 C865 1.400 1_556 S
C865 C859 1.491 1_554 S
C865 C864 1.400 1_554 S
C865 C866 1.398 . S
C866 H854 0.950 . S
C866 C865 1.398 . S
C866 C867 1.391 . S
C867 H855 0.950 . S
C867 C863 1.393 . S
C867 C866 1.391 . S
H868 C876 0.950 1_556 S
H869 C881 0.950 . S
H870 C878 0.950 . S
H871 C880 0.950 . S
H872 C882 0.950 1_554 S
H873 C884 0.950 . S
H874 C886 0.950 . S
H875 C887 0.950 . S
C876 H868 0.950 1_554 S
C876 C877 1.386 . S
C876 C878 1.391 1_554 S
C877 C876 1.386 . S
C877 C881 1.393 . S
C878 H870 0.950 . S
C878 C876 1.391 1_556 S
C878 C879 1.400 1_556 S
C879 C878 1.400 1_554 S
C879 C880 1.398 . S
C879 C885 1.491 1_564 S
C880 H871 0.950 . S
C880 C879 1.398 . S
C880 C881 1.391 . S
C881 H869 0.950 . S
C881 C877 1.393 . S
C881 C880 1.391 . S
C882 H872 0.950 1_556 S
C882 C883 1.386 . S
C882 C884 1.391 1_556 S
C883 C882 1.386 . S
C883 C887 1.393 . S
C884 H873 0.950 . S
C884 C882 1.391 1_554 S
C884 C885 1.400 1_554 S
C885 C879 1.491 1_546 S
C885 C884 1.400 1_556 S
C885 C886 1.398 . S
C886 H874 0.950 . S
C886 C885 1.398 . S
C886 C887 1.391 . S
C887 H875 0.950 . S
C887 C883 1.393 . S
C887 C886 1.391 . S
H888 C896 0.950 1_554 S
H889 C901 0.950 . S
H890 C898 0.950 . S
H891 C900 0.950 . S
H892 C902 0.950 1_556 S
H893 C904 0.950 . S
H894 C906 0.950 . S
H895 C907 0.950 . S
C896 H888 0.950 1_556 S
C896 C897 1.386 . S
C896 C898 1.391 1_556 S
C897 C896 1.386 . S
C897 C901 1.393 . S
C898 H890 0.950 . S
C898 C896 1.391 1_554 S
C898 C899 1.400 1_554 S
C899 C898 1.400 1_556 S
C899 C900 1.398 . S
C899 C905 1.491 1_656 S
C900 H891 0.950 . S
C900 C899 1.398 . S
C900 C901 1.391 . S
C901 H889 0.950 . S
C901 C897 1.393 . S
C901 C900 1.391 . S
C902 H892 0.950 1_554 S
C902 C903 1.386 . S
C902 C904 1.391 1_554 S
C903 C902 1.386 . S
C903 C907 1.393 . S
C904 H893 0.950 . S
C904 C902 1.391 1_556 S
C904 C905 1.400 1_556 S
C905 C899 1.491 1_454 S
C905 C904 1.400 1_554 S
C905 C906 1.398 . S
C906 H894 0.950 . S
C906 C905 1.398 . S
C906 C907 1.391 . S
C907 H895 0.950 . S
C907 C903 1.393 . S
C907 C906 1.391 . S
H908 C916 0.950 . S
H909 C921 0.950 . S
H910 C918 0.950 . S
H911 C920 0.950 . S
H912 C922 0.950 . S
H913 C924 0.950 . S
H914 C926 0.950 . S
H915 C927 0.950 . S
C916 H908 0.950 . S
C916 C917 1.386 1_554 S
C916 C918 1.391 . S
C917 C916 1.386 1_556 S
C917 C921 1.393 . S
C918 H910 0.950 . S
C918 C916 1.391 . S
C918 C919 1.400 1_554 S
C919 C918 1.400 1_556 S
C919 C920 1.398 . S
C919 C925 1.491 1_556 S
C920 H911 0.950 . S
C920 C919 1.398 . S
C920 C921 1.391 . S
C921 H909 0.950 . S
C921 C917 1.393 . S
C921 C920 1.391 . S
C922 H912 0.950 . S
C922 C923 1.386 1_556 S
C922 C924 1.391 . S
C923 C922 1.386 1_554 S
C923 C927 1.393 . S
C924 H913 0.950 . S
C924 C922 1.391 . S
C924 C925 1.400 1_556 S
C925 C919 1.491 1_554 S
C925 C924 1.400 1_554 S
C925 C926 1.398 . S
C926 H914 0.950 . S
C926 C925 1.398 . S
C926 C927 1.391 . S
C927 H915 0.950 . S
C927 C923 1.393 . S
C927 C926 1.391 . S
H928 C936 0.950 . S
H929 C941 0.950 . S
H930 C938 0.950 . S
H931 C940 0.950 . S
H932 C942 0.950 . S
H933 C944 0.950 . S
H934 C946 0.950 . S
H935 C947 0.950 . S
C936 H928 0.950 . S
C936 C937 1.386 1_554 S
C936 C938 1.391 . S
C937 C936 1.386 1_556 S
C937 C941 1.393 . S
C938 H930 0.950 . S
C938 C936 1.391 . S
C938 C939 1.400 1_554 S
C939 C938 1.400 1_556 S
C939 C940 1.398 . S
C939 C945 1.491 1_546 S
C940 H931 0.950 . S
C940 C939 1.398 . S
C940 C941 1.391 . S
C941 H929 0.950 . S
C941 C937 1.393 . S
C941 C940 1.391 . S
C942 H932 0.950 . S
C942 C943 1.386 1_556 S
C942 C944 1.391 . S
C943 C942 1.386 1_554 S
C943 C947 1.393 . S
C944 H933 0.950 . S
C944 C942 1.391 . S
C944 C945 1.400 1_556 S
C945 C939 1.491 1_564 S
C945 C944 1.400 1_554 S
C945 C946 1.398 . S
C946 H934 0.950 . S
C946 C945 1.398 . S
C946 C947 1.391 . S
C947 H935 0.950 . S
C947 C943 1.393 . S
C947 C946 1.391 . S
H948 C956 0.950 . S
H949 C961 0.950 . S
H950 C958 0.950 . S
H951 C960 0.950 . S
H952 C962 0.950 . S
H953 C964 0.950 . S
H954 C966 0.950 . S
H955 C967 0.950 . S
C956 H948 0.950 . S
C956 C957 1.386 . S
C956 C958 1.391 . S
C957 C956 1.386 . S
C957 C961 1.393 . S
C958 H950 0.950 . S
C958 C956 1.391 . S
C958 C959 1.400 . S
C959 C958 1.400 . S
C959 C960 1.398 . S
C959 C965 1.491 . S
C960 H951 0.950 . S
C960 C959 1.398 . S
C960 C961 1.391 . S
C961 H949 0.950 . S
C961 C957 1.393 . S
C961 C960 1.391 . S
C962 H952 0.950 . S
C962 C963 1.386 . S
C962 C964 1.391 . S
C963 C962 1.386 . S
C963 C967 1.393 . S
C964 H953 0.950 . S
C964 C962 1.391 . S
C964 C965 1.400 . S
C965 C959 1.491 . S
C965 C964 1.400 . S
C965 C966 1.398 . S
C966 H954 0.950 . S
C966 C965 1.398 . S
C966 C967 1.391 . S
C967 H955 0.950 . S
C967 C963 1.393 . S
C967 C966 1.391 . S
H968 C976 0.950 . S
H969 C981 0.950 . S
H970 C978 0.950 . S
H971 C980 0.950 . S
H972 C982 0.950 . S
H973 C984 0.950 . S
H974 C986 0.950 . S
H975 C987 0.950 . S
C976 H968 0.950 . S
C976 C977 1.386 . S
C976 C978 1.391 . S
C977 C976 1.386 . S
C977 C981 1.393 . S
C978 H970 0.950 . S
C978 C976 1.391 . S
C978 C979 1.400 . S
C979 C978 1.400 . S
C979 C980 1.398 . S
C979 C985 1.491 . S
C980 H971 0.950 . S
C980 C979 1.398 . S
C980 C981 1.391 . S
C981 H969 0.950 . S
C981 C977 1.393 . S
C981 C980 1.391 . S
C982 H972 0.950 . S
C982 C983 1.386 . S
C982 C984 1.391 . S
C983 C982 1.386 . S
C983 C987 1.393 . S
C984 H973 0.950 . S
C984 C982 1.391 . S
C984 C985 1.400 . S
C985 C979 1.491 . S
C985 C984 1.400 . S
C985 C986 1.398 . S
C986 H974 0.950 . S
C986 C985 1.398 . S
C986 C987 1.391 . S
C987 H975 0.950 . S
C987 C983 1.393 . S
C987 C986 1.391 . S
H988 C996 0.950 . S
H989 C1001 0.950 . S
H990 C998 0.950 . S
H991 C1000 0.950 . S
H992 C1002 0.950 . S
H993 C1004 0.950 . S
H994 C1006 0.950 . S
H995 C1007 0.950 . S
C996 H988 0.950 . S
C996 C997 1.386 . S
C996 C998 1.391 . S
C997 C996 1.386 . S
C997 C1001 1.393 . S
C998 H990 0.950 . S
C998 C996 1.391 . S
C998 C999 1.400 . S
C999 C998 1.400 . S
C999 C1000 1.398 . S
C999 C1005 1.491 . S
C1000 H991 0.950 . S
C1000 C999 1.398 . S
C1000 C1001 1.391 . S
C1001 H989 0.950 . S
C1001 C997 1.393 . S
C1001 C1000 1.391 . S
C1002 H992 0.950 . S
C1002 C1003 1.386 . S
C1002 C1004 1.391 . S
C1003 C1002 1.386 . S
C1003 C1007 1.393 . S
C1004 H993 0.950 . S
C1004 C1002 1.391 . S
C1004 C1005 1.400 . S
C1005 C999 1.491 . S
C1005 C1004 1.400 . S
C1005 C1006 1.398 . S
C1006 H994 0.950 . S
C1006 C1005 1.398 . S
C1006 C1007 1.391 . S
C1007 H995 0.950 . S
C1007 C1003 1.393 . S
C1007 C1006 1.391 . S
H1008 C1016 0.950 . S
H1009 C1021 0.950 . S
H1010 C1018 0.950 . S
H1011 C1020 0.950 . S
H1012 C1022 0.950 . S
H1013 C1024 0.950 . S
H1014 C1026 0.950 . S
H1015 C1027 0.950 . S
C1016 H1008 0.950 . S
C1016 C1017 1.386 . S
C1016 C1018 1.391 . S
C1017 C1016 1.386 . S
C1017 C1021 1.393 . S
C1018 H1010 0.950 . S
C1018 C1016 1.391 . S
C1018 C1019 1.400 . S
C1019 C1018 1.400 . S
C1019 C1020 1.398 . S
C1019 C1025 1.491 . S
C1020 H1011 0.950 . S
C1020 C1019 1.398 . S
C1020 C1021 1.391 . S
C1021 H1009 0.950 . S
C1021 C1017 1.393 . S
C1021 C1020 1.391 . S
C1022 H1012 0.950 . S
C1022 C1023 1.386 . S
C1022 C1024 1.391 . S
C1023 C1022 1.386 . S
C1023 C1027 1.393 . S
C1024 H1013 0.950 . S
C1024 C1022 1.391 . S
C1024 C1025 1.400 . S
C1025 C1019 1.491 . S
C1025 C1024 1.400 . S
C1025 C1026 1.398 . S
C1026 H1014 0.950 . S
C1026 C1025 1.398 . S
C1026 C1027 1.391 . S
C1027 H1015 0.950 . S
C1027 C1023 1.393 . S
C1027 C1026 1.391 . S
H1028 C1036 0.950 . S
H1029 C1041 0.950 . S
H1030 C1038 0.950 . S
H1031 C1040 0.950 . S
H1032 C1042 0.950 . S
H1033 C1044 0.950 . S
H1034 C1046 0.950 . S
H1035 C1047 0.950 . S
C1036 H1028 0.950 . S
C1036 C1037 1.386 . S
C1036 C1038 1.391 . S
C1037 C1036 1.386 . S
C1037 C1041 1.393 . S
C1038 H1030 0.950 . S
C1038 C1036 1.391 . S
C1038 C1039 1.400 . S
C1039 C1038 1.400 . S
C1039 C1040 1.398 . S
C1039 C1045 1.491 . S
C1040 H1031 0.950 . S
C1040 C1039 1.398 . S
C1040 C1041 1.391 . S
C1041 H1029 0.950 . S
C1041 C1037 1.393 . S
C1041 C1040 1.391 . S
C1042 H1032 0.950 . S
C1042 C1043 1.386 . S
C1042 C1044 1.391 . S
C1043 C1042 1.386 . S
C1043 C1047 1.393 . S
C1044 H1033 0.950 . S
C1044 C1042 1.391 . S
C1044 C1045 1.400 . S
C1045 C1039 1.491 . S
C1045 C1044 1.400 . S
C1045 C1046 1.398 . S
C1046 H1034 0.950 . S
C1046 C1045 1.398 . S
C1046 C1047 1.391 . S
C1047 H1035 0.950 . S
C1047 C1043 1.393 . S
C1047 C1046 1.391 . S
H1048 C1056 0.950 . S
H1049 C1061 0.950 . S
H1050 C1058 0.950 . S
H1051 C1060 0.950 . S
H1052 C1062 0.950 . S
H1053 C1064 0.950 . S
H1054 C1066 0.950 . S
H1055 C1067 0.950 . S
C1056 H1048 0.950 . S
C1056 C1057 1.386 . S
C1056 C1058 1.391 . S
C1057 C1056 1.386 . S
C1057 C1061 1.393 . S
C1058 H1050 0.950 . S
C1058 C1056 1.391 . S
C1058 C1059 1.400 . S
C1059 C1058 1.400 . S
C1059 C1060 1.398 . S
C1059 C1065 1.491 . S
C1060 H1051 0.950 . S
C1060 C1059 1.398 . S
C1060 C1061 1.391 . S
C1061 H1049 0.950 . S
C1061 C1057 1.393 . S
C1061 C1060 1.391 . S
C1062 H1052 0.950 . S
C1062 C1063 1.386 . S
C1062 C1064 1.391 . S
C1063 C1062 1.386 . S
C1063 C1067 1.393 . S
C1064 H1053 0.950 . S
C1064 C1062 1.391 . S
C1064 C1065 1.400 . S
C1065 C1059 1.491 . S
C1065 C1064 1.400 . S
C1065 C1066 1.398 . S
C1066 H1054 0.950 . S
C1066 C1065 1.398 . S
C1066 C1067 1.391 . S
C1067 H1055 0.950 . S
C1067 C1063 1.393 . S
C1067 C1066 1.391 . S
H1068 C1076 0.950 . S
H1069 C1081 0.950 . S
H1070 C1078 0.950 . S
H1071 C1080 0.950 . S
H1072 C1082 0.950 . S
H1073 C1084 0.950 . S
H1074 C1086 0.950 . S
H1075 C1087 0.950 . S
C1076 H1068 0.950 . S
C1076 C1077 1.386 . S
C1076 C1078 1.391 . S
C1077 C1076 1.386 . S
C1077 C1081 1.393 . S
C1078 H1070 0.950 . S
C1078 C1076 1.391 . S
C1078 C1079 1.400 . S
C1079 C1078 1.400 . S
C1079 C1080 1.398 . S
C1079 C1085 1.491 . S
C1080 H1071 0.950 . S
C1080 C1079 1.398 . S
C1080 C1081 1.391 . S
C1081 H1069 0.950 . S
C1081 C1077 1.393 . S
C1081 C1080 1.391 . S
C1082 H1072 0.950 . S
C1082 C1083 1.386 . S
C1082 C1084 1.391 . S
C1083 C1082 1.386 . S
C1083 C1087 1.393 . S
C1084 H1073 0.950 . S
C1084 C1082 1.391 . S
C1084 C1085 1.400 . S
C1085 C1079 1.491 . S
C1085 C1084 1.400 . S
C1085 C1086 1.398 . S
C1086 H1074 0.950 . S
C1086 C1085 1.398 . S
C1086 C1087 1.391 . S
C1087 H1075 0.950 . S
C1087 C1083 1.393 . S
C1087 C1086 1.391 . S
H1088 C1096 0.950 . S
H1089 C1101 0.950 . S
H1090 C1098 0.950 . S
H1091 C1100 0.950 . S
H1092 C1102 0.950 . S
H1093 C1104 0.950 . S
H1094 C1106 0.950 . S
H1095 C1107 0.950 . S
C1096 H1088 0.950 . S
C1096 C1097 1.386 . S
C1096 C1098 1.391 . S
C1097 C1096 1.386 . S
C1097 C1101 1.393 . S
C1098 H1090 0.950 . S
C1098 C1096 1.391 . S
C1098 C1099 1.400 . S
C1099 C1098 1.400 . S
C1099 C1100 1.398 . S
C1099 C1105 1.491 . S
C1100 H1091 0.950 . S
C1100 C1099 1.398 . S
C1100 C1101 1.391 . S
C1101 H1089 0.950 . S
C1101 C1097 1.393 . S
C1101 C1100 1.391 . S
C1102 H1092 0.950 . S
C1102 C1103 1.386 . S
C1102 C1104 1.391 . S
C1103 C1102 1.386 . S
C1103 C1107 1.393 . S
C1104 H1093 0.950 . S
C1104 C1102 1.391 . S
C1104 C1105 1.400 . S
C1105 C1099 1.491 . S
C1105 C1104 1.400 . S
C1105 C1106 1.398 . S
C1106 H1094 0.950 . S
C1106 C1105 1.398 . S
C1106 C1107 1.391 . S
C1107 H1095 0.950 . S
C1107 C1103 1.393 . S
C1107 C1106 1.391 . S
H1108 C1116 0.950 . S
H1109 C1121 0.950 . S
H1110 C1118 0.950 . S
H1111 C1120 0.950 . S
H1112 C1122 0.950 . S
H1113 C1124 0.950 . S
H1114 C1126 0.950 . S
H1115 C1127 0.950 . S
C1116 H1108 0.950 . S
C1116 C1117 1.386 . S
C1116 C1118 1.391 . S
C1117 C1116 1.386 . S
C1117 C1121 1.393 . S
C1118 H1110 0.950 . S
C1118 C1116 1.391 . S
C1118 C1119 1.400 . S
C1119 C1118 1.400 . S
C1119 C1120 1.398 . S
C1119 C1125 1.491 . S
C1120 H1111 0.950 . S
C1120 C1119 1.398 . S
C1120 C1121 1.391 . S
C1121 H1109 0.950 . S
C1121 C1117 1.393 . S
C1121 C1120 1.391 . S
C1122 H1112 0.950 . S
C1122 C1123 1.386 . S
C1122 C1124 1.391 . S
C1123 C1122 1.386 . S
C1123 C1127 1.393 . S
C1124 H1113 0.950 . S
C1124 C1122 1.391 . S
C1124 C1125 1.400 . S
C1125 C1119 1.491 . S
C1125 C1124 1.400 . S
C1125 C1126 1.398 . S
C1126 H1114 0.950 . S
C1126 C1125 1.398 . S
C1126 C1127 1.391 . S
C1127 H1115 0.950 . S
C1127 C1123 1.393 . S
C1127 C1126 1.391 . S
H1128 C1136 0.950 . S
H1129 C1141 0.950 . S
H1130 C1138 0.950 . S
H1131 C1140 0.950 . S
H1132 C1142 0.950 . S
H1133 C1144 0.950 . S
H1134 C1146 0.950 . S
H1135 C1147 0.950 . S
C1136 H1128 0.950 . S
C1136 C1137 1.386 . S
C1136 C1138 1.391 . S
C1137 C1136 1.386 . S
C1137 C1141 1.393 . S
C1138 H1130 0.950 . S
C1138 C1136 1.391 . S
C1138 C1139 1.400 . S
C1139 C1138 1.400 . S
C1139 C1140 1.398 . S
C1139 C1145 1.491 . S
C1140 H1131 0.950 . S
C1140 C1139 1.398 . S
C1140 C1141 1.391 . S
C1141 H1129 0.950 . S
C1141 C1137 1.393 . S
C1141 C1140 1.391 . S
C1142 H1132 0.950 . S
C1142 C1143 1.386 . S
C1142 C1144 1.391 . S
C1143 C1142 1.386 . S
C1143 C1147 1.393 . S
C1144 H1133 0.950 . S
C1144 C1142 1.391 . S
C1144 C1145 1.400 . S
C1145 C1139 1.491 . S
C1145 C1144 1.400 . S
C1145 C1146 1.398 . S
C1146 H1134 0.950 . S
C1146 C1145 1.398 . S
C1146 C1147 1.391 . S
C1147 H1135 0.950 . S
C1147 C1143 1.393 . S
C1147 C1146 1.391 . S
H1148 C1156 0.950 . S
H1149 C1161 0.950 . S
H1150 C1158 0.950 . S
H1151 C1160 0.950 . S
H1152 C1162 0.950 . S
H1153 C1164 0.950 . S
H1154 C1166 0.950 . S
H1155 C1167 0.950 . S
C1156 H1148 0.950 . S
C1156 C1157 1.386 . S
C1156 C1158 1.391 . S
C1157 C1156 1.386 . S
C1157 C1161 1.393 . S
C1158 H1150 0.950 . S
C1158 C1156 1.391 . S
C1158 C1159 1.400 . S
C1159 C1158 1.400 . S
C1159 C1160 1.398 . S
C1159 C1165 1.491 . S
C1160 H1151 0.950 . S
C1160 C1159 1.398 . S
C1160 C1161 1.391 . S
C1161 H1149 0.950 . S
C1161 C1157 1.393 . S
C1161 C1160 1.391 . S
C1162 H1152 0.950 . S
C1162 C1163 1.386 . S
C1162 C1164 1.391 . S
C1163 C1162 1.386 . S
C1163 C1167 1.393 . S
C1164 H1153 0.950 . S
C1164 C1162 1.391 . S
C1164 C1165 1.400 . S
C1165 C1159 1.491 . S
C1165 C1164 1.400 . S
C1165 C1166 1.398 . S
C1166 H1154 0.950 . S
C1166 C1165 1.398 . S
C1166 C1167 1.391 . S
C1167 H1155 0.950 . S
C1167 C1163 1.393 . S
C1167 C1166 1.391 . S
H1168 C1176 0.950 . S
H1169 C1181 0.950 . S
H1170 C1178 0.950 . S
H1171 C1180 0.950 . S
H1172 C1182 0.950 . S
H1173 C1184 0.950 . S
H1174 C1186 0.950 . S
H1175 C1187 0.950 . S
C1176 H1168 0.950 . S
C1176 C1177 1.386 . S
C1176 C1178 1.391 . S
C1177 C1176 1.386 . S
C1177 C1181 1.393 . S
C1178 H1170 0.950 . S
C1178 C1176 1.391 . S
C1178 C1179 1.400 . S
C1179 C1178 1.400 . S
C1179 C1180 1.398 . S
C1179 C1185 1.491 . S
C1180 H1171 0.950 . S
C1180 C1179 1.398 . S
C1180 C1181 1.391 . S
C1181 H1169 0.950 . S
C1181 C1177 1.393 . S
C1181 C1180 1.391 . S
C1182 H1172 0.950 . S
C1182 C1183 1.386 . S
C1182 C1184 1.391 . S
C1183 C1182 1.386 . S
C1183 C1187 1.393 . S
C1184 H1173 0.950 . S
C1184 C1182 1.391 . S
C1184 C1185 1.400 . S
C1185 C1179 1.491 . S
C1185 C1184 1.400 . S
C1185 C1186 1.398 . S
C1186 H1174 0.950 . S
C1186 C1185 1.398 . S
C1186 C1187 1.391 . S
C1187 H1175 0.950 . S
C1187 C1183 1.393 . S
C1187 C1186 1.391 . S
H1188 C1196 0.950 . S
H1189 C1201 0.950 . S
H1190 C1198 0.950 . S
H1191 C1200 0.950 . S
H1192 C1202 0.950 . S
H1193 C1204 0.950 . S
H1194 C1206 0.950 . S
H1195 C1207 0.950 . S
C1196 H1188 0.950 . S
C1196 C1197 1.386 . S
C1196 C1198 1.391 . S
C1197 C1196 1.386 . S
C1197 C1201 1.393 . S
C1198 H1190 0.950 . S
C1198 C1196 1.391 . S
C1198 C1199 1.400 . S
C1199 C1198 1.400 . S
C1199 C1200 1.398 . S
C1199 C1205 1.491 . S
C1200 H1191 0.950 . S
C1200 C1199 1.398 . S
C1200 C1201 1.391 . S
C1201 H1189 0.950 . S
C1201 C1197 1.393 . S
C1201 C1200 1.391 . S
C1202 H1192 0.950 . S
C1202 C1203 1.386 . S
C1202 C1204 1.391 . S
C1203 C1202 1.386 . S
C1203 C1207 1.393 . S
C1204 H1193 0.950 . S
C1204 C1202 1.391 . S
C1204 C1205 1.400 . S
C1205 C1199 1.491 . S
C1205 C1204 1.400 . S
C1205 C1206 1.398 . S
C1206 H1194 0.950 . S
C1206 C1205 1.398 . S
C1206 C1207 1.391 . S
C1207 H1195 0.950 . S
C1207 C1203 1.393 . S
C1207 C1206 1.391 . S
H1208 C1216 0.950 . S
H1209 C1221 0.950 . S
H1210 C1218 0.950 . S
H1211 C1220 0.950 . S
H1212 C1222 0.950 . S
H1213 C1224 0.950 . S
H1214 C1226 0.950 . S
H1215 C1227 0.950 . S
C1216 H1208 0.950 . S
C1216 C1217 1.386 . S
C1216 C1218 1.391 . S
C1217 C1216 1.386 . S
C1217 C1221 1.393 . S
C1218 H1210 0.950 . S
C1218 C1216 1.391 . S
C1218 C1219 1.400 . S
C1219 C1218 1.400 . S
C1219 C1220 1.398 . S
C1219 C1225 1.491 . S
C1220 H1211 0.950 . S
C1220 C1219 1.398 . S
C1220 C1221 1.391 . S
C1221 H1209 0.950 . S
C1221 C1217 1.393 . S
C1221 C1220 1.391 . S
C1222 H1212 0.950 . S
C1222 C1223 1.386 . S
C1222 C1224 1.391 . S
C1223 C1222 1.386 . S
C1223 C1227 1.393 . S
C1224 H1213 0.950 . S
C1224 C1222 1.391 . S
C1224 C1225 1.400 . S
C1225 C1219 1.491 . S
C1225 C1224 1.400 . S
C1225 C1226 1.398 . S
C1226 H1214 0.950 . S
C1226 C1225 1.398 . S
C1226 C1227 1.391 . S
C1227 H1215 0.950 . S
C1227 C1223 1.393 . S
C1227 C1226 1.391 . S
H1228 C1236 0.950 . S
H1229 C1241 0.950 . S
H1230 C1238 0.950 . S
H1231 C1240 0.950 . S
H1232 C1242 0.950 . S
H1233 C1244 0.950 . S
H1234 C1246 0.950 . S
H1235 C1247 0.950 . S
C1236 H1228 0.950 . S
C1236 C1237 1.386 . S
C1236 C1238 1.391 . S
C1237 C1236 1.386 . S
C1237 C1241 1.393 . S
C1238 H1230 0.950 . S
C1238 C1236 1.391 . S
C1238 C1239 1.400 . S
C1239 C1238 1.400 . S
C1239 C1240 1.398 . S
C1239 C1245 1.491 . S
C1240 H1231 0.950 . S
C1240 C1239 1.398 . S
C1240 C1241 1.391 . S
C1241 H1229 0.950 . S
C1241 C1237 1.393 . S
C1241 C1240 1.391 . S
C1242 H1232 0.950 . S
C1242 C1243 1.386 . S
C1242 C1244 1.391 . S
C1243 C1242 1.386 . S
C1243 C1247 1.393 . S
C1244 H1233 0.950 . S
C1244 C1242 1.391 . S
C1244 C1245 1.400 . S
C1245 C1239 1.491 . S
C1245 C1244 1.400 . S
C1245 C1246 1.398 . S
C1246 H1234 0.950 . S
C1246 C1245 1.398 . S
C1246 C1247 1.391 . S
C1247 H1235 0.950 . S
C1247 C1243 1.393 . S
C1247 C1246 1.391 . S
H1248 C1256 0.950 . S
H1249 C1261 0.950 . S
H1250 C1258 0.950 . S
H1251 C1260 0.950 . S
H1252 C1262 0.950 . S
H1253 C1264 0.950 . S
H1254 C1266 0.950 . S
H1255 C1267 0.950 . S
C1256 H1248 0.950 . S
C1256 C1257 1.386 . S
C1256 C1258 1.391 . S
C1257 C1256 1.386 . S
C1257 C1261 1.393 . S
C1258 H1250 0.950 . S
C1258 C1256 1.391 . S
C1258 C1259 1.400 . S
C1259 C1258 1.400 . S
C1259 C1260 1.398 . S
C1259 C1265 1.491 . S
C1260 H1251 0.950 . S
C1260 C1259 1.398 . S
C1260 C1261 1.391 . S
C1261 H1249 0.950 . S
C1261 C1257 1.393 . S
C1261 C1260 1.391 . S
C1262 H1252 0.950 . S
C1262 C1263 1.386 . S
C1262 C1264 1.391 . S
C1263 C1262 1.386 . S
C1263 C1267 1.393 . S
C1264 H1253 0.950 . S
C1264 C1262 1.391 . S
C1264 C1265 1.400 . S
C1265 C1259 1.491 . S
C1265 C1264 1.400 . S
C1265 C1266 1.398 . S
C1266 H1254 0.950 . S
C1266 C1265 1.398 . S
C1266 C1267 1.391 . S
C1267 H1255 0.950 . S
C1267 C1263 1.393 . S
C1267 C1266 1.391 . S
H1268 C1276 0.950 . S
H1269 C1281 0.950 . S
H1270 C1278 0.950 . S
H1271 C1280 0.950 . S
H1272 C1282 0.950 . S
H1273 C1284 0.950 . S
H1274 C1286 0.950 . S
H1275 C1287 0.950 . S
C1276 H1268 0.950 . S
C1276 C1277 1.386 . S
C1276 C1278 1.391 . S
C1277 C1276 1.386 . S
C1277 C1281 1.393 . S
C1278 H1270 0.950 . S
C1278 C1276 1.391 . S
C1278 C1279 1.400 . S
C1279 C1278 1.400 . S
C1279 C1280 1.398 . S
C1279 C1285 1.491 . S
C1280 H1271 0.950 . S
C1280 C1279 1.398 . S
C1280 C1281 1.391 . S
C1281 H1269 0.950 . S
C1281 C1277 1.393 . S
C1281 C1280 1.391 . S
C1282 H1272 0.950 . S
C1282 C1283 1.386 . S
C1282 C1284 1.391 . S
C1283 C1282 1.386 . S
C1283 C1287 1.393 . S
C1284 H1273 0.950 . S
C1284 C1282 1.391 . S
C1284 C1285 1.400 . S
C1285 C1279 1.491 . S
C1285 C1284 1.400 . S
C1285 C1286 1.398 . S
C1286 H1274 0.950 . S
C1286 C1285 1.398 . S
C1286 C1287 1.391 . S
C1287 H1275 0.950 . S
C1287 C1283 1.393 . S
C1287 C1286 1.391 . S
H1288 C1296 0.950 . S
H1289 C1301 0.950 . S
H1290 C1298 0.950 . S
H1291 C1300 0.950 . S
H1292 C1302 0.950 . S
H1293 C1304 0.950 . S
H1294 C1306 0.950 . S
H1295 C1307 0.950 . S
C1296 H1288 0.950 . S
C1296 C1297 1.386 . S
C1296 C1298 1.391 . S
C1297 C1296 1.386 . S
C1297 C1301 1.393 . S
C1298 H1290 0.950 . S
C1298 C1296 1.391 . S
C1298 C1299 1.400 . S
C1299 C1298 1.400 . S
C1299 C1300 1.398 . S
C1299 C1305 1.491 . S
C1300 H1291 0.950 . S
C1300 C1299 1.398 . S
C1300 C1301 1.391 . S
C1301 H1289 0.950 . S
C1301 C1297 1.393 . S
C1301 C1300 1.391 . S
C1302 H1292 0.950 . S
C1302 C1303 1.386 . S
C1302 C1304 1.391 . S
C1303 C1302 1.386 . S
C1303 C1307 1.393 . S
C1304 H1293 0.950 . S
C1304 C1302 1.391 . S
C1304 C1305 1.400 . S
C1305 C1299 1.491 . S
C1305 C1304 1.400 . S
C1305 C1306 1.398 . S
C1306 H1294 0.950 . S
C1306 C1305 1.398 . S
C1306 C1307 1.391 . S
C1307 H1295 0.950 . S
C1307 C1303 1.393 . S
C1307 C1306 1.391 . S
H1308 C1316 0.950 . S
H1309 C1321 0.950 . S
H1310 C1318 0.950 . S
H1311 C1320 0.950 . S
H1312 C1322 0.950 . S
H1313 C1324 0.950 . S
H1314 C1326 0.950 . S
H1315 C1327 0.950 . S
C1316 H1308 0.950 . S
C1316 C1317 1.386 . S
C1316 C1318 1.391 . S
C1317 C1316 1.386 . S
C1317 C1321 1.393 . S
C1318 H1310 0.950 . S
C1318 C1316 1.391 . S
C1318 C1319 1.400 . S
C1319 C1318 1.400 . S
C1319 C1320 1.398 . S
C1319 C1325 1.491 . S
C1320 H1311 0.950 . S
C1320 C1319 1.398 . S
C1320 C1321 1.391 . S
C1321 H1309 0.950 . S
C1321 C1317 1.393 . S
C1321 C1320 1.391 . S
C1322 H1312 0.950 . S
C1322 C1323 1.386 . S
C1322 C1324 1.391 . S
C1323 C1322 1.386 . S
C1323 C1327 1.393 . S
C1324 H1313 0.950 . S
C1324 C1322 1.391 . S
C1324 C1325 1.400 . S
C1325 C1319 1.491 . S
C1325 C1324 1.400 . S
C1325 C1326 1.398 . S
C1326 H1314 0.950 . S
C1326 C1325 1.398 . S
C1326 C1327 1.391 . S
C1327 H1315 0.950 . S
C1327 C1323 1.393 . S
C1327 C1326 1.391 . S
H1328 C1336 0.950 . S
H1329 C1341 0.950 . S
H1330 C1338 0.950 . S
H1331 C1340 0.950 . S
H1332 C1342 0.950 . S
H1333 C1344 0.950 . S
H1334 C1346 0.950 . S
H1335 C1347 0.950 . S
C1336 H1328 0.950 . S
C1336 C1337 1.386 . S
C1336 C1338 1.391 . S
C1337 C1336 1.386 . S
C1337 C1341 1.393 . S
C1338 H1330 0.950 . S
C1338 C1336 1.391 . S
C1338 C1339 1.400 . S
C1339 C1338 1.400 . S
C1339 C1340 1.398 . S
C1339 C1345 1.491 . S
C1340 H1331 0.950 . S
C1340 C1339 1.398 . S
C1340 C1341 1.391 . S
C1341 H1329 0.950 . S
C1341 C1337 1.393 . S
C1341 C1340 1.391 . S
C1342 H1332 0.950 . S
C1342 C1343 1.386 . S
C1342 C1344 1.391 . S
C1343 C1342 1.386 . S
C1343 C1347 1.393 . S
C1344 H1333 0.950 . S
C1344 C1342 1.391 . S
C1344 C1345 1.400 . S
C1345 C1339 1.491 . S
C1345 C1344 1.400 . S
C1345 C1346 1.398 . S
C1346 H1334 0.950 . S
C1346 C1345 1.398 . S
C1346 C1347 1.391 . S
C1347 H1335 0.950 . S
C1347 C1343 1.393 . S
C1347 C1346 1.391 . S
H1348 C1356 0.950 . S
H1349 C1361 0.950 . S
H1350 C1358 0.950 . S
H1351 C1360 0.950 . S
H1352 C1362 0.950 . S
H1353 C1364 0.950 . S
H1354 C1366 0.950 . S
H1355 C1367 0.950 . S
C1356 H1348 0.950 . S
C1356 C1357 1.386 . S
C1356 C1358 1.391 . S
C1357 C1356 1.386 . S
C1357 C1361 1.393 . S
C1358 H1350 0.950 . S
C1358 C1356 1.391 . S
C1358 C1359 1.400 . S
C1359 C1358 1.400 . S
C1359 C1360 1.398 . S
C1359 C1365 1.491 . S
C1360 H1351 0.950 . S
C1360 C1359 1.398 . S
C1360 C1361 1.391 . S
C1361 H1349 0.950 . S
C1361 C1357 1.393 . S
C1361 C1360 1.391 . S
C1362 H1352 0.950 . S
C1362 C1363 1.386 . S
C1362 C1364 1.391 . S
C1363 C1362 1.386 . S
C1363 C1367 1.393 . S
C1364 H1353 0.950 . S
C1364 C1362 1.391 . S
C1364 C1365 1.400 . S
C1365 C1359 1.491 . S
C1365 C1364 1.400 . S
C1365 C1366 1.398 . S
C1366 H1354 0.950 . S
C1366 C1365 1.398 . S
C1366 C1367 1.391 . S
C1367 H1355 0.950 . S
C1367 C1363 1.393 . S
C1367 C1366 1.391 . S
H1368 C1376 0.950 . S
H1369 C1381 0.950 . S
H1370 C1378 0.950 . S
H1371 C1380 0.950 . S
H1372 C1382 0.950 . S
H1373 C1384 0.950 . S
H1374 C1386 0.950 . S
H1375 C1387 0.950 . S
C1376 H1368 0.950 . S
C1376 C1377 1.386 . S
C1376 C1378 1.391 . S
C1377 C1376 1.386 . S
C1377 C1381 1.393 . S
C1378 H1370 0.950 . S
C1378 C1376 1.391 . S
C1378 C1379 1.400 . S
C1379 C1378 1.400 . S
C1379 C1380 1.398 . S
C1379 C1385 1.491 . S
C1380 H1371 0.950 . S
C1380 C1379 1.398 . S
C1380 C1381 1.391 . S
C1381 H1369 0.950 . S
C1381 C1377 1.393 . S
C1381 C1380 1.391 . S
C1382 H1372 0.950 . S
C1382 C1383 1.386 . S
C1382 C1384 1.391 . S
C1383 C1382 1.386 . S
C1383 C1387 1.393 . S
C1384 H1373 0.950 . S
C1384 C1382 1.391 . S
C1384 C1385 1.400 . S
C1385 C1379 1.491 . S
C1385 C1384 1.400 . S
C1385 C1386 1.398 . S
C1386 H1374 0.950 . S
C1386 C1385 1.398 . S
C1386 C1387 1.391 . S
C1387 H1375 0.950 . S
C1387 C1383 1.393 . S
C1387 C1386 1.391 . S
H1388 C1396 0.950 . S
H1389 C1401 0.950 . S
H1390 C1398 0.950 . S
H1391 C1400 0.950 . S
H1392 C1402 0.950 . S
H1393 C1404 0.950 . S
H1394 C1406 0.950 . S
H1395 C1407 0.950 . S
C1396 H1388 0.950 . S
C1396 C1397 1.386 . S
C1396 C1398 1.391 . S
C1397 C1396 1.386 . S
C1397 C1401 1.393 . S
C1398 H1390 0.950 . S
C1398 C1396 1.391 . S
C1398 C1399 1.400 . S
C1399 C1398 1.400 . S
C1399 C1400 1.398 . S
C1399 C1405 1.491 . S
C1400 H1391 0.950 . S
C1400 C1399 1.398 . S
C1400 C1401 1.391 . S
C1401 H1389 0.950 . S
C1401 C1397 1.393 . S
C1401 C1400 1.391 . S
C1402 H1392 0.950 . S
C1402 C1403 1.386 . S
C1402 C1404 1.391 . S
C1403 C1402 1.386 . S
C1403 C1407 1.393 . S
C1404 H1393 0.950 . S
C1404 C1402 1.391 . S
C1404 C1405 1.400 . S
C1405 C1399 1.491 . S
C1405 C1404 1.400 . S
C1405 C1406 1.398 . S
C1406 H1394 0.950 . S
C1406 C1405 1.398 . S
C1406 C1407 1.391 . S
C1407 H1395 0.950 . S
C1407 C1403 1.393 . S
C1407 C1406 1.391 . S
H1408 C1416 0.950 . S
H1409 C1421 0.950 . S
H1410 C1418 0.950 . S
H1411 C1420 0.950 . S
H1412 C1422 0.950 . S
H1413 C1424 0.950 . S
H1414 C1426 0.950 . S
H1415 C1427 0.950 . S
C1416 H1408 0.950 . S
C1416 C1417 1.386 . S
C1416 C1418 1.391 . S
C1417 C1416 1.386 . S
C1417 C1421 1.393 . S
C1418 H1410 0.950 . S
C1418 C1416 1.391 . S
C1418 C1419 1.400 . S
C1419 C1418 1.400 . S
C1419 C1420 1.398 . S
C1419 C1425 1.491 . S
C1420 H1411 0.950 . S
C1420 C1419 1.398 . S
C1420 C1421 1.391 . S
C1421 H1409 0.950 . S
C1421 C1417 1.393 . S
C1421 C1420 1.391 . S
C1422 H1412 0.950 . S
C1422 C1423 1.386 . S
C1422 C1424 1.391 . S
C1423 C1422 1.386 . S
C1423 C1427 1.393 . S
C1424 H1413 0.950 . S
C1424 C1422 1.391 . S
C1424 C1425 1.400 . S
C1425 C1419 1.491 . S
C1425 C1424 1.400 . S
C1425 C1426 1.398 . S
C1426 H1414 0.950 . S
C1426 C1425 1.398 . S
C1426 C1427 1.391 . S
C1427 H1415 0.950 . S
C1427 C1423 1.393 . S
C1427 C1426 1.391 . S
H1428 C1436 0.950 . S
H1429 C1441 0.950 . S
H1430 C1438 0.904 1_655 S
H1431 C1440 0.950 . S
H1432 C1442 0.950 . S
H1433 C1444 0.902 1_455 S
H1434 C1446 0.950 . S
H1435 C1447 0.950 . S
C1436 H1428 0.950 . S
C1436 C1437 1.386 . S
C1436 C1438 1.391 . S
C1437 C1436 1.386 . S
C1437 C1441 1.393 . S
C1438 H1430 0.904 1_455 S
C1438 C1436 1.391 . S
C1438 C1439 1.400 . S
C1439 C1438 1.400 . S
C1439 C1440 1.398 . S
C1439 C1445 1.491 1_455 S
C1440 H1431 0.950 . S
C1440 C1439 1.398 . S
C1440 C1441 1.391 . S
C1441 H1429 0.950 . S
C1441 C1437 1.393 . S
C1441 C1440 1.391 . S
C1442 H1432 0.950 . S
C1442 C1443 1.386 . S
C1442 C1444 1.391 . S
C1443 C1442 1.386 . S
C1443 C1447 1.393 . S
C1444 H1433 0.902 1_655 S
C1444 C1442 1.391 . S
C1444 C1445 1.400 . S
C1445 C1439 1.491 1_655 S
C1445 C1444 1.400 . S
C1445 C1446 1.398 . S
C1446 H1434 0.950 . S
C1446 C1445 1.398 . S
C1446 C1447 1.391 . S
C1447 H1435 0.950 . S
C1447 C1443 1.393 . S
C1447 C1446 1.391 . S
H1448 C1456 0.950 . S
H1449 C1461 0.950 . S
H1450 C1458 0.950 . S
H1451 C1460 0.950 . S
H1452 C1462 0.950 . S
H1453 C1464 0.950 . S
H1454 C1466 0.950 . S
H1455 C1467 0.950 . S
C1456 H1448 0.950 . S
C1456 C1457 1.386 . S
C1456 C1458 1.391 . S
C1457 C1456 1.386 . S
C1457 C1461 1.393 . S
C1458 H1450 0.950 . S
C1458 C1456 1.391 . S
C1458 C1459 1.400 . S
C1459 C1458 1.400 . S
C1459 C1460 1.398 . S
C1459 C1465 1.491 . S
C1460 H1451 0.950 . S
C1460 C1459 1.398 . S
C1460 C1461 1.391 . S
C1461 H1449 0.950 . S
C1461 C1457 1.393 . S
C1461 C1460 1.391 . S
C1462 H1452 0.950 . S
C1462 C1463 1.386 . S
C1462 C1464 1.391 . S
C1463 C1462 1.386 . S
C1463 C1467 1.393 . S
C1464 H1453 0.950 . S
C1464 C1462 1.391 . S
C1464 C1465 1.400 . S
C1465 C1459 1.491 . S
C1465 C1464 1.400 . S
C1465 C1466 1.398 . S
C1466 H1454 0.950 . S
C1466 C1465 1.398 . S
C1466 C1467 1.391 . S
C1467 H1455 0.950 . S
C1467 C1463 1.393 . S
C1467 C1466 1.391 . S
H1468 C1476 0.950 . S
H1469 C1481 0.950 . S
H1470 C1478 0.952 . S
H1471 C1480 0.950 . S
H1472 C1482 0.950 . S
H1473 C1484 0.952 . S
H1474 C1486 0.950 . S
H1475 C1487 0.950 . S
C1476 H1468 0.950 . S
C1476 C1477 1.386 . S
C1476 C1478 1.391 . S
C1477 C1476 1.386 . S
C1477 C1481 1.393 . S
C1478 H1470 0.952 . S
C1478 C1476 1.391 . S
C1478 C1479 1.400 . S
C1479 C1478 1.400 . S
C1479 C1480 1.398 . S
C1479 C1485 1.491 1_565 S
C1480 H1471 0.950 . S
C1480 C1479 1.398 . S
C1480 C1481 1.391 . S
C1481 H1469 0.950 . S
C1481 C1477 1.393 . S
C1481 C1480 1.391 . S
C1482 H1472 0.950 . S
C1482 C1483 1.386 . S
C1482 C1484 1.391 . S
C1483 C1482 1.386 . S
C1483 C1487 1.393 . S
C1484 H1473 0.952 . S
C1484 C1482 1.391 . S
C1484 C1485 1.400 . S
C1485 C1479 1.491 1_545 S
C1485 C1484 1.400 . S
C1485 C1486 1.398 . S
C1486 H1474 0.950 . S
C1486 C1485 1.398 . S
C1486 C1487 1.391 . S
C1487 H1475 0.950 . S
C1487 C1483 1.393 . S
C1487 C1486 1.391 . S
H1488 C1496 0.950 . S
H1489 C1501 0.950 . S
H1490 C1498 0.950 1_545 S
H1491 C1500 0.950 . S
H1492 C1502 0.950 . S
H1493 C1504 0.950 1_565 S
H1494 C1506 0.950 . S
H1495 C1507 0.950 . S
C1496 H1488 0.950 . S
C1496 C1497 1.386 . S
C1496 C1498 1.391 . S
C1497 C1496 1.386 . S
C1497 C1501 1.393 . S
C1498 H1490 0.950 1_565 S
C1498 C1496 1.391 . S
C1498 C1499 1.400 . S
C1499 C1498 1.400 . S
C1499 C1500 1.398 . S
C1499 C1505 1.491 1_565 S
C1500 H1491 0.950 . S
C1500 C1499 1.398 . S
C1500 C1501 1.391 . S
C1501 H1489 0.950 . S
C1501 C1497 1.393 . S
C1501 C1500 1.391 . S
C1502 H1492 0.950 . S
C1502 C1503 1.386 . S
C1502 C1504 1.391 . S
C1503 C1502 1.386 . S
C1503 C1507 1.393 . S
C1504 H1493 0.950 1_545 S
C1504 C1502 1.391 . S
C1504 C1505 1.400 . S
C1505 C1499 1.491 1_545 S
C1505 C1504 1.400 . S
C1505 C1506 1.398 . S
C1506 H1494 0.950 . S
C1506 C1505 1.398 . S
C1506 C1507 1.391 . S
C1507 H1495 0.950 . S
C1507 C1503 1.393 . S
C1507 C1506 1.391 . S
H1508 C1516 0.950 . S
H1509 C1521 0.950 . S
H1510 C1518 0.950 . S
H1511 C1520 0.950 1_455 S
H1512 C1522 0.950 . S
H1513 C1524 0.950 . S
H1514 C1526 0.950 1_655 S
H1515 C1527 0.950 . S
C1516 H1508 0.950 . S
C1516 C1517 1.386 . S
C1516 C1518 1.391 . S
C1517 C1516 1.386 . S
C1517 C1521 1.393 . S
C1518 H1510 0.950 . S
C1518 C1516 1.391 . S
C1518 C1519 1.400 . S
C1519 C1518 1.400 . S
C1519 C1520 1.398 . S
C1519 C1525 1.491 1_655 S
C1520 H1511 0.950 1_655 S
C1520 C1519 1.398 . S
C1520 C1521 1.391 . S
C1521 H1509 0.950 . S
C1521 C1517 1.393 . S
C1521 C1520 1.391 . S
C1522 H1512 0.950 . S
C1522 C1523 1.386 . S
C1522 C1524 1.391 . S
C1523 C1522 1.386 . S
C1523 C1527 1.393 . S
C1524 H1513 0.950 . S
C1524 C1522 1.391 . S
C1524 C1525 1.400 . S
C1525 C1519 1.491 1_455 S
C1525 C1524 1.400 . S
C1525 C1526 1.398 . S
C1526 H1514 0.950 1_455 S
C1526 C1525 1.398 . S
C1526 C1527 1.391 . S
C1527 H1515 0.950 . S
C1527 C1523 1.393 . S
C1527 C1526 1.391 . S
H1528 C1536 0.950 . S
H1529 C1541 0.950 . S
H1530 C1538 0.950 . S
H1531 C1540 0.950 . S
H1532 C1542 0.950 . S
H1533 C1544 0.950 . S
H1534 C1546 0.950 . S
H1535 C1547 0.950 . S
C1536 H1528 0.950 . S
C1536 C1537 1.386 . S
C1536 C1538 1.391 . S
C1537 C1536 1.386 . S
C1537 C1541 1.393 . S
C1538 H1530 0.950 . S
C1538 C1536 1.391 . S
C1538 C1539 1.400 . S
C1539 C1538 1.400 . S
C1539 C1540 1.398 . S
C1539 C1545 1.491 . S
C1540 H1531 0.950 . S
C1540 C1539 1.398 . S
C1540 C1541 1.391 . S
C1541 H1529 0.950 . S
C1541 C1537 1.393 . S
C1541 C1540 1.391 . S
C1542 H1532 0.950 . S
C1542 C1543 1.386 . S
C1542 C1544 1.391 . S
C1543 C1542 1.386 . S
C1543 C1547 1.393 . S
C1544 H1533 0.950 . S
C1544 C1542 1.391 . S
C1544 C1545 1.400 . S
C1545 C1539 1.491 . S
C1545 C1544 1.400 . S
C1545 C1546 1.398 . S
C1546 H1534 0.950 . S
C1546 C1545 1.398 . S
C1546 C1547 1.391 . S
C1547 H1535 0.950 . S
C1547 C1543 1.393 . S
C1547 C1546 1.391 . S
H1548 C1556 0.950 . S
H1549 C1561 0.950 . S
H1550 C1558 0.950 . S
H1551 C1560 0.950 . S
H1552 C1562 0.950 . S
H1553 C1564 0.950 . S
H1554 C1566 0.950 . S
H1555 C1567 0.950 . S
C1556 H1548 0.950 . S
C1556 C1557 1.386 . S
C1556 C1558 1.391 . S
C1557 C1556 1.386 . S
C1557 C1561 1.393 . S
C1558 H1550 0.950 . S
C1558 C1556 1.391 . S
C1558 C1559 1.400 . S
C1559 C1558 1.400 . S
C1559 C1560 1.398 . S
C1559 C1565 1.491 . S
C1560 H1551 0.950 . S
C1560 C1559 1.398 . S
C1560 C1561 1.391 . S
C1561 H1549 0.950 . S
C1561 C1557 1.393 . S
C1561 C1560 1.391 . S
C1562 H1552 0.950 . S
C1562 C1563 1.386 . S
C1562 C1564 1.391 . S
C1563 C1562 1.386 . S
C1563 C1567 1.393 . S
C1564 H1553 0.950 . S
C1564 C1562 1.391 . S
C1564 C1565 1.400 . S
C1565 C1559 1.491 . S
C1565 C1564 1.400 . S
C1565 C1566 1.398 . S
C1566 H1554 0.950 . S
C1566 C1565 1.398 . S
C1566 C1567 1.391 . S
C1567 H1555 0.950 . S
C1567 C1563 1.393 . S
C1567 C1566 1.391 . S
H1568 C1576 0.950 . S
H1569 C1581 0.950 . S
H1570 C1578 0.950 . S
H1571 C1580 0.950 . S
H1572 C1582 0.950 . S
H1573 C1584 0.950 . S
H1574 C1586 0.950 . S
H1575 C1587 0.950 . S
C1576 H1568 0.950 . S
C1576 C1577 1.386 . S
C1576 C1578 1.391 . S
C1577 C1576 1.386 . S
C1577 C1581 1.393 . S
C1578 H1570 0.950 . S
C1578 C1576 1.391 . S
C1578 C1579 1.400 . S
C1579 C1578 1.400 . S
C1579 C1580 1.398 . S
C1579 C1585 1.491 . S
C1580 H1571 0.950 . S
C1580 C1579 1.398 . S
C1580 C1581 1.391 . S
C1581 H1569 0.950 . S
C1581 C1577 1.393 . S
C1581 C1580 1.391 . S
C1582 H1572 0.950 . S
C1582 C1583 1.386 . S
C1582 C1584 1.391 . S
C1583 C1582 1.386 . S
C1583 C1587 1.393 . S
C1584 H1573 0.950 . S
C1584 C1582 1.391 . S
C1584 C1585 1.400 . S
C1585 C1579 1.491 . S
C1585 C1584 1.400 . S
C1585 C1586 1.398 . S
C1586 H1574 0.950 . S
C1586 C1585 1.398 . S
C1586 C1587 1.391 . S
C1587 H1575 0.950 . S
C1587 C1583 1.393 . S
C1587 C1586 1.391 . S
H1588 C1596 0.950 . S
H1589 C1601 0.950 . S
H1590 C1598 0.950 . S
H1591 C1600 0.950 . S
H1592 C1602 0.950 . S
H1593 C1604 0.950 . S
H1594 C1606 0.950 . S
H1595 C1607 0.950 . S
C1596 H1588 0.950 . S
C1596 C1597 1.386 . S
C1596 C1598 1.391 . S
C1597 C1596 1.386 . S
C1597 C1601 1.393 . S
C1598 H1590 0.950 . S
C1598 C1596 1.391 . S
C1598 C1599 1.400 . S
C1599 C1598 1.400 . S
C1599 C1600 1.398 . S
C1599 C1605 1.491 . S
C1600 H1591 0.950 . S
C1600 C1599 1.398 . S
C1600 C1601 1.391 . S
C1601 H1589 0.950 . S
C1601 C1597 1.393 . S
C1601 C1600 1.391 . S
C1602 H1592 0.950 . S
C1602 C1603 1.386 . S
C1602 C1604 1.391 . S
C1603 C1602 1.386 . S
C1603 C1607 1.393 . S
C1604 H1593 0.950 . S
C1604 C1602 1.391 . S
C1604 C1605 1.400 . S
C1605 C1599 1.491 . S
C1605 C1604 1.400 . S
C1605 C1606 1.398 . S
C1606 H1594 0.950 . S
C1606 C1605 1.398 . S
C1606 C1607 1.391 . S
C1607 H1595 0.950 . S
C1607 C1603 1.393 . S
C1607 C1606 1.391 . S
H1608 C1616 0.950 . S
H1609 C1621 0.950 . S
H1610 C1618 0.950 . S
H1611 C1620 0.950 . S
H1612 C1622 0.950 . S
H1613 C1624 0.950 . S
H1614 C1626 0.950 . S
H1615 C1627 0.950 . S
C1616 H1608 0.950 . S
C1616 C1617 1.386 . S
C1616 C1618 1.391 . S
C1617 C1616 1.386 . S
C1617 C1621 1.393 . S
C1618 H1610 0.950 . S
C1618 C1616 1.391 . S
C1618 C1619 1.400 . S
C1619 C1618 1.400 . S
C1619 C1620 1.398 . S
C1619 C1625 1.491 . S
C1620 H1611 0.950 . S
C1620 C1619 1.398 . S
C1620 C1621 1.391 . S
C1621 H1609 0.950 . S
C1621 C1617 1.393 . S
C1621 C1620 1.391 . S
C1622 H1612 0.950 . S
C1622 C1623 1.386 . S
C1622 C1624 1.391 . S
C1623 C1622 1.386 . S
C1623 C1627 1.393 . S
C1624 H1613 0.950 . S
C1624 C1622 1.391 . S
C1624 C1625 1.400 . S
C1625 C1619 1.491 . S
C1625 C1624 1.400 . S
C1625 C1626 1.398 . S
C1626 H1614 0.950 . S
C1626 C1625 1.398 . S
C1626 C1627 1.391 . S
C1627 H1615 0.950 . S
C1627 C1623 1.393 . S
C1627 C1626 1.391 . S
H1628 C1636 0.950 . S
H1629 C1641 0.950 . S
H1630 C1638 0.950 . S
H1631 C1640 0.950 . S
H1632 C1642 0.950 . S
H1633 C1644 0.950 . S
H1634 C1646 0.950 . S
H1635 C1647 0.950 . S
C1636 H1628 0.950 . S
C1636 C1637 1.386 . S
C1636 C1638 1.391 . S
C1637 C1636 1.386 . S
C1637 C1641 1.393 . S
C1638 H1630 0.950 . S
C1638 C1636 1.391 . S
C1638 C1639 1.400 . S
C1639 C1638 1.400 . S
C1639 C1640 1.398 . S
C1639 C1645 1.491 . S
C1640 H1631 0.950 . S
C1640 C1639 1.398 . S
C1640 C1641 1.391 . S
C1641 H1629 0.950 . S
C1641 C1637 1.393 . S
C1641 C1640 1.391 . S
C1642 H1632 0.950 . S
C1642 C1643 1.386 . S
C1642 C1644 1.391 . S
C1643 C1642 1.386 . S
C1643 C1647 1.393 . S
C1644 H1633 0.950 . S
C1644 C1642 1.391 . S
C1644 C1645 1.400 . S
C1645 C1639 1.491 . S
C1645 C1644 1.400 . S
C1645 C1646 1.398 . S
C1646 H1634 0.950 . S
C1646 C1645 1.398 . S
C1646 C1647 1.391 . S
C1647 H1635 0.950 . S
C1647 C1643 1.393 . S
C1647 C1646 1.391 . S
H1648 C1656 0.950 . S
H1649 C1661 0.950 . S
H1650 C1658 0.950 . S
H1651 C1660 0.950 . S
H1652 C1662 0.950 . S
H1653 C1664 0.950 . S
H1654 C1666 0.950 . S
H1655 C1667 0.950 . S
C1656 H1648 0.950 . S
C1656 C1657 1.386 . S
C1656 C1658 1.391 . S
C1657 C1656 1.386 . S
C1657 C1661 1.393 . S
C1658 H1650 0.950 . S
C1658 C1656 1.391 . S
C1658 C1659 1.400 . S
C1659 C1658 1.400 . S
C1659 C1660 1.398 . S
C1659 C1665 1.491 . S
C1660 H1651 0.950 . S
C1660 C1659 1.398 . S
C1660 C1661 1.391 . S
C1661 H1649 0.950 . S
C1661 C1657 1.393 . S
C1661 C1660 1.391 . S
C1662 H1652 0.950 . S
C1662 C1663 1.386 . S
C1662 C1664 1.391 . S
C1663 C1662 1.386 . S
C1663 C1667 1.393 . S
C1664 H1653 0.950 . S
C1664 C1662 1.391 . S
C1664 C1665 1.400 . S
C1665 C1659 1.491 . S
C1665 C1664 1.400 . S
C1665 C1666 1.398 . S
C1666 H1654 0.950 . S
C1666 C1665 1.398 . S
C1666 C1667 1.391 . S
C1667 H1655 0.950 . S
C1667 C1663 1.393 . S
C1667 C1666 1.391 . S
H1668 C1676 0.950 . S
H1669 C1681 0.950 . S
H1670 C1678 0.950 . S
H1671 C1680 0.950 . S
H1672 C1682 0.950 . S
H1673 C1684 0.950 . S
H1674 C1686 0.950 . S
H1675 C1687 0.950 . S
C1676 H1668 0.950 . S
C1676 C1677 1.386 . S
C1676 C1678 1.391 . S
C1677 C1676 1.386 . S
C1677 C1681 1.393 . S
C1678 H1670 0.950 . S
C1678 C1676 1.391 . S
C1678 C1679 1.400 . S
C1679 C1678 1.400 . S
C1679 C1680 1.398 . S
C1679 C1685 1.491 . S
C1680 H1671 0.950 . S
C1680 C1679 1.398 . S
C1680 C1681 1.391 . S
C1681 H1669 0.950 . S
C1681 C1677 1.393 . S
C1681 C1680 1.391 . S
C1682 H1672 0.950 . S
C1682 C1683 1.386 . S
C1682 C1684 1.391 . S
C1683 C1682 1.386 . S
C1683 C1687 1.393 . S
C1684 H1673 0.950 . S
C1684 C1682 1.391 . S
C1684 C1685 1.400 . S
C1685 C1679 1.491 . S
C1685 C1684 1.400 . S
C1685 C1686 1.398 . S
C1686 H1674 0.950 . S
C1686 C1685 1.398 . S
C1686 C1687 1.391 . S
C1687 H1675 0.950 . S
C1687 C1683 1.393 . S
C1687 C1686 1.391 . S
H1688 C1696 0.950 . S
H1689 C1701 0.950 . S
H1690 C1698 0.950 . S
H1691 C1700 0.950 . S
H1692 C1702 0.950 . S
H1693 C1704 0.950 . S
H1694 C1706 0.950 . S
H1695 C1707 0.950 . S
C1696 H1688 0.950 . S
C1696 C1697 1.386 . S
C1696 C1698 1.391 . S
C1697 C1696 1.386 . S
C1697 C1701 1.393 . S
C1698 H1690 0.950 . S
C1698 C1696 1.391 . S
C1698 C1699 1.400 . S
C1699 C1698 1.400 . S
C1699 C1700 1.398 . S
C1699 C1705 1.491 . S
C1700 H1691 0.950 . S
C1700 C1699 1.398 . S
C1700 C1701 1.391 . S
C1701 H1689 0.950 . S
C1701 C1697 1.393 . S
C1701 C1700 1.391 . S
C1702 H1692 0.950 . S
C1702 C1703 1.386 . S
C1702 C1704 1.391 . S
C1703 C1702 1.386 . S
C1703 C1707 1.393 . S
C1704 H1693 0.950 . S
C1704 C1702 1.391 . S
C1704 C1705 1.400 . S
C1705 C1699 1.491 . S
C1705 C1704 1.400 . S
C1705 C1706 1.398 . S
C1706 H1694 0.950 . S
C1706 C1705 1.398 . S
C1706 C1707 1.391 . S
C1707 H1695 0.950 . S
C1707 C1703 1.393 . S
C1707 C1706 1.391 . S
H1708 C1716 0.950 . S
H1709 C1721 0.950 . S
H1710 C1718 0.950 . S
H1711 C1720 0.950 . S
H1712 C1722 0.950 . S
H1713 C1724 0.950 . S
H1714 C1726 0.950 . S
H1715 C1727 0.950 . S
C1716 H1708 0.950 . S
C1716 C1717 1.386 . S
C1716 C1718 1.391 . S
C1717 C1716 1.386 . S
C1717 C1721 1.393 . S
C1718 H1710 0.950 . S
C1718 C1716 1.391 . S
C1718 C1719 1.400 . S
C1719 C1718 1.400 . S
C1719 C1720 1.398 . S
C1719 C1725 1.491 . S
C1720 H1711 0.950 . S
C1720 C1719 1.398 . S
C1720 C1721 1.391 . S
C1721 H1709 0.950 . S
C1721 C1717 1.393 . S
C1721 C1720 1.391 . S
C1722 H1712 0.950 . S
C1722 C1723 1.386 . S
C1722 C1724 1.391 . S
C1723 C1722 1.386 . S
C1723 C1727 1.393 . S
C1724 H1713 0.950 . S
C1724 C1722 1.391 . S
C1724 C1725 1.400 . S
C1725 C1719 1.491 . S
C1725 C1724 1.400 . S
C1725 C1726 1.398 . S
C1726 H1714 0.950 . S
C1726 C1725 1.398 . S
C1726 C1727 1.391 . S
C1727 H1715 0.950 . S
C1727 C1723 1.393 . S
C1727 C1726 1.391 . S
H1728 C1736 0.950 . S
H1729 C1741 0.950 . S
H1730 C1738 0.950 . S
H1731 C1740 0.950 . S
H1732 C1742 0.950 . S
H1733 C1744 0.950 . S
H1734 C1746 0.950 . S
H1735 C1747 0.950 . S
C1736 H1728 0.950 . S
C1736 C1737 1.386 . S
C1736 C1738 1.391 . S
C1737 C1736 1.386 . S
C1737 C1741 1.393 . S
C1738 H1730 0.950 . S
C1738 C1736 1.391 . S
C1738 C1739 1.400 . S
C1739 C1738 1.400 . S
C1739 C1740 1.398 . S
C1739 C1745 1.491 . S
C1740 H1731 0.950 . S
C1740 C1739 1.398 . S
C1740 C1741 1.391 . S
C1741 H1729 0.950 . S
C1741 C1737 1.393 . S
C1741 C1740 1.391 . S
C1742 H1732 0.950 . S
C1742 C1743 1.386 . S
C1742 C1744 1.391 . S
C1743 C1742 1.386 . S
C1743 C1747 1.393 . S
C1744 H1733 0.950 . S
C1744 C1742 1.391 . S
C1744 C1745 1.400 . S
C1745 C1739 1.491 . S
C1745 C1744 1.400 . S
C1745 C1746 1.398 . S
C1746 H1734 0.950 . S
C1746 C1745 1.398 . S
C1746 C1747 1.391 . S
C1747 H1735 0.950 . S
C1747 C1743 1.393 . S
C1747 C1746 1.391 . S
H1748 C1756 0.950 . S
H1749 C1761 0.950 . S
H1750 C1758 0.950 . S
H1751 C1760 0.950 . S
H1752 C1762 0.950 . S
H1753 C1764 0.950 . S
H1754 C1766 0.950 . S
H1755 C1767 0.950 . S
C1756 H1748 0.950 . S
C1756 C1757 1.386 . S
C1756 C1758 1.391 . S
C1757 C1756 1.386 . S
C1757 C1761 1.393 . S
C1758 H1750 0.950 . S
C1758 C1756 1.391 . S
C1758 C1759 1.400 . S
C1759 C1758 1.400 . S
C1759 C1760 1.398 . S
C1759 C1765 1.491 . S
C1760 H1751 0.950 . S
C1760 C1759 1.398 . S
C1760 C1761 1.391 . S
C1761 H1749 0.950 . S
C1761 C1757 1.393 . S
C1761 C1760 1.391 . S
C1762 H1752 0.950 . S
C1762 C1763 1.386 . S
C1762 C1764 1.391 . S
C1763 C1762 1.386 . S
C1763 C1767 1.393 . S
C1764 H1753 0.950 . S
C1764 C1762 1.391 . S
C1764 C1765 1.400 . S
C1765 C1759 1.491 . S
C1765 C1764 1.400 . S
C1765 C1766 1.398 . S
C1766 H1754 0.950 . S
C1766 C1765 1.398 . S
C1766 C1767 1.391 . S
C1767 H1755 0.950 . S
C1767 C1763 1.393 . S
C1767 C1766 1.391 . S
H1768 C1776 0.950 . S
H1769 C1781 0.950 . S
H1770 C1778 0.950 . S
H1771 C1780 0.950 . S
H1772 C1782 0.950 . S
H1773 C1784 0.950 . S
H1774 C1786 0.950 . S
H1775 C1787 0.950 . S
C1776 H1768 0.950 . S
C1776 C1777 1.386 . S
C1776 C1778 1.391 . S
C1777 C1776 1.386 . S
C1777 C1781 1.393 . S
C1778 H1770 0.950 . S
C1778 C1776 1.391 . S
C1778 C1779 1.400 . S
C1779 C1778 1.400 . S
C1779 C1780 1.398 . S
C1779 C1785 1.491 . S
C1780 H1771 0.950 . S
C1780 C1779 1.398 . S
C1780 C1781 1.391 . S
C1781 H1769 0.950 . S
C1781 C1777 1.393 . S
C1781 C1780 1.391 . S
C1782 H1772 0.950 . S
C1782 C1783 1.386 . S
C1782 C1784 1.391 . S
C1783 C1782 1.386 . S
C1783 C1787 1.393 . S
C1784 H1773 0.950 . S
C1784 C1782 1.391 . S
C1784 C1785 1.400 . S
C1785 C1779 1.491 . S
C1785 C1784 1.400 . S
C1785 C1786 1.398 . S
C1786 H1774 0.950 . S
C1786 C1785 1.398 . S
C1786 C1787 1.391 . S
C1787 H1775 0.950 . S
C1787 C1783 1.393 . S
C1787 C1786 1.391 . S
H1788 C1796 0.950 . S
H1789 C1801 0.950 . S
H1790 C1798 0.950 . S
H1791 C1800 0.950 . S
H1792 C1802 0.950 . S
H1793 C1804 0.950 . S
H1794 C1806 0.950 . S
H1795 C1807 0.950 . S
C1796 H1788 0.950 . S
C1796 C1797 1.386 . S
C1796 C1798 1.391 . S
C1797 C1796 1.386 . S
C1797 C1801 1.393 . S
C1798 H1790 0.950 . S
C1798 C1796 1.391 . S
C1798 C1799 1.400 . S
C1799 C1798 1.400 . S
C1799 C1800 1.398 . S
C1799 C1805 1.491 1_456 S
C1800 H1791 0.950 . S
C1800 C1799 1.398 . S
C1800 C1801 1.391 . S
C1801 H1789 0.950 . S
C1801 C1797 1.393 . S
C1801 C1800 1.391 . S
C1802 H1792 0.950 . S
C1802 C1803 1.386 . S
C1802 C1804 1.391 . S
C1803 C1802 1.386 . S
C1803 C1807 1.393 . S
C1804 H1793 0.950 . S
C1804 C1802 1.391 . S
C1804 C1805 1.400 . S
C1805 C1799 1.491 1_654 S
C1805 C1804 1.400 . S
C1805 C1806 1.398 . S
C1806 H1794 0.950 . S
C1806 C1805 1.398 . S
C1806 C1807 1.391 . S
C1807 H1795 0.950 . S
C1807 C1803 1.393 . S
C1807 C1806 1.391 . S
H1808 C1816 0.950 . S
H1809 C1821 0.950 . S
H1810 C1818 0.950 . S
H1811 C1820 0.950 . S
H1812 C1822 0.950 . S
H1813 C1824 0.950 . S
H1814 C1826 0.950 . S
H1815 C1827 0.950 . S
C1816 H1808 0.950 . S
C1816 C1817 1.386 . S
C1816 C1818 1.391 . S
C1817 C1816 1.386 . S
C1817 C1821 1.393 . S
C1818 H1810 0.950 . S
C1818 C1816 1.391 . S
C1818 C1819 1.400 . S
C1819 C1818 1.400 . S
C1819 C1820 1.398 . S
C1819 C1825 1.491 1_554 S
C1820 H1811 0.950 . S
C1820 C1819 1.398 . S
C1820 C1821 1.391 . S
C1821 H1809 0.950 . S
C1821 C1817 1.393 . S
C1821 C1820 1.391 . S
C1822 H1812 0.950 . S
C1822 C1823 1.386 . S
C1822 C1824 1.391 . S
C1823 C1822 1.386 . S
C1823 C1827 1.393 . S
C1824 H1813 0.950 . S
C1824 C1822 1.391 . S
C1824 C1825 1.400 . S
C1825 C1819 1.491 1_556 S
C1825 C1824 1.400 . S
C1825 C1826 1.398 . S
C1826 H1814 0.950 . S
C1826 C1825 1.398 . S
C1826 C1827 1.391 . S
C1827 H1815 0.950 . S
C1827 C1823 1.393 . S
C1827 C1826 1.391 . S
H1828 C1836 0.950 . S
H1829 C1841 0.950 . S
H1830 C1838 0.950 1_565 S
H1831 C1840 0.960 . S
H1832 C1842 0.950 . S
H1833 C1844 0.950 1_545 S
H1834 C1846 0.958 . S
H1835 C1847 0.950 . S
C1836 H1828 0.950 . S
C1836 C1837 1.386 . S
C1836 C1838 1.391 . S
C1837 C1836 1.386 . S
C1837 C1841 1.393 . S
C1838 H1830 0.950 1_545 S
C1838 C1836 1.391 . S
C1838 C1839 1.400 . S
C1839 C1838 1.400 . S
C1839 C1840 1.398 . S
C1839 C1845 1.491 1_544 S
C1840 H1831 0.960 . S
C1840 C1839 1.398 . S
C1840 C1841 1.391 . S
C1841 H1829 0.950 . S
C1841 C1837 1.393 . S
C1841 C1840 1.391 . S
C1842 H1832 0.950 . S
C1842 C1843 1.386 . S
C1842 C1844 1.391 . S
C1843 C1842 1.386 . S
C1843 C1847 1.393 . S
C1844 H1833 0.950 1_565 S
C1844 C1842 1.391 . S
C1844 C1845 1.400 . S
C1845 C1839 1.491 1_566 S
C1845 C1844 1.400 . S
C1845 C1846 1.398 . S
C1846 H1834 0.958 . S
C1846 C1845 1.398 . S
C1846 C1847 1.391 . S
C1847 H1835 0.950 . S
C1847 C1843 1.393 . S
C1847 C1846 1.391 . S
H1848 C1856 0.950 . S
H1849 C1861 0.950 . S
H1850 C1858 0.950 1_545 S
H1851 C1860 0.950 1_554 S
H1852 C1862 0.950 . S
H1853 C1864 0.950 1_565 S
H1854 C1866 0.950 1_556 S
H1855 C1867 0.950 . S
C1856 H1848 0.950 . S
C1856 C1857 1.386 . S
C1856 C1858 1.391 . S
C1857 C1856 1.386 . S
C1857 C1861 1.393 . S
C1858 H1850 0.950 1_565 S
C1858 C1856 1.391 . S
C1858 C1859 1.400 . S
C1859 C1858 1.400 . S
C1859 C1860 1.398 . S
C1859 C1865 1.491 1_566 S
C1860 H1851 0.950 1_556 S
C1860 C1859 1.398 . S
C1860 C1861 1.391 . S
C1861 H1849 0.950 . S
C1861 C1857 1.393 . S
C1861 C1860 1.391 . S
C1862 H1852 0.950 . S
C1862 C1863 1.386 . S
C1862 C1864 1.391 . S
C1863 C1862 1.386 . S
C1863 C1867 1.393 . S
C1864 H1853 0.950 1_545 S
C1864 C1862 1.391 . S
C1864 C1865 1.400 . S
C1865 C1859 1.491 1_544 S
C1865 C1864 1.400 . S
C1865 C1866 1.398 . S
C1866 H1854 0.950 1_554 S
C1866 C1865 1.398 . S
C1866 C1867 1.391 . S
C1867 H1855 0.950 . S
C1867 C1863 1.393 . S
C1867 C1866 1.391 . S
H1868 C1876 0.950 . S
H1869 C1881 0.950 . S
H1870 C1878 0.950 1_554 S
H1871 C1880 0.942 . S
H1872 C1882 0.950 . S
H1873 C1884 0.950 1_556 S
H1874 C1886 0.941 . S
H1875 C1887 0.950 . S
C1876 H1868 0.950 . S
C1876 C1877 1.386 . S
C1876 C1878 1.391 . S
C1877 C1876 1.386 . S
C1877 C1881 1.393 . S
C1878 H1870 0.950 1_556 S
C1878 C1876 1.391 . S
C1878 C1879 1.400 . S
C1879 C1878 1.400 . S
C1879 C1880 1.402 1_455 S
C1879 C1885 1.491 1_456 S
C1880 H1871 0.942 . S
C1880 C1879 1.402 1_655 S
C1880 C1881 1.395 1_655 S
C1881 H1869 0.950 . S
C1881 C1877 1.393 . S
C1881 C1880 1.395 1_455 S
C1882 H1872 0.950 . S
C1882 C1883 1.386 . S
C1882 C1884 1.391 . S
C1883 C1882 1.386 . S
C1883 C1887 1.393 . S
C1884 H1873 0.950 1_554 S
C1884 C1882 1.391 . S
C1884 C1885 1.400 . S
C1885 C1879 1.491 1_654 S
C1885 C1884 1.400 . S
C1885 C1886 1.402 1_655 S
C1886 H1874 0.941 . S
C1886 C1885 1.402 1_455 S
C1886 C1887 1.396 1_455 S
C1887 H1875 0.950 . S
C1887 C1883 1.393 . S
C1887 C1886 1.396 1_655 S
H1888 C1896 0.950 . S
H1889 C1901 0.950 . S
H1890 C1898 0.950 . S
H1891 C1900 0.950 1_556 S
H1892 C1902 0.950 . S
H1893 C1904 0.950 . S
H1894 C1906 0.950 1_554 S
H1895 C1907 0.950 . S
C1896 H1888 0.950 . S
C1896 C1897 1.386 . S
C1896 C1898 1.391 . S
C1897 C1896 1.386 . S
C1897 C1901 1.393 . S
C1898 H1890 0.950 . S
C1898 C1896 1.391 . S
C1898 C1899 1.400 . S
C1899 C1898 1.400 . S
C1899 C1900 1.398 . S
C1899 C1905 1.491 1_554 S
C1900 H1891 0.950 1_554 S
C1900 C1899 1.398 . S
C1900 C1901 1.391 . S
C1901 H1889 0.950 . S
C1901 C1897 1.393 . S
C1901 C1900 1.391 . S
C1902 H1892 0.950 . S
C1902 C1903 1.386 . S
C1902 C1904 1.391 . S
C1903 C1902 1.386 . S
C1903 C1907 1.393 . S
C1904 H1893 0.950 . S
C1904 C1902 1.391 . S
C1904 C1905 1.400 . S
C1905 C1899 1.491 1_556 S
C1905 C1904 1.400 . S
C1905 C1906 1.398 . S
C1906 H1894 0.950 1_556 S
C1906 C1905 1.398 . S
C1906 C1907 1.391 . S
C1907 H1895 0.950 . S
C1907 C1903 1.393 . S
C1907 C1906 1.391 . S
C477 C5 1.163 . S
C483 C148 1.125 . S
C497 C18 1.159 . S
C503 C122 1.129 . S
C517 C135 1.125 . S
C523 C31 1.162 . S
C537 C44 1.163 . S
C543 C96 1.125 . S
C557 C109 1.163 . S
C563 C57 1.124 . S
C577 C70 1.128 . S
C583 C83 1.160 . S
C597 C304 1.133 . S
C603 C161 1.155 . S
C617 C174 1.127 . S
C623 C278 1.161 . S
C637 C187 1.158 . S
C643 C291 1.130 . S
C657 C252 1.163 . S
C663 C200 1.125 . S
C677 C213 1.150 . S
C683 C265 1.138 . S
C697 C239 1.150 . S
C703 C226 1.139 . S
C717 C317 1.147 . S
C723 C460 1.142 . S
C737 C434 1.129 . S
C743 C330 1.159 . S
C757 C447 1.158 . S
C763 C343 1.130 . S
C777 C408 1.156 . S
C783 C356 1.132 . S
C797 C421 1.128 . S
C803 C369 1.159 . S
C817 C395 1.160 . S
C823 C382 1.128 . S
C837 C0 1.196 . S
C843 C52 1.184 . S
C857 C65 1.189 . S
C863 C13 1.177 . S
C877 C26 1.191 . S
C883 C39 1.175 . S
C897 C78 1.182 . S
C903 C130 1.198 . S
C917 C91 1.175 . S
C923 C143 1.193 . S
C937 C104 1.175 . S
C943 C117 1.198 . S
C957 C208 1.197 . S
C963 C156 1.175 . S
C977 C221 1.195 . S
C983 C169 1.175 . S
C997 C182 1.191 . S
C1003 C195 1.191 . S
C1017 C286 1.198 . S
C1023 C234 1.181 . S
C1037 C299 1.175 . S
C1043 C247 1.194 . S
C1057 C260 1.178 . S
C1063 C273 1.187 . S
C1077 C364 1.174 . S
C1083 C312 1.196 . S
C1097 C325 1.176 . S
C1103 C377 1.198 . S
C1117 C338 1.184 . S
C1123 C351 1.180 . S
C1137 C442 1.175 . S
C1143 C390 1.194 . S
C1157 C403 1.189 . S
C1163 C455 1.177 . S
C1177 C429 1.187 . S
C1183 C416 1.178 . S
C1197 C385 1.228 . S
C1203 C8 1.235 . S
C1217 C21 1.240 . S
C1223 C359 1.223 . S
C1237 C34 1.241 . S
C1243 C372 1.221 . S
C1257 C47 1.243 . S
C1263 C177 1.217 . S
C1277 C190 1.223 . S
C1283 C60 1.235 . S
C1297 C164 1.236 . S
C1303 C73 1.227 . S
C1317 C86 1.220 . S
C1323 C307 1.239 . S
C1337 C99 1.238 . S
C1343 C281 1.224 . S
C1357 C112 1.242 . S
C1363 C294 1.219 . S
C1377 C411 1.217 . S
C1383 C125 1.244 . S
C1397 C424 1.242 . S
C1403 C138 1.218 . S
C1417 C151 1.227 . S
C1423 C398 1.232 . S
C1437 C333 1.225 . S
C1443 C203 1.234 . S
C1457 C216 1.217 . S
C1463 C346 1.244 . S
C1477 C320 1.226 . S
C1483 C229 1.233 . S
C1497 C463 1.242 . S
C1503 C242 1.220 . S
C1517 C255 1.224 . S
C1523 C437 1.239 . S
C1537 C268 1.224 . S
C1543 C450 1.234 . S
C1557 C10 1.659 . S
C1563 C387 1.662 . S
C1577 C361 1.646 . S
C1583 C23 1.648 . S
C1597 C36 1.657 . S
C1603 C374 1.653 . S
C1617 C179 1.654 . S
C1623 C49 1.658 . S
C1637 C62 1.647 . S
C1643 C192 1.646 . S
C1657 C75 1.663 . S
C1663 C166 1.663 . S
C1677 C309 1.660 . S
C1683 C88 1.656 . S
C1697 C101 1.661 . S
C1703 C283 1.663 . S
C1717 C114 1.647 . S
C1723 C296 1.646 . S
C1737 C127 1.663 . S
C1743 C413 1.662 . S
C1757 C426 1.656 . S
C1763 C140 1.652 . S
C1777 C153 1.663 . S
C1783 C400 1.663 . S
C1797 C335 1.662 . S
C1803 C205 1.663 . S
C1817 C218 1.663 . S
C1823 C348 1.663 . S
C1837 C231 1.663 . S
C1843 C322 1.661 . S
C1857 C465 1.660 . S
C1863 C244 1.662 . S
C1877 C439 1.658 . S
C1883 C257 1.654 . S
C1897 C270 1.658 . S
C1903 C452 1.661 . S
