# Generated by pormake.
# Topology vdb, (5)-cn, num edge types: 1
# Building blocks:
#     Node 0, Type 0, BuildingBlock: BEQFEK_clean_sbu_0, # of connection points: 5
#     Node 1, Type 0, BuildingBlock: BEQFEK_clean_sbu_0, # of connection points: 5
#     Node 2, Type 0, BuildingBlock: BEQFEK_clean_sbu_0, # of connection points: 5
#     Node 3, Type 0, BuildingBlock: BEQFEK_clean_sbu_0, # of connection points: 5
#     Node 4, Type 0, BuildingBlock: BEQFEK_clean_sbu_0, # of connection points: 5
#     Node 5, Type 0, BuildingBlock: BEQFEK_clean_sbu_0, # of connection points: 5
#     Node 6, Type 0, BuildingBlock: BEQFEK_clean_sbu_0, # of connection points: 5
#     Node 7, Type 0, BuildingBlock: BEQFEK_clean_sbu_0, # of connection points: 5
#     Node 8, Type 0, BuildingBlock: BEQFEK_clean_sbu_0, # of connection points: 5
#     Node 9, Type 0, BuildingBlock: BEQFEK_clean_sbu_0, # of connection points: 5
#     Node 10, Type 0, BuildingBlock: BEQFEK_clean_sbu_0, # of connection points: 5
#     Node 11, Type 0, BuildingBlock: BEQFEK_clean_sbu_0, # of connection points: 5
#     Node 12, Type 0, BuildingBlock: BEQFEK_clean_sbu_0, # of connection points: 5
#     Node 13, Type 0, BuildingBlock: BEQFEK_clean_sbu_0, # of connection points: 5
#     Node 14, Type 0, BuildingBlock: BEQFEK_clean_sbu_0, # of connection points: 5
#     Node 15, Type 0, BuildingBlock: BEQFEK_clean_sbu_0, # of connection points: 5
#     Node 16, Type 0, BuildingBlock: BEQFEK_clean_sbu_0, # of connection points: 5
#     Node 17, Type 0, BuildingBlock: BEQFEK_clean_sbu_0, # of connection points: 5
#     Node 18, Type 0, BuildingBlock: BEQFEK_clean_sbu_0, # of connection points: 5
#     Node 19, Type 0, BuildingBlock: BEQFEK_clean_sbu_0, # of connection points: 5
#     Node 20, Type 0, BuildingBlock: BEQFEK_clean_sbu_0, # of connection points: 5
#     Node 21, Type 0, BuildingBlock: BEQFEK_clean_sbu_0, # of connection points: 5
#     Node 22, Type 0, BuildingBlock: BEQFEK_clean_sbu_0, # of connection points: 5
#     Node 23, Type 0, BuildingBlock: BEQFEK_clean_sbu_0, # of connection points: 5
#     Node 24, Type 0, BuildingBlock: BEQFEK_clean_sbu_0, # of connection points: 5
#     Node 25, Type 0, BuildingBlock: BEQFEK_clean_sbu_0, # of connection points: 5
#     Node 26, Type 0, BuildingBlock: BEQFEK_clean_sbu_0, # of connection points: 5
#     Node 27, Type 0, BuildingBlock: BEQFEK_clean_sbu_0, # of connection points: 5
#     Node 28, Type 0, BuildingBlock: BEQFEK_clean_sbu_0, # of connection points: 5
#     Node 29, Type 0, BuildingBlock: BEQFEK_clean_sbu_0, # of connection points: 5
#     Node 30, Type 0, BuildingBlock: BEQFEK_clean_sbu_0, # of connection points: 5
#     Node 31, Type 0, BuildingBlock: BEQFEK_clean_sbu_0, # of connection points: 5
#     Edge 32, Type (0, 0), BuildingBlock: ZUJKAS_clean_linker_0, # of connection points: 2
#     Edge 33, Type (0, 0), BuildingBlock: ZUJKAS_clean_linker_0, # of connection points: 2
#     Edge 34, Type (0, 0), BuildingBlock: ZUJKAS_clean_linker_0, # of connection points: 2
#     Edge 35, Type (0, 0), BuildingBlock: ZUJKAS_clean_linker_0, # of connection points: 2
#     Edge 36, Type (0, 0), BuildingBlock: ZUJKAS_clean_linker_0, # of connection points: 2
#     Edge 37, Type (0, 0), BuildingBlock: ZUJKAS_clean_linker_0, # of connection points: 2
#     Edge 38, Type (0, 0), BuildingBlock: ZUJKAS_clean_linker_0, # of connection points: 2
#     Edge 39, Type (0, 0), BuildingBlock: ZUJKAS_clean_linker_0, # of connection points: 2
#     Edge 40, Type (0, 0), BuildingBlock: ZUJKAS_clean_linker_0, # of connection points: 2
#     Edge 41, Type (0, 0), BuildingBlock: ZUJKAS_clean_linker_0, # of connection points: 2
#     Edge 42, Type (0, 0), BuildingBlock: ZUJKAS_clean_linker_0, # of connection points: 2
#     Edge 43, Type (0, 0), BuildingBlock: ZUJKAS_clean_linker_0, # of connection points: 2
#     Edge 44, Type (0, 0), BuildingBlock: ZUJKAS_clean_linker_0, # of connection points: 2
#     Edge 45, Type (0, 0), BuildingBlock: ZUJKAS_clean_linker_0, # of connection points: 2
#     Edge 46, Type (0, 0), BuildingBlock: ZUJKAS_clean_linker_0, # of connection points: 2
#     Edge 47, Type (0, 0), BuildingBlock: ZUJKAS_clean_linker_0, # of connection points: 2
#     Edge 48, Type (0, 0), BuildingBlock: ZUJKAS_clean_linker_0, # of connection points: 2
#     Edge 49, Type (0, 0), BuildingBlock: ZUJKAS_clean_linker_0, # of connection points: 2
#     Edge 50, Type (0, 0), BuildingBlock: ZUJKAS_clean_linker_0, # of connection points: 2
#     Edge 51, Type (0, 0), BuildingBlock: ZUJKAS_clean_linker_0, # of connection points: 2
#     Edge 52, Type (0, 0), BuildingBlock: ZUJKAS_clean_linker_0, # of connection points: 2
#     Edge 53, Type (0, 0), BuildingBlock: ZUJKAS_clean_linker_0, # of connection points: 2
#     Edge 54, Type (0, 0), BuildingBlock: ZUJKAS_clean_linker_0, # of connection points: 2
#     Edge 55, Type (0, 0), BuildingBlock: ZUJKAS_clean_linker_0, # of connection points: 2
#     Edge 56, Type (0, 0), BuildingBlock: ZUJKAS_clean_linker_0, # of connection points: 2
#     Edge 57, Type (0, 0), BuildingBlock: ZUJKAS_clean_linker_0, # of connection points: 2
#     Edge 58, Type (0, 0), BuildingBlock: ZUJKAS_clean_linker_0, # of connection points: 2
#     Edge 59, Type (0, 0), BuildingBlock: ZUJKAS_clean_linker_0, # of connection points: 2
#     Edge 60, Type (0, 0), BuildingBlock: ZUJKAS_clean_linker_0, # of connection points: 2
#     Edge 61, Type (0, 0), BuildingBlock: ZUJKAS_clean_linker_0, # of connection points: 2
#     Edge 62, Type (0, 0), BuildingBlock: ZUJKAS_clean_linker_0, # of connection points: 2
#     Edge 63, Type (0, 0), BuildingBlock: ZUJKAS_clean_linker_0, # of connection points: 2
#     Edge 64, Type (0, 0), BuildingBlock: ZUJKAS_clean_linker_0, # of connection points: 2
#     Edge 65, Type (0, 0), BuildingBlock: ZUJKAS_clean_linker_0, # of connection points: 2
#     Edge 66, Type (0, 0), BuildingBlock: ZUJKAS_clean_linker_0, # of connection points: 2
#     Edge 67, Type (0, 0), BuildingBlock: ZUJKAS_clean_linker_0, # of connection points: 2
#     Edge 68, Type (0, 0), BuildingBlock: ZUJKAS_clean_linker_0, # of connection points: 2
#     Edge 69, Type (0, 0), BuildingBlock: ZUJKAS_clean_linker_0, # of connection points: 2
#     Edge 70, Type (0, 0), BuildingBlock: ZUJKAS_clean_linker_0, # of connection points: 2
#     Edge 71, Type (0, 0), BuildingBlock: ZUJKAS_clean_linker_0, # of connection points: 2
#     Edge 72, Type (0, 0), BuildingBlock: ZUJKAS_clean_linker_0, # of connection points: 2
#     Edge 73, Type (0, 0), BuildingBlock: ZUJKAS_clean_linker_0, # of connection points: 2
#     Edge 74, Type (0, 0), BuildingBlock: ZUJKAS_clean_linker_0, # of connection points: 2
#     Edge 75, Type (0, 0), BuildingBlock: ZUJKAS_clean_linker_0, # of connection points: 2
#     Edge 76, Type (0, 0), BuildingBlock: ZUJKAS_clean_linker_0, # of connection points: 2
#     Edge 77, Type (0, 0), BuildingBlock: ZUJKAS_clean_linker_0, # of connection points: 2
#     Edge 78, Type (0, 0), BuildingBlock: ZUJKAS_clean_linker_0, # of connection points: 2
#     Edge 79, Type (0, 0), BuildingBlock: ZUJKAS_clean_linker_0, # of connection points: 2
#     Edge 80, Type (0, 0), BuildingBlock: ZUJKAS_clean_linker_0, # of connection points: 2
#     Edge 81, Type (0, 0), BuildingBlock: ZUJKAS_clean_linker_0, # of connection points: 2
#     Edge 82, Type (0, 0), BuildingBlock: ZUJKAS_clean_linker_0, # of connection points: 2
#     Edge 83, Type (0, 0), BuildingBlock: ZUJKAS_clean_linker_0, # of connection points: 2
#     Edge 84, Type (0, 0), BuildingBlock: ZUJKAS_clean_linker_0, # of connection points: 2
#     Edge 85, Type (0, 0), BuildingBlock: ZUJKAS_clean_linker_0, # of connection points: 2
#     Edge 86, Type (0, 0), BuildingBlock: ZUJKAS_clean_linker_0, # of connection points: 2
#     Edge 87, Type (0, 0), BuildingBlock: ZUJKAS_clean_linker_0, # of connection points: 2
#     Edge 88, Type (0, 0), BuildingBlock: ZUJKAS_clean_linker_0, # of connection points: 2
#     Edge 89, Type (0, 0), BuildingBlock: ZUJKAS_clean_linker_0, # of connection points: 2
#     Edge 90, Type (0, 0), BuildingBlock: ZUJKAS_clean_linker_0, # of connection points: 2
#     Edge 91, Type (0, 0), BuildingBlock: ZUJKAS_clean_linker_0, # of connection points: 2
#     Edge 92, Type (0, 0), BuildingBlock: ZUJKAS_clean_linker_0, # of connection points: 2
#     Edge 93, Type (0, 0), BuildingBlock: ZUJKAS_clean_linker_0, # of connection points: 2
#     Edge 94, Type (0, 0), BuildingBlock: ZUJKAS_clean_linker_0, # of connection points: 2
#     Edge 95, Type (0, 0), BuildingBlock: ZUJKAS_clean_linker_0, # of connection points: 2
#     Edge 96, Type (0, 0), BuildingBlock: ZUJKAS_clean_linker_0, # of connection points: 2
#     Edge 97, Type (0, 0), BuildingBlock: ZUJKAS_clean_linker_0, # of connection points: 2
#     Edge 98, Type (0, 0), BuildingBlock: ZUJKAS_clean_linker_0, # of connection points: 2
#     Edge 99, Type (0, 0), BuildingBlock: ZUJKAS_clean_linker_0, # of connection points: 2
#     Edge 100, Type (0, 0), BuildingBlock: ZUJKAS_clean_linker_0, # of connection points: 2
#     Edge 101, Type (0, 0), BuildingBlock: ZUJKAS_clean_linker_0, # of connection points: 2
#     Edge 102, Type (0, 0), BuildingBlock: ZUJKAS_clean_linker_0, # of connection points: 2
#     Edge 103, Type (0, 0), BuildingBlock: ZUJKAS_clean_linker_0, # of connection points: 2
#     Edge 104, Type (0, 0), BuildingBlock: ZUJKAS_clean_linker_0, # of connection points: 2
#     Edge 105, Type (0, 0), BuildingBlock: ZUJKAS_clean_linker_0, # of connection points: 2
#     Edge 106, Type (0, 0), BuildingBlock: ZUJKAS_clean_linker_0, # of connection points: 2
#     Edge 107, Type (0, 0), BuildingBlock: ZUJKAS_clean_linker_0, # of connection points: 2
#     Edge 108, Type (0, 0), BuildingBlock: ZUJKAS_clean_linker_0, # of connection points: 2
#     Edge 109, Type (0, 0), BuildingBlock: ZUJKAS_clean_linker_0, # of connection points: 2
#     Edge 110, Type (0, 0), BuildingBlock: ZUJKAS_clean_linker_0, # of connection points: 2
#     Edge 111, Type (0, 0), BuildingBlock: ZUJKAS_clean_linker_0, # of connection points: 2
# Relax obj value: 0.426
# Max RMSD: 0.206
# Mean RMSD: 0.206
data_MOF--net-vdb--node1-BEQFEK_clean_sbu_0--edge1-ZUJKAS_clean_linker_0
_symmetry_space_group_name_H-M    P1
_symmetry_Int_Tables_number       1
_symmetry_cell_setting            triclinic
loop_
_symmetry_equiv_pos_as_xyz
'x, y, z'
_cell_length_a     31.334765
_cell_length_b     64.627823
_cell_length_c     143.46814
_cell_angle_alpha  90.0152
_cell_angle_beta   90.003996
_cell_angle_gamma 90.006405
loop_
_atom_site_label
_atom_site_type_symbol
_atom_site_fract_x
_atom_site_fract_y
_atom_site_fract_z
_atom_type_partial_charge
Co0 Co 0.33915 0.02824 0.0839 0.0
Co1 Co 0.39395 0.04553 0.06753 0.0
C2 C 0.30146 0.05624 0.06942 0.0
O3 O 0.29857 0.04486 0.0766 0.0
O4 O 0.33683 0.05839 0.06517 0.0
C5 C 0.27084 0.00457 0.09063 0.0
O6 O 0.26183 0.0036 0.08169 0.0
C7 C 0.41707 0.04807 0.04798 0.0
C8 C 0.48694 0.05221 0.04855 0.0
C9 C 0.45353 0.04819 0.04247 0.0
N10 N 0.4287 0.05095 0.0569 0.0
N11 N 0.47036 0.05405 0.05718 0.0
C12 C 0.37172 0.04508 0.04495 0.0
H13 H 0.35914 0.03039 0.04785 0.0
H14 H 0.36854 0.04516 0.03725 0.0
H15 H 0.35192 0.05783 0.04776 0.0
C16 C 0.37031 0.98813 0.07664 0.0
N17 N 0.36811 0.00895 0.07637 0.0
N18 N 0.39025 0.01588 0.06922 0.0
C19 C 0.40652 0.99938 0.0646 0.0
C20 C 0.39413 0.98138 0.06911 0.0
C21 C 0.3486 0.97488 0.08378 0.0
H22 H 0.34877 0.9827 0.09065 0.0
H23 H 0.31523 0.97199 0.08157 0.0
H24 H 0.36431 0.95966 0.08458 0.0
O25 O 0.38054 0.04622 0.09026 0.0
O26 O 0.4203 0.05898 0.07878 0.0
H27 H 0.45031 0.98536 0.05483 0.0
H28 H 0.41539 0.00473 0.0501 0.0
C29 C 0.43479 1.00048 0.05624 0.0
H30 H 0.45985 0.01229 0.05732 0.0
H31 H 0.48781 0.05599 0.06331 0.0
O32 O 0.30382 0.01434 0.0933 0.0
C33 C 0.41115 0.05756 0.08743 0.0
Co34 Co 0.90791 0.21986 0.08261 0.0
Co35 Co 0.85167 0.20336 0.06633 0.0
C36 C 0.94223 0.19011 0.06828 0.0
O37 O 0.9458 0.2015 0.07546 0.0
O38 O 0.90705 0.18889 0.06387 0.0
C39 C 0.97877 0.24243 0.08889 0.0
O40 O 0.98678 0.24343 0.07991 0.0
C41 C 0.82446 0.19917 0.04701 0.0
C42 C 0.75429 0.19961 0.04836 0.0
C43 C 0.78698 0.2005 0.04186 0.0
N44 N 0.81428 0.19846 0.0561 0.0
N45 N 0.77228 0.19808 0.05686 0.0
C46 C 0.86942 0.19858 0.04346 0.0
H47 H 0.8859 0.18492 0.04644 0.0
H48 H 0.88698 0.21251 0.04584 0.0
H49 H 0.87064 0.19739 0.03575 0.0
C50 C 0.88395 0.26029 0.07467 0.0
N51 N 0.88185 0.23949 0.07483 0.0
N52 N 0.85948 0.23294 0.06763 0.0
C53 C 0.84743 0.24967 0.06257 0.0
C54 C 0.86319 0.26737 0.06682 0.0
C55 C 0.90376 0.27354 0.08206 0.0
H56 H 0.90182 0.26584 0.08894 0.0
H57 H 0.93759 0.27659 0.08027 0.0
H58 H 0.88726 0.28872 0.08246 0.0
O59 O 0.86477 0.20367 0.08926 0.0
O60 O 0.82478 0.19104 0.07781 0.0
H61 H 0.79412 0.23929 0.05452 0.0
H62 H 0.81327 0.26462 0.05133 0.0
C63 C 0.82301 0.24894 0.05364 0.0
H64 H 0.84337 0.24205 0.04817 0.0
H65 H 0.75593 0.19824 0.06319 0.0
O66 O 0.94546 0.2332 0.09174 0.0
C67 C 0.8335 0.19274 0.08647 0.0
Co68 Co 0.3515 0.21859 0.16321 0.0
Co69 Co 0.40058 0.20172 0.18049 0.0
C70 C 0.31074 0.18923 0.17698 0.0
O71 O 0.31065 0.20017 0.16962 0.0
O72 O 0.3437 0.1883 0.18216 0.0
C73 C 0.28485 0.2424 0.1558 0.0
O74 O 0.27474 0.24416 0.16465 0.0
C75 C 0.42111 0.19759 0.20022 0.0
C76 C 0.49154 0.19779 0.19997 0.0
C77 C 0.45682 0.19896 0.20594 0.0
N78 N 0.43424 0.19664 0.19132 0.0
N79 N 0.47638 0.19609 0.19122 0.0
C80 C 0.3751 0.19723 0.20306 0.0
H81 H 0.35937 0.18365 0.19982 0.0
H82 H 0.35867 0.21126 0.20043 0.0
H83 H 0.37135 0.19602 0.21073 0.0
C84 C 0.37503 0.25889 0.1714 0.0
N85 N 0.37537 0.23806 0.17141 0.0
N86 N 0.39484 0.23136 0.17896 0.0
C87 C 0.40648 0.24802 0.18412 0.0
C88 C 0.39366 0.26587 0.17953 0.0
C89 C 0.36024 0.27218 0.16348 0.0
H90 H 0.36391 0.26393 0.15676 0.0
H91 H 0.32632 0.27643 0.16454 0.0
H92 H 0.37894 0.28677 0.16322 0.0
O93 O 0.39678 0.2025 0.15733 0.0
O94 O 0.43036 0.1886 0.16947 0.0
H95 H 0.45689 0.23755 0.19298 0.0
H96 H 0.43613 0.26263 0.19609 0.0
C97 C 0.42758 0.24705 0.19345 0.0
H98 H 0.40545 0.23984 0.19848 0.0
H99 H 0.49478 0.19609 0.18516 0.0
O100 O 0.31777 0.23218 0.15346 0.0
C101 C 0.42572 0.19092 0.16069 0.0
Co102 Co 0.90071 0.03297 0.16279 0.0
Co103 Co 0.85054 0.05009 0.1799 0.0
C104 C 0.94065 0.06264 0.17651 0.0
O105 O 0.94134 0.05153 0.1692 0.0
O106 O 0.90733 0.06363 0.18156 0.0
C107 C 0.96791 0.00924 0.15574 0.0
O108 O 0.97797 0.00852 0.16462 0.0
C109 C 0.83039 0.05424 0.19963 0.0
C110 C 0.75998 0.05444 0.19947 0.0
C111 C 0.79484 0.05299 0.2054 0.0
N112 N 0.81703 0.05536 0.19074 0.0
N113 N 0.77491 0.05616 0.19071 0.0
C114 C 0.8765 0.05423 0.2024 0.0
H115 H 0.89258 0.0677 0.19915 0.0
H116 H 0.89236 0.04008 0.19973 0.0
H117 H 0.88054 0.05539 0.21006 0.0
C118 C 0.87713 0.99279 0.17113 0.0
N119 N 0.8766 0.01363 0.17105 0.0
N120 N 0.8564 0.02044 0.17849 0.0
C121 C 0.84432 0.00385 0.18365 0.0
C122 C 0.85773 0.98595 0.17919 0.0
C123 C 0.89317 0.97932 0.1634 0.0
H124 H 0.88952 0.9872 0.15659 0.0
H125 H 0.92723 0.97556 0.16461 0.0
H126 H 0.87528 0.96449 0.16321 0.0
O127 O 0.85545 0.04895 0.15679 0.0
O128 O 0.8209 0.06287 0.16881 0.0
H129 H 0.79325 0.01476 0.19222 0.0
H130 H 0.81227 0.98936 0.19532 0.0
C131 C 0.82198 0.0049 0.19283 0.0
H132 H 0.8438 0.01172 0.19804 0.0
H133 H 0.75633 0.05634 0.18467 0.0
O134 O 0.93472 0.01899 0.15319 0.0
C135 C 0.82609 0.06045 0.16005 0.0
Co136 Co 0.66238 0.97109 0.91473 0.0
Co137 Co 0.60354 0.95332 0.93027 0.0
C138 C 0.6968 0.94262 0.92925 0.0
O139 O 0.70171 0.95466 0.92235 0.0
O140 O 0.66022 0.94007 0.93295 0.0
C141 C 0.73045 0.99585 0.90825 0.0
O142 O 0.73844 0.99788 0.91719 0.0
C143 C 0.57747 0.95033 0.94961 0.0
C144 C 0.50767 0.94643 0.94855 0.0
C145 C 0.54025 0.95021 0.95487 0.0
N146 N 0.56709 0.94768 0.94061 0.0
N147 N 0.52546 0.94472 0.94003 0.0
C148 C 0.62239 0.9532 0.95296 0.0
H149 H 0.63539 0.96797 0.95022 0.0
H150 H 0.6245 0.95293 0.96067 0.0
H151 H 0.64255 0.94051 0.95021 0.0
C152 C 0.62834 0.0109 0.92161 0.0
N153 N 0.63131 0.99011 0.92193 0.0
N154 N 0.60784 0.98303 0.92885 0.0
C155 C 0.59018 0.99943 0.9333 0.0
C156 C 0.60285 0.01745 0.92887 0.0
C157 C 0.6494 0.0244 0.91448 0.0
H158 H 0.65077 0.01637 0.90766 0.0
H159 H 0.68217 0.02821 0.91682 0.0
H160 H 0.63195 0.03917 0.91356 0.0
O161 O 0.62328 0.95276 0.90798 0.0
O162 O 0.57872 0.94045 0.91868 0.0
H163 H 0.53521 0.98658 0.93999 0.0
H164 H 0.54507 0.01337 0.94281 0.0
C165 C 0.56036 0.99819 0.9414 0.0
H166 H 0.57848 0.99352 0.94766 0.0
H167 H 0.50886 0.94298 0.93377 0.0
O168 O 0.69863 0.98519 0.9056 0.0
C169 C 0.59134 0.94165 0.91022 0.0
Co170 Co 0.08586 0.77894 0.91342 0.0
Co171 Co 0.14406 0.79608 0.92926 0.0
C172 C 0.05107 0.80676 0.92827 0.0
O173 O 0.04657 0.79538 0.92112 0.0
O174 O 0.08735 0.80887 0.93215 0.0
C175 C 0.01685 0.75503 0.90694 0.0
O176 O 0.00809 0.75395 0.91588 0.0
C177 C 0.17123 0.79819 0.94856 0.0
C178 C 0.24084 0.80265 0.94732 0.0
C179 C 0.20881 0.7983 0.95371 0.0
N180 N 0.18091 0.8014 0.93956 0.0
N181 N 0.22241 0.80469 0.93889 0.0
C182 C 0.12663 0.79487 0.95202 0.0
H183 H 0.10587 0.80747 0.94941 0.0
H184 H 0.11394 0.78009 0.94923 0.0
H185 H 0.12502 0.79489 0.95975 0.0
C186 C 0.11892 0.73879 0.92019 0.0
N187 N 0.11653 0.7596 0.92058 0.0
N188 N 0.14028 0.76644 0.9275 0.0
C189 C 0.15787 0.74989 0.93184 0.0
C190 C 0.14466 0.73195 0.92739 0.0
C191 C 0.09577 0.7256 0.91324 0.0
H192 H 0.09501 0.73338 0.90637 0.0
H193 H 0.06272 0.72292 0.91571 0.0
H194 H 0.11096 0.71029 0.91234 0.0
O195 O 0.12573 0.79715 0.90675 0.0
O196 O 0.16796 0.80978 0.91783 0.0
H197 H 0.20434 0.73581 0.94098 0.0
H198 H 0.1703 0.75486 0.94625 0.0
C199 C 0.18821 0.75089 0.93986 0.0
H200 H 0.21271 0.76287 0.93855 0.0
H201 H 0.23852 0.80689 0.9326 0.0
O202 O 0.04949 0.76501 0.90423 0.0
C203 C 0.15684 0.80851 0.90928 0.0
Co204 Co 0.65786 0.77816 0.83371 0.0
Co205 Co 0.59963 0.79598 0.81802 0.0
C206 C 0.69267 0.80716 0.81941 0.0
O207 O 0.69724 0.79531 0.8264 0.0
O208 O 0.65647 0.80916 0.81547 0.0
C209 C 0.72647 0.75406 0.84039 0.0
O210 O 0.73646 0.75326 0.8315 0.0
C211 C 0.57417 0.79908 0.79861 0.0
C212 C 0.50432 0.80285 0.79958 0.0
C213 C 0.53707 0.79912 0.7933 0.0
N214 N 0.56355 0.8017 0.8076 0.0
N215 N 0.52188 0.80459 0.80812 0.0
C216 C 0.6192 0.79634 0.79531 0.0
H217 H 0.63212 0.78147 0.79795 0.0
H218 H 0.62156 0.79691 0.78761 0.0
H219 H 0.63926 0.80893 0.79819 0.0
C220 C 0.62605 0.73827 0.8263 0.0
N221 N 0.62787 0.75911 0.82623 0.0
N222 N 0.60416 0.76629 0.81938 0.0
C223 C 0.58727 0.74996 0.81475 0.0
C224 C 0.60086 0.7318 0.81894 0.0
C225 C 0.64897 0.72468 0.83312 0.0
H226 H 0.68223 0.72233 0.83073 0.0
H227 H 0.63391 0.70925 0.8337 0.0
H228 H 0.64908 0.73194 0.84011 0.0
O229 O 0.61774 0.79601 0.8404 0.0
O230 O 0.57436 0.8088 0.82959 0.0
H231 H 0.54181 0.73619 0.80527 0.0
H232 H 0.57547 0.75588 0.80039 0.0
C233 C 0.55736 0.75131 0.80666 0.0
H234 H 0.53237 0.76297 0.80809 0.0
H235 H 0.5051 0.80628 0.81436 0.0
O236 O 0.69342 0.7639 0.84295 0.0
C237 C 0.58615 0.80727 0.83809 0.0
Co238 Co 0.08817 0.96992 0.83233 0.0
Co239 Co 0.1395 0.95308 0.81539 0.0
C240 C 0.04962 0.94019 0.81837 0.0
O241 O 0.04837 0.95117 0.82573 0.0
O242 O 0.08319 0.93943 0.81338 0.0
C243 C 0.02066 0.99388 0.83942 0.0
O244 O 0.01086 0.9955 0.83055 0.0
C245 C 0.16295 0.94824 0.79585 0.0
C246 C 0.23326 0.9495 0.79656 0.0
C247 C 0.19933 0.94983 0.79036 0.0
N248 N 0.17488 0.94797 0.80485 0.0
N249 N 0.217 0.94804 0.80522 0.0
C250 C 0.11741 0.94707 0.79271 0.0
H251 H 0.10233 0.93323 0.79587 0.0
H252 H 0.09957 0.9608 0.79523 0.0
H253 H 0.11478 0.94575 0.78503 0.0
C254 C 0.11194 0.01024 0.82416 0.0
N255 N 0.11277 0.98941 0.82423 0.0
N256 N 0.13291 0.98269 0.81677 0.0
C257 C 0.14429 0.99931 0.81156 0.0
C258 C 0.13076 0.01719 0.81605 0.0
C259 C 0.09652 0.02358 0.83201 0.0
H260 H 0.09988 0.01541 0.83876 0.0
H261 H 0.06262 0.02773 0.83085 0.0
H262 H 0.11504 0.03821 0.83229 0.0
O263 O 0.13286 0.95406 0.83855 0.0
O264 O 0.16795 0.94018 0.82661 0.0
H265 H 0.19542 0.98931 0.80279 0.0
H266 H 0.1725 0.01375 0.79938 0.0
C267 C 0.16533 0.9982 0.80223 0.0
H268 H 0.14377 0.99021 0.79731 0.0
H269 H 0.23454 0.94863 0.8114 0.0
O270 O 0.0534 0.98364 0.84185 0.0
C271 C 0.16227 0.94252 0.83537 0.0
Co272 Co 0.34301 0.53074 0.58164 0.0
Co273 Co 0.40182 0.54833 0.56608 0.0
C274 C 0.31095 0.56145 0.56745 0.0
O275 O 0.30695 0.55006 0.5746 0.0
O276 O 0.34628 0.56239 0.56308 0.0
C277 C 0.26921 0.5092 0.58637 0.0
O278 O 0.26301 0.51133 0.57736 0.0
C279 C 0.4333 0.55186 0.54712 0.0
C280 C 0.50224 0.55714 0.54928 0.0
C281 C 0.47203 0.55316 0.54243 0.0
N282 N 0.44063 0.55448 0.55627 0.0
N283 N 0.48168 0.55824 0.5575 0.0
C284 C 0.3909 0.5454 0.54326 0.0
H285 H 0.37006 0.53926 0.54886 0.0
H286 H 0.39471 0.53347 0.53776 0.0
H287 H 0.3751 0.55907 0.5401 0.0
C288 C 0.36839 0.49093 0.57333 0.0
N289 N 0.37035 0.51171 0.57372 0.0
N290 N 0.39544 0.5186 0.56704 0.0
C291 C 0.41034 0.50205 0.5622 0.0
C292 C 0.39277 0.48416 0.56593 0.0
C293 C 0.34531 0.47743 0.58015 0.0
H294 H 0.34681 0.48422 0.58723 0.0
H295 H 0.31151 0.47587 0.57798 0.0
H296 H 0.35951 0.46169 0.58034 0.0
O297 O 0.38481 0.54637 0.58901 0.0
O298 O 0.42534 0.56039 0.57798 0.0
H299 H 0.46502 0.51512 0.55539 0.0
H300 H 0.45714 0.48796 0.55316 0.0
C301 C 0.44074 0.50299 0.55418 0.0
H302 H 0.42287 0.50646 0.54771 0.0
H303 H 0.49608 0.5601 0.56401 0.0
O304 O 0.30318 0.51635 0.58998 0.0
C305 C 0.41566 0.55798 0.58656 0.0
Co306 Co 0.9152 0.72126 0.5827 0.0
Co307 Co 0.85864 0.70466 0.56649 0.0
C308 C 0.94856 0.69099 0.56829 0.0
O309 O 0.95169 0.70196 0.57562 0.0
O310 O 0.91393 0.69049 0.56365 0.0
C311 C 0.9876 0.74335 0.58747 0.0
O312 O 0.99267 0.74195 0.5784 0.0
C313 C 0.82872 0.69966 0.54739 0.0
C314 C 0.75892 0.70209 0.54913 0.0
C315 C 0.79084 0.70175 0.54244 0.0
N316 N 0.81963 0.69976 0.55654 0.0
N317 N 0.77775 0.70053 0.55754 0.0
C318 C 0.87309 0.69779 0.54359 0.0
H319 H 0.88853 0.68395 0.54667 0.0
H320 H 0.89227 0.71146 0.54566 0.0
H321 H 0.87318 0.69605 0.5359 0.0
C322 C 0.8904 0.76154 0.57479 0.0
N323 N 0.88892 0.74073 0.57486 0.0
N324 N 0.86649 0.73418 0.56769 0.0
C325 C 0.85388 0.75088 0.56268 0.0
C326 C 0.86917 0.76867 0.56699 0.0
C327 C 0.90923 0.77463 0.58236 0.0
H328 H 0.90682 0.76664 0.58918 0.0
H329 H 0.94323 0.77779 0.58077 0.0
H330 H 0.89245 0.78973 0.58283 0.0
O331 O 0.87239 0.70566 0.58971 0.0
O332 O 0.83346 0.69236 0.57822 0.0
H333 H 0.7992 0.74176 0.55479 0.0
H334 H 0.82344 0.76549 0.5508 0.0
C335 C 0.82989 0.74991 0.55369 0.0
H336 H 0.849 0.74119 0.54855 0.0
H337 H 0.76224 0.70155 0.56396 0.0
O338 O 0.95467 0.73538 0.5912 0.0
C339 C 0.84172 0.69435 0.5869 0.0
Co340 Co 0.3522 0.72113 0.66308 0.0
Co341 Co 0.40136 0.70342 0.68021 0.0
C342 C 0.31096 0.69118 0.67635 0.0
O343 O 0.31074 0.70239 0.66907 0.0
O344 O 0.34391 0.69017 0.68154 0.0
C345 C 0.28356 0.74224 0.65484 0.0
O346 O 0.26604 0.73851 0.66299 0.0
C347 C 0.41947 0.69966 0.70004 0.0
C348 C 0.4897 0.69708 0.7002 0.0
C349 C 0.4546 0.69989 0.70596 0.0
N350 N 0.43341 0.69774 0.69122 0.0
N351 N 0.47532 0.69557 0.69138 0.0
C352 C 0.37324 0.70134 0.7026 0.0
H353 H 0.35991 0.71604 0.69988 0.0
H354 H 0.36831 0.70034 0.71024 0.0
H355 H 0.35538 0.68852 0.69927 0.0
C356 C 0.37292 0.76086 0.67201 0.0
N357 N 0.375 0.74007 0.67164 0.0
N358 N 0.39644 0.73312 0.67889 0.0
C359 C 0.40884 0.74961 0.68408 0.0
C360 C 0.39357 0.76756 0.67995 0.0
C361 C 0.35272 0.7743 0.66474 0.0
H362 H 0.36043 0.7684 0.65769 0.0
H363 H 0.31762 0.77421 0.66571 0.0
H364 H 0.36409 0.79053 0.66529 0.0
O365 O 0.39777 0.70497 0.65723 0.0
O366 O 0.43124 0.6904 0.66922 0.0
H367 H 0.46045 0.73745 0.69217 0.0
H368 H 0.44638 0.76377 0.69501 0.0
C369 C 0.4336 0.74843 0.69296 0.0
H370 H 0.41228 0.743 0.69859 0.0
H371 H 0.49434 0.69452 0.68543 0.0
O372 O 0.32126 0.73598 0.65325 0.0
C373 C 0.42644 0.69304 0.66046 0.0
Co374 Co 0.90226 0.53176 0.66252 0.0
Co375 Co 0.8527 0.54897 0.67968 0.0
C376 C 0.94239 0.56198 0.67594 0.0
O377 O 0.94282 0.55088 0.66861 0.0
O378 O 0.90954 0.56266 0.68116 0.0
C379 C 0.97183 0.51113 0.65433 0.0
O380 O 0.98896 0.51468 0.66254 0.0
C381 C 0.8322 0.55321 0.69941 0.0
C382 C 0.76181 0.5543 0.69911 0.0
C383 C 0.79633 0.55254 0.70511 0.0
N384 N 0.81927 0.55438 0.6905 0.0
N385 N 0.7772 0.55567 0.69038 0.0
C386 C 0.87818 0.55278 0.70228 0.0
H387 H 0.8936 0.53848 0.69965 0.0
H388 H 0.88192 0.55393 0.70995 0.0
H389 H 0.89495 0.56605 0.69903 0.0
C390 C 0.88261 0.49181 0.67131 0.0
N391 N 0.87999 0.51258 0.67102 0.0
N392 N 0.85896 0.51931 0.67836 0.0
C393 C 0.84769 0.50271 0.6836 0.0
C394 C 0.86306 0.48487 0.67935 0.0
C395 C 0.90188 0.47862 0.66383 0.0
H396 H 0.89399 0.48498 0.65687 0.0
H397 H 0.93704 0.47834 0.6647 0.0
H398 H 0.88991 0.46248 0.66422 0.0
O399 O 0.85624 0.5474 0.6566 0.0
O400 O 0.82271 0.56173 0.66863 0.0
H401 H 0.79615 0.51388 0.69199 0.0
H402 H 0.81415 0.4883 0.69511 0.0
C403 C 0.8245 0.50378 0.69269 0.0
H404 H 0.84604 0.51033 0.69802 0.0
H405 H 0.7589 0.55603 0.6843 0.0
O406 O 0.93409 0.51729 0.65271 0.0
C407 C 0.82731 0.55912 0.65987 0.0
Co408 Co 0.65938 0.47003 0.41647 0.0
Co409 Co 0.6019 0.45202 0.43216 0.0
C410 C 0.69262 0.43902 0.43043 0.0
O411 O 0.696 0.45042 0.42326 0.0
O412 O 0.65775 0.43816 0.43497 0.0
C413 C 0.73251 0.49191 0.41142 0.0
O414 O 0.73985 0.48981 0.42039 0.0
C415 C 0.57146 0.44848 0.4512 0.0
C416 C 0.50253 0.44288 0.44921 0.0
C417 C 0.53297 0.4471 0.45597 0.0
N418 N 0.56376 0.44569 0.44207 0.0
N419 N 0.52274 0.44173 0.44094 0.0
C420 C 0.61392 0.45519 0.45495 0.0
H421 H 0.63441 0.46129 0.44928 0.0
H422 H 0.61014 0.46721 0.46041 0.0
H423 H 0.63007 0.44164 0.45813 0.0
C424 C 0.63386 0.50965 0.42489 0.0
N425 N 0.63269 0.48885 0.42456 0.0
N426 N 0.6078 0.48182 0.43124 0.0
C427 C 0.59223 0.49828 0.43604 0.0
C428 C 0.60917 0.5163 0.43227 0.0
C429 C 0.65562 0.52322 0.41789 0.0
H430 H 0.65359 0.51625 0.41085 0.0
H431 H 0.68961 0.52511 0.41986 0.0
H432 H 0.64079 0.53881 0.41768 0.0
O433 O 0.61655 0.45491 0.4092 0.0
O434 O 0.57788 0.43991 0.42031 0.0
H435 H 0.53761 0.48487 0.44274 0.0
H436 H 0.54493 0.512 0.44511 0.0
C437 C 0.56164 0.49709 0.44402 0.0
H438 H 0.57941 0.49354 0.45049 0.0
H439 H 0.50807 0.43973 0.43448 0.0
O440 O 0.69829 0.4846 0.40799 0.0
C441 C 0.58638 0.44299 0.41172 0.0
Co442 Co 0.09069 0.28001 0.41555 0.0
Co443 Co 0.14824 0.29837 0.43119 0.0
C444 C 0.05562 0.30961 0.42974 0.0
O445 O 0.05209 0.29832 0.42253 0.0
O446 O 0.09106 0.31103 0.43407 0.0
C447 C 0.01729 0.26028 0.40815 0.0
O448 O 0.00031 0.26603 0.41611 0.0
C449 C 0.17869 0.30082 0.45023 0.0
C450 C 0.24624 0.30968 0.44837 0.0
C451 C 0.21684 0.30344 0.45503 0.0
N452 N 0.18562 0.30492 0.44119 0.0
N453 N 0.22573 0.31075 0.44014 0.0
C454 C 0.13773 0.29191 0.45383 0.0
H455 H 0.11791 0.28595 0.44802 0.0
H456 H 0.14392 0.27928 0.45889 0.0
H457 H 0.11958 0.30425 0.45747 0.0
C458 C 0.11859 0.24065 0.42375 0.0
N459 N 0.11892 0.26146 0.42349 0.0
N460 N 0.14479 0.26865 0.42995 0.0
C461 C 0.16245 0.2523 0.43444 0.0
C462 C 0.14611 0.23415 0.43069 0.0
C463 C 0.09029 0.22739 0.41782 0.0
H464 H 0.09697 0.23046 0.41036 0.0
H465 H 0.05656 0.23143 0.41924 0.0
H466 H 0.09447 0.21067 0.41923 0.0
O467 O 0.13198 0.2968 0.40851 0.0
O468 O 0.17153 0.31137 0.41955 0.0
H469 H 0.21783 0.26692 0.44034 0.0
H470 H 0.21587 0.2392 0.44183 0.0
C471 C 0.19655 0.25359 0.44172 0.0
H472 H 0.18163 0.25536 0.44866 0.0
H473 H 0.23979 0.31412 0.43372 0.0
O474 O 0.05603 0.26463 0.40645 0.0
C475 C 0.16199 0.30888 0.41098 0.0
Co476 Co 0.65216 0.28053 0.33364 0.0
Co477 Co 0.59797 0.2978 0.31715 0.0
C478 C 0.68798 0.31102 0.31967 0.0
O479 O 0.69011 0.29983 0.32694 0.0
O480 O 0.65396 0.31173 0.31482 0.0
C481 C 0.72392 0.2586 0.33925 0.0
O482 O 0.73214 0.26063 0.33032 0.0
C483 C 0.57163 0.30275 0.2978 0.0
C484 C 0.50142 0.30199 0.29898 0.0
C485 C 0.53445 0.30138 0.29255 0.0
N486 N 0.56098 0.30318 0.30687 0.0
N487 N 0.51893 0.30339 0.30753 0.0
C488 C 0.61676 0.30354 0.29437 0.0
H489 H 0.63301 0.31708 0.29752 0.0
H490 H 0.63423 0.28951 0.29666 0.0
H491 H 0.61836 0.3051 0.28668 0.0
C492 C 0.62871 0.24057 0.3252 0.0
N493 N 0.62683 0.26136 0.3255 0.0
N494 N 0.60478 0.26819 0.31832 0.0
C495 C 0.59249 0.25166 0.31315 0.0
C496 C 0.60789 0.23376 0.3173 0.0
C497 C 0.64838 0.22713 0.33254 0.0
H498 H 0.6448 0.23432 0.33951 0.0
H499 H 0.68273 0.22494 0.33098 0.0
H500 H 0.63309 0.21163 0.33263 0.0
O501 O 0.60858 0.2963 0.34036 0.0
O502 O 0.5718 0.31033 0.3287 0.0
H503 H 0.53921 0.26219 0.30514 0.0
H504 H 0.55933 0.23727 0.30159 0.0
C505 C 0.56844 0.25282 0.30417 0.0
H506 H 0.58881 0.26028 0.29886 0.0
H507 H 0.50225 0.30296 0.31382 0.0
O508 O 0.68953 0.26612 0.3425 0.0
C509 C 0.57891 0.30805 0.33741 0.0
Co510 Co 0.09049 0.4727 0.33327 0.0
Co511 Co 0.14201 0.45448 0.31656 0.0
C512 C 0.0506 0.44291 0.31975 0.0
O513 O 0.04932 0.45424 0.327 0.0
O514 O 0.08443 0.44164 0.31486 0.0
C515 C 0.02081 0.49332 0.34163 0.0
O516 O 0.00236 0.4889 0.33365 0.0
C517 C 0.16329 0.4512 0.2969 0.0
C518 C 0.23312 0.44683 0.29729 0.0
C519 C 0.19944 0.45083 0.29128 0.0
N520 N 0.17542 0.4485 0.3058 0.0
N521 N 0.21704 0.44526 0.30597 0.0
C522 C 0.1178 0.45424 0.29399 0.0
H523 H 0.10628 0.46954 0.29643 0.0
H524 H 0.11393 0.45296 0.28633 0.0
H525 H 0.0976 0.44227 0.29732 0.0
C526 C 0.11496 0.51222 0.32462 0.0
N527 N 0.11545 0.4914 0.32489 0.0
N528 N 0.138 0.48419 0.31786 0.0
C529 C 0.15267 0.50053 0.31288 0.0
C530 C 0.13829 0.51868 0.31698 0.0
C531 C 0.09048 0.5256 0.33126 0.0
H532 H 0.09849 0.52127 0.33853 0.0
H533 H 0.05587 0.52309 0.33015 0.0
H534 H 0.0972 0.54227 0.33025 0.0
O535 O 0.13472 0.45616 0.33944 0.0
O536 O 0.16986 0.44135 0.32774 0.0
H537 H 0.20618 0.4873 0.30575 0.0
H538 H 0.19711 0.51429 0.3032 0.0
C539 C 0.18137 0.49921 0.30459 0.0
H540 H 0.16222 0.49503 0.2984 0.0
H541 H 0.23484 0.44343 0.31206 0.0
O542 O 0.05919 0.4878 0.34299 0.0
C543 C 0.16366 0.44407 0.33644 0.0
Co544 Co 0.84568 0.03237 0.58323 0.0
Co545 Co 0.89769 0.04995 0.56651 0.0
C546 C 0.8074 0.063 0.56983 0.0
O547 O 0.80589 0.05173 0.57709 0.0
O548 O 0.84096 0.06375 0.56483 0.0
C549 C 0.77501 0.01184 0.59105 0.0
O550 O 0.75787 0.01643 0.58295 0.0
C551 C 0.91989 0.05418 0.54691 0.0
C552 C 0.99018 0.05608 0.54749 0.0
C553 C 0.95625 0.05382 0.54136 0.0
N554 N 0.93201 0.05565 0.55586 0.0
N555 N 0.97398 0.05743 0.55615 0.0
C556 C 0.8742 0.0531 0.54387 0.0
H557 H 0.85621 0.06595 0.54714 0.0
H558 H 0.85966 0.03843 0.54632 0.0
H559 H 0.87097 0.05447 0.5362 0.0
C560 C 0.86536 0.99267 0.57418 0.0
N561 N 0.8686 0.01341 0.5747 0.0
N562 N 0.8913 0.02028 0.56762 0.0
C563 C 0.90339 0.00379 0.5624 0.0
C564 C 0.88659 0.98594 0.56633 0.0
C565 C 0.84319 0.97928 0.58119 0.0
H566 H 0.85059 0.98466 0.58834 0.0
H567 H 0.80826 0.98013 0.58004 0.0
H568 H 0.85323 0.96287 0.58053 0.0
O569 O 0.89132 0.04774 0.58949 0.0
O570 O 0.92666 0.06227 0.57776 0.0
H571 H 0.95645 0.01564 0.55466 0.0
H572 H 0.94191 0.98943 0.55171 0.0
C573 C 0.92936 0.00486 0.55369 0.0
H574 H 0.90897 0.01049 0.54794 0.0
H575 H 0.99174 0.05809 0.5623 0.0
O576 O 0.81301 0.01748 0.59277 0.0
C577 C 0.9209 0.05942 0.58647 0.0
Co578 Co 0.40213 0.22307 0.58208 0.0
Co579 Co 0.34899 0.20397 0.56589 0.0
C580 C 0.44058 0.19246 0.56873 0.0
O581 O 0.44225 0.20413 0.57585 0.0
O582 O 0.40648 0.19096 0.56393 0.0
C583 C 0.47308 0.24402 0.58978 0.0
O584 O 0.49031 0.23942 0.58169 0.0
C585 C 0.32363 0.20061 0.5465 0.0
C586 C 0.25557 0.19208 0.54763 0.0
C587 C 0.28669 0.19794 0.54127 0.0
N588 N 0.31434 0.19696 0.55548 0.0
N589 N 0.27395 0.19129 0.5561 0.0
C590 C 0.36566 0.20913 0.54331 0.0
H591 H 0.38419 0.2152 0.54931 0.0
H592 H 0.36109 0.22158 0.53809 0.0
H593 H 0.38431 0.19653 0.53999 0.0
C594 C 0.37685 0.26206 0.57317 0.0
N595 N 0.37655 0.24127 0.57359 0.0
N596 N 0.35275 0.23379 0.56681 0.0
C597 C 0.33676 0.24995 0.5619 0.0
C598 C 0.352 0.26821 0.56573 0.0
C599 C 0.40125 0.27581 0.57966 0.0
H600 H 0.39416 0.2715 0.58698 0.0
H601 H 0.43588 0.27373 0.57841 0.0
H602 H 0.39338 0.29238 0.57863 0.0
O603 O 0.35835 0.20715 0.58872 0.0
O604 O 0.3223 0.19162 0.57735 0.0
H605 H 0.2833 0.23527 0.55525 0.0
H606 H 0.28627 0.26291 0.55355 0.0
C607 C 0.30523 0.24845 0.55411 0.0
H608 H 0.32244 0.24634 0.54744 0.0
H609 H 0.25823 0.18827 0.56236 0.0
O610 O 0.43491 0.23857 0.59144 0.0
C611 C 0.3291 0.19492 0.58599 0.0
Co612 Co 0.84098 0.22044 0.66469 0.0
Co613 Co 0.89906 0.20358 0.68055 0.0
C614 C 0.80862 0.18982 0.67888 0.0
O615 O 0.80482 0.20102 0.67166 0.0
O616 O 0.84363 0.18926 0.68339 0.0
C617 C 0.76698 0.24123 0.65932 0.0
O618 O 0.75915 0.23914 0.66827 0.0
C619 C 0.92925 0.20073 0.69964 0.0
C620 C 0.99833 0.19541 0.69774 0.0
C621 C 0.96766 0.19957 0.70446 0.0
N622 N 0.93721 0.19787 0.69053 0.0
N623 N 0.97834 0.1941 0.68945 0.0
C624 C 0.88655 0.20722 0.70333 0.0
H625 H 0.866 0.21309 0.69762 0.0
H626 H 0.88993 0.21934 0.70875 0.0
H627 H 0.8707 0.19362 0.70653 0.0
C628 C 0.86453 0.26058 0.67295 0.0
N629 N 0.86708 0.23981 0.67264 0.0
N630 N 0.89208 0.23323 0.6794 0.0
C631 C 0.90641 0.24996 0.68419 0.0
C632 C 0.88853 0.26766 0.68035 0.0
C633 C 0.84108 0.27378 0.66606 0.0
H634 H 0.84351 0.26704 0.65899 0.0
H635 H 0.80704 0.27479 0.66812 0.0
H636 H 0.85428 0.28972 0.66592 0.0
O637 O 0.88392 0.20493 0.6576 0.0
O638 O 0.92389 0.19137 0.66884 0.0
H639 H 0.96107 0.23728 0.69116 0.0
H640 H 0.95286 0.2645 0.69317 0.0
C641 C 0.93663 0.24939 0.69225 0.0
H642 H 0.91866 0.24612 0.69872 0.0
H643 H 0.99317 0.19204 0.68301 0.0
O644 O 0.80185 0.23435 0.65602 0.0
C645 C 0.91487 0.19357 0.66021 0.0
Co646 Co 0.41101 0.03074 0.6634 0.0
Co647 Co 0.35565 0.04778 0.6797 0.0
C648 C 0.44683 0.05964 0.67805 0.0
O649 O 0.44935 0.04882 0.67068 0.0
O650 O 0.41206 0.06072 0.68261 0.0
C651 C 0.48154 0.00755 0.65828 0.0
O652 O 0.48714 0.00837 0.66735 0.0
C653 C 0.32693 0.0515 0.6989 0.0
C654 C 0.25696 0.05299 0.69725 0.0
C655 C 0.28889 0.05072 0.70387 0.0
N656 N 0.31771 0.05317 0.68979 0.0
N657 N 0.2759 0.05472 0.68886 0.0
C658 C 0.37155 0.05057 0.70263 0.0
H659 H 0.39001 0.06382 0.69984 0.0
H660 H 0.38741 0.0362 0.70021 0.0
H661 H 0.37224 0.05145 0.71035 0.0
C662 C 0.38058 0.99061 0.67065 0.0
N663 N 0.38226 0.01144 0.67095 0.0
N664 N 0.36045 0.01818 0.67817 0.0
C665 C 0.34539 0.00154 0.68289 0.0
C666 C 0.35779 0.98367 0.67828 0.0
C667 C 0.40146 0.97747 0.66336 0.0
H668 H 0.40128 0.98552 0.65655 0.0
H669 H 0.43482 0.97419 0.66547 0.0
H670 H 0.38496 0.96242 0.66254 0.0
O671 O 0.3698 0.0477 0.65657 0.0
O672 O 0.33145 0.06111 0.66813 0.0
H673 H 0.29176 0.01306 0.6905 0.0
H674 H 0.3064 0.98688 0.69343 0.0
C675 C 0.31895 0.00239 0.69154 0.0
H676 H 0.33888 0.00811 0.69735 0.0
H677 H 0.26015 0.05545 0.68246 0.0
O678 O 0.44912 0.01632 0.65472 0.0
C679 C 0.33989 0.05939 0.65945 0.0
Co680 Co 0.15968 0.97352 0.41356 0.0
Co681 Co 0.108 0.95521 0.43021 0.0
C682 C 0.19948 0.94379 0.42713 0.0
O683 O 0.20073 0.9551 0.41988 0.0
O684 O 0.16563 0.94247 0.43201 0.0
C685 C 0.22962 0.99432 0.40551 0.0
O686 O 0.24749 0.98967 0.41353 0.0
C687 C 0.08604 0.95179 0.44983 0.0
C688 C 0.01619 0.94754 0.44931 0.0
C689 C 0.04968 0.95148 0.45538 0.0
N690 N 0.07422 0.94914 0.44091 0.0
N691 N 0.03259 0.94596 0.44066 0.0
C692 C 0.13145 0.95475 0.45282 0.0
H693 H 0.15167 0.94274 0.44952 0.0
H694 H 0.14318 0.97003 0.4504 0.0
H695 H 0.13503 0.95346 0.46049 0.0
C696 C 0.13481 0.013 0.4222 0.0
N697 N 0.13438 0.99218 0.42192 0.0
N698 N 0.11178 0.98495 0.42893 0.0
C699 C 0.09701 0.00127 0.43391 0.0
C700 C 0.11135 0.01944 0.42983 0.0
C701 C 0.15958 0.02639 0.41562 0.0
H702 H 0.19413 0.02392 0.41682 0.0
H703 H 0.15287 0.04307 0.41661 0.0
H704 H 0.15193 0.02207 0.40833 0.0
O705 O 0.1158 0.95691 0.4073 0.0
O706 O 0.08071 0.94201 0.41898 0.0
H707 H 0.0526 0.01498 0.44362 0.0
H708 H 0.08749 0.99568 0.44838 0.0
C709 C 0.06832 0.99991 0.4422 0.0
H710 H 0.0435 0.98801 0.44103 0.0
H711 H 0.01499 0.94419 0.43454 0.0
O712 O 0.1914 0.98878 0.40396 0.0
C713 C 0.08701 0.94472 0.41028 0.0
Co714 Co 0.59728 0.78036 0.41336 0.0
Co715 Co 0.65057 0.7971 0.43006 0.0
C716 C 0.56207 0.81171 0.42707 0.0
O717 O 0.56014 0.80051 0.4198 0.0
O718 O 0.59547 0.81192 0.43212 0.0
C719 C 0.525 0.75916 0.40779 0.0
O720 O 0.51732 0.76119 0.41675 0.0
C721 C 0.67547 0.80227 0.44948 0.0
C722 C 0.7456 0.79972 0.44864 0.0
C723 C 0.71193 0.80023 0.45491 0.0
N724 N 0.68702 0.80202 0.44046 0.0
N725 N 0.72908 0.80115 0.44 0.0
C726 C 0.63018 0.80437 0.45269 0.0
H727 H 0.6159 0.81827 0.44941 0.0
H728 H 0.6113 0.7908 0.45037 0.0
H729 H 0.628 0.80614 0.46036 0.0
C730 C 0.61686 0.74021 0.42203 0.0
N731 N 0.62033 0.76095 0.42168 0.0
N732 N 0.64158 0.76757 0.42901 0.0
C733 C 0.6514 0.75096 0.43438 0.0
C734 C 0.63542 0.73323 0.43017 0.0
C735 C 0.59791 0.72691 0.41455 0.0
H736 H 0.60248 0.73412 0.40762 0.0
H737 H 0.56336 0.72477 0.41591 0.0
H738 H 0.613 0.71137 0.41454 0.0
O739 O 0.64281 0.79488 0.40677 0.0
O740 O 0.67874 0.809 0.41855 0.0
H741 H 0.70379 0.76055 0.4429 0.0
H742 H 0.68029 0.73629 0.4464 0.0
C743 C 0.67343 0.75194 0.44361 0.0
H744 H 0.65268 0.76012 0.44863 0.0
H745 H 0.74629 0.80002 0.4338 0.0
O746 O 0.55944 0.76642 0.40446 0.0
C747 C 0.67277 0.80631 0.40982 0.0
Co748 Co 0.16056 0.77808 0.33227 0.0
Co749 Co 0.10487 0.79687 0.31636 0.0
C750 C 0.19778 0.80762 0.31843 0.0
O751 O 0.20112 0.79572 0.32544 0.0
O752 O 0.16229 0.80977 0.3142 0.0
C753 C 0.23124 0.75657 0.33966 0.0
O754 O 0.24771 0.76093 0.33147 0.0
C755 C 0.08044 0.7999 0.29692 0.0
C756 C 0.01104 0.80543 0.29777 0.0
C757 C 0.04351 0.80063 0.29156 0.0
N758 N 0.06987 0.80315 0.30587 0.0
N759 N 0.02855 0.80708 0.30631 0.0
C760 C 0.1252 0.79585 0.29373 0.0
H761 H 0.1356 0.78034 0.29614 0.0
H762 H 0.12808 0.79691 0.28604 0.0
H763 H 0.14695 0.80742 0.29687 0.0
C764 C 0.13172 0.73884 0.324 0.0
N765 N 0.13242 0.75966 0.32425 0.0
N766 N 0.10816 0.76712 0.31756 0.0
C767 C 0.09094 0.75095 0.31286 0.0
C768 C 0.10559 0.73264 0.31675 0.0
C769 C 0.15761 0.72519 0.33026 0.0
H770 H 0.1919 0.72746 0.32869 0.0
H771 H 0.15016 0.70857 0.3293 0.0
H772 H 0.1518 0.72946 0.33764 0.0
O773 O 0.11903 0.79554 0.33897 0.0
O774 O 0.07949 0.80971 0.32781 0.0
H775 H 0.04179 0.7378 0.30414 0.0
H776 H 0.07619 0.75623 0.29858 0.0
C777 C 0.0592 0.7526 0.30513 0.0
H778 H 0.03591 0.76502 0.30666 0.0
H779 H 0.01182 0.80943 0.31251 0.0
O780 O 0.19361 0.76252 0.34155 0.0
C781 C 0.08887 0.80745 0.33641 0.0
Co782 Co 0.59224 0.97141 0.3326 0.0
Co783 Co 0.64828 0.95383 0.31648 0.0
C784 C 0.55664 0.94236 0.31807 0.0
O785 O 0.55355 0.95376 0.32525 0.0
O786 O 0.59196 0.94052 0.31377 0.0
C787 C 0.52179 0.99476 0.33767 0.0
O788 O 0.51616 0.99379 0.32861 0.0
C789 C 0.6758 0.95007 0.29721 0.0
C790 C 0.74586 0.94851 0.29862 0.0
C791 C 0.71348 0.95089 0.29211 0.0
N792 N 0.68566 0.9483 0.30629 0.0
N793 N 0.72754 0.94669 0.30707 0.0
C794 C 0.63092 0.95114 0.29364 0.0
H795 H 0.61235 0.93803 0.29653 0.0
H796 H 0.61556 0.96563 0.29607 0.0
H797 H 0.62964 0.95016 0.28593 0.0
C798 C 0.62333 0.01127 0.32529 0.0
N799 N 0.62151 0.99045 0.32507 0.0
N800 N 0.64346 0.98353 0.31789 0.0
C801 C 0.65883 1.00007 0.31315 0.0
C802 C 0.64643 0.01804 0.31768 0.0
C803 C 0.60226 0.02458 0.33249 0.0
H804 H 0.60231 0.0167 0.33935 0.0
H805 H 0.56893 0.02778 0.33033 0.0
H806 H 0.61869 0.03966 0.33326 0.0
O807 O 0.63299 0.95413 0.33947 0.0
O808 O 0.67268 0.94084 0.32809 0.0
H809 H 0.71262 0.98829 0.30567 0.0
H810 H 0.69849 0.0145 0.30267 0.0
C811 C 0.68563 0.99905 0.30456 0.0
H812 H 0.66587 0.99335 0.29872 0.0
H813 H 0.74374 0.94591 0.31341 0.0
O814 O 0.55425 0.98605 0.34126 0.0
C815 C 0.66338 0.94254 0.33673 0.0
Co816 Co 0.8412 0.53052 0.08252 0.0
Co817 Co 0.89411 0.54822 0.06596 0.0
C818 C 0.80253 0.5594 0.06839 0.0
O819 O 0.80044 0.54782 0.07554 0.0
O820 O 0.83726 0.56147 0.06388 0.0
C821 C 0.7747 0.50552 0.08938 0.0
O822 O 0.7657 0.50368 0.08048 0.0
C823 C 0.91805 0.55318 0.04648 0.0
C824 C 0.98837 0.55376 0.04732 0.0
C825 C 0.95477 0.55245 0.04105 0.0
N826 N 0.92957 0.55393 0.05549 0.0
N827 N 0.97162 0.55494 0.05594 0.0
C828 C 0.87255 0.55306 0.04326 0.0
H829 H 0.85562 0.56644 0.04638 0.0
H830 H 0.85634 0.53884 0.04574 0.0
H831 H 0.87008 0.55427 0.03557 0.0
C832 C 0.86935 0.49069 0.07462 0.0
N833 N 0.86866 0.51151 0.07465 0.0
N834 N 0.88923 0.51852 0.0673 0.0
C835 C 0.90266 0.50207 0.06222 0.0
C836 C 0.8898 0.48401 0.06665 0.0
C837 C 0.85361 0.47714 0.08236 0.0
H838 H 0.85554 0.48535 0.08912 0.0
H839 H 0.82014 0.47253 0.08097 0.0
H840 H 0.87292 0.46277 0.08277 0.0
O841 O 0.88321 0.5479 0.08891 0.0
O842 O 0.92116 0.56117 0.07728 0.0
H843 H 0.95419 0.5132 0.05384 0.0
H844 H 0.93497 0.48799 0.05045 0.0
C845 C 0.92537 0.50343 0.05308 0.0
H846 H 0.90388 0.51058 0.0479 0.0
H847 H 0.98895 0.55493 0.06216 0.0
O848 O 0.80661 0.51626 0.09191 0.0
C849 C 0.91326 0.55942 0.08597 0.0
Co850 Co 0.39825 0.72021 0.08362 0.0
Co851 Co 0.34724 0.70253 0.06674 0.0
C852 C 0.43871 0.69164 0.0696 0.0
O853 O 0.43992 0.70301 0.07682 0.0
O854 O 0.4045 0.68971 0.06491 0.0
C855 C 0.46465 0.74473 0.09047 0.0
O856 O 0.47284 0.74642 0.08152 0.0
C857 C 0.32786 0.69929 0.04702 0.0
C858 C 0.25774 0.69612 0.04697 0.0
C859 C 0.29251 0.69947 0.04117 0.0
N860 N 0.31437 0.69692 0.05584 0.0
N861 N 0.27254 0.69438 0.05575 0.0
C862 C 0.37391 0.70155 0.04438 0.0
H863 H 0.39234 0.68856 0.04742 0.0
H864 H 0.38687 0.71611 0.04734 0.0
H865 H 0.37853 0.70125 0.03672 0.0
C866 C 0.36776 0.7601 0.07603 0.0
N867 N 0.37075 0.73931 0.07576 0.0
N868 N 0.35069 0.73225 0.06835 0.0
C869 C 0.33558 0.74868 0.0635 0.0
C870 C 0.34612 0.76674 0.06818 0.0
C871 C 0.386 0.77347 0.08358 0.0
H872 H 0.38597 0.76511 0.09031 0.0
H873 H 0.41907 0.77794 0.08171 0.0
H874 H 0.36749 0.7879 0.08449 0.0
O875 O 0.3553 0.70281 0.0897 0.0
O876 O 0.3193 0.68902 0.07783 0.0
H877 H 0.28423 0.73602 0.05549 0.0
H878 H 0.29612 0.76266 0.05286 0.0
C879 C 0.31026 0.74745 0.05469 0.0
H880 H 0.33148 0.74255 0.04895 0.0
H881 H 0.25381 0.69294 0.06173 0.0
O882 O 0.43264 0.73424 0.09314 0.0
C883 C 0.32599 0.69108 0.08657 0.0
Co884 Co 0.84567 0.72423 0.16217 0.0
Co885 Co 0.89733 0.70631 0.17888 0.0
C886 C 0.80587 0.69537 0.17619 0.0
O887 O 0.80435 0.70687 0.16901 0.0
O888 O 0.84028 0.69336 0.1808 0.0
C889 C 0.77886 0.7488 0.15541 0.0
O890 O 0.7707 0.75054 0.16436 0.0
C891 C 0.91843 0.70235 0.1985 0.0
C892 C 0.98865 0.69982 0.1982 0.0
C893 C 0.95433 0.70256 0.20419 0.0
N894 N 0.93117 0.70053 0.1896 0.0
N895 N 0.97308 0.69837 0.18948 0.0
C896 C 0.87256 0.70401 0.20137 0.0
H897 H 0.85863 0.71853 0.19858 0.0
H898 H 0.86872 0.70337 0.20905 0.0
H899 H 0.85443 0.69094 0.1983 0.0
C900 C 0.87601 0.76401 0.16987 0.0
N901 N 0.87332 0.7432 0.17004 0.0
N902 N 0.89339 0.73606 0.17744 0.0
C903 C 0.90807 0.75244 0.18239 0.0
C904 C 0.89737 0.77054 0.17776 0.0
C905 C 0.85797 0.77753 0.16236 0.0
H906 H 0.858 0.76929 0.15559 0.0
H907 H 0.82492 0.78203 0.16423 0.0
H908 H 0.87671 0.79195 0.16156 0.0
O909 O 0.88844 0.70706 0.1559 0.0
O910 O 0.92494 0.69315 0.16765 0.0
H911 H 0.95943 0.74007 0.19047 0.0
H912 H 0.94592 0.76644 0.1933 0.0
C913 C 0.93275 0.75114 0.19128 0.0
H914 H 0.91136 0.74571 0.19689 0.0
H915 H 0.99129 0.69739 0.1834 0.0
O916 O 0.81093 0.73835 0.15274 0.0
C917 C 0.91798 0.69535 0.15894 0.0
Co918 Co 0.41281 0.52899 0.16385 0.0
Co919 Co 0.35736 0.5465 0.18006 0.0
C920 C 0.44843 0.55915 0.17778 0.0
O921 O 0.45184 0.54731 0.17074 0.0
O922 O 0.41328 0.56074 0.18218 0.0
C923 C 0.48195 0.50527 0.15733 0.0
O924 O 0.49118 0.50437 0.16626 0.0
C925 C 0.33195 0.55099 0.19946 0.0
C926 C 0.26174 0.55241 0.19837 0.0
C927 C 0.29478 0.55054 0.20475 0.0
N928 N 0.32116 0.55214 0.19042 0.0
N929 N 0.27921 0.55364 0.18981 0.0
C930 C 0.37719 0.55028 0.20284 0.0
H931 H 0.39268 0.53579 0.20045 0.0
H932 H 0.37918 0.55157 0.21053 0.0
H933 H 0.39517 0.56335 0.19974 0.0
C934 C 0.38704 0.48901 0.17207 0.0
N935 N 0.38626 0.50983 0.17182 0.0
N936 N 0.36389 0.51684 0.17893 0.0
C937 C 0.35039 0.50038 0.184 0.0
C938 C 0.36522 0.48241 0.17986 0.0
C939 C 0.40665 0.47526 0.16485 0.0
H940 H 0.40508 0.48261 0.15789 0.0
H941 H 0.44033 0.47207 0.16672 0.0
H942 H 0.38976 0.46016 0.16457 0.0
O943 O 0.36988 0.54543 0.1572 0.0
O944 O 0.3302 0.55856 0.16859 0.0
H945 H 0.29707 0.51204 0.19169 0.0
H946 H 0.31243 0.48603 0.19478 0.0
C947 C 0.32451 0.50151 0.19272 0.0
H948 H 0.34474 0.50751 0.19843 0.0
H949 H 0.26238 0.55404 0.18354 0.0
O950 O 0.44888 0.51495 0.15466 0.0
C951 C 0.33886 0.55659 0.15994 0.0
Co952 Co 0.14742 0.46963 0.91216 0.0
Co953 Co 0.0969 0.45279 0.92925 0.0
C954 C 0.18814 0.44191 0.92662 0.0
O955 O 0.18858 0.45248 0.91915 0.0
O956 O 0.15446 0.44063 0.93154 0.0
C957 C 0.21413 0.49389 0.90514 0.0
O958 O 0.22231 0.49607 0.91407 0.0
C959 C 0.07412 0.45006 0.94887 0.0
C960 C 0.00397 0.44733 0.94826 0.0
C961 C 0.03762 0.45056 0.95437 0.0
N962 N 0.06234 0.44761 0.93994 0.0
N963 N 0.02046 0.44533 0.93964 0.0
C964 C 0.11967 0.45194 0.95194 0.0
H965 H 0.13817 0.43879 0.94908 0.0
H966 H 0.1338 0.46635 0.9491 0.0
H967 H 0.12272 0.45164 0.95964 0.0
C968 C 0.11702 0.50989 0.91938 0.0
N969 N 0.11974 0.4891 0.91981 0.0
N970 N 0.09992 0.48241 0.92732 0.0
C971 C 0.08533 0.49908 0.93209 0.0
C972 C 0.09593 0.51692 0.92724 0.0
C973 C 0.13526 0.52292 0.91172 0.0
H974 H 0.13543 0.51422 0.90507 0.0
H975 H 0.16823 0.52758 0.91358 0.0
H976 H 0.11653 0.53724 0.91067 0.0
O977 O 0.10495 0.45202 0.90613 0.0
O978 O 0.07042 0.43827 0.9182 0.0
H979 H 0.0344 0.48706 0.9404 0.0
H980 H 0.04738 0.51367 0.94283 0.0
C981 C 0.06087 0.4983 0.94102 0.0
H982 H 0.08248 0.49341 0.94669 0.0
H983 H 0.00291 0.4439 0.93349 0.0
O984 O 0.18218 0.48322 0.90257 0.0
C985 C 0.07656 0.44001 0.90943 0.0
Co986 Co 0.59068 0.28178 0.91295 0.0
Co987 Co 0.6434 0.29845 0.92979 0.0
C988 C 0.55308 0.31203 0.92651 0.0
O989 O 0.55096 0.30081 0.91924 0.0
O990 O 0.58693 0.31261 0.93144 0.0
C991 C 0.51991 0.26248 0.90431 0.0
O992 O 0.50087 0.26723 0.91218 0.0
C993 C 0.66466 0.30184 0.94948 0.0
C994 C 0.73501 0.30338 0.94911 0.0
C995 C 0.70069 0.30109 0.95513 0.0
N996 N 0.67731 0.30355 0.94057 0.0
N997 N 0.71934 0.3051 0.94041 0.0
C998 C 0.61877 0.30088 0.95239 0.0
H999 H 0.60112 0.3138 0.94909 0.0
H1000 H 0.60421 0.28626 0.94988 0.0
H1001 H 0.61512 0.30221 0.96006 0.0
C1002 C 0.60958 0.2417 0.92168 0.0
N1003 N 0.61329 0.26242 0.92133 0.0
N1004 N 0.63627 0.26891 0.92844 0.0
C1005 C 0.64822 0.25217 0.93351 0.0
C1006 C 0.63095 0.23455 0.92945 0.0
C1007 C 0.58695 0.22879 0.91456 0.0
H1008 H 0.59529 0.23417 0.90746 0.0
H1009 H 0.55201 0.23032 0.91557 0.0
H1010 H 0.59566 0.2122 0.91517 0.0
O1011 O 0.63619 0.29765 0.90692 0.0
O1012 O 0.67313 0.31092 0.9187 0.0
H1013 H 0.70192 0.26337 0.94123 0.0
H1014 H 0.68638 0.23727 0.94414 0.0
C1015 C 0.67443 0.25284 0.9422 0.0
H1016 H 0.65444 0.2586 0.94799 0.0
H1017 H 0.73746 0.30589 0.93432 0.0
O1018 O 0.55872 0.26745 0.90311 0.0
C1019 C 0.66652 0.30884 0.90997 0.0
Co1020 Co 0.16367 0.27832 0.82906 0.0
Co1021 Co 0.10259 0.29767 0.81433 0.0
C1022 C 0.1948 0.30963 0.81519 0.0
O1023 O 0.20025 0.29721 0.82194 0.0
O1024 O 0.15828 0.31182 0.81141 0.0
C1025 C 0.23715 0.2559 0.83381 0.0
O1026 O 0.2454 0.25889 0.82493 0.0
C1027 C 0.06952 0.30221 0.79558 0.0
C1028 C 0.00128 0.30874 0.79807 0.0
C1029 C 0.03051 0.30432 0.79107 0.0
N1030 N 0.06328 0.30482 0.80477 0.0
N1031 N 0.02269 0.30932 0.8062 0.0
C1032 C 0.11098 0.29498 0.79151 0.0
H1033 H 0.13207 0.28866 0.79703 0.0
H1034 H 0.10566 0.28301 0.7861 0.0
H1035 H 0.1273 0.30832 0.7882 0.0
C1036 C 0.13529 0.23945 0.82036 0.0
N1037 N 0.13433 0.2602 0.82109 0.0
N1038 N 0.10794 0.26783 0.81482 0.0
C1039 C 0.09089 0.2518 0.80997 0.0
C1040 C 0.1085 0.23351 0.81323 0.0
C1041 C 0.16027 0.22524 0.82653 0.0
H1042 H 0.15946 0.23086 0.83383 0.0
H1043 H 0.1938 0.22465 0.82409 0.0
H1044 H 0.1472 0.20927 0.82632 0.0
O1045 O 0.12348 0.29424 0.83683 0.0
O1046 O 0.08034 0.30873 0.82642 0.0
H1047 H 0.03484 0.26603 0.80423 0.0
H1048 H 0.03975 0.23874 0.80182 0.0
C1049 C 0.0576 0.25349 0.80254 0.0
H1050 H 0.07312 0.25675 0.79577 0.0
H1051 H 0.00907 0.31133 0.81277 0.0
O1052 O 0.2026 0.26288 0.83722 0.0
C1053 C 0.09195 0.30587 0.83485 0.0
Co1054 Co 0.5929 0.47177 0.83269 0.0
Co1055 Co 0.64705 0.45403 0.81632 0.0
C1056 C 0.55519 0.44296 0.81835 0.0
O1057 O 0.55287 0.45429 0.82557 0.0
O1058 O 0.59013 0.44111 0.8139 0.0
C1059 C 0.52458 0.49591 0.83921 0.0
O1060 O 0.51663 0.49753 0.83025 0.0
C1061 C 0.67246 0.45052 0.79688 0.0
C1062 C 0.74247 0.44767 0.79797 0.0
C1063 C 0.70971 0.45076 0.79161 0.0
N1064 N 0.68301 0.44837 0.8059 0.0
N1065 N 0.7248 0.44601 0.80649 0.0
C1066 C 0.62736 0.45243 0.79351 0.0
H1067 H 0.61334 0.46716 0.79603 0.0
H1068 H 0.6253 0.45154 0.7858 0.0
H1069 H 0.60807 0.43964 0.79647 0.0
C1070 C 0.62367 0.51168 0.82521 0.0
N1071 N 0.6213 0.49086 0.82501 0.0
N1072 N 0.64288 0.48378 0.8178 0.0
C1073 C 0.65851 0.5002 0.81303 0.0
C1074 C 0.64663 0.51827 0.81754 0.0
C1075 C 0.60366 0.52511 0.83251 0.0
H1076 H 0.60326 0.51703 0.83931 0.0
H1077 H 0.57059 0.52898 0.83039 0.0
H1078 H 0.62121 0.53985 0.83337 0.0
O1079 O 0.63504 0.45477 0.83924 0.0
O1080 O 0.67301 0.44082 0.82773 0.0
H1081 H 0.7116 0.48771 0.80553 0.0
H1082 H 0.69963 0.51425 0.80271 0.0
C1083 C 0.6855 0.49899 0.80446 0.0
H1084 H 0.6655 0.49391 0.79854 0.0
H1085 H 0.74151 0.44475 0.81276 0.0
O1086 O 0.55691 0.48573 0.84194 0.0
C1087 C 0.66498 0.44306 0.8364 0.0
H1088 H 0.41135 0.01567 0.03438 0.0
H1089 H 0.42582 0.99967 0.0194 0.0
H1090 H 0.52507 0.04439 0.01417 0.0
H1091 H 0.51025 0.06087 0.02926 0.0
H1092 H 0.42563 0.01622 0.00102 0.0
H1093 H 0.58514 0.98752 0.01204 0.0
H1094 H 0.54611 0.99708 0.02024 0.0
H1095 H 0.57678 0.01488 0.01334 0.0
C1096 C 0.43527 0.02264 0.02996 0.0
C1097 C 0.45889 0.03996 0.03292 0.0
C1098 C 0.44385 0.01326 0.02142 0.0
C1099 C 0.47667 0.02075 0.01573 0.0
C1100 C 0.49987 0.03826 0.01854 0.0
H1101 H 0.58153 0.98255 0.96331 0.0
H1102 H 0.5657 0.99818 0.97829 0.0
C1103 C 0.49122 0.04772 0.0271 0.0
C1104 C 0.48716 0.0097 0.00701 0.0
H1105 H 0.56502 0.98126 0.99641 0.0
C1106 C 0.45605 0.00854 -0.0 0.0
C1107 C 0.52676 0.99959 0.00577 0.0
C1108 C 0.56058 0.99961 0.01326 0.0
C1109 C 0.46387 0.99787 0.99165 0.0
C1110 C 0.50353 0.98781 0.9904 0.0
C1111 C 0.53457 0.98891 0.99743 0.0
C1112 C 0.51441 0.97707 0.98162 0.0
C1113 C 0.43009 0.99789 0.98415 0.0
C1114 C 0.49133 0.95968 0.97861 0.0
C1115 C 0.50073 0.95045 0.97003 0.0
C1116 C 0.53371 0.95829 0.96441 0.0
C1117 C 0.55709 0.97551 0.96757 0.0
C1118 C 0.54775 0.98468 0.97611 0.0
H1119 H 0.40543 0.00993 0.9854 0.0
H1120 H 0.44458 1.00056 0.97719 0.0
H1121 H 0.41399 0.9826 0.98402 0.0
H1122 H 0.46575 0.95344 0.98284 0.0
H1123 H 0.48187 0.93737 0.96771 0.0
H1124 H 0.65222 0.27129 0.9637 0.0
H1125 H 0.66485 0.25518 0.97873 0.0
H1126 H 0.77387 0.29475 0.98306 0.0
H1127 H 0.76027 0.3117 0.96807 0.0
H1128 H 0.73765 0.23371 0.98305 0.0
H1129 H 0.71253 0.29797 0.00814 0.0
H1130 H 0.69395 0.29908 0.99624 0.0
H1131 H 0.74913 0.30391 -0.00111 0.0
C1132 C 0.67771 0.27732 0.96798 0.0
C1133 C 0.70442 0.29332 0.9648 0.0
C1134 C 0.6853 0.2678 0.97654 0.0
C1135 C 0.71992 0.27393 0.98206 0.0
C1136 C 0.74636 0.2901 0.979 0.0
H1137 H 0.83506 0.22923 0.03257 0.0
H1138 H 0.81959 0.24524 0.01763 0.0
C1139 C 0.73867 0.29971 0.97043 0.0
C1140 C 0.73017 0.26226 0.99064 0.0
H1141 H 0.74383 0.26722 0.01412 0.0
C1142 C 0.73876 0.24099 0.98986 0.0
C1143 C 0.73161 0.27183 -0.00051 0.0
C1144 C 0.72095 0.29441 0.00079 0.0
C1145 C 0.74955 0.22909 0.99768 0.0
C1146 C 0.75131 0.2387 0.00651 0.0
C1147 C 0.74254 0.25994 0.00731 0.0
C1148 C 0.76278 0.22715 0.01504 0.0
C1149 C 0.75997 0.20647 0.99642 0.0
C1150 C 0.73623 0.2114 0.01848 0.0
C1151 C 0.74541 0.20191 0.02701 0.0
C1152 C 0.78135 0.20797 0.03219 0.0
C1153 C 0.80817 0.22351 0.02862 0.0
C1154 C 0.79902 0.23295 0.02012 0.0
H1155 H 0.76639 0.20257 0.98901 0.0
H1156 H 0.7882 0.20207 0.00066 0.0
H1157 H 0.73249 0.19702 -0.00119 0.0
H1158 H 0.70762 0.20699 0.01474 0.0
H1159 H 0.72374 0.19029 0.02969 0.0
H1160 H 0.51659 0.18946 0.21901 0.0
H1161 H 0.52826 0.20679 0.23403 0.0
H1162 H 0.417 0.24459 0.22932 0.0
H1163 H 0.40561 0.2278 0.2144 0.0
H1164 H 0.54175 0.2501 0.23559 0.0
H1165 H 0.4016 0.22498 0.25641 0.0
H1166 H 0.41932 0.21127 0.24615 0.0
H1167 H 0.389 0.23473 0.24502 0.0
C1168 C 0.49403 0.20109 0.22131 0.0
C1169 C 0.45944 0.20675 0.21563 0.0
C1170 C 0.50079 0.211 0.22985 0.0
C1171 C 0.47304 0.22671 0.23284 0.0
C1172 C 0.43805 0.2321 0.22727 0.0
H1173 H 0.47136 0.31122 0.28026 0.0
H1174 H 0.45701 0.29487 0.26512 0.0
C1175 C 0.43137 0.22228 0.21874 0.0
C1176 C 0.48267 0.23881 0.24133 0.0
H1177 H 0.44304 0.2525 0.2626 0.0
C1178 C 0.52034 0.25054 0.24152 0.0
C1179 C 0.45431 0.23956 0.24898 0.0
C1180 C 0.41394 0.22684 0.2492 0.0
C1181 C 0.53033 0.26315 0.24918 0.0
C1182 C 0.50222 0.26372 0.25688 0.0
C1183 C 0.46436 0.25212 0.25665 0.0
C1184 C 0.51281 0.27516 0.26551 0.0
C1185 C 0.57058 0.27596 0.24889 0.0
C1186 C 0.54888 0.26952 0.27068 0.0
C1187 C 0.55711 0.27881 0.27926 0.0
C1188 C 0.52952 0.29403 0.28284 0.0
C1189 C 0.49361 0.29984 0.27759 0.0
C1190 C 0.48532 0.29049 0.26898 0.0
H1191 H 0.58153 0.27859 0.24162 0.0
H1192 H 0.5658 0.29119 0.25232 0.0
H1193 H 0.59632 0.26763 0.25265 0.0
H1194 H 0.56974 0.25727 0.26827 0.0
H1195 H 0.58388 0.27316 0.28326 0.0
H1196 H 0.77634 0.94066 0.27981 0.0
H1197 H 0.79361 0.95813 0.26507 0.0
H1198 H 0.68422 0.99785 0.2685 0.0
H1199 H 0.66769 0.98118 0.28319 0.0
H1200 H 0.74265 0.96451 0.24848 0.0
H1201 H 0.78574 0.03815 0.26605 0.0
H1202 H 0.78098 0.01394 0.27225 0.0
H1203 H 0.73401 0.02833 0.26913 0.0
C1204 C 0.75566 0.95291 0.27732 0.0
C1205 C 0.72009 0.95915 0.28259 0.0
C1206 C 0.7656 0.96288 0.26894 0.0
C1207 C 0.74045 0.97943 0.26579 0.0
C1208 C 0.70426 0.98525 0.27088 0.0
H1209 H 0.73587 0.06263 0.21863 0.0
H1210 H 0.72436 0.04508 0.2336 0.0
C1211 C 0.69438 0.97535 0.27922 0.0
C1212 C 0.75223 0.99103 0.2573 0.0
H1213 H 0.77918 0.03924 0.24954 0.0
C1214 C 0.75101 0.9808 0.2487 0.0
C1215 C 0.76299 0.01229 0.25765 0.0
C1216 C 0.76643 0.02382 0.26677 0.0
C1217 C 0.75914 0.99143 0.24036 0.0
C1218 C 0.76948 0.01274 0.2407 0.0
C1219 C 0.77111 0.02292 0.24932 0.0
C1220 C 0.77868 0.02467 0.23215 0.0
C1221 C 0.75546 0.97991 0.23124 0.0
C1222 C 0.81372 0.01942 0.22658 0.0
C1223 C 0.8203 0.02935 0.21808 0.0
C1224 C 0.79237 0.04503 0.21506 0.0
C1225 C 0.75819 0.05081 0.22084 0.0
C1226 C 0.75155 0.04079 0.22936 0.0
H1227 H 0.73732 0.96524 0.23202 0.0
H1228 H 0.73951 0.98959 0.22588 0.0
H1229 H 0.78789 0.97602 0.22868 0.0
H1230 H 0.83525 0.00715 0.22867 0.0
H1231 H 0.84604 0.02389 0.21372 0.0
H1232 H 0.268 0.81073 0.96646 0.0
H1233 H 0.28595 0.79379 0.9813 0.0
H1234 H 0.1859 0.74913 0.97673 0.0
H1235 H 0.1688 0.76534 0.96195 0.0
H1236 H 0.23239 0.78534 0.99723 0.0
H1237 H 0.29368 0.71363 0.98066 0.0
H1238 H 0.28594 0.73741 0.97427 0.0
H1239 H 0.24119 0.721 0.97689 0.0
C1240 C 0.24958 0.79744 0.9687 0.0
C1241 C 0.2163 0.78973 0.96313 0.0
C1242 C 0.25989 0.78779 0.97714 0.0
C1243 C 0.23752 0.77009 0.98002 0.0
C1244 C 0.20382 0.76264 0.97457 0.0
H1245 H 0.23722 0.68756 0.02754 0.0
H1246 H 0.22515 0.70453 0.01244 0.0
C1247 C 0.19355 0.77223 0.96617 0.0
C1248 C 0.24924 0.7592 0.9887 0.0
H1249 H 0.28265 0.71248 0.99708 0.0
C1250 C 0.24376 0.76948 0.99722 0.0
C1251 C 0.26387 0.73849 0.98861 0.0
C1252 C 0.27192 0.72701 0.97962 0.0
C1253 C 0.25144 0.75938 0.0057 0.0
C1254 C 0.26568 0.73859 0.00562 0.0
C1255 C 0.27155 0.72838 0.9971 0.0
C1256 C 0.275 0.72731 0.01434 0.0
C1257 C 0.24323 0.77084 0.01469 0.0
C1258 C 0.30767 0.7342 0.02022 0.0
C1259 C 0.31453 0.72461 0.02879 0.0
C1260 C 0.28937 0.70767 0.03157 0.0
C1261 C 0.25744 0.7004 0.02552 0.0
C1262 C 0.2505 0.71007 0.01693 0.0
H1263 H 0.22261 0.78462 0.0136 0.0
H1264 H 0.22783 0.76059 0.01991 0.0
H1265 H 0.27406 0.77623 0.01762 0.0
H1266 H 0.32715 0.74737 0.0183 0.0
H1267 H 0.33834 0.73119 0.03336 0.0
H1268 H 0.57943 0.76719 0.78478 0.0
H1269 H 0.56414 0.75159 0.76978 0.0
H1270 H 0.462 0.79519 0.7654 0.0
H1271 H 0.47769 0.81133 0.78054 0.0
H1272 H 0.43947 0.75308 0.76267 0.0
H1273 H 0.58713 0.77304 0.74333 0.0
H1274 H 0.59676 0.7616 0.75453 0.0
H1275 H 0.571 0.78641 0.75381 0.0
C1276 C 0.55482 0.77411 0.78053 0.0
C1277 C 0.53079 0.79107 0.78373 0.0
C1278 C 0.54588 0.76499 0.77195 0.0
C1279 C 0.51255 0.7725 0.7664 0.0
C1280 C 0.48824 0.78935 0.76955 0.0
H1281 H 0.40709 0.73058 0.71414 0.0
H1282 H 0.41868 0.74663 0.72922 0.0
C1283 C 0.49729 0.79857 0.77816 0.0
C1284 C 0.50168 0.76173 0.75762 0.0
H1285 H 0.54316 0.74684 0.73668 0.0
C1286 C 0.46191 0.75186 0.75694 0.0
C1287 C 0.53124 0.76005 0.75022 0.0
C1288 C 0.57378 0.77099 0.75044 0.0
C1289 C 0.45127 0.73992 0.7491 0.0
C1290 C 0.48101 0.73809 0.74174 0.0
C1291 C 0.52063 0.74811 0.7424 0.0
C1292 C 0.47108 0.72663 0.73308 0.0
C1293 C 0.40874 0.72899 0.74886 0.0
C1294 C 0.49681 0.71002 0.73022 0.0
C1295 C 0.48995 0.70058 0.72157 0.0
C1296 C 0.45726 0.70759 0.71566 0.0
C1297 C 0.43126 0.72407 0.71864 0.0
C1298 C 0.43805 0.73344 0.72727 0.0
H1299 H 0.39483 0.72735 0.75594 0.0
H1300 H 0.3861 0.73812 0.74456 0.0
H1301 H 0.41178 0.71338 0.74569 0.0
H1302 H 0.52279 0.70469 0.73458 0.0
H1303 H 0.51095 0.68817 0.71939 0.0
H1304 H 0.26053 0.94025 0.77761 0.0
H1305 H 0.27351 0.95746 0.76262 0.0
H1306 H 0.16038 0.9944 0.76652 0.0
H1307 H 0.14798 0.97794 0.78149 0.0
H1308 H 0.21969 0.9626 0.74621 0.0
H1309 H 0.25863 0.03688 0.76384 0.0
H1310 H 0.2566 0.01252 0.76999 0.0
H1311 H 0.20809 0.02572 0.76696 0.0
C1312 C 0.23801 0.95175 0.77517 0.0
C1313 C 0.20275 0.95736 0.78066 0.0
C1314 C 0.2455 0.96157 0.76664 0.0
C1315 C 0.21812 0.97733 0.76356 0.0
C1316 C 0.18203 0.98239 0.76884 0.0
H1317 H 0.22535 0.06117 0.71595 0.0
H1318 H 0.20687 0.04376 0.73063 0.0
C1319 C 0.17457 0.97263 0.77734 0.0
C1320 C 0.22825 0.98918 0.75505 0.0
H1321 H 0.25579 0.03737 0.74736 0.0
C1322 C 0.22766 0.97893 0.74644 0.0
C1323 C 0.23845 0.0105 0.75542 0.0
C1324 C 0.24088 0.02208 0.76455 0.0
C1325 C 0.23668 0.98952 0.73815 0.0
C1326 C 0.24734 0.01078 0.73853 0.0
C1327 C 0.24753 0.02108 0.74712 0.0
C1328 C 0.2599 0.02236 0.73009 0.0
C1329 C 0.23423 0.97792 0.72903 0.0
C1330 C 0.29642 0.01646 0.72514 0.0
C1331 C 0.30697 0.02631 0.71682 0.0
C1332 C 0.28162 0.04255 0.71337 0.0
C1333 C 0.24575 0.04889 0.71851 0.0
C1334 C 0.23513 0.03895 0.72686 0.0
H1335 H 0.21474 0.96362 0.72966 0.0
H1336 H 0.22039 0.98777 0.72345 0.0
H1337 H 0.26688 0.97334 0.72686 0.0
H1338 H 0.3162 0.00383 0.72759 0.0
H1339 H 0.33386 0.02042 0.71294 0.0
H1340 H 0.46633 0.47132 0.46113 0.0
H1341 H 0.45634 0.48915 0.47599 0.0
H1342 H 0.56844 0.45911 0.48698 0.0
H1343 H 0.57846 0.441 0.47211 0.0
H1344 H 0.44755 0.47485 0.49453 0.0
H1345 H 0.59471 0.5216 0.48951 0.0
H1346 H 0.57046 0.50695 0.48019 0.0
H1347 H 0.602 0.49406 0.48889 0.0
C1348 C 0.48844 0.46819 0.46677 0.0
C1349 C 0.52371 0.4551 0.46541 0.0
C1350 C 0.48279 0.47848 0.47523 0.0
C1351 C 0.51225 0.47582 0.48248 0.0
C1352 C 0.546 0.46175 0.48136 0.0
H1353 H 0.53862 0.52891 0.53727 0.0
H1354 H 0.54885 0.51132 0.52237 0.0
C1355 C 0.55166 0.45143 0.47289 0.0
C1356 C 0.50827 0.48835 0.49106 0.0
H1357 H 0.55795 0.52596 0.50378 0.0
C1358 C 0.47159 0.48605 0.49656 0.0
C1359 C 0.53966 0.50303 0.49362 0.0
C1360 C 0.5788 0.50676 0.48772 0.0
C1361 C 0.46582 0.49779 0.50469 0.0
C1362 C 0.49723 0.51246 0.50725 0.0
C1363 C 0.5339 0.51476 0.50175 0.0
C1364 C 0.49328 0.52492 0.51585 0.0
C1365 C 0.42665 0.49409 0.51058 0.0
C1366 C 0.45969 0.53908 0.51696 0.0
C1367 C 0.4539 0.54927 0.52547 0.0
C1368 C 0.48155 0.54536 0.53297 0.0
C1369 C 0.51673 0.5322 0.53162 0.0
C1370 C 0.52252 0.52206 0.52313 0.0
H1371 H 0.41056 0.47931 0.50876 0.0
H1372 H 0.43502 0.49379 0.5181 0.0
H1373 H 0.40359 0.50687 0.50945 0.0
H1374 H 0.43742 0.54187 0.51133 0.0
H1375 H 0.42721 0.55976 0.52625 0.0
H1376 H 0.65877 0.77362 0.46419 0.0
H1377 H 0.66996 0.75805 0.4794 0.0
H1378 H 0.78658 0.79275 0.4826 0.0
H1379 H 0.77471 0.80912 0.4674 0.0
H1380 H 0.73996 0.73374 0.48357 0.0
H1381 H 0.72798 0.80023 0.50796 0.0
H1382 H 0.70794 0.80126 0.49617 0.0
H1383 H 0.76407 0.80413 0.49839 0.0
C1384 C 0.68581 0.77874 0.46826 0.0
C1385 C 0.71517 0.79318 0.4647 0.0
C1386 C 0.69249 0.76953 0.47692 0.0
C1387 C 0.72877 0.77443 0.48217 0.0
C1388 C 0.75786 0.78909 0.47874 0.0
H1389 H 0.84112 0.72885 0.53273 0.0
H1390 H 0.82626 0.74462 0.51772 0.0
C1391 C 0.75112 0.79838 0.47006 0.0
C1392 C 0.73778 0.76289 0.49085 0.0
H1393 H 0.7542 0.76866 0.5142 0.0
C1394 C 0.74283 0.74133 0.49029 0.0
C1395 C 0.74152 0.77288 0.49957 0.0
C1396 C 0.73474 0.79588 0.50062 0.0
C1397 C 0.75242 0.7295 0.49821 0.0
C1398 C 0.75647 0.73952 0.50692 0.0
C1399 C 0.75114 0.76106 0.50749 0.0
C1400 C 0.76713 0.72807 0.51553 0.0
C1401 C 0.7592 0.7065 0.49717 0.0
C1402 C 0.73903 0.71327 0.51922 0.0
C1403 C 0.74788 0.70386 0.52779 0.0
C1404 C 0.785 0.70907 0.53276 0.0
C1405 C 0.81324 0.72372 0.52894 0.0
C1406 C 0.80445 0.73305 0.52041 0.0
H1407 H 0.76457 0.70201 0.48979 0.0
H1408 H 0.7869 0.70129 0.50139 0.0
H1409 H 0.73046 0.69821 0.49971 0.0
H1410 H 0.70958 0.70954 0.51564 0.0
H1411 H 0.72513 0.69297 0.53066 0.0
H1412 H 0.845 0.52288 0.71372 0.0
H1413 H 0.83139 0.50633 0.72862 0.0
H1414 H 0.72387 0.54671 0.73315 0.0
H1415 H 0.73761 0.56367 0.71814 0.0
H1416 H 0.82442 0.52133 0.74716 0.0
H1417 H 0.67267 0.48786 0.7339 0.0
H1418 H 0.71189 0.49948 0.72632 0.0
H1419 H 0.67663 0.51553 0.73305 0.0
C1420 C 0.81945 0.52888 0.71799 0.0
C1421 C 0.7929 0.54496 0.71481 0.0
C1422 C 0.8114 0.51916 0.72648 0.0
C1423 C 0.77635 0.52512 0.73191 0.0
C1424 C 0.75076 0.54171 0.72898 0.0
H1425 H 0.66558 0.48188 0.78288 0.0
H1426 H 0.68222 0.49825 0.76811 0.0
C1427 C 0.75881 0.55147 0.72046 0.0
C1428 C 0.7655 0.51319 0.74038 0.0
H1429 H 0.68913 0.48182 0.74977 0.0
C1430 C 0.79492 0.51265 0.74774 0.0
C1431 C 0.72715 0.50173 0.74104 0.0
C1432 C 0.69537 0.50096 0.73314 0.0
C1433 C 0.78648 0.50133 0.75588 0.0
C1434 C 0.74796 0.49002 0.75657 0.0
C1435 C 0.7187 0.49046 0.74918 0.0
C1436 C 0.73633 0.4786 0.76512 0.0
C1437 C 0.81825 0.50201 0.76378 0.0
C1438 C 0.7606 0.46169 0.76822 0.0
C1439 C 0.7507 0.45198 0.77667 0.0
C1440 C 0.71609 0.45888 0.78207 0.0
C1441 C 0.69134 0.47551 0.77879 0.0
C1442 C 0.70116 0.48515 0.77037 0.0
H1443 H 0.84182 0.51471 0.7629 0.0
H1444 H 0.80172 0.50408 0.77057 0.0
H1445 H 0.83594 0.48715 0.76404 0.0
H1446 H 0.78761 0.45627 0.76419 0.0
H1447 H 0.77063 0.43938 0.77907 0.0
H1448 H 0.21669 0.21892 0.53544 0.0
H1449 H 0.206 0.23623 0.5205 0.0
H1450 H 0.32712 0.21293 0.51081 0.0
H1451 H 0.33743 0.19496 0.52569 0.0
H1452 H 0.26137 0.26692 0.51362 0.0
H1453 H 0.2458 0.20102 0.48895 0.0
H1454 H 0.23948 0.19804 0.50139 0.0
H1455 H 0.29188 0.20016 0.4964 0.0
C1456 C 0.24063 0.21707 0.53006 0.0
C1457 C 0.27822 0.20583 0.53177 0.0
C1458 C 0.23459 0.22709 0.52156 0.0
C1459 C 0.26576 0.22587 0.51457 0.0
C1460 C 0.30252 0.21393 0.5161 0.0
H1461 H 0.28834 0.28261 0.46008 0.0
H1462 H 0.30258 0.26533 0.47491 0.0
C1463 C 0.30858 0.20386 0.52462 0.0
C1464 C 0.26088 0.23824 0.50597 0.0
H1465 H 0.25044 0.23454 0.48237 0.0
C1466 C 0.25887 0.25987 0.50678 0.0
C1467 C 0.25786 0.22895 0.49708 0.0
C1468 C 0.2585 0.20576 0.49586 0.0
C1469 C 0.2542 0.27252 0.49891 0.0
C1470 C 0.2508 0.26323 0.49002 0.0
C1471 C 0.25314 0.2416 0.4892 0.0
C1472 C 0.2441 0.27556 0.48146 0.0
C1473 C 0.25364 0.2957 0.50014 0.0
C1474 C 0.20689 0.28739 0.48032 0.0
C1475 C 0.19883 0.29742 0.47187 0.0
C1476 C 0.22757 0.29552 0.46441 0.0
C1477 C 0.26563 0.28439 0.46572 0.0
C1478 C 0.27369 0.27439 0.47416 0.0
H1479 H 0.26791 0.30041 0.50691 0.0
H1480 H 0.27124 0.30352 0.49442 0.0
H1481 H 0.22011 0.30122 0.50001 0.0
H1482 H 0.18344 0.28831 0.48585 0.0
H1483 H 0.16967 0.30624 0.47111 0.0
H1484 H 0.15553 0.4825 0.28285 0.0
H1485 H 0.17045 0.49851 0.26793 0.0
H1486 H 0.27396 0.4557 0.26344 0.0
H1487 H 0.25789 0.43882 0.27833 0.0
H1488 H 0.24556 0.5178 0.26363 0.0
H1489 H 0.21233 0.45467 0.23838 0.0
H1490 H 0.19387 0.45392 0.2503 0.0
H1491 H 0.24835 0.44762 0.24759 0.0
C1492 C 0.18022 0.47577 0.27857 0.0
C1493 C 0.20461 0.45885 0.28168 0.0
C1494 C 0.18917 0.48523 0.27007 0.0
C1495 C 0.22291 0.47814 0.26452 0.0
C1496 C 0.24712 0.46112 0.26752 0.0
H1497 H 0.34074 0.52071 0.21388 0.0
H1498 H 0.32463 0.50492 0.22883 0.0
C1499 C 0.23802 0.45155 0.27603 0.0
C1500 C 0.23455 0.48961 0.25597 0.0
H1501 H 0.24667 0.48466 0.23245 0.0
C1502 C 0.2456 0.5106 0.2568 0.0
C1503 C 0.23458 0.48014 0.24709 0.0
C1504 C 0.22128 0.4579 0.24574 0.0
C1505 C 0.25736 0.52232 0.24898 0.0
C1506 C 0.25761 0.51282 0.24012 0.0
C1507 C 0.24651 0.49185 0.23928 0.0
C1508 C 0.26973 0.52422 0.2316 0.0
C1509 C 0.27027 0.54463 0.25028 0.0
C1510 C 0.24451 0.54057 0.22826 0.0
C1511 C 0.25406 0.54992 0.21972 0.0
C1512 C 0.28907 0.54312 0.21442 0.0
C1513 C 0.31463 0.52699 0.2179 0.0
C1514 C 0.3051 0.51768 0.22641 0.0
H1515 H 0.27742 0.54825 0.25769 0.0
H1516 H 0.29876 0.54836 0.24599 0.0
H1517 H 0.24376 0.5548 0.24798 0.0
H1518 H 0.21657 0.54557 0.23209 0.0
H1519 H 0.23334 0.56203 0.21712 0.0
H1520 H 0.0937 0.98308 0.46385 0.0
H1521 H 0.07802 0.99946 0.47865 0.0
H1522 H 0.97361 0.95708 0.483 0.0
H1523 H 0.99038 0.93984 0.46822 0.0
H1524 H 0.00227 0.019 0.48256 0.0
H1525 H 0.03409 0.95662 0.50827 0.0
H1526 H 0.05346 0.95558 0.49642 0.0
H1527 H 0.99875 0.94941 0.49896 0.0
C1528 C 0.06863 0.97652 0.46808 0.0
C1529 C 0.04416 0.95963 0.46496 0.0
C1530 C 0.05926 0.9862 0.47651 0.0
C1531 C 0.02502 0.97935 0.48197 0.0
C1532 C 0.00079 0.96233 0.47898 0.0
H1533 H 0.90906 0.02384 0.53257 0.0
H1534 H 0.92374 0.00757 0.51767 0.0
C1535 C 0.0103 0.95254 0.47053 0.0
C1536 C 0.01297 0.99108 0.49042 0.0
H1537 H 0.00063 0.98701 0.51397 0.0
C1538 C 0.00205 0.01205 0.48944 0.0
C1539 C 0.01268 0.98192 0.49936 0.0
C1540 C 0.02572 0.9597 0.50087 0.0
C1541 C 0.99032 0.02408 0.49716 0.0
C1542 C 0.99002 0.01491 0.50609 0.0
C1543 C 0.00084 0.99394 0.50708 0.0
C1544 C 0.97846 0.02671 0.51454 0.0
C1545 C 0.97761 0.04636 0.49569 0.0
C1546 C 0.00401 0.04316 0.51766 0.0
C1547 C 0.99526 0.05281 0.52617 0.0
C1548 C 0.96078 0.04618 0.53168 0.0
C1549 C 0.93479 0.02999 0.5284 0.0
C1550 C 0.94351 0.0204 0.51992 0.0
H1551 H 0.96994 0.04962 0.48827 0.0
H1552 H 0.94951 0.05041 0.50004 0.0
H1553 H 0.00445 0.05655 0.49778 0.0
H1554 H 0.03166 0.04799 0.51369 0.0
H1555 H 0.01628 0.06497 0.5286 0.0
H1556 H 0.0341 0.22372 0.70976 0.0
H1557 H 0.04423 0.24106 0.72473 0.0
H1558 H 0.93094 0.21146 0.7354 0.0
H1559 H 0.9214 0.19348 0.7205 0.0
H1560 H 0.98483 0.26861 0.73234 0.0
H1561 H 0.01797 0.20323 0.75641 0.0
H1562 H 0.02211 0.20078 0.74391 0.0
H1563 H 0.9707 0.20028 0.74945 0.0
C1564 C 0.0119 0.2205 0.71536 0.0
C1565 C 0.97659 0.20747 0.71393 0.0
C1566 C 0.01757 0.23054 0.72388 0.0
C1567 C 0.98834 0.22756 0.73115 0.0
C1568 C 0.95407 0.21384 0.72989 0.0
H1569 H 0.96204 0.28109 0.78615 0.0
H1570 H 0.9491 0.26408 0.77121 0.0
C1571 C 0.94841 0.20375 0.72136 0.0
C1572 C 0.99225 0.23989 0.73979 0.0
H1573 H 0.00674 0.23613 0.76329 0.0
C1574 C 0.98976 0.26154 0.73912 0.0
C1575 C 0.99849 0.23058 0.74859 0.0
C1576 C 0.00286 0.20745 0.74967 0.0
C1577 C 0.99294 0.27416 0.74704 0.0
C1578 C 0.99938 0.26485 0.75584 0.0
C1579 C 0.00166 0.2432 0.75652 0.0
C1580 C 0.00454 0.2772 0.76444 0.0
C1581 C 0.98867 0.29728 0.74596 0.0
C1582 C 0.03944 0.29062 0.7655 0.0
C1583 C 0.04673 0.3005 0.77403 0.0
C1584 C 0.01953 0.29688 0.78163 0.0
C1585 C 0.98349 0.28423 0.7804 0.0
C1586 C 0.97621 0.27438 0.7719 0.0
H1587 H 0.97288 0.30149 0.73929 0.0
H1588 H 0.9701 0.30404 0.75181 0.0
H1589 H 0.02091 0.30439 0.746 0.0
H1590 H 0.06192 0.29285 0.75986 0.0
H1591 H 0.07432 0.31046 0.77474 0.0
H1592 H 0.98481 0.81334 0.27877 0.0
H1593 H 0.96664 0.7965 0.26393 0.0
H1594 H 0.06673 0.75181 0.26836 0.0
H1595 H 0.08396 0.76786 0.28315 0.0
H1596 H 0.01861 0.78792 0.2479 0.0
H1597 H 0.95915 0.71623 0.26479 0.0
H1598 H 0.96754 0.74001 0.27113 0.0
H1599 H 0.012 0.72358 0.26831 0.0
C1600 C 0.00325 0.80008 0.2765 0.0
C1601 C 0.03647 0.79229 0.28207 0.0
C1602 C 0.9928 0.79048 0.26806 0.0
C1603 C 0.01503 0.77277 0.26515 0.0
C1604 C 0.04888 0.76532 0.27056 0.0
H1605 H 0.01143 0.69064 0.21745 0.0
H1606 H 0.02497 0.7074 0.23254 0.0
C1607 C 0.05925 0.77484 0.27896 0.0
C1608 C 0.00277 0.76179 0.25653 0.0
H1609 H 0.96861 0.71501 0.24833 0.0
C1610 C 0.00734 0.77205 0.24798 0.0
C1611 C 0.9882 0.74106 0.25669 0.0
C1612 C 0.98102 0.7296 0.26572 0.0
C1613 C 0.99873 0.76192 0.23954 0.0
C1614 C 0.98456 0.74113 0.23971 0.0
C1615 C 0.97966 0.73092 0.24826 0.0
C1616 C 0.97423 0.72986 0.23104 0.0
C1617 C 0.00581 0.77338 0.23051 0.0
C1618 C 0.94056 0.7366 0.2254 0.0
C1619 C 0.93282 0.72712 0.21685 0.0
C1620 C 0.95817 0.71044 0.21383 0.0
C1621 C 0.99107 0.70327 0.21965 0.0
C1622 C 0.99885 0.71283 0.22824 0.0
H1623 H 0.02626 0.78726 0.23149 0.0
H1624 H 0.02089 0.76315 0.22523 0.0
H1625 H 0.97458 0.77858 0.22772 0.0
H1626 H 0.92101 0.74962 0.2275 0.0
H1627 H 0.90824 0.73361 0.21245 0.0
H1628 H 0.90714 0.52292 0.03215 0.0
H1629 H 0.92168 0.50681 0.0172 0.0
H1630 H 0.02967 0.54724 0.01327 0.0
H1631 H 0.01501 0.56372 0.02835 0.0
H1632 H 0.92867 0.52242 -0.00102 0.0
H1633 H 0.08105 0.48872 0.01178 0.0
H1634 H 0.0421 0.5001 0.0195 0.0
H1635 H 0.07694 0.51637 0.01278 0.0
C1636 C 0.93305 0.529 0.02801 0.0
C1637 C 0.95935 0.54499 0.03136 0.0
C1638 C 0.94163 0.51954 0.01948 0.0
C1639 C 0.97699 0.52566 0.0142 0.0
C1640 C 0.00253 0.5421 0.01733 0.0
H1641 H 0.08281 0.48206 0.96254 0.0
H1642 H 0.06837 0.49891 0.97733 0.0
C1643 C 0.99396 0.5516 0.02589 0.0
C1644 C 0.98784 0.51412 0.00562 0.0
H1645 H 0.06351 0.4827 0.99598 0.0
C1646 C 0.95811 0.51372 -0.00169 0.0
C1647 C 0.02615 0.50267 0.00484 0.0
C1648 C 0.0583 0.50177 0.01266 0.0
C1649 C 0.966 0.50242 0.99015 0.0
C1650 C 0.00431 0.49099 0.98937 0.0
C1651 C 0.03408 0.49141 0.99666 0.0
C1652 C 0.01492 0.47927 0.98084 0.0
C1653 C 0.93376 0.50311 0.98234 0.0
C1654 C 0.99027 0.46223 0.97803 0.0
C1655 C 0.99894 0.45224 0.96959 0.0
C1656 C 0.03264 0.45901 0.96389 0.0
C1657 C 0.05778 0.4758 0.96687 0.0
C1658 C 0.04921 0.4857 0.9753 0.0
H1659 H 0.91038 0.51587 0.98327 0.0
H1660 H 0.9499 0.50509 0.97551 0.0
H1661 H 0.9159 0.48829 0.98215 0.0
H1662 H 0.96388 0.45694 0.98228 0.0
H1663 H 0.97873 0.43953 0.96741 0.0
H1664 H 0.25953 0.01568 0.10864 0.0
H1665 H 0.20846 0.00154 0.11966 0.0
H1666 H 0.16947 0.95594 0.09934 0.0
H1667 H 0.21905 0.97111 0.08803 0.0
H1668 H 0.10348 0.97098 0.106 0.0
H1669 H 0.20115 0.9544 0.13655 0.0
H1670 H 0.21391 0.98042 0.1334 0.0
H1671 H 0.22534 0.95954 0.12537 0.0
C1672 C 0.24056 0.00243 0.10658 0.0
C1673 C 0.24297 0.99452 0.0975 0.0
C1674 C 0.21174 0.99411 0.11293 0.0
C1675 C 0.18581 0.97722 0.11046 0.0
C1676 C 0.18933 0.96883 0.10145 0.0
H1677 H 0.01488 0.97415 0.15814 0.0
H1678 H 0.06168 0.95749 0.14669 0.0
C1679 C 0.21748 0.97753 0.09499 0.0
C1680 C 0.15126 0.97063 0.11686 0.0
H1681 H 0.12941 0.96998 0.14007 0.0
C1682 C 0.10929 0.97004 0.11344 0.0
C1683 C 0.15828 0.96828 0.12655 0.0
C1684 C 0.20227 0.96542 0.13062 0.0
C1685 C 0.07434 0.97008 0.11952 0.0
C1686 C 0.08171 0.97187 0.12922 0.0
C1687 C 0.12345 0.96949 0.13263 0.0
C1688 C 0.04836 0.97955 0.13569 0.0
C1689 C 0.03003 0.96908 0.11543 0.0
C1690 C 0.02499 0.99737 0.13333 0.0
C1691 C 0.99761 0.00652 0.13976 0.0
C1692 C 0.9943 0.99853 0.1488 0.0
C1693 C 0.01727 0.98066 0.1512 0.0
C1694 C 0.04381 0.97111 0.14466 0.0
H1695 H 0.0293 0.9582 0.10944 0.0
H1696 H 0.00601 0.96401 0.12065 0.0
H1697 H 0.02099 0.98456 0.11273 0.0
H1698 H 0.02922 0.00482 0.12664 0.0
H1699 H 0.98053 0.02043 0.13779 0.0
H1700 H 0.24042 0.27863 0.15676 0.0
H1701 H 0.19227 0.29288 0.14488 0.0
H1702 H 0.21873 0.24035 0.12716 0.0
H1703 H 0.26892 0.22709 0.13865 0.0
H1704 H 0.21141 0.27312 0.11702 0.0
H1705 H 0.07492 0.27205 0.14194 0.0
H1706 H 0.11787 0.28931 0.14472 0.0
H1707 H 0.12636 0.26176 0.14501 0.0
C1708 C 0.23606 0.27034 0.15026 0.0
C1709 C 0.25775 0.25169 0.1486 0.0
C1710 C 0.20846 0.2784 0.14352 0.0
C1711 C 0.20097 0.26743 0.13522 0.0
C1712 C 0.22394 0.24915 0.13349 0.0
H1713 H 0.99499 0.22884 0.10633 0.0
H1714 H 0.04803 0.24199 0.1172 0.0
C1715 C 0.25245 0.24149 0.14007 0.0
C1716 C 0.16739 0.27368 0.12852 0.0
H1717 H 0.05921 0.27625 0.12625 0.0
C1718 C 0.17808 0.2741 0.11902 0.0
C1719 C 0.124 0.27532 0.13119 0.0
C1720 C 0.10989 0.27447 0.14125 0.0
C1721 C 0.14656 0.2734 0.11209 0.0
C1722 C 0.10309 0.27354 0.11479 0.0
C1723 C 0.09258 0.27586 0.12425 0.0
C1724 C 0.06865 0.26724 0.10831 0.0
C1725 C 0.16032 0.27053 0.10209 0.0
C1726 C 0.06202 0.2772 0.09973 0.0
C1727 C 0.03258 0.26918 0.09335 0.0
C1728 C 0.0084 0.2516 0.09564 0.0
C1729 C 0.01331 0.24241 0.10441 0.0
C1730 C 0.04348 0.25001 0.11064 0.0
H1731 H 0.19491 0.267 0.10148 0.0
H1732 H 0.1422 0.25775 0.09875 0.0
H1733 H 0.15405 0.28496 0.09814 0.0
H1734 H 0.08005 0.29089 0.0979 0.0
H1735 H 0.02865 0.27671 0.08666 0.0
H1736 H 0.00573 0.98006 0.85686 0.0
H1737 H 0.95803 0.99491 0.86844 0.0
H1738 H 0.93112 0.04607 0.84998 0.0
H1739 H 0.97685 0.03026 0.83804 0.0
H1740 H 0.9549 0.02911 0.87797 0.0
H1741 H 0.81325 0.02698 0.85443 0.0
H1742 H 0.86342 0.01569 0.85107 0.0
H1743 H 0.85669 0.04334 0.85098 0.0
C1744 C 0.98963 0.99448 0.85528 0.0
C1745 C 0.99419 0.00387 0.84655 0.0
C1746 C 0.96258 0.00306 0.86192 0.0
C1747 C 0.94033 0.02147 0.86004 0.0
C1748 C 0.94684 0.03155 0.85148 0.0
H1749 H 0.77753 0.03127 0.91001 0.0
H1750 H 0.82556 0.0464 0.89832 0.0
C1751 C 0.97302 0.02258 0.8447 0.0
C1752 C 0.90847 0.02876 0.86692 0.0
H1753 H 0.80088 0.03126 0.87024 0.0
C1754 C 0.92118 0.02995 0.87629 0.0
C1755 C 0.86459 0.03032 0.86467 0.0
C1756 C 0.84845 0.02892 0.85477 0.0
C1757 C 0.89116 0.02961 0.88353 0.0
C1758 C 0.84719 0.02927 0.88127 0.0
C1759 C 0.83465 0.03117 0.87191 0.0
C1760 C 0.81459 0.02237 0.88806 0.0
C1761 C 0.907 0.02746 0.89343 0.0
C1762 C 0.79088 0.0045 0.886 0.0
C1763 C 0.7627 0.9963 0.8925 0.0
C1764 C 0.7583 0.00553 0.90128 0.0
C1765 C 0.78108 0.02371 0.90332 0.0
C1766 C 0.80857 0.03229 0.89667 0.0
H1767 H 0.942 0.0248 0.89376 0.0
H1768 H 0.89989 0.04185 0.89734 0.0
H1769 H 0.89082 0.01437 0.89699 0.0
H1770 H 0.79507 0.99648 0.87943 0.0
H1771 H 0.74548 0.98227 0.89077 0.0
H1772 H 0.96779 0.7206 0.90965 0.0
H1773 H 0.92162 0.70351 0.89818 0.0
H1774 H 0.9578 0.7492 0.87767 0.0
H1775 H 0.0055 0.7653 0.88885 0.0
H1776 H 0.85489 0.71588 0.89077 0.0
H1777 H 0.95977 0.70106 0.86124 0.0
H1778 H 0.9813 0.7073 0.87257 0.0
H1779 H 0.96916 0.7275 0.86425 0.0
C1780 C 0.96626 0.72669 0.90262 0.0
C1781 C 0.99007 0.74423 0.90009 0.0
C1782 C 0.94012 0.71688 0.89607 0.0
C1783 C 0.937 0.72467 0.88695 0.0
C1784 C 0.96099 0.74221 0.88449 0.0
H1785 H 0.73633 0.76447 0.8585 0.0
H1786 H 0.78352 0.74864 0.86985 0.0
C1787 C 0.98781 0.75166 0.89093 0.0
C1788 C 0.90461 0.71666 0.88034 0.0
H1789 H 0.88726 0.71531 0.85695 0.0
C1790 C 0.86218 0.715 0.88339 0.0
C1791 C 0.91367 0.71426 0.87073 0.0
C1792 C 0.95863 0.71236 0.86708 0.0
C1793 C 0.82846 0.71423 0.877 0.0
C1794 C 0.83748 0.71631 0.86738 0.0
C1795 C 0.87995 0.71467 0.86434 0.0
C1796 C 0.80504 0.724 0.8607 0.0
C1797 C 0.78353 0.7123 0.88067 0.0
C1798 C 0.80241 0.71605 0.85159 0.0
C1799 C 0.77662 0.72573 0.84494 0.0
C1800 C 0.75262 0.74329 0.84735 0.0
C1801 C 0.75421 0.75082 0.8565 0.0
C1802 C 0.78072 0.74152 0.86305 0.0
H1803 H 0.78256 0.70114 0.88656 0.0
H1804 H 0.77285 0.72748 0.88343 0.0
H1805 H 0.76089 0.70705 0.8752 0.0
H1806 H 0.82112 0.70269 0.84957 0.0
H1807 H 0.77557 0.71957 0.83793 0.0
H1808 H 0.94209 0.49616 0.63777 0.0
H1809 H 0.98431 0.4823 0.62487 0.0
H1810 H 0.09873 0.48873 0.64137 0.0
H1811 H 0.05673 0.50207 0.65433 0.0
H1812 H 0.0414 0.50573 0.61652 0.0
H1813 H 0.12306 0.43501 0.62835 0.0
H1814 H 0.07702 0.4454 0.63432 0.0
H1815 H 0.12973 0.45519 0.63678 0.0
C1816 C 0.97615 0.4942 0.63871 0.0
C1817 C 0.99627 0.50046 0.647 0.0
C1818 C 0.00013 0.48614 0.63136 0.0
C1819 C 0.04456 0.48421 0.6322 0.0
C1820 C 0.06436 0.4895 0.64065 0.0
H1821 H 0.2691 0.50555 0.60529 0.0
H1822 H 0.21075 0.49332 0.61509 0.0
C1823 C 0.04037 0.4974 0.64802 0.0
C1824 C 0.07107 0.48046 0.62386 0.0
H1825 H 0.16166 0.45585 0.61676 0.0
C1826 C 0.06689 0.49438 0.61641 0.0
C1827 C 0.10416 0.4656 0.62373 0.0
C1828 C 0.10842 0.44933 0.6312 0.0
C1829 C 0.09732 0.4952 0.60929 0.0
C1830 C 0.13242 0.48146 0.60958 0.0
C1831 C 0.13478 0.46642 0.61661 0.0
C1832 C 0.16987 0.48482 0.60355 0.0
C1833 C 0.09356 0.51192 0.60198 0.0
C1834 C 0.16662 0.48338 0.59383 0.0
C1835 C 0.19972 0.49064 0.5882 0.0
C1836 C 0.23658 0.49924 0.59223 0.0
C1837 C 0.24091 0.49923 0.60198 0.0
C1838 C 0.20775 0.4921 0.60759 0.0
H1839 H 0.06748 0.52304 0.60353 0.0
H1840 H 0.12395 0.52067 0.60139 0.0
H1841 H 0.08683 0.50473 0.59511 0.0
H1842 H 0.13777 0.47753 0.59061 0.0
H1843 H 0.19578 0.49015 0.5807 0.0
H1844 H 0.31428 0.75792 0.63849 0.0
H1845 H 0.27277 0.77245 0.62563 0.0
H1846 H 0.15753 0.76543 0.6418 0.0
H1847 H 0.1988 0.75149 0.65473 0.0
H1848 H 0.21668 0.74957 0.61691 0.0
H1849 H 0.13293 0.81928 0.62912 0.0
H1850 H 0.17872 0.80885 0.63516 0.0
H1851 H 0.12594 0.79889 0.63743 0.0
C1852 C 0.28019 0.75991 0.63937 0.0
C1853 C 0.25961 0.75331 0.64755 0.0
C1854 C 0.25661 0.76836 0.63205 0.0
C1855 C 0.21215 0.7703 0.6328 0.0
C1856 C 0.19193 0.76467 0.64115 0.0
H1857 H 0.98946 0.74636 0.60642 0.0
H1858 H 0.04772 0.75947 0.61602 0.0
C1859 C 0.2155 0.75641 0.6485 0.0
C1860 C 0.18599 0.7743 0.62442 0.0
H1861 H 0.09417 0.79812 0.61755 0.0
C1862 C 0.19074 0.76068 0.61688 0.0
C1863 C 0.15234 0.78886 0.62438 0.0
C1864 C 0.14754 0.80492 0.63193 0.0
C1865 C 0.1602 0.75972 0.60978 0.0
C1866 C 0.12438 0.77299 0.61021 0.0
C1867 C 0.12158 0.78788 0.6173 0.0
C1868 C 0.08666 0.7691 0.60434 0.0
C1869 C 0.16456 0.74327 0.60236 0.0
C1870 C 0.08884 0.77083 0.59461 0.0
C1871 C 0.0558 0.76309 0.58909 0.0
C1872 C 0.02009 0.75367 0.59325 0.0
C1873 C 0.01677 0.75331 0.60301 0.0
C1874 C 0.04986 0.76095 0.60851 0.0
H1875 H 0.19169 0.73262 0.60373 0.0
H1876 H 0.13485 0.73396 0.60188 0.0
H1877 H 0.16993 0.75073 0.5955 0.0
H1878 H 0.11687 0.77732 0.5913 0.0
H1879 H 0.05892 0.76387 0.58158 0.0
H1880 H 0.73004 0.49564 0.39251 0.0
H1881 H 0.78653 0.50847 0.38235 0.0
H1882 H 0.86228 0.52467 0.40638 0.0
H1883 H 0.80614 0.51143 0.41664 0.0
H1884 H 0.83341 0.54636 0.38043 0.0
H1885 H 0.93301 0.48029 0.39287 0.0
H1886 H 0.8768 0.48197 0.39543 0.0
H1887 H 0.91405 0.49829 0.40147 0.0
C1888 C 0.75845 0.50217 0.39565 0.0
C1889 C 0.7641 0.50212 0.40536 0.0
C1890 C 0.79055 0.50963 0.38984 0.0
C1891 C 0.82868 0.51723 0.39364 0.0
C1892 C 0.83324 0.51857 0.40334 0.0
H1893 H 0.05212 0.50907 0.35791 0.0
H1894 H 0.01098 0.52247 0.37107 0.0
C1895 C 0.80121 0.51097 0.40917 0.0
C1896 C 0.86507 0.5211 0.38737 0.0
H1897 H 0.95641 0.4981 0.37977 0.0
C1898 C 0.86089 0.53615 0.38038 0.0
C1899 C 0.90094 0.50782 0.38739 0.0
C1900 C 0.90663 0.49108 0.39464 0.0
C1901 C 0.89042 0.53741 0.37306 0.0
C1902 C 0.92432 0.52302 0.37268 0.0
C1903 C 0.93032 0.50911 0.38007 0.0
C1904 C 0.94985 0.51967 0.36416 0.0
C1905 C 0.88416 0.55365 0.36564 0.0
C1906 C 0.92916 0.51406 0.35585 0.0
C1907 C 0.95253 0.50642 0.34834 0.0
C1908 C 0.99691 0.50394 0.34906 0.0
C1909 C 0.01785 0.51058 0.3572 0.0
C1910 C 0.99447 0.51838 0.36469 0.0
H1911 H 0.86904 0.56775 0.36859 0.0
H1912 H 0.91487 0.55804 0.36232 0.0
H1913 H 0.86248 0.5475 0.36018 0.0
H1914 H 0.89468 0.51436 0.35537 0.0
H1915 H 0.93553 0.50145 0.34215 0.0
H1916 H 0.79873 0.23983 0.33438 0.0
H1917 H 0.85344 0.22627 0.34488 0.0
H1918 H 0.77334 0.24041 0.3685 0.0
H1919 H 0.71834 0.2536 0.35808 0.0
H1920 H 0.89102 0.25185 0.35699 0.0
H1921 H 0.82456 0.18592 0.37657 0.0
H1922 H 0.80173 0.19483 0.36571 0.0
H1923 H 0.78797 0.20723 0.37656 0.0
C1924 C 0.7924 0.23963 0.3418 0.0
C1925 C 0.75453 0.24806 0.34543 0.0
C1926 C 0.82356 0.23174 0.34777 0.0
C1927 C 0.81721 0.23207 0.35745 0.0
C1928 C 0.77847 0.23948 0.36104 0.0
H1929 H 0.93069 0.25716 0.40757 0.0
H1930 H 0.88745 0.24408 0.3947 0.0
C1931 C 0.74727 0.2473 0.35508 0.0
C1932 C 0.85337 0.22851 0.36385 0.0
H1933 H 0.87817 0.20665 0.38478 0.0
C1934 C 0.88896 0.2415 0.36293 0.0
C1935 C 0.85048 0.21499 0.37156 0.0
C1936 C 0.81426 0.19981 0.3726 0.0
C1937 C 0.91976 0.24281 0.36996 0.0
C1938 C 0.91521 0.23039 0.37802 0.0
C1939 C 0.8814 0.2162 0.3786 0.0
C1940 C 0.94142 0.23427 0.38638 0.0
C1941 C 0.95481 0.25874 0.36903 0.0
C1942 C 0.98596 0.23232 0.38609 0.0
C1943 C 0.01078 0.24014 0.39336 0.0
C1944 C 0.99128 0.24968 0.40107 0.0
C1945 C 0.94658 0.25005 0.40167 0.0
C1946 C 0.92184 0.24248 0.39435 0.0
H1947 H 0.94946 0.26937 0.36306 0.0
H1948 H 0.9574 0.26815 0.37548 0.0
H1949 H 0.98576 0.25078 0.36791 0.0
H1950 H 0.00154 0.22565 0.38006 0.0
H1951 H 0.04521 0.23928 0.39281 0.0
H1952 H 0.80534 0.99349 0.60684 0.0
H1953 H 0.76351 0.97767 0.61933 0.0
H1954 H 0.64808 0.98867 0.60368 0.0
H1955 H 0.68967 0.00391 0.5911 0.0
H1956 H 0.7094 0.99995 0.62885 0.0
H1957 H 0.62051 0.9335 0.61483 0.0
H1958 H 0.66671 0.94409 0.60899 0.0
H1959 H 0.6145 0.95512 0.60714 0.0
C1960 C 0.7711 0.99213 0.60599 0.0
C1961 C 0.75061 1.0002 0.59807 0.0
C1962 C 0.74734 0.98293 0.61309 0.0
C1963 C 0.70276 0.98171 0.61239 0.0
C1964 C 0.68254 0.98885 0.60427 0.0
H1965 H 0.48304 0.00612 0.6393 0.0
H1966 H 0.54009 0.9927 0.62946 0.0
C1967 C 0.7063 0.99786 0.59713 0.0
C1968 C 0.67672 0.97688 0.62069 0.0
H1969 H 0.5834 0.95369 0.62702 0.0
C1970 C 0.68268 0.98929 0.62861 0.0
C1971 C 0.64207 0.96288 0.62038 0.0
C1972 C 0.63594 0.94801 0.61239 0.0
C1973 C 0.65238 0.98978 0.63576 0.0
C1974 C 0.61556 0.97724 0.635 0.0
C1975 C 0.61157 0.96339 0.62752 0.0
C1976 C 0.57806 0.98116 0.64094 0.0
C1977 C 0.65811 0.00512 0.64361 0.0
C1978 C 0.57998 0.97843 0.65062 0.0
C1979 C 0.54767 0.98638 0.65629 0.0
C1980 C 0.51294 0.99696 0.65231 0.0
C1981 C 0.50964 0.99826 0.64257 0.0
C1982 C 0.54203 0.99044 0.63693 0.0
H1983 H 0.68608 0.01541 0.64252 0.0
H1984 H 0.62919 0.01491 0.64436 0.0
H1985 H 0.6629 0.99666 0.65026 0.0
H1986 H 0.60737 0.97105 0.65381 0.0
H1987 H 0.55068 0.98484 0.66378 0.0
H1988 H 0.69261 0.26033 0.66431 0.0
H1989 H 0.63664 0.2731 0.65389 0.0
H1990 H 0.71362 0.25684 0.63007 0.0
H1991 H 0.77 0.24447 0.64038 0.0
H1992 H 0.66657 0.29463 0.62798 0.0
H1993 H 0.56683 0.22851 0.64028 0.0
H1994 H 0.58528 0.24645 0.64895 0.0
H1995 H 0.62294 0.23033 0.64293 0.0
C1996 C 0.69784 0.25973 0.65685 0.0
C1997 C 0.73531 0.25103 0.65315 0.0
C1998 C 0.66589 0.26707 0.65093 0.0
C1999 C 0.67087 0.26559 0.64124 0.0
C2000 C 0.70928 0.25809 0.63754 0.0
H2001 H 0.55872 0.25144 0.58978 0.0
H2002 H 0.60184 0.26352 0.60282 0.0
C2003 C 0.74131 0.2509 0.64344 0.0
C2004 C 0.6347 0.2694 0.6349 0.0
H2005 H 0.54258 0.24694 0.62741 0.0
C2006 C 0.63894 0.28451 0.62794 0.0
C2007 C 0.59869 0.25621 0.63492 0.0
C2008 C 0.59302 0.23936 0.64212 0.0
C2009 C 0.60906 0.28607 0.62069 0.0
C2010 C 0.57473 0.2719 0.62036 0.0
C2011 C 0.56896 0.2578 0.62769 0.0
C2012 C 0.54806 0.26914 0.61196 0.0
C2013 C 0.61526 0.30242 0.61332 0.0
C2014 C 0.50347 0.26837 0.61275 0.0
C2015 C 0.47878 0.26106 0.60536 0.0
C2016 C 0.49837 0.2544 0.59707 0.0
C2017 C 0.54274 0.25643 0.59608 0.0
C2018 C 0.56742 0.26359 0.6035 0.0
H2019 H 0.63138 0.31628 0.61626 0.0
H2020 H 0.63598 0.29617 0.60772 0.0
H2021 H 0.5844 0.30723 0.6102 0.0
H2022 H 0.48797 0.27244 0.61925 0.0
H2023 H 0.44456 0.25989 0.60628 0.0
H2024 H 0.5209 0.99697 0.35664 0.0
H2025 H 0.464 0.01064 0.36647 0.0
H2026 H 0.39542 0.03088 0.34205 0.0
H2027 H 0.45196 0.01687 0.33211 0.0
H2028 H 0.42039 0.04988 0.3685 0.0
H2029 H 0.31777 0.98686 0.35409 0.0
H2030 H 0.37459 0.98736 0.35215 0.0
H2031 H 0.34051 0.00509 0.34604 0.0
C2032 C 0.49403 0.00457 0.35335 0.0
C2033 C 0.49038 0.00543 0.34361 0.0
C2034 C 0.46173 0.01252 0.35898 0.0
C2035 C 0.42541 0.0215 0.35495 0.0
C2036 C 0.42305 0.02375 0.34525 0.0
H2037 H 0.19888 0.01163 0.3895 0.0
H2038 H 0.24049 0.02647 0.37673 0.0
C2039 C 0.45529 0.01568 0.3396 0.0
C2040 C 0.38815 0.0257 0.36092 0.0
H2041 H 0.29457 0.00338 0.36753 0.0
C2042 C 0.39227 0.04011 0.36818 0.0
C2043 C 0.35141 0.01306 0.36041 0.0
C2044 C 0.34559 0.99713 0.3528 0.0
C2045 C 0.3619 0.04115 0.37535 0.0
C2046 C 0.32729 0.02712 0.37528 0.0
C2047 C 0.32125 0.01407 0.36758 0.0
C2048 C 0.30137 0.02296 0.38368 0.0
C2049 C 0.36814 0.05664 0.38308 0.0
C2050 C 0.32174 0.01646 0.39189 0.0
C2051 C 0.29811 0.00801 0.39918 0.0
C2052 C 0.25378 0.00559 0.39832 0.0
C2053 C 0.23313 0.01308 0.3903 0.0
C2054 C 0.25677 0.02171 0.38304 0.0
H2055 H 0.38353 0.07095 0.38041 0.0
H2056 H 0.33741 0.06083 0.38644 0.0
H2057 H 0.38965 0.04995 0.38844 0.0
H2058 H 0.3562 0.01667 0.39244 0.0
H2059 H 0.31489 0.0024 0.40528 0.0
H2060 H 0.31679 0.74924 0.33947 0.0
H2061 H 0.35997 0.73575 0.3522 0.0
H2062 H 0.24615 0.72477 0.3684 0.0
H2063 H 0.2027 0.73885 0.35575 0.0
H2064 H 0.29922 0.74929 0.37714 0.0
H2065 H 0.39184 0.68247 0.36462 0.0
H2066 H 0.39616 0.70333 0.35646 0.0
H2067 H 0.34481 0.69166 0.35862 0.0
C2068 C 0.30086 0.7435 0.34565 0.0
C2069 C 0.25651 0.74543 0.3467 0.0
C2070 C 0.32556 0.73551 0.35288 0.0
C2071 C 0.30624 0.72898 0.36121 0.0
C2072 C 0.26163 0.7296 0.36201 0.0
H2073 H 0.45418 0.73748 0.41304 0.0
H2074 H 0.39875 0.72335 0.40284 0.0
C2075 C 0.23693 0.7378 0.35481 0.0
C2076 C 0.33295 0.72562 0.36955 0.0
H2077 H 0.42708 0.7041 0.37649 0.0
C2078 C 0.32641 0.7389 0.37716 0.0
C2079 C 0.36833 0.71206 0.36955 0.0
C2080 C 0.37536 0.69644 0.3619 0.0
C2081 C 0.35648 0.74047 0.38432 0.0
C2082 C 0.39366 0.72812 0.38393 0.0
C2083 C 0.39858 0.71362 0.37672 0.0
C2084 C 0.43025 0.73248 0.39007 0.0
C2085 C 0.34992 0.75661 0.39181 0.0
C2086 C 0.46707 0.74134 0.38621 0.0
C2087 C 0.4988 0.74932 0.39199 0.0
C2088 C 0.49399 0.74863 0.40172 0.0
C2089 C 0.45833 0.73855 0.40556 0.0
C2090 C 0.42675 0.73041 0.39976 0.0
H2091 H 0.32231 0.76688 0.39031 0.0
H2092 H 0.34396 0.74883 0.39858 0.0
H2093 H 0.37888 0.76637 0.39257 0.0
H2094 H 0.47023 0.74307 0.37873 0.0
H2095 H 0.52613 0.75681 0.38883 0.0
H2096 H 0.73112 0.46906 0.08785 0.0
H2097 H 0.68452 0.45325 0.09963 0.0
H2098 H 0.7103 0.50437 0.11821 0.0
H2099 H 0.75875 0.51923 0.1068 0.0
H2100 H 0.70655 0.47011 0.12769 0.0
H2101 H 0.56635 0.47235 0.10375 0.0
H2102 H 0.61004 0.45597 0.10046 0.0
H2103 H 0.61673 0.48363 0.10053 0.0
C2104 C 0.72688 0.47673 0.09451 0.0
C2105 C 0.74794 0.49544 0.09643 0.0
C2106 C 0.70019 0.46776 0.1012 0.0
C2107 C 0.69312 0.47782 0.10974 0.0
C2108 C 0.71529 0.49622 0.1117 0.0
H2109 H 0.497 0.51809 0.13975 0.0
H2110 H 0.54664 0.50333 0.12854 0.0
C2111 C 0.74279 0.50481 0.10516 0.0
C2112 C 0.66078 0.47056 0.11652 0.0
H2113 H 0.55297 0.46855 0.11954 0.0
C2114 C 0.67291 0.46941 0.12593 0.0
C2115 C 0.61702 0.46914 0.11415 0.0
C2116 C 0.60152 0.47043 0.1042 0.0
C2117 C 0.64249 0.47002 0.13308 0.0
C2118 C 0.59866 0.47055 0.1307 0.0
C2119 C 0.58664 0.46853 0.12131 0.0
C2120 C 0.56579 0.47772 0.13738 0.0
C2121 C 0.65787 0.47227 0.14301 0.0
C2122 C 0.55946 0.46813 0.14606 0.0
C2123 C 0.53208 0.47707 0.15262 0.0
C2124 C 0.5096 0.49523 0.15044 0.0
C2125 C 0.51407 0.50409 0.14159 0.0
C2126 C 0.54226 0.49556 0.13517 0.0
H2127 H 0.69288 0.47484 0.14342 0.0
H2128 H 0.6417 0.48545 0.1465 0.0
H2129 H 0.65043 0.45794 0.14694 0.0
H2130 H 0.5762 0.45402 0.14782 0.0
H2131 H 0.52837 0.46979 0.15938 0.0
H2132 H 0.73101 0.78389 0.15717 0.0
H2133 H 0.67911 0.7975 0.14592 0.0
H2134 H 0.70856 0.74704 0.12724 0.0
H2135 H 0.76212 0.73441 0.13811 0.0
H2136 H 0.6954 0.78039 0.11767 0.0
H2137 H 0.56405 0.77308 0.14367 0.0
H2138 H 0.60526 0.79137 0.14639 0.0
H2139 H 0.61725 0.76414 0.14612 0.0
C2140 C 0.72654 0.77593 0.1506 0.0
C2141 C 0.75 0.758 0.14851 0.0
C2142 C 0.69679 0.78363 0.14421 0.0
C2143 C 0.68908 0.773 0.13584 0.0
C2144 C 0.71388 0.75555 0.13365 0.0
H2145 H 0.48343 0.7305 0.10769 0.0
H2146 H 0.53572 0.74441 0.11856 0.0
C2147 C 0.74437 0.74826 0.13988 0.0
C2148 C 0.65353 0.77867 0.12953 0.0
H2149 H 0.54489 0.77794 0.1282 0.0
C2150 C 0.6624 0.78015 0.11996 0.0
C2151 C 0.61054 0.77868 0.13258 0.0
C2152 C 0.59849 0.77661 0.14273 0.0
C2153 C 0.6298 0.77901 0.1133 0.0
C2154 C 0.5869 0.7776 0.11634 0.0
C2155 C 0.57785 0.77876 0.12591 0.0
C2156 C 0.55213 0.77094 0.11001 0.0
C2157 C 0.64213 0.77733 0.10314 0.0
C2158 C 0.54317 0.78141 0.10166 0.0
C2159 C 0.51428 0.77299 0.09528 0.0
C2160 C 0.49284 0.75447 0.09734 0.0
C2161 C 0.49966 0.74479 0.10595 0.0
C2162 C 0.5294 0.75282 0.11217 0.0
H2163 H 0.67694 0.77479 0.10221 0.0
H2164 H 0.62493 0.76437 0.09973 0.0
H2165 H 0.63363 0.7919 0.0995 0.0
H2166 H 0.55918 0.79577 0.09998 0.0
H2167 H 0.50879 0.78089 0.08873 0.0
H2168 H 0.23213 0.47902 0.88799 0.0
H2169 H 0.28365 0.49259 0.87686 0.0
H2170 H 0.30834 0.54454 0.89504 0.0
H2171 H 0.25866 0.53004 0.90655 0.0
H2172 H 0.29174 0.52592 0.867 0.0
H2173 H 0.42602 0.52354 0.89247 0.0
H2174 H 0.37427 0.51314 0.89522 0.0
H2175 H 0.38285 0.54068 0.89523 0.0
C2176 C 0.24848 0.49337 0.88959 0.0
C2177 C 0.24216 0.50334 0.89815 0.0
C2178 C 0.27777 0.50119 0.88322 0.0
C2179 C 0.30058 0.5194 0.88519 0.0
C2180 C 0.29222 0.53012 0.8935 0.0
H2181 H 0.4761 0.53077 0.83732 0.0
H2182 H 0.42469 0.54466 0.84861 0.0
C2183 C 0.26375 0.52191 0.90003 0.0
C2184 C 0.33478 0.52589 0.87868 0.0
H2185 H 0.44316 0.52846 0.87689 0.0
C2186 C 0.3249 0.52677 0.86914 0.0
C2187 C 0.37794 0.52735 0.88154 0.0
C2188 C 0.39113 0.52601 0.89165 0.0
C2189 C 0.357 0.52643 0.86235 0.0
C2190 C 0.40025 0.52642 0.86522 0.0
C2191 C 0.40996 0.52821 0.87474 0.0
C2192 C 0.43519 0.52045 0.8588 0.0
C2193 C 0.34407 0.52408 0.85226 0.0
C2194 C 0.46001 0.50302 0.86101 0.0
C2195 C 0.4902 0.49557 0.85475 0.0
C2196 C 0.49551 0.50512 0.84607 0.0
C2197 C 0.47188 0.52296 0.84393 0.0
C2198 C 0.44242 0.53082 0.85035 0.0
H2199 H 0.30951 0.52063 0.85147 0.0
H2200 H 0.35071 0.53871 0.84849 0.0
H2201 H 0.3624 0.51146 0.84887 0.0
H2202 H 0.45503 0.49469 0.86748 0.0
H2203 H 0.50808 0.48179 0.85656 0.0
H2204 H 0.31454 0.23978 0.82885 0.0
H2205 H 0.37012 0.22691 0.83932 0.0
H2206 H 0.28611 0.23588 0.86281 0.0
H2207 H 0.23037 0.2483 0.85243 0.0
H2208 H 0.40283 0.2525 0.85195 0.0
H2209 H 0.34511 0.18315 0.87034 0.0
H2210 H 0.3216 0.19199 0.85955 0.0
H2211 H 0.30507 0.20293 0.87053 0.0
C2212 C 0.30757 0.23851 0.83622 0.0
C2213 C 0.26836 0.24535 0.83985 0.0
C2214 C 0.33926 0.23103 0.84218 0.0
C2215 C 0.33207 0.23019 0.85182 0.0
C2216 C 0.29202 0.23586 0.85537 0.0
H2217 H 0.4339 0.25725 0.90282 0.0
H2218 H 0.39477 0.2435 0.88946 0.0
C2219 C 0.26034 0.24326 0.84943 0.0
C2220 C 0.36813 0.22747 0.85834 0.0
H2221 H 0.39335 0.20571 0.87927 0.0
C2222 C 0.40163 0.24181 0.85777 0.0
C2223 C 0.36642 0.21351 0.86591 0.0
C2224 C 0.33277 0.1969 0.86655 0.0
C2225 C 0.43105 0.24399 0.86504 0.0
C2226 C 0.42727 0.23112 0.87298 0.0
C2227 C 0.39592 0.21562 0.87319 0.0
C2228 C 0.45138 0.23568 0.88156 0.0
C2229 C 0.46358 0.26121 0.8645 0.0
C2230 C 0.49608 0.23514 0.88164 0.0
C2231 C 0.51851 0.24332 0.88919 0.0
C2232 C 0.49645 0.25185 0.89682 0.0
C2233 C 0.45171 0.25095 0.89701 0.0
C2234 C 0.42934 0.24298 0.88941 0.0
H2235 H 0.45766 0.27177 0.85853 0.0
H2236 H 0.46341 0.27051 0.87101 0.0
H2237 H 0.4959 0.25447 0.86364 0.0
H2238 H 0.51358 0.22922 0.8757 0.0
H2239 H 0.55306 0.24345 0.88895 0.0
H2240 H 0.9434 0.15498 0.05743 0.0
H2241 H 0.00397 0.13133 0.05514 0.0
H2242 H 0.08533 0.17293 0.07051 0.0
H2243 H 0.02533 0.19631 0.07296 0.0
H2244 H 0.09049 0.13545 0.04782 0.0
H2245 H 0.08625 0.11872 0.08574 0.0
H2246 H 0.04333 0.13184 0.0798 0.0
H2247 H 0.09075 0.14576 0.08305 0.0
C2248 C 0.97438 0.15922 0.06018 0.0
C2249 C 0.97939 0.17732 0.06552 0.0
C2250 C 0.00892 0.14572 0.05886 0.0
C2251 C 0.04887 0.15022 0.06282 0.0
C2252 C 0.05456 0.16899 0.06756 0.0
H2253 H 0.29768 0.09153 0.05878 0.0
H2254 H 0.23478 0.11322 0.05596 0.0
C2255 C 0.02018 0.18233 0.06895 0.0
C2256 C 0.08377 0.13472 0.06275 0.0
H2257 H 0.14608 0.10617 0.07739 0.0
C2258 C 0.10255 0.12889 0.05426 0.0
C2259 C 0.09897 0.12597 0.07115 0.0
C2260 C 0.07856 0.13071 0.08045 0.0
C2261 C 0.13703 0.11491 0.054 0.0
C2262 C 0.15334 0.10685 0.06245 0.0
C2263 C 0.1338 0.1124 0.0709 0.0
C2264 C 0.1905 0.09257 0.06288 0.0
C2265 C 0.15526 0.10872 0.04468 0.0
C2266 C 0.18666 0.07372 0.06767 0.0
C2267 C 0.22254 0.06157 0.06943 0.0
C2268 C 0.26316 0.06789 0.0664 0.0
C2269 C 0.26678 0.08621 0.06117 0.0
C2270 C 0.23077 0.09855 0.0595 0.0
H2271 H 0.13194 0.11126 0.03895 0.0
H2272 H 0.18383 0.11832 0.04319 0.0
H2273 H 0.16505 0.09221 0.04466 0.0
H2274 H 0.15597 0.06875 0.07033 0.0
H2275 H 0.21857 0.04745 0.07341 0.0
H2276 H 0.01602 0.06428 0.16701 0.0
H2277 H 0.07832 0.08542 0.17038 0.0
H2278 H 0.01614 0.10989 0.19483 0.0
H2279 H 0.95273 0.08898 0.19138 0.0
H2280 H 0.05159 0.14018 0.18447 0.0
H2281 H 0.17098 0.07847 0.18957 0.0
H2282 H 0.14356 0.07518 0.1787 0.0
H2283 H 0.11434 0.07333 0.18949 0.0
C2284 C 0.01552 0.07399 0.17317 0.0
C2285 C 0.97923 0.07486 0.17894 0.0
C2286 C 0.05147 0.08595 0.17513 0.0
C2287 C 0.05236 0.09892 0.18297 0.0
C2288 C 0.01633 0.09983 0.18879 0.0
H2289 H 0.29679 0.1637 0.19207 0.0
H2290 H 0.23298 0.14293 0.19535 0.0
C2291 C 0.98012 0.08786 0.18681 0.0
C2292 C 0.0899 0.1125 0.18461 0.0
H2293 H 0.19886 0.11204 0.18514 0.0
C2294 C 0.08375 0.13401 0.18479 0.0
C2295 C 0.13188 0.10452 0.18525 0.0
C2296 C 0.14055 0.08159 0.18585 0.0
C2297 C 0.11852 0.14773 0.18495 0.0
C2298 C 0.16057 0.13972 0.1847 0.0
C2299 C 0.16667 0.11822 0.18517 0.0
C2300 C 0.19832 0.15321 0.18315 0.0
C2301 C 0.10977 0.17067 0.18522 0.0
C2302 C 0.20023 0.16573 0.17517 0.0
C2303 C 0.23639 0.17762 0.17331 0.0
C2304 C 0.2719 0.1771 0.17931 0.0
C2305 C 0.27001 0.16454 0.18732 0.0
C2306 C 0.23357 0.15265 0.1892 0.0
H2307 H 0.07886 0.17401 0.18871 0.0
H2308 H 0.13548 0.17917 0.18893 0.0
H2309 H 0.10768 0.17665 0.17799 0.0
H2310 H 0.17404 0.16598 0.17025 0.0
H2311 H 0.23667 0.18698 0.16705 0.0
H2312 H 0.69742 0.90714 0.93985 0.0
H2313 H 0.75846 0.88415 0.9426 0.0
H2314 H 0.84112 0.92739 0.92852 0.0
H2315 H 0.7806 0.95014 0.92562 0.0
H2316 H 0.84366 0.88869 0.92098 0.0
H2317 H 0.86496 0.8845 0.95936 0.0
H2318 H 0.8115 0.87979 0.95533 0.0
H2319 H 0.83501 0.90489 0.95375 0.0
C2320 C 0.72879 0.91195 0.93754 0.0
C2321 C 0.73405 0.93035 0.93242 0.0
C2322 C 0.7637 0.89884 0.93915 0.0
C2323 C 0.80441 0.90408 0.93579 0.0
C2324 C 0.81002 0.92302 0.93117 0.0
H2325 H 0.0505 0.84198 0.93901 0.0
H2326 H 0.98935 0.86485 0.94191 0.0
C2327 C 0.77529 0.93599 0.92951 0.0
C2328 C 0.84006 0.88895 0.93597 0.0
H2329 H 0.90505 0.86058 0.95023 0.0
C2330 C 0.85712 0.88261 0.92739 0.0
C2331 C 0.85776 0.88112 0.94433 0.0
C2332 C 0.84171 0.88802 0.95373 0.0
C2333 C 0.89121 0.86864 0.9269 0.0
C2334 C 0.90824 0.86034 0.93524 0.0
C2335 C 0.89161 0.8668 0.94385 0.0
C2336 C 0.94356 0.84507 0.93498 0.0
C2337 C 0.90913 0.86314 0.91745 0.0
C2338 C 0.93768 0.82602 0.93048 0.0
C2339 C 0.97245 0.8131 0.92872 0.0
C2340 C 0.01378 0.81884 0.93155 0.0
C2341 C 0.0191 0.83717 0.93672 0.0
C2342 C 0.98421 0.85024 0.93839 0.0
H2343 H 0.89993 0.87464 0.91205 0.0
H2344 H 0.94449 0.86213 0.91767 0.0
H2345 H 0.89648 0.84785 0.91527 0.0
H2346 H 0.90643 0.82157 0.92795 0.0
H2347 H 0.96713 0.79893 0.92486 0.0
H2348 H 0.69705 0.83525 0.80497 0.0
H2349 H 0.75771 0.85743 0.80082 0.0
H2350 H 0.83195 0.83002 0.82292 0.0
H2351 H 0.77259 0.80759 0.82691 0.0
H2352 H 0.79437 0.88648 0.81111 0.0
H2353 H 0.9178 0.82902 0.80237 0.0
H2354 H 0.86212 0.82218 0.80333 0.0
H2355 H 0.89551 0.82322 0.81357 0.0
C2356 C 0.72658 0.83369 0.80883 0.0
C2357 C 0.72986 0.81958 0.81627 0.0
C2358 C 0.76121 0.8464 0.80646 0.0
C2359 C 0.79977 0.84514 0.81144 0.0
C2360 C 0.80314 0.83088 0.81877 0.0
H2361 H 0.97653 0.93529 0.82846 0.0
H2362 H 0.9155 0.91346 0.82492 0.0
C2363 C 0.76882 0.81816 0.82111 0.0
C2364 C 0.83531 0.85987 0.80966 0.0
H2365 H 0.94393 0.86225 0.80806 0.0
C2366 C 0.82698 0.88118 0.81024 0.0
C2367 C 0.87785 0.8531 0.80829 0.0
C2368 C 0.88872 0.83062 0.80675 0.0
C2369 C 0.86024 0.89574 0.8102 0.0
C2370 C 0.90307 0.88879 0.80984 0.0
C2371 C 0.9112 0.86762 0.80853 0.0
C2372 C 0.9397 0.90288 0.81162 0.0
C2373 C 0.84906 0.91842 0.81072 0.0
C2374 C 0.97452 0.9038 0.80545 0.0
C2375 C 0.01012 0.9161 0.80754 0.0
C2376 C 0.01157 0.92768 0.81585 0.0
C2377 C 0.97649 0.92677 0.82196 0.0
C2378 C 0.94123 0.9144 0.8199 0.0
H2379 H 0.81754 0.92148 0.80745 0.0
H2380 H 0.84689 0.92316 0.81814 0.0
H2381 H 0.87347 0.92815 0.80722 0.0
H2382 H 0.97427 0.89488 0.79906 0.0
H2383 H 0.03657 0.91638 0.80269 0.0
H2384 H 0.95965 0.66805 0.55223 0.0
H2385 H 0.02166 0.64678 0.54801 0.0
H2386 H 0.08319 0.66384 0.57379 0.0
H2387 H 0.02261 0.68541 0.57789 0.0
H2388 H 0.13846 0.66497 0.55944 0.0
H2389 H 0.04842 0.59073 0.55904 0.0
H2390 H 0.03011 0.61029 0.5511 0.0
H2391 H 0.02551 0.61437 0.56345 0.0
C2392 C 0.98647 0.66729 0.55697 0.0
C2393 C 0.98593 0.67836 0.56542 0.0
C2394 C 0.02182 0.65505 0.55457 0.0
C2395 C 0.05691 0.65347 0.56064 0.0
C2396 C 0.0566 0.66481 0.56898 0.0
H2397 H 0.23383 0.56414 0.57608 0.0
H2398 H 0.17397 0.58631 0.57222 0.0
C2399 C 0.0217 0.67711 0.57133 0.0
C2400 C 0.09385 0.63971 0.55863 0.0
H2401 H 0.12253 0.58883 0.5572 0.0
C2402 C 0.13503 0.64833 0.5588 0.0
C2403 C 0.08928 0.618 0.55783 0.0
C2404 C 0.04605 0.60769 0.55791 0.0
C2405 C 0.1717 0.63581 0.55878 0.0
C2406 C 0.1671 0.61405 0.5583 0.0
C2407 C 0.12598 0.60551 0.55754 0.0
C2408 C 0.20356 0.59982 0.56002 0.0
C2409 C 0.2148 0.64594 0.55991 0.0
C2410 C 0.24025 0.59973 0.55437 0.0
C2411 C 0.27522 0.5871 0.55664 0.0
C2412 C 0.2738 0.57421 0.56454 0.0
C2413 C 0.23636 0.5739 0.56996 0.0
C2414 C 0.20184 0.58654 0.56774 0.0
H2415 H 0.2121 0.66252 0.56187 0.0
H2416 H 0.23389 0.63787 0.56532 0.0
H2417 H 0.23249 0.645 0.55322 0.0
H2418 H 0.24201 0.60954 0.54827 0.0
H2419 H 0.30339 0.58757 0.55227 0.0
H2420 H 0.29681 0.66558 0.69141 0.0
H2421 H 0.2339 0.64397 0.69437 0.0
H2422 H 0.17584 0.66653 0.66908 0.0
H2423 H 0.23757 0.68843 0.6662 0.0
H2424 H 0.11892 0.66486 0.68338 0.0
H2425 H 0.20789 0.59064 0.68051 0.0
H2426 H 0.22678 0.6082 0.68929 0.0
H2427 H 0.23106 0.61511 0.6772 0.0
C2428 C 0.27054 0.66601 0.68651 0.0
C2429 C 0.27249 0.67865 0.67853 0.0
C2430 C 0.2347 0.65356 0.68818 0.0
C2431 C 0.20042 0.65337 0.68187 0.0
C2432 C 0.2019 0.66637 0.67405 0.0
H2433 H 0.01523 0.56565 0.66566 0.0
H2434 H 0.07673 0.58761 0.66867 0.0
C2435 C 0.23741 0.67886 0.6724 0.0
C2436 C 0.16318 0.6394 0.68313 0.0
H2437 H 0.13392 0.58849 0.68292 0.0
C2438 C 0.12216 0.64815 0.68339 0.0
C2439 C 0.16751 0.6176 0.68308 0.0
C2440 C 0.21059 0.60725 0.68243 0.0
C2441 C 0.08533 0.63574 0.68323 0.0
C2442 C 0.08965 0.61395 0.68302 0.0
C2443 C 0.13069 0.60519 0.68313 0.0
C2444 C 0.05241 0.60003 0.68163 0.0
C2445 C 0.04223 0.64612 0.68275 0.0
C2446 C 0.01832 0.59944 0.68799 0.0
C2447 C 0.98261 0.58694 0.68624 0.0
C2448 C 0.98061 0.57467 0.67815 0.0
C2449 C 0.01544 0.57492 0.67195 0.0
C2450 C 0.05082 0.58745 0.67368 0.0
H2451 H 0.04487 0.66283 0.68103 0.0
H2452 H 0.02164 0.63856 0.67745 0.0
H2453 H 0.0262 0.64476 0.68962 0.0
H2454 H 0.01922 0.6087 0.69428 0.0
H2455 H 0.95653 0.58702 0.69119 0.0
H2456 H 0.97881 0.31257 0.42096 0.0
H2457 H 0.91838 0.33426 0.42501 0.0
H2458 H 0.98478 0.35582 0.44949 0.0
H2459 H 0.04665 0.33441 0.4453 0.0
H2460 H 0.86581 0.33575 0.4398 0.0
H2461 H 0.9557 0.40973 0.43674 0.0
H2462 H 0.97782 0.38536 0.433 0.0
H2463 H 0.97556 0.39164 0.44519 0.0
C2464 C 0.9808 0.32184 0.42724 0.0
C2465 C 0.01795 0.32188 0.43275 0.0
C2466 C 0.94597 0.33422 0.42956 0.0
C2467 C 0.94712 0.34693 0.43748 0.0
C2468 C 0.98347 0.34649 0.44323 0.0
H2469 H 0.70285 0.41459 0.44608 0.0
H2470 H 0.7646 0.39282 0.45 0.0
C2471 C 0.01873 0.33416 0.44086 0.0
C2472 C 0.91051 0.36101 0.43933 0.0
H2473 H 0.88207 0.41203 0.43922 0.0
C2474 C 0.86934 0.35245 0.43981 0.0
C2475 C 0.91519 0.3828 0.43931 0.0
C2476 C 0.95834 0.39302 0.43847 0.0
C2477 C 0.83268 0.36499 0.43973 0.0
C2478 C 0.83734 0.38676 0.4394 0.0
C2479 C 0.87856 0.39534 0.43949 0.0
C2480 C 0.80054 0.40076 0.43761 0.0
C2481 C 0.78941 0.35475 0.43934 0.0
C2482 C 0.80072 0.41295 0.42953 0.0
C2483 C 0.76601 0.42553 0.42735 0.0
C2484 C 0.7299 0.42619 0.43318 0.0
C2485 C 0.72996 0.41429 0.4414 0.0
C2486 C 0.76514 0.40177 0.44362 0.0
H2487 H 0.79177 0.33791 0.43786 0.0
H2488 H 0.77319 0.35667 0.44616 0.0
H2489 H 0.76915 0.36201 0.4339 0.0
H2490 H 0.82756 0.41245 0.42477 0.0
H2491 H 0.76731 0.43447 0.42097 0.0
H2492 H 0.76267 0.31457 0.32926 0.0
H2493 H 0.82276 0.33716 0.32598 0.0
H2494 H 0.76015 0.35903 0.30109 0.0
H2495 H 0.69869 0.33671 0.30448 0.0
H2496 H 0.87761 0.33946 0.31152 0.0
H2497 H 0.78541 0.41271 0.31462 0.0
H2498 H 0.7636 0.38804 0.31804 0.0
H2499 H 0.76686 0.39485 0.30592 0.0
C2500 C 0.76145 0.32412 0.32306 0.0
C2501 C 0.7255 0.32393 0.31718 0.0
C2502 C 0.79605 0.33702 0.32118 0.0
C2503 C 0.79581 0.35003 0.31337 0.0
C2504 C 0.76067 0.34945 0.30728 0.0
H2505 H 0.03769 0.4183 0.30432 0.0
H2506 H 0.97548 0.39653 0.30093 0.0
C2507 C 0.72568 0.33658 0.30919 0.0
C2508 C 0.83221 0.36442 0.3119 0.0
H2509 H 0.85918 0.41563 0.31218 0.0
C2510 C 0.87362 0.35613 0.31154 0.0
C2511 C 0.8269 0.38617 0.31199 0.0
C2512 C 0.78339 0.39606 0.31274 0.0
C2513 C 0.90988 0.36891 0.31172 0.0
C2514 C 0.90459 0.39065 0.312 0.0
C2515 C 0.86316 0.39897 0.31192 0.0
C2516 C 0.94121 0.40491 0.31348 0.0
C2517 C 0.95341 0.35894 0.31217 0.0
C2518 C 0.94196 0.41746 0.32146 0.0
C2519 C 0.97704 0.43009 0.32334 0.0
C2520 C 0.01242 0.43043 0.3173 0.0
C2521 C 0.01117 0.41828 0.30916 0.0
C2522 C 0.97574 0.40573 0.30724 0.0
H2523 H 0.95146 0.3422 0.31388 0.0
H2524 H 0.96932 0.36046 0.30529 0.0
H2525 H 0.97374 0.36666 0.31747 0.0
H2526 H 0.91571 0.41714 0.32637 0.0
H2527 H 0.97669 0.43925 0.32966 0.0
H2528 H 0.45262 0.16623 0.55377 0.0
H2529 H 0.51513 0.14442 0.5506 0.0
H2530 H 0.57663 0.1682 0.57528 0.0
H2531 H 0.51545 0.19025 0.57834 0.0
H2532 H 0.63173 0.16568 0.56082 0.0
H2533 H 0.54254 0.09174 0.56472 0.0
H2534 H 0.52325 0.10894 0.55584 0.0
H2535 H 0.51973 0.11637 0.56788 0.0
C2536 C 0.47958 0.16687 0.55849 0.0
C2537 C 0.47877 0.17989 0.56635 0.0
C2538 C 0.51519 0.15431 0.55669 0.0
C2539 C 0.55033 0.15441 0.56279 0.0
C2540 C 0.54994 0.16781 0.57048 0.0
H2541 H 0.73426 0.06749 0.57993 0.0
H2542 H 0.67304 0.08933 0.57653 0.0
C2543 C 0.51471 0.1804 0.57223 0.0
C2544 C 0.58735 0.14031 0.56148 0.0
H2545 H 0.61641 0.08941 0.56231 0.0
C2546 C 0.62842 0.14898 0.56103 0.0
C2547 C 0.58294 0.11853 0.56181 0.0
C2548 C 0.53984 0.10826 0.56266 0.0
C2549 C 0.66521 0.13656 0.56132 0.0
C2550 C 0.6608 0.1148 0.56185 0.0
C2551 C 0.61971 0.10609 0.56187 0.0
C2552 C 0.69797 0.10096 0.56348 0.0
C2553 C 0.70834 0.14695 0.56164 0.0
C2554 C 0.73238 0.09997 0.55721 0.0
C2555 C 0.76798 0.08756 0.55919 0.0
C2556 C 0.76951 0.07574 0.56743 0.0
C2557 C 0.73439 0.07639 0.57354 0.0
C2558 C 0.69916 0.08885 0.57159 0.0
H2559 H 0.70576 0.16377 0.56314 0.0
H2560 H 0.72897 0.13975 0.56703 0.0
H2561 H 0.72429 0.14512 0.55478 0.0
H2562 H 0.73182 0.10884 0.55081 0.0
H2563 H 0.79428 0.08731 0.5543 0.0
H2564 H 0.45791 0.08302 0.69398 0.0
H2565 H 0.52016 0.10414 0.69815 0.0
H2566 H 0.5831 0.08513 0.67282 0.0
H2567 H 0.52225 0.06365 0.66878 0.0
H2568 H 0.63785 0.08542 0.68721 0.0
H2569 H 0.54667 0.15929 0.68635 0.0
H2570 H 0.52825 0.14036 0.69458 0.0
H2571 H 0.52425 0.13523 0.68229 0.0
C2572 C 0.48514 0.08325 0.68934 0.0
C2573 C 0.48483 0.07174 0.681 0.0
C2574 C 0.52062 0.09543 0.6917 0.0
C2575 C 0.55609 0.09652 0.68572 0.0
C2576 C 0.55618 0.08458 0.67755 0.0
H2577 H 0.73253 0.18608 0.6699 0.0
H2578 H 0.67305 0.1636 0.67367 0.0
C2579 C 0.52113 0.07232 0.67524 0.0
C2580 C 0.59278 0.11053 0.6876 0.0
H2581 H 0.62054 0.1616 0.68851 0.0
C2582 C 0.63411 0.10208 0.68764 0.0
C2583 C 0.58782 0.13227 0.68812 0.0
C2584 C 0.54446 0.14242 0.68777 0.0
C2585 C 0.67057 0.11475 0.68762 0.0
C2586 C 0.66558 0.13651 0.68784 0.0
C2587 C 0.62429 0.14492 0.68837 0.0
C2588 C 0.70191 0.15082 0.68611 0.0
C2589 C 0.71392 0.10475 0.68674 0.0
C2590 C 0.73807 0.15141 0.69192 0.0
C2591 C 0.77281 0.16424 0.68971 0.0
C2592 C 0.77169 0.17683 0.6817 0.0
C2593 C 0.7348 0.17659 0.6761 0.0
C2594 C 0.7005 0.16375 0.67827 0.0
H2595 H 0.71163 0.08807 0.68494 0.0
H2596 H 0.73326 0.11263 0.68131 0.0
H2597 H 0.7311 0.1061 0.69348 0.0
H2598 H 0.73955 0.14188 0.69811 0.0
H2599 H 0.80056 0.16418 0.69421 0.0
H2600 H 0.48898 0.81653 0.41701 0.0
H2601 H 0.42896 0.83923 0.42024 0.0
H2602 H 0.48921 0.85939 0.4457 0.0
H2603 H 0.55053 0.83693 0.44239 0.0
H2604 H 0.3729 0.84046 0.43461 0.0
H2605 H 0.46497 0.91396 0.43273 0.0
H2606 H 0.48704 0.88953 0.42903 0.0
H2607 H 0.48308 0.89554 0.44123 0.0
C2608 C 0.48971 0.82575 0.42332 0.0
C2609 C 0.5249 0.82499 0.42941 0.0
C2610 C 0.45517 0.83871 0.42517 0.0
C2611 C 0.45473 0.85122 0.43315 0.0
C2612 C 0.48922 0.85017 0.4394 0.0
H2613 H 0.21203 0.91864 0.4424 0.0
H2614 H 0.27433 0.89688 0.44572 0.0
C2615 C 0.52414 0.83724 0.43752 0.0
C2616 C 0.41819 0.86549 0.43467 0.0
H2617 H 0.391 0.91666 0.43498 0.0
C2618 C 0.37681 0.85713 0.43482 0.0
C2619 C 0.42341 0.88724 0.43487 0.0
C2620 C 0.46693 0.8972 0.43439 0.0
C2621 C 0.3405 0.86987 0.43473 0.0
C2622 C 0.34571 0.89163 0.43474 0.0
C2623 C 0.38708 0.89999 0.43502 0.0
C2624 C 0.30909 0.90592 0.43333 0.0
C2625 C 0.29704 0.8599 0.43405 0.0
C2626 C 0.30859 0.91882 0.42548 0.0
C2627 C 0.27345 0.93142 0.42363 0.0
C2628 C 0.23776 0.93138 0.42958 0.0
C2629 C 0.23878 0.91891 0.43762 0.0
C2630 C 0.27427 0.90637 0.43951 0.0
H2631 H 0.29913 0.84325 0.43217 0.0
H2632 H 0.28073 0.86106 0.4409 0.0
H2633 H 0.277 0.86787 0.42878 0.0
H2634 H 0.33506 0.91878 0.42062 0.0
H2635 H 0.27399 0.94085 0.41739 0.0
H2636 H 0.55368 0.90693 0.30747 0.0
H2637 H 0.49162 0.88443 0.305 0.0
H2638 H 0.41201 0.9281 0.31965 0.0
H2639 H 0.4737 0.95025 0.32234 0.0
H2640 H 0.40567 0.89024 0.32688 0.0
H2641 H 0.38613 0.88544 0.28852 0.0
H2642 H 0.43896 0.87926 0.2925 0.0
H2643 H 0.41851 0.90502 0.29407 0.0
C2644 C 0.52275 0.91191 0.30998 0.0
C2645 C 0.51869 0.93026 0.31518 0.0
C2646 C 0.48724 0.89908 0.30852 0.0
C2647 C 0.44703 0.90461 0.3121 0.0
C2648 C 0.44266 0.92348 0.31684 0.0
H2649 H 0.20009 0.84272 0.3076 0.0
H2650 H 0.26138 0.86579 0.30519 0.0
C2651 C 0.47804 0.93612 0.31839 0.0
C2652 C 0.41056 0.88989 0.3119 0.0
H2653 H 0.34579 0.86142 0.29762 0.0
C2654 C 0.39251 0.88404 0.32046 0.0
C2655 C 0.39313 0.88191 0.30354 0.0
C2656 C 0.40987 0.88835 0.29412 0.0
C2657 C 0.35788 0.87037 0.32092 0.0
C2658 C 0.34135 0.8618 0.31259 0.0
C2659 C 0.35886 0.86783 0.30399 0.0
C2660 C 0.30588 0.84659 0.31281 0.0
C2661 C 0.33889 0.86548 0.33034 0.0
C2662 C 0.31102 0.8278 0.31757 0.0
C2663 C 0.27616 0.81476 0.31904 0.0
C2664 C 0.23545 0.82008 0.31566 0.0
C2665 C 0.23097 0.83822 0.31032 0.0
C2666 C 0.26595 0.8514 0.30893 0.0
H2667 H 0.34744 0.87736 0.33562 0.0
H2668 H 0.30356 0.86441 0.32995 0.0
H2669 H 0.35138 0.85037 0.33279 0.0
H2670 H 0.34176 0.82357 0.32045 0.0
H2671 H 0.28092 0.80076 0.32306 0.0
H2672 H 0.71992 0.55055 0.07258 0.0
H2673 H 0.65743 0.57239 0.07021 0.0
H2674 H 0.7358 0.61791 0.05639 0.0
H2675 H 0.79847 0.59568 0.05847 0.0
H2676 H 0.6479 0.60893 0.07795 0.0
H2677 H 0.6324 0.61795 0.03969 0.0
H2678 H 0.6659 0.59842 0.04493 0.0
H2679 H 0.68439 0.6247 0.04397 0.0
C2680 C 0.72376 0.56502 0.06887 0.0
C2681 C 0.76419 0.57145 0.06576 0.0
C2682 C 0.68797 0.5775 0.06751 0.0
C2683 C 0.69174 0.59678 0.06308 0.0
C2684 C 0.73182 0.60293 0.05965 0.0
H2685 H 0.52021 0.69782 0.07565 0.0
H2686 H 0.58209 0.6756 0.07315 0.0
C2687 C 0.76769 0.59026 0.06089 0.0
C2688 C 0.65471 0.61118 0.06304 0.0
H2689 H 0.59108 0.64105 0.04911 0.0
C2690 C 0.63539 0.61583 0.07162 0.0
C2691 C 0.63808 0.62008 0.05478 0.0
C2692 C 0.65598 0.6149 0.04531 0.0
C2693 C 0.6003 0.62919 0.07221 0.0
C2694 C 0.5847 0.63874 0.06401 0.0
C2695 C 0.60346 0.63391 0.05539 0.0
C2696 C 0.54875 0.65368 0.06438 0.0
C2697 C 0.57982 0.63265 0.08161 0.0
C2698 C 0.51002 0.64936 0.05985 0.0
C2699 C 0.47452 0.66222 0.06117 0.0
C2700 C 0.47723 0.67954 0.06709 0.0
C2701 C 0.5168 0.68442 0.07117 0.0
C2702 C 0.55223 0.67171 0.06977 0.0
H2703 H 0.58766 0.62002 0.08657 0.0
H2704 H 0.59184 0.64736 0.08461 0.0
H2705 H 0.54456 0.63374 0.08099 0.0
H2706 H 0.50675 0.63558 0.0556 0.0
H2707 H 0.44457 0.65809 0.05789 0.0
H2708 H 0.4492 0.59513 0.18801 0.0
H2709 H 0.50931 0.61919 0.18986 0.0
H2710 H 0.59138 0.57657 0.17526 0.0
H2711 H 0.53168 0.55279 0.1732 0.0
H2712 H 0.59329 0.61691 0.19735 0.0
H2713 H 0.59487 0.62865 0.15907 0.0
H2714 H 0.5517 0.61569 0.16499 0.0
H2715 H 0.6003 0.60202 0.1624 0.0
C2716 C 0.48023 0.59077 0.18533 0.0
C2717 C 0.48551 0.57223 0.18032 0.0
C2718 C 0.51451 0.60452 0.18638 0.0
C2719 C 0.55453 0.59986 0.1825 0.0
C2720 C 0.56052 0.58069 0.17811 0.0
H2721 H 0.80053 0.66112 0.18746 0.0
H2722 H 0.73795 0.63911 0.18998 0.0
C2723 C 0.52634 0.56709 0.17696 0.0
C2724 C 0.58926 0.61548 0.18239 0.0
H2725 H 0.65338 0.64246 0.16751 0.0
C2726 C 0.60634 0.62264 0.19084 0.0
C2727 C 0.6057 0.6232 0.17389 0.0
C2728 C 0.58696 0.61717 0.16457 0.0
C2729 C 0.64028 0.63692 0.191 0.0
C2730 C 0.65795 0.6439 0.18248 0.0
C2731 C 0.64012 0.63703 0.17405 0.0
C2732 C 0.69481 0.65837 0.18199 0.0
C2733 C 0.65643 0.6446 0.20028 0.0
C2734 C 0.69157 0.67649 0.17665 0.0
C2735 C 0.72738 0.68884 0.17505 0.0
C2736 C 0.76729 0.68343 0.17881 0.0
C2737 C 0.7702 0.66577 0.1845 0.0
C2738 C 0.73434 0.65324 0.18601 0.0
H2739 H 0.63196 0.64281 0.20583 0.0
H2740 H 0.68479 0.63539 0.20235 0.0
H2741 H 0.66594 0.66112 0.1999 0.0
H2742 H 0.66147 0.68078 0.17347 0.0
H2743 H 0.72392 0.70242 0.17069 0.0
H2744 H 0.2626 0.43911 0.91686 0.0
H2745 H 0.32434 0.41761 0.92024 0.0
H2746 H 0.2651 0.39683 0.94571 0.0
H2747 H 0.20208 0.41797 0.94223 0.0
H2748 H 0.38103 0.41637 0.93443 0.0
H2749 H 0.28982 0.34259 0.9327 0.0
H2750 H 0.26716 0.36696 0.92912 0.0
H2751 H 0.27186 0.36082 0.9413 0.0
C2752 C 0.26254 0.43006 0.92322 0.0
C2753 C 0.22702 0.43012 0.92922 0.0
C2754 C 0.29807 0.4178 0.92515 0.0
C2755 C 0.29916 0.40533 0.93315 0.0
C2756 C 0.26459 0.40597 0.93939 0.0
H2757 H 0.54238 0.33755 0.94175 0.0
H2758 H 0.48092 0.3598 0.94522 0.0
C2759 C 0.22869 0.41816 0.93741 0.0
C2760 C 0.33602 0.39121 0.9346 0.0
H2761 H 0.3638 0.34011 0.93484 0.0
C2762 C 0.37731 0.39969 0.93465 0.0
C2763 C 0.33107 0.36944 0.93482 0.0
C2764 C 0.28768 0.35932 0.93441 0.0
C2765 C 0.41377 0.38703 0.93446 0.0
C2766 C 0.40878 0.36526 0.93447 0.0
C2767 C 0.36753 0.3568 0.93488 0.0
C2768 C 0.44534 0.35103 0.9329 0.0
C2769 C 0.45711 0.39708 0.9337 0.0
C2770 C 0.44519 0.33823 0.92501 0.0
C2771 C 0.47983 0.32538 0.92307 0.0
C2772 C 0.51568 0.32504 0.92898 0.0
C2773 C 0.51546 0.33754 0.93702 0.0
C2774 C 0.48046 0.35035 0.93899 0.0
H2775 H 0.4548 0.41377 0.93191 0.0
H2776 H 0.47395 0.39573 0.94047 0.0
H2777 H 0.47678 0.38925 0.92831 0.0
H2778 H 0.41848 0.33846 0.92021 0.0
H2779 H 0.47867 0.31596 0.91683 0.0
H2780 H 0.47353 0.44805 0.8245 0.0
H2781 H 0.41195 0.42604 0.82141 0.0
H2782 H 0.48768 0.38856 0.80286 0.0
H2783 H 0.54982 0.41079 0.80582 0.0
H2784 H 0.39995 0.39626 0.79668 0.0
H2785 H 0.41045 0.36746 0.83307 0.0
H2786 H 0.40727 0.39512 0.8321 0.0
H2787 H 0.45312 0.38172 0.82759 0.0
C2788 C 0.47716 0.43527 0.81968 0.0
C2789 C 0.51688 0.431 0.81552 0.0
C2790 C 0.44184 0.42271 0.81792 0.0
C2791 C 0.44546 0.40548 0.81204 0.0
C2792 C 0.48431 0.40176 0.80745 0.0
H2793 H 0.27869 0.30008 0.81698 0.0
H2794 H 0.33982 0.32279 0.81464 0.0
C2795 C 0.51978 0.41445 0.80917 0.0
C2796 C 0.40961 0.39056 0.81131 0.0
H2797 H 0.34946 0.35763 0.82444 0.0
C2798 C 0.38893 0.3877 0.80272 0.0
C2799 C 0.39569 0.37924 0.81918 0.0
C2800 C 0.41797 0.38084 0.82849 0.0
C2801 C 0.35406 0.37407 0.80185 0.0
C2802 C 0.33936 0.36325 0.80981 0.0
C2803 C 0.36055 0.36597 0.81835 0.0
C2804 C 0.30267 0.34866 0.80957 0.0
C2805 C 0.33371 0.37112 0.79242 0.0
C2806 C 0.26136 0.35539 0.80721 0.0
C2807 C 0.22613 0.34226 0.80845 0.0
C2808 C 0.23169 0.32236 0.81222 0.0
C2809 C 0.27328 0.31539 0.81414 0.0
C2810 C 0.30832 0.32836 0.8128 0.0
H2811 H 0.35532 0.37607 0.7867 0.0
H2812 H 0.32469 0.3547 0.79129 0.0
H2813 H 0.3043 0.38064 0.79202 0.0
H2814 H 0.25606 0.37111 0.80488 0.0
H2815 H 0.19443 0.34809 0.80698 0.0
H2816 H 0.36599 0.96565 0.05267 0.0
H2817 H 0.36013 0.92894 0.04843 0.0
H2818 H 0.42311 0.91216 0.0741 0.0
H2819 H 0.43092 0.94881 0.07806 0.0
H2820 H 0.44612 0.88692 0.06013 0.0
H2821 H 0.26936 0.89457 0.06098 0.0
H2822 H 0.29575 0.91045 0.05249 0.0
H2823 H 0.30443 0.91507 0.06471 0.0
C2824 C 0.37948 0.95406 0.05726 0.0
C2825 C 0.39799 0.95985 0.06578 0.0
C2826 C 0.37568 0.93314 0.0549 0.0
C2827 C 0.38987 0.91779 0.0611 0.0
C2828 C 0.41141 0.92372 0.06926 0.0
H2829 H 0.30506 0.799 0.07644 0.0
H2830 H 0.31412 0.83574 0.07279 0.0
C2831 C 0.41566 0.9446 0.07155 0.0
C2832 C 0.37992 0.89561 0.05953 0.0
H2833 H 0.29705 0.86132 0.05851 0.0
C2834 C 0.41357 0.8813 0.05965 0.0
C2835 C 0.33731 0.88834 0.05903 0.0
C2836 C 0.29956 0.90284 0.05937 0.0
C2837 C 0.40584 0.8599 0.05967 0.0
C2838 C 0.36322 0.85263 0.05925 0.0
C2839 C 0.32965 0.86695 0.05874 0.0
C2840 C 0.35267 0.83042 0.06049 0.0
C2841 C 0.44328 0.84538 0.06073 0.0
C2842 C 0.36949 0.81521 0.05453 0.0
C2843 C 0.36491 0.79424 0.05672 0.0
C2844 C 0.34302 0.78826 0.06482 0.0
C2845 C 0.32288 0.80336 0.07028 0.0
C2846 C 0.32786 0.82429 0.06816 0.0
H2847 H 0.47265 0.85361 0.06299 0.0
H2848 H 0.43614 0.83305 0.06589 0.0
H2849 H 0.45004 0.8379 0.05393 0.0
H2850 H 0.38767 0.81957 0.04842 0.0
H2851 H 0.38041 0.78277 0.05238 0.0
H2852 H 0.82191 0.45918 0.06381 0.0
H2853 H 0.8222 0.42205 0.06056 0.0
H2854 H 0.95953 0.42321 0.05841 0.0
H2855 H 0.95931 0.46048 0.06196 0.0
H2856 H 0.85303 0.39684 0.04623 0.0
H2857 H 0.93711 0.38283 0.07982 0.0
H2858 H 0.91461 0.40764 0.07684 0.0
H2859 H 0.96436 0.39955 0.07178 0.0
C2860 C 0.8521 0.45151 0.06254 0.0
C2861 C 0.89062 0.46251 0.0632 0.0
C2862 C 0.85222 0.43037 0.06063 0.0
C2863 C 0.89089 0.41984 0.05939 0.0
C2864 C 0.92938 0.43103 0.05949 0.0
H2865 H 0.93495 0.28742 0.06184 0.0
H2866 H 0.94281 0.32422 0.05822 0.0
C2867 C 0.92926 0.45227 0.06144 0.0
C2868 C 0.89058 0.39696 0.05881 0.0
H2869 H 0.91849 0.35369 0.07098 0.0
C2870 C 0.86767 0.38735 0.05158 0.0
C2871 C 0.90932 0.38467 0.06587 0.0
C2872 C 0.93244 0.39412 0.07407 0.0
C2873 C 0.8629 0.36574 0.05125 0.0
C2874 C 0.8811 0.35353 0.05839 0.0
C2875 C 0.90472 0.36312 0.0655 0.0
C2876 C 0.87519 0.33083 0.05892 0.0
C2877 C 0.83848 0.35614 0.04329 0.0
C2878 C 0.83443 0.32225 0.06031 0.0
C2879 C 0.82991 0.30117 0.06235 0.0
C2880 C 0.86614 0.28855 0.06307 0.0
C2881 C 0.90661 0.29695 0.06128 0.0
C2882 C 0.9111 0.3179 0.05922 0.0
H2883 H 0.83656 0.36674 0.03721 0.0
H2884 H 0.85348 0.3414 0.04104 0.0
H2885 H 0.80546 0.3527 0.04562 0.0
H2886 H 0.80638 0.33204 0.06031 0.0
H2887 H 0.79852 0.29498 0.06384 0.0
H2888 H 0.46141 0.29023 0.1845 0.0
H2889 H 0.4594 0.32738 0.18825 0.0
H2890 H 0.32232 0.32696 0.18536 0.0
H2891 H 0.32429 0.28999 0.18184 0.0
H2892 H 0.4296 0.3565 0.17603 0.0
H2893 H 0.33714 0.36122 0.20882 0.0
H2894 H 0.36104 0.33742 0.20477 0.0
H2895 H 0.31073 0.34599 0.2001 0.0
C2896 C 0.43091 0.29805 0.18494 0.0
C2897 C 0.39299 0.2874 0.18294 0.0
C2898 C 0.42974 0.3192 0.18705 0.0
C2899 C 0.39062 0.32986 0.18724 0.0
C2900 C 0.35272 0.31899 0.1855 0.0
H2901 H 0.30039 0.45429 0.18065 0.0
H2902 H 0.30767 0.41703 0.1839 0.0
C2903 C 0.3539 0.29794 0.1834 0.0
C2904 C 0.38948 0.3527 0.18809 0.0
H2905 H 0.34098 0.39248 0.19969 0.0
C2906 C 0.41088 0.36439 0.18131 0.0
C2907 C 0.36464 0.36293 0.19492 0.0
C2908 C 0.34242 0.35124 0.20262 0.0
C2909 C 0.40679 0.38596 0.18094 0.0
C2910 C 0.38118 0.39616 0.18764 0.0
C2911 C 0.3605 0.38457 0.19456 0.0
C2912 C 0.37488 0.41882 0.18731 0.0
C2913 C 0.42855 0.3976 0.17314 0.0
C2914 C 0.40978 0.43212 0.18853 0.0
C2915 C 0.40565 0.45319 0.18665 0.0
C2916 C 0.36643 0.46128 0.18366 0.0
C2917 C 0.33074 0.44829 0.18304 0.0
C2918 C 0.33494 0.4271 0.18488 0.0
H2919 H 0.43918 0.38712 0.16746 0.0
H2920 H 0.40691 0.40947 0.17014 0.0
H2921 H 0.45709 0.40565 0.17594 0.0
H2922 H 0.44071 0.42604 0.1905 0.0
H2923 H 0.43356 0.46304 0.18711 0.0
H2924 H 0.79008 0.96084 0.18337 0.0
H2925 H 0.79307 0.92363 0.18702 0.0
H2926 H 0.93064 0.92589 0.18601 0.0
H2927 H 0.92759 0.96285 0.18253 0.0
H2928 H 0.82774 0.89544 0.17497 0.0
H2929 H 0.91079 0.89013 0.20889 0.0
H2930 H 0.88628 0.91377 0.20482 0.0
H2931 H 0.93869 0.90651 0.20085 0.0
C2932 C 0.82081 0.9534 0.18422 0.0
C2933 C 0.85861 0.96453 0.18273 0.0
C2934 C 0.82255 0.93222 0.18627 0.0
C2935 C 0.86212 0.92206 0.18694 0.0
C2936 C 0.89983 0.93346 0.18578 0.0
H2937 H 0.94154 0.80251 0.17013 0.0
H2938 H 0.93251 0.83938 0.17374 0.0
C2939 C 0.89807 0.95451 0.18371 0.0
C2940 C 0.86442 0.8992 0.18756 0.0
H2941 H 0.91437 0.85969 0.19905 0.0
C2942 C 0.84596 0.8876 0.18035 0.0
C2943 C 0.88812 0.88896 0.19459 0.0
C2944 C 0.90673 0.90049 0.20278 0.0
C2945 C 0.8525 0.86621 0.17968 0.0
C2946 C 0.87847 0.85622 0.18636 0.0
C2947 C 0.89505 0.86753 0.19387 0.0
C2948 C 0.88967 0.83415 0.18533 0.0
C2949 C 0.83249 0.85447 0.1717 0.0
C2950 C 0.87006 0.81913 0.19093 0.0
C2951 C 0.87517 0.79812 0.18886 0.0
C2952 C 0.89993 0.792 0.18119 0.0
C2953 C 0.92205 0.80698 0.17603 0.0
C2954 C 0.91689 0.82795 0.17808 0.0
H2955 H 0.80659 0.86347 0.1683 0.0
H2956 H 0.85727 0.85109 0.16639 0.0
H2957 H 0.81926 0.83948 0.17415 0.0
H2958 H 0.84899 0.82369 0.19655 0.0
H2959 H 0.85775 0.78673 0.1929 0.0
H2960 H 0.69855 0.20848 0.93206 0.0
H2961 H 0.6949 0.17105 0.93511 0.0
H2962 H 0.5578 0.17508 0.93722 0.0
H2963 H 0.56155 0.21238 0.93437 0.0
H2964 H 0.59506 0.14667 0.95003 0.0
H2965 H 0.64974 0.13508 0.91349 0.0
H2966 H 0.685 0.14985 0.9208 0.0
H2967 H 0.63334 0.16 0.91787 0.0
C2968 C 0.66789 0.20139 0.93346 0.0
C2969 C 0.63031 0.21311 0.93298 0.0
C2970 C 0.66576 0.18007 0.93512 0.0
C2971 C 0.626 0.17029 0.93625 0.0
C2972 C 0.58876 0.18231 0.93637 0.0
H2973 H 0.55575 0.04704 0.92029 0.0
H2974 H 0.55821 0.08438 0.92332 0.0
C2975 C 0.5909 0.20355 0.93472 0.0
C2976 C 0.62235 0.14745 0.93626 0.0
H2977 H 0.63471 0.10525 0.92224 0.0
C2978 C 0.60399 0.13753 0.944 0.0
C2979 C 0.63329 0.1357 0.9283 0.0
C2980 C 0.65111 0.14564 0.9196 0.0
C2981 C 0.59619 0.1161 0.94395 0.0
C2982 C 0.6074 0.10438 0.936 0.0
C2983 C 0.62608 0.11431 0.92832 0.0
C2984 C 0.59978 0.08181 0.93532 0.0
C2985 C 0.57495 0.10628 0.95228 0.0
C2986 C 0.62119 0.06798 0.94124 0.0
C2987 C 0.61946 0.04668 0.93955 0.0
C2988 C 0.59665 0.03903 0.93187 0.0
C2989 C 0.57333 0.05271 0.92627 0.0
C2990 C 0.57489 0.07396 0.92798 0.0
H2991 H 0.55923 0.11798 0.9568 0.0
H2992 H 0.55078 0.09473 0.95006 0.0
H2993 H 0.59939 0.09814 0.95651 0.0
H2994 H 0.64118 0.0737 0.94684 0.0
H2995 H 0.63806 0.0363 0.94387 0.0
H2996 H 0.18074 0.70001 0.91788 0.0
H2997 H 0.17402 0.66315 0.92153 0.0
H2998 H 0.11477 0.67847 0.9478 0.0
H2999 H 0.11973 0.71541 0.94392 0.0
H3000 H 0.19893 0.63707 0.9352 0.0
H3001 H 0.02216 0.64497 0.93522 0.0
H3002 H 0.05699 0.66556 0.9315 0.0
H3003 H 0.04956 0.66045 0.94371 0.0
C3004 C 0.16671 0.69544 0.92447 0.0
C3005 C 0.14975 0.71034 0.93052 0.0
C3006 C 0.16302 0.67443 0.92657 0.0
C3007 C 0.14273 0.66805 0.93481 0.0
C3008 C 0.12939 0.68304 0.94128 0.0
H3009 H 0.1321 0.53285 0.94286 0.0
H3010 H 0.14069 0.56961 0.94678 0.0
C3011 C 0.13268 0.70409 0.93911 0.0
C3012 C 0.13285 0.6458 0.93617 0.0
H3013 H 0.04989 0.61155 0.93721 0.0
C3014 C 0.16641 0.63146 0.93576 0.0
C3015 C 0.09026 0.63855 0.93678 0.0
C3016 C 0.05258 0.65312 0.93675 0.0
C3017 C 0.15855 0.61007 0.93559 0.0
C3018 C 0.11594 0.60283 0.93613 0.0
C3019 C 0.08249 0.61716 0.93689 0.0
C3020 C 0.10519 0.58066 0.93482 0.0
C3021 C 0.19579 0.59553 0.93428 0.0
C3022 C 0.07987 0.57469 0.9272 0.0
C3023 C 0.07422 0.55378 0.9251 0.0
C3024 C 0.09409 0.53855 0.93053 0.0
C3025 C 0.11673 0.54441 0.93855 0.0
C3026 C 0.12205 0.56536 0.94072 0.0
H3027 H 0.22502 0.6038 0.93197 0.0
H3028 H 0.20305 0.58781 0.941 0.0
H3029 H 0.18812 0.58339 0.92907 0.0
H3030 H 0.06612 0.58622 0.92262 0.0
H3031 H 0.05588 0.54953 0.91899 0.0
H3032 H 0.62985 0.71658 0.80252 0.0
H3033 H 0.63475 0.68001 0.79796 0.0
H3034 H 0.56949 0.66261 0.82327 0.0
H3035 H 0.56356 0.6991 0.82765 0.0
H3036 H 0.67925 0.65183 0.80766 0.0
H3037 H 0.51262 0.62501 0.80466 0.0
H3038 H 0.52657 0.65213 0.80471 0.0
H3039 H 0.52098 0.63816 0.81551 0.0
C3040 C 0.61544 0.7049 0.80693 0.0
C3041 C 0.5966 0.71044 0.81545 0.0
C3042 C 0.61842 0.68408 0.80436 0.0
C3043 C 0.60224 0.66857 0.81023 0.0
C3044 C 0.58143 0.67428 0.81852 0.0
H3045 H 0.68754 0.5505 0.82583 0.0
H3046 H 0.68031 0.58718 0.8219 0.0
C3047 C 0.57836 0.69508 0.82107 0.0
C3048 C 0.6114 0.64644 0.80835 0.0
H3049 H 0.56517 0.59868 0.80838 0.0
C3050 C 0.65423 0.64023 0.80762 0.0
C3051 C 0.57884 0.6313 0.80813 0.0
C3052 C 0.53218 0.63703 0.80819 0.0
C3053 C 0.66547 0.61922 0.80731 0.0
C3054 C 0.63307 0.60406 0.80794 0.0
C3055 C 0.59012 0.61029 0.80802 0.0
C3056 C 0.64284 0.58185 0.80943 0.0
C3057 C 0.71199 0.61351 0.8065 0.0
C3058 C 0.62445 0.56662 0.80371 0.0
C3059 C 0.62819 0.54568 0.80604 0.0
C3060 C 0.65004 0.53974 0.81414 0.0
C3061 C 0.6704 0.55483 0.81957 0.0
C3062 C 0.66658 0.57574 0.81727 0.0
H3063 H 0.73021 0.6257 0.80276 0.0
H3064 H 0.72585 0.61203 0.81358 0.0
H3065 H 0.71628 0.59858 0.80278 0.0
H3066 H 0.60584 0.57099 0.79766 0.0
H3067 H 0.61208 0.53423 0.80179 0.0
H3068 H 0.04246 0.20621 0.81464 0.0
H3069 H 0.04636 0.16873 0.81165 0.0
H3070 H 0.17353 0.17618 0.80066 0.0
H3071 H 0.16972 0.21346 0.80369 0.0
H3072 H 0.0732 0.14226 0.79461 0.0
H3073 H 0.18145 0.14019 0.8254 0.0
H3074 H 0.14642 0.16177 0.82309 0.0
H3075 H 0.19421 0.15847 0.81636 0.0
C3076 C 0.07048 0.19985 0.81127 0.0
C3077 C 0.10569 0.2125 0.80932 0.0
C3078 C 0.07279 0.17853 0.8096 0.0
C3079 C 0.11038 0.16977 0.80601 0.0
C3080 C 0.14434 0.18268 0.80345 0.0
H3081 H 0.19766 0.0416 0.81054 0.0
H3082 H 0.19469 0.07846 0.8063 0.0
C3083 C 0.14207 0.20391 0.80513 0.0
C3084 C 0.11632 0.14709 0.80607 0.0
H3085 H 0.16752 0.10863 0.81791 0.0
C3086 C 0.09393 0.13485 0.79966 0.0
C3087 C 0.14362 0.13757 0.81265 0.0
C3088 C 0.16768 0.15008 0.81982 0.0
C3089 C 0.09802 0.11319 0.79968 0.0
C3090 C 0.12445 0.10362 0.80643 0.0
C3091 C 0.14749 0.11597 0.8127 0.0
C3092 C 0.12602 0.08085 0.8077 0.0
C3093 C 0.07417 0.10079 0.79245 0.0
C3094 C 0.08852 0.06999 0.80982 0.0
C3095 C 0.09023 0.04908 0.81216 0.0
C3096 C 0.12948 0.03865 0.81251 0.0
C3097 C 0.167 0.0493 0.81019 0.0
C3098 C 0.16529 0.0703 0.80781 0.0
H3099 H 0.06792 0.11013 0.78609 0.0
H3100 H 0.09211 0.08667 0.79043 0.0
H3101 H 0.04287 0.096 0.79535 0.0
H3102 H 0.05803 0.07788 0.81004 0.0
H3103 H 0.06088 0.04114 0.81394 0.0
H3104 H 0.30452 0.29861 0.5735 0.0
H3105 H 0.31066 0.33579 0.57038 0.0
H3106 H 0.39815 0.32307 0.54787 0.0
H3107 H 0.39114 0.28582 0.55089 0.0
H3108 H 0.3883 0.3548 0.57244 0.0
H3109 H 0.32415 0.36934 0.53694 0.0
H3110 H 0.31162 0.34626 0.54349 0.0
H3111 H 0.36229 0.34864 0.53774 0.0
C3112 C 0.32363 0.3038 0.56766 0.0
C3113 C 0.34702 0.28957 0.56235 0.0
C3114 C 0.32741 0.32498 0.56592 0.0
C3115 C 0.35477 0.33221 0.55888 0.0
C3116 C 0.37626 0.31785 0.55322 0.0
H3117 H 0.46042 0.45755 0.56436 0.0
H3118 H 0.45648 0.42024 0.56101 0.0
C3119 C 0.37225 0.29662 0.55493 0.0
C3120 C 0.36488 0.35459 0.55833 0.0
H3121 H 0.36022 0.39721 0.54429 0.0
C3122 C 0.38224 0.36407 0.56628 0.0
C3123 C 0.35708 0.36659 0.55027 0.0
C3124 C 0.33744 0.35729 0.54164 0.0
C3125 C 0.39116 0.38531 0.56648 0.0
C3126 C 0.38348 0.39737 0.55842 0.0
C3127 C 0.36669 0.38785 0.55041 0.0
C3128 C 0.38822 0.42018 0.55861 0.0
C3129 C 0.40706 0.3948 0.57545 0.0
C3130 C 0.35169 0.43258 0.55786 0.0
C3131 C 0.35406 0.45375 0.55967 0.0
C3132 C 0.39301 0.46289 0.56219 0.0
C3133 C 0.43016 0.45081 0.56234 0.0
C3134 C 0.42782 0.42954 0.56051 0.0
H3135 H 0.40313 0.38417 0.58148 0.0
H3136 H 0.44152 0.39844 0.57476 0.0
H3137 H 0.38984 0.40943 0.577 0.0
H3138 H 0.32086 0.4257 0.55641 0.0
H3139 H 0.32501 0.46285 0.55953 0.0
H3140 H 0.93661 0.79404 0.56428 0.0
H3141 H 0.93544 0.8312 0.56109 0.0
H3142 H 0.79814 0.82928 0.55895 0.0
H3143 H 0.79921 0.79206 0.56251 0.0
H3144 H 0.90489 0.85584 0.54674 0.0
H3145 H 0.81833 0.87062 0.57993 0.0
H3146 H 0.84125 0.84578 0.57717 0.0
H3147 H 0.79155 0.85355 0.57198 0.0
C3148 C 0.90622 0.80156 0.56306 0.0
C3149 C 0.86796 0.79034 0.56371 0.0
C3150 C 0.9056 0.82273 0.56118 0.0
C3151 C 0.86669 0.83306 0.55993 0.0
C3152 C 0.82848 0.82165 0.56005 0.0
H3153 H 0.81651 0.96514 0.56078 0.0
H3154 H 0.8108 0.92811 0.55738 0.0
C3155 C 0.82909 0.80041 0.56199 0.0
C3156 C 0.86642 0.85594 0.55919 0.0
H3157 H 0.83542 0.89954 0.57077 0.0
C3158 C 0.88943 0.86543 0.55194 0.0
C3159 C 0.84658 0.8684 0.56604 0.0
C3160 C 0.82334 0.85914 0.57427 0.0
C3161 C 0.89317 0.88707 0.5514 0.0
C3162 C 0.87374 0.89945 0.55832 0.0
C3163 C 0.8501 0.88997 0.56544 0.0
C3164 C 0.87854 0.92224 0.55861 0.0
C3165 C 0.9178 0.89652 0.54344 0.0
C3166 C 0.91869 0.93131 0.5602 0.0
C3167 C 0.92197 0.9525 0.56212 0.0
C3168 C 0.88512 0.96477 0.5625 0.0
C3169 C 0.84533 0.9559 0.56045 0.0
C3170 C 0.84206 0.93481 0.55853 0.0
H3171 H 0.92111 0.88557 0.53751 0.0
H3172 H 0.90205 0.91086 0.54092 0.0
H3173 H 0.9503 0.90066 0.54588 0.0
H3174 H 0.94713 0.92181 0.56049 0.0
H3175 H 0.95283 0.95904 0.56383 0.0
H3176 H 0.39477 0.96676 0.69358 0.0
H3177 H 0.4026 0.92966 0.69701 0.0
H3178 H 0.32296 0.91505 0.67338 0.0
H3179 H 0.31518 0.95206 0.66997 0.0
H3180 H 0.34134 0.89478 0.69947 0.0
H3181 H 0.44369 0.88915 0.66798 0.0
H3182 H 0.43062 0.91355 0.67342 0.0
H3183 H 0.39248 0.90088 0.666 0.0
C3184 C 0.37807 0.95557 0.6893 0.0
C3185 C 0.35475 0.96204 0.68147 0.0
C3186 C 0.38264 0.93446 0.69124 0.0
C3187 C 0.36396 0.91969 0.68534 0.0
C3188 C 0.33807 0.92626 0.67793 0.0
H3189 H 0.32442 0.7903 0.68442 0.0
H3190 H 0.32175 0.8274 0.68765 0.0
C3191 C 0.33352 0.94731 0.676 0.0
C3192 C 0.3744 0.89749 0.68638 0.0
H3193 H 0.4218 0.85745 0.67487 0.0
C3194 C 0.35927 0.88659 0.69416 0.0
C3195 C 0.3987 0.88702 0.67954 0.0
C3196 C 0.41772 0.89824 0.6713 0.0
C3197 C 0.36597 0.86517 0.69502 0.0
C3198 C 0.38792 0.85446 0.68787 0.0
C3199 C 0.40486 0.86562 0.68034 0.0
C3200 C 0.39032 0.83156 0.68751 0.0
C3201 C 0.34915 0.85418 0.70353 0.0
C3202 C 0.42977 0.82148 0.68637 0.0
C3203 C 0.43127 0.80025 0.68445 0.0
C3204 C 0.39332 0.7889 0.6836 0.0
C3205 C 0.35408 0.79879 0.68513 0.0
C3206 C 0.35256 0.81993 0.68705 0.0
H3207 H 0.34681 0.86488 0.70958 0.0
H3208 H 0.31663 0.84824 0.70205 0.0
H3209 H 0.36979 0.8409 0.70548 0.0
H3210 H 0.45927 0.83022 0.68659 0.0
H3211 H 0.4618 0.79293 0.68315 0.0
H3212 H 0.93266 0.46108 0.68228 0.0
H3213 H 0.93467 0.42393 0.68551 0.0
H3214 H 0.79734 0.42313 0.68769 0.0
H3215 H 0.79523 0.46028 0.68406 0.0
H3216 H 0.90724 0.39819 0.69955 0.0
H3217 H 0.81979 0.38286 0.66655 0.0
H3218 H 0.84052 0.40806 0.66946 0.0
H3219 H 0.79167 0.39906 0.67464 0.0
C3220 C 0.90296 0.45297 0.68356 0.0
C3221 C 0.86377 0.4634 0.68288 0.0
C3222 C 0.90415 0.43181 0.68544 0.0
C3223 C 0.86614 0.42069 0.68667 0.0
C3224 C 0.82701 0.43136 0.68659 0.0
H3225 H 0.82016 0.28855 0.6867 0.0
H3226 H 0.81509 0.32567 0.68992 0.0
C3227 C 0.82581 0.45257 0.68463 0.0
C3228 C 0.86768 0.3978 0.68727 0.0
H3229 H 0.83794 0.35397 0.67568 0.0
C3230 C 0.8919 0.38849 0.69437 0.0
C3231 C 0.8481 0.38519 0.68042 0.0
C3232 C 0.82389 0.39425 0.67228 0.0
C3233 C 0.89684 0.36688 0.69483 0.0
C3234 C 0.87726 0.35438 0.68798 0.0
C3235 C 0.85269 0.36366 0.68096 0.0
C3236 C 0.88228 0.33161 0.68773 0.0
C3237 C 0.92275 0.35756 0.70262 0.0
C3238 C 0.92197 0.3226 0.68563 0.0
C3239 C 0.92489 0.30135 0.68379 0.0
C3240 C 0.88813 0.28899 0.68401 0.0
C3241 C 0.84894 0.29785 0.68655 0.0
C3242 C 0.84602 0.31899 0.68838 0.0
H3243 H 0.92783 0.36871 0.70841 0.0
H3244 H 0.90685 0.34351 0.70542 0.0
H3245 H 0.95445 0.35289 0.69988 0.0
H3246 H 0.95017 0.33216 0.68491 0.0
H3247 H 0.95524 0.29484 0.68168 0.0
H3248 H 0.56223 0.71276 0.43368 0.0
H3249 H 0.55374 0.67602 0.43734 0.0
H3250 H 0.69058 0.66915 0.43849 0.0
H3251 H 0.69909 0.70612 0.4348 0.0
H3252 H 0.58782 0.64599 0.42519 0.0
H3253 H 0.64729 0.63556 0.46137 0.0
H3254 H 0.63035 0.66037 0.45688 0.0
H3255 H 0.68157 0.65007 0.45373 0.0
C3256 C 0.59043 0.70347 0.43492 0.0
C3257 C 0.63129 0.71212 0.43398 0.0
C3258 C 0.58556 0.68254 0.43702 0.0
C3259 C 0.62148 0.66991 0.43825 0.0
C3260 C 0.66244 0.67873 0.43774 0.0
H3261 H 0.67469 0.54044 0.43772 0.0
H3262 H 0.67372 0.57782 0.44038 0.0
C3263 C 0.66732 0.69977 0.43563 0.0
C3264 C 0.61592 0.6472 0.43887 0.0
H3265 H 0.63468 0.60495 0.45255 0.0
C3266 C 0.5976 0.63701 0.43121 0.0
C3267 C 0.62899 0.6356 0.44671 0.0
C3268 C 0.64787 0.64591 0.45518 0.0
C3269 C 0.59316 0.61544 0.43104 0.0
C3270 C 0.60634 0.60374 0.43887 0.0
C3271 C 0.62417 0.61397 0.4466 0.0
C3272 C 0.60533 0.5808 0.43876 0.0
C3273 C 0.5762 0.60533 0.4223 0.0
C3274 C 0.56698 0.56993 0.43734 0.0
C3275 C 0.56757 0.54856 0.43572 0.0
C3276 C 0.60645 0.53781 0.43568 0.0
C3277 C 0.64434 0.54848 0.43773 0.0
C3278 C 0.64379 0.56978 0.43927 0.0
H3279 H 0.57694 0.61602 0.41624 0.0
H3280 H 0.59497 0.5913 0.42052 0.0
H3281 H 0.54257 0.60061 0.42345 0.0
H3282 H 0.53685 0.57812 0.43707 0.0
H3283 H 0.53806 0.54068 0.43404 0.0
H3284 H 0.17687 0.20228 0.42043 0.0
H3285 H 0.17343 0.16542 0.42434 0.0
H3286 H 0.12663 0.18071 0.45177 0.0
H3287 H 0.12951 0.21772 0.44778 0.0
H3288 H 0.20676 0.14006 0.43864 0.0
H3289 H 0.02954 0.14624 0.44001 0.0
H3290 H 0.06263 0.16662 0.43536 0.0
H3291 H 0.05921 0.16279 0.44773 0.0
C3292 C 0.16678 0.19772 0.42736 0.0
C3293 C 0.15297 0.21263 0.43378 0.0
C3294 C 0.1648 0.17673 0.42959 0.0
C3295 C 0.14896 0.17035 0.43827 0.0
C3296 C 0.13824 0.18533 0.44497 0.0
H3297 H 0.14098 0.03483 0.44625 0.0
H3298 H 0.1474 0.07156 0.45055 0.0
C3299 C 0.14025 0.2064 0.44273 0.0
C3300 C 0.14039 0.14807 0.43986 0.0
H3301 H 0.05897 0.11298 0.44098 0.0
C3302 C 0.17456 0.1341 0.43933 0.0
C3303 C 0.09821 0.1404 0.44065 0.0
C3304 C 0.06014 0.1547 0.44091 0.0
C3305 C 0.1676 0.11263 0.4392 0.0
C3306 C 0.12533 0.10498 0.43975 0.0
C3307 C 0.09131 0.11893 0.44065 0.0
C3308 C 0.11559 0.08282 0.43815 0.0
C3309 C 0.20529 0.09837 0.4379 0.0
C3310 C 0.09352 0.07701 0.43005 0.0
C3311 C 0.08955 0.05617 0.42765 0.0
C3312 C 0.10759 0.04084 0.43333 0.0
C3313 C 0.12692 0.04649 0.44178 0.0
C3314 C 0.13091 0.0674 0.44418 0.0
H3315 H 0.23487 0.10694 0.43607 0.0
H3316 H 0.21119 0.08978 0.44447 0.0
H3317 H 0.19868 0.08688 0.43232 0.0
H3318 H 0.08128 0.08867 0.42532 0.0
H3319 H 0.07437 0.05206 0.42112 0.0
H3320 H 0.68938 0.0496 0.32591 0.0
H3321 H 0.6811 0.08662 0.32256 0.0
H3322 H 0.60112 0.07199 0.29899 0.0
H3323 H 0.60938 0.03487 0.30236 0.0
H3324 H 0.66361 0.10768 0.29688 0.0
H3325 H 0.55756 0.11109 0.32787 0.0
H3326 H 0.60866 0.09924 0.32987 0.0
H3327 H 0.57119 0.0871 0.32213 0.0
C3328 C 0.67096 0.05435 0.31988 0.0
C3329 C 0.64969 0.03961 0.31443 0.0
C3330 C 0.66613 0.0754 0.318 0.0
C3331 C 0.63997 0.08195 0.31062 0.0
C3332 C 0.62133 0.06718 0.30473 0.0
H3333 H 0.54013 0.20842 0.31352 0.0
H3334 H 0.54318 0.17129 0.30974 0.0
C3335 C 0.62616 0.04607 0.30663 0.0
C3336 C 0.6289 0.10409 0.30972 0.0
H3337 H 0.57921 0.14324 0.32139 0.0
C3338 C 0.64479 0.11548 0.30216 0.0
C3339 C 0.60349 0.11404 0.31651 0.0
C3340 C 0.58384 0.10226 0.32452 0.0
C3341 C 0.6378 0.13692 0.30151 0.0
C3342 C 0.61475 0.14712 0.30865 0.0
C3343 C 0.59698 0.13545 0.31593 0.0
C3344 C 0.61223 0.16998 0.3093 0.0
C3345 C 0.65554 0.14848 0.29324 0.0
C3346 C 0.6499 0.18155 0.31018 0.0
C3347 C 0.6481 0.20258 0.31231 0.0
C3348 C 0.60865 0.21242 0.31363 0.0
C3349 C 0.57085 0.20114 0.3124 0.0
C3350 C 0.57262 0.18 0.31028 0.0
H3351 H 0.65878 0.13817 0.28708 0.0
H3352 H 0.63499 0.16182 0.29134 0.0
H3353 H 0.68779 0.1544 0.295 0.0
H3354 H 0.68079 0.17411 0.30971 0.0
H3355 H 0.67765 0.21103 0.31327 0.0
H3356 H 0.10701 0.5342 0.30077 0.0
H3357 H 0.10191 0.5709 0.29637 0.0
H3358 H 0.17125 0.5877 0.32124 0.0
H3359 H 0.17651 0.55113 0.32556 0.0
H3360 H 0.05983 0.59981 0.30732 0.0
H3361 H 0.22672 0.62428 0.30144 0.0
H3362 H 0.21058 0.59743 0.30129 0.0
H3363 H 0.22066 0.61038 0.31219 0.0
C3364 C 0.12215 0.54577 0.30512 0.0
C3365 C 0.14211 0.54006 0.31349 0.0
C3366 C 0.11909 0.56666 0.30264 0.0
C3367 C 0.13652 0.58201 0.30843 0.0
C3368 C 0.15831 0.57612 0.31657 0.0
H3369 H 0.06952 0.70073 0.32615 0.0
H3370 H 0.07191 0.66405 0.32192 0.0
C3371 C 0.16117 0.55529 0.31906 0.0
C3372 C 0.12795 0.60422 0.30666 0.0
H3373 H 0.17703 0.65127 0.30575 0.0
C3374 C 0.08541 0.61106 0.30677 0.0
C3375 C 0.16124 0.61885 0.3058 0.0
C3376 C 0.20734 0.61235 0.30507 0.0
C3377 C 0.07547 0.63223 0.30672 0.0
C3378 C 0.10896 0.64689 0.30667 0.0
C3379 C 0.15133 0.64003 0.30588 0.0
C3380 C 0.10131 0.66918 0.30845 0.0
C3381 C 0.02924 0.63871 0.30697 0.0
C3382 C 0.11662 0.68429 0.30226 0.0
C3383 C 0.1153 0.70525 0.3047 0.0
C3384 C 0.0992 0.71129 0.31341 0.0
C3385 C 0.08193 0.69632 0.31939 0.0
C3386 C 0.08311 0.67542 0.31695 0.0
H3387 H 0.00836 0.6267 0.30382 0.0
H3388 H 0.01921 0.64076 0.31433 0.0
H3389 H 0.02421 0.65355 0.30324 0.0
H3390 H 0.13102 0.67979 0.2957 0.0
H3391 H 0.12899 0.71661 0.30002 0.0
H3392 H 0.41207 0.05232 0.10627 0.0
H3393 H 0.4396 0.07614 0.11799 0.0
H3394 H 0.48985 0.11542 0.09633 0.0
H3395 H 0.46215 0.09157 0.08445 0.0
H3396 H 0.52419 0.09595 0.12184 0.0
H3397 H 0.39498 0.14951 0.11031 0.0
H3398 H 0.39529 0.12252 0.10709 0.0
H3399 H 0.43171 0.14019 0.10163 0.0
C3400 C 0.4296 0.06583 0.10396 0.0
C3401 C 0.43426 0.07024 0.09441 0.0
C3402 C 0.4456 0.07935 0.11069 0.0
C3403 C 0.46638 0.09759 0.10802 0.0
C3404 C 0.47368 0.10142 0.09851 0.0
H3405 H 0.46049 0.20422 0.14449 0.0
H3406 H 0.48536 0.18264 0.1316 0.0
C3407 C 0.45785 0.08779 0.09174 0.0
C3408 C 0.47469 0.11365 0.11515 0.0
H3409 H 0.43192 0.15811 0.12382 0.0
C3410 C 0.50466 0.10978 0.12222 0.0
C3411 C 0.44911 0.13162 0.11561 0.0
C3412 C 0.41574 0.13629 0.10831 0.0
C3413 C 0.50894 0.12323 0.12988 0.0
C3414 C 0.48166 0.14062 0.13059 0.0
C3415 C 0.45302 0.14485 0.12329 0.0
C3416 C 0.47885 0.15374 0.1391 0.0
C3417 C 0.54238 0.11856 0.13714 0.0
C3418 C 0.46913 0.14483 0.14779 0.0
C3419 C 0.45592 0.15726 0.15526 0.0
C3420 C 0.4512 0.17868 0.15404 0.0
C3421 C 0.46387 0.18771 0.14558 0.0
C3422 C 0.47799 0.17538 0.13822 0.0
H3423 H 0.57003 0.11033 0.13401 0.0
H3424 H 0.55405 0.13288 0.14057 0.0
H3425 H 0.52845 0.10827 0.14253 0.0
H3426 H 0.46845 0.12819 0.14862 0.0
H3427 H 0.44574 0.14993 0.16168 0.0
H3428 H 0.83098 0.19904 0.10523 0.0
H3429 H 0.80435 0.17531 0.1171 0.0
H3430 H 0.75611 0.13483 0.09566 0.0
H3431 H 0.78288 0.15857 0.08365 0.0
H3432 H 0.72109 0.15386 0.12115 0.0
H3433 H 0.85484 0.10301 0.10959 0.0
H3434 H 0.85202 0.12993 0.10633 0.0
H3435 H 0.81718 0.11145 0.10092 0.0
C3436 C 0.81392 0.18531 0.10301 0.0
C3437 C 0.80972 0.1805 0.09349 0.0
C3438 C 0.79845 0.17185 0.10982 0.0
C3439 C 0.77869 0.15326 0.10725 0.0
C3440 C 0.77148 0.1491 0.09777 0.0
H3441 H 0.79341 0.04682 0.14369 0.0
H3442 H 0.76738 0.06807 0.13081 0.0
C3443 C 0.78676 0.16268 0.09092 0.0
C3444 C 0.77198 0.13716 0.11444 0.0
H3445 H 0.8188 0.09368 0.12311 0.0
C3446 C 0.74183 0.14045 0.12152 0.0
C3447 C 0.79919 0.11975 0.1149 0.0
C3448 C 0.83286 0.11574 0.10758 0.0
C3449 C 0.73884 0.12695 0.1292 0.0
C3450 C 0.76761 0.11013 0.1299 0.0
C3451 C 0.79656 0.10649 0.12259 0.0
C3452 C 0.77146 0.097 0.13838 0.0
C3453 C 0.7051 0.13095 0.13647 0.0
C3454 C 0.78031 0.10599 0.1471 0.0
C3455 C 0.7942 0.09373 0.15456 0.0
C3456 C 0.80051 0.07241 0.15331 0.0
C3457 C 0.78885 0.06325 0.14481 0.0
C3458 C 0.77404 0.0754 0.13745 0.0
H3459 H 0.67679 0.13867 0.13336 0.0
H3460 H 0.69462 0.1164 0.13989 0.0
H3461 H 0.71824 0.14146 0.14187 0.0
H3462 H 0.77966 0.12263 0.14797 0.0
H3463 H 0.80353 0.10116 0.16102 0.0
H3464 H 0.60994 0.81011 0.85625 0.0
H3465 H 0.5814 0.83239 0.86822 0.0
H3466 H 0.48514 0.85458 0.84918 0.0
H3467 H 0.51514 0.83259 0.83682 0.0
H3468 H 0.51869 0.8857 0.85742 0.0
H3469 H 0.48374 0.83091 0.88539 0.0
H3470 H 0.53711 0.82558 0.8817 0.0
H3471 H 0.4934 0.82224 0.87361 0.0
C3472 C 0.58225 0.81942 0.85457 0.0
C3473 C 0.56492 0.81952 0.84552 0.0
C3474 C 0.56548 0.83203 0.86152 0.0
C3475 C 0.53021 0.8448 0.85975 0.0
C3476 C 0.51202 0.84466 0.85077 0.0
H3477 H 0.51664 0.91889 0.91106 0.0
H3478 H 0.48542 0.89757 0.8986 0.0
C3479 C 0.52922 0.83211 0.84371 0.0
C3480 C 0.51683 0.85996 0.86699 0.0
H3481 H 0.5142 0.86475 0.89066 0.0
C3482 C 0.5163 0.88106 0.86466 0.0
C3483 C 0.51174 0.85418 0.87645 0.0
C3484 C 0.50598 0.83194 0.87938 0.0
C3485 C 0.51644 0.89637 0.87161 0.0
C3486 C 0.51903 0.8904 0.88109 0.0
C3487 C 0.51381 0.86944 0.8834 0.0
C3488 C 0.53421 0.90492 0.88843 0.0
C3489 C 0.51575 0.91876 0.86866 0.0
C3490 C 0.57213 0.91597 0.88693 0.0
C3491 C 0.58964 0.92819 0.89394 0.0
C3492 C 0.57032 0.92939 0.90277 0.0
C3493 C 0.53228 0.91834 0.90433 0.0
C3494 C 0.51437 0.90619 0.89721 0.0
H3495 H 0.49494 0.92085 0.86246 0.0
H3496 H 0.50416 0.92903 0.87432 0.0
H3497 H 0.54843 0.92361 0.86662 0.0
H3498 H 0.58923 0.91463 0.8804 0.0
H3499 H 0.61921 0.93624 0.89247 0.0
H3500 H 0.19455 0.95575 0.85183 0.0
H3501 H 0.21922 0.93418 0.86473 0.0
H3502 H 0.20561 0.87987 0.84746 0.0
H3503 H 0.18324 0.90164 0.83439 0.0
H3504 H 0.16755 0.90892 0.87246 0.0
H3505 H 0.30765 0.86284 0.86194 0.0
H3506 H 0.29036 0.88524 0.85544 0.0
H3507 H 0.26585 0.86036 0.8535 0.0
C3508 C 0.19855 0.93929 0.8507 0.0
C3509 C 0.18706 0.93031 0.84215 0.0
C3510 C 0.21254 0.92695 0.85807 0.0
C3511 C 0.21441 0.90534 0.85711 0.0
C3512 C 0.20556 0.8965 0.84835 0.0
H3513 H 0.15462 0.80319 0.89046 0.0
H3514 H 0.17906 0.82724 0.8785 0.0
C3515 C 0.19254 0.90894 0.84088 0.0
C3516 C 0.21793 0.8921 0.86557 0.0
H3517 H 0.2633 0.84797 0.8742 0.0
C3518 C 0.18937 0.89593 0.87292 0.0
C3519 C 0.24614 0.87503 0.8662 0.0
C3520 C 0.2795 0.87078 0.85888 0.0
C3521 C 0.18662 0.88266 0.88062 0.0
C3522 C 0.21325 0.86505 0.88102 0.0
C3523 C 0.24298 0.86154 0.87387 0.0
C3524 C 0.20655 0.84902 0.88823 0.0
C3525 C 0.15351 0.88692 0.88803 0.0
C3526 C 0.21526 0.85299 0.89767 0.0
C3527 C 0.2013 0.83922 0.90457 0.0
C3528 C 0.17812 0.82139 0.90211 0.0
C3529 C 0.17193 0.8169 0.89261 0.0
C3530 C 0.18613 0.83055 0.88574 0.0
H3531 H 0.13204 0.89993 0.88612 0.0
H3532 H 0.13377 0.87292 0.88927 0.0
H3533 H 0.16969 0.8909 0.89467 0.0
H3534 H 0.23113 0.86718 0.89971 0.0
H3535 H 0.20667 0.84309 0.91182 0.0
H3536 H 0.4142 0.55162 0.60536 0.0
H3537 H 0.43872 0.57522 0.61752 0.0
H3538 H 0.49053 0.616 0.59662 0.0
H3539 H 0.46609 0.5924 0.58433 0.0
H3540 H 0.52391 0.5968 0.62182 0.0
H3541 H 0.38909 0.64726 0.61055 0.0
H3542 H 0.39181 0.62026 0.6074 0.0
H3543 H 0.42622 0.63864 0.6018 0.0
C3544 C 0.43159 0.56539 0.60333 0.0
C3545 C 0.43762 0.57028 0.59386 0.0
C3546 C 0.44581 0.57879 0.61031 0.0
C3547 C 0.46611 0.59738 0.60796 0.0
C3548 C 0.47482 0.6017 0.59856 0.0
H3549 H 0.45707 0.70528 0.64367 0.0
H3550 H 0.47982 0.68291 0.63088 0.0
C3551 C 0.46084 0.58819 0.59155 0.0
C3552 C 0.47241 0.61332 0.61525 0.0
H3553 H 0.42631 0.65702 0.6239 0.0
C3554 C 0.50309 0.61017 0.62224 0.0
C3555 C 0.44511 0.63067 0.61576 0.0
C3556 C 0.41098 0.6345 0.60853 0.0
C3557 C 0.5068 0.6239 0.62982 0.0
C3558 C 0.47823 0.64081 0.63054 0.0
C3559 C 0.44843 0.64416 0.62337 0.0
C3560 C 0.47594 0.65454 0.63886 0.0
C3561 C 0.54125 0.62012 0.63696 0.0
C3562 C 0.46831 0.64624 0.64777 0.0
C3563 C 0.45629 0.65914 0.65518 0.0
C3564 C 0.45067 0.68044 0.6537 0.0
C3565 C 0.46115 0.68889 0.64498 0.0
C3566 C 0.47404 0.6761 0.63766 0.0
H3567 H 0.56898 0.612 0.63381 0.0
H3568 H 0.55253 0.63482 0.64013 0.0
H3569 H 0.52841 0.61009 0.64257 0.0
H3570 H 0.46849 0.62966 0.64886 0.0
H3571 H 0.4478 0.65221 0.6618 0.0
H3572 H 0.83956 0.70025 0.60571 0.0
H3573 H 0.8129 0.67633 0.61751 0.0
H3574 H 0.7646 0.63622 0.59594 0.0
H3575 H 0.79133 0.66013 0.58401 0.0
H3576 H 0.72865 0.65491 0.6213 0.0
H3577 H 0.86293 0.60408 0.61004 0.0
H3578 H 0.86058 0.6311 0.60692 0.0
H3579 H 0.82613 0.61282 0.60126 0.0
C3580 C 0.8225 0.68656 0.60345 0.0
C3581 C 0.81821 0.68192 0.59391 0.0
C3582 C 0.80703 0.67297 0.61022 0.0
C3583 C 0.78718 0.65445 0.60759 0.0
C3584 C 0.78002 0.65044 0.59809 0.0
H3585 H 0.79585 0.54646 0.64322 0.0
H3586 H 0.77208 0.56855 0.63041 0.0
C3587 C 0.79529 0.66412 0.59129 0.0
C3588 C 0.77998 0.63827 0.61472 0.0
H3589 H 0.82521 0.5943 0.6233 0.0
C3590 C 0.74919 0.64143 0.62169 0.0
C3591 C 0.80692 0.62078 0.6152 0.0
C3592 C 0.84123 0.61691 0.60801 0.0
C3593 C 0.74517 0.62765 0.62924 0.0
C3594 C 0.77353 0.61066 0.62994 0.0
C3595 C 0.80326 0.60722 0.62277 0.0
C3596 C 0.77598 0.59706 0.6383 0.0
C3597 C 0.71072 0.6315 0.63637 0.0
C3598 C 0.7839 0.60553 0.64718 0.0
C3599 C 0.79649 0.59279 0.65458 0.0
C3600 C 0.80241 0.57149 0.65315 0.0
C3601 C 0.79156 0.56286 0.64449 0.0
C3602 C 0.77807 0.57549 0.63717 0.0
H3603 H 0.68298 0.63956 0.63319 0.0
H3604 H 0.69947 0.61685 0.63958 0.0
H3605 H 0.72353 0.64164 0.64195 0.0
H3606 H 0.78359 0.62211 0.64822 0.0
H3607 H 0.80524 0.59984 0.66116 0.0
H3608 H 0.56687 0.29997 0.35586 0.0
H3609 H 0.54519 0.32453 0.36789 0.0
H3610 H 0.52017 0.37048 0.34682 0.0
H3611 H 0.54145 0.34584 0.33467 0.0
H3612 H 0.58608 0.37964 0.36059 0.0
H3613 H 0.43435 0.35485 0.37714 0.0
H3614 H 0.47233 0.33457 0.37492 0.0
H3615 H 0.44847 0.34806 0.36531 0.0
C3616 C 0.55544 0.31508 0.35375 0.0
C3617 C 0.55622 0.32104 0.34432 0.0
C3618 C 0.54275 0.32905 0.36064 0.0
C3619 C 0.53083 0.34927 0.35824 0.0
C3620 C 0.52884 0.35485 0.34879 0.0
H3621 H 0.5631 0.45657 0.39454 0.0
H3622 H 0.53974 0.43545 0.38134 0.0
C3623 C 0.54098 0.34076 0.34186 0.0
C3624 C 0.52861 0.3653 0.3656 0.0
H3625 H 0.47735 0.37877 0.38572 0.0
C3626 C 0.56186 0.37976 0.366 0.0
C3627 C 0.49745 0.36505 0.37272 0.0
C3628 C 0.46087 0.34991 0.37251 0.0
C3629 C 0.56602 0.39343 0.37353 0.0
C3630 C 0.53496 0.39321 0.38072 0.0
C3631 C 0.50095 0.37906 0.38019 0.0
C3632 C 0.53921 0.40668 0.38907 0.0
C3633 C 0.60515 0.40708 0.37394 0.0
C3634 C 0.54297 0.39786 0.39799 0.0
C3635 C 0.55496 0.41007 0.40562 0.0
C3636 C 0.56394 0.43118 0.4044 0.0
C3637 C 0.55689 0.44026 0.39563 0.0
C3638 C 0.54387 0.42818 0.38808 0.0
H3639 H 0.63097 0.40133 0.3693 0.0
H3640 H 0.59661 0.4229 0.37159 0.0
H3641 H 0.61792 0.40805 0.38114 0.0
H3642 H 0.53919 0.38133 0.39894 0.0
H3643 H 0.56025 0.4027 0.41231 0.0
H3644 H 0.16646 0.30086 0.39235 0.0
H3645 H 0.1889 0.32452 0.38002 0.0
H3646 H 0.22599 0.36954 0.40066 0.0
H3647 H 0.20394 0.34581 0.41311 0.0
H3648 H 0.16013 0.38147 0.38724 0.0
H3649 H 0.30417 0.34934 0.36997 0.0
H3650 H 0.26255 0.33101 0.37251 0.0
H3651 H 0.29023 0.34349 0.38192 0.0
C3652 C 0.18043 0.31558 0.39429 0.0
C3653 C 0.18309 0.32154 0.40371 0.0
C3654 C 0.19357 0.32902 0.38723 0.0
C3655 C 0.20943 0.3487 0.38944 0.0
C3656 C 0.21426 0.35431 0.39883 0.0
H3657 H 0.19455 0.45669 0.35317 0.0
H3658 H 0.21625 0.43457 0.36617 0.0
C3659 C 0.20163 0.34074 0.40593 0.0
C3660 C 0.21381 0.36439 0.38198 0.0
H3661 H 0.26544 0.37516 0.36157 0.0
C3662 C 0.18364 0.38036 0.38171 0.0
C3663 C 0.24402 0.36258 0.37471 0.0
C3664 C 0.27736 0.34578 0.37478 0.0
C3665 C 0.18155 0.39411 0.37417 0.0
C3666 C 0.21168 0.39235 0.36684 0.0
C3667 C 0.24262 0.37662 0.36722 0.0
C3668 C 0.20936 0.40592 0.35849 0.0
C3669 C 0.14544 0.4096 0.37393 0.0
C3670 C 0.20217 0.39732 0.34963 0.0
C3671 C 0.19117 0.41003 0.34209 0.0
C3672 C 0.18665 0.43146 0.34338 0.0
C3673 C 0.19745 0.44017 0.35204 0.0
C3674 C 0.20948 0.42754 0.35948 0.0
H3675 H 0.1191 0.40522 0.37872 0.0
H3676 H 0.15751 0.42496 0.37616 0.0
H3677 H 0.1321 0.41109 0.36679 0.0
H3678 H 0.20224 0.38069 0.34868 0.0
H3679 H 0.18279 0.40295 0.3355 0.0
H3680 H 0.94636 0.09972 0.58537 0.0
H3681 H 0.96875 0.12153 0.59842 0.0
H3682 H 0.97309 0.06784 0.61628 0.0
H3683 H 0.94856 0.04626 0.60337 0.0
H3684 H 0.92246 0.09489 0.62322 0.0
H3685 H 0.07003 0.13647 0.61375 0.0
H3686 H 0.03028 0.13958 0.60489 0.0
H3687 H 0.05147 0.11422 0.60731 0.0
C3688 C 0.95359 0.09251 0.592 0.0
C3689 C 0.94549 0.07137 0.5934 0.0
C3690 C 0.96664 0.10498 0.59946 0.0
C3691 C 0.97288 0.09637 0.60837 0.0
C3692 C 0.96843 0.07488 0.60951 0.0
H3693 H 0.9645 0.15902 0.66277 0.0
H3694 H 0.98923 0.13507 0.65064 0.0
C3695 C 0.95448 0.06255 0.60212 0.0
C3696 C 0.97624 0.10992 0.61673 0.0
H3697 H 0.02551 0.15291 0.62555 0.0
C3698 C 0.94577 0.10723 0.62382 0.0
C3699 C 0.0064 0.12616 0.61753 0.0
C3700 C 0.04164 0.12913 0.6105 0.0
C3701 C 0.94329 0.1208 0.63141 0.0
C3702 C 0.9721 0.13756 0.63197 0.0
C3703 C 0.00352 0.13999 0.62509 0.0
C3704 C 0.96647 0.15374 0.63917 0.0
C3705 C 0.90841 0.11775 0.63854 0.0
C3706 C 0.9471 0.17248 0.63668 0.0
C3707 C 0.93268 0.18607 0.64356 0.0
C3708 C 0.9376 0.18121 0.65306 0.0
C3709 C 0.96013 0.16319 0.65552 0.0
C3710 C 0.97429 0.1495 0.64861 0.0
H3711 H 0.88578 0.10529 0.63653 0.0
H3712 H 0.92287 0.11359 0.64535 0.0
H3713 H 0.89018 0.13233 0.63952 0.0
H3714 H 0.9407 0.17599 0.62943 0.0
H3715 H 0.91586 0.19992 0.64142 0.0
H3716 H 0.30331 0.15461 0.58518 0.0
H3717 H 0.28226 0.13301 0.5984 0.0
H3718 H 0.28155 0.18684 0.61622 0.0
H3719 H 0.30473 0.20821 0.60313 0.0
H3720 H 0.33188 0.15946 0.62296 0.0
H3721 H 0.18214 0.11896 0.61422 0.0
H3722 H 0.22083 0.11548 0.60516 0.0
H3723 H 0.20077 0.14103 0.60767 0.0
C3724 C 0.29725 0.1619 0.59185 0.0
C3725 C 0.30593 0.18301 0.59317 0.0
C3726 C 0.28494 0.14956 0.59941 0.0
C3727 C 0.28001 0.15827 0.60834 0.0
C3728 C 0.28519 0.17972 0.60943 0.0
H3729 H 0.29312 0.09468 0.66255 0.0
H3730 H 0.26806 0.11932 0.65074 0.0
C3731 C 0.29841 0.19193 0.60194 0.0
C3732 C 0.27705 0.14479 0.61673 0.0
H3733 H 0.22752 0.10211 0.62575 0.0
C3734 C 0.30829 0.14728 0.62367 0.0
C3735 C 0.24649 0.12877 0.61767 0.0
C3736 C 0.21043 0.12605 0.61082 0.0
C3737 C 0.31119 0.13366 0.63123 0.0
C3738 C 0.28202 0.11707 0.63192 0.0
C3739 C 0.24979 0.1149 0.62519 0.0
C3740 C 0.28816 0.10071 0.639 0.0
C3741 C 0.34693 0.13645 0.63819 0.0
C3742 C 0.30617 0.08182 0.63628 0.0
C3743 C 0.32075 0.06784 0.64297 0.0
C3744 C 0.31736 0.07245 0.65253 0.0
C3745 C 0.29629 0.0907 0.65525 0.0
C3746 C 0.28197 0.10479 0.64852 0.0
H3747 H 0.36965 0.14878 0.63608 0.0
H3748 H 0.33333 0.14064 0.64507 0.0
H3749 H 0.36488 0.12175 0.63904 0.0
H3750 H 0.31129 0.07843 0.62896 0.0
H3751 H 0.3364 0.05382 0.64064 0.0
H3752 H 0.08387 0.79986 0.35506 0.0
H3753 H 0.06157 0.8239 0.36725 0.0
H3754 H 0.02517 0.86846 0.34636 0.0
H3755 H 0.0471 0.84435 0.33406 0.0
H3756 H 0.09109 0.88058 0.35973 0.0
H3757 H 0.9467 0.84929 0.37717 0.0
H3758 H 0.98816 0.8308 0.37475 0.0
H3759 H 0.96061 0.84304 0.36526 0.0
C3760 C 0.07005 0.81455 0.35304 0.0
C3761 C 0.06757 0.82027 0.34359 0.0
C3762 C 0.057 0.82821 0.36002 0.0
C3763 C 0.04141 0.84787 0.35771 0.0
C3764 C 0.0367 0.85324 0.34828 0.0
H3765 H 0.05716 0.9569 0.39339 0.0
H3766 H 0.03572 0.93446 0.38048 0.0
C3767 C 0.04924 0.83945 0.34126 0.0
C3768 C 0.03721 0.86378 0.36508 0.0
H3769 H 0.98564 0.87528 0.38541 0.0
C3770 C 0.06755 0.8797 0.36526 0.0
C3771 C 0.00698 0.86226 0.37236 0.0
C3772 C 0.97349 0.84552 0.37239 0.0
C3773 C 0.06977 0.89366 0.37272 0.0
C3774 C 0.03959 0.89219 0.38006 0.0
C3775 C 0.00849 0.87652 0.37977 0.0
C3776 C 0.04198 0.90602 0.38833 0.0
C3777 C 0.10606 0.90906 0.37289 0.0
C3778 C 0.04874 0.89766 0.39725 0.0
C3779 C 0.05959 0.91056 0.40474 0.0
C3780 C 0.06438 0.93194 0.40334 0.0
C3781 C 0.05407 0.94043 0.39461 0.0
C3782 C 0.04219 0.9276 0.38722 0.0
H3783 H 0.1324 0.90445 0.36813 0.0
H3784 H 0.09419 0.92438 0.37054 0.0
H3785 H 0.11933 0.91076 0.38002 0.0
H3786 H 0.04841 0.88106 0.3983 0.0
H3787 H 0.06757 0.90365 0.41139 0.0
H3788 H 0.71187 0.9077 0.33384 0.0
H3789 H 0.73673 0.88322 0.34573 0.0
H3790 H 0.68921 0.92342 0.36734 0.0
H3791 H 0.66429 0.94787 0.35558 0.0
H3792 H 0.77377 0.90091 0.37094 0.0
H3793 H 0.63583 0.85218 0.35988 0.0
H3794 H 0.67251 0.86088 0.35106 0.0
H3795 H 0.63923 0.87928 0.35695 0.0
C3796 C 0.70765 0.91157 0.34112 0.0
C3797 C 0.6855 0.92958 0.34376 0.0
C3798 C 0.72187 0.89757 0.3479 0.0
C3799 C 0.71447 0.90149 0.35739 0.0
C3800 C 0.69527 0.92015 0.36005 0.0
H3801 H 0.69754 0.84666 0.411 0.0
H3802 H 0.71902 0.8687 0.39797 0.0
C3803 C 0.6808 0.93404 0.35331 0.0
C3804 C 0.72093 0.88516 0.36449 0.0
H3805 H 0.67323 0.84185 0.37311 0.0
C3806 C 0.75234 0.88776 0.37137 0.0
C3807 C 0.69286 0.8681 0.365 0.0
C3808 C 0.65799 0.86485 0.35788 0.0
C3809 C 0.75591 0.87384 0.37887 0.0
C3810 C 0.72644 0.8573 0.37963 0.0
C3811 C 0.69602 0.85442 0.37254 0.0
C3812 C 0.72364 0.84365 0.38797 0.0
C3813 C 0.79111 0.87706 0.38589 0.0
C3814 C 0.71978 0.82214 0.3868 0.0
C3815 C 0.70632 0.80966 0.39418 0.0
C3816 C 0.6973 0.81836 0.40293 0.0
C3817 C 0.70488 0.83954 0.40435 0.0
C3818 C 0.71739 0.85214 0.3969 0.0
H3819 H 0.81922 0.88463 0.38262 0.0
H3820 H 0.77948 0.88741 0.39151 0.0
H3821 H 0.80148 0.86221 0.38906 0.0
H3822 H 0.72447 0.81517 0.38 0.0
H3823 H 0.70073 0.79335 0.39291 0.0
H3824 H 0.94174 0.65479 0.16006 0.0
H3825 H 0.96454 0.63287 0.14707 0.0
H3826 H 0.97129 0.68658 0.12925 0.0
H3827 H 0.94634 0.70825 0.14209 0.0
H3828 H 0.9209 0.65967 0.12209 0.0
H3829 H 0.06717 0.61774 0.13219 0.0
H3830 H 0.02653 0.61475 0.14087 0.0
H3831 H 0.04827 0.64006 0.13855 0.0
C3832 C 0.94951 0.66195 0.15345 0.0
C3833 C 0.94205 0.68313 0.15203 0.0
C3834 C 0.96281 0.64944 0.14602 0.0
C3835 C 0.96995 0.65805 0.13715 0.0
C3836 C 0.96595 0.67954 0.136 0.0
H3837 H 0.96031 0.59464 0.08287 0.0
H3838 H 0.98539 0.61922 0.09471 0.0
C3839 C 0.95173 0.69192 0.14334 0.0
C3840 C 0.97395 0.64453 0.1288 0.0
H3841 H 0.02363 0.60147 0.12019 0.0
C3842 C 0.94416 0.64729 0.12158 0.0
C3843 C 0.00405 0.62825 0.12813 0.0
C3844 C 0.03856 0.62517 0.13532 0.0
C3845 C 0.94216 0.63372 0.11399 0.0
C3846 C 0.97091 0.61691 0.11353 0.0
C3847 C 0.00174 0.61445 0.12055 0.0
C3848 C 0.96539 0.60052 0.10643 0.0
C3849 C 0.90767 0.63678 0.10676 0.0
C3850 C 0.94774 0.58153 0.10913 0.0
C3851 C 0.93325 0.56758 0.10242 0.0
C3852 C 0.93635 0.5723 0.09287 0.0
C3853 C 0.95732 0.59059 0.09017 0.0
C3854 C 0.97162 0.60465 0.09692 0.0
H3855 H 0.88455 0.64901 0.10879 0.0
H3856 H 0.92247 0.64132 0.10004 0.0
H3857 H 0.88989 0.62213 0.10561 0.0
H3858 H 0.94265 0.57808 0.11644 0.0
H3859 H 0.91774 0.55351 0.10474 0.0
H3860 H 0.33727 0.55042 0.14116 0.0
H3861 H 0.31088 0.57416 0.12927 0.0
H3862 H 0.26145 0.6144 0.15066 0.0
H3863 H 0.28794 0.59066 0.16269 0.0
H3864 H 0.227 0.59547 0.12522 0.0
H3865 H 0.36053 0.64643 0.1368 0.0
H3866 H 0.35794 0.61946 0.13999 0.0
H3867 H 0.32311 0.6378 0.14548 0.0
C3868 C 0.32001 0.56409 0.14336 0.0
C3869 C 0.31537 0.56884 0.15288 0.0
C3870 C 0.30468 0.57757 0.13654 0.0
C3871 C 0.28463 0.59608 0.1391 0.0
C3872 C 0.27704 0.60018 0.14857 0.0
H3873 H 0.2952 0.70367 0.10326 0.0
H3874 H 0.27133 0.68166 0.11608 0.0
C3875 C 0.29217 0.5866 0.15542 0.0
C3876 C 0.27785 0.6122 0.13193 0.0
H3877 H 0.32381 0.65603 0.12339 0.0
C3878 C 0.24758 0.60894 0.12487 0.0
C3879 C 0.30487 0.62968 0.1315 0.0
C3880 C 0.33867 0.63363 0.13879 0.0
C3881 C 0.24414 0.62261 0.11726 0.0
C3882 C 0.27258 0.63958 0.11661 0.0
C3883 C 0.3018 0.64312 0.12388 0.0
C3884 C 0.27558 0.65309 0.10824 0.0
C3885 C 0.21022 0.61865 0.11002 0.0
C3886 C 0.28387 0.64454 0.0994 0.0
C3887 C 0.29648 0.65724 0.09198 0.0
C3888 C 0.30208 0.67856 0.09338 0.0
C3889 C 0.29116 0.68724 0.10203 0.0
C3890 C 0.27759 0.67466 0.10935 0.0
H3891 H 0.18225 0.61064 0.11313 0.0
H3892 H 0.19922 0.63325 0.10673 0.0
H3893 H 0.22344 0.60843 0.10452 0.0
H3894 H 0.28368 0.62794 0.09839 0.0
H3895 H 0.30529 0.65017 0.08541 0.0
H3896 H 0.03717 0.33888 0.83345 0.0
H3897 H 0.01293 0.36143 0.84613 0.0
H3898 H 0.07547 0.32206 0.86615 0.0
H3899 H 0.09991 0.29948 0.85359 0.0
H3900 H 0.9871 0.34101 0.87129 0.0
H3901 H 0.11432 0.39518 0.85931 0.0
H3902 H 0.07721 0.38544 0.85079 0.0
H3903 H 0.11455 0.36814 0.85617 0.0
C3904 C 0.04497 0.33475 0.84057 0.0
C3905 C 0.07104 0.31754 0.84249 0.0
C3906 C 0.03103 0.34764 0.8478 0.0
C3907 C 0.04265 0.34341 0.85705 0.0
C3908 C 0.0661 0.32551 0.85905 0.0
H3909 H 0.06056 0.39868 0.91093 0.0
H3910 H 0.04152 0.37543 0.89811 0.0
C3911 C 0.08026 0.31271 0.85185 0.0
C3912 C 0.03581 0.35894 0.86447 0.0
H3913 H 0.07793 0.40374 0.87293 0.0
C3914 C 0.00644 0.35491 0.87163 0.0
C3915 C 0.06118 0.37698 0.86486 0.0
C3916 C 0.09381 0.38179 0.85742 0.0
C3917 C 0.00208 0.36846 0.87925 0.0
C3918 C 0.0287 0.38614 0.87982 0.0
C3919 C 0.05727 0.39031 0.87251 0.0
C3920 C 0.03015 0.39996 0.88811 0.0
C3921 C 0.96899 0.36372 0.88658 0.0
C3922 C 0.02937 0.42152 0.88687 0.0
C3923 C 0.04142 0.43472 0.8941 0.0
C3924 C 0.05358 0.42666 0.90279 0.0
C3925 C 0.05069 0.40526 0.90433 0.0
C3926 C 0.0396 0.39197 0.897 0.0
H3927 H 0.94195 0.3548 0.88358 0.0
H3928 H 0.98369 0.35409 0.89212 0.0
H3929 H 0.9563 0.37807 0.88981 0.0
H3930 H 0.02215 0.42809 0.8801 0.0
H3931 H 0.04344 0.45119 0.89276 0.0
H3932 H 0.69006 0.45622 0.85345 0.0
H3933 H 0.71557 0.43499 0.86638 0.0
H3934 H 0.71485 0.38127 0.84849 0.0
H3935 H 0.6914 0.40281 0.83541 0.0
H3936 H 0.6674 0.40686 0.87338 0.0
H3937 H 0.8184 0.36856 0.86359 0.0
H3938 H 0.79752 0.39044 0.85722 0.0
H3939 H 0.77829 0.36468 0.85485 0.0
C3940 C 0.69676 0.44 0.85222 0.0
C3941 C 0.68867 0.4311 0.84346 0.0
C3942 C 0.71134 0.42788 0.8596 0.0
C3943 C 0.71732 0.40649 0.85845 0.0
C3944 C 0.71157 0.39778 0.84954 0.0
H3945 H 0.67516 0.30155 0.89138 0.0
H3946 H 0.69904 0.32602 0.87954 0.0
C3947 C 0.69788 0.41007 0.84207 0.0
C3948 C 0.72233 0.39307 0.8668 0.0
H3949 H 0.77672 0.35162 0.87566 0.0
C3950 C 0.69203 0.39514 0.87396 0.0
C3951 C 0.75421 0.37763 0.86758 0.0
C3952 C 0.78918 0.37534 0.86043 0.0
C3953 C 0.69142 0.3817 0.88162 0.0
C3954 C 0.72216 0.36575 0.8822 0.0
C3955 C 0.75335 0.36396 0.87521 0.0
C3956 C 0.71851 0.34947 0.88941 0.0
C3957 C 0.65638 0.38396 0.88878 0.0
C3958 C 0.72359 0.35417 0.89891 0.0
C3959 C 0.7099 0.34016 0.90574 0.0
C3960 C 0.69071 0.32136 0.90313 0.0
C3961 C 0.6893 0.31602 0.89362 0.0
C3962 C 0.70318 0.32993 0.88683 0.0
H3963 H 0.63172 0.39535 0.88662 0.0
H3964 H 0.64057 0.36884 0.89004 0.0
H3965 H 0.67035 0.38926 0.89547 0.0
H3966 H 0.73561 0.36917 0.90102 0.0
H3967 H 0.71151 0.3447 0.913 0.0
loop_
_geom_bond_atom_site_label_1
_geom_bond_atom_site_label_2
_geom_bond_distance
_geom_bond_site_symmetry_2
_ccdc_geom_bond_type
Co0 O3 1.970 . S
Co0 N17 1.989 . S
Co0 O25 1.967 . S
Co0 O32 1.920 . S
Co1 O4 1.966 . S
Co1 N10 2.022 . S
Co1 N18 1.993 . S
Co1 O26 1.941 . S
C2 O3 1.258 . S
C2 O4 1.263 . S
O3 Co0 1.970 . S
O3 C2 1.258 . S
O4 Co1 1.966 . S
O4 C2 1.263 . S
C5 O6 1.235 . S
C5 O32 1.289 . S
O6 C5 1.235 . S
C7 C9 1.400 . S
C7 N10 1.351 . S
C7 C12 1.501 . S
C8 C9 1.387 . S
C8 N11 1.341 . S
C9 C7 1.400 . S
C9 C8 1.387 . S
N10 Co1 2.022 . S
N10 C7 1.351 . S
N10 N11 1.365 . S
N11 C8 1.341 . S
N11 N10 1.365 . S
N11 H31 0.862 . S
C12 C7 1.501 . S
C12 H13 0.961 . S
C12 H14 0.961 . S
C12 H15 0.960 . S
H13 C12 0.961 . S
H14 C12 0.961 . S
H15 C12 0.960 . S
C16 N17 1.342 1_565 S
C16 C20 1.401 . S
C16 C21 1.499 . S
N17 Co0 1.989 . S
N17 C16 1.342 1_545 S
N17 N18 1.388 . S
N18 Co1 1.993 . S
N18 N17 1.388 . S
N18 C19 1.346 1_545 S
C19 N18 1.346 1_565 S
C19 C20 1.396 . S
C19 C29 1.510 . S
C20 C16 1.401 . S
C20 C19 1.396 . S
C21 C16 1.499 . S
C21 H22 0.959 . S
C21 H23 0.960 . S
C21 H24 0.961 . S
H22 C21 0.959 . S
H23 C21 0.960 . S
H24 C21 0.961 . S
O25 Co0 1.967 . S
O25 C33 1.258 . S
O26 Co1 1.941 . S
O26 C33 1.266 . S
H27 C29 0.959 . S
H28 C29 0.961 . S
C29 C19 1.510 . S
C29 H27 0.959 . S
C29 H28 0.961 . S
C29 H30 0.958 1_565 S
H30 C29 0.958 1_545 S
H31 N11 0.862 . S
O32 Co0 1.920 . S
O32 C5 1.289 . S
C33 O25 1.258 . S
C33 O26 1.266 . S
Co34 O37 1.970 . S
Co34 N51 1.989 . S
Co34 O59 1.967 . S
Co34 O66 1.920 . S
Co35 O38 1.966 . S
Co35 N44 2.022 . S
Co35 N52 1.993 . S
Co35 O60 1.941 . S
C36 O37 1.258 . S
C36 O38 1.263 . S
O37 Co34 1.970 . S
O37 C36 1.258 . S
O38 Co35 1.966 . S
O38 C36 1.263 . S
C39 O40 1.235 1_655 S
C39 O66 1.289 . S
O40 C39 1.235 1_455 S
C41 C43 1.400 . S
C41 N44 1.351 . S
C41 C46 1.501 . S
C42 C43 1.387 . S
C42 N45 1.341 . S
C43 C41 1.400 . S
C43 C42 1.387 . S
N44 Co35 2.022 . S
N44 C41 1.351 . S
N44 N45 1.365 . S
N45 C42 1.341 . S
N45 N44 1.365 . S
N45 H65 0.862 . S
C46 C41 1.501 . S
C46 H47 0.961 . S
C46 H48 0.961 . S
C46 H49 0.960 . S
H47 C46 0.961 . S
H48 C46 0.961 . S
H49 C46 0.960 . S
C50 N51 1.342 . S
C50 C54 1.401 . S
C50 C55 1.499 . S
N51 Co34 1.989 . S
N51 C50 1.342 . S
N51 N52 1.388 . S
N52 Co35 1.993 . S
N52 N51 1.388 . S
N52 C53 1.346 . S
C53 N52 1.346 . S
C53 C54 1.396 . S
C53 C63 1.510 . S
C54 C50 1.401 . S
C54 C53 1.396 . S
C55 C50 1.499 . S
C55 H56 0.959 . S
C55 H57 0.960 . S
C55 H58 0.961 . S
H56 C55 0.959 . S
H57 C55 0.960 . S
H58 C55 0.961 . S
O59 Co34 1.967 . S
O59 C67 1.258 . S
O60 Co35 1.941 . S
O60 C67 1.266 . S
H61 C63 0.959 . S
H62 C63 0.961 . S
C63 C53 1.510 . S
C63 H61 0.959 . S
C63 H62 0.961 . S
C63 H64 0.960 . S
H64 C63 0.960 . S
H65 N45 0.862 . S
O66 Co34 1.920 . S
O66 C39 1.289 . S
C67 O59 1.258 . S
C67 O60 1.266 . S
Co68 O71 1.970 . S
Co68 N85 1.989 . S
Co68 O93 1.967 . S
Co68 O100 1.920 . S
Co69 O72 1.966 . S
Co69 N78 2.022 . S
Co69 N86 1.993 . S
Co69 O94 1.941 . S
C70 O71 1.258 . S
C70 O72 1.263 . S
O71 Co68 1.970 . S
O71 C70 1.258 . S
O72 Co69 1.966 . S
O72 C70 1.263 . S
C73 O74 1.235 . S
C73 O100 1.289 . S
O74 C73 1.235 . S
C75 C77 1.400 . S
C75 N78 1.351 . S
C75 C80 1.501 . S
C76 C77 1.387 . S
C76 N79 1.341 . S
C77 C75 1.400 . S
C77 C76 1.387 . S
N78 Co69 2.022 . S
N78 C75 1.351 . S
N78 N79 1.365 . S
N79 C76 1.341 . S
N79 N78 1.365 . S
N79 H99 0.862 . S
C80 C75 1.501 . S
C80 H81 0.961 . S
C80 H82 0.961 . S
C80 H83 0.960 . S
H81 C80 0.961 . S
H82 C80 0.961 . S
H83 C80 0.960 . S
C84 N85 1.342 . S
C84 C88 1.401 . S
C84 C89 1.499 . S
N85 Co68 1.989 . S
N85 C84 1.342 . S
N85 N86 1.388 . S
N86 Co69 1.993 . S
N86 N85 1.388 . S
N86 C87 1.346 . S
C87 N86 1.346 . S
C87 C88 1.396 . S
C87 C97 1.510 . S
C88 C84 1.401 . S
C88 C87 1.396 . S
C89 C84 1.499 . S
C89 H90 0.959 . S
C89 H91 0.960 . S
C89 H92 0.961 . S
H90 C89 0.959 . S
H91 C89 0.960 . S
H92 C89 0.961 . S
O93 Co68 1.967 . S
O93 C101 1.258 . S
O94 Co69 1.941 . S
O94 C101 1.266 . S
H95 C97 0.959 . S
H96 C97 0.961 . S
C97 C87 1.510 . S
C97 H95 0.959 . S
C97 H96 0.961 . S
C97 H98 0.960 . S
H98 C97 0.960 . S
H99 N79 0.862 . S
O100 Co68 1.920 . S
O100 C73 1.289 . S
C101 O93 1.258 . S
C101 O94 1.266 . S
Co102 O105 1.970 . S
Co102 N119 1.989 . S
Co102 O127 1.967 . S
Co102 O134 1.920 . S
Co103 O106 1.966 . S
Co103 N112 2.022 . S
Co103 N120 1.993 . S
Co103 O128 1.941 . S
C104 O105 1.258 . S
C104 O106 1.263 . S
O105 Co102 1.970 . S
O105 C104 1.258 . S
O106 Co103 1.966 . S
O106 C104 1.263 . S
C107 O108 1.235 1_655 S
C107 O134 1.289 . S
O108 C107 1.235 1_455 S
C109 C111 1.400 . S
C109 N112 1.351 . S
C109 C114 1.501 . S
C110 C111 1.387 . S
C110 N113 1.341 . S
C111 C109 1.400 . S
C111 C110 1.387 . S
N112 Co103 2.022 . S
N112 C109 1.351 . S
N112 N113 1.365 . S
N113 C110 1.341 . S
N113 N112 1.365 . S
N113 H133 0.862 . S
C114 C109 1.501 . S
C114 H115 0.961 . S
C114 H116 0.961 . S
C114 H117 0.960 . S
H115 C114 0.961 . S
H116 C114 0.961 . S
H117 C114 0.960 . S
C118 N119 1.342 1_565 S
C118 C122 1.401 . S
C118 C123 1.499 . S
N119 Co102 1.989 . S
N119 C118 1.342 1_545 S
N119 N120 1.388 . S
N120 Co103 1.993 . S
N120 N119 1.388 . S
N120 C121 1.346 1_545 S
C121 N120 1.346 1_565 S
C121 C122 1.396 . S
C121 C131 1.510 . S
C122 C118 1.401 . S
C122 C121 1.396 . S
C123 C118 1.499 . S
C123 H124 0.959 . S
C123 H125 0.960 . S
C123 H126 0.961 . S
H124 C123 0.959 . S
H125 C123 0.960 . S
H126 C123 0.961 . S
O127 Co102 1.967 . S
O127 C135 1.258 . S
O128 Co103 1.941 . S
O128 C135 1.266 . S
H129 C131 0.959 . S
H130 C131 0.961 . S
C131 C121 1.510 . S
C131 H129 0.959 . S
C131 H130 0.961 . S
C131 H132 0.957 1_565 S
H132 C131 0.957 1_545 S
H133 N113 0.862 . S
O134 Co102 1.920 . S
O134 C107 1.289 . S
C135 O127 1.258 . S
C135 O128 1.266 . S
Co136 O139 1.970 . S
Co136 N153 1.989 . S
Co136 O161 1.967 . S
Co136 O168 1.920 . S
Co137 O140 1.966 . S
Co137 N146 2.022 . S
Co137 N154 1.993 . S
Co137 O162 1.941 . S
C138 O139 1.258 . S
C138 O140 1.263 . S
O139 Co136 1.970 . S
O139 C138 1.258 . S
O140 Co137 1.966 . S
O140 C138 1.263 . S
C141 O142 1.235 . S
C141 O168 1.289 . S
O142 C141 1.235 . S
C143 C145 1.400 . S
C143 N146 1.351 . S
C143 C148 1.501 . S
C144 C145 1.387 . S
C144 N147 1.341 . S
C145 C143 1.400 . S
C145 C144 1.387 . S
N146 Co137 2.022 . S
N146 C143 1.351 . S
N146 N147 1.365 . S
N147 C144 1.341 . S
N147 N146 1.365 . S
N147 H167 0.862 . S
C148 C143 1.501 . S
C148 H149 0.961 . S
C148 H150 0.961 . S
C148 H151 0.960 . S
H149 C148 0.961 . S
H150 C148 0.961 . S
H151 C148 0.960 . S
C152 N153 1.342 1_545 S
C152 C156 1.401 . S
C152 C157 1.499 . S
N153 Co136 1.989 . S
N153 C152 1.342 1_565 S
N153 N154 1.388 . S
N154 Co137 1.993 . S
N154 N153 1.388 . S
N154 C155 1.346 1_565 S
C155 N154 1.346 1_545 S
C155 C156 1.396 . S
C155 C165 1.510 . S
C156 C152 1.401 . S
C156 C155 1.396 . S
C157 C152 1.499 . S
C157 H158 0.959 . S
C157 H159 0.960 . S
C157 H160 0.961 . S
H158 C157 0.959 . S
H159 C157 0.960 . S
H160 C157 0.961 . S
O161 Co136 1.967 . S
O161 C169 1.258 . S
O162 Co137 1.941 . S
O162 C169 1.266 . S
H163 C165 0.959 . S
H164 C165 0.961 . S
C165 C155 1.510 . S
C165 H163 0.959 . S
C165 H164 0.961 . S
C165 H166 0.958 1_545 S
H166 C165 0.958 1_565 S
H167 N147 0.862 . S
O168 Co136 1.920 . S
O168 C141 1.289 . S
C169 O161 1.258 . S
C169 O162 1.266 . S
Co170 O173 1.970 . S
Co170 N187 1.989 . S
Co170 O195 1.967 . S
Co170 O202 1.920 . S
Co171 O174 1.966 . S
Co171 N180 2.022 . S
Co171 N188 1.993 . S
Co171 O196 1.941 . S
C172 O173 1.258 . S
C172 O174 1.263 . S
O173 Co170 1.970 . S
O173 C172 1.258 . S
O174 Co171 1.966 . S
O174 C172 1.263 . S
C175 O176 1.235 1_455 S
C175 O202 1.289 . S
O176 C175 1.235 1_655 S
C177 C179 1.400 . S
C177 N180 1.351 . S
C177 C182 1.501 . S
C178 C179 1.387 . S
C178 N181 1.341 . S
C179 C177 1.400 . S
C179 C178 1.387 . S
N180 Co171 2.022 . S
N180 C177 1.351 . S
N180 N181 1.365 . S
N181 C178 1.341 . S
N181 N180 1.365 . S
N181 H201 0.862 . S
C182 C177 1.501 . S
C182 H183 0.961 . S
C182 H184 0.961 . S
C182 H185 0.960 . S
H183 C182 0.961 . S
H184 C182 0.961 . S
H185 C182 0.960 . S
C186 N187 1.342 . S
C186 C190 1.401 . S
C186 C191 1.499 . S
N187 Co170 1.989 . S
N187 C186 1.342 . S
N187 N188 1.388 . S
N188 Co171 1.993 . S
N188 N187 1.388 . S
N188 C189 1.346 . S
C189 N188 1.346 . S
C189 C190 1.396 . S
C189 C199 1.510 . S
C190 C186 1.401 . S
C190 C189 1.396 . S
C191 C186 1.499 . S
C191 H192 0.959 . S
C191 H193 0.960 . S
C191 H194 0.961 . S
H192 C191 0.959 . S
H193 C191 0.960 . S
H194 C191 0.961 . S
O195 Co170 1.967 . S
O195 C203 1.258 . S
O196 Co171 1.941 . S
O196 C203 1.266 . S
H197 C199 0.959 . S
H198 C199 0.961 . S
C199 C189 1.510 . S
C199 H197 0.959 . S
C199 H198 0.961 . S
C199 H200 0.960 . S
H200 C199 0.960 . S
H201 N181 0.862 . S
O202 Co170 1.920 . S
O202 C175 1.289 . S
C203 O195 1.258 . S
C203 O196 1.266 . S
Co204 O207 1.970 . S
Co204 N221 1.989 . S
Co204 O229 1.967 . S
Co204 O236 1.920 . S
Co205 O208 1.966 . S
Co205 N214 2.022 . S
Co205 N222 1.993 . S
Co205 O230 1.941 . S
C206 O207 1.258 . S
C206 O208 1.263 . S
O207 Co204 1.970 . S
O207 C206 1.258 . S
O208 Co205 1.966 . S
O208 C206 1.263 . S
C209 O210 1.235 . S
C209 O236 1.289 . S
O210 C209 1.235 . S
C211 C213 1.400 . S
C211 N214 1.351 . S
C211 C216 1.501 . S
C212 C213 1.387 . S
C212 N215 1.341 . S
C213 C211 1.400 . S
C213 C212 1.387 . S
N214 Co205 2.022 . S
N214 C211 1.351 . S
N214 N215 1.365 . S
N215 C212 1.341 . S
N215 N214 1.365 . S
N215 H235 0.862 . S
C216 C211 1.501 . S
C216 H217 0.961 . S
C216 H218 0.961 . S
C216 H219 0.960 . S
H217 C216 0.961 . S
H218 C216 0.961 . S
H219 C216 0.960 . S
C220 N221 1.342 . S
C220 C224 1.401 . S
C220 C225 1.499 . S
N221 Co204 1.989 . S
N221 C220 1.342 . S
N221 N222 1.388 . S
N222 Co205 1.993 . S
N222 N221 1.388 . S
N222 C223 1.346 . S
C223 N222 1.346 . S
C223 C224 1.396 . S
C223 C233 1.510 . S
C224 C220 1.401 . S
C224 C223 1.396 . S
C225 C220 1.499 . S
C225 H226 0.959 . S
C225 H227 0.960 . S
C225 H228 0.961 . S
H226 C225 0.959 . S
H227 C225 0.960 . S
H228 C225 0.961 . S
O229 Co204 1.967 . S
O229 C237 1.258 . S
O230 Co205 1.941 . S
O230 C237 1.266 . S
H231 C233 0.959 . S
H232 C233 0.961 . S
C233 C223 1.510 . S
C233 H231 0.959 . S
C233 H232 0.961 . S
C233 H234 0.960 . S
H234 C233 0.960 . S
H235 N215 0.862 . S
O236 Co204 1.920 . S
O236 C209 1.289 . S
C237 O229 1.258 . S
C237 O230 1.266 . S
Co238 O241 1.970 . S
Co238 N255 1.989 . S
Co238 O263 1.967 . S
Co238 O270 1.920 . S
Co239 O242 1.966 . S
Co239 N248 2.022 . S
Co239 N256 1.993 . S
Co239 O264 1.941 . S
C240 O241 1.258 . S
C240 O242 1.263 . S
O241 Co238 1.970 . S
O241 C240 1.258 . S
O242 Co239 1.966 . S
O242 C240 1.263 . S
C243 O244 1.235 1_455 S
C243 O270 1.289 . S
O244 C243 1.235 1_655 S
C245 C247 1.400 . S
C245 N248 1.351 . S
C245 C250 1.501 . S
C246 C247 1.387 . S
C246 N249 1.341 . S
C247 C245 1.400 . S
C247 C246 1.387 . S
N248 Co239 2.022 . S
N248 C245 1.351 . S
N248 N249 1.365 . S
N249 C246 1.341 . S
N249 N248 1.365 . S
N249 H269 0.862 . S
C250 C245 1.501 . S
C250 H251 0.961 . S
C250 H252 0.961 . S
C250 H253 0.960 . S
H251 C250 0.961 . S
H252 C250 0.961 . S
H253 C250 0.960 . S
C254 N255 1.342 1_545 S
C254 C258 1.401 . S
C254 C259 1.499 . S
N255 Co238 1.989 . S
N255 C254 1.342 1_565 S
N255 N256 1.388 . S
N256 Co239 1.993 . S
N256 N255 1.388 . S
N256 C257 1.346 1_565 S
C257 N256 1.346 1_545 S
C257 C258 1.396 . S
C257 C267 1.510 . S
C258 C254 1.401 . S
C258 C257 1.396 . S
C259 C254 1.499 . S
C259 H260 0.959 . S
C259 H261 0.960 . S
C259 H262 0.961 . S
H260 C259 0.959 . S
H261 C259 0.960 . S
H262 C259 0.961 . S
O263 Co238 1.967 . S
O263 C271 1.258 . S
O264 Co239 1.941 . S
O264 C271 1.266 . S
H265 C267 0.959 . S
H266 C267 0.961 . S
C267 C257 1.510 . S
C267 H265 0.959 . S
C267 H266 0.961 . S
C267 H268 0.957 1_545 S
H268 C267 0.957 1_565 S
H269 N249 0.862 . S
O270 Co238 1.920 . S
O270 C243 1.289 . S
C271 O263 1.258 . S
C271 O264 1.266 . S
Co272 O275 1.970 . S
Co272 N289 1.989 . S
Co272 O297 1.967 . S
Co272 O304 1.920 . S
Co273 O276 1.966 . S
Co273 N282 2.022 . S
Co273 N290 1.993 . S
Co273 O298 1.941 . S
C274 O275 1.258 . S
C274 O276 1.263 . S
O275 Co272 1.970 . S
O275 C274 1.258 . S
O276 Co273 1.966 . S
O276 C274 1.263 . S
C277 O278 1.235 . S
C277 O304 1.289 . S
O278 C277 1.235 . S
C279 C281 1.400 . S
C279 N282 1.351 . S
C279 C284 1.501 . S
C280 C281 1.387 . S
C280 N283 1.341 . S
C281 C279 1.400 . S
C281 C280 1.387 . S
N282 Co273 2.022 . S
N282 C279 1.351 . S
N282 N283 1.365 . S
N283 C280 1.341 . S
N283 N282 1.365 . S
N283 H303 0.862 . S
C284 C279 1.501 . S
C284 H285 0.961 . S
C284 H286 0.961 . S
C284 H287 0.960 . S
H285 C284 0.961 . S
H286 C284 0.961 . S
H287 C284 0.960 . S
C288 N289 1.342 . S
C288 C292 1.401 . S
C288 C293 1.499 . S
N289 Co272 1.989 . S
N289 C288 1.342 . S
N289 N290 1.388 . S
N290 Co273 1.993 . S
N290 N289 1.388 . S
N290 C291 1.346 . S
C291 N290 1.346 . S
C291 C292 1.396 . S
C291 C301 1.510 . S
C292 C288 1.401 . S
C292 C291 1.396 . S
C293 C288 1.499 . S
C293 H294 0.959 . S
C293 H295 0.960 . S
C293 H296 0.961 . S
H294 C293 0.959 . S
H295 C293 0.960 . S
H296 C293 0.961 . S
O297 Co272 1.967 . S
O297 C305 1.258 . S
O298 Co273 1.941 . S
O298 C305 1.266 . S
H299 C301 0.959 . S
H300 C301 0.961 . S
C301 C291 1.510 . S
C301 H299 0.959 . S
C301 H300 0.961 . S
C301 H302 0.960 . S
H302 C301 0.960 . S
H303 N283 0.862 . S
O304 Co272 1.920 . S
O304 C277 1.289 . S
C305 O297 1.258 . S
C305 O298 1.266 . S
Co306 O309 1.970 . S
Co306 N323 1.989 . S
Co306 O331 1.967 . S
Co306 O338 1.920 . S
Co307 O310 1.966 . S
Co307 N316 2.022 . S
Co307 N324 1.993 . S
Co307 O332 1.941 . S
C308 O309 1.258 . S
C308 O310 1.263 . S
O309 Co306 1.970 . S
O309 C308 1.258 . S
O310 Co307 1.966 . S
O310 C308 1.263 . S
C311 O312 1.235 1_655 S
C311 O338 1.289 . S
O312 C311 1.235 1_455 S
C313 C315 1.400 . S
C313 N316 1.351 . S
C313 C318 1.501 . S
C314 C315 1.387 . S
C314 N317 1.341 . S
C315 C313 1.400 . S
C315 C314 1.387 . S
N316 Co307 2.022 . S
N316 C313 1.351 . S
N316 N317 1.365 . S
N317 C314 1.341 . S
N317 N316 1.365 . S
N317 H337 0.862 . S
C318 C313 1.501 . S
C318 H319 0.961 . S
C318 H320 0.961 . S
C318 H321 0.960 . S
H319 C318 0.961 . S
H320 C318 0.961 . S
H321 C318 0.960 . S
C322 N323 1.342 . S
C322 C326 1.401 . S
C322 C327 1.499 . S
N323 Co306 1.989 . S
N323 C322 1.342 . S
N323 N324 1.388 . S
N324 Co307 1.993 . S
N324 N323 1.388 . S
N324 C325 1.346 . S
C325 N324 1.346 . S
C325 C326 1.396 . S
C325 C335 1.510 . S
C326 C322 1.401 . S
C326 C325 1.396 . S
C327 C322 1.499 . S
C327 H328 0.959 . S
C327 H329 0.960 . S
C327 H330 0.961 . S
H328 C327 0.959 . S
H329 C327 0.960 . S
H330 C327 0.961 . S
O331 Co306 1.967 . S
O331 C339 1.258 . S
O332 Co307 1.941 . S
O332 C339 1.266 . S
H333 C335 0.959 . S
H334 C335 0.961 . S
C335 C325 1.510 . S
C335 H333 0.959 . S
C335 H334 0.961 . S
C335 H336 0.960 . S
H336 C335 0.960 . S
H337 N317 0.862 . S
O338 Co306 1.920 . S
O338 C311 1.289 . S
C339 O331 1.258 . S
C339 O332 1.266 . S
Co340 O343 1.970 . S
Co340 N357 1.989 . S
Co340 O365 1.967 . S
Co340 O372 1.920 . S
Co341 O344 1.966 . S
Co341 N350 2.022 . S
Co341 N358 1.993 . S
Co341 O366 1.941 . S
C342 O343 1.258 . S
C342 O344 1.263 . S
O343 Co340 1.970 . S
O343 C342 1.258 . S
O344 Co341 1.966 . S
O344 C342 1.263 . S
C345 O346 1.235 . S
C345 O372 1.289 . S
O346 C345 1.235 . S
C347 C349 1.400 . S
C347 N350 1.351 . S
C347 C352 1.501 . S
C348 C349 1.387 . S
C348 N351 1.341 . S
C349 C347 1.400 . S
C349 C348 1.387 . S
N350 Co341 2.022 . S
N350 C347 1.351 . S
N350 N351 1.365 . S
N351 C348 1.341 . S
N351 N350 1.365 . S
N351 H371 0.862 . S
C352 C347 1.501 . S
C352 H353 0.961 . S
C352 H354 0.961 . S
C352 H355 0.960 . S
H353 C352 0.961 . S
H354 C352 0.961 . S
H355 C352 0.960 . S
C356 N357 1.342 . S
C356 C360 1.401 . S
C356 C361 1.499 . S
N357 Co340 1.989 . S
N357 C356 1.342 . S
N357 N358 1.388 . S
N358 Co341 1.993 . S
N358 N357 1.388 . S
N358 C359 1.346 . S
C359 N358 1.346 . S
C359 C360 1.396 . S
C359 C369 1.510 . S
C360 C356 1.401 . S
C360 C359 1.396 . S
C361 C356 1.499 . S
C361 H362 0.959 . S
C361 H363 0.960 . S
C361 H364 0.961 . S
H362 C361 0.959 . S
H363 C361 0.960 . S
H364 C361 0.961 . S
O365 Co340 1.967 . S
O365 C373 1.258 . S
O366 Co341 1.941 . S
O366 C373 1.266 . S
H367 C369 0.959 . S
H368 C369 0.961 . S
C369 C359 1.510 . S
C369 H367 0.959 . S
C369 H368 0.961 . S
C369 H370 0.960 . S
H370 C369 0.960 . S
H371 N351 0.862 . S
O372 Co340 1.920 . S
O372 C345 1.289 . S
C373 O365 1.258 . S
C373 O366 1.266 . S
Co374 O377 1.970 . S
Co374 N391 1.989 . S
Co374 O399 1.967 . S
Co374 O406 1.920 . S
Co375 O378 1.966 . S
Co375 N384 2.022 . S
Co375 N392 1.993 . S
Co375 O400 1.941 . S
C376 O377 1.258 . S
C376 O378 1.263 . S
O377 Co374 1.970 . S
O377 C376 1.258 . S
O378 Co375 1.966 . S
O378 C376 1.263 . S
C379 O380 1.235 1_655 S
C379 O406 1.289 . S
O380 C379 1.235 1_455 S
C381 C383 1.400 . S
C381 N384 1.351 . S
C381 C386 1.501 . S
C382 C383 1.387 . S
C382 N385 1.341 . S
C383 C381 1.400 . S
C383 C382 1.387 . S
N384 Co375 2.022 . S
N384 C381 1.351 . S
N384 N385 1.365 . S
N385 C382 1.341 . S
N385 N384 1.365 . S
N385 H405 0.862 . S
C386 C381 1.501 . S
C386 H387 0.961 . S
C386 H388 0.961 . S
C386 H389 0.960 . S
H387 C386 0.961 . S
H388 C386 0.961 . S
H389 C386 0.960 . S
C390 N391 1.342 . S
C390 C394 1.401 . S
C390 C395 1.499 . S
N391 Co374 1.989 . S
N391 C390 1.342 . S
N391 N392 1.388 . S
N392 Co375 1.993 . S
N392 N391 1.388 . S
N392 C393 1.346 . S
C393 N392 1.346 . S
C393 C394 1.396 . S
C393 C403 1.510 . S
C394 C390 1.401 . S
C394 C393 1.396 . S
C395 C390 1.499 . S
C395 H396 0.959 . S
C395 H397 0.960 . S
C395 H398 0.961 . S
H396 C395 0.959 . S
H397 C395 0.960 . S
H398 C395 0.961 . S
O399 Co374 1.967 . S
O399 C407 1.258 . S
O400 Co375 1.941 . S
O400 C407 1.266 . S
H401 C403 0.959 . S
H402 C403 0.961 . S
C403 C393 1.510 . S
C403 H401 0.959 . S
C403 H402 0.961 . S
C403 H404 0.960 . S
H404 C403 0.960 . S
H405 N385 0.862 . S
O406 Co374 1.920 . S
O406 C379 1.289 . S
C407 O399 1.258 . S
C407 O400 1.266 . S
Co408 O411 1.970 . S
Co408 N425 1.989 . S
Co408 O433 1.967 . S
Co408 O440 1.920 . S
Co409 O412 1.966 . S
Co409 N418 2.022 . S
Co409 N426 1.993 . S
Co409 O434 1.941 . S
C410 O411 1.258 . S
C410 O412 1.263 . S
O411 Co408 1.970 . S
O411 C410 1.258 . S
O412 Co409 1.966 . S
O412 C410 1.263 . S
C413 O414 1.235 . S
C413 O440 1.289 . S
O414 C413 1.235 . S
C415 C417 1.400 . S
C415 N418 1.351 . S
C415 C420 1.501 . S
C416 C417 1.387 . S
C416 N419 1.341 . S
C417 C415 1.400 . S
C417 C416 1.387 . S
N418 Co409 2.022 . S
N418 C415 1.351 . S
N418 N419 1.365 . S
N419 C416 1.341 . S
N419 N418 1.365 . S
N419 H439 0.862 . S
C420 C415 1.501 . S
C420 H421 0.961 . S
C420 H422 0.961 . S
C420 H423 0.960 . S
H421 C420 0.961 . S
H422 C420 0.961 . S
H423 C420 0.960 . S
C424 N425 1.342 . S
C424 C428 1.401 . S
C424 C429 1.499 . S
N425 Co408 1.989 . S
N425 C424 1.342 . S
N425 N426 1.388 . S
N426 Co409 1.993 . S
N426 N425 1.388 . S
N426 C427 1.346 . S
C427 N426 1.346 . S
C427 C428 1.396 . S
C427 C437 1.510 . S
C428 C424 1.401 . S
C428 C427 1.396 . S
C429 C424 1.499 . S
C429 H430 0.959 . S
C429 H431 0.960 . S
C429 H432 0.961 . S
H430 C429 0.959 . S
H431 C429 0.960 . S
H432 C429 0.961 . S
O433 Co408 1.967 . S
O433 C441 1.258 . S
O434 Co409 1.941 . S
O434 C441 1.266 . S
H435 C437 0.959 . S
H436 C437 0.961 . S
C437 C427 1.510 . S
C437 H435 0.959 . S
C437 H436 0.961 . S
C437 H438 0.960 . S
H438 C437 0.960 . S
H439 N419 0.862 . S
O440 Co408 1.920 . S
O440 C413 1.289 . S
C441 O433 1.258 . S
C441 O434 1.266 . S
Co442 O445 1.970 . S
Co442 N459 1.989 . S
Co442 O467 1.967 . S
Co442 O474 1.920 . S
Co443 O446 1.966 . S
Co443 N452 2.022 . S
Co443 N460 1.993 . S
Co443 O468 1.941 . S
C444 O445 1.258 . S
C444 O446 1.263 . S
O445 Co442 1.970 . S
O445 C444 1.258 . S
O446 Co443 1.966 . S
O446 C444 1.263 . S
C447 O448 1.235 1_455 S
C447 O474 1.289 . S
O448 C447 1.235 1_655 S
C449 C451 1.400 . S
C449 N452 1.351 . S
C449 C454 1.501 . S
C450 C451 1.387 . S
C450 N453 1.341 . S
C451 C449 1.400 . S
C451 C450 1.387 . S
N452 Co443 2.022 . S
N452 C449 1.351 . S
N452 N453 1.365 . S
N453 C450 1.341 . S
N453 N452 1.365 . S
N453 H473 0.862 . S
C454 C449 1.501 . S
C454 H455 0.961 . S
C454 H456 0.961 . S
C454 H457 0.960 . S
H455 C454 0.961 . S
H456 C454 0.961 . S
H457 C454 0.960 . S
C458 N459 1.342 . S
C458 C462 1.401 . S
C458 C463 1.499 . S
N459 Co442 1.989 . S
N459 C458 1.342 . S
N459 N460 1.388 . S
N460 Co443 1.993 . S
N460 N459 1.388 . S
N460 C461 1.346 . S
C461 N460 1.346 . S
C461 C462 1.396 . S
C461 C471 1.510 . S
C462 C458 1.401 . S
C462 C461 1.396 . S
C463 C458 1.499 . S
C463 H464 0.959 . S
C463 H465 0.960 . S
C463 H466 0.961 . S
H464 C463 0.959 . S
H465 C463 0.960 . S
H466 C463 0.961 . S
O467 Co442 1.967 . S
O467 C475 1.258 . S
O468 Co443 1.941 . S
O468 C475 1.266 . S
H469 C471 0.959 . S
H470 C471 0.961 . S
C471 C461 1.510 . S
C471 H469 0.959 . S
C471 H470 0.961 . S
C471 H472 0.960 . S
H472 C471 0.960 . S
H473 N453 0.862 . S
O474 Co442 1.920 . S
O474 C447 1.289 . S
C475 O467 1.258 . S
C475 O468 1.266 . S
Co476 O479 1.970 . S
Co476 N493 1.989 . S
Co476 O501 1.967 . S
Co476 O508 1.920 . S
Co477 O480 1.966 . S
Co477 N486 2.022 . S
Co477 N494 1.993 . S
Co477 O502 1.941 . S
C478 O479 1.258 . S
C478 O480 1.263 . S
O479 Co476 1.970 . S
O479 C478 1.258 . S
O480 Co477 1.966 . S
O480 C478 1.263 . S
C481 O482 1.235 . S
C481 O508 1.289 . S
O482 C481 1.235 . S
C483 C485 1.400 . S
C483 N486 1.351 . S
C483 C488 1.501 . S
C484 C485 1.387 . S
C484 N487 1.341 . S
C485 C483 1.400 . S
C485 C484 1.387 . S
N486 Co477 2.022 . S
N486 C483 1.351 . S
N486 N487 1.365 . S
N487 C484 1.341 . S
N487 N486 1.365 . S
N487 H507 0.862 . S
C488 C483 1.501 . S
C488 H489 0.961 . S
C488 H490 0.961 . S
C488 H491 0.960 . S
H489 C488 0.961 . S
H490 C488 0.961 . S
H491 C488 0.960 . S
C492 N493 1.342 . S
C492 C496 1.401 . S
C492 C497 1.499 . S
N493 Co476 1.989 . S
N493 C492 1.342 . S
N493 N494 1.388 . S
N494 Co477 1.993 . S
N494 N493 1.388 . S
N494 C495 1.346 . S
C495 N494 1.346 . S
C495 C496 1.396 . S
C495 C505 1.510 . S
C496 C492 1.401 . S
C496 C495 1.396 . S
C497 C492 1.499 . S
C497 H498 0.959 . S
C497 H499 0.960 . S
C497 H500 0.961 . S
H498 C497 0.959 . S
H499 C497 0.960 . S
H500 C497 0.961 . S
O501 Co476 1.967 . S
O501 C509 1.258 . S
O502 Co477 1.941 . S
O502 C509 1.266 . S
H503 C505 0.959 . S
H504 C505 0.961 . S
C505 C495 1.510 . S
C505 H503 0.959 . S
C505 H504 0.961 . S
C505 H506 0.960 . S
H506 C505 0.960 . S
H507 N487 0.862 . S
O508 Co476 1.920 . S
O508 C481 1.289 . S
C509 O501 1.258 . S
C509 O502 1.266 . S
Co510 O513 1.970 . S
Co510 N527 1.989 . S
Co510 O535 1.967 . S
Co510 O542 1.920 . S
Co511 O514 1.966 . S
Co511 N520 2.022 . S
Co511 N528 1.993 . S
Co511 O536 1.941 . S
C512 O513 1.258 . S
C512 O514 1.263 . S
O513 Co510 1.970 . S
O513 C512 1.258 . S
O514 Co511 1.966 . S
O514 C512 1.263 . S
C515 O516 1.235 1_455 S
C515 O542 1.289 . S
O516 C515 1.235 1_655 S
C517 C519 1.400 . S
C517 N520 1.351 . S
C517 C522 1.501 . S
C518 C519 1.387 . S
C518 N521 1.341 . S
C519 C517 1.400 . S
C519 C518 1.387 . S
N520 Co511 2.022 . S
N520 C517 1.351 . S
N520 N521 1.365 . S
N521 C518 1.341 . S
N521 N520 1.365 . S
N521 H541 0.862 . S
C522 C517 1.501 . S
C522 H523 0.961 . S
C522 H524 0.961 . S
C522 H525 0.960 . S
H523 C522 0.961 . S
H524 C522 0.961 . S
H525 C522 0.960 . S
C526 N527 1.342 . S
C526 C530 1.401 . S
C526 C531 1.499 . S
N527 Co510 1.989 . S
N527 C526 1.342 . S
N527 N528 1.388 . S
N528 Co511 1.993 . S
N528 N527 1.388 . S
N528 C529 1.346 . S
C529 N528 1.346 . S
C529 C530 1.396 . S
C529 C539 1.510 . S
C530 C526 1.401 . S
C530 C529 1.396 . S
C531 C526 1.499 . S
C531 H532 0.959 . S
C531 H533 0.960 . S
C531 H534 0.961 . S
H532 C531 0.959 . S
H533 C531 0.960 . S
H534 C531 0.961 . S
O535 Co510 1.967 . S
O535 C543 1.258 . S
O536 Co511 1.941 . S
O536 C543 1.266 . S
H537 C539 0.959 . S
H538 C539 0.961 . S
C539 C529 1.510 . S
C539 H537 0.959 . S
C539 H538 0.961 . S
C539 H540 0.960 . S
H540 C539 0.960 . S
H541 N521 0.862 . S
O542 Co510 1.920 . S
O542 C515 1.289 . S
C543 O535 1.258 . S
C543 O536 1.266 . S
Co544 O547 1.970 . S
Co544 N561 1.989 . S
Co544 O569 1.967 . S
Co544 O576 1.920 . S
Co545 O548 1.966 . S
Co545 N554 2.022 . S
Co545 N562 1.993 . S
Co545 O570 1.941 . S
C546 O547 1.258 . S
C546 O548 1.263 . S
O547 Co544 1.970 . S
O547 C546 1.258 . S
O548 Co545 1.966 . S
O548 C546 1.263 . S
C549 O550 1.235 . S
C549 O576 1.289 . S
O550 C549 1.235 . S
C551 C553 1.400 . S
C551 N554 1.351 . S
C551 C556 1.501 . S
C552 C553 1.387 . S
C552 N555 1.341 . S
C553 C551 1.400 . S
C553 C552 1.387 . S
N554 Co545 2.022 . S
N554 C551 1.351 . S
N554 N555 1.365 . S
N555 C552 1.341 . S
N555 N554 1.365 . S
N555 H575 0.862 . S
C556 C551 1.501 . S
C556 H557 0.961 . S
C556 H558 0.961 . S
C556 H559 0.960 . S
H557 C556 0.961 . S
H558 C556 0.961 . S
H559 C556 0.960 . S
C560 N561 1.342 1_565 S
C560 C564 1.401 . S
C560 C565 1.499 . S
N561 Co544 1.989 . S
N561 C560 1.342 1_545 S
N561 N562 1.388 . S
N562 Co545 1.993 . S
N562 N561 1.388 . S
N562 C563 1.346 1_545 S
C563 N562 1.346 1_565 S
C563 C564 1.396 . S
C563 C573 1.510 . S
C564 C560 1.401 . S
C564 C563 1.396 . S
C565 C560 1.499 . S
C565 H566 0.959 . S
C565 H567 0.960 . S
C565 H568 0.961 . S
H566 C565 0.959 . S
H567 C565 0.960 . S
H568 C565 0.961 . S
O569 Co544 1.967 . S
O569 C577 1.258 . S
O570 Co545 1.941 . S
O570 C577 1.266 . S
H571 C573 0.959 . S
H572 C573 0.961 . S
C573 C563 1.510 . S
C573 H571 0.959 . S
C573 H572 0.961 . S
C573 H574 0.957 1_565 S
H574 C573 0.957 1_545 S
H575 N555 0.862 . S
O576 Co544 1.920 . S
O576 C549 1.289 . S
C577 O569 1.258 . S
C577 O570 1.266 . S
Co578 O581 1.970 . S
Co578 N595 1.989 . S
Co578 O603 1.967 . S
Co578 O610 1.920 . S
Co579 O582 1.966 . S
Co579 N588 2.022 . S
Co579 N596 1.993 . S
Co579 O604 1.941 . S
C580 O581 1.258 . S
C580 O582 1.263 . S
O581 Co578 1.970 . S
O581 C580 1.258 . S
O582 Co579 1.966 . S
O582 C580 1.263 . S
C583 O584 1.235 . S
C583 O610 1.289 . S
O584 C583 1.235 . S
C585 C587 1.400 . S
C585 N588 1.351 . S
C585 C590 1.501 . S
C586 C587 1.387 . S
C586 N589 1.341 . S
C587 C585 1.400 . S
C587 C586 1.387 . S
N588 Co579 2.022 . S
N588 C585 1.351 . S
N588 N589 1.365 . S
N589 C586 1.341 . S
N589 N588 1.365 . S
N589 H609 0.862 . S
C590 C585 1.501 . S
C590 H591 0.961 . S
C590 H592 0.961 . S
C590 H593 0.960 . S
H591 C590 0.961 . S
H592 C590 0.961 . S
H593 C590 0.960 . S
C594 N595 1.342 . S
C594 C598 1.401 . S
C594 C599 1.499 . S
N595 Co578 1.989 . S
N595 C594 1.342 . S
N595 N596 1.388 . S
N596 Co579 1.993 . S
N596 N595 1.388 . S
N596 C597 1.346 . S
C597 N596 1.346 . S
C597 C598 1.396 . S
C597 C607 1.510 . S
C598 C594 1.401 . S
C598 C597 1.396 . S
C599 C594 1.499 . S
C599 H600 0.959 . S
C599 H601 0.960 . S
C599 H602 0.961 . S
H600 C599 0.959 . S
H601 C599 0.960 . S
H602 C599 0.961 . S
O603 Co578 1.967 . S
O603 C611 1.258 . S
O604 Co579 1.941 . S
O604 C611 1.266 . S
H605 C607 0.959 . S
H606 C607 0.961 . S
C607 C597 1.510 . S
C607 H605 0.959 . S
C607 H606 0.961 . S
C607 H608 0.960 . S
H608 C607 0.960 . S
H609 N589 0.862 . S
O610 Co578 1.920 . S
O610 C583 1.289 . S
C611 O603 1.258 . S
C611 O604 1.266 . S
Co612 O615 1.970 . S
Co612 N629 1.989 . S
Co612 O637 1.967 . S
Co612 O644 1.920 . S
Co613 O616 1.966 . S
Co613 N622 2.022 . S
Co613 N630 1.993 . S
Co613 O638 1.941 . S
C614 O615 1.258 . S
C614 O616 1.263 . S
O615 Co612 1.970 . S
O615 C614 1.258 . S
O616 Co613 1.966 . S
O616 C614 1.263 . S
C617 O618 1.235 . S
C617 O644 1.289 . S
O618 C617 1.235 . S
C619 C621 1.400 . S
C619 N622 1.351 . S
C619 C624 1.501 . S
C620 C621 1.387 . S
C620 N623 1.341 . S
C621 C619 1.400 . S
C621 C620 1.387 . S
N622 Co613 2.022 . S
N622 C619 1.351 . S
N622 N623 1.365 . S
N623 C620 1.341 . S
N623 N622 1.365 . S
N623 H643 0.862 . S
C624 C619 1.501 . S
C624 H625 0.961 . S
C624 H626 0.961 . S
C624 H627 0.960 . S
H625 C624 0.961 . S
H626 C624 0.961 . S
H627 C624 0.960 . S
C628 N629 1.342 . S
C628 C632 1.401 . S
C628 C633 1.499 . S
N629 Co612 1.989 . S
N629 C628 1.342 . S
N629 N630 1.388 . S
N630 Co613 1.993 . S
N630 N629 1.388 . S
N630 C631 1.346 . S
C631 N630 1.346 . S
C631 C632 1.396 . S
C631 C641 1.510 . S
C632 C628 1.401 . S
C632 C631 1.396 . S
C633 C628 1.499 . S
C633 H634 0.959 . S
C633 H635 0.960 . S
C633 H636 0.961 . S
H634 C633 0.959 . S
H635 C633 0.960 . S
H636 C633 0.961 . S
O637 Co612 1.967 . S
O637 C645 1.258 . S
O638 Co613 1.941 . S
O638 C645 1.266 . S
H639 C641 0.959 . S
H640 C641 0.961 . S
C641 C631 1.510 . S
C641 H639 0.959 . S
C641 H640 0.961 . S
C641 H642 0.960 . S
H642 C641 0.960 . S
H643 N623 0.862 . S
O644 Co612 1.920 . S
O644 C617 1.289 . S
C645 O637 1.258 . S
C645 O638 1.266 . S
Co646 O649 1.970 . S
Co646 N663 1.989 . S
Co646 O671 1.967 . S
Co646 O678 1.920 . S
Co647 O650 1.966 . S
Co647 N656 2.022 . S
Co647 N664 1.993 . S
Co647 O672 1.941 . S
C648 O649 1.258 . S
C648 O650 1.263 . S
O649 Co646 1.970 . S
O649 C648 1.258 . S
O650 Co647 1.966 . S
O650 C648 1.263 . S
C651 O652 1.235 . S
C651 O678 1.289 . S
O652 C651 1.235 . S
C653 C655 1.400 . S
C653 N656 1.351 . S
C653 C658 1.501 . S
C654 C655 1.387 . S
C654 N657 1.341 . S
C655 C653 1.400 . S
C655 C654 1.387 . S
N656 Co647 2.022 . S
N656 C653 1.351 . S
N656 N657 1.365 . S
N657 C654 1.341 . S
N657 N656 1.365 . S
N657 H677 0.862 . S
C658 C653 1.501 . S
C658 H659 0.961 . S
C658 H660 0.961 . S
C658 H661 0.960 . S
H659 C658 0.961 . S
H660 C658 0.961 . S
H661 C658 0.960 . S
C662 N663 1.342 1_565 S
C662 C666 1.401 . S
C662 C667 1.499 . S
N663 Co646 1.989 . S
N663 C662 1.342 1_545 S
N663 N664 1.388 . S
N664 Co647 1.993 . S
N664 N663 1.388 . S
N664 C665 1.346 1_545 S
C665 N664 1.346 1_565 S
C665 C666 1.396 . S
C665 C675 1.510 . S
C666 C662 1.401 . S
C666 C665 1.396 . S
C667 C662 1.499 . S
C667 H668 0.959 . S
C667 H669 0.960 . S
C667 H670 0.961 . S
H668 C667 0.959 . S
H669 C667 0.960 . S
H670 C667 0.961 . S
O671 Co646 1.967 . S
O671 C679 1.258 . S
O672 Co647 1.941 . S
O672 C679 1.266 . S
H673 C675 0.959 . S
H674 C675 0.961 . S
C675 C665 1.510 . S
C675 H673 0.959 . S
C675 H674 0.961 . S
C675 H676 0.957 1_565 S
H676 C675 0.957 1_545 S
H677 N657 0.862 . S
O678 Co646 1.920 . S
O678 C651 1.289 . S
C679 O671 1.258 . S
C679 O672 1.266 . S
Co680 O683 1.970 . S
Co680 N697 1.989 . S
Co680 O705 1.967 . S
Co680 O712 1.920 . S
Co681 O684 1.966 . S
Co681 N690 2.022 . S
Co681 N698 1.993 . S
Co681 O706 1.941 . S
C682 O683 1.258 . S
C682 O684 1.263 . S
O683 Co680 1.970 . S
O683 C682 1.258 . S
O684 Co681 1.966 . S
O684 C682 1.263 . S
C685 O686 1.235 . S
C685 O712 1.289 . S
O686 C685 1.235 . S
C687 C689 1.400 . S
C687 N690 1.351 . S
C687 C692 1.501 . S
C688 C689 1.387 . S
C688 N691 1.341 . S
C689 C687 1.400 . S
C689 C688 1.387 . S
N690 Co681 2.022 . S
N690 C687 1.351 . S
N690 N691 1.365 . S
N691 C688 1.341 . S
N691 N690 1.365 . S
N691 H711 0.862 . S
C692 C687 1.501 . S
C692 H693 0.961 . S
C692 H694 0.961 . S
C692 H695 0.960 . S
H693 C692 0.961 . S
H694 C692 0.961 . S
H695 C692 0.960 . S
C696 N697 1.342 1_545 S
C696 C700 1.401 . S
C696 C701 1.499 . S
N697 Co680 1.989 . S
N697 C696 1.342 1_565 S
N697 N698 1.388 . S
N698 Co681 1.993 . S
N698 N697 1.388 . S
N698 C699 1.346 1_565 S
C699 N698 1.346 1_545 S
C699 C700 1.396 . S
C699 C709 1.510 . S
C700 C696 1.401 . S
C700 C699 1.396 . S
C701 C696 1.499 . S
C701 H702 0.959 . S
C701 H703 0.960 . S
C701 H704 0.961 . S
H702 C701 0.959 . S
H703 C701 0.960 . S
H704 C701 0.961 . S
O705 Co680 1.967 . S
O705 C713 1.258 . S
O706 Co681 1.941 . S
O706 C713 1.266 . S
H707 C709 0.959 . S
H708 C709 0.961 . S
C709 C699 1.510 . S
C709 H707 0.959 . S
C709 H708 0.961 . S
C709 H710 0.957 1_545 S
H710 C709 0.957 1_565 S
H711 N691 0.862 . S
O712 Co680 1.920 . S
O712 C685 1.289 . S
C713 O705 1.258 . S
C713 O706 1.266 . S
Co714 O717 1.970 . S
Co714 N731 1.989 . S
Co714 O739 1.967 . S
Co714 O746 1.920 . S
Co715 O718 1.966 . S
Co715 N724 2.022 . S
Co715 N732 1.993 . S
Co715 O740 1.941 . S
C716 O717 1.258 . S
C716 O718 1.263 . S
O717 Co714 1.970 . S
O717 C716 1.258 . S
O718 Co715 1.966 . S
O718 C716 1.263 . S
C719 O720 1.235 . S
C719 O746 1.289 . S
O720 C719 1.235 . S
C721 C723 1.400 . S
C721 N724 1.351 . S
C721 C726 1.501 . S
C722 C723 1.387 . S
C722 N725 1.341 . S
C723 C721 1.400 . S
C723 C722 1.387 . S
N724 Co715 2.022 . S
N724 C721 1.351 . S
N724 N725 1.365 . S
N725 C722 1.341 . S
N725 N724 1.365 . S
N725 H745 0.862 . S
C726 C721 1.501 . S
C726 H727 0.961 . S
C726 H728 0.961 . S
C726 H729 0.960 . S
H727 C726 0.961 . S
H728 C726 0.961 . S
H729 C726 0.960 . S
C730 N731 1.342 . S
C730 C734 1.401 . S
C730 C735 1.499 . S
N731 Co714 1.989 . S
N731 C730 1.342 . S
N731 N732 1.388 . S
N732 Co715 1.993 . S
N732 N731 1.388 . S
N732 C733 1.346 . S
C733 N732 1.346 . S
C733 C734 1.396 . S
C733 C743 1.510 . S
C734 C730 1.401 . S
C734 C733 1.396 . S
C735 C730 1.499 . S
C735 H736 0.959 . S
C735 H737 0.960 . S
C735 H738 0.961 . S
H736 C735 0.959 . S
H737 C735 0.960 . S
H738 C735 0.961 . S
O739 Co714 1.967 . S
O739 C747 1.258 . S
O740 Co715 1.941 . S
O740 C747 1.266 . S
H741 C743 0.959 . S
H742 C743 0.961 . S
C743 C733 1.510 . S
C743 H741 0.959 . S
C743 H742 0.961 . S
C743 H744 0.960 . S
H744 C743 0.960 . S
H745 N725 0.862 . S
O746 Co714 1.920 . S
O746 C719 1.289 . S
C747 O739 1.258 . S
C747 O740 1.266 . S
Co748 O751 1.970 . S
Co748 N765 1.989 . S
Co748 O773 1.967 . S
Co748 O780 1.920 . S
Co749 O752 1.966 . S
Co749 N758 2.022 . S
Co749 N766 1.993 . S
Co749 O774 1.941 . S
C750 O751 1.258 . S
C750 O752 1.263 . S
O751 Co748 1.970 . S
O751 C750 1.258 . S
O752 Co749 1.966 . S
O752 C750 1.263 . S
C753 O754 1.235 . S
C753 O780 1.289 . S
O754 C753 1.235 . S
C755 C757 1.400 . S
C755 N758 1.351 . S
C755 C760 1.501 . S
C756 C757 1.387 . S
C756 N759 1.341 . S
C757 C755 1.400 . S
C757 C756 1.387 . S
N758 Co749 2.022 . S
N758 C755 1.351 . S
N758 N759 1.365 . S
N759 C756 1.341 . S
N759 N758 1.365 . S
N759 H779 0.862 . S
C760 C755 1.501 . S
C760 H761 0.961 . S
C760 H762 0.961 . S
C760 H763 0.960 . S
H761 C760 0.961 . S
H762 C760 0.961 . S
H763 C760 0.960 . S
C764 N765 1.342 . S
C764 C768 1.401 . S
C764 C769 1.499 . S
N765 Co748 1.989 . S
N765 C764 1.342 . S
N765 N766 1.388 . S
N766 Co749 1.993 . S
N766 N765 1.388 . S
N766 C767 1.346 . S
C767 N766 1.346 . S
C767 C768 1.396 . S
C767 C777 1.510 . S
C768 C764 1.401 . S
C768 C767 1.396 . S
C769 C764 1.499 . S
C769 H770 0.959 . S
C769 H771 0.960 . S
C769 H772 0.961 . S
H770 C769 0.959 . S
H771 C769 0.960 . S
H772 C769 0.961 . S
O773 Co748 1.967 . S
O773 C781 1.258 . S
O774 Co749 1.941 . S
O774 C781 1.266 . S
H775 C777 0.959 . S
H776 C777 0.961 . S
C777 C767 1.510 . S
C777 H775 0.959 . S
C777 H776 0.961 . S
C777 H778 0.960 . S
H778 C777 0.960 . S
H779 N759 0.862 . S
O780 Co748 1.920 . S
O780 C753 1.289 . S
C781 O773 1.258 . S
C781 O774 1.266 . S
Co782 O785 1.970 . S
Co782 N799 1.989 . S
Co782 O807 1.967 . S
Co782 O814 1.920 . S
Co783 O786 1.966 . S
Co783 N792 2.022 . S
Co783 N800 1.993 . S
Co783 O808 1.941 . S
C784 O785 1.258 . S
C784 O786 1.263 . S
O785 Co782 1.970 . S
O785 C784 1.258 . S
O786 Co783 1.966 . S
O786 C784 1.263 . S
C787 O788 1.235 . S
C787 O814 1.289 . S
O788 C787 1.235 . S
C789 C791 1.400 . S
C789 N792 1.351 . S
C789 C794 1.501 . S
C790 C791 1.387 . S
C790 N793 1.341 . S
C791 C789 1.400 . S
C791 C790 1.387 . S
N792 Co783 2.022 . S
N792 C789 1.351 . S
N792 N793 1.365 . S
N793 C790 1.341 . S
N793 N792 1.365 . S
N793 H813 0.862 . S
C794 C789 1.501 . S
C794 H795 0.961 . S
C794 H796 0.961 . S
C794 H797 0.960 . S
H795 C794 0.961 . S
H796 C794 0.961 . S
H797 C794 0.960 . S
C798 N799 1.342 1_545 S
C798 C802 1.401 . S
C798 C803 1.499 . S
N799 Co782 1.989 . S
N799 C798 1.342 1_565 S
N799 N800 1.388 . S
N800 Co783 1.993 . S
N800 N799 1.388 . S
N800 C801 1.346 1_565 S
C801 N800 1.346 1_545 S
C801 C802 1.396 . S
C801 C811 1.510 . S
C802 C798 1.401 . S
C802 C801 1.396 . S
C803 C798 1.499 . S
C803 H804 0.959 . S
C803 H805 0.960 . S
C803 H806 0.961 . S
H804 C803 0.959 . S
H805 C803 0.960 . S
H806 C803 0.961 . S
O807 Co782 1.967 . S
O807 C815 1.258 . S
O808 Co783 1.941 . S
O808 C815 1.266 . S
H809 C811 0.959 . S
H810 C811 0.961 . S
C811 C801 1.510 . S
C811 H809 0.959 . S
C811 H810 0.961 . S
C811 H812 0.957 1_545 S
H812 C811 0.957 1_565 S
H813 N793 0.862 . S
O814 Co782 1.920 . S
O814 C787 1.289 . S
C815 O807 1.258 . S
C815 O808 1.266 . S
Co816 O819 1.970 . S
Co816 N833 1.989 . S
Co816 O841 1.967 . S
Co816 O848 1.920 . S
Co817 O820 1.966 . S
Co817 N826 2.022 . S
Co817 N834 1.993 . S
Co817 O842 1.941 . S
C818 O819 1.258 . S
C818 O820 1.263 . S
O819 Co816 1.970 . S
O819 C818 1.258 . S
O820 Co817 1.966 . S
O820 C818 1.263 . S
C821 O822 1.235 . S
C821 O848 1.289 . S
O822 C821 1.235 . S
C823 C825 1.400 . S
C823 N826 1.351 . S
C823 C828 1.501 . S
C824 C825 1.387 . S
C824 N827 1.341 . S
C825 C823 1.400 . S
C825 C824 1.387 . S
N826 Co817 2.022 . S
N826 C823 1.351 . S
N826 N827 1.365 . S
N827 C824 1.341 . S
N827 N826 1.365 . S
N827 H847 0.862 . S
C828 C823 1.501 . S
C828 H829 0.961 . S
C828 H830 0.961 . S
C828 H831 0.960 . S
H829 C828 0.961 . S
H830 C828 0.961 . S
H831 C828 0.960 . S
C832 N833 1.342 . S
C832 C836 1.401 . S
C832 C837 1.499 . S
N833 Co816 1.989 . S
N833 C832 1.342 . S
N833 N834 1.388 . S
N834 Co817 1.993 . S
N834 N833 1.388 . S
N834 C835 1.346 . S
C835 N834 1.346 . S
C835 C836 1.396 . S
C835 C845 1.510 . S
C836 C832 1.401 . S
C836 C835 1.396 . S
C837 C832 1.499 . S
C837 H838 0.959 . S
C837 H839 0.960 . S
C837 H840 0.961 . S
H838 C837 0.959 . S
H839 C837 0.960 . S
H840 C837 0.961 . S
O841 Co816 1.967 . S
O841 C849 1.258 . S
O842 Co817 1.941 . S
O842 C849 1.266 . S
H843 C845 0.959 . S
H844 C845 0.961 . S
C845 C835 1.510 . S
C845 H843 0.959 . S
C845 H844 0.961 . S
C845 H846 0.960 . S
H846 C845 0.960 . S
H847 N827 0.862 . S
O848 Co816 1.920 . S
O848 C821 1.289 . S
C849 O841 1.258 . S
C849 O842 1.266 . S
Co850 O853 1.970 . S
Co850 N867 1.989 . S
Co850 O875 1.967 . S
Co850 O882 1.920 . S
Co851 O854 1.966 . S
Co851 N860 2.022 . S
Co851 N868 1.993 . S
Co851 O876 1.941 . S
C852 O853 1.258 . S
C852 O854 1.263 . S
O853 Co850 1.970 . S
O853 C852 1.258 . S
O854 Co851 1.966 . S
O854 C852 1.263 . S
C855 O856 1.235 . S
C855 O882 1.289 . S
O856 C855 1.235 . S
C857 C859 1.400 . S
C857 N860 1.351 . S
C857 C862 1.501 . S
C858 C859 1.387 . S
C858 N861 1.341 . S
C859 C857 1.400 . S
C859 C858 1.387 . S
N860 Co851 2.022 . S
N860 C857 1.351 . S
N860 N861 1.365 . S
N861 C858 1.341 . S
N861 N860 1.365 . S
N861 H881 0.862 . S
C862 C857 1.501 . S
C862 H863 0.961 . S
C862 H864 0.961 . S
C862 H865 0.960 . S
H863 C862 0.961 . S
H864 C862 0.961 . S
H865 C862 0.960 . S
C866 N867 1.342 . S
C866 C870 1.401 . S
C866 C871 1.499 . S
N867 Co850 1.989 . S
N867 C866 1.342 . S
N867 N868 1.388 . S
N868 Co851 1.993 . S
N868 N867 1.388 . S
N868 C869 1.346 . S
C869 N868 1.346 . S
C869 C870 1.396 . S
C869 C879 1.510 . S
C870 C866 1.401 . S
C870 C869 1.396 . S
C871 C866 1.499 . S
C871 H872 0.959 . S
C871 H873 0.960 . S
C871 H874 0.961 . S
H872 C871 0.959 . S
H873 C871 0.960 . S
H874 C871 0.961 . S
O875 Co850 1.967 . S
O875 C883 1.258 . S
O876 Co851 1.941 . S
O876 C883 1.266 . S
H877 C879 0.959 . S
H878 C879 0.961 . S
C879 C869 1.510 . S
C879 H877 0.959 . S
C879 H878 0.961 . S
C879 H880 0.960 . S
H880 C879 0.960 . S
H881 N861 0.862 . S
O882 Co850 1.920 . S
O882 C855 1.289 . S
C883 O875 1.258 . S
C883 O876 1.266 . S
Co884 O887 1.970 . S
Co884 N901 1.989 . S
Co884 O909 1.967 . S
Co884 O916 1.920 . S
Co885 O888 1.966 . S
Co885 N894 2.022 . S
Co885 N902 1.993 . S
Co885 O910 1.941 . S
C886 O887 1.258 . S
C886 O888 1.263 . S
O887 Co884 1.970 . S
O887 C886 1.258 . S
O888 Co885 1.966 . S
O888 C886 1.263 . S
C889 O890 1.235 . S
C889 O916 1.289 . S
O890 C889 1.235 . S
C891 C893 1.400 . S
C891 N894 1.351 . S
C891 C896 1.501 . S
C892 C893 1.387 . S
C892 N895 1.341 . S
C893 C891 1.400 . S
C893 C892 1.387 . S
N894 Co885 2.022 . S
N894 C891 1.351 . S
N894 N895 1.365 . S
N895 C892 1.341 . S
N895 N894 1.365 . S
N895 H915 0.862 . S
C896 C891 1.501 . S
C896 H897 0.961 . S
C896 H898 0.961 . S
C896 H899 0.960 . S
H897 C896 0.961 . S
H898 C896 0.961 . S
H899 C896 0.960 . S
C900 N901 1.342 . S
C900 C904 1.401 . S
C900 C905 1.499 . S
N901 Co884 1.989 . S
N901 C900 1.342 . S
N901 N902 1.388 . S
N902 Co885 1.993 . S
N902 N901 1.388 . S
N902 C903 1.346 . S
C903 N902 1.346 . S
C903 C904 1.396 . S
C903 C913 1.510 . S
C904 C900 1.401 . S
C904 C903 1.396 . S
C905 C900 1.499 . S
C905 H906 0.959 . S
C905 H907 0.960 . S
C905 H908 0.961 . S
H906 C905 0.959 . S
H907 C905 0.960 . S
H908 C905 0.961 . S
O909 Co884 1.967 . S
O909 C917 1.258 . S
O910 Co885 1.941 . S
O910 C917 1.266 . S
H911 C913 0.959 . S
H912 C913 0.961 . S
C913 C903 1.510 . S
C913 H911 0.959 . S
C913 H912 0.961 . S
C913 H914 0.960 . S
H914 C913 0.960 . S
H915 N895 0.862 . S
O916 Co884 1.920 . S
O916 C889 1.289 . S
C917 O909 1.258 . S
C917 O910 1.266 . S
Co918 O921 1.970 . S
Co918 N935 1.989 . S
Co918 O943 1.967 . S
Co918 O950 1.920 . S
Co919 O922 1.966 . S
Co919 N928 2.022 . S
Co919 N936 1.993 . S
Co919 O944 1.941 . S
C920 O921 1.258 . S
C920 O922 1.263 . S
O921 Co918 1.970 . S
O921 C920 1.258 . S
O922 Co919 1.966 . S
O922 C920 1.263 . S
C923 O924 1.235 . S
C923 O950 1.289 . S
O924 C923 1.235 . S
C925 C927 1.400 . S
C925 N928 1.351 . S
C925 C930 1.501 . S
C926 C927 1.387 . S
C926 N929 1.341 . S
C927 C925 1.400 . S
C927 C926 1.387 . S
N928 Co919 2.022 . S
N928 C925 1.351 . S
N928 N929 1.365 . S
N929 C926 1.341 . S
N929 N928 1.365 . S
N929 H949 0.862 . S
C930 C925 1.501 . S
C930 H931 0.961 . S
C930 H932 0.961 . S
C930 H933 0.960 . S
H931 C930 0.961 . S
H932 C930 0.961 . S
H933 C930 0.960 . S
C934 N935 1.342 . S
C934 C938 1.401 . S
C934 C939 1.499 . S
N935 Co918 1.989 . S
N935 C934 1.342 . S
N935 N936 1.388 . S
N936 Co919 1.993 . S
N936 N935 1.388 . S
N936 C937 1.346 . S
C937 N936 1.346 . S
C937 C938 1.396 . S
C937 C947 1.510 . S
C938 C934 1.401 . S
C938 C937 1.396 . S
C939 C934 1.499 . S
C939 H940 0.959 . S
C939 H941 0.960 . S
C939 H942 0.961 . S
H940 C939 0.959 . S
H941 C939 0.960 . S
H942 C939 0.961 . S
O943 Co918 1.967 . S
O943 C951 1.258 . S
O944 Co919 1.941 . S
O944 C951 1.266 . S
H945 C947 0.959 . S
H946 C947 0.961 . S
C947 C937 1.510 . S
C947 H945 0.959 . S
C947 H946 0.961 . S
C947 H948 0.960 . S
H948 C947 0.960 . S
H949 N929 0.862 . S
O950 Co918 1.920 . S
O950 C923 1.289 . S
C951 O943 1.258 . S
C951 O944 1.266 . S
Co952 O955 1.970 . S
Co952 N969 1.989 . S
Co952 O977 1.967 . S
Co952 O984 1.920 . S
Co953 O956 1.966 . S
Co953 N962 2.022 . S
Co953 N970 1.993 . S
Co953 O978 1.941 . S
C954 O955 1.258 . S
C954 O956 1.263 . S
O955 Co952 1.970 . S
O955 C954 1.258 . S
O956 Co953 1.966 . S
O956 C954 1.263 . S
C957 O958 1.235 . S
C957 O984 1.289 . S
O958 C957 1.235 . S
C959 C961 1.400 . S
C959 N962 1.351 . S
C959 C964 1.501 . S
C960 C961 1.387 . S
C960 N963 1.341 . S
C961 C959 1.400 . S
C961 C960 1.387 . S
N962 Co953 2.022 . S
N962 C959 1.351 . S
N962 N963 1.365 . S
N963 C960 1.341 . S
N963 N962 1.365 . S
N963 H983 0.862 . S
C964 C959 1.501 . S
C964 H965 0.961 . S
C964 H966 0.961 . S
C964 H967 0.960 . S
H965 C964 0.961 . S
H966 C964 0.961 . S
H967 C964 0.960 . S
C968 N969 1.342 . S
C968 C972 1.401 . S
C968 C973 1.499 . S
N969 Co952 1.989 . S
N969 C968 1.342 . S
N969 N970 1.388 . S
N970 Co953 1.993 . S
N970 N969 1.388 . S
N970 C971 1.346 . S
C971 N970 1.346 . S
C971 C972 1.396 . S
C971 C981 1.510 . S
C972 C968 1.401 . S
C972 C971 1.396 . S
C973 C968 1.499 . S
C973 H974 0.959 . S
C973 H975 0.960 . S
C973 H976 0.961 . S
H974 C973 0.959 . S
H975 C973 0.960 . S
H976 C973 0.961 . S
O977 Co952 1.967 . S
O977 C985 1.258 . S
O978 Co953 1.941 . S
O978 C985 1.266 . S
H979 C981 0.959 . S
H980 C981 0.961 . S
C981 C971 1.510 . S
C981 H979 0.959 . S
C981 H980 0.961 . S
C981 H982 0.960 . S
H982 C981 0.960 . S
H983 N963 0.862 . S
O984 Co952 1.920 . S
O984 C957 1.289 . S
C985 O977 1.258 . S
C985 O978 1.266 . S
Co986 O989 1.970 . S
Co986 N1003 1.989 . S
Co986 O1011 1.967 . S
Co986 O1018 1.920 . S
Co987 O990 1.966 . S
Co987 N996 2.022 . S
Co987 N1004 1.993 . S
Co987 O1012 1.941 . S
C988 O989 1.258 . S
C988 O990 1.263 . S
O989 Co986 1.970 . S
O989 C988 1.258 . S
O990 Co987 1.966 . S
O990 C988 1.263 . S
C991 O992 1.235 . S
C991 O1018 1.289 . S
O992 C991 1.235 . S
C993 C995 1.400 . S
C993 N996 1.351 . S
C993 C998 1.501 . S
C994 C995 1.387 . S
C994 N997 1.341 . S
C995 C993 1.400 . S
C995 C994 1.387 . S
N996 Co987 2.022 . S
N996 C993 1.351 . S
N996 N997 1.365 . S
N997 C994 1.341 . S
N997 N996 1.365 . S
N997 H1017 0.862 . S
C998 C993 1.501 . S
C998 H999 0.961 . S
C998 H1000 0.961 . S
C998 H1001 0.960 . S
H999 C998 0.961 . S
H1000 C998 0.961 . S
H1001 C998 0.960 . S
C1002 N1003 1.342 . S
C1002 C1006 1.401 . S
C1002 C1007 1.499 . S
N1003 Co986 1.989 . S
N1003 C1002 1.342 . S
N1003 N1004 1.388 . S
N1004 Co987 1.993 . S
N1004 N1003 1.388 . S
N1004 C1005 1.346 . S
C1005 N1004 1.346 . S
C1005 C1006 1.396 . S
C1005 C1015 1.510 . S
C1006 C1002 1.401 . S
C1006 C1005 1.396 . S
C1007 C1002 1.499 . S
C1007 H1008 0.959 . S
C1007 H1009 0.960 . S
C1007 H1010 0.961 . S
H1008 C1007 0.959 . S
H1009 C1007 0.960 . S
H1010 C1007 0.961 . S
O1011 Co986 1.967 . S
O1011 C1019 1.258 . S
O1012 Co987 1.941 . S
O1012 C1019 1.266 . S
H1013 C1015 0.959 . S
H1014 C1015 0.961 . S
C1015 C1005 1.510 . S
C1015 H1013 0.959 . S
C1015 H1014 0.961 . S
C1015 H1016 0.960 . S
H1016 C1015 0.960 . S
H1017 N997 0.862 . S
O1018 Co986 1.920 . S
O1018 C991 1.289 . S
C1019 O1011 1.258 . S
C1019 O1012 1.266 . S
Co1020 O1023 1.970 . S
Co1020 N1037 1.989 . S
Co1020 O1045 1.967 . S
Co1020 O1052 1.920 . S
Co1021 O1024 1.966 . S
Co1021 N1030 2.022 . S
Co1021 N1038 1.993 . S
Co1021 O1046 1.941 . S
C1022 O1023 1.258 . S
C1022 O1024 1.263 . S
O1023 Co1020 1.970 . S
O1023 C1022 1.258 . S
O1024 Co1021 1.966 . S
O1024 C1022 1.263 . S
C1025 O1026 1.235 . S
C1025 O1052 1.289 . S
O1026 C1025 1.235 . S
C1027 C1029 1.400 . S
C1027 N1030 1.351 . S
C1027 C1032 1.501 . S
C1028 C1029 1.387 . S
C1028 N1031 1.341 . S
C1029 C1027 1.400 . S
C1029 C1028 1.387 . S
N1030 Co1021 2.022 . S
N1030 C1027 1.351 . S
N1030 N1031 1.365 . S
N1031 C1028 1.341 . S
N1031 N1030 1.365 . S
N1031 H1051 0.862 . S
C1032 C1027 1.501 . S
C1032 H1033 0.961 . S
C1032 H1034 0.961 . S
C1032 H1035 0.960 . S
H1033 C1032 0.961 . S
H1034 C1032 0.961 . S
H1035 C1032 0.960 . S
C1036 N1037 1.342 . S
C1036 C1040 1.401 . S
C1036 C1041 1.499 . S
N1037 Co1020 1.989 . S
N1037 C1036 1.342 . S
N1037 N1038 1.388 . S
N1038 Co1021 1.993 . S
N1038 N1037 1.388 . S
N1038 C1039 1.346 . S
C1039 N1038 1.346 . S
C1039 C1040 1.396 . S
C1039 C1049 1.510 . S
C1040 C1036 1.401 . S
C1040 C1039 1.396 . S
C1041 C1036 1.499 . S
C1041 H1042 0.959 . S
C1041 H1043 0.960 . S
C1041 H1044 0.961 . S
H1042 C1041 0.959 . S
H1043 C1041 0.960 . S
H1044 C1041 0.961 . S
O1045 Co1020 1.967 . S
O1045 C1053 1.258 . S
O1046 Co1021 1.941 . S
O1046 C1053 1.266 . S
H1047 C1049 0.959 . S
H1048 C1049 0.961 . S
C1049 C1039 1.510 . S
C1049 H1047 0.959 . S
C1049 H1048 0.961 . S
C1049 H1050 0.960 . S
H1050 C1049 0.960 . S
H1051 N1031 0.862 . S
O1052 Co1020 1.920 . S
O1052 C1025 1.289 . S
C1053 O1045 1.258 . S
C1053 O1046 1.266 . S
Co1054 O1057 1.970 . S
Co1054 N1071 1.989 . S
Co1054 O1079 1.967 . S
Co1054 O1086 1.920 . S
Co1055 O1058 1.966 . S
Co1055 N1064 2.022 . S
Co1055 N1072 1.993 . S
Co1055 O1080 1.941 . S
C1056 O1057 1.258 . S
C1056 O1058 1.263 . S
O1057 Co1054 1.970 . S
O1057 C1056 1.258 . S
O1058 Co1055 1.966 . S
O1058 C1056 1.263 . S
C1059 O1060 1.235 . S
C1059 O1086 1.289 . S
O1060 C1059 1.235 . S
C1061 C1063 1.400 . S
C1061 N1064 1.351 . S
C1061 C1066 1.501 . S
C1062 C1063 1.387 . S
C1062 N1065 1.341 . S
C1063 C1061 1.400 . S
C1063 C1062 1.387 . S
N1064 Co1055 2.022 . S
N1064 C1061 1.351 . S
N1064 N1065 1.365 . S
N1065 C1062 1.341 . S
N1065 N1064 1.365 . S
N1065 H1085 0.862 . S
C1066 C1061 1.501 . S
C1066 H1067 0.961 . S
C1066 H1068 0.961 . S
C1066 H1069 0.960 . S
H1067 C1066 0.961 . S
H1068 C1066 0.961 . S
H1069 C1066 0.960 . S
C1070 N1071 1.342 . S
C1070 C1074 1.401 . S
C1070 C1075 1.499 . S
N1071 Co1054 1.989 . S
N1071 C1070 1.342 . S
N1071 N1072 1.388 . S
N1072 Co1055 1.993 . S
N1072 N1071 1.388 . S
N1072 C1073 1.346 . S
C1073 N1072 1.346 . S
C1073 C1074 1.396 . S
C1073 C1083 1.510 . S
C1074 C1070 1.401 . S
C1074 C1073 1.396 . S
C1075 C1070 1.499 . S
C1075 H1076 0.959 . S
C1075 H1077 0.960 . S
C1075 H1078 0.961 . S
H1076 C1075 0.959 . S
H1077 C1075 0.960 . S
H1078 C1075 0.961 . S
O1079 Co1054 1.967 . S
O1079 C1087 1.258 . S
O1080 Co1055 1.941 . S
O1080 C1087 1.266 . S
H1081 C1083 0.959 . S
H1082 C1083 0.961 . S
C1083 C1073 1.510 . S
C1083 H1081 0.959 . S
C1083 H1082 0.961 . S
C1083 H1084 0.960 . S
H1084 C1083 0.960 . S
H1085 N1065 0.862 . S
O1086 Co1054 1.920 . S
O1086 C1059 1.289 . S
C1087 O1079 1.258 . S
C1087 O1080 1.266 . S
H1088 C1096 0.897 1_565 S
H1089 C1098 0.897 1_565 S
H1090 C1100 0.930 . S
H1091 C1103 0.929 . S
H1092 C1106 0.929 1_545 S
H1093 C1108 0.960 . S
H1094 C1108 0.942 1_565 S
H1095 C1108 0.960 . S
C1096 H1088 0.897 1_545 S
C1096 C1097 1.377 . S
C1096 C1098 1.396 . S
C1097 C1096 1.377 . S
C1097 C1103 1.390 . S
C1098 H1089 0.897 1_545 S
C1098 C1096 1.396 . S
C1098 C1099 1.393 . S
C1099 C1098 1.393 . S
C1099 C1100 1.400 . S
C1099 C1104 1.490 . S
C1100 H1090 0.930 . S
C1100 C1099 1.400 . S
C1100 C1103 1.386 . S
H1101 C1117 0.930 1_545 S
H1102 C1118 0.931 1_545 S
C1103 H1091 0.929 . S
C1103 C1097 1.390 . S
C1103 C1100 1.386 . S
C1104 C1099 1.490 . S
C1104 C1106 1.396 1_545 S
C1104 C1107 1.403 . S
H1105 C1111 0.930 . S
C1106 H1092 0.929 1_565 S
C1106 C1104 1.396 1_565 S
C1106 C1109 1.401 1_554 S
C1107 C1104 1.403 . S
C1107 C1108 1.524 . S
C1107 C1111 1.400 1_544 S
C1108 H1093 0.960 . S
C1108 H1094 0.942 1_545 S
C1108 H1095 0.960 . S
C1108 C1107 1.524 . S
C1109 C1106 1.401 1_556 S
C1109 C1110 1.392 . S
C1109 C1113 1.495 . S
C1110 C1109 1.392 . S
C1110 C1111 1.385 . S
C1110 C1112 1.478 . S
C1111 H1105 0.930 . S
C1111 C1107 1.400 1_566 S
C1111 C1110 1.385 . S
C1112 C1110 1.478 . S
C1112 C1114 1.381 . S
C1112 C1118 1.383 . S
C1113 C1109 1.495 . S
C1113 H1119 0.959 . S
C1113 H1120 0.961 . S
C1113 H1121 0.960 . S
C1114 C1112 1.381 . S
C1114 C1115 1.394 . S
C1114 H1122 0.930 . S
C1115 C1114 1.394 . S
C1115 C1116 1.383 . S
C1115 H1123 0.929 . S
C1116 C1115 1.383 . S
C1116 C1117 1.377 . S
C1117 H1101 0.930 1_565 S
C1117 C1116 1.377 . S
C1117 C1118 1.379 . S
C1118 H1102 0.931 1_565 S
C1118 C1112 1.383 . S
C1118 C1117 1.379 . S
H1119 C1113 0.959 . S
H1120 C1113 0.961 . S
H1121 C1113 0.960 . S
H1122 C1114 0.930 . S
H1123 C1115 0.929 . S
H1124 C1132 0.929 . S
H1125 C1134 0.930 . S
H1126 C1136 0.930 . S
H1127 C1139 0.929 . S
H1128 C1142 0.930 . S
H1129 C1144 0.960 1_554 S
H1130 C1144 0.960 . S
H1131 C1144 0.960 . S
C1132 H1124 0.929 . S
C1132 C1133 1.377 . S
C1132 C1134 1.384 . S
C1133 C1132 1.377 . S
C1133 C1139 1.390 . S
C1134 H1125 0.930 . S
C1134 C1132 1.384 . S
C1134 C1135 1.372 . S
C1135 C1134 1.372 . S
C1135 C1136 1.400 . S
C1135 C1140 1.490 . S
C1136 H1126 0.930 . S
C1136 C1135 1.400 . S
C1136 C1139 1.386 . S
H1137 C1153 0.930 . S
H1138 C1154 0.931 . S
C1139 H1127 0.929 . S
C1139 C1133 1.390 . S
C1139 C1136 1.386 . S
C1140 C1135 1.490 . S
C1140 C1142 1.395 . S
C1140 C1143 1.403 . S
H1141 C1147 0.930 . S
C1142 H1128 0.930 . S
C1142 C1140 1.395 . S
C1142 C1145 1.403 1_556 S
C1143 C1140 1.403 . S
C1143 C1144 1.524 . S
C1143 C1147 1.400 1_556 S
C1144 H1129 0.960 1_556 S
C1144 H1130 0.960 . S
C1144 H1131 0.960 . S
C1144 C1143 1.524 . S
C1145 C1142 1.403 1_554 S
C1145 C1146 1.392 . S
C1145 C1149 1.495 . S
C1146 C1145 1.392 . S
C1146 C1147 1.385 . S
C1146 C1148 1.478 . S
C1147 H1141 0.930 . S
C1147 C1143 1.400 1_554 S
C1147 C1146 1.385 . S
C1148 C1146 1.478 . S
C1148 C1150 1.381 . S
C1148 C1154 1.383 . S
C1149 C1145 1.495 . S
C1149 H1155 0.909 1_554 S
C1149 H1156 0.961 . S
C1149 H1157 0.960 . S
C1150 C1148 1.381 . S
C1150 C1151 1.394 . S
C1150 H1158 0.930 . S
C1151 C1150 1.394 . S
C1151 C1152 1.383 . S
C1151 H1159 0.929 . S
C1152 C1151 1.383 . S
C1152 C1153 1.377 . S
C1153 H1137 0.930 . S
C1153 C1152 1.377 . S
C1153 C1154 1.379 . S
C1154 H1138 0.931 . S
C1154 C1148 1.383 . S
C1154 C1153 1.379 . S
H1155 C1149 0.909 1_556 S
H1156 C1149 0.961 . S
H1157 C1149 0.960 . S
H1158 C1150 0.930 . S
H1159 C1151 0.929 . S
H1160 C1168 0.929 . S
H1161 C1170 0.930 . S
H1162 C1172 0.930 . S
H1163 C1175 0.929 . S
H1164 C1178 0.930 . S
H1165 C1180 0.960 . S
H1166 C1180 0.960 . S
H1167 C1180 0.960 . S
C1168 H1160 0.929 . S
C1168 C1169 1.377 . S
C1168 C1170 1.384 . S
C1169 C1168 1.377 . S
C1169 C1175 1.390 . S
C1170 H1161 0.930 . S
C1170 C1168 1.384 . S
C1170 C1171 1.372 . S
C1171 C1170 1.372 . S
C1171 C1172 1.400 . S
C1171 C1176 1.490 . S
C1172 H1162 0.930 . S
C1172 C1171 1.400 . S
C1172 C1175 1.386 . S
H1173 C1189 0.930 . S
H1174 C1190 0.931 . S
C1175 H1163 0.929 . S
C1175 C1169 1.390 . S
C1175 C1172 1.386 . S
C1176 C1171 1.490 . S
C1176 C1178 1.395 . S
C1176 C1179 1.403 . S
H1177 C1183 0.930 . S
C1178 H1164 0.930 . S
C1178 C1176 1.395 . S
C1178 C1181 1.403 . S
C1179 C1176 1.403 . S
C1179 C1180 1.524 . S
C1179 C1183 1.400 . S
C1180 H1165 0.960 . S
C1180 H1166 0.960 . S
C1180 H1167 0.960 . S
C1180 C1179 1.524 . S
C1181 C1178 1.403 . S
C1181 C1182 1.392 . S
C1181 C1185 1.495 . S
C1182 C1181 1.392 . S
C1182 C1183 1.385 . S
C1182 C1184 1.478 . S
C1183 H1177 0.930 . S
C1183 C1179 1.400 . S
C1183 C1182 1.385 . S
C1184 C1182 1.478 . S
C1184 C1186 1.381 . S
C1184 C1190 1.383 . S
C1185 C1181 1.495 . S
C1185 H1191 0.959 . S
C1185 H1192 0.961 . S
C1185 H1193 0.960 . S
C1186 C1184 1.381 . S
C1186 C1187 1.394 . S
C1186 H1194 0.930 . S
C1187 C1186 1.394 . S
C1187 C1188 1.383 . S
C1187 H1195 0.929 . S
C1188 C1187 1.383 . S
C1188 C1189 1.377 . S
C1189 H1173 0.930 . S
C1189 C1188 1.377 . S
C1189 C1190 1.379 . S
C1190 H1174 0.931 . S
C1190 C1184 1.383 . S
C1190 C1189 1.379 . S
H1191 C1185 0.959 . S
H1192 C1185 0.961 . S
H1193 C1185 0.960 . S
H1194 C1186 0.930 . S
H1195 C1187 0.929 . S
H1196 C1204 0.929 . S
H1197 C1206 0.930 . S
H1198 C1208 0.930 1_545 S
H1199 C1211 0.929 . S
H1200 C1214 0.930 . S
H1201 C1216 0.960 . S
H1202 C1216 0.960 . S
H1203 C1216 0.960 . S
C1204 H1196 0.929 . S
C1204 C1205 1.377 . S
C1204 C1206 1.384 . S
C1205 C1204 1.377 . S
C1205 C1211 1.390 . S
C1206 H1197 0.930 . S
C1206 C1204 1.384 . S
C1206 C1207 1.372 . S
C1207 C1206 1.372 . S
C1207 C1208 1.400 . S
C1207 C1212 1.490 . S
C1208 H1198 0.930 1_565 S
C1208 C1207 1.400 . S
C1208 C1211 1.386 . S
H1209 C1225 0.930 . S
H1210 C1226 0.931 . S
C1211 H1199 0.929 . S
C1211 C1205 1.390 . S
C1211 C1208 1.386 . S
C1212 C1207 1.490 . S
C1212 C1214 1.395 . S
C1212 C1215 1.403 1_565 S
H1213 C1219 0.930 . S
C1214 H1200 0.930 . S
C1214 C1212 1.395 . S
C1214 C1217 1.403 . S
C1215 C1212 1.403 1_545 S
C1215 C1216 1.524 . S
C1215 C1219 1.400 . S
C1216 H1201 0.960 . S
C1216 H1202 0.960 . S
C1216 H1203 0.960 . S
C1216 C1215 1.524 . S
C1217 C1214 1.403 . S
C1217 C1218 1.392 1_565 S
C1217 C1221 1.495 . S
C1218 C1217 1.392 1_545 S
C1218 C1219 1.385 . S
C1218 C1220 1.478 . S
C1219 H1213 0.930 . S
C1219 C1215 1.400 . S
C1219 C1218 1.385 . S
C1220 C1218 1.478 . S
C1220 C1222 1.381 . S
C1220 C1226 1.383 . S
C1221 C1217 1.495 . S
C1221 H1227 0.959 . S
C1221 H1228 0.961 . S
C1221 H1229 0.960 . S
C1222 C1220 1.381 . S
C1222 C1223 1.394 . S
C1222 H1230 0.930 1_545 S
C1223 C1222 1.394 . S
C1223 C1224 1.383 . S
C1223 H1231 0.929 . S
C1224 C1223 1.383 . S
C1224 C1225 1.377 . S
C1225 H1209 0.930 . S
C1225 C1224 1.377 . S
C1225 C1226 1.379 . S
C1226 H1210 0.931 . S
C1226 C1220 1.383 . S
C1226 C1225 1.379 . S
H1227 C1221 0.959 . S
H1228 C1221 0.961 . S
H1229 C1221 0.960 . S
H1230 C1222 0.930 1_565 S
H1231 C1223 0.929 . S
H1232 C1240 0.929 . S
H1233 C1242 0.930 . S
H1234 C1244 0.930 . S
H1235 C1247 0.929 . S
H1236 C1250 0.930 . S
H1237 C1252 0.960 . S
H1238 C1252 0.960 . S
H1239 C1252 0.960 . S
C1240 H1232 0.929 . S
C1240 C1241 1.377 . S
C1240 C1242 1.384 . S
C1241 C1240 1.377 . S
C1241 C1247 1.390 . S
C1242 H1233 0.930 . S
C1242 C1240 1.384 . S
C1242 C1243 1.372 . S
C1243 C1242 1.372 . S
C1243 C1244 1.400 . S
C1243 C1248 1.490 . S
C1244 H1234 0.930 . S
C1244 C1243 1.400 . S
C1244 C1247 1.386 . S
H1245 C1261 0.930 . S
H1246 C1262 0.931 . S
C1247 H1235 0.929 . S
C1247 C1241 1.390 . S
C1247 C1244 1.386 . S
C1248 C1243 1.490 . S
C1248 C1250 1.395 . S
C1248 C1251 1.403 . S
H1249 C1255 0.930 . S
C1250 H1236 0.930 . S
C1250 C1248 1.395 . S
C1250 C1253 1.403 1_556 S
C1251 C1248 1.403 . S
C1251 C1252 1.524 . S
C1251 C1255 1.400 1_556 S
C1252 H1237 0.960 . S
C1252 H1238 0.960 . S
C1252 H1239 0.960 . S
C1252 C1251 1.524 . S
C1253 C1250 1.403 1_554 S
C1253 C1254 1.392 . S
C1253 C1257 1.495 . S
C1254 C1253 1.392 . S
C1254 C1255 1.385 . S
C1254 C1256 1.478 . S
C1255 H1249 0.930 . S
C1255 C1251 1.400 1_554 S
C1255 C1254 1.385 . S
C1256 C1254 1.478 . S
C1256 C1258 1.381 . S
C1256 C1262 1.383 . S
C1257 C1253 1.495 . S
C1257 H1263 0.959 . S
C1257 H1264 0.961 . S
C1257 H1265 0.960 . S
C1258 C1256 1.381 . S
C1258 C1259 1.394 . S
C1258 H1266 0.930 . S
C1259 C1258 1.394 . S
C1259 C1260 1.383 . S
C1259 H1267 0.929 . S
C1260 C1259 1.383 . S
C1260 C1261 1.377 . S
C1261 H1245 0.930 . S
C1261 C1260 1.377 . S
C1261 C1262 1.379 . S
C1262 H1246 0.931 . S
C1262 C1256 1.383 . S
C1262 C1261 1.379 . S
H1263 C1257 0.959 . S
H1264 C1257 0.961 . S
H1265 C1257 0.960 . S
H1266 C1258 0.930 . S
H1267 C1259 0.929 . S
H1268 C1276 0.929 . S
H1269 C1278 0.930 . S
H1270 C1280 0.930 . S
H1271 C1283 0.929 . S
H1272 C1286 0.930 . S
H1273 C1288 0.960 . S
H1274 C1288 0.960 . S
H1275 C1288 0.960 . S
C1276 H1268 0.929 . S
C1276 C1277 1.377 . S
C1276 C1278 1.384 . S
C1277 C1276 1.377 . S
C1277 C1283 1.390 . S
C1278 H1269 0.930 . S
C1278 C1276 1.384 . S
C1278 C1279 1.372 . S
C1279 C1278 1.372 . S
C1279 C1280 1.400 . S
C1279 C1284 1.490 . S
C1280 H1270 0.930 . S
C1280 C1279 1.400 . S
C1280 C1283 1.386 . S
H1281 C1297 0.930 . S
H1282 C1298 0.931 . S
C1283 H1271 0.929 . S
C1283 C1277 1.390 . S
C1283 C1280 1.386 . S
C1284 C1279 1.490 . S
C1284 C1286 1.395 . S
C1284 C1287 1.403 . S
H1285 C1291 0.930 . S
C1286 H1272 0.930 . S
C1286 C1284 1.395 . S
C1286 C1289 1.403 . S
C1287 C1284 1.403 . S
C1287 C1288 1.524 . S
C1287 C1291 1.400 . S
C1288 H1273 0.960 . S
C1288 H1274 0.960 . S
C1288 H1275 0.960 . S
C1288 C1287 1.524 . S
C1289 C1286 1.403 . S
C1289 C1290 1.392 . S
C1289 C1293 1.495 . S
C1290 C1289 1.392 . S
C1290 C1291 1.385 . S
C1290 C1292 1.478 . S
C1291 H1285 0.930 . S
C1291 C1287 1.400 . S
C1291 C1290 1.385 . S
C1292 C1290 1.478 . S
C1292 C1294 1.381 . S
C1292 C1298 1.383 . S
C1293 C1289 1.495 . S
C1293 H1299 0.959 . S
C1293 H1300 0.961 . S
C1293 H1301 0.960 . S
C1294 C1292 1.381 . S
C1294 C1295 1.394 . S
C1294 H1302 0.930 . S
C1295 C1294 1.394 . S
C1295 C1296 1.383 . S
C1295 H1303 0.929 . S
C1296 C1295 1.383 . S
C1296 C1297 1.377 . S
C1297 H1281 0.930 . S
C1297 C1296 1.377 . S
C1297 C1298 1.379 . S
C1298 H1282 0.931 . S
C1298 C1292 1.383 . S
C1298 C1297 1.379 . S
H1299 C1293 0.959 . S
H1300 C1293 0.961 . S
H1301 C1293 0.960 . S
H1302 C1294 0.930 . S
H1303 C1295 0.929 . S
H1304 C1312 0.929 . S
H1305 C1314 0.930 . S
H1306 C1316 0.930 1_545 S
H1307 C1319 0.929 . S
H1308 C1322 0.930 . S
H1309 C1324 0.960 . S
H1310 C1324 0.960 . S
H1311 C1324 0.960 . S
C1312 H1304 0.929 . S
C1312 C1313 1.377 . S
C1312 C1314 1.384 . S
C1313 C1312 1.377 . S
C1313 C1319 1.390 . S
C1314 H1305 0.930 . S
C1314 C1312 1.384 . S
C1314 C1315 1.372 . S
C1315 C1314 1.372 . S
C1315 C1316 1.400 . S
C1315 C1320 1.490 . S
C1316 H1306 0.930 1_565 S
C1316 C1315 1.400 . S
C1316 C1319 1.386 . S
H1317 C1333 0.930 . S
H1318 C1334 0.931 . S
C1319 H1307 0.929 . S
C1319 C1313 1.390 . S
C1319 C1316 1.386 . S
C1320 C1315 1.490 . S
C1320 C1322 1.395 . S
C1320 C1323 1.403 1_565 S
H1321 C1327 0.930 . S
C1322 H1308 0.930 . S
C1322 C1320 1.395 . S
C1322 C1325 1.403 . S
C1323 C1320 1.403 1_545 S
C1323 C1324 1.524 . S
C1323 C1327 1.400 . S
C1324 H1309 0.960 . S
C1324 H1310 0.960 . S
C1324 H1311 0.960 . S
C1324 C1323 1.524 . S
C1325 C1322 1.403 . S
C1325 C1326 1.392 1_565 S
C1325 C1329 1.495 . S
C1326 C1325 1.392 1_545 S
C1326 C1327 1.385 . S
C1326 C1328 1.478 . S
C1327 H1321 0.930 . S
C1327 C1323 1.400 . S
C1327 C1326 1.385 . S
C1328 C1326 1.478 . S
C1328 C1330 1.381 . S
C1328 C1334 1.383 . S
C1329 C1325 1.495 . S
C1329 H1335 0.959 . S
C1329 H1336 0.961 . S
C1329 H1337 0.960 . S
C1330 C1328 1.381 . S
C1330 C1331 1.394 . S
C1330 H1338 0.930 1_545 S
C1331 C1330 1.394 . S
C1331 C1332 1.383 . S
C1331 H1339 0.929 . S
C1332 C1331 1.383 . S
C1332 C1333 1.377 . S
C1333 H1317 0.930 . S
C1333 C1332 1.377 . S
C1333 C1334 1.379 . S
C1334 H1318 0.931 . S
C1334 C1328 1.383 . S
C1334 C1333 1.379 . S
H1335 C1329 0.959 . S
H1336 C1329 0.961 . S
H1337 C1329 0.960 . S
H1338 C1330 0.930 1_565 S
H1339 C1331 0.929 . S
H1340 C1348 0.929 . S
H1341 C1350 0.930 . S
H1342 C1352 0.930 . S
H1343 C1355 0.929 . S
H1344 C1358 0.930 . S
H1345 C1360 0.960 . S
H1346 C1360 0.960 . S
H1347 C1360 0.960 . S
C1348 H1340 0.929 . S
C1348 C1349 1.377 . S
C1348 C1350 1.384 . S
C1349 C1348 1.377 . S
C1349 C1355 1.390 . S
C1350 H1341 0.930 . S
C1350 C1348 1.384 . S
C1350 C1351 1.372 . S
C1351 C1350 1.372 . S
C1351 C1352 1.400 . S
C1351 C1356 1.490 . S
C1352 H1342 0.930 . S
C1352 C1351 1.400 . S
C1352 C1355 1.386 . S
H1353 C1369 0.930 . S
H1354 C1370 0.931 . S
C1355 H1343 0.929 . S
C1355 C1349 1.390 . S
C1355 C1352 1.386 . S
C1356 C1351 1.490 . S
C1356 C1358 1.395 . S
C1356 C1359 1.403 . S
H1357 C1363 0.930 . S
C1358 H1344 0.930 . S
C1358 C1356 1.395 . S
C1358 C1361 1.403 . S
C1359 C1356 1.403 . S
C1359 C1360 1.524 . S
C1359 C1363 1.400 . S
C1360 H1345 0.960 . S
C1360 H1346 0.960 . S
C1360 H1347 0.960 . S
C1360 C1359 1.524 . S
C1361 C1358 1.403 . S
C1361 C1362 1.392 . S
C1361 C1365 1.495 . S
C1362 C1361 1.392 . S
C1362 C1363 1.385 . S
C1362 C1364 1.478 . S
C1363 H1357 0.930 . S
C1363 C1359 1.400 . S
C1363 C1362 1.385 . S
C1364 C1362 1.478 . S
C1364 C1366 1.381 . S
C1364 C1370 1.383 . S
C1365 C1361 1.495 . S
C1365 H1371 0.959 . S
C1365 H1372 0.961 . S
C1365 H1373 0.960 . S
C1366 C1364 1.381 . S
C1366 C1367 1.394 . S
C1366 H1374 0.930 . S
C1367 C1366 1.394 . S
C1367 C1368 1.383 . S
C1367 H1375 0.929 . S
C1368 C1367 1.383 . S
C1368 C1369 1.377 . S
C1369 H1353 0.930 . S
C1369 C1368 1.377 . S
C1369 C1370 1.379 . S
C1370 H1354 0.931 . S
C1370 C1364 1.383 . S
C1370 C1369 1.379 . S
H1371 C1365 0.959 . S
H1372 C1365 0.961 . S
H1373 C1365 0.960 . S
H1374 C1366 0.930 . S
H1375 C1367 0.929 . S
H1376 C1384 0.929 . S
H1377 C1386 0.930 . S
H1378 C1388 0.930 . S
H1379 C1391 0.929 . S
H1380 C1394 0.930 . S
H1381 C1396 0.960 . S
H1382 C1396 0.960 . S
H1383 C1396 0.960 . S
C1384 H1376 0.929 . S
C1384 C1385 1.377 . S
C1384 C1386 1.384 . S
C1385 C1384 1.377 . S
C1385 C1391 1.390 . S
C1386 H1377 0.930 . S
C1386 C1384 1.384 . S
C1386 C1387 1.372 . S
C1387 C1386 1.372 . S
C1387 C1388 1.400 . S
C1387 C1392 1.490 . S
C1388 H1378 0.930 . S
C1388 C1387 1.400 . S
C1388 C1391 1.386 . S
H1389 C1405 0.930 . S
H1390 C1406 0.931 . S
C1391 H1379 0.929 . S
C1391 C1385 1.390 . S
C1391 C1388 1.386 . S
C1392 C1387 1.490 . S
C1392 C1394 1.395 . S
C1392 C1395 1.403 . S
H1393 C1399 0.930 . S
C1394 H1380 0.930 . S
C1394 C1392 1.395 . S
C1394 C1397 1.403 . S
C1395 C1392 1.403 . S
C1395 C1396 1.524 . S
C1395 C1399 1.400 . S
C1396 H1381 0.960 . S
C1396 H1382 0.960 . S
C1396 H1383 0.960 . S
C1396 C1395 1.524 . S
C1397 C1394 1.403 . S
C1397 C1398 1.392 . S
C1397 C1401 1.495 . S
C1398 C1397 1.392 . S
C1398 C1399 1.385 . S
C1398 C1400 1.478 . S
C1399 H1393 0.930 . S
C1399 C1395 1.400 . S
C1399 C1398 1.385 . S
C1400 C1398 1.478 . S
C1400 C1402 1.381 . S
C1400 C1406 1.383 . S
C1401 C1397 1.495 . S
C1401 H1407 0.959 . S
C1401 H1408 0.961 . S
C1401 H1409 0.960 . S
C1402 C1400 1.381 . S
C1402 C1403 1.394 . S
C1402 H1410 0.930 . S
C1403 C1402 1.394 . S
C1403 C1404 1.383 . S
C1403 H1411 0.929 . S
C1404 C1403 1.383 . S
C1404 C1405 1.377 . S
C1405 H1389 0.930 . S
C1405 C1404 1.377 . S
C1405 C1406 1.379 . S
C1406 H1390 0.931 . S
C1406 C1400 1.383 . S
C1406 C1405 1.379 . S
H1407 C1401 0.959 . S
H1408 C1401 0.961 . S
H1409 C1401 0.960 . S
H1410 C1402 0.930 . S
H1411 C1403 0.929 . S
H1412 C1420 0.929 . S
H1413 C1422 0.930 . S
H1414 C1424 0.930 . S
H1415 C1427 0.929 . S
H1416 C1430 0.930 . S
H1417 C1432 0.960 . S
H1418 C1432 0.960 . S
H1419 C1432 0.960 . S
C1420 H1412 0.929 . S
C1420 C1421 1.377 . S
C1420 C1422 1.384 . S
C1421 C1420 1.377 . S
C1421 C1427 1.390 . S
C1422 H1413 0.930 . S
C1422 C1420 1.384 . S
C1422 C1423 1.372 . S
C1423 C1422 1.372 . S
C1423 C1424 1.400 . S
C1423 C1428 1.490 . S
C1424 H1414 0.930 . S
C1424 C1423 1.400 . S
C1424 C1427 1.386 . S
H1425 C1441 0.930 . S
H1426 C1442 0.931 . S
C1427 H1415 0.929 . S
C1427 C1421 1.390 . S
C1427 C1424 1.386 . S
C1428 C1423 1.490 . S
C1428 C1430 1.395 . S
C1428 C1431 1.403 . S
H1429 C1435 0.930 . S
C1430 H1416 0.930 . S
C1430 C1428 1.395 . S
C1430 C1433 1.403 . S
C1431 C1428 1.403 . S
C1431 C1432 1.524 . S
C1431 C1435 1.400 . S
C1432 H1417 0.960 . S
C1432 H1418 0.960 . S
C1432 H1419 0.960 . S
C1432 C1431 1.524 . S
C1433 C1430 1.403 . S
C1433 C1434 1.392 . S
C1433 C1437 1.495 . S
C1434 C1433 1.392 . S
C1434 C1435 1.385 . S
C1434 C1436 1.478 . S
C1435 H1429 0.930 . S
C1435 C1431 1.400 . S
C1435 C1434 1.385 . S
C1436 C1434 1.478 . S
C1436 C1438 1.381 . S
C1436 C1442 1.383 . S
C1437 C1433 1.495 . S
C1437 H1443 0.959 . S
C1437 H1444 0.961 . S
C1437 H1445 0.960 . S
C1438 C1436 1.381 . S
C1438 C1439 1.394 . S
C1438 H1446 0.930 . S
C1439 C1438 1.394 . S
C1439 C1440 1.383 . S
C1439 H1447 0.929 . S
C1440 C1439 1.383 . S
C1440 C1441 1.377 . S
C1441 H1425 0.930 . S
C1441 C1440 1.377 . S
C1441 C1442 1.379 . S
C1442 H1426 0.931 . S
C1442 C1436 1.383 . S
C1442 C1441 1.379 . S
H1443 C1437 0.959 . S
H1444 C1437 0.961 . S
H1445 C1437 0.960 . S
H1446 C1438 0.930 . S
H1447 C1439 0.929 . S
H1448 C1456 0.929 . S
H1449 C1458 0.930 . S
H1450 C1460 0.930 . S
H1451 C1463 0.929 . S
H1452 C1466 0.930 . S
H1453 C1468 0.960 . S
H1454 C1468 0.960 . S
H1455 C1468 0.960 . S
C1456 H1448 0.929 . S
C1456 C1457 1.377 . S
C1456 C1458 1.384 . S
C1457 C1456 1.377 . S
C1457 C1463 1.390 . S
C1458 H1449 0.930 . S
C1458 C1456 1.384 . S
C1458 C1459 1.372 . S
C1459 C1458 1.372 . S
C1459 C1460 1.400 . S
C1459 C1464 1.490 . S
C1460 H1450 0.930 . S
C1460 C1459 1.400 . S
C1460 C1463 1.386 . S
H1461 C1477 0.930 . S
H1462 C1478 0.931 . S
C1463 H1451 0.929 . S
C1463 C1457 1.390 . S
C1463 C1460 1.386 . S
C1464 C1459 1.490 . S
C1464 C1466 1.395 . S
C1464 C1467 1.403 . S
H1465 C1471 0.930 . S
C1466 H1452 0.930 . S
C1466 C1464 1.395 . S
C1466 C1469 1.403 . S
C1467 C1464 1.403 . S
C1467 C1468 1.524 . S
C1467 C1471 1.400 . S
C1468 H1453 0.960 . S
C1468 H1454 0.960 . S
C1468 H1455 0.960 . S
C1468 C1467 1.524 . S
C1469 C1466 1.403 . S
C1469 C1470 1.392 . S
C1469 C1473 1.495 . S
C1470 C1469 1.392 . S
C1470 C1471 1.385 . S
C1470 C1472 1.478 . S
C1471 H1465 0.930 . S
C1471 C1467 1.400 . S
C1471 C1470 1.385 . S
C1472 C1470 1.478 . S
C1472 C1474 1.381 . S
C1472 C1478 1.383 . S
C1473 C1469 1.495 . S
C1473 H1479 0.959 . S
C1473 H1480 0.961 . S
C1473 H1481 0.960 . S
C1474 C1472 1.381 . S
C1474 C1475 1.394 . S
C1474 H1482 0.930 . S
C1475 C1474 1.394 . S
C1475 C1476 1.383 . S
C1475 H1483 0.929 . S
C1476 C1475 1.383 . S
C1476 C1477 1.377 . S
C1477 H1461 0.930 . S
C1477 C1476 1.377 . S
C1477 C1478 1.379 . S
C1478 H1462 0.931 . S
C1478 C1472 1.383 . S
C1478 C1477 1.379 . S
H1479 C1473 0.959 . S
H1480 C1473 0.961 . S
H1481 C1473 0.960 . S
H1482 C1474 0.930 . S
H1483 C1475 0.929 . S
H1484 C1492 0.929 . S
H1485 C1494 0.930 . S
H1486 C1496 0.930 . S
H1487 C1499 0.929 . S
H1488 C1502 0.930 . S
H1489 C1504 0.960 . S
H1490 C1504 0.960 . S
H1491 C1504 0.960 . S
C1492 H1484 0.929 . S
C1492 C1493 1.377 . S
C1492 C1494 1.384 . S
C1493 C1492 1.377 . S
C1493 C1499 1.390 . S
C1494 H1485 0.930 . S
C1494 C1492 1.384 . S
C1494 C1495 1.372 . S
C1495 C1494 1.372 . S
C1495 C1496 1.400 . S
C1495 C1500 1.490 . S
C1496 H1486 0.930 . S
C1496 C1495 1.400 . S
C1496 C1499 1.386 . S
H1497 C1513 0.930 . S
H1498 C1514 0.931 . S
C1499 H1487 0.929 . S
C1499 C1493 1.390 . S
C1499 C1496 1.386 . S
C1500 C1495 1.490 . S
C1500 C1502 1.395 . S
C1500 C1503 1.403 . S
H1501 C1507 0.930 . S
C1502 H1488 0.930 . S
C1502 C1500 1.395 . S
C1502 C1505 1.403 . S
C1503 C1500 1.403 . S
C1503 C1504 1.524 . S
C1503 C1507 1.400 . S
C1504 H1489 0.960 . S
C1504 H1490 0.960 . S
C1504 H1491 0.960 . S
C1504 C1503 1.524 . S
C1505 C1502 1.403 . S
C1505 C1506 1.392 . S
C1505 C1509 1.495 . S
C1506 C1505 1.392 . S
C1506 C1507 1.385 . S
C1506 C1508 1.478 . S
C1507 H1501 0.930 . S
C1507 C1503 1.400 . S
C1507 C1506 1.385 . S
C1508 C1506 1.478 . S
C1508 C1510 1.381 . S
C1508 C1514 1.383 . S
C1509 C1505 1.495 . S
C1509 H1515 0.959 . S
C1509 H1516 0.961 . S
C1509 H1517 0.960 . S
C1510 C1508 1.381 . S
C1510 C1511 1.394 . S
C1510 H1518 0.930 . S
C1511 C1510 1.394 . S
C1511 C1512 1.383 . S
C1511 H1519 0.929 . S
C1512 C1511 1.383 . S
C1512 C1513 1.377 . S
C1513 H1497 0.930 . S
C1513 C1512 1.377 . S
C1513 C1514 1.379 . S
C1514 H1498 0.931 . S
C1514 C1508 1.383 . S
C1514 C1513 1.379 . S
H1515 C1509 0.959 . S
H1516 C1509 0.961 . S
H1517 C1509 0.960 . S
H1518 C1510 0.930 . S
H1519 C1511 0.929 . S
H1520 C1528 0.929 . S
H1521 C1530 0.930 1_545 S
H1522 C1532 0.918 1_655 S
H1523 C1535 0.929 1_655 S
H1524 C1538 0.930 . S
H1525 C1540 0.960 . S
H1526 C1540 0.960 . S
H1527 C1540 0.960 . S
C1528 H1520 0.929 . S
C1528 C1529 1.377 . S
C1528 C1530 1.384 . S
C1529 C1528 1.377 . S
C1529 C1535 1.390 . S
C1530 H1521 0.930 1_565 S
C1530 C1528 1.384 . S
C1530 C1531 1.372 . S
C1531 C1530 1.372 . S
C1531 C1532 1.408 . S
C1531 C1536 1.490 . S
C1532 H1522 0.918 1_455 S
C1532 C1531 1.408 . S
C1532 C1535 1.389 . S
H1533 C1549 0.930 . S
H1534 C1550 0.931 . S
C1535 H1523 0.929 1_455 S
C1535 C1529 1.390 . S
C1535 C1532 1.389 . S
C1536 C1531 1.490 . S
C1536 C1538 1.395 1_565 S
C1536 C1539 1.403 . S
H1537 C1543 0.930 . S
C1538 H1524 0.930 . S
C1538 C1536 1.395 1_545 S
C1538 C1541 1.403 1_455 S
C1539 C1536 1.403 . S
C1539 C1540 1.524 . S
C1539 C1543 1.400 1_455 S
C1540 H1525 0.960 . S
C1540 H1526 0.960 . S
C1540 H1527 0.960 . S
C1540 C1539 1.524 . S
C1541 C1538 1.403 1_655 S
C1541 C1542 1.392 . S
C1541 C1545 1.495 . S
C1542 C1541 1.392 . S
C1542 C1543 1.385 1_545 S
C1542 C1544 1.478 . S
C1543 H1537 0.930 . S
C1543 C1539 1.400 1_655 S
C1543 C1542 1.385 1_565 S
C1544 C1542 1.478 . S
C1544 C1546 1.381 1_655 S
C1544 C1550 1.383 . S
C1545 C1541 1.495 . S
C1545 H1551 0.959 . S
C1545 H1552 0.961 . S
C1545 H1553 0.975 . S
C1546 C1544 1.381 1_455 S
C1546 C1547 1.394 1_455 S
C1546 H1554 0.930 . S
C1547 C1546 1.394 1_655 S
C1547 C1548 1.383 . S
C1547 H1555 0.929 1_655 S
C1548 C1547 1.383 . S
C1548 C1549 1.377 . S
C1549 H1533 0.930 . S
C1549 C1548 1.377 . S
C1549 C1550 1.379 . S
C1550 H1534 0.931 . S
C1550 C1544 1.383 . S
C1550 C1549 1.379 . S
H1551 C1545 0.959 . S
H1552 C1545 0.961 . S
H1553 C1545 0.975 . S
H1554 C1546 0.930 . S
H1555 C1547 0.929 1_455 S
H1556 C1564 0.929 1_455 S
H1557 C1566 0.930 . S
H1558 C1568 0.930 . S
H1559 C1571 0.929 . S
H1560 C1574 0.930 . S
H1561 C1576 0.960 . S
H1562 C1576 0.960 1_455 S
H1563 C1576 0.960 . S
C1564 H1556 0.929 1_655 S
C1564 C1565 1.377 . S
C1564 C1566 1.384 1_655 S
C1565 C1564 1.377 . S
C1565 C1571 1.390 . S
C1566 H1557 0.930 . S
C1566 C1564 1.384 1_455 S
C1566 C1567 1.372 1_455 S
C1567 C1566 1.372 1_655 S
C1567 C1568 1.400 . S
C1567 C1572 1.490 . S
C1568 H1558 0.930 . S
C1568 C1567 1.400 . S
C1568 C1571 1.386 . S
H1569 C1585 0.930 1_655 S
H1570 C1586 0.931 . S
C1571 H1559 0.929 . S
C1571 C1565 1.390 . S
C1571 C1568 1.386 . S
C1572 C1567 1.490 . S
C1572 C1574 1.395 . S
C1572 C1575 1.403 . S
H1573 C1579 0.930 . S
C1574 H1560 0.930 . S
C1574 C1572 1.395 . S
C1574 C1577 1.403 1_655 S
C1575 C1572 1.403 . S
C1575 C1576 1.524 . S
C1575 C1579 1.400 1_655 S
C1576 H1561 0.960 . S
C1576 H1562 0.960 1_655 S
C1576 H1563 0.960 . S
C1576 C1575 1.524 . S
C1577 C1574 1.403 1_455 S
C1577 C1578 1.392 . S
C1577 C1581 1.495 . S
C1578 C1577 1.392 . S
C1578 C1579 1.385 . S
C1578 C1580 1.478 . S
C1579 H1573 0.930 . S
C1579 C1575 1.400 1_455 S
C1579 C1578 1.385 . S
C1580 C1578 1.478 . S
C1580 C1582 1.381 . S
C1580 C1586 1.383 1_455 S
C1581 C1577 1.495 . S
C1581 H1587 0.959 . S
C1581 H1588 0.961 1_455 S
C1581 H1589 0.960 . S
C1582 C1580 1.381 . S
C1582 C1583 1.394 . S
C1582 H1590 0.930 . S
C1583 C1582 1.394 . S
C1583 C1584 1.383 . S
C1583 H1591 0.929 . S
C1584 C1583 1.383 . S
C1584 C1585 1.377 . S
C1585 H1569 0.930 1_455 S
C1585 C1584 1.377 . S
C1585 C1586 1.379 1_455 S
C1586 H1570 0.931 . S
C1586 C1580 1.383 1_655 S
C1586 C1585 1.379 1_655 S
H1587 C1581 0.959 . S
H1588 C1581 0.961 1_655 S
H1589 C1581 0.960 . S
H1590 C1582 0.930 . S
H1591 C1583 0.929 . S
H1592 C1600 0.929 . S
H1593 C1602 0.930 1_655 S
H1594 C1604 0.930 . S
H1595 C1607 0.929 . S
H1596 C1610 0.930 . S
H1597 C1612 0.960 . S
H1598 C1612 0.960 . S
H1599 C1612 0.960 . S
C1600 H1592 0.929 . S
C1600 C1601 1.377 . S
C1600 C1602 1.384 . S
C1601 C1600 1.377 . S
C1601 C1607 1.390 . S
C1602 H1593 0.930 1_455 S
C1602 C1600 1.384 . S
C1602 C1603 1.372 . S
C1603 C1602 1.372 . S
C1603 C1604 1.400 . S
C1603 C1608 1.490 . S
C1604 H1594 0.930 . S
C1604 C1603 1.400 . S
C1604 C1607 1.386 . S
H1605 C1621 0.930 . S
H1606 C1622 0.931 1_455 S
C1607 H1595 0.929 . S
C1607 C1601 1.390 . S
C1607 C1604 1.386 . S
C1608 C1603 1.490 . S
C1608 C1610 1.395 . S
C1608 C1611 1.403 1_455 S
H1609 C1615 0.930 . S
C1610 H1596 0.930 . S
C1610 C1608 1.395 . S
C1610 C1613 1.403 . S
C1611 C1608 1.403 1_655 S
C1611 C1612 1.524 . S
C1611 C1615 1.400 . S
C1612 H1597 0.960 . S
C1612 H1598 0.960 . S
C1612 H1599 0.960 . S
C1612 C1611 1.524 . S
C1613 C1610 1.403 . S
C1613 C1614 1.392 1_455 S
C1613 C1617 1.495 . S
C1614 C1613 1.392 1_655 S
C1614 C1615 1.385 . S
C1614 C1616 1.478 . S
C1615 H1609 0.930 . S
C1615 C1611 1.400 . S
C1615 C1614 1.385 . S
C1616 C1614 1.478 . S
C1616 C1618 1.381 . S
C1616 C1622 1.383 . S
C1617 C1613 1.495 . S
C1617 H1623 0.959 . S
C1617 H1624 0.961 . S
C1617 H1625 0.960 . S
C1618 C1616 1.381 . S
C1618 C1619 1.394 . S
C1618 H1626 0.930 . S
C1619 C1618 1.394 . S
C1619 C1620 1.383 . S
C1619 H1627 0.929 . S
C1620 C1619 1.383 . S
C1620 C1621 1.377 . S
C1621 H1605 0.930 . S
C1621 C1620 1.377 . S
C1621 C1622 1.379 . S
C1622 H1606 0.931 1_655 S
C1622 C1616 1.383 . S
C1622 C1621 1.379 . S
H1623 C1617 0.959 . S
H1624 C1617 0.961 . S
H1625 C1617 0.960 . S
H1626 C1618 0.930 . S
H1627 C1619 0.929 . S
H1628 C1636 0.929 . S
H1629 C1638 0.930 . S
H1630 C1640 0.930 . S
H1631 C1643 0.929 1_455 S
H1632 C1646 0.930 . S
H1633 C1648 0.960 . S
H1634 C1648 0.960 . S
H1635 C1648 0.960 . S
C1636 H1628 0.929 . S
C1636 C1637 1.377 . S
C1636 C1638 1.384 . S
C1637 C1636 1.377 . S
C1637 C1643 1.390 . S
C1638 H1629 0.930 . S
C1638 C1636 1.384 . S
C1638 C1639 1.372 . S
C1639 C1638 1.372 . S
C1639 C1640 1.400 1_655 S
C1639 C1644 1.490 . S
C1640 H1630 0.930 . S
C1640 C1639 1.400 1_455 S
C1640 C1643 1.386 1_455 S
H1641 C1657 0.930 . S
H1642 C1658 0.931 . S
C1643 H1631 0.929 1_655 S
C1643 C1637 1.390 . S
C1643 C1640 1.386 1_655 S
C1644 C1639 1.490 . S
C1644 C1646 1.395 . S
C1644 C1647 1.403 1_655 S
H1645 C1651 0.930 . S
C1646 H1632 0.930 . S
C1646 C1644 1.395 . S
C1646 C1649 1.403 1_554 S
C1647 C1644 1.403 1_455 S
C1647 C1648 1.524 . S
C1647 C1651 1.400 1_554 S
C1648 H1633 0.960 . S
C1648 H1634 0.960 . S
C1648 H1635 0.960 . S
C1648 C1647 1.524 . S
C1649 C1646 1.403 1_556 S
C1649 C1650 1.392 1_655 S
C1649 C1653 1.495 . S
C1650 C1649 1.392 1_455 S
C1650 C1651 1.385 . S
C1650 C1652 1.478 . S
C1651 H1645 0.930 . S
C1651 C1647 1.400 1_556 S
C1651 C1650 1.385 . S
C1652 C1650 1.478 . S
C1652 C1654 1.381 1_455 S
C1652 C1658 1.383 . S
C1653 C1649 1.495 . S
C1653 H1659 0.959 . S
C1653 H1660 0.961 . S
C1653 H1661 0.960 . S
C1654 C1652 1.381 1_655 S
C1654 C1655 1.394 1_655 S
C1654 H1662 0.930 . S
C1655 C1654 1.394 1_455 S
C1655 C1656 1.383 . S
C1655 H1663 0.929 1_455 S
C1656 C1655 1.383 . S
C1656 C1657 1.377 . S
C1657 H1641 0.930 . S
C1657 C1656 1.377 . S
C1657 C1658 1.379 . S
C1658 H1642 0.931 . S
C1658 C1652 1.383 . S
C1658 C1657 1.379 . S
H1659 C1653 0.959 . S
H1660 C1653 0.961 . S
H1661 C1653 0.960 . S
H1662 C1654 0.930 . S
H1663 C1655 0.929 1_655 S
H1664 C1672 0.929 . S
H1665 C1674 0.930 . S
H1666 C1676 0.930 . S
H1667 C1679 0.929 . S
H1668 C1682 0.930 . S
H1669 C1684 0.960 . S
H1670 C1684 0.960 . S
H1671 C1684 0.960 1_565 S
C1672 H1664 0.929 . S
C1672 C1673 1.377 . S
C1672 C1674 1.384 . S
C1673 C1672 1.377 . S
C1673 C1679 1.390 1_545 S
C1674 H1665 0.930 . S
C1674 C1672 1.384 . S
C1674 C1675 1.372 . S
C1675 C1674 1.372 . S
C1675 C1676 1.400 1_545 S
C1675 C1680 1.490 . S
C1676 H1666 0.930 . S
C1676 C1675 1.400 1_565 S
C1676 C1679 1.386 . S
H1677 C1693 0.930 1_655 S
H1678 C1694 0.931 . S
C1679 H1667 0.929 . S
C1679 C1673 1.390 1_565 S
C1679 C1676 1.386 . S
C1680 C1675 1.490 . S
C1680 C1682 1.395 . S
C1680 C1683 1.403 . S
H1681 C1687 0.930 . S
C1682 H1668 0.930 . S
C1682 C1680 1.395 . S
C1682 C1685 1.403 . S
C1683 C1680 1.403 . S
C1683 C1684 1.524 . S
C1683 C1687 1.400 . S
C1684 H1669 0.960 . S
C1684 H1670 0.960 . S
C1684 H1671 0.960 1_545 S
C1684 C1683 1.524 . S
C1685 C1682 1.403 . S
C1685 C1686 1.392 . S
C1685 C1689 1.495 . S
C1686 C1685 1.392 . S
C1686 C1687 1.385 . S
C1686 C1688 1.478 . S
C1687 H1681 0.930 . S
C1687 C1683 1.400 . S
C1687 C1686 1.385 . S
C1688 C1686 1.478 . S
C1688 C1690 1.381 . S
C1688 C1694 1.383 1_545 S
C1689 C1685 1.495 . S
C1689 H1695 0.959 . S
C1689 H1696 0.961 . S
C1689 H1697 0.960 . S
C1690 C1688 1.381 . S
C1690 C1691 1.394 1_455 S
C1690 H1698 0.930 . S
C1691 C1690 1.394 1_655 S
C1691 C1692 1.383 . S
C1691 H1699 0.929 . S
C1692 C1691 1.383 . S
C1692 C1693 1.377 1_645 S
C1693 H1677 0.930 1_455 S
C1693 C1692 1.377 1_465 S
C1693 C1694 1.379 . S
C1694 H1678 0.931 . S
C1694 C1688 1.383 1_565 S
C1694 C1693 1.379 . S
H1695 C1689 0.959 . S
H1696 C1689 0.961 . S
H1697 C1689 0.960 . S
H1698 C1690 0.930 . S
H1699 C1691 0.929 . S
H1700 C1708 0.929 . S
H1701 C1710 0.930 . S
H1702 C1712 0.930 . S
H1703 C1715 0.929 . S
H1704 C1718 0.930 . S
H1705 C1720 0.960 . S
H1706 C1720 0.960 . S
H1707 C1720 0.960 . S
C1708 H1700 0.929 . S
C1708 C1709 1.377 . S
C1708 C1710 1.384 . S
C1709 C1708 1.377 . S
C1709 C1715 1.390 . S
C1710 H1701 0.930 . S
C1710 C1708 1.384 . S
C1710 C1711 1.372 . S
C1711 C1710 1.372 . S
C1711 C1712 1.400 . S
C1711 C1716 1.490 . S
C1712 H1702 0.930 . S
C1712 C1711 1.400 . S
C1712 C1715 1.386 . S
H1713 C1729 0.935 . S
H1714 C1730 0.931 . S
C1715 H1703 0.929 . S
C1715 C1709 1.390 . S
C1715 C1712 1.386 . S
C1716 C1711 1.490 . S
C1716 C1718 1.395 . S
C1716 C1719 1.403 . S
H1717 C1723 0.930 . S
C1718 H1704 0.930 . S
C1718 C1716 1.395 . S
C1718 C1721 1.403 . S
C1719 C1716 1.403 . S
C1719 C1720 1.524 . S
C1719 C1723 1.400 . S
C1720 H1705 0.960 . S
C1720 H1706 0.960 . S
C1720 H1707 0.960 . S
C1720 C1719 1.524 . S
C1721 C1718 1.403 . S
C1721 C1722 1.392 . S
C1721 C1725 1.495 . S
C1722 C1721 1.392 . S
C1722 C1723 1.385 . S
C1722 C1724 1.478 . S
C1723 H1717 0.930 . S
C1723 C1719 1.400 . S
C1723 C1722 1.385 . S
C1724 C1722 1.478 . S
C1724 C1726 1.381 . S
C1724 C1730 1.383 . S
C1725 C1721 1.495 . S
C1725 H1731 0.959 . S
C1725 H1732 0.961 . S
C1725 H1733 0.960 . S
C1726 C1724 1.381 . S
C1726 C1727 1.394 . S
C1726 H1734 0.930 . S
C1727 C1726 1.394 . S
C1727 C1728 1.383 1_455 S
C1727 H1735 0.929 1_455 S
C1728 C1727 1.383 1_655 S
C1728 C1729 1.381 . S
C1729 H1713 0.935 . S
C1729 C1728 1.381 . S
C1729 C1730 1.370 1_655 S
C1730 H1714 0.931 . S
C1730 C1724 1.383 . S
C1730 C1729 1.370 1_455 S
H1731 C1725 0.959 . S
H1732 C1725 0.961 . S
H1733 C1725 0.960 . S
H1734 C1726 0.930 . S
H1735 C1727 0.929 1_655 S
H1736 C1744 0.929 . S
H1737 C1746 0.930 . S
H1738 C1748 0.930 . S
H1739 C1751 0.932 . S
H1740 C1754 0.930 . S
H1741 C1756 0.960 . S
H1742 C1756 0.960 . S
H1743 C1756 0.960 1_545 S
C1744 H1736 0.929 . S
C1744 C1745 1.377 . S
C1744 C1746 1.384 1_455 S
C1745 C1744 1.377 . S
C1745 C1751 1.390 1_465 S
C1746 H1737 0.930 . S
C1746 C1744 1.384 1_655 S
C1746 C1747 1.372 . S
C1747 C1746 1.372 . S
C1747 C1748 1.400 1_565 S
C1747 C1752 1.490 . S
C1748 H1738 0.930 . S
C1748 C1747 1.400 1_545 S
C1748 C1751 1.386 . S
H1749 C1765 0.930 . S
H1750 C1766 0.931 . S
C1751 H1739 0.932 . S
C1751 C1745 1.390 1_645 S
C1751 C1748 1.386 . S
C1752 C1747 1.490 . S
C1752 C1754 1.395 . S
C1752 C1755 1.403 . S
H1753 C1759 0.930 . S
C1754 H1740 0.930 . S
C1754 C1752 1.395 . S
C1754 C1757 1.403 . S
C1755 C1752 1.403 . S
C1755 C1756 1.524 . S
C1755 C1759 1.400 . S
C1756 H1741 0.960 . S
C1756 H1742 0.960 . S
C1756 H1743 0.960 1_565 S
C1756 C1755 1.524 . S
C1757 C1754 1.403 . S
C1757 C1758 1.392 . S
C1757 C1761 1.495 . S
C1758 C1757 1.392 . S
C1758 C1759 1.385 . S
C1758 C1760 1.478 . S
C1759 H1753 0.930 . S
C1759 C1755 1.400 . S
C1759 C1758 1.385 . S
C1760 C1758 1.478 . S
C1760 C1762 1.381 . S
C1760 C1766 1.383 1_565 S
C1761 C1757 1.495 . S
C1761 H1767 0.959 . S
C1761 H1768 0.961 . S
C1761 H1769 0.960 . S
C1762 C1760 1.381 . S
C1762 C1763 1.394 . S
C1762 H1770 0.930 . S
C1763 C1762 1.394 . S
C1763 C1764 1.383 . S
C1763 H1771 0.929 . S
C1764 C1763 1.383 . S
C1764 C1765 1.377 1_565 S
C1765 H1749 0.930 . S
C1765 C1764 1.377 1_545 S
C1765 C1766 1.379 . S
C1766 H1750 0.931 . S
C1766 C1760 1.383 1_545 S
C1766 C1765 1.379 . S
H1767 C1761 0.959 . S
H1768 C1761 0.961 . S
H1769 C1761 0.960 . S
H1770 C1762 0.930 . S
H1771 C1763 0.929 . S
H1772 C1780 0.929 . S
H1773 C1782 0.930 . S
H1774 C1784 0.930 . S
H1775 C1787 0.933 . S
H1776 C1790 0.930 . S
H1777 C1792 0.960 . S
H1778 C1792 0.960 . S
H1779 C1792 0.960 . S
C1780 H1772 0.929 . S
C1780 C1781 1.377 . S
C1780 C1782 1.384 1_455 S
C1781 C1780 1.377 . S
C1781 C1787 1.394 . S
C1782 H1773 0.930 . S
C1782 C1780 1.384 1_655 S
C1782 C1783 1.372 . S
C1783 C1782 1.372 . S
C1783 C1784 1.400 . S
C1783 C1788 1.490 . S
C1784 H1774 0.930 . S
C1784 C1783 1.400 . S
C1784 C1787 1.378 1_655 S
H1785 C1801 0.930 . S
H1786 C1802 0.931 . S
C1787 H1775 0.933 . S
C1787 C1781 1.394 . S
C1787 C1784 1.378 1_455 S
C1788 C1783 1.490 . S
C1788 C1790 1.395 . S
C1788 C1791 1.403 . S
H1789 C1795 0.930 . S
C1790 H1776 0.930 . S
C1790 C1788 1.395 . S
C1790 C1793 1.403 . S
C1791 C1788 1.403 . S
C1791 C1792 1.524 . S
C1791 C1795 1.400 . S
C1792 H1777 0.960 . S
C1792 H1778 0.960 . S
C1792 H1779 0.960 . S
C1792 C1791 1.524 . S
C1793 C1790 1.403 . S
C1793 C1794 1.392 . S
C1793 C1797 1.495 . S
C1794 C1793 1.392 . S
C1794 C1795 1.385 . S
C1794 C1796 1.478 . S
C1795 H1789 0.930 . S
C1795 C1791 1.400 . S
C1795 C1794 1.385 . S
C1796 C1794 1.478 . S
C1796 C1798 1.381 . S
C1796 C1802 1.383 . S
C1797 C1793 1.495 . S
C1797 H1803 0.959 . S
C1797 H1804 0.961 . S
C1797 H1805 0.960 . S
C1798 C1796 1.381 . S
C1798 C1799 1.394 . S
C1798 H1806 0.930 . S
C1799 C1798 1.394 . S
C1799 C1800 1.383 . S
C1799 H1807 0.929 . S
C1800 C1799 1.383 . S
C1800 C1801 1.377 . S
C1801 H1785 0.930 . S
C1801 C1800 1.377 . S
C1801 C1802 1.379 . S
C1802 H1786 0.931 . S
C1802 C1796 1.383 . S
C1802 C1801 1.379 . S
H1803 C1797 0.959 . S
H1804 C1797 0.961 . S
H1805 C1797 0.960 . S
H1806 C1798 0.930 . S
H1807 C1799 0.929 . S
H1808 C1816 0.929 . S
H1809 C1818 0.930 . S
H1810 C1820 0.930 . S
H1811 C1823 0.929 . S
H1812 C1826 0.930 . S
H1813 C1828 0.960 . S
H1814 C1828 0.960 . S
H1815 C1828 0.960 . S
C1816 H1808 0.929 . S
C1816 C1817 1.377 . S
C1816 C1818 1.384 1_655 S
C1817 C1816 1.377 . S
C1817 C1823 1.390 1_655 S
C1818 H1809 0.930 . S
C1818 C1816 1.384 1_455 S
C1818 C1819 1.372 . S
C1819 C1818 1.372 . S
C1819 C1820 1.400 . S
C1819 C1824 1.490 . S
C1820 H1810 0.930 . S
C1820 C1819 1.400 . S
C1820 C1823 1.386 . S
H1821 C1837 0.930 . S
H1822 C1838 0.931 . S
C1823 H1811 0.929 . S
C1823 C1817 1.390 1_455 S
C1823 C1820 1.386 . S
C1824 C1819 1.490 . S
C1824 C1826 1.395 . S
C1824 C1827 1.403 . S
H1825 C1831 0.930 . S
C1826 H1812 0.930 . S
C1826 C1824 1.395 . S
C1826 C1829 1.403 . S
C1827 C1824 1.403 . S
C1827 C1828 1.524 . S
C1827 C1831 1.400 . S
C1828 H1813 0.960 . S
C1828 H1814 0.960 . S
C1828 H1815 0.960 . S
C1828 C1827 1.524 . S
C1829 C1826 1.403 . S
C1829 C1830 1.392 . S
C1829 C1833 1.495 . S
C1830 C1829 1.392 . S
C1830 C1831 1.385 . S
C1830 C1832 1.478 . S
C1831 H1825 0.930 . S
C1831 C1827 1.400 . S
C1831 C1830 1.385 . S
C1832 C1830 1.478 . S
C1832 C1834 1.381 . S
C1832 C1838 1.383 . S
C1833 C1829 1.495 . S
C1833 H1839 0.959 . S
C1833 H1840 0.961 . S
C1833 H1841 0.960 . S
C1834 C1832 1.381 . S
C1834 C1835 1.394 . S
C1834 H1842 0.930 . S
C1835 C1834 1.394 . S
C1835 C1836 1.383 . S
C1835 H1843 0.929 . S
C1836 C1835 1.383 . S
C1836 C1837 1.377 . S
C1837 H1821 0.930 . S
C1837 C1836 1.377 . S
C1837 C1838 1.379 . S
C1838 H1822 0.931 . S
C1838 C1832 1.383 . S
C1838 C1837 1.379 . S
H1839 C1833 0.959 . S
H1840 C1833 0.961 . S
H1841 C1833 0.960 . S
H1842 C1834 0.930 . S
H1843 C1835 0.929 . S
H1844 C1852 0.929 . S
H1845 C1854 0.930 . S
H1846 C1856 0.930 . S
H1847 C1859 0.929 . S
H1848 C1862 0.930 . S
H1849 C1864 0.960 . S
H1850 C1864 0.960 . S
H1851 C1864 0.960 . S
C1852 H1844 0.929 . S
C1852 C1853 1.377 . S
C1852 C1854 1.384 . S
C1853 C1852 1.377 . S
C1853 C1859 1.390 . S
C1854 H1845 0.930 . S
C1854 C1852 1.384 . S
C1854 C1855 1.372 . S
C1855 C1854 1.372 . S
C1855 C1856 1.400 . S
C1855 C1860 1.490 . S
C1856 H1846 0.930 . S
C1856 C1855 1.400 . S
C1856 C1859 1.386 . S
H1857 C1873 0.930 . S
H1858 C1874 0.931 . S
C1859 H1847 0.929 . S
C1859 C1853 1.390 . S
C1859 C1856 1.386 . S
C1860 C1855 1.490 . S
C1860 C1862 1.395 . S
C1860 C1863 1.403 . S
H1861 C1867 0.930 . S
C1862 H1848 0.930 . S
C1862 C1860 1.395 . S
C1862 C1865 1.403 . S
C1863 C1860 1.403 . S
C1863 C1864 1.524 . S
C1863 C1867 1.400 . S
C1864 H1849 0.960 . S
C1864 H1850 0.960 . S
C1864 H1851 0.960 . S
C1864 C1863 1.524 . S
C1865 C1862 1.403 . S
C1865 C1866 1.392 . S
C1865 C1869 1.495 . S
C1866 C1865 1.392 . S
C1866 C1867 1.385 . S
C1866 C1868 1.478 . S
C1867 H1861 0.930 . S
C1867 C1863 1.400 . S
C1867 C1866 1.385 . S
C1868 C1866 1.478 . S
C1868 C1870 1.381 . S
C1868 C1874 1.383 . S
C1869 C1865 1.495 . S
C1869 H1875 0.959 . S
C1869 H1876 0.961 . S
C1869 H1877 0.960 . S
C1870 C1868 1.381 . S
C1870 C1871 1.394 . S
C1870 H1878 0.930 . S
C1871 C1870 1.394 . S
C1871 C1872 1.383 1_455 S
C1871 H1879 0.929 . S
C1872 C1871 1.383 1_655 S
C1872 C1873 1.377 . S
C1873 H1857 0.930 . S
C1873 C1872 1.377 . S
C1873 C1874 1.379 1_655 S
C1874 H1858 0.931 . S
C1874 C1868 1.383 . S
C1874 C1873 1.379 1_455 S
H1875 C1869 0.959 . S
H1876 C1869 0.961 . S
H1877 C1869 0.960 . S
H1878 C1870 0.930 . S
H1879 C1871 0.929 . S
H1880 C1888 0.929 . S
H1881 C1890 0.930 . S
H1882 C1892 0.930 . S
H1883 C1895 0.929 . S
H1884 C1898 0.930 . S
H1885 C1900 0.960 . S
H1886 C1900 0.960 . S
H1887 C1900 0.960 . S
C1888 H1880 0.929 . S
C1888 C1889 1.377 . S
C1888 C1890 1.384 . S
C1889 C1888 1.377 . S
C1889 C1895 1.390 . S
C1890 H1881 0.930 . S
C1890 C1888 1.384 . S
C1890 C1891 1.372 . S
C1891 C1890 1.372 . S
C1891 C1892 1.400 . S
C1891 C1896 1.490 . S
C1892 H1882 0.930 . S
C1892 C1891 1.400 . S
C1892 C1895 1.386 . S
H1893 C1909 0.930 . S
H1894 C1910 0.931 . S
C1895 H1883 0.929 . S
C1895 C1889 1.390 . S
C1895 C1892 1.386 . S
C1896 C1891 1.490 . S
C1896 C1898 1.395 . S
C1896 C1899 1.403 . S
H1897 C1903 0.930 . S
C1898 H1884 0.930 . S
C1898 C1896 1.395 . S
C1898 C1901 1.403 . S
C1899 C1896 1.403 . S
C1899 C1900 1.524 . S
C1899 C1903 1.400 . S
C1900 H1885 0.960 . S
C1900 H1886 0.960 . S
C1900 H1887 0.960 . S
C1900 C1899 1.524 . S
C1901 C1898 1.403 . S
C1901 C1902 1.392 . S
C1901 C1905 1.495 . S
C1902 C1901 1.392 . S
C1902 C1903 1.385 . S
C1902 C1904 1.478 . S
C1903 H1897 0.930 . S
C1903 C1899 1.400 . S
C1903 C1902 1.385 . S
C1904 C1902 1.478 . S
C1904 C1906 1.381 . S
C1904 C1910 1.383 . S
C1905 C1901 1.495 . S
C1905 H1911 0.959 . S
C1905 H1912 0.961 . S
C1905 H1913 0.960 . S
C1906 C1904 1.381 . S
C1906 C1907 1.394 . S
C1906 H1914 0.930 . S
C1907 C1906 1.394 . S
C1907 C1908 1.383 1_655 S
C1907 H1915 0.929 . S
C1908 C1907 1.383 1_455 S
C1908 C1909 1.377 . S
C1909 H1893 0.930 . S
C1909 C1908 1.377 . S
C1909 C1910 1.379 1_455 S
C1910 H1894 0.931 . S
C1910 C1904 1.383 . S
C1910 C1909 1.379 1_655 S
H1911 C1905 0.959 . S
H1912 C1905 0.961 . S
H1913 C1905 0.960 . S
H1914 C1906 0.930 . S
H1915 C1907 0.929 . S
H1916 C1924 0.929 . S
H1917 C1926 0.930 . S
H1918 C1928 0.930 . S
H1919 C1931 0.929 . S
H1920 C1934 0.930 . S
H1921 C1936 0.960 . S
H1922 C1936 0.960 . S
H1923 C1936 0.960 . S
C1924 H1916 0.929 . S
C1924 C1925 1.377 . S
C1924 C1926 1.384 . S
C1925 C1924 1.377 . S
C1925 C1931 1.390 . S
C1926 H1917 0.930 . S
C1926 C1924 1.384 . S
C1926 C1927 1.372 . S
C1927 C1926 1.372 . S
C1927 C1928 1.400 . S
C1927 C1932 1.490 . S
C1928 H1918 0.930 . S
C1928 C1927 1.400 . S
C1928 C1931 1.386 . S
H1929 C1945 0.930 . S
H1930 C1946 0.931 . S
C1931 H1919 0.929 . S
C1931 C1925 1.390 . S
C1931 C1928 1.386 . S
C1932 C1927 1.490 . S
C1932 C1934 1.395 . S
C1932 C1935 1.403 . S
H1933 C1939 0.930 . S
C1934 H1920 0.930 . S
C1934 C1932 1.395 . S
C1934 C1937 1.403 . S
C1935 C1932 1.403 . S
C1935 C1936 1.524 . S
C1935 C1939 1.400 . S
C1936 H1921 0.960 . S
C1936 H1922 0.960 . S
C1936 H1923 0.960 . S
C1936 C1935 1.524 . S
C1937 C1934 1.403 . S
C1937 C1938 1.392 . S
C1937 C1941 1.495 . S
C1938 C1937 1.392 . S
C1938 C1939 1.385 . S
C1938 C1940 1.478 . S
C1939 H1933 0.930 . S
C1939 C1935 1.400 . S
C1939 C1938 1.385 . S
C1940 C1938 1.478 . S
C1940 C1942 1.381 . S
C1940 C1946 1.383 . S
C1941 C1937 1.495 . S
C1941 H1947 0.959 . S
C1941 H1948 0.961 . S
C1941 H1949 0.960 . S
C1942 C1940 1.381 . S
C1942 C1943 1.394 1_655 S
C1942 H1950 0.930 . S
C1943 C1942 1.394 1_455 S
C1943 C1944 1.383 . S
C1943 H1951 0.929 . S
C1944 C1943 1.383 . S
C1944 C1945 1.377 1_455 S
C1945 H1929 0.930 . S
C1945 C1944 1.377 1_655 S
C1945 C1946 1.379 . S
C1946 H1930 0.931 . S
C1946 C1940 1.383 . S
C1946 C1945 1.379 . S
H1947 C1941 0.959 . S
H1948 C1941 0.961 . S
H1949 C1941 0.960 . S
H1950 C1942 0.930 . S
H1951 C1943 0.929 . S
H1952 C1960 0.929 . S
H1953 C1962 0.930 . S
H1954 C1964 0.930 . S
H1955 C1967 0.929 . S
H1956 C1970 0.930 . S
H1957 C1972 0.960 . S
H1958 C1972 0.960 . S
H1959 C1972 0.960 . S
C1960 H1952 0.929 . S
C1960 C1961 1.377 . S
C1960 C1962 1.384 . S
C1961 C1960 1.377 . S
C1961 C1967 1.390 . S
C1962 H1953 0.930 . S
C1962 C1960 1.384 . S
C1962 C1963 1.372 . S
C1963 C1962 1.372 . S
C1963 C1964 1.400 . S
C1963 C1968 1.490 . S
C1964 H1954 0.930 . S
C1964 C1963 1.400 . S
C1964 C1967 1.386 . S
H1965 C1981 0.930 . S
H1966 C1982 0.931 . S
C1967 H1955 0.929 . S
C1967 C1961 1.390 . S
C1967 C1964 1.386 . S
C1968 C1963 1.490 . S
C1968 C1970 1.395 . S
C1968 C1971 1.421 . S
H1969 C1975 0.930 1_565 S
C1970 H1956 0.930 . S
C1970 C1968 1.395 . S
C1970 C1973 1.403 . S
C1971 C1968 1.421 . S
C1971 C1972 1.503 1_545 S
C1971 C1975 1.403 . S
C1972 H1957 0.960 . S
C1972 H1958 0.960 . S
C1972 H1959 0.960 . S
C1972 C1971 1.503 1_565 S
C1973 C1970 1.403 . S
C1973 C1974 1.392 . S
C1973 C1977 1.495 . S
C1974 C1973 1.392 . S
C1974 C1975 1.385 . S
C1974 C1976 1.478 . S
C1975 H1969 0.930 1_545 S
C1975 C1971 1.403 . S
C1975 C1974 1.385 . S
C1976 C1974 1.478 . S
C1976 C1978 1.381 . S
C1976 C1982 1.383 . S
C1977 C1973 1.495 . S
C1977 H1983 0.959 . S
C1977 H1984 0.961 . S
C1977 H1985 0.960 . S
C1978 C1976 1.381 . S
C1978 C1979 1.394 . S
C1978 H1986 0.930 . S
C1979 C1978 1.394 . S
C1979 C1980 1.383 . S
C1979 H1987 0.949 . S
C1980 C1979 1.383 . S
C1980 C1981 1.377 . S
C1981 H1965 0.930 . S
C1981 C1980 1.377 . S
C1981 C1982 1.379 . S
C1982 H1966 0.931 . S
C1982 C1976 1.383 . S
C1982 C1981 1.379 . S
H1983 C1977 0.959 . S
H1984 C1977 0.961 . S
H1985 C1977 0.960 . S
H1986 C1978 0.930 . S
H1987 C1979 0.949 . S
H1988 C1996 0.929 . S
H1989 C1998 0.930 . S
H1990 C2000 0.930 . S
H1991 C2003 0.929 . S
H1992 C2006 0.930 . S
H1993 C2008 0.960 . S
H1994 C2008 0.960 . S
H1995 C2008 0.960 . S
C1996 H1988 0.929 . S
C1996 C1997 1.377 . S
C1996 C1998 1.384 . S
C1997 C1996 1.377 . S
C1997 C2003 1.390 . S
C1998 H1989 0.930 . S
C1998 C1996 1.384 . S
C1998 C1999 1.372 . S
C1999 C1998 1.372 . S
C1999 C2000 1.400 . S
C1999 C2004 1.490 . S
C2000 H1990 0.930 . S
C2000 C1999 1.400 . S
C2000 C2003 1.386 . S
H2001 C2017 0.930 . S
H2002 C2018 0.931 . S
C2003 H1991 0.929 . S
C2003 C1997 1.390 . S
C2003 C2000 1.386 . S
C2004 C1999 1.490 . S
C2004 C2006 1.395 . S
C2004 C2007 1.403 . S
H2005 C2011 0.930 . S
C2006 H1992 0.930 . S
C2006 C2004 1.395 . S
C2006 C2009 1.403 . S
C2007 C2004 1.403 . S
C2007 C2008 1.524 . S
C2007 C2011 1.400 . S
C2008 H1993 0.960 . S
C2008 H1994 0.960 . S
C2008 H1995 0.960 . S
C2008 C2007 1.524 . S
C2009 C2006 1.403 . S
C2009 C2010 1.392 . S
C2009 C2013 1.495 . S
C2010 C2009 1.392 . S
C2010 C2011 1.385 . S
C2010 C2012 1.478 . S
C2011 H2005 0.930 . S
C2011 C2007 1.400 . S
C2011 C2010 1.385 . S
C2012 C2010 1.478 . S
C2012 C2014 1.381 . S
C2012 C2018 1.383 . S
C2013 C2009 1.495 . S
C2013 H2019 0.959 . S
C2013 H2020 0.961 . S
C2013 H2021 0.960 . S
C2014 C2012 1.381 . S
C2014 C2015 1.394 . S
C2014 H2022 0.930 . S
C2015 C2014 1.394 . S
C2015 C2016 1.383 . S
C2015 H2023 0.929 . S
C2016 C2015 1.383 . S
C2016 C2017 1.377 . S
C2017 H2001 0.930 . S
C2017 C2016 1.377 . S
C2017 C2018 1.379 . S
C2018 H2002 0.931 . S
C2018 C2012 1.383 . S
C2018 C2017 1.379 . S
H2019 C2013 0.959 . S
H2020 C2013 0.961 . S
H2021 C2013 0.960 . S
H2022 C2014 0.930 . S
H2023 C2015 0.929 . S
H2024 C2032 0.929 . S
H2025 C2034 0.930 . S
H2026 C2036 0.930 . S
H2027 C2039 0.929 . S
H2028 C2042 0.930 . S
H2029 C2044 0.960 . S
H2030 C2044 0.960 . S
H2031 C2044 0.960 . S
C2032 H2024 0.929 . S
C2032 C2033 1.377 . S
C2032 C2034 1.384 . S
C2033 C2032 1.377 . S
C2033 C2039 1.390 1_565 S
C2034 H2025 0.930 . S
C2034 C2032 1.384 . S
C2034 C2035 1.372 . S
C2035 C2034 1.372 . S
C2035 C2036 1.400 1_565 S
C2035 C2040 1.490 . S
C2036 H2026 0.930 . S
C2036 C2035 1.400 1_545 S
C2036 C2039 1.386 . S
H2037 C2053 0.930 . S
H2038 C2054 0.931 . S
C2039 H2027 0.929 . S
C2039 C2033 1.390 1_545 S
C2039 C2036 1.386 . S
C2040 C2035 1.490 . S
C2040 C2042 1.395 . S
C2040 C2043 1.403 . S
H2041 C2047 0.930 . S
C2042 H2028 0.930 . S
C2042 C2040 1.395 . S
C2042 C2045 1.403 . S
C2043 C2040 1.403 . S
C2043 C2044 1.524 . S
C2043 C2047 1.400 . S
C2044 H2029 0.960 . S
C2044 H2030 0.960 . S
C2044 H2031 0.960 . S
C2044 C2043 1.524 . S
C2045 C2042 1.403 . S
C2045 C2046 1.392 . S
C2045 C2049 1.495 . S
C2046 C2045 1.392 . S
C2046 C2047 1.385 . S
C2046 C2048 1.478 . S
C2047 H2041 0.930 . S
C2047 C2043 1.400 . S
C2047 C2046 1.385 . S
C2048 C2046 1.478 . S
C2048 C2050 1.381 . S
C2048 C2054 1.383 1_565 S
C2049 C2045 1.495 . S
C2049 H2055 0.959 . S
C2049 H2056 0.961 1_565 S
C2049 H2057 0.960 . S
C2050 C2048 1.381 . S
C2050 C2051 1.394 . S
C2050 H2058 0.930 . S
C2051 C2050 1.394 . S
C2051 C2052 1.383 . S
C2051 H2059 0.929 . S
C2052 C2051 1.383 . S
C2052 C2053 1.377 1_565 S
C2053 H2037 0.930 . S
C2053 C2052 1.377 1_545 S
C2053 C2054 1.379 . S
C2054 H2038 0.931 . S
C2054 C2048 1.383 1_545 S
C2054 C2053 1.379 . S
H2055 C2049 0.959 . S
H2056 C2049 0.961 1_545 S
H2057 C2049 0.960 . S
H2058 C2050 0.930 . S
H2059 C2051 0.929 . S
H2060 C2068 0.929 . S
H2061 C2070 0.930 . S
H2062 C2072 0.930 . S
H2063 C2075 0.929 . S
H2064 C2078 0.930 . S
H2065 C2080 0.960 . S
H2066 C2080 0.960 . S
H2067 C2080 0.960 . S
C2068 H2060 0.929 . S
C2068 C2069 1.377 . S
C2068 C2070 1.384 . S
C2069 C2068 1.377 . S
C2069 C2075 1.390 . S
C2070 H2061 0.930 . S
C2070 C2068 1.384 . S
C2070 C2071 1.372 . S
C2071 C2070 1.372 . S
C2071 C2072 1.400 . S
C2071 C2076 1.490 . S
C2072 H2062 0.930 . S
C2072 C2071 1.400 . S
C2072 C2075 1.386 . S
H2073 C2089 0.930 . S
H2074 C2090 0.931 . S
C2075 H2063 0.929 . S
C2075 C2069 1.390 . S
C2075 C2072 1.386 . S
C2076 C2071 1.490 . S
C2076 C2078 1.395 . S
C2076 C2079 1.403 . S
H2077 C2083 0.930 . S
C2078 H2064 0.930 . S
C2078 C2076 1.395 . S
C2078 C2081 1.403 . S
C2079 C2076 1.403 . S
C2079 C2080 1.524 . S
C2079 C2083 1.400 . S
C2080 H2065 0.960 . S
C2080 H2066 0.960 . S
C2080 H2067 0.960 . S
C2080 C2079 1.524 . S
C2081 C2078 1.403 . S
C2081 C2082 1.392 . S
C2081 C2085 1.495 . S
C2082 C2081 1.392 . S
C2082 C2083 1.385 . S
C2082 C2084 1.478 . S
C2083 H2077 0.930 . S
C2083 C2079 1.400 . S
C2083 C2082 1.385 . S
C2084 C2082 1.478 . S
C2084 C2086 1.381 . S
C2084 C2090 1.383 . S
C2085 C2081 1.495 . S
C2085 H2091 0.959 . S
C2085 H2092 0.961 . S
C2085 H2093 0.960 . S
C2086 C2084 1.381 . S
C2086 C2087 1.394 . S
C2086 H2094 0.930 . S
C2087 C2086 1.394 . S
C2087 C2088 1.383 . S
C2087 H2095 0.929 . S
C2088 C2087 1.383 . S
C2088 C2089 1.377 . S
C2089 H2073 0.930 . S
C2089 C2088 1.377 . S
C2089 C2090 1.379 . S
C2090 H2074 0.931 . S
C2090 C2084 1.383 . S
C2090 C2089 1.379 . S
H2091 C2085 0.959 . S
H2092 C2085 0.961 . S
H2093 C2085 0.960 . S
H2094 C2086 0.930 . S
H2095 C2087 0.929 . S
H2096 C2104 0.929 . S
H2097 C2106 0.930 . S
H2098 C2108 0.930 . S
H2099 C2111 0.929 . S
H2100 C2114 0.930 . S
H2101 C2116 0.960 . S
H2102 C2116 0.960 . S
H2103 C2116 0.960 . S
C2104 H2096 0.929 . S
C2104 C2105 1.377 . S
C2104 C2106 1.384 . S
C2105 C2104 1.377 . S
C2105 C2111 1.390 . S
C2106 H2097 0.930 . S
C2106 C2104 1.384 . S
C2106 C2107 1.372 . S
C2107 C2106 1.372 . S
C2107 C2108 1.400 . S
C2107 C2112 1.490 . S
C2108 H2098 0.930 . S
C2108 C2107 1.400 . S
C2108 C2111 1.386 . S
H2109 C2125 0.930 . S
H2110 C2126 0.931 . S
C2111 H2099 0.929 . S
C2111 C2105 1.390 . S
C2111 C2108 1.386 . S
C2112 C2107 1.490 . S
C2112 C2114 1.395 . S
C2112 C2115 1.403 . S
H2113 C2119 0.930 . S
C2114 H2100 0.930 . S
C2114 C2112 1.395 . S
C2114 C2117 1.403 . S
C2115 C2112 1.403 . S
C2115 C2116 1.524 . S
C2115 C2119 1.400 . S
C2116 H2101 0.960 . S
C2116 H2102 0.960 . S
C2116 H2103 0.960 . S
C2116 C2115 1.524 . S
C2117 C2114 1.403 . S
C2117 C2118 1.392 . S
C2117 C2121 1.495 . S
C2118 C2117 1.392 . S
C2118 C2119 1.385 . S
C2118 C2120 1.478 . S
C2119 H2113 0.930 . S
C2119 C2115 1.400 . S
C2119 C2118 1.385 . S
C2120 C2118 1.478 . S
C2120 C2122 1.381 . S
C2120 C2126 1.383 . S
C2121 C2117 1.495 . S
C2121 H2127 0.959 . S
C2121 H2128 0.961 . S
C2121 H2129 0.960 . S
C2122 C2120 1.381 . S
C2122 C2123 1.394 . S
C2122 H2130 0.930 . S
C2123 C2122 1.394 . S
C2123 C2124 1.383 . S
C2123 H2131 0.929 . S
C2124 C2123 1.383 . S
C2124 C2125 1.377 . S
C2125 H2109 0.930 . S
C2125 C2124 1.377 . S
C2125 C2126 1.379 . S
C2126 H2110 0.931 . S
C2126 C2120 1.383 . S
C2126 C2125 1.379 . S
H2127 C2121 0.959 . S
H2128 C2121 0.961 . S
H2129 C2121 0.960 . S
H2130 C2122 0.930 . S
H2131 C2123 0.929 . S
H2132 C2140 0.929 . S
H2133 C2142 0.930 . S
H2134 C2144 0.930 . S
H2135 C2147 0.929 . S
H2136 C2150 0.930 . S
H2137 C2152 0.960 . S
H2138 C2152 0.960 . S
H2139 C2152 0.960 . S
C2140 H2132 0.929 . S
C2140 C2141 1.377 . S
C2140 C2142 1.384 . S
C2141 C2140 1.377 . S
C2141 C2147 1.390 . S
C2142 H2133 0.930 . S
C2142 C2140 1.384 . S
C2142 C2143 1.372 . S
C2143 C2142 1.372 . S
C2143 C2144 1.400 . S
C2143 C2148 1.490 . S
C2144 H2134 0.930 . S
C2144 C2143 1.400 . S
C2144 C2147 1.386 . S
H2145 C2161 0.930 . S
H2146 C2162 0.931 . S
C2147 H2135 0.929 . S
C2147 C2141 1.390 . S
C2147 C2144 1.386 . S
C2148 C2143 1.490 . S
C2148 C2150 1.395 . S
C2148 C2151 1.403 . S
H2149 C2155 0.930 . S
C2150 H2136 0.930 . S
C2150 C2148 1.395 . S
C2150 C2153 1.403 . S
C2151 C2148 1.403 . S
C2151 C2152 1.524 . S
C2151 C2155 1.400 . S
C2152 H2137 0.960 . S
C2152 H2138 0.960 . S
C2152 H2139 0.960 . S
C2152 C2151 1.524 . S
C2153 C2150 1.403 . S
C2153 C2154 1.392 . S
C2153 C2157 1.495 . S
C2154 C2153 1.392 . S
C2154 C2155 1.385 . S
C2154 C2156 1.478 . S
C2155 H2149 0.930 . S
C2155 C2151 1.400 . S
C2155 C2154 1.385 . S
C2156 C2154 1.478 . S
C2156 C2158 1.381 . S
C2156 C2162 1.383 . S
C2157 C2153 1.495 . S
C2157 H2163 0.959 . S
C2157 H2164 0.961 . S
C2157 H2165 0.960 . S
C2158 C2156 1.381 . S
C2158 C2159 1.394 . S
C2158 H2166 0.930 . S
C2159 C2158 1.394 . S
C2159 C2160 1.383 . S
C2159 H2167 0.929 . S
C2160 C2159 1.383 . S
C2160 C2161 1.377 . S
C2161 H2145 0.930 . S
C2161 C2160 1.377 . S
C2161 C2162 1.379 . S
C2162 H2146 0.931 . S
C2162 C2156 1.383 . S
C2162 C2161 1.379 . S
H2163 C2157 0.959 . S
H2164 C2157 0.961 . S
H2165 C2157 0.960 . S
H2166 C2158 0.930 . S
H2167 C2159 0.929 . S
H2168 C2176 0.929 . S
H2169 C2178 0.930 . S
H2170 C2180 0.930 . S
H2171 C2183 0.929 . S
H2172 C2186 0.930 . S
H2173 C2188 0.960 . S
H2174 C2188 0.960 . S
H2175 C2188 0.960 . S
C2176 H2168 0.929 . S
C2176 C2177 1.377 . S
C2176 C2178 1.384 . S
C2177 C2176 1.377 . S
C2177 C2183 1.390 . S
C2178 H2169 0.930 . S
C2178 C2176 1.384 . S
C2178 C2179 1.372 . S
C2179 C2178 1.372 . S
C2179 C2180 1.400 . S
C2179 C2184 1.490 . S
C2180 H2170 0.930 . S
C2180 C2179 1.400 . S
C2180 C2183 1.386 . S
H2181 C2197 0.930 . S
H2182 C2198 0.931 . S
C2183 H2171 0.929 . S
C2183 C2177 1.390 . S
C2183 C2180 1.386 . S
C2184 C2179 1.490 . S
C2184 C2186 1.395 . S
C2184 C2187 1.403 . S
H2185 C2191 0.930 . S
C2186 H2172 0.930 . S
C2186 C2184 1.395 . S
C2186 C2189 1.403 . S
C2187 C2184 1.403 . S
C2187 C2188 1.524 . S
C2187 C2191 1.400 . S
C2188 H2173 0.960 . S
C2188 H2174 0.960 . S
C2188 H2175 0.960 . S
C2188 C2187 1.524 . S
C2189 C2186 1.403 . S
C2189 C2190 1.392 . S
C2189 C2193 1.495 . S
C2190 C2189 1.392 . S
C2190 C2191 1.385 . S
C2190 C2192 1.478 . S
C2191 H2185 0.930 . S
C2191 C2187 1.400 . S
C2191 C2190 1.385 . S
C2192 C2190 1.478 . S
C2192 C2194 1.381 . S
C2192 C2198 1.383 . S
C2193 C2189 1.495 . S
C2193 H2199 0.959 . S
C2193 H2200 0.961 . S
C2193 H2201 0.960 . S
C2194 C2192 1.381 . S
C2194 C2195 1.394 . S
C2194 H2202 0.930 . S
C2195 C2194 1.394 . S
C2195 C2196 1.383 . S
C2195 H2203 0.929 . S
C2196 C2195 1.383 . S
C2196 C2197 1.377 . S
C2197 H2181 0.930 . S
C2197 C2196 1.377 . S
C2197 C2198 1.379 . S
C2198 H2182 0.931 . S
C2198 C2192 1.383 . S
C2198 C2197 1.379 . S
H2199 C2193 0.959 . S
H2200 C2193 0.961 . S
H2201 C2193 0.960 . S
H2202 C2194 0.930 . S
H2203 C2195 0.929 . S
H2204 C2212 0.929 . S
H2205 C2214 0.930 . S
H2206 C2216 0.930 . S
H2207 C2219 0.929 . S
H2208 C2222 0.930 . S
H2209 C2224 0.960 . S
H2210 C2224 0.960 . S
H2211 C2224 0.960 . S
C2212 H2204 0.929 . S
C2212 C2213 1.377 . S
C2212 C2214 1.384 . S
C2213 C2212 1.377 . S
C2213 C2219 1.390 . S
C2214 H2205 0.930 . S
C2214 C2212 1.384 . S
C2214 C2215 1.372 . S
C2215 C2214 1.372 . S
C2215 C2216 1.400 . S
C2215 C2220 1.490 . S
C2216 H2206 0.930 . S
C2216 C2215 1.400 . S
C2216 C2219 1.386 . S
H2217 C2233 0.930 . S
H2218 C2234 0.931 . S
C2219 H2207 0.929 . S
C2219 C2213 1.390 . S
C2219 C2216 1.386 . S
C2220 C2215 1.490 . S
C2220 C2222 1.395 . S
C2220 C2223 1.403 . S
H2221 C2227 0.930 . S
C2222 H2208 0.930 . S
C2222 C2220 1.395 . S
C2222 C2225 1.403 . S
C2223 C2220 1.403 . S
C2223 C2224 1.524 . S
C2223 C2227 1.400 . S
C2224 H2209 0.960 . S
C2224 H2210 0.960 . S
C2224 H2211 0.960 . S
C2224 C2223 1.524 . S
C2225 C2222 1.403 . S
C2225 C2226 1.392 . S
C2225 C2229 1.495 . S
C2226 C2225 1.392 . S
C2226 C2227 1.385 . S
C2226 C2228 1.478 . S
C2227 H2221 0.930 . S
C2227 C2223 1.400 . S
C2227 C2226 1.385 . S
C2228 C2226 1.478 . S
C2228 C2230 1.381 . S
C2228 C2234 1.383 . S
C2229 C2225 1.495 . S
C2229 H2235 0.959 . S
C2229 H2236 0.961 . S
C2229 H2237 0.960 . S
C2230 C2228 1.381 . S
C2230 C2231 1.394 . S
C2230 H2238 0.930 . S
C2231 C2230 1.394 . S
C2231 C2232 1.383 . S
C2231 H2239 0.929 . S
C2232 C2231 1.383 . S
C2232 C2233 1.377 . S
C2233 H2217 0.930 . S
C2233 C2232 1.377 . S
C2233 C2234 1.379 . S
C2234 H2218 0.931 . S
C2234 C2228 1.383 . S
C2234 C2233 1.379 . S
H2235 C2229 0.959 . S
H2236 C2229 0.961 . S
H2237 C2229 0.960 . S
H2238 C2230 0.930 . S
H2239 C2231 0.929 . S
H2240 C2248 0.929 . S
H2241 C2250 0.930 . S
H2242 C2252 0.930 . S
H2243 C2255 0.929 . S
H2244 C2258 0.930 . S
H2245 C2260 0.960 . S
H2246 C2260 0.960 . S
H2247 C2260 0.960 . S
C2248 H2240 0.929 . S
C2248 C2249 1.377 . S
C2248 C2250 1.384 1_655 S
C2249 C2248 1.377 . S
C2249 C2255 1.390 1_655 S
C2250 H2241 0.930 . S
C2250 C2248 1.384 1_455 S
C2250 C2251 1.372 . S
C2251 C2250 1.372 . S
C2251 C2252 1.400 . S
C2251 C2256 1.490 . S
C2252 H2242 0.930 . S
C2252 C2251 1.400 . S
C2252 C2255 1.386 . S
H2253 C2269 0.930 . S
H2254 C2270 0.931 . S
C2255 H2243 0.929 . S
C2255 C2249 1.390 1_455 S
C2255 C2252 1.386 . S
C2256 C2251 1.490 . S
C2256 C2258 1.395 . S
C2256 C2259 1.403 . S
H2257 C2263 0.930 . S
C2258 H2244 0.930 . S
C2258 C2256 1.395 . S
C2258 C2261 1.403 . S
C2259 C2256 1.403 . S
C2259 C2260 1.524 . S
C2259 C2263 1.400 . S
C2260 H2245 0.960 . S
C2260 H2246 0.960 . S
C2260 H2247 0.960 . S
C2260 C2259 1.524 . S
C2261 C2258 1.403 . S
C2261 C2262 1.392 . S
C2261 C2265 1.495 . S
C2262 C2261 1.392 . S
C2262 C2263 1.385 . S
C2262 C2264 1.478 . S
C2263 H2257 0.930 . S
C2263 C2259 1.400 . S
C2263 C2262 1.385 . S
C2264 C2262 1.478 . S
C2264 C2266 1.381 . S
C2264 C2270 1.383 . S
C2265 C2261 1.495 . S
C2265 H2271 0.959 . S
C2265 H2272 0.961 . S
C2265 H2273 0.960 . S
C2266 C2264 1.381 . S
C2266 C2267 1.394 . S
C2266 H2274 0.930 . S
C2267 C2266 1.394 . S
C2267 C2268 1.383 . S
C2267 H2275 0.929 . S
C2268 C2267 1.383 . S
C2268 C2269 1.377 . S
C2269 H2253 0.930 . S
C2269 C2268 1.377 . S
C2269 C2270 1.379 . S
C2270 H2254 0.931 . S
C2270 C2264 1.383 . S
C2270 C2269 1.379 . S
H2271 C2265 0.959 . S
H2272 C2265 0.961 . S
H2273 C2265 0.960 . S
H2274 C2266 0.930 . S
H2275 C2267 0.929 . S
H2276 C2284 0.929 . S
H2277 C2286 0.930 . S
H2278 C2288 0.930 . S
H2279 C2291 0.929 . S
H2280 C2294 0.930 . S
H2281 C2296 0.960 . S
H2282 C2296 0.960 . S
H2283 C2296 0.960 . S
C2284 H2276 0.929 . S
C2284 C2285 1.377 1_455 S
C2284 C2286 1.384 . S
C2285 C2284 1.377 1_655 S
C2285 C2291 1.390 . S
C2286 H2277 0.930 . S
C2286 C2284 1.384 . S
C2286 C2287 1.372 . S
C2287 C2286 1.372 . S
C2287 C2288 1.400 . S
C2287 C2292 1.490 . S
C2288 H2278 0.930 . S
C2288 C2287 1.400 . S
C2288 C2291 1.386 1_455 S
H2289 C2305 0.930 . S
H2290 C2306 0.931 . S
C2291 H2279 0.929 . S
C2291 C2285 1.390 . S
C2291 C2288 1.386 1_655 S
C2292 C2287 1.490 . S
C2292 C2294 1.395 . S
C2292 C2295 1.403 . S
H2293 C2299 0.930 . S
C2294 H2280 0.930 . S
C2294 C2292 1.395 . S
C2294 C2297 1.403 . S
C2295 C2292 1.403 . S
C2295 C2296 1.524 . S
C2295 C2299 1.400 . S
C2296 H2281 0.960 . S
C2296 H2282 0.960 . S
C2296 H2283 0.960 . S
C2296 C2295 1.524 . S
C2297 C2294 1.403 . S
C2297 C2298 1.392 . S
C2297 C2301 1.495 . S
C2298 C2297 1.392 . S
C2298 C2299 1.385 . S
C2298 C2300 1.478 . S
C2299 H2293 0.930 . S
C2299 C2295 1.400 . S
C2299 C2298 1.385 . S
C2300 C2298 1.478 . S
C2300 C2302 1.381 . S
C2300 C2306 1.383 . S
C2301 C2297 1.495 . S
C2301 H2307 0.959 . S
C2301 H2308 0.961 . S
C2301 H2309 0.960 . S
C2302 C2300 1.381 . S
C2302 C2303 1.394 . S
C2302 H2310 0.930 . S
C2303 C2302 1.394 . S
C2303 C2304 1.383 . S
C2303 H2311 0.929 . S
C2304 C2303 1.383 . S
C2304 C2305 1.377 . S
C2305 H2289 0.930 . S
C2305 C2304 1.377 . S
C2305 C2306 1.379 . S
C2306 H2290 0.931 . S
C2306 C2300 1.383 . S
C2306 C2305 1.379 . S
H2307 C2301 0.959 . S
H2308 C2301 0.961 . S
H2309 C2301 0.960 . S
H2310 C2302 0.930 . S
H2311 C2303 0.929 . S
H2312 C2320 0.929 . S
H2313 C2322 0.930 . S
H2314 C2324 0.930 . S
H2315 C2327 0.929 . S
H2316 C2330 0.930 . S
H2317 C2332 0.960 . S
H2318 C2332 0.960 . S
H2319 C2332 0.960 . S
C2320 H2312 0.929 . S
C2320 C2321 1.377 . S
C2320 C2322 1.384 . S
C2321 C2320 1.377 . S
C2321 C2327 1.390 . S
C2322 H2313 0.930 . S
C2322 C2320 1.384 . S
C2322 C2323 1.372 . S
C2323 C2322 1.372 . S
C2323 C2324 1.400 . S
C2323 C2328 1.490 . S
C2324 H2314 0.930 . S
C2324 C2323 1.400 . S
C2324 C2327 1.386 . S
H2325 C2341 0.930 . S
H2326 C2342 0.931 . S
C2327 H2315 0.929 . S
C2327 C2321 1.390 . S
C2327 C2324 1.386 . S
C2328 C2323 1.490 . S
C2328 C2330 1.395 . S
C2328 C2331 1.403 . S
H2329 C2335 0.930 . S
C2330 H2316 0.930 . S
C2330 C2328 1.395 . S
C2330 C2333 1.403 . S
C2331 C2328 1.403 . S
C2331 C2332 1.524 . S
C2331 C2335 1.400 . S
C2332 H2317 0.960 . S
C2332 H2318 0.960 . S
C2332 H2319 0.960 . S
C2332 C2331 1.524 . S
C2333 C2330 1.403 . S
C2333 C2334 1.392 . S
C2333 C2337 1.495 . S
C2334 C2333 1.392 . S
C2334 C2335 1.385 . S
C2334 C2336 1.478 . S
C2335 H2329 0.930 . S
C2335 C2331 1.400 . S
C2335 C2334 1.385 . S
C2336 C2334 1.478 . S
C2336 C2338 1.381 . S
C2336 C2342 1.383 . S
C2337 C2333 1.495 . S
C2337 H2343 0.959 . S
C2337 H2344 0.961 . S
C2337 H2345 0.960 . S
C2338 C2336 1.381 . S
C2338 C2339 1.394 . S
C2338 H2346 0.930 . S
C2339 C2338 1.394 . S
C2339 C2340 1.383 1_655 S
C2339 H2347 0.929 . S
C2340 C2339 1.383 1_455 S
C2340 C2341 1.377 . S
C2341 H2325 0.930 . S
C2341 C2340 1.377 . S
C2341 C2342 1.379 1_455 S
C2342 H2326 0.931 . S
C2342 C2336 1.383 . S
C2342 C2341 1.379 1_655 S
H2343 C2337 0.959 . S
H2344 C2337 0.961 . S
H2345 C2337 0.960 . S
H2346 C2338 0.930 . S
H2347 C2339 0.929 . S
H2348 C2356 0.929 . S
H2349 C2358 0.930 . S
H2350 C2360 0.930 . S
H2351 C2363 0.929 . S
H2352 C2366 0.930 . S
H2353 C2368 0.960 . S
H2354 C2368 0.960 . S
H2355 C2368 0.960 . S
C2356 H2348 0.929 . S
C2356 C2357 1.377 . S
C2356 C2358 1.384 . S
C2357 C2356 1.377 . S
C2357 C2363 1.390 . S
C2358 H2349 0.930 . S
C2358 C2356 1.384 . S
C2358 C2359 1.372 . S
C2359 C2358 1.372 . S
C2359 C2360 1.400 . S
C2359 C2364 1.490 . S
C2360 H2350 0.930 . S
C2360 C2359 1.400 . S
C2360 C2363 1.386 . S
H2361 C2377 0.930 1_455 S
H2362 C2378 0.931 . S
C2363 H2351 0.929 . S
C2363 C2357 1.390 . S
C2363 C2360 1.386 . S
C2364 C2359 1.490 . S
C2364 C2366 1.395 . S
C2364 C2367 1.403 . S
H2365 C2371 0.930 . S
C2366 H2352 0.930 . S
C2366 C2364 1.395 . S
C2366 C2369 1.403 . S
C2367 C2364 1.403 . S
C2367 C2368 1.524 . S
C2367 C2371 1.400 . S
C2368 H2353 0.960 . S
C2368 H2354 0.960 . S
C2368 H2355 0.960 . S
C2368 C2367 1.524 . S
C2369 C2366 1.403 . S
C2369 C2370 1.392 . S
C2369 C2373 1.495 . S
C2370 C2369 1.392 . S
C2370 C2371 1.385 . S
C2370 C2372 1.478 . S
C2371 H2365 0.930 . S
C2371 C2367 1.400 . S
C2371 C2370 1.385 . S
C2372 C2370 1.478 . S
C2372 C2374 1.381 . S
C2372 C2378 1.383 . S
C2373 C2369 1.495 . S
C2373 H2379 0.959 . S
C2373 H2380 0.961 . S
C2373 H2381 0.960 . S
C2374 C2372 1.381 . S
C2374 C2375 1.394 . S
C2374 H2382 0.930 . S
C2375 C2374 1.394 . S
C2375 C2376 1.383 1_655 S
C2375 H2383 0.929 1_655 S
C2376 C2375 1.383 1_455 S
C2376 C2377 1.377 1_455 S
C2377 H2361 0.930 1_655 S
C2377 C2376 1.377 1_655 S
C2377 C2378 1.379 . S
C2378 H2362 0.931 . S
C2378 C2372 1.383 . S
C2378 C2377 1.379 . S
H2379 C2373 0.959 . S
H2380 C2373 0.961 . S
H2381 C2373 0.960 . S
H2382 C2374 0.930 . S
H2383 C2375 0.929 1_455 S
H2384 C2392 0.929 . S
H2385 C2394 0.930 . S
H2386 C2396 0.930 . S
H2387 C2399 0.929 . S
H2388 C2402 0.930 . S
H2389 C2404 0.960 . S
H2390 C2404 0.960 . S
H2391 C2404 0.960 . S
C2392 H2384 0.929 . S
C2392 C2393 1.377 1_455 S
C2392 C2394 1.384 . S
C2393 C2392 1.377 1_655 S
C2393 C2399 1.390 . S
C2394 H2385 0.930 . S
C2394 C2392 1.384 . S
C2394 C2395 1.372 . S
C2395 C2394 1.372 . S
C2395 C2396 1.400 . S
C2395 C2400 1.490 . S
C2396 H2386 0.930 . S
C2396 C2395 1.400 . S
C2396 C2399 1.386 1_455 S
H2397 C2413 0.930 . S
H2398 C2414 0.931 . S
C2399 H2387 0.929 . S
C2399 C2393 1.390 . S
C2399 C2396 1.386 1_655 S
C2400 C2395 1.490 . S
C2400 C2402 1.395 . S
C2400 C2403 1.403 . S
H2401 C2407 0.930 . S
C2402 H2388 0.930 . S
C2402 C2400 1.395 . S
C2402 C2405 1.403 . S
C2403 C2400 1.403 . S
C2403 C2404 1.524 . S
C2403 C2407 1.400 . S
C2404 H2389 0.960 . S
C2404 H2390 0.960 . S
C2404 H2391 0.960 . S
C2404 C2403 1.524 . S
C2405 C2402 1.403 . S
C2405 C2406 1.392 . S
C2405 C2409 1.495 . S
C2406 C2405 1.392 . S
C2406 C2407 1.385 . S
C2406 C2408 1.478 . S
C2407 H2401 0.930 . S
C2407 C2403 1.400 . S
C2407 C2406 1.385 . S
C2408 C2406 1.478 . S
C2408 C2410 1.381 . S
C2408 C2414 1.383 . S
C2409 C2405 1.495 . S
C2409 H2415 0.959 . S
C2409 H2416 0.961 . S
C2409 H2417 0.960 . S
C2410 C2408 1.381 . S
C2410 C2411 1.394 . S
C2410 H2418 0.930 . S
C2411 C2410 1.394 . S
C2411 C2412 1.383 . S
C2411 H2419 0.929 . S
C2412 C2411 1.383 . S
C2412 C2413 1.377 . S
C2413 H2397 0.930 . S
C2413 C2412 1.377 . S
C2413 C2414 1.379 . S
C2414 H2398 0.931 . S
C2414 C2408 1.383 . S
C2414 C2413 1.379 . S
H2415 C2409 0.959 . S
H2416 C2409 0.961 . S
H2417 C2409 0.960 . S
H2418 C2410 0.930 . S
H2419 C2411 0.929 . S
H2420 C2428 0.929 . S
H2421 C2430 0.930 . S
H2422 C2432 0.930 . S
H2423 C2435 0.929 . S
H2424 C2438 0.930 . S
H2425 C2440 0.960 . S
H2426 C2440 0.960 . S
H2427 C2440 0.960 . S
C2428 H2420 0.929 . S
C2428 C2429 1.377 . S
C2428 C2430 1.384 . S
C2429 C2428 1.377 . S
C2429 C2435 1.390 . S
C2430 H2421 0.930 . S
C2430 C2428 1.384 . S
C2430 C2431 1.372 . S
C2431 C2430 1.372 . S
C2431 C2432 1.400 . S
C2431 C2436 1.490 . S
C2432 H2422 0.930 . S
C2432 C2431 1.400 . S
C2432 C2435 1.386 . S
H2433 C2449 0.929 1_655 S
H2434 C2450 0.931 . S
C2435 H2423 0.929 . S
C2435 C2429 1.390 . S
C2435 C2432 1.386 . S
C2436 C2431 1.490 . S
C2436 C2438 1.395 . S
C2436 C2439 1.403 . S
H2437 C2443 0.930 . S
C2438 H2424 0.930 . S
C2438 C2436 1.395 . S
C2438 C2441 1.403 . S
C2439 C2436 1.403 . S
C2439 C2440 1.524 . S
C2439 C2443 1.400 . S
C2440 H2425 0.960 . S
C2440 H2426 0.960 . S
C2440 H2427 0.960 . S
C2440 C2439 1.524 . S
C2441 C2438 1.403 . S
C2441 C2442 1.392 . S
C2441 C2445 1.495 . S
C2442 C2441 1.392 . S
C2442 C2443 1.385 . S
C2442 C2444 1.478 . S
C2443 H2437 0.930 . S
C2443 C2439 1.400 . S
C2443 C2442 1.385 . S
C2444 C2442 1.478 . S
C2444 C2446 1.381 . S
C2444 C2450 1.383 . S
C2445 C2441 1.495 . S
C2445 H2451 0.959 . S
C2445 H2452 0.961 . S
C2445 H2453 0.960 . S
C2446 C2444 1.381 . S
C2446 C2447 1.394 1_455 S
C2446 H2454 0.930 . S
C2447 C2446 1.394 1_655 S
C2447 C2448 1.383 . S
C2447 H2455 0.929 . S
C2448 C2447 1.383 . S
C2448 C2449 1.376 1_655 S
C2449 H2433 0.929 1_455 S
C2449 C2448 1.376 1_455 S
C2449 C2450 1.381 . S
C2450 H2434 0.931 . S
C2450 C2444 1.383 . S
C2450 C2449 1.381 . S
H2451 C2445 0.959 . S
H2452 C2445 0.961 . S
H2453 C2445 0.960 . S
H2454 C2446 0.930 . S
H2455 C2447 0.929 . S
H2456 C2464 0.929 . S
H2457 C2466 0.930 . S
H2458 C2468 0.930 . S
H2459 C2471 0.929 . S
H2460 C2474 0.930 . S
H2461 C2476 0.960 . S
H2462 C2476 0.960 . S
H2463 C2476 0.960 . S
C2464 H2456 0.929 . S
C2464 C2465 1.377 1_655 S
C2464 C2466 1.384 . S
C2465 C2464 1.377 1_455 S
C2465 C2471 1.390 . S
C2466 H2457 0.930 . S
C2466 C2464 1.384 . S
C2466 C2467 1.372 . S
C2467 C2466 1.372 . S
C2467 C2468 1.400 . S
C2467 C2472 1.490 . S
C2468 H2458 0.930 . S
C2468 C2467 1.400 . S
C2468 C2471 1.386 1_655 S
H2469 C2485 0.930 . S
H2470 C2486 0.931 . S
C2471 H2459 0.929 . S
C2471 C2465 1.390 . S
C2471 C2468 1.386 1_455 S
C2472 C2467 1.490 . S
C2472 C2474 1.395 . S
C2472 C2475 1.403 . S
H2473 C2479 0.930 . S
C2474 H2460 0.930 . S
C2474 C2472 1.395 . S
C2474 C2477 1.403 . S
C2475 C2472 1.403 . S
C2475 C2476 1.524 . S
C2475 C2479 1.400 . S
C2476 H2461 0.960 . S
C2476 H2462 0.960 . S
C2476 H2463 0.960 . S
C2476 C2475 1.524 . S
C2477 C2474 1.403 . S
C2477 C2478 1.392 . S
C2477 C2481 1.495 . S
C2478 C2477 1.392 . S
C2478 C2479 1.385 . S
C2478 C2480 1.478 . S
C2479 H2473 0.930 . S
C2479 C2475 1.400 . S
C2479 C2478 1.385 . S
C2480 C2478 1.478 . S
C2480 C2482 1.381 . S
C2480 C2486 1.383 . S
C2481 C2477 1.495 . S
C2481 H2487 0.959 . S
C2481 H2488 0.961 . S
C2481 H2489 0.960 . S
C2482 C2480 1.381 . S
C2482 C2483 1.394 . S
C2482 H2490 0.930 . S
C2483 C2482 1.394 . S
C2483 C2484 1.383 . S
C2483 H2491 0.929 . S
C2484 C2483 1.383 . S
C2484 C2485 1.377 . S
C2485 H2469 0.930 . S
C2485 C2484 1.377 . S
C2485 C2486 1.379 . S
C2486 H2470 0.931 . S
C2486 C2480 1.383 . S
C2486 C2485 1.379 . S
H2487 C2481 0.959 . S
H2488 C2481 0.961 . S
H2489 C2481 0.960 . S
H2490 C2482 0.930 . S
H2491 C2483 0.929 . S
H2492 C2500 0.929 . S
H2493 C2502 0.930 . S
H2494 C2504 0.930 . S
H2495 C2507 0.929 . S
H2496 C2510 0.930 . S
H2497 C2512 0.960 . S
H2498 C2512 0.960 . S
H2499 C2512 0.960 . S
C2500 H2492 0.929 . S
C2500 C2501 1.377 . S
C2500 C2502 1.384 . S
C2501 C2500 1.377 . S
C2501 C2507 1.390 . S
C2502 H2493 0.930 . S
C2502 C2500 1.384 . S
C2502 C2503 1.372 . S
C2503 C2502 1.372 . S
C2503 C2504 1.400 . S
C2503 C2508 1.490 . S
C2504 H2494 0.930 . S
C2504 C2503 1.400 . S
C2504 C2507 1.386 . S
H2505 C2521 0.930 . S
H2506 C2522 0.931 . S
C2507 H2495 0.929 . S
C2507 C2501 1.390 . S
C2507 C2504 1.386 . S
C2508 C2503 1.490 . S
C2508 C2510 1.395 . S
C2508 C2511 1.403 . S
H2509 C2515 0.930 . S
C2510 H2496 0.930 . S
C2510 C2508 1.395 . S
C2510 C2513 1.403 . S
C2511 C2508 1.403 . S
C2511 C2512 1.524 . S
C2511 C2515 1.400 . S
C2512 H2497 0.960 . S
C2512 H2498 0.960 . S
C2512 H2499 0.960 . S
C2512 C2511 1.524 . S
C2513 C2510 1.403 . S
C2513 C2514 1.392 . S
C2513 C2517 1.495 . S
C2514 C2513 1.392 . S
C2514 C2515 1.385 . S
C2514 C2516 1.478 . S
C2515 H2509 0.930 . S
C2515 C2511 1.400 . S
C2515 C2514 1.385 . S
C2516 C2514 1.478 . S
C2516 C2518 1.381 . S
C2516 C2522 1.383 . S
C2517 C2513 1.495 . S
C2517 H2523 0.959 . S
C2517 H2524 0.961 . S
C2517 H2525 0.960 . S
C2518 C2516 1.381 . S
C2518 C2519 1.394 1_655 S
C2518 H2526 0.930 . S
C2519 C2518 1.394 1_455 S
C2519 C2520 1.383 . S
C2519 H2527 0.929 . S
C2520 C2519 1.383 . S
C2520 C2521 1.377 . S
C2521 H2505 0.930 . S
C2521 C2520 1.377 . S
C2521 C2522 1.379 1_455 S
C2522 H2506 0.931 . S
C2522 C2516 1.383 . S
C2522 C2521 1.379 1_655 S
H2523 C2517 0.959 . S
H2524 C2517 0.961 . S
H2525 C2517 0.960 . S
H2526 C2518 0.930 . S
H2527 C2519 0.929 . S
H2528 C2536 0.929 . S
H2529 C2538 0.930 . S
H2530 C2540 0.930 . S
H2531 C2543 0.929 . S
H2532 C2546 0.930 . S
H2533 C2548 0.960 . S
H2534 C2548 0.960 . S
H2535 C2548 0.960 . S
C2536 H2528 0.929 . S
C2536 C2537 1.377 . S
C2536 C2538 1.384 . S
C2537 C2536 1.377 . S
C2537 C2543 1.390 . S
C2538 H2529 0.930 . S
C2538 C2536 1.384 . S
C2538 C2539 1.372 . S
C2539 C2538 1.372 . S
C2539 C2540 1.400 . S
C2539 C2544 1.490 . S
C2540 H2530 0.930 . S
C2540 C2539 1.400 . S
C2540 C2543 1.386 . S
H2541 C2557 0.930 . S
H2542 C2558 0.931 . S
C2543 H2531 0.929 . S
C2543 C2537 1.390 . S
C2543 C2540 1.386 . S
C2544 C2539 1.490 . S
C2544 C2546 1.395 . S
C2544 C2547 1.403 . S
H2545 C2551 0.930 . S
C2546 H2532 0.930 . S
C2546 C2544 1.395 . S
C2546 C2549 1.403 . S
C2547 C2544 1.403 . S
C2547 C2548 1.524 . S
C2547 C2551 1.400 . S
C2548 H2533 0.960 . S
C2548 H2534 0.960 . S
C2548 H2535 0.960 . S
C2548 C2547 1.524 . S
C2549 C2546 1.403 . S
C2549 C2550 1.392 . S
C2549 C2553 1.495 . S
C2550 C2549 1.392 . S
C2550 C2551 1.385 . S
C2550 C2552 1.478 . S
C2551 H2545 0.930 . S
C2551 C2547 1.400 . S
C2551 C2550 1.385 . S
C2552 C2550 1.478 . S
C2552 C2554 1.381 . S
C2552 C2558 1.383 . S
C2553 C2549 1.495 . S
C2553 H2559 0.959 . S
C2553 H2560 0.961 . S
C2553 H2561 0.960 . S
C2554 C2552 1.381 . S
C2554 C2555 1.394 . S
C2554 H2562 0.930 . S
C2555 C2554 1.394 . S
C2555 C2556 1.383 . S
C2555 H2563 0.929 . S
C2556 C2555 1.383 . S
C2556 C2557 1.377 . S
C2557 H2541 0.930 . S
C2557 C2556 1.377 . S
C2557 C2558 1.379 . S
C2558 H2542 0.931 . S
C2558 C2552 1.383 . S
C2558 C2557 1.379 . S
H2559 C2553 0.959 . S
H2560 C2553 0.961 . S
H2561 C2553 0.960 . S
H2562 C2554 0.930 . S
H2563 C2555 0.929 . S
H2564 C2572 0.929 . S
H2565 C2574 0.930 . S
H2566 C2576 0.930 . S
H2567 C2579 0.929 . S
H2568 C2582 0.930 . S
H2569 C2584 0.960 . S
H2570 C2584 0.960 . S
H2571 C2584 0.960 . S
C2572 H2564 0.929 . S
C2572 C2573 1.377 . S
C2572 C2574 1.384 . S
C2573 C2572 1.377 . S
C2573 C2579 1.390 . S
C2574 H2565 0.930 . S
C2574 C2572 1.384 . S
C2574 C2575 1.372 . S
C2575 C2574 1.372 . S
C2575 C2576 1.400 . S
C2575 C2580 1.490 . S
C2576 H2566 0.930 . S
C2576 C2575 1.400 . S
C2576 C2579 1.386 . S
H2577 C2593 0.930 . S
H2578 C2594 0.931 . S
C2579 H2567 0.929 . S
C2579 C2573 1.390 . S
C2579 C2576 1.386 . S
C2580 C2575 1.490 . S
C2580 C2582 1.395 . S
C2580 C2583 1.403 . S
H2581 C2587 0.930 . S
C2582 H2568 0.930 . S
C2582 C2580 1.395 . S
C2582 C2585 1.403 . S
C2583 C2580 1.403 . S
C2583 C2584 1.524 . S
C2583 C2587 1.400 . S
C2584 H2569 0.960 . S
C2584 H2570 0.960 . S
C2584 H2571 0.960 . S
C2584 C2583 1.524 . S
C2585 C2582 1.403 . S
C2585 C2586 1.392 . S
C2585 C2589 1.495 . S
C2586 C2585 1.392 . S
C2586 C2587 1.385 . S
C2586 C2588 1.478 . S
C2587 H2581 0.930 . S
C2587 C2583 1.400 . S
C2587 C2586 1.385 . S
C2588 C2586 1.478 . S
C2588 C2590 1.381 . S
C2588 C2594 1.383 . S
C2589 C2585 1.495 . S
C2589 H2595 0.959 . S
C2589 H2596 0.961 . S
C2589 H2597 0.960 . S
C2590 C2588 1.381 . S
C2590 C2591 1.394 . S
C2590 H2598 0.930 . S
C2591 C2590 1.394 . S
C2591 C2592 1.383 . S
C2591 H2599 0.929 . S
C2592 C2591 1.383 . S
C2592 C2593 1.377 . S
C2593 H2577 0.930 . S
C2593 C2592 1.377 . S
C2593 C2594 1.379 . S
C2594 H2578 0.931 . S
C2594 C2588 1.383 . S
C2594 C2593 1.379 . S
H2595 C2589 0.959 . S
H2596 C2589 0.961 . S
H2597 C2589 0.960 . S
H2598 C2590 0.930 . S
H2599 C2591 0.929 . S
H2600 C2608 0.929 . S
H2601 C2610 0.930 . S
H2602 C2612 0.930 . S
H2603 C2615 0.929 . S
H2604 C2618 0.930 . S
H2605 C2620 0.960 . S
H2606 C2620 0.960 . S
H2607 C2620 0.960 . S
C2608 H2600 0.929 . S
C2608 C2609 1.377 . S
C2608 C2610 1.384 . S
C2609 C2608 1.377 . S
C2609 C2615 1.390 . S
C2610 H2601 0.930 . S
C2610 C2608 1.384 . S
C2610 C2611 1.372 . S
C2611 C2610 1.372 . S
C2611 C2612 1.400 . S
C2611 C2616 1.490 . S
C2612 H2602 0.930 . S
C2612 C2611 1.400 . S
C2612 C2615 1.386 . S
H2613 C2629 0.930 . S
H2614 C2630 0.931 . S
C2615 H2603 0.929 . S
C2615 C2609 1.390 . S
C2615 C2612 1.386 . S
C2616 C2611 1.490 . S
C2616 C2618 1.395 . S
C2616 C2619 1.403 . S
H2617 C2623 0.930 . S
C2618 H2604 0.930 . S
C2618 C2616 1.395 . S
C2618 C2621 1.403 . S
C2619 C2616 1.403 . S
C2619 C2620 1.524 . S
C2619 C2623 1.400 . S
C2620 H2605 0.960 . S
C2620 H2606 0.960 . S
C2620 H2607 0.960 . S
C2620 C2619 1.524 . S
C2621 C2618 1.403 . S
C2621 C2622 1.392 . S
C2621 C2625 1.495 . S
C2622 C2621 1.392 . S
C2622 C2623 1.385 . S
C2622 C2624 1.478 . S
C2623 H2617 0.930 . S
C2623 C2619 1.400 . S
C2623 C2622 1.385 . S
C2624 C2622 1.478 . S
C2624 C2626 1.381 . S
C2624 C2630 1.383 . S
C2625 C2621 1.495 . S
C2625 H2631 0.959 . S
C2625 H2632 0.961 . S
C2625 H2633 0.960 . S
C2626 C2624 1.381 . S
C2626 C2627 1.394 . S
C2626 H2634 0.930 . S
C2627 C2626 1.394 . S
C2627 C2628 1.383 . S
C2627 H2635 0.929 . S
C2628 C2627 1.383 . S
C2628 C2629 1.377 . S
C2629 H2613 0.930 . S
C2629 C2628 1.377 . S
C2629 C2630 1.379 . S
C2630 H2614 0.931 . S
C2630 C2624 1.383 . S
C2630 C2629 1.379 . S
H2631 C2625 0.959 . S
H2632 C2625 0.961 . S
H2633 C2625 0.960 . S
H2634 C2626 0.930 . S
H2635 C2627 0.929 . S
H2636 C2644 0.929 . S
H2637 C2646 0.930 . S
H2638 C2648 0.930 . S
H2639 C2651 0.929 . S
H2640 C2654 0.930 . S
H2641 C2656 0.960 . S
H2642 C2656 0.960 . S
H2643 C2656 0.960 . S
C2644 H2636 0.929 . S
C2644 C2645 1.377 . S
C2644 C2646 1.384 . S
C2645 C2644 1.377 . S
C2645 C2651 1.390 . S
C2646 H2637 0.930 . S
C2646 C2644 1.384 . S
C2646 C2647 1.372 . S
C2647 C2646 1.372 . S
C2647 C2648 1.400 . S
C2647 C2652 1.490 . S
C2648 H2638 0.930 . S
C2648 C2647 1.400 . S
C2648 C2651 1.386 . S
H2649 C2665 0.930 . S
H2650 C2666 0.931 . S
C2651 H2639 0.929 . S
C2651 C2645 1.390 . S
C2651 C2648 1.386 . S
C2652 C2647 1.490 . S
C2652 C2654 1.395 . S
C2652 C2655 1.403 . S
H2653 C2659 0.930 . S
C2654 H2640 0.930 . S
C2654 C2652 1.395 . S
C2654 C2657 1.403 . S
C2655 C2652 1.403 . S
C2655 C2656 1.524 . S
C2655 C2659 1.400 . S
C2656 H2641 0.960 . S
C2656 H2642 0.960 . S
C2656 H2643 0.960 . S
C2656 C2655 1.524 . S
C2657 C2654 1.403 . S
C2657 C2658 1.392 . S
C2657 C2661 1.495 . S
C2658 C2657 1.392 . S
C2658 C2659 1.385 . S
C2658 C2660 1.478 . S
C2659 H2653 0.930 . S
C2659 C2655 1.400 . S
C2659 C2658 1.385 . S
C2660 C2658 1.478 . S
C2660 C2662 1.381 . S
C2660 C2666 1.383 . S
C2661 C2657 1.495 . S
C2661 H2667 0.959 . S
C2661 H2668 0.961 . S
C2661 H2669 0.960 . S
C2662 C2660 1.381 . S
C2662 C2663 1.394 . S
C2662 H2670 0.930 . S
C2663 C2662 1.394 . S
C2663 C2664 1.383 . S
C2663 H2671 0.929 . S
C2664 C2663 1.383 . S
C2664 C2665 1.377 . S
C2665 H2649 0.930 . S
C2665 C2664 1.377 . S
C2665 C2666 1.379 . S
C2666 H2650 0.931 . S
C2666 C2660 1.383 . S
C2666 C2665 1.379 . S
H2667 C2661 0.959 . S
H2668 C2661 0.961 . S
H2669 C2661 0.960 . S
H2670 C2662 0.930 . S
H2671 C2663 0.929 . S
H2672 C2680 0.929 . S
H2673 C2682 0.930 . S
H2674 C2684 0.930 . S
H2675 C2687 0.929 . S
H2676 C2690 0.930 . S
H2677 C2692 0.960 . S
H2678 C2692 0.960 . S
H2679 C2692 0.960 . S
C2680 H2672 0.929 . S
C2680 C2681 1.377 . S
C2680 C2682 1.384 . S
C2681 C2680 1.377 . S
C2681 C2687 1.390 . S
C2682 H2673 0.930 . S
C2682 C2680 1.384 . S
C2682 C2683 1.372 . S
C2683 C2682 1.372 . S
C2683 C2684 1.400 . S
C2683 C2688 1.490 . S
C2684 H2674 0.930 . S
C2684 C2683 1.400 . S
C2684 C2687 1.386 . S
H2685 C2701 0.930 . S
H2686 C2702 0.931 . S
C2687 H2675 0.929 . S
C2687 C2681 1.390 . S
C2687 C2684 1.386 . S
C2688 C2683 1.490 . S
C2688 C2690 1.395 . S
C2688 C2691 1.403 . S
H2689 C2695 0.930 . S
C2690 H2676 0.930 . S
C2690 C2688 1.395 . S
C2690 C2693 1.403 . S
C2691 C2688 1.403 . S
C2691 C2692 1.524 . S
C2691 C2695 1.400 . S
C2692 H2677 0.960 . S
C2692 H2678 0.960 . S
C2692 H2679 0.960 . S
C2692 C2691 1.524 . S
C2693 C2690 1.403 . S
C2693 C2694 1.392 . S
C2693 C2697 1.495 . S
C2694 C2693 1.392 . S
C2694 C2695 1.385 . S
C2694 C2696 1.478 . S
C2695 H2689 0.930 . S
C2695 C2691 1.400 . S
C2695 C2694 1.385 . S
C2696 C2694 1.478 . S
C2696 C2698 1.381 . S
C2696 C2702 1.383 . S
C2697 C2693 1.495 . S
C2697 H2703 0.959 . S
C2697 H2704 0.961 . S
C2697 H2705 0.960 . S
C2698 C2696 1.381 . S
C2698 C2699 1.394 . S
C2698 H2706 0.930 . S
C2699 C2698 1.394 . S
C2699 C2700 1.383 . S
C2699 H2707 0.929 . S
C2700 C2699 1.383 . S
C2700 C2701 1.377 . S
C2701 H2685 0.930 . S
C2701 C2700 1.377 . S
C2701 C2702 1.379 . S
C2702 H2686 0.931 . S
C2702 C2696 1.383 . S
C2702 C2701 1.379 . S
H2703 C2697 0.959 . S
H2704 C2697 0.961 . S
H2705 C2697 0.960 . S
H2706 C2698 0.930 . S
H2707 C2699 0.929 . S
H2708 C2716 0.929 . S
H2709 C2718 0.930 . S
H2710 C2720 0.930 . S
H2711 C2723 0.929 . S
H2712 C2726 0.930 . S
H2713 C2728 0.960 . S
H2714 C2728 0.960 . S
H2715 C2728 0.960 . S
C2716 H2708 0.929 . S
C2716 C2717 1.377 . S
C2716 C2718 1.384 . S
C2717 C2716 1.377 . S
C2717 C2723 1.390 . S
C2718 H2709 0.930 . S
C2718 C2716 1.384 . S
C2718 C2719 1.372 . S
C2719 C2718 1.372 . S
C2719 C2720 1.400 . S
C2719 C2724 1.490 . S
C2720 H2710 0.930 . S
C2720 C2719 1.400 . S
C2720 C2723 1.386 . S
H2721 C2737 0.930 . S
H2722 C2738 0.931 . S
C2723 H2711 0.929 . S
C2723 C2717 1.390 . S
C2723 C2720 1.386 . S
C2724 C2719 1.490 . S
C2724 C2726 1.395 . S
C2724 C2727 1.403 . S
H2725 C2731 0.930 . S
C2726 H2712 0.930 . S
C2726 C2724 1.395 . S
C2726 C2729 1.403 . S
C2727 C2724 1.403 . S
C2727 C2728 1.524 . S
C2727 C2731 1.400 . S
C2728 H2713 0.960 . S
C2728 H2714 0.960 . S
C2728 H2715 0.960 . S
C2728 C2727 1.524 . S
C2729 C2726 1.403 . S
C2729 C2730 1.392 . S
C2729 C2733 1.495 . S
C2730 C2729 1.392 . S
C2730 C2731 1.385 . S
C2730 C2732 1.478 . S
C2731 H2725 0.930 . S
C2731 C2727 1.400 . S
C2731 C2730 1.385 . S
C2732 C2730 1.478 . S
C2732 C2734 1.381 . S
C2732 C2738 1.383 . S
C2733 C2729 1.495 . S
C2733 H2739 0.959 . S
C2733 H2740 0.961 . S
C2733 H2741 0.960 . S
C2734 C2732 1.381 . S
C2734 C2735 1.394 . S
C2734 H2742 0.930 . S
C2735 C2734 1.394 . S
C2735 C2736 1.383 . S
C2735 H2743 0.929 . S
C2736 C2735 1.383 . S
C2736 C2737 1.377 . S
C2737 H2721 0.930 . S
C2737 C2736 1.377 . S
C2737 C2738 1.379 . S
C2738 H2722 0.931 . S
C2738 C2732 1.383 . S
C2738 C2737 1.379 . S
H2739 C2733 0.959 . S
H2740 C2733 0.961 . S
H2741 C2733 0.960 . S
H2742 C2734 0.930 . S
H2743 C2735 0.929 . S
H2744 C2752 0.929 . S
H2745 C2754 0.930 . S
H2746 C2756 0.930 . S
H2747 C2759 0.929 . S
H2748 C2762 0.930 . S
H2749 C2764 0.960 . S
H2750 C2764 0.960 . S
H2751 C2764 0.960 . S
C2752 H2744 0.929 . S
C2752 C2753 1.377 . S
C2752 C2754 1.384 . S
C2753 C2752 1.377 . S
C2753 C2759 1.390 . S
C2754 H2745 0.930 . S
C2754 C2752 1.384 . S
C2754 C2755 1.372 . S
C2755 C2754 1.372 . S
C2755 C2756 1.400 . S
C2755 C2760 1.490 . S
C2756 H2746 0.930 . S
C2756 C2755 1.400 . S
C2756 C2759 1.386 . S
H2757 C2773 0.930 . S
H2758 C2774 0.931 . S
C2759 H2747 0.929 . S
C2759 C2753 1.390 . S
C2759 C2756 1.386 . S
C2760 C2755 1.490 . S
C2760 C2762 1.395 . S
C2760 C2763 1.403 . S
H2761 C2767 0.930 . S
C2762 H2748 0.930 . S
C2762 C2760 1.395 . S
C2762 C2765 1.403 . S
C2763 C2760 1.403 . S
C2763 C2764 1.524 . S
C2763 C2767 1.400 . S
C2764 H2749 0.960 . S
C2764 H2750 0.960 . S
C2764 H2751 0.960 . S
C2764 C2763 1.524 . S
C2765 C2762 1.403 . S
C2765 C2766 1.392 . S
C2765 C2769 1.495 . S
C2766 C2765 1.392 . S
C2766 C2767 1.385 . S
C2766 C2768 1.478 . S
C2767 H2761 0.930 . S
C2767 C2763 1.400 . S
C2767 C2766 1.385 . S
C2768 C2766 1.478 . S
C2768 C2770 1.381 . S
C2768 C2774 1.383 . S
C2769 C2765 1.495 . S
C2769 H2775 0.959 . S
C2769 H2776 0.961 . S
C2769 H2777 0.960 . S
C2770 C2768 1.381 . S
C2770 C2771 1.394 . S
C2770 H2778 0.930 . S
C2771 C2770 1.394 . S
C2771 C2772 1.383 . S
C2771 H2779 0.929 . S
C2772 C2771 1.383 . S
C2772 C2773 1.377 . S
C2773 H2757 0.930 . S
C2773 C2772 1.377 . S
C2773 C2774 1.379 . S
C2774 H2758 0.931 . S
C2774 C2768 1.383 . S
C2774 C2773 1.379 . S
H2775 C2769 0.959 . S
H2776 C2769 0.961 . S
H2777 C2769 0.960 . S
H2778 C2770 0.930 . S
H2779 C2771 0.929 . S
H2780 C2788 0.929 . S
H2781 C2790 0.930 . S
H2782 C2792 0.930 . S
H2783 C2795 0.929 . S
H2784 C2798 0.930 . S
H2785 C2800 0.960 . S
H2786 C2800 0.960 . S
H2787 C2800 0.960 . S
C2788 H2780 0.929 . S
C2788 C2789 1.377 . S
C2788 C2790 1.384 . S
C2789 C2788 1.377 . S
C2789 C2795 1.390 . S
C2790 H2781 0.930 . S
C2790 C2788 1.384 . S
C2790 C2791 1.372 . S
C2791 C2790 1.372 . S
C2791 C2792 1.400 . S
C2791 C2796 1.490 . S
C2792 H2782 0.930 . S
C2792 C2791 1.400 . S
C2792 C2795 1.386 . S
H2793 C2809 0.930 . S
H2794 C2810 0.931 . S
C2795 H2783 0.929 . S
C2795 C2789 1.390 . S
C2795 C2792 1.386 . S
C2796 C2791 1.490 . S
C2796 C2798 1.395 . S
C2796 C2799 1.403 . S
H2797 C2803 0.930 . S
C2798 H2784 0.930 . S
C2798 C2796 1.395 . S
C2798 C2801 1.403 . S
C2799 C2796 1.403 . S
C2799 C2800 1.524 . S
C2799 C2803 1.400 . S
C2800 H2785 0.960 . S
C2800 H2786 0.960 . S
C2800 H2787 0.960 . S
C2800 C2799 1.524 . S
C2801 C2798 1.403 . S
C2801 C2802 1.392 . S
C2801 C2805 1.495 . S
C2802 C2801 1.392 . S
C2802 C2803 1.385 . S
C2802 C2804 1.478 . S
C2803 H2797 0.930 . S
C2803 C2799 1.400 . S
C2803 C2802 1.385 . S
C2804 C2802 1.478 . S
C2804 C2806 1.381 . S
C2804 C2810 1.383 . S
C2805 C2801 1.495 . S
C2805 H2811 0.959 . S
C2805 H2812 0.961 . S
C2805 H2813 0.960 . S
C2806 C2804 1.381 . S
C2806 C2807 1.394 . S
C2806 H2814 0.930 . S
C2807 C2806 1.394 . S
C2807 C2808 1.383 . S
C2807 H2815 0.929 . S
C2808 C2807 1.383 . S
C2808 C2809 1.377 . S
C2809 H2793 0.930 . S
C2809 C2808 1.377 . S
C2809 C2810 1.379 . S
C2810 H2794 0.931 . S
C2810 C2804 1.383 . S
C2810 C2809 1.379 . S
H2811 C2805 0.959 . S
H2812 C2805 0.961 . S
H2813 C2805 0.960 . S
H2814 C2806 0.930 . S
H2815 C2807 0.929 . S
H2816 C2824 0.929 . S
H2817 C2826 0.930 . S
H2818 C2828 0.930 . S
H2819 C2831 0.929 . S
H2820 C2834 0.930 . S
H2821 C2836 0.960 . S
H2822 C2836 0.960 . S
H2823 C2836 0.960 . S
C2824 H2816 0.929 . S
C2824 C2825 1.377 . S
C2824 C2826 1.384 . S
C2825 C2824 1.377 . S
C2825 C2831 1.390 . S
C2826 H2817 0.930 . S
C2826 C2824 1.384 . S
C2826 C2827 1.372 . S
C2827 C2826 1.372 . S
C2827 C2828 1.400 . S
C2827 C2832 1.490 . S
C2828 H2818 0.930 . S
C2828 C2827 1.400 . S
C2828 C2831 1.386 . S
H2829 C2845 0.930 . S
H2830 C2846 0.931 . S
C2831 H2819 0.929 . S
C2831 C2825 1.390 . S
C2831 C2828 1.386 . S
C2832 C2827 1.490 . S
C2832 C2834 1.395 . S
C2832 C2835 1.403 . S
H2833 C2839 0.930 . S
C2834 H2820 0.930 . S
C2834 C2832 1.395 . S
C2834 C2837 1.403 . S
C2835 C2832 1.403 . S
C2835 C2836 1.524 . S
C2835 C2839 1.400 . S
C2836 H2821 0.960 . S
C2836 H2822 0.960 . S
C2836 H2823 0.960 . S
C2836 C2835 1.524 . S
C2837 C2834 1.403 . S
C2837 C2838 1.392 . S
C2837 C2841 1.495 . S
C2838 C2837 1.392 . S
C2838 C2839 1.385 . S
C2838 C2840 1.478 . S
C2839 H2833 0.930 . S
C2839 C2835 1.400 . S
C2839 C2838 1.385 . S
C2840 C2838 1.478 . S
C2840 C2842 1.381 . S
C2840 C2846 1.383 . S
C2841 C2837 1.495 . S
C2841 H2847 0.959 . S
C2841 H2848 0.961 . S
C2841 H2849 0.960 . S
C2842 C2840 1.381 . S
C2842 C2843 1.394 . S
C2842 H2850 0.930 . S
C2843 C2842 1.394 . S
C2843 C2844 1.383 . S
C2843 H2851 0.929 . S
C2844 C2843 1.383 . S
C2844 C2845 1.377 . S
C2845 H2829 0.930 . S
C2845 C2844 1.377 . S
C2845 C2846 1.379 . S
C2846 H2830 0.931 . S
C2846 C2840 1.383 . S
C2846 C2845 1.379 . S
H2847 C2841 0.959 . S
H2848 C2841 0.961 . S
H2849 C2841 0.960 . S
H2850 C2842 0.930 . S
H2851 C2843 0.929 . S
H2852 C2860 0.929 . S
H2853 C2862 0.930 . S
H2854 C2864 0.930 . S
H2855 C2867 0.929 . S
H2856 C2870 0.930 . S
H2857 C2872 0.960 . S
H2858 C2872 0.960 . S
H2859 C2872 0.960 . S
C2860 H2852 0.929 . S
C2860 C2861 1.377 . S
C2860 C2862 1.384 . S
C2861 C2860 1.377 . S
C2861 C2867 1.390 . S
C2862 H2853 0.930 . S
C2862 C2860 1.384 . S
C2862 C2863 1.372 . S
C2863 C2862 1.372 . S
C2863 C2864 1.400 . S
C2863 C2868 1.490 . S
C2864 H2854 0.930 . S
C2864 C2863 1.400 . S
C2864 C2867 1.386 . S
H2865 C2881 0.930 . S
H2866 C2882 0.931 . S
C2867 H2855 0.929 . S
C2867 C2861 1.390 . S
C2867 C2864 1.386 . S
C2868 C2863 1.490 . S
C2868 C2870 1.395 . S
C2868 C2871 1.403 . S
H2869 C2875 0.930 . S
C2870 H2856 0.930 . S
C2870 C2868 1.395 . S
C2870 C2873 1.403 . S
C2871 C2868 1.403 . S
C2871 C2872 1.524 . S
C2871 C2875 1.400 . S
C2872 H2857 0.960 . S
C2872 H2858 0.960 . S
C2872 H2859 0.960 . S
C2872 C2871 1.524 . S
C2873 C2870 1.403 . S
C2873 C2874 1.392 . S
C2873 C2877 1.495 . S
C2874 C2873 1.392 . S
C2874 C2875 1.385 . S
C2874 C2876 1.478 . S
C2875 H2869 0.930 . S
C2875 C2871 1.400 . S
C2875 C2874 1.385 . S
C2876 C2874 1.478 . S
C2876 C2878 1.381 . S
C2876 C2882 1.383 . S
C2877 C2873 1.495 . S
C2877 H2883 0.959 . S
C2877 H2884 0.961 . S
C2877 H2885 0.960 . S
C2878 C2876 1.381 . S
C2878 C2879 1.394 . S
C2878 H2886 0.930 . S
C2879 C2878 1.394 . S
C2879 C2880 1.383 . S
C2879 H2887 0.929 . S
C2880 C2879 1.383 . S
C2880 C2881 1.377 . S
C2881 H2865 0.930 . S
C2881 C2880 1.377 . S
C2881 C2882 1.379 . S
C2882 H2866 0.931 . S
C2882 C2876 1.383 . S
C2882 C2881 1.379 . S
H2883 C2877 0.959 . S
H2884 C2877 0.961 . S
H2885 C2877 0.960 . S
H2886 C2878 0.930 . S
H2887 C2879 0.929 . S
H2888 C2896 0.929 . S
H2889 C2898 0.930 . S
H2890 C2900 0.930 . S
H2891 C2903 0.929 . S
H2892 C2906 0.930 . S
H2893 C2908 0.960 . S
H2894 C2908 0.960 . S
H2895 C2908 0.960 . S
C2896 H2888 0.929 . S
C2896 C2897 1.377 . S
C2896 C2898 1.384 . S
C2897 C2896 1.377 . S
C2897 C2903 1.390 . S
C2898 H2889 0.930 . S
C2898 C2896 1.384 . S
C2898 C2899 1.372 . S
C2899 C2898 1.372 . S
C2899 C2900 1.400 . S
C2899 C2904 1.490 . S
C2900 H2890 0.930 . S
C2900 C2899 1.400 . S
C2900 C2903 1.386 . S
H2901 C2917 0.930 . S
H2902 C2918 0.931 . S
C2903 H2891 0.929 . S
C2903 C2897 1.390 . S
C2903 C2900 1.386 . S
C2904 C2899 1.490 . S
C2904 C2906 1.395 . S
C2904 C2907 1.403 . S
H2905 C2911 0.930 . S
C2906 H2892 0.930 . S
C2906 C2904 1.395 . S
C2906 C2909 1.403 . S
C2907 C2904 1.403 . S
C2907 C2908 1.524 . S
C2907 C2911 1.400 . S
C2908 H2893 0.960 . S
C2908 H2894 0.960 . S
C2908 H2895 0.960 . S
C2908 C2907 1.524 . S
C2909 C2906 1.403 . S
C2909 C2910 1.392 . S
C2909 C2913 1.495 . S
C2910 C2909 1.392 . S
C2910 C2911 1.385 . S
C2910 C2912 1.478 . S
C2911 H2905 0.930 . S
C2911 C2907 1.400 . S
C2911 C2910 1.385 . S
C2912 C2910 1.478 . S
C2912 C2914 1.381 . S
C2912 C2918 1.383 . S
C2913 C2909 1.495 . S
C2913 H2919 0.959 . S
C2913 H2920 0.961 . S
C2913 H2921 0.960 . S
C2914 C2912 1.381 . S
C2914 C2915 1.394 . S
C2914 H2922 0.930 . S
C2915 C2914 1.394 . S
C2915 C2916 1.383 . S
C2915 H2923 0.929 . S
C2916 C2915 1.383 . S
C2916 C2917 1.377 . S
C2917 H2901 0.930 . S
C2917 C2916 1.377 . S
C2917 C2918 1.379 . S
C2918 H2902 0.931 . S
C2918 C2912 1.383 . S
C2918 C2917 1.379 . S
H2919 C2913 0.959 . S
H2920 C2913 0.961 . S
H2921 C2913 0.960 . S
H2922 C2914 0.930 . S
H2923 C2915 0.929 . S
H2924 C2932 0.929 . S
H2925 C2934 0.930 . S
H2926 C2936 0.930 . S
H2927 C2939 0.929 . S
H2928 C2942 0.930 . S
H2929 C2944 0.960 . S
H2930 C2944 0.960 . S
H2931 C2944 0.960 . S
C2932 H2924 0.929 . S
C2932 C2933 1.377 . S
C2932 C2934 1.384 . S
C2933 C2932 1.377 . S
C2933 C2939 1.390 . S
C2934 H2925 0.930 . S
C2934 C2932 1.384 . S
C2934 C2935 1.372 . S
C2935 C2934 1.372 . S
C2935 C2936 1.400 . S
C2935 C2940 1.490 . S
C2936 H2926 0.930 . S
C2936 C2935 1.400 . S
C2936 C2939 1.386 . S
H2937 C2953 0.930 . S
H2938 C2954 0.931 . S
C2939 H2927 0.929 . S
C2939 C2933 1.390 . S
C2939 C2936 1.386 . S
C2940 C2935 1.490 . S
C2940 C2942 1.395 . S
C2940 C2943 1.403 . S
H2941 C2947 0.930 . S
C2942 H2928 0.930 . S
C2942 C2940 1.395 . S
C2942 C2945 1.403 . S
C2943 C2940 1.403 . S
C2943 C2944 1.524 . S
C2943 C2947 1.400 . S
C2944 H2929 0.960 . S
C2944 H2930 0.960 . S
C2944 H2931 0.960 . S
C2944 C2943 1.524 . S
C2945 C2942 1.403 . S
C2945 C2946 1.392 . S
C2945 C2949 1.495 . S
C2946 C2945 1.392 . S
C2946 C2947 1.385 . S
C2946 C2948 1.478 . S
C2947 H2941 0.930 . S
C2947 C2943 1.400 . S
C2947 C2946 1.385 . S
C2948 C2946 1.478 . S
C2948 C2950 1.381 . S
C2948 C2954 1.383 . S
C2949 C2945 1.495 . S
C2949 H2955 0.959 . S
C2949 H2956 0.961 . S
C2949 H2957 0.960 . S
C2950 C2948 1.381 . S
C2950 C2951 1.394 . S
C2950 H2958 0.930 . S
C2951 C2950 1.394 . S
C2951 C2952 1.383 . S
C2951 H2959 0.929 . S
C2952 C2951 1.383 . S
C2952 C2953 1.377 . S
C2953 H2937 0.930 . S
C2953 C2952 1.377 . S
C2953 C2954 1.379 . S
C2954 H2938 0.931 . S
C2954 C2948 1.383 . S
C2954 C2953 1.379 . S
H2955 C2949 0.959 . S
H2956 C2949 0.961 . S
H2957 C2949 0.960 . S
H2958 C2950 0.930 . S
H2959 C2951 0.929 . S
H2960 C2968 0.929 . S
H2961 C2970 0.930 . S
H2962 C2972 0.930 . S
H2963 C2975 0.929 . S
H2964 C2978 0.930 . S
H2965 C2980 0.960 . S
H2966 C2980 0.960 . S
H2967 C2980 0.960 . S
C2968 H2960 0.929 . S
C2968 C2969 1.377 . S
C2968 C2970 1.384 . S
C2969 C2968 1.377 . S
C2969 C2975 1.390 . S
C2970 H2961 0.930 . S
C2970 C2968 1.384 . S
C2970 C2971 1.372 . S
C2971 C2970 1.372 . S
C2971 C2972 1.400 . S
C2971 C2976 1.490 . S
C2972 H2962 0.930 . S
C2972 C2971 1.400 . S
C2972 C2975 1.386 . S
H2973 C2989 0.930 . S
H2974 C2990 0.931 . S
C2975 H2963 0.929 . S
C2975 C2969 1.390 . S
C2975 C2972 1.386 . S
C2976 C2971 1.490 . S
C2976 C2978 1.395 . S
C2976 C2979 1.403 . S
H2977 C2983 0.930 . S
C2978 H2964 0.930 . S
C2978 C2976 1.395 . S
C2978 C2981 1.403 . S
C2979 C2976 1.403 . S
C2979 C2980 1.524 . S
C2979 C2983 1.400 . S
C2980 H2965 0.960 . S
C2980 H2966 0.960 . S
C2980 H2967 0.960 . S
C2980 C2979 1.524 . S
C2981 C2978 1.403 . S
C2981 C2982 1.392 . S
C2981 C2985 1.495 . S
C2982 C2981 1.392 . S
C2982 C2983 1.385 . S
C2982 C2984 1.478 . S
C2983 H2977 0.930 . S
C2983 C2979 1.400 . S
C2983 C2982 1.385 . S
C2984 C2982 1.478 . S
C2984 C2986 1.381 . S
C2984 C2990 1.383 . S
C2985 C2981 1.495 . S
C2985 H2991 0.959 . S
C2985 H2992 0.961 . S
C2985 H2993 0.960 . S
C2986 C2984 1.381 . S
C2986 C2987 1.394 . S
C2986 H2994 0.930 . S
C2987 C2986 1.394 . S
C2987 C2988 1.383 . S
C2987 H2995 0.929 . S
C2988 C2987 1.383 . S
C2988 C2989 1.377 . S
C2989 H2973 0.930 . S
C2989 C2988 1.377 . S
C2989 C2990 1.379 . S
C2990 H2974 0.931 . S
C2990 C2984 1.383 . S
C2990 C2989 1.379 . S
H2991 C2985 0.959 . S
H2992 C2985 0.961 . S
H2993 C2985 0.960 . S
H2994 C2986 0.930 . S
H2995 C2987 0.929 . S
H2996 C3004 0.929 . S
H2997 C3006 0.930 . S
H2998 C3008 0.930 . S
H2999 C3011 0.929 . S
H3000 C3014 0.930 . S
H3001 C3016 0.960 . S
H3002 C3016 0.960 . S
H3003 C3016 0.960 . S
C3004 H2996 0.929 . S
C3004 C3005 1.377 . S
C3004 C3006 1.384 . S
C3005 C3004 1.377 . S
C3005 C3011 1.390 . S
C3006 H2997 0.930 . S
C3006 C3004 1.384 . S
C3006 C3007 1.372 . S
C3007 C3006 1.372 . S
C3007 C3008 1.400 . S
C3007 C3012 1.490 . S
C3008 H2998 0.930 . S
C3008 C3007 1.400 . S
C3008 C3011 1.386 . S
H3009 C3025 0.930 . S
H3010 C3026 0.931 . S
C3011 H2999 0.929 . S
C3011 C3005 1.390 . S
C3011 C3008 1.386 . S
C3012 C3007 1.490 . S
C3012 C3014 1.395 . S
C3012 C3015 1.403 . S
H3013 C3019 0.930 . S
C3014 H3000 0.930 . S
C3014 C3012 1.395 . S
C3014 C3017 1.403 . S
C3015 C3012 1.403 . S
C3015 C3016 1.524 . S
C3015 C3019 1.400 . S
C3016 H3001 0.960 . S
C3016 H3002 0.960 . S
C3016 H3003 0.960 . S
C3016 C3015 1.524 . S
C3017 C3014 1.403 . S
C3017 C3018 1.392 . S
C3017 C3021 1.495 . S
C3018 C3017 1.392 . S
C3018 C3019 1.385 . S
C3018 C3020 1.478 . S
C3019 H3013 0.930 . S
C3019 C3015 1.400 . S
C3019 C3018 1.385 . S
C3020 C3018 1.478 . S
C3020 C3022 1.381 . S
C3020 C3026 1.383 . S
C3021 C3017 1.495 . S
C3021 H3027 0.959 . S
C3021 H3028 0.961 . S
C3021 H3029 0.960 . S
C3022 C3020 1.381 . S
C3022 C3023 1.394 . S
C3022 H3030 0.930 . S
C3023 C3022 1.394 . S
C3023 C3024 1.383 . S
C3023 H3031 0.929 . S
C3024 C3023 1.383 . S
C3024 C3025 1.377 . S
C3025 H3009 0.930 . S
C3025 C3024 1.377 . S
C3025 C3026 1.379 . S
C3026 H3010 0.931 . S
C3026 C3020 1.383 . S
C3026 C3025 1.379 . S
H3027 C3021 0.959 . S
H3028 C3021 0.961 . S
H3029 C3021 0.960 . S
H3030 C3022 0.930 . S
H3031 C3023 0.929 . S
H3032 C3040 0.929 . S
H3033 C3042 0.930 . S
H3034 C3044 0.930 . S
H3035 C3047 0.929 . S
H3036 C3050 0.930 . S
H3037 C3052 0.960 . S
H3038 C3052 0.960 . S
H3039 C3052 0.960 . S
C3040 H3032 0.929 . S
C3040 C3041 1.377 . S
C3040 C3042 1.384 . S
C3041 C3040 1.377 . S
C3041 C3047 1.390 . S
C3042 H3033 0.930 . S
C3042 C3040 1.384 . S
C3042 C3043 1.372 . S
C3043 C3042 1.372 . S
C3043 C3044 1.400 . S
C3043 C3048 1.490 . S
C3044 H3034 0.930 . S
C3044 C3043 1.400 . S
C3044 C3047 1.386 . S
H3045 C3061 0.930 . S
H3046 C3062 0.931 . S
C3047 H3035 0.929 . S
C3047 C3041 1.390 . S
C3047 C3044 1.386 . S
C3048 C3043 1.490 . S
C3048 C3050 1.395 . S
C3048 C3051 1.403 . S
H3049 C3055 0.930 . S
C3050 H3036 0.930 . S
C3050 C3048 1.395 . S
C3050 C3053 1.403 . S
C3051 C3048 1.403 . S
C3051 C3052 1.524 . S
C3051 C3055 1.400 . S
C3052 H3037 0.960 . S
C3052 H3038 0.960 . S
C3052 H3039 0.960 . S
C3052 C3051 1.524 . S
C3053 C3050 1.403 . S
C3053 C3054 1.392 . S
C3053 C3057 1.495 . S
C3054 C3053 1.392 . S
C3054 C3055 1.385 . S
C3054 C3056 1.478 . S
C3055 H3049 0.930 . S
C3055 C3051 1.400 . S
C3055 C3054 1.385 . S
C3056 C3054 1.478 . S
C3056 C3058 1.381 . S
C3056 C3062 1.383 . S
C3057 C3053 1.495 . S
C3057 H3063 0.959 . S
C3057 H3064 0.961 . S
C3057 H3065 0.960 . S
C3058 C3056 1.381 . S
C3058 C3059 1.394 . S
C3058 H3066 0.930 . S
C3059 C3058 1.394 . S
C3059 C3060 1.383 . S
C3059 H3067 0.929 . S
C3060 C3059 1.383 . S
C3060 C3061 1.377 . S
C3061 H3045 0.930 . S
C3061 C3060 1.377 . S
C3061 C3062 1.379 . S
C3062 H3046 0.931 . S
C3062 C3056 1.383 . S
C3062 C3061 1.379 . S
H3063 C3057 0.959 . S
H3064 C3057 0.961 . S
H3065 C3057 0.960 . S
H3066 C3058 0.930 . S
H3067 C3059 0.929 . S
H3068 C3076 0.929 . S
H3069 C3078 0.930 . S
H3070 C3080 0.930 . S
H3071 C3083 0.929 . S
H3072 C3086 0.930 . S
H3073 C3088 0.960 . S
H3074 C3088 0.960 . S
H3075 C3088 0.960 . S
C3076 H3068 0.929 . S
C3076 C3077 1.377 . S
C3076 C3078 1.384 . S
C3077 C3076 1.377 . S
C3077 C3083 1.390 . S
C3078 H3069 0.930 . S
C3078 C3076 1.384 . S
C3078 C3079 1.372 . S
C3079 C3078 1.372 . S
C3079 C3080 1.400 . S
C3079 C3084 1.490 . S
C3080 H3070 0.930 . S
C3080 C3079 1.400 . S
C3080 C3083 1.386 . S
H3081 C3097 0.930 . S
H3082 C3098 0.931 . S
C3083 H3071 0.929 . S
C3083 C3077 1.390 . S
C3083 C3080 1.386 . S
C3084 C3079 1.490 . S
C3084 C3086 1.395 . S
C3084 C3087 1.403 . S
H3085 C3091 0.930 . S
C3086 H3072 0.930 . S
C3086 C3084 1.395 . S
C3086 C3089 1.403 . S
C3087 C3084 1.403 . S
C3087 C3088 1.524 . S
C3087 C3091 1.400 . S
C3088 H3073 0.960 . S
C3088 H3074 0.960 . S
C3088 H3075 0.960 . S
C3088 C3087 1.524 . S
C3089 C3086 1.403 . S
C3089 C3090 1.392 . S
C3089 C3093 1.495 . S
C3090 C3089 1.392 . S
C3090 C3091 1.385 . S
C3090 C3092 1.478 . S
C3091 H3085 0.930 . S
C3091 C3087 1.400 . S
C3091 C3090 1.385 . S
C3092 C3090 1.478 . S
C3092 C3094 1.381 . S
C3092 C3098 1.383 . S
C3093 C3089 1.495 . S
C3093 H3099 0.959 . S
C3093 H3100 0.961 . S
C3093 H3101 0.960 . S
C3094 C3092 1.381 . S
C3094 C3095 1.394 . S
C3094 H3102 0.930 . S
C3095 C3094 1.394 . S
C3095 C3096 1.383 . S
C3095 H3103 0.929 . S
C3096 C3095 1.383 . S
C3096 C3097 1.377 . S
C3097 H3081 0.930 . S
C3097 C3096 1.377 . S
C3097 C3098 1.379 . S
C3098 H3082 0.931 . S
C3098 C3092 1.383 . S
C3098 C3097 1.379 . S
H3099 C3093 0.959 . S
H3100 C3093 0.961 . S
H3101 C3093 0.960 . S
H3102 C3094 0.930 . S
H3103 C3095 0.929 . S
H3104 C3112 0.929 . S
H3105 C3114 0.930 . S
H3106 C3116 0.930 . S
H3107 C3119 0.929 . S
H3108 C3122 0.930 . S
H3109 C3124 0.960 . S
H3110 C3124 0.960 . S
H3111 C3124 0.960 . S
C3112 H3104 0.929 . S
C3112 C3113 1.377 . S
C3112 C3114 1.384 . S
C3113 C3112 1.377 . S
C3113 C3119 1.390 . S
C3114 H3105 0.930 . S
C3114 C3112 1.384 . S
C3114 C3115 1.372 . S
C3115 C3114 1.372 . S
C3115 C3116 1.400 . S
C3115 C3120 1.490 . S
C3116 H3106 0.930 . S
C3116 C3115 1.400 . S
C3116 C3119 1.386 . S
H3117 C3133 0.930 . S
H3118 C3134 0.931 . S
C3119 H3107 0.929 . S
C3119 C3113 1.390 . S
C3119 C3116 1.386 . S
C3120 C3115 1.490 . S
C3120 C3122 1.395 . S
C3120 C3123 1.403 . S
H3121 C3127 0.930 . S
C3122 H3108 0.930 . S
C3122 C3120 1.395 . S
C3122 C3125 1.403 . S
C3123 C3120 1.403 . S
C3123 C3124 1.524 . S
C3123 C3127 1.400 . S
C3124 H3109 0.960 . S
C3124 H3110 0.960 . S
C3124 H3111 0.960 . S
C3124 C3123 1.524 . S
C3125 C3122 1.403 . S
C3125 C3126 1.392 . S
C3125 C3129 1.495 . S
C3126 C3125 1.392 . S
C3126 C3127 1.385 . S
C3126 C3128 1.478 . S
C3127 H3121 0.930 . S
C3127 C3123 1.400 . S
C3127 C3126 1.385 . S
C3128 C3126 1.478 . S
C3128 C3130 1.381 . S
C3128 C3134 1.383 . S
C3129 C3125 1.495 . S
C3129 H3135 0.959 . S
C3129 H3136 0.961 . S
C3129 H3137 0.960 . S
C3130 C3128 1.381 . S
C3130 C3131 1.394 . S
C3130 H3138 0.930 . S
C3131 C3130 1.394 . S
C3131 C3132 1.383 . S
C3131 H3139 0.929 . S
C3132 C3131 1.383 . S
C3132 C3133 1.377 . S
C3133 H3117 0.930 . S
C3133 C3132 1.377 . S
C3133 C3134 1.379 . S
C3134 H3118 0.931 . S
C3134 C3128 1.383 . S
C3134 C3133 1.379 . S
H3135 C3129 0.959 . S
H3136 C3129 0.961 . S
H3137 C3129 0.960 . S
H3138 C3130 0.930 . S
H3139 C3131 0.929 . S
H3140 C3148 0.929 . S
H3141 C3150 0.930 . S
H3142 C3152 0.930 . S
H3143 C3155 0.929 . S
H3144 C3158 0.930 . S
H3145 C3160 0.960 . S
H3146 C3160 0.960 . S
H3147 C3160 0.960 . S
C3148 H3140 0.929 . S
C3148 C3149 1.377 . S
C3148 C3150 1.384 . S
C3149 C3148 1.377 . S
C3149 C3155 1.390 . S
C3150 H3141 0.930 . S
C3150 C3148 1.384 . S
C3150 C3151 1.372 . S
C3151 C3150 1.372 . S
C3151 C3152 1.400 . S
C3151 C3156 1.490 . S
C3152 H3142 0.930 . S
C3152 C3151 1.400 . S
C3152 C3155 1.386 . S
H3153 C3169 0.930 . S
H3154 C3170 0.931 . S
C3155 H3143 0.929 . S
C3155 C3149 1.390 . S
C3155 C3152 1.386 . S
C3156 C3151 1.490 . S
C3156 C3158 1.395 . S
C3156 C3159 1.403 . S
H3157 C3163 0.930 . S
C3158 H3144 0.930 . S
C3158 C3156 1.395 . S
C3158 C3161 1.403 . S
C3159 C3156 1.403 . S
C3159 C3160 1.524 . S
C3159 C3163 1.400 . S
C3160 H3145 0.960 . S
C3160 H3146 0.960 . S
C3160 H3147 0.960 . S
C3160 C3159 1.524 . S
C3161 C3158 1.403 . S
C3161 C3162 1.392 . S
C3161 C3165 1.495 . S
C3162 C3161 1.392 . S
C3162 C3163 1.385 . S
C3162 C3164 1.478 . S
C3163 H3157 0.930 . S
C3163 C3159 1.400 . S
C3163 C3162 1.385 . S
C3164 C3162 1.478 . S
C3164 C3166 1.381 . S
C3164 C3170 1.383 . S
C3165 C3161 1.495 . S
C3165 H3171 0.959 . S
C3165 H3172 0.961 . S
C3165 H3173 0.960 . S
C3166 C3164 1.381 . S
C3166 C3167 1.394 . S
C3166 H3174 0.930 . S
C3167 C3166 1.394 . S
C3167 C3168 1.383 . S
C3167 H3175 0.929 . S
C3168 C3167 1.383 . S
C3168 C3169 1.377 . S
C3169 H3153 0.930 . S
C3169 C3168 1.377 . S
C3169 C3170 1.379 . S
C3170 H3154 0.931 . S
C3170 C3164 1.383 . S
C3170 C3169 1.379 . S
H3171 C3165 0.959 . S
H3172 C3165 0.961 . S
H3173 C3165 0.960 . S
H3174 C3166 0.930 . S
H3175 C3167 0.929 . S
H3176 C3184 0.929 . S
H3177 C3186 0.930 . S
H3178 C3188 0.930 . S
H3179 C3191 0.929 . S
H3180 C3194 0.930 . S
H3181 C3196 0.960 . S
H3182 C3196 0.960 . S
H3183 C3196 0.960 . S
C3184 H3176 0.929 . S
C3184 C3185 1.377 . S
C3184 C3186 1.384 . S
C3185 C3184 1.377 . S
C3185 C3191 1.390 . S
C3186 H3177 0.930 . S
C3186 C3184 1.384 . S
C3186 C3187 1.372 . S
C3187 C3186 1.372 . S
C3187 C3188 1.400 . S
C3187 C3192 1.490 . S
C3188 H3178 0.930 . S
C3188 C3187 1.400 . S
C3188 C3191 1.386 . S
H3189 C3205 0.930 . S
H3190 C3206 0.931 . S
C3191 H3179 0.929 . S
C3191 C3185 1.390 . S
C3191 C3188 1.386 . S
C3192 C3187 1.490 . S
C3192 C3194 1.395 . S
C3192 C3195 1.403 . S
H3193 C3199 0.930 . S
C3194 H3180 0.930 . S
C3194 C3192 1.395 . S
C3194 C3197 1.403 . S
C3195 C3192 1.403 . S
C3195 C3196 1.524 . S
C3195 C3199 1.400 . S
C3196 H3181 0.960 . S
C3196 H3182 0.960 . S
C3196 H3183 0.960 . S
C3196 C3195 1.524 . S
C3197 C3194 1.403 . S
C3197 C3198 1.392 . S
C3197 C3201 1.495 . S
C3198 C3197 1.392 . S
C3198 C3199 1.385 . S
C3198 C3200 1.478 . S
C3199 H3193 0.930 . S
C3199 C3195 1.400 . S
C3199 C3198 1.385 . S
C3200 C3198 1.478 . S
C3200 C3202 1.381 . S
C3200 C3206 1.383 . S
C3201 C3197 1.495 . S
C3201 H3207 0.959 . S
C3201 H3208 0.961 . S
C3201 H3209 0.960 . S
C3202 C3200 1.381 . S
C3202 C3203 1.394 . S
C3202 H3210 0.930 . S
C3203 C3202 1.394 . S
C3203 C3204 1.383 . S
C3203 H3211 0.929 . S
C3204 C3203 1.383 . S
C3204 C3205 1.377 . S
C3205 H3189 0.930 . S
C3205 C3204 1.377 . S
C3205 C3206 1.379 . S
C3206 H3190 0.931 . S
C3206 C3200 1.383 . S
C3206 C3205 1.379 . S
H3207 C3201 0.959 . S
H3208 C3201 0.961 . S
H3209 C3201 0.960 . S
H3210 C3202 0.930 . S
H3211 C3203 0.929 . S
H3212 C3220 0.929 . S
H3213 C3222 0.930 . S
H3214 C3224 0.930 . S
H3215 C3227 0.929 . S
H3216 C3230 0.930 . S
H3217 C3232 0.960 . S
H3218 C3232 0.960 . S
H3219 C3232 0.960 . S
C3220 H3212 0.929 . S
C3220 C3221 1.377 . S
C3220 C3222 1.384 . S
C3221 C3220 1.377 . S
C3221 C3227 1.390 . S
C3222 H3213 0.930 . S
C3222 C3220 1.384 . S
C3222 C3223 1.372 . S
C3223 C3222 1.372 . S
C3223 C3224 1.400 . S
C3223 C3228 1.490 . S
C3224 H3214 0.930 . S
C3224 C3223 1.400 . S
C3224 C3227 1.386 . S
H3225 C3241 0.930 . S
H3226 C3242 0.931 . S
C3227 H3215 0.929 . S
C3227 C3221 1.390 . S
C3227 C3224 1.386 . S
C3228 C3223 1.490 . S
C3228 C3230 1.395 . S
C3228 C3231 1.403 . S
H3229 C3235 0.930 . S
C3230 H3216 0.930 . S
C3230 C3228 1.395 . S
C3230 C3233 1.403 . S
C3231 C3228 1.403 . S
C3231 C3232 1.524 . S
C3231 C3235 1.400 . S
C3232 H3217 0.960 . S
C3232 H3218 0.960 . S
C3232 H3219 0.960 . S
C3232 C3231 1.524 . S
C3233 C3230 1.403 . S
C3233 C3234 1.392 . S
C3233 C3237 1.495 . S
C3234 C3233 1.392 . S
C3234 C3235 1.385 . S
C3234 C3236 1.478 . S
C3235 H3229 0.930 . S
C3235 C3231 1.400 . S
C3235 C3234 1.385 . S
C3236 C3234 1.478 . S
C3236 C3238 1.381 . S
C3236 C3242 1.383 . S
C3237 C3233 1.495 . S
C3237 H3243 0.959 . S
C3237 H3244 0.961 . S
C3237 H3245 0.960 . S
C3238 C3236 1.381 . S
C3238 C3239 1.394 . S
C3238 H3246 0.930 . S
C3239 C3238 1.394 . S
C3239 C3240 1.383 . S
C3239 H3247 0.929 . S
C3240 C3239 1.383 . S
C3240 C3241 1.377 . S
C3241 H3225 0.930 . S
C3241 C3240 1.377 . S
C3241 C3242 1.379 . S
C3242 H3226 0.931 . S
C3242 C3236 1.383 . S
C3242 C3241 1.379 . S
H3243 C3237 0.959 . S
H3244 C3237 0.961 . S
H3245 C3237 0.960 . S
H3246 C3238 0.930 . S
H3247 C3239 0.929 . S
H3248 C3256 0.929 . S
H3249 C3258 0.930 . S
H3250 C3260 0.930 . S
H3251 C3263 0.929 . S
H3252 C3266 0.930 . S
H3253 C3268 0.960 . S
H3254 C3268 0.960 . S
H3255 C3268 0.960 . S
C3256 H3248 0.929 . S
C3256 C3257 1.377 . S
C3256 C3258 1.384 . S
C3257 C3256 1.377 . S
C3257 C3263 1.390 . S
C3258 H3249 0.930 . S
C3258 C3256 1.384 . S
C3258 C3259 1.372 . S
C3259 C3258 1.372 . S
C3259 C3260 1.400 . S
C3259 C3264 1.490 . S
C3260 H3250 0.930 . S
C3260 C3259 1.400 . S
C3260 C3263 1.386 . S
H3261 C3277 0.930 . S
H3262 C3278 0.931 . S
C3263 H3251 0.929 . S
C3263 C3257 1.390 . S
C3263 C3260 1.386 . S
C3264 C3259 1.490 . S
C3264 C3266 1.395 . S
C3264 C3267 1.403 . S
H3265 C3271 0.930 . S
C3266 H3252 0.930 . S
C3266 C3264 1.395 . S
C3266 C3269 1.403 . S
C3267 C3264 1.403 . S
C3267 C3268 1.524 . S
C3267 C3271 1.400 . S
C3268 H3253 0.960 . S
C3268 H3254 0.960 . S
C3268 H3255 0.960 . S
C3268 C3267 1.524 . S
C3269 C3266 1.403 . S
C3269 C3270 1.392 . S
C3269 C3273 1.495 . S
C3270 C3269 1.392 . S
C3270 C3271 1.385 . S
C3270 C3272 1.478 . S
C3271 H3265 0.930 . S
C3271 C3267 1.400 . S
C3271 C3270 1.385 . S
C3272 C3270 1.478 . S
C3272 C3274 1.381 . S
C3272 C3278 1.383 . S
C3273 C3269 1.495 . S
C3273 H3279 0.959 . S
C3273 H3280 0.961 . S
C3273 H3281 0.960 . S
C3274 C3272 1.381 . S
C3274 C3275 1.394 . S
C3274 H3282 0.930 . S
C3275 C3274 1.394 . S
C3275 C3276 1.383 . S
C3275 H3283 0.929 . S
C3276 C3275 1.383 . S
C3276 C3277 1.377 . S
C3277 H3261 0.930 . S
C3277 C3276 1.377 . S
C3277 C3278 1.379 . S
C3278 H3262 0.931 . S
C3278 C3272 1.383 . S
C3278 C3277 1.379 . S
H3279 C3273 0.959 . S
H3280 C3273 0.961 . S
H3281 C3273 0.960 . S
H3282 C3274 0.930 . S
H3283 C3275 0.929 . S
H3284 C3292 0.929 . S
H3285 C3294 0.930 . S
H3286 C3296 0.930 . S
H3287 C3299 0.929 . S
H3288 C3302 0.930 . S
H3289 C3304 0.960 . S
H3290 C3304 0.960 . S
H3291 C3304 0.960 . S
C3292 H3284 0.929 . S
C3292 C3293 1.377 . S
C3292 C3294 1.384 . S
C3293 C3292 1.377 . S
C3293 C3299 1.390 . S
C3294 H3285 0.930 . S
C3294 C3292 1.384 . S
C3294 C3295 1.372 . S
C3295 C3294 1.372 . S
C3295 C3296 1.400 . S
C3295 C3300 1.490 . S
C3296 H3286 0.930 . S
C3296 C3295 1.400 . S
C3296 C3299 1.386 . S
H3297 C3313 0.930 . S
H3298 C3314 0.931 . S
C3299 H3287 0.929 . S
C3299 C3293 1.390 . S
C3299 C3296 1.386 . S
C3300 C3295 1.490 . S
C3300 C3302 1.395 . S
C3300 C3303 1.403 . S
H3301 C3307 0.930 . S
C3302 H3288 0.930 . S
C3302 C3300 1.395 . S
C3302 C3305 1.403 . S
C3303 C3300 1.403 . S
C3303 C3304 1.524 . S
C3303 C3307 1.400 . S
C3304 H3289 0.960 . S
C3304 H3290 0.960 . S
C3304 H3291 0.960 . S
C3304 C3303 1.524 . S
C3305 C3302 1.403 . S
C3305 C3306 1.392 . S
C3305 C3309 1.495 . S
C3306 C3305 1.392 . S
C3306 C3307 1.385 . S
C3306 C3308 1.478 . S
C3307 H3301 0.930 . S
C3307 C3303 1.400 . S
C3307 C3306 1.385 . S
C3308 C3306 1.478 . S
C3308 C3310 1.381 . S
C3308 C3314 1.383 . S
C3309 C3305 1.495 . S
C3309 H3315 0.959 . S
C3309 H3316 0.961 . S
C3309 H3317 0.960 . S
C3310 C3308 1.381 . S
C3310 C3311 1.394 . S
C3310 H3318 0.930 . S
C3311 C3310 1.394 . S
C3311 C3312 1.383 . S
C3311 H3319 0.929 . S
C3312 C3311 1.383 . S
C3312 C3313 1.377 . S
C3313 H3297 0.930 . S
C3313 C3312 1.377 . S
C3313 C3314 1.379 . S
C3314 H3298 0.931 . S
C3314 C3308 1.383 . S
C3314 C3313 1.379 . S
H3315 C3309 0.959 . S
H3316 C3309 0.961 . S
H3317 C3309 0.960 . S
H3318 C3310 0.930 . S
H3319 C3311 0.929 . S
H3320 C3328 0.929 . S
H3321 C3330 0.930 . S
H3322 C3332 0.930 . S
H3323 C3335 0.929 . S
H3324 C3338 0.930 . S
H3325 C3340 0.960 . S
H3326 C3340 0.960 . S
H3327 C3340 0.960 . S
C3328 H3320 0.929 . S
C3328 C3329 1.377 . S
C3328 C3330 1.384 . S
C3329 C3328 1.377 . S
C3329 C3335 1.390 . S
C3330 H3321 0.930 . S
C3330 C3328 1.384 . S
C3330 C3331 1.372 . S
C3331 C3330 1.372 . S
C3331 C3332 1.400 . S
C3331 C3336 1.490 . S
C3332 H3322 0.930 . S
C3332 C3331 1.400 . S
C3332 C3335 1.386 . S
H3333 C3349 0.930 . S
H3334 C3350 0.931 . S
C3335 H3323 0.929 . S
C3335 C3329 1.390 . S
C3335 C3332 1.386 . S
C3336 C3331 1.490 . S
C3336 C3338 1.395 . S
C3336 C3339 1.403 . S
H3337 C3343 0.930 . S
C3338 H3324 0.930 . S
C3338 C3336 1.395 . S
C3338 C3341 1.403 . S
C3339 C3336 1.403 . S
C3339 C3340 1.524 . S
C3339 C3343 1.400 . S
C3340 H3325 0.960 . S
C3340 H3326 0.960 . S
C3340 H3327 0.960 . S
C3340 C3339 1.524 . S
C3341 C3338 1.403 . S
C3341 C3342 1.392 . S
C3341 C3345 1.495 . S
C3342 C3341 1.392 . S
C3342 C3343 1.385 . S
C3342 C3344 1.478 . S
C3343 H3337 0.930 . S
C3343 C3339 1.400 . S
C3343 C3342 1.385 . S
C3344 C3342 1.478 . S
C3344 C3346 1.381 . S
C3344 C3350 1.383 . S
C3345 C3341 1.495 . S
C3345 H3351 0.959 . S
C3345 H3352 0.961 . S
C3345 H3353 0.960 . S
C3346 C3344 1.381 . S
C3346 C3347 1.394 . S
C3346 H3354 0.930 . S
C3347 C3346 1.394 . S
C3347 C3348 1.383 . S
C3347 H3355 0.929 . S
C3348 C3347 1.383 . S
C3348 C3349 1.377 . S
C3349 H3333 0.930 . S
C3349 C3348 1.377 . S
C3349 C3350 1.379 . S
C3350 H3334 0.931 . S
C3350 C3344 1.383 . S
C3350 C3349 1.379 . S
H3351 C3345 0.959 . S
H3352 C3345 0.961 . S
H3353 C3345 0.960 . S
H3354 C3346 0.930 . S
H3355 C3347 0.929 . S
H3356 C3364 0.929 . S
H3357 C3366 0.930 . S
H3358 C3368 0.930 . S
H3359 C3371 0.929 . S
H3360 C3374 0.930 . S
H3361 C3376 0.960 . S
H3362 C3376 0.960 . S
H3363 C3376 0.960 . S
C3364 H3356 0.929 . S
C3364 C3365 1.377 . S
C3364 C3366 1.384 . S
C3365 C3364 1.377 . S
C3365 C3371 1.390 . S
C3366 H3357 0.930 . S
C3366 C3364 1.384 . S
C3366 C3367 1.372 . S
C3367 C3366 1.372 . S
C3367 C3368 1.400 . S
C3367 C3372 1.490 . S
C3368 H3358 0.930 . S
C3368 C3367 1.400 . S
C3368 C3371 1.386 . S
H3369 C3385 0.930 . S
H3370 C3386 0.931 . S
C3371 H3359 0.929 . S
C3371 C3365 1.390 . S
C3371 C3368 1.386 . S
C3372 C3367 1.490 . S
C3372 C3374 1.395 . S
C3372 C3375 1.403 . S
H3373 C3379 0.930 . S
C3374 H3360 0.930 . S
C3374 C3372 1.395 . S
C3374 C3377 1.403 . S
C3375 C3372 1.403 . S
C3375 C3376 1.524 . S
C3375 C3379 1.400 . S
C3376 H3361 0.960 . S
C3376 H3362 0.960 . S
C3376 H3363 0.960 . S
C3376 C3375 1.524 . S
C3377 C3374 1.403 . S
C3377 C3378 1.392 . S
C3377 C3381 1.495 . S
C3378 C3377 1.392 . S
C3378 C3379 1.385 . S
C3378 C3380 1.478 . S
C3379 H3373 0.930 . S
C3379 C3375 1.400 . S
C3379 C3378 1.385 . S
C3380 C3378 1.478 . S
C3380 C3382 1.381 . S
C3380 C3386 1.383 . S
C3381 C3377 1.495 . S
C3381 H3387 0.959 . S
C3381 H3388 0.961 . S
C3381 H3389 0.960 . S
C3382 C3380 1.381 . S
C3382 C3383 1.394 . S
C3382 H3390 0.930 . S
C3383 C3382 1.394 . S
C3383 C3384 1.383 . S
C3383 H3391 0.929 . S
C3384 C3383 1.383 . S
C3384 C3385 1.377 . S
C3385 H3369 0.930 . S
C3385 C3384 1.377 . S
C3385 C3386 1.379 . S
C3386 H3370 0.931 . S
C3386 C3380 1.383 . S
C3386 C3385 1.379 . S
H3387 C3381 0.959 . S
H3388 C3381 0.961 . S
H3389 C3381 0.960 . S
H3390 C3382 0.930 . S
H3391 C3383 0.929 . S
H3392 C3400 0.929 . S
H3393 C3402 0.930 . S
H3394 C3404 0.930 . S
H3395 C3407 0.929 . S
H3396 C3410 0.930 . S
H3397 C3412 0.960 . S
H3398 C3412 0.960 . S
H3399 C3412 0.960 . S
C3400 H3392 0.929 . S
C3400 C3401 1.377 . S
C3400 C3402 1.384 . S
C3401 C3400 1.377 . S
C3401 C3407 1.390 . S
C3402 H3393 0.930 . S
C3402 C3400 1.384 . S
C3402 C3403 1.372 . S
C3403 C3402 1.372 . S
C3403 C3404 1.400 . S
C3403 C3408 1.490 . S
C3404 H3394 0.930 . S
C3404 C3403 1.400 . S
C3404 C3407 1.386 . S
H3405 C3421 0.930 . S
H3406 C3422 0.931 . S
C3407 H3395 0.929 . S
C3407 C3401 1.390 . S
C3407 C3404 1.386 . S
C3408 C3403 1.490 . S
C3408 C3410 1.395 . S
C3408 C3411 1.403 . S
H3409 C3415 0.930 . S
C3410 H3396 0.930 . S
C3410 C3408 1.395 . S
C3410 C3413 1.403 . S
C3411 C3408 1.403 . S
C3411 C3412 1.524 . S
C3411 C3415 1.400 . S
C3412 H3397 0.960 . S
C3412 H3398 0.960 . S
C3412 H3399 0.960 . S
C3412 C3411 1.524 . S
C3413 C3410 1.403 . S
C3413 C3414 1.392 . S
C3413 C3417 1.495 . S
C3414 C3413 1.392 . S
C3414 C3415 1.385 . S
C3414 C3416 1.478 . S
C3415 H3409 0.930 . S
C3415 C3411 1.400 . S
C3415 C3414 1.385 . S
C3416 C3414 1.478 . S
C3416 C3418 1.381 . S
C3416 C3422 1.383 . S
C3417 C3413 1.495 . S
C3417 H3423 0.959 . S
C3417 H3424 0.961 . S
C3417 H3425 0.960 . S
C3418 C3416 1.381 . S
C3418 C3419 1.394 . S
C3418 H3426 0.930 . S
C3419 C3418 1.394 . S
C3419 C3420 1.383 . S
C3419 H3427 0.929 . S
C3420 C3419 1.383 . S
C3420 C3421 1.377 . S
C3421 H3405 0.930 . S
C3421 C3420 1.377 . S
C3421 C3422 1.379 . S
C3422 H3406 0.931 . S
C3422 C3416 1.383 . S
C3422 C3421 1.379 . S
H3423 C3417 0.959 . S
H3424 C3417 0.961 . S
H3425 C3417 0.960 . S
H3426 C3418 0.930 . S
H3427 C3419 0.929 . S
H3428 C3436 0.929 . S
H3429 C3438 0.930 . S
H3430 C3440 0.930 . S
H3431 C3443 0.929 . S
H3432 C3446 0.930 . S
H3433 C3448 0.960 . S
H3434 C3448 0.960 . S
H3435 C3448 0.960 . S
C3436 H3428 0.929 . S
C3436 C3437 1.377 . S
C3436 C3438 1.384 . S
C3437 C3436 1.377 . S
C3437 C3443 1.390 . S
C3438 H3429 0.930 . S
C3438 C3436 1.384 . S
C3438 C3439 1.372 . S
C3439 C3438 1.372 . S
C3439 C3440 1.400 . S
C3439 C3444 1.490 . S
C3440 H3430 0.930 . S
C3440 C3439 1.400 . S
C3440 C3443 1.386 . S
H3441 C3457 0.930 . S
H3442 C3458 0.931 . S
C3443 H3431 0.929 . S
C3443 C3437 1.390 . S
C3443 C3440 1.386 . S
C3444 C3439 1.490 . S
C3444 C3446 1.395 . S
C3444 C3447 1.403 . S
H3445 C3451 0.930 . S
C3446 H3432 0.930 . S
C3446 C3444 1.395 . S
C3446 C3449 1.403 . S
C3447 C3444 1.403 . S
C3447 C3448 1.524 . S
C3447 C3451 1.400 . S
C3448 H3433 0.960 . S
C3448 H3434 0.960 . S
C3448 H3435 0.960 . S
C3448 C3447 1.524 . S
C3449 C3446 1.403 . S
C3449 C3450 1.392 . S
C3449 C3453 1.495 . S
C3450 C3449 1.392 . S
C3450 C3451 1.385 . S
C3450 C3452 1.478 . S
C3451 H3445 0.930 . S
C3451 C3447 1.400 . S
C3451 C3450 1.385 . S
C3452 C3450 1.478 . S
C3452 C3454 1.381 . S
C3452 C3458 1.383 . S
C3453 C3449 1.495 . S
C3453 H3459 0.959 . S
C3453 H3460 0.961 . S
C3453 H3461 0.960 . S
C3454 C3452 1.381 . S
C3454 C3455 1.394 . S
C3454 H3462 0.930 . S
C3455 C3454 1.394 . S
C3455 C3456 1.383 . S
C3455 H3463 0.929 . S
C3456 C3455 1.383 . S
C3456 C3457 1.377 . S
C3457 H3441 0.930 . S
C3457 C3456 1.377 . S
C3457 C3458 1.379 . S
C3458 H3442 0.931 . S
C3458 C3452 1.383 . S
C3458 C3457 1.379 . S
H3459 C3453 0.959 . S
H3460 C3453 0.961 . S
H3461 C3453 0.960 . S
H3462 C3454 0.930 . S
H3463 C3455 0.929 . S
H3464 C3472 0.929 . S
H3465 C3474 0.930 . S
H3466 C3476 0.930 . S
H3467 C3479 0.929 . S
H3468 C3482 0.930 . S
H3469 C3484 0.960 . S
H3470 C3484 0.960 . S
H3471 C3484 0.960 . S
C3472 H3464 0.929 . S
C3472 C3473 1.377 . S
C3472 C3474 1.384 . S
C3473 C3472 1.377 . S
C3473 C3479 1.390 . S
C3474 H3465 0.930 . S
C3474 C3472 1.384 . S
C3474 C3475 1.372 . S
C3475 C3474 1.372 . S
C3475 C3476 1.400 . S
C3475 C3480 1.490 . S
C3476 H3466 0.930 . S
C3476 C3475 1.400 . S
C3476 C3479 1.386 . S
H3477 C3493 0.930 . S
H3478 C3494 0.931 . S
C3479 H3467 0.929 . S
C3479 C3473 1.390 . S
C3479 C3476 1.386 . S
C3480 C3475 1.490 . S
C3480 C3482 1.395 . S
C3480 C3483 1.403 . S
H3481 C3487 0.930 . S
C3482 H3468 0.930 . S
C3482 C3480 1.395 . S
C3482 C3485 1.403 . S
C3483 C3480 1.403 . S
C3483 C3484 1.524 . S
C3483 C3487 1.400 . S
C3484 H3469 0.960 . S
C3484 H3470 0.960 . S
C3484 H3471 0.960 . S
C3484 C3483 1.524 . S
C3485 C3482 1.403 . S
C3485 C3486 1.392 . S
C3485 C3489 1.495 . S
C3486 C3485 1.392 . S
C3486 C3487 1.385 . S
C3486 C3488 1.478 . S
C3487 H3481 0.930 . S
C3487 C3483 1.400 . S
C3487 C3486 1.385 . S
C3488 C3486 1.478 . S
C3488 C3490 1.381 . S
C3488 C3494 1.383 . S
C3489 C3485 1.495 . S
C3489 H3495 0.959 . S
C3489 H3496 0.961 . S
C3489 H3497 0.960 . S
C3490 C3488 1.381 . S
C3490 C3491 1.394 . S
C3490 H3498 0.930 . S
C3491 C3490 1.394 . S
C3491 C3492 1.383 . S
C3491 H3499 0.929 . S
C3492 C3491 1.383 . S
C3492 C3493 1.377 . S
C3493 H3477 0.930 . S
C3493 C3492 1.377 . S
C3493 C3494 1.379 . S
C3494 H3478 0.931 . S
C3494 C3488 1.383 . S
C3494 C3493 1.379 . S
H3495 C3489 0.959 . S
H3496 C3489 0.961 . S
H3497 C3489 0.960 . S
H3498 C3490 0.930 . S
H3499 C3491 0.929 . S
H3500 C3508 0.929 . S
H3501 C3510 0.930 . S
H3502 C3512 0.930 . S
H3503 C3515 0.929 . S
H3504 C3518 0.930 . S
H3505 C3520 0.960 . S
H3506 C3520 0.960 . S
H3507 C3520 0.960 . S
C3508 H3500 0.929 . S
C3508 C3509 1.377 . S
C3508 C3510 1.384 . S
C3509 C3508 1.377 . S
C3509 C3515 1.390 . S
C3510 H3501 0.930 . S
C3510 C3508 1.384 . S
C3510 C3511 1.372 . S
C3511 C3510 1.372 . S
C3511 C3512 1.400 . S
C3511 C3516 1.490 . S
C3512 H3502 0.930 . S
C3512 C3511 1.400 . S
C3512 C3515 1.386 . S
H3513 C3529 0.930 . S
H3514 C3530 0.931 . S
C3515 H3503 0.929 . S
C3515 C3509 1.390 . S
C3515 C3512 1.386 . S
C3516 C3511 1.490 . S
C3516 C3518 1.395 . S
C3516 C3519 1.403 . S
H3517 C3523 0.930 . S
C3518 H3504 0.930 . S
C3518 C3516 1.395 . S
C3518 C3521 1.403 . S
C3519 C3516 1.403 . S
C3519 C3520 1.524 . S
C3519 C3523 1.400 . S
C3520 H3505 0.960 . S
C3520 H3506 0.960 . S
C3520 H3507 0.960 . S
C3520 C3519 1.524 . S
C3521 C3518 1.403 . S
C3521 C3522 1.392 . S
C3521 C3525 1.495 . S
C3522 C3521 1.392 . S
C3522 C3523 1.385 . S
C3522 C3524 1.478 . S
C3523 H3517 0.930 . S
C3523 C3519 1.400 . S
C3523 C3522 1.385 . S
C3524 C3522 1.478 . S
C3524 C3526 1.381 . S
C3524 C3530 1.383 . S
C3525 C3521 1.495 . S
C3525 H3531 0.959 . S
C3525 H3532 0.961 . S
C3525 H3533 0.960 . S
C3526 C3524 1.381 . S
C3526 C3527 1.394 . S
C3526 H3534 0.930 . S
C3527 C3526 1.394 . S
C3527 C3528 1.383 . S
C3527 H3535 0.929 . S
C3528 C3527 1.383 . S
C3528 C3529 1.377 . S
C3529 H3513 0.930 . S
C3529 C3528 1.377 . S
C3529 C3530 1.379 . S
C3530 H3514 0.931 . S
C3530 C3524 1.383 . S
C3530 C3529 1.379 . S
H3531 C3525 0.959 . S
H3532 C3525 0.961 . S
H3533 C3525 0.960 . S
H3534 C3526 0.930 . S
H3535 C3527 0.929 . S
H3536 C3544 0.929 . S
H3537 C3546 0.930 . S
H3538 C3548 0.930 . S
H3539 C3551 0.929 . S
H3540 C3554 0.930 . S
H3541 C3556 0.960 . S
H3542 C3556 0.960 . S
H3543 C3556 0.960 . S
C3544 H3536 0.929 . S
C3544 C3545 1.377 . S
C3544 C3546 1.384 . S
C3545 C3544 1.377 . S
C3545 C3551 1.390 . S
C3546 H3537 0.930 . S
C3546 C3544 1.384 . S
C3546 C3547 1.372 . S
C3547 C3546 1.372 . S
C3547 C3548 1.400 . S
C3547 C3552 1.490 . S
C3548 H3538 0.930 . S
C3548 C3547 1.400 . S
C3548 C3551 1.386 . S
H3549 C3565 0.930 . S
H3550 C3566 0.931 . S
C3551 H3539 0.929 . S
C3551 C3545 1.390 . S
C3551 C3548 1.386 . S
C3552 C3547 1.490 . S
C3552 C3554 1.395 . S
C3552 C3555 1.403 . S
H3553 C3559 0.930 . S
C3554 H3540 0.930 . S
C3554 C3552 1.395 . S
C3554 C3557 1.403 . S
C3555 C3552 1.403 . S
C3555 C3556 1.524 . S
C3555 C3559 1.400 . S
C3556 H3541 0.960 . S
C3556 H3542 0.960 . S
C3556 H3543 0.960 . S
C3556 C3555 1.524 . S
C3557 C3554 1.403 . S
C3557 C3558 1.392 . S
C3557 C3561 1.495 . S
C3558 C3557 1.392 . S
C3558 C3559 1.385 . S
C3558 C3560 1.478 . S
C3559 H3553 0.930 . S
C3559 C3555 1.400 . S
C3559 C3558 1.385 . S
C3560 C3558 1.478 . S
C3560 C3562 1.381 . S
C3560 C3566 1.383 . S
C3561 C3557 1.495 . S
C3561 H3567 0.959 . S
C3561 H3568 0.961 . S
C3561 H3569 0.960 . S
C3562 C3560 1.381 . S
C3562 C3563 1.394 . S
C3562 H3570 0.930 . S
C3563 C3562 1.394 . S
C3563 C3564 1.383 . S
C3563 H3571 0.929 . S
C3564 C3563 1.383 . S
C3564 C3565 1.377 . S
C3565 H3549 0.930 . S
C3565 C3564 1.377 . S
C3565 C3566 1.379 . S
C3566 H3550 0.931 . S
C3566 C3560 1.383 . S
C3566 C3565 1.379 . S
H3567 C3561 0.959 . S
H3568 C3561 0.961 . S
H3569 C3561 0.960 . S
H3570 C3562 0.930 . S
H3571 C3563 0.929 . S
H3572 C3580 0.929 . S
H3573 C3582 0.930 . S
H3574 C3584 0.930 . S
H3575 C3587 0.929 . S
H3576 C3590 0.930 . S
H3577 C3592 0.960 . S
H3578 C3592 0.960 . S
H3579 C3592 0.960 . S
C3580 H3572 0.929 . S
C3580 C3581 1.377 . S
C3580 C3582 1.384 . S
C3581 C3580 1.377 . S
C3581 C3587 1.390 . S
C3582 H3573 0.930 . S
C3582 C3580 1.384 . S
C3582 C3583 1.372 . S
C3583 C3582 1.372 . S
C3583 C3584 1.400 . S
C3583 C3588 1.490 . S
C3584 H3574 0.930 . S
C3584 C3583 1.400 . S
C3584 C3587 1.386 . S
H3585 C3601 0.930 . S
H3586 C3602 0.931 . S
C3587 H3575 0.929 . S
C3587 C3581 1.390 . S
C3587 C3584 1.386 . S
C3588 C3583 1.490 . S
C3588 C3590 1.395 . S
C3588 C3591 1.403 . S
H3589 C3595 0.930 . S
C3590 H3576 0.930 . S
C3590 C3588 1.395 . S
C3590 C3593 1.403 . S
C3591 C3588 1.403 . S
C3591 C3592 1.524 . S
C3591 C3595 1.400 . S
C3592 H3577 0.960 . S
C3592 H3578 0.960 . S
C3592 H3579 0.960 . S
C3592 C3591 1.524 . S
C3593 C3590 1.403 . S
C3593 C3594 1.392 . S
C3593 C3597 1.495 . S
C3594 C3593 1.392 . S
C3594 C3595 1.385 . S
C3594 C3596 1.478 . S
C3595 H3589 0.930 . S
C3595 C3591 1.400 . S
C3595 C3594 1.385 . S
C3596 C3594 1.478 . S
C3596 C3598 1.381 . S
C3596 C3602 1.383 . S
C3597 C3593 1.495 . S
C3597 H3603 0.959 . S
C3597 H3604 0.961 . S
C3597 H3605 0.960 . S
C3598 C3596 1.381 . S
C3598 C3599 1.394 . S
C3598 H3606 0.930 . S
C3599 C3598 1.394 . S
C3599 C3600 1.383 . S
C3599 H3607 0.929 . S
C3600 C3599 1.383 . S
C3600 C3601 1.377 . S
C3601 H3585 0.930 . S
C3601 C3600 1.377 . S
C3601 C3602 1.379 . S
C3602 H3586 0.931 . S
C3602 C3596 1.383 . S
C3602 C3601 1.379 . S
H3603 C3597 0.959 . S
H3604 C3597 0.961 . S
H3605 C3597 0.960 . S
H3606 C3598 0.930 . S
H3607 C3599 0.929 . S
H3608 C3616 0.929 . S
H3609 C3618 0.930 . S
H3610 C3620 0.930 . S
H3611 C3623 0.929 . S
H3612 C3626 0.930 . S
H3613 C3628 0.960 . S
H3614 C3628 0.960 . S
H3615 C3628 0.960 . S
C3616 H3608 0.929 . S
C3616 C3617 1.377 . S
C3616 C3618 1.384 . S
C3617 C3616 1.377 . S
C3617 C3623 1.390 . S
C3618 H3609 0.930 . S
C3618 C3616 1.384 . S
C3618 C3619 1.372 . S
C3619 C3618 1.372 . S
C3619 C3620 1.400 . S
C3619 C3624 1.490 . S
C3620 H3610 0.930 . S
C3620 C3619 1.400 . S
C3620 C3623 1.386 . S
H3621 C3637 0.930 . S
H3622 C3638 0.931 . S
C3623 H3611 0.929 . S
C3623 C3617 1.390 . S
C3623 C3620 1.386 . S
C3624 C3619 1.490 . S
C3624 C3626 1.395 . S
C3624 C3627 1.403 . S
H3625 C3631 0.930 . S
C3626 H3612 0.930 . S
C3626 C3624 1.395 . S
C3626 C3629 1.403 . S
C3627 C3624 1.403 . S
C3627 C3628 1.524 . S
C3627 C3631 1.400 . S
C3628 H3613 0.960 . S
C3628 H3614 0.960 . S
C3628 H3615 0.960 . S
C3628 C3627 1.524 . S
C3629 C3626 1.403 . S
C3629 C3630 1.392 . S
C3629 C3633 1.495 . S
C3630 C3629 1.392 . S
C3630 C3631 1.385 . S
C3630 C3632 1.478 . S
C3631 H3625 0.930 . S
C3631 C3627 1.400 . S
C3631 C3630 1.385 . S
C3632 C3630 1.478 . S
C3632 C3634 1.381 . S
C3632 C3638 1.383 . S
C3633 C3629 1.495 . S
C3633 H3639 0.959 . S
C3633 H3640 0.961 . S
C3633 H3641 0.960 . S
C3634 C3632 1.381 . S
C3634 C3635 1.394 . S
C3634 H3642 0.930 . S
C3635 C3634 1.394 . S
C3635 C3636 1.383 . S
C3635 H3643 0.929 . S
C3636 C3635 1.383 . S
C3636 C3637 1.377 . S
C3637 H3621 0.930 . S
C3637 C3636 1.377 . S
C3637 C3638 1.379 . S
C3638 H3622 0.931 . S
C3638 C3632 1.383 . S
C3638 C3637 1.379 . S
H3639 C3633 0.959 . S
H3640 C3633 0.961 . S
H3641 C3633 0.960 . S
H3642 C3634 0.930 . S
H3643 C3635 0.929 . S
H3644 C3652 0.929 . S
H3645 C3654 0.930 . S
H3646 C3656 0.930 . S
H3647 C3659 0.929 . S
H3648 C3662 0.930 . S
H3649 C3664 0.960 . S
H3650 C3664 0.960 . S
H3651 C3664 0.960 . S
C3652 H3644 0.929 . S
C3652 C3653 1.377 . S
C3652 C3654 1.384 . S
C3653 C3652 1.377 . S
C3653 C3659 1.390 . S
C3654 H3645 0.930 . S
C3654 C3652 1.384 . S
C3654 C3655 1.372 . S
C3655 C3654 1.372 . S
C3655 C3656 1.400 . S
C3655 C3660 1.490 . S
C3656 H3646 0.930 . S
C3656 C3655 1.400 . S
C3656 C3659 1.386 . S
H3657 C3673 0.930 . S
H3658 C3674 0.931 . S
C3659 H3647 0.929 . S
C3659 C3653 1.390 . S
C3659 C3656 1.386 . S
C3660 C3655 1.490 . S
C3660 C3662 1.395 . S
C3660 C3663 1.403 . S
H3661 C3667 0.930 . S
C3662 H3648 0.930 . S
C3662 C3660 1.395 . S
C3662 C3665 1.403 . S
C3663 C3660 1.403 . S
C3663 C3664 1.524 . S
C3663 C3667 1.400 . S
C3664 H3649 0.960 . S
C3664 H3650 0.960 . S
C3664 H3651 0.960 . S
C3664 C3663 1.524 . S
C3665 C3662 1.403 . S
C3665 C3666 1.392 . S
C3665 C3669 1.495 . S
C3666 C3665 1.392 . S
C3666 C3667 1.385 . S
C3666 C3668 1.478 . S
C3667 H3661 0.930 . S
C3667 C3663 1.400 . S
C3667 C3666 1.385 . S
C3668 C3666 1.478 . S
C3668 C3670 1.381 . S
C3668 C3674 1.383 . S
C3669 C3665 1.495 . S
C3669 H3675 0.959 . S
C3669 H3676 0.961 . S
C3669 H3677 0.960 . S
C3670 C3668 1.381 . S
C3670 C3671 1.394 . S
C3670 H3678 0.930 . S
C3671 C3670 1.394 . S
C3671 C3672 1.383 . S
C3671 H3679 0.929 . S
C3672 C3671 1.383 . S
C3672 C3673 1.377 . S
C3673 H3657 0.930 . S
C3673 C3672 1.377 . S
C3673 C3674 1.379 . S
C3674 H3658 0.931 . S
C3674 C3668 1.383 . S
C3674 C3673 1.379 . S
H3675 C3669 0.959 . S
H3676 C3669 0.961 . S
H3677 C3669 0.960 . S
H3678 C3670 0.930 . S
H3679 C3671 0.929 . S
H3680 C3688 0.929 . S
H3681 C3690 0.930 . S
H3682 C3692 0.930 . S
H3683 C3695 0.929 . S
H3684 C3698 0.930 . S
H3685 C3700 0.960 1_455 S
H3686 C3700 0.960 . S
H3687 C3700 0.960 . S
C3688 H3680 0.929 . S
C3688 C3689 1.377 . S
C3688 C3690 1.384 . S
C3689 C3688 1.377 . S
C3689 C3695 1.390 . S
C3690 H3681 0.930 . S
C3690 C3688 1.384 . S
C3690 C3691 1.372 . S
C3691 C3690 1.372 . S
C3691 C3692 1.400 . S
C3691 C3696 1.490 . S
C3692 H3682 0.930 . S
C3692 C3691 1.400 . S
C3692 C3695 1.386 . S
H3693 C3709 0.930 . S
H3694 C3710 0.931 . S
C3695 H3683 0.929 . S
C3695 C3689 1.390 . S
C3695 C3692 1.386 . S
C3696 C3691 1.490 . S
C3696 C3698 1.395 . S
C3696 C3699 1.403 . S
H3697 C3703 0.930 . S
C3698 H3684 0.930 . S
C3698 C3696 1.395 . S
C3698 C3701 1.403 . S
C3699 C3696 1.403 . S
C3699 C3700 1.524 . S
C3699 C3703 1.400 . S
C3700 H3685 0.960 1_655 S
C3700 H3686 0.960 . S
C3700 H3687 0.960 . S
C3700 C3699 1.524 . S
C3701 C3698 1.403 . S
C3701 C3702 1.392 . S
C3701 C3705 1.495 . S
C3702 C3701 1.392 . S
C3702 C3703 1.385 . S
C3702 C3704 1.478 . S
C3703 H3697 0.930 . S
C3703 C3699 1.400 . S
C3703 C3702 1.385 . S
C3704 C3702 1.478 . S
C3704 C3706 1.381 . S
C3704 C3710 1.383 . S
C3705 C3701 1.495 . S
C3705 H3711 0.959 . S
C3705 H3712 0.961 . S
C3705 H3713 0.960 . S
C3706 C3704 1.381 . S
C3706 C3707 1.394 . S
C3706 H3714 0.930 . S
C3707 C3706 1.394 . S
C3707 C3708 1.383 . S
C3707 H3715 0.929 . S
C3708 C3707 1.383 . S
C3708 C3709 1.377 . S
C3709 H3693 0.930 . S
C3709 C3708 1.377 . S
C3709 C3710 1.379 . S
C3710 H3694 0.931 . S
C3710 C3704 1.383 . S
C3710 C3709 1.379 . S
H3711 C3705 0.959 . S
H3712 C3705 0.961 . S
H3713 C3705 0.960 . S
H3714 C3706 0.930 . S
H3715 C3707 0.929 . S
H3716 C3724 0.929 . S
H3717 C3726 0.930 . S
H3718 C3728 0.930 . S
H3719 C3731 0.929 . S
H3720 C3734 0.930 . S
H3721 C3736 0.960 . S
H3722 C3736 0.960 . S
H3723 C3736 0.960 . S
C3724 H3716 0.929 . S
C3724 C3725 1.377 . S
C3724 C3726 1.384 . S
C3725 C3724 1.377 . S
C3725 C3731 1.390 . S
C3726 H3717 0.930 . S
C3726 C3724 1.384 . S
C3726 C3727 1.372 . S
C3727 C3726 1.372 . S
C3727 C3728 1.400 . S
C3727 C3732 1.490 . S
C3728 H3718 0.930 . S
C3728 C3727 1.400 . S
C3728 C3731 1.386 . S
H3729 C3745 0.930 . S
H3730 C3746 0.931 . S
C3731 H3719 0.929 . S
C3731 C3725 1.390 . S
C3731 C3728 1.386 . S
C3732 C3727 1.490 . S
C3732 C3734 1.395 . S
C3732 C3735 1.403 . S
H3733 C3739 0.930 . S
C3734 H3720 0.930 . S
C3734 C3732 1.395 . S
C3734 C3737 1.403 . S
C3735 C3732 1.403 . S
C3735 C3736 1.524 . S
C3735 C3739 1.400 . S
C3736 H3721 0.960 . S
C3736 H3722 0.960 . S
C3736 H3723 0.960 . S
C3736 C3735 1.524 . S
C3737 C3734 1.403 . S
C3737 C3738 1.392 . S
C3737 C3741 1.495 . S
C3738 C3737 1.392 . S
C3738 C3739 1.385 . S
C3738 C3740 1.478 . S
C3739 H3733 0.930 . S
C3739 C3735 1.400 . S
C3739 C3738 1.385 . S
C3740 C3738 1.478 . S
C3740 C3742 1.381 . S
C3740 C3746 1.383 . S
C3741 C3737 1.495 . S
C3741 H3747 0.959 . S
C3741 H3748 0.961 . S
C3741 H3749 0.960 . S
C3742 C3740 1.381 . S
C3742 C3743 1.394 . S
C3742 H3750 0.930 . S
C3743 C3742 1.394 . S
C3743 C3744 1.383 . S
C3743 H3751 0.929 . S
C3744 C3743 1.383 . S
C3744 C3745 1.377 . S
C3745 H3729 0.930 . S
C3745 C3744 1.377 . S
C3745 C3746 1.379 . S
C3746 H3730 0.931 . S
C3746 C3740 1.383 . S
C3746 C3745 1.379 . S
H3747 C3741 0.959 . S
H3748 C3741 0.961 . S
H3749 C3741 0.960 . S
H3750 C3742 0.930 . S
H3751 C3743 0.929 . S
H3752 C3760 0.929 . S
H3753 C3762 0.930 . S
H3754 C3764 0.930 . S
H3755 C3767 0.929 . S
H3756 C3770 0.930 . S
H3757 C3772 0.960 . S
H3758 C3772 0.960 . S
H3759 C3772 0.960 . S
C3760 H3752 0.929 . S
C3760 C3761 1.377 . S
C3760 C3762 1.384 . S
C3761 C3760 1.377 . S
C3761 C3767 1.390 . S
C3762 H3753 0.930 . S
C3762 C3760 1.384 . S
C3762 C3763 1.372 . S
C3763 C3762 1.372 . S
C3763 C3764 1.400 . S
C3763 C3768 1.490 . S
C3764 H3754 0.930 . S
C3764 C3763 1.400 . S
C3764 C3767 1.386 . S
H3765 C3781 0.930 . S
H3766 C3782 0.931 . S
C3767 H3755 0.929 . S
C3767 C3761 1.390 . S
C3767 C3764 1.386 . S
C3768 C3763 1.490 . S
C3768 C3770 1.395 . S
C3768 C3771 1.403 . S
H3769 C3775 0.930 . S
C3770 H3756 0.930 . S
C3770 C3768 1.395 . S
C3770 C3773 1.403 . S
C3771 C3768 1.403 . S
C3771 C3772 1.524 . S
C3771 C3775 1.400 . S
C3772 H3757 0.960 . S
C3772 H3758 0.960 . S
C3772 H3759 0.960 . S
C3772 C3771 1.524 . S
C3773 C3770 1.403 . S
C3773 C3774 1.392 . S
C3773 C3777 1.495 . S
C3774 C3773 1.392 . S
C3774 C3775 1.385 . S
C3774 C3776 1.478 . S
C3775 H3769 0.930 . S
C3775 C3771 1.400 . S
C3775 C3774 1.385 . S
C3776 C3774 1.478 . S
C3776 C3778 1.381 . S
C3776 C3782 1.383 . S
C3777 C3773 1.495 . S
C3777 H3783 0.959 . S
C3777 H3784 0.961 . S
C3777 H3785 0.960 . S
C3778 C3776 1.381 . S
C3778 C3779 1.394 . S
C3778 H3786 0.930 . S
C3779 C3778 1.394 . S
C3779 C3780 1.383 . S
C3779 H3787 0.929 . S
C3780 C3779 1.383 . S
C3780 C3781 1.377 . S
C3781 H3765 0.930 . S
C3781 C3780 1.377 . S
C3781 C3782 1.379 . S
C3782 H3766 0.931 . S
C3782 C3776 1.383 . S
C3782 C3781 1.379 . S
H3783 C3777 0.959 . S
H3784 C3777 0.961 . S
H3785 C3777 0.960 . S
H3786 C3778 0.930 . S
H3787 C3779 0.929 . S
H3788 C3796 0.929 . S
H3789 C3798 0.930 . S
H3790 C3800 0.930 . S
H3791 C3803 0.929 . S
H3792 C3806 0.930 . S
H3793 C3808 0.960 . S
H3794 C3808 0.960 . S
H3795 C3808 0.960 . S
C3796 H3788 0.929 . S
C3796 C3797 1.377 . S
C3796 C3798 1.384 . S
C3797 C3796 1.377 . S
C3797 C3803 1.390 . S
C3798 H3789 0.930 . S
C3798 C3796 1.384 . S
C3798 C3799 1.372 . S
C3799 C3798 1.372 . S
C3799 C3800 1.400 . S
C3799 C3804 1.490 . S
C3800 H3790 0.930 . S
C3800 C3799 1.400 . S
C3800 C3803 1.386 . S
H3801 C3817 0.930 . S
H3802 C3818 0.931 . S
C3803 H3791 0.929 . S
C3803 C3797 1.390 . S
C3803 C3800 1.386 . S
C3804 C3799 1.490 . S
C3804 C3806 1.395 . S
C3804 C3807 1.403 . S
H3805 C3811 0.930 . S
C3806 H3792 0.930 . S
C3806 C3804 1.395 . S
C3806 C3809 1.403 . S
C3807 C3804 1.403 . S
C3807 C3808 1.524 . S
C3807 C3811 1.400 . S
C3808 H3793 0.960 . S
C3808 H3794 0.960 . S
C3808 H3795 0.960 . S
C3808 C3807 1.524 . S
C3809 C3806 1.403 . S
C3809 C3810 1.392 . S
C3809 C3813 1.495 . S
C3810 C3809 1.392 . S
C3810 C3811 1.385 . S
C3810 C3812 1.478 . S
C3811 H3805 0.930 . S
C3811 C3807 1.400 . S
C3811 C3810 1.385 . S
C3812 C3810 1.478 . S
C3812 C3814 1.381 . S
C3812 C3818 1.383 . S
C3813 C3809 1.495 . S
C3813 H3819 0.959 . S
C3813 H3820 0.961 . S
C3813 H3821 0.960 . S
C3814 C3812 1.381 . S
C3814 C3815 1.394 . S
C3814 H3822 0.930 . S
C3815 C3814 1.394 . S
C3815 C3816 1.383 . S
C3815 H3823 0.929 . S
C3816 C3815 1.383 . S
C3816 C3817 1.377 . S
C3817 H3801 0.930 . S
C3817 C3816 1.377 . S
C3817 C3818 1.379 . S
C3818 H3802 0.931 . S
C3818 C3812 1.383 . S
C3818 C3817 1.379 . S
H3819 C3813 0.959 . S
H3820 C3813 0.961 . S
H3821 C3813 0.960 . S
H3822 C3814 0.930 . S
H3823 C3815 0.929 . S
H3824 C3832 0.929 . S
H3825 C3834 0.930 . S
H3826 C3836 0.930 . S
H3827 C3839 0.929 . S
H3828 C3842 0.930 . S
H3829 C3844 0.960 1_455 S
H3830 C3844 0.960 . S
H3831 C3844 0.960 . S
C3832 H3824 0.929 . S
C3832 C3833 1.377 . S
C3832 C3834 1.384 . S
C3833 C3832 1.377 . S
C3833 C3839 1.390 . S
C3834 H3825 0.930 . S
C3834 C3832 1.384 . S
C3834 C3835 1.372 . S
C3835 C3834 1.372 . S
C3835 C3836 1.400 . S
C3835 C3840 1.490 . S
C3836 H3826 0.930 . S
C3836 C3835 1.400 . S
C3836 C3839 1.386 . S
H3837 C3853 0.930 . S
H3838 C3854 0.931 . S
C3839 H3827 0.929 . S
C3839 C3833 1.390 . S
C3839 C3836 1.386 . S
C3840 C3835 1.490 . S
C3840 C3842 1.395 . S
C3840 C3843 1.403 . S
H3841 C3847 0.930 . S
C3842 H3828 0.930 . S
C3842 C3840 1.395 . S
C3842 C3845 1.403 . S
C3843 C3840 1.403 . S
C3843 C3844 1.524 . S
C3843 C3847 1.400 . S
C3844 H3829 0.960 1_655 S
C3844 H3830 0.960 . S
C3844 H3831 0.960 . S
C3844 C3843 1.524 . S
C3845 C3842 1.403 . S
C3845 C3846 1.392 . S
C3845 C3849 1.495 . S
C3846 C3845 1.392 . S
C3846 C3847 1.385 . S
C3846 C3848 1.478 . S
C3847 H3841 0.930 . S
C3847 C3843 1.400 . S
C3847 C3846 1.385 . S
C3848 C3846 1.478 . S
C3848 C3850 1.381 . S
C3848 C3854 1.383 . S
C3849 C3845 1.495 . S
C3849 H3855 0.959 . S
C3849 H3856 0.961 . S
C3849 H3857 0.960 . S
C3850 C3848 1.381 . S
C3850 C3851 1.394 . S
C3850 H3858 0.930 . S
C3851 C3850 1.394 . S
C3851 C3852 1.383 . S
C3851 H3859 0.929 . S
C3852 C3851 1.383 . S
C3852 C3853 1.377 . S
C3853 H3837 0.930 . S
C3853 C3852 1.377 . S
C3853 C3854 1.379 . S
C3854 H3838 0.931 . S
C3854 C3848 1.383 . S
C3854 C3853 1.379 . S
H3855 C3849 0.959 . S
H3856 C3849 0.961 . S
H3857 C3849 0.960 . S
H3858 C3850 0.930 . S
H3859 C3851 0.929 . S
H3860 C3868 0.929 . S
H3861 C3870 0.930 . S
H3862 C3872 0.930 . S
H3863 C3875 0.929 . S
H3864 C3878 0.930 . S
H3865 C3880 0.960 . S
H3866 C3880 0.960 . S
H3867 C3880 0.960 . S
C3868 H3860 0.929 . S
C3868 C3869 1.377 . S
C3868 C3870 1.384 . S
C3869 C3868 1.377 . S
C3869 C3875 1.390 . S
C3870 H3861 0.930 . S
C3870 C3868 1.384 . S
C3870 C3871 1.372 . S
C3871 C3870 1.372 . S
C3871 C3872 1.400 . S
C3871 C3876 1.490 . S
C3872 H3862 0.930 . S
C3872 C3871 1.400 . S
C3872 C3875 1.386 . S
H3873 C3889 0.930 . S
H3874 C3890 0.931 . S
C3875 H3863 0.929 . S
C3875 C3869 1.390 . S
C3875 C3872 1.386 . S
C3876 C3871 1.490 . S
C3876 C3878 1.395 . S
C3876 C3879 1.403 . S
H3877 C3883 0.930 . S
C3878 H3864 0.930 . S
C3878 C3876 1.395 . S
C3878 C3881 1.403 . S
C3879 C3876 1.403 . S
C3879 C3880 1.524 . S
C3879 C3883 1.400 . S
C3880 H3865 0.960 . S
C3880 H3866 0.960 . S
C3880 H3867 0.960 . S
C3880 C3879 1.524 . S
C3881 C3878 1.403 . S
C3881 C3882 1.392 . S
C3881 C3885 1.495 . S
C3882 C3881 1.392 . S
C3882 C3883 1.385 . S
C3882 C3884 1.478 . S
C3883 H3877 0.930 . S
C3883 C3879 1.400 . S
C3883 C3882 1.385 . S
C3884 C3882 1.478 . S
C3884 C3886 1.381 . S
C3884 C3890 1.383 . S
C3885 C3881 1.495 . S
C3885 H3891 0.959 . S
C3885 H3892 0.961 . S
C3885 H3893 0.960 . S
C3886 C3884 1.381 . S
C3886 C3887 1.394 . S
C3886 H3894 0.930 . S
C3887 C3886 1.394 . S
C3887 C3888 1.383 . S
C3887 H3895 0.929 . S
C3888 C3887 1.383 . S
C3888 C3889 1.377 . S
C3889 H3873 0.930 . S
C3889 C3888 1.377 . S
C3889 C3890 1.379 . S
C3890 H3874 0.931 . S
C3890 C3884 1.383 . S
C3890 C3889 1.379 . S
H3891 C3885 0.959 . S
H3892 C3885 0.961 . S
H3893 C3885 0.960 . S
H3894 C3886 0.930 . S
H3895 C3887 0.929 . S
H3896 C3904 0.929 . S
H3897 C3906 0.930 . S
H3898 C3908 0.930 . S
H3899 C3911 0.929 . S
H3900 C3914 0.930 . S
H3901 C3916 0.960 . S
H3902 C3916 0.960 . S
H3903 C3916 0.960 . S
C3904 H3896 0.929 . S
C3904 C3905 1.377 . S
C3904 C3906 1.384 . S
C3905 C3904 1.377 . S
C3905 C3911 1.390 . S
C3906 H3897 0.930 . S
C3906 C3904 1.384 . S
C3906 C3907 1.372 . S
C3907 C3906 1.372 . S
C3907 C3908 1.400 . S
C3907 C3912 1.490 . S
C3908 H3898 0.930 . S
C3908 C3907 1.400 . S
C3908 C3911 1.386 . S
H3909 C3925 0.930 . S
H3910 C3926 0.931 . S
C3911 H3899 0.929 . S
C3911 C3905 1.390 . S
C3911 C3908 1.386 . S
C3912 C3907 1.490 . S
C3912 C3914 1.395 . S
C3912 C3915 1.403 . S
H3913 C3919 0.930 . S
C3914 H3900 0.930 . S
C3914 C3912 1.395 . S
C3914 C3917 1.403 . S
C3915 C3912 1.403 . S
C3915 C3916 1.524 . S
C3915 C3919 1.400 . S
C3916 H3901 0.960 . S
C3916 H3902 0.960 . S
C3916 H3903 0.960 . S
C3916 C3915 1.524 . S
C3917 C3914 1.403 . S
C3917 C3918 1.392 . S
C3917 C3921 1.495 . S
C3918 C3917 1.392 . S
C3918 C3919 1.385 . S
C3918 C3920 1.478 . S
C3919 H3913 0.930 . S
C3919 C3915 1.400 . S
C3919 C3918 1.385 . S
C3920 C3918 1.478 . S
C3920 C3922 1.381 . S
C3920 C3926 1.383 . S
C3921 C3917 1.495 . S
C3921 H3927 0.959 . S
C3921 H3928 0.961 . S
C3921 H3929 0.960 . S
C3922 C3920 1.381 . S
C3922 C3923 1.394 . S
C3922 H3930 0.930 . S
C3923 C3922 1.394 . S
C3923 C3924 1.383 . S
C3923 H3931 0.929 . S
C3924 C3923 1.383 . S
C3924 C3925 1.377 . S
C3925 H3909 0.930 . S
C3925 C3924 1.377 . S
C3925 C3926 1.379 . S
C3926 H3910 0.931 . S
C3926 C3920 1.383 . S
C3926 C3925 1.379 . S
H3927 C3921 0.959 . S
H3928 C3921 0.961 . S
H3929 C3921 0.960 . S
H3930 C3922 0.930 . S
H3931 C3923 0.929 . S
H3932 C3940 0.929 . S
H3933 C3942 0.930 . S
H3934 C3944 0.930 . S
H3935 C3947 0.929 . S
H3936 C3950 0.930 . S
H3937 C3952 0.960 . S
H3938 C3952 0.960 . S
H3939 C3952 0.960 . S
C3940 H3932 0.929 . S
C3940 C3941 1.377 . S
C3940 C3942 1.384 . S
C3941 C3940 1.377 . S
C3941 C3947 1.390 . S
C3942 H3933 0.930 . S
C3942 C3940 1.384 . S
C3942 C3943 1.372 . S
C3943 C3942 1.372 . S
C3943 C3944 1.400 . S
C3943 C3948 1.490 . S
C3944 H3934 0.930 . S
C3944 C3943 1.400 . S
C3944 C3947 1.386 . S
H3945 C3961 0.930 . S
H3946 C3962 0.931 . S
C3947 H3935 0.929 . S
C3947 C3941 1.390 . S
C3947 C3944 1.386 . S
C3948 C3943 1.490 . S
C3948 C3950 1.395 . S
C3948 C3951 1.403 . S
H3949 C3955 0.930 . S
C3950 H3936 0.930 . S
C3950 C3948 1.395 . S
C3950 C3953 1.403 . S
C3951 C3948 1.403 . S
C3951 C3952 1.524 . S
C3951 C3955 1.400 . S
C3952 H3937 0.960 . S
C3952 H3938 0.960 . S
C3952 H3939 0.960 . S
C3952 C3951 1.524 . S
C3953 C3950 1.403 . S
C3953 C3954 1.392 . S
C3953 C3957 1.495 . S
C3954 C3953 1.392 . S
C3954 C3955 1.385 . S
C3954 C3956 1.478 . S
C3955 H3949 0.930 . S
C3955 C3951 1.400 . S
C3955 C3954 1.385 . S
C3956 C3954 1.478 . S
C3956 C3958 1.381 . S
C3956 C3962 1.383 . S
C3957 C3953 1.495 . S
C3957 H3963 0.959 . S
C3957 H3964 0.961 . S
C3957 H3965 0.960 . S
C3958 C3956 1.381 . S
C3958 C3959 1.394 . S
C3958 H3966 0.930 . S
C3959 C3958 1.394 . S
C3959 C3960 1.383 . S
C3959 H3967 0.929 . S
C3960 C3959 1.383 . S
C3960 C3961 1.377 . S
C3961 H3945 0.930 . S
C3961 C3960 1.377 . S
C3961 C3962 1.379 . S
C3962 H3946 0.931 . S
C3962 C3956 1.383 . S
C3962 C3961 1.379 . S
H3963 C3957 0.959 . S
H3964 C3957 0.961 . S
H3965 C3957 0.960 . S
H3966 C3958 0.930 . S
H3967 C3959 0.929 . S
C1097 C9 1.547 . S
C1116 C145 1.533 . S
C1133 C995 1.554 . S
C1152 C43 1.554 . S
C1169 C77 1.553 . S
C1188 C485 1.565 . S
C1205 C791 1.547 . S
C1224 C111 1.533 . S
C1241 C179 1.547 . S
C1260 C859 1.531 . S
C1277 C213 1.552 . S
C1296 C349 1.565 . S
C1313 C247 1.546 . S
C1332 C655 1.532 . S
C1349 C417 1.547 . S
C1368 C281 1.548 . S
C1385 C723 1.554 . S
C1404 C315 1.554 . S
C1421 C383 1.546 . S
C1440 C1063 1.534 . S
C1457 C587 1.548 . S
C1476 C451 1.554 . S
C1493 C519 1.553 . S
C1512 C927 1.565 . S
C1529 C689 1.553 . S
C1548 C553 1.562 . S
C1565 C621 1.549 . S
C1584 C1029 1.560 . S
C1601 C757 1.548 . S
C1620 C893 1.528 . S
C1637 C825 1.548 . S
C1656 C961 1.529 . S
C1673 C5 0.479 . S
C1692 C107 0.550 . S
C1709 C73 0.468 . S
C1728 C39 0.423 . S
C1745 C243 0.464 . S
C1764 C141 0.416 . S
C1781 C175 0.488 . S
C1800 C209 0.551 . S
C1817 C379 0.478 . S
C1836 C277 0.419 . S
C1853 C345 0.475 . S
C1872 C311 0.416 . S
C1889 C413 0.466 . S
C1908 C515 0.419 . S
C1925 C481 0.482 . S
C1944 C447 0.548 . S
C1961 C549 0.482 . S
C1980 C651 0.430 . S
C1997 C617 0.461 . S
C2016 C583 0.458 . S
C2033 C787 0.467 . S
C2052 C685 0.421 . S
C2069 C753 0.460 . S
C2088 C719 0.425 . S
C2105 C821 0.467 . S
C2124 C923 0.424 . S
C2141 C889 0.466 . S
C2160 C855 0.426 . S
C2177 C957 0.465 . S
C2196 C1059 0.417 . S
C2213 C1025 0.474 . S
C2232 C991 0.526 . S
C2249 C36 1.481 . S
C2268 C2 1.493 . S
C2285 C104 1.483 . S
C2304 C70 1.459 . S
C2321 C138 1.488 . S
C2340 C172 1.467 . S
C2357 C206 1.487 . S
C2376 C240 1.476 . S
C2393 C308 1.489 . S
C2412 C274 1.485 . S
C2429 C342 1.488 . S
C2448 C376 1.494 . S
C2465 C444 1.481 . S
C2484 C410 1.491 . S
C2501 C478 1.483 . S
C2520 C512 1.481 . S
C2537 C580 1.488 . S
C2556 C546 1.494 . S
C2573 C648 1.489 . S
C2592 C614 1.482 . S
C2609 C716 1.480 . S
C2628 C682 1.497 . S
C2645 C784 1.488 . S
C2664 C750 1.464 . S
C2681 C818 1.487 . S
C2700 C852 1.468 . S
C2717 C920 1.481 . S
C2736 C886 1.495 . S
C2753 C954 1.484 . S
C2772 C988 1.474 . S
C2789 C1056 1.480 . S
C2808 C1022 1.499 . S
C2825 C20 0.770 . S
C2844 C870 0.738 . S
C2861 C836 0.772 . S
C2880 C54 0.796 . S
C2897 C88 0.777 . S
C2916 C938 0.755 . S
C2933 C122 0.775 . S
C2952 C904 0.746 . S
C2969 C1006 0.781 . S
C2988 C156 0.774 . S
C3005 C190 0.768 . S
C3024 C972 0.743 . S
C3041 C224 0.781 . S
C3060 C1074 0.800 . S
C3077 C1040 0.779 . S
C3096 C258 0.758 . S
C3113 C598 0.781 . S
C3132 C292 0.793 . S
C3149 C326 0.768 . S
C3168 C564 0.773 . S
C3185 C666 0.767 . S
C3204 C360 0.751 . S
C3221 C394 0.771 . S
C3240 C632 0.794 . S
C3257 C734 0.767 . S
C3276 C428 0.776 . S
C3293 C462 0.771 . S
C3312 C700 0.738 . S
C3329 C802 0.775 . S
C3348 C496 0.743 . S
C3365 C530 0.778 . S
C3384 C768 0.810 . S
C3401 C33 1.016 . S
C3420 C101 1.015 . S
C3437 C67 1.014 . S
C3456 C135 1.045 . S
C3473 C237 1.016 . S
C3492 C169 1.017 . S
C3509 C271 1.030 . S
C3528 C203 0.995 . S
C3545 C305 1.015 . S
C3564 C373 1.019 . S
C3581 C339 1.014 . S
C3600 C407 1.045 . S
C3617 C509 1.023 . S
C3636 C441 0.988 . S
C3653 C475 1.018 . S
C3672 C543 1.000 . S
C3689 C577 1.024 . S
C3708 C645 0.984 . S
C3725 C611 1.017 . S
C3744 C679 1.005 . S
C3761 C781 1.019 . S
C3780 C713 1.004 . S
C3797 C815 1.024 . S
C3816 C747 1.045 . S
C3833 C917 1.023 . S
C3852 C849 0.986 . S
C3869 C951 1.015 . S
C3888 C883 1.024 . S
C3905 C1053 1.025 . S
C3924 C985 1.045 . S
C3941 C1087 1.030 . S
C3960 C1019 1.002 . S
