# Generated by pormake.
# Topology umb, (4)-cn, num edge types: 1
# Building blocks:
#     Node 0, Type 0, BuildingBlock: QUQFOY_clean_sbu_3, # of connection points: 4
#     Node 1, Type 0, BuildingBlock: QUQFOY_clean_sbu_3, # of connection points: 4
#     Node 2, Type 0, BuildingBlock: QUQFOY_clean_sbu_3, # of connection points: 4
#     Node 3, Type 0, BuildingBlock: QUQFOY_clean_sbu_3, # of connection points: 4
#     Node 4, Type 0, BuildingBlock: QUQFOY_clean_sbu_3, # of connection points: 4
#     Node 5, Type 0, BuildingBlock: QUQFOY_clean_sbu_3, # of connection points: 4
#     Node 6, Type 0, BuildingBlock: QUQFOY_clean_sbu_3, # of connection points: 4
#     Node 7, Type 0, BuildingBlock: QUQFOY_clean_sbu_3, # of connection points: 4
#     Node 8, Type 0, BuildingBlock: QUQFOY_clean_sbu_3, # of connection points: 4
#     Node 9, Type 0, BuildingBlock: QUQFOY_clean_sbu_3, # of connection points: 4
#     Node 10, Type 0, BuildingBlock: QUQFOY_clean_sbu_3, # of connection points: 4
#     Node 11, Type 0, BuildingBlock: QUQFOY_clean_sbu_3, # of connection points: 4
#     Edge 12, Type (0, 0), BuildingBlock: XIVTED_clean_linker_0, # of connection points: 2
#     Edge 13, Type (0, 0), BuildingBlock: XIVTED_clean_linker_0, # of connection points: 2
#     Edge 14, Type (0, 0), BuildingBlock: XIVTED_clean_linker_0, # of connection points: 2
#     Edge 15, Type (0, 0), BuildingBlock: XIVTED_clean_linker_0, # of connection points: 2
#     Edge 16, Type (0, 0), BuildingBlock: XIVTED_clean_linker_0, # of connection points: 2
#     Edge 17, Type (0, 0), BuildingBlock: XIVTED_clean_linker_0, # of connection points: 2
#     Edge 18, Type (0, 0), BuildingBlock: XIVTED_clean_linker_0, # of connection points: 2
#     Edge 19, Type (0, 0), BuildingBlock: XIVTED_clean_linker_0, # of connection points: 2
#     Edge 20, Type (0, 0), BuildingBlock: XIVTED_clean_linker_0, # of connection points: 2
#     Edge 21, Type (0, 0), BuildingBlock: XIVTED_clean_linker_0, # of connection points: 2
#     Edge 22, Type (0, 0), BuildingBlock: XIVTED_clean_linker_0, # of connection points: 2
#     Edge 23, Type (0, 0), BuildingBlock: XIVTED_clean_linker_0, # of connection points: 2
#     Edge 24, Type (0, 0), BuildingBlock: XIVTED_clean_linker_0, # of connection points: 2
#     Edge 25, Type (0, 0), BuildingBlock: XIVTED_clean_linker_0, # of connection points: 2
#     Edge 26, Type (0, 0), BuildingBlock: XIVTED_clean_linker_0, # of connection points: 2
#     Edge 27, Type (0, 0), BuildingBlock: XIVTED_clean_linker_0, # of connection points: 2
#     Edge 28, Type (0, 0), BuildingBlock: XIVTED_clean_linker_0, # of connection points: 2
#     Edge 29, Type (0, 0), BuildingBlock: XIVTED_clean_linker_0, # of connection points: 2
#     Edge 30, Type (0, 0), BuildingBlock: XIVTED_clean_linker_0, # of connection points: 2
#     Edge 31, Type (0, 0), BuildingBlock: XIVTED_clean_linker_0, # of connection points: 2
#     Edge 32, Type (0, 0), BuildingBlock: XIVTED_clean_linker_0, # of connection points: 2
#     Edge 33, Type (0, 0), BuildingBlock: XIVTED_clean_linker_0, # of connection points: 2
#     Edge 34, Type (0, 0), BuildingBlock: XIVTED_clean_linker_0, # of connection points: 2
#     Edge 35, Type (0, 0), BuildingBlock: XIVTED_clean_linker_0, # of connection points: 2
# Relax obj value: 0.254
# Max RMSD: 0.247
# Mean RMSD: 0.247
data_MOF--net-umb--node1-QUQFOY_clean_sbu_3--edge1-XIVTED_clean_linker_0
_symmetry_space_group_name_H-M    P1
_symmetry_Int_Tables_number       1
_symmetry_cell_setting            triclinic
loop_
_symmetry_equiv_pos_as_xyz
'x, y, z'
_cell_length_a     52.634301
_cell_length_b     52.295602
_cell_length_c     38.177182
_cell_angle_alpha  89.924451
_cell_angle_beta   90.335819
_cell_angle_gamma 120.21476
loop_
_atom_site_label
_atom_site_type_symbol
_atom_site_fract_x
_atom_site_fract_y
_atom_site_fract_z
_atom_type_partial_charge
C0 C 0.4357 0.15353 0.28304 0.0
O1 O 0.43479 0.16144 0.31423 0.0
Cd2 Cd 0.45613 0.14937 0.36425 0.0
O3 O 0.44602 0.13658 0.2772 0.0
Cd4 Cd 0.46721 0.11174 0.3125 0.0
C5 C 0.52523 0.17723 0.33211 0.0
O6 O 0.44849 0.10057 0.37423 0.0
O7 O 0.49063 0.10478 0.3621 0.0
O8 O 0.43438 0.06312 0.28781 0.0
C9 C 0.4708 0.09889 0.38453 0.0
O10 O 0.50844 0.17792 0.35549 0.0
C11 C 0.45454 0.06005 0.27383 0.0
O12 O 0.51545 0.15696 0.3088 0.0
O13 O 0.48068 0.08174 0.2765 0.0
C14 C 0.24511 0.46875 0.6101 0.0
O15 O 0.23518 0.46615 0.64092 0.0
Cd16 Cd 0.26776 0.48626 0.69212 0.0
O17 O 0.27257 0.47958 0.60567 0.0
Cd18 Cd 0.3172 0.49832 0.64311 0.0
C19 C 0.31158 0.55688 0.66374 0.0
O20 O 0.30795 0.47787 0.70436 0.0
O21 O 0.34699 0.52011 0.69346 0.0
O22 O 0.32962 0.46353 0.6182 0.0
C23 C 0.33221 0.49979 0.71533 0.0
O24 O 0.29282 0.53917 0.68565 0.0
C25 C 0.35393 0.48288 0.60513 0.0
O26 O 0.32257 0.54771 0.64064 0.0
O27 O 0.36084 0.50983 0.60854 0.0
C28 C 0.74239 0.26498 0.94594 0.0
O29 O 0.73972 0.25509 0.97688 0.0
Cd30 Cd 0.74757 0.28782 0.0262 0.0
O31 O 0.75364 0.29267 0.94113 0.0
Cd32 Cd 0.77697 0.33855 0.97734 0.0
C33 C 0.70851 0.3197 0.99616 0.0
O34 O 0.79217 0.33394 0.03839 0.0
O35 O 0.78078 0.36766 0.02669 0.0
O36 O 0.82446 0.35396 0.95214 0.0
C37 C 0.79043 0.35634 0.04863 0.0
O38 O 0.71106 0.30182 0.01651 0.0
C39 C 0.82811 0.37785 0.93888 0.0
O40 O 0.72922 0.33643 0.9754 0.0
O41 O 0.80708 0.3831 0.94208 0.0
C42 C 0.42697 0.76106 0.28264 0.0
O43 O 0.42802 0.75382 0.31415 0.0
Cd44 Cd 0.40737 0.76735 0.36319 0.0
O45 O 0.4169 0.77814 0.27591 0.0
Cd46 Cd 0.39657 0.8041 0.31038 0.0
C47 C 0.33801 0.73974 0.3311 0.0
O48 O 0.41539 0.81641 0.37233 0.0
O49 O 0.37299 0.81137 0.35906 0.0
O50 O 0.42964 0.85257 0.28585 0.0
C51 C 0.39296 0.81805 0.38184 0.0
O52 O 0.35494 0.73918 0.35466 0.0
C53 C 0.40959 0.85572 0.27138 0.0
O54 O 0.34783 0.75949 0.30725 0.0
O55 O 0.38342 0.83406 0.27351 0.0
C56 C 0.6053 0.44356 0.59271 0.0
O57 O 0.60417 0.46335 0.61065 0.0
Cd58 Cd 0.55973 0.42482 0.64164 0.0
O59 O 0.58436 0.4172 0.5962 0.0
Cd60 Cd 0.54043 0.40931 0.63499 0.0
C61 C 0.55024 0.35953 0.64413 0.0
O62 O 0.54908 0.42953 0.69934 0.0
O63 O 0.51309 0.38566 0.68758 0.0
O64 O 0.52927 0.44604 0.61068 0.0
C65 C 0.52674 0.40581 0.71025 0.0
O66 O 0.57049 0.38488 0.65382 0.0
C67 C 0.50444 0.42703 0.59805 0.0
O68 O 0.52778 0.35775 0.62932 0.0
O69 O 0.49713 0.39997 0.60112 0.0
C70 C 0.12113 0.64633 0.93485 0.0
O71 O 0.12342 0.65743 0.96503 0.0
Cd72 Cd 0.11852 0.62593 0.01461 0.0
O73 O 0.11057 0.61856 0.93193 0.0
Cd74 Cd 0.08732 0.57449 0.97122 0.0
C75 C 0.15635 0.59365 0.98322 0.0
O76 O 0.07557 0.58051 0.03348 0.0
O77 O 0.08737 0.54728 0.02084 0.0
O78 O 0.03859 0.55911 0.9491 0.0
C79 C 0.07835 0.55859 0.04341 0.0
O80 O 0.15536 0.61286 0.00267 0.0
C81 C 0.03386 0.5347 0.93623 0.0
O82 O 0.13398 0.57524 0.96542 0.0
O83 O 0.05472 0.52908 0.93837 0.0
C84 C 0.738 0.45163 0.40147 0.0
O85 O 0.73358 0.45812 0.37085 0.0
Cd86 Cd 0.74443 0.43629 0.3203 0.0
O87 O 0.75223 0.43809 0.40528 0.0
Cd88 Cd 0.77889 0.42074 0.36799 0.0
C89 C 0.71343 0.36465 0.34718 0.0
O90 O 0.79172 0.44174 0.30711 0.0
O91 O 0.78454 0.39775 0.31775 0.0
O92 O 0.8265 0.45373 0.39416 0.0
C93 C 0.79229 0.41885 0.29626 0.0
O94 O 0.71326 0.38331 0.32587 0.0
C95 C 0.83043 0.43335 0.40631 0.0
O96 O 0.73396 0.37247 0.36982 0.0
O97 O 0.80956 0.40685 0.40213 0.0
C98 C 0.24064 0.76311 0.72938 0.0
O99 O 0.23206 0.75539 0.69801 0.0
Cd100 Cd 0.26587 0.76863 0.64864 0.0
O101 O 0.26782 0.78044 0.73573 0.0
Cd102 Cd 0.31378 0.80628 0.70085 0.0
C103 C 0.30849 0.74198 0.68053 0.0
O104 O 0.30663 0.8177 0.6388 0.0
O105 O 0.34441 0.81335 0.65207 0.0
O106 O 0.32891 0.85503 0.72453 0.0
C107 C 0.33076 0.81949 0.62922 0.0
O108 O 0.29066 0.741 0.65718 0.0
C109 C 0.35215 0.85852 0.73926 0.0
O110 O 0.3185 0.76196 0.70421 0.0
O111 O 0.35684 0.83695 0.73761 0.0
C112 C 0.43198 0.26439 0.07136 0.0
O113 O 0.42441 0.253 0.04106 0.0
Cd114 Cd 0.45073 0.28403 0.99137 0.0
O115 O 0.44813 0.29233 0.07438 0.0
Cd116 Cd 0.46876 0.33655 0.03522 0.0
C117 C 0.5206 0.31956 0.02561 0.0
O118 O 0.45027 0.32807 0.97308 0.0
O119 O 0.49455 0.36372 0.98482 0.0
O120 O 0.43424 0.35063 0.05603 0.0
C121 C 0.4741 0.35056 0.96244 0.0
O122 O 0.50106 0.29969 0.00594 0.0
C123 C 0.45331 0.37534 0.06901 0.0
O124 O 0.51558 0.33758 0.04247 0.0
O125 O 0.48008 0.38182 0.06749 0.0
C126 C 0.12928 0.46587 0.39902 0.0
O127 O 0.13683 0.46343 0.36824 0.0
Cd128 Cd 0.12415 0.48309 0.31685 0.0
O129 O 0.11232 0.47631 0.40337 0.0
Cd130 Cd 0.08644 0.4948 0.36562 0.0
C131 C 0.15069 0.55352 0.34566 0.0
O132 O 0.07568 0.47485 0.304 0.0
O133 O 0.07915 0.51715 0.31546 0.0
O134 O 0.03852 0.46067 0.38977 0.0
C135 C 0.07359 0.49697 0.2933 0.0
O136 O 0.1519 0.53599 0.32354 0.0
C137 C 0.03436 0.48051 0.40308 0.0
O138 O 0.13043 0.54415 0.36861 0.0
O139 O 0.05511 0.50719 0.40019 0.0
C140 C 0.62705 0.14929 0.73747 0.0
O141 O 0.63706 0.15357 0.70655 0.0
Cd142 Cd 0.60457 0.14837 0.65826 0.0
O143 O 0.59947 0.1374 0.74209 0.0
Cd144 Cd 0.5541 0.11529 0.70493 0.0
C145 C 0.57208 0.18487 0.69336 0.0
O146 O 0.5597 0.10332 0.64268 0.0
O147 O 0.52636 0.11463 0.65518 0.0
O148 O 0.53602 0.06582 0.72765 0.0
C149 C 0.53762 0.10555 0.63268 0.0
O150 O 0.59053 0.18453 0.67227 0.0
C151 C 0.5127 0.06313 0.74086 0.0
O152 O 0.55523 0.16222 0.71164 0.0
O153 O 0.5091 0.08538 0.73865 0.0
C154 C 0.43094 0.64618 0.0753 0.0
O155 O 0.43978 0.6572 0.04514 0.0
Cd156 Cd 0.41469 0.62618 0.99451 0.0
O157 O 0.41382 0.6184 0.07822 0.0
Cd158 Cd 0.39297 0.57449 0.03841 0.0
C159 C 0.34363 0.59398 0.02237 0.0
O160 O 0.412 0.58045 0.9768 0.0
O161 O 0.3665 0.54776 0.98809 0.0
O162 O 0.42466 0.55692 0.05997 0.0
C163 C 0.38733 0.55883 0.96619 0.0
O164 O 0.3644 0.61296 0.00343 0.0
C165 C 0.40436 0.53302 0.07305 0.0
O166 O 0.34716 0.57591 0.04139 0.0
O167 O 0.37836 0.52886 0.07161 0.0
H168 H 0.44155 0.09936 0.44436 0.0
H169 H 0.55966 0.09299 0.57356 0.0
H170 H 0.51299 0.08796 0.40918 0.0
H171 H 0.48846 0.10485 0.60867 0.0
H172 H 0.54062 0.08709 0.51337 0.0
H173 H 0.45579 0.09713 0.50523 0.0
C174 C 0.45993 0.096 0.4494 0.0
C175 C 0.47617 0.09405 0.42159 0.0
C176 C 0.52908 0.0908 0.53434 0.0
C177 C 0.49284 0.09176 0.49108 0.0
C178 C 0.53995 0.09411 0.5687 0.0
C179 C 0.52582 0.09962 0.59624 0.0
C180 C 0.5039 0.093 0.52749 0.0
C181 C 0.50029 0.10086 0.58832 0.0
C182 C 0.46819 0.09487 0.48414 0.0
C183 C 0.49993 0.08983 0.42974 0.0
N184 N 0.49029 0.09775 0.55481 0.0
N185 N 0.50762 0.08902 0.46358 0.0
H186 H 0.38628 0.53971 0.74073 0.0
H187 H 0.33871 0.50957 0.94166 0.0
H188 H 0.30112 0.47041 0.77473 0.0
H189 H 0.42243 0.58132 0.90737 0.0
H190 H 0.32663 0.49212 0.88149 0.0
H191 H 0.40159 0.55187 0.80164 0.0
C192 C 0.3708 0.52679 0.76105 0.0
C193 C 0.3422 0.50407 0.75247 0.0
C194 C 0.34773 0.51157 0.88702 0.0
C195 C 0.35976 0.51821 0.82278 0.0
C196 C 0.35473 0.52164 0.92148 0.0
C197 C 0.38165 0.54718 0.92971 0.0
C198 C 0.36767 0.5271 0.86018 0.0
C199 C 0.40145 0.56161 0.90233 0.0
C200 C 0.37963 0.53385 0.79592 0.0
C201 C 0.32333 0.48806 0.78004 0.0
N202 N 0.39398 0.55148 0.86876 0.0
N203 N 0.33237 0.49561 0.81395 0.0
H204 H 0.79567 0.45092 0.23692 0.0
H205 H 0.80154 0.33271 0.10771 0.0
H206 H 0.80338 0.37663 0.27204 0.0
H207 H 0.79422 0.40718 0.07238 0.0
H208 H 0.80723 0.35123 0.16804 0.0
H209 H 0.80022 0.43829 0.17615 0.0
C210 C 0.79874 0.43227 0.23192 0.0
C211 C 0.79886 0.41469 0.25961 0.0
C212 C 0.80462 0.36364 0.14699 0.0
C213 C 0.80381 0.39988 0.19029 0.0
C214 C 0.80147 0.35308 0.11255 0.0
C215 C 0.79713 0.36821 0.08495 0.0
C216 C 0.80342 0.3895 0.15383 0.0
C217 C 0.79721 0.39455 0.09282 0.0
C218 C 0.8012 0.42494 0.19724 0.0
C219 C 0.80282 0.39067 0.25154 0.0
N220 N 0.80006 0.40419 0.12641 0.0
N221 N 0.8049 0.38387 0.21775 0.0
H222 H 0.42475 0.82313 0.44213 0.0
H223 H 0.3033 0.82321 0.56887 0.0
H224 H 0.34851 0.82579 0.40503 0.0
H225 H 0.38306 0.82765 0.60589 0.0
H226 H 0.32078 0.827 0.50846 0.0
H227 H 0.41136 0.82764 0.50245 0.0
C228 C 0.40544 0.82499 0.4466 0.0
C229 C 0.38768 0.82387 0.41843 0.0
C230 C 0.33454 0.82739 0.52989 0.0
C231 C 0.372 0.82875 0.48732 0.0
C232 C 0.32456 0.82532 0.56436 0.0
C233 C 0.34158 0.82491 0.59253 0.0
C234 C 0.36167 0.82897 0.52357 0.0
C235 C 0.369 0.82762 0.58505 0.0
C236 C 0.39771 0.82747 0.48103 0.0
C237 C 0.3628 0.8263 0.42586 0.0
N238 N 0.37805 0.82932 0.55144 0.0
N239 N 0.35562 0.8284 0.45944 0.0
H240 H 0.52015 0.40139 0.93703 0.0
H241 H 0.4763 0.35968 0.73587 0.0
H242 H 0.44047 0.32334 0.90338 0.0
H243 H 0.55492 0.43889 0.76939 0.0
H244 H 0.46152 0.34778 0.79675 0.0
H245 H 0.53157 0.41688 0.87623 0.0
C246 C 0.50488 0.38752 0.91684 0.0
C247 C 0.47931 0.36084 0.92545 0.0
C248 C 0.48191 0.36786 0.79092 0.0
C249 C 0.49253 0.37862 0.85526 0.0
C250 C 0.49046 0.37475 0.75605 0.0
C251 C 0.51707 0.40033 0.74738 0.0
C252 C 0.50011 0.38655 0.81767 0.0
C253 C 0.53428 0.41897 0.77479 0.0
C254 C 0.51149 0.39647 0.88203 0.0
C255 C 0.46039 0.34402 0.89804 0.0
N256 N 0.5256 0.4116 0.80871 0.0
N257 N 0.4675 0.35309 0.86418 0.0
H258 H 0.05944 0.537 0.26859 0.0
H259 H 0.0784 0.50946 0.06703 0.0
H260 H 0.07601 0.46841 0.23332 0.0
H261 H 0.06571 0.58046 0.10286 0.0
H262 H 0.07304 0.49147 0.12688 0.0
H263 H 0.05681 0.54992 0.20793 0.0
C264 C 0.06226 0.52439 0.24804 0.0
C265 C 0.06817 0.50164 0.2562 0.0
C266 C 0.07124 0.51087 0.12176 0.0
C267 C 0.06537 0.51667 0.18616 0.0
C268 C 0.0743 0.52126 0.08747 0.0
C269 C 0.07269 0.54674 0.07976 0.0
C270 C 0.06656 0.526 0.14893 0.0
C271 C 0.06717 0.56082 0.10749 0.0
C272 C 0.06079 0.53189 0.21331 0.0
C273 C 0.07139 0.48606 0.22833 0.0
N274 N 0.06448 0.55036 0.14085 0.0
N275 N 0.0702 0.49404 0.19456 0.0
H276 H 0.69281 0.32208 0.39831 0.0
H277 H 0.56345 0.2013 0.27713 0.0
H278 H 0.6803 0.33676 0.28984 0.0
H279 H 0.5577 0.20535 0.38951 0.0
H280 H 0.6137 0.24402 0.28004 0.0
H281 H 0.65012 0.27188 0.39369 0.0
C282 C 0.68129 0.31461 0.37349 0.0
C283 C 0.68963 0.33365 0.34462 0.0
C284 C 0.60146 0.23521 0.30403 0.0
C285 C 0.64146 0.27659 0.33903 0.0
C286 C 0.57295 0.2109 0.30237 0.0
C287 C 0.55641 0.2003 0.33304 0.0
C288 C 0.6134 0.24843 0.33661 0.0
C289 C 0.56962 0.21333 0.36518 0.0
C290 C 0.65702 0.28608 0.37087 0.0
C291 C 0.67416 0.32291 0.31294 0.0
N292 N 0.59732 0.23684 0.36613 0.0
N293 N 0.6507 0.29511 0.31102 0.0
H294 H 0.32649 0.71983 0.7344 0.0
H295 H 0.33069 0.59825 0.61117 0.0
H296 H 0.31187 0.71406 0.62261 0.0
H297 H 0.31265 0.58688 0.722 0.0
H298 H 0.33873 0.64867 0.61571 0.0
H299 H 0.33622 0.67862 0.73052 0.0
C300 C 0.32575 0.71016 0.70907 0.0
C301 C 0.31776 0.71978 0.67891 0.0
C302 C 0.33342 0.63519 0.63906 0.0
C303 C 0.32912 0.67333 0.67421 0.0
C304 C 0.32891 0.60655 0.63647 0.0
C305 C 0.3204 0.58833 0.66609 0.0
C306 C 0.32975 0.64555 0.67154 0.0
C307 C 0.31854 0.60009 0.69837 0.0
C308 C 0.33125 0.68673 0.70685 0.0
C309 C 0.3173 0.70676 0.64661 0.0
N310 N 0.32294 0.6279 0.70021 0.0
N311 N 0.32269 0.68405 0.64513 0.0
H312 H 0.52992 0.27367 0.03032 0.0
H313 H 0.69962 0.36617 0.98031 0.0
H314 H 0.57575 0.36886 0.02332 0.0
H315 H 0.65556 0.27622 0.0182 0.0
H316 H 0.65443 0.36801 0.99112 0.0
H317 H 0.57622 0.27466 0.02295 0.0
C318 C 0.54997 0.29486 0.02777 0.0
C319 C 0.54921 0.32121 0.02756 0.0
C320 C 0.65483 0.34796 0.997 0.0
C321 C 0.60231 0.3226 0.01813 0.0
C322 C 0.6804 0.34678 0.99047 0.0
C323 C 0.68125 0.32101 0.99838 0.0
C324 C 0.63012 0.32306 0.01106 0.0
C325 C 0.65593 0.2966 0.01187 0.0
C326 C 0.5764 0.29545 0.02341 0.0
C327 C 0.57567 0.34812 0.024 0.0
N328 N 0.63149 0.29825 0.01772 0.0
N329 N 0.60129 0.34815 0.01895 0.0
H330 H 0.29795 0.71753 0.27708 0.0
H331 H 0.17255 0.59452 0.39879 0.0
H332 H 0.30679 0.7112 0.38876 0.0
H333 H 0.17971 0.58397 0.28782 0.0
H334 H 0.21468 0.64513 0.39493 0.0
H335 H 0.2472 0.67597 0.28052 0.0
C336 C 0.28906 0.70766 0.3023 0.0
C337 C 0.30663 0.71724 0.33254 0.0
C338 C 0.20667 0.63178 0.3714 0.0
C339 C 0.24901 0.67037 0.33674 0.0
C340 C 0.18269 0.60304 0.3736 0.0
C341 C 0.1732 0.58501 0.34374 0.0
C342 C 0.22075 0.64242 0.33906 0.0
C343 C 0.18688 0.59703 0.31162 0.0
C344 C 0.26023 0.68403 0.30427 0.0
C345 C 0.29411 0.70395 0.36469 0.0
N346 N 0.21013 0.62494 0.31016 0.0
N347 N 0.2661 0.68103 0.36592 0.0
H348 H 0.50643 0.30123 0.64397 0.0
H349 H 0.61546 0.24161 0.68487 0.0
H350 H 0.59939 0.35831 0.663 0.0
H351 H 0.522 0.1879 0.70133 0.0
H352 H 0.60969 0.28444 0.6749 0.0
H353 H 0.51116 0.25857 0.66136 0.0
C354 C 0.52782 0.30472 0.65153 0.0
C355 C 0.55258 0.33324 0.65193 0.0
C356 C 0.59045 0.26341 0.68115 0.0
C357 C 0.55805 0.28494 0.67201 0.0
C358 C 0.59376 0.23902 0.68692 0.0
C359 C 0.56915 0.21133 0.69388 0.0
C360 C 0.56223 0.25996 0.68163 0.0
C361 C 0.54151 0.20903 0.69626 0.0
C362 C 0.53043 0.28049 0.66178 0.0
C363 C 0.57973 0.33668 0.6623 0.0
N364 N 0.53868 0.23303 0.68959 0.0
N365 N 0.58175 0.3128 0.67178 0.0
H366 H 0.21131 0.64041 0.98611 0.0
H367 H 0.28806 0.54591 0.03103 0.0
H368 H 0.16337 0.54502 0.98236 0.0
H369 H 0.33464 0.63922 0.00715 0.0
H370 H 0.24135 0.54441 0.01838 0.0
H371 H 0.25647 0.63971 0.99687 0.0
C372 C 0.21046 0.61928 0.98705 0.0
C373 C 0.18375 0.59275 0.98329 0.0
C374 C 0.26187 0.56515 0.01607 0.0
C375 C 0.23527 0.59164 0.99646 0.0
C376 C 0.28839 0.56608 0.02369 0.0
C377 C 0.31512 0.59272 0.02008 0.0
C378 C 0.26238 0.59111 0.00523 0.0
C379 C 0.31451 0.61819 0.01008 0.0
C380 C 0.23622 0.61885 0.99335 0.0
C381 C 0.18372 0.56594 0.98479 0.0
N382 N 0.28861 0.61672 0.003 0.0
N383 N 0.20918 0.56601 0.99171 0.0
H384 H 0.49382 0.04347 0.25267 0.0
H385 H 0.37046 0.8726 0.24984 0.0
H386 H 0.40079 0.0109 0.26208 0.0
H387 H 0.46342 0.90493 0.26094 0.0
H388 H 0.38142 0.92312 0.23813 0.0
H389 H 0.48295 -0.00683 0.23961 0.0
C390 C 0.47108 0.02586 0.25129 0.0
C391 C 0.44819 0.03128 0.25909 0.0
C392 C 0.39944 0.91908 0.24253 0.0
C393 C 0.43564 -0.0263 0.24442 0.0
C394 C 0.39321 0.89021 0.24907 0.0
C395 C 0.41604 0.88464 0.257 0.0
C396 C 0.42869 0.94248 0.24392 0.0
C397 C 0.4451 0.9083 0.25547 0.0
C398 C 0.4649 -0.00288 0.24396 0.0
C399 C 0.41914 0.00764 0.25673 0.0
N400 N 0.45058 0.93625 0.24958 0.0
N401 N 0.41371 -0.02019 0.25007 0.0
H402 H 0.34311 0.42725 0.59046 0.0
H403 H 0.451 0.39195 0.56651 0.0
H404 H 0.41168 0.51891 0.587 0.0
H405 H 0.50998 0.48191 0.59942 0.0
H406 H 0.41313 0.40469 0.55505 0.0
H407 H 0.37899 0.41265 0.57716 0.0
C408 C 0.36569 0.44436 0.58601 0.0
C409 C 0.37446 0.47433 0.59026 0.0
C410 C 0.43421 0.42168 0.565 0.0
C411 C 0.41608 0.45782 0.57444 0.0
C412 C 0.45603 0.41446 0.5711 0.0
C413 C 0.48345 0.43572 0.58472 0.0
C414 C 0.4397 0.45024 0.57327 0.0
C415 C 0.48897 0.46468 0.58945 0.0
C416 C 0.38631 0.43601 0.57807 0.0
C417 C 0.40399 0.49553 0.58415 0.0
N418 N 0.46713 0.47097 0.58427 0.0
N419 N 0.42383 0.48684 0.57718 0.0
H420 H 0.87415 0.36996 0.92265 0.0
H421 H -0.01285 0.54271 0.924 0.0
H422 H 0.8481 0.43611 0.9231 0.0
H423 H 0.01301 0.47651 0.9192 0.0
H424 H -0.06371 0.50436 0.91294 0.0
H425 H 0.92457 0.40849 0.91048 0.0
C426 C 0.87895 0.39255 0.91956 0.0
C427 C 0.85698 0.39991 0.92445 0.0
C428 C -0.04689 0.49824 0.91374 0.0
C429 C 0.91483 0.44426 0.91102 0.0
C430 C -0.0178 0.52015 0.92004 0.0
C431 C 0.0043 0.51271 0.92308 0.0
C432 C -0.05403 0.46858 0.91082 0.0
C433 C -0.00336 0.48319 0.91738 0.0
C434 C 0.90779 0.41458 0.91265 0.0
C435 C 0.8644 0.42948 0.91981 0.0
N436 N -0.03197 0.46212 0.91208 0.0
N437 N 0.89282 0.45066 0.91395 0.0
H438 H -0.01281 0.42553 0.41538 0.0
H439 H 0.87765 0.48765 0.42176 0.0
H440 H 0.0154 0.51842 0.42291 0.0
H441 H 0.84944 0.39457 0.42198 0.0
H442 H 0.92799 0.49908 0.43299 0.0
H443 H -0.06297 0.41353 0.4284 0.0
C444 C -0.01708 0.44341 0.42037 0.0
C445 C 0.00542 0.47304 0.41747 0.0
C446 C 0.91075 0.47612 0.4312 0.0
C447 C -0.05206 0.45946 0.43194 0.0
C448 C 0.88196 0.46958 0.42483 0.0
C449 C 0.8594 0.44012 0.42033 0.0
C450 C 0.91709 0.45307 0.43266 0.0
C451 C 0.86621 0.41761 0.4249 0.0
C452 C -0.04575 0.43654 0.42779 0.0
C453 C -0.00132 0.49528 0.42453 0.0
N454 N 0.89454 0.42457 0.4302 0.0
N455 N -0.02955 0.48804 0.43085 0.0
H456 H 0.45601 0.0467 0.75805 0.0
H457 H 0.40769 0.87556 0.76289 0.0
H458 H 0.51637 0.01368 0.75378 0.0
H459 H 0.34753 0.90798 0.74749 0.0
H460 H 0.44703 0.92612 0.77506 0.0
H461 H 0.41587 -0.00361 0.7695 0.0
C462 C 0.46093 0.02898 0.76022 0.0
C463 C 0.48948 0.03429 0.75438 0.0
C464 C 0.4251 0.9221 0.76958 0.0
C465 C 0.44369 -0.02327 0.76724 0.0
C466 C 0.4026 0.89321 0.76276 0.0
C467 C 0.3744 0.88762 0.75357 0.0
C468 C 0.41936 0.94553 0.76715 0.0
C469 C 0.36905 0.91135 0.75399 0.0
C470 C 0.43799 0.00025 0.76662 0.0
C471 C 0.4946 0.01052 0.75762 0.0
N472 N 0.39141 0.93932 0.76016 0.0
N473 N 0.47188 -0.01727 0.76341 0.0
H474 H 0.36543 0.47754 0.09793 0.0
H475 H 0.39781 0.36583 0.07791 0.0
H476 H 0.45747 0.53566 0.07613 0.0
H477 H 0.48907 0.4333 0.08863 0.0
H478 H 0.38373 0.40262 0.08904 0.0
H479 H 0.37528 0.43733 0.10853 0.0
C480 C 0.38776 0.48188 0.0956 0.0
C481 C 0.41053 0.50985 0.0854 0.0
C482 C 0.40682 0.4095 0.09009 0.0
C483 C 0.42192 0.46356 0.09603 0.0
C484 C 0.41491 0.38836 0.08343 0.0
C485 C 0.44469 0.39654 0.08196 0.0
C486 C 0.42871 0.43921 0.09531 0.0
C487 C 0.46585 0.42603 0.08933 0.0
C488 C 0.39337 0.45874 0.1012 0.0
C489 C 0.43912 0.51433 0.08337 0.0
N490 N 0.45746 0.44637 0.09514 0.0
N491 N 0.4439 0.49136 0.08816 0.0
H492 H 0.42689 0.20111 0.28325 0.0
H493 H 0.41143 0.20457 0.07424 0.0
H494 H 0.42743 0.13625 0.21397 0.0
H495 H 0.43762 0.28063 0.14065 0.0
H496 H 0.40708 0.17516 0.12626 0.0
H497 H 0.42071 0.22611 0.23235 0.0
C498 C 0.42524 0.19181 0.25743 0.0
C499 C 0.42788 0.16657 0.25299 0.0
C500 C 0.41348 0.19821 0.12946 0.0
C501 C 0.42083 0.19523 0.19447 0.0
C502 C 0.41579 0.21501 0.09976 0.0
C503 C 0.42508 0.24525 0.10293 0.0
C504 C 0.42019 0.21159 0.16273 0.0
C505 C 0.43056 0.25748 0.13682 0.0
C506 C 0.42189 0.20623 0.22835 0.0
C507 C 0.42569 0.15571 0.21875 0.0
N508 N 0.42814 0.24068 0.1653 0.0
N509 N 0.42241 0.17013 0.19088 0.0
H510 H 0.11367 0.46277 0.46808 0.0
H511 H 0.25758 0.46558 0.54103 0.0
H512 H 0.17561 0.45541 0.40141 0.0
H513 H 0.18784 0.45688 0.60786 0.0
H514 H 0.22711 0.45997 0.48978 0.0
H515 H 0.13938 0.45865 0.51942 0.0
C516 C 0.13248 0.45995 0.46416 0.0
C517 C 0.14249 0.45957 0.4302 0.0
C518 C 0.21831 0.45898 0.51565 0.0
C519 C 0.17241 0.45522 0.48923 0.0
C520 C 0.23574 0.46219 0.54501 0.0
C521 C 0.2254 0.46185 0.57899 0.0
C522 C 0.19035 0.45574 0.52004 0.0
C523 C 0.19681 0.4573 0.58229 0.0
C524 C 0.14719 0.45762 0.49357 0.0
C525 C 0.16702 0.45582 0.42697 0.0
N526 N 0.18047 0.45475 0.55327 0.0
N527 N 0.18128 0.45412 0.45602 0.0
H528 H 0.70066 0.20585 0.94658 0.0
H529 H 0.68589 0.19082 0.73745 0.0
H530 H 0.75426 0.27727 0.87606 0.0
H531 H 0.61459 0.13666 0.80732 0.0
H532 H 0.717 0.2164 0.78829 0.0
H533 H 0.67496 0.17433 0.89593 0.0
C534 C 0.70742 0.21477 0.92048 0.0
C535 C 0.7296 0.24436 0.91564 0.0
C536 C 0.69465 0.19866 0.79247 0.0
C537 C 0.70025 0.20831 0.85755 0.0
C538 C 0.67691 0.18388 0.76346 0.0
C539 C 0.64745 0.1616 0.76802 0.0
C540 C 0.68307 0.19092 0.8264 0.0
C541 C 0.63707 0.15378 0.80247 0.0
C542 C 0.69259 0.1968 0.8916 0.0
C543 C 0.73721 0.25469 0.88111 0.0
N544 N 0.6548 0.16846 0.83029 0.0
N545 N 0.72255 0.23675 0.85345 0.0
H546 H 0.4527 0.70625 0.07706 0.0
H547 H 0.43484 0.71293 0.28496 0.0
H548 H 0.42336 0.63056 0.14483 0.0
H549 H 0.43539 0.77699 0.21315 0.0
H550 H 0.44078 0.68679 0.23531 0.0
H551 H 0.45663 0.73645 0.12811 0.0
C552 C 0.44756 0.69605 0.10271 0.0
C553 C 0.43754 0.6657 0.10652 0.0
C554 C 0.43989 0.70673 0.23048 0.0
C555 C 0.44197 0.70027 0.16518 0.0
C556 C 0.43667 0.72181 0.25885 0.0
C557 C 0.43444 0.7472 0.25333 0.0
C558 C 0.44125 0.71723 0.19623 0.0
C559 C 0.43682 0.75746 0.21875 0.0
C560 C 0.44963 0.7133 0.13183 0.0
C561 C 0.43104 0.65378 0.14052 0.0
N562 N 0.44001 0.74244 0.19158 0.0
N563 N 0.43329 0.67103 0.16843 0.0
H564 H 0.63684 0.49264 0.55076 0.0
H565 H 0.73431 0.43042 0.4678 0.0
H566 H 0.62817 0.40858 0.57796 0.0
H567 H 0.70887 0.48328 0.4062 0.0
H568 H 0.70572 0.43248 0.51661 0.0
H569 H 0.67292 0.49897 0.50543 0.0
C570 C 0.6429 0.47581 0.5476 0.0
C571 C 0.62949 0.45001 0.56805 0.0
C572 C 0.70664 0.4439 0.49253 0.0
C573 C 0.67072 0.45726 0.51692 0.0
C574 C 0.7231 0.44288 0.46461 0.0
C575 C 0.72388 0.45649 0.43254 0.0
C576 C 0.69102 0.45897 0.48883 0.0
C577 C 0.70878 0.47229 0.43028 0.0
C578 C 0.66325 0.47934 0.52165 0.0
C579 C 0.63787 0.42874 0.56267 0.0
N580 N 0.69287 0.47304 0.45801 0.0
N581 N 0.65797 0.43288 0.53782 0.0
H582 H 0.11161 0.63035 0.8655 0.0
H583 H 0.24886 0.78011 0.79854 0.0
H584 H 0.16024 0.70625 0.93268 0.0
H585 H 0.18483 0.71458 0.72816 0.0
H586 H 0.21664 0.75388 0.84787 0.0
H587 H 0.13767 0.66092 0.81488 0.0
C588 C 0.12749 0.65354 0.8696 0.0
C589 C 0.13373 0.66566 0.90353 0.0
C590 C 0.20946 0.74542 0.8216 0.0
C591 C 0.16417 0.70079 0.84551 0.0
C592 C 0.22788 0.7604 0.79336 0.0
C593 C 0.21967 0.74955 0.75902 0.0
C594 C 0.18275 0.71904 0.81569 0.0
C595 C 0.19214 0.72386 0.75408 0.0
C596 C 0.1424 0.67101 0.84063 0.0
C597 C 0.1546 0.69592 0.90708 0.0
N598 N 0.1749 0.70932 0.78207 0.0
N599 N 0.16932 0.7123 0.87856 0.0
loop_
_geom_bond_atom_site_label_1
_geom_bond_atom_site_label_2
_geom_bond_distance
_geom_bond_site_symmetry_2
_ccdc_geom_bond_type
C0 O1 1.306 . S
C0 O3 1.160 . S
O1 C0 1.306 . S
O1 Cd2 2.228 . S
Cd2 O1 2.228 . S
Cd2 O6 2.273 . S
Cd2 O10 2.277 . S
O3 C0 1.160 . S
O3 Cd4 2.203 . S
Cd4 O3 2.203 . S
Cd4 O6 2.411 . S
Cd4 O7 2.333 . S
Cd4 O8 2.352 . S
Cd4 O12 2.277 . S
Cd4 O13 2.356 . S
C5 O10 1.209 . S
C5 O12 1.226 . S
O6 Cd2 2.273 . S
O6 Cd4 2.411 . S
O6 C9 1.320 . S
O7 Cd4 2.333 . S
O7 C9 1.214 . S
O8 Cd4 2.352 . S
O8 C11 1.258 . S
C9 O6 1.320 . S
C9 O7 1.214 . S
O10 Cd2 2.277 . S
O10 C5 1.209 . S
C11 O8 1.258 . S
C11 O13 1.282 . S
O12 Cd4 2.277 . S
O12 C5 1.226 . S
O13 Cd4 2.356 . S
O13 C11 1.282 . S
C14 O15 1.306 . S
C14 O17 1.160 . S
O15 C14 1.306 . S
O15 Cd16 2.228 . S
Cd16 O15 2.228 . S
Cd16 O20 2.273 . S
Cd16 O24 2.277 . S
O17 C14 1.160 . S
O17 Cd18 2.203 . S
Cd18 O17 2.203 . S
Cd18 O20 2.411 . S
Cd18 O21 2.333 . S
Cd18 O22 2.352 . S
Cd18 O26 2.277 . S
Cd18 O27 2.356 . S
C19 O24 1.209 . S
C19 O26 1.226 . S
O20 Cd16 2.273 . S
O20 Cd18 2.411 . S
O20 C23 1.320 . S
O21 Cd18 2.333 . S
O21 C23 1.214 . S
O22 Cd18 2.352 . S
O22 C25 1.258 . S
C23 O20 1.320 . S
C23 O21 1.214 . S
O24 Cd16 2.277 . S
O24 C19 1.209 . S
C25 O22 1.258 . S
C25 O27 1.282 . S
O26 Cd18 2.277 . S
O26 C19 1.226 . S
O27 Cd18 2.356 . S
O27 C25 1.282 . S
C28 O29 1.306 . S
C28 O31 1.160 . S
O29 C28 1.306 . S
O29 Cd30 2.228 1_556 S
Cd30 O29 2.228 1_554 S
Cd30 O34 2.273 . S
Cd30 O38 2.277 . S
O31 C28 1.160 . S
O31 Cd32 2.203 . S
Cd32 O31 2.203 . S
Cd32 O34 2.411 1_556 S
Cd32 O35 2.333 1_556 S
Cd32 O36 2.352 . S
Cd32 O40 2.277 . S
Cd32 O41 2.356 . S
C33 O38 1.209 1_556 S
C33 O40 1.226 . S
O34 Cd30 2.273 . S
O34 Cd32 2.411 1_554 S
O34 C37 1.320 . S
O35 Cd32 2.333 1_554 S
O35 C37 1.214 . S
O36 Cd32 2.352 . S
O36 C39 1.258 . S
C37 O34 1.320 . S
C37 O35 1.214 . S
O38 Cd30 2.277 . S
O38 C33 1.209 1_554 S
C39 O36 1.258 . S
C39 O41 1.282 . S
O40 Cd32 2.277 . S
O40 C33 1.226 . S
O41 Cd32 2.356 . S
O41 C39 1.282 . S
C42 O43 1.306 . S
C42 O45 1.160 . S
O43 C42 1.306 . S
O43 Cd44 2.228 . S
Cd44 O43 2.228 . S
Cd44 O48 2.273 . S
Cd44 O52 2.277 . S
O45 C42 1.160 . S
O45 Cd46 2.203 . S
Cd46 O45 2.203 . S
Cd46 O48 2.411 . S
Cd46 O49 2.333 . S
Cd46 O50 2.352 . S
Cd46 O54 2.277 . S
Cd46 O55 2.356 . S
C47 O52 1.209 . S
C47 O54 1.226 . S
O48 Cd44 2.273 . S
O48 Cd46 2.411 . S
O48 C51 1.320 . S
O49 Cd46 2.333 . S
O49 C51 1.214 . S
O50 Cd46 2.352 . S
O50 C53 1.258 . S
C51 O48 1.320 . S
C51 O49 1.214 . S
O52 Cd44 2.277 . S
O52 C47 1.209 . S
C53 O50 1.258 . S
C53 O55 1.282 . S
O54 Cd46 2.277 . S
O54 C47 1.226 . S
O55 Cd46 2.356 . S
O55 C53 1.282 . S
C56 O57 1.306 . S
C56 O59 1.160 . S
O57 C56 1.306 . S
O57 Cd58 2.228 . S
Cd58 O57 2.228 . S
Cd58 O62 2.273 . S
Cd58 O66 2.277 . S
O59 C56 1.160 . S
O59 Cd60 2.203 . S
Cd60 O59 2.203 . S
Cd60 O62 2.411 . S
Cd60 O63 2.333 . S
Cd60 O64 2.352 . S
Cd60 O68 2.277 . S
Cd60 O69 2.356 . S
C61 O66 1.209 . S
C61 O68 1.226 . S
O62 Cd58 2.273 . S
O62 Cd60 2.411 . S
O62 C65 1.320 . S
O63 Cd60 2.333 . S
O63 C65 1.214 . S
O64 Cd60 2.352 . S
O64 C67 1.258 . S
C65 O62 1.320 . S
C65 O63 1.214 . S
O66 Cd58 2.277 . S
O66 C61 1.209 . S
C67 O64 1.258 . S
C67 O69 1.282 . S
O68 Cd60 2.277 . S
O68 C61 1.226 . S
O69 Cd60 2.356 . S
O69 C67 1.282 . S
C70 O71 1.306 . S
C70 O73 1.160 . S
O71 C70 1.306 . S
O71 Cd72 2.228 1_556 S
Cd72 O71 2.228 1_554 S
Cd72 O76 2.273 . S
Cd72 O80 2.277 . S
O73 C70 1.160 . S
O73 Cd74 2.203 . S
Cd74 O73 2.203 . S
Cd74 O76 2.411 1_556 S
Cd74 O77 2.333 1_556 S
Cd74 O78 2.352 . S
Cd74 O82 2.277 . S
Cd74 O83 2.356 . S
C75 O80 1.209 1_556 S
C75 O82 1.226 . S
O76 Cd72 2.273 . S
O76 Cd74 2.411 1_554 S
O76 C79 1.320 . S
O77 Cd74 2.333 1_554 S
O77 C79 1.214 . S
O78 Cd74 2.352 . S
O78 C81 1.258 . S
C79 O76 1.320 . S
C79 O77 1.214 . S
O80 Cd72 2.277 . S
O80 C75 1.209 1_554 S
C81 O78 1.258 . S
C81 O83 1.282 . S
O82 Cd74 2.277 . S
O82 C75 1.226 . S
O83 Cd74 2.356 . S
O83 C81 1.282 . S
C84 O85 1.306 . S
C84 O87 1.160 . S
O85 C84 1.306 . S
O85 Cd86 2.228 . S
Cd86 O85 2.228 . S
Cd86 O90 2.273 . S
Cd86 O94 2.277 . S
O87 C84 1.160 . S
O87 Cd88 2.203 . S
Cd88 O87 2.203 . S
Cd88 O90 2.411 . S
Cd88 O91 2.333 . S
Cd88 O92 2.352 . S
Cd88 O96 2.277 . S
Cd88 O97 2.356 . S
C89 O94 1.209 . S
C89 O96 1.226 . S
O90 Cd86 2.273 . S
O90 Cd88 2.411 . S
O90 C93 1.320 . S
O91 Cd88 2.333 . S
O91 C93 1.214 . S
O92 Cd88 2.352 . S
O92 C95 1.258 . S
C93 O90 1.320 . S
C93 O91 1.214 . S
O94 Cd86 2.277 . S
O94 C89 1.209 . S
C95 O92 1.258 . S
C95 O97 1.282 . S
O96 Cd88 2.277 . S
O96 C89 1.226 . S
O97 Cd88 2.356 . S
O97 C95 1.282 . S
C98 O99 1.306 . S
C98 O101 1.160 . S
O99 C98 1.306 . S
O99 Cd100 2.228 . S
Cd100 O99 2.228 . S
Cd100 O104 2.273 . S
Cd100 O108 2.277 . S
O101 C98 1.160 . S
O101 Cd102 2.203 . S
Cd102 O101 2.203 . S
Cd102 O104 2.411 . S
Cd102 O105 2.333 . S
Cd102 O106 2.352 . S
Cd102 O110 2.277 . S
Cd102 O111 2.356 . S
C103 O108 1.209 . S
C103 O110 1.226 . S
O104 Cd100 2.273 . S
O104 Cd102 2.411 . S
O104 C107 1.320 . S
O105 Cd102 2.333 . S
O105 C107 1.214 . S
O106 Cd102 2.352 . S
O106 C109 1.258 . S
C107 O104 1.320 . S
C107 O105 1.214 . S
O108 Cd100 2.277 . S
O108 C103 1.209 . S
C109 O106 1.258 . S
C109 O111 1.282 . S
O110 Cd102 2.277 . S
O110 C103 1.226 . S
O111 Cd102 2.356 . S
O111 C109 1.282 . S
C112 O113 1.306 . S
C112 O115 1.160 . S
O113 C112 1.306 . S
O113 Cd114 2.228 1_554 S
Cd114 O113 2.228 1_556 S
Cd114 O118 2.273 . S
Cd114 O122 2.277 1_556 S
O115 C112 1.160 . S
O115 Cd116 2.203 . S
Cd116 O115 2.203 . S
Cd116 O118 2.411 1_554 S
Cd116 O119 2.333 1_554 S
Cd116 O120 2.352 . S
Cd116 O124 2.277 . S
Cd116 O125 2.356 . S
C117 O122 1.209 . S
C117 O124 1.226 . S
O118 Cd114 2.273 . S
O118 Cd116 2.411 1_556 S
O118 C121 1.320 . S
O119 Cd116 2.333 1_556 S
O119 C121 1.214 . S
O120 Cd116 2.352 . S
O120 C123 1.258 . S
C121 O118 1.320 . S
C121 O119 1.214 . S
O122 Cd114 2.277 1_554 S
O122 C117 1.209 . S
C123 O120 1.258 . S
C123 O125 1.282 . S
O124 Cd116 2.277 . S
O124 C117 1.226 . S
O125 Cd116 2.356 . S
O125 C123 1.282 . S
C126 O127 1.306 . S
C126 O129 1.160 . S
O127 C126 1.306 . S
O127 Cd128 2.228 . S
Cd128 O127 2.228 . S
Cd128 O132 2.273 . S
Cd128 O136 2.277 . S
O129 C126 1.160 . S
O129 Cd130 2.203 . S
Cd130 O129 2.203 . S
Cd130 O132 2.411 . S
Cd130 O133 2.333 . S
Cd130 O134 2.352 . S
Cd130 O138 2.277 . S
Cd130 O139 2.356 . S
C131 O136 1.209 . S
C131 O138 1.226 . S
O132 Cd128 2.273 . S
O132 Cd130 2.411 . S
O132 C135 1.320 . S
O133 Cd130 2.333 . S
O133 C135 1.214 . S
O134 Cd130 2.352 . S
O134 C137 1.258 . S
C135 O132 1.320 . S
C135 O133 1.214 . S
O136 Cd128 2.277 . S
O136 C131 1.209 . S
C137 O134 1.258 . S
C137 O139 1.282 . S
O138 Cd130 2.277 . S
O138 C131 1.226 . S
O139 Cd130 2.356 . S
O139 C137 1.282 . S
C140 O141 1.306 . S
C140 O143 1.160 . S
O141 C140 1.306 . S
O141 Cd142 2.228 . S
Cd142 O141 2.228 . S
Cd142 O146 2.273 . S
Cd142 O150 2.277 . S
O143 C140 1.160 . S
O143 Cd144 2.203 . S
Cd144 O143 2.203 . S
Cd144 O146 2.411 . S
Cd144 O147 2.333 . S
Cd144 O148 2.352 . S
Cd144 O152 2.277 . S
Cd144 O153 2.356 . S
C145 O150 1.209 . S
C145 O152 1.226 . S
O146 Cd142 2.273 . S
O146 Cd144 2.411 . S
O146 C149 1.320 . S
O147 Cd144 2.333 . S
O147 C149 1.214 . S
O148 Cd144 2.352 . S
O148 C151 1.258 . S
C149 O146 1.320 . S
C149 O147 1.214 . S
O150 Cd142 2.277 . S
O150 C145 1.209 . S
C151 O148 1.258 . S
C151 O153 1.282 . S
O152 Cd144 2.277 . S
O152 C145 1.226 . S
O153 Cd144 2.356 . S
O153 C151 1.282 . S
C154 O155 1.306 . S
C154 O157 1.160 . S
O155 C154 1.306 . S
O155 Cd156 2.228 1_554 S
Cd156 O155 2.228 1_556 S
Cd156 O160 2.273 . S
Cd156 O164 2.277 1_556 S
O157 C154 1.160 . S
O157 Cd158 2.203 . S
Cd158 O157 2.203 . S
Cd158 O160 2.411 1_554 S
Cd158 O161 2.333 1_554 S
Cd158 O162 2.352 . S
Cd158 O166 2.277 . S
Cd158 O167 2.356 . S
C159 O164 1.209 . S
C159 O166 1.226 . S
O160 Cd156 2.273 . S
O160 Cd158 2.411 1_556 S
O160 C163 1.320 . S
O161 Cd158 2.333 1_556 S
O161 C163 1.214 . S
O162 Cd158 2.352 . S
O162 C165 1.258 . S
C163 O160 1.320 . S
C163 O161 1.214 . S
O164 Cd156 2.277 1_554 S
O164 C159 1.209 . S
C165 O162 1.258 . S
C165 O167 1.282 . S
O166 Cd158 2.277 . S
O166 C159 1.226 . S
O167 Cd158 2.356 . S
O167 C165 1.282 . S
H168 C174 0.930 . S
H169 C178 0.930 . S
H170 C183 0.929 . S
H171 C181 0.929 . S
H172 C176 0.929 . S
H173 C182 0.929 . S
C174 H168 0.930 . S
C174 C175 1.367 . S
C174 C182 1.378 . S
C175 C174 1.367 . S
C175 C183 1.433 . S
C176 H172 0.929 . S
C176 C178 1.378 . S
C176 C180 1.350 . S
C177 C180 1.463 . S
C177 C182 1.350 . S
C177 N185 1.427 . S
C178 H169 0.930 . S
C178 C176 1.378 . S
C178 C179 1.367 . S
C179 C178 1.367 . S
C179 C181 1.433 . S
C180 C176 1.350 . S
C180 C177 1.463 . S
C180 N184 1.427 . S
C181 H171 0.929 . S
C181 C179 1.433 . S
C181 N184 1.384 . S
C182 H173 0.929 . S
C182 C174 1.378 . S
C182 C177 1.350 . S
C183 H170 0.929 . S
C183 C175 1.433 . S
C183 N185 1.384 . S
N184 C180 1.427 . S
N184 C181 1.384 . S
N185 C177 1.427 . S
N185 C183 1.384 . S
H186 C192 0.930 . S
H187 C196 0.930 . S
H188 C201 0.929 . S
H189 C199 0.929 . S
H190 C194 0.929 . S
H191 C200 0.929 . S
C192 H186 0.930 . S
C192 C193 1.367 . S
C192 C200 1.378 . S
C193 C192 1.367 . S
C193 C201 1.433 . S
C194 H190 0.929 . S
C194 C196 1.378 . S
C194 C198 1.350 . S
C195 C198 1.463 . S
C195 C200 1.350 . S
C195 N203 1.427 . S
C196 H187 0.930 . S
C196 C194 1.378 . S
C196 C197 1.367 . S
C197 C196 1.367 . S
C197 C199 1.433 . S
C198 C194 1.350 . S
C198 C195 1.463 . S
C198 N202 1.427 . S
C199 H189 0.929 . S
C199 C197 1.433 . S
C199 N202 1.384 . S
C200 H191 0.929 . S
C200 C192 1.378 . S
C200 C195 1.350 . S
C201 H188 0.929 . S
C201 C193 1.433 . S
C201 N203 1.384 . S
N202 C198 1.427 . S
N202 C199 1.384 . S
N203 C195 1.427 . S
N203 C201 1.384 . S
H204 C210 0.930 . S
H205 C214 0.930 . S
H206 C219 0.929 . S
H207 C217 0.929 . S
H208 C212 0.929 . S
H209 C218 0.929 . S
C210 H204 0.930 . S
C210 C211 1.367 . S
C210 C218 1.378 . S
C211 C210 1.367 . S
C211 C219 1.433 . S
C212 H208 0.929 . S
C212 C214 1.378 . S
C212 C216 1.350 . S
C213 C216 1.463 . S
C213 C218 1.350 . S
C213 N221 1.427 . S
C214 H205 0.930 . S
C214 C212 1.378 . S
C214 C215 1.367 . S
C215 C214 1.367 . S
C215 C217 1.433 . S
C216 C212 1.350 . S
C216 C213 1.463 . S
C216 N220 1.427 . S
C217 H207 0.929 . S
C217 C215 1.433 . S
C217 N220 1.384 . S
C218 H209 0.929 . S
C218 C210 1.378 . S
C218 C213 1.350 . S
C219 H206 0.929 . S
C219 C211 1.433 . S
C219 N221 1.384 . S
N220 C216 1.427 . S
N220 C217 1.384 . S
N221 C213 1.427 . S
N221 C219 1.384 . S
H222 C228 0.930 . S
H223 C232 0.930 . S
H224 C237 0.929 . S
H225 C235 0.929 . S
H226 C230 0.929 . S
H227 C236 0.929 . S
C228 H222 0.930 . S
C228 C229 1.367 . S
C228 C236 1.378 . S
C229 C228 1.367 . S
C229 C237 1.433 . S
C230 H226 0.929 . S
C230 C232 1.378 . S
C230 C234 1.350 . S
C231 C234 1.463 . S
C231 C236 1.350 . S
C231 N239 1.427 . S
C232 H223 0.930 . S
C232 C230 1.378 . S
C232 C233 1.367 . S
C233 C232 1.367 . S
C233 C235 1.433 . S
C234 C230 1.350 . S
C234 C231 1.463 . S
C234 N238 1.427 . S
C235 H225 0.929 . S
C235 C233 1.433 . S
C235 N238 1.384 . S
C236 H227 0.929 . S
C236 C228 1.378 . S
C236 C231 1.350 . S
C237 H224 0.929 . S
C237 C229 1.433 . S
C237 N239 1.384 . S
N238 C234 1.427 . S
N238 C235 1.384 . S
N239 C231 1.427 . S
N239 C237 1.384 . S
H240 C246 0.930 . S
H241 C250 0.930 . S
H242 C255 0.929 . S
H243 C253 0.929 . S
H244 C248 0.929 . S
H245 C254 0.929 . S
C246 H240 0.930 . S
C246 C247 1.367 . S
C246 C254 1.378 . S
C247 C246 1.367 . S
C247 C255 1.433 . S
C248 H244 0.929 . S
C248 C250 1.378 . S
C248 C252 1.350 . S
C249 C252 1.463 . S
C249 C254 1.350 . S
C249 N257 1.427 . S
C250 H241 0.930 . S
C250 C248 1.378 . S
C250 C251 1.367 . S
C251 C250 1.367 . S
C251 C253 1.433 . S
C252 C248 1.350 . S
C252 C249 1.463 . S
C252 N256 1.427 . S
C253 H243 0.929 . S
C253 C251 1.433 . S
C253 N256 1.384 . S
C254 H245 0.929 . S
C254 C246 1.378 . S
C254 C249 1.350 . S
C255 H242 0.929 . S
C255 C247 1.433 . S
C255 N257 1.384 . S
N256 C252 1.427 . S
N256 C253 1.384 . S
N257 C249 1.427 . S
N257 C255 1.384 . S
H258 C264 0.930 . S
H259 C268 0.930 . S
H260 C273 0.929 . S
H261 C271 0.929 . S
H262 C266 0.929 . S
H263 C272 0.929 . S
C264 H258 0.930 . S
C264 C265 1.367 . S
C264 C272 1.378 . S
C265 C264 1.367 . S
C265 C273 1.433 . S
C266 H262 0.929 . S
C266 C268 1.378 . S
C266 C270 1.350 . S
C267 C270 1.463 . S
C267 C272 1.350 . S
C267 N275 1.427 . S
C268 H259 0.930 . S
C268 C266 1.378 . S
C268 C269 1.367 . S
C269 C268 1.367 . S
C269 C271 1.433 . S
C270 C266 1.350 . S
C270 C267 1.463 . S
C270 N274 1.427 . S
C271 H261 0.929 . S
C271 C269 1.433 . S
C271 N274 1.384 . S
C272 H263 0.929 . S
C272 C264 1.378 . S
C272 C267 1.350 . S
C273 H260 0.929 . S
C273 C265 1.433 . S
C273 N275 1.384 . S
N274 C270 1.427 . S
N274 C271 1.384 . S
N275 C267 1.427 . S
N275 C273 1.384 . S
H276 C282 0.930 . S
H277 C286 0.930 . S
H278 C291 0.929 . S
H279 C289 0.929 . S
H280 C284 0.929 . S
H281 C290 0.929 . S
C282 H276 0.930 . S
C282 C283 1.367 . S
C282 C290 1.378 . S
C283 C282 1.367 . S
C283 C291 1.433 . S
C284 H280 0.929 . S
C284 C286 1.378 . S
C284 C288 1.350 . S
C285 C288 1.463 . S
C285 C290 1.350 . S
C285 N293 1.427 . S
C286 H277 0.930 . S
C286 C284 1.378 . S
C286 C287 1.367 . S
C287 C286 1.367 . S
C287 C289 1.433 . S
C288 C284 1.350 . S
C288 C285 1.463 . S
C288 N292 1.427 . S
C289 H279 0.929 . S
C289 C287 1.433 . S
C289 N292 1.384 . S
C290 H281 0.929 . S
C290 C282 1.378 . S
C290 C285 1.350 . S
C291 H278 0.929 . S
C291 C283 1.433 . S
C291 N293 1.384 . S
N292 C288 1.427 . S
N292 C289 1.384 . S
N293 C285 1.427 . S
N293 C291 1.384 . S
H294 C300 0.930 . S
H295 C304 0.930 . S
H296 C309 0.929 . S
H297 C307 0.929 . S
H298 C302 0.929 . S
H299 C308 0.929 . S
C300 H294 0.930 . S
C300 C301 1.367 . S
C300 C308 1.378 . S
C301 C300 1.367 . S
C301 C309 1.433 . S
C302 H298 0.929 . S
C302 C304 1.378 . S
C302 C306 1.350 . S
C303 C306 1.463 . S
C303 C308 1.350 . S
C303 N311 1.427 . S
C304 H295 0.930 . S
C304 C302 1.378 . S
C304 C305 1.367 . S
C305 C304 1.367 . S
C305 C307 1.433 . S
C306 C302 1.350 . S
C306 C303 1.463 . S
C306 N310 1.427 . S
C307 H297 0.929 . S
C307 C305 1.433 . S
C307 N310 1.384 . S
C308 H299 0.929 . S
C308 C300 1.378 . S
C308 C303 1.350 . S
C309 H296 0.929 . S
C309 C301 1.433 . S
C309 N311 1.384 . S
N310 C306 1.427 . S
N310 C307 1.384 . S
N311 C303 1.427 . S
N311 C309 1.384 . S
H312 C318 0.930 . S
H313 C322 0.930 . S
H314 C327 0.929 . S
H315 C325 0.926 1_554 S
H316 C320 0.929 . S
H317 C326 0.929 . S
C318 H312 0.930 . S
C318 C319 1.367 . S
C318 C326 1.378 . S
C319 C318 1.367 . S
C319 C327 1.433 . S
C320 H316 0.929 . S
C320 C322 1.378 . S
C320 C324 1.350 1_556 S
C321 C324 1.463 . S
C321 C326 1.350 . S
C321 N329 1.427 . S
C322 H313 0.930 . S
C322 C320 1.378 . S
C322 C323 1.367 . S
C323 C322 1.367 . S
C323 C325 1.433 . S
C324 C320 1.350 1_554 S
C324 C321 1.463 . S
C324 N328 1.427 . S
C325 H315 0.926 1_556 S
C325 C323 1.433 . S
C325 N328 1.384 1_556 S
C326 H317 0.929 . S
C326 C318 1.378 . S
C326 C321 1.350 . S
C327 H314 0.929 . S
C327 C319 1.433 . S
C327 N329 1.384 . S
N328 C324 1.427 . S
N328 C325 1.384 1_554 S
N329 C321 1.427 . S
N329 C327 1.384 . S
H330 C336 0.930 . S
H331 C340 0.930 . S
H332 C345 0.929 . S
H333 C343 0.929 . S
H334 C338 0.929 . S
H335 C344 0.929 . S
C336 H330 0.930 . S
C336 C337 1.367 . S
C336 C344 1.378 . S
C337 C336 1.367 . S
C337 C345 1.433 . S
C338 H334 0.929 . S
C338 C340 1.378 . S
C338 C342 1.350 . S
C339 C342 1.463 . S
C339 C344 1.350 . S
C339 N347 1.427 . S
C340 H331 0.930 . S
C340 C338 1.378 . S
C340 C341 1.367 . S
C341 C340 1.367 . S
C341 C343 1.433 . S
C342 C338 1.350 . S
C342 C339 1.463 . S
C342 N346 1.427 . S
C343 H333 0.929 . S
C343 C341 1.433 . S
C343 N346 1.384 . S
C344 H335 0.929 . S
C344 C336 1.378 . S
C344 C339 1.350 . S
C345 H332 0.929 . S
C345 C337 1.433 . S
C345 N347 1.384 . S
N346 C342 1.427 . S
N346 C343 1.384 . S
N347 C339 1.427 . S
N347 C345 1.384 . S
H348 C354 0.930 . S
H349 C358 0.930 . S
H350 C363 0.929 . S
H351 C361 0.929 . S
H352 C356 0.929 . S
H353 C362 0.929 . S
C354 H348 0.930 . S
C354 C355 1.367 . S
C354 C362 1.378 . S
C355 C354 1.367 . S
C355 C363 1.433 . S
C356 H352 0.929 . S
C356 C358 1.378 . S
C356 C360 1.350 . S
C357 C360 1.463 . S
C357 C362 1.350 . S
C357 N365 1.427 . S
C358 H349 0.930 . S
C358 C356 1.378 . S
C358 C359 1.367 . S
C359 C358 1.367 . S
C359 C361 1.433 . S
C360 C356 1.350 . S
C360 C357 1.463 . S
C360 N364 1.427 . S
C361 H351 0.929 . S
C361 C359 1.433 . S
C361 N364 1.384 . S
C362 H353 0.929 . S
C362 C354 1.378 . S
C362 C357 1.350 . S
C363 H350 0.929 . S
C363 C355 1.433 . S
C363 N365 1.384 . S
N364 C360 1.427 . S
N364 C361 1.384 . S
N365 C357 1.427 . S
N365 C363 1.384 . S
H366 C372 0.930 . S
H367 C376 0.930 . S
H368 C381 0.931 . S
H369 C379 0.929 . S
H370 C374 0.929 . S
H371 C380 0.929 . S
C372 H366 0.930 . S
C372 C373 1.367 . S
C372 C380 1.378 . S
C373 C372 1.367 . S
C373 C381 1.433 . S
C374 H370 0.929 . S
C374 C376 1.378 . S
C374 C378 1.350 . S
C375 C378 1.463 . S
C375 C380 1.350 1_554 S
C375 N383 1.427 . S
C376 H367 0.930 . S
C376 C374 1.378 . S
C376 C377 1.367 . S
C377 C376 1.367 . S
C377 C379 1.433 . S
C378 C374 1.350 . S
C378 C375 1.463 . S
C378 N382 1.427 . S
C379 H369 0.929 . S
C379 C377 1.433 . S
C379 N382 1.384 . S
C380 H371 0.929 . S
C380 C372 1.378 . S
C380 C375 1.350 1_556 S
C381 H368 0.931 . S
C381 C373 1.433 . S
C381 N383 1.384 1_556 S
N382 C378 1.427 . S
N382 C379 1.384 . S
N383 C375 1.427 . S
N383 C381 1.384 1_554 S
H384 C390 0.930 . S
H385 C394 0.930 . S
H386 C399 0.929 . S
H387 C397 0.929 . S
H388 C392 0.929 . S
H389 C398 0.929 . S
C390 H384 0.930 . S
C390 C391 1.367 . S
C390 C398 1.378 . S
C391 C390 1.367 . S
C391 C399 1.433 . S
C392 H388 0.929 . S
C392 C394 1.378 . S
C392 C396 1.350 . S
C393 C396 1.463 1_545 S
C393 C398 1.350 . S
C393 N401 1.427 . S
C394 H385 0.930 . S
C394 C392 1.378 . S
C394 C395 1.367 . S
C395 C394 1.367 . S
C395 C397 1.433 . S
C396 C392 1.350 . S
C396 C393 1.463 1_565 S
C396 N400 1.427 . S
C397 H387 0.929 . S
C397 C395 1.433 . S
C397 N400 1.384 . S
C398 H389 0.929 . S
C398 C390 1.378 . S
C398 C393 1.350 . S
C399 H386 0.929 . S
C399 C391 1.433 . S
C399 N401 1.384 . S
N400 C396 1.427 . S
N400 C397 1.384 . S
N401 C393 1.427 . S
N401 C399 1.384 . S
H402 C408 0.930 . S
H403 C412 0.930 . S
H404 C417 0.929 . S
H405 C415 0.929 . S
H406 C410 0.929 . S
H407 C416 0.929 . S
C408 H402 0.930 . S
C408 C409 1.367 . S
C408 C416 1.378 . S
C409 C408 1.367 . S
C409 C417 1.433 . S
C410 H406 0.929 . S
C410 C412 1.378 . S
C410 C414 1.350 . S
C411 C414 1.463 . S
C411 C416 1.350 . S
C411 N419 1.427 . S
C412 H403 0.930 . S
C412 C410 1.378 . S
C412 C413 1.367 . S
C413 C412 1.367 . S
C413 C415 1.433 . S
C414 C410 1.350 . S
C414 C411 1.463 . S
C414 N418 1.427 . S
C415 H405 0.929 . S
C415 C413 1.433 . S
C415 N418 1.384 . S
C416 H407 0.929 . S
C416 C408 1.378 . S
C416 C411 1.350 . S
C417 H404 0.929 . S
C417 C409 1.433 . S
C417 N419 1.384 . S
N418 C414 1.427 . S
N418 C415 1.384 . S
N419 C411 1.427 . S
N419 C417 1.384 . S
H420 C426 0.930 . S
H421 C430 0.930 . S
H422 C435 0.929 . S
H423 C433 0.929 . S
H424 C428 0.929 . S
H425 C434 0.929 . S
C426 H420 0.930 . S
C426 C427 1.367 . S
C426 C434 1.378 . S
C427 C426 1.367 . S
C427 C435 1.433 . S
C428 H424 0.929 . S
C428 C430 1.378 . S
C428 C432 1.350 . S
C429 C432 1.463 1_655 S
C429 C434 1.350 . S
C429 N437 1.427 . S
C430 H421 0.930 . S
C430 C428 1.378 . S
C430 C431 1.367 . S
C431 C430 1.367 . S
C431 C433 1.433 . S
C432 C428 1.350 . S
C432 C429 1.463 1_455 S
C432 N436 1.427 . S
C433 H423 0.929 . S
C433 C431 1.433 . S
C433 N436 1.384 . S
C434 H425 0.929 . S
C434 C426 1.378 . S
C434 C429 1.350 . S
C435 H422 0.929 . S
C435 C427 1.433 . S
C435 N437 1.384 . S
N436 C432 1.427 . S
N436 C433 1.384 . S
N437 C429 1.427 . S
N437 C435 1.384 . S
H438 C444 0.930 . S
H439 C448 0.930 . S
H440 C453 0.929 . S
H441 C451 0.929 . S
H442 C446 0.929 . S
H443 C452 0.929 . S
C444 H438 0.930 . S
C444 C445 1.367 . S
C444 C452 1.378 . S
C445 C444 1.367 . S
C445 C453 1.433 . S
C446 H442 0.929 . S
C446 C448 1.378 . S
C446 C450 1.350 . S
C447 C450 1.463 1_455 S
C447 C452 1.350 . S
C447 N455 1.427 . S
C448 H439 0.930 . S
C448 C446 1.378 . S
C448 C449 1.367 . S
C449 C448 1.367 . S
C449 C451 1.433 . S
C450 C446 1.350 . S
C450 C447 1.463 1_655 S
C450 N454 1.427 . S
C451 H441 0.929 . S
C451 C449 1.433 . S
C451 N454 1.384 . S
C452 H443 0.929 . S
C452 C444 1.378 . S
C452 C447 1.350 . S
C453 H440 0.929 . S
C453 C445 1.433 . S
C453 N455 1.384 . S
N454 C450 1.427 . S
N454 C451 1.384 . S
N455 C447 1.427 . S
N455 C453 1.384 . S
H456 C462 0.930 . S
H457 C466 0.930 . S
H458 C471 0.929 . S
H459 C469 0.929 . S
H460 C464 0.929 . S
H461 C470 0.929 . S
C462 H456 0.930 . S
C462 C463 1.367 . S
C462 C470 1.378 . S
C463 C462 1.367 . S
C463 C471 1.433 . S
C464 H460 0.929 . S
C464 C466 1.378 . S
C464 C468 1.350 . S
C465 C468 1.463 1_545 S
C465 C470 1.350 . S
C465 N473 1.427 . S
C466 H457 0.930 . S
C466 C464 1.378 . S
C466 C467 1.367 . S
C467 C466 1.367 . S
C467 C469 1.433 . S
C468 C464 1.350 . S
C468 C465 1.463 1_565 S
C468 N472 1.427 . S
C469 H459 0.929 . S
C469 C467 1.433 . S
C469 N472 1.384 . S
C470 H461 0.929 . S
C470 C462 1.378 . S
C470 C465 1.350 . S
C471 H458 0.929 . S
C471 C463 1.433 . S
C471 N473 1.384 . S
N472 C468 1.427 . S
N472 C469 1.384 . S
N473 C465 1.427 . S
N473 C471 1.384 . S
H474 C480 0.930 . S
H475 C484 0.930 1_556 S
H476 C489 0.929 1_556 S
H477 C487 0.929 . S
H478 C482 0.929 1_556 S
H479 C488 0.929 . S
C480 H474 0.930 . S
C480 C481 1.367 . S
C480 C488 1.378 . S
C481 C480 1.367 . S
C481 C489 1.433 . S
C482 H478 0.929 1_554 S
C482 C484 1.378 . S
C482 C486 1.350 . S
C483 C486 1.463 . S
C483 C488 1.350 . S
C483 N491 1.427 . S
C484 H475 0.930 1_554 S
C484 C482 1.378 . S
C484 C485 1.367 . S
C485 C484 1.367 . S
C485 C487 1.433 . S
C486 C482 1.350 . S
C486 C483 1.463 . S
C486 N490 1.427 . S
C487 H477 0.929 . S
C487 C485 1.433 . S
C487 N490 1.384 . S
C488 H479 0.929 . S
C488 C480 1.378 . S
C488 C483 1.350 . S
C489 H476 0.929 1_554 S
C489 C481 1.433 . S
C489 N491 1.384 . S
N490 C486 1.427 . S
N490 C487 1.384 . S
N491 C483 1.427 . S
N491 C489 1.384 . S
H492 C498 0.930 . S
H493 C502 0.930 . S
H494 C507 0.929 . S
H495 C505 0.929 . S
H496 C500 0.929 . S
H497 C506 0.929 . S
C498 H492 0.930 . S
C498 C499 1.367 . S
C498 C506 1.378 . S
C499 C498 1.367 . S
C499 C507 1.433 . S
C500 H496 0.929 . S
C500 C502 1.378 . S
C500 C504 1.350 . S
C501 C504 1.463 . S
C501 C506 1.350 . S
C501 N509 1.427 . S
C502 H493 0.930 . S
C502 C500 1.378 . S
C502 C503 1.367 . S
C503 C502 1.367 . S
C503 C505 1.433 . S
C504 C500 1.350 . S
C504 C501 1.463 . S
C504 N508 1.427 . S
C505 H495 0.929 . S
C505 C503 1.433 . S
C505 N508 1.384 . S
C506 H497 0.929 . S
C506 C498 1.378 . S
C506 C501 1.350 . S
C507 H494 0.929 . S
C507 C499 1.433 . S
C507 N509 1.384 . S
N508 C504 1.427 . S
N508 C505 1.384 . S
N509 C501 1.427 . S
N509 C507 1.384 . S
H510 C516 0.930 . S
H511 C520 0.930 . S
H512 C525 0.929 . S
H513 C523 0.929 . S
H514 C518 0.929 . S
H515 C524 0.929 . S
C516 H510 0.930 . S
C516 C517 1.367 . S
C516 C524 1.378 . S
C517 C516 1.367 . S
C517 C525 1.433 . S
C518 H514 0.929 . S
C518 C520 1.378 . S
C518 C522 1.350 . S
C519 C522 1.463 . S
C519 C524 1.350 . S
C519 N527 1.427 . S
C520 H511 0.930 . S
C520 C518 1.378 . S
C520 C521 1.367 . S
C521 C520 1.367 . S
C521 C523 1.433 . S
C522 C518 1.350 . S
C522 C519 1.463 . S
C522 N526 1.427 . S
C523 H513 0.929 . S
C523 C521 1.433 . S
C523 N526 1.384 . S
C524 H515 0.929 . S
C524 C516 1.378 . S
C524 C519 1.350 . S
C525 H512 0.929 . S
C525 C517 1.433 . S
C525 N527 1.384 . S
N526 C522 1.427 . S
N526 C523 1.384 . S
N527 C519 1.427 . S
N527 C525 1.384 . S
H528 C534 0.930 . S
H529 C538 0.930 . S
H530 C543 0.929 . S
H531 C541 0.929 . S
H532 C536 0.929 . S
H533 C542 0.929 . S
C534 H528 0.930 . S
C534 C535 1.367 . S
C534 C542 1.378 . S
C535 C534 1.367 . S
C535 C543 1.433 . S
C536 H532 0.929 . S
C536 C538 1.378 . S
C536 C540 1.350 . S
C537 C540 1.463 . S
C537 C542 1.350 . S
C537 N545 1.427 . S
C538 H529 0.930 . S
C538 C536 1.378 . S
C538 C539 1.367 . S
C539 C538 1.367 . S
C539 C541 1.433 . S
C540 C536 1.350 . S
C540 C537 1.463 . S
C540 N544 1.427 . S
C541 H531 0.929 . S
C541 C539 1.433 . S
C541 N544 1.384 . S
C542 H533 0.929 . S
C542 C534 1.378 . S
C542 C537 1.350 . S
C543 H530 0.929 . S
C543 C535 1.433 . S
C543 N545 1.384 . S
N544 C540 1.427 . S
N544 C541 1.384 . S
N545 C537 1.427 . S
N545 C543 1.384 . S
H546 C552 0.930 . S
H547 C556 0.930 . S
H548 C561 0.929 . S
H549 C559 0.929 . S
H550 C554 0.929 . S
H551 C560 0.929 . S
C552 H546 0.930 . S
C552 C553 1.367 . S
C552 C560 1.378 . S
C553 C552 1.367 . S
C553 C561 1.433 . S
C554 H550 0.929 . S
C554 C556 1.378 . S
C554 C558 1.350 . S
C555 C558 1.463 . S
C555 C560 1.350 . S
C555 N563 1.427 . S
C556 H547 0.930 . S
C556 C554 1.378 . S
C556 C557 1.367 . S
C557 C556 1.367 . S
C557 C559 1.433 . S
C558 C554 1.350 . S
C558 C555 1.463 . S
C558 N562 1.427 . S
C559 H549 0.929 . S
C559 C557 1.433 . S
C559 N562 1.384 . S
C560 H551 0.929 . S
C560 C552 1.378 . S
C560 C555 1.350 . S
C561 H548 0.929 . S
C561 C553 1.433 . S
C561 N563 1.384 . S
N562 C558 1.427 . S
N562 C559 1.384 . S
N563 C555 1.427 . S
N563 C561 1.384 . S
H564 C570 0.930 . S
H565 C574 0.930 . S
H566 C579 0.929 . S
H567 C577 0.929 . S
H568 C572 0.929 . S
H569 C578 0.929 . S
C570 H564 0.930 . S
C570 C571 1.367 . S
C570 C578 1.378 . S
C571 C570 1.367 . S
C571 C579 1.433 . S
C572 H568 0.929 . S
C572 C574 1.378 . S
C572 C576 1.350 . S
C573 C576 1.463 . S
C573 C578 1.350 . S
C573 N581 1.427 . S
C574 H565 0.930 . S
C574 C572 1.378 . S
C574 C575 1.367 . S
C575 C574 1.367 . S
C575 C577 1.433 . S
C576 C572 1.350 . S
C576 C573 1.463 . S
C576 N580 1.427 . S
C577 H567 0.929 . S
C577 C575 1.433 . S
C577 N580 1.384 . S
C578 H569 0.929 . S
C578 C570 1.378 . S
C578 C573 1.350 . S
C579 H566 0.929 . S
C579 C571 1.433 . S
C579 N581 1.384 . S
N580 C576 1.427 . S
N580 C577 1.384 . S
N581 C573 1.427 . S
N581 C579 1.384 . S
H582 C588 0.930 . S
H583 C592 0.930 . S
H584 C597 0.929 . S
H585 C595 0.929 . S
H586 C590 0.929 . S
H587 C596 0.929 . S
C588 H582 0.930 . S
C588 C589 1.367 . S
C588 C596 1.378 . S
C589 C588 1.367 . S
C589 C597 1.433 . S
C590 H586 0.929 . S
C590 C592 1.378 . S
C590 C594 1.350 . S
C591 C594 1.463 . S
C591 C596 1.350 . S
C591 N599 1.427 . S
C592 H583 0.930 . S
C592 C590 1.378 . S
C592 C593 1.367 . S
C593 C592 1.367 . S
C593 C595 1.433 . S
C594 C590 1.350 . S
C594 C591 1.463 . S
C594 N598 1.427 . S
C595 H585 0.929 . S
C595 C593 1.433 . S
C595 N598 1.384 . S
C596 H587 0.929 . S
C596 C588 1.378 . S
C596 C591 1.350 . S
C597 H584 0.929 . S
C597 C589 1.433 . S
C597 N599 1.384 . S
N598 C594 1.427 . S
N598 C595 1.384 . S
N599 C591 1.427 . S
N599 C597 1.384 . S
C175 C9 1.559 . S
C179 C149 1.557 . S
C193 C23 1.548 . S
C197 C163 1.547 . S
C211 C93 1.558 . S
C215 C37 1.560 . S
C229 C51 1.558 . S
C233 C107 1.557 . S
C247 C121 1.544 . S
C251 C65 1.543 . S
C265 C135 1.546 . S
C269 C79 1.545 . S
C283 C89 0.466 . S
C287 C5 0.464 . S
C301 C103 0.459 . S
C305 C19 0.466 . S
C319 C117 0.450 . S
C323 C33 0.461 . S
C337 C47 0.464 . S
C341 C131 0.465 . S
C355 C61 0.454 . S
C359 C145 0.443 . S
C373 C75 0.450 . S
C377 C159 0.461 . S
C391 C11 1.406 . S
C395 C53 1.401 . S
C409 C25 1.402 . S
C413 C67 1.409 . S
C427 C39 1.411 . S
C431 C81 1.408 . S
C445 C137 1.404 . S
C449 C95 1.411 . S
C463 C151 1.402 . S
C467 C109 1.409 . S
C481 C165 1.409 . S
C485 C123 1.401 . S
C499 C0 1.498 . S
C503 C112 1.507 . S
C517 C126 1.502 . S
C521 C14 1.510 . S
C535 C28 1.502 . S
C539 C140 1.504 . S
C553 C154 1.507 . S
C557 C42 1.499 . S
C571 C56 1.510 . S
C575 C84 1.497 . S
C589 C70 1.509 . S
C593 C98 1.504 . S
