# Generated by pormake.
# Topology dft, (4)-cn, num edge types: 1
# Building blocks:
#     Node 0, Type 0, BuildingBlock: GALJAG_clean_sbu_0, # of connection points: 4
#     Node 1, Type 0, BuildingBlock: GALJAG_clean_sbu_0, # of connection points: 4
#     Node 2, Type 0, BuildingBlock: GALJAG_clean_sbu_0, # of connection points: 4
#     Node 3, Type 0, BuildingBlock: GALJAG_clean_sbu_0, # of connection points: 4
#     Node 4, Type 0, BuildingBlock: GALJAG_clean_sbu_0, # of connection points: 4
#     Node 5, Type 0, BuildingBlock: GALJAG_clean_sbu_0, # of connection points: 4
#     Node 6, Type 0, BuildingBlock: GALJAG_clean_sbu_0, # of connection points: 4
#     Node 7, Type 0, BuildingBlock: GALJAG_clean_sbu_0, # of connection points: 4
#     Edge 8, Type (0, 0), BuildingBlock: MIFKUJ_clean_linker_0, # of connection points: 2
#     Edge 9, Type (0, 0), BuildingBlock: MIFKUJ_clean_linker_0, # of connection points: 2
#     Edge 10, Type (0, 0), BuildingBlock: MIFKUJ_clean_linker_0, # of connection points: 2
#     Edge 11, Type (0, 0), BuildingBlock: MIFKUJ_clean_linker_0, # of connection points: 2
#     Edge 12, Type (0, 0), BuildingBlock: MIFKUJ_clean_linker_0, # of connection points: 2
#     Edge 13, Type (0, 0), BuildingBlock: MIFKUJ_clean_linker_0, # of connection points: 2
#     Edge 14, Type (0, 0), BuildingBlock: MIFKUJ_clean_linker_0, # of connection points: 2
#     Edge 15, Type (0, 0), BuildingBlock: MIFKUJ_clean_linker_0, # of connection points: 2
#     Edge 16, Type (0, 0), BuildingBlock: MIFKUJ_clean_linker_0, # of connection points: 2
#     Edge 17, Type (0, 0), BuildingBlock: MIFKUJ_clean_linker_0, # of connection points: 2
#     Edge 18, Type (0, 0), BuildingBlock: MIFKUJ_clean_linker_0, # of connection points: 2
#     Edge 19, Type (0, 0), BuildingBlock: MIFKUJ_clean_linker_0, # of connection points: 2
#     Edge 20, Type (0, 0), BuildingBlock: MIFKUJ_clean_linker_0, # of connection points: 2
#     Edge 21, Type (0, 0), BuildingBlock: MIFKUJ_clean_linker_0, # of connection points: 2
#     Edge 22, Type (0, 0), BuildingBlock: MIFKUJ_clean_linker_0, # of connection points: 2
#     Edge 23, Type (0, 0), BuildingBlock: MIFKUJ_clean_linker_0, # of connection points: 2
# Relax obj value: 0.096
# Max RMSD: 0.146
# Mean RMSD: 0.146
data_MOF--net-dft--node1-GALJAG_clean_sbu_0--edge1-MIFKUJ_clean_linker_0
_symmetry_space_group_name_H-M    P1
_symmetry_Int_Tables_number       1
_symmetry_cell_setting            triclinic
loop_
_symmetry_equiv_pos_as_xyz
'x, y, z'
_cell_length_a     43.412547
_cell_length_b     43.374609
_cell_length_c     58.283195
_cell_angle_alpha  89.965204
_cell_angle_beta   90.006451
_cell_angle_gamma 89.967699
loop_
_atom_site_label
_atom_site_type_symbol
_atom_site_fract_x
_atom_site_fract_y
_atom_site_fract_z
_atom_type_partial_charge
In0 In 0.31656 0.04208 0.17127 0.0
O1 O 0.36265 0.06311 0.18186 0.0
O2 O 0.36283 0.01799 0.16775 0.0
C3 C 0.27901 0.08688 0.18682 0.0
C4 C 0.3073 0.04527 0.12556 0.0
C5 C 0.29878 0.99455 0.19792 0.0
O6 O 0.30785 0.08786 0.18947 0.0
O7 O 0.26932 0.06363 0.17603 0.0
O8 O 0.30034 0.99273 0.17636 0.0
O9 O 0.30665 0.02026 0.20612 0.0
C10 C 0.3783 0.03989 0.17602 0.0
O11 O 0.29678 0.02378 0.13781 0.0
O12 O 0.32255 0.06531 0.13636 0.0
In13 In 0.04794 0.31667 0.66327 0.0
O14 O 0.04767 0.36124 0.68411 0.0
O15 O 0.03732 0.36403 0.64853 0.0
C16 C 0.00477 0.2846 0.68693 0.0
C17 C 0.04683 0.30421 0.61801 0.0
C18 C 0.10327 0.29976 0.68009 0.0
O19 O -0.00047 0.31098 0.67877 0.0
O20 O 0.03147 0.27463 0.68314 0.0
O21 O 0.088 0.28332 0.66635 0.0
O22 O 0.09093 0.32525 0.68505 0.0
C23 C 0.04067 0.37814 0.66726 0.0
O24 O 0.07047 0.31438 0.62806 0.0
O25 O 0.02369 0.3003 0.63079 0.0
In26 In 0.76725 0.02468 0.16098 0.0
O27 O 0.71928 0.00335 0.15856 0.0
O28 O 0.72483 0.04287 0.17957 0.0
C29 C 0.79683 0.97915 0.18364 0.0
C30 C 0.77018 0.02511 0.11459 0.0
C31 C 0.79613 0.07551 0.17634 0.0
O32 O 0.77408 0.99325 0.19207 0.0
O33 O 0.8043 0.98771 0.16372 0.0
O34 O 0.80943 0.04972 0.17462 0.0
O35 O 0.76837 0.07579 0.16988 0.0
C36 C 0.70677 0.02283 0.17162 0.0
O37 O 0.7756 0.04862 0.12658 0.0
O38 O 0.76347 0.00135 0.12594 0.0
In39 In 0.04048 0.76957 0.67097 0.0
O40 O 0.02901 0.78969 0.63595 0.0
O41 O 0.06875 0.76127 0.63856 0.0
C42 C 0.98832 0.78819 0.69186 0.0
C43 C 0.03372 0.70808 0.67444 0.0
C44 C 0.08571 0.80348 0.69037 0.0
O45 O 0.99403 0.79384 0.67107 0.0
O46 O 0.00892 0.77304 0.70215 0.0
O47 O 0.08702 0.7745 0.68911 0.0
O48 O 0.06182 0.81522 0.68176 0.0
C49 C 0.05146 0.77722 0.62583 0.0
O50 O 0.05136 0.72316 0.68748 0.0
O51 O 0.01941 0.72406 0.65982 0.0
In52 In 0.309 0.05812 0.83488 0.0
O53 O 0.3073 0.08008 0.87022 0.0
O54 O 0.29295 0.03346 0.86753 0.0
C55 C 0.28875 0.1115 0.81656 0.0
C56 C 0.37045 0.05364 0.82903 0.0
C57 C 0.27902 0.01246 0.81274 0.0
O58 O 0.27265 0.09515 0.82982 0.0
O59 O 0.31539 0.10113 0.81264 0.0
O60 O 0.30295 0.00748 0.82449 0.0
O61 O 0.27028 0.04016 0.81245 0.0
C62 C 0.29743 0.05643 0.88037 0.0
O63 O 0.35161 0.04695 0.81333 0.0
O64 O 0.35827 0.06243 0.84752 0.0
In65 In 0.01718 0.30838 0.32849 0.0
O66 O 0.02601 0.35301 0.30873 0.0
O67 O 0.00875 0.35651 0.34271 0.0
C68 C 0.06153 0.27603 0.30669 0.0
C69 C 0.02398 0.29619 0.37352 0.0
C70 C 0.96449 0.28909 0.30881 0.0
O71 O 0.06637 0.30246 0.31497 0.0
O72 O 0.03464 0.26596 0.30968 0.0
O73 O 0.97545 0.27684 0.32667 0.0
O74 O 0.97969 0.31168 0.30123 0.0
C75 C 0.0175 0.37037 0.32487 0.0
O76 O 0.99795 0.2995 0.3642 0.0
O77 O 0.04662 0.2988 0.36008 0.0
In78 In 0.7605 0.03849 0.82256 0.0
O79 O 0.75351 0.01439 0.85679 0.0
O80 O 0.77756 0.05709 0.85689 0.0
C81 C 0.78025 0.9861 0.80259 0.0
C82 C 0.69944 0.0467 0.81631 0.0
C83 C 0.79667 0.08289 0.80449 0.0
O84 O 0.77955 0.98965 0.82406 0.0
O85 O 0.77074 0.00891 0.79116 0.0
O86 O 0.76769 0.08488 0.80467 0.0
O87 O 0.8073 0.05881 0.81365 0.0
C88 C 0.76706 0.03481 0.86842 0.0
O89 O 0.71506 0.02838 0.80424 0.0
O90 O 0.71468 0.06124 0.83116 0.0
In91 In 0.05171 0.76062 0.33411 0.0
O92 O 0.03788 0.78319 0.36803 0.0
O93 O 0.06875 0.74525 0.3692 0.0
C94 C 0.10251 0.78895 0.31784 0.0
C95 C 0.04463 0.69964 0.32684 0.0
C96 C 0.00617 0.78922 0.3109 0.0
O97 O 0.08799 0.79873 0.3351 0.0
O98 O 0.09154 0.76485 0.30896 0.0
O99 O 0.03128 0.78138 0.30172 0.0
O100 O 0.00376 0.78234 0.33188 0.0
C101 C 0.05393 0.76532 0.38025 0.0
O102 O 0.02216 0.71807 0.32682 0.0
O103 O 0.07045 0.71197 0.3304 0.0
H104 H 0.32713 0.08951 0.09571 0.0
H105 H 0.31998 0.09079 0.05408 0.0
H106 H 0.2693 0.00536 0.05733 0.0
H107 H 0.27661 0.00378 0.09894 0.0
H108 H 0.31236 0.00462 0.02368 0.0
H109 H 0.23167 0.07234 0.04838 0.0
H110 H 0.20926 0.11626 0.06942 0.0
H111 H 0.26744 0.17882 0.03225 0.0
H112 H 0.29052 0.13523 0.01121 0.0
H113 H 0.27083 0.01075 0.90594 0.0
H114 H 0.26665 0.00834 0.94783 0.0
H115 H 0.31143 0.09689 0.9531 0.0
H116 H 0.31468 0.09986 0.91137 0.0
H117 H 0.26652 0.09392 0.98282 0.0
H118 H 0.3506 0.0271 0.96101 0.0
H119 H 0.37486 0.98381 0.94035 0.0
H120 H 0.31229 0.9204 0.97242 0.0
H121 H 0.28741 0.96339 0.99306 0.0
C122 C 0.31435 0.07108 0.08756 0.0
C123 C 0.30241 0.04656 0.10054 0.0
C124 C 0.31016 0.07191 0.06381 0.0
C125 C 0.29383 0.04832 0.05268 0.0
C126 C 0.2819 0.02381 0.06562 0.0
C127 C 0.28605 0.02298 0.08936 0.0
C128 C 0.29012 0.04873 0.02743 0.0
C129 C 0.30184 0.02389 0.01474 0.0
C130 C 0.27698 0.07418 0.01581 0.0
C131 C 0.263 0.10047 0.02834 0.0
C132 C 0.23985 0.09544 0.04481 0.0
C133 C 0.227 0.12028 0.05672 0.0
C134 C 0.23696 0.15031 0.05221 0.0
C135 C 0.25975 0.15555 0.03574 0.0
C136 C 0.2727 0.13079 0.0238 0.0
C137 C 0.27954 0.02977 0.91608 0.0
C138 C 0.29322 0.05541 0.90545 0.0
C139 C 0.27727 0.02832 0.93998 0.0
C140 C 0.28919 0.05222 0.95362 0.0
C141 C 0.30209 0.07818 0.94294 0.0
C142 C 0.30401 0.07981 0.91909 0.0
C143 C 0.28918 0.05 0.97901 0.0
C144 C 0.27676 0.0745 0.99175 0.0
C145 C 0.30191 0.02435 0.99069 0.0
C146 C 0.31694 0.99848 0.97837 0.0
C147 C 0.34189 0.00395 0.96352 0.0
C148 C 0.35576 0.97947 0.95184 0.0
C149 C 0.34506 0.94939 0.95501 0.0
C150 C 0.32052 0.94372 0.96994 0.0
C151 C 0.30653 0.96812 0.98165 0.0
H152 H 0.35583 0.93047 0.94595 0.0
H153 H 0.22699 0.16951 0.06145 0.0
H154 H 0.99669 0.29103 0.59161 0.0
H155 H 0.99504 0.28457 0.54998 0.0
H156 H 0.09355 0.29733 0.54662 0.0
H157 H 0.09516 0.30475 0.58819 0.0
H158 H 0.06666 0.33097 0.51542 0.0
H159 H 0.05907 0.22547 0.53858 0.0
H160 H 0.03823 0.18107 0.55997 0.0
H161 H 0.94995 0.19437 0.52823 0.0
H162 H 0.97014 0.23912 0.50687 0.0
H163 H 0.07763 0.29227 0.39776 0.0
H164 H 0.0835 0.2883 0.43942 0.0
H165 H 0.9847 0.2856 0.44713 0.0
H166 H 0.97864 0.28934 0.40548 0.0
H167 H 0.01435 0.24435 0.4758 0.0
H168 H 0.0217 0.35181 0.45479 0.0
H169 H 0.04279 0.39612 0.43342 0.0
H170 H 0.13253 0.37832 0.46147 0.0
H171 H 0.11204 0.3336 0.48276 0.0
C172 C 0.01801 0.29221 0.582 0.0
C173 C 0.04604 0.29843 0.59309 0.0
C174 C 0.01708 0.28833 0.55823 0.0
C175 C 0.04424 0.29009 0.54519 0.0
C176 C 0.07232 0.29585 0.55633 0.0
C177 C 0.07322 0.30004 0.58007 0.0
C178 C 0.04312 0.28761 0.51983 0.0
C179 C 0.05573 0.31171 0.50678 0.0
C180 C 0.02825 0.26284 0.50854 0.0
C181 C 0.01607 0.23581 0.52126 0.0
C182 C 0.03515 0.21906 0.53628 0.0
C183 C 0.02346 0.19381 0.54838 0.0
C184 C 0.99277 0.18494 0.5455 0.0
C185 C 0.97372 0.20127 0.53046 0.0
C186 C 0.98528 0.22656 0.51833 0.0
C187 C 0.05717 0.29053 0.40832 0.0
C188 C 0.02767 0.29135 0.39842 0.0
C189 C 0.06056 0.28832 0.43209 0.0
C190 C 0.03452 0.28701 0.44632 0.0
C191 C 0.00507 0.28661 0.43641 0.0
C192 C 0.00166 0.28887 0.41265 0.0
C193 C 0.03785 0.28767 0.47158 0.0
C194 C 0.02556 0.26336 0.48454 0.0
C195 C 0.05311 0.31218 0.48283 0.0
C196 C 0.06541 0.33917 0.47016 0.0
C197 C 0.04598 0.3572 0.45625 0.0
C198 C 0.05782 0.38241 0.44418 0.0
C199 C 0.089 0.38998 0.44604 0.0
C200 C 0.10839 0.3724 0.46002 0.0
C201 C 0.09668 0.34713 0.4721 0.0
H202 H 0.09812 0.4095 0.43668 0.0
H203 H 0.98376 0.16539 0.55489 0.0
H204 H 0.75039 0.98703 0.89608 0.0
H205 H 0.75251 0.9849 0.93794 0.0
H206 H 0.79062 0.07674 0.93956 0.0
H207 H 0.78926 0.07871 0.89759 0.0
H208 H 0.81938 0.04038 0.96952 0.0
H209 H 0.71435 0.06373 0.951 0.0
H210 H 0.66443 0.05622 0.93159 0.0
H211 H 0.65464 0.96772 0.96379 0.0
H212 H 0.70475 0.97449 0.98314 0.0
H213 H 0.78726 0.07273 0.08679 0.0
H214 H 0.78808 0.07358 0.04482 0.0
H215 H 0.75602 0.97947 0.04332 0.0
H216 H 0.75504 0.97849 0.08532 0.0
H217 H 0.7243 0.01692 0.01344 0.0
H218 H 0.82981 0.99457 0.03224 0.0
H219 H 0.87959 0.00308 0.05159 0.0
H220 H 0.8879 0.09145 0.01892 0.0
H221 H 0.83793 0.08364 -0.00039 0.0
C222 C 0.75934 0.00672 0.90536 0.0
C223 C 0.7695 0.03311 0.89362 0.0
C224 C 0.76041 0.00552 0.92927 0.0
C225 C 0.77124 0.03087 0.94188 0.0
C226 C 0.7821 0.05697 0.93015 0.0
C227 C 0.78124 0.05809 0.90621 0.0
C228 C 0.77089 0.03026 0.96729 0.0
C229 C 0.79851 0.03566 0.97913 0.0
C230 C 0.74375 0.02352 0.9798 0.0
C231 C 0.71345 0.01951 0.96836 0.0
C232 C 0.70166 0.04257 0.95382 0.0
C233 C 0.67332 0.03846 0.94284 0.0
C234 C 0.65641 0.01148 0.94642 0.0
C235 C 0.66778 0.98859 0.96102 0.0
C236 C 0.69614 0.99256 0.97201 0.0
C237 C 0.78047 0.0522 0.07751 0.0
C238 C 0.77116 0.02551 0.08929 0.0
C239 C 0.78103 0.05269 0.05356 0.0
C240 C 0.77234 0.0265 0.04101 0.0
C241 C 0.76284 -0.00011 0.05273 0.0
C242 C 0.7624 -0.00066 0.07668 0.0
C243 C 0.77278 0.027 0.01562 0.0
C244 C 0.74516 0.02163 0.0038 0.0
C245 C 0.79985 0.03396 0.00314 0.0
C246 C 0.82997 0.03865 0.01466 0.0
C247 C 0.84213 0.01593 0.02933 0.0
C248 C 0.8704 0.0206 0.04026 0.0
C249 C 0.88686 0.04782 0.03653 0.0
C250 C 0.87511 0.07039 0.02181 0.0
C251 C 0.84682 0.06584 0.01086 0.0
H252 H 0.90875 0.0514 0.04501 0.0
H253 H 0.63446 0.00836 0.93792 0.0
H254 H 0.02287 0.8054 0.40802 0.0
H255 H 0.02536 0.80877 0.44989 0.0
H256 H 0.09116 0.73417 0.4512 0.0
H257 H 0.08832 0.73031 0.40941 0.0
H258 H 0.04882 0.72608 0.48335 0.0
H259 H 0.11395 0.80868 0.45935 0.0
H260 H 0.12837 0.85562 0.43805 0.0
H261 H 0.05618 0.90602 0.47166 0.0
H262 H 0.04102 0.85923 0.49293 0.0
H263 H 0.09286 0.74587 0.59946 0.0
H264 H 0.09644 0.74577 0.55754 0.0
H265 H 0.0232 0.81284 0.5538 0.0
H266 H 0.0195 0.8131 0.5957 0.0
H267 H 0.07159 0.82463 0.52313 0.0
H268 H 0.00599 0.7399 0.54603 0.0
H269 H 0.99415 0.69294 0.56821 0.0
H270 H 0.07066 0.64631 0.53698 0.0
H271 H 0.08319 0.69318 0.5148 0.0
C272 C 0.03788 0.78976 0.41725 0.0
C273 C 0.05545 0.76764 0.40548 0.0
C274 C 0.0394 0.79179 0.44115 0.0
C275 C 0.05873 0.77195 0.45364 0.0
C276 C 0.07612 0.74972 0.4419 0.0
C277 C 0.07453 0.7476 0.41803 0.0
C278 C 0.06048 0.77405 0.47899 0.0
C279 C 0.05424 0.74754 0.49202 0.0
C280 C 0.06714 0.80215 0.49032 0.0
C281 C 0.07616 0.83035 0.47756 0.0
C282 C 0.10098 0.8297 0.46205 0.0
C283 C 0.10932 0.8563 0.45001 0.0
C284 C 0.09315 0.88377 0.45345 0.0
C285 C 0.06865 0.88471 0.46898 0.0
C286 C 0.06019 0.85816 0.48105 0.0
C287 C 0.07779 0.76087 0.58971 0.0
C288 C 0.05576 0.77935 0.60079 0.0
C289 C 0.0798 0.76072 0.5658 0.0
C290 C 0.05985 0.77905 0.55264 0.0
C291 C 0.03876 0.79851 0.56369 0.0
C292 C 0.03661 0.79855 0.58759 0.0
C293 C 0.05981 0.77677 0.52733 0.0
C294 C 0.06631 0.80321 0.51437 0.0
C295 C 0.05367 0.74857 0.51605 0.0
C296 C 0.0457 0.72013 0.52892 0.0
C297 C 0.02038 0.71968 0.54398 0.0
C298 C 0.01354 0.69308 0.55654 0.0
C299 C 0.0317 0.66669 0.55406 0.0
C300 C 0.05664 0.66679 0.5389 0.0
C301 C 0.0636 0.69336 0.52631 0.0
H302 H 0.02641 0.64613 0.56384 0.0
H303 H 0.09965 0.90434 0.44412 0.0
H304 H 0.41616 0.99273 0.16366 0.0
H305 H 0.47214 0.99035 0.16719 0.0
H306 H 0.47269 0.08086 0.1979 0.0
H307 H 0.41655 0.08361 0.19404 0.0
H308 H 0.5159 0.0761 0.16558 0.0
H309 H 0.4852 0.01691 0.23053 0.0
H310 H 0.45695 0.97661 0.25166 0.0
H311 H 0.50088 0.90662 0.21113 0.0
H312 H 0.52908 0.94653 0.18951 0.0
H313 H 0.67425 0.06641 0.19502 0.0
H314 H 0.61833 0.06936 0.19979 0.0
H315 H 0.60804 0.98355 0.16322 0.0
H316 H 0.66397 0.98043 0.15835 0.0
H317 H 0.5701 0.98795 0.20198 0.0
H318 H 0.59731 0.04821 0.13524 0.0
H319 H 0.62553 0.08885 0.11441 0.0
H320 H 0.58784 0.15746 0.15948 0.0
H321 H 0.55973 0.11714 0.18079 0.0
C322 C 0.42819 0.01209 0.17124 0.0
C323 C 0.41204 0.03836 0.17859 0.0
C324 C 0.46015 0.01062 0.17338 0.0
C325 C 0.47652 0.03525 0.1831 0.0
C326 C 0.46045 0.06156 0.19043 0.0
C327 C 0.42843 0.06308 0.18824 0.0
C328 C 0.51053 0.03392 0.18472 0.0
C329 C 0.52775 0.05714 0.17394 0.0
C330 C 0.52594 0.00887 0.19527 0.0
C331 C 0.50907 0.98475 0.20827 0.0
C332 C 0.48866 0.99294 0.22599 0.0
C333 C 0.47269 0.97016 0.23809 0.0
C334 C 0.47707 0.93908 0.23271 0.0
C335 C 0.49749 0.93071 0.21527 0.0
C336 C 0.51351 0.9534 0.2031 0.0
C337 C 0.66009 0.04801 0.1882 0.0
C338 C 0.67339 0.02328 0.17618 0.0
C339 C 0.6282 0.04978 0.1909 0.0
C340 C 0.60914 0.02682 0.18166 0.0
C341 C 0.62243 0.00148 0.17045 0.0
C342 C 0.65432 -0.00021 0.16762 0.0
C343 C 0.57527 0.02993 0.18266 0.0
C344 C 0.55815 0.00706 0.19389 0.0
C345 C 0.55992 0.05535 0.17262 0.0
C346 C 0.57671 0.07962 0.15977 0.0
C347 C 0.59525 0.07193 0.14083 0.0
C348 C 0.61119 0.09491 0.12892 0.0
C349 C 0.60855 0.12571 0.13566 0.0
C350 C 0.5899 0.13359 0.1543 0.0
C351 C 0.57396 0.11069 0.1663 0.0
H352 H 0.6209 0.14347 0.12641 0.0
H353 H 0.46468 0.92147 0.2421 0.0
H354 H 0.05665 0.41499 0.70328 0.0
H355 H 0.0527 0.47116 0.70549 0.0
H356 H 0.01214 0.47327 0.63786 0.0
H357 H 0.01708 0.41727 0.63527 0.0
H358 H 0.05316 0.51594 0.6406 0.0
H359 H 0.96904 0.48483 0.68784 0.0
H360 H 0.94262 0.45694 0.719 0.0
H361 H -0.00043 0.50232 0.76884 0.0
H362 H 0.02665 0.53019 0.73793 0.0
H363 H 0.00228 0.67078 0.6451 0.0
H364 H 0.00044 0.61443 0.64532 0.0
H365 H 0.05697 0.61265 0.70617 0.0
H366 H 0.05895 0.66913 0.70609 0.0
H367 H 0.00651 0.57048 0.70689 0.0
H368 H 0.09079 0.60084 0.6571 0.0
H369 H 0.11287 0.63034 0.62487 0.0
H370 H 0.04978 0.58685 0.5783 0.0
H371 H 0.02708 0.55732 0.61033 0.0
C372 C 0.04676 0.42747 0.68895 0.0
C373 C 0.03716 0.41184 0.66911 0.0
C374 C 0.04436 0.45953 0.69026 0.0
C375 C 0.03176 0.47643 0.67194 0.0
C376 C 0.02196 0.46074 0.6522 0.0
C377 C 0.02472 0.42875 0.65076 0.0
C378 C 0.02974 0.51054 0.67301 0.0
C379 C 0.04255 0.52777 0.65497 0.0
C380 C 0.01628 0.5261 0.69189 0.0
C381 C 9e-05 0.50936 0.71054 0.0
C382 C 0.97611 0.48867 0.70543 0.0
C383 C 0.96098 0.4729 0.72305 0.0
C384 C 0.96947 0.47779 0.74588 0.0
C385 C 0.99305 0.49852 0.75114 0.0
C386 C 0.00829 0.51433 0.73358 0.0
C387 C 0.01411 0.6584 0.65864 0.0
C388 C 0.03094 0.67427 0.6755 0.0
C389 C 0.01305 0.62627 0.65872 0.0
C390 C 0.0288 0.60951 0.67564 0.0
C391 C 0.0447 0.62528 0.69297 0.0
C392 C 0.04591 0.65746 0.69284 0.0
C393 C 0.02991 0.57551 0.67457 0.0
C394 C 0.01701 0.55843 0.69258 0.0
C395 C 0.0428 0.56005 0.65551 0.0
C396 C 0.05709 0.57706 0.63614 0.0
C397 C 0.08155 0.59766 0.64 0.0
C398 C 0.09418 0.61438 0.62177 0.0
C399 C 0.08268 0.61053 0.59956 0.0
C400 C 0.05865 0.58981 0.59552 0.0
C401 C 0.04593 0.57305 0.6137 0.0
H402 H 0.09241 0.62357 0.58547 0.0
H403 H 0.95771 0.46557 0.75951 0.0
H404 H 0.6608 0.07771 0.84485 0.0
H405 H 0.60452 0.07786 0.8441 0.0
H406 H 0.60548 0.02167 0.78308 0.0
H407 H 0.662 0.02119 0.78378 0.0
H408 H 0.56127 0.07209 0.78296 0.0
H409 H 0.59297 0.9858 0.8293 0.0
H410 H 0.62294 0.9608 0.86007 0.0
H411 H 0.58056 0.01986 0.91005 0.0
H412 H 0.5506 0.04551 0.8795 0.0
H413 H 0.40242 0.0315 0.79212 0.0
H414 H 0.45846 0.02902 0.78753 0.0
H415 H 0.47017 0.06993 0.85445 0.0
H416 H 0.41439 0.07173 0.85936 0.0
H417 H 0.50854 0.02371 0.84942 0.0
H418 H 0.47903 0.11187 0.80446 0.0
H419 H 0.45037 0.13988 0.77444 0.0
H420 H 0.48918 0.08082 0.72287 0.0
H421 H 0.51776 0.05217 0.75265 0.0
C422 C 0.64906 0.06567 0.83111 0.0
C423 C 0.66571 0.04927 0.81444 0.0
C424 C 0.61696 0.06574 0.83074 0.0
C425 C 0.60102 0.04953 0.81366 0.0
C426 C 0.61751 0.03425 0.7964 0.0
C427 C 0.6497 0.03394 0.79687 0.0
C428 C 0.56713 0.04734 0.81467 0.0
C429 C 0.54962 0.06109 0.79726 0.0
C430 C 0.5522 0.03351 0.83361 0.0
C431 C 0.56972 0.01773 0.85208 0.0
C432 C 0.59018 0.99359 0.84683 0.0
C433 C 0.60714 0.97928 0.86423 0.0
C434 C 0.6037 0.98878 0.88699 0.0
C435 C 0.5832 0.01253 0.8924 0.0
C436 C 0.56619 0.02693 0.87506 0.0
C437 C 0.417 0.03991 0.80584 0.0
C438 C 0.40411 0.05187 0.82607 0.0
C439 C 0.44897 0.03861 0.80316 0.0
C440 C 0.46848 0.0496 0.82055 0.0
C441 C 0.45556 0.06129 0.84083 0.0
C442 C 0.42369 0.06239 0.84358 0.0
C443 C 0.5024 0.04892 0.81784 0.0
C444 C 0.52002 0.03453 0.83497 0.0
C445 C 0.51738 0.06246 0.79874 0.0
C446 C 0.50025 0.07965 0.78081 0.0
C447 C 0.48125 0.10469 0.78674 0.0
C448 C 0.46506 0.12071 0.76977 0.0
C449 C 0.46788 0.11207 0.74677 0.0
C450 C 0.48697 0.08744 0.7407 0.0
C451 C 0.50318 0.07132 0.75762 0.0
H452 H 0.45533 0.12451 0.73365 0.0
H453 H 0.61687 0.97768 0.90043 0.0
H454 H 0.02483 0.4055 0.28639 0.0
H455 H 0.02696 0.46181 0.28407 0.0
H456 H 0.01519 0.46764 0.3575 0.0
H457 H 0.01181 0.41154 0.35975 0.0
H458 H 0.98256 0.51002 0.3385 0.0
H459 H 0.08708 0.47534 0.33069 0.0
H460 H 0.1299 0.44565 0.3138 0.0
H461 H 0.11544 0.49049 0.24897 0.0
H462 H 0.07225 0.52018 0.26543 0.0
H463 H 0.08693 0.65522 0.33613 0.0
H464 H 0.08034 0.5995 0.3334 0.0
H465 H 0.98831 0.61267 0.30704 0.0
H466 H 0.99437 0.66858 0.31074 0.0
H467 H 0.07156 0.56087 0.30086 0.0
H468 H 0.94227 0.55421 0.32406 0.0
H469 H 0.90346 0.5836 0.34596 0.0
H470 H 0.97465 0.62087 0.38891 0.0
H471 H 0.0138 0.59142 0.36745 0.0
C472 C 0.02258 0.41887 0.302 0.0
C473 C 0.01828 0.40424 0.32326 0.0
C474 C 0.02391 0.451 0.30067 0.0
C475 C 0.02166 0.46895 0.32066 0.0
C476 C 0.01692 0.4543 0.34185 0.0
C477 C 0.01511 0.42224 0.34313 0.0
C478 C 0.02474 0.50297 0.3197 0.0
C479 C 0.00198 0.52113 0.33019 0.0
C480 C 0.05027 0.5175 0.30915 0.0
C481 C 0.07623 0.49972 0.29922 0.0
C482 C 0.09289 0.47869 0.31279 0.0
C483 C 0.11724 0.4619 0.3033 0.0
C484 C 0.12532 0.46611 0.28031 0.0
C485 C 0.10912 0.4872 0.26677 0.0
C486 C 0.08471 0.50404 0.27617 0.0
C487 C 0.06531 0.64623 0.32971 0.0
C488 C 0.04105 0.66613 0.32383 0.0
C489 C 0.06161 0.61438 0.32807 0.0
C490 C 0.0337 0.60184 0.32028 0.0
C491 C 0.00981 0.62178 0.31356 0.0
C492 C 0.01333 0.65369 0.31559 0.0
C493 C 0.02956 0.56791 0.31986 0.0
C494 C 0.05202 0.54977 0.309 0.0
C495 C 0.00433 0.55334 0.33079 0.0
C496 C 0.98096 0.57089 0.34398 0.0
C497 C 0.9496 0.56862 0.33822 0.0
C498 C 0.92756 0.58529 0.35055 0.0
C499 C 0.9366 0.60418 0.36876 0.0
C500 C 0.96769 0.60633 0.37474 0.0
C501 C 0.98982 0.58968 0.36249 0.0
H502 H 0.9195 0.61709 0.37827 0.0
H503 H 0.14419 0.45309 0.27299 0.0
H504 H 0.12293 0.28894 0.30263 0.0
H505 H 0.16184 0.25897 0.28191 0.0
H506 H 0.09199 0.19378 0.26138 0.0
H507 H 0.05331 0.22311 0.28252 0.0
H508 H 0.14125 0.16434 0.27528 0.0
H509 H 0.12123 0.24905 0.22414 0.0
H510 H 0.11678 0.30374 0.21304 0.0
H511 H 0.21237 0.31778 0.22883 0.0
H512 H 0.21728 0.26323 0.24033 0.0
H513 H 0.21636 0.08644 0.18589 0.0
H514 H 0.18132 0.12151 0.20574 0.0
H515 H 0.25876 0.17396 0.23071 0.0
H516 H 0.29411 0.13889 0.2108 0.0
H517 H 0.20859 0.21077 0.21576 0.0
H518 H 0.22807 0.12438 0.26545 0.0
H519 H 0.23165 0.06905 0.27485 0.0
H520 H 0.13536 0.05787 0.26023 0.0
H521 H 0.13131 0.11306 0.25039 0.0
C522 C 0.11595 0.26821 0.29369 0.0
C523 C 0.08515 0.25831 0.29419 0.0
C524 C 0.13814 0.2512 0.28177 0.0
C525 C 0.12976 0.22429 0.26989 0.0
C526 C 0.099 0.21442 0.27046 0.0
C527 C 0.07691 0.23123 0.28251 0.0
C528 C 0.153 0.20603 0.25712 0.0
C529 C 0.15571 0.17448 0.2621 0.0
C530 C 0.17241 0.21937 0.2403 0.0
C531 C 0.16953 0.25214 0.23333 0.0
C532 C 0.14124 0.26386 0.22542 0.0
C533 C 0.13865 0.29482 0.21903 0.0
C534 C 0.16425 0.31425 0.2203 0.0
C535 C 0.19254 0.30272 0.2279 0.0
C536 C 0.19525 0.27178 0.23434 0.0
C537 C 0.22595 0.10563 0.19539 0.0
C538 C 0.25796 0.10982 0.19696 0.0
C539 C 0.20591 0.12558 0.20675 0.0
C540 C 0.21753 0.15003 0.2199 0.0
C541 C 0.24941 0.15514 0.22068 0.0
C542 C 0.26953 0.13508 0.20936 0.0
C543 C 0.19635 0.16918 0.23373 0.0
C544 C 0.19414 0.2008 0.22901 0.0
C545 C 0.1772 0.15591 0.25069 0.0
C546 C 0.17945 0.12281 0.257 0.0
C547 C 0.2077 0.11008 0.2641 0.0
C548 C 0.20981 0.07875 0.26952 0.0
C549 C 0.18377 0.05994 0.26809 0.0
C550 C 0.15553 0.07246 0.26131 0.0
C551 C 0.1533 0.10377 0.25583 0.0
H552 H 0.18546 0.03568 0.27227 0.0
H553 H 0.1622 0.33821 0.21534 0.0
H554 H 0.01278 0.22846 0.7067 0.0
H555 H 0.97448 0.19721 0.72658 0.0
H556 H 0.90606 0.26785 0.71547 0.0
H557 H 0.94462 0.29963 0.69572 0.0
H558 H 0.90302 0.24423 0.75886 0.0
H559 H 0.90523 0.20466 0.68263 0.0
H560 H 0.92887 0.18475 0.64715 0.0
H561 H 0.96567 0.10754 0.68429 0.0
H562 H 0.94264 0.12724 0.72009 0.0
H563 H 0.77993 0.13899 0.78703 0.0
H564 H 0.8131 0.17635 0.76734 0.0
H565 H 0.8913 0.11645 0.77745 0.0
H566 H 0.85843 0.07917 0.79717 0.0
H567 H 0.88505 0.13695 0.73253 0.0
H568 H 0.88472 0.17892 0.8092 0.0
H569 H 0.86053 0.19921 0.84437 0.0
H570 H 0.81862 0.27217 0.80551 0.0
H571 H 0.84223 0.25203 0.77003 0.0
C572 C 0.9896 0.23741 0.70851 0.0
C573 C 0.9816 0.26638 0.69952 0.0
C574 C 0.96772 0.21948 0.71981 0.0
C575 C 0.93732 0.23001 0.72217 0.0
C576 C 0.92938 0.25927 0.71373 0.0
C577 C 0.95136 0.27733 0.70242 0.0
C578 C 0.91398 0.21009 0.73329 0.0
C579 C 0.89865 0.22096 0.75288 0.0
C580 C 0.9086 0.17961 0.72561 0.0
C581 C 0.9224 0.16758 0.70409 0.0
C582 C 0.91856 0.18356 0.68327 0.0
C583 C 0.93182 0.17229 0.66309 0.0
C584 C 0.94881 0.14493 0.66347 0.0
C585 C 0.95252 0.12875 0.68402 0.0
C586 C 0.93934 0.13994 0.70426 0.0
C587 C 0.80424 0.13392 0.78517 0.0
C588 C 0.81664 0.1062 0.79361 0.0
C589 C 0.82313 0.15528 0.77399 0.0
C590 C 0.85462 0.14913 0.77101 0.0
C591 C 0.86703 0.12157 0.77957 0.0
C592 C 0.84826 0.10037 0.79089 0.0
C593 C 0.87462 0.17086 0.75835 0.0
C594 C 0.88923 0.16032 0.73839 0.0
C595 C 0.87913 0.20163 0.76562 0.0
C596 C 0.86494 0.21375 0.78692 0.0
C597 C 0.87011 0.19911 0.80812 0.0
C598 C 0.85655 0.21062 0.82811 0.0
C599 C 0.83796 0.2369 0.82716 0.0
C600 C 0.83297 0.25178 0.80621 0.0
C601 C 0.84645 0.24034 0.78616 0.0
H602 H 0.8275 0.24579 0.84266 0.0
H603 H 0.95906 0.13624 0.64783 0.0
H604 H 0.95089 0.81047 0.32702 0.0
H605 H 0.91235 0.84061 0.30598 0.0
H606 H 0.96852 0.83581 0.24501 0.0
H607 H 0.00718 0.8061 0.26595 0.0
H608 H 0.94947 0.89358 0.25311 0.0
H609 H 0.90314 0.79271 0.25043 0.0
H610 H 0.8827 0.74444 0.2668 0.0
H611 H 0.81559 0.79578 0.30513 0.0
H612 H 0.83591 0.84441 0.28922 0.0
H613 H 0.84726 0.94734 0.1691 0.0
H614 H 0.87985 0.91279 0.19163 0.0
H615 H 0.82014 0.92473 0.25012 0.0
H616 H 0.78715 0.95919 0.22755 0.0
H617 H 0.83945 0.86445 0.2452 0.0
H618 H 0.88466 0.96495 0.24761 0.0
H619 H 0.90466 0.01352 0.23145 0.0
H620 H 0.97386 0.96331 0.19438 0.0
H621 H 0.95395 0.91435 0.21004 0.0
C622 C 0.95488 0.81569 0.30909 0.0
C623 C 0.98204 0.80599 0.29812 0.0
C624 C 0.93282 0.83279 0.29708 0.0
C625 C 0.93751 0.84029 0.27389 0.0
C626 C 0.96447 0.83031 0.26289 0.0
C627 C 0.98649 0.81327 0.27487 0.0
C628 C 0.91501 0.85954 0.2612 0.0
C629 C 0.9255 0.88699 0.25114 0.0
C630 C 0.88353 0.85144 0.25927 0.0
C631 C 0.87127 0.82222 0.26883 0.0
C632 C 0.8842 0.79372 0.2625 0.0
C633 C 0.8726 0.76629 0.27167 0.0
C634 C 0.84792 0.76705 0.28705 0.0
C635 C 0.83474 0.79523 0.29325 0.0
C636 C 0.84627 0.82273 0.28415 0.0
C637 C 0.84087 0.94238 0.18669 0.0
C638 C 0.8148 0.95613 0.19664 0.0
C639 C 0.85956 0.92271 0.19955 0.0
C640 C 0.85263 0.9166 0.22263 0.0
C641 C 0.8259 0.92925 0.23235 0.0
C642 C 0.80716 0.94896 0.21947 0.0
C643 C 0.87412 0.8981 0.23679 0.0
C644 C 0.86342 0.87098 0.24721 0.0
C645 C 0.90544 0.90652 0.23916 0.0
C646 C 0.91763 0.93595 0.22984 0.0
C647 C 0.90399 0.96424 0.23587 0.0
C648 C 0.91533 0.99184 0.22682 0.0
C649 C 0.94047 0.9915 0.21186 0.0
C650 C 0.95436 0.96354 0.20595 0.0
C651 C 0.94308 0.93585 0.21492 0.0
H652 H 0.94922 0.01289 0.20487 0.0
H653 H 0.83897 0.74578 0.29412 0.0
H654 H 0.0864 0.86577 0.69551 0.0
H655 H 0.12517 0.89705 0.71484 0.0
H656 H 0.17831 0.8153 0.7296 0.0
H657 H 0.13914 0.78365 0.71049 0.0
H658 H 0.17368 0.85189 0.76678 0.0
H659 H 0.20271 0.86521 0.68874 0.0
H660 H 0.19515 0.87598 0.64758 0.0
H661 H 0.16428 0.96755 0.66354 0.0
H662 H 0.17122 0.95719 0.70483 0.0
H663 H 0.29373 0.95115 0.80944 0.0
H664 H 0.26647 0.91151 0.78731 0.0
H665 H 0.20019 0.97949 0.7652 0.0
H666 H 0.22739 0.01906 0.7869 0.0
H667 H 0.21921 0.94437 0.72991 0.0
H668 H 0.18393 0.92792 0.80804 0.0
H669 H 0.19097 0.91681 0.84922 0.0
H670 H 0.23421 0.83058 0.83266 0.0
H671 H 0.22776 0.84138 0.79135 0.0
C672 C 0.10641 0.85443 0.70275 0.0
C673 C 0.1098 0.82229 0.70145 0.0
C674 C 0.12864 0.87236 0.7137 0.0
C675 C 0.15485 0.85855 0.72337 0.0
C676 C 0.15831 0.82641 0.72216 0.0
C677 C 0.13599 0.8084 0.71121 0.0
C678 C 0.17793 0.87784 0.7354 0.0
C679 C 0.18417 0.87175 0.75859 0.0
C680 C 0.19135 0.90391 0.72477 0.0
C681 C 0.18732 0.91034 0.69991 0.0
C682 C 0.19411 0.88757 0.68349 0.0
C683 C 0.18997 0.89362 0.66013 0.0
C684 C 0.1792 0.92241 0.65295 0.0
C685 C 0.17262 0.94525 0.66912 0.0
C686 C 0.1767 0.93932 0.69251 0.0
C687 C 0.27332 0.95755 0.79987 0.0
C688 C 0.26263 0.98815 0.79992 0.0
C689 C 0.25776 0.93491 0.78729 0.0
C690 C 0.23123 0.94255 0.7747 0.0
C691 C 0.22067 0.97312 0.77472 0.0
C692 C 0.23617 0.99568 0.78722 0.0
C693 C 0.21412 0.91898 0.76145 0.0
C694 C 0.20911 0.92422 0.73798 0.0
C695 C 0.2019 0.89213 0.77182 0.0
C696 C 0.20571 0.88563 0.79663 0.0
C697 C 0.19517 0.90671 0.81319 0.0
C698 C 0.19901 0.90045 0.83655 0.0
C699 C 0.21312 0.87305 0.84355 0.0
C700 C 0.22334 0.85182 0.82721 0.0
C701 C 0.21959 0.85799 0.80383 0.0
H702 H 0.21607 0.86824 0.86164 0.0
H703 H 0.176 0.92704 0.63486 0.0
H704 H 0.79973 0.93347 0.82371 0.0
H705 H 0.82718 0.89021 0.80619 0.0
H706 H 0.81838 0.93314 0.7397 0.0
H707 H 0.79038 0.97615 0.75703 0.0
H708 H 0.81271 0.87045 0.73695 0.0
H709 H 0.88216 0.94462 0.77179 0.0
H710 H 0.90231 0.9757 0.80389 0.0
H711 H 0.92042 0.89316 0.84234 0.0
H712 H 0.89997 0.86163 0.81056 0.0
H713 H 0.94432 0.82611 0.67417 0.0
H714 H 0.90143 0.84998 0.69455 0.0
H715 H 0.92641 0.80051 0.75609 0.0
H716 H 0.96994 0.77709 0.73587 0.0
H717 H 0.92014 0.8592 0.76482 0.0
H718 H 0.85867 0.78451 0.72658 0.0
H719 H 0.83918 0.754 0.694 0.0
H720 H 0.8065 0.8366 0.66145 0.0
H721 H 0.82619 0.86769 0.69368 0.0
C722 C 0.80322 0.93343 0.8053 0.0
C723 C 0.79332 0.95834 0.79175 0.0
C724 C 0.81888 0.90873 0.79534 0.0
C725 C 0.82521 0.90876 0.77172 0.0
C726 C 0.81374 0.93271 0.75797 0.0
C727 C 0.7979 0.95733 0.7679 0.0
C728 C 0.84629 0.88561 0.76166 0.0
C729 C 0.83624 0.86795 0.74294 0.0
C730 C 0.87671 0.88188 0.76992 0.0
C731 C 0.88922 0.90081 0.78893 0.0
C732 C 0.89024 0.93313 0.78716 0.0
C733 C 0.90174 0.95082 0.80528 0.0
C734 C 0.91255 0.93642 0.82517 0.0
C735 C 0.91198 0.90429 0.82695 0.0
C736 C 0.90045 0.8865 0.80889 0.0
C737 C 0.94041 0.81997 0.69195 0.0
C738 C 0.96056 0.79993 0.7035 0.0
C739 C 0.91572 0.83344 0.70354 0.0
C740 C 0.91049 0.82679 0.7268 0.0
C741 C 0.92998 0.8059 0.73813 0.0
C742 C 0.95482 0.79257 0.72658 0.0
C743 C 0.88683 0.84418 0.73977 0.0
C744 C 0.89644 0.86098 0.75904 0.0
C745 C 0.85608 0.84708 0.73194 0.0
C746 C 0.8441 0.82846 0.71252 0.0
C747 C 0.84753 0.79621 0.71241 0.0
C748 C 0.83641 0.7788 0.69401 0.0
C749 C 0.82165 0.79336 0.67565 0.0
C750 C 0.81794 0.82535 0.67568 0.0
C751 C 0.82903 0.84288 0.69403 0.0
H752 H 0.81306 0.77984 0.66142 0.0
H753 H 0.92145 0.95015 0.83918 0.0
H754 H 0.28373 0.93649 0.18422 0.0
H755 H 0.25707 0.89703 0.20661 0.0
H756 H 0.25822 0.95657 0.26588 0.0
H757 H 0.28544 0.996 0.24367 0.0
H758 H 0.26718 0.89599 0.27777 0.0
H759 H 0.19609 0.95534 0.2327 0.0
H760 H 0.17568 0.97885 0.1973 0.0
H761 H 0.16552 0.88911 0.16715 0.0
H762 H 0.18632 0.86509 0.2023 0.0
H763 H 0.13208 0.83949 0.33498 0.0
H764 H 0.17257 0.86971 0.31625 0.0
H765 H 0.1726 0.80624 0.2593 0.0
H766 H 0.13225 0.7759 0.2779 0.0
H767 H 0.16502 0.86686 0.24632 0.0
H768 H 0.23279 0.80764 0.29403 0.0
H769 H 0.25203 0.7858 0.33037 0.0
H770 H 0.26654 0.87698 0.35688 0.0
H771 H 0.24696 0.8994 0.3208 0.0
C772 C 0.27873 0.94099 0.20212 0.0
C773 C 0.2863 0.96941 0.21216 0.0
C774 C 0.2635 0.91845 0.21487 0.0
C775 C 0.25525 0.92413 0.23776 0.0
C776 C 0.26435 0.95179 0.24821 0.0
C777 C 0.27978 0.97431 0.23549 0.0
C778 C 0.23489 0.9024 0.25011 0.0
C779 C 0.24474 0.88976 0.27103 0.0
C780 C 0.20577 0.8941 0.24113 0.0
C781 C 0.19307 0.90845 0.22003 0.0
C782 C 0.18973 0.94064 0.21846 0.0
C783 C 0.17806 0.95405 0.19845 0.0
C784 C 0.16939 0.93549 0.17996 0.0
C785 C 0.1723 0.90346 0.18147 0.0
C786 C 0.18401 0.88993 0.20144 0.0
C787 C 0.14105 0.83176 0.31862 0.0
C788 C 0.12894 0.80548 0.30782 0.0
C789 C 0.16424 0.84894 0.30801 0.0
C790 C 0.17558 0.84009 0.28645 0.0
C791 C 0.16414 0.81336 0.27596 0.0
C792 C 0.14113 0.79608 0.28662 0.0
C793 C 0.19734 0.86017 0.27392 0.0
C794 C 0.1876 0.87276 0.25298 0.0
C795 C 0.22632 0.86861 0.28306 0.0
C796 C 0.23812 0.8552 0.30478 0.0
C797 C 0.23982 0.82305 0.30768 0.0
C798 C 0.25084 0.81056 0.32822 0.0
C799 C 0.26043 0.82999 0.34595 0.0
C800 C 0.25908 0.86196 0.34315 0.0
C801 C 0.24804 0.87457 0.32264 0.0
H802 H 0.26897 0.82027 0.36183 0.0
H803 H 0.16035 0.94592 0.16448 0.0
H804 H 0.12885 0.2429 0.67607 0.0
H805 H 0.17019 0.22108 0.69915 0.0
H806 H 0.18358 0.30905 0.73228 0.0
H807 H 0.14121 0.33083 0.70965 0.0
H808 H 0.22855 0.22863 0.70688 0.0
H809 H 0.19974 0.29599 0.78876 0.0
H810 H 0.1567 0.32511 0.80604 0.0
H811 H 0.09176 0.2703 0.76833 0.0
H812 H 0.13439 0.24067 0.75107 0.0
H813 H 0.32021 0.15482 0.7917 0.0
H814 H 0.29819 0.19774 0.76973 0.0
H815 H 0.20723 0.17204 0.7928 0.0
H816 H 0.22918 0.13027 0.81542 0.0
H817 H 0.20991 0.23101 0.79084 0.0
H818 H 0.23966 0.14737 0.73981 0.0
H819 H 0.27666 0.11136 0.72204 0.0
H820 H 0.32986 0.18773 0.69697 0.0
H821 H 0.29331 0.22417 0.71483 0.0
C822 C 0.14088 0.25777 0.68801 0.0
C823 C 0.13153 0.28843 0.69132 0.0
C824 C 0.16465 0.2453 0.70113 0.0
C825 C 0.17969 0.26329 0.71771 0.0
C826 C 0.17192 0.2946 0.71986 0.0
C827 C 0.1478 0.30703 0.7069 0.0
C828 C 0.20107 0.24809 0.73404 0.0
C829 C 0.22479 0.22951 0.72527 0.0
C830 C 0.19604 0.24898 0.75803 0.0
C831 C 0.17024 0.26647 0.76841 0.0
C832 C 0.17626 0.29017 0.7842 0.0
C833 C 0.15195 0.30674 0.79398 0.0
C834 C 0.12152 0.29965 0.7882 0.0
C835 C 0.11533 0.27586 0.77271 0.0
C836 C 0.13955 0.25919 0.76292 0.0
C837 C 0.29558 0.15872 0.79231 0.0
C838 C 0.27634 0.13911 0.80508 0.0
C839 C 0.28302 0.18314 0.77972 0.0
C840 C 0.25099 0.18783 0.7793 0.0
C841 C 0.23201 0.16899 0.79287 0.0
C842 C 0.24456 0.14499 0.80572 0.0
C843 C 0.23658 0.2106 0.7636 0.0
C844 C 0.21433 0.2308 0.77251 0.0
C845 C 0.24215 0.21029 0.73966 0.0
C846 C 0.26402 0.18844 0.72887 0.0
C847 C 0.25937 0.15644 0.73062 0.0
C848 C 0.28023 0.13597 0.72053 0.0
C849 C 0.30565 0.14725 0.70846 0.0
C850 C 0.3102 0.17903 0.70638 0.0
C851 C 0.28943 0.1996 0.71648 0.0
H852 H 0.32178 0.13137 0.70065 0.0
H853 H 0.10274 0.31252 0.79578 0.0
H854 H 0.93028 0.23911 0.32097 0.0
H855 H 0.89497 0.21024 0.29647 0.0
H856 H 0.90508 0.27875 0.24331 0.0
H857 H 0.94079 0.30763 0.26766 0.0
H858 H 0.84124 0.21877 0.27309 0.0
H859 H 0.91563 0.23933 0.19296 0.0
H860 H 0.96867 0.25494 0.18302 0.0
H861 H 0.00175 0.21719 0.24656 0.0
H862 H 0.94902 0.20096 0.25667 0.0
H863 H 0.77193 0.13304 0.18266 0.0
H864 H 0.79586 0.17654 0.20266 0.0
H865 H 0.87799 0.12233 0.21343 0.0
H866 H 0.85448 0.07908 0.19318 0.0
H867 H 0.89266 0.18009 0.20267 0.0
H868 H 0.8233 0.12887 0.25505 0.0
H869 H 0.77307 0.10868 0.26788 0.0
H870 H 0.73437 0.1997 0.26441 0.0
H871 H 0.78432 0.22036 0.25126 0.0
C872 C 0.92444 0.2484 0.30427 0.0
C873 C 0.93862 0.27534 0.29606 0.0
C874 C 0.90416 0.23195 0.29033 0.0
C875 C 0.89784 0.24214 0.26797 0.0
C876 C 0.91001 0.27035 0.26043 0.0
C877 C 0.93034 0.28682 0.27437 0.0
C878 C 0.88174 0.22135 0.25185 0.0
C879 C 0.85225 0.21062 0.25752 0.0
C880 C 0.89644 0.21028 0.2318 0.0
C881 C 0.92835 0.2193 0.22567 0.0
C882 C 0.93426 0.23428 0.20475 0.0
C883 C 0.96426 0.24323 0.19909 0.0
C884 C 0.98854 0.23716 0.21419 0.0
C885 C 0.98291 0.22197 0.23491 0.0
C886 C 0.95298 0.2129 0.24062 0.0
C887 C 0.79523 0.13057 0.18907 0.0
C888 C 0.8113 0.10265 0.18651 0.0
C889 C 0.8088 0.15537 0.20053 0.0
C890 C 0.83854 0.15251 0.20975 0.0
C891 C 0.85502 0.12503 0.20642 0.0
C892 C 0.84153 0.1003 0.19492 0.0
C893 C 0.85212 0.17736 0.22391 0.0
C894 C 0.88124 0.18881 0.2179 0.0
C895 C 0.83739 0.18845 0.24396 0.0
C896 C 0.80741 0.17608 0.25191 0.0
C897 C 0.80401 0.14453 0.25685 0.0
C898 C 0.7756 0.13301 0.26421 0.0
C899 C 0.75051 0.15288 0.26688 0.0
C900 C 0.7538 0.18433 0.26228 0.0
C901 C 0.78215 0.19596 0.25488 0.0
H902 H 0.72854 0.14392 0.27259 0.0
H903 H 0.01173 0.24417 0.2098 0.0
loop_
_geom_bond_atom_site_label_1
_geom_bond_atom_site_label_2
_geom_bond_distance
_geom_bond_site_symmetry_2
_ccdc_geom_bond_type
In0 O1 2.294 . S
In0 O2 2.326 . S
In0 O6 2.266 . S
In0 O7 2.326 . S
In0 O8 2.266 1_545 S
In0 O9 2.326 . S
In0 O11 2.294 . S
In0 O12 2.326 . S
O1 In0 2.294 . S
O1 C10 1.240 . S
O2 In0 2.326 . S
O2 C10 1.252 . S
C3 O6 1.252 . S
C3 O7 1.260 . S
C4 O11 1.240 . S
C4 O12 1.252 . S
C5 O8 1.252 . S
C5 O9 1.260 1_565 S
O6 In0 2.266 . S
O6 C3 1.252 . S
O7 In0 2.326 . S
O7 C3 1.260 . S
O8 In0 2.266 1_565 S
O8 C5 1.252 . S
O9 In0 2.326 . S
O9 C5 1.260 1_545 S
C10 O1 1.240 . S
C10 O2 1.252 . S
O11 In0 2.294 . S
O11 C4 1.240 . S
O12 In0 2.326 . S
O12 C4 1.252 . S
In13 O14 2.294 . S
In13 O15 2.326 . S
In13 O19 2.266 . S
In13 O20 2.326 . S
In13 O21 2.266 . S
In13 O22 2.326 . S
In13 O24 2.294 . S
In13 O25 2.326 . S
O14 In13 2.294 . S
O14 C23 1.240 . S
O15 In13 2.326 . S
O15 C23 1.252 . S
C16 O19 1.252 . S
C16 O20 1.260 . S
C17 O24 1.240 . S
C17 O25 1.252 . S
C18 O21 1.252 . S
C18 O22 1.260 . S
O19 In13 2.266 . S
O19 C16 1.252 . S
O20 In13 2.326 . S
O20 C16 1.260 . S
O21 In13 2.266 . S
O21 C18 1.252 . S
O22 In13 2.326 . S
O22 C18 1.260 . S
C23 O14 1.240 . S
C23 O15 1.252 . S
O24 In13 2.294 . S
O24 C17 1.240 . S
O25 In13 2.326 . S
O25 C17 1.252 . S
In26 O27 2.294 . S
In26 O28 2.326 . S
In26 O32 2.266 . S
In26 O33 2.326 . S
In26 O34 2.266 . S
In26 O35 2.326 . S
In26 O37 2.294 . S
In26 O38 2.326 . S
O27 In26 2.294 . S
O27 C36 1.240 . S
O28 In26 2.326 . S
O28 C36 1.252 . S
C29 O32 1.252 . S
C29 O33 1.260 . S
C30 O37 1.240 . S
C30 O38 1.252 . S
C31 O34 1.252 . S
C31 O35 1.260 . S
O32 In26 2.266 . S
O32 C29 1.252 . S
O33 In26 2.326 . S
O33 C29 1.260 . S
O34 In26 2.266 . S
O34 C31 1.252 . S
O35 In26 2.326 . S
O35 C31 1.260 . S
C36 O27 1.240 . S
C36 O28 1.252 . S
O37 In26 2.294 . S
O37 C30 1.240 . S
O38 In26 2.326 . S
O38 C30 1.252 . S
In39 O40 2.294 . S
In39 O41 2.326 . S
In39 O45 2.266 1_455 S
In39 O46 2.326 . S
In39 O47 2.266 . S
In39 O48 2.326 . S
In39 O50 2.294 . S
In39 O51 2.326 . S
O40 In39 2.294 . S
O40 C49 1.240 . S
O41 In39 2.326 . S
O41 C49 1.252 . S
C42 O45 1.252 . S
C42 O46 1.260 1_655 S
C43 O50 1.240 . S
C43 O51 1.252 . S
C44 O47 1.252 . S
C44 O48 1.260 . S
O45 In39 2.266 1_655 S
O45 C42 1.252 . S
O46 In39 2.326 . S
O46 C42 1.260 1_455 S
O47 In39 2.266 . S
O47 C44 1.252 . S
O48 In39 2.326 . S
O48 C44 1.260 . S
C49 O40 1.240 . S
C49 O41 1.252 . S
O50 In39 2.294 . S
O50 C43 1.240 . S
O51 In39 2.326 . S
O51 C43 1.252 . S
In52 O53 2.294 . S
In52 O54 2.326 . S
In52 O58 2.266 . S
In52 O59 2.326 . S
In52 O60 2.266 . S
In52 O61 2.326 . S
In52 O63 2.294 . S
In52 O64 2.326 . S
O53 In52 2.294 . S
O53 C62 1.240 . S
O54 In52 2.326 . S
O54 C62 1.252 . S
C55 O58 1.252 . S
C55 O59 1.260 . S
C56 O63 1.240 . S
C56 O64 1.252 . S
C57 O60 1.252 . S
C57 O61 1.260 . S
O58 In52 2.266 . S
O58 C55 1.252 . S
O59 In52 2.326 . S
O59 C55 1.260 . S
O60 In52 2.266 . S
O60 C57 1.252 . S
O61 In52 2.326 . S
O61 C57 1.260 . S
C62 O53 1.240 . S
C62 O54 1.252 . S
O63 In52 2.294 . S
O63 C56 1.240 . S
O64 In52 2.326 . S
O64 C56 1.252 . S
In65 O66 2.294 . S
In65 O67 2.326 . S
In65 O71 2.266 . S
In65 O72 2.326 . S
In65 O73 2.266 1_455 S
In65 O74 2.326 . S
In65 O76 2.294 . S
In65 O77 2.326 . S
O66 In65 2.294 . S
O66 C75 1.240 . S
O67 In65 2.326 . S
O67 C75 1.252 . S
C68 O71 1.252 . S
C68 O72 1.260 . S
C69 O76 1.240 . S
C69 O77 1.252 . S
C70 O73 1.252 . S
C70 O74 1.260 1_655 S
O71 In65 2.266 . S
O71 C68 1.252 . S
O72 In65 2.326 . S
O72 C68 1.260 . S
O73 In65 2.266 1_655 S
O73 C70 1.252 . S
O74 In65 2.326 . S
O74 C70 1.260 1_455 S
C75 O66 1.240 . S
C75 O67 1.252 . S
O76 In65 2.294 . S
O76 C69 1.240 . S
O77 In65 2.326 . S
O77 C69 1.252 . S
In78 O79 2.294 . S
In78 O80 2.326 . S
In78 O84 2.266 1_545 S
In78 O85 2.326 . S
In78 O86 2.266 . S
In78 O87 2.326 . S
In78 O89 2.294 . S
In78 O90 2.326 . S
O79 In78 2.294 . S
O79 C88 1.240 . S
O80 In78 2.326 . S
O80 C88 1.252 . S
C81 O84 1.252 . S
C81 O85 1.260 1_565 S
C82 O89 1.240 . S
C82 O90 1.252 . S
C83 O86 1.252 . S
C83 O87 1.260 . S
O84 In78 2.266 1_565 S
O84 C81 1.252 . S
O85 In78 2.326 . S
O85 C81 1.260 1_545 S
O86 In78 2.266 . S
O86 C83 1.252 . S
O87 In78 2.326 . S
O87 C83 1.260 . S
C88 O79 1.240 . S
C88 O80 1.252 . S
O89 In78 2.294 . S
O89 C82 1.240 . S
O90 In78 2.326 . S
O90 C82 1.252 . S
In91 O92 2.294 . S
In91 O93 2.326 . S
In91 O97 2.266 . S
In91 O98 2.326 . S
In91 O99 2.266 . S
In91 O100 2.326 . S
In91 O102 2.294 . S
In91 O103 2.326 . S
O92 In91 2.294 . S
O92 C101 1.240 . S
O93 In91 2.326 . S
O93 C101 1.252 . S
C94 O97 1.252 . S
C94 O98 1.260 . S
C95 O102 1.240 . S
C95 O103 1.252 . S
C96 O99 1.252 . S
C96 O100 1.260 . S
O97 In91 2.266 . S
O97 C94 1.252 . S
O98 In91 2.326 . S
O98 C94 1.260 . S
O99 In91 2.266 . S
O99 C96 1.252 . S
O100 In91 2.326 . S
O100 C96 1.260 . S
C101 O92 1.240 . S
C101 O93 1.252 . S
O102 In91 2.294 . S
O102 C95 1.240 . S
O103 In91 2.326 . S
O103 C95 1.252 . S
H104 C122 0.951 . S
H105 C124 0.951 . S
H106 C126 0.950 . S
H107 C127 0.950 . S
H108 C129 0.950 1_565 S
H109 C132 0.950 . S
H110 C133 0.950 . S
H111 C135 0.950 . S
H112 C136 0.950 . S
H113 C137 0.951 . S
H114 C139 0.951 . S
H115 C141 0.950 . S
H116 C142 0.950 . S
H117 C144 0.950 . S
H118 C147 0.950 . S
H119 C148 0.950 . S
H120 C150 0.950 . S
H121 C151 0.950 . S
C122 H104 0.951 . S
C122 C123 1.366 . S
C122 C124 1.388 . S
C123 C122 1.366 . S
C123 C127 1.385 . S
C124 H105 0.951 . S
C124 C122 1.388 . S
C124 C125 1.366 . S
C125 C124 1.366 . S
C125 C126 1.414 . S
C125 C128 1.499 . S
C126 H106 0.950 . S
C126 C125 1.414 . S
C126 C127 1.374 . S
C127 H107 0.950 . S
C127 C123 1.385 . S
C127 C126 1.374 . S
C128 C125 1.499 . S
C128 C129 1.373 . S
C128 C130 1.389 . S
C129 H108 0.950 1_545 S
C129 C128 1.373 . S
C129 C145 1.377 1_554 S
C130 C128 1.389 . S
C130 C131 1.524 . S
C130 C144 1.377 1_554 S
C131 C130 1.524 . S
C131 C132 1.397 . S
C131 C136 1.363 . S
C132 H109 0.950 . S
C132 C131 1.397 . S
C132 C133 1.334 . S
C133 H110 0.950 . S
C133 C132 1.334 . S
C133 C134 1.287 . S
C134 C133 1.287 . S
C134 C135 1.524 . S
C134 H153 0.913 . S
C135 H111 0.950 . S
C135 C134 1.524 . S
C135 C136 1.415 . S
C136 H112 0.950 . S
C136 C131 1.363 . S
C136 C135 1.415 . S
C137 H113 0.951 . S
C137 C138 1.366 . S
C137 C139 1.388 . S
C138 C137 1.366 . S
C138 C142 1.385 . S
C139 H114 0.951 . S
C139 C137 1.388 . S
C139 C140 1.366 . S
C140 C139 1.366 . S
C140 C141 1.414 . S
C140 C143 1.499 . S
C141 H115 0.950 . S
C141 C140 1.414 . S
C141 C142 1.374 . S
C142 H116 0.950 . S
C142 C138 1.385 . S
C142 C141 1.374 . S
C143 C140 1.499 . S
C143 C144 1.373 . S
C143 C145 1.389 . S
C144 H117 0.950 . S
C144 C130 1.377 1_556 S
C144 C143 1.373 . S
C145 C129 1.377 1_556 S
C145 C143 1.389 . S
C145 C146 1.524 1_545 S
C146 C145 1.524 1_565 S
C146 C147 1.397 . S
C146 C151 1.363 . S
C147 H118 0.950 . S
C147 C146 1.397 . S
C147 C148 1.334 . S
C148 H119 0.950 . S
C148 C147 1.334 . S
C148 C149 1.287 . S
C149 C148 1.287 . S
C149 C150 1.524 . S
C149 H152 0.999 . S
C150 H120 0.950 . S
C150 C149 1.524 . S
C150 C151 1.415 . S
C151 H121 0.950 . S
C151 C146 1.363 . S
C151 C150 1.415 . S
H152 C149 0.999 . S
H153 C134 0.913 . S
H154 C172 0.951 1_655 S
H155 C174 0.951 1_655 S
H156 C176 0.950 . S
H157 C177 0.950 . S
H158 C179 0.950 . S
H159 C182 0.950 . S
H160 C183 0.950 1_455 S
H161 C185 0.950 . S
H162 C186 0.950 . S
H163 C187 0.951 . S
H164 C189 0.951 . S
H165 C191 0.950 1_655 S
H166 C192 0.950 1_655 S
H167 C194 0.950 . S
H168 C197 0.950 . S
H169 C198 0.950 . S
H170 C200 0.950 . S
H171 C201 0.950 . S
C172 H154 0.951 1_455 S
C172 C173 1.366 . S
C172 C174 1.388 . S
C173 C172 1.366 . S
C173 C177 1.385 . S
C174 H155 0.951 1_455 S
C174 C172 1.388 . S
C174 C175 1.366 . S
C175 C174 1.366 . S
C175 C176 1.414 . S
C175 C178 1.499 . S
C176 H156 0.950 . S
C176 C175 1.414 . S
C176 C177 1.374 . S
C177 H157 0.950 . S
C177 C173 1.385 . S
C177 C176 1.374 . S
C178 C175 1.499 . S
C178 C179 1.373 . S
C178 C180 1.389 . S
C179 H158 0.950 . S
C179 C178 1.373 . S
C179 C195 1.377 . S
C180 C178 1.389 . S
C180 C181 1.505 1_455 S
C180 C194 1.377 . S
C181 C180 1.505 1_655 S
C181 C182 1.383 1_655 S
C181 C186 1.394 . S
C182 H159 0.950 . S
C182 C181 1.383 1_455 S
C182 C183 1.334 1_455 S
C183 H160 0.950 1_655 S
C183 C182 1.334 1_655 S
C183 C184 1.287 . S
C184 C183 1.287 . S
C184 C185 1.524 . S
C184 H203 0.913 . S
C185 H161 0.950 . S
C185 C184 1.524 . S
C185 C186 1.415 . S
C186 H162 0.950 . S
C186 C181 1.394 . S
C186 C185 1.415 . S
C187 H163 0.951 . S
C187 C188 1.366 . S
C187 C189 1.388 . S
C188 C187 1.366 . S
C188 C192 1.385 . S
C189 H164 0.951 . S
C189 C187 1.388 . S
C189 C190 1.366 . S
C190 C189 1.366 . S
C190 C191 1.414 . S
C190 C193 1.499 . S
C191 H165 0.950 1_455 S
C191 C190 1.414 . S
C191 C192 1.374 . S
C192 H166 0.950 1_455 S
C192 C188 1.385 . S
C192 C191 1.374 . S
C193 C190 1.499 . S
C193 C194 1.373 . S
C193 C195 1.389 . S
C194 H167 0.950 . S
C194 C180 1.377 . S
C194 C193 1.373 . S
C195 C179 1.377 . S
C195 C193 1.389 . S
C195 C196 1.524 . S
C196 C195 1.524 . S
C196 C197 1.397 . S
C196 C201 1.363 . S
C197 H168 0.950 . S
C197 C196 1.397 . S
C197 C198 1.334 . S
C198 H169 0.950 . S
C198 C197 1.334 . S
C198 C199 1.287 . S
C199 C198 1.287 . S
C199 C200 1.524 . S
C199 H202 0.999 . S
C200 H170 0.950 . S
C200 C199 1.524 . S
C200 C201 1.415 . S
C201 H171 0.950 . S
C201 C196 1.363 . S
C201 C200 1.415 . S
H202 C199 0.999 . S
H203 C184 0.913 . S
H204 C222 0.951 . S
H205 C224 0.951 . S
H206 C226 0.950 . S
H207 C227 0.950 . S
H208 C229 0.950 . S
H209 C232 0.950 . S
H210 C233 0.950 . S
H211 C235 0.964 . S
H212 C236 0.942 1_565 S
H213 C237 0.951 . S
H214 C239 0.951 . S
H215 C241 0.950 . S
H216 C242 0.950 . S
H217 C244 0.950 . S
H218 C247 0.950 . S
H219 C248 0.959 . S
H220 C250 0.950 . S
H221 C251 0.950 . S
C222 H204 0.951 . S
C222 C223 1.366 . S
C222 C224 1.388 . S
C223 C222 1.366 . S
C223 C227 1.385 . S
C224 H205 0.951 . S
C224 C222 1.388 . S
C224 C225 1.366 . S
C225 C224 1.366 . S
C225 C226 1.414 . S
C225 C228 1.499 . S
C226 H206 0.950 . S
C226 C225 1.414 . S
C226 C227 1.374 . S
C227 H207 0.950 . S
C227 C223 1.385 . S
C227 C226 1.374 . S
C228 C225 1.499 . S
C228 C229 1.373 . S
C228 C230 1.389 . S
C229 H208 0.950 . S
C229 C228 1.373 . S
C229 C245 1.377 1_556 S
C230 C228 1.389 . S
C230 C231 1.524 . S
C230 C244 1.377 1_556 S
C231 C230 1.524 . S
C231 C232 1.397 . S
C231 C236 1.363 . S
C232 H209 0.950 . S
C232 C231 1.397 . S
C232 C233 1.334 . S
C233 H210 0.950 . S
C233 C232 1.334 . S
C233 C234 1.287 . S
C234 C233 1.287 . S
C234 C235 1.524 . S
C234 H253 0.913 . S
C235 H211 0.964 . S
C235 C234 1.524 . S
C235 C236 1.415 . S
C236 H212 0.942 1_545 S
C236 C231 1.363 . S
C236 C235 1.415 . S
C237 H213 0.951 . S
C237 C238 1.366 . S
C237 C239 1.388 . S
C238 C237 1.366 . S
C238 C242 1.385 . S
C239 H214 0.951 . S
C239 C237 1.388 . S
C239 C240 1.366 . S
C240 C239 1.366 . S
C240 C241 1.414 . S
C240 C243 1.499 . S
C241 H215 0.950 . S
C241 C240 1.414 . S
C241 C242 1.374 . S
C242 H216 0.950 . S
C242 C238 1.385 . S
C242 C241 1.374 . S
C243 C240 1.499 . S
C243 C244 1.373 . S
C243 C245 1.389 . S
C244 H217 0.950 . S
C244 C230 1.377 1_554 S
C244 C243 1.373 . S
C245 C229 1.377 1_554 S
C245 C243 1.389 . S
C245 C246 1.524 . S
C246 C245 1.524 . S
C246 C247 1.397 . S
C246 C251 1.363 . S
C247 H218 0.950 . S
C247 C246 1.397 . S
C247 C248 1.334 . S
C248 H219 0.959 . S
C248 C247 1.334 . S
C248 C249 1.287 . S
C249 C248 1.287 . S
C249 C250 1.524 . S
C249 H252 0.999 . S
C250 H220 0.950 . S
C250 C249 1.524 . S
C250 C251 1.415 . S
C251 H221 0.950 . S
C251 C246 1.363 . S
C251 C250 1.415 . S
H252 C249 0.999 . S
H253 C234 0.913 . S
H254 C272 0.951 . S
H255 C274 0.951 . S
H256 C276 0.950 . S
H257 C277 0.950 . S
H258 C279 0.950 . S
H259 C282 0.950 . S
H260 C283 0.950 . S
H261 C285 0.950 . S
H262 C286 0.950 . S
H263 C287 0.951 . S
H264 C289 0.951 . S
H265 C291 0.950 . S
H266 C292 0.950 . S
H267 C294 0.950 . S
H268 C297 0.950 . S
H269 C298 0.950 . S
H270 C300 0.950 1_455 S
H271 C301 0.950 . S
C272 H254 0.951 . S
C272 C273 1.366 . S
C272 C274 1.388 . S
C273 C272 1.366 . S
C273 C277 1.385 . S
C274 H255 0.951 . S
C274 C272 1.388 . S
C274 C275 1.366 . S
C275 C274 1.366 . S
C275 C276 1.414 . S
C275 C278 1.499 . S
C276 H256 0.950 . S
C276 C275 1.414 . S
C276 C277 1.374 . S
C277 H257 0.950 . S
C277 C273 1.385 . S
C277 C276 1.374 . S
C278 C275 1.499 . S
C278 C279 1.373 . S
C278 C280 1.389 . S
C279 H258 0.950 . S
C279 C278 1.373 . S
C279 C295 1.377 . S
C280 C278 1.389 . S
C280 C281 1.524 . S
C280 C294 1.377 . S
C281 C280 1.524 . S
C281 C282 1.397 . S
C281 C286 1.363 . S
C282 H259 0.950 . S
C282 C281 1.397 . S
C282 C283 1.334 . S
C283 H260 0.950 . S
C283 C282 1.334 . S
C283 C284 1.287 . S
C284 C283 1.287 . S
C284 C285 1.524 . S
C284 H303 0.913 . S
C285 H261 0.950 . S
C285 C284 1.524 . S
C285 C286 1.415 . S
C286 H262 0.950 . S
C286 C281 1.363 . S
C286 C285 1.415 . S
C287 H263 0.951 . S
C287 C288 1.366 . S
C287 C289 1.388 . S
C288 C287 1.366 . S
C288 C292 1.385 . S
C289 H264 0.951 . S
C289 C287 1.388 . S
C289 C290 1.366 . S
C290 C289 1.366 . S
C290 C291 1.414 . S
C290 C293 1.499 . S
C291 H265 0.950 . S
C291 C290 1.414 . S
C291 C292 1.374 . S
C292 H266 0.950 . S
C292 C288 1.385 . S
C292 C291 1.374 . S
C293 C290 1.499 . S
C293 C294 1.373 . S
C293 C295 1.389 . S
C294 H267 0.950 . S
C294 C280 1.377 . S
C294 C293 1.373 . S
C295 C279 1.377 . S
C295 C293 1.389 . S
C295 C296 1.524 . S
C296 C295 1.524 . S
C296 C297 1.397 1_455 S
C296 C301 1.363 . S
C297 H268 0.950 . S
C297 C296 1.397 1_655 S
C297 C298 1.334 . S
C298 H269 0.950 . S
C298 C297 1.334 . S
C298 C299 1.287 . S
C299 C298 1.287 . S
C299 C300 1.524 . S
C299 H302 0.999 . S
C300 H270 0.950 1_655 S
C300 C299 1.524 . S
C300 C301 1.415 1_655 S
C301 H271 0.950 . S
C301 C296 1.363 . S
C301 C300 1.415 1_455 S
H302 C299 0.999 . S
H303 C284 0.913 . S
H304 C322 0.951 . S
H305 C324 0.951 1_565 S
H306 C326 0.950 . S
H307 C327 0.950 . S
H308 C329 0.950 . S
H309 C332 0.950 1_545 S
H310 C333 0.950 . S
H311 C335 0.950 . S
H312 C336 0.950 . S
H313 C337 0.951 . S
H314 C339 0.951 . S
H315 C341 0.950 . S
H316 C342 0.950 . S
H317 C344 0.950 . S
H318 C347 0.950 . S
H319 C348 0.950 . S
H320 C350 0.950 . S
H321 C351 0.950 . S
C322 H304 0.951 . S
C322 C323 1.366 1_565 S
C322 C324 1.388 1_565 S
C323 C322 1.366 1_545 S
C323 C327 1.385 . S
C324 H305 0.951 1_545 S
C324 C322 1.388 1_545 S
C324 C325 1.366 . S
C325 C324 1.366 . S
C325 C326 1.414 . S
C325 C328 1.499 . S
C326 H306 0.950 . S
C326 C325 1.414 . S
C326 C327 1.374 . S
C327 H307 0.950 . S
C327 C323 1.385 . S
C327 C326 1.374 . S
C328 C325 1.499 . S
C328 C329 1.373 . S
C328 C330 1.389 . S
C329 H308 0.950 . S
C329 C328 1.373 . S
C329 C345 1.377 . S
C330 C328 1.389 . S
C330 C331 1.524 1_545 S
C330 C344 1.377 . S
C331 C330 1.524 1_565 S
C331 C332 1.397 . S
C331 C336 1.363 . S
C332 H309 0.950 1_565 S
C332 C331 1.397 . S
C332 C333 1.334 . S
C333 H310 0.950 . S
C333 C332 1.334 . S
C333 C334 1.287 . S
C334 C333 1.287 . S
C334 C335 1.524 . S
C334 H353 0.913 . S
C335 H311 0.950 . S
C335 C334 1.524 . S
C335 C336 1.415 . S
C336 H312 0.950 . S
C336 C331 1.363 . S
C336 C335 1.415 . S
C337 H313 0.951 . S
C337 C338 1.366 . S
C337 C339 1.388 . S
C338 C337 1.366 . S
C338 C342 1.385 . S
C339 H314 0.951 . S
C339 C337 1.388 . S
C339 C340 1.366 . S
C340 C339 1.366 . S
C340 C341 1.414 . S
C340 C343 1.499 . S
C341 H315 0.950 . S
C341 C340 1.414 . S
C341 C342 1.374 . S
C342 H316 0.950 . S
C342 C338 1.385 . S
C342 C341 1.374 . S
C343 C340 1.499 . S
C343 C344 1.373 . S
C343 C345 1.389 . S
C344 H317 0.950 . S
C344 C330 1.377 . S
C344 C343 1.373 . S
C345 C329 1.377 . S
C345 C343 1.389 . S
C345 C346 1.524 . S
C346 C345 1.524 . S
C346 C347 1.397 . S
C346 C351 1.363 . S
C347 H318 0.950 . S
C347 C346 1.397 . S
C347 C348 1.334 . S
C348 H319 0.950 . S
C348 C347 1.334 . S
C348 C349 1.287 . S
C349 C348 1.287 . S
C349 C350 1.524 . S
C349 H352 0.999 . S
C350 H320 0.950 . S
C350 C349 1.524 . S
C350 C351 1.415 . S
C351 H321 0.950 . S
C351 C346 1.363 . S
C351 C350 1.415 . S
H352 C349 0.999 . S
H353 C334 0.913 . S
H354 C372 0.951 . S
H355 C374 0.951 . S
H356 C376 0.950 . S
H357 C377 0.950 . S
H358 C379 0.950 . S
H359 C382 0.950 . S
H360 C383 0.950 . S
H361 C385 0.950 . S
H362 C386 0.950 . S
H363 C387 0.951 . S
H364 C389 0.951 . S
H365 C391 0.950 . S
H366 C392 0.950 . S
H367 C394 0.950 . S
H368 C397 0.950 . S
H369 C398 0.950 . S
H370 C400 0.950 . S
H371 C401 0.950 . S
C372 H354 0.951 . S
C372 C373 1.366 . S
C372 C374 1.388 . S
C373 C372 1.366 . S
C373 C377 1.385 . S
C374 H355 0.951 . S
C374 C372 1.388 . S
C374 C375 1.366 . S
C375 C374 1.366 . S
C375 C376 1.414 . S
C375 C378 1.499 . S
C376 H356 0.950 . S
C376 C375 1.414 . S
C376 C377 1.374 . S
C377 H357 0.950 . S
C377 C373 1.385 . S
C377 C376 1.374 . S
C378 C375 1.499 . S
C378 C379 1.373 . S
C378 C380 1.389 . S
C379 H358 0.950 . S
C379 C378 1.373 . S
C379 C395 1.377 . S
C380 C378 1.389 . S
C380 C381 1.524 . S
C380 C394 1.377 . S
C381 C380 1.524 . S
C381 C382 1.397 1_455 S
C381 C386 1.363 . S
C382 H359 0.950 . S
C382 C381 1.397 1_655 S
C382 C383 1.334 . S
C383 H360 0.950 . S
C383 C382 1.334 . S
C383 C384 1.287 . S
C384 C383 1.287 . S
C384 C385 1.524 . S
C384 H403 0.913 . S
C385 H361 0.950 . S
C385 C384 1.524 . S
C385 C386 1.415 1_655 S
C386 H362 0.950 . S
C386 C381 1.363 . S
C386 C385 1.415 1_455 S
C387 H363 0.951 . S
C387 C388 1.366 . S
C387 C389 1.388 . S
C388 C387 1.366 . S
C388 C392 1.385 . S
C389 H364 0.951 . S
C389 C387 1.388 . S
C389 C390 1.366 . S
C390 C389 1.366 . S
C390 C391 1.414 . S
C390 C393 1.499 . S
C391 H365 0.950 . S
C391 C390 1.414 . S
C391 C392 1.374 . S
C392 H366 0.950 . S
C392 C388 1.385 . S
C392 C391 1.374 . S
C393 C390 1.499 . S
C393 C394 1.373 . S
C393 C395 1.389 . S
C394 H367 0.950 . S
C394 C380 1.377 . S
C394 C393 1.373 . S
C395 C379 1.377 . S
C395 C393 1.389 . S
C395 C396 1.524 . S
C396 C395 1.524 . S
C396 C397 1.397 . S
C396 C401 1.363 . S
C397 H368 0.950 . S
C397 C396 1.397 . S
C397 C398 1.334 . S
C398 H369 0.950 . S
C398 C397 1.334 . S
C398 C399 1.287 . S
C399 C398 1.287 . S
C399 C400 1.524 . S
C399 H402 0.999 . S
C400 H370 0.950 . S
C400 C399 1.524 . S
C400 C401 1.415 . S
C401 H371 0.950 . S
C401 C396 1.363 . S
C401 C400 1.415 . S
H402 C399 0.999 . S
H403 C384 0.913 . S
H404 C422 0.951 . S
H405 C424 0.951 . S
H406 C426 0.950 . S
H407 C427 0.950 . S
H408 C429 0.950 . S
H409 C432 0.950 . S
H410 C433 0.950 . S
H411 C435 0.950 . S
H412 C436 0.953 . S
H413 C437 0.951 . S
H414 C439 0.951 . S
H415 C441 0.950 . S
H416 C442 0.950 . S
H417 C444 0.950 . S
H418 C447 0.950 . S
H419 C448 0.950 . S
H420 C450 0.950 . S
H421 C451 0.950 . S
C422 H404 0.951 . S
C422 C423 1.366 . S
C422 C424 1.388 . S
C423 C422 1.366 . S
C423 C427 1.385 . S
C424 H405 0.951 . S
C424 C422 1.388 . S
C424 C425 1.366 . S
C425 C424 1.366 . S
C425 C426 1.414 . S
C425 C428 1.499 . S
C426 H406 0.950 . S
C426 C425 1.414 . S
C426 C427 1.374 . S
C427 H407 0.950 . S
C427 C423 1.385 . S
C427 C426 1.374 . S
C428 C425 1.499 . S
C428 C429 1.373 . S
C428 C430 1.389 . S
C429 H408 0.950 . S
C429 C428 1.373 . S
C429 C445 1.377 . S
C430 C428 1.389 . S
C430 C431 1.524 1_545 S
C430 C444 1.377 . S
C431 C430 1.524 1_565 S
C431 C432 1.397 . S
C431 C436 1.362 1_565 S
C432 H409 0.950 . S
C432 C431 1.397 . S
C432 C433 1.334 . S
C433 H410 0.950 . S
C433 C432 1.334 . S
C433 C434 1.287 . S
C434 C433 1.287 . S
C434 C435 1.524 . S
C434 H453 0.913 . S
C435 H411 0.950 . S
C435 C434 1.524 . S
C435 C436 1.413 1_565 S
C436 H412 0.953 . S
C436 C431 1.362 1_545 S
C436 C435 1.413 1_545 S
C437 H413 0.951 . S
C437 C438 1.366 . S
C437 C439 1.388 . S
C438 C437 1.366 . S
C438 C442 1.385 . S
C439 H414 0.951 . S
C439 C437 1.388 . S
C439 C440 1.366 . S
C440 C439 1.366 . S
C440 C441 1.414 . S
C440 C443 1.499 . S
C441 H415 0.950 . S
C441 C440 1.414 . S
C441 C442 1.374 . S
C442 H416 0.950 . S
C442 C438 1.385 . S
C442 C441 1.374 . S
C443 C440 1.499 . S
C443 C444 1.373 . S
C443 C445 1.389 . S
C444 H417 0.950 . S
C444 C430 1.377 . S
C444 C443 1.373 . S
C445 C429 1.377 . S
C445 C443 1.389 . S
C445 C446 1.524 . S
C446 C445 1.524 . S
C446 C447 1.397 . S
C446 C451 1.363 . S
C447 H418 0.950 . S
C447 C446 1.397 . S
C447 C448 1.334 . S
C448 H419 0.950 . S
C448 C447 1.334 . S
C448 C449 1.287 . S
C449 C448 1.287 . S
C449 C450 1.524 . S
C449 H452 0.999 . S
C450 H420 0.950 . S
C450 C449 1.524 . S
C450 C451 1.415 . S
C451 H421 0.950 . S
C451 C446 1.363 . S
C451 C450 1.415 . S
H452 C449 0.999 . S
H453 C434 0.913 . S
H454 C472 0.951 . S
H455 C474 0.951 . S
H456 C476 0.950 . S
H457 C477 0.950 . S
H458 C479 0.926 1_655 S
H459 C482 0.950 . S
H460 C483 0.950 . S
H461 C485 0.950 . S
H462 C486 0.950 . S
H463 C487 0.951 . S
H464 C489 0.951 . S
H465 C491 0.950 . S
H466 C492 0.950 . S
H467 C494 0.950 . S
H468 C497 0.950 . S
H469 C498 0.950 . S
H470 C500 0.950 . S
H471 C501 0.950 . S
C472 H454 0.951 . S
C472 C473 1.366 . S
C472 C474 1.388 . S
C473 C472 1.366 . S
C473 C477 1.385 . S
C474 H455 0.951 . S
C474 C472 1.388 . S
C474 C475 1.366 . S
C475 C474 1.366 . S
C475 C476 1.414 . S
C475 C478 1.499 . S
C476 H456 0.950 . S
C476 C475 1.414 . S
C476 C477 1.374 . S
C477 H457 0.950 . S
C477 C473 1.385 . S
C477 C476 1.374 . S
C478 C475 1.499 . S
C478 C479 1.373 . S
C478 C480 1.389 . S
C479 H458 0.926 1_455 S
C479 C478 1.373 . S
C479 C495 1.377 . S
C480 C478 1.389 . S
C480 C481 1.524 . S
C480 C494 1.377 . S
C481 C480 1.524 . S
C481 C482 1.397 . S
C481 C486 1.363 . S
C482 H459 0.950 . S
C482 C481 1.397 . S
C482 C483 1.334 . S
C483 H460 0.950 . S
C483 C482 1.334 . S
C483 C484 1.287 . S
C484 C483 1.287 . S
C484 C485 1.524 . S
C484 H503 0.913 . S
C485 H461 0.950 . S
C485 C484 1.524 . S
C485 C486 1.415 . S
C486 H462 0.950 . S
C486 C481 1.363 . S
C486 C485 1.415 . S
C487 H463 0.951 . S
C487 C488 1.366 . S
C487 C489 1.388 . S
C488 C487 1.366 . S
C488 C492 1.385 . S
C489 H464 0.951 . S
C489 C487 1.388 . S
C489 C490 1.366 . S
C490 C489 1.366 . S
C490 C491 1.414 . S
C490 C493 1.499 . S
C491 H465 0.950 . S
C491 C490 1.414 . S
C491 C492 1.374 . S
C492 H466 0.950 . S
C492 C488 1.385 . S
C492 C491 1.374 . S
C493 C490 1.499 . S
C493 C494 1.373 . S
C493 C495 1.389 . S
C494 H467 0.950 . S
C494 C480 1.377 . S
C494 C493 1.373 . S
C495 C479 1.377 . S
C495 C493 1.389 . S
C495 C496 1.524 1_455 S
C496 C495 1.524 1_655 S
C496 C497 1.397 . S
C496 C501 1.363 . S
C497 H468 0.950 . S
C497 C496 1.397 . S
C497 C498 1.334 . S
C498 H469 0.950 . S
C498 C497 1.334 . S
C498 C499 1.287 . S
C499 C498 1.287 . S
C499 C500 1.524 . S
C499 H502 0.999 . S
C500 H470 0.950 . S
C500 C499 1.524 . S
C500 C501 1.415 . S
C501 H471 0.950 . S
C501 C496 1.363 . S
C501 C500 1.415 . S
H502 C499 0.999 . S
H503 C484 0.913 . S
H504 C522 0.951 . S
H505 C524 0.951 . S
H506 C526 0.950 . S
H507 C527 0.950 . S
H508 C529 0.950 . S
H509 C532 0.950 . S
H510 C533 0.950 . S
H511 C535 0.950 . S
H512 C536 0.950 . S
H513 C537 0.951 . S
H514 C539 0.951 . S
H515 C541 0.950 . S
H516 C542 0.950 . S
H517 C544 0.950 . S
H518 C547 0.950 . S
H519 C548 0.950 . S
H520 C550 0.950 . S
H521 C551 0.950 . S
C522 H504 0.951 . S
C522 C523 1.366 . S
C522 C524 1.388 . S
C523 C522 1.366 . S
C523 C527 1.385 . S
C524 H505 0.951 . S
C524 C522 1.388 . S
C524 C525 1.366 . S
C525 C524 1.366 . S
C525 C526 1.414 . S
C525 C528 1.499 . S
C526 H506 0.950 . S
C526 C525 1.414 . S
C526 C527 1.374 . S
C527 H507 0.950 . S
C527 C523 1.385 . S
C527 C526 1.374 . S
C528 C525 1.499 . S
C528 C529 1.373 . S
C528 C530 1.389 . S
C529 H508 0.950 . S
C529 C528 1.373 . S
C529 C545 1.377 . S
C530 C528 1.389 . S
C530 C531 1.524 . S
C530 C544 1.377 . S
C531 C530 1.524 . S
C531 C532 1.397 . S
C531 C536 1.363 . S
C532 H509 0.950 . S
C532 C531 1.397 . S
C532 C533 1.334 . S
C533 H510 0.950 . S
C533 C532 1.334 . S
C533 C534 1.287 . S
C534 C533 1.287 . S
C534 C535 1.524 . S
C534 H553 0.913 . S
C535 H511 0.950 . S
C535 C534 1.524 . S
C535 C536 1.415 . S
C536 H512 0.950 . S
C536 C531 1.363 . S
C536 C535 1.415 . S
C537 H513 0.951 . S
C537 C538 1.366 . S
C537 C539 1.388 . S
C538 C537 1.366 . S
C538 C542 1.385 . S
C539 H514 0.951 . S
C539 C537 1.388 . S
C539 C540 1.366 . S
C540 C539 1.366 . S
C540 C541 1.414 . S
C540 C543 1.499 . S
C541 H515 0.950 . S
C541 C540 1.414 . S
C541 C542 1.374 . S
C542 H516 0.950 . S
C542 C538 1.385 . S
C542 C541 1.374 . S
C543 C540 1.499 . S
C543 C544 1.373 . S
C543 C545 1.389 . S
C544 H517 0.950 . S
C544 C530 1.377 . S
C544 C543 1.373 . S
C545 C529 1.377 . S
C545 C543 1.389 . S
C545 C546 1.524 . S
C546 C545 1.524 . S
C546 C547 1.397 . S
C546 C551 1.363 . S
C547 H518 0.950 . S
C547 C546 1.397 . S
C547 C548 1.334 . S
C548 H519 0.950 . S
C548 C547 1.334 . S
C548 C549 1.287 . S
C549 C548 1.287 . S
C549 C550 1.524 . S
C549 H552 0.999 . S
C550 H520 0.950 . S
C550 C549 1.524 . S
C550 C551 1.415 . S
C551 H521 0.950 . S
C551 C546 1.363 . S
C551 C550 1.415 . S
H552 C549 0.999 . S
H553 C534 0.913 . S
H554 C572 0.951 1_455 S
H555 C574 0.951 . S
H556 C576 0.950 . S
H557 C577 0.950 . S
H558 C579 0.950 . S
H559 C582 0.950 . S
H560 C583 0.950 . S
H561 C585 0.950 . S
H562 C586 0.950 . S
H563 C587 0.951 . S
H564 C589 0.951 . S
H565 C591 0.950 . S
H566 C592 0.950 . S
H567 C594 0.950 . S
H568 C597 0.950 . S
H569 C598 0.950 . S
H570 C600 0.950 . S
H571 C601 0.950 . S
C572 H554 0.951 1_655 S
C572 C573 1.366 . S
C572 C574 1.388 . S
C573 C572 1.366 . S
C573 C577 1.385 . S
C574 H555 0.951 . S
C574 C572 1.388 . S
C574 C575 1.366 . S
C575 C574 1.366 . S
C575 C576 1.414 . S
C575 C578 1.499 . S
C576 H556 0.950 . S
C576 C575 1.414 . S
C576 C577 1.374 . S
C577 H557 0.950 . S
C577 C573 1.385 . S
C577 C576 1.374 . S
C578 C575 1.499 . S
C578 C579 1.373 . S
C578 C580 1.389 . S
C579 H558 0.950 . S
C579 C578 1.373 . S
C579 C595 1.377 . S
C580 C578 1.389 . S
C580 C581 1.524 . S
C580 C594 1.377 . S
C581 C580 1.524 . S
C581 C582 1.397 . S
C581 C586 1.363 . S
C582 H559 0.950 . S
C582 C581 1.397 . S
C582 C583 1.334 . S
C583 H560 0.950 . S
C583 C582 1.334 . S
C583 C584 1.287 . S
C584 C583 1.287 . S
C584 C585 1.524 . S
C584 H603 0.913 . S
C585 H561 0.950 . S
C585 C584 1.524 . S
C585 C586 1.415 . S
C586 H562 0.950 . S
C586 C581 1.363 . S
C586 C585 1.415 . S
C587 H563 0.951 . S
C587 C588 1.366 . S
C587 C589 1.388 . S
C588 C587 1.366 . S
C588 C592 1.385 . S
C589 H564 0.951 . S
C589 C587 1.388 . S
C589 C590 1.366 . S
C590 C589 1.366 . S
C590 C591 1.414 . S
C590 C593 1.499 . S
C591 H565 0.950 . S
C591 C590 1.414 . S
C591 C592 1.374 . S
C592 H566 0.950 . S
C592 C588 1.385 . S
C592 C591 1.374 . S
C593 C590 1.499 . S
C593 C594 1.373 . S
C593 C595 1.389 . S
C594 H567 0.950 . S
C594 C580 1.377 . S
C594 C593 1.373 . S
C595 C579 1.377 . S
C595 C593 1.389 . S
C595 C596 1.524 . S
C596 C595 1.524 . S
C596 C597 1.397 . S
C596 C601 1.363 . S
C597 H568 0.950 . S
C597 C596 1.397 . S
C597 C598 1.334 . S
C598 H569 0.950 . S
C598 C597 1.334 . S
C598 C599 1.287 . S
C599 C598 1.287 . S
C599 C600 1.524 . S
C599 H602 0.999 . S
C600 H570 0.950 . S
C600 C599 1.524 . S
C600 C601 1.415 . S
C601 H571 0.950 . S
C601 C596 1.363 . S
C601 C600 1.415 . S
H602 C599 0.999 . S
H603 C584 0.913 . S
H604 C622 0.951 . S
H605 C624 0.951 . S
H606 C626 0.950 . S
H607 C627 0.950 1_455 S
H608 C629 0.950 . S
H609 C632 0.950 . S
H610 C633 0.950 . S
H611 C635 0.950 . S
H612 C636 0.950 . S
H613 C637 0.951 . S
H614 C639 0.951 . S
H615 C641 0.950 . S
H616 C642 0.950 . S
H617 C644 0.950 . S
H618 C647 0.950 . S
H619 C648 0.950 . S
H620 C650 0.950 . S
H621 C651 0.950 . S
C622 H604 0.951 . S
C622 C623 1.366 . S
C622 C624 1.388 . S
C623 C622 1.366 . S
C623 C627 1.385 . S
C624 H605 0.951 . S
C624 C622 1.388 . S
C624 C625 1.366 . S
C625 C624 1.366 . S
C625 C626 1.414 . S
C625 C628 1.499 . S
C626 H606 0.950 . S
C626 C625 1.414 . S
C626 C627 1.374 . S
C627 H607 0.950 1_655 S
C627 C623 1.385 . S
C627 C626 1.374 . S
C628 C625 1.499 . S
C628 C629 1.373 . S
C628 C630 1.389 . S
C629 H608 0.950 . S
C629 C628 1.373 . S
C629 C645 1.377 . S
C630 C628 1.389 . S
C630 C631 1.524 . S
C630 C644 1.377 . S
C631 C630 1.524 . S
C631 C632 1.397 . S
C631 C636 1.363 . S
C632 H609 0.950 . S
C632 C631 1.397 . S
C632 C633 1.334 . S
C633 H610 0.950 . S
C633 C632 1.334 . S
C633 C634 1.287 . S
C634 C633 1.287 . S
C634 C635 1.524 . S
C634 H653 0.913 . S
C635 H611 0.950 . S
C635 C634 1.524 . S
C635 C636 1.415 . S
C636 H612 0.950 . S
C636 C631 1.363 . S
C636 C635 1.415 . S
C637 H613 0.951 . S
C637 C638 1.366 . S
C637 C639 1.388 . S
C638 C637 1.366 . S
C638 C642 1.385 . S
C639 H614 0.951 . S
C639 C637 1.388 . S
C639 C640 1.366 . S
C640 C639 1.366 . S
C640 C641 1.414 . S
C640 C643 1.499 . S
C641 H615 0.950 . S
C641 C640 1.414 . S
C641 C642 1.374 . S
C642 H616 0.950 . S
C642 C638 1.385 . S
C642 C641 1.374 . S
C643 C640 1.499 . S
C643 C644 1.373 . S
C643 C645 1.389 . S
C644 H617 0.950 . S
C644 C630 1.377 . S
C644 C643 1.373 . S
C645 C629 1.377 . S
C645 C643 1.389 . S
C645 C646 1.524 . S
C646 C645 1.524 . S
C646 C647 1.397 . S
C646 C651 1.363 . S
C647 H618 0.950 . S
C647 C646 1.397 . S
C647 C648 1.334 1_565 S
C648 H619 0.950 . S
C648 C647 1.334 1_545 S
C648 C649 1.287 . S
C649 C648 1.287 . S
C649 C650 1.524 1_545 S
C649 H652 0.999 . S
C650 H620 0.950 . S
C650 C649 1.524 1_565 S
C650 C651 1.415 . S
C651 H621 0.950 . S
C651 C646 1.363 . S
C651 C650 1.415 . S
H652 C649 0.999 . S
H653 C634 0.913 . S
H654 C672 0.951 . S
H655 C674 0.951 . S
H656 C676 0.950 . S
H657 C677 0.950 . S
H658 C679 0.950 . S
H659 C682 0.950 . S
H660 C683 0.950 . S
H661 C685 0.950 . S
H662 C686 0.950 . S
H663 C687 0.951 . S
H664 C689 0.951 . S
H665 C691 0.950 . S
H666 C692 0.946 1_545 S
H667 C694 0.950 . S
H668 C697 0.950 . S
H669 C698 0.950 . S
H670 C700 0.950 . S
H671 C701 0.950 . S
C672 H654 0.951 . S
C672 C673 1.366 . S
C672 C674 1.388 . S
C673 C672 1.366 . S
C673 C677 1.385 . S
C674 H655 0.951 . S
C674 C672 1.388 . S
C674 C675 1.366 . S
C675 C674 1.366 . S
C675 C676 1.414 . S
C675 C678 1.499 . S
C676 H656 0.950 . S
C676 C675 1.414 . S
C676 C677 1.374 . S
C677 H657 0.950 . S
C677 C673 1.385 . S
C677 C676 1.374 . S
C678 C675 1.499 . S
C678 C679 1.373 . S
C678 C680 1.389 . S
C679 H658 0.950 . S
C679 C678 1.373 . S
C679 C695 1.377 . S
C680 C678 1.389 . S
C680 C681 1.524 . S
C680 C694 1.377 . S
C681 C680 1.524 . S
C681 C682 1.397 . S
C681 C686 1.363 . S
C682 H659 0.950 . S
C682 C681 1.397 . S
C682 C683 1.334 . S
C683 H660 0.950 . S
C683 C682 1.334 . S
C683 C684 1.287 . S
C684 C683 1.287 . S
C684 C685 1.524 . S
C684 H703 0.913 . S
C685 H661 0.950 . S
C685 C684 1.524 . S
C685 C686 1.415 . S
C686 H662 0.950 . S
C686 C681 1.363 . S
C686 C685 1.415 . S
C687 H663 0.951 . S
C687 C688 1.366 . S
C687 C689 1.388 . S
C688 C687 1.366 . S
C688 C692 1.386 . S
C689 H664 0.951 . S
C689 C687 1.388 . S
C689 C690 1.366 . S
C690 C689 1.366 . S
C690 C691 1.414 . S
C690 C693 1.499 . S
C691 H665 0.950 . S
C691 C690 1.414 . S
C691 C692 1.376 . S
C692 H666 0.946 1_565 S
C692 C688 1.386 . S
C692 C691 1.376 . S
C693 C690 1.499 . S
C693 C694 1.373 . S
C693 C695 1.389 . S
C694 H667 0.950 . S
C694 C680 1.377 . S
C694 C693 1.373 . S
C695 C679 1.377 . S
C695 C693 1.389 . S
C695 C696 1.524 . S
C696 C695 1.524 . S
C696 C697 1.397 . S
C696 C701 1.363 . S
C697 H668 0.950 . S
C697 C696 1.397 . S
C697 C698 1.334 . S
C698 H669 0.950 . S
C698 C697 1.334 . S
C698 C699 1.287 . S
C699 C698 1.287 . S
C699 C700 1.524 . S
C699 H702 0.999 . S
C700 H670 0.950 . S
C700 C699 1.524 . S
C700 C701 1.415 . S
C701 H671 0.950 . S
C701 C696 1.363 . S
C701 C700 1.415 . S
H702 C699 0.999 . S
H703 C684 0.913 . S
H704 C722 0.951 . S
H705 C724 0.951 . S
H706 C726 0.950 . S
H707 C727 0.945 1_545 S
H708 C729 0.950 . S
H709 C732 0.950 . S
H710 C733 0.950 . S
H711 C735 0.950 . S
H712 C736 0.950 . S
H713 C737 0.951 . S
H714 C739 0.951 . S
H715 C741 0.950 . S
H716 C742 0.950 . S
H717 C744 0.950 . S
H718 C747 0.950 . S
H719 C748 0.950 . S
H720 C750 0.950 . S
H721 C751 0.950 . S
C722 H704 0.951 . S
C722 C723 1.366 . S
C722 C724 1.388 . S
C723 C722 1.366 . S
C723 C727 1.385 . S
C724 H705 0.951 . S
C724 C722 1.388 . S
C724 C725 1.366 . S
C725 C724 1.366 . S
C725 C726 1.414 . S
C725 C728 1.499 . S
C726 H706 0.950 . S
C726 C725 1.414 . S
C726 C727 1.374 . S
C727 H707 0.945 1_565 S
C727 C723 1.385 . S
C727 C726 1.374 . S
C728 C725 1.499 . S
C728 C729 1.373 . S
C728 C730 1.389 . S
C729 H708 0.950 . S
C729 C728 1.373 . S
C729 C745 1.377 . S
C730 C728 1.389 . S
C730 C731 1.524 . S
C730 C744 1.377 . S
C731 C730 1.524 . S
C731 C732 1.397 . S
C731 C736 1.363 . S
C732 H709 0.950 . S
C732 C731 1.397 . S
C732 C733 1.334 . S
C733 H710 0.950 . S
C733 C732 1.334 . S
C733 C734 1.287 . S
C734 C733 1.287 . S
C734 C735 1.524 . S
C734 H753 0.913 . S
C735 H711 0.950 . S
C735 C734 1.524 . S
C735 C736 1.415 . S
C736 H712 0.950 . S
C736 C731 1.363 . S
C736 C735 1.415 . S
C737 H713 0.951 . S
C737 C738 1.366 . S
C737 C739 1.388 . S
C738 C737 1.366 . S
C738 C742 1.385 . S
C739 H714 0.951 . S
C739 C737 1.388 . S
C739 C740 1.366 . S
C740 C739 1.366 . S
C740 C741 1.414 . S
C740 C743 1.499 . S
C741 H715 0.950 . S
C741 C740 1.414 . S
C741 C742 1.374 . S
C742 H716 0.950 . S
C742 C738 1.385 . S
C742 C741 1.374 . S
C743 C740 1.499 . S
C743 C744 1.373 . S
C743 C745 1.389 . S
C744 H717 0.950 . S
C744 C730 1.377 . S
C744 C743 1.373 . S
C745 C729 1.377 . S
C745 C743 1.389 . S
C745 C746 1.524 . S
C746 C745 1.524 . S
C746 C747 1.397 . S
C746 C751 1.363 . S
C747 H718 0.950 . S
C747 C746 1.397 . S
C747 C748 1.334 . S
C748 H719 0.950 . S
C748 C747 1.334 . S
C748 C749 1.287 . S
C749 C748 1.287 . S
C749 C750 1.524 . S
C749 H752 0.999 . S
C750 H720 0.950 . S
C750 C749 1.524 . S
C750 C751 1.415 . S
C751 H721 0.950 . S
C751 C746 1.363 . S
C751 C750 1.415 . S
H752 C749 0.999 . S
H753 C734 0.913 . S
H754 C772 0.951 . S
H755 C774 0.951 . S
H756 C776 0.950 . S
H757 C777 0.950 . S
H758 C779 0.950 . S
H759 C782 0.950 . S
H760 C783 0.950 . S
H761 C785 0.950 . S
H762 C786 0.950 . S
H763 C787 0.951 . S
H764 C789 0.951 . S
H765 C791 0.950 . S
H766 C792 0.950 . S
H767 C794 0.950 . S
H768 C797 0.950 . S
H769 C798 0.950 . S
H770 C800 0.950 . S
H771 C801 0.950 . S
C772 H754 0.951 . S
C772 C773 1.366 . S
C772 C774 1.388 . S
C773 C772 1.366 . S
C773 C777 1.385 . S
C774 H755 0.951 . S
C774 C772 1.388 . S
C774 C775 1.366 . S
C775 C774 1.366 . S
C775 C776 1.414 . S
C775 C778 1.499 . S
C776 H756 0.950 . S
C776 C775 1.414 . S
C776 C777 1.374 . S
C777 H757 0.950 . S
C777 C773 1.385 . S
C777 C776 1.374 . S
C778 C775 1.499 . S
C778 C779 1.373 . S
C778 C780 1.389 . S
C779 H758 0.950 . S
C779 C778 1.373 . S
C779 C795 1.377 . S
C780 C778 1.389 . S
C780 C781 1.524 . S
C780 C794 1.377 . S
C781 C780 1.524 . S
C781 C782 1.397 . S
C781 C786 1.363 . S
C782 H759 0.950 . S
C782 C781 1.397 . S
C782 C783 1.334 . S
C783 H760 0.950 . S
C783 C782 1.334 . S
C783 C784 1.287 . S
C784 C783 1.287 . S
C784 C785 1.524 . S
C784 H803 0.913 . S
C785 H761 0.950 . S
C785 C784 1.524 . S
C785 C786 1.415 . S
C786 H762 0.950 . S
C786 C781 1.363 . S
C786 C785 1.415 . S
C787 H763 0.951 . S
C787 C788 1.366 . S
C787 C789 1.388 . S
C788 C787 1.366 . S
C788 C792 1.385 . S
C789 H764 0.951 . S
C789 C787 1.388 . S
C789 C790 1.366 . S
C790 C789 1.366 . S
C790 C791 1.414 . S
C790 C793 1.499 . S
C791 H765 0.950 . S
C791 C790 1.414 . S
C791 C792 1.374 . S
C792 H766 0.950 . S
C792 C788 1.385 . S
C792 C791 1.374 . S
C793 C790 1.499 . S
C793 C794 1.373 . S
C793 C795 1.389 . S
C794 H767 0.950 . S
C794 C780 1.377 . S
C794 C793 1.373 . S
C795 C779 1.377 . S
C795 C793 1.389 . S
C795 C796 1.524 . S
C796 C795 1.524 . S
C796 C797 1.397 . S
C796 C801 1.363 . S
C797 H768 0.950 . S
C797 C796 1.397 . S
C797 C798 1.334 . S
C798 H769 0.950 . S
C798 C797 1.334 . S
C798 C799 1.287 . S
C799 C798 1.287 . S
C799 C800 1.524 . S
C799 H802 0.999 . S
C800 H770 0.950 . S
C800 C799 1.524 . S
C800 C801 1.415 . S
C801 H771 0.950 . S
C801 C796 1.363 . S
C801 C800 1.415 . S
H802 C799 0.999 . S
H803 C784 0.913 . S
H804 C822 0.951 . S
H805 C824 0.951 . S
H806 C826 0.950 . S
H807 C827 0.950 . S
H808 C829 0.950 . S
H809 C832 0.950 . S
H810 C833 0.950 . S
H811 C835 0.950 . S
H812 C836 0.950 . S
H813 C837 0.951 . S
H814 C839 0.951 . S
H815 C841 0.950 . S
H816 C842 0.950 . S
H817 C844 0.950 . S
H818 C847 0.950 . S
H819 C848 0.950 . S
H820 C850 0.950 . S
H821 C851 0.950 . S
C822 H804 0.951 . S
C822 C823 1.366 . S
C822 C824 1.388 . S
C823 C822 1.366 . S
C823 C827 1.385 . S
C824 H805 0.951 . S
C824 C822 1.388 . S
C824 C825 1.366 . S
C825 C824 1.366 . S
C825 C826 1.414 . S
C825 C828 1.499 . S
C826 H806 0.950 . S
C826 C825 1.414 . S
C826 C827 1.374 . S
C827 H807 0.950 . S
C827 C823 1.385 . S
C827 C826 1.374 . S
C828 C825 1.499 . S
C828 C829 1.373 . S
C828 C830 1.389 . S
C829 H808 0.950 . S
C829 C828 1.373 . S
C829 C845 1.377 . S
C830 C828 1.389 . S
C830 C831 1.524 . S
C830 C844 1.377 . S
C831 C830 1.524 . S
C831 C832 1.397 . S
C831 C836 1.363 . S
C832 H809 0.950 . S
C832 C831 1.397 . S
C832 C833 1.334 . S
C833 H810 0.950 . S
C833 C832 1.334 . S
C833 C834 1.287 . S
C834 C833 1.287 . S
C834 C835 1.524 . S
C834 H853 0.913 . S
C835 H811 0.950 . S
C835 C834 1.524 . S
C835 C836 1.415 . S
C836 H812 0.950 . S
C836 C831 1.363 . S
C836 C835 1.415 . S
C837 H813 0.951 . S
C837 C838 1.366 . S
C837 C839 1.388 . S
C838 C837 1.366 . S
C838 C842 1.385 . S
C839 H814 0.951 . S
C839 C837 1.388 . S
C839 C840 1.366 . S
C840 C839 1.366 . S
C840 C841 1.414 . S
C840 C843 1.499 . S
C841 H815 0.950 . S
C841 C840 1.414 . S
C841 C842 1.374 . S
C842 H816 0.950 . S
C842 C838 1.385 . S
C842 C841 1.374 . S
C843 C840 1.499 . S
C843 C844 1.373 . S
C843 C845 1.389 . S
C844 H817 0.950 . S
C844 C830 1.377 . S
C844 C843 1.373 . S
C845 C829 1.377 . S
C845 C843 1.389 . S
C845 C846 1.524 . S
C846 C845 1.524 . S
C846 C847 1.397 . S
C846 C851 1.363 . S
C847 H818 0.950 . S
C847 C846 1.397 . S
C847 C848 1.334 . S
C848 H819 0.950 . S
C848 C847 1.334 . S
C848 C849 1.287 . S
C849 C848 1.287 . S
C849 C850 1.524 . S
C849 H852 0.999 . S
C850 H820 0.950 . S
C850 C849 1.524 . S
C850 C851 1.415 . S
C851 H821 0.950 . S
C851 C846 1.363 . S
C851 C850 1.415 . S
H852 C849 0.999 . S
H853 C834 0.913 . S
H854 C872 0.983 . S
H855 C874 0.951 . S
H856 C876 0.950 . S
H857 C877 0.950 . S
H858 C879 0.950 . S
H859 C882 0.950 . S
H860 C883 0.950 . S
H861 C885 0.952 . S
H862 C886 0.950 . S
H863 C887 0.951 . S
H864 C889 0.951 . S
H865 C891 0.950 . S
H866 C892 0.950 . S
H867 C894 0.950 . S
H868 C897 0.950 . S
H869 C898 0.950 . S
H870 C900 0.950 . S
H871 C901 0.950 . S
C872 H854 0.983 . S
C872 C873 1.366 . S
C872 C874 1.388 . S
C873 C872 1.366 . S
C873 C877 1.385 . S
C874 H855 0.951 . S
C874 C872 1.388 . S
C874 C875 1.366 . S
C875 C874 1.366 . S
C875 C876 1.414 . S
C875 C878 1.499 . S
C876 H856 0.950 . S
C876 C875 1.414 . S
C876 C877 1.374 . S
C877 H857 0.950 . S
C877 C873 1.385 . S
C877 C876 1.374 . S
C878 C875 1.499 . S
C878 C879 1.373 . S
C878 C880 1.389 . S
C879 H858 0.950 . S
C879 C878 1.373 . S
C879 C895 1.377 . S
C880 C878 1.389 . S
C880 C881 1.524 . S
C880 C894 1.377 . S
C881 C880 1.524 . S
C881 C882 1.397 . S
C881 C886 1.363 . S
C882 H859 0.950 . S
C882 C881 1.397 . S
C882 C883 1.334 . S
C883 H860 0.950 . S
C883 C882 1.334 . S
C883 C884 1.287 . S
C884 C883 1.287 . S
C884 C885 1.524 . S
C884 H903 0.913 1_655 S
C885 H861 0.952 . S
C885 C884 1.524 . S
C885 C886 1.415 . S
C886 H862 0.950 . S
C886 C881 1.363 . S
C886 C885 1.415 . S
C887 H863 0.951 . S
C887 C888 1.366 . S
C887 C889 1.388 . S
C888 C887 1.366 . S
C888 C892 1.385 . S
C889 H864 0.951 . S
C889 C887 1.388 . S
C889 C890 1.366 . S
C890 C889 1.366 . S
C890 C891 1.414 . S
C890 C893 1.499 . S
C891 H865 0.950 . S
C891 C890 1.414 . S
C891 C892 1.374 . S
C892 H866 0.950 . S
C892 C888 1.385 . S
C892 C891 1.374 . S
C893 C890 1.499 . S
C893 C894 1.373 . S
C893 C895 1.389 . S
C894 H867 0.950 . S
C894 C880 1.377 . S
C894 C893 1.373 . S
C895 C879 1.377 . S
C895 C893 1.389 . S
C895 C896 1.524 . S
C896 C895 1.524 . S
C896 C897 1.397 . S
C896 C901 1.363 . S
C897 H868 0.950 . S
C897 C896 1.397 . S
C897 C898 1.334 . S
C898 H869 0.950 . S
C898 C897 1.334 . S
C898 C899 1.287 . S
C899 C898 1.287 . S
C899 C900 1.524 . S
C899 H902 0.999 . S
C900 H870 0.950 . S
C900 C899 1.524 . S
C900 C901 1.415 . S
C901 H871 0.950 . S
C901 C896 1.363 . S
C901 C900 1.415 . S
H902 C899 0.999 . S
H903 C884 0.913 1_455 S
C123 C4 1.636 . S
C138 C62 1.636 . S
C173 C17 1.636 . S
C188 C69 1.636 . S
C223 C88 1.636 . S
C238 C30 1.636 . S
C273 C101 1.636 . S
C288 C49 1.636 . S
C323 C10 1.357 . S
C338 C36 1.358 . S
C373 C23 1.358 . S
C388 C43 1.358 . S
C423 C82 1.357 . S
C438 C56 1.357 . S
C473 C75 1.358 . S
C488 C95 1.358 . S
C523 C68 1.682 . S
C538 C3 1.682 . S
C573 C16 1.682 1_655 S
C588 C83 1.682 . S
C623 C96 1.682 1_655 S
C638 C29 1.682 1_565 S
C673 C44 1.682 . S
C688 C57 1.682 1_565 S
C723 C81 1.084 . S
C738 C42 1.084 . S
C773 C5 1.084 . S
C788 C94 1.083 . S
C823 C18 1.083 . S
C838 C55 1.083 . S
C873 C70 1.083 . S
C888 C31 1.083 . S
