# Generated by pormake.
# Topology vbh, (5)-cn, num edge types: 1
# Building blocks:
#     Node 0, Type 0, BuildingBlock: XOMCOT_clean_sbu_0, # of connection points: 5
#     Node 1, Type 0, BuildingBlock: XOMCOT_clean_sbu_0, # of connection points: 5
#     Node 2, Type 0, BuildingBlock: XOMCOT_clean_sbu_0, # of connection points: 5
#     Node 3, Type 0, BuildingBlock: XOMCOT_clean_sbu_0, # of connection points: 5
#     Node 4, Type 0, BuildingBlock: XOMCOT_clean_sbu_0, # of connection points: 5
#     Node 5, Type 0, BuildingBlock: XOMCOT_clean_sbu_0, # of connection points: 5
#     Node 6, Type 0, BuildingBlock: XOMCOT_clean_sbu_0, # of connection points: 5
#     Node 7, Type 0, BuildingBlock: XOMCOT_clean_sbu_0, # of connection points: 5
#     Node 8, Type 0, BuildingBlock: XOMCOT_clean_sbu_0, # of connection points: 5
#     Node 9, Type 0, BuildingBlock: XOMCOT_clean_sbu_0, # of connection points: 5
#     Node 10, Type 0, BuildingBlock: XOMCOT_clean_sbu_0, # of connection points: 5
#     Node 11, Type 0, BuildingBlock: XOMCOT_clean_sbu_0, # of connection points: 5
#     Node 12, Type 0, BuildingBlock: XOMCOT_clean_sbu_0, # of connection points: 5
#     Node 13, Type 0, BuildingBlock: XOMCOT_clean_sbu_0, # of connection points: 5
#     Node 14, Type 0, BuildingBlock: XOMCOT_clean_sbu_0, # of connection points: 5
#     Node 15, Type 0, BuildingBlock: XOMCOT_clean_sbu_0, # of connection points: 5
#     Node 16, Type 0, BuildingBlock: XOMCOT_clean_sbu_0, # of connection points: 5
#     Node 17, Type 0, BuildingBlock: XOMCOT_clean_sbu_0, # of connection points: 5
#     Node 18, Type 0, BuildingBlock: XOMCOT_clean_sbu_0, # of connection points: 5
#     Node 19, Type 0, BuildingBlock: XOMCOT_clean_sbu_0, # of connection points: 5
#     Node 20, Type 0, BuildingBlock: XOMCOT_clean_sbu_0, # of connection points: 5
#     Node 21, Type 0, BuildingBlock: XOMCOT_clean_sbu_0, # of connection points: 5
#     Node 22, Type 0, BuildingBlock: XOMCOT_clean_sbu_0, # of connection points: 5
#     Node 23, Type 0, BuildingBlock: XOMCOT_clean_sbu_0, # of connection points: 5
#     Node 24, Type 0, BuildingBlock: XOMCOT_clean_sbu_0, # of connection points: 5
#     Node 25, Type 0, BuildingBlock: XOMCOT_clean_sbu_0, # of connection points: 5
#     Node 26, Type 0, BuildingBlock: XOMCOT_clean_sbu_0, # of connection points: 5
#     Node 27, Type 0, BuildingBlock: XOMCOT_clean_sbu_0, # of connection points: 5
#     Node 28, Type 0, BuildingBlock: XOMCOT_clean_sbu_0, # of connection points: 5
#     Node 29, Type 0, BuildingBlock: XOMCOT_clean_sbu_0, # of connection points: 5
#     Node 30, Type 0, BuildingBlock: XOMCOT_clean_sbu_0, # of connection points: 5
#     Node 31, Type 0, BuildingBlock: XOMCOT_clean_sbu_0, # of connection points: 5
#     Edge 32, Type (0, 0), BuildingBlock: XUDNAN_clean_linker_2, # of connection points: 2
#     Edge 33, Type (0, 0), BuildingBlock: XUDNAN_clean_linker_2, # of connection points: 2
#     Edge 34, Type (0, 0), BuildingBlock: XUDNAN_clean_linker_2, # of connection points: 2
#     Edge 35, Type (0, 0), BuildingBlock: XUDNAN_clean_linker_2, # of connection points: 2
#     Edge 36, Type (0, 0), BuildingBlock: XUDNAN_clean_linker_2, # of connection points: 2
#     Edge 37, Type (0, 0), BuildingBlock: XUDNAN_clean_linker_2, # of connection points: 2
#     Edge 38, Type (0, 0), BuildingBlock: XUDNAN_clean_linker_2, # of connection points: 2
#     Edge 39, Type (0, 0), BuildingBlock: XUDNAN_clean_linker_2, # of connection points: 2
#     Edge 40, Type (0, 0), BuildingBlock: XUDNAN_clean_linker_2, # of connection points: 2
#     Edge 41, Type (0, 0), BuildingBlock: XUDNAN_clean_linker_2, # of connection points: 2
#     Edge 42, Type (0, 0), BuildingBlock: XUDNAN_clean_linker_2, # of connection points: 2
#     Edge 43, Type (0, 0), BuildingBlock: XUDNAN_clean_linker_2, # of connection points: 2
#     Edge 44, Type (0, 0), BuildingBlock: XUDNAN_clean_linker_2, # of connection points: 2
#     Edge 45, Type (0, 0), BuildingBlock: XUDNAN_clean_linker_2, # of connection points: 2
#     Edge 46, Type (0, 0), BuildingBlock: XUDNAN_clean_linker_2, # of connection points: 2
#     Edge 47, Type (0, 0), BuildingBlock: XUDNAN_clean_linker_2, # of connection points: 2
#     Edge 48, Type (0, 0), BuildingBlock: XUDNAN_clean_linker_2, # of connection points: 2
#     Edge 49, Type (0, 0), BuildingBlock: XUDNAN_clean_linker_2, # of connection points: 2
#     Edge 50, Type (0, 0), BuildingBlock: XUDNAN_clean_linker_2, # of connection points: 2
#     Edge 51, Type (0, 0), BuildingBlock: XUDNAN_clean_linker_2, # of connection points: 2
#     Edge 52, Type (0, 0), BuildingBlock: XUDNAN_clean_linker_2, # of connection points: 2
#     Edge 53, Type (0, 0), BuildingBlock: XUDNAN_clean_linker_2, # of connection points: 2
#     Edge 54, Type (0, 0), BuildingBlock: XUDNAN_clean_linker_2, # of connection points: 2
#     Edge 55, Type (0, 0), BuildingBlock: XUDNAN_clean_linker_2, # of connection points: 2
#     Edge 56, Type (0, 0), BuildingBlock: XUDNAN_clean_linker_2, # of connection points: 2
#     Edge 57, Type (0, 0), BuildingBlock: XUDNAN_clean_linker_2, # of connection points: 2
#     Edge 58, Type (0, 0), BuildingBlock: XUDNAN_clean_linker_2, # of connection points: 2
#     Edge 59, Type (0, 0), BuildingBlock: XUDNAN_clean_linker_2, # of connection points: 2
#     Edge 60, Type (0, 0), BuildingBlock: XUDNAN_clean_linker_2, # of connection points: 2
#     Edge 61, Type (0, 0), BuildingBlock: XUDNAN_clean_linker_2, # of connection points: 2
#     Edge 62, Type (0, 0), BuildingBlock: XUDNAN_clean_linker_2, # of connection points: 2
#     Edge 63, Type (0, 0), BuildingBlock: XUDNAN_clean_linker_2, # of connection points: 2
#     Edge 64, Type (0, 0), BuildingBlock: XUDNAN_clean_linker_2, # of connection points: 2
#     Edge 65, Type (0, 0), BuildingBlock: XUDNAN_clean_linker_2, # of connection points: 2
#     Edge 66, Type (0, 0), BuildingBlock: XUDNAN_clean_linker_2, # of connection points: 2
#     Edge 67, Type (0, 0), BuildingBlock: XUDNAN_clean_linker_2, # of connection points: 2
#     Edge 68, Type (0, 0), BuildingBlock: XUDNAN_clean_linker_2, # of connection points: 2
#     Edge 69, Type (0, 0), BuildingBlock: XUDNAN_clean_linker_2, # of connection points: 2
#     Edge 70, Type (0, 0), BuildingBlock: XUDNAN_clean_linker_2, # of connection points: 2
#     Edge 71, Type (0, 0), BuildingBlock: XUDNAN_clean_linker_2, # of connection points: 2
#     Edge 72, Type (0, 0), BuildingBlock: XUDNAN_clean_linker_2, # of connection points: 2
#     Edge 73, Type (0, 0), BuildingBlock: XUDNAN_clean_linker_2, # of connection points: 2
#     Edge 74, Type (0, 0), BuildingBlock: XUDNAN_clean_linker_2, # of connection points: 2
#     Edge 75, Type (0, 0), BuildingBlock: XUDNAN_clean_linker_2, # of connection points: 2
#     Edge 76, Type (0, 0), BuildingBlock: XUDNAN_clean_linker_2, # of connection points: 2
#     Edge 77, Type (0, 0), BuildingBlock: XUDNAN_clean_linker_2, # of connection points: 2
#     Edge 78, Type (0, 0), BuildingBlock: XUDNAN_clean_linker_2, # of connection points: 2
#     Edge 79, Type (0, 0), BuildingBlock: XUDNAN_clean_linker_2, # of connection points: 2
#     Edge 80, Type (0, 0), BuildingBlock: XUDNAN_clean_linker_2, # of connection points: 2
#     Edge 81, Type (0, 0), BuildingBlock: XUDNAN_clean_linker_2, # of connection points: 2
#     Edge 82, Type (0, 0), BuildingBlock: XUDNAN_clean_linker_2, # of connection points: 2
#     Edge 83, Type (0, 0), BuildingBlock: XUDNAN_clean_linker_2, # of connection points: 2
#     Edge 84, Type (0, 0), BuildingBlock: XUDNAN_clean_linker_2, # of connection points: 2
#     Edge 85, Type (0, 0), BuildingBlock: XUDNAN_clean_linker_2, # of connection points: 2
#     Edge 86, Type (0, 0), BuildingBlock: XUDNAN_clean_linker_2, # of connection points: 2
#     Edge 87, Type (0, 0), BuildingBlock: XUDNAN_clean_linker_2, # of connection points: 2
#     Edge 88, Type (0, 0), BuildingBlock: XUDNAN_clean_linker_2, # of connection points: 2
#     Edge 89, Type (0, 0), BuildingBlock: XUDNAN_clean_linker_2, # of connection points: 2
#     Edge 90, Type (0, 0), BuildingBlock: XUDNAN_clean_linker_2, # of connection points: 2
#     Edge 91, Type (0, 0), BuildingBlock: XUDNAN_clean_linker_2, # of connection points: 2
#     Edge 92, Type (0, 0), BuildingBlock: XUDNAN_clean_linker_2, # of connection points: 2
#     Edge 93, Type (0, 0), BuildingBlock: XUDNAN_clean_linker_2, # of connection points: 2
#     Edge 94, Type (0, 0), BuildingBlock: XUDNAN_clean_linker_2, # of connection points: 2
#     Edge 95, Type (0, 0), BuildingBlock: XUDNAN_clean_linker_2, # of connection points: 2
#     Edge 96, Type (0, 0), BuildingBlock: XUDNAN_clean_linker_2, # of connection points: 2
#     Edge 97, Type (0, 0), BuildingBlock: XUDNAN_clean_linker_2, # of connection points: 2
#     Edge 98, Type (0, 0), BuildingBlock: XUDNAN_clean_linker_2, # of connection points: 2
#     Edge 99, Type (0, 0), BuildingBlock: XUDNAN_clean_linker_2, # of connection points: 2
#     Edge 100, Type (0, 0), BuildingBlock: XUDNAN_clean_linker_2, # of connection points: 2
#     Edge 101, Type (0, 0), BuildingBlock: XUDNAN_clean_linker_2, # of connection points: 2
#     Edge 102, Type (0, 0), BuildingBlock: XUDNAN_clean_linker_2, # of connection points: 2
#     Edge 103, Type (0, 0), BuildingBlock: XUDNAN_clean_linker_2, # of connection points: 2
#     Edge 104, Type (0, 0), BuildingBlock: XUDNAN_clean_linker_2, # of connection points: 2
#     Edge 105, Type (0, 0), BuildingBlock: XUDNAN_clean_linker_2, # of connection points: 2
#     Edge 106, Type (0, 0), BuildingBlock: XUDNAN_clean_linker_2, # of connection points: 2
#     Edge 107, Type (0, 0), BuildingBlock: XUDNAN_clean_linker_2, # of connection points: 2
#     Edge 108, Type (0, 0), BuildingBlock: XUDNAN_clean_linker_2, # of connection points: 2
#     Edge 109, Type (0, 0), BuildingBlock: XUDNAN_clean_linker_2, # of connection points: 2
#     Edge 110, Type (0, 0), BuildingBlock: XUDNAN_clean_linker_2, # of connection points: 2
#     Edge 111, Type (0, 0), BuildingBlock: XUDNAN_clean_linker_2, # of connection points: 2
# Relax obj value: 0.326
# Max RMSD: 0.204
# Mean RMSD: 0.204
data_MOF--net-vbh--node1-XOMCOT_clean_sbu_0--edge1-XUDNAN_clean_linker_2
_symmetry_space_group_name_H-M    P1
_symmetry_Int_Tables_number       1
_symmetry_cell_setting            triclinic
loop_
_symmetry_equiv_pos_as_xyz
'x, y, z'
_cell_length_a     43.320145
_cell_length_b     96.929855
_cell_length_c     41.983018
_cell_angle_alpha  90.009351
_cell_angle_beta   89.916686
_cell_angle_gamma 90.065974
loop_
_atom_site_label
_atom_site_type_symbol
_atom_site_fract_x
_atom_site_fract_y
_atom_site_fract_z
_atom_type_partial_charge
Co0 Co 0.3846 0.03448 0.16977 0.0
C1 C 0.35658 0.02598 0.10834 0.0
C2 C 0.39218 0.01201 0.12317 0.0
C3 C 0.37687 0.00635 0.09745 0.0
N4 N 0.37948 0.02433 0.1301 0.0
N5 N 0.35438 0.01509 0.08817 0.0
H6 H 0.34026 0.03441 0.10884 0.0
H7 H 0.40987 0.00703 0.13721 0.0
C8 C 0.45052 0.03277 0.19377 0.0
O9 O 0.44866 0.04576 0.20247 0.0
N10 N 0.38809 0.04451 0.20949 0.0
C11 C 0.38319 0.05804 0.21521 0.0
C12 C 0.38372 0.06022 0.24754 0.0
C13 C 0.39146 0.03869 0.23843 0.0
N14 N 0.38859 0.04802 0.26199 0.0
C15 C 0.37146 0.05985 0.13769 0.0
C16 C 0.43121 0.06959 0.13497 0.0
C17 C 0.40682 0.07908 0.13192 0.0
C18 C 0.3767 0.07381 0.13109 0.0
C19 C 0.42487 0.05563 0.14112 0.0
N20 N 0.39523 0.05126 0.1458 0.0
H21 H 0.34786 0.05642 0.13941 0.0
H22 H 0.44395 0.04862 0.14351 0.0
H23 H 0.37807 0.0658 0.19767 0.0
H24 H 0.39463 0.02774 0.2422 0.0
O25 O 0.34004 0.03695 0.17281 0.0
O26 O 0.36594 0.01929 0.19254 0.0
O27 O 0.42938 0.02756 0.17566 0.0
C28 C 0.33973 0.02556 0.18912 0.0
H29 H 0.38116 0.99628 0.08718 0.0
H30 H 0.3788 0.06986 0.25954 0.0
H31 H 0.45499 0.07302 0.13391 0.0
H32 H 0.35702 0.08057 0.12816 0.0
Co33 Co 0.87695 0.22606 0.17232 0.0
C34 C 0.90367 0.2357 0.11165 0.0
C35 C 0.86556 0.24856 0.12474 0.0
C36 C 0.88082 0.25452 0.09919 0.0
N37 N 0.88003 0.23675 0.13284 0.0
N38 N 0.90478 0.2464 0.09101 0.0
H39 H 0.92137 0.22789 0.11282 0.0
H40 H 0.84622 0.25302 0.13717 0.0
C41 C 0.81991 0.24083 0.19216 0.0
O42 O 0.83708 0.25192 0.19511 0.0
N43 N 0.87649 0.21505 0.21085 0.0
C44 C 0.8925 0.20318 0.21346 0.0
C45 C 0.89133 0.19869 0.24412 0.0
C46 C 0.86649 0.21788 0.24076 0.0
N47 N 0.87497 0.20782 0.26137 0.0
C48 C 0.89302 0.20183 0.13555 0.0
C49 C 0.83697 0.1888 0.1446 0.0
C50 C 0.86252 0.18079 0.13593 0.0
C51 C 0.89041 0.18761 0.12945 0.0
C52 C 0.84053 0.20287 0.15056 0.0
N53 N 0.8688 0.2091 0.14814 0.0
H54 H 0.91559 0.20649 0.13401 0.0
H55 H 0.8208 0.20825 0.1599 0.0
H56 H 0.90598 0.19844 0.1949 0.0
H57 H 0.85409 0.22714 0.24739 0.0
O58 O 0.92211 0.22581 0.17526 0.0
O59 O 0.891 0.24146 0.19612 0.0
O60 O 0.8311 0.22996 0.17896 0.0
C61 C 0.91857 0.23662 0.19341 0.0
H62 H 0.87526 0.26429 0.0881 0.0
H63 H 0.90288 0.18965 0.25342 0.0
H64 H 0.81472 0.18404 0.14898 0.0
H65 H 0.91077 0.18184 0.12264 0.0
Co66 Co 0.38632 0.22616 0.08648 0.0
C67 C 0.36016 0.23695 0.14702 0.0
C68 C 0.40458 0.24578 0.13697 0.0
C69 C 0.39126 0.2529 0.16193 0.0
N70 N 0.38505 0.2358 0.12735 0.0
N71 N 0.36321 0.24744 0.16815 0.0
H72 H 0.33904 0.23112 0.14404 0.0
H73 H 0.42587 0.2485 0.12508 0.0
C74 C 0.45091 0.22582 0.05909 0.0
O75 O 0.44536 0.21383 0.04581 0.0
N76 N 0.38541 0.21653 0.04563 0.0
C77 C 0.38439 0.20277 0.04009 0.0
C78 C 0.3821 0.20049 0.00793 0.0
C79 C 0.38325 0.22236 0.01647 0.0
N80 N 0.38121 0.2128 0.99324 0.0
C81 C 0.36806 0.20054 0.11526 0.0
C82 C 0.42674 0.19011 0.12425 0.0
C83 C 0.40141 0.18116 0.12764 0.0
C84 C 0.37171 0.1867 0.12418 0.0
C85 C 0.42209 0.20385 0.11504 0.0
N86 N 0.39311 0.20867 0.10871 0.0
H87 H 0.34501 0.20436 0.1113 0.0
H88 H 0.44205 0.21034 0.112 0.0
H89 H 0.38561 0.19471 0.05767 0.0
H90 H 0.38326 0.23336 0.01215 0.0
O91 O 0.3413 0.22656 0.0846 0.0
O92 O 0.3729 0.24275 0.0664 0.0
O93 O 0.4324 0.23068 0.08034 0.0
C94 C 0.34489 0.23842 0.07039 0.0
H95 H 0.40072 0.26198 0.17333 0.0
H96 H 0.3805 0.19056 0.99626 0.0
H97 H 0.45011 0.18639 0.12724 0.0
H98 H 0.35144 0.18031 0.12748 0.0
Co99 Co 0.88357 0.0336 0.08222 0.0
C100 C 0.90857 0.02545 0.14457 0.0
C101 C 0.86863 0.01332 0.13438 0.0
C102 C 0.88354 0.0078 0.1608 0.0
N103 N 0.88447 0.02444 0.12403 0.0
N104 N 0.90909 0.01535 0.1669 0.0
H105 H 0.92681 0.03291 0.14184 0.0
H106 H 0.84898 0.00883 0.12241 0.0
C107 C 0.82739 0.01837 0.06115 0.0
O108 O 0.84539 0.00753 0.05911 0.0
N109 N 0.88529 0.04299 0.04166 0.0
C110 C 0.90262 0.05436 0.03692 0.0
C111 C 0.90036 0.05827 0.00578 0.0
C112 C 0.87308 0.03989 0.01287 0.0
N113 N 0.88191 0.04922 0.99068 0.0
C114 C 0.8979 0.05839 0.11699 0.0
C115 C 0.8427 0.0718 0.10577 0.0
C116 C 0.86697 0.07913 0.11981 0.0
C117 C 0.89466 0.07224 0.12587 0.0
C118 C 0.84696 0.05799 0.0969 0.0
N119 N 0.87445 0.05142 0.10224 0.0
H120 H 0.92013 0.05363 0.12009 0.0
H121 H 0.82849 0.05294 0.08429 0.0
H122 H 0.91643 0.05943 0.05485 0.0
H123 H 0.858 0.03121 0.00828 0.0
O124 O 0.92865 0.03413 0.08243 0.0
O125 O 0.8999 0.01722 0.06306 0.0
O126 O 0.83777 0.02944 0.07433 0.0
C127 C 0.92709 0.0222 0.06837 0.0
H128 H 0.87727 0.99836 0.17295 0.0
H129 H 0.91141 0.06712 0.99489 0.0
H130 H 0.82098 0.07686 0.10066 0.0
H131 H 0.91393 0.07762 0.13663 0.0
Co132 Co 0.63171 0.97513 0.83443 0.0
C133 C 0.65822 0.98816 0.89275 0.0
C134 C 0.6144 0.99703 0.88091 0.0
C135 C 0.62712 1.00433 0.90598 0.0
N136 N 0.6339 0.98686 0.87243 0.0
N137 N 0.65488 0.99884 0.91339 0.0
H138 H 0.67881 0.98189 0.89138 0.0
H139 H 0.59299 0.99943 0.86895 0.0
C140 C 0.56818 0.97651 0.80376 0.0
O141 O 0.5723 0.96399 0.79268 0.0
N142 N 0.63202 0.96328 0.79672 0.0
C143 C 0.63469 0.9494 0.79646 0.0
C144 C 0.63827 0.94494 0.76582 0.0
C145 C 0.63477 0.96704 0.7657 0.0
N146 N 0.63873 0.95598 0.74639 0.0
C147 C 0.64247 0.95221 0.876 0.0
C148 C 0.58628 0.93952 0.86578 0.0
C149 C 0.61132 0.93145 0.87571 0.0
C150 C 0.63899 0.93816 0.88332 0.0
C151 C 0.59057 0.95361 0.85952 0.0
N152 N 0.61937 0.95936 0.8611 0.0
H153 H 0.66497 0.95682 0.87896 0.0
H154 H 0.5712 0.95943 0.85103 0.0
H155 H 0.63527 0.94275 0.8169 0.0
H156 H 0.63512 0.97763 0.75759 0.0
O157 O 0.67603 0.97272 0.83545 0.0
O158 O 0.65143 0.98954 0.81029 0.0
O159 O 0.58727 0.98152 0.82438 0.0
C160 C 0.67734 0.98354 0.81715 0.0
H161 H 0.61685 0.01323 0.91737 0.0
H162 H 0.64094 0.93429 0.75858 0.0
H163 H 0.5642 0.93478 0.86057 0.0
H164 H 0.65878 0.93234 0.89148 0.0
Co165 Co 0.1374 0.781 0.83955 0.0
C166 C 0.11267 0.76985 0.90086 0.0
C167 C 0.16039 0.76458 0.89503 0.0
C168 C 0.14895 0.75808 0.9219 0.0
N169 N 0.1377 0.77204 0.88162 0.0
N170 N 0.11871 0.76123 0.92555 0.0
H171 H 0.08992 0.7739 0.89603 0.0
H172 H 0.1833 0.76333 0.88533 0.0
C173 C 0.20985 0.77861 0.8363 0.0
O174 O 0.21497 0.78588 0.86218 0.0
N175 N 0.13465 0.78993 0.79883 0.0
C176 C 0.119 0.80167 0.79301 0.0
C177 C 0.11863 0.80392 0.76083 0.0
C178 C 0.14312 0.78502 0.77022 0.0
N179 N 0.1336 0.79341 0.74658 0.0
C180 C 0.1268 0.80507 0.87872 0.0
C181 C 0.17045 0.82133 0.84847 0.0
C182 C 0.14836 0.82777 0.86768 0.0
C183 C 0.12698 0.81944 0.88389 0.0
C184 C 0.16943 0.80706 0.84385 0.0
N185 N 0.14718 0.79909 0.85799 0.0
H186 H 0.10848 0.79896 0.88904 0.0
H187 H 0.1842 0.80279 0.82568 0.0
H188 H 0.10741 0.80784 0.81085 0.0
H189 H 0.15479 0.77526 0.76679 0.0
O190 O 0.09211 0.78122 0.84013 0.0
O191 O 0.12173 0.76442 0.82159 0.0
O192 O 0.1821 0.77597 0.82785 0.0
C193 C 0.09425 0.76926 0.82587 0.0
H194 H 0.16203 0.75123 0.93706 0.0
H195 H 0.10649 0.81215 0.74874 0.0
H196 H 0.18679 0.82743 0.83489 0.0
H197 H 0.10907 0.82407 0.89837 0.0
Co198 Co 0.6273 0.78404 0.91927 0.0
C199 C 0.65778 0.77217 0.86111 0.0
C200 C 0.60958 0.76705 0.86309 0.0
C201 C 0.62282 0.76045 0.8373 0.0
N202 N 0.63144 0.77437 0.87834 0.0
N203 N 0.65322 0.76357 0.83599 0.0
H204 H 0.68018 0.77621 0.86762 0.0
H205 H 0.58582 0.76612 0.87067 0.0
C206 C 0.5613 0.78401 0.94394 0.0
O207 O 0.56571 0.79606 0.95746 0.0
N208 N 0.62576 0.79377 0.95975 0.0
C209 C 0.63519 0.80678 0.96572 0.0
C210 C 0.63494 0.80897 0.99805 0.0
C211 C 0.62038 0.78819 0.98869 0.0
N212 N 0.62571 0.79725 0.01251 0.0
C213 C 0.64824 0.80826 0.88632 0.0
C214 C 0.59268 0.82227 0.88696 0.0
C215 C 0.61961 0.82952 0.87916 0.0
C216 C 0.64746 0.82224 0.87761 0.0
C217 C 0.59438 0.80826 0.8951 0.0
N218 N 0.6222 0.80163 0.89671 0.0
H219 H 0.6702 0.80301 0.88661 0.0
H220 H 0.57328 0.80301 0.90088 0.0
H221 H 0.64327 0.81409 0.94822 0.0
H222 H 0.61285 0.77766 0.99208 0.0
O223 O 0.67219 0.78352 0.92475 0.0
O224 O 0.63912 0.76759 0.94107 0.0
O225 O 0.5806 0.77951 0.9228 0.0
C226 C 0.66727 0.77203 0.94019 0.0
H227 H 0.61095 0.75357 0.82109 0.0
H228 H 0.64276 0.81823 0.00996 0.0
H229 H 0.57055 0.82747 0.8873 0.0
H230 H 0.66864 0.82743 0.87086 0.0
Co231 Co 0.13379 0.97468 0.91648 0.0
C232 C 0.10431 0.98935 0.8617 0.0
C233 C 0.15247 0.98556 0.85353 0.0
C234 C 0.13967 0.99098 0.8261 0.0
N235 N 0.13031 0.98446 0.87592 0.0
N236 N 0.1094 0.99338 0.83128 0.0
H237 H 0.08163 0.98921 0.87247 0.0
H238 H 0.17596 0.982 0.85637 0.0
C239 C 0.19886 0.97592 0.94241 0.0
O240 O 0.19537 0.96329 0.95318 0.0
N241 N 0.13547 0.96486 0.95662 0.0
C242 C 0.13016 0.95138 0.96224 0.0
C243 C 0.13184 0.94911 0.99454 0.0
C244 C 0.13941 0.97063 0.98553 0.0
N245 N 0.13768 0.96125 0.00923 0.0
C246 C 0.11779 0.95122 0.87942 0.0
C247 C 0.17238 0.93677 0.88483 0.0
C248 C 0.14597 0.92979 0.87409 0.0
C249 C 0.11886 0.93742 0.86999 0.0
C250 C 0.17048 0.95081 0.89323 0.0
N251 N 0.14272 0.95753 0.89311 0.0
H252 H 0.09618 0.95663 0.87705 0.0
H253 H 0.1913 0.95602 0.89997 0.0
H254 H 0.12496 0.94371 0.94439 0.0
H255 H 0.14318 0.98155 0.98884 0.0
O256 O 0.08955 0.9727 0.91911 0.0
O257 O 0.11611 0.99034 0.9385 0.0
O258 O 0.1791 0.98088 0.92242 0.0
C259 C 0.08977 0.98404 0.9356 0.0
H260 H 0.15152 0.99264 0.8037 0.0
H261 H 0.12872 0.93923 0.00606 0.0
H262 H 0.19425 0.93143 0.88672 0.0
H263 H 0.0981 0.93258 0.86089 0.0
Co264 Co 0.3796 0.53448 0.67714 0.0
C265 C 0.36014 0.52452 0.6133 0.0
C266 C 0.38755 0.5095 0.63724 0.0
C267 C 0.37373 0.50337 0.61114 0.0
N268 N 0.37966 0.52294 0.63852 0.0
N269 N 0.35595 0.51277 0.59608 0.0
H270 H 0.3464 0.5336 0.60971 0.0
H271 H 0.39946 0.50403 0.65597 0.0
C272 C 0.44773 0.52268 0.6849 0.0
O273 O 0.45051 0.51625 0.65755 0.0
N274 N 0.37709 0.54592 0.71489 0.0
C275 C 0.36299 0.5583 0.71599 0.0
C276 C 0.36438 0.56327 0.74642 0.0
C277 C 0.3862 0.54332 0.74513 0.0
N278 N 0.37895 0.55392 0.76474 0.0
C279 C 0.371 0.55818 0.63674 0.0
C280 C 0.42352 0.57179 0.65686 0.0
C281 C 0.40005 0.57943 0.64227 0.0
C282 C 0.37429 0.57233 0.63068 0.0
C283 C 0.41966 0.55757 0.66193 0.0
N284 N 0.3928 0.55102 0.65358 0.0
H285 H 0.3489 0.55362 0.63171 0.0
H286 H 0.43691 0.55236 0.67591 0.0
H287 H 0.35166 0.56328 0.69624 0.0
H288 H 0.39784 0.53399 0.75255 0.0
O289 O 0.33513 0.53621 0.67354 0.0
O290 O 0.35983 0.51976 0.69993 0.0
O291 O 0.42335 0.52962 0.69145 0.0
C292 C 0.33386 0.52545 0.69208 0.0
H293 H 0.37506 0.49252 0.60538 0.0
H294 H 0.35479 0.57295 0.75467 0.0
H295 H 0.4436 0.57696 0.66658 0.0
H296 H 0.3553 0.57794 0.62002 0.0
Co297 Co 0.88401 0.72895 0.67296 0.0
C298 C 0.90396 0.73943 0.60927 0.0
C299 C 0.86542 0.75097 0.62701 0.0
C300 C 0.87613 0.75713 0.59938 0.0
N301 N 0.88244 0.73966 0.63315 0.0
N302 N 0.90064 0.74997 0.58826 0.0
H303 H 0.92248 0.73199 0.60782 0.0
H304 H 0.84771 0.75507 0.64246 0.0
C305 C 0.81422 0.73662 0.67888 0.0
O306 O 0.80803 0.73278 0.64957 0.0
N307 N 0.88827 0.71798 0.71114 0.0
C308 C 0.90498 0.70628 0.71155 0.0
C309 C 0.90464 0.70094 0.74153 0.0
C310 C 0.87808 0.71973 0.74135 0.0
N311 N 0.88763 0.70926 0.76034 0.0
C312 C 0.88689 0.70468 0.63294 0.0
C313 C 0.83663 0.69183 0.66045 0.0
C314 C 0.8579 0.68353 0.64397 0.0
C315 C 0.88259 0.69035 0.62873 0.0
C316 C 0.8425 0.70585 0.66528 0.0
N317 N 0.86785 0.71217 0.65241 0.0
H318 H 0.90755 0.70936 0.62342 0.0
H319 H 0.82835 0.71101 0.68257 0.0
H320 H 0.91717 0.702 0.69138 0.0
H321 H 0.86415 0.72835 0.74918 0.0
O322 O 0.92801 0.72633 0.66643 0.0
O323 O 0.90657 0.7437 0.69266 0.0
O324 O 0.84179 0.73553 0.68953 0.0
C325 C 0.9315 0.73735 0.6839 0.0
H326 H 0.86745 0.76661 0.58917 0.0
H327 H 0.91687 0.69177 0.74908 0.0
H328 H 0.81646 0.68741 0.67176 0.0
H329 H 0.89982 0.68459 0.61564 0.0
Co330 Co 0.38334 0.72739 0.58809 0.0
C331 C 0.35603 0.74071 0.64664 0.0
C332 C 0.40532 0.739 0.64986 0.0
C333 C 0.39421 0.74526 0.67718 0.0
N334 N 0.3815 0.73625 0.63033 0.0
N335 N 0.36315 0.74638 0.67531 0.0
H336 H 0.33271 0.74011 0.63761 0.0
H337 H 0.4292 0.73665 0.64471 0.0
C338 C 0.44327 0.74107 0.57373 0.0
O339 O 0.4292 0.75288 0.57845 0.0
N340 N 0.38343 0.71848 0.54708 0.0
C341 C 0.3677 0.70694 0.53968 0.0
C342 C 0.37076 0.70452 0.50767 0.0
C343 C 0.39554 0.72305 0.51947 0.0
N344 N 0.38824 0.71465 0.49485 0.0
C345 C 0.36541 0.70402 0.62655 0.0
C346 C 0.41381 0.68712 0.60823 0.0
C347 C 0.38995 0.68136 0.62655 0.0
C348 C 0.3658 0.69014 0.63626 0.0
C349 C 0.41266 0.70103 0.59923 0.0
N350 N 0.3884 0.70926 0.60786 0.0
H351 H 0.34595 0.71043 0.6329 0.0
H352 H 0.43055 0.70491 0.5837 0.0
H353 H 0.35393 0.70099 0.55623 0.0
H354 H 0.40852 0.73254 0.51745 0.0
O355 O 0.33841 0.72852 0.58456 0.0
O356 O 0.37161 0.74439 0.56825 0.0
O357 O 0.43001 0.72986 0.5829 0.0
C358 C 0.34324 0.74029 0.57023 0.0
H359 H 0.4081 0.74871 0.69706 0.0
H360 H 0.35949 0.69629 0.49471 0.0
H361 H 0.43312 0.68088 0.60045 0.0
H362 H 0.34669 0.68619 0.65021 0.0
Co363 Co 0.88201 0.53656 0.58563 0.0
C364 C 0.9125 0.52099 0.63835 0.0
C365 C 0.86685 0.52724 0.65148 0.0
C366 C 0.88095 0.52125 0.6777 0.0
N367 N 0.88668 0.52712 0.62669 0.0
N368 N 0.90971 0.51731 0.66935 0.0
H369 H 0.93364 0.51971 0.62503 0.0
H370 H 0.84406 0.53177 0.65094 0.0
C371 C 0.81684 0.53478 0.56086 0.0
O372 O 0.81957 0.54759 0.55107 0.0
N373 N 0.87929 0.54613 0.54504 0.0
C374 C 0.8832 0.55973 0.53922 0.0
C375 C 0.88422 0.56181 0.5069 0.0
C376 C 0.8782 0.54016 0.51601 0.0
N377 N 0.88132 0.54949 0.4924 0.0
C378 C 0.89637 0.56212 0.61641 0.0
C379 C 0.83712 0.57213 0.62295 0.0
C380 C 0.86203 0.58124 0.62718 0.0
C381 C 0.89191 0.57592 0.62498 0.0
C382 C 0.84262 0.55839 0.61366 0.0
N383 N 0.87203 0.5538 0.60831 0.0
H384 H 0.91977 0.55851 0.61426 0.0
H385 H 0.82311 0.55166 0.61034 0.0
H386 H 0.88627 0.5677 0.5568 0.0
H387 H 0.87588 0.52917 0.51229 0.0
O388 O 0.9263 0.53891 0.58216 0.0
O389 O 0.90033 0.5209 0.56392 0.0
O390 O 0.83699 0.5298 0.58039 0.0
C391 C 0.9264 0.52745 0.56608 0.0
H392 H 0.87087 0.51998 0.70112 0.0
H393 H 0.88841 0.57156 0.49507 0.0
H394 H 0.8136 0.57572 0.62574 0.0
H395 H 0.91177 0.58245 0.62934 0.0
Co396 Co 0.62716 0.47804 0.3366 0.0
C397 C 0.65459 0.48583 0.39881 0.0
C398 C 0.61609 0.49883 0.3878 0.0
C399 C 0.6314 0.50422 0.41397 0.0
N400 N 0.63065 0.48727 0.37807 0.0
N401 N 0.65552 0.496 0.4209 0.0
H402 H 0.67258 0.4782 0.39633 0.0
H403 H 0.5969 0.50359 0.37572 0.0
C404 C 0.56944 0.49282 0.31763 0.0
O405 O 0.58599 0.50415 0.31599 0.0
N406 N 0.6256 0.46872 0.29592 0.0
C407 C 0.63601 0.45589 0.28961 0.0
C408 C 0.63516 0.45371 0.25739 0.0
C409 C 0.61896 0.47425 0.26729 0.0
N410 N 0.62467 0.46528 0.24334 0.0
C411 C 0.64411 0.45288 0.36918 0.0
C412 C 0.58848 0.43962 0.35907 0.0
C413 C 0.61411 0.4317 0.36788 0.0
C414 C 0.64181 0.4386 0.37464 0.0
C415 C 0.59162 0.45382 0.35415 0.0
N416 N 0.61962 0.46021 0.35748 0.0
H417 H 0.66651 0.45766 0.37112 0.0
H418 H 0.57191 0.45922 0.34487 0.0
H419 H 0.64541 0.44878 0.30677 0.0
H420 H 0.61139 0.48478 0.264 0.0
O421 O 0.67248 0.47807 0.33291 0.0
O422 O 0.64115 0.49444 0.31619 0.0
O423 O 0.58089 0.48202 0.33115 0.0
C424 C 0.66902 0.48986 0.31834 0.0
H425 H 0.62595 0.51375 0.42617 0.0
H426 H 0.64364 0.44465 0.24514 0.0
H427 H 0.56656 0.43472 0.35393 0.0
H428 H 0.66224 0.43285 0.38128 0.0
Co429 Co 0.13334 0.28403 0.33131 0.0
C430 C 0.1156 0.27132 0.39343 0.0
C431 C 0.14563 0.25838 0.36647 0.0
C432 C 0.13215 0.25063 0.39017 0.0
N433 N 0.13608 0.27159 0.36849 0.0
N434 N 0.11246 0.25862 0.40689 0.0
H435 H 0.09996 0.27962 0.39882 0.0
H436 H 0.15777 0.25405 0.34631 0.0
C437 C 0.20194 0.27431 0.32291 0.0
O438 O 0.2045 0.26802 0.35041 0.0
N439 N 0.12764 0.29604 0.29505 0.0
C440 C 0.10966 0.30734 0.29549 0.0
C441 C 0.10748 0.31245 0.26524 0.0
C442 C 0.13586 0.29426 0.26419 0.0
N443 N 0.12399 0.30432 0.24544 0.0
C444 C 0.12196 0.30612 0.37579 0.0
C445 C 0.17125 0.32229 0.35679 0.0
C446 C 0.14814 0.32832 0.37558 0.0
C447 C 0.12382 0.31987 0.38595 0.0
C448 C 0.1689 0.30837 0.34768 0.0
N449 N 0.14397 0.30049 0.35636 0.0
H450 H 0.10108 0.30056 0.38104 0.0
H451 H 0.18595 0.30444 0.33134 0.0
H452 H 0.09771 0.31128 0.31618 0.0
H453 H 0.1496 0.2857 0.25567 0.0
O454 O 0.08906 0.28379 0.33696 0.0
O455 O 0.11617 0.26917 0.30721 0.0
O456 O 0.17761 0.28112 0.31569 0.0
C457 C 0.08952 0.2733 0.31753 0.0
H458 H 0.13462 0.23958 0.39272 0.0
H459 H 0.09356 0.3212 0.25825 0.0
H460 H 0.19056 0.32839 0.34832 0.0
H461 H 0.10512 0.32411 0.40002 0.0
Co462 Co 0.62705 0.28457 0.42026 0.0
C463 C 0.6544 0.27322 0.36088 0.0
C464 C 0.60804 0.26597 0.36708 0.0
C465 C 0.62147 0.25885 0.34211 0.0
N466 N 0.6288 0.27491 0.37926 0.0
N467 N 0.65053 0.2635 0.33817 0.0
H468 H 0.6763 0.27821 0.36534 0.0
H469 H 0.58524 0.2641 0.37651 0.0
C470 C 0.56955 0.26999 0.43836 0.0
O471 O 0.586 0.25862 0.43822 0.0
N472 N 0.62662 0.29412 0.46046 0.0
C473 C 0.63844 0.3067 0.46643 0.0
C474 C 0.63549 0.3094 0.49834 0.0
C475 C 0.6172 0.2892 0.48882 0.0
N476 N 0.62236 0.29834 0.51257 0.0
C477 C 0.64324 0.30794 0.38152 0.0
C478 C 0.59231 0.32374 0.39746 0.0
C479 C 0.61662 0.32992 0.38077 0.0
C480 C 0.64198 0.3218 0.37205 0.0
C481 C 0.5943 0.30983 0.40624 0.0
N482 N 0.61989 0.30218 0.39895 0.0
H483 H 0.66378 0.30205 0.37636 0.0
H484 H 0.57614 0.3056 0.42088 0.0
H485 H 0.6492 0.31336 0.44899 0.0
H486 H 0.60814 0.2789 0.492 0.0
O487 O 0.67221 0.2845 0.42254 0.0
O488 O 0.64113 0.26823 0.44097 0.0
O489 O 0.58099 0.28109 0.42639 0.0
C490 C 0.66898 0.27271 0.43714 0.0
H491 H 0.61115 0.25048 0.32875 0.0
H492 H 0.64317 0.31873 0.51001 0.0
H493 H 0.57231 0.32972 0.40447 0.0
H494 H 0.66115 0.32627 0.35903 0.0
Co495 Co 0.13345 0.47641 0.42002 0.0
C496 C 0.10822 0.48717 0.35903 0.0
C497 C 0.15162 0.49656 0.37065 0.0
C498 C 0.13839 0.50375 0.34577 0.0
N499 N 0.1327 0.48617 0.37923 0.0
N500 N 0.11097 0.49792 0.33856 0.0
H501 H 0.08748 0.48101 0.36119 0.0
H502 H 0.17233 0.49952 0.38327 0.0
C503 C 0.19821 0.47617 0.44815 0.0
O504 O 0.19312 0.46375 0.45954 0.0
N505 N 0.13207 0.4669 0.46058 0.0
C506 C 0.12233 0.45393 0.46652 0.0
C507 C 0.12068 0.45204 0.4989 0.0
C508 C 0.13567 0.47276 0.48946 0.0
N509 N 0.129 0.4639 0.51333 0.0
C510 C 0.11615 0.45155 0.38753 0.0
C511 C 0.17255 0.43842 0.39148 0.0
C512 C 0.14613 0.43048 0.38546 0.0
C513 C 0.11796 0.43733 0.38171 0.0
C514 C 0.16973 0.45269 0.3969 0.0
N515 N 0.14131 0.45881 0.39795 0.0
H516 H 0.09374 0.45636 0.38663 0.0
H517 H 0.19034 0.4585 0.40169 0.0
H518 H 0.11561 0.44642 0.44892 0.0
H519 H 0.14286 0.48335 0.49274 0.0
O520 O 0.08849 0.47615 0.42079 0.0
O521 O 0.118 0.49285 0.44017 0.0
O522 O 0.17927 0.48139 0.4277 0.0
C523 C 0.09056 0.48795 0.43542 0.0
H524 H 0.14744 0.51307 0.33504 0.0
H525 H 0.11269 0.44278 0.51074 0.0
H526 H 0.19489 0.43353 0.39387 0.0
H527 H 0.09705 0.43158 0.37676 0.0
Co528 Co 0.88326 0.03549 0.67058 0.0
C529 C 0.85888 0.02373 0.61039 0.0
C530 C 0.89853 0.01254 0.62668 0.0
C531 C 0.88468 1.00523 0.60224 0.0
N532 N 0.88232 0.02416 0.63198 0.0
N533 N 0.85975 0.01227 0.59193 0.0
H534 H 0.83969 0.03085 0.61039 0.0
H535 H 0.91734 0.00895 0.64141 0.0
C536 C 0.94729 0.03621 0.69938 0.0
O537 O 0.94166 0.04838 0.71179 0.0
N538 N 0.88117 0.04699 0.7088 0.0
C539 C 0.8709 0.0601 0.70895 0.0
C540 C 0.86813 0.06462 0.7394 0.0
C541 C 0.88356 0.04361 0.74016 0.0
N542 N 0.87629 0.05441 0.75948 0.0
C543 C 0.86565 0.05858 0.63136 0.0
C544 C 0.92097 0.0726 0.6371 0.0
C545 C 0.89448 0.08002 0.62885 0.0
C546 C 0.86697 0.0727 0.62398 0.0
C547 C 0.91865 0.05852 0.64423 0.0
N548 N 0.89058 0.05203 0.64445 0.0
H549 H 0.84347 0.05352 0.63072 0.0
H550 H 0.93918 0.05328 0.65181 0.0
H551 H 0.86398 0.06606 0.6887 0.0
H552 H 0.89012 0.03346 0.74847 0.0
O553 O 0.83817 0.03495 0.67187 0.0
O554 O 0.86989 0.01991 0.69456 0.0
O555 O 0.92925 0.03124 0.67784 0.0
C556 C 0.84189 0.02377 0.68877 0.0
H557 H 0.89115 0.99501 0.59421 0.0
H558 H 0.85917 0.07465 0.7457 0.0
H559 H 0.94278 0.07787 0.64058 0.0
H560 H 0.84598 0.07809 0.61759 0.0
Co561 Co 0.3818 0.22828 0.67172 0.0
C562 C 0.40262 0.23982 0.60957 0.0
C563 C 0.36654 0.25182 0.63061 0.0
C564 C 0.37912 0.25917 0.60574 0.0
N565 N 0.38077 0.23952 0.63299 0.0
N566 N 0.40229 0.25178 0.59271 0.0
H567 H 0.42072 0.23222 0.60725 0.0
H568 H 0.35093 0.25605 0.64809 0.0
C569 C 0.31207 0.2384 0.68026 0.0
O570 O 0.30407 0.24085 0.65066 0.0
N571 N 0.38402 0.21756 0.71021 0.0
C572 C 0.39488 0.20468 0.71445 0.0
C573 C 0.39218 0.20138 0.74628 0.0
C574 C 0.37543 0.22199 0.73918 0.0
N575 N 0.37989 0.21231 0.76174 0.0
C576 C 0.38636 0.20487 0.63002 0.0
C577 C 0.33682 0.19103 0.65657 0.0
C578 C 0.3588 0.18343 0.63948 0.0
C579 C 0.38285 0.19064 0.62452 0.0
C580 C 0.34096 0.20521 0.66123 0.0
N581 N 0.36655 0.21183 0.64969 0.0
H582 H 0.40693 0.20987 0.62127 0.0
H583 H 0.32548 0.21031 0.67747 0.0
H584 H 0.40418 0.19818 0.69585 0.0
H585 H 0.36684 0.23229 0.74359 0.0
O586 O 0.42579 0.22561 0.66645 0.0
O587 O 0.40399 0.2429 0.69271 0.0
O588 O 0.33908 0.23399 0.68711 0.0
C589 C 0.42905 0.23654 0.68421 0.0
H590 H 0.37314 0.26966 0.59948 0.0
H591 H 0.39879 0.19169 0.75705 0.0
H592 H 0.31785 0.18586 0.66845 0.0
H593 H 0.40043 0.18515 0.61125 0.0
Co594 Co 0.88349 0.22631 0.58054 0.0
C595 C 0.85762 0.23716 0.64085 0.0
C596 C 0.89878 0.24827 0.62933 0.0
C597 C 0.88511 0.25423 0.65602 0.0
N598 N 0.88156 0.23743 0.61982 0.0
N599 N 0.85917 0.24714 0.66334 0.0
H600 H 0.83803 0.23038 0.63864 0.0
H601 H 0.91923 0.25197 0.61728 0.0
C602 C 0.93873 0.24166 0.5561 0.0
O603 O 0.92057 0.25239 0.55268 0.0
N604 N 0.8826 0.21494 0.54271 0.0
C605 C 0.86743 0.20282 0.54211 0.0
C606 C 0.8671 0.1979 0.51177 0.0
C607 C 0.89086 0.21744 0.51212 0.0
N608 N 0.88194 0.20696 0.49276 0.0
C609 C 0.87328 0.20385 0.62406 0.0
C610 C 0.92365 0.18838 0.60519 0.0
C611 C 0.90071 0.18202 0.62374 0.0
C612 C 0.87584 0.19013 0.634 0.0
C613 C 0.92049 0.20227 0.59613 0.0
N614 N 0.89496 0.20975 0.60467 0.0
H615 H 0.85223 0.20918 0.62958 0.0
H616 H 0.93731 0.20654 0.5799 0.0
H617 H 0.85586 0.19814 0.5622 0.0
H618 H 0.90231 0.22675 0.50416 0.0
O619 O 0.83915 0.22445 0.58186 0.0
O620 O 0.86438 0.24118 0.55708 0.0
O621 O 0.9287 0.23093 0.57094 0.0
C622 C 0.83821 0.23532 0.56378 0.0
H623 H 0.89348 0.2632 0.6687 0.0
H624 H 0.85535 0.18863 0.50407 0.0
H625 H 0.94336 0.18254 0.59682 0.0
H626 H 0.85724 0.18565 0.64784 0.0
Co627 Co 0.38 0.03581 0.58606 0.0
C628 C 0.40506 0.02619 0.64789 0.0
C629 C 0.36358 0.01532 0.63628 0.0
C630 C 0.37755 0.0089 0.66206 0.0
N631 N 0.38073 0.02631 0.6274 0.0
N632 N 0.40357 0.01585 0.66935 0.0
H633 H 0.42521 0.0327 0.64554 0.0
H634 H 0.3436 0.01157 0.62353 0.0
C635 C 0.30758 0.03184 0.57578 0.0
O636 O 0.29692 0.04243 0.59185 0.0
N637 N 0.38141 0.0449 0.54543 0.0
C638 C 0.39702 0.05658 0.53911 0.0
C639 C 0.39555 0.05907 0.50706 0.0
C640 C 0.37105 0.04028 0.51722 0.0
N641 N 0.37935 0.04878 0.49309 0.0
C642 C 0.38502 0.05878 0.62966 0.0
C643 C 0.34394 0.0759 0.59868 0.0
C644 C 0.36197 0.08144 0.62328 0.0
C645 C 0.38224 0.07256 0.63922 0.0
C646 C 0.34714 0.06197 0.59014 0.0
N647 N 0.36769 0.0535 0.60537 0.0
H648 H 0.40285 0.05277 0.64053 0.0
H649 H 0.33492 0.05838 0.56934 0.0
H650 H 0.40937 0.06265 0.55658 0.0
H651 H 0.35886 0.03062 0.51459 0.0
O652 O 0.42495 0.03762 0.58746 0.0
O653 O 0.39859 0.01992 0.56769 0.0
O654 O 0.33652 0.02908 0.57535 0.0
C655 C 0.42503 0.0256 0.57341 0.0
H656 H 0.36978 0.99957 0.67377 0.0
H657 H 0.40678 0.06759 0.49519 0.0
H658 H 0.32809 0.08236 0.58549 0.0
H659 H 0.39724 0.07639 0.65785 0.0
Co660 Co 0.13262 0.97511 0.3335 0.0
C661 C 0.1609 0.98531 0.3935 0.0
C662 C 0.11695 0.99483 0.3866 0.0
C663 C 0.1312 1.00074 0.41296 0.0
N664 N 0.13555 0.98501 0.37441 0.0
N665 N 0.15901 0.99472 0.41732 0.0
H666 H 0.18125 0.97918 0.38913 0.0
H667 H 0.09511 0.99793 0.37645 0.0
C668 C 0.06073 0.98212 0.32676 0.0
O669 O 0.04856 0.97417 0.34878 0.0
N670 N 0.1317 0.96548 0.29336 0.0
C671 C 0.14274 0.95271 0.28764 0.0
C672 C 0.1428 0.95048 0.25533 0.0
C673 C 0.12585 0.97096 0.26457 0.0
N674 N 0.13245 0.96201 0.24094 0.0
C675 C 0.13636 0.95238 0.37723 0.0
C676 C 0.08983 0.93679 0.35004 0.0
C677 C 0.10911 0.9306 0.37265 0.0
C678 C 0.13199 0.93869 0.38698 0.0
C679 C 0.09449 0.95065 0.34147 0.0
N680 N 0.11806 0.95822 0.35443 0.0
H681 H 0.15588 0.95794 0.38656 0.0
H682 H 0.08092 0.95485 0.32223 0.0
H683 H 0.15169 0.94579 0.30559 0.0
H684 H 0.11849 0.98151 0.26097 0.0
O685 O 0.17699 0.97188 0.33428 0.0
O686 O 0.15352 0.99012 0.31327 0.0
O687 O 0.09004 0.98261 0.32276 0.0
C688 C 0.1789 0.98352 0.31878 0.0
H689 H 0.1219 0.009 0.42739 0.0
H690 H 0.1518 0.94147 0.24325 0.0
H691 H 0.07187 0.93086 0.33844 0.0
H692 H 0.14742 0.93425 0.40448 0.0
Co693 Co 0.63662 0.78356 0.33531 0.0
C694 C 0.60483 0.77195 0.39301 0.0
C695 C 0.64932 0.7628 0.38575 0.0
C696 C 0.6343 0.75584 0.41005 0.0
N697 N 0.63096 0.77299 0.37493 0.0
N698 N 0.60639 0.76164 0.41481 0.0
H699 H 0.58409 0.77786 0.3888 0.0
H700 H 0.6713 0.76 0.37542 0.0
C701 C 0.71212 0.77748 0.33284 0.0
O702 O 0.72866 0.78091 0.35782 0.0
N703 N 0.64031 0.79405 0.29632 0.0
C704 C 0.6262 0.80618 0.29052 0.0
C705 C 0.62692 0.80871 0.25837 0.0
C706 C 0.6492 0.78934 0.26759 0.0
N707 N 0.64109 0.79803 0.24384 0.0
C708 C 0.61829 0.80632 0.37593 0.0
C709 C 0.66906 0.82264 0.36212 0.0
C710 C 0.64436 0.82855 0.37877 0.0
C711 C 0.61912 0.82007 0.38652 0.0
C712 C 0.66772 0.80878 0.35276 0.0
N713 N 0.64223 0.80084 0.3589 0.0
H714 H 0.59755 0.80038 0.37972 0.0
H715 H 0.68625 0.80484 0.3382 0.0
H716 H 0.61383 0.81221 0.30802 0.0
H717 H 0.65903 0.77927 0.26405 0.0
O718 O 0.59199 0.78347 0.32855 0.0
O719 O 0.62501 0.76768 0.31122 0.0
O720 O 0.6829 0.77982 0.33371 0.0
C721 C 0.59699 0.77235 0.31174 0.0
H722 H 0.64274 0.74679 0.4224 0.0
H723 H 0.61534 0.81716 0.24654 0.0
H724 H 0.68902 0.8288 0.35572 0.0
H725 H 0.59943 0.82424 0.39919 0.0
Co726 Co 0.12593 0.78317 0.42365 0.0
C727 C 0.15856 0.77172 0.36699 0.0
C728 C 0.1101 0.76808 0.36245 0.0
C729 C 0.12511 0.76255 0.3361 0.0
N730 N 0.1311 0.77395 0.38199 0.0
N731 N 0.15566 0.76482 0.33917 0.0
H732 H 0.18071 0.77493 0.37614 0.0
H733 H 0.08569 0.76739 0.3671 0.0
C734 C 0.05549 0.77609 0.42307 0.0
O735 O 0.0504 0.78306 0.39675 0.0
N736 N 0.12294 0.79237 0.46399 0.0
C737 C 0.13483 0.80486 0.47086 0.0
C738 C 0.13336 0.8068 0.50315 0.0
C739 C 0.11458 0.78681 0.49197 0.0
N740 N 0.12082 0.7954 0.51645 0.0
C741 C 0.12965 0.80713 0.38369 0.0
C742 C 0.08099 0.82088 0.41196 0.0
C743 C 0.10255 0.82867 0.39454 0.0
C744 C 0.12631 0.82144 0.37894 0.0
C745 C 0.08564 0.80677 0.41684 0.0
N746 N 0.11031 0.80007 0.40368 0.0
H747 H 0.14969 0.80201 0.3739 0.0
H748 H 0.07136 0.80174 0.43439 0.0
H749 H 0.14557 0.81171 0.45378 0.0
H750 H 0.10576 0.77643 0.4943 0.0
O751 O 0.1696 0.78769 0.42425 0.0
O752 O 0.14903 0.76855 0.44383 0.0
O753 O 0.0832 0.77473 0.43325 0.0
C754 C 0.17339 0.7762 0.43993 0.0
H755 H 0.11452 0.75676 0.31696 0.0
H756 H 0.14296 0.8155 0.51587 0.0
H757 H 0.06176 0.82579 0.4239 0.0
H758 H 0.14364 0.8269 0.36524 0.0
Co759 Co 0.62965 0.97603 0.42645 0.0
C760 C 0.61175 0.98486 0.36113 0.0
C761 C 0.63637 1.00059 0.38585 0.0
C762 C 0.62239 0.00636 0.35958 0.0
N763 N 0.6304 0.98695 0.3869 0.0
N764 N 0.60624 0.99654 0.34398 0.0
H765 H 0.59958 0.97536 0.35708 0.0
H766 H 0.64624 0.00645 0.40522 0.0
C767 C 0.69685 0.98865 0.43539 0.0
O768 O 0.69783 0.99659 0.41014 0.0
N769 N 0.62659 0.9654 0.4653 0.0
C770 C 0.61224 0.95312 0.46852 0.0
C771 C 0.61481 0.94886 0.49957 0.0
C772 C 0.63695 0.96867 0.49468 0.0
N773 N 0.63016 0.95865 0.51589 0.0
C774 C 0.62061 0.95151 0.38855 0.0
C775 C 0.67356 0.93838 0.40892 0.0
C776 C 0.65027 0.93047 0.3947 0.0
C777 C 0.62422 0.93732 0.38305 0.0
C778 C 0.66944 0.95261 0.4133 0.0
N779 N 0.64248 0.95898 0.40464 0.0
H780 H 0.59846 0.95597 0.38325 0.0
H781 H 0.68679 0.95802 0.42674 0.0
H782 H 0.60058 0.94762 0.44966 0.0
H783 H 0.64962 0.97798 0.50031 0.0
O784 O 0.5853 0.97445 0.42236 0.0
O785 O 0.60999 0.99125 0.44768 0.0
O786 O 0.67367 0.98071 0.44057 0.0
C787 C 0.58399 0.98552 0.43986 0.0
H788 H 0.62193 0.01729 0.3545 0.0
H789 H 0.60611 0.93931 0.50951 0.0
H790 H 0.69389 0.93343 0.41861 0.0
H791 H 0.60537 0.93152 0.37261 0.0
Co792 Co 0.88405 0.5345 0.16963 0.0
C793 C 0.86366 0.52507 0.10457 0.0
C794 C 0.88722 0.50946 0.13033 0.0
C795 C 0.87339 0.50347 0.10456 0.0
N796 N 0.88273 0.52326 0.13025 0.0
N797 N 0.85773 0.51316 0.08853 0.0
H798 H 0.85048 0.5343 0.10039 0.0
H799 H 0.89264 0.50346 0.15103 0.0
C800 C 0.94702 0.52019 0.18332 0.0
O801 O 0.93946 0.50854 0.16987 0.0
N802 N 0.88324 0.5451 0.20834 0.0
C803 C 0.86733 0.55674 0.21418 0.0
C804 C 0.86876 0.55946 0.24631 0.0
C805 C 0.89398 0.54087 0.2367 0.0
N806 N 0.8854 0.54941 0.26059 0.0
C807 C 0.87045 0.55823 0.13073 0.0
C808 C 0.923 0.57302 0.14579 0.0
C809 C 0.8991 0.57976 0.12963 0.0
C810 C 0.87294 0.57206 0.12141 0.0
C811 C 0.92003 0.55899 0.15384 0.0
N812 N 0.89375 0.5517 0.14671 0.0
H813 H 0.84851 0.55324 0.1273 0.0
H814 H 0.93813 0.55444 0.16792 0.0
H815 H 0.85419 0.56242 0.19668 0.0
H816 H 0.9065 0.53133 0.23964 0.0
O817 O 0.83975 0.53549 0.16811 0.0
O818 O 0.86591 0.51916 0.19306 0.0
O819 O 0.93004 0.53096 0.17979 0.0
C820 C 0.83929 0.52462 0.18617 0.0
H821 H 0.87024 0.49246 0.10142 0.0
H822 H 0.85688 0.56781 0.2582 0.0
H823 H 0.9436 0.57861 0.15268 0.0
H824 H 0.85368 0.57693 0.10942 0.0
Co825 Co 0.38134 0.72552 0.17064 0.0
C826 C 0.40533 0.73483 0.10776 0.0
C827 C 0.36344 0.74547 0.11918 0.0
C828 C 0.37552 0.75093 0.0913 0.0
N829 N 0.38179 0.73515 0.12938 0.0
N830 N 0.40205 0.74433 0.08437 0.0
H831 H 0.42519 0.72813 0.10957 0.0
H832 H 0.34385 0.7495 0.132 0.0
C833 C 0.30981 0.73488 0.17812 0.0
O834 O 0.299 0.73454 0.14893 0.0
N835 N 0.38287 0.71601 0.21107 0.0
C836 C 0.39091 0.70279 0.2166 0.0
C837 C 0.39346 0.70084 0.24892 0.0
C838 C 0.38118 0.72196 0.24001 0.0
N839 N 0.38753 0.71294 0.26356 0.0
C840 C 0.38922 0.70042 0.13495 0.0
C841 C 0.3341 0.68847 0.15311 0.0
C842 C 0.35737 0.6798 0.14098 0.0
C843 C 0.38469 0.68618 0.1303 0.0
C844 C 0.33988 0.70252 0.15822 0.0
N845 N 0.36773 0.70826 0.15054 0.0
H846 H 0.41134 0.70481 0.12879 0.0
H847 H 0.32269 0.70832 0.17091 0.0
H848 H 0.39615 0.6952 0.19859 0.0
H849 H 0.37632 0.73279 0.24361 0.0
O850 O 0.42591 0.72339 0.16779 0.0
O851 O 0.40148 0.74107 0.1899 0.0
O852 O 0.33799 0.73163 0.18382 0.0
C853 C 0.42735 0.73497 0.18355 0.0
H854 H 0.3664 0.7596 0.0781 0.0
H855 H 0.40082 0.69145 0.26059 0.0
H856 H 0.31198 0.68436 0.16046 0.0
H857 H 0.40348 0.68014 0.12059 0.0
Co858 Co 0.88477 0.72681 0.08025 0.0
C859 C 0.85788 0.7369 0.14079 0.0
C860 C 0.89726 0.74915 0.12892 0.0
C861 C 0.88185 0.75519 0.15455 0.0
N862 N 0.88231 0.73752 0.12029 0.0
N863 N 0.85669 0.74754 0.16172 0.0
H864 H 0.83987 0.72925 0.13924 0.0
H865 H 0.91659 0.75355 0.11616 0.0
C866 C 0.95469 0.7339 0.07987 0.0
O867 O 0.95862 0.72909 0.10883 0.0
N868 N 0.88396 0.71589 0.04175 0.0
C869 C 0.86985 0.70351 0.04047 0.0
C870 C 0.87085 0.69871 0.00999 0.0
C871 C 0.89277 0.7187 0.01152 0.0
N872 N 0.88525 0.70817 0.99175 0.0
C873 C 0.88113 0.70353 0.12346 0.0
C874 C 0.92841 0.68911 0.09446 0.0
C875 C 0.90739 0.6818 0.11342 0.0
C876 C 0.88451 0.68932 0.12945 0.0
C877 C 0.92442 0.70326 0.0893 0.0
N878 N 0.90004 0.71026 0.10239 0.0
H879 H 0.8611 0.70862 0.133 0.0
H880 H 0.93848 0.708 0.07113 0.0
H881 H 0.85885 0.69842 0.06038 0.0
H882 H 0.90405 0.72815 0.00417 0.0
O883 O 0.84051 0.72375 0.08301 0.0
O884 O 0.86356 0.74127 0.05842 0.0
O885 O 0.92776 0.73379 0.06747 0.0
C886 C 0.83825 0.73485 0.06559 0.0
H887 H 0.88755 0.76499 0.16543 0.0
H888 H 0.86083 0.68914 1.00163 0.0
H889 H 0.94622 0.68369 0.08135 0.0
H890 H 0.86749 0.68405 0.14395 0.0
Co891 Co 0.38223 0.53431 0.08118 0.0
C892 C 0.40327 0.52132 0.142 0.0
C893 C 0.37397 0.50797 0.11501 0.0
C894 C 0.3875 0.50045 0.13898 0.0
N895 N 0.38296 0.52124 0.11703 0.0
N896 N 0.40665 0.50868 0.15582 0.0
H897 H 0.41784 0.53003 0.14767 0.0
H898 H 0.36155 0.50357 0.09515 0.0
C899 C 0.31397 0.5231 0.0743 0.0
O900 O 0.3125 0.51591 0.10072 0.0
N901 N 0.38401 0.54725 0.04606 0.0
C902 C 0.40106 0.55886 0.04624 0.0
C903 C 0.40132 0.56439 0.01634 0.0
C904 C 0.37431 0.54576 0.0156 0.0
N905 N 0.38461 0.5562 0.99688 0.0
C906 C 0.3951 0.55683 0.12391 0.0
C907 C 0.33883 0.56981 0.11625 0.0
C908 C 0.36355 0.57743 0.12857 0.0
C909 C 0.3917 0.57066 0.13335 0.0
C910 C 0.34335 0.55614 0.10639 0.0
N911 N 0.37163 0.54993 0.10897 0.0
H912 H 0.41769 0.55221 0.12562 0.0
H913 H 0.32444 0.55107 0.09461 0.0
H914 H 0.41445 0.5626 0.06608 0.0
H915 H 0.36143 0.53693 0.0071 0.0
O916 O 0.42723 0.53489 0.08257 0.0
O917 O 0.39888 0.52039 0.05404 0.0
O918 O 0.33757 0.53061 0.06792 0.0
C919 C 0.42594 0.52505 0.0614 0.0
H920 H 0.38497 0.48943 0.14205 0.0
H921 H 0.41473 0.57328 0.00911 0.0
H922 H 0.31658 0.57465 0.11255 0.0
H923 H 0.41126 0.57616 0.14323 0.0
Co924 Co 0.13088 0.47586 0.83813 0.0
C925 C 0.15106 0.48557 0.90172 0.0
C926 C 0.11464 0.49797 0.88273 0.0
C927 C 0.12838 0.50501 0.90743 0.0
N928 N 0.1286 0.48565 0.87892 0.0
N929 N 0.15164 0.49734 0.91922 0.0
H930 H 0.16936 0.478 0.90257 0.0
H931 H 0.09901 0.50256 0.86579 0.0
C932 C 0.06048 0.48532 0.83027 0.0
O933 O 0.05202 0.48716 0.86001 0.0
N934 N 0.1348 0.46654 0.79784 0.0
C935 C 0.1475 0.45414 0.79181 0.0
C936 C 0.14847 0.45224 0.7593 0.0
C937 C 0.12869 0.4721 0.76921 0.0
N938 N 0.13672 0.46359 0.74518 0.0
C939 C 0.13833 0.45069 0.87366 0.0
C940 C 0.08527 0.43829 0.85105 0.0
C941 C 0.10803 0.42988 0.8647 0.0
C942 C 0.13418 0.43639 0.87762 0.0
C943 C 0.09046 0.45242 0.84717 0.0
N944 N 0.11737 0.45841 0.85708 0.0
H945 H 0.15981 0.45526 0.88129 0.0
H946 H 0.0738 0.45809 0.8335 0.0
H947 H 0.15644 0.44716 0.80961 0.0
H948 H 0.11902 0.4823 0.76621 0.0
O949 O 0.17539 0.47424 0.84297 0.0
O950 O 0.15057 0.49172 0.82024 0.0
O951 O 0.0878 0.48126 0.82338 0.0
C952 C 0.17649 0.48603 0.82806 0.0
H953 H 0.12388 0.51565 0.91377 0.0
H954 H 0.15824 0.44344 0.74708 0.0
H955 H 0.06427 0.43387 0.8415 0.0
H956 H 0.15242 0.43039 0.88846 0.0
Co957 Co 0.63751 0.28312 0.83704 0.0
C958 C 0.60825 0.27089 0.89497 0.0
C959 C 0.65762 0.27122 0.89888 0.0
C960 C 0.64524 0.2663 0.92709 0.0
N961 N 0.63445 0.27409 0.87861 0.0
N962 N 0.61415 0.26609 0.92463 0.0
H963 H 0.58517 0.27254 0.88603 0.0
H964 H 0.68183 0.27294 0.89397 0.0
C965 C 0.70351 0.2836 0.813 0.0
O966 O 0.69958 0.29621 0.80239 0.0
N967 N 0.6387 0.29242 0.79591 0.0
C968 C 0.63716 0.30614 0.79015 0.0
C969 C 0.63481 0.3083 0.75802 0.0
C970 C 0.63702 0.28647 0.76685 0.0
N971 N 0.63447 0.29594 0.74349 0.0
C972 C 0.61821 0.30864 0.86552 0.0
C973 C 0.67624 0.32033 0.8699 0.0
C974 C 0.6503 0.3289 0.87221 0.0
C975 C 0.62101 0.32278 0.87199 0.0
C976 C 0.6724 0.30619 0.86422 0.0
N977 N 0.64369 0.3008 0.8589 0.0
H978 H 0.59537 0.30433 0.8629 0.0
H979 H 0.69269 0.29986 0.86234 0.0
H980 H 0.63726 0.31425 0.80763 0.0
H981 H 0.63708 0.27545 0.76279 0.0
O982 O 0.59251 0.28286 0.83272 0.0
O983 O 0.62437 0.26639 0.81699 0.0
O984 O 0.68358 0.27828 0.83233 0.0
C985 C 0.59636 0.27096 0.81876 0.0
H986 H 0.65819 0.26324 0.94795 0.0
H987 H 0.63223 0.31819 0.74634 0.0
H988 H 0.69929 0.32466 0.87078 0.0
H989 H 0.60041 0.32905 0.87402 0.0
Co990 Co 0.13279 0.28483 0.92409 0.0
C991 C 0.15788 0.27352 0.86357 0.0
C992 C 0.11863 0.26191 0.87964 0.0
C993 C 0.13212 0.25507 0.85427 0.0
N994 N 0.13484 0.27348 0.88565 0.0
N995 N 0.15673 0.2624 0.84408 0.0
H996 H 0.17676 0.28083 0.86354 0.0
H997 H 0.09986 0.25808 0.89418 0.0
C998 C 0.06815 0.28428 0.95203 0.0
O999 O 0.07145 0.29724 0.96052 0.0
N1000 N 0.13322 0.29632 0.9622 0.0
C1001 C 0.14414 0.30934 0.96327 0.0
C1002 C 0.14373 0.31389 0.99401 0.0
C1003 C 0.12753 0.29293 0.99307 0.0
N1004 N 0.13295 0.30372 0.01282 0.0
C1005 C 0.14535 0.30849 0.88528 0.0
C1006 C 0.08661 0.31945 0.88512 0.0
C1007 C 0.11154 0.32794 0.8768 0.0
C1008 C 0.14097 0.32212 0.87544 0.0
C1009 C 0.0921 0.30585 0.89524 0.0
N1010 N 0.12158 0.30094 0.89797 0.0
H1011 H 0.16859 0.30455 0.88533 0.0
H1012 H 0.07259 0.29955 0.90146 0.0
H1013 H 0.15297 0.31516 0.94346 0.0
H1014 H 0.11897 0.28297 1.00073 0.0
O1015 O 0.17708 0.28688 0.92324 0.0
O1016 O 0.15182 0.27016 0.94815 0.0
O1017 O 0.08813 0.27868 0.9333 0.0
C1018 C 0.17796 0.27607 0.94152 0.0
H1019 H 0.12562 0.24499 0.84542 0.0
H1020 H 0.15134 0.32396 1.00201 0.0
H1021 H 0.06326 0.32343 0.88492 0.0
H1022 H 0.16065 0.32822 0.8679 0.0
Co1023 Co 0.63451 0.47573 0.91917 0.0
C1024 C 0.61304 0.48602 0.85626 0.0
C1025 C 0.64862 0.49873 0.87578 0.0
C1026 C 0.6344 0.50579 0.85132 0.0
N1027 N 0.6356 0.48616 0.879 0.0
N1028 N 0.61192 0.49781 0.83898 0.0
H1029 H 0.59474 0.47847 0.85539 0.0
H1030 H 0.6639 0.50339 0.893 0.0
C1031 C 0.70505 0.48539 0.92594 0.0
O1032 O 0.71219 0.48903 0.89673 0.0
N1033 N 0.63163 0.46589 0.9589 0.0
C1034 C 0.61757 0.45377 0.96479 0.0
C1035 C 0.61648 0.45184 0.9973 0.0
C1036 C 0.63857 0.47121 0.98755 0.0
N1037 N 0.62956 0.46289 0.01159 0.0
C1038 C 0.62626 0.45221 0.87837 0.0
C1039 C 0.67551 0.43727 0.90201 0.0
C1040 C 0.65427 0.43066 0.88205 0.0
C1041 C 0.62993 0.43839 0.86945 0.0
C1042 C 0.67147 0.45125 0.90972 0.0
N1043 N 0.64667 0.4585 0.89848 0.0
H1044 H 0.60568 0.45747 0.87086 0.0
H1045 H 0.68701 0.45584 0.92676 0.0
H1046 H 0.6075 0.44714 0.94686 0.0
H1047 H 0.64893 0.48128 0.99047 0.0
O1048 O 0.58999 0.4744 0.91542 0.0
O1049 O 0.61593 0.49132 0.93934 0.0
O1050 O 0.67827 0.48059 0.93261 0.0
C1051 C 0.58968 0.48581 0.93184 0.0
H1052 H 0.63792 0.51656 0.84556 0.0
H1053 H 0.60536 0.44331 0.00935 0.0
H1054 H 0.69458 0.43159 0.91226 0.0
H1055 H 0.61287 0.43357 0.85421 0.0
H1056 H 0.23848 0.96808 0.9896 0.0
H1057 H 0.21307 1.00375 0.93303 0.0
H1058 H 0.24974 0.01805 0.96452 0.0
H1059 H 0.24329 0.9862 0.06375 0.0
H1060 H 0.27468 0.97579 0.07834 0.0
H1061 H 0.24731 0.96859 0.05066 0.0
H1062 H 0.29187 0.96212 0.01222 0.0
H1063 H 0.31941 0.9692 0.03982 0.0
H1064 H 0.3185 0.97529 0.99926 0.0
H1065 H 0.28926 0.02857 0.0053 0.0
H1066 H 0.32822 0.03351 0.04728 0.0
H1067 H 0.32638 0.99058 0.07558 0.0
C1068 C 0.24073 0.97886 0.98327 0.0
C1069 C 0.22294 0.98469 0.95829 0.0
C1070 C 0.22659 0.99894 0.95164 0.0
C1071 C 0.24727 0.00717 0.96962 0.0
C1072 C 0.26405 1.00104 0.99439 0.0
C1073 C 0.26087 0.98716 1.00102 0.0
C1074 C 0.28062 0.9829 0.02914 0.0
C1075 C 0.26026 0.97809 0.05712 0.0
C1076 C 0.30399 0.97172 0.01952 0.0
C1077 C 0.2965 0.99642 0.03683 0.0
C1078 C 0.28635 0.00688 0.01703 0.0
C1079 C 0.29737 0.02037 0.02064 0.0
C1080 C 0.31943 0.02312 0.04462 0.0
C1081 C 0.33073 0.01242 0.06446 0.0
C1082 C 0.31876 0.99894 0.06044 0.0
H1083 H 0.02868 0.29259 0.9994 0.0
H1084 H 0.051 0.25708 0.94085 0.0
H1085 H 0.01163 0.24335 0.97003 0.0
H1086 H 0.01821 0.27348 0.07205 0.0
H1087 H 0.98763 0.28446 0.0863 0.0
H1088 H 0.01698 0.29135 0.06033 0.0
H1089 H 0.97488 0.29955 0.02086 0.0
H1090 H 0.94539 0.29274 0.04673 0.0
H1091 H 0.94722 0.28728 0.00571 0.0
H1092 H 0.97029 0.23325 0.00833 0.0
H1093 H 0.92987 0.22839 0.04889 0.0
H1094 H 0.93428 0.27081 0.08066 0.0
C1095 C 0.02514 0.28197 0.99225 0.0
C1096 C 0.04289 0.27601 0.96737 0.0
C1097 C 0.03764 0.26197 0.95951 0.0
C1098 C 0.01536 0.25407 0.97611 0.0
C1099 C 0.99853 0.26029 1.00071 0.0
C1100 C 1.00323 0.27397 0.00861 0.0
C1101 C 0.98284 0.27827 0.03633 0.0
C1102 C 1.00259 0.28212 0.06547 0.0
C1103 C 0.9613 0.29016 0.02682 0.0
C1104 C 0.96497 0.26504 0.04224 0.0
C1105 C 0.97474 0.25467 0.02193 0.0
C1106 C 0.9624 0.24137 0.02404 0.0
C1107 C 0.93949 0.23867 0.04717 0.0
C1108 C 0.92859 0.24925 0.06758 0.0
C1109 C 0.94167 0.26259 0.06496 0.0
H1110 H 0.23041 0.25048 0.30206 0.0
H1111 H 0.22832 0.29471 0.28734 0.0
H1112 H 0.26858 0.29249 0.24568 0.0
H1113 H 0.31089 0.24442 0.28936 0.0
H1114 H 0.30573 0.22873 0.2669 0.0
H1115 H 0.27731 0.23378 0.29599 0.0
H1116 H 0.23474 0.23264 0.2529 0.0
H1117 H 0.26306 0.22761 0.22363 0.0
H1118 H 0.23911 0.24251 0.21678 0.0
H1119 H 0.31116 0.28563 0.2078 0.0
H1120 H 0.35013 0.27457 0.17329 0.0
H1121 H 0.32219 0.23435 0.20803 0.0
C1122 C 0.23876 0.25969 0.29026 0.0
C1123 C 0.22681 0.27285 0.29852 0.0
C1124 C 0.23747 0.2846 0.28177 0.0
C1125 C 0.26028 0.28341 0.25801 0.0
C1126 C 0.27168 0.27033 0.25048 0.0
C1127 C 0.2609 0.25863 0.26567 0.0
C1128 C 0.27598 0.24575 0.25176 0.0
C1129 C 0.29353 0.2377 0.27755 0.0
C1130 C 0.25178 0.23659 0.2353 0.0
C1131 C 0.29801 0.25207 0.22748 0.0
C1132 C 0.295 0.26628 0.22717 0.0
C1133 C 0.31351 0.27451 0.20772 0.0
C1134 C 0.33575 0.26814 0.18829 0.0
C1135 C 0.33939 0.2536 0.18795 0.0
C1136 C 0.31985 0.24547 0.20759 0.0
H1137 H 0.90775 0.99985 0.22236 0.0
H1138 H 0.96939 0.02301 0.16048 0.0
H1139 H 0.01259 0.01797 0.19602 0.0
H1140 H 0.9445 0.00981 0.29742 0.0
H1141 H 0.93996 0.9931 0.31567 0.0
H1142 H 0.91272 0.99884 0.28609 0.0
H1143 H 0.92334 0.97693 0.25263 0.0
H1144 H 0.95049 0.97109 0.28216 0.0
H1145 H 0.96242 0.97285 0.24121 0.0
H1146 H 0.04998 0.0105 0.23736 0.0
H1147 H 0.07981 1.00008 0.2807 0.0
H1148 H 0.99648 0.98063 0.31706 0.0
C1149 C 0.9303 1.00389 0.21629 0.0
C1150 C 0.93452 0.01214 0.18852 0.0
C1151 C 0.96474 0.01708 0.18173 0.0
C1152 C 0.98977 0.01416 0.20181 0.0
C1153 C 0.98477 0.00619 0.22891 0.0
C1154 C 0.9559 1.00103 0.23625 0.0
C1155 C 0.95747 0.99245 0.26675 0.0
C1156 C 0.93747 0.99893 0.29304 0.0
C1157 C 0.94786 0.97744 0.26029 0.0
C1158 C 0.99175 0.99346 0.27499 0.0
C1159 C 1.00682 1.00157 0.25283 0.0
C1160 C 0.0384 1.00412 0.25483 0.0
C1161 C 0.05522 0.9981 0.27975 0.0
C1162 C 0.04083 0.98942 0.30266 0.0
C1163 C 0.00838 0.98723 0.30026 0.0
H1164 H 0.70137 0.98472 0.94384 0.0
H1165 H 0.66005 0.02529 0.93509 0.0
H1166 H 0.6976 0.03453 0.97365 0.0
H1167 H 0.71784 0.98693 0.02847 0.0
H1168 H 0.75402 0.97786 0.02544 0.0
H1169 H 0.72354 0.97433 0.99744 0.0
H1170 H 0.76042 0.97992 0.95054 0.0
H1171 H 0.79104 0.98337 0.9784 0.0
H1172 H 0.78017 0.9963 0.9497 0.0
H1173 H 0.74145 0.03967 0.01316 0.0
H1174 H 0.78741 0.03998 0.04829 0.0
H1175 H 0.79981 0.99615 0.03177 0.0
C1176 C 0.7002 0.99555 0.94992 0.0
C1177 C 0.67726 1.00418 0.93628 0.0
C1178 C 0.67676 0.01831 0.94534 0.0
C1179 C 0.69824 0.02372 0.96725 0.0
C1180 C 0.72032 0.01494 0.98034 0.0
C1181 C 0.72142 1.00114 0.97199 0.0
C1182 C 0.7476 0.99391 0.98936 0.0
C1183 C 0.73499 0.98259 0.01149 0.0
C1184 C 0.7712 0.98803 0.96558 0.0
C1185 C 0.76125 0.0058 0.00843 0.0
C1186 C 0.74516 0.01785 1.00305 0.0
C1187 C 0.75403 0.03023 0.01765 0.0
C1188 C 0.78014 0.03031 0.0378 0.0
C1189 C 0.79732 0.0181 0.04331 0.0
C1190 C 0.78724 0.00569 0.02851 0.0
H1191 H 0.96475 0.75494 0.03519 0.0
H1192 H 1.00696 0.71855 0.07634 0.0
H1193 H 0.05166 0.72128 0.04034 0.0
H1194 H 0.99106 0.75053 0.95402 0.0
H1195 H 0.99961 0.7685 0.94732 0.0
H1196 H 0.97013 0.76364 0.97551 0.0
H1197 H 0.99783 0.77757 0.01957 0.0
H1198 H 0.0273 0.78254 0.99146 0.0
H1199 H 0.03784 0.77409 0.02809 0.0
H1200 H 0.09132 0.72736 0.99916 0.0
H1201 H 0.12574 0.73734 0.95894 0.0
H1202 H 0.06157 0.77123 0.94527 0.0
C1203 C 0.9835 0.74759 0.03663 0.0
C1204 C 0.98226 0.7365 0.05887 0.0
C1205 C 0.0074 0.72719 0.05999 0.0
C1206 C 0.03287 0.72862 0.0394 0.0
C1207 C 0.03352 0.73962 0.01794 0.0
C1208 C 0.00979 0.74911 0.01668 0.0
C1209 C 0.0174 0.76038 0.99234 0.0
C1210 C 0.9931 0.76078 0.96571 0.0
C1211 C 0.02025 0.77448 0.00885 0.0
C1212 C 0.04872 0.75554 0.9797 0.0
C1213 C 0.05733 0.7435 0.99487 0.0
C1214 C 0.08498 0.7369 0.98749 0.0
C1215 C 0.10466 0.74278 0.96454 0.0
C1216 C 0.09717 0.75532 0.94884 0.0
C1217 C 0.06837 0.76168 0.95655 0.0
H1218 H 0.80048 0.75953 0.71692 0.0
H1219 H 0.76935 0.71824 0.69371 0.0
H1220 H 0.7271 0.72041 0.73302 0.0
H1221 H 0.7823 0.75923 0.80138 0.0
H1222 H 0.7679 0.77667 0.80248 0.0
H1223 H 0.79664 0.77185 0.77348 0.0
H1224 H 0.7612 0.78039 0.72806 0.0
H1225 H 0.73242 0.78531 0.75694 0.0
H1226 H 0.72247 0.77371 0.725 0.0
H1227 H 0.68809 0.72684 0.77459 0.0
H1228 H 0.65261 0.7375 0.81321 0.0
H1229 H 0.70575 0.77542 0.8097 0.0
C1230 C 0.78471 0.75097 0.72021 0.0
C1231 C 0.78827 0.73866 0.7021 0.0
C1232 C 0.76701 0.72776 0.70699 0.0
C1233 C 0.74299 0.7289 0.72945 0.0
C1234 C 0.73991 0.74113 0.74676 0.0
C1235 C 0.7599 0.75207 0.7422 0.0
C1236 C 0.7501 0.76431 0.76292 0.0
C1237 C 0.77577 0.76824 0.78647 0.0
C1238 C 0.74102 0.77666 0.74199 0.0
C1239 C 0.72194 0.75842 0.78025 0.0
C1240 C 0.71667 0.74501 0.7704 0.0
C1241 C 0.69193 0.73736 0.78226 0.0
C1242 C 0.6717 0.74356 0.80419 0.0
C1243 C 0.6759 0.75738 0.81452 0.0
C1244 C 0.70183 0.76483 0.80256 0.0
H1245 H 0.06296 0.01222 0.83847 0.0
H1246 H 0.10458 0.98412 0.77077 0.0
H1247 H 0.06672 0.99129 0.72987 0.0
H1248 H 0.98288 0.00859 0.81189 0.0
H1249 H 0.97412 0.02662 0.81709 0.0
H1250 H 1.00291 0.01853 0.84171 0.0
H1251 H 0.04287 0.03691 0.82417 0.0
H1252 H 0.01419 0.04501 0.79946 0.0
H1253 H 0.05031 0.03951 0.78233 0.0
H1254 H 0.02314 1.00145 0.69607 0.0
H1255 H 0.98097 0.01515 0.67152 0.0
H1256 H 0.97069 0.03799 0.75971 0.0
C1257 C 0.06382 0.00751 0.8151 0.0
C1258 C 0.08668 0.99754 0.80782 0.0
C1259 C 0.0874 0.99179 0.7768 0.0
C1260 C 0.06586 0.99576 0.75347 0.0
C1261 C 0.04382 0.0057 0.76121 0.0
C1262 C 0.04283 0.0116 0.79123 0.0
C1263 C 0.01801 0.02267 0.79278 0.0
C1264 C 0.993 0.01887 0.81732 0.0
C1265 C 0.0322 0.03686 0.80011 0.0
C1266 C 1.00539 0.0221 0.75901 0.0
C1267 C 0.02015 0.01208 0.74128 0.0
C1268 C 0.01167 0.00942 0.7097 0.0
C1269 C 0.9877 0.01725 0.69587 0.0
C1270 C 0.97289 0.02785 0.71333 0.0
C1271 C 0.98198 0.03019 0.74537 0.0
H1272 H 0.33679 0.48775 0.57121 0.0
H1273 H 0.32294 0.53195 0.56189 0.0
H1274 H 0.2834 0.52768 0.52092 0.0
H1275 H 0.3273 0.47974 0.48678 0.0
H1276 H 0.30795 0.46363 0.49468 0.0
H1277 H 0.33594 0.47022 0.52255 0.0
H1278 H 0.29526 0.46903 0.56781 0.0
H1279 H 0.26727 0.46238 0.54013 0.0
H1280 H 0.25877 0.4777 0.56286 0.0
H1281 H 0.24297 0.5182 0.48069 0.0
H1282 H 0.20593 0.50457 0.44838 0.0
H1283 H 0.24707 0.46684 0.48391 0.0
C1284 C 0.32593 0.49664 0.56057 0.0
C1285 C 0.33349 0.51027 0.57058 0.0
C1286 C 0.31785 0.52139 0.55548 0.0
C1287 C 0.29526 0.51907 0.53181 0.0
C1288 C 0.28836 0.50553 0.52284 0.0
C1289 C 0.30339 0.49452 0.53681 0.0
C1290 C 0.29143 0.48093 0.52359 0.0
C1291 C 0.31719 0.47317 0.50585 0.0
C1292 C 0.27734 0.47199 0.55018 0.0
C1293 C 0.26683 0.48594 0.50055 0.0
C1294 C 0.26555 0.50018 0.50006 0.0
C1295 C 0.24408 0.50705 0.48085 0.0
C1296 C 0.22319 0.49921 0.46231 0.0
C1297 C 0.22354 0.48457 0.46315 0.0
C1298 C 0.24613 0.47799 0.48234 0.0
H1299 H 0.05494 0.76261 0.48257 0.0
H1300 H 0.99405 0.77963 0.41053 0.0
H1301 H 0.9492 0.77432 0.44434 0.0
H1302 H 1.00275 0.7344 0.50695 0.0
H1303 H 0.01264 0.73557 0.54855 0.0
H1304 H 0.04054 0.74033 0.5186 0.0
H1305 H 0.04654 0.76435 0.54461 0.0
H1306 H 0.01867 0.75968 0.57464 0.0
H1307 H 0.01284 0.77492 0.55079 0.0
H1308 H 0.91046 0.76839 0.48651 0.0
H1309 H 0.88017 0.7612 0.5334 0.0
H1310 H 0.96387 0.74703 0.57947 0.0
C1311 C 0.03216 0.76508 0.47371 0.0
C1312 C 0.02843 0.77155 0.4434 0.0
C1313 C 0.99798 0.77464 0.43324 0.0
C1314 C 0.97215 0.77168 0.45244 0.0
C1315 C 0.9766 0.76548 0.48206 0.0
C1316 C 1.00578 0.76207 0.49267 0.0
C1317 C 1.00371 0.75548 0.52577 0.0
C1318 C 0.01562 0.74056 0.52491 0.0
C1319 C 0.0215 0.76412 0.5504 0.0
C1320 C 0.9689 0.75588 0.53211 0.0
C1321 C 0.95389 0.76175 0.50645 0.0
C1322 C 0.92199 0.76369 0.50662 0.0
C1323 C 0.9049 0.7596 0.53353 0.0
C1324 C 0.91928 0.75347 0.56033 0.0
C1325 C 0.95192 0.75149 0.55934 0.0
H1326 H 0.3032 0.73959 0.69315 0.0
H1327 H 0.37709 0.76884 0.71051 0.0
H1328 H 0.34585 0.78002 0.75218 0.0
H1329 H 0.23867 0.76374 0.70675 0.0
H1330 H 0.21487 0.75124 0.72699 0.0
H1331 H 0.24226 0.74566 0.69732 0.0
H1332 H 0.26704 0.72914 0.73828 0.0
H1333 H 0.23983 0.73472 0.76813 0.0
H1334 H 0.28069 0.7359 0.7757 0.0
H1335 H 0.30838 0.78748 0.79438 0.0
H1336 H 0.2658 0.79155 0.83222 0.0
H1337 H 0.21361 0.75832 0.78861 0.0
C1338 C 0.3126 0.74844 0.70549 0.0
C1339 C 0.34303 0.75322 0.69844 0.0
C1340 C 0.35431 0.76479 0.71556 0.0
C1341 C 0.33659 0.77128 0.73931 0.0
C1342 C 0.30722 0.76619 0.74622 0.0
C1343 C 0.29507 0.75509 0.72975 0.0
C1344 C 0.26298 0.75158 0.74287 0.0
C1345 C 0.23823 0.75315 0.71693 0.0
C1346 C 0.26262 0.73697 0.75708 0.0
C1347 C 0.25911 0.76248 0.76899 0.0
C1348 C 0.28514 0.77069 0.77053 0.0
C1349 C 0.28785 0.78113 0.79328 0.0
C1350 C 0.26348 0.78332 0.81495 0.0
C1351 C 0.23615 0.77527 0.81388 0.0
C1352 C 0.23406 0.76471 0.79026 0.0
H1353 H 0.91949 0.52072 0.73363 0.0
H1354 H 0.95352 0.4992 0.6501 0.0
H1355 H 0.99421 0.48836 0.68263 0.0
H1356 H 0.99486 0.52759 0.76738 0.0
H1357 H 0.98263 0.52528 0.80809 0.0
H1358 H 0.95545 0.53111 0.77858 0.0
H1359 H 0.91908 0.5108 0.7927 0.0
H1360 H 0.94619 0.50489 0.82221 0.0
H1361 H 0.93357 0.49338 0.7911 0.0
H1362 H 0.0312 0.4797 0.72388 0.0
H1363 H 0.06349 0.47452 0.77042 0.0
H1364 H 0.00765 0.50192 0.82844 0.0
C1365 C 0.93531 0.51361 0.72228 0.0
C1366 C 0.9331 0.51081 0.68912 0.0
C1367 C 0.95474 0.50163 0.67523 0.0
C1368 C 0.9779 0.49535 0.69362 0.0
C1369 C 0.97951 0.49837 0.72606 0.0
C1370 C 0.95896 0.50734 0.74033 0.0
C1371 C 0.96669 0.50911 0.77554 0.0
C1372 C 0.97543 0.52417 0.78282 0.0
C1373 C 0.93977 0.50425 0.79663 0.0
C1374 C 0.99453 0.49962 0.77887 0.0
C1375 C 1.00139 0.49354 0.74992 0.0
C1376 C 0.02609 0.48447 0.74659 0.0
C1377 C 0.0445 0.48165 0.77329 0.0
C1378 C 0.03857 0.48789 0.80326 0.0
C1379 C 0.01284 0.4969 0.80604 0.0
H1380 H 0.69695 0.51705 0.42106 0.0
H1381 H 0.66817 0.48091 0.47358 0.0
H1382 H 0.70707 0.48614 0.51551 0.0
H1383 H 0.78017 0.51306 0.44078 0.0
H1384 H 0.7865 0.53143 0.44202 0.0
H1385 H 0.75737 0.52434 0.41611 0.0
H1386 H 0.71631 0.54012 0.44228 0.0
H1387 H 0.74525 0.5472 0.4683 0.0
H1388 H 0.71083 0.53954 0.48486 0.0
H1389 H 0.74928 0.49644 0.55342 0.0
H1390 H 0.78948 0.51022 0.58152 0.0
H1391 H 0.79018 0.53923 0.50294 0.0
C1392 C 0.69906 0.51023 0.44135 0.0
C1393 C 0.67947 0.49861 0.44426 0.0
C1394 C 0.68302 0.48983 0.47096 0.0
C1395 C 0.70505 0.49276 0.49486 0.0
C1396 C 0.72392 0.5044 0.4915 0.0
C1397 C 0.72137 0.51286 0.46504 0.0
C1398 C 0.74449 0.52462 0.46664 0.0
C1399 C 0.76855 0.52328 0.4398 0.0
C1400 C 0.72823 0.5387 0.46547 0.0
C1401 C 0.75914 0.52201 0.49893 0.0
C1402 C 0.74761 0.51016 0.51279 0.0
C1403 C 0.75835 0.50574 0.54261 0.0
C1404 C 0.7812 0.51363 0.55851 0.0
C1405 C 0.79278 0.52598 0.54491 0.0
C1406 C 0.78151 0.53003 0.51456 0.0
H1407 H 0.08022 0.27329 0.45291 0.0
H1408 H 0.08807 0.23266 0.41002 0.0
H1409 H 0.04813 0.2239 0.44603 0.0
H1410 H 0.06527 0.2607 0.53449 0.0
H1411 H 0.03783 0.27408 0.54368 0.0
H1412 H 0.06861 0.27735 0.51572 0.0
H1413 H 0.02875 0.28453 0.47297 0.0
H1414 H 0.99794 0.28141 0.50089 0.0
H1415 H 0.9979 0.27284 0.46276 0.0
H1416 H 1.00697 0.21902 0.48717 0.0
H1417 H 0.96409 0.21932 0.52609 0.0
H1418 H 0.97887 0.26309 0.54112 0.0
C1419 C 0.07362 0.26255 0.45112 0.0
C1420 C 0.08831 0.2537 0.42862 0.0
C1421 C 0.07843 0.23971 0.42731 0.0
C1422 C 0.05538 0.23457 0.44773 0.0
C1423 C 0.04183 0.24343 0.46977 0.0
C1424 C 0.05035 0.25717 0.47151 0.0
C1425 C 0.03119 0.2645 0.49694 0.0
C1426 C 0.05196 0.26946 0.52433 0.0
C1427 C 0.01285 0.27653 0.48251 0.0
C1428 C 0.00987 0.25289 0.50812 0.0
C1429 C 0.01707 0.24073 0.4927 0.0
C1430 C 1.00118 0.2285 0.49937 0.0
C1431 C 0.97693 0.22874 0.5218 0.0
C1432 C 0.96806 0.24117 0.53701 0.0
C1433 C 0.98509 0.25338 0.5301 0.0
H1434 H 0.68133 0.27569 0.28925 0.0
H1435 H 0.67309 0.23766 0.34242 0.0
H1436 H 0.71339 0.22693 0.30834 0.0
H1437 H 0.69239 0.25875 0.21173 0.0
H1438 H 0.71882 0.2717 0.19734 0.0
H1439 H 0.68924 0.27628 0.22568 0.0
H1440 H 0.73074 0.286 0.26406 0.0
H1441 H 0.7603 0.28164 0.23566 0.0
H1442 H 0.76256 0.27517 0.27585 0.0
H1443 H 0.755 0.22039 0.26762 0.0
H1444 H 0.79681 0.21932 0.22735 0.0
H1445 H 0.77817 0.26171 0.20094 0.0
C1446 C 0.68813 0.26511 0.29356 0.0
C1447 C 0.67416 0.25744 0.31831 0.0
C1448 C 0.68342 0.24361 0.32334 0.0
C1449 C 0.70623 0.23746 0.30409 0.0
C1450 C 0.71928 0.24521 0.27946 0.0
C1451 C 0.71055 0.25875 0.27416 0.0
C1452 C 0.72804 0.26481 0.24608 0.0
C1453 C 0.7058 0.26809 0.21858 0.0
C1454 C 0.74652 0.27766 0.25603 0.0
C1455 C 0.74907 0.25285 0.2374 0.0
C1456 C 0.74316 0.2415 0.25638 0.0
C1457 C 0.75963 0.22922 0.25256 0.0
C1458 C 0.78319 0.22864 0.22938 0.0
C1459 C 0.79058 0.24037 0.21071 0.0
C1460 C 0.77286 0.25253 0.2146 0.0
H1461 H 0.9798 0.49775 0.20461 0.0
H1462 H 0.97349 0.54218 0.21563 0.0
H1463 H 0.01448 0.54125 0.25677 0.0
H1464 H 0.98954 0.49032 0.28748 0.0
H1465 H 0.01555 0.4761 0.28083 0.0
H1466 H 0.98705 0.48039 0.25126 0.0
H1467 H 0.02989 0.48282 0.20859 0.0
H1468 H 0.05855 0.47842 0.23791 0.0
H1469 H 0.06194 0.49428 0.21575 0.0
H1470 H 0.05718 0.53525 0.29666 0.0
H1471 H 0.09609 0.52491 0.33245 0.0
H1472 H 0.07224 0.48418 0.29781 0.0
C1473 C 0.98723 0.50737 0.21525 0.0
C1474 C 0.97355 0.52011 0.20626 0.0
C1475 C 0.98375 0.53233 0.22157 0.0
C1476 C 1.00698 0.53187 0.24512 0.0
C1477 C 0.01968 0.5191 0.25349 0.0
C1478 C 0.00999 0.50707 0.23905 0.0
C1479 C 0.02643 0.49459 0.25301 0.0
C1480 C 1.00326 0.48477 0.2691 0.0
C1481 C 0.04532 0.48709 0.22728 0.0
C1482 C 0.0473 0.50144 0.27741 0.0
C1483 C 0.04315 0.51561 0.27718 0.0
C1484 C 0.06047 0.52419 0.29697 0.0
C1485 C 0.08267 0.51821 0.31716 0.0
C1486 C 0.08739 0.50373 0.31795 0.0
C1487 C 0.06907 0.49526 0.29795 0.0
H1488 H 0.74017 0.00952 0.44531 0.0
H1489 H 0.70921 0.97018 0.48309 0.0
H1490 H 0.74707 0.97213 0.52666 0.0
H1491 H 0.82182 0.0055 0.46482 0.0
H1492 H 0.82698 0.02333 0.47581 0.0
H1493 H 0.79828 0.01865 0.4467 0.0
H1494 H 0.75634 0.03087 0.48032 0.0
H1495 H 0.78485 0.03551 0.50964 0.0
H1496 H 0.75093 0.02599 0.5214 0.0
H1497 H 0.78892 0.97807 0.56617 0.0
H1498 H 0.83042 0.98799 0.5996 0.0
H1499 H 0.8333 0.02418 0.53926 0.0
C1500 C 0.74163 1.00122 0.46249 0.0
C1501 C 0.72166 0.9896 0.46032 0.0
C1502 C 0.72413 0.97915 0.48387 0.0
C1503 C 0.74565 0.98017 0.50884 0.0
C1504 C 0.7647 0.99177 0.51043 0.0
C1505 C 0.76287 1.00216 0.48797 0.0
C1506 C 0.78554 0.01372 0.49592 0.0
C1507 C 0.80958 0.0154 0.46922 0.0
C1508 C 0.76838 0.02733 0.50219 0.0
C1509 C 0.80037 0.00821 0.52629 0.0
C1510 C 0.78811 0.99546 0.53399 0.0
C1511 C 0.79858 0.98806 0.56036 0.0
C1512 C 0.82222 0.99375 0.5792 0.0
C1513 C 0.8351 0.00683 0.57213 0.0
C1514 C 0.82373 0.01421 0.54539 0.0
H1515 H 0.4382 0.23693 0.55081 0.0
H1516 H 0.42004 0.27849 0.58439 0.0
H1517 H 0.4582 0.28764 0.54657 0.0
H1518 H 0.52042 0.24134 0.54033 0.0
H1519 H 0.52241 0.23099 0.5047 0.0
H1520 H 0.49293 0.22763 0.53399 0.0
H1521 H 0.45098 0.23041 0.49056 0.0
H1522 H 0.48037 0.23392 0.46122 0.0
H1523 H 0.44954 0.24609 0.4675 0.0
H1524 H 0.49888 0.2926 0.50488 0.0
H1525 H 0.54108 0.29254 0.46512 0.0
H1526 H 0.53429 0.24796 0.45856 0.0
C1527 C 0.44227 0.24795 0.55021 0.0
C1528 C 0.42541 0.25694 0.57046 0.0
C1529 C 0.43173 0.27132 0.56877 0.0
C1530 C 0.45364 0.27667 0.54738 0.0
C1531 C 0.4694 0.26759 0.52748 0.0
C1532 C 0.46417 0.25352 0.52877 0.0
C1533 C 0.48475 0.24605 0.50497 0.0
C1534 C 0.50642 0.23591 0.52202 0.0
C1535 C 0.46524 0.23868 0.47956 0.0
C1536 C 0.50258 0.25809 0.49057 0.0
C1537 C 0.49312 0.27044 0.50367 0.0
C1538 C 0.50633 0.28297 0.49433 0.0
C1539 C 0.53015 0.28286 0.47145 0.0
C1540 C 0.54088 0.2703 0.45824 0.0
C1541 C 0.52651 0.25778 0.46786 0.0
H1542 H 0.7568 0.29252 0.78349 0.0
H1543 H 0.70522 0.25537 0.80557 0.0
H1544 H 0.7408 0.24186 0.77149 0.0
H1545 H 0.77137 0.28576 0.7035 0.0
H1546 H 0.81019 0.29248 0.70288 0.0
H1547 H 0.78271 0.29899 0.73134 0.0
H1548 H 0.81959 0.29283 0.77764 0.0
H1549 H 0.84745 0.28644 0.74931 0.0
H1550 H 0.83406 0.27546 0.78111 0.0
H1551 H 0.77969 0.23277 0.73071 0.0
H1552 H 0.81969 0.22855 0.69014 0.0
H1553 H 0.84678 0.27162 0.69448 0.0
C1554 C 0.7534 0.28148 0.78182 0.0
C1555 C 0.72823 0.27502 0.79768 0.0
C1556 C 0.72454 0.26056 0.79436 0.0
C1557 C 0.74457 0.25281 0.77476 0.0
C1558 C 0.76865 0.25957 0.75888 0.0
C1559 C 0.77346 0.27356 0.76269 0.0
C1560 C 0.80065 0.27842 0.74253 0.0
C1561 C 0.79061 0.28957 0.71864 0.0
C1562 C 0.827 0.2836 0.76392 0.0
C1563 C 0.80968 0.26512 0.72567 0.0
C1564 C 0.79107 0.25435 0.73568 0.0
C1565 C 0.79444 0.24114 0.72296 0.0
C1566 C 0.81722 0.23887 0.69957 0.0
C1567 C 0.83664 0.24972 0.68859 0.0
C1568 C 0.83276 0.26302 0.70229 0.0
H1569 H 0.52492 0.96809 0.76013 0.0
H1570 H 0.55351 1.00403 0.81427 0.0
H1571 H 0.51385 0.01797 0.78634 0.0
H1572 H 0.51235 0.98591 0.68677 0.0
H1573 H 0.47982 0.97543 0.67536 0.0
H1574 H 0.50956 0.96832 0.70039 0.0
H1575 H 0.46865 0.96189 0.74292 0.0
H1576 H 0.43872 0.96891 0.718 0.0
H1577 H 0.44328 0.97505 0.75825 0.0
H1578 H 0.47252 0.02829 0.74918 0.0
H1579 H 0.43169 0.03356 0.70964 0.0
H1580 H 0.4291 0.99062 0.68153 0.0
C1581 C 0.52271 0.97885 0.76661 0.0
C1582 C 0.5424 0.98488 0.78982 0.0
C1583 C 0.53867 0.99908 0.79695 0.0
C1584 C 0.51624 0.0071 0.78102 0.0
C1585 C 0.49759 1.00081 0.75797 0.0
C1586 C 0.50055 0.98696 0.75099 0.0
C1587 C 0.47831 0.98265 0.72482 0.0
C1588 C 0.49607 0.97779 0.69508 0.0
C1589 C 0.45591 0.97146 0.73672 0.0
C1590 C 0.46169 0.99615 0.71852 0.0
C1591 C 0.47351 0.00658 0.73748 0.0
C1592 C 0.46294 0.02013 0.73462 0.0
C1593 C 0.43976 0.02305 0.71209 0.0
C1594 C 0.42681 0.01249 0.69294 0.0
C1595 C 0.438 0.99885 0.69637 0.0
H1596 H 0.25121 0.03949 0.54885 0.0
H1597 H 0.31735 0.00593 0.55216 0.0
H1598 H 0.28623 0.99295 0.51318 0.0
H1599 H 0.18172 0.01848 0.53956 0.0
H1600 H 0.16372 0.03015 0.51181 0.0
H1601 H 0.19033 0.03667 0.54115 0.0
H1602 H 0.22323 0.04773 0.4964 0.0
H1603 H 0.19678 0.04121 0.46693 0.0
H1604 H 0.23727 0.0371 0.46428 0.0
H1605 H 0.24823 0.98346 0.47353 0.0
H1606 H 0.20706 0.97829 0.43532 0.0
H1607 H 0.16548 0.01822 0.45441 0.0
C1608 C 0.25885 0.0293 0.54183 0.0
C1609 C 0.2867 0.02369 0.55421 0.0
C1610 C 0.29612 0.01047 0.54348 0.0
C1611 C 0.27855 1.00299 0.52121 0.0
C1612 C 0.25149 0.00883 0.50933 0.0
C1613 C 0.24167 0.02171 0.51912 0.0
C1614 C 0.21226 0.02576 0.50145 0.0
C1615 C 0.18541 0.02789 0.5249 0.0
C1616 C 0.21772 0.03872 0.48106 0.0
C1617 C 0.20693 0.0131 0.48056 0.0
C1618 C 0.22993 1.00349 0.4856 0.0
C1619 C 0.23022 0.99097 0.4693 0.0
C1620 C 0.20661 0.98816 0.44728 0.0
C1621 C 0.1827 0.99783 0.44109 0.0
C1622 C 0.18303 0.01049 0.45835 0.0
H1623 H 0.48339 0.76232 0.55835 0.0
H1624 H 0.46402 0.71943 0.53668 0.0
H1625 H 0.50271 0.72017 0.49328 0.0
H1626 H 0.49363 0.77449 0.48034 0.0
H1627 H 0.52563 0.78578 0.48909 0.0
H1628 H 0.49788 0.78173 0.51967 0.0
H1629 H 0.54147 0.77284 0.55642 0.0
H1630 H 0.56948 0.7771 0.52617 0.0
H1631 H 0.56762 0.75982 0.5419 0.0
H1632 H 0.54281 0.72602 0.45001 0.0
H1633 H 0.58227 0.73594 0.41373 0.0
H1634 H 0.57571 0.77508 0.4628 0.0
C1635 C 0.48765 0.75298 0.54488 0.0
C1636 C 0.4705 0.74077 0.55132 0.0
C1637 C 0.47692 0.72886 0.5328 0.0
C1638 C 0.4988 0.72922 0.50781 0.0
C1639 C 0.51475 0.74151 0.5017 0.0
C1640 C 0.50981 0.75311 0.52013 0.0
C1641 C 0.53019 0.76499 0.50888 0.0
C1642 C 0.51065 0.77748 0.4989 0.0
C1643 C 0.55357 0.76892 0.53489 0.0
C1644 C 0.54644 0.75851 0.48038 0.0
C1645 C 0.53749 0.74488 0.4769 0.0
C1646 C 0.54993 0.73665 0.45275 0.0
C1647 C 0.57232 0.74237 0.43216 0.0
C1648 C 0.58196 0.75629 0.43521 0.0
C1649 C 0.56851 0.76447 0.45957 0.0
H1650 H 0.16078 0.76503 0.2738 0.0
H1651 H 0.20755 0.75257 0.36027 0.0
H1652 H 0.25091 0.74344 0.32836 0.0
H1653 H 0.18434 0.7366 0.22359 0.0
H1654 H 0.19083 0.74699 0.1886 0.0
H1655 H 0.16294 0.75236 0.21796 0.0
H1656 H 0.19093 0.77583 0.2236 0.0
H1657 H 0.2189 0.77054 0.19422 0.0
H1658 H 0.2315 0.77614 0.23302 0.0
H1659 H 0.28879 0.73524 0.28759 0.0
H1660 H 0.32025 0.72941 0.24093 0.0
H1661 H 0.25179 0.74791 0.17891 0.0
C1662 C 0.18011 0.76029 0.28586 0.0
C1663 C 0.18066 0.75945 0.31967 0.0
C1664 C 0.20663 0.75338 0.33457 0.0
C1665 C 0.23135 0.74813 0.31657 0.0
C1666 C 0.23024 0.74915 0.28345 0.0
C1667 C 0.20551 0.75521 0.26812 0.0
C1668 C 0.21107 0.75544 0.23218 0.0
C1669 C 0.18578 0.74736 0.21454 0.0
C1670 C 0.21322 0.77037 0.22003 0.0
C1671 C 0.24227 0.74819 0.2297 0.0
C1672 C 0.2528 0.74475 0.25972 0.0
C1673 C 0.28085 0.73801 0.26402 0.0
C1674 C 0.29879 0.7348 0.23715 0.0
C1675 C 0.28909 0.7383 0.20591 0.0
C1676 C 0.26011 0.74504 0.20229 0.0
H1677 H 0.50185 0.04159 0.22623 0.0
H1678 H 0.45335 1.00424 0.19918 0.0
H1679 H 0.48909 0.99058 0.23291 0.0
H1680 H 0.57962 0.02656 0.22947 0.0
H1681 H 0.59057 0.03698 0.26317 0.0
H1682 H 0.56273 0.04338 0.23498 0.0
H1683 H 0.52367 0.04726 0.28088 0.0
H1684 H 0.55123 0.04077 0.30917 0.0
H1685 H 0.51347 0.03303 0.30647 0.0
H1686 H 0.52932 0.98122 0.27374 0.0
H1687 H 0.56915 0.9772 0.31447 0.0
H1688 H 0.59064 0.02102 0.31414 0.0
C1689 C 0.499 0.03049 0.22677 0.0
C1690 C 0.47476 0.02403 0.20954 0.0
C1691 C 0.47191 0.00948 0.21153 0.0
C1692 C 0.49206 1.00163 0.2309 0.0
C1693 C 0.51523 0.00842 0.24812 0.0
C1694 C 0.51888 0.02254 0.24585 0.0
C1695 C 0.54477 0.02755 0.26734 0.0
C1696 C 0.57097 0.034 0.24756 0.0
C1697 C 0.53255 0.03775 0.29245 0.0
C1698 C 0.55497 0.01411 0.28261 0.0
C1699 C 0.53782 1.00315 0.27122 0.0
C1700 C 0.54287 0.98979 0.28257 0.0
C1701 C 0.56576 0.98761 0.30603 0.0
C1702 C 0.58361 0.99871 0.31846 0.0
C1703 C 0.57793 0.01213 0.30592 0.0
H1704 H 0.75648 0.50301 0.9295 0.0
H1705 H 0.70333 0.47341 0.98455 0.0
H1706 H 0.73378 0.47897 0.03208 0.0
H1707 H 0.83034 0.49517 0.96737 0.0
H1708 H 0.84379 0.51277 0.9669 0.0
H1709 H 0.81722 0.50686 0.93686 0.0
H1710 H 0.77966 0.52659 0.95187 0.0
H1711 H 0.80597 0.53244 0.98224 0.0
H1712 H 0.76667 0.52823 0.99251 0.0
H1713 H 0.76826 0.48798 0.07439 0.0
H1714 H 0.80996 0.4976 0.10758 0.0
H1715 H 0.8448 0.52057 0.02662 0.0
C1716 C 0.75147 0.49761 0.95147 0.0
C1717 C 0.72681 0.48792 0.95316 0.0
C1718 C 0.72129 0.48111 0.98255 0.0
C1719 C 0.73862 0.48418 0.00983 0.0
C1720 C 0.76199 0.49401 0.00765 0.0
C1721 C 0.76895 0.50047 0.9792 0.0
C1722 C 0.79622 0.51029 0.98367 0.0
C1723 C 0.82351 0.50601 0.96243 0.0
C1724 C 0.78655 0.52528 0.97717 0.0
C1725 C 0.80359 0.50817 0.01887 0.0
C1726 C 0.78304 0.49888 0.03216 0.0
C1727 C 0.78457 0.4952 0.06418 0.0
C1728 C 0.80827 0.50077 0.0829 0.0
C1729 C 0.83062 0.50984 0.06978 0.0
C1730 C 0.82787 0.51379 0.03737 0.0
H1731 H 0.46124 0.75386 0.0896 0.0
H1732 H 0.39062 0.74307 0.02129 0.0
H1733 H 0.42552 0.74991 0.977 0.0
H1734 H 0.48562 0.78435 0.04964 0.0
H1735 H 0.52591 0.7825 0.05948 0.0
H1736 H 0.49688 0.77523 0.08521 0.0
H1737 H 0.52283 0.75129 0.08024 0.0
H1738 H 0.55184 0.75854 0.05433 0.0
H1739 H 0.52923 0.74397 0.04131 0.0
H1740 H 0.46887 0.75845 0.93955 0.0
H1741 H 0.51318 0.77044 0.91374 0.0
H1742 H 0.55335 0.77769 0.00665 0.0
C1743 C 0.45347 0.75271 0.06524 0.0
C1744 C 0.42339 0.74766 0.05877 0.0
C1745 C 0.41365 0.74673 0.02666 0.0
C1746 C 0.4334 0.75057 1.00139 0.0
C1747 C 0.46287 0.7556 0.00845 0.0
C1748 C 0.47273 0.75684 0.0397 0.0
C1749 C 0.50437 0.76367 0.04099 0.0
C1750 C 0.5031 0.77724 0.05995 0.0
C1751 C 0.52849 0.75378 0.05505 0.0
C1752 C 0.5105 0.7663 0.00577 0.0
C1753 C 0.48671 0.76126 0.98724 0.0
C1754 C 0.48755 0.76245 0.95395 0.0
C1755 C 0.51288 0.76921 0.93937 0.0
C1756 C 0.53674 0.77501 0.95805 0.0
C1757 C 0.53547 0.77335 0.99166 0.0
H1758 H 0.85856 0.76256 0.21766 0.0
H1759 H 0.79603 0.74036 0.15534 0.0
H1760 H 0.75288 0.74543 0.19164 0.0
H1761 H 0.82304 0.75154 0.2918 0.0
H1762 H 0.82859 0.76785 0.31161 0.0
H1763 H 0.85488 0.76253 0.28068 0.0
H1764 H 0.84411 0.78516 0.24991 0.0
H1765 H 0.81783 0.79054 0.28079 0.0
H1766 H 0.8049 0.78967 0.24005 0.0
H1767 H 0.71542 0.75267 0.23606 0.0
H1768 H 0.68826 0.76162 0.28379 0.0
H1769 H 0.77382 0.77985 0.31677 0.0
C1770 C 0.8358 0.75881 0.21156 0.0
C1771 C 0.83123 0.75086 0.18343 0.0
C1772 C 0.80078 0.74617 0.17677 0.0
C1773 C 0.77583 0.7491 0.19728 0.0
C1774 C 0.78117 0.75679 0.22481 0.0
C1775 C 0.81044 0.7616 0.232 0.0
C1776 C 0.80987 0.76956 0.26333 0.0
C1777 C 0.83031 0.76244 0.28833 0.0
C1778 C 0.81977 0.78463 0.2582 0.0
C1779 C 0.77581 0.76859 0.27242 0.0
C1780 C 0.75962 0.76115 0.24992 0.0
C1781 C 0.72793 0.75868 0.25353 0.0
C1782 C 0.71248 0.76398 0.28059 0.0
C1783 C 0.72837 0.77187 0.30377 0.0
C1784 C 0.76065 0.77402 0.29948 0.0
H1785 H 0.53085 0.51406 0.29877 0.0
H1786 H 0.54502 0.47002 0.28788 0.0
H1787 H 0.50487 0.46948 0.24604 0.0
H1788 H 0.44554 0.51282 0.28554 0.0
H1789 H 0.44522 0.52915 0.265 0.0
H1790 H 0.47355 0.52589 0.2955 0.0
H1791 H 0.51707 0.5317 0.25544 0.0
H1792 H 0.48897 0.53478 0.2247 0.0
H1793 H 0.51935 0.52238 0.21834 0.0
H1794 H 0.46681 0.47412 0.20168 0.0
H1795 H 0.43004 0.48267 0.16224 0.0
H1796 H 0.43709 0.52387 0.20236 0.0
C1797 C 0.52497 0.50422 0.28814 0.0
C1798 C 0.54105 0.49202 0.29713 0.0
C1799 C 0.5328 0.47944 0.28215 0.0
C1800 C 0.51014 0.47908 0.25804 0.0
C1801 C 0.49533 0.49133 0.2493 0.0
C1802 C 0.50193 0.50363 0.26435 0.0
C1803 C 0.48255 0.51531 0.25032 0.0
C1804 C 0.4604 0.52114 0.27559 0.0
C1805 C 0.50323 0.52671 0.23637 0.0
C1806 C 0.46481 0.50778 0.22419 0.0
C1807 C 0.47259 0.49393 0.22424 0.0
C1808 C 0.46013 0.48487 0.20197 0.0
C1809 C 0.43886 0.48991 0.17957 0.0
C1810 C 0.42957 0.504 0.17911 0.0
C1811 C 0.44324 0.51306 0.20183 0.0
H1812 H 0.27293 0.50138 0.06427 0.0
H1813 H 0.29993 0.54135 0.02689 0.0
H1814 H 0.26256 0.53866 0.98305 0.0
H1815 H 0.26422 0.48505 0.98693 0.0
H1816 H 0.23159 0.47463 0.99849 0.0
H1817 H 0.25976 0.47971 0.0278 0.0
H1818 H 0.21668 0.49062 0.06231 0.0
H1819 H 0.18835 0.48548 0.03323 0.0
H1820 H 0.19142 0.50333 0.04495 0.0
H1821 H 0.22201 0.53191 0.94334 0.0
H1822 H 0.18093 0.52159 0.91037 0.0
H1823 H 0.18026 0.48535 0.97078 0.0
C1824 C 0.27062 0.50965 0.04713 0.0
C1825 C 0.28927 0.5217 0.04947 0.0
C1826 C 0.28594 0.53209 0.02594 0.0
C1827 C 0.26475 0.53063 1.00082 0.0
C1828 C 0.24704 0.51862 0.99903 0.0
C1829 C 0.24975 0.50827 0.02144 0.0
C1830 C 0.22838 0.49625 0.01323 0.0
C1831 C 0.24711 0.48313 0.0062 0.0
C1832 C 0.2048 0.49378 0.04003 0.0
C1833 C 0.21272 0.50161 0.98316 0.0
C1834 C 0.22404 0.51454 0.97547 0.0
C1835 C 0.21301 0.52181 0.94921 0.0
C1836 C 0.18954 0.51587 0.93064 0.0
C1837 C 0.17711 0.50271 0.93803 0.0
C1838 C 0.18933 0.4954 0.96446 0.0
H1839 H 0.46334 0.22986 0.99627 0.0
H1840 H 0.49553 0.24102 0.09046 0.0
H1841 H 0.54005 0.25339 0.06609 0.0
H1842 H 0.53427 0.22384 0.95922 0.0
H1843 H 0.52435 0.2317 0.92169 0.0
H1844 H 0.49456 0.22443 0.94645 0.0
H1845 H 0.46555 0.24771 0.9465 0.0
H1846 H 0.49513 0.25508 0.92148 0.0
H1847 H 0.4854 0.26316 0.95883 0.0
H1848 H 0.58394 0.26251 0.03082 0.0
H1849 H 0.62043 0.26954 0.98849 0.0
H1850 H 0.55762 0.25382 0.91686 0.0
C1851 C 0.4797 0.235 0.01177 0.0
C1852 C 0.47627 0.23435 0.04534 0.0
C1853 C 0.49778 0.24138 0.06478 0.0
C1854 C 0.52312 0.24839 0.05107 0.0
C1855 C 0.52615 0.24861 0.01784 0.0
C1856 C 0.50456 0.24234 0.99845 0.0
C1857 C 0.51272 0.24422 0.96345 0.0
C1858 C 0.51672 0.23021 0.94674 0.0
C1859 C 0.48825 0.25307 0.94657 0.0
C1860 C 0.54321 0.25191 0.96605 0.0
C1861 C 0.55048 0.25439 0.99763 0.0
C1862 C 0.57821 0.26075 0.00607 0.0
C1863 C 0.59896 0.26463 0.98181 0.0
C1864 C 0.59205 0.26228 0.94922 0.0
C1865 C 0.56351 0.25594 0.94142 0.0
H1866 H 0.17868 0.27378 0.78861 0.0
H1867 H 0.18976 0.23932 0.85315 0.0
H1868 H 0.23077 0.22973 0.81853 0.0
H1869 H 0.18811 0.25402 0.71631 0.0
H1870 H 0.20913 0.26721 0.69514 0.0
H1871 H 0.18197 0.27196 0.72576 0.0
H1872 H 0.2247 0.2856 0.75516 0.0
H1873 H 0.25195 0.28094 0.72451 0.0
H1874 H 0.26019 0.27703 0.76559 0.0
H1875 H 0.27119 0.22404 0.77779 0.0
H1876 H 0.30617 0.22168 0.73177 0.0
H1877 H 0.26738 0.2587 0.68991 0.0
C1878 C 0.19 0.26428 0.79539 0.0
C1879 C 0.18119 0.25728 0.82368 0.0
C1880 C 0.19619 0.24479 0.83164 0.0
C1881 C 0.21953 0.2393 0.81213 0.0
C1882 C 0.22752 0.24631 0.78428 0.0
C1883 C 0.21313 0.25847 0.77568 0.0
C1884 C 0.22551 0.26355 0.7437 0.0
C1885 C 0.19963 0.26422 0.71875 0.0
C1886 C 0.24154 0.27762 0.74748 0.0
C1887 C 0.2488 0.25229 0.73562 0.0
C1888 C 0.24985 0.24259 0.75974 0.0
C1889 C 0.2703 0.2315 0.75864 0.0
C1890 C 0.29016 0.23026 0.73234 0.0
C1891 C 0.28936 0.23988 0.70692 0.0
C1892 C 0.26816 0.25102 0.7086 0.0
H1893 H 0.59031 0.48801 0.78177 0.0
H1894 H 0.57475 0.51903 0.85422 0.0
H1895 H 0.5317 0.52867 0.82262 0.0
H1896 H 0.57549 0.51041 0.71454 0.0
H1897 H 0.55641 0.49744 0.6909 0.0
H1898 H 0.58518 0.49247 0.71964 0.0
H1899 H 0.54597 0.47608 0.7468 0.0
H1900 H 0.51717 0.48092 0.71797 0.0
H1901 H 0.50927 0.48277 0.75992 0.0
H1902 H 0.49101 0.53534 0.78292 0.0
H1903 H 0.45466 0.53841 0.73851 0.0
H1904 H 0.4958 0.50347 0.68966 0.0
C1905 C 0.5776 0.49676 0.79093 0.0
C1906 C 0.58593 0.50282 0.8205 0.0
C1907 C 0.56892 0.51433 0.83162 0.0
C1908 C 0.54439 0.51985 0.81381 0.0
C1909 C 0.53707 0.51386 0.78455 0.0
C1910 C 0.55309 0.50256 0.77309 0.0
C1911 C 0.54071 0.49838 0.74044 0.0
C1912 C 0.56595 0.49976 0.71487 0.0
C1913 C 0.52749 0.48366 0.74135 0.0
C1914 C 0.51523 0.50904 0.73547 0.0
C1915 C 0.51363 0.51783 0.76133 0.0
C1916 C 0.49206 0.52848 0.7626 0.0
C1917 C 0.47137 0.53013 0.73712 0.0
C1918 C 0.47201 0.52121 0.71031 0.0
C1919 C 0.49464 0.51057 0.70953 0.0
H1920 H 0.40615 0.06469 0.3101 0.0
H1921 H 0.36389 0.02513 0.28927 0.0
H1922 H 0.35439 0.02142 0.3466 0.0
H1923 H 0.44465 0.05349 0.38184 0.0
H1924 H 0.43928 0.06979 0.40171 0.0
H1925 H 0.44236 0.06919 0.35896 0.0
H1926 H 0.38984 0.08188 0.35428 0.0
H1927 H 0.38644 0.08236 0.39702 0.0
H1928 H 0.35619 0.0747 0.37344 0.0
H1929 H 0.34837 0.02244 0.40618 0.0
H1930 H 0.35088 0.02688 0.46362 0.0
H1931 H 0.39788 0.06576 0.44458 0.0
C1932 C 0.39492 0.05526 0.31768 0.0
C1933 C 0.38552 0.04526 0.29538 0.0
C1934 C 0.37135 0.03291 0.30605 0.0
C1935 C 0.36567 0.03075 0.33851 0.0
C1936 C 0.37475 0.04096 0.35986 0.0
C1937 C 0.38947 0.05287 0.34992 0.0
C1938 C 0.39789 0.062 0.37769 0.0
C1939 C 0.43313 0.06371 0.38019 0.0
C1940 C 0.3816 0.07606 0.37546 0.0
C1941 C 0.38526 0.05344 0.40479 0.0
C1942 C 0.37191 0.04138 0.39409 0.0
C1943 C 0.359 0.03181 0.41491 0.0
C1944 C 0.36058 0.03448 0.44767 0.0
C1945 C 0.37516 0.04661 0.45933 0.0
C1946 C 0.38695 0.05628 0.43721 0.0
H1947 H 0.87743 0.22799 0.30753 0.0
H1948 H 0.86159 0.18434 0.29133 0.0
H1949 H 0.86542 0.17991 0.34865 0.0
H1950 H 0.93075 0.22502 0.37082 0.0
H1951 H 0.91573 0.23882 0.39506 0.0
H1952 H 0.91075 0.23924 0.35246 0.0
H1953 H 0.85154 0.24139 0.35938 0.0
H1954 H 0.85641 0.24129 0.40201 0.0
H1955 H 0.83118 0.2289 0.38334 0.0
H1956 H 0.87909 0.17926 0.40413 0.0
H1957 H 0.8858 0.18292 0.46125 0.0
H1958 H 0.88524 0.22731 0.44677 0.0
C1959 C 0.87385 0.21762 0.31634 0.0
C1960 C 0.86978 0.20642 0.29502 0.0
C1961 C 0.86531 0.19297 0.30727 0.0
C1962 C 0.86758 0.19034 0.33972 0.0
C1963 C 0.87346 0.20135 0.35992 0.0
C1964 C 0.8753 0.2148 0.34925 0.0
C1965 C 0.8805 0.22459 0.37718 0.0
C1966 C 0.91126 0.23238 0.37365 0.0
C1967 C 0.85328 0.23464 0.38069 0.0
C1968 C 0.88168 0.21439 0.4048 0.0
C1969 C 0.87837 0.20107 0.3937 0.0
C1970 C 0.88056 0.18965 0.41345 0.0
C1971 C 0.88431 0.19186 0.44592 0.0
C1972 C 0.88476 0.20538 0.45875 0.0
C1973 C 0.88455 0.21686 0.43775 0.0
H1974 H 0.40653 0.1979 0.94568 0.0
H1975 H 0.34707 0.2328 0.96543 0.0
H1976 H 0.33845 0.23596 0.90756 0.0
H1977 H 0.44265 0.2122 0.87617 0.0
H1978 H 0.44474 0.1959 0.85562 0.0
H1979 H 0.44547 0.19636 0.89847 0.0
H1980 H 0.3986 0.1797 0.90024 0.0
H1981 H 0.39755 0.1793 0.85736 0.0
H1982 H 0.36365 0.18425 0.87951 0.0
H1983 H 0.33514 0.23467 0.84787 0.0
H1984 H 0.34122 0.2307 0.79038 0.0
H1985 H 0.40531 0.1973 0.80994 0.0
C1986 C 0.39164 0.20617 0.93772 0.0
C1987 C 0.37736 0.2151 0.95976 0.0
C1988 C 0.35838 0.22595 0.94871 0.0
C1989 C 0.35319 0.22774 0.91602 0.0
C1990 C 0.3674 0.21864 0.89489 0.0
C1991 C 0.38653 0.20817 0.90527 0.0
C1992 C 0.39984 0.20009 0.87769 0.0
C1993 C 0.43527 0.20122 0.87695 0.0
C1994 C 0.38927 0.18494 0.87878 0.0
C1995 C 0.3853 0.20767 0.85008 0.0
C1996 C 0.36638 0.21822 0.86051 0.0
C1997 C 0.3502 0.22656 0.8394 0.0
C1998 C 0.35401 0.22426 0.80671 0.0
C1999 C 0.37422 0.21382 0.79539 0.0
C2000 C 0.38963 0.20532 0.81758 0.0
H2001 H 0.88663 0.03022 0.94274 0.0
H2002 H 0.85776 0.07187 0.96538 0.0
H2003 H 0.85252 0.07709 0.90834 0.0
H2004 H 0.93179 0.03843 0.87611 0.0
H2005 H 0.92098 0.02391 0.85172 0.0
H2006 H 0.91948 0.02254 0.89448 0.0
H2007 H 0.86182 0.01547 0.89171 0.0
H2008 H 0.86339 0.0166 0.84886 0.0
H2009 H 0.83493 0.02634 0.87069 0.0
H2010 H 0.85941 0.0793 0.85186 0.0
H2011 H 0.86644 0.0776 0.79508 0.0
H2012 H 0.88591 0.03366 0.804 0.0
C2013 C 0.87809 0.04022 0.93544 0.0
C2014 C 0.87235 0.05069 0.95821 0.0
C2015 C 0.86204 0.06379 0.94811 0.0
C2016 C 0.85918 0.06685 0.91585 0.0
C2017 C 0.86636 0.0566 0.89391 0.0
C2018 C 0.87481 0.04344 0.90291 0.0
C2019 C 0.8819 0.03467 0.87363 0.0
C2020 C 0.91554 0.02959 0.87403 0.0
C2021 C 0.85915 0.02255 0.87107 0.0
C2022 C 0.87672 0.04514 0.84712 0.0
C2023 C 0.8682 0.0577 0.85985 0.0
C2024 C 0.86472 0.06939 0.84133 0.0
C2025 C 0.86866 0.0682 0.80859 0.0
C2026 C 0.87522 0.05529 0.79398 0.0
C2027 C 0.87999 0.04361 0.81387 0.0
H2028 H 0.62036 0.97469 0.70127 0.0
H2029 H 0.67114 0.93651 0.71453 0.0
H2030 H 0.67749 0.9343 0.65682 0.0
H2031 H 0.57961 0.965 0.633 0.0
H2032 H 0.58259 0.98133 0.6127 0.0
H2033 H 0.5838 0.98073 0.65552 0.0
H2034 H 0.63628 0.99357 0.65503 0.0
H2035 H 0.6352 0.99424 0.61212 0.0
H2036 H 0.6679 0.98669 0.63205 0.0
H2037 H 0.67386 0.93453 0.59867 0.0
H2038 H 0.66233 0.93802 0.54162 0.0
H2039 H 0.61715 0.97668 0.56359 0.0
C2040 C 0.63333 0.96604 0.69201 0.0
C2041 C 0.64477 0.95566 0.71258 0.0
C2042 C 0.66141 0.94442 0.69943 0.0
C2043 C 0.66549 0.94313 0.66659 0.0
C2044 C 0.65333 0.95329 0.64699 0.0
C2045 C 0.63793 0.96464 0.65901 0.0
C2046 C 0.62632 0.97376 0.63213 0.0
C2047 C 0.59099 0.97529 0.63343 0.0
C2048 C 0.64239 0.9879 0.63288 0.0
C2049 C 0.63654 0.96541 0.60334 0.0
C2050 C 0.65231 0.95371 0.61267 0.0
C2051 C 0.66216 0.94379 0.59093 0.0
C2052 C 0.65551 0.94581 0.55871 0.0
C2053 C 0.63943 0.95767 0.54853 0.0
C2054 C 0.6302 0.96772 0.57098 0.0
H2055 H 0.1217 0.81372 0.56533 0.0
H2056 H 0.11805 0.76987 0.54384 0.0
H2057 H 0.12157 0.76462 0.60091 0.0
H2058 H 0.17865 0.81096 0.62577 0.0
H2059 H 0.16228 0.82436 0.65029 0.0
H2060 H 0.15714 0.82482 0.60775 0.0
H2061 H 0.09775 0.82579 0.61506 0.0
H2062 H 0.10272 0.82553 0.65762 0.0
H2063 H 0.07871 0.81276 0.63862 0.0
H2064 H 0.12797 0.76405 0.65996 0.0
H2065 H 0.13261 0.76839 0.71768 0.0
H2066 H 0.1352 0.81246 0.69977 0.0
C2067 C 0.12167 0.803 0.57246 0.0
C2068 C 0.11976 0.79225 0.54987 0.0
C2069 C 0.11916 0.77836 0.56048 0.0
C2070 C 0.12144 0.77523 0.59291 0.0
C2071 C 0.12441 0.7861 0.61431 0.0
C2072 C 0.1243 0.7997 0.60457 0.0
C2073 C 0.12846 0.80947 0.63226 0.0
C2074 C 0.15841 0.81789 0.6288 0.0
C2075 C 0.10022 0.81894 0.63612 0.0
C2076 C 0.13074 0.79918 0.65915 0.0
C2077 C 0.1285 0.78577 0.64831 0.0
C2078 C 0.1298 0.7745 0.66881 0.0
C2079 C 0.13275 0.77706 0.70146 0.0
C2080 C 0.13428 0.79076 0.71305 0.0
C2081 C 0.1338 0.8019 0.69151 0.0
H2082 H 0.6348 0.81672 0.19576 0.0
H2083 H 0.6479 0.773 0.21454 0.0
H2084 H 0.64347 0.76816 0.15748 0.0
H2085 H 0.57784 0.81234 0.13448 0.0
H2086 H 0.5918 0.82653 0.11075 0.0
H2087 H 0.59664 0.82678 0.15335 0.0
H2088 H 0.65563 0.8301 0.14635 0.0
H2089 H 0.65093 0.82998 0.10376 0.0
H2090 H 0.67711 0.81801 0.12238 0.0
H2091 H 0.6353 0.76776 0.09885 0.0
H2092 H 0.62964 0.77217 0.04167 0.0
H2093 H 0.62158 0.81609 0.06053 0.0
C2094 C 0.63665 0.80611 0.18804 0.0
C2095 C 0.64137 0.79527 0.21007 0.0
C2096 C 0.64432 0.78157 0.19856 0.0
C2097 C 0.64162 0.77866 0.16604 0.0
C2098 C 0.63608 0.78954 0.14526 0.0
C2099 C 0.63394 0.80301 0.15569 0.0
C2100 C 0.62813 0.81281 0.12826 0.0
C2101 C 0.59674 0.82004 0.13194 0.0
C2102 C 0.65454 0.82334 0.125 0.0
C2103 C 0.62781 0.80272 0.10076 0.0
C2104 C 0.63202 0.78934 0.11118 0.0
C2105 C 0.63222 0.77821 0.09032 0.0
C2106 C 0.62887 0.78083 0.05775 0.0
C2107 C 0.62576 0.79452 0.04626 0.0
C2108 C 0.62458 0.80554 0.06832 0.0
H2109 H 0.12455 0.94337 0.05792 0.0
H2110 H 0.15714 0.98502 0.0384 0.0
H2111 H 0.15788 0.98984 0.09565 0.0
H2112 H 0.07598 0.95113 0.12275 0.0
H2113 H 0.08605 0.93599 0.14538 0.0
H2114 H 0.08809 0.93563 0.10255 0.0
H2115 H 0.14548 0.92817 0.10524 0.0
H2116 H 0.14352 0.92833 0.1481 0.0
H2117 H 0.17247 0.93842 0.12779 0.0
H2118 H 0.15256 0.99062 0.15511 0.0
H2119 H 0.14682 0.98633 0.21284 0.0
H2120 H 0.12081 0.94395 0.19343 0.0
C2121 C 0.13211 0.95349 0.06532 0.0
C2122 C 0.14013 0.96384 0.04303 0.0
C2123 C 0.15 0.97692 0.05447 0.0
C2124 C 0.15071 0.97979 0.08715 0.0
C2125 C 0.14197 0.96943 0.10822 0.0
C2126 C 0.13337 0.95648 0.09781 0.0
C2127 C 0.12572 0.94705 0.12543 0.0
C2128 C 0.09195 0.94217 0.12392 0.0
C2129 C 0.14814 0.93477 0.12671 0.0
C2130 C 0.13089 0.95683 0.15297 0.0
C2131 C 0.14007 0.96971 0.14254 0.0
C2132 C 0.14555 0.98055 0.16359 0.0
C2133 C 0.14201 0.97805 0.19626 0.0
C2134 C 0.13346 0.96481 0.20742 0.0
C2135 C 0.12765 0.95413 0.18543 0.0
H2136 H 0.37448 0.5346 0.8123 0.0
H2137 H 0.39709 0.57736 0.79259 0.0
H2138 H 0.39955 0.58219 0.84997 0.0
H2139 H 0.32647 0.54073 0.87918 0.0
H2140 H 0.33943 0.5263 0.90266 0.0
H2141 H 0.34121 0.5255 0.85981 0.0
H2142 H 0.39975 0.52023 0.86223 0.0
H2143 H 0.39802 0.52074 0.90511 0.0
H2144 H 0.42493 0.53163 0.88406 0.0
H2145 H 0.39325 0.58342 0.90727 0.0
H2146 H 0.38876 0.58024 0.96485 0.0
H2147 H 0.37474 0.53623 0.9511 0.0
C2148 C 0.38068 0.54485 0.82027 0.0
C2149 C 0.38529 0.55569 0.7981 0.0
C2150 C 0.39304 0.56902 0.80924 0.0
C2151 C 0.39448 0.57186 0.84174 0.0
C2152 C 0.38845 0.5612 0.86299 0.0
C2153 C 0.38246 0.54788 0.85303 0.0
C2154 C 0.37679 0.53851 0.88161 0.0
C2155 C 0.34403 0.5324 0.88075 0.0
C2156 C 0.40134 0.5271 0.88335 0.0
C2157 C 0.38029 0.54877 0.90886 0.0
C2158 C 0.38656 0.56179 0.89718 0.0
C2159 C 0.38923 0.57322 0.91689 0.0
C2160 C 0.38673 0.57127 0.94967 0.0
C2161 C 0.38235 0.55794 0.9628 0.0
C2162 C 0.37832 0.54655 0.94195 0.0
H2163 H 0.88149 0.72828 0.94592 0.0
H2164 H 0.89921 0.68473 0.96137 0.0
H2165 H 0.89732 0.6806 0.90376 0.0
H2166 H 0.8297 0.72452 0.88055 0.0
H2167 H 0.84419 0.73885 0.85761 0.0
H2168 H 0.84732 0.739 0.90042 0.0
H2169 H 0.90646 0.74251 0.89653 0.0
H2170 H 0.90347 0.74276 0.85373 0.0
H2171 H 0.92918 0.73075 0.8729 0.0
H2172 H 0.88783 0.68033 0.84703 0.0
H2173 H 0.88477 0.68463 0.78971 0.0
H2174 H 0.87914 0.72874 0.8072 0.0
C2175 C 0.88565 0.71798 0.93696 0.0
C2176 C 0.88992 0.70674 0.95805 0.0
C2177 C 0.89521 0.69338 0.9456 0.0
C2178 C 0.8941 0.69092 0.91297 0.0
C2179 C 0.88825 0.70199 0.89292 0.0
C2180 C 0.88509 0.71533 0.90403 0.0
C2181 C 0.88016 0.72528 0.87646 0.0
C2182 C 0.84846 0.73233 0.87892 0.0
C2183 C 0.90639 0.73596 0.87481 0.0
C2184 C 0.88129 0.71536 0.84839 0.0
C2185 C 0.88513 0.70197 0.8589 0.0
C2186 C 0.88568 0.69079 0.8383 0.0
C2187 C 0.88403 0.69337 0.80575 0.0
C2188 C 0.88281 0.70704 0.79388 0.0
C2189 C 0.8803 0.71819 0.81556 0.0
H2190 H 0.37971 0.69494 0.31232 0.0
H2191 H 0.40198 0.73758 0.29076 0.0
H2192 H 0.4084 0.74235 0.34805 0.0
H2193 H 0.33567 0.70186 0.38185 0.0
H2194 H 0.34881 0.68677 0.40289 0.0
H2195 H 0.34726 0.68669 0.36006 0.0
H2196 H 0.40519 0.68005 0.35783 0.0
H2197 H 0.40696 0.6802 0.40069 0.0
H2198 H 0.4332 0.69073 0.37784 0.0
H2199 H 0.41084 0.74257 0.40794 0.0
H2200 H 0.40598 0.73861 0.4656 0.0
H2201 H 0.38408 0.69555 0.44747 0.0
C2202 C 0.3863 0.70524 0.31959 0.0
C2203 C 0.39053 0.71585 0.29701 0.0
C2204 C 0.39838 0.72929 0.30759 0.0
C2205 C 0.40235 0.73208 0.34009 0.0
C2206 C 0.39825 0.72133 0.36167 0.0
C2207 C 0.39023 0.7082 0.35186 0.0
C2208 C 0.38578 0.69861 0.37988 0.0
C2209 C 0.3524 0.69317 0.38124 0.0
C2210 C 0.40919 0.6867 0.379 0.0
C2211 C 0.39237 0.70843 0.40701 0.0
C2212 C 0.39967 0.72146 0.39607 0.0
C2213 C 0.40533 0.73238 0.41682 0.0
C2214 C 0.40265 0.72999 0.44966 0.0
C2215 C 0.39433 0.71677 0.46141 0.0
C2216 C 0.38997 0.70583 0.43957 0.0
H2217 H 0.86615 0.56675 0.44425 0.0
H2218 H 0.90404 0.52629 0.46469 0.0
H2219 H 0.91077 0.52211 0.40709 0.0
H2220 H 0.82451 0.5574 0.37441 0.0
H2221 H 0.83274 0.5733 0.3538 0.0
H2222 H 0.83108 0.57304 0.39664 0.0
H2223 H 0.88627 0.58334 0.39928 0.0
H2224 H 0.88817 0.5836 0.35643 0.0
H2225 H 0.91745 0.57472 0.37894 0.0
H2226 H 0.91296 0.52236 0.34747 0.0
H2227 H 0.90902 0.52647 0.29019 0.0
H2228 H 0.87152 0.56734 0.30896 0.0
C2229 C 0.87603 0.55705 0.43663 0.0
C2230 C 0.8844 0.54682 0.4589 0.0
C2231 C 0.89692 0.53417 0.448 0.0
C2232 C 0.90111 0.53176 0.41537 0.0
C2233 C 0.89275 0.54211 0.39409 0.0
C2234 C 0.88045 0.55449 0.40425 0.0
C2235 C 0.87303 0.56387 0.37652 0.0
C2236 C 0.83828 0.56708 0.37527 0.0
C2237 C 0.89239 0.57716 0.37788 0.0
C2238 C 0.88283 0.55476 0.34909 0.0
C2239 C 0.89426 0.5423 0.35973 0.0
C2240 C 0.90414 0.5321 0.33881 0.0
C2241 C 0.90183 0.53462 0.30606 0.0
C2242 C 0.88968 0.54726 0.29439 0.0
C2243 C 0.88058 0.55749 0.31653 0.0
H2244 H 0.62284 0.44473 0.0608 0.0
H2245 H 0.63845 0.48809 0.03948 0.0
H2246 H 0.63907 0.49329 0.09655 0.0
H2247 H 0.57052 0.45063 0.1253 0.0
H2248 H 0.58429 0.43631 0.14867 0.0
H2249 H 0.58671 0.43571 0.10587 0.0
H2250 H 0.6456 0.43124 0.10937 0.0
H2251 H 0.64331 0.43174 0.15219 0.0
H2252 H 0.66962 0.44304 0.13148 0.0
H2253 H 0.63692 0.49405 0.15605 0.0
H2254 H 0.6334 0.48997 0.21398 0.0
H2255 H 0.61631 0.4465 0.19635 0.0
C2256 C 0.62627 0.45533 0.06795 0.0
C2257 C 0.63071 0.46593 0.04524 0.0
C2258 C 0.63549 0.47966 0.05601 0.0
C2259 C 0.63567 0.48279 0.08855 0.0
C2260 C 0.63084 0.47213 0.11012 0.0
C2261 C 0.62626 0.45868 0.10032 0.0
C2262 C 0.62097 0.44919 0.12841 0.0
C2263 C 0.5887 0.44257 0.12696 0.0
C2264 C 0.6464 0.43816 0.13047 0.0
C2265 C 0.62329 0.45944 0.15547 0.0
C2266 C 0.62901 0.47261 0.14444 0.0
C2267 C 0.63228 0.48379 0.16502 0.0
C2268 C 0.62994 0.4814 0.19786 0.0
C2269 C 0.62442 0.46793 0.20967 0.0
C2270 C 0.62076 0.45689 0.18805 0.0
H2271 H 0.135 0.28462 0.1992 0.0
H2272 H 0.11937 0.32845 0.214 0.0
H2273 H 0.11644 0.33197 0.1565 0.0
H2274 H 0.18487 0.28967 0.12883 0.0
H2275 H 0.17084 0.27454 0.10847 0.0
H2276 H 0.17122 0.27505 0.15138 0.0
H2277 H 0.11276 0.26943 0.15212 0.0
H2278 H 0.11215 0.26911 0.1092 0.0
H2279 H 0.08636 0.28036 0.13066 0.0
H2280 H 0.11102 0.33107 0.09942 0.0
H2281 H 0.11377 0.32673 0.04209 0.0
H2282 H 0.13832 0.284 0.05993 0.0
C2283 C 0.13132 0.29496 0.19027 0.0
C2284 C 0.12643 0.3062 0.21139 0.0
C2285 C 0.12199 0.31958 0.19861 0.0
C2286 C 0.12042 0.32173 0.16586 0.0
C2287 C 0.12401 0.31045 0.14583 0.0
C2288 C 0.13021 0.29738 0.15717 0.0
C2289 C 0.13452 0.28735 0.12952 0.0
C2290 C 0.16732 0.2813 0.12956 0.0
C2291 C 0.10999 0.27588 0.13044 0.0
C2292 C 0.12959 0.29693 0.10117 0.0
C2293 C 0.12303 0.31012 0.11161 0.0
C2294 C 0.11677 0.32087 0.0908 0.0
C2295 C 0.11852 0.3183 0.05824 0.0
C2296 C 0.12707 0.30515 0.04647 0.0
C2297 C 0.13187 0.29417 0.06825 0.0
H2298 H 0.6463 0.31376 0.56105 0.0
H2299 H 0.58878 0.27794 0.54161 0.0
H2300 H 0.58583 0.2732 0.59914 0.0
H2301 H 0.6895 0.3 0.62308 0.0
H2302 H 0.69022 0.31565 0.6463 0.0
H2303 H 0.68687 0.31655 0.60364 0.0
H2304 H 0.63662 0.33087 0.609 0.0
H2305 H 0.64002 0.33019 0.65173 0.0
H2306 H 0.60517 0.32428 0.6327 0.0
H2307 H 0.59165 0.27173 0.65913 0.0
H2308 H 0.60256 0.27483 0.71661 0.0
H2309 H 0.65475 0.31188 0.69527 0.0
C2310 C 0.63261 0.30502 0.56848 0.0
C2311 C 0.61816 0.29615 0.54631 0.0
C2312 C 0.6007 0.28478 0.55779 0.0
C2313 C 0.59869 0.28203 0.59053 0.0
C2314 C 0.61389 0.29084 0.6115 0.0
C2315 C 0.6301 0.30222 0.60089 0.0
C2316 C 0.64446 0.31013 0.62811 0.0
C2317 C 0.67985 0.3106 0.62509 0.0
C2318 C 0.63074 0.32473 0.63052 0.0
C2319 C 0.63439 0.30123 0.6557 0.0
C2320 C 0.61674 0.29015 0.64577 0.0
C2321 C 0.60534 0.2804 0.66719 0.0
C2322 C 0.61188 0.28215 0.69966 0.0
C2323 C 0.62953 0.29358 0.71018 0.0
C2324 C 0.64097 0.30314 0.68783 0.0
H2325 H 0.13433 0.44481 0.69706 0.0
H2326 H 0.13504 0.48881 0.71673 0.0
H2327 H 0.13139 0.49362 0.65935 0.0
H2328 H 0.18223 0.44653 0.62777 0.0
H2329 H 0.16175 0.43311 0.60685 0.0
H2330 H 0.1628 0.43308 0.64971 0.0
H2331 H 0.10298 0.43265 0.65147 0.0
H2332 H 0.10176 0.4327 0.60858 0.0
H2333 H 0.08153 0.4458 0.63076 0.0
H2334 H 0.1279 0.49371 0.59989 0.0
H2335 H 0.12657 0.48906 0.54231 0.0
H2336 H 0.13167 0.44505 0.56137 0.0
C2337 C 0.13387 0.45546 0.68937 0.0
C2338 C 0.1347 0.46641 0.71157 0.0
C2339 C 0.13377 0.48021 0.70038 0.0
C2340 C 0.13189 0.48307 0.66776 0.0
C2341 C 0.13109 0.47203 0.64661 0.0
C2342 C 0.13218 0.45851 0.6569 0.0
C2343 C 0.1318 0.44855 0.62916 0.0
C2344 C 0.16142 0.43981 0.62833 0.0
C2345 C 0.10279 0.43939 0.63006 0.0
C2346 C 0.13068 0.45861 0.60166 0.0
C2347 C 0.12999 0.47209 0.61224 0.0
C2348 C 0.12866 0.48319 0.59127 0.0
C2349 C 0.12816 0.48043 0.55852 0.0
C2350 C 0.12929 0.46667 0.54705 0.0
C2351 C 0.1305 0.45568 0.56913 0.0
H2352 H 0.19975 0.98095 0.25836 0.0
H2353 H 0.22026 0.9995 0.3498 0.0
H2354 H 0.26172 0.01346 0.32477 0.0
H2355 H 0.27924 0.97876 0.22927 0.0
H2356 H 0.26872 0.98296 0.18887 0.0
H2357 H 0.24152 0.97425 0.21437 0.0
H2358 H 0.20184 0.99348 0.20323 0.0
H2359 H 0.2291 1.00258 0.17856 0.0
H2360 H 0.21146 0.01116 0.21204 0.0
H2361 H 0.29559 0.02729 0.28891 0.0
H2362 H 0.32967 0.03642 0.24688 0.0
H2363 H 0.29229 0.007 0.1795 0.0
C2364 C 0.21381 0.98762 0.27316 0.0
C2365 C 0.20775 0.98899 0.30604 0.0
C2366 C 0.22544 0.99813 0.32474 0.0
C2367 C 0.2486 0.00619 0.31064 0.0
C2368 C 0.25354 1.00491 0.27793 0.0
C2369 C 0.23725 0.99561 0.2595 0.0
C2370 C 0.24739 0.99622 0.2249 0.0
C2371 C 0.25999 0.98221 0.21371 0.0
C2372 C 0.22086 1.00116 0.20343 0.0
C2373 C 0.27259 0.00703 0.22696 0.0
C2374 C 0.27478 0.01226 0.25756 0.0
C2375 C 0.29468 0.02303 0.2651 0.0
C2376 C 0.31397 0.02813 0.24113 0.0
C2377 C 0.31408 0.02212 0.21047 0.0
C2378 C 0.29269 0.01165 0.20296 0.0
H2379 H 0.08233 0.25975 0.26157 0.0
H2380 H 0.03317 0.27299 0.34638 0.0
H2381 H 0.98482 0.26332 0.32441 0.0
H2382 H 0.02381 0.26891 0.20762 0.0
H2383 H 0.03016 0.25465 0.18085 0.0
H2384 H 0.06156 0.26122 0.20446 0.0
H2385 H 0.07081 0.23687 0.22798 0.0
H2386 H 0.03954 0.23017 0.20428 0.0
H2387 H 0.03934 0.22782 0.24688 0.0
H2388 H 0.94247 0.25383 0.2928 0.0
H2389 H 0.90639 0.24529 0.25258 0.0
H2390 H 0.98225 0.23825 0.18676 0.0
C2391 C 0.06146 0.26034 0.27576 0.0
C2392 C 0.06121 0.26693 0.30575 0.0
C2393 C 0.03356 0.26792 0.32339 0.0
C2394 C 1.00617 0.26242 0.31118 0.0
C2395 C 0.00709 0.25614 0.28131 0.0
C2396 C 0.03391 0.25509 0.26373 0.0
C2397 C 0.02803 0.2488 0.23124 0.0
C2398 C 0.03638 0.259 0.20448 0.0
C2399 C 0.04546 0.23509 0.22738 0.0
C2400 C 0.99353 0.24651 0.23325 0.0
C2401 C 0.98217 0.2508 0.26248 0.0
C2402 C 0.95102 0.25039 0.2699 0.0
C2403 C 0.93076 0.24561 0.24674 0.0
C2404 C 0.94166 0.24125 0.2165 0.0
C2405 C 0.9735 0.24148 0.20975 0.0
H2406 H 0.19427 0.25068 0.965 0.0
H2407 H 0.2246 0.29325 0.95735 0.0
H2408 H 0.26839 0.28828 0.99289 0.0
H2409 H 0.21314 0.24494 0.04568 0.0
H2410 H 0.2281 0.22775 0.04024 0.0
H2411 H 0.19914 0.23432 0.01351 0.0
H2412 H 0.23467 0.22949 0.96501 0.0
H2413 H 0.26341 0.22258 0.99156 0.0
H2414 H 0.27335 0.23637 0.96465 0.0
H2415 H 0.30655 0.27938 0.03084 0.0
H2416 H 0.34324 0.26598 0.06307 0.0
H2417 H 0.29041 0.22871 0.04525 0.0
C2418 C 0.21045 0.25886 0.97055 0.0
C2419 C 0.20625 0.27233 0.95856 0.0
C2420 C 0.22773 0.28283 0.96607 0.0
C2421 C 0.25244 0.28015 0.98647 0.0
C2422 C 0.25556 0.26687 0.99859 0.0
C2423 C 0.23576 0.25628 0.99034 0.0
C2424 C 0.24544 0.24281 0.00572 0.0
C2425 C 0.21993 0.23713 0.02759 0.0
C2426 C 0.25477 0.23219 0.98022 0.0
C2427 C 0.27319 0.24762 0.02469 0.0
C2428 C 0.27839 0.26156 0.02021 0.0
C2429 C 0.30288 0.26845 0.03447 0.0
C2430 C 0.32346 0.26077 0.05282 0.0
C2431 C 0.31941 0.24638 0.05671 0.0
C2432 C 0.29356 0.23975 0.04314 0.0
H2433 H 0.97571 0.0326 0.0346 0.0
H2434 H 0.93737 0.99499 0.07416 0.0
H2435 H 0.97619 0.98127 0.04506 0.0
H2436 H 0.98709 0.01916 0.95835 0.0
H2437 H 0.02257 0.0282 0.94998 0.0
H2438 H 0.99493 0.03548 0.97728 0.0
H2439 H 0.03653 0.03683 0.02145 0.0
H2440 H 0.06454 0.02986 0.99408 0.0
H2441 H 0.05796 0.02155 0.03191 0.0
H2442 H 0.01329 0.97156 0.00687 0.0
H2443 H 0.0528 0.96619 0.96646 0.0
H2444 H 0.06894 0.00991 0.95169 0.0
C2445 C 0.97648 0.02153 0.03804 0.0
C2446 C 0.95419 0.01476 0.05691 0.0
C2447 C 0.95469 1.00025 0.06 0.0
C2448 C 0.97649 0.99241 0.04351 0.0
C2449 C 0.99736 0.99928 0.0239 0.0
C2450 C 0.99795 0.01351 0.02136 0.0
C2451 C 0.0214 0.01814 0.99671 0.0
C2452 C 1.00555 0.02569 0.96895 0.0
C2453 C 0.04662 0.02712 0.01196 0.0
C2454 C 0.03396 1.00429 0.98608 0.0
C2455 C 0.01932 0.99359 1.00177 0.0
C2456 C 0.02526 0.97983 0.99469 0.0
C2457 C 0.04739 0.97689 0.97144 0.0
C2458 C 0.06358 0.98766 0.95601 0.0
C2459 C 0.05678 1.00154 0.96331 0.0
H2460 H 0.69473 0.00934 0.79788 0.0
H2461 H 0.72287 0.9664 0.7976 0.0
H2462 H 0.76598 0.97209 0.76134 0.0
H2463 H 0.71082 0.01734 0.71805 0.0
H2464 H 0.72682 0.03422 0.72547 0.0
H2465 H 0.69867 0.02708 0.75245 0.0
H2466 H 0.73632 0.03016 0.79986 0.0
H2467 H 0.76429 0.03765 0.77317 0.0
H2468 H 0.77463 0.02301 0.79732 0.0
H2469 H 0.80348 0.98195 0.7232 0.0
H2470 H 0.83945 0.99614 0.69156 0.0
H2471 H 0.78864 0.03302 0.71731 0.0
C2472 C 0.71036 1.00122 0.79054 0.0
C2473 C 0.70575 0.98745 0.80045 0.0
C2474 C 0.72644 0.97703 0.79055 0.0
C2475 C 0.75071 0.98014 0.76972 0.0
C2476 C 0.75416 0.99374 0.75962 0.0
C2477 C 0.73516 1.0042 0.77032 0.0
C2478 C 0.74481 0.01804 0.75667 0.0
C2479 C 0.71872 0.02454 0.73698 0.0
C2480 C 0.75566 0.02779 0.78334 0.0
C2481 C 0.77152 0.01363 0.7357 0.0
C2482 C 0.77636 0.99955 0.73782 0.0
C2483 C 0.80004 0.99298 0.72141 0.0
C2484 C 0.82018 1.0011 0.70339 0.0
C2485 C 0.81644 0.01558 0.70186 0.0
C2486 C 0.7914 0.02192 0.71754 0.0
H2487 H 0.03992 0.78008 0.80182 0.0
H2488 H 0.09144 0.74205 0.81375 0.0
H2489 H 0.05736 0.7304 0.77553 0.0
H2490 H 0.96304 0.7627 0.79363 0.0
H2491 H 0.94979 0.77511 0.76477 0.0
H2492 H 0.977 0.78023 0.79497 0.0
H2493 H 0.01395 0.78894 0.75071 0.0
H2494 H 0.98733 0.78342 0.72034 0.0
H2495 H 0.02651 0.77718 0.72006 0.0
H2496 H 0.02262 0.72354 0.73165 0.0
H2497 H 0.97997 0.72006 0.6936 0.0
H2498 H 0.94825 0.76181 0.71152 0.0
C2499 C 0.0432 0.76918 0.79726 0.0
C2500 C 0.06831 0.76195 0.81071 0.0
C2501 C 0.07233 0.74777 0.80366 0.0
C2502 C 0.05328 0.74108 0.78178 0.0
C2503 C 0.02992 0.74864 0.76744 0.0
C2504 C 0.024 0.76222 0.77557 0.0
C2505 C 0.99697 0.76778 0.75659 0.0
C2506 C 0.9701 0.77168 0.77881 0.0
C2507 C 1.0068 0.78006 0.73569 0.0
C2508 C 0.98912 0.75526 0.7364 0.0
C2509 C 0.00883 0.74444 0.74271 0.0
C2510 C 1.00673 0.73188 0.7267 0.0
C2511 C 0.98272 0.73005 0.7048 0.0
C2512 C 0.96095 0.74067 0.69959 0.0
C2513 C 0.96472 0.75355 0.71496 0.0
H2514 H 0.82947 0.74454 0.00588 0.0
H2515 H 0.78171 0.73525 0.09418 0.0
H2516 H 0.73292 0.74395 0.07079 0.0
H2517 H 0.79172 0.77533 0.98507 0.0
H2518 H 0.78885 0.77158 0.9431 0.0
H2519 H 0.81976 0.76427 0.96618 0.0
H2520 H 0.8038 0.73969 0.94856 0.0
H2521 H 0.7731 0.74694 0.92498 0.0
H2522 H 0.76459 0.73403 0.9546 0.0
H2523 H 0.69026 0.75297 0.03814 0.0
H2524 H 0.65477 0.76238 0.99838 0.0
H2525 H 0.73014 0.76739 0.9313 0.0
C2526 C 0.80866 0.7444 0.02022 0.0
C2527 C 0.809 0.7394 0.05184 0.0
C2528 C 0.78155 0.73903 0.06989 0.0
C2529 C 0.75394 0.74395 0.05683 0.0
C2530 C 0.75437 0.74889 0.02559 0.0
C2531 C 0.78087 0.74902 0.00735 0.0
C2532 C 0.77474 0.75455 0.97412 0.0
C2533 C 0.79496 0.76719 0.96671 0.0
C2534 C 0.77933 0.74313 0.94909 0.0
C2535 C 0.74094 0.75834 0.97719 0.0
C2536 C 0.72967 0.75458 0.00685 0.0
C2537 C 0.69885 0.7561 0.01502 0.0
C2538 C 0.67891 0.76155 0.9923 0.0
C2539 C 0.68987 0.76595 0.96218 0.0
C2540 C 0.72137 0.76437 0.95444 0.0
H2541 H 0.29788 0.50216 0.69186 0.0
H2542 H 0.31114 0.54175 0.73778 0.0
H2543 H 0.27567 0.53487 0.78094 0.0
H2544 H 0.21343 0.50038 0.71304 0.0
H2545 H 0.21461 0.48189 0.71724 0.0
H2546 H 0.2399 0.49037 0.68931 0.0
H2547 H 0.2867 0.47864 0.71651 0.0
H2548 H 0.26166 0.47053 0.7452 0.0
H2549 H 0.29315 0.48124 0.75851 0.0
H2550 H 0.24211 0.52327 0.82072 0.0
H2551 H 0.20366 0.50919 0.84998 0.0
H2552 H 0.21015 0.47741 0.77778 0.0
C2553 C 0.29235 0.50948 0.71049 0.0
C2554 C 0.30668 0.52253 0.71153 0.0
C2555 C 0.29971 0.53183 0.73642 0.0
C2556 C 0.27993 0.52795 0.76118 0.0
C2557 C 0.26686 0.51485 0.76018 0.0
C2558 C 0.27179 0.50593 0.73494 0.0
C2559 C 0.25371 0.49266 0.73925 0.0
C2560 C 0.22895 0.49124 0.71317 0.0
C2561 C 0.27511 0.48003 0.73992 0.0
C2562 C 0.23919 0.49529 0.77155 0.0
C2563 C 0.24714 0.50815 0.78316 0.0
C2564 C 0.23572 0.51316 0.81198 0.0
C2565 C 0.21431 0.50507 0.82863 0.0
C2566 C 0.20508 0.49214 0.81651 0.0
C2567 C 0.21807 0.48704 0.78806 0.0
H2568 H 0.1898 0.75165 0.46775 0.0
H2569 H 0.22287 0.79318 0.44928 0.0
H2570 H 0.26889 0.78858 0.48223 0.0
H2571 H 0.21301 0.74925 0.54799 0.0
H2572 H 0.22532 0.73151 0.54594 0.0
H2573 H 0.1956 0.73766 0.51959 0.0
H2574 H 0.22731 0.72959 0.47061 0.0
H2575 H 0.2569 0.7232 0.49685 0.0
H2576 H 0.26662 0.73538 0.46598 0.0
H2577 H 0.30965 0.78001 0.51917 0.0
H2578 H 0.34566 0.76725 0.55362 0.0
H2579 H 0.28688 0.73105 0.54817 0.0
C2580 C 0.20696 0.75971 0.47027 0.0
C2581 C 0.20281 0.77278 0.45589 0.0
C2582 C 0.22571 0.78306 0.45981 0.0
C2583 C 0.25182 0.78057 0.47866 0.0
C2584 C 0.25482 0.76771 0.49316 0.0
C2585 C 0.23333 0.75735 0.48876 0.0
C2586 C 0.24231 0.74441 0.50686 0.0
C2587 C 0.21758 0.74048 0.53156 0.0
C2588 C 0.24866 0.73244 0.4837 0.0
C2589 C 0.27177 0.74923 0.52284 0.0
C2590 C 0.27852 0.76271 0.51448 0.0
C2591 C 0.30465 0.76945 0.5258 0.0
C2592 C 0.32487 0.76213 0.5455 0.0
C2593 C 0.31889 0.74821 0.55382 0.0
C2594 C 0.29171 0.74175 0.54271 0.0
H2595 H 0.04972 0.47865 0.47984 0.0
H2596 H 0.07311 0.51392 0.42119 0.0
H2597 H 0.03308 0.52778 0.44854 0.0
H2598 H 0.96658 0.48463 0.48685 0.0
H2599 H 0.9653 0.47962 0.52819 0.0
H2600 H 0.9938 0.4722 0.50204 0.0
H2601 H 0.03702 0.48026 0.54041 0.0
H2602 H 0.00868 0.4879 0.56643 0.0
H2603 H 0.03981 0.49825 0.55085 0.0
H2604 H 0.99424 0.53823 0.48465 0.0
H2605 H 0.9548 0.54434 0.52477 0.0
H2606 H 0.95537 0.50233 0.56015 0.0
C2607 C 0.04556 0.48916 0.4722 0.0
C2608 C 0.06366 0.49524 0.44802 0.0
C2609 C 0.05889 0.50914 0.43938 0.0
C2610 C 0.03641 0.51706 0.45485 0.0
C2611 C 0.01939 0.51093 0.47923 0.0
C2612 C 0.0235 0.49728 0.48782 0.0
C2613 C 1.00342 0.49352 0.51616 0.0
C2614 C 0.98093 0.4818 0.50779 0.0
C2615 C 0.02342 0.48976 0.54517 0.0
C2616 C 0.9867 0.50706 0.52147 0.0
C2617 C 0.9968 0.51701 0.50026 0.0
C2618 C 0.98601 0.53053 0.50128 0.0
C2619 C 0.9639 0.53393 0.52428 0.0
C2620 C 0.95248 0.52381 0.54548 0.0
C2621 C 0.96393 0.51021 0.54411 0.0
H2622 H 0.72915 0.48137 0.3043 0.0
H2623 H 0.66441 0.51526 0.29293 0.0
H2624 H 0.7 0.52671 0.25629 0.0
H2625 H 0.79877 0.50372 0.3023 0.0
H2626 H 0.82156 0.49124 0.28083 0.0
H2627 H 0.79125 0.48554 0.30719 0.0
H2628 H 0.76673 0.47178 0.26074 0.0
H2629 H 0.7966 0.47766 0.23408 0.0
H2630 H 0.75662 0.48063 0.22447 0.0
H2631 H 0.73872 0.53362 0.21748 0.0
H2632 H 0.78489 0.53831 0.18539 0.0
H2633 H 0.82849 0.50145 0.2233 0.0
C2634 C 0.72287 0.49133 0.29459 0.0
C2635 C 0.69381 0.49733 0.30132 0.0
C2636 C 0.68635 0.51035 0.28801 0.0
C2637 C 0.70637 0.51696 0.26699 0.0
C2638 C 0.73416 0.51059 0.2598 0.0
C2639 C 0.74302 0.4983 0.2737 0.0
C2640 C 0.77489 0.49409 0.26199 0.0
C2641 C 0.79799 0.49362 0.28973 0.0
C2642 C 0.77362 0.48021 0.24427 0.0
C2643 C 0.7821 0.50589 0.23927 0.0
C2644 C 0.75786 0.5151 0.23814 0.0
C2645 C 0.75813 0.52662 0.21841 0.0
C2646 C 0.78444 0.52912 0.20008 0.0
C2647 C 0.81038 0.52029 0.20194 0.0
C2648 C 0.809 0.50838 0.22145 0.0
H2649 H 0.8238 0.26033 0.53662 0.0
H2650 H 0.78902 0.21886 0.55256 0.0
H2651 H 0.74458 0.22375 0.51797 0.0
H2652 H 0.74732 0.27661 0.53781 0.0
H2653 H 0.75741 0.28919 0.50793 0.0
H2654 H 0.7867 0.28242 0.53399 0.0
H2655 H 0.81873 0.27504 0.4847 0.0
H2656 H 0.78919 0.2815 0.45848 0.0
H2657 H 0.80163 0.2638 0.45538 0.0
H2658 H 0.70621 0.23224 0.48018 0.0
H2659 H 0.66916 0.2454 0.44814 0.0
H2660 H 0.72586 0.28214 0.45786 0.0
C2661 C 0.80656 0.25238 0.53305 0.0
C2662 C 0.80974 0.23921 0.54715 0.0
C2663 C 0.78682 0.22904 0.54218 0.0
C2664 C 0.76169 0.23167 0.52231 0.0
C2665 C 0.75962 0.24459 0.50806 0.0
C2666 C 0.78085 0.25493 0.51375 0.0
C2667 C 0.77195 0.26811 0.49655 0.0
C2668 C 0.76545 0.27977 0.5205 0.0
C2669 C 0.79686 0.27236 0.47233 0.0
C2670 C 0.74261 0.26344 0.48 0.0
C2671 C 0.73638 0.24976 0.48678 0.0
C2672 C 0.71062 0.24299 0.47485 0.0
C2673 C 0.68979 0.25055 0.45661 0.0
C2674 C 0.69467 0.26476 0.45067 0.0
C2675 C 0.72185 0.27124 0.46174 0.0
H2676 H 0.54211 0.28118 0.79365 0.0
H2677 H 0.59578 0.24374 0.80519 0.0
H2678 H 0.56042 0.23139 0.76926 0.0
H2679 H 0.46624 0.26443 0.79013 0.0
H2680 H 0.4518 0.27611 0.76027 0.0
H2681 H 0.48069 0.28186 0.78808 0.0
H2682 H 0.51566 0.28906 0.74075 0.0
H2683 H 0.48722 0.28299 0.71275 0.0
H2684 H 0.52611 0.27642 0.71115 0.0
H2685 H 0.52218 0.22347 0.72937 0.0
H2686 H 0.47735 0.21926 0.69448 0.0
H2687 H 0.44673 0.26137 0.70959 0.0
C2688 C 0.54585 0.2703 0.78923 0.0
C2689 C 0.57157 0.26338 0.80227 0.0
C2690 C 0.57618 0.24922 0.79542 0.0
C2691 C 0.55635 0.24213 0.7749 0.0
C2692 C 0.53196 0.24934 0.76138 0.0
C2693 C 0.52618 0.26302 0.76864 0.0
C2694 C 0.49825 0.26825 0.75057 0.0
C2695 C 0.47273 0.27293 0.77364 0.0
C2696 C 0.50736 0.27987 0.72744 0.0
C2697 C 0.48904 0.2553 0.73262 0.0
C2698 C 0.50926 0.24462 0.7387 0.0
C2699 C 0.50603 0.23171 0.7245 0.0
C2700 C 0.4807 0.22946 0.70446 0.0
C2701 C 0.45872 0.24 0.6993 0.0
C2702 C 0.4633 0.25316 0.71308 0.0
H2703 H 0.55999 0.01134 0.44936 0.0
H2704 H 0.54678 0.96803 0.47139 0.0
H2705 H 0.50824 0.9742 0.51231 0.0
H2706 H 0.55312 0.02517 0.5254 0.0
H2707 H 0.53006 0.03995 0.51484 0.0
H2708 H 0.55569 0.03239 0.4859 0.0
H2709 H 0.5104 0.02891 0.44645 0.0
H2710 H 0.48483 0.03694 0.47479 0.0
H2711 H 0.47613 0.02 0.45957 0.0
H2712 H 0.47546 0.9849 0.55358 0.0
H2713 H 0.43943 0.99921 0.58485 0.0
H2714 H 0.47056 0.03572 0.53456 0.0
C2715 C 0.54821 1.0032 0.46225 0.0
C2716 C 0.55595 0.98923 0.45729 0.0
C2717 C 0.54056 0.97877 0.47457 0.0
C2718 C 0.51903 0.98219 0.49812 0.0
C2719 C 0.51273 0.99608 0.5034 0.0
C2720 C 0.52582 0.00642 0.48516 0.0
C2721 C 0.51355 0.02047 0.49477 0.0
C2722 C 0.53968 0.03006 0.5059 0.0
C2723 C 0.49513 0.02696 0.46727 0.0
C2724 C 0.49255 0.01644 0.52218 0.0
C2725 C 0.49276 1.00231 0.52681 0.0
C2726 C 0.47492 0.99596 0.55014 0.0
C2727 C 0.45486 1.00417 0.56801 0.0
C2728 C 0.45287 0.01852 0.56243 0.0
C2729 C 0.47256 0.02483 0.53995 0.0
H2730 H 0.43507 0.74595 0.24237 0.0
H2731 H 0.48439 0.73544 0.15578 0.0
H2732 H 0.53274 0.7446 0.17937 0.0
H2733 H 0.47367 0.77709 0.26222 0.0
H2734 H 0.47537 0.77371 0.30442 0.0
H2735 H 0.44466 0.76644 0.28089 0.0
H2736 H 0.45909 0.74192 0.3001 0.0
H2737 H 0.48947 0.74913 0.32413 0.0
H2738 H 0.49808 0.73586 0.29536 0.0
H2739 H 0.57497 0.75444 0.21212 0.0
H2740 H 0.61007 0.76387 0.25255 0.0
H2741 H 0.53375 0.76835 0.31873 0.0
C2742 C 0.45608 0.74569 0.22836 0.0
C2743 C 0.45625 0.74021 0.19716 0.0
C2744 C 0.48405 0.73966 0.17968 0.0
C2745 C 0.51145 0.74484 0.19287 0.0
C2746 C 0.51052 0.75023 0.22371 0.0
C2747 C 0.48369 0.75053 0.24144 0.0
C2748 C 0.48937 0.75628 0.27459 0.0
C2749 C 0.4696 0.76915 0.28087 0.0
C2750 C 0.48367 0.74514 0.30005 0.0
C2751 C 0.5234 0.75977 0.27225 0.0
C2752 C 0.53509 0.75597 0.2428 0.0
C2753 C 0.5661 0.75746 0.2352 0.0
C2754 C 0.58584 0.76282 0.25837 0.0
C2755 C 0.57456 0.76686 0.28864 0.0
C2756 C 0.54283 0.76547 0.29563 0.0
H2757 H 0.5731 0.48544 0.99358 0.0
H2758 H 0.54459 0.49952 0.90018 0.0
H2759 H 0.50126 0.51243 0.92483 0.0
H2760 H 0.49492 0.48081 0.02544 0.0
H2761 H 0.50569 0.48633 0.06489 0.0
H2762 H 0.5337 0.47804 0.0396 0.0
H2763 H 0.57028 0.49891 0.0468 0.0
H2764 H 0.54215 0.50745 0.07151 0.0
H2765 H 0.55701 0.51596 0.03653 0.0
H2766 H 0.46374 0.52445 0.95914 0.0
H2767 H 0.42807 0.53258 1.00049 0.0
H2768 H 0.47935 0.51026 0.07252 0.0
C2769 C 0.55725 0.49107 0.97844 0.0
C2770 C 0.56149 0.49152 0.94515 0.0
C2771 C 0.541 0.499 0.92571 0.0
C2772 C 0.5167 0.50641 0.93953 0.0
C2773 C 0.51347 0.50605 0.97261 0.0
C2774 C 0.5327 0.49834 0.99181 0.0
C2775 C 0.52365 0.49947 0.02663 0.0
C2776 C 0.5139 0.48533 0.03991 0.0
C2777 C 0.54984 0.50583 0.04653 0.0
C2778 C 0.4964 0.50918 0.02405 0.0
C2779 C 0.49131 0.51291 0.99262 0.0
C2780 C 0.46742 0.52161 0.98377 0.0
C2781 C 0.44742 0.52624 0.00746 0.0
C2782 C 0.45136 0.52217 0.03953 0.0
C2783 C 0.47642 0.51373 0.04819 0.0
H2784 H 0.37171 0.15928 0.09891 0.0
H2785 H 0.44207 0.1689 0.16896 0.0
H2786 H 0.45195 0.144 0.17636 0.0
H2787 H 0.34147 0.12877 0.13793 0.0
H2788 H 0.3352 0.11955 0.1012 0.0
H2789 H 0.33341 0.13812 0.10175 0.0
H2790 H 0.37485 0.13917 0.05731 0.0
H2791 H 0.37694 0.12061 0.05677 0.0
H2792 H 0.4114 0.13067 0.06319 0.0
H2793 H 0.4546 0.11803 0.17581 0.0
H2794 H 0.44846 0.09291 0.1691 0.0
H2795 H 0.37673 0.09995 0.09884 0.0
C2796 C 0.38892 0.15615 0.11613 0.0
C2797 C 0.4061 0.1661 0.13341 0.0
C2798 C 0.4288 0.16152 0.15526 0.0
C2799 C 0.43452 0.14738 0.15967 0.0
C2800 C 0.41749 0.13788 0.14197 0.0
C2801 C 0.39506 0.14206 0.12069 0.0
C2802 C 0.38028 0.12972 0.10439 0.0
C2803 C 0.34553 0.129 0.11177 0.0
C2804 C 0.38623 0.13007 0.06827 0.0
C2805 C 0.39767 0.11794 0.12005 0.0
C2806 C 0.41914 0.1229 0.14151 0.0
C2807 C 0.43796 0.11404 0.15894 0.0
C2808 C 0.43451 0.09975 0.15468 0.0
C2809 C 0.41234 0.09433 0.13319 0.0
C2810 C 0.39386 0.10367 0.11551 0.0
H2811 H 0.88721 0.10131 0.08501 0.0
H2812 H 0.83927 0.0902 0.17193 0.0
H2813 H 0.83369 0.11496 0.18555 0.0
H2814 H 0.92908 0.13061 0.11622 0.0
H2815 H 0.92488 0.1409 0.08073 0.0
H2816 H 0.92543 0.12235 0.07791 0.0
H2817 H 0.87275 0.12276 0.04885 0.0
H2818 H 0.87207 0.14131 0.05152 0.0
H2819 H 0.84039 0.13133 0.06722 0.0
H2820 H 0.83314 0.14068 0.18959 0.0
H2821 H 0.83689 0.1659 0.18403 0.0
H2822 H 0.88484 0.16091 0.09392 0.0
C2823 C 0.87561 0.10417 0.1069 0.0
C2824 C 0.86365 0.09395 0.12758 0.0
C2825 C 0.84848 0.09794 0.15592 0.0
C2826 C 0.84527 0.11195 0.16379 0.0
C2827 C 0.85723 0.12182 0.14293 0.0
C2828 C 0.87202 0.11815 0.11501 0.0
C2829 C 0.88222 0.13088 0.09657 0.0
C2830 C 0.9175 0.1312 0.09264 0.0
C2831 C 0.86588 0.13161 0.06412 0.0
C2832 C 0.87114 0.14227 0.11864 0.0
C2833 C 0.85671 0.13676 0.14516 0.0
C2834 C 0.84422 0.1451 0.16885 0.0
C2835 C 0.84629 0.15945 0.16533 0.0
C2836 C 0.86074 0.16543 0.1383 0.0
C2837 C 0.87362 0.15666 0.1148 0.0
H2838 H 0.62092 0.85081 0.92235 0.0
H2839 H 0.61591 0.84204 0.82132 0.0
H2840 H 0.61267 0.8671 0.80992 0.0
H2841 H 0.56833 0.87966 0.9229 0.0
H2842 H 0.58988 0.88949 0.95176 0.0
H2843 H 0.5917 0.87092 0.9521 0.0
H2844 H 0.65126 0.87202 0.94752 0.0
H2845 H 0.64961 0.89059 0.94728 0.0
H2846 H 0.66866 0.88156 0.91528 0.0
H2847 H 0.60779 0.89292 0.80964 0.0
H2848 H 0.60561 0.918 0.81986 0.0
H2849 H 0.61675 0.91062 0.92101 0.0
C2850 C 0.6192 0.85424 0.89787 0.0
C2851 C 0.61853 0.84457 0.87259 0.0
C2852 C 0.61638 0.84933 0.84087 0.0
C2853 C 0.6145 0.86352 0.83425 0.0
C2854 C 0.615 0.87283 0.85964 0.0
C2855 C 0.61761 0.86842 0.89082 0.0
C2856 C 0.61811 0.88064 0.91359 0.0
C2857 C 0.59035 0.88015 0.93644 0.0
C2858 C 0.64874 0.88124 0.932 0.0
C2859 C 0.61532 0.89261 0.89037 0.0
C2860 C 0.61322 0.88781 0.8594 0.0
C2861 C 0.60953 0.89678 0.83376 0.0
C2862 C 0.60813 0.911 0.8398 0.0
C2863 C 0.61077 0.91622 0.87118 0.0
C2864 C 0.61459 0.90689 0.89681 0.0
H2865 H 0.16446 0.90838 0.91309 0.0
H2866 H 0.12649 0.91713 0.81976 0.0
H2867 H 0.12207 0.89214 0.80912 0.0
H2868 H 0.20865 0.87795 0.89105 0.0
H2869 H 0.20003 0.86876 0.92732 0.0
H2870 H 0.20116 0.88734 0.92732 0.0
H2871 H 0.14567 0.88797 0.95018 0.0
H2872 H 0.14424 0.86939 0.95001 0.0
H2873 H 0.11508 0.87916 0.92938 0.0
H2874 H 0.12153 0.86642 0.80829 0.0
H2875 H 0.12563 0.84127 0.81693 0.0
H2876 H 0.16235 0.84844 0.91147 0.0
C2877 C 0.1557 0.90498 0.89025 0.0
C2878 C 0.14608 0.91471 0.86706 0.0
C2879 C 0.13405 0.90988 0.83776 0.0
C2880 C 0.13142 0.8957 0.83155 0.0
C2881 C 0.14061 0.8864 0.855 0.0
C2882 C 0.15251 0.89079 0.88379 0.0
C2883 C 0.15991 0.87851 0.90509 0.0
C2884 C 0.1945 0.87812 0.91316 0.0
C2885 C 0.14004 0.87878 0.93547 0.0
C2886 C 0.15079 0.86655 0.88355 0.0
C2887 C 0.13962 0.87141 0.85481 0.0
C2888 C 0.13014 0.86249 0.83071 0.0
C2889 C 0.13248 0.84824 0.83583 0.0
C2890 C 0.14406 0.84295 0.86486 0.0
C2891 C 0.15309 0.85223 0.88919 0.0
H2892 H 0.41289 0.59964 0.59725 0.0
H2893 H 0.38382 0.59351 0.695 0.0
H2894 H 0.37811 0.61875 0.70181 0.0
H2895 H 0.45752 0.63117 0.61276 0.0
H2896 H 0.44698 0.63917 0.57559 0.0
H2897 H 0.4491 0.62064 0.57844 0.0
H2898 H 0.39278 0.61873 0.55838 0.0
H2899 H 0.39042 0.63724 0.5556 0.0
H2900 H 0.36259 0.62787 0.57912 0.0
H2901 H 0.37357 0.64459 0.69749 0.0
H2902 H 0.37338 0.66933 0.68338 0.0
H2903 H 0.40667 0.65914 0.5887 0.0
C2904 C 0.40561 0.60369 0.62009 0.0
C2905 C 0.39892 0.59469 0.64573 0.0
C2906 C 0.38926 0.60029 0.67524 0.0
C2907 C 0.38588 0.61459 0.67927 0.0
C2908 C 0.3925 0.62324 0.65361 0.0
C2909 C 0.40247 0.61804 0.62467 0.0
C2910 C 0.40828 0.62969 0.60113 0.0
C2911 C 0.4425 0.63019 0.59141 0.0
C2912 C 0.38726 0.6283 0.57183 0.0
C2913 C 0.39955 0.64217 0.62117 0.0
C2914 C 0.39046 0.6382 0.65134 0.0
C2915 C 0.3808 0.64783 0.67396 0.0
C2916 C 0.38058 0.66188 0.66565 0.0
C2917 C 0.39009 0.66631 0.63497 0.0
C2918 C 0.39968 0.6562 0.61252 0.0
H2919 H 0.88189 0.60361 0.59228 0.0
H2920 H 0.83172 0.5925 0.67791 0.0
H2921 H 0.82603 0.61726 0.69137 0.0
H2922 H 0.92264 0.63296 0.62355 0.0
H2923 H 0.91885 0.64327 0.58805 0.0
H2924 H 0.91943 0.62472 0.58519 0.0
H2925 H 0.86712 0.62509 0.55555 0.0
H2926 H 0.86642 0.64364 0.55814 0.0
H2927 H 0.83454 0.63368 0.57347 0.0
H2928 H 0.8288 0.64294 0.69725 0.0
H2929 H 0.83435 0.66794 0.69323 0.0
H2930 H 0.8781 0.6633 0.60051 0.0
C2931 C 0.86964 0.60645 0.61381 0.0
C2932 C 0.85727 0.59616 0.63421 0.0
C2933 C 0.8412 0.60022 0.66199 0.0
C2934 C 0.83801 0.61425 0.66984 0.0
C2935 C 0.85056 0.62414 0.64937 0.0
C2936 C 0.86564 0.62047 0.62165 0.0
C2937 C 0.876 0.63324 0.60334 0.0
C2938 C 0.91133 0.63356 0.59984 0.0
C2939 C 0.86007 0.63395 0.57069 0.0
C2940 C 0.86471 0.64468 0.62531 0.0
C2941 C 0.8504 0.63911 0.65181 0.0
C2942 C 0.83923 0.64741 0.6762 0.0
C2943 C 0.84219 0.66176 0.67337 0.0
C2944 C 0.85563 0.66798 0.64591 0.0
C2945 C 0.86737 0.65913 0.62171 0.0
H2946 H 0.63071 0.41161 0.41202 0.0
H2947 H 0.5952 0.41721 0.31636 0.0
H2948 H 0.59319 0.39199 0.30905 0.0
H2949 H 0.67787 0.38154 0.39564 0.0
H2950 H 0.66885 0.37301 0.43266 0.0
H2951 H 0.66837 0.39157 0.43045 0.0
H2952 H 0.61207 0.39178 0.45122 0.0
H2953 H 0.61242 0.37323 0.45354 0.0
H2954 H 0.58304 0.38186 0.43067 0.0
H2955 H 0.59553 0.36625 0.31133 0.0
H2956 H 0.5994 0.34139 0.32457 0.0
H2957 H 0.63111 0.35186 0.41935 0.0
C2958 C 0.62258 0.40748 0.38959 0.0
C2959 C 0.61293 0.41638 0.36478 0.0
C2960 C 0.60232 0.41059 0.33579 0.0
C2961 C 0.60126 0.39627 0.33134 0.0
C2962 C 0.61067 0.38776 0.35619 0.0
C2963 C 0.6209 0.39309 0.38488 0.0
C2964 C 0.62867 0.38152 0.40797 0.0
C2965 C 0.66298 0.38194 0.41722 0.0
C2966 C 0.6078 0.38214 0.4376 0.0
C2967 C 0.62138 0.36893 0.38768 0.0
C2968 C 0.61125 0.3728 0.3578 0.0
C2969 C 0.60335 0.36308 0.33467 0.0
C2970 C 0.60564 0.34901 0.3423 0.0
C2971 C 0.61551 0.34481 0.37284 0.0
C2972 C 0.62351 0.35488 0.3958 0.0
H2973 H 0.15892 0.35035 0.33495 0.0
H2974 H 0.13693 0.34053 0.43321 0.0
H2975 H 0.13478 0.3654 0.44589 0.0
H2976 H 0.20686 0.38032 0.35035 0.0
H2977 H 0.19252 0.39 0.31684 0.0
H2978 H 0.19309 0.37142 0.31542 0.0
H2979 H 0.13456 0.37116 0.30311 0.0
H2980 H 0.13381 0.38974 0.30451 0.0
H2981 H 0.10824 0.37987 0.32963 0.0
H2982 H 0.13473 0.39124 0.44821 0.0
H2983 H 0.13583 0.41649 0.43975 0.0
H2984 H 0.15693 0.41018 0.3399 0.0
C2985 C 0.15407 0.35345 0.35923 0.0
C2986 C 0.14835 0.34342 0.3832 0.0
C2987 C 0.14137 0.34795 0.41447 0.0
C2988 C 0.14015 0.36208 0.42191 0.0
C2989 C 0.14572 0.37166 0.39778 0.0
C2990 C 0.15241 0.36757 0.36702 0.0
C2991 C 0.15649 0.38007 0.3454 0.0
C2992 C 0.18919 0.38047 0.33117 0.0
C2993 C 0.13181 0.38021 0.31911 0.0
C2994 C 0.15152 0.3918 0.36894 0.0
C2995 C 0.14529 0.38666 0.39901 0.0
C2996 C 0.13965 0.39537 0.4248 0.0
C2997 C 0.14035 0.40968 0.41981 0.0
C2998 C 0.14664 0.41523 0.38932 0.0
C2999 C 0.15229 0.40617 0.3635 0.0
H3000 H 0.90813 0.10055 0.58475 0.0
H3001 H 0.88009 0.09364 0.68257 0.0
H3002 H 0.88053 0.11879 0.69239 0.0
H3003 H 0.95929 0.1293 0.5999 0.0
H3004 H 0.94852 0.13877 0.56468 0.0
H3005 H 0.94605 0.12021 0.56501 0.0
H3006 H 0.88837 0.12151 0.54923 0.0
H3007 H 0.89072 0.14007 0.5486 0.0
H3008 H 0.86221 0.13163 0.57312 0.0
H3009 H 0.88388 0.14454 0.69188 0.0
H3010 H 0.88803 0.16946 0.68062 0.0
H3011 H 0.91369 0.16031 0.58293 0.0
C3012 C 0.90202 0.10441 0.60812 0.0
C3013 C 0.89398 0.09523 0.63297 0.0
C3014 C 0.88617 0.10057 0.66329 0.0
C3015 C 0.88645 0.11482 0.66908 0.0
C3016 C 0.89457 0.12365 0.64426 0.0
C3017 C 0.90205 0.11872 0.61431 0.0
C3018 C 0.90939 0.13059 0.59182 0.0
C3019 C 0.94281 0.12966 0.57964 0.0
C3020 C 0.8863 0.13097 0.56405 0.0
C3021 C 0.90511 0.1429 0.61388 0.0
C3022 C 0.89654 0.13862 0.644 0.0
C3023 C 0.89059 0.14802 0.66838 0.0
C3024 C 0.89297 0.16217 0.66174 0.0
C3025 C 0.90129 0.16691 0.63097 0.0
C3026 C 0.90778 0.15706 0.60685 0.0
H3027 H 0.36032 0.16359 0.59147 0.0
H3028 H 0.35936 0.16865 0.6941 0.0
H3029 H 0.36065 0.14338 0.70092 0.0
H3030 H 0.31022 0.13372 0.5901 0.0
H3031 H 0.33026 0.12526 0.55793 0.0
H3032 H 0.33053 0.14381 0.56069 0.0
H3033 H 0.39032 0.14376 0.56017 0.0
H3034 H 0.39019 0.12521 0.55731 0.0
H3035 H 0.41089 0.13358 0.58913 0.0
H3036 H 0.36196 0.11767 0.69711 0.0
H3037 H 0.36176 0.09298 0.68278 0.0
H3038 H 0.36027 0.10393 0.58256 0.0
C3039 C 0.36043 0.15932 0.6153 0.0
C3040 C 0.35945 0.16809 0.64231 0.0
C3041 C 0.35962 0.16213 0.67313 0.0
C3042 C 0.36052 0.14779 0.67724 0.0
C3043 C 0.36102 0.13941 0.65029 0.0
C3044 C 0.36086 0.14491 0.61988 0.0
C3045 C 0.36059 0.13345 0.5951 0.0
C3046 C 0.33114 0.13411 0.57475 0.0
C3047 C 0.38973 0.13404 0.5742 0.0
C3048 C 0.3606 0.12074 0.61636 0.0
C3049 C 0.36109 0.12446 0.6481 0.0
C3050 C 0.36153 0.11462 0.67231 0.0
C3051 C 0.36149 0.1006 0.66393 0.0
C3052 C 0.36085 0.09644 0.63157 0.0
C3053 C 0.36029 0.10673 0.60752 0.0
H3054 H 0.11871 0.84818 0.34801 0.0
H3055 H 0.08649 0.84464 0.44577 0.0
H3056 H 0.08432 0.86982 0.44997 0.0
H3057 H 0.16752 0.87851 0.36354 0.0
H3058 H 0.15984 0.88631 0.32541 0.0
H3059 H 0.15905 0.8678 0.32954 0.0
H3060 H 0.10351 0.86728 0.30694 0.0
H3061 H 0.10409 0.88578 0.30284 0.0
H3062 H 0.07389 0.87757 0.32558 0.0
H3063 H 0.08566 0.89542 0.44468 0.0
H3064 H 0.09034 0.92 0.42931 0.0
H3065 H 0.12146 0.90782 0.3353 0.0
C3066 C 0.11125 0.85268 0.37032 0.0
C3067 C 0.10196 0.84419 0.39624 0.0
C3068 C 0.09264 0.85069 0.42504 0.0
C3069 C 0.09166 0.86508 0.42789 0.0
C3070 C 0.10042 0.87308 0.40191 0.0
C3071 C 0.11024 0.86717 0.3737 0.0
C3072 C 0.11872 0.87832 0.34965 0.0
C3073 C 0.15334 0.8777 0.34156 0.0
C3074 C 0.09886 0.87716 0.31947 0.0
C3075 C 0.1111 0.89133 0.36847 0.0
C3076 C 0.10106 0.88801 0.39876 0.0
C3077 C 0.09339 0.89816 0.42098 0.0
C3078 C 0.09605 0.91207 0.41209 0.0
C3079 C 0.10584 0.91577 0.38112 0.0
C3080 C 0.11345 0.90524 0.35901 0.0
H3081 H 0.65428 0.85084 0.33913 0.0
H3082 H 0.63453 0.8401 0.4373 0.0
H3083 H 0.63542 0.86485 0.45186 0.0
H3084 H 0.70505 0.87972 0.35441 0.0
H3085 H 0.69038 0.89008 0.32216 0.0
H3086 H 0.68923 0.87153 0.3195 0.0
H3087 H 0.6303 0.8724 0.3096 0.0
H3088 H 0.63129 0.89095 0.31212 0.0
H3089 H 0.60578 0.88125 0.33766 0.0
H3090 H 0.64017 0.89069 0.45615 0.0
H3091 H 0.64347 0.91599 0.44916 0.0
H3092 H 0.65636 0.91051 0.34758 0.0
C3093 C 0.65032 0.85373 0.36372 0.0
C3094 C 0.64461 0.84352 0.38722 0.0
C3095 C 0.63897 0.84772 0.41899 0.0
C3096 C 0.63955 0.86175 0.42746 0.0
C3097 C 0.64532 0.87155 0.4038 0.0
C3098 C 0.6502 0.86775 0.37247 0.0
C3099 C 0.65454 0.88042 0.35148 0.0
C3100 C 0.68672 0.88043 0.33598 0.0
C3101 C 0.62895 0.8813 0.32622 0.0
C3102 C 0.65155 0.89192 0.37593 0.0
C3103 C 0.64662 0.88652 0.40602 0.0
C3104 C 0.64386 0.89501 0.43268 0.0
C3105 C 0.64588 0.90936 0.42853 0.0
C3106 C 0.65023 0.91517 0.39792 0.0
C3107 C 0.65303 0.90632 0.37124 0.0
H3108 H 0.91019 0.66193 0.16155 0.0
H3109 H 0.90042 0.66701 0.05944 0.0
H3110 H 0.89719 0.64176 0.05288 0.0
H3111 H 0.95873 0.6315 0.15732 0.0
H3112 H 0.94173 0.6232 0.19155 0.0
H3113 H 0.94217 0.64175 0.18882 0.0
H3114 H 0.88286 0.64229 0.19606 0.0
H3115 H 0.88225 0.62374 0.19889 0.0
H3116 H 0.85878 0.63236 0.1696 0.0
H3117 H 0.89367 0.61616 0.0569 0.0
H3118 H 0.89288 0.59141 0.07111 0.0
H3119 H 0.90819 0.60199 0.17019 0.0
C3120 C 0.90735 0.65767 0.13789 0.0
C3121 C 0.90575 0.66645 0.11092 0.0
C3122 C 0.90207 0.66049 0.08034 0.0
C3123 C 0.90007 0.64616 0.07639 0.0
C3124 C 0.90206 0.63777 0.10323 0.0
C3125 C 0.90583 0.64323 0.13341 0.0
C3126 C 0.90813 0.63171 0.15799 0.0
C3127 C 0.93957 0.63207 0.17491 0.0
C3128 C 0.88141 0.63258 0.18206 0.0
C3129 C 0.90512 0.619 0.13685 0.0
C3130 C 0.90127 0.6228 0.10539 0.0
C3131 C 0.89694 0.61304 0.08141 0.0
C3132 C 0.89651 0.599 0.08967 0.0
C3133 C 0.90086 0.59476 0.12159 0.0
C3134 C 0.90535 0.60493 0.14548 0.0
H3135 H 0.38976 0.59959 0.09728 0.0
H3136 H 0.32821 0.58901 0.17497 0.0
H3137 H 0.32018 0.61383 0.18621 0.0
H3138 H 0.42492 0.62982 0.1332 0.0
H3139 H 0.4259 0.63966 0.09678 0.0
H3140 H 0.42776 0.6211 0.09537 0.0
H3141 H 0.38046 0.62061 0.0578 0.0
H3142 H 0.37844 0.63917 0.05914 0.0
H3143 H 0.3452 0.62898 0.06992 0.0
H3144 H 0.31995 0.63958 0.19007 0.0
H3145 H 0.32512 0.66462 0.1854 0.0
H3146 H 0.38352 0.65932 0.10192 0.0
C3147 C 0.37485 0.60257 0.11683 0.0
C3148 C 0.35988 0.59241 0.13566 0.0
C3149 C 0.34003 0.59663 0.16055 0.0
C3150 C 0.33535 0.6107 0.16704 0.0
C3151 C 0.35031 0.62048 0.14807 0.0
C3152 C 0.36947 0.61664 0.12328 0.0
C3153 C 0.38179 0.62933 0.10595 0.0
C3154 C 0.41719 0.63001 0.10795 0.0
C3155 C 0.37081 0.62953 0.07114 0.0
C3156 C 0.36686 0.64087 0.12515 0.0
C3157 C 0.34893 0.63546 0.14935 0.0
C3158 C 0.33351 0.64393 0.17085 0.0
C3159 C 0.33634 0.65828 0.16765 0.0
C3160 C 0.35412 0.66429 0.14274 0.0
C3161 C 0.36964 0.65529 0.12124 0.0
H3162 H 0.12506 0.40954 0.90839 0.0
H3163 H 0.08713 0.41519 0.81358 0.0
H3164 H 0.08286 0.39008 0.80725 0.0
H3165 H 0.17093 0.3795 0.8892 0.0
H3166 H 0.16392 0.37099 0.92669 0.0
H3167 H 0.16337 0.38955 0.92451 0.0
H3168 H 0.10833 0.38974 0.94858 0.0
H3169 H 0.10868 0.37118 0.95073 0.0
H3170 H 0.07816 0.37989 0.92968 0.0
H3171 H 0.0818 0.36433 0.81075 0.0
H3172 H 0.0867 0.33944 0.82351 0.0
H3173 H 0.12731 0.34987 0.91463 0.0
C3174 C 0.11588 0.40549 0.88631 0.0
C3175 C 0.10581 0.41449 0.86178 0.0
C3176 C 0.0941 0.40866 0.83321 0.0
C3177 C 0.0918 0.39434 0.82921 0.0
C3178 C 0.10145 0.38581 0.85388 0.0
C3179 C 0.11344 0.39111 0.88184 0.0
C3180 C 0.12247 0.37952 0.90436 0.0
C3181 C 0.15724 0.37992 0.9116 0.0
C3182 C 0.10326 0.38012 0.93516 0.0
C3183 C 0.11398 0.36695 0.8845 0.0
C3184 C 0.1016 0.37085 0.85557 0.0
C3185 C 0.0915 0.36113 0.83331 0.0
C3186 C 0.09425 0.34705 0.84072 0.0
C3187 C 0.10728 0.34282 0.86994 0.0
C3188 C 0.11727 0.3529 0.89208 0.0
H3189 H 0.64037 0.3493 0.91746 0.0
H3190 H 0.66713 0.34262 0.81918 0.0
H3191 H 0.67111 0.36783 0.81099 0.0
H3192 H 0.59518 0.38007 0.90474 0.0
H3193 H 0.60789 0.38855 0.94063 0.0
H3194 H 0.60665 0.36999 0.9388 0.0
H3195 H 0.66439 0.3689 0.95445 0.0
H3196 H 0.66579 0.38746 0.95633 0.0
H3197 H 0.69244 0.37824 0.93112 0.0
H3198 H 0.67001 0.39369 0.81261 0.0
H3199 H 0.66751 0.41865 0.82512 0.0
H3200 H 0.64513 0.409 0.92323 0.0
C3201 C 0.6472 0.35322 0.89434 0.0
C3202 C 0.6536 0.34408 0.8689 0.0
C3203 C 0.66241 0.3495 0.83894 0.0
C3204 C 0.66461 0.36378 0.83407 0.0
C3205 C 0.65827 0.37256 0.85953 0.0
C3206 C 0.65005 0.36753 0.88919 0.0
C3207 C 0.64519 0.3793 0.91261 0.0
C3208 C 0.61174 0.37948 0.92491 0.0
C3209 C 0.66834 0.37842 0.94026 0.0
C3210 C 0.65182 0.39168 0.89143 0.0
C3211 C 0.65899 0.38753 0.86081 0.0
C3212 C 0.6648 0.39706 0.83659 0.0
C3213 C 0.66336 0.41119 0.84385 0.0
C3214 C 0.65664 0.41568 0.87514 0.0
C3215 C 0.65087 0.40579 0.89923 0.0
loop_
_geom_bond_atom_site_label_1
_geom_bond_atom_site_label_2
_geom_bond_distance
_geom_bond_site_symmetry_2
_ccdc_geom_bond_type
Co0 N4 2.148 . S
Co0 N10 2.128 . S
Co0 N20 2.194 . S
Co0 O25 2.351 . S
Co0 O26 2.155 . S
Co0 O27 2.096 . S
C1 N4 1.301 . S
C1 N5 1.328 . S
C1 H6 0.930 . S
C2 C3 1.333 . S
C2 N4 1.317 . S
C2 H7 0.930 . S
C3 C2 1.333 . S
C3 N5 1.350 . S
C3 H29 0.931 . S
N4 Co0 2.148 . S
N4 C1 1.301 . S
N4 C2 1.317 . S
N5 C1 1.328 . S
N5 C3 1.350 . S
H6 C1 0.930 . S
H7 C2 0.930 . S
C8 O9 1.224 . S
C8 O27 1.247 . S
O9 C8 1.224 . S
N10 Co0 2.128 . S
N10 C11 1.355 . S
N10 C13 1.311 . S
C11 N10 1.355 . S
C11 C12 1.363 . S
C11 H23 0.929 . S
C12 C11 1.363 . S
C12 N14 1.375 . S
C12 H30 0.931 . S
C13 N10 1.311 . S
C13 N14 1.347 . S
C13 H24 0.929 . S
N14 C12 1.375 . S
N14 C13 1.347 . S
C15 C18 1.365 . S
C15 N20 1.328 . S
C15 H21 0.929 . S
C16 C17 1.362 . S
C16 C19 1.378 . S
C16 H31 0.929 . S
C17 C16 1.362 . S
C17 C18 1.366 . S
C18 C15 1.365 . S
C18 C17 1.366 . S
C18 H32 0.930 . S
C19 C16 1.378 . S
C19 N20 1.315 . S
C19 H22 0.930 . S
N20 Co0 2.194 . S
N20 C15 1.328 . S
N20 C19 1.315 . S
H21 C15 0.929 . S
H22 C19 0.930 . S
H23 C11 0.929 . S
H24 C13 0.929 . S
O25 Co0 2.351 . S
O25 C28 1.244 . S
O26 Co0 2.155 . S
O26 C28 1.240 . S
O27 Co0 2.096 . S
O27 C8 1.247 . S
C28 O25 1.244 . S
C28 O26 1.240 . S
H29 C3 0.931 . S
H30 C12 0.931 . S
H31 C16 0.929 . S
H32 C18 0.930 . S
Co33 N37 2.148 . S
Co33 N43 2.128 . S
Co33 N53 2.194 . S
Co33 O58 2.351 . S
Co33 O59 2.155 . S
Co33 O60 2.096 . S
C34 N37 1.301 . S
C34 N38 1.328 . S
C34 H39 0.930 . S
C35 C36 1.333 . S
C35 N37 1.317 . S
C35 H40 0.930 . S
C36 C35 1.333 . S
C36 N38 1.350 . S
C36 H62 0.931 . S
N37 Co33 2.148 . S
N37 C34 1.301 . S
N37 C35 1.317 . S
N38 C34 1.328 . S
N38 C36 1.350 . S
H39 C34 0.930 . S
H40 C35 0.930 . S
C41 O42 1.224 . S
C41 O60 1.247 . S
O42 C41 1.224 . S
N43 Co33 2.128 . S
N43 C44 1.355 . S
N43 C46 1.311 . S
C44 N43 1.355 . S
C44 C45 1.363 . S
C44 H56 0.929 . S
C45 C44 1.363 . S
C45 N47 1.375 . S
C45 H63 0.931 . S
C46 N43 1.311 . S
C46 N47 1.347 . S
C46 H57 0.929 . S
N47 C45 1.375 . S
N47 C46 1.347 . S
C48 C51 1.365 . S
C48 N53 1.328 . S
C48 H54 0.929 . S
C49 C50 1.362 . S
C49 C52 1.378 . S
C49 H64 0.929 . S
C50 C49 1.362 . S
C50 C51 1.366 . S
C51 C48 1.365 . S
C51 C50 1.366 . S
C51 H65 0.930 . S
C52 C49 1.378 . S
C52 N53 1.315 . S
C52 H55 0.930 . S
N53 Co33 2.194 . S
N53 C48 1.328 . S
N53 C52 1.315 . S
H54 C48 0.929 . S
H55 C52 0.930 . S
H56 C44 0.929 . S
H57 C46 0.929 . S
O58 Co33 2.351 . S
O58 C61 1.244 . S
O59 Co33 2.155 . S
O59 C61 1.240 . S
O60 Co33 2.096 . S
O60 C41 1.247 . S
C61 O58 1.244 . S
C61 O59 1.240 . S
H62 C36 0.931 . S
H63 C45 0.931 . S
H64 C49 0.929 . S
H65 C51 0.930 . S
Co66 N70 2.148 . S
Co66 N76 2.128 . S
Co66 N86 2.194 . S
Co66 O91 2.351 . S
Co66 O92 2.155 . S
Co66 O93 2.096 . S
C67 N70 1.301 . S
C67 N71 1.328 . S
C67 H72 0.930 . S
C68 C69 1.333 . S
C68 N70 1.317 . S
C68 H73 0.930 . S
C69 C68 1.333 . S
C69 N71 1.350 . S
C69 H95 0.931 . S
N70 Co66 2.148 . S
N70 C67 1.301 . S
N70 C68 1.317 . S
N71 C67 1.328 . S
N71 C69 1.350 . S
H72 C67 0.930 . S
H73 C68 0.930 . S
C74 O75 1.224 . S
C74 O93 1.247 . S
O75 C74 1.224 . S
N76 Co66 2.128 . S
N76 C77 1.355 . S
N76 C79 1.311 1_554 S
C77 N76 1.355 . S
C77 C78 1.363 1_554 S
C77 H89 0.929 . S
C78 C77 1.363 1_556 S
C78 N80 1.375 . S
C78 H96 0.931 . S
C79 N76 1.311 1_556 S
C79 N80 1.347 . S
C79 H90 0.929 . S
N80 C78 1.375 . S
N80 C79 1.347 . S
C81 C84 1.365 . S
C81 N86 1.328 . S
C81 H87 0.929 . S
C82 C83 1.362 . S
C82 C85 1.378 . S
C82 H97 0.929 . S
C83 C82 1.362 . S
C83 C84 1.366 . S
C84 C81 1.365 . S
C84 C83 1.366 . S
C84 H98 0.930 . S
C85 C82 1.378 . S
C85 N86 1.315 . S
C85 H88 0.930 . S
N86 Co66 2.194 . S
N86 C81 1.328 . S
N86 C85 1.315 . S
H87 C81 0.929 . S
H88 C85 0.930 . S
H89 C77 0.929 . S
H90 C79 0.929 . S
O91 Co66 2.351 . S
O91 C94 1.244 . S
O92 Co66 2.155 . S
O92 C94 1.240 . S
O93 Co66 2.096 . S
O93 C74 1.247 . S
C94 O91 1.244 . S
C94 O92 1.240 . S
H95 C69 0.931 . S
H96 C78 0.931 . S
H97 C82 0.929 . S
H98 C84 0.930 . S
Co99 N103 2.148 . S
Co99 N109 2.128 . S
Co99 N119 2.194 . S
Co99 O124 2.351 . S
Co99 O125 2.155 . S
Co99 O126 2.096 . S
C100 N103 1.301 . S
C100 N104 1.328 . S
C100 H105 0.930 . S
C101 C102 1.333 . S
C101 N103 1.317 . S
C101 H106 0.930 . S
C102 C101 1.333 . S
C102 N104 1.350 . S
C102 H128 0.931 . S
N103 Co99 2.148 . S
N103 C100 1.301 . S
N103 C101 1.317 . S
N104 C100 1.328 . S
N104 C102 1.350 . S
H105 C100 0.930 . S
H106 C101 0.930 . S
C107 O108 1.224 . S
C107 O126 1.247 . S
O108 C107 1.224 . S
N109 Co99 2.128 . S
N109 C110 1.355 . S
N109 C112 1.311 1_554 S
C110 N109 1.355 . S
C110 C111 1.363 1_554 S
C110 H122 0.929 . S
C111 C110 1.363 1_556 S
C111 N113 1.375 . S
C111 H129 0.931 . S
C112 N109 1.311 1_556 S
C112 N113 1.347 . S
C112 H123 0.929 . S
N113 C111 1.375 . S
N113 C112 1.347 . S
C114 C117 1.365 . S
C114 N119 1.328 . S
C114 H120 0.929 . S
C115 C116 1.362 . S
C115 C118 1.378 . S
C115 H130 0.929 . S
C116 C115 1.362 . S
C116 C117 1.366 . S
C117 C114 1.365 . S
C117 C116 1.366 . S
C117 H131 0.930 . S
C118 C115 1.378 . S
C118 N119 1.315 . S
C118 H121 0.930 . S
N119 Co99 2.194 . S
N119 C114 1.328 . S
N119 C118 1.315 . S
H120 C114 0.929 . S
H121 C118 0.930 . S
H122 C110 0.929 . S
H123 C112 0.929 . S
O124 Co99 2.351 . S
O124 C127 1.244 . S
O125 Co99 2.155 . S
O125 C127 1.240 . S
O126 Co99 2.096 . S
O126 C107 1.247 . S
C127 O124 1.244 . S
C127 O125 1.240 . S
H128 C102 0.931 . S
H129 C111 0.931 . S
H130 C115 0.929 . S
H131 C117 0.930 . S
Co132 N136 2.148 . S
Co132 N142 2.128 . S
Co132 N152 2.194 . S
Co132 O157 2.351 . S
Co132 O158 2.155 . S
Co132 O159 2.096 . S
C133 N136 1.301 . S
C133 N137 1.328 . S
C133 H138 0.930 . S
C134 C135 1.333 . S
C134 N136 1.317 . S
C134 H139 0.930 . S
C135 C134 1.333 . S
C135 N137 1.350 . S
C135 H161 0.931 . S
N136 Co132 2.148 . S
N136 C133 1.301 . S
N136 C134 1.317 . S
N137 C133 1.328 . S
N137 C135 1.350 . S
H138 C133 0.930 . S
H139 C134 0.930 . S
C140 O141 1.224 . S
C140 O159 1.247 . S
O141 C140 1.224 . S
N142 Co132 2.128 . S
N142 C143 1.355 . S
N142 C145 1.311 . S
C143 N142 1.355 . S
C143 C144 1.363 . S
C143 H155 0.929 . S
C144 C143 1.363 . S
C144 N146 1.375 . S
C144 H162 0.931 . S
C145 N142 1.311 . S
C145 N146 1.347 . S
C145 H156 0.929 . S
N146 C144 1.375 . S
N146 C145 1.347 . S
C147 C150 1.365 . S
C147 N152 1.328 . S
C147 H153 0.929 . S
C148 C149 1.362 . S
C148 C151 1.378 . S
C148 H163 0.929 . S
C149 C148 1.362 . S
C149 C150 1.366 . S
C150 C147 1.365 . S
C150 C149 1.366 . S
C150 H164 0.930 . S
C151 C148 1.378 . S
C151 N152 1.315 . S
C151 H154 0.930 . S
N152 Co132 2.194 . S
N152 C147 1.328 . S
N152 C151 1.315 . S
H153 C147 0.929 . S
H154 C151 0.930 . S
H155 C143 0.929 . S
H156 C145 0.929 . S
O157 Co132 2.351 . S
O157 C160 1.244 . S
O158 Co132 2.155 . S
O158 C160 1.240 . S
O159 Co132 2.096 . S
O159 C140 1.247 . S
C160 O157 1.244 . S
C160 O158 1.240 . S
H161 C135 0.931 . S
H162 C144 0.931 . S
H163 C148 0.929 . S
H164 C150 0.930 . S
Co165 N169 2.148 . S
Co165 N175 2.128 . S
Co165 N185 2.194 . S
Co165 O190 2.351 . S
Co165 O191 2.155 . S
Co165 O192 2.096 . S
C166 N169 1.301 . S
C166 N170 1.328 . S
C166 H171 0.930 . S
C167 C168 1.333 . S
C167 N169 1.317 . S
C167 H172 0.930 . S
C168 C167 1.333 . S
C168 N170 1.350 . S
C168 H194 0.931 . S
N169 Co165 2.148 . S
N169 C166 1.301 . S
N169 C167 1.317 . S
N170 C166 1.328 . S
N170 C168 1.350 . S
H171 C166 0.930 . S
H172 C167 0.930 . S
C173 O174 1.224 . S
C173 O192 1.247 . S
O174 C173 1.224 . S
N175 Co165 2.128 . S
N175 C176 1.355 . S
N175 C178 1.311 . S
C176 N175 1.355 . S
C176 C177 1.363 . S
C176 H188 0.929 . S
C177 C176 1.363 . S
C177 N179 1.375 . S
C177 H195 0.931 . S
C178 N175 1.311 . S
C178 N179 1.347 . S
C178 H189 0.929 . S
N179 C177 1.375 . S
N179 C178 1.347 . S
C180 C183 1.365 . S
C180 N185 1.328 . S
C180 H186 0.929 . S
C181 C182 1.362 . S
C181 C184 1.378 . S
C181 H196 0.929 . S
C182 C181 1.362 . S
C182 C183 1.366 . S
C183 C180 1.365 . S
C183 C182 1.366 . S
C183 H197 0.930 . S
C184 C181 1.378 . S
C184 N185 1.315 . S
C184 H187 0.930 . S
N185 Co165 2.194 . S
N185 C180 1.328 . S
N185 C184 1.315 . S
H186 C180 0.929 . S
H187 C184 0.930 . S
H188 C176 0.929 . S
H189 C178 0.929 . S
O190 Co165 2.351 . S
O190 C193 1.244 . S
O191 Co165 2.155 . S
O191 C193 1.240 . S
O192 Co165 2.096 . S
O192 C173 1.247 . S
C193 O190 1.244 . S
C193 O191 1.240 . S
H194 C168 0.931 . S
H195 C177 0.931 . S
H196 C181 0.929 . S
H197 C183 0.930 . S
Co198 N202 2.148 . S
Co198 N208 2.128 . S
Co198 N218 2.194 . S
Co198 O223 2.351 . S
Co198 O224 2.155 . S
Co198 O225 2.096 . S
C199 N202 1.301 . S
C199 N203 1.328 . S
C199 H204 0.930 . S
C200 C201 1.333 . S
C200 N202 1.317 . S
C200 H205 0.930 . S
C201 C200 1.333 . S
C201 N203 1.350 . S
C201 H227 0.931 . S
N202 Co198 2.148 . S
N202 C199 1.301 . S
N202 C200 1.317 . S
N203 C199 1.328 . S
N203 C201 1.350 . S
H204 C199 0.930 . S
H205 C200 0.930 . S
C206 O207 1.224 . S
C206 O225 1.247 . S
O207 C206 1.224 . S
N208 Co198 2.128 . S
N208 C209 1.355 . S
N208 C211 1.311 1_556 S
C209 N208 1.355 . S
C209 C210 1.363 1_556 S
C209 H221 0.929 . S
C210 C209 1.363 1_554 S
C210 N212 1.375 . S
C210 H228 0.931 . S
C211 N208 1.311 1_554 S
C211 N212 1.347 . S
C211 H222 0.929 . S
N212 C210 1.375 . S
N212 C211 1.347 . S
C213 C216 1.365 . S
C213 N218 1.328 . S
C213 H219 0.929 . S
C214 C215 1.362 . S
C214 C217 1.378 . S
C214 H229 0.929 . S
C215 C214 1.362 . S
C215 C216 1.366 . S
C216 C213 1.365 . S
C216 C215 1.366 . S
C216 H230 0.930 . S
C217 C214 1.378 . S
C217 N218 1.315 . S
C217 H220 0.930 . S
N218 Co198 2.194 . S
N218 C213 1.328 . S
N218 C217 1.315 . S
H219 C213 0.929 . S
H220 C217 0.930 . S
H221 C209 0.929 . S
H222 C211 0.929 . S
O223 Co198 2.351 . S
O223 C226 1.244 . S
O224 Co198 2.155 . S
O224 C226 1.240 . S
O225 Co198 2.096 . S
O225 C206 1.247 . S
C226 O223 1.244 . S
C226 O224 1.240 . S
H227 C201 0.931 . S
H228 C210 0.931 . S
H229 C214 0.929 . S
H230 C216 0.930 . S
Co231 N235 2.148 . S
Co231 N241 2.128 . S
Co231 N251 2.194 . S
Co231 O256 2.351 . S
Co231 O257 2.155 . S
Co231 O258 2.096 . S
C232 N235 1.301 . S
C232 N236 1.328 . S
C232 H237 0.930 . S
C233 C234 1.333 . S
C233 N235 1.317 . S
C233 H238 0.930 . S
C234 C233 1.333 . S
C234 N236 1.350 . S
C234 H260 0.931 . S
N235 Co231 2.148 . S
N235 C232 1.301 . S
N235 C233 1.317 . S
N236 C232 1.328 . S
N236 C234 1.350 . S
H237 C232 0.930 . S
H238 C233 0.930 . S
C239 O240 1.224 . S
C239 O258 1.247 . S
O240 C239 1.224 . S
N241 Co231 2.128 . S
N241 C242 1.355 . S
N241 C244 1.311 1_556 S
C242 N241 1.355 . S
C242 C243 1.363 1_556 S
C242 H254 0.929 . S
C243 C242 1.363 1_554 S
C243 N245 1.375 . S
C243 H261 0.931 . S
C244 N241 1.311 1_554 S
C244 N245 1.347 . S
C244 H255 0.929 . S
N245 C243 1.375 . S
N245 C244 1.347 . S
C246 C249 1.365 . S
C246 N251 1.328 . S
C246 H252 0.929 . S
C247 C248 1.362 . S
C247 C250 1.378 . S
C247 H262 0.929 . S
C248 C247 1.362 . S
C248 C249 1.366 . S
C249 C246 1.365 . S
C249 C248 1.366 . S
C249 H263 0.930 . S
C250 C247 1.378 . S
C250 N251 1.315 . S
C250 H253 0.930 . S
N251 Co231 2.194 . S
N251 C246 1.328 . S
N251 C250 1.315 . S
H252 C246 0.929 . S
H253 C250 0.930 . S
H254 C242 0.929 . S
H255 C244 0.929 . S
O256 Co231 2.351 . S
O256 C259 1.244 . S
O257 Co231 2.155 . S
O257 C259 1.240 . S
O258 Co231 2.096 . S
O258 C239 1.247 . S
C259 O256 1.244 . S
C259 O257 1.240 . S
H260 C234 0.931 . S
H261 C243 0.931 . S
H262 C247 0.929 . S
H263 C249 0.930 . S
Co264 N268 2.148 . S
Co264 N274 2.128 . S
Co264 N284 2.194 . S
Co264 O289 2.351 . S
Co264 O290 2.155 . S
Co264 O291 2.096 . S
C265 N268 1.301 . S
C265 N269 1.328 . S
C265 H270 0.930 . S
C266 C267 1.333 . S
C266 N268 1.317 . S
C266 H271 0.930 . S
C267 C266 1.333 . S
C267 N269 1.350 . S
C267 H293 0.931 . S
N268 Co264 2.148 . S
N268 C265 1.301 . S
N268 C266 1.317 . S
N269 C265 1.328 . S
N269 C267 1.350 . S
H270 C265 0.930 . S
H271 C266 0.930 . S
C272 O273 1.224 . S
C272 O291 1.247 . S
O273 C272 1.224 . S
N274 Co264 2.128 . S
N274 C275 1.355 . S
N274 C277 1.311 . S
C275 N274 1.355 . S
C275 C276 1.363 . S
C275 H287 0.929 . S
C276 C275 1.363 . S
C276 N278 1.375 . S
C276 H294 0.931 . S
C277 N274 1.311 . S
C277 N278 1.347 . S
C277 H288 0.929 . S
N278 C276 1.375 . S
N278 C277 1.347 . S
C279 C282 1.365 . S
C279 N284 1.328 . S
C279 H285 0.929 . S
C280 C281 1.362 . S
C280 C283 1.378 . S
C280 H295 0.929 . S
C281 C280 1.362 . S
C281 C282 1.366 . S
C282 C279 1.365 . S
C282 C281 1.366 . S
C282 H296 0.930 . S
C283 C280 1.378 . S
C283 N284 1.315 . S
C283 H286 0.930 . S
N284 Co264 2.194 . S
N284 C279 1.328 . S
N284 C283 1.315 . S
H285 C279 0.929 . S
H286 C283 0.930 . S
H287 C275 0.929 . S
H288 C277 0.929 . S
O289 Co264 2.351 . S
O289 C292 1.244 . S
O290 Co264 2.155 . S
O290 C292 1.240 . S
O291 Co264 2.096 . S
O291 C272 1.247 . S
C292 O289 1.244 . S
C292 O290 1.240 . S
H293 C267 0.931 . S
H294 C276 0.931 . S
H295 C280 0.929 . S
H296 C282 0.930 . S
Co297 N301 2.148 . S
Co297 N307 2.128 . S
Co297 N317 2.194 . S
Co297 O322 2.351 . S
Co297 O323 2.155 . S
Co297 O324 2.096 . S
C298 N301 1.301 . S
C298 N302 1.328 . S
C298 H303 0.930 . S
C299 C300 1.333 . S
C299 N301 1.317 . S
C299 H304 0.930 . S
C300 C299 1.333 . S
C300 N302 1.350 . S
C300 H326 0.931 . S
N301 Co297 2.148 . S
N301 C298 1.301 . S
N301 C299 1.317 . S
N302 C298 1.328 . S
N302 C300 1.350 . S
H303 C298 0.930 . S
H304 C299 0.930 . S
C305 O306 1.224 . S
C305 O324 1.247 . S
O306 C305 1.224 . S
N307 Co297 2.128 . S
N307 C308 1.355 . S
N307 C310 1.311 . S
C308 N307 1.355 . S
C308 C309 1.363 . S
C308 H320 0.929 . S
C309 C308 1.363 . S
C309 N311 1.375 . S
C309 H327 0.931 . S
C310 N307 1.311 . S
C310 N311 1.347 . S
C310 H321 0.929 . S
N311 C309 1.375 . S
N311 C310 1.347 . S
C312 C315 1.365 . S
C312 N317 1.328 . S
C312 H318 0.929 . S
C313 C314 1.362 . S
C313 C316 1.378 . S
C313 H328 0.929 . S
C314 C313 1.362 . S
C314 C315 1.366 . S
C315 C312 1.365 . S
C315 C314 1.366 . S
C315 H329 0.930 . S
C316 C313 1.378 . S
C316 N317 1.315 . S
C316 H319 0.930 . S
N317 Co297 2.194 . S
N317 C312 1.328 . S
N317 C316 1.315 . S
H318 C312 0.929 . S
H319 C316 0.930 . S
H320 C308 0.929 . S
H321 C310 0.929 . S
O322 Co297 2.351 . S
O322 C325 1.244 . S
O323 Co297 2.155 . S
O323 C325 1.240 . S
O324 Co297 2.096 . S
O324 C305 1.247 . S
C325 O322 1.244 . S
C325 O323 1.240 . S
H326 C300 0.931 . S
H327 C309 0.931 . S
H328 C313 0.929 . S
H329 C315 0.930 . S
Co330 N334 2.148 . S
Co330 N340 2.128 . S
Co330 N350 2.194 . S
Co330 O355 2.351 . S
Co330 O356 2.155 . S
Co330 O357 2.096 . S
C331 N334 1.301 . S
C331 N335 1.328 . S
C331 H336 0.930 . S
C332 C333 1.333 . S
C332 N334 1.317 . S
C332 H337 0.930 . S
C333 C332 1.333 . S
C333 N335 1.350 . S
C333 H359 0.931 . S
N334 Co330 2.148 . S
N334 C331 1.301 . S
N334 C332 1.317 . S
N335 C331 1.328 . S
N335 C333 1.350 . S
H336 C331 0.930 . S
H337 C332 0.930 . S
C338 O339 1.224 . S
C338 O357 1.247 . S
O339 C338 1.224 . S
N340 Co330 2.128 . S
N340 C341 1.355 . S
N340 C343 1.311 . S
C341 N340 1.355 . S
C341 C342 1.363 . S
C341 H353 0.929 . S
C342 C341 1.363 . S
C342 N344 1.375 . S
C342 H360 0.931 . S
C343 N340 1.311 . S
C343 N344 1.347 . S
C343 H354 0.929 . S
N344 C342 1.375 . S
N344 C343 1.347 . S
C345 C348 1.365 . S
C345 N350 1.328 . S
C345 H351 0.929 . S
C346 C347 1.362 . S
C346 C349 1.378 . S
C346 H361 0.929 . S
C347 C346 1.362 . S
C347 C348 1.366 . S
C348 C345 1.365 . S
C348 C347 1.366 . S
C348 H362 0.930 . S
C349 C346 1.378 . S
C349 N350 1.315 . S
C349 H352 0.930 . S
N350 Co330 2.194 . S
N350 C345 1.328 . S
N350 C349 1.315 . S
H351 C345 0.929 . S
H352 C349 0.930 . S
H353 C341 0.929 . S
H354 C343 0.929 . S
O355 Co330 2.351 . S
O355 C358 1.244 . S
O356 Co330 2.155 . S
O356 C358 1.240 . S
O357 Co330 2.096 . S
O357 C338 1.247 . S
C358 O355 1.244 . S
C358 O356 1.240 . S
H359 C333 0.931 . S
H360 C342 0.931 . S
H361 C346 0.929 . S
H362 C348 0.930 . S
Co363 N367 2.148 . S
Co363 N373 2.128 . S
Co363 N383 2.194 . S
Co363 O388 2.351 . S
Co363 O389 2.155 . S
Co363 O390 2.096 . S
C364 N367 1.301 . S
C364 N368 1.328 . S
C364 H369 0.930 . S
C365 C366 1.333 . S
C365 N367 1.317 . S
C365 H370 0.930 . S
C366 C365 1.333 . S
C366 N368 1.350 . S
C366 H392 0.931 . S
N367 Co363 2.148 . S
N367 C364 1.301 . S
N367 C365 1.317 . S
N368 C364 1.328 . S
N368 C366 1.350 . S
H369 C364 0.930 . S
H370 C365 0.930 . S
C371 O372 1.224 . S
C371 O390 1.247 . S
O372 C371 1.224 . S
N373 Co363 2.128 . S
N373 C374 1.355 . S
N373 C376 1.311 . S
C374 N373 1.355 . S
C374 C375 1.363 . S
C374 H386 0.929 . S
C375 C374 1.363 . S
C375 N377 1.375 . S
C375 H393 0.931 . S
C376 N373 1.311 . S
C376 N377 1.347 . S
C376 H387 0.929 . S
N377 C375 1.375 . S
N377 C376 1.347 . S
C378 C381 1.365 . S
C378 N383 1.328 . S
C378 H384 0.929 . S
C379 C380 1.362 . S
C379 C382 1.378 . S
C379 H394 0.929 . S
C380 C379 1.362 . S
C380 C381 1.366 . S
C381 C378 1.365 . S
C381 C380 1.366 . S
C381 H395 0.930 . S
C382 C379 1.378 . S
C382 N383 1.315 . S
C382 H385 0.930 . S
N383 Co363 2.194 . S
N383 C378 1.328 . S
N383 C382 1.315 . S
H384 C378 0.929 . S
H385 C382 0.930 . S
H386 C374 0.929 . S
H387 C376 0.929 . S
O388 Co363 2.351 . S
O388 C391 1.244 . S
O389 Co363 2.155 . S
O389 C391 1.240 . S
O390 Co363 2.096 . S
O390 C371 1.247 . S
C391 O388 1.244 . S
C391 O389 1.240 . S
H392 C366 0.931 . S
H393 C375 0.931 . S
H394 C379 0.929 . S
H395 C381 0.930 . S
Co396 N400 2.148 . S
Co396 N406 2.128 . S
Co396 N416 2.194 . S
Co396 O421 2.351 . S
Co396 O422 2.155 . S
Co396 O423 2.096 . S
C397 N400 1.301 . S
C397 N401 1.328 . S
C397 H402 0.930 . S
C398 C399 1.333 . S
C398 N400 1.317 . S
C398 H403 0.930 . S
C399 C398 1.333 . S
C399 N401 1.350 . S
C399 H425 0.931 . S
N400 Co396 2.148 . S
N400 C397 1.301 . S
N400 C398 1.317 . S
N401 C397 1.328 . S
N401 C399 1.350 . S
H402 C397 0.930 . S
H403 C398 0.930 . S
C404 O405 1.224 . S
C404 O423 1.247 . S
O405 C404 1.224 . S
N406 Co396 2.128 . S
N406 C407 1.355 . S
N406 C409 1.311 . S
C407 N406 1.355 . S
C407 C408 1.363 . S
C407 H419 0.929 . S
C408 C407 1.363 . S
C408 N410 1.375 . S
C408 H426 0.931 . S
C409 N406 1.311 . S
C409 N410 1.347 . S
C409 H420 0.929 . S
N410 C408 1.375 . S
N410 C409 1.347 . S
C411 C414 1.365 . S
C411 N416 1.328 . S
C411 H417 0.929 . S
C412 C413 1.362 . S
C412 C415 1.378 . S
C412 H427 0.929 . S
C413 C412 1.362 . S
C413 C414 1.366 . S
C414 C411 1.365 . S
C414 C413 1.366 . S
C414 H428 0.930 . S
C415 C412 1.378 . S
C415 N416 1.315 . S
C415 H418 0.930 . S
N416 Co396 2.194 . S
N416 C411 1.328 . S
N416 C415 1.315 . S
H417 C411 0.929 . S
H418 C415 0.930 . S
H419 C407 0.929 . S
H420 C409 0.929 . S
O421 Co396 2.351 . S
O421 C424 1.244 . S
O422 Co396 2.155 . S
O422 C424 1.240 . S
O423 Co396 2.096 . S
O423 C404 1.247 . S
C424 O421 1.244 . S
C424 O422 1.240 . S
H425 C399 0.931 . S
H426 C408 0.931 . S
H427 C412 0.929 . S
H428 C414 0.930 . S
Co429 N433 2.148 . S
Co429 N439 2.128 . S
Co429 N449 2.194 . S
Co429 O454 2.351 . S
Co429 O455 2.155 . S
Co429 O456 2.096 . S
C430 N433 1.301 . S
C430 N434 1.328 . S
C430 H435 0.930 . S
C431 C432 1.333 . S
C431 N433 1.317 . S
C431 H436 0.930 . S
C432 C431 1.333 . S
C432 N434 1.350 . S
C432 H458 0.931 . S
N433 Co429 2.148 . S
N433 C430 1.301 . S
N433 C431 1.317 . S
N434 C430 1.328 . S
N434 C432 1.350 . S
H435 C430 0.930 . S
H436 C431 0.930 . S
C437 O438 1.224 . S
C437 O456 1.247 . S
O438 C437 1.224 . S
N439 Co429 2.128 . S
N439 C440 1.355 . S
N439 C442 1.311 . S
C440 N439 1.355 . S
C440 C441 1.363 . S
C440 H452 0.929 . S
C441 C440 1.363 . S
C441 N443 1.375 . S
C441 H459 0.931 . S
C442 N439 1.311 . S
C442 N443 1.347 . S
C442 H453 0.929 . S
N443 C441 1.375 . S
N443 C442 1.347 . S
C444 C447 1.365 . S
C444 N449 1.328 . S
C444 H450 0.929 . S
C445 C446 1.362 . S
C445 C448 1.378 . S
C445 H460 0.929 . S
C446 C445 1.362 . S
C446 C447 1.366 . S
C447 C444 1.365 . S
C447 C446 1.366 . S
C447 H461 0.930 . S
C448 C445 1.378 . S
C448 N449 1.315 . S
C448 H451 0.930 . S
N449 Co429 2.194 . S
N449 C444 1.328 . S
N449 C448 1.315 . S
H450 C444 0.929 . S
H451 C448 0.930 . S
H452 C440 0.929 . S
H453 C442 0.929 . S
O454 Co429 2.351 . S
O454 C457 1.244 . S
O455 Co429 2.155 . S
O455 C457 1.240 . S
O456 Co429 2.096 . S
O456 C437 1.247 . S
C457 O454 1.244 . S
C457 O455 1.240 . S
H458 C432 0.931 . S
H459 C441 0.931 . S
H460 C445 0.929 . S
H461 C447 0.930 . S
Co462 N466 2.148 . S
Co462 N472 2.128 . S
Co462 N482 2.194 . S
Co462 O487 2.351 . S
Co462 O488 2.155 . S
Co462 O489 2.096 . S
C463 N466 1.301 . S
C463 N467 1.328 . S
C463 H468 0.930 . S
C464 C465 1.333 . S
C464 N466 1.317 . S
C464 H469 0.930 . S
C465 C464 1.333 . S
C465 N467 1.350 . S
C465 H491 0.931 . S
N466 Co462 2.148 . S
N466 C463 1.301 . S
N466 C464 1.317 . S
N467 C463 1.328 . S
N467 C465 1.350 . S
H468 C463 0.930 . S
H469 C464 0.930 . S
C470 O471 1.224 . S
C470 O489 1.247 . S
O471 C470 1.224 . S
N472 Co462 2.128 . S
N472 C473 1.355 . S
N472 C475 1.311 . S
C473 N472 1.355 . S
C473 C474 1.363 . S
C473 H485 0.929 . S
C474 C473 1.363 . S
C474 N476 1.375 . S
C474 H492 0.931 . S
C475 N472 1.311 . S
C475 N476 1.347 . S
C475 H486 0.929 . S
N476 C474 1.375 . S
N476 C475 1.347 . S
C477 C480 1.365 . S
C477 N482 1.328 . S
C477 H483 0.929 . S
C478 C479 1.362 . S
C478 C481 1.378 . S
C478 H493 0.929 . S
C479 C478 1.362 . S
C479 C480 1.366 . S
C480 C477 1.365 . S
C480 C479 1.366 . S
C480 H494 0.930 . S
C481 C478 1.378 . S
C481 N482 1.315 . S
C481 H484 0.930 . S
N482 Co462 2.194 . S
N482 C477 1.328 . S
N482 C481 1.315 . S
H483 C477 0.929 . S
H484 C481 0.930 . S
H485 C473 0.929 . S
H486 C475 0.929 . S
O487 Co462 2.351 . S
O487 C490 1.244 . S
O488 Co462 2.155 . S
O488 C490 1.240 . S
O489 Co462 2.096 . S
O489 C470 1.247 . S
C490 O487 1.244 . S
C490 O488 1.240 . S
H491 C465 0.931 . S
H492 C474 0.931 . S
H493 C478 0.929 . S
H494 C480 0.930 . S
Co495 N499 2.148 . S
Co495 N505 2.128 . S
Co495 N515 2.194 . S
Co495 O520 2.351 . S
Co495 O521 2.155 . S
Co495 O522 2.096 . S
C496 N499 1.301 . S
C496 N500 1.328 . S
C496 H501 0.930 . S
C497 C498 1.333 . S
C497 N499 1.317 . S
C497 H502 0.930 . S
C498 C497 1.333 . S
C498 N500 1.350 . S
C498 H524 0.931 . S
N499 Co495 2.148 . S
N499 C496 1.301 . S
N499 C497 1.317 . S
N500 C496 1.328 . S
N500 C498 1.350 . S
H501 C496 0.930 . S
H502 C497 0.930 . S
C503 O504 1.224 . S
C503 O522 1.247 . S
O504 C503 1.224 . S
N505 Co495 2.128 . S
N505 C506 1.355 . S
N505 C508 1.311 . S
C506 N505 1.355 . S
C506 C507 1.363 . S
C506 H518 0.929 . S
C507 C506 1.363 . S
C507 N509 1.375 . S
C507 H525 0.931 . S
C508 N505 1.311 . S
C508 N509 1.347 . S
C508 H519 0.929 . S
N509 C507 1.375 . S
N509 C508 1.347 . S
C510 C513 1.365 . S
C510 N515 1.328 . S
C510 H516 0.929 . S
C511 C512 1.362 . S
C511 C514 1.378 . S
C511 H526 0.929 . S
C512 C511 1.362 . S
C512 C513 1.366 . S
C513 C510 1.365 . S
C513 C512 1.366 . S
C513 H527 0.930 . S
C514 C511 1.378 . S
C514 N515 1.315 . S
C514 H517 0.930 . S
N515 Co495 2.194 . S
N515 C510 1.328 . S
N515 C514 1.315 . S
H516 C510 0.929 . S
H517 C514 0.930 . S
H518 C506 0.929 . S
H519 C508 0.929 . S
O520 Co495 2.351 . S
O520 C523 1.244 . S
O521 Co495 2.155 . S
O521 C523 1.240 . S
O522 Co495 2.096 . S
O522 C503 1.247 . S
C523 O520 1.244 . S
C523 O521 1.240 . S
H524 C498 0.931 . S
H525 C507 0.931 . S
H526 C511 0.929 . S
H527 C513 0.930 . S
Co528 N532 2.148 . S
Co528 N538 2.128 . S
Co528 N548 2.194 . S
Co528 O553 2.351 . S
Co528 O554 2.155 . S
Co528 O555 2.096 . S
C529 N532 1.301 . S
C529 N533 1.328 . S
C529 H534 0.930 . S
C530 C531 1.333 . S
C530 N532 1.317 . S
C530 H535 0.930 . S
C531 C530 1.333 . S
C531 N533 1.350 . S
C531 H557 0.931 . S
N532 Co528 2.148 . S
N532 C529 1.301 . S
N532 C530 1.317 . S
N533 C529 1.328 . S
N533 C531 1.350 . S
H534 C529 0.930 . S
H535 C530 0.930 . S
C536 O537 1.224 . S
C536 O555 1.247 . S
O537 C536 1.224 . S
N538 Co528 2.128 . S
N538 C539 1.355 . S
N538 C541 1.311 . S
C539 N538 1.355 . S
C539 C540 1.363 . S
C539 H551 0.929 . S
C540 C539 1.363 . S
C540 N542 1.375 . S
C540 H558 0.931 . S
C541 N538 1.311 . S
C541 N542 1.347 . S
C541 H552 0.929 . S
N542 C540 1.375 . S
N542 C541 1.347 . S
C543 C546 1.365 . S
C543 N548 1.328 . S
C543 H549 0.929 . S
C544 C545 1.362 . S
C544 C547 1.378 . S
C544 H559 0.929 . S
C545 C544 1.362 . S
C545 C546 1.366 . S
C546 C543 1.365 . S
C546 C545 1.366 . S
C546 H560 0.930 . S
C547 C544 1.378 . S
C547 N548 1.315 . S
C547 H550 0.930 . S
N548 Co528 2.194 . S
N548 C543 1.328 . S
N548 C547 1.315 . S
H549 C543 0.929 . S
H550 C547 0.930 . S
H551 C539 0.929 . S
H552 C541 0.929 . S
O553 Co528 2.351 . S
O553 C556 1.244 . S
O554 Co528 2.155 . S
O554 C556 1.240 . S
O555 Co528 2.096 . S
O555 C536 1.247 . S
C556 O553 1.244 . S
C556 O554 1.240 . S
H557 C531 0.931 . S
H558 C540 0.931 . S
H559 C544 0.929 . S
H560 C546 0.930 . S
Co561 N565 2.148 . S
Co561 N571 2.128 . S
Co561 N581 2.194 . S
Co561 O586 2.351 . S
Co561 O587 2.155 . S
Co561 O588 2.096 . S
C562 N565 1.301 . S
C562 N566 1.328 . S
C562 H567 0.930 . S
C563 C564 1.333 . S
C563 N565 1.317 . S
C563 H568 0.930 . S
C564 C563 1.333 . S
C564 N566 1.350 . S
C564 H590 0.931 . S
N565 Co561 2.148 . S
N565 C562 1.301 . S
N565 C563 1.317 . S
N566 C562 1.328 . S
N566 C564 1.350 . S
H567 C562 0.930 . S
H568 C563 0.930 . S
C569 O570 1.224 . S
C569 O588 1.247 . S
O570 C569 1.224 . S
N571 Co561 2.128 . S
N571 C572 1.355 . S
N571 C574 1.311 . S
C572 N571 1.355 . S
C572 C573 1.363 . S
C572 H584 0.929 . S
C573 C572 1.363 . S
C573 N575 1.375 . S
C573 H591 0.931 . S
C574 N571 1.311 . S
C574 N575 1.347 . S
C574 H585 0.929 . S
N575 C573 1.375 . S
N575 C574 1.347 . S
C576 C579 1.365 . S
C576 N581 1.328 . S
C576 H582 0.929 . S
C577 C578 1.362 . S
C577 C580 1.378 . S
C577 H592 0.929 . S
C578 C577 1.362 . S
C578 C579 1.366 . S
C579 C576 1.365 . S
C579 C578 1.366 . S
C579 H593 0.930 . S
C580 C577 1.378 . S
C580 N581 1.315 . S
C580 H583 0.930 . S
N581 Co561 2.194 . S
N581 C576 1.328 . S
N581 C580 1.315 . S
H582 C576 0.929 . S
H583 C580 0.930 . S
H584 C572 0.929 . S
H585 C574 0.929 . S
O586 Co561 2.351 . S
O586 C589 1.244 . S
O587 Co561 2.155 . S
O587 C589 1.240 . S
O588 Co561 2.096 . S
O588 C569 1.247 . S
C589 O586 1.244 . S
C589 O587 1.240 . S
H590 C564 0.931 . S
H591 C573 0.931 . S
H592 C577 0.929 . S
H593 C579 0.930 . S
Co594 N598 2.148 . S
Co594 N604 2.128 . S
Co594 N614 2.194 . S
Co594 O619 2.351 . S
Co594 O620 2.155 . S
Co594 O621 2.096 . S
C595 N598 1.301 . S
C595 N599 1.328 . S
C595 H600 0.930 . S
C596 C597 1.333 . S
C596 N598 1.317 . S
C596 H601 0.930 . S
C597 C596 1.333 . S
C597 N599 1.350 . S
C597 H623 0.931 . S
N598 Co594 2.148 . S
N598 C595 1.301 . S
N598 C596 1.317 . S
N599 C595 1.328 . S
N599 C597 1.350 . S
H600 C595 0.930 . S
H601 C596 0.930 . S
C602 O603 1.224 . S
C602 O621 1.247 . S
O603 C602 1.224 . S
N604 Co594 2.128 . S
N604 C605 1.355 . S
N604 C607 1.311 . S
C605 N604 1.355 . S
C605 C606 1.363 . S
C605 H617 0.929 . S
C606 C605 1.363 . S
C606 N608 1.375 . S
C606 H624 0.931 . S
C607 N604 1.311 . S
C607 N608 1.347 . S
C607 H618 0.929 . S
N608 C606 1.375 . S
N608 C607 1.347 . S
C609 C612 1.365 . S
C609 N614 1.328 . S
C609 H615 0.929 . S
C610 C611 1.362 . S
C610 C613 1.378 . S
C610 H625 0.929 . S
C611 C610 1.362 . S
C611 C612 1.366 . S
C612 C609 1.365 . S
C612 C611 1.366 . S
C612 H626 0.930 . S
C613 C610 1.378 . S
C613 N614 1.315 . S
C613 H616 0.930 . S
N614 Co594 2.194 . S
N614 C609 1.328 . S
N614 C613 1.315 . S
H615 C609 0.929 . S
H616 C613 0.930 . S
H617 C605 0.929 . S
H618 C607 0.929 . S
O619 Co594 2.351 . S
O619 C622 1.244 . S
O620 Co594 2.155 . S
O620 C622 1.240 . S
O621 Co594 2.096 . S
O621 C602 1.247 . S
C622 O619 1.244 . S
C622 O620 1.240 . S
H623 C597 0.931 . S
H624 C606 0.931 . S
H625 C610 0.929 . S
H626 C612 0.930 . S
Co627 N631 2.148 . S
Co627 N637 2.128 . S
Co627 N647 2.194 . S
Co627 O652 2.351 . S
Co627 O653 2.155 . S
Co627 O654 2.096 . S
C628 N631 1.301 . S
C628 N632 1.328 . S
C628 H633 0.930 . S
C629 C630 1.333 . S
C629 N631 1.317 . S
C629 H634 0.930 . S
C630 C629 1.333 . S
C630 N632 1.350 . S
C630 H656 0.931 . S
N631 Co627 2.148 . S
N631 C628 1.301 . S
N631 C629 1.317 . S
N632 C628 1.328 . S
N632 C630 1.350 . S
H633 C628 0.930 . S
H634 C629 0.930 . S
C635 O636 1.224 . S
C635 O654 1.247 . S
O636 C635 1.224 . S
N637 Co627 2.128 . S
N637 C638 1.355 . S
N637 C640 1.311 . S
C638 N637 1.355 . S
C638 C639 1.363 . S
C638 H650 0.929 . S
C639 C638 1.363 . S
C639 N641 1.375 . S
C639 H657 0.931 . S
C640 N637 1.311 . S
C640 N641 1.347 . S
C640 H651 0.929 . S
N641 C639 1.375 . S
N641 C640 1.347 . S
C642 C645 1.365 . S
C642 N647 1.328 . S
C642 H648 0.929 . S
C643 C644 1.362 . S
C643 C646 1.378 . S
C643 H658 0.929 . S
C644 C643 1.362 . S
C644 C645 1.366 . S
C645 C642 1.365 . S
C645 C644 1.366 . S
C645 H659 0.930 . S
C646 C643 1.378 . S
C646 N647 1.315 . S
C646 H649 0.930 . S
N647 Co627 2.194 . S
N647 C642 1.328 . S
N647 C646 1.315 . S
H648 C642 0.929 . S
H649 C646 0.930 . S
H650 C638 0.929 . S
H651 C640 0.929 . S
O652 Co627 2.351 . S
O652 C655 1.244 . S
O653 Co627 2.155 . S
O653 C655 1.240 . S
O654 Co627 2.096 . S
O654 C635 1.247 . S
C655 O652 1.244 . S
C655 O653 1.240 . S
H656 C630 0.931 . S
H657 C639 0.931 . S
H658 C643 0.929 . S
H659 C645 0.930 . S
Co660 N664 2.148 . S
Co660 N670 2.128 . S
Co660 N680 2.194 . S
Co660 O685 2.351 . S
Co660 O686 2.155 . S
Co660 O687 2.096 . S
C661 N664 1.301 . S
C661 N665 1.328 . S
C661 H666 0.930 . S
C662 C663 1.333 . S
C662 N664 1.317 . S
C662 H667 0.930 . S
C663 C662 1.333 . S
C663 N665 1.350 . S
C663 H689 0.931 . S
N664 Co660 2.148 . S
N664 C661 1.301 . S
N664 C662 1.317 . S
N665 C661 1.328 . S
N665 C663 1.350 . S
H666 C661 0.930 . S
H667 C662 0.930 . S
C668 O669 1.224 . S
C668 O687 1.247 . S
O669 C668 1.224 . S
N670 Co660 2.128 . S
N670 C671 1.355 . S
N670 C673 1.311 . S
C671 N670 1.355 . S
C671 C672 1.363 . S
C671 H683 0.929 . S
C672 C671 1.363 . S
C672 N674 1.375 . S
C672 H690 0.931 . S
C673 N670 1.311 . S
C673 N674 1.347 . S
C673 H684 0.929 . S
N674 C672 1.375 . S
N674 C673 1.347 . S
C675 C678 1.365 . S
C675 N680 1.328 . S
C675 H681 0.929 . S
C676 C677 1.362 . S
C676 C679 1.378 . S
C676 H691 0.929 . S
C677 C676 1.362 . S
C677 C678 1.366 . S
C678 C675 1.365 . S
C678 C677 1.366 . S
C678 H692 0.930 . S
C679 C676 1.378 . S
C679 N680 1.315 . S
C679 H682 0.930 . S
N680 Co660 2.194 . S
N680 C675 1.328 . S
N680 C679 1.315 . S
H681 C675 0.929 . S
H682 C679 0.930 . S
H683 C671 0.929 . S
H684 C673 0.929 . S
O685 Co660 2.351 . S
O685 C688 1.244 . S
O686 Co660 2.155 . S
O686 C688 1.240 . S
O687 Co660 2.096 . S
O687 C668 1.247 . S
C688 O685 1.244 . S
C688 O686 1.240 . S
H689 C663 0.931 . S
H690 C672 0.931 . S
H691 C676 0.929 . S
H692 C678 0.930 . S
Co693 N697 2.148 . S
Co693 N703 2.128 . S
Co693 N713 2.194 . S
Co693 O718 2.351 . S
Co693 O719 2.155 . S
Co693 O720 2.096 . S
C694 N697 1.301 . S
C694 N698 1.328 . S
C694 H699 0.930 . S
C695 C696 1.333 . S
C695 N697 1.317 . S
C695 H700 0.930 . S
C696 C695 1.333 . S
C696 N698 1.350 . S
C696 H722 0.931 . S
N697 Co693 2.148 . S
N697 C694 1.301 . S
N697 C695 1.317 . S
N698 C694 1.328 . S
N698 C696 1.350 . S
H699 C694 0.930 . S
H700 C695 0.930 . S
C701 O702 1.224 . S
C701 O720 1.247 . S
O702 C701 1.224 . S
N703 Co693 2.128 . S
N703 C704 1.355 . S
N703 C706 1.311 . S
C704 N703 1.355 . S
C704 C705 1.363 . S
C704 H716 0.929 . S
C705 C704 1.363 . S
C705 N707 1.375 . S
C705 H723 0.931 . S
C706 N703 1.311 . S
C706 N707 1.347 . S
C706 H717 0.929 . S
N707 C705 1.375 . S
N707 C706 1.347 . S
C708 C711 1.365 . S
C708 N713 1.328 . S
C708 H714 0.929 . S
C709 C710 1.362 . S
C709 C712 1.378 . S
C709 H724 0.929 . S
C710 C709 1.362 . S
C710 C711 1.366 . S
C711 C708 1.365 . S
C711 C710 1.366 . S
C711 H725 0.930 . S
C712 C709 1.378 . S
C712 N713 1.315 . S
C712 H715 0.930 . S
N713 Co693 2.194 . S
N713 C708 1.328 . S
N713 C712 1.315 . S
H714 C708 0.929 . S
H715 C712 0.930 . S
H716 C704 0.929 . S
H717 C706 0.929 . S
O718 Co693 2.351 . S
O718 C721 1.244 . S
O719 Co693 2.155 . S
O719 C721 1.240 . S
O720 Co693 2.096 . S
O720 C701 1.247 . S
C721 O718 1.244 . S
C721 O719 1.240 . S
H722 C696 0.931 . S
H723 C705 0.931 . S
H724 C709 0.929 . S
H725 C711 0.930 . S
Co726 N730 2.148 . S
Co726 N736 2.128 . S
Co726 N746 2.194 . S
Co726 O751 2.351 . S
Co726 O752 2.155 . S
Co726 O753 2.096 . S
C727 N730 1.301 . S
C727 N731 1.328 . S
C727 H732 0.930 . S
C728 C729 1.333 . S
C728 N730 1.317 . S
C728 H733 0.930 . S
C729 C728 1.333 . S
C729 N731 1.350 . S
C729 H755 0.931 . S
N730 Co726 2.148 . S
N730 C727 1.301 . S
N730 C728 1.317 . S
N731 C727 1.328 . S
N731 C729 1.350 . S
H732 C727 0.930 . S
H733 C728 0.930 . S
C734 O735 1.224 . S
C734 O753 1.247 . S
O735 C734 1.224 . S
N736 Co726 2.128 . S
N736 C737 1.355 . S
N736 C739 1.311 . S
C737 N736 1.355 . S
C737 C738 1.363 . S
C737 H749 0.929 . S
C738 C737 1.363 . S
C738 N740 1.375 . S
C738 H756 0.931 . S
C739 N736 1.311 . S
C739 N740 1.347 . S
C739 H750 0.929 . S
N740 C738 1.375 . S
N740 C739 1.347 . S
C741 C744 1.365 . S
C741 N746 1.328 . S
C741 H747 0.929 . S
C742 C743 1.362 . S
C742 C745 1.378 . S
C742 H757 0.929 . S
C743 C742 1.362 . S
C743 C744 1.366 . S
C744 C741 1.365 . S
C744 C743 1.366 . S
C744 H758 0.930 . S
C745 C742 1.378 . S
C745 N746 1.315 . S
C745 H748 0.930 . S
N746 Co726 2.194 . S
N746 C741 1.328 . S
N746 C745 1.315 . S
H747 C741 0.929 . S
H748 C745 0.930 . S
H749 C737 0.929 . S
H750 C739 0.929 . S
O751 Co726 2.351 . S
O751 C754 1.244 . S
O752 Co726 2.155 . S
O752 C754 1.240 . S
O753 Co726 2.096 . S
O753 C734 1.247 . S
C754 O751 1.244 . S
C754 O752 1.240 . S
H755 C729 0.931 . S
H756 C738 0.931 . S
H757 C742 0.929 . S
H758 C744 0.930 . S
Co759 N763 2.148 . S
Co759 N769 2.128 . S
Co759 N779 2.194 . S
Co759 O784 2.351 . S
Co759 O785 2.155 . S
Co759 O786 2.096 . S
C760 N763 1.301 . S
C760 N764 1.328 . S
C760 H765 0.930 . S
C761 C762 1.333 . S
C761 N763 1.317 . S
C761 H766 0.930 . S
C762 C761 1.333 . S
C762 N764 1.350 . S
C762 H788 0.931 . S
N763 Co759 2.148 . S
N763 C760 1.301 . S
N763 C761 1.317 . S
N764 C760 1.328 . S
N764 C762 1.350 . S
H765 C760 0.930 . S
H766 C761 0.930 . S
C767 O768 1.224 . S
C767 O786 1.247 . S
O768 C767 1.224 . S
N769 Co759 2.128 . S
N769 C770 1.355 . S
N769 C772 1.311 . S
C770 N769 1.355 . S
C770 C771 1.363 . S
C770 H782 0.929 . S
C771 C770 1.363 . S
C771 N773 1.375 . S
C771 H789 0.931 . S
C772 N769 1.311 . S
C772 N773 1.347 . S
C772 H783 0.929 . S
N773 C771 1.375 . S
N773 C772 1.347 . S
C774 C777 1.365 . S
C774 N779 1.328 . S
C774 H780 0.929 . S
C775 C776 1.362 . S
C775 C778 1.378 . S
C775 H790 0.929 . S
C776 C775 1.362 . S
C776 C777 1.366 . S
C777 C774 1.365 . S
C777 C776 1.366 . S
C777 H791 0.930 . S
C778 C775 1.378 . S
C778 N779 1.315 . S
C778 H781 0.930 . S
N779 Co759 2.194 . S
N779 C774 1.328 . S
N779 C778 1.315 . S
H780 C774 0.929 . S
H781 C778 0.930 . S
H782 C770 0.929 . S
H783 C772 0.929 . S
O784 Co759 2.351 . S
O784 C787 1.244 . S
O785 Co759 2.155 . S
O785 C787 1.240 . S
O786 Co759 2.096 . S
O786 C767 1.247 . S
C787 O784 1.244 . S
C787 O785 1.240 . S
H788 C762 0.931 . S
H789 C771 0.931 . S
H790 C775 0.929 . S
H791 C777 0.930 . S
Co792 N796 2.148 . S
Co792 N802 2.128 . S
Co792 N812 2.194 . S
Co792 O817 2.351 . S
Co792 O818 2.155 . S
Co792 O819 2.096 . S
C793 N796 1.301 . S
C793 N797 1.328 . S
C793 H798 0.930 . S
C794 C795 1.333 . S
C794 N796 1.317 . S
C794 H799 0.930 . S
C795 C794 1.333 . S
C795 N797 1.350 . S
C795 H821 0.931 . S
N796 Co792 2.148 . S
N796 C793 1.301 . S
N796 C794 1.317 . S
N797 C793 1.328 . S
N797 C795 1.350 . S
H798 C793 0.930 . S
H799 C794 0.930 . S
C800 O801 1.224 . S
C800 O819 1.247 . S
O801 C800 1.224 . S
N802 Co792 2.128 . S
N802 C803 1.355 . S
N802 C805 1.311 . S
C803 N802 1.355 . S
C803 C804 1.363 . S
C803 H815 0.929 . S
C804 C803 1.363 . S
C804 N806 1.375 . S
C804 H822 0.931 . S
C805 N802 1.311 . S
C805 N806 1.347 . S
C805 H816 0.929 . S
N806 C804 1.375 . S
N806 C805 1.347 . S
C807 C810 1.365 . S
C807 N812 1.328 . S
C807 H813 0.929 . S
C808 C809 1.362 . S
C808 C811 1.378 . S
C808 H823 0.929 . S
C809 C808 1.362 . S
C809 C810 1.366 . S
C810 C807 1.365 . S
C810 C809 1.366 . S
C810 H824 0.930 . S
C811 C808 1.378 . S
C811 N812 1.315 . S
C811 H814 0.930 . S
N812 Co792 2.194 . S
N812 C807 1.328 . S
N812 C811 1.315 . S
H813 C807 0.929 . S
H814 C811 0.930 . S
H815 C803 0.929 . S
H816 C805 0.929 . S
O817 Co792 2.351 . S
O817 C820 1.244 . S
O818 Co792 2.155 . S
O818 C820 1.240 . S
O819 Co792 2.096 . S
O819 C800 1.247 . S
C820 O817 1.244 . S
C820 O818 1.240 . S
H821 C795 0.931 . S
H822 C804 0.931 . S
H823 C808 0.929 . S
H824 C810 0.930 . S
Co825 N829 2.148 . S
Co825 N835 2.128 . S
Co825 N845 2.194 . S
Co825 O850 2.351 . S
Co825 O851 2.155 . S
Co825 O852 2.096 . S
C826 N829 1.301 . S
C826 N830 1.328 . S
C826 H831 0.930 . S
C827 C828 1.333 . S
C827 N829 1.317 . S
C827 H832 0.930 . S
C828 C827 1.333 . S
C828 N830 1.350 . S
C828 H854 0.931 . S
N829 Co825 2.148 . S
N829 C826 1.301 . S
N829 C827 1.317 . S
N830 C826 1.328 . S
N830 C828 1.350 . S
H831 C826 0.930 . S
H832 C827 0.930 . S
C833 O834 1.224 . S
C833 O852 1.247 . S
O834 C833 1.224 . S
N835 Co825 2.128 . S
N835 C836 1.355 . S
N835 C838 1.311 . S
C836 N835 1.355 . S
C836 C837 1.363 . S
C836 H848 0.929 . S
C837 C836 1.363 . S
C837 N839 1.375 . S
C837 H855 0.931 . S
C838 N835 1.311 . S
C838 N839 1.347 . S
C838 H849 0.929 . S
N839 C837 1.375 . S
N839 C838 1.347 . S
C840 C843 1.365 . S
C840 N845 1.328 . S
C840 H846 0.929 . S
C841 C842 1.362 . S
C841 C844 1.378 . S
C841 H856 0.929 . S
C842 C841 1.362 . S
C842 C843 1.366 . S
C843 C840 1.365 . S
C843 C842 1.366 . S
C843 H857 0.930 . S
C844 C841 1.378 . S
C844 N845 1.315 . S
C844 H847 0.930 . S
N845 Co825 2.194 . S
N845 C840 1.328 . S
N845 C844 1.315 . S
H846 C840 0.929 . S
H847 C844 0.930 . S
H848 C836 0.929 . S
H849 C838 0.929 . S
O850 Co825 2.351 . S
O850 C853 1.244 . S
O851 Co825 2.155 . S
O851 C853 1.240 . S
O852 Co825 2.096 . S
O852 C833 1.247 . S
C853 O850 1.244 . S
C853 O851 1.240 . S
H854 C828 0.931 . S
H855 C837 0.931 . S
H856 C841 0.929 . S
H857 C843 0.930 . S
Co858 N862 2.148 . S
Co858 N868 2.128 . S
Co858 N878 2.194 . S
Co858 O883 2.351 . S
Co858 O884 2.155 . S
Co858 O885 2.096 . S
C859 N862 1.301 . S
C859 N863 1.328 . S
C859 H864 0.930 . S
C860 C861 1.333 . S
C860 N862 1.317 . S
C860 H865 0.930 . S
C861 C860 1.333 . S
C861 N863 1.350 . S
C861 H887 0.931 . S
N862 Co858 2.148 . S
N862 C859 1.301 . S
N862 C860 1.317 . S
N863 C859 1.328 . S
N863 C861 1.350 . S
H864 C859 0.930 . S
H865 C860 0.930 . S
C866 O867 1.224 . S
C866 O885 1.247 . S
O867 C866 1.224 . S
N868 Co858 2.128 . S
N868 C869 1.355 . S
N868 C871 1.311 1_554 S
C869 N868 1.355 . S
C869 C870 1.363 1_554 S
C869 H881 0.929 . S
C870 C869 1.363 1_556 S
C870 N872 1.375 . S
C870 H888 0.931 . S
C871 N868 1.311 1_556 S
C871 N872 1.347 . S
C871 H882 0.929 . S
N872 C870 1.375 . S
N872 C871 1.347 . S
C873 C876 1.365 . S
C873 N878 1.328 . S
C873 H879 0.929 . S
C874 C875 1.362 . S
C874 C877 1.378 . S
C874 H889 0.929 . S
C875 C874 1.362 . S
C875 C876 1.366 . S
C876 C873 1.365 . S
C876 C875 1.366 . S
C876 H890 0.930 . S
C877 C874 1.378 . S
C877 N878 1.315 . S
C877 H880 0.930 . S
N878 Co858 2.194 . S
N878 C873 1.328 . S
N878 C877 1.315 . S
H879 C873 0.929 . S
H880 C877 0.930 . S
H881 C869 0.929 . S
H882 C871 0.929 . S
O883 Co858 2.351 . S
O883 C886 1.244 . S
O884 Co858 2.155 . S
O884 C886 1.240 . S
O885 Co858 2.096 . S
O885 C866 1.247 . S
C886 O883 1.244 . S
C886 O884 1.240 . S
H887 C861 0.931 . S
H888 C870 0.931 . S
H889 C874 0.929 . S
H890 C876 0.930 . S
Co891 N895 2.148 . S
Co891 N901 2.128 . S
Co891 N911 2.194 . S
Co891 O916 2.351 . S
Co891 O917 2.155 . S
Co891 O918 2.096 . S
C892 N895 1.301 . S
C892 N896 1.328 . S
C892 H897 0.930 . S
C893 C894 1.333 . S
C893 N895 1.317 . S
C893 H898 0.930 . S
C894 C893 1.333 . S
C894 N896 1.350 . S
C894 H920 0.931 . S
N895 Co891 2.148 . S
N895 C892 1.301 . S
N895 C893 1.317 . S
N896 C892 1.328 . S
N896 C894 1.350 . S
H897 C892 0.930 . S
H898 C893 0.930 . S
C899 O900 1.224 . S
C899 O918 1.247 . S
O900 C899 1.224 . S
N901 Co891 2.128 . S
N901 C902 1.355 . S
N901 C904 1.311 1_554 S
C902 N901 1.355 . S
C902 C903 1.363 1_554 S
C902 H914 0.929 . S
C903 C902 1.363 1_556 S
C903 N905 1.375 . S
C903 H921 0.931 . S
C904 N901 1.311 1_556 S
C904 N905 1.347 . S
C904 H915 0.929 . S
N905 C903 1.375 . S
N905 C904 1.347 . S
C906 C909 1.365 . S
C906 N911 1.328 . S
C906 H912 0.929 . S
C907 C908 1.362 . S
C907 C910 1.378 . S
C907 H922 0.929 . S
C908 C907 1.362 . S
C908 C909 1.366 . S
C909 C906 1.365 . S
C909 C908 1.366 . S
C909 H923 0.930 . S
C910 C907 1.378 . S
C910 N911 1.315 . S
C910 H913 0.930 . S
N911 Co891 2.194 . S
N911 C906 1.328 . S
N911 C910 1.315 . S
H912 C906 0.929 . S
H913 C910 0.930 . S
H914 C902 0.929 . S
H915 C904 0.929 . S
O916 Co891 2.351 . S
O916 C919 1.244 . S
O917 Co891 2.155 . S
O917 C919 1.240 . S
O918 Co891 2.096 . S
O918 C899 1.247 . S
C919 O916 1.244 . S
C919 O917 1.240 . S
H920 C894 0.931 . S
H921 C903 0.931 . S
H922 C907 0.929 . S
H923 C909 0.930 . S
Co924 N928 2.148 . S
Co924 N934 2.128 . S
Co924 N944 2.194 . S
Co924 O949 2.351 . S
Co924 O950 2.155 . S
Co924 O951 2.096 . S
C925 N928 1.301 . S
C925 N929 1.328 . S
C925 H930 0.930 . S
C926 C927 1.333 . S
C926 N928 1.317 . S
C926 H931 0.930 . S
C927 C926 1.333 . S
C927 N929 1.350 . S
C927 H953 0.931 . S
N928 Co924 2.148 . S
N928 C925 1.301 . S
N928 C926 1.317 . S
N929 C925 1.328 . S
N929 C927 1.350 . S
H930 C925 0.930 . S
H931 C926 0.930 . S
C932 O933 1.224 . S
C932 O951 1.247 . S
O933 C932 1.224 . S
N934 Co924 2.128 . S
N934 C935 1.355 . S
N934 C937 1.311 . S
C935 N934 1.355 . S
C935 C936 1.363 . S
C935 H947 0.929 . S
C936 C935 1.363 . S
C936 N938 1.375 . S
C936 H954 0.931 . S
C937 N934 1.311 . S
C937 N938 1.347 . S
C937 H948 0.929 . S
N938 C936 1.375 . S
N938 C937 1.347 . S
C939 C942 1.365 . S
C939 N944 1.328 . S
C939 H945 0.929 . S
C940 C941 1.362 . S
C940 C943 1.378 . S
C940 H955 0.929 . S
C941 C940 1.362 . S
C941 C942 1.366 . S
C942 C939 1.365 . S
C942 C941 1.366 . S
C942 H956 0.930 . S
C943 C940 1.378 . S
C943 N944 1.315 . S
C943 H946 0.930 . S
N944 Co924 2.194 . S
N944 C939 1.328 . S
N944 C943 1.315 . S
H945 C939 0.929 . S
H946 C943 0.930 . S
H947 C935 0.929 . S
H948 C937 0.929 . S
O949 Co924 2.351 . S
O949 C952 1.244 . S
O950 Co924 2.155 . S
O950 C952 1.240 . S
O951 Co924 2.096 . S
O951 C932 1.247 . S
C952 O949 1.244 . S
C952 O950 1.240 . S
H953 C927 0.931 . S
H954 C936 0.931 . S
H955 C940 0.929 . S
H956 C942 0.930 . S
Co957 N961 2.148 . S
Co957 N967 2.128 . S
Co957 N977 2.194 . S
Co957 O982 2.351 . S
Co957 O983 2.155 . S
Co957 O984 2.096 . S
C958 N961 1.301 . S
C958 N962 1.328 . S
C958 H963 0.930 . S
C959 C960 1.333 . S
C959 N961 1.317 . S
C959 H964 0.930 . S
C960 C959 1.333 . S
C960 N962 1.350 . S
C960 H986 0.931 . S
N961 Co957 2.148 . S
N961 C958 1.301 . S
N961 C959 1.317 . S
N962 C958 1.328 . S
N962 C960 1.350 . S
H963 C958 0.930 . S
H964 C959 0.930 . S
C965 O966 1.224 . S
C965 O984 1.247 . S
O966 C965 1.224 . S
N967 Co957 2.128 . S
N967 C968 1.355 . S
N967 C970 1.311 . S
C968 N967 1.355 . S
C968 C969 1.363 . S
C968 H980 0.929 . S
C969 C968 1.363 . S
C969 N971 1.375 . S
C969 H987 0.931 . S
C970 N967 1.311 . S
C970 N971 1.347 . S
C970 H981 0.929 . S
N971 C969 1.375 . S
N971 C970 1.347 . S
C972 C975 1.365 . S
C972 N977 1.328 . S
C972 H978 0.929 . S
C973 C974 1.362 . S
C973 C976 1.378 . S
C973 H988 0.929 . S
C974 C973 1.362 . S
C974 C975 1.366 . S
C975 C972 1.365 . S
C975 C974 1.366 . S
C975 H989 0.930 . S
C976 C973 1.378 . S
C976 N977 1.315 . S
C976 H979 0.930 . S
N977 Co957 2.194 . S
N977 C972 1.328 . S
N977 C976 1.315 . S
H978 C972 0.929 . S
H979 C976 0.930 . S
H980 C968 0.929 . S
H981 C970 0.929 . S
O982 Co957 2.351 . S
O982 C985 1.244 . S
O983 Co957 2.155 . S
O983 C985 1.240 . S
O984 Co957 2.096 . S
O984 C965 1.247 . S
C985 O982 1.244 . S
C985 O983 1.240 . S
H986 C960 0.931 . S
H987 C969 0.931 . S
H988 C973 0.929 . S
H989 C975 0.930 . S
Co990 N994 2.148 . S
Co990 N1000 2.128 . S
Co990 N1010 2.194 . S
Co990 O1015 2.351 . S
Co990 O1016 2.155 . S
Co990 O1017 2.096 . S
C991 N994 1.301 . S
C991 N995 1.328 . S
C991 H996 0.930 . S
C992 C993 1.333 . S
C992 N994 1.317 . S
C992 H997 0.930 . S
C993 C992 1.333 . S
C993 N995 1.350 . S
C993 H1019 0.931 . S
N994 Co990 2.148 . S
N994 C991 1.301 . S
N994 C992 1.317 . S
N995 C991 1.328 . S
N995 C993 1.350 . S
H996 C991 0.930 . S
H997 C992 0.930 . S
C998 O999 1.224 . S
C998 O1017 1.247 . S
O999 C998 1.224 . S
N1000 Co990 2.128 . S
N1000 C1001 1.355 . S
N1000 C1003 1.311 1_556 S
C1001 N1000 1.355 . S
C1001 C1002 1.363 1_556 S
C1001 H1013 0.929 . S
C1002 C1001 1.363 1_554 S
C1002 N1004 1.375 . S
C1002 H1020 0.931 . S
C1003 N1000 1.311 1_554 S
C1003 N1004 1.347 . S
C1003 H1014 0.929 . S
N1004 C1002 1.375 . S
N1004 C1003 1.347 . S
C1005 C1008 1.365 . S
C1005 N1010 1.328 . S
C1005 H1011 0.929 . S
C1006 C1007 1.362 . S
C1006 C1009 1.378 . S
C1006 H1021 0.929 . S
C1007 C1006 1.362 . S
C1007 C1008 1.366 . S
C1008 C1005 1.365 . S
C1008 C1007 1.366 . S
C1008 H1022 0.930 . S
C1009 C1006 1.378 . S
C1009 N1010 1.315 . S
C1009 H1012 0.930 . S
N1010 Co990 2.194 . S
N1010 C1005 1.328 . S
N1010 C1009 1.315 . S
H1011 C1005 0.929 . S
H1012 C1009 0.930 . S
H1013 C1001 0.929 . S
H1014 C1003 0.929 . S
O1015 Co990 2.351 . S
O1015 C1018 1.244 . S
O1016 Co990 2.155 . S
O1016 C1018 1.240 . S
O1017 Co990 2.096 . S
O1017 C998 1.247 . S
C1018 O1015 1.244 . S
C1018 O1016 1.240 . S
H1019 C993 0.931 . S
H1020 C1002 0.931 . S
H1021 C1006 0.929 . S
H1022 C1008 0.930 . S
Co1023 N1027 2.148 . S
Co1023 N1033 2.128 . S
Co1023 N1043 2.194 . S
Co1023 O1048 2.351 . S
Co1023 O1049 2.155 . S
Co1023 O1050 2.096 . S
C1024 N1027 1.301 . S
C1024 N1028 1.328 . S
C1024 H1029 0.930 . S
C1025 C1026 1.333 . S
C1025 N1027 1.317 . S
C1025 H1030 0.930 . S
C1026 C1025 1.333 . S
C1026 N1028 1.350 . S
C1026 H1052 0.931 . S
N1027 Co1023 2.148 . S
N1027 C1024 1.301 . S
N1027 C1025 1.317 . S
N1028 C1024 1.328 . S
N1028 C1026 1.350 . S
H1029 C1024 0.930 . S
H1030 C1025 0.930 . S
C1031 O1032 1.224 . S
C1031 O1050 1.247 . S
O1032 C1031 1.224 . S
N1033 Co1023 2.128 . S
N1033 C1034 1.355 . S
N1033 C1036 1.311 1_556 S
C1034 N1033 1.355 . S
C1034 C1035 1.363 1_556 S
C1034 H1046 0.929 . S
C1035 C1034 1.363 1_554 S
C1035 N1037 1.375 . S
C1035 H1053 0.931 . S
C1036 N1033 1.311 1_554 S
C1036 N1037 1.347 . S
C1036 H1047 0.929 . S
N1037 C1035 1.375 . S
N1037 C1036 1.347 . S
C1038 C1041 1.365 . S
C1038 N1043 1.328 . S
C1038 H1044 0.929 . S
C1039 C1040 1.362 . S
C1039 C1042 1.378 . S
C1039 H1054 0.929 . S
C1040 C1039 1.362 . S
C1040 C1041 1.366 . S
C1041 C1038 1.365 . S
C1041 C1040 1.366 . S
C1041 H1055 0.930 . S
C1042 C1039 1.378 . S
C1042 N1043 1.315 . S
C1042 H1045 0.930 . S
N1043 Co1023 2.194 . S
N1043 C1038 1.328 . S
N1043 C1042 1.315 . S
H1044 C1038 0.929 . S
H1045 C1042 0.930 . S
H1046 C1034 0.929 . S
H1047 C1036 0.929 . S
O1048 Co1023 2.351 . S
O1048 C1051 1.244 . S
O1049 Co1023 2.155 . S
O1049 C1051 1.240 . S
O1050 Co1023 2.096 . S
O1050 C1031 1.247 . S
C1051 O1048 1.244 . S
C1051 O1049 1.240 . S
H1052 C1026 0.931 . S
H1053 C1035 0.931 . S
H1054 C1039 0.929 . S
H1055 C1041 0.930 . S
H1056 C1068 0.930 . S
H1057 C1070 0.958 . S
H1058 C1071 0.930 . S
H1059 C1075 0.959 . S
H1060 C1075 0.959 . S
H1061 C1075 0.961 . S
H1062 C1076 0.960 . S
H1063 C1076 0.961 . S
H1064 C1076 0.959 . S
H1065 C1079 0.929 1_556 S
H1066 C1080 0.931 . S
H1067 C1082 0.990 . S
C1068 H1056 0.930 . S
C1068 C1069 1.399 . S
C1068 C1073 1.399 1_556 S
C1069 C1068 1.399 . S
C1069 C1070 1.320 1_565 S
C1070 H1057 0.958 . S
C1070 C1069 1.320 1_545 S
C1070 C1071 1.421 . S
C1071 H1058 0.930 . S
C1071 C1070 1.421 . S
C1071 C1072 1.390 . S
C1072 C1071 1.390 . S
C1072 C1073 1.394 1_546 S
C1072 C1078 1.465 1_556 S
C1073 C1068 1.399 1_554 S
C1073 C1072 1.394 1_564 S
C1073 C1074 1.516 . S
C1074 C1073 1.516 . S
C1074 C1075 1.502 . S
C1074 C1076 1.561 . S
C1074 C1077 1.526 . S
C1075 H1059 0.959 . S
C1075 H1060 0.959 . S
C1075 H1061 0.961 . S
C1075 C1074 1.502 . S
C1076 H1062 0.960 . S
C1076 H1063 0.961 . S
C1076 H1064 0.959 . S
C1076 C1074 1.561 . S
C1077 C1074 1.526 . S
C1077 C1078 1.396 1_565 S
C1077 C1082 1.406 . S
C1078 C1072 1.465 1_554 S
C1078 C1077 1.396 1_545 S
C1078 C1079 1.399 . S
C1079 H1065 0.929 1_554 S
C1079 C1078 1.399 . S
C1079 C1080 1.385 . S
C1080 H1066 0.931 . S
C1080 C1079 1.385 . S
C1080 C1081 1.389 . S
C1081 C1080 1.389 . S
C1081 C1082 1.315 1_545 S
C1082 H1067 0.990 . S
C1082 C1077 1.406 . S
C1082 C1081 1.315 1_565 S
H1083 C1095 0.930 . S
H1084 C1097 0.930 . S
H1085 C1098 0.920 1_655 S
H1086 C1102 0.959 1_455 S
H1087 C1102 0.959 . S
H1088 C1102 0.961 1_455 S
H1089 C1103 0.960 . S
H1090 C1103 0.961 . S
H1091 C1103 0.959 . S
H1092 C1106 0.929 1_556 S
H1093 C1107 0.931 . S
H1094 C1109 0.930 . S
C1095 H1083 0.930 . S
C1095 C1096 1.399 . S
C1095 C1100 1.399 1_456 S
C1096 C1095 1.399 . S
C1096 C1097 1.376 . S
C1097 H1084 0.930 . S
C1097 C1096 1.376 . S
C1097 C1098 1.413 . S
C1098 H1085 0.920 1_455 S
C1098 C1097 1.413 . S
C1098 C1099 1.377 1_455 S
C1099 C1098 1.377 1_655 S
C1099 C1100 1.394 1_556 S
C1099 C1105 1.465 1_556 S
C1100 C1095 1.399 1_654 S
C1100 C1099 1.394 1_554 S
C1100 C1101 1.516 . S
C1101 C1100 1.516 . S
C1101 C1102 1.502 . S
C1101 C1103 1.561 . S
C1101 C1104 1.526 . S
C1102 H1086 0.959 1_655 S
C1102 H1087 0.959 . S
C1102 H1088 0.961 1_655 S
C1102 C1101 1.502 . S
C1103 H1089 0.960 . S
C1103 H1090 0.961 . S
C1103 H1091 0.959 . S
C1103 C1101 1.561 . S
C1104 C1101 1.526 . S
C1104 C1105 1.396 . S
C1104 C1109 1.390 . S
C1105 C1099 1.465 1_554 S
C1105 C1104 1.396 . S
C1105 C1106 1.399 . S
C1106 H1092 0.929 1_554 S
C1106 C1105 1.399 . S
C1106 C1107 1.385 . S
C1107 H1093 0.931 . S
C1107 C1106 1.385 . S
C1107 C1108 1.389 . S
C1108 C1107 1.389 . S
C1108 C1109 1.387 . S
C1109 H1094 0.930 . S
C1109 C1104 1.390 . S
C1109 C1108 1.387 . S
H1110 C1122 0.930 . S
H1111 C1124 0.930 . S
H1112 C1125 0.930 . S
H1113 C1129 0.959 . S
H1114 C1129 0.959 . S
H1115 C1129 0.961 . S
H1116 C1130 0.960 . S
H1117 C1130 0.961 . S
H1118 C1130 0.959 . S
H1119 C1133 0.929 . S
H1120 C1134 0.931 . S
H1121 C1136 0.930 . S
C1122 H1110 0.930 . S
C1122 C1123 1.399 . S
C1122 C1127 1.399 . S
C1123 C1122 1.399 . S
C1123 C1124 1.376 . S
C1124 H1111 0.930 . S
C1124 C1123 1.376 . S
C1124 C1125 1.388 . S
C1125 H1112 0.930 . S
C1125 C1124 1.388 . S
C1125 C1126 1.390 . S
C1126 C1125 1.390 . S
C1126 C1127 1.394 . S
C1126 C1132 1.465 . S
C1127 C1122 1.399 . S
C1127 C1126 1.394 . S
C1127 C1128 1.516 . S
C1128 C1127 1.516 . S
C1128 C1129 1.502 . S
C1128 C1130 1.561 . S
C1128 C1131 1.526 . S
C1129 H1113 0.959 . S
C1129 H1114 0.959 . S
C1129 H1115 0.961 . S
C1129 C1128 1.502 . S
C1130 H1116 0.960 . S
C1130 H1117 0.961 . S
C1130 H1118 0.959 . S
C1130 C1128 1.561 . S
C1131 C1128 1.526 . S
C1131 C1132 1.396 . S
C1131 C1136 1.390 . S
C1132 C1126 1.465 . S
C1132 C1131 1.396 . S
C1132 C1133 1.399 . S
C1133 H1119 0.929 . S
C1133 C1132 1.399 . S
C1133 C1134 1.385 . S
C1134 H1120 0.931 . S
C1134 C1133 1.385 . S
C1134 C1135 1.389 . S
C1135 C1134 1.389 . S
C1135 C1136 1.387 . S
C1136 H1121 0.930 . S
C1136 C1131 1.390 . S
C1136 C1135 1.387 . S
H1137 C1149 0.930 . S
H1138 C1151 0.930 . S
H1139 C1152 0.930 . S
H1140 C1156 0.959 1_545 S
H1141 C1156 0.959 . S
H1142 C1156 0.961 . S
H1143 C1157 0.960 . S
H1144 C1157 0.961 . S
H1145 C1157 0.959 . S
H1146 C1160 0.929 1_545 S
H1147 C1161 0.931 . S
H1148 C1163 0.916 1_655 S
C1149 H1137 0.930 . S
C1149 C1150 1.399 . S
C1149 C1154 1.385 1_545 S
C1150 C1149 1.399 . S
C1150 C1151 1.376 . S
C1151 H1138 0.930 . S
C1151 C1150 1.376 . S
C1151 C1152 1.388 . S
C1152 H1139 0.930 . S
C1152 C1151 1.388 . S
C1152 C1153 1.390 . S
C1153 C1152 1.390 . S
C1153 C1154 1.384 1_545 S
C1153 C1159 1.465 1_645 S
C1154 C1149 1.385 1_565 S
C1154 C1153 1.384 1_565 S
C1154 C1155 1.544 . S
C1155 C1154 1.544 . S
C1155 C1156 1.502 . S
C1155 C1157 1.561 . S
C1155 C1158 1.526 . S
C1156 H1140 0.959 1_565 S
C1156 H1141 0.959 . S
C1156 H1142 0.961 . S
C1156 C1155 1.502 . S
C1157 H1143 0.960 . S
C1157 H1144 0.961 . S
C1157 H1145 0.959 . S
C1157 C1155 1.561 . S
C1158 C1155 1.526 . S
C1158 C1159 1.396 1_655 S
C1158 C1163 1.390 1_655 S
C1159 C1153 1.465 1_465 S
C1159 C1158 1.396 1_455 S
C1159 C1160 1.399 . S
C1160 H1146 0.929 1_565 S
C1160 C1159 1.399 . S
C1160 C1161 1.385 . S
C1161 H1147 0.931 . S
C1161 C1160 1.385 . S
C1161 C1162 1.389 . S
C1162 C1161 1.389 . S
C1162 C1163 1.387 . S
C1163 H1148 0.916 1_455 S
C1163 C1158 1.390 1_455 S
C1163 C1162 1.387 . S
H1164 C1176 0.930 . S
H1165 C1178 0.930 . S
H1166 C1179 0.930 . S
H1167 C1183 0.959 . S
H1168 C1183 0.959 . S
H1169 C1183 0.975 . S
H1170 C1184 0.960 . S
H1171 C1184 0.961 . S
H1172 C1184 0.959 . S
H1173 C1187 0.928 1_556 S
H1174 C1188 0.931 . S
H1175 C1190 0.873 1_565 S
C1176 H1164 0.930 . S
C1176 C1177 1.399 . S
C1176 C1181 1.399 . S
C1177 C1176 1.399 . S
C1177 C1178 1.376 1_565 S
C1178 H1165 0.930 . S
C1178 C1177 1.376 1_545 S
C1178 C1179 1.388 . S
C1179 H1166 0.930 . S
C1179 C1178 1.388 . S
C1179 C1180 1.390 . S
C1180 C1179 1.390 . S
C1180 C1181 1.394 1_545 S
C1180 C1186 1.465 . S
C1181 C1176 1.399 . S
C1181 C1180 1.394 1_565 S
C1181 C1182 1.516 . S
C1182 C1181 1.516 . S
C1182 C1183 1.502 1_556 S
C1182 C1184 1.561 . S
C1182 C1185 1.596 1_556 S
C1183 H1167 0.959 . S
C1183 H1168 0.959 . S
C1183 H1169 0.975 . S
C1183 C1182 1.502 1_554 S
C1184 H1170 0.960 . S
C1184 H1171 0.961 . S
C1184 H1172 0.959 . S
C1184 C1182 1.561 . S
C1185 C1182 1.596 1_554 S
C1185 C1186 1.332 1_564 S
C1185 C1190 1.379 1_565 S
C1186 C1180 1.465 . S
C1186 C1185 1.332 1_546 S
C1186 C1187 1.397 1_556 S
C1187 H1173 0.928 1_554 S
C1187 C1186 1.397 1_554 S
C1187 C1188 1.388 . S
C1188 H1174 0.931 . S
C1188 C1187 1.388 . S
C1188 C1189 1.389 . S
C1189 C1188 1.389 . S
C1189 C1190 1.455 . S
C1190 H1175 0.873 1_545 S
C1190 C1185 1.379 1_545 S
C1190 C1189 1.455 . S
H1191 C1203 0.930 . S
H1192 C1205 0.930 . S
H1193 C1206 0.930 . S
H1194 C1210 0.959 . S
H1195 C1210 0.959 . S
H1196 C1210 0.961 . S
H1197 C1211 0.960 1_655 S
H1198 C1211 0.961 1_556 S
H1199 C1211 0.959 . S
H1200 C1214 0.929 . S
H1201 C1215 0.931 . S
H1202 C1217 0.930 . S
C1203 H1191 0.930 . S
C1203 C1204 1.399 . S
C1203 C1208 1.399 . S
C1204 C1203 1.399 . S
C1204 C1205 1.376 . S
C1205 H1192 0.930 . S
C1205 C1204 1.376 . S
C1205 C1206 1.388 1_655 S
C1206 H1193 0.930 . S
C1206 C1205 1.388 1_455 S
C1206 C1207 1.384 1_554 S
C1207 C1206 1.384 1_556 S
C1207 C1208 1.393 1_456 S
C1207 C1213 1.473 . S
C1208 C1203 1.399 . S
C1208 C1207 1.393 1_654 S
C1208 C1209 1.516 1_654 S
C1209 C1208 1.516 1_456 S
C1209 C1210 1.502 1_455 S
C1209 C1211 1.561 1_556 S
C1209 C1212 1.526 . S
C1210 H1194 0.959 . S
C1210 H1195 0.959 . S
C1210 H1196 0.961 . S
C1210 C1209 1.502 1_655 S
C1211 H1197 0.960 1_455 S
C1211 H1198 0.961 1_554 S
C1211 H1199 0.959 . S
C1211 C1209 1.561 1_554 S
C1212 C1209 1.526 . S
C1212 C1213 1.396 . S
C1212 C1217 1.390 . S
C1213 C1207 1.473 . S
C1213 C1212 1.396 . S
C1213 C1214 1.399 . S
C1214 H1200 0.929 . S
C1214 C1213 1.399 . S
C1214 C1215 1.385 . S
C1215 H1201 0.931 . S
C1215 C1214 1.385 . S
C1215 C1216 1.389 . S
C1216 C1215 1.389 . S
C1216 C1217 1.387 . S
C1217 H1202 0.930 . S
C1217 C1212 1.390 . S
C1217 C1216 1.387 . S
H1218 C1230 0.930 . S
H1219 C1232 0.930 . S
H1220 C1233 0.930 . S
H1221 C1237 0.959 . S
H1222 C1237 0.959 . S
H1223 C1237 0.961 . S
H1224 C1238 0.960 . S
H1225 C1238 0.961 . S
H1226 C1238 0.959 . S
H1227 C1241 0.929 . S
H1228 C1242 0.931 . S
H1229 C1244 0.930 . S
C1230 H1218 0.930 . S
C1230 C1231 1.399 . S
C1230 C1235 1.399 . S
C1231 C1230 1.399 . S
C1231 C1232 1.376 . S
C1232 H1219 0.930 . S
C1232 C1231 1.376 . S
C1232 C1233 1.388 . S
C1233 H1220 0.930 . S
C1233 C1232 1.388 . S
C1233 C1234 1.390 . S
C1234 C1233 1.390 . S
C1234 C1235 1.394 . S
C1234 C1240 1.465 . S
C1235 C1230 1.399 . S
C1235 C1234 1.394 . S
C1235 C1236 1.516 . S
C1236 C1235 1.516 . S
C1236 C1237 1.502 . S
C1236 C1238 1.561 . S
C1236 C1239 1.526 . S
C1237 H1221 0.959 . S
C1237 H1222 0.959 . S
C1237 H1223 0.961 . S
C1237 C1236 1.502 . S
C1238 H1224 0.960 . S
C1238 H1225 0.961 . S
C1238 H1226 0.959 . S
C1238 C1236 1.561 . S
C1239 C1236 1.526 . S
C1239 C1240 1.396 . S
C1239 C1244 1.390 . S
C1240 C1234 1.465 . S
C1240 C1239 1.396 . S
C1240 C1241 1.399 . S
C1241 H1227 0.929 . S
C1241 C1240 1.399 . S
C1241 C1242 1.385 . S
C1242 H1228 0.931 . S
C1242 C1241 1.385 . S
C1242 C1243 1.389 . S
C1243 C1242 1.389 . S
C1243 C1244 1.387 . S
C1244 H1229 0.930 . S
C1244 C1239 1.390 . S
C1244 C1243 1.387 . S
H1245 C1257 0.896 1_545 S
H1246 C1259 0.930 . S
H1247 C1260 0.930 . S
H1248 C1264 0.959 . S
H1249 C1264 0.959 . S
H1250 C1264 0.966 . S
H1251 C1265 0.960 . S
H1252 C1265 0.961 . S
H1253 C1265 0.959 . S
H1254 C1268 0.929 . S
H1255 C1269 0.929 1_565 S
H1256 C1271 0.930 . S
C1257 H1245 0.896 1_565 S
C1257 C1258 1.456 . S
C1257 C1262 1.383 1_565 S
C1258 C1257 1.456 . S
C1258 C1259 1.376 . S
C1259 H1246 0.930 . S
C1259 C1258 1.376 . S
C1259 C1260 1.388 . S
C1260 H1247 0.930 . S
C1260 C1259 1.388 . S
C1260 C1261 1.390 . S
C1261 C1260 1.390 . S
C1261 C1262 1.394 1_565 S
C1261 C1267 1.461 1_565 S
C1262 C1257 1.383 1_545 S
C1262 C1261 1.394 1_545 S
C1262 C1263 1.516 . S
C1263 C1262 1.516 . S
C1263 C1264 1.502 1_455 S
C1263 C1265 1.561 . S
C1263 C1266 1.526 1_455 S
C1264 H1248 0.959 . S
C1264 H1249 0.959 . S
C1264 H1250 0.966 . S
C1264 C1263 1.502 1_655 S
C1265 H1251 0.960 . S
C1265 H1252 0.961 . S
C1265 H1253 0.959 . S
C1265 C1263 1.561 . S
C1266 C1263 1.526 1_655 S
C1266 C1267 1.406 1_655 S
C1266 C1271 1.390 . S
C1267 C1261 1.461 1_545 S
C1267 C1266 1.406 1_455 S
C1267 C1268 1.395 1_545 S
C1268 H1254 0.929 . S
C1268 C1267 1.395 1_565 S
C1268 C1269 1.385 1_465 S
C1269 H1255 0.929 1_545 S
C1269 C1268 1.385 1_645 S
C1269 C1270 1.389 . S
C1270 C1269 1.389 . S
C1270 C1271 1.387 . S
C1271 H1256 0.930 . S
C1271 C1266 1.390 . S
C1271 C1270 1.387 . S
H1272 C1284 0.930 . S
H1273 C1286 0.930 . S
H1274 C1287 0.930 . S
H1275 C1291 0.959 . S
H1276 C1291 0.959 . S
H1277 C1291 0.961 . S
H1278 C1292 0.960 . S
H1279 C1292 0.961 . S
H1280 C1292 0.959 . S
H1281 C1295 0.929 . S
H1282 C1296 0.931 . S
H1283 C1298 0.930 . S
C1284 H1272 0.930 . S
C1284 C1285 1.399 . S
C1284 C1289 1.399 . S
C1285 C1284 1.399 . S
C1285 C1286 1.376 . S
C1286 H1273 0.930 . S
C1286 C1285 1.376 . S
C1286 C1287 1.388 . S
C1287 H1274 0.930 . S
C1287 C1286 1.388 . S
C1287 C1288 1.390 . S
C1288 C1287 1.390 . S
C1288 C1289 1.394 . S
C1288 C1294 1.465 . S
C1289 C1284 1.399 . S
C1289 C1288 1.394 . S
C1289 C1290 1.516 . S
C1290 C1289 1.516 . S
C1290 C1291 1.502 . S
C1290 C1292 1.561 . S
C1290 C1293 1.526 . S
C1291 H1275 0.959 . S
C1291 H1276 0.959 . S
C1291 H1277 0.961 . S
C1291 C1290 1.502 . S
C1292 H1278 0.960 . S
C1292 H1279 0.961 . S
C1292 H1280 0.959 . S
C1292 C1290 1.561 . S
C1293 C1290 1.526 . S
C1293 C1294 1.396 . S
C1293 C1298 1.390 . S
C1294 C1288 1.465 . S
C1294 C1293 1.396 . S
C1294 C1295 1.399 . S
C1295 H1281 0.929 . S
C1295 C1294 1.399 . S
C1295 C1296 1.385 . S
C1296 H1282 0.931 . S
C1296 C1295 1.385 . S
C1296 C1297 1.389 . S
C1297 C1296 1.389 . S
C1297 C1298 1.387 . S
C1298 H1283 0.930 . S
C1298 C1293 1.390 . S
C1298 C1297 1.387 . S
H1299 C1311 0.930 . S
H1300 C1313 0.930 . S
H1301 C1314 0.930 . S
H1302 C1318 0.980 . S
H1303 C1318 0.959 . S
H1304 C1318 0.961 . S
H1305 C1319 0.960 . S
H1306 C1319 0.961 . S
H1307 C1319 0.959 . S
H1308 C1322 0.929 . S
H1309 C1323 0.931 . S
H1310 C1325 0.930 . S
C1311 H1299 0.930 . S
C1311 C1312 1.399 . S
C1311 C1316 1.399 . S
C1312 C1311 1.399 . S
C1312 C1313 1.376 . S
C1313 H1300 0.930 . S
C1313 C1312 1.376 . S
C1313 C1314 1.388 1_455 S
C1314 H1301 0.930 . S
C1314 C1313 1.388 1_655 S
C1314 C1315 1.390 . S
C1315 C1314 1.390 . S
C1315 C1316 1.394 1_655 S
C1315 C1321 1.465 . S
C1316 C1311 1.399 . S
C1316 C1315 1.394 1_455 S
C1316 C1317 1.516 . S
C1317 C1316 1.516 . S
C1317 C1318 1.502 . S
C1317 C1319 1.561 . S
C1317 C1320 1.526 1_455 S
C1318 H1302 0.980 . S
C1318 H1303 0.959 . S
C1318 H1304 0.961 . S
C1318 C1317 1.502 . S
C1319 H1305 0.960 . S
C1319 H1306 0.961 . S
C1319 H1307 0.959 . S
C1319 C1317 1.561 . S
C1320 C1317 1.526 1_655 S
C1320 C1321 1.396 . S
C1320 C1325 1.390 . S
C1321 C1315 1.465 . S
C1321 C1320 1.396 . S
C1321 C1322 1.399 . S
C1322 H1308 0.929 . S
C1322 C1321 1.399 . S
C1322 C1323 1.385 . S
C1323 H1309 0.931 . S
C1323 C1322 1.385 . S
C1323 C1324 1.389 . S
C1324 C1323 1.389 . S
C1324 C1325 1.387 . S
C1325 H1310 0.930 . S
C1325 C1320 1.390 . S
C1325 C1324 1.387 . S
H1326 C1338 0.930 . S
H1327 C1340 0.930 . S
H1328 C1341 0.930 . S
H1329 C1345 0.959 . S
H1330 C1345 0.959 . S
H1331 C1345 0.961 . S
H1332 C1346 0.960 . S
H1333 C1346 0.961 . S
H1334 C1346 0.959 . S
H1335 C1349 0.929 . S
H1336 C1350 0.931 . S
H1337 C1352 0.930 . S
C1338 H1326 0.930 . S
C1338 C1339 1.399 . S
C1338 C1343 1.399 . S
C1339 C1338 1.399 . S
C1339 C1340 1.376 . S
C1340 H1327 0.930 . S
C1340 C1339 1.376 . S
C1340 C1341 1.388 . S
C1341 H1328 0.930 . S
C1341 C1340 1.388 . S
C1341 C1342 1.390 . S
C1342 C1341 1.390 . S
C1342 C1343 1.394 . S
C1342 C1348 1.465 . S
C1343 C1338 1.399 . S
C1343 C1342 1.394 . S
C1343 C1344 1.516 . S
C1344 C1343 1.516 . S
C1344 C1345 1.502 . S
C1344 C1346 1.561 . S
C1344 C1347 1.526 . S
C1345 H1329 0.959 . S
C1345 H1330 0.959 . S
C1345 H1331 0.961 . S
C1345 C1344 1.502 . S
C1346 H1332 0.960 . S
C1346 H1333 0.961 . S
C1346 H1334 0.959 . S
C1346 C1344 1.561 . S
C1347 C1344 1.526 . S
C1347 C1348 1.396 . S
C1347 C1352 1.390 . S
C1348 C1342 1.465 . S
C1348 C1347 1.396 . S
C1348 C1349 1.399 . S
C1349 H1335 0.929 . S
C1349 C1348 1.399 . S
C1349 C1350 1.385 . S
C1350 H1336 0.931 . S
C1350 C1349 1.385 . S
C1350 C1351 1.389 . S
C1351 C1350 1.389 . S
C1351 C1352 1.387 . S
C1352 H1337 0.930 . S
C1352 C1347 1.390 . S
C1352 C1351 1.387 . S
H1353 C1365 0.930 . S
H1354 C1367 0.930 . S
H1355 C1368 0.930 . S
H1356 C1372 0.959 . S
H1357 C1372 0.959 . S
H1358 C1372 0.961 . S
H1359 C1373 0.960 . S
H1360 C1373 0.961 . S
H1361 C1373 0.959 . S
H1362 C1376 0.929 . S
H1363 C1377 0.931 . S
H1364 C1379 0.930 . S
C1365 H1353 0.930 . S
C1365 C1366 1.399 . S
C1365 C1370 1.399 . S
C1366 C1365 1.399 . S
C1366 C1367 1.376 . S
C1367 H1354 0.930 . S
C1367 C1366 1.376 . S
C1367 C1368 1.388 . S
C1368 H1355 0.930 . S
C1368 C1367 1.388 . S
C1368 C1369 1.390 . S
C1369 C1368 1.390 . S
C1369 C1370 1.394 . S
C1369 C1375 1.465 . S
C1370 C1365 1.399 . S
C1370 C1369 1.394 . S
C1370 C1371 1.516 . S
C1371 C1370 1.516 . S
C1371 C1372 1.502 . S
C1371 C1373 1.561 . S
C1371 C1374 1.526 . S
C1372 H1356 0.959 . S
C1372 H1357 0.959 . S
C1372 H1358 0.961 . S
C1372 C1371 1.502 . S
C1373 H1359 0.960 . S
C1373 H1360 0.961 . S
C1373 H1361 0.959 . S
C1373 C1371 1.561 . S
C1374 C1371 1.526 . S
C1374 C1375 1.396 . S
C1374 C1379 1.390 1_655 S
C1375 C1369 1.465 . S
C1375 C1374 1.396 . S
C1375 C1376 1.399 1_655 S
C1376 H1362 0.929 . S
C1376 C1375 1.399 1_455 S
C1376 C1377 1.385 . S
C1377 H1363 0.931 . S
C1377 C1376 1.385 . S
C1377 C1378 1.389 . S
C1378 C1377 1.389 . S
C1378 C1379 1.387 . S
C1379 H1364 0.930 . S
C1379 C1374 1.390 1_455 S
C1379 C1378 1.387 . S
H1380 C1392 0.930 . S
H1381 C1394 0.930 . S
H1382 C1395 0.930 . S
H1383 C1399 0.959 . S
H1384 C1399 0.959 . S
H1385 C1399 0.961 . S
H1386 C1400 0.960 . S
H1387 C1400 0.961 . S
H1388 C1400 0.959 . S
H1389 C1403 0.929 . S
H1390 C1404 0.931 . S
H1391 C1406 0.930 . S
C1392 H1380 0.930 . S
C1392 C1393 1.399 . S
C1392 C1397 1.399 . S
C1393 C1392 1.399 . S
C1393 C1394 1.376 . S
C1394 H1381 0.930 . S
C1394 C1393 1.376 . S
C1394 C1395 1.388 . S
C1395 H1382 0.930 . S
C1395 C1394 1.388 . S
C1395 C1396 1.390 . S
C1396 C1395 1.390 . S
C1396 C1397 1.394 . S
C1396 C1402 1.465 . S
C1397 C1392 1.399 . S
C1397 C1396 1.394 . S
C1397 C1398 1.516 . S
C1398 C1397 1.516 . S
C1398 C1399 1.502 . S
C1398 C1400 1.561 . S
C1398 C1401 1.526 . S
C1399 H1383 0.959 . S
C1399 H1384 0.959 . S
C1399 H1385 0.961 . S
C1399 C1398 1.502 . S
C1400 H1386 0.960 . S
C1400 H1387 0.961 . S
C1400 H1388 0.959 . S
C1400 C1398 1.561 . S
C1401 C1398 1.526 . S
C1401 C1402 1.396 . S
C1401 C1406 1.390 . S
C1402 C1396 1.465 . S
C1402 C1401 1.396 . S
C1402 C1403 1.399 . S
C1403 H1389 0.929 . S
C1403 C1402 1.399 . S
C1403 C1404 1.385 . S
C1404 H1390 0.931 . S
C1404 C1403 1.385 . S
C1404 C1405 1.389 . S
C1405 C1404 1.389 . S
C1405 C1406 1.387 . S
C1406 H1391 0.930 . S
C1406 C1401 1.390 . S
C1406 C1405 1.387 . S
H1407 C1419 0.930 . S
H1408 C1421 0.930 . S
H1409 C1422 0.930 . S
H1410 C1426 0.959 . S
H1411 C1426 0.959 . S
H1412 C1426 0.961 . S
H1413 C1427 0.951 1_455 S
H1414 C1427 0.970 . S
H1415 C1427 0.968 . S
H1416 C1430 0.929 . S
H1417 C1431 0.931 . S
H1418 C1433 0.930 . S
C1419 H1407 0.930 . S
C1419 C1420 1.399 . S
C1419 C1424 1.399 . S
C1420 C1419 1.399 . S
C1420 C1421 1.376 . S
C1421 H1408 0.930 . S
C1421 C1420 1.376 . S
C1421 C1422 1.388 . S
C1422 H1409 0.930 . S
C1422 C1421 1.388 . S
C1422 C1423 1.390 . S
C1423 C1422 1.390 . S
C1423 C1424 1.394 . S
C1423 C1429 1.465 . S
C1424 C1419 1.399 . S
C1424 C1423 1.394 . S
C1424 C1425 1.516 . S
C1425 C1424 1.516 . S
C1425 C1426 1.502 . S
C1425 C1427 1.552 1_455 S
C1425 C1428 1.533 . S
C1426 H1410 0.959 . S
C1426 H1411 0.959 . S
C1426 H1412 0.961 . S
C1426 C1425 1.502 . S
C1427 H1413 0.951 1_655 S
C1427 H1414 0.970 . S
C1427 H1415 0.968 . S
C1427 C1425 1.552 1_655 S
C1428 C1425 1.533 . S
C1428 C1429 1.399 . S
C1428 C1433 1.380 1_455 S
C1429 C1423 1.465 . S
C1429 C1428 1.399 . S
C1429 C1430 1.399 1_455 S
C1430 H1416 0.929 . S
C1430 C1429 1.399 1_655 S
C1430 C1431 1.385 . S
C1431 H1417 0.931 . S
C1431 C1430 1.385 . S
C1431 C1432 1.389 . S
C1432 C1431 1.389 . S
C1432 C1433 1.387 . S
C1433 H1418 0.930 . S
C1433 C1428 1.380 1_655 S
C1433 C1432 1.387 . S
H1434 C1446 0.930 . S
H1435 C1448 0.930 . S
H1436 C1449 0.930 . S
H1437 C1453 0.959 . S
H1438 C1453 0.959 . S
H1439 C1453 0.961 . S
H1440 C1454 0.960 . S
H1441 C1454 0.961 . S
H1442 C1454 0.959 . S
H1443 C1457 0.929 . S
H1444 C1458 0.931 . S
H1445 C1460 0.930 . S
C1446 H1434 0.930 . S
C1446 C1447 1.399 . S
C1446 C1451 1.399 . S
C1447 C1446 1.399 . S
C1447 C1448 1.376 . S
C1448 H1435 0.930 . S
C1448 C1447 1.376 . S
C1448 C1449 1.388 . S
C1449 H1436 0.930 . S
C1449 C1448 1.388 . S
C1449 C1450 1.390 . S
C1450 C1449 1.390 . S
C1450 C1451 1.394 . S
C1450 C1456 1.465 . S
C1451 C1446 1.399 . S
C1451 C1450 1.394 . S
C1451 C1452 1.516 . S
C1452 C1451 1.516 . S
C1452 C1453 1.502 . S
C1452 C1454 1.561 . S
C1452 C1455 1.526 . S
C1453 H1437 0.959 . S
C1453 H1438 0.959 . S
C1453 H1439 0.961 . S
C1453 C1452 1.502 . S
C1454 H1440 0.960 . S
C1454 H1441 0.961 . S
C1454 H1442 0.959 . S
C1454 C1452 1.561 . S
C1455 C1452 1.526 . S
C1455 C1456 1.396 . S
C1455 C1460 1.390 . S
C1456 C1450 1.465 . S
C1456 C1455 1.396 . S
C1456 C1457 1.399 . S
C1457 H1443 0.929 . S
C1457 C1456 1.399 . S
C1457 C1458 1.385 . S
C1458 H1444 0.931 . S
C1458 C1457 1.385 . S
C1458 C1459 1.389 . S
C1459 C1458 1.389 . S
C1459 C1460 1.387 . S
C1460 H1445 0.930 . S
C1460 C1455 1.390 . S
C1460 C1459 1.387 . S
H1461 C1473 0.930 . S
H1462 C1475 0.930 . S
H1463 C1476 0.930 . S
H1464 C1480 0.959 . S
H1465 C1480 0.959 1_455 S
H1466 C1480 0.961 . S
H1467 C1481 0.960 . S
H1468 C1481 0.961 . S
H1469 C1481 0.959 . S
H1470 C1484 0.929 . S
H1471 C1485 0.931 . S
H1472 C1487 0.930 . S
C1473 H1461 0.930 . S
C1473 C1474 1.399 . S
C1473 C1478 1.400 . S
C1474 C1473 1.399 . S
C1474 C1475 1.376 . S
C1475 H1462 0.930 . S
C1475 C1474 1.376 . S
C1475 C1476 1.388 1_655 S
C1476 H1463 0.930 . S
C1476 C1475 1.388 1_455 S
C1476 C1477 1.390 . S
C1477 C1476 1.390 . S
C1477 C1478 1.393 1_455 S
C1477 C1483 1.465 . S
C1478 C1473 1.400 . S
C1478 C1477 1.393 1_655 S
C1478 C1479 1.516 1_655 S
C1479 C1478 1.516 1_455 S
C1479 C1480 1.502 1_455 S
C1479 C1481 1.561 . S
C1479 C1482 1.526 . S
C1480 H1464 0.959 . S
C1480 H1465 0.959 1_655 S
C1480 H1466 0.961 . S
C1480 C1479 1.502 1_655 S
C1481 H1467 0.960 . S
C1481 H1468 0.961 . S
C1481 H1469 0.959 . S
C1481 C1479 1.561 . S
C1482 C1479 1.526 . S
C1482 C1483 1.396 . S
C1482 C1487 1.390 . S
C1483 C1477 1.465 . S
C1483 C1482 1.396 . S
C1483 C1484 1.399 . S
C1484 H1470 0.929 . S
C1484 C1483 1.399 . S
C1484 C1485 1.385 . S
C1485 H1471 0.931 . S
C1485 C1484 1.385 . S
C1485 C1486 1.389 . S
C1486 C1485 1.389 . S
C1486 C1487 1.387 . S
C1487 H1472 0.930 . S
C1487 C1482 1.390 . S
C1487 C1486 1.387 . S
H1488 C1500 0.930 1_545 S
H1489 C1502 0.930 . S
H1490 C1503 0.930 . S
H1491 C1507 0.959 . S
H1492 C1507 0.959 . S
H1493 C1507 0.961 . S
H1494 C1508 0.960 . S
H1495 C1508 0.961 . S
H1496 C1508 0.959 . S
H1497 C1511 0.929 . S
H1498 C1512 0.931 . S
H1499 C1514 0.930 . S
C1500 H1488 0.930 1_565 S
C1500 C1501 1.399 . S
C1500 C1505 1.389 1_565 S
C1501 C1500 1.399 . S
C1501 C1502 1.376 . S
C1502 H1489 0.930 . S
C1502 C1501 1.376 . S
C1502 C1503 1.388 . S
C1503 H1490 0.930 . S
C1503 C1502 1.388 . S
C1503 C1504 1.390 . S
C1504 C1503 1.390 . S
C1504 C1505 1.357 1_565 S
C1504 C1510 1.465 . S
C1505 C1500 1.389 1_545 S
C1505 C1504 1.357 1_545 S
C1505 C1506 1.563 . S
C1506 C1505 1.563 . S
C1506 C1507 1.502 . S
C1506 C1508 1.561 . S
C1506 C1509 1.526 . S
C1507 H1491 0.959 . S
C1507 H1492 0.959 . S
C1507 H1493 0.961 . S
C1507 C1506 1.502 . S
C1508 H1494 0.960 . S
C1508 H1495 0.961 . S
C1508 H1496 0.959 . S
C1508 C1506 1.561 . S
C1509 C1506 1.526 . S
C1509 C1510 1.396 1_545 S
C1509 C1514 1.390 . S
C1510 C1504 1.465 . S
C1510 C1509 1.396 1_565 S
C1510 C1511 1.399 . S
C1511 H1497 0.929 . S
C1511 C1510 1.399 . S
C1511 C1512 1.385 . S
C1512 H1498 0.931 . S
C1512 C1511 1.385 . S
C1512 C1513 1.389 1_565 S
C1513 C1512 1.389 1_545 S
C1513 C1514 1.387 . S
C1514 H1499 0.930 . S
C1514 C1509 1.390 . S
C1514 C1513 1.387 . S
H1515 C1527 0.930 . S
H1516 C1529 0.930 . S
H1517 C1530 0.930 . S
H1518 C1534 0.959 . S
H1519 C1534 0.959 . S
H1520 C1534 0.961 . S
H1521 C1535 0.960 . S
H1522 C1535 0.961 . S
H1523 C1535 0.959 . S
H1524 C1538 0.929 . S
H1525 C1539 0.931 . S
H1526 C1541 0.930 . S
C1527 H1515 0.930 . S
C1527 C1528 1.399 . S
C1527 C1532 1.399 . S
C1528 C1527 1.399 . S
C1528 C1529 1.376 . S
C1529 H1516 0.930 . S
C1529 C1528 1.376 . S
C1529 C1530 1.388 . S
C1530 H1517 0.930 . S
C1530 C1529 1.388 . S
C1530 C1531 1.390 . S
C1531 C1530 1.390 . S
C1531 C1532 1.394 . S
C1531 C1537 1.465 . S
C1532 C1527 1.399 . S
C1532 C1531 1.394 . S
C1532 C1533 1.516 . S
C1533 C1532 1.516 . S
C1533 C1534 1.502 . S
C1533 C1535 1.561 . S
C1533 C1536 1.526 . S
C1534 H1518 0.959 . S
C1534 H1519 0.959 . S
C1534 H1520 0.961 . S
C1534 C1533 1.502 . S
C1535 H1521 0.960 . S
C1535 H1522 0.961 . S
C1535 H1523 0.959 . S
C1535 C1533 1.561 . S
C1536 C1533 1.526 . S
C1536 C1537 1.396 . S
C1536 C1541 1.390 . S
C1537 C1531 1.465 . S
C1537 C1536 1.396 . S
C1537 C1538 1.399 . S
C1538 H1524 0.929 . S
C1538 C1537 1.399 . S
C1538 C1539 1.385 . S
C1539 H1525 0.931 . S
C1539 C1538 1.385 . S
C1539 C1540 1.389 . S
C1540 C1539 1.389 . S
C1540 C1541 1.387 . S
C1541 H1526 0.930 . S
C1541 C1536 1.390 . S
C1541 C1540 1.387 . S
H1542 C1554 0.930 . S
H1543 C1556 0.930 . S
H1544 C1557 0.930 . S
H1545 C1561 0.959 . S
H1546 C1561 0.959 . S
H1547 C1561 0.961 . S
H1548 C1562 0.960 . S
H1549 C1562 0.961 . S
H1550 C1562 0.959 . S
H1551 C1565 0.929 . S
H1552 C1566 0.931 . S
H1553 C1568 0.930 . S
C1554 H1542 0.930 . S
C1554 C1555 1.399 . S
C1554 C1559 1.399 . S
C1555 C1554 1.399 . S
C1555 C1556 1.376 . S
C1556 H1543 0.930 . S
C1556 C1555 1.376 . S
C1556 C1557 1.388 . S
C1557 H1544 0.930 . S
C1557 C1556 1.388 . S
C1557 C1558 1.390 . S
C1558 C1557 1.390 . S
C1558 C1559 1.394 . S
C1558 C1564 1.465 . S
C1559 C1554 1.399 . S
C1559 C1558 1.394 . S
C1559 C1560 1.516 . S
C1560 C1559 1.516 . S
C1560 C1561 1.502 . S
C1560 C1562 1.561 . S
C1560 C1563 1.526 . S
C1561 H1545 0.959 . S
C1561 H1546 0.959 . S
C1561 H1547 0.961 . S
C1561 C1560 1.502 . S
C1562 H1548 0.960 . S
C1562 H1549 0.961 . S
C1562 H1550 0.959 . S
C1562 C1560 1.561 . S
C1563 C1560 1.526 . S
C1563 C1564 1.396 . S
C1563 C1568 1.390 . S
C1564 C1558 1.465 . S
C1564 C1563 1.396 . S
C1564 C1565 1.399 . S
C1565 H1551 0.929 . S
C1565 C1564 1.399 . S
C1565 C1566 1.385 . S
C1566 H1552 0.931 . S
C1566 C1565 1.385 . S
C1566 C1567 1.389 . S
C1567 C1566 1.389 . S
C1567 C1568 1.387 . S
C1568 H1553 0.930 . S
C1568 C1563 1.390 . S
C1568 C1567 1.387 . S
H1569 C1581 0.930 . S
H1570 C1583 0.930 . S
H1571 C1584 0.930 . S
H1572 C1588 0.959 . S
H1573 C1588 0.959 . S
H1574 C1588 0.961 . S
H1575 C1589 0.960 . S
H1576 C1589 0.961 . S
H1577 C1589 0.959 . S
H1578 C1592 0.929 . S
H1579 C1593 0.931 . S
H1580 C1595 0.930 . S
C1581 H1569 0.930 . S
C1581 C1582 1.399 . S
C1581 C1586 1.399 . S
C1582 C1581 1.399 . S
C1582 C1583 1.376 1_565 S
C1583 H1570 0.930 . S
C1583 C1582 1.376 1_545 S
C1583 C1584 1.388 . S
C1584 H1571 0.930 . S
C1584 C1583 1.388 . S
C1584 C1585 1.390 . S
C1585 C1584 1.390 . S
C1585 C1586 1.394 1_545 S
C1585 C1591 1.465 . S
C1586 C1581 1.399 . S
C1586 C1585 1.394 1_565 S
C1586 C1587 1.516 . S
C1587 C1586 1.516 . S
C1587 C1588 1.502 . S
C1587 C1589 1.561 . S
C1587 C1590 1.526 . S
C1588 H1572 0.959 . S
C1588 H1573 0.959 . S
C1588 H1574 0.961 . S
C1588 C1587 1.502 . S
C1589 H1575 0.960 . S
C1589 H1576 0.961 . S
C1589 H1577 0.959 . S
C1589 C1587 1.561 . S
C1590 C1587 1.526 . S
C1590 C1591 1.396 1_565 S
C1590 C1595 1.390 . S
C1591 C1585 1.465 . S
C1591 C1590 1.396 1_545 S
C1591 C1592 1.399 . S
C1592 H1578 0.929 . S
C1592 C1591 1.399 . S
C1592 C1593 1.385 . S
C1593 H1579 0.931 . S
C1593 C1592 1.385 . S
C1593 C1594 1.389 . S
C1594 C1593 1.389 . S
C1594 C1595 1.387 1_545 S
C1595 H1580 0.930 . S
C1595 C1590 1.390 . S
C1595 C1594 1.387 1_565 S
H1596 C1608 0.930 . S
H1597 C1610 0.943 . S
H1598 C1611 0.930 . S
H1599 C1615 0.959 . S
H1600 C1615 0.959 . S
H1601 C1615 0.961 . S
H1602 C1616 0.960 . S
H1603 C1616 0.961 . S
H1604 C1616 0.959 . S
H1605 C1619 0.929 . S
H1606 C1620 0.931 . S
H1607 C1622 0.977 . S
C1608 H1596 0.930 . S
C1608 C1609 1.399 . S
C1608 C1613 1.399 . S
C1609 C1608 1.399 . S
C1609 C1610 1.349 1_545 S
C1610 H1597 0.943 . S
C1610 C1609 1.349 1_565 S
C1610 C1611 1.404 . S
C1611 H1598 0.930 . S
C1611 C1610 1.404 . S
C1611 C1612 1.390 . S
C1612 C1611 1.390 . S
C1612 C1613 1.394 1_565 S
C1612 C1618 1.465 . S
C1613 C1608 1.399 . S
C1613 C1612 1.394 1_545 S
C1613 C1614 1.516 . S
C1614 C1613 1.516 . S
C1614 C1615 1.502 . S
C1614 C1616 1.561 . S
C1614 C1617 1.526 . S
C1615 H1599 0.959 . S
C1615 H1600 0.959 . S
C1615 H1601 0.961 . S
C1615 C1614 1.502 . S
C1616 H1602 0.960 . S
C1616 H1603 0.961 . S
C1616 H1604 0.959 . S
C1616 C1614 1.561 . S
C1617 C1614 1.526 . S
C1617 C1618 1.396 1_545 S
C1617 C1622 1.403 . S
C1618 C1612 1.465 . S
C1618 C1617 1.396 1_565 S
C1618 C1619 1.399 . S
C1619 H1605 0.929 . S
C1619 C1618 1.399 . S
C1619 C1620 1.385 . S
C1620 H1606 0.931 . S
C1620 C1619 1.385 . S
C1620 C1621 1.389 . S
C1621 C1620 1.389 . S
C1621 C1622 1.329 1_565 S
C1622 H1607 0.977 . S
C1622 C1617 1.403 . S
C1622 C1621 1.329 1_545 S
H1623 C1635 0.930 . S
H1624 C1637 0.930 . S
H1625 C1638 0.930 . S
H1626 C1642 0.959 . S
H1627 C1642 0.959 . S
H1628 C1642 0.961 . S
H1629 C1643 0.960 . S
H1630 C1643 0.961 . S
H1631 C1643 0.959 . S
H1632 C1646 0.929 . S
H1633 C1647 0.931 . S
H1634 C1649 0.930 . S
C1635 H1623 0.930 . S
C1635 C1636 1.399 . S
C1635 C1640 1.399 . S
C1636 C1635 1.399 . S
C1636 C1637 1.376 . S
C1637 H1624 0.930 . S
C1637 C1636 1.376 . S
C1637 C1638 1.388 . S
C1638 H1625 0.930 . S
C1638 C1637 1.388 . S
C1638 C1639 1.390 . S
C1639 C1638 1.390 . S
C1639 C1640 1.394 . S
C1639 C1645 1.465 . S
C1640 C1635 1.399 . S
C1640 C1639 1.394 . S
C1640 C1641 1.516 . S
C1641 C1640 1.516 . S
C1641 C1642 1.502 . S
C1641 C1643 1.561 . S
C1641 C1644 1.526 . S
C1642 H1626 0.959 . S
C1642 H1627 0.959 . S
C1642 H1628 0.961 . S
C1642 C1641 1.502 . S
C1643 H1629 0.960 . S
C1643 H1630 0.961 . S
C1643 H1631 0.959 . S
C1643 C1641 1.561 . S
C1644 C1641 1.526 . S
C1644 C1645 1.396 . S
C1644 C1649 1.390 . S
C1645 C1639 1.465 . S
C1645 C1644 1.396 . S
C1645 C1646 1.399 . S
C1646 H1632 0.929 . S
C1646 C1645 1.399 . S
C1646 C1647 1.385 . S
C1647 H1633 0.931 . S
C1647 C1646 1.385 . S
C1647 C1648 1.389 . S
C1648 C1647 1.389 . S
C1648 C1649 1.387 . S
C1649 H1634 0.930 . S
C1649 C1644 1.390 . S
C1649 C1648 1.387 . S
H1650 C1662 0.930 . S
H1651 C1664 0.930 . S
H1652 C1665 0.930 . S
H1653 C1669 0.959 . S
H1654 C1669 0.959 . S
H1655 C1669 0.961 . S
H1656 C1670 0.960 . S
H1657 C1670 0.961 . S
H1658 C1670 0.959 . S
H1659 C1673 0.929 . S
H1660 C1674 0.931 . S
H1661 C1676 0.930 . S
C1662 H1650 0.930 . S
C1662 C1663 1.399 . S
C1662 C1667 1.399 . S
C1663 C1662 1.399 . S
C1663 C1664 1.376 . S
C1664 H1651 0.930 . S
C1664 C1663 1.376 . S
C1664 C1665 1.388 . S
C1665 H1652 0.930 . S
C1665 C1664 1.388 . S
C1665 C1666 1.390 . S
C1666 C1665 1.390 . S
C1666 C1667 1.394 . S
C1666 C1672 1.465 . S
C1667 C1662 1.399 . S
C1667 C1666 1.394 . S
C1667 C1668 1.516 . S
C1668 C1667 1.516 . S
C1668 C1669 1.502 . S
C1668 C1670 1.561 . S
C1668 C1671 1.526 . S
C1669 H1653 0.959 . S
C1669 H1654 0.959 . S
C1669 H1655 0.961 . S
C1669 C1668 1.502 . S
C1670 H1656 0.960 . S
C1670 H1657 0.961 . S
C1670 H1658 0.959 . S
C1670 C1668 1.561 . S
C1671 C1668 1.526 . S
C1671 C1672 1.396 . S
C1671 C1676 1.390 . S
C1672 C1666 1.465 . S
C1672 C1671 1.396 . S
C1672 C1673 1.399 . S
C1673 H1659 0.929 . S
C1673 C1672 1.399 . S
C1673 C1674 1.385 . S
C1674 H1660 0.931 . S
C1674 C1673 1.385 . S
C1674 C1675 1.389 . S
C1675 C1674 1.389 . S
C1675 C1676 1.387 . S
C1676 H1661 0.930 . S
C1676 C1671 1.390 . S
C1676 C1675 1.387 . S
H1677 C1689 0.930 . S
H1678 C1691 0.930 . S
H1679 C1692 0.930 . S
H1680 C1696 0.959 . S
H1681 C1696 0.959 . S
H1682 C1696 0.961 . S
H1683 C1697 0.960 . S
H1684 C1697 0.961 . S
H1685 C1697 0.959 . S
H1686 C1700 0.929 . S
H1687 C1701 0.931 . S
H1688 C1703 0.930 . S
C1689 H1677 0.930 . S
C1689 C1690 1.399 . S
C1689 C1694 1.399 . S
C1690 C1689 1.399 . S
C1690 C1691 1.376 1_545 S
C1691 H1678 0.930 . S
C1691 C1690 1.376 1_565 S
C1691 C1692 1.388 . S
C1692 H1679 0.930 . S
C1692 C1691 1.388 . S
C1692 C1693 1.390 . S
C1693 C1692 1.390 . S
C1693 C1694 1.394 1_565 S
C1693 C1699 1.465 . S
C1694 C1689 1.399 . S
C1694 C1693 1.394 1_545 S
C1694 C1695 1.516 . S
C1695 C1694 1.516 . S
C1695 C1696 1.502 . S
C1695 C1697 1.561 . S
C1695 C1698 1.526 . S
C1696 H1680 0.959 . S
C1696 H1681 0.959 . S
C1696 H1682 0.961 . S
C1696 C1695 1.502 . S
C1697 H1683 0.960 . S
C1697 H1684 0.961 . S
C1697 H1685 0.959 . S
C1697 C1695 1.561 . S
C1698 C1695 1.526 . S
C1698 C1699 1.396 1_545 S
C1698 C1703 1.390 . S
C1699 C1693 1.465 . S
C1699 C1698 1.396 1_565 S
C1699 C1700 1.399 . S
C1700 H1686 0.929 . S
C1700 C1699 1.399 . S
C1700 C1701 1.385 . S
C1701 H1687 0.931 . S
C1701 C1700 1.385 . S
C1701 C1702 1.389 . S
C1702 C1701 1.389 . S
C1702 C1703 1.387 1_565 S
C1703 H1688 0.930 . S
C1703 C1698 1.390 . S
C1703 C1702 1.387 1_545 S
H1704 C1716 0.930 . S
H1705 C1718 0.930 1_554 S
H1706 C1719 0.930 . S
H1707 C1723 0.959 . S
H1708 C1723 0.959 . S
H1709 C1723 0.961 . S
H1710 C1724 0.960 . S
H1711 C1724 0.961 . S
H1712 C1724 0.959 . S
H1713 C1727 0.929 . S
H1714 C1728 0.931 . S
H1715 C1730 0.930 . S
C1716 H1704 0.930 . S
C1716 C1717 1.399 . S
C1716 C1721 1.399 . S
C1717 C1716 1.399 . S
C1717 C1718 1.377 . S
C1718 H1705 0.930 1_556 S
C1718 C1717 1.377 . S
C1718 C1719 1.388 1_556 S
C1719 H1706 0.930 . S
C1719 C1718 1.388 1_554 S
C1719 C1720 1.390 . S
C1720 C1719 1.390 . S
C1720 C1721 1.394 1_554 S
C1720 C1726 1.465 . S
C1721 C1716 1.399 . S
C1721 C1720 1.394 1_556 S
C1721 C1722 1.516 . S
C1722 C1721 1.516 . S
C1722 C1723 1.502 . S
C1722 C1724 1.561 . S
C1722 C1725 1.526 1_556 S
C1723 H1707 0.959 . S
C1723 H1708 0.959 . S
C1723 H1709 0.961 . S
C1723 C1722 1.502 . S
C1724 H1710 0.960 . S
C1724 H1711 0.961 . S
C1724 H1712 0.959 . S
C1724 C1722 1.561 . S
C1725 C1722 1.526 1_554 S
C1725 C1726 1.396 . S
C1725 C1730 1.390 . S
C1726 C1720 1.465 . S
C1726 C1725 1.396 . S
C1726 C1727 1.399 . S
C1727 H1713 0.929 . S
C1727 C1726 1.399 . S
C1727 C1728 1.385 . S
C1728 H1714 0.931 . S
C1728 C1727 1.385 . S
C1728 C1729 1.389 . S
C1729 C1728 1.389 . S
C1729 C1730 1.387 . S
C1730 H1715 0.930 . S
C1730 C1725 1.390 . S
C1730 C1729 1.387 . S
H1731 C1743 0.930 . S
H1732 C1745 0.930 . S
H1733 C1746 0.930 1_556 S
H1734 C1750 0.959 . S
H1735 C1750 0.959 . S
H1736 C1750 0.961 . S
H1737 C1751 0.960 . S
H1738 C1751 0.961 . S
H1739 C1751 0.959 . S
H1740 C1754 0.929 . S
H1741 C1755 0.931 . S
H1742 C1757 0.930 1_554 S
C1743 H1731 0.930 . S
C1743 C1744 1.399 . S
C1743 C1748 1.399 . S
C1744 C1743 1.399 . S
C1744 C1745 1.376 . S
C1745 H1732 0.930 . S
C1745 C1744 1.376 . S
C1745 C1746 1.388 . S
C1746 H1733 0.930 1_554 S
C1746 C1745 1.388 . S
C1746 C1747 1.390 . S
C1747 C1746 1.390 . S
C1747 C1748 1.394 . S
C1747 C1753 1.465 1_554 S
C1748 C1743 1.399 . S
C1748 C1747 1.394 . S
C1748 C1749 1.516 . S
C1749 C1748 1.516 . S
C1749 C1750 1.502 . S
C1749 C1751 1.561 . S
C1749 C1752 1.526 . S
C1750 H1734 0.959 . S
C1750 H1735 0.959 . S
C1750 H1736 0.961 . S
C1750 C1749 1.502 . S
C1751 H1737 0.960 . S
C1751 H1738 0.961 . S
C1751 H1739 0.959 . S
C1751 C1749 1.561 . S
C1752 C1749 1.526 . S
C1752 C1753 1.396 1_554 S
C1752 C1757 1.390 1_554 S
C1753 C1747 1.465 1_556 S
C1753 C1752 1.396 1_556 S
C1753 C1754 1.399 . S
C1754 H1740 0.929 . S
C1754 C1753 1.399 . S
C1754 C1755 1.385 . S
C1755 H1741 0.931 . S
C1755 C1754 1.385 . S
C1755 C1756 1.389 . S
C1756 C1755 1.389 . S
C1756 C1757 1.387 . S
C1757 H1742 0.930 1_556 S
C1757 C1752 1.390 1_556 S
C1757 C1756 1.387 . S
H1758 C1770 0.930 . S
H1759 C1772 0.930 . S
H1760 C1773 0.930 . S
H1761 C1777 0.959 . S
H1762 C1777 0.959 . S
H1763 C1777 0.961 . S
H1764 C1778 0.960 . S
H1765 C1778 0.961 . S
H1766 C1778 0.959 . S
H1767 C1781 0.929 . S
H1768 C1782 0.931 . S
H1769 C1784 0.930 . S
C1770 H1758 0.930 . S
C1770 C1771 1.399 . S
C1770 C1775 1.399 . S
C1771 C1770 1.399 . S
C1771 C1772 1.376 . S
C1772 H1759 0.930 . S
C1772 C1771 1.376 . S
C1772 C1773 1.388 . S
C1773 H1760 0.930 . S
C1773 C1772 1.388 . S
C1773 C1774 1.390 . S
C1774 C1773 1.390 . S
C1774 C1775 1.394 . S
C1774 C1780 1.465 . S
C1775 C1770 1.399 . S
C1775 C1774 1.394 . S
C1775 C1776 1.516 . S
C1776 C1775 1.516 . S
C1776 C1777 1.502 . S
C1776 C1778 1.561 . S
C1776 C1779 1.526 . S
C1777 H1761 0.959 . S
C1777 H1762 0.959 . S
C1777 H1763 0.961 . S
C1777 C1776 1.502 . S
C1778 H1764 0.960 . S
C1778 H1765 0.961 . S
C1778 H1766 0.959 . S
C1778 C1776 1.561 . S
C1779 C1776 1.526 . S
C1779 C1780 1.396 . S
C1779 C1784 1.390 . S
C1780 C1774 1.465 . S
C1780 C1779 1.396 . S
C1780 C1781 1.399 . S
C1781 H1767 0.929 . S
C1781 C1780 1.399 . S
C1781 C1782 1.385 . S
C1782 H1768 0.931 . S
C1782 C1781 1.385 . S
C1782 C1783 1.389 . S
C1783 C1782 1.389 . S
C1783 C1784 1.387 . S
C1784 H1769 0.930 . S
C1784 C1779 1.390 . S
C1784 C1783 1.387 . S
H1785 C1797 0.930 . S
H1786 C1799 0.930 . S
H1787 C1800 0.930 . S
H1788 C1804 0.959 . S
H1789 C1804 0.959 . S
H1790 C1804 0.961 . S
H1791 C1805 0.960 . S
H1792 C1805 0.961 . S
H1793 C1805 0.959 . S
H1794 C1808 0.929 . S
H1795 C1809 0.931 . S
H1796 C1811 0.930 . S
C1797 H1785 0.930 . S
C1797 C1798 1.399 . S
C1797 C1802 1.399 . S
C1798 C1797 1.399 . S
C1798 C1799 1.376 . S
C1799 H1786 0.930 . S
C1799 C1798 1.376 . S
C1799 C1800 1.388 . S
C1800 H1787 0.930 . S
C1800 C1799 1.388 . S
C1800 C1801 1.390 . S
C1801 C1800 1.390 . S
C1801 C1802 1.394 . S
C1801 C1807 1.465 . S
C1802 C1797 1.399 . S
C1802 C1801 1.394 . S
C1802 C1803 1.516 . S
C1803 C1802 1.516 . S
C1803 C1804 1.502 . S
C1803 C1805 1.561 . S
C1803 C1806 1.526 . S
C1804 H1788 0.959 . S
C1804 H1789 0.959 . S
C1804 H1790 0.961 . S
C1804 C1803 1.502 . S
C1805 H1791 0.960 . S
C1805 H1792 0.961 . S
C1805 H1793 0.959 . S
C1805 C1803 1.561 . S
C1806 C1803 1.526 . S
C1806 C1807 1.396 . S
C1806 C1811 1.390 . S
C1807 C1801 1.465 . S
C1807 C1806 1.396 . S
C1807 C1808 1.399 . S
C1808 H1794 0.929 . S
C1808 C1807 1.399 . S
C1808 C1809 1.385 . S
C1809 H1795 0.931 . S
C1809 C1808 1.385 . S
C1809 C1810 1.389 . S
C1810 C1809 1.389 . S
C1810 C1811 1.387 . S
C1811 H1796 0.930 . S
C1811 C1806 1.390 . S
C1811 C1810 1.387 . S
H1812 C1824 0.930 . S
H1813 C1826 0.930 . S
H1814 C1827 0.930 . S
H1815 C1831 0.963 . S
H1816 C1831 0.959 . S
H1817 C1831 0.958 1_554 S
H1818 C1832 0.960 . S
H1819 C1832 0.961 . S
H1820 C1832 0.959 . S
H1821 C1835 0.929 . S
H1822 C1836 0.931 . S
H1823 C1838 0.930 . S
C1824 H1812 0.930 . S
C1824 C1825 1.399 . S
C1824 C1829 1.399 . S
C1825 C1824 1.399 . S
C1825 C1826 1.376 . S
C1826 H1813 0.930 . S
C1826 C1825 1.376 . S
C1826 C1827 1.388 1_554 S
C1827 H1814 0.930 . S
C1827 C1826 1.388 1_556 S
C1827 C1828 1.390 . S
C1828 C1827 1.390 . S
C1828 C1829 1.394 1_556 S
C1828 C1834 1.465 . S
C1829 C1824 1.399 . S
C1829 C1828 1.394 1_554 S
C1829 C1830 1.516 . S
C1830 C1829 1.516 . S
C1830 C1831 1.501 1_554 S
C1830 C1832 1.561 . S
C1830 C1833 1.526 1_554 S
C1831 H1815 0.963 . S
C1831 H1816 0.959 . S
C1831 H1817 0.958 1_556 S
C1831 C1830 1.501 1_556 S
C1832 H1818 0.960 . S
C1832 H1819 0.961 . S
C1832 H1820 0.959 . S
C1832 C1830 1.561 . S
C1833 C1830 1.526 1_556 S
C1833 C1834 1.396 . S
C1833 C1838 1.390 . S
C1834 C1828 1.465 . S
C1834 C1833 1.396 . S
C1834 C1835 1.399 . S
C1835 H1821 0.929 . S
C1835 C1834 1.399 . S
C1835 C1836 1.385 . S
C1836 H1822 0.931 . S
C1836 C1835 1.385 . S
C1836 C1837 1.389 . S
C1837 C1836 1.389 . S
C1837 C1838 1.387 . S
C1838 H1823 0.930 . S
C1838 C1833 1.390 . S
C1838 C1837 1.387 . S
H1839 C1851 0.930 1_556 S
H1840 C1853 0.930 . S
H1841 C1854 0.930 . S
H1842 C1858 0.959 . S
H1843 C1858 0.959 . S
H1844 C1858 0.961 . S
H1845 C1859 0.960 . S
H1846 C1859 0.961 . S
H1847 C1859 0.959 . S
H1848 C1862 0.929 1_554 S
H1849 C1863 0.931 . S
H1850 C1865 0.930 . S
C1851 H1839 0.930 1_554 S
C1851 C1852 1.399 . S
C1851 C1856 1.399 1_554 S
C1852 C1851 1.399 . S
C1852 C1853 1.376 . S
C1853 H1840 0.930 . S
C1853 C1852 1.376 . S
C1853 C1854 1.388 . S
C1854 H1841 0.930 . S
C1854 C1853 1.388 . S
C1854 C1855 1.390 . S
C1855 C1854 1.390 . S
C1855 C1856 1.394 1_554 S
C1855 C1861 1.465 1_554 S
C1856 C1851 1.399 1_556 S
C1856 C1855 1.394 1_556 S
C1856 C1857 1.516 . S
C1857 C1856 1.516 . S
C1857 C1858 1.502 . S
C1857 C1859 1.561 . S
C1857 C1860 1.526 . S
C1858 H1842 0.959 . S
C1858 H1843 0.959 . S
C1858 H1844 0.961 . S
C1858 C1857 1.502 . S
C1859 H1845 0.960 . S
C1859 H1846 0.961 . S
C1859 H1847 0.959 . S
C1859 C1857 1.561 . S
C1860 C1857 1.526 . S
C1860 C1861 1.396 . S
C1860 C1865 1.390 . S
C1861 C1855 1.465 1_556 S
C1861 C1860 1.396 . S
C1861 C1862 1.399 . S
C1862 H1848 0.929 1_556 S
C1862 C1861 1.399 . S
C1862 C1863 1.385 . S
C1863 H1849 0.931 . S
C1863 C1862 1.385 . S
C1863 C1864 1.389 . S
C1864 C1863 1.389 . S
C1864 C1865 1.387 . S
C1865 H1850 0.930 . S
C1865 C1860 1.390 . S
C1865 C1864 1.387 . S
H1866 C1878 0.930 . S
H1867 C1880 0.930 . S
H1868 C1881 0.930 . S
H1869 C1885 0.959 . S
H1870 C1885 0.959 . S
H1871 C1885 0.961 . S
H1872 C1886 0.960 . S
H1873 C1886 0.961 . S
H1874 C1886 0.959 . S
H1875 C1889 0.929 . S
H1876 C1890 0.931 . S
H1877 C1892 0.930 . S
C1878 H1866 0.930 . S
C1878 C1879 1.399 . S
C1878 C1883 1.399 . S
C1879 C1878 1.399 . S
C1879 C1880 1.376 . S
C1880 H1867 0.930 . S
C1880 C1879 1.376 . S
C1880 C1881 1.388 . S
C1881 H1868 0.930 . S
C1881 C1880 1.388 . S
C1881 C1882 1.390 . S
C1882 C1881 1.390 . S
C1882 C1883 1.394 . S
C1882 C1888 1.465 . S
C1883 C1878 1.399 . S
C1883 C1882 1.394 . S
C1883 C1884 1.516 . S
C1884 C1883 1.516 . S
C1884 C1885 1.502 . S
C1884 C1886 1.561 . S
C1884 C1887 1.526 . S
C1885 H1869 0.959 . S
C1885 H1870 0.959 . S
C1885 H1871 0.961 . S
C1885 C1884 1.502 . S
C1886 H1872 0.960 . S
C1886 H1873 0.961 . S
C1886 H1874 0.959 . S
C1886 C1884 1.561 . S
C1887 C1884 1.526 . S
C1887 C1888 1.396 . S
C1887 C1892 1.390 . S
C1888 C1882 1.465 . S
C1888 C1887 1.396 . S
C1888 C1889 1.399 . S
C1889 H1875 0.929 . S
C1889 C1888 1.399 . S
C1889 C1890 1.385 . S
C1890 H1876 0.931 . S
C1890 C1889 1.385 . S
C1890 C1891 1.389 . S
C1891 C1890 1.389 . S
C1891 C1892 1.387 . S
C1892 H1877 0.930 . S
C1892 C1887 1.390 . S
C1892 C1891 1.387 . S
H1893 C1905 0.930 . S
H1894 C1907 0.930 . S
H1895 C1908 0.930 . S
H1896 C1912 0.959 . S
H1897 C1912 0.959 . S
H1898 C1912 0.961 . S
H1899 C1913 0.960 . S
H1900 C1913 0.961 . S
H1901 C1913 0.959 . S
H1902 C1916 0.929 . S
H1903 C1917 0.931 . S
H1904 C1919 0.930 . S
C1905 H1893 0.930 . S
C1905 C1906 1.399 . S
C1905 C1910 1.399 . S
C1906 C1905 1.399 . S
C1906 C1907 1.376 . S
C1907 H1894 0.930 . S
C1907 C1906 1.376 . S
C1907 C1908 1.388 . S
C1908 H1895 0.930 . S
C1908 C1907 1.388 . S
C1908 C1909 1.390 . S
C1909 C1908 1.390 . S
C1909 C1910 1.394 . S
C1909 C1915 1.465 . S
C1910 C1905 1.399 . S
C1910 C1909 1.394 . S
C1910 C1911 1.516 . S
C1911 C1910 1.516 . S
C1911 C1912 1.502 . S
C1911 C1913 1.561 . S
C1911 C1914 1.526 . S
C1912 H1896 0.959 . S
C1912 H1897 0.959 . S
C1912 H1898 0.961 . S
C1912 C1911 1.502 . S
C1913 H1899 0.960 . S
C1913 H1900 0.961 . S
C1913 H1901 0.959 . S
C1913 C1911 1.561 . S
C1914 C1911 1.526 . S
C1914 C1915 1.396 . S
C1914 C1919 1.390 . S
C1915 C1909 1.465 . S
C1915 C1914 1.396 . S
C1915 C1916 1.399 . S
C1916 H1902 0.929 . S
C1916 C1915 1.399 . S
C1916 C1917 1.385 . S
C1917 H1903 0.931 . S
C1917 C1916 1.385 . S
C1917 C1918 1.389 . S
C1918 C1917 1.389 . S
C1918 C1919 1.387 . S
C1919 H1904 0.930 . S
C1919 C1914 1.390 . S
C1919 C1918 1.387 . S
H1920 C1932 0.930 . S
H1921 C1934 0.930 . S
H1922 C1935 0.930 . S
H1923 C1939 0.959 . S
H1924 C1939 0.959 . S
H1925 C1939 0.961 . S
H1926 C1940 0.960 . S
H1927 C1940 0.961 . S
H1928 C1940 0.959 . S
H1929 C1943 0.929 . S
H1930 C1944 0.931 . S
H1931 C1946 0.930 . S
C1932 H1920 0.930 . S
C1932 C1933 1.399 . S
C1932 C1937 1.399 . S
C1933 C1932 1.399 . S
C1933 C1934 1.376 . S
C1934 H1921 0.930 . S
C1934 C1933 1.376 . S
C1934 C1935 1.388 . S
C1935 H1922 0.930 . S
C1935 C1934 1.388 . S
C1935 C1936 1.390 . S
C1936 C1935 1.390 . S
C1936 C1937 1.394 . S
C1936 C1942 1.465 . S
C1937 C1932 1.399 . S
C1937 C1936 1.394 . S
C1937 C1938 1.516 . S
C1938 C1937 1.516 . S
C1938 C1939 1.502 . S
C1938 C1940 1.561 . S
C1938 C1941 1.526 . S
C1939 H1923 0.959 . S
C1939 H1924 0.959 . S
C1939 H1925 0.961 . S
C1939 C1938 1.502 . S
C1940 H1926 0.960 . S
C1940 H1927 0.961 . S
C1940 H1928 0.959 . S
C1940 C1938 1.561 . S
C1941 C1938 1.526 . S
C1941 C1942 1.396 . S
C1941 C1946 1.390 . S
C1942 C1936 1.465 . S
C1942 C1941 1.396 . S
C1942 C1943 1.399 . S
C1943 H1929 0.929 . S
C1943 C1942 1.399 . S
C1943 C1944 1.385 . S
C1944 H1930 0.931 . S
C1944 C1943 1.385 . S
C1944 C1945 1.389 . S
C1945 C1944 1.389 . S
C1945 C1946 1.387 . S
C1946 H1931 0.930 . S
C1946 C1941 1.390 . S
C1946 C1945 1.387 . S
H1947 C1959 0.930 . S
H1948 C1961 0.930 . S
H1949 C1962 0.930 . S
H1950 C1966 0.959 . S
H1951 C1966 0.959 . S
H1952 C1966 0.961 . S
H1953 C1967 0.960 . S
H1954 C1967 0.961 . S
H1955 C1967 0.959 . S
H1956 C1970 0.929 . S
H1957 C1971 0.931 . S
H1958 C1973 0.930 . S
C1959 H1947 0.930 . S
C1959 C1960 1.399 . S
C1959 C1964 1.399 . S
C1960 C1959 1.399 . S
C1960 C1961 1.376 . S
C1961 H1948 0.930 . S
C1961 C1960 1.376 . S
C1961 C1962 1.388 . S
C1962 H1949 0.930 . S
C1962 C1961 1.388 . S
C1962 C1963 1.390 . S
C1963 C1962 1.390 . S
C1963 C1964 1.394 . S
C1963 C1969 1.465 . S
C1964 C1959 1.399 . S
C1964 C1963 1.394 . S
C1964 C1965 1.516 . S
C1965 C1964 1.516 . S
C1965 C1966 1.502 . S
C1965 C1967 1.561 . S
C1965 C1968 1.526 . S
C1966 H1950 0.959 . S
C1966 H1951 0.959 . S
C1966 H1952 0.961 . S
C1966 C1965 1.502 . S
C1967 H1953 0.960 . S
C1967 H1954 0.961 . S
C1967 H1955 0.959 . S
C1967 C1965 1.561 . S
C1968 C1965 1.526 . S
C1968 C1969 1.396 . S
C1968 C1973 1.390 . S
C1969 C1963 1.465 . S
C1969 C1968 1.396 . S
C1969 C1970 1.399 . S
C1970 H1956 0.929 . S
C1970 C1969 1.399 . S
C1970 C1971 1.385 . S
C1971 H1957 0.931 . S
C1971 C1970 1.385 . S
C1971 C1972 1.389 . S
C1972 C1971 1.389 . S
C1972 C1973 1.387 . S
C1973 H1958 0.930 . S
C1973 C1968 1.390 . S
C1973 C1972 1.387 . S
H1974 C1986 0.930 . S
H1975 C1988 0.930 . S
H1976 C1989 0.930 . S
H1977 C1993 0.959 . S
H1978 C1993 0.959 . S
H1979 C1993 0.961 . S
H1980 C1994 0.960 . S
H1981 C1994 0.961 . S
H1982 C1994 0.959 . S
H1983 C1997 0.929 . S
H1984 C1998 0.931 . S
H1985 C2000 0.930 . S
C1986 H1974 0.930 . S
C1986 C1987 1.399 . S
C1986 C1991 1.399 . S
C1987 C1986 1.399 . S
C1987 C1988 1.376 . S
C1988 H1975 0.930 . S
C1988 C1987 1.376 . S
C1988 C1989 1.388 . S
C1989 H1976 0.930 . S
C1989 C1988 1.388 . S
C1989 C1990 1.390 . S
C1990 C1989 1.390 . S
C1990 C1991 1.394 . S
C1990 C1996 1.465 . S
C1991 C1986 1.399 . S
C1991 C1990 1.394 . S
C1991 C1992 1.516 . S
C1992 C1991 1.516 . S
C1992 C1993 1.502 . S
C1992 C1994 1.561 . S
C1992 C1995 1.526 . S
C1993 H1977 0.959 . S
C1993 H1978 0.959 . S
C1993 H1979 0.961 . S
C1993 C1992 1.502 . S
C1994 H1980 0.960 . S
C1994 H1981 0.961 . S
C1994 H1982 0.959 . S
C1994 C1992 1.561 . S
C1995 C1992 1.526 . S
C1995 C1996 1.396 . S
C1995 C2000 1.390 . S
C1996 C1990 1.465 . S
C1996 C1995 1.396 . S
C1996 C1997 1.399 . S
C1997 H1983 0.929 . S
C1997 C1996 1.399 . S
C1997 C1998 1.385 . S
C1998 H1984 0.931 . S
C1998 C1997 1.385 . S
C1998 C1999 1.389 . S
C1999 C1998 1.389 . S
C1999 C2000 1.387 . S
C2000 H1985 0.930 . S
C2000 C1995 1.390 . S
C2000 C1999 1.387 . S
H2001 C2013 0.930 . S
H2002 C2015 0.930 . S
H2003 C2016 0.930 . S
H2004 C2020 0.959 . S
H2005 C2020 0.959 . S
H2006 C2020 0.961 . S
H2007 C2021 0.960 . S
H2008 C2021 0.961 . S
H2009 C2021 0.959 . S
H2010 C2024 0.929 . S
H2011 C2025 0.931 . S
H2012 C2027 0.930 . S
C2013 H2001 0.930 . S
C2013 C2014 1.399 . S
C2013 C2018 1.399 . S
C2014 C2013 1.399 . S
C2014 C2015 1.376 . S
C2015 H2002 0.930 . S
C2015 C2014 1.376 . S
C2015 C2016 1.388 . S
C2016 H2003 0.930 . S
C2016 C2015 1.388 . S
C2016 C2017 1.390 . S
C2017 C2016 1.390 . S
C2017 C2018 1.394 . S
C2017 C2023 1.465 . S
C2018 C2013 1.399 . S
C2018 C2017 1.394 . S
C2018 C2019 1.516 . S
C2019 C2018 1.516 . S
C2019 C2020 1.502 . S
C2019 C2021 1.561 . S
C2019 C2022 1.526 . S
C2020 H2004 0.959 . S
C2020 H2005 0.959 . S
C2020 H2006 0.961 . S
C2020 C2019 1.502 . S
C2021 H2007 0.960 . S
C2021 H2008 0.961 . S
C2021 H2009 0.959 . S
C2021 C2019 1.561 . S
C2022 C2019 1.526 . S
C2022 C2023 1.396 . S
C2022 C2027 1.390 . S
C2023 C2017 1.465 . S
C2023 C2022 1.396 . S
C2023 C2024 1.399 . S
C2024 H2010 0.929 . S
C2024 C2023 1.399 . S
C2024 C2025 1.385 . S
C2025 H2011 0.931 . S
C2025 C2024 1.385 . S
C2025 C2026 1.389 . S
C2026 C2025 1.389 . S
C2026 C2027 1.387 . S
C2027 H2012 0.930 . S
C2027 C2022 1.390 . S
C2027 C2026 1.387 . S
H2028 C2040 0.930 . S
H2029 C2042 0.930 . S
H2030 C2043 0.930 . S
H2031 C2047 0.959 . S
H2032 C2047 0.959 . S
H2033 C2047 0.961 . S
H2034 C2048 0.960 . S
H2035 C2048 0.961 . S
H2036 C2048 0.959 . S
H2037 C2051 0.929 . S
H2038 C2052 0.931 . S
H2039 C2054 0.930 . S
C2040 H2028 0.930 . S
C2040 C2041 1.399 . S
C2040 C2045 1.399 . S
C2041 C2040 1.399 . S
C2041 C2042 1.376 . S
C2042 H2029 0.930 . S
C2042 C2041 1.376 . S
C2042 C2043 1.388 . S
C2043 H2030 0.930 . S
C2043 C2042 1.388 . S
C2043 C2044 1.390 . S
C2044 C2043 1.390 . S
C2044 C2045 1.394 . S
C2044 C2050 1.465 . S
C2045 C2040 1.399 . S
C2045 C2044 1.394 . S
C2045 C2046 1.516 . S
C2046 C2045 1.516 . S
C2046 C2047 1.502 . S
C2046 C2048 1.561 . S
C2046 C2049 1.526 . S
C2047 H2031 0.959 . S
C2047 H2032 0.959 . S
C2047 H2033 0.961 . S
C2047 C2046 1.502 . S
C2048 H2034 0.960 . S
C2048 H2035 0.961 . S
C2048 H2036 0.959 . S
C2048 C2046 1.561 . S
C2049 C2046 1.526 . S
C2049 C2050 1.396 . S
C2049 C2054 1.390 . S
C2050 C2044 1.465 . S
C2050 C2049 1.396 . S
C2050 C2051 1.399 . S
C2051 H2037 0.929 . S
C2051 C2050 1.399 . S
C2051 C2052 1.385 . S
C2052 H2038 0.931 . S
C2052 C2051 1.385 . S
C2052 C2053 1.389 . S
C2053 C2052 1.389 . S
C2053 C2054 1.387 . S
C2054 H2039 0.930 . S
C2054 C2049 1.390 . S
C2054 C2053 1.387 . S
H2055 C2067 0.930 . S
H2056 C2069 0.930 . S
H2057 C2070 0.930 . S
H2058 C2074 0.959 . S
H2059 C2074 0.959 . S
H2060 C2074 0.961 . S
H2061 C2075 0.960 . S
H2062 C2075 0.961 . S
H2063 C2075 0.959 . S
H2064 C2078 0.929 . S
H2065 C2079 0.931 . S
H2066 C2081 0.930 . S
C2067 H2055 0.930 . S
C2067 C2068 1.399 . S
C2067 C2072 1.399 . S
C2068 C2067 1.399 . S
C2068 C2069 1.376 . S
C2069 H2056 0.930 . S
C2069 C2068 1.376 . S
C2069 C2070 1.388 . S
C2070 H2057 0.930 . S
C2070 C2069 1.388 . S
C2070 C2071 1.390 . S
C2071 C2070 1.390 . S
C2071 C2072 1.394 . S
C2071 C2077 1.465 . S
C2072 C2067 1.399 . S
C2072 C2071 1.394 . S
C2072 C2073 1.516 . S
C2073 C2072 1.516 . S
C2073 C2074 1.502 . S
C2073 C2075 1.561 . S
C2073 C2076 1.526 . S
C2074 H2058 0.959 . S
C2074 H2059 0.959 . S
C2074 H2060 0.961 . S
C2074 C2073 1.502 . S
C2075 H2061 0.960 . S
C2075 H2062 0.961 . S
C2075 H2063 0.959 . S
C2075 C2073 1.561 . S
C2076 C2073 1.526 . S
C2076 C2077 1.396 . S
C2076 C2081 1.390 . S
C2077 C2071 1.465 . S
C2077 C2076 1.396 . S
C2077 C2078 1.399 . S
C2078 H2064 0.929 . S
C2078 C2077 1.399 . S
C2078 C2079 1.385 . S
C2079 H2065 0.931 . S
C2079 C2078 1.385 . S
C2079 C2080 1.389 . S
C2080 C2079 1.389 . S
C2080 C2081 1.387 . S
C2081 H2066 0.930 . S
C2081 C2076 1.390 . S
C2081 C2080 1.387 . S
H2082 C2094 0.930 . S
H2083 C2096 0.930 . S
H2084 C2097 0.930 . S
H2085 C2101 0.959 . S
H2086 C2101 0.959 . S
H2087 C2101 0.961 . S
H2088 C2102 0.960 . S
H2089 C2102 0.961 . S
H2090 C2102 0.959 . S
H2091 C2105 0.929 . S
H2092 C2106 0.931 . S
H2093 C2108 0.930 . S
C2094 H2082 0.930 . S
C2094 C2095 1.399 . S
C2094 C2099 1.399 . S
C2095 C2094 1.399 . S
C2095 C2096 1.376 . S
C2096 H2083 0.930 . S
C2096 C2095 1.376 . S
C2096 C2097 1.388 . S
C2097 H2084 0.930 . S
C2097 C2096 1.388 . S
C2097 C2098 1.390 . S
C2098 C2097 1.390 . S
C2098 C2099 1.394 . S
C2098 C2104 1.465 . S
C2099 C2094 1.399 . S
C2099 C2098 1.394 . S
C2099 C2100 1.516 . S
C2100 C2099 1.516 . S
C2100 C2101 1.502 . S
C2100 C2102 1.561 . S
C2100 C2103 1.526 . S
C2101 H2085 0.959 . S
C2101 H2086 0.959 . S
C2101 H2087 0.961 . S
C2101 C2100 1.502 . S
C2102 H2088 0.960 . S
C2102 H2089 0.961 . S
C2102 H2090 0.959 . S
C2102 C2100 1.561 . S
C2103 C2100 1.526 . S
C2103 C2104 1.396 . S
C2103 C2108 1.390 . S
C2104 C2098 1.465 . S
C2104 C2103 1.396 . S
C2104 C2105 1.399 . S
C2105 H2091 0.929 . S
C2105 C2104 1.399 . S
C2105 C2106 1.385 . S
C2106 H2092 0.931 . S
C2106 C2105 1.385 . S
C2106 C2107 1.389 . S
C2107 C2106 1.389 . S
C2107 C2108 1.387 . S
C2108 H2093 0.930 . S
C2108 C2103 1.390 . S
C2108 C2107 1.387 . S
H2109 C2121 0.930 . S
H2110 C2123 0.930 . S
H2111 C2124 0.930 . S
H2112 C2128 0.959 . S
H2113 C2128 0.959 . S
H2114 C2128 0.961 . S
H2115 C2129 0.960 . S
H2116 C2129 0.961 . S
H2117 C2129 0.959 . S
H2118 C2132 0.929 . S
H2119 C2133 0.931 . S
H2120 C2135 0.930 . S
C2121 H2109 0.930 . S
C2121 C2122 1.399 . S
C2121 C2126 1.399 . S
C2122 C2121 1.399 . S
C2122 C2123 1.376 . S
C2123 H2110 0.930 . S
C2123 C2122 1.376 . S
C2123 C2124 1.388 . S
C2124 H2111 0.930 . S
C2124 C2123 1.388 . S
C2124 C2125 1.390 . S
C2125 C2124 1.390 . S
C2125 C2126 1.394 . S
C2125 C2131 1.465 . S
C2126 C2121 1.399 . S
C2126 C2125 1.394 . S
C2126 C2127 1.516 . S
C2127 C2126 1.516 . S
C2127 C2128 1.502 . S
C2127 C2129 1.561 . S
C2127 C2130 1.526 . S
C2128 H2112 0.959 . S
C2128 H2113 0.959 . S
C2128 H2114 0.961 . S
C2128 C2127 1.502 . S
C2129 H2115 0.960 . S
C2129 H2116 0.961 . S
C2129 H2117 0.959 . S
C2129 C2127 1.561 . S
C2130 C2127 1.526 . S
C2130 C2131 1.396 . S
C2130 C2135 1.390 . S
C2131 C2125 1.465 . S
C2131 C2130 1.396 . S
C2131 C2132 1.399 . S
C2132 H2118 0.929 . S
C2132 C2131 1.399 . S
C2132 C2133 1.385 . S
C2133 H2119 0.931 . S
C2133 C2132 1.385 . S
C2133 C2134 1.389 . S
C2134 C2133 1.389 . S
C2134 C2135 1.387 . S
C2135 H2120 0.930 . S
C2135 C2130 1.390 . S
C2135 C2134 1.387 . S
H2136 C2148 0.930 . S
H2137 C2150 0.930 . S
H2138 C2151 0.930 . S
H2139 C2155 0.959 . S
H2140 C2155 0.959 . S
H2141 C2155 0.961 . S
H2142 C2156 0.960 . S
H2143 C2156 0.961 . S
H2144 C2156 0.959 . S
H2145 C2159 0.929 . S
H2146 C2160 0.931 . S
H2147 C2162 0.930 . S
C2148 H2136 0.930 . S
C2148 C2149 1.399 . S
C2148 C2153 1.399 . S
C2149 C2148 1.399 . S
C2149 C2150 1.376 . S
C2150 H2137 0.930 . S
C2150 C2149 1.376 . S
C2150 C2151 1.388 . S
C2151 H2138 0.930 . S
C2151 C2150 1.388 . S
C2151 C2152 1.390 . S
C2152 C2151 1.390 . S
C2152 C2153 1.394 . S
C2152 C2158 1.465 . S
C2153 C2148 1.399 . S
C2153 C2152 1.394 . S
C2153 C2154 1.516 . S
C2154 C2153 1.516 . S
C2154 C2155 1.502 . S
C2154 C2156 1.561 . S
C2154 C2157 1.526 . S
C2155 H2139 0.959 . S
C2155 H2140 0.959 . S
C2155 H2141 0.961 . S
C2155 C2154 1.502 . S
C2156 H2142 0.960 . S
C2156 H2143 0.961 . S
C2156 H2144 0.959 . S
C2156 C2154 1.561 . S
C2157 C2154 1.526 . S
C2157 C2158 1.396 . S
C2157 C2162 1.390 . S
C2158 C2152 1.465 . S
C2158 C2157 1.396 . S
C2158 C2159 1.399 . S
C2159 H2145 0.929 . S
C2159 C2158 1.399 . S
C2159 C2160 1.385 . S
C2160 H2146 0.931 . S
C2160 C2159 1.385 . S
C2160 C2161 1.389 . S
C2161 C2160 1.389 . S
C2161 C2162 1.387 . S
C2162 H2147 0.930 . S
C2162 C2157 1.390 . S
C2162 C2161 1.387 . S
H2163 C2175 0.930 . S
H2164 C2177 0.930 . S
H2165 C2178 0.930 . S
H2166 C2182 0.959 . S
H2167 C2182 0.959 . S
H2168 C2182 0.961 . S
H2169 C2183 0.960 . S
H2170 C2183 0.961 . S
H2171 C2183 0.959 . S
H2172 C2186 0.929 . S
H2173 C2187 0.931 . S
H2174 C2189 0.930 . S
C2175 H2163 0.930 . S
C2175 C2176 1.399 . S
C2175 C2180 1.399 . S
C2176 C2175 1.399 . S
C2176 C2177 1.376 . S
C2177 H2164 0.930 . S
C2177 C2176 1.376 . S
C2177 C2178 1.388 . S
C2178 H2165 0.930 . S
C2178 C2177 1.388 . S
C2178 C2179 1.390 . S
C2179 C2178 1.390 . S
C2179 C2180 1.394 . S
C2179 C2185 1.465 . S
C2180 C2175 1.399 . S
C2180 C2179 1.394 . S
C2180 C2181 1.516 . S
C2181 C2180 1.516 . S
C2181 C2182 1.502 . S
C2181 C2183 1.561 . S
C2181 C2184 1.526 . S
C2182 H2166 0.959 . S
C2182 H2167 0.959 . S
C2182 H2168 0.961 . S
C2182 C2181 1.502 . S
C2183 H2169 0.960 . S
C2183 H2170 0.961 . S
C2183 H2171 0.959 . S
C2183 C2181 1.561 . S
C2184 C2181 1.526 . S
C2184 C2185 1.396 . S
C2184 C2189 1.390 . S
C2185 C2179 1.465 . S
C2185 C2184 1.396 . S
C2185 C2186 1.399 . S
C2186 H2172 0.929 . S
C2186 C2185 1.399 . S
C2186 C2187 1.385 . S
C2187 H2173 0.931 . S
C2187 C2186 1.385 . S
C2187 C2188 1.389 . S
C2188 C2187 1.389 . S
C2188 C2189 1.387 . S
C2189 H2174 0.930 . S
C2189 C2184 1.390 . S
C2189 C2188 1.387 . S
H2190 C2202 0.930 . S
H2191 C2204 0.930 . S
H2192 C2205 0.930 . S
H2193 C2209 0.959 . S
H2194 C2209 0.959 . S
H2195 C2209 0.961 . S
H2196 C2210 0.960 . S
H2197 C2210 0.961 . S
H2198 C2210 0.959 . S
H2199 C2213 0.929 . S
H2200 C2214 0.931 . S
H2201 C2216 0.930 . S
C2202 H2190 0.930 . S
C2202 C2203 1.399 . S
C2202 C2207 1.399 . S
C2203 C2202 1.399 . S
C2203 C2204 1.376 . S
C2204 H2191 0.930 . S
C2204 C2203 1.376 . S
C2204 C2205 1.388 . S
C2205 H2192 0.930 . S
C2205 C2204 1.388 . S
C2205 C2206 1.390 . S
C2206 C2205 1.390 . S
C2206 C2207 1.394 . S
C2206 C2212 1.465 . S
C2207 C2202 1.399 . S
C2207 C2206 1.394 . S
C2207 C2208 1.516 . S
C2208 C2207 1.516 . S
C2208 C2209 1.502 . S
C2208 C2210 1.561 . S
C2208 C2211 1.526 . S
C2209 H2193 0.959 . S
C2209 H2194 0.959 . S
C2209 H2195 0.961 . S
C2209 C2208 1.502 . S
C2210 H2196 0.960 . S
C2210 H2197 0.961 . S
C2210 H2198 0.959 . S
C2210 C2208 1.561 . S
C2211 C2208 1.526 . S
C2211 C2212 1.396 . S
C2211 C2216 1.390 . S
C2212 C2206 1.465 . S
C2212 C2211 1.396 . S
C2212 C2213 1.399 . S
C2213 H2199 0.929 . S
C2213 C2212 1.399 . S
C2213 C2214 1.385 . S
C2214 H2200 0.931 . S
C2214 C2213 1.385 . S
C2214 C2215 1.389 . S
C2215 C2214 1.389 . S
C2215 C2216 1.387 . S
C2216 H2201 0.930 . S
C2216 C2211 1.390 . S
C2216 C2215 1.387 . S
H2217 C2229 0.930 . S
H2218 C2231 0.930 . S
H2219 C2232 0.930 . S
H2220 C2236 0.959 . S
H2221 C2236 0.959 . S
H2222 C2236 0.961 . S
H2223 C2237 0.960 . S
H2224 C2237 0.961 . S
H2225 C2237 0.959 . S
H2226 C2240 0.929 . S
H2227 C2241 0.931 . S
H2228 C2243 0.930 . S
C2229 H2217 0.930 . S
C2229 C2230 1.399 . S
C2229 C2234 1.399 . S
C2230 C2229 1.399 . S
C2230 C2231 1.376 . S
C2231 H2218 0.930 . S
C2231 C2230 1.376 . S
C2231 C2232 1.388 . S
C2232 H2219 0.930 . S
C2232 C2231 1.388 . S
C2232 C2233 1.390 . S
C2233 C2232 1.390 . S
C2233 C2234 1.394 . S
C2233 C2239 1.465 . S
C2234 C2229 1.399 . S
C2234 C2233 1.394 . S
C2234 C2235 1.516 . S
C2235 C2234 1.516 . S
C2235 C2236 1.502 . S
C2235 C2237 1.561 . S
C2235 C2238 1.526 . S
C2236 H2220 0.959 . S
C2236 H2221 0.959 . S
C2236 H2222 0.961 . S
C2236 C2235 1.502 . S
C2237 H2223 0.960 . S
C2237 H2224 0.961 . S
C2237 H2225 0.959 . S
C2237 C2235 1.561 . S
C2238 C2235 1.526 . S
C2238 C2239 1.396 . S
C2238 C2243 1.390 . S
C2239 C2233 1.465 . S
C2239 C2238 1.396 . S
C2239 C2240 1.399 . S
C2240 H2226 0.929 . S
C2240 C2239 1.399 . S
C2240 C2241 1.385 . S
C2241 H2227 0.931 . S
C2241 C2240 1.385 . S
C2241 C2242 1.389 . S
C2242 C2241 1.389 . S
C2242 C2243 1.387 . S
C2243 H2228 0.930 . S
C2243 C2238 1.390 . S
C2243 C2242 1.387 . S
H2244 C2256 0.930 . S
H2245 C2258 0.930 . S
H2246 C2259 0.930 . S
H2247 C2263 0.959 . S
H2248 C2263 0.959 . S
H2249 C2263 0.961 . S
H2250 C2264 0.960 . S
H2251 C2264 0.961 . S
H2252 C2264 0.959 . S
H2253 C2267 0.929 . S
H2254 C2268 0.931 . S
H2255 C2270 0.930 . S
C2256 H2244 0.930 . S
C2256 C2257 1.399 . S
C2256 C2261 1.399 . S
C2257 C2256 1.399 . S
C2257 C2258 1.376 . S
C2258 H2245 0.930 . S
C2258 C2257 1.376 . S
C2258 C2259 1.388 . S
C2259 H2246 0.930 . S
C2259 C2258 1.388 . S
C2259 C2260 1.390 . S
C2260 C2259 1.390 . S
C2260 C2261 1.394 . S
C2260 C2266 1.465 . S
C2261 C2256 1.399 . S
C2261 C2260 1.394 . S
C2261 C2262 1.516 . S
C2262 C2261 1.516 . S
C2262 C2263 1.502 . S
C2262 C2264 1.561 . S
C2262 C2265 1.526 . S
C2263 H2247 0.959 . S
C2263 H2248 0.959 . S
C2263 H2249 0.961 . S
C2263 C2262 1.502 . S
C2264 H2250 0.960 . S
C2264 H2251 0.961 . S
C2264 H2252 0.959 . S
C2264 C2262 1.561 . S
C2265 C2262 1.526 . S
C2265 C2266 1.396 . S
C2265 C2270 1.390 . S
C2266 C2260 1.465 . S
C2266 C2265 1.396 . S
C2266 C2267 1.399 . S
C2267 H2253 0.929 . S
C2267 C2266 1.399 . S
C2267 C2268 1.385 . S
C2268 H2254 0.931 . S
C2268 C2267 1.385 . S
C2268 C2269 1.389 . S
C2269 C2268 1.389 . S
C2269 C2270 1.387 . S
C2270 H2255 0.930 . S
C2270 C2265 1.390 . S
C2270 C2269 1.387 . S
H2271 C2283 0.930 . S
H2272 C2285 0.930 . S
H2273 C2286 0.930 . S
H2274 C2290 0.959 . S
H2275 C2290 0.959 . S
H2276 C2290 0.961 . S
H2277 C2291 0.960 . S
H2278 C2291 0.961 . S
H2279 C2291 0.959 . S
H2280 C2294 0.929 . S
H2281 C2295 0.931 . S
H2282 C2297 0.930 . S
C2283 H2271 0.930 . S
C2283 C2284 1.399 . S
C2283 C2288 1.399 . S
C2284 C2283 1.399 . S
C2284 C2285 1.376 . S
C2285 H2272 0.930 . S
C2285 C2284 1.376 . S
C2285 C2286 1.388 . S
C2286 H2273 0.930 . S
C2286 C2285 1.388 . S
C2286 C2287 1.390 . S
C2287 C2286 1.390 . S
C2287 C2288 1.394 . S
C2287 C2293 1.465 . S
C2288 C2283 1.399 . S
C2288 C2287 1.394 . S
C2288 C2289 1.516 . S
C2289 C2288 1.516 . S
C2289 C2290 1.502 . S
C2289 C2291 1.561 . S
C2289 C2292 1.526 . S
C2290 H2274 0.959 . S
C2290 H2275 0.959 . S
C2290 H2276 0.961 . S
C2290 C2289 1.502 . S
C2291 H2277 0.960 . S
C2291 H2278 0.961 . S
C2291 H2279 0.959 . S
C2291 C2289 1.561 . S
C2292 C2289 1.526 . S
C2292 C2293 1.396 . S
C2292 C2297 1.390 . S
C2293 C2287 1.465 . S
C2293 C2292 1.396 . S
C2293 C2294 1.399 . S
C2294 H2280 0.929 . S
C2294 C2293 1.399 . S
C2294 C2295 1.385 . S
C2295 H2281 0.931 . S
C2295 C2294 1.385 . S
C2295 C2296 1.389 . S
C2296 C2295 1.389 . S
C2296 C2297 1.387 . S
C2297 H2282 0.930 . S
C2297 C2292 1.390 . S
C2297 C2296 1.387 . S
H2298 C2310 0.930 . S
H2299 C2312 0.930 . S
H2300 C2313 0.930 . S
H2301 C2317 0.959 . S
H2302 C2317 0.959 . S
H2303 C2317 0.961 . S
H2304 C2318 0.960 . S
H2305 C2318 0.961 . S
H2306 C2318 0.959 . S
H2307 C2321 0.929 . S
H2308 C2322 0.931 . S
H2309 C2324 0.930 . S
C2310 H2298 0.930 . S
C2310 C2311 1.399 . S
C2310 C2315 1.399 . S
C2311 C2310 1.399 . S
C2311 C2312 1.376 . S
C2312 H2299 0.930 . S
C2312 C2311 1.376 . S
C2312 C2313 1.388 . S
C2313 H2300 0.930 . S
C2313 C2312 1.388 . S
C2313 C2314 1.390 . S
C2314 C2313 1.390 . S
C2314 C2315 1.394 . S
C2314 C2320 1.465 . S
C2315 C2310 1.399 . S
C2315 C2314 1.394 . S
C2315 C2316 1.516 . S
C2316 C2315 1.516 . S
C2316 C2317 1.502 . S
C2316 C2318 1.561 . S
C2316 C2319 1.526 . S
C2317 H2301 0.959 . S
C2317 H2302 0.959 . S
C2317 H2303 0.961 . S
C2317 C2316 1.502 . S
C2318 H2304 0.960 . S
C2318 H2305 0.961 . S
C2318 H2306 0.959 . S
C2318 C2316 1.561 . S
C2319 C2316 1.526 . S
C2319 C2320 1.396 . S
C2319 C2324 1.390 . S
C2320 C2314 1.465 . S
C2320 C2319 1.396 . S
C2320 C2321 1.399 . S
C2321 H2307 0.929 . S
C2321 C2320 1.399 . S
C2321 C2322 1.385 . S
C2322 H2308 0.931 . S
C2322 C2321 1.385 . S
C2322 C2323 1.389 . S
C2323 C2322 1.389 . S
C2323 C2324 1.387 . S
C2324 H2309 0.930 . S
C2324 C2319 1.390 . S
C2324 C2323 1.387 . S
H2325 C2337 0.930 . S
H2326 C2339 0.930 . S
H2327 C2340 0.930 . S
H2328 C2344 0.959 . S
H2329 C2344 0.959 . S
H2330 C2344 0.961 . S
H2331 C2345 0.960 . S
H2332 C2345 0.961 . S
H2333 C2345 0.959 . S
H2334 C2348 0.929 . S
H2335 C2349 0.931 . S
H2336 C2351 0.930 . S
C2337 H2325 0.930 . S
C2337 C2338 1.399 . S
C2337 C2342 1.399 . S
C2338 C2337 1.399 . S
C2338 C2339 1.376 . S
C2339 H2326 0.930 . S
C2339 C2338 1.376 . S
C2339 C2340 1.388 . S
C2340 H2327 0.930 . S
C2340 C2339 1.388 . S
C2340 C2341 1.390 . S
C2341 C2340 1.390 . S
C2341 C2342 1.394 . S
C2341 C2347 1.465 . S
C2342 C2337 1.399 . S
C2342 C2341 1.394 . S
C2342 C2343 1.516 . S
C2343 C2342 1.516 . S
C2343 C2344 1.502 . S
C2343 C2345 1.561 . S
C2343 C2346 1.526 . S
C2344 H2328 0.959 . S
C2344 H2329 0.959 . S
C2344 H2330 0.961 . S
C2344 C2343 1.502 . S
C2345 H2331 0.960 . S
C2345 H2332 0.961 . S
C2345 H2333 0.959 . S
C2345 C2343 1.561 . S
C2346 C2343 1.526 . S
C2346 C2347 1.396 . S
C2346 C2351 1.390 . S
C2347 C2341 1.465 . S
C2347 C2346 1.396 . S
C2347 C2348 1.399 . S
C2348 H2334 0.929 . S
C2348 C2347 1.399 . S
C2348 C2349 1.385 . S
C2349 H2335 0.931 . S
C2349 C2348 1.385 . S
C2349 C2350 1.389 . S
C2350 C2349 1.389 . S
C2350 C2351 1.387 . S
C2351 H2336 0.930 . S
C2351 C2346 1.390 . S
C2351 C2350 1.387 . S
H2352 C2364 0.930 . S
H2353 C2366 0.930 . S
H2354 C2367 0.951 . S
H2355 C2371 0.959 . S
H2356 C2371 0.959 . S
H2357 C2371 0.961 . S
H2358 C2372 0.960 1_565 S
H2359 C2372 0.961 . S
H2360 C2372 0.959 . S
H2361 C2375 0.929 . S
H2362 C2376 0.931 . S
H2363 C2378 0.930 . S
C2364 H2352 0.930 . S
C2364 C2365 1.399 . S
C2364 C2369 1.399 . S
C2365 C2364 1.399 . S
C2365 C2366 1.376 . S
C2366 H2353 0.930 . S
C2366 C2365 1.376 . S
C2366 C2367 1.368 1_565 S
C2367 H2354 0.951 . S
C2367 C2366 1.368 1_545 S
C2367 C2368 1.390 . S
C2368 C2367 1.390 . S
C2368 C2369 1.376 1_545 S
C2368 C2374 1.481 . S
C2369 C2364 1.399 . S
C2369 C2368 1.376 1_565 S
C2369 C2370 1.516 . S
C2370 C2369 1.516 . S
C2370 C2371 1.502 . S
C2370 C2372 1.561 1_565 S
C2370 C2373 1.526 1_565 S
C2371 H2355 0.959 . S
C2371 H2356 0.959 . S
C2371 H2357 0.961 . S
C2371 C2370 1.502 . S
C2372 H2358 0.960 1_545 S
C2372 H2359 0.961 . S
C2372 H2360 0.959 . S
C2372 C2370 1.561 1_545 S
C2373 C2370 1.526 1_545 S
C2373 C2374 1.396 . S
C2373 C2378 1.390 . S
C2374 C2368 1.481 . S
C2374 C2373 1.396 . S
C2374 C2375 1.399 . S
C2375 H2361 0.929 . S
C2375 C2374 1.399 . S
C2375 C2376 1.385 . S
C2376 H2362 0.931 . S
C2376 C2375 1.385 . S
C2376 C2377 1.389 . S
C2377 C2376 1.389 . S
C2377 C2378 1.387 . S
C2378 H2363 0.930 . S
C2378 C2373 1.390 . S
C2378 C2377 1.387 . S
H2379 C2391 0.930 . S
H2380 C2393 0.930 . S
H2381 C2394 0.930 . S
H2382 C2398 0.959 . S
H2383 C2398 0.959 . S
H2384 C2398 0.961 . S
H2385 C2399 0.960 . S
H2386 C2399 0.961 . S
H2387 C2399 0.959 . S
H2388 C2402 0.929 . S
H2389 C2403 0.931 . S
H2390 C2405 0.930 . S
C2391 H2379 0.930 . S
C2391 C2392 1.399 . S
C2391 C2396 1.399 . S
C2392 C2391 1.399 . S
C2392 C2393 1.376 . S
C2393 H2380 0.930 . S
C2393 C2392 1.376 . S
C2393 C2394 1.388 1_455 S
C2394 H2381 0.930 . S
C2394 C2393 1.388 1_655 S
C2394 C2395 1.388 1_655 S
C2395 C2394 1.388 1_455 S
C2395 C2396 1.407 . S
C2395 C2401 1.455 1_455 S
C2396 C2391 1.399 . S
C2396 C2395 1.407 . S
C2396 C2397 1.516 . S
C2397 C2396 1.516 . S
C2397 C2398 1.502 . S
C2397 C2399 1.561 . S
C2397 C2400 1.526 1_455 S
C2398 H2382 0.959 . S
C2398 H2383 0.959 . S
C2398 H2384 0.961 . S
C2398 C2397 1.502 . S
C2399 H2385 0.960 . S
C2399 H2386 0.961 . S
C2399 H2387 0.959 . S
C2399 C2397 1.561 . S
C2400 C2397 1.526 1_655 S
C2400 C2401 1.396 . S
C2400 C2405 1.390 . S
C2401 C2395 1.455 1_655 S
C2401 C2400 1.396 . S
C2401 C2402 1.399 . S
C2402 H2388 0.929 . S
C2402 C2401 1.399 . S
C2402 C2403 1.385 . S
C2403 H2389 0.931 . S
C2403 C2402 1.385 . S
C2403 C2404 1.389 . S
C2404 C2403 1.389 . S
C2404 C2405 1.387 . S
C2405 H2390 0.930 . S
C2405 C2400 1.390 . S
C2405 C2404 1.387 . S
H2406 C2418 0.930 . S
H2407 C2420 0.930 . S
H2408 C2421 0.930 . S
H2409 C2425 0.959 . S
H2410 C2425 0.959 . S
H2411 C2425 0.961 1_556 S
H2412 C2426 0.960 . S
H2413 C2426 0.961 . S
H2414 C2426 0.959 . S
H2415 C2429 0.929 . S
H2416 C2430 0.931 . S
H2417 C2432 0.930 . S
C2418 H2406 0.930 . S
C2418 C2419 1.399 . S
C2418 C2423 1.399 . S
C2419 C2418 1.399 . S
C2419 C2420 1.376 . S
C2420 H2407 0.930 . S
C2420 C2419 1.376 . S
C2420 C2421 1.388 . S
C2421 H2408 0.930 . S
C2421 C2420 1.388 . S
C2421 C2422 1.390 . S
C2422 C2421 1.390 . S
C2422 C2423 1.394 . S
C2422 C2428 1.465 1_556 S
C2423 C2418 1.399 . S
C2423 C2422 1.394 . S
C2423 C2424 1.516 . S
C2424 C2423 1.516 . S
C2424 C2425 1.502 1_556 S
C2424 C2426 1.561 . S
C2424 C2427 1.526 1_556 S
C2425 H2409 0.959 . S
C2425 H2410 0.959 . S
C2425 H2411 0.961 1_554 S
C2425 C2424 1.502 1_554 S
C2426 H2412 0.960 . S
C2426 H2413 0.961 . S
C2426 H2414 0.959 . S
C2426 C2424 1.561 . S
C2427 C2424 1.526 1_554 S
C2427 C2428 1.396 . S
C2427 C2432 1.390 . S
C2428 C2422 1.465 1_554 S
C2428 C2427 1.396 . S
C2428 C2429 1.399 . S
C2429 H2415 0.929 . S
C2429 C2428 1.399 . S
C2429 C2430 1.385 . S
C2430 H2416 0.931 . S
C2430 C2429 1.385 . S
C2430 C2431 1.389 . S
C2431 C2430 1.389 . S
C2431 C2432 1.387 . S
C2432 H2417 0.930 . S
C2432 C2427 1.390 . S
C2432 C2431 1.387 . S
H2433 C2445 0.930 . S
H2434 C2447 0.941 . S
H2435 C2448 0.930 . S
H2436 C2452 0.959 . S
H2437 C2452 0.959 1_455 S
H2438 C2452 0.961 . S
H2439 C2453 0.959 1_554 S
H2440 C2453 0.961 . S
H2441 C2453 0.959 1_554 S
H2442 C2456 0.929 . S
H2443 C2457 0.931 . S
H2444 C2459 0.930 1_545 S
C2445 H2433 0.930 . S
C2445 C2446 1.399 . S
C2445 C2450 1.399 . S
C2446 C2445 1.399 . S
C2446 C2447 1.376 . S
C2447 H2434 0.941 . S
C2447 C2446 1.376 . S
C2447 C2448 1.388 1_545 S
C2448 H2435 0.930 . S
C2448 C2447 1.388 1_565 S
C2448 C2449 1.390 . S
C2449 C2448 1.390 . S
C2449 C2450 1.394 1_565 S
C2449 C2455 1.468 1_654 S
C2450 C2445 1.399 . S
C2450 C2449 1.394 1_545 S
C2450 C2451 1.516 1_654 S
C2451 C2450 1.516 1_456 S
C2451 C2452 1.502 1_455 S
C2451 C2453 1.561 . S
C2451 C2454 1.511 1_545 S
C2452 H2436 0.959 . S
C2452 H2437 0.959 1_655 S
C2452 H2438 0.961 . S
C2452 C2451 1.502 1_655 S
C2453 H2439 0.959 1_556 S
C2453 H2440 0.961 . S
C2453 H2441 0.959 1_556 S
C2453 C2451 1.561 . S
C2454 C2451 1.511 1_565 S
C2454 C2455 1.403 . S
C2454 C2459 1.395 . S
C2455 C2449 1.468 1_456 S
C2455 C2454 1.403 . S
C2455 C2456 1.399 1_556 S
C2456 H2442 0.929 . S
C2456 C2455 1.399 1_554 S
C2456 C2457 1.385 1_554 S
C2457 H2443 0.931 . S
C2457 C2456 1.385 1_556 S
C2457 C2458 1.389 . S
C2458 C2457 1.389 . S
C2458 C2459 1.387 . S
C2459 H2444 0.930 1_565 S
C2459 C2454 1.395 . S
C2459 C2458 1.387 . S
H2460 C2472 0.930 1_545 S
H2461 C2474 0.930 . S
H2462 C2475 0.930 . S
H2463 C2479 0.959 . S
H2464 C2479 0.959 . S
H2465 C2479 0.961 . S
H2466 C2480 0.960 . S
H2467 C2480 0.961 . S
H2468 C2480 0.959 . S
H2469 C2483 0.929 . S
H2470 C2484 0.907 1_565 S
H2471 C2486 0.930 . S
C2472 H2460 0.930 1_565 S
C2472 C2473 1.399 . S
C2472 C2477 1.399 . S
C2473 C2472 1.399 . S
C2473 C2474 1.376 . S
C2474 H2461 0.930 . S
C2474 C2473 1.376 . S
C2474 C2475 1.388 . S
C2475 H2462 0.930 . S
C2475 C2474 1.388 . S
C2475 C2476 1.390 . S
C2476 C2475 1.390 . S
C2476 C2477 1.395 . S
C2476 C2482 1.465 . S
C2477 C2472 1.399 . S
C2477 C2476 1.395 . S
C2477 C2478 1.515 1_565 S
C2478 C2477 1.515 1_545 S
C2478 C2479 1.502 . S
C2478 C2480 1.561 . S
C2478 C2481 1.526 . S
C2479 H2463 0.959 . S
C2479 H2464 0.959 . S
C2479 H2465 0.961 . S
C2479 C2478 1.502 . S
C2480 H2466 0.960 . S
C2480 H2467 0.961 . S
C2480 H2468 0.959 . S
C2480 C2478 1.561 . S
C2481 C2478 1.526 . S
C2481 C2482 1.396 1_545 S
C2481 C2486 1.390 . S
C2482 C2476 1.465 . S
C2482 C2481 1.396 1_565 S
C2482 C2483 1.399 . S
C2483 H2469 0.929 . S
C2483 C2482 1.399 . S
C2483 C2484 1.385 1_565 S
C2484 H2470 0.907 1_545 S
C2484 C2483 1.385 1_545 S
C2484 C2485 1.389 . S
C2485 C2484 1.389 . S
C2485 C2486 1.387 . S
C2486 H2471 0.930 . S
C2486 C2481 1.390 . S
C2486 C2485 1.387 . S
H2487 C2499 0.930 . S
H2488 C2501 0.930 . S
H2489 C2502 0.930 . S
H2490 C2506 0.959 . S
H2491 C2506 0.959 . S
H2492 C2506 0.961 . S
H2493 C2507 0.960 . S
H2494 C2507 0.961 . S
H2495 C2507 0.959 . S
H2496 C2510 0.929 . S
H2497 C2511 0.931 . S
H2498 C2513 0.930 . S
C2499 H2487 0.930 . S
C2499 C2500 1.399 . S
C2499 C2504 1.399 . S
C2500 C2499 1.399 . S
C2500 C2501 1.376 . S
C2501 H2488 0.930 . S
C2501 C2500 1.376 . S
C2501 C2502 1.388 . S
C2502 H2489 0.930 . S
C2502 C2501 1.388 . S
C2502 C2503 1.390 . S
C2503 C2502 1.390 . S
C2503 C2504 1.394 . S
C2503 C2509 1.486 . S
C2504 C2499 1.399 . S
C2504 C2503 1.394 . S
C2504 C2505 1.516 1_455 S
C2505 C2504 1.516 1_655 S
C2505 C2506 1.502 . S
C2505 C2507 1.561 . S
C2505 C2508 1.526 . S
C2506 H2490 0.959 . S
C2506 H2491 0.959 . S
C2506 H2492 0.961 . S
C2506 C2505 1.502 . S
C2507 H2493 0.960 . S
C2507 H2494 0.961 . S
C2507 H2495 0.959 . S
C2507 C2505 1.561 . S
C2508 C2505 1.526 . S
C2508 C2509 1.370 1_655 S
C2508 C2513 1.390 . S
C2509 C2503 1.486 . S
C2509 C2508 1.370 1_455 S
C2509 C2510 1.401 . S
C2510 H2496 0.929 . S
C2510 C2509 1.401 . S
C2510 C2511 1.385 1_455 S
C2511 H2497 0.931 . S
C2511 C2510 1.385 1_655 S
C2511 C2512 1.389 . S
C2512 C2511 1.389 . S
C2512 C2513 1.387 . S
C2513 H2498 0.930 . S
C2513 C2508 1.390 . S
C2513 C2512 1.387 . S
H2514 C2526 0.930 . S
H2515 C2528 0.930 . S
H2516 C2529 0.930 . S
H2517 C2533 0.959 . S
H2518 C2533 0.959 . S
H2519 C2533 0.961 . S
H2520 C2534 0.960 . S
H2521 C2534 0.961 . S
H2522 C2534 0.959 . S
H2523 C2537 0.929 . S
H2524 C2538 0.931 . S
H2525 C2540 0.930 . S
C2526 H2514 0.930 . S
C2526 C2527 1.399 . S
C2526 C2531 1.399 . S
C2527 C2526 1.399 . S
C2527 C2528 1.376 . S
C2528 H2515 0.930 . S
C2528 C2527 1.376 . S
C2528 C2529 1.388 . S
C2529 H2516 0.930 . S
C2529 C2528 1.388 . S
C2529 C2530 1.390 . S
C2530 C2529 1.390 . S
C2530 C2531 1.394 . S
C2530 C2536 1.465 . S
C2531 C2526 1.399 . S
C2531 C2530 1.394 . S
C2531 C2532 1.516 1_554 S
C2532 C2531 1.516 1_556 S
C2532 C2533 1.502 . S
C2532 C2534 1.561 . S
C2532 C2535 1.526 . S
C2533 H2517 0.959 . S
C2533 H2518 0.959 . S
C2533 H2519 0.961 . S
C2533 C2532 1.502 . S
C2534 H2520 0.960 . S
C2534 H2521 0.961 . S
C2534 H2522 0.959 . S
C2534 C2532 1.561 . S
C2535 C2532 1.526 . S
C2535 C2536 1.396 1_556 S
C2535 C2540 1.390 . S
C2536 C2530 1.465 . S
C2536 C2535 1.396 1_554 S
C2536 C2537 1.399 . S
C2537 H2523 0.929 . S
C2537 C2536 1.399 . S
C2537 C2538 1.385 1_554 S
C2538 H2524 0.931 . S
C2538 C2537 1.385 1_556 S
C2538 C2539 1.389 . S
C2539 C2538 1.389 . S
C2539 C2540 1.387 . S
C2540 H2525 0.930 . S
C2540 C2535 1.390 . S
C2540 C2539 1.387 . S
H2541 C2553 0.930 . S
H2542 C2555 0.930 . S
H2543 C2556 0.930 . S
H2544 C2560 0.959 . S
H2545 C2560 0.959 . S
H2546 C2560 0.961 . S
H2547 C2561 0.960 . S
H2548 C2561 0.961 . S
H2549 C2561 0.959 . S
H2550 C2564 0.929 . S
H2551 C2565 0.931 . S
H2552 C2567 0.930 . S
C2553 H2541 0.930 . S
C2553 C2554 1.399 . S
C2553 C2558 1.399 . S
C2554 C2553 1.399 . S
C2554 C2555 1.376 . S
C2555 H2542 0.930 . S
C2555 C2554 1.376 . S
C2555 C2556 1.388 . S
C2556 H2543 0.930 . S
C2556 C2555 1.388 . S
C2556 C2557 1.390 . S
C2557 C2556 1.390 . S
C2557 C2558 1.394 . S
C2557 C2563 1.465 . S
C2558 C2553 1.399 . S
C2558 C2557 1.394 . S
C2558 C2559 1.516 . S
C2559 C2558 1.516 . S
C2559 C2560 1.502 . S
C2559 C2561 1.561 . S
C2559 C2562 1.526 . S
C2560 H2544 0.959 . S
C2560 H2545 0.959 . S
C2560 H2546 0.961 . S
C2560 C2559 1.502 . S
C2561 H2547 0.960 . S
C2561 H2548 0.961 . S
C2561 H2549 0.959 . S
C2561 C2559 1.561 . S
C2562 C2559 1.526 . S
C2562 C2563 1.396 . S
C2562 C2567 1.390 . S
C2563 C2557 1.465 . S
C2563 C2562 1.396 . S
C2563 C2564 1.399 . S
C2564 H2550 0.929 . S
C2564 C2563 1.399 . S
C2564 C2565 1.385 . S
C2565 H2551 0.931 . S
C2565 C2564 1.385 . S
C2565 C2566 1.389 . S
C2566 C2565 1.389 . S
C2566 C2567 1.387 . S
C2567 H2552 0.930 . S
C2567 C2562 1.390 . S
C2567 C2566 1.387 . S
H2568 C2580 0.930 . S
H2569 C2582 0.930 . S
H2570 C2583 0.930 . S
H2571 C2587 0.959 . S
H2572 C2587 0.959 . S
H2573 C2587 0.961 . S
H2574 C2588 0.960 . S
H2575 C2588 0.961 . S
H2576 C2588 0.959 . S
H2577 C2591 0.929 . S
H2578 C2592 0.931 . S
H2579 C2594 0.930 . S
C2580 H2568 0.930 . S
C2580 C2581 1.399 . S
C2580 C2585 1.399 . S
C2581 C2580 1.399 . S
C2581 C2582 1.376 . S
C2582 H2569 0.930 . S
C2582 C2581 1.376 . S
C2582 C2583 1.388 . S
C2583 H2570 0.930 . S
C2583 C2582 1.388 . S
C2583 C2584 1.390 . S
C2584 C2583 1.390 . S
C2584 C2585 1.394 . S
C2584 C2590 1.465 . S
C2585 C2580 1.399 . S
C2585 C2584 1.394 . S
C2585 C2586 1.516 . S
C2586 C2585 1.516 . S
C2586 C2587 1.502 . S
C2586 C2588 1.561 . S
C2586 C2589 1.526 . S
C2587 H2571 0.959 . S
C2587 H2572 0.959 . S
C2587 H2573 0.961 . S
C2587 C2586 1.502 . S
C2588 H2574 0.960 . S
C2588 H2575 0.961 . S
C2588 H2576 0.959 . S
C2588 C2586 1.561 . S
C2589 C2586 1.526 . S
C2589 C2590 1.396 . S
C2589 C2594 1.390 . S
C2590 C2584 1.465 . S
C2590 C2589 1.396 . S
C2590 C2591 1.399 . S
C2591 H2577 0.929 . S
C2591 C2590 1.399 . S
C2591 C2592 1.385 . S
C2592 H2578 0.931 . S
C2592 C2591 1.385 . S
C2592 C2593 1.389 . S
C2593 C2592 1.389 . S
C2593 C2594 1.387 . S
C2594 H2579 0.930 . S
C2594 C2589 1.390 . S
C2594 C2593 1.387 . S
H2595 C2607 0.930 . S
H2596 C2609 0.930 . S
H2597 C2610 0.930 . S
H2598 C2614 0.959 . S
H2599 C2614 0.959 . S
H2600 C2614 0.961 . S
H2601 C2615 0.960 . S
H2602 C2615 0.961 . S
H2603 C2615 0.959 . S
H2604 C2618 0.929 . S
H2605 C2619 0.931 . S
H2606 C2621 0.930 . S
C2607 H2595 0.930 . S
C2607 C2608 1.399 . S
C2607 C2612 1.399 . S
C2608 C2607 1.399 . S
C2608 C2609 1.376 . S
C2609 H2596 0.930 . S
C2609 C2608 1.376 . S
C2609 C2610 1.388 . S
C2610 H2597 0.930 . S
C2610 C2609 1.388 . S
C2610 C2611 1.390 . S
C2611 C2610 1.390 . S
C2611 C2612 1.394 . S
C2611 C2617 1.465 1_455 S
C2612 C2607 1.399 . S
C2612 C2611 1.394 . S
C2612 C2613 1.516 . S
C2613 C2612 1.516 . S
C2613 C2614 1.502 1_455 S
C2613 C2615 1.561 . S
C2613 C2616 1.526 1_455 S
C2614 H2598 0.959 . S
C2614 H2599 0.959 . S
C2614 H2600 0.961 . S
C2614 C2613 1.502 1_655 S
C2615 H2601 0.960 . S
C2615 H2602 0.961 . S
C2615 H2603 0.959 . S
C2615 C2613 1.561 . S
C2616 C2613 1.526 1_655 S
C2616 C2617 1.396 . S
C2616 C2621 1.390 . S
C2617 C2611 1.465 1_655 S
C2617 C2616 1.396 . S
C2617 C2618 1.399 . S
C2618 H2604 0.929 . S
C2618 C2617 1.399 . S
C2618 C2619 1.385 . S
C2619 H2605 0.931 . S
C2619 C2618 1.385 . S
C2619 C2620 1.389 . S
C2620 C2619 1.389 . S
C2620 C2621 1.387 . S
C2621 H2606 0.930 . S
C2621 C2616 1.390 . S
C2621 C2620 1.387 . S
H2622 C2634 0.930 . S
H2623 C2636 0.930 . S
H2624 C2637 0.930 . S
H2625 C2641 0.959 . S
H2626 C2641 0.959 . S
H2627 C2641 0.961 . S
H2628 C2642 0.960 . S
H2629 C2642 0.961 . S
H2630 C2642 0.959 . S
H2631 C2645 0.929 . S
H2632 C2646 0.931 . S
H2633 C2648 0.930 . S
C2634 H2622 0.930 . S
C2634 C2635 1.399 . S
C2634 C2639 1.399 . S
C2635 C2634 1.399 . S
C2635 C2636 1.376 . S
C2636 H2623 0.930 . S
C2636 C2635 1.376 . S
C2636 C2637 1.388 . S
C2637 H2624 0.930 . S
C2637 C2636 1.388 . S
C2637 C2638 1.390 . S
C2638 C2637 1.390 . S
C2638 C2639 1.394 . S
C2638 C2644 1.465 . S
C2639 C2634 1.399 . S
C2639 C2638 1.394 . S
C2639 C2640 1.516 . S
C2640 C2639 1.516 . S
C2640 C2641 1.502 . S
C2640 C2642 1.561 . S
C2640 C2643 1.526 . S
C2641 H2625 0.959 . S
C2641 H2626 0.959 . S
C2641 H2627 0.961 . S
C2641 C2640 1.502 . S
C2642 H2628 0.960 . S
C2642 H2629 0.961 . S
C2642 H2630 0.959 . S
C2642 C2640 1.561 . S
C2643 C2640 1.526 . S
C2643 C2644 1.396 . S
C2643 C2648 1.390 . S
C2644 C2638 1.465 . S
C2644 C2643 1.396 . S
C2644 C2645 1.399 . S
C2645 H2631 0.929 . S
C2645 C2644 1.399 . S
C2645 C2646 1.385 . S
C2646 H2632 0.931 . S
C2646 C2645 1.385 . S
C2646 C2647 1.389 . S
C2647 C2646 1.389 . S
C2647 C2648 1.387 . S
C2648 H2633 0.930 . S
C2648 C2643 1.390 . S
C2648 C2647 1.387 . S
H2649 C2661 0.930 . S
H2650 C2663 0.930 . S
H2651 C2664 0.930 . S
H2652 C2668 0.959 . S
H2653 C2668 0.959 . S
H2654 C2668 0.961 . S
H2655 C2669 0.960 . S
H2656 C2669 0.961 . S
H2657 C2669 0.959 . S
H2658 C2672 0.929 . S
H2659 C2673 0.931 . S
H2660 C2675 0.930 . S
C2661 H2649 0.930 . S
C2661 C2662 1.399 . S
C2661 C2666 1.399 . S
C2662 C2661 1.399 . S
C2662 C2663 1.376 . S
C2663 H2650 0.930 . S
C2663 C2662 1.376 . S
C2663 C2664 1.388 . S
C2664 H2651 0.930 . S
C2664 C2663 1.388 . S
C2664 C2665 1.390 . S
C2665 C2664 1.390 . S
C2665 C2666 1.394 . S
C2665 C2671 1.465 . S
C2666 C2661 1.399 . S
C2666 C2665 1.394 . S
C2666 C2667 1.516 . S
C2667 C2666 1.516 . S
C2667 C2668 1.502 . S
C2667 C2669 1.561 . S
C2667 C2670 1.526 . S
C2668 H2652 0.959 . S
C2668 H2653 0.959 . S
C2668 H2654 0.961 . S
C2668 C2667 1.502 . S
C2669 H2655 0.960 . S
C2669 H2656 0.961 . S
C2669 H2657 0.959 . S
C2669 C2667 1.561 . S
C2670 C2667 1.526 . S
C2670 C2671 1.396 . S
C2670 C2675 1.390 . S
C2671 C2665 1.465 . S
C2671 C2670 1.396 . S
C2671 C2672 1.399 . S
C2672 H2658 0.929 . S
C2672 C2671 1.399 . S
C2672 C2673 1.385 . S
C2673 H2659 0.931 . S
C2673 C2672 1.385 . S
C2673 C2674 1.389 . S
C2674 C2673 1.389 . S
C2674 C2675 1.387 . S
C2675 H2660 0.930 . S
C2675 C2670 1.390 . S
C2675 C2674 1.387 . S
H2676 C2688 0.930 . S
H2677 C2690 0.930 . S
H2678 C2691 0.930 . S
H2679 C2695 0.959 . S
H2680 C2695 0.959 . S
H2681 C2695 0.961 . S
H2682 C2696 0.960 . S
H2683 C2696 0.961 . S
H2684 C2696 0.959 . S
H2685 C2699 0.929 . S
H2686 C2700 0.931 . S
H2687 C2702 0.930 . S
C2688 H2676 0.930 . S
C2688 C2689 1.399 . S
C2688 C2693 1.399 . S
C2689 C2688 1.399 . S
C2689 C2690 1.376 . S
C2690 H2677 0.930 . S
C2690 C2689 1.376 . S
C2690 C2691 1.388 . S
C2691 H2678 0.930 . S
C2691 C2690 1.388 . S
C2691 C2692 1.390 . S
C2692 C2691 1.390 . S
C2692 C2693 1.394 . S
C2692 C2698 1.465 . S
C2693 C2688 1.399 . S
C2693 C2692 1.394 . S
C2693 C2694 1.516 . S
C2694 C2693 1.516 . S
C2694 C2695 1.502 . S
C2694 C2696 1.561 . S
C2694 C2697 1.526 . S
C2695 H2679 0.959 . S
C2695 H2680 0.959 . S
C2695 H2681 0.961 . S
C2695 C2694 1.502 . S
C2696 H2682 0.960 . S
C2696 H2683 0.961 . S
C2696 H2684 0.959 . S
C2696 C2694 1.561 . S
C2697 C2694 1.526 . S
C2697 C2698 1.396 . S
C2697 C2702 1.390 . S
C2698 C2692 1.465 . S
C2698 C2697 1.396 . S
C2698 C2699 1.399 . S
C2699 H2685 0.929 . S
C2699 C2698 1.399 . S
C2699 C2700 1.385 . S
C2700 H2686 0.931 . S
C2700 C2699 1.385 . S
C2700 C2701 1.389 . S
C2701 C2700 1.389 . S
C2701 C2702 1.387 . S
C2702 H2687 0.930 . S
C2702 C2697 1.390 . S
C2702 C2701 1.387 . S
H2703 C2715 0.930 1_545 S
H2704 C2717 0.930 . S
H2705 C2718 0.930 . S
H2706 C2722 0.959 . S
H2707 C2722 0.959 . S
H2708 C2722 0.961 . S
H2709 C2723 0.960 . S
H2710 C2723 0.961 . S
H2711 C2723 0.959 . S
H2712 C2726 0.929 . S
H2713 C2727 0.920 1_565 S
H2714 C2729 0.930 . S
C2715 H2703 0.930 1_565 S
C2715 C2716 1.399 . S
C2715 C2720 1.413 . S
C2716 C2715 1.399 . S
C2716 C2717 1.376 . S
C2717 H2704 0.930 . S
C2717 C2716 1.376 . S
C2717 C2718 1.388 . S
C2718 H2705 0.930 . S
C2718 C2717 1.388 . S
C2718 C2719 1.390 . S
C2719 C2718 1.390 . S
C2719 C2720 1.424 . S
C2719 C2725 1.465 . S
C2720 C2715 1.413 . S
C2720 C2719 1.424 . S
C2720 C2721 1.475 1_565 S
C2721 C2720 1.475 1_545 S
C2721 C2722 1.502 . S
C2721 C2723 1.561 . S
C2721 C2724 1.526 . S
C2722 H2706 0.959 . S
C2722 H2707 0.959 . S
C2722 H2708 0.961 . S
C2722 C2721 1.502 . S
C2723 H2709 0.960 . S
C2723 H2710 0.961 . S
C2723 H2711 0.959 . S
C2723 C2721 1.561 . S
C2724 C2721 1.526 . S
C2724 C2725 1.396 1_545 S
C2724 C2729 1.390 . S
C2725 C2719 1.465 . S
C2725 C2724 1.396 1_565 S
C2725 C2726 1.399 . S
C2726 H2712 0.929 . S
C2726 C2725 1.399 . S
C2726 C2727 1.385 1_565 S
C2727 H2713 0.920 1_545 S
C2727 C2726 1.385 1_545 S
C2727 C2728 1.389 . S
C2728 C2727 1.389 . S
C2728 C2729 1.387 . S
C2729 H2714 0.930 . S
C2729 C2724 1.390 . S
C2729 C2728 1.387 . S
H2730 C2742 0.930 . S
H2731 C2744 0.930 . S
H2732 C2745 0.930 . S
H2733 C2749 0.959 . S
H2734 C2749 0.959 . S
H2735 C2749 0.961 . S
H2736 C2750 0.960 . S
H2737 C2750 0.961 . S
H2738 C2750 0.959 . S
H2739 C2753 0.929 . S
H2740 C2754 0.931 . S
H2741 C2756 0.930 . S
C2742 H2730 0.930 . S
C2742 C2743 1.399 . S
C2742 C2747 1.399 . S
C2743 C2742 1.399 . S
C2743 C2744 1.376 . S
C2744 H2731 0.930 . S
C2744 C2743 1.376 . S
C2744 C2745 1.388 . S
C2745 H2732 0.930 . S
C2745 C2744 1.388 . S
C2745 C2746 1.390 . S
C2746 C2745 1.390 . S
C2746 C2747 1.394 . S
C2746 C2752 1.465 . S
C2747 C2742 1.399 . S
C2747 C2746 1.394 . S
C2747 C2748 1.516 . S
C2748 C2747 1.516 . S
C2748 C2749 1.502 . S
C2748 C2750 1.561 . S
C2748 C2751 1.526 . S
C2749 H2733 0.959 . S
C2749 H2734 0.959 . S
C2749 H2735 0.961 . S
C2749 C2748 1.502 . S
C2750 H2736 0.960 . S
C2750 H2737 0.961 . S
C2750 H2738 0.959 . S
C2750 C2748 1.561 . S
C2751 C2748 1.526 . S
C2751 C2752 1.396 . S
C2751 C2756 1.390 . S
C2752 C2746 1.465 . S
C2752 C2751 1.396 . S
C2752 C2753 1.399 . S
C2753 H2739 0.929 . S
C2753 C2752 1.399 . S
C2753 C2754 1.385 . S
C2754 H2740 0.931 . S
C2754 C2753 1.385 . S
C2754 C2755 1.389 . S
C2755 C2754 1.389 . S
C2755 C2756 1.387 . S
C2756 H2741 0.930 . S
C2756 C2751 1.390 . S
C2756 C2755 1.387 . S
H2757 C2769 0.930 . S
H2758 C2771 0.930 . S
H2759 C2772 0.930 . S
H2760 C2776 0.959 . S
H2761 C2776 0.959 . S
H2762 C2776 0.961 . S
H2763 C2777 0.960 . S
H2764 C2777 0.961 . S
H2765 C2777 0.959 . S
H2766 C2780 0.929 . S
H2767 C2781 0.931 . S
H2768 C2783 0.930 . S
C2769 H2757 0.930 . S
C2769 C2770 1.399 . S
C2769 C2774 1.399 . S
C2770 C2769 1.399 . S
C2770 C2771 1.376 . S
C2771 H2758 0.930 . S
C2771 C2770 1.376 . S
C2771 C2772 1.388 . S
C2772 H2759 0.930 . S
C2772 C2771 1.388 . S
C2772 C2773 1.390 . S
C2773 C2772 1.390 . S
C2773 C2774 1.394 . S
C2773 C2779 1.465 . S
C2774 C2769 1.399 . S
C2774 C2773 1.394 . S
C2774 C2775 1.516 1_556 S
C2775 C2774 1.516 1_554 S
C2775 C2776 1.502 . S
C2775 C2777 1.561 . S
C2775 C2778 1.526 . S
C2776 H2760 0.959 . S
C2776 H2761 0.959 . S
C2776 H2762 0.961 . S
C2776 C2775 1.502 . S
C2777 H2763 0.960 . S
C2777 H2764 0.961 . S
C2777 H2765 0.959 . S
C2777 C2775 1.561 . S
C2778 C2775 1.526 . S
C2778 C2779 1.396 1_554 S
C2778 C2783 1.390 . S
C2779 C2773 1.465 . S
C2779 C2778 1.396 1_556 S
C2779 C2780 1.399 . S
C2780 H2766 0.929 . S
C2780 C2779 1.399 . S
C2780 C2781 1.385 1_556 S
C2781 H2767 0.931 . S
C2781 C2780 1.385 1_554 S
C2781 C2782 1.389 . S
C2782 C2781 1.389 . S
C2782 C2783 1.387 . S
C2783 H2768 0.930 . S
C2783 C2778 1.390 . S
C2783 C2782 1.387 . S
H2784 C2796 0.930 . S
H2785 C2798 0.930 . S
H2786 C2799 0.930 . S
H2787 C2803 0.959 . S
H2788 C2803 0.959 . S
H2789 C2803 0.961 . S
H2790 C2804 0.960 . S
H2791 C2804 0.961 . S
H2792 C2804 0.959 . S
H2793 C2807 0.929 . S
H2794 C2808 0.931 . S
H2795 C2810 0.930 . S
C2796 H2784 0.930 . S
C2796 C2797 1.399 . S
C2796 C2801 1.399 . S
C2797 C2796 1.399 . S
C2797 C2798 1.376 . S
C2798 H2785 0.930 . S
C2798 C2797 1.376 . S
C2798 C2799 1.388 . S
C2799 H2786 0.930 . S
C2799 C2798 1.388 . S
C2799 C2800 1.390 . S
C2800 C2799 1.390 . S
C2800 C2801 1.394 . S
C2800 C2806 1.465 . S
C2801 C2796 1.399 . S
C2801 C2800 1.394 . S
C2801 C2802 1.516 . S
C2802 C2801 1.516 . S
C2802 C2803 1.502 . S
C2802 C2804 1.561 . S
C2802 C2805 1.526 . S
C2803 H2787 0.959 . S
C2803 H2788 0.959 . S
C2803 H2789 0.961 . S
C2803 C2802 1.502 . S
C2804 H2790 0.960 . S
C2804 H2791 0.961 . S
C2804 H2792 0.959 . S
C2804 C2802 1.561 . S
C2805 C2802 1.526 . S
C2805 C2806 1.396 . S
C2805 C2810 1.390 . S
C2806 C2800 1.465 . S
C2806 C2805 1.396 . S
C2806 C2807 1.399 . S
C2807 H2793 0.929 . S
C2807 C2806 1.399 . S
C2807 C2808 1.385 . S
C2808 H2794 0.931 . S
C2808 C2807 1.385 . S
C2808 C2809 1.389 . S
C2809 C2808 1.389 . S
C2809 C2810 1.387 . S
C2810 H2795 0.930 . S
C2810 C2805 1.390 . S
C2810 C2809 1.387 . S
H2811 C2823 0.930 . S
H2812 C2825 0.930 . S
H2813 C2826 0.930 . S
H2814 C2830 0.959 . S
H2815 C2830 0.959 . S
H2816 C2830 0.961 . S
H2817 C2831 0.960 . S
H2818 C2831 0.961 . S
H2819 C2831 0.959 . S
H2820 C2834 0.929 . S
H2821 C2835 0.931 . S
H2822 C2837 0.930 . S
C2823 H2811 0.930 . S
C2823 C2824 1.399 . S
C2823 C2828 1.399 . S
C2824 C2823 1.399 . S
C2824 C2825 1.376 . S
C2825 H2812 0.930 . S
C2825 C2824 1.376 . S
C2825 C2826 1.388 . S
C2826 H2813 0.930 . S
C2826 C2825 1.388 . S
C2826 C2827 1.390 . S
C2827 C2826 1.390 . S
C2827 C2828 1.394 . S
C2827 C2833 1.465 . S
C2828 C2823 1.399 . S
C2828 C2827 1.394 . S
C2828 C2829 1.516 . S
C2829 C2828 1.516 . S
C2829 C2830 1.502 . S
C2829 C2831 1.561 . S
C2829 C2832 1.526 . S
C2830 H2814 0.959 . S
C2830 H2815 0.959 . S
C2830 H2816 0.961 . S
C2830 C2829 1.502 . S
C2831 H2817 0.960 . S
C2831 H2818 0.961 . S
C2831 H2819 0.959 . S
C2831 C2829 1.561 . S
C2832 C2829 1.526 . S
C2832 C2833 1.396 . S
C2832 C2837 1.390 . S
C2833 C2827 1.465 . S
C2833 C2832 1.396 . S
C2833 C2834 1.399 . S
C2834 H2820 0.929 . S
C2834 C2833 1.399 . S
C2834 C2835 1.385 . S
C2835 H2821 0.931 . S
C2835 C2834 1.385 . S
C2835 C2836 1.389 . S
C2836 C2835 1.389 . S
C2836 C2837 1.387 . S
C2837 H2822 0.930 . S
C2837 C2832 1.390 . S
C2837 C2836 1.387 . S
H2838 C2850 0.930 . S
H2839 C2852 0.930 . S
H2840 C2853 0.930 . S
H2841 C2857 0.959 . S
H2842 C2857 0.959 . S
H2843 C2857 0.961 . S
H2844 C2858 0.960 . S
H2845 C2858 0.961 . S
H2846 C2858 0.959 . S
H2847 C2861 0.929 . S
H2848 C2862 0.931 . S
H2849 C2864 0.930 . S
C2850 H2838 0.930 . S
C2850 C2851 1.399 . S
C2850 C2855 1.399 . S
C2851 C2850 1.399 . S
C2851 C2852 1.376 . S
C2852 H2839 0.930 . S
C2852 C2851 1.376 . S
C2852 C2853 1.388 . S
C2853 H2840 0.930 . S
C2853 C2852 1.388 . S
C2853 C2854 1.390 . S
C2854 C2853 1.390 . S
C2854 C2855 1.394 . S
C2854 C2860 1.465 . S
C2855 C2850 1.399 . S
C2855 C2854 1.394 . S
C2855 C2856 1.516 . S
C2856 C2855 1.516 . S
C2856 C2857 1.502 . S
C2856 C2858 1.561 . S
C2856 C2859 1.526 . S
C2857 H2841 0.959 . S
C2857 H2842 0.959 . S
C2857 H2843 0.961 . S
C2857 C2856 1.502 . S
C2858 H2844 0.960 . S
C2858 H2845 0.961 . S
C2858 H2846 0.959 . S
C2858 C2856 1.561 . S
C2859 C2856 1.526 . S
C2859 C2860 1.396 . S
C2859 C2864 1.390 . S
C2860 C2854 1.465 . S
C2860 C2859 1.396 . S
C2860 C2861 1.399 . S
C2861 H2847 0.929 . S
C2861 C2860 1.399 . S
C2861 C2862 1.385 . S
C2862 H2848 0.931 . S
C2862 C2861 1.385 . S
C2862 C2863 1.389 . S
C2863 C2862 1.389 . S
C2863 C2864 1.387 . S
C2864 H2849 0.930 . S
C2864 C2859 1.390 . S
C2864 C2863 1.387 . S
H2865 C2877 0.930 . S
H2866 C2879 0.930 . S
H2867 C2880 0.930 . S
H2868 C2884 0.959 . S
H2869 C2884 0.959 . S
H2870 C2884 0.961 . S
H2871 C2885 0.960 . S
H2872 C2885 0.961 . S
H2873 C2885 0.959 . S
H2874 C2888 0.929 . S
H2875 C2889 0.931 . S
H2876 C2891 0.930 . S
C2877 H2865 0.930 . S
C2877 C2878 1.399 . S
C2877 C2882 1.399 . S
C2878 C2877 1.399 . S
C2878 C2879 1.376 . S
C2879 H2866 0.930 . S
C2879 C2878 1.376 . S
C2879 C2880 1.388 . S
C2880 H2867 0.930 . S
C2880 C2879 1.388 . S
C2880 C2881 1.390 . S
C2881 C2880 1.390 . S
C2881 C2882 1.394 . S
C2881 C2887 1.465 . S
C2882 C2877 1.399 . S
C2882 C2881 1.394 . S
C2882 C2883 1.516 . S
C2883 C2882 1.516 . S
C2883 C2884 1.502 . S
C2883 C2885 1.561 . S
C2883 C2886 1.526 . S
C2884 H2868 0.959 . S
C2884 H2869 0.959 . S
C2884 H2870 0.961 . S
C2884 C2883 1.502 . S
C2885 H2871 0.960 . S
C2885 H2872 0.961 . S
C2885 H2873 0.959 . S
C2885 C2883 1.561 . S
C2886 C2883 1.526 . S
C2886 C2887 1.396 . S
C2886 C2891 1.390 . S
C2887 C2881 1.465 . S
C2887 C2886 1.396 . S
C2887 C2888 1.399 . S
C2888 H2874 0.929 . S
C2888 C2887 1.399 . S
C2888 C2889 1.385 . S
C2889 H2875 0.931 . S
C2889 C2888 1.385 . S
C2889 C2890 1.389 . S
C2890 C2889 1.389 . S
C2890 C2891 1.387 . S
C2891 H2876 0.930 . S
C2891 C2886 1.390 . S
C2891 C2890 1.387 . S
H2892 C2904 0.930 . S
H2893 C2906 0.930 . S
H2894 C2907 0.930 . S
H2895 C2911 0.959 . S
H2896 C2911 0.959 . S
H2897 C2911 0.961 . S
H2898 C2912 0.960 . S
H2899 C2912 0.961 . S
H2900 C2912 0.959 . S
H2901 C2915 0.929 . S
H2902 C2916 0.931 . S
H2903 C2918 0.930 . S
C2904 H2892 0.930 . S
C2904 C2905 1.399 . S
C2904 C2909 1.399 . S
C2905 C2904 1.399 . S
C2905 C2906 1.376 . S
C2906 H2893 0.930 . S
C2906 C2905 1.376 . S
C2906 C2907 1.388 . S
C2907 H2894 0.930 . S
C2907 C2906 1.388 . S
C2907 C2908 1.390 . S
C2908 C2907 1.390 . S
C2908 C2909 1.394 . S
C2908 C2914 1.465 . S
C2909 C2904 1.399 . S
C2909 C2908 1.394 . S
C2909 C2910 1.516 . S
C2910 C2909 1.516 . S
C2910 C2911 1.502 . S
C2910 C2912 1.561 . S
C2910 C2913 1.526 . S
C2911 H2895 0.959 . S
C2911 H2896 0.959 . S
C2911 H2897 0.961 . S
C2911 C2910 1.502 . S
C2912 H2898 0.960 . S
C2912 H2899 0.961 . S
C2912 H2900 0.959 . S
C2912 C2910 1.561 . S
C2913 C2910 1.526 . S
C2913 C2914 1.396 . S
C2913 C2918 1.390 . S
C2914 C2908 1.465 . S
C2914 C2913 1.396 . S
C2914 C2915 1.399 . S
C2915 H2901 0.929 . S
C2915 C2914 1.399 . S
C2915 C2916 1.385 . S
C2916 H2902 0.931 . S
C2916 C2915 1.385 . S
C2916 C2917 1.389 . S
C2917 C2916 1.389 . S
C2917 C2918 1.387 . S
C2918 H2903 0.930 . S
C2918 C2913 1.390 . S
C2918 C2917 1.387 . S
H2919 C2931 0.930 . S
H2920 C2933 0.930 . S
H2921 C2934 0.930 . S
H2922 C2938 0.959 . S
H2923 C2938 0.959 . S
H2924 C2938 0.961 . S
H2925 C2939 0.960 . S
H2926 C2939 0.961 . S
H2927 C2939 0.959 . S
H2928 C2942 0.929 . S
H2929 C2943 0.931 . S
H2930 C2945 0.930 . S
C2931 H2919 0.930 . S
C2931 C2932 1.399 . S
C2931 C2936 1.399 . S
C2932 C2931 1.399 . S
C2932 C2933 1.376 . S
C2933 H2920 0.930 . S
C2933 C2932 1.376 . S
C2933 C2934 1.388 . S
C2934 H2921 0.930 . S
C2934 C2933 1.388 . S
C2934 C2935 1.390 . S
C2935 C2934 1.390 . S
C2935 C2936 1.394 . S
C2935 C2941 1.465 . S
C2936 C2931 1.399 . S
C2936 C2935 1.394 . S
C2936 C2937 1.516 . S
C2937 C2936 1.516 . S
C2937 C2938 1.502 . S
C2937 C2939 1.561 . S
C2937 C2940 1.526 . S
C2938 H2922 0.959 . S
C2938 H2923 0.959 . S
C2938 H2924 0.961 . S
C2938 C2937 1.502 . S
C2939 H2925 0.960 . S
C2939 H2926 0.961 . S
C2939 H2927 0.959 . S
C2939 C2937 1.561 . S
C2940 C2937 1.526 . S
C2940 C2941 1.396 . S
C2940 C2945 1.390 . S
C2941 C2935 1.465 . S
C2941 C2940 1.396 . S
C2941 C2942 1.399 . S
C2942 H2928 0.929 . S
C2942 C2941 1.399 . S
C2942 C2943 1.385 . S
C2943 H2929 0.931 . S
C2943 C2942 1.385 . S
C2943 C2944 1.389 . S
C2944 C2943 1.389 . S
C2944 C2945 1.387 . S
C2945 H2930 0.930 . S
C2945 C2940 1.390 . S
C2945 C2944 1.387 . S
H2946 C2958 0.930 . S
H2947 C2960 0.930 . S
H2948 C2961 0.930 . S
H2949 C2965 0.959 . S
H2950 C2965 0.959 . S
H2951 C2965 0.961 . S
H2952 C2966 0.960 . S
H2953 C2966 0.961 . S
H2954 C2966 0.959 . S
H2955 C2969 0.929 . S
H2956 C2970 0.931 . S
H2957 C2972 0.930 . S
C2958 H2946 0.930 . S
C2958 C2959 1.399 . S
C2958 C2963 1.399 . S
C2959 C2958 1.399 . S
C2959 C2960 1.376 . S
C2960 H2947 0.930 . S
C2960 C2959 1.376 . S
C2960 C2961 1.388 . S
C2961 H2948 0.930 . S
C2961 C2960 1.388 . S
C2961 C2962 1.390 . S
C2962 C2961 1.390 . S
C2962 C2963 1.394 . S
C2962 C2968 1.465 . S
C2963 C2958 1.399 . S
C2963 C2962 1.394 . S
C2963 C2964 1.516 . S
C2964 C2963 1.516 . S
C2964 C2965 1.502 . S
C2964 C2966 1.561 . S
C2964 C2967 1.526 . S
C2965 H2949 0.959 . S
C2965 H2950 0.959 . S
C2965 H2951 0.961 . S
C2965 C2964 1.502 . S
C2966 H2952 0.960 . S
C2966 H2953 0.961 . S
C2966 H2954 0.959 . S
C2966 C2964 1.561 . S
C2967 C2964 1.526 . S
C2967 C2968 1.396 . S
C2967 C2972 1.390 . S
C2968 C2962 1.465 . S
C2968 C2967 1.396 . S
C2968 C2969 1.399 . S
C2969 H2955 0.929 . S
C2969 C2968 1.399 . S
C2969 C2970 1.385 . S
C2970 H2956 0.931 . S
C2970 C2969 1.385 . S
C2970 C2971 1.389 . S
C2971 C2970 1.389 . S
C2971 C2972 1.387 . S
C2972 H2957 0.930 . S
C2972 C2967 1.390 . S
C2972 C2971 1.387 . S
H2973 C2985 0.930 . S
H2974 C2987 0.930 . S
H2975 C2988 0.930 . S
H2976 C2992 0.959 . S
H2977 C2992 0.959 . S
H2978 C2992 0.961 . S
H2979 C2993 0.960 . S
H2980 C2993 0.961 . S
H2981 C2993 0.959 . S
H2982 C2996 0.929 . S
H2983 C2997 0.931 . S
H2984 C2999 0.930 . S
C2985 H2973 0.930 . S
C2985 C2986 1.399 . S
C2985 C2990 1.399 . S
C2986 C2985 1.399 . S
C2986 C2987 1.376 . S
C2987 H2974 0.930 . S
C2987 C2986 1.376 . S
C2987 C2988 1.388 . S
C2988 H2975 0.930 . S
C2988 C2987 1.388 . S
C2988 C2989 1.390 . S
C2989 C2988 1.390 . S
C2989 C2990 1.394 . S
C2989 C2995 1.465 . S
C2990 C2985 1.399 . S
C2990 C2989 1.394 . S
C2990 C2991 1.516 . S
C2991 C2990 1.516 . S
C2991 C2992 1.502 . S
C2991 C2993 1.561 . S
C2991 C2994 1.526 . S
C2992 H2976 0.959 . S
C2992 H2977 0.959 . S
C2992 H2978 0.961 . S
C2992 C2991 1.502 . S
C2993 H2979 0.960 . S
C2993 H2980 0.961 . S
C2993 H2981 0.959 . S
C2993 C2991 1.561 . S
C2994 C2991 1.526 . S
C2994 C2995 1.396 . S
C2994 C2999 1.390 . S
C2995 C2989 1.465 . S
C2995 C2994 1.396 . S
C2995 C2996 1.399 . S
C2996 H2982 0.929 . S
C2996 C2995 1.399 . S
C2996 C2997 1.385 . S
C2997 H2983 0.931 . S
C2997 C2996 1.385 . S
C2997 C2998 1.389 . S
C2998 C2997 1.389 . S
C2998 C2999 1.387 . S
C2999 H2984 0.930 . S
C2999 C2994 1.390 . S
C2999 C2998 1.387 . S
H3000 C3012 0.930 . S
H3001 C3014 0.930 . S
H3002 C3015 0.930 . S
H3003 C3019 0.959 . S
H3004 C3019 0.959 . S
H3005 C3019 0.961 . S
H3006 C3020 0.960 . S
H3007 C3020 0.961 . S
H3008 C3020 0.959 . S
H3009 C3023 0.929 . S
H3010 C3024 0.931 . S
H3011 C3026 0.930 . S
C3012 H3000 0.930 . S
C3012 C3013 1.399 . S
C3012 C3017 1.399 . S
C3013 C3012 1.399 . S
C3013 C3014 1.376 . S
C3014 H3001 0.930 . S
C3014 C3013 1.376 . S
C3014 C3015 1.388 . S
C3015 H3002 0.930 . S
C3015 C3014 1.388 . S
C3015 C3016 1.390 . S
C3016 C3015 1.390 . S
C3016 C3017 1.394 . S
C3016 C3022 1.465 . S
C3017 C3012 1.399 . S
C3017 C3016 1.394 . S
C3017 C3018 1.516 . S
C3018 C3017 1.516 . S
C3018 C3019 1.502 . S
C3018 C3020 1.561 . S
C3018 C3021 1.526 . S
C3019 H3003 0.959 . S
C3019 H3004 0.959 . S
C3019 H3005 0.961 . S
C3019 C3018 1.502 . S
C3020 H3006 0.960 . S
C3020 H3007 0.961 . S
C3020 H3008 0.959 . S
C3020 C3018 1.561 . S
C3021 C3018 1.526 . S
C3021 C3022 1.396 . S
C3021 C3026 1.390 . S
C3022 C3016 1.465 . S
C3022 C3021 1.396 . S
C3022 C3023 1.399 . S
C3023 H3009 0.929 . S
C3023 C3022 1.399 . S
C3023 C3024 1.385 . S
C3024 H3010 0.931 . S
C3024 C3023 1.385 . S
C3024 C3025 1.389 . S
C3025 C3024 1.389 . S
C3025 C3026 1.387 . S
C3026 H3011 0.930 . S
C3026 C3021 1.390 . S
C3026 C3025 1.387 . S
H3027 C3039 0.930 . S
H3028 C3041 0.930 . S
H3029 C3042 0.930 . S
H3030 C3046 0.959 . S
H3031 C3046 0.959 . S
H3032 C3046 0.961 . S
H3033 C3047 0.960 . S
H3034 C3047 0.961 . S
H3035 C3047 0.959 . S
H3036 C3050 0.929 . S
H3037 C3051 0.931 . S
H3038 C3053 0.930 . S
C3039 H3027 0.930 . S
C3039 C3040 1.399 . S
C3039 C3044 1.399 . S
C3040 C3039 1.399 . S
C3040 C3041 1.376 . S
C3041 H3028 0.930 . S
C3041 C3040 1.376 . S
C3041 C3042 1.388 . S
C3042 H3029 0.930 . S
C3042 C3041 1.388 . S
C3042 C3043 1.390 . S
C3043 C3042 1.390 . S
C3043 C3044 1.394 . S
C3043 C3049 1.465 . S
C3044 C3039 1.399 . S
C3044 C3043 1.394 . S
C3044 C3045 1.516 . S
C3045 C3044 1.516 . S
C3045 C3046 1.502 . S
C3045 C3047 1.561 . S
C3045 C3048 1.526 . S
C3046 H3030 0.959 . S
C3046 H3031 0.959 . S
C3046 H3032 0.961 . S
C3046 C3045 1.502 . S
C3047 H3033 0.960 . S
C3047 H3034 0.961 . S
C3047 H3035 0.959 . S
C3047 C3045 1.561 . S
C3048 C3045 1.526 . S
C3048 C3049 1.396 . S
C3048 C3053 1.390 . S
C3049 C3043 1.465 . S
C3049 C3048 1.396 . S
C3049 C3050 1.399 . S
C3050 H3036 0.929 . S
C3050 C3049 1.399 . S
C3050 C3051 1.385 . S
C3051 H3037 0.931 . S
C3051 C3050 1.385 . S
C3051 C3052 1.389 . S
C3052 C3051 1.389 . S
C3052 C3053 1.387 . S
C3053 H3038 0.930 . S
C3053 C3048 1.390 . S
C3053 C3052 1.387 . S
H3054 C3066 0.930 . S
H3055 C3068 0.930 . S
H3056 C3069 0.930 . S
H3057 C3073 0.959 . S
H3058 C3073 0.959 . S
H3059 C3073 0.961 . S
H3060 C3074 0.960 . S
H3061 C3074 0.961 . S
H3062 C3074 0.959 . S
H3063 C3077 0.929 . S
H3064 C3078 0.931 . S
H3065 C3080 0.930 . S
C3066 H3054 0.930 . S
C3066 C3067 1.399 . S
C3066 C3071 1.399 . S
C3067 C3066 1.399 . S
C3067 C3068 1.376 . S
C3068 H3055 0.930 . S
C3068 C3067 1.376 . S
C3068 C3069 1.388 . S
C3069 H3056 0.930 . S
C3069 C3068 1.388 . S
C3069 C3070 1.390 . S
C3070 C3069 1.390 . S
C3070 C3071 1.394 . S
C3070 C3076 1.465 . S
C3071 C3066 1.399 . S
C3071 C3070 1.394 . S
C3071 C3072 1.516 . S
C3072 C3071 1.516 . S
C3072 C3073 1.502 . S
C3072 C3074 1.561 . S
C3072 C3075 1.526 . S
C3073 H3057 0.959 . S
C3073 H3058 0.959 . S
C3073 H3059 0.961 . S
C3073 C3072 1.502 . S
C3074 H3060 0.960 . S
C3074 H3061 0.961 . S
C3074 H3062 0.959 . S
C3074 C3072 1.561 . S
C3075 C3072 1.526 . S
C3075 C3076 1.396 . S
C3075 C3080 1.390 . S
C3076 C3070 1.465 . S
C3076 C3075 1.396 . S
C3076 C3077 1.399 . S
C3077 H3063 0.929 . S
C3077 C3076 1.399 . S
C3077 C3078 1.385 . S
C3078 H3064 0.931 . S
C3078 C3077 1.385 . S
C3078 C3079 1.389 . S
C3079 C3078 1.389 . S
C3079 C3080 1.387 . S
C3080 H3065 0.930 . S
C3080 C3075 1.390 . S
C3080 C3079 1.387 . S
H3081 C3093 0.930 . S
H3082 C3095 0.930 . S
H3083 C3096 0.930 . S
H3084 C3100 0.959 . S
H3085 C3100 0.959 . S
H3086 C3100 0.961 . S
H3087 C3101 0.960 . S
H3088 C3101 0.961 . S
H3089 C3101 0.959 . S
H3090 C3104 0.929 . S
H3091 C3105 0.931 . S
H3092 C3107 0.930 . S
C3093 H3081 0.930 . S
C3093 C3094 1.399 . S
C3093 C3098 1.399 . S
C3094 C3093 1.399 . S
C3094 C3095 1.376 . S
C3095 H3082 0.930 . S
C3095 C3094 1.376 . S
C3095 C3096 1.388 . S
C3096 H3083 0.930 . S
C3096 C3095 1.388 . S
C3096 C3097 1.390 . S
C3097 C3096 1.390 . S
C3097 C3098 1.394 . S
C3097 C3103 1.465 . S
C3098 C3093 1.399 . S
C3098 C3097 1.394 . S
C3098 C3099 1.516 . S
C3099 C3098 1.516 . S
C3099 C3100 1.502 . S
C3099 C3101 1.561 . S
C3099 C3102 1.526 . S
C3100 H3084 0.959 . S
C3100 H3085 0.959 . S
C3100 H3086 0.961 . S
C3100 C3099 1.502 . S
C3101 H3087 0.960 . S
C3101 H3088 0.961 . S
C3101 H3089 0.959 . S
C3101 C3099 1.561 . S
C3102 C3099 1.526 . S
C3102 C3103 1.396 . S
C3102 C3107 1.390 . S
C3103 C3097 1.465 . S
C3103 C3102 1.396 . S
C3103 C3104 1.399 . S
C3104 H3090 0.929 . S
C3104 C3103 1.399 . S
C3104 C3105 1.385 . S
C3105 H3091 0.931 . S
C3105 C3104 1.385 . S
C3105 C3106 1.389 . S
C3106 C3105 1.389 . S
C3106 C3107 1.387 . S
C3107 H3092 0.930 . S
C3107 C3102 1.390 . S
C3107 C3106 1.387 . S
H3108 C3120 0.930 . S
H3109 C3122 0.930 . S
H3110 C3123 0.930 . S
H3111 C3127 0.959 . S
H3112 C3127 0.959 . S
H3113 C3127 0.961 . S
H3114 C3128 0.960 . S
H3115 C3128 0.961 . S
H3116 C3128 0.959 . S
H3117 C3131 0.929 . S
H3118 C3132 0.931 . S
H3119 C3134 0.930 . S
C3120 H3108 0.930 . S
C3120 C3121 1.399 . S
C3120 C3125 1.399 . S
C3121 C3120 1.399 . S
C3121 C3122 1.376 . S
C3122 H3109 0.930 . S
C3122 C3121 1.376 . S
C3122 C3123 1.388 . S
C3123 H3110 0.930 . S
C3123 C3122 1.388 . S
C3123 C3124 1.390 . S
C3124 C3123 1.390 . S
C3124 C3125 1.394 . S
C3124 C3130 1.465 . S
C3125 C3120 1.399 . S
C3125 C3124 1.394 . S
C3125 C3126 1.516 . S
C3126 C3125 1.516 . S
C3126 C3127 1.502 . S
C3126 C3128 1.561 . S
C3126 C3129 1.526 . S
C3127 H3111 0.959 . S
C3127 H3112 0.959 . S
C3127 H3113 0.961 . S
C3127 C3126 1.502 . S
C3128 H3114 0.960 . S
C3128 H3115 0.961 . S
C3128 H3116 0.959 . S
C3128 C3126 1.561 . S
C3129 C3126 1.526 . S
C3129 C3130 1.396 . S
C3129 C3134 1.390 . S
C3130 C3124 1.465 . S
C3130 C3129 1.396 . S
C3130 C3131 1.399 . S
C3131 H3117 0.929 . S
C3131 C3130 1.399 . S
C3131 C3132 1.385 . S
C3132 H3118 0.931 . S
C3132 C3131 1.385 . S
C3132 C3133 1.389 . S
C3133 C3132 1.389 . S
C3133 C3134 1.387 . S
C3134 H3119 0.930 . S
C3134 C3129 1.390 . S
C3134 C3133 1.387 . S
H3135 C3147 0.930 . S
H3136 C3149 0.930 . S
H3137 C3150 0.930 . S
H3138 C3154 0.959 . S
H3139 C3154 0.959 . S
H3140 C3154 0.961 . S
H3141 C3155 0.960 . S
H3142 C3155 0.961 . S
H3143 C3155 0.959 . S
H3144 C3158 0.929 . S
H3145 C3159 0.931 . S
H3146 C3161 0.930 . S
C3147 H3135 0.930 . S
C3147 C3148 1.399 . S
C3147 C3152 1.399 . S
C3148 C3147 1.399 . S
C3148 C3149 1.376 . S
C3149 H3136 0.930 . S
C3149 C3148 1.376 . S
C3149 C3150 1.388 . S
C3150 H3137 0.930 . S
C3150 C3149 1.388 . S
C3150 C3151 1.390 . S
C3151 C3150 1.390 . S
C3151 C3152 1.394 . S
C3151 C3157 1.465 . S
C3152 C3147 1.399 . S
C3152 C3151 1.394 . S
C3152 C3153 1.516 . S
C3153 C3152 1.516 . S
C3153 C3154 1.502 . S
C3153 C3155 1.561 . S
C3153 C3156 1.526 . S
C3154 H3138 0.959 . S
C3154 H3139 0.959 . S
C3154 H3140 0.961 . S
C3154 C3153 1.502 . S
C3155 H3141 0.960 . S
C3155 H3142 0.961 . S
C3155 H3143 0.959 . S
C3155 C3153 1.561 . S
C3156 C3153 1.526 . S
C3156 C3157 1.396 . S
C3156 C3161 1.390 . S
C3157 C3151 1.465 . S
C3157 C3156 1.396 . S
C3157 C3158 1.399 . S
C3158 H3144 0.929 . S
C3158 C3157 1.399 . S
C3158 C3159 1.385 . S
C3159 H3145 0.931 . S
C3159 C3158 1.385 . S
C3159 C3160 1.389 . S
C3160 C3159 1.389 . S
C3160 C3161 1.387 . S
C3161 H3146 0.930 . S
C3161 C3156 1.390 . S
C3161 C3160 1.387 . S
H3162 C3174 0.930 . S
H3163 C3176 0.930 . S
H3164 C3177 0.930 . S
H3165 C3181 0.959 . S
H3166 C3181 0.959 . S
H3167 C3181 0.961 . S
H3168 C3182 0.960 . S
H3169 C3182 0.961 . S
H3170 C3182 0.959 . S
H3171 C3185 0.929 . S
H3172 C3186 0.931 . S
H3173 C3188 0.930 . S
C3174 H3162 0.930 . S
C3174 C3175 1.399 . S
C3174 C3179 1.399 . S
C3175 C3174 1.399 . S
C3175 C3176 1.376 . S
C3176 H3163 0.930 . S
C3176 C3175 1.376 . S
C3176 C3177 1.388 . S
C3177 H3164 0.930 . S
C3177 C3176 1.388 . S
C3177 C3178 1.390 . S
C3178 C3177 1.390 . S
C3178 C3179 1.394 . S
C3178 C3184 1.465 . S
C3179 C3174 1.399 . S
C3179 C3178 1.394 . S
C3179 C3180 1.516 . S
C3180 C3179 1.516 . S
C3180 C3181 1.502 . S
C3180 C3182 1.561 . S
C3180 C3183 1.526 . S
C3181 H3165 0.959 . S
C3181 H3166 0.959 . S
C3181 H3167 0.961 . S
C3181 C3180 1.502 . S
C3182 H3168 0.960 . S
C3182 H3169 0.961 . S
C3182 H3170 0.959 . S
C3182 C3180 1.561 . S
C3183 C3180 1.526 . S
C3183 C3184 1.396 . S
C3183 C3188 1.390 . S
C3184 C3178 1.465 . S
C3184 C3183 1.396 . S
C3184 C3185 1.399 . S
C3185 H3171 0.929 . S
C3185 C3184 1.399 . S
C3185 C3186 1.385 . S
C3186 H3172 0.931 . S
C3186 C3185 1.385 . S
C3186 C3187 1.389 . S
C3187 C3186 1.389 . S
C3187 C3188 1.387 . S
C3188 H3173 0.930 . S
C3188 C3183 1.390 . S
C3188 C3187 1.387 . S
H3189 C3201 0.930 . S
H3190 C3203 0.930 . S
H3191 C3204 0.930 . S
H3192 C3208 0.959 . S
H3193 C3208 0.959 . S
H3194 C3208 0.961 . S
H3195 C3209 0.960 . S
H3196 C3209 0.961 . S
H3197 C3209 0.959 . S
H3198 C3212 0.929 . S
H3199 C3213 0.931 . S
H3200 C3215 0.930 . S
C3201 H3189 0.930 . S
C3201 C3202 1.399 . S
C3201 C3206 1.399 . S
C3202 C3201 1.399 . S
C3202 C3203 1.376 . S
C3203 H3190 0.930 . S
C3203 C3202 1.376 . S
C3203 C3204 1.388 . S
C3204 H3191 0.930 . S
C3204 C3203 1.388 . S
C3204 C3205 1.390 . S
C3205 C3204 1.390 . S
C3205 C3206 1.394 . S
C3205 C3211 1.465 . S
C3206 C3201 1.399 . S
C3206 C3205 1.394 . S
C3206 C3207 1.516 . S
C3207 C3206 1.516 . S
C3207 C3208 1.502 . S
C3207 C3209 1.561 . S
C3207 C3210 1.526 . S
C3208 H3192 0.959 . S
C3208 H3193 0.959 . S
C3208 H3194 0.961 . S
C3208 C3207 1.502 . S
C3209 H3195 0.960 . S
C3209 H3196 0.961 . S
C3209 H3197 0.959 . S
C3209 C3207 1.561 . S
C3210 C3207 1.526 . S
C3210 C3211 1.396 . S
C3210 C3215 1.390 . S
C3211 C3205 1.465 . S
C3211 C3210 1.396 . S
C3211 C3212 1.399 . S
C3212 H3198 0.929 . S
C3212 C3211 1.399 . S
C3212 C3213 1.385 . S
C3213 H3199 0.931 . S
C3213 C3212 1.385 . S
C3213 C3214 1.389 . S
C3214 C3213 1.389 . S
C3214 C3215 1.387 . S
C3215 H3200 0.930 . S
C3215 C3210 1.390 . S
C3215 C3214 1.387 . S
C1069 C239 1.846 . S
C1081 N5 1.856 . S
C1096 C998 1.846 . S
C1108 N38 1.857 . S
C1123 C437 1.794 . S
C1135 N71 1.821 . S
C1150 N104 1.816 . S
C1162 C668 1.801 . S
C1177 N137 1.818 . S
C1189 C107 1.802 . S
C1204 C866 1.824 . S
C1216 N170 1.835 . S
C1231 C305 1.818 . S
C1243 N203 1.830 . S
C1258 N236 1.857 . S
C1270 C536 1.846 . S
C1285 N269 1.834 . S
C1297 C503 1.827 . S
C1312 C734 1.814 . S
C1324 N302 1.841 . S
C1339 N335 1.844 . S
C1351 C173 1.819 . S
C1366 N368 1.817 . S
C1378 C932 1.792 . S
C1393 N401 1.857 . S
C1405 C371 1.846 . S
C1420 N434 1.813 . S
C1432 C602 1.793 . S
C1447 N467 1.813 . S
C1459 C41 1.792 . S
C1474 C800 1.813 . S
C1486 N500 1.826 . S
C1501 C767 1.790 . S
C1513 N533 1.815 . S
C1528 N566 1.829 . S
C1540 C470 1.802 . S
C1555 C965 1.837 . S
C1567 N599 1.844 . S
C1582 C140 1.846 . S
C1594 N632 1.856 . S
C1609 C635 1.809 . S
C1621 N665 1.834 . S
C1636 C338 1.807 . S
C1648 N698 1.822 . S
C1663 N731 1.817 . S
C1675 C833 1.793 . S
C1690 C8 1.814 . S
C1702 N764 1.839 . S
C1717 C1031 1.794 . S
C1729 N797 1.814 . S
C1744 N830 1.858 . S
C1756 C206 1.845 . S
C1771 N863 1.816 . S
C1783 C701 1.801 . S
C1798 C404 1.791 . S
C1810 N896 1.818 . S
C1825 C899 1.804 . S
C1837 N929 1.820 . S
C1852 C74 1.846 . S
C1864 N962 1.858 . S
C1879 N995 1.813 . S
C1891 C569 1.792 . S
C1906 N1028 1.814 . S
C1918 C272 1.791 . S
C1933 N14 0.739 . S
C1945 N641 0.911 . S
C1960 N47 0.902 . S
C1972 N608 0.817 . S
C1987 N80 0.740 . S
C1999 N575 0.910 . S
C2014 N113 0.922 . S
C2026 N542 0.787 . S
C2041 N146 0.755 . S
C2053 N773 0.907 . S
C2068 N740 0.888 . S
C2080 N179 0.810 . S
C2095 N707 0.913 . S
C2107 N212 0.778 . S
C2122 N245 0.904 . S
C2134 N674 0.790 . S
C2149 N278 0.922 . S
C2161 N905 0.787 . S
C2176 N872 0.914 . S
C2188 N311 0.799 . S
C2203 N839 0.763 . S
C2215 N344 0.878 . S
C2230 N377 0.753 . S
C2242 N806 0.890 . S
C2257 N1037 0.906 . S
C2269 N410 0.788 . S
C2284 N443 0.770 . S
C2296 N1004 0.892 . S
C2311 N476 0.923 . S
C2323 N971 0.763 . S
C2338 N938 0.879 . S
C2350 N509 0.820 . S
C2365 C688 0.849 . S
C2377 C28 0.748 . S
C2392 C457 0.874 . S
C2404 C61 0.732 . S
C2419 C1018 0.854 . S
C2431 C94 0.780 . S
C2446 C127 0.854 . S
C2458 C259 0.781 . S
C2473 C160 0.844 . S
C2485 C556 0.793 . S
C2500 C193 0.745 . S
C2512 C325 0.851 . S
C2527 C886 0.878 . S
C2539 C226 0.732 . S
C2554 C292 0.737 . S
C2566 C952 0.861 . S
C2581 C754 0.863 . S
C2593 C358 0.768 . S
C2608 C523 0.807 . S
C2620 C391 0.787 . S
C2635 C424 0.736 . S
C2647 C820 0.862 . S
C2662 C622 0.794 . S
C2674 C490 0.799 . S
C2689 C985 0.756 . S
C2701 C589 0.838 . S
C2716 C787 0.825 . S
C2728 C655 0.814 . S
C2743 C853 0.875 . S
C2755 C721 0.731 . S
C2770 C1051 0.842 . S
C2782 C919 0.754 . S
C2797 C83 1.437 . S
C2809 C17 1.426 . S
C2824 C116 1.438 . S
C2836 C50 1.423 . S
C2851 C215 1.433 . S
C2863 C149 1.418 . S
C2878 C248 1.429 . S
C2890 C182 1.418 . S
C2905 C281 1.418 . S
C2917 C347 1.432 . S
C2932 C380 1.438 . S
C2944 C314 1.424 . S
C2959 C413 1.425 . S
C2971 C479 1.438 . S
C2986 C446 1.431 . S
C2998 C512 1.418 . S
C3013 C545 1.417 . S
C3025 C611 1.433 . S
C3040 C578 1.417 . S
C3052 C644 1.434 . S
C3067 C743 1.426 . S
C3079 C677 1.438 . S
C3094 C710 1.430 . S
C3106 C776 1.418 . S
C3121 C875 1.417 . S
C3133 C809 1.434 . S
C3148 C908 1.437 . S
C3160 C842 1.426 . S
C3175 C941 1.425 . S
C3187 C1007 1.438 . S
C3202 C974 1.424 . S
C3214 C1040 1.438 . S
