# Generated by pormake.
# Topology uoo, (4)-cn, num edge types: 1
# Building blocks:
#     Node 0, Type 0, BuildingBlock: CEKHIL_clean_sbu_0, # of connection points: 4
#     Node 1, Type 0, BuildingBlock: CEKHIL_clean_sbu_0, # of connection points: 4
#     Node 2, Type 0, BuildingBlock: CEKHIL_clean_sbu_0, # of connection points: 4
#     Node 3, Type 0, BuildingBlock: CEKHIL_clean_sbu_0, # of connection points: 4
#     Node 4, Type 0, BuildingBlock: CEKHIL_clean_sbu_0, # of connection points: 4
#     Node 5, Type 0, BuildingBlock: CEKHIL_clean_sbu_0, # of connection points: 4
#     Edge 6, Type (0, 0), BuildingBlock: ZUJKAS_clean_linker_0, # of connection points: 2
#     Edge 7, Type (0, 0), BuildingBlock: ZUJKAS_clean_linker_0, # of connection points: 2
#     Edge 8, Type (0, 0), BuildingBlock: ZUJKAS_clean_linker_0, # of connection points: 2
#     Edge 9, Type (0, 0), BuildingBlock: ZUJKAS_clean_linker_0, # of connection points: 2
#     Edge 10, Type (0, 0), BuildingBlock: ZUJKAS_clean_linker_0, # of connection points: 2
#     Edge 11, Type (0, 0), BuildingBlock: ZUJKAS_clean_linker_0, # of connection points: 2
#     Edge 12, Type (0, 0), BuildingBlock: ZUJKAS_clean_linker_0, # of connection points: 2
#     Edge 13, Type (0, 0), BuildingBlock: ZUJKAS_clean_linker_0, # of connection points: 2
#     Edge 14, Type (0, 0), BuildingBlock: ZUJKAS_clean_linker_0, # of connection points: 2
#     Edge 15, Type (0, 0), BuildingBlock: ZUJKAS_clean_linker_0, # of connection points: 2
#     Edge 16, Type (0, 0), BuildingBlock: ZUJKAS_clean_linker_0, # of connection points: 2
#     Edge 17, Type (0, 0), BuildingBlock: ZUJKAS_clean_linker_0, # of connection points: 2
# Relax obj value: 0.247
# Max RMSD: 0.171
# Mean RMSD: 0.171
data_MOF--net-uoo--node1-CEKHIL_clean_sbu_0--edge1-ZUJKAS_clean_linker_0
_symmetry_space_group_name_H-M    P1
_symmetry_Int_Tables_number       1
_symmetry_cell_setting            triclinic
loop_
_symmetry_equiv_pos_as_xyz
'x, y, z'
_cell_length_a     31.476905
_cell_length_b     31.4652
_cell_length_c     50.869726
_cell_angle_alpha  90.077187
_cell_angle_beta   90.052283
_cell_angle_gamma 120.01258
loop_
_atom_site_label
_atom_site_type_symbol
_atom_site_fract_x
_atom_site_fract_y
_atom_site_fract_z
_atom_type_partial_charge
Co0 Co 0.133 0.29919 0.98428 0.0
O1 O 0.06849 0.29265 0.98325 0.0
O2 O 0.13777 0.35984 -0.00568 0.0
C3 C 0.12929 0.26317 0.94568 0.0
O4 O 0.20554 0.32346 0.98641 0.0
Co5 Co 0.15436 0.21381 0.98644 0.0
O6 O 0.2245 0.26426 0.98124 0.0
C7 C 0.11555 0.23785 0.03329 0.0
C8 C 0.09078 0.33849 -0.00939 0.0
C9 C 0.23702 0.30932 0.98361 0.0
O10 O 0.12278 0.27735 0.02191 0.0
O11 O 0.12226 0.20549 0.02175 0.0
O12 O 0.13894 0.30845 0.94652 0.0
O13 O 0.1179 0.23973 0.9678 0.0
Co14 Co 0.84602 0.14474 0.32345 0.0
O15 O 0.78819 0.08123 0.31801 0.0
O16 O 0.78944 0.1466 0.33544 0.0
C17 C 0.88023 0.15078 0.28398 0.0
O18 O 0.8945 0.21609 0.33075 0.0
Co19 Co 0.95232 0.16469 0.32418 0.0
O20 O 0.9717 0.23528 0.32196 0.0
C21 C 0.88771 0.11559 0.36937 0.0
C22 C 0.76419 0.10114 0.32801 0.0
C23 C 0.93998 0.24774 0.32749 0.0
O24 O 0.85552 0.12461 0.35939 0.0
O25 O 0.92753 0.12552 0.35755 0.0
O26 O 0.84511 0.16084 0.2867 0.0
O27 O 0.89077 0.13364 0.30454 0.0
Co28 Co 0.68969 0.83106 0.65228 0.0
O29 O 0.69561 0.77278 0.65415 0.0
O30 O 0.62835 0.77643 0.66255 0.0
C31 C 0.72719 0.85943 0.61355 0.0
O32 O 0.66607 0.87994 0.65129 0.0
Co33 Co 0.77583 0.93767 0.65233 0.0
O34 O 0.72604 0.95714 0.64416 0.0
C35 C 0.75041 0.87921 0.70095 0.0
C36 C 0.64942 0.75016 0.66074 0.0
C37 C 0.68081 0.92519 0.6465 0.0
O38 O 0.71047 0.84642 0.69006 0.0
O39 O 0.78336 0.91661 0.68856 0.0
O40 O 0.68173 0.8242 0.61441 0.0
O41 O 0.74979 0.87323 0.6359 0.0
Co42 Co 0.8427 0.69343 0.98718 0.0
O43 O 0.90489 0.69559 0.98296 0.0
O44 O 0.83604 0.63226 -0.00222 0.0
C45 C 0.84151 0.72626 0.94828 0.0
O46 O 0.77187 0.6736 -0.00697 0.0
Co47 Co 0.8277 0.78285 -0.01062 0.0
O48 O 0.75642 0.73458 0.98554 0.0
C49 C 0.87117 0.76023 0.03485 0.0
C50 C 0.88186 0.65062 -0.00837 0.0
C51 C 0.74188 0.68956 -0.00998 0.0
O52 O 0.86097 0.71933 0.02396 0.0
O53 O 0.86397 0.79242 0.02351 0.0
O54 O 0.8291 0.68023 0.94993 0.0
O55 O 0.85816 0.75191 0.9696 0.0
Co56 Co 0.16175 0.8564 0.31896 0.0
O57 O 0.22005 0.91992 0.31453 0.0
O58 O 0.21792 0.85302 0.33018 0.0
C59 C 0.12729 0.85316 0.27984 0.0
O60 O 0.11276 0.78482 0.32502 0.0
Co61 Co 0.05576 0.83738 0.3206 0.0
O62 O 0.03507 0.76645 0.31854 0.0
C63 C 0.12108 0.88365 0.36606 0.0
C64 C 0.24359 0.89895 0.3238 0.0
C65 C 0.0669 0.75355 0.32275 0.0
O66 O 0.15276 0.87447 0.35557 0.0
O67 O 0.08148 0.87508 0.3544 0.0
O68 O 0.16216 0.84254 0.28175 0.0
O69 O 0.11724 0.8692 0.30102 0.0
Co70 Co 0.29919 0.14876 0.65665 0.0
O71 O 0.29682 0.209 0.65686 0.0
O72 O 0.35989 0.2011 0.66971 0.0
C73 C 0.26812 0.12296 0.61629 0.0
O74 O 0.31868 0.0968 0.65826 0.0
Co75 Co 0.20897 0.04456 0.65321 0.0
O76 O 0.25734 0.02221 0.64731 0.0
C77 C 0.22855 0.10254 0.70176 0.0
C78 C 0.34154 0.22943 0.66586 0.0
C79 C 0.30236 0.05154 0.6526 0.0
O80 O 0.27155 0.13323 0.69316 0.0
O81 O 0.19615 0.06711 0.68789 0.0
O82 O 0.31399 0.15622 0.61932 0.0
O83 O 0.24165 0.1097 0.63738 0.0
H84 H 0.13762 0.07697 0.72048 0.0
H85 H 0.1179 0.09944 0.76294 0.0
H86 H 0.26988 0.16606 0.78615 0.0
H87 H 0.29017 0.14585 0.74329 0.0
H88 H 0.12446 0.0804 0.81285 0.0
H89 H 0.24741 0.27914 0.79563 0.0
H90 H 0.23372 0.23389 0.77036 0.0
H91 H 0.27994 0.24594 0.79478 0.0
C92 C 0.16673 0.09607 0.73474 0.0
C93 C 0.21553 0.11031 0.72848 0.0
C94 C 0.15544 0.10891 0.75897 0.0
C95 C 0.19266 0.13564 0.77743 0.0
C96 C 0.24087 0.14697 0.77185 0.0
H97 H 0.14302 0.18452 0.94044 0.0
H98 H 0.15642 0.15155 0.89971 0.0
C99 C 0.25235 0.1351 0.74744 0.0
C100 C 0.18132 0.15305 0.8021 0.0
H101 H 0.2147 0.256 0.83865 0.0
C102 C 0.14399 0.11882 0.81846 0.0
C103 C 0.2061 0.20336 0.80911 0.0
C104 C 0.24362 0.24274 0.79141 0.0
C105 C 0.13119 0.13344 0.84183 0.0
C106 C 0.15769 0.18342 0.84946 0.0
C107 C 0.19468 0.21762 0.83295 0.0
C108 C 0.14747 0.20164 0.87422 0.0
C109 C 0.08862 0.09535 0.85765 0.0
C110 C 0.1394 0.24168 0.87356 0.0
C111 C 0.13321 0.26145 0.89683 0.0
C112 C 0.13429 0.24111 0.92118 0.0
C113 C 0.14152 0.20056 0.92189 0.0
C114 C 0.14876 0.18142 0.8986 0.0
H115 H 0.06304 0.06371 0.84521 0.0
H116 H 0.10273 0.08112 0.8733 0.0
H117 H 0.0677 0.11108 0.86704 0.0
H118 H 0.13836 0.25799 0.855 0.0
H119 H 0.12754 0.29264 0.89575 0.0
H120 H 0.96111 0.14229 0.27485 0.0
H121 H 0.0058 0.15651 0.23341 0.0
H122 H 0.90587 0.1936 0.19575 0.0
H123 H 0.86098 0.17957 0.23708 0.0
H124 H 0.92447 0.12159 0.16863 0.0
H125 H 0.09358 0.29411 0.19742 0.0
H126 H 0.07179 0.24333 0.2199 0.0
H127 H 0.03582 0.27218 0.21425 0.0
C128 C 0.94875 0.15362 0.25776 0.0
C129 C 0.90761 0.1599 0.25917 0.0
C130 C 0.9744 0.16187 0.23418 0.0
C131 C 0.95922 0.1764 0.2117 0.0
C132 C 0.9181 0.18251 0.213 0.0
H133 H 0.09365 0.29617 0.06357 0.0
H134 H 0.05808 0.27924 0.10749 0.0
C135 C 0.89261 0.17457 0.23659 0.0
C136 C 0.98559 0.18439 0.18659 0.0
H137 H 0.09273 0.26195 0.15537 0.0
C138 C 0.96134 0.15208 0.16569 0.0
C139 C 0.03349 0.22441 0.18296 0.0
C140 C 0.06032 0.26084 0.2047 0.0
C141 C 0.98372 0.15897 0.14103 0.0
C142 C 0.03175 0.19895 0.13739 0.0
C143 C 0.05608 0.23111 0.15837 0.0
C144 C 0.05602 0.20981 0.11145 0.0
C145 C 0.95526 0.12436 0.11887 0.0
C146 C 0.06753 0.17674 0.09938 0.0
C147 C 0.08782 0.18617 0.07416 0.0
C148 C 0.09713 0.22902 0.06067 0.0
C149 C 0.0869 0.26274 0.07328 0.0
C150 C 0.06661 0.25322 0.09843 0.0
H151 H 0.91554 0.10185 0.12346 0.0
H152 H 0.95954 0.14496 0.10043 0.0
H153 H 0.96966 0.09907 0.11535 0.0
H154 H 0.06034 0.1434 0.10935 0.0
H155 H 0.09553 0.15958 0.06513 0.0
H156 H 0.9444 0.08793 0.39757 0.0
H157 H 0.92555 0.04671 0.44028 0.0
H158 H 0.78947 0.04833 0.44302 0.0
H159 H 0.80791 0.08978 0.40065 0.0
H160 H 0.84459 0.07838 0.49028 0.0
H161 H 0.81959 0.90138 0.45213 0.0
H162 H 0.87668 0.95544 0.44413 0.0
H163 H 0.82035 0.94765 0.43087 0.0
C164 C 0.9105 0.07964 0.40727 0.0
C165 C 0.87758 0.09201 0.39557 0.0
C166 C 0.89974 0.0559 0.43161 0.0
C167 C 0.85589 0.04403 0.44457 0.0
C168 C 0.82346 0.05712 0.43324 0.0
H169 H 0.68606 0.84037 0.56469 0.0
H170 H 0.72202 0.88648 0.52429 0.0
C171 C 0.8341 0.08076 0.40897 0.0
C172 C 0.84314 0.01765 0.46992 0.0
H173 H 0.80969 0.90663 0.49772 0.0
C174 C 0.83734 0.04097 0.49203 0.0
C175 C 0.8333 0.96874 0.47193 0.0
C176 C 0.83737 0.9415 0.44851 0.0
C177 C 0.82118 0.01635 0.51609 0.0
C178 C 0.81124 0.9674 0.51808 0.0
C179 C 0.81772 0.94431 0.49609 0.0
C180 C 0.79103 0.93854 0.54237 0.0
C181 C 0.81312 0.04225 0.53889 0.0
C182 C 0.81835 0.95215 0.56576 0.0
C183 C 0.79787 0.92594 0.58889 0.0
C184 C 0.74984 0.88562 0.58891 0.0
C185 C 0.72309 0.87136 0.56529 0.0
C186 C 0.74358 0.89757 0.5422 0.0
H187 H 0.81304 0.07601 0.53259 0.0
H188 H 0.7778 0.01759 0.54883 0.0
H189 H 0.84305 0.05296 0.55346 0.0
H190 H 0.85533 0.98325 0.56615 0.0
H191 H 0.81945 0.93761 0.60679 0.0
H192 H 0.81027 0.68121 0.90069 0.0
H193 H 0.79797 0.71592 0.86034 0.0
H194 H 0.84347 0.85296 0.90043 0.0
H195 H 0.85581 0.8185 0.94098 0.0
H196 H 0.75444 0.81552 0.8697 0.0
H197 H 0.90904 0.82203 0.81382 0.0
H198 H 0.86856 0.76372 0.82869 0.0
H199 H 0.90445 0.81639 0.84918 0.0
C200 C 0.81779 0.71877 0.90092 0.0
C201 C 0.83422 0.74724 0.92393 0.0
C202 C 0.81093 0.73857 0.87785 0.0
C203 C 0.82043 0.78712 0.87741 0.0
C204 C 0.83623 0.81548 0.90041 0.0
H205 H 0.83284 0.9357 0.7305 0.0
H206 H 0.85026 0.91917 0.77498 0.0
C207 C 0.84332 0.79577 0.9235 0.0
C208 C 0.81307 0.80786 0.85294 0.0
H209 H 0.85137 0.83396 0.78932 0.0
C210 C 0.77587 0.82003 0.85216 0.0
C211 C 0.8416 0.81428 0.83029 0.0
C212 C 0.88348 0.80388 0.83048 0.0
C213 C 0.76516 0.83673 0.82888 0.0
C214 C 0.79213 0.84084 0.80588 0.0
C215 C 0.83057 0.83047 0.80697 0.0
C216 C 0.77972 0.85354 0.78012 0.0
C217 C 0.72501 0.84963 0.82905 0.0
C218 C 0.73419 0.8222 0.7684 0.0
C219 C 0.72408 0.83141 0.74299 0.0
C220 C 0.7595 0.87207 0.72875 0.0
C221 C 0.80469 0.9041 0.74087 0.0
C222 C 0.81477 0.89474 0.76628 0.0
H223 H 0.71763 0.85778 0.84925 0.0
H224 H 0.73461 0.88183 0.81632 0.0
H225 H 0.69069 0.81804 0.82138 0.0
H226 H 0.70701 0.78968 0.77857 0.0
H227 H 0.68894 0.80588 0.7343 0.0
H228 H 0.14489 0.82643 0.23181 0.0
H229 H 0.09829 0.81388 0.19115 0.0
H230 H -0.00011 0.84938 0.23184 0.0
H231 H 0.04624 0.86208 0.27259 0.0
H232 H 0.95377 0.76092 0.19997 0.0
H233 H 0.09574 0.92409 0.14635 0.0
H234 H 0.11686 0.88589 0.16089 0.0
H235 H 0.09627 0.91818 0.18166 0.0
C236 C 0.1134 0.83166 0.23209 0.0
C237 C 0.09928 0.84539 0.25533 0.0
C238 C 0.087 0.82471 0.20885 0.0
C239 C 0.04611 0.8313 0.20853 0.0
C240 C 0.03156 0.84443 0.23175 0.0
H241 H 0.89872 0.84207 0.06535 0.0
H242 H 0.93768 0.85977 0.10872 0.0
C243 C 0.0581 0.85169 0.25495 0.0
C244 C 0.0179 0.82342 0.18403 0.0
H245 H 0.02724 0.86589 0.12143 0.0
C246 C 0.9696 0.784 0.18282 0.0
C247 C 0.03858 0.85411 0.16193 0.0
C248 C 0.08957 0.89824 0.1627 0.0
C249 C 0.94187 0.77344 0.15966 0.0
C250 C 0.96333 0.80283 0.13717 0.0
C251 C 0.01106 0.84324 0.13868 0.0
C252 C 0.93763 0.79116 0.11157 0.0
C253 C 0.88988 0.73094 0.15947 0.0
C254 C 0.92503 0.74686 0.09883 0.0
C255 C 0.9028 0.73658 0.07412 0.0
C256 C 0.89303 0.77062 0.06154 0.0
C257 C 0.9056 0.81499 0.07445 0.0
C258 C 0.92788 0.82521 0.09922 0.0
H259 H 0.87461 0.72119 0.17966 0.0
H260 H 0.86564 0.73946 0.14743 0.0
H261 H 0.88942 0.69832 0.1508 0.0
H262 H 0.93322 0.72057 0.10781 0.0
H263 H 0.89395 0.70217 0.06475 0.0
H264 H 0.31519 0.14523 0.56903 0.0
H265 H 0.28342 0.10308 0.52701 0.0
H266 H 0.14549 0.00359 0.56386 0.0
H267 H 0.17696 0.04547 0.606 0.0
H268 H 0.18761 0.95797 0.53289 0.0
H269 H 0.17811 0.10647 0.47909 0.0
H270 H 0.2359 0.1251 0.49494 0.0
H271 H 0.18174 0.10529 0.51451 0.0
C272 C 0.27799 0.11459 0.56815 0.0
C273 C 0.24851 0.09867 0.59077 0.0
C274 C 0.25984 0.09075 0.54413 0.0
C275 C 0.21197 0.05069 0.54235 0.0
C276 C 0.18245 0.03467 0.56488 0.0
H277 H 0.06589 0.91211 0.39492 0.0
H278 H 0.08434 0.9499 0.43859 0.0
C279 C 0.20047 0.05864 0.58889 0.0
C280 C 0.19354 0.02424 0.51718 0.0
H281 H 0.16911 0.03894 0.45355 0.0
C282 C 0.18316 0.97546 0.51557 0.0
C283 C 0.18729 0.0471 0.4948 0.0
C284 C 0.19589 0.09874 0.49585 0.0
C285 C 0.16815 0.94934 0.49182 0.0
C286 C 0.16396 0.97293 0.46914 0.0
C287 C 0.17276 0.02116 0.47097 0.0
C288 C 0.15205 0.94871 0.44313 0.0
C289 C 0.15695 0.89679 0.49117 0.0
C290 C 0.18429 0.93596 0.43123 0.0
C291 C 0.17399 0.91446 0.40632 0.0
C292 C 0.13126 0.90546 0.39276 0.0
C293 C 0.09902 0.91835 0.4048 0.0
C294 C 0.10947 0.93998 0.42974 0.0
H295 H 0.1493 0.88034 0.51114 0.0
H296 H 0.12494 0.87401 0.47829 0.0
H297 H 0.18912 0.89557 0.48318 0.0
H298 H 0.21782 0.94328 0.44109 0.0
H299 H 0.1998 0.90528 0.39765 0.0
H300 H 0.31823 0.29848 0.98882 0.0
H301 H 0.40441 0.36432 -0.00927 0.0
H302 H 0.35978 0.47214 0.9792 0.0
H303 H 0.27437 0.40746 0.97768 0.0
H304 H 0.46064 0.43641 0.95362 0.0
H305 H 0.44301 0.52121 0.0456 0.0
H306 H 0.39688 0.46072 0.03491 0.0
H307 H 0.3995 0.51435 0.02076 0.0
C308 C 0.32687 0.33622 0.98668 0.0
C309 C 0.28941 0.34773 0.98345 0.0
C310 C 0.376 0.37372 0.98782 0.0
C311 C 0.38819 0.42307 0.98574 0.0
C312 C 0.35101 0.4344 0.98161 0.0
H313 H 0.66323 0.70251 0.9791 0.0
H314 H 0.57614 0.63859 0.97789 0.0
C315 C 0.30217 0.39722 0.98063 0.0
C316 C 0.43977 0.46307 0.98738 0.0
H317 H 0.5169 0.5675 0.02133 0.0
C318 C 0.47305 0.4649 0.9685 0.0
C319 C 0.45566 0.50027 0.0068 0.0
C320 C 0.42203 0.49891 0.02832 0.0
C321 C 0.5218 0.50346 0.96828 0.0
C322 C 0.53752 0.54074 0.98756 0.0
C323 C 0.50434 0.53902 0.00643 0.0
C324 C 0.58923 0.57997 -0.01057 0.0
C325 C 0.55616 0.50435 0.94734 0.0
C326 C 0.62469 0.56804 -0.00299 0.0
C327 C 0.67396 0.6041 -0.00215 0.0
C328 C 0.68888 0.65302 -0.00888 0.0
C329 C 0.65297 0.66524 0.98435 0.0
C330 C 0.60335 0.62886 0.98359 0.0
H331 H 0.53599 0.47938 0.93071 0.0
H332 H 0.5794 0.5421 0.93961 0.0
H333 H 0.58078 0.49233 0.95603 0.0
H334 H 0.61424 0.5306 0.00201 0.0
H335 H 0.7004 0.59326 0.00342 0.0
H336 H 0.88095 0.28584 0.33842 0.0
H337 H 0.90268 0.37167 0.33902 0.0
H338 H 0.05309 0.4153 0.32184 0.0
H339 H 0.03181 0.32879 0.32105 0.0
H340 H 0.03074 0.46799 0.36603 0.0
H341 H 0.94248 0.45847 0.26963 0.0
H342 H 0.90727 0.41023 0.29275 0.0
H343 H 0.96208 0.41549 0.27887 0.0
C344 C 0.91881 0.31345 0.33486 0.0
C345 C 0.95465 0.30028 0.32953 0.0
C346 C 0.93101 0.36252 0.33515 0.0
C347 C 0.97921 0.39947 0.33016 0.0
C348 C 0.01557 0.38697 0.32559 0.0
H349 H 0.12657 0.71419 0.32557 0.0
H350 H 0.10333 0.62827 0.32852 0.0
C351 C 0.00335 0.33763 0.32517 0.0
C352 C 0.99108 0.4511 0.32949 0.0
H353 H 0.97203 0.53193 0.29392 0.0
C354 C 0.01819 0.48219 0.35025 0.0
C355 C 0.97388 0.46894 0.30902 0.0
C356 C 0.94504 0.43679 0.28615 0.0
C357 C 0.02838 0.53096 0.35119 0.0
C358 C 0.01193 0.54916 0.33046 0.0
C359 C 0.98443 0.51781 0.3098 0.0
C360 C 0.02524 0.60134 0.32908 0.0
C361 C 0.05591 0.56223 0.37459 0.0
C362 C 0.98889 0.61471 0.32753 0.0
C363 C 0.00203 0.66419 0.32552 0.0
C364 C 0.05176 0.70093 0.32496 0.0
C365 C 0.08788 0.68706 0.32627 0.0
C366 C 0.07473 0.63786 0.32813 0.0
H367 H 0.05206 0.53936 0.39204 0.0
H368 H 0.09552 0.58406 0.36975 0.0
H369 H 0.04279 0.58798 0.37985 0.0
H370 H 0.9504 0.58688 0.32796 0.0
H371 H 0.97335 0.6736 0.32445 0.0
H372 H 0.2874 0.96025 0.6387 0.0
H373 H 0.34986 0.93544 0.63539 0.0
H374 H 0.46097 0.07961 0.6608 0.0
H375 H 0.39976 0.10474 0.66417 0.0
H376 H 0.4834 0.04247 0.6136 0.0
H377 H 0.42325 0.91332 0.69832 0.0
H378 H 0.37719 0.90501 0.67462 0.0
H379 H 0.40518 0.9592 0.6947 0.0
C380 C 0.32505 0.98649 0.64377 0.0
C381 C 0.33844 0.03444 0.65171 0.0
C382 C 0.3606 0.97227 0.64188 0.0
C383 C 0.40984 0.00579 0.64793 0.0
C384 C 0.42314 0.05334 0.65601 0.0
H385 H 0.69131 0.01724 0.65049 0.0
H386 H 0.62557 0.03765 0.64917 0.0
C387 C 0.3879 0.0675 0.65797 0.0
C388 C 0.44825 0.99218 0.6456 0.0
H389 H 0.49183 0.92388 0.67445 0.0
C390 C 0.48524 0.01635 0.62677 0.0
C391 C 0.45039 0.95832 0.66293 0.0
C392 C 0.41216 0.93255 0.68394 0.0
C393 C 0.52446 0.0073 0.62471 0.0
C394 C 0.52709 0.97402 0.64235 0.0
C395 C 0.48974 0.94952 0.661 0.0
C396 C 0.56764 0.96309 0.64161 0.0
C397 C 0.56222 0.03285 0.60346 0.0
C398 C 0.55675 0.91455 0.63804 0.0
C399 C 0.59386 0.9028 0.63914 0.0
C400 C 0.64282 0.93941 0.6438 0.0
C401 C 0.654 0.98835 0.64674 0.0
C402 C 0.61654 4e-05 0.64586 0.0
H403 H 0.54805 0.04648 0.58748 0.0
H404 H 0.59499 0.0649 0.61209 0.0
H405 H 0.5739 0.00793 0.59478 0.0
H406 H 0.5193 0.88553 0.6347 0.0
H407 H 0.58398 0.86477 0.63652 0.0
H408 H 0.43673 0.27974 0.68169 0.0
H409 H 0.4899 0.36853 0.68486 0.0
H410 H 0.36911 0.38907 0.66286 0.0
H411 H 0.31523 0.29974 0.65937 0.0
H412 H 0.49772 0.43472 0.63678 0.0
H413 H 0.44261 0.47608 0.73329 0.0
H414 H 0.43721 0.4172 0.72633 0.0
H415 H 0.39558 0.43318 0.71134 0.0
C416 C 0.42117 0.30299 0.67779 0.0
C417 C 0.37181 0.28281 0.67016 0.0
C418 C 0.45166 0.35366 0.67963 0.0
C419 C 0.43322 0.38494 0.67416 0.0
C420 C 0.38368 0.36514 0.66731 0.0
H421 H 0.55128 0.69524 0.66849 0.0
H422 H 0.50195 0.60653 0.67271 0.0
C423 C 0.35308 0.31428 0.6653 0.0
C424 C 0.46685 0.43835 0.67384 0.0
H425 H 0.50127 0.54327 0.7086 0.0
C426 C 0.49879 0.45864 0.65246 0.0
C427 C 0.46771 0.46887 0.69438 0.0
C428 C 0.43418 0.44805 0.71778 0.0
C429 C 0.53109 0.50934 0.65073 0.0
C430 C 0.53227 0.54012 0.67137 0.0
C431 C 0.50054 0.51952 0.69292 0.0
C432 C 0.56351 0.59413 0.67007 0.0
C433 C 0.56224 0.52953 0.62639 0.0
C434 C 0.61475 0.61674 0.66764 0.0
C435 C 0.64321 0.66773 0.66488 0.0
C436 C 0.62078 0.69669 0.66494 0.0
C437 C 0.56971 0.67396 0.66831 0.0
C438 C 0.54139 0.62322 0.67079 0.0
H439 H 0.54817 0.50278 0.60988 0.0
H440 H 0.56374 0.56391 0.61987 0.0
H441 H 0.60019 0.53792 0.63083 0.0
H442 H 0.63264 0.59497 0.66765 0.0
H443 H 0.68254 0.68435 0.66255 0.0
H444 H 0.97313 0.67212 0.97444 0.0
H445 H 0.00836 0.61788 0.9758 0.0
H446 H 0.87824 0.50668 0.01455 0.0
H447 H 0.84316 0.56029 0.01353 0.0
H448 H 0.96703 0.52279 0.0372 0.0
H449 H 0.95961 0.49358 0.92903 0.0
H450 H 0.99111 0.55654 0.9397 0.0
H451 H 0.92632 0.51909 0.94521 0.0
C452 C 0.95229 0.63624 0.98339 0.0
C453 C 0.90533 0.62031 -0.00628 0.0
C454 C 0.97225 0.60526 0.984 0.0
C455 C 0.94546 0.55813 -0.00507 0.0
C456 C 0.89929 0.54285 0.00592 0.0
H457 H -0.00337 0.31173 0.97615 0.0
H458 H 0.95784 0.36275 0.97861 0.0
C459 C 0.87934 0.57356 0.00526 0.0
C460 C 0.96495 0.52413 -0.00509 0.0
H461 H -0.00359 0.4577 0.9545 0.0
C462 C 0.9735 0.50852 0.01915 0.0
C463 C 0.97234 0.505 0.9713 0.0
C464 C 0.96153 0.51897 0.94479 0.0
C465 C 0.9902 0.47482 0.0204 0.0
C466 C -0.00105 0.45679 -0.00322 0.0
C467 C 0.98958 0.47171 0.97255 0.0
C468 C 0.02052 0.42459 -0.00322 0.0
C469 C -0.00196 0.45851 0.04696 0.0
C470 C 0.0683 0.44265 0.00622 0.0
C471 C 0.09037 0.41388 0.00481 0.0
C472 C 0.0651 0.36651 -0.00617 0.0
C473 C 0.01681 0.348 0.98481 0.0
C474 C -0.00525 0.37707 0.98612 0.0
H475 H 0.97751 0.46518 0.06265 0.0
H476 H 0.9865 0.41889 0.04677 0.0
H477 H 0.03765 0.47956 0.052 0.0
H478 H 0.089 0.47952 0.01411 0.0
H479 H 0.12766 0.4292 0.01192 0.0
H480 H 0.70955 0.1161 0.36384 0.0
H481 H 0.62046 0.07935 0.36459 0.0
H482 H 0.60889 0.99352 0.29585 0.0
H483 H 0.69809 0.02838 0.29598 0.0
H484 H 0.56547 0.08849 0.33003 0.0
H485 H 0.503 0.8905 0.33936 0.0
H486 H 0.56627 0.93725 0.34384 0.0
H487 H 0.54164 0.91734 0.31127 0.0
C488 C 0.68782 0.08861 0.34922 0.0
C489 C 0.71041 0.07477 0.32993 0.0
C490 C 0.63699 0.0678 0.3496 0.0
C491 C 0.60782 0.03335 0.33041 0.0
C492 C 0.63039 0.01899 0.31128 0.0
H493 H 0.31139 0.97351 0.29341 0.0
H494 H 0.40061 0.00825 0.29466 0.0
C495 C 0.68133 0.03903 0.31129 0.0
C496 C 0.55432 0.01507 0.32967 0.0
H497 H 0.44217 0.91109 0.32782 0.0
C498 C 0.53847 0.04965 0.32976 0.0
C499 C 0.5191 0.96444 0.32954 0.0
C500 C 0.53334 0.92528 0.33127 0.0
C501 C 0.48847 0.03509 0.32985 0.0
C502 C 0.45328 0.98449 0.32872 0.0
C503 C 0.46914 0.94992 0.32851 0.0
C504 C 0.39976 0.96616 0.32857 0.0
C505 C 0.47409 0.0741 0.33198 0.0
C506 C 0.36955 0.93049 0.34689 0.0
C507 C 0.31878 0.90977 0.3457 0.0
C508 C 0.29726 0.92492 0.32645 0.0
C509 C 0.32733 0.96181 0.30865 0.0
C510 C 0.37825 0.98178 0.30945 0.0
H511 H 0.50389 0.10835 0.34092 0.0
H512 H 0.46698 0.08329 0.31201 0.0
H513 H 0.44041 0.06133 0.34396 0.0
H514 H 0.38523 0.91796 0.36186 0.0
H515 H 0.29627 0.88141 0.35968 0.0
loop_
_geom_bond_atom_site_label_1
_geom_bond_atom_site_label_2
_geom_bond_distance
_geom_bond_site_symmetry_2
_ccdc_geom_bond_type
Co0 O1 2.216 . S
Co0 O2 2.091 . S
Co0 O4 2.004 1_556 S
Co0 O10 2.021 1_556 S
Co0 O12 2.137 . S
Co0 O13 2.244 . S
O1 Co0 2.216 . S
O1 C8 1.247 . S
O2 Co0 2.091 . S
O2 C8 1.261 . S
C3 O12 1.247 . S
C3 O13 1.272 . S
O4 Co0 2.004 1_554 S
O4 C9 1.259 . S
Co5 O6 2.061 . S
Co5 O11 2.052 . S
Co5 O13 2.135 1_554 S
O6 Co5 2.061 . S
O6 C9 1.235 . S
C7 O10 1.238 . S
C7 O11 1.241 . S
C8 O1 1.247 . S
C8 O2 1.261 . S
C9 O4 1.259 . S
C9 O6 1.235 . S
O10 Co0 2.021 1_554 S
O10 C7 1.238 . S
O11 Co5 2.052 . S
O11 C7 1.241 . S
O12 Co0 2.137 . S
O12 C3 1.247 . S
O13 Co0 2.244 . S
O13 C3 1.272 . S
O13 Co5 2.135 1_556 S
Co14 O15 2.216 . S
Co14 O16 2.091 . S
Co14 O18 2.004 . S
Co14 O24 2.021 . S
Co14 O26 2.137 . S
Co14 O27 2.244 . S
O15 Co14 2.216 . S
O15 C22 1.247 . S
O16 Co14 2.091 . S
O16 C22 1.261 . S
C17 O26 1.247 . S
C17 O27 1.272 . S
O18 Co14 2.004 . S
O18 C23 1.259 . S
Co19 O20 2.061 . S
Co19 O25 2.052 . S
Co19 O27 2.135 . S
O20 Co19 2.061 . S
O20 C23 1.235 . S
C21 O24 1.238 . S
C21 O25 1.241 . S
C22 O15 1.247 . S
C22 O16 1.261 . S
C23 O18 1.259 . S
C23 O20 1.235 . S
O24 Co14 2.021 . S
O24 C21 1.238 . S
O25 Co19 2.052 . S
O25 C21 1.241 . S
O26 Co14 2.137 . S
O26 C17 1.247 . S
O27 Co14 2.244 . S
O27 C17 1.272 . S
O27 Co19 2.135 . S
Co28 O29 2.216 . S
Co28 O30 2.091 . S
Co28 O32 2.004 . S
Co28 O38 2.021 . S
Co28 O40 2.137 . S
Co28 O41 2.244 . S
O29 Co28 2.216 . S
O29 C36 1.247 . S
O30 Co28 2.091 . S
O30 C36 1.261 . S
C31 O40 1.247 . S
C31 O41 1.272 . S
O32 Co28 2.004 . S
O32 C37 1.259 . S
Co33 O34 2.061 . S
Co33 O39 2.052 . S
Co33 O41 2.135 . S
O34 Co33 2.061 . S
O34 C37 1.235 . S
C35 O38 1.238 . S
C35 O39 1.241 . S
C36 O29 1.247 . S
C36 O30 1.261 . S
C37 O32 1.259 . S
C37 O34 1.235 . S
O38 Co28 2.021 . S
O38 C35 1.238 . S
O39 Co33 2.052 . S
O39 C35 1.241 . S
O40 Co28 2.137 . S
O40 C31 1.247 . S
O41 Co28 2.244 . S
O41 C31 1.272 . S
O41 Co33 2.135 . S
Co42 O43 2.216 . S
Co42 O44 2.091 . S
Co42 O46 2.004 1_556 S
Co42 O52 2.021 1_556 S
Co42 O54 2.137 . S
Co42 O55 2.244 . S
O43 Co42 2.216 . S
O43 C50 1.247 . S
O44 Co42 2.091 . S
O44 C50 1.261 . S
C45 O54 1.247 . S
C45 O55 1.272 . S
O46 Co42 2.004 1_554 S
O46 C51 1.259 . S
Co47 O48 2.061 . S
Co47 O53 2.052 . S
Co47 O55 2.135 1_554 S
O48 Co47 2.061 . S
O48 C51 1.235 . S
C49 O52 1.238 . S
C49 O53 1.241 . S
C50 O43 1.247 . S
C50 O44 1.261 . S
C51 O46 1.259 . S
C51 O48 1.235 . S
O52 Co42 2.021 1_554 S
O52 C49 1.238 . S
O53 Co47 2.052 . S
O53 C49 1.241 . S
O54 Co42 2.137 . S
O54 C45 1.247 . S
O55 Co42 2.244 . S
O55 C45 1.272 . S
O55 Co47 2.135 1_556 S
Co56 O57 2.216 . S
Co56 O58 2.091 . S
Co56 O60 2.004 . S
Co56 O66 2.021 . S
Co56 O68 2.137 . S
Co56 O69 2.244 . S
O57 Co56 2.216 . S
O57 C64 1.247 . S
O58 Co56 2.091 . S
O58 C64 1.261 . S
C59 O68 1.247 . S
C59 O69 1.272 . S
O60 Co56 2.004 . S
O60 C65 1.259 . S
Co61 O62 2.061 . S
Co61 O67 2.052 . S
Co61 O69 2.135 . S
O62 Co61 2.061 . S
O62 C65 1.235 . S
C63 O66 1.238 . S
C63 O67 1.241 . S
C64 O57 1.247 . S
C64 O58 1.261 . S
C65 O60 1.259 . S
C65 O62 1.235 . S
O66 Co56 2.021 . S
O66 C63 1.238 . S
O67 Co61 2.052 . S
O67 C63 1.241 . S
O68 Co56 2.137 . S
O68 C59 1.247 . S
O69 Co56 2.244 . S
O69 C59 1.272 . S
O69 Co61 2.135 . S
Co70 O71 2.216 . S
Co70 O72 2.091 . S
Co70 O74 2.004 . S
Co70 O80 2.021 . S
Co70 O82 2.137 . S
Co70 O83 2.244 . S
O71 Co70 2.216 . S
O71 C78 1.247 . S
O72 Co70 2.091 . S
O72 C78 1.261 . S
C73 O82 1.247 . S
C73 O83 1.272 . S
O74 Co70 2.004 . S
O74 C79 1.259 . S
Co75 O76 2.061 . S
Co75 O81 2.052 . S
Co75 O83 2.135 . S
O76 Co75 2.061 . S
O76 C79 1.235 . S
C77 O80 1.238 . S
C77 O81 1.241 . S
C78 O71 1.247 . S
C78 O72 1.261 . S
C79 O74 1.259 . S
C79 O76 1.235 . S
O80 Co70 2.021 . S
O80 C77 1.238 . S
O81 Co75 2.052 . S
O81 C77 1.241 . S
O82 Co70 2.137 . S
O82 C73 1.247 . S
O83 Co70 2.244 . S
O83 C73 1.272 . S
O83 Co75 2.135 . S
H84 C92 0.929 . S
H85 C94 0.930 . S
H86 C96 0.930 . S
H87 C99 0.929 . S
H88 C102 0.930 . S
H89 C104 0.960 . S
H90 C104 0.960 . S
H91 C104 0.960 . S
C92 H84 0.929 . S
C92 C93 1.377 . S
C92 C94 1.384 . S
C93 C92 1.377 . S
C93 C99 1.390 . S
C94 H85 0.930 . S
C94 C92 1.384 . S
C94 C95 1.372 . S
C95 C94 1.372 . S
C95 C96 1.400 . S
C95 C100 1.490 . S
C96 H86 0.930 . S
C96 C95 1.400 . S
C96 C99 1.386 . S
H97 C113 0.930 . S
H98 C114 0.931 . S
C99 H87 0.929 . S
C99 C93 1.390 . S
C99 C96 1.386 . S
C100 C95 1.490 . S
C100 C102 1.395 . S
C100 C103 1.403 . S
H101 C107 0.930 . S
C102 H88 0.930 . S
C102 C100 1.395 . S
C102 C105 1.403 . S
C103 C100 1.403 . S
C103 C104 1.524 . S
C103 C107 1.400 . S
C104 H89 0.960 . S
C104 H90 0.960 . S
C104 H91 0.960 . S
C104 C103 1.524 . S
C105 C102 1.403 . S
C105 C106 1.392 . S
C105 C109 1.495 . S
C106 C105 1.392 . S
C106 C107 1.385 . S
C106 C108 1.478 . S
C107 H101 0.930 . S
C107 C103 1.400 . S
C107 C106 1.385 . S
C108 C106 1.478 . S
C108 C110 1.381 . S
C108 C114 1.383 . S
C109 C105 1.495 . S
C109 H115 0.959 . S
C109 H116 0.961 . S
C109 H117 0.960 . S
C110 C108 1.381 . S
C110 C111 1.394 . S
C110 H118 0.930 . S
C111 C110 1.394 . S
C111 C112 1.383 . S
C111 H119 0.929 . S
C112 C111 1.383 . S
C112 C113 1.377 . S
C113 H97 0.930 . S
C113 C112 1.377 . S
C113 C114 1.379 . S
C114 H98 0.931 . S
C114 C108 1.383 . S
C114 C113 1.379 . S
H115 C109 0.959 . S
H116 C109 0.961 . S
H117 C109 0.960 . S
H118 C110 0.930 . S
H119 C111 0.929 . S
H120 C128 0.929 . S
H121 C130 0.930 . S
H122 C132 0.930 . S
H123 C135 0.929 . S
H124 C138 0.930 . S
H125 C140 0.960 . S
H126 C140 0.960 . S
H127 C140 0.960 1_655 S
C128 H120 0.929 . S
C128 C129 1.377 . S
C128 C130 1.384 . S
C129 C128 1.377 . S
C129 C135 1.390 . S
C130 H121 0.930 . S
C130 C128 1.384 . S
C130 C131 1.372 . S
C131 C130 1.372 . S
C131 C132 1.400 . S
C131 C136 1.490 . S
C132 H122 0.930 . S
C132 C131 1.400 . S
C132 C135 1.386 . S
H133 C149 0.930 . S
H134 C150 0.943 . S
C135 H123 0.929 . S
C135 C129 1.390 . S
C135 C132 1.386 . S
C136 C131 1.490 . S
C136 C138 1.395 . S
C136 C139 1.403 1_655 S
H137 C143 0.930 . S
C138 H124 0.930 . S
C138 C136 1.395 . S
C138 C141 1.403 1_655 S
C139 C136 1.403 1_455 S
C139 C140 1.524 . S
C139 C143 1.400 . S
C140 H125 0.960 . S
C140 H126 0.960 . S
C140 H127 0.960 1_455 S
C140 C139 1.524 . S
C141 C138 1.403 1_455 S
C141 C142 1.392 . S
C141 C145 1.495 1_455 S
C142 C141 1.392 . S
C142 C143 1.385 . S
C142 C144 1.478 . S
C143 H137 0.930 . S
C143 C139 1.400 . S
C143 C142 1.385 . S
C144 C142 1.478 . S
C144 C146 1.381 . S
C144 C150 1.383 . S
C145 C141 1.495 1_655 S
C145 H151 0.959 . S
C145 H152 0.961 . S
C145 H153 0.960 1_655 S
C146 C144 1.381 . S
C146 C147 1.394 . S
C146 H154 0.930 . S
C147 C146 1.394 . S
C147 C148 1.383 . S
C147 H155 0.929 . S
C148 C147 1.383 . S
C148 C149 1.377 . S
C149 H133 0.930 . S
C149 C148 1.377 . S
C149 C150 1.379 . S
C150 H134 0.943 . S
C150 C144 1.383 . S
C150 C149 1.379 . S
H151 C145 0.959 . S
H152 C145 0.961 . S
H153 C145 0.960 1_455 S
H154 C146 0.930 . S
H155 C147 0.929 . S
H156 C164 0.929 . S
H157 C166 0.930 . S
H158 C168 0.930 . S
H159 C171 0.929 . S
H160 C174 0.930 . S
H161 C176 0.960 . S
H162 C176 0.960 . S
H163 C176 0.960 . S
C164 H156 0.929 . S
C164 C165 1.377 . S
C164 C166 1.384 . S
C165 C164 1.377 . S
C165 C171 1.390 . S
C166 H157 0.930 . S
C166 C164 1.384 . S
C166 C167 1.372 . S
C167 C166 1.372 . S
C167 C168 1.400 . S
C167 C172 1.490 . S
C168 H158 0.930 . S
C168 C167 1.400 . S
C168 C171 1.386 . S
H169 C185 0.930 . S
H170 C186 0.931 . S
C171 H159 0.929 . S
C171 C165 1.390 . S
C171 C168 1.386 . S
C172 C167 1.490 . S
C172 C174 1.395 . S
C172 C175 1.403 1_545 S
H173 C179 0.930 . S
C174 H160 0.930 . S
C174 C172 1.395 . S
C174 C177 1.403 . S
C175 C172 1.403 1_565 S
C175 C176 1.524 . S
C175 C179 1.400 . S
C176 H161 0.960 . S
C176 H162 0.960 . S
C176 H163 0.960 . S
C176 C175 1.524 . S
C177 C174 1.403 . S
C177 C178 1.392 1_545 S
C177 C181 1.495 . S
C178 C177 1.392 1_565 S
C178 C179 1.385 . S
C178 C180 1.478 . S
C179 H173 0.930 . S
C179 C175 1.400 . S
C179 C178 1.385 . S
C180 C178 1.478 . S
C180 C182 1.381 . S
C180 C186 1.383 . S
C181 C177 1.495 . S
C181 H187 0.959 . S
C181 H188 0.961 . S
C181 H189 0.960 . S
C182 C180 1.381 . S
C182 C183 1.394 . S
C182 H190 0.930 . S
C183 C182 1.394 . S
C183 C184 1.383 . S
C183 H191 0.929 . S
C184 C183 1.383 . S
C184 C185 1.377 . S
C185 H169 0.930 . S
C185 C184 1.377 . S
C185 C186 1.379 . S
C186 H170 0.931 . S
C186 C180 1.383 . S
C186 C185 1.379 . S
H187 C181 0.959 . S
H188 C181 0.961 . S
H189 C181 0.960 . S
H190 C182 0.930 . S
H191 C183 0.929 . S
H192 C200 0.929 . S
H193 C202 0.930 . S
H194 C204 0.930 . S
H195 C207 0.929 . S
H196 C210 0.930 . S
H197 C212 0.960 . S
H198 C212 0.960 . S
H199 C212 0.960 . S
C200 H192 0.929 . S
C200 C201 1.377 . S
C200 C202 1.384 . S
C201 C200 1.377 . S
C201 C207 1.390 . S
C202 H193 0.930 . S
C202 C200 1.384 . S
C202 C203 1.372 . S
C203 C202 1.372 . S
C203 C204 1.400 . S
C203 C208 1.490 . S
C204 H194 0.930 . S
C204 C203 1.400 . S
C204 C207 1.386 . S
H205 C221 0.930 . S
H206 C222 0.931 . S
C207 H195 0.929 . S
C207 C201 1.390 . S
C207 C204 1.386 . S
C208 C203 1.490 . S
C208 C210 1.395 . S
C208 C211 1.403 . S
H209 C215 0.930 . S
C210 H196 0.930 . S
C210 C208 1.395 . S
C210 C213 1.403 . S
C211 C208 1.403 . S
C211 C212 1.524 . S
C211 C215 1.400 . S
C212 H197 0.960 . S
C212 H198 0.960 . S
C212 H199 0.960 . S
C212 C211 1.524 . S
C213 C210 1.403 . S
C213 C214 1.392 . S
C213 C217 1.495 . S
C214 C213 1.392 . S
C214 C215 1.385 . S
C214 C216 1.478 . S
C215 H209 0.930 . S
C215 C211 1.400 . S
C215 C214 1.385 . S
C216 C214 1.478 . S
C216 C218 1.381 . S
C216 C222 1.383 . S
C217 C213 1.495 . S
C217 H223 0.959 . S
C217 H224 0.961 . S
C217 H225 0.960 . S
C218 C216 1.381 . S
C218 C219 1.394 . S
C218 H226 0.930 . S
C219 C218 1.394 . S
C219 C220 1.383 . S
C219 H227 0.929 . S
C220 C219 1.383 . S
C220 C221 1.377 . S
C221 H205 0.930 . S
C221 C220 1.377 . S
C221 C222 1.379 . S
C222 H206 0.931 . S
C222 C216 1.383 . S
C222 C221 1.379 . S
H223 C217 0.959 . S
H224 C217 0.961 . S
H225 C217 0.960 . S
H226 C218 0.930 . S
H227 C219 0.929 . S
H228 C236 0.929 . S
H229 C238 0.930 . S
H230 C240 0.908 1_655 S
H231 C243 0.929 . S
H232 C246 0.930 . S
H233 C248 0.960 . S
H234 C248 0.960 . S
H235 C248 0.960 . S
C236 H228 0.929 . S
C236 C237 1.377 . S
C236 C238 1.384 . S
C237 C236 1.377 . S
C237 C243 1.390 . S
C238 H229 0.930 . S
C238 C236 1.384 . S
C238 C239 1.372 . S
C239 C238 1.372 . S
C239 C240 1.400 . S
C239 C244 1.490 . S
C240 H230 0.908 1_455 S
C240 C239 1.400 . S
C240 C243 1.386 . S
H241 C257 0.930 . S
H242 C258 0.931 . S
C243 H231 0.929 . S
C243 C237 1.390 . S
C243 C240 1.386 . S
C244 C239 1.490 . S
C244 C246 1.395 . S
C244 C247 1.403 . S
H245 C251 0.930 . S
C246 H232 0.930 . S
C246 C244 1.395 . S
C246 C249 1.403 1_455 S
C247 C244 1.403 . S
C247 C248 1.524 . S
C247 C251 1.400 1_455 S
C248 H233 0.960 . S
C248 H234 0.960 . S
C248 H235 0.960 . S
C248 C247 1.524 . S
C249 C246 1.403 1_655 S
C249 C250 1.392 . S
C249 C253 1.495 . S
C250 C249 1.392 . S
C250 C251 1.385 . S
C250 C252 1.478 . S
C251 H245 0.930 . S
C251 C247 1.400 1_655 S
C251 C250 1.385 . S
C252 C250 1.478 . S
C252 C254 1.381 . S
C252 C258 1.383 . S
C253 C249 1.495 . S
C253 H259 0.959 . S
C253 H260 0.961 . S
C253 H261 0.960 . S
C254 C252 1.381 . S
C254 C255 1.394 . S
C254 H262 0.930 . S
C255 C254 1.394 . S
C255 C256 1.383 . S
C255 H263 0.929 . S
C256 C255 1.383 . S
C256 C257 1.377 . S
C257 H241 0.930 . S
C257 C256 1.377 . S
C257 C258 1.379 . S
C258 H242 0.931 . S
C258 C252 1.383 . S
C258 C257 1.379 . S
H259 C253 0.959 . S
H260 C253 0.961 . S
H261 C253 0.960 . S
H262 C254 0.930 . S
H263 C255 0.929 . S
H264 C272 0.929 . S
H265 C274 0.930 . S
H266 C276 0.930 . S
H267 C279 0.929 . S
H268 C282 0.930 . S
H269 C284 0.960 . S
H270 C284 0.960 . S
H271 C284 0.960 . S
C272 H264 0.929 . S
C272 C273 1.377 . S
C272 C274 1.384 . S
C273 C272 1.377 . S
C273 C279 1.390 . S
C274 H265 0.930 . S
C274 C272 1.384 . S
C274 C275 1.372 . S
C275 C274 1.372 . S
C275 C276 1.400 . S
C275 C280 1.490 . S
C276 H266 0.930 . S
C276 C275 1.400 . S
C276 C279 1.386 . S
H277 C293 0.930 . S
H278 C294 0.931 . S
C279 H267 0.929 . S
C279 C273 1.390 . S
C279 C276 1.386 . S
C280 C275 1.490 . S
C280 C282 1.395 1_545 S
C280 C283 1.403 . S
H281 C287 0.930 . S
C282 H268 0.930 . S
C282 C280 1.395 1_565 S
C282 C285 1.403 . S
C283 C280 1.403 . S
C283 C284 1.524 . S
C283 C287 1.400 . S
C284 H269 0.960 . S
C284 H270 0.960 . S
C284 H271 0.960 . S
C284 C283 1.524 . S
C285 C282 1.403 . S
C285 C286 1.392 . S
C285 C289 1.495 . S
C286 C285 1.392 . S
C286 C287 1.385 1_565 S
C286 C288 1.478 . S
C287 H281 0.930 . S
C287 C283 1.400 . S
C287 C286 1.385 1_545 S
C288 C286 1.478 . S
C288 C290 1.381 . S
C288 C294 1.383 . S
C289 C285 1.495 . S
C289 H295 0.959 . S
C289 H296 0.961 . S
C289 H297 0.960 . S
C290 C288 1.381 . S
C290 C291 1.394 . S
C290 H298 0.930 . S
C291 C290 1.394 . S
C291 C292 1.383 . S
C291 H299 0.929 . S
C292 C291 1.383 . S
C292 C293 1.377 . S
C293 H277 0.930 . S
C293 C292 1.377 . S
C293 C294 1.379 . S
C294 H278 0.931 . S
C294 C288 1.383 . S
C294 C293 1.379 . S
H295 C289 0.959 . S
H296 C289 0.961 . S
H297 C289 0.960 . S
H298 C290 0.930 . S
H299 C291 0.929 . S
H300 C308 0.929 . S
H301 C310 0.930 . S
H302 C312 0.930 . S
H303 C315 0.929 . S
H304 C318 0.930 . S
H305 C320 0.960 . S
H306 C320 0.960 . S
H307 C320 0.960 1_556 S
C308 H300 0.929 . S
C308 C309 1.377 . S
C308 C310 1.384 . S
C309 C308 1.377 . S
C309 C315 1.390 1_554 S
C310 H301 0.930 . S
C310 C308 1.384 . S
C310 C311 1.372 . S
C311 C310 1.372 . S
C311 C312 1.400 1_554 S
C311 C316 1.490 . S
C312 H302 0.930 . S
C312 C311 1.400 1_556 S
C312 C315 1.386 . S
H313 C329 0.930 . S
H314 C330 0.931 . S
C315 H303 0.929 . S
C315 C309 1.390 1_556 S
C315 C312 1.386 . S
C316 C311 1.490 . S
C316 C318 1.395 . S
C316 C319 1.403 . S
H317 C323 0.930 . S
C318 H304 0.930 . S
C318 C316 1.395 . S
C318 C321 1.403 . S
C319 C316 1.403 . S
C319 C320 1.524 . S
C319 C323 1.400 . S
C320 H305 0.960 . S
C320 H306 0.960 . S
C320 H307 0.960 1_554 S
C320 C319 1.524 . S
C321 C318 1.403 . S
C321 C322 1.392 . S
C321 C325 1.495 . S
C322 C321 1.392 . S
C322 C323 1.385 . S
C322 C324 1.478 . S
C323 H317 0.930 . S
C323 C319 1.400 . S
C323 C322 1.385 . S
C324 C322 1.478 . S
C324 C326 1.381 . S
C324 C330 1.383 1_554 S
C325 C321 1.495 . S
C325 H331 0.959 . S
C325 H332 0.961 . S
C325 H333 0.960 . S
C326 C324 1.381 . S
C326 C327 1.394 . S
C326 H334 0.930 . S
C327 C326 1.394 . S
C327 C328 1.383 . S
C327 H335 0.929 . S
C328 C327 1.383 . S
C328 C329 1.377 1_554 S
C329 H313 0.930 . S
C329 C328 1.377 1_556 S
C329 C330 1.379 . S
C330 H314 0.931 . S
C330 C324 1.383 1_556 S
C330 C329 1.379 . S
H331 C325 0.959 . S
H332 C325 0.961 . S
H333 C325 0.960 . S
H334 C326 0.930 . S
H335 C327 0.929 . S
H336 C344 0.929 . S
H337 C346 0.930 . S
H338 C348 0.930 . S
H339 C351 0.929 . S
H340 C354 0.930 . S
H341 C356 0.960 . S
H342 C356 0.960 . S
H343 C356 0.960 . S
C344 H336 0.929 . S
C344 C345 1.377 . S
C344 C346 1.384 . S
C345 C344 1.377 . S
C345 C351 1.390 . S
C346 H337 0.930 . S
C346 C344 1.384 . S
C346 C347 1.372 . S
C347 C346 1.372 . S
C347 C348 1.400 . S
C347 C352 1.490 . S
C348 H338 0.930 . S
C348 C347 1.400 . S
C348 C351 1.386 . S
H349 C365 0.930 . S
H350 C366 0.931 . S
C351 H339 0.929 . S
C351 C345 1.390 . S
C351 C348 1.386 . S
C352 C347 1.490 . S
C352 C354 1.395 1_655 S
C352 C355 1.403 . S
H353 C359 0.930 . S
C354 H340 0.930 . S
C354 C352 1.395 1_455 S
C354 C357 1.403 . S
C355 C352 1.403 . S
C355 C356 1.524 . S
C355 C359 1.400 . S
C356 H341 0.960 . S
C356 H342 0.960 . S
C356 H343 0.960 . S
C356 C355 1.524 . S
C357 C354 1.403 . S
C357 C358 1.392 . S
C357 C361 1.495 . S
C358 C357 1.392 . S
C358 C359 1.385 1_455 S
C358 C360 1.478 . S
C359 H353 0.930 . S
C359 C355 1.400 . S
C359 C358 1.385 1_655 S
C360 C358 1.478 . S
C360 C362 1.381 . S
C360 C366 1.383 . S
C361 C357 1.495 . S
C361 H367 0.959 . S
C361 H368 0.961 . S
C361 H369 0.960 . S
C362 C360 1.381 . S
C362 C363 1.394 . S
C362 H370 0.930 . S
C363 C362 1.394 . S
C363 C364 1.383 . S
C363 H371 0.929 . S
C364 C363 1.383 . S
C364 C365 1.377 . S
C365 H349 0.930 . S
C365 C364 1.377 . S
C365 C366 1.379 . S
C366 H350 0.931 . S
C366 C360 1.383 . S
C366 C365 1.379 . S
H367 C361 0.959 . S
H368 C361 0.961 . S
H369 C361 0.960 . S
H370 C362 0.930 . S
H371 C363 0.929 . S
H372 C380 0.929 . S
H373 C382 0.930 . S
H374 C384 0.930 . S
H375 C387 0.929 . S
H376 C390 0.930 . S
H377 C392 0.960 . S
H378 C392 0.960 . S
H379 C392 0.960 . S
C380 H372 0.929 . S
C380 C381 1.377 . S
C380 C382 1.384 . S
C381 C380 1.377 . S
C381 C387 1.390 . S
C382 H373 0.930 . S
C382 C380 1.384 . S
C382 C383 1.372 . S
C383 C382 1.372 . S
C383 C384 1.400 . S
C383 C388 1.490 . S
C384 H374 0.930 . S
C384 C383 1.400 . S
C384 C387 1.386 . S
H385 C401 0.930 . S
H386 C402 0.931 1_545 S
C387 H375 0.929 . S
C387 C381 1.390 . S
C387 C384 1.386 . S
C388 C383 1.490 . S
C388 C390 1.395 . S
C388 C391 1.403 1_545 S
H389 C395 0.930 . S
C390 H376 0.930 . S
C390 C388 1.395 . S
C390 C393 1.403 . S
C391 C388 1.403 1_565 S
C391 C392 1.524 . S
C391 C395 1.400 . S
C392 H377 0.960 . S
C392 H378 0.960 . S
C392 H379 0.960 . S
C392 C391 1.524 . S
C393 C390 1.403 . S
C393 C394 1.392 1_545 S
C393 C397 1.495 . S
C394 C393 1.392 1_565 S
C394 C395 1.385 . S
C394 C396 1.478 . S
C395 H389 0.930 . S
C395 C391 1.400 . S
C395 C394 1.385 . S
C396 C394 1.478 . S
C396 C398 1.381 . S
C396 C402 1.383 . S
C397 C393 1.495 . S
C397 H403 0.959 . S
C397 H404 0.961 . S
C397 H405 0.960 . S
C398 C396 1.381 . S
C398 C399 1.394 . S
C398 H406 0.930 . S
C399 C398 1.394 . S
C399 C400 1.383 . S
C399 H407 0.929 . S
C400 C399 1.383 . S
C400 C401 1.377 . S
C401 H385 0.930 . S
C401 C400 1.377 . S
C401 C402 1.379 . S
C402 H386 0.931 1_565 S
C402 C396 1.383 . S
C402 C401 1.379 . S
H403 C397 0.959 . S
H404 C397 0.961 . S
H405 C397 0.960 . S
H406 C398 0.930 . S
H407 C399 0.929 . S
H408 C416 0.929 . S
H409 C418 0.930 . S
H410 C420 0.930 . S
H411 C423 0.929 . S
H412 C426 0.930 . S
H413 C428 0.960 . S
H414 C428 0.960 . S
H415 C428 0.960 . S
C416 H408 0.929 . S
C416 C417 1.377 . S
C416 C418 1.384 . S
C417 C416 1.377 . S
C417 C423 1.390 . S
C418 H409 0.930 . S
C418 C416 1.384 . S
C418 C419 1.372 . S
C419 C418 1.372 . S
C419 C420 1.400 . S
C419 C424 1.490 . S
C420 H410 0.930 . S
C420 C419 1.400 . S
C420 C423 1.386 . S
H421 C437 0.930 . S
H422 C438 0.931 . S
C423 H411 0.929 . S
C423 C417 1.390 . S
C423 C420 1.386 . S
C424 C419 1.490 . S
C424 C426 1.395 . S
C424 C427 1.403 . S
H425 C431 0.930 . S
C426 H412 0.930 . S
C426 C424 1.395 . S
C426 C429 1.403 . S
C427 C424 1.403 . S
C427 C428 1.524 . S
C427 C431 1.400 . S
C428 H413 0.960 . S
C428 H414 0.960 . S
C428 H415 0.960 . S
C428 C427 1.524 . S
C429 C426 1.403 . S
C429 C430 1.392 . S
C429 C433 1.495 . S
C430 C429 1.392 . S
C430 C431 1.385 . S
C430 C432 1.478 . S
C431 H425 0.930 . S
C431 C427 1.400 . S
C431 C430 1.385 . S
C432 C430 1.478 . S
C432 C434 1.381 . S
C432 C438 1.383 . S
C433 C429 1.495 . S
C433 H439 0.959 . S
C433 H440 0.961 . S
C433 H441 0.960 . S
C434 C432 1.381 . S
C434 C435 1.394 . S
C434 H442 0.930 . S
C435 C434 1.394 . S
C435 C436 1.383 . S
C435 H443 0.929 . S
C436 C435 1.383 . S
C436 C437 1.377 . S
C437 H421 0.930 . S
C437 C436 1.377 . S
C437 C438 1.379 . S
C438 H422 0.931 . S
C438 C432 1.383 . S
C438 C437 1.379 . S
H439 C433 0.959 . S
H440 C433 0.961 . S
H441 C433 0.960 . S
H442 C434 0.930 . S
H443 C435 0.929 . S
H444 C452 0.929 1_455 S
H445 C454 0.930 1_455 S
H446 C456 0.930 . S
H447 C459 0.929 . S
H448 C462 0.930 . S
H449 C464 0.960 1_455 S
H450 C464 0.960 1_455 S
H451 C464 0.960 . S
C452 H444 0.929 1_655 S
C452 C453 1.377 1_554 S
C452 C454 1.384 . S
C453 C452 1.377 1_556 S
C453 C459 1.390 . S
C454 H445 0.930 1_655 S
C454 C452 1.384 . S
C454 C455 1.372 1_554 S
C455 C454 1.372 1_556 S
C455 C456 1.400 . S
C455 C460 1.490 . S
C456 H446 0.930 . S
C456 C455 1.400 . S
C456 C459 1.386 . S
H457 C473 0.930 1_655 S
H458 C474 0.931 1_655 S
C459 H447 0.929 . S
C459 C453 1.390 . S
C459 C456 1.386 . S
C460 C455 1.490 . S
C460 C462 1.395 1_556 S
C460 C463 1.403 . S
H461 C467 0.930 . S
C462 H448 0.930 . S
C462 C460 1.395 1_554 S
C462 C465 1.403 1_655 S
C463 C460 1.403 . S
C463 C464 1.524 . S
C463 C467 1.400 1_655 S
C464 H449 0.960 1_655 S
C464 H450 0.960 1_655 S
C464 H451 0.960 . S
C464 C463 1.524 . S
C465 C462 1.403 1_455 S
C465 C466 1.392 1_554 S
C465 C469 1.495 . S
C466 C465 1.392 1_556 S
C466 C467 1.385 . S
C466 C468 1.478 . S
C467 H461 0.930 . S
C467 C463 1.400 1_455 S
C467 C466 1.385 . S
C468 C466 1.478 . S
C468 C470 1.381 1_556 S
C468 C474 1.383 . S
C469 C465 1.495 . S
C469 H475 0.959 . S
C469 H476 0.961 1_455 S
C469 H477 0.960 . S
C470 C468 1.381 1_554 S
C470 C471 1.394 . S
C470 H478 0.930 . S
C471 C470 1.394 . S
C471 C472 1.383 1_554 S
C471 H479 0.929 . S
C472 C471 1.383 1_556 S
C472 C473 1.377 . S
C473 H457 0.930 1_455 S
C473 C472 1.377 . S
C473 C474 1.379 . S
C474 H458 0.931 1_455 S
C474 C468 1.383 . S
C474 C473 1.379 . S
H475 C469 0.959 . S
H476 C469 0.961 1_655 S
H477 C469 0.960 . S
H478 C470 0.930 . S
H479 C471 0.929 . S
H480 C488 0.929 . S
H481 C490 0.930 . S
H482 C492 0.930 . S
H483 C495 0.929 . S
H484 C498 0.930 . S
H485 C500 0.960 . S
H486 C500 0.960 . S
H487 C500 0.960 . S
C488 H480 0.929 . S
C488 C489 1.377 . S
C488 C490 1.384 . S
C489 C488 1.377 . S
C489 C495 1.390 . S
C490 H481 0.930 . S
C490 C488 1.384 . S
C490 C491 1.372 . S
C491 C490 1.372 . S
C491 C492 1.400 . S
C491 C496 1.490 . S
C492 H482 0.930 . S
C492 C491 1.400 . S
C492 C495 1.386 . S
H493 C509 0.930 . S
H494 C510 0.931 . S
C495 H483 0.929 . S
C495 C489 1.390 . S
C495 C492 1.386 . S
C496 C491 1.490 . S
C496 C498 1.395 . S
C496 C499 1.403 1_545 S
H497 C503 0.930 . S
C498 H484 0.930 . S
C498 C496 1.395 . S
C498 C501 1.403 . S
C499 C496 1.403 1_565 S
C499 C500 1.524 . S
C499 C503 1.400 . S
C500 H485 0.960 . S
C500 H486 0.960 . S
C500 H487 0.960 . S
C500 C499 1.524 . S
C501 C498 1.403 . S
C501 C502 1.392 1_545 S
C501 C505 1.495 . S
C502 C501 1.392 1_565 S
C502 C503 1.385 . S
C502 C504 1.478 . S
C503 H497 0.930 . S
C503 C499 1.400 . S
C503 C502 1.385 . S
C504 C502 1.478 . S
C504 C506 1.381 . S
C504 C510 1.383 . S
C505 C501 1.495 . S
C505 H511 0.959 . S
C505 H512 0.961 . S
C505 H513 0.960 . S
C506 C504 1.381 . S
C506 C507 1.394 . S
C506 H514 0.930 . S
C507 C506 1.394 . S
C507 C508 1.383 . S
C507 H515 0.929 . S
C508 C507 1.383 . S
C508 C509 1.377 . S
C509 H493 0.930 . S
C509 C508 1.377 . S
C509 C510 1.379 . S
C510 H494 0.931 . S
C510 C504 1.383 . S
C510 C509 1.379 . S
H511 C505 0.959 . S
H512 C505 0.961 . S
H513 C505 0.960 . S
H514 C506 0.930 . S
H515 C507 0.929 . S
C93 C77 1.154 . S
C112 C3 1.156 . S
C129 C17 1.138 . S
C148 C7 1.149 . S
C165 C21 1.153 . S
C184 C31 1.138 . S
C201 C45 1.135 . S
C220 C35 1.148 . S
C237 C59 1.139 . S
C256 C49 1.154 . S
C273 C73 1.137 . S
C292 C63 1.151 . S
C309 C9 1.392 . S
C328 C51 1.385 . S
C345 C23 1.391 . S
C364 C65 1.391 . S
C381 C79 1.390 . S
C400 C37 1.382 . S
C417 C78 1.316 . S
C436 C36 1.336 . S
C453 C50 1.321 . S
C472 C8 1.311 . S
C489 C22 1.318 . S
C508 C64 1.334 . S
