# Generated by pormake.
# Topology unm, (4)-cn, num edge types: 1
# Building blocks:
#     Node 0, Type 0, BuildingBlock: TATPOV_clean_sbu_0, # of connection points: 4
#     Node 1, Type 0, BuildingBlock: TATPOV_clean_sbu_0, # of connection points: 4
#     Node 2, Type 0, BuildingBlock: TATPOV_clean_sbu_0, # of connection points: 4
#     Node 3, Type 0, BuildingBlock: TATPOV_clean_sbu_0, # of connection points: 4
#     Node 4, Type 0, BuildingBlock: TATPOV_clean_sbu_0, # of connection points: 4
#     Node 5, Type 0, BuildingBlock: TATPOV_clean_sbu_0, # of connection points: 4
#     Node 6, Type 0, BuildingBlock: TATPOV_clean_sbu_0, # of connection points: 4
#     Node 7, Type 0, BuildingBlock: TATPOV_clean_sbu_0, # of connection points: 4
#     Edge 8, Type (0, 0), BuildingBlock: ZUJKAS_clean_linker_0, # of connection points: 2
#     Edge 9, Type (0, 0), BuildingBlock: ZUJKAS_clean_linker_0, # of connection points: 2
#     Edge 10, Type (0, 0), BuildingBlock: ZUJKAS_clean_linker_0, # of connection points: 2
#     Edge 11, Type (0, 0), BuildingBlock: ZUJKAS_clean_linker_0, # of connection points: 2
#     Edge 12, Type (0, 0), BuildingBlock: ZUJKAS_clean_linker_0, # of connection points: 2
#     Edge 13, Type (0, 0), BuildingBlock: ZUJKAS_clean_linker_0, # of connection points: 2
#     Edge 14, Type (0, 0), BuildingBlock: ZUJKAS_clean_linker_0, # of connection points: 2
#     Edge 15, Type (0, 0), BuildingBlock: ZUJKAS_clean_linker_0, # of connection points: 2
#     Edge 16, Type (0, 0), BuildingBlock: ZUJKAS_clean_linker_0, # of connection points: 2
#     Edge 17, Type (0, 0), BuildingBlock: ZUJKAS_clean_linker_0, # of connection points: 2
#     Edge 18, Type (0, 0), BuildingBlock: ZUJKAS_clean_linker_0, # of connection points: 2
#     Edge 19, Type (0, 0), BuildingBlock: ZUJKAS_clean_linker_0, # of connection points: 2
#     Edge 20, Type (0, 0), BuildingBlock: ZUJKAS_clean_linker_0, # of connection points: 2
#     Edge 21, Type (0, 0), BuildingBlock: ZUJKAS_clean_linker_0, # of connection points: 2
#     Edge 22, Type (0, 0), BuildingBlock: ZUJKAS_clean_linker_0, # of connection points: 2
#     Edge 23, Type (0, 0), BuildingBlock: ZUJKAS_clean_linker_0, # of connection points: 2
# Relax obj value: 0.134
# Max RMSD: 0.141
# Mean RMSD: 0.141
data_MOF--net-unm--node1-TATPOV_clean_sbu_0--edge1-ZUJKAS_clean_linker_0
_symmetry_space_group_name_H-M    P1
_symmetry_Int_Tables_number       1
_symmetry_cell_setting            triclinic
loop_
_symmetry_equiv_pos_as_xyz
'x, y, z'
_cell_length_a     33.275681
_cell_length_b     33.279787
_cell_length_c     55.521076
_cell_angle_alpha  89.99451
_cell_angle_beta   90.012506
_cell_angle_gamma 90.021744
loop_
_atom_site_label
_atom_site_type_symbol
_atom_site_fract_x
_atom_site_fract_y
_atom_site_fract_z
_atom_type_partial_charge
Zn0 Zn 0.92123 0.2145 0.12708 0.0
Zn1 Zn 0.98465 0.20844 0.15622 0.0
O2 O 0.93517 0.20079 0.17988 0.0
O3 O 0.88399 0.203 0.15466 0.0
O4 O 0.03631 0.20689 0.17679 0.0
O5 O 0.94033 0.17041 0.10553 0.0
O6 O 0.9949 0.16668 0.12787 0.0
C7 C 0.89721 0.19961 0.17594 0.0
C8 C 0.9654 0.28771 0.12999 0.0
O9 O 0.98631 0.26669 0.14447 0.0
O10 O 0.93552 0.27225 0.11933 0.0
C11 C 0.04234 0.23424 0.19249 0.0
O12 O 0.01376 0.26069 0.19639 0.0
C13 C 0.97457 0.15529 0.10947 0.0
Zn14 Zn 0.28875 0.42485 0.62744 0.0
Zn15 Zn 0.29297 0.48901 0.65628 0.0
O16 O 0.30084 0.43984 0.6801 0.0
O17 O 0.29987 0.38804 0.65534 0.0
O18 O 0.294 0.54064 0.67685 0.0
O19 O 0.33312 0.44456 0.60616 0.0
O20 O 0.33442 0.49985 0.62795 0.0
C21 C 0.30252 0.40181 0.67653 0.0
C22 C 0.21478 0.46845 0.62956 0.0
O23 O 0.23502 0.48983 0.6442 0.0
O24 O 0.23099 0.43869 0.61919 0.0
C25 C 0.26624 0.54673 0.69228 0.0
O26 O 0.23939 0.51836 0.69578 0.0
C27 C 0.34682 0.47949 0.60981 0.0
Zn28 Zn 0.07689 0.78609 0.12567 0.0
Zn29 Zn 0.01338 0.79293 0.15466 0.0
O30 O 0.0628 0.80079 0.17837 0.0
O31 O 0.11405 0.79781 0.15325 0.0
O32 O 0.96164 0.79497 0.17514 0.0
O33 O 0.05817 0.83 0.10388 0.0
O34 O 0.00349 0.83435 0.12608 0.0
C35 C 0.10077 0.80171 0.17448 0.0
C36 C 0.03233 0.71318 0.12886 0.0
O37 O 0.01149 0.73452 0.14322 0.0
O38 O 0.06233 0.72832 0.11817 0.0
C39 C 0.95545 0.76779 0.19093 0.0
O40 O 0.98392 0.74127 0.19495 0.0
C41 C 0.024 0.84537 0.10767 0.0
Zn42 Zn 0.71686 0.57799 0.62627 0.0
Zn43 Zn 0.71117 0.51325 0.65465 0.0
O44 O 0.70403 0.56177 0.67892 0.0
O45 O 0.70672 0.61416 0.65466 0.0
O46 O 0.70985 0.46115 0.67471 0.0
O47 O 0.67195 0.55938 0.60498 0.0
O48 O 0.66907 0.50386 0.62651 0.0
C49 C 0.70344 0.59992 0.67572 0.0
C50 C 0.78981 0.53303 0.62799 0.0
O51 O 0.76908 0.51182 0.64247 0.0
O52 O 0.77426 0.56329 0.61778 0.0
C53 C 0.73703 0.45503 0.6905 0.0
O54 O 0.76324 0.48373 0.69474 0.0
C55 C 0.65718 0.52483 0.6085 0.0
Zn56 Zn 0.42072 0.28667 0.38321 0.0
Zn57 Zn 0.48458 0.29114 0.3542 0.0
O58 O 0.43516 0.29778 0.3304 0.0
O59 O 0.38358 0.29655 0.35531 0.0
O60 O 0.53609 0.29212 0.33355 0.0
O61 O 0.44001 0.33184 0.40401 0.0
O62 O 0.49498 0.33379 0.38195 0.0
C63 C 0.39713 0.299 0.33406 0.0
C64 C 0.46546 0.21346 0.38192 0.0
O65 O 0.48647 0.23362 0.36705 0.0
O66 O 0.43536 0.22943 0.39207 0.0
C67 C 0.54222 0.26432 0.31815 0.0
O68 O 0.51388 0.23742 0.31467 0.0
C69 C 0.47458 0.34622 0.40006 0.0
Zn70 Zn 0.21609 0.92614 0.88319 0.0
Zn71 Zn 0.20973 0.98951 0.85397 0.0
O72 O 0.20251 0.94003 0.83028 0.0
O73 O 0.20543 0.88889 0.85549 0.0
O74 O 0.20809 0.04117 0.83342 0.0
O75 O 0.17133 0.94472 0.90443 0.0
O76 O 0.16755 0.99936 0.88214 0.0
C77 C 0.20183 0.90207 0.83421 0.0
C78 C 0.2889 0.97096 0.88057 0.0
O79 O 0.26787 0.99154 0.86591 0.0
O80 O 0.27356 0.94108 0.89128 0.0
C81 C 0.2354 0.0473 0.81769 0.0
O82 O 0.26191 0.0188 0.81375 0.0
C83 C 0.15599 0.97884 0.90043 0.0
Zn84 Zn 0.57782 0.7175 0.38199 0.0
Zn85 Zn 0.51368 0.71355 0.35323 0.0
O86 O 0.56289 0.70651 0.3293 0.0
O87 O 0.61473 0.70742 0.35404 0.0
O88 O 0.46202 0.71252 0.3327 0.0
O89 O 0.55862 0.67246 0.40292 0.0
O90 O 0.50319 0.67139 0.38123 0.0
C91 C 0.60095 0.70505 0.33283 0.0
C92 C 0.53347 0.7911 0.38077 0.0
O93 O 0.51221 0.77115 0.36592 0.0
O94 O 0.56349 0.77484 0.39086 0.0
C95 C 0.45579 0.74014 0.31721 0.0
O96 O 0.48408 0.76702 0.31356 0.0
C97 C 0.52373 0.65867 0.39923 0.0
Zn98 Zn 0.7887 0.07678 0.87978 0.0
Zn99 Zn 0.79304 0.01273 0.85085 0.0
O100 O 0.80148 0.06206 0.82727 0.0
O101 O 0.8 0.1138 0.85205 0.0
O102 O 0.79322 0.96182 0.82955 0.0
O103 O 0.83312 0.05674 0.90083 0.0
O104 O 0.83491 0.00149 0.87899 0.0
C105 C 0.80309 0.10007 0.83088 0.0
C106 C 0.71464 0.03381 0.87755 0.0
O107 O 0.73488 0.01255 0.86285 0.0
O108 O 0.73096 0.06333 0.88811 0.0
C109 C 0.77724 0.92979 0.83786 0.0
O110 O 0.76369 0.93009 0.86009 0.0
C111 C 0.84723 0.02201 0.8971 0.0
H112 H 0.93307 0.11037 0.07685 0.0
H113 H 0.95936 0.07439 0.04197 0.0
H114 H 0.08025 0.10333 0.06394 0.0
H115 H 0.05401 0.13881 0.09936 0.0
H116 H 0.99955 0.10676 0.00554 0.0
H117 H 0.09283 0.98654 0.04567 0.0
H118 H 0.05607 0.01428 0.06282 0.0
H119 H 0.10505 0.03535 0.0573 0.0
C120 C 0.96535 0.10838 0.0746 0.0
C121 C 0.99144 0.12755 0.09098 0.0
C122 C 0.98033 0.08785 0.05454 0.0
C123 C 0.02183 0.08591 0.05021 0.0
C124 C 0.04813 0.10365 0.06703 0.0
H125 H 0.1402 0.05804 0.91136 0.0
H126 H 0.10385 0.08346 0.94666 0.0
C127 C 0.03311 0.124 0.08732 0.0
C128 C 0.03707 0.06825 0.02718 0.0
H129 H 0.10362 1.00032 1.00398 0.0
C130 C 0.02216 0.08331 0.00524 0.0
C131 C 0.06583 0.03694 0.02661 0.0
C132 C 0.08058 0.01699 0.04934 0.0
C133 C 0.03612 0.06895 0.9829 0.0
C134 C 0.06678 0.03949 0.98234 0.0
C135 C 0.08068 0.02345 1.00427 0.0
C136 C 0.08504 0.02482 0.95935 0.0
C137 C 0.01732 0.08499 0.96012 0.0
C138 C 0.08649 0.98347 0.95446 0.0
C139 C 0.10759 0.96894 0.93448 0.0
C140 C 0.12772 0.99536 0.91873 0.0
C141 C 0.12463 0.03692 0.92291 0.0
C142 C 0.10378 0.05147 0.94313 0.0
H143 H 0.98686 0.09741 0.96354 0.0
H144 H 0.03627 0.10963 0.95289 0.0
H145 H 0.01491 0.06119 0.94618 0.0
H146 H 0.07219 0.96223 0.96653 0.0
H147 H 0.10922 0.93674 0.9318 0.0
H148 H 0.35822 0.5593 0.59856 0.0
H149 H 0.39148 0.58632 0.56252 0.0
H150 H 0.42885 0.46685 0.54259 0.0
H151 H 0.39497 0.43966 0.57805 0.0
H152 H 0.46818 0.58516 0.54391 0.0
H153 H 0.36574 0.50049 0.4836 0.0
H154 H 0.35741 0.50418 0.51563 0.0
H155 H 0.39366 0.46916 0.50389 0.0
C156 C 0.37415 0.5389 0.58674 0.0
C157 C 0.37352 0.49727 0.59109 0.0
C158 C 0.39299 0.55434 0.56604 0.0
C159 C 0.41164 0.52849 0.54938 0.0
C160 C 0.41355 0.4873 0.55468 0.0
H161 H 0.56391 0.61029 0.43072 0.0
H162 H 0.53701 0.5759 0.46609 0.0
C163 C 0.39445 0.47184 0.57514 0.0
C164 C 0.42785 0.54429 0.52612 0.0
H165 H 0.41923 0.53566 0.46485 0.0
C166 C 0.45742 0.57436 0.52664 0.0
C167 C 0.41362 0.53051 0.50348 0.0
C168 C 0.3806 0.49958 0.50152 0.0
C169 C 0.47325 0.59083 0.50529 0.0
C170 C 0.45963 0.57645 0.48265 0.0
C171 C 0.4299 0.54653 0.48213 0.0
C172 C 0.47525 0.59286 0.45941 0.0
C173 C 0.5038 0.62421 0.50724 0.0
C174 C 0.44924 0.61155 0.44284 0.0
C175 C 0.46452 0.63068 0.4222 0.0
C176 C 0.50614 0.63159 0.41782 0.0
C177 C 0.53172 0.6106 0.43366 0.0
C178 C 0.51644 0.5912 0.45406 0.0
H179 H 0.50286 0.63896 0.52518 0.0
H180 H 0.53435 0.61153 0.50475 0.0
H181 H 0.49881 0.64741 0.49318 0.0
H182 H 0.41726 0.61286 0.4464 0.0
H183 H 0.444 0.64665 0.41047 0.0
H184 H 0.06601 0.88997 0.07514 0.0
H185 H 0.04025 0.9256 0.03998 0.0
H186 H 0.91902 0.89698 0.0614 0.0
H187 H 0.94473 0.86186 0.0971 0.0
H188 H 1.00019 0.89245 1.00346 0.0
H189 H 0.90708 0.01377 0.04262 0.0
H190 H 0.94387 0.98638 0.05997 0.0
H191 H 0.89495 0.96513 0.05453 0.0
C192 C 0.03377 0.89195 0.07271 0.0
C193 C 0.00742 0.87298 0.08901 0.0
C194 C 0.01909 0.91228 0.05248 0.0
C195 C 0.97766 0.91417 0.04792 0.0
C196 C 0.9511 0.89667 0.06467 0.0
H197 H 0.86097 0.94249 0.90837 0.0
H198 H 0.89632 0.91655 0.94393 0.0
C199 C 0.96581 0.87653 0.08512 0.0
C200 C 0.96277 0.93159 0.02475 0.0
H201 H 0.89716 0.99985 1.00092 0.0
C202 C 0.97778 0.91609 1.00294 0.0
C203 C 0.93427 0.9631 0.0239 0.0
C204 C 0.91939 0.98341 0.04649 0.0
C205 C 0.96422 0.9303 0.98047 0.0
C206 C 0.9339 0.96007 0.97964 0.0
C207 C 0.91985 0.97648 1.00144 0.0
C208 C 0.91629 0.97488 0.9565 0.0
C209 C 0.9831 0.91379 0.95784 0.0
C210 C 0.91591 0.01619 0.95145 0.0
C211 C 0.89549 0.03101 0.9313 0.0
C212 C 0.87489 0.00493 0.91556 0.0
C213 C 0.87691 0.96335 0.91991 0.0
C214 C 0.89716 0.9485 0.94029 0.0
H215 H 0.01329 0.90087 0.96146 0.0
H216 H 0.96381 0.88947 0.95054 0.0
H217 H 0.98613 0.93747 0.94387 0.0
H218 H 0.93052 0.0372 0.96353 0.0
H219 H 0.8947 0.06321 0.9285 0.0
H220 H 0.43388 0.39268 0.43227 0.0
H221 H 0.46084 0.42894 0.4669 0.0
H222 H 0.58115 0.39692 0.44534 0.0
H223 H 0.55425 0.36131 0.41017 0.0
H224 H 0.49994 0.39702 0.50369 0.0
H225 H 0.59638 0.5136 0.46254 0.0
H226 H 0.55982 0.48556 0.44542 0.0
H227 H 0.60841 0.46423 0.45175 0.0
C228 C 0.46619 0.39407 0.43455 0.0
C229 C 0.49191 0.37406 0.41836 0.0
C230 C 0.48156 0.41472 0.45449 0.0
C231 C 0.52309 0.41587 0.45886 0.0
C232 C 0.54904 0.39723 0.44222 0.0
H233 H 0.64021 0.44559 0.5982 0.0
H234 H 0.60426 0.41969 0.56288 0.0
C235 C 0.53363 0.3768 0.42206 0.0
C236 C 0.5387 0.43379 0.48174 0.0
H237 H 0.60706 0.5005 0.50441 0.0
C238 C 0.52322 0.41983 0.5038 0.0
C239 C 0.56839 0.46426 0.48207 0.0
C240 C 0.58392 0.48313 0.45918 0.0
C241 C 0.5374 0.4345 0.52603 0.0
C242 C 0.56888 0.46312 0.52636 0.0
C243 C 0.58346 0.47802 0.50429 0.0
C244 C 0.58717 0.47825 0.54924 0.0
C245 C 0.51792 0.41974 0.54891 0.0
C246 C 0.58953 0.51973 0.55358 0.0
C247 C 0.61037 0.53453 0.57359 0.0
C248 C 0.6294 0.50827 0.58992 0.0
C249 C 0.62552 0.46664 0.58621 0.0
C250 C 0.60489 0.4518 0.56597 0.0
H251 H 0.48715 0.40804 0.54551 0.0
H252 H 0.53611 0.39486 0.55652 0.0
H253 H 0.51602 0.44407 0.56255 0.0
H254 H 0.57605 0.54083 0.54109 0.0
H255 H 0.61262 0.56678 0.57587 0.0
H256 H 0.06094 0.28493 0.22953 0.0
H257 H 0.126 0.29607 0.24858 0.0
H258 H 0.17927 0.20613 0.20275 0.0
H259 H 0.11358 0.1941 0.18382 0.0
H260 H 0.20636 0.1995 0.24872 0.0
H261 H 0.21866 0.35845 0.22102 0.0
H262 H 0.173 0.34927 0.23724 0.0
H263 H 0.18124 0.3251 0.20862 0.0
C264 C 0.08638 0.26737 0.22345 0.0
C265 C 0.08188 0.23875 0.20497 0.0
C266 C 0.12381 0.27408 0.23427 0.0
C267 C 0.15804 0.25282 0.22672 0.0
C268 C 0.15351 0.22331 0.20876 0.0
H269 H 0.40475 0.26695 0.28843 0.0
H270 H 0.35031 0.25589 0.25905 0.0
C271 C 0.11586 0.21638 0.19796 0.0
C272 C 0.19809 0.26111 0.23802 0.0
H273 H 0.26222 0.33753 0.25328 0.0
C274 C 0.21891 0.22955 0.24934 0.0
C275 C 0.2149 0.30028 0.23875 0.0
C276 C 0.196 0.3351 0.22553 0.0
C277 C 0.25462 0.2365 0.26239 0.0
C278 C 0.27022 0.276 0.26409 0.0
C279 C 0.25027 0.30727 0.25205 0.0
C280 C 0.30474 0.28598 0.28021 0.0
C281 C 0.27448 0.20189 0.27527 0.0
C282 C 0.29767 0.30787 0.30136 0.0
C283 C 0.32851 0.31411 0.31808 0.0
C284 C 0.36748 0.29912 0.31395 0.0
C285 C 0.37523 0.27923 0.29206 0.0
C286 C 0.34403 0.27251 0.27538 0.0
H287 H 0.25612 0.17403 0.27452 0.0
H288 H 0.30405 0.19565 0.26682 0.0
H289 H 0.27995 0.20974 0.29443 0.0
H290 H 0.26775 0.31875 0.30545 0.0
H291 H 0.32146 0.32955 0.33473 0.0
H292 H 0.30693 0.61789 0.68425 0.0
H293 H 0.29729 0.68254 0.70499 0.0
H294 H 0.20657 0.62883 0.75003 0.0
H295 H 0.21576 0.5646 0.72953 0.0
H296 H 0.21994 0.72876 0.71119 0.0
H297 H 0.28994 0.68132 0.79735 0.0
H298 H 0.29931 0.6557 0.76923 0.0
H299 H 0.25335 0.64697 0.78536 0.0
C300 C 0.28511 0.61979 0.69868 0.0
C301 C 0.2623 0.58584 0.70527 0.0
C302 C 0.27948 0.65684 0.71042 0.0
C303 C 0.25135 0.66053 0.72918 0.0
C304 C 0.22868 0.6267 0.73577 0.0
H305 H 0.16884 0.82762 0.8354 0.0
H306 H 0.17999 0.77236 0.80737 0.0
C307 C 0.23402 0.5899 0.72397 0.0
C308 C 0.24543 0.69939 0.74214 0.0
H309 H 0.25271 0.74198 0.79795 0.0
C310 C 0.22746 0.73192 0.7301 0.0
C311 C 0.25525 0.70351 0.76679 0.0
C312 C 0.27585 0.6702 0.78048 0.0
C313 C 0.21746 0.76777 0.74235 0.0
C314 C 0.22635 0.77146 0.76722 0.0
C315 C 0.24551 0.73926 0.77897 0.0
C316 C 0.21473 0.80734 0.78196 0.0
C317 C 0.19598 0.80063 0.72879 0.0
C318 C 0.22916 0.8462 0.77673 0.0
C319 C 0.22213 0.87833 0.7927 0.0
C320 C 0.20111 0.87199 0.81436 0.0
C321 C 0.18511 0.83358 0.81888 0.0
C322 C 0.19169 0.80182 0.80289 0.0
H323 H 0.18252 0.78939 0.71176 0.0
H324 H 0.17186 0.81416 0.73997 0.0
H325 H 0.2178 0.82463 0.72415 0.0
H326 H 0.24762 0.8513 0.76097 0.0
H327 H 0.23546 0.90735 0.7889 0.0
H328 H 0.67639 0.67394 0.33324 0.0
H329 H 0.72991 0.68448 0.30383 0.0
H330 H 0.64738 0.74805 0.25772 0.0
H331 H 0.59312 0.73726 0.28725 0.0
H332 H 0.73506 0.66582 0.25174 0.0
H333 H 0.74205 0.82931 0.27289 0.0
H334 H 0.71806 0.79374 0.29283 0.0
H335 H 0.69398 0.80795 0.26522 0.0
C336 C 0.66929 0.68948 0.31663 0.0
C337 C 0.6304 0.70475 0.31262 0.0
C338 C 0.70003 0.69557 0.29983 0.0
C339 C 0.69293 0.71758 0.27872 0.0
C340 C 0.65369 0.73133 0.27402 0.0
H341 H 0.88441 0.80825 0.18211 0.0
H342 H 0.81864 0.79664 0.20103 0.0
C343 C 0.62259 0.72477 0.29078 0.0
C344 C 0.7274 0.7274 0.26252 0.0
H345 H 0.79157 0.80357 0.24704 0.0
C346 C 0.74715 0.69602 0.25048 0.0
C347 C 0.74317 0.76682 0.26078 0.0
C348 C 0.72353 0.80155 0.27366 0.0
C349 C 0.78251 0.70282 0.23714 0.0
C350 C 0.79951 0.74191 0.23638 0.0
C351 C 0.77888 0.77358 0.24769 0.0
C352 C 0.83961 0.74995 0.22509 0.0
C353 C 0.8012 0.66789 0.22393 0.0
C354 C 0.87372 0.72855 0.2327 0.0
C355 C 0.91119 0.73503 0.2219 0.0
C356 C 0.91586 0.76354 0.20337 0.0
C357 C 0.882 0.78605 0.1963 0.0
C358 C 0.84431 0.77936 0.20708 0.0
H359 H 0.77841 0.64465 0.21945 0.0
H360 H 0.81598 0.6778 0.20701 0.0
H361 H 0.82415 0.65363 0.23564 0.0
H362 H 0.8714 0.70664 0.24705 0.0
H363 H 0.93653 0.71737 0.22803 0.0
H364 H 0.69848 0.38348 0.68052 0.0
H365 H 0.71021 0.31774 0.69926 0.0
H366 H 0.79735 0.37111 0.74703 0.0
H367 H 0.78659 0.43635 0.72807 0.0
H368 H 0.82582 0.30261 0.72815 0.0
H369 H 0.67186 0.27489 0.76302 0.0
H370 H 0.67435 0.28347 0.73114 0.0
H371 H 0.68739 0.32323 0.75164 0.0
C372 C 0.71982 0.38128 0.69519 0.0
C373 C 0.74144 0.41539 0.70281 0.0
C374 C 0.72642 0.34362 0.70598 0.0
C375 C 0.75437 0.3393 0.72485 0.0
C376 C 0.77564 0.37344 0.73255 0.0
H377 H 0.83607 0.1747 0.83133 0.0
H378 H 0.82626 0.22863 0.80212 0.0
C379 C 0.76931 0.41089 0.7217 0.0
C380 C 0.76259 0.29938 0.7363 0.0
H381 H 0.71949 0.22326 0.76883 0.0
C382 C 0.80244 0.28524 0.73692 0.0
C383 C 0.73221 0.27631 0.7477 0.0
C384 C 0.68911 0.2903 0.74859 0.0
C385 C 0.81278 0.24946 0.74895 0.0
C386 C 0.78262 0.22707 0.76088 0.0
C387 C 0.74259 0.24029 0.75956 0.0
C388 C 0.79255 0.19239 0.77688 0.0
C389 C 0.85607 0.23606 0.74903 0.0
C390 C 0.77745 0.15362 0.77232 0.0
C391 C 0.78357 0.1223 0.78898 0.0
C392 C 0.80413 0.12952 0.8107 0.0
C393 C 0.82032 0.16803 0.81472 0.0
C394 C 0.81474 0.19897 0.798 0.0
H395 H 0.87324 0.24965 0.73393 0.0
H396 H 0.8704 0.24561 0.76615 0.0
H397 H 0.85829 0.20282 0.74778 0.0
H398 H 0.76002 0.14787 0.75621 0.0
H399 H 0.77017 0.0932 0.78552 0.0
H400 H 0.55993 0.21468 0.28046 0.0
H401 H 0.6244 0.20518 0.26022 0.0
H402 H 0.6784 0.29434 0.30626 0.0
H403 H 0.61358 0.3043 0.32669 0.0
H404 H 0.67254 0.26794 0.23626 0.0
H405 H 0.75362 0.19198 0.31125 0.0
H406 H 0.69939 0.19372 0.3098 0.0
H407 H 0.72715 0.23788 0.31788 0.0
C408 C 0.5854 0.23242 0.28634 0.0
C409 C 0.5814 0.26031 0.30526 0.0
C410 C 0.62234 0.22686 0.27472 0.0
C411 C 0.65644 0.24863 0.28188 0.0
C412 C 0.65266 0.27678 0.30063 0.0
H413 H 0.90188 0.23441 0.22096 0.0
H414 H 0.84528 0.24685 0.24858 0.0
C415 C 0.61548 0.28266 0.31217 0.0
C416 C 0.69539 0.24234 0.26906 0.0
H417 H 0.78902 0.20063 0.27482 0.0
C418 C 0.69806 0.25342 0.24474 0.0
C419 C 0.72888 0.22373 0.28017 0.0
C420 C 0.7274 0.21084 0.30618 0.0
C421 C 0.73296 0.24603 0.23115 0.0
C422 C 0.76592 0.2258 0.24191 0.0
C423 C 0.76376 0.21579 0.26648 0.0
C424 C 0.80186 0.2136 0.22745 0.0
C425 C 0.73419 0.26031 0.20536 0.0
C426 C 0.79697 0.18895 0.20714 0.0
C427 C 0.82902 0.18202 0.1914 0.0
C428 C 0.86713 0.19886 0.19577 0.0
C429 C 0.87302 0.22072 0.21719 0.0
C430 C 0.84059 0.2281 0.23289 0.0
H431 H 0.71286 0.28547 0.20226 0.0
H432 H 0.76483 0.27042 0.20024 0.0
H433 H 0.72537 0.23524 0.19329 0.0
H434 H 0.76779 0.17639 0.20287 0.0
H435 H 0.82351 0.16485 0.17516 0.0
H436 H 0.26867 0.40862 0.72166 0.0
H437 H 0.25802 0.35395 0.75092 0.0
H438 H 0.32518 0.27326 0.7055 0.0
H439 H 0.33549 0.32719 0.67634 0.0
H440 H 0.21787 0.27831 0.73828 0.0
H441 H 0.37126 0.25263 0.77393 0.0
H442 H 0.35638 0.29932 0.75989 0.0
H443 H 0.3688 0.25644 0.74168 0.0
C444 C 0.28215 0.37954 0.7183 0.0
C445 C 0.30315 0.37235 0.69673 0.0
C446 C 0.27573 0.34821 0.73492 0.0
C447 C 0.29096 0.30945 0.7305 0.0
C448 C 0.31354 0.3029 0.70952 0.0
H449 H 0.28522 0.06577 0.78021 0.0
H450 H 0.29591 0.1308 0.76098 0.0
C451 C 0.31942 0.33385 0.69283 0.0
C452 C 0.28092 0.27477 0.74651 0.0
H453 H 0.3239 0.19959 0.77963 0.0
C454 C 0.2409 0.26142 0.74768 0.0
C455 C 0.31098 0.25254 0.75862 0.0
C456 C 0.35425 0.26607 0.75871 0.0
C457 C 0.23046 0.22545 0.75961 0.0
C458 C 0.26076 0.20254 0.77121 0.0
C459 C 0.30058 0.2168 0.77071 0.0
C460 C 0.25249 0.16269 0.78279 0.0
C461 C 0.18741 0.21132 0.75857 0.0
C462 C 0.22431 0.15845 0.80154 0.0
C463 C 0.21776 0.12089 0.81249 0.0
C464 C 0.23965 0.0868 0.80516 0.0
C465 C 0.26772 0.09121 0.78637 0.0
C466 C 0.27401 0.12856 0.77536 0.0
H467 H 0.17031 0.22653 0.74399 0.0
H468 H 0.18579 0.17836 0.75564 0.0
H469 H 0.17242 0.21831 0.77592 0.0
H470 H 0.20789 0.18433 0.80806 0.0
H471 H 0.19625 0.11877 0.82707 0.0
H472 H 0.43784 0.78933 0.27933 0.0
H473 H 0.37332 0.79835 0.25904 0.0
H474 H 0.31967 0.70958 0.3055 0.0
H475 H 0.38455 0.7001 0.32596 0.0
H476 H 0.3254 0.7348 0.23543 0.0
H477 H 0.2441 0.81192 0.30988 0.0
H478 H 0.29834 0.81047 0.30841 0.0
H479 H 0.27085 0.76631 0.31681 0.0
C480 C 0.41244 0.77158 0.28529 0.0
C481 C 0.41656 0.74393 0.30433 0.0
C482 C 0.37547 0.77686 0.27365 0.0
C483 C 0.34145 0.75506 0.2809 0.0
C484 C 0.34535 0.72716 0.29979 0.0
H485 H 0.09603 0.76768 0.21971 0.0
H486 H 0.15259 0.7558 0.24748 0.0
C487 C 0.38256 0.72155 0.31135 0.0
C488 C 0.30249 0.76099 0.26804 0.0
H489 H 0.20878 0.80263 0.27347 0.0
C490 C 0.29985 0.74943 0.2438 0.0
C491 C 0.26896 0.77975 0.279 0.0
C492 C 0.27042 0.79312 0.30493 0.0
C493 C 0.26493 0.75649 0.23015 0.0
C494 C 0.23193 0.77687 0.24075 0.0
C495 C 0.23406 0.78735 0.26525 0.0
C496 C 0.196 0.78876 0.22619 0.0
C497 C 0.26373 0.74171 0.20446 0.0
C498 C 0.2009 0.81306 0.20573 0.0
C499 C 0.16888 0.81966 0.18991 0.0
C500 C 0.13079 0.80284 0.19435 0.0
C501 C 0.12488 0.78134 0.21589 0.0
C502 C 0.15729 0.77429 0.23167 0.0
H503 H 0.2851 0.71653 0.20154 0.0
H504 H 0.23311 0.73146 0.1994 0.0
H505 H 0.27252 0.76656 0.19221 0.0
H506 H 0.23007 0.82559 0.20141 0.0
H507 H 0.17441 0.83656 0.17356 0.0
H508 H 0.73104 0.58866 0.72209 0.0
H509 H 0.7418 0.64088 0.75286 0.0
H510 H 0.68825 0.72898 0.70589 0.0
H511 H 0.67762 0.67744 0.67529 0.0
H512 H 0.78926 0.71298 0.74521 0.0
H513 H 0.63268 0.74939 0.7714 0.0
H514 H 0.64611 0.70287 0.7567 0.0
H515 H 0.64103 0.74828 0.73944 0.0
C516 C 0.72061 0.61893 0.71861 0.0
C517 C 0.70328 0.62878 0.69625 0.0
C518 C 0.7271 0.64885 0.73612 0.0
C519 C 0.71568 0.68892 0.73176 0.0
C520 C 0.69689 0.69831 0.70985 0.0
H521 H 0.80047 0.91688 0.7907 0.0
H522 H 0.78725 0.85737 0.76575 0.0
C523 C 0.69087 0.6687 0.69233 0.0
C524 C 0.72552 0.72168 0.74919 0.0
H525 H 0.68307 0.79666 0.78278 0.0
C526 C 0.76605 0.73105 0.75362 0.0
C527 C 0.69531 0.74527 0.76024 0.0
C528 C 0.65131 0.73583 0.75693 0.0
C529 C 0.7771 0.76393 0.76821 0.0
C530 C 0.74686 0.78842 0.77854 0.0
C531 C 0.70634 0.77829 0.77467 0.0
C532 C 0.75646 0.82422 0.79377 0.0
C533 C 0.82109 0.77203 0.77259 0.0
C534 C 0.74328 0.82579 0.81776 0.0
C535 C 0.75079 0.85969 0.83202 0.0
C536 C 0.77139 0.89323 0.82264 0.0
C537 C 0.78474 0.89161 0.79859 0.0
C538 C 0.77733 0.85748 0.78432 0.0
H539 H 0.83991 0.74536 0.76842 0.0
H540 H 0.83103 0.79709 0.76083 0.0
H541 H 0.82645 0.78098 0.7916 0.0
H542 H 0.72703 0.80069 0.82548 0.0
H543 H 0.7399 0.8597 0.8504 0.0
H544 H 0.98474 0.66636 0.15738 0.0
H545 H 0.97398 0.59395 0.15437 0.0
H546 H 0.04653 0.59037 0.09 0.0
H547 H 0.05873 0.66262 0.09342 0.0
H548 H 0.9405 0.54711 0.12129 0.0
H549 H 0.10155 0.50701 0.13045 0.0
H550 H 0.08324 0.55728 0.13549 0.0
H551 H 0.09162 0.53937 0.10532 0.0
C552 C 0.9983 0.6502 0.14253 0.0
C553 C 0.02295 0.6701 0.12578 0.0
C554 C 0.99213 0.60881 0.14083 0.0
C555 C 0.01019 0.58659 0.12227 0.0
C556 C 0.0333 0.60669 0.10489 0.0
H557 H 0.93874 0.3377 0.09431 0.0
H558 H 0.95068 0.40995 0.09053 0.0
C559 C 0.04 0.64802 0.10677 0.0
C560 C 0.00503 0.54238 0.12139 0.0
H561 H 0.05667 0.45378 0.12161 0.0
C562 C 0.96588 0.52667 0.12135 0.0
C563 C 0.03822 0.51578 0.12183 0.0
C564 C 0.08101 0.53065 0.12352 0.0
C565 C 0.95895 0.4851 0.12189 0.0
C566 C 0.99214 0.4585 0.12164 0.0
C567 C 0.03129 0.47422 0.12153 0.0
C568 C 0.987 0.4143 0.12279 0.0
C569 C 0.91616 0.47026 0.12363 0.0
C570 C 0.00512 0.39241 0.14147 0.0
C571 C 0.9991 0.35103 0.14338 0.0
C572 C 0.97455 0.3308 0.12671 0.0
C573 C 0.9574 0.35256 0.10759 0.0
C574 C 0.96395 0.39388 0.10551 0.0
H575 H 0.8956 0.49401 0.1304 0.0
H576 H 0.90558 0.46124 0.10547 0.0
H577 H 0.91391 0.44382 0.13576 0.0
H578 H 0.02322 0.40752 0.15494 0.0
H579 H 0.01273 0.33513 0.15832 0.0
H580 H 0.83769 0.48511 0.65559 0.0
H581 H 0.90995 0.47455 0.65158 0.0
H582 H 0.9111 0.54788 0.58748 0.0
H583 H 0.83895 0.55993 0.59193 0.0
H584 H 0.95586 0.44172 0.61784 0.0
H585 H 0.99529 0.60302 0.62726 0.0
H586 H 0.94526 0.58433 0.6327 0.0
H587 H 0.96242 0.59284 0.60238 0.0
C588 C 0.85327 0.49888 0.64058 0.0
C589 C 0.83274 0.52373 0.62423 0.0
C590 C 0.89458 0.4928 0.6383 0.0
C591 C 0.91608 0.51114 0.61953 0.0
C592 C 0.89533 0.53442 0.60251 0.0
H593 H 0.16651 0.44137 0.59313 0.0
H594 H 0.09435 0.45285 0.58821 0.0
C595 C 0.85407 0.54104 0.60498 0.0
C596 C 0.96028 0.50627 0.61821 0.0
H597 H 0.04864 0.5584 0.61876 0.0
C598 C 0.97619 0.46722 0.61799 0.0
C599 C 0.98671 0.53961 0.61872 0.0
C600 C 0.97164 0.58229 0.62052 0.0
C601 C 0.01779 0.4605 0.61863 0.0
C602 C 0.04422 0.49385 0.61866 0.0
C603 C 0.02831 0.5329 0.61851 0.0
C604 C 0.08838 0.48899 0.62044 0.0
C605 C 0.03282 0.41779 0.62031 0.0
C606 C 0.10932 0.50712 0.6395 0.0
C607 C 0.15064 0.50138 0.64205 0.0
C608 C 0.17174 0.47708 0.62568 0.0
C609 C 0.15094 0.45985 0.6062 0.0
C610 C 0.10968 0.46613 0.60346 0.0
H611 H 0.00898 0.39693 0.62665 0.0
H612 H 0.04257 0.40759 0.6022 0.0
H613 H 0.05884 0.41552 0.63275 0.0
H614 H 0.09353 0.52504 0.65276 0.0
H615 H 0.16579 0.51506 0.65725 0.0
H616 H 0.43753 0.16566 0.41832 0.0
H617 H 0.45098 0.09415 0.42455 0.0
H618 H 0.52682 0.09315 0.36152 0.0
H619 H 0.51474 0.16475 0.3557 0.0
H620 H 0.43213 0.03354 0.39655 0.0
H621 H 0.59695 0.03423 0.40795 0.0
H622 H 0.5675 0.07972 0.40887 0.0
H623 H 0.58297 0.05865 0.38044 0.0
C624 C 0.45752 0.15029 0.40599 0.0
C625 C 0.4752 0.17086 0.38657 0.0
C626 C 0.46517 0.10946 0.40957 0.0
C627 C 0.49045 0.08842 0.39375 0.0
C628 C 0.5082 0.10896 0.37439 0.0
H629 H 0.48449 0.84038 0.35471 0.0
H630 H 0.47262 0.91194 0.3609 0.0
C631 C 0.50101 0.14988 0.37098 0.0
C632 C 0.496 0.04446 0.39637 0.0
H633 H 0.56734 0.97092 0.39632 0.0
C634 C 0.46172 0.01986 0.39687 0.0
C635 C 0.53454 0.02658 0.3973 0.0
C636 C 0.57252 0.05125 0.39889 0.0
C637 C 0.46493 0.97786 0.39713 0.0
C638 C 0.50347 0.96001 0.39606 0.0
C639 C 0.53776 0.98459 0.39674 0.0
C640 C 0.50901 0.91609 0.39316 0.0
C641 C 0.42696 0.95316 0.39855 0.0
C642 C 0.53427 0.89476 0.40886 0.0
C643 C 0.5418 0.85396 0.40507 0.0
C644 C 0.52402 0.83372 0.38555 0.0
C645 C 0.49828 0.855 0.37006 0.0
C646 C 0.49122 0.89589 0.37369 0.0
H647 H 0.40253 0.97001 0.40772 0.0
H648 H 0.4165 0.94611 0.38005 0.0
H649 H 0.43198 0.92451 0.40835 0.0
H650 H 0.5485 0.9098 0.42393 0.0
H651 H 0.56173 0.83835 0.41733 0.0
H652 H 0.33624 0.01804 0.85207 0.0
H653 H 0.40867 0.02843 0.85531 0.0
H654 H 0.41114 0.95698 0.92016 0.0
H655 H 0.33884 0.94512 0.9165 0.0
H656 H 0.45572 0.06199 0.88827 0.0
H657 H 0.49402 0.9003 0.8802 0.0
H658 H 0.44397 0.91909 0.87497 0.0
H659 H 0.46175 0.9112 0.90523 0.0
C660 C 0.35215 0.00466 0.86709 0.0
C661 C 0.33193 0.98037 0.88388 0.0
C662 C 0.39355 0.01063 0.86892 0.0
C663 C 0.41547 0.99273 0.88767 0.0
C664 C 0.39504 0.97007 0.90513 0.0
H665 H 0.66598 0.06189 0.9135 0.0
H666 H 0.59371 0.05089 0.91812 0.0
C667 C 0.35369 0.96357 0.90311 0.0
C668 C 0.45974 0.99742 0.88857 0.0
H669 H 0.54778 0.9448 0.8883 0.0
C670 C 0.47589 0.03638 0.88831 0.0
C671 C 0.48597 0.96393 0.88827 0.0
C672 C 0.47062 0.92129 0.88694 0.0
C673 C 0.51752 0.04285 0.88751 0.0
C674 C 0.54376 0.00936 0.88781 0.0
C675 C 0.52762 0.97041 0.88832 0.0
C676 C 0.58799 0.01397 0.88619 0.0
C677 C 0.53281 0.08542 0.88539 0.0
C678 C 0.60911 0.99522 0.86742 0.0
C679 C 0.6505 0.00071 0.86504 0.0
C680 C 0.6715 0.02535 0.88129 0.0
C681 C 0.65052 0.04315 0.90051 0.0
C682 C 0.60918 0.03714 0.90308 0.0
H683 H 0.50913 0.10617 0.87873 0.0
H684 H 0.54244 0.09616 0.90341 0.0
H685 H 0.55895 0.08718 0.87301 0.0
H686 H 0.5934 0.97701 0.85426 0.0
H687 H 0.6658 0.98654 0.85006 0.0
loop_
_geom_bond_atom_site_label_1
_geom_bond_atom_site_label_2
_geom_bond_distance
_geom_bond_site_symmetry_2
_ccdc_geom_bond_type
Zn0 O3 2.031 . S
Zn0 O5 2.049 . S
Zn0 O10 2.067 . S
Zn1 O2 1.962 . S
Zn1 O4 1.986 . S
Zn1 O6 1.996 . S
Zn1 O9 1.943 . S
O2 Zn1 1.962 . S
O2 C7 1.254 . S
O3 Zn0 2.031 . S
O3 C7 1.269 . S
O4 Zn1 1.986 . S
O4 C11 1.262 . S
O5 Zn0 2.049 . S
O5 C13 1.260 . S
O6 Zn1 1.996 . S
O6 C13 1.257 . S
C7 O2 1.254 . S
C7 O3 1.269 . S
C8 O9 1.249 . S
C8 O10 1.270 . S
O9 Zn1 1.943 . S
O9 C8 1.249 . S
O10 Zn0 2.067 . S
O10 C8 1.270 . S
C11 O4 1.262 . S
C11 O12 1.232 . S
O12 C11 1.232 . S
C13 O5 1.260 . S
C13 O6 1.257 . S
Zn14 O17 2.031 . S
Zn14 O19 2.049 . S
Zn14 O24 2.067 . S
Zn15 O16 1.962 . S
Zn15 O18 1.986 . S
Zn15 O20 1.996 . S
Zn15 O23 1.943 . S
O16 Zn15 1.962 . S
O16 C21 1.254 . S
O17 Zn14 2.031 . S
O17 C21 1.269 . S
O18 Zn15 1.986 . S
O18 C25 1.262 . S
O19 Zn14 2.049 . S
O19 C27 1.260 . S
O20 Zn15 1.996 . S
O20 C27 1.257 . S
C21 O16 1.254 . S
C21 O17 1.269 . S
C22 O23 1.249 . S
C22 O24 1.270 . S
O23 Zn15 1.943 . S
O23 C22 1.249 . S
O24 Zn14 2.067 . S
O24 C22 1.270 . S
C25 O18 1.262 . S
C25 O26 1.232 . S
O26 C25 1.232 . S
C27 O19 1.260 . S
C27 O20 1.257 . S
Zn28 O31 2.031 . S
Zn28 O33 2.049 . S
Zn28 O38 2.067 . S
Zn29 O30 1.962 . S
Zn29 O32 1.986 . S
Zn29 O34 1.996 . S
Zn29 O37 1.943 . S
O30 Zn29 1.962 . S
O30 C35 1.254 . S
O31 Zn28 2.031 . S
O31 C35 1.269 . S
O32 Zn29 1.986 . S
O32 C39 1.262 . S
O33 Zn28 2.049 . S
O33 C41 1.260 . S
O34 Zn29 1.996 . S
O34 C41 1.257 . S
C35 O30 1.254 . S
C35 O31 1.269 . S
C36 O37 1.249 . S
C36 O38 1.270 . S
O37 Zn29 1.943 . S
O37 C36 1.249 . S
O38 Zn28 2.067 . S
O38 C36 1.270 . S
C39 O32 1.262 . S
C39 O40 1.232 . S
O40 C39 1.232 . S
C41 O33 1.260 . S
C41 O34 1.257 . S
Zn42 O45 2.031 . S
Zn42 O47 2.049 . S
Zn42 O52 2.067 . S
Zn43 O44 1.962 . S
Zn43 O46 1.986 . S
Zn43 O48 1.996 . S
Zn43 O51 1.943 . S
O44 Zn43 1.962 . S
O44 C49 1.254 . S
O45 Zn42 2.031 . S
O45 C49 1.269 . S
O46 Zn43 1.986 . S
O46 C53 1.262 . S
O47 Zn42 2.049 . S
O47 C55 1.260 . S
O48 Zn43 1.996 . S
O48 C55 1.257 . S
C49 O44 1.254 . S
C49 O45 1.269 . S
C50 O51 1.249 . S
C50 O52 1.270 . S
O51 Zn43 1.943 . S
O51 C50 1.249 . S
O52 Zn42 2.067 . S
O52 C50 1.270 . S
C53 O46 1.262 . S
C53 O54 1.232 . S
O54 C53 1.232 . S
C55 O47 1.260 . S
C55 O48 1.257 . S
Zn56 O59 2.031 . S
Zn56 O61 2.049 . S
Zn56 O66 2.067 . S
Zn57 O58 1.962 . S
Zn57 O60 1.986 . S
Zn57 O62 1.996 . S
Zn57 O65 1.943 . S
O58 Zn57 1.962 . S
O58 C63 1.254 . S
O59 Zn56 2.031 . S
O59 C63 1.269 . S
O60 Zn57 1.986 . S
O60 C67 1.262 . S
O61 Zn56 2.049 . S
O61 C69 1.260 . S
O62 Zn57 1.996 . S
O62 C69 1.257 . S
C63 O58 1.254 . S
C63 O59 1.269 . S
C64 O65 1.249 . S
C64 O66 1.270 . S
O65 Zn57 1.943 . S
O65 C64 1.249 . S
O66 Zn56 2.067 . S
O66 C64 1.270 . S
C67 O60 1.262 . S
C67 O68 1.232 . S
O68 C67 1.232 . S
C69 O61 1.260 . S
C69 O62 1.257 . S
Zn70 O73 2.031 . S
Zn70 O75 2.049 . S
Zn70 O80 2.067 . S
Zn71 O72 1.962 . S
Zn71 O74 1.986 . S
Zn71 O76 1.996 . S
Zn71 O79 1.943 . S
O72 Zn71 1.962 . S
O72 C77 1.254 . S
O73 Zn70 2.031 . S
O73 C77 1.269 . S
O74 Zn71 1.986 . S
O74 C81 1.262 . S
O75 Zn70 2.049 . S
O75 C83 1.260 . S
O76 Zn71 1.996 . S
O76 C83 1.257 . S
C77 O72 1.254 . S
C77 O73 1.269 . S
C78 O79 1.249 . S
C78 O80 1.270 . S
O79 Zn71 1.943 . S
O79 C78 1.249 . S
O80 Zn70 2.067 . S
O80 C78 1.270 . S
C81 O74 1.262 . S
C81 O82 1.232 . S
O82 C81 1.232 . S
C83 O75 1.260 . S
C83 O76 1.257 . S
Zn84 O87 2.031 . S
Zn84 O89 2.049 . S
Zn84 O94 2.067 . S
Zn85 O86 1.962 . S
Zn85 O88 1.986 . S
Zn85 O90 1.996 . S
Zn85 O93 1.943 . S
O86 Zn85 1.962 . S
O86 C91 1.254 . S
O87 Zn84 2.031 . S
O87 C91 1.269 . S
O88 Zn85 1.986 . S
O88 C95 1.262 . S
O89 Zn84 2.049 . S
O89 C97 1.260 . S
O90 Zn85 1.996 . S
O90 C97 1.257 . S
C91 O86 1.254 . S
C91 O87 1.269 . S
C92 O93 1.249 . S
C92 O94 1.270 . S
O93 Zn85 1.943 . S
O93 C92 1.249 . S
O94 Zn84 2.067 . S
O94 C92 1.270 . S
C95 O88 1.262 . S
C95 O96 1.232 . S
O96 C95 1.232 . S
C97 O89 1.260 . S
C97 O90 1.257 . S
Zn98 O101 2.031 . S
Zn98 O103 2.049 . S
Zn98 O108 2.067 . S
Zn99 O100 1.962 . S
Zn99 O102 1.986 . S
Zn99 O104 1.996 . S
Zn99 O107 1.943 . S
O100 Zn99 1.962 . S
O100 C105 1.254 . S
O101 Zn98 2.031 . S
O101 C105 1.269 . S
O102 Zn99 1.986 . S
O102 C109 1.262 . S
O103 Zn98 2.049 . S
O103 C111 1.260 . S
O104 Zn99 1.996 . S
O104 C111 1.257 . S
C105 O100 1.254 . S
C105 O101 1.269 . S
C106 O107 1.249 . S
C106 O108 1.270 . S
O107 Zn99 1.943 . S
O107 C106 1.249 . S
O108 Zn98 2.067 . S
O108 C106 1.270 . S
C109 O102 1.262 . S
C109 O110 1.232 . S
O110 C109 1.232 . S
C111 O103 1.260 . S
C111 O104 1.257 . S
H112 C120 0.929 . S
H113 C122 0.930 . S
H114 C124 0.930 . S
H115 C127 0.929 . S
H116 C130 0.930 . S
H117 C132 0.960 . S
H118 C132 0.960 . S
H119 C132 0.960 . S
C120 H112 0.929 . S
C120 C121 1.377 . S
C120 C122 1.384 . S
C121 C120 1.377 . S
C121 C127 1.390 . S
C122 H113 0.930 . S
C122 C120 1.384 . S
C122 C123 1.372 . S
C123 C122 1.372 . S
C123 C124 1.400 . S
C123 C128 1.490 . S
C124 H114 0.930 . S
C124 C123 1.400 . S
C124 C127 1.386 . S
H125 C141 0.930 . S
H126 C142 0.931 . S
C127 H115 0.929 . S
C127 C121 1.390 . S
C127 C124 1.386 . S
C128 C123 1.490 . S
C128 C130 1.395 . S
C128 C131 1.403 . S
H129 C135 0.930 . S
C130 H116 0.930 . S
C130 C128 1.395 . S
C130 C133 1.403 1_554 S
C131 C128 1.403 . S
C131 C132 1.524 . S
C131 C135 1.400 1_554 S
C132 H117 0.960 . S
C132 H118 0.960 . S
C132 H119 0.960 . S
C132 C131 1.524 . S
C133 C130 1.403 1_556 S
C133 C134 1.392 . S
C133 C137 1.495 . S
C134 C133 1.392 . S
C134 C135 1.385 . S
C134 C136 1.478 . S
C135 H129 0.930 . S
C135 C131 1.400 1_556 S
C135 C134 1.385 . S
C136 C134 1.478 . S
C136 C138 1.381 . S
C136 C142 1.383 . S
C137 C133 1.495 . S
C137 H143 0.959 . S
C137 H144 0.961 . S
C137 H145 0.960 . S
C138 C136 1.381 . S
C138 C139 1.394 . S
C138 H146 0.930 . S
C139 C138 1.394 . S
C139 C140 1.383 . S
C139 H147 0.929 . S
C140 C139 1.383 . S
C140 C141 1.377 . S
C141 H125 0.930 . S
C141 C140 1.377 . S
C141 C142 1.379 . S
C142 H126 0.931 . S
C142 C136 1.383 . S
C142 C141 1.379 . S
H143 C137 0.959 . S
H144 C137 0.961 . S
H145 C137 0.960 . S
H146 C138 0.930 . S
H147 C139 0.929 . S
H148 C156 0.929 . S
H149 C158 0.930 . S
H150 C160 0.930 . S
H151 C163 0.929 . S
H152 C166 0.930 . S
H153 C168 0.960 . S
H154 C168 0.960 . S
H155 C168 0.960 . S
C156 H148 0.929 . S
C156 C157 1.377 . S
C156 C158 1.384 . S
C157 C156 1.377 . S
C157 C163 1.390 . S
C158 H149 0.930 . S
C158 C156 1.384 . S
C158 C159 1.372 . S
C159 C158 1.372 . S
C159 C160 1.400 . S
C159 C164 1.490 . S
C160 H150 0.930 . S
C160 C159 1.400 . S
C160 C163 1.386 . S
H161 C177 0.930 . S
H162 C178 0.931 . S
C163 H151 0.929 . S
C163 C157 1.390 . S
C163 C160 1.386 . S
C164 C159 1.490 . S
C164 C166 1.395 . S
C164 C167 1.403 . S
H165 C171 0.930 . S
C166 H152 0.930 . S
C166 C164 1.395 . S
C166 C169 1.403 . S
C167 C164 1.403 . S
C167 C168 1.524 . S
C167 C171 1.400 . S
C168 H153 0.960 . S
C168 H154 0.960 . S
C168 H155 0.960 . S
C168 C167 1.524 . S
C169 C166 1.403 . S
C169 C170 1.392 . S
C169 C173 1.495 . S
C170 C169 1.392 . S
C170 C171 1.385 . S
C170 C172 1.478 . S
C171 H165 0.930 . S
C171 C167 1.400 . S
C171 C170 1.385 . S
C172 C170 1.478 . S
C172 C174 1.381 . S
C172 C178 1.383 . S
C173 C169 1.495 . S
C173 H179 0.959 . S
C173 H180 0.961 . S
C173 H181 0.960 . S
C174 C172 1.381 . S
C174 C175 1.394 . S
C174 H182 0.930 . S
C175 C174 1.394 . S
C175 C176 1.383 . S
C175 H183 0.929 . S
C176 C175 1.383 . S
C176 C177 1.377 . S
C177 H161 0.930 . S
C177 C176 1.377 . S
C177 C178 1.379 . S
C178 H162 0.931 . S
C178 C172 1.383 . S
C178 C177 1.379 . S
H179 C173 0.959 . S
H180 C173 0.961 . S
H181 C173 0.960 . S
H182 C174 0.930 . S
H183 C175 0.929 . S
H184 C192 0.929 . S
H185 C194 0.930 . S
H186 C196 0.930 . S
H187 C199 0.929 . S
H188 C202 0.930 . S
H189 C204 0.960 . S
H190 C204 0.960 . S
H191 C204 0.960 . S
C192 H184 0.929 . S
C192 C193 1.377 . S
C192 C194 1.384 . S
C193 C192 1.377 . S
C193 C199 1.390 . S
C194 H185 0.930 . S
C194 C192 1.384 . S
C194 C195 1.372 . S
C195 C194 1.372 . S
C195 C196 1.400 . S
C195 C200 1.490 . S
C196 H186 0.930 . S
C196 C195 1.400 . S
C196 C199 1.386 . S
H197 C213 0.930 . S
H198 C214 0.931 . S
C199 H187 0.929 . S
C199 C193 1.390 . S
C199 C196 1.386 . S
C200 C195 1.490 . S
C200 C202 1.395 . S
C200 C203 1.403 . S
H201 C207 0.930 . S
C202 H188 0.930 . S
C202 C200 1.395 . S
C202 C205 1.403 1_554 S
C203 C200 1.403 . S
C203 C204 1.524 . S
C203 C207 1.400 1_554 S
C204 H189 0.960 . S
C204 H190 0.960 . S
C204 H191 0.960 . S
C204 C203 1.524 . S
C205 C202 1.403 1_556 S
C205 C206 1.392 . S
C205 C209 1.495 . S
C206 C205 1.392 . S
C206 C207 1.385 . S
C206 C208 1.478 . S
C207 H201 0.930 . S
C207 C203 1.400 1_556 S
C207 C206 1.385 . S
C208 C206 1.478 . S
C208 C210 1.381 . S
C208 C214 1.383 . S
C209 C205 1.495 . S
C209 H215 0.959 . S
C209 H216 0.961 . S
C209 H217 0.960 . S
C210 C208 1.381 . S
C210 C211 1.394 . S
C210 H218 0.930 . S
C211 C210 1.394 . S
C211 C212 1.383 . S
C211 H219 0.929 . S
C212 C211 1.383 . S
C212 C213 1.377 . S
C213 H197 0.930 . S
C213 C212 1.377 . S
C213 C214 1.379 . S
C214 H198 0.931 . S
C214 C208 1.383 . S
C214 C213 1.379 . S
H215 C209 0.959 . S
H216 C209 0.961 . S
H217 C209 0.960 . S
H218 C210 0.930 . S
H219 C211 0.929 . S
H220 C228 0.929 . S
H221 C230 0.930 . S
H222 C232 0.930 . S
H223 C235 0.929 . S
H224 C238 0.930 . S
H225 C240 0.960 . S
H226 C240 0.960 . S
H227 C240 0.960 . S
C228 H220 0.929 . S
C228 C229 1.377 . S
C228 C230 1.384 . S
C229 C228 1.377 . S
C229 C235 1.390 . S
C230 H221 0.930 . S
C230 C228 1.384 . S
C230 C231 1.372 . S
C231 C230 1.372 . S
C231 C232 1.400 . S
C231 C236 1.490 . S
C232 H222 0.930 . S
C232 C231 1.400 . S
C232 C235 1.386 . S
H233 C249 0.930 . S
H234 C250 0.931 . S
C235 H223 0.929 . S
C235 C229 1.390 . S
C235 C232 1.386 . S
C236 C231 1.490 . S
C236 C238 1.395 . S
C236 C239 1.403 . S
H237 C243 0.930 . S
C238 H224 0.930 . S
C238 C236 1.395 . S
C238 C241 1.403 . S
C239 C236 1.403 . S
C239 C240 1.524 . S
C239 C243 1.400 . S
C240 H225 0.960 . S
C240 H226 0.960 . S
C240 H227 0.960 . S
C240 C239 1.524 . S
C241 C238 1.403 . S
C241 C242 1.392 . S
C241 C245 1.495 . S
C242 C241 1.392 . S
C242 C243 1.385 . S
C242 C244 1.478 . S
C243 H237 0.930 . S
C243 C239 1.400 . S
C243 C242 1.385 . S
C244 C242 1.478 . S
C244 C246 1.381 . S
C244 C250 1.383 . S
C245 C241 1.495 . S
C245 H251 0.959 . S
C245 H252 0.961 . S
C245 H253 0.960 . S
C246 C244 1.381 . S
C246 C247 1.394 . S
C246 H254 0.930 . S
C247 C246 1.394 . S
C247 C248 1.383 . S
C247 H255 0.929 . S
C248 C247 1.383 . S
C248 C249 1.377 . S
C249 H233 0.930 . S
C249 C248 1.377 . S
C249 C250 1.379 . S
C250 H234 0.931 . S
C250 C244 1.383 . S
C250 C249 1.379 . S
H251 C245 0.959 . S
H252 C245 0.961 . S
H253 C245 0.960 . S
H254 C246 0.930 . S
H255 C247 0.929 . S
H256 C264 0.929 . S
H257 C266 0.930 . S
H258 C268 0.930 . S
H259 C271 0.929 . S
H260 C274 0.930 . S
H261 C276 0.960 . S
H262 C276 0.960 . S
H263 C276 0.960 . S
C264 H256 0.929 . S
C264 C265 1.377 . S
C264 C266 1.384 . S
C265 C264 1.377 . S
C265 C271 1.390 . S
C266 H257 0.930 . S
C266 C264 1.384 . S
C266 C267 1.372 . S
C267 C266 1.372 . S
C267 C268 1.400 . S
C267 C272 1.490 . S
C268 H258 0.930 . S
C268 C267 1.400 . S
C268 C271 1.386 . S
H269 C285 0.930 . S
H270 C286 0.931 . S
C271 H259 0.929 . S
C271 C265 1.390 . S
C271 C268 1.386 . S
C272 C267 1.490 . S
C272 C274 1.395 . S
C272 C275 1.403 . S
H273 C279 0.930 . S
C274 H260 0.930 . S
C274 C272 1.395 . S
C274 C277 1.403 . S
C275 C272 1.403 . S
C275 C276 1.524 . S
C275 C279 1.400 . S
C276 H261 0.960 . S
C276 H262 0.960 . S
C276 H263 0.960 . S
C276 C275 1.524 . S
C277 C274 1.403 . S
C277 C278 1.392 . S
C277 C281 1.495 . S
C278 C277 1.392 . S
C278 C279 1.385 . S
C278 C280 1.478 . S
C279 H273 0.930 . S
C279 C275 1.400 . S
C279 C278 1.385 . S
C280 C278 1.478 . S
C280 C282 1.381 . S
C280 C286 1.383 . S
C281 C277 1.495 . S
C281 H287 0.959 . S
C281 H288 0.961 . S
C281 H289 0.960 . S
C282 C280 1.381 . S
C282 C283 1.394 . S
C282 H290 0.930 . S
C283 C282 1.394 . S
C283 C284 1.383 . S
C283 H291 0.929 . S
C284 C283 1.383 . S
C284 C285 1.377 . S
C285 H269 0.930 . S
C285 C284 1.377 . S
C285 C286 1.379 . S
C286 H270 0.931 . S
C286 C280 1.383 . S
C286 C285 1.379 . S
H287 C281 0.959 . S
H288 C281 0.961 . S
H289 C281 0.960 . S
H290 C282 0.930 . S
H291 C283 0.929 . S
H292 C300 0.929 . S
H293 C302 0.930 . S
H294 C304 0.930 . S
H295 C307 0.929 . S
H296 C310 0.930 . S
H297 C312 0.960 . S
H298 C312 0.960 . S
H299 C312 0.960 . S
C300 H292 0.929 . S
C300 C301 1.377 . S
C300 C302 1.384 . S
C301 C300 1.377 . S
C301 C307 1.390 . S
C302 H293 0.930 . S
C302 C300 1.384 . S
C302 C303 1.372 . S
C303 C302 1.372 . S
C303 C304 1.400 . S
C303 C308 1.490 . S
C304 H294 0.930 . S
C304 C303 1.400 . S
C304 C307 1.386 . S
H305 C321 0.930 . S
H306 C322 0.931 . S
C307 H295 0.929 . S
C307 C301 1.390 . S
C307 C304 1.386 . S
C308 C303 1.490 . S
C308 C310 1.395 . S
C308 C311 1.403 . S
H309 C315 0.930 . S
C310 H296 0.930 . S
C310 C308 1.395 . S
C310 C313 1.403 . S
C311 C308 1.403 . S
C311 C312 1.524 . S
C311 C315 1.400 . S
C312 H297 0.960 . S
C312 H298 0.960 . S
C312 H299 0.960 . S
C312 C311 1.524 . S
C313 C310 1.403 . S
C313 C314 1.392 . S
C313 C317 1.495 . S
C314 C313 1.392 . S
C314 C315 1.385 . S
C314 C316 1.478 . S
C315 H309 0.930 . S
C315 C311 1.400 . S
C315 C314 1.385 . S
C316 C314 1.478 . S
C316 C318 1.381 . S
C316 C322 1.383 . S
C317 C313 1.495 . S
C317 H323 0.959 . S
C317 H324 0.961 . S
C317 H325 0.960 . S
C318 C316 1.381 . S
C318 C319 1.394 . S
C318 H326 0.930 . S
C319 C318 1.394 . S
C319 C320 1.383 1_565 S
C319 H327 0.929 1_565 S
C320 C319 1.383 1_545 S
C320 C321 1.377 1_545 S
C321 H305 0.930 . S
C321 C320 1.377 1_565 S
C321 C322 1.379 . S
C322 H306 0.931 . S
C322 C316 1.383 . S
C322 C321 1.379 . S
H323 C317 0.959 . S
H324 C317 0.961 . S
H325 C317 0.960 . S
H326 C318 0.930 . S
H327 C319 0.929 1_545 S
H328 C336 0.929 . S
H329 C338 0.930 . S
H330 C340 0.930 . S
H331 C343 0.929 . S
H332 C346 0.930 . S
H333 C348 0.960 . S
H334 C348 0.960 . S
H335 C348 0.960 . S
C336 H328 0.929 . S
C336 C337 1.377 . S
C336 C338 1.384 . S
C337 C336 1.377 . S
C337 C343 1.390 . S
C338 H329 0.930 . S
C338 C336 1.384 . S
C338 C339 1.372 . S
C339 C338 1.372 . S
C339 C340 1.400 . S
C339 C344 1.490 . S
C340 H330 0.930 . S
C340 C339 1.400 . S
C340 C343 1.386 . S
H341 C357 0.930 . S
H342 C358 0.931 . S
C343 H331 0.929 . S
C343 C337 1.390 . S
C343 C340 1.386 . S
C344 C339 1.490 . S
C344 C346 1.395 . S
C344 C347 1.403 . S
H345 C351 0.930 . S
C346 H332 0.930 . S
C346 C344 1.395 . S
C346 C349 1.403 . S
C347 C344 1.403 . S
C347 C348 1.524 . S
C347 C351 1.400 . S
C348 H333 0.960 . S
C348 H334 0.960 . S
C348 H335 0.960 . S
C348 C347 1.524 . S
C349 C346 1.403 . S
C349 C350 1.392 . S
C349 C353 1.495 . S
C350 C349 1.392 . S
C350 C351 1.385 . S
C350 C352 1.478 . S
C351 H345 0.930 . S
C351 C347 1.400 . S
C351 C350 1.385 . S
C352 C350 1.478 . S
C352 C354 1.381 . S
C352 C358 1.383 . S
C353 C349 1.495 . S
C353 H359 0.959 . S
C353 H360 0.961 . S
C353 H361 0.960 . S
C354 C352 1.381 . S
C354 C355 1.394 . S
C354 H362 0.930 . S
C355 C354 1.394 . S
C355 C356 1.383 . S
C355 H363 0.929 . S
C356 C355 1.383 . S
C356 C357 1.377 . S
C357 H341 0.930 . S
C357 C356 1.377 . S
C357 C358 1.379 . S
C358 H342 0.931 . S
C358 C352 1.383 . S
C358 C357 1.379 . S
H359 C353 0.959 . S
H360 C353 0.961 . S
H361 C353 0.960 . S
H362 C354 0.930 . S
H363 C355 0.929 . S
H364 C372 0.929 . S
H365 C374 0.930 . S
H366 C376 0.930 . S
H367 C379 0.929 . S
H368 C382 0.930 . S
H369 C384 0.960 . S
H370 C384 0.960 . S
H371 C384 0.960 . S
C372 H364 0.929 . S
C372 C373 1.377 . S
C372 C374 1.384 . S
C373 C372 1.377 . S
C373 C379 1.390 . S
C374 H365 0.930 . S
C374 C372 1.384 . S
C374 C375 1.372 . S
C375 C374 1.372 . S
C375 C376 1.400 . S
C375 C380 1.490 . S
C376 H366 0.930 . S
C376 C375 1.400 . S
C376 C379 1.386 . S
H377 C393 0.930 . S
H378 C394 0.931 . S
C379 H367 0.929 . S
C379 C373 1.390 . S
C379 C376 1.386 . S
C380 C375 1.490 . S
C380 C382 1.395 . S
C380 C383 1.403 . S
H381 C387 0.930 . S
C382 H368 0.930 . S
C382 C380 1.395 . S
C382 C385 1.403 . S
C383 C380 1.403 . S
C383 C384 1.524 . S
C383 C387 1.400 . S
C384 H369 0.960 . S
C384 H370 0.960 . S
C384 H371 0.960 . S
C384 C383 1.524 . S
C385 C382 1.403 . S
C385 C386 1.392 . S
C385 C389 1.495 . S
C386 C385 1.392 . S
C386 C387 1.385 . S
C386 C388 1.478 . S
C387 H381 0.930 . S
C387 C383 1.400 . S
C387 C386 1.385 . S
C388 C386 1.478 . S
C388 C390 1.381 . S
C388 C394 1.383 . S
C389 C385 1.495 . S
C389 H395 0.959 . S
C389 H396 0.961 . S
C389 H397 0.960 . S
C390 C388 1.381 . S
C390 C391 1.394 1_545 S
C390 H398 0.930 . S
C391 C390 1.394 1_565 S
C391 C392 1.383 . S
C391 H399 0.929 . S
C392 C391 1.383 . S
C392 C393 1.377 1_565 S
C393 H377 0.930 . S
C393 C392 1.377 1_545 S
C393 C394 1.379 . S
C394 H378 0.931 . S
C394 C388 1.383 . S
C394 C393 1.379 . S
H395 C389 0.959 . S
H396 C389 0.961 . S
H397 C389 0.960 . S
H398 C390 0.930 . S
H399 C391 0.929 . S
H400 C408 0.929 . S
H401 C410 0.930 . S
H402 C412 0.930 . S
H403 C415 0.929 . S
H404 C418 0.930 . S
H405 C420 0.960 . S
H406 C420 0.960 . S
H407 C420 0.960 . S
C408 H400 0.929 . S
C408 C409 1.377 . S
C408 C410 1.384 . S
C409 C408 1.377 . S
C409 C415 1.390 . S
C410 H401 0.930 . S
C410 C408 1.384 . S
C410 C411 1.372 . S
C411 C410 1.372 . S
C411 C412 1.400 . S
C411 C416 1.490 . S
C412 H402 0.930 . S
C412 C411 1.400 . S
C412 C415 1.386 . S
H413 C429 0.930 1_455 S
H414 C430 0.931 . S
C415 H403 0.929 . S
C415 C409 1.390 . S
C415 C412 1.386 . S
C416 C411 1.490 . S
C416 C418 1.395 . S
C416 C419 1.403 . S
H417 C423 0.930 . S
C418 H404 0.930 . S
C418 C416 1.395 . S
C418 C421 1.403 . S
C419 C416 1.403 . S
C419 C420 1.524 . S
C419 C423 1.400 . S
C420 H405 0.960 . S
C420 H406 0.960 . S
C420 H407 0.960 . S
C420 C419 1.524 . S
C421 C418 1.403 . S
C421 C422 1.392 . S
C421 C425 1.495 . S
C422 C421 1.392 . S
C422 C423 1.385 . S
C422 C424 1.478 . S
C423 H417 0.930 . S
C423 C419 1.400 . S
C423 C422 1.385 . S
C424 C422 1.478 . S
C424 C426 1.381 . S
C424 C430 1.383 . S
C425 C421 1.495 . S
C425 H431 0.959 . S
C425 H432 0.961 . S
C425 H433 0.960 . S
C426 C424 1.381 . S
C426 C427 1.394 . S
C426 H434 0.930 . S
C427 C426 1.394 . S
C427 C428 1.383 1_655 S
C427 H435 0.929 . S
C428 C427 1.383 1_455 S
C428 C429 1.377 1_455 S
C429 H413 0.930 1_655 S
C429 C428 1.377 1_655 S
C429 C430 1.379 . S
C430 H414 0.931 . S
C430 C424 1.383 . S
C430 C429 1.379 . S
H431 C425 0.959 . S
H432 C425 0.961 . S
H433 C425 0.960 . S
H434 C426 0.930 . S
H435 C427 0.929 . S
H436 C444 0.929 . S
H437 C446 0.930 . S
H438 C448 0.930 . S
H439 C451 0.929 . S
H440 C454 0.930 . S
H441 C456 0.960 . S
H442 C456 0.960 . S
H443 C456 0.960 . S
C444 H436 0.929 . S
C444 C445 1.377 . S
C444 C446 1.384 . S
C445 C444 1.377 . S
C445 C451 1.390 . S
C446 H437 0.930 . S
C446 C444 1.384 . S
C446 C447 1.372 . S
C447 C446 1.372 . S
C447 C448 1.400 . S
C447 C452 1.490 . S
C448 H438 0.930 . S
C448 C447 1.400 . S
C448 C451 1.386 . S
H449 C465 0.930 . S
H450 C466 0.931 . S
C451 H439 0.929 . S
C451 C445 1.390 . S
C451 C448 1.386 . S
C452 C447 1.490 . S
C452 C454 1.395 . S
C452 C455 1.403 . S
H453 C459 0.930 . S
C454 H440 0.930 . S
C454 C452 1.395 . S
C454 C457 1.403 . S
C455 C452 1.403 . S
C455 C456 1.524 . S
C455 C459 1.400 . S
C456 H441 0.960 . S
C456 H442 0.960 . S
C456 H443 0.960 . S
C456 C455 1.524 . S
C457 C454 1.403 . S
C457 C458 1.392 . S
C457 C461 1.495 . S
C458 C457 1.392 . S
C458 C459 1.385 . S
C458 C460 1.478 . S
C459 H453 0.930 . S
C459 C455 1.400 . S
C459 C458 1.385 . S
C460 C458 1.478 . S
C460 C462 1.381 . S
C460 C466 1.383 . S
C461 C457 1.495 . S
C461 H467 0.959 . S
C461 H468 0.961 . S
C461 H469 0.960 . S
C462 C460 1.381 . S
C462 C463 1.394 . S
C462 H470 0.930 . S
C463 C462 1.394 . S
C463 C464 1.383 . S
C463 H471 0.929 . S
C464 C463 1.383 . S
C464 C465 1.377 . S
C465 H449 0.930 . S
C465 C464 1.377 . S
C465 C466 1.379 . S
C466 H450 0.931 . S
C466 C460 1.383 . S
C466 C465 1.379 . S
H467 C461 0.959 . S
H468 C461 0.961 . S
H469 C461 0.960 . S
H470 C462 0.930 . S
H471 C463 0.929 . S
H472 C480 0.929 . S
H473 C482 0.930 . S
H474 C484 0.930 . S
H475 C487 0.929 . S
H476 C490 0.930 . S
H477 C492 0.960 . S
H478 C492 0.960 . S
H479 C492 0.960 . S
C480 H472 0.929 . S
C480 C481 1.377 . S
C480 C482 1.384 . S
C481 C480 1.377 . S
C481 C487 1.390 . S
C482 H473 0.930 . S
C482 C480 1.384 . S
C482 C483 1.372 . S
C483 C482 1.372 . S
C483 C484 1.400 . S
C483 C488 1.490 . S
C484 H474 0.930 . S
C484 C483 1.400 . S
C484 C487 1.386 . S
H485 C501 0.930 . S
H486 C502 0.931 . S
C487 H475 0.929 . S
C487 C481 1.390 . S
C487 C484 1.386 . S
C488 C483 1.490 . S
C488 C490 1.395 . S
C488 C491 1.403 . S
H489 C495 0.930 . S
C490 H476 0.930 . S
C490 C488 1.395 . S
C490 C493 1.403 . S
C491 C488 1.403 . S
C491 C492 1.524 . S
C491 C495 1.400 . S
C492 H477 0.960 . S
C492 H478 0.960 . S
C492 H479 0.960 . S
C492 C491 1.524 . S
C493 C490 1.403 . S
C493 C494 1.392 . S
C493 C497 1.495 . S
C494 C493 1.392 . S
C494 C495 1.385 . S
C494 C496 1.478 . S
C495 H489 0.930 . S
C495 C491 1.400 . S
C495 C494 1.385 . S
C496 C494 1.478 . S
C496 C498 1.381 . S
C496 C502 1.383 . S
C497 C493 1.495 . S
C497 H503 0.959 . S
C497 H504 0.961 . S
C497 H505 0.960 . S
C498 C496 1.381 . S
C498 C499 1.394 . S
C498 H506 0.930 . S
C499 C498 1.394 . S
C499 C500 1.373 1_455 S
C499 H507 0.929 1_455 S
C500 C499 1.373 1_655 S
C500 C501 1.361 1_655 S
C501 H485 0.930 . S
C501 C500 1.361 1_455 S
C501 C502 1.379 . S
C502 H486 0.931 . S
C502 C496 1.383 . S
C502 C501 1.379 . S
H503 C497 0.959 . S
H504 C497 0.961 . S
H505 C497 0.960 . S
H506 C498 0.930 . S
H507 C499 0.929 1_655 S
H508 C516 0.929 . S
H509 C518 0.930 . S
H510 C520 0.930 . S
H511 C523 0.929 . S
H512 C526 0.930 . S
H513 C528 0.960 . S
H514 C528 0.960 . S
H515 C528 0.960 . S
C516 H508 0.929 . S
C516 C517 1.377 . S
C516 C518 1.384 . S
C517 C516 1.377 . S
C517 C523 1.390 . S
C518 H509 0.930 . S
C518 C516 1.384 . S
C518 C519 1.372 . S
C519 C518 1.372 . S
C519 C520 1.400 . S
C519 C524 1.490 . S
C520 H510 0.930 . S
C520 C519 1.400 . S
C520 C523 1.386 . S
H521 C537 0.930 . S
H522 C538 0.931 . S
C523 H511 0.929 . S
C523 C517 1.390 . S
C523 C520 1.386 . S
C524 C519 1.490 . S
C524 C526 1.395 . S
C524 C527 1.403 . S
H525 C531 0.930 . S
C526 H512 0.930 . S
C526 C524 1.395 . S
C526 C529 1.403 . S
C527 C524 1.403 . S
C527 C528 1.524 . S
C527 C531 1.400 . S
C528 H513 0.960 . S
C528 H514 0.960 . S
C528 H515 0.960 . S
C528 C527 1.524 . S
C529 C526 1.403 . S
C529 C530 1.392 . S
C529 C533 1.495 . S
C530 C529 1.392 . S
C530 C531 1.385 . S
C530 C532 1.478 . S
C531 H525 0.930 . S
C531 C527 1.400 . S
C531 C530 1.385 . S
C532 C530 1.478 . S
C532 C534 1.381 . S
C532 C538 1.383 . S
C533 C529 1.495 . S
C533 H539 0.959 . S
C533 H540 0.961 . S
C533 H541 0.960 . S
C534 C532 1.381 . S
C534 C535 1.394 . S
C534 H542 0.930 . S
C535 C534 1.394 . S
C535 C536 1.383 . S
C535 H543 0.929 . S
C536 C535 1.383 . S
C536 C537 1.377 . S
C537 H521 0.930 . S
C537 C536 1.377 . S
C537 C538 1.379 . S
C538 H522 0.931 . S
C538 C532 1.383 . S
C538 C537 1.379 . S
H539 C533 0.959 . S
H540 C533 0.961 . S
H541 C533 0.960 . S
H542 C534 0.930 . S
H543 C535 0.929 . S
H544 C552 0.929 . S
H545 C554 0.930 . S
H546 C556 0.930 . S
H547 C559 0.929 . S
H548 C562 0.930 . S
H549 C564 0.960 . S
H550 C564 0.960 . S
H551 C564 0.960 . S
C552 H544 0.929 . S
C552 C553 1.377 . S
C552 C554 1.384 . S
C553 C552 1.377 . S
C553 C559 1.390 . S
C554 H545 0.930 . S
C554 C552 1.384 . S
C554 C555 1.372 . S
C555 C554 1.372 . S
C555 C556 1.400 . S
C555 C560 1.490 . S
C556 H546 0.930 . S
C556 C555 1.400 . S
C556 C559 1.386 . S
H557 C573 0.930 . S
H558 C574 0.931 . S
C559 H547 0.929 . S
C559 C553 1.390 . S
C559 C556 1.386 . S
C560 C555 1.490 . S
C560 C562 1.395 . S
C560 C563 1.403 1_655 S
H561 C567 0.930 . S
C562 H548 0.930 . S
C562 C560 1.395 . S
C562 C565 1.403 . S
C563 C560 1.403 1_455 S
C563 C564 1.524 . S
C563 C567 1.400 . S
C564 H549 0.960 . S
C564 H550 0.960 . S
C564 H551 0.960 . S
C564 C563 1.524 . S
C565 C562 1.403 . S
C565 C566 1.392 1_655 S
C565 C569 1.495 . S
C566 C565 1.392 1_455 S
C566 C567 1.385 . S
C566 C568 1.478 . S
C567 H561 0.930 . S
C567 C563 1.400 . S
C567 C566 1.385 . S
C568 C566 1.478 . S
C568 C570 1.381 . S
C568 C574 1.383 . S
C569 C565 1.495 . S
C569 H575 0.959 . S
C569 H576 0.961 . S
C569 H577 0.960 . S
C570 C568 1.381 . S
C570 C571 1.394 . S
C570 H578 0.930 . S
C571 C570 1.394 . S
C571 C572 1.383 . S
C571 H579 0.929 . S
C572 C571 1.383 . S
C572 C573 1.377 . S
C573 H557 0.930 . S
C573 C572 1.377 . S
C573 C574 1.379 . S
C574 H558 0.931 . S
C574 C568 1.383 . S
C574 C573 1.379 . S
H575 C569 0.959 . S
H576 C569 0.961 . S
H577 C569 0.960 . S
H578 C570 0.930 . S
H579 C571 0.929 . S
H580 C588 0.929 . S
H581 C590 0.930 . S
H582 C592 0.930 . S
H583 C595 0.929 . S
H584 C598 0.930 . S
H585 C600 0.960 . S
H586 C600 0.960 . S
H587 C600 0.960 . S
C588 H580 0.929 . S
C588 C589 1.377 . S
C588 C590 1.384 . S
C589 C588 1.377 . S
C589 C595 1.390 . S
C590 H581 0.930 . S
C590 C588 1.384 . S
C590 C591 1.372 . S
C591 C590 1.372 . S
C591 C592 1.400 . S
C591 C596 1.490 . S
C592 H582 0.930 . S
C592 C591 1.400 . S
C592 C595 1.386 . S
H593 C609 0.930 . S
H594 C610 0.931 . S
C595 H583 0.929 . S
C595 C589 1.390 . S
C595 C592 1.386 . S
C596 C591 1.490 . S
C596 C598 1.395 . S
C596 C599 1.403 . S
H597 C603 0.930 . S
C598 H584 0.930 . S
C598 C596 1.395 . S
C598 C601 1.403 1_655 S
C599 C596 1.403 . S
C599 C600 1.524 . S
C599 C603 1.400 1_655 S
C600 H585 0.960 . S
C600 H586 0.960 . S
C600 H587 0.960 . S
C600 C599 1.524 . S
C601 C598 1.403 1_455 S
C601 C602 1.392 . S
C601 C605 1.495 . S
C602 C601 1.392 . S
C602 C603 1.385 . S
C602 C604 1.478 . S
C603 H597 0.930 . S
C603 C599 1.400 1_455 S
C603 C602 1.385 . S
C604 C602 1.478 . S
C604 C606 1.381 . S
C604 C610 1.383 . S
C605 C601 1.495 . S
C605 H611 0.959 . S
C605 H612 0.961 . S
C605 H613 0.960 . S
C606 C604 1.381 . S
C606 C607 1.394 . S
C606 H614 0.930 . S
C607 C606 1.394 . S
C607 C608 1.383 . S
C607 H615 0.929 . S
C608 C607 1.383 . S
C608 C609 1.377 . S
C609 H593 0.930 . S
C609 C608 1.377 . S
C609 C610 1.379 . S
C610 H594 0.931 . S
C610 C604 1.383 . S
C610 C609 1.379 . S
H611 C605 0.959 . S
H612 C605 0.961 . S
H613 C605 0.960 . S
H614 C606 0.930 . S
H615 C607 0.929 . S
H616 C624 0.929 . S
H617 C626 0.930 . S
H618 C628 0.930 . S
H619 C631 0.929 . S
H620 C634 0.930 . S
H621 C636 0.960 1_565 S
H622 C636 0.960 . S
H623 C636 0.960 . S
C624 H616 0.929 . S
C624 C625 1.377 . S
C624 C626 1.384 . S
C625 C624 1.377 . S
C625 C631 1.390 . S
C626 H617 0.930 . S
C626 C624 1.384 . S
C626 C627 1.372 . S
C627 C626 1.372 . S
C627 C628 1.400 . S
C627 C632 1.490 . S
C628 H618 0.930 . S
C628 C627 1.400 . S
C628 C631 1.386 . S
H629 C645 0.930 . S
H630 C646 0.931 . S
C631 H619 0.929 . S
C631 C625 1.390 . S
C631 C628 1.386 . S
C632 C627 1.490 . S
C632 C634 1.395 . S
C632 C635 1.403 . S
H633 C639 0.930 . S
C634 H620 0.930 . S
C634 C632 1.395 . S
C634 C637 1.403 1_545 S
C635 C632 1.403 . S
C635 C636 1.524 . S
C635 C639 1.400 1_545 S
C636 H621 0.960 1_545 S
C636 H622 0.960 . S
C636 H623 0.960 . S
C636 C635 1.524 . S
C637 C634 1.403 1_565 S
C637 C638 1.392 . S
C637 C641 1.495 . S
C638 C637 1.392 . S
C638 C639 1.385 . S
C638 C640 1.478 . S
C639 H633 0.930 . S
C639 C635 1.400 1_565 S
C639 C638 1.385 . S
C640 C638 1.478 . S
C640 C642 1.381 . S
C640 C646 1.383 . S
C641 C637 1.495 . S
C641 H647 0.959 1_565 S
C641 H648 0.961 . S
C641 H649 0.960 . S
C642 C640 1.381 . S
C642 C643 1.394 . S
C642 H650 0.930 . S
C643 C642 1.394 . S
C643 C644 1.383 . S
C643 H651 0.929 . S
C644 C643 1.383 . S
C644 C645 1.377 . S
C645 H629 0.930 . S
C645 C644 1.377 . S
C645 C646 1.379 . S
C646 H630 0.931 . S
C646 C640 1.383 . S
C646 C645 1.379 . S
H647 C641 0.959 1_545 S
H648 C641 0.961 . S
H649 C641 0.960 . S
H650 C642 0.930 . S
H651 C643 0.929 . S
H652 C660 0.929 . S
H653 C662 0.930 . S
H654 C664 0.930 . S
H655 C667 0.929 . S
H656 C670 0.930 . S
H657 C672 0.960 . S
H658 C672 0.960 . S
H659 C672 0.960 . S
C660 H652 0.929 . S
C660 C661 1.377 . S
C660 C662 1.384 . S
C661 C660 1.377 . S
C661 C667 1.390 . S
C662 H653 0.930 . S
C662 C660 1.384 . S
C662 C663 1.372 . S
C663 C662 1.372 . S
C663 C664 1.400 . S
C663 C668 1.490 . S
C664 H654 0.930 . S
C664 C663 1.400 . S
C664 C667 1.386 . S
H665 C681 0.930 . S
H666 C682 0.931 . S
C667 H655 0.929 . S
C667 C661 1.390 . S
C667 C664 1.386 . S
C668 C663 1.490 . S
C668 C670 1.395 . S
C668 C671 1.403 1_545 S
H669 C675 0.930 . S
C670 H656 0.930 . S
C670 C668 1.395 . S
C670 C673 1.403 . S
C671 C668 1.403 1_565 S
C671 C672 1.524 . S
C671 C675 1.400 . S
C672 H657 0.960 . S
C672 H658 0.960 . S
C672 H659 0.960 . S
C672 C671 1.524 . S
C673 C670 1.403 . S
C673 C674 1.392 1_545 S
C673 C677 1.495 . S
C674 C673 1.392 1_565 S
C674 C675 1.385 . S
C674 C676 1.478 . S
C675 H669 0.930 . S
C675 C671 1.400 . S
C675 C674 1.385 . S
C676 C674 1.478 . S
C676 C678 1.381 . S
C676 C682 1.383 . S
C677 C673 1.495 . S
C677 H683 0.959 . S
C677 H684 0.961 . S
C677 H685 0.960 . S
C678 C676 1.381 . S
C678 C679 1.394 . S
C678 H686 0.930 . S
C679 C678 1.394 . S
C679 C680 1.383 . S
C679 H687 0.929 . S
C680 C679 1.383 . S
C680 C681 1.377 . S
C681 H665 0.930 . S
C681 C680 1.377 . S
C681 C682 1.379 . S
C682 H666 0.931 . S
C682 C676 1.383 . S
C682 C681 1.379 . S
H683 C677 0.959 . S
H684 C677 0.961 . S
H685 C677 0.960 . S
H686 C678 0.930 . S
H687 C679 0.929 . S
C121 C13 1.267 . S
C140 C83 1.297 . S
C157 C27 1.263 . S
C176 C97 1.262 . S
C193 C41 1.271 . S
C212 C111 1.282 . S
C229 C69 1.261 . S
C248 C55 1.291 . S
C265 C11 1.416 . S
C284 C63 1.369 . S
C301 C25 1.418 . S
C320 C77 1.398 . S
C337 C91 1.388 . S
C356 C39 1.406 . S
C373 C53 1.420 . S
C392 C105 1.412 . S
C409 C67 1.417 . S
C428 C7 1.372 . S
C445 C21 1.395 . S
C464 C81 1.418 . S
C481 C95 1.418 . S
C500 C35 1.415 . S
C517 C49 1.388 . S
C536 C109 1.405 . S
C553 C36 0.610 . S
C572 C8 0.615 . S
C589 C50 0.623 . S
C608 C22 0.566 . S
C625 C64 0.606 . S
C644 C92 0.665 . S
C661 C78 0.620 . S
C680 C106 0.574 . S
