# Generated by pormake.
# Topology una, (4)-cn, num edge types: 1
# Building blocks:
#     Node 0, Type 0, BuildingBlock: KUFVIS_clean_sbu_0, # of connection points: 4
#     Node 1, Type 0, BuildingBlock: KUFVIS_clean_sbu_0, # of connection points: 4
#     Node 2, Type 0, BuildingBlock: KUFVIS_clean_sbu_0, # of connection points: 4
#     Node 3, Type 0, BuildingBlock: KUFVIS_clean_sbu_0, # of connection points: 4
#     Node 4, Type 0, BuildingBlock: KUFVIS_clean_sbu_0, # of connection points: 4
#     Node 5, Type 0, BuildingBlock: KUFVIS_clean_sbu_0, # of connection points: 4
#     Node 6, Type 0, BuildingBlock: KUFVIS_clean_sbu_0, # of connection points: 4
#     Node 7, Type 0, BuildingBlock: KUFVIS_clean_sbu_0, # of connection points: 4
#     Node 8, Type 0, BuildingBlock: KUFVIS_clean_sbu_0, # of connection points: 4
#     Node 9, Type 0, BuildingBlock: KUFVIS_clean_sbu_0, # of connection points: 4
#     Node 10, Type 0, BuildingBlock: KUFVIS_clean_sbu_0, # of connection points: 4
#     Node 11, Type 0, BuildingBlock: KUFVIS_clean_sbu_0, # of connection points: 4
#     Edge 12, Type (0, 0), BuildingBlock: XIVTED_clean_linker_0, # of connection points: 2
#     Edge 13, Type (0, 0), BuildingBlock: XIVTED_clean_linker_0, # of connection points: 2
#     Edge 14, Type (0, 0), BuildingBlock: XIVTED_clean_linker_0, # of connection points: 2
#     Edge 15, Type (0, 0), BuildingBlock: XIVTED_clean_linker_0, # of connection points: 2
#     Edge 16, Type (0, 0), BuildingBlock: XIVTED_clean_linker_0, # of connection points: 2
#     Edge 17, Type (0, 0), BuildingBlock: XIVTED_clean_linker_0, # of connection points: 2
#     Edge 18, Type (0, 0), BuildingBlock: XIVTED_clean_linker_0, # of connection points: 2
#     Edge 19, Type (0, 0), BuildingBlock: XIVTED_clean_linker_0, # of connection points: 2
#     Edge 20, Type (0, 0), BuildingBlock: XIVTED_clean_linker_0, # of connection points: 2
#     Edge 21, Type (0, 0), BuildingBlock: XIVTED_clean_linker_0, # of connection points: 2
#     Edge 22, Type (0, 0), BuildingBlock: XIVTED_clean_linker_0, # of connection points: 2
#     Edge 23, Type (0, 0), BuildingBlock: XIVTED_clean_linker_0, # of connection points: 2
#     Edge 24, Type (0, 0), BuildingBlock: XIVTED_clean_linker_0, # of connection points: 2
#     Edge 25, Type (0, 0), BuildingBlock: XIVTED_clean_linker_0, # of connection points: 2
#     Edge 26, Type (0, 0), BuildingBlock: XIVTED_clean_linker_0, # of connection points: 2
#     Edge 27, Type (0, 0), BuildingBlock: XIVTED_clean_linker_0, # of connection points: 2
#     Edge 28, Type (0, 0), BuildingBlock: XIVTED_clean_linker_0, # of connection points: 2
#     Edge 29, Type (0, 0), BuildingBlock: XIVTED_clean_linker_0, # of connection points: 2
#     Edge 30, Type (0, 0), BuildingBlock: XIVTED_clean_linker_0, # of connection points: 2
#     Edge 31, Type (0, 0), BuildingBlock: XIVTED_clean_linker_0, # of connection points: 2
#     Edge 32, Type (0, 0), BuildingBlock: XIVTED_clean_linker_0, # of connection points: 2
#     Edge 33, Type (0, 0), BuildingBlock: XIVTED_clean_linker_0, # of connection points: 2
#     Edge 34, Type (0, 0), BuildingBlock: XIVTED_clean_linker_0, # of connection points: 2
#     Edge 35, Type (0, 0), BuildingBlock: XIVTED_clean_linker_0, # of connection points: 2
# Relax obj value: 0.032
# Max RMSD: 0.075
# Mean RMSD: 0.075
data_MOF--net-una--node1-KUFVIS_clean_sbu_0--edge1-XIVTED_clean_linker_0
_symmetry_space_group_name_H-M    P1
_symmetry_Int_Tables_number       1
_symmetry_cell_setting            triclinic
loop_
_symmetry_equiv_pos_as_xyz
'x, y, z'
_cell_length_a     58.090337
_cell_length_b     58.093169
_cell_length_c     22.23973
_cell_angle_alpha  89.948945
_cell_angle_beta   90.01408
_cell_angle_gamma 120.01825
loop_
_atom_site_label
_atom_site_type_symbol
_atom_site_fract_x
_atom_site_fract_y
_atom_site_fract_z
_atom_type_partial_charge
Mn0 Mn 0.1423 0.44052 0.03059 0.0
Mn1 Mn 0.14509 0.47234 0.90121 0.0
C2 C 0.15899 0.43236 0.9448 0.0
C3 C 0.16402 0.43925 0.11868 0.0
C4 C 0.09501 0.42366 0.94398 0.0
O5 O 0.13723 0.47081 0.0604 0.0
O6 O 0.13732 0.48871 0.9707 0.0
C7 C 0.19383 0.5229 0.93157 0.0
N8 N 0.18016 0.50219 0.89313 0.0
C9 C 0.21549 0.52145 0.8203 0.0
C10 C 0.2299 0.54305 0.85897 0.0
C11 C 0.21907 0.5437 0.915 0.0
C12 C 0.19056 0.50117 0.83954 0.0
H13 H 0.18552 0.52358 0.9745 0.0
C14 C 0.1351 0.48778 0.02798 0.0
O15 O 0.13822 0.42531 0.11435 0.0
O16 O 0.17651 0.45473 0.0741 0.0
N17 N 0.15275 0.45952 0.829 0.0
C18 C 0.13722 0.4364 0.79886 0.0
C19 C 0.14557 0.43224 0.74269 0.0
C20 C 0.16955 0.45208 0.71758 0.0
C21 C 0.1851 0.47582 0.74916 0.0
C22 C 0.17586 0.47874 0.80516 0.0
H23 H 0.1188 0.42112 0.81795 0.0
O24 O 0.15027 0.41521 0.98823 0.0
O25 O 0.1581 0.45408 0.9529 0.0
O26 O 0.10394 0.42121 0.9951 0.0
O27 O 0.10899 0.44174 0.9057 0.0
C28 C 0.20957 0.49655 0.72766 0.0
C29 C 0.22493 0.51918 0.76354 0.0
H30 H 0.24933 0.55917 0.84624 0.0
H31 H 0.2301 0.56026 0.9452 0.0
H32 H 0.13353 0.41381 0.71875 0.0
H33 H 0.17596 0.44878 0.6743 0.0
H34 H 0.21705 0.49503 0.68411 0.0
H35 H 0.24404 0.53465 0.74716 0.0
Mn36 Mn 0.69884 0.14035 0.20893 0.0
Mn37 Mn 0.66949 0.14322 0.08016 0.0
C38 C 0.72342 0.15684 0.12208 0.0
C39 C 0.72187 0.16249 0.2966 0.0
C40 C 0.66469 0.09221 0.129 0.0
O41 O 0.66332 0.13567 0.23818 0.0
O42 O 0.64725 0.14062 0.14978 0.0
C43 C 0.67355 0.19564 0.09763 0.0
N44 N 0.67847 0.17904 0.06383 0.0
C45 C 0.69743 0.21136 0.98438 0.0
C46 C 0.69254 0.22882 0.01824 0.0
C47 C 0.68066 0.22096 0.07524 0.0
C48 C 0.69014 0.18649 0.00925 0.0
H49 H 0.66425 0.18956 0.14126 0.0
C50 C 0.64556 0.137 0.20675 0.0
O51 O 0.70999 0.13669 0.29289 0.0
O52 O 0.71901 0.17483 0.25148 0.0
N53 N 0.68902 0.14589 0.00874 0.0
C54 C 0.69422 0.12753 0.98398 0.0
C55 C 0.7071 0.13278 0.92804 0.0
C56 C 0.71409 0.15663 0.89775 0.0
C57 C 0.70827 0.17509 0.92388 0.0
C58 C 0.69562 0.16887 0.97993 0.0
H59 H 0.68861 0.10904 0.0068 0.0
O60 O 0.73224 0.14841 0.16538 0.0
O61 O 0.7007 0.15538 0.13108 0.0
O62 O 0.67968 0.10184 0.17532 0.0
O63 O 0.65957 0.10602 0.09248 0.0
C64 C 0.71476 0.19954 0.89683 0.0
C65 C 0.70952 0.21775 0.92723 0.0
H66 H 0.69797 0.24836 0.0011 0.0
H67 H 0.67689 0.23435 0.10172 0.0
H68 H 0.71152 0.11843 0.90817 0.0
H69 H 0.72401 0.16062 0.8546 0.0
H70 H 0.72436 0.20481 0.85324 0.0
H71 H 0.71524 0.23678 0.90663 0.0
Mn72 Mn 0.56206 0.70005 0.36843 0.0
Mn73 Mn 0.53085 0.67222 0.23782 0.0
C74 C 0.56956 0.72587 0.28418 0.0
C75 C 0.56252 0.72167 0.45812 0.0
C76 C 0.57965 0.67086 0.28036 0.0
O77 O 0.53204 0.66403 0.39619 0.0
O78 O 0.51379 0.64731 0.30597 0.0
C79 C 0.47984 0.66977 0.26616 0.0
N80 N 0.50109 0.6775 0.22895 0.0
C81 C 0.48288 0.69487 0.15664 0.0
C82 C 0.46073 0.68699 0.19403 0.0
C83 C 0.45929 0.6745 0.24917 0.0
C84 C 0.50283 0.6898 0.17616 0.0
H85 H 0.47857 0.66004 0.30842 0.0
C86 C 0.51478 0.64542 0.36315 0.0
O87 O 0.57696 0.71041 0.45262 0.0
O88 O 0.54707 0.71889 0.41366 0.0
N89 N 0.54461 0.69383 0.16734 0.0
C90 C 0.56832 0.70231 0.13906 0.0
C91 C 0.57338 0.71602 0.08423 0.0
C92 C 0.55388 0.72055 0.05863 0.0
C93 C 0.5296 0.71156 0.08846 0.0
C94 C 0.52576 0.69818 0.14317 0.0
H95 H 0.58338 0.69896 0.15865 0.0
O96 O 0.58684 0.73417 0.32735 0.0
O97 O 0.54842 0.70277 0.29149 0.0
O98 O 0.58216 0.68215 0.33153 0.0
O99 O 0.56137 0.66659 0.2426 0.0
C100 C 0.50922 0.71576 0.06658 0.0
C101 C 0.48603 0.70775 0.101 0.0
H102 H 0.44482 0.69056 0.18103 0.0
H103 H 0.44231 0.66844 0.27838 0.0
H104 H 0.59225 0.72307 0.06171 0.0
H105 H 0.55788 0.73121 0.01642 0.0
H106 H 0.51147 0.72571 0.02396 0.0
H107 H 0.47085 0.71176 0.08447 0.0
Mn108 Mn 0.86301 0.56232 0.54072 0.0
Mn109 Mn 0.85738 0.53081 0.40907 0.0
C110 C 0.84266 0.56922 0.45978 0.0
C111 C 0.84308 0.56121 0.6335 0.0
C112 C 0.90824 0.58003 0.44846 0.0
O113 O 0.87092 0.53323 0.56533 0.0
O114 O 0.86561 0.51327 0.47559 0.0
C115 C 0.80858 0.48024 0.43895 0.0
N116 N 0.82199 0.50146 0.40158 0.0
C117 C 0.78519 0.48437 0.33251 0.0
C118 C 0.77104 0.46226 0.37007 0.0
C119 C 0.78275 0.46024 0.42363 0.0
C120 C 0.81084 0.5037 0.35018 0.0
H121 H 0.81751 0.47862 0.48014 0.0
C122 C 0.87053 0.51513 0.53206 0.0
O123 O 0.86841 0.57723 0.62515 0.0
O124 O 0.83009 0.54561 0.58956 0.0
N125 N 0.84907 0.54505 0.34006 0.0
C126 C 0.86439 0.5687 0.31156 0.0
C127 C 0.85524 0.5742 0.25798 0.0
C128 C 0.83056 0.55526 0.23399 0.0
C129 C 0.81515 0.53104 0.26403 0.0
C130 C 0.82535 0.52663 0.31714 0.0
H131 H 0.88325 0.58339 0.33002 0.0
O132 O 0.85175 0.58628 0.50329 0.0
O133 O 0.84537 0.54844 0.46517 0.0
O134 O 0.90008 0.58338 0.4997 0.0
O135 O 0.89385 0.56103 0.41255 0.0
C136 C 0.78978 0.51141 0.24424 0.0
C137 C 0.77471 0.4882 0.27872 0.0
H138 H 0.75109 0.44683 0.3585 0.0
H139 H 0.7719 0.4433 0.45301 0.0
H140 H 0.86715 0.59303 0.23534 0.0
H141 H 0.82346 0.55968 0.19298 0.0
H142 H 0.78143 0.5142 0.20319 0.0
H143 H 0.75497 0.47354 0.26375 0.0
Mn144 Mn 0.30085 0.85644 0.69581 0.0
Mn145 Mn 0.32668 0.85213 0.56275 0.0
C146 C 0.27379 0.83872 0.61356 0.0
C147 C 0.28116 0.83538 0.78711 0.0
C148 C 0.33004 0.9031 0.60754 0.0
O149 O 0.33726 0.8625 0.71992 0.0
O150 O 0.35184 0.85811 0.62927 0.0
C151 C 0.32617 0.80173 0.58697 0.0
N152 N 0.31924 0.81643 0.55154 0.0
C153 C 0.29903 0.78121 0.47868 0.0
C154 C 0.3061 0.76576 0.51418 0.0
C155 C 0.31962 0.77602 0.5687 0.0
C156 C 0.30598 0.80664 0.49935 0.0
H157 H 0.33664 0.80958 0.6288 0.0
C158 C 0.35474 0.86196 0.68609 0.0
O159 O 0.29152 0.86097 0.78098 0.0
O160 O 0.2833 0.82271 0.74184 0.0
N161 N 0.30484 0.84606 0.49335 0.0
C162 C 0.29805 0.86284 0.46612 0.0
C163 C 0.28389 0.8553 0.41171 0.0
C164 C 0.27713 0.83073 0.38547 0.0
C165 C 0.28452 0.81387 0.41402 0.0
C166 C 0.29867 0.82248 0.4681 0.0
H167 H 0.30308 0.88168 0.48616 0.0
O168 O 0.26618 0.84731 0.65873 0.0
O169 O 0.29674 0.84007 0.61825 0.0
O170 O 0.31815 0.89427 0.65819 0.0
O171 O 0.33435 0.88897 0.57017 0.0
C172 C 0.27802 0.78867 0.39145 0.0
C173 C 0.28516 0.77231 0.42389 0.0
H174 H 0.30111 0.74593 0.50022 0.0
H175 H 0.32504 0.76417 0.59648 0.0
H176 H 0.27815 0.86836 0.39012 0.0
H177 H 0.26604 0.82489 0.34374 0.0
H178 H 0.26722 0.78152 0.34956 0.0
H179 H 0.27974 0.75284 0.40644 0.0
Mn180 Mn 0.44138 0.29986 0.86647 0.0
Mn181 Mn 0.47378 0.32836 0.737 0.0
C182 C 0.434 0.27438 0.78203 0.0
C183 C 0.44106 0.27859 0.95683 0.0
C184 C 0.42437 0.32919 0.77705 0.0
O185 O 0.47074 0.33598 0.89525 0.0
O186 O 0.49001 0.35279 0.80602 0.0
C187 C 0.52416 0.3302 0.7692 0.0
N188 N 0.50363 0.32311 0.73014 0.0
C189 C 0.52313 0.30683 0.65857 0.0
C190 C 0.54456 0.31408 0.69785 0.0
C191 C 0.54499 0.32568 0.75356 0.0
C192 C 0.50281 0.31157 0.67687 0.0
H193 H 0.52465 0.33926 0.8119 0.0
C194 C 0.48834 0.35465 0.86294 0.0
O195 O 0.42575 0.28881 0.94998 0.0
O196 O 0.45688 0.28176 0.9129 0.0
N197 N 0.46119 0.30768 0.665 0.0
C198 C 0.43826 0.30015 0.63409 0.0
C199 C 0.43438 0.28766 0.57797 0.0
C200 C 0.45431 0.28346 0.55371 0.0
C201 C 0.47785 0.29159 0.58606 0.0
C202 C 0.48054 0.3038 0.64189 0.0
H203 H 0.4229 0.30331 0.65254 0.0
O204 O 0.41696 0.26585 0.82562 0.0
O205 O 0.45543 0.29732 0.78951 0.0
O206 O 0.42126 0.3175 0.82804 0.0
O207 O 0.44314 0.33386 0.74031 0.0
C208 C 0.49862 0.2877 0.56555 0.0
C209 C 0.52106 0.29497 0.60211 0.0
H210 H 0.56071 0.31071 0.68585 0.0
H211 H 0.56141 0.33125 0.78423 0.0
H212 H 0.41609 0.28131 0.55344 0.0
H213 H 0.4512 0.27374 0.51051 0.0
H214 H 0.49727 0.27861 0.5222 0.0
H215 H 0.53656 0.29124 0.58648 0.0
Mn216 Mn 0.562 0.86126 0.87765 0.0
Mn217 Mn 0.53125 0.86102 0.00697 0.0
C218 C 0.57085 0.84629 0.96588 0.0
C219 C 0.56236 0.83812 0.79141 0.0
C220 C 0.57727 0.91076 0.95375 0.0
O221 O 0.5308 0.86526 0.84814 0.0
O222 O 0.51112 0.86282 0.93718 0.0
C223 C 0.48234 0.80866 0.99347 0.0
N224 N 0.50421 0.82557 0.026 0.0
C225 C 0.4914 0.79412 0.10723 0.0
C226 C 0.4687 0.77638 0.07471 0.0
C227 C 0.46421 0.78364 0.01747 0.0
C228 C 0.50883 0.8187 0.08087 0.0
H229 H 0.47879 0.81423 0.94958 0.0
C230 C 0.51222 0.8649 0.8798 0.0
O231 O 0.57617 0.86396 0.79362 0.0
O232 O 0.54757 0.8262 0.83744 0.0
N233 N 0.54854 0.85911 0.07846 0.0
C234 C 0.57243 0.8776 0.10173 0.0
C235 C 0.58051 0.87289 0.1577 0.0
C236 C 0.5638 0.84943 0.18948 0.0
C237 C 0.5392 0.83082 0.16485 0.0
C238 C 0.53227 0.83653 0.10879 0.0
H239 H 0.58523 0.89575 0.0777 0.0
O240 O 0.58773 0.85399 0.92186 0.0
O241 O 0.54951 0.84764 0.95684 0.0
O242 O 0.58159 0.90022 0.9077 0.0
O243 O 0.55885 0.89796 0.99201 0.0
C244 C 0.52145 0.80667 0.1933 0.0
C245 C 0.49764 0.78825 0.16436 0.0
H246 H 0.45469 0.75705 0.09302 0.0
H247 H 0.44679 0.77001 0.99199 0.0
H248 H 0.59953 0.88735 0.17641 0.0
H249 H 0.57013 0.84584 0.23259 0.0
H250 H 0.52621 0.80177 0.23686 0.0
H251 H 0.48448 0.76945 0.18604 0.0
Mn252 Mn 0.69999 0.55736 0.04793 0.0
Mn253 Mn 0.67092 0.52484 0.17694 0.0
C254 C 0.72524 0.564 0.1325 0.0
C255 C 0.72123 0.55766 0.95763 0.0
C256 C 0.67118 0.57489 0.13742 0.0
O257 O 0.66367 0.5285 0.0187 0.0
O258 O 0.64658 0.50904 0.10762 0.0
C259 C 0.66831 0.47414 0.14448 0.0
N260 N 0.67564 0.49466 0.18366 0.0
C261 C 0.69167 0.47475 0.2549 0.0
C262 C 0.68415 0.45333 0.21549 0.0
C263 C 0.67255 0.4531 0.15989 0.0
C264 C 0.68717 0.49527 0.23684 0.0
H265 H 0.65926 0.47382 0.10183 0.0
C266 C 0.64484 0.51094 0.05072 0.0
O267 O 0.71135 0.57325 0.96476 0.0
O268 O 0.71767 0.54153 0.00121 0.0
N269 N 0.69153 0.53706 0.24914 0.0
C270 C 0.69916 0.55993 0.28038 0.0
C271 C 0.71164 0.56358 0.33646 0.0
C272 C 0.7157 0.5435 0.36038 0.0
C273 C 0.7074 0.52 0.32776 0.0
C274 C 0.69518 0.51753 0.27199 0.0
H275 H 0.69607 0.57539 0.26226 0.0
O276 O 0.7341 0.58117 0.08916 0.0
O277 O 0.7021 0.54287 0.12473 0.0
O278 O 0.68298 0.57797 0.08663 0.0
O279 O 0.66599 0.55584 0.17378 0.0
C280 C 0.71109 0.49907 0.34798 0.0
C281 C 0.70357 0.47663 0.31125 0.0
H282 H 0.68732 0.43703 0.22731 0.0
H283 H 0.66678 0.43669 0.12911 0.0
H284 H 0.71809 0.58182 0.36125 0.0
H285 H 0.72542 0.54643 0.40355 0.0
H286 H 0.72019 0.50025 0.39125 0.0
H287 H 0.70712 0.46098 0.32669 0.0
Mn288 Mn 0.14034 0.69784 0.20508 0.0
Mn289 Mn 0.14575 0.67286 0.33842 0.0
C290 C 0.15928 0.72552 0.28591 0.0
C291 C 0.1606 0.71673 0.11257 0.0
C292 C 0.09464 0.66996 0.29626 0.0
O293 O 0.13351 0.66107 0.18186 0.0
O294 O 0.13847 0.64704 0.2727 0.0
C295 C 0.19531 0.67215 0.31135 0.0
N296 N 0.18136 0.67972 0.3475 0.0
C297 C 0.21744 0.69975 0.41835 0.0
C298 C 0.23215 0.69203 0.38207 0.0
C299 C 0.22108 0.67829 0.32818 0.0
C300 C 0.19194 0.69323 0.39905 0.0
H301 H 0.18683 0.66149 0.27003 0.0
C302 C 0.13401 0.64369 0.21614 0.0
O303 O 0.13511 0.70672 0.11994 0.0
O304 O 0.17358 0.71466 0.15732 0.0
N305 N 0.1531 0.69534 0.40714 0.0
C306 C 0.13699 0.70278 0.4352 0.0
C307 C 0.14538 0.71721 0.48915 0.0
C308 C 0.17008 0.72357 0.5141 0.0
C309 C 0.18624 0.71555 0.48469 0.0
C310 C 0.17681 0.70118 0.43109 0.0
H311 H 0.11806 0.69806 0.41614 0.0
O312 O 0.15032 0.73292 0.24105 0.0
O313 O 0.15756 0.70238 0.28178 0.0
O314 O 0.10293 0.68123 0.24479 0.0
O315 O 0.10907 0.66583 0.33317 0.0
C316 C 0.21151 0.72159 0.50595 0.0
C317 C 0.22715 0.71382 0.47266 0.0
H318 H 0.25201 0.6967 0.39494 0.0
H319 H 0.23235 0.67237 0.2998 0.0
H320 H 0.13285 0.72346 0.51139 0.0
H321 H 0.17656 0.73486 0.55551 0.0
H322 H 0.21926 0.73251 0.54748 0.0
H323 H 0.24667 0.71888 0.48911 0.0
Mn324 Mn 0.43658 0.13716 0.37519 0.0
Mn325 Mn 0.46683 0.14236 0.50853 0.0
C326 C 0.42835 0.15652 0.4561 0.0
C327 C 0.43811 0.15751 0.28267 0.0
C328 C 0.41877 0.09128 0.4658 0.0
O329 O 0.46655 0.13035 0.35202 0.0
O330 O 0.4855 0.13518 0.44296 0.0
C331 C 0.5172 0.19196 0.48194 0.0
N332 N 0.49564 0.17792 0.518 0.0
C333 C 0.51143 0.21402 0.58871 0.0
C334 C 0.53388 0.22881 0.5525 0.0
C335 C 0.53672 0.21777 0.49876 0.0
C336 C 0.49259 0.18845 0.5695 0.0
H337 H 0.51947 0.18353 0.44064 0.0
C338 C 0.48444 0.13086 0.38633 0.0
O339 O 0.42249 0.13205 0.29003 0.0
O340 O 0.45312 0.17044 0.32747 0.0
N341 N 0.45147 0.14972 0.57679 0.0
C342 C 0.42758 0.13385 0.60379 0.0
C343 C 0.42126 0.1423 0.65728 0.0
C344 C 0.43965 0.16686 0.68276 0.0
C345 C 0.46414 0.18283 0.65425 0.0
C346 C 0.46934 0.17335 0.60108 0.0
H347 H 0.41334 0.11504 0.58427 0.0
O348 O 0.41169 0.14744 0.41178 0.0
O349 O 0.44942 0.15427 0.45158 0.0
O350 O 0.4158 0.09972 0.41453 0.0
O351 O 0.43717 0.10565 0.50304 0.0
C352 C 0.48333 0.20807 0.67573 0.0
C353 C 0.50683 0.22378 0.64267 0.0
H354 H 0.54896 0.24874 0.56528 0.0
H355 H 0.55393 0.22911 0.47042 0.0
H356 H 0.40223 0.12995 0.67876 0.0
H357 H 0.43462 0.1734 0.72376 0.0
H358 H 0.47997 0.21583 0.71701 0.0
H359 H 0.52111 0.24342 0.65886 0.0
Mn360 Mn 0.30283 0.44103 0.54114 0.0
Mn361 Mn 0.32802 0.47206 0.67346 0.0
C362 C 0.27573 0.43161 0.62343 0.0
C363 C 0.28154 0.44032 0.45068 0.0
C364 C 0.33262 0.42494 0.63108 0.0
O365 O 0.33863 0.47218 0.51596 0.0
O366 O 0.35346 0.49065 0.60696 0.0
C367 C 0.3273 0.52154 0.64513 0.0
N368 N 0.32034 0.50029 0.6819 0.0
C369 C 0.29892 0.5154 0.75126 0.0
C370 C 0.30599 0.53752 0.7143 0.0
C371 C 0.32017 0.54054 0.66091 0.0
C372 C 0.30654 0.49709 0.73316 0.0
H373 H 0.33819 0.52394 0.60405 0.0
C374 C 0.35629 0.48991 0.55003 0.0
O375 O 0.2937 0.42672 0.45615 0.0
O376 O 0.28348 0.4553 0.49538 0.0
N377 N 0.30574 0.45679 0.74249 0.0
C378 C 0.29862 0.43332 0.77068 0.0
C379 C 0.28374 0.4269 0.82406 0.0
C380 C 0.27656 0.44475 0.84823 0.0
C381 C 0.28423 0.46884 0.81863 0.0
C382 C 0.29911 0.47421 0.76568 0.0
H383 H 0.30397 0.41948 0.75218 0.0
O384 O 0.26862 0.41481 0.57951 0.0
O385 O 0.29837 0.45348 0.61782 0.0
O386 O 0.32154 0.42201 0.5794 0.0
O387 O 0.33585 0.44294 0.66872 0.0
C388 C 0.27714 0.48746 0.8388 0.0
C389 C 0.28428 0.51061 0.80488 0.0
H390 H 0.30046 0.55218 0.72623 0.0
H391 H 0.32559 0.5575 0.632 0.0
H392 H 0.27776 0.40819 0.84645 0.0
H393 H 0.26487 0.43962 0.88911 0.0
H394 H 0.26575 0.48392 0.87974 0.0
H395 H 0.27821 0.52447 0.82018 0.0
Mn396 Mn 0.85984 0.30232 0.71756 0.0
Mn397 Mn 0.85691 0.33181 0.84602 0.0
C398 C 0.84156 0.2775 0.80298 0.0
C399 C 0.8386 0.27989 0.62862 0.0
C400 C 0.90668 0.33193 0.8055 0.0
O401 O 0.86633 0.33819 0.68737 0.0
O402 O 0.86524 0.35604 0.77631 0.0
C403 C 0.8088 0.33466 0.81493 0.0
N404 N 0.82205 0.32714 0.85353 0.0
C405 C 0.7862 0.31073 0.92509 0.0
C406 C 0.77223 0.31843 0.88626 0.0
C407 C 0.78354 0.33034 0.83083 0.0
C408 C 0.81124 0.31544 0.9067 0.0
H409 H 0.81745 0.3439 0.77238 0.0
C410 C 0.86817 0.35733 0.71915 0.0
O411 O 0.86429 0.29102 0.63435 0.0
O412 O 0.82598 0.28325 0.67233 0.0
N413 N 0.8487 0.31104 0.91798 0.0
C414 C 0.86375 0.30281 0.94801 0.0
C415 C 0.85483 0.28972 0.00347 0.0
C416 C 0.83074 0.28557 0.0279 0.0
C417 C 0.81568 0.29438 0.99638 0.0
C418 C 0.82552 0.30721 0.94121 0.0
H419 H 0.88224 0.30592 0.92941 0.0
O420 O 0.85028 0.26862 0.7605 0.0
O421 O 0.84357 0.30056 0.79423 0.0
O422 O 0.8978 0.32024 0.75473 0.0
O423 O 0.89284 0.33681 0.84247 0.0
C424 C 0.79103 0.29046 0.01695 0.0
C425 C 0.77615 0.29834 0.98103 0.0
H426 H 0.75275 0.31514 0.89836 0.0
H427 H 0.77284 0.33624 0.8005 0.0
H428 H 0.8665 0.28285 0.02736 0.0
H429 H 0.82386 0.27535 0.07054 0.0
H430 H 0.78307 0.28091 0.05982 0.0
H431 H 0.75691 0.29459 0.99666 0.0
H432 H 0.14882 0.42397 0.23659 0.0
H433 H 0.28355 0.42713 0.33172 0.0
H434 H 0.21429 0.44773 0.11353 0.0
H435 H 0.23819 0.44607 0.45522 0.0
H436 H 0.25331 0.42415 0.25007 0.0
H437 H 0.17657 0.42145 0.31744 0.0
C438 C 0.16889 0.42847 0.22655 0.0
C439 C 0.17937 0.4364 0.16856 0.0
C440 C 0.25003 0.42882 0.29526 0.0
C441 C 0.21086 0.43296 0.25986 0.0
C442 C 0.2672 0.43048 0.34167 0.0
C443 C 0.26358 0.4372 0.40004 0.0
C444 C 0.22874 0.43319 0.30793 0.0
C445 C 0.24197 0.44124 0.41064 0.0
C446 C 0.18471 0.42708 0.27252 0.0
C447 C 0.20553 0.44191 0.15786 0.0
N448 N 0.22536 0.43906 0.36524 0.0
N449 N 0.22031 0.44 0.20288 0.0
H450 H 0.85412 0.28033 0.51072 0.0
H451 H 0.72101 0.14766 0.41511 0.0
H452 H 0.78837 0.23809 0.63285 0.0
H453 H 0.76409 0.21258 0.29137 0.0
H454 H 0.75104 0.17541 0.49627 0.0
H455 H 0.82657 0.25025 0.42929 0.0
C456 C 0.83404 0.26468 0.52043 0.0
C457 C 0.82341 0.26188 0.57835 0.0
C458 C 0.75389 0.18343 0.45115 0.0
C459 C 0.79221 0.2272 0.48646 0.0
C460 C 0.73684 0.16761 0.405 0.0
C461 C 0.73987 0.17794 0.34668 0.0
C462 C 0.77452 0.20939 0.43836 0.0
C463 C 0.7608 0.20395 0.33591 0.0
C464 C 0.81834 0.2476 0.47413 0.0
C465 C 0.79724 0.24119 0.58862 0.0
N466 N 0.77738 0.21871 0.38112 0.0
N467 N 0.78262 0.22459 0.54335 0.0
H468 H 0.5762 0.72 0.57676 0.0
H469 H 0.5768 0.85292 0.6734 0.0
H470 H 0.55457 0.76372 0.45448 0.0
H471 H 0.55322 0.78747 0.79651 0.0
H472 H 0.57907 0.8252 0.59242 0.0
H473 H 0.57813 0.74951 0.65894 0.0
C474 C 0.57204 0.73584 0.56719 0.0
C475 C 0.56493 0.73924 0.50897 0.0
C476 C 0.5735 0.81703 0.63734 0.0
C477 C 0.56773 0.77325 0.60171 0.0
C478 C 0.57224 0.83282 0.68341 0.0
C479 C 0.56452 0.82238 0.7415 0.0
C480 C 0.56771 0.79092 0.64994 0.0
C481 C 0.55892 0.7962 0.75213 0.0
C482 C 0.57308 0.75259 0.61392 0.0
C483 C 0.55979 0.76015 0.49889 0.0
N484 N 0.56075 0.78142 0.70696 0.0
N485 N 0.56143 0.77642 0.54458 0.0
H486 H 0.80215 0.51853 0.68643 0.0
H487 H 0.75316 0.60053 0.8846 0.0
H488 H 0.8491 0.60381 0.70081 0.0
H489 H 0.72783 0.51785 0.91404 0.0
H490 H 0.78511 0.60254 0.80858 0.0
H491 H 0.77215 0.51823 0.76347 0.0
C492 C 0.80639 0.5372 0.70674 0.0
C493 C 0.82833 0.56118 0.68781 0.0
C494 C 0.77242 0.58398 0.8316 0.0
C495 C 0.79339 0.56114 0.77492 0.0
C496 C 0.75397 0.58273 0.8743 0.0
C497 C 0.73772 0.55894 0.90542 0.0
C498 C 0.77423 0.56115 0.81951 0.0
C499 C 0.73992 0.53659 0.89113 0.0
C500 C 0.78915 0.53705 0.7505 0.0
C501 C 0.83266 0.58485 0.71501 0.0
N502 N 0.7577 0.53823 0.8493 0.0
N503 N 0.81514 0.58429 0.7568 0.0
H504 H 0.27871 0.79124 0.83388 0.0
H505 H 0.15116 0.74965 0.03974 0.0
H506 H 0.24715 0.84378 0.85838 0.0
H507 H 0.20488 0.71956 0.06556 0.0
H508 H 0.1815 0.78038 0.96237 0.0
H509 H 0.24803 0.76152 0.9102 0.0
C510 C 0.26554 0.79671 0.85612 0.0
C511 C 0.2657 0.82016 0.84034 0.0
C512 C 0.18645 0.76686 0.98477 0.0
C513 C 0.22973 0.78566 0.92659 0.0
C514 C 0.16899 0.74909 0.02816 0.0
C515 C 0.17546 0.73192 0.05871 0.0
C516 C 0.2102 0.76703 0.97137 0.0
C517 C 0.19908 0.7324 0.04297 0.0
C518 C 0.24792 0.77966 0.89948 0.0
C519 C 0.24796 0.8261 0.87006 0.0
N520 N 0.21549 0.74955 0.00044 0.0
N521 N 0.23043 0.80879 0.91139 0.0
H522 H 0.48072 0.19946 0.23205 0.0
H523 H 0.39824 0.24654 0.02984 0.0
H524 H 0.39577 0.15067 0.21307 0.0
H525 H 0.48108 0.27244 0.00098 0.0
H526 H 0.39647 0.21485 0.10638 0.0
H527 H 0.48087 0.22929 0.15455 0.0
C528 C 0.46211 0.1948 0.21069 0.0
C529 C 0.43825 0.17239 0.22842 0.0
C530 C 0.41501 0.22762 0.08337 0.0
C531 C 0.43811 0.2071 0.14083 0.0
C532 C 0.41612 0.24592 0.0404 0.0
C533 C 0.43989 0.26225 0.00931 0.0
C534 C 0.43796 0.22606 0.09584 0.0
C535 C 0.46235 0.26028 0.0239 0.0
C536 C 0.46218 0.21193 0.16666 0.0
C537 C 0.41465 0.1675 0.19985 0.0
N538 N 0.46085 0.24266 0.06606 0.0
N539 N 0.4151 0.18492 0.15786 0.0
H540 H 0.125 0.52386 0.97286 0.0
H541 H 0.13378 0.60207 0.27468 0.0
H542 H 0.13595 0.49911 0.14872 0.0
H543 H 0.12632 0.62817 0.09742 0.0
H544 H 0.13088 0.5624 0.23047 0.0
H545 H 0.12164 0.55993 0.01901 0.0
C546 C 0.12658 0.52588 0.02133 0.0
C547 C 0.131 0.50843 0.0569 0.0
C548 C 0.12973 0.57671 0.20126 0.0
C549 C 0.1272 0.55005 0.11011 0.0
C550 C 0.13137 0.59945 0.22643 0.0
C551 C 0.13045 0.6187 0.18969 0.0
C552 C 0.12718 0.57309 0.1388 0.0
C553 C 0.12722 0.61399 0.12755 0.0
C554 C 0.12465 0.54657 0.04763 0.0
C555 C 0.13263 0.51207 0.11947 0.0
N556 N 0.12584 0.59173 0.10407 0.0
N557 N 0.1309 0.5326 0.14406 0.0
H558 H 0.63324 0.1331 0.32786 0.0
H559 H 0.49348 0.12556 0.26713 0.0
H560 H 0.60206 0.13367 0.15172 0.0
H561 H 0.52544 0.12987 0.44492 0.0
H562 H 0.53179 0.12474 0.22463 0.0
H563 H 0.59258 0.12867 0.37254 0.0
C564 C 0.61792 0.13224 0.29862 0.0
C565 C 0.62124 0.13394 0.23596 0.0
C566 C 0.53034 0.12573 0.273 0.0
C567 C 0.57475 0.12876 0.28658 0.0
C568 C 0.50839 0.12612 0.29729 0.0
C569 C 0.50623 0.12796 0.35969 0.0
C570 C 0.55033 0.12723 0.31129 0.0
C571 C 0.52626 0.12859 0.39649 0.0
C572 C 0.59472 0.1297 0.3241 0.0
C573 C 0.60062 0.13265 0.20027 0.0
N574 N 0.54751 0.12838 0.37173 0.0
N575 N 0.57839 0.13019 0.22606 0.0
H576 H 0.39835 0.53087 0.6083 0.0
H577 H 0.47757 0.6001 0.30692 0.0
H578 H 0.37133 0.4982 0.43083 0.0
H579 H 0.50346 0.63423 0.48364 0.0
H580 H 0.4405 0.5611 0.35239 0.0
H581 H 0.43844 0.56713 0.56412 0.0
C582 C 0.40083 0.53119 0.55998 0.0
C583 C 0.38123 0.51138 0.52322 0.0
C584 C 0.45434 0.57702 0.38132 0.0
C585 C 0.42738 0.55315 0.47233 0.0
C586 C 0.47561 0.59938 0.35541 0.0
C587 C 0.49368 0.6207 0.39145 0.0
C588 C 0.45091 0.57583 0.44386 0.0
C589 C 0.49006 0.61837 0.45402 0.0
C590 C 0.42382 0.55199 0.53482 0.0
C591 C 0.38577 0.51299 0.46097 0.0
N592 N 0.46899 0.59642 0.4782 0.0
N593 N 0.40832 0.53358 0.4375 0.0
H594 H 0.87856 0.50856 0.65137 0.0
H595 H 0.86991 0.36806 0.59786 0.0
H596 H 0.87141 0.47362 0.476 0.0
H597 H 0.87665 0.40325 0.77274 0.0
H598 H 0.87407 0.40821 0.55151 0.0
H599 H 0.88155 0.47169 0.69596 0.0
C600 C 0.87783 0.4933 0.62215 0.0
C601 C 0.87454 0.49419 0.55984 0.0
C602 C 0.8748 0.40716 0.60003 0.0
C603 C 0.87781 0.45179 0.61066 0.0
C604 C 0.87247 0.38424 0.62651 0.0
C605 C 0.87271 0.3821 0.68935 0.0
C606 C 0.87737 0.42805 0.63664 0.0
C607 C 0.87612 0.40381 0.72413 0.0
C608 C 0.8795 0.47221 0.64766 0.0
C609 C 0.87377 0.47379 0.52431 0.0
N610 N 0.87816 0.42574 0.69735 0.0
N611 N 0.87522 0.45339 0.55024 0.0
H612 H 0.39669 0.86227 0.62885 0.0
H613 H 0.47243 0.86934 0.93374 0.0
H614 H 0.36907 0.86816 0.80546 0.0
H615 H 0.50173 0.86447 0.75837 0.0
H616 H 0.43552 0.87063 0.88641 0.0
H617 H 0.43604 0.86483 0.67445 0.0
C618 C 0.3989 0.86424 0.67724 0.0
C619 C 0.37936 0.86492 0.71337 0.0
C620 C 0.45001 0.86936 0.85811 0.0
C621 C 0.42456 0.86777 0.76581 0.0
C622 C 0.4712 0.86858 0.88512 0.0
C623 C 0.4903 0.86665 0.85004 0.0
C624 C 0.44764 0.86813 0.79535 0.0
C625 C 0.48751 0.86592 0.78725 0.0
C626 C 0.42144 0.86568 0.70319 0.0
C627 C 0.38349 0.86752 0.77574 0.0
N628 N 0.46649 0.86654 0.76189 0.0
N629 N 0.40557 0.86875 0.79993 0.0
H630 H 0.49607 0.36702 0.98361 0.0
H631 H 0.63295 0.50297 0.9298 0.0
H632 H 0.52785 0.39899 0.80797 0.0
H633 H 0.59994 0.4721 0.10527 0.0
H634 H 0.59296 0.4666 0.88404 0.0
H635 H 0.53248 0.40704 0.02907 0.0
C636 C 0.51052 0.38248 0.95458 0.0
C637 C 0.50892 0.37946 0.89187 0.0
C638 C 0.59444 0.46794 0.93259 0.0
C639 C 0.55073 0.42526 0.94357 0.0
C640 C 0.61727 0.48874 0.95872 0.0
C641 C 0.62 0.49056 0.02149 0.0
C642 C 0.57424 0.4488 0.96948 0.0
C643 C 0.59892 0.47148 0.05666 0.0
C644 C 0.53135 0.40533 0.98054 0.0
C645 C 0.52828 0.40025 0.85655 0.0
N646 N 0.57708 0.45136 0.0302 0.0
N647 N 0.54842 0.42213 0.88288 0.0
H648 H 0.26317 0.46892 0.64977 0.0
H649 H 0.14661 0.38813 0.87863 0.0
H650 H 0.24206 0.38819 0.69083 0.0
H651 H 0.20729 0.46977 0.90629 0.0
H652 H 0.17341 0.38507 0.7961 0.0
H653 H 0.23323 0.46703 0.72856 0.0
C654 C 0.25209 0.45079 0.67561 0.0
C655 C 0.25596 0.4292 0.66692 0.0
C656 C 0.18063 0.40358 0.82036 0.0
C657 C 0.22049 0.42633 0.75346 0.0
C658 C 0.16547 0.40536 0.86689 0.0
C659 C 0.1744 0.42963 0.89658 0.0
C660 C 0.20457 0.42626 0.80436 0.0
C661 C 0.19924 0.45117 0.88201 0.0
C662 C 0.23476 0.4496 0.71968 0.0
C663 C 0.2401 0.40553 0.69847 0.0
N664 N 0.2133 0.44914 0.83604 0.0
N665 N 0.22302 0.40472 0.74137 0.0
H666 H 0.73396 0.20629 0.09799 0.0
H667 H 0.79343 0.26906 0.8351 0.0
H668 H 0.75577 0.14822 0.0468 0.0
H669 H 0.84963 0.24294 0.87103 0.0
H670 H 0.76533 0.24059 0.91547 0.0
H671 H 0.76259 0.2357 0.01938 0.0
C672 C 0.74468 0.19973 0.06944 0.0
C673 C 0.74168 0.17448 0.07627 0.0
C674 C 0.78368 0.24087 0.90591 0.0
C675 C 0.77513 0.2083 0.98787 0.0
C676 C 0.79986 0.25741 0.86065 0.0
C677 C 0.82438 0.25932 0.84947 0.0
C678 C 0.79157 0.22529 0.9384 0.0
C679 C 0.83115 0.24254 0.88046 0.0
C680 C 0.76111 0.21655 0.02489 0.0
C681 C 0.7571 0.16735 0.04102 0.0
N682 N 0.81476 0.2261 0.9241 0.0
N683 N 0.77323 0.18424 0.99761 0.0
H684 H 0.52996 0.73489 0.25522 0.0
H685 H 0.53169 0.79758 0.99414 0.0
H686 H 0.61212 0.76116 0.21659 0.0
H687 H 0.61252 0.85529 0.03959 0.0
H688 H 0.53111 0.76917 0.07462 0.0
H689 H 0.53018 0.76433 0.17753 0.0
C690 C 0.54799 0.74679 0.22961 0.0
C691 C 0.5706 0.7447 0.23936 0.0
C692 C 0.54901 0.78797 0.06741 0.0
C693 C 0.57151 0.77943 0.15259 0.0
C694 C 0.54926 0.80428 0.0218 0.0
C695 C 0.5717 0.8292 0.01283 0.0
C696 C 0.57169 0.79625 0.10306 0.0
C697 C 0.59457 0.83642 0.04701 0.0
C698 C 0.54822 0.7638 0.18571 0.0
C699 C 0.59404 0.76171 0.20826 0.0
N700 N 0.59401 0.81993 0.09124 0.0
N701 N 0.59391 0.77841 0.16553 0.0
H702 H 0.79343 0.53019 0.43282 0.0
H703 H 0.75597 0.60827 0.19886 0.0
H704 H 0.85064 0.61175 0.39179 0.0
H705 H 0.73622 0.52687 0.17357 0.0
H706 H 0.78526 0.61198 0.28312 0.0
H707 H 0.76486 0.53054 0.35294 0.0
C708 C 0.79984 0.54815 0.40672 0.0
C709 C 0.82481 0.57048 0.41577 0.0
C710 C 0.77434 0.59335 0.25909 0.0
C711 C 0.79173 0.57152 0.32782 0.0
C712 C 0.75774 0.59121 0.21153 0.0
C713 C 0.74289 0.56682 0.18193 0.0
C714 C 0.77582 0.57093 0.27627 0.0
C715 C 0.74638 0.54553 0.19773 0.0
C716 C 0.78344 0.54845 0.36197 0.0
C717 C 0.83176 0.59387 0.38391 0.0
N718 N 0.76219 0.54791 0.24473 0.0
N719 N 0.81531 0.59378 0.34034 0.0
H720 H 0.14618 0.75699 0.35083 0.0
H721 H 0.24328 0.85303 0.54831 0.0
H722 H 0.20875 0.73892 0.32101 0.0
H723 H 0.26005 0.78947 0.5764 0.0
H724 H 0.21302 0.82743 0.46554 0.0
H725 H 0.17267 0.78749 0.43239 0.0
C726 C 0.16556 0.75963 0.36153 0.0
C727 C 0.17503 0.74475 0.33196 0.0
C728 C 0.22319 0.8191 0.49033 0.0
C729 C 0.20515 0.7794 0.42246 0.0
C730 C 0.24043 0.83365 0.53692 0.0
C731 C 0.25485 0.82362 0.56648 0.0
C732 C 0.22051 0.79452 0.47455 0.0
C733 C 0.25012 0.79824 0.55228 0.0
C734 C 0.18061 0.77703 0.40741 0.0
C735 C 0.20041 0.74922 0.34522 0.0
N736 N 0.2337 0.78472 0.50627 0.0
N737 N 0.21444 0.76579 0.39061 0.0
H738 H 0.38935 0.24363 0.71646 0.0
H739 H 0.46705 0.2058 0.48275 0.0
H740 H 0.47067 0.2629 0.74078 0.0
H741 H 0.38546 0.14848 0.52319 0.0
H742 H 0.46653 0.23432 0.56219 0.0
H743 H 0.38521 0.21411 0.63232 0.0
C744 C 0.4063 0.2417 0.70362 0.0
C745 C 0.4308 0.2565 0.73288 0.0
C746 C 0.44863 0.21576 0.55308 0.0
C747 C 0.42621 0.22334 0.6387 0.0
C748 C 0.44902 0.19937 0.50856 0.0
C749 C 0.42675 0.17438 0.49948 0.0
C750 C 0.42553 0.20746 0.58706 0.0
C751 C 0.40329 0.16739 0.53106 0.0
C752 C 0.40391 0.22497 0.65613 0.0
C753 C 0.45194 0.25281 0.71689 0.0
N754 N 0.4033 0.18385 0.57451 0.0
N755 N 0.44932 0.23692 0.66996 0.0
H756 H 0.05137 0.39202 0.0155 0.0
H757 H 0.94978 0.3402 0.73635 0.0
H758 H 0.07504 0.41258 0.83022 0.0
H759 H 0.92656 0.34296 0.91949 0.0
H760 H 0.99577 0.35787 0.77121 0.0
H761 H 0.00499 0.36483 0.98172 0.0
C762 C 0.04694 0.39054 0.96788 0.0
C763 C 0.06717 0.40484 0.92585 0.0
C764 C 0.98043 0.35429 0.80366 0.0
C765 C 0.01443 0.37374 0.88692 0.0
C766 C 0.95422 0.34417 0.78378 0.0
C767 C 0.93426 0.34032 0.82477 0.0
C768 C 0.98658 0.36023 0.865 0.0
C769 C 0.94122 0.3458 0.88592 0.0
C770 C 0.02051 0.37512 0.94861 0.0
C771 C 0.06021 0.40216 0.86452 0.0
N772 N 0.96672 0.35552 0.90405 0.0
N773 N 0.03452 0.38706 0.84703 0.0
H774 H 0.5619 0.94722 0.94668 0.0
H775 H 0.68732 0.06018 0.12706 0.0
H776 H 0.6286 0.93786 0.99421 0.0
H777 H 0.61446 0.06038 0.09177 0.0
H778 H 0.66812 0.01627 0.07787 0.0
H779 H 0.58386 0.99108 0.99304 0.0
C780 C 0.58165 0.95491 0.9653 0.0
C781 C 0.5938 0.93935 0.96549 0.0
C782 C 0.6563 0.02586 0.08168 0.0
C783 C 0.61867 0.98904 0.02164 0.0
C784 C 0.66709 0.05066 0.11047 0.0
C785 C 0.65236 0.06377 0.1136 0.0
C786 C 0.63075 0.01441 0.05596 0.0
C787 C 0.62648 0.05094 0.09024 0.0
C788 C 0.59405 0.97977 0.99271 0.0
C789 C 0.619 0.94972 0.99192 0.0
N790 N 0.61663 0.02717 0.06222 0.0
N791 N 0.63061 0.97394 0.01948 0.0
H792 H 0.66369 0.61064 0.06967 0.0
H793 H 0.61145 0.65874 0.35089 0.0
H794 H 0.65966 0.58287 0.25171 0.0
H795 H 0.59085 0.66271 0.1661 0.0
H796 H 0.63872 0.63984 0.31605 0.0
H797 H 0.6462 0.63895 0.10564 0.0
C798 C 0.6595 0.61072 0.1171 0.0
C799 C 0.66296 0.59411 0.15744 0.0
C800 C 0.62842 0.64521 0.28328 0.0
C801 C 0.64327 0.62653 0.19892 0.0
C802 C 0.61295 0.65606 0.30316 0.0
C803 C 0.59861 0.66212 0.26157 0.0
C804 C 0.62981 0.64082 0.22143 0.0
C805 C 0.60132 0.65819 0.20006 0.0
C806 C 0.64948 0.62681 0.1376 0.0
C807 C 0.65719 0.59511 0.21861 0.0
N808 N 0.61647 0.64775 0.18197 0.0
N809 N 0.64759 0.61091 0.23735 0.0
H810 H 0.05072 0.66128 0.22939 0.0
H811 H 0.95286 0.61336 0.51534 0.0
H812 H 0.07575 0.65893 0.41112 0.0
H813 H 0.92639 0.589 0.33296 0.0
H814 H 0.99866 0.63993 0.47756 0.0
H815 H 0.00512 0.64403 0.26696 0.0
C816 C 0.04678 0.65749 0.27703 0.0
C817 C 0.06716 0.66141 0.31686 0.0
C818 C 0.98265 0.62896 0.44594 0.0
C819 C 0.01533 0.64211 0.36016 0.0
C820 C 0.95655 0.6139 0.46748 0.0
C821 C 0.93571 0.59871 0.42751 0.0
C822 C 0.9878 0.6291 0.384 0.0
C823 C 0.94172 0.60018 0.36574 0.0
C824 C 0.0208 0.64763 0.29845 0.0
C825 C 0.06081 0.65614 0.37836 0.0
N826 N 0.96713 0.61497 0.34601 0.0
N827 N 0.03557 0.64677 0.39798 0.0
H828 H 0.38759 0.04709 0.39583 0.0
H829 H 0.33712 0.94602 0.67605 0.0
H830 H 0.40841 0.07195 0.58033 0.0
H831 H 0.34335 0.92357 0.49422 0.0
H832 H 0.35427 0.99194 0.64083 0.0
H833 H 0.36166 0.00079 0.43083 0.0
C834 C 0.38639 0.04292 0.44356 0.0
C835 C 0.40041 0.06347 0.48499 0.0
C836 C 0.35157 0.97676 0.60879 0.0
C837 C 0.37076 0.01079 0.52532 0.0
C838 C 0.34179 0.9506 0.62887 0.0
C839 C 0.33893 0.93083 0.58835 0.0
C840 C 0.35808 0.98303 0.54768 0.0
C841 C 0.34529 0.938 0.52749 0.0
C842 C 0.37171 0.01654 0.46352 0.0
C843 C 0.39814 0.05684 0.54651 0.0
N844 N 0.35454 0.9634 0.50915 0.0
N845 N 0.38374 0.03116 0.56471 0.0
H846 H 0.34231 0.39079 0.563 0.0
H847 H 0.39152 0.34045 0.84593 0.0
H848 H 0.34404 0.41696 0.74556 0.0
H849 H 0.41488 0.33876 0.66239 0.0
H850 H 0.3648 0.35981 0.80994 0.0
H851 H 0.36016 0.36282 0.59933 0.0
C852 C 0.34615 0.39049 0.61057 0.0
C853 C 0.34186 0.40649 0.65099 0.0
C854 C 0.37559 0.35484 0.77769 0.0
C855 C 0.36188 0.37439 0.69291 0.0
C856 C 0.39073 0.34372 0.7982 0.0
C857 C 0.40567 0.33813 0.75735 0.0
C858 C 0.37512 0.35997 0.71591 0.0
C859 C 0.40389 0.34284 0.69582 0.0
C860 C 0.35634 0.37458 0.63129 0.0
C861 C 0.34717 0.40521 0.71238 0.0
N862 N 0.38904 0.35352 0.67711 0.0
N863 N 0.3569 0.38954 0.73133 0.0
loop_
_geom_bond_atom_site_label_1
_geom_bond_atom_site_label_2
_geom_bond_distance
_geom_bond_site_symmetry_2
_ccdc_geom_bond_type
Mn0 O5 2.095 . S
Mn0 O15 2.162 . S
Mn0 O16 2.297 . S
Mn0 O24 2.385 1_554 S
Mn0 O25 2.209 1_554 S
Mn0 O26 2.094 . S
Mn1 O6 2.121 . S
Mn1 N8 2.257 . S
Mn1 N17 2.282 . S
Mn1 O25 2.215 . S
Mn1 O27 2.117 . S
C2 O24 1.234 . S
C2 O25 1.283 . S
C3 O15 1.281 . S
C3 O16 1.236 . S
C4 O26 1.240 1_556 S
C4 O27 1.264 . S
O5 Mn0 2.095 . S
O5 C14 1.250 . S
O6 Mn1 2.121 . S
O6 C14 1.258 1_556 S
C7 N8 1.326 . S
C7 C11 1.460 . S
C7 H13 0.929 . S
N8 Mn1 2.257 . S
N8 C7 1.326 . S
N8 C12 1.362 . S
C9 C10 1.258 . S
C9 C12 1.431 . S
C9 C29 1.449 . S
C10 C9 1.258 . S
C10 C11 1.477 . S
C10 H30 0.931 . S
C11 C7 1.460 . S
C11 C10 1.477 . S
C11 H31 0.930 . S
C12 N8 1.362 . S
C12 C9 1.431 . S
C12 C22 1.476 . S
H13 C7 0.929 . S
C14 O5 1.250 . S
C14 O6 1.258 1_554 S
O15 Mn0 2.162 . S
O15 C3 1.281 . S
O16 Mn0 2.297 . S
O16 C3 1.236 . S
N17 Mn1 2.282 . S
N17 C18 1.328 . S
N17 C22 1.318 . S
C18 N17 1.328 . S
C18 C19 1.457 . S
C18 H23 0.929 . S
C19 C18 1.457 . S
C19 C20 1.291 . S
C19 H32 0.931 . S
C20 C19 1.291 . S
C20 C21 1.373 . S
C20 H33 0.929 . S
C21 C20 1.373 . S
C21 C22 1.396 . S
C21 C28 1.403 . S
C22 C12 1.476 . S
C22 N17 1.318 . S
C22 C21 1.396 . S
H23 C18 0.929 . S
O24 Mn0 2.385 1_556 S
O24 C2 1.234 . S
O25 Mn0 2.209 1_556 S
O25 Mn1 2.215 . S
O25 C2 1.283 . S
O26 Mn0 2.094 . S
O26 C4 1.240 1_554 S
O27 Mn1 2.117 . S
O27 C4 1.264 . S
C28 C21 1.403 . S
C28 C29 1.399 . S
C28 H34 0.929 . S
C29 C9 1.449 . S
C29 C28 1.399 . S
C29 H35 0.930 . S
H30 C10 0.931 . S
H31 C11 0.930 . S
H32 C19 0.931 . S
H33 C20 0.929 . S
H34 C28 0.929 . S
H35 C29 0.930 . S
Mn36 O41 2.095 . S
Mn36 O51 2.162 . S
Mn36 O52 2.297 . S
Mn36 O60 2.385 . S
Mn36 O61 2.209 . S
Mn36 O62 2.094 . S
Mn37 O42 2.121 . S
Mn37 N44 2.257 . S
Mn37 N53 2.282 1_554 S
Mn37 O61 2.215 . S
Mn37 O63 2.117 . S
C38 O60 1.234 . S
C38 O61 1.283 . S
C39 O51 1.281 . S
C39 O52 1.236 . S
C40 O62 1.240 . S
C40 O63 1.264 . S
O41 Mn36 2.095 . S
O41 C50 1.250 . S
O42 Mn37 2.121 . S
O42 C50 1.258 . S
C43 N44 1.326 . S
C43 C47 1.460 . S
C43 H49 0.929 . S
N44 Mn37 2.257 . S
N44 C43 1.326 . S
N44 C48 1.362 1_554 S
C45 C46 1.258 . S
C45 C48 1.431 . S
C45 C65 1.449 . S
C46 C45 1.258 . S
C46 C47 1.477 1_556 S
C46 H66 0.931 . S
C47 C43 1.460 . S
C47 C46 1.477 1_554 S
C47 H67 0.930 . S
C48 N44 1.362 1_556 S
C48 C45 1.431 . S
C48 C58 1.476 . S
H49 C43 0.929 . S
C50 O41 1.250 . S
C50 O42 1.258 . S
O51 Mn36 2.162 . S
O51 C39 1.281 . S
O52 Mn36 2.297 . S
O52 C39 1.236 . S
N53 Mn37 2.282 1_556 S
N53 C54 1.328 . S
N53 C58 1.318 . S
C54 N53 1.328 . S
C54 C55 1.457 . S
C54 H59 0.929 1_556 S
C55 C54 1.457 . S
C55 C56 1.291 . S
C55 H68 0.931 . S
C56 C55 1.291 . S
C56 C57 1.373 . S
C56 H69 0.929 . S
C57 C56 1.373 . S
C57 C58 1.396 . S
C57 C64 1.403 . S
C58 C48 1.476 . S
C58 N53 1.318 . S
C58 C57 1.396 . S
H59 C54 0.929 1_554 S
O60 Mn36 2.385 . S
O60 C38 1.234 . S
O61 Mn36 2.209 . S
O61 Mn37 2.215 . S
O61 C38 1.283 . S
O62 Mn36 2.094 . S
O62 C40 1.240 . S
O63 Mn37 2.117 . S
O63 C40 1.264 . S
C64 C57 1.403 . S
C64 C65 1.399 . S
C64 H70 0.929 . S
C65 C45 1.449 . S
C65 C64 1.399 . S
C65 H71 0.930 . S
H66 C46 0.931 . S
H67 C47 0.930 . S
H68 C55 0.931 . S
H69 C56 0.929 . S
H70 C64 0.929 . S
H71 C65 0.930 . S
Mn72 O77 2.095 . S
Mn72 O87 2.162 . S
Mn72 O88 2.297 . S
Mn72 O96 2.385 . S
Mn72 O97 2.209 . S
Mn72 O98 2.094 . S
Mn73 O78 2.121 . S
Mn73 N80 2.257 . S
Mn73 N89 2.282 . S
Mn73 O97 2.215 . S
Mn73 O99 2.117 . S
C74 O96 1.234 . S
C74 O97 1.283 . S
C75 O87 1.281 . S
C75 O88 1.236 . S
C76 O98 1.240 . S
C76 O99 1.264 . S
O77 Mn72 2.095 . S
O77 C86 1.250 . S
O78 Mn73 2.121 . S
O78 C86 1.258 . S
C79 N80 1.326 . S
C79 C83 1.460 . S
C79 H85 0.929 . S
N80 Mn73 2.257 . S
N80 C79 1.326 . S
N80 C84 1.362 . S
C81 C82 1.258 . S
C81 C84 1.431 . S
C81 C101 1.449 . S
C82 C81 1.258 . S
C82 C83 1.477 . S
C82 H102 0.931 . S
C83 C79 1.460 . S
C83 C82 1.477 . S
C83 H103 0.930 . S
C84 N80 1.362 . S
C84 C81 1.431 . S
C84 C94 1.476 . S
H85 C79 0.929 . S
C86 O77 1.250 . S
C86 O78 1.258 . S
O87 Mn72 2.162 . S
O87 C75 1.281 . S
O88 Mn72 2.297 . S
O88 C75 1.236 . S
N89 Mn73 2.282 . S
N89 C90 1.328 . S
N89 C94 1.318 . S
C90 N89 1.328 . S
C90 C91 1.457 . S
C90 H95 0.929 . S
C91 C90 1.457 . S
C91 C92 1.291 . S
C91 H104 0.931 . S
C92 C91 1.291 . S
C92 C93 1.373 . S
C92 H105 0.929 . S
C93 C92 1.373 . S
C93 C94 1.396 . S
C93 C100 1.403 . S
C94 C84 1.476 . S
C94 N89 1.318 . S
C94 C93 1.396 . S
H95 C90 0.929 . S
O96 Mn72 2.385 . S
O96 C74 1.234 . S
O97 Mn72 2.209 . S
O97 Mn73 2.215 . S
O97 C74 1.283 . S
O98 Mn72 2.094 . S
O98 C76 1.240 . S
O99 Mn73 2.117 . S
O99 C76 1.264 . S
C100 C93 1.403 . S
C100 C101 1.399 . S
C100 H106 0.929 1_554 S
C101 C81 1.449 . S
C101 C100 1.399 . S
C101 H107 0.930 . S
H102 C82 0.931 . S
H103 C83 0.930 . S
H104 C91 0.931 . S
H105 C92 0.929 . S
H106 C100 0.929 1_556 S
H107 C101 0.930 . S
Mn108 O113 2.095 . S
Mn108 O123 2.162 . S
Mn108 O124 2.297 . S
Mn108 O132 2.385 . S
Mn108 O133 2.209 . S
Mn108 O134 2.094 . S
Mn109 O114 2.121 . S
Mn109 N116 2.257 . S
Mn109 N125 2.282 . S
Mn109 O133 2.215 . S
Mn109 O135 2.117 . S
C110 O132 1.234 . S
C110 O133 1.283 . S
C111 O123 1.281 . S
C111 O124 1.236 . S
C112 O134 1.240 . S
C112 O135 1.264 . S
O113 Mn108 2.095 . S
O113 C122 1.250 . S
O114 Mn109 2.121 . S
O114 C122 1.258 . S
C115 N116 1.326 . S
C115 C119 1.460 . S
C115 H121 0.929 . S
N116 Mn109 2.257 . S
N116 C115 1.326 . S
N116 C120 1.362 . S
C117 C118 1.258 . S
C117 C120 1.431 . S
C117 C137 1.449 . S
C118 C117 1.258 . S
C118 C119 1.477 . S
C118 H138 0.931 . S
C119 C115 1.460 . S
C119 C118 1.477 . S
C119 H139 0.930 . S
C120 N116 1.362 . S
C120 C117 1.431 . S
C120 C130 1.476 . S
H121 C115 0.929 . S
C122 O113 1.250 . S
C122 O114 1.258 . S
O123 Mn108 2.162 . S
O123 C111 1.281 . S
O124 Mn108 2.297 . S
O124 C111 1.236 . S
N125 Mn109 2.282 . S
N125 C126 1.328 . S
N125 C130 1.318 . S
C126 N125 1.328 . S
C126 C127 1.457 . S
C126 H131 0.929 . S
C127 C126 1.457 . S
C127 C128 1.291 . S
C127 H140 0.931 . S
C128 C127 1.291 . S
C128 C129 1.373 . S
C128 H141 0.929 . S
C129 C128 1.373 . S
C129 C130 1.396 . S
C129 C136 1.403 . S
C130 C120 1.476 . S
C130 N125 1.318 . S
C130 C129 1.396 . S
H131 C126 0.929 . S
O132 Mn108 2.385 . S
O132 C110 1.234 . S
O133 Mn108 2.209 . S
O133 Mn109 2.215 . S
O133 C110 1.283 . S
O134 Mn108 2.094 . S
O134 C112 1.240 . S
O135 Mn109 2.117 . S
O135 C112 1.264 . S
C136 C129 1.403 . S
C136 C137 1.399 . S
C136 H142 0.929 . S
C137 C117 1.449 . S
C137 C136 1.399 . S
C137 H143 0.930 . S
H138 C118 0.931 . S
H139 C119 0.930 . S
H140 C127 0.931 . S
H141 C128 0.929 . S
H142 C136 0.929 . S
H143 C137 0.930 . S
Mn144 O149 2.095 . S
Mn144 O159 2.162 . S
Mn144 O160 2.297 . S
Mn144 O168 2.385 . S
Mn144 O169 2.209 . S
Mn144 O170 2.094 . S
Mn145 O150 2.121 . S
Mn145 N152 2.257 . S
Mn145 N161 2.282 . S
Mn145 O169 2.215 . S
Mn145 O171 2.117 . S
C146 O168 1.234 . S
C146 O169 1.283 . S
C147 O159 1.281 . S
C147 O160 1.236 . S
C148 O170 1.240 . S
C148 O171 1.264 . S
O149 Mn144 2.095 . S
O149 C158 1.250 . S
O150 Mn145 2.121 . S
O150 C158 1.258 . S
C151 N152 1.326 . S
C151 C155 1.460 . S
C151 H157 0.929 . S
N152 Mn145 2.257 . S
N152 C151 1.326 . S
N152 C156 1.362 . S
C153 C154 1.258 . S
C153 C156 1.431 . S
C153 C173 1.449 . S
C154 C153 1.258 . S
C154 C155 1.477 . S
C154 H174 0.931 . S
C155 C151 1.460 . S
C155 C154 1.477 . S
C155 H175 0.930 . S
C156 N152 1.362 . S
C156 C153 1.431 . S
C156 C166 1.476 . S
H157 C151 0.929 . S
C158 O149 1.250 . S
C158 O150 1.258 . S
O159 Mn144 2.162 . S
O159 C147 1.281 . S
O160 Mn144 2.297 . S
O160 C147 1.236 . S
N161 Mn145 2.282 . S
N161 C162 1.328 . S
N161 C166 1.318 . S
C162 N161 1.328 . S
C162 C163 1.457 . S
C162 H167 0.929 . S
C163 C162 1.457 . S
C163 C164 1.291 . S
C163 H176 0.931 . S
C164 C163 1.291 . S
C164 C165 1.373 . S
C164 H177 0.929 . S
C165 C164 1.373 . S
C165 C166 1.396 . S
C165 C172 1.403 . S
C166 C156 1.476 . S
C166 N161 1.318 . S
C166 C165 1.396 . S
H167 C162 0.929 . S
O168 Mn144 2.385 . S
O168 C146 1.234 . S
O169 Mn144 2.209 . S
O169 Mn145 2.215 . S
O169 C146 1.283 . S
O170 Mn144 2.094 . S
O170 C148 1.240 . S
O171 Mn145 2.117 . S
O171 C148 1.264 . S
C172 C165 1.403 . S
C172 C173 1.399 . S
C172 H178 0.929 . S
C173 C153 1.449 . S
C173 C172 1.399 . S
C173 H179 0.930 . S
H174 C154 0.931 . S
H175 C155 0.930 . S
H176 C163 0.931 . S
H177 C164 0.929 . S
H178 C172 0.929 . S
H179 C173 0.930 . S
Mn180 O185 2.095 . S
Mn180 O195 2.162 . S
Mn180 O196 2.297 . S
Mn180 O204 2.385 . S
Mn180 O205 2.209 . S
Mn180 O206 2.094 . S
Mn181 O186 2.121 . S
Mn181 N188 2.257 . S
Mn181 N197 2.282 . S
Mn181 O205 2.215 . S
Mn181 O207 2.117 . S
C182 O204 1.234 . S
C182 O205 1.283 . S
C183 O195 1.281 . S
C183 O196 1.236 . S
C184 O206 1.240 . S
C184 O207 1.264 . S
O185 Mn180 2.095 . S
O185 C194 1.250 . S
O186 Mn181 2.121 . S
O186 C194 1.258 . S
C187 N188 1.326 . S
C187 C191 1.460 . S
C187 H193 0.929 . S
N188 Mn181 2.257 . S
N188 C187 1.326 . S
N188 C192 1.362 . S
C189 C190 1.258 . S
C189 C192 1.431 . S
C189 C209 1.449 . S
C190 C189 1.258 . S
C190 C191 1.477 . S
C190 H210 0.931 . S
C191 C187 1.460 . S
C191 C190 1.477 . S
C191 H211 0.930 . S
C192 N188 1.362 . S
C192 C189 1.431 . S
C192 C202 1.476 . S
H193 C187 0.929 . S
C194 O185 1.250 . S
C194 O186 1.258 . S
O195 Mn180 2.162 . S
O195 C183 1.281 . S
O196 Mn180 2.297 . S
O196 C183 1.236 . S
N197 Mn181 2.282 . S
N197 C198 1.328 . S
N197 C202 1.318 . S
C198 N197 1.328 . S
C198 C199 1.457 . S
C198 H203 0.929 . S
C199 C198 1.457 . S
C199 C200 1.291 . S
C199 H212 0.931 . S
C200 C199 1.291 . S
C200 C201 1.373 . S
C200 H213 0.929 . S
C201 C200 1.373 . S
C201 C202 1.396 . S
C201 C208 1.403 . S
C202 C192 1.476 . S
C202 N197 1.318 . S
C202 C201 1.396 . S
H203 C198 0.929 . S
O204 Mn180 2.385 . S
O204 C182 1.234 . S
O205 Mn180 2.209 . S
O205 Mn181 2.215 . S
O205 C182 1.283 . S
O206 Mn180 2.094 . S
O206 C184 1.240 . S
O207 Mn181 2.117 . S
O207 C184 1.264 . S
C208 C201 1.403 . S
C208 C209 1.399 . S
C208 H214 0.929 . S
C209 C189 1.449 . S
C209 C208 1.399 . S
C209 H215 0.930 . S
H210 C190 0.931 . S
H211 C191 0.930 . S
H212 C199 0.931 . S
H213 C200 0.929 . S
H214 C208 0.929 . S
H215 C209 0.930 . S
Mn216 O221 2.095 . S
Mn216 O231 2.162 . S
Mn216 O232 2.297 . S
Mn216 O240 2.385 . S
Mn216 O241 2.209 . S
Mn216 O242 2.094 . S
Mn217 O222 2.121 . S
Mn217 N224 2.257 1_556 S
Mn217 N233 2.282 1_556 S
Mn217 O241 2.215 . S
Mn217 O243 2.117 . S
C218 O240 1.234 . S
C218 O241 1.283 . S
C219 O231 1.281 . S
C219 O232 1.236 . S
C220 O242 1.240 . S
C220 O243 1.264 . S
O221 Mn216 2.095 . S
O221 C230 1.250 . S
O222 Mn217 2.121 . S
O222 C230 1.258 . S
C223 N224 1.326 . S
C223 C227 1.460 . S
C223 H229 0.929 1_554 S
N224 Mn217 2.257 1_554 S
N224 C223 1.326 . S
N224 C228 1.362 . S
C225 C226 1.258 . S
C225 C228 1.431 . S
C225 C245 1.449 . S
C226 C225 1.258 . S
C226 C227 1.477 . S
C226 H246 0.931 . S
C227 C223 1.460 . S
C227 C226 1.477 . S
C227 H247 0.930 . S
C228 N224 1.362 . S
C228 C225 1.431 . S
C228 C238 1.476 . S
H229 C223 0.929 1_556 S
C230 O221 1.250 . S
C230 O222 1.258 . S
O231 Mn216 2.162 . S
O231 C219 1.281 . S
O232 Mn216 2.297 . S
O232 C219 1.236 . S
N233 Mn217 2.282 1_554 S
N233 C234 1.328 . S
N233 C238 1.318 . S
C234 N233 1.328 . S
C234 C235 1.457 . S
C234 H239 0.929 . S
C235 C234 1.457 . S
C235 C236 1.291 . S
C235 H248 0.931 . S
C236 C235 1.291 . S
C236 C237 1.373 . S
C236 H249 0.929 . S
C237 C236 1.373 . S
C237 C238 1.396 . S
C237 C244 1.403 . S
C238 C228 1.476 . S
C238 N233 1.318 . S
C238 C237 1.396 . S
H239 C234 0.929 . S
O240 Mn216 2.385 . S
O240 C218 1.234 . S
O241 Mn216 2.209 . S
O241 Mn217 2.215 . S
O241 C218 1.283 . S
O242 Mn216 2.094 . S
O242 C220 1.240 . S
O243 Mn217 2.117 . S
O243 C220 1.264 . S
C244 C237 1.403 . S
C244 C245 1.399 . S
C244 H250 0.929 . S
C245 C225 1.449 . S
C245 C244 1.399 . S
C245 H251 0.930 . S
H246 C226 0.931 . S
H247 C227 0.930 . S
H248 C235 0.931 . S
H249 C236 0.929 . S
H250 C244 0.929 . S
H251 C245 0.930 . S
Mn252 O257 2.095 . S
Mn252 O267 2.162 1_554 S
Mn252 O268 2.297 1_554 S
Mn252 O276 2.385 . S
Mn252 O277 2.209 . S
Mn252 O278 2.094 . S
Mn253 O258 2.121 . S
Mn253 N260 2.257 . S
Mn253 N269 2.282 . S
Mn253 O277 2.215 . S
Mn253 O279 2.117 . S
C254 O276 1.234 . S
C254 O277 1.283 . S
C255 O267 1.281 . S
C255 O268 1.236 . S
C256 O278 1.240 . S
C256 O279 1.264 . S
O257 Mn252 2.095 . S
O257 C266 1.250 . S
O258 Mn253 2.121 . S
O258 C266 1.258 . S
C259 N260 1.326 . S
C259 C263 1.460 . S
C259 H265 0.929 . S
N260 Mn253 2.257 . S
N260 C259 1.326 . S
N260 C264 1.362 . S
C261 C262 1.258 . S
C261 C264 1.431 . S
C261 C281 1.449 . S
C262 C261 1.258 . S
C262 C263 1.477 . S
C262 H282 0.931 . S
C263 C259 1.460 . S
C263 C262 1.477 . S
C263 H283 0.930 . S
C264 N260 1.362 . S
C264 C261 1.431 . S
C264 C274 1.476 . S
H265 C259 0.929 . S
C266 O257 1.250 . S
C266 O258 1.258 . S
O267 Mn252 2.162 1_556 S
O267 C255 1.281 . S
O268 Mn252 2.297 1_556 S
O268 C255 1.236 . S
N269 Mn253 2.282 . S
N269 C270 1.328 . S
N269 C274 1.318 . S
C270 N269 1.328 . S
C270 C271 1.457 . S
C270 H275 0.929 . S
C271 C270 1.457 . S
C271 C272 1.291 . S
C271 H284 0.931 . S
C272 C271 1.291 . S
C272 C273 1.373 . S
C272 H285 0.929 . S
C273 C272 1.373 . S
C273 C274 1.396 . S
C273 C280 1.403 . S
C274 C264 1.476 . S
C274 N269 1.318 . S
C274 C273 1.396 . S
H275 C270 0.929 . S
O276 Mn252 2.385 . S
O276 C254 1.234 . S
O277 Mn252 2.209 . S
O277 Mn253 2.215 . S
O277 C254 1.283 . S
O278 Mn252 2.094 . S
O278 C256 1.240 . S
O279 Mn253 2.117 . S
O279 C256 1.264 . S
C280 C273 1.403 . S
C280 C281 1.399 . S
C280 H286 0.929 . S
C281 C261 1.449 . S
C281 C280 1.399 . S
C281 H287 0.930 . S
H282 C262 0.931 . S
H283 C263 0.930 . S
H284 C271 0.931 . S
H285 C272 0.929 . S
H286 C280 0.929 . S
H287 C281 0.930 . S
Mn288 O293 2.095 . S
Mn288 O303 2.162 . S
Mn288 O304 2.297 . S
Mn288 O312 2.385 . S
Mn288 O313 2.209 . S
Mn288 O314 2.094 . S
Mn289 O294 2.121 . S
Mn289 N296 2.257 . S
Mn289 N305 2.282 . S
Mn289 O313 2.215 . S
Mn289 O315 2.117 . S
C290 O312 1.234 . S
C290 O313 1.283 . S
C291 O303 1.281 . S
C291 O304 1.236 . S
C292 O314 1.240 . S
C292 O315 1.264 . S
O293 Mn288 2.095 . S
O293 C302 1.250 . S
O294 Mn289 2.121 . S
O294 C302 1.258 . S
C295 N296 1.326 . S
C295 C299 1.460 . S
C295 H301 0.929 . S
N296 Mn289 2.257 . S
N296 C295 1.326 . S
N296 C300 1.362 . S
C297 C298 1.258 . S
C297 C300 1.431 . S
C297 C317 1.449 . S
C298 C297 1.258 . S
C298 C299 1.477 . S
C298 H318 0.931 . S
C299 C295 1.460 . S
C299 C298 1.477 . S
C299 H319 0.930 . S
C300 N296 1.362 . S
C300 C297 1.431 . S
C300 C310 1.476 . S
H301 C295 0.929 . S
C302 O293 1.250 . S
C302 O294 1.258 . S
O303 Mn288 2.162 . S
O303 C291 1.281 . S
O304 Mn288 2.297 . S
O304 C291 1.236 . S
N305 Mn289 2.282 . S
N305 C306 1.328 . S
N305 C310 1.318 . S
C306 N305 1.328 . S
C306 C307 1.457 . S
C306 H311 0.929 . S
C307 C306 1.457 . S
C307 C308 1.291 . S
C307 H320 0.931 . S
C308 C307 1.291 . S
C308 C309 1.373 . S
C308 H321 0.929 . S
C309 C308 1.373 . S
C309 C310 1.396 . S
C309 C316 1.403 . S
C310 C300 1.476 . S
C310 N305 1.318 . S
C310 C309 1.396 . S
H311 C306 0.929 . S
O312 Mn288 2.385 . S
O312 C290 1.234 . S
O313 Mn288 2.209 . S
O313 Mn289 2.215 . S
O313 C290 1.283 . S
O314 Mn288 2.094 . S
O314 C292 1.240 . S
O315 Mn289 2.117 . S
O315 C292 1.264 . S
C316 C309 1.403 . S
C316 C317 1.399 . S
C316 H322 0.929 . S
C317 C297 1.449 . S
C317 C316 1.399 . S
C317 H323 0.930 . S
H318 C298 0.931 . S
H319 C299 0.930 . S
H320 C307 0.931 . S
H321 C308 0.929 . S
H322 C316 0.929 . S
H323 C317 0.930 . S
Mn324 O329 2.095 . S
Mn324 O339 2.162 . S
Mn324 O340 2.297 . S
Mn324 O348 2.385 . S
Mn324 O349 2.209 . S
Mn324 O350 2.094 . S
Mn325 O330 2.121 . S
Mn325 N332 2.257 . S
Mn325 N341 2.282 . S
Mn325 O349 2.215 . S
Mn325 O351 2.117 . S
C326 O348 1.234 . S
C326 O349 1.283 . S
C327 O339 1.281 . S
C327 O340 1.236 . S
C328 O350 1.240 . S
C328 O351 1.264 . S
O329 Mn324 2.095 . S
O329 C338 1.250 . S
O330 Mn325 2.121 . S
O330 C338 1.258 . S
C331 N332 1.326 . S
C331 C335 1.460 . S
C331 H337 0.929 . S
N332 Mn325 2.257 . S
N332 C331 1.326 . S
N332 C336 1.362 . S
C333 C334 1.258 . S
C333 C336 1.431 . S
C333 C353 1.449 . S
C334 C333 1.258 . S
C334 C335 1.477 . S
C334 H354 0.931 . S
C335 C331 1.460 . S
C335 C334 1.477 . S
C335 H355 0.930 . S
C336 N332 1.362 . S
C336 C333 1.431 . S
C336 C346 1.476 . S
H337 C331 0.929 . S
C338 O329 1.250 . S
C338 O330 1.258 . S
O339 Mn324 2.162 . S
O339 C327 1.281 . S
O340 Mn324 2.297 . S
O340 C327 1.236 . S
N341 Mn325 2.282 . S
N341 C342 1.328 . S
N341 C346 1.318 . S
C342 N341 1.328 . S
C342 C343 1.457 . S
C342 H347 0.929 . S
C343 C342 1.457 . S
C343 C344 1.291 . S
C343 H356 0.931 . S
C344 C343 1.291 . S
C344 C345 1.373 . S
C344 H357 0.929 . S
C345 C344 1.373 . S
C345 C346 1.396 . S
C345 C352 1.403 . S
C346 C336 1.476 . S
C346 N341 1.318 . S
C346 C345 1.396 . S
H347 C342 0.929 . S
O348 Mn324 2.385 . S
O348 C326 1.234 . S
O349 Mn324 2.209 . S
O349 Mn325 2.215 . S
O349 C326 1.283 . S
O350 Mn324 2.094 . S
O350 C328 1.240 . S
O351 Mn325 2.117 . S
O351 C328 1.264 . S
C352 C345 1.403 . S
C352 C353 1.399 . S
C352 H358 0.929 . S
C353 C333 1.449 . S
C353 C352 1.399 . S
C353 H359 0.930 . S
H354 C334 0.931 . S
H355 C335 0.930 . S
H356 C343 0.931 . S
H357 C344 0.929 . S
H358 C352 0.929 . S
H359 C353 0.930 . S
Mn360 O365 2.095 . S
Mn360 O375 2.162 . S
Mn360 O376 2.297 . S
Mn360 O384 2.385 . S
Mn360 O385 2.209 . S
Mn360 O386 2.094 . S
Mn361 O366 2.121 . S
Mn361 N368 2.257 . S
Mn361 N377 2.282 . S
Mn361 O385 2.215 . S
Mn361 O387 2.117 . S
C362 O384 1.234 . S
C362 O385 1.283 . S
C363 O375 1.281 . S
C363 O376 1.236 . S
C364 O386 1.240 . S
C364 O387 1.264 . S
O365 Mn360 2.095 . S
O365 C374 1.250 . S
O366 Mn361 2.121 . S
O366 C374 1.258 . S
C367 N368 1.326 . S
C367 C371 1.460 . S
C367 H373 0.929 . S
N368 Mn361 2.257 . S
N368 C367 1.326 . S
N368 C372 1.362 . S
C369 C370 1.258 . S
C369 C372 1.431 . S
C369 C389 1.449 . S
C370 C369 1.258 . S
C370 C371 1.477 . S
C370 H390 0.931 . S
C371 C367 1.460 . S
C371 C370 1.477 . S
C371 H391 0.930 . S
C372 N368 1.362 . S
C372 C369 1.431 . S
C372 C382 1.476 . S
H373 C367 0.929 . S
C374 O365 1.250 . S
C374 O366 1.258 . S
O375 Mn360 2.162 . S
O375 C363 1.281 . S
O376 Mn360 2.297 . S
O376 C363 1.236 . S
N377 Mn361 2.282 . S
N377 C378 1.328 . S
N377 C382 1.318 . S
C378 N377 1.328 . S
C378 C379 1.457 . S
C378 H383 0.929 . S
C379 C378 1.457 . S
C379 C380 1.291 . S
C379 H392 0.931 . S
C380 C379 1.291 . S
C380 C381 1.373 . S
C380 H393 0.929 . S
C381 C380 1.373 . S
C381 C382 1.396 . S
C381 C388 1.403 . S
C382 C372 1.476 . S
C382 N377 1.318 . S
C382 C381 1.396 . S
H383 C378 0.929 . S
O384 Mn360 2.385 . S
O384 C362 1.234 . S
O385 Mn360 2.209 . S
O385 Mn361 2.215 . S
O385 C362 1.283 . S
O386 Mn360 2.094 . S
O386 C364 1.240 . S
O387 Mn361 2.117 . S
O387 C364 1.264 . S
C388 C381 1.403 . S
C388 C389 1.399 . S
C388 H394 0.929 . S
C389 C369 1.449 . S
C389 C388 1.399 . S
C389 H395 0.930 . S
H390 C370 0.931 . S
H391 C371 0.930 . S
H392 C379 0.931 . S
H393 C380 0.929 . S
H394 C388 0.929 . S
H395 C389 0.930 . S
Mn396 O401 2.095 . S
Mn396 O411 2.162 . S
Mn396 O412 2.297 . S
Mn396 O420 2.385 . S
Mn396 O421 2.209 . S
Mn396 O422 2.094 . S
Mn397 O402 2.121 . S
Mn397 N404 2.257 . S
Mn397 N413 2.282 . S
Mn397 O421 2.215 . S
Mn397 O423 2.117 . S
C398 O420 1.234 . S
C398 O421 1.283 . S
C399 O411 1.281 . S
C399 O412 1.236 . S
C400 O422 1.240 . S
C400 O423 1.264 . S
O401 Mn396 2.095 . S
O401 C410 1.250 . S
O402 Mn397 2.121 . S
O402 C410 1.258 . S
C403 N404 1.326 . S
C403 C407 1.460 . S
C403 H409 0.929 . S
N404 Mn397 2.257 . S
N404 C403 1.326 . S
N404 C408 1.362 . S
C405 C406 1.258 . S
C405 C408 1.431 . S
C405 C425 1.449 1_556 S
C406 C405 1.258 . S
C406 C407 1.477 . S
C406 H426 0.931 . S
C407 C403 1.460 . S
C407 C406 1.477 . S
C407 H427 0.930 . S
C408 N404 1.362 . S
C408 C405 1.431 . S
C408 C418 1.476 . S
H409 C403 0.929 . S
C410 O401 1.250 . S
C410 O402 1.258 . S
O411 Mn396 2.162 . S
O411 C399 1.281 . S
O412 Mn396 2.297 . S
O412 C399 1.236 . S
N413 Mn397 2.282 . S
N413 C414 1.328 . S
N413 C418 1.318 . S
C414 N413 1.328 . S
C414 C415 1.457 . S
C414 H419 0.929 . S
C415 C414 1.457 . S
C415 C416 1.291 1_556 S
C415 H428 0.931 . S
C416 C415 1.291 1_554 S
C416 C417 1.373 . S
C416 H429 0.929 . S
C417 C416 1.373 . S
C417 C418 1.396 1_554 S
C417 C424 1.403 . S
C418 C408 1.476 . S
C418 N413 1.318 . S
C418 C417 1.396 1_556 S
H419 C414 0.929 . S
O420 Mn396 2.385 . S
O420 C398 1.234 . S
O421 Mn396 2.209 . S
O421 Mn397 2.215 . S
O421 C398 1.283 . S
O422 Mn396 2.094 . S
O422 C400 1.240 . S
O423 Mn397 2.117 . S
O423 C400 1.264 . S
C424 C417 1.403 . S
C424 C425 1.399 . S
C424 H430 0.929 . S
C425 C405 1.449 1_554 S
C425 C424 1.399 . S
C425 H431 0.930 . S
H426 C406 0.931 . S
H427 C407 0.930 . S
H428 C415 0.931 . S
H429 C416 0.929 . S
H430 C424 0.929 . S
H431 C425 0.930 . S
H432 C438 0.930 . S
H433 C442 0.930 . S
H434 C447 0.929 . S
H435 C445 0.929 . S
H436 C440 0.929 . S
H437 C446 0.929 . S
C438 H432 0.930 . S
C438 C439 1.367 . S
C438 C446 1.378 . S
C439 C438 1.367 . S
C439 C447 1.433 . S
C440 H436 0.929 . S
C440 C442 1.378 . S
C440 C444 1.350 . S
C441 C444 1.463 . S
C441 C446 1.350 . S
C441 N449 1.427 . S
C442 H433 0.930 . S
C442 C440 1.378 . S
C442 C443 1.367 . S
C443 C442 1.367 . S
C443 C445 1.433 . S
C444 C440 1.350 . S
C444 C441 1.463 . S
C444 N448 1.427 . S
C445 H435 0.929 . S
C445 C443 1.433 . S
C445 N448 1.384 . S
C446 H437 0.929 . S
C446 C438 1.378 . S
C446 C441 1.350 . S
C447 H434 0.929 . S
C447 C439 1.433 . S
C447 N449 1.384 . S
N448 C444 1.427 . S
N448 C445 1.384 . S
N449 C441 1.427 . S
N449 C447 1.384 . S
H450 C456 0.930 . S
H451 C460 0.930 . S
H452 C465 0.929 . S
H453 C463 0.929 . S
H454 C458 0.929 . S
H455 C464 0.929 . S
C456 H450 0.930 . S
C456 C457 1.367 . S
C456 C464 1.378 . S
C457 C456 1.367 . S
C457 C465 1.433 . S
C458 H454 0.929 . S
C458 C460 1.378 . S
C458 C462 1.350 . S
C459 C462 1.463 . S
C459 C464 1.350 . S
C459 N467 1.427 . S
C460 H451 0.930 . S
C460 C458 1.378 . S
C460 C461 1.367 . S
C461 C460 1.367 . S
C461 C463 1.433 . S
C462 C458 1.350 . S
C462 C459 1.463 . S
C462 N466 1.427 . S
C463 H453 0.929 . S
C463 C461 1.433 . S
C463 N466 1.384 . S
C464 H455 0.929 . S
C464 C456 1.378 . S
C464 C459 1.350 . S
C465 H452 0.929 . S
C465 C457 1.433 . S
C465 N467 1.384 . S
N466 C462 1.427 . S
N466 C463 1.384 . S
N467 C459 1.427 . S
N467 C465 1.384 . S
H468 C474 0.930 . S
H469 C478 0.930 . S
H470 C483 0.929 . S
H471 C481 0.929 . S
H472 C476 0.929 . S
H473 C482 0.929 . S
C474 H468 0.930 . S
C474 C475 1.367 . S
C474 C482 1.378 . S
C475 C474 1.367 . S
C475 C483 1.433 . S
C476 H472 0.929 . S
C476 C478 1.378 . S
C476 C480 1.350 . S
C477 C480 1.463 . S
C477 C482 1.350 . S
C477 N485 1.427 . S
C478 H469 0.930 . S
C478 C476 1.378 . S
C478 C479 1.367 . S
C479 C478 1.367 . S
C479 C481 1.433 . S
C480 C476 1.350 . S
C480 C477 1.463 . S
C480 N484 1.427 . S
C481 H471 0.929 . S
C481 C479 1.433 . S
C481 N484 1.384 . S
C482 H473 0.929 . S
C482 C474 1.378 . S
C482 C477 1.350 . S
C483 H470 0.929 . S
C483 C475 1.433 . S
C483 N485 1.384 . S
N484 C480 1.427 . S
N484 C481 1.384 . S
N485 C477 1.427 . S
N485 C483 1.384 . S
H486 C492 0.930 . S
H487 C496 0.930 . S
H488 C501 0.929 . S
H489 C499 0.929 . S
H490 C494 0.929 . S
H491 C500 0.929 . S
C492 H486 0.930 . S
C492 C493 1.367 . S
C492 C500 1.378 . S
C493 C492 1.367 . S
C493 C501 1.433 . S
C494 H490 0.929 . S
C494 C496 1.378 . S
C494 C498 1.350 . S
C495 C498 1.463 . S
C495 C500 1.350 . S
C495 N503 1.427 . S
C496 H487 0.930 . S
C496 C494 1.378 . S
C496 C497 1.367 . S
C497 C496 1.367 . S
C497 C499 1.433 . S
C498 C494 1.350 . S
C498 C495 1.463 . S
C498 N502 1.427 . S
C499 H489 0.929 . S
C499 C497 1.433 . S
C499 N502 1.384 . S
C500 H491 0.929 . S
C500 C492 1.378 . S
C500 C495 1.350 . S
C501 H488 0.929 . S
C501 C493 1.433 . S
C501 N503 1.384 . S
N502 C498 1.427 . S
N502 C499 1.384 . S
N503 C495 1.427 . S
N503 C501 1.384 . S
H504 C510 0.930 . S
H505 C514 0.930 . S
H506 C519 0.929 . S
H507 C517 0.929 . S
H508 C512 0.929 . S
H509 C518 0.929 . S
C510 H504 0.930 . S
C510 C511 1.367 . S
C510 C518 1.378 . S
C511 C510 1.367 . S
C511 C519 1.433 . S
C512 H508 0.929 . S
C512 C514 1.378 . S
C512 C516 1.350 1_554 S
C513 C516 1.463 . S
C513 C518 1.350 . S
C513 N521 1.427 . S
C514 H505 0.930 . S
C514 C512 1.378 . S
C514 C515 1.367 . S
C515 C514 1.367 . S
C515 C517 1.433 . S
C516 C512 1.350 1_556 S
C516 C513 1.463 . S
C516 N520 1.427 . S
C517 H507 0.929 . S
C517 C515 1.433 . S
C517 N520 1.384 1_554 S
C518 H509 0.929 . S
C518 C510 1.378 . S
C518 C513 1.350 . S
C519 H506 0.929 . S
C519 C511 1.433 . S
C519 N521 1.384 . S
N520 C516 1.427 . S
N520 C517 1.384 1_556 S
N521 C513 1.427 . S
N521 C519 1.384 . S
H522 C528 0.930 . S
H523 C532 0.930 1_556 S
H524 C537 0.929 . S
H525 C535 0.929 . S
H526 C530 0.929 . S
H527 C536 0.929 . S
C528 H522 0.930 . S
C528 C529 1.367 . S
C528 C536 1.378 . S
C529 C528 1.367 . S
C529 C537 1.433 . S
C530 H526 0.929 . S
C530 C532 1.378 . S
C530 C534 1.350 . S
C531 C534 1.463 . S
C531 C536 1.350 . S
C531 N539 1.427 . S
C532 H523 0.930 1_554 S
C532 C530 1.378 . S
C532 C533 1.367 . S
C533 C532 1.367 . S
C533 C535 1.433 . S
C534 C530 1.350 . S
C534 C531 1.463 . S
C534 N538 1.427 . S
C535 H525 0.929 . S
C535 C533 1.433 . S
C535 N538 1.384 . S
C536 H527 0.929 . S
C536 C528 1.378 . S
C536 C531 1.350 . S
C537 H524 0.929 . S
C537 C529 1.433 . S
C537 N539 1.384 . S
N538 C534 1.427 . S
N538 C535 1.384 . S
N539 C531 1.427 . S
N539 C537 1.384 . S
H540 C546 0.930 . S
H541 C550 0.930 . S
H542 C555 0.929 . S
H543 C553 0.929 . S
H544 C548 0.929 . S
H545 C554 0.929 . S
C546 H540 0.930 . S
C546 C547 1.367 . S
C546 C554 1.378 . S
C547 C546 1.367 . S
C547 C555 1.433 . S
C548 H544 0.929 . S
C548 C550 1.378 . S
C548 C552 1.350 . S
C549 C552 1.463 . S
C549 C554 1.350 . S
C549 N557 1.427 . S
C550 H541 0.930 . S
C550 C548 1.378 . S
C550 C551 1.367 . S
C551 C550 1.367 . S
C551 C553 1.433 . S
C552 C548 1.350 . S
C552 C549 1.463 . S
C552 N556 1.427 . S
C553 H543 0.929 . S
C553 C551 1.433 . S
C553 N556 1.384 . S
C554 H545 0.929 . S
C554 C546 1.378 . S
C554 C549 1.350 . S
C555 H542 0.929 . S
C555 C547 1.433 . S
C555 N557 1.384 . S
N556 C552 1.427 . S
N556 C553 1.384 . S
N557 C549 1.427 . S
N557 C555 1.384 . S
H558 C564 0.930 . S
H559 C568 0.930 . S
H560 C573 0.929 . S
H561 C571 0.929 . S
H562 C566 0.929 . S
H563 C572 0.929 . S
C564 H558 0.930 . S
C564 C565 1.367 . S
C564 C572 1.378 . S
C565 C564 1.367 . S
C565 C573 1.433 . S
C566 H562 0.929 . S
C566 C568 1.378 . S
C566 C570 1.350 . S
C567 C570 1.463 . S
C567 C572 1.350 . S
C567 N575 1.427 . S
C568 H559 0.930 . S
C568 C566 1.378 . S
C568 C569 1.367 . S
C569 C568 1.367 . S
C569 C571 1.433 . S
C570 C566 1.350 . S
C570 C567 1.463 . S
C570 N574 1.427 . S
C571 H561 0.929 . S
C571 C569 1.433 . S
C571 N574 1.384 . S
C572 H563 0.929 . S
C572 C564 1.378 . S
C572 C567 1.350 . S
C573 H560 0.929 . S
C573 C565 1.433 . S
C573 N575 1.384 . S
N574 C570 1.427 . S
N574 C571 1.384 . S
N575 C567 1.427 . S
N575 C573 1.384 . S
H576 C582 0.930 . S
H577 C586 0.930 . S
H578 C591 0.929 . S
H579 C589 0.929 . S
H580 C584 0.929 . S
H581 C590 0.929 . S
C582 H576 0.930 . S
C582 C583 1.367 . S
C582 C590 1.378 . S
C583 C582 1.367 . S
C583 C591 1.433 . S
C584 H580 0.929 . S
C584 C586 1.378 . S
C584 C588 1.350 . S
C585 C588 1.463 . S
C585 C590 1.350 . S
C585 N593 1.427 . S
C586 H577 0.930 . S
C586 C584 1.378 . S
C586 C587 1.367 . S
C587 C586 1.367 . S
C587 C589 1.433 . S
C588 C584 1.350 . S
C588 C585 1.463 . S
C588 N592 1.427 . S
C589 H579 0.929 . S
C589 C587 1.433 . S
C589 N592 1.384 . S
C590 H581 0.929 . S
C590 C582 1.378 . S
C590 C585 1.350 . S
C591 H578 0.929 . S
C591 C583 1.433 . S
C591 N593 1.384 . S
N592 C588 1.427 . S
N592 C589 1.384 . S
N593 C585 1.427 . S
N593 C591 1.384 . S
H594 C600 0.930 . S
H595 C604 0.930 . S
H596 C609 0.929 . S
H597 C607 0.929 . S
H598 C602 0.929 . S
H599 C608 0.929 . S
C600 H594 0.930 . S
C600 C601 1.367 . S
C600 C608 1.378 . S
C601 C600 1.367 . S
C601 C609 1.433 . S
C602 H598 0.929 . S
C602 C604 1.378 . S
C602 C606 1.350 . S
C603 C606 1.463 . S
C603 C608 1.350 . S
C603 N611 1.427 . S
C604 H595 0.930 . S
C604 C602 1.378 . S
C604 C605 1.367 . S
C605 C604 1.367 . S
C605 C607 1.433 . S
C606 C602 1.350 . S
C606 C603 1.463 . S
C606 N610 1.427 . S
C607 H597 0.929 . S
C607 C605 1.433 . S
C607 N610 1.384 . S
C608 H599 0.929 . S
C608 C600 1.378 . S
C608 C603 1.350 . S
C609 H596 0.929 . S
C609 C601 1.433 . S
C609 N611 1.384 . S
N610 C606 1.427 . S
N610 C607 1.384 . S
N611 C603 1.427 . S
N611 C609 1.384 . S
H612 C618 0.930 . S
H613 C622 0.930 . S
H614 C627 0.929 . S
H615 C625 0.929 . S
H616 C620 0.929 . S
H617 C626 0.929 . S
C618 H612 0.930 . S
C618 C619 1.367 . S
C618 C626 1.378 . S
C619 C618 1.367 . S
C619 C627 1.433 . S
C620 H616 0.929 . S
C620 C622 1.378 . S
C620 C624 1.350 . S
C621 C624 1.463 . S
C621 C626 1.350 . S
C621 N629 1.427 . S
C622 H613 0.930 . S
C622 C620 1.378 . S
C622 C623 1.367 . S
C623 C622 1.367 . S
C623 C625 1.433 . S
C624 C620 1.350 . S
C624 C621 1.463 . S
C624 N628 1.427 . S
C625 H615 0.929 . S
C625 C623 1.433 . S
C625 N628 1.384 . S
C626 H617 0.929 . S
C626 C618 1.378 . S
C626 C621 1.350 . S
C627 H614 0.929 . S
C627 C619 1.433 . S
C627 N629 1.384 . S
N628 C624 1.427 . S
N628 C625 1.384 . S
N629 C621 1.427 . S
N629 C627 1.384 . S
H630 C636 0.930 . S
H631 C640 0.930 . S
H632 C645 0.929 . S
H633 C643 0.929 . S
H634 C638 0.929 . S
H635 C644 0.929 1_554 S
C636 H630 0.930 . S
C636 C637 1.367 . S
C636 C644 1.378 . S
C637 C636 1.367 . S
C637 C645 1.433 . S
C638 H634 0.929 . S
C638 C640 1.378 . S
C638 C642 1.350 . S
C639 C642 1.463 . S
C639 C644 1.350 . S
C639 N647 1.427 . S
C640 H631 0.930 . S
C640 C638 1.378 . S
C640 C641 1.367 . S
C641 C640 1.367 . S
C641 C643 1.433 1_556 S
C642 C638 1.350 . S
C642 C639 1.463 . S
C642 N646 1.427 1_556 S
C643 H633 0.929 . S
C643 C641 1.433 1_554 S
C643 N646 1.384 . S
C644 H635 0.929 1_556 S
C644 C636 1.378 . S
C644 C639 1.350 . S
C645 H632 0.929 . S
C645 C637 1.433 . S
C645 N647 1.384 . S
N646 C642 1.427 1_554 S
N646 C643 1.384 . S
N647 C639 1.427 . S
N647 C645 1.384 . S
H648 C654 0.930 . S
H649 C658 0.930 . S
H650 C663 0.929 . S
H651 C661 0.929 . S
H652 C656 0.929 . S
H653 C662 0.929 . S
C654 H648 0.930 . S
C654 C655 1.367 . S
C654 C662 1.378 . S
C655 C654 1.367 . S
C655 C663 1.433 . S
C656 H652 0.929 . S
C656 C658 1.378 . S
C656 C660 1.350 . S
C657 C660 1.463 . S
C657 C662 1.350 . S
C657 N665 1.427 . S
C658 H649 0.930 . S
C658 C656 1.378 . S
C658 C659 1.367 . S
C659 C658 1.367 . S
C659 C661 1.433 . S
C660 C656 1.350 . S
C660 C657 1.463 . S
C660 N664 1.427 . S
C661 H651 0.929 . S
C661 C659 1.433 . S
C661 N664 1.384 . S
C662 H653 0.929 . S
C662 C654 1.378 . S
C662 C657 1.350 . S
C663 H650 0.929 . S
C663 C655 1.433 . S
C663 N665 1.384 . S
N664 C660 1.427 . S
N664 C661 1.384 . S
N665 C657 1.427 . S
N665 C663 1.384 . S
H666 C672 0.930 . S
H667 C676 0.930 . S
H668 C681 0.929 . S
H669 C679 0.929 . S
H670 C674 0.929 . S
H671 C680 0.929 . S
C672 H666 0.930 . S
C672 C673 1.367 . S
C672 C680 1.378 . S
C673 C672 1.367 . S
C673 C681 1.433 . S
C674 H670 0.929 . S
C674 C676 1.378 . S
C674 C678 1.350 . S
C675 C678 1.463 . S
C675 C680 1.350 1_556 S
C675 N683 1.427 . S
C676 H667 0.930 . S
C676 C674 1.378 . S
C676 C677 1.367 . S
C677 C676 1.367 . S
C677 C679 1.433 . S
C678 C674 1.350 . S
C678 C675 1.463 . S
C678 N682 1.427 . S
C679 H669 0.929 . S
C679 C677 1.433 . S
C679 N682 1.384 . S
C680 H671 0.929 . S
C680 C672 1.378 . S
C680 C675 1.350 1_554 S
C681 H668 0.929 . S
C681 C673 1.433 . S
C681 N683 1.384 1_554 S
N682 C678 1.427 . S
N682 C679 1.384 . S
N683 C675 1.427 . S
N683 C681 1.384 1_556 S
H684 C690 0.930 . S
H685 C694 0.930 . S
H686 C699 0.929 . S
H687 C697 0.929 . S
H688 C692 0.929 . S
H689 C698 0.929 . S
C690 H684 0.930 . S
C690 C691 1.367 . S
C690 C698 1.378 . S
C691 C690 1.367 . S
C691 C699 1.433 . S
C692 H688 0.929 . S
C692 C694 1.378 1_554 S
C692 C696 1.350 . S
C693 C696 1.463 . S
C693 C698 1.350 . S
C693 N701 1.427 . S
C694 H685 0.930 . S
C694 C692 1.378 1_556 S
C694 C695 1.367 1_556 S
C695 C694 1.367 1_554 S
C695 C697 1.433 . S
C696 C692 1.350 . S
C696 C693 1.463 . S
C696 N700 1.427 . S
C697 H687 0.929 . S
C697 C695 1.433 . S
C697 N700 1.384 . S
C698 H689 0.929 . S
C698 C690 1.378 . S
C698 C693 1.350 . S
C699 H686 0.929 . S
C699 C691 1.433 . S
C699 N701 1.384 . S
N700 C696 1.427 . S
N700 C697 1.384 . S
N701 C693 1.427 . S
N701 C699 1.384 . S
H702 C708 0.930 . S
H703 C712 0.930 . S
H704 C717 0.929 . S
H705 C715 0.929 . S
H706 C710 0.929 . S
H707 C716 0.929 . S
C708 H702 0.930 . S
C708 C709 1.367 . S
C708 C716 1.378 . S
C709 C708 1.367 . S
C709 C717 1.433 . S
C710 H706 0.929 . S
C710 C712 1.378 . S
C710 C714 1.350 . S
C711 C714 1.463 . S
C711 C716 1.350 . S
C711 N719 1.427 . S
C712 H703 0.930 . S
C712 C710 1.378 . S
C712 C713 1.367 . S
C713 C712 1.367 . S
C713 C715 1.433 . S
C714 C710 1.350 . S
C714 C711 1.463 . S
C714 N718 1.427 . S
C715 H705 0.929 . S
C715 C713 1.433 . S
C715 N718 1.384 . S
C716 H707 0.929 . S
C716 C708 1.378 . S
C716 C711 1.350 . S
C717 H704 0.929 . S
C717 C709 1.433 . S
C717 N719 1.384 . S
N718 C714 1.427 . S
N718 C715 1.384 . S
N719 C711 1.427 . S
N719 C717 1.384 . S
H720 C726 0.930 . S
H721 C730 0.930 . S
H722 C735 0.929 . S
H723 C733 0.929 . S
H724 C728 0.929 . S
H725 C734 0.929 . S
C726 H720 0.930 . S
C726 C727 1.367 . S
C726 C734 1.378 . S
C727 C726 1.367 . S
C727 C735 1.433 . S
C728 H724 0.929 . S
C728 C730 1.378 . S
C728 C732 1.350 . S
C729 C732 1.463 . S
C729 C734 1.350 . S
C729 N737 1.427 . S
C730 H721 0.930 . S
C730 C728 1.378 . S
C730 C731 1.367 . S
C731 C730 1.367 . S
C731 C733 1.433 . S
C732 C728 1.350 . S
C732 C729 1.463 . S
C732 N736 1.427 . S
C733 H723 0.929 . S
C733 C731 1.433 . S
C733 N736 1.384 . S
C734 H725 0.929 . S
C734 C726 1.378 . S
C734 C729 1.350 . S
C735 H722 0.929 . S
C735 C727 1.433 . S
C735 N737 1.384 . S
N736 C732 1.427 . S
N736 C733 1.384 . S
N737 C729 1.427 . S
N737 C735 1.384 . S
H738 C744 0.930 . S
H739 C748 0.930 . S
H740 C753 0.929 . S
H741 C751 0.929 . S
H742 C746 0.929 . S
H743 C752 0.929 . S
C744 H738 0.930 . S
C744 C745 1.367 . S
C744 C752 1.378 . S
C745 C744 1.367 . S
C745 C753 1.433 . S
C746 H742 0.929 . S
C746 C748 1.378 . S
C746 C750 1.350 . S
C747 C750 1.463 . S
C747 C752 1.350 . S
C747 N755 1.427 . S
C748 H739 0.930 . S
C748 C746 1.378 . S
C748 C749 1.367 . S
C749 C748 1.367 . S
C749 C751 1.433 . S
C750 C746 1.350 . S
C750 C747 1.463 . S
C750 N754 1.427 . S
C751 H741 0.929 . S
C751 C749 1.433 . S
C751 N754 1.384 . S
C752 H743 0.929 . S
C752 C744 1.378 . S
C752 C747 1.350 . S
C753 H740 0.929 . S
C753 C745 1.433 . S
C753 N755 1.384 . S
N754 C750 1.427 . S
N754 C751 1.384 . S
N755 C747 1.427 . S
N755 C753 1.384 . S
H756 C762 0.930 . S
H757 C766 0.930 . S
H758 C771 0.929 . S
H759 C769 0.929 . S
H760 C764 0.929 . S
H761 C770 0.929 . S
C762 H756 0.930 . S
C762 C763 1.367 . S
C762 C770 1.378 . S
C763 C762 1.367 . S
C763 C771 1.433 . S
C764 H760 0.929 . S
C764 C766 1.378 . S
C764 C768 1.350 . S
C765 C768 1.463 1_455 S
C765 C770 1.350 . S
C765 N773 1.427 . S
C766 H757 0.930 . S
C766 C764 1.378 . S
C766 C767 1.367 . S
C767 C766 1.367 . S
C767 C769 1.433 . S
C768 C764 1.350 . S
C768 C765 1.463 1_655 S
C768 N772 1.427 . S
C769 H759 0.929 . S
C769 C767 1.433 . S
C769 N772 1.384 . S
C770 H761 0.929 . S
C770 C762 1.378 . S
C770 C765 1.350 . S
C771 H758 0.929 . S
C771 C763 1.433 . S
C771 N773 1.384 . S
N772 C768 1.427 . S
N772 C769 1.384 . S
N773 C765 1.427 . S
N773 C771 1.384 . S
H774 C780 0.930 . S
H775 C784 0.930 . S
H776 C789 0.929 . S
H777 C787 0.929 . S
H778 C782 0.929 . S
H779 C788 0.929 . S
C780 H774 0.930 . S
C780 C781 1.367 . S
C780 C788 1.378 . S
C781 C780 1.367 . S
C781 C789 1.433 . S
C782 H778 0.929 . S
C782 C784 1.378 . S
C782 C786 1.350 . S
C783 C786 1.463 1_565 S
C783 C788 1.350 1_554 S
C783 N791 1.427 . S
C784 H775 0.930 . S
C784 C782 1.378 . S
C784 C785 1.367 . S
C785 C784 1.367 . S
C785 C787 1.433 . S
C786 C782 1.350 . S
C786 C783 1.463 1_545 S
C786 N790 1.427 . S
C787 H777 0.929 . S
C787 C785 1.433 . S
C787 N790 1.384 . S
C788 H779 0.929 . S
C788 C780 1.378 . S
C788 C783 1.350 1_556 S
C789 H776 0.929 . S
C789 C781 1.433 . S
C789 N791 1.384 1_556 S
N790 C786 1.427 . S
N790 C787 1.384 . S
N791 C783 1.427 . S
N791 C789 1.384 1_554 S
H792 C798 0.930 . S
H793 C802 0.930 . S
H794 C807 0.929 . S
H795 C805 0.929 . S
H796 C800 0.929 . S
H797 C806 0.929 . S
C798 H792 0.930 . S
C798 C799 1.367 . S
C798 C806 1.378 . S
C799 C798 1.367 . S
C799 C807 1.433 . S
C800 H796 0.929 . S
C800 C802 1.378 . S
C800 C804 1.350 . S
C801 C804 1.463 . S
C801 C806 1.350 . S
C801 N809 1.427 . S
C802 H793 0.930 . S
C802 C800 1.378 . S
C802 C803 1.367 . S
C803 C802 1.367 . S
C803 C805 1.433 . S
C804 C800 1.350 . S
C804 C801 1.463 . S
C804 N808 1.427 . S
C805 H795 0.929 . S
C805 C803 1.433 . S
C805 N808 1.384 . S
C806 H797 0.929 . S
C806 C798 1.378 . S
C806 C801 1.350 . S
C807 H794 0.929 . S
C807 C799 1.433 . S
C807 N809 1.384 . S
N808 C804 1.427 . S
N808 C805 1.384 . S
N809 C801 1.427 . S
N809 C807 1.384 . S
H810 C816 0.930 . S
H811 C820 0.930 . S
H812 C825 0.929 . S
H813 C823 0.929 . S
H814 C818 0.929 . S
H815 C824 0.929 . S
C816 H810 0.930 . S
C816 C817 1.367 . S
C816 C824 1.378 . S
C817 C816 1.367 . S
C817 C825 1.433 . S
C818 H814 0.929 . S
C818 C820 1.378 . S
C818 C822 1.350 . S
C819 C822 1.463 1_455 S
C819 C824 1.350 . S
C819 N827 1.427 . S
C820 H811 0.930 . S
C820 C818 1.378 . S
C820 C821 1.367 . S
C821 C820 1.367 . S
C821 C823 1.433 . S
C822 C818 1.350 . S
C822 C819 1.463 1_655 S
C822 N826 1.427 . S
C823 H813 0.929 . S
C823 C821 1.433 . S
C823 N826 1.384 . S
C824 H815 0.929 . S
C824 C816 1.378 . S
C824 C819 1.350 . S
C825 H812 0.929 . S
C825 C817 1.433 . S
C825 N827 1.384 . S
N826 C822 1.427 . S
N826 C823 1.384 . S
N827 C819 1.427 . S
N827 C825 1.384 . S
H828 C834 0.930 . S
H829 C838 0.930 . S
H830 C843 0.929 . S
H831 C841 0.929 . S
H832 C836 0.929 1_545 S
H833 C842 0.929 1_565 S
C834 H828 0.930 . S
C834 C835 1.367 . S
C834 C842 1.378 . S
C835 C834 1.367 . S
C835 C843 1.433 . S
C836 H832 0.929 1_565 S
C836 C838 1.378 . S
C836 C840 1.350 . S
C837 C840 1.463 1_545 S
C837 C842 1.350 . S
C837 N845 1.427 . S
C838 H829 0.930 . S
C838 C836 1.378 . S
C838 C839 1.367 . S
C839 C838 1.367 . S
C839 C841 1.433 . S
C840 C836 1.350 . S
C840 C837 1.463 1_565 S
C840 N844 1.427 . S
C841 H831 0.929 . S
C841 C839 1.433 . S
C841 N844 1.384 . S
C842 H833 0.929 1_545 S
C842 C834 1.378 . S
C842 C837 1.350 . S
C843 H830 0.929 . S
C843 C835 1.433 . S
C843 N845 1.384 . S
N844 C840 1.427 . S
N844 C841 1.384 . S
N845 C837 1.427 . S
N845 C843 1.384 . S
H846 C852 0.930 . S
H847 C856 0.930 . S
H848 C861 0.929 . S
H849 C859 0.929 . S
H850 C854 0.929 . S
H851 C860 0.929 . S
C852 H846 0.930 . S
C852 C853 1.367 . S
C852 C860 1.378 . S
C853 C852 1.367 . S
C853 C861 1.433 . S
C854 H850 0.929 . S
C854 C856 1.378 . S
C854 C858 1.350 . S
C855 C858 1.463 . S
C855 C860 1.350 . S
C855 N863 1.427 . S
C856 H847 0.930 . S
C856 C854 1.378 . S
C856 C857 1.367 . S
C857 C856 1.367 . S
C857 C859 1.433 . S
C858 C854 1.350 . S
C858 C855 1.463 . S
C858 N862 1.427 . S
C859 H849 0.929 . S
C859 C857 1.433 . S
C859 N862 1.384 . S
C860 H851 0.929 . S
C860 C852 1.378 . S
C860 C855 1.350 . S
C861 H848 0.929 . S
C861 C853 1.433 . S
C861 N863 1.384 . S
N862 C858 1.427 . S
N862 C859 1.384 . S
N863 C855 1.427 . S
N863 C861 1.384 . S
C439 C3 1.296 . S
C443 C363 1.296 . S
C457 C399 1.294 . S
C461 C39 1.298 . S
C475 C75 1.294 . S
C479 C219 1.298 . S
C493 C111 1.294 . S
C497 C255 1.298 . S
C511 C147 1.294 . S
C515 C291 1.297 . S
C529 C327 1.293 . S
C533 C183 1.297 1_554 S
C547 C14 1.546 . S
C551 C302 1.549 . S
C565 C50 1.559 . S
C569 C338 1.556 . S
C583 C374 1.548 . S
C587 C86 1.547 . S
C601 C122 1.556 . S
C605 C410 1.551 . S
C619 C158 1.549 . S
C623 C230 1.553 . S
C637 C194 1.557 . S
C641 C266 1.559 1_556 S
C655 C362 1.437 . S
C659 C2 1.432 . S
C673 C38 1.434 . S
C677 C398 1.433 . S
C691 C74 1.434 . S
C695 C218 1.434 1_554 S
C709 C110 1.437 . S
C713 C254 1.432 . S
C727 C290 1.435 . S
C731 C146 1.435 . S
C745 C182 1.432 . S
C749 C326 1.437 . S
C763 C4 1.360 . S
C767 C400 1.365 . S
C781 C220 1.359 . S
C785 C40 1.364 . S
C799 C256 1.364 . S
C803 C76 1.358 . S
C817 C292 1.363 . S
C821 C112 1.356 . S
C835 C328 1.363 . S
C839 C148 1.365 . S
C853 C364 1.364 . S
C857 C184 1.364 . S
