# Generated by pormake.
# Topology unx, (4)-cn, num edge types: 1
# Building blocks:
#     Node 0, Type 0, BuildingBlock: CEKHIL_clean_sbu_0, # of connection points: 4
#     Node 1, Type 0, BuildingBlock: CEKHIL_clean_sbu_0, # of connection points: 4
#     Node 2, Type 0, BuildingBlock: CEKHIL_clean_sbu_0, # of connection points: 4
#     Node 3, Type 0, BuildingBlock: CEKHIL_clean_sbu_0, # of connection points: 4
#     Node 4, Type 0, BuildingBlock: CEKHIL_clean_sbu_0, # of connection points: 4
#     Node 5, Type 0, BuildingBlock: CEKHIL_clean_sbu_0, # of connection points: 4
#     Node 6, Type 0, BuildingBlock: CEKHIL_clean_sbu_0, # of connection points: 4
#     Node 7, Type 0, BuildingBlock: CEKHIL_clean_sbu_0, # of connection points: 4
#     Node 8, Type 0, BuildingBlock: CEKHIL_clean_sbu_0, # of connection points: 4
#     Node 9, Type 0, BuildingBlock: CEKHIL_clean_sbu_0, # of connection points: 4
#     Node 10, Type 0, BuildingBlock: CEKHIL_clean_sbu_0, # of connection points: 4
#     Node 11, Type 0, BuildingBlock: CEKHIL_clean_sbu_0, # of connection points: 4
#     Node 12, Type 0, BuildingBlock: CEKHIL_clean_sbu_0, # of connection points: 4
#     Node 13, Type 0, BuildingBlock: CEKHIL_clean_sbu_0, # of connection points: 4
#     Node 14, Type 0, BuildingBlock: CEKHIL_clean_sbu_0, # of connection points: 4
#     Node 15, Type 0, BuildingBlock: CEKHIL_clean_sbu_0, # of connection points: 4
#     Node 16, Type 0, BuildingBlock: CEKHIL_clean_sbu_0, # of connection points: 4
#     Node 17, Type 0, BuildingBlock: CEKHIL_clean_sbu_0, # of connection points: 4
#     Node 18, Type 0, BuildingBlock: CEKHIL_clean_sbu_0, # of connection points: 4
#     Node 19, Type 0, BuildingBlock: CEKHIL_clean_sbu_0, # of connection points: 4
#     Node 20, Type 0, BuildingBlock: CEKHIL_clean_sbu_0, # of connection points: 4
#     Node 21, Type 0, BuildingBlock: CEKHIL_clean_sbu_0, # of connection points: 4
#     Node 22, Type 0, BuildingBlock: CEKHIL_clean_sbu_0, # of connection points: 4
#     Node 23, Type 0, BuildingBlock: CEKHIL_clean_sbu_0, # of connection points: 4
#     Node 24, Type 0, BuildingBlock: CEKHIL_clean_sbu_0, # of connection points: 4
#     Node 25, Type 0, BuildingBlock: CEKHIL_clean_sbu_0, # of connection points: 4
#     Node 26, Type 0, BuildingBlock: CEKHIL_clean_sbu_0, # of connection points: 4
#     Node 27, Type 0, BuildingBlock: CEKHIL_clean_sbu_0, # of connection points: 4
#     Node 28, Type 0, BuildingBlock: CEKHIL_clean_sbu_0, # of connection points: 4
#     Node 29, Type 0, BuildingBlock: CEKHIL_clean_sbu_0, # of connection points: 4
#     Node 30, Type 0, BuildingBlock: CEKHIL_clean_sbu_0, # of connection points: 4
#     Node 31, Type 0, BuildingBlock: CEKHIL_clean_sbu_0, # of connection points: 4
#     Node 32, Type 0, BuildingBlock: CEKHIL_clean_sbu_0, # of connection points: 4
#     Node 33, Type 0, BuildingBlock: CEKHIL_clean_sbu_0, # of connection points: 4
#     Node 34, Type 0, BuildingBlock: CEKHIL_clean_sbu_0, # of connection points: 4
#     Node 35, Type 0, BuildingBlock: CEKHIL_clean_sbu_0, # of connection points: 4
#     Node 36, Type 0, BuildingBlock: CEKHIL_clean_sbu_0, # of connection points: 4
#     Node 37, Type 0, BuildingBlock: CEKHIL_clean_sbu_0, # of connection points: 4
#     Node 38, Type 0, BuildingBlock: CEKHIL_clean_sbu_0, # of connection points: 4
#     Node 39, Type 0, BuildingBlock: CEKHIL_clean_sbu_0, # of connection points: 4
#     Node 40, Type 0, BuildingBlock: CEKHIL_clean_sbu_0, # of connection points: 4
#     Node 41, Type 0, BuildingBlock: CEKHIL_clean_sbu_0, # of connection points: 4
#     Node 42, Type 0, BuildingBlock: CEKHIL_clean_sbu_0, # of connection points: 4
#     Node 43, Type 0, BuildingBlock: CEKHIL_clean_sbu_0, # of connection points: 4
#     Node 44, Type 0, BuildingBlock: CEKHIL_clean_sbu_0, # of connection points: 4
#     Node 45, Type 0, BuildingBlock: CEKHIL_clean_sbu_0, # of connection points: 4
#     Node 46, Type 0, BuildingBlock: CEKHIL_clean_sbu_0, # of connection points: 4
#     Node 47, Type 0, BuildingBlock: CEKHIL_clean_sbu_0, # of connection points: 4
#     Edge 48, Type (0, 0), BuildingBlock: XUDNAN_clean_linker_2, # of connection points: 2
#     Edge 49, Type (0, 0), BuildingBlock: XUDNAN_clean_linker_2, # of connection points: 2
#     Edge 50, Type (0, 0), BuildingBlock: XUDNAN_clean_linker_2, # of connection points: 2
#     Edge 51, Type (0, 0), BuildingBlock: XUDNAN_clean_linker_2, # of connection points: 2
#     Edge 52, Type (0, 0), BuildingBlock: XUDNAN_clean_linker_2, # of connection points: 2
#     Edge 53, Type (0, 0), BuildingBlock: XUDNAN_clean_linker_2, # of connection points: 2
#     Edge 54, Type (0, 0), BuildingBlock: XUDNAN_clean_linker_2, # of connection points: 2
#     Edge 55, Type (0, 0), BuildingBlock: XUDNAN_clean_linker_2, # of connection points: 2
#     Edge 56, Type (0, 0), BuildingBlock: XUDNAN_clean_linker_2, # of connection points: 2
#     Edge 57, Type (0, 0), BuildingBlock: XUDNAN_clean_linker_2, # of connection points: 2
#     Edge 58, Type (0, 0), BuildingBlock: XUDNAN_clean_linker_2, # of connection points: 2
#     Edge 59, Type (0, 0), BuildingBlock: XUDNAN_clean_linker_2, # of connection points: 2
#     Edge 60, Type (0, 0), BuildingBlock: XUDNAN_clean_linker_2, # of connection points: 2
#     Edge 61, Type (0, 0), BuildingBlock: XUDNAN_clean_linker_2, # of connection points: 2
#     Edge 62, Type (0, 0), BuildingBlock: XUDNAN_clean_linker_2, # of connection points: 2
#     Edge 63, Type (0, 0), BuildingBlock: XUDNAN_clean_linker_2, # of connection points: 2
#     Edge 64, Type (0, 0), BuildingBlock: XUDNAN_clean_linker_2, # of connection points: 2
#     Edge 65, Type (0, 0), BuildingBlock: XUDNAN_clean_linker_2, # of connection points: 2
#     Edge 66, Type (0, 0), BuildingBlock: XUDNAN_clean_linker_2, # of connection points: 2
#     Edge 67, Type (0, 0), BuildingBlock: XUDNAN_clean_linker_2, # of connection points: 2
#     Edge 68, Type (0, 0), BuildingBlock: XUDNAN_clean_linker_2, # of connection points: 2
#     Edge 69, Type (0, 0), BuildingBlock: XUDNAN_clean_linker_2, # of connection points: 2
#     Edge 70, Type (0, 0), BuildingBlock: XUDNAN_clean_linker_2, # of connection points: 2
#     Edge 71, Type (0, 0), BuildingBlock: XUDNAN_clean_linker_2, # of connection points: 2
#     Edge 72, Type (0, 0), BuildingBlock: XUDNAN_clean_linker_2, # of connection points: 2
#     Edge 73, Type (0, 0), BuildingBlock: XUDNAN_clean_linker_2, # of connection points: 2
#     Edge 74, Type (0, 0), BuildingBlock: XUDNAN_clean_linker_2, # of connection points: 2
#     Edge 75, Type (0, 0), BuildingBlock: XUDNAN_clean_linker_2, # of connection points: 2
#     Edge 76, Type (0, 0), BuildingBlock: XUDNAN_clean_linker_2, # of connection points: 2
#     Edge 77, Type (0, 0), BuildingBlock: XUDNAN_clean_linker_2, # of connection points: 2
#     Edge 78, Type (0, 0), BuildingBlock: XUDNAN_clean_linker_2, # of connection points: 2
#     Edge 79, Type (0, 0), BuildingBlock: XUDNAN_clean_linker_2, # of connection points: 2
#     Edge 80, Type (0, 0), BuildingBlock: XUDNAN_clean_linker_2, # of connection points: 2
#     Edge 81, Type (0, 0), BuildingBlock: XUDNAN_clean_linker_2, # of connection points: 2
#     Edge 82, Type (0, 0), BuildingBlock: XUDNAN_clean_linker_2, # of connection points: 2
#     Edge 83, Type (0, 0), BuildingBlock: XUDNAN_clean_linker_2, # of connection points: 2
#     Edge 84, Type (0, 0), BuildingBlock: XUDNAN_clean_linker_2, # of connection points: 2
#     Edge 85, Type (0, 0), BuildingBlock: XUDNAN_clean_linker_2, # of connection points: 2
#     Edge 86, Type (0, 0), BuildingBlock: XUDNAN_clean_linker_2, # of connection points: 2
#     Edge 87, Type (0, 0), BuildingBlock: XUDNAN_clean_linker_2, # of connection points: 2
#     Edge 88, Type (0, 0), BuildingBlock: XUDNAN_clean_linker_2, # of connection points: 2
#     Edge 89, Type (0, 0), BuildingBlock: XUDNAN_clean_linker_2, # of connection points: 2
#     Edge 90, Type (0, 0), BuildingBlock: XUDNAN_clean_linker_2, # of connection points: 2
#     Edge 91, Type (0, 0), BuildingBlock: XUDNAN_clean_linker_2, # of connection points: 2
#     Edge 92, Type (0, 0), BuildingBlock: XUDNAN_clean_linker_2, # of connection points: 2
#     Edge 93, Type (0, 0), BuildingBlock: XUDNAN_clean_linker_2, # of connection points: 2
#     Edge 94, Type (0, 0), BuildingBlock: XUDNAN_clean_linker_2, # of connection points: 2
#     Edge 95, Type (0, 0), BuildingBlock: XUDNAN_clean_linker_2, # of connection points: 2
#     Edge 96, Type (0, 0), BuildingBlock: XUDNAN_clean_linker_2, # of connection points: 2
#     Edge 97, Type (0, 0), BuildingBlock: XUDNAN_clean_linker_2, # of connection points: 2
#     Edge 98, Type (0, 0), BuildingBlock: XUDNAN_clean_linker_2, # of connection points: 2
#     Edge 99, Type (0, 0), BuildingBlock: XUDNAN_clean_linker_2, # of connection points: 2
#     Edge 100, Type (0, 0), BuildingBlock: XUDNAN_clean_linker_2, # of connection points: 2
#     Edge 101, Type (0, 0), BuildingBlock: XUDNAN_clean_linker_2, # of connection points: 2
#     Edge 102, Type (0, 0), BuildingBlock: XUDNAN_clean_linker_2, # of connection points: 2
#     Edge 103, Type (0, 0), BuildingBlock: XUDNAN_clean_linker_2, # of connection points: 2
#     Edge 104, Type (0, 0), BuildingBlock: XUDNAN_clean_linker_2, # of connection points: 2
#     Edge 105, Type (0, 0), BuildingBlock: XUDNAN_clean_linker_2, # of connection points: 2
#     Edge 106, Type (0, 0), BuildingBlock: XUDNAN_clean_linker_2, # of connection points: 2
#     Edge 107, Type (0, 0), BuildingBlock: XUDNAN_clean_linker_2, # of connection points: 2
#     Edge 108, Type (0, 0), BuildingBlock: XUDNAN_clean_linker_2, # of connection points: 2
#     Edge 109, Type (0, 0), BuildingBlock: XUDNAN_clean_linker_2, # of connection points: 2
#     Edge 110, Type (0, 0), BuildingBlock: XUDNAN_clean_linker_2, # of connection points: 2
#     Edge 111, Type (0, 0), BuildingBlock: XUDNAN_clean_linker_2, # of connection points: 2
#     Edge 112, Type (0, 0), BuildingBlock: XUDNAN_clean_linker_2, # of connection points: 2
#     Edge 113, Type (0, 0), BuildingBlock: XUDNAN_clean_linker_2, # of connection points: 2
#     Edge 114, Type (0, 0), BuildingBlock: XUDNAN_clean_linker_2, # of connection points: 2
#     Edge 115, Type (0, 0), BuildingBlock: XUDNAN_clean_linker_2, # of connection points: 2
#     Edge 116, Type (0, 0), BuildingBlock: XUDNAN_clean_linker_2, # of connection points: 2
#     Edge 117, Type (0, 0), BuildingBlock: XUDNAN_clean_linker_2, # of connection points: 2
#     Edge 118, Type (0, 0), BuildingBlock: XUDNAN_clean_linker_2, # of connection points: 2
#     Edge 119, Type (0, 0), BuildingBlock: XUDNAN_clean_linker_2, # of connection points: 2
#     Edge 120, Type (0, 0), BuildingBlock: XUDNAN_clean_linker_2, # of connection points: 2
#     Edge 121, Type (0, 0), BuildingBlock: XUDNAN_clean_linker_2, # of connection points: 2
#     Edge 122, Type (0, 0), BuildingBlock: XUDNAN_clean_linker_2, # of connection points: 2
#     Edge 123, Type (0, 0), BuildingBlock: XUDNAN_clean_linker_2, # of connection points: 2
#     Edge 124, Type (0, 0), BuildingBlock: XUDNAN_clean_linker_2, # of connection points: 2
#     Edge 125, Type (0, 0), BuildingBlock: XUDNAN_clean_linker_2, # of connection points: 2
#     Edge 126, Type (0, 0), BuildingBlock: XUDNAN_clean_linker_2, # of connection points: 2
#     Edge 127, Type (0, 0), BuildingBlock: XUDNAN_clean_linker_2, # of connection points: 2
#     Edge 128, Type (0, 0), BuildingBlock: XUDNAN_clean_linker_2, # of connection points: 2
#     Edge 129, Type (0, 0), BuildingBlock: XUDNAN_clean_linker_2, # of connection points: 2
#     Edge 130, Type (0, 0), BuildingBlock: XUDNAN_clean_linker_2, # of connection points: 2
#     Edge 131, Type (0, 0), BuildingBlock: XUDNAN_clean_linker_2, # of connection points: 2
#     Edge 132, Type (0, 0), BuildingBlock: XUDNAN_clean_linker_2, # of connection points: 2
#     Edge 133, Type (0, 0), BuildingBlock: XUDNAN_clean_linker_2, # of connection points: 2
#     Edge 134, Type (0, 0), BuildingBlock: XUDNAN_clean_linker_2, # of connection points: 2
#     Edge 135, Type (0, 0), BuildingBlock: XUDNAN_clean_linker_2, # of connection points: 2
#     Edge 136, Type (0, 0), BuildingBlock: XUDNAN_clean_linker_2, # of connection points: 2
#     Edge 137, Type (0, 0), BuildingBlock: XUDNAN_clean_linker_2, # of connection points: 2
#     Edge 138, Type (0, 0), BuildingBlock: XUDNAN_clean_linker_2, # of connection points: 2
#     Edge 139, Type (0, 0), BuildingBlock: XUDNAN_clean_linker_2, # of connection points: 2
#     Edge 140, Type (0, 0), BuildingBlock: XUDNAN_clean_linker_2, # of connection points: 2
#     Edge 141, Type (0, 0), BuildingBlock: XUDNAN_clean_linker_2, # of connection points: 2
#     Edge 142, Type (0, 0), BuildingBlock: XUDNAN_clean_linker_2, # of connection points: 2
#     Edge 143, Type (0, 0), BuildingBlock: XUDNAN_clean_linker_2, # of connection points: 2
# Relax obj value: 0.549
# Max RMSD: 0.348
# Mean RMSD: 0.245
data_MOF--net-unx--node1-CEKHIL_clean_sbu_0--edge1-XUDNAN_clean_linker_2
_symmetry_space_group_name_H-M    P1
_symmetry_Int_Tables_number       1
_symmetry_cell_setting            triclinic
loop_
_symmetry_equiv_pos_as_xyz
'x, y, z'
_cell_length_a     52.768529
_cell_length_b     50.993597
_cell_length_c     53.197213
_cell_angle_alpha  89.991174
_cell_angle_beta   89.996839
_cell_angle_gamma 91.120594
loop_
_atom_site_label
_atom_site_type_symbol
_atom_site_fract_x
_atom_site_fract_y
_atom_site_fract_z
_atom_type_partial_charge
Co0 Co 0.12545 0.50128 0.28489 0.0
O1 O 0.15424 0.49906 0.30749 0.0
O2 O 0.1504 0.52757 0.27635 0.0
C3 C 0.09313 0.49815 0.31205 0.0
O4 O 0.0997 0.51107 0.25851 0.0
Co5 Co 0.08758 0.45557 0.27526 0.0
O6 O 0.0678 0.48146 0.25568 0.0
C7 C 0.13828 0.45301 0.2533 0.0
C8 C 0.16434 0.51793 0.29406 0.0
C9 C 0.07796 0.50354 0.25003 0.0
O10 O 0.14247 0.47642 0.26135 0.0
O11 O 0.11774 0.44012 0.25783 0.0
O12 O 0.1055 0.52031 0.30927 0.0
O13 O 0.10295 0.47795 0.30126 0.0
Co14 Co 0.67383 0.20205 0.51996 0.0
O15 O 0.69913 0.21884 0.54117 0.0
O16 O 0.6579 0.22647 0.54195 0.0
C17 C 0.68533 0.15992 0.52247 0.0
O18 O 0.64208 0.18985 0.50166 0.0
Co19 Co 0.68804 0.17718 0.46934 0.0
O20 O 0.65154 0.16695 0.46704 0.0
C21 C 0.68724 0.23437 0.47289 0.0
C22 C 0.68058 0.23296 0.54949 0.0
C23 C 0.63545 0.17633 0.48229 0.0
O24 O 0.67881 0.2313 0.49527 0.0
O25 O 0.69362 0.21507 0.45903 0.0
O26 O 0.6721 0.17045 0.54033 0.0
O27 O 0.69421 0.17602 0.5056 0.0
Co28 Co 0.87787 0.96523 0.59001 0.0
O29 O 0.85033 0.98588 0.57752 0.0
O30 O 0.85018 0.96383 0.61351 0.0
C31 C 0.91083 0.99324 0.58424 0.0
O32 O 0.90277 0.94239 0.60906 0.0
Co33 Co 0.91892 0.94717 0.55218 0.0
O34 O 0.93653 0.93739 0.58364 0.0
C35 C 0.87029 0.91876 0.55402 0.0
C36 C 0.83839 0.97895 0.59788 0.0
C37 C 0.92556 0.93488 0.60489 0.0
O38 O 0.86365 0.93306 0.57264 0.0
O39 O 0.89093 0.92226 0.54178 0.0
O40 O 0.89531 0.99625 0.60292 0.0
O41 O 0.90273 0.97718 0.56702 0.0
Co42 Co 0.234 0.96581 0.92988 0.0
O43 O 0.22724 0.92937 0.93782 0.0
O44 O 0.2652 0.94856 0.93854 0.0
C45 C 0.2032 0.98565 0.95178 0.0
O46 O 0.24753 0.00319 0.92376 0.0
Co47 Co 0.19385 0.99436 0.89787 0.0
O48 O 0.21582 0.02528 0.90548 0.0
C49 C 0.22974 0.96118 0.87204 0.0
C50 C 0.25145 0.92726 0.9413 0.0
C51 C 0.23771 0.02457 0.91557 0.0
O52 O 0.24042 0.95684 0.89335 0.0
O53 O 0.20926 0.97396 0.86997 0.0
O54 O 0.2232 0.97717 0.96326 0.0
O55 O 0.20013 0.97642 0.92928 0.0
Co56 Co 0.11024 0.46869 0.86482 0.0
O57 O 0.08726 0.49764 0.86303 0.0
O58 O 0.08659 0.46678 0.89237 0.0
C59 C 0.14666 0.49058 0.85751 0.0
O60 O 0.13101 0.43664 0.87355 0.0
Co61 Co 0.13939 0.4505 0.81756 0.0
O62 O 0.15596 0.4259 0.84093 0.0
C63 C 0.08583 0.43618 0.82236 0.0
C64 C 0.07642 0.48758 0.88286 0.0
C65 C 0.14832 0.42262 0.86344 0.0
O66 O 0.08606 0.44683 0.84418 0.0
O67 O 0.10502 0.4361 0.80769 0.0
O68 O 0.13639 0.49089 0.87974 0.0
O69 O 0.13296 0.48012 0.83978 0.0
Co70 Co 0.7393 0.53711 0.06188 0.0
O71 O 0.7229 0.57032 0.05909 0.0
O72 O 0.7638 0.56454 0.0527 0.0
C73 C 0.71125 0.51178 0.03999 0.0
O74 O 0.76193 0.50502 0.0626 0.0
Co75 Co 0.71037 0.4944 0.09331 0.0
O76 O 0.73864 0.4728 0.08105 0.0
C77 C 0.73782 0.53617 0.11981 0.0
C78 C 0.74491 0.58058 0.05366 0.0
C79 C 0.75858 0.48098 0.0697 0.0
O80 O 0.74702 0.54401 0.09864 0.0
O81 O 0.72061 0.51827 0.12159 0.0
O82 O 0.72774 0.52657 0.02828 0.0
O83 O 0.70954 0.51643 0.06381 0.0
Co84 Co 0.86583 0.02202 0.21071 0.0
O85 O 0.89223 0.02787 0.18676 0.0
O86 O 0.89542 0.00336 0.22117 0.0
C87 C 0.83455 0.01406 0.18323 0.0
O88 O 0.84152 0.01078 0.23865 0.0
Co89 Co 0.82165 0.06124 0.21206 0.0
O90 O 0.80611 0.03435 0.23463 0.0
C91 C 0.87163 0.07776 0.23 0.0
C92 C 0.90591 0.01314 0.201 0.0
C93 C 0.81836 0.01563 0.24447 0.0
O94 O 0.87804 0.05359 0.2305 0.0
O95 O 0.8508 0.08545 0.22049 0.0
O96 O 0.85004 0.99548 0.18897 0.0
O97 O 0.84061 0.03709 0.19164 0.0
Co98 Co 0.18749 0.28113 0.49667 0.0
O99 O 0.21713 0.26824 0.47986 0.0
O100 O 0.17736 0.26106 0.46779 0.0
C101 C 0.1997 0.32292 0.50411 0.0
O102 O 0.15238 0.29035 0.50909 0.0
Co103 Co 0.19153 0.29499 0.55308 0.0
O104 O 0.15426 0.29975 0.55038 0.0
C105 C 0.19395 0.24034 0.53805 0.0
C106 C 0.20122 0.2557 0.46524 0.0
C107 C 0.14182 0.29651 0.53002 0.0
O108 O 0.18609 0.24773 0.51648 0.0
O109 O 0.20016 0.25663 0.55538 0.0
O110 O 0.19151 0.31604 0.48197 0.0
O111 O 0.20385 0.30378 0.5195 0.0
Co112 Co 0.26571 0.03381 0.43401 0.0
O113 O 0.27434 0.07009 0.44154 0.0
O114 O 0.23541 0.05395 0.43618 0.0
C115 C 0.2905 0.01305 0.46163 0.0
O116 O 0.24891 0.99844 0.42709 0.0
Co117 Co 0.30465 0.99584 0.41118 0.0
O118 O 0.27718 0.96879 0.41437 0.0
C119 C 0.279 0.03271 0.37788 0.0
C120 C 0.25011 0.07424 0.44018 0.0
C121 C 0.25475 0.97508 0.42046 0.0
O122 O 0.26678 0.04133 0.39694 0.0
O123 O 0.29626 0.01554 0.3797 0.0
O124 O 0.26941 0.0234 0.46896 0.0
O125 O 0.29785 0.01932 0.43916 0.0
Co126 Co 0.36079 0.52821 0.78878 0.0
O127 O 0.33881 0.54178 0.81429 0.0
O128 O 0.3318 0.50503 0.79282 0.0
C129 C 0.39743 0.53408 0.80914 0.0
O130 O 0.37938 0.50729 0.76222 0.0
Co131 Co 0.4004 0.56347 0.76177 0.0
O132 O 0.41422 0.52971 0.74987 0.0
C133 C 0.34709 0.56635 0.74665 0.0
C134 C 0.32411 0.52163 0.8096 0.0
C135 C 0.40066 0.50878 0.7504 0.0
O136 O 0.34183 0.54801 0.76244 0.0
O137 O 0.36939 0.5762 0.74375 0.0
O138 O 0.38312 0.51364 0.81393 0.0
O139 O 0.388 0.55161 0.79445 0.0
Co140 Co 0.80796 0.79679 0.99099 0.0
O141 O 0.77816 0.78251 0.00757 0.0
O142 O 0.81659 0.76602 0.01002 0.0
C143 C 0.8028 0.83994 -0.00041 0.0
O144 O 0.84298 0.80509 0.97708 0.0
Co145 Co 0.80309 0.83318 0.94457 0.0
O146 O 0.84079 0.83347 0.94484 0.0
C147 C 0.79554 0.77649 0.93804 0.0
C148 C 0.79261 0.76377 0.01535 0.0
C149 C 0.85341 0.81895 0.95959 0.0
O150 O 0.80129 0.77343 0.96127 0.0
O151 O 0.79308 0.79905 0.92786 0.0
O152 O 0.81249 0.82446 0.01632 0.0
O153 O 0.79396 0.8284 0.97972 0.0
Co154 Co 0.62339 0.03381 0.11577 0.0
O155 O 0.65014 0.01015 0.10793 0.0
O156 O 0.64562 0.03166 0.14399 0.0
C157 C 0.59057 0.00969 0.10157 0.0
O158 O 0.59817 0.05876 0.13112 0.0
Co159 Co 0.59168 0.05815 0.07266 0.0
O160 O 0.57261 0.07414 0.10077 0.0
C161 C 0.64301 0.07869 0.08272 0.0
C162 C 0.65868 0.01574 0.13024 0.0
C163 C 0.57951 0.07254 0.12367 0.0
O164 O 0.64413 0.06445 0.1026 0.0
O165 O 0.62484 0.07693 0.06684 0.0
O166 O 0.60032 0.00473 0.12347 0.0
O167 O 0.60329 0.02606 0.08777 0.0
Co168 Co 0.42721 0.23419 0.13783 0.0
O169 O 0.40175 0.227 0.16285 0.0
O170 O 0.43004 0.25983 0.16422 0.0
C171 C 0.40233 0.22812 0.10385 0.0
O172 O 0.45558 0.24831 0.11541 0.0
Co173 Co 0.44261 0.19155 0.09916 0.0
O174 O 0.46344 0.22033 0.08384 0.0
C175 C 0.45758 0.18701 0.15209 0.0
C176 C 0.41144 0.24694 0.17489 0.0
C177 C 0.46726 0.24216 0.09506 0.0
O178 O 0.45192 0.21108 0.15608 0.0
O179 O 0.45212 0.17479 0.13175 0.0
O180 O 0.40213 0.25057 0.11553 0.0
O181 O 0.41523 0.21018 0.11455 0.0
Co182 Co 0.11658 0.78448 0.36104 0.0
O183 O 0.10319 0.75459 0.34427 0.0
O184 O 0.13564 0.77862 0.3302 0.0
C185 C 0.11653 0.76673 0.39931 0.0
O186 O 0.13469 0.81706 0.37562 0.0
Co187 Co 0.07799 0.80955 0.3978 0.0
O188 O 0.10845 0.83103 0.40611 0.0
C189 C 0.0724 0.81925 0.34441 0.0
C190 C 0.11938 0.75935 0.32656 0.0
C191 C 0.12938 0.83245 0.39414 0.0
O192 O 0.09313 0.807 0.34123 0.0
O193 O 0.06177 0.82195 0.36582 0.0
O194 O 0.13524 0.7623 0.38412 0.0
O195 O 0.09748 0.77876 0.38974 0.0
Co196 Co 0.37229 0.30553 0.63814 0.0
O197 O 0.38122 0.28764 0.66846 0.0
O198 O 0.34576 0.30965 0.6626 0.0
C199 C 0.38221 0.27456 0.61003 0.0
O200 O 0.35663 0.32609 0.60963 0.0
Co201 Co 0.41421 0.32137 0.6 0.0
O202 O 0.38528 0.33234 0.57881 0.0
C203 C 0.4098 0.35142 0.64655 0.0
C204 C 0.36021 0.29651 0.67764 0.0
C205 C 0.3629 0.33432 0.58757 0.0
O206 O 0.38936 0.33832 0.65135 0.0
O207 O 0.424 0.34644 0.6277 0.0
O208 O 0.36084 0.27295 0.62218 0.0
O209 O 0.39806 0.29238 0.61799 0.0
Co210 Co 0.05404 0.73565 0.8664 0.0
O211 O 0.08072 0.72916 0.84296 0.0
O212 O 0.04989 0.75791 0.83783 0.0
C213 C 0.07747 0.73671 0.90135 0.0
O214 O 0.02413 0.74833 0.88673 0.0
Co215 Co 0.03975 0.69437 0.90687 0.0
O216 O 0.01653 0.72167 0.91965 0.0
C217 C 0.02975 0.68331 0.85396 0.0
C218 C 0.06952 0.74612 0.82876 0.0
C219 C 0.01221 0.74244 0.90712 0.0
O220 O 0.03244 0.70792 0.84934 0.0
O221 O 0.0348 0.67321 0.87535 0.0
O222 O 0.07662 0.75751 0.88718 0.0
O223 O 0.0668 0.71578 0.89232 0.0
Co224 Co 0.10274 0.68095 0.11426 0.0
O225 O 0.08709 0.70295 0.13847 0.0
O226 O 0.12395 0.6832 0.14375 0.0
C227 C 0.09722 0.70644 0.08068 0.0
O228 O 0.12452 0.65706 0.09301 0.0
Co229 Co 0.06957 0.65629 0.07199 0.0
O230 O 0.10246 0.6438 0.05896 0.0
C231 C 0.06534 0.635 0.12286 0.0
C232 C 0.10619 0.69776 0.15289 0.0
C233 C 0.1228 0.64481 0.07187 0.0
O234 O 0.08427 0.6498 0.12917 0.0
O235 O 0.05509 0.63572 0.10107 0.0
O236 O 0.116 0.71128 0.0959 0.0
O237 O 0.08096 0.68869 0.08796 0.0
Co238 Co 0.56853 0.75407 0.11986 0.0
O239 O 0.59444 0.76616 0.14295 0.0
O240 O 0.5622 0.73942 0.15258 0.0
C241 C 0.59449 0.74406 0.08764 0.0
O242 O 0.53866 0.73669 0.10172 0.0
Co243 Co 0.55912 0.78194 0.06862 0.0
O244 O 0.53374 0.75335 0.06296 0.0
C245 C 0.53835 0.8042 0.11537 0.0
C246 C 0.58237 0.75235 0.15983 0.0
C247 C 0.5272 0.73745 0.08037 0.0
O248 O 0.54654 0.78492 0.12847 0.0
O249 O 0.54288 0.80727 0.09192 0.0
O250 O 0.59152 0.72771 0.1062 0.0
O251 O 0.58394 0.76646 0.09041 0.0
Co252 Co 0.37094 0.22582 0.88261 0.0
O253 O 0.38247 0.25699 0.86533 0.0
O254 O 0.34404 0.23873 0.86211 0.0
C255 C 0.3855 0.23474 0.92135 0.0
O256 O 0.35178 0.19439 0.89724 0.0
Co257 Co 0.40902 0.18604 0.90369 0.0
O258 O 0.37845 0.16607 0.9151 0.0
C259 C 0.40155 0.18873 0.84951 0.0
C260 C 0.36021 0.25668 0.85478 0.0
C261 C 0.35617 0.17316 0.90942 0.0
O262 O 0.38307 0.20426 0.85336 0.0
O263 O 0.41582 0.18041 0.86708 0.0
O264 O 0.36471 0.24529 0.91346 0.0
O265 O 0.39839 0.22242 0.9045 0.0
Co266 Co 0.42991 0.25175 0.39457 0.0
O267 O 0.40259 0.26105 0.37251 0.0
O268 O 0.43181 0.23133 0.36445 0.0
C269 C 0.40815 0.24919 0.43082 0.0
O270 O 0.46006 0.23636 0.41265 0.0
Co271 Co 0.44759 0.29012 0.4365 0.0
O272 O 0.46966 0.26073 0.44667 0.0
C273 C 0.45779 0.30314 0.38407 0.0
C274 C 0.41241 0.24451 0.35688 0.0
C275 C 0.47283 0.24059 0.4329 0.0
O276 O 0.45238 0.27928 0.37813 0.0
O277 O 0.45429 0.31247 0.40607 0.0
O278 O 0.40718 0.22963 0.41511 0.0
O279 O 0.41919 0.2703 0.42258 0.0
Co280 Co 0.12986 0.01625 0.5985 0.0
O281 O 0.15731 0.99274 0.59185 0.0
O282 O 0.15533 0.02026 0.6241 0.0
C283 C 0.09626 0.9893 0.59269 0.0
O284 O 0.10431 0.04248 0.61192 0.0
Co285 Co 0.09497 0.03177 0.55439 0.0
O286 O 0.07481 0.04763 0.58167 0.0
C287 C 0.14408 0.05862 0.55921 0.0
C288 C 0.16793 0.00275 0.61178 0.0
C289 C 0.0832 0.05154 0.60383 0.0
O290 O 0.14764 0.04506 0.57916 0.0
O291 O 0.12459 0.05532 0.54517 0.0
O292 O 0.10967 0.98812 0.61315 0.0
O293 O 0.1068 0.0026 0.57454 0.0
Co294 Co 0.75768 0.03888 0.9395 0.0
O295 O 0.75961 0.07613 0.94532 0.0
O296 O 0.72387 0.05337 0.94037 0.0
C297 C 0.78482 0.02438 0.96888 0.0
O298 O 0.74966 0.99982 0.93389 0.0
Co299 Co 0.80684 0.01458 0.9185 0.0
O300 O 0.78739 0.98172 0.92519 0.0
C301 C 0.77399 0.04178 0.88372 0.0
C302 C 0.73511 0.0761 0.94379 0.0
C303 C 0.76376 0.97973 0.9301 0.0
O304 O 0.75819 0.04468 0.90186 0.0
O305 O 0.79603 0.03236 0.88685 0.0
O306 O 0.76205 0.03106 0.97521 0.0
O307 O 0.79176 0.03239 0.94677 0.0
Co308 Co 0.87067 0.49798 0.29867 0.0
O309 O 0.84881 0.51191 0.32434 0.0
O310 O 0.84138 0.4753 0.30289 0.0
C311 C 0.90828 0.50257 0.31821 0.0
O312 O 0.88868 0.4766 0.27207 0.0
Co313 Co 0.90989 0.53286 0.2707 0.0
O314 O 0.92353 0.49883 0.25937 0.0
C315 C 0.85647 0.53623 0.25644 0.0
C316 C 0.83379 0.49198 0.3196 0.0
C317 C 0.90994 0.47792 0.26022 0.0
O318 O 0.85164 0.5179 0.27235 0.0
O319 O 0.87873 0.54607 0.25312 0.0
O320 O 0.89286 0.48323 0.32379 0.0
O321 O 0.89894 0.52053 0.30381 0.0
Co322 Co 0.32796 0.78844 0.49148 0.0
O323 O 0.30127 0.76955 0.50908 0.0
O324 O 0.34213 0.76008 0.50998 0.0
C325 C 0.31726 0.82979 0.50039 0.0
O326 O 0.36079 0.80242 0.47663 0.0
Co327 Co 0.3171 0.82362 0.44565 0.0
O328 O 0.35415 0.83202 0.44629 0.0
C329 C 0.31406 0.76643 0.43981 0.0
C330 C 0.31901 0.75378 0.51624 0.0
C331 C 0.36899 0.81908 0.46031 0.0
O332 O 0.32315 0.76421 0.46205 0.0
O333 O 0.30805 0.78851 0.43028 0.0
O334 O 0.32973 0.81608 0.51671 0.0
O335 O 0.30899 0.81718 0.48086 0.0
Co336 Co 0.1292 0.9898 0.2021 0.0
O337 O 0.10197 0.98834 0.17846 0.0
O338 O 0.10148 0.0097 0.21494 0.0
C339 C 0.16108 0.99787 0.17543 0.0
O340 O 0.15462 0.99656 0.23022 0.0
Co341 Co 0.16974 0.9468 0.19969 0.0
O342 O 0.18793 0.97053 0.22357 0.0
C343 C 0.11924 0.93323 0.21807 0.0
C344 C 0.08975 0.00254 0.19447 0.0
C345 C 0.17743 0.98948 0.23494 0.0
O346 O 0.1148 0.95782 0.21967 0.0
O347 O 0.13925 0.92427 0.20789 0.0
O348 O 0.14663 0.01686 0.18253 0.0
O349 O 0.15313 0.97453 0.18137 0.0
Co350 Co 0.81152 0.70414 0.48245 0.0
O351 O 0.78175 0.71895 0.46692 0.0
O352 O 0.82148 0.72671 0.45533 0.0
C353 C 0.79917 0.66193 0.48632 0.0
O354 O 0.84689 0.69393 0.49341 0.0
Co355 Co 0.80954 0.68514 0.53722 0.0
O356 O 0.84598 0.67744 0.53254 0.0
C357 C 0.80879 0.74123 0.52773 0.0
C358 C 0.79774 0.73273 0.45339 0.0
C359 C 0.85798 0.68416 0.5127 0.0
O360 O 0.81304 0.73551 0.50477 0.0
O361 O 0.8053 0.7238 0.54474 0.0
O362 O 0.80742 0.67103 0.46491 0.0
O363 O 0.79516 0.67934 0.50363 0.0
Co364 Co 0.87299 0.56859 0.86003 0.0
O365 O 0.89376 0.53838 0.86472 0.0
O366 O 0.89889 0.57632 0.88477 0.0
C367 C 0.83515 0.54807 0.86034 0.0
O368 O 0.8546 0.60343 0.86098 0.0
Co369 Co 0.84159 0.57463 0.81116 0.0
O370 O 0.82624 0.60432 0.82943 0.0
C371 C 0.89605 0.58449 0.80918 0.0
C372 C 0.90659 0.55264 0.88064 0.0
C373 C 0.83602 0.6141 0.84932 0.0
O374 O 0.89666 0.58174 0.83314 0.0
O375 O 0.87601 0.5813 0.79595 0.0
O376 O 0.84665 0.55334 0.88143 0.0
O377 O 0.84822 0.5523 0.8401 0.0
Co378 Co 0.27873 0.46289 0.07259 0.0
O379 O 0.29691 0.4307 0.06808 0.0
O380 O 0.25764 0.43736 0.05523 0.0
C381 C 0.30832 0.49313 0.06108 0.0
O382 O 0.25448 0.49347 0.07268 0.0
Co383 Co 0.29625 0.5023 0.11378 0.0
O384 O 0.27089 0.52513 0.09767 0.0
C385 C 0.2678 0.45538 0.12909 0.0
C386 C 0.27644 0.4214 0.05747 0.0
C387 C 0.25468 0.51698 0.08156 0.0
O388 O 0.2644 0.44964 0.10574 0.0
O389 O 0.28215 0.47439 0.13633 0.0
O390 O 0.29597 0.47978 0.04402 0.0
O391 O 0.30608 0.48384 0.08361 0.0
Co392 Co 0.20115 0.21783 0.98034 0.0
O393 O 0.23481 0.22894 0.9908 0.0
O394 O 0.19894 0.24085 0.0088 0.0
C395 C 0.2073 0.17459 0.97421 0.0
O396 O 0.16336 0.21107 0.97529 0.0
Co397 Co 0.19243 0.19891 0.92563 0.0
O398 O 0.15643 0.1957 0.93623 0.0
C399 C 0.19897 0.25506 0.9348 0.0
C400 C 0.22342 0.24367 0.00711 0.0
C401 C 0.14843 0.20282 0.95772 0.0
O402 O 0.19931 0.24971 0.95833 0.0
O403 O 0.19814 0.23727 0.91783 0.0
O404 O 0.20412 0.1837 0.99681 0.0
O405 O 0.21042 0.1922 0.95688 0.0
Co406 Co 0.37333 0.97875 0.12211 0.0
O407 O 0.34847 0.00544 0.12289 0.0
O408 O 0.35406 0.97547 0.15268 0.0
C409 C 0.40659 0.00303 0.10967 0.0
O410 O 0.39794 0.94901 0.12769 0.0
Co411 Co 0.39593 0.96434 0.07 0.0
O412 O 0.41789 0.9419 0.09084 0.0
C413 C 0.34619 0.94256 0.08404 0.0
C414 C 0.34138 0.99524 0.14415 0.0
C415 C 0.41453 0.93736 0.1142 0.0
O416 O 0.34858 0.95358 0.10564 0.0
O417 O 0.36215 0.94614 0.0662 0.0
O418 O 0.39953 0.00335 0.13309 0.0
O419 O 0.3908 0.99201 0.09422 0.0
Co420 Co 0.73628 0.958 0.44607 0.0
O421 O 0.72716 0.92132 0.45119 0.0
O422 O 0.76632 0.93736 0.44794 0.0
C423 C 0.71087 0.97758 0.47405 0.0
O424 O 0.75327 0.99383 0.44145 0.0
Co425 Co 0.69707 0.99632 0.42402 0.0
O426 O 0.72397 0.02325 0.43057 0.0
C427 C 0.72419 0.96186 0.38965 0.0
C428 C 0.75134 0.91692 0.45003 0.0
C429 C 0.74661 0.01741 0.43642 0.0
O430 O 0.73629 0.95271 0.40856 0.0
O431 O 0.70633 0.97831 0.3919 0.0
O432 O 0.73161 0.9666 0.48151 0.0
O433 O 0.70407 0.97216 0.45124 0.0
Co434 Co 0.61829 0.51928 0.80134 0.0
O435 O 0.63875 0.50593 0.82836 0.0
O436 O 0.64882 0.53997 0.80401 0.0
C437 C 0.58067 0.51927 0.82063 0.0
O438 O 0.60212 0.53971 0.77289 0.0
Co439 Co 0.57697 0.48535 0.77553 0.0
O440 O 0.56637 0.51901 0.76038 0.0
C441 C 0.63004 0.47636 0.76279 0.0
C442 C 0.65503 0.52428 0.82214 0.0
C443 C 0.58134 0.53892 0.7602 0.0
O444 O 0.63597 0.49579 0.77704 0.0
O445 O 0.60721 0.46791 0.75998 0.0
O446 O 0.59733 0.53787 0.82484 0.0
O447 O 0.58864 0.49938 0.80782 0.0
Co448 Co 0.63417 0.72167 0.63072 0.0
O449 O 0.63492 0.74723 0.65749 0.0
O450 O 0.66081 0.71355 0.65386 0.0
C451 C 0.63059 0.74895 0.59773 0.0
O452 O 0.64003 0.69198 0.60625 0.0
Co453 Co 0.58685 0.71228 0.59733 0.0
O454 O 0.60801 0.68692 0.57878 0.0
C455 C 0.58756 0.68932 0.64789 0.0
C456 C 0.6536 0.73385 0.66648 0.0
C457 C 0.62965 0.68061 0.58718 0.0
O458 O 0.6103 0.69837 0.65066 0.0
O459 O 0.57408 0.69412 0.6285 0.0
O460 O 0.65247 0.74572 0.6084 0.0
O461 O 0.61131 0.7385 0.60935 0.0
Co462 Co 0.94154 0.26153 0.88129 0.0
O463 O 0.91609 0.26279 0.85549 0.0
O464 O 0.95197 0.24092 0.85287 0.0
C465 C 0.91576 0.25497 0.91458 0.0
O466 O 0.97152 0.25484 0.90435 0.0
Co467 Co 0.94374 0.30464 0.92244 0.0
O468 O 0.96944 0.28159 0.93789 0.0
C469 C 0.95894 0.31768 0.87115 0.0
C470 C 0.93105 0.24829 0.84229 0.0
C471 C 0.97927 0.26251 0.92616 0.0
O472 O 0.95944 0.29308 0.86604 0.0
O473 O 0.95037 0.32668 0.89184 0.0
O474 O 0.92156 0.23533 0.90021 0.0
O475 O 0.9229 0.27778 0.9064 0.0
Co476 Co 0.85483 0.22108 0.37835 0.0
O477 O 0.85784 0.25057 0.35601 0.0
O478 O 0.83005 0.21763 0.35178 0.0
C479 C 0.8569 0.24254 0.41507 0.0
O480 O 0.84609 0.18756 0.39761 0.0
Co481 Co 0.90013 0.20684 0.41252 0.0
O482 O 0.87604 0.18042 0.42677 0.0
C483 C 0.90254 0.19423 0.35908 0.0
C484 C 0.84018 0.23909 0.34273 0.0
C485 C 0.85499 0.1745 0.41625 0.0
O486 O 0.87971 0.20207 0.35689 0.0
O487 O 0.91511 0.19526 0.37962 0.0
O488 O 0.83557 0.24095 0.40283 0.0
O489 O 0.87659 0.23416 0.40326 0.0
Co490 Co 0.93647 0.23221 0.61717 0.0
O491 O 0.91336 0.22414 0.6441 0.0
O492 O 0.94909 0.24742 0.64814 0.0
C493 C 0.907 0.24373 0.58878 0.0
O494 O 0.96438 0.24511 0.5935 0.0
Co495 Co 0.93416 0.19901 0.56806 0.0
O496 O 0.95978 0.22514 0.55595 0.0
C497 C 0.95754 0.17715 0.61334 0.0
C498 C 0.92898 0.23702 0.65858 0.0
C499 C 0.97073 0.24185 0.57035 0.0
O500 O 0.95605 0.1995 0.62432 0.0
O501 O 0.94792 0.17213 0.59176 0.0
O502 O 0.91482 0.2606 0.6055 0.0
O503 O 0.91523 0.22023 0.59133 0.0
Co504 Co 0.57968 0.75078 0.38204 0.0
O505 O 0.60605 0.74264 0.35822 0.0
O506 O 0.57416 0.76964 0.35155 0.0
C507 C 0.60365 0.75662 0.41671 0.0
O508 O 0.54973 0.76499 0.40126 0.0
Co509 Co 0.56678 0.71417 0.42685 0.0
O510 O 0.54151 0.7411 0.43584 0.0
C511 C 0.55478 0.69708 0.37583 0.0
C512 C 0.59385 0.75775 0.34287 0.0
C513 C 0.53715 0.76056 0.42155 0.0
O514 O 0.5582 0.72083 0.36829 0.0
O515 O 0.56017 0.68957 0.39809 0.0
O516 O 0.60222 0.77535 0.40016 0.0
O517 O 0.5934 0.73446 0.41017 0.0
Co518 Co 0.66507 0.77038 0.88063 0.0
O519 O 0.66033 0.74388 0.85526 0.0
O520 O 0.69317 0.77163 0.85778 0.0
C521 C 0.65423 0.74702 0.91483 0.0
O522 O 0.67703 0.7998 0.90347 0.0
Co523 Co 0.6199 0.79168 0.91098 0.0
O524 O 0.64556 0.81494 0.92761 0.0
C525 C 0.62523 0.80635 0.85815 0.0
C526 C 0.68102 0.75351 0.84521 0.0
C527 C 0.66862 0.8152 0.92051 0.0
O528 O 0.64714 0.79586 0.85837 0.0
O529 O 0.61003 0.80514 0.87687 0.0
O530 O 0.67681 0.74489 0.90522 0.0
O531 O 0.63835 0.76031 0.90168 0.0
Co532 Co 0.61662 0.44247 0.37125 0.0
O533 O 0.59587 0.47171 0.36247 0.0
O534 O 0.59042 0.44686 0.39631 0.0
C535 C 0.655 0.46083 0.36433 0.0
O536 O 0.63437 0.41096 0.38644 0.0
Co537 Co 0.64754 0.41538 0.32955 0.0
O538 O 0.66041 0.39367 0.35753 0.0
C539 C 0.59292 0.40644 0.3311 0.0
C540 C 0.5824 0.46582 0.38221 0.0
C541 C 0.65116 0.39434 0.37964 0.0
O542 O 0.5928 0.41909 0.35189 0.0
O543 O 0.61286 0.40333 0.31785 0.0
O544 O 0.64289 0.46532 0.38514 0.0
O545 O 0.64212 0.44845 0.34711 0.0
Co546 Co 0.24163 0.53396 0.55083 0.0
O547 O 0.23479 0.57014 0.54256 0.0
O548 O 0.27241 0.55152 0.541 0.0
C549 C 0.21013 0.51203 0.53109 0.0
O550 O 0.25644 0.49809 0.55651 0.0
Co551 Co 0.20563 0.5012 0.58478 0.0
O552 O 0.22805 0.47163 0.57589 0.0
C553 C 0.23653 0.54266 0.60757 0.0
C554 C 0.25916 0.5726 0.539 0.0
C555 C 0.24905 0.47542 0.56449 0.0
O556 O 0.24871 0.54469 0.58672 0.0
O557 O 0.21673 0.52807 0.61013 0.0
O558 O 0.22944 0.52119 0.51833 0.0
O559 O 0.20823 0.52124 0.55368 0.0
Co560 Co 0.37494 0.01849 0.69355 0.0
O561 O 0.40301 0.0242 0.67095 0.0
O562 O 0.40494 0.00239 0.70694 0.0
C563 C 0.34535 0.00729 0.66462 0.0
O564 O 0.35 0.00736 0.72101 0.0
Co565 Co 0.32696 0.05286 0.69073 0.0
O566 O 0.31234 0.02574 0.71363 0.0
C567 C 0.37449 0.07528 0.71057 0.0
C568 C 0.41652 0.01136 0.68705 0.0
C569 C 0.32616 0.00967 0.72553 0.0
O570 O 0.38386 0.05218 0.71189 0.0
O571 O 0.35319 0.07994 0.70016 0.0
O572 O 0.36132 0.98987 0.67232 0.0
O573 O 0.34988 0.03084 0.67234 0.0
Co574 Co 0.66759 0.2856 0.99706 0.0
O575 O 0.69287 0.26966 0.97573 0.0
O576 O 0.65187 0.25963 0.9758 0.0
C577 C 0.67879 0.32828 0.99375 0.0
O578 O 0.6358 0.29624 0.01559 0.0
Co579 Co 0.68228 0.31253 0.04722 0.0
O580 O 0.64537 0.31947 0.05029 0.0
C581 C 0.68566 0.25565 0.04315 0.0
C582 C 0.67449 0.25421 0.968 0.0
C583 C 0.62924 0.30912 0.03524 0.0
O584 O 0.67369 0.25748 0.02231 0.0
O585 O 0.69299 0.27575 0.05583 0.0
O586 O 0.66567 0.31687 0.97596 0.0
O587 O 0.68751 0.31286 0.01089 0.0
Co588 Co 0.87397 0.29277 0.12763 0.0
O589 O 0.87756 0.26781 0.15449 0.0
O590 O 0.84598 0.2957 0.15071 0.0
C591 C 0.88235 0.26659 0.09476 0.0
O592 O 0.86383 0.32121 0.103 0.0
Co593 Co 0.9206 0.30961 0.09546 0.0
O594 O 0.89646 0.33274 0.07786 0.0
C595 C 0.91611 0.32983 0.14668 0.0
C596 C 0.85693 0.27754 0.16366 0.0
C597 C 0.87357 0.33501 0.08501 0.0
O598 O 0.8938 0.31939 0.14785 0.0
O599 O 0.93107 0.32638 0.12809 0.0
O600 O 0.86002 0.26594 0.10509 0.0
O601 O 0.89951 0.28018 0.10665 0.0
Co602 Co 0.05796 0.7516 0.60787 0.0
O603 O 0.08182 0.756 0.63453 0.0
O604 O 0.04741 0.73006 0.63583 0.0
C605 C 0.08677 0.74785 0.57723 0.0
O606 O 0.0299 0.74149 0.58314 0.0
Co607 Co 0.05626 0.79275 0.56488 0.0
O608 O 0.03498 0.76546 0.54791 0.0
C609 C 0.0364 0.8057 0.61494 0.0
C610 C 0.06755 0.7396 0.64695 0.0
C611 C 0.0244 0.74668 0.56008 0.0
O612 O 0.0374 0.78145 0.6214 0.0
O613 O 0.04549 0.81454 0.59421 0.0
O614 O 0.0807 0.72744 0.59077 0.0
O615 O 0.07718 0.76967 0.58433 0.0
Co616 Co 0.64277 0.98284 0.69891 0.0
O617 O 0.61443 0.97641 0.67696 0.0
O618 O 0.61287 0.99975 0.71203 0.0
C619 C 0.67093 0.99297 0.66832 0.0
O620 O 0.66873 0.99459 0.72547 0.0
Co621 Co 0.68956 0.94674 0.69507 0.0
O622 O 0.70479 0.97262 0.71871 0.0
C623 C 0.64351 0.92715 0.72043 0.0
C624 C 0.60119 0.99029 0.69236 0.0
C625 C 0.69231 0.99028 0.72995 0.0
O626 O 0.63397 0.95014 0.71882 0.0
O627 O 0.66455 0.92119 0.71012 0.0
O628 O 0.65559 0.01068 0.67645 0.0
O629 O 0.66711 0.96963 0.67703 0.0
Co630 Co 0.30702 0.72323 0.02322 0.0
O631 O 0.28038 0.73765 0.00252 0.0
O632 O 0.32161 0.74328 0.99622 0.0
C633 C 0.29299 0.68147 0.02889 0.0
O634 O 0.34007 0.7125 0.03954 0.0
Co635 Co 0.2966 0.70813 0.07849 0.0
O636 O 0.33311 0.69887 0.07914 0.0
C637 C 0.29585 0.76309 0.0643 0.0
C638 C 0.29866 0.74959 0.99027 0.0
C639 C 0.34786 0.70318 0.06057 0.0
O640 O 0.30644 0.75627 0.04368 0.0
O641 O 0.28786 0.74636 0.08051 0.0
O642 O 0.30391 0.68838 0.00788 0.0
O643 O 0.28735 0.70073 0.04363 0.0
Co644 Co 0.38285 0.56026 0.34469 0.0
O645 O 0.40272 0.52926 0.34155 0.0
O646 O 0.40122 0.55414 0.37565 0.0
C647 C 0.34639 0.54509 0.3277 0.0
O648 O 0.36412 0.59357 0.35437 0.0
Co649 Co 0.36674 0.58847 0.29575 0.0
O650 O 0.34496 0.60801 0.31932 0.0
C651 C 0.41919 0.59391 0.31226 0.0
C652 C 0.41128 0.53449 0.36392 0.0
C653 C 0.34868 0.60892 0.34299 0.0
O654 O 0.41279 0.58137 0.33223 0.0
O655 O 0.40388 0.59831 0.29418 0.0
O656 O 0.35184 0.5398 0.351 0.0
O657 O 0.36461 0.55589 0.31481 0.0
Co658 Co 0.73589 0.4614 0.56692 0.0
O659 O 0.74553 0.42513 0.56375 0.0
O660 O 0.70615 0.43938 0.56255 0.0
C661 C 0.7641 0.4814 0.541 0.0
O662 O 0.71885 0.49686 0.56864 0.0
Co663 Co 0.77351 0.49999 0.5933 0.0
O664 O 0.74742 0.52586 0.58435 0.0
C665 C 0.74394 0.46386 0.62433 0.0
C666 C 0.7214 0.41965 0.5624 0.0
C667 C 0.72577 0.52032 0.5749 0.0
O668 O 0.73185 0.45689 0.6044 0.0
O669 O 0.76332 0.47929 0.62384 0.0
O670 O 0.74449 0.46877 0.53193 0.0
O671 O 0.76844 0.47698 0.56459 0.0
H672 H 0.26557 0.46657 0.17923 0.0
H673 H 0.23185 0.41605 0.12218 0.0
H674 H 0.19817 0.40287 0.15208 0.0
H675 H 0.24564 0.42616 0.23635 0.0
H676 H 0.23966 0.4557 0.25382 0.0
H677 H 0.26456 0.45537 0.23062 0.0
H678 H 0.24444 0.49515 0.20844 0.0
H679 H 0.21948 0.49536 0.2313 0.0
H680 H 0.21184 0.49283 0.19835 0.0
H681 H 0.16371 0.40227 0.18499 0.0
H682 H 0.13225 0.4147 0.21718 0.0
H683 H 0.18829 0.46656 0.2517 0.0
C684 C 0.25174 0.4519 0.17325 0.0
C685 C 0.25147 0.44234 0.1483 0.0
C686 C 0.23263 0.42357 0.14121 0.0
C687 C 0.2134 0.41591 0.15812 0.0
C688 C 0.21341 0.42698 0.18211 0.0
C689 C 0.23235 0.44435 0.18975 0.0
C690 C 0.22626 0.45657 0.2149 0.0
C691 C 0.24515 0.44792 0.23512 0.0
C692 C 0.22544 0.48674 0.21311 0.0
C693 C 0.20024 0.44465 0.21951 0.0
C694 C 0.19336 0.42706 0.20083 0.0
C695 C 0.16914 0.41554 0.20001 0.0
C696 C 0.15137 0.42271 0.21836 0.0
C697 C 0.15784 0.4416 0.23689 0.0
C698 C 0.18282 0.45198 0.23781 0.0
H699 H 0.68906 0.25082 0.42333 0.0
H700 H 0.6855 0.27954 0.50012 0.0
H701 H 0.67883 0.32419 0.4845 0.0
H702 H 0.72126 0.31077 0.39667 0.0
H703 H 0.70345 0.30851 0.36781 0.0
H704 H 0.71097 0.27915 0.38492 0.0
H705 H 0.66326 0.2662 0.38627 0.0
H706 H 0.65556 0.29561 0.36947 0.0
H707 H 0.64098 0.28877 0.39946 0.0
H708 H 0.66643 0.36435 0.46117 0.0
H709 H 0.65342 0.39843 0.43093 0.0
H710 H 0.66705 0.34482 0.36928 0.0
C711 C 0.68763 0.26662 0.43682 0.0
C712 C 0.6877 0.26155 0.46294 0.0
C713 C 0.68534 0.28279 0.47999 0.0
C714 C 0.6816 0.30833 0.47134 0.0
C715 C 0.68061 0.31252 0.44554 0.0
C716 C 0.684 0.29241 0.42848 0.0
C717 C 0.68071 0.3021 0.40176 0.0
C718 C 0.70558 0.30001 0.38692 0.0
C719 C 0.65883 0.28729 0.38847 0.0
C720 C 0.6742 0.33049 0.4066 0.0
C721 C 0.67424 0.3361 0.43199 0.0
C722 C 0.66685 0.36041 0.44118 0.0
C723 C 0.65934 0.37958 0.42393 0.0
C724 C 0.65954 0.37437 0.39782 0.0
C725 C 0.66724 0.34955 0.38913 0.0
H726 H 0.86899 0.87367 0.5807 0.0
H727 H 0.8378 0.91108 0.51479 0.0
H728 H 0.81304 0.87047 0.50509 0.0
H729 H 0.87839 0.81265 0.55213 0.0
H730 H 0.87086 0.79333 0.5796 0.0
H731 H 0.8832 0.82625 0.58309 0.0
H732 H 0.84419 0.83801 0.61014 0.0
H733 H 0.83159 0.8051 0.60649 0.0
H734 H 0.81275 0.83273 0.59762 0.0
H735 H 0.79549 0.82564 0.50048 0.0
H736 H 0.78722 0.77803 0.49919 0.0
H737 H 0.83103 0.76823 0.56735 0.0
C738 C 0.85651 0.8733 0.56452 0.0
C739 C 0.85482 0.8953 0.54856 0.0
C740 C 0.839 0.8943 0.52721 0.0
C741 C 0.82484 0.87145 0.52171 0.0
C742 C 0.82697 0.84992 0.53777 0.0
C743 C 0.84254 0.85053 0.55863 0.0
C744 C 0.84339 0.82386 0.57128 0.0
C745 C 0.87056 0.81341 0.57152 0.0
C746 C 0.83231 0.825 0.59797 0.0
C747 C 0.82631 0.80792 0.55391 0.0
C748 C 0.81675 0.82358 0.535 0.0
C749 C 0.80219 0.81328 0.51551 0.0
C750 C 0.79771 0.78621 0.51492 0.0
C751 C 0.80821 0.76954 0.53335 0.0
C752 C 0.82209 0.78061 0.55354 0.0
H753 H 0.2762 0.00815 0.73966 0.0
H754 H 0.34934 0.97559 0.75799 0.0
H755 H 0.32997 0.95216 0.79402 0.0
H756 H 0.25851 0.02202 0.79992 0.0
H757 H 0.22534 0.01403 0.7958 0.0
H758 H 0.24408 0.02435 0.76929 0.0
H759 H 0.23101 0.98172 0.74565 0.0
H760 H 0.21234 0.97115 0.77231 0.0
H761 H 0.23659 0.95032 0.75999 0.0
H762 H 0.30405 0.93756 0.83138 0.0
H763 H 0.2748 0.93528 0.86751 0.0
H764 H 0.21849 0.97664 0.82411 0.0
C765 C 0.28812 0.99567 0.75089 0.0
C766 C 0.31434 0.99376 0.74593 0.0
C767 C 0.3292 0.97737 0.76132 0.0
C768 C 0.31833 0.96383 0.78177 0.0
C769 C 0.2925 0.96659 0.7864 0.0
C770 C 0.27759 0.98203 0.77128 0.0
C771 C 0.251 0.98403 0.78167 0.0
C772 C 0.24437 0.0128 0.787 0.0
C773 C 0.23159 0.97102 0.76384 0.0
C774 C 0.25361 0.96842 0.8057 0.0
C775 C 0.2775 0.95802 0.80787 0.0
C776 C 0.28512 0.94516 0.82966 0.0
C777 C 0.26831 0.94392 0.85012 0.0
C778 C 0.24423 0.95572 0.84874 0.0
C779 C 0.23652 0.96702 0.82576 0.0
H780 H 0.19262 0.27642 0.88747 0.0
H781 H 0.20041 0.29742 0.96634 0.0
H782 H 0.19096 0.34314 0.95613 0.0
H783 H 0.22034 0.33899 0.86243 0.0
H784 H 0.19864 0.33932 0.83627 0.0
H785 H 0.20852 0.30854 0.84932 0.0
H786 H 0.16148 0.29478 0.85613 0.0
H787 H 0.15147 0.32557 0.84337 0.0
H788 H 0.14125 0.31563 0.87433 0.0
H789 H 0.17483 0.38503 0.93873 0.0
H790 H 0.15755 0.42167 0.91394 0.0
H791 H 0.16287 0.37483 0.84616 0.0
C792 C 0.19296 0.29072 0.90251 0.0
C793 C 0.19715 0.28312 0.92771 0.0
C794 C 0.19718 0.30254 0.94686 0.0
C795 C 0.19185 0.32868 0.94129 0.0
C796 C 0.18695 0.33532 0.91645 0.0
C797 C 0.18793 0.31707 0.89726 0.0
C798 C 0.1809 0.32926 0.87229 0.0
C799 C 0.20345 0.32902 0.854 0.0
C800 C 0.15738 0.31549 0.86087 0.0
C801 C 0.17511 0.35692 0.88063 0.0
C802 C 0.17865 0.35998 0.9062 0.0
C803 C 0.1725 0.3831 0.9186 0.0
C804 C 0.16258 0.40372 0.90445 0.0
C805 C 0.15925 0.40113 0.87818 0.0
C806 C 0.16579 0.3775 0.86616 0.0
H807 H 0.78697 0.55289 0.12616 0.0
H808 H 0.71682 0.53833 0.16673 0.0
H809 H 0.73942 0.54491 0.2069 0.0
H810 H 0.82362 0.5164 0.16402 0.0
H811 H 0.8518 0.53693 0.16289 0.0
H812 H 0.82953 0.5375 0.13737 0.0
H813 H 0.82514 0.58771 0.14247 0.0
H814 H 0.84765 0.58737 0.16796 0.0
H815 H 0.81677 0.60105 0.17266 0.0
H816 H 0.77015 0.54466 0.24199 0.0
H817 H 0.80683 0.53788 0.26974 0.0
H818 H 0.8578 0.55235 0.20709 0.0
C819 C 0.77617 0.55226 0.14347 0.0
C820 C 0.75004 0.54548 0.14332 0.0
C821 C 0.73676 0.54375 0.1664 0.0
C822 C 0.74945 0.54754 0.18931 0.0
C823 C 0.77543 0.55308 0.18886 0.0
C824 C 0.78866 0.55566 0.16654 0.0
C825 C 0.81698 0.55808 0.17128 0.0
C826 C 0.83131 0.5359 0.15812 0.0
C827 C 0.82724 0.58517 0.16311 0.0
C828 C 0.8177 0.55515 0.19964 0.0
C829 C 0.79346 0.5528 0.2094 0.0
C830 C 0.78919 0.54713 0.23468 0.0
C831 C 0.81015 0.54322 0.25028 0.0
C832 C 0.83515 0.54494 0.24062 0.0
C833 C 0.83894 0.55168 0.21511 0.0
H834 H 0.71266 0.98726 0.34594 0.0
H835 H 0.76131 0.92744 0.37648 0.0
H836 H 0.7879 0.93013 0.33851 0.0
H837 H 0.72158 0.96952 0.27642 0.0
H838 H 0.72145 0.00376 0.26801 0.0
H839 H 0.70249 0.99199 0.29402 0.0
H840 H 0.72426 0.02657 0.32287 0.0
H841 H 0.74369 0.03803 0.2973 0.0
H842 H 0.7583 0.02698 0.32593 0.0
H843 H 0.81448 0.94658 0.30254 0.0
H844 H 0.83636 0.97247 0.26948 0.0
H845 H 0.77033 0.0215 0.26268 0.0
C846 C 0.72814 0.97376 0.34416 0.0
C847 C 0.73485 0.95719 0.36428 0.0
C848 C 0.75568 0.94029 0.36135 0.0
C849 C 0.77096 0.94168 0.3398 0.0
C850 C 0.76494 0.95972 0.32116 0.0
C851 C 0.74363 0.97502 0.32284 0.0
C852 C 0.74311 0.99526 0.30204 0.0
C853 C 0.72084 0.98979 0.28405 0.0
C854 C 0.74231 0.02335 0.31269 0.0
C855 C 0.76818 0.99007 0.28942 0.0
C856 C 0.78033 0.96922 0.30036 0.0
C857 C 0.80485 0.9625 0.29338 0.0
C858 C 0.81722 0.97747 0.27473 0.0
C859 C 0.80512 0.99905 0.26343 0.0
C860 C 0.78012 0.00503 0.27073 0.0
H861 H 0.17182 0.20173 0.50961 0.0
H862 H 0.21685 0.21405 0.57704 0.0
H863 H 0.21547 0.1662 0.58501 0.0
H864 H 0.1301 0.15752 0.53526 0.0
H865 H 0.1262 0.13755 0.50751 0.0
H866 H 0.13507 0.17157 0.5045 0.0
H867 H 0.17511 0.15904 0.479 0.0
H868 H 0.16587 0.12493 0.48173 0.0
H869 H 0.19683 0.13583 0.49202 0.0
H870 H 0.20563 0.11799 0.58775 0.0
H871 H 0.18389 0.07498 0.5887 0.0
H872 H 0.14291 0.09486 0.5207 0.0
C873 C 0.18191 0.19442 0.52581 0.0
C874 C 0.19457 0.21169 0.54269 0.0
C875 C 0.20706 0.20123 0.56386 0.0
C876 C 0.20658 0.17406 0.56837 0.0
C877 C 0.19356 0.15767 0.55152 0.0
C878 C 0.18133 0.16753 0.53072 0.0
C879 C 0.16582 0.14646 0.51735 0.0
C880 C 0.13764 0.15371 0.51611 0.0
C881 C 0.17656 0.14126 0.49097 0.0
C882 C 0.17006 0.12341 0.53467 0.0
C883 C 0.18686 0.13005 0.55371 0.0
C884 C 0.19263 0.11253 0.57283 0.0
C885 C 0.18009 0.08806 0.57316 0.0
C886 C 0.16143 0.08149 0.55484 0.0
C887 C 0.15713 0.09912 0.53486 0.0
H888 H 0.01139 0.26263 0.59599 0.0
H889 H 0.97943 0.2547 0.52122 0.0
H890 H 0.01799 0.27518 0.50315 0.0
H891 H 0.04849 0.32539 0.58448 0.0
H892 H 0.07458 0.31438 0.60334 0.0
H893 H 0.04264 0.30389 0.61084 0.0
H894 H 0.05607 0.25532 0.60831 0.0
H895 H 0.08792 0.26563 0.60079 0.0
H896 H 0.07091 0.24358 0.58004 0.0
H897 H 0.06195 0.29003 0.49268 0.0
H898 H 0.10827 0.29719 0.49059 0.0
H899 H 0.11195 0.29549 0.57212 0.0
C900 C 0.01218 0.26604 0.57591 0.0
C901 C 0.99235 0.25724 0.56001 0.0
C902 C 0.99439 0.2613 0.53374 0.0
C903 C 0.01616 0.27309 0.52332 0.0
C904 C 0.03574 0.28079 0.53941 0.0
C905 C 0.03393 0.27755 0.56517 0.0
C906 C 0.05879 0.28448 0.578 0.0
C907 C 0.05595 0.30847 0.59518 0.0
C908 C 0.06902 0.26085 0.59262 0.0
C909 C 0.07511 0.29104 0.55535 0.0
C910 C 0.06135 0.28927 0.5333 0.0
C911 C 0.07285 0.29202 0.50983 0.0
C912 C 0.0992 0.29601 0.50883 0.0
C913 C 0.11379 0.29707 0.53117 0.0
C914 C 0.10135 0.29531 0.55469 0.0
H915 H 0.0035 0.31221 0.84619 0.0
H916 H 0.94217 0.36595 0.85837 0.0
H917 H 0.96588 0.40044 0.83523 0.0
H918 H 0.04947 0.35482 0.86151 0.0
H919 H 0.07304 0.34422 0.83939 0.0
H920 H 0.0486 0.32172 0.84956 0.0
H921 H 0.0355 0.31351 0.80324 0.0
H922 H 0.06003 0.33618 0.7929 0.0
H923 H 0.02762 0.34086 0.78344 0.0
H924 H 0.99877 0.4311 0.82065 0.0
H925 H 0.0391 0.45619 0.81794 0.0
H926 H 0.0804 0.38382 0.81511 0.0
C927 C 0.99467 0.33089 0.84286 0.0
C928 C 0.9709 0.33643 0.85356 0.0
C929 C 0.96027 0.36137 0.85 0.0
C930 C 0.97354 0.38097 0.83673 0.0
C931 C 0.99748 0.37535 0.82727 0.0
C932 C 0.008 0.35087 0.83013 0.0
C933 C 0.03574 0.35135 0.82265 0.0
C934 C 0.05268 0.34254 0.84458 0.0
C935 C 0.03996 0.33448 0.79915 0.0
C936 C 0.0396 0.38026 0.81681 0.0
C937 C 0.01706 0.39357 0.8188 0.0
C938 C 0.01636 0.42087 0.81811 0.0
C939 C 0.03931 0.43499 0.8165 0.0
C940 C 0.06256 0.42179 0.81547 0.0
C941 C 0.06268 0.39417 0.81462 0.0
H942 H 0.75844 0.43059 0.08647 0.0
H943 H 0.80383 0.48664 0.04348 0.0
H944 H 0.83678 0.453 0.03812 0.0
H945 H 0.80799 0.40434 0.12017 0.0
H946 H 0.79474 0.37149 0.1206 0.0
H947 H 0.77416 0.39905 0.1184 0.0
H948 H 0.75449 0.37925 0.07814 0.0
H949 H 0.77549 0.35189 0.07923 0.0
H950 H 0.77436 0.3722 0.05151 0.0
H951 H 0.86593 0.41349 0.04041 0.0
H952 H 0.88935 0.37389 0.05229 0.0
H953 H 0.82371 0.34514 0.09393 0.0
C954 C 0.77504 0.43591 0.07551 0.0
C955 C 0.77842 0.46132 0.06525 0.0
C956 C 0.80076 0.4673 0.05146 0.0
C957 C 0.81949 0.44828 0.04822 0.0
C958 C 0.81544 0.42344 0.05878 0.0
C959 C 0.7937 0.41737 0.07217 0.0
C960 C 0.79443 0.39022 0.08347 0.0
C961 C 0.79275 0.39136 0.11236 0.0
C962 C 0.77345 0.37234 0.0724 0.0
C963 C 0.82029 0.38197 0.07485 0.0
C964 C 0.83207 0.40114 0.06034 0.0
C965 C 0.85674 0.3983 0.05154 0.0
C966 C 0.86987 0.37567 0.05837 0.0
C967 C 0.85839 0.35635 0.07412 0.0
C968 C 0.83304 0.35938 0.08178 0.0
H969 H 0.91545 0.14345 0.35408 0.0
H970 H 0.91019 0.21677 0.31382 0.0
H971 H 0.91342 0.19323 0.27351 0.0
H972 H 0.9551 0.10616 0.30289 0.0
H973 H 0.93697 0.07659 0.30928 0.0
H974 H 0.94432 0.09925 0.3344 0.0
H975 H 0.89655 0.10166 0.34495 0.0
H976 H 0.88897 0.07957 0.31976 0.0
H977 H 0.87462 0.11135 0.32081 0.0
H978 H 0.90261 0.1629 0.23983 0.0
H979 H 0.8825 0.12757 0.21471 0.0
H980 H 0.89502 0.07252 0.2752 0.0
C981 C 0.91677 0.15451 0.33673 0.0
C982 C 0.91339 0.18184 0.33681 0.0
C983 C 0.91351 0.19587 0.31393 0.0
C984 C 0.91525 0.18263 0.291 0.0
C985 C 0.9167 0.15537 0.29131 0.0
C986 C 0.91804 0.14139 0.31361 0.0
C987 C 0.91451 0.11219 0.30894 0.0
C988 C 0.9392 0.0977 0.31418 0.0
C989 C 0.89234 0.10055 0.32452 0.0
C990 C 0.90852 0.11224 0.28108 0.0
C991 C 0.9106 0.13727 0.27114 0.0
C992 C 0.90192 0.14306 0.24704 0.0
C993 C 0.89034 0.12296 0.23297 0.0
C994 C 0.8877 0.09739 0.24296 0.0
C995 C 0.89769 0.09177 0.26691 0.0
H996 H 0.25156 0.92976 0.39214 0.0
H997 H 0.212 0.97478 0.44873 0.0
H998 H 0.17769 0.94147 0.44943 0.0
H999 H 0.19586 0.91111 0.35763 0.0
H1000 H 0.20648 0.87874 0.3498 0.0
H1001 H 0.22927 0.90495 0.35491 0.0
H1002 H 0.25135 0.87723 0.389 0.0
H1003 H 0.22857 0.85091 0.38412 0.0
H1004 H 0.2331 0.86455 0.41511 0.0
H1005 H 0.14814 0.9047 0.44448 0.0
H1006 H 0.12152 0.86762 0.43157 0.0
H1007 H 0.17759 0.84596 0.3756 0.0
C1008 C 0.23575 0.9324 0.40482 0.0
C1009 C 0.23449 0.95475 0.42053 0.0
C1010 C 0.21331 0.95788 0.43649 0.0
C1011 C 0.19382 0.93897 0.43717 0.0
C1012 C 0.19559 0.91725 0.42149 0.0
C1013 C 0.21574 0.91389 0.40537 0.0
C1014 C 0.21179 0.88944 0.38935 0.0
C1015 C 0.21079 0.89649 0.36126 0.0
C1016 C 0.23243 0.86934 0.39472 0.0
C1017 C 0.18609 0.87984 0.39889 0.0
C1018 C 0.17753 0.89611 0.41771 0.0
C1019 C 0.15453 0.89182 0.4297 0.0
C1020 C 0.13951 0.87054 0.42207 0.0
C1021 C 0.14722 0.85373 0.40228 0.0
C1022 C 0.17107 0.85837 0.39069 0.0
H1023 H 0.38277 0.36901 0.68682 0.0
H1024 H 0.45042 0.38608 0.64277 0.0
H1025 H 0.45782 0.42652 0.66756 0.0
H1026 H 0.36109 0.43249 0.6888 0.0
H1027 H 0.34882 0.43048 0.72038 0.0
H1028 H 0.35082 0.4013 0.70158 0.0
H1029 H 0.37783 0.37927 0.73607 0.0
H1030 H 0.37579 0.40838 0.75512 0.0
H1031 H 0.40634 0.39554 0.74714 0.0
H1032 H 0.4555 0.46713 0.69469 0.0
H1033 H 0.44343 0.50456 0.72125 0.0
H1034 H 0.37682 0.46067 0.74658 0.0
C1035 C 0.39945 0.38091 0.68259 0.0
C1036 C 0.41605 0.37427 0.66281 0.0
C1037 C 0.43747 0.39065 0.65787 0.0
C1038 C 0.44186 0.41365 0.67188 0.0
C1039 C 0.42474 0.41987 0.69084 0.0
C1040 C 0.40403 0.40387 0.69626 0.0
C1041 C 0.38738 0.41579 0.7162 0.0
C1042 C 0.36045 0.42028 0.70612 0.0
C1043 C 0.38681 0.39873 0.74004 0.0
C1044 C 0.4015 0.44144 0.72064 0.0
C1045 C 0.4232 0.44331 0.70614 0.0
C1046 C 0.43868 0.46577 0.70629 0.0
C1047 C 0.4316 0.48697 0.7214 0.0
C1048 C 0.40909 0.48567 0.73596 0.0
C1049 C 0.39416 0.46237 0.73576 0.0
H1050 H 0.97488 0.73231 0.94203 0.0
H1051 H 0.00387 0.7927 0.89151 0.0
H1052 H 0.96891 0.82138 0.90381 0.0
H1053 H 0.91101 0.74093 0.928 0.0
H1054 H 0.89966 0.73485 0.95945 0.0
H1055 H 0.92864 0.72041 0.94904 0.0
H1056 H 0.9525 0.74166 0.98675 0.0
H1057 H 0.92352 0.75629 0.9972 0.0
H1058 H 0.95123 0.77662 0.99143 0.0
H1059 H 0.92857 0.84165 0.91807 0.0
H1060 H 0.88524 0.85136 0.93245 0.0
H1061 H 0.8828 0.77808 0.97399 0.0
C1062 C 0.9742 0.75176 0.93393 0.0
C1063 C 0.99221 0.76026 0.91587 0.0
C1064 C 0.99031 0.78571 0.90538 0.0
C1065 C 0.97059 0.80223 0.91234 0.0
C1066 C 0.95294 0.79309 0.92989 0.0
C1067 C 0.95455 0.76846 0.94056 0.0
C1068 C 0.93198 0.7625 0.95734 0.0
C1069 C 0.91694 0.73825 0.94788 0.0
C1070 C 0.94032 0.75907 0.98481 0.0
C1071 C 0.91714 0.78737 0.95394 0.0
C1072 C 0.92967 0.80489 0.93824 0.0
C1073 C 0.91875 0.8283 0.93072 0.0
C1074 C 0.89413 0.83364 0.93896 0.0
C1075 C 0.88072 0.81563 0.95455 0.0
C1076 C 0.89274 0.79255 0.96259 0.0
H1077 H 0.50688 0.19776 0.15184 0.0
H1078 H 0.45013 0.14543 0.18345 0.0
H1079 H 0.48277 0.11254 0.19161 0.0
H1080 H 0.52844 0.15637 0.11471 0.0
H1081 H 0.56174 0.16501 0.11475 0.0
H1082 H 0.53906 0.18905 0.12315 0.0
H1083 H 0.56104 0.19671 0.16603 0.0
H1084 H 0.58453 0.17306 0.15752 0.0
H1085 H 0.56701 0.16927 0.18642 0.0
H1086 H 0.5167 0.08104 0.18373 0.0
H1087 H 0.54735 0.05451 0.15983 0.0
H1088 H 0.5801 0.12516 0.12769 0.0
C1089 C 0.50195 0.18019 0.16236 0.0
C1090 C 0.47641 0.17433 0.16791 0.0
C1091 C 0.46986 0.15053 0.18002 0.0
C1092 C 0.48833 0.1317 0.18454 0.0
C1093 C 0.51311 0.13687 0.17641 0.0
C1094 C 0.52003 0.16082 0.16578 0.0
C1095 C 0.54534 0.15931 0.15242 0.0
C1096 C 0.54348 0.1679 0.12464 0.0
C1097 C 0.56568 0.17554 0.16645 0.0
C1098 C 0.5502 0.1303 0.15481 0.0
C1099 C 0.53223 0.11793 0.1699 0.0
C1100 C 0.53125 0.09065 0.1725 0.0
C1101 C 0.5485 0.07569 0.15878 0.0
C1102 C 0.56574 0.08805 0.14214 0.0
C1103 C 0.56715 0.11557 0.14071 0.0
H1104 H 0.06358 0.87118 0.33954 0.0
H1105 H 0.06322 0.79769 0.29899 0.0
H1106 H 0.06466 0.82157 0.25884 0.0
H1107 H 0.0305 0.91273 0.28621 0.0
H1108 H 0.051 0.94027 0.29387 0.0
H1109 H 0.03988 0.91845 0.31837 0.0
H1110 H 0.08631 0.91108 0.33181 0.0
H1111 H 0.09766 0.93217 0.30717 0.0
H1112 H 0.10858 0.89895 0.30908 0.0
H1113 H 0.08097 0.85073 0.22615 0.0
H1114 H 0.10562 0.88405 0.20236 0.0
H1115 H 0.09464 0.94005 0.26239 0.0
C1116 C 0.06187 0.86035 0.32209 0.0
C1117 C 0.06269 0.83275 0.32215 0.0
C1118 C 0.06197 0.81889 0.29915 0.0
C1119 C 0.06286 0.83233 0.27626 0.0
C1120 C 0.0643 0.85964 0.27671 0.0
C1121 C 0.06305 0.87364 0.29901 0.0
C1122 C 0.06974 0.90238 0.29473 0.0
C1123 C 0.04638 0.91946 0.29852 0.0
C1124 C 0.09189 0.91164 0.31168 0.0
C1125 C 0.07743 0.90173 0.2673 0.0
C1126 C 0.07353 0.87703 0.25709 0.0
C1127 C 0.08313 0.87042 0.23352 0.0
C1128 C 0.09731 0.88934 0.22023 0.0
C1129 C 0.1016 0.91461 0.23045 0.0
C1130 C 0.09086 0.92108 0.25388 0.0
H1131 H 0.31288 0.34204 0.59873 0.0
H1132 H 0.37169 0.3632 0.54493 0.0
H1133 H 0.34479 0.39786 0.5281 0.0
H1134 H 0.25663 0.36097 0.55559 0.0
H1135 H 0.23943 0.3726 0.58249 0.0
H1136 H 0.26007 0.345 0.58561 0.0
H1137 H 0.28385 0.36916 0.62175 0.0
H1138 H 0.2638 0.39695 0.61838 0.0
H1139 H 0.29771 0.40122 0.61601 0.0
H1140 H 0.31739 0.43635 0.52474 0.0
H1141 H 0.28866 0.47314 0.53152 0.0
H1142 H 0.24651 0.42676 0.58638 0.0
C1143 C 0.31968 0.35323 0.58272 0.0
C1144 C 0.34449 0.35003 0.57333 0.0
C1145 C 0.35278 0.36523 0.5525 0.0
C1146 C 0.33758 0.38498 0.54272 0.0
C1147 C 0.31391 0.38881 0.55353 0.0
C1148 C 0.30461 0.37286 0.57257 0.0
C1149 C 0.27988 0.38302 0.58287 0.0
C1150 C 0.25769 0.36428 0.57624 0.0
C1151 C 0.28144 0.38788 0.61143 0.0
C1152 C 0.27808 0.40842 0.56837 0.0
C1153 C 0.29756 0.41108 0.55112 0.0
C1154 C 0.30162 0.43418 0.53762 0.0
C1155 C 0.28538 0.4551 0.54186 0.0
C1156 C 0.26537 0.45282 0.55954 0.0
C1157 C 0.26144 0.42896 0.57254 0.0
H1158 H 0.90692 0.6337 0.79425 0.0
H1159 H 0.93833 0.55657 0.80189 0.0
H1160 H 0.98148 0.57571 0.8005 0.0
H1161 H 0.96741 0.66634 0.75913 0.0
H1162 H 0.96225 0.69605 0.77657 0.0
H1163 H 0.93556 0.67644 0.7658 0.0
H1164 H 0.91856 0.67441 0.81138 0.0
H1165 H 0.9452 0.69328 0.8224 0.0
H1166 H 0.93837 0.66148 0.83591 0.0
H1167 H 0.01661 0.60187 0.81687 0.0
H1168 H 0.04169 0.63295 0.84273 0.0
H1169 H 0.9901 0.69487 0.82386 0.0
C1170 C 0.92307 0.62093 0.7937 0.0
C1171 C 0.91962 0.59378 0.79746 0.0
C1172 C 0.94081 0.57738 0.79826 0.0
C1173 C 0.96537 0.58817 0.79769 0.0
C1174 C 0.96833 0.6154 0.79658 0.0
C1175 C 0.94774 0.63165 0.79368 0.0
C1176 C 0.95534 0.66012 0.7982 0.0
C1177 C 0.95513 0.67565 0.77345 0.0
C1178 C 0.93838 0.67302 0.81817 0.0
C1179 C 0.9822 0.65688 0.80753 0.0
C1180 C 0.98966 0.63107 0.80558 0.0
C1181 C 0.01149 0.6223 0.8175 0.0
C1182 C 0.02554 0.64 0.83232 0.0
C1183 C 0.0179 0.66626 0.83483 0.0
C1184 C 0.99666 0.67504 0.82143 0.0
H1185 H 0.2466 0.56649 0.09912 0.0
H1186 H 0.22014 0.51017 0.04329 0.0
H1187 H 0.18779 0.54136 0.0294 0.0
H1188 H 0.18849 0.58597 0.11865 0.0
H1189 H 0.1971 0.62 0.12334 0.0
H1190 H 0.22086 0.59538 0.12558 0.0
H1191 H 0.24764 0.61968 0.09169 0.0
H1192 H 0.22382 0.64441 0.08904 0.0
H1193 H 0.23381 0.62672 0.06153 0.0
H1194 H 0.15541 0.57607 0.02514 0.0
H1195 H 0.12334 0.60941 0.03313 0.0
H1196 H 0.17037 0.64258 0.0926 0.0
C1197 C 0.23431 0.5608 0.08368 0.0
C1198 C 0.23583 0.5358 0.07239 0.0
C1199 C 0.21925 0.52914 0.05235 0.0
C1200 C 0.20099 0.54684 0.04415 0.0
C1201 C 0.19973 0.57115 0.05604 0.0
C1202 C 0.21596 0.57812 0.07539 0.0
C1203 C 0.20896 0.60408 0.08696 0.0
C1204 C 0.20352 0.60116 0.11529 0.0
C1205 C 0.22979 0.62496 0.082 0.0
C1206 C 0.18516 0.6098 0.07225 0.0
C1207 C 0.18068 0.59105 0.05392 0.0
C1208 C 0.15889 0.59107 0.03918 0.0
C1209 C 0.14074 0.61013 0.04392 0.0
C1210 C 0.14423 0.62857 0.06364 0.0
C1211 C 0.16718 0.62887 0.07733 0.0
H1212 H 0.49207 0.81054 0.09692 0.0
H1213 H 0.54185 0.83695 0.15678 0.0
H1214 H 0.5107 0.87096 0.16852 0.0
H1215 H 0.47626 0.86972 0.07565 0.0
H1216 H 0.44382 0.86151 0.06785 0.0
H1217 H 0.46708 0.83635 0.06826 0.0
H1218 H 0.43999 0.80956 0.10018 0.0
H1219 H 0.41643 0.83468 0.09982 0.0
H1220 H 0.43024 0.82463 0.12918 0.0
H1221 H 0.47661 0.90653 0.16855 0.0
H1222 H 0.4446 0.93945 0.15636 0.0
H1223 H 0.41914 0.88885 0.09583 0.0
C1224 C 0.49601 0.82302 0.11301 0.0
C1225 C 0.51909 0.82134 0.12605 0.0
C1226 C 0.524 0.83794 0.14681 0.0
C1227 C 0.50642 0.85721 0.15355 0.0
C1228 C 0.48405 0.85902 0.13956 0.0
C1229 C 0.47878 0.84199 0.11991 0.0
C1230 C 0.45521 0.8494 0.10576 0.0
C1231 C 0.46096 0.85457 0.07775 0.0
C1232 C 0.43423 0.82831 0.10894 0.0
C1233 C 0.4487 0.87423 0.11945 0.0
C1234 C 0.46499 0.87929 0.13935 0.0
C1235 C 0.4635 0.90243 0.15335 0.0
C1236 C 0.44537 0.921 0.14635 0.0
C1237 C 0.42966 0.91644 0.12523 0.0
C1238 C 0.43092 0.89254 0.11218 0.0
H1239 H 0.35774 0.12122 0.92268 0.0
H1240 H 0.30574 0.18468 0.90919 0.0
H1241 H 0.2696 0.15379 0.9143 0.0
H1242 H 0.32603 0.07487 0.88752 0.0
H1243 H 0.33176 0.04732 0.90785 0.0
H1244 H 0.35357 0.07486 0.90759 0.0
H1245 H 0.34792 0.08064 0.95569 0.0
H1246 H 0.32628 0.05283 0.95613 0.0
H1247 H 0.31651 0.08393 0.96852 0.0
H1248 H 0.23979 0.11587 0.9151 0.0
H1249 H 0.21771 0.07325 0.91213 0.0
H1250 H 0.2886 0.03355 0.92536 0.0
C1251 C 0.33875 0.12879 0.92151 0.0
C1252 C 0.33457 0.15541 0.91561 0.0
C1253 C 0.30942 0.16439 0.91369 0.0
C1254 C 0.28876 0.14702 0.91668 0.0
C1255 C 0.29357 0.12077 0.92168 0.0
C1256 C 0.31791 0.11167 0.9243 0.0
C1257 C 0.31788 0.08209 0.92736 0.0
C1258 C 0.33321 0.06903 0.90632 0.0
C1259 C 0.32773 0.07443 0.95348 0.0
C1260 C 0.28982 0.07589 0.92487 0.0
C1261 C 0.27617 0.09858 0.92203 0.0
C1262 C 0.25021 0.098 0.91764 0.0
C1263 C 0.23788 0.07358 0.91586 0.0
C1264 C 0.25142 0.04996 0.91855 0.0
C1265 C 0.2777 0.05122 0.9235 0.0
H1266 H 0.50234 0.24135 0.47527 0.0
H1267 H 0.48967 0.19855 0.40569 0.0
H1268 H 0.52675 0.17143 0.41483 0.0
H1269 H 0.56639 0.24693 0.47018 0.0
H1270 H 0.57325 0.2431 0.50315 0.0
H1271 H 0.54322 0.25561 0.4935 0.0
H1272 H 0.52001 0.21874 0.51859 0.0
H1273 H 0.55012 0.20606 0.52833 0.0
H1274 H 0.52739 0.18494 0.51258 0.0
H1275 H 0.56896 0.15415 0.42796 0.0
H1276 H 0.61255 0.14871 0.44373 0.0
H1277 H 0.59686 0.20207 0.50514 0.0
C1278 C 0.50693 0.22586 0.46221 0.0
C1279 C 0.49306 0.22214 0.43975 0.0
C1280 C 0.49992 0.20177 0.42309 0.0
C1281 C 0.52091 0.18616 0.42817 0.0
C1282 C 0.53463 0.19088 0.45015 0.0
C1283 C 0.52774 0.21009 0.46702 0.0
C1284 C 0.54702 0.21319 0.48789 0.0
C1285 C 0.55812 0.24136 0.4887 0.0
C1286 C 0.53544 0.20525 0.51335 0.0
C1287 C 0.56651 0.19372 0.47942 0.0
C1288 C 0.55886 0.18066 0.45787 0.0
C1289 C 0.57493 0.1638 0.44514 0.0
C1290 C 0.59969 0.16086 0.45423 0.0
C1291 C 0.60817 0.17487 0.47574 0.0
C1292 C 0.59094 0.19071 0.4889 0.0
H1293 H 0.6761 0.00774 0.77616 0.0
H1294 H 0.74076 0.00804 0.72594 0.0
H1295 H 0.76689 0.03001 0.75825 0.0
H1296 H 0.6929 0.0709 0.81079 0.0
H1297 H 0.68265 0.05727 0.84044 0.0
H1298 H 0.66732 0.04696 0.8117 0.0
H1299 H 0.67691 0.99851 0.82214 0.0
H1300 H 0.69212 0.00867 0.85083 0.0
H1301 H 0.70915 0.98933 0.82831 0.0
H1302 H 0.78782 0.0448 0.79736 0.0
H1303 H 0.80243 0.04954 0.84119 0.0
H1304 H 0.72488 0.03963 0.86718 0.0
C1305 C 0.69549 0.01337 0.77177 0.0
C1306 C 0.70635 0.00659 0.74845 0.0
C1307 C 0.73205 0.0133 0.7436 0.0
C1308 C 0.74702 0.02592 0.76181 0.0
C1309 C 0.73608 0.03167 0.78492 0.0
C1310 C 0.71089 0.02566 0.79002 0.0
C1311 C 0.7049 0.03056 0.8175 0.0
C1312 C 0.68581 0.05275 0.82026 0.0
C1313 C 0.69522 0.00527 0.83044 0.0
C1314 C 0.73087 0.039 0.82719 0.0
C1315 C 0.74843 0.04007 0.80794 0.0
C1316 C 0.77417 0.04463 0.81254 0.0
C1317 C 0.78232 0.04727 0.83752 0.0
C1318 C 0.76481 0.04527 0.85762 0.0
C1319 C 0.73866 0.042 0.85222 0.0
H1320 H 0.35942 0.62777 0.39061 0.0
H1321 H 0.30925 0.63836 0.32682 0.0
H1322 H 0.29192 0.6776 0.34673 0.0
H1323 H 0.31404 0.65247 0.43938 0.0
H1324 H 0.33921 0.66829 0.45695 0.0
H1325 H 0.34529 0.63882 0.43942 0.0
H1326 H 0.3818 0.66297 0.41572 0.0
H1327 H 0.3757 0.6925 0.43299 0.0
H1328 H 0.37534 0.69293 0.39911 0.0
H1329 H 0.28445 0.71906 0.37012 0.0
H1330 H 0.28538 0.75837 0.39732 0.0
H1331 H 0.33891 0.72041 0.44675 0.0
C1332 C 0.34429 0.6379 0.38118 0.0
C1333 C 0.33582 0.62995 0.35708 0.0
C1334 C 0.31623 0.64406 0.34521 0.0
C1335 C 0.30613 0.66638 0.35641 0.0
C1336 C 0.31552 0.67426 0.37968 0.0
C1337 C 0.33386 0.66026 0.39217 0.0
C1338 C 0.34183 0.67405 0.41623 0.0
C1339 C 0.33466 0.65741 0.43936 0.0
C1340 C 0.37035 0.68102 0.41597 0.0
C1341 C 0.32588 0.69841 0.41468 0.0
C1342 C 0.31069 0.69806 0.39356 0.0
C1343 C 0.29584 0.71935 0.38703 0.0
C1344 C 0.29659 0.74165 0.4025 0.0
C1345 C 0.31201 0.74241 0.42426 0.0
C1346 C 0.32654 0.72029 0.4305 0.0
H1347 H 0.2247 0.97801 0.2524 0.0
H1348 H 0.16435 0.03406 0.2606 0.0
H1349 H 0.18947 0.0576 0.29293 0.0
H1350 H 0.23748 0.97156 0.31505 0.0
H1351 H 0.27124 0.96823 0.31145 0.0
H1352 H 0.25039 0.95893 0.2862 0.0
H1353 H 0.27511 0.99049 0.25633 0.0
H1354 H 0.29584 1.00023 0.28176 0.0
H1355 H 0.27874 0.02465 0.26453 0.0
H1356 H 0.21833 0.0714 0.32791 0.0
H1357 H 0.24575 0.07126 0.36536 0.0
H1358 H 0.28749 0.00645 0.33401 0.0
C1359 C 0.21689 0.99552 0.26061 0.0
C1360 C 0.19252 0.00417 0.25392 0.0
C1361 C 0.18295 0.02699 0.26542 0.0
C1362 C 0.1972 0.04067 0.28362 0.0
C1363 C 0.22109 0.03144 0.28992 0.0
C1364 C 0.2308 0.00932 0.27878 0.0
C1365 C 0.25546 0.00151 0.2909 0.0
C1366 C 0.2535 0.97342 0.30154 0.0
C1367 C 0.2776 0.0044 0.27227 0.0
C1368 C 0.25742 0.02183 0.31158 0.0
C1369 C 0.2378 0.03939 0.31025 0.0
C1370 C 0.23403 0.0581 0.32889 0.0
C1371 C 0.24977 0.05789 0.35011 0.0
C1372 C 0.26881 0.03883 0.35266 0.0
C1373 C 0.27348 0.0216 0.33246 0.0
H1374 H 0.84501 0.63739 0.89519 0.0
H1375 H 0.80339 0.64711 0.82548 0.0
H1376 H 0.78643 0.6887 0.84129 0.0
H1377 H 0.79675 0.6634 0.93626 0.0
H1378 H 0.81936 0.67957 0.95669 0.0
H1379 H 0.82793 0.65016 0.94025 0.0
H1380 H 0.86679 0.67457 0.92077 0.0
H1381 H 0.85845 0.70387 0.93743 0.0
H1382 H 0.86218 0.70469 0.90377 0.0
H1383 H 0.77603 0.73091 0.86383 0.0
H1384 H 0.77243 0.76943 0.89196 0.0
H1385 H 0.81901 0.7305 0.94732 0.0
C1386 C 0.8323 0.64819 0.88324 0.0
C1387 C 0.82563 0.63894 0.85905 0.0
C1388 C 0.8088 0.65371 0.8441 0.0
C1389 C 0.79902 0.67739 0.85291 0.0
C1390 C 0.80602 0.68595 0.87681 0.0
C1391 C 0.82216 0.67172 0.89182 0.0
C1392 C 0.82697 0.68537 0.91666 0.0
C1393 C 0.81716 0.66861 0.93876 0.0
C1394 C 0.85527 0.69255 0.91982 0.0
C1395 C 0.81121 0.70957 0.91317 0.0
C1396 C 0.79932 0.70968 0.89005 0.0
C1397 C 0.78498 0.73088 0.88213 0.0
C1398 C 0.78302 0.75264 0.89819 0.0
C1399 C 0.79509 0.75282 0.92196 0.0
C1400 C 0.80903 0.73077 0.92953 0.0
H1401 H 0.88859 0.67927 0.55393 0.0
H1402 H 0.89083 0.69213 0.47329 0.0
H1403 H 0.93644 0.70321 0.47616 0.0
H1404 H 0.92385 0.73237 0.5696 0.0
H1405 H 0.94069 0.71809 0.59554 0.0
H1406 H 0.91004 0.70517 0.58679 0.0
H1407 H 0.92856 0.65885 0.58127 0.0
H1408 H 0.95934 0.67153 0.59042 0.0
H1409 H 0.95549 0.65445 0.56096 0.0
H1410 H 0.97901 0.72093 0.48864 0.0
H1411 H 0.01582 0.74203 0.50954 0.0
H1412 H 0.98605 0.71779 0.58215 0.0
C1413 C 0.89885 0.68332 0.53669 0.0
C1414 C 0.88609 0.68465 0.51335 0.0
C1415 C 0.90016 0.6908 0.49137 0.0
C1416 C 0.92612 0.6971 0.49281 0.0
C1417 C 0.9378 0.69695 0.51631 0.0
C1418 C 0.9247 0.68984 0.53784 0.0
C1419 C 0.94073 0.69436 0.56114 0.0
C1420 C 0.92807 0.71365 0.57931 0.0
C1421 C 0.94637 0.66824 0.57422 0.0
C1422 C 0.96445 0.70629 0.54948 0.0
C1423 C 0.96254 0.70724 0.52357 0.0
C1424 C 0.98098 0.71974 0.50886 0.0
C1425 C 0.00175 0.73182 0.52092 0.0
C1426 C 0.0039 0.73141 0.54748 0.0
C1427 C 0.98522 0.71797 0.56181 0.0
H1428 H 0.0128 0.22951 0.90362 0.0
H1429 H 0.99559 0.26647 0.97496 0.0
H1430 H 0.0344 0.24826 0.99325 0.0
H1431 H 0.0434 0.16973 0.93016 0.0
H1432 H 0.06681 0.1697 0.90548 0.0
H1433 H 0.0355 0.18169 0.8993 0.0
H1434 H 0.05502 0.22585 0.88374 0.0
H1435 H 0.08625 0.21399 0.88979 0.0
H1436 H 0.07623 0.24412 0.90408 0.0
H1437 H 0.07785 0.23157 0.00196 0.0
H1438 H 0.12278 0.21925 -0.00025 0.0
H1439 H 0.11132 0.19272 0.92294 0.0
C1440 C 0.01681 0.2332 0.92328 0.0
C1441 C 0.00112 0.2494 0.93783 0.0
C1442 C 0.00734 0.25417 0.96338 0.0
C1443 C 0.02926 0.24373 0.97402 0.0
C1444 C 0.04468 0.22839 0.95896 0.0
C1445 C 0.03865 0.22302 0.93416 0.0
C1446 C 0.0597 0.20852 0.92121 0.0
C1447 C 0.05082 0.18076 0.91359 0.0
C1448 C 0.0699 0.22406 0.89838 0.0
C1449 C 0.07899 0.20766 0.94223 0.0
C1450 C 0.06981 0.21873 0.96402 0.0
C1451 C 0.08509 0.22238 0.98517 0.0
C1452 C 0.11063 0.21531 0.98373 0.0
C1453 C 0.12067 0.20494 0.9612 0.0
C1454 C 0.10427 0.20025 0.94058 0.0
H1455 H 0.80641 0.15823 0.40432 0.0
H1456 H 0.8728 0.13591 0.44698 0.0
H1457 H 0.85181 0.09387 0.45788 0.0
H1458 H 0.7597 0.1275 0.44738 0.0
H1459 H 0.73897 0.11759 0.42205 0.0
H1460 H 0.75859 0.14675 0.41897 0.0
H1461 H 0.77777 0.12824 0.37787 0.0
H1462 H 0.75839 0.09899 0.38094 0.0
H1463 H 0.79232 0.09655 0.37834 0.0
H1464 H 0.82515 0.05268 0.46117 0.0
H1465 H 0.79319 0.01667 0.45925 0.0
H1466 H 0.74386 0.06635 0.41552 0.0
C1467 C 0.81643 0.14467 0.41622 0.0
C1468 C 0.8413 0.15043 0.42473 0.0
C1469 C 0.85371 0.13207 0.44028 0.0
C1470 C 0.84197 0.10807 0.44656 0.0
C1471 C 0.81769 0.10281 0.43744 0.0
C1472 C 0.80489 0.12072 0.42292 0.0
C1473 C 0.77909 0.11001 0.41517 0.0
C1474 C 0.75784 0.12645 0.42658 0.0
C1475 C 0.77678 0.10835 0.38637 0.0
C1476 C 0.77974 0.08303 0.42696 0.0
C1477 C 0.80211 0.07926 0.43979 0.0
C1478 C 0.80741 0.0555 0.45143 0.0
C1479 C 0.78922 0.03511 0.45009 0.0
C1480 C 0.76596 0.03873 0.43737 0.0
C1481 C 0.76132 0.06304 0.42563 0.0
H1482 H 0.61019 0.67436 0.69185 0.0
H1483 H 0.54378 0.6592 0.64549 0.0
H1484 H 0.5324 0.62115 0.67213 0.0
H1485 H 0.62823 0.61139 0.69861 0.0
H1486 H 0.63843 0.61391 0.73088 0.0
H1487 H 0.63877 0.64256 0.7112 0.0
H1488 H 0.60923 0.66687 0.7428 0.0
H1489 H 0.61086 0.63847 0.76285 0.0
H1490 H 0.58054 0.65084 0.75333 0.0
H1491 H 0.53161 0.58123 0.70026 0.0
H1492 H 0.54062 0.54404 0.72839 0.0
H1493 H 0.60786 0.58545 0.75571 0.0
C1494 C 0.59283 0.66358 0.68768 0.0
C1495 C 0.57791 0.66988 0.66652 0.0
C1496 C 0.55548 0.65495 0.66165 0.0
C1497 C 0.54885 0.63324 0.67668 0.0
C1498 C 0.56463 0.62692 0.6967 0.0
C1499 C 0.58593 0.64193 0.70247 0.0
C1500 C 0.60082 0.6299 0.72371 0.0
C1501 C 0.62817 0.6241 0.7156 0.0
C1502 C 0.60034 0.64754 0.74709 0.0
C1503 C 0.58546 0.60499 0.72799 0.0
C1504 C 0.56434 0.60385 0.71266 0.0
C1505 C 0.5479 0.58212 0.71261 0.0
C1506 C 0.55324 0.56104 0.72861 0.0
C1507 C 0.57501 0.56172 0.74426 0.0
C1508 C 0.59106 0.58422 0.74404 0.0
H1509 H 0.49225 0.74179 0.04267 0.0
H1510 H 0.50732 0.69937 0.11168 0.0
H1511 H 0.46388 0.68058 0.11063 0.0
H1512 H 0.4336 0.76138 0.05905 0.0
H1513 H 0.41948 0.75871 0.02828 0.0
H1514 H 0.45304 0.7644 0.03129 0.0
H1515 H 0.46172 0.72306 0.00453 0.0
H1516 H 0.42807 0.71736 0.00113 0.0
H1517 H 0.44773 0.69193 0.01357 0.0
H1518 H 0.41704 0.67253 0.10605 0.0
H1519 H 0.37112 0.67496 0.09764 0.0
H1520 H 0.3868 0.72279 0.03174 0.0
C1521 C 0.48682 0.72778 0.0571 0.0
C1522 C 0.50334 0.72196 0.07718 0.0
C1523 C 0.49512 0.70404 0.096 0.0
C1524 C 0.47046 0.69322 0.09555 0.0
C1525 C 0.45431 0.70034 0.07607 0.0
C1526 C 0.46227 0.71699 0.05702 0.0
C1527 C 0.44053 0.72405 0.03988 0.0
C1528 C 0.43643 0.75389 0.03964 0.0
C1529 C 0.44477 0.71346 0.0132 0.0
C1530 C 0.41888 0.70959 0.0528 0.0
C1531 C 0.42723 0.69574 0.07345 0.0
C1532 C 0.41035 0.68284 0.08963 0.0
C1533 C 0.38429 0.68445 0.08477 0.0
C1534 C 0.37534 0.69893 0.06394 0.0
C1535 C 0.393 0.71114 0.04753 0.0
H1536 H 0.50352 0.7557 0.46067 0.0
H1537 H 0.52196 0.80424 0.39587 0.0
H1538 H 0.48347 0.82977 0.40314 0.0
H1539 H 0.44023 0.74946 0.44873 0.0
H1540 H 0.42997 0.75044 0.48103 0.0
H1541 H 0.46112 0.73921 0.47354 0.0
H1542 H 0.48092 0.77419 0.5034 0.0
H1543 H 0.4497 0.78555 0.51102 0.0
H1544 H 0.47344 0.80825 0.49918 0.0
H1545 H 0.43991 0.84552 0.41347 0.0
H1546 H 0.395 0.84953 0.4257 0.0
H1547 H 0.4056 0.79117 0.48404 0.0
C1548 C 0.49987 0.77212 0.44837 0.0
C1549 C 0.51583 0.77792 0.4277 0.0
C1550 C 0.51009 0.79938 0.41187 0.0
C1551 C 0.4883 0.81412 0.41592 0.0
C1552 C 0.47258 0.80737 0.43603 0.0
C1553 C 0.47823 0.787 0.45212 0.0
C1554 C 0.45701 0.78188 0.47069 0.0
C1555 C 0.44647 0.75359 0.46833 0.0
C1556 C 0.4658 0.78783 0.49767 0.0
C1557 C 0.43804 0.8017 0.46177 0.0
C1558 C 0.44749 0.81657 0.44206 0.0
C1559 C 0.43247 0.83439 0.42923 0.0
C1560 C 0.40695 0.83651 0.4363 0.0
C1561 C 0.3967 0.82072 0.45588 0.0
C1562 C 0.41281 0.80379 0.4692 0.0
H1563 H 0.71343 0.96356 0.93425 0.0
H1564 H 0.79032 0.93447 0.93127 0.0
H1565 H 0.77397 0.88937 0.93448 0.0
H1566 H 0.68889 0.91312 0.9784 0.0
H1567 H 0.65855 0.91042 0.96294 0.0
H1568 H 0.67606 0.94114 0.96254 0.0
H1569 H 0.67446 0.94192 0.91384 0.0
H1570 H 0.6566 0.91152 0.91409 0.0
H1571 H 0.68571 0.91412 0.89644 0.0
H1572 H 0.75009 0.84756 0.93438 0.0
H1573 H 0.7193 0.81117 0.928 0.0
H1574 H 0.65755 0.86594 0.93214 0.0
C1575 C 0.72678 0.94771 0.93449 0.0
C1576 C 0.75313 0.95273 0.93239 0.0
C1577 C 0.77 0.93133 0.93258 0.0
C1578 C 0.76095 0.90551 0.93459 0.0
C1579 C 0.73496 0.90123 0.93659 0.0
C1580 C 0.71805 0.92162 0.93647 0.0
C1581 C 0.69095 0.91124 0.93727 0.0
C1582 C 0.67784 0.91947 0.96175 0.0
C1583 C 0.67606 0.92023 0.91402 0.0
C1584 C 0.69537 0.88193 0.93682 0.0
C1585 C 0.72096 0.87668 0.93696 0.0
C1586 C 0.72998 0.85131 0.93463 0.0
C1587 C 0.71239 0.83079 0.93103 0.0
C1588 C 0.68613 0.83578 0.92989 0.0
C1589 C 0.67749 0.86154 0.93365 0.0
H1590 H 0.69542 0.44694 0.63372 0.0
H1591 H 0.76667 0.46607 0.67075 0.0
H1592 H 0.7455 0.46218 0.71198 0.0
H1593 H 0.65961 0.4858 0.66929 0.0
H1594 H 0.63171 0.46487 0.67057 0.0
H1595 H 0.65327 0.46233 0.64462 0.0
H1596 H 0.65853 0.41283 0.65367 0.0
H1597 H 0.63673 0.41514 0.67966 0.0
H1598 H 0.66794 0.40232 0.6846 0.0
H1599 H 0.71578 0.46482 0.74786 0.0
H1600 H 0.67985 0.4746 0.77562 0.0
H1601 H 0.62728 0.45446 0.71567 0.0
C1602 C 0.70684 0.44924 0.65051 0.0
C1603 C 0.7328 0.45657 0.649 0.0
C1604 C 0.74683 0.46027 0.67143 0.0
C1605 C 0.73497 0.45797 0.69496 0.0
C1606 C 0.70909 0.45186 0.69574 0.0
C1607 C 0.6952 0.44735 0.67409 0.0
C1608 C 0.66707 0.44501 0.67974 0.0
C1609 C 0.65206 0.46574 0.66521 0.0
C1610 C 0.65697 0.41716 0.67409 0.0
C1611 C 0.66714 0.45042 0.70774 0.0
C1612 C 0.69164 0.45366 0.71668 0.0
C1613 C 0.69656 0.46168 0.74124 0.0
C1614 C 0.67601 0.46729 0.75685 0.0
C1615 C 0.65078 0.46502 0.74785 0.0
C1616 C 0.64632 0.45564 0.72324 0.0
H1617 H 0.33904 0.90963 0.04396 0.0
H1618 H 0.31079 0.92607 0.11886 0.0
H1619 H 0.2883 0.8833 0.11925 0.0
H1620 H 0.28233 0.86964 0.0221 0.0
H1621 H 0.30182 0.84666 0.00557 0.0
H1622 H 0.31146 0.88069 0.00762 0.0
H1623 H 0.35423 0.86877 0.02715 0.0
H1624 H 0.34592 0.83462 0.02442 0.0
H1625 H 0.35493 0.848 0.05457 0.0
H1626 H 0.27784 0.83508 0.11566 0.0
H1627 H 0.27693 0.7875 0.10649 0.0
H1628 H 0.3112 0.8033 0.03369 0.0
C1629 C 0.32725 0.90482 0.06003 0.0
C1630 C 0.32687 0.92122 0.0814 0.0
C1631 C 0.31144 0.91389 0.1022 0.0
C1632 C 0.29855 0.88956 0.10262 0.0
C1633 C 0.30089 0.87301 0.08194 0.0
C1634 C 0.31438 0.88062 0.06077 0.0
C1635 C 0.31662 0.85826 0.0423 0.0
C1636 C 0.30218 0.86417 0.01795 0.0
C1637 C 0.34457 0.85206 0.03683 0.0
C1638 C 0.30372 0.83645 0.05704 0.0
C1639 C 0.2944 0.84532 0.0797 0.0
C1640 C 0.28441 0.82803 0.09766 0.0
C1641 C 0.28413 0.80101 0.09238 0.0
C1642 C 0.294 0.79158 0.0694 0.0
C1643 C 0.30332 0.80975 0.0514 0.0
H1644 H 0.35064 0.57797 0.6967 0.0
H1645 H 0.29713 0.57005 0.75813 0.0
H1646 H 0.26164 0.5726 0.72818 0.0
H1647 H 0.30906 0.61991 0.65344 0.0
H1648 H 0.31998 0.6024 0.6262 0.0
H1649 H 0.3409 0.60776 0.65259 0.0
H1650 H 0.34822 0.55776 0.65531 0.0
H1651 H 0.32722 0.55222 0.62924 0.0
H1652 H 0.32131 0.53568 0.65868 0.0
H1653 H 0.23291 0.56599 0.69218 0.0
H1654 H 0.21299 0.55105 0.65268 0.0
H1655 H 0.2847 0.56255 0.61386 0.0
C1656 C 0.33144 0.57818 0.70387 0.0
C1657 C 0.32653 0.57427 0.72968 0.0
C1658 C 0.3012 0.57337 0.73841 0.0
C1659 C 0.28093 0.5749 0.72154 0.0
C1660 C 0.28631 0.57736 0.696 0.0
C1661 C 0.31096 0.57929 0.68715 0.0
C1662 C 0.31168 0.57739 0.65871 0.0
C1663 C 0.32095 0.60342 0.64705 0.0
C1664 C 0.32806 0.55439 0.65 0.0
C1665 C 0.28385 0.57233 0.65316 0.0
C1666 C 0.26947 0.57309 0.67486 0.0
C1667 C 0.24382 0.56603 0.67495 0.0
C1668 C 0.23269 0.55739 0.65244 0.0
C1669 C 0.24724 0.55571 0.63015 0.0
C1670 C 0.27294 0.56409 0.63046 0.0
H1671 H 0.65389 0.10573 0.03988 0.0
H1672 H 0.67174 0.10276 0.11938 0.0
H1673 H 0.69236 0.14655 0.11643 0.0
H1674 H 0.71157 0.14589 0.01965 0.0
H1675 H 0.69265 0.16356 0.99734 0.0
H1676 H 0.68517 0.12971 0.00419 0.0
H1677 H 0.6394 0.14247 0.01543 0.0
H1678 H 0.64681 0.17616 0.00852 0.0
H1679 H 0.63427 0.16728 0.03895 0.0
H1680 H 0.70155 0.19449 0.10679 0.0
H1681 H 0.70115 0.24005 0.09054 0.0
H1682 H 0.67864 0.21024 0.01726 0.0
C1683 C 0.66303 0.11382 0.05646 0.0
C1684 C 0.6612 0.10088 0.07981 0.0
C1685 C 0.67314 0.11221 0.10118 0.0
C1686 C 0.68485 0.13714 0.09971 0.0
C1687 C 0.68489 0.15015 0.07664 0.0
C1688 C 0.67475 0.13853 0.05527 0.0
C1689 C 0.67426 0.15744 0.03349 0.0
C1690 C 0.69201 0.14858 0.01243 0.0
C1691 C 0.64708 0.16104 0.02356 0.0
C1692 C 0.68432 0.18197 0.04623 0.0
C1693 C 0.6907 0.17748 0.07103 0.0
C1694 C 0.69733 0.1981 0.08721 0.0
C1695 C 0.69697 0.22393 0.07787 0.0
C1696 C 0.68979 0.22878 0.05268 0.0
C1697 C 0.68428 0.20733 0.03663 0.0
H1698 H 0.49792 0.23542 0.05389 0.0
H1699 H 0.48292 0.28953 0.1149 0.0
H1700 H 0.51996 0.3166 0.10214 0.0
H1701 H 0.56246 0.23511 0.06081 0.0
H1702 H 0.56986 0.23332 0.02778 0.0
H1703 H 0.53998 0.22062 0.03911 0.0
H1704 H 0.51625 0.25056 0.00794 0.0
H1705 H 0.54616 0.26337 0.99646 0.0
H1706 H 0.52263 0.28543 0.00816 0.0
H1707 H 0.56216 0.334 0.08681 0.0
H1708 H 0.60543 0.34036 0.06978 0.0
H1709 H 0.59206 0.27567 0.01814 0.0
C1710 C 0.50196 0.25331 0.06422 0.0
C1711 C 0.48738 0.26029 0.0854 0.0
C1712 C 0.49367 0.28372 0.09855 0.0
C1713 C 0.51467 0.29932 0.0914 0.0
C1714 C 0.52906 0.29144 0.07087 0.0
C1715 C 0.5228 0.26911 0.0573 0.0
C1716 C 0.54254 0.26362 0.03744 0.0
C1717 C 0.55441 0.23658 0.04155 0.0
C1718 C 0.53121 0.26589 0.01093 0.0
C1719 C 0.5614 0.28571 0.04261 0.0
C1720 C 0.55318 0.30176 0.06176 0.0
C1721 C 0.56855 0.32192 0.07143 0.0
C1722 C 0.59312 0.32537 0.06167 0.0
C1723 C 0.60209 0.30873 0.04243 0.0
C1724 C 0.58564 0.28916 0.0324 0.0
H1725 H 0.50002 0.29201 0.35737 0.0
H1726 H 0.44556 0.35274 0.37097 0.0
H1727 H 0.47143 0.38384 0.34574 0.0
H1728 H 0.55044 0.32901 0.37005 0.0
H1729 H 0.57188 0.31559 0.34723 0.0
H1730 H 0.54562 0.29607 0.35841 0.0
H1731 H 0.53016 0.28914 0.31261 0.0
H1732 H 0.5565 0.30889 0.30125 0.0
H1733 H 0.52453 0.31717 0.29288 0.0
H1734 H 0.50624 0.41025 0.32873 0.0
H1735 H 0.54861 0.43096 0.32538 0.0
H1736 H 0.58268 0.35451 0.32377 0.0
C1737 C 0.49309 0.31154 0.35389 0.0
C1738 C 0.47068 0.32002 0.36549 0.0
C1739 C 0.46256 0.34594 0.36181 0.0
C1740 C 0.47704 0.36361 0.34734 0.0
C1741 C 0.49971 0.35509 0.33693 0.0
C1742 C 0.50778 0.32962 0.34006 0.0
C1743 C 0.53509 0.32691 0.3317 0.0
C1744 C 0.55171 0.3163 0.35313 0.0
C1745 C 0.53665 0.3095 0.30821 0.0
C1746 C 0.54178 0.35523 0.32545 0.0
C1747 C 0.52072 0.3709 0.32751 0.0
C1748 C 0.52268 0.39816 0.32625 0.0
C1749 C 0.54681 0.40978 0.32428 0.0
C1750 C 0.56866 0.3942 0.32367 0.0
C1751 C 0.56608 0.36665 0.32307 0.0
H1752 H 0.4192 0.14082 0.83602 0.0
H1753 H 0.39023 0.21311 0.8054 0.0
H1754 H 0.38961 0.19343 0.76303 0.0
H1755 H 0.45614 0.11939 0.77792 0.0
H1756 H 0.44674 0.08563 0.78299 0.0
H1757 H 0.4515 0.10728 0.80945 0.0
H1758 H 0.40608 0.09606 0.82518 0.0
H1759 H 0.4012 0.07453 0.79888 0.0
H1760 H 0.37957 0.10085 0.8044 0.0
H1761 H 0.38413 0.16428 0.72661 0.0
H1762 H 0.372 0.1272 0.69922 0.0
H1763 H 0.40368 0.07296 0.75297 0.0
C1764 C 0.41378 0.15282 0.82019 0.0
C1765 C 0.40508 0.17855 0.82384 0.0
C1766 C 0.39714 0.19341 0.80291 0.0
C1767 C 0.39693 0.18247 0.77877 0.0
C1768 C 0.40472 0.15667 0.77589 0.0
C1769 C 0.41308 0.14202 0.79602 0.0
C1770 C 0.41631 0.11354 0.78872 0.0
C1771 C 0.44434 0.10602 0.78983 0.0
C1772 C 0.3998 0.09519 0.80526 0.0
C1773 C 0.40689 0.11414 0.76184 0.0
C1774 C 0.40105 0.13937 0.7546 0.0
C1775 C 0.38921 0.14454 0.73179 0.0
C1776 C 0.38229 0.12334 0.7164 0.0
C1777 C 0.38707 0.09728 0.72395 0.0
C1778 C 0.40042 0.09274 0.74647 0.0
H1779 H 0.8839 0.43153 0.25294 0.0
H1780 H 0.95484 0.47192 0.23493 0.0
H1781 H 0.96707 0.43469 0.20826 0.0
H1782 H 0.90889 0.36336 0.25219 0.0
H1783 H 0.88017 0.3507 0.23797 0.0
H1784 H 0.87903 0.3785 0.25882 0.0
H1785 H 0.85674 0.40511 0.22387 0.0
H1786 H 0.85809 0.37739 0.20311 0.0
H1787 H 0.87171 0.40851 0.19354 0.0
H1788 H 0.96912 0.39585 0.17944 0.0
H1789 H 0.96029 0.35924 0.15019 0.0
H1790 H 0.88829 0.3442 0.18764 0.0
C1791 C 0.90228 0.43235 0.24387 0.0
C1792 C 0.91838 0.45469 0.24605 0.0
C1793 C 0.94212 0.45505 0.23355 0.0
C1794 C 0.94933 0.43391 0.21847 0.0
C1795 C 0.93273 0.41245 0.21629 0.0
C1796 C 0.90976 0.41146 0.22879 0.0
C1797 C 0.89425 0.38741 0.22142 0.0
C1798 C 0.89038 0.3689 0.24396 0.0
C1799 C 0.86871 0.39508 0.20979 0.0
C1800 C 0.91164 0.3756 0.20207 0.0
C1801 C 0.93393 0.39004 0.19966 0.0
C1802 C 0.95194 0.3841 0.18147 0.0
C1803 C 0.94673 0.36326 0.16491 0.0
C1804 C 0.92359 0.34878 0.16656 0.0
C1805 C 0.90626 0.35467 0.18593 0.0
H1806 H 0.08509 0.10426 0.60687 0.0
H1807 H 0.04468 0.03548 0.63403 0.0
H1808 H 0.00926 0.06295 0.64773 0.0
H1809 H 0.05829 0.1529 0.65621 0.0
H1810 H 0.05721 0.17816 0.63254 0.0
H1811 H 0.08198 0.15429 0.6318 0.0
H1812 H 0.06952 0.14256 0.58604 0.0
H1813 H 0.04449 0.16582 0.58675 0.0
H1814 H 0.03743 0.13198 0.57928 0.0
H1815 H 0.97453 0.09512 0.64687 0.0
H1816 H 0.94498 0.13059 0.63591 0.0
H1817 H 0.00833 0.17957 0.61198 0.0
C1818 C 0.06948 0.09538 0.61724 0.0
C1819 C 0.06767 0.06796 0.62005 0.0
C1820 C 0.04648 0.05653 0.63232 0.0
C1821 C 0.02631 0.07203 0.64012 0.0
C1822 C 0.02791 0.099 0.63582 0.0
C1823 C 0.04931 0.11072 0.62528 0.0
C1824 C 0.04493 0.13932 0.61931 0.0
C1825 C 0.06159 0.15723 0.63597 0.0
C1826 C 0.04934 0.14522 0.59119 0.0
C1827 C 0.01724 0.14131 0.62632 0.0
C1828 C 0.0078 0.11797 0.63616 0.0
C1829 C 0.98187 0.11384 0.64025 0.0
C1830 C 0.96521 0.13394 0.63391 0.0
C1831 C 0.97468 0.15781 0.62391 0.0
C1832 C 0.00095 0.16174 0.6206 0.0
H1833 H 0.65993 0.87786 0.73162 0.0
H1834 H 0.59972 0.93216 0.74794 0.0
H1835 H 0.58381 0.90246 0.78121 0.0
H1836 H 0.62315 0.81535 0.7476 0.0
H1837 H 0.65093 0.80113 0.76133 0.0
H1838 H 0.65412 0.82346 0.7352 0.0
H1839 H 0.6851 0.85258 0.76131 0.0
H1840 H 0.6819 0.83044 0.78739 0.0
H1841 H 0.67517 0.86471 0.79152 0.0
H1842 H 0.57915 0.87117 0.81735 0.0
H1843 H 0.58616 0.84096 0.85289 0.0
H1844 H 0.64943 0.80736 0.81279 0.0
C1845 C 0.64287 0.88316 0.74156 0.0
C1846 C 0.6311 0.9074 0.73709 0.0
C1847 C 0.60906 0.91369 0.7509 0.0
C1848 C 0.59981 0.89687 0.76981 0.0
C1849 C 0.61257 0.87368 0.77446 0.0
C1850 C 0.63345 0.86663 0.76047 0.0
C1851 C 0.64568 0.8424 0.77111 0.0
C1852 C 0.64331 0.81922 0.75272 0.0
C1853 C 0.67359 0.84789 0.77827 0.0
C1854 C 0.62934 0.83789 0.79412 0.0
C1855 C 0.60997 0.85569 0.79545 0.0
C1856 C 0.5939 0.85676 0.81624 0.0
C1857 C 0.59806 0.83956 0.83637 0.0
C1858 C 0.61837 0.82182 0.83568 0.0
C1859 C 0.63367 0.82061 0.81392 0.0
H1860 H 0.43556 0.64413 0.30267 0.0
H1861 H 0.46121 0.56666 0.32239 0.0
H1862 H 0.50358 0.58496 0.33223 0.0
H1863 H 0.501 0.67186 0.27967 0.0
H1864 H 0.49443 0.70321 0.29362 0.0
H1865 H 0.46894 0.68344 0.28057 0.0
H1866 H 0.44526 0.68573 0.32318 0.0
H1867 H 0.47075 0.70502 0.33639 0.0
H1868 H 0.46088 0.67478 0.35135 0.0
H1869 H 0.53803 0.61148 0.35007 0.0
H1870 H 0.56338 0.64479 0.37302 0.0
H1871 H 0.51704 0.70607 0.34187 0.0
C1872 C 0.45062 0.63098 0.30766 0.0
C1873 C 0.44547 0.60399 0.31128 0.0
C1874 C 0.46507 0.58734 0.3191 0.0
C1875 C 0.48919 0.59755 0.32468 0.0
C1876 C 0.49344 0.62448 0.32231 0.0
C1877 C 0.47486 0.64102 0.3136 0.0
C1878 C 0.48301 0.66955 0.31681 0.0
C1879 C 0.48709 0.68279 0.29114 0.0
C1880 C 0.46384 0.68463 0.3329 0.0
C1881 C 0.508 0.66638 0.33044 0.0
C1882 C 0.51393 0.6402 0.33283 0.0
C1883 C 0.53411 0.63207 0.34763 0.0
C1884 C 0.54829 0.65109 0.36074 0.0
C1885 C 0.5423 0.67792 0.35891 0.0
C1886 C 0.52242 0.68571 0.34296 0.0
H1887 H 0.73083 0.56974 0.59367 0.0
H1888 H 0.68116 0.52069 0.54769 0.0
H1889 H 0.65283 0.55839 0.54155 0.0
H1890 H 0.68311 0.60304 0.62517 0.0
H1891 H 0.70061 0.63374 0.62634 0.0
H1892 H 0.71728 0.60336 0.62523 0.0
H1893 H 0.74156 0.62017 0.58626 0.0
H1894 H 0.72434 0.65027 0.58598 0.0
H1895 H 0.72444 0.62963 0.55846 0.0
H1896 H 0.62888 0.60148 0.54277 0.0
H1897 H 0.61032 0.6442 0.55359 0.0
H1898 H 0.67709 0.66382 0.59796 0.0
C1899 C 0.7142 0.56684 0.58199 0.0
C1900 C 0.70831 0.54228 0.57101 0.0
C1901 C 0.68606 0.53935 0.55629 0.0
C1902 C 0.66998 0.56069 0.55255 0.0
C1903 C 0.67656 0.58472 0.56358 0.0
C1904 C 0.69815 0.58776 0.57805 0.0
C1905 C 0.70041 0.61488 0.58927 0.0
C1906 C 0.70033 0.61367 0.6182 0.0
C1907 C 0.72408 0.6296 0.57937 0.0
C1908 C 0.67646 0.62665 0.57925 0.0
C1909 C 0.66299 0.60917 0.56425 0.0
C1910 C 0.63942 0.61538 0.55426 0.0
C1911 C 0.62907 0.63974 0.56045 0.0
C1912 C 0.64223 0.65738 0.57667 0.0
C1913 C 0.66654 0.65091 0.58544 0.0
H1914 H 0.04376 0.85819 0.61904 0.0
H1915 H 0.99465 0.79431 0.64377 0.0
H1916 H 0.96305 0.82614 0.65789 0.0
H1917 H 0.01907 0.90922 0.66891 0.0
H1918 H 0.02201 0.93501 0.64597 0.0
H1919 H 0.04478 0.90911 0.64659 0.0
H1920 H 0.03599 0.8984 0.59995 0.0
H1921 H 0.01411 0.92459 0.59869 0.0
H1922 H 0.00382 0.89192 0.58986 0.0
H1923 H 0.93231 0.86191 0.65532 0.0
H1924 H 0.9068 0.89683 0.63635 0.0
H1925 H 0.97549 0.93833 0.61444 0.0
C1926 C 0.02686 0.85108 0.62859 0.0
C1927 C 0.02151 0.82395 0.63025 0.0
C1928 C 0.9992 0.81508 0.64257 0.0
C1929 C 0.98116 0.83308 0.65071 0.0
C1930 C 0.98608 0.85983 0.64701 0.0
C1931 C 0.00882 0.86883 0.63685 0.0
C1932 C 0.00795 0.89775 0.63064 0.0
C1933 C 0.02444 0.9137 0.64914 0.0
C1934 C 0.01587 0.90343 0.60317 0.0
C1935 C 0.98013 0.90259 0.63516 0.0
C1936 C 0.96806 0.88099 0.64594 0.0
C1937 C 0.94165 0.87929 0.64781 0.0
C1938 C 0.92723 0.89925 0.63703 0.0
C1939 C 0.93936 0.9202 0.62416 0.0
C1940 C 0.96598 0.92268 0.6247 0.0
H1941 H 0.07631 0.63363 0.1728 0.0
H1942 H 0.0351 0.59111 0.11462 0.0
H1943 H 0.02673 0.55479 0.1445 0.0
H1944 H 0.10871 0.58267 0.19459 0.0
H1945 H 0.10822 0.59175 0.22733 0.0
H1946 H 0.10568 0.61656 0.2036 0.0
H1947 H 0.06353 0.63195 0.22315 0.0
H1948 H 0.06598 0.60718 0.24719 0.0
H1949 H 0.03789 0.6086 0.228 0.0
H1950 H 0.02946 0.52011 0.17851 0.0
H1951 H 0.04403 0.49069 0.21244 0.0
H1952 H 0.08383 0.55632 0.24739 0.0
C1953 C 0.0649 0.61702 0.16647 0.0
C1954 C 0.05641 0.61519 0.14136 0.0
C1955 C 0.04167 0.59304 0.13383 0.0
C1956 C 0.03676 0.57233 0.15071 0.0
C1957 C 0.04639 0.57431 0.17509 0.0
C1958 C 0.05991 0.59632 0.18298 0.0
C1959 C 0.07102 0.59258 0.20887 0.0
C1960 C 0.10011 0.59607 0.20855 0.0
C1961 C 0.05887 0.61118 0.22793 0.0
C1962 C 0.06304 0.56444 0.21372 0.0
C1963 C 0.04824 0.55435 0.19443 0.0
C1964 C 0.04061 0.52797 0.19394 0.0
C1965 C 0.04896 0.51139 0.21325 0.0
C1966 C 0.06518 0.52125 0.23236 0.0
C1967 C 0.07147 0.54825 0.23296 0.0
H1968 H 0.19879 0.50484 0.33102 0.0
H1969 H 0.19127 0.54866 0.26149 0.0
H1970 H 0.23695 0.55914 0.26207 0.0
H1971 H 0.24539 0.54942 0.35956 0.0
H1972 H 0.2627 0.52348 0.37433 0.0
H1973 H 0.22921 0.51941 0.3686 0.0
H1974 H 0.23768 0.47671 0.34384 0.0
H1975 H 0.27122 0.4808 0.34925 0.0
H1976 H 0.25932 0.47762 0.31761 0.0
H1977 H 0.2836 0.56339 0.26882 0.0
H1978 H 0.3279 0.56461 0.28366 0.0
H1979 H 0.30558 0.51995 0.34981 0.0
C1980 C 0.20674 0.51687 0.31609 0.0
C1981 C 0.19138 0.52599 0.29627 0.0
C1982 C 0.20254 0.54159 0.27701 0.0
C1983 C 0.22854 0.54756 0.27706 0.0
C1984 C 0.24321 0.53804 0.29664 0.0
C1985 C 0.23274 0.52334 0.316 0.0
C1986 C 0.25286 0.51594 0.33495 0.0
C1987 C 0.2472 0.52778 0.36089 0.0
C1988 C 0.25542 0.48599 0.33649 0.0
C1989 C 0.27619 0.52873 0.32314 0.0
C1990 C 0.27018 0.54113 0.30091 0.0
C1991 C 0.28854 0.55392 0.2863 0.0
C1992 C 0.31368 0.55443 0.29485 0.0
C1993 C 0.32019 0.54252 0.31794 0.0
C1994 C 0.30116 0.52933 0.33212 0.0
H1995 H 0.72381 0.26362 0.54727 0.0
H1996 H 0.6466 0.26205 0.57528 0.0
H1997 H 0.64959 0.30961 0.58338 0.0
H1998 H 0.74883 0.31632 0.5907 0.0
H1999 H 0.76855 0.33043 0.56635 0.0
H2000 H 0.76172 0.29566 0.56655 0.0
H2001 H 0.74449 0.29889 0.52098 0.0
H2002 H 0.75102 0.33366 0.52088 0.0
H2003 H 0.71948 0.32142 0.51424 0.0
H2004 H 0.65824 0.35779 0.58194 0.0
H2005 H 0.67424 0.40327 0.5769 0.0
H2006 H 0.7464 0.37423 0.55084 0.0
C2007 C 0.70797 0.27306 0.55621 0.0
C2008 C 0.68507 0.25905 0.561 0.0
C2009 C 0.66441 0.27233 0.57177 0.0
C2010 C 0.66588 0.29939 0.57629 0.0
C2011 C 0.6882 0.3129 0.57007 0.0
C2012 C 0.7091 0.30017 0.56076 0.0
C2013 C 0.73016 0.31965 0.55404 0.0
C2014 C 0.75371 0.31525 0.57039 0.0
C2015 C 0.73666 0.31831 0.52587 0.0
C2016 C 0.71761 0.3453 0.56053 0.0
C2017 C 0.69336 0.3409 0.56963 0.0
C2018 C 0.67736 0.36148 0.5753 0.0
C2019 C 0.68654 0.38725 0.57214 0.0
C2020 C 0.71157 0.39228 0.56356 0.0
C2021 C 0.72726 0.37097 0.55765 0.0
H2022 H 0.81698 0.98755 0.64346 0.0
H2023 H 0.80116 0.9887 0.56354 0.0
H2024 H 0.75618 0.99839 0.57248 0.0
H2025 H 0.7625 0.95642 0.66343 0.0
H2026 H 0.7585 0.97562 0.69155 0.0
H2027 H 0.7896 0.97165 0.67854 0.0
H2028 H 0.79575 0.02212 0.67627 0.0
H2029 H 0.76453 0.02644 0.68915 0.0
H2030 H 0.77298 0.04145 0.6596 0.0
H2031 H 0.71168 1.0007 0.59095 0.0
H2032 H 0.67278 0.99823 0.61728 0.0
H2033 H 0.71912 1.00079 0.68427 0.0
C2034 C 0.8041 0.99027 0.62787 0.0
C2035 C 0.81232 0.98727 0.60287 0.0
C2036 C 0.7951 0.99106 0.58285 0.0
C2037 C 0.76958 0.99656 0.58775 0.0
C2038 C 0.76191 0.99893 0.61274 0.0
C2039 C 0.77885 0.99644 0.63242 0.0
C2040 C 0.76587 0.99897 0.65758 0.0
C2041 C 0.76932 0.97419 0.6737 0.0
C2042 C 0.77534 0.02372 0.67147 0.0
C2043 C 0.73874 0.00168 0.64909 0.0
C2044 C 0.73671 0.00183 0.62318 0.0
C2045 C 0.71312 1.00131 0.61124 0.0
C2046 C 0.69116 0.99997 0.62625 0.0
C2047 C 0.69315 0.99935 0.65273 0.0
C2048 C 0.71713 1.00109 0.66414 0.0
H2049 H 0.22755 0.88207 0.95798 0.0
H2050 H 0.30106 0.91393 0.93583 0.0
H2051 H 0.31965 0.87019 0.94121 0.0
H2052 H 0.25065 0.839 0.00649 0.0
H2053 H 0.22726 0.81384 -0.00013 0.0
H2054 H 0.22045 0.84761 0.99338 0.0
H2055 H 0.20991 0.83406 0.94732 0.0
H2056 H 0.21806 0.80059 0.95393 0.0
H2057 H 0.23366 0.81813 0.9287 0.0
H2058 H 0.3303 0.82333 0.94878 0.0
H2059 H 0.33412 0.77819 0.96442 0.0
H2060 H 0.25416 0.77652 0.98369 0.0
C2061 C 0.24756 0.87981 0.95424 0.0
C2062 C 0.26285 0.9014 0.9463 0.0
C2063 C 0.289 0.89772 0.94191 0.0
C2064 C 0.29967 0.87288 0.9447 0.0
C2065 C 0.28399 0.85192 0.95206 0.0
C2066 C 0.25861 0.85519 0.95729 0.0
C2067 C 0.24636 0.82971 0.96643 0.0
C2068 C 0.23556 0.83275 0.99312 0.0
C2069 C 0.22578 0.82006 0.94799 0.0
C2070 C 0.26899 0.81178 0.96612 0.0
C2071 C 0.29032 0.82488 0.95714 0.0
C2072 C 0.31371 0.81283 0.95571 0.0
C2073 C 0.31564 0.78707 0.96457 0.0
C2074 C 0.29442 0.77363 0.97519 0.0
C2075 C 0.27063 0.786 0.97529 0.0
H2076 H 0.17852 0.47751 0.81888 0.0
H2077 H 0.17487 0.52233 0.88808 0.0
H2078 H 0.22008 0.53481 0.88356 0.0
H2079 H 0.24017 0.45195 0.82991 0.0
H2080 H 0.24981 0.45355 0.79742 0.0
H2081 H 0.21679 0.44918 0.8053 0.0
H2082 H 0.20584 0.49025 0.77902 0.0
H2083 H 0.23879 0.49462 0.77091 0.0
H2084 H 0.22196 0.52101 0.78548 0.0
H2085 H 0.26536 0.54273 0.87144 0.0
H2086 H 0.30824 0.5449 0.8528 0.0
H2087 H 0.28316 0.4929 0.79282 0.0
C2088 C 0.18718 0.49019 0.8329 0.0
C2089 C 0.17322 0.49913 0.85374 0.0
C2090 C 0.18527 0.51533 0.87194 0.0
C2091 C 0.21091 0.52251 0.86955 0.0
C2092 C 0.22426 0.51308 0.84899 0.0
C2093 C 0.21288 0.49722 0.831 0.0
C2094 C 0.23176 0.4891 0.81116 0.0
C2095 C 0.23481 0.45917 0.81095 0.0
C2096 C 0.22413 0.49937 0.7851 0.0
C2097 C 0.25549 0.50296 0.82077 0.0
C2098 C 0.25069 0.51682 0.84253 0.0
C2099 C 0.26942 0.53184 0.8545 0.0
C2100 C 0.29368 0.53294 0.84381 0.0
C2101 C 0.29902 0.51886 0.82156 0.0
C2102 C 0.2797 0.50351 0.81007 0.0
H2103 H 0.78859 0.60942 0.04268 0.0
H2104 H 0.70786 0.61695 0.05591 0.0
H2105 H 0.71192 0.66477 0.05045 0.0
H2106 H 0.80838 0.66943 0.07466 0.0
H2107 H 0.83288 0.67752 0.0522 0.0
H2108 H 0.82401 0.64371 0.05777 0.0
H2109 H 0.8149 0.63725 0.01027 0.0
H2110 H 0.824 0.67093 0.00459 0.0
H2111 H 0.79327 0.6588 0.99465 0.0
H2112 H 0.72417 0.71168 0.04246 0.0
H2113 H 0.74374 0.75431 0.0306 0.0
H2114 H 0.81659 0.71705 0.02285 0.0
C2115 C 0.77181 0.62115 0.04447 0.0
C2116 C 0.74791 0.60933 0.04977 0.0
C2117 C 0.72639 0.62543 0.05188 0.0
C2118 C 0.72849 0.65269 0.04889 0.0
C2119 C 0.75227 0.66374 0.04383 0.0
C2120 C 0.77355 0.64853 0.04152 0.0
C2121 C 0.7967 0.66542 0.03526 0.0
C2122 C 0.81667 0.66393 0.05622 0.0
C2123 C 0.80787 0.65764 0.00967 0.0
C2124 C 0.78502 0.69238 0.0342 0.0
C2125 C 0.75938 0.69096 0.03935 0.0
C2126 C 0.74429 0.71309 0.0386 0.0
C2127 C 0.75559 0.73726 0.03192 0.0
C2128 C 0.78174 0.73914 0.02607 0.0
C2129 C 0.79665 0.7164 0.02766 0.0
H2130 H 0.793 0.04406 0.18732 0.0
H2131 H 0.81921 0.97123 0.15535 0.0
H2132 H 0.77572 0.96162 0.13947 0.0
H2133 H 0.73382 0.01632 0.20989 0.0
H2134 H 0.71706 0.04629 0.20462 0.0
H2135 H 0.75035 0.04749 0.21212 0.0
H2136 H 0.75954 0.07435 0.17155 0.0
H2137 H 0.72632 0.07347 0.16403 0.0
H2138 H 0.74901 0.06159 0.14163 0.0
H2139 H 0.72951 0.96268 0.1246 0.0
H2140 H 0.68475 0.97263 0.11464 0.0
H2141 H 0.68961 0.04132 0.16254 0.0
C2142 C 0.78977 0.026 0.17713 0.0
C2143 C 0.80941 0.0084 0.1725 0.0
C2144 C 0.80428 0.98499 0.15899 0.0
C2145 C 0.7797 0.97936 0.15003 0.0
C2146 C 0.7606 0.99702 0.15552 0.0
C2147 C 0.76542 0.01964 0.16912 0.0
C2148 C 0.74182 0.03511 0.17351 0.0
C2149 C 0.73538 0.03636 0.20171 0.0
C2150 C 0.74433 0.06275 0.16198 0.0
C2151 C 0.72292 0.01821 0.15943 0.0
C2152 C 0.73399 0.99638 0.14899 0.0
C2153 C 0.72052 0.97936 0.13315 0.0
C2154 C 0.69521 0.98513 0.12761 0.0
C2155 C 0.6838 0.00741 0.13828 0.0
C2156 C 0.6977 0.02372 0.15475 0.0
H2157 H 0.24408 0.22716 0.47245 0.0
H2158 H 0.17346 0.22805 0.4307 0.0
H2159 H 0.17937 0.18188 0.41864 0.0
H2160 H 0.27862 0.18168 0.42983 0.0
H2161 H 0.2937 0.16576 0.45596 0.0
H2162 H 0.28575 0.1999 0.45808 0.0
H2163 H 0.26049 0.18988 0.49871 0.0
H2164 H 0.26738 0.15553 0.49643 0.0
H2165 H 0.23497 0.16593 0.49806 0.0
H2166 H 0.18925 0.1344 0.41668 0.0
H2167 H 0.20587 0.08965 0.41934 0.0
H2168 H 0.27094 0.11918 0.46129 0.0
C2169 C 0.23044 0.21803 0.45982 0.0
C2170 C 0.20845 0.23136 0.45221 0.0
C2171 C 0.19059 0.21836 0.43647 0.0
C2172 C 0.1937 0.19207 0.42966 0.0
C2173 C 0.21487 0.17909 0.43861 0.0
C2174 C 0.23323 0.19173 0.4529 0.0
C2175 C 0.25328 0.17274 0.46149 0.0
C2176 C 0.27938 0.18048 0.45069 0.0
C2177 C 0.25406 0.17091 0.49037 0.0
C2178 C 0.24318 0.14744 0.44994 0.0
C2179 C 0.22086 0.15157 0.43705 0.0
C2180 C 0.20699 0.131 0.42624 0.0
C2181 C 0.21648 0.10561 0.42806 0.0
C2182 C 0.23978 0.10099 0.44035 0.0
C2183 C 0.25324 0.12221 0.4515 0.0
H2184 H 0.22004 0.36569 0.47972 0.0
H2185 H 0.17851 0.34259 0.54665 0.0
H2186 H 0.17144 0.38911 0.55676 0.0
H2187 H 0.25248 0.41915 0.51188 0.0
H2188 H 0.2541 0.44046 0.48485 0.0
H2189 H 0.25389 0.40539 0.48077 0.0
H2190 H 0.21481 0.40751 0.45183 0.0
H2191 H 0.21457 0.44267 0.45516 0.0
H2192 H 0.18661 0.42337 0.46273 0.0
H2193 H 0.16549 0.43791 0.5572 0.0
H2194 H 0.17276 0.48579 0.55674 0.0
H2195 H 0.22419 0.47771 0.49362 0.0
C2196 C 0.20954 0.37054 0.49653 0.0
C2197 C 0.19921 0.35061 0.51212 0.0
C2198 C 0.18618 0.35753 0.53428 0.0
C2199 C 0.18192 0.38391 0.54006 0.0
C2200 C 0.19158 0.40313 0.52387 0.0
C2201 C 0.20606 0.39685 0.50317 0.0
C2202 C 0.21697 0.42137 0.49076 0.0
C2203 C 0.24609 0.42164 0.49214 0.0
C2204 C 0.20768 0.42386 0.4635 0.0
C2205 C 0.20582 0.44241 0.50737 0.0
C2206 C 0.19064 0.43141 0.52588 0.0
C2207 C 0.17774 0.44675 0.54312 0.0
C2208 C 0.18182 0.47399 0.54254 0.0
C2209 C 0.19944 0.48552 0.5255 0.0
C2210 C 0.21064 0.46957 0.50693 0.0
H2211 H 0.05379 0.53409 0.87147 0.0
H2212 H 0.04309 0.46218 0.91408 0.0
H2213 H 0.99913 0.47442 0.92353 0.0
H2214 H 0.01208 0.57569 0.91276 0.0
H2215 H 0.00061 0.59361 0.88599 0.0
H2216 H 0.03236 0.5812 0.88592 0.0
H2217 H 0.02279 0.55678 0.84423 0.0
H2218 H 0.99107 0.56895 0.84455 0.0
H2219 H 0.99612 0.53415 0.84265 0.0
H2220 H 0.95456 0.48966 0.92075 0.0
H2221 H 0.91354 0.50942 0.90953 0.0
H2222 H 0.9534 0.5734 0.87226 0.0
C2223 C 0.04243 0.52134 0.88344 0.0
C2224 C 0.05187 0.49722 0.89211 0.0
C2225 C 0.03635 0.48087 0.90744 0.0
C2226 C 0.01132 0.48765 0.9129 0.0
C2227 C 0.00229 0.51116 0.90341 0.0
C2228 C 0.01753 0.52807 0.88947 0.0
C2229 C 0.00268 0.55123 0.88002 0.0
C2230 C 0.01252 0.57695 0.8919 0.0
C2231 C 0.00322 0.55281 0.85114 0.0
C2232 C 0.97644 0.54396 0.88963 0.0
C2233 C 0.97664 0.52081 0.9032 0.0
C2234 C 0.95424 0.50828 0.911 0.0
C2235 C 0.93107 0.51954 0.90455 0.0
C2236 C 0.93058 0.54325 0.89088 0.0
C2237 C 0.95349 0.55584 0.88373 0.0
H2238 H 0.69388 0.46651 0.0631 0.0
H2239 H 0.70643 0.50164 0.98981 0.0
H2240 H 0.69629 0.45901 0.96966 0.0
H2241 H 0.72693 0.40959 0.04887 0.0
H2242 H 0.70713 0.38774 0.06732 0.0
H2243 H 0.71038 0.42172 0.07601 0.0
H2244 H 0.66175 0.42688 0.07413 0.0
H2245 H 0.65816 0.39274 0.06582 0.0
H2246 H 0.64482 0.41757 0.04597 0.0
H2247 H 0.68678 0.41163 0.95765 0.0
H2248 H 0.68163 0.36328 0.95496 0.0
H2249 H 0.68181 0.35844 0.03631 0.0
C2250 C 0.69417 0.46541 0.04282 0.0
C2251 C 0.70096 0.48749 0.02805 0.0
C2252 C 0.70113 0.48504 0.00152 0.0
C2253 C 0.69544 0.46088 0.98991 0.0
C2254 C 0.69003 0.4392 0.0051 0.0
C2255 C 0.68953 0.44122 0.03101 0.0
C2256 C 0.68612 0.41449 0.04318 0.0
C2257 C 0.70901 0.40802 0.05982 0.0
C2258 C 0.66123 0.41283 0.05816 0.0
C2259 C 0.68496 0.39709 0.02011 0.0
C2260 C 0.68666 0.41175 0.99829 0.0
C2261 C 0.68553 0.39998 0.97463 0.0
C2262 C 0.68263 0.37255 0.97326 0.0
C2263 C 0.68161 0.35716 0.99539 0.0
C2264 C 0.68285 0.36967 0.01907 0.0
H2265 H 0.94483 0.00631 0.23397 0.0
H2266 H 0.92709 0.01318 0.15463 0.0
H2267 H 0.9727 0.0124 0.14436 0.0
H2268 H 0.99855 0.04919 0.23251 0.0
H2269 H 0.01671 0.03095 0.255 0.0
H2270 H 0.9826 0.02979 0.25626 0.0
H2271 H 0.98267 0.97904 0.25303 0.0
H2272 H 0.01679 0.98002 0.25224 0.0
H2273 H 0.99928 0.96378 0.22746 0.0
H2274 H 0.01966 0.01097 0.14268 0.0
H2275 H 0.06585 0.00856 0.14975 0.0
H2276 H 0.05324 0.00617 0.2303 0.0
C2277 C 0.95061 0.00707 0.21444 0.0
C2278 C 0.93267 0.00949 0.19501 0.0
C2279 C 0.94074 0.01117 0.1697 0.0
C2280 C 0.96651 0.0108 0.1637 0.0
C2281 C 0.98383 0.00912 0.18331 0.0
C2282 C 0.97631 0.00725 0.20816 0.0
C2283 C 0.99888 0.00677 0.22566 0.0
C2284 C 0.99919 0.0306 0.2434 0.0
C2285 C -0.00056 0.98086 0.24046 0.0
C2286 C 0.02022 0.00858 0.20673 0.0
C2287 C 0.0111 0.00975 0.18241 0.0
C2288 C 0.0271 0.01029 0.16161 0.0
C2289 C 0.05321 0.00901 0.16579 0.0
C2290 C 0.06288 0.00763 0.19053 0.0
C2291 C 0.04625 0.0079 0.21124 0.0
H2292 H 0.26198 0.97153 0.47779 0.0
H2293 H 0.33959 0.99961 0.47009 0.0
H2294 H 0.35485 0.95654 0.48485 0.0
H2295 H 0.27083 0.92609 0.53184 0.0
H2296 H 0.24942 0.90184 0.51858 0.0
H2297 H 0.24475 0.93618 0.51247 0.0
H2298 H 0.24505 0.92628 0.46542 0.0
H2299 H 0.25127 0.89223 0.47021 0.0
H2300 H 0.27239 0.91189 0.45094 0.0
H2301 H 0.36144 0.90954 0.49818 0.0
H2302 H 0.35917 0.86127 0.5036 0.0
H2303 H 0.27742 0.86279 0.49696 0.0
C2304 C 0.28217 0.96886 0.4801 0.0
C2305 C 0.29971 0.98902 0.47365 0.0
C2306 C 0.32596 0.9845 0.47557 0.0
C2307 C 0.33473 0.96016 0.48394 0.0
C2308 C 0.31695 0.94044 0.48972 0.0
C2309 C 0.29119 0.94445 0.48758 0.0
C2310 C 0.27612 0.91915 0.49149 0.0
C2311 C 0.25929 0.92092 0.515 0.0
C2312 C 0.26034 0.91195 0.46809 0.0
C2313 C 0.2974 0.90015 0.49548 0.0
C2314 C 0.32077 0.91293 0.49524 0.0
C2315 C 0.34325 0.89939 0.4985 0.0
C2316 C 0.34179 0.87206 0.50164 0.0
C2317 C 0.31812 0.85861 0.50076 0.0
C2318 C 0.29569 0.87281 0.4978 0.0
H2319 H 0.43191 0.49573 0.80338 0.0
H2320 H 0.42298 0.57533 0.82992 0.0
H2321 H 0.46875 0.57802 0.84027 0.0
H2322 H 0.48171 0.47515 0.84694 0.0
H2323 H 0.49858 0.45754 0.82302 0.0
H2324 H 0.46467 0.46055 0.82094 0.0
H2325 H 0.46933 0.48086 0.77645 0.0
H2326 H 0.5032 0.47782 0.77836 0.0
H2327 H 0.48965 0.50932 0.77207 0.0
H2328 H 0.51509 0.57268 0.84607 0.0
H2329 H 0.56022 0.56205 0.84267 0.0
H2330 H 0.53992 0.48689 0.80911 0.0
C2331 C 0.43961 0.51343 0.81196 0.0
C2332 C 0.42414 0.53515 0.81653 0.0
C2333 C 0.43472 0.55846 0.82671 0.0
C2334 C 0.46056 0.56008 0.8327 0.0
C2335 C 0.47546 0.53837 0.82784 0.0
C2336 C 0.46549 0.51562 0.81735 0.0
C2337 C 0.48611 0.49635 0.81129 0.0
C2338 C 0.48255 0.47089 0.82646 0.0
C2339 C 0.48713 0.49077 0.78286 0.0
C2340 C 0.50927 0.51184 0.81999 0.0
C2341 C 0.50258 0.53582 0.82985 0.0
C2342 C 0.52058 0.55394 0.83848 0.0
C2343 C 0.54618 0.54768 0.83647 0.0
C2344 C 0.55358 0.52363 0.82561 0.0
C2345 C 0.53482 0.50532 0.81767 0.0
H2346 H 0.77116 0.87847 0.0164 0.0
H2347 H 0.8451 0.86582 0.9838 0.0
H2348 H 0.85141 0.9135 0.97835 0.0
H2349 H 0.75019 0.92797 0.98146 0.0
H2350 H 0.73712 0.94829 0.00555 0.0
H2351 H 0.73978 0.91358 0.01053 0.0
H2352 H 0.76587 0.92192 0.05069 0.0
H2353 H 0.76317 0.95681 0.04614 0.0
H2354 H 0.79396 0.94255 0.04948 0.0
H2355 H 0.84706 0.96124 0.97046 0.0
H2356 H 0.83231 0.00577 0.96087 0.0
H2357 H 0.76254 0.98897 0.0014 0.0
C2358 C 0.78888 0.88593 0.00871 0.0
C2359 C 0.80754 0.86857 0.00011 0.0
C2360 C 0.83045 0.8788 0.99007 0.0
C2361 C 0.83431 0.90589 0.98717 0.0
C2362 C 0.8154 0.92261 0.99526 0.0
C2363 C 0.79337 0.91314 0.00644 0.0
C2364 C 0.7759 0.93552 0.01287 0.0
C2365 C 0.74918 0.93108 0.00194 0.0
C2366 C 0.77466 0.93943 0.04149 0.0
C2367 C 0.79006 0.95837 0.00048 0.0
C2368 C 0.81331 0.95065 0.99146 0.0
C2369 C 0.82915 0.96771 0.9779 0.0
C2370 C 0.82066 0.99302 0.97258 0.0
C2371 C 0.7964 1.00098 0.98049 0.0
C2372 C 0.78139 0.9837 0.99549 0.0
H2373 H 0.44674 0.99921 0.14115 0.0
H2374 H 0.42675 0.01234 0.06312 0.0
H2375 H 0.4723 0.01231 0.05162 0.0
H2376 H 0.5036 0.03852 0.14286 0.0
H2377 H 0.51952 0.01579 0.16324 0.0
H2378 H 0.48561 0.01814 0.16435 0.0
H2379 H 0.48259 0.96825 0.15671 0.0
H2380 H 0.5164 0.96574 0.15359 0.0
H2381 H 0.49591 0.95445 0.12855 0.0
H2382 H 0.52007 0.01192 0.04928 0.0
H2383 H 0.56641 0.01259 0.05637 0.0
H2384 H 0.55392 0.9967 0.13558 0.0
C2385 C 0.45194 0.0026 0.1217 0.0
C2386 C 0.43343 0.00632 0.10302 0.0
C2387 C 0.44085 0.00984 0.07768 0.0
C2388 C 0.46656 0.00965 0.07099 0.0
C2389 C 0.48434 0.00538 0.08986 0.0
C2390 C 0.47732 0.00189 0.11468 0.0
C2391 C 0.49992 0.99729 0.13138 0.0
C2392 C 0.50232 0.01874 0.15163 0.0
C2393 C 0.49861 0.96978 0.14323 0.0
C2394 C 0.52094 0.99943 0.1122 0.0
C2395 C 0.51161 0.00395 0.08833 0.0
C2396 C 0.52759 0.00807 0.06781 0.0
C2397 C 0.55382 0.00831 0.07198 0.0
C2398 C 0.56363 0.00432 0.09642 0.0
C2399 C 0.54696 0.99917 0.11659 0.0
H2400 H 0.44301 0.2617 0.21244 0.0
H2401 H 0.36474 0.24058 0.19651 0.0
H2402 H 0.35514 0.24106 0.24213 0.0
H2403 H 0.44881 0.21874 0.26154 0.0
H2404 H 0.46971 0.23913 0.2803 0.0
H2405 H 0.46934 0.2428 0.24669 0.0
H2406 H 0.45948 0.29218 0.25124 0.0
H2407 H 0.46033 0.28879 0.28494 0.0
H2408 H 0.43274 0.30194 0.26989 0.0
H2409 H 0.35507 0.24132 0.28998 0.0
H2410 H 0.3653 0.23843 0.33556 0.0
H2411 H 0.44455 0.25352 0.31874 0.0
C2412 C 0.42365 0.25823 0.21855 0.0
C2413 C 0.40442 0.25178 0.20115 0.0
C2414 C 0.37955 0.24604 0.20972 0.0
C2415 C 0.37397 0.24627 0.23552 0.0
C2416 C 0.39362 0.2518 0.25235 0.0
C2417 C 0.418 0.25758 0.24416 0.0
C2418 C 0.43646 0.25936 0.26583 0.0
C2419 C 0.45729 0.23877 0.26344 0.0
C2420 C 0.44792 0.28723 0.26811 0.0
C2421 C 0.41881 0.25314 0.28743 0.0
C2422 C 0.39405 0.24951 0.27948 0.0
C2423 C 0.37441 0.244 0.29639 0.0
C2424 C 0.38032 0.24225 0.3221 0.0
C2425 C 0.4057 0.2451 0.33022 0.0
C2426 C 0.42508 0.2506 0.31272 0.0
H2427 H 0.15251 0.75537 0.28586 0.0
H2428 H 0.07665 0.73434 0.31191 0.0
H2429 H 0.06642 0.71568 0.27092 0.0
H2430 H 0.13594 0.77304 0.22371 0.0
H2431 H 0.16268 0.75832 0.20851 0.0
H2432 H 0.16534 0.7695 0.24053 0.0
H2433 H 0.17911 0.72325 0.25452 0.0
H2434 H 0.17665 0.71195 0.22249 0.0
H2435 H 0.15928 0.69514 0.24703 0.0
H2436 H 0.06197 0.7035 0.22739 0.0
H2437 H 0.06535 0.69317 0.18238 0.0
H2438 H 0.14466 0.71742 0.18308 0.0
C2439 C 0.13395 0.74648 0.28291 0.0
C2440 C 0.11548 0.74624 0.30216 0.0
C2441 C 0.0913 0.73454 0.29765 0.0
C2442 C 0.08516 0.72392 0.27434 0.0
C2443 C 0.10351 0.72463 0.25573 0.0
C2444 C 0.12756 0.73507 0.25965 0.0
C2445 C 0.14344 0.73286 0.23594 0.0
C2446 C 0.15237 0.76005 0.22663 0.0
C2447 C 0.16596 0.71471 0.24026 0.0
C2448 C 0.12414 0.72044 0.21815 0.0
C2449 C 0.10125 0.71608 0.23016 0.0
C2450 C 0.07987 0.70638 0.21775 0.0
C2451 C 0.08191 0.70077 0.19222 0.0
C2452 C 0.10522 0.7045 0.17956 0.0
C2453 C 0.12674 0.71421 0.19262 0.0
H2454 H 0.42807 0.2767 0.46996 0.0
H2455 H 0.37308 0.21521 0.45225 0.0
H2456 H 0.36203 0.21179 0.49762 0.0
H2457 H 0.45043 0.24669 0.52772 0.0
H2458 H 0.45568 0.27807 0.54262 0.0
H2459 H 0.45883 0.27503 0.50903 0.0
H2460 H 0.42596 0.31174 0.5027 0.0
H2461 H 0.42289 0.31493 0.5362 0.0
H2462 H 0.39519 0.30842 0.51723 0.0
H2463 H 0.35444 0.21944 0.54496 0.0
H2464 H 0.35296 0.23505 0.58908 0.0
H2465 H 0.41759 0.28664 0.57452 0.0
C2466 C 0.41388 0.26229 0.47544 0.0
C2467 C 0.40135 0.2463 0.45759 0.0
C2468 C 0.38288 0.22768 0.46573 0.0
C2469 C 0.37657 0.22559 0.4914 0.0
C2470 C 0.38952 0.24171 0.50854 0.0
C2471 C 0.40811 0.25936 0.50078 0.0
C2472 C 0.41957 0.27443 0.52251 0.0
C2473 C 0.4478 0.26817 0.52565 0.0
C2474 C 0.41565 0.30412 0.51946 0.0
C2475 C 0.40395 0.26326 0.54382 0.0
C2476 C 0.38656 0.24453 0.53555 0.0
C2477 C 0.36837 0.23363 0.55169 0.0
C2478 C 0.36768 0.24259 0.57669 0.0
C2479 C 0.38525 0.26197 0.58525 0.0
C2480 C 0.40405 0.27165 0.56872 0.0
H2481 H 0.03342 0.73776 0.68487 0.0
H2482 H 0.11362 0.73316 0.66834 0.0
H2483 H 0.12331 0.73391 0.71385 0.0
H2484 H 0.04034 0.78446 0.73165 0.0
H2485 H 0.01523 0.77199 0.75157 0.0
H2486 H 0.01394 0.76641 0.71819 0.0
H2487 H 0.01007 0.71616 0.72533 0.0
H2488 H 0.01061 0.72162 0.75878 0.0
H2489 H 0.03319 0.70008 0.7446 0.0
H2490 H 0.12416 0.73707 0.7609 0.0
H2491 H 0.11593 0.74237 0.80651 0.0
H2492 H 0.03575 0.75021 0.7911 0.0
C2493 C 0.05289 0.7359 0.69096 0.0
C2494 C 0.0728 0.73479 0.67346 0.0
C2495 C 0.09819 0.73358 0.68177 0.0
C2496 C 0.10384 0.73408 0.70746 0.0
C2497 C 0.08384 0.73626 0.72435 0.0
C2498 C 0.05887 0.73709 0.71647 0.0
C2499 C 0.04113 0.74198 0.73818 0.0
C2500 C 0.02683 0.76774 0.73467 0.0
C2501 C 0.02267 0.71857 0.74195 0.0
C2502 C 0.06006 0.74409 0.7594 0.0
C2503 C 0.08455 0.74032 0.75115 0.0
C2504 C 0.10511 0.74027 0.7676 0.0
C2505 C 0.10034 0.74349 0.79332 0.0
C2506 C 0.07537 0.74738 0.80196 0.0
C2507 C 0.05512 0.74815 0.78477 0.0
H2508 H 0.06933 0.6989 0.93598 0.0
H2509 H 0.10309 0.77655 0.92657 0.0
H2510 H 0.11309 0.77769 0.97227 0.0
H2511 H 0.0378 0.7134 0.99227 0.0
H2512 H 0.04149 0.68098 0.0051 0.0
H2513 H 0.0399 0.68552 0.9716 0.0
H2514 H 0.08301 0.66246 0.96631 0.0
H2515 H 0.08468 0.65766 -0.00022 0.0
H2516 H 0.11025 0.67442 0.9836 0.0
H2517 H 0.11959 0.76877 0.01971 0.0
H2518 H 0.11901 0.75248 0.06376 0.0
H2519 H 0.07515 0.68414 0.03996 0.0
C2520 C 0.07894 0.7162 0.94328 0.0
C2521 C 0.08549 0.73762 0.92778 0.0
C2522 C 0.09803 0.75986 0.93825 0.0
C2523 C 0.10373 0.76066 0.96409 0.0
C2524 C 0.09631 0.73926 0.97895 0.0
C2525 C 0.08396 0.71761 0.96879 0.0
C2526 C 0.07614 0.69788 0.98847 0.0
C2527 C 0.04712 0.69425 0.98941 0.0
C2528 C 0.08932 0.67156 0.98428 0.0
C2529 C 0.08608 0.71164 0.01152 0.0
C2530 C 0.09811 0.73524 0.00583 0.0
C2531 C 0.10994 0.75048 0.02435 0.0
C2532 C 0.10951 0.74114 0.04922 0.0
C2533 C 0.0968 0.71721 0.05515 0.0
C2534 C 0.08473 0.70262 0.03608 0.0
H2535 H 0.55912 0.74903 0.30695 0.0
H2536 H 0.6393 0.76464 0.31813 0.0
H2537 H 0.64585 0.76406 0.27177 0.0
H2538 H 0.5674 0.70314 0.25564 0.0
H2539 H 0.53897 0.7132 0.23986 0.0
H2540 H 0.54119 0.7154 0.27358 0.0
H2541 H 0.53075 0.76482 0.27131 0.0
H2542 H 0.52861 0.76279 0.23761 0.0
H2543 H 0.54997 0.78639 0.25197 0.0
H2544 H 0.64216 0.76505 0.22378 0.0
H2545 H 0.62969 0.76326 0.17885 0.0
H2546 H 0.55268 0.74253 0.20059 0.0
C2547 C 0.57803 0.7525 0.29957 0.0
C2548 C 0.59868 0.75744 0.31575 0.0
C2549 C 0.6233 0.76111 0.30575 0.0
C2550 C 0.62712 0.76078 0.27957 0.0
C2551 C 0.6062 0.75599 0.26401 0.0
C2552 C 0.58223 0.75143 0.27375 0.0
C2553 C 0.56297 0.74579 0.25337 0.0
C2554 C 0.552 0.71772 0.25576 0.0
C2555 C 0.54184 0.76617 0.25358 0.0
C2556 C 0.57962 0.74869 0.23041 0.0
C2557 C 0.60446 0.75472 0.23682 0.0
C2558 C 0.62287 0.75991 0.21857 0.0
C2559 C 0.61563 0.75893 0.19317 0.0
C2560 C 0.59033 0.75244 0.18637 0.0
C2561 C 0.57226 0.74705 0.20526 0.0
H2562 H 0.38357 0.2645 0.06959 0.0
H2563 H 0.40371 0.18268 0.07825 0.0
H2564 H 0.40195 0.17672 0.0328 0.0
H2565 H 0.33776 0.24933 0.01585 0.0
H2566 H 0.34515 0.27991 0.00024 0.0
H2567 H 0.34639 0.27795 0.03405 0.0
H2568 H 0.39268 0.29571 0.03292 0.0
H2569 H 0.39186 0.29709 -0.00089 0.0
H2570 H 0.416 0.27861 0.01475 0.0
H2571 H 0.40854 0.18196 0.98798 0.0
H2572 H 0.40789 0.19306 0.94336 0.0
H2573 H 0.3741 0.26787 0.96063 0.0
C2574 C 0.38685 0.24521 0.0619 0.0
C2575 C 0.39461 0.22431 0.07744 0.0
C2576 C 0.39848 0.19924 0.06675 0.0
C2577 C 0.39752 0.19555 0.04089 0.0
C2578 C 0.39149 0.21679 0.02597 0.0
C2579 C 0.3849 0.24076 0.03587 0.0
C2580 C 0.3783 0.25974 0.01491 0.0
C2581 C 0.35023 0.26716 0.01634 0.0
C2582 C 0.39576 0.28423 0.01547 0.0
C2583 C 0.3835 0.24287 0.99197 0.0
C2584 C 0.3917 0.21845 -0.00092 0.0
C2585 C 0.40093 0.20047 0.98194 0.0
C2586 C 0.40054 0.20703 0.95654 0.0
C2587 C 0.38989 0.23077 0.94839 0.0
C2588 C 0.38164 0.2492 0.96638 0.0
H2589 H 0.30652 0.04019 0.65636 0.0
H2590 H 0.32789 0.95905 0.64708 0.0
H2591 H 0.28453 0.94841 0.63127 0.0
H2592 H 0.2463 0.02543 0.682 0.0
H2593 H 0.2315 0.05339 0.66788 0.0
H2594 H 0.26475 0.05476 0.67544 0.0
H2595 H 0.27552 0.06677 0.62922 0.0
H2596 H 0.2423 0.06566 0.6215 0.0
H2597 H 0.26416 0.04582 0.60418 0.0
H2598 H 0.23785 0.94774 0.61601 0.0
H2599 H 0.1927 0.95622 0.60606 0.0
H2600 H 0.20265 0.03647 0.63148 0.0
C2601 C 0.30233 0.02013 0.65098 0.0
C2602 C 0.32064 1.00043 0.65297 0.0
C2603 C 0.31416 0.97448 0.64557 0.0
C2604 C 0.2896 0.96829 0.63665 0.0
C2605 C 0.2718 0.98822 0.63569 0.0
C2606 C 0.27797 0.01356 0.64292 0.0
C2607 C 0.25537 0.03123 0.64208 0.0
C2608 C 0.24912 0.04181 0.66841 0.0
C2609 C 0.2596 0.05369 0.62311 0.0
C2610 C 0.23531 0.01201 0.63307 0.0
C2611 C 0.24507 0.98737 0.62902 0.0
C2612 C 0.23003 0.96687 0.61945 0.0
C2613 C 0.20448 0.97182 0.61388 0.0
C2614 C 0.19425 0.99681 0.61854 0.0
C2615 C 0.20988 0.01699 0.62836 0.0
H2616 H 0.72044 0.23105 0.95868 0.0
H2617 H 0.63915 0.21793 0.95272 0.0
H2618 H 0.64595 0.17133 0.94346 0.0
H2619 H 0.73675 0.18129 0.90776 0.0
H2620 H 0.76505 0.17208 0.92426 0.0
H2621 H 0.75397 0.20523 0.92634 0.0
H2622 H 0.75402 0.20143 0.97454 0.0
H2623 H 0.76411 0.16799 0.97294 0.0
H2624 H 0.73563 0.17592 0.98965 0.0
H2625 H 0.66094 0.12506 0.94083 0.0
H2626 H 0.68367 0.08306 0.9409 0.0
H2627 H 0.75518 0.12593 0.94807 0.0
C2628 C 0.70414 0.21861 0.95445 0.0
C2629 C 0.67925 0.22831 0.95628 0.0
C2630 C 0.65841 0.21114 0.95121 0.0
C2631 C 0.66206 0.18454 0.94598 0.0
C2632 C 0.68671 0.17534 0.94537 0.0
C2633 C 0.70747 0.19194 0.94891 0.0
C2634 C 0.7319 0.1767 0.94851 0.0
C2635 C 0.74785 0.18427 0.92534 0.0
C2636 C 0.74727 0.18073 0.97286 0.0
C2637 C 0.72144 0.14885 0.94618 0.0
C2638 C 0.69538 0.14854 0.94383 0.0
C2639 C 0.6814 0.12507 0.94217 0.0
C2640 C 0.69444 0.10129 0.94239 0.0
C2641 C 0.72117 0.10113 0.94447 0.0
C2642 C 0.73472 0.12532 0.94644 0.0
H2643 H 0.79374 0.46136 0.30368 0.0
H2644 H 0.81634 0.51736 0.36126 0.0
H2645 H 0.77314 0.51489 0.37924 0.0
H2646 H 0.73224 0.48694 0.29361 0.0
H2647 H 0.71712 0.4554 0.28843 0.0
H2648 H 0.75018 0.46023 0.28101 0.0
H2649 H 0.76163 0.42132 0.30992 0.0
H2650 H 0.72858 0.41625 0.31734 0.0
H2651 H 0.75132 0.42129 0.34224 0.0
H2652 H 0.72757 0.50662 0.39063 0.0
H2653 H 0.68235 0.49405 0.39428 0.0
H2654 H 0.68869 0.44485 0.3281 0.0
C2655 C 0.78969 0.47283 0.32028 0.0
C2656 C 0.80844 0.48938 0.33126 0.0
C2657 C 0.80228 0.50448 0.35265 0.0
C2658 C 0.77782 0.50319 0.36297 0.0
C2659 C 0.7597 0.4869 0.35153 0.0
C2660 C 0.76529 0.47203 0.33062 0.0
C2661 C 0.74209 0.45693 0.32131 0.0
C2662 C 0.73499 0.46539 0.29451 0.0
C2663 C 0.74616 0.42718 0.3228 0.0
C2664 C 0.72254 0.46563 0.34026 0.0
C2665 C 0.73317 0.48277 0.35762 0.0
C2666 C 0.71903 0.49327 0.37713 0.0
C2667 C 0.69335 0.486 0.37903 0.0
C2668 C 0.68198 0.46859 0.3614 0.0
C2669 C 0.69681 0.45837 0.34172 0.0
H2670 H 0.23822 0.62039 0.52726 0.0
H2671 H 0.30921 0.58333 0.54595 0.0
H2672 H 0.33084 0.62645 0.54639 0.0
H2673 H 0.26658 0.66846 0.48496 0.0
H2674 H 0.24519 0.69402 0.49373 0.0
H2675 H 0.23502 0.66018 0.49571 0.0
H2676 H 0.2236 0.66699 0.54264 0.0
H2677 H 0.23425 0.70073 0.54088 0.0
H2678 H 0.24754 0.67919 0.56406 0.0
H2679 H 0.345 0.67289 0.54532 0.0
H2680 H 0.35231 0.71989 0.53682 0.0
H2681 H 0.27288 0.72773 0.51744 0.0
C2682 C 0.25833 0.62141 0.53132 0.0
C2683 C 0.27201 0.59849 0.5366 0.0
C2684 C 0.29833 0.60057 0.5417 0.0
C2685 C 0.31078 0.62501 0.54223 0.0
C2686 C 0.29674 0.64724 0.53739 0.0
C2687 C 0.27124 0.64574 0.53155 0.0
C2688 C 0.26111 0.6727 0.52564 0.0
C2689 C 0.25141 0.6739 0.49839 0.0
C2690 C 0.24039 0.68034 0.54443 0.0
C2691 C 0.28493 0.68947 0.52913 0.0
C2692 C 0.30514 0.67433 0.53623 0.0
C2693 C 0.32934 0.68502 0.53981 0.0
C2694 C 0.33327 0.71177 0.53504 0.0
C2695 C 0.31316 0.7275 0.52663 0.0
C2696 C 0.28852 0.71631 0.52431 0.0
H2697 H 0.19901 0.96244 0.17238 0.0
H2698 H 0.18347 0.04525 0.16395 0.0
H2699 H 0.2294 0.05468 0.15932 0.0
H2700 H 0.25419 0.97275 0.21127 0.0
H2701 H 0.27056 0.94511 0.19841 0.0
H2702 H 0.23643 0.94474 0.19964 0.0
H2703 H 0.23407 0.93635 0.15148 0.0
H2704 H 0.26811 0.93598 0.15033 0.0
H2705 H 0.25104 0.95814 0.13044 0.0
H2706 H 0.27672 0.05439 0.15382 0.0
H2707 H 0.32168 0.04407 0.14605 0.0
H2708 H 0.30597 0.96248 0.16396 0.0
C2709 C 0.20515 0.98257 0.16945 0.0
C2710 C 0.18772 0.00314 0.16863 0.0
C2711 C 0.19658 0.02919 0.16459 0.0
C2712 C 0.22259 0.03475 0.1622 0.0
C2713 C 0.23934 0.0141 0.1644 0.0
C2714 C 0.23095 0.98854 0.16793 0.0
C2715 C 0.25272 0.96989 0.17012 0.0
C2716 C 0.25351 0.95739 0.19642 0.0
C2717 C 0.25141 0.94887 0.14935 0.0
C2718 C 0.27474 0.98881 0.16627 0.0
C2719 C 0.26666 0.01425 0.16312 0.0
C2720 C 0.28336 0.03469 0.15679 0.0
C2721 C 0.3088 0.02872 0.15255 0.0
C2722 C 0.31715 0.00267 0.15508 0.0
C2723 C 0.30015 0.98271 0.1629 0.0
H2724 H 0.72669 0.86925 0.45928 0.0
H2725 H 0.79865 0.90371 0.43531 0.0
H2726 H 0.81512 0.85968 0.42769 0.0
H2727 H 0.75196 0.81602 0.493 0.0
H2728 H 0.72845 0.79191 0.48367 0.0
H2729 H 0.72051 0.82604 0.48504 0.0
H2730 H 0.70578 0.82491 0.43906 0.0
H2731 H 0.71327 0.79063 0.43722 0.0
H2732 H 0.72686 0.81351 0.41492 0.0
H2733 H 0.82397 0.81296 0.42163 0.0
H2734 H 0.82866 0.7655 0.42672 0.0
H2735 H 0.7526 0.75948 0.4577 0.0
C2736 C 0.74591 0.86746 0.45246 0.0
C2737 C 0.76134 0.89002 0.4478 0.0
C2738 C 0.78645 0.88683 0.43907 0.0
C2739 C 0.79592 0.86187 0.43441 0.0
C2740 C 0.78017 0.84012 0.43869 0.0
C2741 C 0.75588 0.84248 0.44801 0.0
C2742 C 0.74377 0.81554 0.45257 0.0
C2743 C 0.73575 0.81217 0.4802 0.0
C2744 C 0.72108 0.81088 0.43488 0.0
C2745 C 0.76562 0.79787 0.44556 0.0
C2746 C 0.78593 0.81261 0.43659 0.0
C2747 C 0.8083 0.80116 0.42877 0.0
C2748 C 0.81069 0.77406 0.43158 0.0
C2749 C 0.79112 0.75866 0.44279 0.0
C2750 C 0.76783 0.77061 0.44885 0.0
H2751 H 0.80288 0.55406 0.82092 0.0
H2752 H 0.80609 0.52691 0.8981 0.0
H2753 H 0.75991 0.51707 0.897 0.0
H2754 H 0.74457 0.58715 0.82764 0.0
H2755 H 0.73377 0.57938 0.79632 0.0
H2756 H 0.7672 0.58231 0.80277 0.0
H2757 H 0.7738 0.53545 0.78525 0.0
H2758 H 0.74041 0.53242 0.77863 0.0
H2759 H 0.75553 0.50834 0.79803 0.0
H2760 H 0.71322 0.50943 0.88662 0.0
H2761 H 0.66972 0.5076 0.86887 0.0
H2762 H 0.69769 0.54376 0.80023 0.0
C2763 C 0.79397 0.54581 0.83753 0.0
C2764 C 0.80799 0.541 0.85952 0.0
C2765 C 0.79557 0.5306 0.88102 0.0
C2766 C 0.76943 0.52495 0.88055 0.0
C2767 C 0.75606 0.53026 0.85859 0.0
C2768 C 0.76793 0.54069 0.83757 0.0
C2769 C 0.74925 0.54601 0.81677 0.0
C2770 C 0.74867 0.57546 0.81052 0.0
C2771 C 0.7551 0.52957 0.79329 0.0
C2772 C 0.72498 0.53679 0.82926 0.0
C2773 C 0.72924 0.52745 0.85325 0.0
C2774 C 0.70964 0.51694 0.86796 0.0
C2775 C 0.68507 0.51597 0.85778 0.0
C2776 C 0.68043 0.52592 0.83342 0.0
C2777 C 0.70065 0.53652 0.81913 0.0
H2778 H 0.20203 0.28886 0.02274 0.0
H2779 H 0.27454 0.25097 0.01564 0.0
H2780 H 0.29636 0.29225 0.02883 0.0
H2781 H 0.22234 0.34838 0.9957 0.0
H2782 H 0.20292 0.36865 0.01531 0.0
H2783 H 0.19303 0.33543 0.00846 0.0
H2784 H 0.19006 0.32512 0.05612 0.0
H2785 H 0.1996 0.35843 0.06314 0.0
H2786 H 0.21715 0.33158 0.076 0.0
H2787 H 0.31004 0.33874 0.04145 0.0
H2788 H 0.31445 0.38597 0.05172 0.0
H2789 H 0.23284 0.39347 0.04716 0.0
C2790 C 0.22246 0.28894 0.02471 0.0
C2791 C 0.23658 0.26651 0.01877 0.0
C2792 C 0.26335 0.2678 0.02056 0.0
C2793 C 0.27588 0.29118 0.02793 0.0
C2794 C 0.26135 0.31316 0.03303 0.0
C2795 C 0.23521 0.31218 0.03144 0.0
C2796 C 0.22396 0.33887 0.0359 0.0
C2797 C 0.20973 0.34839 0.01245 0.0
C2798 C 0.20668 0.33847 0.05918 0.0
C2799 C 0.24781 0.35512 0.04044 0.0
C2800 C 0.2692 0.33996 0.03888 0.0
C2801 C 0.2934 0.35075 0.04267 0.0
C2802 C 0.29572 0.3776 0.04844 0.0
C2803 C 0.27402 0.39345 0.05005 0.0
C2804 C 0.24982 0.38197 0.0458 0.0
H2805 H 0.29875 0.52435 0.01954 0.0
H2806 H 0.32991 0.52667 0.09507 0.0
H2807 H 0.32627 0.57471 0.09554 0.0
H2808 H 0.3328 0.58547 0.99858 0.0
H2809 H 0.30684 0.59521 0.97885 0.0
H2810 H 0.31244 0.56092 0.98423 0.0
H2811 H 0.26611 0.55501 5e-05 0.0
H2812 H 0.26065 0.58941 0.99522 0.0
H2813 H 0.25524 0.57495 0.02571 0.0
H2814 H 0.31002 0.62043 0.09136 0.0
H2815 H 0.29885 0.6646 0.0773 0.0
H2816 H 0.28787 0.63565 0.00138 0.0
C2817 C 0.30564 0.53501 0.03584 0.0
C2818 C 0.31399 0.52158 0.05757 0.0
C2819 C 0.32299 0.53638 0.0784 0.0
C2820 C 0.32077 0.5637 0.07896 0.0
C2821 C 0.31064 0.57611 0.05806 0.0
C2822 C 0.3045 0.56254 0.03637 0.0
C2823 C 0.29536 0.58116 0.01612 0.0
C2824 C 0.31291 0.58066 0.99308 0.0
C2825 C 0.2677 0.57473 0.00885 0.0
C2826 C 0.29735 0.60722 0.02991 0.0
C2827 C 0.30509 0.60353 0.05442 0.0
C2828 C 0.30524 0.62385 0.07186 0.0
C2829 C 0.2989 0.64898 0.06365 0.0
C2830 C 0.29393 0.65397 0.03796 0.0
C2831 C 0.29248 0.6326 0.02098 0.0
H2832 H 0.78926 0.52511 0.56042 0.0
H2833 H 0.7618 0.49074 0.49073 0.0
H2834 H 0.77065 0.53255 0.46881 0.0
H2835 H 0.75823 0.58461 0.55194 0.0
H2836 H 0.78259 0.60497 0.56613 0.0
H2837 H 0.7788 0.57126 0.57561 0.0
H2838 H 0.82581 0.56296 0.56456 0.0
H2839 H 0.8297 0.5968 0.55527 0.0
H2840 H 0.8374 0.57102 0.53357 0.0
H2841 H 0.77898 0.57879 0.45511 0.0
H2842 H 0.78578 0.62656 0.45049 0.0
H2843 H 0.80281 0.63288 0.53005 0.0
C2844 C 0.78545 0.52621 0.5405 0.0
C2845 C 0.77466 0.50458 0.52734 0.0
C2846 C 0.77013 0.50695 0.50121 0.0
C2847 C 0.77503 0.53068 0.4886 0.0
C2848 C 0.78419 0.55205 0.50242 0.0
C2849 C 0.78939 0.5501 0.5278 0.0
C2850 C 0.79665 0.57675 0.53872 0.0
C2851 C 0.77794 0.58485 0.55933 0.0
C2852 C 0.82402 0.57689 0.54861 0.0
C2853 C 0.79428 0.59402 0.51563 0.0
C2854 C 0.78756 0.57921 0.49481 0.0
C2855 C 0.78428 0.59057 0.47126 0.0
C2856 C 0.78812 0.61773 0.46885 0.0
C2857 C 0.79459 0.63343 0.48993 0.0
C2858 C 0.79758 0.62139 0.51368 0.0
H2859 H 0.22397 0.13172 0.00028 0.0
H2860 H 0.18091 0.15392 0.93456 0.0
H2861 H 0.16849 0.10767 0.92754 0.0
H2862 H 0.25001 0.07533 0.97023 0.0
H2863 H 0.25073 0.05582 0.9984 0.0
H2864 H 0.25317 0.091 0.00039 0.0
H2865 H 0.21487 0.09094 0.03078 0.0
H2866 H 0.21195 0.05574 0.02847 0.0
H2867 H 0.18524 0.07587 0.02115 0.0
H2868 H 0.15897 0.05928 0.92883 0.0
H2869 H 0.16464 0.01141 0.92873 0.0
H2870 H 0.21959 0.01953 0.98907 0.0
C2871 C 0.21179 0.12676 0.98453 0.0
C2872 C 0.20263 0.14651 0.96845 0.0
C2873 C 0.18755 0.13927 0.9475 0.0
C2874 C 0.18025 0.11302 0.94346 0.0
C2875 C 0.1889 0.09407 0.96008 0.0
C2876 C 0.20526 0.10043 0.97954 0.0
C2877 C 0.21485 0.07587 0.99223 0.0
C2878 C 0.24389 0.07441 0.99017 0.0
C2879 C 0.20621 0.07454 0.0198 0.0
C2880 C 0.2016 0.05477 0.9766 0.0
C2881 C 0.18585 0.06578 0.95893 0.0
C2882 C 0.17148 0.05041 0.94238 0.0
C2883 C 0.17469 0.02317 0.94259 0.0
C2884 C 0.19299 0.01172 0.95844 0.0
C2885 C 0.20552 0.02763 0.97663 0.0
H2886 H 0.72499 0.126 0.51875 0.0
H2887 H 0.64307 0.12971 0.51682 0.0
H2888 H 0.64025 0.08222 0.50741 0.0
H2889 H 0.73362 0.08009 0.47028 0.0
H2890 H 0.75865 0.06298 0.48613 0.0
H2891 H 0.75348 0.09694 0.4929 0.0
H2892 H 0.74923 0.08472 0.54019 0.0
H2893 H 0.75368 0.05061 0.53287 0.0
H2894 H 0.72584 0.06048 0.54974 0.0
H2895 H 0.64671 0.03578 0.49319 0.0
H2896 H 0.66188 0.99267 0.47866 0.0
H2897 H 0.73919 0.01731 0.49499 0.0
C2898 C 0.70653 0.11663 0.51655 0.0
C2899 C 0.68422 0.13135 0.51826 0.0
C2900 C 0.66033 0.11863 0.51551 0.0
C2901 C 0.65856 0.09171 0.51021 0.0
C2902 C 0.68087 0.07763 0.50853 0.0
C2903 C 0.70439 0.08951 0.51214 0.0
C2904 C 0.72537 0.0698 0.50948 0.0
C2905 C 0.74385 0.07794 0.48841 0.0
C2906 C 0.73935 0.0662 0.53457 0.0
C2907 C 0.71007 0.0453 0.50261 0.0
C2908 C 0.68442 0.05026 0.50218 0.0
C2909 C 0.66668 0.03142 0.49412 0.0
C2910 C 0.6754 0.007 0.48597 0.0
C2911 C 0.70153 1.00144 0.48648 0.0
C2912 C 0.719 0.0207 0.49535 0.0
H2913 H 0.65906 0.71721 0.81392 0.0
H2914 H 0.71465 0.78101 0.81577 0.0
H2915 H 0.71599 0.78127 0.76944 0.0
H2916 H 0.68439 0.68386 0.75772 0.0
H2917 H 0.65356 0.67567 0.74535 0.0
H2918 H 0.6583 0.67743 0.77887 0.0
H2919 H 0.62301 0.71046 0.78343 0.0
H2920 H 0.61688 0.71134 0.75016 0.0
H2921 H 0.6247 0.74115 0.76662 0.0
H2922 H 0.70579 0.7794 0.72299 0.0
H2923 H 0.6886 0.77144 0.68006 0.0
H2924 H 0.64111 0.70817 0.70896 0.0
C2925 C 0.67229 0.73051 0.80464 0.0
C2926 C 0.68688 0.74892 0.81847 0.0
C2927 C 0.70353 0.76645 0.80558 0.0
C2928 C 0.70433 0.76686 0.77923 0.0
C2929 C 0.68873 0.74929 0.76611 0.0
C2930 C 0.67348 0.73103 0.77841 0.0
C2931 C 0.65709 0.71565 0.76012 0.0
C2932 C 0.66371 0.68642 0.76056 0.0
C2933 C 0.62876 0.71986 0.76542 0.0
C2934 C 0.66509 0.72841 0.73569 0.0
C2935 C 0.68328 0.74788 0.73944 0.0
C2936 C 0.692 0.76378 0.71975 0.0
C2937 C 0.68209 0.75931 0.69557 0.0
C2938 C 0.66386 0.73912 0.69154 0.0
C2939 C 0.65535 0.7235 0.71174 0.0
H2940 H 0.96406 0.24252 0.69633 0.0
H2941 H 0.88333 0.23432 0.68218 0.0
H2942 H 0.87508 0.23476 0.7279 0.0
H2943 H 0.9645 0.1996 0.75014 0.0
H2944 H 0.98823 0.21856 0.76689 0.0
H2945 H 0.98787 0.2187 0.73303 0.0
H2946 H 0.98536 0.26941 0.73296 0.0
H2947 H 0.98597 0.26944 0.7668 0.0
H2948 H 0.96047 0.28499 0.75033 0.0
H2949 H 0.87548 0.23798 0.77487 0.0
H2950 H 0.88473 0.24208 0.82033 0.0
H2951 H 0.96528 0.24425 0.80415 0.0
C2952 C 0.94465 0.2411 0.70291 0.0
C2953 C 0.92427 0.23866 0.68583 0.0
C2954 C 0.89917 0.23629 0.69504 0.0
C2955 C 0.8943 0.2365 0.72093 0.0
C2956 C 0.91481 0.23862 0.73733 0.0
C2957 C 0.9395 0.2407 0.72873 0.0
C2958 C 0.95812 0.24198 0.7504 0.0
C2959 C 0.97571 0.2183 0.75009 0.0
C2960 C 0.97337 0.26801 0.7501 0.0
C2961 C 0.94 0.24065 0.77248 0.0
C2962 C 0.9151 0.23889 0.7645 0.0
C2963 C 0.8949 0.23898 0.78138 0.0
C2964 C 0.9003 0.24127 0.8071 0.0
C2965 C 0.92566 0.24296 0.81562 0.0
C2966 C 0.94573 0.24227 0.79811 0.0
H2967 H 0.5787 0.75852 0.04145 0.0
H2968 H 0.6361 0.71342 0.07912 0.0
H2969 H 0.65706 0.70578 0.03788 0.0
H2970 H 0.5746 0.71801 0.9848 0.0
H2971 H 0.56915 0.74615 0.96516 0.0
H2972 H 0.55848 0.74598 0.99734 0.0
H2973 H 0.58375 0.7893 0.00546 0.0
H2974 H 0.59463 0.78953 0.97344 0.0
H2975 H 0.61726 0.79078 -0.00119 0.0
H2976 H 0.67402 0.70845 0.99222 0.0
H2977 H 0.68325 0.71801 0.94735 0.0
H2978 H 0.61202 0.75855 0.94132 0.0
C2979 C 0.59547 0.74678 0.04117 0.0
C2980 C 0.60591 0.73673 0.06343 0.0
C2981 C 0.62781 0.72121 0.06213 0.0
C2982 C 0.63979 0.71684 0.03885 0.0
C2983 C 0.62913 0.7276 0.0172 0.0
C2984 C 0.60714 0.74183 0.01829 0.0
C2985 C 0.59946 0.75199 0.99284 0.0
C2986 C 0.57391 0.73979 0.98455 0.0
C2987 C 0.59875 0.78218 0.99264 0.0
C2988 C 0.62099 0.74202 0.97714 0.0
C2989 C 0.63803 0.72802 0.99133 0.0
C2990 C 0.66049 0.7189 0.9809 0.0
C2991 C 0.6656 0.72445 0.95544 0.0
C2992 C 0.64825 0.73884 0.94082 0.0
C2993 C 0.62554 0.74722 0.95184 0.0
H2994 H 0.87516 0.25853 0.31037 0.0
H2995 H 0.79586 0.23554 0.31566 0.0
H2996 H 0.79059 0.24462 0.27007 0.0
H2997 H 0.8698 0.30951 0.26306 0.0
H2998 H 0.89849 0.30041 0.24714 0.0
H2999 H 0.89527 0.29504 0.28047 0.0
H3000 H 0.90465 0.24586 0.2746 0.0
H3001 H 0.90804 0.25071 0.24127 0.0
H3002 H 0.88565 0.22655 0.25301 0.0
H3003 H 0.79471 0.25653 0.22334 0.0
H3004 H 0.80856 0.26615 0.17956 0.0
H3005 H 0.88605 0.27566 0.20528 0.0
C3006 C 0.85651 0.25613 0.30208 0.0
C3007 C 0.8357 0.24709 0.31652 0.0
C3008 C 0.81186 0.24297 0.30487 0.0
C3009 C 0.80875 0.24804 0.27906 0.0
C3010 C 0.82984 0.25658 0.26522 0.0
C3011 C 0.85331 0.26029 0.27636 0.0
C3012 C 0.87353 0.26719 0.25721 0.0
C3013 C 0.88495 0.29467 0.26227 0.0
C3014 C 0.89418 0.24633 0.25649 0.0
C3015 C 0.85788 0.26673 0.23345 0.0
C3016 C 0.83262 0.26111 0.23839 0.0
C3017 C 0.81448 0.26064 0.21927 0.0
C3018 C 0.82246 0.26604 0.19454 0.0
C3019 C 0.84837 0.27095 0.18922 0.0
C3020 C 0.86621 0.27125 0.20889 0.0
H3021 H 0.92785 0.25929 0.5447 0.0
H3022 H 0.85592 0.244 0.58137 0.0
H3023 H 0.83383 0.2491 0.54048 0.0
H3024 H 0.90719 0.3037 0.49425 0.0
H3025 H 0.92737 0.2885 0.47136 0.0
H3026 H 0.93661 0.28941 0.50398 0.0
H3027 H 0.94057 0.23853 0.50427 0.0
H3028 H 0.93203 0.23796 0.47159 0.0
H3029 H 0.91411 0.21853 0.49393 0.0
H3030 H 0.82061 0.25016 0.49468 0.0
H3031 H 0.81752 0.24457 0.44856 0.0
H3032 H 0.89902 0.25504 0.4423 0.0
C3033 C 0.90745 0.2575 0.54418 0.0
C3034 C 0.89346 0.25152 0.56599 0.0
C3035 C 0.86678 0.24911 0.56474 0.0
C3036 C 0.85417 0.25194 0.54164 0.0
C3037 C 0.86868 0.25684 0.52012 0.0
C3038 C 0.89479 0.25947 0.52126 0.0
C3039 C 0.90649 0.26069 0.49534 0.0
C3040 C 0.92022 0.28716 0.49098 0.0
C3041 C 0.92434 0.23757 0.49104 0.0
C3042 C 0.88296 0.25802 0.47932 0.0
C3043 C 0.86127 0.25626 0.49386 0.0
C3044 C 0.83744 0.25189 0.48313 0.0
C3045 C 0.83587 0.24874 0.45694 0.0
C3046 C 0.85805 0.24947 0.44195 0.0
C3047 C 0.88174 0.25463 0.4533 0.0
H3048 H 0.39415 0.28973 0.7152 0.0
H3049 H 0.31396 0.29931 0.70091 0.0
H3050 H 0.30542 0.29643 0.74668 0.0
H3051 H 0.38874 0.24361 0.76302 0.0
H3052 H 0.41484 0.25657 0.78136 0.0
H3053 H 0.4144 0.26132 0.74789 0.0
H3054 H 0.41878 0.31161 0.75423 0.0
H3055 H 0.41906 0.30717 0.78785 0.0
H3056 H 0.39614 0.32829 0.77357 0.0
H3057 H 0.30557 0.28695 0.7933 0.0
H3058 H 0.31434 0.27189 0.83661 0.0
H3059 H 0.39481 0.27275 0.8203 0.0
C3060 C 0.37478 0.29124 0.7217 0.0
C3061 C 0.35463 0.29436 0.70465 0.0
C3062 C 0.3296 0.29673 0.71379 0.0
C3063 C 0.32463 0.29529 0.7397 0.0
C3064 C 0.34502 0.2922 0.75608 0.0
C3065 C 0.36961 0.29046 0.74739 0.0
C3066 C 0.38811 0.28622 0.7686 0.0
C3067 C 0.40235 0.2604 0.76501 0.0
C3068 C 0.40661 0.30973 0.77121 0.0
C3069 C 0.37 0.28467 0.79058 0.0
C3070 C 0.34522 0.28836 0.78305 0.0
C3071 C 0.32493 0.28474 0.79956 0.0
C3072 C 0.33006 0.27627 0.8241 0.0
C3073 C 0.35527 0.27182 0.83185 0.0
C3074 C 0.37546 0.27699 0.81513 0.0
H3075 H 0.59403 0.73626 0.56356 0.0
H3076 H 0.66409 0.78109 0.57225 0.0
H3077 H 0.66366 0.79144 0.52665 0.0
H3078 H 0.61318 0.70524 0.50899 0.0
H3079 H 0.58205 0.70368 0.49504 0.0
H3080 H 0.58538 0.70419 0.52867 0.0
H3081 H 0.55695 0.745 0.53132 0.0
H3082 H 0.55327 0.74454 0.49765 0.0
H3083 H 0.56502 0.77378 0.5131 0.0
H3084 H 0.65526 0.79554 0.47874 0.0
H3085 H 0.64233 0.78898 0.43411 0.0
H3086 H 0.58275 0.73523 0.45863 0.0
C3087 C 0.60903 0.74871 0.55612 0.0
C3088 C 0.62891 0.75814 0.57148 0.0
C3089 C 0.6485 0.77391 0.56075 0.0
C3090 C 0.64839 0.77989 0.53492 0.0
C3091 C 0.62882 0.76948 0.52011 0.0
C3092 C 0.60969 0.75397 0.53043 0.0
C3093 C 0.59262 0.74224 0.51048 0.0
C3094 C 0.59338 0.71206 0.51082 0.0
C3095 C 0.56536 0.75198 0.51331 0.0
C3096 C 0.60514 0.75341 0.48725 0.0
C3097 C 0.62555 0.76969 0.49297 0.0
C3098 C 0.63934 0.78272 0.47413 0.0
C3099 C 0.63194 0.77889 0.4489 0.0
C3100 C 0.61159 0.7615 0.44291 0.0
C3101 C 0.59833 0.7486 0.46242 0.0
H3102 H 0.44861 0.51444 0.33532 0.0
H3103 H 0.42753 0.52832 0.41285 0.0
H3104 H 0.4691 0.51138 0.42678 0.0
H3105 H 0.48543 0.45577 0.34444 0.0
H3106 H 0.50876 0.46564 0.32139 0.0
H3107 H 0.47652 0.47611 0.31829 0.0
H3108 H 0.49228 0.52471 0.31674 0.0
H3109 H 0.52449 0.51423 0.31993 0.0
H3110 H 0.51179 0.53738 0.34195 0.0
H3111 H 0.51374 0.49198 0.4316 0.0
H3112 H 0.55752 0.47551 0.42666 0.0
H3113 H 0.54969 0.47994 0.34571 0.0
C3114 C 0.45244 0.51333 0.35529 0.0
C3115 C 0.43464 0.52206 0.37309 0.0
C3116 C 0.44079 0.5213 0.39897 0.0
C3117 C 0.46434 0.51177 0.407 0.0
C3118 C 0.48166 0.50367 0.38884 0.0
C3119 C 0.47597 0.50464 0.36349 0.0
C3120 C 0.49828 0.49685 0.34749 0.0
C3121 C 0.49186 0.47212 0.332 0.0
C3122 C 0.50722 0.51965 0.33053 0.0
C3123 C 0.51752 0.49123 0.36771 0.0
C3124 C 0.50759 0.49479 0.3915 0.0
C3125 C 0.52174 0.48948 0.41304 0.0
C3126 C 0.54656 0.48022 0.4101 0.0
C3127 C 0.55709 0.4771 0.38584 0.0
C3128 C 0.54235 0.48285 0.3645 0.0
H3129 H 0.45342 0.00493 0.72283 0.0
H3130 H 0.44148 0.01084 0.64235 0.0
H3131 H 0.48747 0.00652 0.63526 0.0
H3132 H 0.5114 0.04367 0.72362 0.0
H3133 H 0.5261 0.02453 0.74788 0.0
H3134 H 0.4921 0.02692 0.74677 0.0
H3135 H 0.48767 0.97626 0.74536 0.0
H3136 H 0.52164 0.9737 0.74658 0.0
H3137 H 0.50408 0.95834 0.72133 0.0
H3138 H 0.5341 0.99999 0.63668 0.0
H3139 H 0.57934 0.99424 0.64655 0.0
H3140 H 0.56218 0.99615 0.72627 0.0
C3141 C 0.46053 0.00507 0.70373 0.0
C3142 C 0.44394 0.00794 0.68308 0.0
C3143 C 0.4539 0.00858 0.65839 0.0
C3144 C 0.47996 0.00612 0.65419 0.0
C3145 C 0.49585 0.00351 0.67491 0.0
C3146 C 0.48662 0.00321 0.69922 0.0
C3147 C 0.50802 1.00111 0.71815 0.0
C3148 C 0.50949 0.02551 0.7351 0.0
C3149 C 0.50518 0.97585 0.73377 0.0
C3150 C 0.53068 1.0 0.70064 0.0
C3151 C 0.52311 1.00118 0.67578 0.0
C3152 C 0.54031 0.99932 0.65606 0.0
C3153 C 0.56593 0.99602 0.66185 0.0
C3154 C 0.57421 0.99504 0.68713 0.0
C3155 C 0.55637 0.99731 0.70679 0.0
H3156 H 0.0564 0.53273 0.29974 0.0
H3157 H 0.06962 0.46088 0.34078 0.0
H3158 H 0.02377 0.457 0.35048 0.0
H3159 H 0.00372 0.55787 0.33772 0.0
H3160 H 0.98664 0.56908 0.31054 0.0
H3161 H 0.02076 0.56828 0.30997 0.0
H3162 H 0.01898 0.53944 0.26995 0.0
H3163 H 0.98489 0.53995 0.27038 0.0
H3164 H 0.00092 0.50907 0.27036 0.0
H3165 H 0.97668 0.4595 0.35352 0.0
H3166 H 0.93101 0.46598 0.34729 0.0
H3167 H 0.94761 0.53485 0.30173 0.0
C3168 C 0.04967 0.51667 0.31146 0.0
C3169 C 0.06647 0.49746 0.32023 0.0
C3170 C 0.05698 0.476 0.3344 0.0
C3171 C 0.03104 0.47368 0.33996 0.0
C3172 C 0.01485 0.49274 0.33076 0.0
C3173 C 0.02373 0.5137 0.31659 0.0
C3174 C 0.00202 0.52976 0.30655 0.0
C3175 C 0.00337 0.55792 0.31682 0.0
C3176 C 0.00169 0.52953 0.2776 0.0
C3177 C 0.97952 0.51458 0.31733 0.0
C3178 C 0.98743 0.49349 0.33146 0.0
C3179 C 0.97026 0.47602 0.34263 0.0
C3180 C 0.94432 0.4799 0.33897 0.0
C3181 C 0.93568 0.50097 0.32407 0.0
C3182 C 0.95359 0.51874 0.31343 0.0
H3183 H 0.06018 0.98924 0.55448 0.0
H3184 H 0.06919 0.98054 0.63526 0.0
H3185 H 0.0234 0.9842 0.64087 0.0
H3186 H 0.01062 0.03375 0.55388 0.0
H3187 H 0.9923 0.01865 0.52901 0.0
H3188 H 0.02612 0.01459 0.53014 0.0
H3189 H 0.02026 0.96398 0.53031 0.0
H3190 H 0.98645 0.96788 0.52835 0.0
H3191 H -0.00024 0.94874 0.55341 0.0
H3192 H 0.97879 0.99636 0.63905 0.0
H3193 H 0.93371 1.00055 0.62937 0.0
H3194 H 0.95021 0.99419 0.54957 0.0
C3195 C 0.0524 0.98749 0.57324 0.0
C3196 C 0.06844 0.98517 0.59444 0.0
C3197 C 0.05749 0.98256 0.61868 0.0
C3198 C 0.03142 0.98478 0.62216 0.0
C3199 C 0.01635 0.9887 0.60118 0.0
C3200 C 0.02606 0.98866 0.57709 0.0
C3201 C 0.00487 0.99126 0.55791 0.0
C3202 C 0.00872 0.01604 0.54178 0.0
C3203 C 0.0027 0.96649 0.54152 0.0
C3204 C 0.98207 0.99369 0.57518 0.0
C3205 C 0.98949 0.99293 0.60004 0.0
C3206 C 0.97254 0.99636 0.61968 0.0
C3207 C 0.94693 0.99904 0.6139 0.0
C3208 C 0.93831 0.99746 0.58868 0.0
C3209 C 0.95624 0.99541 0.569 0.0
H3210 H 0.92397 0.28772 0.95414 0.0
H3211 H 0.88762 0.21368 0.93414 0.0
H3212 H 0.87474 0.20745 0.97878 0.0
H3213 H 0.95153 0.26298 0.01055 0.0
H3214 H 0.94917 0.29381 0.02688 0.0
H3215 H 0.95288 0.29336 0.99324 0.0
H3216 H 0.91211 0.32046 0.98811 0.0
H3217 H 0.90835 0.32123 0.02171 0.0
H3218 H 0.88295 0.30875 0.0022 0.0
H3219 H 0.86362 0.21215 0.02616 0.0
H3220 H 0.86006 0.22414 0.07131 0.0
H3221 H 0.91198 0.28973 0.05911 0.0
C3222 C 0.91342 0.2701 0.95891 0.0
C3223 C 0.90674 0.25123 0.94063 0.0
C3224 C 0.89282 0.22846 0.94793 0.0
C3225 C 0.88549 0.22477 0.97318 0.0
C3226 C 0.89302 0.24364 0.99084 0.0
C3227 C 0.90717 0.26555 0.98394 0.0
C3228 C 0.91481 0.28203 0.00633 0.0
C3229 C 0.94381 0.28309 0.00943 0.0
C3230 C 0.90389 0.30975 0.00447 0.0
C3231 C 0.90229 0.26636 0.02706 0.0
C3232 C 0.88929 0.24458 0.01789 0.0
C3233 C 0.87424 0.22879 0.03356 0.0
C3234 C 0.87233 0.2357 0.05911 0.0
C3235 C 0.88605 0.25764 0.06871 0.0
C3236 C 0.90159 0.27266 0.05251 0.0
H3237 H 0.10248 0.796 0.43897 0.0
H3238 H 0.13285 0.7206 0.41882 0.0
H3239 H 0.13268 0.70759 0.46385 0.0
H3240 H 0.14069 0.8035 0.49652 0.0
H3241 H 0.1157 0.82043 0.51248 0.0
H3242 H 0.11906 0.82333 0.47888 0.0
H3243 H 0.07239 0.80732 0.47306 0.0
H3244 H 0.06893 0.80446 0.50655 0.0
H3245 H 0.06224 0.77651 0.48675 0.0
H3246 H 0.12269 0.7015 0.5107 0.0
H3247 H 0.10812 0.70458 0.55499 0.0
H3248 H 0.0921 0.78683 0.54334 0.0
C3249 C 0.1094 0.77692 0.44404 0.0
C3250 C 0.11747 0.75918 0.42574 0.0
C3251 C 0.12653 0.73435 0.4329 0.0
C3252 C 0.12656 0.72688 0.4583 0.0
C3253 C 0.11839 0.74496 0.47605 0.0
C3254 C 0.11059 0.7697 0.46917 0.0
C3255 C 0.10281 0.78571 0.49151 0.0
C3256 C 0.12064 0.80965 0.49505 0.0
C3257 C 0.07495 0.79396 0.48932 0.0
C3258 C 0.10631 0.76576 0.51202 0.0
C3259 C 0.1151 0.74225 0.50293 0.0
C3260 C 0.1165 0.72003 0.51819 0.0
C3261 C 0.1082 0.72192 0.54323 0.0
C3262 C 0.09902 0.74593 0.55253 0.0
C3263 C 0.09908 0.7682 0.5369 0.0
loop_
_geom_bond_atom_site_label_1
_geom_bond_atom_site_label_2
_geom_bond_distance
_geom_bond_site_symmetry_2
_ccdc_geom_bond_type
Co0 O1 2.216 . S
Co0 O2 2.091 . S
Co0 O4 2.004 . S
Co0 O10 2.021 . S
Co0 O12 2.137 . S
Co0 O13 2.244 . S
O1 Co0 2.216 . S
O1 C8 1.247 . S
O2 Co0 2.091 . S
O2 C8 1.261 . S
C3 O12 1.247 . S
C3 O13 1.272 . S
O4 Co0 2.004 . S
O4 C9 1.259 . S
Co5 O6 2.061 . S
Co5 O11 2.052 . S
Co5 O13 2.135 . S
O6 Co5 2.061 . S
O6 C9 1.235 . S
C7 O10 1.238 . S
C7 O11 1.241 . S
C8 O1 1.247 . S
C8 O2 1.261 . S
C9 O4 1.259 . S
C9 O6 1.235 . S
O10 Co0 2.021 . S
O10 C7 1.238 . S
O11 Co5 2.052 . S
O11 C7 1.241 . S
O12 Co0 2.137 . S
O12 C3 1.247 . S
O13 Co0 2.244 . S
O13 C3 1.272 . S
O13 Co5 2.135 . S
Co14 O15 2.216 . S
Co14 O16 2.091 . S
Co14 O18 2.004 . S
Co14 O24 2.021 . S
Co14 O26 2.137 . S
Co14 O27 2.244 . S
O15 Co14 2.216 . S
O15 C22 1.247 . S
O16 Co14 2.091 . S
O16 C22 1.261 . S
C17 O26 1.247 . S
C17 O27 1.272 . S
O18 Co14 2.004 . S
O18 C23 1.259 . S
Co19 O20 2.061 . S
Co19 O25 2.052 . S
Co19 O27 2.135 . S
O20 Co19 2.061 . S
O20 C23 1.235 . S
C21 O24 1.238 . S
C21 O25 1.241 . S
C22 O15 1.247 . S
C22 O16 1.261 . S
C23 O18 1.259 . S
C23 O20 1.235 . S
O24 Co14 2.021 . S
O24 C21 1.238 . S
O25 Co19 2.052 . S
O25 C21 1.241 . S
O26 Co14 2.137 . S
O26 C17 1.247 . S
O27 Co14 2.244 . S
O27 C17 1.272 . S
O27 Co19 2.135 . S
Co28 O29 2.216 . S
Co28 O30 2.091 . S
Co28 O32 2.004 . S
Co28 O38 2.021 . S
Co28 O40 2.137 . S
Co28 O41 2.244 . S
O29 Co28 2.216 . S
O29 C36 1.247 . S
O30 Co28 2.091 . S
O30 C36 1.261 . S
C31 O40 1.247 . S
C31 O41 1.272 . S
O32 Co28 2.004 . S
O32 C37 1.259 . S
Co33 O34 2.061 . S
Co33 O39 2.052 . S
Co33 O41 2.135 . S
O34 Co33 2.061 . S
O34 C37 1.235 . S
C35 O38 1.238 . S
C35 O39 1.241 . S
C36 O29 1.247 . S
C36 O30 1.261 . S
C37 O32 1.259 . S
C37 O34 1.235 . S
O38 Co28 2.021 . S
O38 C35 1.238 . S
O39 Co33 2.052 . S
O39 C35 1.241 . S
O40 Co28 2.137 . S
O40 C31 1.247 . S
O41 Co28 2.244 . S
O41 C31 1.272 . S
O41 Co33 2.135 . S
Co42 O43 2.216 . S
Co42 O44 2.091 . S
Co42 O46 2.004 1_565 S
Co42 O52 2.021 . S
Co42 O54 2.137 1_565 S
Co42 O55 2.244 1_565 S
O43 Co42 2.216 . S
O43 C50 1.247 . S
O44 Co42 2.091 . S
O44 C50 1.261 . S
C45 O54 1.247 . S
C45 O55 1.272 . S
O46 Co42 2.004 1_545 S
O46 C51 1.259 . S
Co47 O48 2.061 . S
Co47 O53 2.052 . S
Co47 O55 2.135 . S
O48 Co47 2.061 . S
O48 C51 1.235 . S
C49 O52 1.238 . S
C49 O53 1.241 1_565 S
C50 O43 1.247 . S
C50 O44 1.261 . S
C51 O46 1.259 . S
C51 O48 1.235 . S
O52 Co42 2.021 . S
O52 C49 1.238 . S
O53 Co47 2.052 . S
O53 C49 1.241 1_545 S
O54 Co42 2.137 1_545 S
O54 C45 1.247 . S
O55 Co42 2.244 1_545 S
O55 C45 1.272 . S
O55 Co47 2.135 . S
Co56 O57 2.216 . S
Co56 O58 2.091 . S
Co56 O60 2.004 . S
Co56 O66 2.021 . S
Co56 O68 2.137 . S
Co56 O69 2.244 . S
O57 Co56 2.216 . S
O57 C64 1.247 . S
O58 Co56 2.091 . S
O58 C64 1.261 . S
C59 O68 1.247 . S
C59 O69 1.272 . S
O60 Co56 2.004 . S
O60 C65 1.259 . S
Co61 O62 2.061 . S
Co61 O67 2.052 . S
Co61 O69 2.135 . S
O62 Co61 2.061 . S
O62 C65 1.235 . S
C63 O66 1.238 . S
C63 O67 1.241 . S
C64 O57 1.247 . S
C64 O58 1.261 . S
C65 O60 1.259 . S
C65 O62 1.235 . S
O66 Co56 2.021 . S
O66 C63 1.238 . S
O67 Co61 2.052 . S
O67 C63 1.241 . S
O68 Co56 2.137 . S
O68 C59 1.247 . S
O69 Co56 2.244 . S
O69 C59 1.272 . S
O69 Co61 2.135 . S
Co70 O71 2.216 . S
Co70 O72 2.091 . S
Co70 O74 2.004 . S
Co70 O80 2.021 . S
Co70 O82 2.137 . S
Co70 O83 2.244 . S
O71 Co70 2.216 . S
O71 C78 1.247 . S
O72 Co70 2.091 . S
O72 C78 1.261 . S
C73 O82 1.247 . S
C73 O83 1.272 . S
O74 Co70 2.004 . S
O74 C79 1.259 . S
Co75 O76 2.061 . S
Co75 O81 2.052 . S
Co75 O83 2.135 . S
O76 Co75 2.061 . S
O76 C79 1.235 . S
C77 O80 1.238 . S
C77 O81 1.241 . S
C78 O71 1.247 . S
C78 O72 1.261 . S
C79 O74 1.259 . S
C79 O76 1.235 . S
O80 Co70 2.021 . S
O80 C77 1.238 . S
O81 Co75 2.052 . S
O81 C77 1.241 . S
O82 Co70 2.137 . S
O82 C73 1.247 . S
O83 Co70 2.244 . S
O83 C73 1.272 . S
O83 Co75 2.135 . S
Co84 O85 2.216 1_565 S
Co84 O86 2.091 . S
Co84 O88 2.004 . S
Co84 O94 2.021 1_565 S
Co84 O96 2.137 . S
Co84 O97 2.244 1_565 S
O85 Co84 2.216 1_545 S
O85 C92 1.247 1_545 S
O86 Co84 2.091 . S
O86 C92 1.261 . S
C87 O96 1.247 1_545 S
C87 O97 1.271 . S
O88 Co84 2.004 . S
O88 C93 1.259 . S
Co89 O90 2.061 . S
Co89 O95 2.052 . S
Co89 O97 2.135 . S
O90 Co89 2.061 . S
O90 C93 1.235 1_545 S
C91 O94 1.238 . S
C91 O95 1.241 . S
C92 O85 1.247 1_565 S
C92 O86 1.261 . S
C93 O88 1.259 . S
C93 O90 1.235 1_565 S
O94 Co84 2.021 1_545 S
O94 C91 1.238 . S
O95 Co89 2.052 . S
O95 C91 1.241 . S
O96 Co84 2.137 . S
O96 C87 1.247 1_565 S
O97 Co84 2.244 1_545 S
O97 C87 1.271 . S
O97 Co89 2.135 . S
Co98 O99 2.216 . S
Co98 O100 2.091 . S
Co98 O102 2.004 . S
Co98 O108 2.021 . S
Co98 O110 2.137 . S
Co98 O111 2.244 . S
O99 Co98 2.216 . S
O99 C106 1.247 . S
O100 Co98 2.091 . S
O100 C106 1.261 . S
C101 O110 1.247 . S
C101 O111 1.272 . S
O102 Co98 2.004 . S
O102 C107 1.259 . S
Co103 O104 2.061 . S
Co103 O109 2.052 . S
Co103 O111 2.135 . S
O104 Co103 2.061 . S
O104 C107 1.235 . S
C105 O108 1.238 . S
C105 O109 1.241 . S
C106 O99 1.247 . S
C106 O100 1.261 . S
C107 O102 1.259 . S
C107 O104 1.235 . S
O108 Co98 2.021 . S
O108 C105 1.238 . S
O109 Co103 2.052 . S
O109 C105 1.241 . S
O110 Co98 2.137 . S
O110 C101 1.247 . S
O111 Co98 2.244 . S
O111 C101 1.272 . S
O111 Co103 2.135 . S
Co112 O113 2.216 . S
Co112 O114 2.091 . S
Co112 O116 2.004 1_545 S
Co112 O122 2.021 . S
Co112 O124 2.137 1_545 S
Co112 O125 2.244 1_545 S
O113 Co112 2.216 . S
O113 C120 1.247 . S
O114 Co112 2.091 . S
O114 C120 1.261 . S
C115 O124 1.247 . S
C115 O125 1.272 . S
O116 Co112 2.004 1_565 S
O116 C121 1.259 . S
Co117 O118 2.061 . S
Co117 O123 2.052 . S
Co117 O125 2.135 . S
O118 Co117 2.061 . S
O118 C121 1.235 . S
C119 O122 1.238 . S
C119 O123 1.241 1_545 S
C120 O113 1.247 . S
C120 O114 1.261 . S
C121 O116 1.259 . S
C121 O118 1.235 . S
O122 Co112 2.021 . S
O122 C119 1.238 . S
O123 Co117 2.052 . S
O123 C119 1.241 1_565 S
O124 Co112 2.137 1_565 S
O124 C115 1.247 . S
O125 Co112 2.244 1_565 S
O125 C115 1.272 . S
O125 Co117 2.135 . S
Co126 O127 2.216 . S
Co126 O128 2.091 . S
Co126 O130 2.004 . S
Co126 O136 2.021 . S
Co126 O138 2.137 . S
Co126 O139 2.244 . S
O127 Co126 2.216 . S
O127 C134 1.247 . S
O128 Co126 2.091 . S
O128 C134 1.261 . S
C129 O138 1.247 . S
C129 O139 1.272 . S
O130 Co126 2.004 . S
O130 C135 1.259 . S
Co131 O132 2.061 . S
Co131 O137 2.052 . S
Co131 O139 2.135 . S
O132 Co131 2.061 . S
O132 C135 1.235 . S
C133 O136 1.238 . S
C133 O137 1.241 . S
C134 O127 1.247 . S
C134 O128 1.261 . S
C135 O130 1.259 . S
C135 O132 1.235 . S
O136 Co126 2.021 . S
O136 C133 1.238 . S
O137 Co131 2.052 . S
O137 C133 1.241 . S
O138 Co126 2.137 . S
O138 C129 1.247 . S
O139 Co126 2.244 . S
O139 C129 1.272 . S
O139 Co131 2.135 . S
Co140 O141 2.216 . S
Co140 O142 2.091 . S
Co140 O144 2.004 . S
Co140 O150 2.021 1_554 S
Co140 O152 2.137 . S
Co140 O153 2.244 1_554 S
O141 Co140 2.216 . S
O141 C148 1.247 . S
O142 Co140 2.091 . S
O142 C148 1.261 . S
C143 O152 1.247 1_556 S
C143 O153 1.272 . S
O144 Co140 2.004 . S
O144 C149 1.259 1_554 S
Co145 O146 2.061 . S
Co145 O151 2.052 . S
Co145 O153 2.135 . S
O146 Co145 2.061 . S
O146 C149 1.235 . S
C147 O150 1.238 . S
C147 O151 1.241 . S
C148 O141 1.247 . S
C148 O142 1.261 . S
C149 O144 1.259 1_556 S
C149 O146 1.235 . S
O150 Co140 2.021 1_556 S
O150 C147 1.238 . S
O151 Co145 2.052 . S
O151 C147 1.241 . S
O152 Co140 2.137 . S
O152 C143 1.247 1_554 S
O153 Co140 2.244 1_556 S
O153 C143 1.272 . S
O153 Co145 2.135 . S
Co154 O155 2.216 . S
Co154 O156 2.091 . S
Co154 O158 2.004 . S
Co154 O164 2.021 . S
Co154 O166 2.137 . S
Co154 O167 2.244 . S
O155 Co154 2.216 . S
O155 C162 1.247 . S
O156 Co154 2.091 . S
O156 C162 1.261 . S
C157 O166 1.247 . S
C157 O167 1.272 . S
O158 Co154 2.004 . S
O158 C163 1.259 . S
Co159 O160 2.061 . S
Co159 O165 2.052 . S
Co159 O167 2.135 . S
O160 Co159 2.061 . S
O160 C163 1.235 . S
C161 O164 1.238 . S
C161 O165 1.241 . S
C162 O155 1.247 . S
C162 O156 1.261 . S
C163 O158 1.259 . S
C163 O160 1.235 . S
O164 Co154 2.021 . S
O164 C161 1.238 . S
O165 Co159 2.052 . S
O165 C161 1.241 . S
O166 Co154 2.137 . S
O166 C157 1.247 . S
O167 Co154 2.244 . S
O167 C157 1.272 . S
O167 Co159 2.135 . S
Co168 O169 2.216 . S
Co168 O170 2.091 . S
Co168 O172 2.004 . S
Co168 O178 2.021 . S
Co168 O180 2.137 . S
Co168 O181 2.244 . S
O169 Co168 2.216 . S
O169 C176 1.247 . S
O170 Co168 2.091 . S
O170 C176 1.261 . S
C171 O180 1.247 . S
C171 O181 1.272 . S
O172 Co168 2.004 . S
O172 C177 1.259 . S
Co173 O174 2.061 . S
Co173 O179 2.052 . S
Co173 O181 2.135 . S
O174 Co173 2.061 . S
O174 C177 1.235 . S
C175 O178 1.238 . S
C175 O179 1.241 . S
C176 O169 1.247 . S
C176 O170 1.261 . S
C177 O172 1.259 . S
C177 O174 1.235 . S
O178 Co168 2.021 . S
O178 C175 1.238 . S
O179 Co173 2.052 . S
O179 C175 1.241 . S
O180 Co168 2.137 . S
O180 C171 1.247 . S
O181 Co168 2.244 . S
O181 C171 1.272 . S
O181 Co173 2.135 . S
Co182 O183 2.216 . S
Co182 O184 2.091 . S
Co182 O186 2.004 . S
Co182 O192 2.021 . S
Co182 O194 2.137 . S
Co182 O195 2.244 . S
O183 Co182 2.216 . S
O183 C190 1.247 . S
O184 Co182 2.091 . S
O184 C190 1.261 . S
C185 O194 1.247 . S
C185 O195 1.272 . S
O186 Co182 2.004 . S
O186 C191 1.259 . S
Co187 O188 2.061 . S
Co187 O193 2.052 . S
Co187 O195 2.135 . S
O188 Co187 2.061 . S
O188 C191 1.235 . S
C189 O192 1.238 . S
C189 O193 1.241 . S
C190 O183 1.247 . S
C190 O184 1.261 . S
C191 O186 1.259 . S
C191 O188 1.235 . S
O192 Co182 2.021 . S
O192 C189 1.238 . S
O193 Co187 2.052 . S
O193 C189 1.241 . S
O194 Co182 2.137 . S
O194 C185 1.247 . S
O195 Co182 2.244 . S
O195 C185 1.272 . S
O195 Co187 2.135 . S
Co196 O197 2.216 . S
Co196 O198 2.091 . S
Co196 O200 2.004 . S
Co196 O206 2.021 . S
Co196 O208 2.137 . S
Co196 O209 2.244 . S
O197 Co196 2.216 . S
O197 C204 1.247 . S
O198 Co196 2.091 . S
O198 C204 1.261 . S
C199 O208 1.247 . S
C199 O209 1.272 . S
O200 Co196 2.004 . S
O200 C205 1.259 . S
Co201 O202 2.061 . S
Co201 O207 2.052 . S
Co201 O209 2.135 . S
O202 Co201 2.061 . S
O202 C205 1.235 . S
C203 O206 1.238 . S
C203 O207 1.241 . S
C204 O197 1.247 . S
C204 O198 1.261 . S
C205 O200 1.259 . S
C205 O202 1.235 . S
O206 Co196 2.021 . S
O206 C203 1.238 . S
O207 Co201 2.052 . S
O207 C203 1.241 . S
O208 Co196 2.137 . S
O208 C199 1.247 . S
O209 Co196 2.244 . S
O209 C199 1.272 . S
O209 Co201 2.135 . S
Co210 O211 2.216 . S
Co210 O212 2.091 . S
Co210 O214 2.004 1_455 S
Co210 O220 2.021 1_455 S
Co210 O222 2.137 . S
Co210 O223 2.244 . S
O211 Co210 2.216 . S
O211 C218 1.247 . S
O212 Co210 2.091 . S
O212 C218 1.261 . S
C213 O222 1.247 . S
C213 O223 1.272 . S
O214 Co210 2.004 1_655 S
O214 C219 1.259 . S
Co215 O216 2.061 . S
Co215 O221 2.052 . S
Co215 O223 2.135 1_655 S
O216 Co215 2.061 . S
O216 C219 1.235 . S
C217 O220 1.238 . S
C217 O221 1.241 . S
C218 O211 1.247 . S
C218 O212 1.261 . S
C219 O214 1.259 . S
C219 O216 1.235 . S
O220 Co210 2.021 1_655 S
O220 C217 1.238 . S
O221 Co215 2.052 . S
O221 C217 1.241 . S
O222 Co210 2.137 . S
O222 C213 1.247 . S
O223 Co210 2.244 . S
O223 C213 1.272 . S
O223 Co215 2.135 1_455 S
Co224 O225 2.216 . S
Co224 O226 2.091 . S
Co224 O228 2.004 . S
Co224 O234 2.021 . S
Co224 O236 2.137 . S
Co224 O237 2.244 . S
O225 Co224 2.216 . S
O225 C232 1.247 . S
O226 Co224 2.091 . S
O226 C232 1.261 . S
C227 O236 1.247 . S
C227 O237 1.272 . S
O228 Co224 2.004 . S
O228 C233 1.259 . S
Co229 O230 2.061 . S
Co229 O235 2.052 . S
Co229 O237 2.135 . S
O230 Co229 2.061 . S
O230 C233 1.235 . S
C231 O234 1.238 . S
C231 O235 1.241 . S
C232 O225 1.247 . S
C232 O226 1.261 . S
C233 O228 1.259 . S
C233 O230 1.235 . S
O234 Co224 2.021 . S
O234 C231 1.238 . S
O235 Co229 2.052 . S
O235 C231 1.241 . S
O236 Co224 2.137 . S
O236 C227 1.247 . S
O237 Co224 2.244 . S
O237 C227 1.272 . S
O237 Co229 2.135 . S
Co238 O239 2.216 . S
Co238 O240 2.091 . S
Co238 O242 2.004 . S
Co238 O248 2.021 . S
Co238 O250 2.137 . S
Co238 O251 2.244 . S
O239 Co238 2.216 . S
O239 C246 1.247 . S
O240 Co238 2.091 . S
O240 C246 1.261 . S
C241 O250 1.247 . S
C241 O251 1.272 . S
O242 Co238 2.004 . S
O242 C247 1.259 . S
Co243 O244 2.061 . S
Co243 O249 2.052 . S
Co243 O251 2.135 . S
O244 Co243 2.061 . S
O244 C247 1.235 . S
C245 O248 1.238 . S
C245 O249 1.241 . S
C246 O239 1.247 . S
C246 O240 1.261 . S
C247 O242 1.259 . S
C247 O244 1.235 . S
O248 Co238 2.021 . S
O248 C245 1.238 . S
O249 Co243 2.052 . S
O249 C245 1.241 . S
O250 Co238 2.137 . S
O250 C241 1.247 . S
O251 Co238 2.244 . S
O251 C241 1.272 . S
O251 Co243 2.135 . S
Co252 O253 2.216 . S
Co252 O254 2.091 . S
Co252 O256 2.004 . S
Co252 O262 2.021 . S
Co252 O264 2.137 . S
Co252 O265 2.244 . S
O253 Co252 2.216 . S
O253 C260 1.247 . S
O254 Co252 2.091 . S
O254 C260 1.261 . S
C255 O264 1.247 . S
C255 O265 1.272 . S
O256 Co252 2.004 . S
O256 C261 1.259 . S
Co257 O258 2.061 . S
Co257 O263 2.052 . S
Co257 O265 2.135 . S
O258 Co257 2.061 . S
O258 C261 1.235 . S
C259 O262 1.238 . S
C259 O263 1.241 . S
C260 O253 1.247 . S
C260 O254 1.261 . S
C261 O256 1.259 . S
C261 O258 1.235 . S
O262 Co252 2.021 . S
O262 C259 1.238 . S
O263 Co257 2.052 . S
O263 C259 1.241 . S
O264 Co252 2.137 . S
O264 C255 1.247 . S
O265 Co252 2.244 . S
O265 C255 1.272 . S
O265 Co257 2.135 . S
Co266 O267 2.216 . S
Co266 O268 2.091 . S
Co266 O270 2.004 . S
Co266 O276 2.021 . S
Co266 O278 2.137 . S
Co266 O279 2.244 . S
O267 Co266 2.216 . S
O267 C274 1.247 . S
O268 Co266 2.091 . S
O268 C274 1.261 . S
C269 O278 1.247 . S
C269 O279 1.272 . S
O270 Co266 2.004 . S
O270 C275 1.259 . S
Co271 O272 2.061 . S
Co271 O277 2.052 . S
Co271 O279 2.135 . S
O272 Co271 2.061 . S
O272 C275 1.235 . S
C273 O276 1.238 . S
C273 O277 1.241 . S
C274 O267 1.247 . S
C274 O268 1.261 . S
C275 O270 1.259 . S
C275 O272 1.235 . S
O276 Co266 2.021 . S
O276 C273 1.238 . S
O277 Co271 2.052 . S
O277 C273 1.241 . S
O278 Co266 2.137 . S
O278 C269 1.247 . S
O279 Co266 2.244 . S
O279 C269 1.272 . S
O279 Co271 2.135 . S
Co280 O281 2.216 . S
Co280 O282 2.091 . S
Co280 O284 2.004 . S
Co280 O290 2.021 . S
Co280 O292 2.137 . S
Co280 O293 2.244 . S
O281 Co280 2.216 . S
O281 C288 1.247 . S
O282 Co280 2.091 . S
O282 C288 1.261 . S
C283 O292 1.247 . S
C283 O293 1.272 . S
O284 Co280 2.004 . S
O284 C289 1.259 . S
Co285 O286 2.061 . S
Co285 O291 2.052 . S
Co285 O293 2.135 . S
O286 Co285 2.061 . S
O286 C289 1.235 . S
C287 O290 1.238 . S
C287 O291 1.241 . S
C288 O281 1.247 . S
C288 O282 1.261 . S
C289 O284 1.259 . S
C289 O286 1.235 . S
O290 Co280 2.021 . S
O290 C287 1.238 . S
O291 Co285 2.052 . S
O291 C287 1.241 . S
O292 Co280 2.137 . S
O292 C283 1.247 . S
O293 Co280 2.244 . S
O293 C283 1.272 . S
O293 Co285 2.135 . S
Co294 O295 2.216 . S
Co294 O296 2.091 . S
Co294 O298 2.004 1_545 S
Co294 O304 2.021 . S
Co294 O306 2.137 1_545 S
Co294 O307 2.244 1_545 S
O295 Co294 2.216 . S
O295 C302 1.247 . S
O296 Co294 2.091 . S
O296 C302 1.261 . S
C297 O306 1.247 . S
C297 O307 1.272 . S
O298 Co294 2.004 1_565 S
O298 C303 1.259 . S
Co299 O300 2.061 . S
Co299 O305 2.052 . S
Co299 O307 2.135 . S
O300 Co299 2.061 . S
O300 C303 1.235 . S
C301 O304 1.238 . S
C301 O305 1.241 1_545 S
C302 O295 1.247 . S
C302 O296 1.261 . S
C303 O298 1.259 . S
C303 O300 1.235 . S
O304 Co294 2.021 . S
O304 C301 1.238 . S
O305 Co299 2.052 . S
O305 C301 1.241 1_565 S
O306 Co294 2.137 1_565 S
O306 C297 1.247 . S
O307 Co294 2.244 1_565 S
O307 C297 1.272 . S
O307 Co299 2.135 . S
Co308 O309 2.216 . S
Co308 O310 2.091 . S
Co308 O312 2.004 . S
Co308 O318 2.021 . S
Co308 O320 2.137 . S
Co308 O321 2.244 . S
O309 Co308 2.216 . S
O309 C316 1.247 . S
O310 Co308 2.091 . S
O310 C316 1.261 . S
C311 O320 1.247 . S
C311 O321 1.272 . S
O312 Co308 2.004 . S
O312 C317 1.259 . S
Co313 O314 2.061 . S
Co313 O319 2.052 . S
Co313 O321 2.135 . S
O314 Co313 2.061 . S
O314 C317 1.235 . S
C315 O318 1.238 . S
C315 O319 1.241 . S
C316 O309 1.247 . S
C316 O310 1.261 . S
C317 O312 1.259 . S
C317 O314 1.235 . S
O318 Co308 2.021 . S
O318 C315 1.238 . S
O319 Co313 2.052 . S
O319 C315 1.241 . S
O320 Co308 2.137 . S
O320 C311 1.247 . S
O321 Co308 2.244 . S
O321 C311 1.272 . S
O321 Co313 2.135 . S
Co322 O323 2.216 . S
Co322 O324 2.091 . S
Co322 O326 2.004 . S
Co322 O332 2.021 . S
Co322 O334 2.137 . S
Co322 O335 2.244 . S
O323 Co322 2.216 . S
O323 C330 1.247 . S
O324 Co322 2.091 . S
O324 C330 1.261 . S
C325 O334 1.247 . S
C325 O335 1.272 . S
O326 Co322 2.004 . S
O326 C331 1.259 . S
Co327 O328 2.061 . S
Co327 O333 2.052 . S
Co327 O335 2.135 . S
O328 Co327 2.061 . S
O328 C331 1.235 . S
C329 O332 1.238 . S
C329 O333 1.241 . S
C330 O323 1.247 . S
C330 O324 1.261 . S
C331 O326 1.259 . S
C331 O328 1.235 . S
O332 Co322 2.021 . S
O332 C329 1.238 . S
O333 Co327 2.052 . S
O333 C329 1.241 . S
O334 Co322 2.137 . S
O334 C325 1.247 . S
O335 Co322 2.244 . S
O335 C325 1.272 . S
O335 Co327 2.135 . S
Co336 O337 2.216 1_545 S
Co336 O338 2.091 . S
Co336 O340 2.004 . S
Co336 O346 2.021 1_545 S
Co336 O348 2.137 . S
Co336 O349 2.244 1_545 S
O337 Co336 2.216 1_565 S
O337 C344 1.247 1_565 S
O338 Co336 2.091 . S
O338 C344 1.261 . S
C339 O348 1.247 1_565 S
C339 O349 1.271 . S
O340 Co336 2.004 . S
O340 C345 1.259 . S
Co341 O342 2.061 . S
Co341 O347 2.052 . S
Co341 O349 2.135 . S
O342 Co341 2.061 . S
O342 C345 1.235 1_565 S
C343 O346 1.238 . S
C343 O347 1.241 . S
C344 O337 1.247 1_545 S
C344 O338 1.261 . S
C345 O340 1.259 . S
C345 O342 1.235 1_545 S
O346 Co336 2.021 1_565 S
O346 C343 1.238 . S
O347 Co341 2.052 . S
O347 C343 1.241 . S
O348 Co336 2.137 . S
O348 C339 1.247 1_545 S
O349 Co336 2.244 1_565 S
O349 C339 1.271 . S
O349 Co341 2.135 . S
Co350 O351 2.216 . S
Co350 O352 2.091 . S
Co350 O354 2.004 . S
Co350 O360 2.021 . S
Co350 O362 2.137 . S
Co350 O363 2.244 . S
O351 Co350 2.216 . S
O351 C358 1.247 . S
O352 Co350 2.091 . S
O352 C358 1.261 . S
C353 O362 1.247 . S
C353 O363 1.272 . S
O354 Co350 2.004 . S
O354 C359 1.259 . S
Co355 O356 2.061 . S
Co355 O361 2.052 . S
Co355 O363 2.135 . S
O356 Co355 2.061 . S
O356 C359 1.235 . S
C357 O360 1.238 . S
C357 O361 1.241 . S
C358 O351 1.247 . S
C358 O352 1.261 . S
C359 O354 1.259 . S
C359 O356 1.235 . S
O360 Co350 2.021 . S
O360 C357 1.238 . S
O361 Co355 2.052 . S
O361 C357 1.241 . S
O362 Co350 2.137 . S
O362 C353 1.247 . S
O363 Co350 2.244 . S
O363 C353 1.272 . S
O363 Co355 2.135 . S
Co364 O365 2.216 . S
Co364 O366 2.091 . S
Co364 O368 2.004 . S
Co364 O374 2.021 . S
Co364 O376 2.137 . S
Co364 O377 2.244 . S
O365 Co364 2.216 . S
O365 C372 1.247 . S
O366 Co364 2.091 . S
O366 C372 1.261 . S
C367 O376 1.247 . S
C367 O377 1.272 . S
O368 Co364 2.004 . S
O368 C373 1.259 . S
Co369 O370 2.061 . S
Co369 O375 2.052 . S
Co369 O377 2.135 . S
O370 Co369 2.061 . S
O370 C373 1.235 . S
C371 O374 1.238 . S
C371 O375 1.241 . S
C372 O365 1.247 . S
C372 O366 1.261 . S
C373 O368 1.259 . S
C373 O370 1.235 . S
O374 Co364 2.021 . S
O374 C371 1.238 . S
O375 Co369 2.052 . S
O375 C371 1.241 . S
O376 Co364 2.137 . S
O376 C367 1.247 . S
O377 Co364 2.244 . S
O377 C367 1.272 . S
O377 Co369 2.135 . S
Co378 O379 2.216 . S
Co378 O380 2.091 . S
Co378 O382 2.004 . S
Co378 O388 2.021 . S
Co378 O390 2.137 . S
Co378 O391 2.244 . S
O379 Co378 2.216 . S
O379 C386 1.247 . S
O380 Co378 2.091 . S
O380 C386 1.261 . S
C381 O390 1.247 . S
C381 O391 1.272 . S
O382 Co378 2.004 . S
O382 C387 1.259 . S
Co383 O384 2.061 . S
Co383 O389 2.052 . S
Co383 O391 2.135 . S
O384 Co383 2.061 . S
O384 C387 1.235 . S
C385 O388 1.238 . S
C385 O389 1.241 . S
C386 O379 1.247 . S
C386 O380 1.261 . S
C387 O382 1.259 . S
C387 O384 1.235 . S
O388 Co378 2.021 . S
O388 C385 1.238 . S
O389 Co383 2.052 . S
O389 C385 1.241 . S
O390 Co378 2.137 . S
O390 C381 1.247 . S
O391 Co378 2.244 . S
O391 C381 1.272 . S
O391 Co383 2.135 . S
Co392 O393 2.216 . S
Co392 O394 2.091 . S
Co392 O396 2.004 . S
Co392 O402 2.021 1_554 S
Co392 O404 2.137 . S
Co392 O405 2.244 1_554 S
O393 Co392 2.216 . S
O393 C400 1.247 . S
O394 Co392 2.091 . S
O394 C400 1.261 . S
C395 O404 1.247 1_556 S
C395 O405 1.272 . S
O396 Co392 2.004 . S
O396 C401 1.259 1_554 S
Co397 O398 2.061 . S
Co397 O403 2.052 . S
Co397 O405 2.135 . S
O398 Co397 2.061 . S
O398 C401 1.235 . S
C399 O402 1.238 . S
C399 O403 1.241 . S
C400 O393 1.247 . S
C400 O394 1.261 . S
C401 O396 1.259 1_556 S
C401 O398 1.235 . S
O402 Co392 2.021 1_556 S
O402 C399 1.238 . S
O403 Co397 2.052 . S
O403 C399 1.241 . S
O404 Co392 2.137 . S
O404 C395 1.247 1_554 S
O405 Co392 2.244 1_556 S
O405 C395 1.272 . S
O405 Co397 2.135 . S
Co406 O407 2.216 . S
Co406 O408 2.091 . S
Co406 O410 2.004 . S
Co406 O416 2.021 . S
Co406 O418 2.137 . S
Co406 O419 2.244 . S
O407 Co406 2.216 . S
O407 C414 1.247 . S
O408 Co406 2.091 . S
O408 C414 1.261 . S
C409 O418 1.247 . S
C409 O419 1.272 . S
O410 Co406 2.004 . S
O410 C415 1.259 . S
Co411 O412 2.061 . S
Co411 O417 2.052 . S
Co411 O419 2.135 . S
O412 Co411 2.061 . S
O412 C415 1.235 . S
C413 O416 1.238 . S
C413 O417 1.241 . S
C414 O407 1.247 . S
C414 O408 1.261 . S
C415 O410 1.259 . S
C415 O412 1.235 . S
O416 Co406 2.021 . S
O416 C413 1.238 . S
O417 Co411 2.052 . S
O417 C413 1.241 . S
O418 Co406 2.137 . S
O418 C409 1.247 . S
O419 Co406 2.244 . S
O419 C409 1.272 . S
O419 Co411 2.135 . S
Co420 O421 2.216 . S
Co420 O422 2.091 . S
Co420 O424 2.004 1_565 S
Co420 O430 2.021 . S
Co420 O432 2.137 1_565 S
Co420 O433 2.244 1_565 S
O421 Co420 2.216 . S
O421 C428 1.247 . S
O422 Co420 2.091 . S
O422 C428 1.261 . S
C423 O432 1.247 . S
C423 O433 1.272 . S
O424 Co420 2.004 1_545 S
O424 C429 1.259 . S
Co425 O426 2.061 . S
Co425 O431 2.052 . S
Co425 O433 2.135 . S
O426 Co425 2.061 . S
O426 C429 1.235 . S
C427 O430 1.238 . S
C427 O431 1.241 1_565 S
C428 O421 1.247 . S
C428 O422 1.261 . S
C429 O424 1.259 . S
C429 O426 1.235 . S
O430 Co420 2.021 . S
O430 C427 1.238 . S
O431 Co425 2.052 . S
O431 C427 1.241 1_545 S
O432 Co420 2.137 1_545 S
O432 C423 1.247 . S
O433 Co420 2.244 1_545 S
O433 C423 1.272 . S
O433 Co425 2.135 . S
Co434 O435 2.216 . S
Co434 O436 2.091 . S
Co434 O438 2.004 . S
Co434 O444 2.021 . S
Co434 O446 2.137 . S
Co434 O447 2.244 . S
O435 Co434 2.216 . S
O435 C442 1.247 . S
O436 Co434 2.091 . S
O436 C442 1.261 . S
C437 O446 1.247 . S
C437 O447 1.272 . S
O438 Co434 2.004 . S
O438 C443 1.259 . S
Co439 O440 2.061 . S
Co439 O445 2.052 . S
Co439 O447 2.135 . S
O440 Co439 2.061 . S
O440 C443 1.235 . S
C441 O444 1.238 . S
C441 O445 1.241 . S
C442 O435 1.247 . S
C442 O436 1.261 . S
C443 O438 1.259 . S
C443 O440 1.235 . S
O444 Co434 2.021 . S
O444 C441 1.238 . S
O445 Co439 2.052 . S
O445 C441 1.241 . S
O446 Co434 2.137 . S
O446 C437 1.247 . S
O447 Co434 2.244 . S
O447 C437 1.272 . S
O447 Co439 2.135 . S
Co448 O449 2.216 . S
Co448 O450 2.091 . S
Co448 O452 2.004 . S
Co448 O458 2.021 . S
Co448 O460 2.137 . S
Co448 O461 2.244 . S
O449 Co448 2.216 . S
O449 C456 1.247 . S
O450 Co448 2.091 . S
O450 C456 1.261 . S
C451 O460 1.247 . S
C451 O461 1.272 . S
O452 Co448 2.004 . S
O452 C457 1.259 . S
Co453 O454 2.061 . S
Co453 O459 2.052 . S
Co453 O461 2.135 . S
O454 Co453 2.061 . S
O454 C457 1.235 . S
C455 O458 1.238 . S
C455 O459 1.241 . S
C456 O449 1.247 . S
C456 O450 1.261 . S
C457 O452 1.259 . S
C457 O454 1.235 . S
O458 Co448 2.021 . S
O458 C455 1.238 . S
O459 Co453 2.052 . S
O459 C455 1.241 . S
O460 Co448 2.137 . S
O460 C451 1.247 . S
O461 Co448 2.244 . S
O461 C451 1.272 . S
O461 Co453 2.135 . S
Co462 O463 2.216 . S
Co462 O464 2.091 . S
Co462 O466 2.004 1_655 S
Co462 O472 2.021 1_655 S
Co462 O474 2.137 . S
Co462 O475 2.244 . S
O463 Co462 2.216 . S
O463 C470 1.247 . S
O464 Co462 2.091 . S
O464 C470 1.261 . S
C465 O474 1.247 . S
C465 O475 1.272 . S
O466 Co462 2.004 1_455 S
O466 C471 1.259 . S
Co467 O468 2.061 . S
Co467 O473 2.052 . S
Co467 O475 2.135 1_455 S
O468 Co467 2.061 . S
O468 C471 1.235 . S
C469 O472 1.238 . S
C469 O473 1.241 . S
C470 O463 1.247 . S
C470 O464 1.261 . S
C471 O466 1.259 . S
C471 O468 1.235 . S
O472 Co462 2.021 1_455 S
O472 C469 1.238 . S
O473 Co467 2.052 . S
O473 C469 1.241 . S
O474 Co462 2.137 . S
O474 C465 1.247 . S
O475 Co462 2.244 . S
O475 C465 1.272 . S
O475 Co467 2.135 1_655 S
Co476 O477 2.216 . S
Co476 O478 2.091 . S
Co476 O480 2.004 . S
Co476 O486 2.021 . S
Co476 O488 2.137 . S
Co476 O489 2.244 . S
O477 Co476 2.216 . S
O477 C484 1.247 . S
O478 Co476 2.091 . S
O478 C484 1.261 . S
C479 O488 1.247 . S
C479 O489 1.272 . S
O480 Co476 2.004 . S
O480 C485 1.259 . S
Co481 O482 2.061 . S
Co481 O487 2.052 . S
Co481 O489 2.135 . S
O482 Co481 2.061 . S
O482 C485 1.235 . S
C483 O486 1.238 . S
C483 O487 1.241 . S
C484 O477 1.247 . S
C484 O478 1.261 . S
C485 O480 1.259 . S
C485 O482 1.235 . S
O486 Co476 2.021 . S
O486 C483 1.238 . S
O487 Co481 2.052 . S
O487 C483 1.241 . S
O488 Co476 2.137 . S
O488 C479 1.247 . S
O489 Co476 2.244 . S
O489 C479 1.272 . S
O489 Co481 2.135 . S
Co490 O491 2.216 . S
Co490 O492 2.091 . S
Co490 O494 2.004 1_655 S
Co490 O500 2.021 1_655 S
Co490 O502 2.137 . S
Co490 O503 2.244 . S
O491 Co490 2.216 . S
O491 C498 1.247 . S
O492 Co490 2.091 . S
O492 C498 1.261 . S
C493 O502 1.247 . S
C493 O503 1.272 . S
O494 Co490 2.004 1_455 S
O494 C499 1.259 . S
Co495 O496 2.061 . S
Co495 O501 2.052 . S
Co495 O503 2.135 1_455 S
O496 Co495 2.061 . S
O496 C499 1.235 . S
C497 O500 1.238 . S
C497 O501 1.241 . S
C498 O491 1.247 . S
C498 O492 1.261 . S
C499 O494 1.259 . S
C499 O496 1.235 . S
O500 Co490 2.021 1_455 S
O500 C497 1.238 . S
O501 Co495 2.052 . S
O501 C497 1.241 . S
O502 Co490 2.137 . S
O502 C493 1.247 . S
O503 Co490 2.244 . S
O503 C493 1.272 . S
O503 Co495 2.135 1_655 S
Co504 O505 2.216 . S
Co504 O506 2.091 . S
Co504 O508 2.004 . S
Co504 O514 2.021 . S
Co504 O516 2.137 . S
Co504 O517 2.244 . S
O505 Co504 2.216 . S
O505 C512 1.247 . S
O506 Co504 2.091 . S
O506 C512 1.261 . S
C507 O516 1.247 . S
C507 O517 1.272 . S
O508 Co504 2.004 . S
O508 C513 1.259 . S
Co509 O510 2.061 . S
Co509 O515 2.052 . S
Co509 O517 2.135 . S
O510 Co509 2.061 . S
O510 C513 1.235 . S
C511 O514 1.238 . S
C511 O515 1.241 . S
C512 O505 1.247 . S
C512 O506 1.261 . S
C513 O508 1.259 . S
C513 O510 1.235 . S
O514 Co504 2.021 . S
O514 C511 1.238 . S
O515 Co509 2.052 . S
O515 C511 1.241 . S
O516 Co504 2.137 . S
O516 C507 1.247 . S
O517 Co504 2.244 . S
O517 C507 1.272 . S
O517 Co509 2.135 . S
Co518 O519 2.216 . S
Co518 O520 2.091 . S
Co518 O522 2.004 . S
Co518 O528 2.021 . S
Co518 O530 2.137 . S
Co518 O531 2.244 . S
O519 Co518 2.216 . S
O519 C526 1.247 . S
O520 Co518 2.091 . S
O520 C526 1.261 . S
C521 O530 1.247 . S
C521 O531 1.272 . S
O522 Co518 2.004 . S
O522 C527 1.259 . S
Co523 O524 2.061 . S
Co523 O529 2.052 . S
Co523 O531 2.135 . S
O524 Co523 2.061 . S
O524 C527 1.235 . S
C525 O528 1.238 . S
C525 O529 1.241 . S
C526 O519 1.247 . S
C526 O520 1.261 . S
C527 O522 1.259 . S
C527 O524 1.235 . S
O528 Co518 2.021 . S
O528 C525 1.238 . S
O529 Co523 2.052 . S
O529 C525 1.241 . S
O530 Co518 2.137 . S
O530 C521 1.247 . S
O531 Co518 2.244 . S
O531 C521 1.272 . S
O531 Co523 2.135 . S
Co532 O533 2.216 . S
Co532 O534 2.091 . S
Co532 O536 2.004 . S
Co532 O542 2.021 . S
Co532 O544 2.137 . S
Co532 O545 2.244 . S
O533 Co532 2.216 . S
O533 C540 1.247 . S
O534 Co532 2.091 . S
O534 C540 1.261 . S
C535 O544 1.247 . S
C535 O545 1.272 . S
O536 Co532 2.004 . S
O536 C541 1.259 . S
Co537 O538 2.061 . S
Co537 O543 2.052 . S
Co537 O545 2.135 . S
O538 Co537 2.061 . S
O538 C541 1.235 . S
C539 O542 1.238 . S
C539 O543 1.241 . S
C540 O533 1.247 . S
C540 O534 1.261 . S
C541 O536 1.259 . S
C541 O538 1.235 . S
O542 Co532 2.021 . S
O542 C539 1.238 . S
O543 Co537 2.052 . S
O543 C539 1.241 . S
O544 Co532 2.137 . S
O544 C535 1.247 . S
O545 Co532 2.244 . S
O545 C535 1.272 . S
O545 Co537 2.135 . S
Co546 O547 2.216 . S
Co546 O548 2.091 . S
Co546 O550 2.004 . S
Co546 O556 2.021 . S
Co546 O558 2.137 . S
Co546 O559 2.244 . S
O547 Co546 2.216 . S
O547 C554 1.247 . S
O548 Co546 2.091 . S
O548 C554 1.261 . S
C549 O558 1.247 . S
C549 O559 1.272 . S
O550 Co546 2.004 . S
O550 C555 1.259 . S
Co551 O552 2.061 . S
Co551 O557 2.052 . S
Co551 O559 2.135 . S
O552 Co551 2.061 . S
O552 C555 1.235 . S
C553 O556 1.238 . S
C553 O557 1.241 . S
C554 O547 1.247 . S
C554 O548 1.261 . S
C555 O550 1.259 . S
C555 O552 1.235 . S
O556 Co546 2.021 . S
O556 C553 1.238 . S
O557 Co551 2.052 . S
O557 C553 1.241 . S
O558 Co546 2.137 . S
O558 C549 1.247 . S
O559 Co546 2.244 . S
O559 C549 1.272 . S
O559 Co551 2.135 . S
Co560 O561 2.216 1_565 S
Co560 O562 2.091 . S
Co560 O564 2.004 . S
Co560 O570 2.021 1_565 S
Co560 O572 2.137 . S
Co560 O573 2.244 1_565 S
O561 Co560 2.216 1_545 S
O561 C568 1.247 1_545 S
O562 Co560 2.091 . S
O562 C568 1.261 . S
C563 O572 1.247 . S
C563 O573 1.272 1_565 S
O564 Co560 2.004 . S
O564 C569 1.259 . S
Co565 O566 2.037 1_545 S
Co565 O571 2.052 . S
Co565 O573 2.135 . S
O566 Co565 2.037 1_565 S
O566 C569 1.261 . S
C567 O570 1.238 . S
C567 O571 1.241 . S
C568 O561 1.247 1_565 S
C568 O562 1.261 . S
C569 O564 1.259 . S
C569 O566 1.261 . S
O570 Co560 2.021 1_545 S
O570 C567 1.238 . S
O571 Co565 2.052 . S
O571 C567 1.241 . S
O572 Co560 2.137 . S
O572 C563 1.247 . S
O573 Co560 2.244 1_545 S
O573 C563 1.272 1_545 S
O573 Co565 2.135 . S
Co574 O575 2.216 . S
Co574 O576 2.091 . S
Co574 O578 2.004 . S
Co574 O584 2.021 1_556 S
Co574 O586 2.137 . S
Co574 O587 2.244 1_556 S
O575 Co574 2.216 . S
O575 C582 1.247 . S
O576 Co574 2.091 . S
O576 C582 1.261 . S
C577 O586 1.251 . S
C577 O587 1.268 1_556 S
O578 Co574 2.004 . S
O578 C583 1.259 1_556 S
Co579 O580 2.061 . S
Co579 O585 2.052 . S
Co579 O587 2.135 . S
O580 Co579 2.061 . S
O580 C583 1.235 . S
C581 O584 1.238 . S
C581 O585 1.241 . S
C582 O575 1.247 . S
C582 O576 1.261 . S
C583 O578 1.259 1_554 S
C583 O580 1.235 . S
O584 Co574 2.021 1_554 S
O584 C581 1.238 . S
O585 Co579 2.052 . S
O585 C581 1.241 . S
O586 Co574 2.137 . S
O586 C577 1.251 . S
O587 Co574 2.244 1_554 S
O587 C577 1.268 1_554 S
O587 Co579 2.135 . S
Co588 O589 2.216 . S
Co588 O590 2.091 . S
Co588 O592 2.004 . S
Co588 O598 2.021 . S
Co588 O600 2.137 . S
Co588 O601 2.244 . S
O589 Co588 2.216 . S
O589 C596 1.247 . S
O590 Co588 2.091 . S
O590 C596 1.261 . S
C591 O600 1.247 . S
C591 O601 1.272 . S
O592 Co588 2.004 . S
O592 C597 1.259 . S
Co593 O594 2.061 . S
Co593 O599 2.052 . S
Co593 O601 2.135 . S
O594 Co593 2.061 . S
O594 C597 1.235 . S
C595 O598 1.238 . S
C595 O599 1.241 . S
C596 O589 1.247 . S
C596 O590 1.261 . S
C597 O592 1.259 . S
C597 O594 1.235 . S
O598 Co588 2.021 . S
O598 C595 1.238 . S
O599 Co593 2.052 . S
O599 C595 1.241 . S
O600 Co588 2.137 . S
O600 C591 1.247 . S
O601 Co588 2.244 . S
O601 C591 1.272 . S
O601 Co593 2.135 . S
Co602 O603 2.216 . S
Co602 O604 2.091 . S
Co602 O606 2.004 1_455 S
Co602 O612 2.021 1_455 S
Co602 O614 2.137 . S
Co602 O615 2.244 . S
O603 Co602 2.216 . S
O603 C610 1.247 . S
O604 Co602 2.091 . S
O604 C610 1.261 . S
C605 O614 1.247 . S
C605 O615 1.272 . S
O606 Co602 2.004 1_655 S
O606 C611 1.259 . S
Co607 O608 2.061 . S
Co607 O613 2.052 . S
Co607 O615 2.135 1_655 S
O608 Co607 2.061 . S
O608 C611 1.235 . S
C609 O612 1.238 . S
C609 O613 1.241 . S
C610 O603 1.247 . S
C610 O604 1.261 . S
C611 O606 1.259 . S
C611 O608 1.235 . S
O612 Co602 2.021 1_655 S
O612 C609 1.238 . S
O613 Co607 2.052 . S
O613 C609 1.241 . S
O614 Co602 2.137 . S
O614 C605 1.247 . S
O615 Co602 2.244 . S
O615 C605 1.272 . S
O615 Co607 2.135 1_455 S
Co616 O617 2.216 1_545 S
Co616 O618 2.091 . S
Co616 O620 2.004 . S
Co616 O626 2.021 1_545 S
Co616 O628 2.137 . S
Co616 O629 2.244 1_545 S
O617 Co616 2.216 1_565 S
O617 C624 1.247 1_565 S
O618 Co616 2.091 . S
O618 C624 1.261 . S
C619 O628 1.247 . S
C619 O629 1.272 1_545 S
O620 Co616 2.004 . S
O620 C625 1.259 . S
Co621 O622 2.037 1_565 S
Co621 O627 2.052 . S
Co621 O629 2.135 . S
O622 Co621 2.037 1_545 S
O622 C625 1.261 . S
C623 O626 1.238 . S
C623 O627 1.241 . S
C624 O617 1.247 1_545 S
C624 O618 1.261 . S
C625 O620 1.259 . S
C625 O622 1.261 . S
O626 Co616 2.021 1_565 S
O626 C623 1.238 . S
O627 Co621 2.052 . S
O627 C623 1.241 . S
O628 Co616 2.137 . S
O628 C619 1.247 . S
O629 Co616 2.244 1_565 S
O629 C619 1.272 1_565 S
O629 Co621 2.135 . S
Co630 O631 2.216 . S
Co630 O632 2.091 . S
Co630 O634 2.004 . S
Co630 O640 2.021 1_556 S
Co630 O642 2.137 . S
Co630 O643 2.244 1_556 S
O631 Co630 2.216 . S
O631 C638 1.247 . S
O632 Co630 2.091 . S
O632 C638 1.261 . S
C633 O642 1.251 . S
C633 O643 1.268 1_556 S
O634 Co630 2.004 . S
O634 C639 1.259 1_556 S
Co635 O636 2.061 . S
Co635 O641 2.052 . S
Co635 O643 2.135 . S
O636 Co635 2.061 . S
O636 C639 1.235 . S
C637 O640 1.238 . S
C637 O641 1.241 . S
C638 O631 1.247 . S
C638 O632 1.261 . S
C639 O634 1.259 1_554 S
C639 O636 1.235 . S
O640 Co630 2.021 1_554 S
O640 C637 1.238 . S
O641 Co635 2.052 . S
O641 C637 1.241 . S
O642 Co630 2.137 . S
O642 C633 1.251 . S
O643 Co630 2.244 1_554 S
O643 C633 1.268 1_554 S
O643 Co635 2.135 . S
Co644 O645 2.216 . S
Co644 O646 2.091 . S
Co644 O648 2.004 . S
Co644 O654 2.021 . S
Co644 O656 2.137 . S
Co644 O657 2.244 . S
O645 Co644 2.216 . S
O645 C652 1.247 . S
O646 Co644 2.091 . S
O646 C652 1.261 . S
C647 O656 1.247 . S
C647 O657 1.272 . S
O648 Co644 2.004 . S
O648 C653 1.259 . S
Co649 O650 2.061 . S
Co649 O655 2.052 . S
Co649 O657 2.135 . S
O650 Co649 2.061 . S
O650 C653 1.235 . S
C651 O654 1.238 . S
C651 O655 1.241 . S
C652 O645 1.247 . S
C652 O646 1.261 . S
C653 O648 1.259 . S
C653 O650 1.235 . S
O654 Co644 2.021 . S
O654 C651 1.238 . S
O655 Co649 2.052 . S
O655 C651 1.241 . S
O656 Co644 2.137 . S
O656 C647 1.247 . S
O657 Co644 2.244 . S
O657 C647 1.272 . S
O657 Co649 2.135 . S
Co658 O659 2.216 . S
Co658 O660 2.091 . S
Co658 O662 2.004 . S
Co658 O668 2.021 . S
Co658 O670 2.137 . S
Co658 O671 2.244 . S
O659 Co658 2.216 . S
O659 C666 1.247 . S
O660 Co658 2.091 . S
O660 C666 1.261 . S
C661 O670 1.247 . S
C661 O671 1.272 . S
O662 Co658 2.004 . S
O662 C667 1.259 . S
Co663 O664 2.061 . S
Co663 O669 2.052 . S
Co663 O671 2.135 . S
O664 Co663 2.061 . S
O664 C667 1.235 . S
C665 O668 1.238 . S
C665 O669 1.241 . S
C666 O659 1.247 . S
C666 O660 1.261 . S
C667 O662 1.259 . S
C667 O664 1.235 . S
O668 Co658 2.021 . S
O668 C665 1.238 . S
O669 Co663 2.052 . S
O669 C665 1.241 . S
O670 Co658 2.137 . S
O670 C661 1.247 . S
O671 Co658 2.244 . S
O671 C661 1.272 . S
O671 Co663 2.135 . S
H672 C684 0.930 . S
H673 C686 0.930 . S
H674 C687 0.930 . S
H675 C691 0.959 . S
H676 C691 0.959 . S
H677 C691 0.961 . S
H678 C692 0.960 . S
H679 C692 0.961 . S
H680 C692 0.959 . S
H681 C695 0.929 . S
H682 C696 0.931 . S
H683 C698 0.930 . S
C684 H672 0.930 . S
C684 C685 1.399 . S
C684 C689 1.399 . S
C685 C684 1.399 . S
C685 C686 1.376 . S
C686 H673 0.930 . S
C686 C685 1.376 . S
C686 C687 1.388 . S
C687 H674 0.930 . S
C687 C686 1.388 . S
C687 C688 1.390 . S
C688 C687 1.390 . S
C688 C689 1.394 . S
C688 C694 1.465 . S
C689 C684 1.399 . S
C689 C688 1.394 . S
C689 C690 1.516 . S
C690 C689 1.516 . S
C690 C691 1.502 . S
C690 C692 1.561 . S
C690 C693 1.526 . S
C691 H675 0.959 . S
C691 H676 0.959 . S
C691 H677 0.961 . S
C691 C690 1.502 . S
C692 H678 0.960 . S
C692 H679 0.961 . S
C692 H680 0.959 . S
C692 C690 1.561 . S
C693 C690 1.526 . S
C693 C694 1.396 . S
C693 C698 1.390 . S
C694 C688 1.465 . S
C694 C693 1.396 . S
C694 C695 1.399 . S
C695 H681 0.929 . S
C695 C694 1.399 . S
C695 C696 1.385 . S
C696 H682 0.931 . S
C696 C695 1.385 . S
C696 C697 1.389 . S
C697 C696 1.389 . S
C697 C698 1.387 . S
C698 H683 0.930 . S
C698 C693 1.390 . S
C698 C697 1.387 . S
H699 C711 0.930 . S
H700 C713 0.930 . S
H701 C714 0.930 . S
H702 C718 0.959 . S
H703 C718 0.959 . S
H704 C718 0.961 . S
H705 C719 0.960 . S
H706 C719 0.961 . S
H707 C719 0.959 . S
H708 C722 0.929 . S
H709 C723 0.931 . S
H710 C725 0.930 . S
C711 H699 0.930 . S
C711 C712 1.399 . S
C711 C716 1.399 . S
C712 C711 1.399 . S
C712 C713 1.376 . S
C713 H700 0.930 . S
C713 C712 1.376 . S
C713 C714 1.388 . S
C714 H701 0.930 . S
C714 C713 1.388 . S
C714 C715 1.390 . S
C715 C714 1.390 . S
C715 C716 1.394 . S
C715 C721 1.465 . S
C716 C711 1.399 . S
C716 C715 1.394 . S
C716 C717 1.516 . S
C717 C716 1.516 . S
C717 C718 1.502 . S
C717 C719 1.561 . S
C717 C720 1.526 . S
C718 H702 0.959 . S
C718 H703 0.959 . S
C718 H704 0.961 . S
C718 C717 1.502 . S
C719 H705 0.960 . S
C719 H706 0.961 . S
C719 H707 0.959 . S
C719 C717 1.561 . S
C720 C717 1.526 . S
C720 C721 1.396 . S
C720 C725 1.390 . S
C721 C715 1.465 . S
C721 C720 1.396 . S
C721 C722 1.399 . S
C722 H708 0.929 . S
C722 C721 1.399 . S
C722 C723 1.385 . S
C723 H709 0.931 . S
C723 C722 1.385 . S
C723 C724 1.389 . S
C724 C723 1.389 . S
C724 C725 1.387 . S
C725 H710 0.930 . S
C725 C720 1.390 . S
C725 C724 1.387 . S
H726 C738 0.930 . S
H727 C740 0.930 . S
H728 C741 0.930 . S
H729 C745 0.959 . S
H730 C745 0.959 . S
H731 C745 0.961 . S
H732 C746 0.960 . S
H733 C746 0.961 . S
H734 C746 0.959 . S
H735 C749 0.929 . S
H736 C750 0.931 . S
H737 C752 0.930 . S
C738 H726 0.930 . S
C738 C739 1.399 . S
C738 C743 1.399 . S
C739 C738 1.399 . S
C739 C740 1.376 . S
C740 H727 0.930 . S
C740 C739 1.376 . S
C740 C741 1.388 . S
C741 H728 0.930 . S
C741 C740 1.388 . S
C741 C742 1.390 . S
C742 C741 1.390 . S
C742 C743 1.394 . S
C742 C748 1.465 . S
C743 C738 1.399 . S
C743 C742 1.394 . S
C743 C744 1.516 . S
C744 C743 1.516 . S
C744 C745 1.502 . S
C744 C746 1.561 . S
C744 C747 1.526 . S
C745 H729 0.959 . S
C745 H730 0.959 . S
C745 H731 0.961 . S
C745 C744 1.502 . S
C746 H732 0.960 . S
C746 H733 0.961 . S
C746 H734 0.959 . S
C746 C744 1.561 . S
C747 C744 1.526 . S
C747 C748 1.396 . S
C747 C752 1.390 . S
C748 C742 1.465 . S
C748 C747 1.396 . S
C748 C749 1.399 . S
C749 H735 0.929 . S
C749 C748 1.399 . S
C749 C750 1.385 . S
C750 H736 0.931 . S
C750 C749 1.385 . S
C750 C751 1.389 . S
C751 C750 1.389 . S
C751 C752 1.387 . S
C752 H737 0.930 . S
C752 C747 1.390 . S
C752 C751 1.387 . S
H753 C765 0.930 . S
H754 C767 0.930 . S
H755 C768 0.930 . S
H756 C772 0.959 . S
H757 C772 0.959 . S
H758 C772 0.961 . S
H759 C773 0.960 . S
H760 C773 0.961 . S
H761 C773 0.959 . S
H762 C776 0.929 . S
H763 C777 0.931 . S
H764 C779 0.930 . S
C765 H753 0.930 . S
C765 C766 1.399 . S
C765 C770 1.399 . S
C766 C765 1.399 . S
C766 C767 1.376 . S
C767 H754 0.930 . S
C767 C766 1.376 . S
C767 C768 1.388 . S
C768 H755 0.930 . S
C768 C767 1.388 . S
C768 C769 1.390 . S
C769 C768 1.390 . S
C769 C770 1.394 . S
C769 C775 1.465 . S
C770 C765 1.399 . S
C770 C769 1.394 . S
C770 C771 1.516 . S
C771 C770 1.516 . S
C771 C772 1.502 . S
C771 C773 1.561 . S
C771 C774 1.526 . S
C772 H756 0.959 . S
C772 H757 0.959 . S
C772 H758 0.961 . S
C772 C771 1.502 . S
C773 H759 0.960 . S
C773 H760 0.961 . S
C773 H761 0.959 . S
C773 C771 1.561 . S
C774 C771 1.526 . S
C774 C775 1.396 . S
C774 C779 1.390 . S
C775 C769 1.465 . S
C775 C774 1.396 . S
C775 C776 1.399 . S
C776 H762 0.929 . S
C776 C775 1.399 . S
C776 C777 1.385 . S
C777 H763 0.931 . S
C777 C776 1.385 . S
C777 C778 1.389 . S
C778 C777 1.389 . S
C778 C779 1.387 . S
C779 H764 0.930 . S
C779 C774 1.390 . S
C779 C778 1.387 . S
H780 C792 0.930 . S
H781 C794 0.968 . S
H782 C795 0.930 . S
H783 C799 0.959 . S
H784 C799 0.959 . S
H785 C799 0.961 . S
H786 C800 0.960 . S
H787 C800 0.961 . S
H788 C800 0.959 . S
H789 C803 0.929 . S
H790 C804 0.931 . S
H791 C806 0.930 . S
C792 H780 0.930 . S
C792 C793 1.399 . S
C792 C797 1.399 . S
C793 C792 1.399 . S
C793 C794 1.376 . S
C794 H781 0.968 . S
C794 C793 1.376 . S
C794 C795 1.388 . S
C795 H782 0.930 . S
C795 C794 1.388 . S
C795 C796 1.390 . S
C796 C795 1.390 . S
C796 C797 1.394 . S
C796 C802 1.465 . S
C797 C792 1.399 . S
C797 C796 1.394 . S
C797 C798 1.516 . S
C798 C797 1.516 . S
C798 C799 1.502 . S
C798 C800 1.561 . S
C798 C801 1.526 . S
C799 H783 0.959 . S
C799 H784 0.959 . S
C799 H785 0.961 . S
C799 C798 1.502 . S
C800 H786 0.960 . S
C800 H787 0.961 . S
C800 H788 0.959 . S
C800 C798 1.561 . S
C801 C798 1.526 . S
C801 C802 1.396 . S
C801 C806 1.390 . S
C802 C796 1.465 . S
C802 C801 1.396 . S
C802 C803 1.399 . S
C803 H789 0.929 . S
C803 C802 1.399 . S
C803 C804 1.385 . S
C804 H790 0.931 . S
C804 C803 1.385 . S
C804 C805 1.389 . S
C805 C804 1.389 . S
C805 C806 1.387 . S
C806 H791 0.930 . S
C806 C801 1.390 . S
C806 C805 1.387 . S
H807 C819 0.930 . S
H808 C821 0.930 . S
H809 C822 0.930 . S
H810 C826 0.959 . S
H811 C826 0.959 . S
H812 C826 0.961 . S
H813 C827 0.960 . S
H814 C827 0.961 . S
H815 C827 0.959 . S
H816 C830 0.929 . S
H817 C831 0.931 . S
H818 C833 0.930 . S
C819 H807 0.930 . S
C819 C820 1.399 . S
C819 C824 1.399 . S
C820 C819 1.399 . S
C820 C821 1.376 . S
C821 H808 0.930 . S
C821 C820 1.376 . S
C821 C822 1.388 . S
C822 H809 0.930 . S
C822 C821 1.388 . S
C822 C823 1.390 . S
C823 C822 1.390 . S
C823 C824 1.394 . S
C823 C829 1.465 . S
C824 C819 1.399 . S
C824 C823 1.394 . S
C824 C825 1.516 . S
C825 C824 1.516 . S
C825 C826 1.502 . S
C825 C827 1.561 . S
C825 C828 1.526 . S
C826 H810 0.959 . S
C826 H811 0.959 . S
C826 H812 0.961 . S
C826 C825 1.502 . S
C827 H813 0.960 . S
C827 H814 0.961 . S
C827 H815 0.959 . S
C827 C825 1.561 . S
C828 C825 1.526 . S
C828 C829 1.396 . S
C828 C833 1.390 . S
C829 C823 1.465 . S
C829 C828 1.396 . S
C829 C830 1.399 . S
C830 H816 0.929 . S
C830 C829 1.399 . S
C830 C831 1.385 . S
C831 H817 0.931 . S
C831 C830 1.385 . S
C831 C832 1.389 . S
C832 C831 1.389 . S
C832 C833 1.387 . S
C833 H818 0.930 . S
C833 C828 1.390 . S
C833 C832 1.387 . S
H834 C846 0.930 . S
H835 C848 0.930 . S
H836 C849 0.930 . S
H837 C853 0.959 . S
H838 C853 0.959 . S
H839 C853 0.961 . S
H840 C854 0.960 . S
H841 C854 0.961 . S
H842 C854 0.959 . S
H843 C857 0.929 . S
H844 C858 0.931 . S
H845 C860 0.930 . S
C846 H834 0.930 . S
C846 C847 1.399 . S
C846 C851 1.399 . S
C847 C846 1.399 . S
C847 C848 1.376 1_565 S
C848 H835 0.930 . S
C848 C847 1.376 1_545 S
C848 C849 1.388 . S
C849 H836 0.930 . S
C849 C848 1.388 . S
C849 C850 1.390 1_545 S
C850 C849 1.390 1_565 S
C850 C851 1.394 . S
C850 C856 1.465 . S
C851 C846 1.399 . S
C851 C850 1.394 . S
C851 C852 1.516 . S
C852 C851 1.516 . S
C852 C853 1.502 . S
C852 C854 1.561 . S
C852 C855 1.526 . S
C853 H837 0.959 . S
C853 H838 0.959 . S
C853 H839 0.961 . S
C853 C852 1.502 . S
C854 H840 0.960 . S
C854 H841 0.961 . S
C854 H842 0.959 . S
C854 C852 1.561 . S
C855 C852 1.526 . S
C855 C856 1.396 . S
C855 C860 1.390 . S
C856 C850 1.465 . S
C856 C855 1.396 . S
C856 C857 1.399 1_565 S
C857 H843 0.929 . S
C857 C856 1.399 1_545 S
C857 C858 1.385 . S
C858 H844 0.931 . S
C858 C857 1.385 . S
C858 C859 1.389 1_545 S
C859 C858 1.389 1_565 S
C859 C860 1.387 . S
C860 H845 0.930 . S
C860 C855 1.390 . S
C860 C859 1.387 . S
H861 C873 0.930 . S
H862 C875 0.930 . S
H863 C876 0.930 . S
H864 C880 0.959 . S
H865 C880 0.959 . S
H866 C880 0.961 . S
H867 C881 0.960 . S
H868 C881 0.961 . S
H869 C881 0.959 . S
H870 C884 0.929 . S
H871 C885 0.931 . S
H872 C887 0.930 . S
C873 H861 0.930 . S
C873 C874 1.399 . S
C873 C878 1.399 . S
C874 C873 1.399 . S
C874 C875 1.376 . S
C875 H862 0.930 . S
C875 C874 1.376 . S
C875 C876 1.388 . S
C876 H863 0.930 . S
C876 C875 1.388 . S
C876 C877 1.390 . S
C877 C876 1.390 . S
C877 C878 1.394 . S
C877 C883 1.465 . S
C878 C873 1.399 . S
C878 C877 1.394 . S
C878 C879 1.516 . S
C879 C878 1.516 . S
C879 C880 1.502 . S
C879 C881 1.561 . S
C879 C882 1.526 . S
C880 H864 0.959 . S
C880 H865 0.959 . S
C880 H866 0.961 . S
C880 C879 1.502 . S
C881 H867 0.960 . S
C881 H868 0.961 . S
C881 H869 0.959 . S
C881 C879 1.561 . S
C882 C879 1.526 . S
C882 C883 1.396 . S
C882 C887 1.390 . S
C883 C877 1.465 . S
C883 C882 1.396 . S
C883 C884 1.399 . S
C884 H870 0.929 . S
C884 C883 1.399 . S
C884 C885 1.385 . S
C885 H871 0.931 . S
C885 C884 1.385 . S
C885 C886 1.389 . S
C886 C885 1.389 . S
C886 C887 1.387 . S
C887 H872 0.930 . S
C887 C882 1.390 . S
C887 C886 1.387 . S
H888 C900 0.930 . S
H889 C902 0.930 . S
H890 C903 0.930 . S
H891 C907 0.959 . S
H892 C907 0.959 . S
H893 C907 0.961 . S
H894 C908 0.960 . S
H895 C908 0.961 . S
H896 C908 0.959 . S
H897 C911 0.929 . S
H898 C912 0.931 . S
H899 C914 0.930 . S
C900 H888 0.930 . S
C900 C901 1.399 . S
C900 C905 1.399 . S
C901 C900 1.399 . S
C901 C902 1.376 . S
C902 H889 0.930 . S
C902 C901 1.376 . S
C902 C903 1.388 . S
C903 H890 0.930 . S
C903 C902 1.388 . S
C903 C904 1.390 . S
C904 C903 1.390 . S
C904 C905 1.394 . S
C904 C910 1.465 . S
C905 C900 1.399 . S
C905 C904 1.394 . S
C905 C906 1.516 . S
C906 C905 1.516 . S
C906 C907 1.502 . S
C906 C908 1.561 . S
C906 C909 1.526 . S
C907 H891 0.959 . S
C907 H892 0.959 . S
C907 H893 0.961 . S
C907 C906 1.502 . S
C908 H894 0.960 . S
C908 H895 0.961 . S
C908 H896 0.959 . S
C908 C906 1.561 . S
C909 C906 1.526 . S
C909 C910 1.396 . S
C909 C914 1.390 . S
C910 C904 1.465 . S
C910 C909 1.396 . S
C910 C911 1.399 . S
C911 H897 0.929 . S
C911 C910 1.399 . S
C911 C912 1.385 . S
C912 H898 0.931 . S
C912 C911 1.385 . S
C912 C913 1.389 . S
C913 C912 1.389 . S
C913 C914 1.387 . S
C914 H899 0.930 . S
C914 C909 1.390 . S
C914 C913 1.387 . S
H915 C927 0.930 . S
H916 C929 0.930 . S
H917 C930 0.930 . S
H918 C934 0.959 . S
H919 C934 0.959 . S
H920 C934 0.961 . S
H921 C935 0.960 . S
H922 C935 0.961 . S
H923 C935 0.959 . S
H924 C938 0.929 . S
H925 C939 0.931 . S
H926 C941 0.930 . S
C927 H915 0.930 . S
C927 C928 1.399 . S
C927 C932 1.399 . S
C928 C927 1.399 . S
C928 C929 1.376 . S
C929 H916 0.930 . S
C929 C928 1.376 . S
C929 C930 1.388 . S
C930 H917 0.930 . S
C930 C929 1.388 . S
C930 C931 1.390 . S
C931 C930 1.390 . S
C931 C932 1.394 . S
C931 C937 1.465 . S
C932 C927 1.399 . S
C932 C931 1.394 . S
C932 C933 1.516 . S
C933 C932 1.516 . S
C933 C934 1.502 . S
C933 C935 1.561 . S
C933 C936 1.526 . S
C934 H918 0.959 . S
C934 H919 0.959 . S
C934 H920 0.961 . S
C934 C933 1.502 . S
C935 H921 0.960 . S
C935 H922 0.961 . S
C935 H923 0.959 . S
C935 C933 1.561 . S
C936 C933 1.526 . S
C936 C937 1.396 . S
C936 C941 1.390 . S
C937 C931 1.465 . S
C937 C936 1.396 . S
C937 C938 1.399 . S
C938 H924 0.929 . S
C938 C937 1.399 . S
C938 C939 1.385 . S
C939 H925 0.931 . S
C939 C938 1.385 . S
C939 C940 1.389 . S
C940 C939 1.389 . S
C940 C941 1.387 . S
C941 H926 0.930 . S
C941 C936 1.390 . S
C941 C940 1.387 . S
H942 C954 0.930 . S
H943 C956 0.930 . S
H944 C957 0.930 . S
H945 C961 0.959 . S
H946 C961 0.959 . S
H947 C961 0.961 . S
H948 C962 0.960 . S
H949 C962 0.961 . S
H950 C962 0.959 . S
H951 C965 0.929 . S
H952 C966 0.931 . S
H953 C968 0.930 . S
C954 H942 0.930 . S
C954 C955 1.399 . S
C954 C959 1.399 . S
C955 C954 1.399 . S
C955 C956 1.376 . S
C956 H943 0.930 . S
C956 C955 1.376 . S
C956 C957 1.388 . S
C957 H944 0.930 . S
C957 C956 1.388 . S
C957 C958 1.390 . S
C958 C957 1.390 . S
C958 C959 1.394 . S
C958 C964 1.465 . S
C959 C954 1.399 . S
C959 C958 1.394 . S
C959 C960 1.516 . S
C960 C959 1.516 . S
C960 C961 1.502 . S
C960 C962 1.561 . S
C960 C963 1.526 . S
C961 H945 0.959 . S
C961 H946 0.959 . S
C961 H947 0.961 . S
C961 C960 1.502 . S
C962 H948 0.960 . S
C962 H949 0.961 . S
C962 H950 0.959 . S
C962 C960 1.561 . S
C963 C960 1.526 . S
C963 C964 1.396 . S
C963 C968 1.390 . S
C964 C958 1.465 . S
C964 C963 1.396 . S
C964 C965 1.399 . S
C965 H951 0.929 . S
C965 C964 1.399 . S
C965 C966 1.385 . S
C966 H952 0.931 . S
C966 C965 1.385 . S
C966 C967 1.389 . S
C967 C966 1.389 . S
C967 C968 1.387 . S
C968 H953 0.930 . S
C968 C963 1.390 . S
C968 C967 1.387 . S
H969 C981 0.930 . S
H970 C983 0.930 . S
H971 C984 0.930 . S
H972 C988 0.959 . S
H973 C988 0.959 . S
H974 C988 0.961 . S
H975 C989 0.960 . S
H976 C989 0.961 . S
H977 C989 0.959 . S
H978 C992 0.929 . S
H979 C993 0.931 . S
H980 C995 0.930 . S
C981 H969 0.930 . S
C981 C982 1.399 . S
C981 C986 1.399 . S
C982 C981 1.399 . S
C982 C983 1.376 . S
C983 H970 0.930 . S
C983 C982 1.376 . S
C983 C984 1.388 . S
C984 H971 0.930 . S
C984 C983 1.388 . S
C984 C985 1.390 . S
C985 C984 1.390 . S
C985 C986 1.394 . S
C985 C991 1.465 . S
C986 C981 1.399 . S
C986 C985 1.394 . S
C986 C987 1.516 . S
C987 C986 1.516 . S
C987 C988 1.502 . S
C987 C989 1.561 . S
C987 C990 1.526 . S
C988 H972 0.959 . S
C988 H973 0.959 . S
C988 H974 0.961 . S
C988 C987 1.502 . S
C989 H975 0.960 . S
C989 H976 0.961 . S
C989 H977 0.959 . S
C989 C987 1.561 . S
C990 C987 1.526 . S
C990 C991 1.396 . S
C990 C995 1.390 . S
C991 C985 1.465 . S
C991 C990 1.396 . S
C991 C992 1.399 . S
C992 H978 0.929 . S
C992 C991 1.399 . S
C992 C993 1.385 . S
C993 H979 0.931 . S
C993 C992 1.385 . S
C993 C994 1.389 . S
C994 C993 1.389 . S
C994 C995 1.387 . S
C995 H980 0.930 . S
C995 C990 1.390 . S
C995 C994 1.387 . S
H996 C1008 0.930 . S
H997 C1010 0.930 . S
H998 C1011 0.930 . S
H999 C1015 0.959 . S
H1000 C1015 0.959 . S
H1001 C1015 0.961 . S
H1002 C1016 0.960 . S
H1003 C1016 0.961 . S
H1004 C1016 0.959 . S
H1005 C1019 0.929 . S
H1006 C1020 0.931 . S
H1007 C1022 0.930 . S
C1008 H996 0.930 . S
C1008 C1009 1.399 . S
C1008 C1013 1.399 . S
C1009 C1008 1.399 . S
C1009 C1010 1.376 . S
C1010 H997 0.930 . S
C1010 C1009 1.376 . S
C1010 C1011 1.388 . S
C1011 H998 0.930 . S
C1011 C1010 1.388 . S
C1011 C1012 1.390 . S
C1012 C1011 1.390 . S
C1012 C1013 1.394 . S
C1012 C1018 1.465 . S
C1013 C1008 1.399 . S
C1013 C1012 1.394 . S
C1013 C1014 1.516 . S
C1014 C1013 1.516 . S
C1014 C1015 1.502 . S
C1014 C1016 1.561 . S
C1014 C1017 1.526 . S
C1015 H999 0.959 . S
C1015 H1000 0.959 . S
C1015 H1001 0.961 . S
C1015 C1014 1.502 . S
C1016 H1002 0.960 . S
C1016 H1003 0.961 . S
C1016 H1004 0.959 . S
C1016 C1014 1.561 . S
C1017 C1014 1.526 . S
C1017 C1018 1.396 . S
C1017 C1022 1.390 . S
C1018 C1012 1.465 . S
C1018 C1017 1.396 . S
C1018 C1019 1.399 . S
C1019 H1005 0.929 . S
C1019 C1018 1.399 . S
C1019 C1020 1.385 . S
C1020 H1006 0.931 . S
C1020 C1019 1.385 . S
C1020 C1021 1.389 . S
C1021 C1020 1.389 . S
C1021 C1022 1.387 . S
C1022 H1007 0.930 . S
C1022 C1017 1.390 . S
C1022 C1021 1.387 . S
H1023 C1035 0.930 . S
H1024 C1037 0.930 . S
H1025 C1038 0.930 . S
H1026 C1042 0.959 . S
H1027 C1042 0.959 . S
H1028 C1042 0.961 . S
H1029 C1043 0.960 . S
H1030 C1043 0.961 . S
H1031 C1043 0.959 . S
H1032 C1046 0.929 . S
H1033 C1047 0.931 . S
H1034 C1049 0.930 . S
C1035 H1023 0.930 . S
C1035 C1036 1.399 . S
C1035 C1040 1.399 . S
C1036 C1035 1.399 . S
C1036 C1037 1.376 . S
C1037 H1024 0.930 . S
C1037 C1036 1.376 . S
C1037 C1038 1.388 . S
C1038 H1025 0.930 . S
C1038 C1037 1.388 . S
C1038 C1039 1.390 . S
C1039 C1038 1.390 . S
C1039 C1040 1.394 . S
C1039 C1045 1.465 . S
C1040 C1035 1.399 . S
C1040 C1039 1.394 . S
C1040 C1041 1.516 . S
C1041 C1040 1.516 . S
C1041 C1042 1.502 . S
C1041 C1043 1.561 . S
C1041 C1044 1.526 . S
C1042 H1026 0.959 . S
C1042 H1027 0.959 . S
C1042 H1028 0.961 . S
C1042 C1041 1.502 . S
C1043 H1029 0.960 . S
C1043 H1030 0.961 . S
C1043 H1031 0.959 . S
C1043 C1041 1.561 . S
C1044 C1041 1.526 . S
C1044 C1045 1.396 . S
C1044 C1049 1.390 . S
C1045 C1039 1.465 . S
C1045 C1044 1.396 . S
C1045 C1046 1.399 . S
C1046 H1032 0.929 . S
C1046 C1045 1.399 . S
C1046 C1047 1.385 . S
C1047 H1033 0.931 . S
C1047 C1046 1.385 . S
C1047 C1048 1.389 . S
C1048 C1047 1.389 . S
C1048 C1049 1.387 . S
C1049 H1034 0.930 . S
C1049 C1044 1.390 . S
C1049 C1048 1.387 . S
H1050 C1062 0.930 . S
H1051 C1064 0.930 . S
H1052 C1065 0.930 . S
H1053 C1069 0.959 . S
H1054 C1069 0.959 1_554 S
H1055 C1069 0.961 . S
H1056 C1070 0.960 . S
H1057 C1070 0.961 . S
H1058 C1070 0.959 . S
H1059 C1073 0.929 . S
H1060 C1074 0.931 . S
H1061 C1076 0.930 1_554 S
C1062 H1050 0.930 . S
C1062 C1063 1.399 . S
C1062 C1067 1.399 . S
C1063 C1062 1.399 . S
C1063 C1064 1.376 . S
C1064 H1051 0.930 . S
C1064 C1063 1.376 . S
C1064 C1065 1.388 . S
C1065 H1052 0.930 . S
C1065 C1064 1.388 . S
C1065 C1066 1.390 . S
C1066 C1065 1.390 . S
C1066 C1067 1.394 . S
C1066 C1072 1.465 . S
C1067 C1062 1.399 . S
C1067 C1066 1.394 . S
C1067 C1068 1.516 . S
C1068 C1067 1.516 . S
C1068 C1069 1.502 . S
C1068 C1070 1.561 . S
C1068 C1071 1.526 . S
C1069 H1053 0.959 . S
C1069 H1054 0.959 1_556 S
C1069 H1055 0.961 . S
C1069 C1068 1.502 . S
C1070 H1056 0.960 . S
C1070 H1057 0.961 . S
C1070 H1058 0.959 . S
C1070 C1068 1.561 . S
C1071 C1068 1.526 . S
C1071 C1072 1.396 . S
C1071 C1076 1.390 . S
C1072 C1066 1.465 . S
C1072 C1071 1.396 . S
C1072 C1073 1.399 . S
C1073 H1059 0.929 . S
C1073 C1072 1.399 . S
C1073 C1074 1.385 . S
C1074 H1060 0.931 . S
C1074 C1073 1.385 . S
C1074 C1075 1.389 . S
C1075 C1074 1.389 . S
C1075 C1076 1.387 . S
C1076 H1061 0.930 1_556 S
C1076 C1071 1.390 . S
C1076 C1075 1.387 . S
H1077 C1089 0.930 . S
H1078 C1091 0.930 . S
H1079 C1092 0.930 . S
H1080 C1096 0.959 . S
H1081 C1096 0.959 . S
H1082 C1096 0.961 . S
H1083 C1097 0.960 . S
H1084 C1097 0.961 . S
H1085 C1097 0.959 . S
H1086 C1100 0.929 . S
H1087 C1101 0.931 . S
H1088 C1103 0.930 . S
C1089 H1077 0.930 . S
C1089 C1090 1.399 . S
C1089 C1094 1.399 . S
C1090 C1089 1.399 . S
C1090 C1091 1.376 . S
C1091 H1078 0.930 . S
C1091 C1090 1.376 . S
C1091 C1092 1.388 . S
C1092 H1079 0.930 . S
C1092 C1091 1.388 . S
C1092 C1093 1.390 . S
C1093 C1092 1.390 . S
C1093 C1094 1.394 . S
C1093 C1099 1.465 . S
C1094 C1089 1.399 . S
C1094 C1093 1.394 . S
C1094 C1095 1.516 . S
C1095 C1094 1.516 . S
C1095 C1096 1.502 . S
C1095 C1097 1.561 . S
C1095 C1098 1.526 . S
C1096 H1080 0.959 . S
C1096 H1081 0.959 . S
C1096 H1082 0.961 . S
C1096 C1095 1.502 . S
C1097 H1083 0.960 . S
C1097 H1084 0.961 . S
C1097 H1085 0.959 . S
C1097 C1095 1.561 . S
C1098 C1095 1.526 . S
C1098 C1099 1.396 . S
C1098 C1103 1.390 . S
C1099 C1093 1.465 . S
C1099 C1098 1.396 . S
C1099 C1100 1.399 . S
C1100 H1086 0.929 . S
C1100 C1099 1.399 . S
C1100 C1101 1.385 . S
C1101 H1087 0.931 . S
C1101 C1100 1.385 . S
C1101 C1102 1.389 . S
C1102 C1101 1.389 . S
C1102 C1103 1.387 . S
C1103 H1088 0.930 . S
C1103 C1098 1.390 . S
C1103 C1102 1.387 . S
H1104 C1116 0.930 . S
H1105 C1118 0.930 . S
H1106 C1119 0.930 . S
H1107 C1123 0.959 . S
H1108 C1123 0.959 . S
H1109 C1123 0.961 . S
H1110 C1124 0.960 . S
H1111 C1124 0.961 . S
H1112 C1124 0.959 . S
H1113 C1127 0.929 . S
H1114 C1128 0.931 . S
H1115 C1130 0.930 . S
C1116 H1104 0.930 . S
C1116 C1117 1.399 . S
C1116 C1121 1.399 . S
C1117 C1116 1.399 . S
C1117 C1118 1.376 . S
C1118 H1105 0.930 . S
C1118 C1117 1.376 . S
C1118 C1119 1.388 . S
C1119 H1106 0.930 . S
C1119 C1118 1.388 . S
C1119 C1120 1.390 . S
C1120 C1119 1.390 . S
C1120 C1121 1.394 . S
C1120 C1126 1.465 . S
C1121 C1116 1.399 . S
C1121 C1120 1.394 . S
C1121 C1122 1.516 . S
C1122 C1121 1.516 . S
C1122 C1123 1.502 . S
C1122 C1124 1.561 . S
C1122 C1125 1.526 . S
C1123 H1107 0.959 . S
C1123 H1108 0.959 . S
C1123 H1109 0.961 . S
C1123 C1122 1.502 . S
C1124 H1110 0.960 . S
C1124 H1111 0.961 . S
C1124 H1112 0.959 . S
C1124 C1122 1.561 . S
C1125 C1122 1.526 . S
C1125 C1126 1.396 . S
C1125 C1130 1.390 . S
C1126 C1120 1.465 . S
C1126 C1125 1.396 . S
C1126 C1127 1.399 . S
C1127 H1113 0.929 . S
C1127 C1126 1.399 . S
C1127 C1128 1.385 . S
C1128 H1114 0.931 . S
C1128 C1127 1.385 . S
C1128 C1129 1.389 . S
C1129 C1128 1.389 . S
C1129 C1130 1.387 . S
C1130 H1115 0.930 . S
C1130 C1125 1.390 . S
C1130 C1129 1.387 . S
H1131 C1143 0.930 . S
H1132 C1145 0.930 . S
H1133 C1146 0.930 . S
H1134 C1150 0.959 . S
H1135 C1150 0.959 . S
H1136 C1150 0.961 . S
H1137 C1151 0.960 . S
H1138 C1151 0.961 . S
H1139 C1151 0.959 . S
H1140 C1154 0.929 . S
H1141 C1155 0.931 . S
H1142 C1157 0.930 . S
C1143 H1131 0.930 . S
C1143 C1144 1.399 . S
C1143 C1148 1.399 . S
C1144 C1143 1.399 . S
C1144 C1145 1.376 . S
C1145 H1132 0.930 . S
C1145 C1144 1.376 . S
C1145 C1146 1.388 . S
C1146 H1133 0.930 . S
C1146 C1145 1.388 . S
C1146 C1147 1.390 . S
C1147 C1146 1.390 . S
C1147 C1148 1.394 . S
C1147 C1153 1.465 . S
C1148 C1143 1.399 . S
C1148 C1147 1.394 . S
C1148 C1149 1.516 . S
C1149 C1148 1.516 . S
C1149 C1150 1.502 . S
C1149 C1151 1.561 . S
C1149 C1152 1.526 . S
C1150 H1134 0.959 . S
C1150 H1135 0.959 . S
C1150 H1136 0.961 . S
C1150 C1149 1.502 . S
C1151 H1137 0.960 . S
C1151 H1138 0.961 . S
C1151 H1139 0.959 . S
C1151 C1149 1.561 . S
C1152 C1149 1.526 . S
C1152 C1153 1.396 . S
C1152 C1157 1.390 . S
C1153 C1147 1.465 . S
C1153 C1152 1.396 . S
C1153 C1154 1.399 . S
C1154 H1140 0.929 . S
C1154 C1153 1.399 . S
C1154 C1155 1.385 . S
C1155 H1141 0.931 . S
C1155 C1154 1.385 . S
C1155 C1156 1.389 . S
C1156 C1155 1.389 . S
C1156 C1157 1.387 . S
C1157 H1142 0.930 . S
C1157 C1152 1.390 . S
C1157 C1156 1.387 . S
H1158 C1170 0.930 . S
H1159 C1172 0.930 . S
H1160 C1173 0.930 . S
H1161 C1177 0.959 . S
H1162 C1177 0.959 . S
H1163 C1177 0.961 . S
H1164 C1178 0.960 . S
H1165 C1178 0.961 . S
H1166 C1178 0.959 . S
H1167 C1181 0.929 . S
H1168 C1182 0.931 1_455 S
H1169 C1184 0.930 . S
C1170 H1158 0.930 . S
C1170 C1171 1.399 . S
C1170 C1175 1.399 . S
C1171 C1170 1.399 . S
C1171 C1172 1.376 . S
C1172 H1159 0.930 . S
C1172 C1171 1.376 . S
C1172 C1173 1.388 . S
C1173 H1160 0.930 . S
C1173 C1172 1.388 . S
C1173 C1174 1.390 . S
C1174 C1173 1.390 . S
C1174 C1175 1.394 . S
C1174 C1180 1.465 . S
C1175 C1170 1.399 . S
C1175 C1174 1.394 . S
C1175 C1176 1.516 . S
C1176 C1175 1.516 . S
C1176 C1177 1.502 . S
C1176 C1178 1.561 . S
C1176 C1179 1.526 . S
C1177 H1161 0.959 . S
C1177 H1162 0.959 . S
C1177 H1163 0.961 . S
C1177 C1176 1.502 . S
C1178 H1164 0.960 . S
C1178 H1165 0.961 . S
C1178 H1166 0.959 . S
C1178 C1176 1.561 . S
C1179 C1176 1.526 . S
C1179 C1180 1.396 . S
C1179 C1184 1.390 . S
C1180 C1174 1.465 . S
C1180 C1179 1.396 . S
C1180 C1181 1.399 . S
C1181 H1167 0.929 . S
C1181 C1180 1.399 . S
C1181 C1182 1.385 . S
C1182 H1168 0.931 1_655 S
C1182 C1181 1.385 . S
C1182 C1183 1.389 . S
C1183 C1182 1.389 . S
C1183 C1184 1.387 . S
C1184 H1169 0.930 . S
C1184 C1179 1.390 . S
C1184 C1183 1.387 . S
H1185 C1197 0.930 . S
H1186 C1199 0.930 . S
H1187 C1200 0.930 . S
H1188 C1204 0.959 . S
H1189 C1204 0.959 . S
H1190 C1204 0.961 . S
H1191 C1205 0.960 . S
H1192 C1205 0.961 . S
H1193 C1205 0.959 . S
H1194 C1208 0.929 . S
H1195 C1209 0.931 . S
H1196 C1211 0.930 . S
C1197 H1185 0.930 . S
C1197 C1198 1.399 . S
C1197 C1202 1.399 . S
C1198 C1197 1.399 . S
C1198 C1199 1.376 . S
C1199 H1186 0.930 . S
C1199 C1198 1.376 . S
C1199 C1200 1.388 . S
C1200 H1187 0.930 . S
C1200 C1199 1.388 . S
C1200 C1201 1.390 . S
C1201 C1200 1.390 . S
C1201 C1202 1.394 . S
C1201 C1207 1.465 . S
C1202 C1197 1.399 . S
C1202 C1201 1.394 . S
C1202 C1203 1.516 . S
C1203 C1202 1.516 . S
C1203 C1204 1.502 . S
C1203 C1205 1.561 . S
C1203 C1206 1.526 . S
C1204 H1188 0.959 . S
C1204 H1189 0.959 . S
C1204 H1190 0.961 . S
C1204 C1203 1.502 . S
C1205 H1191 0.960 . S
C1205 H1192 0.961 . S
C1205 H1193 0.959 . S
C1205 C1203 1.561 . S
C1206 C1203 1.526 . S
C1206 C1207 1.396 . S
C1206 C1211 1.390 . S
C1207 C1201 1.465 . S
C1207 C1206 1.396 . S
C1207 C1208 1.399 . S
C1208 H1194 0.929 . S
C1208 C1207 1.399 . S
C1208 C1209 1.385 . S
C1209 H1195 0.931 . S
C1209 C1208 1.385 . S
C1209 C1210 1.389 . S
C1210 C1209 1.389 . S
C1210 C1211 1.387 . S
C1211 H1196 0.930 . S
C1211 C1206 1.390 . S
C1211 C1210 1.387 . S
H1212 C1224 0.930 . S
H1213 C1226 0.930 . S
H1214 C1227 0.930 . S
H1215 C1231 0.959 . S
H1216 C1231 0.959 . S
H1217 C1231 0.961 . S
H1218 C1232 0.960 . S
H1219 C1232 0.961 . S
H1220 C1232 0.959 . S
H1221 C1235 0.929 . S
H1222 C1236 0.931 . S
H1223 C1238 0.930 . S
C1224 H1212 0.930 . S
C1224 C1225 1.399 . S
C1224 C1229 1.399 . S
C1225 C1224 1.399 . S
C1225 C1226 1.376 . S
C1226 H1213 0.930 . S
C1226 C1225 1.376 . S
C1226 C1227 1.388 . S
C1227 H1214 0.930 . S
C1227 C1226 1.388 . S
C1227 C1228 1.390 . S
C1228 C1227 1.390 . S
C1228 C1229 1.394 . S
C1228 C1234 1.465 . S
C1229 C1224 1.399 . S
C1229 C1228 1.394 . S
C1229 C1230 1.516 . S
C1230 C1229 1.516 . S
C1230 C1231 1.502 . S
C1230 C1232 1.561 . S
C1230 C1233 1.526 . S
C1231 H1215 0.959 . S
C1231 H1216 0.959 . S
C1231 H1217 0.961 . S
C1231 C1230 1.502 . S
C1232 H1218 0.960 . S
C1232 H1219 0.961 . S
C1232 H1220 0.959 . S
C1232 C1230 1.561 . S
C1233 C1230 1.526 . S
C1233 C1234 1.396 . S
C1233 C1238 1.390 . S
C1234 C1228 1.465 . S
C1234 C1233 1.396 . S
C1234 C1235 1.399 . S
C1235 H1221 0.929 . S
C1235 C1234 1.399 . S
C1235 C1236 1.385 . S
C1236 H1222 0.931 . S
C1236 C1235 1.385 . S
C1236 C1237 1.389 . S
C1237 C1236 1.389 . S
C1237 C1238 1.387 . S
C1238 H1223 0.930 . S
C1238 C1233 1.390 . S
C1238 C1237 1.387 . S
H1239 C1251 0.930 . S
H1240 C1253 0.930 . S
H1241 C1254 0.930 . S
H1242 C1258 0.959 . S
H1243 C1258 0.959 . S
H1244 C1258 0.961 . S
H1245 C1259 0.960 . S
H1246 C1259 0.961 . S
H1247 C1259 0.959 . S
H1248 C1262 0.929 . S
H1249 C1263 0.931 . S
H1250 C1265 0.930 . S
C1251 H1239 0.930 . S
C1251 C1252 1.399 . S
C1251 C1256 1.399 . S
C1252 C1251 1.399 . S
C1252 C1253 1.376 . S
C1253 H1240 0.930 . S
C1253 C1252 1.376 . S
C1253 C1254 1.388 . S
C1254 H1241 0.930 . S
C1254 C1253 1.388 . S
C1254 C1255 1.390 . S
C1255 C1254 1.390 . S
C1255 C1256 1.394 . S
C1255 C1261 1.465 . S
C1256 C1251 1.399 . S
C1256 C1255 1.394 . S
C1256 C1257 1.516 . S
C1257 C1256 1.516 . S
C1257 C1258 1.502 . S
C1257 C1259 1.561 . S
C1257 C1260 1.526 . S
C1258 H1242 0.959 . S
C1258 H1243 0.959 . S
C1258 H1244 0.961 . S
C1258 C1257 1.502 . S
C1259 H1245 0.960 . S
C1259 H1246 0.961 . S
C1259 H1247 0.959 . S
C1259 C1257 1.561 . S
C1260 C1257 1.526 . S
C1260 C1261 1.396 . S
C1260 C1265 1.390 . S
C1261 C1255 1.465 . S
C1261 C1260 1.396 . S
C1261 C1262 1.399 . S
C1262 H1248 0.929 . S
C1262 C1261 1.399 . S
C1262 C1263 1.385 . S
C1263 H1249 0.931 . S
C1263 C1262 1.385 . S
C1263 C1264 1.389 . S
C1264 C1263 1.389 . S
C1264 C1265 1.387 . S
C1265 H1250 0.930 . S
C1265 C1260 1.390 . S
C1265 C1264 1.387 . S
H1266 C1278 0.930 . S
H1267 C1280 0.930 . S
H1268 C1281 0.930 . S
H1269 C1285 0.959 . S
H1270 C1285 0.959 . S
H1271 C1285 0.961 . S
H1272 C1286 0.960 . S
H1273 C1286 0.961 . S
H1274 C1286 0.959 . S
H1275 C1289 0.929 . S
H1276 C1290 0.931 . S
H1277 C1292 0.930 . S
C1278 H1266 0.930 . S
C1278 C1279 1.399 . S
C1278 C1283 1.399 . S
C1279 C1278 1.399 . S
C1279 C1280 1.376 . S
C1280 H1267 0.930 . S
C1280 C1279 1.376 . S
C1280 C1281 1.388 . S
C1281 H1268 0.930 . S
C1281 C1280 1.388 . S
C1281 C1282 1.390 . S
C1282 C1281 1.390 . S
C1282 C1283 1.394 . S
C1282 C1288 1.465 . S
C1283 C1278 1.399 . S
C1283 C1282 1.394 . S
C1283 C1284 1.516 . S
C1284 C1283 1.516 . S
C1284 C1285 1.502 . S
C1284 C1286 1.561 . S
C1284 C1287 1.526 . S
C1285 H1269 0.959 . S
C1285 H1270 0.959 . S
C1285 H1271 0.961 . S
C1285 C1284 1.502 . S
C1286 H1272 0.960 . S
C1286 H1273 0.961 . S
C1286 H1274 0.959 . S
C1286 C1284 1.561 . S
C1287 C1284 1.526 . S
C1287 C1288 1.396 . S
C1287 C1292 1.390 . S
C1288 C1282 1.465 . S
C1288 C1287 1.396 . S
C1288 C1289 1.399 . S
C1289 H1275 0.929 . S
C1289 C1288 1.399 . S
C1289 C1290 1.385 . S
C1290 H1276 0.931 . S
C1290 C1289 1.385 . S
C1290 C1291 1.389 . S
C1291 C1290 1.389 . S
C1291 C1292 1.387 . S
C1292 H1277 0.930 . S
C1292 C1287 1.390 . S
C1292 C1291 1.387 . S
H1293 C1305 0.930 . S
H1294 C1307 0.930 1_565 S
H1295 C1308 0.930 . S
H1296 C1312 0.959 . S
H1297 C1312 0.959 . S
H1298 C1312 0.961 . S
H1299 C1313 0.960 . S
H1300 C1313 0.961 . S
H1301 C1313 0.959 . S
H1302 C1316 0.929 . S
H1303 C1317 0.931 . S
H1304 C1319 0.930 . S
C1305 H1293 0.930 . S
C1305 C1306 1.399 . S
C1305 C1310 1.399 . S
C1306 C1305 1.399 . S
C1306 C1307 1.376 . S
C1307 H1294 0.930 1_545 S
C1307 C1306 1.376 . S
C1307 C1308 1.388 1_545 S
C1308 H1295 0.930 . S
C1308 C1307 1.388 1_565 S
C1308 C1309 1.390 1_565 S
C1309 C1308 1.390 1_545 S
C1309 C1310 1.394 . S
C1309 C1315 1.465 . S
C1310 C1305 1.399 . S
C1310 C1309 1.394 . S
C1310 C1311 1.516 . S
C1311 C1310 1.516 . S
C1311 C1312 1.502 . S
C1311 C1313 1.561 . S
C1311 C1314 1.526 . S
C1312 H1296 0.959 . S
C1312 H1297 0.959 . S
C1312 H1298 0.961 . S
C1312 C1311 1.502 . S
C1313 H1299 0.960 . S
C1313 H1300 0.961 . S
C1313 H1301 0.959 . S
C1313 C1311 1.561 . S
C1314 C1311 1.526 . S
C1314 C1315 1.396 . S
C1314 C1319 1.390 . S
C1315 C1309 1.465 . S
C1315 C1314 1.396 . S
C1315 C1316 1.399 1_545 S
C1316 H1302 0.929 . S
C1316 C1315 1.399 1_565 S
C1316 C1317 1.385 . S
C1317 H1303 0.931 . S
C1317 C1316 1.385 . S
C1317 C1318 1.389 1_565 S
C1318 C1317 1.389 1_545 S
C1318 C1319 1.387 . S
C1319 H1304 0.930 . S
C1319 C1314 1.390 . S
C1319 C1318 1.387 . S
H1320 C1332 0.930 . S
H1321 C1334 0.930 . S
H1322 C1335 0.930 . S
H1323 C1339 0.959 . S
H1324 C1339 0.959 . S
H1325 C1339 0.961 . S
H1326 C1340 0.960 . S
H1327 C1340 0.961 . S
H1328 C1340 0.959 . S
H1329 C1343 0.929 . S
H1330 C1344 0.931 . S
H1331 C1346 0.930 . S
C1332 H1320 0.930 . S
C1332 C1333 1.399 . S
C1332 C1337 1.399 . S
C1333 C1332 1.399 . S
C1333 C1334 1.376 . S
C1334 H1321 0.930 . S
C1334 C1333 1.376 . S
C1334 C1335 1.388 . S
C1335 H1322 0.930 . S
C1335 C1334 1.388 . S
C1335 C1336 1.390 . S
C1336 C1335 1.390 . S
C1336 C1337 1.394 . S
C1336 C1342 1.465 . S
C1337 C1332 1.399 . S
C1337 C1336 1.394 . S
C1337 C1338 1.516 . S
C1338 C1337 1.516 . S
C1338 C1339 1.502 . S
C1338 C1340 1.561 . S
C1338 C1341 1.526 . S
C1339 H1323 0.959 . S
C1339 H1324 0.959 . S
C1339 H1325 0.961 . S
C1339 C1338 1.502 . S
C1340 H1326 0.960 . S
C1340 H1327 0.961 . S
C1340 H1328 0.959 . S
C1340 C1338 1.561 . S
C1341 C1338 1.526 . S
C1341 C1342 1.396 . S
C1341 C1346 1.390 . S
C1342 C1336 1.465 . S
C1342 C1341 1.396 . S
C1342 C1343 1.399 . S
C1343 H1329 0.929 . S
C1343 C1342 1.399 . S
C1343 C1344 1.385 . S
C1344 H1330 0.931 . S
C1344 C1343 1.385 . S
C1344 C1345 1.389 . S
C1345 C1344 1.389 . S
C1345 C1346 1.387 . S
C1346 H1331 0.930 . S
C1346 C1341 1.390 . S
C1346 C1345 1.387 . S
H1347 C1359 0.930 . S
H1348 C1361 0.930 1_565 S
H1349 C1362 0.930 . S
H1350 C1366 0.959 . S
H1351 C1366 0.959 . S
H1352 C1366 0.961 . S
H1353 C1367 0.960 . S
H1354 C1367 0.961 . S
H1355 C1367 0.959 . S
H1356 C1370 0.929 . S
H1357 C1371 0.931 . S
H1358 C1373 0.930 . S
C1359 H1347 0.930 . S
C1359 C1360 1.399 . S
C1359 C1364 1.399 . S
C1360 C1359 1.399 . S
C1360 C1361 1.376 . S
C1361 H1348 0.930 1_545 S
C1361 C1360 1.376 . S
C1361 C1362 1.388 1_545 S
C1362 H1349 0.930 . S
C1362 C1361 1.388 1_565 S
C1362 C1363 1.390 1_565 S
C1363 C1362 1.390 1_545 S
C1363 C1364 1.394 . S
C1363 C1369 1.465 . S
C1364 C1359 1.399 . S
C1364 C1363 1.394 . S
C1364 C1365 1.516 . S
C1365 C1364 1.516 . S
C1365 C1366 1.502 . S
C1365 C1367 1.561 . S
C1365 C1368 1.526 . S
C1366 H1350 0.959 . S
C1366 H1351 0.959 . S
C1366 H1352 0.961 . S
C1366 C1365 1.502 . S
C1367 H1353 0.960 . S
C1367 H1354 0.961 . S
C1367 H1355 0.959 . S
C1367 C1365 1.561 . S
C1368 C1365 1.526 . S
C1368 C1369 1.396 . S
C1368 C1373 1.390 . S
C1369 C1363 1.465 . S
C1369 C1368 1.396 . S
C1369 C1370 1.399 1_545 S
C1370 H1356 0.929 . S
C1370 C1369 1.399 1_565 S
C1370 C1371 1.385 . S
C1371 H1357 0.931 . S
C1371 C1370 1.385 . S
C1371 C1372 1.389 1_565 S
C1372 C1371 1.389 1_545 S
C1372 C1373 1.387 . S
C1373 H1358 0.930 . S
C1373 C1368 1.390 . S
C1373 C1372 1.387 . S
H1374 C1386 0.930 . S
H1375 C1388 0.930 . S
H1376 C1389 0.930 . S
H1377 C1393 0.959 . S
H1378 C1393 0.959 . S
H1379 C1393 0.961 . S
H1380 C1394 0.960 . S
H1381 C1394 0.961 . S
H1382 C1394 0.959 . S
H1383 C1397 0.929 . S
H1384 C1398 0.931 . S
H1385 C1400 0.930 . S
C1386 H1374 0.930 . S
C1386 C1387 1.399 . S
C1386 C1391 1.399 . S
C1387 C1386 1.399 . S
C1387 C1388 1.376 . S
C1388 H1375 0.930 . S
C1388 C1387 1.376 . S
C1388 C1389 1.388 . S
C1389 H1376 0.930 . S
C1389 C1388 1.388 . S
C1389 C1390 1.390 . S
C1390 C1389 1.390 . S
C1390 C1391 1.394 . S
C1390 C1396 1.465 . S
C1391 C1386 1.399 . S
C1391 C1390 1.394 . S
C1391 C1392 1.516 . S
C1392 C1391 1.516 . S
C1392 C1393 1.502 . S
C1392 C1394 1.561 . S
C1392 C1395 1.526 . S
C1393 H1377 0.959 . S
C1393 H1378 0.959 . S
C1393 H1379 0.961 . S
C1393 C1392 1.502 . S
C1394 H1380 0.960 . S
C1394 H1381 0.961 . S
C1394 H1382 0.959 . S
C1394 C1392 1.561 . S
C1395 C1392 1.526 . S
C1395 C1396 1.396 . S
C1395 C1400 1.390 . S
C1396 C1390 1.465 . S
C1396 C1395 1.396 . S
C1396 C1397 1.399 . S
C1397 H1383 0.929 . S
C1397 C1396 1.399 . S
C1397 C1398 1.385 . S
C1398 H1384 0.931 . S
C1398 C1397 1.385 . S
C1398 C1399 1.389 . S
C1399 C1398 1.389 . S
C1399 C1400 1.387 . S
C1400 H1385 0.930 . S
C1400 C1395 1.390 . S
C1400 C1399 1.387 . S
H1401 C1413 0.930 . S
H1402 C1415 0.930 . S
H1403 C1416 0.930 . S
H1404 C1420 0.959 . S
H1405 C1420 0.959 . S
H1406 C1420 0.961 . S
H1407 C1421 0.960 . S
H1408 C1421 0.961 . S
H1409 C1421 0.959 . S
H1410 C1424 0.929 . S
H1411 C1425 0.931 . S
H1412 C1427 0.930 . S
C1413 H1401 0.930 . S
C1413 C1414 1.399 . S
C1413 C1418 1.399 . S
C1414 C1413 1.399 . S
C1414 C1415 1.376 . S
C1415 H1402 0.930 . S
C1415 C1414 1.376 . S
C1415 C1416 1.388 . S
C1416 H1403 0.930 . S
C1416 C1415 1.388 . S
C1416 C1417 1.390 . S
C1417 C1416 1.390 . S
C1417 C1418 1.394 . S
C1417 C1423 1.465 . S
C1418 C1413 1.399 . S
C1418 C1417 1.394 . S
C1418 C1419 1.516 . S
C1419 C1418 1.516 . S
C1419 C1420 1.502 . S
C1419 C1421 1.561 . S
C1419 C1422 1.526 . S
C1420 H1404 0.959 . S
C1420 H1405 0.959 . S
C1420 H1406 0.961 . S
C1420 C1419 1.502 . S
C1421 H1407 0.960 . S
C1421 H1408 0.961 . S
C1421 H1409 0.959 . S
C1421 C1419 1.561 . S
C1422 C1419 1.526 . S
C1422 C1423 1.396 . S
C1422 C1427 1.390 . S
C1423 C1417 1.465 . S
C1423 C1422 1.396 . S
C1423 C1424 1.399 . S
C1424 H1410 0.929 . S
C1424 C1423 1.399 . S
C1424 C1425 1.385 . S
C1425 H1411 0.931 . S
C1425 C1424 1.385 . S
C1425 C1426 1.389 . S
C1426 C1425 1.389 . S
C1426 C1427 1.387 . S
C1427 H1412 0.930 . S
C1427 C1422 1.390 . S
C1427 C1426 1.387 . S
H1428 C1440 0.930 . S
H1429 C1442 0.930 . S
H1430 C1443 0.930 . S
H1431 C1447 0.959 . S
H1432 C1447 0.959 . S
H1433 C1447 0.961 . S
H1434 C1448 0.960 . S
H1435 C1448 0.961 . S
H1436 C1448 0.959 . S
H1437 C1451 0.929 . S
H1438 C1452 0.955 . S
H1439 C1454 0.930 . S
C1440 H1428 0.930 . S
C1440 C1441 1.399 . S
C1440 C1445 1.399 . S
C1441 C1440 1.399 . S
C1441 C1442 1.376 . S
C1442 H1429 0.930 . S
C1442 C1441 1.376 . S
C1442 C1443 1.388 . S
C1443 H1430 0.930 . S
C1443 C1442 1.388 . S
C1443 C1444 1.390 . S
C1444 C1443 1.390 . S
C1444 C1445 1.394 . S
C1444 C1450 1.465 . S
C1445 C1440 1.399 . S
C1445 C1444 1.394 . S
C1445 C1446 1.516 . S
C1446 C1445 1.516 . S
C1446 C1447 1.502 . S
C1446 C1448 1.561 . S
C1446 C1449 1.526 . S
C1447 H1431 0.959 . S
C1447 H1432 0.959 . S
C1447 H1433 0.961 . S
C1447 C1446 1.502 . S
C1448 H1434 0.960 . S
C1448 H1435 0.961 . S
C1448 H1436 0.959 . S
C1448 C1446 1.561 . S
C1449 C1446 1.526 . S
C1449 C1450 1.396 . S
C1449 C1454 1.390 . S
C1450 C1444 1.465 . S
C1450 C1449 1.396 . S
C1450 C1451 1.399 . S
C1451 H1437 0.929 . S
C1451 C1450 1.399 . S
C1451 C1452 1.372 1_556 S
C1452 H1438 0.955 . S
C1452 C1451 1.372 1_554 S
C1452 C1453 1.380 1_554 S
C1453 C1452 1.380 1_556 S
C1453 C1454 1.387 . S
C1454 H1439 0.930 . S
C1454 C1449 1.390 . S
C1454 C1453 1.387 . S
H1455 C1467 0.930 . S
H1456 C1469 0.930 . S
H1457 C1470 0.930 . S
H1458 C1474 0.959 . S
H1459 C1474 0.959 . S
H1460 C1474 0.961 . S
H1461 C1475 0.960 . S
H1462 C1475 0.961 . S
H1463 C1475 0.959 . S
H1464 C1478 0.929 . S
H1465 C1479 0.931 . S
H1466 C1481 0.930 . S
C1467 H1455 0.930 . S
C1467 C1468 1.399 . S
C1467 C1472 1.399 . S
C1468 C1467 1.399 . S
C1468 C1469 1.376 . S
C1469 H1456 0.930 . S
C1469 C1468 1.376 . S
C1469 C1470 1.388 . S
C1470 H1457 0.930 . S
C1470 C1469 1.388 . S
C1470 C1471 1.390 . S
C1471 C1470 1.390 . S
C1471 C1472 1.394 . S
C1471 C1477 1.465 . S
C1472 C1467 1.399 . S
C1472 C1471 1.394 . S
C1472 C1473 1.516 . S
C1473 C1472 1.516 . S
C1473 C1474 1.502 . S
C1473 C1475 1.561 . S
C1473 C1476 1.526 . S
C1474 H1458 0.959 . S
C1474 H1459 0.959 . S
C1474 H1460 0.961 . S
C1474 C1473 1.502 . S
C1475 H1461 0.960 . S
C1475 H1462 0.961 . S
C1475 H1463 0.959 . S
C1475 C1473 1.561 . S
C1476 C1473 1.526 . S
C1476 C1477 1.396 . S
C1476 C1481 1.390 . S
C1477 C1471 1.465 . S
C1477 C1476 1.396 . S
C1477 C1478 1.399 . S
C1478 H1464 0.929 . S
C1478 C1477 1.399 . S
C1478 C1479 1.385 . S
C1479 H1465 0.931 . S
C1479 C1478 1.385 . S
C1479 C1480 1.389 . S
C1480 C1479 1.389 . S
C1480 C1481 1.387 . S
C1481 H1466 0.930 . S
C1481 C1476 1.390 . S
C1481 C1480 1.387 . S
H1482 C1494 0.930 . S
H1483 C1496 0.930 . S
H1484 C1497 0.930 . S
H1485 C1501 0.959 . S
H1486 C1501 0.959 . S
H1487 C1501 0.961 . S
H1488 C1502 0.960 . S
H1489 C1502 0.961 . S
H1490 C1502 0.959 . S
H1491 C1505 0.929 . S
H1492 C1506 0.931 . S
H1493 C1508 0.930 . S
C1494 H1482 0.930 . S
C1494 C1495 1.399 . S
C1494 C1499 1.399 . S
C1495 C1494 1.399 . S
C1495 C1496 1.376 . S
C1496 H1483 0.930 . S
C1496 C1495 1.376 . S
C1496 C1497 1.388 . S
C1497 H1484 0.930 . S
C1497 C1496 1.388 . S
C1497 C1498 1.390 . S
C1498 C1497 1.390 . S
C1498 C1499 1.394 . S
C1498 C1504 1.465 . S
C1499 C1494 1.399 . S
C1499 C1498 1.394 . S
C1499 C1500 1.516 . S
C1500 C1499 1.516 . S
C1500 C1501 1.502 . S
C1500 C1502 1.561 . S
C1500 C1503 1.526 . S
C1501 H1485 0.959 . S
C1501 H1486 0.959 . S
C1501 H1487 0.961 . S
C1501 C1500 1.502 . S
C1502 H1488 0.960 . S
C1502 H1489 0.961 . S
C1502 H1490 0.959 . S
C1502 C1500 1.561 . S
C1503 C1500 1.526 . S
C1503 C1504 1.396 . S
C1503 C1508 1.390 . S
C1504 C1498 1.465 . S
C1504 C1503 1.396 . S
C1504 C1505 1.399 . S
C1505 H1491 0.929 . S
C1505 C1504 1.399 . S
C1505 C1506 1.385 . S
C1506 H1492 0.931 . S
C1506 C1505 1.385 . S
C1506 C1507 1.389 . S
C1507 C1506 1.389 . S
C1507 C1508 1.387 . S
C1508 H1493 0.930 . S
C1508 C1503 1.390 . S
C1508 C1507 1.387 . S
H1509 C1521 0.930 . S
H1510 C1523 0.930 . S
H1511 C1524 0.930 . S
H1512 C1528 0.959 1_556 S
H1513 C1528 0.959 1_556 S
H1514 C1528 0.961 . S
H1515 C1529 0.960 . S
H1516 C1529 0.961 . S
H1517 C1529 0.959 . S
H1518 C1532 0.929 . S
H1519 C1533 0.931 . S
H1520 C1535 0.930 1_556 S
C1521 H1509 0.930 . S
C1521 C1522 1.399 . S
C1521 C1526 1.399 . S
C1522 C1521 1.399 . S
C1522 C1523 1.376 . S
C1523 H1510 0.930 . S
C1523 C1522 1.376 . S
C1523 C1524 1.388 . S
C1524 H1511 0.930 . S
C1524 C1523 1.388 . S
C1524 C1525 1.390 . S
C1525 C1524 1.390 . S
C1525 C1526 1.394 . S
C1525 C1531 1.465 . S
C1526 C1521 1.399 . S
C1526 C1525 1.394 . S
C1526 C1527 1.516 . S
C1527 C1526 1.516 . S
C1527 C1528 1.502 . S
C1527 C1529 1.561 . S
C1527 C1530 1.526 . S
C1528 H1512 0.959 1_554 S
C1528 H1513 0.959 1_554 S
C1528 H1514 0.961 . S
C1528 C1527 1.502 . S
C1529 H1515 0.960 . S
C1529 H1516 0.961 . S
C1529 H1517 0.959 . S
C1529 C1527 1.561 . S
C1530 C1527 1.526 . S
C1530 C1531 1.396 . S
C1530 C1535 1.390 . S
C1531 C1525 1.465 . S
C1531 C1530 1.396 . S
C1531 C1532 1.399 . S
C1532 H1518 0.929 . S
C1532 C1531 1.399 . S
C1532 C1533 1.385 . S
C1533 H1519 0.931 . S
C1533 C1532 1.385 . S
C1533 C1534 1.389 . S
C1534 C1533 1.389 . S
C1534 C1535 1.387 . S
C1535 H1520 0.930 1_554 S
C1535 C1530 1.390 . S
C1535 C1534 1.387 . S
H1536 C1548 0.930 . S
H1537 C1550 0.930 . S
H1538 C1551 0.930 . S
H1539 C1555 0.959 . S
H1540 C1555 0.959 . S
H1541 C1555 0.961 . S
H1542 C1556 0.960 . S
H1543 C1556 0.961 . S
H1544 C1556 0.959 . S
H1545 C1559 0.929 . S
H1546 C1560 0.931 . S
H1547 C1562 0.930 . S
C1548 H1536 0.930 . S
C1548 C1549 1.399 . S
C1548 C1553 1.399 . S
C1549 C1548 1.399 . S
C1549 C1550 1.376 . S
C1550 H1537 0.930 . S
C1550 C1549 1.376 . S
C1550 C1551 1.388 . S
C1551 H1538 0.930 . S
C1551 C1550 1.388 . S
C1551 C1552 1.390 . S
C1552 C1551 1.390 . S
C1552 C1553 1.394 . S
C1552 C1558 1.465 . S
C1553 C1548 1.399 . S
C1553 C1552 1.394 . S
C1553 C1554 1.516 . S
C1554 C1553 1.516 . S
C1554 C1555 1.502 . S
C1554 C1556 1.561 . S
C1554 C1557 1.526 . S
C1555 H1539 0.959 . S
C1555 H1540 0.959 . S
C1555 H1541 0.961 . S
C1555 C1554 1.502 . S
C1556 H1542 0.960 . S
C1556 H1543 0.961 . S
C1556 H1544 0.959 . S
C1556 C1554 1.561 . S
C1557 C1554 1.526 . S
C1557 C1558 1.396 . S
C1557 C1562 1.390 . S
C1558 C1552 1.465 . S
C1558 C1557 1.396 . S
C1558 C1559 1.399 . S
C1559 H1545 0.929 . S
C1559 C1558 1.399 . S
C1559 C1560 1.385 . S
C1560 H1546 0.931 . S
C1560 C1559 1.385 . S
C1560 C1561 1.389 . S
C1561 C1560 1.389 . S
C1561 C1562 1.387 . S
C1562 H1547 0.930 . S
C1562 C1557 1.390 . S
C1562 C1561 1.387 . S
H1563 C1575 0.930 . S
H1564 C1577 0.930 . S
H1565 C1578 0.930 . S
H1566 C1582 0.959 . S
H1567 C1582 0.959 . S
H1568 C1582 0.961 . S
H1569 C1583 0.960 . S
H1570 C1583 0.961 . S
H1571 C1583 0.959 . S
H1572 C1586 0.929 . S
H1573 C1587 0.931 . S
H1574 C1589 0.930 . S
C1575 H1563 0.930 . S
C1575 C1576 1.399 . S
C1575 C1580 1.399 . S
C1576 C1575 1.399 . S
C1576 C1577 1.376 . S
C1577 H1564 0.930 . S
C1577 C1576 1.376 . S
C1577 C1578 1.388 . S
C1578 H1565 0.930 . S
C1578 C1577 1.388 . S
C1578 C1579 1.390 . S
C1579 C1578 1.390 . S
C1579 C1580 1.394 . S
C1579 C1585 1.465 . S
C1580 C1575 1.399 . S
C1580 C1579 1.394 . S
C1580 C1581 1.516 . S
C1581 C1580 1.516 . S
C1581 C1582 1.502 . S
C1581 C1583 1.561 . S
C1581 C1584 1.526 . S
C1582 H1566 0.959 . S
C1582 H1567 0.959 . S
C1582 H1568 0.961 . S
C1582 C1581 1.502 . S
C1583 H1569 0.960 . S
C1583 H1570 0.961 . S
C1583 H1571 0.959 . S
C1583 C1581 1.561 . S
C1584 C1581 1.526 . S
C1584 C1585 1.396 . S
C1584 C1589 1.390 . S
C1585 C1579 1.465 . S
C1585 C1584 1.396 . S
C1585 C1586 1.399 . S
C1586 H1572 0.929 . S
C1586 C1585 1.399 . S
C1586 C1587 1.385 . S
C1587 H1573 0.931 . S
C1587 C1586 1.385 . S
C1587 C1588 1.389 . S
C1588 C1587 1.389 . S
C1588 C1589 1.387 . S
C1589 H1574 0.930 . S
C1589 C1584 1.390 . S
C1589 C1588 1.387 . S
H1590 C1602 0.930 . S
H1591 C1604 0.930 . S
H1592 C1605 0.930 . S
H1593 C1609 0.959 . S
H1594 C1609 0.959 . S
H1595 C1609 0.961 . S
H1596 C1610 0.960 . S
H1597 C1610 0.961 . S
H1598 C1610 0.959 . S
H1599 C1613 0.929 . S
H1600 C1614 0.931 . S
H1601 C1616 0.930 . S
C1602 H1590 0.930 . S
C1602 C1603 1.399 . S
C1602 C1607 1.399 . S
C1603 C1602 1.399 . S
C1603 C1604 1.376 . S
C1604 H1591 0.930 . S
C1604 C1603 1.376 . S
C1604 C1605 1.388 . S
C1605 H1592 0.930 . S
C1605 C1604 1.388 . S
C1605 C1606 1.390 . S
C1606 C1605 1.390 . S
C1606 C1607 1.394 . S
C1606 C1612 1.465 . S
C1607 C1602 1.399 . S
C1607 C1606 1.394 . S
C1607 C1608 1.516 . S
C1608 C1607 1.516 . S
C1608 C1609 1.502 . S
C1608 C1610 1.561 . S
C1608 C1611 1.526 . S
C1609 H1593 0.959 . S
C1609 H1594 0.959 . S
C1609 H1595 0.961 . S
C1609 C1608 1.502 . S
C1610 H1596 0.960 . S
C1610 H1597 0.961 . S
C1610 H1598 0.959 . S
C1610 C1608 1.561 . S
C1611 C1608 1.526 . S
C1611 C1612 1.396 . S
C1611 C1616 1.390 . S
C1612 C1606 1.465 . S
C1612 C1611 1.396 . S
C1612 C1613 1.399 . S
C1613 H1599 0.929 . S
C1613 C1612 1.399 . S
C1613 C1614 1.385 . S
C1614 H1600 0.931 . S
C1614 C1613 1.385 . S
C1614 C1615 1.389 . S
C1615 C1614 1.389 . S
C1615 C1616 1.387 . S
C1616 H1601 0.930 . S
C1616 C1611 1.390 . S
C1616 C1615 1.387 . S
H1617 C1629 0.930 . S
H1618 C1631 0.930 . S
H1619 C1632 0.930 . S
H1620 C1636 0.959 . S
H1621 C1636 0.959 . S
H1622 C1636 0.961 . S
H1623 C1637 0.960 . S
H1624 C1637 0.961 . S
H1625 C1637 0.959 . S
H1626 C1640 0.929 . S
H1627 C1641 0.931 . S
H1628 C1643 0.930 . S
C1629 H1617 0.930 . S
C1629 C1630 1.399 . S
C1629 C1634 1.399 . S
C1630 C1629 1.399 . S
C1630 C1631 1.376 . S
C1631 H1618 0.930 . S
C1631 C1630 1.376 . S
C1631 C1632 1.388 . S
C1632 H1619 0.930 . S
C1632 C1631 1.388 . S
C1632 C1633 1.390 . S
C1633 C1632 1.390 . S
C1633 C1634 1.394 . S
C1633 C1639 1.465 . S
C1634 C1629 1.399 . S
C1634 C1633 1.394 . S
C1634 C1635 1.516 . S
C1635 C1634 1.516 . S
C1635 C1636 1.502 . S
C1635 C1637 1.561 . S
C1635 C1638 1.526 . S
C1636 H1620 0.959 . S
C1636 H1621 0.959 . S
C1636 H1622 0.961 . S
C1636 C1635 1.502 . S
C1637 H1623 0.960 . S
C1637 H1624 0.961 . S
C1637 H1625 0.959 . S
C1637 C1635 1.561 . S
C1638 C1635 1.526 . S
C1638 C1639 1.396 . S
C1638 C1643 1.390 . S
C1639 C1633 1.465 . S
C1639 C1638 1.396 . S
C1639 C1640 1.399 . S
C1640 H1626 0.929 . S
C1640 C1639 1.399 . S
C1640 C1641 1.385 . S
C1641 H1627 0.931 . S
C1641 C1640 1.385 . S
C1641 C1642 1.389 . S
C1642 C1641 1.389 . S
C1642 C1643 1.387 . S
C1643 H1628 0.930 . S
C1643 C1638 1.390 . S
C1643 C1642 1.387 . S
H1644 C1656 0.930 . S
H1645 C1658 0.930 . S
H1646 C1659 0.930 . S
H1647 C1663 0.959 . S
H1648 C1663 0.959 . S
H1649 C1663 0.961 . S
H1650 C1664 0.960 . S
H1651 C1664 0.961 . S
H1652 C1664 0.959 . S
H1653 C1667 0.929 . S
H1654 C1668 0.931 . S
H1655 C1670 0.930 . S
C1656 H1644 0.930 . S
C1656 C1657 1.399 . S
C1656 C1661 1.399 . S
C1657 C1656 1.399 . S
C1657 C1658 1.376 . S
C1658 H1645 0.930 . S
C1658 C1657 1.376 . S
C1658 C1659 1.388 . S
C1659 H1646 0.930 . S
C1659 C1658 1.388 . S
C1659 C1660 1.390 . S
C1660 C1659 1.390 . S
C1660 C1661 1.394 . S
C1660 C1666 1.465 . S
C1661 C1656 1.399 . S
C1661 C1660 1.394 . S
C1661 C1662 1.516 . S
C1662 C1661 1.516 . S
C1662 C1663 1.502 . S
C1662 C1664 1.561 . S
C1662 C1665 1.526 . S
C1663 H1647 0.959 . S
C1663 H1648 0.959 . S
C1663 H1649 0.961 . S
C1663 C1662 1.502 . S
C1664 H1650 0.960 . S
C1664 H1651 0.961 . S
C1664 H1652 0.959 . S
C1664 C1662 1.561 . S
C1665 C1662 1.526 . S
C1665 C1666 1.396 . S
C1665 C1670 1.390 . S
C1666 C1660 1.465 . S
C1666 C1665 1.396 . S
C1666 C1667 1.399 . S
C1667 H1653 0.929 . S
C1667 C1666 1.399 . S
C1667 C1668 1.385 . S
C1668 H1654 0.931 . S
C1668 C1667 1.385 . S
C1668 C1669 1.389 . S
C1669 C1668 1.389 . S
C1669 C1670 1.387 . S
C1670 H1655 0.930 . S
C1670 C1665 1.390 . S
C1670 C1669 1.387 . S
H1671 C1683 0.930 . S
H1672 C1685 0.930 . S
H1673 C1686 0.930 . S
H1674 C1690 0.959 . S
H1675 C1690 0.959 . S
H1676 C1690 0.961 . S
H1677 C1691 0.960 . S
H1678 C1691 0.961 . S
H1679 C1691 0.959 . S
H1680 C1694 0.929 . S
H1681 C1695 0.931 . S
H1682 C1697 0.930 . S
C1683 H1671 0.930 . S
C1683 C1684 1.399 . S
C1683 C1688 1.399 . S
C1684 C1683 1.399 . S
C1684 C1685 1.376 . S
C1685 H1672 0.930 . S
C1685 C1684 1.376 . S
C1685 C1686 1.388 . S
C1686 H1673 0.930 . S
C1686 C1685 1.388 . S
C1686 C1687 1.390 . S
C1687 C1686 1.390 . S
C1687 C1688 1.394 . S
C1687 C1693 1.465 . S
C1688 C1683 1.399 . S
C1688 C1687 1.394 . S
C1688 C1689 1.516 . S
C1689 C1688 1.516 . S
C1689 C1690 1.502 . S
C1689 C1691 1.561 . S
C1689 C1692 1.526 . S
C1690 H1674 0.959 . S
C1690 H1675 0.959 . S
C1690 H1676 0.961 . S
C1690 C1689 1.502 . S
C1691 H1677 0.960 . S
C1691 H1678 0.961 . S
C1691 H1679 0.959 . S
C1691 C1689 1.561 . S
C1692 C1689 1.526 . S
C1692 C1693 1.396 . S
C1692 C1697 1.390 . S
C1693 C1687 1.465 . S
C1693 C1692 1.396 . S
C1693 C1694 1.399 . S
C1694 H1680 0.929 . S
C1694 C1693 1.399 . S
C1694 C1695 1.385 . S
C1695 H1681 0.931 . S
C1695 C1694 1.385 . S
C1695 C1696 1.389 . S
C1696 C1695 1.389 . S
C1696 C1697 1.387 . S
C1697 H1682 0.930 . S
C1697 C1692 1.390 . S
C1697 C1696 1.387 . S
H1698 C1710 0.930 . S
H1699 C1712 0.930 . S
H1700 C1713 0.930 . S
H1701 C1717 0.959 . S
H1702 C1717 0.959 . S
H1703 C1717 0.961 . S
H1704 C1718 0.960 . S
H1705 C1718 0.961 . S
H1706 C1718 0.959 . S
H1707 C1721 0.929 . S
H1708 C1722 0.931 . S
H1709 C1724 0.930 . S
C1710 H1698 0.930 . S
C1710 C1711 1.399 . S
C1710 C1715 1.399 . S
C1711 C1710 1.399 . S
C1711 C1712 1.376 . S
C1712 H1699 0.930 . S
C1712 C1711 1.376 . S
C1712 C1713 1.388 . S
C1713 H1700 0.930 . S
C1713 C1712 1.388 . S
C1713 C1714 1.390 . S
C1714 C1713 1.390 . S
C1714 C1715 1.394 . S
C1714 C1720 1.465 . S
C1715 C1710 1.399 . S
C1715 C1714 1.394 . S
C1715 C1716 1.516 . S
C1716 C1715 1.516 . S
C1716 C1717 1.502 . S
C1716 C1718 1.561 . S
C1716 C1719 1.526 . S
C1717 H1701 0.959 . S
C1717 H1702 0.959 . S
C1717 H1703 0.961 . S
C1717 C1716 1.502 . S
C1718 H1704 0.960 . S
C1718 H1705 0.961 . S
C1718 H1706 0.959 . S
C1718 C1716 1.561 . S
C1719 C1716 1.526 . S
C1719 C1720 1.396 . S
C1719 C1724 1.390 . S
C1720 C1714 1.465 . S
C1720 C1719 1.396 . S
C1720 C1721 1.399 . S
C1721 H1707 0.929 . S
C1721 C1720 1.399 . S
C1721 C1722 1.385 1_554 S
C1722 H1708 0.931 . S
C1722 C1721 1.385 1_556 S
C1722 C1723 1.389 1_556 S
C1723 C1722 1.389 1_554 S
C1723 C1724 1.387 . S
C1724 H1709 0.930 . S
C1724 C1719 1.390 . S
C1724 C1723 1.387 . S
H1725 C1737 0.930 . S
H1726 C1739 0.930 . S
H1727 C1740 0.930 . S
H1728 C1744 0.959 . S
H1729 C1744 0.959 . S
H1730 C1744 0.961 . S
H1731 C1745 0.960 . S
H1732 C1745 0.961 . S
H1733 C1745 0.959 . S
H1734 C1748 0.929 . S
H1735 C1749 0.931 . S
H1736 C1751 0.930 . S
C1737 H1725 0.930 . S
C1737 C1738 1.399 . S
C1737 C1742 1.399 . S
C1738 C1737 1.399 . S
C1738 C1739 1.376 . S
C1739 H1726 0.930 . S
C1739 C1738 1.376 . S
C1739 C1740 1.388 . S
C1740 H1727 0.930 . S
C1740 C1739 1.388 . S
C1740 C1741 1.390 . S
C1741 C1740 1.390 . S
C1741 C1742 1.394 . S
C1741 C1747 1.465 . S
C1742 C1737 1.399 . S
C1742 C1741 1.394 . S
C1742 C1743 1.516 . S
C1743 C1742 1.516 . S
C1743 C1744 1.502 . S
C1743 C1745 1.561 . S
C1743 C1746 1.526 . S
C1744 H1728 0.959 . S
C1744 H1729 0.959 . S
C1744 H1730 0.961 . S
C1744 C1743 1.502 . S
C1745 H1731 0.960 . S
C1745 H1732 0.961 . S
C1745 H1733 0.959 . S
C1745 C1743 1.561 . S
C1746 C1743 1.526 . S
C1746 C1747 1.396 . S
C1746 C1751 1.390 . S
C1747 C1741 1.465 . S
C1747 C1746 1.396 . S
C1747 C1748 1.399 . S
C1748 H1734 0.929 . S
C1748 C1747 1.399 . S
C1748 C1749 1.385 . S
C1749 H1735 0.931 . S
C1749 C1748 1.385 . S
C1749 C1750 1.389 . S
C1750 C1749 1.389 . S
C1750 C1751 1.387 . S
C1751 H1736 0.930 . S
C1751 C1746 1.390 . S
C1751 C1750 1.387 . S
H1752 C1764 0.930 . S
H1753 C1766 0.930 . S
H1754 C1767 0.930 . S
H1755 C1771 0.959 . S
H1756 C1771 0.959 . S
H1757 C1771 0.961 . S
H1758 C1772 0.960 . S
H1759 C1772 0.961 . S
H1760 C1772 0.959 . S
H1761 C1775 0.929 . S
H1762 C1776 0.931 . S
H1763 C1778 0.930 . S
C1764 H1752 0.930 . S
C1764 C1765 1.399 . S
C1764 C1769 1.399 . S
C1765 C1764 1.399 . S
C1765 C1766 1.376 . S
C1766 H1753 0.930 . S
C1766 C1765 1.376 . S
C1766 C1767 1.388 . S
C1767 H1754 0.930 . S
C1767 C1766 1.388 . S
C1767 C1768 1.390 . S
C1768 C1767 1.390 . S
C1768 C1769 1.394 . S
C1768 C1774 1.465 . S
C1769 C1764 1.399 . S
C1769 C1768 1.394 . S
C1769 C1770 1.516 . S
C1770 C1769 1.516 . S
C1770 C1771 1.502 . S
C1770 C1772 1.561 . S
C1770 C1773 1.526 . S
C1771 H1755 0.959 . S
C1771 H1756 0.959 . S
C1771 H1757 0.961 . S
C1771 C1770 1.502 . S
C1772 H1758 0.960 . S
C1772 H1759 0.961 . S
C1772 H1760 0.959 . S
C1772 C1770 1.561 . S
C1773 C1770 1.526 . S
C1773 C1774 1.396 . S
C1773 C1778 1.390 . S
C1774 C1768 1.465 . S
C1774 C1773 1.396 . S
C1774 C1775 1.399 . S
C1775 H1761 0.929 . S
C1775 C1774 1.399 . S
C1775 C1776 1.385 . S
C1776 H1762 0.931 . S
C1776 C1775 1.385 . S
C1776 C1777 1.389 . S
C1777 C1776 1.389 . S
C1777 C1778 1.387 . S
C1778 H1763 0.930 . S
C1778 C1773 1.390 . S
C1778 C1777 1.387 . S
H1779 C1791 0.930 . S
H1780 C1793 0.930 . S
H1781 C1794 0.930 . S
H1782 C1798 0.959 . S
H1783 C1798 0.959 . S
H1784 C1798 0.961 . S
H1785 C1799 0.960 . S
H1786 C1799 0.961 . S
H1787 C1799 0.959 . S
H1788 C1802 0.929 . S
H1789 C1803 0.931 . S
H1790 C1805 0.930 . S
C1791 H1779 0.930 . S
C1791 C1792 1.399 . S
C1791 C1796 1.399 . S
C1792 C1791 1.399 . S
C1792 C1793 1.376 . S
C1793 H1780 0.930 . S
C1793 C1792 1.376 . S
C1793 C1794 1.388 . S
C1794 H1781 0.930 . S
C1794 C1793 1.388 . S
C1794 C1795 1.390 . S
C1795 C1794 1.390 . S
C1795 C1796 1.394 . S
C1795 C1801 1.465 . S
C1796 C1791 1.399 . S
C1796 C1795 1.394 . S
C1796 C1797 1.516 . S
C1797 C1796 1.516 . S
C1797 C1798 1.502 . S
C1797 C1799 1.561 . S
C1797 C1800 1.526 . S
C1798 H1782 0.959 . S
C1798 H1783 0.959 . S
C1798 H1784 0.961 . S
C1798 C1797 1.502 . S
C1799 H1785 0.960 . S
C1799 H1786 0.961 . S
C1799 H1787 0.959 . S
C1799 C1797 1.561 . S
C1800 C1797 1.526 . S
C1800 C1801 1.396 . S
C1800 C1805 1.390 . S
C1801 C1795 1.465 . S
C1801 C1800 1.396 . S
C1801 C1802 1.399 . S
C1802 H1788 0.929 . S
C1802 C1801 1.399 . S
C1802 C1803 1.385 . S
C1803 H1789 0.931 . S
C1803 C1802 1.385 . S
C1803 C1804 1.389 . S
C1804 C1803 1.389 . S
C1804 C1805 1.387 . S
C1805 H1790 0.930 . S
C1805 C1800 1.390 . S
C1805 C1804 1.387 . S
H1806 C1818 0.930 . S
H1807 C1820 0.930 . S
H1808 C1821 0.930 . S
H1809 C1825 0.959 . S
H1810 C1825 0.959 . S
H1811 C1825 0.961 . S
H1812 C1826 0.960 . S
H1813 C1826 0.961 . S
H1814 C1826 0.959 . S
H1815 C1829 0.929 . S
H1816 C1830 0.931 . S
H1817 C1832 0.930 . S
C1818 H1806 0.930 . S
C1818 C1819 1.399 . S
C1818 C1823 1.399 . S
C1819 C1818 1.399 . S
C1819 C1820 1.376 . S
C1820 H1807 0.930 . S
C1820 C1819 1.376 . S
C1820 C1821 1.388 . S
C1821 H1808 0.930 . S
C1821 C1820 1.388 . S
C1821 C1822 1.390 . S
C1822 C1821 1.390 . S
C1822 C1823 1.394 . S
C1822 C1828 1.465 . S
C1823 C1818 1.399 . S
C1823 C1822 1.394 . S
C1823 C1824 1.516 . S
C1824 C1823 1.516 . S
C1824 C1825 1.502 . S
C1824 C1826 1.561 . S
C1824 C1827 1.526 . S
C1825 H1809 0.959 . S
C1825 H1810 0.959 . S
C1825 H1811 0.961 . S
C1825 C1824 1.502 . S
C1826 H1812 0.960 . S
C1826 H1813 0.961 . S
C1826 H1814 0.959 . S
C1826 C1824 1.561 . S
C1827 C1824 1.526 . S
C1827 C1828 1.396 . S
C1827 C1832 1.390 . S
C1828 C1822 1.465 . S
C1828 C1827 1.396 . S
C1828 C1829 1.399 . S
C1829 H1815 0.929 . S
C1829 C1828 1.399 . S
C1829 C1830 1.385 . S
C1830 H1816 0.931 . S
C1830 C1829 1.385 . S
C1830 C1831 1.389 . S
C1831 C1830 1.389 . S
C1831 C1832 1.387 . S
C1832 H1817 0.930 . S
C1832 C1827 1.390 . S
C1832 C1831 1.387 . S
H1833 C1845 0.930 . S
H1834 C1847 0.930 . S
H1835 C1848 0.930 . S
H1836 C1852 0.959 . S
H1837 C1852 0.959 . S
H1838 C1852 0.961 . S
H1839 C1853 0.960 . S
H1840 C1853 0.961 . S
H1841 C1853 0.959 . S
H1842 C1856 0.929 . S
H1843 C1857 0.931 . S
H1844 C1859 0.930 . S
C1845 H1833 0.930 . S
C1845 C1846 1.399 . S
C1845 C1850 1.399 . S
C1846 C1845 1.399 . S
C1846 C1847 1.376 . S
C1847 H1834 0.930 . S
C1847 C1846 1.376 . S
C1847 C1848 1.388 . S
C1848 H1835 0.930 . S
C1848 C1847 1.388 . S
C1848 C1849 1.390 . S
C1849 C1848 1.390 . S
C1849 C1850 1.394 . S
C1849 C1855 1.465 . S
C1850 C1845 1.399 . S
C1850 C1849 1.394 . S
C1850 C1851 1.516 . S
C1851 C1850 1.516 . S
C1851 C1852 1.502 . S
C1851 C1853 1.561 . S
C1851 C1854 1.526 . S
C1852 H1836 0.959 . S
C1852 H1837 0.959 . S
C1852 H1838 0.961 . S
C1852 C1851 1.502 . S
C1853 H1839 0.960 . S
C1853 H1840 0.961 . S
C1853 H1841 0.959 . S
C1853 C1851 1.561 . S
C1854 C1851 1.526 . S
C1854 C1855 1.396 . S
C1854 C1859 1.390 . S
C1855 C1849 1.465 . S
C1855 C1854 1.396 . S
C1855 C1856 1.399 . S
C1856 H1842 0.929 . S
C1856 C1855 1.399 . S
C1856 C1857 1.385 . S
C1857 H1843 0.931 . S
C1857 C1856 1.385 . S
C1857 C1858 1.389 . S
C1858 C1857 1.389 . S
C1858 C1859 1.387 . S
C1859 H1844 0.930 . S
C1859 C1854 1.390 . S
C1859 C1858 1.387 . S
H1860 C1872 0.930 . S
H1861 C1874 0.930 . S
H1862 C1875 0.930 . S
H1863 C1879 0.959 . S
H1864 C1879 0.959 . S
H1865 C1879 0.961 . S
H1866 C1880 0.960 . S
H1867 C1880 0.961 . S
H1868 C1880 0.959 . S
H1869 C1883 0.929 . S
H1870 C1884 0.931 . S
H1871 C1886 0.930 . S
C1872 H1860 0.930 . S
C1872 C1873 1.399 . S
C1872 C1877 1.399 . S
C1873 C1872 1.399 . S
C1873 C1874 1.376 . S
C1874 H1861 0.930 . S
C1874 C1873 1.376 . S
C1874 C1875 1.388 . S
C1875 H1862 0.930 . S
C1875 C1874 1.388 . S
C1875 C1876 1.390 . S
C1876 C1875 1.390 . S
C1876 C1877 1.394 . S
C1876 C1882 1.465 . S
C1877 C1872 1.399 . S
C1877 C1876 1.394 . S
C1877 C1878 1.516 . S
C1878 C1877 1.516 . S
C1878 C1879 1.502 . S
C1878 C1880 1.561 . S
C1878 C1881 1.526 . S
C1879 H1863 0.959 . S
C1879 H1864 0.959 . S
C1879 H1865 0.961 . S
C1879 C1878 1.502 . S
C1880 H1866 0.960 . S
C1880 H1867 0.961 . S
C1880 H1868 0.959 . S
C1880 C1878 1.561 . S
C1881 C1878 1.526 . S
C1881 C1882 1.396 . S
C1881 C1886 1.390 . S
C1882 C1876 1.465 . S
C1882 C1881 1.396 . S
C1882 C1883 1.399 . S
C1883 H1869 0.929 . S
C1883 C1882 1.399 . S
C1883 C1884 1.385 . S
C1884 H1870 0.931 . S
C1884 C1883 1.385 . S
C1884 C1885 1.389 . S
C1885 C1884 1.389 . S
C1885 C1886 1.387 . S
C1886 H1871 0.930 . S
C1886 C1881 1.390 . S
C1886 C1885 1.387 . S
H1887 C1899 0.930 . S
H1888 C1901 0.930 . S
H1889 C1902 0.930 . S
H1890 C1906 0.959 . S
H1891 C1906 0.959 . S
H1892 C1906 0.961 . S
H1893 C1907 0.960 . S
H1894 C1907 0.961 . S
H1895 C1907 0.959 . S
H1896 C1910 0.929 . S
H1897 C1911 0.931 . S
H1898 C1913 0.930 . S
C1899 H1887 0.930 . S
C1899 C1900 1.399 . S
C1899 C1904 1.399 . S
C1900 C1899 1.399 . S
C1900 C1901 1.376 . S
C1901 H1888 0.930 . S
C1901 C1900 1.376 . S
C1901 C1902 1.388 . S
C1902 H1889 0.930 . S
C1902 C1901 1.388 . S
C1902 C1903 1.390 . S
C1903 C1902 1.390 . S
C1903 C1904 1.394 . S
C1903 C1909 1.465 . S
C1904 C1899 1.399 . S
C1904 C1903 1.394 . S
C1904 C1905 1.516 . S
C1905 C1904 1.516 . S
C1905 C1906 1.502 . S
C1905 C1907 1.561 . S
C1905 C1908 1.526 . S
C1906 H1890 0.959 . S
C1906 H1891 0.959 . S
C1906 H1892 0.961 . S
C1906 C1905 1.502 . S
C1907 H1893 0.960 . S
C1907 H1894 0.961 . S
C1907 H1895 0.959 . S
C1907 C1905 1.561 . S
C1908 C1905 1.526 . S
C1908 C1909 1.396 . S
C1908 C1913 1.390 . S
C1909 C1903 1.465 . S
C1909 C1908 1.396 . S
C1909 C1910 1.399 . S
C1910 H1896 0.929 . S
C1910 C1909 1.399 . S
C1910 C1911 1.385 . S
C1911 H1897 0.931 . S
C1911 C1910 1.385 . S
C1911 C1912 1.389 . S
C1912 C1911 1.389 . S
C1912 C1913 1.387 . S
C1913 H1898 0.930 . S
C1913 C1908 1.390 . S
C1913 C1912 1.387 . S
H1914 C1926 0.930 . S
H1915 C1928 0.930 . S
H1916 C1929 0.930 . S
H1917 C1933 0.959 . S
H1918 C1933 0.959 . S
H1919 C1933 0.961 . S
H1920 C1934 0.960 . S
H1921 C1934 0.961 . S
H1922 C1934 0.959 . S
H1923 C1937 0.929 . S
H1924 C1938 0.931 . S
H1925 C1940 0.930 . S
C1926 H1914 0.930 . S
C1926 C1927 1.399 . S
C1926 C1931 1.399 . S
C1927 C1926 1.399 . S
C1927 C1928 1.376 . S
C1928 H1915 0.930 . S
C1928 C1927 1.376 . S
C1928 C1929 1.388 . S
C1929 H1916 0.930 . S
C1929 C1928 1.388 . S
C1929 C1930 1.390 . S
C1930 C1929 1.390 . S
C1930 C1931 1.394 . S
C1930 C1936 1.465 . S
C1931 C1926 1.399 . S
C1931 C1930 1.394 . S
C1931 C1932 1.516 . S
C1932 C1931 1.516 . S
C1932 C1933 1.502 . S
C1932 C1934 1.561 . S
C1932 C1935 1.526 . S
C1933 H1917 0.959 . S
C1933 H1918 0.959 . S
C1933 H1919 0.961 . S
C1933 C1932 1.502 . S
C1934 H1920 0.960 . S
C1934 H1921 0.961 . S
C1934 H1922 0.959 . S
C1934 C1932 1.561 . S
C1935 C1932 1.526 . S
C1935 C1936 1.396 . S
C1935 C1940 1.390 . S
C1936 C1930 1.465 . S
C1936 C1935 1.396 . S
C1936 C1937 1.399 . S
C1937 H1923 0.929 . S
C1937 C1936 1.399 . S
C1937 C1938 1.385 . S
C1938 H1924 0.931 . S
C1938 C1937 1.385 . S
C1938 C1939 1.389 . S
C1939 C1938 1.389 . S
C1939 C1940 1.387 . S
C1940 H1925 0.930 . S
C1940 C1935 1.390 . S
C1940 C1939 1.387 . S
H1941 C1953 0.930 . S
H1942 C1955 0.930 . S
H1943 C1956 0.930 . S
H1944 C1960 0.959 . S
H1945 C1960 0.959 . S
H1946 C1960 0.961 . S
H1947 C1961 0.960 . S
H1948 C1961 0.961 . S
H1949 C1961 0.959 . S
H1950 C1964 0.929 . S
H1951 C1965 0.931 . S
H1952 C1967 0.930 . S
C1953 H1941 0.930 . S
C1953 C1954 1.399 . S
C1953 C1958 1.399 . S
C1954 C1953 1.399 . S
C1954 C1955 1.376 . S
C1955 H1942 0.930 . S
C1955 C1954 1.376 . S
C1955 C1956 1.388 . S
C1956 H1943 0.930 . S
C1956 C1955 1.388 . S
C1956 C1957 1.390 . S
C1957 C1956 1.390 . S
C1957 C1958 1.394 . S
C1957 C1963 1.465 . S
C1958 C1953 1.399 . S
C1958 C1957 1.394 . S
C1958 C1959 1.516 . S
C1959 C1958 1.516 . S
C1959 C1960 1.502 . S
C1959 C1961 1.561 . S
C1959 C1962 1.526 . S
C1960 H1944 0.959 . S
C1960 H1945 0.959 . S
C1960 H1946 0.961 . S
C1960 C1959 1.502 . S
C1961 H1947 0.960 . S
C1961 H1948 0.961 . S
C1961 H1949 0.959 . S
C1961 C1959 1.561 . S
C1962 C1959 1.526 . S
C1962 C1963 1.396 . S
C1962 C1967 1.390 . S
C1963 C1957 1.465 . S
C1963 C1962 1.396 . S
C1963 C1964 1.399 . S
C1964 H1950 0.929 . S
C1964 C1963 1.399 . S
C1964 C1965 1.385 . S
C1965 H1951 0.931 . S
C1965 C1964 1.385 . S
C1965 C1966 1.389 . S
C1966 C1965 1.389 . S
C1966 C1967 1.387 . S
C1967 H1952 0.930 . S
C1967 C1962 1.390 . S
C1967 C1966 1.387 . S
H1968 C1980 0.930 . S
H1969 C1982 0.930 . S
H1970 C1983 0.930 . S
H1971 C1987 0.959 . S
H1972 C1987 0.959 . S
H1973 C1987 0.961 . S
H1974 C1988 0.960 . S
H1975 C1988 0.961 . S
H1976 C1988 0.959 . S
H1977 C1991 0.929 . S
H1978 C1992 0.931 . S
H1979 C1994 0.930 . S
C1980 H1968 0.930 . S
C1980 C1981 1.399 . S
C1980 C1985 1.399 . S
C1981 C1980 1.399 . S
C1981 C1982 1.376 . S
C1982 H1969 0.930 . S
C1982 C1981 1.376 . S
C1982 C1983 1.388 . S
C1983 H1970 0.930 . S
C1983 C1982 1.388 . S
C1983 C1984 1.390 . S
C1984 C1983 1.390 . S
C1984 C1985 1.394 . S
C1984 C1990 1.465 . S
C1985 C1980 1.399 . S
C1985 C1984 1.394 . S
C1985 C1986 1.516 . S
C1986 C1985 1.516 . S
C1986 C1987 1.502 . S
C1986 C1988 1.561 . S
C1986 C1989 1.526 . S
C1987 H1971 0.959 . S
C1987 H1972 0.959 . S
C1987 H1973 0.961 . S
C1987 C1986 1.502 . S
C1988 H1974 0.960 . S
C1988 H1975 0.961 . S
C1988 H1976 0.959 . S
C1988 C1986 1.561 . S
C1989 C1986 1.526 . S
C1989 C1990 1.396 . S
C1989 C1994 1.390 . S
C1990 C1984 1.465 . S
C1990 C1989 1.396 . S
C1990 C1991 1.399 . S
C1991 H1977 0.929 . S
C1991 C1990 1.399 . S
C1991 C1992 1.385 . S
C1992 H1978 0.931 . S
C1992 C1991 1.385 . S
C1992 C1993 1.389 . S
C1993 C1992 1.389 . S
C1993 C1994 1.387 . S
C1994 H1979 0.930 . S
C1994 C1989 1.390 . S
C1994 C1993 1.387 . S
H1995 C2007 0.930 . S
H1996 C2009 0.930 . S
H1997 C2010 0.930 . S
H1998 C2014 0.959 . S
H1999 C2014 0.959 . S
H2000 C2014 0.961 . S
H2001 C2015 0.960 . S
H2002 C2015 0.961 . S
H2003 C2015 0.959 . S
H2004 C2018 0.929 . S
H2005 C2019 0.931 . S
H2006 C2021 0.930 . S
C2007 H1995 0.930 . S
C2007 C2008 1.399 . S
C2007 C2012 1.399 . S
C2008 C2007 1.399 . S
C2008 C2009 1.376 . S
C2009 H1996 0.930 . S
C2009 C2008 1.376 . S
C2009 C2010 1.388 . S
C2010 H1997 0.930 . S
C2010 C2009 1.388 . S
C2010 C2011 1.390 . S
C2011 C2010 1.390 . S
C2011 C2012 1.394 . S
C2011 C2017 1.465 . S
C2012 C2007 1.399 . S
C2012 C2011 1.394 . S
C2012 C2013 1.516 . S
C2013 C2012 1.516 . S
C2013 C2014 1.502 . S
C2013 C2015 1.561 . S
C2013 C2016 1.526 . S
C2014 H1998 0.959 . S
C2014 H1999 0.959 . S
C2014 H2000 0.961 . S
C2014 C2013 1.502 . S
C2015 H2001 0.960 . S
C2015 H2002 0.961 . S
C2015 H2003 0.959 . S
C2015 C2013 1.561 . S
C2016 C2013 1.526 . S
C2016 C2017 1.396 . S
C2016 C2021 1.390 . S
C2017 C2011 1.465 . S
C2017 C2016 1.396 . S
C2017 C2018 1.399 . S
C2018 H2004 0.929 . S
C2018 C2017 1.399 . S
C2018 C2019 1.385 . S
C2019 H2005 0.931 . S
C2019 C2018 1.385 . S
C2019 C2020 1.389 . S
C2020 C2019 1.389 . S
C2020 C2021 1.387 . S
C2021 H2006 0.930 . S
C2021 C2016 1.390 . S
C2021 C2020 1.387 . S
H2022 C2034 0.930 . S
H2023 C2036 0.930 . S
H2024 C2037 0.930 . S
H2025 C2041 0.959 . S
H2026 C2041 0.959 . S
H2027 C2041 0.961 . S
H2028 C2042 0.960 . S
H2029 C2042 0.961 . S
H2030 C2042 0.959 . S
H2031 C2045 0.929 . S
H2032 C2046 0.931 . S
H2033 C2048 0.928 . S
C2034 H2022 0.930 . S
C2034 C2035 1.399 . S
C2034 C2039 1.399 . S
C2035 C2034 1.399 . S
C2035 C2036 1.376 . S
C2036 H2023 0.930 . S
C2036 C2035 1.376 . S
C2036 C2037 1.388 . S
C2037 H2024 0.930 . S
C2037 C2036 1.388 . S
C2037 C2038 1.390 . S
C2038 C2037 1.390 . S
C2038 C2039 1.394 . S
C2038 C2044 1.465 . S
C2039 C2034 1.399 . S
C2039 C2038 1.394 . S
C2039 C2040 1.516 . S
C2040 C2039 1.516 . S
C2040 C2041 1.502 1_565 S
C2040 C2042 1.561 . S
C2040 C2043 1.526 . S
C2041 H2025 0.959 . S
C2041 H2026 0.959 . S
C2041 H2027 0.961 . S
C2041 C2040 1.502 1_545 S
C2042 H2028 0.960 . S
C2042 H2029 0.961 . S
C2042 H2030 0.959 . S
C2042 C2040 1.561 . S
C2043 C2040 1.526 . S
C2043 C2044 1.396 . S
C2043 C2048 1.391 1_565 S
C2044 C2038 1.465 . S
C2044 C2043 1.396 . S
C2044 C2045 1.399 . S
C2045 H2031 0.929 . S
C2045 C2044 1.399 . S
C2045 C2046 1.385 . S
C2046 H2032 0.931 . S
C2046 C2045 1.385 . S
C2046 C2047 1.389 . S
C2047 C2046 1.389 . S
C2047 C2048 1.387 1_565 S
C2048 H2033 0.928 . S
C2048 C2043 1.391 1_545 S
C2048 C2047 1.387 1_545 S
H2049 C2061 0.930 . S
H2050 C2063 0.930 . S
H2051 C2064 0.930 . S
H2052 C2068 0.959 . S
H2053 C2068 0.959 . S
H2054 C2068 0.961 . S
H2055 C2069 0.960 . S
H2056 C2069 0.961 . S
H2057 C2069 0.959 . S
H2058 C2072 0.929 . S
H2059 C2073 0.931 . S
H2060 C2075 0.930 . S
C2061 H2049 0.930 . S
C2061 C2062 1.399 . S
C2061 C2066 1.399 . S
C2062 C2061 1.399 . S
C2062 C2063 1.376 . S
C2063 H2050 0.930 . S
C2063 C2062 1.376 . S
C2063 C2064 1.388 . S
C2064 H2051 0.930 . S
C2064 C2063 1.388 . S
C2064 C2065 1.390 . S
C2065 C2064 1.390 . S
C2065 C2066 1.394 . S
C2065 C2071 1.465 . S
C2066 C2061 1.399 . S
C2066 C2065 1.394 . S
C2066 C2067 1.516 . S
C2067 C2066 1.516 . S
C2067 C2068 1.502 . S
C2067 C2069 1.561 . S
C2067 C2070 1.526 . S
C2068 H2052 0.959 . S
C2068 H2053 0.959 . S
C2068 H2054 0.961 . S
C2068 C2067 1.502 . S
C2069 H2055 0.960 . S
C2069 H2056 0.961 . S
C2069 H2057 0.959 . S
C2069 C2067 1.561 . S
C2070 C2067 1.526 . S
C2070 C2071 1.396 . S
C2070 C2075 1.390 . S
C2071 C2065 1.465 . S
C2071 C2070 1.396 . S
C2071 C2072 1.399 . S
C2072 H2058 0.929 . S
C2072 C2071 1.399 . S
C2072 C2073 1.385 . S
C2073 H2059 0.931 . S
C2073 C2072 1.385 . S
C2073 C2074 1.389 . S
C2074 C2073 1.389 . S
C2074 C2075 1.387 . S
C2075 H2060 0.930 . S
C2075 C2070 1.390 . S
C2075 C2074 1.387 . S
H2076 C2088 0.930 . S
H2077 C2090 0.930 . S
H2078 C2091 0.930 . S
H2079 C2095 0.959 . S
H2080 C2095 0.959 . S
H2081 C2095 0.961 . S
H2082 C2096 0.960 . S
H2083 C2096 0.961 . S
H2084 C2096 0.959 . S
H2085 C2099 0.929 . S
H2086 C2100 0.931 . S
H2087 C2102 0.930 . S
C2088 H2076 0.930 . S
C2088 C2089 1.399 . S
C2088 C2093 1.399 . S
C2089 C2088 1.399 . S
C2089 C2090 1.376 . S
C2090 H2077 0.930 . S
C2090 C2089 1.376 . S
C2090 C2091 1.388 . S
C2091 H2078 0.930 . S
C2091 C2090 1.388 . S
C2091 C2092 1.390 . S
C2092 C2091 1.390 . S
C2092 C2093 1.394 . S
C2092 C2098 1.465 . S
C2093 C2088 1.399 . S
C2093 C2092 1.394 . S
C2093 C2094 1.516 . S
C2094 C2093 1.516 . S
C2094 C2095 1.502 . S
C2094 C2096 1.561 . S
C2094 C2097 1.526 . S
C2095 H2079 0.959 . S
C2095 H2080 0.959 . S
C2095 H2081 0.961 . S
C2095 C2094 1.502 . S
C2096 H2082 0.960 . S
C2096 H2083 0.961 . S
C2096 H2084 0.959 . S
C2096 C2094 1.561 . S
C2097 C2094 1.526 . S
C2097 C2098 1.396 . S
C2097 C2102 1.390 . S
C2098 C2092 1.465 . S
C2098 C2097 1.396 . S
C2098 C2099 1.399 . S
C2099 H2085 0.929 . S
C2099 C2098 1.399 . S
C2099 C2100 1.385 . S
C2100 H2086 0.931 . S
C2100 C2099 1.385 . S
C2100 C2101 1.389 . S
C2101 C2100 1.389 . S
C2101 C2102 1.387 . S
C2102 H2087 0.930 . S
C2102 C2097 1.390 . S
C2102 C2101 1.387 . S
H2103 C2115 0.930 . S
H2104 C2117 0.930 . S
H2105 C2118 0.930 . S
H2106 C2122 0.959 . S
H2107 C2122 0.959 . S
H2108 C2122 0.961 . S
H2109 C2123 0.960 . S
H2110 C2123 0.961 . S
H2111 C2123 0.959 . S
H2112 C2126 0.929 . S
H2113 C2127 0.931 . S
H2114 C2129 0.930 . S
C2115 H2103 0.930 . S
C2115 C2116 1.399 . S
C2115 C2120 1.399 . S
C2116 C2115 1.399 . S
C2116 C2117 1.376 . S
C2117 H2104 0.930 . S
C2117 C2116 1.376 . S
C2117 C2118 1.388 . S
C2118 H2105 0.930 . S
C2118 C2117 1.388 . S
C2118 C2119 1.390 . S
C2119 C2118 1.390 . S
C2119 C2120 1.394 . S
C2119 C2125 1.465 . S
C2120 C2115 1.399 . S
C2120 C2119 1.394 . S
C2120 C2121 1.516 . S
C2121 C2120 1.516 . S
C2121 C2122 1.502 . S
C2121 C2123 1.561 . S
C2121 C2124 1.526 . S
C2122 H2106 0.959 . S
C2122 H2107 0.959 . S
C2122 H2108 0.961 . S
C2122 C2121 1.502 . S
C2123 H2109 0.960 . S
C2123 H2110 0.961 . S
C2123 H2111 0.959 . S
C2123 C2121 1.561 . S
C2124 C2121 1.526 . S
C2124 C2125 1.396 . S
C2124 C2129 1.390 . S
C2125 C2119 1.465 . S
C2125 C2124 1.396 . S
C2125 C2126 1.399 . S
C2126 H2112 0.929 . S
C2126 C2125 1.399 . S
C2126 C2127 1.385 . S
C2127 H2113 0.931 . S
C2127 C2126 1.385 . S
C2127 C2128 1.389 . S
C2128 C2127 1.389 . S
C2128 C2129 1.387 . S
C2129 H2114 0.930 . S
C2129 C2124 1.390 . S
C2129 C2128 1.387 . S
H2130 C2142 0.930 . S
H2131 C2144 0.930 . S
H2132 C2145 0.930 . S
H2133 C2149 0.959 . S
H2134 C2149 0.959 . S
H2135 C2149 0.961 . S
H2136 C2150 0.960 . S
H2137 C2150 0.961 . S
H2138 C2150 0.959 . S
H2139 C2153 0.929 . S
H2140 C2154 0.931 . S
H2141 C2156 0.930 . S
C2142 H2130 0.930 . S
C2142 C2143 1.399 . S
C2142 C2147 1.399 . S
C2143 C2142 1.399 . S
C2143 C2144 1.376 . S
C2144 H2131 0.930 . S
C2144 C2143 1.376 . S
C2144 C2145 1.388 . S
C2145 H2132 0.930 . S
C2145 C2144 1.388 . S
C2145 C2146 1.390 . S
C2146 C2145 1.390 . S
C2146 C2147 1.394 . S
C2146 C2152 1.465 . S
C2147 C2142 1.399 . S
C2147 C2146 1.394 . S
C2147 C2148 1.516 . S
C2148 C2147 1.516 . S
C2148 C2149 1.502 . S
C2148 C2150 1.561 . S
C2148 C2151 1.526 . S
C2149 H2133 0.959 . S
C2149 H2134 0.959 . S
C2149 H2135 0.961 . S
C2149 C2148 1.502 . S
C2150 H2136 0.960 . S
C2150 H2137 0.961 . S
C2150 H2138 0.959 . S
C2150 C2148 1.561 . S
C2151 C2148 1.526 . S
C2151 C2152 1.396 . S
C2151 C2156 1.390 . S
C2152 C2146 1.465 . S
C2152 C2151 1.396 . S
C2152 C2153 1.399 . S
C2153 H2139 0.929 . S
C2153 C2152 1.399 . S
C2153 C2154 1.385 . S
C2154 H2140 0.931 . S
C2154 C2153 1.385 . S
C2154 C2155 1.389 . S
C2155 C2154 1.389 . S
C2155 C2156 1.387 . S
C2156 H2141 0.930 . S
C2156 C2151 1.390 . S
C2156 C2155 1.387 . S
H2157 C2169 0.930 . S
H2158 C2171 0.930 . S
H2159 C2172 0.930 . S
H2160 C2176 0.959 . S
H2161 C2176 0.959 . S
H2162 C2176 0.961 . S
H2163 C2177 0.960 . S
H2164 C2177 0.961 . S
H2165 C2177 0.959 . S
H2166 C2180 0.929 . S
H2167 C2181 0.931 . S
H2168 C2183 0.930 . S
C2169 H2157 0.930 . S
C2169 C2170 1.399 . S
C2169 C2174 1.399 . S
C2170 C2169 1.399 . S
C2170 C2171 1.376 . S
C2171 H2158 0.930 . S
C2171 C2170 1.376 . S
C2171 C2172 1.388 . S
C2172 H2159 0.930 . S
C2172 C2171 1.388 . S
C2172 C2173 1.390 . S
C2173 C2172 1.390 . S
C2173 C2174 1.394 . S
C2173 C2179 1.465 . S
C2174 C2169 1.399 . S
C2174 C2173 1.394 . S
C2174 C2175 1.516 . S
C2175 C2174 1.516 . S
C2175 C2176 1.502 . S
C2175 C2177 1.561 . S
C2175 C2178 1.526 . S
C2176 H2160 0.959 . S
C2176 H2161 0.959 . S
C2176 H2162 0.961 . S
C2176 C2175 1.502 . S
C2177 H2163 0.960 . S
C2177 H2164 0.961 . S
C2177 H2165 0.959 . S
C2177 C2175 1.561 . S
C2178 C2175 1.526 . S
C2178 C2179 1.396 . S
C2178 C2183 1.390 . S
C2179 C2173 1.465 . S
C2179 C2178 1.396 . S
C2179 C2180 1.399 . S
C2180 H2166 0.929 . S
C2180 C2179 1.399 . S
C2180 C2181 1.385 . S
C2181 H2167 0.931 . S
C2181 C2180 1.385 . S
C2181 C2182 1.389 . S
C2182 C2181 1.389 . S
C2182 C2183 1.387 . S
C2183 H2168 0.930 . S
C2183 C2178 1.390 . S
C2183 C2182 1.387 . S
H2184 C2196 0.930 . S
H2185 C2198 0.930 . S
H2186 C2199 0.930 . S
H2187 C2203 0.959 . S
H2188 C2203 0.959 . S
H2189 C2203 0.961 . S
H2190 C2204 0.960 . S
H2191 C2204 0.961 . S
H2192 C2204 0.959 . S
H2193 C2207 0.929 . S
H2194 C2208 0.931 . S
H2195 C2210 0.930 . S
C2196 H2184 0.930 . S
C2196 C2197 1.399 . S
C2196 C2201 1.399 . S
C2197 C2196 1.399 . S
C2197 C2198 1.376 . S
C2198 H2185 0.930 . S
C2198 C2197 1.376 . S
C2198 C2199 1.388 . S
C2199 H2186 0.930 . S
C2199 C2198 1.388 . S
C2199 C2200 1.390 . S
C2200 C2199 1.390 . S
C2200 C2201 1.394 . S
C2200 C2206 1.465 . S
C2201 C2196 1.399 . S
C2201 C2200 1.394 . S
C2201 C2202 1.516 . S
C2202 C2201 1.516 . S
C2202 C2203 1.502 . S
C2202 C2204 1.561 . S
C2202 C2205 1.526 . S
C2203 H2187 0.959 . S
C2203 H2188 0.959 . S
C2203 H2189 0.961 . S
C2203 C2202 1.502 . S
C2204 H2190 0.960 . S
C2204 H2191 0.961 . S
C2204 H2192 0.959 . S
C2204 C2202 1.561 . S
C2205 C2202 1.526 . S
C2205 C2206 1.396 . S
C2205 C2210 1.390 . S
C2206 C2200 1.465 . S
C2206 C2205 1.396 . S
C2206 C2207 1.399 . S
C2207 H2193 0.929 . S
C2207 C2206 1.399 . S
C2207 C2208 1.385 . S
C2208 H2194 0.931 . S
C2208 C2207 1.385 . S
C2208 C2209 1.389 . S
C2209 C2208 1.389 . S
C2209 C2210 1.387 . S
C2210 H2195 0.930 . S
C2210 C2205 1.390 . S
C2210 C2209 1.387 . S
H2211 C2223 0.930 . S
H2212 C2225 0.930 . S
H2213 C2226 0.930 . S
H2214 C2230 0.959 . S
H2215 C2230 0.959 . S
H2216 C2230 0.961 1_455 S
H2217 C2231 0.960 . S
H2218 C2231 0.961 1_655 S
H2219 C2231 0.959 . S
H2220 C2234 0.929 . S
H2221 C2235 0.931 . S
H2222 C2237 0.930 . S
C2223 H2211 0.930 . S
C2223 C2224 1.399 . S
C2223 C2228 1.399 . S
C2224 C2223 1.399 . S
C2224 C2225 1.376 . S
C2225 H2212 0.930 . S
C2225 C2224 1.376 . S
C2225 C2226 1.388 . S
C2226 H2213 0.930 . S
C2226 C2225 1.388 . S
C2226 C2227 1.390 . S
C2227 C2226 1.390 . S
C2227 C2228 1.394 . S
C2227 C2233 1.465 1_455 S
C2228 C2223 1.399 . S
C2228 C2227 1.394 . S
C2228 C2229 1.524 . S
C2229 C2228 1.524 . S
C2229 C2230 1.499 1_455 S
C2229 C2231 1.564 . S
C2229 C2232 1.518 1_455 S
C2230 H2214 0.959 . S
C2230 H2215 0.959 . S
C2230 H2216 0.961 1_655 S
C2230 C2229 1.499 1_655 S
C2231 H2217 0.960 . S
C2231 H2218 0.961 1_455 S
C2231 H2219 0.959 . S
C2231 C2229 1.564 . S
C2232 C2229 1.518 1_655 S
C2232 C2233 1.396 . S
C2232 C2237 1.390 . S
C2233 C2227 1.465 1_655 S
C2233 C2232 1.396 . S
C2233 C2234 1.399 . S
C2234 H2220 0.929 . S
C2234 C2233 1.399 . S
C2234 C2235 1.385 . S
C2235 H2221 0.931 . S
C2235 C2234 1.385 . S
C2235 C2236 1.389 . S
C2236 C2235 1.389 . S
C2236 C2237 1.387 . S
C2237 H2222 0.930 . S
C2237 C2232 1.390 . S
C2237 C2236 1.387 . S
H2238 C2250 0.930 . S
H2239 C2252 0.930 . S
H2240 C2253 0.930 1_556 S
H2241 C2257 0.959 . S
H2242 C2257 0.959 . S
H2243 C2257 0.961 . S
H2244 C2258 0.960 . S
H2245 C2258 0.961 . S
H2246 C2258 0.959 . S
H2247 C2261 0.929 . S
H2248 C2262 0.931 . S
H2249 C2264 0.930 . S
C2250 H2238 0.930 . S
C2250 C2251 1.399 . S
C2250 C2255 1.399 . S
C2251 C2250 1.399 . S
C2251 C2252 1.376 . S
C2252 H2239 0.930 . S
C2252 C2251 1.376 . S
C2252 C2253 1.388 . S
C2253 H2240 0.930 1_554 S
C2253 C2252 1.388 . S
C2253 C2254 1.390 . S
C2254 C2253 1.390 . S
C2254 C2255 1.394 . S
C2254 C2260 1.465 . S
C2255 C2250 1.399 . S
C2255 C2254 1.394 . S
C2255 C2256 1.516 . S
C2256 C2255 1.516 . S
C2256 C2257 1.502 . S
C2256 C2258 1.561 . S
C2256 C2259 1.526 . S
C2257 H2241 0.959 . S
C2257 H2242 0.959 . S
C2257 H2243 0.961 . S
C2257 C2256 1.502 . S
C2258 H2244 0.960 . S
C2258 H2245 0.961 . S
C2258 H2246 0.959 . S
C2258 C2256 1.561 . S
C2259 C2256 1.526 . S
C2259 C2260 1.396 . S
C2259 C2264 1.390 . S
C2260 C2254 1.465 . S
C2260 C2259 1.396 . S
C2260 C2261 1.399 1_554 S
C2261 H2247 0.929 . S
C2261 C2260 1.399 1_556 S
C2261 C2262 1.385 . S
C2262 H2248 0.931 . S
C2262 C2261 1.385 . S
C2262 C2263 1.389 1_556 S
C2263 C2262 1.389 1_554 S
C2263 C2264 1.387 . S
C2264 H2249 0.930 . S
C2264 C2259 1.390 . S
C2264 C2263 1.387 . S
H2265 C2277 0.930 . S
H2266 C2279 0.930 . S
H2267 C2280 0.930 . S
H2268 C2284 0.959 . S
H2269 C2284 0.959 1_455 S
H2270 C2284 0.961 . S
H2271 C2285 0.960 1_655 S
H2272 C2285 0.961 . S
H2273 C2285 0.959 . S
H2274 C2288 0.929 . S
H2275 C2289 0.931 . S
H2276 C2291 0.930 . S
C2277 H2265 0.930 . S
C2277 C2278 1.399 . S
C2277 C2282 1.399 . S
C2278 C2277 1.399 . S
C2278 C2279 1.376 . S
C2279 H2266 0.930 . S
C2279 C2278 1.376 . S
C2279 C2280 1.388 . S
C2280 H2267 0.930 . S
C2280 C2279 1.388 . S
C2280 C2281 1.390 . S
C2281 C2280 1.390 . S
C2281 C2282 1.394 . S
C2281 C2287 1.465 1_655 S
C2282 C2277 1.399 . S
C2282 C2281 1.394 . S
C2282 C2283 1.516 1_565 S
C2283 C2282 1.516 1_545 S
C2283 C2284 1.502 . S
C2283 C2285 1.561 1_645 S
C2283 C2286 1.526 1_655 S
C2284 H2268 0.959 . S
C2284 H2269 0.959 1_655 S
C2284 H2270 0.961 . S
C2284 C2283 1.502 . S
C2285 H2271 0.960 1_455 S
C2285 H2272 0.961 . S
C2285 H2273 0.959 . S
C2285 C2283 1.561 1_465 S
C2286 C2283 1.526 1_455 S
C2286 C2287 1.396 1_545 S
C2286 C2291 1.390 . S
C2287 C2281 1.465 1_455 S
C2287 C2286 1.396 1_565 S
C2287 C2288 1.399 . S
C2288 H2274 0.929 . S
C2288 C2287 1.399 . S
C2288 C2289 1.385 1_565 S
C2289 H2275 0.931 . S
C2289 C2288 1.385 1_545 S
C2289 C2290 1.389 . S
C2290 C2289 1.389 . S
C2290 C2291 1.387 . S
C2291 H2276 0.930 . S
C2291 C2286 1.390 . S
C2291 C2290 1.387 . S
H2292 C2304 0.930 . S
H2293 C2306 0.930 . S
H2294 C2307 0.930 . S
H2295 C2311 0.959 . S
H2296 C2311 0.959 . S
H2297 C2311 0.961 . S
H2298 C2312 0.960 . S
H2299 C2312 0.961 . S
H2300 C2312 0.959 . S
H2301 C2315 0.929 . S
H2302 C2316 0.931 . S
H2303 C2318 0.930 . S
C2304 H2292 0.930 . S
C2304 C2305 1.399 . S
C2304 C2309 1.399 . S
C2305 C2304 1.399 . S
C2305 C2306 1.376 . S
C2306 H2293 0.930 . S
C2306 C2305 1.376 . S
C2306 C2307 1.388 . S
C2307 H2294 0.930 . S
C2307 C2306 1.388 . S
C2307 C2308 1.390 . S
C2308 C2307 1.390 . S
C2308 C2309 1.394 . S
C2308 C2314 1.465 . S
C2309 C2304 1.399 . S
C2309 C2308 1.394 . S
C2309 C2310 1.516 . S
C2310 C2309 1.516 . S
C2310 C2311 1.502 . S
C2310 C2312 1.561 . S
C2310 C2313 1.526 . S
C2311 H2295 0.959 . S
C2311 H2296 0.959 . S
C2311 H2297 0.961 . S
C2311 C2310 1.502 . S
C2312 H2298 0.960 . S
C2312 H2299 0.961 . S
C2312 H2300 0.959 . S
C2312 C2310 1.561 . S
C2313 C2310 1.526 . S
C2313 C2314 1.396 . S
C2313 C2318 1.390 . S
C2314 C2308 1.465 . S
C2314 C2313 1.396 . S
C2314 C2315 1.399 . S
C2315 H2301 0.929 . S
C2315 C2314 1.399 . S
C2315 C2316 1.385 . S
C2316 H2302 0.931 . S
C2316 C2315 1.385 . S
C2316 C2317 1.389 . S
C2317 C2316 1.389 . S
C2317 C2318 1.387 . S
C2318 H2303 0.930 . S
C2318 C2313 1.390 . S
C2318 C2317 1.387 . S
H2319 C2331 0.930 . S
H2320 C2333 0.930 . S
H2321 C2334 0.930 . S
H2322 C2338 0.959 . S
H2323 C2338 0.959 . S
H2324 C2338 0.961 . S
H2325 C2339 0.960 . S
H2326 C2339 0.961 . S
H2327 C2339 0.959 . S
H2328 C2342 0.929 . S
H2329 C2343 0.931 . S
H2330 C2345 0.930 . S
C2331 H2319 0.930 . S
C2331 C2332 1.399 . S
C2331 C2336 1.399 . S
C2332 C2331 1.399 . S
C2332 C2333 1.376 . S
C2333 H2320 0.930 . S
C2333 C2332 1.376 . S
C2333 C2334 1.388 . S
C2334 H2321 0.930 . S
C2334 C2333 1.388 . S
C2334 C2335 1.390 . S
C2335 C2334 1.390 . S
C2335 C2336 1.394 . S
C2335 C2341 1.465 . S
C2336 C2331 1.399 . S
C2336 C2335 1.394 . S
C2336 C2337 1.516 . S
C2337 C2336 1.516 . S
C2337 C2338 1.502 . S
C2337 C2339 1.561 . S
C2337 C2340 1.526 . S
C2338 H2322 0.959 . S
C2338 H2323 0.959 . S
C2338 H2324 0.961 . S
C2338 C2337 1.502 . S
C2339 H2325 0.960 . S
C2339 H2326 0.961 . S
C2339 H2327 0.959 . S
C2339 C2337 1.561 . S
C2340 C2337 1.526 . S
C2340 C2341 1.396 . S
C2340 C2345 1.390 . S
C2341 C2335 1.465 . S
C2341 C2340 1.396 . S
C2341 C2342 1.399 . S
C2342 H2328 0.929 . S
C2342 C2341 1.399 . S
C2342 C2343 1.385 . S
C2343 H2329 0.931 . S
C2343 C2342 1.385 . S
C2343 C2344 1.389 . S
C2344 C2343 1.389 . S
C2344 C2345 1.387 . S
C2345 H2330 0.930 . S
C2345 C2340 1.390 . S
C2345 C2344 1.387 . S
H2346 C2358 0.930 . S
H2347 C2360 0.930 . S
H2348 C2361 0.922 1_554 S
H2349 C2365 0.959 . S
H2350 C2365 0.959 . S
H2351 C2365 0.961 . S
H2352 C2366 0.960 . S
H2353 C2366 0.961 . S
H2354 C2366 0.959 . S
H2355 C2369 0.929 . S
H2356 C2370 0.931 . S
H2357 C2372 0.930 . S
C2358 H2346 0.930 . S
C2358 C2359 1.399 . S
C2358 C2363 1.399 . S
C2359 C2358 1.399 . S
C2359 C2360 1.376 1_556 S
C2360 H2347 0.930 . S
C2360 C2359 1.376 1_554 S
C2360 C2361 1.385 1_554 S
C2361 H2348 0.922 1_556 S
C2361 C2360 1.385 1_556 S
C2361 C2362 1.402 . S
C2362 C2361 1.402 . S
C2362 C2363 1.394 . S
C2362 C2368 1.465 . S
C2363 C2358 1.399 . S
C2363 C2362 1.394 . S
C2363 C2364 1.516 . S
C2364 C2363 1.516 . S
C2364 C2365 1.502 . S
C2364 C2366 1.561 . S
C2364 C2367 1.526 . S
C2365 H2349 0.959 . S
C2365 H2350 0.959 . S
C2365 H2351 0.961 . S
C2365 C2364 1.502 . S
C2366 H2352 0.960 . S
C2366 H2353 0.961 . S
C2366 H2354 0.959 . S
C2366 C2364 1.561 . S
C2367 C2364 1.526 . S
C2367 C2368 1.396 . S
C2367 C2372 1.390 . S
C2368 C2362 1.465 . S
C2368 C2367 1.396 . S
C2368 C2369 1.399 . S
C2369 H2355 0.929 . S
C2369 C2368 1.399 . S
C2369 C2370 1.385 . S
C2370 H2356 0.931 . S
C2370 C2369 1.385 . S
C2370 C2371 1.389 . S
C2371 C2370 1.389 . S
C2371 C2372 1.387 . S
C2372 H2357 0.930 . S
C2372 C2367 1.390 . S
C2372 C2371 1.387 . S
H2373 C2385 0.930 . S
H2374 C2387 0.930 . S
H2375 C2388 0.930 . S
H2376 C2392 0.959 . S
H2377 C2392 0.959 . S
H2378 C2392 0.961 . S
H2379 C2393 0.960 . S
H2380 C2393 0.961 1_545 S
H2381 C2393 0.959 . S
H2382 C2396 0.929 1_565 S
H2383 C2397 0.931 . S
H2384 C2399 0.930 . S
C2385 H2373 0.930 . S
C2385 C2386 1.399 . S
C2385 C2390 1.399 . S
C2386 C2385 1.399 . S
C2386 C2387 1.376 . S
C2387 H2374 0.930 . S
C2387 C2386 1.376 . S
C2387 C2388 1.388 . S
C2388 H2375 0.930 . S
C2388 C2387 1.388 . S
C2388 C2389 1.390 . S
C2389 C2388 1.390 . S
C2389 C2390 1.394 . S
C2389 C2395 1.465 1_565 S
C2390 C2385 1.399 . S
C2390 C2389 1.394 . S
C2390 C2391 1.516 1_565 S
C2391 C2390 1.516 1_545 S
C2391 C2392 1.502 . S
C2391 C2393 1.561 1_545 S
C2391 C2394 1.526 . S
C2392 H2376 0.959 . S
C2392 H2377 0.959 . S
C2392 H2378 0.961 . S
C2392 C2391 1.502 . S
C2393 H2379 0.960 . S
C2393 H2380 0.961 1_565 S
C2393 H2381 0.959 . S
C2393 C2391 1.561 1_565 S
C2394 C2391 1.526 . S
C2394 C2395 1.396 . S
C2394 C2399 1.390 . S
C2395 C2389 1.465 1_545 S
C2395 C2394 1.396 . S
C2395 C2396 1.399 . S
C2396 H2382 0.929 1_545 S
C2396 C2395 1.399 . S
C2396 C2397 1.385 . S
C2397 H2383 0.931 . S
C2397 C2396 1.385 . S
C2397 C2398 1.389 . S
C2398 C2397 1.389 . S
C2398 C2399 1.387 . S
C2399 H2384 0.930 . S
C2399 C2394 1.390 . S
C2399 C2398 1.387 . S
H2400 C2412 0.930 . S
H2401 C2414 0.930 . S
H2402 C2415 0.930 . S
H2403 C2419 0.959 . S
H2404 C2419 0.959 . S
H2405 C2419 0.961 . S
H2406 C2420 0.960 . S
H2407 C2420 0.961 . S
H2408 C2420 0.959 . S
H2409 C2423 0.929 . S
H2410 C2424 0.931 . S
H2411 C2426 0.930 . S
C2412 H2400 0.930 . S
C2412 C2413 1.399 . S
C2412 C2417 1.399 . S
C2413 C2412 1.399 . S
C2413 C2414 1.376 . S
C2414 H2401 0.930 . S
C2414 C2413 1.376 . S
C2414 C2415 1.388 . S
C2415 H2402 0.930 . S
C2415 C2414 1.388 . S
C2415 C2416 1.390 . S
C2416 C2415 1.390 . S
C2416 C2417 1.394 . S
C2416 C2422 1.465 . S
C2417 C2412 1.399 . S
C2417 C2416 1.394 . S
C2417 C2418 1.516 . S
C2418 C2417 1.516 . S
C2418 C2419 1.502 . S
C2418 C2420 1.561 . S
C2418 C2421 1.526 . S
C2419 H2403 0.959 . S
C2419 H2404 0.959 . S
C2419 H2405 0.961 . S
C2419 C2418 1.502 . S
C2420 H2406 0.960 . S
C2420 H2407 0.961 . S
C2420 H2408 0.959 . S
C2420 C2418 1.561 . S
C2421 C2418 1.526 . S
C2421 C2422 1.396 . S
C2421 C2426 1.390 . S
C2422 C2416 1.465 . S
C2422 C2421 1.396 . S
C2422 C2423 1.399 . S
C2423 H2409 0.929 . S
C2423 C2422 1.399 . S
C2423 C2424 1.385 . S
C2424 H2410 0.931 . S
C2424 C2423 1.385 . S
C2424 C2425 1.389 . S
C2425 C2424 1.389 . S
C2425 C2426 1.387 . S
C2426 H2411 0.930 . S
C2426 C2421 1.390 . S
C2426 C2425 1.387 . S
H2427 C2439 0.930 . S
H2428 C2441 0.930 . S
H2429 C2442 0.930 . S
H2430 C2446 0.959 . S
H2431 C2446 0.959 . S
H2432 C2446 0.961 . S
H2433 C2447 0.960 . S
H2434 C2447 0.961 . S
H2435 C2447 0.959 . S
H2436 C2450 0.929 . S
H2437 C2451 0.931 . S
H2438 C2453 0.930 . S
C2439 H2427 0.930 . S
C2439 C2440 1.399 . S
C2439 C2444 1.399 . S
C2440 C2439 1.399 . S
C2440 C2441 1.376 . S
C2441 H2428 0.930 . S
C2441 C2440 1.376 . S
C2441 C2442 1.388 . S
C2442 H2429 0.930 . S
C2442 C2441 1.388 . S
C2442 C2443 1.390 . S
C2443 C2442 1.390 . S
C2443 C2444 1.394 . S
C2443 C2449 1.465 . S
C2444 C2439 1.399 . S
C2444 C2443 1.394 . S
C2444 C2445 1.516 . S
C2445 C2444 1.516 . S
C2445 C2446 1.502 . S
C2445 C2447 1.561 . S
C2445 C2448 1.526 . S
C2446 H2430 0.959 . S
C2446 H2431 0.959 . S
C2446 H2432 0.961 . S
C2446 C2445 1.502 . S
C2447 H2433 0.960 . S
C2447 H2434 0.961 . S
C2447 H2435 0.959 . S
C2447 C2445 1.561 . S
C2448 C2445 1.526 . S
C2448 C2449 1.396 . S
C2448 C2453 1.390 . S
C2449 C2443 1.465 . S
C2449 C2448 1.396 . S
C2449 C2450 1.399 . S
C2450 H2436 0.929 . S
C2450 C2449 1.399 . S
C2450 C2451 1.385 . S
C2451 H2437 0.931 . S
C2451 C2450 1.385 . S
C2451 C2452 1.389 . S
C2452 C2451 1.389 . S
C2452 C2453 1.387 . S
C2453 H2438 0.930 . S
C2453 C2448 1.390 . S
C2453 C2452 1.387 . S
H2454 C2466 0.930 . S
H2455 C2468 0.930 . S
H2456 C2469 0.930 . S
H2457 C2473 0.959 . S
H2458 C2473 0.959 . S
H2459 C2473 0.961 . S
H2460 C2474 0.960 . S
H2461 C2474 0.961 . S
H2462 C2474 0.959 . S
H2463 C2477 0.929 . S
H2464 C2478 0.931 . S
H2465 C2480 0.930 . S
C2466 H2454 0.930 . S
C2466 C2467 1.399 . S
C2466 C2471 1.399 . S
C2467 C2466 1.399 . S
C2467 C2468 1.376 . S
C2468 H2455 0.930 . S
C2468 C2467 1.376 . S
C2468 C2469 1.388 . S
C2469 H2456 0.930 . S
C2469 C2468 1.388 . S
C2469 C2470 1.390 . S
C2470 C2469 1.390 . S
C2470 C2471 1.394 . S
C2470 C2476 1.465 . S
C2471 C2466 1.399 . S
C2471 C2470 1.394 . S
C2471 C2472 1.516 . S
C2472 C2471 1.516 . S
C2472 C2473 1.502 . S
C2472 C2474 1.561 . S
C2472 C2475 1.526 . S
C2473 H2457 0.959 . S
C2473 H2458 0.959 . S
C2473 H2459 0.961 . S
C2473 C2472 1.502 . S
C2474 H2460 0.960 . S
C2474 H2461 0.961 . S
C2474 H2462 0.959 . S
C2474 C2472 1.561 . S
C2475 C2472 1.526 . S
C2475 C2476 1.396 . S
C2475 C2480 1.390 . S
C2476 C2470 1.465 . S
C2476 C2475 1.396 . S
C2476 C2477 1.399 . S
C2477 H2463 0.929 . S
C2477 C2476 1.399 . S
C2477 C2478 1.385 . S
C2478 H2464 0.931 . S
C2478 C2477 1.385 . S
C2478 C2479 1.389 . S
C2479 C2478 1.389 . S
C2479 C2480 1.387 . S
C2480 H2465 0.930 . S
C2480 C2475 1.390 . S
C2480 C2479 1.387 . S
H2481 C2493 0.930 . S
H2482 C2495 0.930 1_655 S
H2483 C2496 0.930 1_655 S
H2484 C2500 0.959 . S
H2485 C2500 0.959 . S
H2486 C2500 0.961 . S
H2487 C2501 0.960 . S
H2488 C2501 0.961 . S
H2489 C2501 0.959 . S
H2490 C2504 0.929 1_655 S
H2491 C2505 0.931 1_655 S
H2492 C2507 0.930 . S
C2493 H2481 0.930 . S
C2493 C2494 1.399 . S
C2493 C2498 1.399 . S
C2494 C2493 1.399 . S
C2494 C2495 1.376 . S
C2495 H2482 0.930 1_455 S
C2495 C2494 1.376 . S
C2495 C2496 1.388 . S
C2496 H2483 0.930 1_455 S
C2496 C2495 1.388 . S
C2496 C2497 1.390 . S
C2497 C2496 1.390 . S
C2497 C2498 1.394 . S
C2497 C2503 1.465 . S
C2498 C2493 1.399 . S
C2498 C2497 1.394 . S
C2498 C2499 1.516 . S
C2499 C2498 1.516 . S
C2499 C2500 1.502 . S
C2499 C2501 1.561 . S
C2499 C2502 1.526 . S
C2500 H2484 0.959 . S
C2500 H2485 0.959 . S
C2500 H2486 0.961 . S
C2500 C2499 1.502 . S
C2501 H2487 0.960 . S
C2501 H2488 0.961 . S
C2501 H2489 0.959 . S
C2501 C2499 1.561 . S
C2502 C2499 1.526 . S
C2502 C2503 1.396 . S
C2502 C2507 1.390 . S
C2503 C2497 1.465 . S
C2503 C2502 1.396 . S
C2503 C2504 1.399 . S
C2504 H2490 0.929 1_455 S
C2504 C2503 1.399 . S
C2504 C2505 1.385 . S
C2505 H2491 0.931 1_455 S
C2505 C2504 1.385 . S
C2505 C2506 1.389 . S
C2506 C2505 1.389 . S
C2506 C2507 1.387 . S
C2507 H2492 0.930 . S
C2507 C2502 1.390 . S
C2507 C2506 1.387 . S
H2508 C2520 0.930 . S
H2509 C2522 0.930 . S
H2510 C2523 0.930 . S
H2511 C2527 0.975 . S
H2512 C2527 0.959 . S
H2513 C2527 0.961 1_556 S
H2514 C2528 0.960 1_655 S
H2515 C2528 0.961 1_655 S
H2516 C2528 0.959 . S
H2517 C2531 0.929 . S
H2518 C2532 0.931 . S
H2519 C2534 0.930 . S
C2520 H2508 0.930 . S
C2520 C2521 1.399 . S
C2520 C2525 1.399 . S
C2521 C2520 1.399 . S
C2521 C2522 1.376 . S
C2522 H2509 0.930 . S
C2522 C2521 1.376 . S
C2522 C2523 1.388 . S
C2523 H2510 0.930 . S
C2523 C2522 1.388 . S
C2523 C2524 1.390 . S
C2524 C2523 1.390 . S
C2524 C2525 1.394 . S
C2524 C2530 1.465 1_556 S
C2525 C2520 1.399 . S
C2525 C2524 1.394 . S
C2525 C2526 1.516 . S
C2526 C2525 1.516 . S
C2526 C2527 1.502 1_456 S
C2526 C2528 1.561 . S
C2526 C2529 1.526 1_556 S
C2527 H2511 0.975 . S
C2527 H2512 0.959 . S
C2527 H2513 0.961 1_554 S
C2527 C2526 1.502 1_654 S
C2528 H2514 0.960 1_455 S
C2528 H2515 0.961 1_455 S
C2528 H2516 0.959 . S
C2528 C2526 1.561 . S
C2529 C2526 1.526 1_554 S
C2529 C2530 1.396 . S
C2529 C2534 1.390 . S
C2530 C2524 1.465 1_554 S
C2530 C2529 1.396 . S
C2530 C2531 1.399 . S
C2531 H2517 0.929 . S
C2531 C2530 1.399 . S
C2531 C2532 1.385 . S
C2532 H2518 0.931 . S
C2532 C2531 1.385 . S
C2532 C2533 1.389 . S
C2533 C2532 1.389 . S
C2533 C2534 1.387 . S
C2534 H2519 0.930 . S
C2534 C2529 1.390 . S
C2534 C2533 1.387 . S
H2535 C2547 0.930 . S
H2536 C2549 0.930 . S
H2537 C2550 0.930 . S
H2538 C2554 0.959 . S
H2539 C2554 0.959 . S
H2540 C2554 0.961 . S
H2541 C2555 0.960 . S
H2542 C2555 0.961 . S
H2543 C2555 0.959 . S
H2544 C2558 0.929 . S
H2545 C2559 0.931 . S
H2546 C2561 0.930 . S
C2547 H2535 0.930 . S
C2547 C2548 1.399 . S
C2547 C2552 1.399 . S
C2548 C2547 1.399 . S
C2548 C2549 1.376 . S
C2549 H2536 0.930 . S
C2549 C2548 1.376 . S
C2549 C2550 1.388 . S
C2550 H2537 0.930 . S
C2550 C2549 1.388 . S
C2550 C2551 1.390 . S
C2551 C2550 1.390 . S
C2551 C2552 1.394 . S
C2551 C2557 1.465 . S
C2552 C2547 1.399 . S
C2552 C2551 1.394 . S
C2552 C2553 1.516 . S
C2553 C2552 1.516 . S
C2553 C2554 1.502 . S
C2553 C2555 1.561 . S
C2553 C2556 1.526 . S
C2554 H2538 0.959 . S
C2554 H2539 0.959 . S
C2554 H2540 0.961 . S
C2554 C2553 1.502 . S
C2555 H2541 0.960 . S
C2555 H2542 0.961 . S
C2555 H2543 0.959 . S
C2555 C2553 1.561 . S
C2556 C2553 1.526 . S
C2556 C2557 1.396 . S
C2556 C2561 1.390 . S
C2557 C2551 1.465 . S
C2557 C2556 1.396 . S
C2557 C2558 1.399 . S
C2558 H2544 0.929 . S
C2558 C2557 1.399 . S
C2558 C2559 1.385 . S
C2559 H2545 0.931 . S
C2559 C2558 1.385 . S
C2559 C2560 1.389 . S
C2560 C2559 1.389 . S
C2560 C2561 1.387 . S
C2561 H2546 0.930 . S
C2561 C2556 1.390 . S
C2561 C2560 1.387 . S
H2562 C2574 0.930 . S
H2563 C2576 0.930 . S
H2564 C2577 0.930 . S
H2565 C2581 0.959 . S
H2566 C2581 0.959 . S
H2567 C2581 0.961 . S
H2568 C2582 0.960 . S
H2569 C2582 0.961 . S
H2570 C2582 0.959 . S
H2571 C2585 0.929 . S
H2572 C2586 0.931 . S
H2573 C2588 0.930 . S
C2574 H2562 0.930 . S
C2574 C2575 1.399 . S
C2574 C2579 1.399 . S
C2575 C2574 1.399 . S
C2575 C2576 1.376 . S
C2576 H2563 0.930 . S
C2576 C2575 1.376 . S
C2576 C2577 1.388 . S
C2577 H2564 0.930 . S
C2577 C2576 1.388 . S
C2577 C2578 1.390 . S
C2578 C2577 1.390 . S
C2578 C2579 1.394 . S
C2578 C2584 1.465 1_554 S
C2579 C2574 1.399 . S
C2579 C2578 1.394 . S
C2579 C2580 1.516 1_554 S
C2580 C2579 1.516 1_556 S
C2580 C2581 1.502 . S
C2580 C2582 1.561 . S
C2580 C2583 1.526 . S
C2581 H2565 0.959 . S
C2581 H2566 0.959 . S
C2581 H2567 0.961 . S
C2581 C2580 1.502 . S
C2582 H2568 0.960 . S
C2582 H2569 0.961 . S
C2582 H2570 0.959 . S
C2582 C2580 1.561 . S
C2583 C2580 1.526 . S
C2583 C2584 1.396 . S
C2583 C2588 1.390 . S
C2584 C2578 1.465 1_556 S
C2584 C2583 1.396 . S
C2584 C2585 1.399 . S
C2585 H2571 0.929 . S
C2585 C2584 1.399 . S
C2585 C2586 1.385 . S
C2586 H2572 0.931 . S
C2586 C2585 1.385 . S
C2586 C2587 1.389 . S
C2587 C2586 1.389 . S
C2587 C2588 1.387 . S
C2588 H2573 0.930 . S
C2588 C2583 1.390 . S
C2588 C2587 1.387 . S
H2589 C2601 0.930 1_565 S
H2590 C2603 0.930 . S
H2591 C2604 0.930 . S
H2592 C2608 0.959 . S
H2593 C2608 0.959 . S
H2594 C2608 0.961 . S
H2595 C2609 0.960 . S
H2596 C2609 0.961 . S
H2597 C2609 0.959 . S
H2598 C2612 0.929 . S
H2599 C2613 0.931 . S
H2600 C2615 0.930 . S
C2601 H2589 0.930 1_545 S
C2601 C2602 1.399 . S
C2601 C2606 1.399 . S
C2602 C2601 1.399 . S
C2602 C2603 1.376 . S
C2603 H2590 0.930 . S
C2603 C2602 1.376 . S
C2603 C2604 1.388 . S
C2604 H2591 0.930 . S
C2604 C2603 1.388 . S
C2604 C2605 1.390 . S
C2605 C2604 1.390 . S
C2605 C2606 1.394 . S
C2605 C2611 1.465 . S
C2606 C2601 1.399 . S
C2606 C2605 1.394 . S
C2606 C2607 1.516 . S
C2607 C2606 1.516 . S
C2607 C2608 1.502 . S
C2607 C2609 1.561 1_545 S
C2607 C2610 1.526 . S
C2608 H2592 0.959 . S
C2608 H2593 0.959 . S
C2608 H2594 0.961 . S
C2608 C2607 1.502 . S
C2609 H2595 0.960 . S
C2609 H2596 0.961 . S
C2609 H2597 0.959 . S
C2609 C2607 1.561 1_565 S
C2610 C2607 1.526 . S
C2610 C2611 1.396 . S
C2610 C2615 1.390 . S
C2611 C2605 1.465 . S
C2611 C2610 1.396 . S
C2611 C2612 1.399 . S
C2612 H2598 0.929 . S
C2612 C2611 1.399 . S
C2612 C2613 1.385 . S
C2613 H2599 0.931 . S
C2613 C2612 1.385 . S
C2613 C2614 1.389 . S
C2614 C2613 1.389 . S
C2614 C2615 1.387 . S
C2615 H2600 0.930 . S
C2615 C2610 1.390 . S
C2615 C2614 1.387 . S
H2616 C2628 0.930 . S
H2617 C2630 0.930 . S
H2618 C2631 0.930 . S
H2619 C2635 0.959 . S
H2620 C2635 0.959 1_554 S
H2621 C2635 0.961 1_554 S
H2622 C2636 0.960 . S
H2623 C2636 0.961 . S
H2624 C2636 0.959 1_556 S
H2625 C2639 0.929 . S
H2626 C2640 0.931 . S
H2627 C2642 0.930 . S
C2628 H2616 0.930 . S
C2628 C2629 1.399 . S
C2628 C2633 1.399 . S
C2629 C2628 1.399 . S
C2629 C2630 1.376 . S
C2630 H2617 0.930 . S
C2630 C2629 1.376 . S
C2630 C2631 1.388 . S
C2631 H2618 0.930 . S
C2631 C2630 1.388 . S
C2631 C2632 1.390 . S
C2632 C2631 1.390 . S
C2632 C2633 1.394 . S
C2632 C2638 1.465 . S
C2633 C2628 1.399 . S
C2633 C2632 1.394 . S
C2633 C2634 1.516 . S
C2634 C2633 1.516 . S
C2634 C2635 1.502 . S
C2634 C2636 1.561 1_556 S
C2634 C2637 1.526 . S
C2635 H2619 0.959 . S
C2635 H2620 0.959 1_556 S
C2635 H2621 0.961 1_556 S
C2635 C2634 1.502 . S
C2636 H2622 0.960 . S
C2636 H2623 0.961 . S
C2636 H2624 0.959 1_554 S
C2636 C2634 1.561 1_554 S
C2637 C2634 1.526 . S
C2637 C2638 1.396 . S
C2637 C2642 1.390 . S
C2638 C2632 1.465 . S
C2638 C2637 1.396 . S
C2638 C2639 1.399 . S
C2639 H2625 0.929 . S
C2639 C2638 1.399 . S
C2639 C2640 1.385 . S
C2640 H2626 0.931 . S
C2640 C2639 1.385 . S
C2640 C2641 1.389 . S
C2641 C2640 1.389 . S
C2641 C2642 1.387 . S
C2642 H2627 0.930 . S
C2642 C2637 1.390 . S
C2642 C2641 1.387 . S
H2643 C2655 0.930 . S
H2644 C2657 0.930 . S
H2645 C2658 0.930 . S
H2646 C2662 0.959 . S
H2647 C2662 0.959 . S
H2648 C2662 0.961 . S
H2649 C2663 0.960 . S
H2650 C2663 0.961 . S
H2651 C2663 0.959 . S
H2652 C2666 0.929 . S
H2653 C2667 0.931 . S
H2654 C2669 0.930 . S
C2655 H2643 0.930 . S
C2655 C2656 1.399 . S
C2655 C2660 1.399 . S
C2656 C2655 1.399 . S
C2656 C2657 1.376 . S
C2657 H2644 0.930 . S
C2657 C2656 1.376 . S
C2657 C2658 1.388 . S
C2658 H2645 0.930 . S
C2658 C2657 1.388 . S
C2658 C2659 1.390 . S
C2659 C2658 1.390 . S
C2659 C2660 1.394 . S
C2659 C2665 1.465 . S
C2660 C2655 1.399 . S
C2660 C2659 1.394 . S
C2660 C2661 1.516 . S
C2661 C2660 1.516 . S
C2661 C2662 1.502 . S
C2661 C2663 1.561 . S
C2661 C2664 1.526 . S
C2662 H2646 0.959 . S
C2662 H2647 0.959 . S
C2662 H2648 0.961 . S
C2662 C2661 1.502 . S
C2663 H2649 0.960 . S
C2663 H2650 0.961 . S
C2663 H2651 0.959 . S
C2663 C2661 1.561 . S
C2664 C2661 1.526 . S
C2664 C2665 1.396 . S
C2664 C2669 1.390 . S
C2665 C2659 1.465 . S
C2665 C2664 1.396 . S
C2665 C2666 1.399 . S
C2666 H2652 0.929 . S
C2666 C2665 1.399 . S
C2666 C2667 1.385 . S
C2667 H2653 0.931 . S
C2667 C2666 1.385 . S
C2667 C2668 1.389 . S
C2668 C2667 1.389 . S
C2668 C2669 1.387 . S
C2669 H2654 0.930 . S
C2669 C2664 1.390 . S
C2669 C2668 1.387 . S
H2670 C2682 0.930 . S
H2671 C2684 0.930 . S
H2672 C2685 0.930 . S
H2673 C2689 0.959 . S
H2674 C2689 0.959 . S
H2675 C2689 0.961 . S
H2676 C2690 0.960 . S
H2677 C2690 0.961 . S
H2678 C2690 0.959 . S
H2679 C2693 0.929 . S
H2680 C2694 0.931 . S
H2681 C2696 0.930 . S
C2682 H2670 0.930 . S
C2682 C2683 1.399 . S
C2682 C2687 1.399 . S
C2683 C2682 1.399 . S
C2683 C2684 1.376 . S
C2684 H2671 0.930 . S
C2684 C2683 1.376 . S
C2684 C2685 1.388 . S
C2685 H2672 0.930 . S
C2685 C2684 1.388 . S
C2685 C2686 1.390 . S
C2686 C2685 1.390 . S
C2686 C2687 1.394 . S
C2686 C2692 1.465 . S
C2687 C2682 1.399 . S
C2687 C2686 1.394 . S
C2687 C2688 1.516 . S
C2688 C2687 1.516 . S
C2688 C2689 1.502 . S
C2688 C2690 1.561 . S
C2688 C2691 1.526 . S
C2689 H2673 0.959 . S
C2689 H2674 0.959 . S
C2689 H2675 0.961 . S
C2689 C2688 1.502 . S
C2690 H2676 0.960 . S
C2690 H2677 0.961 . S
C2690 H2678 0.959 . S
C2690 C2688 1.561 . S
C2691 C2688 1.526 . S
C2691 C2692 1.396 . S
C2691 C2696 1.390 . S
C2692 C2686 1.465 . S
C2692 C2691 1.396 . S
C2692 C2693 1.399 . S
C2693 H2679 0.929 . S
C2693 C2692 1.399 . S
C2693 C2694 1.385 . S
C2694 H2680 0.931 . S
C2694 C2693 1.385 . S
C2694 C2695 1.389 . S
C2695 C2694 1.389 . S
C2695 C2696 1.387 . S
C2696 H2681 0.930 . S
C2696 C2691 1.390 . S
C2696 C2695 1.387 . S
H2697 C2709 0.930 . S
H2698 C2711 0.930 . S
H2699 C2712 0.930 . S
H2700 C2716 0.959 . S
H2701 C2716 0.959 . S
H2702 C2716 0.961 . S
H2703 C2717 0.960 . S
H2704 C2717 0.961 . S
H2705 C2717 0.959 . S
H2706 C2720 0.916 1_545 S
H2707 C2721 0.931 . S
H2708 C2723 0.930 . S
C2709 H2697 0.930 . S
C2709 C2710 1.399 . S
C2709 C2714 1.399 . S
C2710 C2709 1.399 . S
C2710 C2711 1.376 1_565 S
C2711 H2698 0.930 . S
C2711 C2710 1.376 1_545 S
C2711 C2712 1.388 . S
C2712 H2699 0.930 . S
C2712 C2711 1.388 . S
C2712 C2713 1.390 1_545 S
C2713 C2712 1.390 1_565 S
C2713 C2714 1.394 . S
C2713 C2719 1.465 . S
C2714 C2709 1.399 . S
C2714 C2713 1.394 . S
C2714 C2715 1.516 . S
C2715 C2714 1.516 . S
C2715 C2716 1.502 . S
C2715 C2717 1.561 . S
C2715 C2718 1.526 . S
C2716 H2700 0.959 . S
C2716 H2701 0.959 . S
C2716 H2702 0.961 . S
C2716 C2715 1.502 . S
C2717 H2703 0.960 . S
C2717 H2704 0.961 . S
C2717 H2705 0.959 . S
C2717 C2715 1.561 . S
C2718 C2715 1.526 . S
C2718 C2719 1.396 . S
C2718 C2723 1.390 . S
C2719 C2713 1.465 . S
C2719 C2718 1.396 . S
C2719 C2720 1.399 . S
C2720 H2706 0.916 1_565 S
C2720 C2719 1.399 . S
C2720 C2721 1.385 . S
C2721 H2707 0.931 . S
C2721 C2720 1.385 . S
C2721 C2722 1.389 . S
C2722 C2721 1.389 . S
C2722 C2723 1.387 . S
C2723 H2708 0.930 . S
C2723 C2718 1.390 . S
C2723 C2722 1.387 . S
H2724 C2736 0.930 . S
H2725 C2738 0.930 . S
H2726 C2739 0.930 . S
H2727 C2743 0.959 . S
H2728 C2743 0.959 . S
H2729 C2743 0.961 . S
H2730 C2744 0.960 . S
H2731 C2744 0.961 . S
H2732 C2744 0.959 . S
H2733 C2747 0.929 . S
H2734 C2748 0.931 . S
H2735 C2750 0.930 . S
C2736 H2724 0.930 . S
C2736 C2737 1.399 . S
C2736 C2741 1.399 . S
C2737 C2736 1.399 . S
C2737 C2738 1.376 . S
C2738 H2725 0.930 . S
C2738 C2737 1.376 . S
C2738 C2739 1.388 . S
C2739 H2726 0.930 . S
C2739 C2738 1.388 . S
C2739 C2740 1.390 . S
C2740 C2739 1.390 . S
C2740 C2741 1.394 . S
C2740 C2746 1.465 . S
C2741 C2736 1.399 . S
C2741 C2740 1.394 . S
C2741 C2742 1.516 . S
C2742 C2741 1.516 . S
C2742 C2743 1.502 . S
C2742 C2744 1.561 . S
C2742 C2745 1.526 . S
C2743 H2727 0.959 . S
C2743 H2728 0.959 . S
C2743 H2729 0.961 . S
C2743 C2742 1.502 . S
C2744 H2730 0.960 . S
C2744 H2731 0.961 . S
C2744 H2732 0.959 . S
C2744 C2742 1.561 . S
C2745 C2742 1.526 . S
C2745 C2746 1.396 . S
C2745 C2750 1.390 . S
C2746 C2740 1.465 . S
C2746 C2745 1.396 . S
C2746 C2747 1.399 . S
C2747 H2733 0.929 . S
C2747 C2746 1.399 . S
C2747 C2748 1.385 . S
C2748 H2734 0.931 . S
C2748 C2747 1.385 . S
C2748 C2749 1.389 . S
C2749 C2748 1.389 . S
C2749 C2750 1.387 . S
C2750 H2735 0.930 . S
C2750 C2745 1.390 . S
C2750 C2749 1.387 . S
H2751 C2763 0.930 . S
H2752 C2765 0.930 . S
H2753 C2766 0.930 . S
H2754 C2770 0.959 . S
H2755 C2770 0.959 . S
H2756 C2770 0.961 . S
H2757 C2771 0.960 . S
H2758 C2771 0.961 . S
H2759 C2771 0.959 . S
H2760 C2774 0.929 . S
H2761 C2775 0.931 . S
H2762 C2777 0.930 . S
C2763 H2751 0.930 . S
C2763 C2764 1.399 . S
C2763 C2768 1.399 . S
C2764 C2763 1.399 . S
C2764 C2765 1.376 . S
C2765 H2752 0.930 . S
C2765 C2764 1.376 . S
C2765 C2766 1.388 . S
C2766 H2753 0.930 . S
C2766 C2765 1.388 . S
C2766 C2767 1.390 . S
C2767 C2766 1.390 . S
C2767 C2768 1.394 . S
C2767 C2773 1.465 . S
C2768 C2763 1.399 . S
C2768 C2767 1.394 . S
C2768 C2769 1.516 . S
C2769 C2768 1.516 . S
C2769 C2770 1.502 . S
C2769 C2771 1.561 . S
C2769 C2772 1.526 . S
C2770 H2754 0.959 . S
C2770 H2755 0.959 . S
C2770 H2756 0.961 . S
C2770 C2769 1.502 . S
C2771 H2757 0.960 . S
C2771 H2758 0.961 . S
C2771 H2759 0.959 . S
C2771 C2769 1.561 . S
C2772 C2769 1.526 . S
C2772 C2773 1.396 . S
C2772 C2777 1.390 . S
C2773 C2767 1.465 . S
C2773 C2772 1.396 . S
C2773 C2774 1.399 . S
C2774 H2760 0.929 . S
C2774 C2773 1.399 . S
C2774 C2775 1.385 . S
C2775 H2761 0.931 . S
C2775 C2774 1.385 . S
C2775 C2776 1.389 . S
C2776 C2775 1.389 . S
C2776 C2777 1.387 . S
C2777 H2762 0.930 . S
C2777 C2772 1.390 . S
C2777 C2776 1.387 . S
H2778 C2790 0.930 . S
H2779 C2792 0.930 . S
H2780 C2793 0.930 . S
H2781 C2797 0.959 . S
H2782 C2797 0.959 . S
H2783 C2797 0.961 . S
H2784 C2798 0.960 . S
H2785 C2798 0.961 . S
H2786 C2798 0.959 . S
H2787 C2801 0.929 . S
H2788 C2802 0.931 . S
H2789 C2804 0.930 . S
C2790 H2778 0.930 . S
C2790 C2791 1.399 . S
C2790 C2795 1.399 . S
C2791 C2790 1.399 . S
C2791 C2792 1.376 . S
C2792 H2779 0.930 . S
C2792 C2791 1.376 . S
C2792 C2793 1.388 . S
C2793 H2780 0.930 . S
C2793 C2792 1.388 . S
C2793 C2794 1.390 . S
C2794 C2793 1.390 . S
C2794 C2795 1.394 . S
C2794 C2800 1.465 . S
C2795 C2790 1.399 . S
C2795 C2794 1.394 . S
C2795 C2796 1.516 . S
C2796 C2795 1.516 . S
C2796 C2797 1.502 . S
C2796 C2798 1.561 . S
C2796 C2799 1.526 . S
C2797 H2781 0.959 . S
C2797 H2782 0.959 . S
C2797 H2783 0.961 . S
C2797 C2796 1.502 . S
C2798 H2784 0.960 . S
C2798 H2785 0.961 . S
C2798 H2786 0.959 . S
C2798 C2796 1.561 . S
C2799 C2796 1.526 . S
C2799 C2800 1.396 . S
C2799 C2804 1.390 . S
C2800 C2794 1.465 . S
C2800 C2799 1.396 . S
C2800 C2801 1.399 . S
C2801 H2787 0.929 . S
C2801 C2800 1.399 . S
C2801 C2802 1.385 . S
C2802 H2788 0.931 . S
C2802 C2801 1.385 . S
C2802 C2803 1.389 . S
C2803 C2802 1.389 . S
C2803 C2804 1.387 . S
C2804 H2789 0.930 . S
C2804 C2799 1.390 . S
C2804 C2803 1.387 . S
H2805 C2817 0.930 . S
H2806 C2819 0.930 . S
H2807 C2820 0.930 . S
H2808 C2824 0.959 . S
H2809 C2824 0.959 . S
H2810 C2824 0.961 . S
H2811 C2825 0.960 . S
H2812 C2825 0.961 . S
H2813 C2825 0.959 . S
H2814 C2828 0.929 . S
H2815 C2829 0.931 . S
H2816 C2831 0.930 . S
C2817 H2805 0.930 . S
C2817 C2818 1.399 . S
C2817 C2822 1.399 . S
C2818 C2817 1.399 . S
C2818 C2819 1.376 . S
C2819 H2806 0.930 . S
C2819 C2818 1.376 . S
C2819 C2820 1.388 . S
C2820 H2807 0.930 . S
C2820 C2819 1.388 . S
C2820 C2821 1.390 . S
C2821 C2820 1.390 . S
C2821 C2822 1.394 . S
C2821 C2827 1.465 . S
C2822 C2817 1.399 . S
C2822 C2821 1.394 . S
C2822 C2823 1.516 1_554 S
C2823 C2822 1.516 1_556 S
C2823 C2824 1.502 . S
C2823 C2825 1.561 . S
C2823 C2826 1.526 1_556 S
C2824 H2808 0.959 . S
C2824 H2809 0.959 . S
C2824 H2810 0.961 . S
C2824 C2823 1.502 . S
C2825 H2811 0.960 . S
C2825 H2812 0.961 . S
C2825 H2813 0.959 . S
C2825 C2823 1.561 . S
C2826 C2823 1.526 1_554 S
C2826 C2827 1.396 . S
C2826 C2831 1.390 1_554 S
C2827 C2821 1.465 . S
C2827 C2826 1.396 . S
C2827 C2828 1.399 . S
C2828 H2814 0.929 . S
C2828 C2827 1.399 . S
C2828 C2829 1.385 . S
C2829 H2815 0.931 . S
C2829 C2828 1.385 . S
C2829 C2830 1.389 . S
C2830 C2829 1.389 . S
C2830 C2831 1.387 1_554 S
C2831 H2816 0.930 . S
C2831 C2826 1.390 1_556 S
C2831 C2830 1.387 1_556 S
H2832 C2844 0.930 . S
H2833 C2846 0.930 . S
H2834 C2847 0.930 . S
H2835 C2851 0.959 . S
H2836 C2851 0.959 . S
H2837 C2851 0.961 . S
H2838 C2852 0.960 . S
H2839 C2852 0.961 . S
H2840 C2852 0.959 . S
H2841 C2855 0.929 . S
H2842 C2856 0.931 . S
H2843 C2858 0.930 . S
C2844 H2832 0.930 . S
C2844 C2845 1.399 . S
C2844 C2849 1.399 . S
C2845 C2844 1.399 . S
C2845 C2846 1.376 . S
C2846 H2833 0.930 . S
C2846 C2845 1.376 . S
C2846 C2847 1.388 . S
C2847 H2834 0.930 . S
C2847 C2846 1.388 . S
C2847 C2848 1.390 . S
C2848 C2847 1.390 . S
C2848 C2849 1.394 . S
C2848 C2854 1.465 . S
C2849 C2844 1.399 . S
C2849 C2848 1.394 . S
C2849 C2850 1.516 . S
C2850 C2849 1.516 . S
C2850 C2851 1.502 . S
C2850 C2852 1.561 . S
C2850 C2853 1.526 . S
C2851 H2835 0.959 . S
C2851 H2836 0.959 . S
C2851 H2837 0.961 . S
C2851 C2850 1.502 . S
C2852 H2838 0.960 . S
C2852 H2839 0.961 . S
C2852 H2840 0.959 . S
C2852 C2850 1.561 . S
C2853 C2850 1.526 . S
C2853 C2854 1.396 . S
C2853 C2858 1.390 . S
C2854 C2848 1.465 . S
C2854 C2853 1.396 . S
C2854 C2855 1.399 . S
C2855 H2841 0.929 . S
C2855 C2854 1.399 . S
C2855 C2856 1.385 . S
C2856 H2842 0.931 . S
C2856 C2855 1.385 . S
C2856 C2857 1.389 . S
C2857 C2856 1.389 . S
C2857 C2858 1.387 . S
C2858 H2843 0.930 . S
C2858 C2853 1.390 . S
C2858 C2857 1.387 . S
H2859 C2871 0.930 . S
H2860 C2873 0.930 . S
H2861 C2874 0.930 . S
H2862 C2878 0.967 . S
H2863 C2878 0.959 . S
H2864 C2878 0.961 . S
H2865 C2879 0.960 . S
H2866 C2879 0.961 . S
H2867 C2879 0.959 . S
H2868 C2882 0.929 . S
H2869 C2883 0.931 . S
H2870 C2885 0.930 . S
C2871 H2859 0.930 . S
C2871 C2872 1.399 1_554 S
C2871 C2876 1.399 1_554 S
C2872 C2871 1.399 1_556 S
C2872 C2873 1.376 . S
C2873 H2860 0.930 . S
C2873 C2872 1.376 . S
C2873 C2874 1.388 . S
C2874 H2861 0.930 . S
C2874 C2873 1.388 . S
C2874 C2875 1.390 . S
C2875 C2874 1.390 . S
C2875 C2876 1.394 . S
C2875 C2881 1.465 . S
C2876 C2871 1.399 1_556 S
C2876 C2875 1.394 . S
C2876 C2877 1.516 1_556 S
C2877 C2876 1.516 1_554 S
C2877 C2878 1.502 . S
C2877 C2879 1.561 . S
C2877 C2880 1.526 1_554 S
C2878 H2862 0.967 . S
C2878 H2863 0.959 . S
C2878 H2864 0.961 . S
C2878 C2877 1.502 . S
C2879 H2865 0.960 . S
C2879 H2866 0.961 . S
C2879 H2867 0.959 . S
C2879 C2877 1.561 . S
C2880 C2877 1.526 1_556 S
C2880 C2881 1.396 . S
C2880 C2885 1.390 . S
C2881 C2875 1.465 . S
C2881 C2880 1.396 . S
C2881 C2882 1.399 . S
C2882 H2868 0.929 . S
C2882 C2881 1.399 . S
C2882 C2883 1.385 . S
C2883 H2869 0.931 . S
C2883 C2882 1.385 . S
C2883 C2884 1.389 . S
C2884 C2883 1.389 . S
C2884 C2885 1.387 . S
C2885 H2870 0.930 . S
C2885 C2880 1.390 . S
C2885 C2884 1.387 . S
H2886 C2898 0.930 . S
H2887 C2900 0.930 . S
H2888 C2901 0.930 . S
H2889 C2905 0.959 . S
H2890 C2905 0.959 . S
H2891 C2905 0.961 . S
H2892 C2906 0.960 . S
H2893 C2906 0.961 . S
H2894 C2906 0.959 . S
H2895 C2909 0.929 . S
H2896 C2910 0.931 . S
H2897 C2912 0.930 . S
C2898 H2886 0.930 . S
C2898 C2899 1.399 . S
C2898 C2903 1.399 . S
C2899 C2898 1.399 . S
C2899 C2900 1.376 . S
C2900 H2887 0.930 . S
C2900 C2899 1.376 . S
C2900 C2901 1.388 . S
C2901 H2888 0.930 . S
C2901 C2900 1.388 . S
C2901 C2902 1.390 . S
C2902 C2901 1.390 . S
C2902 C2903 1.394 . S
C2902 C2908 1.465 . S
C2903 C2898 1.399 . S
C2903 C2902 1.394 . S
C2903 C2904 1.516 . S
C2904 C2903 1.516 . S
C2904 C2905 1.502 . S
C2904 C2906 1.561 . S
C2904 C2907 1.526 . S
C2905 H2889 0.959 . S
C2905 H2890 0.959 . S
C2905 H2891 0.961 . S
C2905 C2904 1.502 . S
C2906 H2892 0.960 . S
C2906 H2893 0.961 . S
C2906 H2894 0.959 . S
C2906 C2904 1.561 . S
C2907 C2904 1.526 . S
C2907 C2908 1.396 . S
C2907 C2912 1.390 . S
C2908 C2902 1.465 . S
C2908 C2907 1.396 . S
C2908 C2909 1.399 . S
C2909 H2895 0.929 . S
C2909 C2908 1.399 . S
C2909 C2910 1.385 . S
C2910 H2896 0.931 . S
C2910 C2909 1.385 . S
C2910 C2911 1.389 . S
C2911 C2910 1.389 . S
C2911 C2912 1.387 . S
C2912 H2897 0.930 . S
C2912 C2907 1.390 . S
C2912 C2911 1.387 . S
H2913 C2925 0.930 . S
H2914 C2927 0.930 . S
H2915 C2928 0.930 . S
H2916 C2932 0.959 . S
H2917 C2932 0.959 . S
H2918 C2932 0.961 . S
H2919 C2933 0.960 . S
H2920 C2933 0.961 . S
H2921 C2933 0.959 . S
H2922 C2936 0.929 . S
H2923 C2937 0.931 . S
H2924 C2939 0.930 . S
C2925 H2913 0.930 . S
C2925 C2926 1.399 . S
C2925 C2930 1.399 . S
C2926 C2925 1.399 . S
C2926 C2927 1.376 . S
C2927 H2914 0.930 . S
C2927 C2926 1.376 . S
C2927 C2928 1.388 . S
C2928 H2915 0.930 . S
C2928 C2927 1.388 . S
C2928 C2929 1.390 . S
C2929 C2928 1.390 . S
C2929 C2930 1.394 . S
C2929 C2935 1.465 . S
C2930 C2925 1.399 . S
C2930 C2929 1.394 . S
C2930 C2931 1.516 . S
C2931 C2930 1.516 . S
C2931 C2932 1.502 . S
C2931 C2933 1.561 . S
C2931 C2934 1.526 . S
C2932 H2916 0.959 . S
C2932 H2917 0.959 . S
C2932 H2918 0.961 . S
C2932 C2931 1.502 . S
C2933 H2919 0.960 . S
C2933 H2920 0.961 . S
C2933 H2921 0.959 . S
C2933 C2931 1.561 . S
C2934 C2931 1.526 . S
C2934 C2935 1.396 . S
C2934 C2939 1.390 . S
C2935 C2929 1.465 . S
C2935 C2934 1.396 . S
C2935 C2936 1.399 . S
C2936 H2922 0.929 . S
C2936 C2935 1.399 . S
C2936 C2937 1.385 . S
C2937 H2923 0.931 . S
C2937 C2936 1.385 . S
C2937 C2938 1.389 . S
C2938 C2937 1.389 . S
C2938 C2939 1.387 . S
C2939 H2924 0.930 . S
C2939 C2934 1.390 . S
C2939 C2938 1.387 . S
H2940 C2952 0.930 . S
H2941 C2954 0.930 . S
H2942 C2955 0.930 . S
H2943 C2959 0.959 . S
H2944 C2959 0.959 . S
H2945 C2959 0.961 . S
H2946 C2960 0.960 . S
H2947 C2960 0.961 . S
H2948 C2960 0.959 . S
H2949 C2963 0.929 . S
H2950 C2964 0.931 . S
H2951 C2966 0.930 . S
C2952 H2940 0.930 . S
C2952 C2953 1.399 . S
C2952 C2957 1.399 . S
C2953 C2952 1.399 . S
C2953 C2954 1.376 . S
C2954 H2941 0.930 . S
C2954 C2953 1.376 . S
C2954 C2955 1.388 . S
C2955 H2942 0.930 . S
C2955 C2954 1.388 . S
C2955 C2956 1.390 . S
C2956 C2955 1.390 . S
C2956 C2957 1.394 . S
C2956 C2962 1.465 . S
C2957 C2952 1.399 . S
C2957 C2956 1.394 . S
C2957 C2958 1.516 . S
C2958 C2957 1.516 . S
C2958 C2959 1.502 . S
C2958 C2960 1.561 1_655 S
C2958 C2961 1.526 . S
C2959 H2943 0.959 . S
C2959 H2944 0.959 . S
C2959 H2945 0.961 . S
C2959 C2958 1.502 . S
C2960 H2946 0.960 . S
C2960 H2947 0.961 . S
C2960 H2948 0.959 . S
C2960 C2958 1.561 1_455 S
C2961 C2958 1.526 . S
C2961 C2962 1.396 . S
C2961 C2966 1.390 . S
C2962 C2956 1.465 . S
C2962 C2961 1.396 . S
C2962 C2963 1.399 . S
C2963 H2949 0.929 . S
C2963 C2962 1.399 . S
C2963 C2964 1.385 . S
C2964 H2950 0.931 . S
C2964 C2963 1.385 . S
C2964 C2965 1.389 . S
C2965 C2964 1.389 . S
C2965 C2966 1.387 . S
C2966 H2951 0.930 . S
C2966 C2961 1.390 . S
C2966 C2965 1.387 . S
H2967 C2979 0.930 . S
H2968 C2981 0.930 . S
H2969 C2982 0.930 . S
H2970 C2986 0.959 1_556 S
H2971 C2986 0.959 1_556 S
H2972 C2986 0.961 . S
H2973 C2987 0.960 . S
H2974 C2987 0.961 . S
H2975 C2987 0.959 . S
H2976 C2990 0.929 . S
H2977 C2991 0.931 . S
H2978 C2993 0.930 . S
C2979 H2967 0.930 . S
C2979 C2980 1.399 . S
C2979 C2984 1.399 . S
C2980 C2979 1.399 . S
C2980 C2981 1.376 . S
C2981 H2968 0.930 . S
C2981 C2980 1.376 . S
C2981 C2982 1.388 . S
C2982 H2969 0.930 . S
C2982 C2981 1.388 . S
C2982 C2983 1.390 . S
C2983 C2982 1.390 . S
C2983 C2984 1.394 . S
C2983 C2989 1.465 1_554 S
C2984 C2979 1.399 . S
C2984 C2983 1.394 . S
C2984 C2985 1.516 . S
C2985 C2984 1.516 . S
C2985 C2986 1.502 . S
C2985 C2987 1.561 . S
C2985 C2988 1.526 1_554 S
C2986 H2970 0.959 1_554 S
C2986 H2971 0.959 1_554 S
C2986 H2972 0.961 . S
C2986 C2985 1.502 . S
C2987 H2973 0.960 . S
C2987 H2974 0.961 . S
C2987 H2975 0.959 . S
C2987 C2985 1.561 . S
C2988 C2985 1.526 1_556 S
C2988 C2989 1.396 . S
C2988 C2993 1.390 . S
C2989 C2983 1.465 1_556 S
C2989 C2988 1.396 . S
C2989 C2990 1.399 . S
C2990 H2976 0.929 . S
C2990 C2989 1.399 . S
C2990 C2991 1.385 . S
C2991 H2977 0.931 . S
C2991 C2990 1.385 . S
C2991 C2992 1.389 . S
C2992 C2991 1.389 . S
C2992 C2993 1.387 . S
C2993 H2978 0.930 . S
C2993 C2988 1.390 . S
C2993 C2992 1.387 . S
H2994 C3006 0.930 . S
H2995 C3008 0.930 . S
H2996 C3009 0.930 . S
H2997 C3013 0.959 . S
H2998 C3013 0.959 . S
H2999 C3013 0.961 . S
H3000 C3014 0.960 . S
H3001 C3014 0.961 . S
H3002 C3014 0.959 . S
H3003 C3017 0.929 . S
H3004 C3018 0.931 . S
H3005 C3020 0.930 . S
C3006 H2994 0.930 . S
C3006 C3007 1.399 . S
C3006 C3011 1.399 . S
C3007 C3006 1.399 . S
C3007 C3008 1.376 . S
C3008 H2995 0.930 . S
C3008 C3007 1.376 . S
C3008 C3009 1.388 . S
C3009 H2996 0.930 . S
C3009 C3008 1.388 . S
C3009 C3010 1.390 . S
C3010 C3009 1.390 . S
C3010 C3011 1.394 . S
C3010 C3016 1.465 . S
C3011 C3006 1.399 . S
C3011 C3010 1.394 . S
C3011 C3012 1.516 . S
C3012 C3011 1.516 . S
C3012 C3013 1.502 . S
C3012 C3014 1.561 . S
C3012 C3015 1.526 . S
C3013 H2997 0.959 . S
C3013 H2998 0.959 . S
C3013 H2999 0.961 . S
C3013 C3012 1.502 . S
C3014 H3000 0.960 . S
C3014 H3001 0.961 . S
C3014 H3002 0.959 . S
C3014 C3012 1.561 . S
C3015 C3012 1.526 . S
C3015 C3016 1.396 . S
C3015 C3020 1.390 . S
C3016 C3010 1.465 . S
C3016 C3015 1.396 . S
C3016 C3017 1.399 . S
C3017 H3003 0.929 . S
C3017 C3016 1.399 . S
C3017 C3018 1.385 . S
C3018 H3004 0.931 . S
C3018 C3017 1.385 . S
C3018 C3019 1.389 . S
C3019 C3018 1.389 . S
C3019 C3020 1.387 . S
C3020 H3005 0.930 . S
C3020 C3015 1.390 . S
C3020 C3019 1.387 . S
H3021 C3033 0.930 . S
H3022 C3035 0.930 . S
H3023 C3036 0.930 . S
H3024 C3040 0.959 . S
H3025 C3040 0.959 . S
H3026 C3040 0.961 . S
H3027 C3041 0.960 . S
H3028 C3041 0.961 . S
H3029 C3041 0.959 . S
H3030 C3044 0.929 . S
H3031 C3045 0.931 . S
H3032 C3047 0.930 . S
C3033 H3021 0.930 . S
C3033 C3034 1.399 . S
C3033 C3038 1.399 . S
C3034 C3033 1.399 . S
C3034 C3035 1.376 . S
C3035 H3022 0.930 . S
C3035 C3034 1.376 . S
C3035 C3036 1.388 . S
C3036 H3023 0.930 . S
C3036 C3035 1.388 . S
C3036 C3037 1.390 . S
C3037 C3036 1.390 . S
C3037 C3038 1.394 . S
C3037 C3043 1.465 . S
C3038 C3033 1.399 . S
C3038 C3037 1.394 . S
C3038 C3039 1.516 . S
C3039 C3038 1.516 . S
C3039 C3040 1.502 . S
C3039 C3041 1.561 . S
C3039 C3042 1.526 . S
C3040 H3024 0.959 . S
C3040 H3025 0.959 . S
C3040 H3026 0.961 . S
C3040 C3039 1.502 . S
C3041 H3027 0.960 . S
C3041 H3028 0.961 . S
C3041 H3029 0.959 . S
C3041 C3039 1.561 . S
C3042 C3039 1.526 . S
C3042 C3043 1.396 . S
C3042 C3047 1.390 . S
C3043 C3037 1.465 . S
C3043 C3042 1.396 . S
C3043 C3044 1.399 . S
C3044 H3030 0.929 . S
C3044 C3043 1.399 . S
C3044 C3045 1.385 . S
C3045 H3031 0.931 . S
C3045 C3044 1.385 . S
C3045 C3046 1.389 . S
C3046 C3045 1.389 . S
C3046 C3047 1.387 . S
C3047 H3032 0.930 . S
C3047 C3042 1.390 . S
C3047 C3046 1.387 . S
H3048 C3060 0.930 . S
H3049 C3062 0.930 . S
H3050 C3063 0.930 . S
H3051 C3067 0.959 . S
H3052 C3067 0.959 . S
H3053 C3067 0.961 . S
H3054 C3068 0.960 . S
H3055 C3068 0.961 . S
H3056 C3068 0.959 . S
H3057 C3071 0.929 . S
H3058 C3072 0.931 . S
H3059 C3074 0.930 . S
C3060 H3048 0.930 . S
C3060 C3061 1.399 . S
C3060 C3065 1.399 . S
C3061 C3060 1.399 . S
C3061 C3062 1.376 . S
C3062 H3049 0.930 . S
C3062 C3061 1.376 . S
C3062 C3063 1.388 . S
C3063 H3050 0.930 . S
C3063 C3062 1.388 . S
C3063 C3064 1.390 . S
C3064 C3063 1.390 . S
C3064 C3065 1.394 . S
C3064 C3070 1.465 . S
C3065 C3060 1.399 . S
C3065 C3064 1.394 . S
C3065 C3066 1.516 . S
C3066 C3065 1.516 . S
C3066 C3067 1.502 . S
C3066 C3068 1.561 . S
C3066 C3069 1.526 . S
C3067 H3051 0.959 . S
C3067 H3052 0.959 . S
C3067 H3053 0.961 . S
C3067 C3066 1.502 . S
C3068 H3054 0.960 . S
C3068 H3055 0.961 . S
C3068 H3056 0.959 . S
C3068 C3066 1.561 . S
C3069 C3066 1.526 . S
C3069 C3070 1.396 . S
C3069 C3074 1.390 . S
C3070 C3064 1.465 . S
C3070 C3069 1.396 . S
C3070 C3071 1.399 . S
C3071 H3057 0.929 . S
C3071 C3070 1.399 . S
C3071 C3072 1.385 . S
C3072 H3058 0.931 . S
C3072 C3071 1.385 . S
C3072 C3073 1.389 . S
C3073 C3072 1.389 . S
C3073 C3074 1.387 . S
C3074 H3059 0.930 . S
C3074 C3069 1.390 . S
C3074 C3073 1.387 . S
H3075 C3087 0.930 . S
H3076 C3089 0.930 . S
H3077 C3090 0.930 . S
H3078 C3094 0.959 . S
H3079 C3094 0.959 . S
H3080 C3094 0.961 . S
H3081 C3095 0.960 . S
H3082 C3095 0.961 . S
H3083 C3095 0.959 . S
H3084 C3098 0.929 . S
H3085 C3099 0.931 . S
H3086 C3101 0.930 . S
C3087 H3075 0.930 . S
C3087 C3088 1.399 . S
C3087 C3092 1.399 . S
C3088 C3087 1.399 . S
C3088 C3089 1.376 . S
C3089 H3076 0.930 . S
C3089 C3088 1.376 . S
C3089 C3090 1.388 . S
C3090 H3077 0.930 . S
C3090 C3089 1.388 . S
C3090 C3091 1.390 . S
C3091 C3090 1.390 . S
C3091 C3092 1.394 . S
C3091 C3097 1.465 . S
C3092 C3087 1.399 . S
C3092 C3091 1.394 . S
C3092 C3093 1.516 . S
C3093 C3092 1.516 . S
C3093 C3094 1.502 . S
C3093 C3095 1.561 . S
C3093 C3096 1.526 . S
C3094 H3078 0.959 . S
C3094 H3079 0.959 . S
C3094 H3080 0.961 . S
C3094 C3093 1.502 . S
C3095 H3081 0.960 . S
C3095 H3082 0.961 . S
C3095 H3083 0.959 . S
C3095 C3093 1.561 . S
C3096 C3093 1.526 . S
C3096 C3097 1.396 . S
C3096 C3101 1.390 . S
C3097 C3091 1.465 . S
C3097 C3096 1.396 . S
C3097 C3098 1.399 . S
C3098 H3084 0.929 . S
C3098 C3097 1.399 . S
C3098 C3099 1.385 . S
C3099 H3085 0.931 . S
C3099 C3098 1.385 . S
C3099 C3100 1.389 . S
C3100 C3099 1.389 . S
C3100 C3101 1.387 . S
C3101 H3086 0.930 . S
C3101 C3096 1.390 . S
C3101 C3100 1.387 . S
H3102 C3114 0.930 . S
H3103 C3116 0.930 . S
H3104 C3117 0.930 . S
H3105 C3121 0.959 . S
H3106 C3121 0.959 . S
H3107 C3121 0.961 . S
H3108 C3122 0.960 . S
H3109 C3122 0.961 . S
H3110 C3122 0.959 . S
H3111 C3125 0.929 . S
H3112 C3126 0.931 . S
H3113 C3128 0.930 . S
C3114 H3102 0.930 . S
C3114 C3115 1.399 . S
C3114 C3119 1.399 . S
C3115 C3114 1.399 . S
C3115 C3116 1.376 . S
C3116 H3103 0.930 . S
C3116 C3115 1.376 . S
C3116 C3117 1.388 . S
C3117 H3104 0.930 . S
C3117 C3116 1.388 . S
C3117 C3118 1.390 . S
C3118 C3117 1.390 . S
C3118 C3119 1.394 . S
C3118 C3124 1.465 . S
C3119 C3114 1.399 . S
C3119 C3118 1.394 . S
C3119 C3120 1.516 . S
C3120 C3119 1.516 . S
C3120 C3121 1.502 . S
C3120 C3122 1.561 . S
C3120 C3123 1.526 . S
C3121 H3105 0.959 . S
C3121 H3106 0.959 . S
C3121 H3107 0.961 . S
C3121 C3120 1.502 . S
C3122 H3108 0.960 . S
C3122 H3109 0.961 . S
C3122 H3110 0.959 . S
C3122 C3120 1.561 . S
C3123 C3120 1.526 . S
C3123 C3124 1.396 . S
C3123 C3128 1.390 . S
C3124 C3118 1.465 . S
C3124 C3123 1.396 . S
C3124 C3125 1.399 . S
C3125 H3111 0.929 . S
C3125 C3124 1.399 . S
C3125 C3126 1.385 . S
C3126 H3112 0.931 . S
C3126 C3125 1.385 . S
C3126 C3127 1.389 . S
C3127 C3126 1.389 . S
C3127 C3128 1.387 . S
C3128 H3113 0.930 . S
C3128 C3123 1.390 . S
C3128 C3127 1.387 . S
H3129 C3141 0.930 . S
H3130 C3143 0.930 . S
H3131 C3144 0.930 . S
H3132 C3148 0.959 . S
H3133 C3148 0.959 . S
H3134 C3148 0.961 . S
H3135 C3149 0.960 . S
H3136 C3149 0.961 . S
H3137 C3149 0.959 . S
H3138 C3152 0.929 . S
H3139 C3153 0.931 . S
H3140 C3155 0.930 . S
C3141 H3129 0.930 . S
C3141 C3142 1.399 1_545 S
C3141 C3146 1.399 . S
C3142 C3141 1.399 1_565 S
C3142 C3143 1.376 . S
C3143 H3130 0.930 . S
C3143 C3142 1.376 . S
C3143 C3144 1.388 . S
C3144 H3131 0.930 . S
C3144 C3143 1.388 . S
C3144 C3145 1.390 . S
C3145 C3144 1.390 . S
C3145 C3146 1.394 1_565 S
C3145 C3151 1.465 . S
C3146 C3141 1.399 . S
C3146 C3145 1.394 1_545 S
C3146 C3147 1.516 . S
C3147 C3146 1.516 . S
C3147 C3148 1.502 . S
C3147 C3149 1.561 . S
C3147 C3150 1.526 . S
C3148 H3132 0.959 . S
C3148 H3133 0.959 . S
C3148 H3134 0.961 . S
C3148 C3147 1.502 . S
C3149 H3135 0.960 . S
C3149 H3136 0.961 . S
C3149 H3137 0.959 . S
C3149 C3147 1.561 . S
C3150 C3147 1.526 . S
C3150 C3151 1.396 1_545 S
C3150 C3155 1.390 . S
C3151 C3145 1.465 . S
C3151 C3150 1.396 1_565 S
C3151 C3152 1.399 . S
C3152 H3138 0.929 . S
C3152 C3151 1.399 . S
C3152 C3153 1.385 . S
C3153 H3139 0.931 . S
C3153 C3152 1.385 . S
C3153 C3154 1.389 1_565 S
C3154 C3153 1.389 1_545 S
C3154 C3155 1.387 . S
C3155 H3140 0.930 . S
C3155 C3150 1.390 . S
C3155 C3154 1.387 . S
H3156 C3168 0.930 . S
H3157 C3170 0.930 . S
H3158 C3171 0.930 . S
H3159 C3175 0.959 . S
H3160 C3175 0.987 . S
H3161 C3175 0.961 . S
H3162 C3176 0.960 1_455 S
H3163 C3176 0.961 . S
H3164 C3176 0.959 . S
H3165 C3179 0.929 . S
H3166 C3180 0.931 . S
H3167 C3182 0.930 . S
C3168 H3156 0.930 . S
C3168 C3169 1.399 . S
C3168 C3173 1.399 . S
C3169 C3168 1.399 . S
C3169 C3170 1.376 . S
C3170 H3157 0.930 . S
C3170 C3169 1.376 . S
C3170 C3171 1.388 . S
C3171 H3158 0.930 . S
C3171 C3170 1.388 . S
C3171 C3172 1.390 . S
C3172 C3171 1.390 . S
C3172 C3173 1.394 . S
C3172 C3178 1.465 1_455 S
C3173 C3168 1.399 . S
C3173 C3172 1.394 . S
C3173 C3174 1.516 . S
C3174 C3173 1.516 . S
C3174 C3175 1.502 . S
C3174 C3176 1.561 1_455 S
C3174 C3177 1.526 1_455 S
C3175 H3159 0.959 . S
C3175 H3160 0.987 . S
C3175 H3161 0.961 . S
C3175 C3174 1.502 . S
C3176 H3162 0.960 1_655 S
C3176 H3163 0.961 . S
C3176 H3164 0.959 . S
C3176 C3174 1.561 1_655 S
C3177 C3174 1.526 1_655 S
C3177 C3178 1.396 . S
C3177 C3182 1.390 . S
C3178 C3172 1.465 1_655 S
C3178 C3177 1.396 . S
C3178 C3179 1.399 . S
C3179 H3165 0.929 . S
C3179 C3178 1.399 . S
C3179 C3180 1.385 . S
C3180 H3166 0.931 . S
C3180 C3179 1.385 . S
C3180 C3181 1.389 . S
C3181 C3180 1.389 . S
C3181 C3182 1.387 . S
C3182 H3167 0.930 . S
C3182 C3177 1.390 . S
C3182 C3181 1.387 . S
H3183 C3195 0.930 . S
H3184 C3197 0.930 . S
H3185 C3198 0.918 1_565 S
H3186 C3202 0.959 . S
H3187 C3202 0.959 . S
H3188 C3202 0.951 1_455 S
H3189 C3203 0.960 . S
H3190 C3203 0.961 1_655 S
H3191 C3203 0.959 . S
H3192 C3206 0.929 . S
H3193 C3207 0.931 . S
H3194 C3209 0.930 . S
C3195 H3183 0.930 . S
C3195 C3196 1.399 . S
C3195 C3200 1.399 . S
C3196 C3195 1.399 . S
C3196 C3197 1.376 . S
C3197 H3184 0.930 . S
C3197 C3196 1.376 . S
C3197 C3198 1.402 . S
C3198 H3185 0.918 1_545 S
C3198 C3197 1.402 . S
C3198 C3199 1.389 1_545 S
C3199 C3198 1.389 1_565 S
C3199 C3200 1.385 1_565 S
C3199 C3205 1.474 1_455 S
C3200 C3195 1.399 . S
C3200 C3199 1.385 1_545 S
C3200 C3201 1.516 1_455 S
C3201 C3200 1.516 1_655 S
C3201 C3202 1.502 . S
C3201 C3203 1.561 1_645 S
C3201 C3204 1.526 1_545 S
C3202 H3186 0.959 . S
C3202 H3187 0.959 . S
C3202 H3188 0.951 1_655 S
C3202 C3201 1.502 . S
C3203 H3189 0.960 . S
C3203 H3190 0.961 1_455 S
C3203 H3191 0.959 . S
C3203 C3201 1.561 1_465 S
C3204 C3201 1.526 1_565 S
C3204 C3205 1.396 . S
C3204 C3209 1.390 . S
C3205 C3199 1.474 1_655 S
C3205 C3204 1.396 . S
C3205 C3206 1.399 . S
C3206 H3192 0.929 . S
C3206 C3205 1.399 . S
C3206 C3207 1.385 . S
C3207 H3193 0.931 . S
C3207 C3206 1.385 . S
C3207 C3208 1.389 . S
C3208 C3207 1.389 . S
C3208 C3209 1.387 . S
C3209 H3194 0.930 . S
C3209 C3204 1.390 . S
C3209 C3208 1.387 . S
H3210 C3222 0.930 . S
H3211 C3224 0.930 . S
H3212 C3225 0.946 . S
H3213 C3229 0.959 1_455 S
H3214 C3229 0.959 1_455 S
H3215 C3229 0.961 1_455 S
H3216 C3230 0.960 . S
H3217 C3230 0.961 . S
H3218 C3230 0.959 . S
H3219 C3233 0.929 . S
H3220 C3234 0.931 . S
H3221 C3236 0.930 . S
C3222 H3210 0.930 . S
C3222 C3223 1.399 . S
C3222 C3227 1.399 . S
C3223 C3222 1.399 . S
C3223 C3224 1.376 . S
C3224 H3211 0.930 . S
C3224 C3223 1.376 . S
C3224 C3225 1.388 . S
C3225 H3212 0.946 . S
C3225 C3224 1.388 . S
C3225 C3226 1.390 . S
C3226 C3225 1.390 . S
C3226 C3227 1.394 . S
C3226 C3232 1.465 1_556 S
C3227 C3222 1.399 . S
C3227 C3226 1.394 . S
C3227 C3228 1.516 . S
C3228 C3227 1.516 . S
C3228 C3229 1.502 . S
C3228 C3230 1.561 . S
C3228 C3231 1.526 1_556 S
C3229 H3213 0.959 1_655 S
C3229 H3214 0.959 1_655 S
C3229 H3215 0.961 1_655 S
C3229 C3228 1.502 . S
C3230 H3216 0.960 . S
C3230 H3217 0.961 . S
C3230 H3218 0.959 . S
C3230 C3228 1.561 . S
C3231 C3228 1.526 1_554 S
C3231 C3232 1.396 . S
C3231 C3236 1.390 . S
C3232 C3226 1.465 1_554 S
C3232 C3231 1.396 . S
C3232 C3233 1.399 . S
C3233 H3219 0.929 . S
C3233 C3232 1.399 . S
C3233 C3234 1.385 . S
C3234 H3220 0.931 . S
C3234 C3233 1.385 . S
C3234 C3235 1.389 . S
C3235 C3234 1.389 . S
C3235 C3236 1.387 . S
C3236 H3221 0.930 . S
C3236 C3231 1.390 . S
C3236 C3235 1.387 . S
H3237 C3249 0.930 . S
H3238 C3251 0.930 . S
H3239 C3252 0.930 . S
H3240 C3256 0.959 . S
H3241 C3256 0.959 . S
H3242 C3256 0.961 . S
H3243 C3257 0.960 . S
H3244 C3257 0.961 . S
H3245 C3257 0.959 1_455 S
H3246 C3260 0.929 . S
H3247 C3261 0.931 . S
H3248 C3263 0.930 . S
C3249 H3237 0.930 . S
C3249 C3250 1.399 . S
C3249 C3254 1.399 . S
C3250 C3249 1.399 . S
C3250 C3251 1.376 . S
C3251 H3238 0.930 . S
C3251 C3250 1.376 . S
C3251 C3252 1.388 . S
C3252 H3239 0.930 . S
C3252 C3251 1.388 . S
C3252 C3253 1.390 . S
C3253 C3252 1.390 . S
C3253 C3254 1.394 . S
C3253 C3259 1.465 . S
C3254 C3249 1.399 . S
C3254 C3253 1.394 . S
C3254 C3255 1.516 . S
C3255 C3254 1.516 . S
C3255 C3256 1.502 . S
C3255 C3257 1.561 1_455 S
C3255 C3258 1.526 . S
C3256 H3240 0.959 . S
C3256 H3241 0.959 . S
C3256 H3242 0.961 . S
C3256 C3255 1.502 . S
C3257 H3243 0.960 . S
C3257 H3244 0.961 . S
C3257 H3245 0.959 1_655 S
C3257 C3255 1.561 1_655 S
C3258 C3255 1.526 . S
C3258 C3259 1.396 . S
C3258 C3263 1.390 . S
C3259 C3253 1.465 . S
C3259 C3258 1.396 . S
C3259 C3260 1.399 . S
C3260 H3246 0.929 . S
C3260 C3259 1.399 . S
C3260 C3261 1.385 . S
C3261 H3247 0.931 . S
C3261 C3260 1.385 . S
C3261 C3262 1.389 . S
C3262 C3261 1.389 . S
C3262 C3263 1.387 . S
C3263 H3248 0.930 . S
C3263 C3258 1.390 . S
C3263 C3262 1.387 . S
C685 C385 1.085 . S
C697 C7 1.102 . S
C712 C21 0.467 . S
C724 C541 0.585 . S
C739 C35 0.790 . S
C751 C357 0.729 . S
C766 C569 1.151 . S
C778 C49 1.088 . S
C793 C399 0.544 . S
C805 C65 0.733 . S
C820 C77 1.063 . S
C832 C315 1.065 . S
C847 C427 0.836 . S
C859 C93 0.785 . S
C874 C105 0.771 . S
C886 C287 0.766 . S
C901 C499 0.893 . S
C913 C107 0.958 . S
C928 C469 0.543 . S
C940 C63 0.448 . S
C955 C79 0.592 . S
C967 C597 0.604 . S
C982 C483 0.722 . S
C994 C91 0.704 . S
C1009 C121 0.738 . S
C1021 C191 0.792 . S
C1036 C203 0.441 . S
C1048 C135 0.333 . S
C1063 C219 0.763 . S
C1075 C149 0.681 . S
C1090 C175 0.727 . S
C1102 C163 0.650 . S
C1117 C189 0.597 . S
C1129 C343 0.601 . S
C1144 C205 0.391 . S
C1156 C555 0.420 . S
C1171 C371 0.515 . S
C1183 C217 0.437 . S
C1198 C387 0.607 . S
C1210 C233 0.712 . S
C1225 C245 0.818 . S
C1237 C415 0.820 . S
C1252 C261 0.551 . S
C1264 C51 0.265 . S
C1279 C275 1.187 . S
C1291 C23 1.178 . S
C1306 C625 1.091 . S
C1318 C301 1.073 . S
C1333 C653 0.493 . S
C1345 C329 0.422 . S
C1360 C345 0.833 . S
C1372 C119 0.798 . S
C1387 C373 0.611 . S
C1399 C147 0.532 . S
C1414 C359 0.934 . S
C1426 C611 0.782 . S
C1441 C471 0.808 . S
C1453 C401 0.846 . S
C1468 C485 0.723 . S
C1480 C429 0.790 . S
C1495 C455 0.472 . S
C1507 C443 0.332 . S
C1522 C247 0.990 . S
C1534 C639 0.983 . S
C1549 C513 1.179 . S
C1561 C331 1.185 . S
C1576 C303 0.248 . S
C1588 C527 0.619 . S
C1603 C665 1.367 . S
C1615 C441 1.354 . S
C1630 C413 0.596 . S
C1642 C637 0.464 . S
C1657 C133 1.328 . S
C1669 C553 1.319 . S
C1684 C161 0.343 . S
C1696 C581 0.290 . S
C1711 C177 1.063 . S
C1723 C583 1.089 . S
C1738 C273 0.647 . S
C1750 C539 0.667 . S
C1765 C259 0.647 . S
C1777 C567 0.623 . S
C1792 C317 0.668 . S
C1804 C595 0.579 . S
C1819 C289 0.493 . S
C1831 C497 0.564 . S
C1846 C623 0.585 . S
C1858 C525 0.586 . S
C1873 C651 0.556 . S
C1885 C511 0.559 . S
C1900 C667 0.321 . S
C1912 C457 0.505 . S
C1927 C609 0.340 . S
C1939 C37 0.295 . S
C1954 C231 0.760 . S
C1966 C9 0.639 . S
C1981 C8 1.864 . S
C1993 C647 2.022 . S
C2008 C22 1.640 . S
C2020 C666 1.673 . S
C2035 C36 1.477 . S
C2047 C619 1.362 1_565 S
C2062 C50 2.045 . S
C2074 C638 1.960 . S
C2089 C59 1.699 . S
C2101 C134 1.531 . S
C2116 C78 1.474 . S
C2128 C148 1.269 . S
C2143 C87 1.701 . S
C2155 C162 1.748 . S
C2170 C106 1.895 . S
C2182 C120 2.072 . S
C2197 C101 2.095 . S
C2209 C549 1.903 . S
C2224 C64 1.736 . S
C2236 C372 1.720 . S
C2251 C73 1.364 . S
C2263 C577 1.422 1_554 S
C2278 C92 1.940 . S
C2290 C344 1.916 . S
C2305 C115 1.020 . S
C2317 C325 1.120 . S
C2332 C129 2.343 . S
C2344 C437 2.307 . S
C2359 C143 1.415 . S
C2371 C297 1.340 . S
C2386 C409 1.422 . S
C2398 C157 1.455 . S
C2413 C176 2.120 . S
C2425 C274 2.144 . S
C2440 C190 1.507 . S
C2452 C232 1.494 . S
C2467 C269 1.788 . S
C2479 C199 1.802 . S
C2494 C610 2.307 . S
C2506 C218 2.281 . S
C2521 C213 1.991 . S
C2533 C227 2.031 . S
C2548 C512 2.104 . S
C2560 C246 2.089 . S
C2575 C171 1.612 . S
C2587 C255 1.750 . S
C2602 C563 1.366 1_545 S
C2614 C288 1.486 . S
C2629 C582 2.007 . S
C2641 C302 2.026 . S
C2656 C316 1.940 . S
C2668 C535 1.962 . S
C2683 C554 1.698 . S
C2695 C330 1.675 . S
C2710 C339 1.689 . S
C2722 C414 1.771 . S
C2737 C428 2.078 . S
C2749 C358 1.932 . S
C2764 C367 1.697 . S
C2776 C442 1.486 . S
C2791 C400 1.401 . S
C2803 C386 1.474 . S
C2818 C381 1.290 . S
C2830 C633 1.416 1_554 S
C2845 C661 1.970 . S
C2857 C353 2.095 . S
C2872 C395 1.413 . S
C2884 C45 1.268 . S
C2899 C17 1.082 . S
C2911 C423 1.125 . S
C2926 C526 1.389 . S
C2938 C456 1.454 . S
C2953 C498 2.337 . S
C2965 C470 2.290 . S
C2980 C241 1.701 . S
C2992 C521 1.704 . S
C3007 C484 1.503 . S
C3019 C596 1.457 . S
C3034 C493 1.700 . S
C3046 C479 1.854 . S
C3061 C204 1.429 . S
C3073 C260 1.396 . S
C3088 C451 1.807 . S
C3100 C507 1.756 . S
C3115 C652 1.486 . S
C3127 C540 1.516 . S
C3142 C568 1.887 . S
C3154 C624 1.857 . S
C3169 C3 2.106 . S
C3181 C311 2.067 . S
C3196 C283 1.947 . S
C3208 C31 1.922 . S
C3223 C465 2.002 . S
C3235 C591 2.032 . S
C3250 C185 1.813 . S
C3262 C605 1.785 . S
