# Generated by pormake.
# Topology acs-a, (4)-cn, num edge types: 1
# Building blocks:
#     Node 0, Type 0, BuildingBlock: KUFVIS_clean_sbu_0, # of connection points: 4
#     Node 1, Type 0, BuildingBlock: KUFVIS_clean_sbu_0, # of connection points: 4
#     Node 2, Type 0, BuildingBlock: KUFVIS_clean_sbu_0, # of connection points: 4
#     Node 3, Type 0, BuildingBlock: KUFVIS_clean_sbu_0, # of connection points: 4
#     Node 4, Type 0, BuildingBlock: KUFVIS_clean_sbu_0, # of connection points: 4
#     Node 5, Type 0, BuildingBlock: KUFVIS_clean_sbu_0, # of connection points: 4
#     Node 6, Type 0, BuildingBlock: KUFVIS_clean_sbu_0, # of connection points: 4
#     Node 7, Type 0, BuildingBlock: KUFVIS_clean_sbu_0, # of connection points: 4
#     Node 8, Type 0, BuildingBlock: KUFVIS_clean_sbu_0, # of connection points: 4
#     Node 9, Type 0, BuildingBlock: KUFVIS_clean_sbu_0, # of connection points: 4
#     Node 10, Type 0, BuildingBlock: KUFVIS_clean_sbu_0, # of connection points: 4
#     Node 11, Type 0, BuildingBlock: KUFVIS_clean_sbu_0, # of connection points: 4
#     Edge 12, Type (0, 0), BuildingBlock: TEMPAE_clean_linker_10, # of connection points: 2
#     Edge 13, Type (0, 0), BuildingBlock: TEMPAE_clean_linker_10, # of connection points: 2
#     Edge 14, Type (0, 0), BuildingBlock: TEMPAE_clean_linker_10, # of connection points: 2
#     Edge 15, Type (0, 0), BuildingBlock: TEMPAE_clean_linker_10, # of connection points: 2
#     Edge 16, Type (0, 0), BuildingBlock: TEMPAE_clean_linker_10, # of connection points: 2
#     Edge 17, Type (0, 0), BuildingBlock: TEMPAE_clean_linker_10, # of connection points: 2
#     Edge 18, Type (0, 0), BuildingBlock: TEMPAE_clean_linker_10, # of connection points: 2
#     Edge 19, Type (0, 0), BuildingBlock: TEMPAE_clean_linker_10, # of connection points: 2
#     Edge 20, Type (0, 0), BuildingBlock: TEMPAE_clean_linker_10, # of connection points: 2
#     Edge 21, Type (0, 0), BuildingBlock: TEMPAE_clean_linker_10, # of connection points: 2
#     Edge 22, Type (0, 0), BuildingBlock: TEMPAE_clean_linker_10, # of connection points: 2
#     Edge 23, Type (0, 0), BuildingBlock: TEMPAE_clean_linker_10, # of connection points: 2
#     Edge 24, Type (0, 0), BuildingBlock: TEMPAE_clean_linker_10, # of connection points: 2
#     Edge 25, Type (0, 0), BuildingBlock: TEMPAE_clean_linker_10, # of connection points: 2
#     Edge 26, Type (0, 0), BuildingBlock: TEMPAE_clean_linker_10, # of connection points: 2
#     Edge 27, Type (0, 0), BuildingBlock: TEMPAE_clean_linker_10, # of connection points: 2
#     Edge 28, Type (0, 0), BuildingBlock: TEMPAE_clean_linker_10, # of connection points: 2
#     Edge 29, Type (0, 0), BuildingBlock: TEMPAE_clean_linker_10, # of connection points: 2
#     Edge 30, Type (0, 0), BuildingBlock: TEMPAE_clean_linker_10, # of connection points: 2
#     Edge 31, Type (0, 0), BuildingBlock: TEMPAE_clean_linker_10, # of connection points: 2
#     Edge 32, Type (0, 0), BuildingBlock: TEMPAE_clean_linker_10, # of connection points: 2
#     Edge 33, Type (0, 0), BuildingBlock: TEMPAE_clean_linker_10, # of connection points: 2
#     Edge 34, Type (0, 0), BuildingBlock: TEMPAE_clean_linker_10, # of connection points: 2
#     Edge 35, Type (0, 0), BuildingBlock: TEMPAE_clean_linker_10, # of connection points: 2
# Relax obj value: 0.495
# Max RMSD: 0.250
# Mean RMSD: 0.225
data_MOF--net-acs-a--node1-KUFVIS_clean_sbu_0--edge1-TEMPAE_clean_linker_10
_symmetry_space_group_name_H-M    P1
_symmetry_Int_Tables_number       1
_symmetry_cell_setting            triclinic
loop_
_symmetry_equiv_pos_as_xyz
'x, y, z'
_cell_length_a     48.010852
_cell_length_b     48.01785
_cell_length_c     40.138979
_cell_angle_alpha  90.012189
_cell_angle_beta   89.959551
_cell_angle_gamma 113.18304
loop_
_atom_site_label
_atom_site_type_symbol
_atom_site_fract_x
_atom_site_fract_y
_atom_site_fract_z
_atom_type_partial_charge
Mn0 Mn 0.56912 0.15108 0.07999 0.0
Mn1 Mn 0.51218 0.1469 0.1318 0.0
C2 C 0.54625 0.18517 0.07536 0.0
C3 C 0.62083 0.17072 0.06733 0.0
C4 C 0.50357 0.10447 0.07336 0.0
O5 O 0.57423 0.12593 0.1183 0.0
O6 O 0.5351 0.12396 0.15089 0.0
C7 C 0.54833 0.18115 0.18919 0.0
N8 N 0.52723 0.17772 0.16512 0.0
C9 C 0.51927 0.22136 0.18484 0.0
C10 C 0.54079 0.22525 0.20993 0.0
C11 C 0.55541 0.20508 0.21207 0.0
C12 C 0.51293 0.19692 0.16293 0.0
H13 H 0.55966 0.16574 0.19098 0.0
C14 C 0.55808 0.1175 0.14458 0.0
O15 O 0.60236 0.14572 0.05368 0.0
O16 O 0.60948 0.18341 0.08883 0.0
N17 N 0.48893 0.16883 0.11636 0.0
C18 C 0.47028 0.16314 0.08939 0.0
C19 C 0.45506 0.1822 0.08269 0.0
C20 C 0.459 0.20676 0.10387 0.0
C21 C 0.47817 0.21205 0.13158 0.0
C22 C 0.49273 0.19229 0.13702 0.0
H23 H 0.46729 0.14437 0.07294 0.0
O24 O 0.55995 0.17952 0.04995 0.0
O25 O 0.54575 0.17008 0.10235 0.0
O26 O 0.53118 0.11519 0.06365 0.0
O27 O 0.49429 0.11491 0.09832 0.0
C28 C 0.48379 0.23647 0.15368 0.0
C29 C 0.5043 0.2411 0.18031 0.0
H30 H 0.54646 0.24381 0.22749 0.0
H31 H 0.57212 0.20799 0.2313 0.0
H32 H 0.44039 0.17804 0.06118 0.0
H33 H 0.44738 0.22154 0.09849 0.0
H34 H 0.47266 0.25198 0.15025 0.0
H35 H 0.50873 0.26019 0.19687 0.0
Mn36 Mn 0.37485 0.54103 0.57769 0.0
Mn37 Mn 0.32629 0.48018 0.61906 0.0
C38 C 0.32359 0.52425 0.56822 0.0
C39 C 0.40159 0.5929 0.57325 0.0
C40 C 0.36681 0.47608 0.56305 0.0
O41 O 0.39941 0.53793 0.61734 0.0
O42 O 0.36455 0.49854 0.64523 0.0
C43 C 0.3142 0.50889 0.67966 0.0
N44 N 0.30393 0.49223 0.65144 0.0
C45 C 0.25277 0.48666 0.66276 0.0
C46 C 0.26278 0.50359 0.69205 0.0
C47 C 0.29364 0.51476 0.70051 0.0
C48 C 0.27421 0.48104 0.64328 0.0
H49 H 0.33791 0.51767 0.68622 0.0
C50 C 0.39095 0.51987 0.64211 0.0
O51 O 0.41061 0.57429 0.55759 0.0
O52 O 0.37786 0.58148 0.5921 0.0
N53 N 0.28852 0.46189 0.59595 0.0
C54 C 0.28291 0.44781 0.56575 0.0
C55 C 0.25338 0.43669 0.55277 0.0
C56 C 0.22995 0.44021 0.57093 0.0
C57 C 0.23628 0.45482 0.60194 0.0
C58 C 0.2661 0.46525 0.61372 0.0
H59 H 0.3009 0.44538 0.55149 0.0
O60 O 0.34276 0.53944 0.54541 0.0
O61 O 0.33528 0.51819 0.59502 0.0
O62 O 0.3785 0.50425 0.55642 0.0
O63 O 0.34748 0.46475 0.58629 0.0
C64 C 0.21429 0.46004 0.62125 0.0
C65 C 0.2225 0.47585 0.65169 0.0
H66 H 0.24706 0.50851 0.70797 0.0
H67 H 0.30156 0.528 0.72297 0.0
H68 H 0.24871 0.42561 0.52873 0.0
H69 H 0.20726 0.43186 0.56069 0.0
H70 H 0.19106 0.4523 0.61272 0.0
H71 H 0.20546 0.48004 0.66611 0.0
Mn72 Mn 0.85842 0.36057 0.06359 0.0
Mn73 Mn 0.88468 0.30896 0.08926 0.0
C74 C 0.83447 0.31093 0.04614 0.0
C75 C 0.82838 0.38778 0.07052 0.0
C76 C 0.91801 0.35949 0.04044 0.0
O77 O 0.88278 0.37929 0.10506 0.0
O78 O 0.89421 0.34078 0.12446 0.0
C79 C 0.8472 0.28233 0.14878 0.0
N80 N 0.85606 0.27909 0.11727 0.0
C81 C 0.82284 0.22627 0.1164 0.0
C82 C 0.81342 0.22904 0.14885 0.0
C83 C 0.82569 0.25719 0.16512 0.0
C84 C 0.84479 0.25198 0.10161 0.0
H85 H 0.85636 0.30397 0.16131 0.0
C86 C 0.89315 0.367 0.12746 0.0
O87 O 0.85313 0.39852 0.05316 0.0
O88 O 0.82116 0.36137 0.08427 0.0
N89 N 0.87517 0.27721 0.05692 0.0
C90 C 0.88539 0.27873 0.02502 0.0
C91 C 0.87444 0.25273 0.00488 0.0
C92 C 0.853 0.2255 0.01767 0.0
C93 C 0.84273 0.22449 0.05053 0.0
C94 C 0.85468 0.25105 0.06953 0.0
H95 H 0.90157 0.29967 0.0149 0.0
O96 O 0.83293 0.33287 0.02826 0.0
O97 O 0.85157 0.31934 0.07243 0.0
O98 O 0.89666 0.36852 0.03716 0.0
O99 O 0.91655 0.33824 0.06037 0.0
C100 C 0.82065 0.19834 0.06493 0.0
C101 C 0.81078 0.19921 0.09787 0.0
H102 H 0.79649 0.20982 0.16136 0.0
H103 H 0.8184 0.25955 0.1901 0.0
H104 H 0.88235 0.25373 0.97948 0.0
H105 H 0.84439 0.20557 0.00194 0.0
H106 H 0.8109 0.17752 0.05077 0.0
H107 H 0.79359 0.17904 0.10856 0.0
Mn108 Mn 0.42958 0.84625 0.58309 0.0
Mn109 Mn 0.48882 0.84931 0.63043 0.0
C110 C 0.45224 0.8124 0.57447 0.0
C111 C 0.37738 0.82681 0.57318 0.0
C112 C 0.49446 0.89375 0.57471 0.0
O113 O 0.42616 0.87016 0.62351 0.0
O114 O 0.46626 0.87078 0.6535 0.0
C115 C 0.45596 0.81233 0.68803 0.0
N116 N 0.47584 0.8171 0.6623 0.0
C117 C 0.4854 0.77311 0.67722 0.0
C118 C 0.46517 0.76785 0.70399 0.0
C119 C 0.45036 0.78752 0.70936 0.0
C120 C 0.49036 0.7984 0.65702 0.0
H121 H 0.44448 0.82735 0.69228 0.0
C122 C 0.44306 0.87737 0.64932 0.0
O123 O 0.39526 0.85225 0.55985 0.0
O124 O 0.38961 0.81355 0.59294 0.0
N125 N 0.51171 0.82864 0.61086 0.0
C126 C 0.52883 0.83564 0.5826 0.0
C127 C 0.54389 0.81719 0.57262 0.0
C128 C 0.54131 0.79185 0.59186 0.0
C129 C 0.52365 0.78518 0.62092 0.0
C130 C 0.5092 0.8044 0.62965 0.0
H131 H 0.53072 0.85498 0.56761 0.0
O132 O 0.43748 0.81872 0.55054 0.0
O133 O 0.45399 0.82686 0.60224 0.0
O134 O 0.46659 0.8827 0.56604 0.0
O135 O 0.50483 0.88286 0.59836 0.0
C136 C 0.51938 0.75988 0.6412 0.0
C137 C 0.50031 0.75387 0.66936 0.0
H138 H 0.46061 0.7486 0.72034 0.0
H139 H 0.43461 0.78354 0.72988 0.0
H140 H 0.55736 0.82241 0.55009 0.0
H141 H 0.55278 0.77755 0.58395 0.0
H142 H 0.53042 0.74472 0.63517 0.0
H143 H 0.49688 0.73412 0.6845 0.0
Mn144 Mn 0.61922 0.45569 0.08234 0.0
Mn145 Mn 0.6673 0.51727 0.12297 0.0
C146 C 0.67055 0.47201 0.07401 0.0
C147 C 0.59215 0.40382 0.07892 0.0
C148 C 0.62905 0.52068 0.06455 0.0
O149 O 0.59387 0.45984 0.12063 0.0
O150 O 0.62778 0.50068 0.14719 0.0
C151 C 0.67536 0.48896 0.18581 0.0
N152 N 0.68741 0.50518 0.15773 0.0
C153 C 0.73753 0.5098 0.17295 0.0
C154 C 0.72567 0.49334 0.20214 0.0
C155 C 0.69445 0.48287 0.20857 0.0
C156 C 0.71748 0.51565 0.15146 0.0
H157 H 0.65135 0.4807 0.19081 0.0
C158 C 0.60152 0.47906 0.14437 0.0
O159 O 0.58376 0.42226 0.06207 0.0
O160 O 0.61546 0.41542 0.0983 0.0
N161 N 0.70623 0.53428 0.10198 0.0
C162 C 0.71366 0.54775 0.07155 0.0
C163 C 0.7438 0.55807 0.06047 0.0
C164 C 0.76595 0.55441 0.08075 0.0
C165 C 0.75776 0.54048 0.11197 0.0
C166 C 0.72741 0.53084 0.12181 0.0
H167 H 0.69664 0.55028 0.0557 0.0
O168 O 0.65169 0.45629 0.05123 0.0
O169 O 0.65858 0.47859 0.10035 0.0
O170 O 0.61649 0.49226 0.05939 0.0
O171 O 0.64834 0.5325 0.08767 0.0
C172 C 0.77839 0.53512 0.13336 0.0
C173 C 0.7683 0.51989 0.16387 0.0
H174 H 0.74026 0.48826 0.21955 0.0
H175 H 0.6851 0.47001 0.23095 0.0
H176 H 0.7499 0.56864 0.03625 0.0
H177 H 0.78911 0.56212 0.07196 0.0
H178 H 0.80199 0.54229 0.12639 0.0
H179 H 0.78429 0.51555 0.17989 0.0
Mn180 Mn 0.13808 0.63914 0.56382 0.0
Mn181 Mn 0.11143 0.68986 0.59147 0.0
C182 C 0.16241 0.68932 0.54846 0.0
C183 C 0.16783 0.61152 0.56914 0.0
C184 C 0.07876 0.64081 0.54092 0.0
O185 O 0.11322 0.61912 0.60464 0.0
O186 O 0.10153 0.65702 0.62548 0.0
C187 C 0.14795 0.71483 0.652 0.0
N188 N 0.13961 0.71894 0.62055 0.0
C189 C 0.17265 0.7718 0.62159 0.0
C190 C 0.18156 0.76814 0.65399 0.0
C191 C 0.16912 0.73953 0.66927 0.0
C192 C 0.15103 0.74649 0.60584 0.0
H193 H 0.13863 0.69284 0.66378 0.0
C194 C 0.10255 0.63072 0.62749 0.0
O195 O 0.1432 0.60151 0.55161 0.0
O196 O 0.17509 0.63742 0.58412 0.0
N197 N 0.12132 0.72252 0.56025 0.0
C198 C 0.1115 0.72191 0.52832 0.0
C199 C 0.12263 0.74849 0.50912 0.0
C200 C 0.14383 0.77537 0.52288 0.0
C201 C 0.15368 0.77544 0.55576 0.0
C202 C 0.14159 0.74832 0.57379 0.0
H203 H 0.0955 0.70124 0.51746 0.0
O204 O 0.164 0.66795 0.5296 0.0
O205 O 0.14492 0.68008 0.5744 0.0
O206 O 0.10027 0.63211 0.53718 0.0
O207 O 0.07987 0.66137 0.56166 0.0
C208 C 0.17545 0.8012 0.57112 0.0
C209 C 0.18487 0.79941 0.60404 0.0
H210 H 0.19821 0.78704 0.66722 0.0
H211 H 0.17599 0.73649 0.69422 0.0
H212 H 0.11503 0.74822 0.4837 0.0
H213 H 0.15255 0.79576 0.50788 0.0
H214 H 0.18529 0.82245 0.55773 0.0
H215 H 0.2018 0.8193 0.61548 0.0
Mn216 Mn 0.84527 0.43121 0.41705 0.0
Mn217 Mn 0.84939 0.48836 0.36567 0.0
C218 C 0.81188 0.45478 0.42282 0.0
C219 C 0.82522 0.37948 0.42961 0.0
C220 C 0.89252 0.49651 0.42335 0.0
O221 O 0.86964 0.42575 0.3781 0.0
O222 O 0.8716 0.465 0.3458 0.0
C223 C 0.81372 0.45219 0.30902 0.0
N224 N 0.8179 0.4735 0.33307 0.0
C225 C 0.77403 0.48175 0.31476 0.0
C226 C 0.76936 0.46003 0.28969 0.0
C227 C 0.78927 0.44516 0.28686 0.0
C228 C 0.79894 0.48802 0.33595 0.0
H229 H 0.8289 0.44065 0.30673 0.0
C230 C 0.87781 0.44182 0.35175 0.0
O231 O 0.85054 0.3977 0.44288 0.0
O232 O 0.81245 0.39109 0.40851 0.0
N233 N 0.82818 0.51208 0.38181 0.0
C234 C 0.83468 0.53097 0.40863 0.0
C235 C 0.81604 0.54655 0.41592 0.0
C236 C 0.79107 0.5427 0.39546 0.0
C237 C 0.78495 0.52329 0.36786 0.0
C238 C 0.80433 0.50839 0.3618 0.0
H239 H 0.85377 0.5339 0.42453 0.0
O240 O 0.8176 0.44079 0.44789 0.0
O241 O 0.82637 0.455 0.39543 0.0
O242 O 0.88165 0.46889 0.433 0.0
O243 O 0.882 0.50596 0.39858 0.0
C244 C 0.76008 0.51776 0.34647 0.0
C245 C 0.75462 0.49701 0.31994 0.0
H246 H 0.75041 0.45439 0.27269 0.0
H247 H 0.78576 0.42829 0.26766 0.0
H248 H 0.82085 0.56141 0.43732 0.0
H249 H 0.77662 0.55459 0.4013 0.0
H250 H 0.74486 0.52914 0.35039 0.0
H251 H 0.7352 0.49265 0.30393 0.0
Mn252 Mn 0.36119 0.85591 0.93927 0.0
Mn253 Mn 0.31006 0.8817 0.91083 0.0
C254 C 0.31099 0.83152 0.95465 0.0
C255 C 0.38886 0.82614 0.9342 0.0
C256 C 0.35902 0.91533 0.96108 0.0
O257 O 0.38114 0.88044 0.89823 0.0
O258 O 0.34302 0.89155 0.877 0.0
C259 C 0.28556 0.84425 0.85079 0.0
N260 N 0.28124 0.85295 0.88202 0.0
C261 C 0.22857 0.81927 0.88119 0.0
C262 C 0.23245 0.80998 0.84902 0.0
C263 C 0.26106 0.82257 0.83374 0.0
C264 C 0.25367 0.84139 0.89671 0.0
H265 H 0.30757 0.85365 0.83904 0.0
C266 C 0.36946 0.89082 0.87522 0.0
O267 O 0.39889 0.85088 0.9516 0.0
O268 O 0.36294 0.81882 0.9193 0.0
N269 N 0.27729 0.87188 0.94193 0.0
C270 C 0.27774 0.88205 0.97369 0.0
C271 C 0.25114 0.87084 0.99289 0.0
C272 C 0.22443 0.84918 0.97933 0.0
C273 C 0.22454 0.83897 0.94662 0.0
C274 C 0.25165 0.85118 0.92856 0.0
H275 H 0.29828 0.89839 0.98441 0.0
O276 O 0.33235 0.83015 0.97367 0.0
O277 O 0.32026 0.84881 0.92861 0.0
O278 O 0.368 0.89405 0.96537 0.0
O279 O 0.33832 0.91369 0.94031 0.0
C280 C 0.19899 0.81669 0.93149 0.0
C281 C 0.20097 0.80692 0.89876 0.0
H282 H 0.21372 0.79293 0.83599 0.0
H283 H 0.26427 0.8154 0.80899 0.0
H284 H 0.25127 0.87871 0.01818 0.0
H285 H 0.20404 0.84037 0.99434 0.0
H286 H 0.17776 0.80673 0.94491 0.0
H287 H 0.18125 0.78959 0.88751 0.0
Mn288 Mn 0.54282 0.38365 0.42101 0.0
Mn289 Mn 0.48254 0.33706 0.37738 0.0
C290 C 0.5274 0.33204 0.42577 0.0
C291 C 0.59448 0.41153 0.42549 0.0
C292 C 0.47727 0.37161 0.43851 0.0
O293 O 0.53851 0.41087 0.38484 0.0
O294 O 0.49913 0.37774 0.35567 0.0
C295 C 0.51232 0.33278 0.31404 0.0
N296 N 0.49566 0.3191 0.34134 0.0
C297 C 0.49181 0.27007 0.32273 0.0
C298 C 0.50876 0.28361 0.29434 0.0
C299 C 0.51907 0.31511 0.29 0.0
C300 C 0.48535 0.28877 0.34559 0.0
H301 H 0.52044 0.357 0.31063 0.0
C302 C 0.52014 0.40411 0.36033 0.0
O303 O 0.57551 0.41833 0.44342 0.0
O304 O 0.58351 0.38928 0.40463 0.0
N305 N 0.46562 0.29708 0.39585 0.0
C306 C 0.45161 0.28791 0.42578 0.0
C307 C 0.44137 0.25724 0.43483 0.0
C308 C 0.44563 0.23636 0.41304 0.0
C309 C 0.4601 0.24633 0.38236 0.0
C310 C 0.46966 0.27714 0.37459 0.0
H311 H 0.44859 0.30393 0.44278 0.0
O312 O 0.54264 0.34979 0.44962 0.0
O313 O 0.5209 0.34519 0.40041 0.0
O314 O 0.50553 0.38413 0.4446 0.0
O315 O 0.46626 0.3538 0.41392 0.0
C316 C 0.46603 0.22704 0.35954 0.0
C317 C 0.48179 0.23888 0.3297 0.0
H318 H 0.51433 0.27011 0.27593 0.0
H319 H 0.5323 0.32576 0.26824 0.0
H320 H 0.43039 0.24975 0.45864 0.0
H321 H 0.43797 0.21278 0.42026 0.0
H322 H 0.45891 0.20312 0.36489 0.0
H323 H 0.48658 0.22389 0.31258 0.0
Mn324 Mn 0.15249 0.56616 0.91476 0.0
Mn325 Mn 0.14796 0.50874 0.86356 0.0
C326 C 0.18682 0.54354 0.91929 0.0
C327 C 0.17179 0.61783 0.92727 0.0
C328 C 0.10591 0.50069 0.92231 0.0
O329 O 0.12707 0.57089 0.87649 0.0
O330 O 0.12488 0.53148 0.84426 0.0
C331 C 0.18175 0.54416 0.80549 0.0
N332 N 0.17854 0.5234 0.82991 0.0
C333 C 0.22211 0.5153 0.81017 0.0
C334 C 0.22577 0.53646 0.78472 0.0
C335 C 0.20552 0.55098 0.78241 0.0
C336 C 0.1978 0.50918 0.83224 0.0
H337 H 0.16628 0.55542 0.80358 0.0
C338 C 0.11852 0.55455 0.85037 0.0
O339 O 0.14689 0.59923 0.94099 0.0
O340 O 0.18462 0.60665 0.90572 0.0
N341 N 0.17004 0.48572 0.87924 0.0
C342 C 0.16461 0.46748 0.90655 0.0
C343 C 0.18383 0.45247 0.91347 0.0
C344 C 0.20828 0.45622 0.89217 0.0
C345 C 0.21331 0.47497 0.86412 0.0
C346 C 0.19339 0.48933 0.85846 0.0
H347 H 0.14595 0.46467 0.9231 0.0
O348 O 0.18124 0.55732 0.94467 0.0
O349 O 0.17145 0.54273 0.89242 0.0
O350 O 0.11684 0.52837 0.93163 0.0
O351 O 0.11609 0.49111 0.89737 0.0
C352 C 0.23762 0.48041 0.8419 0.0
C353 C 0.24199 0.50051 0.81491 0.0
H354 H 0.24421 0.54194 0.76701 0.0
H355 H 0.20825 0.56742 0.76292 0.0
H356 H 0.17987 0.43812 0.93524 0.0
H357 H 0.22318 0.44477 0.89773 0.0
H358 H 0.25327 0.46947 0.84553 0.0
H359 H 0.261 0.5048 0.79824 0.0
Mn360 Mn 0.63599 0.14206 0.43254 0.0
Mn361 Mn 0.6878 0.11491 0.40996 0.0
C362 C 0.68521 0.16585 0.45136 0.0
C363 C 0.60947 0.17249 0.42365 0.0
C364 C 0.63587 0.08253 0.45756 0.0
O365 O 0.61818 0.11729 0.39108 0.0
O366 O 0.65683 0.10502 0.37382 0.0
C367 C 0.71604 0.15139 0.35032 0.0
N368 N 0.71846 0.14296 0.38224 0.0
C369 C 0.77135 0.17587 0.38416 0.0
C370 C 0.76943 0.18484 0.3513 0.0
C371 C 0.74166 0.17251 0.3343 0.0
C372 C 0.7452 0.15429 0.39863 0.0
H373 H 0.69469 0.14217 0.33722 0.0
C374 C 0.6308 0.10628 0.36967 0.0
O375 O 0.59802 0.14792 0.4412 0.0
O376 O 0.63616 0.17926 0.41077 0.0
N377 N 0.71876 0.1247 0.44327 0.0
C378 C 0.7164 0.11494 0.47541 0.0
C379 C 0.74193 0.126 0.49623 0.0
C380 C 0.76955 0.14709 0.48386 0.0
C381 C 0.77141 0.1569 0.45073 0.0
C382 C 0.74529 0.14485 0.43105 0.0
H383 H 0.69515 0.09903 0.4852 0.0
O384 O 0.6629 0.16777 0.46827 0.0
O385 O 0.67734 0.14844 0.42526 0.0
O386 O 0.62693 0.10403 0.45974 0.0
O387 O 0.65768 0.08364 0.43865 0.0
C388 C 0.798 0.17861 0.43667 0.0
C389 C 0.79799 0.18802 0.40339 0.0
H390 H 0.78903 0.20147 0.33903 0.0
H391 H 0.73996 0.17945 0.309 0.0
H392 H 0.74027 0.11845 0.52184 0.0
H393 H 0.78911 0.15579 0.5001 0.0
H394 H 0.81851 0.18841 0.45134 0.0
H395 H 0.81849 0.20493 0.39296 0.0
Mn396 Mn 0.45828 0.61805 0.91651 0.0
Mn397 Mn 0.52074 0.66855 0.87955 0.0
C398 C 0.47365 0.66887 0.92779 0.0
C399 C 0.40629 0.59057 0.91701 0.0
C400 C 0.52265 0.62735 0.93587 0.0
O401 O 0.46462 0.59467 0.87743 0.0
O402 O 0.50486 0.63068 0.85239 0.0
C403 C 0.49437 0.68065 0.81727 0.0
N404 N 0.50973 0.69087 0.84628 0.0
C405 C 0.51481 0.74185 0.83485 0.0
C406 C 0.49924 0.7319 0.80474 0.0
C407 C 0.48897 0.70116 0.79594 0.0
C408 C 0.52 0.72046 0.85483 0.0
H409 H 0.48624 0.65701 0.81047 0.0
C410 C 0.48394 0.60386 0.85381 0.0
O411 O 0.42413 0.58148 0.93404 0.0
O412 O 0.41862 0.61469 0.89897 0.0
N413 N 0.53706 0.70603 0.90351 0.0
C414 C 0.54956 0.71146 0.93453 0.0
C415 C 0.55951 0.74081 0.9479 0.0
C416 C 0.55649 0.76423 0.92927 0.0
C417 C 0.54355 0.75808 0.8974 0.0
C418 C 0.53424 0.72845 0.88527 0.0
H419 H 0.5516 0.69347 0.94912 0.0
O420 O 0.45707 0.64881 0.94907 0.0
O421 O 0.48141 0.65833 0.90112 0.0
O422 O 0.49415 0.61477 0.94047 0.0
O423 O 0.53491 0.64738 0.91353 0.0
C424 C 0.53886 0.78004 0.87755 0.0
C425 C 0.52459 0.77196 0.84625 0.0
H426 H 0.49467 0.74757 0.78843 0.0
H427 H 0.47676 0.69328 0.77286 0.0
H428 H 0.56931 0.74533 0.97259 0.0
H429 H 0.56391 0.78676 0.93981 0.0
H430 H 0.5458 0.80313 0.88631 0.0
H431 H 0.52073 0.78895 0.83143 0.0
C432 C 0.62107 0.07747 0.31573 0.0
C433 C 0.61657 0.09885 0.33644 0.0
C434 C 0.61037 0.07323 0.28272 0.0
C435 C 0.59612 0.09179 0.26991 0.0
C436 C 0.59103 0.11296 0.29103 0.0
C437 C 0.60082 0.11581 0.32413 0.0
C438 C 0.61516 0.04962 0.26138 0.0
C439 C 0.57657 0.13377 0.27827 0.0
C440 C 0.59976 0.11655 0.18033 0.0
C441 C 0.56898 0.10393 0.17188 0.0
C442 C 0.60956 0.11071 0.21146 0.0
C443 C 0.58813 0.09103 0.23406 0.0
C444 C 0.55769 0.07539 0.22386 0.0
C445 C 0.5483 0.08255 0.1931 0.0
C446 C 0.64212 0.12831 0.22149 0.0
C447 C 0.5345 0.05313 0.24658 0.0
H448 H 0.63321 0.06429 0.32522 0.0
H449 H 0.59761 0.13266 0.33989 0.0
H450 H 0.59493 0.03744 0.24576 0.0
H451 H 0.63462 0.06078 0.2444 0.0
H452 H 0.62009 0.03284 0.27672 0.0
H453 H 0.57472 0.1493 0.29786 0.0
H454 H 0.59011 0.14764 0.25731 0.0
H455 H 0.55353 0.12029 0.26862 0.0
H456 H 0.61573 0.13325 0.164 0.0
H457 H 0.52451 0.07259 0.18639 0.0
H458 H 0.65171 0.11324 0.23342 0.0
H459 H 0.64312 0.14584 0.24002 0.0
H460 H 0.65659 0.13974 0.19989 0.0
H461 H 0.5443 0.03884 0.25988 0.0
H462 H 0.51412 0.03821 0.2326 0.0
H463 H 0.52724 0.06566 0.2656 0.0
C464 C 0.42774 0.51299 0.68193 0.0
C465 C 0.40993 0.52852 0.67182 0.0
C466 C 0.44515 0.52159 0.71121 0.0
C467 C 0.44374 0.54558 0.73079 0.0
C468 C 0.42572 0.56126 0.72024 0.0
C469 C 0.40929 0.55267 0.69067 0.0
C470 C 0.46464 0.5049 0.72138 0.0
C471 C 0.42319 0.58672 0.74051 0.0
C472 C 0.45382 0.55626 0.82306 0.0
C473 C 0.47911 0.58392 0.82433 0.0
C474 C 0.4438 0.54123 0.79275 0.0
C475 C 0.45971 0.55402 0.76316 0.0
C476 C 0.48751 0.57955 0.76497 0.0
C477 C 0.49687 0.59435 0.79559 0.0
C478 C 0.41408 0.51396 0.79199 0.0
C479 C 0.50558 0.59335 0.73405 0.0
H480 H 0.42807 0.49431 0.66699 0.0
H481 H 0.39528 0.56444 0.68253 0.0
H482 H 0.48783 0.52119 0.72775 0.0
H483 H 0.45503 0.4912 0.74398 0.0
H484 H 0.4662 0.48955 0.70142 0.0
H485 H 0.40798 0.59632 0.72874 0.0
H486 H 0.41429 0.57839 0.76572 0.0
H487 H 0.44587 0.60523 0.74368 0.0
H488 H 0.44027 0.54754 0.84524 0.0
H489 H 0.51686 0.61532 0.79636 0.0
H490 H 0.41508 0.49659 0.77438 0.0
H491 H 0.39593 0.52107 0.78332 0.0
H492 H 0.4077 0.5035 0.81702 0.0
H493 H 0.52943 0.60808 0.74017 0.0
H494 H 0.49522 0.60742 0.72127 0.0
H495 H 0.50542 0.57553 0.71636 0.0
C496 C 0.88273 0.39802 0.17132 0.0
C497 C 0.8998 0.38184 0.16046 0.0
C498 C 0.88457 0.4082 0.20423 0.0
C499 C 0.90484 0.40308 0.22664 0.0
C500 C 0.92357 0.38844 0.21529 0.0
C501 C 0.92034 0.37735 0.18245 0.0
C502 C 0.86359 0.42304 0.2154 0.0
C503 C 0.94629 0.38363 0.23805 0.0
C504 C 0.91272 0.45129 0.30315 0.0
C505 C 0.89097 0.43076 0.32416 0.0
C506 C 0.92017 0.44177 0.27258 0.0
C507 C 0.90444 0.41136 0.26229 0.0
C508 C 0.88405 0.39013 0.28455 0.0
C509 C 0.87795 0.40005 0.31552 0.0
C510 C 0.94309 0.46475 0.25024 0.0
C511 C 0.86623 0.35766 0.27434 0.0
H512 H 0.8665 0.40121 0.15459 0.0
H513 H 0.9336 0.36489 0.17409 0.0
H514 H 0.84881 0.40967 0.23589 0.0
H515 H 0.8769 0.44604 0.22524 0.0
H516 H 0.84895 0.42501 0.19489 0.0
H517 H 0.96301 0.37758 0.22391 0.0
H518 H 0.95862 0.4043 0.25297 0.0
H519 H 0.93432 0.36498 0.25571 0.0
H520 H 0.92295 0.47504 0.30998 0.0
H521 H 0.86091 0.38422 0.33166 0.0
H522 H 0.93114 0.47199 0.23058 0.0
H523 H 0.95761 0.45476 0.2377 0.0
H524 H 0.95776 0.48518 0.26434 0.0
H525 H 0.84947 0.35698 0.25497 0.0
H526 H 0.85385 0.34336 0.29565 0.0
H527 H 0.88135 0.34765 0.26335 0.0
C528 C 0.40124 0.88059 0.83212 0.0
C529 C 0.38532 0.89794 0.84284 0.0
C530 C 0.41187 0.88265 0.79936 0.0
C531 C 0.40745 0.9034 0.77706 0.0
C532 C 0.39332 0.92257 0.78842 0.0
C533 C 0.38178 0.91914 0.82106 0.0
C534 C 0.42612 0.8612 0.78812 0.0
C535 C 0.38938 0.94585 0.76581 0.0
C536 C 0.45434 0.91086 0.69933 0.0
C537 C 0.43305 0.88993 0.67824 0.0
C538 C 0.44566 0.91799 0.73053 0.0
C539 C 0.41533 0.90274 0.74133 0.0
C540 C 0.39343 0.88299 0.71922 0.0
C541 C 0.40251 0.87724 0.68765 0.0
C542 C 0.46936 0.94022 0.75278 0.0
C543 C 0.36101 0.86562 0.72999 0.0
H544 H 0.40371 0.86391 0.84875 0.0
H545 H 0.36956 0.93265 0.82936 0.0
H546 H 0.41231 0.8464 0.7679 0.0
H547 H 0.44907 0.87409 0.77789 0.0
H548 H 0.42805 0.84658 0.80869 0.0
H549 H 0.38341 0.9626 0.77999 0.0
H550 H 0.41041 0.95809 0.7514 0.0
H551 H 0.371 0.9344 0.74768 0.0
H552 H 0.47796 0.92081 0.69192 0.0
H553 H 0.38611 0.8608 0.67146 0.0
H554 H 0.47644 0.92771 0.77195 0.0
H555 H 0.46009 0.95503 0.76594 0.0
H556 H 0.48978 0.95464 0.73849 0.0
H557 H 0.36031 0.84899 0.74952 0.0
H558 H 0.34631 0.85317 0.70899 0.0
H559 H 0.35143 0.88111 0.74097 0.0
C560 C 0.50439 0.42583 0.31068 0.0
C561 C 0.52709 0.42596 0.33268 0.0
C562 C 0.512 0.44091 0.27995 0.0
C563 C 0.54286 0.45485 0.2706 0.0
C564 C 0.56576 0.45737 0.29404 0.0
C565 C 0.55751 0.44339 0.32512 0.0
C566 C 0.48704 0.43979 0.25651 0.0
C567 C 0.599 0.47173 0.28506 0.0
C568 C 0.56645 0.44305 0.18414 0.0
C569 C 0.58085 0.47294 0.17297 0.0
C570 C 0.55229 0.43669 0.21527 0.0
C571 C 0.55136 0.4608 0.23501 0.0
C572 C 0.56306 0.4907 0.22223 0.0
C573 C 0.57852 0.49659 0.19163 0.0
C574 C 0.5409 0.40452 0.22819 0.0
C575 C 0.56097 0.51677 0.2415 0.0
H576 H 0.4808 0.4128 0.31677 0.0
H577 H 0.57514 0.4436 0.34213 0.0
H578 H 0.4938 0.46107 0.24189 0.0
H579 H 0.48228 0.4208 0.23872 0.0
H580 H 0.46578 0.43611 0.27025 0.0
H581 H 0.6139 0.47306 0.30669 0.0
H582 H 0.60396 0.45828 0.26515 0.0
H583 H 0.60489 0.49492 0.27527 0.0
H584 H 0.56845 0.4248 0.16976 0.0
H585 H 0.58944 0.51971 0.18275 0.0
H586 H 0.51678 0.39666 0.2356 0.0
H587 H 0.55396 0.40357 0.25067 0.0
H588 H 0.54302 0.38845 0.20943 0.0
H589 H 0.54078 0.50923 0.25801 0.0
H590 H 0.55995 0.53449 0.22434 0.0
H591 H 0.58148 0.52732 0.25717 0.0
C592 C 0.11291 0.59905 0.67058 0.0
C593 C 0.09555 0.61499 0.65997 0.0
C594 C 0.11092 0.58838 0.7033 0.0
C595 C 0.09019 0.59274 0.72573 0.0
C596 C 0.07107 0.60698 0.71453 0.0
C597 C 0.07447 0.6186 0.68192 0.0
C598 C 0.13232 0.574 0.71433 0.0
C599 C 0.04783 0.61093 0.73723 0.0
C600 C 0.08334 0.54448 0.80196 0.0
C601 C 0.10478 0.56526 0.82303 0.0
C602 C 0.07559 0.55385 0.77147 0.0
C603 C 0.09071 0.58438 0.76133 0.0
C604 C 0.11068 0.60583 0.78369 0.0
C605 C 0.11708 0.59604 0.81457 0.0
C606 C 0.05305 0.53061 0.74904 0.0
C607 C 0.12779 0.63848 0.77367 0.0
H608 H 0.12953 0.59654 0.65387 0.0
H609 H 0.06097 0.63086 0.67374 0.0
H610 H 0.14689 0.58743 0.73491 0.0
H611 H 0.11935 0.55085 0.724 0.0
H612 H 0.14718 0.57248 0.69379 0.0
H613 H 0.03056 0.61601 0.72299 0.0
H614 H 0.03621 0.59026 0.75244 0.0
H615 H 0.05923 0.62999 0.75461 0.0
H616 H 0.07364 0.52068 0.80865 0.0
H617 H 0.13385 0.6121 0.83075 0.0
H618 H 0.06532 0.52378 0.72936 0.0
H619 H 0.0382 0.54021 0.73655 0.0
H620 H 0.0387 0.51 0.76307 0.0
H621 H 0.14458 0.63972 0.75408 0.0
H622 H 0.14003 0.65283 0.79499 0.0
H623 H 0.11218 0.64806 0.76302 0.0
C624 C 0.48922 0.06437 0.02877 0.0
C625 C 0.48075 0.07847 0.05523 0.0
C626 C 0.46776 0.03901 0.01263 0.0
C627 C 0.43712 0.02744 0.02322 0.0
C628 C 0.42827 0.04204 0.04924 0.0
C629 C 0.45011 0.06733 0.06487 0.0
C630 C 0.47803 0.02407 0.98483 0.0
C631 C 0.39586 0.0304 0.06131 0.0
C632 C 0.3777 0.97186 0.96621 0.0
C633 C 0.37553 0.94398 0.97927 0.0
C634 C 0.3973 -0.00068 0.98055 0.0
C635 C 0.41482 0.9988 0.00875 0.0
C636 C 0.41159 0.97072 0.02293 0.0
C637 C 0.39209 0.94371 0.00797 0.0
C638 C 0.40014 0.02885 0.96476 0.0
C639 C 0.42947 0.96915 0.05332 0.0
H640 H 0.51272 0.07281 0.02096 0.0
H641 H 0.44311 0.0781 0.08508 0.0
H642 H 0.47516 0.0009 0.9925 0.0
H643 H 0.46384 0.02179 0.96237 0.0
H644 H 0.50215 0.03698 0.97804 0.0
H645 H 0.39225 0.04552 0.08025 0.0
H646 H 0.38028 0.02803 0.04011 0.0
H647 H 0.38953 0.00757 0.07244 0.0
H648 H 0.36515 0.97225 0.94389 0.0
H649 H 0.39037 0.92225 0.01838 0.0
H650 H 0.42334 0.04063 0.95457 0.0
H651 H 0.39672 0.04403 0.98372 0.0
H652 H 0.38358 0.02546 0.94428 0.0
H653 H 0.45404 0.97908 0.04749 0.0
H654 H 0.42328 0.94554 0.06217 0.0
H655 H 0.42565 0.98265 0.07391 0.0
C656 C 0.37116 0.4262 0.55464 0.0
C657 C 0.37728 0.45581 0.54369 0.0
C658 C 0.38377 0.40806 0.5383 0.0
C659 C 0.40277 0.41982 0.51038 0.0
C660 C 0.40776 0.44906 0.49823 0.0
C661 C 0.395 0.4667 0.51505 0.0
C662 C 0.3779 0.37692 0.55183 0.0
C663 C 0.42771 0.46229 0.4683 0.0
C664 C 0.46734 0.39699 0.48876 0.0
C665 C 0.45646 0.37981 0.45977 0.0
C666 C 0.4493 0.4086 0.50669 0.0
C667 C 0.41967 0.40294 0.49534 0.0
C668 C 0.40781 0.38401 0.46741 0.0
C669 C 0.42635 0.37259 0.44994 0.0
C670 C 0.46265 0.42847 0.53662 0.0
C671 C 0.37623 0.37736 0.45473 0.0
H672 H 0.35741 0.41755 0.57668 0.0
H673 H 0.39952 0.48937 0.50612 0.0
H674 H 0.37134 0.35994 0.53146 0.0
H675 H 0.39898 0.37692 0.56315 0.0
H676 H 0.3598 0.36971 0.57108 0.0
H677 H 0.42751 0.48444 0.46063 0.0
H678 H 0.45139 0.46559 0.47413 0.0
H679 H 0.42022 0.44646 0.44689 0.0
H680 H 0.4904 0.40231 0.49688 0.0
H681 H 0.41764 0.35916 0.42772 0.0
H682 H 0.44684 0.42116 0.55806 0.0
H683 H 0.46617 0.4522 0.53071 0.0
H684 H 0.48474 0.42807 0.54422 0.0
H685 H 0.3597 0.37095 0.47556 0.0
H686 H 0.36888 0.3589 0.43592 0.0
H687 H 0.37562 0.39806 0.44305 0.0
C688 C 0.06685 0.44795 0.93031 0.0
C689 C 0.07997 0.47828 0.94096 0.0
C690 C 0.04166 0.42662 0.94669 0.0
C691 C 0.02922 0.43567 0.97455 0.0
C692 C 0.04279 0.46596 0.98607 0.0
C693 C 0.06795 0.48691 0.96912 0.0
C694 C 0.02778 0.39459 0.93353 0.0
C695 C 0.03024 0.47644 0.01582 0.0
C696 C 0.94571 0.39399 0.99414 0.0
C697 C 0.94631 0.37608 0.02156 0.0
C698 C 0.97248 0.41288 0.97823 0.0
C699 C 0.00068 0.41412 0.99007 0.0
C700 C 0.00148 0.39536 0.017 0.0
C701 C 0.97423 0.37642 0.03236 0.0
C702 C 0.97057 0.43218 0.94929 0.0
C703 C 0.03115 0.39608 0.03029 0.0
H704 H 0.07595 0.44085 0.90872 0.0
H705 H 0.07795 0.51016 0.97775 0.0
H706 H 0.02558 0.37817 0.95382 0.0
H707 H 0.00463 0.38978 0.92407 0.0
H708 H 0.04135 0.39063 0.91303 0.0
H709 H 0.04458 0.50012 0.02303 0.0
H710 H 0.00713 0.47506 0.01009 0.0
H711 H 0.02829 0.46142 0.03747 0.0
H712 H 0.92424 0.39369 0.9854 0.0
H713 H 0.97491 0.3628 0.05363 0.0
H714 H 0.98241 0.42807 0.92727 0.0
H715 H 0.98209 0.45651 0.95583 0.0
H716 H 0.9468 0.42758 0.94222 0.0
H717 H 0.04467 0.39204 0.00985 0.0
H718 H 0.02785 0.3789 0.05009 0.0
H719 H 0.04464 0.41884 0.0407 0.0
C720 C 0.61856 0.02643 0.46646 0.0
C721 C 0.61854 0.05443 0.47639 0.0
C722 C 0.5992 -0.00066 0.48174 0.0
C723 C 0.57966 0.00038 0.50775 0.0
C724 C 0.58036 0.02866 0.51864 0.0
C725 C 0.59968 0.05527 0.5028 0.0
C726 C 0.59903 0.96956 0.46945 0.0
C727 C 0.56024 0.03081 0.54663 0.0
C728 C 0.50755 0.93204 0.52827 0.0
C729 C 0.51629 0.92053 0.55672 0.0
C730 C 0.5282 0.95753 0.51151 0.0
C731 C 0.55823 0.97198 0.5236 0.0
C732 C 0.56729 0.96028 0.552 0.0
C733 C 0.5463 0.93471 0.56812 0.0
C734 C 0.51776 0.9693 0.48115 0.0
C735 C 0.599 0.97517 0.56585 0.0
H736 H 0.63289 0.02555 0.44596 0.0
H737 H 0.59965 0.07682 0.51083 0.0
H738 H 0.60334 0.95675 0.49041 0.0
H739 H 0.57637 0.95548 0.45921 0.0
H740 H 0.6163 0.97267 0.44979 0.0
H741 H 0.56426 0.05463 0.55286 0.0
H742 H 0.5361 0.01875 0.53957 0.0
H743 H 0.56411 0.01964 0.56932 0.0
H744 H 0.48454 0.9212 0.51908 0.0
H745 H 0.55344 0.92609 0.59002 0.0
H746 H 0.53305 0.97102 0.45981 0.0
H747 H 0.51881 0.99242 0.48615 0.0
H748 H 0.49422 0.95458 0.47385 0.0
H749 H 0.6159 0.97701 0.54621 0.0
H750 H 0.60286 0.96249 0.58729 0.0
H751 H 0.6032 0.99852 0.57416 0.0
C752 C 0.57265 0.62434 0.9475 0.0
C753 C 0.54234 0.61713 0.95652 0.0
C754 C 0.5905 0.61208 0.9649 0.0
C755 C 0.57773 0.59234 0.99201 0.0
C756 C 0.54769 0.5862 0.00227 0.0
C757 C 0.53033 0.59861 0.98435 0.0
C758 C 0.62248 0.61909 0.95332 0.0
C759 C 0.5334 0.56546 0.03132 0.0
C760 C 0.60307 0.52956 0.01434 0.0
C761 C 0.61944 0.54069 0.04374 0.0
C762 C 0.59071 0.54688 0.9963 0.0
C763 C 0.59464 0.57597 0.00807 0.0
C764 C 0.61241 0.588 0.03677 0.0
C765 C 0.62473 0.57023 0.05423 0.0
C766 C 0.57218 0.53343 0.96552 0.0
C767 C 0.61704 0.61894 0.05002 0.0
H768 H 0.58216 0.6387 0.92608 0.0
H769 H 0.50707 0.59321 0.99178 0.0
H770 H 0.63842 0.62604 0.97465 0.0
H771 H 0.62381 0.5984 0.94244 0.0
H772 H 0.63008 0.63731 0.93423 0.0
H773 H 0.51066 0.56491 0.03769 0.0
H774 H 0.53098 0.54208 0.0252 0.0
H775 H 0.54812 0.57278 0.05363 0.0
H776 H 0.59924 0.50692 0.00579 0.0
H777 H 0.63741 0.57904 0.0769 0.0
H778 H 0.57995 0.54954 0.94438 0.0
H779 H 0.54807 0.52917 0.97026 0.0
H780 H 0.57357 0.51174 0.95804 0.0
H781 H 0.62422 0.63601 0.02974 0.0
H782 H 0.63423 0.62639 0.07021 0.0
H783 H 0.59529 0.61843 0.06002 0.0
C784 C 0.93015 0.5498 0.43179 0.0
C785 C 0.91847 0.51922 0.44167 0.0
C786 C 0.95499 0.57161 0.44813 0.0
C787 C 0.9686 0.56279 0.4751 0.0
C788 C 0.95658 0.53218 0.48577 0.0
C789 C 0.93168 0.51075 0.46893 0.0
C790 C 0.96717 0.60398 0.43591 0.0
C791 C 0.97048 0.52193 0.51452 0.0
C792 C 0.05178 0.60768 0.49347 0.0
C793 C 0.05062 0.62428 0.52186 0.0
C794 C 0.02528 0.5882 0.47765 0.0
C795 C 0.99676 0.58507 0.49052 0.0
C796 C 0.99535 0.60265 0.51834 0.0
C797 C 0.02235 0.62219 0.53364 0.0
C798 C 0.02782 0.57021 0.44775 0.0
C799 C 0.96533 0.59995 0.53269 0.0
H800 H 0.92009 0.55679 0.41095 0.0
H801 H 0.9228 0.48731 0.47694 0.0
H802 H 0.96873 0.61962 0.45684 0.0
H803 H 0.99041 0.61024 0.42594 0.0
H804 H 0.95283 0.60756 0.41603 0.0
H805 H 0.95736 0.4978 0.52109 0.0
H806 H 0.99394 0.52485 0.50802 0.0
H807 H 0.97189 0.5361 0.5368 0.0
H808 H 0.07354 0.60935 0.48401 0.0
H809 H 0.02126 0.63479 0.55567 0.0
H810 H 0.0151 0.57404 0.4264 0.0
H811 H 0.01759 0.54565 0.45361 0.0
H812 H 0.05171 0.57627 0.43996 0.0
H813 H 0.95089 0.60345 0.51292 0.0
H814 H 0.96807 0.61655 0.553 0.0
H815 H 0.9531 0.57678 0.54274 0.0
C816 C 0.55534 0.23375 0.1034 0.0
C817 C 0.54273 0.2142 0.0766 0.0
C818 C 0.55696 0.26345 0.1032 0.0
C819 C 0.54704 0.27432 0.07475 0.0
C820 C 0.53318 0.25434 0.04808 0.0
C821 C 0.5313 0.2244 0.04926 0.0
C822 C 0.57122 0.28382 0.1325 0.0
C823 C 0.5222 0.26516 0.01747 0.0
C824 C 0.54857 0.35376 0.08336 0.0
C825 C 0.57841 0.37102 0.07366 0.0
C826 C 0.53717 0.32193 0.08239 0.0
C827 C 0.55606 0.30748 0.0709 0.0
C828 C 0.58561 0.32518 0.05912 0.0
C829 C 0.59656 0.35675 0.06117 0.0
C830 C 0.50587 0.30411 0.09597 0.0
C831 C 0.60635 0.31078 0.04608 0.0
H832 H 0.5653 0.22625 0.12395 0.0
H833 H 0.52199 0.20932 0.02833 0.0
H834 H 0.59329 0.30159 0.12495 0.0
H835 H 0.55646 0.29537 0.14087 0.0
H836 H 0.57518 0.27114 0.15386 0.0
H837 H 0.50825 0.27793 0.02466 0.0
H838 H 0.54198 0.28083 0.00322 0.0
H839 H 0.50862 0.2461 0.00093 0.0
H840 H 0.53475 0.36505 0.0933 0.0
H841 H 0.61965 0.37038 0.05361 0.0
H842 H 0.49096 0.31668 0.09267 0.0
H843 H 0.50767 0.30061 0.12307 0.0
H844 H 0.49504 0.28155 0.08401 0.0
H845 H 0.62718 0.32764 0.03447 0.0
H846 H 0.5944 0.2931 0.02737 0.0
H847 H 0.61321 0.2996 0.06686 0.0
C848 C 0.27753 0.52511 0.54059 0.0
C849 C 0.29431 0.52721 0.56963 0.0
C850 C 0.25365 0.53504 0.54027 0.0
C851 C 0.24647 0.54699 0.56981 0.0
C852 C 0.26218 0.54734 0.59963 0.0
C853 C 0.28646 0.53826 0.59891 0.0
C854 C 0.23779 0.53499 0.50782 0.0
C855 C 0.25464 0.55915 0.63183 0.0
C856 C 0.21883 0.61055 0.56553 0.0
C857 C 0.18767 0.59491 0.57015 0.0
C858 C 0.23801 0.59492 0.56404 0.0
C859 C 0.22575 0.56308 0.5687 0.0
C860 C 0.19428 0.54726 0.57398 0.0
C861 C 0.17544 0.56339 0.57398 0.0
C862 C 0.2714 0.61253 0.55758 0.0
C863 C 0.18068 0.5136 0.58064 0.0
H864 H 0.28417 0.51729 0.51776 0.0
H865 H 0.30041 0.5415 0.62093 0.0
H866 H 0.21286 0.52516 0.51131 0.0
H867 H 0.24435 0.55867 0.49913 0.0
H868 H 0.24371 0.52202 0.48809 0.0
H869 H 0.26852 0.55704 0.65303 0.0
H870 H 0.25847 0.58337 0.62913 0.0
H871 H 0.23034 0.54652 0.63792 0.0
H872 H 0.22805 0.63492 0.56212 0.0
H873 H 0.15123 0.55148 0.57767 0.0
H874 H 0.27899 0.60235 0.53643 0.0
H875 H 0.2847 0.61145 0.57977 0.0
H876 H 0.27679 0.63673 0.5518 0.0
H877 H 0.18894 0.50132 0.5623 0.0
H878 H 0.15553 0.50411 0.57993 0.0
H879 H 0.18789 0.50921 0.60566 0.0
C880 C 0.79423 0.26858 0.01565 0.0
C881 C 0.80797 0.28165 0.04574 0.0
C882 C 0.76488 0.24549 0.01523 0.0
C883 C 0.74904 0.23541 0.04564 0.0
C884 C 0.76382 0.24703 0.07612 0.0
C885 C 0.79272 0.27041 0.07572 0.0
C886 C 0.74987 0.23395 0.98218 0.0
C887 C 0.74805 0.2367 0.10917 0.0
C888 C 0.66528 0.21744 0.0539 0.0
C889 C 0.65296 0.18591 0.05755 0.0
C890 C 0.6962 0.23344 0.04759 0.0
C891 C 0.71561 0.21762 0.04592 0.0
C892 C 0.70315 0.18556 0.04847 0.0
C893 C 0.67173 0.16995 0.05381 0.0
C894 C 0.70829 0.26754 0.04449 0.0
C895 C 0.72316 0.16798 0.04743 0.0
H896 H 0.80568 0.27767 0.99238 0.0
H897 H 0.80244 0.28137 0.09896 0.0
H898 H 0.73669 0.20911 0.98299 0.0
H899 H 0.73381 0.24477 0.97651 0.0
H900 H 0.76667 0.23928 0.96161 0.0
H901 H 0.76332 0.24661 0.13064 0.0
H902 H 0.72848 0.24341 0.11117 0.0
H903 H 0.73915 0.21164 0.11098 0.0
H904 H 0.65066 0.22972 0.05644 0.0
H905 H 0.66216 0.14554 0.05675 0.0
H906 H 0.72295 0.27521 0.02215 0.0
H907 H 0.72236 0.27814 0.06658 0.0
H908 H 0.68985 0.27596 0.0427 0.0
H909 H 0.73953 0.17579 0.0265 0.0
H910 H 0.70979 0.14324 0.04485 0.0
H911 H 0.73653 0.17202 0.07078 0.0
C912 C 0.46462 0.77285 0.54511 0.0
C913 C 0.45516 0.78305 0.57393 0.0
C914 C 0.46186 0.74267 0.54259 0.0
C915 C 0.44921 0.72249 0.56946 0.0
C916 C 0.44133 0.73332 0.59927 0.0
C917 C 0.44368 0.76324 0.60078 0.0
C918 C 0.47049 0.73185 0.51046 0.0
C919 C 0.42841 0.71274 0.62879 0.0
C920 C 0.39728 0.64058 0.55765 0.0
C921 C 0.41564 0.6257 0.56782 0.0
C922 C 0.40885 0.67218 0.55546 0.0
C923 C 0.43927 0.68929 0.56491 0.0
C924 C 0.45829 0.67422 0.57396 0.0
C925 C 0.44625 0.64237 0.57492 0.0
C926 C 0.38792 0.68724 0.54493 0.0
C927 C 0.49055 0.69142 0.58511 0.0
H928 H 0.47299 0.78811 0.52413 0.0
H929 H 0.43511 0.77071 0.62251 0.0
H930 H 0.48426 0.71841 0.51559 0.0
H931 H 0.44966 0.7168 0.49733 0.0
H932 H 0.48348 0.75096 0.49366 0.0
H933 H 0.42583 0.72531 0.651 0.0
H934 H 0.40581 0.69527 0.62235 0.0
H935 H 0.44329 0.70081 0.63536 0.0
H936 H 0.37362 0.62743 0.55196 0.0
H937 H 0.46028 0.63063 0.583 0.0
H938 H 0.39907 0.70501 0.52602 0.0
H939 H 0.38254 0.69842 0.56677 0.0
H940 H 0.3663 0.67079 0.53443 0.0
H941 H 0.50109 0.71382 0.57273 0.0
H942 H 0.50466 0.67826 0.58021 0.0
H943 H 0.49064 0.69528 0.61237 0.0
C944 C 0.70882 0.45984 0.10492 0.0
C945 C 0.7003 0.47008 0.07553 0.0
C946 C 0.73356 0.45142 0.10553 0.0
C947 C 0.74901 0.45156 0.07551 0.0
C948 C 0.74122 0.4629 0.04592 0.0
C949 C 0.71695 0.47222 0.04635 0.0
C950 C 0.74179 0.44033 0.13778 0.0
C951 C 0.75677 0.46276 0.01327 0.0
C952 C 0.82049 0.43573 0.07684 0.0
C953 C 0.80839 0.40422 0.07285 0.0
C954 C 0.80144 0.45162 0.0782 0.0
C955 C 0.76984 0.43558 0.07414 0.0
C956 C 0.75767 0.40374 0.06954 0.0
C957 C 0.77711 0.38836 0.06964 0.0
C958 C 0.81497 0.4853 0.08475 0.0
C959 C 0.72413 0.38589 0.06429 0.0
H960 H 0.69502 0.45663 0.12709 0.0
H961 H 0.70983 0.47946 0.02346 0.0
H962 H 0.73718 0.41586 0.13582 0.0
H963 H 0.76635 0.45252 0.1428 0.0
H964 H 0.72883 0.44356 0.15931 0.0
H965 H 0.75045 0.47538 0.9935 0.0
H966 H 0.78173 0.47283 0.01634 0.0
H967 H 0.75031 0.43901 0.00486 0.0
H968 H 0.84478 0.44783 0.07954 0.0
H969 H 0.76794 0.36399 0.06617 0.0
H970 H 0.80779 0.48977 0.10977 0.0
H971 H 0.80659 0.49745 0.06639 0.0
H972 H 0.84013 0.49487 0.0839 0.0
H973 H 0.71139 0.38729 0.08684 0.0
H974 H 0.71869 0.36161 0.05889 0.0
H975 H 0.71593 0.39565 0.04328 0.0
C976 C 0.20396 0.73197 0.5199 0.0
C977 C 0.18919 0.71839 0.54938 0.0
C978 C 0.23359 0.75455 0.52064 0.0
C979 C 0.24862 0.76371 0.55162 0.0
C980 C 0.23283 0.75167 0.58149 0.0
C981 C 0.2037 0.72872 0.57994 0.0
C982 C 0.24971 0.76641 0.48817 0.0
C983 C 0.24771 0.76109 0.61511 0.0
C984 C 0.33207 0.78029 0.56126 0.0
C985 C 0.3449 0.81185 0.56466 0.0
C986 C 0.30109 0.76472 0.55493 0.0
C987 C 0.28211 0.781 0.55302 0.0
C988 C 0.29502 0.81303 0.55574 0.0
C989 C 0.32649 0.8282 0.56101 0.0
C990 C 0.28852 0.73061 0.55162 0.0
C991 C 0.27544 0.83106 0.5546 0.0
H992 H 0.19311 0.72357 0.49618 0.0
H993 H 0.19323 0.71732 0.60271 0.0
H994 H 0.26322 0.79117 0.48958 0.0
H995 H 0.26564 0.75532 0.483 0.0
H996 H 0.2336 0.76169 0.46701 0.0
H997 H 0.26699 0.75399 0.61753 0.0
H998 H 0.2569 0.78611 0.61753 0.0
H999 H 0.23177 0.75091 0.636 0.0
H1000 H 0.34638 0.76767 0.56367 0.0
H1001 H 0.33644 0.85263 0.56373 0.0
H1002 H 0.2743 0.72332 0.52892 0.0
H1003 H 0.27387 0.72005 0.57335 0.0
H1004 H 0.30668 0.72177 0.5503 0.0
H1005 H 0.26012 0.82439 0.53272 0.0
H1006 H 0.28913 0.85584 0.55353 0.0
H1007 H 0.26091 0.8261 0.57717 0.0
C1008 C 0.77435 0.47156 0.44998 0.0
C1009 C 0.78325 0.45911 0.42249 0.0
C1010 C 0.74474 0.47053 0.45215 0.0
C1011 C 0.72371 0.45628 0.42649 0.0
C1012 C 0.73329 0.44534 0.39782 0.0
C1013 C 0.76276 0.44633 0.39652 0.0
C1014 C 0.73539 0.48287 0.48279 0.0
C1015 C 0.71179 0.43059 0.36955 0.0
C1016 C 0.64167 0.40805 0.44416 0.0
C1017 C 0.62721 0.42572 0.43092 0.0
C1018 C 0.67329 0.41887 0.44515 0.0
C1019 C 0.69078 0.44784 0.43177 0.0
C1020 C 0.67617 0.46641 0.41981 0.0
C1021 C 0.64432 0.45507 0.41963 0.0
C1022 C 0.68787 0.39841 0.45848 0.0
C1023 C 0.69374 0.49717 0.40485 0.0
H1024 H 0.79019 0.48109 0.47024 0.0
H1025 H 0.76933 0.43572 0.37582 0.0
H1026 H 0.72018 0.46377 0.49826 0.0
H1027 H 0.75521 0.49689 0.49815 0.0
H1028 H 0.72255 0.49677 0.47568 0.0
H1029 H 0.72356 0.42588 0.34777 0.0
H1030 H 0.69408 0.40886 0.37814 0.0
H1031 H 0.70023 0.44538 0.36138 0.0
H1032 H 0.62815 0.38527 0.45276 0.0
H1033 H 0.63288 0.46848 0.40904 0.0
H1034 H 0.70615 0.41088 0.47635 0.0
H1035 H 0.69832 0.39073 0.43764 0.0
H1036 H 0.67127 0.37808 0.47116 0.0
H1037 H 0.6815 0.51237 0.40826 0.0
H1038 H 0.69616 0.49448 0.37769 0.0
H1039 H 0.71674 0.50816 0.41574 0.0
C1040 C 0.2676 0.79054 0.98304 0.0
C1041 C 0.28201 0.80469 0.95364 0.0
C1042 C 0.24466 0.7611 0.98235 0.0
C1043 C 0.23614 0.74561 0.95153 0.0
C1044 C 0.24923 0.76074 0.92166 0.0
C1045 C 0.27239 0.78971 0.92319 0.0
C1046 C 0.23152 0.7457 0.0148 0.0
C1047 C 0.24059 0.74533 0.88819 0.0
C1048 C 0.2181 0.6619 0.94276 0.0
C1049 C 0.18679 0.64985 0.93738 0.0
C1050 C 0.23394 0.69269 0.94987 0.0
C1051 C 0.21823 0.71224 0.95048 0.0
C1052 C 0.18635 0.70002 0.94606 0.0
C1053 C 0.17085 0.66872 0.94003 0.0
C1054 C 0.26783 0.70451 0.95501 0.0
C1055 C 0.16893 0.7202 0.94578 0.0
H1056 H 0.27545 0.80178 0.0067 0.0
H1057 H 0.28441 0.79977 0.90055 0.0
H1058 H 0.20671 0.73272 0.01262 0.0
H1059 H 0.24184 0.72937 0.02116 0.0
H1060 H 0.23601 0.7622 0.03556 0.0
H1061 H 0.25167 0.7608 0.8672 0.0
H1062 H 0.24726 0.72571 0.88693 0.0
H1063 H 0.21567 0.73658 0.8848 0.0
H1064 H 0.23033 0.64717 0.94105 0.0
H1065 H 0.1466 0.65933 0.93575 0.0
H1066 H 0.27446 0.7189 0.97765 0.0
H1067 H 0.27959 0.71881 0.93348 0.0
H1068 H 0.27598 0.68593 0.95756 0.0
H1069 H 0.17599 0.73652 0.96679 0.0
H1070 H 0.14408 0.70695 0.94726 0.0
H1071 H 0.17396 0.73362 0.9224 0.0
C1072 C 0.60989 0.22411 0.42495 0.0
C1073 C 0.59368 0.193 0.42064 0.0
C1074 C 0.59496 0.24395 0.42523 0.0
C1075 C 0.56326 0.23241 0.41966 0.0
C1076 C 0.54694 0.20104 0.41419 0.0
C1077 C 0.56233 0.18153 0.41542 0.0
C1078 C 0.61308 0.27718 0.43207 0.0
C1079 C 0.51347 0.18823 0.40646 0.0
C1080 C 0.52658 0.28434 0.45054 0.0
C1081 C 0.52942 0.30244 0.42242 0.0
C1082 C 0.53574 0.25998 0.4495 0.0
C1083 C 0.54763 0.25358 0.41949 0.0
C1084 C 0.54856 0.27058 0.39047 0.0
C1085 C 0.54028 0.29537 0.39257 0.0
C1086 C 0.53504 0.24276 0.48115 0.0
C1087 C 0.5602 0.26382 0.35777 0.0
H1088 H 0.63412 0.23277 0.42937 0.0
H1089 H 0.54997 0.15738 0.41187 0.0
H1090 H 0.61216 0.2909 0.4102 0.0
H1091 H 0.60317 0.28469 0.45352 0.0
H1092 H 0.63723 0.28212 0.43765 0.0
H1093 H 0.50351 0.16306 0.40632 0.0
H1094 H 0.50098 0.19629 0.42475 0.0
H1095 H 0.50993 0.19632 0.38156 0.0
H1096 H 0.51885 0.29033 0.4738 0.0
H1097 H 0.54397 0.31026 0.37128 0.0
H1098 H 0.5586 0.2482 0.4897 0.0
H1099 H 0.52443 0.21799 0.47663 0.0
H1100 H 0.52247 0.24852 0.50143 0.0
H1101 H 0.58452 0.26793 0.36004 0.0
H1102 H 0.55767 0.278 0.33709 0.0
H1103 H 0.54781 0.2396 0.3512 0.0
C1104 C 0.22666 0.52948 0.94537 0.0
C1105 C 0.216 0.54025 0.91786 0.0
C1106 C 0.25673 0.5317 0.94637 0.0
C1107 C 0.27639 0.54518 0.91931 0.0
C1108 C 0.26507 0.55442 0.89071 0.0
C1109 C 0.23524 0.55252 0.89071 0.0
C1110 C 0.26804 0.52159 0.97723 0.0
C1111 C 0.28507 0.56825 0.86101 0.0
C1112 C 0.35881 0.59532 0.93248 0.0
C1113 C 0.37329 0.57695 0.92111 0.0
C1114 C 0.32721 0.58438 0.93404 0.0
C1115 C 0.30966 0.5546 0.92288 0.0
C1116 C 0.32427 0.53558 0.91226 0.0
C1117 C 0.35614 0.54696 0.91184 0.0
C1118 C 0.31265 0.60529 0.94619 0.0
C1119 C 0.30657 0.50407 0.89921 0.0
H1120 H 0.21185 0.52046 0.96659 0.0
H1121 H 0.22742 0.56203 0.87002 0.0
H1122 H 0.28096 0.50769 0.9704 0.0
H1123 H 0.2837 0.54177 0.9909 0.0
H1124 H 0.24922 0.50824 0.9942 0.0
H1125 H 0.27208 0.57167 0.83963 0.0
H1126 H 0.30278 0.59054 0.86798 0.0
H1127 H 0.29672 0.55351 0.85292 0.0
H1128 H 0.37233 0.61851 0.93975 0.0
H1129 H 0.36757 0.53296 0.90275 0.0
H1130 H 0.29509 0.59372 0.96518 0.0
H1131 H 0.30129 0.61148 0.9251 0.0
H1132 H 0.32943 0.62648 0.9572 0.0
H1133 H 0.28432 0.49312 0.91183 0.0
H1134 H 0.31948 0.48945 0.90216 0.0
H1135 H 0.30232 0.50553 0.87223 0.0
C1136 C 0.72658 0.20702 0.42206 0.0
C1137 C 0.71453 0.19229 0.45208 0.0
C1138 C 0.74993 0.23593 0.42164 0.0
C1139 C 0.76067 0.25127 0.45206 0.0
C1140 C 0.74982 0.23595 0.48258 0.0
C1141 C 0.7268 0.20656 0.48222 0.0
C1142 C 0.7611 0.25116 0.3885 0.0
C1143 C 0.7604 0.25155 0.51557 0.0
C1144 C 0.82593 0.32877 0.44432 0.0
C1145 C 0.8099 0.34732 0.43927 0.0
C1146 C 0.81037 0.29739 0.44989 0.0
C1147 C 0.77826 0.28472 0.45133 0.0
C1148 C 0.76228 0.3039 0.44825 0.0
C1149 C 0.77827 0.33478 0.44177 0.0
C1150 C 0.82813 0.27762 0.45247 0.0
C1151 C 0.72809 0.29159 0.45012 0.0
H1152 H 0.71624 0.1969 0.39871 0.0
H1153 H 0.71709 0.19552 0.50549 0.0
H1154 H 0.7862 0.26026 0.38757 0.0
H1155 H 0.75192 0.23546 0.36719 0.0
H1156 H 0.75422 0.27052 0.38536 0.0
H1157 H 0.75466 0.2351 0.53651 0.0
H1158 H 0.78523 0.2649 0.5154 0.0
H1159 H 0.74927 0.26753 0.52014 0.0
H1160 H 0.85042 0.3385 0.44231 0.0
H1161 H 0.76589 0.3492 0.43828 0.0
H1162 H 0.82458 0.26368 0.42958 0.0
H1163 H 0.82002 0.26176 0.4738 0.0
H1164 H 0.8528 0.29118 0.45542 0.0
H1165 H 0.71821 0.27708 0.4281 0.0
H1166 H 0.71942 0.30989 0.45076 0.0
H1167 H 0.71988 0.27729 0.47265 0.0
C1168 C 0.4731 0.71393 0.95778 0.0
C1169 C 0.4717 0.69861 0.92779 0.0
C1170 C 0.46381 0.73819 0.9593 0.0
C1171 C 0.4532 0.74728 0.93003 0.0
C1172 C 0.45376 0.73316 0.89929 0.0
C1173 C 0.46217 0.70842 0.89876 0.0
C1174 C 0.46296 0.75236 0.99265 0.0
C1175 C 0.44342 0.74279 0.86739 0.0
C1176 C 0.38973 0.775 0.93525 0.0
C1177 C 0.40556 0.80635 0.93289 0.0
C1178 C 0.40521 0.75566 0.93563 0.0
C1179 C 0.43718 0.76803 0.93218 0.0
C1180 C 0.45326 0.79975 0.92935 0.0
C1181 C 0.43721 0.81866 0.93035 0.0
C1182 C 0.3873 0.72198 0.93958 0.0
C1183 C 0.48713 0.81358 0.92413 0.0
H1184 H 0.47979 0.70579 0.98035 0.0
H1185 H 0.45955 0.69564 0.8759 0.0
H1186 H 0.47305 0.77742 0.99081 0.0
H1187 H 0.43904 0.74552 0.00061 0.0
H1188 H 0.47521 0.74525 0.01216 0.0
H1189 H 0.44703 0.73068 0.8453 0.0
H1190 H 0.41895 0.73825 0.86897 0.0
H1191 H 0.45585 0.76752 0.86359 0.0
H1192 H 0.36525 0.76566 0.93763 0.0
H1193 H 0.4493 0.843 0.92834 0.0
H1194 H 0.3967 0.71309 0.96032 0.0
H1195 H 0.38911 0.71001 0.91656 0.0
H1196 H 0.36293 0.71637 0.94463 0.0
H1197 H 0.49872 0.80377 0.9416 0.0
H1198 H 0.4967 0.83858 0.9273 0.0
H1199 H 0.49231 0.80839 0.89849 0.0
loop_
_geom_bond_atom_site_label_1
_geom_bond_atom_site_label_2
_geom_bond_distance
_geom_bond_site_symmetry_2
_ccdc_geom_bond_type
Mn0 O5 2.095 . S
Mn0 O15 2.162 . S
Mn0 O16 2.297 . S
Mn0 O24 2.385 . S
Mn0 O25 2.209 . S
Mn0 O26 2.094 . S
Mn1 O6 2.121 . S
Mn1 N8 2.257 . S
Mn1 N17 2.282 . S
Mn1 O25 2.215 . S
Mn1 O27 2.117 . S
C2 O24 1.234 . S
C2 O25 1.283 . S
C3 O15 1.281 . S
C3 O16 1.236 . S
C4 O26 1.240 . S
C4 O27 1.264 . S
O5 Mn0 2.095 . S
O5 C14 1.250 . S
O6 Mn1 2.121 . S
O6 C14 1.258 . S
C7 N8 1.326 . S
C7 C11 1.460 . S
C7 H13 0.929 . S
N8 Mn1 2.257 . S
N8 C7 1.326 . S
N8 C12 1.362 . S
C9 C10 1.258 . S
C9 C12 1.431 . S
C9 C29 1.449 . S
C10 C9 1.258 . S
C10 C11 1.477 . S
C10 H30 0.931 . S
C11 C7 1.460 . S
C11 C10 1.477 . S
C11 H31 0.930 . S
C12 N8 1.362 . S
C12 C9 1.431 . S
C12 C22 1.476 . S
H13 C7 0.929 . S
C14 O5 1.250 . S
C14 O6 1.258 . S
O15 Mn0 2.162 . S
O15 C3 1.281 . S
O16 Mn0 2.297 . S
O16 C3 1.236 . S
N17 Mn1 2.282 . S
N17 C18 1.328 . S
N17 C22 1.318 . S
C18 N17 1.328 . S
C18 C19 1.457 . S
C18 H23 0.929 . S
C19 C18 1.457 . S
C19 C20 1.291 . S
C19 H32 0.931 1_554 S
C20 C19 1.291 . S
C20 C21 1.373 . S
C20 H33 0.936 . S
C21 C20 1.373 . S
C21 C22 1.396 . S
C21 C28 1.403 . S
C22 C12 1.476 . S
C22 N17 1.318 . S
C22 C21 1.396 . S
H23 C18 0.929 . S
O24 Mn0 2.385 . S
O24 C2 1.234 . S
O25 Mn0 2.209 . S
O25 Mn1 2.215 . S
O25 C2 1.283 . S
O26 Mn0 2.094 . S
O26 C4 1.240 . S
O27 Mn1 2.117 . S
O27 C4 1.264 . S
C28 C21 1.403 . S
C28 C29 1.399 . S
C28 H34 0.929 . S
C29 C9 1.449 . S
C29 C28 1.399 . S
C29 H35 0.930 . S
H30 C10 0.931 . S
H31 C11 0.930 . S
H32 C19 0.931 1_556 S
H33 C20 0.936 . S
H34 C28 0.929 . S
H35 C29 0.930 . S
Mn36 O41 2.095 . S
Mn36 O51 2.162 . S
Mn36 O52 2.297 . S
Mn36 O60 2.385 . S
Mn36 O61 2.209 . S
Mn36 O62 2.094 . S
Mn37 O42 2.121 . S
Mn37 N44 2.257 . S
Mn37 N53 2.282 . S
Mn37 O61 2.215 . S
Mn37 O63 2.117 . S
C38 O60 1.234 . S
C38 O61 1.283 . S
C39 O51 1.281 . S
C39 O52 1.236 . S
C40 O62 1.240 . S
C40 O63 1.264 . S
O41 Mn36 2.095 . S
O41 C50 1.250 . S
O42 Mn37 2.121 . S
O42 C50 1.258 . S
C43 N44 1.326 . S
C43 C47 1.460 . S
C43 H49 0.929 . S
N44 Mn37 2.257 . S
N44 C43 1.326 . S
N44 C48 1.362 . S
C45 C46 1.258 . S
C45 C48 1.431 . S
C45 C65 1.449 . S
C46 C45 1.258 . S
C46 C47 1.477 . S
C46 H66 0.931 . S
C47 C43 1.460 . S
C47 C46 1.477 . S
C47 H67 0.930 . S
C48 N44 1.362 . S
C48 C45 1.431 . S
C48 C58 1.476 . S
H49 C43 0.929 . S
C50 O41 1.250 . S
C50 O42 1.258 . S
O51 Mn36 2.162 . S
O51 C39 1.281 . S
O52 Mn36 2.297 . S
O52 C39 1.236 . S
N53 Mn37 2.282 . S
N53 C54 1.328 . S
N53 C58 1.318 . S
C54 N53 1.328 . S
C54 C55 1.457 . S
C54 H59 0.929 . S
C55 C54 1.457 . S
C55 C56 1.291 . S
C55 H68 0.931 . S
C56 C55 1.291 . S
C56 C57 1.373 . S
C56 H69 0.929 . S
C57 C56 1.373 . S
C57 C58 1.396 . S
C57 C64 1.403 . S
C58 C48 1.476 . S
C58 N53 1.318 . S
C58 C57 1.396 . S
H59 C54 0.929 . S
O60 Mn36 2.385 . S
O60 C38 1.234 . S
O61 Mn36 2.209 . S
O61 Mn37 2.215 . S
O61 C38 1.283 . S
O62 Mn36 2.094 . S
O62 C40 1.240 . S
O63 Mn37 2.117 . S
O63 C40 1.264 . S
C64 C57 1.403 . S
C64 C65 1.399 . S
C64 H70 0.929 . S
C65 C45 1.449 . S
C65 C64 1.399 . S
C65 H71 0.930 . S
H66 C46 0.931 . S
H67 C47 0.930 . S
H68 C55 0.931 . S
H69 C56 0.929 . S
H70 C64 0.929 . S
H71 C65 0.930 . S
Mn72 O77 2.095 . S
Mn72 O87 2.162 . S
Mn72 O88 2.297 . S
Mn72 O96 2.385 . S
Mn72 O97 2.209 . S
Mn72 O98 2.094 . S
Mn73 O78 2.121 . S
Mn73 N80 2.257 . S
Mn73 N89 2.282 . S
Mn73 O97 2.215 . S
Mn73 O99 2.117 . S
C74 O96 1.234 . S
C74 O97 1.283 . S
C75 O87 1.281 . S
C75 O88 1.236 . S
C76 O98 1.240 . S
C76 O99 1.264 . S
O77 Mn72 2.095 . S
O77 C86 1.250 . S
O78 Mn73 2.121 . S
O78 C86 1.258 . S
C79 N80 1.326 . S
C79 C83 1.460 . S
C79 H85 0.929 . S
N80 Mn73 2.257 . S
N80 C79 1.326 . S
N80 C84 1.362 . S
C81 C82 1.258 . S
C81 C84 1.431 . S
C81 C101 1.449 . S
C82 C81 1.258 . S
C82 C83 1.477 . S
C82 H102 0.931 . S
C83 C79 1.460 . S
C83 C82 1.477 . S
C83 H103 0.930 . S
C84 N80 1.362 . S
C84 C81 1.431 . S
C84 C94 1.476 . S
H85 C79 0.929 . S
C86 O77 1.250 . S
C86 O78 1.258 . S
O87 Mn72 2.162 . S
O87 C75 1.281 . S
O88 Mn72 2.297 . S
O88 C75 1.236 . S
N89 Mn73 2.282 . S
N89 C90 1.328 . S
N89 C94 1.318 . S
C90 N89 1.328 . S
C90 C91 1.457 1_554 S
C90 H95 0.929 1_554 S
C91 C90 1.457 1_556 S
C91 C92 1.291 . S
C91 H104 0.931 . S
C92 C91 1.291 . S
C92 C93 1.373 1_556 S
C92 H105 0.929 . S
C93 C92 1.373 1_554 S
C93 C94 1.396 . S
C93 C100 1.403 . S
C94 C84 1.476 . S
C94 N89 1.318 . S
C94 C93 1.396 . S
H95 C90 0.929 1_556 S
O96 Mn72 2.385 . S
O96 C74 1.234 . S
O97 Mn72 2.209 . S
O97 Mn73 2.215 . S
O97 C74 1.283 . S
O98 Mn72 2.094 . S
O98 C76 1.240 . S
O99 Mn73 2.117 . S
O99 C76 1.264 . S
C100 C93 1.403 . S
C100 C101 1.399 . S
C100 H106 0.929 . S
C101 C81 1.449 . S
C101 C100 1.399 . S
C101 H107 0.930 . S
H102 C82 0.931 . S
H103 C83 0.930 . S
H104 C91 0.931 . S
H105 C92 0.929 . S
H106 C100 0.929 . S
H107 C101 0.930 . S
Mn108 O113 2.095 . S
Mn108 O123 2.162 . S
Mn108 O124 2.297 . S
Mn108 O132 2.385 . S
Mn108 O133 2.209 . S
Mn108 O134 2.094 . S
Mn109 O114 2.121 . S
Mn109 N116 2.257 . S
Mn109 N125 2.282 . S
Mn109 O133 2.215 . S
Mn109 O135 2.117 . S
C110 O132 1.234 . S
C110 O133 1.283 . S
C111 O123 1.281 . S
C111 O124 1.236 . S
C112 O134 1.240 . S
C112 O135 1.264 . S
O113 Mn108 2.095 . S
O113 C122 1.250 . S
O114 Mn109 2.121 . S
O114 C122 1.258 . S
C115 N116 1.326 . S
C115 C119 1.460 . S
C115 H121 0.929 . S
N116 Mn109 2.257 . S
N116 C115 1.326 . S
N116 C120 1.362 . S
C117 C118 1.258 . S
C117 C120 1.431 . S
C117 C137 1.449 . S
C118 C117 1.258 . S
C118 C119 1.477 . S
C118 H138 0.931 . S
C119 C115 1.460 . S
C119 C118 1.477 . S
C119 H139 0.930 . S
C120 N116 1.362 . S
C120 C117 1.431 . S
C120 C130 1.476 . S
H121 C115 0.929 . S
C122 O113 1.250 . S
C122 O114 1.258 . S
O123 Mn108 2.162 . S
O123 C111 1.281 . S
O124 Mn108 2.297 . S
O124 C111 1.236 . S
N125 Mn109 2.282 . S
N125 C126 1.328 . S
N125 C130 1.318 . S
C126 N125 1.328 . S
C126 C127 1.457 . S
C126 H131 0.929 . S
C127 C126 1.457 . S
C127 C128 1.291 . S
C127 H140 0.931 . S
C128 C127 1.291 . S
C128 C129 1.373 . S
C128 H141 0.929 . S
C129 C128 1.373 . S
C129 C130 1.396 . S
C129 C136 1.403 . S
C130 C120 1.476 . S
C130 N125 1.318 . S
C130 C129 1.396 . S
H131 C126 0.929 . S
O132 Mn108 2.385 . S
O132 C110 1.234 . S
O133 Mn108 2.209 . S
O133 Mn109 2.215 . S
O133 C110 1.283 . S
O134 Mn108 2.094 . S
O134 C112 1.240 . S
O135 Mn109 2.117 . S
O135 C112 1.264 . S
C136 C129 1.403 . S
C136 C137 1.399 . S
C136 H142 0.929 . S
C137 C117 1.449 . S
C137 C136 1.399 . S
C137 H143 0.930 . S
H138 C118 0.931 . S
H139 C119 0.930 . S
H140 C127 0.931 . S
H141 C128 0.929 . S
H142 C136 0.929 . S
H143 C137 0.930 . S
Mn144 O149 2.095 . S
Mn144 O159 2.162 . S
Mn144 O160 2.297 . S
Mn144 O168 2.385 . S
Mn144 O169 2.209 . S
Mn144 O170 2.094 . S
Mn145 O150 2.121 . S
Mn145 N152 2.257 . S
Mn145 N161 2.282 . S
Mn145 O169 2.215 . S
Mn145 O171 2.117 . S
C146 O168 1.234 . S
C146 O169 1.283 . S
C147 O159 1.281 . S
C147 O160 1.236 . S
C148 O170 1.240 . S
C148 O171 1.264 . S
O149 Mn144 2.095 . S
O149 C158 1.250 . S
O150 Mn145 2.121 . S
O150 C158 1.258 . S
C151 N152 1.326 . S
C151 C155 1.460 . S
C151 H157 0.929 . S
N152 Mn145 2.257 . S
N152 C151 1.326 . S
N152 C156 1.362 . S
C153 C154 1.258 . S
C153 C156 1.431 . S
C153 C173 1.449 . S
C154 C153 1.258 . S
C154 C155 1.477 . S
C154 H174 0.931 . S
C155 C151 1.460 . S
C155 C154 1.477 . S
C155 H175 0.930 . S
C156 N152 1.362 . S
C156 C153 1.431 . S
C156 C166 1.476 . S
H157 C151 0.929 . S
C158 O149 1.250 . S
C158 O150 1.258 . S
O159 Mn144 2.162 . S
O159 C147 1.281 . S
O160 Mn144 2.297 . S
O160 C147 1.236 . S
N161 Mn145 2.282 . S
N161 C162 1.328 . S
N161 C166 1.318 . S
C162 N161 1.328 . S
C162 C163 1.457 1_554 S
C162 H167 0.929 . S
C163 C162 1.457 1_556 S
C163 C164 1.291 1_556 S
C163 H176 0.931 . S
C164 C163 1.291 1_554 S
C164 C165 1.373 . S
C164 H177 0.929 1_554 S
C165 C164 1.373 . S
C165 C166 1.396 . S
C165 C172 1.403 . S
C166 C156 1.476 . S
C166 N161 1.318 . S
C166 C165 1.396 . S
H167 C162 0.929 . S
O168 Mn144 2.385 . S
O168 C146 1.234 . S
O169 Mn144 2.209 . S
O169 Mn145 2.215 . S
O169 C146 1.283 . S
O170 Mn144 2.094 . S
O170 C148 1.240 . S
O171 Mn145 2.117 . S
O171 C148 1.264 . S
C172 C165 1.403 . S
C172 C173 1.399 . S
C172 H178 0.929 . S
C173 C153 1.449 . S
C173 C172 1.399 . S
C173 H179 0.930 . S
H174 C154 0.931 . S
H175 C155 0.930 . S
H176 C163 0.931 . S
H177 C164 0.929 1_556 S
H178 C172 0.929 . S
H179 C173 0.930 . S
Mn180 O185 2.095 . S
Mn180 O195 2.162 . S
Mn180 O196 2.297 . S
Mn180 O204 2.385 . S
Mn180 O205 2.209 . S
Mn180 O206 2.094 . S
Mn181 O186 2.121 . S
Mn181 N188 2.257 . S
Mn181 N197 2.282 . S
Mn181 O205 2.215 . S
Mn181 O207 2.117 . S
C182 O204 1.234 . S
C182 O205 1.283 . S
C183 O195 1.281 . S
C183 O196 1.236 . S
C184 O206 1.240 . S
C184 O207 1.264 . S
O185 Mn180 2.095 . S
O185 C194 1.250 . S
O186 Mn181 2.121 . S
O186 C194 1.258 . S
C187 N188 1.326 . S
C187 C191 1.460 . S
C187 H193 0.929 . S
N188 Mn181 2.257 . S
N188 C187 1.326 . S
N188 C192 1.362 . S
C189 C190 1.258 . S
C189 C192 1.431 . S
C189 C209 1.449 . S
C190 C189 1.258 . S
C190 C191 1.477 . S
C190 H210 0.931 . S
C191 C187 1.460 . S
C191 C190 1.477 . S
C191 H211 0.930 . S
C192 N188 1.362 . S
C192 C189 1.431 . S
C192 C202 1.476 . S
H193 C187 0.929 . S
C194 O185 1.250 . S
C194 O186 1.258 . S
O195 Mn180 2.162 . S
O195 C183 1.281 . S
O196 Mn180 2.297 . S
O196 C183 1.236 . S
N197 Mn181 2.282 . S
N197 C198 1.328 . S
N197 C202 1.318 . S
C198 N197 1.328 . S
C198 C199 1.457 . S
C198 H203 0.929 . S
C199 C198 1.457 . S
C199 C200 1.291 . S
C199 H212 0.931 . S
C200 C199 1.291 . S
C200 C201 1.373 . S
C200 H213 0.929 . S
C201 C200 1.373 . S
C201 C202 1.396 . S
C201 C208 1.403 . S
C202 C192 1.476 . S
C202 N197 1.318 . S
C202 C201 1.396 . S
H203 C198 0.929 . S
O204 Mn180 2.385 . S
O204 C182 1.234 . S
O205 Mn180 2.209 . S
O205 Mn181 2.215 . S
O205 C182 1.283 . S
O206 Mn180 2.094 . S
O206 C184 1.240 . S
O207 Mn181 2.117 . S
O207 C184 1.264 . S
C208 C201 1.403 . S
C208 C209 1.399 . S
C208 H214 0.929 . S
C209 C189 1.449 . S
C209 C208 1.399 . S
C209 H215 0.930 . S
H210 C190 0.931 . S
H211 C191 0.930 . S
H212 C199 0.931 . S
H213 C200 0.929 . S
H214 C208 0.929 . S
H215 C209 0.930 . S
Mn216 O221 2.095 . S
Mn216 O231 2.162 . S
Mn216 O232 2.297 . S
Mn216 O240 2.385 . S
Mn216 O241 2.209 . S
Mn216 O242 2.094 . S
Mn217 O222 2.121 . S
Mn217 N224 2.257 . S
Mn217 N233 2.282 . S
Mn217 O241 2.215 . S
Mn217 O243 2.117 . S
C218 O240 1.234 . S
C218 O241 1.283 . S
C219 O231 1.281 . S
C219 O232 1.236 . S
C220 O242 1.240 . S
C220 O243 1.264 . S
O221 Mn216 2.095 . S
O221 C230 1.250 . S
O222 Mn217 2.121 . S
O222 C230 1.258 . S
C223 N224 1.326 . S
C223 C227 1.460 . S
C223 H229 0.929 . S
N224 Mn217 2.257 . S
N224 C223 1.326 . S
N224 C228 1.362 . S
C225 C226 1.258 . S
C225 C228 1.431 . S
C225 C245 1.449 . S
C226 C225 1.258 . S
C226 C227 1.477 . S
C226 H246 0.931 . S
C227 C223 1.460 . S
C227 C226 1.477 . S
C227 H247 0.930 . S
C228 N224 1.362 . S
C228 C225 1.431 . S
C228 C238 1.476 . S
H229 C223 0.929 . S
C230 O221 1.250 . S
C230 O222 1.258 . S
O231 Mn216 2.162 . S
O231 C219 1.281 . S
O232 Mn216 2.297 . S
O232 C219 1.236 . S
N233 Mn217 2.282 . S
N233 C234 1.328 . S
N233 C238 1.318 . S
C234 N233 1.328 . S
C234 C235 1.457 . S
C234 H239 0.929 . S
C235 C234 1.457 . S
C235 C236 1.291 . S
C235 H248 0.931 . S
C236 C235 1.291 . S
C236 C237 1.373 . S
C236 H249 0.929 . S
C237 C236 1.373 . S
C237 C238 1.396 . S
C237 C244 1.403 . S
C238 C228 1.476 . S
C238 N233 1.318 . S
C238 C237 1.396 . S
H239 C234 0.929 . S
O240 Mn216 2.385 . S
O240 C218 1.234 . S
O241 Mn216 2.209 . S
O241 Mn217 2.215 . S
O241 C218 1.283 . S
O242 Mn216 2.094 . S
O242 C220 1.240 . S
O243 Mn217 2.117 . S
O243 C220 1.264 . S
C244 C237 1.403 . S
C244 C245 1.399 . S
C244 H250 0.929 . S
C245 C225 1.449 . S
C245 C244 1.399 . S
C245 H251 0.930 . S
H246 C226 0.931 . S
H247 C227 0.930 . S
H248 C235 0.931 . S
H249 C236 0.929 . S
H250 C244 0.929 . S
H251 C245 0.930 . S
Mn252 O257 2.095 . S
Mn252 O267 2.162 . S
Mn252 O268 2.297 . S
Mn252 O276 2.385 . S
Mn252 O277 2.209 . S
Mn252 O278 2.094 . S
Mn253 O258 2.121 . S
Mn253 N260 2.257 . S
Mn253 N269 2.282 . S
Mn253 O277 2.215 . S
Mn253 O279 2.117 . S
C254 O276 1.234 . S
C254 O277 1.283 . S
C255 O267 1.281 . S
C255 O268 1.236 . S
C256 O278 1.240 . S
C256 O279 1.264 . S
O257 Mn252 2.095 . S
O257 C266 1.250 . S
O258 Mn253 2.121 . S
O258 C266 1.258 . S
C259 N260 1.326 . S
C259 C263 1.460 . S
C259 H265 0.929 . S
N260 Mn253 2.257 . S
N260 C259 1.326 . S
N260 C264 1.362 . S
C261 C262 1.258 . S
C261 C264 1.431 . S
C261 C281 1.449 . S
C262 C261 1.258 . S
C262 C263 1.477 . S
C262 H282 0.931 . S
C263 C259 1.460 . S
C263 C262 1.477 . S
C263 H283 0.930 . S
C264 N260 1.362 . S
C264 C261 1.431 . S
C264 C274 1.476 . S
H265 C259 0.929 . S
C266 O257 1.250 . S
C266 O258 1.258 . S
O267 Mn252 2.162 . S
O267 C255 1.281 . S
O268 Mn252 2.297 . S
O268 C255 1.236 . S
N269 Mn253 2.282 . S
N269 C270 1.328 . S
N269 C274 1.318 . S
C270 N269 1.328 . S
C270 C271 1.457 1_556 S
C270 H275 0.929 1_556 S
C271 C270 1.457 1_554 S
C271 C272 1.291 . S
C271 H284 0.931 . S
C272 C271 1.291 . S
C272 C273 1.373 1_554 S
C272 H285 0.929 . S
C273 C272 1.373 1_556 S
C273 C274 1.396 . S
C273 C280 1.403 . S
C274 C264 1.476 . S
C274 N269 1.318 . S
C274 C273 1.396 . S
H275 C270 0.929 1_554 S
O276 Mn252 2.385 . S
O276 C254 1.234 . S
O277 Mn252 2.209 . S
O277 Mn253 2.215 . S
O277 C254 1.283 . S
O278 Mn252 2.094 . S
O278 C256 1.240 . S
O279 Mn253 2.117 . S
O279 C256 1.264 . S
C280 C273 1.403 . S
C280 C281 1.399 . S
C280 H286 0.929 . S
C281 C261 1.449 . S
C281 C280 1.399 . S
C281 H287 0.930 . S
H282 C262 0.931 . S
H283 C263 0.930 . S
H284 C271 0.931 . S
H285 C272 0.929 . S
H286 C280 0.929 . S
H287 C281 0.930 . S
Mn288 O293 2.095 . S
Mn288 O303 2.162 . S
Mn288 O304 2.297 . S
Mn288 O312 2.385 . S
Mn288 O313 2.209 . S
Mn288 O314 2.094 . S
Mn289 O294 2.121 . S
Mn289 N296 2.257 . S
Mn289 N305 2.282 . S
Mn289 O313 2.215 . S
Mn289 O315 2.117 . S
C290 O312 1.234 . S
C290 O313 1.283 . S
C291 O303 1.281 . S
C291 O304 1.236 . S
C292 O314 1.240 . S
C292 O315 1.264 . S
O293 Mn288 2.095 . S
O293 C302 1.250 . S
O294 Mn289 2.121 . S
O294 C302 1.258 . S
C295 N296 1.326 . S
C295 C299 1.460 . S
C295 H301 0.929 . S
N296 Mn289 2.257 . S
N296 C295 1.326 . S
N296 C300 1.362 . S
C297 C298 1.258 . S
C297 C300 1.431 . S
C297 C317 1.449 . S
C298 C297 1.258 . S
C298 C299 1.477 . S
C298 H318 0.931 . S
C299 C295 1.460 . S
C299 C298 1.477 . S
C299 H319 0.930 . S
C300 N296 1.362 . S
C300 C297 1.431 . S
C300 C310 1.476 . S
H301 C295 0.929 . S
C302 O293 1.250 . S
C302 O294 1.258 . S
O303 Mn288 2.162 . S
O303 C291 1.281 . S
O304 Mn288 2.297 . S
O304 C291 1.236 . S
N305 Mn289 2.282 . S
N305 C306 1.328 . S
N305 C310 1.318 . S
C306 N305 1.328 . S
C306 C307 1.457 . S
C306 H311 0.929 . S
C307 C306 1.457 . S
C307 C308 1.291 . S
C307 H320 0.931 . S
C308 C307 1.291 . S
C308 C309 1.373 . S
C308 H321 0.929 . S
C309 C308 1.373 . S
C309 C310 1.396 . S
C309 C316 1.403 . S
C310 C300 1.476 . S
C310 N305 1.318 . S
C310 C309 1.396 . S
H311 C306 0.929 . S
O312 Mn288 2.385 . S
O312 C290 1.234 . S
O313 Mn288 2.209 . S
O313 Mn289 2.215 . S
O313 C290 1.283 . S
O314 Mn288 2.094 . S
O314 C292 1.240 . S
O315 Mn289 2.117 . S
O315 C292 1.264 . S
C316 C309 1.403 . S
C316 C317 1.399 . S
C316 H322 0.929 . S
C317 C297 1.449 . S
C317 C316 1.399 . S
C317 H323 0.930 . S
H318 C298 0.931 . S
H319 C299 0.930 . S
H320 C307 0.931 . S
H321 C308 0.929 . S
H322 C316 0.929 . S
H323 C317 0.930 . S
Mn324 O329 2.095 . S
Mn324 O339 2.162 . S
Mn324 O340 2.297 . S
Mn324 O348 2.385 . S
Mn324 O349 2.209 . S
Mn324 O350 2.094 . S
Mn325 O330 2.121 . S
Mn325 N332 2.257 . S
Mn325 N341 2.282 . S
Mn325 O349 2.215 . S
Mn325 O351 2.117 . S
C326 O348 1.234 . S
C326 O349 1.283 . S
C327 O339 1.281 . S
C327 O340 1.236 . S
C328 O350 1.240 . S
C328 O351 1.264 . S
O329 Mn324 2.095 . S
O329 C338 1.250 . S
O330 Mn325 2.121 . S
O330 C338 1.258 . S
C331 N332 1.326 . S
C331 C335 1.460 . S
C331 H337 0.929 . S
N332 Mn325 2.257 . S
N332 C331 1.326 . S
N332 C336 1.362 . S
C333 C334 1.258 . S
C333 C336 1.431 . S
C333 C353 1.449 . S
C334 C333 1.258 . S
C334 C335 1.477 . S
C334 H354 0.931 . S
C335 C331 1.460 . S
C335 C334 1.477 . S
C335 H355 0.930 . S
C336 N332 1.362 . S
C336 C333 1.431 . S
C336 C346 1.476 . S
H337 C331 0.929 . S
C338 O329 1.250 . S
C338 O330 1.258 . S
O339 Mn324 2.162 . S
O339 C327 1.281 . S
O340 Mn324 2.297 . S
O340 C327 1.236 . S
N341 Mn325 2.282 . S
N341 C342 1.328 . S
N341 C346 1.318 . S
C342 N341 1.328 . S
C342 C343 1.457 . S
C342 H347 0.929 . S
C343 C342 1.457 . S
C343 C344 1.291 . S
C343 H356 0.931 1_556 S
C344 C343 1.291 . S
C344 C345 1.373 . S
C344 H357 0.936 . S
C345 C344 1.373 . S
C345 C346 1.396 . S
C345 C352 1.403 . S
C346 C336 1.476 . S
C346 N341 1.318 . S
C346 C345 1.396 . S
H347 C342 0.929 . S
O348 Mn324 2.385 . S
O348 C326 1.234 . S
O349 Mn324 2.209 . S
O349 Mn325 2.215 . S
O349 C326 1.283 . S
O350 Mn324 2.094 . S
O350 C328 1.240 . S
O351 Mn325 2.117 . S
O351 C328 1.264 . S
C352 C345 1.403 . S
C352 C353 1.399 . S
C352 H358 0.929 . S
C353 C333 1.449 . S
C353 C352 1.399 . S
C353 H359 0.930 . S
H354 C334 0.931 . S
H355 C335 0.930 . S
H356 C343 0.931 1_554 S
H357 C344 0.936 . S
H358 C352 0.929 . S
H359 C353 0.930 . S
Mn360 O365 2.095 . S
Mn360 O375 2.162 . S
Mn360 O376 2.297 . S
Mn360 O384 2.385 . S
Mn360 O385 2.209 . S
Mn360 O386 2.094 . S
Mn361 O366 2.121 . S
Mn361 N368 2.257 . S
Mn361 N377 2.282 . S
Mn361 O385 2.215 . S
Mn361 O387 2.117 . S
C362 O384 1.234 . S
C362 O385 1.283 . S
C363 O375 1.281 . S
C363 O376 1.236 . S
C364 O386 1.240 . S
C364 O387 1.264 . S
O365 Mn360 2.095 . S
O365 C374 1.250 . S
O366 Mn361 2.121 . S
O366 C374 1.258 . S
C367 N368 1.326 . S
C367 C371 1.460 . S
C367 H373 0.929 . S
N368 Mn361 2.257 . S
N368 C367 1.326 . S
N368 C372 1.362 . S
C369 C370 1.258 . S
C369 C372 1.431 . S
C369 C389 1.449 . S
C370 C369 1.258 . S
C370 C371 1.477 . S
C370 H390 0.931 . S
C371 C367 1.460 . S
C371 C370 1.477 . S
C371 H391 0.930 . S
C372 N368 1.362 . S
C372 C369 1.431 . S
C372 C382 1.476 . S
H373 C367 0.929 . S
C374 O365 1.250 . S
C374 O366 1.258 . S
O375 Mn360 2.162 . S
O375 C363 1.281 . S
O376 Mn360 2.297 . S
O376 C363 1.236 . S
N377 Mn361 2.282 . S
N377 C378 1.328 . S
N377 C382 1.318 . S
C378 N377 1.328 . S
C378 C379 1.457 . S
C378 H383 0.929 . S
C379 C378 1.457 . S
C379 C380 1.291 . S
C379 H392 0.931 . S
C380 C379 1.291 . S
C380 C381 1.373 . S
C380 H393 0.929 . S
C381 C380 1.373 . S
C381 C382 1.396 . S
C381 C388 1.403 . S
C382 C372 1.476 . S
C382 N377 1.318 . S
C382 C381 1.396 . S
H383 C378 0.929 . S
O384 Mn360 2.385 . S
O384 C362 1.234 . S
O385 Mn360 2.209 . S
O385 Mn361 2.215 . S
O385 C362 1.283 . S
O386 Mn360 2.094 . S
O386 C364 1.240 . S
O387 Mn361 2.117 . S
O387 C364 1.264 . S
C388 C381 1.403 . S
C388 C389 1.399 . S
C388 H394 0.929 . S
C389 C369 1.449 . S
C389 C388 1.399 . S
C389 H395 0.930 . S
H390 C370 0.931 . S
H391 C371 0.930 . S
H392 C379 0.931 . S
H393 C380 0.929 . S
H394 C388 0.929 . S
H395 C389 0.930 . S
Mn396 O401 2.095 . S
Mn396 O411 2.162 . S
Mn396 O412 2.297 . S
Mn396 O420 2.385 . S
Mn396 O421 2.209 . S
Mn396 O422 2.094 . S
Mn397 O402 2.121 . S
Mn397 N404 2.257 . S
Mn397 N413 2.282 . S
Mn397 O421 2.215 . S
Mn397 O423 2.117 . S
C398 O420 1.234 . S
C398 O421 1.283 . S
C399 O411 1.281 . S
C399 O412 1.236 . S
C400 O422 1.240 . S
C400 O423 1.264 . S
O401 Mn396 2.095 . S
O401 C410 1.250 . S
O402 Mn397 2.121 . S
O402 C410 1.258 . S
C403 N404 1.326 . S
C403 C407 1.460 . S
C403 H409 0.929 . S
N404 Mn397 2.257 . S
N404 C403 1.326 . S
N404 C408 1.362 . S
C405 C406 1.258 . S
C405 C408 1.431 . S
C405 C425 1.449 . S
C406 C405 1.258 . S
C406 C407 1.477 . S
C406 H426 0.931 . S
C407 C403 1.460 . S
C407 C406 1.477 . S
C407 H427 0.930 . S
C408 N404 1.362 . S
C408 C405 1.431 . S
C408 C418 1.476 . S
H409 C403 0.929 . S
C410 O401 1.250 . S
C410 O402 1.258 . S
O411 Mn396 2.162 . S
O411 C399 1.281 . S
O412 Mn396 2.297 . S
O412 C399 1.236 . S
N413 Mn397 2.282 . S
N413 C414 1.328 . S
N413 C418 1.318 . S
C414 N413 1.328 . S
C414 C415 1.457 1_556 S
C414 H419 0.929 . S
C415 C414 1.457 1_554 S
C415 C416 1.291 1_554 S
C415 H428 0.931 . S
C416 C415 1.291 1_556 S
C416 C417 1.373 . S
C416 H429 0.929 1_556 S
C417 C416 1.373 . S
C417 C418 1.396 . S
C417 C424 1.403 . S
C418 C408 1.476 . S
C418 N413 1.318 . S
C418 C417 1.396 . S
H419 C414 0.929 . S
O420 Mn396 2.385 . S
O420 C398 1.234 . S
O421 Mn396 2.209 . S
O421 Mn397 2.215 . S
O421 C398 1.283 . S
O422 Mn396 2.094 . S
O422 C400 1.240 . S
O423 Mn397 2.117 . S
O423 C400 1.264 . S
C424 C417 1.403 . S
C424 C425 1.399 . S
C424 H430 0.929 . S
C425 C405 1.449 . S
C425 C424 1.399 . S
C425 H431 0.930 . S
H426 C406 0.931 . S
H427 C407 0.930 . S
H428 C415 0.931 . S
H429 C416 0.929 1_554 S
H430 C424 0.929 . S
H431 C425 0.930 . S
C432 C433 1.391 . S
C432 C434 1.394 . S
C432 H448 0.931 . S
C433 C432 1.391 . S
C433 C437 1.376 . S
C434 C432 1.394 . S
C434 C435 1.369 . S
C434 C438 1.531 . S
C435 C434 1.369 . S
C435 C436 1.410 . S
C435 C443 1.503 . S
C436 C435 1.410 . S
C436 C437 1.392 . S
C436 C439 1.511 . S
C437 C433 1.376 . S
C437 C436 1.392 . S
C437 H449 0.929 . S
C438 C434 1.531 . S
C438 H450 0.960 . S
C438 H451 0.962 . S
C438 H452 0.960 . S
C439 C436 1.511 . S
C439 H453 0.961 . S
C439 H454 0.961 . S
C439 H455 0.961 . S
C440 C441 1.370 . S
C440 C442 1.363 . S
C440 H456 0.931 . S
C441 C440 1.370 . S
C441 C445 1.408 . S
C442 C440 1.363 . S
C442 C443 1.370 . S
C442 C446 1.524 . S
C443 C435 1.503 . S
C443 C442 1.370 . S
C443 C444 1.403 . S
C444 C443 1.403 . S
C444 C445 1.404 . S
C444 C447 1.539 . S
C445 C441 1.408 . S
C445 C444 1.404 . S
C445 H457 0.930 . S
C446 C442 1.524 . S
C446 H458 0.956 . S
C446 H459 0.961 . S
C446 H460 0.961 . S
C447 C444 1.539 . S
C447 H461 0.958 . S
C447 H462 0.961 . S
C447 H463 0.960 . S
H448 C432 0.931 . S
H449 C437 0.929 . S
H450 C438 0.960 . S
H451 C438 0.962 . S
H452 C438 0.960 . S
H453 C439 0.961 . S
H454 C439 0.961 . S
H455 C439 0.961 . S
H456 C440 0.931 . S
H457 C445 0.930 . S
H458 C446 0.956 . S
H459 C446 0.961 . S
H460 C446 0.961 . S
H461 C447 0.958 . S
H462 C447 0.961 . S
H463 C447 0.960 . S
C464 C465 1.391 . S
C464 C466 1.394 . S
C464 H480 0.931 . S
C465 C464 1.391 . S
C465 C469 1.376 . S
C466 C464 1.394 . S
C466 C467 1.369 . S
C466 C470 1.531 . S
C467 C466 1.369 . S
C467 C468 1.410 . S
C467 C475 1.503 . S
C468 C467 1.410 . S
C468 C469 1.392 . S
C468 C471 1.511 . S
C469 C465 1.376 . S
C469 C468 1.392 . S
C469 H481 0.929 . S
C470 C466 1.531 . S
C470 H482 0.960 . S
C470 H483 0.962 . S
C470 H484 0.960 . S
C471 C468 1.511 . S
C471 H485 0.961 . S
C471 H486 0.961 . S
C471 H487 0.961 . S
C472 C473 1.370 . S
C472 C474 1.363 . S
C472 H488 0.931 . S
C473 C472 1.370 . S
C473 C477 1.408 . S
C474 C472 1.363 . S
C474 C475 1.370 . S
C474 C478 1.524 . S
C475 C467 1.503 . S
C475 C474 1.370 . S
C475 C476 1.403 . S
C476 C475 1.403 . S
C476 C477 1.404 . S
C476 C479 1.539 . S
C477 C473 1.408 . S
C477 C476 1.404 . S
C477 H489 0.930 . S
C478 C474 1.524 . S
C478 H490 0.956 . S
C478 H491 0.961 . S
C478 H492 0.961 . S
C479 C476 1.539 . S
C479 H493 0.958 . S
C479 H494 0.961 . S
C479 H495 0.960 . S
H480 C464 0.931 . S
H481 C469 0.929 . S
H482 C470 0.960 . S
H483 C470 0.962 . S
H484 C470 0.960 . S
H485 C471 0.961 . S
H486 C471 0.961 . S
H487 C471 0.961 . S
H488 C472 0.931 . S
H489 C477 0.930 . S
H490 C478 0.956 . S
H491 C478 0.961 . S
H492 C478 0.961 . S
H493 C479 0.958 . S
H494 C479 0.961 . S
H495 C479 0.960 . S
C496 C497 1.391 . S
C496 C498 1.394 . S
C496 H512 0.931 . S
C497 C496 1.391 . S
C497 C501 1.376 . S
C498 C496 1.394 . S
C498 C499 1.369 . S
C498 C502 1.531 . S
C499 C498 1.369 . S
C499 C500 1.410 . S
C499 C507 1.503 . S
C500 C499 1.410 . S
C500 C501 1.392 . S
C500 C503 1.511 . S
C501 C497 1.376 . S
C501 C500 1.392 . S
C501 H513 0.929 . S
C502 C498 1.531 . S
C502 H514 0.960 . S
C502 H515 0.962 . S
C502 H516 0.960 . S
C503 C500 1.511 . S
C503 H517 0.961 . S
C503 H518 0.961 . S
C503 H519 0.961 . S
C504 C505 1.370 . S
C504 C506 1.363 . S
C504 H520 0.931 . S
C505 C504 1.370 . S
C505 C509 1.408 . S
C506 C504 1.363 . S
C506 C507 1.370 . S
C506 C510 1.524 . S
C507 C499 1.503 . S
C507 C506 1.370 . S
C507 C508 1.403 . S
C508 C507 1.403 . S
C508 C509 1.404 . S
C508 C511 1.539 . S
C509 C505 1.408 . S
C509 C508 1.404 . S
C509 H521 0.930 . S
C510 C506 1.524 . S
C510 H522 0.956 . S
C510 H523 0.961 . S
C510 H524 0.961 . S
C511 C508 1.539 . S
C511 H525 0.958 . S
C511 H526 0.961 . S
C511 H527 0.960 . S
H512 C496 0.931 . S
H513 C501 0.929 . S
H514 C502 0.960 . S
H515 C502 0.962 . S
H516 C502 0.960 . S
H517 C503 0.961 . S
H518 C503 0.961 . S
H519 C503 0.961 . S
H520 C504 0.931 . S
H521 C509 0.930 . S
H522 C510 0.956 . S
H523 C510 0.961 . S
H524 C510 0.961 . S
H525 C511 0.958 . S
H526 C511 0.961 . S
H527 C511 0.960 . S
C528 C529 1.391 . S
C528 C530 1.394 . S
C528 H544 0.931 . S
C529 C528 1.391 . S
C529 C533 1.376 . S
C530 C528 1.394 . S
C530 C531 1.369 . S
C530 C534 1.531 . S
C531 C530 1.369 . S
C531 C532 1.410 . S
C531 C539 1.503 . S
C532 C531 1.410 . S
C532 C533 1.392 . S
C532 C535 1.511 . S
C533 C529 1.376 . S
C533 C532 1.392 . S
C533 H545 0.929 . S
C534 C530 1.531 . S
C534 H546 0.960 . S
C534 H547 0.962 . S
C534 H548 0.960 . S
C535 C532 1.511 . S
C535 H549 0.961 . S
C535 H550 0.961 . S
C535 H551 0.961 . S
C536 C537 1.370 . S
C536 C538 1.363 . S
C536 H552 0.931 . S
C537 C536 1.370 . S
C537 C541 1.408 . S
C538 C536 1.363 . S
C538 C539 1.370 . S
C538 C542 1.524 . S
C539 C531 1.503 . S
C539 C538 1.370 . S
C539 C540 1.403 . S
C540 C539 1.403 . S
C540 C541 1.404 . S
C540 C543 1.539 . S
C541 C537 1.408 . S
C541 C540 1.404 . S
C541 H553 0.930 . S
C542 C538 1.524 . S
C542 H554 0.956 . S
C542 H555 0.961 . S
C542 H556 0.961 . S
C543 C540 1.539 . S
C543 H557 0.958 . S
C543 H558 0.961 . S
C543 H559 0.960 . S
H544 C528 0.931 . S
H545 C533 0.929 . S
H546 C534 0.960 . S
H547 C534 0.962 . S
H548 C534 0.960 . S
H549 C535 0.961 . S
H550 C535 0.961 . S
H551 C535 0.961 . S
H552 C536 0.931 . S
H553 C541 0.930 . S
H554 C542 0.956 . S
H555 C542 0.961 . S
H556 C542 0.961 . S
H557 C543 0.958 . S
H558 C543 0.961 . S
H559 C543 0.960 . S
C560 C561 1.391 . S
C560 C562 1.394 . S
C560 H576 0.931 . S
C561 C560 1.391 . S
C561 C565 1.376 . S
C562 C560 1.394 . S
C562 C563 1.369 . S
C562 C566 1.531 . S
C563 C562 1.369 . S
C563 C564 1.410 . S
C563 C571 1.503 . S
C564 C563 1.410 . S
C564 C565 1.392 . S
C564 C567 1.511 . S
C565 C561 1.376 . S
C565 C564 1.392 . S
C565 H577 0.929 . S
C566 C562 1.531 . S
C566 H578 0.960 . S
C566 H579 0.962 . S
C566 H580 0.960 . S
C567 C564 1.511 . S
C567 H581 0.961 . S
C567 H582 0.961 . S
C567 H583 0.961 . S
C568 C569 1.370 . S
C568 C570 1.363 . S
C568 H584 0.931 . S
C569 C568 1.370 . S
C569 C573 1.408 . S
C570 C568 1.363 . S
C570 C571 1.370 . S
C570 C574 1.524 . S
C571 C563 1.503 . S
C571 C570 1.370 . S
C571 C572 1.403 . S
C572 C571 1.403 . S
C572 C573 1.404 . S
C572 C575 1.539 . S
C573 C569 1.408 . S
C573 C572 1.404 . S
C573 H585 0.930 . S
C574 C570 1.524 . S
C574 H586 0.956 . S
C574 H587 0.961 . S
C574 H588 0.961 . S
C575 C572 1.539 . S
C575 H589 0.958 . S
C575 H590 0.961 . S
C575 H591 0.960 . S
H576 C560 0.931 . S
H577 C565 0.929 . S
H578 C566 0.960 . S
H579 C566 0.962 . S
H580 C566 0.960 . S
H581 C567 0.961 . S
H582 C567 0.961 . S
H583 C567 0.961 . S
H584 C568 0.931 . S
H585 C573 0.930 . S
H586 C574 0.956 . S
H587 C574 0.961 . S
H588 C574 0.961 . S
H589 C575 0.958 . S
H590 C575 0.961 . S
H591 C575 0.960 . S
C592 C593 1.391 . S
C592 C594 1.394 . S
C592 H608 0.931 . S
C593 C592 1.391 . S
C593 C597 1.376 . S
C594 C592 1.394 . S
C594 C595 1.369 . S
C594 C598 1.531 . S
C595 C594 1.369 . S
C595 C596 1.410 . S
C595 C603 1.503 . S
C596 C595 1.410 . S
C596 C597 1.392 . S
C596 C599 1.511 . S
C597 C593 1.376 . S
C597 C596 1.392 . S
C597 H609 0.929 . S
C598 C594 1.531 . S
C598 H610 0.960 . S
C598 H611 0.962 . S
C598 H612 0.960 . S
C599 C596 1.511 . S
C599 H613 0.961 . S
C599 H614 0.961 . S
C599 H615 0.961 . S
C600 C601 1.370 . S
C600 C602 1.363 . S
C600 H616 0.931 . S
C601 C600 1.370 . S
C601 C605 1.408 . S
C602 C600 1.363 . S
C602 C603 1.370 . S
C602 C606 1.524 . S
C603 C595 1.503 . S
C603 C602 1.370 . S
C603 C604 1.403 . S
C604 C603 1.403 . S
C604 C605 1.404 . S
C604 C607 1.539 . S
C605 C601 1.408 . S
C605 C604 1.404 . S
C605 H617 0.930 . S
C606 C602 1.524 . S
C606 H618 0.956 . S
C606 H619 0.961 . S
C606 H620 0.961 . S
C607 C604 1.539 . S
C607 H621 0.958 . S
C607 H622 0.961 . S
C607 H623 0.960 . S
H608 C592 0.931 . S
H609 C597 0.929 . S
H610 C598 0.960 . S
H611 C598 0.962 . S
H612 C598 0.960 . S
H613 C599 0.961 . S
H614 C599 0.961 . S
H615 C599 0.961 . S
H616 C600 0.931 . S
H617 C605 0.930 . S
H618 C606 0.956 . S
H619 C606 0.961 . S
H620 C606 0.961 . S
H621 C607 0.958 . S
H622 C607 0.961 . S
H623 C607 0.960 . S
C624 C625 1.391 . S
C624 C626 1.394 . S
C624 H640 0.936 . S
C625 C624 1.391 . S
C625 C629 1.376 . S
C626 C624 1.394 . S
C626 C627 1.369 . S
C626 C630 1.531 1_544 S
C627 C626 1.369 . S
C627 C628 1.410 . S
C627 C635 1.503 1_545 S
C628 C627 1.410 . S
C628 C629 1.392 . S
C628 C631 1.511 . S
C629 C625 1.376 . S
C629 C628 1.392 . S
C629 H641 0.929 . S
C630 C626 1.531 1_566 S
C630 H642 0.960 . S
C630 H643 0.962 . S
C630 H644 0.960 . S
C631 C628 1.511 . S
C631 H645 0.961 . S
C631 H646 0.961 . S
C631 H647 0.961 . S
C632 C633 1.370 . S
C632 C634 1.363 . S
C632 H648 0.931 . S
C633 C632 1.370 . S
C633 C637 1.408 1_556 S
C634 C632 1.363 . S
C634 C635 1.370 1_556 S
C634 C638 1.524 1_565 S
C635 C627 1.503 1_565 S
C635 C634 1.370 1_554 S
C635 C636 1.403 . S
C636 C635 1.403 . S
C636 C637 1.404 . S
C636 C639 1.539 . S
C637 C633 1.408 1_554 S
C637 C636 1.404 . S
C637 H649 0.930 . S
C638 C634 1.524 1_545 S
C638 H650 0.956 . S
C638 H651 0.961 . S
C638 H652 0.961 . S
C639 C636 1.539 . S
C639 H653 0.958 . S
C639 H654 0.961 . S
C639 H655 0.960 . S
H640 C624 0.936 . S
H641 C629 0.929 . S
H642 C630 0.960 . S
H643 C630 0.962 . S
H644 C630 0.960 . S
H645 C631 0.961 . S
H646 C631 0.961 . S
H647 C631 0.961 . S
H648 C632 0.931 . S
H649 C637 0.930 . S
H650 C638 0.956 . S
H651 C638 0.961 . S
H652 C638 0.961 . S
H653 C639 0.958 . S
H654 C639 0.961 . S
H655 C639 0.960 . S
C656 C657 1.391 . S
C656 C658 1.394 . S
C656 H672 0.931 . S
C657 C656 1.391 . S
C657 C661 1.376 . S
C658 C656 1.394 . S
C658 C659 1.369 . S
C658 C662 1.531 . S
C659 C658 1.369 . S
C659 C660 1.410 . S
C659 C667 1.503 . S
C660 C659 1.410 . S
C660 C661 1.392 . S
C660 C663 1.511 . S
C661 C657 1.376 . S
C661 C660 1.392 . S
C661 H673 0.929 . S
C662 C658 1.531 . S
C662 H674 0.960 . S
C662 H675 0.962 . S
C662 H676 0.960 . S
C663 C660 1.511 . S
C663 H677 0.961 . S
C663 H678 0.961 . S
C663 H679 0.961 . S
C664 C665 1.370 . S
C664 C666 1.363 . S
C664 H680 0.931 . S
C665 C664 1.370 . S
C665 C669 1.408 . S
C666 C664 1.363 . S
C666 C667 1.370 . S
C666 C670 1.524 . S
C667 C659 1.503 . S
C667 C666 1.370 . S
C667 C668 1.403 . S
C668 C667 1.403 . S
C668 C669 1.404 . S
C668 C671 1.539 . S
C669 C665 1.408 . S
C669 C668 1.404 . S
C669 H681 0.930 . S
C670 C666 1.524 . S
C670 H682 0.956 . S
C670 H683 0.961 . S
C670 H684 0.961 . S
C671 C668 1.539 . S
C671 H685 0.958 . S
C671 H686 0.961 . S
C671 H687 0.960 . S
H672 C656 0.931 . S
H673 C661 0.929 . S
H674 C662 0.960 . S
H675 C662 0.962 . S
H676 C662 0.960 . S
H677 C663 0.961 . S
H678 C663 0.961 . S
H679 C663 0.961 . S
H680 C664 0.931 . S
H681 C669 0.930 . S
H682 C670 0.956 . S
H683 C670 0.961 . S
H684 C670 0.961 . S
H685 C671 0.958 . S
H686 C671 0.961 . S
H687 C671 0.960 . S
C688 C689 1.391 . S
C688 C690 1.394 . S
C688 H704 0.931 . S
C689 C688 1.391 . S
C689 C693 1.376 1_556 S
C690 C688 1.394 . S
C690 C691 1.369 . S
C690 C694 1.531 . S
C691 C690 1.369 . S
C691 C692 1.410 1_556 S
C691 C699 1.503 1_456 S
C692 C691 1.410 1_554 S
C692 C693 1.392 . S
C692 C695 1.511 . S
C693 C689 1.376 1_554 S
C693 C692 1.392 . S
C693 H705 0.929 . S
C694 C690 1.531 . S
C694 H706 0.964 . S
C694 H707 0.962 1_455 S
C694 H708 0.960 . S
C695 C692 1.511 . S
C695 H709 0.961 . S
C695 H710 0.961 . S
C695 H711 0.961 . S
C696 C697 1.370 . S
C696 C698 1.363 . S
C696 H712 0.931 . S
C697 C696 1.370 . S
C697 C701 1.408 . S
C698 C696 1.363 . S
C698 C699 1.370 . S
C698 C702 1.524 1_554 S
C699 C691 1.503 1_654 S
C699 C698 1.370 . S
C699 C700 1.403 . S
C700 C699 1.403 . S
C700 C701 1.404 . S
C700 C703 1.539 1_655 S
C701 C697 1.408 . S
C701 C700 1.404 . S
C701 H713 0.930 . S
C702 C698 1.524 1_556 S
C702 H714 0.956 . S
C702 H715 0.961 1_556 S
C702 H716 0.961 . S
C703 C700 1.539 1_455 S
C703 H717 0.958 1_554 S
C703 H718 0.961 . S
C703 H719 0.960 . S
H704 C688 0.931 . S
H705 C693 0.929 . S
H706 C694 0.964 . S
H707 C694 0.962 1_655 S
H708 C694 0.960 . S
H709 C695 0.961 . S
H710 C695 0.961 . S
H711 C695 0.961 . S
H712 C696 0.931 . S
H713 C701 0.930 . S
H714 C702 0.956 . S
H715 C702 0.961 1_554 S
H716 C702 0.961 . S
H717 C703 0.958 1_556 S
H718 C703 0.961 . S
H719 C703 0.960 . S
C720 C721 1.391 . S
C720 C722 1.394 . S
C720 H736 0.931 . S
C721 C720 1.391 . S
C721 C725 1.376 . S
C722 C720 1.394 . S
C722 C723 1.369 . S
C722 C726 1.531 1_545 S
C723 C722 1.369 . S
C723 C724 1.410 . S
C723 C731 1.503 1_545 S
C724 C723 1.410 . S
C724 C725 1.392 . S
C724 C727 1.511 . S
C725 C721 1.376 . S
C725 C724 1.392 . S
C725 H737 0.929 . S
C726 C722 1.531 1_565 S
C726 H738 0.960 . S
C726 H739 0.962 . S
C726 H740 0.960 . S
C727 C724 1.511 . S
C727 H741 0.961 . S
C727 H742 0.961 . S
C727 H743 0.961 . S
C728 C729 1.370 . S
C728 C730 1.363 . S
C728 H744 0.931 . S
C729 C728 1.370 . S
C729 C733 1.408 . S
C730 C728 1.363 . S
C730 C731 1.370 . S
C730 C734 1.524 . S
C731 C723 1.503 1_565 S
C731 C730 1.370 . S
C731 C732 1.403 . S
C732 C731 1.403 . S
C732 C733 1.404 . S
C732 C735 1.539 1_565 S
C733 C729 1.408 . S
C733 C732 1.404 . S
C733 H745 0.930 . S
C734 C730 1.524 . S
C734 H746 0.956 . S
C734 H747 0.961 . S
C734 H748 0.961 . S
C735 C732 1.539 1_545 S
C735 H749 0.944 1_545 S
C735 H750 0.961 . S
C735 H751 0.960 . S
H736 C720 0.931 . S
H737 C725 0.929 . S
H738 C726 0.960 . S
H739 C726 0.962 . S
H740 C726 0.960 . S
H741 C727 0.961 . S
H742 C727 0.961 . S
H743 C727 0.961 . S
H744 C728 0.931 . S
H745 C733 0.930 . S
H746 C734 0.956 . S
H747 C734 0.961 . S
H748 C734 0.961 . S
H749 C735 0.944 1_565 S
H750 C735 0.961 . S
H751 C735 0.960 . S
C752 C753 1.391 . S
C752 C754 1.394 . S
C752 H768 0.931 . S
C753 C752 1.391 . S
C753 C757 1.376 1_556 S
C754 C752 1.394 . S
C754 C755 1.369 . S
C754 C758 1.531 . S
C755 C754 1.369 . S
C755 C756 1.410 1_556 S
C755 C763 1.503 1_556 S
C756 C755 1.410 1_554 S
C756 C757 1.392 . S
C756 C759 1.511 . S
C757 C753 1.376 1_554 S
C757 C756 1.392 . S
C757 H769 0.929 . S
C758 C754 1.531 . S
C758 H770 0.960 . S
C758 H771 0.962 . S
C758 H772 0.960 . S
C759 C756 1.511 . S
C759 H773 0.961 . S
C759 H774 0.961 . S
C759 H775 0.961 . S
C760 C761 1.370 . S
C760 C762 1.363 . S
C760 H776 0.931 . S
C761 C760 1.370 . S
C761 C765 1.408 . S
C762 C760 1.363 . S
C762 C763 1.370 . S
C762 C766 1.524 1_554 S
C763 C755 1.503 1_554 S
C763 C762 1.370 . S
C763 C764 1.403 . S
C764 C763 1.403 . S
C764 C765 1.404 . S
C764 C767 1.539 . S
C765 C761 1.408 . S
C765 C764 1.404 . S
C765 H777 0.930 . S
C766 C762 1.524 1_556 S
C766 H778 0.956 . S
C766 H779 0.961 . S
C766 H780 0.961 . S
C767 C764 1.539 . S
C767 H781 0.958 . S
C767 H782 0.961 . S
C767 H783 0.960 . S
H768 C752 0.931 . S
H769 C757 0.929 . S
H770 C758 0.960 . S
H771 C758 0.962 . S
H772 C758 0.960 . S
H773 C759 0.961 . S
H774 C759 0.961 . S
H775 C759 0.961 . S
H776 C760 0.931 . S
H777 C765 0.930 . S
H778 C766 0.956 . S
H779 C766 0.961 . S
H780 C766 0.961 . S
H781 C767 0.958 . S
H782 C767 0.961 . S
H783 C767 0.960 . S
C784 C785 1.391 . S
C784 C786 1.394 . S
C784 H800 0.931 . S
C785 C784 1.391 . S
C785 C789 1.376 . S
C786 C784 1.394 . S
C786 C787 1.369 . S
C786 C790 1.531 . S
C787 C786 1.369 . S
C787 C788 1.410 . S
C787 C795 1.503 1_655 S
C788 C787 1.410 . S
C788 C789 1.392 . S
C788 C791 1.511 . S
C789 C785 1.376 . S
C789 C788 1.392 . S
C789 H801 0.929 . S
C790 C786 1.531 . S
C790 H802 0.960 . S
C790 H803 0.962 . S
C790 H804 0.960 . S
C791 C788 1.511 . S
C791 H805 0.961 . S
C791 H806 0.961 1_655 S
C791 H807 0.961 . S
C792 C793 1.370 . S
C792 C794 1.363 . S
C792 H808 0.931 . S
C793 C792 1.370 . S
C793 C797 1.408 . S
C794 C792 1.363 . S
C794 C795 1.370 . S
C794 C798 1.524 . S
C795 C787 1.503 1_455 S
C795 C794 1.370 . S
C795 C796 1.403 . S
C796 C795 1.403 . S
C796 C797 1.404 . S
C796 C799 1.539 1_455 S
C797 C793 1.408 . S
C797 C796 1.404 . S
C797 H809 0.930 . S
C798 C794 1.524 . S
C798 H810 0.956 . S
C798 H811 0.961 . S
C798 H812 0.961 . S
C799 C796 1.539 1_655 S
C799 H813 0.958 . S
C799 H814 0.961 . S
C799 H815 0.960 . S
H800 C784 0.931 . S
H801 C789 0.929 . S
H802 C790 0.960 . S
H803 C790 0.962 . S
H804 C790 0.960 . S
H805 C791 0.961 . S
H806 C791 0.961 1_455 S
H807 C791 0.961 . S
H808 C792 0.931 . S
H809 C797 0.930 . S
H810 C798 0.956 . S
H811 C798 0.961 . S
H812 C798 0.961 . S
H813 C799 0.958 . S
H814 C799 0.961 . S
H815 C799 0.960 . S
C816 C817 1.391 . S
C816 C818 1.394 . S
C816 H832 0.931 . S
C817 C816 1.391 . S
C817 C821 1.376 . S
C818 C816 1.394 . S
C818 C819 1.369 . S
C818 C822 1.531 . S
C819 C818 1.369 . S
C819 C820 1.410 . S
C819 C827 1.503 . S
C820 C819 1.410 . S
C820 C821 1.392 . S
C820 C823 1.511 . S
C821 C817 1.376 . S
C821 C820 1.392 . S
C821 H833 0.929 . S
C822 C818 1.531 . S
C822 H834 0.960 . S
C822 H835 0.962 . S
C822 H836 0.960 . S
C823 C820 1.511 . S
C823 H837 0.961 . S
C823 H838 0.961 . S
C823 H839 0.961 . S
C824 C825 1.370 . S
C824 C826 1.363 . S
C824 H840 0.931 . S
C825 C824 1.370 . S
C825 C829 1.408 . S
C826 C824 1.363 . S
C826 C827 1.370 . S
C826 C830 1.524 . S
C827 C819 1.503 . S
C827 C826 1.370 . S
C827 C828 1.403 . S
C828 C827 1.403 . S
C828 C829 1.404 . S
C828 C831 1.539 1_554 S
C829 C825 1.408 . S
C829 C828 1.404 . S
C829 H841 0.930 . S
C830 C826 1.524 . S
C830 H842 0.956 . S
C830 H843 0.961 . S
C830 H844 0.961 . S
C831 C828 1.539 1_556 S
C831 H845 0.958 . S
C831 H846 0.961 . S
C831 H847 0.960 . S
H832 C816 0.931 . S
H833 C821 0.929 . S
H834 C822 0.960 . S
H835 C822 0.962 . S
H836 C822 0.960 . S
H837 C823 0.961 . S
H838 C823 0.961 . S
H839 C823 0.961 . S
H840 C824 0.931 . S
H841 C829 0.930 . S
H842 C830 0.956 . S
H843 C830 0.961 . S
H844 C830 0.961 . S
H845 C831 0.958 . S
H846 C831 0.961 . S
H847 C831 0.960 . S
C848 C849 1.391 . S
C848 C850 1.394 . S
C848 H864 0.931 . S
C849 C848 1.391 . S
C849 C853 1.376 . S
C850 C848 1.394 . S
C850 C851 1.369 . S
C850 C854 1.531 . S
C851 C850 1.369 . S
C851 C852 1.410 . S
C851 C859 1.503 . S
C852 C851 1.410 . S
C852 C853 1.392 . S
C852 C855 1.511 . S
C853 C849 1.376 . S
C853 C852 1.392 . S
C853 H865 0.929 . S
C854 C850 1.531 . S
C854 H866 0.960 . S
C854 H867 0.962 . S
C854 H868 0.960 . S
C855 C852 1.511 . S
C855 H869 0.961 . S
C855 H870 0.961 . S
C855 H871 0.961 . S
C856 C857 1.370 . S
C856 C858 1.363 . S
C856 H872 0.931 . S
C857 C856 1.370 . S
C857 C861 1.408 . S
C858 C856 1.363 . S
C858 C859 1.370 . S
C858 C862 1.524 . S
C859 C851 1.503 . S
C859 C858 1.370 . S
C859 C860 1.403 . S
C860 C859 1.403 . S
C860 C861 1.404 . S
C860 C863 1.539 . S
C861 C857 1.408 . S
C861 C860 1.404 . S
C861 H873 0.930 . S
C862 C858 1.524 . S
C862 H874 0.956 . S
C862 H875 0.961 . S
C862 H876 0.961 . S
C863 C860 1.539 . S
C863 H877 0.958 . S
C863 H878 0.961 . S
C863 H879 0.960 . S
H864 C848 0.931 . S
H865 C853 0.929 . S
H866 C854 0.960 . S
H867 C854 0.962 . S
H868 C854 0.960 . S
H869 C855 0.961 . S
H870 C855 0.961 . S
H871 C855 0.961 . S
H872 C856 0.931 . S
H873 C861 0.930 . S
H874 C862 0.956 . S
H875 C862 0.961 . S
H876 C862 0.961 . S
H877 C863 0.958 . S
H878 C863 0.961 . S
H879 C863 0.960 . S
C880 C881 1.403 . S
C880 C882 1.395 . S
C880 H896 0.918 1_554 S
C881 C880 1.403 . S
C881 C885 1.376 . S
C882 C880 1.395 . S
C882 C883 1.369 . S
C882 C886 1.531 1_554 S
C883 C882 1.369 . S
C883 C884 1.410 . S
C883 C891 1.503 . S
C884 C883 1.410 . S
C884 C885 1.392 . S
C884 C887 1.511 . S
C885 C881 1.376 . S
C885 C884 1.392 . S
C885 H897 0.929 . S
C886 C882 1.531 1_556 S
C886 H898 0.960 . S
C886 H899 0.962 . S
C886 H900 0.960 . S
C887 C884 1.511 . S
C887 H901 0.961 . S
C887 H902 0.961 . S
C887 H903 0.961 . S
C888 C889 1.370 . S
C888 C890 1.363 . S
C888 H904 0.931 . S
C889 C888 1.370 . S
C889 C893 1.408 . S
C890 C888 1.363 . S
C890 C891 1.370 . S
C890 C894 1.524 . S
C891 C883 1.503 . S
C891 C890 1.370 . S
C891 C892 1.403 . S
C892 C891 1.403 . S
C892 C893 1.404 . S
C892 C895 1.539 . S
C893 C889 1.408 . S
C893 C892 1.404 . S
C893 H905 0.930 . S
C894 C890 1.524 . S
C894 H906 0.956 . S
C894 H907 0.961 . S
C894 H908 0.961 . S
C895 C892 1.539 . S
C895 H909 0.958 . S
C895 H910 0.961 . S
C895 H911 0.960 . S
H896 C880 0.918 1_556 S
H897 C885 0.929 . S
H898 C886 0.960 . S
H899 C886 0.962 . S
H900 C886 0.960 . S
H901 C887 0.961 . S
H902 C887 0.961 . S
H903 C887 0.961 . S
H904 C888 0.931 . S
H905 C893 0.930 . S
H906 C894 0.956 . S
H907 C894 0.961 . S
H908 C894 0.961 . S
H909 C895 0.958 . S
H910 C895 0.961 . S
H911 C895 0.960 . S
C912 C913 1.391 . S
C912 C914 1.394 . S
C912 H928 0.931 . S
C913 C912 1.391 . S
C913 C917 1.376 . S
C914 C912 1.394 . S
C914 C915 1.369 . S
C914 C918 1.531 . S
C915 C914 1.369 . S
C915 C916 1.410 . S
C915 C923 1.503 . S
C916 C915 1.410 . S
C916 C917 1.392 . S
C916 C919 1.511 . S
C917 C913 1.376 . S
C917 C916 1.392 . S
C917 H929 0.929 . S
C918 C914 1.531 . S
C918 H930 0.960 . S
C918 H931 0.962 . S
C918 H932 0.960 . S
C919 C916 1.511 . S
C919 H933 0.961 . S
C919 H934 0.961 . S
C919 H935 0.961 . S
C920 C921 1.370 . S
C920 C922 1.363 . S
C920 H936 0.931 . S
C921 C920 1.370 . S
C921 C925 1.408 . S
C922 C920 1.363 . S
C922 C923 1.370 . S
C922 C926 1.524 . S
C923 C915 1.503 . S
C923 C922 1.370 . S
C923 C924 1.403 . S
C924 C923 1.403 . S
C924 C925 1.404 . S
C924 C927 1.539 . S
C925 C921 1.408 . S
C925 C924 1.404 . S
C925 H937 0.930 . S
C926 C922 1.524 . S
C926 H938 0.956 . S
C926 H939 0.961 . S
C926 H940 0.961 . S
C927 C924 1.539 . S
C927 H941 0.958 . S
C927 H942 0.961 . S
C927 H943 0.960 . S
H928 C912 0.931 . S
H929 C917 0.929 . S
H930 C918 0.960 . S
H931 C918 0.962 . S
H932 C918 0.960 . S
H933 C919 0.961 . S
H934 C919 0.961 . S
H935 C919 0.961 . S
H936 C920 0.931 . S
H937 C925 0.930 . S
H938 C926 0.956 . S
H939 C926 0.961 . S
H940 C926 0.961 . S
H941 C927 0.958 . S
H942 C927 0.961 . S
H943 C927 0.960 . S
C944 C945 1.391 . S
C944 C946 1.394 . S
C944 H960 0.931 . S
C945 C944 1.391 . S
C945 C949 1.376 . S
C946 C944 1.394 . S
C946 C947 1.369 . S
C946 C950 1.531 . S
C947 C946 1.369 . S
C947 C948 1.410 . S
C947 C955 1.503 . S
C948 C947 1.410 . S
C948 C949 1.392 . S
C948 C951 1.511 . S
C949 C945 1.376 . S
C949 C948 1.392 . S
C949 H961 0.929 . S
C950 C946 1.531 . S
C950 H962 0.960 . S
C950 H963 0.962 . S
C950 H964 0.960 . S
C951 C948 1.511 . S
C951 H965 0.961 . S
C951 H966 0.961 . S
C951 H967 0.961 1_554 S
C952 C953 1.370 . S
C952 C954 1.363 . S
C952 H968 0.931 . S
C953 C952 1.370 . S
C953 C957 1.408 . S
C954 C952 1.363 . S
C954 C955 1.370 . S
C954 C958 1.524 . S
C955 C947 1.503 . S
C955 C954 1.370 . S
C955 C956 1.403 . S
C956 C955 1.403 . S
C956 C957 1.404 . S
C956 C959 1.539 1_554 S
C957 C953 1.408 . S
C957 C956 1.404 . S
C957 H969 0.930 . S
C958 C954 1.524 . S
C958 H970 0.956 . S
C958 H971 0.961 . S
C958 H972 0.961 . S
C959 C956 1.539 1_556 S
C959 H973 0.958 . S
C959 H974 0.961 . S
C959 H975 0.960 . S
H960 C944 0.931 . S
H961 C949 0.929 . S
H962 C950 0.960 . S
H963 C950 0.962 . S
H964 C950 0.960 . S
H965 C951 0.961 . S
H966 C951 0.961 . S
H967 C951 0.961 1_556 S
H968 C952 0.931 . S
H969 C957 0.930 . S
H970 C958 0.956 . S
H971 C958 0.961 . S
H972 C958 0.961 . S
H973 C959 0.958 . S
H974 C959 0.961 . S
H975 C959 0.960 . S
C976 C977 1.391 . S
C976 C978 1.394 . S
C976 H992 0.931 . S
C977 C976 1.391 . S
C977 C981 1.376 . S
C978 C976 1.394 . S
C978 C979 1.369 . S
C978 C982 1.531 . S
C979 C978 1.369 . S
C979 C980 1.410 . S
C979 C987 1.503 . S
C980 C979 1.410 . S
C980 C981 1.392 . S
C980 C983 1.511 . S
C981 C977 1.376 . S
C981 C980 1.392 . S
C981 H993 0.929 . S
C982 C978 1.531 . S
C982 H994 0.960 . S
C982 H995 0.962 . S
C982 H996 0.960 . S
C983 C980 1.511 . S
C983 H997 0.961 . S
C983 H998 0.961 . S
C983 H999 0.961 . S
C984 C985 1.370 . S
C984 C986 1.363 . S
C984 H1000 0.931 . S
C985 C984 1.370 . S
C985 C989 1.408 . S
C986 C984 1.363 . S
C986 C987 1.370 . S
C986 C990 1.524 . S
C987 C979 1.503 . S
C987 C986 1.370 . S
C987 C988 1.403 . S
C988 C987 1.403 . S
C988 C989 1.404 . S
C988 C991 1.539 . S
C989 C985 1.408 . S
C989 C988 1.404 . S
C989 H1001 0.930 . S
C990 C986 1.524 . S
C990 H1002 0.956 . S
C990 H1003 0.961 . S
C990 H1004 0.961 . S
C991 C988 1.539 . S
C991 H1005 0.958 . S
C991 H1006 0.961 . S
C991 H1007 0.960 . S
H992 C976 0.931 . S
H993 C981 0.929 . S
H994 C982 0.960 . S
H995 C982 0.962 . S
H996 C982 0.960 . S
H997 C983 0.961 . S
H998 C983 0.961 . S
H999 C983 0.961 . S
H1000 C984 0.931 . S
H1001 C989 0.930 . S
H1002 C990 0.956 . S
H1003 C990 0.961 . S
H1004 C990 0.961 . S
H1005 C991 0.958 . S
H1006 C991 0.961 . S
H1007 C991 0.960 . S
C1008 C1009 1.391 . S
C1008 C1010 1.394 . S
C1008 H1024 0.931 . S
C1009 C1008 1.391 . S
C1009 C1013 1.376 . S
C1010 C1008 1.394 . S
C1010 C1011 1.369 . S
C1010 C1014 1.531 . S
C1011 C1010 1.369 . S
C1011 C1012 1.410 . S
C1011 C1019 1.503 . S
C1012 C1011 1.410 . S
C1012 C1013 1.392 . S
C1012 C1015 1.511 . S
C1013 C1009 1.376 . S
C1013 C1012 1.392 . S
C1013 H1025 0.929 . S
C1014 C1010 1.531 . S
C1014 H1026 0.960 . S
C1014 H1027 0.962 . S
C1014 H1028 0.960 . S
C1015 C1012 1.511 . S
C1015 H1029 0.961 . S
C1015 H1030 0.961 . S
C1015 H1031 0.961 . S
C1016 C1017 1.370 . S
C1016 C1018 1.363 . S
C1016 H1032 0.931 . S
C1017 C1016 1.370 . S
C1017 C1021 1.408 . S
C1018 C1016 1.363 . S
C1018 C1019 1.370 . S
C1018 C1022 1.524 . S
C1019 C1011 1.503 . S
C1019 C1018 1.370 . S
C1019 C1020 1.403 . S
C1020 C1019 1.403 . S
C1020 C1021 1.404 . S
C1020 C1023 1.539 . S
C1021 C1017 1.408 . S
C1021 C1020 1.404 . S
C1021 H1033 0.930 . S
C1022 C1018 1.524 . S
C1022 H1034 0.956 . S
C1022 H1035 0.961 . S
C1022 H1036 0.961 . S
C1023 C1020 1.539 . S
C1023 H1037 0.958 . S
C1023 H1038 0.961 . S
C1023 H1039 0.960 . S
H1024 C1008 0.931 . S
H1025 C1013 0.929 . S
H1026 C1014 0.960 . S
H1027 C1014 0.962 . S
H1028 C1014 0.960 . S
H1029 C1015 0.961 . S
H1030 C1015 0.961 . S
H1031 C1015 0.961 . S
H1032 C1016 0.931 . S
H1033 C1021 0.930 . S
H1034 C1022 0.956 . S
H1035 C1022 0.961 . S
H1036 C1022 0.961 . S
H1037 C1023 0.958 . S
H1038 C1023 0.961 . S
H1039 C1023 0.960 . S
C1040 C1041 1.391 . S
C1040 C1042 1.394 . S
C1040 H1056 0.931 . S
C1041 C1040 1.391 . S
C1041 C1045 1.376 . S
C1042 C1040 1.394 . S
C1042 C1043 1.369 . S
C1042 C1046 1.531 . S
C1043 C1042 1.369 . S
C1043 C1044 1.410 . S
C1043 C1051 1.503 . S
C1044 C1043 1.410 . S
C1044 C1045 1.392 . S
C1044 C1047 1.511 . S
C1045 C1041 1.376 . S
C1045 C1044 1.392 . S
C1045 H1057 0.929 . S
C1046 C1042 1.531 . S
C1046 H1058 0.960 . S
C1046 H1059 0.962 . S
C1046 H1060 0.960 . S
C1047 C1044 1.511 . S
C1047 H1061 0.961 . S
C1047 H1062 0.961 . S
C1047 H1063 0.961 . S
C1048 C1049 1.370 . S
C1048 C1050 1.363 . S
C1048 H1064 0.923 1_556 S
C1049 C1048 1.370 . S
C1049 C1053 1.408 . S
C1050 C1048 1.363 . S
C1050 C1051 1.370 . S
C1050 C1054 1.524 1_556 S
C1051 C1043 1.503 . S
C1051 C1050 1.370 . S
C1051 C1052 1.403 . S
C1052 C1051 1.403 . S
C1052 C1053 1.404 . S
C1052 C1055 1.539 . S
C1053 C1049 1.408 . S
C1053 C1052 1.404 . S
C1053 H1065 0.930 . S
C1054 C1050 1.524 1_554 S
C1054 H1066 0.956 . S
C1054 H1067 0.961 . S
C1054 H1068 0.961 . S
C1055 C1052 1.539 . S
C1055 H1069 0.958 . S
C1055 H1070 0.961 . S
C1055 H1071 0.960 . S
H1056 C1040 0.931 . S
H1057 C1045 0.929 . S
H1058 C1046 0.960 . S
H1059 C1046 0.962 . S
H1060 C1046 0.960 . S
H1061 C1047 0.961 . S
H1062 C1047 0.961 . S
H1063 C1047 0.961 . S
H1064 C1048 0.923 1_554 S
H1065 C1053 0.930 . S
H1066 C1054 0.956 . S
H1067 C1054 0.961 . S
H1068 C1054 0.961 . S
H1069 C1055 0.958 . S
H1070 C1055 0.961 . S
H1071 C1055 0.960 . S
C1072 C1073 1.391 . S
C1072 C1074 1.394 . S
C1072 H1088 0.931 . S
C1073 C1072 1.391 . S
C1073 C1077 1.376 . S
C1074 C1072 1.394 . S
C1074 C1075 1.369 . S
C1074 C1078 1.531 . S
C1075 C1074 1.369 . S
C1075 C1076 1.410 . S
C1075 C1083 1.503 . S
C1076 C1075 1.410 . S
C1076 C1077 1.392 . S
C1076 C1079 1.511 . S
C1077 C1073 1.376 . S
C1077 C1076 1.392 . S
C1077 H1089 0.929 . S
C1078 C1074 1.531 . S
C1078 H1090 0.960 . S
C1078 H1091 0.962 . S
C1078 H1092 0.960 . S
C1079 C1076 1.511 . S
C1079 H1093 0.961 . S
C1079 H1094 0.961 . S
C1079 H1095 0.961 . S
C1080 C1081 1.370 . S
C1080 C1082 1.363 . S
C1080 H1096 0.931 . S
C1081 C1080 1.370 . S
C1081 C1085 1.408 . S
C1082 C1080 1.363 . S
C1082 C1083 1.370 . S
C1082 C1086 1.524 . S
C1083 C1075 1.503 . S
C1083 C1082 1.370 . S
C1083 C1084 1.403 . S
C1084 C1083 1.403 . S
C1084 C1085 1.404 . S
C1084 C1087 1.539 . S
C1085 C1081 1.408 . S
C1085 C1084 1.404 . S
C1085 H1097 0.930 . S
C1086 C1082 1.524 . S
C1086 H1098 0.956 . S
C1086 H1099 0.961 . S
C1086 H1100 0.961 . S
C1087 C1084 1.539 . S
C1087 H1101 0.958 . S
C1087 H1102 0.961 . S
C1087 H1103 0.960 . S
H1088 C1072 0.931 . S
H1089 C1077 0.929 . S
H1090 C1078 0.960 . S
H1091 C1078 0.962 . S
H1092 C1078 0.960 . S
H1093 C1079 0.961 . S
H1094 C1079 0.961 . S
H1095 C1079 0.961 . S
H1096 C1080 0.931 . S
H1097 C1085 0.930 . S
H1098 C1086 0.956 . S
H1099 C1086 0.961 . S
H1100 C1086 0.961 . S
H1101 C1087 0.958 . S
H1102 C1087 0.961 . S
H1103 C1087 0.960 . S
C1104 C1105 1.391 . S
C1104 C1106 1.394 . S
C1104 H1120 0.931 . S
C1105 C1104 1.391 . S
C1105 C1109 1.376 . S
C1106 C1104 1.394 . S
C1106 C1107 1.369 . S
C1106 C1110 1.552 . S
C1107 C1106 1.369 . S
C1107 C1108 1.410 . S
C1107 C1115 1.503 . S
C1108 C1107 1.410 . S
C1108 C1109 1.392 . S
C1108 C1111 1.511 . S
C1109 C1105 1.376 . S
C1109 C1108 1.392 . S
C1109 H1121 0.929 . S
C1110 C1106 1.552 . S
C1110 H1122 0.977 . S
C1110 H1123 0.936 1_556 S
C1110 H1124 0.949 1_556 S
C1111 C1108 1.511 . S
C1111 H1125 0.961 . S
C1111 H1126 0.961 . S
C1111 H1127 0.961 . S
C1112 C1113 1.370 . S
C1112 C1114 1.363 . S
C1112 H1128 0.931 . S
C1113 C1112 1.370 . S
C1113 C1117 1.408 . S
C1114 C1112 1.363 . S
C1114 C1115 1.370 . S
C1114 C1118 1.524 . S
C1115 C1107 1.503 . S
C1115 C1114 1.370 . S
C1115 C1116 1.403 . S
C1116 C1115 1.403 . S
C1116 C1117 1.404 . S
C1116 C1119 1.539 . S
C1117 C1113 1.408 . S
C1117 C1116 1.404 . S
C1117 H1129 0.930 . S
C1118 C1114 1.524 . S
C1118 H1130 0.956 1_556 S
C1118 H1131 0.961 . S
C1118 H1132 0.961 . S
C1119 C1116 1.539 . S
C1119 H1133 0.958 . S
C1119 H1134 0.961 . S
C1119 H1135 0.960 . S
H1120 C1104 0.931 . S
H1121 C1109 0.929 . S
H1122 C1110 0.977 . S
H1123 C1110 0.936 1_554 S
H1124 C1110 0.949 1_554 S
H1125 C1111 0.961 . S
H1126 C1111 0.961 . S
H1127 C1111 0.961 . S
H1128 C1112 0.931 . S
H1129 C1117 0.930 . S
H1130 C1118 0.956 1_554 S
H1131 C1118 0.961 . S
H1132 C1118 0.961 . S
H1133 C1119 0.958 . S
H1134 C1119 0.961 . S
H1135 C1119 0.960 . S
C1136 C1137 1.391 . S
C1136 C1138 1.394 . S
C1136 H1152 0.931 . S
C1137 C1136 1.391 . S
C1137 C1141 1.376 . S
C1138 C1136 1.394 . S
C1138 C1139 1.369 . S
C1138 C1142 1.531 . S
C1139 C1138 1.369 . S
C1139 C1140 1.410 . S
C1139 C1147 1.503 . S
C1140 C1139 1.410 . S
C1140 C1141 1.392 . S
C1140 C1143 1.511 . S
C1141 C1137 1.376 . S
C1141 C1140 1.392 . S
C1141 H1153 0.929 . S
C1142 C1138 1.531 . S
C1142 H1154 0.960 . S
C1142 H1155 0.962 . S
C1142 H1156 0.960 . S
C1143 C1140 1.511 . S
C1143 H1157 0.961 . S
C1143 H1158 0.961 . S
C1143 H1159 0.961 . S
C1144 C1145 1.370 . S
C1144 C1146 1.363 . S
C1144 H1160 0.931 . S
C1145 C1144 1.370 . S
C1145 C1149 1.408 . S
C1146 C1144 1.363 . S
C1146 C1147 1.370 . S
C1146 C1150 1.524 . S
C1147 C1139 1.503 . S
C1147 C1146 1.370 . S
C1147 C1148 1.403 . S
C1148 C1147 1.403 . S
C1148 C1149 1.404 . S
C1148 C1151 1.539 . S
C1149 C1145 1.408 . S
C1149 C1148 1.404 . S
C1149 H1161 0.930 . S
C1150 C1146 1.524 . S
C1150 H1162 0.956 . S
C1150 H1163 0.961 . S
C1150 H1164 0.961 . S
C1151 C1148 1.539 . S
C1151 H1165 0.958 . S
C1151 H1166 0.961 . S
C1151 H1167 0.960 . S
H1152 C1136 0.931 . S
H1153 C1141 0.929 . S
H1154 C1142 0.960 . S
H1155 C1142 0.962 . S
H1156 C1142 0.960 . S
H1157 C1143 0.961 . S
H1158 C1143 0.961 . S
H1159 C1143 0.961 . S
H1160 C1144 0.931 . S
H1161 C1149 0.930 . S
H1162 C1150 0.956 . S
H1163 C1150 0.961 . S
H1164 C1150 0.961 . S
H1165 C1151 0.958 . S
H1166 C1151 0.961 . S
H1167 C1151 0.960 . S
C1168 C1169 1.391 . S
C1168 C1170 1.394 . S
C1168 H1184 0.931 1_556 S
C1169 C1168 1.391 . S
C1169 C1173 1.376 . S
C1170 C1168 1.394 . S
C1170 C1171 1.369 . S
C1170 C1174 1.531 1_556 S
C1171 C1170 1.369 . S
C1171 C1172 1.410 . S
C1171 C1179 1.503 . S
C1172 C1171 1.410 . S
C1172 C1173 1.392 . S
C1172 C1175 1.511 . S
C1173 C1169 1.376 . S
C1173 C1172 1.392 . S
C1173 H1185 0.929 . S
C1174 C1170 1.531 1_554 S
C1174 H1186 0.960 . S
C1174 H1187 0.962 1_554 S
C1174 H1188 0.960 . S
C1175 C1172 1.511 . S
C1175 H1189 0.961 . S
C1175 H1190 0.961 . S
C1175 H1191 0.961 . S
C1176 C1177 1.370 . S
C1176 C1178 1.363 . S
C1176 H1192 0.931 . S
C1177 C1176 1.370 . S
C1177 C1181 1.408 . S
C1178 C1176 1.363 . S
C1178 C1179 1.370 . S
C1178 C1182 1.524 . S
C1179 C1171 1.503 . S
C1179 C1178 1.370 . S
C1179 C1180 1.403 . S
C1180 C1179 1.403 . S
C1180 C1181 1.404 . S
C1180 C1183 1.539 . S
C1181 C1177 1.408 . S
C1181 C1180 1.404 . S
C1181 H1193 0.930 . S
C1182 C1178 1.524 . S
C1182 H1194 0.956 . S
C1182 H1195 0.961 . S
C1182 H1196 0.961 . S
C1183 C1180 1.539 . S
C1183 H1197 0.958 1_556 S
C1183 H1198 0.961 . S
C1183 H1199 0.960 . S
H1184 C1168 0.931 1_554 S
H1185 C1173 0.929 . S
H1186 C1174 0.960 . S
H1187 C1174 0.962 1_556 S
H1188 C1174 0.960 . S
H1189 C1175 0.961 . S
H1190 C1175 0.961 . S
H1191 C1175 0.961 . S
H1192 C1176 0.931 . S
H1193 C1181 0.930 . S
H1194 C1182 0.956 . S
H1195 C1182 0.961 . S
H1196 C1182 0.961 . S
H1197 C1183 0.958 1_554 S
H1198 C1183 0.961 . S
H1199 C1183 0.960 . S
C433 C374 1.589 . S
C441 C14 1.524 . S
C465 C50 1.455 . S
C473 C410 1.424 . S
C497 C86 1.543 . S
C505 C230 1.552 . S
C529 C266 1.540 . S
C537 C122 1.553 . S
C561 C302 1.462 . S
C569 C158 1.418 . S
C593 C194 1.564 . S
C601 C338 1.544 . S
C625 C4 0.969 . S
C633 C256 0.993 . S
C657 C40 0.774 . S
C665 C292 0.756 . S
C689 C328 0.950 . S
C697 C76 0.990 . S
C721 C364 1.004 . S
C729 C112 0.974 . S
C753 C400 0.769 . S
C761 C148 0.759 . S
C785 C220 0.981 . S
C793 C184 0.980 . S
C817 C2 0.896 . S
C825 C147 0.884 . S
C849 C38 0.948 . S
C857 C183 0.977 . S
C881 C74 0.952 . S
C889 C3 0.933 . S
C913 C110 0.913 . S
C921 C39 0.892 . S
C945 C146 0.938 . S
C953 C75 0.974 . S
C977 C182 0.939 . S
C985 C111 0.929 . S
C1009 C218 0.863 . S
C1017 C291 0.880 . S
C1041 C254 0.867 . S
C1049 C327 0.915 . S
C1073 C363 0.970 . S
C1081 C290 0.924 . S
C1105 C326 0.892 . S
C1113 C399 0.889 . S
C1137 C362 0.848 . S
C1145 C219 0.910 . S
C1169 C398 0.994 . S
C1177 C255 0.977 . S
