# Generated by pormake.
# Topology uoa, (4)-cn, num edge types: 1
# Building blocks:
#     Node 0, Type 0, BuildingBlock: QUQFOY_clean_sbu_1, # of connection points: 4
#     Node 1, Type 0, BuildingBlock: QUQFOY_clean_sbu_1, # of connection points: 4
#     Node 2, Type 0, BuildingBlock: QUQFOY_clean_sbu_1, # of connection points: 4
#     Node 3, Type 0, BuildingBlock: QUQFOY_clean_sbu_1, # of connection points: 4
#     Node 4, Type 0, BuildingBlock: QUQFOY_clean_sbu_1, # of connection points: 4
#     Node 5, Type 0, BuildingBlock: QUQFOY_clean_sbu_1, # of connection points: 4
#     Node 6, Type 0, BuildingBlock: QUQFOY_clean_sbu_1, # of connection points: 4
#     Node 7, Type 0, BuildingBlock: QUQFOY_clean_sbu_1, # of connection points: 4
#     Node 8, Type 0, BuildingBlock: QUQFOY_clean_sbu_1, # of connection points: 4
#     Node 9, Type 0, BuildingBlock: QUQFOY_clean_sbu_1, # of connection points: 4
#     Node 10, Type 0, BuildingBlock: QUQFOY_clean_sbu_1, # of connection points: 4
#     Node 11, Type 0, BuildingBlock: QUQFOY_clean_sbu_1, # of connection points: 4
#     Node 12, Type 0, BuildingBlock: QUQFOY_clean_sbu_1, # of connection points: 4
#     Node 13, Type 0, BuildingBlock: QUQFOY_clean_sbu_1, # of connection points: 4
#     Node 14, Type 0, BuildingBlock: QUQFOY_clean_sbu_1, # of connection points: 4
#     Node 15, Type 0, BuildingBlock: QUQFOY_clean_sbu_1, # of connection points: 4
#     Node 16, Type 0, BuildingBlock: QUQFOY_clean_sbu_1, # of connection points: 4
#     Node 17, Type 0, BuildingBlock: QUQFOY_clean_sbu_1, # of connection points: 4
#     Node 18, Type 0, BuildingBlock: QUQFOY_clean_sbu_1, # of connection points: 4
#     Node 19, Type 0, BuildingBlock: QUQFOY_clean_sbu_1, # of connection points: 4
#     Node 20, Type 0, BuildingBlock: QUQFOY_clean_sbu_1, # of connection points: 4
#     Node 21, Type 0, BuildingBlock: QUQFOY_clean_sbu_1, # of connection points: 4
#     Node 22, Type 0, BuildingBlock: QUQFOY_clean_sbu_1, # of connection points: 4
#     Node 23, Type 0, BuildingBlock: QUQFOY_clean_sbu_1, # of connection points: 4
#     Node 24, Type 0, BuildingBlock: QUQFOY_clean_sbu_1, # of connection points: 4
#     Node 25, Type 0, BuildingBlock: QUQFOY_clean_sbu_1, # of connection points: 4
#     Node 26, Type 0, BuildingBlock: QUQFOY_clean_sbu_1, # of connection points: 4
#     Node 27, Type 0, BuildingBlock: QUQFOY_clean_sbu_1, # of connection points: 4
#     Node 28, Type 0, BuildingBlock: QUQFOY_clean_sbu_1, # of connection points: 4
#     Node 29, Type 0, BuildingBlock: QUQFOY_clean_sbu_1, # of connection points: 4
#     Node 30, Type 0, BuildingBlock: QUQFOY_clean_sbu_1, # of connection points: 4
#     Node 31, Type 0, BuildingBlock: QUQFOY_clean_sbu_1, # of connection points: 4
#     Edge 32, Type (0, 0), None
#     Edge 33, Type (0, 0), None
#     Edge 34, Type (0, 0), None
#     Edge 35, Type (0, 0), None
#     Edge 36, Type (0, 0), None
#     Edge 37, Type (0, 0), None
#     Edge 38, Type (0, 0), None
#     Edge 39, Type (0, 0), None
#     Edge 40, Type (0, 0), None
#     Edge 41, Type (0, 0), None
#     Edge 42, Type (0, 0), None
#     Edge 43, Type (0, 0), None
#     Edge 44, Type (0, 0), None
#     Edge 45, Type (0, 0), None
#     Edge 46, Type (0, 0), None
#     Edge 47, Type (0, 0), None
#     Edge 48, Type (0, 0), None
#     Edge 49, Type (0, 0), None
#     Edge 50, Type (0, 0), None
#     Edge 51, Type (0, 0), None
#     Edge 52, Type (0, 0), None
#     Edge 53, Type (0, 0), None
#     Edge 54, Type (0, 0), None
#     Edge 55, Type (0, 0), None
#     Edge 56, Type (0, 0), None
#     Edge 57, Type (0, 0), None
#     Edge 58, Type (0, 0), None
#     Edge 59, Type (0, 0), None
#     Edge 60, Type (0, 0), None
#     Edge 61, Type (0, 0), None
#     Edge 62, Type (0, 0), None
#     Edge 63, Type (0, 0), None
#     Edge 64, Type (0, 0), None
#     Edge 65, Type (0, 0), None
#     Edge 66, Type (0, 0), None
#     Edge 67, Type (0, 0), None
#     Edge 68, Type (0, 0), None
#     Edge 69, Type (0, 0), None
#     Edge 70, Type (0, 0), None
#     Edge 71, Type (0, 0), None
#     Edge 72, Type (0, 0), None
#     Edge 73, Type (0, 0), None
#     Edge 74, Type (0, 0), None
#     Edge 75, Type (0, 0), None
#     Edge 76, Type (0, 0), None
#     Edge 77, Type (0, 0), None
#     Edge 78, Type (0, 0), None
#     Edge 79, Type (0, 0), None
#     Edge 80, Type (0, 0), None
#     Edge 81, Type (0, 0), None
#     Edge 82, Type (0, 0), None
#     Edge 83, Type (0, 0), None
#     Edge 84, Type (0, 0), None
#     Edge 85, Type (0, 0), None
#     Edge 86, Type (0, 0), None
#     Edge 87, Type (0, 0), None
#     Edge 88, Type (0, 0), None
#     Edge 89, Type (0, 0), None
#     Edge 90, Type (0, 0), None
#     Edge 91, Type (0, 0), None
#     Edge 92, Type (0, 0), None
#     Edge 93, Type (0, 0), None
#     Edge 94, Type (0, 0), None
#     Edge 95, Type (0, 0), None
# Relax obj value: 0.069
# Max RMSD: 0.158
# Mean RMSD: 0.157
data_MOF--net-uoa--node1-QUQFOY_clean_sbu_1--edge1-none
_symmetry_space_group_name_H-M    P1
_symmetry_Int_Tables_number       1
_symmetry_cell_setting            triclinic
loop_
_symmetry_equiv_pos_as_xyz
'x, y, z'
_cell_length_a     35.632734
_cell_length_b     35.627624
_cell_length_c     12.672965
_cell_angle_alpha  90.002499
_cell_angle_beta   89.985942
_cell_angle_gamma 89.999731
loop_
_atom_site_label
_atom_site_type_symbol
_atom_site_fract_x
_atom_site_fract_y
_atom_site_fract_z
_atom_type_partial_charge
O0 O 0.07074 0.10784 0.31214 0.0
Cd1 Cd 0.09248 0.10155 0.16383 0.0
Cd2 Cd 1.02603 0.12299 0.11962 0.0
O3 O 1.02795 0.14945 0.26564 0.0
O4 O 0.14857 0.10809 0.17461 0.0
O5 O 0.10885 0.15249 0.12228 0.0
C6 C 0.14225 0.1428 0.15066 0.0
C7 C 1.02117 0.14221 0.94827 0.0
C8 C 0.04829 0.13425 0.33626 0.0
C9 C 0.03804 0.04868 0.06094 0.0
O10 O 1.01419 0.06697 0.11434 0.0
O11 O 0.07202 0.06016 0.05781 0.0
O12 O 0.99215 0.14253 1.00971 0.0
O13 O 0.054 0.13766 0.98933 0.0
O14 O 0.20617 0.82071 0.5622 0.0
Cd15 Cd 0.21246 0.84245 0.41388 0.0
Cd16 Cd 0.19103 0.77598 0.36966 0.0
O17 O 0.16458 0.7779 0.51569 0.0
O18 O 0.2059 0.89854 0.42463 0.0
O19 O 0.16152 0.85879 0.37234 0.0
C20 C 0.1712 0.89221 0.40069 0.0
C21 C 0.17182 0.77111 0.19831 0.0
C22 C 0.17977 0.79826 0.58632 0.0
C23 C 0.26533 0.788 0.31095 0.0
O24 O 0.24705 0.76414 0.36435 0.0
O25 O 0.25385 0.82199 0.30785 0.0
O26 O 0.1715 0.74209 0.25973 0.0
O27 O 0.17637 0.80394 0.23939 0.0
O28 O 0.49331 0.95614 0.81219 0.0
Cd29 Cd 0.47157 0.96243 0.6639 0.0
Cd30 Cd 0.53802 0.94099 0.6196 0.0
O31 O 0.53611 0.91453 0.76562 0.0
O32 O 0.41548 0.95589 0.67472 0.0
O33 O 0.45521 0.91149 0.62234 0.0
C34 C 0.4218 0.92118 0.65074 0.0
C35 C 0.54288 0.92177 0.44824 0.0
C36 C 0.51576 0.92973 0.83627 0.0
C37 C 0.52601 1.0153 0.56095 0.0
O38 O 0.54986 0.99702 0.61431 0.0
O39 O 0.49202 1.00382 0.55787 0.0
O40 O 0.5719 0.92145 0.50963 0.0
O41 O 0.51006 0.92632 0.48935 0.0
O42 O 0.35785 0.24329 0.06214 0.0
Cd43 Cd 0.35158 0.22153 0.91385 0.0
Cd44 Cd 0.37301 0.288 0.86958 0.0
O45 O 0.39946 0.28608 1.01558 0.0
O46 O 0.35813 0.16544 0.92466 0.0
O47 O 0.40252 0.20518 0.8723 0.0
C48 C 0.39284 0.17176 0.9007 0.0
C49 C 0.39222 0.29285 0.69821 0.0
C50 C 0.38426 0.26574 0.08623 0.0
C51 C 0.29871 0.27598 0.81094 0.0
O52 O 0.31698 0.29984 0.86432 0.0
O53 O 0.31019 0.24199 0.80783 0.0
O54 O 0.39254 0.32188 0.75962 0.0
O55 O 0.38767 0.26002 0.7393 0.0
O56 O 0.07073 0.95613 0.24928 0.0
Cd57 Cd 0.09247 0.96242 0.39757 0.0
Cd58 Cd 1.02601 0.94099 0.44186 0.0
O59 O 1.02793 0.91453 0.29584 0.0
O60 O 0.14856 0.95588 0.38676 0.0
O61 O 0.10883 0.91149 0.43913 0.0
C62 C 0.14224 0.92117 0.41073 0.0
C63 C 1.02115 0.92177 0.61322 0.0
C64 C 0.04827 0.92973 0.22519 0.0
C65 C 0.03803 1.0153 0.50052 0.0
O66 O 1.01418 0.99702 0.44716 0.0
O67 O 0.07202 1.00381 0.5036 0.0
O68 O 0.99213 0.92145 0.55182 0.0
O69 O 0.05398 0.92632 0.57211 0.0
O70 O 0.35787 0.82072 0.49929 0.0
Cd71 Cd 0.35158 0.84246 0.64761 0.0
Cd72 Cd 0.37301 0.77599 0.69182 0.0
O73 O 0.39946 0.77792 0.54578 0.0
O74 O 0.35813 0.89855 0.63686 0.0
O75 O 0.40251 0.8588 0.68914 0.0
C76 C 0.39284 0.89222 0.66079 0.0
C77 C 0.39222 0.77112 0.86317 0.0
C78 C 0.38427 0.79827 0.47516 0.0
C79 C 0.29871 0.788 0.75053 0.0
O80 O 0.31699 0.76415 0.69713 0.0
O81 O 0.31019 0.82199 0.75364 0.0
O82 O 0.39255 0.7421 0.80174 0.0
O83 O 0.38768 0.80396 0.8221 0.0
O84 O 0.49332 0.10784 0.74934 0.0
Cd85 Cd 0.47157 0.10155 0.89765 0.0
Cd86 Cd 0.53802 0.12299 0.94186 0.0
O87 O 0.53611 0.14945 0.79585 0.0
O88 O 0.41548 0.10809 0.88685 0.0
O89 O 0.4552 0.15249 0.93919 0.0
C90 C 0.4218 0.1428 0.91079 0.0
C91 C 0.54288 0.14221 0.11322 0.0
C92 C 0.51576 0.13425 0.72522 0.0
C93 C 0.52601 0.04868 1.00053 0.0
O94 O 0.54986 0.06696 0.94714 0.0
O95 O 0.49202 0.06016 1.00366 0.0
O96 O 0.5719 0.14253 0.05178 0.0
O97 O 0.51005 0.13766 0.07216 0.0
O98 O 0.2062 0.24328 0.99932 0.0
Cd99 Cd 0.21247 0.22153 0.14761 0.0
Cd100 Cd 0.19104 0.28799 0.19189 0.0
O101 O 0.16459 0.28607 0.04589 0.0
O102 O 0.20592 0.16544 0.13679 0.0
O103 O 0.16153 0.20517 0.18915 0.0
C104 C 0.17122 0.17176 0.16075 0.0
C105 C 0.17183 0.29284 0.36326 0.0
C106 C 0.17979 0.26573 0.97524 0.0
C107 C 0.26534 0.27598 0.25052 0.0
O108 O 0.24706 0.29983 0.19715 0.0
O109 O 0.25385 0.24199 0.25363 0.0
O110 O 0.1715 0.32187 0.30185 0.0
O111 O 0.17637 0.26001 0.32216 0.0
O112 O 0.99331 0.95614 0.74935 0.0
Cd113 Cd 0.97156 0.96242 0.89767 0.0
Cd114 Cd 0.03802 0.94098 0.94187 0.0
O115 O 0.0361 0.91453 0.79584 0.0
O116 O 0.91548 0.95589 0.88689 0.0
O117 O 0.9552 0.91149 0.9392 0.0
C118 C 0.92179 0.92118 0.91083 0.0
C119 C 0.04288 0.92176 0.11319 0.0
C120 C 1.01576 0.92973 0.72523 0.0
C121 C 1.02601 1.01529 1.00057 0.0
O122 O 0.04986 0.99701 0.94717 0.0
O123 O 0.99203 1.00381 1.00369 0.0
O124 O 0.0719 0.92143 0.05177 0.0
O125 O 1.01005 0.92631 0.07215 0.0
O126 O 0.85787 0.24327 0.49928 0.0
Cd127 Cd 0.85159 0.22153 0.64759 0.0
Cd128 Cd 0.87301 0.288 0.69181 0.0
O129 O 0.89946 0.28608 0.54578 0.0
O130 O 0.85814 0.16544 0.63683 0.0
O131 O 0.90252 0.20518 0.68913 0.0
C132 C 0.89284 0.17177 0.66078 0.0
C133 C 0.89222 0.29287 0.86316 0.0
C134 C 0.88427 0.26572 0.47515 0.0
C135 C 0.79871 0.27598 0.75052 0.0
O136 O 0.81699 0.29983 0.69713 0.0
O137 O 0.8102 0.24199 0.75363 0.0
O138 O 0.89254 0.32189 0.80174 0.0
O139 O 0.88768 0.26003 0.82209 0.0
O140 O 0.57073 0.10784 0.24931 0.0
Cd141 Cd 0.59247 0.10156 0.3976 0.0
Cd142 Cd 0.52601 0.123 0.44189 0.0
O143 O 0.52793 0.14944 0.29586 0.0
O144 O 0.64856 0.10809 0.38678 0.0
O145 O 0.60884 0.15249 0.43915 0.0
C146 C 0.64224 0.1428 0.41075 0.0
C147 C 0.52116 0.14222 0.61322 0.0
C148 C 0.54828 0.13425 0.22522 0.0
C149 C 0.53803 0.04869 0.50056 0.0
O150 O 0.51418 0.06697 0.4472 0.0
O151 O 0.57202 0.06017 0.50364 0.0
O152 O 0.49213 0.14254 0.55185 0.0
O153 O 0.55399 0.13767 0.57213 0.0
O154 O 0.70619 0.82069 0.99933 0.0
Cd155 Cd 0.71247 0.84244 0.14762 0.0
Cd156 Cd 0.69104 0.77598 0.19189 0.0
O157 O 0.66459 0.7779 0.0459 0.0
O158 O 0.70591 0.89854 0.1368 0.0
O159 O 0.66153 0.8588 0.18917 0.0
C160 C 0.67121 0.89221 0.16076 0.0
C161 C 0.67183 0.77113 0.36326 0.0
C162 C 0.67979 0.79824 0.97525 0.0
C163 C 0.76534 0.788 0.25053 0.0
O164 O 0.74706 0.76414 0.19715 0.0
O165 O 0.75385 0.82199 0.25364 0.0
O166 O 0.67151 0.7421 0.30185 0.0
O167 O 0.67637 0.80396 0.32217 0.0
O168 O 0.99331 0.10785 0.81217 0.0
Cd169 Cd 0.97158 0.10156 0.66388 0.0
Cd170 Cd 0.03804 0.123 0.61959 0.0
O171 O 0.03613 0.14944 0.76563 0.0
O172 O 0.91549 0.1081 0.67469 0.0
O173 O 0.95522 0.1525 0.62233 0.0
C174 C 0.92181 0.14281 0.65072 0.0
C175 C 0.0429 0.14222 0.44827 0.0
C176 C 1.01577 0.13425 0.83627 0.0
C177 C 1.02602 0.04869 0.56091 0.0
O178 O 0.04987 0.06697 0.61428 0.0
O179 O 0.99203 0.06017 0.55783 0.0
O180 O 0.07192 0.14254 0.50965 0.0
O181 O 1.01007 0.13767 0.48935 0.0
O182 O 0.70618 0.24326 0.56218 0.0
Cd183 Cd 0.71246 0.22152 0.41387 0.0
Cd184 Cd 0.69103 0.28799 0.36965 0.0
O185 O 0.66458 0.28606 0.51569 0.0
O186 O 0.70591 0.16543 0.42462 0.0
O187 O 0.66153 0.20518 0.37234 0.0
C188 C 0.67121 0.17176 0.40069 0.0
C189 C 0.67182 0.29285 0.19831 0.0
C190 C 0.67977 0.26571 0.58631 0.0
C191 C 0.76533 0.27598 0.31095 0.0
O192 O 0.74705 0.29983 0.36435 0.0
O193 O 0.75385 0.24198 0.30783 0.0
O194 O 0.6715 0.32188 0.25974 0.0
O195 O 0.67637 0.26002 0.23937 0.0
O196 O 0.57073 0.95614 0.31211 0.0
Cd197 Cd 0.59247 0.96242 0.1638 0.0
Cd198 Cd 0.52601 0.94098 0.11959 0.0
O199 O 0.52793 0.91453 0.26561 0.0
O200 O 0.64856 0.95588 0.1746 0.0
O201 O 0.60884 0.91148 0.12227 0.0
C202 C 0.64225 0.92117 0.15066 0.0
C203 C 0.52116 0.92176 0.94827 0.0
C204 C 0.54828 0.92974 0.33623 0.0
C205 C 0.53803 1.01529 0.0609 0.0
O206 O 0.51418 0.99701 0.1143 0.0
O207 O 0.57202 1.00381 0.05778 0.0
O208 O 0.49213 0.92144 1.00968 0.0
O209 O 0.55399 0.92631 0.98931 0.0
O210 O 0.85785 0.8207 0.06216 0.0
Cd211 Cd 0.85157 0.84245 0.91387 0.0
Cd212 Cd 0.873 0.77599 0.86958 0.0
O213 O 0.89946 0.77791 1.01558 0.0
O214 O 0.85812 0.89854 0.92469 0.0
O215 O 0.90251 0.85881 0.87232 0.0
C216 C 0.89283 0.89222 0.90073 0.0
C217 C 0.89222 0.77114 0.69821 0.0
C218 C 0.88426 0.79825 0.08624 0.0
C219 C 0.79871 0.788 0.81095 0.0
O220 O 0.81699 0.76415 0.86432 0.0
O221 O 0.81019 0.82199 0.80784 0.0
O222 O 0.89254 0.74211 0.75962 0.0
O223 O 0.88767 0.80396 0.73931 0.0
O224 O 0.57074 0.60783 0.81215 0.0
Cd225 Cd 0.59248 0.60155 0.66384 0.0
Cd226 Cd 0.52603 0.62299 0.61962 0.0
O227 O 0.52795 0.64945 0.76564 0.0
O228 O 0.64857 0.60809 0.67462 0.0
O229 O 0.60885 0.65249 0.62229 0.0
C230 C 0.64225 0.6428 0.65068 0.0
C231 C 0.52117 0.64221 0.44827 0.0
C232 C 0.54829 0.63425 0.83627 0.0
C233 C 0.53804 0.54868 0.56094 0.0
O234 O 0.51419 0.56697 0.61434 0.0
O235 O 0.57202 0.56016 0.55782 0.0
O236 O 0.49215 0.64253 0.50971 0.0
O237 O 0.554 0.63766 0.48933 0.0
O238 O 0.70617 0.32071 0.06216 0.0
Cd239 Cd 0.71245 0.34245 0.91385 0.0
Cd240 Cd 0.69103 0.27597 0.86963 0.0
O241 O 0.66458 0.27789 1.01568 0.0
O242 O 0.7059 0.39854 0.9246 0.0
O243 O 0.66152 0.35879 0.87232 0.0
C244 C 0.6712 0.39221 0.90067 0.0
C245 C 0.67181 0.27111 0.69832 0.0
C246 C 0.67977 0.29825 0.08629 0.0
C247 C 0.76533 0.288 0.81091 0.0
O248 O 0.74705 0.26414 0.8643 0.0
O249 O 0.75384 0.32199 0.80781 0.0
O250 O 0.67149 0.24208 0.75972 0.0
O251 O 0.67636 0.30394 0.73938 0.0
O252 O 0.99331 0.45614 0.31219 0.0
Cd253 Cd 0.97157 0.46243 0.16391 0.0
Cd254 Cd 0.03802 0.44099 0.1196 0.0
O255 O 0.03611 0.41453 0.26562 0.0
O256 O 0.91548 0.45589 0.17473 0.0
O257 O 0.95521 0.41149 0.12235 0.0
C258 C 0.9218 0.42118 0.15075 0.0
C259 C 0.04288 0.42177 0.94824 0.0
C260 C 1.01576 0.42973 0.33628 0.0
C261 C 1.02601 0.5153 0.06095 0.0
O262 O 0.04986 0.49702 0.11431 0.0
O263 O 0.99202 0.50382 0.05787 0.0
O264 O 0.0719 0.42145 1.00963 0.0
O265 O 1.01006 0.42632 0.98935 0.0
O266 O 0.85785 0.74329 0.56212 0.0
Cd267 Cd 0.85158 0.72154 0.41382 0.0
Cd268 Cd 0.87301 0.78801 0.36956 0.0
O269 O 0.89945 0.78609 0.51557 0.0
O270 O 0.85813 0.66544 0.42464 0.0
O271 O 0.90252 0.70518 0.37229 0.0
C272 C 0.89284 0.67177 0.40069 0.0
C273 C 0.89223 0.79286 0.19823 0.0
C274 C 0.88425 0.76574 0.58621 0.0
C275 C 0.79871 0.77598 0.3109 0.0
O276 O 0.81699 0.79984 0.36429 0.0
O277 O 0.8102 0.74199 0.3078 0.0
O278 O 0.89255 0.82189 0.25962 0.0
O279 O 0.88768 0.76002 0.2393 0.0
O280 O 0.57073 0.45613 0.74927 0.0
Cd281 Cd 0.59247 0.46242 0.89756 0.0
Cd282 Cd 0.52601 0.44099 0.94186 0.0
O283 O 0.52793 0.41453 0.79583 0.0
O284 O 0.64856 0.45588 0.88675 0.0
O285 O 0.60883 0.41149 0.93912 0.0
C286 C 0.64224 0.42117 0.91072 0.0
C287 C 0.52115 0.42177 0.11322 0.0
C288 C 0.54827 0.42973 0.72518 0.0
C289 C 0.53803 0.5153 1.00052 0.0
O290 O 0.51418 0.49702 0.94715 0.0
O291 O 0.57202 0.50382 1.0036 0.0
O292 O 0.49213 0.42145 0.05182 0.0
O293 O 0.55398 0.42632 0.07211 0.0
O294 O 0.85786 0.32072 0.99931 0.0
Cd295 Cd 0.85158 0.34245 0.14763 0.0
Cd296 Cd 0.87302 0.27598 0.19184 0.0
O297 O 0.89946 0.27791 0.04579 0.0
O298 O 0.85814 0.39855 0.13689 0.0
O299 O 0.90252 0.3588 0.18915 0.0
C300 C 0.89284 0.39222 0.16081 0.0
C301 C 0.89224 0.27112 0.36314 0.0
C302 C 0.88427 0.29826 0.97518 0.0
C303 C 0.79872 0.288 0.25056 0.0
O304 O 0.817 0.26414 0.19716 0.0
O305 O 0.8102 0.32199 0.25367 0.0
O306 O 0.89256 0.24209 0.30174 0.0
O307 O 0.88769 0.30395 0.3221 0.0
O308 O 0.99332 0.60783 0.24933 0.0
Cd309 Cd 0.97157 0.60155 0.39764 0.0
Cd310 Cd 0.03802 0.62299 0.44186 0.0
O311 O 0.03611 0.64945 0.29585 0.0
O312 O 0.91548 0.60809 0.38684 0.0
O313 O 0.9552 0.65249 0.43918 0.0
C314 C 0.9218 0.6428 0.41079 0.0
C315 C 0.04288 0.64221 0.61322 0.0
C316 C 1.01576 0.63425 0.22522 0.0
C317 C 1.02601 0.54868 0.50053 0.0
O318 O 0.04986 0.56696 0.44713 0.0
O319 O 0.99202 0.56016 0.50366 0.0
O320 O 0.0719 0.64253 0.55178 0.0
O321 O 1.01005 0.63766 0.57216 0.0
O322 O 0.7062 0.74328 0.49935 0.0
Cd323 Cd 0.71247 0.72153 0.64764 0.0
Cd324 Cd 0.69103 0.788 0.69192 0.0
O325 O 0.66459 0.78608 0.5459 0.0
O326 O 0.70592 0.66544 0.63682 0.0
O327 O 0.66153 0.70517 0.68917 0.0
C328 C 0.67121 0.67176 0.66077 0.0
C329 C 0.67181 0.79285 0.86325 0.0
C330 C 0.67979 0.76573 0.47526 0.0
C331 C 0.76533 0.77598 0.75057 0.0
O332 O 0.74705 0.79984 0.69719 0.0
O333 O 0.75385 0.74199 0.75367 0.0
O334 O 0.67149 0.82188 0.80187 0.0
O335 O 0.67636 0.76001 0.82218 0.0
O336 O 0.49331 0.45615 0.24935 0.0
Cd337 Cd 0.47157 0.46243 0.39766 0.0
Cd338 Cd 0.53802 0.44098 0.44187 0.0
O339 O 0.5361 0.41453 0.29584 0.0
O340 O 0.41548 0.45589 0.38688 0.0
O341 O 0.4552 0.41149 0.43919 0.0
C342 C 0.42179 0.42118 0.41081 0.0
C343 C 0.54288 0.42176 0.61318 0.0
C344 C 0.51576 0.42974 0.22522 0.0
C345 C 0.52601 0.51529 0.50057 0.0
O346 O 0.54986 0.49701 0.44717 0.0
O347 O 0.49203 0.50381 0.50369 0.0
O348 O 0.5719 0.42143 0.55177 0.0
O349 O 0.51005 0.42631 0.57215 0.0
O350 O 0.35787 0.74327 0.99931 0.0
Cd351 Cd 0.35159 0.72153 0.14762 0.0
Cd352 Cd 0.37302 0.78801 0.19184 0.0
O353 O 0.39946 0.78608 0.04579 0.0
O354 O 0.35814 0.66544 0.13687 0.0
O355 O 0.40252 0.70519 0.18914 0.0
C356 C 0.39285 0.67177 0.1608 0.0
C357 C 0.39223 0.79287 0.36315 0.0
C358 C 0.38427 0.76573 0.97518 0.0
C359 C 0.29872 0.77598 0.25057 0.0
O360 O 0.317 0.79984 0.19717 0.0
O361 O 0.3102 0.74199 0.25367 0.0
O362 O 0.39255 0.8219 0.30175 0.0
O363 O 0.38769 0.76003 0.3221 0.0
O364 O 0.07073 0.60784 0.7493 0.0
Cd365 Cd 0.09247 0.60155 0.89759 0.0
Cd366 Cd 1.02601 0.623 0.94189 0.0
O367 O 1.02793 0.64944 0.79586 0.0
O368 O 0.14856 0.60809 0.88677 0.0
O369 O 0.10883 0.65249 0.93914 0.0
C370 C 0.14224 0.6428 0.91074 0.0
C371 C 1.02116 0.64222 0.11322 0.0
C372 C 0.04828 0.63424 0.72522 0.0
C373 C 0.03803 0.54869 1.00056 0.0
O374 O 1.01418 0.56697 0.9472 0.0
O375 O 0.07202 0.56017 1.00363 0.0
O376 O 0.99213 0.64254 0.05185 0.0
O377 O 0.05399 0.63767 0.07213 0.0
O378 O 0.2062 0.32069 0.49935 0.0
Cd379 Cd 0.21246 0.34244 0.64765 0.0
Cd380 Cd 0.19103 0.27597 0.69191 0.0
O381 O 0.16459 0.27789 0.5459 0.0
O382 O 0.20591 0.39853 0.63683 0.0
O383 O 0.16152 0.3588 0.68918 0.0
C384 C 0.17121 0.39221 0.66078 0.0
C385 C 0.17182 0.27112 0.86324 0.0
C386 C 0.17979 0.29824 0.47526 0.0
C387 C 0.26533 0.288 0.75057 0.0
O388 O 0.24705 0.26414 0.69718 0.0
O389 O 0.25384 0.32199 0.75367 0.0
O390 O 0.1715 0.24209 0.80185 0.0
O391 O 0.17636 0.30396 0.82218 0.0
O392 O 0.49332 0.60785 0.31217 0.0
Cd393 Cd 0.47158 0.60156 0.16388 0.0
Cd394 Cd 0.53804 0.623 0.1196 0.0
O395 O 0.53613 0.64944 0.26563 0.0
O396 O 0.41549 0.6081 0.1747 0.0
O397 O 0.45522 0.6525 0.12234 0.0
C398 C 0.42181 0.64281 0.15074 0.0
C399 C 0.5429 0.64222 0.94827 0.0
C400 C 0.51577 0.63425 0.33627 0.0
C401 C 0.52602 0.54869 0.06091 0.0
O402 O 0.54987 0.56697 0.11428 0.0
O403 O 0.49203 0.56017 0.05784 0.0
O404 O 0.57192 0.64254 1.00965 0.0
O405 O 0.51007 0.63767 0.98936 0.0
O406 O 0.20618 0.74326 0.06216 0.0
Cd407 Cd 0.21246 0.72153 0.91384 0.0
Cd408 Cd 0.19102 0.788 0.86964 0.0
O409 O 0.16458 0.78607 1.01569 0.0
O410 O 0.20591 0.66543 0.92459 0.0
O411 O 0.16153 0.70518 0.87233 0.0
C412 C 0.17121 0.67176 0.90067 0.0
C413 C 0.17181 0.79286 0.69833 0.0
C414 C 0.17978 0.76571 0.0863 0.0
C415 C 0.26533 0.77598 0.81091 0.0
O416 O 0.24704 0.79983 0.86431 0.0
O417 O 0.25385 0.74199 0.8078 0.0
O418 O 0.17149 0.82189 0.75973 0.0
O419 O 0.17636 0.76002 0.73937 0.0
O420 O 0.07072 0.45615 0.81211 0.0
Cd421 Cd 0.09247 0.46242 0.6638 0.0
Cd422 Cd 1.02601 0.44098 0.61959 0.0
O423 O 1.02793 0.41453 0.76561 0.0
O424 O 0.14856 0.45588 0.6746 0.0
O425 O 0.10884 0.41148 0.62228 0.0
C426 C 0.14224 0.42117 0.65067 0.0
C427 C 1.02116 0.42176 0.44827 0.0
C428 C 0.04828 0.42974 0.83623 0.0
C429 C 0.03803 0.51529 0.5609 0.0
O430 O 1.01418 0.49701 0.6143 0.0
O431 O 0.07202 0.50381 0.55778 0.0
O432 O 0.99213 0.42144 0.50969 0.0
O433 O 0.05399 0.42631 0.48931 0.0
O434 O 0.35785 0.3207 0.56213 0.0
Cd435 Cd 0.35158 0.34245 0.41383 0.0
Cd436 Cd 0.37301 0.27598 0.36956 0.0
O437 O 0.39945 0.2779 0.51557 0.0
O438 O 0.35813 0.39854 0.42466 0.0
O439 O 0.40251 0.35881 0.3723 0.0
C440 C 0.39283 0.39222 0.40071 0.0
C441 C 0.39223 0.27113 0.19822 0.0
C442 C 0.38425 0.29825 0.58621 0.0
C443 C 0.29871 0.288 0.3109 0.0
O444 O 0.31699 0.26414 0.36428 0.0
O445 O 0.3102 0.32199 0.3078 0.0
O446 O 0.39255 0.2421 0.25961 0.0
O447 O 0.38768 0.30396 0.2393 0.0
loop_
_geom_bond_atom_site_label_1
_geom_bond_atom_site_label_2
_geom_bond_distance
_geom_bond_site_symmetry_2
_ccdc_geom_bond_type
O0 Cd1 2.223 . S
O0 C8 1.315 . S
Cd1 O0 2.223 . S
Cd1 O4 2.297 . S
Cd1 O5 2.439 . S
Cd1 O11 2.240 1_554 S
Cd2 O3 2.240 1_656 S
Cd2 O10 2.223 1_556 S
Cd2 O12 2.297 . S
Cd2 O13 2.439 1_655 S
O3 Cd2 2.240 1_454 S
O3 C8 1.279 . S
O4 Cd1 2.297 . S
O4 C6 1.247 . S
O5 Cd1 2.439 . S
O5 C6 1.208 . S
C6 O4 1.247 . S
C6 O5 1.208 . S
C7 O12 1.247 . S
C7 O13 1.208 1_655 S
C8 O0 1.315 . S
C8 O3 1.279 . S
C9 O10 1.315 1_455 S
C9 O11 1.279 1_554 S
O10 Cd2 2.223 1_554 S
O10 C9 1.315 1_655 S
O11 Cd1 2.240 1_556 S
O11 C9 1.279 1_556 S
O12 Cd2 2.297 . S
O12 C7 1.247 . S
O13 Cd2 2.439 1_455 S
O13 C7 1.208 1_455 S
O14 Cd15 2.223 . S
O14 C22 1.315 . S
Cd15 O14 2.223 . S
Cd15 O18 2.297 . S
Cd15 O19 2.439 . S
Cd15 O25 2.240 . S
Cd16 O17 2.240 . S
Cd16 O24 2.223 . S
Cd16 O26 2.297 . S
Cd16 O27 2.439 . S
O17 Cd16 2.240 . S
O17 C22 1.279 . S
O18 Cd15 2.297 . S
O18 C20 1.247 . S
O19 Cd15 2.439 . S
O19 C20 1.208 . S
C20 O18 1.247 . S
C20 O19 1.208 . S
C21 O26 1.247 . S
C21 O27 1.208 . S
C22 O14 1.315 . S
C22 O17 1.279 . S
C23 O24 1.315 . S
C23 O25 1.279 . S
O24 Cd16 2.223 . S
O24 C23 1.315 . S
O25 Cd15 2.240 . S
O25 C23 1.279 . S
O26 Cd16 2.297 . S
O26 C21 1.247 . S
O27 Cd16 2.439 . S
O27 C21 1.208 . S
O28 Cd29 2.223 . S
O28 C36 1.315 . S
Cd29 O28 2.223 . S
Cd29 O32 2.297 . S
Cd29 O33 2.439 . S
Cd29 O39 2.240 . S
Cd30 O31 2.240 . S
Cd30 O38 2.223 . S
Cd30 O40 2.297 . S
Cd30 O41 2.439 . S
O31 Cd30 2.240 . S
O31 C36 1.279 . S
O32 Cd29 2.297 . S
O32 C34 1.247 . S
O33 Cd29 2.439 . S
O33 C34 1.208 . S
C34 O32 1.247 . S
C34 O33 1.208 . S
C35 O40 1.247 . S
C35 O41 1.208 . S
C36 O28 1.315 . S
C36 O31 1.279 . S
C37 O38 1.315 . S
C37 O39 1.279 . S
O38 Cd30 2.223 . S
O38 C37 1.315 . S
O39 Cd29 2.240 . S
O39 C37 1.279 . S
O40 Cd30 2.297 . S
O40 C35 1.247 . S
O41 Cd30 2.439 . S
O41 C35 1.208 . S
O42 Cd43 2.223 . S
O42 C50 1.315 . S
Cd43 O42 2.223 . S
Cd43 O46 2.297 . S
Cd43 O47 2.439 . S
Cd43 O53 2.240 . S
Cd44 O45 2.240 . S
Cd44 O52 2.223 . S
Cd44 O54 2.297 . S
Cd44 O55 2.439 . S
O45 Cd44 2.240 . S
O45 C50 1.279 . S
O46 Cd43 2.297 . S
O46 C48 1.247 . S
O47 Cd43 2.439 . S
O47 C48 1.208 . S
C48 O46 1.247 . S
C48 O47 1.208 . S
C49 O54 1.247 . S
C49 O55 1.208 . S
C50 O42 1.315 . S
C50 O45 1.279 . S
C51 O52 1.315 . S
C51 O53 1.279 . S
O52 Cd44 2.223 . S
O52 C51 1.315 . S
O53 Cd43 2.240 . S
O53 C51 1.279 . S
O54 Cd44 2.297 . S
O54 C49 1.247 . S
O55 Cd44 2.439 . S
O55 C49 1.208 . S
O56 Cd57 2.223 . S
O56 C64 1.315 . S
Cd57 O56 2.223 . S
Cd57 O60 2.297 . S
Cd57 O61 2.439 . S
Cd57 O67 2.240 . S
Cd58 O59 2.240 1_655 S
Cd58 O66 2.223 . S
Cd58 O68 2.297 . S
Cd58 O69 2.439 1_655 S
O59 Cd58 2.240 1_455 S
O59 C64 1.279 . S
O60 Cd57 2.297 . S
O60 C62 1.247 . S
O61 Cd57 2.439 . S
O61 C62 1.208 . S
C62 O60 1.247 . S
C62 O61 1.208 . S
C63 O68 1.247 . S
C63 O69 1.208 1_655 S
C64 O56 1.315 . S
C64 O59 1.279 . S
C65 O66 1.315 1_455 S
C65 O67 1.279 . S
O66 Cd58 2.223 . S
O66 C65 1.315 1_655 S
O67 Cd57 2.240 . S
O67 C65 1.279 . S
O68 Cd58 2.297 . S
O68 C63 1.247 . S
O69 Cd58 2.439 1_455 S
O69 C63 1.208 1_455 S
O70 Cd71 2.223 . S
O70 C78 1.315 . S
Cd71 O70 2.223 . S
Cd71 O74 2.297 . S
Cd71 O75 2.439 . S
Cd71 O81 2.240 . S
Cd72 O73 2.240 . S
Cd72 O80 2.223 . S
Cd72 O82 2.297 . S
Cd72 O83 2.439 . S
O73 Cd72 2.240 . S
O73 C78 1.279 . S
O74 Cd71 2.297 . S
O74 C76 1.247 . S
O75 Cd71 2.439 . S
O75 C76 1.208 . S
C76 O74 1.247 . S
C76 O75 1.208 . S
C77 O82 1.247 . S
C77 O83 1.208 . S
C78 O70 1.315 . S
C78 O73 1.279 . S
C79 O80 1.315 . S
C79 O81 1.279 . S
O80 Cd72 2.223 . S
O80 C79 1.315 . S
O81 Cd71 2.240 . S
O81 C79 1.279 . S
O82 Cd72 2.297 . S
O82 C77 1.247 . S
O83 Cd72 2.439 . S
O83 C77 1.208 . S
O84 Cd85 2.223 . S
O84 C92 1.315 . S
Cd85 O84 2.223 . S
Cd85 O88 2.297 . S
Cd85 O89 2.439 . S
Cd85 O95 2.240 1_556 S
Cd86 O87 2.240 1_554 S
Cd86 O94 2.223 1_554 S
Cd86 O96 2.297 . S
Cd86 O97 2.439 . S
O87 Cd86 2.240 1_556 S
O87 C92 1.279 . S
O88 Cd85 2.297 . S
O88 C90 1.247 . S
O89 Cd85 2.439 . S
O89 C90 1.208 . S
C90 O88 1.247 . S
C90 O89 1.208 . S
C91 O96 1.247 . S
C91 O97 1.208 . S
C92 O84 1.315 . S
C92 O87 1.279 . S
C93 O94 1.315 . S
C93 O95 1.279 1_556 S
O94 Cd86 2.223 1_556 S
O94 C93 1.315 . S
O95 Cd85 2.240 1_554 S
O95 C93 1.279 1_554 S
O96 Cd86 2.297 . S
O96 C91 1.247 . S
O97 Cd86 2.439 . S
O97 C91 1.208 . S
O98 Cd99 2.223 . S
O98 C106 1.315 . S
Cd99 O98 2.223 . S
Cd99 O102 2.297 . S
Cd99 O103 2.439 . S
Cd99 O109 2.240 . S
Cd100 O101 2.240 . S
Cd100 O108 2.223 . S
Cd100 O110 2.297 . S
Cd100 O111 2.439 . S
O101 Cd100 2.240 . S
O101 C106 1.279 . S
O102 Cd99 2.297 . S
O102 C104 1.247 . S
O103 Cd99 2.439 . S
O103 C104 1.208 . S
C104 O102 1.247 . S
C104 O103 1.208 . S
C105 O110 1.247 . S
C105 O111 1.208 . S
C106 O98 1.315 . S
C106 O101 1.279 . S
C107 O108 1.315 . S
C107 O109 1.279 . S
O108 Cd100 2.223 . S
O108 C107 1.315 . S
O109 Cd99 2.240 . S
O109 C107 1.279 . S
O110 Cd100 2.297 . S
O110 C105 1.247 . S
O111 Cd100 2.439 . S
O111 C105 1.208 . S
O112 Cd113 2.223 . S
O112 C120 1.315 . S
Cd113 O112 2.223 . S
Cd113 O116 2.297 . S
Cd113 O117 2.439 . S
Cd113 O123 2.240 1_556 S
Cd114 O115 2.240 1_454 S
Cd114 O122 2.223 1_554 S
Cd114 O124 2.297 . S
Cd114 O125 2.439 1_455 S
O115 Cd114 2.240 1_656 S
O115 C120 1.279 . S
O116 Cd113 2.297 . S
O116 C118 1.247 . S
O117 Cd113 2.439 . S
O117 C118 1.208 . S
C118 O116 1.247 . S
C118 O117 1.208 . S
C119 O124 1.247 . S
C119 O125 1.208 1_455 S
C120 O112 1.315 . S
C120 O115 1.279 . S
C121 O122 1.315 1_655 S
C121 O123 1.279 1_556 S
O122 Cd114 2.223 1_556 S
O122 C121 1.315 1_455 S
O123 Cd113 2.240 1_554 S
O123 C121 1.279 1_554 S
O124 Cd114 2.297 . S
O124 C119 1.247 . S
O125 Cd114 2.439 1_655 S
O125 C119 1.208 1_655 S
O126 Cd127 2.223 . S
O126 C134 1.315 . S
Cd127 O126 2.223 . S
Cd127 O130 2.297 . S
Cd127 O131 2.439 . S
Cd127 O137 2.240 . S
Cd128 O129 2.240 . S
Cd128 O136 2.223 . S
Cd128 O138 2.297 . S
Cd128 O139 2.439 . S
O129 Cd128 2.240 . S
O129 C134 1.279 . S
O130 Cd127 2.297 . S
O130 C132 1.247 . S
O131 Cd127 2.439 . S
O131 C132 1.208 . S
C132 O130 1.247 . S
C132 O131 1.208 . S
C133 O138 1.247 . S
C133 O139 1.208 . S
C134 O126 1.315 . S
C134 O129 1.279 . S
C135 O136 1.315 . S
C135 O137 1.279 . S
O136 Cd128 2.223 . S
O136 C135 1.315 . S
O137 Cd127 2.240 . S
O137 C135 1.279 . S
O138 Cd128 2.297 . S
O138 C133 1.247 . S
O139 Cd128 2.439 . S
O139 C133 1.208 . S
O140 Cd141 2.223 . S
O140 C148 1.315 . S
Cd141 O140 2.223 . S
Cd141 O144 2.297 . S
Cd141 O145 2.439 . S
Cd141 O151 2.240 . S
Cd142 O143 2.240 . S
Cd142 O150 2.223 . S
Cd142 O152 2.297 . S
Cd142 O153 2.439 . S
O143 Cd142 2.240 . S
O143 C148 1.279 . S
O144 Cd141 2.297 . S
O144 C146 1.247 . S
O145 Cd141 2.439 . S
O145 C146 1.208 . S
C146 O144 1.247 . S
C146 O145 1.208 . S
C147 O152 1.247 . S
C147 O153 1.208 . S
C148 O140 1.315 . S
C148 O143 1.279 . S
C149 O150 1.315 . S
C149 O151 1.279 . S
O150 Cd142 2.223 . S
O150 C149 1.315 . S
O151 Cd141 2.240 . S
O151 C149 1.279 . S
O152 Cd142 2.297 . S
O152 C147 1.247 . S
O153 Cd142 2.439 . S
O153 C147 1.208 . S
O154 Cd155 2.223 . S
O154 C162 1.315 . S
Cd155 O154 2.223 . S
Cd155 O158 2.297 . S
Cd155 O159 2.439 . S
Cd155 O165 2.240 . S
Cd156 O157 2.240 . S
Cd156 O164 2.223 . S
Cd156 O166 2.297 . S
Cd156 O167 2.439 . S
O157 Cd156 2.240 . S
O157 C162 1.279 . S
O158 Cd155 2.297 . S
O158 C160 1.247 . S
O159 Cd155 2.439 . S
O159 C160 1.208 . S
C160 O158 1.247 . S
C160 O159 1.208 . S
C161 O166 1.247 . S
C161 O167 1.208 . S
C162 O154 1.315 . S
C162 O157 1.279 . S
C163 O164 1.315 . S
C163 O165 1.279 . S
O164 Cd156 2.223 . S
O164 C163 1.315 . S
O165 Cd155 2.240 . S
O165 C163 1.279 . S
O166 Cd156 2.297 . S
O166 C161 1.247 . S
O167 Cd156 2.439 . S
O167 C161 1.208 . S
O168 Cd169 2.223 . S
O168 C176 1.315 . S
Cd169 O168 2.223 . S
Cd169 O172 2.297 . S
Cd169 O173 2.439 . S
Cd169 O179 2.240 . S
Cd170 O171 2.240 1_455 S
Cd170 O178 2.223 . S
Cd170 O180 2.297 . S
Cd170 O181 2.439 1_455 S
O171 Cd170 2.240 1_655 S
O171 C176 1.279 . S
O172 Cd169 2.297 . S
O172 C174 1.247 . S
O173 Cd169 2.439 . S
O173 C174 1.208 . S
C174 O172 1.247 . S
C174 O173 1.208 . S
C175 O180 1.247 . S
C175 O181 1.208 1_455 S
C176 O168 1.315 . S
C176 O171 1.279 . S
C177 O178 1.315 1_655 S
C177 O179 1.279 . S
O178 Cd170 2.223 . S
O178 C177 1.315 1_455 S
O179 Cd169 2.240 . S
O179 C177 1.279 . S
O180 Cd170 2.297 . S
O180 C175 1.247 . S
O181 Cd170 2.439 1_655 S
O181 C175 1.208 1_655 S
O182 Cd183 2.223 . S
O182 C190 1.315 . S
Cd183 O182 2.223 . S
Cd183 O186 2.297 . S
Cd183 O187 2.439 . S
Cd183 O193 2.240 . S
Cd184 O185 2.240 . S
Cd184 O192 2.223 . S
Cd184 O194 2.297 . S
Cd184 O195 2.439 . S
O185 Cd184 2.240 . S
O185 C190 1.279 . S
O186 Cd183 2.297 . S
O186 C188 1.247 . S
O187 Cd183 2.439 . S
O187 C188 1.208 . S
C188 O186 1.247 . S
C188 O187 1.208 . S
C189 O194 1.247 . S
C189 O195 1.208 . S
C190 O182 1.315 . S
C190 O185 1.279 . S
C191 O192 1.315 . S
C191 O193 1.279 . S
O192 Cd184 2.223 . S
O192 C191 1.315 . S
O193 Cd183 2.240 . S
O193 C191 1.279 . S
O194 Cd184 2.297 . S
O194 C189 1.247 . S
O195 Cd184 2.439 . S
O195 C189 1.208 . S
O196 Cd197 2.223 . S
O196 C204 1.315 . S
Cd197 O196 2.223 . S
Cd197 O200 2.297 . S
Cd197 O201 2.439 . S
Cd197 O207 2.240 1_554 S
Cd198 O199 2.240 1_556 S
Cd198 O206 2.223 1_556 S
Cd198 O208 2.297 . S
Cd198 O209 2.439 . S
O199 Cd198 2.240 1_554 S
O199 C204 1.279 . S
O200 Cd197 2.297 . S
O200 C202 1.247 . S
O201 Cd197 2.439 . S
O201 C202 1.208 . S
C202 O200 1.247 . S
C202 O201 1.208 . S
C203 O208 1.247 . S
C203 O209 1.208 . S
C204 O196 1.315 . S
C204 O199 1.279 . S
C205 O206 1.315 . S
C205 O207 1.279 1_554 S
O206 Cd198 2.223 1_554 S
O206 C205 1.315 . S
O207 Cd197 2.240 1_556 S
O207 C205 1.279 1_556 S
O208 Cd198 2.297 . S
O208 C203 1.247 . S
O209 Cd198 2.439 . S
O209 C203 1.208 . S
O210 Cd211 2.223 . S
O210 C218 1.315 . S
Cd211 O210 2.223 . S
Cd211 O214 2.297 . S
Cd211 O215 2.439 . S
Cd211 O221 2.240 . S
Cd212 O213 2.240 . S
Cd212 O220 2.223 . S
Cd212 O222 2.297 . S
Cd212 O223 2.439 . S
O213 Cd212 2.240 . S
O213 C218 1.279 . S
O214 Cd211 2.297 . S
O214 C216 1.247 . S
O215 Cd211 2.439 . S
O215 C216 1.208 . S
C216 O214 1.247 . S
C216 O215 1.208 . S
C217 O222 1.247 . S
C217 O223 1.208 . S
C218 O210 1.315 . S
C218 O213 1.279 . S
C219 O220 1.315 . S
C219 O221 1.279 . S
O220 Cd212 2.223 . S
O220 C219 1.315 . S
O221 Cd211 2.240 . S
O221 C219 1.279 . S
O222 Cd212 2.297 . S
O222 C217 1.247 . S
O223 Cd212 2.439 . S
O223 C217 1.208 . S
O224 Cd225 2.223 . S
O224 C232 1.315 . S
Cd225 O224 2.223 . S
Cd225 O228 2.297 . S
Cd225 O229 2.439 . S
Cd225 O235 2.240 . S
Cd226 O227 2.240 . S
Cd226 O234 2.223 . S
Cd226 O236 2.297 . S
Cd226 O237 2.439 . S
O227 Cd226 2.240 . S
O227 C232 1.279 . S
O228 Cd225 2.297 . S
O228 C230 1.247 . S
O229 Cd225 2.439 . S
O229 C230 1.208 . S
C230 O228 1.247 . S
C230 O229 1.208 . S
C231 O236 1.247 . S
C231 O237 1.208 . S
C232 O224 1.315 . S
C232 O227 1.279 . S
C233 O234 1.315 . S
C233 O235 1.279 . S
O234 Cd226 2.223 . S
O234 C233 1.315 . S
O235 Cd225 2.240 . S
O235 C233 1.279 . S
O236 Cd226 2.297 . S
O236 C231 1.247 . S
O237 Cd226 2.439 . S
O237 C231 1.208 . S
O238 Cd239 2.223 . S
O238 C246 1.315 . S
Cd239 O238 2.223 . S
Cd239 O242 2.297 . S
Cd239 O243 2.439 . S
Cd239 O249 2.240 . S
Cd240 O241 2.240 . S
Cd240 O248 2.223 . S
Cd240 O250 2.297 . S
Cd240 O251 2.439 . S
O241 Cd240 2.240 . S
O241 C246 1.279 . S
O242 Cd239 2.297 . S
O242 C244 1.247 . S
O243 Cd239 2.439 . S
O243 C244 1.208 . S
C244 O242 1.247 . S
C244 O243 1.208 . S
C245 O250 1.247 . S
C245 O251 1.208 . S
C246 O238 1.315 . S
C246 O241 1.279 . S
C247 O248 1.315 . S
C247 O249 1.279 . S
O248 Cd240 2.223 . S
O248 C247 1.315 . S
O249 Cd239 2.240 . S
O249 C247 1.279 . S
O250 Cd240 2.297 . S
O250 C245 1.247 . S
O251 Cd240 2.439 . S
O251 C245 1.208 . S
O252 Cd253 2.223 . S
O252 C260 1.315 . S
Cd253 O252 2.223 . S
Cd253 O256 2.297 . S
Cd253 O257 2.439 . S
Cd253 O263 2.240 1_554 S
Cd254 O255 2.240 1_456 S
Cd254 O262 2.223 1_556 S
Cd254 O264 2.297 . S
Cd254 O265 2.439 1_455 S
O255 Cd254 2.240 1_654 S
O255 C260 1.279 . S
O256 Cd253 2.297 . S
O256 C258 1.247 . S
O257 Cd253 2.439 . S
O257 C258 1.208 . S
C258 O256 1.247 . S
C258 O257 1.208 . S
C259 O264 1.247 . S
C259 O265 1.208 1_455 S
C260 O252 1.315 . S
C260 O255 1.279 . S
C261 O262 1.315 1_655 S
C261 O263 1.279 1_554 S
O262 Cd254 2.223 1_554 S
O262 C261 1.315 1_455 S
O263 Cd253 2.240 1_556 S
O263 C261 1.279 1_556 S
O264 Cd254 2.297 . S
O264 C259 1.247 . S
O265 Cd254 2.439 1_655 S
O265 C259 1.208 1_655 S
O266 Cd267 2.223 . S
O266 C274 1.315 . S
Cd267 O266 2.223 . S
Cd267 O270 2.297 . S
Cd267 O271 2.439 . S
Cd267 O277 2.240 . S
Cd268 O269 2.240 . S
Cd268 O276 2.223 . S
Cd268 O278 2.297 . S
Cd268 O279 2.439 . S
O269 Cd268 2.240 . S
O269 C274 1.279 . S
O270 Cd267 2.297 . S
O270 C272 1.247 . S
O271 Cd267 2.439 . S
O271 C272 1.208 . S
C272 O270 1.247 . S
C272 O271 1.208 . S
C273 O278 1.247 . S
C273 O279 1.208 . S
C274 O266 1.315 . S
C274 O269 1.279 . S
C275 O276 1.315 . S
C275 O277 1.279 . S
O276 Cd268 2.223 . S
O276 C275 1.315 . S
O277 Cd267 2.240 . S
O277 C275 1.279 . S
O278 Cd268 2.297 . S
O278 C273 1.247 . S
O279 Cd268 2.439 . S
O279 C273 1.208 . S
O280 Cd281 2.223 . S
O280 C288 1.315 . S
Cd281 O280 2.223 . S
Cd281 O284 2.297 . S
Cd281 O285 2.439 . S
Cd281 O291 2.240 1_556 S
Cd282 O283 2.240 1_554 S
Cd282 O290 2.223 1_554 S
Cd282 O292 2.297 . S
Cd282 O293 2.439 . S
O283 Cd282 2.240 1_556 S
O283 C288 1.279 . S
O284 Cd281 2.297 . S
O284 C286 1.247 . S
O285 Cd281 2.439 . S
O285 C286 1.208 . S
C286 O284 1.247 . S
C286 O285 1.208 . S
C287 O292 1.247 . S
C287 O293 1.208 . S
C288 O280 1.315 . S
C288 O283 1.279 . S
C289 O290 1.315 . S
C289 O291 1.279 1_556 S
O290 Cd282 2.223 1_556 S
O290 C289 1.315 . S
O291 Cd281 2.240 1_554 S
O291 C289 1.279 1_554 S
O292 Cd282 2.297 . S
O292 C287 1.247 . S
O293 Cd282 2.439 . S
O293 C287 1.208 . S
O294 Cd295 2.223 . S
O294 C302 1.315 . S
Cd295 O294 2.223 . S
Cd295 O298 2.297 . S
Cd295 O299 2.439 . S
Cd295 O305 2.240 . S
Cd296 O297 2.240 . S
Cd296 O304 2.223 . S
Cd296 O306 2.297 . S
Cd296 O307 2.439 . S
O297 Cd296 2.240 . S
O297 C302 1.279 . S
O298 Cd295 2.297 . S
O298 C300 1.247 . S
O299 Cd295 2.439 . S
O299 C300 1.208 . S
C300 O298 1.247 . S
C300 O299 1.208 . S
C301 O306 1.247 . S
C301 O307 1.208 . S
C302 O294 1.315 . S
C302 O297 1.279 . S
C303 O304 1.315 . S
C303 O305 1.279 . S
O304 Cd296 2.223 . S
O304 C303 1.315 . S
O305 Cd295 2.240 . S
O305 C303 1.279 . S
O306 Cd296 2.297 . S
O306 C301 1.247 . S
O307 Cd296 2.439 . S
O307 C301 1.208 . S
O308 Cd309 2.223 . S
O308 C316 1.315 . S
Cd309 O308 2.223 . S
Cd309 O312 2.297 . S
Cd309 O313 2.439 . S
Cd309 O319 2.240 . S
Cd310 O311 2.240 1_455 S
Cd310 O318 2.223 . S
Cd310 O320 2.297 . S
Cd310 O321 2.439 1_455 S
O311 Cd310 2.240 1_655 S
O311 C316 1.279 . S
O312 Cd309 2.297 . S
O312 C314 1.247 . S
O313 Cd309 2.439 . S
O313 C314 1.208 . S
C314 O312 1.247 . S
C314 O313 1.208 . S
C315 O320 1.247 . S
C315 O321 1.208 1_455 S
C316 O308 1.315 . S
C316 O311 1.279 . S
C317 O318 1.315 1_655 S
C317 O319 1.279 . S
O318 Cd310 2.223 . S
O318 C317 1.315 1_455 S
O319 Cd309 2.240 . S
O319 C317 1.279 . S
O320 Cd310 2.297 . S
O320 C315 1.247 . S
O321 Cd310 2.439 1_655 S
O321 C315 1.208 1_655 S
O322 Cd323 2.223 . S
O322 C330 1.315 . S
Cd323 O322 2.223 . S
Cd323 O326 2.297 . S
Cd323 O327 2.439 . S
Cd323 O333 2.240 . S
Cd324 O325 2.240 . S
Cd324 O332 2.223 . S
Cd324 O334 2.297 . S
Cd324 O335 2.439 . S
O325 Cd324 2.240 . S
O325 C330 1.279 . S
O326 Cd323 2.297 . S
O326 C328 1.247 . S
O327 Cd323 2.439 . S
O327 C328 1.208 . S
C328 O326 1.247 . S
C328 O327 1.208 . S
C329 O334 1.247 . S
C329 O335 1.208 . S
C330 O322 1.315 . S
C330 O325 1.279 . S
C331 O332 1.315 . S
C331 O333 1.279 . S
O332 Cd324 2.223 . S
O332 C331 1.315 . S
O333 Cd323 2.240 . S
O333 C331 1.279 . S
O334 Cd324 2.297 . S
O334 C329 1.247 . S
O335 Cd324 2.439 . S
O335 C329 1.208 . S
O336 Cd337 2.223 . S
O336 C344 1.315 . S
Cd337 O336 2.223 . S
Cd337 O340 2.297 . S
Cd337 O341 2.439 . S
Cd337 O347 2.240 . S
Cd338 O339 2.240 . S
Cd338 O346 2.223 . S
Cd338 O348 2.297 . S
Cd338 O349 2.439 . S
O339 Cd338 2.240 . S
O339 C344 1.279 . S
O340 Cd337 2.297 . S
O340 C342 1.247 . S
O341 Cd337 2.439 . S
O341 C342 1.208 . S
C342 O340 1.247 . S
C342 O341 1.208 . S
C343 O348 1.247 . S
C343 O349 1.208 . S
C344 O336 1.315 . S
C344 O339 1.279 . S
C345 O346 1.315 . S
C345 O347 1.279 . S
O346 Cd338 2.223 . S
O346 C345 1.315 . S
O347 Cd337 2.240 . S
O347 C345 1.279 . S
O348 Cd338 2.297 . S
O348 C343 1.247 . S
O349 Cd338 2.439 . S
O349 C343 1.208 . S
O350 Cd351 2.223 . S
O350 C358 1.315 . S
Cd351 O350 2.223 . S
Cd351 O354 2.297 . S
Cd351 O355 2.439 . S
Cd351 O361 2.240 . S
Cd352 O353 2.240 . S
Cd352 O360 2.223 . S
Cd352 O362 2.297 . S
Cd352 O363 2.439 . S
O353 Cd352 2.240 . S
O353 C358 1.279 . S
O354 Cd351 2.297 . S
O354 C356 1.247 . S
O355 Cd351 2.439 . S
O355 C356 1.208 . S
C356 O354 1.247 . S
C356 O355 1.208 . S
C357 O362 1.247 . S
C357 O363 1.208 . S
C358 O350 1.315 . S
C358 O353 1.279 . S
C359 O360 1.315 . S
C359 O361 1.279 . S
O360 Cd352 2.223 . S
O360 C359 1.315 . S
O361 Cd351 2.240 . S
O361 C359 1.279 . S
O362 Cd352 2.297 . S
O362 C357 1.247 . S
O363 Cd352 2.439 . S
O363 C357 1.208 . S
O364 Cd365 2.223 . S
O364 C372 1.315 . S
Cd365 O364 2.223 . S
Cd365 O368 2.297 . S
Cd365 O369 2.439 . S
Cd365 O375 2.240 1_556 S
Cd366 O367 2.240 1_654 S
Cd366 O374 2.223 1_554 S
Cd366 O376 2.297 . S
Cd366 O377 2.439 1_655 S
O367 Cd366 2.240 1_456 S
O367 C372 1.279 . S
O368 Cd365 2.297 . S
O368 C370 1.247 . S
O369 Cd365 2.439 . S
O369 C370 1.208 . S
C370 O368 1.247 . S
C370 O369 1.208 . S
C371 O376 1.247 . S
C371 O377 1.208 1_655 S
C372 O364 1.315 . S
C372 O367 1.279 . S
C373 O374 1.315 1_455 S
C373 O375 1.279 1_556 S
O374 Cd366 2.223 1_556 S
O374 C373 1.315 1_655 S
O375 Cd365 2.240 1_554 S
O375 C373 1.279 1_554 S
O376 Cd366 2.297 . S
O376 C371 1.247 . S
O377 Cd366 2.439 1_455 S
O377 C371 1.208 1_455 S
O378 Cd379 2.223 . S
O378 C386 1.315 . S
Cd379 O378 2.223 . S
Cd379 O382 2.297 . S
Cd379 O383 2.439 . S
Cd379 O389 2.240 . S
Cd380 O381 2.240 . S
Cd380 O388 2.223 . S
Cd380 O390 2.297 . S
Cd380 O391 2.439 . S
O381 Cd380 2.240 . S
O381 C386 1.279 . S
O382 Cd379 2.297 . S
O382 C384 1.247 . S
O383 Cd379 2.439 . S
O383 C384 1.208 . S
C384 O382 1.247 . S
C384 O383 1.208 . S
C385 O390 1.247 . S
C385 O391 1.208 . S
C386 O378 1.315 . S
C386 O381 1.279 . S
C387 O388 1.315 . S
C387 O389 1.279 . S
O388 Cd380 2.223 . S
O388 C387 1.315 . S
O389 Cd379 2.240 . S
O389 C387 1.279 . S
O390 Cd380 2.297 . S
O390 C385 1.247 . S
O391 Cd380 2.439 . S
O391 C385 1.208 . S
O392 Cd393 2.223 . S
O392 C400 1.315 . S
Cd393 O392 2.223 . S
Cd393 O396 2.297 . S
Cd393 O397 2.439 . S
Cd393 O403 2.240 1_554 S
Cd394 O395 2.240 1_556 S
Cd394 O402 2.223 1_556 S
Cd394 O404 2.297 . S
Cd394 O405 2.439 . S
O395 Cd394 2.240 1_554 S
O395 C400 1.279 . S
O396 Cd393 2.297 . S
O396 C398 1.247 . S
O397 Cd393 2.439 . S
O397 C398 1.208 . S
C398 O396 1.247 . S
C398 O397 1.208 . S
C399 O404 1.247 . S
C399 O405 1.208 . S
C400 O392 1.315 . S
C400 O395 1.279 . S
C401 O402 1.315 . S
C401 O403 1.279 1_554 S
O402 Cd394 2.223 1_554 S
O402 C401 1.315 . S
O403 Cd393 2.240 1_556 S
O403 C401 1.279 1_556 S
O404 Cd394 2.297 . S
O404 C399 1.247 . S
O405 Cd394 2.439 . S
O405 C399 1.208 . S
O406 Cd407 2.223 . S
O406 C414 1.315 . S
Cd407 O406 2.223 . S
Cd407 O410 2.297 . S
Cd407 O411 2.439 . S
Cd407 O417 2.240 . S
Cd408 O409 2.240 . S
Cd408 O416 2.223 . S
Cd408 O418 2.297 . S
Cd408 O419 2.439 . S
O409 Cd408 2.240 . S
O409 C414 1.279 . S
O410 Cd407 2.297 . S
O410 C412 1.247 . S
O411 Cd407 2.439 . S
O411 C412 1.208 . S
C412 O410 1.247 . S
C412 O411 1.208 . S
C413 O418 1.247 . S
C413 O419 1.208 . S
C414 O406 1.315 . S
C414 O409 1.279 . S
C415 O416 1.315 . S
C415 O417 1.279 . S
O416 Cd408 2.223 . S
O416 C415 1.315 . S
O417 Cd407 2.240 . S
O417 C415 1.279 . S
O418 Cd408 2.297 . S
O418 C413 1.247 . S
O419 Cd408 2.439 . S
O419 C413 1.208 . S
O420 Cd421 2.223 . S
O420 C428 1.315 . S
Cd421 O420 2.223 . S
Cd421 O424 2.297 . S
Cd421 O425 2.439 . S
Cd421 O431 2.240 . S
Cd422 O423 2.240 1_655 S
Cd422 O430 2.223 . S
Cd422 O432 2.297 . S
Cd422 O433 2.439 1_655 S
O423 Cd422 2.240 1_455 S
O423 C428 1.279 . S
O424 Cd421 2.297 . S
O424 C426 1.247 . S
O425 Cd421 2.439 . S
O425 C426 1.208 . S
C426 O424 1.247 . S
C426 O425 1.208 . S
C427 O432 1.247 . S
C427 O433 1.208 1_655 S
C428 O420 1.315 . S
C428 O423 1.279 . S
C429 O430 1.315 1_455 S
C429 O431 1.279 . S
O430 Cd422 2.223 . S
O430 C429 1.315 1_655 S
O431 Cd421 2.240 . S
O431 C429 1.279 . S
O432 Cd422 2.297 . S
O432 C427 1.247 . S
O433 Cd422 2.439 1_455 S
O433 C427 1.208 1_455 S
O434 Cd435 2.223 . S
O434 C442 1.315 . S
Cd435 O434 2.223 . S
Cd435 O438 2.297 . S
Cd435 O439 2.439 . S
Cd435 O445 2.240 . S
Cd436 O437 2.240 . S
Cd436 O444 2.223 . S
Cd436 O446 2.297 . S
Cd436 O447 2.439 . S
O437 Cd436 2.240 . S
O437 C442 1.279 . S
O438 Cd435 2.297 . S
O438 C440 1.247 . S
O439 Cd435 2.439 . S
O439 C440 1.208 . S
C440 O438 1.247 . S
C440 O439 1.208 . S
C441 O446 1.247 . S
C441 O447 1.208 . S
C442 O434 1.315 . S
C442 O437 1.279 . S
C443 O444 1.315 . S
C443 O445 1.279 . S
O444 Cd436 2.223 . S
O444 C443 1.315 . S
O445 Cd435 2.240 . S
O445 C443 1.279 . S
O446 Cd436 2.297 . S
O446 C441 1.247 . S
O447 Cd436 2.439 . S
O447 C441 1.208 . S
C176 C7 1.270 . S
C414 C21 1.270 1_556 S
C204 C35 1.270 . S
C442 C49 1.270 . S
C120 C63 1.270 . S
C77 C358 1.270 1_556 S
C91 C148 1.270 . S
C386 C105 1.270 . S
C64 C119 1.270 . S
C302 C133 1.270 1_554 S
C92 C147 1.270 . S
C330 C161 1.270 . S
C175 C8 1.270 . S
C189 C246 1.270 1_554 S
C36 C203 1.270 . S
C217 C274 1.270 . S
C400 C231 1.270 . S
C190 C245 1.270 . S
C428 C259 1.270 . S
C273 C218 1.270 1_554 S
C287 C344 1.270 . S
C301 C134 1.270 . S
C372 C315 1.270 . S
C162 C329 1.270 1_554 S
C288 C343 1.270 . S
C357 C78 1.270 . S
C371 C316 1.270 . S
C385 C106 1.270 1_556 S
C232 C399 1.270 . S
C22 C413 1.270 . S
C260 C427 1.270 . S
C441 C50 1.270 1_554 S
C9 C121 1.231 1_444 S
C23 C359 1.231 . S
C149 C37 1.231 1_545 S
C51 C387 1.231 . S
C65 C177 1.230 1_465 S
C415 C79 1.232 . S
C205 C93 1.230 1_564 S
C107 C443 1.231 . S
C135 C247 1.231 . S
C163 C275 1.231 . S
C191 C303 1.232 . S
C331 C219 1.231 . S
C233 C345 1.232 . S
C261 C373 1.231 1_654 S
C289 C401 1.231 1_556 S
C429 C317 1.231 1_455 S
C6 C104 1.404 . S
C20 C62 1.404 . S
C76 C34 1.405 . S
C90 C48 1.404 . S
C216 C118 1.404 . S
C174 C132 1.404 . S
C188 C146 1.405 . S
C202 C160 1.404 . S
C230 C328 1.404 . S
C286 C244 1.404 . S
C300 C258 1.404 . S
C314 C272 1.404 . S
C440 C342 1.404 . S
C356 C398 1.404 . S
C370 C412 1.404 . S
C426 C384 1.404 . S
