# Generated by pormake.
# Topology qtz-a, (4)-cn, num edge types: 1
# Building blocks:
#     Node 0, Type 0, BuildingBlock: UXUYUI_clean_sbu_0, # of connection points: 4
#     Node 1, Type 0, BuildingBlock: UXUYUI_clean_sbu_0, # of connection points: 4
#     Node 2, Type 0, BuildingBlock: UXUYUI_clean_sbu_0, # of connection points: 4
#     Node 3, Type 0, BuildingBlock: UXUYUI_clean_sbu_0, # of connection points: 4
#     Node 4, Type 0, BuildingBlock: UXUYUI_clean_sbu_0, # of connection points: 4
#     Node 5, Type 0, BuildingBlock: UXUYUI_clean_sbu_0, # of connection points: 4
#     Node 6, Type 0, BuildingBlock: UXUYUI_clean_sbu_0, # of connection points: 4
#     Node 7, Type 0, BuildingBlock: UXUYUI_clean_sbu_0, # of connection points: 4
#     Node 8, Type 0, BuildingBlock: UXUYUI_clean_sbu_0, # of connection points: 4
#     Node 9, Type 0, BuildingBlock: UXUYUI_clean_sbu_0, # of connection points: 4
#     Node 10, Type 0, BuildingBlock: UXUYUI_clean_sbu_0, # of connection points: 4
#     Node 11, Type 0, BuildingBlock: UXUYUI_clean_sbu_0, # of connection points: 4
#     Edge 12, Type (0, 0), BuildingBlock: AJUNOK_clean_linker_0, # of connection points: 2
#     Edge 13, Type (0, 0), BuildingBlock: AJUNOK_clean_linker_0, # of connection points: 2
#     Edge 14, Type (0, 0), BuildingBlock: AJUNOK_clean_linker_0, # of connection points: 2
#     Edge 15, Type (0, 0), BuildingBlock: AJUNOK_clean_linker_0, # of connection points: 2
#     Edge 16, Type (0, 0), BuildingBlock: AJUNOK_clean_linker_0, # of connection points: 2
#     Edge 17, Type (0, 0), BuildingBlock: AJUNOK_clean_linker_0, # of connection points: 2
#     Edge 18, Type (0, 0), BuildingBlock: AJUNOK_clean_linker_0, # of connection points: 2
#     Edge 19, Type (0, 0), BuildingBlock: AJUNOK_clean_linker_0, # of connection points: 2
#     Edge 20, Type (0, 0), BuildingBlock: AJUNOK_clean_linker_0, # of connection points: 2
#     Edge 21, Type (0, 0), BuildingBlock: AJUNOK_clean_linker_0, # of connection points: 2
#     Edge 22, Type (0, 0), BuildingBlock: AJUNOK_clean_linker_0, # of connection points: 2
#     Edge 23, Type (0, 0), BuildingBlock: AJUNOK_clean_linker_0, # of connection points: 2
#     Edge 24, Type (0, 0), BuildingBlock: AJUNOK_clean_linker_0, # of connection points: 2
#     Edge 25, Type (0, 0), BuildingBlock: AJUNOK_clean_linker_0, # of connection points: 2
#     Edge 26, Type (0, 0), BuildingBlock: AJUNOK_clean_linker_0, # of connection points: 2
#     Edge 27, Type (0, 0), BuildingBlock: AJUNOK_clean_linker_0, # of connection points: 2
#     Edge 28, Type (0, 0), BuildingBlock: AJUNOK_clean_linker_0, # of connection points: 2
#     Edge 29, Type (0, 0), BuildingBlock: AJUNOK_clean_linker_0, # of connection points: 2
#     Edge 30, Type (0, 0), BuildingBlock: AJUNOK_clean_linker_0, # of connection points: 2
#     Edge 31, Type (0, 0), BuildingBlock: AJUNOK_clean_linker_0, # of connection points: 2
#     Edge 32, Type (0, 0), BuildingBlock: AJUNOK_clean_linker_0, # of connection points: 2
#     Edge 33, Type (0, 0), BuildingBlock: AJUNOK_clean_linker_0, # of connection points: 2
#     Edge 34, Type (0, 0), BuildingBlock: AJUNOK_clean_linker_0, # of connection points: 2
#     Edge 35, Type (0, 0), BuildingBlock: AJUNOK_clean_linker_0, # of connection points: 2
# Relax obj value: 0.910
# Max RMSD: 0.301
# Mean RMSD: 0.301
data_MOF--net-qtz-a--node1-UXUYUI_clean_sbu_0--edge1-AJUNOK_clean_linker_0
_symmetry_space_group_name_H-M    P1
_symmetry_Int_Tables_number       1
_symmetry_cell_setting            triclinic
loop_
_symmetry_equiv_pos_as_xyz
'x, y, z'
_cell_length_a     61.330363
_cell_length_b     61.345747
_cell_length_c     34.974235
_cell_angle_alpha  90.002649
_cell_angle_beta   89.988496
_cell_angle_gamma 119.97905
loop_
_atom_site_label
_atom_site_type_symbol
_atom_site_fract_x
_atom_site_fract_y
_atom_site_fract_z
_atom_type_partial_charge
Li0 Li 0.43796 0.07245 0.16794 0.0
Li1 Li 0.45448 0.11075 0.20635 0.0
Li2 Li 0.48409 0.10066 0.17101 0.0
Li3 Li 0.46093 0.07698 0.2277 0.0
C4 C 0.45305 0.11193 0.11495 0.0
N5 N 0.44207 0.12006 0.0415 0.0
C6 C 0.44231 0.12706 0.10874 0.0
C7 C 0.45848 0.10119 0.08375 0.0
C8 C 0.43683 0.13088 0.0714 0.0
C9 C 0.45271 0.10545 0.04686 0.0
C10 C 0.41879 0.07686 0.25649 0.0
C11 C 0.42557 0.09396 0.32031 0.0
N12 N 0.40073 0.07858 0.32816 0.0
C13 C 0.39334 0.06124 0.26517 0.0
C14 C 0.43506 0.09339 0.28425 0.0
C15 C 0.38456 0.06238 0.30157 0.0
C16 C 0.41115 0.029 0.12413 0.0
N17 N 0.4125 0.05117 0.13307 0.0
C18 C 0.38831 0.04863 0.07804 0.0
C19 C 0.39995 0.06021 0.11239 0.0
C20 C 0.3893 0.02737 0.06579 0.0
C21 C 0.39958 0.0167 0.09028 0.0
H22 H 0.42085 0.02199 0.14159 0.0
H23 H 0.40088 0.07762 0.12071 0.0
C24 C 0.46927 0.16097 0.21772 0.0
N25 N 0.44884 0.13754 0.21574 0.0
C26 C 0.46645 0.182 0.21329 0.0
C27 C 0.42149 0.15426 0.20674 0.0
C28 C 0.42517 0.13374 0.21153 0.0
C29 C 0.44241 0.17868 0.20641 0.0
H30 H 0.48789 0.16324 0.21979 0.0
H31 H 0.40943 0.11479 0.20887 0.0
C32 C 0.47586 0.0517 0.16186 0.0
N33 N 0.49947 0.02775 0.12958 0.0
C34 C 0.4901 0.04465 0.1846 0.0
C35 C 0.47359 0.04641 0.12269 0.0
C36 C 0.50188 0.03258 0.16776 0.0
C37 C 0.48569 0.03434 0.10692 0.0
C38 C 0.50753 0.12013 0.24606 0.0
C39 C 0.52209 0.10882 0.23959 0.0
C40 C 0.51405 0.13772 0.27548 0.0
C41 C 0.54296 0.11522 0.26282 0.0
C42 C 0.53509 0.14367 0.29807 0.0
N43 N 0.54898 0.13237 0.29134 0.0
C44 C 0.51652 0.13387 0.11539 0.0
C45 C 0.5276 0.10359 0.13412 0.0
C46 C 0.53243 0.14055 0.08369 0.0
N47 N 0.51331 0.11467 0.13857 0.0
C48 C 0.54385 0.10977 0.10295 0.0
C49 C 0.54556 0.12771 0.07641 0.0
H50 H 0.50542 0.14286 0.11995 0.0
H51 H 0.52538 0.08885 0.1532 0.0
C52 C 0.45089 0.03255 0.26002 0.0
N53 N 0.46251 0.05742 0.26864 0.0
C54 C 0.45646 0.01653 0.28056 0.0
C55 C 0.48299 0.05124 0.32221 0.0
C56 C 0.47719 0.06676 0.3003 0.0
C57 C 0.47367 0.02605 0.31111 0.0
H58 H 0.43933 0.02571 0.23462 0.0
H59 H 0.48582 0.08654 0.30708 0.0
O60 O 0.45821 0.10769 0.1514 0.0
O61 O 0.42757 0.07584 0.22095 0.0
O62 O 0.46414 0.06355 0.17787 0.0
O63 O 0.48674 0.11379 0.22417 0.0
H64 H 0.43814 0.13568 0.13246 0.0
H65 H 0.46708 0.08974 0.08798 0.0
H66 H 0.4284 0.14245 0.0662 0.0
H67 H 0.45671 0.09715 0.0225 0.0
H68 H 0.43795 0.10664 0.34205 0.0
H69 H 0.38051 0.04835 0.24398 0.0
H70 H 0.45479 0.10566 0.27813 0.0
H71 H 0.36491 0.05039 0.30869 0.0
H72 H 0.38059 0.05742 0.05991 0.0
H73 H 0.40028 5e-05 0.08199 0.0
H74 H 0.48307 0.20052 0.21236 0.0
H75 H 0.40273 0.15106 0.20128 0.0
H76 H 0.4925 0.04884 0.21482 0.0
H77 H 0.46263 0.05154 0.10454 0.0
H78 H 0.51304 0.02718 0.18502 0.0
H79 H 0.48411 0.03022 0.07664 0.0
H80 H 0.51711 0.09501 0.21725 0.0
H81 H 0.50288 0.14657 0.28093 0.0
H82 H 0.55432 0.10649 0.25825 0.0
H83 H 0.54034 0.15721 0.321 0.0
H84 H 0.53345 0.15466 0.06398 0.0
H85 H 0.5535 0.09928 0.09822 0.0
H86 H 0.44927 0.9976 0.26992 0.0
H87 H 0.49608 0.05931 0.34578 0.0
Li88 Li 0.37718 0.45117 0.56322 0.0
Li89 Li 0.37887 0.47163 0.50281 0.0
Li90 Li 0.33816 0.44522 0.5364 0.0
Li91 Li 0.35961 0.42555 0.50502 0.0
C92 C 0.38371 0.50076 0.5684 0.0
N93 N 0.41612 0.5475 0.59911 0.0
C94 C 0.40962 0.51187 0.56254 0.0
C95 C 0.37423 0.51344 0.58974 0.0
C96 C 0.42572 0.53549 0.57835 0.0
C97 C 0.39093 0.53706 0.60506 0.0
C98 C 0.41861 0.4609 0.50099 0.0
C99 C 0.44649 0.46746 0.448 0.0
N100 N 0.46664 0.48008 0.47154 0.0
C101 C 0.43967 0.47401 0.52461 0.0
C102 C 0.42209 0.45761 0.46234 0.0
C103 C 0.46375 0.48351 0.50921 0.0
C104 C 0.40799 0.43999 0.60533 0.0
N105 N 0.39696 0.4544 0.60705 0.0
C106 C 0.42567 0.48019 0.65559 0.0
C107 C 0.40425 0.47316 0.63326 0.0
C108 C 0.43935 0.46759 0.6509 0.0
C109 C 0.4294 0.44633 0.627 0.0
H110 H 0.40188 0.42534 0.58394 0.0
H111 H 0.39486 0.48406 0.63463 0.0
C112 C 0.37934 0.50446 0.44796 0.0
N113 N 0.39512 0.49959 0.46884 0.0
C114 C 0.38851 0.52108 0.41713 0.0
C115 C 0.43033 0.52892 0.43177 0.0
C116 C 0.42037 0.51226 0.46243 0.0
C117 C 0.41415 0.53271 0.4078 0.0
H118 H 0.35939 0.49448 0.45413 0.0
H119 H 0.43275 0.50876 0.47994 0.0
C120 C 0.33322 0.41156 0.59289 0.0
N121 N 0.31088 0.39778 0.6641 0.0
C122 C 0.32126 0.38638 0.60434 0.0
C123 C 0.33381 0.42974 0.61765 0.0
C124 C 0.31008 0.37978 0.64046 0.0
C125 C 0.32242 0.42239 0.65353 0.0
C126 C 0.33786 0.43938 0.44591 0.0
C127 C 0.31204 0.42729 0.43836 0.0
C128 C 0.35479 0.44464 0.41584 0.0
C129 C 0.30357 0.42027 0.40086 0.0
C130 C 0.34558 0.43732 0.37874 0.0
N131 N 0.32037 0.42535 0.37209 0.0
C132 C 0.30559 0.46354 0.53397 0.0
C133 C 0.28509 0.4193 0.54294 0.0
C134 C 0.28267 0.46232 0.52687 0.0
N135 N 0.30635 0.44218 0.54105 0.0
C136 C 0.26167 0.4172 0.53606 0.0
C137 C 0.2604 0.43886 0.52703 0.0
H138 H 0.32297 0.48129 0.53131 0.0
H139 H 0.28646 0.40257 0.54737 0.0
C140 C 0.37474 0.39587 0.46404 0.0
N141 N 0.35446 0.39799 0.47382 0.0
C142 C 0.37364 0.38163 0.43227 0.0
C143 C 0.32985 0.36943 0.42431 0.0
C144 C 0.33186 0.38404 0.45618 0.0
C145 C 0.35125 0.36904 0.41097 0.0
H146 H 0.39233 0.40675 0.47909 0.0
H147 H 0.31589 0.38574 0.46505 0.0
O148 O 0.36757 0.47759 0.5534 0.0
O149 O 0.3948 0.45117 0.51573 0.0
O150 O 0.34419 0.41817 0.55754 0.0
O151 O 0.34646 0.44604 0.48257 0.0
H152 H 0.4172 0.50227 0.54626 0.0
H153 H 0.35418 0.50506 0.5945 0.0
H154 H 0.44584 0.54425 0.57415 0.0
H155 H 0.38387 0.54708 0.62171 0.0
H156 H 0.44939 0.46504 0.41815 0.0
H157 H 0.43758 0.47711 0.55444 0.0
H158 H 0.40616 0.44754 0.44354 0.0
H159 H 0.48014 0.49366 0.52724 0.0
H160 H 0.43262 0.49656 0.67391 0.0
H161 H 0.43951 0.43635 0.62171 0.0
H162 H 0.37554 0.52407 0.39995 0.0
H163 H 0.45027 0.53769 0.42567 0.0
H164 H 0.32063 0.37208 0.58548 0.0
H165 H 0.34291 0.44931 0.60939 0.0
H166 H 0.30075 0.36036 0.64969 0.0
H167 H 0.32274 0.43626 0.67297 0.0
H168 H 0.29867 0.42318 0.46125 0.0
H169 H 0.37482 0.45435 0.42105 0.0
H170 H 0.28363 0.41075 0.39465 0.0
H171 H 0.35848 0.44118 0.35523 0.0
H172 H 0.28259 0.47934 0.51898 0.0
H173 H 0.24489 0.3988 0.53622 0.0
H174 H 0.39074 0.38222 0.42281 0.0
H175 H 0.31219 0.35981 0.40889 0.0
Li176 Li 0.90452 0.38586 0.84178 0.0
Li177 Li 0.92291 0.38278 0.9017 0.0
Li178 Li 0.93133 0.36624 0.84265 0.0
Li179 Li 0.88974 0.34467 0.87381 0.0
C180 C 0.95557 0.42583 0.84356 0.0
N181 N 0.98571 0.47543 0.82118 0.0
C182 C 0.96093 0.44548 0.86909 0.0
C183 C 0.96559 0.43155 0.80658 0.0
C184 C 0.9762 0.47038 0.85727 0.0
C185 C 0.98074 0.4567 0.79582 0.0
C186 C 0.8804 0.38984 0.9091 0.0
C187 C 0.85394 0.39679 0.95254 0.0
N188 N 0.86741 0.42187 0.94493 0.0
C189 C 0.89382 0.41562 0.90146 0.0
C190 C 0.8602 0.38027 0.93466 0.0
C191 C 0.88705 0.43154 0.91997 0.0
C192 C 0.87183 0.38658 0.78779 0.0
N193 N 0.89317 0.40229 0.80735 0.0
C194 C 0.901 0.43642 0.76601 0.0
C195 C 0.90705 0.42712 0.79824 0.0
C196 C 0.88052 0.41997 0.74315 0.0
C197 C 0.86518 0.39504 0.75521 0.0
H198 H 0.86088 0.36701 0.79603 0.0
H199 H 0.92349 0.43952 0.81466 0.0
C200 C 0.96509 0.41239 0.94393 0.0
N201 N 0.93968 0.40172 0.94599 0.0
C202 C 0.98049 0.43406 0.96487 0.0
C203 C 0.94331 0.43109 0.9938 0.0
C204 C 0.92859 0.40939 0.97228 0.0
C205 C 0.96946 0.44467 0.98791 0.0
H206 H 0.97333 0.4059 0.9226 0.0
H207 H 0.90834 0.40022 0.9741 0.0
C208 C 0.89436 0.34784 0.78245 0.0
N209 N 0.88688 0.33594 0.7056 0.0
C210 C 0.87602 0.32375 0.77083 0.0
C211 C 0.90885 0.36589 0.755 0.0
C212 C 0.87253 0.3181 0.73183 0.0
C213 C 0.9048 0.3595 0.71629 0.0
C214 C 0.91806 0.33812 0.92935 0.0
C215 C 0.93101 0.32572 0.93997 0.0
C216 C 0.90043 0.33843 0.95438 0.0
C217 C 0.92611 0.3138 0.97554 0.0
C218 C 0.89608 0.32631 0.98969 0.0
N219 N 0.9089 0.31435 0.99945 0.0
C220 C 0.97649 0.38143 0.80317 0.0
C221 C 0.94315 0.34071 0.78734 0.0
C222 C 0.9891 0.38237 0.76949 0.0
N223 N 0.95325 0.3615 0.81002 0.0
C224 C 0.95509 0.34085 0.75328 0.0
C225 C 0.97764 0.36251 0.74314 0.0
H226 H 0.98413 0.39758 0.82195 0.0
H227 H 0.92463 0.32508 0.79366 0.0
C228 C 0.8392 0.31254 0.86618 0.0
N229 N 0.86079 0.31295 0.87619 0.0
C230 C 0.81802 0.28993 0.85598 0.0
C231 C 0.84131 0.26844 0.86884 0.0
C232 C 0.8622 0.29157 0.87847 0.0
C233 C 0.81928 0.26774 0.85606 0.0
H234 H 0.83905 0.33003 0.86353 0.0
H235 H 0.87994 0.29269 0.88521 0.0
O236 O 0.94085 0.40123 0.85477 0.0
O237 O 0.88695 0.37391 0.8919 0.0
O238 O 0.898 0.35368 0.82055 0.0
O239 O 0.9227 0.34981 0.89455 0.0
H240 H 0.95323 0.44169 0.89765 0.0
H241 H 0.96163 0.41679 0.78622 0.0
H242 H 0.98045 0.48568 0.87679 0.0
H243 H 0.98854 0.46133 0.76727 0.0
H244 H 0.83842 0.38967 0.97252 0.0
H245 H 0.90933 0.42326 0.88162 0.0
H246 H 0.84959 0.36031 0.94081 0.0
H247 H 0.89741 0.45158 0.9145 0.0
H248 H 0.91315 0.45586 0.75772 0.0
H249 H 0.84891 0.38196 0.73868 0.0
H250 H 0.00057 0.44396 0.95945 0.0
H251 H 0.9342 0.43847 0.01197 0.0
H252 H 0.86464 0.30955 0.7917 0.0
H253 H 0.92298 0.38464 0.76351 0.0
H254 H 0.85841 0.29952 0.72243 0.0
H255 H 0.91589 0.37329 0.69475 0.0
H256 H 0.9447 0.3253 0.92089 0.0
H257 H 0.89018 0.34788 0.94674 0.0
H258 H 0.936 0.30413 0.98413 0.0
H259 H 0.8825 0.32641 0.00933 0.0
H260 H 0.00662 0.39928 0.76267 0.0
H261 H 0.94561 0.32526 0.73355 0.0
H262 H 0.80121 0.28993 0.84646 0.0
H263 H 0.84283 0.25159 0.869 0.0
Li264 Li 0.51881 0.89901 0.16778 0.0
Li265 Li 0.54106 0.92216 0.22476 0.0
Li266 Li 0.56515 0.92609 0.16635 0.0
Li267 Li 0.5461 0.88758 0.20423 0.0
C268 C 0.53235 0.94881 0.14987 0.0
N269 N 0.51749 0.97402 0.10017 0.0
C270 C 0.52077 0.9619 0.16387 0.0
C271 C 0.53648 0.94872 0.11058 0.0
C272 C 0.51332 0.97442 0.13828 0.0
C273 C 0.52886 0.96157 0.08593 0.0
C274 C 0.49159 0.88214 0.23507 0.0
C275 C 0.4532 0.85724 0.27049 0.0
N276 N 0.44653 0.875 0.26395 0.0
C277 C 0.48431 0.90007 0.22859 0.0
C278 C 0.47592 0.86053 0.25615 0.0
C279 C 0.4615 0.89616 0.24349 0.0
C280 C 0.48436 0.86467 0.1154 0.0
N281 N 0.48985 0.8858 0.13545 0.0
C282 C 0.46069 0.89183 0.09814 0.0
C283 C 0.47739 0.89856 0.12878 0.0
C284 C 0.4567 0.87167 0.07449 0.0
C285 C 0.4678 0.85726 0.08445 0.0
H286 H 0.49409 0.8545 0.12188 0.0
H287 H 0.48135 0.91478 0.14579 0.0
C288 C 0.54789 0.96591 0.25635 0.0
N289 N 0.53853 0.94132 0.26529 0.0
C290 C 0.54069 0.98053 0.27733 0.0
C291 C 0.51714 0.94523 0.31967 0.0
C292 C 0.52451 0.93108 0.29734 0.0
C293 C 0.52395 0.96983 0.30823 0.0
H294 H 0.55908 0.97351 0.23075 0.0
H295 H 0.51746 0.91145 0.30394 0.0
C296 C 0.54943 0.88379 0.11514 0.0
N297 N 0.56016 0.86863 0.0466 0.0
C298 C 0.56237 0.8704 0.1148 0.0
C299 C 0.54174 0.88922 0.08051 0.0
C300 C 0.56768 0.86298 0.0799 0.0
C301 C 0.54739 0.88146 0.0462 0.0
C302 C 0.58145 0.92033 0.25632 0.0
C303 C 0.60663 0.93571 0.26677 0.0
C304 C 0.56428 0.90353 0.28298 0.0
C305 C 0.61423 0.93404 0.30379 0.0
C306 C 0.57262 0.90243 0.31971 0.0
N307 N 0.59721 0.91758 0.32927 0.0
C308 C 0.59548 0.97077 0.12642 0.0
C309 C 0.60318 0.93762 0.11077 0.0
C310 C 0.60787 0.98381 0.09343 0.0
N311 N 0.59186 0.94736 0.13288 0.0
C312 C 0.61582 0.95005 0.07744 0.0
C313 C 0.61692 0.97271 0.06752 0.0
H314 H 0.5867 0.97829 0.14493 0.0
H315 H 0.60076 0.91936 0.11729 0.0
C316 C 0.52868 0.83715 0.20516 0.0
N317 N 0.54939 0.85937 0.21418 0.0
C318 C 0.53059 0.81567 0.20015 0.0
C319 C 0.57486 0.84009 0.21607 0.0
C320 C 0.57211 0.86121 0.22066 0.0
C321 C 0.55406 0.81716 0.20455 0.0
H322 H 0.51115 0.83663 0.19888 0.0
H323 H 0.58842 0.87937 0.22644 0.0
O324 O 0.53943 0.93609 0.17453 0.0
O325 O 0.51408 0.88573 0.2215 0.0
O326 O 0.54398 0.89112 0.14918 0.0
O327 O 0.57382 0.92189 0.22016 0.0
H328 H 0.51718 0.96209 0.19409 0.0
H329 H 0.54566 0.93904 0.09922 0.0
H330 H 0.50412 0.98437 0.14875 0.0
H331 H 0.532 0.96165 0.05548 0.0
H332 H 0.4409 0.84061 0.2869 0.0
H333 H 0.49627 0.91699 0.21271 0.0
H334 H 0.48132 0.84648 0.26149 0.0
H335 H 0.45574 0.91 0.23889 0.0
H336 H 0.45229 0.90327 0.09156 0.0
H337 H 0.46465 0.8412 0.06743 0.0
H338 H 0.54643 -0.00068 0.26717 0.0
H339 H 0.50498 0.93649 0.34406 0.0
H340 H 0.56855 0.86602 0.14112 0.0
H341 H 0.53124 0.89903 0.07999 0.0
H342 H 0.57781 0.85274 0.0793 0.0
H343 H 0.54153 0.88555 0.01926 0.0
H344 H 0.62014 0.94882 0.24646 0.0
H345 H 0.54474 0.89141 0.2755 0.0
H346 H 0.63367 0.94584 0.31226 0.0
H347 H 0.55954 0.88952 0.34061 0.0
H348 H 0.60867 0.00144 0.08675 0.0
H349 H 0.62266 0.94099 0.05813 0.0
H350 H 0.51428 0.79857 0.19023 0.0
H351 H 0.59326 0.84194 0.21952 0.0
Li352 Li 0.62904 0.56734 0.50704 0.0
Li353 Li 0.65255 0.55053 0.53747 0.0
Li354 Li 0.61645 0.52243 0.49677 0.0
Li355 Li 0.61164 0.53641 0.55949 0.0
C356 C 0.64962 0.55671 0.44356 0.0
N357 N 0.65327 0.56473 0.36551 0.0
C358 C 0.67267 0.56527 0.42501 0.0
C359 C 0.62841 0.5522 0.42241 0.0
C360 C 0.67413 0.56921 0.38553 0.0
C361 C 0.63066 0.55639 0.38299 0.0
C362 C 0.66063 0.58752 0.58245 0.0
C363 C 0.68749 0.59508 0.63704 0.0
N364 N 0.70318 0.61885 0.62425 0.0
C365 C 0.67682 0.61212 0.57009 0.0
C366 C 0.66581 0.579 0.6164 0.0
C367 C 0.69832 0.62764 0.59153 0.0
C368 C 0.61277 0.59632 0.46353 0.0
N369 N 0.63293 0.59547 0.47787 0.0
C370 C 0.6602 0.62581 0.43201 0.0
C371 C 0.65654 0.6107 0.46396 0.0
C372 C 0.63939 0.62551 0.41488 0.0
C373 C 0.61565 0.61147 0.43205 0.0
H374 H 0.59409 0.5837 0.47394 0.0
H375 H 0.67215 0.60917 0.47516 0.0
C376 C 0.69058 0.54006 0.5577 0.0
N377 N 0.68602 0.55833 0.54502 0.0
C378 C 0.71401 0.54217 0.55131 0.0
C379 C 0.72801 0.58266 0.52162 0.0
C380 C 0.70426 0.57967 0.52824 0.0
C381 C 0.73264 0.56316 0.53145 0.0
H382 H 0.67544 0.52296 0.56981 0.0
H383 H 0.69975 0.59342 0.51722 0.0
C384 C 0.57597 0.54185 0.51585 0.0
N385 N 0.5375 0.55221 0.52773 0.0
C386 C 0.57857 0.55961 0.54326 0.0
C387 C 0.55386 0.52951 0.49432 0.0
C388 C 0.55885 0.56446 0.54899 0.0
C389 C 0.53466 0.53507 0.50067 0.0
C390 C 0.61619 0.4953 0.57105 0.0
C391 C 0.5984 0.47139 0.55792 0.0
C392 C 0.62316 0.49874 0.60957 0.0
C393 C 0.58742 0.4514 0.58381 0.0
C394 C 0.61175 0.47828 0.63456 0.0
N395 N 0.59424 0.45524 0.62128 0.0
C396 C 0.61897 0.49346 0.43566 0.0
C397 C 0.57797 0.48363 0.45495 0.0
C398 C 0.60918 0.47747 0.40413 0.0
N399 N 0.60332 0.49668 0.45957 0.0
C400 C 0.56738 0.46751 0.42386 0.0
C401 C 0.5831 0.46467 0.39755 0.0
H402 H 0.6391 0.50417 0.4401 0.0
H403 H 0.56608 0.48655 0.47461 0.0
C404 C 0.58723 0.53843 0.62923 0.0
N405 N 0.58725 0.52424 0.59934 0.0
C406 C 0.56553 0.53003 0.65166 0.0
C407 C 0.54539 0.49198 0.61377 0.0
C408 C 0.56701 0.50136 0.5916 0.0
C409 C 0.54418 0.50668 0.64346 0.0
H410 H 0.60331 0.55696 0.6339 0.0
H411 H 0.567 0.49115 0.56642 0.0
O412 O 0.64805 0.55319 0.48233 0.0
O413 O 0.63965 0.57197 0.56165 0.0
O414 O 0.59481 0.53636 0.51033 0.0
O415 O 0.62703 0.51512 0.54613 0.0
H416 H 0.68927 0.56892 0.44101 0.0
H417 H 0.61043 0.54567 0.43629 0.0
H418 H 0.69186 0.57586 0.3708 0.0
H419 H 0.61443 0.55308 0.36629 0.0
H420 H 0.69182 0.58867 0.66326 0.0
H421 H 0.67288 0.61914 0.54419 0.0
H422 H 0.65321 0.56019 0.6267 0.0
H423 H 0.71111 0.64666 0.58217 0.0
H424 H 0.67873 0.6362 0.41924 0.0
H425 H 0.59904 0.61029 0.41911 0.0
H426 H 0.71683 0.52667 0.55914 0.0
H427 H 0.74206 0.59931 0.50685 0.0
H428 H 0.59562 0.56958 0.55992 0.0
H429 H 0.55158 0.51593 0.47269 0.0
H430 H 0.56056 0.57803 0.57026 0.0
H431 H 0.51754 0.52578 0.48402 0.0
H432 H 0.59297 0.46833 0.52812 0.0
H433 H 0.63719 0.517 0.62007 0.0
H434 H 0.57348 0.43283 0.57411 0.0
H435 H 0.61684 0.48071 0.66451 0.0
H436 H 0.62187 0.47576 0.38443 0.0
H437 H 0.54724 0.45842 0.41941 0.0
H438 H 0.56496 0.5421 0.67377 0.0
H439 H 0.52901 0.47434 0.60566 0.0
Li440 Li 0.06737 0.62991 0.83973 0.0
Li441 Li 0.10749 0.65613 0.87142 0.0
Li442 Li 0.10168 0.61928 0.83362 0.0
Li443 Li 0.08137 0.61528 0.89594 0.0
C444 C 0.1076 0.65462 0.77914 0.0
N445 N 0.1222 0.66466 0.70346 0.0
C446 C 0.13031 0.67606 0.7694 0.0
C447 C 0.09231 0.63832 0.75038 0.0
C448 C 0.13736 0.6808 0.73098 0.0
C449 C 0.10002 0.64372 0.7123 0.0
C450 C 0.07574 0.6636 0.91083 0.0
C451 C 0.09233 0.69361 0.96244 0.0
N452 N 0.08321 0.70732 0.94528 0.0
C453 C 0.06633 0.67784 0.89385 0.0
C454 C 0.08866 0.67139 0.94554 0.0
C455 C 0.07038 0.69994 0.91166 0.0
C456 C 0.0183 0.61136 0.80651 0.0
N457 N 0.04214 0.63108 0.80966 0.0
C458 C 0.03674 0.65056 0.75421 0.0
C459 C 0.05079 0.65131 0.78599 0.0
C460 C 0.01346 0.62892 0.74735 0.0
C461 C 0.00345 0.60992 0.77531 0.0
H462 H 0.01142 0.59595 0.82652 0.0
H463 H 0.06956 0.66712 0.78984 0.0
C464 C 0.15397 0.69837 0.8932 0.0
N465 N 0.13114 0.69052 0.87692 0.0
C466 C 0.17365 0.72285 0.88674 0.0
C467 C 0.1454 0.73078 0.84863 0.0
C468 C 0.12632 0.70626 0.85589 0.0
C469 C 0.16959 0.73899 0.86304 0.0
H470 H 0.1574 0.68512 0.90871 0.0
H471 H 0.10823 0.69913 0.84212 0.0
C472 C 0.04399 0.577 0.83602 0.0
N473 N 0.99866 0.5364 0.81323 0.0
C474 C 0.02479 0.56389 0.8627 0.0
C475 C 0.04009 0.56938 0.79774 0.0
C476 C 0.00204 0.54339 0.85063 0.0
C477 C 0.01704 0.54887 0.78678 0.0
C478 C 0.12738 0.62233 0.91127 0.0
C479 C 0.13445 0.60464 0.90152 0.0
C480 C 0.12954 0.63043 0.94913 0.0
C481 C 0.14316 0.59496 0.93007 0.0
C482 C 0.13833 0.6203 0.97685 0.0
N483 N 0.14487 0.6029 0.96683 0.0
C484 C 0.13616 0.62116 0.77742 0.0
C485 C 0.10237 0.58055 0.79252 0.0
C486 C 0.14299 0.61149 0.74642 0.0
N487 N 0.1155 0.60579 0.79861 0.0
C488 C 0.1086 0.57006 0.76203 0.0
C489 C 0.12871 0.58573 0.73789 0.0
H490 H 0.1466 0.64109 0.78343 0.0
H491 H 0.08628 0.56873 0.81022 0.0
C492 C 0.05296 0.59268 0.96397 0.0
N493 N 0.06866 0.59211 0.93703 0.0
C494 C 0.03802 0.57126 0.9861 0.0
C495 C 0.05745 0.55021 0.95443 0.0
C496 C 0.0716 0.57173 0.93262 0.0
C497 C 0.03955 0.54939 0.9802 0.0
H498 H 0.05047 0.6089 0.96599 0.0
H499 H 0.08322 0.57133 0.90973 0.0
O500 O 0.10054 0.64951 0.81668 0.0
O501 O 0.07228 0.64211 0.89357 0.0
O502 O 0.06649 0.59706 0.84732 0.0
O503 O 0.1187 0.63191 0.88375 0.0
H504 H 0.14251 0.68875 0.79129 0.0
H505 H 0.07467 0.62171 0.75741 0.0
H506 H 0.15492 0.69727 0.72304 0.0
H507 H 0.08837 0.63125 0.68977 0.0
H508 H 0.10241 0.69995 0.98921 0.0
H509 H 0.05619 0.67198 0.86706 0.0
H510 H 0.09583 0.66042 0.95919 0.0
H511 H 0.06335 0.71125 0.89874 0.0
H512 H 0.04499 0.66573 0.73355 0.0
H513 H 0.98513 0.59331 0.77161 0.0
H514 H 0.19223 0.72844 0.8977 0.0
H515 H 0.14169 0.74269 0.83006 0.0
H516 H 0.02723 0.56957 0.89234 0.0
H517 H 0.05468 0.5792 0.77666 0.0
H518 H 0.98704 0.53312 0.87096 0.0
H519 H 0.01376 0.54285 0.75723 0.0
H520 H 0.13302 0.5983 0.87227 0.0
H521 H 0.1244 0.64432 0.95702 0.0
H522 H 0.14853 0.58112 0.923 0.0
H523 H 0.13996 0.62627 0.00632 0.0
H524 H 0.1587 0.6241 0.72852 0.0
H525 H 0.09689 0.55016 0.75611 0.0
H526 H 0.0242 0.57115 0.0055 0.0
H527 H 0.05872 0.53355 0.94841 0.0
Li528 Li 0.88611 0.54474 0.4621 0.0
Li529 Li 0.92913 0.56637 0.4934 0.0
Li530 Li 0.91985 0.53998 0.43675 0.0
Li531 Li 0.90194 0.51968 0.49649 0.0
C532 C 0.92937 0.58306 0.40813 0.0
N533 N 0.95127 0.60342 0.33848 0.0
C534 C 0.95468 0.60181 0.40635 0.0
C535 C 0.91512 0.57477 0.37462 0.0
C536 C 0.96542 0.61184 0.37081 0.0
C537 C 0.92657 0.58527 0.33965 0.0
C538 C 0.89084 0.55034 0.55257 0.0
C539 C 0.89753 0.55088 0.62063 0.0
N540 N 0.88233 0.56085 0.62612 0.0
C541 C 0.87521 0.56051 0.55892 0.0
C542 C 0.90202 0.54539 0.5837 0.0
C543 C 0.87116 0.56571 0.5963 0.0
C544 C 0.8362 0.52791 0.47475 0.0
N545 N 0.85709 0.54736 0.45895 0.0
C546 C 0.83788 0.5729 0.45772 0.0
C547 C 0.85826 0.56942 0.44964 0.0
C548 C 0.81657 0.55358 0.47596 0.0
C549 C 0.81556 0.53065 0.4836 0.0
H550 H 0.83628 0.51093 0.48282 0.0
H551 H 0.87552 0.58479 0.43827 0.0
C552 C 0.97507 0.59726 0.52956 0.0
N553 N 0.95158 0.59373 0.52452 0.0
C554 C 0.98817 0.60829 0.56317 0.0
C555 C 0.9543 0.61527 0.58265 0.0
C556 C 0.94196 0.60428 0.54846 0.0
C557 C 0.97677 0.61559 0.59134 0.0
H558 H 0.98239 0.58899 0.50969 0.0
H559 H 0.92351 0.60178 0.5431 0.0
C560 C 0.87888 0.48964 0.43237 0.0
N561 N 0.86829 0.44324 0.40437 0.0
C562 C 0.89575 0.48094 0.43826 0.0
C563 C 0.85652 0.47467 0.41242 0.0
C564 C 0.89012 0.45747 0.42382 0.0
C565 C 0.85151 0.45127 0.39845 0.0
C566 C 0.95347 0.53288 0.50037 0.0
C567 C 0.96309 0.52017 0.47926 0.0
C568 C 0.95952 0.53775 0.53915 0.0
C569 C 0.97843 0.51246 0.49732 0.0
C570 C 0.97493 0.52974 0.55617 0.0
N571 N 0.98397 0.51736 0.53509 0.0
C572 C 0.96197 0.55023 0.3953 0.0
C573 C 0.9247 0.5186 0.36586 0.0
C574 C 0.9766 0.54348 0.37336 0.0
N575 N 0.93648 0.53677 0.39286 0.0
C576 C 0.93864 0.511 0.34353 0.0
C577 C 0.96477 0.5225 0.3491 0.0
H578 H 0.9708 0.5644 0.41729 0.0
H579 H 0.9044 0.50845 0.36403 0.0
C580 C 0.87071 0.48718 0.55305 0.0
N581 N 0.89122 0.49233 0.53157 0.0
C582 C 0.86461 0.47168 0.58512 0.0
C583 C 0.89935 0.46507 0.57017 0.0
C584 C 0.90482 0.48077 0.53847 0.0
C585 C 0.87952 0.46106 0.59461 0.0
H586 H 0.85996 0.49632 0.54658 0.0
H587 H 0.92065 0.48455 0.52061 0.0
O588 O 0.91864 0.57268 0.4425 0.0
O589 O 0.89529 0.54545 0.51604 0.0
O590 O 0.88408 0.51266 0.44593 0.0
O591 O 0.93826 0.54046 0.48313 0.0
H592 H 0.96592 0.60836 0.43211 0.0
H593 H 0.8955 0.56022 0.37565 0.0
H594 H 0.98503 0.62628 0.36892 0.0
H595 H 0.91583 0.57896 0.31343 0.0
H596 H 0.9061 0.54718 0.64494 0.0
H597 H 0.86652 0.56464 0.53525 0.0
H598 H 0.91388 0.53725 0.57946 0.0
H599 H 0.85919 0.57367 0.60159 0.0
H600 H 0.83934 0.59092 0.45191 0.0
H601 H 0.79937 0.51539 0.49763 0.0
H602 H 0.00581 0.60883 0.56871 0.0
H603 H 0.94515 0.62102 0.60358 0.0
H604 H 0.91309 0.49229 0.45349 0.0
H605 H 0.84322 0.48113 0.40768 0.0
H606 H 0.90311 0.4506 0.42803 0.0
H607 H 0.83431 0.43951 0.38288 0.0
H608 H 0.95855 0.51595 0.44935 0.0
H609 H 0.95245 0.54761 0.55602 0.0
H610 H 0.98587 0.50252 0.48133 0.0
H611 H 0.97968 0.53336 0.58616 0.0
H612 H 0.99667 0.55274 0.37869 0.0
H613 H 0.92892 0.49495 0.32468 0.0
H614 H 0.84905 0.46885 0.60318 0.0
H615 H 0.91146 0.45742 0.57671 0.0
Li616 Li 0.38069 0.91593 0.76871 0.0
Li617 Li 0.37646 0.89689 0.83248 0.0
Li618 Li 0.33975 0.89021 0.79362 0.0
Li619 Li 0.36598 0.93109 0.82357 0.0
C620 C 0.37365 0.86942 0.75667 0.0
N621 N 0.39302 0.85028 0.70362 0.0
C622 C 0.39094 0.86214 0.76799 0.0
C623 C 0.36593 0.86663 0.71854 0.0
C624 C 0.40059 0.85259 0.74068 0.0
C625 C 0.37603 0.85702 0.6921 0.0
C626 C 0.41877 0.95372 0.82969 0.0
C627 C 0.44452 0.98024 0.88124 0.0
N628 N 0.45943 0.99806 0.85539 0.0
C629 C 0.43434 0.97235 0.80363 0.0
C630 C 0.42393 0.95769 0.86882 0.0
C631 C 0.45482 0.9946 0.81719 0.0
C632 C 0.40378 0.94449 0.70141 0.0
N633 N 0.40391 0.92817 0.7276 0.0
C634 C 0.4454 0.93839 0.70929 0.0
C635 C 0.42389 0.92451 0.73126 0.0
C636 C 0.44666 0.95675 0.68402 0.0
C637 C 0.42523 0.9592 0.6792 0.0
H638 H 0.38794 0.94763 0.7001 0.0
H639 H 0.42407 0.91254 0.75375 0.0
C640 C 0.37483 0.8632 0.8902 0.0
N641 N 0.39005 0.88386 0.8689 0.0
C642 C 0.38456 0.85676 0.92158 0.0
C643 C 0.42577 0.89162 0.9063 0.0
C644 C 0.41523 0.89742 0.8754 0.0
C645 C 0.41025 0.87144 0.9304 0.0
H646 H 0.35499 0.85229 0.88376 0.0
H647 H 0.42699 0.91342 0.85752 0.0
C648 C 0.33236 0.92126 0.75188 0.0
N649 N 0.28883 0.91343 0.71631 0.0
C650 C 0.31833 0.93132 0.76756 0.0
C651 C 0.32446 0.9075 0.71789 0.0
C652 C 0.29631 0.92708 0.7492 0.0
C653 C 0.30234 0.90367 0.70041 0.0
C654 C 0.33961 0.89003 0.88486 0.0
C655 C 0.31869 0.86633 0.89187 0.0
C656 C 0.35384 0.90493 0.91557 0.0
C657 C 0.31238 0.85794 0.92955 0.0
C658 C 0.34693 0.89586 0.95282 0.0
N659 N 0.32652 0.87275 0.95898 0.0
C660 C 0.29812 0.84296 0.77438 0.0
C661 C 0.2893 0.87146 0.80754 0.0
C662 C 0.2739 0.82315 0.78201 0.0
N663 N 0.30543 0.8663 0.78824 0.0
C664 C 0.26502 0.85225 0.81589 0.0
C665 C 0.25755 0.8276 0.80451 0.0
H666 H 0.31165 0.83934 0.76016 0.0
H667 H 0.29603 0.89 0.81946 0.0
C668 C 0.38511 0.98111 0.85261 0.0
N669 N 0.36528 0.95724 0.85153 0.0
C670 C 0.38717 0.99713 0.88248 0.0
C671 C 0.34688 0.96475 0.90642 0.0
C672 C 0.34555 0.94949 0.87598 0.0
C673 C 0.36856 0.98836 0.91107 0.0
H674 H 0.40021 0.98711 0.83215 0.0
H675 H 0.32975 0.93055 0.87392 0.0
O676 O 0.36409 0.87889 0.78296 0.0
O677 O 0.39873 0.9317 0.81692 0.0
O678 O 0.35377 0.92494 0.76967 0.0
O679 O 0.3462 0.89851 0.84812 0.0
H680 H 0.39698 0.86404 0.79747 0.0
H681 H 0.35237 0.87195 0.70945 0.0
H682 H 0.41412 0.84704 0.74895 0.0
H683 H 0.37035 0.85491 0.66242 0.0
H684 H 0.44867 0.98356 0.91144 0.0
H685 H 0.43063 0.96977 0.77329 0.0
H686 H 0.41217 0.94351 0.88941 0.0
H687 H 0.46703 0.00913 0.79733 0.0
H688 H 0.46178 0.93655 0.71493 0.0
H689 H 0.42571 0.97352 0.66051 0.0
H690 H 0.37206 0.84094 0.93938 0.0
H691 H 0.44561 0.90361 0.91237 0.0
H692 H 0.32427 0.9421 0.79379 0.0
H693 H 0.33526 0.89981 0.70525 0.0
H694 H 0.28516 0.93461 0.76112 0.0
H695 H 0.29591 0.89294 0.67419 0.0
H696 H 0.30763 0.85437 0.86851 0.0
H697 H 0.37004 0.92331 0.91071 0.0
H698 H 0.29631 0.83961 0.93538 0.0
H699 H 0.3578 0.9072 0.97684 0.0
H700 H 0.2687 0.80426 0.77303 0.0
H701 H 0.2528 0.85629 0.83316 0.0
H702 H 0.40403 0.01539 0.88486 0.0
H703 H 0.33222 0.95713 0.92792 0.0
Li704 Li 0.47289 0.38321 0.16019 0.0
Li705 Li 0.45162 0.38046 0.10028 0.0
Li706 Li 0.42661 0.36317 0.15912 0.0
Li707 Li 0.44671 0.34211 0.12757 0.0
C708 C 0.46134 0.42242 0.16168 0.0
N709 N 0.48023 0.47072 0.18987 0.0
C710 C 0.47453 0.44327 0.13768 0.0
C711 C 0.4579 0.42627 0.20012 0.0
C712 C 0.48387 0.46748 0.15242 0.0
C713 C 0.46759 0.4508 0.21381 0.0
C714 C 0.50153 0.38803 0.09408 0.0
C715 C 0.53725 0.39585 0.05532 0.0
N716 N 0.54749 0.42098 0.06151 0.0
C717 C 0.51246 0.41389 0.1002 0.0
C718 C 0.51403 0.37887 0.07158 0.0
C719 C 0.53568 0.43027 0.08344 0.0
C720 C 0.50684 0.38427 0.21338 0.0
N721 N 0.50109 0.39985 0.19367 0.0
C722 C 0.52975 0.43487 0.23166 0.0
C723 C 0.51303 0.42496 0.20105 0.0
C724 C 0.53434 0.41879 0.25456 0.0
C725 C 0.52353 0.3934 0.24413 0.0
H726 H 0.49744 0.36445 0.20642 0.0
H727 H 0.5089 0.43722 0.1844 0.0
C728 C 0.44111 0.41178 0.05774 0.0
N729 N 0.45447 0.39963 0.05589 0.0
C730 C 0.44871 0.43362 0.03645 0.0
C731 C 0.48112 0.42766 0.00741 0.0
C732 C 0.47285 0.40587 0.0293 0.0
C733 C 0.47021 0.44281 0.0132 0.0
H734 H 0.4266 0.40637 0.07922 0.0
H735 H 0.48272 0.39545 0.02759 0.0
C736 C 0.44291 0.34304 0.21838 0.0
N737 N 0.43328 0.32715 0.29356 0.0
C738 C 0.43279 0.31757 0.22727 0.0
C739 C 0.44827 0.36044 0.24777 0.0
C740 C 0.428 0.3099 0.26544 0.0
C741 C 0.44323 0.35204 0.28558 0.0
C742 C 0.41222 0.33593 0.07177 0.0
C743 C 0.387 0.32396 0.06051 0.0
C744 C 0.43029 0.33621 0.04707 0.0
C745 C 0.38024 0.31246 0.02463 0.0
C746 C 0.42278 0.32451 0.01142 0.0
N747 N 0.39812 0.31297 0.00103 0.0
C748 C 0.39638 0.37657 0.20293 0.0
C749 C 0.38609 0.33397 0.20801 0.0
C750 C 0.38237 0.37427 0.23564 0.0
N751 N 0.3992 0.35701 0.19135 0.0
C752 C 0.37161 0.33072 0.24059 0.0
C753 C 0.37091 0.35149 0.2561 0.0
H754 H 0.40652 0.39451 0.18855 0.0
H755 H 0.38841 0.31862 0.19775 0.0
C756 C 0.4658 0.31035 0.13137 0.0
N757 N 0.44413 0.31051 0.12432 0.0
C758 C 0.46496 0.28808 0.14196 0.0
C759 C 0.4196 0.26632 0.13549 0.0
C760 C 0.4213 0.28911 0.12507 0.0
C761 C 0.44157 0.266 0.14568 0.0
H762 H 0.48354 0.32788 0.13161 0.0
H763 H 0.40436 0.2901 0.12063 0.0
O764 O 0.45168 0.39848 0.14755 0.0
O765 O 0.47868 0.37163 0.10981 0.0
O766 O 0.44778 0.35087 0.1811 0.0
O767 O 0.419 0.34723 0.10687 0.0
H768 H 0.47788 0.44094 0.10807 0.0
H769 H 0.44789 0.41055 0.21929 0.0
H770 H 0.49406 0.48369 0.13406 0.0
H771 H 0.46504 0.45398 0.24349 0.0
H772 H 0.54711 0.38904 0.03774 0.0
H773 H 0.50306 0.42122 0.11749 0.0
H774 H 0.5058 0.35887 0.06659 0.0
H775 H 0.54428 0.45035 0.08784 0.0
H776 H 0.53789 0.45464 0.2386 0.0
H777 H 0.52717 0.38055 0.26045 0.0
H778 H 0.43974 0.4447 0.04177 0.0
H779 H 0.49736 0.43383 0.98899 0.0
H780 H 0.42862 0.30384 0.20495 0.0
H781 H 0.45643 0.38023 0.24149 0.0
H782 H 0.42011 0.29024 0.27271 0.0
H783 H 0.44729 0.36531 0.3086 0.0
H784 H 0.37279 0.32357 0.07934 0.0
H785 H 0.44988 0.34529 0.05519 0.0
H786 H 0.36078 0.30312 0.01555 0.0
H787 H 0.43656 0.32459 0.99202 0.0
H788 H 0.38217 0.39073 0.24638 0.0
H789 H 0.36234 0.3126 0.25474 0.0
H790 H 0.48229 0.28836 0.14913 0.0
H791 H 0.40127 0.24958 0.13819 0.0
Li792 Li 0.07713 0.46304 0.4351 0.0
Li793 Li 0.09885 0.47962 0.49656 0.0
Li794 Li 0.10488 0.44942 0.45691 0.0
Li795 Li 0.06508 0.43446 0.49141 0.0
C796 C 0.12247 0.50272 0.41786 0.0
N797 N 0.13844 0.53951 0.36225 0.0
C798 C 0.12953 0.52744 0.42786 0.0
C799 C 0.12385 0.49676 0.37972 0.0
C800 C 0.13747 0.54576 0.39928 0.0
C801 C 0.13187 0.51561 0.35198 0.0
C802 C 0.04142 0.46394 0.49861 0.0
C803 C 0.01631 0.46484 0.55108 0.0
N804 N 0.99745 0.4603 0.52621 0.0
C805 C 0.02171 0.45917 0.4736 0.0
C806 C 0.03868 0.46678 0.5377 0.0
C807 C -0.00032 0.45747 0.4881 0.0
C808 C 0.04702 0.45661 0.36875 0.0
N809 N 0.06309 0.473 0.39523 0.0
C810 C 0.05156 0.50357 0.37853 0.0
C811 C 0.06599 0.49629 0.39981 0.0
C812 C 0.03343 0.48645 0.35307 0.0
C813 C 0.0318 0.46302 0.34714 0.0
H814 H 0.04461 0.43794 0.36654 0.0
H815 H 0.07794 0.50841 0.42234 0.0
C816 C 0.13483 0.51286 0.55051 0.0
N817 N 0.11318 0.50691 0.53162 0.0
C818 C 0.14222 0.52895 0.58205 0.0
C819 C 0.10639 0.53459 0.57133 0.0
C820 C 0.09963 0.51827 0.54022 0.0
C821 C 0.12733 0.53924 0.59356 0.0
H822 H 0.14571 0.50417 0.54227 0.0
H823 H 0.08288 0.51373 0.52405 0.0
C824 C 0.07209 0.40903 0.4195 0.0
N825 N 0.07815 0.37203 0.38459 0.0
C826 C 0.06179 0.38518 0.43607 0.0
C827 C 0.08518 0.414 0.38496 0.0
C828 C 0.06513 0.36673 0.41802 0.0
C829 C 0.08813 0.39506 0.36783 0.0
C830 C 0.1086 0.45131 0.54819 0.0
C831 C 0.13234 0.45381 0.55359 0.0
C832 C 0.09501 0.45205 0.57977 0.0
C833 C 0.14214 0.45715 0.59055 0.0
C834 C 0.10548 0.45546 0.61627 0.0
N835 N 0.12863 0.45792 0.62085 0.0
C836 C 0.15318 0.45968 0.43855 0.0
C837 C 0.12661 0.41905 0.46459 0.0
C838 C 0.17442 0.45768 0.44624 0.0
N839 N 0.13004 0.44087 0.44904 0.0
C840 C 0.14732 0.41612 0.47232 0.0
C841 C 0.17154 0.43612 0.46476 0.0
H842 H 0.15538 0.47715 0.42759 0.0
H843 H 0.10818 0.40502 0.47457 0.0
C844 C 0.01707 0.40424 0.52739 0.0
N845 N 0.04079 0.40821 0.52283 0.0
C846 C 0.00297 0.39122 0.55939 0.0
C847 C 0.03662 0.38383 0.57844 0.0
C848 C 0.05005 0.397 0.54611 0.0
C849 C 0.01336 0.38203 0.58638 0.0
H850 H 0.0098 0.4127 0.50791 0.0
H851 H 0.06882 0.40012 0.54143 0.0
O852 O 0.11454 0.48453 0.44541 0.0
O853 O 0.06328 0.46598 0.48489 0.0
O854 O 0.06913 0.42735 0.43683 0.0
O855 O 0.0989 0.4485 0.51212 0.0
H856 H 0.12869 0.53237 0.45733 0.0
H857 H 0.11867 0.47776 0.37163 0.0
H858 H 0.14284 0.56494 0.40654 0.0
H859 H 0.13289 0.51124 0.3223 0.0
H860 H 0.01394 0.46696 0.58126 0.0
H861 H 0.02326 0.45662 0.44337 0.0
H862 H 0.05364 0.4704 0.55752 0.0
H863 H 0.98433 0.45384 0.46904 0.0
H864 H 0.05293 0.52153 0.38462 0.0
H865 H 0.01783 0.44928 0.32797 0.0
H866 H 0.15882 0.5326 0.59806 0.0
H867 H 0.09454 0.54231 0.57922 0.0
H868 H 0.05147 0.38101 0.4627 0.0
H869 H 0.09304 0.4323 0.37164 0.0
H870 H 0.0574 0.34822 0.43061 0.0
H871 H 0.09835 0.39867 0.3412 0.0
H872 H 0.14323 0.45353 0.52949 0.0
H873 H 0.07663 0.45013 0.57611 0.0
H874 H 0.16053 0.45923 0.59512 0.0
H875 H 0.09522 0.45618 0.64094 0.0
H876 H 0.19296 0.47348 0.44038 0.0
H877 H 0.14461 0.39946 0.48721 0.0
H878 H 0.98491 0.38991 0.56441 0.0
H879 H 0.04537 0.3772 0.59866 0.0
Li880 Li 0.65436 0.10666 0.79336 0.0
Li881 Li 0.63407 0.06512 0.82407 0.0
Li882 Li 0.61482 0.07541 0.7671 0.0
Li883 Li 0.61669 0.09398 0.82975 0.0
C884 C 0.665 0.08092 0.74351 0.0
N885 N 0.70341 0.09731 0.69058 0.0
C886 C 0.6846 0.07586 0.74891 0.0
C887 C 0.66479 0.09417 0.71115 0.0
C888 C 0.70389 0.08435 0.72182 0.0
C889 C 0.68443 0.10234 0.68473 0.0
C890 C 0.65516 0.10825 0.88334 0.0
C891 C 0.64814 0.10428 0.95149 0.0
N892 N 0.66643 0.12872 0.95597 0.0
C893 C 0.674 0.13329 0.88865 0.0
C894 C 0.64223 0.09357 0.91503 0.0
C895 C 0.67939 0.14329 0.92559 0.0
C896 C 0.68991 0.15707 0.77734 0.0
N897 N 0.68692 0.13425 0.78663 0.0
C898 C 0.72992 0.15286 0.80555 0.0
C899 C 0.70636 0.13168 0.79976 0.0
C900 C 0.73327 0.17685 0.79828 0.0
C901 C 0.71314 0.17881 0.78294 0.0
H902 H 0.67383 0.15854 0.76833 0.0
H903 H 0.70308 0.11336 0.80842 0.0
C904 C 0.62032 0.01712 0.85369 0.0
N905 N 0.63875 0.04165 0.85244 0.0
C906 C 0.61931 0.00203 0.88427 0.0
C907 C 0.65793 0.0369 0.90872 0.0
C908 C 0.65814 0.05132 0.87776 0.0
C909 C 0.63755 0.01242 0.91328 0.0
H910 H 0.60508 0.01005 0.8332 0.0
H911 H 0.67247 0.07096 0.87601 0.0
C912 C 0.60718 0.1166 0.76807 0.0
N913 N 0.56986 0.12657 0.7454 0.0
C914 C 0.58217 0.10042 0.77858 0.0
C915 C 0.61323 0.13794 0.74615 0.0
C916 C 0.56357 0.10574 0.76681 0.0
C917 C 0.5941 0.14264 0.73494 0.0
C918 C 0.57686 0.04067 0.83248 0.0
C919 C 0.55424 0.03151 0.81229 0.0
C920 C 0.57645 0.03222 0.86975 0.0
C921 C 0.53167 0.01404 0.8297 0.0
C922 C 0.5535 0.01471 0.88612 0.0
N923 N 0.53178 0.00606 0.86594 0.0
C924 C 0.58335 0.03354 0.72579 0.0
C925 C 0.58436 0.06988 0.70055 0.0
C926 C 0.56193 0.01795 0.70453 0.0
N927 N 0.59323 0.05887 0.72499 0.0
C928 C 0.56282 0.05495 0.67873 0.0
C929 C 0.55066 0.02861 0.68204 0.0
H930 H 0.5907 0.02536 0.74581 0.0
H931 H 0.59274 0.0901 0.69999 0.0
C932 C 0.61606 0.12898 0.88125 0.0
N933 N 0.60138 0.1055 0.86657 0.0
C934 C 0.60817 0.13677 0.91331 0.0
C935 C 0.56895 0.09727 0.91179 0.0
C936 C 0.57775 0.09012 0.88017 0.0
C937 C 0.58462 0.12044 0.92956 0.0
H938 H 0.63441 0.14124 0.86907 0.0
H939 H 0.56588 0.072 0.86741 0.0
O940 O 0.64616 0.07315 0.76994 0.0
O941 O 0.64931 0.09825 0.84728 0.0
O942 O 0.62579 0.11178 0.779 0.0
O943 O 0.59919 0.05783 0.81585 0.0
H944 H 0.68498 0.06563 0.77391 0.0
H945 H 0.64973 0.09826 0.70669 0.0
H946 H 0.71926 0.08067 0.72566 0.0
H947 H 0.6846 0.11271 0.65961 0.0
H948 H 0.63815 0.09318 0.97622 0.0
H949 H 0.68415 0.14499 0.86452 0.0
H950 H 0.62769 0.07418 0.91152 0.0
H951 H 0.69382 0.16268 0.93007 0.0
H952 H 0.74497 0.15062 0.81753 0.0
H953 H 0.71477 0.19699 0.77791 0.0
H954 H 0.60332 0.98319 0.88695 0.0
H955 H 0.67213 0.04567 0.93075 0.0
H956 H 0.57712 0.08387 0.79546 0.0
H957 H 0.63251 0.15068 0.73773 0.0
H958 H 0.54413 0.09329 0.77467 0.0
H959 H 0.59851 0.15905 0.71789 0.0
H960 H 0.55401 0.03796 0.78361 0.0
H961 H 0.59362 0.03913 0.88597 0.0
H962 H 0.51407 0.00687 0.81441 0.0
H963 H 0.55297 0.00803 0.91493 0.0
H964 H 0.55294 0.9978 0.70874 0.0
H965 H 0.55474 0.06386 0.66165 0.0
H966 H 0.62054 0.15502 0.92585 0.0
H967 H 0.55054 0.08429 0.92335 0.0
Li968 Li 0.56676 0.63034 0.16317 0.0
Li969 Li 0.55085 0.65451 0.13251 0.0
Li970 Li 0.52167 0.61726 0.17021 0.0
Li971 Li 0.53771 0.61413 0.10838 0.0
C972 C 0.55347 0.64888 0.22653 0.0
N973 N 0.55603 0.64956 0.3054 0.0
C974 C 0.55984 0.67097 0.24657 0.0
C975 C 0.54853 0.62715 0.24659 0.0
C976 C 0.56103 0.67093 0.28646 0.0
C977 C 0.54994 0.62789 0.28646 0.0
C978 C 0.58784 0.66306 0.08708 0.0
C979 C 0.59421 0.68721 0.02959 0.0
N980 N 0.61733 0.70481 0.04252 0.0
C981 C 0.61178 0.68119 0.09958 0.0
C982 C 0.57908 0.66591 0.05164 0.0
C983 C 0.62636 0.70224 0.07672 0.0
C984 C 0.59381 0.61356 0.21014 0.0
N985 N 0.59404 0.63386 0.19405 0.0
C986 C 0.62468 0.66141 0.23934 0.0
C987 C 0.60981 0.65758 0.20702 0.0
C988 C 0.62311 0.64056 0.25842 0.0
C989 C 0.60844 0.61655 0.24234 0.0
H990 H 0.5807 0.59482 0.20048 0.0
H991 H 0.60903 0.67331 0.19455 0.0
C992 C 0.54012 0.69241 0.11411 0.0
N993 N 0.55853 0.68803 0.1267 0.0
C994 C 0.54129 0.71519 0.12255 0.0
C995 C 0.58125 0.72909 0.15406 0.0
C996 C 0.57918 0.70594 0.14541 0.0
C997 C 0.56156 0.73331 0.14407 0.0
H998 H 0.5235 0.67747 0.10061 0.0
H999 H 0.59285 0.70141 0.15669 0.0
C1000 C 0.54281 0.57801 0.1509 0.0
N1001 N 0.55555 0.54128 0.13809 0.0
C1002 C 0.56209 0.58236 0.12525 0.0
C1003 C 0.53013 0.55499 0.17016 0.0
C1004 C 0.56813 0.56351 0.119 0.0
C1005 C 0.53691 0.53672 0.1634 0.0
C1006 C 0.49668 0.61894 0.0948 0.0
C1007 C 0.47258 0.60036 0.10602 0.0
C1008 C 0.50091 0.62758 0.05707 0.0
C1009 C 0.45323 0.59025 0.07898 0.0
C1010 C 0.48108 0.617 0.03088 0.0
N1011 N 0.45786 0.59869 0.04227 0.0
C1012 C 0.49034 0.61848 0.22851 0.0
C1013 C 0.48246 0.57793 0.21026 0.0
C1014 C 0.47372 0.60828 0.25928 0.0
N1015 N 0.49483 0.60327 0.20555 0.0
C1016 C 0.46572 0.56695 0.24059 0.0
C1017 C 0.4616 0.58225 0.26602 0.0
H1018 H 0.50059 0.63862 0.22406 0.0
H1019 H 0.48645 0.5664 0.19143 0.0
C1020 C 0.54189 0.59115 0.0384 0.0
N1021 N 0.52686 0.59068 0.06739 0.0
C1022 C 0.53429 0.5697 0.01571 0.0
C1023 C 0.49534 0.54882 0.05144 0.0
C1024 C 0.50388 0.57024 0.07383 0.0
C1025 C 0.51099 0.54802 0.02297 0.0
H1026 H 0.56047 0.60735 0.03482 0.0
H1027 H 0.493 0.56983 0.09838 0.0
O1028 O 0.5517 0.64853 0.18751 0.0
O1029 O 0.57317 0.64246 0.10921 0.0
O1030 O 0.53619 0.59601 0.15697 0.0
O1031 O 0.51586 0.629 0.12088 0.0
H1032 H 0.56368 0.68793 0.23145 0.0
H1033 H 0.54349 0.60985 0.23157 0.0
H1034 H 0.56587 0.68788 0.30237 0.0
H1035 H 0.54612 0.61122 0.30235 0.0
H1036 H 0.58761 0.68972 0.00217 0.0
H1037 H 0.619 0.67908 0.12668 0.0
H1038 H 0.56084 0.65176 0.04121 0.0
H1039 H 0.64485 0.71652 0.08616 0.0
H1040 H 0.6359 0.68023 0.25078 0.0
H1041 H 0.60649 0.59996 0.2565 0.0
H1042 H 0.52575 0.71795 0.11472 0.0
H1043 H 0.59691 0.74261 0.17119 0.0
H1044 H 0.57229 0.60006 0.11025 0.0
H1045 H 0.51534 0.55132 0.19039 0.0
H1046 H 0.58288 0.56657 0.09905 0.0
H1047 H 0.52741 0.51894 0.17838 0.0
H1048 H 0.4689 0.59364 0.13521 0.0
H1049 H 0.51928 0.64233 0.04812 0.0
H1050 H 0.43454 0.5757 0.08718 0.0
H1051 H 0.48413 0.6234 0.00152 0.0
H1052 H 0.47103 0.62066 0.27834 0.0
H1053 H 0.4572 0.54688 0.24524 0.0
H1054 H 0.54701 0.56949 0.99442 0.0
H1055 H 0.47763 0.53222 0.05866 0.0
C1056 C 0.54387 0.12659 0.0052 0.0
C1057 C 0.55782 0.13017 0.0389 0.0
C1058 C 0.55316 0.12459 0.96957 0.0
C1059 C 0.57685 0.12642 0.96632 0.0
H1060 H 0.52507 0.12399 0.00658 0.0
H1061 H 0.5414 0.12079 0.94453 0.0
S1062 S 0.62151 0.13757 0.04541 0.0
N1063 N 0.59709 0.13693 0.06649 0.0
N1064 N 0.61459 0.13318 0.9994 0.0
C1065 C 0.59151 0.1312 0.99949 0.0
C1066 C 0.58196 0.13302 0.03583 0.0
C1067 C 0.45785 0.58216 0.33711 0.0
C1068 C 0.44705 0.57135 0.30161 0.0
C1069 C 0.44649 0.57012 0.37148 0.0
C1070 C 0.42386 0.54692 0.37161 0.0
H1071 H 0.47586 0.59941 0.33834 0.0
H1072 H 0.45588 0.57865 0.39814 0.0
S1073 S 0.387 0.51181 0.28631 0.0
N1074 N 0.41154 0.53717 0.26866 0.0
N1075 N 0.39046 0.51416 0.33321 0.0
C1076 C 0.41226 0.53651 0.33634 0.0
C1077 C 0.42382 0.5488 0.30136 0.0
C1078 C 0.87599 0.46071 0.6657 0.0
C1079 C 0.87634 0.44839 0.63193 0.0
C1080 C 0.8764 0.45094 0.70172 0.0
C1081 C 0.87687 0.42836 0.70522 0.0
H1082 H 0.87655 0.47863 0.6643 0.0
H1083 H 0.87696 0.46141 0.727 0.0
S1084 S 0.87663 0.38822 0.62567 0.0
N1085 N 0.87598 0.41188 0.60426 0.0
N1086 N 0.87696 0.39356 0.672 0.0
C1087 C 0.87629 0.41538 0.67172 0.0
C1088 C 0.87602 0.42541 0.63506 0.0
C1089 C 0.41998 0.8669 0.03641 0.0
C1090 C 0.44326 0.86765 0.03765 0.0
C1091 C 0.4087 0.86667 0.00144 0.0
C1092 C 0.42046 0.86747 0.96649 0.0
H1093 H 0.41078 0.86723 0.06268 0.0
H1094 H 0.39128 0.86714 0.0018 0.0
S1095 S 0.48084 0.86816 0.95411 0.0
N1096 N 0.47721 0.8682 0.00088 0.0
N1097 N 0.45581 0.86742 0.9352 0.0
C1098 C 0.44321 0.86717 0.96733 0.0
C1099 C 0.45465 0.86731 0.00289 0.0
C1100 C 0.58304 0.4623 0.32627 0.0
C1101 C 0.57249 0.45065 0.36145 0.0
C1102 C 0.5712 0.45132 0.29161 0.0
C1103 C 0.54847 0.42823 0.29087 0.0
H1104 H 0.59991 0.48064 0.32555 0.0
H1105 H 0.5795 0.46133 0.26525 0.0
S1106 S 0.51419 0.3892 0.37503 0.0
N1107 N 0.53907 0.41392 0.39335 0.0
N1108 N 0.51642 0.39354 0.32829 0.0
C1109 C 0.53833 0.41583 0.32576 0.0
C1110 C 0.55042 0.427 0.36103 0.0
C1111 C 0.13233 0.57592 0.63178 0.0
C1112 C 0.13193 0.55282 0.63034 0.0
C1113 C 0.13284 0.58721 0.66685 0.0
C1114 C 0.13267 0.57564 0.70168 0.0
H1115 H 0.13142 0.5849 0.60564 0.0
H1116 H 0.13201 0.60444 0.66667 0.0
S1117 S 0.13326 0.51588 0.71338 0.0
N1118 N 0.13259 0.51934 0.66665 0.0
N1119 N 0.13375 0.54072 0.73258 0.0
C1120 C 0.13339 0.55312 0.7006 0.0
C1121 C 0.13302 0.54169 0.66491 0.0
C1122 C 0.40159 0.01628 0.00437 0.0
C1123 C 0.38345 0.01863 0.02571 0.0
C1124 C 0.39696 0.00771 0.96667 0.0
C1125 C 0.37398 0.00114 0.94869 0.0
H1126 H 0.41954 0.02095 0.01704 0.0
H1127 H 0.41118 0.00527 0.95205 0.0
S1128 S 0.3209 0.00551 0.99126 0.0
N1129 N 0.34208 0.01487 0.02578 0.0
N1130 N 0.33335 0.99885 0.95433 0.0
C1131 C 0.35594 0.00417 0.96924 0.0
C1132 C 0.36072 0.01299 0.00783 0.0
C1133 C 0.34725 0.3626 0.30326 0.0
C1134 C 0.36136 0.35077 0.29543 0.0
C1135 C 0.34246 0.36678 0.34093 0.0
C1136 C 0.35158 0.35926 0.37224 0.0
H1137 H 0.34088 0.36977 0.2801 0.0
H1138 H 0.33294 0.37743 0.34544 0.0
S1139 S 0.38687 0.32482 0.36739 0.0
N1140 N 0.38275 0.32986 0.3223 0.0
N1141 N 0.3729 0.33693 0.393 0.0
C1142 C 0.36409 0.34577 0.36485 0.0
C1143 C 0.36914 0.34166 0.32649 0.0
C1144 C 0.99751 0.39201 0.64531 0.0
C1145 C 0.0025 0.37511 0.62528 0.0
C1146 C 0.98978 0.38775 0.68346 0.0
C1147 C 0.98665 0.36639 0.70313 0.0
H1148 H 0.00024 0.40907 0.6317 0.0
H1149 H 0.98607 0.40128 0.69765 0.0
S1150 S 0.99638 0.3159 0.66339 0.0
N1151 N 0.0032 0.33585 0.62756 0.0
N1152 N 0.98845 0.32777 0.69968 0.0
C1153 C 0.99107 0.34904 0.68336 0.0
C1154 C -0.00084 0.35347 0.64439 0.0
C1155 C 0.60492 0.98486 0.00694 0.0
C1156 C 0.62305 0.98234 0.02797 0.0
C1157 C 0.60952 0.99356 0.96929 0.0
C1158 C 0.6325 0.00021 0.95124 0.0
H1159 H 0.58696 0.98004 0.01973 0.0
H1160 H 0.59523 0.99585 0.95461 0.0
S1161 S 0.68584 0.99626 0.99352 0.0
N1162 N 0.66452 0.98636 0.02792 0.0
N1163 N 0.6734 0.00315 0.95681 0.0
C1164 C 0.6507 0.99745 0.97171 0.0
C1165 C 0.64588 0.9883 0.01012 0.0
C1166 C 0.64592 0.62997 0.30764 0.0
C1167 C 0.63306 0.64277 0.29773 0.0
C1168 C 0.65003 0.62649 0.346 0.0
C1169 C 0.64114 0.63545 0.37575 0.0
H1170 H 0.65155 0.62134 0.28564 0.0
H1171 H 0.65849 0.61508 0.35237 0.0
S1172 S 0.60929 0.67288 0.36513 0.0
N1173 N 0.61375 0.66661 0.32084 0.0
N1174 N 0.62147 0.65994 0.39294 0.0
C1175 C 0.63001 0.6499 0.36626 0.0
C1176 C 0.626 0.65364 0.32721 0.0
C1177 C -0.00076 0.6435 0.69032 0.0
C1178 C 0.00201 0.62462 0.70881 0.0
C1179 C 0.99093 0.64058 0.65225 0.0
C1180 C 0.98565 0.61892 0.63134 0.0
H1181 H 0.00373 0.6607 0.70531 0.0
H1182 H 0.98904 0.65548 0.63889 0.0
S1183 S 0.98919 0.56376 0.66675 0.0
N1184 N 0.99852 0.58344 0.70323 0.0
N1185 N 0.98247 0.5778 0.63226 0.0
C1186 C 0.98788 0.59975 0.64971 0.0
C1187 C 0.99617 0.60264 0.68831 0.0
C1188 C 0.52443 0.00952 0.32657 0.0
C1189 C 0.51096 0.98311 0.32324 0.0
C1190 C 0.512 0.02343 0.32706 0.0
C1191 C 0.48556 0.01145 0.32499 0.0
H1192 H 0.54481 0.01966 0.32533 0.0
H1193 H 0.52339 0.04373 0.32527 0.0
S1194 S 0.44136 0.94259 0.32744 0.0
N1195 N 0.46952 0.94538 0.32505 0.0
N1196 N 0.4463 0.97161 0.32898 0.0
C1197 C 0.47187 0.98503 0.32768 0.0
C1198 C 0.48451 0.97081 0.32616 0.0
C1199 C 0.50866 0.51473 0.65169 0.0
C1200 C 0.51916 0.49945 0.65956 0.0
C1201 C 0.48257 0.50493 0.65328 0.0
C1202 C 0.46615 0.47954 0.66293 0.0
H1203 H 0.52034 0.53354 0.64037 0.0
H1204 H 0.4752 0.51665 0.64309 0.0
S1205 S 0.4851 0.43383 0.69522 0.0
N1206 N 0.51187 0.45928 0.6838 0.0
N1207 N 0.46278 0.44094 0.68773 0.0
C1208 C 0.47678 0.46511 0.67553 0.0
C1209 C 0.50332 0.47505 0.67359 0.0
C1210 C 0.0262 0.50771 0.01065 0.0
C1211 C 0.01961 0.52445 0.9938 0.0
C1212 C 0.00889 0.48182 0.0125 0.0
C1213 C 0.98446 0.47183 0.99746 0.0
H1214 H 0.0454 0.51443 0.0198 0.0
H1215 H 0.01523 0.46934 0.02315 0.0
S1216 S 0.95758 0.50802 0.95251 0.0
N1217 N 0.98658 0.52948 0.96415 0.0
N1218 N 0.95415 0.48095 0.96733 0.0
C1219 C 0.97708 0.48866 0.98332 0.0
C1220 C 0.99466 0.51497 0.98155 0.0
C1221 C 0.00333 0.52409 0.32219 0.0
C1222 C 0.97898 0.50985 0.3376 0.0
C1223 C 0.02036 0.51514 0.3232 0.0
C1224 C 0.01357 0.49164 0.33959 0.0
H1225 H 0.0099 0.54309 0.3122 0.0
H1226 H 0.03957 0.52751 0.31399 0.0
S1227 S 0.95139 0.44618 0.38056 0.0
N1228 N 0.94832 0.47023 0.36675 0.0
N1229 N 0.98027 0.45346 0.36852 0.0
C1230 C 0.98859 0.47628 0.35178 0.0
C1231 C 0.97127 0.48538 0.3508 0.0
C1232 C 0.48048 0.00156 0.68119 0.0
C1233 C 0.47173 0.97646 0.67036 0.0
C1234 C 0.50623 0.0193 0.68087 0.0
C1235 C 0.52411 0.01256 0.66964 0.0
H1236 H 0.46768 0.00697 0.6936 0.0
H1237 H 0.51221 0.03768 0.69304 0.0
S1238 S 0.51021 0.9509 0.62985 0.0
N1239 N 0.48236 0.94691 0.64167 0.0
N1240 N 0.53087 0.98039 0.64063 0.0
C1241 C 0.51532 0.98835 0.65445 0.0
C1242 C 0.48909 0.97026 0.65491 0.0
C1243 C 0.47062 0.48144 0.98903 0.0
C1244 C 0.48393 0.46997 0.00318 0.0
C1245 C 0.48078 0.50758 0.99129 0.0
C1246 C 0.50465 0.5231 0.00749 0.0
H1247 H 0.45143 0.46996 0.97908 0.0
H1248 H 0.46907 0.51546 0.9833 0.0
S1249 S 0.54808 0.50279 0.04536 0.0
N1250 N 0.5231 0.47651 0.03117 0.0
N1251 N 0.54218 0.52555 0.03478 0.0
C1252 C 0.51909 0.51219 0.01831 0.0
C1253 C 0.50873 0.4856 0.01629 0.0
C1254 C 0.42771 0.22013 0.14398 0.0
C1255 C 0.44012 0.24336 0.16305 0.0
C1256 C 0.42762 0.19894 0.15912 0.0
C1257 C 0.43982 0.2003 0.1939 0.0
H1258 H 0.41875 0.21856 0.11662 0.0
H1259 H 0.41881 0.18163 0.14274 0.0
S1260 S 0.47181 0.25591 0.25737 0.0
N1261 N 0.46264 0.26594 0.22024 0.0
N1262 N 0.4625 0.22606 0.24862 0.0
C1263 C 0.45123 0.22312 0.21406 0.0
C1264 C 0.45135 0.24467 0.19866 0.0
C1265 C 0.20087 0.419 0.46954 0.0
C1266 C 0.19359 0.43623 0.48166 0.0
C1267 C 0.22211 0.41943 0.48528 0.0
C1268 C 0.23651 0.43692 0.51393 0.0
H1269 H 0.19041 0.40553 0.44722 0.0
H1270 H 0.22774 0.4065 0.47414 0.0
S1271 S 0.22289 0.48364 0.55872 0.0
N1272 N 0.20083 0.46972 0.52585 0.0
N1273 N 0.24047 0.47026 0.55604 0.0
C1274 C 0.22865 0.45349 0.52732 0.0
C1275 C 0.20723 0.45319 0.51106 0.0
C1276 C 0.76568 0.20055 0.84838 0.0
C1277 C 0.7565 0.19965 0.81112 0.0
C1278 C 0.78633 0.22251 0.8626 0.0
C1279 C 0.7983 0.24437 0.84017 0.0
H1280 H 0.75637 0.18438 0.86714 0.0
H1281 H 0.79254 0.22262 0.89163 0.0
S1282 S 0.7835 0.25115 0.73962 0.0
N1283 N 0.76237 0.22197 0.75115 0.0
N1284 N 0.80101 0.26341 0.77815 0.0
C1285 C 0.78988 0.24355 0.80256 0.0
C1286 C 0.76899 0.22116 0.78798 0.0
C1287 C 0.57817 0.7795 0.15142 0.0
C1288 C 0.56027 0.75464 0.16092 0.0
C1289 C 0.57658 0.79976 0.16683 0.0
C1290 C 0.55723 0.79575 0.19257 0.0
H1291 H 0.59307 0.78323 0.13128 0.0
H1292 H 0.59009 0.81864 0.15754 0.0
S1293 S 0.50786 0.7341 0.23014 0.0
N1294 N 0.524 0.72702 0.19974 0.0
N1295 N 0.52128 0.76508 0.22941 0.0
C1296 C 0.53994 0.77094 0.20351 0.0
C1297 C 0.54142 0.75038 0.18753 0.0
C1298 C 0.78905 0.55353 0.52844 0.0
C1299 C 0.79619 0.55777 0.48973 0.0
C1300 C 0.76904 0.55619 0.54206 0.0
C1301 C 0.75544 0.56314 0.51743 0.0
H1302 H 0.79894 0.54795 0.5483 0.0
H1303 H 0.76396 0.55247 0.572 0.0
S1304 S 0.76633 0.57558 0.41322 0.0
N1305 N 0.78823 0.56909 0.42691 0.0
N1306 N 0.75023 0.57366 0.45216 0.0
C1307 C 0.76263 0.56772 0.47867 0.0
C1308 C 0.78312 0.56515 0.46491 0.0
C1309 C 0.19502 0.7669 0.80942 0.0
C1310 C 0.19108 0.7628 0.84908 0.0
C1311 C 0.21634 0.78819 0.79507 0.0
C1312 C 0.23422 0.80624 0.81989 0.0
H1313 H 0.18192 0.75313 0.78934 0.0
H1314 H 0.21902 0.79042 0.76439 0.0
S1315 S 0.23241 0.80452 0.92594 0.0
N1316 N 0.20653 0.77867 0.91283 0.0
N1317 N 0.24667 0.81881 0.8859 0.0
C1318 C 0.23027 0.80263 0.85957 0.0
C1319 C 0.20869 0.78084 0.87416 0.0
loop_
_geom_bond_atom_site_label_1
_geom_bond_atom_site_label_2
_geom_bond_distance
_geom_bond_site_symmetry_2
_ccdc_geom_bond_type
Li0 N17 1.990 . S
Li0 O60 1.956 . S
Li0 O61 1.970 . S
Li0 O62 1.961 . S
Li1 N25 1.990 . S
Li1 O60 1.970 . S
Li1 O61 1.956 . S
Li1 O63 1.961 . S
Li2 N47 1.990 . S
Li2 O60 1.961 . S
Li2 O62 1.956 . S
Li2 O63 1.970 . S
Li3 N53 1.990 . S
Li3 O61 1.961 . S
Li3 O62 1.970 . S
Li3 O63 1.956 . S
C4 C6 1.348 . S
C4 C7 1.356 . S
C4 O60 1.325 . S
N5 C8 1.314 . S
N5 C9 1.279 . S
C6 C4 1.348 . S
C6 C8 1.353 . S
C6 H64 0.929 . S
C7 C4 1.356 . S
C7 C9 1.358 . S
C7 H65 0.930 . S
C8 N5 1.314 . S
C8 C6 1.353 . S
C8 H66 0.930 . S
C9 N5 1.279 . S
C9 C7 1.358 . S
C9 H67 0.930 . S
C10 C13 1.348 . S
C10 C14 1.356 . S
C10 O61 1.325 . S
C11 N12 1.279 . S
C11 C14 1.358 . S
C11 H68 0.930 . S
N12 C11 1.279 . S
N12 C15 1.314 . S
C13 C10 1.348 . S
C13 C15 1.353 . S
C13 H69 0.929 . S
C14 C10 1.356 . S
C14 C11 1.358 . S
C14 H70 0.930 . S
C15 N12 1.314 . S
C15 C13 1.353 . S
C15 H71 0.930 . S
C16 N17 1.314 . S
C16 C21 1.353 1_545 S
C16 H22 0.930 . S
N17 Li0 1.990 . S
N17 C16 1.314 . S
N17 C19 1.279 . S
C18 C19 1.358 . S
C18 C20 1.356 . S
C18 H72 0.930 . S
C19 N17 1.279 . S
C19 C18 1.358 . S
C19 H23 0.930 . S
C20 C18 1.356 . S
C20 C21 1.348 1_545 S
C21 C16 1.353 1_565 S
C21 C20 1.348 1_565 S
C21 H73 0.929 . S
H22 C16 0.930 . S
H23 C19 0.930 . S
C24 N25 1.314 . S
C24 C26 1.353 . S
C24 H30 0.930 . S
N25 Li1 1.990 . S
N25 C24 1.314 . S
N25 C28 1.279 . S
C26 C24 1.353 . S
C26 C29 1.348 . S
C26 H74 0.929 . S
C27 C28 1.358 . S
C27 C29 1.356 . S
C27 H75 0.930 . S
C28 N25 1.279 . S
C28 C27 1.358 . S
C28 H31 0.930 . S
C29 C26 1.348 . S
C29 C27 1.356 . S
H30 C24 0.930 . S
H31 C28 0.930 . S
C32 C34 1.348 . S
C32 C35 1.356 . S
C32 O62 1.325 . S
N33 C36 1.314 . S
N33 C37 1.279 . S
C34 C32 1.348 . S
C34 C36 1.353 . S
C34 H76 0.929 . S
C35 C32 1.356 . S
C35 C37 1.358 . S
C35 H77 0.930 . S
C36 N33 1.314 . S
C36 C34 1.353 . S
C36 H78 0.930 . S
C37 N33 1.279 . S
C37 C35 1.358 . S
C37 H79 0.930 . S
C38 C39 1.348 . S
C38 C40 1.356 . S
C38 O63 1.325 . S
C39 C38 1.348 . S
C39 C41 1.353 . S
C39 H80 0.929 . S
C40 C38 1.356 . S
C40 C42 1.358 . S
C40 H81 0.930 . S
C41 C39 1.353 . S
C41 N43 1.314 . S
C41 H82 0.930 . S
C42 C40 1.358 . S
C42 N43 1.279 . S
C42 H83 0.930 . S
N43 C41 1.314 . S
N43 C42 1.279 . S
C44 C46 1.353 . S
C44 N47 1.314 . S
C44 H50 0.930 . S
C45 N47 1.279 . S
C45 C48 1.358 . S
C45 H51 0.930 . S
C46 C44 1.353 . S
C46 C49 1.348 . S
C46 H84 0.929 . S
N47 Li2 1.990 . S
N47 C44 1.314 . S
N47 C45 1.279 . S
C48 C45 1.358 . S
C48 C49 1.356 . S
C48 H85 0.930 . S
C49 C46 1.348 . S
C49 C48 1.356 . S
H50 C44 0.930 . S
H51 C45 0.930 . S
C52 N53 1.314 . S
C52 C54 1.353 . S
C52 H58 0.930 . S
N53 Li3 1.990 . S
N53 C52 1.314 . S
N53 C56 1.279 . S
C54 C52 1.353 . S
C54 C57 1.348 . S
C54 H86 0.929 . S
C55 C56 1.358 . S
C55 C57 1.356 . S
C55 H87 0.930 . S
C56 N53 1.279 . S
C56 C55 1.358 . S
C56 H59 0.930 . S
C57 C54 1.348 . S
C57 C55 1.356 . S
H58 C52 0.930 . S
H59 C56 0.930 . S
O60 Li0 1.956 . S
O60 Li1 1.970 . S
O60 Li2 1.961 . S
O60 C4 1.325 . S
O61 Li0 1.970 . S
O61 Li1 1.956 . S
O61 Li3 1.961 . S
O61 C10 1.325 . S
O62 Li0 1.961 . S
O62 Li2 1.956 . S
O62 Li3 1.970 . S
O62 C32 1.325 . S
O63 Li1 1.961 . S
O63 Li2 1.970 . S
O63 Li3 1.956 . S
O63 C38 1.325 . S
H64 C6 0.929 . S
H65 C7 0.930 . S
H66 C8 0.930 . S
H67 C9 0.930 . S
H68 C11 0.930 . S
H69 C13 0.929 . S
H70 C14 0.930 . S
H71 C15 0.930 . S
H72 C18 0.930 . S
H73 C21 0.929 . S
H74 C26 0.929 . S
H75 C27 0.930 . S
H76 C34 0.929 . S
H77 C35 0.930 . S
H78 C36 0.930 . S
H79 C37 0.930 . S
H80 C39 0.929 . S
H81 C40 0.930 . S
H82 C41 0.930 . S
H83 C42 0.930 . S
H84 C46 0.929 . S
H85 C48 0.930 . S
H86 C54 0.929 . S
H87 C55 0.930 . S
Li88 N105 1.990 . S
Li88 O148 1.956 . S
Li88 O149 1.970 . S
Li88 O150 1.961 . S
Li89 N113 1.990 . S
Li89 O148 1.970 . S
Li89 O149 1.956 . S
Li89 O151 1.961 . S
Li90 N135 1.990 . S
Li90 O148 1.961 . S
Li90 O150 1.956 . S
Li90 O151 1.970 . S
Li91 N141 1.990 . S
Li91 O149 1.961 . S
Li91 O150 1.970 . S
Li91 O151 1.956 . S
C92 C94 1.348 . S
C92 C95 1.356 . S
C92 O148 1.325 . S
N93 C96 1.314 . S
N93 C97 1.279 . S
C94 C92 1.348 . S
C94 C96 1.353 . S
C94 H152 0.929 . S
C95 C92 1.356 . S
C95 C97 1.358 . S
C95 H153 0.930 . S
C96 N93 1.314 . S
C96 C94 1.353 . S
C96 H154 0.930 . S
C97 N93 1.279 . S
C97 C95 1.358 . S
C97 H155 0.930 . S
C98 C101 1.348 . S
C98 C102 1.356 . S
C98 O149 1.325 . S
C99 N100 1.279 . S
C99 C102 1.358 . S
C99 H156 0.930 . S
N100 C99 1.279 . S
N100 C103 1.314 . S
C101 C98 1.348 . S
C101 C103 1.353 . S
C101 H157 0.929 . S
C102 C98 1.356 . S
C102 C99 1.358 . S
C102 H158 0.930 . S
C103 N100 1.314 . S
C103 C101 1.353 . S
C103 H159 0.930 . S
C104 N105 1.314 . S
C104 C109 1.353 . S
C104 H110 0.930 . S
N105 Li88 1.990 . S
N105 C104 1.314 . S
N105 C107 1.279 . S
C106 C107 1.358 . S
C106 C108 1.356 . S
C106 H160 0.930 . S
C107 N105 1.279 . S
C107 C106 1.358 . S
C107 H111 0.930 . S
C108 C106 1.356 . S
C108 C109 1.348 . S
C109 C104 1.353 . S
C109 C108 1.348 . S
C109 H161 0.929 . S
H110 C104 0.930 . S
H111 C107 0.930 . S
C112 N113 1.314 . S
C112 C114 1.353 . S
C112 H118 0.930 . S
N113 Li89 1.990 . S
N113 C112 1.314 . S
N113 C116 1.279 . S
C114 C112 1.353 . S
C114 C117 1.348 . S
C114 H162 0.929 . S
C115 C116 1.358 . S
C115 C117 1.356 . S
C115 H163 0.930 . S
C116 N113 1.279 . S
C116 C115 1.358 . S
C116 H119 0.930 . S
C117 C114 1.348 . S
C117 C115 1.356 . S
H118 C112 0.930 . S
H119 C116 0.930 . S
C120 C122 1.348 . S
C120 C123 1.356 . S
C120 O150 1.325 . S
N121 C124 1.314 . S
N121 C125 1.279 . S
C122 C120 1.348 . S
C122 C124 1.353 . S
C122 H164 0.929 . S
C123 C120 1.356 . S
C123 C125 1.358 . S
C123 H165 0.930 . S
C124 N121 1.314 . S
C124 C122 1.353 . S
C124 H166 0.930 . S
C125 N121 1.279 . S
C125 C123 1.358 . S
C125 H167 0.930 . S
C126 C127 1.348 . S
C126 C128 1.356 . S
C126 O151 1.325 . S
C127 C126 1.348 . S
C127 C129 1.353 . S
C127 H168 0.929 . S
C128 C126 1.356 . S
C128 C130 1.358 . S
C128 H169 0.930 . S
C129 C127 1.353 . S
C129 N131 1.314 . S
C129 H170 0.930 . S
C130 C128 1.358 . S
C130 N131 1.279 . S
C130 H171 0.930 . S
N131 C129 1.314 . S
N131 C130 1.279 . S
C132 C134 1.353 . S
C132 N135 1.314 . S
C132 H138 0.930 . S
C133 N135 1.279 . S
C133 C136 1.358 . S
C133 H139 0.930 . S
C134 C132 1.353 . S
C134 C137 1.348 . S
C134 H172 0.929 . S
N135 Li90 1.990 . S
N135 C132 1.314 . S
N135 C133 1.279 . S
C136 C133 1.358 . S
C136 C137 1.356 . S
C136 H173 0.930 . S
C137 C134 1.348 . S
C137 C136 1.356 . S
H138 C132 0.930 . S
H139 C133 0.930 . S
C140 N141 1.314 . S
C140 C142 1.353 . S
C140 H146 0.930 . S
N141 Li91 1.990 . S
N141 C140 1.314 . S
N141 C144 1.279 . S
C142 C140 1.353 . S
C142 C145 1.348 . S
C142 H174 0.929 . S
C143 C144 1.358 . S
C143 C145 1.356 . S
C143 H175 0.930 . S
C144 N141 1.279 . S
C144 C143 1.358 . S
C144 H147 0.930 . S
C145 C142 1.348 . S
C145 C143 1.356 . S
H146 C140 0.930 . S
H147 C144 0.930 . S
O148 Li88 1.956 . S
O148 Li89 1.970 . S
O148 Li90 1.961 . S
O148 C92 1.325 . S
O149 Li88 1.970 . S
O149 Li89 1.956 . S
O149 Li91 1.961 . S
O149 C98 1.325 . S
O150 Li88 1.961 . S
O150 Li90 1.956 . S
O150 Li91 1.970 . S
O150 C120 1.325 . S
O151 Li89 1.961 . S
O151 Li90 1.970 . S
O151 Li91 1.956 . S
O151 C126 1.325 . S
H152 C94 0.929 . S
H153 C95 0.930 . S
H154 C96 0.930 . S
H155 C97 0.930 . S
H156 C99 0.930 . S
H157 C101 0.929 . S
H158 C102 0.930 . S
H159 C103 0.930 . S
H160 C106 0.930 . S
H161 C109 0.929 . S
H162 C114 0.929 . S
H163 C115 0.930 . S
H164 C122 0.929 . S
H165 C123 0.930 . S
H166 C124 0.930 . S
H167 C125 0.930 . S
H168 C127 0.929 . S
H169 C128 0.930 . S
H170 C129 0.930 . S
H171 C130 0.930 . S
H172 C134 0.929 . S
H173 C136 0.930 . S
H174 C142 0.929 . S
H175 C143 0.930 . S
Li176 N193 1.990 . S
Li176 O236 1.956 . S
Li176 O237 1.970 . S
Li176 O238 1.961 . S
Li177 N201 1.990 . S
Li177 O236 1.970 . S
Li177 O237 1.956 . S
Li177 O239 1.961 . S
Li178 N223 1.990 . S
Li178 O236 1.961 . S
Li178 O238 1.956 . S
Li178 O239 1.970 . S
Li179 N229 1.990 . S
Li179 O237 1.961 . S
Li179 O238 1.970 . S
Li179 O239 1.956 . S
C180 C182 1.348 . S
C180 C183 1.356 . S
C180 O236 1.325 . S
N181 C184 1.314 . S
N181 C185 1.279 . S
C182 C180 1.348 . S
C182 C184 1.353 . S
C182 H240 0.929 . S
C183 C180 1.356 . S
C183 C185 1.358 . S
C183 H241 0.930 . S
C184 N181 1.314 . S
C184 C182 1.353 . S
C184 H242 0.930 . S
C185 N181 1.279 . S
C185 C183 1.358 . S
C185 H243 0.930 . S
C186 C189 1.348 . S
C186 C190 1.356 . S
C186 O237 1.325 . S
C187 N188 1.279 . S
C187 C190 1.358 . S
C187 H244 0.930 . S
N188 C187 1.279 . S
N188 C191 1.314 . S
C189 C186 1.348 . S
C189 C191 1.353 . S
C189 H245 0.929 . S
C190 C186 1.356 . S
C190 C187 1.358 . S
C190 H246 0.930 . S
C191 N188 1.314 . S
C191 C189 1.353 . S
C191 H247 0.930 . S
C192 N193 1.314 . S
C192 C197 1.353 . S
C192 H198 0.930 . S
N193 Li176 1.990 . S
N193 C192 1.314 . S
N193 C195 1.279 . S
C194 C195 1.358 . S
C194 C196 1.356 . S
C194 H248 0.930 . S
C195 N193 1.279 . S
C195 C194 1.358 . S
C195 H199 0.930 . S
C196 C194 1.356 . S
C196 C197 1.348 . S
C197 C192 1.353 . S
C197 C196 1.348 . S
C197 H249 0.929 . S
H198 C192 0.930 . S
H199 C195 0.930 . S
C200 N201 1.314 . S
C200 C202 1.353 . S
C200 H206 0.930 . S
N201 Li177 1.990 . S
N201 C200 1.314 . S
N201 C204 1.279 . S
C202 C200 1.353 . S
C202 C205 1.348 . S
C202 H250 0.929 . S
C203 C204 1.358 . S
C203 C205 1.356 . S
C203 H251 0.930 . S
C204 N201 1.279 . S
C204 C203 1.358 . S
C204 H207 0.930 . S
C205 C202 1.348 . S
C205 C203 1.356 . S
H206 C200 0.930 . S
H207 C204 0.930 . S
C208 C210 1.348 . S
C208 C211 1.356 . S
C208 O238 1.325 . S
N209 C212 1.314 . S
N209 C213 1.279 . S
C210 C208 1.348 . S
C210 C212 1.353 . S
C210 H252 0.929 . S
C211 C208 1.356 . S
C211 C213 1.358 . S
C211 H253 0.930 . S
C212 N209 1.314 . S
C212 C210 1.353 . S
C212 H254 0.930 . S
C213 N209 1.279 . S
C213 C211 1.358 . S
C213 H255 0.930 . S
C214 C215 1.348 . S
C214 C216 1.356 . S
C214 O239 1.325 . S
C215 C214 1.348 . S
C215 C217 1.353 . S
C215 H256 0.929 . S
C216 C214 1.356 . S
C216 C218 1.358 . S
C216 H257 0.930 . S
C217 C215 1.353 . S
C217 N219 1.314 . S
C217 H258 0.930 . S
C218 C216 1.358 . S
C218 N219 1.279 . S
C218 H259 0.930 . S
N219 C217 1.314 . S
N219 C218 1.279 . S
C220 C222 1.353 1_655 S
C220 N223 1.314 . S
C220 H226 0.930 . S
C221 N223 1.279 . S
C221 C224 1.358 . S
C221 H227 0.930 . S
C222 C220 1.353 1_455 S
C222 C225 1.348 1_455 S
C222 H260 0.929 . S
N223 Li178 1.990 . S
N223 C220 1.314 . S
N223 C221 1.279 . S
C224 C221 1.358 . S
C224 C225 1.356 . S
C224 H261 0.930 . S
C225 C222 1.348 1_655 S
C225 C224 1.356 . S
H226 C220 0.930 . S
H227 C221 0.930 . S
C228 N229 1.314 . S
C228 C230 1.353 . S
C228 H234 0.930 . S
N229 Li179 1.990 . S
N229 C228 1.314 . S
N229 C232 1.279 . S
C230 C228 1.353 . S
C230 C233 1.348 . S
C230 H262 0.929 . S
C231 C232 1.358 . S
C231 C233 1.356 . S
C231 H263 0.930 . S
C232 N229 1.279 . S
C232 C231 1.358 . S
C232 H235 0.930 . S
C233 C230 1.348 . S
C233 C231 1.356 . S
H234 C228 0.930 . S
H235 C232 0.930 . S
O236 Li176 1.956 . S
O236 Li177 1.970 . S
O236 Li178 1.961 . S
O236 C180 1.325 . S
O237 Li176 1.970 . S
O237 Li177 1.956 . S
O237 Li179 1.961 . S
O237 C186 1.325 . S
O238 Li176 1.961 . S
O238 Li178 1.956 . S
O238 Li179 1.970 . S
O238 C208 1.325 . S
O239 Li177 1.961 . S
O239 Li178 1.970 . S
O239 Li179 1.956 . S
O239 C214 1.325 . S
H240 C182 0.929 . S
H241 C183 0.930 . S
H242 C184 0.930 . S
H243 C185 0.930 . S
H244 C187 0.930 . S
H245 C189 0.929 . S
H246 C190 0.930 . S
H247 C191 0.930 . S
H248 C194 0.930 . S
H249 C197 0.929 . S
H250 C202 0.929 . S
H251 C203 0.930 . S
H252 C210 0.929 . S
H253 C211 0.930 . S
H254 C212 0.930 . S
H255 C213 0.930 . S
H256 C215 0.929 . S
H257 C216 0.930 . S
H258 C217 0.930 . S
H259 C218 0.930 . S
H260 C222 0.929 . S
H261 C224 0.930 . S
H262 C230 0.929 . S
H263 C231 0.930 . S
Li264 N281 1.990 . S
Li264 O324 1.956 . S
Li264 O325 1.970 . S
Li264 O326 1.961 . S
Li265 N289 1.990 . S
Li265 O324 1.970 . S
Li265 O325 1.956 . S
Li265 O327 1.961 . S
Li266 N311 1.990 . S
Li266 O324 1.961 . S
Li266 O326 1.956 . S
Li266 O327 1.970 . S
Li267 N317 1.990 . S
Li267 O325 1.961 . S
Li267 O326 1.970 . S
Li267 O327 1.956 . S
C268 C270 1.348 . S
C268 C271 1.356 . S
C268 O324 1.325 . S
N269 C272 1.314 . S
N269 C273 1.279 . S
C270 C268 1.348 . S
C270 C272 1.353 . S
C270 H328 0.929 . S
C271 C268 1.356 . S
C271 C273 1.358 . S
C271 H329 0.930 . S
C272 N269 1.314 . S
C272 C270 1.353 . S
C272 H330 0.930 . S
C273 N269 1.279 . S
C273 C271 1.358 . S
C273 H331 0.930 . S
C274 C277 1.348 . S
C274 C278 1.356 . S
C274 O325 1.325 . S
C275 N276 1.279 . S
C275 C278 1.358 . S
C275 H332 0.930 . S
N276 C275 1.279 . S
N276 C279 1.314 . S
C277 C274 1.348 . S
C277 C279 1.353 . S
C277 H333 0.929 . S
C278 C274 1.356 . S
C278 C275 1.358 . S
C278 H334 0.930 . S
C279 N276 1.314 . S
C279 C277 1.353 . S
C279 H335 0.930 . S
C280 N281 1.314 . S
C280 C285 1.353 . S
C280 H286 0.930 . S
N281 Li264 1.990 . S
N281 C280 1.314 . S
N281 C283 1.279 . S
C282 C283 1.358 . S
C282 C284 1.356 . S
C282 H336 0.930 . S
C283 N281 1.279 . S
C283 C282 1.358 . S
C283 H287 0.930 . S
C284 C282 1.356 . S
C284 C285 1.348 . S
C285 C280 1.353 . S
C285 C284 1.348 . S
C285 H337 0.929 . S
H286 C280 0.930 . S
H287 C283 0.930 . S
C288 N289 1.314 . S
C288 C290 1.353 . S
C288 H294 0.930 . S
N289 Li265 1.990 . S
N289 C288 1.314 . S
N289 C292 1.279 . S
C290 C288 1.353 . S
C290 C293 1.348 . S
C290 H338 0.929 . S
C291 C292 1.358 . S
C291 C293 1.356 . S
C291 H339 0.930 . S
C292 N289 1.279 . S
C292 C291 1.358 . S
C292 H295 0.930 . S
C293 C290 1.348 . S
C293 C291 1.356 . S
H294 C288 0.930 . S
H295 C292 0.930 . S
C296 C298 1.348 . S
C296 C299 1.356 . S
C296 O326 1.325 . S
N297 C300 1.314 . S
N297 C301 1.279 . S
C298 C296 1.348 . S
C298 C300 1.353 . S
C298 H340 0.929 . S
C299 C296 1.356 . S
C299 C301 1.358 . S
C299 H341 0.930 . S
C300 N297 1.314 . S
C300 C298 1.353 . S
C300 H342 0.930 . S
C301 N297 1.279 . S
C301 C299 1.358 . S
C301 H343 0.930 . S
C302 C303 1.348 . S
C302 C304 1.356 . S
C302 O327 1.325 . S
C303 C302 1.348 . S
C303 C305 1.353 . S
C303 H344 0.929 . S
C304 C302 1.356 . S
C304 C306 1.358 . S
C304 H345 0.930 . S
C305 C303 1.353 . S
C305 N307 1.314 . S
C305 H346 0.930 . S
C306 C304 1.358 . S
C306 N307 1.279 . S
C306 H347 0.930 . S
N307 C305 1.314 . S
N307 C306 1.279 . S
C308 C310 1.353 1_565 S
C308 N311 1.314 . S
C308 H314 0.930 . S
C309 N311 1.279 . S
C309 C312 1.358 . S
C309 H315 0.930 . S
C310 C308 1.353 1_545 S
C310 C313 1.348 1_545 S
C310 H348 0.929 . S
N311 Li266 1.990 . S
N311 C308 1.314 . S
N311 C309 1.279 . S
C312 C309 1.358 . S
C312 C313 1.356 . S
C312 H349 0.930 . S
C313 C310 1.348 1_565 S
C313 C312 1.356 . S
H314 C308 0.930 . S
H315 C309 0.930 . S
C316 N317 1.314 . S
C316 C318 1.353 . S
C316 H322 0.930 . S
N317 Li267 1.990 . S
N317 C316 1.314 . S
N317 C320 1.279 . S
C318 C316 1.353 . S
C318 C321 1.348 . S
C318 H350 0.929 . S
C319 C320 1.358 . S
C319 C321 1.356 . S
C319 H351 0.930 . S
C320 N317 1.279 . S
C320 C319 1.358 . S
C320 H323 0.930 . S
C321 C318 1.348 . S
C321 C319 1.356 . S
H322 C316 0.930 . S
H323 C320 0.930 . S
O324 Li264 1.956 . S
O324 Li265 1.970 . S
O324 Li266 1.961 . S
O324 C268 1.325 . S
O325 Li264 1.970 . S
O325 Li265 1.956 . S
O325 Li267 1.961 . S
O325 C274 1.325 . S
O326 Li264 1.961 . S
O326 Li266 1.956 . S
O326 Li267 1.970 . S
O326 C296 1.325 . S
O327 Li265 1.961 . S
O327 Li266 1.970 . S
O327 Li267 1.956 . S
O327 C302 1.325 . S
H328 C270 0.929 . S
H329 C271 0.930 . S
H330 C272 0.930 . S
H331 C273 0.930 . S
H332 C275 0.930 . S
H333 C277 0.929 . S
H334 C278 0.930 . S
H335 C279 0.930 . S
H336 C282 0.930 . S
H337 C285 0.929 . S
H338 C290 0.929 . S
H339 C291 0.930 . S
H340 C298 0.929 . S
H341 C299 0.930 . S
H342 C300 0.930 . S
H343 C301 0.930 . S
H344 C303 0.929 . S
H345 C304 0.930 . S
H346 C305 0.930 . S
H347 C306 0.930 . S
H348 C310 0.929 . S
H349 C312 0.930 . S
H350 C318 0.929 . S
H351 C319 0.930 . S
Li352 N369 1.990 . S
Li352 O412 1.956 . S
Li352 O413 1.970 . S
Li352 O414 1.961 . S
Li353 N377 1.990 . S
Li353 O412 1.970 . S
Li353 O413 1.956 . S
Li353 O415 1.961 . S
Li354 N399 1.990 . S
Li354 O412 1.961 . S
Li354 O414 1.956 . S
Li354 O415 1.970 . S
Li355 N405 1.990 . S
Li355 O413 1.961 . S
Li355 O414 1.970 . S
Li355 O415 1.956 . S
C356 C358 1.348 . S
C356 C359 1.356 . S
C356 O412 1.325 . S
N357 C360 1.314 . S
N357 C361 1.279 . S
C358 C356 1.348 . S
C358 C360 1.353 . S
C358 H416 0.929 . S
C359 C356 1.356 . S
C359 C361 1.358 . S
C359 H417 0.930 . S
C360 N357 1.314 . S
C360 C358 1.353 . S
C360 H418 0.930 . S
C361 N357 1.279 . S
C361 C359 1.358 . S
C361 H419 0.930 . S
C362 C365 1.348 . S
C362 C366 1.356 . S
C362 O413 1.325 . S
C363 N364 1.279 . S
C363 C366 1.358 . S
C363 H420 0.930 . S
N364 C363 1.279 . S
N364 C367 1.314 . S
C365 C362 1.348 . S
C365 C367 1.353 . S
C365 H421 0.929 . S
C366 C362 1.356 . S
C366 C363 1.358 . S
C366 H422 0.930 . S
C367 N364 1.314 . S
C367 C365 1.353 . S
C367 H423 0.930 . S
C368 N369 1.314 . S
C368 C373 1.353 . S
C368 H374 0.930 . S
N369 Li352 1.990 . S
N369 C368 1.314 . S
N369 C371 1.279 . S
C370 C371 1.358 . S
C370 C372 1.356 . S
C370 H424 0.930 . S
C371 N369 1.279 . S
C371 C370 1.358 . S
C371 H375 0.930 . S
C372 C370 1.356 . S
C372 C373 1.348 . S
C373 C368 1.353 . S
C373 C372 1.348 . S
C373 H425 0.929 . S
H374 C368 0.930 . S
H375 C371 0.930 . S
C376 N377 1.314 . S
C376 C378 1.353 . S
C376 H382 0.930 . S
N377 Li353 1.990 . S
N377 C376 1.314 . S
N377 C380 1.279 . S
C378 C376 1.353 . S
C378 C381 1.348 . S
C378 H426 0.929 . S
C379 C380 1.358 . S
C379 C381 1.356 . S
C379 H427 0.930 . S
C380 N377 1.279 . S
C380 C379 1.358 . S
C380 H383 0.930 . S
C381 C378 1.348 . S
C381 C379 1.356 . S
H382 C376 0.930 . S
H383 C380 0.930 . S
C384 C386 1.348 . S
C384 C387 1.356 . S
C384 O414 1.325 . S
N385 C388 1.314 . S
N385 C389 1.279 . S
C386 C384 1.348 . S
C386 C388 1.353 . S
C386 H428 0.929 . S
C387 C384 1.356 . S
C387 C389 1.358 . S
C387 H429 0.930 . S
C388 N385 1.314 . S
C388 C386 1.353 . S
C388 H430 0.930 . S
C389 N385 1.279 . S
C389 C387 1.358 . S
C389 H431 0.930 . S
C390 C391 1.348 . S
C390 C392 1.356 . S
C390 O415 1.325 . S
C391 C390 1.348 . S
C391 C393 1.353 . S
C391 H432 0.929 . S
C392 C390 1.356 . S
C392 C394 1.358 . S
C392 H433 0.930 . S
C393 C391 1.353 . S
C393 N395 1.314 . S
C393 H434 0.930 . S
C394 C392 1.358 . S
C394 N395 1.279 . S
C394 H435 0.930 . S
N395 C393 1.314 . S
N395 C394 1.279 . S
C396 C398 1.353 . S
C396 N399 1.314 . S
C396 H402 0.930 . S
C397 N399 1.279 . S
C397 C400 1.358 . S
C397 H403 0.930 . S
C398 C396 1.353 . S
C398 C401 1.348 . S
C398 H436 0.929 . S
N399 Li354 1.990 . S
N399 C396 1.314 . S
N399 C397 1.279 . S
C400 C397 1.358 . S
C400 C401 1.356 . S
C400 H437 0.930 . S
C401 C398 1.348 . S
C401 C400 1.356 . S
H402 C396 0.930 . S
H403 C397 0.930 . S
C404 N405 1.314 . S
C404 C406 1.353 . S
C404 H410 0.930 . S
N405 Li355 1.990 . S
N405 C404 1.314 . S
N405 C408 1.279 . S
C406 C404 1.353 . S
C406 C409 1.348 . S
C406 H438 0.929 . S
C407 C408 1.358 . S
C407 C409 1.356 . S
C407 H439 0.930 . S
C408 N405 1.279 . S
C408 C407 1.358 . S
C408 H411 0.930 . S
C409 C406 1.348 . S
C409 C407 1.356 . S
H410 C404 0.930 . S
H411 C408 0.930 . S
O412 Li352 1.956 . S
O412 Li353 1.970 . S
O412 Li354 1.961 . S
O412 C356 1.325 . S
O413 Li352 1.970 . S
O413 Li353 1.956 . S
O413 Li355 1.961 . S
O413 C362 1.325 . S
O414 Li352 1.961 . S
O414 Li354 1.956 . S
O414 Li355 1.970 . S
O414 C384 1.325 . S
O415 Li353 1.961 . S
O415 Li354 1.970 . S
O415 Li355 1.956 . S
O415 C390 1.325 . S
H416 C358 0.929 . S
H417 C359 0.930 . S
H418 C360 0.930 . S
H419 C361 0.930 . S
H420 C363 0.930 . S
H421 C365 0.929 . S
H422 C366 0.930 . S
H423 C367 0.930 . S
H424 C370 0.930 . S
H425 C373 0.929 . S
H426 C378 0.929 . S
H427 C379 0.930 . S
H428 C386 0.929 . S
H429 C387 0.930 . S
H430 C388 0.930 . S
H431 C389 0.930 . S
H432 C391 0.929 . S
H433 C392 0.930 . S
H434 C393 0.930 . S
H435 C394 0.930 . S
H436 C398 0.929 . S
H437 C400 0.930 . S
H438 C406 0.929 . S
H439 C407 0.930 . S
Li440 N457 1.990 . S
Li440 O500 1.956 . S
Li440 O501 1.970 . S
Li440 O502 1.961 . S
Li441 N465 1.990 . S
Li441 O500 1.970 . S
Li441 O501 1.956 . S
Li441 O503 1.961 . S
Li442 N487 1.990 . S
Li442 O500 1.961 . S
Li442 O502 1.956 . S
Li442 O503 1.970 . S
Li443 N493 1.990 . S
Li443 O501 1.961 . S
Li443 O502 1.970 . S
Li443 O503 1.956 . S
C444 C446 1.348 . S
C444 C447 1.356 . S
C444 O500 1.325 . S
N445 C448 1.314 . S
N445 C449 1.279 . S
C446 C444 1.348 . S
C446 C448 1.353 . S
C446 H504 0.929 . S
C447 C444 1.356 . S
C447 C449 1.358 . S
C447 H505 0.930 . S
C448 N445 1.314 . S
C448 C446 1.353 . S
C448 H506 0.930 . S
C449 N445 1.279 . S
C449 C447 1.358 . S
C449 H507 0.930 . S
C450 C453 1.348 . S
C450 C454 1.356 . S
C450 O501 1.325 . S
C451 N452 1.279 . S
C451 C454 1.358 . S
C451 H508 0.930 . S
N452 C451 1.279 . S
N452 C455 1.314 . S
C453 C450 1.348 . S
C453 C455 1.353 . S
C453 H509 0.929 . S
C454 C450 1.356 . S
C454 C451 1.358 . S
C454 H510 0.930 . S
C455 N452 1.314 . S
C455 C453 1.353 . S
C455 H511 0.930 . S
C456 N457 1.314 . S
C456 C461 1.353 1_455 S
C456 H462 0.930 . S
N457 Li440 1.990 . S
N457 C456 1.314 . S
N457 C459 1.279 . S
C458 C459 1.358 . S
C458 C460 1.356 . S
C458 H512 0.930 . S
C459 N457 1.279 . S
C459 C458 1.358 . S
C459 H463 0.930 . S
C460 C458 1.356 . S
C460 C461 1.348 1_455 S
C461 C456 1.353 1_655 S
C461 C460 1.348 1_655 S
C461 H513 0.929 . S
H462 C456 0.930 . S
H463 C459 0.930 . S
C464 N465 1.314 . S
C464 C466 1.353 . S
C464 H470 0.930 . S
N465 Li441 1.990 . S
N465 C464 1.314 . S
N465 C468 1.279 . S
C466 C464 1.353 . S
C466 C469 1.348 . S
C466 H514 0.929 . S
C467 C468 1.358 . S
C467 C469 1.356 . S
C467 H515 0.930 . S
C468 N465 1.279 . S
C468 C467 1.358 . S
C468 H471 0.930 . S
C469 C466 1.348 . S
C469 C467 1.356 . S
H470 C464 0.930 . S
H471 C468 0.930 . S
C472 C474 1.348 . S
C472 C475 1.356 . S
C472 O502 1.325 . S
N473 C476 1.314 . S
N473 C477 1.279 . S
C474 C472 1.348 . S
C474 C476 1.353 . S
C474 H516 0.929 . S
C475 C472 1.356 . S
C475 C477 1.358 . S
C475 H517 0.930 . S
C476 N473 1.314 . S
C476 C474 1.353 . S
C476 H518 0.930 . S
C477 N473 1.279 . S
C477 C475 1.358 . S
C477 H519 0.930 . S
C478 C479 1.348 . S
C478 C480 1.356 . S
C478 O503 1.325 . S
C479 C478 1.348 . S
C479 C481 1.353 . S
C479 H520 0.929 . S
C480 C478 1.356 . S
C480 C482 1.358 . S
C480 H521 0.930 . S
C481 C479 1.353 . S
C481 N483 1.314 . S
C481 H522 0.930 . S
C482 C480 1.358 . S
C482 N483 1.279 . S
C482 H523 0.930 . S
N483 C481 1.314 . S
N483 C482 1.279 . S
C484 C486 1.353 . S
C484 N487 1.314 . S
C484 H490 0.930 . S
C485 N487 1.279 . S
C485 C488 1.358 . S
C485 H491 0.930 . S
C486 C484 1.353 . S
C486 C489 1.348 . S
C486 H524 0.929 . S
N487 Li442 1.990 . S
N487 C484 1.314 . S
N487 C485 1.279 . S
C488 C485 1.358 . S
C488 C489 1.356 . S
C488 H525 0.930 . S
C489 C486 1.348 . S
C489 C488 1.356 . S
H490 C484 0.930 . S
H491 C485 0.930 . S
C492 N493 1.314 . S
C492 C494 1.353 . S
C492 H498 0.930 . S
N493 Li443 1.990 . S
N493 C492 1.314 . S
N493 C496 1.279 . S
C494 C492 1.353 . S
C494 C497 1.348 . S
C494 H526 0.929 . S
C495 C496 1.358 . S
C495 C497 1.356 . S
C495 H527 0.930 . S
C496 N493 1.279 . S
C496 C495 1.358 . S
C496 H499 0.930 . S
C497 C494 1.348 . S
C497 C495 1.356 . S
H498 C492 0.930 . S
H499 C496 0.930 . S
O500 Li440 1.956 . S
O500 Li441 1.970 . S
O500 Li442 1.961 . S
O500 C444 1.325 . S
O501 Li440 1.970 . S
O501 Li441 1.956 . S
O501 Li443 1.961 . S
O501 C450 1.325 . S
O502 Li440 1.961 . S
O502 Li442 1.956 . S
O502 Li443 1.970 . S
O502 C472 1.325 . S
O503 Li441 1.961 . S
O503 Li442 1.970 . S
O503 Li443 1.956 . S
O503 C478 1.325 . S
H504 C446 0.929 . S
H505 C447 0.930 . S
H506 C448 0.930 . S
H507 C449 0.930 . S
H508 C451 0.930 . S
H509 C453 0.929 . S
H510 C454 0.930 . S
H511 C455 0.930 . S
H512 C458 0.930 . S
H513 C461 0.929 . S
H514 C466 0.929 . S
H515 C467 0.930 . S
H516 C474 0.929 . S
H517 C475 0.930 . S
H518 C476 0.930 . S
H519 C477 0.930 . S
H520 C479 0.929 . S
H521 C480 0.930 . S
H522 C481 0.930 . S
H523 C482 0.930 . S
H524 C486 0.929 . S
H525 C488 0.930 . S
H526 C494 0.929 . S
H527 C495 0.930 . S
Li528 N545 1.990 . S
Li528 O588 1.956 . S
Li528 O589 1.970 . S
Li528 O590 1.961 . S
Li529 N553 1.990 . S
Li529 O588 1.970 . S
Li529 O589 1.956 . S
Li529 O591 1.961 . S
Li530 N575 1.990 . S
Li530 O588 1.961 . S
Li530 O590 1.956 . S
Li530 O591 1.970 . S
Li531 N581 1.990 . S
Li531 O589 1.961 . S
Li531 O590 1.970 . S
Li531 O591 1.956 . S
C532 C534 1.348 . S
C532 C535 1.356 . S
C532 O588 1.325 . S
N533 C536 1.314 . S
N533 C537 1.279 . S
C534 C532 1.348 . S
C534 C536 1.353 . S
C534 H592 0.929 . S
C535 C532 1.356 . S
C535 C537 1.358 . S
C535 H593 0.930 . S
C536 N533 1.314 . S
C536 C534 1.353 . S
C536 H594 0.930 . S
C537 N533 1.279 . S
C537 C535 1.358 . S
C537 H595 0.930 . S
C538 C541 1.348 . S
C538 C542 1.356 . S
C538 O589 1.325 . S
C539 N540 1.279 . S
C539 C542 1.358 . S
C539 H596 0.930 . S
N540 C539 1.279 . S
N540 C543 1.314 . S
C541 C538 1.348 . S
C541 C543 1.353 . S
C541 H597 0.929 . S
C542 C538 1.356 . S
C542 C539 1.358 . S
C542 H598 0.930 . S
C543 N540 1.314 . S
C543 C541 1.353 . S
C543 H599 0.930 . S
C544 N545 1.314 . S
C544 C549 1.353 . S
C544 H550 0.930 . S
N545 Li528 1.990 . S
N545 C544 1.314 . S
N545 C547 1.279 . S
C546 C547 1.358 . S
C546 C548 1.356 . S
C546 H600 0.930 . S
C547 N545 1.279 . S
C547 C546 1.358 . S
C547 H551 0.930 . S
C548 C546 1.356 . S
C548 C549 1.348 . S
C549 C544 1.353 . S
C549 C548 1.348 . S
C549 H601 0.929 . S
H550 C544 0.930 . S
H551 C547 0.930 . S
C552 N553 1.314 . S
C552 C554 1.353 1_655 S
C552 H558 0.930 . S
N553 Li529 1.990 . S
N553 C552 1.314 . S
N553 C556 1.279 . S
C554 C552 1.353 1_455 S
C554 C557 1.348 1_455 S
C554 H602 0.929 . S
C555 C556 1.358 . S
C555 C557 1.356 . S
C555 H603 0.930 . S
C556 N553 1.279 . S
C556 C555 1.358 . S
C556 H559 0.930 . S
C557 C554 1.348 1_655 S
C557 C555 1.356 . S
H558 C552 0.930 . S
H559 C556 0.930 . S
C560 C562 1.348 . S
C560 C563 1.356 . S
C560 O590 1.325 . S
N561 C564 1.314 . S
N561 C565 1.279 . S
C562 C560 1.348 . S
C562 C564 1.353 . S
C562 H604 0.929 . S
C563 C560 1.356 . S
C563 C565 1.358 . S
C563 H605 0.930 . S
C564 N561 1.314 . S
C564 C562 1.353 . S
C564 H606 0.930 . S
C565 N561 1.279 . S
C565 C563 1.358 . S
C565 H607 0.930 . S
C566 C567 1.348 . S
C566 C568 1.356 . S
C566 O591 1.325 . S
C567 C566 1.348 . S
C567 C569 1.353 . S
C567 H608 0.929 . S
C568 C566 1.356 . S
C568 C570 1.358 . S
C568 H609 0.930 . S
C569 C567 1.353 . S
C569 N571 1.314 . S
C569 H610 0.930 . S
C570 C568 1.358 . S
C570 N571 1.279 . S
C570 H611 0.930 . S
N571 C569 1.314 . S
N571 C570 1.279 . S
C572 C574 1.353 . S
C572 N575 1.314 . S
C572 H578 0.930 . S
C573 N575 1.279 . S
C573 C576 1.358 . S
C573 H579 0.930 . S
C574 C572 1.353 . S
C574 C577 1.348 . S
C574 H612 0.929 . S
N575 Li530 1.990 . S
N575 C572 1.314 . S
N575 C573 1.279 . S
C576 C573 1.358 . S
C576 C577 1.356 . S
C576 H613 0.930 . S
C577 C574 1.348 . S
C577 C576 1.356 . S
H578 C572 0.930 . S
H579 C573 0.930 . S
C580 N581 1.314 . S
C580 C582 1.353 . S
C580 H586 0.930 . S
N581 Li531 1.990 . S
N581 C580 1.314 . S
N581 C584 1.279 . S
C582 C580 1.353 . S
C582 C585 1.348 . S
C582 H614 0.929 . S
C583 C584 1.358 . S
C583 C585 1.356 . S
C583 H615 0.930 . S
C584 N581 1.279 . S
C584 C583 1.358 . S
C584 H587 0.930 . S
C585 C582 1.348 . S
C585 C583 1.356 . S
H586 C580 0.930 . S
H587 C584 0.930 . S
O588 Li528 1.956 . S
O588 Li529 1.970 . S
O588 Li530 1.961 . S
O588 C532 1.325 . S
O589 Li528 1.970 . S
O589 Li529 1.956 . S
O589 Li531 1.961 . S
O589 C538 1.325 . S
O590 Li528 1.961 . S
O590 Li530 1.956 . S
O590 Li531 1.970 . S
O590 C560 1.325 . S
O591 Li529 1.961 . S
O591 Li530 1.970 . S
O591 Li531 1.956 . S
O591 C566 1.325 . S
H592 C534 0.929 . S
H593 C535 0.930 . S
H594 C536 0.930 . S
H595 C537 0.930 . S
H596 C539 0.930 . S
H597 C541 0.929 . S
H598 C542 0.930 . S
H599 C543 0.930 . S
H600 C546 0.930 . S
H601 C549 0.929 . S
H602 C554 0.929 . S
H603 C555 0.930 . S
H604 C562 0.929 . S
H605 C563 0.930 . S
H606 C564 0.930 . S
H607 C565 0.930 . S
H608 C567 0.929 . S
H609 C568 0.930 . S
H610 C569 0.930 . S
H611 C570 0.930 . S
H612 C574 0.929 . S
H613 C576 0.930 . S
H614 C582 0.929 . S
H615 C583 0.930 . S
Li616 N633 1.990 . S
Li616 O676 1.956 . S
Li616 O677 1.970 . S
Li616 O678 1.961 . S
Li617 N641 1.990 . S
Li617 O676 1.970 . S
Li617 O677 1.956 . S
Li617 O679 1.961 . S
Li618 N663 1.990 . S
Li618 O676 1.961 . S
Li618 O678 1.956 . S
Li618 O679 1.970 . S
Li619 N669 1.990 . S
Li619 O677 1.961 . S
Li619 O678 1.970 . S
Li619 O679 1.956 . S
C620 C622 1.348 . S
C620 C623 1.356 . S
C620 O676 1.325 . S
N621 C624 1.314 . S
N621 C625 1.279 . S
C622 C620 1.348 . S
C622 C624 1.353 . S
C622 H680 0.929 . S
C623 C620 1.356 . S
C623 C625 1.358 . S
C623 H681 0.930 . S
C624 N621 1.314 . S
C624 C622 1.353 . S
C624 H682 0.930 . S
C625 N621 1.279 . S
C625 C623 1.358 . S
C625 H683 0.930 . S
C626 C629 1.348 . S
C626 C630 1.356 . S
C626 O677 1.325 . S
C627 N628 1.279 . S
C627 C630 1.358 . S
C627 H684 0.930 . S
N628 C627 1.279 . S
N628 C631 1.314 . S
C629 C626 1.348 . S
C629 C631 1.353 . S
C629 H685 0.929 . S
C630 C626 1.356 . S
C630 C627 1.358 . S
C630 H686 0.930 . S
C631 N628 1.314 . S
C631 C629 1.353 . S
C631 H687 0.930 . S
C632 N633 1.314 . S
C632 C637 1.353 . S
C632 H638 0.930 . S
N633 Li616 1.990 . S
N633 C632 1.314 . S
N633 C635 1.279 . S
C634 C635 1.358 . S
C634 C636 1.356 . S
C634 H688 0.930 . S
C635 N633 1.279 . S
C635 C634 1.358 . S
C635 H639 0.930 . S
C636 C634 1.356 . S
C636 C637 1.348 . S
C637 C632 1.353 . S
C637 C636 1.348 . S
C637 H689 0.929 . S
H638 C632 0.930 . S
H639 C635 0.930 . S
C640 N641 1.314 . S
C640 C642 1.353 . S
C640 H646 0.930 . S
N641 Li617 1.990 . S
N641 C640 1.314 . S
N641 C644 1.279 . S
C642 C640 1.353 . S
C642 C645 1.348 . S
C642 H690 0.929 . S
C643 C644 1.358 . S
C643 C645 1.356 . S
C643 H691 0.930 . S
C644 N641 1.279 . S
C644 C643 1.358 . S
C644 H647 0.930 . S
C645 C642 1.348 . S
C645 C643 1.356 . S
H646 C640 0.930 . S
H647 C644 0.930 . S
C648 C650 1.348 . S
C648 C651 1.356 . S
C648 O678 1.325 . S
N649 C652 1.314 . S
N649 C653 1.279 . S
C650 C648 1.348 . S
C650 C652 1.353 . S
C650 H692 0.929 . S
C651 C648 1.356 . S
C651 C653 1.358 . S
C651 H693 0.930 . S
C652 N649 1.314 . S
C652 C650 1.353 . S
C652 H694 0.930 . S
C653 N649 1.279 . S
C653 C651 1.358 . S
C653 H695 0.930 . S
C654 C655 1.348 . S
C654 C656 1.356 . S
C654 O679 1.325 . S
C655 C654 1.348 . S
C655 C657 1.353 . S
C655 H696 0.929 . S
C656 C654 1.356 . S
C656 C658 1.358 . S
C656 H697 0.930 . S
C657 C655 1.353 . S
C657 N659 1.314 . S
C657 H698 0.930 . S
C658 C656 1.358 . S
C658 N659 1.279 . S
C658 H699 0.930 . S
N659 C657 1.314 . S
N659 C658 1.279 . S
C660 C662 1.353 . S
C660 N663 1.314 . S
C660 H666 0.930 . S
C661 N663 1.279 . S
C661 C664 1.358 . S
C661 H667 0.930 . S
C662 C660 1.353 . S
C662 C665 1.348 . S
C662 H700 0.929 . S
N663 Li618 1.990 . S
N663 C660 1.314 . S
N663 C661 1.279 . S
C664 C661 1.358 . S
C664 C665 1.356 . S
C664 H701 0.930 . S
C665 C662 1.348 . S
C665 C664 1.356 . S
H666 C660 0.930 . S
H667 C661 0.930 . S
C668 N669 1.314 . S
C668 C670 1.353 1_565 S
C668 H674 0.930 . S
N669 Li619 1.990 . S
N669 C668 1.314 . S
N669 C672 1.279 . S
C670 C668 1.353 1_545 S
C670 C673 1.348 1_545 S
C670 H702 0.929 . S
C671 C672 1.358 . S
C671 C673 1.356 . S
C671 H703 0.930 . S
C672 N669 1.279 . S
C672 C671 1.358 . S
C672 H675 0.930 . S
C673 C670 1.348 1_565 S
C673 C671 1.356 . S
H674 C668 0.930 . S
H675 C672 0.930 . S
O676 Li616 1.956 . S
O676 Li617 1.970 . S
O676 Li618 1.961 . S
O676 C620 1.325 . S
O677 Li616 1.970 . S
O677 Li617 1.956 . S
O677 Li619 1.961 . S
O677 C626 1.325 . S
O678 Li616 1.961 . S
O678 Li618 1.956 . S
O678 Li619 1.970 . S
O678 C648 1.325 . S
O679 Li617 1.961 . S
O679 Li618 1.970 . S
O679 Li619 1.956 . S
O679 C654 1.325 . S
H680 C622 0.929 . S
H681 C623 0.930 . S
H682 C624 0.930 . S
H683 C625 0.930 . S
H684 C627 0.930 . S
H685 C629 0.929 . S
H686 C630 0.930 . S
H687 C631 0.930 . S
H688 C634 0.930 . S
H689 C637 0.929 . S
H690 C642 0.929 . S
H691 C643 0.930 . S
H692 C650 0.929 . S
H693 C651 0.930 . S
H694 C652 0.930 . S
H695 C653 0.930 . S
H696 C655 0.929 . S
H697 C656 0.930 . S
H698 C657 0.930 . S
H699 C658 0.930 . S
H700 C662 0.929 . S
H701 C664 0.930 . S
H702 C670 0.929 . S
H703 C671 0.930 . S
Li704 N721 1.990 . S
Li704 O764 1.956 . S
Li704 O765 1.970 . S
Li704 O766 1.961 . S
Li705 N729 1.990 . S
Li705 O764 1.970 . S
Li705 O765 1.956 . S
Li705 O767 1.961 . S
Li706 N751 1.990 . S
Li706 O764 1.961 . S
Li706 O766 1.956 . S
Li706 O767 1.970 . S
Li707 N757 1.990 . S
Li707 O765 1.961 . S
Li707 O766 1.970 . S
Li707 O767 1.956 . S
C708 C710 1.348 . S
C708 C711 1.356 . S
C708 O764 1.325 . S
N709 C712 1.314 . S
N709 C713 1.279 . S
C710 C708 1.348 . S
C710 C712 1.353 . S
C710 H768 0.929 . S
C711 C708 1.356 . S
C711 C713 1.358 . S
C711 H769 0.930 . S
C712 N709 1.314 . S
C712 C710 1.353 . S
C712 H770 0.930 . S
C713 N709 1.279 . S
C713 C711 1.358 . S
C713 H771 0.930 . S
C714 C717 1.348 . S
C714 C718 1.356 . S
C714 O765 1.325 . S
C715 N716 1.279 . S
C715 C718 1.358 . S
C715 H772 0.930 . S
N716 C715 1.279 . S
N716 C719 1.314 . S
C717 C714 1.348 . S
C717 C719 1.353 . S
C717 H773 0.929 . S
C718 C714 1.356 . S
C718 C715 1.358 . S
C718 H774 0.930 . S
C719 N716 1.314 . S
C719 C717 1.353 . S
C719 H775 0.930 . S
C720 N721 1.314 . S
C720 C725 1.353 . S
C720 H726 0.930 . S
N721 Li704 1.990 . S
N721 C720 1.314 . S
N721 C723 1.279 . S
C722 C723 1.358 . S
C722 C724 1.356 . S
C722 H776 0.930 . S
C723 N721 1.279 . S
C723 C722 1.358 . S
C723 H727 0.930 . S
C724 C722 1.356 . S
C724 C725 1.348 . S
C725 C720 1.353 . S
C725 C724 1.348 . S
C725 H777 0.929 . S
H726 C720 0.930 . S
H727 C723 0.930 . S
C728 N729 1.314 . S
C728 C730 1.353 . S
C728 H734 0.930 . S
N729 Li705 1.990 . S
N729 C728 1.314 . S
N729 C732 1.279 . S
C730 C728 1.353 . S
C730 C733 1.348 . S
C730 H778 0.929 . S
C731 C732 1.358 . S
C731 C733 1.356 . S
C731 H779 0.930 . S
C732 N729 1.279 . S
C732 C731 1.358 . S
C732 H735 0.930 . S
C733 C730 1.348 . S
C733 C731 1.356 . S
H734 C728 0.930 . S
H735 C732 0.930 . S
C736 C738 1.348 . S
C736 C739 1.356 . S
C736 O766 1.325 . S
N737 C740 1.314 . S
N737 C741 1.279 . S
C738 C736 1.348 . S
C738 C740 1.353 . S
C738 H780 0.929 . S
C739 C736 1.356 . S
C739 C741 1.358 . S
C739 H781 0.930 . S
C740 N737 1.314 . S
C740 C738 1.353 . S
C740 H782 0.930 . S
C741 N737 1.279 . S
C741 C739 1.358 . S
C741 H783 0.930 . S
C742 C743 1.348 . S
C742 C744 1.356 . S
C742 O767 1.325 . S
C743 C742 1.348 . S
C743 C745 1.353 . S
C743 H784 0.929 . S
C744 C742 1.356 . S
C744 C746 1.358 . S
C744 H785 0.930 . S
C745 C743 1.353 . S
C745 N747 1.314 . S
C745 H786 0.930 . S
C746 C744 1.358 . S
C746 N747 1.279 . S
C746 H787 0.930 . S
N747 C745 1.314 . S
N747 C746 1.279 . S
C748 C750 1.353 . S
C748 N751 1.314 . S
C748 H754 0.930 . S
C749 N751 1.279 . S
C749 C752 1.358 . S
C749 H755 0.930 . S
C750 C748 1.353 . S
C750 C753 1.348 . S
C750 H788 0.929 . S
N751 Li706 1.990 . S
N751 C748 1.314 . S
N751 C749 1.279 . S
C752 C749 1.358 . S
C752 C753 1.356 . S
C752 H789 0.930 . S
C753 C750 1.348 . S
C753 C752 1.356 . S
H754 C748 0.930 . S
H755 C749 0.930 . S
C756 N757 1.314 . S
C756 C758 1.353 . S
C756 H762 0.930 . S
N757 Li707 1.990 . S
N757 C756 1.314 . S
N757 C760 1.279 . S
C758 C756 1.353 . S
C758 C761 1.348 . S
C758 H790 0.929 . S
C759 C760 1.358 . S
C759 C761 1.356 . S
C759 H791 0.930 . S
C760 N757 1.279 . S
C760 C759 1.358 . S
C760 H763 0.930 . S
C761 C758 1.348 . S
C761 C759 1.356 . S
H762 C756 0.930 . S
H763 C760 0.930 . S
O764 Li704 1.956 . S
O764 Li705 1.970 . S
O764 Li706 1.961 . S
O764 C708 1.325 . S
O765 Li704 1.970 . S
O765 Li705 1.956 . S
O765 Li707 1.961 . S
O765 C714 1.325 . S
O766 Li704 1.961 . S
O766 Li706 1.956 . S
O766 Li707 1.970 . S
O766 C736 1.325 . S
O767 Li705 1.961 . S
O767 Li706 1.970 . S
O767 Li707 1.956 . S
O767 C742 1.325 . S
H768 C710 0.929 . S
H769 C711 0.930 . S
H770 C712 0.930 . S
H771 C713 0.930 . S
H772 C715 0.930 . S
H773 C717 0.929 . S
H774 C718 0.930 . S
H775 C719 0.930 . S
H776 C722 0.930 . S
H777 C725 0.929 . S
H778 C730 0.929 . S
H779 C731 0.930 . S
H780 C738 0.929 . S
H781 C739 0.930 . S
H782 C740 0.930 . S
H783 C741 0.930 . S
H784 C743 0.929 . S
H785 C744 0.930 . S
H786 C745 0.930 . S
H787 C746 0.930 . S
H788 C750 0.929 . S
H789 C752 0.930 . S
H790 C758 0.929 . S
H791 C759 0.930 . S
Li792 N809 1.990 . S
Li792 O852 1.956 . S
Li792 O853 1.970 . S
Li792 O854 1.961 . S
Li793 N817 1.990 . S
Li793 O852 1.970 . S
Li793 O853 1.956 . S
Li793 O855 1.961 . S
Li794 N839 1.990 . S
Li794 O852 1.961 . S
Li794 O854 1.956 . S
Li794 O855 1.970 . S
Li795 N845 1.990 . S
Li795 O853 1.961 . S
Li795 O854 1.970 . S
Li795 O855 1.956 . S
C796 C798 1.348 . S
C796 C799 1.356 . S
C796 O852 1.325 . S
N797 C800 1.314 . S
N797 C801 1.279 . S
C798 C796 1.348 . S
C798 C800 1.353 . S
C798 H856 0.929 . S
C799 C796 1.356 . S
C799 C801 1.358 . S
C799 H857 0.930 . S
C800 N797 1.314 . S
C800 C798 1.353 . S
C800 H858 0.930 . S
C801 N797 1.279 . S
C801 C799 1.358 . S
C801 H859 0.930 . S
C802 C805 1.348 . S
C802 C806 1.356 . S
C802 O853 1.325 . S
C803 N804 1.279 . S
C803 C806 1.358 . S
C803 H860 0.930 . S
N804 C803 1.279 . S
N804 C807 1.314 . S
C805 C802 1.348 . S
C805 C807 1.353 . S
C805 H861 0.929 . S
C806 C802 1.356 . S
C806 C803 1.358 . S
C806 H862 0.930 . S
C807 N804 1.314 . S
C807 C805 1.353 . S
C807 H863 0.930 . S
C808 N809 1.314 . S
C808 C813 1.353 . S
C808 H814 0.930 . S
N809 Li792 1.990 . S
N809 C808 1.314 . S
N809 C811 1.279 . S
C810 C811 1.358 . S
C810 C812 1.356 . S
C810 H864 0.930 . S
C811 N809 1.279 . S
C811 C810 1.358 . S
C811 H815 0.930 . S
C812 C810 1.356 . S
C812 C813 1.348 . S
C813 C808 1.353 . S
C813 C812 1.348 . S
C813 H865 0.929 . S
H814 C808 0.930 . S
H815 C811 0.930 . S
C816 N817 1.314 . S
C816 C818 1.353 . S
C816 H822 0.930 . S
N817 Li793 1.990 . S
N817 C816 1.314 . S
N817 C820 1.279 . S
C818 C816 1.353 . S
C818 C821 1.348 . S
C818 H866 0.929 . S
C819 C820 1.358 . S
C819 C821 1.356 . S
C819 H867 0.930 . S
C820 N817 1.279 . S
C820 C819 1.358 . S
C820 H823 0.930 . S
C821 C818 1.348 . S
C821 C819 1.356 . S
H822 C816 0.930 . S
H823 C820 0.930 . S
C824 C826 1.348 . S
C824 C827 1.356 . S
C824 O854 1.325 . S
N825 C828 1.314 . S
N825 C829 1.279 . S
C826 C824 1.348 . S
C826 C828 1.353 . S
C826 H868 0.929 . S
C827 C824 1.356 . S
C827 C829 1.358 . S
C827 H869 0.930 . S
C828 N825 1.314 . S
C828 C826 1.353 . S
C828 H870 0.930 . S
C829 N825 1.279 . S
C829 C827 1.358 . S
C829 H871 0.930 . S
C830 C831 1.348 . S
C830 C832 1.356 . S
C830 O855 1.325 . S
C831 C830 1.348 . S
C831 C833 1.353 . S
C831 H872 0.929 . S
C832 C830 1.356 . S
C832 C834 1.358 . S
C832 H873 0.930 . S
C833 C831 1.353 . S
C833 N835 1.314 . S
C833 H874 0.930 . S
C834 C832 1.358 . S
C834 N835 1.279 . S
C834 H875 0.930 . S
N835 C833 1.314 . S
N835 C834 1.279 . S
C836 C838 1.353 . S
C836 N839 1.314 . S
C836 H842 0.930 . S
C837 N839 1.279 . S
C837 C840 1.358 . S
C837 H843 0.930 . S
C838 C836 1.353 . S
C838 C841 1.348 . S
C838 H876 0.929 . S
N839 Li794 1.990 . S
N839 C836 1.314 . S
N839 C837 1.279 . S
C840 C837 1.358 . S
C840 C841 1.356 . S
C840 H877 0.930 . S
C841 C838 1.348 . S
C841 C840 1.356 . S
H842 C836 0.930 . S
H843 C837 0.930 . S
C844 N845 1.314 . S
C844 C846 1.353 1_455 S
C844 H850 0.930 . S
N845 Li795 1.990 . S
N845 C844 1.314 . S
N845 C848 1.279 . S
C846 C844 1.353 1_655 S
C846 C849 1.348 1_655 S
C846 H878 0.929 . S
C847 C848 1.358 . S
C847 C849 1.356 . S
C847 H879 0.930 . S
C848 N845 1.279 . S
C848 C847 1.358 . S
C848 H851 0.930 . S
C849 C846 1.348 1_455 S
C849 C847 1.356 . S
H850 C844 0.930 . S
H851 C848 0.930 . S
O852 Li792 1.956 . S
O852 Li793 1.970 . S
O852 Li794 1.961 . S
O852 C796 1.325 . S
O853 Li792 1.970 . S
O853 Li793 1.956 . S
O853 Li795 1.961 . S
O853 C802 1.325 . S
O854 Li792 1.961 . S
O854 Li794 1.956 . S
O854 Li795 1.970 . S
O854 C824 1.325 . S
O855 Li793 1.961 . S
O855 Li794 1.970 . S
O855 Li795 1.956 . S
O855 C830 1.325 . S
H856 C798 0.929 . S
H857 C799 0.930 . S
H858 C800 0.930 . S
H859 C801 0.930 . S
H860 C803 0.930 . S
H861 C805 0.929 . S
H862 C806 0.930 . S
H863 C807 0.930 . S
H864 C810 0.930 . S
H865 C813 0.929 . S
H866 C818 0.929 . S
H867 C819 0.930 . S
H868 C826 0.929 . S
H869 C827 0.930 . S
H870 C828 0.930 . S
H871 C829 0.930 . S
H872 C831 0.929 . S
H873 C832 0.930 . S
H874 C833 0.930 . S
H875 C834 0.930 . S
H876 C838 0.929 . S
H877 C840 0.930 . S
H878 C846 0.929 . S
H879 C847 0.930 . S
Li880 N897 1.990 . S
Li880 O940 1.956 . S
Li880 O941 1.970 . S
Li880 O942 1.961 . S
Li881 N905 1.990 . S
Li881 O940 1.970 . S
Li881 O941 1.956 . S
Li881 O943 1.961 . S
Li882 N927 1.990 . S
Li882 O940 1.961 . S
Li882 O942 1.956 . S
Li882 O943 1.970 . S
Li883 N933 1.990 . S
Li883 O941 1.961 . S
Li883 O942 1.970 . S
Li883 O943 1.956 . S
C884 C886 1.348 . S
C884 C887 1.356 . S
C884 O940 1.325 . S
N885 C888 1.314 . S
N885 C889 1.279 . S
C886 C884 1.348 . S
C886 C888 1.353 . S
C886 H944 0.929 . S
C887 C884 1.356 . S
C887 C889 1.358 . S
C887 H945 0.930 . S
C888 N885 1.314 . S
C888 C886 1.353 . S
C888 H946 0.930 . S
C889 N885 1.279 . S
C889 C887 1.358 . S
C889 H947 0.930 . S
C890 C893 1.348 . S
C890 C894 1.356 . S
C890 O941 1.325 . S
C891 N892 1.279 . S
C891 C894 1.358 . S
C891 H948 0.930 . S
N892 C891 1.279 . S
N892 C895 1.314 . S
C893 C890 1.348 . S
C893 C895 1.353 . S
C893 H949 0.929 . S
C894 C890 1.356 . S
C894 C891 1.358 . S
C894 H950 0.930 . S
C895 N892 1.314 . S
C895 C893 1.353 . S
C895 H951 0.930 . S
C896 N897 1.314 . S
C896 C901 1.353 . S
C896 H902 0.930 . S
N897 Li880 1.990 . S
N897 C896 1.314 . S
N897 C899 1.279 . S
C898 C899 1.358 . S
C898 C900 1.356 . S
C898 H952 0.930 . S
C899 N897 1.279 . S
C899 C898 1.358 . S
C899 H903 0.930 . S
C900 C898 1.356 . S
C900 C901 1.348 . S
C901 C896 1.353 . S
C901 C900 1.348 . S
C901 H953 0.929 . S
H902 C896 0.930 . S
H903 C899 0.930 . S
C904 N905 1.314 . S
C904 C906 1.353 1_545 S
C904 H910 0.930 . S
N905 Li881 1.990 . S
N905 C904 1.314 . S
N905 C908 1.279 . S
C906 C904 1.353 1_565 S
C906 C909 1.348 1_565 S
C906 H954 0.929 . S
C907 C908 1.358 . S
C907 C909 1.356 . S
C907 H955 0.930 . S
C908 N905 1.279 . S
C908 C907 1.358 . S
C908 H911 0.930 . S
C909 C906 1.348 1_545 S
C909 C907 1.356 . S
H910 C904 0.930 . S
H911 C908 0.930 . S
C912 C914 1.348 . S
C912 C915 1.356 . S
C912 O942 1.325 . S
N913 C916 1.314 . S
N913 C917 1.279 . S
C914 C912 1.348 . S
C914 C916 1.353 . S
C914 H956 0.929 . S
C915 C912 1.356 . S
C915 C917 1.358 . S
C915 H957 0.930 . S
C916 N913 1.314 . S
C916 C914 1.353 . S
C916 H958 0.930 . S
C917 N913 1.279 . S
C917 C915 1.358 . S
C917 H959 0.930 . S
C918 C919 1.348 . S
C918 C920 1.356 . S
C918 O943 1.325 . S
C919 C918 1.348 . S
C919 C921 1.353 . S
C919 H960 0.929 . S
C920 C918 1.356 . S
C920 C922 1.358 . S
C920 H961 0.930 . S
C921 C919 1.353 . S
C921 N923 1.314 . S
C921 H962 0.930 . S
C922 C920 1.358 . S
C922 N923 1.279 . S
C922 H963 0.930 . S
N923 C921 1.314 . S
N923 C922 1.279 . S
C924 C926 1.353 . S
C924 N927 1.314 . S
C924 H930 0.930 . S
C925 N927 1.279 . S
C925 C928 1.358 . S
C925 H931 0.930 . S
C926 C924 1.353 . S
C926 C929 1.348 . S
C926 H964 0.929 . S
N927 Li882 1.990 . S
N927 C924 1.314 . S
N927 C925 1.279 . S
C928 C925 1.358 . S
C928 C929 1.356 . S
C928 H965 0.930 . S
C929 C926 1.348 . S
C929 C928 1.356 . S
H930 C924 0.930 . S
H931 C925 0.930 . S
C932 N933 1.314 . S
C932 C934 1.353 . S
C932 H938 0.930 . S
N933 Li883 1.990 . S
N933 C932 1.314 . S
N933 C936 1.279 . S
C934 C932 1.353 . S
C934 C937 1.348 . S
C934 H966 0.929 . S
C935 C936 1.358 . S
C935 C937 1.356 . S
C935 H967 0.930 . S
C936 N933 1.279 . S
C936 C935 1.358 . S
C936 H939 0.930 . S
C937 C934 1.348 . S
C937 C935 1.356 . S
H938 C932 0.930 . S
H939 C936 0.930 . S
O940 Li880 1.956 . S
O940 Li881 1.970 . S
O940 Li882 1.961 . S
O940 C884 1.325 . S
O941 Li880 1.970 . S
O941 Li881 1.956 . S
O941 Li883 1.961 . S
O941 C890 1.325 . S
O942 Li880 1.961 . S
O942 Li882 1.956 . S
O942 Li883 1.970 . S
O942 C912 1.325 . S
O943 Li881 1.961 . S
O943 Li882 1.970 . S
O943 Li883 1.956 . S
O943 C918 1.325 . S
H944 C886 0.929 . S
H945 C887 0.930 . S
H946 C888 0.930 . S
H947 C889 0.930 . S
H948 C891 0.930 . S
H949 C893 0.929 . S
H950 C894 0.930 . S
H951 C895 0.930 . S
H952 C898 0.930 . S
H953 C901 0.929 . S
H954 C906 0.929 . S
H955 C907 0.930 . S
H956 C914 0.929 . S
H957 C915 0.930 . S
H958 C916 0.930 . S
H959 C917 0.930 . S
H960 C919 0.929 . S
H961 C920 0.930 . S
H962 C921 0.930 . S
H963 C922 0.930 . S
H964 C926 0.929 . S
H965 C928 0.930 . S
H966 C934 0.929 . S
H967 C935 0.930 . S
Li968 N985 1.990 . S
Li968 O1028 1.956 . S
Li968 O1029 1.970 . S
Li968 O1030 1.961 . S
Li969 N993 1.990 . S
Li969 O1028 1.970 . S
Li969 O1029 1.956 . S
Li969 O1031 1.961 . S
Li970 N1015 1.990 . S
Li970 O1028 1.961 . S
Li970 O1030 1.956 . S
Li970 O1031 1.970 . S
Li971 N1021 1.990 . S
Li971 O1029 1.961 . S
Li971 O1030 1.970 . S
Li971 O1031 1.956 . S
C972 C974 1.348 . S
C972 C975 1.356 . S
C972 O1028 1.325 . S
N973 C976 1.314 . S
N973 C977 1.279 . S
C974 C972 1.348 . S
C974 C976 1.353 . S
C974 H1032 0.929 . S
C975 C972 1.356 . S
C975 C977 1.358 . S
C975 H1033 0.930 . S
C976 N973 1.314 . S
C976 C974 1.353 . S
C976 H1034 0.930 . S
C977 N973 1.279 . S
C977 C975 1.358 . S
C977 H1035 0.930 . S
C978 C981 1.348 . S
C978 C982 1.356 . S
C978 O1029 1.325 . S
C979 N980 1.279 . S
C979 C982 1.358 . S
C979 H1036 0.930 . S
N980 C979 1.279 . S
N980 C983 1.314 . S
C981 C978 1.348 . S
C981 C983 1.353 . S
C981 H1037 0.929 . S
C982 C978 1.356 . S
C982 C979 1.358 . S
C982 H1038 0.930 . S
C983 N980 1.314 . S
C983 C981 1.353 . S
C983 H1039 0.930 . S
C984 N985 1.314 . S
C984 C989 1.353 . S
C984 H990 0.930 . S
N985 Li968 1.990 . S
N985 C984 1.314 . S
N985 C987 1.279 . S
C986 C987 1.358 . S
C986 C988 1.356 . S
C986 H1040 0.930 . S
C987 N985 1.279 . S
C987 C986 1.358 . S
C987 H991 0.930 . S
C988 C986 1.356 . S
C988 C989 1.348 . S
C989 C984 1.353 . S
C989 C988 1.348 . S
C989 H1041 0.929 . S
H990 C984 0.930 . S
H991 C987 0.930 . S
C992 N993 1.314 . S
C992 C994 1.353 . S
C992 H998 0.930 . S
N993 Li969 1.990 . S
N993 C992 1.314 . S
N993 C996 1.279 . S
C994 C992 1.353 . S
C994 C997 1.348 . S
C994 H1042 0.929 . S
C995 C996 1.358 . S
C995 C997 1.356 . S
C995 H1043 0.930 . S
C996 N993 1.279 . S
C996 C995 1.358 . S
C996 H999 0.930 . S
C997 C994 1.348 . S
C997 C995 1.356 . S
H998 C992 0.930 . S
H999 C996 0.930 . S
C1000 C1002 1.348 . S
C1000 C1003 1.356 . S
C1000 O1030 1.325 . S
N1001 C1004 1.314 . S
N1001 C1005 1.279 . S
C1002 C1000 1.348 . S
C1002 C1004 1.353 . S
C1002 H1044 0.929 . S
C1003 C1000 1.356 . S
C1003 C1005 1.358 . S
C1003 H1045 0.930 . S
C1004 N1001 1.314 . S
C1004 C1002 1.353 . S
C1004 H1046 0.930 . S
C1005 N1001 1.279 . S
C1005 C1003 1.358 . S
C1005 H1047 0.930 . S
C1006 C1007 1.348 . S
C1006 C1008 1.356 . S
C1006 O1031 1.325 . S
C1007 C1006 1.348 . S
C1007 C1009 1.353 . S
C1007 H1048 0.929 . S
C1008 C1006 1.356 . S
C1008 C1010 1.358 . S
C1008 H1049 0.930 . S
C1009 C1007 1.353 . S
C1009 N1011 1.314 . S
C1009 H1050 0.930 . S
C1010 C1008 1.358 . S
C1010 N1011 1.279 . S
C1010 H1051 0.930 . S
N1011 C1009 1.314 . S
N1011 C1010 1.279 . S
C1012 C1014 1.353 . S
C1012 N1015 1.314 . S
C1012 H1018 0.930 . S
C1013 N1015 1.279 . S
C1013 C1016 1.358 . S
C1013 H1019 0.930 . S
C1014 C1012 1.353 . S
C1014 C1017 1.348 . S
C1014 H1052 0.929 . S
N1015 Li970 1.990 . S
N1015 C1012 1.314 . S
N1015 C1013 1.279 . S
C1016 C1013 1.358 . S
C1016 C1017 1.356 . S
C1016 H1053 0.930 . S
C1017 C1014 1.348 . S
C1017 C1016 1.356 . S
H1018 C1012 0.930 . S
H1019 C1013 0.930 . S
C1020 N1021 1.314 . S
C1020 C1022 1.353 . S
C1020 H1026 0.930 . S
N1021 Li971 1.990 . S
N1021 C1020 1.314 . S
N1021 C1024 1.279 . S
C1022 C1020 1.353 . S
C1022 C1025 1.348 . S
C1022 H1054 0.929 . S
C1023 C1024 1.358 . S
C1023 C1025 1.356 . S
C1023 H1055 0.930 . S
C1024 N1021 1.279 . S
C1024 C1023 1.358 . S
C1024 H1027 0.930 . S
C1025 C1022 1.348 . S
C1025 C1023 1.356 . S
H1026 C1020 0.930 . S
H1027 C1024 0.930 . S
O1028 Li968 1.956 . S
O1028 Li969 1.970 . S
O1028 Li970 1.961 . S
O1028 C972 1.325 . S
O1029 Li968 1.970 . S
O1029 Li969 1.956 . S
O1029 Li971 1.961 . S
O1029 C978 1.325 . S
O1030 Li968 1.961 . S
O1030 Li970 1.956 . S
O1030 Li971 1.970 . S
O1030 C1000 1.325 . S
O1031 Li969 1.961 . S
O1031 Li970 1.970 . S
O1031 Li971 1.956 . S
O1031 C1006 1.325 . S
H1032 C974 0.929 . S
H1033 C975 0.930 . S
H1034 C976 0.930 . S
H1035 C977 0.930 . S
H1036 C979 0.930 . S
H1037 C981 0.929 . S
H1038 C982 0.930 . S
H1039 C983 0.930 . S
H1040 C986 0.930 . S
H1041 C989 0.929 . S
H1042 C994 0.929 . S
H1043 C995 0.930 . S
H1044 C1002 0.929 . S
H1045 C1003 0.930 . S
H1046 C1004 0.930 . S
H1047 C1005 0.930 . S
H1048 C1007 0.929 . S
H1049 C1008 0.930 . S
H1050 C1009 0.930 . S
H1051 C1010 0.930 . S
H1052 C1014 0.929 . S
H1053 C1016 0.930 . S
H1054 C1022 0.929 . S
H1055 C1023 0.930 . S
C1056 C1057 1.369 . S
C1056 C1058 1.419 1_554 S
C1056 H1060 0.930 . S
C1057 C1056 1.369 . S
C1057 C1066 1.429 . S
C1058 C1056 1.419 1_556 S
C1058 C1059 1.363 . S
C1058 H1061 0.929 . S
C1059 C1058 1.363 . S
C1059 C1065 1.428 . S
H1060 C1056 0.930 . S
H1061 C1058 0.929 . S
S1062 N1063 1.613 . S
S1062 N1064 1.610 1_554 S
N1063 S1062 1.613 . S
N1063 C1066 1.350 . S
N1064 S1062 1.610 1_556 S
N1064 C1065 1.351 . S
C1065 C1059 1.428 . S
C1065 N1064 1.351 . S
C1065 C1066 1.434 1_556 S
C1066 C1057 1.429 . S
C1066 N1063 1.350 . S
C1066 C1065 1.434 1_554 S
C1067 C1068 1.369 . S
C1067 C1069 1.419 . S
C1067 H1071 0.930 . S
C1068 C1067 1.369 . S
C1068 C1077 1.429 . S
C1069 C1067 1.419 . S
C1069 C1070 1.363 . S
C1069 H1072 0.929 . S
C1070 C1069 1.363 . S
C1070 C1076 1.428 . S
H1071 C1067 0.930 . S
H1072 C1069 0.929 . S
S1073 N1074 1.613 . S
S1073 N1075 1.610 . S
N1074 S1073 1.613 . S
N1074 C1077 1.350 . S
N1075 S1073 1.610 . S
N1075 C1076 1.351 . S
C1076 C1070 1.428 . S
C1076 N1075 1.351 . S
C1076 C1077 1.434 . S
C1077 C1068 1.429 . S
C1077 N1074 1.350 . S
C1077 C1076 1.434 . S
C1078 C1079 1.369 . S
C1078 C1080 1.419 . S
C1078 H1082 0.930 . S
C1079 C1078 1.369 . S
C1079 C1088 1.429 . S
C1080 C1078 1.419 . S
C1080 C1081 1.363 . S
C1080 H1083 0.929 . S
C1081 C1080 1.363 . S
C1081 C1087 1.428 . S
H1082 C1078 0.930 . S
H1083 C1080 0.929 . S
S1084 N1085 1.613 . S
S1084 N1086 1.610 . S
N1085 S1084 1.613 . S
N1085 C1088 1.350 . S
N1086 S1084 1.610 . S
N1086 C1087 1.351 . S
C1087 C1081 1.428 . S
C1087 N1086 1.351 . S
C1087 C1088 1.434 . S
C1088 C1079 1.429 . S
C1088 N1085 1.350 . S
C1088 C1087 1.434 . S
C1089 C1090 1.369 . S
C1089 C1091 1.419 1_554 S
C1089 H1093 0.930 . S
C1090 C1089 1.369 . S
C1090 C1099 1.429 . S
C1091 C1089 1.419 1_556 S
C1091 C1092 1.363 . S
C1091 H1094 0.929 . S
C1092 C1091 1.363 . S
C1092 C1098 1.428 . S
H1093 C1089 0.930 . S
H1094 C1091 0.929 . S
S1095 N1096 1.613 1_556 S
S1095 N1097 1.610 . S
N1096 S1095 1.613 1_554 S
N1096 C1099 1.350 . S
N1097 S1095 1.610 . S
N1097 C1098 1.351 . S
C1098 C1092 1.428 . S
C1098 N1097 1.351 . S
C1098 C1099 1.434 1_556 S
C1099 C1090 1.429 . S
C1099 N1096 1.350 . S
C1099 C1098 1.434 1_554 S
C1100 C1101 1.369 . S
C1100 C1102 1.419 . S
C1100 H1104 0.930 . S
C1101 C1100 1.369 . S
C1101 C1110 1.429 . S
C1102 C1100 1.419 . S
C1102 C1103 1.363 . S
C1102 H1105 0.929 . S
C1103 C1102 1.363 . S
C1103 C1109 1.428 . S
H1104 C1100 0.930 . S
H1105 C1102 0.929 . S
S1106 N1107 1.613 . S
S1106 N1108 1.610 . S
N1107 S1106 1.613 . S
N1107 C1110 1.350 . S
N1108 S1106 1.610 . S
N1108 C1109 1.351 . S
C1109 C1103 1.428 . S
C1109 N1108 1.351 . S
C1109 C1110 1.434 . S
C1110 C1101 1.429 . S
C1110 N1107 1.350 . S
C1110 C1109 1.434 . S
C1111 C1112 1.369 . S
C1111 C1113 1.419 . S
C1111 H1115 0.930 . S
C1112 C1111 1.369 . S
C1112 C1121 1.429 . S
C1113 C1111 1.419 . S
C1113 C1114 1.363 . S
C1113 H1116 0.929 . S
C1114 C1113 1.363 . S
C1114 C1120 1.428 . S
H1115 C1111 0.930 . S
H1116 C1113 0.929 . S
S1117 N1118 1.613 . S
S1117 N1119 1.610 . S
N1118 S1117 1.613 . S
N1118 C1121 1.350 . S
N1119 S1117 1.610 . S
N1119 C1120 1.351 . S
C1120 C1114 1.428 . S
C1120 N1119 1.351 . S
C1120 C1121 1.434 . S
C1121 C1112 1.429 . S
C1121 N1118 1.350 . S
C1121 C1120 1.434 . S
C1122 C1123 1.369 1_545 S
C1122 C1124 1.419 1_554 S
C1122 H1126 0.930 . S
C1123 C1122 1.369 1_565 S
C1123 C1132 1.429 . S
C1124 C1122 1.419 1_556 S
C1124 C1125 1.363 . S
C1124 H1127 0.929 . S
C1125 C1124 1.363 . S
C1125 C1131 1.428 1_545 S
H1126 C1122 0.930 . S
H1127 C1124 0.929 . S
S1128 N1129 1.613 1_556 S
S1128 N1130 1.610 . S
N1129 S1128 1.613 1_554 S
N1129 C1132 1.350 . S
N1130 S1128 1.610 . S
N1130 C1131 1.351 . S
C1131 C1125 1.428 1_565 S
C1131 N1130 1.351 . S
C1131 C1132 1.434 1_556 S
C1132 C1123 1.429 . S
C1132 N1129 1.350 . S
C1132 C1131 1.434 1_554 S
C1133 C1134 1.369 . S
C1133 C1135 1.419 . S
C1133 H1137 0.930 . S
C1134 C1133 1.369 . S
C1134 C1143 1.429 . S
C1135 C1133 1.419 . S
C1135 C1136 1.363 . S
C1135 H1138 0.929 . S
C1136 C1135 1.363 . S
C1136 C1142 1.428 . S
H1137 C1133 0.930 . S
H1138 C1135 0.929 . S
S1139 N1140 1.613 . S
S1139 N1141 1.610 . S
N1140 S1139 1.613 . S
N1140 C1143 1.350 . S
N1141 S1139 1.610 . S
N1141 C1142 1.351 . S
C1142 C1136 1.428 . S
C1142 N1141 1.351 . S
C1142 C1143 1.434 . S
C1143 C1134 1.429 . S
C1143 N1140 1.350 . S
C1143 C1142 1.434 . S
C1144 C1145 1.369 . S
C1144 C1146 1.419 . S
C1144 H1148 0.930 . S
C1145 C1144 1.369 . S
C1145 C1154 1.429 1_655 S
C1146 C1144 1.419 . S
C1146 C1147 1.363 1_655 S
C1146 H1149 0.929 . S
C1147 C1146 1.363 1_455 S
C1147 C1153 1.428 . S
H1148 C1144 0.930 . S
H1149 C1146 0.929 . S
S1150 N1151 1.613 . S
S1150 N1152 1.610 . S
N1151 S1150 1.613 . S
N1151 C1154 1.350 . S
N1152 S1150 1.610 . S
N1152 C1153 1.351 . S
C1153 C1147 1.428 . S
C1153 N1152 1.351 . S
C1153 C1154 1.434 . S
C1154 C1145 1.429 1_455 S
C1154 N1151 1.350 . S
C1154 C1153 1.434 . S
C1155 C1156 1.369 1_565 S
C1155 C1157 1.419 1_554 S
C1155 H1159 0.930 . S
C1156 C1155 1.369 1_545 S
C1156 C1165 1.429 . S
C1157 C1155 1.419 1_556 S
C1157 C1158 1.363 . S
C1157 H1160 0.929 . S
C1158 C1157 1.363 . S
C1158 C1164 1.428 1_565 S
H1159 C1155 0.930 . S
H1160 C1157 0.929 . S
S1161 N1162 1.613 1_556 S
S1161 N1163 1.610 . S
N1162 S1161 1.613 1_554 S
N1162 C1165 1.350 . S
N1163 S1161 1.610 . S
N1163 C1164 1.351 . S
C1164 C1158 1.428 1_545 S
C1164 N1163 1.351 . S
C1164 C1165 1.434 1_556 S
C1165 C1156 1.429 . S
C1165 N1162 1.350 . S
C1165 C1164 1.434 1_554 S
C1166 C1167 1.369 . S
C1166 C1168 1.419 . S
C1166 H1170 0.930 . S
C1167 C1166 1.369 . S
C1167 C1176 1.429 . S
C1168 C1166 1.419 . S
C1168 C1169 1.363 . S
C1168 H1171 0.929 . S
C1169 C1168 1.363 . S
C1169 C1175 1.428 . S
H1170 C1166 0.930 . S
H1171 C1168 0.929 . S
S1172 N1173 1.613 . S
S1172 N1174 1.610 . S
N1173 S1172 1.613 . S
N1173 C1176 1.350 . S
N1174 S1172 1.610 . S
N1174 C1175 1.351 . S
C1175 C1169 1.428 . S
C1175 N1174 1.351 . S
C1175 C1176 1.434 . S
C1176 C1167 1.429 . S
C1176 N1173 1.350 . S
C1176 C1175 1.434 . S
C1177 C1178 1.369 1_455 S
C1177 C1179 1.419 . S
C1177 H1181 0.930 . S
C1178 C1177 1.369 1_655 S
C1178 C1187 1.429 . S
C1179 C1177 1.419 . S
C1179 C1180 1.363 . S
C1179 H1182 0.929 . S
C1180 C1179 1.363 . S
C1180 C1186 1.428 1_455 S
H1181 C1177 0.930 . S
H1182 C1179 0.929 . S
S1183 N1184 1.613 . S
S1183 N1185 1.610 . S
N1184 S1183 1.613 . S
N1184 C1187 1.350 . S
N1185 S1183 1.610 . S
N1185 C1186 1.351 . S
C1186 C1180 1.428 1_655 S
C1186 N1185 1.351 . S
C1186 C1187 1.434 . S
C1187 C1178 1.429 . S
C1187 N1184 1.350 . S
C1187 C1186 1.434 . S
C1188 C1189 1.369 1_545 S
C1188 C1190 1.419 . S
C1188 H1192 0.930 . S
C1189 C1188 1.369 1_565 S
C1189 C1198 1.429 . S
C1190 C1188 1.419 . S
C1190 C1191 1.363 . S
C1190 H1193 0.929 . S
C1191 C1190 1.363 . S
C1191 C1197 1.428 1_545 S
H1192 C1188 0.930 . S
H1193 C1190 0.929 . S
S1194 N1195 1.613 . S
S1194 N1196 1.610 . S
N1195 S1194 1.613 . S
N1195 C1198 1.350 . S
N1196 S1194 1.610 . S
N1196 C1197 1.351 . S
C1197 C1191 1.428 1_565 S
C1197 N1196 1.351 . S
C1197 C1198 1.434 . S
C1198 C1189 1.429 . S
C1198 N1195 1.350 . S
C1198 C1197 1.434 . S
C1199 C1200 1.369 . S
C1199 C1201 1.419 . S
C1199 H1203 0.930 . S
C1200 C1199 1.369 . S
C1200 C1209 1.429 . S
C1201 C1199 1.419 . S
C1201 C1202 1.363 . S
C1201 H1204 0.929 . S
C1202 C1201 1.363 . S
C1202 C1208 1.428 . S
H1203 C1199 0.930 . S
H1204 C1201 0.929 . S
S1205 N1206 1.613 . S
S1205 N1207 1.610 . S
N1206 S1205 1.613 . S
N1206 C1209 1.350 . S
N1207 S1205 1.610 . S
N1207 C1208 1.351 . S
C1208 C1202 1.428 . S
C1208 N1207 1.351 . S
C1208 C1209 1.434 . S
C1209 C1200 1.429 . S
C1209 N1206 1.350 . S
C1209 C1208 1.434 . S
C1210 C1211 1.369 1_554 S
C1210 C1212 1.420 1_455 S
C1210 H1214 0.930 . S
C1211 C1210 1.369 1_556 S
C1211 C1220 1.422 1_455 S
C1212 C1210 1.420 1_655 S
C1212 C1213 1.366 1_554 S
C1212 H1215 0.926 . S
C1213 C1212 1.366 1_556 S
C1213 C1219 1.428 . S
H1214 C1210 0.930 . S
H1215 C1212 0.926 . S
S1216 N1217 1.613 . S
S1216 N1218 1.610 . S
N1217 S1216 1.613 . S
N1217 C1220 1.364 . S
N1218 S1216 1.610 . S
N1218 C1219 1.351 . S
C1219 C1213 1.428 . S
C1219 N1218 1.351 . S
C1219 C1220 1.430 . S
C1220 C1211 1.422 1_655 S
C1220 N1217 1.364 . S
C1220 C1219 1.430 . S
C1221 C1222 1.369 1_455 S
C1221 C1223 1.419 . S
C1221 H1225 0.930 . S
C1222 C1221 1.369 1_655 S
C1222 C1231 1.429 . S
C1223 C1221 1.419 . S
C1223 C1224 1.363 . S
C1223 H1226 0.929 . S
C1224 C1223 1.363 . S
C1224 C1230 1.428 1_455 S
H1225 C1221 0.930 . S
H1226 C1223 0.929 . S
S1227 N1228 1.613 . S
S1227 N1229 1.610 . S
N1228 S1227 1.613 . S
N1228 C1231 1.350 . S
N1229 S1227 1.610 . S
N1229 C1230 1.351 . S
C1230 C1224 1.428 1_655 S
C1230 N1229 1.351 . S
C1230 C1231 1.434 . S
C1231 C1222 1.429 . S
C1231 N1228 1.350 . S
C1231 C1230 1.434 . S
C1232 C1233 1.369 1_545 S
C1232 C1234 1.419 . S
C1232 H1236 0.930 . S
C1233 C1232 1.369 1_565 S
C1233 C1242 1.429 . S
C1234 C1232 1.419 . S
C1234 C1235 1.363 . S
C1234 H1237 0.929 . S
C1235 C1234 1.363 . S
C1235 C1241 1.428 1_545 S
H1236 C1232 0.930 . S
H1237 C1234 0.929 . S
S1238 N1239 1.613 . S
S1238 N1240 1.610 . S
N1239 S1238 1.613 . S
N1239 C1242 1.350 . S
N1240 S1238 1.610 . S
N1240 C1241 1.351 . S
C1241 C1235 1.428 1_565 S
C1241 N1240 1.351 . S
C1241 C1242 1.434 . S
C1242 C1233 1.429 . S
C1242 N1239 1.350 . S
C1242 C1241 1.434 . S
C1243 C1244 1.369 1_556 S
C1243 C1245 1.419 . S
C1243 H1247 0.930 . S
C1244 C1243 1.369 1_554 S
C1244 C1253 1.429 . S
C1245 C1243 1.419 . S
C1245 C1246 1.363 1_556 S
C1245 H1248 0.929 . S
C1246 C1245 1.363 1_554 S
C1246 C1252 1.428 . S
H1247 C1243 0.930 . S
H1248 C1245 0.929 . S
S1249 N1250 1.613 . S
S1249 N1251 1.610 . S
N1250 S1249 1.613 . S
N1250 C1253 1.350 . S
N1251 S1249 1.610 . S
N1251 C1252 1.351 . S
C1252 C1246 1.428 . S
C1252 N1251 1.351 . S
C1252 C1253 1.434 . S
C1253 C1244 1.429 . S
C1253 N1250 1.350 . S
C1253 C1252 1.434 . S
C1254 C1255 1.369 . S
C1254 C1256 1.419 . S
C1254 H1258 0.930 . S
C1255 C1254 1.369 . S
C1255 C1264 1.429 . S
C1256 C1254 1.419 . S
C1256 C1257 1.363 . S
C1256 H1259 0.929 . S
C1257 C1256 1.363 . S
C1257 C1263 1.428 . S
H1258 C1254 0.930 . S
H1259 C1256 0.929 . S
S1260 N1261 1.613 . S
S1260 N1262 1.610 . S
N1261 S1260 1.613 . S
N1261 C1264 1.350 . S
N1262 S1260 1.610 . S
N1262 C1263 1.351 . S
C1263 C1257 1.428 . S
C1263 N1262 1.351 . S
C1263 C1264 1.434 . S
C1264 C1255 1.429 . S
C1264 N1261 1.350 . S
C1264 C1263 1.434 . S
C1265 C1266 1.369 . S
C1265 C1267 1.419 . S
C1265 H1269 0.930 . S
C1266 C1265 1.369 . S
C1266 C1275 1.429 . S
C1267 C1265 1.419 . S
C1267 C1268 1.363 . S
C1267 H1270 0.929 . S
C1268 C1267 1.363 . S
C1268 C1274 1.428 . S
H1269 C1265 0.930 . S
H1270 C1267 0.929 . S
S1271 N1272 1.613 . S
S1271 N1273 1.610 . S
N1272 S1271 1.613 . S
N1272 C1275 1.350 . S
N1273 S1271 1.610 . S
N1273 C1274 1.351 . S
C1274 C1268 1.428 . S
C1274 N1273 1.351 . S
C1274 C1275 1.434 . S
C1275 C1266 1.429 . S
C1275 N1272 1.350 . S
C1275 C1274 1.434 . S
C1276 C1277 1.369 . S
C1276 C1278 1.419 . S
C1276 H1280 0.930 . S
C1277 C1276 1.369 . S
C1277 C1286 1.429 . S
C1278 C1276 1.419 . S
C1278 C1279 1.363 . S
C1278 H1281 0.929 . S
C1279 C1278 1.363 . S
C1279 C1285 1.428 . S
H1280 C1276 0.930 . S
H1281 C1278 0.929 . S
S1282 N1283 1.613 . S
S1282 N1284 1.610 . S
N1283 S1282 1.613 . S
N1283 C1286 1.350 . S
N1284 S1282 1.610 . S
N1284 C1285 1.351 . S
C1285 C1279 1.428 . S
C1285 N1284 1.351 . S
C1285 C1286 1.434 . S
C1286 C1277 1.429 . S
C1286 N1283 1.350 . S
C1286 C1285 1.434 . S
C1287 C1288 1.369 . S
C1287 C1289 1.419 . S
C1287 H1291 0.930 . S
C1288 C1287 1.369 . S
C1288 C1297 1.429 . S
C1289 C1287 1.419 . S
C1289 C1290 1.363 . S
C1289 H1292 0.929 . S
C1290 C1289 1.363 . S
C1290 C1296 1.428 . S
H1291 C1287 0.930 . S
H1292 C1289 0.929 . S
S1293 N1294 1.613 . S
S1293 N1295 1.610 . S
N1294 S1293 1.613 . S
N1294 C1297 1.350 . S
N1295 S1293 1.610 . S
N1295 C1296 1.351 . S
C1296 C1290 1.428 . S
C1296 N1295 1.351 . S
C1296 C1297 1.434 . S
C1297 C1288 1.429 . S
C1297 N1294 1.350 . S
C1297 C1296 1.434 . S
C1298 C1299 1.369 . S
C1298 C1300 1.419 . S
C1298 H1302 0.930 . S
C1299 C1298 1.369 . S
C1299 C1308 1.429 . S
C1300 C1298 1.419 . S
C1300 C1301 1.363 . S
C1300 H1303 0.929 . S
C1301 C1300 1.363 . S
C1301 C1307 1.428 . S
H1302 C1298 0.930 . S
H1303 C1300 0.929 . S
S1304 N1305 1.613 . S
S1304 N1306 1.610 . S
N1305 S1304 1.613 . S
N1305 C1308 1.350 . S
N1306 S1304 1.610 . S
N1306 C1307 1.351 . S
C1307 C1301 1.428 . S
C1307 N1306 1.351 . S
C1307 C1308 1.434 . S
C1308 C1299 1.429 . S
C1308 N1305 1.350 . S
C1308 C1307 1.434 . S
C1309 C1310 1.369 . S
C1309 C1311 1.419 . S
C1309 H1313 0.930 . S
C1310 C1309 1.369 . S
C1310 C1319 1.429 . S
C1311 C1309 1.419 . S
C1311 C1312 1.363 . S
C1311 H1314 0.929 . S
C1312 C1311 1.363 . S
C1312 C1318 1.428 . S
H1313 C1309 0.930 . S
H1314 C1311 0.929 . S
S1315 N1316 1.613 . S
S1315 N1317 1.610 . S
N1316 S1315 1.613 . S
N1316 C1319 1.350 . S
N1317 S1315 1.610 . S
N1317 C1318 1.351 . S
C1318 C1312 1.428 . S
C1318 N1317 1.351 . S
C1318 C1319 1.434 . S
C1319 C1310 1.429 . S
C1319 N1316 1.350 . S
C1319 C1318 1.434 . S
C1057 C49 0.728 . S
C1059 C937 0.710 . S
C1068 C1017 0.724 . S
C1070 C117 0.707 . S
C1079 C585 0.726 . S
C1081 C196 0.707 . S
C1090 C284 0.703 . S
C1092 C645 0.719 . S
C1101 C401 0.728 . S
C1103 C724 0.709 . S
C1112 C821 0.706 . S
C1114 C489 0.724 . S
C1123 C20 1.194 1_565 S
C1125 C673 1.181 1_545 S
C1134 C753 1.179 . S
C1136 C145 1.192 . S
C1145 C849 1.185 1_655 S
C1147 C225 1.193 1_455 S
C1156 C313 1.195 1_545 S
C1158 C909 1.182 1_565 S
C1167 C988 1.178 . S
C1169 C372 1.191 . S
C1178 C460 1.187 1_655 S
C1180 C557 1.177 1_455 S
C1189 C293 1.515 . S
C1191 C57 1.520 . S
C1200 C409 1.514 . S
C1202 C108 1.519 . S
C1211 C497 1.516 . S
C1213 C205 1.515 . S
C1222 C577 1.513 . S
C1224 C812 1.514 . S
C1233 C636 1.515 . S
C1235 C929 1.520 . S
C1244 C733 1.513 . S
C1246 C1025 1.517 . S
C1255 C761 2.154 . S
C1257 C29 2.163 . S
C1266 C841 2.158 . S
C1268 C137 2.158 . S
C1277 C900 2.166 . S
C1279 C233 2.156 . S
C1288 C997 2.160 . S
C1290 C321 2.158 . S
C1299 C548 2.162 . S
C1301 C381 2.155 . S
C1310 C469 2.164 . S
C1312 C665 2.157 . S
