# Generated by pormake.
# Topology uom, (4)-cn, num edge types: 1
# Building blocks:
#     Node 0, Type 0, BuildingBlock: KOZSID_clean_sbu_0, # of connection points: 4
#     Node 1, Type 0, BuildingBlock: KOZSID_clean_sbu_0, # of connection points: 4
#     Node 2, Type 0, BuildingBlock: KOZSID_clean_sbu_0, # of connection points: 4
#     Node 3, Type 0, BuildingBlock: KOZSID_clean_sbu_0, # of connection points: 4
#     Node 4, Type 0, BuildingBlock: KOZSID_clean_sbu_0, # of connection points: 4
#     Node 5, Type 0, BuildingBlock: KOZSID_clean_sbu_0, # of connection points: 4
#     Edge 6, Type (0, 0), BuildingBlock: FUNLAD_clean_linker_1, # of connection points: 2
#     Edge 7, Type (0, 0), BuildingBlock: FUNLAD_clean_linker_1, # of connection points: 2
#     Edge 8, Type (0, 0), BuildingBlock: FUNLAD_clean_linker_1, # of connection points: 2
#     Edge 9, Type (0, 0), BuildingBlock: FUNLAD_clean_linker_1, # of connection points: 2
#     Edge 10, Type (0, 0), BuildingBlock: FUNLAD_clean_linker_1, # of connection points: 2
#     Edge 11, Type (0, 0), BuildingBlock: FUNLAD_clean_linker_1, # of connection points: 2
#     Edge 12, Type (0, 0), BuildingBlock: FUNLAD_clean_linker_1, # of connection points: 2
#     Edge 13, Type (0, 0), BuildingBlock: FUNLAD_clean_linker_1, # of connection points: 2
#     Edge 14, Type (0, 0), BuildingBlock: FUNLAD_clean_linker_1, # of connection points: 2
#     Edge 15, Type (0, 0), BuildingBlock: FUNLAD_clean_linker_1, # of connection points: 2
#     Edge 16, Type (0, 0), BuildingBlock: FUNLAD_clean_linker_1, # of connection points: 2
#     Edge 17, Type (0, 0), BuildingBlock: FUNLAD_clean_linker_1, # of connection points: 2
# Relax obj value: 0.149
# Max RMSD: 0.172
# Mean RMSD: 0.172
data_MOF--net-uom--node1-KOZSID_clean_sbu_0--edge1-FUNLAD_clean_linker_1
_symmetry_space_group_name_H-M    P1
_symmetry_Int_Tables_number       1
_symmetry_cell_setting            triclinic
loop_
_symmetry_equiv_pos_as_xyz
'x, y, z'
_cell_length_a     39.298248
_cell_length_b     39.289252
_cell_length_c     43.759925
_cell_angle_alpha  89.994451
_cell_angle_beta   90.037733
_cell_angle_gamma 119.99527
loop_
_atom_site_label
_atom_site_type_symbol
_atom_site_fract_x
_atom_site_fract_y
_atom_site_fract_z
_atom_type_partial_charge
C0 C 0.35126 0.12844 0.10515 0.0
C1 C 0.34736 0.10902 0.13259 0.0
C2 C 0.3361 0.07075 0.12561 0.0
C3 C 0.33496 0.06899 0.09431 0.0
N4 N 0.34478 0.10371 0.0813 0.0
Co5 Co 0.35282 0.11443 0.03683 0.0
N6 N 0.31858 0.05832 0.02635 0.0
C7 C 0.31017 0.02811 0.04528 0.0
C8 C 0.28671 0.99223 0.03188 0.0
C9 C 0.28025 0.00046 1.00268 0.0
C10 C 0.3 0.0412 0.99979 0.0
N11 N 0.36068 0.12484 0.99211 0.0
C12 C 0.33891 0.10276 0.9679 0.0
C13 C 0.35312 0.1241 0.94095 0.0
C14 C 0.38586 0.15901 0.94841 0.0
C15 C 0.38946 0.15805 0.97949 0.0
N16 N 0.38728 0.17064 0.04765 0.0
C17 C 0.41429 0.19806 0.02906 0.0
C18 C 0.43488 0.23422 0.04271 0.0
C19 C 0.41996 0.22919 0.07175 0.0
C20 C 0.39072 0.18995 0.07432 0.0
N21 N 0.39847 0.1069 0.03822 0.0
C22 C 0.46455 0.09732 0.0408 0.0
C23 C 0.45803 0.11883 0.06316 0.0
C24 C 0.425 0.12319 0.06155 0.0
C25 C 0.43714 0.08066 0.0169 0.0
C26 C 0.40432 0.08576 0.01611 0.0
N27 N 0.30776 0.12206 0.03582 0.0
C28 C 0.27926 0.16196 0.02351 0.0
C29 C 0.24491 0.13587 0.03907 0.0
C30 C 0.24257 0.10254 0.05283 0.0
C31 C 0.27422 0.09611 0.05077 0.0
C32 C 0.3103 0.15439 0.02195 0.0
H33 H 0.27198 0.07064 0.06198 0.0
H34 H 0.33662 0.17506 0.01007 0.0
H35 H 0.42108 0.13994 0.07926 0.0
H36 H 0.38377 0.07276 0.99748 0.0
C37 C 0.31998 0.03484 0.07642 0.0
C38 C 0.36749 0.17141 0.10233 0.0
C39 C 0.30517 0.06186 0.97034 0.0
C40 C 0.41427 0.19031 0.99783 0.0
H41 H 0.35407 0.12153 0.15522 0.0
H42 H 0.3295 0.04713 0.14149 0.0
H43 H 0.27499 0.96351 0.04224 0.0
H44 H 0.26389 0.97882 0.98526 0.0
H45 H 0.34088 0.1167 0.91826 0.0
H46 H 0.40333 0.1833 0.93318 0.0
H47 H 0.45698 0.26143 0.03243 0.0
H48 H 0.42985 0.2521 0.0888 0.0
H49 H 0.47846 0.13235 0.08194 0.0
H50 H 0.44095 0.06437 0.99863 0.0
H51 H 0.28214 0.18809 0.0127 0.0
H52 H 0.21716 0.08207 0.06593 0.0
C53 C 0.319 0.34244 0.43585 0.0
C54 C 0.32422 0.3246 0.46153 0.0
C55 C 0.35334 0.31629 0.45472 0.0
C56 C 0.3636 0.32804 0.42505 0.0
N57 N 0.34237 0.34278 0.41267 0.0
Co58 Co 0.34425 0.35751 0.36892 0.0
N59 N 0.37032 0.32759 0.35592 0.0
C60 C 0.38937 0.31568 0.37475 0.0
C61 C 0.40199 0.29318 0.36019 0.0
C62 C 0.39029 0.29089 0.33038 0.0
C63 C 0.37165 0.31301 0.32793 0.0
N64 N 0.34565 0.37195 0.32552 0.0
C65 C 0.34771 0.35343 0.30002 0.0
C66 C 0.34739 0.37363 0.27404 0.0
C67 C 0.34464 0.4054 0.28385 0.0
C68 C 0.3437 0.40316 0.31519 0.0
N69 N 0.31855 0.38755 0.38141 0.0
C70 C 0.31968 0.41739 0.36544 0.0
C71 C 0.3002 0.43368 0.37982 0.0
C72 C 0.28618 0.41288 0.4065 0.0
C73 C 0.29757 0.38455 0.40692 0.0
N74 N 0.39583 0.40414 0.3756 0.0
C75 C 0.46988 0.47036 0.38569 0.0
C76 C 0.46225 0.44777 0.35906 0.0
C77 C 0.42513 0.41478 0.35452 0.0
C78 C 0.43975 0.45887 0.40716 0.0
C79 C 0.40292 0.42602 0.4016 0.0
N80 N 0.29318 0.31138 0.36218 0.0
C81 C 0.22833 0.28166 0.34073 0.0
C82 C 0.22106 0.24468 0.35021 0.0
C83 C 0.25024 0.24184 0.36656 0.0
C84 C 0.28605 0.27555 0.37229 0.0
C85 C 0.26471 0.31466 0.34675 0.0
H86 H 0.30801 0.27261 0.38483 0.0
H87 H 0.26994 0.34281 0.33873 0.0
H88 H 0.42019 0.39769 0.33399 0.0
H89 H 0.38019 0.41825 0.41843 0.0
C90 C 0.38586 0.31753 0.40646 0.0
C91 C 0.29237 0.35916 0.4336 0.0
C92 C 0.35474 0.3198 0.2996 0.0
C93 C 0.3329 0.42423 0.33503 0.0
H94 H 0.30797 0.31632 0.48264 0.0
H95 H 0.36353 0.30065 0.46897 0.0
H96 H 0.41523 0.2775 0.37046 0.0
H97 H 0.39408 0.27321 0.31351 0.0
H98 H 0.34938 0.36643 0.25049 0.0
H99 H 0.3419 0.42653 0.26974 0.0
H100 H 0.29561 0.45703 0.37152 0.0
H101 H 0.27013 0.41858 0.42392 0.0
H102 H 0.48487 0.45479 0.34212 0.0
H103 H 0.4445 0.47543 0.42808 0.0
H104 H 0.20619 0.28498 0.32848 0.0
H105 H 0.2454 0.21405 0.37543 0.0
C106 C 0.0806 0.3313 0.77144 0.0
C107 C 0.10085 0.35068 0.79782 0.0
C108 C 0.13444 0.38389 0.78868 0.0
C109 C 0.13292 0.38339 0.75736 0.0
N110 N 0.10051 0.35187 0.74633 0.0
Co111 Co 0.08683 0.34129 0.70259 0.0
N112 N 0.14211 0.37469 0.68981 0.0
C113 C 0.17034 0.40376 0.70664 0.0
C114 C 0.20591 0.42246 0.69193 0.0
C115 C 0.19948 0.40401 0.66414 0.0
C116 C 0.16016 0.37464 0.66342 0.0
N117 N 0.07361 0.33098 0.65839 0.0
C118 C 0.09676 0.33391 0.63414 0.0
C119 C 0.07362 0.3183 0.60815 0.0
C120 C 0.03587 0.30773 0.61612 0.0
C121 C 0.03729 0.31608 0.64663 0.0
N122 N 0.0313 0.30761 0.71589 0.0
C123 C -0.00024 0.29515 0.69759 0.0
C124 C 0.96562 0.26822 0.71158 0.0
C125 C 0.97627 0.26375 0.74049 0.0
C126 C 0.01654 0.2894 0.74322 0.0
N127 N 0.07914 0.38678 0.70063 0.0
C128 C 0.07042 0.4533 0.69895 0.0
C129 C 0.09071 0.44628 0.6757 0.0
C130 C 0.0946 0.41284 0.67693 0.0
C131 C 0.05378 0.42579 0.72256 0.0
C132 C 0.05872 0.39296 0.72314 0.0
N133 N 0.09454 0.29631 0.70454 0.0
C134 C 0.07226 0.22876 0.69307 0.0
C135 C 0.10594 0.23195 0.70658 0.0
C136 C 0.13361 0.26786 0.7196 0.0
C137 C 0.12728 0.29969 0.71834 0.0
C138 C 0.06723 0.26132 0.69208 0.0
H139 H 0.14883 0.32707 0.72854 0.0
H140 H 0.04128 0.25819 0.68115 0.0
H141 H 0.11032 0.40816 0.65874 0.0
H142 H 0.04626 0.37273 0.74199 0.0
C143 C 0.16403 0.40742 0.73774 0.0
C144 C 0.0406 0.29642 0.7714 0.0
C145 C 0.1402 0.35101 0.63596 0.0
C146 C 0.00458 0.30114 0.66598 0.0
H147 H 0.09198 0.34222 0.82128 0.0
H148 H 0.15776 0.40509 0.80316 0.0
H149 H 0.23357 0.44575 0.70071 0.0
H150 H 0.22116 0.41182 0.64628 0.0
H151 H 0.08167 0.31263 0.58602 0.0
H152 H 0.00995 0.29248 0.60191 0.0
H153 H 0.93693 0.25111 0.70118 0.0
H154 H 0.95636 0.24211 0.75646 0.0
H155 H 0.10308 0.46603 0.65646 0.0
H156 H 0.03763 0.43 0.74082 0.0
H157 H 0.05015 0.20135 0.68295 0.0
H158 H 0.15957 0.27137 0.73109 0.0
C159 C 0.84397 0.08403 0.10326 0.0
C160 C 0.84411 0.10645 0.12797 0.0
C161 C 0.84537 0.13946 0.11619 0.0
C162 C 0.84573 0.13555 0.08508 0.0
N163 N 0.845 0.1023 0.0766 0.0
Co164 Co 0.84171 0.08461 0.03377 0.0
N165 N 0.86346 0.13864 0.0175 0.0
C166 C 0.86123 0.16762 0.03207 0.0
C167 C 0.87258 0.20009 0.01411 0.0
C168 C 0.88248 0.19082 0.98655 0.0
C169 C 0.87805 0.15358 0.98937 0.0
N170 N 0.83793 0.06675 0.99085 0.0
C171 C 0.85487 0.08747 0.96491 0.0
C172 C 0.84162 0.06256 0.93964 0.0
C173 C 0.81552 0.02566 0.95024 0.0
C174 C 0.81407 0.0297 0.98124 0.0
N175 N 0.82 0.03063 0.05021 0.0
C176 C 0.79716 0.99766 0.03429 0.0
C177 C 0.78286 0.96443 0.05183 0.0
C178 C 0.7977 0.9774 0.08057 0.0
C179 C 0.82136 0.01809 0.07897 0.0
N180 N 0.78849 0.07688 0.03061 0.0
C181 C 0.71384 0.06939 0.02638 0.0
C182 C 0.74067 0.08531 1.00234 0.0
C183 C 0.77773 0.08904 1.00493 0.0
C184 C 0.72476 0.05621 0.05242 0.0
C185 C 0.76215 0.06012 0.05399 0.0
N186 N 0.89429 0.09245 0.03678 0.0
C187 C 0.93969 0.06978 0.02742 0.0
C188 C 0.9703 0.1045 0.03971 0.0
C189 C 0.96204 0.13321 0.05053 0.0
C190 C 0.92376 0.12646 0.04895 0.0
C191 C 0.90188 0.06425 0.02622 0.0
H192 H 0.91799 0.14894 0.05725 0.0
H193 H 0.87878 0.0373 0.01655 0.0
H194 H 0.7978 0.10224 0.98616 0.0
H195 H 0.76984 0.04982 0.07427 0.0
C196 C 0.85185 0.16428 0.06328 0.0
C197 C 0.84004 0.04451 0.1056 0.0
C198 C 0.88113 0.13079 0.96352 0.0
C199 C 0.79471 0.99903 1.00238 0.0
H200 H 0.84257 0.09967 0.15204 0.0
H201 H 0.84669 0.16374 0.12887 0.0
H202 H 0.87306 0.22705 0.02012 0.0
H203 H 0.88935 0.20842 0.96618 0.0
H204 H 0.84904 0.06984 0.91586 0.0
H205 H 0.80008 0.99895 0.93692 0.0
H206 H 0.76427 0.93429 0.04459 0.0
H207 H 0.7904 0.95872 0.10038 0.0
H208 H 0.73335 0.09564 0.98176 0.0
H209 H 0.70472 0.04266 0.07133 0.0
H210 H 0.94495 0.047 0.0187 0.0
H211 H 0.9847 0.16098 0.05958 0.0
C212 C 0.88588 0.85773 0.43077 0.0
C213 C 0.87648 0.87247 0.45634 0.0
C214 C 0.84621 0.8785 0.4481 0.0
C215 C 0.83933 0.86849 0.41782 0.0
N216 N 0.86378 0.85699 0.40644 0.0
Co217 Co 0.86655 0.84506 0.36263 0.0
N218 N 0.83945 0.87349 0.3487 0.0
C219 C 0.81581 0.88072 0.36634 0.0
C220 C 0.7979 0.89749 0.35044 0.0
C221 C 0.81116 0.90097 0.32096 0.0
C222 C 0.83758 0.88713 0.32048 0.0
N223 N 0.86912 0.83267 0.31908 0.0
C224 C 0.86435 0.84902 0.29322 0.0
C225 C 0.8656 0.82854 0.26765 0.0
C226 C 0.87154 0.79896 0.27804 0.0
C227 C 0.87336 0.80256 0.30923 0.0
N228 N 0.89383 0.817 0.37637 0.0
C229 C 0.89594 0.78886 0.36042 0.0
C230 C 0.91604 0.77386 0.37569 0.0
C231 C 0.92711 0.7938 0.40295 0.0
C232 C 0.91341 0.82033 0.40279 0.0
N233 N 0.81566 0.79653 0.3662 0.0
C234 C 0.7435 0.72601 0.3689 0.0
C235 C 0.75263 0.7518 0.34429 0.0
C236 C 0.78848 0.78676 0.34343 0.0
C237 C 0.77129 0.73646 0.39248 0.0
C238 C 0.80718 0.77188 0.39067 0.0
N239 N 0.91662 0.8931 0.35861 0.0
C240 C 0.98191 0.92789 0.33807 0.0
C241 C 0.98557 0.9635 0.34762 0.0
C242 C 0.95476 0.96302 0.36407 0.0
C243 C 0.92058 0.92751 0.36931 0.0
C244 C 0.94701 0.89292 0.34363 0.0
H245 H 0.89703 0.92795 0.38155 0.0
H246 H 0.94426 0.86582 0.33531 0.0
H247 H 0.79429 0.80568 0.32399 0.0
H248 H 0.82829 0.77911 0.40885 0.0
C249 C 0.8165 0.87728 0.3982 0.0
C250 C 0.91518 0.84418 0.42963 0.0
C251 C 0.85606 0.88199 0.2925 0.0
C252 C 0.88471 0.78242 0.32957 0.0
H253 H 0.89049 0.87997 0.47842 0.0
H254 H 0.83282 0.89139 0.46203 0.0
H255 H 0.77808 0.90674 0.35925 0.0
H256 H 0.80108 0.91129 0.30211 0.0
H257 H 0.86192 0.83356 0.24391 0.0
H258 H 0.87513 0.77801 0.26436 0.0
H259 H 0.9229 0.75193 0.36765 0.0
H260 H 0.94274 0.78871 0.42111 0.0
H261 H 0.73212 0.74493 0.32557 0.0
H262 H 0.76604 0.71731 0.41181 0.0
H263 H 0.0055 0.92717 0.32583 0.0
H264 H 0.95693 0.98968 0.37311 0.0
C265 C 0.13544 0.87619 0.76909 0.0
C266 C 0.1172 0.8593 0.79667 0.0
C267 C 0.07896 0.83173 0.79002 0.0
C268 C 0.07613 0.83218 0.7588 0.0
N269 N 0.11015 0.85818 0.74551 0.0
Co270 Co 0.11968 0.86212 0.70082 0.0
N271 N 0.06328 0.83987 0.69145 0.0
C272 C 0.03376 0.81733 0.71069 0.0
C273 C 0.99742 0.80452 0.69804 0.0
C274 C 0.0046 0.81971 0.669 0.0
C275 C 0.04523 0.84138 0.6654 0.0
N276 N 0.12896 0.86565 0.65593 0.0
C277 C 0.10623 0.86577 0.63237 0.0
C278 C 0.12727 0.87429 0.60514 0.0
C279 C 0.16245 0.8765 0.61168 0.0
C280 C 0.16206 0.87075 0.64258 0.0
N281 N 0.17616 0.8846 0.71059 0.0
C282 C 0.20335 0.88553 0.69149 0.0
C283 C 0.23992 0.90194 0.70463 0.0
C284 C 0.2353 0.9119 0.73382 0.0
C285 C 0.196 0.90133 0.73688 0.0
N286 N 0.11306 0.80925 0.70083 0.0
C287 C 0.10693 0.73504 0.70002 0.0
C288 C 0.12896 0.76262 0.7225 0.0
C289 C 0.13136 0.79925 0.72271 0.0
C290 C 0.0877 0.74528 0.67792 0.0
C291 C 0.09124 0.78255 0.67871 0.0
N292 N 0.12678 0.91461 0.701 0.0
C293 C 0.16616 0.98291 0.68843 0.0
C294 C 0.14125 0.9914 0.7054 0.0
C295 C 0.10866 0.96054 0.72006 0.0
C296 C 0.10185 0.9223 0.71738 0.0
C297 C 0.15833 0.94434 0.68637 0.0
H298 H 0.07695 0.899 0.72912 0.0
H299 H 0.17828 0.93871 0.67342 0.0
H300 H 0.14851 0.81966 0.74047 0.0
H301 H 0.07676 0.78997 0.66115 0.0
C302 C 0.04149 0.81326 0.74143 0.0
C303 C 0.17772 0.9053 0.76529 0.0
C304 C 0.06495 0.85747 0.63566 0.0
C305 C 0.1949 0.87817 0.66027 0.0
H306 H 0.13022 0.86498 0.81919 0.0
H307 H 0.05597 0.81385 0.8061 0.0
H308 H 0.96906 0.78675 0.70875 0.0
H309 H 0.9823 0.81415 0.65209 0.0
H310 H 0.11961 0.88024 0.58292 0.0
H311 H 0.18658 0.88429 0.59605 0.0
H312 H 0.26708 0.9076 0.69393 0.0
H313 H 0.25834 0.92517 0.75077 0.0
H314 H 0.14431 0.7559 0.73994 0.0
H315 H 0.07102 0.72532 0.65963 0.0
H316 H 0.19161 0.00597 0.6768 0.0
H317 H 0.08899 0.96563 0.73408 0.0
H318 H 0.38915 0.22611 0.12732 0.0
C319 C 0.36718 0.19524 0.12703 0.0
H320 H 0.31409 0.15279 0.14981 0.0
H321 H 0.34674 0.21666 0.28478 0.0
H322 H 0.33037 0.14885 0.29056 0.0
H323 H 0.31886 0.10688 0.24544 0.0
H324 H 0.3234 0.13223 0.19456 0.0
C325 C 0.33903 0.1824 0.15083 0.0
C326 C 0.34271 0.20744 0.17845 0.0
C327 C 0.33933 0.19195 0.20848 0.0
C328 C 0.34621 0.21627 0.23473 0.0
C329 C 0.34261 0.19983 0.26418 0.0
C330 C 0.333 0.16086 0.26785 0.0
C331 C 0.32651 0.13725 0.24245 0.0
C332 C 0.32949 0.15238 0.21318 0.0
H333 H 0.32153 0.29422 0.25831 0.0
C334 C 0.34567 0.29691 0.27224 0.0
H335 H 0.39791 0.29192 0.26781 0.0
H336 H 0.33839 0.24343 0.12614 0.0
H337 H 0.35466 0.31132 0.12076 0.0
H338 H 0.37367 0.35514 0.16559 0.0
H339 H 0.37532 0.33096 0.21624 0.0
C340 C 0.36877 0.28248 0.25911 0.0
C341 C 0.35649 0.2562 0.2314 0.0
C342 C 0.35781 0.27116 0.20163 0.0
C343 C 0.34953 0.24649 0.17534 0.0
C344 C 0.34743 0.26152 0.14645 0.0
C345 C 0.35611 0.30031 0.14311 0.0
C346 C 0.36661 0.32493 0.16838 0.0
C347 C 0.36738 0.31066 0.19735 0.0
H348 H 0.23913 0.35695 0.44924 0.0
C349 C 0.26461 0.3551 0.45651 0.0
H350 H 0.29931 0.36397 0.49705 0.0
H351 H 0.21712 0.42178 0.58826 0.0
H352 H 0.27999 0.48072 0.58019 0.0
H353 H 0.3255 0.48296 0.54043 0.0
H354 H 0.30846 0.42634 0.50842 0.0
C355 C 0.27035 0.35562 0.48838 0.0
C356 C 0.2412 0.35473 0.51122 0.0
C357 C 0.25149 0.38805 0.53 0.0
C358 C 0.22513 0.38679 0.55306 0.0
C359 C 0.23612 0.42087 0.57082 0.0
C360 C 0.27208 0.45499 0.56633 0.0
C361 C 0.29771 0.45624 0.54395 0.0
C362 C 0.28764 0.42338 0.52585 0.0
H363 H 0.19159 0.35039 0.61936 0.0
C364 C 0.1642 0.34866 0.61243 0.0
H365 H 0.13809 0.3586 0.57216 0.0
H366 H 0.21226 0.28476 0.48086 0.0
H367 H 0.14896 0.22623 0.48863 0.0
H368 H 0.10309 0.22463 0.52781 0.0
H369 H 0.12035 0.28158 0.55968 0.0
C370 C 0.15958 0.35143 0.58071 0.0
C371 C 0.18836 0.35215 0.55767 0.0
C372 C 0.17788 0.31897 0.53877 0.0
C373 C 0.20428 0.32012 0.51574 0.0
C374 C 0.19318 0.28594 0.4981 0.0
C375 C 0.15697 0.25203 0.50244 0.0
C376 C 0.13114 0.25111 0.52452 0.0
C377 C 0.14136 0.28403 0.5426 0.0
H378 H 0.89369 0.13193 0.91509 0.0
C379 C 0.90213 0.149 0.93593 0.0
H380 H 0.94713 0.20456 0.95404 0.0
H381 H 0.99297 0.19505 0.80549 0.0
H382 H 0.99173 0.13459 0.81899 0.0
H383 H 0.97549 0.10826 0.87141 0.0
H384 H 0.95932 0.14159 0.91045 0.0
C385 C 0.93472 0.18754 0.93338 0.0
C386 C 0.95227 0.207 0.90294 0.0
C387 C 0.96415 0.18855 0.88067 0.0
C388 C 0.9762 0.20524 0.85079 0.0
C389 C 0.98515 0.1846 0.8287 0.0
C390 C 0.98446 0.14979 0.83613 0.0
C391 C 0.97512 0.13485 0.86561 0.0
C392 C 0.96529 0.15398 0.88771 0.0
H393 H 0.0488 0.27423 0.81431 0.0
C394 C 0.02693 0.27435 0.79917 0.0
H395 H 0.96857 0.26627 0.80138 0.0
H396 H 0.94037 0.2556 0.94114 0.0
H397 H 0.94755 0.31861 0.9289 0.0
H398 H 0.97012 0.34798 0.87793 0.0
H399 H 0.98538 0.31411 0.83891 0.0
C400 C 0.98889 0.25859 0.81164 0.0
C401 C 0.97882 0.2417 0.84349 0.0
C402 C 0.97024 0.26179 0.86648 0.0
C403 C 0.95723 0.2447 0.89608 0.0
C404 C 0.94933 0.26615 0.91822 0.0
C405 C 0.95373 0.30279 0.91156 0.0
C406 C 0.96644 0.31933 0.88289 0.0
C407 C 0.97483 0.29935 0.86061 0.0
H408 H 0.85462 0.05062 0.15401 0.0
C409 C 0.84843 0.03206 0.13409 0.0
H410 H 0.85135 0.98054 0.11999 0.0
H411 H 0.93249 0.98165 0.24893 0.0
H412 H 0.99208 0.02827 0.22231 0.0
H413 H 0.98877 0.05464 0.1719 0.0
H414 H 0.92583 0.03493 0.14781 0.0
C415 C 0.85102 0.99794 0.13907 0.0
C416 C 0.85335 0.98407 0.17073 0.0
C417 C 0.89023 0.99546 0.18456 0.0
C418 C 0.89215 0.97998 0.21372 0.0
C419 C 0.92942 0.99242 0.22692 0.0
C420 C 0.9638 0.0191 0.21187 0.0
C421 C 0.96193 0.03396 0.18347 0.0
C422 C 0.92567 0.02238 0.16986 0.0
H423 H 0.86692 0.89165 0.24366 0.0
C424 C 0.86051 0.90255 0.26432 0.0
H425 H 0.85868 0.95418 0.27984 0.0
H426 H 0.7778 0.95785 0.15249 0.0
H427 H 0.71842 0.9101 0.17837 0.0
H428 H 0.72184 0.88061 0.2272 0.0
H429 H 0.78465 0.89888 0.2505 0.0
C430 C 0.85884 0.93731 0.26032 0.0
C431 C 0.85724 0.95244 0.229 0.0
C432 C 0.82039 0.9408 0.21502 0.0
C433 C 0.81843 0.95707 0.18629 0.0
C434 C 0.78107 0.94569 0.17368 0.0
C435 C 0.74671 0.91848 0.18842 0.0
C436 C 0.74863 0.90196 0.21596 0.0
C437 C 0.78492 0.91288 0.22919 0.0
H438 H 0.01804 0.86535 0.61763 0.0
C439 C 0.04193 0.86032 0.61139 0.0
H440 H 0.05924 0.83633 0.57416 0.0
H441 H 0.91668 0.77494 0.48591 0.0
H442 H 0.91359 0.71477 0.50307 0.0
H443 H 0.95578 0.71561 0.54515 0.0
H444 H 0.00146 0.77654 0.57028 0.0
C445 C 0.04282 0.85068 0.58038 0.0
C446 C 0.01458 0.85013 0.55664 0.0
C447 C 0.98743 0.81412 0.54225 0.0
C448 C 0.96239 0.81346 0.51822 0.0
C449 C 0.93601 0.77707 0.50436 0.0
C450 C 0.93395 0.74231 0.51396 0.0
C451 C 0.95777 0.7428 0.53761 0.0
C452 C 0.98411 0.77811 0.55172 0.0
H453 H 0.96956 0.85044 0.44688 0.0
C454 C 0.94257 0.84979 0.45344 0.0
H455 H 0.90539 0.83679 0.4932 0.0
H456 H 0.06435 0.92481 0.57699 0.0
H457 H 0.06611 0.9845 0.56038 0.0
H458 H 0.02118 0.98275 0.52023 0.0
H459 H 0.97433 0.92117 0.49614 0.0
C460 C 0.93502 0.84724 0.48514 0.0
C461 C 0.9639 0.84865 0.50852 0.0
C462 C 0.99084 0.8846 0.52289 0.0
C463 C 0.01633 0.88545 0.54667 0.0
C464 C 0.04365 0.92216 0.55958 0.0
C465 C 0.04513 0.95673 0.55011 0.0
C466 C 0.01985 0.95576 0.52747 0.0
C467 C 0.99306 0.92023 0.51388 0.0
H468 H 0.25001 0.01739 0.95103 0.0
C469 C 0.27975 0.04021 0.94551 0.0
H470 H 0.32272 0.0551 0.90969 0.0
H471 H 0.22201 0.90127 0.83196 0.0
H472 H 0.26682 0.88541 0.85752 0.0
H473 H 0.31095 0.92814 0.89817 0.0
H474 H 0.31006 0.98686 0.91382 0.0
C475 C 0.29165 0.04065 0.915 0.0
C476 C 0.26386 0.01424 0.89062 0.0
C477 C 0.26541 0.9806 0.88076 0.0
C478 C 0.24065 0.9565 0.85647 0.0
C479 C 0.24131 0.92177 0.84895 0.0
C480 C 0.26664 0.91199 0.86375 0.0
C481 C 0.29144 0.936 0.88669 0.0
C482 C 0.29077 0.96975 0.89533 0.0
H483 H 0.23323 0.94888 0.78529 0.0
C484 C 0.20167 0.93255 0.78854 0.0
H485 H 0.15711 0.93143 0.81823 0.0
H486 H 0.25295 0.07605 0.90347 0.0
H487 H 0.20826 0.09248 0.87789 0.0
H488 H 0.16675 0.05207 0.83516 0.0
H489 H 0.17003 0.99553 0.81734 0.0
C490 C 0.18808 0.94115 0.81577 0.0
C491 C 0.21514 0.96676 0.84099 0.0
C492 C 0.21345 0.00033 0.8511 0.0
C493 C 0.23755 0.02381 0.87588 0.0
C494 C 0.23522 0.05714 0.88503 0.0
C495 C 0.20976 0.06697 0.87049 0.0
C496 C 0.18644 0.04428 0.8464 0.0
C497 C 0.18836 0.01157 0.83657 0.0
H498 H 0.2199 0.17532 0.03952 0.0
C499 C 0.2127 0.14483 0.04149 0.0
H500 H 0.16661 0.08596 0.04639 0.0
H501 H 0.04588 0.11991 0.11218 0.0
H502 H 0.06745 0.09564 0.15471 0.0
H503 H 0.12461 0.08605 0.14942 0.0
H504 H 0.16031 0.1003 0.10151 0.0
C505 C 0.17502 0.11675 0.04494 0.0
C506 C 0.14355 0.12662 0.04872 0.0
C507 C 0.12369 0.11897 0.07712 0.0
C508 C 0.09114 0.12497 0.08031 0.0
C509 C 0.07099 0.11606 0.1086 0.0
C510 C 0.08309 0.10217 0.1332 0.0
C511 C 0.11525 0.09674 0.13021 0.0
C512 C 0.13542 0.10496 0.10256 0.0
H513 H 0.01529 0.08986 0.0258 0.0
C514 C 0.01033 0.10993 0.03975 0.0
H515 H 0.03683 0.15632 0.0722 0.0
H516 H 0.1748 0.14365 0.99073 0.0
H517 H 0.15564 0.17178 0.94954 0.0
H518 H 0.10219 0.18677 0.95656 0.0
H519 H 0.06713 0.1729 1.00481 0.0
C520 C 0.04042 0.13715 0.05634 0.0
C521 C 0.07878 0.13866 0.05511 0.0
C522 C 0.1004 0.14907 0.02746 0.0
C523 C 0.13228 0.1421 0.02393 0.0
C524 C 0.15141 0.14986 0.99521 0.0
C525 C 0.14052 0.16578 0.97125 0.0
C526 C 0.11034 0.17409 0.97516 0.0
C527 C 0.09035 0.16581 1.00287 0.0
H528 H 0.04954 -0.00022 0.34005 0.0
C529 C 0.02229 0.00056 0.34144 0.0
H530 H 0.9965 0.03671 0.33878 0.0
H531 H 0.15518 0.17261 0.39783 0.0
H532 H 0.11214 0.15249 0.44181 0.0
H533 H 0.04493 0.09557 0.43886 0.0
H534 H 0.02061 0.05833 0.39189 0.0
C535 C 0.02319 0.03495 0.33815 0.0
C536 C 0.06119 0.07202 0.3381 0.0
C537 C 0.07428 0.0942 0.36541 0.0
C538 C 0.11256 0.12744 0.36687 0.0
C539 C 0.12585 0.14785 0.395 0.0
C540 C 0.10153 0.13643 0.42057 0.0
C541 C 0.06374 0.10436 0.41893 0.0
C542 C 0.05016 0.08326 0.3918 0.0
H543 H 0.15689 0.21409 0.34267 0.0
C544 C 0.1822 0.20993 0.34443 0.0
H545 H 0.20171 0.16855 0.34162 0.0
H546 H 0.043 0.03737 0.28168 0.0
H547 H 0.0854 0.05832 0.23699 0.0
H548 H 0.15196 0.11645 0.2393 0.0
H549 H 0.17647 0.15405 0.28626 0.0
C550 C 0.17694 0.17357 0.34216 0.0
C551 C 0.13698 0.139 0.34061 0.0
C552 C 0.12347 0.11735 0.31307 0.0
C553 C 0.08532 0.08378 0.31178 0.0
C554 C 0.07206 0.06282 0.28394 0.0
C555 C 0.09601 0.07462 0.25813 0.0
C556 C 0.13348 0.10737 0.25942 0.0
C557 C 0.1472 0.12865 0.28651 0.0
H558 H 0.08408 0.16839 0.70499 0.0
C559 C 0.11058 0.197 0.7071 0.0
H560 H 0.17291 0.22647 0.70957 0.0
H561 H 0.15636 0.06843 0.76579 0.0
H562 H 0.18587 0.11387 0.80828 0.0
H563 H 0.19753 0.18151 0.80513 0.0
H564 H 0.18022 0.20449 0.75935 0.0
C565 C 0.14554 0.19873 0.70803 0.0
C566 C 0.14679 0.16174 0.70748 0.0
C567 C 0.15773 0.14922 0.73416 0.0
C568 C 0.15092 0.11023 0.73598 0.0
C569 C 0.16113 0.09789 0.76316 0.0
C570 C 0.17795 0.12358 0.78773 0.0
C571 C 0.18455 0.16172 0.78595 0.0
C572 C 0.17445 0.17452 0.75958 0.0
H573 H 0.18011 0.05569 0.70159 0.0
C574 C 0.15045 0.03269 0.70732 0.0
H575 H 0.09274 0.021 0.71704 0.0
H576 H 0.13146 0.18016 0.65068 0.0
H577 H 0.10466 0.13591 0.60727 0.0
H578 H 0.09036 0.0673 0.61098 0.0
H579 H 0.10314 0.04271 0.65796 0.0
C580 C 0.12334 0.04285 0.71342 0.0
C581 C 0.13337 0.0843 0.711 0.0
C582 C 0.12512 0.09775 0.6835 0.0
C583 C 0.1325 0.13685 0.68156 0.0
C584 C 0.12519 0.15021 0.65359 0.0
C585 C 0.11011 0.12523 0.62847 0.0
C586 C 0.10212 0.08663 0.63054 0.0
C587 C 0.10954 0.07289 0.65766 0.0
H588 H 0.66552 0.06897 1.00017 0.0
C589 C 0.67514 0.06721 0.02315 0.0
H590 H 0.66167 0.06549 0.07023 0.0
H591 H 0.558 0.13602 1.00186 0.0
H592 H 0.62116 0.19312 0.99055 0.0
H593 H 0.68279 0.19439 1.00385 0.0
H594 H 0.68159 0.13828 0.02792 0.0
C595 C 0.65311 0.06669 0.04685 0.0
C596 C 0.61613 0.06779 0.04177 0.0
C597 C 0.61742 0.10165 0.02899 0.0
C598 C 0.5819 0.10173 0.02282 0.0
C599 C 0.58403 0.13498 0.0083 0.0
C600 C 0.62012 0.16789 1.00147 0.0
C601 C 0.65481 0.16854 0.00884 0.0
C602 C 0.65367 0.13595 0.02246 0.0
H603 H 0.52295 0.1134 0.05957 0.0
C604 C 0.50083 0.0944 0.04307 0.0
H605 H 0.48617 0.04849 0.01112 0.0
H606 H 0.60328 0.99856 0.06683 0.0
H607 H 0.54015 0.94259 0.08036 0.0
H608 H 0.47875 0.94385 0.07176 0.0
H609 H 0.48001 0.00096 0.04937 0.0
C610 C 0.50803 0.06978 0.02657 0.0
C611 C 0.54521 0.06883 0.03098 0.0
C612 C 0.54398 0.03527 0.0442 0.0
C613 C 0.57945 0.03473 0.04954 0.0
C614 C 0.57728 0.00069 0.06253 0.0
C615 C 0.54124 0.96833 0.07038 0.0
C616 C 0.50666 0.96903 0.06552 0.0
C617 C 0.50782 0.00201 0.05261 0.0
H618 H 0.69022 0.6795 0.34621 0.0
C619 C 0.70547 0.6883 0.36806 0.0
H620 H 0.70047 0.67355 0.4151 0.0
H621 H 0.51366 0.57425 0.39829 0.0
H622 H 0.52091 0.63028 0.42679 0.0
H623 H 0.58659 0.68608 0.43873 0.0
H624 H 0.64549 0.68628 0.42187 0.0
C625 C 0.68798 0.66511 0.39238 0.0
C626 C 0.64877 0.62892 0.38891 0.0
C627 C 0.61464 0.62844 0.39997 0.0
C628 C 0.57674 0.59567 0.39382 0.0
C629 C 0.54319 0.59739 0.40338 0.0
C630 C 0.54691 0.62963 0.41953 0.0
C631 C 0.58388 0.66109 0.4262 0.0
C632 C 0.61744 0.66079 0.41642 0.0
H633 H 0.51723 0.51294 0.41603 0.0
C634 C 0.50902 0.50513 0.39224 0.0
H635 H 0.52599 0.52164 0.34634 0.0
H636 H 0.70832 0.61887 0.36698 0.0
H637 H 0.70147 0.56234 0.33922 0.0
H638 H 0.63599 0.50521 0.32898 0.0
H639 H 0.57697 0.50423 0.34641 0.0
C640 C 0.53368 0.52836 0.37028 0.0
C641 C 0.57312 0.5627 0.37756 0.0
C642 C 0.6074 0.56285 0.36717 0.0
C643 C 0.6452 0.59589 0.37292 0.0
C644 C 0.67889 0.59491 0.3627 0.0
C645 C 0.67539 0.56254 0.3469 0.0
C646 C 0.63852 0.53037 0.34115 0.0
C647 C 0.60485 0.53027 0.35121 0.0
H648 H 0.13075 0.696 0.71063 0.0
C649 C 0.10634 0.69693 0.69973 0.0
H650 H 0.05171 0.66306 0.67737 0.0
H651 H 0.08618 0.53151 0.62992 0.0
H652 H 0.08167 0.56096 0.58252 0.0
H653 H 0.07625 0.62084 0.58285 0.0
H654 H 0.07489 0.65144 0.63057 0.0
C655 C 0.07679 0.66342 0.68811 0.0
C656 C 0.07853 0.62629 0.68823 0.0
C657 C 0.07959 0.60891 0.66011 0.0
C658 C 0.0835 0.57478 0.65991 0.0
C659 C 0.0839 0.55778 0.63145 0.0
C660 C 0.08124 0.57433 0.60404 0.0
C661 C 0.07813 0.60801 0.60423 0.0
C662 C 0.07734 0.62524 0.63183 0.0
H663 H 0.0402 0.48634 0.71081 0.0
C664 C 0.06557 0.48847 0.69905 0.0
H665 H 0.11827 0.52652 0.67572 0.0
H666 H 0.07012 0.64751 0.74622 0.0
H667 H 0.07773 0.62008 0.79361 0.0
H668 H 0.09196 0.56563 0.79322 0.0
H669 H 0.09751 0.53761 0.74551 0.0
C670 C 0.09229 0.52331 0.68711 0.0
C671 C 0.08685 0.55829 0.68781 0.0
C672 C 0.0859 0.57575 0.71599 0.0
C673 C 0.08031 0.60888 0.7162 0.0
C674 C 0.07648 0.62379 0.74467 0.0
C675 C 0.08046 0.60809 0.77208 0.0
C676 C 0.08826 0.57732 0.77186 0.0
C677 C 0.09104 0.56126 0.74424 0.0
loop_
_geom_bond_atom_site_label_1
_geom_bond_atom_site_label_2
_geom_bond_distance
_geom_bond_site_symmetry_2
_ccdc_geom_bond_type
C0 C1 1.443 . S
C0 N4 1.376 . S
C0 C38 1.389 . S
C1 C0 1.443 . S
C1 C2 1.340 . S
C1 H41 0.951 . S
C2 C1 1.340 . S
C2 C3 1.439 . S
C2 H42 0.950 . S
C3 C2 1.439 . S
C3 N4 1.374 . S
C3 C37 1.395 . S
N4 C0 1.376 . S
N4 C3 1.374 . S
N4 Co5 2.008 . S
Co5 N4 2.008 . S
Co5 N6 1.995 . S
Co5 N11 2.008 1_554 S
Co5 N16 1.995 . S
Co5 N21 2.282 . S
Co5 N27 2.282 . S
N6 Co5 1.995 . S
N6 C7 1.376 . S
N6 C10 1.383 1_554 S
C7 N6 1.376 . S
C7 C8 1.446 . S
C7 C37 1.391 . S
C8 C7 1.446 . S
C8 C9 1.339 1_554 S
C8 H43 0.949 . S
C9 C8 1.339 1_556 S
C9 C10 1.439 . S
C9 H44 0.950 . S
C10 N6 1.383 1_556 S
C10 C9 1.439 . S
C10 C39 1.392 . S
N11 Co5 2.008 1_556 S
N11 C12 1.376 . S
N11 C15 1.374 . S
C12 N11 1.376 . S
C12 C13 1.443 . S
C12 C39 1.389 . S
C13 C12 1.443 . S
C13 C14 1.340 . S
C13 H45 0.951 . S
C14 C13 1.340 . S
C14 C15 1.439 . S
C14 H46 0.950 . S
C15 N11 1.374 . S
C15 C14 1.439 . S
C15 C40 1.395 . S
N16 Co5 1.995 . S
N16 C17 1.376 . S
N16 C20 1.383 . S
C17 N16 1.376 . S
C17 C18 1.446 . S
C17 C40 1.391 1_554 S
C18 C17 1.446 . S
C18 C19 1.339 . S
C18 H47 0.949 . S
C19 C18 1.339 . S
C19 C20 1.439 . S
C19 H48 0.950 . S
C20 N16 1.383 . S
C20 C19 1.439 . S
C20 C38 1.392 . S
N21 Co5 2.282 . S
N21 C24 1.332 . S
N21 C26 1.332 . S
C22 C23 1.386 . S
C22 C25 1.388 . S
C23 C22 1.386 . S
C23 C24 1.382 . S
C23 H49 0.950 . S
C24 N21 1.332 . S
C24 C23 1.382 . S
C24 H35 0.952 . S
C25 C22 1.388 . S
C25 C26 1.382 . S
C25 H50 0.950 . S
C26 N21 1.332 . S
C26 C25 1.382 . S
C26 H36 0.948 . S
N27 Co5 2.282 . S
N27 C31 1.332 . S
N27 C32 1.332 . S
C28 C29 1.388 . S
C28 C32 1.382 . S
C28 H51 0.950 . S
C29 C28 1.388 . S
C29 C30 1.386 . S
C30 C29 1.386 . S
C30 C31 1.382 . S
C30 H52 0.950 . S
C31 N27 1.332 . S
C31 C30 1.382 . S
C31 H33 0.952 . S
C32 N27 1.332 . S
C32 C28 1.382 . S
C32 H34 0.948 . S
H33 C31 0.952 . S
H34 C32 0.948 . S
H35 C24 0.952 . S
H36 C26 0.948 . S
C37 C3 1.395 . S
C37 C7 1.391 . S
C38 C0 1.389 . S
C38 C20 1.392 . S
C39 C10 1.392 . S
C39 C12 1.389 . S
C40 C15 1.395 . S
C40 C17 1.391 1_556 S
H41 C1 0.951 . S
H42 C2 0.950 . S
H43 C8 0.949 . S
H44 C9 0.950 . S
H45 C13 0.951 . S
H46 C14 0.950 . S
H47 C18 0.949 . S
H48 C19 0.950 . S
H49 C23 0.950 . S
H50 C25 0.950 . S
H51 C28 0.950 . S
H52 C30 0.950 . S
C53 C54 1.443 . S
C53 N57 1.376 . S
C53 C91 1.389 . S
C54 C53 1.443 . S
C54 C55 1.340 . S
C54 H94 0.951 . S
C55 C54 1.340 . S
C55 C56 1.439 . S
C55 H95 0.950 . S
C56 C55 1.439 . S
C56 N57 1.374 . S
C56 C90 1.395 . S
N57 C53 1.376 . S
N57 C56 1.374 . S
N57 Co58 2.008 . S
Co58 N57 2.008 . S
Co58 N59 1.995 . S
Co58 N64 2.008 . S
Co58 N69 1.995 . S
Co58 N74 2.282 . S
Co58 N80 2.282 . S
N59 Co58 1.995 . S
N59 C60 1.376 . S
N59 C63 1.383 . S
C60 N59 1.376 . S
C60 C61 1.446 . S
C60 C90 1.391 . S
C61 C60 1.446 . S
C61 C62 1.339 . S
C61 H96 0.949 . S
C62 C61 1.339 . S
C62 C63 1.439 . S
C62 H97 0.950 . S
C63 N59 1.383 . S
C63 C62 1.439 . S
C63 C92 1.392 . S
N64 Co58 2.008 . S
N64 C65 1.376 . S
N64 C68 1.374 . S
C65 N64 1.376 . S
C65 C66 1.443 . S
C65 C92 1.389 . S
C66 C65 1.443 . S
C66 C67 1.340 . S
C66 H98 0.951 . S
C67 C66 1.340 . S
C67 C68 1.439 . S
C67 H99 0.950 . S
C68 N64 1.374 . S
C68 C67 1.439 . S
C68 C93 1.395 . S
N69 Co58 1.995 . S
N69 C70 1.376 . S
N69 C73 1.383 . S
C70 N69 1.376 . S
C70 C71 1.446 . S
C70 C93 1.391 . S
C71 C70 1.446 . S
C71 C72 1.339 . S
C71 H100 0.949 . S
C72 C71 1.339 . S
C72 C73 1.439 . S
C72 H101 0.950 . S
C73 N69 1.383 . S
C73 C72 1.439 . S
C73 C91 1.392 . S
N74 Co58 2.282 . S
N74 C77 1.332 . S
N74 C79 1.332 . S
C75 C76 1.386 . S
C75 C78 1.388 . S
C76 C75 1.386 . S
C76 C77 1.382 . S
C76 H102 0.950 . S
C77 N74 1.332 . S
C77 C76 1.382 . S
C77 H88 0.952 . S
C78 C75 1.388 . S
C78 C79 1.382 . S
C78 H103 0.950 . S
C79 N74 1.332 . S
C79 C78 1.382 . S
C79 H89 0.948 . S
N80 Co58 2.282 . S
N80 C84 1.332 . S
N80 C85 1.332 . S
C81 C82 1.388 . S
C81 C85 1.382 . S
C81 H104 0.950 . S
C82 C81 1.388 . S
C82 C83 1.386 . S
C83 C82 1.386 . S
C83 C84 1.382 . S
C83 H105 0.950 . S
C84 N80 1.332 . S
C84 C83 1.382 . S
C84 H86 0.952 . S
C85 N80 1.332 . S
C85 C81 1.382 . S
C85 H87 0.948 . S
H86 C84 0.952 . S
H87 C85 0.948 . S
H88 C77 0.952 . S
H89 C79 0.948 . S
C90 C56 1.395 . S
C90 C60 1.391 . S
C91 C53 1.389 . S
C91 C73 1.392 . S
C92 C63 1.392 . S
C92 C65 1.389 . S
C93 C68 1.395 . S
C93 C70 1.391 . S
H94 C54 0.951 . S
H95 C55 0.950 . S
H96 C61 0.949 . S
H97 C62 0.950 . S
H98 C66 0.951 . S
H99 C67 0.950 . S
H100 C71 0.949 . S
H101 C72 0.950 . S
H102 C76 0.950 . S
H103 C78 0.950 . S
H104 C81 0.950 . S
H105 C83 0.950 . S
C106 C107 1.443 . S
C106 N110 1.376 . S
C106 C144 1.389 1_455 S
C107 C106 1.443 . S
C107 C108 1.340 . S
C107 H147 0.951 . S
C108 C107 1.340 . S
C108 C109 1.439 . S
C108 H148 0.950 . S
C109 C108 1.439 . S
C109 N110 1.374 . S
C109 C143 1.395 . S
N110 C106 1.376 . S
N110 C109 1.374 . S
N110 Co111 2.008 . S
Co111 N110 2.008 . S
Co111 N112 1.995 . S
Co111 N117 2.008 . S
Co111 N122 1.995 1_455 S
Co111 N127 2.282 . S
Co111 N133 2.282 . S
N112 Co111 1.995 . S
N112 C113 1.376 . S
N112 C116 1.383 . S
C113 N112 1.376 . S
C113 C114 1.446 . S
C113 C143 1.391 . S
C114 C113 1.446 . S
C114 C115 1.339 . S
C114 H149 0.949 . S
C115 C114 1.339 . S
C115 C116 1.439 . S
C115 H150 0.950 . S
C116 N112 1.383 . S
C116 C115 1.439 . S
C116 C145 1.392 . S
N117 Co111 2.008 . S
N117 C118 1.376 . S
N117 C121 1.374 1_455 S
C118 N117 1.376 . S
C118 C119 1.443 . S
C118 C145 1.389 . S
C119 C118 1.443 . S
C119 C120 1.340 1_455 S
C119 H151 0.951 . S
C120 C119 1.340 1_655 S
C120 C121 1.439 . S
C120 H152 0.950 . S
C121 N117 1.374 1_655 S
C121 C120 1.439 . S
C121 C146 1.395 . S
N122 Co111 1.995 1_655 S
N122 C123 1.376 . S
N122 C126 1.383 . S
C123 N122 1.376 . S
C123 C124 1.446 . S
C123 C146 1.391 . S
C124 C123 1.446 . S
C124 C125 1.339 . S
C124 H153 0.949 . S
C125 C124 1.339 . S
C125 C126 1.439 . S
C125 H154 0.950 . S
C126 N122 1.383 . S
C126 C125 1.439 . S
C126 C144 1.392 . S
N127 Co111 2.282 . S
N127 C130 1.332 1_455 S
N127 C132 1.332 . S
C128 C129 1.386 1_455 S
C128 C131 1.388 . S
C129 C128 1.386 1_655 S
C129 C130 1.382 . S
C129 H155 0.950 . S
C130 N127 1.332 1_655 S
C130 C129 1.382 . S
C130 H141 0.952 . S
C131 C128 1.388 . S
C131 C132 1.382 . S
C131 H156 0.950 . S
C132 N127 1.332 . S
C132 C131 1.382 . S
C132 H142 0.948 . S
N133 Co111 2.282 . S
N133 C137 1.332 . S
N133 C138 1.332 1_455 S
C134 C135 1.388 1_655 S
C134 C138 1.382 . S
C134 H157 0.950 . S
C135 C134 1.388 1_455 S
C135 C136 1.386 . S
C136 C135 1.386 . S
C136 C137 1.382 . S
C136 H158 0.950 . S
C137 N133 1.332 . S
C137 C136 1.382 . S
C137 H139 0.952 . S
C138 N133 1.332 1_655 S
C138 C134 1.382 . S
C138 H140 0.948 . S
H139 C137 0.952 . S
H140 C138 0.948 . S
H141 C130 0.952 . S
H142 C132 0.948 . S
C143 C109 1.395 . S
C143 C113 1.391 . S
C144 C106 1.389 1_655 S
C144 C126 1.392 . S
C145 C116 1.392 . S
C145 C118 1.389 . S
C146 C121 1.395 . S
C146 C123 1.391 . S
H147 C107 0.951 . S
H148 C108 0.950 . S
H149 C114 0.949 . S
H150 C115 0.950 . S
H151 C119 0.951 . S
H152 C120 0.950 . S
H153 C124 0.949 . S
H154 C125 0.950 . S
H155 C129 0.950 . S
H156 C131 0.950 . S
H157 C134 0.950 . S
H158 C136 0.950 . S
C159 C160 1.443 . S
C159 N163 1.376 . S
C159 C197 1.389 1_545 S
C160 C159 1.443 . S
C160 C161 1.340 . S
C160 H200 0.951 . S
C161 C160 1.340 . S
C161 C162 1.439 . S
C161 H201 0.950 . S
C162 C161 1.439 . S
C162 N163 1.374 . S
C162 C196 1.395 . S
N163 C159 1.376 . S
N163 C162 1.374 . S
N163 Co164 2.008 . S
Co164 N163 2.008 . S
Co164 N165 1.995 . S
Co164 N170 2.008 1_554 S
Co164 N175 1.995 1_545 S
Co164 N180 2.282 . S
Co164 N186 2.282 . S
N165 Co164 1.995 . S
N165 C166 1.376 . S
N165 C169 1.383 1_554 S
C166 N165 1.376 . S
C166 C167 1.446 . S
C166 C196 1.391 . S
C167 C166 1.446 . S
C167 C168 1.339 1_554 S
C167 H202 0.949 . S
C168 C167 1.339 1_556 S
C168 C169 1.439 . S
C168 H203 0.950 . S
C169 N165 1.383 1_556 S
C169 C168 1.439 . S
C169 C198 1.392 . S
N170 Co164 2.008 1_556 S
N170 C171 1.376 . S
N170 C174 1.374 1_545 S
C171 N170 1.376 . S
C171 C172 1.443 . S
C171 C198 1.389 . S
C172 C171 1.443 . S
C172 C173 1.340 1_545 S
C172 H204 0.951 . S
C173 C172 1.340 1_565 S
C173 C174 1.439 . S
C173 H205 0.950 . S
C174 N170 1.374 1_565 S
C174 C173 1.439 . S
C174 C199 1.395 . S
N175 Co164 1.995 1_565 S
N175 C176 1.376 . S
N175 C179 1.383 . S
C176 N175 1.376 . S
C176 C177 1.446 . S
C176 C199 1.391 1_554 S
C177 C176 1.446 . S
C177 C178 1.339 . S
C177 H206 0.949 . S
C178 C177 1.339 . S
C178 C179 1.439 . S
C178 H207 0.950 . S
C179 N175 1.383 . S
C179 C178 1.439 . S
C179 C197 1.392 . S
N180 Co164 2.282 . S
N180 C183 1.332 1_545 S
N180 C185 1.332 . S
C181 C182 1.386 1_545 S
C181 C184 1.388 . S
C182 C181 1.386 1_565 S
C182 C183 1.382 . S
C182 H208 0.950 . S
C183 N180 1.332 1_565 S
C183 C182 1.382 . S
C183 H194 0.952 . S
C184 C181 1.388 . S
C184 C185 1.382 . S
C184 H209 0.950 . S
C185 N180 1.332 . S
C185 C184 1.382 . S
C185 H195 0.948 . S
N186 Co164 2.282 . S
N186 C190 1.332 . S
N186 C191 1.332 1_545 S
C187 C188 1.388 1_565 S
C187 C191 1.382 . S
C187 H210 0.950 . S
C188 C187 1.388 1_545 S
C188 C189 1.386 . S
C189 C188 1.386 . S
C189 C190 1.382 . S
C189 H211 0.950 . S
C190 N186 1.332 . S
C190 C189 1.382 . S
C190 H192 0.952 . S
C191 N186 1.332 1_565 S
C191 C187 1.382 . S
C191 H193 0.948 . S
H192 C190 0.952 . S
H193 C191 0.948 . S
H194 C183 0.952 . S
H195 C185 0.948 . S
C196 C162 1.395 . S
C196 C166 1.391 . S
C197 C159 1.389 1_565 S
C197 C179 1.392 . S
C198 C169 1.392 . S
C198 C171 1.389 . S
C199 C174 1.395 . S
C199 C176 1.391 1_556 S
H200 C160 0.951 . S
H201 C161 0.950 . S
H202 C167 0.949 . S
H203 C168 0.950 . S
H204 C172 0.951 . S
H205 C173 0.950 . S
H206 C177 0.949 . S
H207 C178 0.950 . S
H208 C182 0.950 . S
H209 C184 0.950 . S
H210 C187 0.950 . S
H211 C189 0.950 . S
C212 C213 1.443 . S
C212 N216 1.376 . S
C212 C250 1.389 . S
C213 C212 1.443 . S
C213 C214 1.340 . S
C213 H253 0.951 . S
C214 C213 1.340 . S
C214 C215 1.439 . S
C214 H254 0.950 . S
C215 C214 1.439 . S
C215 N216 1.374 . S
C215 C249 1.395 . S
N216 C212 1.376 . S
N216 C215 1.374 . S
N216 Co217 2.008 . S
Co217 N216 2.008 . S
Co217 N218 1.995 . S
Co217 N223 2.008 . S
Co217 N228 1.995 . S
Co217 N233 2.282 . S
Co217 N239 2.282 . S
N218 Co217 1.995 . S
N218 C219 1.376 . S
N218 C222 1.383 . S
C219 N218 1.376 . S
C219 C220 1.446 . S
C219 C249 1.391 . S
C220 C219 1.446 . S
C220 C221 1.339 . S
C220 H255 0.949 . S
C221 C220 1.339 . S
C221 C222 1.439 . S
C221 H256 0.950 . S
C222 N218 1.383 . S
C222 C221 1.439 . S
C222 C251 1.392 . S
N223 Co217 2.008 . S
N223 C224 1.376 . S
N223 C227 1.374 . S
C224 N223 1.376 . S
C224 C225 1.443 . S
C224 C251 1.389 . S
C225 C224 1.443 . S
C225 C226 1.340 . S
C225 H257 0.951 . S
C226 C225 1.340 . S
C226 C227 1.439 . S
C226 H258 0.950 . S
C227 N223 1.374 . S
C227 C226 1.439 . S
C227 C252 1.395 . S
N228 Co217 1.995 . S
N228 C229 1.376 . S
N228 C232 1.383 . S
C229 N228 1.376 . S
C229 C230 1.446 . S
C229 C252 1.391 . S
C230 C229 1.446 . S
C230 C231 1.339 . S
C230 H259 0.949 . S
C231 C230 1.339 . S
C231 C232 1.439 . S
C231 H260 0.950 . S
C232 N228 1.383 . S
C232 C231 1.439 . S
C232 C250 1.392 . S
N233 Co217 2.282 . S
N233 C236 1.332 . S
N233 C238 1.332 . S
C234 C235 1.386 . S
C234 C237 1.388 . S
C235 C234 1.386 . S
C235 C236 1.382 . S
C235 H261 0.950 . S
C236 N233 1.332 . S
C236 C235 1.382 . S
C236 H247 0.952 . S
C237 C234 1.388 . S
C237 C238 1.382 . S
C237 H262 0.950 . S
C238 N233 1.332 . S
C238 C237 1.382 . S
C238 H248 0.948 . S
N239 Co217 2.282 . S
N239 C243 1.332 . S
N239 C244 1.332 . S
C240 C241 1.388 . S
C240 C244 1.382 1_455 S
C240 H263 0.950 . S
C241 C240 1.388 . S
C241 C242 1.386 1_455 S
C242 C241 1.386 1_655 S
C242 C243 1.382 . S
C242 H264 0.950 . S
C243 N239 1.332 . S
C243 C242 1.382 . S
C243 H245 0.952 . S
C244 N239 1.332 . S
C244 C240 1.382 1_655 S
C244 H246 0.948 . S
H245 C243 0.952 . S
H246 C244 0.948 . S
H247 C236 0.952 . S
H248 C238 0.948 . S
C249 C215 1.395 . S
C249 C219 1.391 . S
C250 C212 1.389 . S
C250 C232 1.392 . S
C251 C222 1.392 . S
C251 C224 1.389 . S
C252 C227 1.395 . S
C252 C229 1.391 . S
H253 C213 0.951 . S
H254 C214 0.950 . S
H255 C220 0.949 . S
H256 C221 0.950 . S
H257 C225 0.951 . S
H258 C226 0.950 . S
H259 C230 0.949 . S
H260 C231 0.950 . S
H261 C235 0.950 . S
H262 C237 0.950 . S
H263 C240 0.950 . S
H264 C242 0.950 . S
C265 C266 1.443 . S
C265 N269 1.376 . S
C265 C303 1.389 . S
C266 C265 1.443 . S
C266 C267 1.340 . S
C266 H306 0.951 . S
C267 C266 1.340 . S
C267 C268 1.439 . S
C267 H307 0.950 . S
C268 C267 1.439 . S
C268 N269 1.374 . S
C268 C302 1.395 . S
N269 C265 1.376 . S
N269 C268 1.374 . S
N269 Co270 2.008 . S
Co270 N269 2.008 . S
Co270 N271 1.995 . S
Co270 N276 2.008 . S
Co270 N281 1.995 . S
Co270 N286 2.282 . S
Co270 N292 2.282 . S
N271 Co270 1.995 . S
N271 C272 1.376 . S
N271 C275 1.383 . S
C272 N271 1.376 . S
C272 C273 1.446 . S
C272 C302 1.391 . S
C273 C272 1.446 . S
C273 C274 1.339 . S
C273 H308 0.949 . S
C274 C273 1.339 . S
C274 C275 1.439 . S
C274 H309 0.950 . S
C275 N271 1.383 . S
C275 C274 1.439 . S
C275 C304 1.392 . S
N276 Co270 2.008 . S
N276 C277 1.376 . S
N276 C280 1.374 . S
C277 N276 1.376 . S
C277 C278 1.443 . S
C277 C304 1.389 . S
C278 C277 1.443 . S
C278 C279 1.340 . S
C278 H310 0.951 . S
C279 C278 1.340 . S
C279 C280 1.439 . S
C279 H311 0.950 . S
C280 N276 1.374 . S
C280 C279 1.439 . S
C280 C305 1.395 . S
N281 Co270 1.995 . S
N281 C282 1.376 . S
N281 C285 1.383 . S
C282 N281 1.376 . S
C282 C283 1.446 . S
C282 C305 1.391 . S
C283 C282 1.446 . S
C283 C284 1.339 . S
C283 H312 0.949 . S
C284 C283 1.339 . S
C284 C285 1.439 . S
C284 H313 0.950 . S
C285 N281 1.383 . S
C285 C284 1.439 . S
C285 C303 1.392 . S
N286 Co270 2.282 . S
N286 C289 1.332 . S
N286 C291 1.332 . S
C287 C288 1.386 . S
C287 C290 1.388 . S
C288 C287 1.386 . S
C288 C289 1.382 . S
C288 H314 0.950 . S
C289 N286 1.332 . S
C289 C288 1.382 . S
C289 H300 0.952 . S
C290 C287 1.388 . S
C290 C291 1.382 . S
C290 H315 0.950 . S
C291 N286 1.332 . S
C291 C290 1.382 . S
C291 H301 0.948 . S
N292 Co270 2.282 . S
N292 C296 1.332 . S
N292 C297 1.332 . S
C293 C294 1.388 . S
C293 C297 1.382 1_545 S
C293 H316 0.950 . S
C294 C293 1.388 . S
C294 C295 1.386 1_545 S
C295 C294 1.386 1_565 S
C295 C296 1.382 . S
C295 H317 0.950 . S
C296 N292 1.332 . S
C296 C295 1.382 . S
C296 H298 0.952 . S
C297 N292 1.332 . S
C297 C293 1.382 1_565 S
C297 H299 0.948 . S
H298 C296 0.952 . S
H299 C297 0.948 . S
H300 C289 0.952 . S
H301 C291 0.948 . S
C302 C268 1.395 . S
C302 C272 1.391 . S
C303 C265 1.389 . S
C303 C285 1.392 . S
C304 C275 1.392 . S
C304 C277 1.389 . S
C305 C280 1.395 . S
C305 C282 1.391 . S
H306 C266 0.951 . S
H307 C267 0.950 . S
H308 C273 0.949 . S
H309 C274 0.950 . S
H310 C278 0.951 . S
H311 C279 0.950 . S
H312 C283 0.949 . S
H313 C284 0.950 . S
H314 C288 0.950 . S
H315 C290 0.950 . S
H316 C293 0.950 . S
H317 C295 0.950 . S
H318 C319 0.951 . S
C319 H318 0.951 . S
C319 C325 1.265 . S
H320 C325 0.950 . S
H321 C329 0.949 . S
H322 C330 0.950 . S
H323 C331 0.951 . S
H324 C332 0.951 . S
C325 C319 1.265 . S
C325 H320 0.950 . S
C325 C326 1.478 . S
C326 C325 1.478 . S
C326 C327 1.397 . S
C326 C343 1.394 . S
C327 C326 1.397 . S
C327 C328 1.438 . S
C327 C332 1.429 . S
C328 C327 1.438 . S
C328 C329 1.428 . S
C328 C341 1.394 . S
C329 H321 0.949 . S
C329 C328 1.428 . S
C329 C330 1.345 . S
C330 H322 0.950 . S
C330 C329 1.345 . S
C330 C331 1.424 . S
C331 H323 0.951 . S
C331 C330 1.424 . S
C331 C332 1.347 . S
C332 H324 0.951 . S
C332 C327 1.429 . S
C332 C331 1.347 . S
H333 C334 0.951 . S
C334 H333 0.951 . S
C334 C340 1.265 . S
H335 C340 0.950 . S
H336 C344 0.949 . S
H337 C345 0.950 . S
H338 C346 0.951 . S
H339 C347 0.951 . S
C340 C334 1.265 . S
C340 H335 0.950 . S
C340 C341 1.478 . S
C341 C328 1.394 . S
C341 C340 1.478 . S
C341 C342 1.397 . S
C342 C341 1.397 . S
C342 C343 1.438 . S
C342 C347 1.429 . S
C343 C326 1.394 . S
C343 C342 1.438 . S
C343 C344 1.428 . S
C344 H336 0.949 . S
C344 C343 1.428 . S
C344 C345 1.345 . S
C345 H337 0.950 . S
C345 C344 1.345 . S
C345 C346 1.424 . S
C346 H338 0.951 . S
C346 C345 1.424 . S
C346 C347 1.347 . S
C347 H339 0.951 . S
C347 C342 1.429 . S
C347 C346 1.347 . S
H348 C349 0.951 . S
C349 H348 0.951 . S
C349 C355 1.265 . S
H350 C355 0.950 . S
H351 C359 0.949 . S
H352 C360 0.950 . S
H353 C361 0.951 . S
H354 C362 0.951 . S
C355 C349 1.265 . S
C355 H350 0.950 . S
C355 C356 1.478 . S
C356 C355 1.478 . S
C356 C357 1.397 . S
C356 C373 1.394 . S
C357 C356 1.397 . S
C357 C358 1.438 . S
C357 C362 1.429 . S
C358 C357 1.438 . S
C358 C359 1.428 . S
C358 C371 1.394 . S
C359 H351 0.949 . S
C359 C358 1.428 . S
C359 C360 1.345 . S
C360 H352 0.950 . S
C360 C359 1.345 . S
C360 C361 1.424 . S
C361 H353 0.951 . S
C361 C360 1.424 . S
C361 C362 1.347 . S
C362 H354 0.951 . S
C362 C357 1.429 . S
C362 C361 1.347 . S
H363 C364 0.951 . S
C364 H363 0.951 . S
C364 C370 1.265 . S
H365 C370 0.950 . S
H366 C374 0.949 . S
H367 C375 0.950 . S
H368 C376 0.951 . S
H369 C377 0.951 . S
C370 C364 1.265 . S
C370 H365 0.950 . S
C370 C371 1.478 . S
C371 C358 1.394 . S
C371 C370 1.478 . S
C371 C372 1.397 . S
C372 C371 1.397 . S
C372 C373 1.438 . S
C372 C377 1.429 . S
C373 C356 1.394 . S
C373 C372 1.438 . S
C373 C374 1.428 . S
C374 H366 0.949 . S
C374 C373 1.428 . S
C374 C375 1.345 . S
C375 H367 0.950 . S
C375 C374 1.345 . S
C375 C376 1.424 . S
C376 H368 0.951 . S
C376 C375 1.424 . S
C376 C377 1.347 . S
C377 H369 0.951 . S
C377 C372 1.429 . S
C377 C376 1.347 . S
H378 C379 0.951 . S
C379 H378 0.951 . S
C379 C385 1.265 . S
H380 C385 0.950 . S
H381 C389 0.949 . S
H382 C390 0.950 . S
H383 C391 0.951 . S
H384 C392 0.951 . S
C385 C379 1.265 . S
C385 H380 0.950 . S
C385 C386 1.478 . S
C386 C385 1.478 . S
C386 C387 1.397 . S
C386 C403 1.394 . S
C387 C386 1.397 . S
C387 C388 1.438 . S
C387 C392 1.429 . S
C388 C387 1.438 . S
C388 C389 1.428 . S
C388 C401 1.394 . S
C389 H381 0.949 . S
C389 C388 1.428 . S
C389 C390 1.345 . S
C390 H382 0.950 . S
C390 C389 1.345 . S
C390 C391 1.424 . S
C391 H383 0.951 . S
C391 C390 1.424 . S
C391 C392 1.347 . S
C392 H384 0.951 . S
C392 C387 1.429 . S
C392 C391 1.347 . S
H393 C394 0.951 . S
C394 H393 0.951 . S
C394 C400 1.265 . S
H395 C400 0.950 . S
H396 C404 0.949 . S
H397 C405 0.950 . S
H398 C406 0.951 . S
H399 C407 0.951 . S
C400 C394 1.265 . S
C400 H395 0.950 . S
C400 C401 1.478 . S
C401 C388 1.394 . S
C401 C400 1.478 . S
C401 C402 1.397 . S
C402 C401 1.397 . S
C402 C403 1.438 . S
C402 C407 1.429 . S
C403 C386 1.394 . S
C403 C402 1.438 . S
C403 C404 1.428 . S
C404 H396 0.949 . S
C404 C403 1.428 . S
C404 C405 1.345 . S
C405 H397 0.950 . S
C405 C404 1.345 . S
C405 C406 1.424 . S
C406 H398 0.951 . S
C406 C405 1.424 . S
C406 C407 1.347 . S
C407 H399 0.951 . S
C407 C402 1.429 . S
C407 C406 1.347 . S
H408 C409 0.951 . S
C409 H408 0.951 . S
C409 C415 1.265 . S
H410 C415 0.950 . S
H411 C419 0.949 . S
H412 C420 0.950 . S
H413 C421 0.951 . S
H414 C422 0.951 . S
C415 C409 1.265 . S
C415 H410 0.950 . S
C415 C416 1.478 . S
C416 C415 1.478 . S
C416 C417 1.397 . S
C416 C433 1.394 . S
C417 C416 1.397 . S
C417 C418 1.438 . S
C417 C422 1.429 . S
C418 C417 1.438 . S
C418 C419 1.428 . S
C418 C431 1.394 . S
C419 H411 0.949 . S
C419 C418 1.428 . S
C419 C420 1.345 . S
C420 H412 0.950 . S
C420 C419 1.345 . S
C420 C421 1.424 . S
C421 H413 0.951 . S
C421 C420 1.424 . S
C421 C422 1.347 . S
C422 H414 0.951 . S
C422 C417 1.429 . S
C422 C421 1.347 . S
H423 C424 0.951 . S
C424 H423 0.951 . S
C424 C430 1.265 . S
H425 C430 0.950 . S
H426 C434 0.949 . S
H427 C435 0.950 . S
H428 C436 0.951 . S
H429 C437 0.951 . S
C430 C424 1.265 . S
C430 H425 0.950 . S
C430 C431 1.478 . S
C431 C418 1.394 . S
C431 C430 1.478 . S
C431 C432 1.397 . S
C432 C431 1.397 . S
C432 C433 1.438 . S
C432 C437 1.429 . S
C433 C416 1.394 . S
C433 C432 1.438 . S
C433 C434 1.428 . S
C434 H426 0.949 . S
C434 C433 1.428 . S
C434 C435 1.345 . S
C435 H427 0.950 . S
C435 C434 1.345 . S
C435 C436 1.424 . S
C436 H428 0.951 . S
C436 C435 1.424 . S
C436 C437 1.347 . S
C437 H429 0.951 . S
C437 C432 1.429 . S
C437 C436 1.347 . S
H438 C439 0.951 . S
C439 H438 0.951 . S
C439 C445 1.265 . S
H440 C445 0.950 . S
H441 C449 0.949 . S
H442 C450 0.950 . S
H443 C451 0.951 . S
H444 C452 0.951 . S
C445 C439 1.265 . S
C445 H440 0.950 . S
C445 C446 1.478 . S
C446 C445 1.478 . S
C446 C447 1.397 . S
C446 C463 1.394 . S
C447 C446 1.397 . S
C447 C448 1.438 . S
C447 C452 1.429 . S
C448 C447 1.438 . S
C448 C449 1.428 1_455 S
C448 C461 1.394 . S
C449 H441 0.949 . S
C449 C448 1.428 1_655 S
C449 C450 1.345 . S
C450 H442 0.950 . S
C450 C449 1.345 . S
C450 C451 1.424 1_655 S
C451 H443 0.951 . S
C451 C450 1.424 1_455 S
C451 C452 1.347 . S
C452 H444 0.951 . S
C452 C447 1.429 . S
C452 C451 1.347 . S
H453 C454 0.951 . S
C454 H453 0.951 . S
C454 C460 1.265 . S
H455 C460 0.950 . S
H456 C464 0.949 . S
H457 C465 0.950 . S
H458 C466 0.951 . S
H459 C467 0.951 . S
C460 C454 1.265 . S
C460 H455 0.950 . S
C460 C461 1.478 1_655 S
C461 C448 1.394 . S
C461 C460 1.478 1_455 S
C461 C462 1.397 . S
C462 C461 1.397 . S
C462 C463 1.438 . S
C462 C467 1.429 . S
C463 C446 1.394 . S
C463 C462 1.438 . S
C463 C464 1.428 . S
C464 H456 0.949 . S
C464 C463 1.428 . S
C464 C465 1.345 . S
C465 H457 0.950 . S
C465 C464 1.345 . S
C465 C466 1.424 . S
C466 H458 0.951 . S
C466 C465 1.424 . S
C466 C467 1.347 . S
C467 H459 0.951 . S
C467 C462 1.429 . S
C467 C466 1.347 . S
H468 C469 0.951 . S
C469 H468 0.951 . S
C469 C475 1.265 . S
H470 C475 0.950 . S
H471 C479 0.949 . S
H472 C480 0.950 . S
H473 C481 0.951 . S
H474 C482 0.951 . S
C475 C469 1.265 . S
C475 H470 0.950 . S
C475 C476 1.478 . S
C476 C475 1.478 . S
C476 C477 1.397 . S
C476 C493 1.394 . S
C477 C476 1.397 . S
C477 C478 1.438 . S
C477 C482 1.429 . S
C478 C477 1.438 . S
C478 C479 1.428 1_545 S
C478 C491 1.394 . S
C479 H471 0.949 . S
C479 C478 1.428 1_565 S
C479 C480 1.345 . S
C480 H472 0.950 . S
C480 C479 1.345 . S
C480 C481 1.424 . S
C481 H473 0.951 . S
C481 C480 1.424 . S
C481 C482 1.347 1_565 S
C482 H474 0.951 . S
C482 C477 1.429 . S
C482 C481 1.347 1_545 S
H483 C484 0.951 . S
C484 H483 0.951 . S
C484 C490 1.265 . S
H485 C490 0.950 . S
H486 C494 0.949 . S
H487 C495 0.950 . S
H488 C496 0.951 . S
H489 C497 0.951 . S
C490 C484 1.265 . S
C490 H485 0.950 . S
C490 C491 1.478 1_565 S
C491 C478 1.394 . S
C491 C490 1.478 1_545 S
C491 C492 1.397 . S
C492 C491 1.397 . S
C492 C493 1.438 . S
C492 C497 1.429 . S
C493 C476 1.394 . S
C493 C492 1.438 . S
C493 C494 1.428 . S
C494 H486 0.949 . S
C494 C493 1.428 . S
C494 C495 1.345 . S
C495 H487 0.950 . S
C495 C494 1.345 . S
C495 C496 1.424 . S
C496 H488 0.951 . S
C496 C495 1.424 . S
C496 C497 1.347 . S
C497 H489 0.951 . S
C497 C492 1.429 . S
C497 C496 1.347 . S
H498 C499 0.951 . S
C499 H498 0.951 . S
C499 C505 1.265 . S
H500 C505 0.950 . S
H501 C509 0.949 . S
H502 C510 0.950 . S
H503 C511 0.951 . S
H504 C512 0.951 . S
C505 C499 1.265 . S
C505 H500 0.950 . S
C505 C506 1.478 . S
C506 C505 1.478 . S
C506 C507 1.397 . S
C506 C523 1.394 . S
C507 C506 1.397 . S
C507 C508 1.438 . S
C507 C512 1.429 . S
C508 C507 1.438 . S
C508 C509 1.428 . S
C508 C521 1.394 . S
C509 H501 0.949 . S
C509 C508 1.428 . S
C509 C510 1.345 . S
C510 H502 0.950 . S
C510 C509 1.345 . S
C510 C511 1.424 . S
C511 H503 0.951 . S
C511 C510 1.424 . S
C511 C512 1.347 . S
C512 H504 0.951 . S
C512 C507 1.429 . S
C512 C511 1.347 . S
H513 C514 0.951 1_455 S
C514 H513 0.951 1_655 S
C514 C520 1.265 1_655 S
H515 C520 0.950 . S
H516 C524 0.949 . S
H517 C525 0.950 . S
H518 C526 0.951 . S
H519 C527 0.951 . S
C520 C514 1.265 1_455 S
C520 H515 0.950 . S
C520 C521 1.478 . S
C521 C508 1.394 . S
C521 C520 1.478 . S
C521 C522 1.397 . S
C522 C521 1.397 . S
C522 C523 1.438 . S
C522 C527 1.429 1_554 S
C523 C506 1.394 . S
C523 C522 1.438 . S
C523 C524 1.428 1_554 S
C524 H516 0.949 . S
C524 C523 1.428 1_556 S
C524 C525 1.345 . S
C525 H517 0.950 . S
C525 C524 1.345 . S
C525 C526 1.424 . S
C526 H518 0.951 . S
C526 C525 1.424 . S
C526 C527 1.347 . S
C527 H519 0.951 . S
C527 C522 1.429 1_556 S
C527 C526 1.347 . S
H528 C529 0.951 1_545 S
C529 H528 0.951 1_565 S
C529 C535 1.265 1_565 S
H530 C535 0.950 . S
H531 C539 0.949 . S
H532 C540 0.950 . S
H533 C541 0.951 . S
H534 C542 0.951 . S
C535 C529 1.265 1_545 S
C535 H530 0.950 . S
C535 C536 1.478 . S
C536 C535 1.478 . S
C536 C537 1.397 . S
C536 C553 1.394 . S
C537 C536 1.397 . S
C537 C538 1.438 . S
C537 C542 1.429 . S
C538 C537 1.438 . S
C538 C539 1.428 . S
C538 C551 1.394 . S
C539 H531 0.949 . S
C539 C538 1.428 . S
C539 C540 1.345 . S
C540 H532 0.950 . S
C540 C539 1.345 . S
C540 C541 1.424 . S
C541 H533 0.951 . S
C541 C540 1.424 . S
C541 C542 1.347 . S
C542 H534 0.951 . S
C542 C537 1.429 . S
C542 C541 1.347 . S
H543 C544 0.951 . S
C544 H543 0.951 . S
C544 C550 1.265 . S
H545 C550 0.950 . S
H546 C554 0.949 . S
H547 C555 0.950 . S
H548 C556 0.951 . S
H549 C557 0.951 . S
C550 C544 1.265 . S
C550 H545 0.950 . S
C550 C551 1.478 . S
C551 C538 1.394 . S
C551 C550 1.478 . S
C551 C552 1.397 . S
C552 C551 1.397 . S
C552 C553 1.438 . S
C552 C557 1.429 . S
C553 C536 1.394 . S
C553 C552 1.438 . S
C553 C554 1.428 . S
C554 H546 0.949 . S
C554 C553 1.428 . S
C554 C555 1.345 . S
C555 H547 0.950 . S
C555 C554 1.345 . S
C555 C556 1.424 . S
C556 H548 0.951 . S
C556 C555 1.424 . S
C556 C557 1.347 . S
C557 H549 0.951 . S
C557 C552 1.429 . S
C557 C556 1.347 . S
H558 C559 0.951 . S
C559 H558 0.951 . S
C559 C565 1.265 . S
H560 C565 0.950 . S
H561 C569 0.949 . S
H562 C570 0.950 . S
H563 C571 0.951 . S
H564 C572 0.951 . S
C565 C559 1.265 . S
C565 H560 0.950 . S
C565 C566 1.478 . S
C566 C565 1.478 . S
C566 C567 1.397 . S
C566 C583 1.394 . S
C567 C566 1.397 . S
C567 C568 1.438 . S
C567 C572 1.429 . S
C568 C567 1.438 . S
C568 C569 1.428 . S
C568 C581 1.394 . S
C569 H561 0.949 . S
C569 C568 1.428 . S
C569 C570 1.345 . S
C570 H562 0.950 . S
C570 C569 1.345 . S
C570 C571 1.424 . S
C571 H563 0.951 . S
C571 C570 1.424 . S
C571 C572 1.347 . S
C572 H564 0.951 . S
C572 C567 1.429 . S
C572 C571 1.347 . S
H573 C574 0.951 . S
C574 H573 0.951 . S
C574 C580 1.265 . S
H575 C580 0.950 . S
H576 C584 0.949 . S
H577 C585 0.950 . S
H578 C586 0.951 . S
H579 C587 0.951 . S
C580 C574 1.265 . S
C580 H575 0.950 . S
C580 C581 1.478 . S
C581 C568 1.394 . S
C581 C580 1.478 . S
C581 C582 1.397 . S
C582 C581 1.397 . S
C582 C583 1.438 . S
C582 C587 1.429 . S
C583 C566 1.394 . S
C583 C582 1.438 . S
C583 C584 1.428 . S
C584 H576 0.949 . S
C584 C583 1.428 . S
C584 C585 1.345 . S
C585 H577 0.950 . S
C585 C584 1.345 . S
C585 C586 1.424 . S
C586 H578 0.951 . S
C586 C585 1.424 . S
C586 C587 1.347 . S
C587 H579 0.951 . S
C587 C582 1.429 . S
C587 C586 1.347 . S
H588 C589 0.951 1_556 S
C589 H588 0.951 1_554 S
C589 C595 1.265 . S
H590 C595 0.950 . S
H591 C599 0.949 1_556 S
H592 C600 0.946 1_556 S
H593 C601 0.951 . S
H594 C602 0.951 . S
C595 C589 1.265 . S
C595 H590 0.950 . S
C595 C596 1.478 . S
C596 C595 1.478 . S
C596 C597 1.397 . S
C596 C613 1.394 . S
C597 C596 1.397 . S
C597 C598 1.438 . S
C597 C602 1.429 . S
C598 C597 1.438 . S
C598 C599 1.428 . S
C598 C611 1.394 . S
C599 H591 0.949 1_554 S
C599 C598 1.428 . S
C599 C600 1.346 . S
C600 H592 0.946 1_554 S
C600 C599 1.346 . S
C600 C601 1.427 . S
C601 H593 0.951 . S
C601 C600 1.427 . S
C601 C602 1.347 . S
C602 H594 0.951 . S
C602 C597 1.429 . S
C602 C601 1.347 . S
H603 C604 0.951 . S
C604 H603 0.951 . S
C604 C610 1.265 . S
H605 C610 0.950 1_556 S
H606 C614 0.949 . S
H607 C615 0.950 . S
H608 C616 0.951 1_565 S
H609 C617 0.951 . S
C610 C604 1.265 . S
C610 H605 0.950 1_554 S
C610 C611 1.478 . S
C611 C598 1.394 . S
C611 C610 1.478 . S
C611 C612 1.397 . S
C612 C611 1.397 . S
C612 C613 1.438 . S
C612 C617 1.429 . S
C613 C596 1.394 . S
C613 C612 1.438 . S
C613 C614 1.428 . S
C614 H606 0.949 . S
C614 C613 1.428 . S
C614 C615 1.345 1_545 S
C615 H607 0.950 . S
C615 C614 1.345 1_565 S
C615 C616 1.424 1_565 S
C616 H608 0.951 1_545 S
C616 C615 1.424 1_545 S
C616 C617 1.347 . S
C617 H609 0.951 . S
C617 C612 1.429 . S
C617 C616 1.347 . S
H618 C619 0.951 . S
C619 H618 0.951 . S
C619 C625 1.265 . S
H620 C625 0.950 . S
H621 C629 0.949 . S
H622 C630 0.950 . S
H623 C631 0.951 . S
H624 C632 0.951 . S
C625 C619 1.265 . S
C625 H620 0.950 . S
C625 C626 1.478 . S
C626 C625 1.478 . S
C626 C627 1.397 . S
C626 C643 1.394 . S
C627 C626 1.397 . S
C627 C628 1.438 . S
C627 C632 1.429 . S
C628 C627 1.438 . S
C628 C629 1.428 . S
C628 C641 1.394 . S
C629 H621 0.949 . S
C629 C628 1.428 . S
C629 C630 1.345 . S
C630 H622 0.950 . S
C630 C629 1.345 . S
C630 C631 1.424 . S
C631 H623 0.951 . S
C631 C630 1.424 . S
C631 C632 1.347 . S
C632 H624 0.951 . S
C632 C627 1.429 . S
C632 C631 1.347 . S
H633 C634 0.951 . S
C634 H633 0.951 . S
C634 C640 1.265 . S
H635 C640 0.950 . S
H636 C644 0.949 . S
H637 C645 0.950 . S
H638 C646 0.951 . S
H639 C647 0.951 . S
C640 C634 1.265 . S
C640 H635 0.950 . S
C640 C641 1.478 . S
C641 C628 1.394 . S
C641 C640 1.478 . S
C641 C642 1.397 . S
C642 C641 1.397 . S
C642 C643 1.438 . S
C642 C647 1.429 . S
C643 C626 1.394 . S
C643 C642 1.438 . S
C643 C644 1.428 . S
C644 H636 0.949 . S
C644 C643 1.428 . S
C644 C645 1.345 . S
C645 H637 0.950 . S
C645 C644 1.345 . S
C645 C646 1.424 . S
C646 H638 0.951 . S
C646 C645 1.424 . S
C646 C647 1.347 . S
C647 H639 0.951 . S
C647 C642 1.429 . S
C647 C646 1.347 . S
H648 C649 0.951 . S
C649 H648 0.951 . S
C649 C655 1.265 . S
H650 C655 0.950 . S
H651 C659 0.949 . S
H652 C660 0.950 . S
H653 C661 0.951 . S
H654 C662 0.951 . S
C655 C649 1.265 . S
C655 H650 0.950 . S
C655 C656 1.478 . S
C656 C655 1.478 . S
C656 C657 1.397 . S
C656 C673 1.394 . S
C657 C656 1.397 . S
C657 C658 1.438 . S
C657 C662 1.429 . S
C658 C657 1.438 . S
C658 C659 1.428 . S
C658 C671 1.394 . S
C659 H651 0.949 . S
C659 C658 1.428 . S
C659 C660 1.345 . S
C660 H652 0.950 . S
C660 C659 1.345 . S
C660 C661 1.424 . S
C661 H653 0.951 . S
C661 C660 1.424 . S
C661 C662 1.347 . S
C662 H654 0.951 . S
C662 C657 1.429 . S
C662 C661 1.347 . S
H663 C664 0.951 . S
C664 H663 0.951 . S
C664 C670 1.265 . S
H665 C670 0.950 . S
H666 C674 0.949 . S
H667 C675 0.950 . S
H668 C676 0.951 . S
H669 C677 0.951 . S
C670 C664 1.265 . S
C670 H665 0.950 . S
C670 C671 1.478 . S
C671 C658 1.394 . S
C671 C670 1.478 . S
C671 C672 1.397 . S
C672 C671 1.397 . S
C672 C673 1.438 . S
C672 C677 1.429 . S
C673 C656 1.394 . S
C673 C672 1.438 . S
C673 C674 1.428 . S
C674 H666 0.949 . S
C674 C673 1.428 . S
C674 C675 1.345 . S
C675 H667 0.950 . S
C675 C674 1.345 . S
C675 C676 1.424 . S
C676 H668 0.951 . S
C676 C675 1.424 . S
C676 C677 1.347 . S
C677 H669 0.951 . S
C677 C672 1.429 . S
C677 C676 1.347 . S
C319 C38 1.927 . S
C334 C92 1.847 . S
C349 C91 1.912 . S
C364 C145 1.841 . S
C379 C198 1.899 . S
C394 C144 1.914 . S
C409 C197 1.927 . S
C424 C251 1.876 . S
C439 C304 1.837 . S
C454 C250 1.914 . S
C469 C39 1.833 . S
C484 C303 1.916 . S
C499 C29 1.586 . S
C514 C188 1.581 . S
C529 C241 1.585 . S
C544 C82 1.586 . S
C559 C135 1.586 . S
C574 C294 1.586 . S
C589 C181 1.944 . S
C604 C22 1.930 . S
C619 C234 1.894 . S
C634 C75 1.887 . S
C649 C287 1.950 . S
C664 C128 1.951 . S
