# Generated by pormake.
# Topology uoy, (4)-cn, num edge types: 1
# Building blocks:
#     Node 0, Type 0, BuildingBlock: ICAMEG_clean_sbu_1, # of connection points: 4
#     Node 1, Type 0, BuildingBlock: ICAMEG_clean_sbu_1, # of connection points: 4
#     Node 2, Type 0, BuildingBlock: ICAMEG_clean_sbu_1, # of connection points: 4
#     Node 3, Type 0, BuildingBlock: ICAMEG_clean_sbu_1, # of connection points: 4
#     Node 4, Type 0, BuildingBlock: ICAMEG_clean_sbu_1, # of connection points: 4
#     Node 5, Type 0, BuildingBlock: ICAMEG_clean_sbu_1, # of connection points: 4
#     Node 6, Type 0, BuildingBlock: ICAMEG_clean_sbu_1, # of connection points: 4
#     Node 7, Type 0, BuildingBlock: ICAMEG_clean_sbu_1, # of connection points: 4
#     Node 8, Type 0, BuildingBlock: ICAMEG_clean_sbu_1, # of connection points: 4
#     Node 9, Type 0, BuildingBlock: ICAMEG_clean_sbu_1, # of connection points: 4
#     Node 10, Type 0, BuildingBlock: ICAMEG_clean_sbu_1, # of connection points: 4
#     Node 11, Type 0, BuildingBlock: ICAMEG_clean_sbu_1, # of connection points: 4
#     Node 12, Type 0, BuildingBlock: ICAMEG_clean_sbu_1, # of connection points: 4
#     Node 13, Type 0, BuildingBlock: ICAMEG_clean_sbu_1, # of connection points: 4
#     Node 14, Type 0, BuildingBlock: ICAMEG_clean_sbu_1, # of connection points: 4
#     Node 15, Type 0, BuildingBlock: ICAMEG_clean_sbu_1, # of connection points: 4
#     Edge 16, Type (0, 0), BuildingBlock: TEMPAE_clean_linker_10, # of connection points: 2
#     Edge 17, Type (0, 0), BuildingBlock: TEMPAE_clean_linker_10, # of connection points: 2
#     Edge 18, Type (0, 0), BuildingBlock: TEMPAE_clean_linker_10, # of connection points: 2
#     Edge 19, Type (0, 0), BuildingBlock: TEMPAE_clean_linker_10, # of connection points: 2
#     Edge 20, Type (0, 0), BuildingBlock: TEMPAE_clean_linker_10, # of connection points: 2
#     Edge 21, Type (0, 0), BuildingBlock: TEMPAE_clean_linker_10, # of connection points: 2
#     Edge 22, Type (0, 0), BuildingBlock: TEMPAE_clean_linker_10, # of connection points: 2
#     Edge 23, Type (0, 0), BuildingBlock: TEMPAE_clean_linker_10, # of connection points: 2
#     Edge 24, Type (0, 0), BuildingBlock: TEMPAE_clean_linker_10, # of connection points: 2
#     Edge 25, Type (0, 0), BuildingBlock: TEMPAE_clean_linker_10, # of connection points: 2
#     Edge 26, Type (0, 0), BuildingBlock: TEMPAE_clean_linker_10, # of connection points: 2
#     Edge 27, Type (0, 0), BuildingBlock: TEMPAE_clean_linker_10, # of connection points: 2
#     Edge 28, Type (0, 0), BuildingBlock: TEMPAE_clean_linker_10, # of connection points: 2
#     Edge 29, Type (0, 0), BuildingBlock: TEMPAE_clean_linker_10, # of connection points: 2
#     Edge 30, Type (0, 0), BuildingBlock: TEMPAE_clean_linker_10, # of connection points: 2
#     Edge 31, Type (0, 0), BuildingBlock: TEMPAE_clean_linker_10, # of connection points: 2
#     Edge 32, Type (0, 0), BuildingBlock: TEMPAE_clean_linker_10, # of connection points: 2
#     Edge 33, Type (0, 0), BuildingBlock: TEMPAE_clean_linker_10, # of connection points: 2
#     Edge 34, Type (0, 0), BuildingBlock: TEMPAE_clean_linker_10, # of connection points: 2
#     Edge 35, Type (0, 0), BuildingBlock: TEMPAE_clean_linker_10, # of connection points: 2
#     Edge 36, Type (0, 0), BuildingBlock: TEMPAE_clean_linker_10, # of connection points: 2
#     Edge 37, Type (0, 0), BuildingBlock: TEMPAE_clean_linker_10, # of connection points: 2
#     Edge 38, Type (0, 0), BuildingBlock: TEMPAE_clean_linker_10, # of connection points: 2
#     Edge 39, Type (0, 0), BuildingBlock: TEMPAE_clean_linker_10, # of connection points: 2
#     Edge 40, Type (0, 0), BuildingBlock: TEMPAE_clean_linker_10, # of connection points: 2
#     Edge 41, Type (0, 0), BuildingBlock: TEMPAE_clean_linker_10, # of connection points: 2
#     Edge 42, Type (0, 0), BuildingBlock: TEMPAE_clean_linker_10, # of connection points: 2
#     Edge 43, Type (0, 0), BuildingBlock: TEMPAE_clean_linker_10, # of connection points: 2
#     Edge 44, Type (0, 0), BuildingBlock: TEMPAE_clean_linker_10, # of connection points: 2
#     Edge 45, Type (0, 0), BuildingBlock: TEMPAE_clean_linker_10, # of connection points: 2
#     Edge 46, Type (0, 0), BuildingBlock: TEMPAE_clean_linker_10, # of connection points: 2
#     Edge 47, Type (0, 0), BuildingBlock: TEMPAE_clean_linker_10, # of connection points: 2
# Relax obj value: 0.022
# Max RMSD: 0.075
# Mean RMSD: 0.075
data_MOF--net-uoy--node1-ICAMEG_clean_sbu_1--edge1-TEMPAE_clean_linker_10
_symmetry_space_group_name_H-M    P1
_symmetry_Int_Tables_number       1
_symmetry_cell_setting            triclinic
loop_
_symmetry_equiv_pos_as_xyz
'x, y, z'
_cell_length_a     29.450839
_cell_length_b     29.455675
_cell_length_c     118.49575
_cell_angle_alpha  89.992601
_cell_angle_beta   89.990152
_cell_angle_gamma 89.993354
loop_
_atom_site_label
_atom_site_type_symbol
_atom_site_fract_x
_atom_site_fract_y
_atom_site_fract_z
_atom_type_partial_charge
Co0 Co 0.29299 0.15958 0.18853 0.0
Co1 Co 0.24563 0.05655 0.19598 0.0
O2 O 0.24452 0.11413 0.18767 0.0
C3 C 0.31698 0.17436 0.16455 0.0
O4 O 0.35874 0.16353 0.16736 0.0
C5 C 0.1564 0.05411 0.20733 0.0
O6 O 0.17853 0.05073 0.21692 0.0
O7 O 0.25706 0.08959 0.21044 0.0
O8 O 0.3003 0.14901 0.20511 0.0
H9 H 0.30706 0.94504 0.22423 0.0
H10 H 0.20397 0.18367 0.17851 0.0
O11 O 0.28539 0.17195 0.17191 0.0
H12 H 0.22533 0.29062 0.21008 0.0
H13 H 0.36683 0.31049 0.1802 0.0
H14 H 0.38346 0.16279 0.19937 0.0
H15 H 0.28386 0.23349 0.20565 0.0
H16 H 0.30559 0.25349 0.17931 0.0
O17 O 0.1782 0.06099 0.19818 0.0
H18 H 0.30492 0.01703 0.21362 0.0
H19 H 0.1879 0.97273 0.19582 0.0
H20 H 0.44551 0.21886 0.20049 0.0
H21 H 0.14485 0.24076 0.18254 0.0
H22 H 0.4374 0.29332 0.19085 0.0
H23 H 0.1553 0.29467 0.19844 0.0
O24 O 0.33984 0.11207 0.18521 0.0
H25 H 0.16796 0.02979 0.1588 0.0
H26 H 0.28876 0.97709 0.18446 0.0
H27 H 0.27683 0.93774 0.16635 0.0
H28 H 0.21589 0.96389 0.1534 0.0
H29 H 0.18147 0.06861 0.17693 0.0
H30 H 0.18869 0.90031 0.20625 0.0
H31 H 0.2486 0.88607 0.22057 0.0
O32 O 0.31199 0.0502 0.19376 0.0
C33 C 0.28236 0.1237 0.21263 0.0
C34 C 0.28073 0.95087 0.21802 0.0
C35 C 0.21432 0.92575 0.20793 0.0
N36 N 0.24625 0.99924 0.20414 0.0
C37 C 0.27932 0.99161 0.212 0.0
C38 C 0.21403 0.96686 0.20205 0.0
C39 C 0.24794 0.91779 0.21596 0.0
C40 C 0.20888 0.2072 0.1854 0.0
N41 N 0.24735 0.20527 0.19183 0.0
C42 C 0.17524 0.23937 0.18766 0.0
C43 C 0.1811 0.26959 0.19659 0.0
C44 C 0.22037 0.26732 0.20313 0.0
C45 C 0.2533 0.23475 0.20061 0.0
C46 C 0.37075 0.27818 0.18444 0.0
C47 C 0.37965 0.19516 0.19517 0.0
C48 C 0.3362 0.24578 0.18397 0.0
N49 N 0.34092 0.20486 0.1893 0.0
C50 C 0.4149 0.22676 0.19583 0.0
C51 C 0.41034 0.26852 0.19042 0.0
C52 C 0.34372 0.07125 0.1887 0.0
C53 C 0.19453 0.01799 0.16439 0.0
C54 C 0.26238 0.98893 0.17885 0.0
C55 C 0.25568 0.96638 0.16862 0.0
C56 C 0.22146 0.98105 0.16136 0.0
N57 N 0.23563 0.02497 0.1818 0.0
C58 C 0.20223 0.03973 0.17469 0.0
Co59 Co 0.83623 0.79884 0.43971 0.0
Co60 Co 0.94228 0.75559 0.44562 0.0
O61 O 0.88307 0.75142 0.4379 0.0
C62 C 0.83836 0.78489 0.41461 0.0
O63 O 0.88274 0.7809 0.41484 0.0
C64 C 0.92017 0.6546 0.44577 0.0
O65 O 0.87997 0.66046 0.44123 0.0
O66 O 0.91114 0.7616 0.46045 0.0
O67 O 0.85289 0.80754 0.45598 0.0
H68 H 0.05319 0.82339 0.47311 0.0
H69 H 0.81008 0.7091 0.43052 0.0
O70 O 0.81622 0.79148 0.42368 0.0
H71 H 0.71533 0.7299 0.46444 0.0
H72 H 0.6821 0.86971 0.43408 0.0
H73 H 0.83443 0.88921 0.45065 0.0
H74 H 0.76932 0.78927 0.45852 0.0
H75 H 0.73981 0.80954 0.43223 0.0
O76 O 0.94576 0.68831 0.44789 0.0
H77 H 0.98026 0.81722 0.46302 0.0
H78 H 0.02891 0.7026 0.44493 0.0
H79 H 0.77756 0.95008 0.4528 0.0
H80 H 0.75613 0.649 0.43606 0.0
H81 H 0.70076 0.94053 0.44447 0.0
H82 H 0.70839 0.65916 0.45316 0.0
O83 O 0.88043 0.84661 0.43496 0.0
H84 H 0.96919 0.68849 0.40709 0.0
H85 H 0.01778 0.80532 0.4343 0.0
H86 H 0.05606 0.8 0.41587 0.0
H87 H 0.032 0.74108 0.40212 0.0
H88 H 0.93136 0.6955 0.4255 0.0
H89 H 0.10217 0.70722 0.45492 0.0
H90 H 0.11478 0.76808 0.46909 0.0
O91 O 0.94292 0.82267 0.44385 0.0
C92 C 0.87836 0.7877 0.46314 0.0
C93 C 0.04814 0.79676 0.46694 0.0
C94 C 0.07561 0.73155 0.45674 0.0
N95 N 1.00031 0.75976 0.45335 0.0
C96 C 0.00692 0.79315 0.46119 0.0
C97 C 0.03397 0.72903 0.45114 0.0
C98 C 0.08267 0.76571 0.46468 0.0
C99 C 0.78933 0.71378 0.43795 0.0
N100 N 0.79314 0.75244 0.44424 0.0
C101 C 0.75888 0.67963 0.44105 0.0
C102 C 0.73212 0.68534 0.45065 0.0
C103 C 0.73601 0.725 0.45699 0.0
C104 C 0.76683 0.7584 0.45363 0.0
C105 C 0.71542 0.87425 0.43776 0.0
C106 C 0.801 0.8847 0.44706 0.0
C107 C 0.74831 0.84035 0.43671 0.0
N108 N 0.79042 0.84575 0.44138 0.0
C109 C 0.76898 0.91933 0.44828 0.0
C110 C 0.72591 0.91397 0.44359 0.0
C111 C 0.9208 0.85286 0.43851 0.0
C112 C 0.98025 0.71406 0.41304 0.0
C113 C 0.00699 0.7796 0.42838 0.0
C114 C 0.02888 0.77672 0.41795 0.0
C115 C 0.0154 0.74365 0.41025 0.0
N116 N 0.97274 0.7502 0.43111 0.0
C117 C 0.95915 0.71794 0.42355 0.0
Co118 Co 0.20946 0.34144 0.68819 0.0
Co119 Co 0.24425 0.44648 0.69718 0.0
O120 O 0.25356 0.39154 0.68803 0.0
C121 C 0.21671 0.35085 0.66299 0.0
O122 O 0.20217 0.39295 0.66355 0.0
C123 C 0.34611 0.43005 0.69767 0.0
O124 O 0.34195 0.39027 0.69281 0.0
O125 O 0.2386 0.40878 0.71109 0.0
O126 O 0.19539 0.35202 0.70453 0.0
H127 H 0.16595 0.53969 0.72691 0.0
H128 H 0.3022 0.32337 0.6796 0.0
O129 O 0.22262 0.32782 0.67196 0.0
H130 H 0.28194 0.2182 0.71158 0.0
H131 H 0.15177 0.18542 0.67828 0.0
H132 H 0.11712 0.32936 0.6977 0.0
H133 H 0.22033 0.26999 0.70593 0.0
H134 H 0.20758 0.24777 0.6785 0.0
O135 O 0.31118 0.45378 0.69998 0.0
H136 H 0.17842 0.47216 0.71502 0.0
H137 H 0.29055 0.53651 0.69911 0.0
H138 H 0.06053 0.26769 0.69778 0.0
H139 H 0.36456 0.27161 0.68485 0.0
H140 H 0.0777 0.19508 0.68801 0.0
H141 H 0.35471 0.21867 0.70098 0.0
O142 O 0.15971 0.38405 0.68381 0.0
H143 H 0.31201 0.49194 0.65983 0.0
H144 H 0.1909 0.52323 0.68748 0.0
H145 H 0.19503 0.56856 0.67004 0.0
H146 H 0.25606 0.5532 0.65609 0.0
H147 H 0.30633 0.4471 0.6773 0.0
H148 H 0.27955 0.60454 0.71091 0.0
H149 H 0.21674 0.60653 0.72489 0.0
O150 O 0.17736 0.44314 0.69483 0.0
C151 C 0.21225 0.37492 0.71265 0.0
C152 C 0.19336 0.53929 0.72082 0.0
C153 C 0.25715 0.57566 0.71185 0.0
N154 N 0.23499 0.50042 0.70632 0.0
C155 C 0.20054 0.50117 0.71405 0.0
C156 C 0.26328 0.53697 0.70521 0.0
C157 C 0.22189 0.57676 0.71969 0.0
C158 C 0.2976 0.30034 0.68661 0.0
N159 N 0.2578 0.30013 0.69253 0.0
C160 C 0.33306 0.27115 0.68955 0.0
C161 C 0.32753 0.24149 0.69861 0.0
C162 C 0.28675 0.24127 0.70457 0.0
C163 C 0.25206 0.27095 0.70139 0.0
C164 C 0.14392 0.21687 0.68258 0.0
C165 C 0.12497 0.29779 0.69348 0.0
C166 C 0.17535 0.25237 0.68271 0.0
N167 N 0.16575 0.29212 0.68817 0.0
C168 C 0.09273 0.26302 0.69354 0.0
C169 C 0.10237 0.22231 0.68804 0.0
C170 C 0.14986 0.4219 0.68844 0.0
C171 C 0.28548 0.49921 0.66589 0.0
C172 C 0.21765 0.51632 0.68148 0.0
C173 C 0.21979 0.54215 0.67161 0.0
C174 C 0.25403 0.53351 0.66378 0.0
N175 N 0.2489 0.483 0.68355 0.0
C176 C 0.28228 0.47408 0.67586 0.0
Co177 Co 0.66415 0.70326 0.93838 0.0
Co178 Co 0.5654 0.75775 0.94495 0.0
O179 O 0.62418 0.75657 0.93712 0.0
C180 C 0.6666 0.72555 0.9137 0.0
O181 O 0.62348 0.73666 0.91403 0.0
C182 C 0.56331 0.84817 0.95572 0.0
O183 O 0.5598 0.82692 0.96543 0.0
O184 O 0.59757 0.74794 0.95958 0.0
O185 O 0.64405 0.69164 0.95429 0.0
H186 H 0.45095 0.70216 0.97321 0.0
H187 H 0.7025 0.7915 0.93116 0.0
O188 O 0.68694 0.71246 0.9226 0.0
H189 H 0.78814 0.7492 0.96535 0.0
H190 H 0.80859 0.61487 0.93232 0.0
H191 H 0.65293 0.61033 0.94761 0.0
H192 H 0.72829 0.69897 0.9579 0.0
H193 H 0.75922 0.68234 0.93126 0.0
O194 O 0.57059 0.8255 0.94672 0.0
H195 H 0.52382 0.70181 0.96297 0.0
H196 H 0.48234 0.81653 0.94384 0.0
H197 H 0.7013 0.54224 0.94893 0.0
H198 H 0.76249 0.84255 0.93826 0.0
H199 H 0.77976 0.54422 0.94125 0.0
H200 H 0.80571 0.82151 0.95548 0.0
O201 O 0.6146 0.66366 0.93262 0.0
H202 H 0.54214 0.83294 0.90733 0.0
H203 H 0.48642 0.71437 0.93323 0.0
H204 H 0.44872 0.72526 0.91487 0.0
H205 H 0.47639 0.78507 0.90179 0.0
H206 H 0.57945 0.82032 0.92569 0.0
H207 H 0.40912 0.81821 0.95391 0.0
H208 H 0.39301 0.7607 0.96871 0.0
O209 O 0.55765 0.69055 0.94317 0.0
C210 C 0.62445 0.71527 0.96188 0.0
C211 C 0.45758 0.72741 0.96678 0.0
C212 C 0.43409 0.79252 0.95595 0.0
N213 N 0.50743 0.75911 0.95282 0.0
C214 C 0.4988 0.7274 0.96096 0.0
C215 C 0.47564 0.7914 0.95028 0.0
C216 C 0.42508 0.76026 0.96425 0.0
C217 C 0.7214 0.782 0.93862 0.0
N218 N 0.71206 0.74222 0.94407 0.0
C219 C 0.75523 0.81108 0.94261 0.0
C220 C 0.77944 0.79928 0.95228 0.0
C221 C 0.76959 0.75872 0.95783 0.0
C222 C 0.73557 0.73047 0.95358 0.0
C223 C 0.7745 0.61361 0.93572 0.0
C224 C 0.6871 0.61158 0.9443 0.0
C225 C 0.74633 0.65168 0.93512 0.0
N226 N 0.70329 0.6504 0.93943 0.0
C227 C 0.71431 0.57286 0.94505 0.0
C228 C 0.7583 0.57398 0.94073 0.0
C229 C 0.57498 0.66001 0.93687 0.0
C230 C 0.52969 0.80685 0.91296 0.0
C231 C 0.49903 0.74015 0.92755 0.0
C232 C 0.47736 0.74632 0.91718 0.0
C233 C 0.49286 0.77992 0.90985 0.0
N234 N 0.53513 0.76673 0.93055 0.0
C235 C 0.55054 0.79969 0.9234 0.0
Co236 Co 0.29622 0.34266 0.06652 0.0
Co237 Co 0.25638 0.44562 0.05801 0.0
O238 O 0.24969 0.39049 0.0672 0.0
C239 C 0.2874 0.34927 0.09166 0.0
O240 O 0.29776 0.3926 0.09118 0.0
C241 C 0.15444 0.42888 0.059 0.0
O242 O 0.1593 0.39014 0.06433 0.0
O243 O 0.25934 0.4074 0.04415 0.0
O244 O 0.31001 0.35638 0.05027 0.0
H245 H 0.32757 0.53943 0.02731 0.0
H246 H 0.20446 0.31849 0.07479 0.0
O247 O 0.28388 0.32611 0.08263 0.0
H248 H 0.23031 0.22046 0.04168 0.0
H249 H 0.36174 0.18842 0.07503 0.0
H250 H 0.38929 0.33686 0.05704 0.0
H251 H 0.28924 0.27421 0.04797 0.0
H252 H 0.30276 0.24782 0.07529 0.0
O253 O 0.18897 0.45192 0.05601 0.0
H254 H 0.31834 0.47193 0.03939 0.0
H255 H 0.20833 0.5349 0.05652 0.0
H256 H 0.44903 0.27826 0.05649 0.0
H257 H 0.14475 0.26482 0.06887 0.0
H258 H 0.43544 0.2034 0.06554 0.0
H259 H 0.15747 0.21541 0.05218 0.0
O260 O 0.34328 0.38726 0.07129 0.0
H261 H 0.19651 0.49034 0.09624 0.0
H262 H 0.31007 0.52384 0.06684 0.0
H263 H 0.30897 0.56946 0.08425 0.0
H264 H 0.25174 0.553 0.09909 0.0
H265 H 0.19914 0.44524 0.07879 0.0
H266 H 0.21603 0.60284 0.04452 0.0
H267 H 0.27616 0.60552 0.02983 0.0
O268 O 0.32401 0.44345 0.05956 0.0
C269 C 0.28859 0.37633 0.04234 0.0
C270 C 0.30131 0.53872 0.0337 0.0
C271 C 0.23869 0.57429 0.04335 0.0
N272 N 0.26303 0.4995 0.0487 0.0
C273 C 0.29598 0.50061 0.04059 0.0
C274 C 0.2344 0.53563 0.05009 0.0
C275 C 0.27243 0.57577 0.03511 0.0
C276 C 0.21029 0.29697 0.06755 0.0
N277 N 0.2502 0.29964 0.06172 0.0
C278 C 0.17634 0.2667 0.06422 0.0
C279 C 0.18348 0.23902 0.05485 0.0
C280 C 0.22433 0.24186 0.04895 0.0
C281 C 0.2575 0.27253 0.05253 0.0
C282 C 0.36804 0.22088 0.07104 0.0
C283 C 0.38299 0.3043 0.06094 0.0
C284 C 0.33481 0.2547 0.07119 0.0
N285 N 0.34244 0.29571 0.06612 0.0
C286 C 0.41701 0.27128 0.06063 0.0
C287 C 0.40938 0.2293 0.06571 0.0
C288 C 0.35187 0.42474 0.06635 0.0
C289 C 0.22136 0.49811 0.08979 0.0
C290 C 0.28492 0.51647 0.07322 0.0
C291 C 0.28451 0.54245 0.08308 0.0
C292 C 0.25241 0.53319 0.0914 0.0
N293 N 0.25403 0.48237 0.07164 0.0
C294 C 0.22279 0.47284 0.07983 0.0
Co295 Co 0.66537 0.79435 0.31683 0.0
Co296 Co 0.55923 0.75593 0.30849 0.0
O297 O 0.61523 0.7497 0.31761 0.0
C298 C 0.65957 0.77005 0.34182 0.0
O299 O 0.62389 0.744 0.34042 0.0
C300 C 0.57833 0.65428 0.30848 0.0
O301 O 0.61787 0.65922 0.31342 0.0
O302 O 0.59556 0.7614 0.29436 0.0
O303 O 0.65691 0.80034 0.30012 0.0
H304 H 0.46106 0.82818 0.27879 0.0
H305 H 0.67994 0.70266 0.32693 0.0
O306 O 0.6773 0.79084 0.3335 0.0
H307 H 0.79631 0.71716 0.29729 0.0
H308 H 0.81867 0.86002 0.32648 0.0
H309 H 0.67748 0.88156 0.30476 0.0
H310 H 0.74303 0.77974 0.30109 0.0
H311 H 0.75758 0.80293 0.32729 0.0
O312 O 0.55409 0.68869 0.30607 0.0
H313 H 0.52973 0.81935 0.29047 0.0
H314 H 0.47086 0.7061 0.30716 0.0
H315 H 0.73803 0.9392 0.3036 0.0
H316 H 0.73307 0.63965 0.32363 0.0
H317 H 0.80923 0.92864 0.31453 0.0
H318 H 0.79172 0.64646 0.30866 0.0
O319 O 0.62215 0.84532 0.31974 0.0
H320 H 0.51434 0.6877 0.34585 0.0
H321 H 0.48254 0.80898 0.3183 0.0
H322 H 0.4373 0.80452 0.33574 0.0
H323 H 0.45289 0.7434 0.34965 0.0
H324 H 0.55923 0.69385 0.32841 0.0
H325 H 0.40173 0.71347 0.29559 0.0
H326 H 0.39641 0.77497 0.28131 0.0
O327 O 0.56029 0.82281 0.31034 0.0
C328 C 0.63159 0.78412 0.29237 0.0
C329 C 0.46293 0.80128 0.28499 0.0
C330 C 0.42966 0.73688 0.29441 0.0
N331 N 0.50439 0.76232 0.29951 0.0
C332 C 0.50173 0.79613 0.29164 0.0
C333 C 0.46899 0.73279 0.30092 0.0
C334 C 0.42669 0.7714 0.2864 0.0
C335 C 0.70545 0.70625 0.32048 0.0
N336 N 0.70794 0.74494 0.31415 0.0
C337 C 0.73543 0.67026 0.31861 0.0
C338 C 0.76826 0.67406 0.3102 0.0
C339 C 0.77078 0.71365 0.3038 0.0
C340 C 0.7402 0.74888 0.30592 0.0
C341 C 0.78784 0.86497 0.32167 0.0
C342 C 0.70851 0.87653 0.30947 0.0
C343 C 0.75303 0.83283 0.32212 0.0
N344 N 0.71407 0.83872 0.31601 0.0
C345 C 0.74262 0.90937 0.30881 0.0
C346 C 0.78253 0.90345 0.31495 0.0
C347 C 0.5829 0.85279 0.31561 0.0
C348 C 0.50704 0.71435 0.33983 0.0
C349 C 0.48979 0.78237 0.32431 0.0
C350 C 0.46391 0.77996 0.33417 0.0
C351 C 0.47264 0.74565 0.34197 0.0
N352 N 0.52338 0.75139 0.32223 0.0
C353 C 0.53222 0.71781 0.32987 0.0
Co354 Co 0.20914 0.15826 0.56668 0.0
Co355 Co 0.24843 0.05647 0.55675 0.0
O356 O 0.2548 0.10956 0.56672 0.0
C357 C 0.18972 0.17205 0.59087 0.0
O358 O 0.14739 0.16242 0.58834 0.0
C359 C 0.34995 0.07444 0.55788 0.0
O360 O 0.34431 0.11267 0.56339 0.0
O361 O 0.24489 0.09732 0.54338 0.0
O362 O 0.19699 0.14968 0.55015 0.0
H363 H 0.17828 0.96902 0.52477 0.0
H364 H 0.29981 0.17905 0.57618 0.0
O365 O 0.22038 0.16897 0.58327 0.0
H366 H 0.28042 0.28571 0.54447 0.0
H367 H 0.1463 0.31275 0.5764 0.0
H368 H 0.1165 0.16724 0.55721 0.0
H369 H 0.22001 0.23118 0.54928 0.0
H370 H 0.20409 0.25217 0.57632 0.0
O371 O 0.31588 0.05117 0.55469 0.0
H372 H 0.18675 0.03376 0.53778 0.0
H373 H 0.29718 0.96801 0.55407 0.0
H374 H 0.05783 0.22697 0.55706 0.0
H375 H 0.36083 0.23355 0.57177 0.0
H376 H 0.07256 0.30035 0.56671 0.0
H377 H 0.35141 0.28729 0.55579 0.0
O378 O 0.16129 0.11273 0.57034 0.0
H379 H 0.3099 0.00306 0.59412 0.0
H380 H 0.19527 0.97618 0.56456 0.0
H381 H 0.19733 0.92638 0.58125 0.0
H382 H 0.25515 0.93947 0.59616 0.0
H383 H 0.30623 0.05242 0.57739 0.0
H384 H 0.29018 0.9028 0.54115 0.0
H385 H 0.23025 0.90292 0.52641 0.0
O386 O 0.18093 0.05776 0.5583 0.0
C387 C 0.21687 0.12986 0.54194 0.0
C388 C 0.20445 0.96851 0.53118 0.0
C389 C 0.26728 0.93137 0.54037 0.0
N390 N 0.24223 0.00462 0.54673 0.0
C391 C 0.20935 0.00504 0.53859 0.0
C392 C 0.27116 0.96848 0.54764 0.0
C393 C 0.23364 0.93145 0.5321 0.0
C394 C 0.29532 0.20252 0.56926 0.0
N395 N 0.25641 0.20179 0.56299 0.0
C396 C 0.33005 0.23322 0.56678 0.0
C397 C 0.32477 0.26332 0.5578 0.0
C398 C 0.28498 0.26241 0.55145 0.0
C399 C 0.25098 0.23124 0.55417 0.0
C400 C 0.13949 0.28094 0.57216 0.0
C401 C 0.1232 0.1991 0.56141 0.0
C402 C 0.17209 0.24651 0.57207 0.0
N403 N 0.16374 0.2062 0.56673 0.0
C404 C 0.08984 0.23279 0.5613 0.0
C405 C 0.09813 0.27396 0.56672 0.0
C406 C 0.15289 0.07584 0.56513 0.0
C407 C 0.28477 0.99679 0.58764 0.0
C408 C 0.22057 0.98219 0.571 0.0
C409 C 0.22156 0.95381 0.58043 0.0
C410 C 0.25399 0.96117 0.58879 0.0
N411 N 0.2512 0.01681 0.56986 0.0
C412 C 0.28273 0.02451 0.57809 0.0
Co413 Co 0.84895 0.70052 0.81635 0.0
Co414 Co 0.94568 0.75762 0.8095 0.0
O415 O 0.887 0.75521 0.81732 0.0
C416 C 0.84607 0.72359 0.84093 0.0
O417 O 0.88949 0.73355 0.84063 0.0
C418 C 0.9449 0.8471 0.79828 0.0
O419 O 0.94946 0.82514 0.78869 0.0
O420 O 0.91374 0.74569 0.79493 0.0
O421 O 0.86968 0.68796 0.80051 0.0
H422 H 0.06184 0.70356 0.78149 0.0
H423 H 0.80751 0.78815 0.82294 0.0
O424 O 0.82562 0.71078 0.83203 0.0
H425 H 0.72403 0.73946 0.78895 0.0
H426 H 0.70743 0.60802 0.82281 0.0
H427 H 0.86353 0.60709 0.80775 0.0
H428 H 0.78528 0.69198 0.79681 0.0
H429 H 0.7545 0.67719 0.82349 0.0
O430 O 0.93821 0.82496 0.80739 0.0
H431 H 0.98902 0.70169 0.79174 0.0
H432 H 0.02678 0.81913 0.81031 0.0
H433 H 0.81749 0.53729 0.80682 0.0
H434 H 0.74606 0.83648 0.81543 0.0
H435 H 0.73883 0.53746 0.81439 0.0
H436 H 0.70393 0.81222 0.7983 0.0
O437 O 0.89979 0.66329 0.8224 0.0
H438 H 0.96581 0.8359 0.84683 0.0
H439 H 0.02622 0.71798 0.82139 0.0
H440 H 0.0633 0.73136 0.83973 0.0
H441 H 0.03325 0.79084 0.85258 0.0
H442 H 0.92923 0.82085 0.82849 0.0
H443 H 0.09991 0.82237 0.80021 0.0
H444 H 0.11788 0.76426 0.78569 0.0
O445 O 0.95567 0.69086 0.81162 0.0
C446 C 0.8879 0.71203 0.7928 0.0
C447 C 0.05441 0.72908 0.78779 0.0
C448 C 0.07579 0.79574 0.79831 0.0
N449 N 0.00357 0.76024 0.80161 0.0
C450 C 0.01321 0.7282 0.79363 0.0
C451 C 0.0343 0.79372 0.80399 0.0
C452 C 0.08584 0.76314 0.79016 0.0
C453 C 0.78909 0.77725 0.81553 0.0
N454 N 0.79983 0.73723 0.81036 0.0
C455 C 0.75443 0.8048 0.8113 0.0
C456 C 0.73083 0.79119 0.80168 0.0
C457 C 0.74209 0.75038 0.79643 0.0
C458 C 0.7769 0.72369 0.8009 0.0
C459 C 0.74163 0.60754 0.81947 0.0
C460 C 0.82925 0.60753 0.81101 0.0
C461 C 0.7685 0.64657 0.81985 0.0
N462 N 0.81166 0.64627 0.8156 0.0
C463 C 0.80338 0.56786 0.81048 0.0
C464 C 0.75927 0.56796 0.81474 0.0
C465 C 0.93957 0.66059 0.8182 0.0
C466 C 0.97931 0.80997 0.84129 0.0
C467 C 0.01263 0.74364 0.82697 0.0
C468 C 0.03393 0.75121 0.83732 0.0
C469 C 0.01709 0.78463 0.84452 0.0
N470 N 0.9756 0.7687 0.82384 0.0
C471 C 0.95887 0.80145 0.83087 0.0
Co472 Co 0.79831 0.66168 0.69008 0.0
Co473 Co 0.75024 0.56165 0.69808 0.0
O474 O 0.74702 0.61879 0.68952 0.0
C475 C 0.77556 0.66082 0.66543 0.0
O476 O 0.77153 0.61645 0.66574 0.0
C477 C 0.65008 0.58737 0.69837 0.0
O478 O 0.65722 0.6258 0.69306 0.0
O479 O 0.75945 0.59706 0.71223 0.0
O480 O 0.81401 0.64342 0.70595 0.0
H481 H 0.81851 0.45646 0.72684 0.0
H482 H 0.70775 0.69615 0.68347 0.0
O483 O 0.78493 0.68287 0.67436 0.0
H484 H 0.75025 0.78444 0.7172 0.0
H485 H 0.87746 0.81038 0.6827 0.0
H486 H 0.89346 0.65575 0.69815 0.0
H487 H 0.80226 0.7268 0.70944 0.0
H488 H 0.81263 0.75744 0.68257 0.0
O489 O 0.68303 0.56137 0.70095 0.0
H490 H 0.81328 0.52649 0.71552 0.0
H491 H 0.69408 0.47718 0.69948 0.0
H492 H 0.95903 0.70774 0.69854 0.0
H493 H 0.65486 0.75386 0.69088 0.0
H494 H 0.95128 0.78569 0.69077 0.0
H495 H 0.67598 0.79839 0.70789 0.0
O496 O 0.83926 0.61367 0.68407 0.0
H497 H 0.67802 0.52793 0.66044 0.0
H498 H 0.79446 0.48033 0.68787 0.0
H499 H 0.78517 0.43733 0.67021 0.0
H500 H 0.72641 0.46087 0.65636 0.0
H501 H 0.68892 0.57035 0.67809 0.0
H502 H 0.69774 0.40689 0.71073 0.0
H503 H 0.76044 0.39606 0.72449 0.0
O504 O 0.81745 0.55775 0.69561 0.0
C505 C 0.79188 0.62485 0.71396 0.0
C506 C 0.79109 0.46073 0.72085 0.0
C507 C 0.72329 0.43293 0.71182 0.0
N508 N 0.7536 0.50588 0.70679 0.0
C509 C 0.78801 0.50028 0.7144 0.0
C510 C 0.72132 0.4729 0.7055 0.0
C511 C 0.75848 0.42687 0.71953 0.0
C512 C 0.71723 0.71554 0.69084 0.0
N513 N 0.75795 0.70799 0.69602 0.0
C514 C 0.68713 0.74811 0.69501 0.0
C515 C 0.69898 0.77305 0.70456 0.0
C516 C 0.74063 0.76522 0.70979 0.0
C517 C 0.76986 0.73238 0.70538 0.0
C518 C 0.88125 0.77653 0.68612 0.0
C519 C 0.88972 0.68967 0.6948 0.0
C520 C 0.84469 0.74634 0.68604 0.0
N521 N 0.84916 0.70358 0.69039 0.0
C522 C 0.92701 0.71894 0.69503 0.0
C523 C 0.92265 0.76265 0.69066 0.0
C524 C 0.84541 0.57481 0.68857 0.0
C525 C 0.70345 0.51707 0.66646 0.0
C526 C 0.76875 0.49087 0.68192 0.0
C527 C 0.76366 0.46631 0.67192 0.0
C528 C 0.73069 0.47953 0.66416 0.0
N529 N 0.7416 0.52744 0.68419 0.0
C530 C 0.70952 0.5408 0.67655 0.0
Co531 Co 0.33728 0.29904 0.9391 0.0
Co532 Co 0.44281 0.26194 0.94636 0.0
O533 O 0.38639 0.25399 0.93768 0.0
C534 C 0.33431 0.269 0.91453 0.0
O535 O 0.37106 0.2442 0.91559 0.0
C536 C 0.42609 0.16246 0.95027 0.0
O537 O 0.38377 0.17061 0.95312 0.0
O538 O 0.40705 0.26103 0.96063 0.0
O539 O 0.35287 0.31005 0.95538 0.0
H540 H 0.53898 0.33071 0.97694 0.0
H541 H 0.31734 0.20547 0.93098 0.0
O542 O 0.31846 0.29105 0.92289 0.0
H543 H 0.21876 0.22785 0.96412 0.0
H544 H 0.18069 0.36294 0.93263 0.0
H545 H 0.33095 0.39001 0.94971 0.0
H546 H 0.26978 0.28891 0.95771 0.0
H547 H 0.24109 0.30526 0.9312 0.0
O548 O 0.45194 0.19474 0.94718 0.0
H549 H 0.46963 0.32067 0.96557 0.0
H550 H 0.53478 0.21902 0.94597 0.0
H551 H 0.27135 0.44838 0.95144 0.0
H552 H 0.26649 0.14376 0.93701 0.0
H553 H 0.19558 0.43504 0.94285 0.0
H554 H 0.21672 0.15467 0.95371 0.0
O555 O 0.37999 0.34773 0.93431 0.0
H556 H 0.48725 0.2047 0.90798 0.0
H557 H 0.51441 0.32273 0.9367 0.0
H558 H 0.55679 0.3252 0.91878 0.0
H559 H 0.54342 0.26581 0.90427 0.0
H560 H 0.44517 0.20383 0.92598 0.0
H561 H 0.60466 0.22756 0.95721 0.0
H562 H 0.60714 0.2839 0.9728 0.0
O563 O 0.4375 0.32966 0.94573 0.0
C564 C 0.37497 0.28858 0.96294 0.0
C565 C 0.53833 0.30605 0.97017 0.0
C566 C 0.57517 0.24814 0.95911 0.0
N567 N 0.49809 0.26929 0.9551 0.0
C568 C 0.49916 0.30024 0.96369 0.0
C569 C 0.53542 0.2433 0.9528 0.0
C570 C 0.57655 0.27977 0.96784 0.0
C571 C 0.29537 0.21086 0.93813 0.0
N572 N 0.29605 0.25116 0.94383 0.0
C573 C 0.26681 0.17562 0.94156 0.0
C574 C 0.23896 0.18172 0.95095 0.0
C575 C 0.24009 0.22276 0.95679 0.0
C576 C 0.26908 0.25723 0.95311 0.0
C577 C 0.21354 0.36912 0.93643 0.0
C578 C 0.29799 0.3838 0.94601 0.0
C579 C 0.24793 0.33663 0.93562 0.0
N580 N 0.28946 0.34411 0.94043 0.0
C581 C 0.26441 0.41705 0.94699 0.0
C582 C 0.22192 0.40956 0.94216 0.0
C583 C 0.41727 0.35744 0.93919 0.0
C584 C 0.49336 0.23078 0.91423 0.0
C585 C 0.50802 0.297 0.93039 0.0
C586 C 0.53232 0.29845 0.92028 0.0
C587 C 0.52484 0.2651 0.91215 0.0
N588 N 0.47708 0.2633 0.93236 0.0
C589 C 0.46969 0.23042 0.92444 0.0
Co590 Co 0.70966 0.83537 0.18823 0.0
Co591 Co 0.74162 0.94343 0.19623 0.0
O592 O 0.75108 0.88775 0.18731 0.0
C593 C 0.73494 0.84126 0.16331 0.0
O594 O 0.75935 0.87804 0.16476 0.0
C595 C 0.83964 0.92478 0.20106 0.0
O596 O 0.83023 0.88205 0.20321 0.0
O597 O 0.7391 0.90769 0.21051 0.0
O598 O 0.70286 0.84444 0.20491 0.0
H599 H 0.66665 0.03943 0.22595 0.0
H600 H 0.80353 0.82811 0.17887 0.0
O601 O 0.71437 0.82283 0.17158 0.0
H602 H 0.79418 0.71041 0.2083 0.0
H603 H 0.65336 0.67803 0.17898 0.0
H604 H 0.6232 0.81861 0.20029 0.0
H605 H 0.72816 0.75872 0.20404 0.0
H606 H 0.70671 0.74239 0.17802 0.0
O607 O 0.80849 0.95192 0.19797 0.0
H608 H 0.67855 0.9704 0.21458 0.0
H609 H 0.78554 0.03483 0.19668 0.0
H610 H 0.56929 0.75477 0.20161 0.0
H611 H 0.87006 0.78015 0.1827 0.0
H612 H 0.5842 0.68386 0.19089 0.0
H613 H 0.86582 0.7208 0.19755 0.0
O614 O 0.65627 0.87549 0.18513 0.0
H615 H 0.80763 0.99092 0.15894 0.0
H616 H 0.68213 0.01433 0.18587 0.0
H617 H 0.68347 0.05782 0.16811 0.0
H618 H 0.74663 0.04636 0.15451 0.0
H619 H 0.80465 0.94763 0.17675 0.0
H620 H 0.77512 0.10444 0.20793 0.0
H621 H 0.7152 0.10712 0.22267 0.0
O622 O 0.67479 0.93808 0.19481 0.0
C623 C 0.71804 0.87073 0.2126 0.0
C624 C 0.69288 0.03871 0.21956 0.0
C625 C 0.75379 0.07516 0.20945 0.0
N626 N 0.73277 0.99846 0.20499 0.0
C627 C 0.69976 0.9997 0.21308 0.0
C628 C 0.75966 0.03555 0.20314 0.0
C629 C 0.72014 0.07665 0.21772 0.0
C630 C 0.80097 0.80212 0.18523 0.0
N631 N 0.76161 0.79621 0.19116 0.0
C632 C 0.83898 0.77515 0.18741 0.0
C633 C 0.83663 0.74193 0.19576 0.0
C634 C 0.79648 0.73613 0.2018 0.0
C635 C 0.7592 0.76377 0.19939 0.0
C636 C 0.64653 0.70871 0.1837 0.0
C637 C 0.63013 0.78774 0.19567 0.0
C638 C 0.67653 0.74537 0.18316 0.0
N639 N 0.66826 0.78417 0.18916 0.0
C640 C 0.59939 0.75176 0.19642 0.0
C641 C 0.60775 0.712 0.19039 0.0
C642 C 0.64631 0.9138 0.18949 0.0
C643 C 0.77995 0.99624 0.1648 0.0
C644 C 0.70952 0.00878 0.17996 0.0
C645 C 0.71021 0.0337 0.16993 0.0
C646 C 0.74568 0.0273 0.16231 0.0
N647 N 0.74323 0.9783 0.18233 0.0
C648 C 0.77815 0.97193 0.17491 0.0
Co649 Co 0.16395 0.20734 0.43926 0.0
Co650 Co 0.06018 0.2513 0.4461 0.0
O651 O 0.11793 0.25563 0.43778 0.0
C652 C 0.16233 0.22398 0.41426 0.0
O653 O 0.11786 0.22694 0.41448 0.0
C654 C 0.0807 0.35257 0.44536 0.0
O655 O 0.12011 0.34681 0.44039 0.0
O656 O 0.09441 0.24739 0.46053 0.0
O657 O 0.14675 0.19598 0.45544 0.0
H658 H 0.95578 0.18483 0.47532 0.0
H659 H 0.19229 0.29778 0.43095 0.0
O660 O 0.18446 0.217 0.42331 0.0
H661 H 0.2841 0.27081 0.4651 0.0
H662 H 0.31716 0.13512 0.43322 0.0
H663 H 0.16389 0.11505 0.44923 0.0
H664 H 0.22977 0.21312 0.45843 0.0
H665 H 0.26041 0.19642 0.43189 0.0
O666 O 0.05603 0.31874 0.44798 0.0
H667 H 0.02663 0.1911 0.46436 0.0
H668 H 0.9726 0.30277 0.44607 0.0
H669 H 0.21976 0.05301 0.45084 0.0
H670 H 0.24665 0.35625 0.43725 0.0
H671 H 0.29703 0.06284 0.4428 0.0
H672 H 0.29292 0.34297 0.45447 0.0
O673 O 0.11863 0.16155 0.43405 0.0
H674 H 0.0256 0.31353 0.40744 0.0
H675 H 0.98321 0.19952 0.43602 0.0
H676 H 0.94163 0.20227 0.418 0.0
H677 H 0.96256 0.25976 0.40357 0.0
H678 H 0.06674 0.30911 0.42547 0.0
H679 H 0.90137 0.29805 0.45693 0.0
H680 H 0.8925 0.2386 0.47164 0.0
O681 O 0.06024 0.18379 0.44475 0.0
C682 C 0.12523 0.2186 0.46289 0.0
C683 C 0.95917 0.21081 0.46891 0.0
C684 C 0.92866 0.27437 0.4586 0.0
N685 N 0.00373 0.24703 0.45452 0.0
C686 C 0.9992 0.21446 0.46266 0.0
C687 C 0.96916 0.27695 0.4525 0.0
C688 C 0.9237 0.24101 0.46685 0.0
C689 C 0.21246 0.29171 0.43842 0.0
N690 N 0.2077 0.25219 0.44433 0.0
C691 C 0.24313 0.32495 0.44196 0.0
C692 C 0.26906 0.31749 0.45162 0.0
C693 C 0.26412 0.27702 0.45759 0.0
C694 C 0.23314 0.24455 0.45379 0.0
C695 C 0.28362 0.13044 0.43677 0.0
C696 C 0.19751 0.11967 0.44575 0.0
C697 C 0.25128 0.16499 0.43601 0.0
N698 N 0.2089 0.1594 0.44052 0.0
C699 C 0.22897 0.08439 0.44667 0.0
C700 C 0.27231 0.08991 0.44215 0.0
C701 C 0.07973 0.15468 0.43845 0.0
C702 C 0.0159 0.28858 0.4137 0.0
C703 C 0.99263 0.22467 0.4298 0.0
C704 C 0.96887 0.22607 0.41961 0.0
C705 C 0.98062 0.25833 0.41152 0.0
N706 N 0.027 0.25471 0.43193 0.0
C707 C 0.03889 0.28617 0.42399 0.0
Co708 Co 0.79682 0.83394 0.56737 0.0
Co709 Co 0.75364 0.93628 0.55857 0.0
O710 O 0.7487 0.88063 0.56778 0.0
C711 C 0.76493 0.83494 0.59184 0.0
O712 O 0.73873 0.87034 0.5902 0.0
C713 C 0.65262 0.91442 0.55866 0.0
O714 O 0.6586 0.87561 0.56388 0.0
O715 O 0.76 0.89892 0.54467 0.0
O716 O 0.80828 0.84601 0.55096 0.0
H717 H 0.82307 0.03368 0.5283 0.0
H718 H 0.7047 0.80904 0.57573 0.0
O719 O 0.78847 0.81858 0.58379 0.0
H720 H 0.73485 0.70515 0.54402 0.0
H721 H 0.86899 0.68313 0.57645 0.0
H722 H 0.88895 0.83046 0.55732 0.0
H723 H 0.79187 0.76182 0.54972 0.0
H724 H 0.80786 0.74029 0.57674 0.0
O725 O 0.68635 0.93936 0.55609 0.0
H726 H 0.81598 0.9657 0.5403 0.0
H727 H 0.70171 0.02331 0.55687 0.0
H728 H 0.95075 0.77405 0.55672 0.0
H729 H 0.64705 0.75248 0.57044 0.0
H730 H 0.94099 0.69976 0.56634 0.0
H731 H 0.66184 0.70002 0.55444 0.0
O732 O 0.84285 0.88033 0.5717 0.0
H733 H 0.68414 0.98129 0.59578 0.0
H734 H 0.80393 0.01555 0.56801 0.0
H735 H 0.79808 0.0617 0.58527 0.0
H736 H 0.73769 0.04486 0.59929 0.0
H737 H 0.69167 0.93559 0.57851 0.0
H738 H 0.70733 0.0917 0.54496 0.0
H739 H 0.76848 0.09731 0.53059 0.0
O740 O 0.82088 0.9372 0.56048 0.0
C741 C 0.78867 0.86723 0.54294 0.0
C742 C 0.79636 0.0317 0.53456 0.0
C743 C 0.73138 0.06424 0.5439 0.0
N744 N 0.75867 0.99058 0.54934 0.0
C745 C 0.79222 0.99331 0.5414 0.0
C746 C 0.7283 0.02535 0.5506 0.0
C747 C 0.7657 0.06737 0.53584 0.0
C748 C 0.71174 0.78613 0.56886 0.0
N749 N 0.75186 0.78873 0.56312 0.0
C750 C 0.67879 0.75425 0.56585 0.0
C751 C 0.68707 0.72488 0.55687 0.0
C752 C 0.728 0.72777 0.55102 0.0
C753 C 0.76012 0.7601 0.55426 0.0
C754 C 0.87362 0.71534 0.57221 0.0
C755 C 0.88432 0.79812 0.56147 0.0
C756 C 0.83916 0.74791 0.57236 0.0
N757 N 0.84468 0.78861 0.56698 0.0
C758 C 0.91949 0.76635 0.56113 0.0
C759 C 0.91401 0.72469 0.56653 0.0
C760 C 0.84996 0.91839 0.5669 0.0
C761 C 0.71048 0.9891 0.58971 0.0
C762 C 0.77771 0.00772 0.57408 0.0
C763 C 0.77448 0.03414 0.58383 0.0
C764 C 0.74058 0.0247 0.59169 0.0
N765 N 0.74795 0.97291 0.57216 0.0
C766 C 0.71475 0.96343 0.57986 0.0
Co767 Co 0.16905 0.29123 0.81559 0.0
Co768 Co 0.05767 0.26174 0.80994 0.0
O769 O 0.11624 0.25101 0.81749 0.0
C770 C 0.16181 0.28265 0.84078 0.0
O771 O 0.11733 0.28281 0.84013 0.0
C772 C 0.0745 0.164 0.80426 0.0
O773 O 0.11696 0.1732 0.80176 0.0
O774 O 0.08799 0.26628 0.79489 0.0
O775 O 0.15533 0.2982 0.79915 0.0
H776 H 0.95115 0.34098 0.78327 0.0
H777 H 0.17868 0.19989 0.82574 0.0
O778 O 0.1859 0.28501 0.83189 0.0
H779 H 0.28328 0.20109 0.79324 0.0
H780 H 0.33044 0.34228 0.82191 0.0
H781 H 0.1848 0.37736 0.80332 0.0
H782 H 0.23849 0.26914 0.79808 0.0
H783 H 0.26486 0.29096 0.82401 0.0
O784 O 0.04818 0.19513 0.80779 0.0
H785 H 0.02412 0.32736 0.79288 0.0
H786 H 0.96636 0.21784 0.81121 0.0
H787 H 0.24974 0.42934 0.80088 0.0
H788 H 0.22322 0.13119 0.82132 0.0
H789 H 0.32319 0.41193 0.81023 0.0
H790 H 0.27583 0.13146 0.80494 0.0
O791 O 0.13158 0.34595 0.81933 0.0
H792 H 0.02572 0.19116 0.84772 0.0
H793 H 0.99079 0.31934 0.82238 0.0
H794 H 0.95456 0.31559 0.84112 0.0
H795 H 0.97186 0.25107 0.85392 0.0
H796 H 0.06167 0.19655 0.82896 0.0
H797 H 0.89285 0.22989 0.80173 0.0
H798 H 0.88482 0.29196 0.78767 0.0
O799 O 0.06398 0.3283 0.81184 0.0
C800 C 0.12543 0.28505 0.79207 0.0
C801 C 0.95419 0.3138 0.78938 0.0
C802 C 0.9215 0.25145 0.79973 0.0
N803 N 0.99962 0.27184 0.80258 0.0
C804 C 0.99546 0.30597 0.79485 0.0
C805 C 0.96329 0.24467 0.80503 0.0
C806 C 0.91701 0.28629 0.79185 0.0
C807 C 0.2016 0.20027 0.81862 0.0
N808 N 0.20563 0.23829 0.81209 0.0
C809 C 0.2267 0.16128 0.81615 0.0
C810 C 0.25618 0.16144 0.80695 0.0
C811 C 0.26032 0.20046 0.80038 0.0
C812 C 0.23466 0.23879 0.8031 0.0
C813 C 0.29864 0.3502 0.81778 0.0
C814 C 0.21676 0.36939 0.80734 0.0
C815 C 0.26131 0.32134 0.81897 0.0
N816 N 0.22108 0.33102 0.81373 0.0
C817 C 0.25336 0.39902 0.80596 0.0
C818 C 0.29455 0.38926 0.81122 0.0
C819 C 0.09146 0.35651 0.81623 0.0
C820 C 0.0178 0.21936 0.8422 0.0
C821 C 0.99872 0.29129 0.82792 0.0
C822 C 0.97797 0.28926 0.83851 0.0
C823 C 0.98765 0.25303 0.84568 0.0
N824 N 0.02824 0.2581 0.82456 0.0
C825 C 0.03789 0.22248 0.83155 0.0
Co826 Co 0.70392 0.66697 0.06506 0.0
Co827 Co 0.75087 0.5656 0.05766 0.0
O828 O 0.75434 0.62311 0.06606 0.0
C829 C 0.72445 0.66666 0.08982 0.0
O830 O 0.72847 0.62228 0.0896 0.0
C831 C 0.85162 0.58914 0.05787 0.0
O832 O 0.84497 0.62803 0.06301 0.0
O833 O 0.74374 0.60047 0.04335 0.0
O834 O 0.68961 0.64834 0.04915 0.0
H835 H 0.68341 0.46029 0.02882 0.0
H836 H 0.79443 0.69986 0.07218 0.0
O837 O 0.71592 0.68853 0.08081 0.0
H838 H 0.75726 0.78766 0.03797 0.0
H839 H 0.62682 0.81741 0.07158 0.0
H840 H 0.60962 0.66259 0.05634 0.0
H841 H 0.70331 0.73137 0.04553 0.0
H842 H 0.6906 0.76325 0.07227 0.0
O843 O 0.81828 0.56383 0.0552 0.0
H844 H 0.68891 0.53079 0.03994 0.0
H845 H 0.80545 0.47996 0.05688 0.0
H846 H 0.54513 0.7158 0.05538 0.0
H847 H 0.84922 0.75621 0.06498 0.0
H848 H 0.55348 0.79385 0.06304 0.0
H849 H 0.83079 0.80049 0.04773 0.0
O850 O 0.66138 0.62006 0.07091 0.0
H851 H 0.81893 0.53237 0.0958 0.0
H852 H 0.70415 0.48563 0.06786 0.0
H853 H 0.71097 0.44337 0.0857 0.0
H854 H 0.76888 0.46647 0.09981 0.0
H855 H 0.81046 0.57411 0.07796 0.0
H856 H 0.80152 0.40918 0.04584 0.0
H857 H 0.74001 0.39887 0.03173 0.0
O858 O 0.68341 0.56313 0.05972 0.0
C859 C 0.71212 0.62887 0.04134 0.0
C860 C 0.7103 0.46433 0.03496 0.0
C861 C 0.77661 0.43566 0.0445 0.0
N862 N 0.74728 0.50946 0.04911 0.0
C863 C 0.71354 0.50415 0.04131 0.0
C864 C 0.77875 0.47591 0.05071 0.0
C865 C 0.74209 0.4299 0.03659 0.0
C866 C 0.78611 0.71916 0.06471 0.0
N867 N 0.7458 0.71223 0.05928 0.0
C868 C 0.81729 0.75095 0.06065 0.0
C869 C 0.80694 0.77575 0.05097 0.0
C870 C 0.76571 0.76855 0.04549 0.0
C871 C 0.73537 0.73648 0.04979 0.0
C872 C 0.62277 0.78351 0.0682 0.0
C873 C 0.61363 0.69655 0.05964 0.0
C874 C 0.65874 0.75264 0.06859 0.0
N875 N 0.65394 0.70983 0.0643 0.0
C876 C 0.57694 0.72651 0.0591 0.0
C877 C 0.58164 0.77028 0.06341 0.0
C878 C 0.65497 0.58113 0.06649 0.0
C879 C 0.79383 0.52171 0.08968 0.0
C880 C 0.72947 0.49601 0.07393 0.0
C881 C 0.73318 0.47186 0.08403 0.0
C882 C 0.76567 0.48482 0.09194 0.0
N883 N 0.75751 0.53195 0.07171 0.0
C884 C 0.78914 0.54505 0.07948 0.0
Co885 Co 0.33786 0.20669 0.3165 0.0
Co886 Co 0.43903 0.25117 0.30726 0.0
O887 O 0.38404 0.25528 0.31678 0.0
C888 C 0.33921 0.23827 0.34104 0.0
O889 O 0.37331 0.2661 0.33936 0.0
C890 C 0.41704 0.3522 0.30801 0.0
O891 O 0.37913 0.34579 0.31361 0.0
O892 O 0.4006 0.24499 0.29353 0.0
O893 O 0.34865 0.19601 0.29998 0.0
H894 H 0.53465 0.18397 0.27634 0.0
H895 H 0.31322 0.29871 0.32499 0.0
O896 O 0.32362 0.21419 0.333 0.0
H897 H 0.20554 0.26746 0.29416 0.0
H898 H 0.18887 0.13204 0.32622 0.0
H899 H 0.33479 0.11497 0.30625 0.0
H900 H 0.26328 0.21092 0.29946 0.0
H901 H 0.24514 0.19399 0.32634 0.0
O902 O 0.44138 0.31866 0.30497 0.0
H903 H 0.46763 0.18983 0.28871 0.0
H904 H 0.5254 0.30403 0.30525 0.0
H905 H 0.27923 0.05238 0.30581 0.0
H906 H 0.25565 0.3559 0.3201 0.0
H907 H 0.20566 0.06069 0.31586 0.0
H908 H 0.20127 0.34057 0.30455 0.0
O909 O 0.38525 0.16121 0.32055 0.0
H910 H 0.48603 0.31838 0.3446 0.0
H911 H 0.51982 0.20145 0.31606 0.0
H912 H 0.56733 0.20665 0.3331 0.0
H913 H 0.55075 0.26561 0.34751 0.0
H914 H 0.43901 0.31154 0.32755 0.0
H915 H 0.59282 0.29964 0.29298 0.0
H916 H 0.59786 0.23915 0.27843 0.0
O917 O 0.44077 0.18386 0.30899 0.0
C918 C 0.36903 0.21608 0.29189 0.0
C919 C 0.53291 0.21041 0.28267 0.0
C920 C 0.56553 0.27535 0.292 0.0
N921 N 0.49262 0.24706 0.29775 0.0
C922 C 0.49507 0.21384 0.28972 0.0
C923 C 0.52717 0.27773 0.2989 0.0
C924 C 0.56834 0.2414 0.28384 0.0
C925 C 0.28955 0.29143 0.31831 0.0
N926 N 0.29171 0.25126 0.31258 0.0
C927 C 0.25706 0.32412 0.31553 0.0
C928 C 0.22661 0.31555 0.30679 0.0
C929 C 0.22903 0.27457 0.30095 0.0
C930 C 0.26199 0.24272 0.30397 0.0
C931 C 0.22077 0.12804 0.32179 0.0
C932 C 0.30274 0.11897 0.31058 0.0
C933 C 0.25284 0.16296 0.32185 0.0
N934 N 0.29314 0.15825 0.31624 0.0
C935 C 0.27146 0.08336 0.31033 0.0
C936 C 0.2302 0.08803 0.31598 0.0
C937 C 0.42314 0.15472 0.3156 0.0
C938 C 0.49376 0.2927 0.33836 0.0
C939 C 0.51214 0.22711 0.32229 0.0
C940 C 0.53931 0.22994 0.33192 0.0
C941 C 0.53001 0.26303 0.34 0.0
N942 N 0.47673 0.25649 0.32069 0.0
C943 C 0.46734 0.28884 0.32862 0.0
C944 C 0.2716 0.27923 0.10296 0.0
C945 C 0.28448 0.32516 0.10266 0.0
C946 C 0.2734 0.25407 0.11301 0.0
C947 C 0.28841 0.27522 0.12306 0.0
C948 C 0.29975 0.322 0.12293 0.0
C949 C 0.29761 0.34644 0.11273 0.0
C950 C 0.26082 0.20437 0.11277 0.0
C951 C 0.31576 0.34583 0.13348 0.0
C952 C 0.26608 0.21732 0.1513 0.0
C953 C 0.30822 0.19687 0.15353 0.0
C954 C 0.25899 0.24271 0.1414 0.0
C955 C 0.29482 0.24771 0.13352 0.0
C956 C 0.33704 0.22628 0.13561 0.0
C957 C 0.34322 0.20119 0.14557 0.0
C958 C 0.21344 0.2649 0.13947 0.0
C959 C 0.37604 0.23047 0.12739 0.0
H960 H 0.26106 0.26244 0.09526 0.0
H961 H 0.30761 0.38185 0.1126 0.0
H962 H 0.29126 0.18346 0.11462 0.0
H963 H 0.23527 0.19685 0.11939 0.0
H964 H 0.24691 0.19378 0.10447 0.0
H965 H 0.3203 0.3829 0.13217 0.0
H966 H 0.29113 0.34052 0.14044 0.0
H967 H 0.34865 0.33118 0.13624 0.0
H968 H 0.23884 0.21444 0.15741 0.0
H969 H 0.3759 0.18557 0.1472 0.0
H970 H 0.19902 0.25364 0.13128 0.0
H971 H 0.21762 0.30228 0.139 0.0
H972 H 0.18875 0.25689 0.14627 0.0
H973 H 0.3656 0.21786 0.11896 0.0
H974 H 0.40647 0.21117 0.13017 0.0
H975 H 0.38558 0.26669 0.1264 0.0
C976 C 0.76873 0.80038 0.40325 0.0
C977 C 0.81275 0.78219 0.40385 0.0
C978 C 0.74309 0.79787 0.3933 0.0
C979 C 0.76151 0.77599 0.3837 0.0
C980 C 0.80583 0.75725 0.38426 0.0
C981 C 0.83113 0.76094 0.3943 0.0
C982 C 0.69643 0.81916 0.39302 0.0
C983 C 0.82642 0.7332 0.37424 0.0
C984 C 0.67803 0.73808 0.36096 0.0
C985 C 0.6833 0.77235 0.35285 0.0
C986 C 0.70373 0.73842 0.37098 0.0
C987 C 0.73482 0.77427 0.37301 0.0
C988 C 0.73953 0.80938 0.36494 0.0
C989 C 0.71401 0.80782 0.35495 0.0
C990 C 0.6981 0.70013 0.37933 0.0
C991 C 0.77154 0.8487 0.36685 0.0
H992 H 0.75436 0.81723 0.41055 0.0
H993 H 0.86497 0.74656 0.39474 0.0
H994 H 0.69514 0.84574 0.38639 0.0
H995 H 0.67059 0.79323 0.39083 0.0
H996 H 0.68697 0.83478 0.40123 0.0
H997 H 0.86055 0.71907 0.37615 0.0
H998 H 0.80389 0.7051 0.3715 0.0
H999 H 0.82953 0.75707 0.36704 0.0
H1000 H 0.65474 0.71034 0.35934 0.0
H1001 H 0.7182 0.83456 0.34875 0.0
H1002 H 0.68658 0.71371 0.38758 0.0
H1003 H 0.73126 0.68321 0.38076 0.0
H1004 H 0.67322 0.67433 0.37641 0.0
H1005 H 0.76226 0.86675 0.37474 0.0
H1006 H 0.77105 0.87342 0.35977 0.0
H1007 H 0.80675 0.83602 0.36791 0.0
C1008 C 0.24074 0.21841 0.60337 0.0
C1009 C 0.19977 0.19489 0.60176 0.0
C1010 C 0.248 0.24485 0.6131 0.0
C1011 C 0.21361 0.24768 0.62143 0.0
C1012 C 0.1728 0.22292 0.61999 0.0
C1013 C 0.16638 0.19694 0.61019 0.0
C1014 C 0.292 0.27065 0.61433 0.0
C1015 C 0.13542 0.22458 0.62871 0.0
C1016 C 0.23883 0.28281 0.65161 0.0
C1017 C 0.22138 0.32721 0.65197 0.0
C1018 C 0.23823 0.25724 0.64162 0.0
C1019 C 0.21986 0.27644 0.63168 0.0
C1020 C 0.20426 0.32199 0.63182 0.0
C1021 C 0.20521 0.34686 0.64196 0.0
C1022 C 0.25531 0.2089 0.64186 0.0
C1023 C 0.18466 0.34378 0.62137 0.0
H1024 H 0.26663 0.21735 0.59687 0.0
H1025 H 0.13465 0.17887 0.60904 0.0
H1026 H 0.28499 0.30765 0.61456 0.0
H1027 H 0.30872 0.26164 0.62241 0.0
H1028 H 0.31597 0.26365 0.6073 0.0
H1029 H 0.10616 0.2026 0.62645 0.0
H1030 H 0.14867 0.21362 0.63704 0.0
H1031 H 0.12308 0.25996 0.62967 0.0
H1032 H 0.25184 0.26733 0.65926 0.0
H1033 H 0.19174 0.3811 0.64213 0.0
H1034 H 0.27978 0.20306 0.63489 0.0
H1035 H 0.22647 0.18523 0.64058 0.0
H1036 H 0.27209 0.20031 0.64998 0.0
H1037 H 0.20825 0.33965 0.61414 0.0
H1038 H 0.17773 0.38053 0.62258 0.0
H1039 H 0.1524 0.32664 0.61908 0.0
C1040 C 0.83463 0.75342 0.86061 0.0
C1041 C 0.82012 0.72597 0.85165 0.0
C1042 C 0.80936 0.75608 0.87069 0.0
C1043 C 0.7693 0.72981 0.87191 0.0
C1044 C 0.75477 0.70183 0.86289 0.0
C1045 C 0.78004 0.70065 0.85286 0.0
C1046 C 0.82549 0.78697 0.88002 0.0
C1047 C 0.71296 0.6724 0.86392 0.0
C1048 C 0.73019 0.69872 0.90149 0.0
C1049 C 0.69241 0.72714 0.90297 0.0
C1050 C 0.75544 0.69934 0.89145 0.0
C1051 C 0.74343 0.72998 0.88274 0.0
C1052 C 0.70574 0.75935 0.88426 0.0
C1053 C 0.68026 0.75713 0.8943 0.0
C1054 C 0.79451 0.66655 0.89009 0.0
C1055 C 0.69246 0.79317 0.87528 0.0
H1056 H 0.86537 0.77333 0.8597 0.0
H1057 H 0.76875 0.67907 0.846 0.0
H1058 H 0.79799 0.81082 0.88244 0.0
H1059 H 0.83398 0.76665 0.88761 0.0
H1060 H 0.8559 0.80693 0.87754 0.0
H1061 H 0.70624 0.65255 0.85612 0.0
H1062 H 0.71703 0.64841 0.87107 0.0
H1063 H 0.68281 0.69371 0.86575 0.0
H1064 H 0.73957 0.67522 0.90814 0.0
H1065 H 0.65134 0.77944 0.89545 0.0
H1066 H 0.82643 0.68542 0.88847 0.0
H1067 H 0.78841 0.6443 0.88269 0.0
H1068 H 0.79938 0.64482 0.89766 0.0
H1069 H 0.72194 0.81499 0.87313 0.0
H1070 H 0.66383 0.8152 0.87798 0.0
H1071 H 0.68239 0.77506 0.86746 0.0
C1072 C 0.80036 0.78032 0.60537 0.0
C1073 C 0.76513 0.81079 0.60284 0.0
C1074 C 0.80066 0.75555 0.61548 0.0
C1075 C 0.76448 0.76072 0.62324 0.0
C1076 C 0.72864 0.79124 0.62073 0.0
C1077 C 0.72959 0.81623 0.6106 0.0
C1078 C 0.84001 0.72413 0.61791 0.0
C1079 C 0.68918 0.79728 0.62872 0.0
C1080 C 0.75079 0.6666 0.64513 0.0
C1081 C 0.7713 0.68616 0.65464 0.0
C1082 C 0.74719 0.69088 0.63493 0.0
C1083 C 0.76526 0.73541 0.63416 0.0
C1084 C 0.78594 0.75524 0.64374 0.0
C1085 C 0.78837 0.73059 0.65385 0.0
C1086 C 0.72434 0.6688 0.62494 0.0
C1087 C 0.80643 0.80222 0.64326 0.0
H1088 H 0.82807 0.77598 0.59944 0.0
H1089 H 0.70203 0.83935 0.60866 0.0
H1090 H 0.8572 0.73467 0.62582 0.0
H1091 H 0.82749 0.689 0.6192 0.0
H1092 H 0.86543 0.72384 0.61098 0.0
H1093 H 0.66324 0.82112 0.62537 0.0
H1094 H 0.67277 0.764 0.63035 0.0
H1095 H 0.70147 0.81036 0.63695 0.0
H1096 H 0.7373 0.63243 0.64568 0.0
H1097 H 0.80459 0.74597 0.66111 0.0
H1098 H 0.74912 0.66457 0.61796 0.0
H1099 H 0.69664 0.69089 0.62175 0.0
H1100 H 0.70994 0.635 0.62706 0.0
H1101 H 0.83392 0.8031 0.63686 0.0
H1102 H 0.82073 0.81303 0.65151 0.0
H1103 H 0.78039 0.82729 0.64063 0.0
C1104 C 0.31397 0.23559 0.89567 0.0
C1105 C 0.30896 0.27018 0.90371 0.0
C1106 C 0.2885 0.2359 0.88562 0.0
C1107 C 0.25806 0.27216 0.88344 0.0
C1108 C 0.2532 0.30732 0.8915 0.0
C1109 C 0.27831 0.30566 0.90156 0.0
C1110 C 0.29411 0.1974 0.87733 0.0
C1111 C 0.22199 0.34714 0.88941 0.0
C1112 C 0.22948 0.29788 0.85283 0.0
C1113 C 0.18529 0.28049 0.85183 0.0
C1114 C 0.25328 0.29561 0.86307 0.0
C1115 C 0.23286 0.27454 0.87253 0.0
C1116 C 0.18829 0.25667 0.87157 0.0
C1117 C 0.16478 0.26035 0.86125 0.0
C1118 C 0.3002 0.31613 0.86377 0.0
C1119 C 0.16568 0.23325 0.88141 0.0
H1120 H 0.33723 0.20785 0.89733 0.0
H1121 H 0.27433 0.33263 0.9077 0.0
H1122 H 0.26061 0.18183 0.87549 0.0
H1123 H 0.30777 0.21053 0.86924 0.0
H1124 H 0.31735 0.1706 0.88052 0.0
H1125 H 0.22173 0.37149 0.89657 0.0
H1126 H 0.23278 0.36544 0.88168 0.0
H1127 H 0.18681 0.33504 0.88797 0.0
H1128 H 0.24541 0.3139 0.84561 0.0
H1129 H 0.13078 0.24657 0.8605 0.0
H1130 H 0.32532 0.28965 0.86607 0.0
H1131 H 0.30111 0.34236 0.87049 0.0
H1132 H 0.31094 0.33198 0.85569 0.0
H1133 H 0.18701 0.20448 0.88432 0.0
H1134 H 0.13142 0.22015 0.87922 0.0
H1135 H 0.16236 0.25715 0.88859 0.0
C1136 C 0.74943 0.6736 0.11006 0.0
C1137 C 0.72787 0.69222 0.10058 0.0
C1138 C 0.75267 0.69828 0.12021 0.0
C1139 C 0.73307 0.74217 0.12096 0.0
C1140 C 0.71113 0.76095 0.11142 0.0
C1141 C 0.70916 0.73598 0.10135 0.0
C1142 C 0.77694 0.67737 0.13015 0.0
C1143 C 0.68891 0.80715 0.11189 0.0
C1144 C 0.69929 0.7863 0.14992 0.0
C1145 C 0.73382 0.81782 0.15223 0.0
C1146 C 0.69864 0.76163 0.13979 0.0
C1147 C 0.73385 0.76792 0.13181 0.0
C1148 C 0.76887 0.79966 0.13408 0.0
C1149 C 0.76821 0.82457 0.14422 0.0
C1150 C 0.66012 0.72892 0.13763 0.0
C1151 C 0.80732 0.80688 0.12585 0.0
H1152 H 0.76418 0.63996 0.10951 0.0
H1153 H 0.69207 0.75055 0.09411 0.0
H1154 H 0.80419 0.70045 0.13314 0.0
H1155 H 0.75285 0.67271 0.13726 0.0
H1156 H 0.79222 0.64393 0.12806 0.0
H1157 H 0.67349 0.81705 0.1037 0.0
H1158 H 0.66198 0.80727 0.11844 0.0
H1159 H 0.71421 0.83328 0.11431 0.0
H1160 H 0.67248 0.78096 0.15606 0.0
H1161 H 0.79525 0.84848 0.14599 0.0
H1162 H 0.67363 0.69412 0.13641 0.0
H1163 H 0.64213 0.73849 0.12975 0.0
H1164 H 0.63516 0.72826 0.14465 0.0
H1165 H 0.82493 0.7742 0.12423 0.0
H1166 H 0.83255 0.83193 0.12897 0.0
H1167 H 0.79378 0.81899 0.11765 0.0
C1168 C 0.16824 0.24712 0.39384 0.0
C1169 C 0.18788 0.22772 0.40348 0.0
C1170 C 0.19301 0.25101 0.38371 0.0
C1171 C 0.23817 0.23438 0.38316 0.0
C1172 C 0.258 0.21463 0.39286 0.0
C1173 C 0.23281 0.21186 0.40289 0.0
C1174 C 0.17086 0.2728 0.37358 0.0
C1175 C 0.30566 0.19567 0.39262 0.0
C1176 C 0.286 0.20059 0.35455 0.0
C1177 C 0.31512 0.23699 0.35205 0.0
C1178 C 0.26083 0.19942 0.36461 0.0
C1179 C 0.26424 0.23585 0.37235 0.0
C1180 C 0.29355 0.27276 0.3699 0.0
C1181 C 0.31894 0.27272 0.35982 0.0
C1182 C 0.23074 0.15899 0.36696 0.0
C1183 C 0.29773 0.31248 0.37788 0.0
H1184 H 0.13369 0.2597 0.39424 0.0
H1185 H 0.24826 0.19649 0.41026 0.0
H1186 H 0.19207 0.30135 0.37049 0.0
H1187 H 0.16826 0.2478 0.36661 0.0
H1188 H 0.13632 0.28583 0.37551 0.0
H1189 H 0.3163 0.18181 0.40093 0.0
H1190 H 0.30792 0.16817 0.38624 0.0
H1191 H 0.33005 0.22248 0.39008 0.0
H1192 H 0.28291 0.17272 0.34863 0.0
H1193 H 0.341 0.30116 0.35791 0.0
H1194 H 0.19507 0.17022 0.36807 0.0
H1195 H 0.24133 0.1424 0.37495 0.0
H1196 H 0.23192 0.13341 0.36008 0.0
H1197 H 0.26384 0.32789 0.37931 0.0
H1198 H 0.32106 0.33907 0.37462 0.0
H1199 H 0.31047 0.30069 0.38618 0.0
C1200 C 0.31879 0.10636 0.23112 0.0
C1201 C 0.29208 0.13515 0.22448 0.0
C1202 C 0.33239 0.11943 0.24203 0.0
C1203 C 0.31818 0.16193 0.24642 0.0
C1204 C 0.29031 0.19059 0.23977 0.0
C1205 C 0.278 0.17702 0.22883 0.0
C1206 C 0.36267 0.08821 0.24877 0.0
C1207 C 0.2735 0.23561 0.2442 0.0
C1208 C 0.31739 0.17636 0.27829 0.0
C1209 C 0.35611 0.20324 0.28017 0.0
C1210 C 0.30454 0.16315 0.26737 0.0
C1211 C 0.33159 0.17604 0.25805 0.0
C1212 C 0.37106 0.20265 0.25985 0.0
C1213 C 0.38261 0.21631 0.27088 0.0
C1214 C 0.2618 0.13547 0.26583 0.0
C1215 C 0.40125 0.2164 0.25014 0.0
H1216 H 0.33025 0.07432 0.22765 0.0
H1217 H 0.2572 0.19912 0.22367 0.0
H1218 H 0.39465 0.10602 0.25098 0.0
H1219 H 0.3458 0.07872 0.2568 0.0
H1220 H 0.37124 0.05668 0.24409 0.0
H1221 H 0.25148 0.25355 0.23803 0.0
H1222 H 0.25399 0.23034 0.25211 0.0
H1223 H 0.30272 0.25784 0.24628 0.0
H1224 H 0.29682 0.16548 0.28536 0.0
H1225 H 0.41282 0.23662 0.27222 0.0
H1226 H 0.27014 0.10228 0.26193 0.0
H1227 H 0.23824 0.15329 0.26002 0.0
H1228 H 0.24389 0.12917 0.27394 0.0
H1229 H 0.41304 0.18576 0.24555 0.0
H1230 H 0.4314 0.23598 0.25298 0.0
H1231 H 0.38181 0.2374 0.24406 0.0
C1232 C 0.89511 0.82626 0.48137 0.0
C1233 C 0.86856 0.79593 0.47513 0.0
C1234 C 0.88276 0.8384 0.49243 0.0
C1235 C 0.84295 0.81968 0.4973 0.0
C1236 C 0.81656 0.78835 0.49103 0.0
C1237 C 0.82972 0.77692 0.48001 0.0
C1238 C 0.91178 0.87189 0.49882 0.0
C1239 C 0.77415 0.76729 0.49592 0.0
C1240 C 0.83153 0.81869 0.52922 0.0
C1241 C 0.8018 0.85521 0.53119 0.0
C1242 C 0.84515 0.80689 0.51827 0.0
C1243 C 0.82907 0.83237 0.50898 0.0
C1244 C 0.79929 0.86943 0.51086 0.0
C1245 C 0.78589 0.88034 0.52193 0.0
C1246 C 0.87672 0.76699 0.51665 0.0
C1247 C 0.78162 0.89756 0.50116 0.0
H1248 H 0.92477 0.84142 0.47748 0.0
H1249 H 0.80942 0.7533 0.47516 0.0
H1250 H 0.8914 0.90236 0.50099 0.0
H1251 H 0.92345 0.85664 0.50688 0.0
H1252 H 0.94199 0.88281 0.4939 0.0
H1253 H 0.75756 0.74341 0.48995 0.0
H1254 H 0.78253 0.74868 0.50379 0.0
H1255 H 0.74947 0.79426 0.49818 0.0
H1256 H 0.84439 0.79909 0.53627 0.0
H1257 H 0.76322 0.90878 0.52333 0.0
H1258 H 0.90816 0.77817 0.5123 0.0
H1259 H 0.86033 0.74114 0.51119 0.0
H1260 H 0.88626 0.75072 0.52476 0.0
H1261 H 0.81043 0.91215 0.49633 0.0
H1262 H 0.75935 0.92573 0.50403 0.0
H1263 H 0.7621 0.87575 0.49526 0.0
C1264 C 0.20802 0.38995 0.73357 0.0
C1265 C 0.19889 0.36171 0.72431 0.0
C1266 C 0.19418 0.3777 0.74453 0.0
C1267 C 0.17151 0.33583 0.74631 0.0
C1268 C 0.16235 0.30721 0.73701 0.0
C1269 C 0.17555 0.32073 0.72615 0.0
C1270 C 0.2038 0.40956 0.75422 0.0
C1271 C 0.13905 0.26192 0.73853 0.0
C1272 C 0.17801 0.28399 0.77563 0.0
C1273 C 0.135 0.29393 0.78003 0.0
C1274 C 0.19007 0.29688 0.76463 0.0
C1275 C 0.15858 0.32114 0.75792 0.0
C1276 C 0.11472 0.33066 0.76225 0.0
C1277 C 0.10327 0.31644 0.77323 0.0
C1278 C 0.23669 0.28484 0.76024 0.0
C1279 C 0.08038 0.35697 0.75542 0.0
H1280 H 0.22548 0.42191 0.73225 0.0
H1281 H 0.16765 0.29878 0.71909 0.0
H1282 H 0.17181 0.41761 0.75875 0.0
H1283 H 0.22686 0.39294 0.76036 0.0
H1284 H 0.21966 0.4418 0.75137 0.0
H1285 H 0.13466 0.24348 0.73043 0.0
H1286 H 0.15913 0.24027 0.74435 0.0
H1287 H 0.10515 0.26682 0.74242 0.0
H1288 H 0.20234 0.26602 0.78079 0.0
H1289 H 0.07018 0.32461 0.77664 0.0
H1290 H 0.25587 0.31624 0.75825 0.0
H1291 H 0.23365 0.26514 0.75229 0.0
H1292 H 0.25663 0.26459 0.76641 0.0
H1293 H 0.09429 0.39092 0.75329 0.0
H1294 H 0.04778 0.36157 0.76001 0.0
H1295 H 0.07345 0.33925 0.74735 0.0
C1296 C 0.73158 0.64373 0.02109 0.0
C1297 C 0.69882 0.63877 0.02957 0.0
C1298 C 0.71907 0.65715 0.01012 0.0
C1299 C 0.67259 0.66431 0.00752 0.0
C1300 C 0.63936 0.65805 0.01601 0.0
C1301 C 0.65295 0.64608 0.02696 0.0
C1302 C 0.75561 0.66454 1.00138 0.0
C1303 C 0.5894 0.66388 0.01353 0.0
C1304 C 0.63942 0.73606 0.98203 0.0
C1305 C 0.63324 0.70271 0.97375 0.0
C1306 C 0.65274 0.72413 0.99304 0.0
C1307 C 0.65857 0.67771 0.99589 0.0
C1308 C 0.6508 0.64392 0.98762 0.0
C1309 C 0.63895 0.65688 0.97662 0.0
C1310 C 0.66175 0.7612 1.00155 0.0
C1311 C 0.65518 0.59405 0.99038 0.0
H1312 H 0.7671 0.63866 0.02315 0.0
H1313 H 0.62753 0.64206 0.03351 0.0
H1314 H 0.75039 0.64126 0.99414 0.0
H1315 H 0.75355 0.69972 0.99806 0.0
H1316 H 0.79021 0.65887 0.00483 0.0
H1317 H 0.56779 0.65619 0.02098 0.0
H1318 H 0.5825 0.69922 0.0108 0.0
H1319 H 0.57925 0.64119 0.00649 0.0
H1320 H 0.63561 0.77153 0.97977 0.0
H1321 H 0.63401 0.63102 0.97022 0.0
H1322 H 0.69727 0.75875 0.00462 0.0
H1323 H 0.63924 0.75699 0.00898 0.0
H1324 H 0.6563 0.79562 0.99796 0.0
H1325 H 0.69061 0.58619 0.99287 0.0
H1326 H 0.64585 0.57203 0.98313 0.0
H1327 H 0.63306 0.58535 0.99764 0.0
C1328 C 0.2681 0.36047 0.02221 0.0
C1329 C 0.30114 0.36446 0.03064 0.0
C1330 C 0.27996 0.34626 0.01126 0.0
C1331 C 0.32611 0.33738 0.00863 0.0
C1332 C 0.35964 0.34235 0.0171 0.0
C1333 C 0.34663 0.3551 0.02804 0.0
C1334 C 0.24309 0.34019 1.00254 0.0
C1335 C 0.40934 0.33478 0.01458 0.0
C1336 C 0.35784 0.26645 0.98288 0.0
C1337 C 0.3652 0.30024 0.97478 0.0
C1338 C 0.34434 0.27795 0.99391 0.0
C1339 C 0.33965 0.32432 0.99695 0.0
C1340 C 0.34846 0.35847 0.98883 0.0
C1341 C 0.36035 0.34597 0.9778 0.0
C1342 C 0.33409 0.24056 1.00224 0.0
C1343 C 0.3454 0.40826 0.99179 0.0
H1344 H 0.23286 0.36719 0.02427 0.0
H1345 H 0.37227 0.35843 0.03456 0.0
H1346 H 0.24859 0.36396 0.99541 0.0
H1347 H 0.24439 0.30525 0.99905 0.0
H1348 H 0.20868 0.34627 0.00608 0.0
H1349 H 0.43122 0.34098 0.02206 0.0
H1350 H 0.4149 0.29947 0.01165 0.0
H1351 H 0.42035 0.3577 0.00767 0.0
H1352 H 0.36105 0.23109 0.98046 0.0
H1353 H 0.36623 0.37207 0.97151 0.0
H1354 H 0.29872 0.24403 0.00536 0.0
H1355 H 0.35683 0.24337 0.00966 0.0
H1356 H 0.33826 0.20626 0.99848 0.0
H1357 H 0.31021 0.41689 0.99434 0.0
H1358 H 0.35527 0.43051 0.98462 0.0
H1359 H 0.3678 0.41587 0.99908 0.0
C1360 C 0.61115 0.79871 0.27209 0.0
C1361 C 0.64435 0.79419 0.2805 0.0
C1362 C 0.62291 0.81235 0.26109 0.0
C1363 C 0.66914 0.81998 0.25833 0.0
C1364 C 0.70285 0.81405 0.2667 0.0
C1365 C 0.68996 0.8021 0.27769 0.0
C1366 C 0.58581 0.81948 0.25248 0.0
C1367 C 0.75265 0.82016 0.26404 0.0
C1368 C 0.70214 0.81234 0.2274 0.0
C1369 C 0.70837 0.85809 0.22449 0.0
C1370 C 0.69017 0.79948 0.2384 0.0
C1371 C 0.68251 0.83331 0.24665 0.0
C1372 C 0.68855 0.87966 0.24379 0.0
C1373 C 0.70229 0.89144 0.2328 0.0
C1374 C 0.68585 0.74962 0.24119 0.0
C1375 C 0.67959 0.91684 0.25227 0.0
H1376 H 0.57582 0.793 0.27419 0.0
H1377 H 0.71587 0.79872 0.28408 0.0
H1378 H 0.5877 0.85452 0.24906 0.0
H1379 H 0.59051 0.79588 0.24528 0.0
H1380 H 0.55142 0.81401 0.25609 0.0
H1381 H 0.77475 0.81218 0.27137 0.0
H1382 H 0.76248 0.79786 0.25689 0.0
H1383 H 0.75927 0.85566 0.26139 0.0
H1384 H 0.7068 0.78632 0.22109 0.0
H1385 H 0.70679 0.92686 0.23063 0.0
H1386 H 0.65049 0.74175 0.24373 0.0
H1387 H 0.70813 0.74099 0.24843 0.0
H1388 H 0.69507 0.72753 0.23394 0.0
H1389 H 0.64447 0.91376 0.25559 0.0
H1390 H 0.68391 0.95124 0.24858 0.0
H1391 H 0.70299 0.91338 0.25955 0.0
C1392 C 0.16999 0.23333 0.48025 0.0
C1393 C 0.13577 0.20894 0.47476 0.0
C1394 C 0.18429 0.2211 0.49115 0.0
C1395 C 0.16343 0.18386 0.49668 0.0
C1396 C 0.12821 0.15965 0.49117 0.0
C1397 C 0.11509 0.17226 0.48021 0.0
C1398 C 0.22219 0.24752 0.49666 0.0
C1399 C 0.10476 0.12011 0.49681 0.0
C1400 C 0.22527 0.12462 0.52081 0.0
C1401 C 0.20449 0.14419 0.5303 0.0
C1402 C 0.21261 0.13752 0.50981 0.0
C1403 C 0.1781 0.17049 0.50826 0.0
C1404 C 0.15715 0.19045 0.51778 0.0
C1405 C 0.17067 0.17723 0.52865 0.0
C1406 C 0.236 0.11573 0.49986 0.0
C1407 C 0.12002 0.22546 0.51651 0.0
H1408 H 0.18622 0.26137 0.47591 0.0
H1409 H 0.08911 0.15306 0.47582 0.0
H1410 H 0.21016 0.26253 0.50471 0.0
H1411 H 0.25074 0.2244 0.49873 0.0
H1412 H 0.23516 0.27522 0.49117 0.0
H1413 H 0.07728 0.1056 0.4915 0.0
H1414 H 0.12979 0.09297 0.49867 0.0
H1415 H 0.08997 0.13104 0.50498 0.0
H1416 H 0.25138 0.0991 0.52196 0.0
H1417 H 0.1542 0.19265 0.53587 0.0
H1418 H 0.2515 0.14224 0.49443 0.0
H1419 H 0.21079 0.09729 0.49462 0.0
H1420 H 0.26291 0.0915 0.50248 0.0
H1421 H 0.13273 0.25494 0.51162 0.0
H1422 H 0.10721 0.23781 0.52477 0.0
H1423 H 0.09117 0.21077 0.51172 0.0
C1424 C 0.77478 0.63999 0.73434 0.0
C1425 C 0.80653 0.63502 0.72563 0.0
C1426 C 0.78855 0.65341 0.74521 0.0
C1427 C 0.8353 0.66061 0.74748 0.0
C1428 C 0.86753 0.65439 0.73875 0.0
C1429 C 0.85268 0.64238 0.7279 0.0
C1430 C 0.75304 0.66076 0.75422 0.0
C1431 C 0.91775 0.66029 0.74087 0.0
C1432 C 0.87104 0.73254 0.77272 0.0
C1433 C 0.87823 0.69927 0.78098 0.0
C1434 C 0.85664 0.72052 0.7618 0.0
C1435 C 0.85065 0.67407 0.759 0.0
C1436 C 0.85944 0.64035 0.76723 0.0
C1437 C 0.87241 0.6534 0.77816 0.0
C1438 C 0.84658 0.75753 0.75335 0.0
C1439 C 0.85487 0.59046 0.76453 0.0
H1440 H 0.73904 0.63486 0.73255 0.0
H1441 H 0.87735 0.63834 0.72118 0.0
H1442 H 0.75913 0.63747 0.76141 0.0
H1443 H 0.75543 0.69594 0.75752 0.0
H1444 H 0.71805 0.65506 0.75101 0.0
H1445 H 0.93849 0.65267 0.73327 0.0
H1446 H 0.9249 0.69564 0.74356 0.0
H1447 H 0.92876 0.6376 0.74783 0.0
H1448 H 0.87489 0.76804 0.77495 0.0
H1449 H 0.87806 0.62759 0.78453 0.0
H1450 H 0.8107 0.75507 0.75056 0.0
H1451 H 0.86816 0.75326 0.74575 0.0
H1452 H 0.85247 0.79198 0.75687 0.0
H1453 H 0.81918 0.5825 0.7623 0.0
H1454 H 0.86516 0.5685 0.77171 0.0
H1455 H 0.87612 0.5818 0.7571 0.0
C1456 C 0.08857 0.02937 0.19619 0.0
C1457 C 0.10833 0.0392 0.2067 0.0
C1458 C 0.04528 0.00973 0.19545 0.0
C1459 C 0.02075 1.00014 0.20544 0.0
C1460 C 0.03994 0.011 0.21606 0.0
C1461 C 0.08359 0.03021 0.21657 0.0
C1462 C 0.02606 0.99862 0.18396 0.0
C1463 C 0.01452 0.00194 0.2269 0.0
C1464 C 0.89296 0.99034 0.20249 0.0
C1465 C 0.88624 0.94311 0.20247 0.0
C1466 C 0.93636 0.00919 0.20364 0.0
C1467 C 0.97435 0.9802 0.20472 0.0
C1468 C 0.96798 0.93247 0.2048 0.0
C1469 C 0.92389 0.91443 0.20373 0.0
C1470 C 0.94153 0.06023 0.20361 0.0
C1471 C 0.00782 0.9005 0.20584 0.0
H1472 H 0.10747 0.03577 0.18851 0.0
H1473 H 0.09859 0.03755 0.22472 0.0
H1474 H 0.0182 0.96184 0.18343 0.0
H1475 H 0.99377 0.01727 0.18264 0.0
H1476 H 0.04981 0.00749 0.17701 0.0
H1477 H 0.03398 0.01274 0.23446 0.0
H1478 H 0.98155 0.02016 0.22682 0.0
H1479 H 0.00691 0.96518 0.22764 0.0
H1480 H 0.86415 0.01292 0.20164 0.0
H1481 H 0.91902 0.87796 0.20371 0.0
H1482 H 0.96264 0.07089 0.19633 0.0
H1483 H 0.95929 0.0715 0.21138 0.0
H1484 H 0.90833 0.07804 0.2031 0.0
H1485 H 0.03148 0.90576 0.19867 0.0
H1486 H 0.99715 0.86433 0.20595 0.0
H1487 H 0.02695 0.90784 0.2137 0.0
C1488 C 0.07405 0.43437 0.43966 0.0
C1489 C 0.06048 0.39833 0.4466 0.0
C1490 C 0.05056 0.47597 0.43982 0.0
C1491 C 0.01311 0.48173 0.44721 0.0
C1492 C 1.00038 0.44596 0.45451 0.0
C1493 C 0.02403 0.4047 0.45408 0.0
C1494 C 0.06498 0.51331 0.43186 0.0
C1495 C 0.96123 0.45096 0.46266 0.0
C1496 C 0.97763 0.60242 0.45413 0.0
C1497 C 0.94011 0.60872 0.44698 0.0
C1498 C 1.00115 0.56107 0.45442 0.0
C1499 C 0.98718 0.52514 0.44731 0.0
C1500 C 0.9486 0.5308 0.44029 0.0
C1501 C 0.92528 0.5725 0.44026 0.0
C1502 C 0.04154 0.55619 0.46218 0.0
C1503 C 0.93283 0.49329 0.43255 0.0
H1504 H 0.10187 0.42952 0.43379 0.0
H1505 H 0.01346 0.37703 0.45951 0.0
H1506 H 0.03663 0.52168 0.42606 0.0
H1507 H 0.07307 0.54456 0.43668 0.0
H1508 H 0.09512 0.50371 0.42675 0.0
H1509 H 0.95663 0.4204 0.46803 0.0
H1510 H 0.9668 0.48079 0.46821 0.0
H1511 H 0.92931 0.45706 0.45793 0.0
H1512 H 0.98917 0.63025 0.45938 0.0
H1513 H 0.89662 0.5773 0.43465 0.0
H1514 H 0.0727 0.5501 0.45715 0.0
H1515 H 0.0369 0.5264 0.4678 0.0
H1516 H 0.04693 0.5868 0.46749 0.0
H1517 H 0.96014 0.48485 0.42644 0.0
H1518 H 0.9018 0.50275 0.42776 0.0
H1519 H 0.92566 0.46211 0.43749 0.0
C1520 C 0.42881 0.43621 0.69279 0.0
C1521 C 0.39142 0.45129 0.69909 0.0
C1522 C 0.47044 0.45959 0.69314 0.0
C1523 C 0.47498 0.49854 0.70008 0.0
C1524 C 0.43779 0.51298 0.70673 0.0
C1525 C 0.39644 0.48941 0.7061 0.0
C1526 C 0.50921 0.44331 0.68585 0.0
C1527 C 0.44144 0.55377 0.7144 0.0
C1528 C 0.5955 0.53381 0.70746 0.0
C1529 C 0.60347 0.56918 0.69976 0.0
C1530 C 0.55345 0.51146 0.70788 0.0
C1531 C 0.51858 0.5243 0.70031 0.0
C1532 C 0.5259 0.56091 0.69275 0.0
C1533 C 0.56818 0.58317 0.69263 0.0
C1534 C 0.54683 0.47322 0.71621 0.0
C1535 C 0.48968 0.57538 0.68448 0.0
H1536 H 0.42512 0.40707 0.68729 0.0
H1537 H 0.36776 0.5012 0.71103 0.0
H1538 H 0.51905 0.47041 0.67982 0.0
H1539 H 0.53935 0.43592 0.69115 0.0
H1540 H 0.50036 0.41228 0.68099 0.0
H1541 H 0.40992 0.55956 0.71935 0.0
H1542 H 0.47019 0.5493 0.72035 0.0
H1543 H 0.44858 0.58462 0.70933 0.0
H1544 H 0.62259 0.52289 0.71303 0.0
H1545 H 0.57423 0.61013 0.68658 0.0
H1546 H 0.5419 0.4408 0.71161 0.0
H1547 H 0.51585 0.4792 0.72132 0.0
H1548 H 0.57626 0.46935 0.72199 0.0
H1549 H 0.48211 0.54699 0.67862 0.0
H1550 H 0.50006 0.60544 0.67944 0.0
H1551 H 0.45777 0.58356 0.68902 0.0
C1552 C 0.49289 0.11011 0.94987 0.0
C1553 C 0.44575 0.11604 0.95103 0.0
C1554 C 0.51301 0.06713 0.95071 0.0
C1555 C 0.48541 0.02864 0.95264 0.0
C1556 C 0.43775 0.03411 0.95375 0.0
C1557 C 0.41848 0.07782 0.953 0.0
C1558 C 0.56395 0.06298 0.94959 0.0
C1559 C 0.40716 0.99376 0.95569 0.0
C1560 C 0.53448 0.91384 0.94434 0.0
C1561 C 0.54769 0.89599 0.95483 0.0
C1562 C 0.51379 0.95669 0.94353 0.0
C1563 C 0.50669 0.98276 0.95341 0.0
C1564 C 0.5211 0.96551 0.96398 0.0
C1565 C 0.54114 0.92225 0.96458 0.0
C1566 C 0.49874 0.9737 0.9321 0.0
C1567 C 0.51491 0.9926 0.97469 0.0
H1568 H 0.51448 0.13926 0.9484 0.0
H1569 H 0.38208 0.08198 0.95388 0.0
H1570 H 0.57835 0.04695 0.95727 0.0
H1571 H 0.5725 0.04072 0.94234 0.0
H1572 H 0.5807 0.09639 0.94831 0.0
H1573 H 0.3708 0.00357 0.95624 0.0
H1574 H 0.41129 0.96895 0.94872 0.0
H1575 H 0.4169 0.97625 0.96362 0.0
H1576 H 0.53885 0.89369 0.93677 0.0
H1577 H 0.55113 0.90872 0.97271 0.0
H1578 H 0.51595 0.00623 0.93012 0.0
H1579 H 0.46167 0.98047 0.9322 0.0
H1580 H 0.50622 0.94906 0.92525 0.0
H1581 H 0.53219 0.02592 0.9739 0.0
H1582 H 0.52863 0.97473 0.98221 0.0
H1583 H 0.47832 0.99949 0.9761 0.0
C1584 C 0.10344 0.48714 0.05038 0.0
C1585 C 0.10902 0.45009 0.05771 0.0
C1586 C 0.06223 0.51094 0.0498 0.0
C1587 C 0.02566 0.49774 0.05681 0.0
C1588 C 0.03071 0.45983 0.06409 0.0
C1589 C 0.07226 0.43627 0.0644 0.0
C1590 C 0.05807 0.55065 0.0418 0.0
C1591 C 0.99254 0.44485 0.07173 0.0
C1592 C 0.93348 0.58435 0.06368 0.0
C1593 C 0.8979 0.56981 0.05671 0.0
C1594 C 0.97546 0.56149 0.06373 0.0
C1595 C 0.98212 0.5236 0.05653 0.0
C1596 C 0.94688 0.50998 0.04916 0.0
C1597 C 0.90522 0.53306 0.04938 0.0
C1598 C 0.01216 0.57691 0.07175 0.0
C1599 C 0.95276 0.47029 0.04123 0.0
H1600 H 0.1316 0.49797 0.04513 0.0
H1601 H 0.07638 0.40795 0.07015 0.0
H1602 H 0.02901 0.54532 0.036 0.0
H1603 H 0.05116 0.58218 0.04663 0.0
H1604 H 0.08929 0.55579 0.0367 0.0
H1605 H 0.0017 0.41451 0.07682 0.0
H1606 H 0.98333 0.47286 0.07756 0.0
H1607 H 0.9619 0.43683 0.06667 0.0
H1608 H 0.92797 0.6124 0.06944 0.0
H1609 H 0.87794 0.5217 0.04393 0.0
H1610 H 0.04384 0.58436 0.06704 0.0
H1611 H 0.01999 0.54931 0.07782 0.0
H1612 H 0.00216 0.60768 0.07657 0.0
H1613 H 0.98319 0.47544 0.03586 0.0
H1614 H 0.92279 0.46531 0.03567 0.0
H1615 H 0.95831 0.43872 0.04614 0.0
C1616 C 0.51952 0.60338 0.3001 0.0
C1617 C 0.55748 0.60876 0.30716 0.0
C1618 C 0.4957 0.56218 0.29963 0.0
C1619 C 0.50985 0.5254 0.30645 0.0
C1620 C 0.54878 0.53018 0.3134 0.0
C1621 C 0.57232 0.57176 0.31362 0.0
C1622 C 0.45488 0.55832 0.29198 0.0
C1623 C 0.5648 0.49178 0.32084 0.0
C1624 C 0.42362 0.43374 0.31397 0.0
C1625 C 0.43678 0.39826 0.3068 0.0
C1626 C 0.44688 0.47548 0.31389 0.0
C1627 C 0.48375 0.48201 0.30636 0.0
C1628 C 0.49599 0.44688 0.29881 0.0
C1629 C 0.47253 0.40546 0.29916 0.0
C1630 C 0.43293 0.51209 0.32211 0.0
C1631 C 0.53455 0.45266 0.29053 0.0
H1632 H 0.50792 0.63175 0.29503 0.0
H1633 H 0.60134 0.57574 0.31915 0.0
H1634 H 0.45917 0.52925 0.28613 0.0
H1635 H 0.42399 0.55162 0.29708 0.0
H1636 H 0.44923 0.58959 0.28693 0.0
H1637 H 0.59604 0.50063 0.3256 0.0
H1638 H 0.53774 0.48268 0.32695 0.0
H1639 H 0.57172 0.46117 0.31566 0.0
H1640 H 0.39635 0.42833 0.31997 0.0
H1641 H 0.48282 0.37826 0.29355 0.0
H1642 H 0.42485 0.54387 0.31751 0.0
H1643 H 0.46154 0.5197 0.3279 0.0
H1644 H 0.40293 0.50214 0.32722 0.0
H1645 H 0.52875 0.48316 0.28523 0.0
H1646 H 0.5386 0.42272 0.28492 0.0
H1647 H 0.56683 0.45804 0.29517 0.0
C1648 C 0.57018 0.91945 0.56393 0.0
C1649 C 0.60661 0.934 0.55723 0.0
C1650 C 0.52826 0.94235 0.56366 0.0
C1651 C 0.52256 0.98028 0.55643 0.0
C1652 C 0.55869 0.99393 0.54933 0.0
C1653 C 0.60025 0.97079 0.54985 0.0
C1654 C 0.49054 0.92689 0.57138 0.0
C1655 C 0.55384 0.03371 0.54138 0.0
C1656 C 0.4021 0.01687 0.54941 0.0
C1657 C 0.39561 0.05367 0.55678 0.0
C1658 C 0.44338 0.99313 0.5491 0.0
C1659 C 0.47907 0.00619 0.55639 0.0
C1660 C 0.47319 0.04396 0.56367 0.0
C1661 C 0.43159 0.06743 0.56373 0.0
C1662 C 0.44849 0.95356 0.54109 0.0
C1663 C 0.51044 0.05882 0.5716 0.0
H1664 H 0.57495 0.89133 0.56971 0.0
H1665 H 0.62817 0.98211 0.5446 0.0
H1666 H 0.48194 0.95445 0.5774 0.0
H1667 H 0.45948 0.9195 0.56642 0.0
H1668 H 0.49989 0.89608 0.57627 0.0
H1669 H 0.58453 0.03874 0.53607 0.0
H1670 H 0.52413 0.02862 0.53576 0.0
H1671 H 0.54766 0.06522 0.54626 0.0
H1672 H 0.37455 0.00611 0.54397 0.0
H1673 H 0.42676 0.09556 0.5695 0.0
H1674 H 0.45463 0.92193 0.54594 0.0
H1675 H 0.47834 0.95888 0.53553 0.0
H1676 H 0.41795 0.94862 0.53573 0.0
H1677 H 0.51882 0.03077 0.5775 0.0
H1678 H 0.50076 0.08918 0.57661 0.0
H1679 H 0.54173 0.06673 0.56677 0.0
C1680 C 0.00833 0.1113 0.80297 0.0
C1681 C 0.05563 0.11759 0.80287 0.0
C1682 C 0.98904 0.06801 0.80193 0.0
C1683 C 0.01763 0.02971 0.80085 0.0
C1684 C 0.06543 0.03568 0.80065 0.0
C1685 C 0.0839 0.07964 0.8016 0.0
C1686 C 0.93795 0.0633 0.80206 0.0
C1687 C 0.09702 0.99556 0.7996 0.0
C1688 C 0.96859 0.91534 0.80944 0.0
C1689 C 0.95884 0.89549 0.79894 0.0
C1690 C 0.98792 0.95882 0.81017 0.0
C1691 C 0.99729 0.98342 0.80017 0.0
C1692 C 0.98629 0.96419 0.78956 0.0
C1693 C 0.96739 0.92041 0.78907 0.0
C1694 C 0.99919 0.97806 0.82165 0.0
C1695 C 0.99509 0.98962 0.77872 0.0
H1696 H 0.98607 0.14037 0.80383 0.0
H1697 H 0.12042 0.08418 0.80154 0.0
H1698 H 0.92629 0.04565 0.79431 0.0
H1699 H 0.92733 0.04227 0.80937 0.0
H1700 H 0.92046 0.09665 0.80261 0.0
H1701 H 0.13329 0.00589 0.79945 0.0
H1702 H 0.09167 0.97201 0.80679 0.0
H1703 H 0.08939 0.97642 0.79176 0.0
H1704 H 0.96255 0.89632 0.81713 0.0
H1705 H 0.96009 0.90537 0.78093 0.0
H1706 H 0.98094 0.01059 0.82294 0.0
H1707 H 0.03607 0.98547 0.82217 0.0
H1708 H 0.99002 0.9545 0.82861 0.0
H1709 H 0.97726 0.0228 0.77887 0.0
H1710 H 0.98372 0.97035 0.77117 0.0
H1711 H 0.03191 0.9968 0.77787 0.0
C1712 C 0.57174 0.92201 0.1793 0.0
C1713 C 0.59993 0.93264 0.18845 0.0
C1714 C 0.52946 0.94375 0.17796 0.0
C1715 C 0.51512 0.97622 0.18605 0.0
C1716 C 0.54321 0.98629 0.19539 0.0
C1717 C 0.58513 0.96452 0.19645 0.0
C1718 C 0.50035 0.93241 0.16787 0.0
C1719 C 0.52895 0.01999 0.20434 0.0
C1720 C 0.4238 0.06538 0.18129 0.0
C1721 C 0.38699 0.04616 0.18709 0.0
C1722 C 0.46516 0.04179 0.18027 0.0
C1723 C 0.46983 0.99828 0.18525 0.0
C1724 C 0.43236 0.97816 0.19077 0.0
C1725 C 0.39154 0.00219 0.19159 0.0
C1726 C 0.5044 0.06415 0.17425 0.0
C1727 C 0.43601 0.93216 0.19635 0.0
H1728 H 0.58321 0.89772 0.17305 0.0
H1729 H 0.60649 0.97263 0.20361 0.0
H1730 H 0.46711 0.91886 0.17071 0.0
H1731 H 0.49341 0.96366 0.16294 0.0
H1732 H 0.51666 0.90702 0.16225 0.0
H1733 H 0.55514 0.02436 0.211 0.0
H1734 H 0.52218 0.05356 0.20045 0.0
H1735 H 0.49697 0.00855 0.2084 0.0
H1736 H 0.42063 0.09911 0.17772 0.0
H1737 H 0.36345 0.98666 0.19605 0.0
H1738 H 0.52002 0.04022 0.16815 0.0
H1739 H 0.53095 0.07351 0.18047 0.0
H1740 H 0.49381 0.09532 0.16967 0.0
H1741 H 0.4504 0.90691 0.1904 0.0
H1742 H 0.40264 0.91951 0.19939 0.0
H1743 H 0.45942 0.93434 0.20367 0.0
C1744 C 0.98567 0.90523 0.44215 0.0
C1745 C 0.94389 0.89712 0.43678 0.0
C1746 C 0.00818 0.94676 0.44107 0.0
C1747 C 0.98886 0.98133 0.43434 0.0
C1748 C 0.94752 0.97313 0.42855 0.0
C1749 C 0.92528 0.93114 0.4299 0.0
C1750 C 0.05174 0.95424 0.44756 0.0
C1751 C 0.92625 0.00912 0.42119 0.0
C1752 C 0.0196 0.0996 0.444 0.0
C1753 C 0.05614 0.11066 0.43689 0.0
C1754 C 0.99646 0.05839 0.44295 0.0
C1755 C 0.00969 0.02731 0.43448 0.0
C1756 C 0.04566 0.03859 0.42703 0.0
C1757 C 0.0688 0.08008 0.42838 0.0
C1758 C 0.95896 0.04743 0.45123 0.0
C1759 C 0.06026 0.00643 0.41781 0.0
H1760 H 1.00065 0.87935 0.44747 0.0
H1761 H 0.89329 0.92511 0.42563 0.0
H1762 H 0.07899 0.96613 0.44182 0.0
H1763 H 0.04648 0.98106 0.45401 0.0
H1764 H 0.06361 0.92297 0.4519 0.0
H1765 H 0.89699 0.99583 0.41629 0.0
H1766 H 0.91423 0.03766 0.42652 0.0
H1767 H 0.95178 0.02307 0.41524 0.0
H1768 H 0.00944 0.12282 0.45063 0.0
H1769 H 0.09664 0.08857 0.42278 0.0
H1770 H 0.969 0.01787 0.45647 0.0
H1771 H 0.92749 0.03795 0.44666 0.0
H1772 H 0.95118 0.07636 0.45693 0.0
H1773 H 0.07563 0.97561 0.4216 0.0
H1774 H 0.08545 0.02209 0.41202 0.0
H1775 H 0.03038 0.99528 0.41283 0.0
C1776 C 0.07317 0.42539 0.67894 0.0
C1777 C 0.10443 0.44272 0.68677 0.0
C1778 C 0.03023 0.44575 0.67755 0.0
C1779 C 0.01828 0.48386 0.68423 0.0
C1780 C 0.04995 0.50174 0.69201 0.0
C1781 C 0.09246 0.48116 0.69314 0.0
C1782 C 0.9974 0.42613 0.66908 0.0
C1783 C 0.03851 0.54193 0.69942 0.0
C1784 C 0.92044 0.56493 0.67863 0.0
C1785 C 0.88815 0.54947 0.68644 0.0
C1786 C 0.96203 0.54206 0.67723 0.0
C1787 C 0.97167 0.5033 0.6839 0.0
C1788 C 0.93847 0.48657 0.69145 0.0
C1789 C 0.89717 0.50963 0.69257 0.0
C1790 C 0.99641 0.56054 0.66898 0.0
C1791 C 0.94752 0.4458 0.69886 0.0
H1792 H 0.08218 0.39598 0.67392 0.0
H1793 H 0.11613 0.49508 0.69922 0.0
H1794 H 0.96761 0.41167 0.67354 0.0
H1795 H 0.98461 0.45325 0.66341 0.0
H1796 H 0.01314 0.399 0.66387 0.0
H1797 H 0.06759 0.55264 0.70477 0.0
H1798 H 0.02787 0.57123 0.69417 0.0
H1799 H 0.00959 0.53324 0.70503 0.0
H1800 H 0.91365 0.59534 0.67376 0.0
H1801 H 0.87251 0.49702 0.69859 0.0
H1802 H 0.01069 0.53272 0.66375 0.0
H1803 H 0.025 0.57617 0.67367 0.0
H1804 H 0.98149 0.58663 0.66331 0.0
H1805 H 0.9601 0.41691 0.69374 0.0
H1806 H 0.91676 0.4347 0.70353 0.0
H1807 H 0.97436 0.45427 0.70509 0.0
C1808 C 0.42438 0.43222 0.92904 0.0
C1809 C 0.43786 0.40301 0.93778 0.0
C1810 C 0.44546 0.4747 0.92757 0.0
C1811 C 0.48033 0.48833 0.93508 0.0
C1812 C 0.49383 0.45904 0.94392 0.0
C1813 C 0.47262 0.41683 0.94513 0.0
C1814 C 0.4305 0.50499 0.91799 0.0
C1815 C 0.53039 0.47247 0.95223 0.0
C1816 C 0.56627 0.58128 0.92889 0.0
C1817 C 0.54889 0.61733 0.93531 0.0
C1818 C 0.54299 0.53969 0.9282 0.0
C1819 C 0.50164 0.53396 0.93415 0.0
C1820 C 0.48311 0.57076 0.94027 0.0
C1821 C 0.50679 0.61194 0.94074 0.0
C1822 C 0.56358 0.50127 0.9215 0.0
C1823 C 0.4394 0.56598 0.94685 0.0
H1824 H 0.3978 0.42168 0.92329 0.0
H1825 H 0.48324 0.3947 0.95194 0.0
H1826 H 0.41681 0.53729 0.92139 0.0
H1827 H 0.46004 0.5137 0.9126 0.0
H1828 H 0.40403 0.48881 0.91266 0.0
H1829 H 0.53735 0.44543 0.95853 0.0
H1830 H 0.5624 0.48024 0.94769 0.0
H1831 H 0.52008 0.50371 0.95679 0.0
H1832 H 0.59858 0.58511 0.92461 0.0
H1833 H 0.49275 0.63952 0.94568 0.0
H1834 H 0.53775 0.48584 0.91587 0.0
H1835 H 0.57544 0.47433 0.92734 0.0
H1836 H 0.59287 0.51265 0.91631 0.0
H1837 H 0.41221 0.55194 0.9414 0.0
H1838 H 0.42762 0.59886 0.95039 0.0
H1839 H 0.44449 0.5418 0.95392 0.0
C1840 C 0.57797 0.57391 0.07561 0.0
C1841 C 0.61162 0.5566 0.06841 0.0
C1842 C 0.53605 0.55151 0.07684 0.0
C1843 C 0.52757 0.51121 0.07066 0.0
C1844 C 0.56196 0.49283 0.0637 0.0
C1845 C 0.60346 0.51558 0.0627 0.0
C1846 C 0.50025 0.57184 0.08442 0.0
C1847 C 0.55421 0.45027 0.05684 0.0
C1848 C 0.4272 0.43281 0.07624 0.0
C1849 C 0.39653 0.44717 0.06792 0.0
C1850 C 0.46946 0.4545 0.07758 0.0
C1851 C 0.48135 0.49091 0.07034 0.0
C1852 C 0.45023 0.50588 0.06205 0.0
C1853 C 0.40831 0.48402 0.06098 0.0
C1854 C 0.5017 0.43797 0.08658 0.0
C1855 C 0.46173 0.54414 0.05404 0.0
H1856 H 0.58401 0.60535 0.08012 0.0
H1857 H 0.62912 0.50159 0.05715 0.0
H1858 H 0.47197 0.58527 0.07922 0.0
H1859 H 0.48585 0.54546 0.09007 0.0
H1860 H 0.51389 0.59997 0.08967 0.0
H1861 H 0.58556 0.43855 0.05251 0.0
H1862 H 0.54159 0.42245 0.06232 0.0
H1863 H 0.52783 0.45679 0.05036 0.0
H1864 H 0.41826 0.40466 0.0817 0.0
H1865 H 0.38501 0.49557 0.05452 0.0
H1866 H 0.51326 0.46686 0.09186 0.0
H1867 H 0.53229 0.42301 0.08258 0.0
H1868 H 0.48594 0.41198 0.09213 0.0
H1869 H 0.47158 0.57493 0.05884 0.0
H1870 H 0.43294 0.55296 0.04839 0.0
H1871 H 0.4912 0.53436 0.04874 0.0
C1872 C 0.43369 0.07849 0.32493 0.0
C1873 C 0.448 0.1113 0.31711 0.0
C1874 C 0.45731 0.0372 0.3261 0.0
C1875 C 0.49572 0.02848 0.31922 0.0
C1876 C 0.5109 0.06192 0.31154 0.0
C1877 C 0.48701 0.10278 0.31061 0.0
C1878 C 0.44039 0.00237 0.33443 0.0
C1879 C 0.55125 0.05382 0.30392 0.0
C1880 C 0.57782 0.93064 0.3244 0.0
C1881 C 0.56123 0.898 0.31684 0.0
C1882 C 0.55593 0.97289 0.32561 0.0
C1883 C 0.51704 0.98273 0.319 0.0
C1884 C 0.50015 0.94982 0.31141 0.0
C1885 C 0.52225 0.90802 0.31046 0.0
C1886 C 0.57461 0.00715 0.33386 0.0
C1887 C 0.45927 0.95912 0.30404 0.0
H1888 H 0.40389 0.08485 0.33006 0.0
H1889 H 0.49864 0.12776 0.30455 0.0
H1890 H 0.42658 0.97263 0.32982 0.0
H1891 H 0.46879 0.99001 0.33976 0.0
H1892 H 0.41331 0.01614 0.34 0.0
H1893 H 0.56069 0.08456 0.29901 0.0
H1894 H 0.5811 0.04289 0.30893 0.0
H1895 H 0.54333 0.02609 0.29789 0.0
H1896 H 0.60765 0.9231 0.32942 0.0
H1897 H 0.50902 0.88327 0.30456 0.0
H1898 H 0.54741 0.01862 0.33968 0.0
H1899 H 0.58685 0.03753 0.32923 0.0
H1900 H 0.60314 0.99322 0.33892 0.0
H1901 H 0.42979 0.96904 0.30931 0.0
H1902 H 0.44951 0.92923 0.29886 0.0
H1903 H 0.46664 0.9879 0.29828 0.0
C1904 C 0.92843 0.92449 0.57529 0.0
C1905 C 0.89423 0.94183 0.56826 0.0
C1906 C 0.97073 0.94647 0.57616 0.0
C1907 C 0.97896 0.98636 0.56979 0.0
C1908 C 0.94423 0.00451 0.56291 0.0
C1909 C 0.90244 0.98217 0.56226 0.0
C1910 C 0.007 0.92639 0.58364 0.0
C1911 C 0.9517 0.04666 0.55587 0.0
C1912 C 0.07795 0.06649 0.5751 0.0
C1913 C 0.10863 0.05269 0.56671 0.0
C1914 C 0.03625 0.04396 0.57656 0.0
C1915 C 0.02491 0.00715 0.5694 0.0
C1916 C 0.05603 0.99268 0.56105 0.0
C1917 C 0.0974 0.01549 0.55984 0.0
C1918 C 0.00392 0.0601 0.58559 0.0
C1919 C 0.04506 0.95399 0.55313 0.0
H1920 H 0.9224 0.89354 0.58 0.0
H1921 H 0.87644 0.99613 0.5568 0.0
H1922 H 0.03546 0.91372 0.57837 0.0
H1923 H 0.02102 0.9528 0.58933 0.0
H1924 H 0.99396 0.89782 0.58883 0.0
H1925 H 0.92032 0.05781 0.55146 0.0
H1926 H 0.96391 0.07495 0.56124 0.0
H1927 H 0.97828 0.04001 0.54944 0.0
H1928 H 0.08643 0.09489 0.58051 0.0
H1929 H 0.12073 0.00436 0.55333 0.0
H1930 H 0.99293 0.03113 0.59092 0.0
H1931 H 0.97303 0.07453 0.58161 0.0
H1932 H 0.01937 0.08644 0.59109 0.0
H1933 H 0.03541 0.9233 0.55799 0.0
H1934 H 0.07404 0.94527 0.54753 0.0
H1935 H 0.01558 0.96329 0.54778 0.0
C1936 C 0.00854 0.61362 0.81432 0.0
C1937 C 0.96718 0.6191 0.82008 0.0
C1938 C 0.03311 0.57298 0.81496 0.0
C1939 C 0.0163 0.5369 0.82163 0.0
C1940 C 0.97616 0.54313 0.82805 0.0
C1941 C 0.95188 0.58408 0.82715 0.0
C1942 C 0.07536 0.56764 0.80785 0.0
C1943 C 0.95746 0.5056 0.83538 0.0
C1944 C 0.0387 0.41845 0.8107 0.0
C1945 C 0.07462 0.4036 0.81756 0.0
C1946 C 0.01966 0.46157 0.812 0.0
C1947 C 0.03658 0.49088 0.82045 0.0
C1948 C 0.07309 0.47649 0.82739 0.0
C1949 C 0.092 0.43298 0.82581 0.0
C1950 C 0.98134 0.4757 0.80426 0.0
C1951 C 0.09164 0.50679 0.83656 0.0
H1952 H 0.02106 0.64049 0.8089 0.0
H1953 H 0.92028 0.58808 0.83173 0.0
H1954 H 0.10341 0.55294 0.81291 0.0
H1955 H 0.06834 0.54382 0.80081 0.0
H1956 H 0.08691 0.60044 0.80422 0.0
H1957 H 0.93027 0.51794 0.84111 0.0
H1958 H 0.94312 0.47847 0.82995 0.0
H1959 H 0.98488 0.49014 0.84052 0.0
H1960 H 0.02531 0.39627 0.80422 0.0
H1961 H 0.11953 0.42159 0.83118 0.0
H1962 H 0.99094 0.50684 0.79956 0.0
H1963 H 0.95062 0.48385 0.80929 0.0
H1964 H 0.97239 0.44886 0.79806 0.0
H1965 H 0.10383 0.53919 0.83288 0.0
H1966 H 0.12006 0.49063 0.84124 0.0
H1967 H 0.06425 0.51535 0.84263 0.0
loop_
_geom_bond_atom_site_label_1
_geom_bond_atom_site_label_2
_geom_bond_distance
_geom_bond_site_symmetry_2
_ccdc_geom_bond_type
Co0 O2 2.143 . S
Co0 O8 2.074 . S
Co0 O11 2.093 . S
Co0 O24 2.097 . S
Co0 N41 2.151 . S
Co0 N49 2.214 . S
Co1 O2 2.160 . S
Co1 O7 2.058 . S
Co1 O17 2.057 . S
Co1 O32 2.037 . S
Co1 N36 2.145 1_545 S
Co1 N57 2.257 . S
O2 Co0 2.143 . S
O2 Co1 2.160 . S
C3 O4 1.278 . S
C3 O11 1.224 . S
O4 C3 1.278 . S
C5 O6 1.245 . S
C5 O17 1.232 . S
O6 C5 1.245 . S
O7 Co1 2.058 . S
O7 C33 1.269 . S
O8 Co0 2.074 . S
O8 C33 1.257 . S
H9 C34 0.930 . S
H10 C40 0.930 . S
O11 Co0 2.093 . S
O11 C3 1.224 . S
H12 C44 0.929 . S
H13 C46 0.930 . S
H14 C47 0.930 . S
H15 C45 0.929 . S
H16 C48 0.928 . S
O17 Co1 2.057 . S
O17 C5 1.232 . S
H18 C37 0.929 1_545 S
H19 C38 0.929 . S
H20 C50 0.931 . S
H21 C42 0.929 . S
H22 C51 0.930 . S
H23 C43 0.931 . S
O24 Co0 2.097 . S
O24 C52 1.214 . S
H25 C53 0.929 . S
H26 C54 0.929 . S
H27 C55 0.930 . S
H28 C56 0.929 . S
H29 C58 0.930 . S
H30 C35 0.930 . S
H31 C39 0.930 . S
O32 Co1 2.037 . S
O32 C52 1.234 . S
C33 O7 1.269 . S
C33 O8 1.257 . S
C34 H9 0.930 . S
C34 C37 1.388 . S
C34 C39 1.418 . S
C35 H30 0.930 . S
C35 C38 1.404 . S
C35 C39 1.353 . S
N36 Co1 2.145 1_565 S
N36 C37 1.397 . S
N36 C38 1.334 . S
C37 H18 0.929 1_565 S
C37 C34 1.388 . S
C37 N36 1.397 . S
C38 H19 0.929 . S
C38 C35 1.404 . S
C38 N36 1.334 . S
C39 H31 0.930 . S
C39 C34 1.418 . S
C39 C35 1.353 . S
C40 H10 0.930 . S
C40 N41 1.330 . S
C40 C42 1.446 . S
N41 Co0 2.151 . S
N41 C40 1.330 . S
N41 C45 1.418 . S
C42 H21 0.929 . S
C42 C40 1.446 . S
C42 C43 1.332 . S
C43 H23 0.931 . S
C43 C42 1.332 . S
C43 C44 1.267 . S
C44 H12 0.929 . S
C44 C43 1.267 . S
C44 C45 1.251 . S
C45 H15 0.929 . S
C45 N41 1.418 . S
C45 C44 1.251 . S
C46 H13 0.930 . S
C46 C48 1.406 . S
C46 C51 1.261 . S
C47 H14 0.930 . S
C47 N49 1.325 . S
C47 C50 1.357 . S
C48 H16 0.928 . S
C48 C46 1.406 . S
C48 N49 1.261 . S
N49 Co0 2.214 . S
N49 C47 1.325 . S
N49 C48 1.261 . S
C50 H20 0.931 . S
C50 C47 1.357 . S
C50 C51 1.312 . S
C51 H22 0.930 . S
C51 C46 1.261 . S
C51 C50 1.312 . S
C52 O24 1.214 . S
C52 O32 1.234 . S
C53 H25 0.929 . S
C53 C56 1.391 1_545 S
C53 C58 1.391 . S
C54 H26 0.929 . S
C54 C55 1.390 . S
C54 N57 1.391 1_565 S
C55 H27 0.930 . S
C55 C54 1.390 . S
C55 C56 1.392 . S
C56 H28 0.929 . S
C56 C53 1.391 1_565 S
C56 C55 1.392 . S
N57 Co1 2.257 . S
N57 C54 1.391 1_545 S
N57 C58 1.388 . S
C58 H29 0.930 . S
C58 C53 1.391 . S
C58 N57 1.388 . S
Co59 O61 2.143 . S
Co59 O67 2.074 . S
Co59 O70 2.093 . S
Co59 O83 2.097 . S
Co59 N100 2.151 . S
Co59 N108 2.214 . S
Co60 O61 2.160 . S
Co60 O66 2.058 . S
Co60 O76 2.057 . S
Co60 O91 2.037 . S
Co60 N95 2.145 1_655 S
Co60 N116 2.257 . S
O61 Co59 2.143 . S
O61 Co60 2.160 . S
C62 O63 1.278 . S
C62 O70 1.224 . S
O63 C62 1.278 . S
C64 O65 1.245 . S
C64 O76 1.232 . S
O65 C64 1.245 . S
O66 Co60 2.058 . S
O66 C92 1.269 . S
O67 Co59 2.074 . S
O67 C92 1.257 . S
H68 C93 0.930 . S
H69 C99 0.930 . S
O70 Co59 2.093 . S
O70 C62 1.224 . S
H71 C103 0.929 . S
H72 C105 0.930 . S
H73 C106 0.930 . S
H74 C104 0.929 . S
H75 C107 0.928 . S
O76 Co60 2.057 . S
O76 C64 1.232 . S
H77 C96 0.929 1_655 S
H78 C97 0.929 . S
H79 C109 0.931 . S
H80 C101 0.929 . S
H81 C110 0.930 . S
H82 C102 0.931 . S
O83 Co59 2.097 . S
O83 C111 1.214 . S
H84 C112 0.929 . S
H85 C113 0.929 . S
H86 C114 0.930 . S
H87 C115 0.929 . S
H88 C117 0.930 . S
H89 C94 0.930 . S
H90 C98 0.930 . S
O91 Co60 2.037 . S
O91 C111 1.234 . S
C92 O66 1.269 . S
C92 O67 1.257 . S
C93 H68 0.930 . S
C93 C96 1.388 . S
C93 C98 1.418 . S
C94 H89 0.930 . S
C94 C97 1.404 . S
C94 C98 1.353 . S
N95 Co60 2.145 1_455 S
N95 C96 1.397 . S
N95 C97 1.334 . S
C96 H77 0.929 1_455 S
C96 C93 1.388 . S
C96 N95 1.397 . S
C97 H78 0.929 . S
C97 C94 1.404 . S
C97 N95 1.334 . S
C98 H90 0.930 . S
C98 C93 1.418 . S
C98 C94 1.353 . S
C99 H69 0.930 . S
C99 N100 1.330 . S
C99 C101 1.446 . S
N100 Co59 2.151 . S
N100 C99 1.330 . S
N100 C104 1.418 . S
C101 H80 0.929 . S
C101 C99 1.446 . S
C101 C102 1.332 . S
C102 H82 0.931 . S
C102 C101 1.332 . S
C102 C103 1.267 . S
C103 H71 0.929 . S
C103 C102 1.267 . S
C103 C104 1.251 . S
C104 H74 0.929 . S
C104 N100 1.418 . S
C104 C103 1.251 . S
C105 H72 0.930 . S
C105 C107 1.406 . S
C105 C110 1.261 . S
C106 H73 0.930 . S
C106 N108 1.325 . S
C106 C109 1.357 . S
C107 H75 0.928 . S
C107 C105 1.406 . S
C107 N108 1.261 . S
N108 Co59 2.214 . S
N108 C106 1.325 . S
N108 C107 1.261 . S
C109 H79 0.931 . S
C109 C106 1.357 . S
C109 C110 1.312 . S
C110 H81 0.930 . S
C110 C105 1.261 . S
C110 C109 1.312 . S
C111 O83 1.214 . S
C111 O91 1.234 . S
C112 H84 0.929 . S
C112 C115 1.391 1_655 S
C112 C117 1.391 . S
C113 H85 0.929 . S
C113 C114 1.390 . S
C113 N116 1.391 1_455 S
C114 H86 0.930 . S
C114 C113 1.390 . S
C114 C115 1.392 . S
C115 H87 0.929 . S
C115 C112 1.391 1_455 S
C115 C114 1.392 . S
N116 Co60 2.257 . S
N116 C113 1.391 1_655 S
N116 C117 1.388 . S
C117 H88 0.930 . S
C117 C112 1.391 . S
C117 N116 1.388 . S
Co118 O120 2.143 . S
Co118 O126 2.074 . S
Co118 O129 2.093 . S
Co118 O142 2.097 . S
Co118 N159 2.151 . S
Co118 N167 2.214 . S
Co119 O120 2.160 . S
Co119 O125 2.058 . S
Co119 O135 2.057 . S
Co119 O150 2.037 . S
Co119 N154 2.145 . S
Co119 N175 2.257 . S
O120 Co118 2.143 . S
O120 Co119 2.160 . S
C121 O122 1.278 . S
C121 O129 1.224 . S
O122 C121 1.278 . S
C123 O124 1.245 . S
C123 O135 1.232 . S
O124 C123 1.245 . S
O125 Co119 2.058 . S
O125 C151 1.269 . S
O126 Co118 2.074 . S
O126 C151 1.257 . S
H127 C152 0.930 . S
H128 C158 0.930 . S
O129 Co118 2.093 . S
O129 C121 1.224 . S
H130 C162 0.929 . S
H131 C164 0.930 . S
H132 C165 0.930 . S
H133 C163 0.929 . S
H134 C166 0.928 . S
O135 Co119 2.057 . S
O135 C123 1.232 . S
H136 C155 0.929 . S
H137 C156 0.929 . S
H138 C168 0.931 . S
H139 C160 0.929 . S
H140 C169 0.930 . S
H141 C161 0.931 . S
O142 Co118 2.097 . S
O142 C170 1.214 . S
H143 C171 0.929 . S
H144 C172 0.929 . S
H145 C173 0.930 . S
H146 C174 0.929 . S
H147 C176 0.930 . S
H148 C153 0.930 . S
H149 C157 0.930 . S
O150 Co119 2.037 . S
O150 C170 1.234 . S
C151 O125 1.269 . S
C151 O126 1.257 . S
C152 H127 0.930 . S
C152 C155 1.388 . S
C152 C157 1.418 . S
C153 H148 0.930 . S
C153 C156 1.404 . S
C153 C157 1.353 . S
N154 Co119 2.145 . S
N154 C155 1.397 . S
N154 C156 1.334 . S
C155 H136 0.929 . S
C155 C152 1.388 . S
C155 N154 1.397 . S
C156 H137 0.929 . S
C156 C153 1.404 . S
C156 N154 1.334 . S
C157 H149 0.930 . S
C157 C152 1.418 . S
C157 C153 1.353 . S
C158 H128 0.930 . S
C158 N159 1.330 . S
C158 C160 1.446 . S
N159 Co118 2.151 . S
N159 C158 1.330 . S
N159 C163 1.418 . S
C160 H139 0.929 . S
C160 C158 1.446 . S
C160 C161 1.332 . S
C161 H141 0.931 . S
C161 C160 1.332 . S
C161 C162 1.267 . S
C162 H130 0.929 . S
C162 C161 1.267 . S
C162 C163 1.251 . S
C163 H133 0.929 . S
C163 N159 1.418 . S
C163 C162 1.251 . S
C164 H131 0.930 . S
C164 C166 1.406 . S
C164 C169 1.261 . S
C165 H132 0.930 . S
C165 N167 1.325 . S
C165 C168 1.357 . S
C166 H134 0.928 . S
C166 C164 1.406 . S
C166 N167 1.261 . S
N167 Co118 2.214 . S
N167 C165 1.325 . S
N167 C166 1.261 . S
C168 H138 0.931 . S
C168 C165 1.357 . S
C168 C169 1.312 . S
C169 H140 0.930 . S
C169 C164 1.261 . S
C169 C168 1.312 . S
C170 O142 1.214 . S
C170 O150 1.234 . S
C171 H143 0.929 . S
C171 C174 1.391 . S
C171 C176 1.391 . S
C172 H144 0.929 . S
C172 C173 1.390 . S
C172 N175 1.391 . S
C173 H145 0.930 . S
C173 C172 1.390 . S
C173 C174 1.392 . S
C174 H146 0.929 . S
C174 C171 1.391 . S
C174 C173 1.392 . S
N175 Co119 2.257 . S
N175 C172 1.391 . S
N175 C176 1.388 . S
C176 H147 0.930 . S
C176 C171 1.391 . S
C176 N175 1.388 . S
Co177 O179 2.143 . S
Co177 O185 2.074 . S
Co177 O188 2.093 . S
Co177 O201 2.097 . S
Co177 N218 2.151 . S
Co177 N226 2.214 . S
Co178 O179 2.160 . S
Co178 O184 2.058 . S
Co178 O194 2.057 . S
Co178 O209 2.037 . S
Co178 N213 2.145 . S
Co178 N234 2.257 . S
O179 Co177 2.143 . S
O179 Co178 2.160 . S
C180 O181 1.278 . S
C180 O188 1.224 . S
O181 C180 1.278 . S
C182 O183 1.245 . S
C182 O194 1.232 . S
O183 C182 1.245 . S
O184 Co178 2.058 . S
O184 C210 1.269 . S
O185 Co177 2.074 . S
O185 C210 1.257 . S
H186 C211 0.930 . S
H187 C217 0.930 . S
O188 Co177 2.093 . S
O188 C180 1.224 . S
H189 C221 0.929 . S
H190 C223 0.930 . S
H191 C224 0.930 . S
H192 C222 0.929 . S
H193 C225 0.928 . S
O194 Co178 2.057 . S
O194 C182 1.232 . S
H195 C214 0.929 . S
H196 C215 0.929 . S
H197 C227 0.931 . S
H198 C219 0.929 . S
H199 C228 0.930 . S
H200 C220 0.931 . S
O201 Co177 2.097 . S
O201 C229 1.214 . S
H202 C230 0.929 . S
H203 C231 0.929 . S
H204 C232 0.930 . S
H205 C233 0.929 . S
H206 C235 0.930 . S
H207 C212 0.930 . S
H208 C216 0.930 . S
O209 Co178 2.037 . S
O209 C229 1.234 . S
C210 O184 1.269 . S
C210 O185 1.257 . S
C211 H186 0.930 . S
C211 C214 1.388 . S
C211 C216 1.418 . S
C212 H207 0.930 . S
C212 C215 1.404 . S
C212 C216 1.353 . S
N213 Co178 2.145 . S
N213 C214 1.397 . S
N213 C215 1.334 . S
C214 H195 0.929 . S
C214 C211 1.388 . S
C214 N213 1.397 . S
C215 H196 0.929 . S
C215 C212 1.404 . S
C215 N213 1.334 . S
C216 H208 0.930 . S
C216 C211 1.418 . S
C216 C212 1.353 . S
C217 H187 0.930 . S
C217 N218 1.330 . S
C217 C219 1.446 . S
N218 Co177 2.151 . S
N218 C217 1.330 . S
N218 C222 1.418 . S
C219 H198 0.929 . S
C219 C217 1.446 . S
C219 C220 1.332 . S
C220 H200 0.931 . S
C220 C219 1.332 . S
C220 C221 1.267 . S
C221 H189 0.929 . S
C221 C220 1.267 . S
C221 C222 1.251 . S
C222 H192 0.929 . S
C222 N218 1.418 . S
C222 C221 1.251 . S
C223 H190 0.930 . S
C223 C225 1.406 . S
C223 C228 1.261 . S
C224 H191 0.930 . S
C224 N226 1.325 . S
C224 C227 1.357 . S
C225 H193 0.928 . S
C225 C223 1.406 . S
C225 N226 1.261 . S
N226 Co177 2.214 . S
N226 C224 1.325 . S
N226 C225 1.261 . S
C227 H197 0.931 . S
C227 C224 1.357 . S
C227 C228 1.312 . S
C228 H199 0.930 . S
C228 C223 1.261 . S
C228 C227 1.312 . S
C229 O201 1.214 . S
C229 O209 1.234 . S
C230 H202 0.929 . S
C230 C233 1.391 . S
C230 C235 1.391 . S
C231 H203 0.929 . S
C231 C232 1.390 . S
C231 N234 1.391 . S
C232 H204 0.930 . S
C232 C231 1.390 . S
C232 C233 1.392 . S
C233 H205 0.929 . S
C233 C230 1.391 . S
C233 C232 1.392 . S
N234 Co178 2.257 . S
N234 C231 1.391 . S
N234 C235 1.388 . S
C235 H206 0.930 . S
C235 C230 1.391 . S
C235 N234 1.388 . S
Co236 O238 2.143 . S
Co236 O244 2.074 . S
Co236 O247 2.093 . S
Co236 O260 2.097 . S
Co236 N277 2.151 . S
Co236 N285 2.214 . S
Co237 O238 2.160 . S
Co237 O243 2.058 . S
Co237 O253 2.057 . S
Co237 O268 2.037 . S
Co237 N272 2.145 . S
Co237 N293 2.257 . S
O238 Co236 2.143 . S
O238 Co237 2.160 . S
C239 O240 1.278 . S
C239 O247 1.224 . S
O240 C239 1.278 . S
C241 O242 1.245 . S
C241 O253 1.232 . S
O242 C241 1.245 . S
O243 Co237 2.058 . S
O243 C269 1.269 . S
O244 Co236 2.074 . S
O244 C269 1.257 . S
H245 C270 0.930 . S
H246 C276 0.930 . S
O247 Co236 2.093 . S
O247 C239 1.224 . S
H248 C280 0.929 . S
H249 C282 0.930 . S
H250 C283 0.930 . S
H251 C281 0.929 . S
H252 C284 0.928 . S
O253 Co237 2.057 . S
O253 C241 1.232 . S
H254 C273 0.929 . S
H255 C274 0.929 . S
H256 C286 0.931 . S
H257 C278 0.929 . S
H258 C287 0.930 . S
H259 C279 0.931 . S
O260 Co236 2.097 . S
O260 C288 1.214 . S
H261 C289 0.929 . S
H262 C290 0.929 . S
H263 C291 0.930 . S
H264 C292 0.929 . S
H265 C294 0.930 . S
H266 C271 0.930 . S
H267 C275 0.930 . S
O268 Co237 2.037 . S
O268 C288 1.234 . S
C269 O243 1.269 . S
C269 O244 1.257 . S
C270 H245 0.930 . S
C270 C273 1.388 . S
C270 C275 1.418 . S
C271 H266 0.930 . S
C271 C274 1.404 . S
C271 C275 1.353 . S
N272 Co237 2.145 . S
N272 C273 1.397 . S
N272 C274 1.334 . S
C273 H254 0.929 . S
C273 C270 1.388 . S
C273 N272 1.397 . S
C274 H255 0.929 . S
C274 C271 1.404 . S
C274 N272 1.334 . S
C275 H267 0.930 . S
C275 C270 1.418 . S
C275 C271 1.353 . S
C276 H246 0.930 . S
C276 N277 1.330 . S
C276 C278 1.446 . S
N277 Co236 2.151 . S
N277 C276 1.330 . S
N277 C281 1.418 . S
C278 H257 0.929 . S
C278 C276 1.446 . S
C278 C279 1.332 . S
C279 H259 0.931 . S
C279 C278 1.332 . S
C279 C280 1.267 . S
C280 H248 0.929 . S
C280 C279 1.267 . S
C280 C281 1.251 . S
C281 H251 0.929 . S
C281 N277 1.418 . S
C281 C280 1.251 . S
C282 H249 0.930 . S
C282 C284 1.406 . S
C282 C287 1.261 . S
C283 H250 0.930 . S
C283 N285 1.325 . S
C283 C286 1.357 . S
C284 H252 0.928 . S
C284 C282 1.406 . S
C284 N285 1.261 . S
N285 Co236 2.214 . S
N285 C283 1.325 . S
N285 C284 1.261 . S
C286 H256 0.931 . S
C286 C283 1.357 . S
C286 C287 1.312 . S
C287 H258 0.930 . S
C287 C282 1.261 . S
C287 C286 1.312 . S
C288 O260 1.214 . S
C288 O268 1.234 . S
C289 H261 0.929 . S
C289 C292 1.391 . S
C289 C294 1.391 . S
C290 H262 0.929 . S
C290 C291 1.390 . S
C290 N293 1.391 . S
C291 H263 0.930 . S
C291 C290 1.390 . S
C291 C292 1.392 . S
C292 H264 0.929 . S
C292 C289 1.391 . S
C292 C291 1.392 . S
N293 Co237 2.257 . S
N293 C290 1.391 . S
N293 C294 1.388 . S
C294 H265 0.930 . S
C294 C289 1.391 . S
C294 N293 1.388 . S
Co295 O297 2.143 . S
Co295 O303 2.074 . S
Co295 O306 2.093 . S
Co295 O319 2.097 . S
Co295 N336 2.151 . S
Co295 N344 2.214 . S
Co296 O297 2.160 . S
Co296 O302 2.058 . S
Co296 O312 2.057 . S
Co296 O327 2.037 . S
Co296 N331 2.145 . S
Co296 N352 2.257 . S
O297 Co295 2.143 . S
O297 Co296 2.160 . S
C298 O299 1.278 . S
C298 O306 1.224 . S
O299 C298 1.278 . S
C300 O301 1.245 . S
C300 O312 1.232 . S
O301 C300 1.245 . S
O302 Co296 2.058 . S
O302 C328 1.269 . S
O303 Co295 2.074 . S
O303 C328 1.257 . S
H304 C329 0.930 . S
H305 C335 0.930 . S
O306 Co295 2.093 . S
O306 C298 1.224 . S
H307 C339 0.929 . S
H308 C341 0.930 . S
H309 C342 0.930 . S
H310 C340 0.929 . S
H311 C343 0.928 . S
O312 Co296 2.057 . S
O312 C300 1.232 . S
H313 C332 0.929 . S
H314 C333 0.929 . S
H315 C345 0.931 . S
H316 C337 0.929 . S
H317 C346 0.930 . S
H318 C338 0.931 . S
O319 Co295 2.097 . S
O319 C347 1.214 . S
H320 C348 0.929 . S
H321 C349 0.929 . S
H322 C350 0.930 . S
H323 C351 0.929 . S
H324 C353 0.930 . S
H325 C330 0.930 . S
H326 C334 0.930 . S
O327 Co296 2.037 . S
O327 C347 1.234 . S
C328 O302 1.269 . S
C328 O303 1.257 . S
C329 H304 0.930 . S
C329 C332 1.388 . S
C329 C334 1.418 . S
C330 H325 0.930 . S
C330 C333 1.404 . S
C330 C334 1.353 . S
N331 Co296 2.145 . S
N331 C332 1.397 . S
N331 C333 1.334 . S
C332 H313 0.929 . S
C332 C329 1.388 . S
C332 N331 1.397 . S
C333 H314 0.929 . S
C333 C330 1.404 . S
C333 N331 1.334 . S
C334 H326 0.930 . S
C334 C329 1.418 . S
C334 C330 1.353 . S
C335 H305 0.930 . S
C335 N336 1.330 . S
C335 C337 1.446 . S
N336 Co295 2.151 . S
N336 C335 1.330 . S
N336 C340 1.418 . S
C337 H316 0.929 . S
C337 C335 1.446 . S
C337 C338 1.332 . S
C338 H318 0.931 . S
C338 C337 1.332 . S
C338 C339 1.267 . S
C339 H307 0.929 . S
C339 C338 1.267 . S
C339 C340 1.251 . S
C340 H310 0.929 . S
C340 N336 1.418 . S
C340 C339 1.251 . S
C341 H308 0.930 . S
C341 C343 1.406 . S
C341 C346 1.261 . S
C342 H309 0.930 . S
C342 N344 1.325 . S
C342 C345 1.357 . S
C343 H311 0.928 . S
C343 C341 1.406 . S
C343 N344 1.261 . S
N344 Co295 2.214 . S
N344 C342 1.325 . S
N344 C343 1.261 . S
C345 H315 0.931 . S
C345 C342 1.357 . S
C345 C346 1.312 . S
C346 H317 0.930 . S
C346 C341 1.261 . S
C346 C345 1.312 . S
C347 O319 1.214 . S
C347 O327 1.234 . S
C348 H320 0.929 . S
C348 C351 1.391 . S
C348 C353 1.391 . S
C349 H321 0.929 . S
C349 C350 1.390 . S
C349 N352 1.391 . S
C350 H322 0.930 . S
C350 C349 1.390 . S
C350 C351 1.392 . S
C351 H323 0.929 . S
C351 C348 1.391 . S
C351 C350 1.392 . S
N352 Co296 2.257 . S
N352 C349 1.391 . S
N352 C353 1.388 . S
C353 H324 0.930 . S
C353 C348 1.391 . S
C353 N352 1.388 . S
Co354 O356 2.143 . S
Co354 O362 2.074 . S
Co354 O365 2.093 . S
Co354 O378 2.097 . S
Co354 N395 2.151 . S
Co354 N403 2.214 . S
Co355 O356 2.160 . S
Co355 O361 2.058 . S
Co355 O371 2.057 . S
Co355 O386 2.037 . S
Co355 N390 2.145 1_545 S
Co355 N411 2.257 . S
O356 Co354 2.143 . S
O356 Co355 2.160 . S
C357 O358 1.278 . S
C357 O365 1.224 . S
O358 C357 1.278 . S
C359 O360 1.245 . S
C359 O371 1.232 . S
O360 C359 1.245 . S
O361 Co355 2.058 . S
O361 C387 1.269 . S
O362 Co354 2.074 . S
O362 C387 1.257 . S
H363 C388 0.930 . S
H364 C394 0.930 . S
O365 Co354 2.093 . S
O365 C357 1.224 . S
H366 C398 0.929 . S
H367 C400 0.930 . S
H368 C401 0.930 . S
H369 C399 0.929 . S
H370 C402 0.928 . S
O371 Co355 2.057 . S
O371 C359 1.232 . S
H372 C391 0.929 1_545 S
H373 C392 0.929 . S
H374 C404 0.931 . S
H375 C396 0.929 . S
H376 C405 0.930 . S
H377 C397 0.931 . S
O378 Co354 2.097 . S
O378 C406 1.214 . S
H379 C407 0.929 . S
H380 C408 0.929 . S
H381 C409 0.930 . S
H382 C410 0.929 . S
H383 C412 0.930 . S
H384 C389 0.930 . S
H385 C393 0.930 . S
O386 Co355 2.037 . S
O386 C406 1.234 . S
C387 O361 1.269 . S
C387 O362 1.257 . S
C388 H363 0.930 . S
C388 C391 1.388 . S
C388 C393 1.418 . S
C389 H384 0.930 . S
C389 C392 1.404 . S
C389 C393 1.353 . S
N390 Co355 2.145 1_565 S
N390 C391 1.397 . S
N390 C392 1.334 . S
C391 H372 0.929 1_565 S
C391 C388 1.388 . S
C391 N390 1.397 . S
C392 H373 0.929 . S
C392 C389 1.404 . S
C392 N390 1.334 . S
C393 H385 0.930 . S
C393 C388 1.418 . S
C393 C389 1.353 . S
C394 H364 0.930 . S
C394 N395 1.330 . S
C394 C396 1.446 . S
N395 Co354 2.151 . S
N395 C394 1.330 . S
N395 C399 1.418 . S
C396 H375 0.929 . S
C396 C394 1.446 . S
C396 C397 1.332 . S
C397 H377 0.931 . S
C397 C396 1.332 . S
C397 C398 1.267 . S
C398 H366 0.929 . S
C398 C397 1.267 . S
C398 C399 1.251 . S
C399 H369 0.929 . S
C399 N395 1.418 . S
C399 C398 1.251 . S
C400 H367 0.930 . S
C400 C402 1.406 . S
C400 C405 1.261 . S
C401 H368 0.930 . S
C401 N403 1.325 . S
C401 C404 1.357 . S
C402 H370 0.928 . S
C402 C400 1.406 . S
C402 N403 1.261 . S
N403 Co354 2.214 . S
N403 C401 1.325 . S
N403 C402 1.261 . S
C404 H374 0.931 . S
C404 C401 1.357 . S
C404 C405 1.312 . S
C405 H376 0.930 . S
C405 C400 1.261 . S
C405 C404 1.312 . S
C406 O378 1.214 . S
C406 O386 1.234 . S
C407 H379 0.929 . S
C407 C410 1.391 1_545 S
C407 C412 1.391 . S
C408 H380 0.929 . S
C408 C409 1.390 . S
C408 N411 1.391 1_565 S
C409 H381 0.930 . S
C409 C408 1.390 . S
C409 C410 1.392 . S
C410 H382 0.929 . S
C410 C407 1.391 1_565 S
C410 C409 1.392 . S
N411 Co355 2.257 . S
N411 C408 1.391 1_545 S
N411 C412 1.388 . S
C412 H383 0.930 . S
C412 C407 1.391 . S
C412 N411 1.388 . S
Co413 O415 2.143 . S
Co413 O421 2.074 . S
Co413 O424 2.093 . S
Co413 O437 2.097 . S
Co413 N454 2.151 . S
Co413 N462 2.214 . S
Co414 O415 2.160 . S
Co414 O420 2.058 . S
Co414 O430 2.057 . S
Co414 O445 2.037 . S
Co414 N449 2.145 1_655 S
Co414 N470 2.257 . S
O415 Co413 2.143 . S
O415 Co414 2.160 . S
C416 O417 1.278 . S
C416 O424 1.224 . S
O417 C416 1.278 . S
C418 O419 1.245 . S
C418 O430 1.232 . S
O419 C418 1.245 . S
O420 Co414 2.058 . S
O420 C446 1.269 . S
O421 Co413 2.074 . S
O421 C446 1.257 . S
H422 C447 0.930 . S
H423 C453 0.930 . S
O424 Co413 2.093 . S
O424 C416 1.224 . S
H425 C457 0.929 . S
H426 C459 0.930 . S
H427 C460 0.930 . S
H428 C458 0.929 . S
H429 C461 0.928 . S
O430 Co414 2.057 . S
O430 C418 1.232 . S
H431 C450 0.929 1_655 S
H432 C451 0.929 . S
H433 C463 0.931 . S
H434 C455 0.929 . S
H435 C464 0.930 . S
H436 C456 0.931 . S
O437 Co413 2.097 . S
O437 C465 1.214 . S
H438 C466 0.929 . S
H439 C467 0.929 . S
H440 C468 0.930 . S
H441 C469 0.929 . S
H442 C471 0.930 . S
H443 C448 0.930 . S
H444 C452 0.930 . S
O445 Co414 2.037 . S
O445 C465 1.234 . S
C446 O420 1.269 . S
C446 O421 1.257 . S
C447 H422 0.930 . S
C447 C450 1.388 . S
C447 C452 1.418 . S
C448 H443 0.930 . S
C448 C451 1.404 . S
C448 C452 1.353 . S
N449 Co414 2.145 1_455 S
N449 C450 1.397 . S
N449 C451 1.334 . S
C450 H431 0.929 1_455 S
C450 C447 1.388 . S
C450 N449 1.397 . S
C451 H432 0.929 . S
C451 C448 1.404 . S
C451 N449 1.334 . S
C452 H444 0.930 . S
C452 C447 1.418 . S
C452 C448 1.353 . S
C453 H423 0.930 . S
C453 N454 1.330 . S
C453 C455 1.446 . S
N454 Co413 2.151 . S
N454 C453 1.330 . S
N454 C458 1.418 . S
C455 H434 0.929 . S
C455 C453 1.446 . S
C455 C456 1.332 . S
C456 H436 0.931 . S
C456 C455 1.332 . S
C456 C457 1.267 . S
C457 H425 0.929 . S
C457 C456 1.267 . S
C457 C458 1.251 . S
C458 H428 0.929 . S
C458 N454 1.418 . S
C458 C457 1.251 . S
C459 H426 0.930 . S
C459 C461 1.406 . S
C459 C464 1.261 . S
C460 H427 0.930 . S
C460 N462 1.325 . S
C460 C463 1.357 . S
C461 H429 0.928 . S
C461 C459 1.406 . S
C461 N462 1.261 . S
N462 Co413 2.214 . S
N462 C460 1.325 . S
N462 C461 1.261 . S
C463 H433 0.931 . S
C463 C460 1.357 . S
C463 C464 1.312 . S
C464 H435 0.930 . S
C464 C459 1.261 . S
C464 C463 1.312 . S
C465 O437 1.214 . S
C465 O445 1.234 . S
C466 H438 0.929 . S
C466 C469 1.391 1_655 S
C466 C471 1.391 . S
C467 H439 0.929 . S
C467 C468 1.390 . S
C467 N470 1.391 1_455 S
C468 H440 0.930 . S
C468 C467 1.390 . S
C468 C469 1.392 . S
C469 H441 0.929 . S
C469 C466 1.391 1_455 S
C469 C468 1.392 . S
N470 Co414 2.257 . S
N470 C467 1.391 1_655 S
N470 C471 1.388 . S
C471 H442 0.930 . S
C471 C466 1.391 . S
C471 N470 1.388 . S
Co472 O474 2.143 . S
Co472 O480 2.074 . S
Co472 O483 2.093 . S
Co472 O496 2.097 . S
Co472 N513 2.151 . S
Co472 N521 2.214 . S
Co473 O474 2.160 . S
Co473 O479 2.058 . S
Co473 O489 2.057 . S
Co473 O504 2.037 . S
Co473 N508 2.145 . S
Co473 N529 2.257 . S
O474 Co472 2.143 . S
O474 Co473 2.160 . S
C475 O476 1.278 . S
C475 O483 1.224 . S
O476 C475 1.278 . S
C477 O478 1.245 . S
C477 O489 1.232 . S
O478 C477 1.245 . S
O479 Co473 2.058 . S
O479 C505 1.269 . S
O480 Co472 2.074 . S
O480 C505 1.257 . S
H481 C506 0.930 . S
H482 C512 0.930 . S
O483 Co472 2.093 . S
O483 C475 1.224 . S
H484 C516 0.929 . S
H485 C518 0.930 . S
H486 C519 0.930 . S
H487 C517 0.929 . S
H488 C520 0.928 . S
O489 Co473 2.057 . S
O489 C477 1.232 . S
H490 C509 0.929 . S
H491 C510 0.929 . S
H492 C522 0.931 . S
H493 C514 0.929 . S
H494 C523 0.930 . S
H495 C515 0.931 . S
O496 Co472 2.097 . S
O496 C524 1.214 . S
H497 C525 0.929 . S
H498 C526 0.929 . S
H499 C527 0.930 . S
H500 C528 0.929 . S
H501 C530 0.930 . S
H502 C507 0.930 . S
H503 C511 0.930 . S
O504 Co473 2.037 . S
O504 C524 1.234 . S
C505 O479 1.269 . S
C505 O480 1.257 . S
C506 H481 0.930 . S
C506 C509 1.388 . S
C506 C511 1.418 . S
C507 H502 0.930 . S
C507 C510 1.404 . S
C507 C511 1.353 . S
N508 Co473 2.145 . S
N508 C509 1.397 . S
N508 C510 1.334 . S
C509 H490 0.929 . S
C509 C506 1.388 . S
C509 N508 1.397 . S
C510 H491 0.929 . S
C510 C507 1.404 . S
C510 N508 1.334 . S
C511 H503 0.930 . S
C511 C506 1.418 . S
C511 C507 1.353 . S
C512 H482 0.930 . S
C512 N513 1.330 . S
C512 C514 1.446 . S
N513 Co472 2.151 . S
N513 C512 1.330 . S
N513 C517 1.418 . S
C514 H493 0.929 . S
C514 C512 1.446 . S
C514 C515 1.332 . S
C515 H495 0.931 . S
C515 C514 1.332 . S
C515 C516 1.267 . S
C516 H484 0.929 . S
C516 C515 1.267 . S
C516 C517 1.251 . S
C517 H487 0.929 . S
C517 N513 1.418 . S
C517 C516 1.251 . S
C518 H485 0.930 . S
C518 C520 1.406 . S
C518 C523 1.261 . S
C519 H486 0.930 . S
C519 N521 1.325 . S
C519 C522 1.357 . S
C520 H488 0.928 . S
C520 C518 1.406 . S
C520 N521 1.261 . S
N521 Co472 2.214 . S
N521 C519 1.325 . S
N521 C520 1.261 . S
C522 H492 0.931 . S
C522 C519 1.357 . S
C522 C523 1.312 . S
C523 H494 0.930 . S
C523 C518 1.261 . S
C523 C522 1.312 . S
C524 O496 1.214 . S
C524 O504 1.234 . S
C525 H497 0.929 . S
C525 C528 1.391 . S
C525 C530 1.391 . S
C526 H498 0.929 . S
C526 C527 1.390 . S
C526 N529 1.391 . S
C527 H499 0.930 . S
C527 C526 1.390 . S
C527 C528 1.392 . S
C528 H500 0.929 . S
C528 C525 1.391 . S
C528 C527 1.392 . S
N529 Co473 2.257 . S
N529 C526 1.391 . S
N529 C530 1.388 . S
C530 H501 0.930 . S
C530 C525 1.391 . S
C530 N529 1.388 . S
Co531 O533 2.143 . S
Co531 O539 2.074 . S
Co531 O542 2.093 . S
Co531 O555 2.097 . S
Co531 N572 2.151 . S
Co531 N580 2.214 . S
Co532 O533 2.160 . S
Co532 O538 2.058 . S
Co532 O548 2.057 . S
Co532 O563 2.037 . S
Co532 N567 2.145 . S
Co532 N588 2.257 . S
O533 Co531 2.143 . S
O533 Co532 2.160 . S
C534 O535 1.278 . S
C534 O542 1.224 . S
O535 C534 1.278 . S
C536 O537 1.245 . S
C536 O548 1.232 . S
O537 C536 1.245 . S
O538 Co532 2.058 . S
O538 C564 1.269 . S
O539 Co531 2.074 . S
O539 C564 1.257 . S
H540 C565 0.930 . S
H541 C571 0.930 . S
O542 Co531 2.093 . S
O542 C534 1.224 . S
H543 C575 0.929 . S
H544 C577 0.930 . S
H545 C578 0.930 . S
H546 C576 0.929 . S
H547 C579 0.928 . S
O548 Co532 2.057 . S
O548 C536 1.232 . S
H549 C568 0.929 . S
H550 C569 0.929 . S
H551 C581 0.931 . S
H552 C573 0.929 . S
H553 C582 0.930 . S
H554 C574 0.931 . S
O555 Co531 2.097 . S
O555 C583 1.214 . S
H556 C584 0.929 . S
H557 C585 0.929 . S
H558 C586 0.930 . S
H559 C587 0.929 . S
H560 C589 0.930 . S
H561 C566 0.930 . S
H562 C570 0.930 . S
O563 Co532 2.037 . S
O563 C583 1.234 . S
C564 O538 1.269 . S
C564 O539 1.257 . S
C565 H540 0.930 . S
C565 C568 1.388 . S
C565 C570 1.418 . S
C566 H561 0.930 . S
C566 C569 1.404 . S
C566 C570 1.353 . S
N567 Co532 2.145 . S
N567 C568 1.397 . S
N567 C569 1.334 . S
C568 H549 0.929 . S
C568 C565 1.388 . S
C568 N567 1.397 . S
C569 H550 0.929 . S
C569 C566 1.404 . S
C569 N567 1.334 . S
C570 H562 0.930 . S
C570 C565 1.418 . S
C570 C566 1.353 . S
C571 H541 0.930 . S
C571 N572 1.330 . S
C571 C573 1.446 . S
N572 Co531 2.151 . S
N572 C571 1.330 . S
N572 C576 1.418 . S
C573 H552 0.929 . S
C573 C571 1.446 . S
C573 C574 1.332 . S
C574 H554 0.931 . S
C574 C573 1.332 . S
C574 C575 1.267 . S
C575 H543 0.929 . S
C575 C574 1.267 . S
C575 C576 1.251 . S
C576 H546 0.929 . S
C576 N572 1.418 . S
C576 C575 1.251 . S
C577 H544 0.930 . S
C577 C579 1.406 . S
C577 C582 1.261 . S
C578 H545 0.930 . S
C578 N580 1.325 . S
C578 C581 1.357 . S
C579 H547 0.928 . S
C579 C577 1.406 . S
C579 N580 1.261 . S
N580 Co531 2.214 . S
N580 C578 1.325 . S
N580 C579 1.261 . S
C581 H551 0.931 . S
C581 C578 1.357 . S
C581 C582 1.312 . S
C582 H553 0.930 . S
C582 C577 1.261 . S
C582 C581 1.312 . S
C583 O555 1.214 . S
C583 O563 1.234 . S
C584 H556 0.929 . S
C584 C587 1.391 . S
C584 C589 1.391 . S
C585 H557 0.929 . S
C585 C586 1.390 . S
C585 N588 1.391 . S
C586 H558 0.930 . S
C586 C585 1.390 . S
C586 C587 1.392 . S
C587 H559 0.929 . S
C587 C584 1.391 . S
C587 C586 1.392 . S
N588 Co532 2.257 . S
N588 C585 1.391 . S
N588 C589 1.388 . S
C589 H560 0.930 . S
C589 C584 1.391 . S
C589 N588 1.388 . S
Co590 O592 2.143 . S
Co590 O598 2.074 . S
Co590 O601 2.093 . S
Co590 O614 2.097 . S
Co590 N631 2.151 . S
Co590 N639 2.214 . S
Co591 O592 2.160 . S
Co591 O597 2.058 . S
Co591 O607 2.057 . S
Co591 O622 2.037 . S
Co591 N626 2.145 1_565 S
Co591 N647 2.257 . S
O592 Co590 2.143 . S
O592 Co591 2.160 . S
C593 O594 1.278 . S
C593 O601 1.224 . S
O594 C593 1.278 . S
C595 O596 1.245 . S
C595 O607 1.232 . S
O596 C595 1.245 . S
O597 Co591 2.058 . S
O597 C623 1.269 . S
O598 Co590 2.074 . S
O598 C623 1.257 . S
H599 C624 0.930 . S
H600 C630 0.930 . S
O601 Co590 2.093 . S
O601 C593 1.224 . S
H602 C634 0.929 . S
H603 C636 0.930 . S
H604 C637 0.930 . S
H605 C635 0.929 . S
H606 C638 0.928 . S
O607 Co591 2.057 . S
O607 C595 1.232 . S
H608 C627 0.929 1_565 S
H609 C628 0.929 . S
H610 C640 0.931 . S
H611 C632 0.929 . S
H612 C641 0.930 . S
H613 C633 0.931 . S
O614 Co590 2.097 . S
O614 C642 1.214 . S
H615 C643 0.929 . S
H616 C644 0.929 . S
H617 C645 0.930 . S
H618 C646 0.929 . S
H619 C648 0.930 . S
H620 C625 0.930 . S
H621 C629 0.930 . S
O622 Co591 2.037 . S
O622 C642 1.234 . S
C623 O597 1.269 . S
C623 O598 1.257 . S
C624 H599 0.930 . S
C624 C627 1.388 . S
C624 C629 1.418 . S
C625 H620 0.930 . S
C625 C628 1.404 . S
C625 C629 1.353 . S
N626 Co591 2.145 1_545 S
N626 C627 1.397 . S
N626 C628 1.334 . S
C627 H608 0.929 1_545 S
C627 C624 1.388 . S
C627 N626 1.397 . S
C628 H609 0.929 . S
C628 C625 1.404 . S
C628 N626 1.334 . S
C629 H621 0.930 . S
C629 C624 1.418 . S
C629 C625 1.353 . S
C630 H600 0.930 . S
C630 N631 1.330 . S
C630 C632 1.446 . S
N631 Co590 2.151 . S
N631 C630 1.330 . S
N631 C635 1.418 . S
C632 H611 0.929 . S
C632 C630 1.446 . S
C632 C633 1.332 . S
C633 H613 0.931 . S
C633 C632 1.332 . S
C633 C634 1.267 . S
C634 H602 0.929 . S
C634 C633 1.267 . S
C634 C635 1.251 . S
C635 H605 0.929 . S
C635 N631 1.418 . S
C635 C634 1.251 . S
C636 H603 0.930 . S
C636 C638 1.406 . S
C636 C641 1.261 . S
C637 H604 0.930 . S
C637 N639 1.325 . S
C637 C640 1.357 . S
C638 H606 0.928 . S
C638 C636 1.406 . S
C638 N639 1.261 . S
N639 Co590 2.214 . S
N639 C637 1.325 . S
N639 C638 1.261 . S
C640 H610 0.931 . S
C640 C637 1.357 . S
C640 C641 1.312 . S
C641 H612 0.930 . S
C641 C636 1.261 . S
C641 C640 1.312 . S
C642 O614 1.214 . S
C642 O622 1.234 . S
C643 H615 0.929 . S
C643 C646 1.391 1_565 S
C643 C648 1.391 . S
C644 H616 0.929 . S
C644 C645 1.390 . S
C644 N647 1.391 1_545 S
C645 H617 0.930 . S
C645 C644 1.390 . S
C645 C646 1.392 . S
C646 H618 0.929 . S
C646 C643 1.391 1_545 S
C646 C645 1.392 . S
N647 Co591 2.257 . S
N647 C644 1.391 1_565 S
N647 C648 1.388 . S
C648 H619 0.930 . S
C648 C643 1.391 . S
C648 N647 1.388 . S
Co649 O651 2.143 . S
Co649 O657 2.074 . S
Co649 O660 2.093 . S
Co649 O673 2.097 . S
Co649 N690 2.151 . S
Co649 N698 2.214 . S
Co650 O651 2.160 . S
Co650 O656 2.058 . S
Co650 O666 2.057 . S
Co650 O681 2.037 . S
Co650 N685 2.145 1_455 S
Co650 N706 2.257 . S
O651 Co649 2.143 . S
O651 Co650 2.160 . S
C652 O653 1.278 . S
C652 O660 1.224 . S
O653 C652 1.278 . S
C654 O655 1.245 . S
C654 O666 1.232 . S
O655 C654 1.245 . S
O656 Co650 2.058 . S
O656 C682 1.269 . S
O657 Co649 2.074 . S
O657 C682 1.257 . S
H658 C683 0.930 . S
H659 C689 0.930 . S
O660 Co649 2.093 . S
O660 C652 1.224 . S
H661 C693 0.929 . S
H662 C695 0.930 . S
H663 C696 0.930 . S
H664 C694 0.929 . S
H665 C697 0.928 . S
O666 Co650 2.057 . S
O666 C654 1.232 . S
H667 C686 0.929 1_455 S
H668 C687 0.929 . S
H669 C699 0.931 . S
H670 C691 0.929 . S
H671 C700 0.930 . S
H672 C692 0.931 . S
O673 Co649 2.097 . S
O673 C701 1.214 . S
H674 C702 0.929 . S
H675 C703 0.929 . S
H676 C704 0.930 . S
H677 C705 0.929 . S
H678 C707 0.930 . S
H679 C684 0.930 . S
H680 C688 0.930 . S
O681 Co650 2.037 . S
O681 C701 1.234 . S
C682 O656 1.269 . S
C682 O657 1.257 . S
C683 H658 0.930 . S
C683 C686 1.388 . S
C683 C688 1.418 . S
C684 H679 0.930 . S
C684 C687 1.404 . S
C684 C688 1.353 . S
N685 Co650 2.145 1_655 S
N685 C686 1.397 . S
N685 C687 1.334 . S
C686 H667 0.929 1_655 S
C686 C683 1.388 . S
C686 N685 1.397 . S
C687 H668 0.929 . S
C687 C684 1.404 . S
C687 N685 1.334 . S
C688 H680 0.930 . S
C688 C683 1.418 . S
C688 C684 1.353 . S
C689 H659 0.930 . S
C689 N690 1.330 . S
C689 C691 1.446 . S
N690 Co649 2.151 . S
N690 C689 1.330 . S
N690 C694 1.418 . S
C691 H670 0.929 . S
C691 C689 1.446 . S
C691 C692 1.332 . S
C692 H672 0.931 . S
C692 C691 1.332 . S
C692 C693 1.267 . S
C693 H661 0.929 . S
C693 C692 1.267 . S
C693 C694 1.251 . S
C694 H664 0.929 . S
C694 N690 1.418 . S
C694 C693 1.251 . S
C695 H662 0.930 . S
C695 C697 1.406 . S
C695 C700 1.261 . S
C696 H663 0.930 . S
C696 N698 1.325 . S
C696 C699 1.357 . S
C697 H665 0.928 . S
C697 C695 1.406 . S
C697 N698 1.261 . S
N698 Co649 2.214 . S
N698 C696 1.325 . S
N698 C697 1.261 . S
C699 H669 0.931 . S
C699 C696 1.357 . S
C699 C700 1.312 . S
C700 H671 0.930 . S
C700 C695 1.261 . S
C700 C699 1.312 . S
C701 O673 1.214 . S
C701 O681 1.234 . S
C702 H674 0.929 . S
C702 C705 1.391 1_455 S
C702 C707 1.391 . S
C703 H675 0.929 . S
C703 C704 1.390 . S
C703 N706 1.391 1_655 S
C704 H676 0.930 . S
C704 C703 1.390 . S
C704 C705 1.392 . S
C705 H677 0.929 . S
C705 C702 1.391 1_655 S
C705 C704 1.392 . S
N706 Co650 2.257 . S
N706 C703 1.391 1_455 S
N706 C707 1.388 . S
C707 H678 0.930 . S
C707 C702 1.391 . S
C707 N706 1.388 . S
Co708 O710 2.143 . S
Co708 O716 2.074 . S
Co708 O719 2.093 . S
Co708 O732 2.097 . S
Co708 N749 2.151 . S
Co708 N757 2.214 . S
Co709 O710 2.160 . S
Co709 O715 2.058 . S
Co709 O725 2.057 . S
Co709 O740 2.037 . S
Co709 N744 2.145 1_565 S
Co709 N765 2.257 . S
O710 Co708 2.143 . S
O710 Co709 2.160 . S
C711 O712 1.278 . S
C711 O719 1.224 . S
O712 C711 1.278 . S
C713 O714 1.245 . S
C713 O725 1.232 . S
O714 C713 1.245 . S
O715 Co709 2.058 . S
O715 C741 1.269 . S
O716 Co708 2.074 . S
O716 C741 1.257 . S
H717 C742 0.930 . S
H718 C748 0.930 . S
O719 Co708 2.093 . S
O719 C711 1.224 . S
H720 C752 0.929 . S
H721 C754 0.930 . S
H722 C755 0.930 . S
H723 C753 0.929 . S
H724 C756 0.928 . S
O725 Co709 2.057 . S
O725 C713 1.232 . S
H726 C745 0.929 1_565 S
H727 C746 0.929 . S
H728 C758 0.931 . S
H729 C750 0.929 . S
H730 C759 0.930 . S
H731 C751 0.931 . S
O732 Co708 2.097 . S
O732 C760 1.214 . S
H733 C761 0.929 . S
H734 C762 0.929 . S
H735 C763 0.930 . S
H736 C764 0.929 . S
H737 C766 0.930 . S
H738 C743 0.930 . S
H739 C747 0.930 . S
O740 Co709 2.037 . S
O740 C760 1.234 . S
C741 O715 1.269 . S
C741 O716 1.257 . S
C742 H717 0.930 . S
C742 C745 1.388 . S
C742 C747 1.418 . S
C743 H738 0.930 . S
C743 C746 1.404 . S
C743 C747 1.353 . S
N744 Co709 2.145 1_545 S
N744 C745 1.397 . S
N744 C746 1.334 . S
C745 H726 0.929 1_545 S
C745 C742 1.388 . S
C745 N744 1.397 . S
C746 H727 0.929 . S
C746 C743 1.404 . S
C746 N744 1.334 . S
C747 H739 0.930 . S
C747 C742 1.418 . S
C747 C743 1.353 . S
C748 H718 0.930 . S
C748 N749 1.330 . S
C748 C750 1.446 . S
N749 Co708 2.151 . S
N749 C748 1.330 . S
N749 C753 1.418 . S
C750 H729 0.929 . S
C750 C748 1.446 . S
C750 C751 1.332 . S
C751 H731 0.931 . S
C751 C750 1.332 . S
C751 C752 1.267 . S
C752 H720 0.929 . S
C752 C751 1.267 . S
C752 C753 1.251 . S
C753 H723 0.929 . S
C753 N749 1.418 . S
C753 C752 1.251 . S
C754 H721 0.930 . S
C754 C756 1.406 . S
C754 C759 1.261 . S
C755 H722 0.930 . S
C755 N757 1.325 . S
C755 C758 1.357 . S
C756 H724 0.928 . S
C756 C754 1.406 . S
C756 N757 1.261 . S
N757 Co708 2.214 . S
N757 C755 1.325 . S
N757 C756 1.261 . S
C758 H728 0.931 . S
C758 C755 1.357 . S
C758 C759 1.312 . S
C759 H730 0.930 . S
C759 C754 1.261 . S
C759 C758 1.312 . S
C760 O732 1.214 . S
C760 O740 1.234 . S
C761 H733 0.929 . S
C761 C764 1.391 1_565 S
C761 C766 1.391 . S
C762 H734 0.929 . S
C762 C763 1.390 . S
C762 N765 1.391 1_545 S
C763 H735 0.930 . S
C763 C762 1.390 . S
C763 C764 1.392 . S
C764 H736 0.929 . S
C764 C761 1.391 1_545 S
C764 C763 1.392 . S
N765 Co709 2.257 . S
N765 C762 1.391 1_565 S
N765 C766 1.388 . S
C766 H737 0.930 . S
C766 C761 1.391 . S
C766 N765 1.388 . S
Co767 O769 2.143 . S
Co767 O775 2.074 . S
Co767 O778 2.093 . S
Co767 O791 2.097 . S
Co767 N808 2.151 . S
Co767 N816 2.214 . S
Co768 O769 2.160 . S
Co768 O774 2.058 . S
Co768 O784 2.057 . S
Co768 O799 2.037 . S
Co768 N803 2.145 1_455 S
Co768 N824 2.257 . S
O769 Co767 2.143 . S
O769 Co768 2.160 . S
C770 O771 1.278 . S
C770 O778 1.224 . S
O771 C770 1.278 . S
C772 O773 1.245 . S
C772 O784 1.232 . S
O773 C772 1.245 . S
O774 Co768 2.058 . S
O774 C800 1.269 . S
O775 Co767 2.074 . S
O775 C800 1.257 . S
H776 C801 0.930 . S
H777 C807 0.930 . S
O778 Co767 2.093 . S
O778 C770 1.224 . S
H779 C811 0.929 . S
H780 C813 0.930 . S
H781 C814 0.930 . S
H782 C812 0.929 . S
H783 C815 0.928 . S
O784 Co768 2.057 . S
O784 C772 1.232 . S
H785 C804 0.929 1_455 S
H786 C805 0.929 . S
H787 C817 0.931 . S
H788 C809 0.929 . S
H789 C818 0.930 . S
H790 C810 0.931 . S
O791 Co767 2.097 . S
O791 C819 1.214 . S
H792 C820 0.929 . S
H793 C821 0.929 . S
H794 C822 0.930 . S
H795 C823 0.929 . S
H796 C825 0.930 . S
H797 C802 0.930 . S
H798 C806 0.930 . S
O799 Co768 2.037 . S
O799 C819 1.234 . S
C800 O774 1.269 . S
C800 O775 1.257 . S
C801 H776 0.930 . S
C801 C804 1.388 . S
C801 C806 1.418 . S
C802 H797 0.930 . S
C802 C805 1.404 . S
C802 C806 1.353 . S
N803 Co768 2.145 1_655 S
N803 C804 1.397 . S
N803 C805 1.334 . S
C804 H785 0.929 1_655 S
C804 C801 1.388 . S
C804 N803 1.397 . S
C805 H786 0.929 . S
C805 C802 1.404 . S
C805 N803 1.334 . S
C806 H798 0.930 . S
C806 C801 1.418 . S
C806 C802 1.353 . S
C807 H777 0.930 . S
C807 N808 1.330 . S
C807 C809 1.446 . S
N808 Co767 2.151 . S
N808 C807 1.330 . S
N808 C812 1.418 . S
C809 H788 0.929 . S
C809 C807 1.446 . S
C809 C810 1.332 . S
C810 H790 0.931 . S
C810 C809 1.332 . S
C810 C811 1.267 . S
C811 H779 0.929 . S
C811 C810 1.267 . S
C811 C812 1.251 . S
C812 H782 0.929 . S
C812 N808 1.418 . S
C812 C811 1.251 . S
C813 H780 0.930 . S
C813 C815 1.406 . S
C813 C818 1.261 . S
C814 H781 0.930 . S
C814 N816 1.325 . S
C814 C817 1.357 . S
C815 H783 0.928 . S
C815 C813 1.406 . S
C815 N816 1.261 . S
N816 Co767 2.214 . S
N816 C814 1.325 . S
N816 C815 1.261 . S
C817 H787 0.931 . S
C817 C814 1.357 . S
C817 C818 1.312 . S
C818 H789 0.930 . S
C818 C813 1.261 . S
C818 C817 1.312 . S
C819 O791 1.214 . S
C819 O799 1.234 . S
C820 H792 0.929 . S
C820 C823 1.391 1_455 S
C820 C825 1.391 . S
C821 H793 0.929 . S
C821 C822 1.390 . S
C821 N824 1.391 1_655 S
C822 H794 0.930 . S
C822 C821 1.390 . S
C822 C823 1.392 . S
C823 H795 0.929 . S
C823 C820 1.391 1_655 S
C823 C822 1.392 . S
N824 Co768 2.257 . S
N824 C821 1.391 1_455 S
N824 C825 1.388 . S
C825 H796 0.930 . S
C825 C820 1.391 . S
C825 N824 1.388 . S
Co826 O828 2.143 . S
Co826 O834 2.074 . S
Co826 O837 2.093 . S
Co826 O850 2.097 . S
Co826 N867 2.151 . S
Co826 N875 2.214 . S
Co827 O828 2.160 . S
Co827 O833 2.058 . S
Co827 O843 2.057 . S
Co827 O858 2.037 . S
Co827 N862 2.145 . S
Co827 N883 2.257 . S
O828 Co826 2.143 . S
O828 Co827 2.160 . S
C829 O830 1.278 . S
C829 O837 1.224 . S
O830 C829 1.278 . S
C831 O832 1.245 . S
C831 O843 1.232 . S
O832 C831 1.245 . S
O833 Co827 2.058 . S
O833 C859 1.269 . S
O834 Co826 2.074 . S
O834 C859 1.257 . S
H835 C860 0.930 . S
H836 C866 0.930 . S
O837 Co826 2.093 . S
O837 C829 1.224 . S
H838 C870 0.929 . S
H839 C872 0.930 . S
H840 C873 0.930 . S
H841 C871 0.929 . S
H842 C874 0.928 . S
O843 Co827 2.057 . S
O843 C831 1.232 . S
H844 C863 0.929 . S
H845 C864 0.929 . S
H846 C876 0.931 . S
H847 C868 0.929 . S
H848 C877 0.930 . S
H849 C869 0.931 . S
O850 Co826 2.097 . S
O850 C878 1.214 . S
H851 C879 0.929 . S
H852 C880 0.929 . S
H853 C881 0.930 . S
H854 C882 0.929 . S
H855 C884 0.930 . S
H856 C861 0.930 . S
H857 C865 0.930 . S
O858 Co827 2.037 . S
O858 C878 1.234 . S
C859 O833 1.269 . S
C859 O834 1.257 . S
C860 H835 0.930 . S
C860 C863 1.388 . S
C860 C865 1.418 . S
C861 H856 0.930 . S
C861 C864 1.404 . S
C861 C865 1.353 . S
N862 Co827 2.145 . S
N862 C863 1.397 . S
N862 C864 1.334 . S
C863 H844 0.929 . S
C863 C860 1.388 . S
C863 N862 1.397 . S
C864 H845 0.929 . S
C864 C861 1.404 . S
C864 N862 1.334 . S
C865 H857 0.930 . S
C865 C860 1.418 . S
C865 C861 1.353 . S
C866 H836 0.930 . S
C866 N867 1.330 . S
C866 C868 1.446 . S
N867 Co826 2.151 . S
N867 C866 1.330 . S
N867 C871 1.418 . S
C868 H847 0.929 . S
C868 C866 1.446 . S
C868 C869 1.332 . S
C869 H849 0.931 . S
C869 C868 1.332 . S
C869 C870 1.267 . S
C870 H838 0.929 . S
C870 C869 1.267 . S
C870 C871 1.251 . S
C871 H841 0.929 . S
C871 N867 1.418 . S
C871 C870 1.251 . S
C872 H839 0.930 . S
C872 C874 1.406 . S
C872 C877 1.261 . S
C873 H840 0.930 . S
C873 N875 1.325 . S
C873 C876 1.357 . S
C874 H842 0.928 . S
C874 C872 1.406 . S
C874 N875 1.261 . S
N875 Co826 2.214 . S
N875 C873 1.325 . S
N875 C874 1.261 . S
C876 H846 0.931 . S
C876 C873 1.357 . S
C876 C877 1.312 . S
C877 H848 0.930 . S
C877 C872 1.261 . S
C877 C876 1.312 . S
C878 O850 1.214 . S
C878 O858 1.234 . S
C879 H851 0.929 . S
C879 C882 1.391 . S
C879 C884 1.391 . S
C880 H852 0.929 . S
C880 C881 1.390 . S
C880 N883 1.391 . S
C881 H853 0.930 . S
C881 C880 1.390 . S
C881 C882 1.392 . S
C882 H854 0.929 . S
C882 C879 1.391 . S
C882 C881 1.392 . S
N883 Co827 2.257 . S
N883 C880 1.391 . S
N883 C884 1.388 . S
C884 H855 0.930 . S
C884 C879 1.391 . S
C884 N883 1.388 . S
Co885 O887 2.143 . S
Co885 O893 2.074 . S
Co885 O896 2.093 . S
Co885 O909 2.097 . S
Co885 N926 2.151 . S
Co885 N934 2.214 . S
Co886 O887 2.160 . S
Co886 O892 2.058 . S
Co886 O902 2.057 . S
Co886 O917 2.037 . S
Co886 N921 2.145 . S
Co886 N942 2.257 . S
O887 Co885 2.143 . S
O887 Co886 2.160 . S
C888 O889 1.278 . S
C888 O896 1.224 . S
O889 C888 1.278 . S
C890 O891 1.245 . S
C890 O902 1.232 . S
O891 C890 1.245 . S
O892 Co886 2.058 . S
O892 C918 1.269 . S
O893 Co885 2.074 . S
O893 C918 1.257 . S
H894 C919 0.930 . S
H895 C925 0.930 . S
O896 Co885 2.093 . S
O896 C888 1.224 . S
H897 C929 0.929 . S
H898 C931 0.930 . S
H899 C932 0.930 . S
H900 C930 0.929 . S
H901 C933 0.928 . S
O902 Co886 2.057 . S
O902 C890 1.232 . S
H903 C922 0.929 . S
H904 C923 0.929 . S
H905 C935 0.931 . S
H906 C927 0.929 . S
H907 C936 0.930 . S
H908 C928 0.931 . S
O909 Co885 2.097 . S
O909 C937 1.214 . S
H910 C938 0.929 . S
H911 C939 0.929 . S
H912 C940 0.930 . S
H913 C941 0.929 . S
H914 C943 0.930 . S
H915 C920 0.930 . S
H916 C924 0.930 . S
O917 Co886 2.037 . S
O917 C937 1.234 . S
C918 O892 1.269 . S
C918 O893 1.257 . S
C919 H894 0.930 . S
C919 C922 1.388 . S
C919 C924 1.418 . S
C920 H915 0.930 . S
C920 C923 1.404 . S
C920 C924 1.353 . S
N921 Co886 2.145 . S
N921 C922 1.397 . S
N921 C923 1.334 . S
C922 H903 0.929 . S
C922 C919 1.388 . S
C922 N921 1.397 . S
C923 H904 0.929 . S
C923 C920 1.404 . S
C923 N921 1.334 . S
C924 H916 0.930 . S
C924 C919 1.418 . S
C924 C920 1.353 . S
C925 H895 0.930 . S
C925 N926 1.330 . S
C925 C927 1.446 . S
N926 Co885 2.151 . S
N926 C925 1.330 . S
N926 C930 1.418 . S
C927 H906 0.929 . S
C927 C925 1.446 . S
C927 C928 1.332 . S
C928 H908 0.931 . S
C928 C927 1.332 . S
C928 C929 1.267 . S
C929 H897 0.929 . S
C929 C928 1.267 . S
C929 C930 1.251 . S
C930 H900 0.929 . S
C930 N926 1.418 . S
C930 C929 1.251 . S
C931 H898 0.930 . S
C931 C933 1.406 . S
C931 C936 1.261 . S
C932 H899 0.930 . S
C932 N934 1.325 . S
C932 C935 1.357 . S
C933 H901 0.928 . S
C933 C931 1.406 . S
C933 N934 1.261 . S
N934 Co885 2.214 . S
N934 C932 1.325 . S
N934 C933 1.261 . S
C935 H905 0.931 . S
C935 C932 1.357 . S
C935 C936 1.312 . S
C936 H907 0.930 . S
C936 C931 1.261 . S
C936 C935 1.312 . S
C937 O909 1.214 . S
C937 O917 1.234 . S
C938 H910 0.929 . S
C938 C941 1.391 . S
C938 C943 1.391 . S
C939 H911 0.929 . S
C939 C940 1.390 . S
C939 N942 1.391 . S
C940 H912 0.930 . S
C940 C939 1.390 . S
C940 C941 1.392 . S
C941 H913 0.929 . S
C941 C938 1.391 . S
C941 C940 1.392 . S
N942 Co886 2.257 . S
N942 C939 1.391 . S
N942 C943 1.388 . S
C943 H914 0.930 . S
C943 C938 1.391 . S
C943 N942 1.388 . S
C944 C945 1.391 . S
C944 C946 1.394 . S
C944 H960 0.931 . S
C945 C944 1.391 . S
C945 C949 1.376 . S
C946 C944 1.394 . S
C946 C947 1.369 . S
C946 C950 1.531 . S
C947 C946 1.369 . S
C947 C948 1.410 . S
C947 C955 1.503 . S
C948 C947 1.410 . S
C948 C949 1.392 . S
C948 C951 1.511 . S
C949 C945 1.376 . S
C949 C948 1.392 . S
C949 H961 0.929 . S
C950 C946 1.531 . S
C950 H962 0.960 . S
C950 H963 0.962 . S
C950 H964 0.960 . S
C951 C948 1.511 . S
C951 H965 0.961 . S
C951 H966 0.961 . S
C951 H967 0.961 . S
C952 C953 1.370 . S
C952 C954 1.363 . S
C952 H968 0.931 . S
C953 C952 1.370 . S
C953 C957 1.408 . S
C954 C952 1.363 . S
C954 C955 1.370 . S
C954 C958 1.524 . S
C955 C947 1.503 . S
C955 C954 1.370 . S
C955 C956 1.403 . S
C956 C955 1.403 . S
C956 C957 1.404 . S
C956 C959 1.539 . S
C957 C953 1.408 . S
C957 C956 1.404 . S
C957 H969 0.930 . S
C958 C954 1.524 . S
C958 H970 0.956 . S
C958 H971 0.961 . S
C958 H972 0.961 . S
C959 C956 1.539 . S
C959 H973 0.958 . S
C959 H974 0.961 . S
C959 H975 0.960 . S
H960 C944 0.931 . S
H961 C949 0.929 . S
H962 C950 0.960 . S
H963 C950 0.962 . S
H964 C950 0.960 . S
H965 C951 0.961 . S
H966 C951 0.961 . S
H967 C951 0.961 . S
H968 C952 0.931 . S
H969 C957 0.930 . S
H970 C958 0.956 . S
H971 C958 0.961 . S
H972 C958 0.961 . S
H973 C959 0.958 . S
H974 C959 0.961 . S
H975 C959 0.960 . S
C976 C977 1.391 . S
C976 C978 1.394 . S
C976 H992 0.931 . S
C977 C976 1.391 . S
C977 C981 1.376 . S
C978 C976 1.394 . S
C978 C979 1.369 . S
C978 C982 1.531 . S
C979 C978 1.369 . S
C979 C980 1.410 . S
C979 C987 1.503 . S
C980 C979 1.410 . S
C980 C981 1.392 . S
C980 C983 1.511 . S
C981 C977 1.376 . S
C981 C980 1.392 . S
C981 H993 0.929 . S
C982 C978 1.531 . S
C982 H994 0.960 . S
C982 H995 0.962 . S
C982 H996 0.960 . S
C983 C980 1.511 . S
C983 H997 0.961 . S
C983 H998 0.961 . S
C983 H999 0.961 . S
C984 C985 1.370 . S
C984 C986 1.363 . S
C984 H1000 0.931 . S
C985 C984 1.370 . S
C985 C989 1.408 . S
C986 C984 1.363 . S
C986 C987 1.370 . S
C986 C990 1.524 . S
C987 C979 1.503 . S
C987 C986 1.370 . S
C987 C988 1.403 . S
C988 C987 1.403 . S
C988 C989 1.404 . S
C988 C991 1.539 . S
C989 C985 1.408 . S
C989 C988 1.404 . S
C989 H1001 0.930 . S
C990 C986 1.524 . S
C990 H1002 0.956 . S
C990 H1003 0.961 . S
C990 H1004 0.961 . S
C991 C988 1.539 . S
C991 H1005 0.958 . S
C991 H1006 0.961 . S
C991 H1007 0.960 . S
H992 C976 0.931 . S
H993 C981 0.929 . S
H994 C982 0.960 . S
H995 C982 0.962 . S
H996 C982 0.960 . S
H997 C983 0.961 . S
H998 C983 0.961 . S
H999 C983 0.961 . S
H1000 C984 0.931 . S
H1001 C989 0.930 . S
H1002 C990 0.956 . S
H1003 C990 0.961 . S
H1004 C990 0.961 . S
H1005 C991 0.958 . S
H1006 C991 0.961 . S
H1007 C991 0.960 . S
C1008 C1009 1.391 . S
C1008 C1010 1.394 . S
C1008 H1024 0.931 . S
C1009 C1008 1.391 . S
C1009 C1013 1.376 . S
C1010 C1008 1.394 . S
C1010 C1011 1.369 . S
C1010 C1014 1.531 . S
C1011 C1010 1.369 . S
C1011 C1012 1.410 . S
C1011 C1019 1.503 . S
C1012 C1011 1.410 . S
C1012 C1013 1.392 . S
C1012 C1015 1.511 . S
C1013 C1009 1.376 . S
C1013 C1012 1.392 . S
C1013 H1025 0.929 . S
C1014 C1010 1.531 . S
C1014 H1026 0.960 . S
C1014 H1027 0.962 . S
C1014 H1028 0.960 . S
C1015 C1012 1.511 . S
C1015 H1029 0.961 . S
C1015 H1030 0.961 . S
C1015 H1031 0.961 . S
C1016 C1017 1.370 . S
C1016 C1018 1.363 . S
C1016 H1032 0.931 . S
C1017 C1016 1.370 . S
C1017 C1021 1.408 . S
C1018 C1016 1.363 . S
C1018 C1019 1.370 . S
C1018 C1022 1.524 . S
C1019 C1011 1.503 . S
C1019 C1018 1.370 . S
C1019 C1020 1.403 . S
C1020 C1019 1.403 . S
C1020 C1021 1.404 . S
C1020 C1023 1.539 . S
C1021 C1017 1.408 . S
C1021 C1020 1.404 . S
C1021 H1033 0.930 . S
C1022 C1018 1.524 . S
C1022 H1034 0.956 . S
C1022 H1035 0.961 . S
C1022 H1036 0.961 . S
C1023 C1020 1.539 . S
C1023 H1037 0.958 . S
C1023 H1038 0.961 . S
C1023 H1039 0.960 . S
H1024 C1008 0.931 . S
H1025 C1013 0.929 . S
H1026 C1014 0.960 . S
H1027 C1014 0.962 . S
H1028 C1014 0.960 . S
H1029 C1015 0.961 . S
H1030 C1015 0.961 . S
H1031 C1015 0.961 . S
H1032 C1016 0.931 . S
H1033 C1021 0.930 . S
H1034 C1022 0.956 . S
H1035 C1022 0.961 . S
H1036 C1022 0.961 . S
H1037 C1023 0.958 . S
H1038 C1023 0.961 . S
H1039 C1023 0.960 . S
C1040 C1041 1.391 . S
C1040 C1042 1.394 . S
C1040 H1056 0.931 . S
C1041 C1040 1.391 . S
C1041 C1045 1.376 . S
C1042 C1040 1.394 . S
C1042 C1043 1.369 . S
C1042 C1046 1.531 . S
C1043 C1042 1.369 . S
C1043 C1044 1.410 . S
C1043 C1051 1.503 . S
C1044 C1043 1.410 . S
C1044 C1045 1.392 . S
C1044 C1047 1.511 . S
C1045 C1041 1.376 . S
C1045 C1044 1.392 . S
C1045 H1057 0.929 . S
C1046 C1042 1.531 . S
C1046 H1058 0.960 . S
C1046 H1059 0.962 . S
C1046 H1060 0.960 . S
C1047 C1044 1.511 . S
C1047 H1061 0.961 . S
C1047 H1062 0.961 . S
C1047 H1063 0.961 . S
C1048 C1049 1.370 . S
C1048 C1050 1.363 . S
C1048 H1064 0.931 . S
C1049 C1048 1.370 . S
C1049 C1053 1.408 . S
C1050 C1048 1.363 . S
C1050 C1051 1.370 . S
C1050 C1054 1.524 . S
C1051 C1043 1.503 . S
C1051 C1050 1.370 . S
C1051 C1052 1.403 . S
C1052 C1051 1.403 . S
C1052 C1053 1.404 . S
C1052 C1055 1.539 . S
C1053 C1049 1.408 . S
C1053 C1052 1.404 . S
C1053 H1065 0.930 . S
C1054 C1050 1.524 . S
C1054 H1066 0.956 . S
C1054 H1067 0.961 . S
C1054 H1068 0.961 . S
C1055 C1052 1.539 . S
C1055 H1069 0.958 . S
C1055 H1070 0.961 . S
C1055 H1071 0.960 . S
H1056 C1040 0.931 . S
H1057 C1045 0.929 . S
H1058 C1046 0.960 . S
H1059 C1046 0.962 . S
H1060 C1046 0.960 . S
H1061 C1047 0.961 . S
H1062 C1047 0.961 . S
H1063 C1047 0.961 . S
H1064 C1048 0.931 . S
H1065 C1053 0.930 . S
H1066 C1054 0.956 . S
H1067 C1054 0.961 . S
H1068 C1054 0.961 . S
H1069 C1055 0.958 . S
H1070 C1055 0.961 . S
H1071 C1055 0.960 . S
C1072 C1073 1.391 . S
C1072 C1074 1.394 . S
C1072 H1088 0.931 . S
C1073 C1072 1.391 . S
C1073 C1077 1.376 . S
C1074 C1072 1.394 . S
C1074 C1075 1.369 . S
C1074 C1078 1.531 . S
C1075 C1074 1.369 . S
C1075 C1076 1.410 . S
C1075 C1083 1.503 . S
C1076 C1075 1.410 . S
C1076 C1077 1.392 . S
C1076 C1079 1.511 . S
C1077 C1073 1.376 . S
C1077 C1076 1.392 . S
C1077 H1089 0.929 . S
C1078 C1074 1.531 . S
C1078 H1090 0.960 . S
C1078 H1091 0.962 . S
C1078 H1092 0.960 . S
C1079 C1076 1.511 . S
C1079 H1093 0.961 . S
C1079 H1094 0.961 . S
C1079 H1095 0.961 . S
C1080 C1081 1.370 . S
C1080 C1082 1.363 . S
C1080 H1096 0.931 . S
C1081 C1080 1.370 . S
C1081 C1085 1.408 . S
C1082 C1080 1.363 . S
C1082 C1083 1.370 . S
C1082 C1086 1.524 . S
C1083 C1075 1.503 . S
C1083 C1082 1.370 . S
C1083 C1084 1.403 . S
C1084 C1083 1.403 . S
C1084 C1085 1.404 . S
C1084 C1087 1.539 . S
C1085 C1081 1.408 . S
C1085 C1084 1.404 . S
C1085 H1097 0.930 . S
C1086 C1082 1.524 . S
C1086 H1098 0.956 . S
C1086 H1099 0.961 . S
C1086 H1100 0.961 . S
C1087 C1084 1.539 . S
C1087 H1101 0.958 . S
C1087 H1102 0.961 . S
C1087 H1103 0.960 . S
H1088 C1072 0.931 . S
H1089 C1077 0.929 . S
H1090 C1078 0.960 . S
H1091 C1078 0.962 . S
H1092 C1078 0.960 . S
H1093 C1079 0.961 . S
H1094 C1079 0.961 . S
H1095 C1079 0.961 . S
H1096 C1080 0.931 . S
H1097 C1085 0.930 . S
H1098 C1086 0.956 . S
H1099 C1086 0.961 . S
H1100 C1086 0.961 . S
H1101 C1087 0.958 . S
H1102 C1087 0.961 . S
H1103 C1087 0.960 . S
C1104 C1105 1.391 . S
C1104 C1106 1.394 . S
C1104 H1120 0.931 . S
C1105 C1104 1.391 . S
C1105 C1109 1.376 . S
C1106 C1104 1.394 . S
C1106 C1107 1.369 . S
C1106 C1110 1.531 . S
C1107 C1106 1.369 . S
C1107 C1108 1.410 . S
C1107 C1115 1.503 . S
C1108 C1107 1.410 . S
C1108 C1109 1.392 . S
C1108 C1111 1.511 . S
C1109 C1105 1.376 . S
C1109 C1108 1.392 . S
C1109 H1121 0.929 . S
C1110 C1106 1.531 . S
C1110 H1122 0.960 . S
C1110 H1123 0.962 . S
C1110 H1124 0.960 . S
C1111 C1108 1.511 . S
C1111 H1125 0.961 . S
C1111 H1126 0.961 . S
C1111 H1127 0.961 . S
C1112 C1113 1.370 . S
C1112 C1114 1.363 . S
C1112 H1128 0.931 . S
C1113 C1112 1.370 . S
C1113 C1117 1.408 . S
C1114 C1112 1.363 . S
C1114 C1115 1.370 . S
C1114 C1118 1.524 . S
C1115 C1107 1.503 . S
C1115 C1114 1.370 . S
C1115 C1116 1.403 . S
C1116 C1115 1.403 . S
C1116 C1117 1.404 . S
C1116 C1119 1.539 . S
C1117 C1113 1.408 . S
C1117 C1116 1.404 . S
C1117 H1129 0.930 . S
C1118 C1114 1.524 . S
C1118 H1130 0.956 . S
C1118 H1131 0.961 . S
C1118 H1132 0.961 . S
C1119 C1116 1.539 . S
C1119 H1133 0.958 . S
C1119 H1134 0.961 . S
C1119 H1135 0.960 . S
H1120 C1104 0.931 . S
H1121 C1109 0.929 . S
H1122 C1110 0.960 . S
H1123 C1110 0.962 . S
H1124 C1110 0.960 . S
H1125 C1111 0.961 . S
H1126 C1111 0.961 . S
H1127 C1111 0.961 . S
H1128 C1112 0.931 . S
H1129 C1117 0.930 . S
H1130 C1118 0.956 . S
H1131 C1118 0.961 . S
H1132 C1118 0.961 . S
H1133 C1119 0.958 . S
H1134 C1119 0.961 . S
H1135 C1119 0.960 . S
C1136 C1137 1.391 . S
C1136 C1138 1.394 . S
C1136 H1152 0.931 . S
C1137 C1136 1.391 . S
C1137 C1141 1.376 . S
C1138 C1136 1.394 . S
C1138 C1139 1.369 . S
C1138 C1142 1.531 . S
C1139 C1138 1.369 . S
C1139 C1140 1.410 . S
C1139 C1147 1.503 . S
C1140 C1139 1.410 . S
C1140 C1141 1.392 . S
C1140 C1143 1.511 . S
C1141 C1137 1.376 . S
C1141 C1140 1.392 . S
C1141 H1153 0.929 . S
C1142 C1138 1.531 . S
C1142 H1154 0.960 . S
C1142 H1155 0.962 . S
C1142 H1156 0.960 . S
C1143 C1140 1.511 . S
C1143 H1157 0.961 . S
C1143 H1158 0.961 . S
C1143 H1159 0.961 . S
C1144 C1145 1.370 . S
C1144 C1146 1.363 . S
C1144 H1160 0.931 . S
C1145 C1144 1.370 . S
C1145 C1149 1.408 . S
C1146 C1144 1.363 . S
C1146 C1147 1.370 . S
C1146 C1150 1.524 . S
C1147 C1139 1.503 . S
C1147 C1146 1.370 . S
C1147 C1148 1.403 . S
C1148 C1147 1.403 . S
C1148 C1149 1.404 . S
C1148 C1151 1.539 . S
C1149 C1145 1.408 . S
C1149 C1148 1.404 . S
C1149 H1161 0.930 . S
C1150 C1146 1.524 . S
C1150 H1162 0.956 . S
C1150 H1163 0.961 . S
C1150 H1164 0.961 . S
C1151 C1148 1.539 . S
C1151 H1165 0.958 . S
C1151 H1166 0.961 . S
C1151 H1167 0.960 . S
H1152 C1136 0.931 . S
H1153 C1141 0.929 . S
H1154 C1142 0.960 . S
H1155 C1142 0.962 . S
H1156 C1142 0.960 . S
H1157 C1143 0.961 . S
H1158 C1143 0.961 . S
H1159 C1143 0.961 . S
H1160 C1144 0.931 . S
H1161 C1149 0.930 . S
H1162 C1150 0.956 . S
H1163 C1150 0.961 . S
H1164 C1150 0.961 . S
H1165 C1151 0.958 . S
H1166 C1151 0.961 . S
H1167 C1151 0.960 . S
C1168 C1169 1.391 . S
C1168 C1170 1.394 . S
C1168 H1184 0.931 . S
C1169 C1168 1.391 . S
C1169 C1173 1.376 . S
C1170 C1168 1.394 . S
C1170 C1171 1.369 . S
C1170 C1174 1.531 . S
C1171 C1170 1.369 . S
C1171 C1172 1.410 . S
C1171 C1179 1.503 . S
C1172 C1171 1.410 . S
C1172 C1173 1.392 . S
C1172 C1175 1.511 . S
C1173 C1169 1.376 . S
C1173 C1172 1.392 . S
C1173 H1185 0.929 . S
C1174 C1170 1.531 . S
C1174 H1186 0.960 . S
C1174 H1187 0.962 . S
C1174 H1188 0.960 . S
C1175 C1172 1.511 . S
C1175 H1189 0.961 . S
C1175 H1190 0.961 . S
C1175 H1191 0.961 . S
C1176 C1177 1.370 . S
C1176 C1178 1.363 . S
C1176 H1192 0.931 . S
C1177 C1176 1.370 . S
C1177 C1181 1.408 . S
C1178 C1176 1.363 . S
C1178 C1179 1.370 . S
C1178 C1182 1.524 . S
C1179 C1171 1.503 . S
C1179 C1178 1.370 . S
C1179 C1180 1.403 . S
C1180 C1179 1.403 . S
C1180 C1181 1.404 . S
C1180 C1183 1.539 . S
C1181 C1177 1.408 . S
C1181 C1180 1.404 . S
C1181 H1193 0.930 . S
C1182 C1178 1.524 . S
C1182 H1194 0.956 . S
C1182 H1195 0.961 . S
C1182 H1196 0.961 . S
C1183 C1180 1.539 . S
C1183 H1197 0.958 . S
C1183 H1198 0.961 . S
C1183 H1199 0.960 . S
H1184 C1168 0.931 . S
H1185 C1173 0.929 . S
H1186 C1174 0.960 . S
H1187 C1174 0.962 . S
H1188 C1174 0.960 . S
H1189 C1175 0.961 . S
H1190 C1175 0.961 . S
H1191 C1175 0.961 . S
H1192 C1176 0.931 . S
H1193 C1181 0.930 . S
H1194 C1182 0.956 . S
H1195 C1182 0.961 . S
H1196 C1182 0.961 . S
H1197 C1183 0.958 . S
H1198 C1183 0.961 . S
H1199 C1183 0.960 . S
C1200 C1201 1.391 . S
C1200 C1202 1.394 . S
C1200 H1216 0.931 . S
C1201 C1200 1.391 . S
C1201 C1205 1.376 . S
C1202 C1200 1.394 . S
C1202 C1203 1.369 . S
C1202 C1206 1.531 . S
C1203 C1202 1.369 . S
C1203 C1204 1.410 . S
C1203 C1211 1.503 . S
C1204 C1203 1.410 . S
C1204 C1205 1.392 . S
C1204 C1207 1.511 . S
C1205 C1201 1.376 . S
C1205 C1204 1.392 . S
C1205 H1217 0.929 . S
C1206 C1202 1.531 . S
C1206 H1218 0.960 . S
C1206 H1219 0.962 . S
C1206 H1220 0.960 . S
C1207 C1204 1.511 . S
C1207 H1221 0.961 . S
C1207 H1222 0.961 . S
C1207 H1223 0.961 . S
C1208 C1209 1.370 . S
C1208 C1210 1.363 . S
C1208 H1224 0.931 . S
C1209 C1208 1.370 . S
C1209 C1213 1.408 . S
C1210 C1208 1.363 . S
C1210 C1211 1.370 . S
C1210 C1214 1.524 . S
C1211 C1203 1.503 . S
C1211 C1210 1.370 . S
C1211 C1212 1.403 . S
C1212 C1211 1.403 . S
C1212 C1213 1.404 . S
C1212 C1215 1.539 . S
C1213 C1209 1.408 . S
C1213 C1212 1.404 . S
C1213 H1225 0.930 . S
C1214 C1210 1.524 . S
C1214 H1226 0.956 . S
C1214 H1227 0.961 . S
C1214 H1228 0.961 . S
C1215 C1212 1.539 . S
C1215 H1229 0.958 . S
C1215 H1230 0.961 . S
C1215 H1231 0.960 . S
H1216 C1200 0.931 . S
H1217 C1205 0.929 . S
H1218 C1206 0.960 . S
H1219 C1206 0.962 . S
H1220 C1206 0.960 . S
H1221 C1207 0.961 . S
H1222 C1207 0.961 . S
H1223 C1207 0.961 . S
H1224 C1208 0.931 . S
H1225 C1213 0.930 . S
H1226 C1214 0.956 . S
H1227 C1214 0.961 . S
H1228 C1214 0.961 . S
H1229 C1215 0.958 . S
H1230 C1215 0.961 . S
H1231 C1215 0.960 . S
C1232 C1233 1.391 . S
C1232 C1234 1.394 . S
C1232 H1248 0.931 . S
C1233 C1232 1.391 . S
C1233 C1237 1.376 . S
C1234 C1232 1.394 . S
C1234 C1235 1.369 . S
C1234 C1238 1.531 . S
C1235 C1234 1.369 . S
C1235 C1236 1.410 . S
C1235 C1243 1.503 . S
C1236 C1235 1.410 . S
C1236 C1237 1.392 . S
C1236 C1239 1.511 . S
C1237 C1233 1.376 . S
C1237 C1236 1.392 . S
C1237 H1249 0.929 . S
C1238 C1234 1.531 . S
C1238 H1250 0.960 . S
C1238 H1251 0.962 . S
C1238 H1252 0.960 . S
C1239 C1236 1.511 . S
C1239 H1253 0.961 . S
C1239 H1254 0.961 . S
C1239 H1255 0.961 . S
C1240 C1241 1.370 . S
C1240 C1242 1.363 . S
C1240 H1256 0.931 . S
C1241 C1240 1.370 . S
C1241 C1245 1.408 . S
C1242 C1240 1.363 . S
C1242 C1243 1.370 . S
C1242 C1246 1.524 . S
C1243 C1235 1.503 . S
C1243 C1242 1.370 . S
C1243 C1244 1.403 . S
C1244 C1243 1.403 . S
C1244 C1245 1.404 . S
C1244 C1247 1.539 . S
C1245 C1241 1.408 . S
C1245 C1244 1.404 . S
C1245 H1257 0.930 . S
C1246 C1242 1.524 . S
C1246 H1258 0.956 . S
C1246 H1259 0.961 . S
C1246 H1260 0.961 . S
C1247 C1244 1.539 . S
C1247 H1261 0.958 . S
C1247 H1262 0.961 . S
C1247 H1263 0.960 . S
H1248 C1232 0.931 . S
H1249 C1237 0.929 . S
H1250 C1238 0.960 . S
H1251 C1238 0.962 . S
H1252 C1238 0.960 . S
H1253 C1239 0.961 . S
H1254 C1239 0.961 . S
H1255 C1239 0.961 . S
H1256 C1240 0.931 . S
H1257 C1245 0.930 . S
H1258 C1246 0.956 . S
H1259 C1246 0.961 . S
H1260 C1246 0.961 . S
H1261 C1247 0.958 . S
H1262 C1247 0.961 . S
H1263 C1247 0.960 . S
C1264 C1265 1.391 . S
C1264 C1266 1.394 . S
C1264 H1280 0.931 . S
C1265 C1264 1.391 . S
C1265 C1269 1.376 . S
C1266 C1264 1.394 . S
C1266 C1267 1.369 . S
C1266 C1270 1.531 . S
C1267 C1266 1.369 . S
C1267 C1268 1.410 . S
C1267 C1275 1.503 . S
C1268 C1267 1.410 . S
C1268 C1269 1.392 . S
C1268 C1271 1.511 . S
C1269 C1265 1.376 . S
C1269 C1268 1.392 . S
C1269 H1281 0.929 . S
C1270 C1266 1.531 . S
C1270 H1282 0.960 . S
C1270 H1283 0.962 . S
C1270 H1284 0.960 . S
C1271 C1268 1.511 . S
C1271 H1285 0.961 . S
C1271 H1286 0.961 . S
C1271 H1287 0.961 . S
C1272 C1273 1.370 . S
C1272 C1274 1.363 . S
C1272 H1288 0.931 . S
C1273 C1272 1.370 . S
C1273 C1277 1.408 . S
C1274 C1272 1.363 . S
C1274 C1275 1.370 . S
C1274 C1278 1.524 . S
C1275 C1267 1.503 . S
C1275 C1274 1.370 . S
C1275 C1276 1.403 . S
C1276 C1275 1.403 . S
C1276 C1277 1.404 . S
C1276 C1279 1.539 . S
C1277 C1273 1.408 . S
C1277 C1276 1.404 . S
C1277 H1289 0.930 . S
C1278 C1274 1.524 . S
C1278 H1290 0.956 . S
C1278 H1291 0.961 . S
C1278 H1292 0.961 . S
C1279 C1276 1.539 . S
C1279 H1293 0.958 . S
C1279 H1294 0.961 . S
C1279 H1295 0.960 . S
H1280 C1264 0.931 . S
H1281 C1269 0.929 . S
H1282 C1270 0.960 . S
H1283 C1270 0.962 . S
H1284 C1270 0.960 . S
H1285 C1271 0.961 . S
H1286 C1271 0.961 . S
H1287 C1271 0.961 . S
H1288 C1272 0.931 . S
H1289 C1277 0.930 . S
H1290 C1278 0.956 . S
H1291 C1278 0.961 . S
H1292 C1278 0.961 . S
H1293 C1279 0.958 . S
H1294 C1279 0.961 . S
H1295 C1279 0.960 . S
C1296 C1297 1.391 . S
C1296 C1298 1.394 . S
C1296 H1312 0.931 . S
C1297 C1296 1.391 . S
C1297 C1301 1.376 . S
C1298 C1296 1.394 . S
C1298 C1299 1.369 . S
C1298 C1302 1.531 1_554 S
C1299 C1298 1.369 . S
C1299 C1300 1.410 . S
C1299 C1307 1.503 1_554 S
C1300 C1299 1.410 . S
C1300 C1301 1.392 . S
C1300 C1303 1.511 . S
C1301 C1297 1.376 . S
C1301 C1300 1.392 . S
C1301 H1313 0.929 . S
C1302 C1298 1.531 1_556 S
C1302 H1314 0.960 . S
C1302 H1315 0.962 . S
C1302 H1316 0.951 1_556 S
C1303 C1300 1.511 . S
C1303 H1317 0.961 . S
C1303 H1318 0.961 . S
C1303 H1319 0.961 . S
C1304 C1305 1.370 . S
C1304 C1306 1.363 . S
C1304 H1320 0.931 . S
C1305 C1304 1.370 . S
C1305 C1309 1.408 . S
C1306 C1304 1.363 . S
C1306 C1307 1.370 . S
C1306 C1310 1.522 1_556 S
C1307 C1299 1.503 1_556 S
C1307 C1306 1.370 . S
C1307 C1308 1.403 . S
C1308 C1307 1.403 . S
C1308 C1309 1.404 . S
C1308 C1311 1.539 . S
C1309 C1305 1.408 . S
C1309 C1308 1.404 . S
C1309 H1321 0.930 . S
C1310 C1306 1.522 1_554 S
C1310 H1322 0.957 . S
C1310 H1323 0.964 . S
C1310 H1324 0.959 1_554 S
C1311 C1308 1.539 . S
C1311 H1325 0.958 . S
C1311 H1326 0.961 . S
C1311 H1327 0.960 . S
H1312 C1296 0.931 . S
H1313 C1301 0.929 . S
H1314 C1302 0.960 . S
H1315 C1302 0.962 . S
H1316 C1302 0.951 1_554 S
H1317 C1303 0.961 . S
H1318 C1303 0.961 . S
H1319 C1303 0.961 . S
H1320 C1304 0.931 . S
H1321 C1309 0.930 . S
H1322 C1310 0.957 . S
H1323 C1310 0.964 . S
H1324 C1310 0.959 1_556 S
H1325 C1311 0.958 . S
H1326 C1311 0.961 . S
H1327 C1311 0.960 . S
C1328 C1329 1.391 . S
C1328 C1330 1.394 . S
C1328 H1344 0.931 . S
C1329 C1328 1.391 . S
C1329 C1333 1.376 . S
C1330 C1328 1.394 . S
C1330 C1331 1.369 . S
C1330 C1334 1.531 . S
C1331 C1330 1.369 . S
C1331 C1332 1.410 . S
C1331 C1339 1.503 1_554 S
C1332 C1331 1.410 . S
C1332 C1333 1.392 . S
C1332 C1335 1.511 . S
C1333 C1329 1.376 . S
C1333 C1332 1.392 . S
C1333 H1345 0.929 . S
C1334 C1330 1.531 . S
C1334 H1346 0.960 1_554 S
C1334 H1347 0.962 . S
C1334 H1348 0.960 . S
C1335 C1332 1.511 . S
C1335 H1349 0.961 . S
C1335 H1350 0.961 . S
C1335 H1351 0.961 . S
C1336 C1337 1.370 . S
C1336 C1338 1.363 . S
C1336 H1352 0.931 . S
C1337 C1336 1.370 . S
C1337 C1341 1.408 . S
C1338 C1336 1.363 . S
C1338 C1339 1.370 . S
C1338 C1342 1.524 1_556 S
C1339 C1331 1.503 1_556 S
C1339 C1338 1.370 . S
C1339 C1340 1.403 . S
C1340 C1339 1.403 . S
C1340 C1341 1.404 . S
C1340 C1343 1.539 . S
C1341 C1337 1.408 . S
C1341 C1340 1.404 . S
C1341 H1353 0.930 . S
C1342 C1338 1.524 1_554 S
C1342 H1354 0.956 . S
C1342 H1355 0.961 . S
C1342 H1356 0.957 1_554 S
C1343 C1340 1.539 . S
C1343 H1357 0.958 . S
C1343 H1358 0.961 . S
C1343 H1359 0.960 . S
H1344 C1328 0.931 . S
H1345 C1333 0.929 . S
H1346 C1334 0.960 1_556 S
H1347 C1334 0.962 . S
H1348 C1334 0.960 . S
H1349 C1335 0.961 . S
H1350 C1335 0.961 . S
H1351 C1335 0.961 . S
H1352 C1336 0.931 . S
H1353 C1341 0.930 . S
H1354 C1342 0.956 . S
H1355 C1342 0.961 . S
H1356 C1342 0.957 1_556 S
H1357 C1343 0.958 . S
H1358 C1343 0.961 . S
H1359 C1343 0.960 . S
C1360 C1361 1.391 . S
C1360 C1362 1.394 . S
C1360 H1376 0.931 . S
C1361 C1360 1.391 . S
C1361 C1365 1.376 . S
C1362 C1360 1.394 . S
C1362 C1363 1.369 . S
C1362 C1366 1.531 . S
C1363 C1362 1.369 . S
C1363 C1364 1.410 . S
C1363 C1371 1.503 . S
C1364 C1363 1.410 . S
C1364 C1365 1.392 . S
C1364 C1367 1.511 . S
C1365 C1361 1.376 . S
C1365 C1364 1.392 . S
C1365 H1377 0.929 . S
C1366 C1362 1.531 . S
C1366 H1378 0.960 . S
C1366 H1379 0.962 . S
C1366 H1380 0.960 . S
C1367 C1364 1.511 . S
C1367 H1381 0.961 . S
C1367 H1382 0.961 . S
C1367 H1383 0.961 . S
C1368 C1369 1.370 . S
C1368 C1370 1.363 . S
C1368 H1384 0.931 . S
C1369 C1368 1.370 . S
C1369 C1373 1.408 . S
C1370 C1368 1.363 . S
C1370 C1371 1.370 . S
C1370 C1374 1.524 . S
C1371 C1363 1.503 . S
C1371 C1370 1.370 . S
C1371 C1372 1.403 . S
C1372 C1371 1.403 . S
C1372 C1373 1.404 . S
C1372 C1375 1.539 . S
C1373 C1369 1.408 . S
C1373 C1372 1.404 . S
C1373 H1385 0.930 . S
C1374 C1370 1.524 . S
C1374 H1386 0.956 . S
C1374 H1387 0.961 . S
C1374 H1388 0.961 . S
C1375 C1372 1.539 . S
C1375 H1389 0.958 . S
C1375 H1390 0.961 . S
C1375 H1391 0.960 . S
H1376 C1360 0.931 . S
H1377 C1365 0.929 . S
H1378 C1366 0.960 . S
H1379 C1366 0.962 . S
H1380 C1366 0.960 . S
H1381 C1367 0.961 . S
H1382 C1367 0.961 . S
H1383 C1367 0.961 . S
H1384 C1368 0.931 . S
H1385 C1373 0.930 . S
H1386 C1374 0.956 . S
H1387 C1374 0.961 . S
H1388 C1374 0.961 . S
H1389 C1375 0.958 . S
H1390 C1375 0.961 . S
H1391 C1375 0.960 . S
C1392 C1393 1.391 . S
C1392 C1394 1.394 . S
C1392 H1408 0.931 . S
C1393 C1392 1.391 . S
C1393 C1397 1.376 . S
C1394 C1392 1.394 . S
C1394 C1395 1.369 . S
C1394 C1398 1.531 . S
C1395 C1394 1.369 . S
C1395 C1396 1.410 . S
C1395 C1403 1.503 . S
C1396 C1395 1.410 . S
C1396 C1397 1.392 . S
C1396 C1399 1.511 . S
C1397 C1393 1.376 . S
C1397 C1396 1.392 . S
C1397 H1409 0.929 . S
C1398 C1394 1.531 . S
C1398 H1410 0.960 . S
C1398 H1411 0.962 . S
C1398 H1412 0.960 . S
C1399 C1396 1.511 . S
C1399 H1413 0.961 . S
C1399 H1414 0.961 . S
C1399 H1415 0.961 . S
C1400 C1401 1.370 . S
C1400 C1402 1.363 . S
C1400 H1416 0.931 . S
C1401 C1400 1.370 . S
C1401 C1405 1.408 . S
C1402 C1400 1.363 . S
C1402 C1403 1.370 . S
C1402 C1406 1.524 . S
C1403 C1395 1.503 . S
C1403 C1402 1.370 . S
C1403 C1404 1.403 . S
C1404 C1403 1.403 . S
C1404 C1405 1.404 . S
C1404 C1407 1.539 . S
C1405 C1401 1.408 . S
C1405 C1404 1.404 . S
C1405 H1417 0.930 . S
C1406 C1402 1.524 . S
C1406 H1418 0.956 . S
C1406 H1419 0.961 . S
C1406 H1420 0.961 . S
C1407 C1404 1.539 . S
C1407 H1421 0.958 . S
C1407 H1422 0.961 . S
C1407 H1423 0.960 . S
H1408 C1392 0.931 . S
H1409 C1397 0.929 . S
H1410 C1398 0.960 . S
H1411 C1398 0.962 . S
H1412 C1398 0.960 . S
H1413 C1399 0.961 . S
H1414 C1399 0.961 . S
H1415 C1399 0.961 . S
H1416 C1400 0.931 . S
H1417 C1405 0.930 . S
H1418 C1406 0.956 . S
H1419 C1406 0.961 . S
H1420 C1406 0.961 . S
H1421 C1407 0.958 . S
H1422 C1407 0.961 . S
H1423 C1407 0.960 . S
C1424 C1425 1.391 . S
C1424 C1426 1.394 . S
C1424 H1440 0.931 . S
C1425 C1424 1.391 . S
C1425 C1429 1.376 . S
C1426 C1424 1.394 . S
C1426 C1427 1.369 . S
C1426 C1430 1.531 . S
C1427 C1426 1.369 . S
C1427 C1428 1.410 . S
C1427 C1435 1.503 . S
C1428 C1427 1.410 . S
C1428 C1429 1.392 . S
C1428 C1431 1.511 . S
C1429 C1425 1.376 . S
C1429 C1428 1.392 . S
C1429 H1441 0.929 . S
C1430 C1426 1.531 . S
C1430 H1442 0.960 . S
C1430 H1443 0.962 . S
C1430 H1444 0.960 . S
C1431 C1428 1.511 . S
C1431 H1445 0.961 . S
C1431 H1446 0.961 . S
C1431 H1447 0.961 . S
C1432 C1433 1.370 . S
C1432 C1434 1.363 . S
C1432 H1448 0.931 . S
C1433 C1432 1.370 . S
C1433 C1437 1.408 . S
C1434 C1432 1.363 . S
C1434 C1435 1.370 . S
C1434 C1438 1.524 . S
C1435 C1427 1.503 . S
C1435 C1434 1.370 . S
C1435 C1436 1.403 . S
C1436 C1435 1.403 . S
C1436 C1437 1.404 . S
C1436 C1439 1.539 . S
C1437 C1433 1.408 . S
C1437 C1436 1.404 . S
C1437 H1449 0.930 . S
C1438 C1434 1.524 . S
C1438 H1450 0.956 . S
C1438 H1451 0.961 . S
C1438 H1452 0.961 . S
C1439 C1436 1.539 . S
C1439 H1453 0.958 . S
C1439 H1454 0.961 . S
C1439 H1455 0.960 . S
H1440 C1424 0.931 . S
H1441 C1429 0.929 . S
H1442 C1430 0.960 . S
H1443 C1430 0.962 . S
H1444 C1430 0.960 . S
H1445 C1431 0.961 . S
H1446 C1431 0.961 . S
H1447 C1431 0.961 . S
H1448 C1432 0.931 . S
H1449 C1437 0.930 . S
H1450 C1438 0.956 . S
H1451 C1438 0.961 . S
H1452 C1438 0.961 . S
H1453 C1439 0.958 . S
H1454 C1439 0.961 . S
H1455 C1439 0.960 . S
C1456 C1457 1.391 . S
C1456 C1458 1.394 . S
C1456 H1472 0.931 . S
C1457 C1456 1.391 . S
C1457 C1461 1.376 . S
C1458 C1456 1.394 . S
C1458 C1459 1.369 . S
C1458 C1462 1.531 1_545 S
C1459 C1458 1.369 . S
C1459 C1460 1.410 . S
C1459 C1467 1.503 1_445 S
C1460 C1459 1.410 . S
C1460 C1461 1.392 . S
C1460 C1463 1.511 . S
C1461 C1457 1.376 . S
C1461 C1460 1.392 . S
C1461 H1473 0.929 . S
C1462 C1458 1.531 1_565 S
C1462 H1474 0.960 . S
C1462 H1475 0.962 . S
C1462 H1476 0.960 . S
C1463 C1460 1.511 . S
C1463 H1477 0.961 . S
C1463 H1478 0.961 1_455 S
C1463 H1479 0.961 . S
C1464 C1465 1.370 . S
C1464 C1466 1.363 1_565 S
C1464 H1480 0.931 1_565 S
C1465 C1464 1.370 . S
C1465 C1469 1.408 . S
C1466 C1464 1.363 1_545 S
C1466 C1467 1.370 1_545 S
C1466 C1470 1.524 . S
C1467 C1459 1.503 1_665 S
C1467 C1466 1.370 1_565 S
C1467 C1468 1.403 . S
C1468 C1467 1.403 . S
C1468 C1469 1.404 . S
C1468 C1471 1.539 1_655 S
C1469 C1465 1.408 . S
C1469 C1468 1.404 . S
C1469 H1481 0.930 . S
C1470 C1466 1.524 . S
C1470 H1482 0.956 . S
C1470 H1483 0.961 . S
C1470 H1484 0.961 . S
C1471 C1468 1.539 1_455 S
C1471 H1485 0.958 . S
C1471 H1486 0.961 . S
C1471 H1487 0.960 . S
H1472 C1456 0.931 . S
H1473 C1461 0.929 . S
H1474 C1462 0.960 . S
H1475 C1462 0.962 . S
H1476 C1462 0.960 . S
H1477 C1463 0.961 . S
H1478 C1463 0.961 1_655 S
H1479 C1463 0.961 . S
H1480 C1464 0.931 1_545 S
H1481 C1469 0.930 . S
H1482 C1470 0.956 . S
H1483 C1470 0.961 . S
H1484 C1470 0.961 . S
H1485 C1471 0.958 . S
H1486 C1471 0.961 . S
H1487 C1471 0.960 . S
C1488 C1489 1.391 . S
C1488 C1490 1.394 . S
C1488 H1504 0.931 . S
C1489 C1488 1.391 . S
C1489 C1493 1.376 . S
C1490 C1488 1.394 . S
C1490 C1491 1.369 . S
C1490 C1494 1.531 . S
C1491 C1490 1.369 . S
C1491 C1492 1.410 1_455 S
C1491 C1499 1.503 1_455 S
C1492 C1491 1.410 1_655 S
C1492 C1493 1.392 1_655 S
C1492 C1495 1.511 . S
C1493 C1489 1.376 . S
C1493 C1492 1.392 1_455 S
C1493 H1505 0.929 1_455 S
C1494 C1490 1.531 . S
C1494 H1506 0.960 . S
C1494 H1507 0.962 . S
C1494 H1508 0.960 . S
C1495 C1492 1.511 . S
C1495 H1509 0.961 . S
C1495 H1510 0.961 . S
C1495 H1511 0.961 . S
C1496 C1497 1.370 . S
C1496 C1498 1.363 . S
C1496 H1512 0.931 . S
C1497 C1496 1.370 . S
C1497 C1501 1.408 . S
C1498 C1496 1.363 . S
C1498 C1499 1.370 . S
C1498 C1502 1.524 1_655 S
C1499 C1491 1.503 1_655 S
C1499 C1498 1.370 . S
C1499 C1500 1.403 . S
C1500 C1499 1.403 . S
C1500 C1501 1.404 . S
C1500 C1503 1.539 . S
C1501 C1497 1.408 . S
C1501 C1500 1.404 . S
C1501 H1513 0.930 . S
C1502 C1498 1.524 1_455 S
C1502 H1514 0.956 . S
C1502 H1515 0.961 . S
C1502 H1516 0.961 . S
C1503 C1500 1.539 . S
C1503 H1517 0.958 . S
C1503 H1518 0.961 . S
C1503 H1519 0.960 . S
H1504 C1488 0.931 . S
H1505 C1493 0.929 1_655 S
H1506 C1494 0.960 . S
H1507 C1494 0.962 . S
H1508 C1494 0.960 . S
H1509 C1495 0.961 . S
H1510 C1495 0.961 . S
H1511 C1495 0.961 . S
H1512 C1496 0.931 . S
H1513 C1501 0.930 . S
H1514 C1502 0.956 . S
H1515 C1502 0.961 . S
H1516 C1502 0.961 . S
H1517 C1503 0.958 . S
H1518 C1503 0.961 . S
H1519 C1503 0.960 . S
C1520 C1521 1.391 . S
C1520 C1522 1.394 . S
C1520 H1536 0.931 . S
C1521 C1520 1.391 . S
C1521 C1525 1.376 . S
C1522 C1520 1.394 . S
C1522 C1523 1.369 . S
C1522 C1526 1.531 . S
C1523 C1522 1.369 . S
C1523 C1524 1.410 . S
C1523 C1531 1.503 . S
C1524 C1523 1.410 . S
C1524 C1525 1.392 . S
C1524 C1527 1.511 . S
C1525 C1521 1.376 . S
C1525 C1524 1.392 . S
C1525 H1537 0.929 . S
C1526 C1522 1.531 . S
C1526 H1538 0.960 . S
C1526 H1539 0.962 . S
C1526 H1540 0.960 . S
C1527 C1524 1.511 . S
C1527 H1541 0.961 . S
C1527 H1542 0.961 . S
C1527 H1543 0.961 . S
C1528 C1529 1.370 . S
C1528 C1530 1.363 . S
C1528 H1544 0.931 . S
C1529 C1528 1.370 . S
C1529 C1533 1.408 . S
C1530 C1528 1.363 . S
C1530 C1531 1.370 . S
C1530 C1534 1.524 . S
C1531 C1523 1.503 . S
C1531 C1530 1.370 . S
C1531 C1532 1.403 . S
C1532 C1531 1.403 . S
C1532 C1533 1.404 . S
C1532 C1535 1.539 . S
C1533 C1529 1.408 . S
C1533 C1532 1.404 . S
C1533 H1545 0.930 . S
C1534 C1530 1.524 . S
C1534 H1546 0.956 . S
C1534 H1547 0.961 . S
C1534 H1548 0.961 . S
C1535 C1532 1.539 . S
C1535 H1549 0.958 . S
C1535 H1550 0.961 . S
C1535 H1551 0.960 . S
H1536 C1520 0.931 . S
H1537 C1525 0.929 . S
H1538 C1526 0.960 . S
H1539 C1526 0.962 . S
H1540 C1526 0.960 . S
H1541 C1527 0.961 . S
H1542 C1527 0.961 . S
H1543 C1527 0.961 . S
H1544 C1528 0.931 . S
H1545 C1533 0.930 . S
H1546 C1534 0.956 . S
H1547 C1534 0.961 . S
H1548 C1534 0.961 . S
H1549 C1535 0.958 . S
H1550 C1535 0.961 . S
H1551 C1535 0.960 . S
C1552 C1553 1.391 . S
C1552 C1554 1.394 . S
C1552 H1568 0.931 . S
C1553 C1552 1.391 . S
C1553 C1557 1.376 . S
C1554 C1552 1.394 . S
C1554 C1555 1.369 . S
C1554 C1558 1.531 . S
C1555 C1554 1.369 . S
C1555 C1556 1.410 . S
C1555 C1563 1.503 1_545 S
C1556 C1555 1.410 . S
C1556 C1557 1.392 . S
C1556 C1559 1.511 1_545 S
C1557 C1553 1.376 . S
C1557 C1556 1.392 . S
C1557 H1569 0.929 . S
C1558 C1554 1.531 . S
C1558 H1570 0.960 . S
C1558 H1571 0.962 . S
C1558 H1572 0.960 . S
C1559 C1556 1.511 1_565 S
C1559 H1573 0.961 . S
C1559 H1574 0.961 . S
C1559 H1575 0.961 . S
C1560 C1561 1.370 . S
C1560 C1562 1.363 . S
C1560 H1576 0.931 . S
C1561 C1560 1.370 . S
C1561 C1565 1.408 . S
C1562 C1560 1.363 . S
C1562 C1563 1.370 . S
C1562 C1566 1.524 . S
C1563 C1555 1.503 1_565 S
C1563 C1562 1.370 . S
C1563 C1564 1.403 . S
C1564 C1563 1.403 . S
C1564 C1565 1.404 . S
C1564 C1567 1.539 . S
C1565 C1561 1.408 . S
C1565 C1564 1.404 . S
C1565 H1577 0.930 . S
C1566 C1562 1.524 . S
C1566 H1578 0.956 . S
C1566 H1579 0.961 . S
C1566 H1580 0.961 . S
C1567 C1564 1.539 . S
C1567 H1581 0.958 1_565 S
C1567 H1582 0.961 . S
C1567 H1583 0.960 1_565 S
H1568 C1552 0.931 . S
H1569 C1557 0.929 . S
H1570 C1558 0.960 . S
H1571 C1558 0.962 . S
H1572 C1558 0.960 . S
H1573 C1559 0.961 . S
H1574 C1559 0.961 . S
H1575 C1559 0.961 . S
H1576 C1560 0.931 . S
H1577 C1565 0.930 . S
H1578 C1566 0.956 . S
H1579 C1566 0.961 . S
H1580 C1566 0.961 . S
H1581 C1567 0.958 1_545 S
H1582 C1567 0.961 . S
H1583 C1567 0.960 1_545 S
C1584 C1585 1.391 . S
C1584 C1586 1.394 . S
C1584 H1600 0.931 . S
C1585 C1584 1.391 . S
C1585 C1589 1.376 . S
C1586 C1584 1.394 . S
C1586 C1587 1.369 . S
C1586 C1590 1.531 . S
C1587 C1586 1.369 . S
C1587 C1588 1.410 . S
C1587 C1595 1.503 1_455 S
C1588 C1587 1.410 . S
C1588 C1589 1.392 . S
C1588 C1591 1.511 1_455 S
C1589 C1585 1.376 . S
C1589 C1588 1.392 . S
C1589 H1601 0.929 . S
C1590 C1586 1.531 . S
C1590 H1602 0.960 . S
C1590 H1603 0.962 . S
C1590 H1604 0.960 . S
C1591 C1588 1.511 1_655 S
C1591 H1605 0.961 . S
C1591 H1606 0.961 . S
C1591 H1607 0.961 . S
C1592 C1593 1.370 . S
C1592 C1594 1.363 . S
C1592 H1608 0.931 . S
C1593 C1592 1.370 . S
C1593 C1597 1.408 . S
C1594 C1592 1.363 . S
C1594 C1595 1.370 . S
C1594 C1598 1.524 . S
C1595 C1587 1.503 1_655 S
C1595 C1594 1.370 . S
C1595 C1596 1.403 . S
C1596 C1595 1.403 . S
C1596 C1597 1.404 . S
C1596 C1599 1.539 . S
C1597 C1593 1.408 . S
C1597 C1596 1.404 . S
C1597 H1609 0.930 . S
C1598 C1594 1.524 . S
C1598 H1610 0.956 1_655 S
C1598 H1611 0.961 . S
C1598 H1612 0.961 . S
C1599 C1596 1.539 . S
C1599 H1613 0.958 . S
C1599 H1614 0.961 . S
C1599 H1615 0.960 . S
H1600 C1584 0.931 . S
H1601 C1589 0.929 . S
H1602 C1590 0.960 . S
H1603 C1590 0.962 . S
H1604 C1590 0.960 . S
H1605 C1591 0.961 . S
H1606 C1591 0.961 . S
H1607 C1591 0.961 . S
H1608 C1592 0.931 . S
H1609 C1597 0.930 . S
H1610 C1598 0.956 1_455 S
H1611 C1598 0.961 . S
H1612 C1598 0.961 . S
H1613 C1599 0.958 . S
H1614 C1599 0.961 . S
H1615 C1599 0.960 . S
C1616 C1617 1.391 . S
C1616 C1618 1.394 . S
C1616 H1632 0.931 . S
C1617 C1616 1.391 . S
C1617 C1621 1.376 . S
C1618 C1616 1.394 . S
C1618 C1619 1.369 . S
C1618 C1622 1.531 . S
C1619 C1618 1.369 . S
C1619 C1620 1.410 . S
C1619 C1627 1.503 . S
C1620 C1619 1.410 . S
C1620 C1621 1.392 . S
C1620 C1623 1.511 . S
C1621 C1617 1.376 . S
C1621 C1620 1.392 . S
C1621 H1633 0.929 . S
C1622 C1618 1.531 . S
C1622 H1634 0.960 . S
C1622 H1635 0.962 . S
C1622 H1636 0.960 . S
C1623 C1620 1.511 . S
C1623 H1637 0.961 . S
C1623 H1638 0.961 . S
C1623 H1639 0.961 . S
C1624 C1625 1.370 . S
C1624 C1626 1.363 . S
C1624 H1640 0.931 . S
C1625 C1624 1.370 . S
C1625 C1629 1.408 . S
C1626 C1624 1.363 . S
C1626 C1627 1.370 . S
C1626 C1630 1.524 . S
C1627 C1619 1.503 . S
C1627 C1626 1.370 . S
C1627 C1628 1.403 . S
C1628 C1627 1.403 . S
C1628 C1629 1.404 . S
C1628 C1631 1.539 . S
C1629 C1625 1.408 . S
C1629 C1628 1.404 . S
C1629 H1641 0.930 . S
C1630 C1626 1.524 . S
C1630 H1642 0.956 . S
C1630 H1643 0.961 . S
C1630 H1644 0.961 . S
C1631 C1628 1.539 . S
C1631 H1645 0.958 . S
C1631 H1646 0.961 . S
C1631 H1647 0.960 . S
H1632 C1616 0.931 . S
H1633 C1621 0.929 . S
H1634 C1622 0.960 . S
H1635 C1622 0.962 . S
H1636 C1622 0.960 . S
H1637 C1623 0.961 . S
H1638 C1623 0.961 . S
H1639 C1623 0.961 . S
H1640 C1624 0.931 . S
H1641 C1629 0.930 . S
H1642 C1630 0.956 . S
H1643 C1630 0.961 . S
H1644 C1630 0.961 . S
H1645 C1631 0.958 . S
H1646 C1631 0.961 . S
H1647 C1631 0.960 . S
C1648 C1649 1.391 . S
C1648 C1650 1.394 . S
C1648 H1664 0.931 . S
C1649 C1648 1.391 . S
C1649 C1653 1.376 . S
C1650 C1648 1.394 . S
C1650 C1651 1.369 . S
C1650 C1654 1.531 . S
C1651 C1650 1.369 . S
C1651 C1652 1.410 1_565 S
C1651 C1659 1.503 1_565 S
C1652 C1651 1.410 1_545 S
C1652 C1653 1.392 1_545 S
C1652 C1655 1.511 . S
C1653 C1649 1.376 . S
C1653 C1652 1.392 1_565 S
C1653 H1665 0.929 1_565 S
C1654 C1650 1.531 . S
C1654 H1666 0.960 . S
C1654 H1667 0.962 . S
C1654 H1668 0.960 . S
C1655 C1652 1.511 . S
C1655 H1669 0.961 . S
C1655 H1670 0.961 . S
C1655 H1671 0.961 . S
C1656 C1657 1.370 . S
C1656 C1658 1.363 . S
C1656 H1672 0.931 . S
C1657 C1656 1.370 . S
C1657 C1661 1.408 . S
C1658 C1656 1.363 . S
C1658 C1659 1.370 . S
C1658 C1662 1.524 1_545 S
C1659 C1651 1.503 1_545 S
C1659 C1658 1.370 . S
C1659 C1660 1.403 . S
C1660 C1659 1.403 . S
C1660 C1661 1.404 . S
C1660 C1663 1.539 . S
C1661 C1657 1.408 . S
C1661 C1660 1.404 . S
C1661 H1673 0.930 . S
C1662 C1658 1.524 1_565 S
C1662 H1674 0.956 . S
C1662 H1675 0.961 1_565 S
C1662 H1676 0.961 1_565 S
C1663 C1660 1.539 . S
C1663 H1677 0.958 . S
C1663 H1678 0.961 . S
C1663 H1679 0.960 . S
H1664 C1648 0.931 . S
H1665 C1653 0.929 1_545 S
H1666 C1654 0.960 . S
H1667 C1654 0.962 . S
H1668 C1654 0.960 . S
H1669 C1655 0.961 . S
H1670 C1655 0.961 . S
H1671 C1655 0.961 . S
H1672 C1656 0.931 . S
H1673 C1661 0.930 . S
H1674 C1662 0.956 . S
H1675 C1662 0.961 1_545 S
H1676 C1662 0.961 1_545 S
H1677 C1663 0.958 . S
H1678 C1663 0.961 . S
H1679 C1663 0.960 . S
C1680 C1681 1.391 . S
C1680 C1682 1.394 1_455 S
C1680 H1696 0.931 1_455 S
C1681 C1680 1.391 . S
C1681 C1685 1.376 . S
C1682 C1680 1.394 1_655 S
C1682 C1683 1.369 1_655 S
C1682 C1686 1.531 . S
C1683 C1682 1.369 1_455 S
C1683 C1684 1.410 . S
C1683 C1691 1.503 1_445 S
C1684 C1683 1.410 . S
C1684 C1685 1.392 . S
C1684 C1687 1.511 1_545 S
C1685 C1681 1.376 . S
C1685 C1684 1.392 . S
C1685 H1697 0.929 . S
C1686 C1682 1.531 . S
C1686 H1698 0.960 . S
C1686 H1699 0.962 . S
C1686 H1700 0.960 . S
C1687 C1684 1.511 1_565 S
C1687 H1701 0.961 . S
C1687 H1702 0.961 . S
C1687 H1703 0.961 . S
C1688 C1689 1.370 . S
C1688 C1690 1.363 . S
C1688 H1704 0.931 . S
C1689 C1688 1.370 . S
C1689 C1693 1.408 . S
C1690 C1688 1.363 . S
C1690 C1691 1.370 . S
C1690 C1694 1.524 1_655 S
C1691 C1683 1.503 1_665 S
C1691 C1690 1.370 . S
C1691 C1692 1.403 . S
C1692 C1691 1.403 . S
C1692 C1693 1.404 . S
C1692 C1695 1.539 . S
C1693 C1689 1.408 . S
C1693 C1692 1.404 . S
C1693 H1705 0.930 . S
C1694 C1690 1.524 1_455 S
C1694 H1706 0.956 . S
C1694 H1707 0.961 . S
C1694 H1708 0.961 . S
C1695 C1692 1.539 . S
C1695 H1709 0.958 1_565 S
C1695 H1710 0.961 . S
C1695 H1711 0.960 1_565 S
H1696 C1680 0.931 1_655 S
H1697 C1685 0.929 . S
H1698 C1686 0.960 . S
H1699 C1686 0.962 . S
H1700 C1686 0.960 . S
H1701 C1687 0.961 . S
H1702 C1687 0.961 . S
H1703 C1687 0.961 . S
H1704 C1688 0.931 . S
H1705 C1693 0.930 . S
H1706 C1694 0.956 . S
H1707 C1694 0.961 . S
H1708 C1694 0.961 . S
H1709 C1695 0.958 1_545 S
H1710 C1695 0.961 . S
H1711 C1695 0.960 1_545 S
C1712 C1713 1.391 . S
C1712 C1714 1.394 . S
C1712 H1728 0.931 . S
C1713 C1712 1.391 . S
C1713 C1717 1.376 . S
C1714 C1712 1.394 . S
C1714 C1715 1.369 . S
C1714 C1718 1.531 . S
C1715 C1714 1.369 . S
C1715 C1716 1.410 1_565 S
C1715 C1723 1.503 1_565 S
C1716 C1715 1.410 1_545 S
C1716 C1717 1.392 1_545 S
C1716 C1719 1.511 . S
C1717 C1713 1.376 . S
C1717 C1716 1.392 1_565 S
C1717 H1729 0.929 . S
C1718 C1714 1.531 . S
C1718 H1730 0.960 . S
C1718 H1731 0.962 . S
C1718 H1732 0.960 . S
C1719 C1716 1.511 . S
C1719 H1733 0.961 . S
C1719 H1734 0.961 . S
C1719 H1735 0.961 . S
C1720 C1721 1.370 . S
C1720 C1722 1.363 . S
C1720 H1736 0.931 . S
C1721 C1720 1.370 . S
C1721 C1725 1.408 . S
C1722 C1720 1.363 . S
C1722 C1723 1.370 . S
C1722 C1726 1.524 . S
C1723 C1715 1.503 1_545 S
C1723 C1722 1.370 . S
C1723 C1724 1.403 . S
C1724 C1723 1.403 . S
C1724 C1725 1.404 . S
C1724 C1727 1.539 1_545 S
C1725 C1721 1.408 . S
C1725 C1724 1.404 . S
C1725 H1737 0.930 . S
C1726 C1722 1.524 . S
C1726 H1738 0.956 . S
C1726 H1739 0.961 . S
C1726 H1740 0.961 . S
C1727 C1724 1.539 1_565 S
C1727 H1741 0.958 . S
C1727 H1742 0.961 1_565 S
C1727 H1743 0.960 . S
H1728 C1712 0.931 . S
H1729 C1717 0.929 . S
H1730 C1718 0.960 . S
H1731 C1718 0.962 . S
H1732 C1718 0.960 . S
H1733 C1719 0.961 . S
H1734 C1719 0.961 . S
H1735 C1719 0.961 . S
H1736 C1720 0.931 . S
H1737 C1725 0.930 . S
H1738 C1726 0.956 . S
H1739 C1726 0.961 . S
H1740 C1726 0.961 . S
H1741 C1727 0.958 . S
H1742 C1727 0.961 1_545 S
H1743 C1727 0.960 . S
C1744 C1745 1.391 . S
C1744 C1746 1.394 1_655 S
C1744 H1760 0.931 1_655 S
C1745 C1744 1.391 . S
C1745 C1749 1.376 . S
C1746 C1744 1.394 1_455 S
C1746 C1747 1.369 1_455 S
C1746 C1750 1.531 . S
C1747 C1746 1.369 1_655 S
C1747 C1748 1.410 . S
C1747 C1755 1.503 1_665 S
C1748 C1747 1.410 . S
C1748 C1749 1.392 . S
C1748 C1751 1.511 1_565 S
C1749 C1745 1.376 . S
C1749 C1748 1.392 . S
C1749 H1761 0.929 . S
C1750 C1746 1.531 . S
C1750 H1762 0.960 . S
C1750 H1763 0.962 . S
C1750 H1764 0.960 . S
C1751 C1748 1.511 1_545 S
C1751 H1765 0.961 . S
C1751 H1766 0.961 . S
C1751 H1767 0.961 . S
C1752 C1753 1.370 . S
C1752 C1754 1.363 . S
C1752 H1768 0.931 . S
C1753 C1752 1.370 . S
C1753 C1757 1.408 . S
C1754 C1752 1.363 . S
C1754 C1755 1.370 . S
C1754 C1758 1.524 1_455 S
C1755 C1747 1.503 1_445 S
C1755 C1754 1.370 . S
C1755 C1756 1.403 . S
C1756 C1755 1.403 . S
C1756 C1757 1.404 . S
C1756 C1759 1.539 . S
C1757 C1753 1.408 . S
C1757 C1756 1.404 . S
C1757 H1769 0.930 . S
C1758 C1754 1.524 1_655 S
C1758 H1770 0.956 1_645 S
C1758 H1771 0.961 . S
C1758 H1772 0.961 1_655 S
C1759 C1756 1.539 . S
C1759 H1773 0.958 1_545 S
C1759 H1774 0.961 . S
C1759 H1775 0.946 1_455 S
H1760 C1744 0.931 1_455 S
H1761 C1749 0.929 . S
H1762 C1750 0.960 . S
H1763 C1750 0.962 . S
H1764 C1750 0.960 . S
H1765 C1751 0.961 . S
H1766 C1751 0.961 . S
H1767 C1751 0.961 . S
H1768 C1752 0.931 . S
H1769 C1757 0.930 . S
H1770 C1758 0.956 1_465 S
H1771 C1758 0.961 . S
H1772 C1758 0.961 1_455 S
H1773 C1759 0.958 1_565 S
H1774 C1759 0.961 . S
H1775 C1759 0.946 1_655 S
C1776 C1777 1.391 . S
C1776 C1778 1.394 . S
C1776 H1792 0.931 . S
C1777 C1776 1.391 . S
C1777 C1781 1.376 . S
C1778 C1776 1.394 . S
C1778 C1779 1.369 . S
C1778 C1782 1.531 1_455 S
C1779 C1778 1.369 . S
C1779 C1780 1.410 . S
C1779 C1787 1.503 1_455 S
C1780 C1779 1.410 . S
C1780 C1781 1.392 . S
C1780 C1783 1.511 . S
C1781 C1777 1.376 . S
C1781 C1780 1.392 . S
C1781 H1793 0.929 . S
C1782 C1778 1.531 1_655 S
C1782 H1794 0.960 . S
C1782 H1795 0.962 . S
C1782 H1796 0.960 1_655 S
C1783 C1780 1.511 . S
C1783 H1797 0.961 . S
C1783 H1798 0.961 . S
C1783 H1799 0.961 . S
C1784 C1785 1.370 . S
C1784 C1786 1.363 . S
C1784 H1800 0.931 . S
C1785 C1784 1.370 . S
C1785 C1789 1.408 . S
C1786 C1784 1.363 . S
C1786 C1787 1.370 . S
C1786 C1790 1.524 . S
C1787 C1779 1.503 1_655 S
C1787 C1786 1.370 . S
C1787 C1788 1.403 . S
C1788 C1787 1.403 . S
C1788 C1789 1.404 . S
C1788 C1791 1.539 1_655 S
C1789 C1785 1.408 . S
C1789 C1788 1.404 . S
C1789 H1801 0.930 . S
C1790 C1786 1.524 . S
C1790 H1802 0.956 . S
C1790 H1803 0.961 . S
C1790 H1804 0.961 . S
C1791 C1788 1.539 1_455 S
C1791 H1805 0.958 . S
C1791 H1806 0.961 . S
C1791 H1807 0.960 . S
H1792 C1776 0.931 . S
H1793 C1781 0.929 . S
H1794 C1782 0.960 . S
H1795 C1782 0.962 . S
H1796 C1782 0.960 1_455 S
H1797 C1783 0.961 . S
H1798 C1783 0.961 . S
H1799 C1783 0.961 . S
H1800 C1784 0.931 . S
H1801 C1789 0.930 . S
H1802 C1790 0.956 . S
H1803 C1790 0.961 . S
H1804 C1790 0.961 . S
H1805 C1791 0.958 . S
H1806 C1791 0.961 . S
H1807 C1791 0.960 . S
C1808 C1809 1.391 . S
C1808 C1810 1.394 . S
C1808 H1824 0.931 . S
C1809 C1808 1.391 . S
C1809 C1813 1.376 . S
C1810 C1808 1.394 . S
C1810 C1811 1.369 . S
C1810 C1814 1.531 . S
C1811 C1810 1.369 . S
C1811 C1812 1.410 . S
C1811 C1819 1.503 . S
C1812 C1811 1.410 . S
C1812 C1813 1.392 . S
C1812 C1815 1.511 . S
C1813 C1809 1.376 . S
C1813 C1812 1.392 . S
C1813 H1825 0.929 . S
C1814 C1810 1.531 . S
C1814 H1826 0.960 . S
C1814 H1827 0.962 . S
C1814 H1828 0.960 . S
C1815 C1812 1.511 . S
C1815 H1829 0.961 . S
C1815 H1830 0.961 . S
C1815 H1831 0.961 . S
C1816 C1817 1.370 . S
C1816 C1818 1.363 . S
C1816 H1832 0.931 . S
C1817 C1816 1.370 . S
C1817 C1821 1.408 . S
C1818 C1816 1.363 . S
C1818 C1819 1.370 . S
C1818 C1822 1.524 . S
C1819 C1811 1.503 . S
C1819 C1818 1.370 . S
C1819 C1820 1.403 . S
C1820 C1819 1.403 . S
C1820 C1821 1.404 . S
C1820 C1823 1.539 . S
C1821 C1817 1.408 . S
C1821 C1820 1.404 . S
C1821 H1833 0.930 . S
C1822 C1818 1.524 . S
C1822 H1834 0.956 . S
C1822 H1835 0.961 . S
C1822 H1836 0.961 . S
C1823 C1820 1.539 . S
C1823 H1837 0.958 . S
C1823 H1838 0.961 . S
C1823 H1839 0.960 . S
H1824 C1808 0.931 . S
H1825 C1813 0.929 . S
H1826 C1814 0.960 . S
H1827 C1814 0.962 . S
H1828 C1814 0.960 . S
H1829 C1815 0.961 . S
H1830 C1815 0.961 . S
H1831 C1815 0.961 . S
H1832 C1816 0.931 . S
H1833 C1821 0.930 . S
H1834 C1822 0.956 . S
H1835 C1822 0.961 . S
H1836 C1822 0.961 . S
H1837 C1823 0.958 . S
H1838 C1823 0.961 . S
H1839 C1823 0.960 . S
C1840 C1841 1.391 . S
C1840 C1842 1.394 . S
C1840 H1856 0.931 . S
C1841 C1840 1.391 . S
C1841 C1845 1.376 . S
C1842 C1840 1.394 . S
C1842 C1843 1.369 . S
C1842 C1846 1.531 . S
C1843 C1842 1.369 . S
C1843 C1844 1.410 . S
C1843 C1851 1.503 . S
C1844 C1843 1.410 . S
C1844 C1845 1.392 . S
C1844 C1847 1.511 . S
C1845 C1841 1.376 . S
C1845 C1844 1.392 . S
C1845 H1857 0.929 . S
C1846 C1842 1.531 . S
C1846 H1858 0.960 . S
C1846 H1859 0.962 . S
C1846 H1860 0.960 . S
C1847 C1844 1.511 . S
C1847 H1861 0.961 . S
C1847 H1862 0.961 . S
C1847 H1863 0.961 . S
C1848 C1849 1.370 . S
C1848 C1850 1.363 . S
C1848 H1864 0.931 . S
C1849 C1848 1.370 . S
C1849 C1853 1.408 . S
C1850 C1848 1.363 . S
C1850 C1851 1.370 . S
C1850 C1854 1.524 . S
C1851 C1843 1.503 . S
C1851 C1850 1.370 . S
C1851 C1852 1.403 . S
C1852 C1851 1.403 . S
C1852 C1853 1.404 . S
C1852 C1855 1.539 . S
C1853 C1849 1.408 . S
C1853 C1852 1.404 . S
C1853 H1865 0.930 . S
C1854 C1850 1.524 . S
C1854 H1866 0.956 . S
C1854 H1867 0.961 . S
C1854 H1868 0.961 . S
C1855 C1852 1.539 . S
C1855 H1869 0.958 . S
C1855 H1870 0.961 . S
C1855 H1871 0.960 . S
H1856 C1840 0.931 . S
H1857 C1845 0.929 . S
H1858 C1846 0.960 . S
H1859 C1846 0.962 . S
H1860 C1846 0.960 . S
H1861 C1847 0.961 . S
H1862 C1847 0.961 . S
H1863 C1847 0.961 . S
H1864 C1848 0.931 . S
H1865 C1853 0.930 . S
H1866 C1854 0.956 . S
H1867 C1854 0.961 . S
H1868 C1854 0.961 . S
H1869 C1855 0.958 . S
H1870 C1855 0.961 . S
H1871 C1855 0.960 . S
C1872 C1873 1.391 . S
C1872 C1874 1.394 . S
C1872 H1888 0.931 . S
C1873 C1872 1.391 . S
C1873 C1877 1.376 . S
C1874 C1872 1.394 . S
C1874 C1875 1.369 . S
C1874 C1878 1.531 1_545 S
C1875 C1874 1.369 . S
C1875 C1876 1.410 . S
C1875 C1883 1.503 1_545 S
C1876 C1875 1.410 . S
C1876 C1877 1.392 . S
C1876 C1879 1.511 . S
C1877 C1873 1.376 . S
C1877 C1876 1.392 . S
C1877 H1889 0.929 . S
C1878 C1874 1.531 1_565 S
C1878 H1890 0.960 . S
C1878 H1891 0.962 . S
C1878 H1892 0.960 . S
C1879 C1876 1.511 . S
C1879 H1893 0.961 . S
C1879 H1894 0.961 . S
C1879 H1895 0.961 . S
C1880 C1881 1.370 . S
C1880 C1882 1.363 . S
C1880 H1896 0.931 . S
C1881 C1880 1.370 . S
C1881 C1885 1.408 . S
C1882 C1880 1.363 . S
C1882 C1883 1.370 . S
C1882 C1886 1.524 . S
C1883 C1875 1.503 1_565 S
C1883 C1882 1.370 . S
C1883 C1884 1.403 . S
C1884 C1883 1.403 . S
C1884 C1885 1.404 . S
C1884 C1887 1.539 . S
C1885 C1881 1.408 . S
C1885 C1884 1.404 . S
C1885 H1897 0.930 . S
C1886 C1882 1.524 . S
C1886 H1898 0.956 . S
C1886 H1899 0.961 1_565 S
C1886 H1900 0.961 . S
C1887 C1884 1.539 . S
C1887 H1901 0.958 . S
C1887 H1902 0.961 . S
C1887 H1903 0.960 1_565 S
H1888 C1872 0.931 . S
H1889 C1877 0.929 . S
H1890 C1878 0.960 . S
H1891 C1878 0.962 . S
H1892 C1878 0.960 . S
H1893 C1879 0.961 . S
H1894 C1879 0.961 . S
H1895 C1879 0.961 . S
H1896 C1880 0.931 . S
H1897 C1885 0.930 . S
H1898 C1886 0.956 . S
H1899 C1886 0.961 1_545 S
H1900 C1886 0.961 . S
H1901 C1887 0.958 . S
H1902 C1887 0.961 . S
H1903 C1887 0.960 1_545 S
C1904 C1905 1.391 . S
C1904 C1906 1.394 . S
C1904 H1920 0.931 . S
C1905 C1904 1.391 . S
C1905 C1909 1.376 . S
C1906 C1904 1.394 . S
C1906 C1907 1.369 . S
C1906 C1910 1.531 1_655 S
C1907 C1906 1.369 . S
C1907 C1908 1.401 1_565 S
C1907 C1915 1.503 1_665 S
C1908 C1907 1.401 1_545 S
C1908 C1909 1.382 1_545 S
C1908 C1911 1.529 . S
C1909 C1905 1.376 . S
C1909 C1908 1.382 1_565 S
C1909 H1921 0.929 . S
C1910 C1906 1.531 1_455 S
C1910 H1922 0.960 . S
C1910 H1923 0.962 . S
C1910 H1924 0.960 . S
C1911 C1908 1.529 . S
C1911 H1925 0.961 . S
C1911 H1926 0.961 . S
C1911 H1927 0.961 . S
C1912 C1913 1.370 . S
C1912 C1914 1.363 . S
C1912 H1928 0.931 . S
C1913 C1912 1.370 . S
C1913 C1917 1.408 . S
C1914 C1912 1.363 . S
C1914 C1915 1.370 . S
C1914 C1918 1.524 1_455 S
C1915 C1907 1.503 1_445 S
C1915 C1914 1.370 . S
C1915 C1916 1.403 . S
C1916 C1915 1.403 . S
C1916 C1917 1.404 . S
C1916 C1919 1.539 1_545 S
C1917 C1913 1.408 . S
C1917 C1916 1.404 . S
C1917 H1929 0.930 . S
C1918 C1914 1.524 1_655 S
C1918 H1930 0.956 . S
C1918 H1931 0.961 . S
C1918 H1932 0.961 1_655 S
C1919 C1916 1.539 1_565 S
C1919 H1933 0.958 . S
C1919 H1934 0.961 . S
C1919 H1935 0.960 . S
H1920 C1904 0.931 . S
H1921 C1909 0.929 . S
H1922 C1910 0.960 . S
H1923 C1910 0.962 . S
H1924 C1910 0.960 . S
H1925 C1911 0.961 . S
H1926 C1911 0.961 . S
H1927 C1911 0.961 . S
H1928 C1912 0.931 . S
H1929 C1917 0.930 . S
H1930 C1918 0.956 . S
H1931 C1918 0.961 . S
H1932 C1918 0.961 1_455 S
H1933 C1919 0.958 . S
H1934 C1919 0.961 . S
H1935 C1919 0.960 . S
C1936 C1937 1.391 . S
C1936 C1938 1.394 . S
C1936 H1952 0.931 . S
C1937 C1936 1.391 . S
C1937 C1941 1.376 . S
C1938 C1936 1.394 . S
C1938 C1939 1.369 . S
C1938 C1942 1.531 . S
C1939 C1938 1.369 . S
C1939 C1940 1.410 1_655 S
C1939 C1947 1.503 1_655 S
C1940 C1939 1.410 1_455 S
C1940 C1941 1.392 1_455 S
C1940 C1943 1.511 . S
C1941 C1937 1.376 . S
C1941 C1940 1.392 1_655 S
C1941 H1953 0.929 . S
C1942 C1938 1.531 . S
C1942 H1954 0.960 . S
C1942 H1955 0.962 . S
C1942 H1956 0.960 . S
C1943 C1940 1.511 . S
C1943 H1957 0.961 . S
C1943 H1958 0.961 . S
C1943 H1959 0.961 . S
C1944 C1945 1.370 . S
C1944 C1946 1.356 1_455 S
C1944 H1960 0.931 . S
C1945 C1944 1.370 . S
C1945 C1949 1.408 . S
C1946 C1944 1.356 1_655 S
C1946 C1947 1.364 1_655 S
C1946 C1950 1.538 . S
C1947 C1939 1.503 1_455 S
C1947 C1946 1.364 1_455 S
C1947 C1948 1.403 . S
C1948 C1947 1.403 . S
C1948 C1949 1.404 . S
C1948 C1951 1.539 . S
C1949 C1945 1.408 . S
C1949 C1948 1.404 . S
C1949 H1961 0.930 . S
C1950 C1946 1.538 . S
C1950 H1962 0.956 . S
C1950 H1963 0.961 . S
C1950 H1964 0.961 . S
C1951 C1948 1.539 . S
C1951 H1965 0.958 . S
C1951 H1966 0.961 . S
C1951 H1967 0.960 . S
H1952 C1936 0.931 . S
H1953 C1941 0.929 . S
H1954 C1942 0.960 . S
H1955 C1942 0.962 . S
H1956 C1942 0.960 . S
H1957 C1943 0.961 . S
H1958 C1943 0.961 . S
H1959 C1943 0.961 . S
H1960 C1944 0.931 . S
H1961 C1949 0.930 . S
H1962 C1950 0.956 . S
H1963 C1950 0.961 . S
H1964 C1950 0.961 . S
H1965 C1951 0.958 . S
H1966 C1951 0.961 . S
H1967 C1951 0.960 . S
C945 C239 1.530 . S
C953 C3 1.538 . S
C977 C62 1.527 . S
C985 C298 1.539 . S
C1009 C357 1.533 . S
C1017 C121 1.539 . S
C1041 C416 1.551 . S
C1049 C180 1.547 . S
C1073 C711 1.543 . S
C1081 C475 1.546 . S
C1105 C534 1.549 . S
C1113 C770 1.546 . S
C1137 C829 1.550 . S
C1145 C593 1.548 . S
C1169 C652 1.551 . S
C1177 C888 1.547 . S
C1201 C33 1.556 . S
C1209 C918 1.569 . S
C1233 C92 1.555 . S
C1241 C741 1.568 . S
C1265 C151 1.558 . S
C1273 C800 1.564 . S
C1297 C859 1.562 . S
C1305 C210 1.563 . S
C1329 C269 1.565 . S
C1337 C564 1.563 . S
C1361 C328 1.555 . S
C1369 C623 1.567 . S
C1393 C682 1.569 . S
C1401 C387 1.564 . S
C1425 C505 1.566 . S
C1433 C446 1.563 . S
C1457 C5 1.633 . S
C1465 C595 1.647 . S
C1489 C654 1.638 . S
C1497 C64 1.646 . S
C1521 C123 1.637 . S
C1529 C477 1.646 . S
C1553 C536 1.635 . S
C1561 C182 1.645 . S
C1585 C241 1.640 . S
C1593 C831 1.643 . S
C1617 C300 1.644 . S
C1625 C890 1.642 . S
C1649 C713 1.639 . S
C1657 C359 1.646 . S
C1681 C772 1.636 . S
C1689 C418 1.645 . S
C1713 C642 1.462 . S
C1721 C52 1.460 . S
C1745 C111 1.451 . S
C1753 C701 1.458 . S
C1777 C170 1.451 . S
C1785 C524 1.464 . S
C1809 C583 1.466 . S
C1817 C229 1.456 . S
C1841 C878 1.456 . S
C1849 C288 1.463 . S
C1873 C937 1.456 . S
C1881 C347 1.463 . S
C1905 C760 1.463 . S
C1913 C406 1.459 . S
C1937 C465 1.449 . S
C1945 C819 1.464 . S
