# Generated by pormake.
# Topology wir, (6)-cn, num edge types: 1
# Building blocks:
#     Node 0, Type 0, BuildingBlock: GEDQOX_clean_sbu_0, # of connection points: 6
#     Node 1, Type 0, BuildingBlock: GEDQOX_clean_sbu_0, # of connection points: 6
#     Node 2, Type 0, BuildingBlock: GEDQOX_clean_sbu_0, # of connection points: 6
#     Node 3, Type 0, BuildingBlock: GEDQOX_clean_sbu_0, # of connection points: 6
#     Node 4, Type 0, BuildingBlock: GEDQOX_clean_sbu_0, # of connection points: 6
#     Node 5, Type 0, BuildingBlock: GEDQOX_clean_sbu_0, # of connection points: 6
#     Node 6, Type 0, BuildingBlock: GEDQOX_clean_sbu_0, # of connection points: 6
#     Node 7, Type 0, BuildingBlock: GEDQOX_clean_sbu_0, # of connection points: 6
#     Node 8, Type 0, BuildingBlock: GEDQOX_clean_sbu_0, # of connection points: 6
#     Node 9, Type 0, BuildingBlock: GEDQOX_clean_sbu_0, # of connection points: 6
#     Node 10, Type 0, BuildingBlock: GEDQOX_clean_sbu_0, # of connection points: 6
#     Node 11, Type 0, BuildingBlock: GEDQOX_clean_sbu_0, # of connection points: 6
#     Node 12, Type 0, BuildingBlock: GEDQOX_clean_sbu_0, # of connection points: 6
#     Node 13, Type 0, BuildingBlock: GEDQOX_clean_sbu_0, # of connection points: 6
#     Node 14, Type 0, BuildingBlock: GEDQOX_clean_sbu_0, # of connection points: 6
#     Node 15, Type 0, BuildingBlock: GEDQOX_clean_sbu_0, # of connection points: 6
#     Node 16, Type 0, BuildingBlock: GEDQOX_clean_sbu_0, # of connection points: 6
#     Node 17, Type 0, BuildingBlock: GEDQOX_clean_sbu_0, # of connection points: 6
#     Node 18, Type 0, BuildingBlock: GEDQOX_clean_sbu_0, # of connection points: 6
#     Node 19, Type 0, BuildingBlock: GEDQOX_clean_sbu_0, # of connection points: 6
#     Node 20, Type 0, BuildingBlock: GEDQOX_clean_sbu_0, # of connection points: 6
#     Node 21, Type 0, BuildingBlock: GEDQOX_clean_sbu_0, # of connection points: 6
#     Node 22, Type 0, BuildingBlock: GEDQOX_clean_sbu_0, # of connection points: 6
#     Node 23, Type 0, BuildingBlock: GEDQOX_clean_sbu_0, # of connection points: 6
#     Node 24, Type 0, BuildingBlock: GEDQOX_clean_sbu_0, # of connection points: 6
#     Node 25, Type 0, BuildingBlock: GEDQOX_clean_sbu_0, # of connection points: 6
#     Node 26, Type 0, BuildingBlock: GEDQOX_clean_sbu_0, # of connection points: 6
#     Node 27, Type 0, BuildingBlock: GEDQOX_clean_sbu_0, # of connection points: 6
#     Node 28, Type 0, BuildingBlock: GEDQOX_clean_sbu_0, # of connection points: 6
#     Node 29, Type 0, BuildingBlock: GEDQOX_clean_sbu_0, # of connection points: 6
#     Node 30, Type 0, BuildingBlock: GEDQOX_clean_sbu_0, # of connection points: 6
#     Node 31, Type 0, BuildingBlock: GEDQOX_clean_sbu_0, # of connection points: 6
#     Edge 32, Type (0, 0), BuildingBlock: OJICUG_clean_linker_0, # of connection points: 2
#     Edge 33, Type (0, 0), BuildingBlock: OJICUG_clean_linker_0, # of connection points: 2
#     Edge 34, Type (0, 0), BuildingBlock: OJICUG_clean_linker_0, # of connection points: 2
#     Edge 35, Type (0, 0), BuildingBlock: OJICUG_clean_linker_0, # of connection points: 2
#     Edge 36, Type (0, 0), BuildingBlock: OJICUG_clean_linker_0, # of connection points: 2
#     Edge 37, Type (0, 0), BuildingBlock: OJICUG_clean_linker_0, # of connection points: 2
#     Edge 38, Type (0, 0), BuildingBlock: OJICUG_clean_linker_0, # of connection points: 2
#     Edge 39, Type (0, 0), BuildingBlock: OJICUG_clean_linker_0, # of connection points: 2
#     Edge 40, Type (0, 0), BuildingBlock: OJICUG_clean_linker_0, # of connection points: 2
#     Edge 41, Type (0, 0), BuildingBlock: OJICUG_clean_linker_0, # of connection points: 2
#     Edge 42, Type (0, 0), BuildingBlock: OJICUG_clean_linker_0, # of connection points: 2
#     Edge 43, Type (0, 0), BuildingBlock: OJICUG_clean_linker_0, # of connection points: 2
#     Edge 44, Type (0, 0), BuildingBlock: OJICUG_clean_linker_0, # of connection points: 2
#     Edge 45, Type (0, 0), BuildingBlock: OJICUG_clean_linker_0, # of connection points: 2
#     Edge 46, Type (0, 0), BuildingBlock: OJICUG_clean_linker_0, # of connection points: 2
#     Edge 47, Type (0, 0), BuildingBlock: OJICUG_clean_linker_0, # of connection points: 2
#     Edge 48, Type (0, 0), BuildingBlock: OJICUG_clean_linker_0, # of connection points: 2
#     Edge 49, Type (0, 0), BuildingBlock: OJICUG_clean_linker_0, # of connection points: 2
#     Edge 50, Type (0, 0), BuildingBlock: OJICUG_clean_linker_0, # of connection points: 2
#     Edge 51, Type (0, 0), BuildingBlock: OJICUG_clean_linker_0, # of connection points: 2
#     Edge 52, Type (0, 0), BuildingBlock: OJICUG_clean_linker_0, # of connection points: 2
#     Edge 53, Type (0, 0), BuildingBlock: OJICUG_clean_linker_0, # of connection points: 2
#     Edge 54, Type (0, 0), BuildingBlock: OJICUG_clean_linker_0, # of connection points: 2
#     Edge 55, Type (0, 0), BuildingBlock: OJICUG_clean_linker_0, # of connection points: 2
#     Edge 56, Type (0, 0), BuildingBlock: OJICUG_clean_linker_0, # of connection points: 2
#     Edge 57, Type (0, 0), BuildingBlock: OJICUG_clean_linker_0, # of connection points: 2
#     Edge 58, Type (0, 0), BuildingBlock: OJICUG_clean_linker_0, # of connection points: 2
#     Edge 59, Type (0, 0), BuildingBlock: OJICUG_clean_linker_0, # of connection points: 2
#     Edge 60, Type (0, 0), BuildingBlock: OJICUG_clean_linker_0, # of connection points: 2
#     Edge 61, Type (0, 0), BuildingBlock: OJICUG_clean_linker_0, # of connection points: 2
#     Edge 62, Type (0, 0), BuildingBlock: OJICUG_clean_linker_0, # of connection points: 2
#     Edge 63, Type (0, 0), BuildingBlock: OJICUG_clean_linker_0, # of connection points: 2
#     Edge 64, Type (0, 0), BuildingBlock: OJICUG_clean_linker_0, # of connection points: 2
#     Edge 65, Type (0, 0), BuildingBlock: OJICUG_clean_linker_0, # of connection points: 2
#     Edge 66, Type (0, 0), BuildingBlock: OJICUG_clean_linker_0, # of connection points: 2
#     Edge 67, Type (0, 0), BuildingBlock: OJICUG_clean_linker_0, # of connection points: 2
#     Edge 68, Type (0, 0), BuildingBlock: OJICUG_clean_linker_0, # of connection points: 2
#     Edge 69, Type (0, 0), BuildingBlock: OJICUG_clean_linker_0, # of connection points: 2
#     Edge 70, Type (0, 0), BuildingBlock: OJICUG_clean_linker_0, # of connection points: 2
#     Edge 71, Type (0, 0), BuildingBlock: OJICUG_clean_linker_0, # of connection points: 2
#     Edge 72, Type (0, 0), BuildingBlock: OJICUG_clean_linker_0, # of connection points: 2
#     Edge 73, Type (0, 0), BuildingBlock: OJICUG_clean_linker_0, # of connection points: 2
#     Edge 74, Type (0, 0), BuildingBlock: OJICUG_clean_linker_0, # of connection points: 2
#     Edge 75, Type (0, 0), BuildingBlock: OJICUG_clean_linker_0, # of connection points: 2
#     Edge 76, Type (0, 0), BuildingBlock: OJICUG_clean_linker_0, # of connection points: 2
#     Edge 77, Type (0, 0), BuildingBlock: OJICUG_clean_linker_0, # of connection points: 2
#     Edge 78, Type (0, 0), BuildingBlock: OJICUG_clean_linker_0, # of connection points: 2
#     Edge 79, Type (0, 0), BuildingBlock: OJICUG_clean_linker_0, # of connection points: 2
#     Edge 80, Type (0, 0), BuildingBlock: OJICUG_clean_linker_0, # of connection points: 2
#     Edge 81, Type (0, 0), BuildingBlock: OJICUG_clean_linker_0, # of connection points: 2
#     Edge 82, Type (0, 0), BuildingBlock: OJICUG_clean_linker_0, # of connection points: 2
#     Edge 83, Type (0, 0), BuildingBlock: OJICUG_clean_linker_0, # of connection points: 2
#     Edge 84, Type (0, 0), BuildingBlock: OJICUG_clean_linker_0, # of connection points: 2
#     Edge 85, Type (0, 0), BuildingBlock: OJICUG_clean_linker_0, # of connection points: 2
#     Edge 86, Type (0, 0), BuildingBlock: OJICUG_clean_linker_0, # of connection points: 2
#     Edge 87, Type (0, 0), BuildingBlock: OJICUG_clean_linker_0, # of connection points: 2
#     Edge 88, Type (0, 0), BuildingBlock: OJICUG_clean_linker_0, # of connection points: 2
#     Edge 89, Type (0, 0), BuildingBlock: OJICUG_clean_linker_0, # of connection points: 2
#     Edge 90, Type (0, 0), BuildingBlock: OJICUG_clean_linker_0, # of connection points: 2
#     Edge 91, Type (0, 0), BuildingBlock: OJICUG_clean_linker_0, # of connection points: 2
#     Edge 92, Type (0, 0), BuildingBlock: OJICUG_clean_linker_0, # of connection points: 2
#     Edge 93, Type (0, 0), BuildingBlock: OJICUG_clean_linker_0, # of connection points: 2
#     Edge 94, Type (0, 0), BuildingBlock: OJICUG_clean_linker_0, # of connection points: 2
#     Edge 95, Type (0, 0), BuildingBlock: OJICUG_clean_linker_0, # of connection points: 2
#     Edge 96, Type (0, 0), BuildingBlock: OJICUG_clean_linker_0, # of connection points: 2
#     Edge 97, Type (0, 0), BuildingBlock: OJICUG_clean_linker_0, # of connection points: 2
#     Edge 98, Type (0, 0), BuildingBlock: OJICUG_clean_linker_0, # of connection points: 2
#     Edge 99, Type (0, 0), BuildingBlock: OJICUG_clean_linker_0, # of connection points: 2
#     Edge 100, Type (0, 0), BuildingBlock: OJICUG_clean_linker_0, # of connection points: 2
#     Edge 101, Type (0, 0), BuildingBlock: OJICUG_clean_linker_0, # of connection points: 2
#     Edge 102, Type (0, 0), BuildingBlock: OJICUG_clean_linker_0, # of connection points: 2
#     Edge 103, Type (0, 0), BuildingBlock: OJICUG_clean_linker_0, # of connection points: 2
#     Edge 104, Type (0, 0), BuildingBlock: OJICUG_clean_linker_0, # of connection points: 2
#     Edge 105, Type (0, 0), BuildingBlock: OJICUG_clean_linker_0, # of connection points: 2
#     Edge 106, Type (0, 0), BuildingBlock: OJICUG_clean_linker_0, # of connection points: 2
#     Edge 107, Type (0, 0), BuildingBlock: OJICUG_clean_linker_0, # of connection points: 2
#     Edge 108, Type (0, 0), BuildingBlock: OJICUG_clean_linker_0, # of connection points: 2
#     Edge 109, Type (0, 0), BuildingBlock: OJICUG_clean_linker_0, # of connection points: 2
#     Edge 110, Type (0, 0), BuildingBlock: OJICUG_clean_linker_0, # of connection points: 2
#     Edge 111, Type (0, 0), BuildingBlock: OJICUG_clean_linker_0, # of connection points: 2
#     Edge 112, Type (0, 0), BuildingBlock: OJICUG_clean_linker_0, # of connection points: 2
#     Edge 113, Type (0, 0), BuildingBlock: OJICUG_clean_linker_0, # of connection points: 2
#     Edge 114, Type (0, 0), BuildingBlock: OJICUG_clean_linker_0, # of connection points: 2
#     Edge 115, Type (0, 0), BuildingBlock: OJICUG_clean_linker_0, # of connection points: 2
#     Edge 116, Type (0, 0), BuildingBlock: OJICUG_clean_linker_0, # of connection points: 2
#     Edge 117, Type (0, 0), BuildingBlock: OJICUG_clean_linker_0, # of connection points: 2
#     Edge 118, Type (0, 0), BuildingBlock: OJICUG_clean_linker_0, # of connection points: 2
#     Edge 119, Type (0, 0), BuildingBlock: OJICUG_clean_linker_0, # of connection points: 2
#     Edge 120, Type (0, 0), BuildingBlock: OJICUG_clean_linker_0, # of connection points: 2
#     Edge 121, Type (0, 0), BuildingBlock: OJICUG_clean_linker_0, # of connection points: 2
#     Edge 122, Type (0, 0), BuildingBlock: OJICUG_clean_linker_0, # of connection points: 2
#     Edge 123, Type (0, 0), BuildingBlock: OJICUG_clean_linker_0, # of connection points: 2
#     Edge 124, Type (0, 0), BuildingBlock: OJICUG_clean_linker_0, # of connection points: 2
#     Edge 125, Type (0, 0), BuildingBlock: OJICUG_clean_linker_0, # of connection points: 2
#     Edge 126, Type (0, 0), BuildingBlock: OJICUG_clean_linker_0, # of connection points: 2
#     Edge 127, Type (0, 0), BuildingBlock: OJICUG_clean_linker_0, # of connection points: 2
# Relax obj value: 0.719
# Max RMSD: 0.227
# Mean RMSD: 0.227
data_MOF--net-wir--node1-GEDQOX_clean_sbu_0--edge1-OJICUG_clean_linker_0
_symmetry_space_group_name_H-M    P1
_symmetry_Int_Tables_number       1
_symmetry_cell_setting            triclinic
loop_
_symmetry_equiv_pos_as_xyz
'x, y, z'
_cell_length_a     30.847234
_cell_length_b     31.073146
_cell_length_c     86.953488
_cell_angle_alpha  90.035114
_cell_angle_beta   89.88738
_cell_angle_gamma 89.844699
loop_
_atom_site_label
_atom_site_type_symbol
_atom_site_fract_x
_atom_site_fract_y
_atom_site_fract_z
_atom_type_partial_charge
Nd0 Nd 0.12347 0.08722 0.40247 0.0
Nd1 Nd 0.16287 0.12321 0.39845 0.0
C2 C 0.05269 0.04161 0.4075 0.0
C3 C 1.00973 0.06049 0.41042 0.0
C4 C 0.99937 0.10028 0.40356 0.0
C5 C 0.97186 0.12921 0.41108 0.0
C6 C 0.95436 0.11846 0.4254 0.0
C7 C 0.95957 0.07649 0.4311 0.0
C8 C 0.98706 0.0475 0.4236 0.0
C9 C 0.18769 0.05426 0.43068 0.0
C10 C 0.13523 0.14501 0.43058 0.0
C11 C 0.24071 0.14217 0.38816 0.0
C12 C 0.25313 0.16927 0.37544 0.0
C13 C 0.29659 0.17347 0.37118 0.0
C14 C 0.30761 0.20121 0.35923 0.0
C15 C 0.27502 0.22441 0.35155 0.0
C16 C 0.23151 0.21937 0.35576 0.0
C17 C 0.22065 0.19202 0.36767 0.0
C18 C 0.10209 0.19944 0.39809 0.0
C19 C 0.14122 0.07285 0.36497 0.0
O20 O 0.06898 0.04689 0.39379 0.0
O21 O 0.08058 0.05077 0.41817 0.0
O22 O 0.18587 0.05833 0.41535 0.0
O23 O 0.18399 0.05961 0.41518 0.0
O24 O 0.10224 0.12819 0.4235 0.0
O25 O 0.17165 0.1433 0.42324 0.0
O26 O 0.22017 0.10719 0.38421 0.0
O27 O 0.22199 0.1628 0.39943 0.0
O28 O 0.14361 0.19849 0.40099 0.0
O29 O 0.09371 0.15816 0.3954 0.0
O30 O 0.15101 0.11184 0.37025 0.0
O31 O 0.13169 0.04991 0.37735 0.0
H32 H 1.01648 0.11121 0.39341 0.0
H33 H 0.96785 0.16137 0.40655 0.0
H34 H 0.94629 0.06782 0.44222 0.0
H35 H 0.99485 1.01726 0.42916 0.0
H36 H 0.32177 0.15588 0.37718 0.0
H37 H 0.34138 0.20481 0.35605 0.0
H38 H 0.20605 0.23759 0.35015 0.0
H39 H 0.18694 0.18929 0.37105 0.0
Nd40 Nd 0.24603 0.86934 0.65292 0.0
Nd41 Nd 0.20929 0.90882 0.64901 0.0
C42 C 0.29214 0.79911 0.65812 0.0
C43 C 0.27306 0.75667 0.6612 0.0
C44 C 0.23324 0.74612 0.65425 0.0
C45 C 0.20407 0.71891 0.66174 0.0
C46 C 0.21458 0.70195 0.67613 0.0
C47 C 0.25655 0.70757 0.68201 0.0
C48 C 0.28579 0.73471 0.67453 0.0
C49 C 0.27904 0.93379 0.68097 0.0
C50 C 0.18816 0.88086 0.68117 0.0
C51 C 0.18847 0.98612 0.63916 0.0
C52 C 0.15939 0.9982 0.62693 0.0
C53 C 0.15346 0.04133 0.62293 0.0
C54 C 0.12376 0.05192 0.6115 0.0
C55 C 0.10024 1.01926 0.6041 0.0
C56 C 0.10682 0.97611 0.6081 0.0
C57 C 0.13626 0.96565 0.61946 0.0
C58 C 0.13321 0.84797 0.64866 0.0
C59 C 0.25978 0.88727 0.61538 0.0
O60 O 0.28684 0.81489 0.64436 0.0
O61 O 0.28302 0.8272 0.66871 0.0
O62 O 0.27488 0.93161 0.66564 0.0
O63 O 0.27361 0.92975 0.66549 0.0
O64 O 0.20507 0.84817 0.67397 0.0
O65 O 0.1896 0.91709 0.67391 0.0
O66 O 0.22333 0.9658 0.63462 0.0
O67 O 0.16929 0.9675 0.65074 0.0
O68 O 0.13375 0.8891 0.65172 0.0
O69 O 0.1748 0.83997 0.6458 0.0
O70 O 0.22079 0.89799 0.62077 0.0
O71 O 0.28291 0.87676 0.62765 0.0
H72 H 0.22245 0.76272 0.64399 0.0
H73 H 0.17193 0.71454 0.65707 0.0
H74 H 0.26504 0.69471 0.69319 0.0
H75 H 0.31601 0.74268 0.68018 0.0
H76 H 0.17134 0.06655 0.62872 0.0
H77 H 0.11913 0.08541 0.60843 0.0
H78 H 0.08849 0.95055 0.6027 0.0
H79 H 0.14043 0.93218 0.62263 0.0
Nd80 Nd 0.4641 0.99192 0.90255 0.0
Nd81 Nd 0.42447 0.95603 0.89851 0.0
C82 C 0.53507 1.03709 0.90771 0.0
C83 C 0.57785 1.01798 0.91072 0.0
C84 C 0.58842 0.97832 0.90377 0.0
C85 C 0.61596 0.94936 0.91123 0.0
C86 C 0.63321 0.95992 0.92558 0.0
C87 C 0.62763 1.00172 0.93142 0.0
C88 C 0.60016 1.03075 0.92398 0.0
C89 C 0.39966 1.02512 0.93072 0.0
C90 C 0.4513 0.93414 0.93065 0.0
C91 C 0.34662 0.93737 0.88827 0.0
C92 C 0.33409 0.91049 0.87551 0.0
C93 C 0.29064 0.90676 0.87125 0.0
C94 C 0.27948 0.87927 0.85925 0.0
C95 C 0.31192 0.85586 0.85153 0.0
C96 C 0.35544 0.86045 0.85573 0.0
C97 C 0.36644 0.88755 0.86769 0.0
C98 C 0.48521 0.87976 0.89816 0.0
C99 C 0.44625 1.00627 0.86505 0.0
O100 O 0.5191 1.03184 0.89396 0.0
O101 O 0.50683 1.02819 0.91832 0.0
O102 O 0.40166 1.02108 0.91539 0.0
O103 O 0.40354 1.01979 0.91523 0.0
O104 O 0.48451 0.95081 0.92361 0.0
O105 O 0.41504 0.93596 0.92327 0.0
O106 O 0.36728 0.97233 0.88435 0.0
O107 O 0.36528 0.91653 0.89947 0.0
O108 O 0.44366 0.88074 0.90105 0.0
O109 O 0.49367 0.92099 0.89545 0.0
O110 O 0.43621 0.96734 0.87032 0.0
O111 O 0.45611 1.02914 0.87742 0.0
H112 H 0.57158 0.96753 0.89356 0.0
H113 H 0.62032 0.91736 0.90658 0.0
H114 H 0.6407 1.01024 0.94257 0.0
H115 H 0.59218 0.06086 0.92962 0.0
H116 H 0.26557 0.92453 0.87728 0.0
H117 H 0.2457 0.87601 0.85607 0.0
H118 H 0.38079 0.84205 0.85008 0.0
H119 H 0.40014 0.88994 0.87107 0.0
Nd120 Nd 0.34041 0.20957 0.15273 0.0
Nd121 Nd 0.37683 0.17082 0.14857 0.0
C122 C 0.29425 0.27978 0.15806 0.0
C123 C 0.31317 0.32214 0.16141 0.0
C124 C 0.35264 0.33356 0.15433 0.0
C125 C 0.38166 0.36079 0.16186 0.0
C126 C 0.37143 0.37673 0.17645 0.0
C127 C 0.32976 0.37017 0.18252 0.0
C128 C 0.30061 0.34316 0.17498 0.0
C129 C 0.30777 0.14529 0.18086 0.0
C130 C 0.399 0.1969 0.18073 0.0
C131 C 0.39457 0.09352 0.13799 0.0
C132 C 0.41995 0.08057 0.12483 0.0
C133 C 0.42189 1.03746 0.12033 0.0
C134 C 0.44804 1.02575 0.10794 0.0
C135 C 0.4718 0.05733 0.10007 0.0
C136 C 0.46871 0.10059 0.10443 0.0
C137 C 0.44304 0.11212 0.1168 0.0
C138 C 0.45322 0.23115 0.14828 0.0
C139 C 0.32655 0.19253 0.11516 0.0
O140 O 0.3001 0.2644 0.14426 0.0
O141 O 0.3029 0.25135 0.16856 0.0
O142 O 0.31174 0.14743 0.16552 0.0
O143 O 0.31304 0.14934 0.16537 0.0
O144 O 0.38138 0.22976 0.17387 0.0
O145 O 0.39786 0.16107 0.1732 0.0
O146 O 0.35897 0.11423 0.13458 0.0
O147 O 0.41693 0.11202 0.14884 0.0
O148 O 0.45266 0.18973 0.15084 0.0
O149 O 0.41154 0.23967 0.14584 0.0
O150 O 0.36597 0.18345 0.12043 0.0
O151 O 0.30311 0.20127 0.12757 0.0
H152 H 0.3633 0.31772 0.14388 0.0
H153 H 0.41352 0.36602 0.15702 0.0
H154 H 0.32146 0.3823 0.19384 0.0
H155 H 0.27066 0.33453 0.18072 0.0
H156 H 0.40391 1.01304 0.12651 0.0
H157 H 0.45025 0.99218 0.10465 0.0
H158 H 0.48749 0.12524 0.09866 0.0
H159 H 0.44205 0.14553 0.12035 0.0
Nd160 Nd 0.12302 0.99199 0.25637 0.0
Nd161 Nd 0.1626 0.95579 0.26035 0.0
C162 C 0.05213 1.03767 0.25128 0.0
C163 C 1.00935 1.01885 0.24818 0.0
C164 C 0.99851 0.97937 0.25515 0.0
C165 C 0.97108 0.95052 0.24765 0.0
C166 C 0.95427 0.96098 0.23322 0.0
C167 C 0.96008 1.00265 0.22734 0.0
C168 C 0.98739 1.03159 0.23484 0.0
C169 C 0.1876 1.02509 0.22826 0.0
C170 C 0.1354 0.93446 0.22817 0.0
C171 C 0.24047 0.93628 0.27044 0.0
C172 C 0.25283 0.90877 0.28305 0.0
C173 C 0.29625 0.90428 0.28729 0.0
C174 C 0.30715 0.87627 0.29917 0.0
C175 C 0.27449 0.8531 0.30679 0.0
C176 C 0.23103 0.85836 0.30259 0.0
C177 C 0.22028 0.88601 0.29075 0.0
C178 C 0.10183 0.87978 0.26068 0.0
C179 C 0.14093 1.0062 0.29387 0.0
O180 O 0.06801 1.03213 0.26502 0.0
O181 O 0.08043 1.02879 0.24066 0.0
O182 O 0.18554 1.02085 0.24359 0.0
O183 O 0.18366 1.01958 0.24375 0.0
O184 O 0.10228 0.95131 0.23527 0.0
O185 O 0.17172 0.93596 0.23553 0.0
O186 O 0.21987 0.97122 0.27456 0.0
O187 O 0.2218 0.91605 0.25912 0.0
O188 O 0.14342 0.88055 0.25786 0.0
O189 O 0.09335 0.92111 0.26334 0.0
O190 O 0.15111 0.96726 0.28857 0.0
O191 O 0.13091 1.0291 0.28153 0.0
H192 H 1.01508 0.9686 0.26543 0.0
H193 H 0.96649 0.91864 0.25234 0.0
H194 H 0.94732 1.0111 0.21614 0.0
H195 H 0.99557 0.06157 0.22918 0.0
H196 H 0.32147 0.9219 0.28133 0.0
H197 H 0.34088 0.87252 0.30236 0.0
H198 H 0.20551 0.84019 0.30816 0.0
H199 H 0.1866 0.88902 0.2874 0.0
Nd200 Nd 0.34015 0.8702 0.50657 0.0
Nd201 Nd 0.37638 0.90892 0.51073 0.0
C202 C 0.29435 0.80003 0.50124 0.0
C203 C 0.31348 0.75759 0.49798 0.0
C204 C 0.353 0.74632 0.50505 0.0
C205 C 0.38221 0.71898 0.49755 0.0
C206 C 0.37211 0.70272 0.48302 0.0
C207 C 0.33041 0.70912 0.47698 0.0
C208 C 0.30108 0.73629 0.48448 0.0
C209 C 0.3076 0.93438 0.4784 0.0
C210 C 0.39917 0.88285 0.4786 0.0
C211 C 0.39454 0.98596 0.52139 0.0
C212 C 0.42135 0.99828 0.53422 0.0
C213 C 0.4253 0.04142 0.5385 0.0
C214 C 0.45356 0.05251 0.55031 0.0
C215 C 0.47754 1.02032 0.55783 0.0
C216 C 0.47244 0.97708 0.55372 0.0
C217 C 0.44458 0.96614 0.54193 0.0
C218 C 0.45293 0.84836 0.51103 0.0
C219 C 0.32592 0.8872 0.54416 0.0
O220 O 0.29981 0.81552 0.51503 0.0
O221 O 0.30319 0.82834 0.49073 0.0
O222 O 0.31139 0.93234 0.49374 0.0
O223 O 0.31268 0.93045 0.4939 0.0
O224 O 0.38161 0.84999 0.48546 0.0
O225 O 0.39772 0.91869 0.48612 0.0
O226 O 0.35939 0.96512 0.52518 0.0
O227 O 0.41584 0.9679 0.51013 0.0
O228 O 0.45226 0.88974 0.50839 0.0
O229 O 0.41127 0.84 0.51351 0.0
O230 O 0.36533 0.89629 0.53887 0.0
O231 O 0.30262 0.87851 0.53175 0.0
H232 H 0.36353 0.76237 0.51544 0.0
H233 H 0.41411 0.71391 0.50236 0.0
H234 H 0.32222 0.69677 0.4657 0.0
H235 H 0.2711 0.74481 0.47874 0.0
H236 H 0.40732 0.06633 0.53254 0.0
H237 H 0.45716 0.08607 0.55344 0.0
H238 H 0.49124 0.95191 0.55921 0.0
H239 H 0.44211 0.9327 0.53853 0.0
Nd240 Nd 0.46358 0.08691 0.75648 0.0
Nd241 Nd 0.42409 0.12304 0.76052 0.0
C242 C 0.53444 0.04106 0.75138 0.0
C243 C 0.57732 0.05974 0.74835 0.0
C244 C 0.58784 0.09947 0.7552 0.0
C245 C 0.61521 0.12825 0.74762 0.0
C246 C 0.63235 0.11742 0.73325 0.0
C247 C 0.62698 0.0755 0.72754 0.0
C248 C 0.59968 0.04664 0.7351 0.0
C249 C 0.39912 0.05392 0.72838 0.0
C250 C 0.4514 0.14453 0.72835 0.0
C251 C 0.34627 0.14251 0.77079 0.0
C252 C 0.3341 0.17038 0.78335 0.0
C253 C 0.29068 0.17557 0.78756 0.0
C254 C 0.27997 0.2043 0.79927 0.0
C255 C 0.3128 0.22751 0.80675 0.0
C256 C 0.35625 0.22151 0.8026 0.0
C257 C 0.36682 0.19314 0.79093 0.0
C258 C 0.48474 0.19913 0.76084 0.0
C259 C 0.44591 0.07275 0.79399 0.0
O260 O 0.51834 0.04659 0.76512 0.0
O261 O 0.50637 0.05015 0.74075 0.0
O262 O 0.40114 0.05806 0.74371 0.0
O263 O 0.40302 0.05934 0.74387 0.0
O264 O 0.48449 0.12766 0.7354 0.0
O265 O 0.41505 0.14301 0.73574 0.0
O266 O 0.36703 0.10772 0.77493 0.0
O267 O 0.3647 0.16248 0.75935 0.0
O268 O 0.44318 0.1983 0.75803 0.0
O269 O 0.49325 0.1578 0.76348 0.0
O270 O 0.43589 0.11172 0.78871 0.0
O271 O 0.45563 0.04977 0.78161 0.0
H272 H 0.57096 0.11049 0.76541 0.0
H273 H 0.61938 0.16036 0.75217 0.0
H274 H 0.64 0.06675 0.71637 0.0
H275 H 0.59177 1.01645 0.72955 0.0
H276 H 0.26533 0.158 0.78169 0.0
H277 H 0.24624 0.2086 0.80243 0.0
H278 H 0.38192 0.23969 0.80805 0.0
H279 H 0.4005 0.18964 0.78759 0.0
Nd280 Nd 0.24691 0.20997 1.00645 0.0
Nd281 Nd 0.21039 0.17078 1.01048 0.0
C282 C 0.29296 0.28002 1.00118 0.0
C283 C 0.27393 0.32253 0.99802 0.0
C284 C 0.23415 0.33355 1.00501 0.0
C285 C 0.2051 0.36092 0.99751 0.0
C286 C 0.21565 0.3775 0.98305 0.0
C287 C 0.2576 0.37138 0.97713 0.0
C288 C 0.28674 0.34413 0.98463 0.0
C289 C 0.27973 0.14556 0.9783 0.0
C290 C 0.1887 0.19836 0.97836 0.0
C291 C 0.19113 0.09345 1.02058 0.0
C292 C 0.16374 0.08096 1.03326 0.0
C293 C 0.15967 1.03778 1.03745 0.0
C294 C 0.1317 1.0267 1.04939 0.0
C295 C 0.10816 0.05893 1.0571 0.0
C296 C 0.11306 0.10216 1.05296 0.0
C297 C 0.14065 0.1131 1.04106 0.0
C298 C 0.13403 0.23148 1.01085 0.0
C299 C 0.26065 0.19239 1.04399 0.0
O300 O 0.28741 0.26442 1.01496 0.0
O301 O 0.28404 0.25184 0.99063 0.0
O302 O 0.27576 0.1477 0.99364 0.0
O303 O 0.27448 0.14957 0.99379 0.0
O304 O 0.20584 0.23102 0.98544 0.0
O305 O 0.19015 0.16221 0.98569 0.0
O306 O 0.22632 0.11379 1.0246 0.0
O307 O 0.17043 0.11218 1.00936 0.0
O308 O 0.1347 0.19021 1.00803 0.0
O309 O 0.17561 0.2397 1.0135 0.0
O310 O 0.22154 0.18232 1.03868 0.0
O311 O 0.2839 0.20218 1.03166 0.0
H312 H 0.22331 0.31723 1.01532 0.0
H313 H 0.173 0.36572 1.00222 0.0
H314 H 0.26612 0.38396 0.9659 0.0
H315 H 0.31693 0.3358 0.97895 0.0
H316 H 0.17755 1.01289 1.03142 0.0
H317 H 0.12822 0.99315 1.05253 0.0
H318 H 0.09458 0.12735 1.0586 0.0
H319 H 0.14333 0.14658 1.03774 0.0
Nd320 Nd 0.92384 0.95686 0.76072 0.0
Nd321 Nd 0.96313 0.99269 0.75657 0.0
C322 C 0.84613 0.93854 0.77128 0.0
C323 C 0.83374 0.91178 0.7841 0.0
C324 C 0.79031 0.90788 0.78843 0.0
C325 C 0.77925 0.8802 0.80039 0.0
C326 C 0.81176 0.85676 0.80801 0.0
C327 C 0.85527 0.86159 0.80377 0.0
C328 C 0.86617 0.88887 0.79183 0.0
C329 C 0.98449 0.88054 0.76103 0.0
C330 C 0.94576 1.00718 0.79412 0.0
C331 C 1.03402 1.03796 0.75134 0.0
C332 C 0.07685 1.01888 0.74831 0.0
C333 C 0.08768 0.97957 0.75544 0.0
C334 C 0.11524 0.95039 0.74805 0.0
C335 C 0.13221 0.96035 0.73359 0.0
C336 C 0.12639 1.00186 0.72755 0.0
C337 C 0.09895 1.03113 0.73492 0.0
C338 C 0.89897 1.02577 0.72842 0.0
C339 C 0.95034 0.93454 0.72856 0.0
O340 O 0.86697 0.97348 0.77509 0.0
O341 O 0.86451 0.91756 0.76002 0.0
O342 O 0.94286 0.88148 0.75833 0.0
O343 O 0.99308 0.92184 0.76356 0.0
O344 O 0.93621 0.96812 0.78887 0.0
O345 O 0.95494 1.03013 0.7817 0.0
O346 O 1.01798 1.03283 0.7651 0.0
O347 O 1.00585 1.02895 0.74075 0.0
O348 O 0.90072 1.02161 0.74375 0.0
O349 O 0.9026 1.02033 0.74392 0.0
O350 O 0.98354 0.95148 0.73549 0.0
O351 O 0.91415 0.9363 0.73604 0.0
H352 H 0.76517 0.92559 0.78245 0.0
H353 H 0.74548 0.87675 0.8036 0.0
H354 H 0.88068 0.84318 0.80932 0.0
H355 H 0.89985 0.89133 0.78839 0.0
H356 H 0.07102 0.96918 0.76576 0.0
H357 H 0.11985 0.91864 0.75287 0.0
H358 H 0.13928 1.00993 0.71631 0.0
H359 H 0.09079 0.06097 0.72915 0.0
Nd360 Nd 0.87752 0.17161 0.5104 0.0
Nd361 Nd 0.84097 0.21043 0.50629 0.0
C362 C 0.89592 0.09443 0.52092 0.0
C363 C 0.9215 0.08166 0.53402 0.0
C364 C 0.92337 1.03863 0.53859 0.0
C365 C 0.94934 1.02709 0.55101 0.0
C366 C 0.97304 0.05876 0.55885 0.0
C367 C 0.97015 0.10194 0.55438 0.0
C368 C 0.94461 0.11331 0.54198 0.0
C369 C 0.9537 0.23216 0.51069 0.0
C370 C 0.82703 0.19332 0.54386 0.0
C371 C 0.79472 0.28056 0.501 0.0
C372 C 0.8136 0.32298 0.4977 0.0
C373 C 0.85311 0.33428 0.50473 0.0
C374 C 0.88215 0.36151 0.49718 0.0
C375 C 0.87188 0.37762 0.48264 0.0
C376 C 0.83015 0.37122 0.47665 0.0
C377 C 0.80099 0.34417 0.4842 0.0
C378 C 0.80825 0.14619 0.47819 0.0
C379 C 0.8996 0.1979 0.47822 0.0
O380 O 0.86018 0.11487 0.52441 0.0
O381 O 0.91803 0.11308 0.51001 0.0
O382 O 0.95325 0.19079 0.50802 0.0
O383 O 0.91201 0.24055 0.51321 0.0
O384 O 0.86642 0.18398 0.53855 0.0
O385 O 0.80368 0.20232 0.53149 0.0
O386 O 0.80039 0.26514 0.51479 0.0
O387 O 0.80362 0.2522 0.49048 0.0
O388 O 0.81246 0.14819 0.49352 0.0
O389 O 0.81373 0.15007 0.49368 0.0
O390 O 0.88205 0.23075 0.48515 0.0
O391 O 0.89838 0.16201 0.48571 0.0
H392 H 0.90537 1.01413 0.53247 0.0
H393 H 0.95133 0.99359 0.55438 0.0
H394 H 0.98884 0.12666 0.56013 0.0
H395 H 0.94359 0.14668 0.5384 0.0
H396 H 0.8638 0.3183 0.51512 0.0
H397 H 0.91407 0.36657 0.50195 0.0
H398 H 0.82182 0.38346 0.46537 0.0
H399 H 0.77101 0.33563 0.4785 0.0
Nd400 Nd 0.66238 0.12372 0.26073 0.0
Nd401 Nd 0.62309 0.08772 0.25672 0.0
C402 C 0.7402 0.1425 0.27096 0.0
C403 C 0.75256 0.16982 0.28362 0.0
C404 C 0.79602 0.17427 0.28779 0.0
C405 C 0.80698 0.20245 0.29961 0.0
C406 C 0.77435 0.22584 0.30724 0.0
C407 C 0.73084 0.22051 0.30314 0.0
C408 C 0.72003 0.19271 0.29136 0.0
C409 C 0.60168 0.19998 0.26108 0.0
C410 C 0.6409 0.07349 0.29421 0.0
C411 C 0.55238 0.04195 0.25178 0.0
C412 C 0.50942 0.06062 0.24875 0.0
C413 C 0.49869 0.10048 0.25551 0.0
C414 C 0.47111 0.12908 0.24791 0.0
C415 C 0.45398 0.11795 0.23359 0.0
C416 C 0.45959 0.07592 0.22798 0.0
C417 C 0.4871 0.04724 0.23557 0.0
C418 C 0.68728 0.05463 0.22848 0.0
C419 C 0.6352 0.14548 0.2286 0.0
O420 O 0.71946 0.10769 0.27499 0.0
O421 O 0.72169 0.163 0.25966 0.0
O422 O 0.64333 0.19907 0.25837 0.0
O423 O 0.59309 0.15868 0.26362 0.0
O424 O 0.65042 0.11253 0.28893 0.0
O425 O 0.63153 0.05049 0.28183 0.0
O426 O 0.56839 0.04769 0.26549 0.0
O427 O 0.58046 0.05082 0.24111 0.0
O428 O 0.68552 0.05887 0.24381 0.0
O429 O 0.68365 0.06014 0.24398 0.0
O430 O 0.60217 0.12842 0.23563 0.0
O431 O 0.67149 0.144 0.23598 0.0
H432 H 0.82123 0.15657 0.2818 0.0
H433 H 0.84075 0.20625 0.30272 0.0
H434 H 0.70533 0.23886 0.30871 0.0
H435 H 0.68633 0.1898 0.28805 0.0
H436 H 0.51552 0.11171 0.26566 0.0
H437 H 0.46676 0.16129 0.25238 0.0
H438 H 0.4466 0.06694 0.21686 0.0
H439 H 0.49518 1.01694 0.23008 0.0
Nd440 Nd 0.7102 0.9088 1.01035 0.0
Nd441 Nd 0.74687 0.86973 1.00636 0.0
C442 C 0.69014 0.98603 1.02048 0.0
C443 C 0.66147 0.99793 1.03289 0.0
C444 C 0.65548 0.04101 1.03696 0.0
C445 C 0.6257 0.05143 1.04844 0.0
C446 C 0.60221 1.01863 1.05579 0.0
C447 C 0.60907 0.97553 1.05178 0.0
C448 C 0.63851 0.96525 1.04037 0.0
C449 C 0.63395 0.8482 1.0107 0.0
C450 C 0.76054 0.88738 1.0439 0.0
C451 C 0.79316 0.79958 1.00112 0.0
C452 C 0.7742 0.75717 0.99789 0.0
C453 C 0.73447 0.7462 1.00487 0.0
C454 C 0.70543 0.71903 0.99733 0.0
C455 C 0.71595 0.70259 0.98284 0.0
C456 C 0.75785 0.70864 0.9769 0.0
C457 C 0.78699 0.73568 0.98444 0.0
C458 C 0.7798 0.93402 0.97825 0.0
C459 C 0.68888 0.88125 0.9782 0.0
O460 O 0.72504 0.96547 1.02479 0.0
O461 O 0.67053 0.96773 1.00894 0.0
O462 O 0.63452 0.88947 1.0079 0.0
O463 O 0.6756 0.83992 1.01331 0.0
O464 O 0.72135 0.89733 1.03856 0.0
O465 O 0.78386 0.87763 1.03156 0.0
O466 O 0.78742 0.81517 1.0149 0.0
O467 O 0.78439 0.82783 0.99057 0.0
O468 O 0.77554 0.93197 0.99358 0.0
O469 O 0.77428 0.93011 0.99373 0.0
O470 O 0.70616 0.84861 0.98529 0.0
O471 O 0.69006 0.91739 0.98555 0.0
H472 H 0.67321 0.06633 1.03116 0.0
H473 H 0.6208 0.08489 1.05151 0.0
H474 H 0.59073 0.94988 1.05715 0.0
H475 H 0.64264 0.93183 1.03712 0.0
H476 H 0.72364 0.76243 1.01522 0.0
H477 H 0.67336 0.71428 1.00206 0.0
H478 H 0.76636 0.69615 0.96565 0.0
H479 H 0.81714 0.74396 0.97877 0.0
Nd480 Nd 0.9243 0.1241 0.8988 0.0
Nd481 Nd 0.96417 0.0879 0.90271 0.0
C482 C 0.84643 0.14438 0.88889 0.0
C483 C 0.83431 0.17276 0.8765 0.0
C484 C 0.79091 0.17816 0.87237 0.0
C485 C 0.78031 0.20694 0.86069 0.0
C486 C 0.81324 0.23001 0.85317 0.0
C487 C 0.85665 0.22398 0.85731 0.0
C488 C 0.86711 0.19552 0.86894 0.0
C489 C 0.98516 0.20007 0.89843 0.0
C490 C 0.94599 0.07372 0.86523 0.0
C491 C 1.03521 0.0425 0.90783 0.0
C492 C 0.07788 0.06164 0.91085 0.0
C493 C 0.08811 0.10138 0.90395 0.0
C494 C 0.1154 0.13038 0.91144 0.0
C495 C 0.13281 0.11976 0.92576 0.0
C496 C 0.12758 0.07791 0.93155 0.0
C497 C 0.10032 0.04886 0.92409 0.0
C498 C 0.89972 0.05445 0.93081 0.0
C499 C 0.95197 0.14516 0.93096 0.0
O500 O 0.8669 0.1096 0.88452 0.0
O501 O 0.86516 0.16383 0.90037 0.0
O502 O 0.94372 0.19922 0.9015 0.0
O503 O 0.99347 0.15881 0.89558 0.0
O504 O 0.93526 0.1125 0.87056 0.0
O505 O 0.9566 0.05092 0.87753 0.0
O506 O 1.0192 0.04773 0.89409 0.0
O507 O 1.00694 0.05141 0.91846 0.0
O508 O 0.90168 0.05887 0.91549 0.0
O509 O 0.90353 0.06013 0.91533 0.0
O510 O 0.98509 0.12871 0.92375 0.0
O511 O 0.91553 0.14342 0.92369 0.0
H512 H 0.7655 0.16056 0.87823 0.0
H513 H 0.74662 0.21123 0.85753 0.0
H514 H 0.88239 0.24204 0.85182 0.0
H515 H 0.90078 0.19179 0.87221 0.0
H516 H 0.07115 0.11218 0.89376 0.0
H517 H 0.11945 0.16244 0.90684 0.0
H518 H 0.14077 0.06935 0.94268 0.0
H519 H 0.09259 1.01869 0.92969 0.0
Nd520 Nd 0.71029 0.17114 0.64844 0.0
Nd521 Nd 0.74649 0.20998 0.65263 0.0
C522 C 0.69222 0.09409 0.63777 0.0
C523 C 0.66562 0.0817 0.62489 0.0
C524 C 0.66194 1.03856 0.6206 0.0
C525 C 0.63393 1.02737 0.60872 0.0
C526 C 0.60995 0.05948 0.60115 0.0
C527 C 0.61481 0.10274 0.60528 0.0
C528 C 0.64241 0.11376 0.61714 0.0
C529 C 0.63376 0.23168 0.64814 0.0
C530 C 0.76077 0.19309 0.61504 0.0
C531 C 0.79214 0.2802 0.65801 0.0
C532 C 0.77286 0.32262 0.66119 0.0
C533 C 0.73323 0.33354 0.65414 0.0
C534 C 0.70393 0.36085 0.6616 0.0
C535 C 0.71408 0.37751 0.67607 0.0
C536 C 0.75587 0.37145 0.68207 0.0
C537 C 0.78526 0.34424 0.67463 0.0
C538 C 0.77918 0.1458 0.68076 0.0
C539 C 0.6875 0.19715 0.68059 0.0
O540 O 0.72744 0.1149 0.63405 0.0
O541 O 0.67074 0.11221 0.64898 0.0
O542 O 0.63446 0.19034 0.65085 0.0
O543 O 0.67539 0.24003 0.6456 0.0
O544 O 0.72142 0.18371 0.62032 0.0
O545 O 0.78401 0.20198 0.62744 0.0
O546 O 0.78696 0.26462 0.64422 0.0
O547 O 0.78314 0.25195 0.66853 0.0
O548 O 0.77527 0.14779 0.66542 0.0
O549 O 0.77399 0.14967 0.66526 0.0
O550 O 0.70496 0.23006 0.67373 0.0
O551 O 0.68903 0.16132 0.67306 0.0
H552 H 0.67992 1.01371 0.62658 0.0
H553 H 0.63051 0.99381 0.60558 0.0
H554 H 0.59601 0.12784 0.59976 0.0
H555 H 0.64469 0.14721 0.62055 0.0
H556 H 0.7227 0.31722 0.6438 0.0
H557 H 0.67194 0.36561 0.65682 0.0
H558 H 0.76409 0.38408 0.69332 0.0
H559 H 0.81532 0.33598 0.68035 0.0
Nd560 Nd 0.66311 0.95663 0.39876 0.0
Nd561 Nd 0.62357 0.9929 0.40277 0.0
C562 C 0.741 0.93693 0.38861 0.0
C563 C 0.75343 0.9095 0.37596 0.0
C564 C 0.79687 0.90511 0.37167 0.0
C565 C 0.80783 0.87737 0.35969 0.0
C566 C 0.77522 0.85436 0.35202 0.0
C567 C 0.73174 0.85945 0.35629 0.0
C568 C 0.72093 0.88683 0.36823 0.0
C569 C 0.6023 0.8807 0.39841 0.0
C570 C 0.64135 1.007 0.36527 0.0
C571 C 0.55281 1.03885 0.40789 0.0
C572 C 0.50993 1.02016 0.41092 0.0
C573 C 0.49945 0.98042 0.40407 0.0
C574 C 0.47208 0.95162 0.41164 0.0
C575 C 0.45487 0.96245 0.426 0.0
C576 C 0.46023 1.00437 0.43172 0.0
C577 C 0.48755 1.03323 0.42417 0.0
C578 C 0.68802 1.02604 0.43085 0.0
C579 C 0.63538 0.93547 0.43094 0.0
O580 O 0.72055 0.97197 0.38455 0.0
O581 O 0.72215 0.91666 0.3999 0.0
O582 O 0.64383 0.88145 0.40128 0.0
O583 O 0.59388 0.92203 0.39574 0.0
O584 O 0.65157 0.96808 0.37055 0.0
O585 O 0.63138 1.02995 0.37762 0.0
O586 O 0.56889 1.03338 0.39415 0.0
O587 O 0.58088 1.02972 0.41852 0.0
O588 O 0.68611 1.02163 0.41552 0.0
O589 O 0.68424 1.02037 0.41536 0.0
O590 O 0.60236 0.95224 0.42382 0.0
O591 O 0.67182 0.937 0.42361 0.0
H592 H 0.82205 0.92266 0.37764 0.0
H593 H 0.84158 0.87373 0.35645 0.0
H594 H 0.70626 0.84137 0.35069 0.0
H595 H 0.68723 0.88977 0.37162 0.0
H596 H 0.51635 0.96941 0.39386 0.0
H597 H 0.46795 0.91951 0.40709 0.0
H598 H 0.44717 1.01311 0.44288 0.0
H599 H 0.49544 0.06342 0.42973 0.0
Nd600 Nd 0.87656 0.9092 0.1486 0.0
Nd601 Nd 0.84006 0.87018 0.15265 0.0
C602 C 0.89581 0.98645 0.13842 0.0
C603 C 0.92346 0.99876 0.12579 0.0
C604 C 0.9279 0.04189 0.1216 0.0
C605 C 0.95623 0.05278 0.10975 0.0
C606 C 0.97978 1.02039 0.10212 0.0
C607 C 0.97453 0.97721 0.10626 0.0
C608 C 0.94656 0.96647 0.11807 0.0
C609 C 0.95297 0.84856 0.14824 0.0
C610 C 0.8263 0.8876 0.11509 0.0
C611 C 0.79398 0.80017 0.15793 0.0
C612 C 0.81301 0.75767 0.16112 0.0
C613 C 0.85257 0.74641 0.15402 0.0
C614 C 0.8817 0.719 0.16147 0.0
C615 C 0.87148 0.70265 0.17599 0.0
C616 C 0.82973 0.70904 0.18205 0.0
C617 C 0.80048 0.73629 0.1746 0.0
C618 C 0.80721 0.93444 0.18082 0.0
C619 C 0.89837 0.88189 0.18072 0.0
O620 O 0.86072 0.966 0.13435 0.0
O621 O 0.91632 0.96792 0.14973 0.0
O622 O 0.95231 0.8899 0.15095 0.0
O623 O 0.91136 0.84022 0.1457 0.0
O624 O 0.86547 0.89743 0.12041 0.0
O625 O 0.80301 0.87807 0.12745 0.0
O626 O 0.79955 0.81573 0.14415 0.0
O627 O 0.80284 0.82838 0.16848 0.0
O628 O 0.8113 0.93245 0.16548 0.0
O629 O 0.81257 0.93058 0.16532 0.0
O630 O 0.88112 0.84921 0.17368 0.0
O631 O 0.89698 0.91797 0.17336 0.0
H632 H 0.91002 0.06691 0.12757 0.0
H633 H 0.95998 0.0863 0.1066 0.0
H634 H 0.99301 0.9519 0.10069 0.0
H635 H 0.94363 0.93301 0.1214 0.0
H636 H 0.8632 0.76255 0.14365 0.0
H637 H 0.91363 0.71395 0.15664 0.0
H638 H 0.82144 0.69662 0.19332 0.0
H639 H 0.77047 0.74479 0.18036 0.0
Nd640 Nd 0.62299 0.58707 0.90265 0.0
Nd641 Nd 0.66264 0.62296 0.89854 0.0
C642 C 0.55205 0.54189 0.90791 0.0
C643 C 0.5092 0.56101 0.91085 0.0
C644 C 0.49868 0.60049 0.9038 0.0
C645 C 0.47106 0.62962 0.91117 0.0
C646 C 0.45367 0.61942 0.92555 0.0
C647 C 0.45916 0.57776 0.9315 0.0
C648 C 0.48672 0.54855 0.92414 0.0
C649 C 0.68753 0.55412 0.93075 0.0
C650 C 0.63565 0.64506 0.93071 0.0
C651 C 0.74037 0.64209 0.88819 0.0
C652 C 0.75248 0.66993 0.87563 0.0
C653 C 0.7959 0.67511 0.87147 0.0
C654 C 0.80659 0.70393 0.85981 0.0
C655 C 0.77373 0.72727 0.85234 0.0
C656 C 0.73026 0.72124 0.85644 0.0
C657 C 0.71972 0.69277 0.86805 0.0
C658 C 0.60184 0.69919 0.8982 0.0
C659 C 0.64065 0.57253 0.86513 0.0
O660 O 0.5682 0.54682 0.89416 0.0
O661 O 0.58012 0.5511 0.91851 0.0
O662 O 0.68547 0.55801 0.91541 0.0
O663 O 0.68359 0.5593 0.91525 0.0
O664 O 0.60247 0.62831 0.92371 0.0
O665 O 0.67193 0.64322 0.92328 0.0
O666 O 0.7196 0.60739 0.88406 0.0
O667 O 0.722 0.66214 0.89965 0.0
O668 O 0.64337 0.69825 0.90106 0.0
O669 O 0.59343 0.65793 0.89553 0.0
O670 O 0.65088 0.61143 0.87037 0.0
O671 O 0.63076 0.54974 0.87751 0.0
H672 H 0.51565 0.61103 0.89356 0.0
H673 H 0.46675 0.66151 0.90644 0.0
H674 H 0.44597 0.56951 0.94267 0.0
H675 H 0.49464 0.51858 0.92986 0.0
H676 H 0.8213 0.65749 0.87735 0.0
H677 H 0.84033 0.70823 0.8567 0.0
H678 H 0.70456 0.7395 0.85099 0.0
H679 H 0.68604 0.6893 0.87136 0.0
Nd680 Nd 0.74662 0.36941 0.15271 0.0
Nd681 Nd 0.70989 0.40872 0.1488 0.0
C682 C 0.79265 0.29912 0.15792 0.0
C683 C 0.77346 0.25678 0.16111 0.0
C684 C 0.73352 0.24626 0.15423 0.0
C685 C 0.70438 0.2192 0.16181 0.0
C686 C 0.71505 0.20233 0.1762 0.0
C687 C 0.7571 0.20795 0.182 0.0
C688 C 0.78631 0.23494 0.17445 0.0
C689 C 0.7796 0.43377 0.1808 0.0
C690 C 0.68869 0.38095 0.18096 0.0
C691 C 0.68957 0.48597 0.13879 0.0
C692 C 0.66168 0.49816 0.12623 0.0
C693 C 0.65696 0.54125 0.122 0.0
C694 C 0.62863 0.55202 0.11015 0.0
C695 C 0.60535 0.51954 0.10256 0.0
C696 C 0.61082 0.4764 0.10676 0.0
C697 C 0.6388 0.46578 0.11856 0.0
C698 C 0.63385 0.34788 0.14845 0.0
C699 C 0.76044 0.38731 0.1152 0.0
O700 O 0.78719 0.31478 0.14415 0.0
O701 O 0.78379 0.32736 0.16848 0.0
O702 O 0.77539 0.43164 0.16547 0.0
O703 O 0.77412 0.42978 0.16532 0.0
O704 O 0.70567 0.34827 0.17377 0.0
O705 O 0.6901 0.41717 0.17368 0.0
O706 O 0.7249 0.46582 0.13461 0.0
O707 O 0.66942 0.46717 0.15012 0.0
O708 O 0.63438 0.389 0.15154 0.0
O709 O 0.67545 0.33991 0.14556 0.0
O710 O 0.7213 0.39752 0.12058 0.0
O711 O 0.78368 0.37724 0.12749 0.0
H712 H 0.72264 0.26277 0.14397 0.0
H713 H 0.67216 0.21488 0.1572 0.0
H714 H 0.76571 0.19516 0.19319 0.0
H715 H 0.81662 0.2429 0.18004 0.0
H716 H 0.67468 0.56633 0.12792 0.0
H717 H 0.62475 0.5855 0.10696 0.0
H718 H 0.59258 0.45102 0.10121 0.0
H719 H 0.64202 0.43234 0.1219 0.0
Nd720 Nd 0.96401 0.49247 0.40231 0.0
Nd721 Nd 0.92479 0.45649 0.39832 0.0
C722 C 1.03476 0.53819 0.40723 0.0
C723 C 0.07769 0.51943 0.41024 0.0
C724 C 0.08831 0.47955 0.40347 0.0
C725 C 0.11588 0.45089 0.41105 0.0
C726 C 0.13314 0.462 0.42535 0.0
C727 C 0.12761 0.50403 0.43097 0.0
C728 C 0.10009 0.53275 0.42341 0.0
C729 C 0.89978 0.52547 0.4306 0.0
C730 C 0.95211 0.43479 0.43045 0.0
C731 C 0.84698 0.43777 0.38807 0.0
C732 C 0.83458 0.41059 0.37538 0.0
C733 C 0.79113 0.40628 0.37119 0.0
C734 C 0.78012 0.37824 0.35934 0.0
C735 C 0.81272 0.35484 0.35169 0.0
C736 C 0.85623 0.36004 0.3558 0.0
C737 C 0.86708 0.3877 0.36762 0.0
C738 C 0.98548 0.38019 0.39799 0.0
C739 C 0.94635 0.50665 0.36482 0.0
O740 O 1.01869 0.5325 0.39352 0.0
O741 O 1.0067 0.52936 0.41791 0.0
O742 O 0.90161 0.52136 0.41526 0.0
O743 O 0.9035 0.52008 0.41509 0.0
O744 O 0.9851 0.45179 0.42338 0.0
O745 O 0.91578 0.43627 0.42309 0.0
O746 O 0.86771 0.47263 0.38408 0.0
O747 O 0.86551 0.41717 0.39935 0.0
O748 O 0.94386 0.38115 0.40077 0.0
O749 O 0.994 0.42147 0.39537 0.0
O750 O 0.93694 0.46759 0.37012 0.0
O751 O 0.95553 0.52972 0.3772 0.0
H752 H 0.0714 0.46836 0.39332 0.0
H753 H 0.12015 0.41869 0.40657 0.0
H754 H 0.1407 0.51298 0.44208 0.0
H755 H 0.09209 0.56306 0.42891 0.0
H756 H 0.76595 0.42398 0.37719 0.0
H757 H 0.74635 0.37453 0.35622 0.0
H758 H 0.88171 0.34168 0.35021 0.0
H759 H 0.90078 0.3905 0.37095 0.0
Nd760 Nd 0.83962 0.70975 0.65291 0.0
Nd761 Nd 0.87632 0.67069 0.6489 0.0
C762 C 0.79314 0.77982 0.65812 0.0
C763 C 0.81189 0.82233 0.66134 0.0
C764 C 0.85157 0.83348 0.65436 0.0
C765 C 0.88048 0.86078 0.66191 0.0
C766 C 0.8699 0.87711 0.67641 0.0
C767 C 0.82801 0.87088 0.68234 0.0
C768 C 0.79899 0.84376 0.67479 0.0
C769 C 0.80684 0.64534 0.68102 0.0
C770 C 0.89767 0.69821 0.68105 0.0
C771 C 0.89556 0.59321 0.6388 0.0
C772 C 0.92274 0.58041 0.62609 0.0
C773 C 0.92645 0.5372 0.62185 0.0
C774 C 0.95415 0.5258 0.60986 0.0
C775 C 0.97778 0.55778 0.60212 0.0
C776 C 0.97322 0.60106 0.60631 0.0
C777 C 0.94589 0.61229 0.61826 0.0
C778 C 0.95254 0.73126 0.64856 0.0
C779 C 0.82621 0.69224 0.61534 0.0
O780 O 0.79899 0.76423 0.64434 0.0
O781 O 0.80203 0.75164 0.66867 0.0
O782 O 0.81093 0.64753 0.66568 0.0
O783 O 0.81221 0.64941 0.66554 0.0
O784 O 0.88034 0.73085 0.67398 0.0
O785 O 0.89652 0.66208 0.6737 0.0
O786 O 0.86031 0.61369 0.63481 0.0
O787 O 0.91642 0.61198 0.64996 0.0
O788 O 0.95202 0.68993 0.65128 0.0
O789 O 0.91088 0.73959 0.64599 0.0
O790 O 0.86538 0.68235 0.62069 0.0
O791 O 0.8028 0.70185 0.62767 0.0
H792 H 0.86249 0.81731 0.64401 0.0
H793 H 0.91253 0.86568 0.65718 0.0
H794 H 0.81944 0.88329 0.6936 0.0
H795 H 0.76887 0.83533 0.68046 0.0
H796 H 0.90848 0.5125 0.6279 0.0
H797 H 0.95739 0.49222 0.60669 0.0
H798 H 0.99179 0.62605 0.60065 0.0
H799 H 0.94347 0.64581 0.6216 0.0
Nd800 Nd 0.62226 0.49182 0.7566 0.0
Nd801 Nd 0.6618 0.45559 0.7605 0.0
C802 C 0.5514 0.53771 0.7517 0.0
C803 C 0.50854 0.51901 0.74868 0.0
C804 C 0.49819 0.47905 0.75539 0.0
C805 C 0.47086 0.45041 0.74775 0.0
C806 C 0.45353 0.46164 0.73347 0.0
C807 C 0.45875 0.50374 0.72792 0.0
C808 C 0.48605 0.53244 0.73554 0.0
C809 C 0.68667 0.52497 0.72841 0.0
C810 C 0.63404 0.43454 0.72834 0.0
C811 C 0.73977 0.43625 0.77053 0.0
C812 C 0.75245 0.40942 0.78329 0.0
C813 C 0.79589 0.4059 0.78761 0.0
C814 C 0.80713 0.37887 0.79974 0.0
C815 C 0.77478 0.35573 0.80753 0.0
C816 C 0.73128 0.36001 0.80324 0.0
C817 C 0.72019 0.38666 0.79115 0.0
C818 C 0.60109 0.37958 0.76085 0.0
C819 C 0.6403 0.50589 0.79405 0.0
O820 O 0.56749 0.532 0.76541 0.0
O821 O 0.57948 0.52882 0.74101 0.0
O822 O 0.6847 0.52066 0.74374 0.0
O823 O 0.68282 0.51939 0.7439 0.0
O824 O 0.60104 0.45134 0.73552 0.0
O825 O 0.67048 0.43598 0.73563 0.0
O826 O 0.71935 0.47144 0.77449 0.0
O827 O 0.72079 0.4155 0.7594 0.0
O828 O 0.6426 0.3804 0.75789 0.0
O829 O 0.59267 0.42088 0.76361 0.0
O830 O 0.65022 0.4669 0.78873 0.0
O831 O 0.63048 0.52891 0.78172 0.0
H832 H 0.51518 0.46778 0.76551 0.0
H833 H 0.46686 0.41814 0.75216 0.0
H834 H 0.44561 0.51278 0.71683 0.0
H835 H 0.49385 0.56281 0.73009 0.0
H836 H 0.82088 0.42356 0.78155 0.0
H837 H 0.84089 0.37583 0.80299 0.0
H838 H 0.70601 0.34181 0.80894 0.0
H839 H 0.68649 0.38895 0.78775 0.0
Nd840 Nd 0.84034 0.36992 1.00644 0.0
Nd841 Nd 0.87688 0.40913 1.01043 0.0
C842 C 0.79438 0.2998 1.00125 0.0
C843 C 0.8135 0.25726 0.99818 0.0
C844 C 0.85325 0.2465 1.00518 0.0
C845 C 0.88245 0.21907 0.99773 0.0
C846 C 0.87206 0.20211 0.98332 0.0
C847 C 0.83014 0.20797 0.9774 0.0
C848 C 0.80086 0.23532 0.98484 0.0
C849 C 0.80747 0.43412 0.97832 0.0
C850 C 0.89857 0.38146 0.97828 0.0
C851 C 0.8966 0.48635 1.02056 0.0
C852 C 0.9243 0.49862 1.03316 0.0
C853 C 0.92867 0.54174 1.03739 0.0
C854 C 0.9568 0.55261 1.04928 0.0
C855 C 0.98024 0.52021 1.0569 0.0
C856 C 0.97514 0.47704 1.05269 0.0
C857 C 0.94737 0.46632 1.04085 0.0
C858 C 0.95315 0.34833 1.01078 0.0
C859 C 0.82643 0.38758 1.04398 0.0
O860 O 0.79965 0.31564 1.01501 0.0
O861 O 0.80349 0.3278 0.99066 0.0
O862 O 0.81151 0.43213 0.99365 0.0
O863 O 0.81279 0.43027 0.99381 0.0
O864 O 0.88147 0.3488 0.98539 0.0
O865 O 0.89709 0.41762 0.98561 0.0
O866 O 0.86138 0.46612 1.02468 0.0
O867 O 0.91699 0.46762 1.00924 0.0
O868 O 0.95251 0.38951 1.00783 0.0
O869 O 0.91158 0.34024 1.01354 0.0
O870 O 0.86558 0.39759 1.03863 0.0
O871 O 0.80321 0.37784 1.03166 0.0
H872 H 0.86396 0.26307 1.01545 0.0
H873 H 0.91454 0.21448 1.00244 0.0
H874 H 0.82175 0.19511 0.96621 0.0
H875 H 0.7707 0.24345 0.97916 0.0
H876 H 0.91083 0.56677 1.03145 0.0
H877 H 0.96039 0.58611 1.05248 0.0
H878 H 0.99352 0.45173 1.05827 0.0
H879 H 0.94445 0.43287 1.0375 0.0
Nd880 Nd 0.96432 0.58736 0.25618 0.0
Nd881 Nd 0.92442 0.62349 0.2602 0.0
C882 C 1.03542 0.54209 0.25088 0.0
C883 C 0.07813 0.56129 0.24792 0.0
C884 C 0.08848 0.60068 0.25505 0.0
C885 C 0.11583 0.62995 0.2477 0.0
C886 C 0.13313 0.61997 0.23327 0.0
C887 C 0.1278 0.57841 0.22723 0.0
C888 C 0.10051 0.54906 0.23456 0.0
C889 C 0.89968 0.55411 0.22815 0.0
C890 C 0.9518 0.64481 0.22802 0.0
C891 C 0.84655 0.64354 0.27029 0.0
C892 C 0.83437 0.67156 0.28281 0.0
C893 C 0.79098 0.67664 0.28705 0.0
C894 C 0.7803 0.70506 0.29887 0.0
C895 C 0.81315 0.72807 0.30641 0.0
C896 C 0.85658 0.72233 0.30217 0.0
C897 C 0.86711 0.69426 0.29041 0.0
C898 C 0.9853 0.69947 0.26055 0.0
C899 C 0.94628 0.57309 0.2937 0.0
O900 O 1.01928 0.547 0.26464 0.0
O901 O 1.00724 0.55125 0.24029 0.0
O902 O 0.90184 0.55827 0.24348 0.0
O903 O 0.9037 0.55955 0.24364 0.0
O904 O 0.98501 0.6284 0.23514 0.0
O905 O 0.91541 0.64295 0.23536 0.0
O906 O 0.86702 0.60866 0.27451 0.0
O907 O 0.8653 0.6633 0.25887 0.0
O908 O 0.94387 0.69863 0.25752 0.0
O909 O 0.99356 0.6582 0.26338 0.0
O910 O 0.93544 0.61184 0.28842 0.0
O911 O 0.95693 0.55034 0.28136 0.0
H912 H 0.07158 0.61105 0.26534 0.0
H913 H 0.12003 0.66175 0.2525 0.0
H914 H 0.14092 0.57033 0.21602 0.0
H915 H 0.0927 0.51917 0.22878 0.0
H916 H 0.76561 0.6591 0.28118 0.0
H917 H 0.74659 0.70916 0.30209 0.0
H918 H 0.88225 0.74037 0.30768 0.0
H919 H 0.90078 0.69079 0.28705 0.0
Nd920 Nd 0.74671 0.70971 0.50654 0.0
Nd921 Nd 0.71043 0.67069 0.51064 0.0
C922 C 0.79231 0.78001 0.5012 0.0
C923 C 0.77298 0.8224 0.49805 0.0
C924 C 0.73311 0.83311 0.50503 0.0
C925 C 0.70399 0.86052 0.49758 0.0
C926 C 0.7146 0.87753 0.48319 0.0
C927 C 0.75657 0.8716 0.47727 0.0
C928 C 0.78575 0.84426 0.48471 0.0
C929 C 0.7796 0.6454 0.47837 0.0
C930 C 0.68822 0.69714 0.47851 0.0
C931 C 0.69148 0.59364 0.52108 0.0
C932 C 0.6637 0.5817 0.53373 0.0
C933 C 0.65874 0.53863 0.53794 0.0
C934 C 0.62959 0.52804 0.54957 0.0
C935 C 0.60572 0.56064 0.55696 0.0
C936 C 0.61173 0.60377 0.55288 0.0
C937 C 0.6405 0.61422 0.54128 0.0
C938 C 0.63392 0.73136 0.51097 0.0
C939 C 0.76065 0.69238 0.54411 0.0
O940 O 0.78699 0.76439 0.51499 0.0
O941 O 0.78348 0.75176 0.49067 0.0
O942 O 0.77575 0.64756 0.49372 0.0
O943 O 0.77446 0.64944 0.49387 0.0
O944 O 0.70544 0.73 0.48546 0.0
O945 O 0.68971 0.66121 0.48596 0.0
O946 O 0.72647 0.61434 0.5251 0.0
O947 O 0.67101 0.61173 0.50968 0.0
O948 O 0.63468 0.6901 0.50811 0.0
O949 O 0.67548 0.73954 0.51365 0.0
O950 O 0.72143 0.68269 0.53881 0.0
O951 O 0.78393 0.70174 0.53173 0.0
H952 H 0.72228 0.81658 0.5153 0.0
H953 H 0.67185 0.86512 0.50228 0.0
H954 H 0.76512 0.88448 0.46609 0.0
H955 H 0.816 0.83615 0.47903 0.0
H956 H 0.67667 0.51343 0.53209 0.0
H957 H 0.62532 0.49456 0.55269 0.0
H958 H 0.59307 0.62926 0.55827 0.0
H959 H 0.64378 0.64762 0.53793 0.0
Nd960 Nd 0.42425 0.45687 0.26058 0.0
Nd961 Nd 0.46402 0.49277 0.2565 0.0
C962 C 0.34645 0.43743 0.27078 0.0
C963 C 0.33428 0.40949 0.2833 0.0
C964 C 0.29085 0.40425 0.28743 0.0
C965 C 0.28014 0.37556 0.29912 0.0
C966 C 0.31301 0.35242 0.30667 0.0
C967 C 0.35648 0.35839 0.30257 0.0
C968 C 0.36704 0.38673 0.29092 0.0
C969 C 0.48507 0.38063 0.26095 0.0
C970 C 0.44619 0.50734 0.29402 0.0
C971 C 0.535 0.53784 0.25122 0.0
C972 C 0.57778 0.51855 0.24828 0.0
C973 C 0.58802 0.47894 0.25529 0.0
C974 C 0.61549 0.44971 0.2479 0.0
C975 C 0.63307 0.45996 0.23355 0.0
C976 C 0.62784 0.50171 0.22765 0.0
C977 C 0.60038 0.53099 0.23502 0.0
C978 C 0.39959 0.52594 0.22841 0.0
C979 C 0.45163 0.43496 0.22842 0.0
O980 O 0.36705 0.47216 0.27497 0.0
O981 O 0.36503 0.41751 0.25933 0.0
O982 O 0.44361 0.38161 0.25798 0.0
O983 O 0.49344 0.42187 0.26369 0.0
O984 O 0.43566 0.46852 0.28876 0.0
O985 O 0.45643 0.53005 0.28166 0.0
O986 O 0.51886 0.53302 0.26498 0.0
O987 O 0.50689 0.52868 0.24063 0.0
O988 O 0.40155 0.52186 0.24374 0.0
O989 O 0.40341 0.52059 0.2439 0.0
O990 O 0.48479 0.45145 0.2355 0.0
O991 O 0.41524 0.43697 0.23578 0.0
H992 H 0.26546 0.4218 0.28152 0.0
H993 H 0.2464 0.37129 0.30224 0.0
H994 H 0.38218 0.34026 0.30807 0.0
H995 H 0.40074 0.39026 0.28763 0.0
H996 H 0.57094 0.4684 0.26551 0.0
H997 H 0.61956 0.41774 0.25258 0.0
H998 H 0.64116 0.50999 0.2165 0.0
H999 H 0.59265 0.56106 0.22933 0.0
Nd1000 Nd 0.37704 0.67087 1.01031 0.0
Nd1001 Nd 0.3403 0.70992 1.00638 0.0
C1002 C 0.39672 0.5935 1.02036 0.0
C1003 C 0.42395 0.58084 1.03304 0.0
C1004 C 0.4278 0.53766 1.03727 0.0
C1005 C 0.45536 0.5264 1.04928 0.0
C1006 C 0.47871 0.55848 1.05705 0.0
C1007 C 0.47409 0.60173 1.05286 0.0
C1008 C 0.4469 0.61283 1.04088 0.0
C1009 C 0.45319 0.73153 1.01067 0.0
C1010 C 0.32656 0.69224 1.0439 0.0
C1011 C 0.29389 0.78002 1.00127 0.0
C1012 C 0.31277 0.82248 0.99806 0.0
C1013 C 0.35254 0.83341 1.00498 0.0
C1014 C 0.38156 0.86057 0.9974 0.0
C1015 C 0.37098 0.87707 0.98294 0.0
C1016 C 0.32904 0.87109 0.97709 0.0
C1017 C 0.29992 0.84404 0.98466 0.0
C1018 C 0.30734 0.64578 0.97825 0.0
C1019 C 0.39829 0.69859 0.97815 0.0
O1020 O 0.36134 0.61377 1.02439 0.0
O1021 O 0.41748 0.61238 1.00918 0.0
O1022 O 0.45269 0.69027 1.00781 0.0
O1023 O 0.41152 0.73976 1.01333 0.0
O1024 O 0.3658 0.68245 1.03853 0.0
O1025 O 0.30322 0.70186 1.0316 0.0
O1026 O 0.29963 0.76437 1.01503 0.0
O1027 O 0.30275 0.75184 0.99068 0.0
O1028 O 0.31173 0.6477 0.99358 0.0
O1029 O 0.31299 0.64957 0.99373 0.0
O1030 O 0.38103 0.7312 0.9853 0.0
O1031 O 0.39709 0.66241 0.98546 0.0
H1032 H 0.41 0.51288 1.03122 0.0
H1033 H 0.45863 0.49284 1.05246 0.0
H1034 H 0.49244 0.6268 1.05854 0.0
H1035 H 0.44435 0.64633 1.03755 0.0
H1036 H 0.36342 0.81713 1.01529 0.0
H1037 H 0.41368 0.86524 1.00206 0.0
H1038 H 0.32048 0.88361 0.96586 0.0
H1039 H 0.26974 0.83579 0.97904 0.0
Nd1040 Nd 0.16206 0.62374 0.76063 0.0
Nd1041 Nd 0.12247 0.58773 0.75664 0.0
C1042 C 0.23986 0.64318 0.77074 0.0
C1043 C 0.25206 0.6711 0.78325 0.0
C1044 C 0.29549 0.67613 0.78736 0.0
C1045 C 0.30625 0.70478 0.79906 0.0
C1046 C 0.27343 0.72808 0.80663 0.0
C1047 C 0.22996 0.72228 0.80256 0.0
C1048 C 0.21935 0.69398 0.79091 0.0
C1049 C 0.1012 0.69993 0.761 0.0
C1050 C 0.1403 0.57345 0.79414 0.0
C1051 C 0.05161 0.5424 0.75151 0.0
C1052 C 1.00881 0.56152 0.74853 0.0
C1053 C 0.99836 0.60123 0.75546 0.0
C1054 C 0.97084 0.63021 0.74801 0.0
C1055 C 0.95343 0.61961 0.73369 0.0
C1056 C 0.95889 0.57777 0.72787 0.0
C1057 C 0.98638 0.54873 0.7353 0.0
C1058 C 0.18692 0.55446 0.72846 0.0
C1059 C 0.13466 0.64533 0.72849 0.0
O1060 O 0.21925 0.60846 0.77495 0.0
O1061 O 0.22127 0.66313 0.75933 0.0
O1062 O 0.14273 0.69898 0.75808 0.0
O1063 O 0.09281 0.65868 0.76372 0.0
O1064 O 0.15055 0.61231 0.78885 0.0
O1065 O 0.13029 0.55059 0.78178 0.0
O1066 O 0.06764 0.54761 0.76525 0.0
O1067 O 0.07979 0.55135 0.74088 0.0
O1068 O 0.18501 0.55872 0.7438 0.0
O1069 O 0.18315 0.55998 0.74396 0.0
O1070 O 0.10158 0.62865 0.7356 0.0
O1071 O 0.17102 0.64359 0.73582 0.0
H1072 H 0.32084 0.65846 0.78143 0.0
H1073 H 0.33999 0.7089 0.80216 0.0
H1074 H 0.2043 0.74053 0.80809 0.0
H1075 H 0.18566 0.69058 0.78765 0.0
H1076 H 1.0153 0.61203 0.76565 0.0
H1077 H 0.96661 0.66226 0.75263 0.0
H1078 H 0.94571 0.56921 0.71674 0.0
H1079 H 0.99427 0.51858 0.72967 0.0
Nd1080 Nd 0.21038 0.40963 0.51033 0.0
Nd1081 Nd 0.24689 0.37047 0.50622 0.0
C1082 C 0.19083 0.48666 0.52076 0.0
C1083 C 0.16323 0.49854 0.53348 0.0
C1084 C 0.15875 0.5415 0.53793 0.0
C1085 C 0.13033 0.55201 0.54982 0.0
C1086 C 0.10674 0.51939 0.55723 0.0
C1087 C 0.11215 0.47636 0.55287 0.0
C1088 C 0.14019 0.46601 0.54102 0.0
C1089 C 0.13419 0.34898 0.51063 0.0
C1090 C 0.26065 0.38769 0.5438 0.0
C1091 C 0.29273 0.30016 0.50075 0.0
C1092 C 0.27349 0.25787 0.49752 0.0
C1093 C 0.23378 0.24709 0.50456 0.0
C1094 C 0.20461 0.21991 0.49709 0.0
C1095 C 0.21496 0.20325 0.48262 0.0
C1096 C 0.25679 0.20922 0.4766 0.0
C1097 C 0.28605 0.23629 0.48407 0.0
C1098 C 0.2799 0.43492 0.47819 0.0
C1099 C 0.1886 0.38323 0.47815 0.0
O1100 O 0.22611 0.46616 0.52471 0.0
O1101 O 0.17034 0.4684 0.50941 0.0
O1102 O 0.13476 0.39022 0.50775 0.0
O1103 O 0.17578 0.34077 0.51333 0.0
O1104 O 0.22149 0.39779 0.5385 0.0
O1105 O 0.28394 0.37801 0.53144 0.0
O1106 O 0.28741 0.31564 0.51457 0.0
O1107 O 0.28382 0.32855 0.49027 0.0
O1108 O 0.27575 0.43274 0.49353 0.0
O1109 O 0.27447 0.43087 0.49368 0.0
O1110 O 0.20572 0.35029 0.48513 0.0
O1111 O 0.19004 0.41917 0.48561 0.0
H1112 H 0.1766 0.5667 0.53211 0.0
H1113 H 0.12647 0.58541 0.55315 0.0
H1114 H 0.09368 0.4509 0.55829 0.0
H1115 H 0.14317 0.43268 0.5375 0.0
H1116 H 0.22311 0.26341 0.51491 0.0
H1117 H 0.17258 0.21524 0.50187 0.0
H1118 H 0.26516 0.19658 0.46536 0.0
H1119 H 0.31616 0.24446 0.47834 0.0
Nd1120 Nd 0.42507 0.62436 0.39864 0.0
Nd1121 Nd 0.46443 0.58813 0.40258 0.0
C1122 C 0.34718 0.64376 0.38854 0.0
C1123 C 0.33475 0.67108 0.37589 0.0
C1124 C 0.29132 0.67536 0.37164 0.0
C1125 C 0.28032 0.70316 0.35971 0.0
C1126 C 0.3129 0.72634 0.35205 0.0
C1127 C 0.35638 0.72129 0.35626 0.0
C1128 C 0.36723 0.69385 0.36815 0.0
C1129 C 0.48577 0.70037 0.39832 0.0
C1130 C 0.44653 0.57402 0.36511 0.0
C1131 C 0.53521 0.54212 0.40749 0.0
C1132 C 0.57808 0.56075 0.41055 0.0
C1133 C 0.58867 0.60057 0.40378 0.0
C1134 C 0.61603 0.62922 0.4114 0.0
C1135 C 0.6331 0.61818 0.42574 0.0
C1136 C 0.62764 0.5762 0.43137 0.0
C1137 C 0.60035 0.54747 0.42376 0.0
C1138 C 0.40017 0.55498 0.43077 0.0
C1139 C 0.45254 0.64556 0.43081 0.0
O1140 O 0.36777 0.60876 0.38448 0.0
O1141 O 0.36591 0.66416 0.39981 0.0
O1142 O 0.44418 0.69959 0.40114 0.0
O1143 O 0.49429 0.65903 0.39567 0.0
O1144 O 0.43682 0.61307 0.37042 0.0
O1145 O 0.45611 0.55099 0.37746 0.0
O1146 O 0.51919 0.54791 0.39378 0.0
O1147 O 0.50708 0.551 0.41817 0.0
O1148 O 0.40197 0.55944 0.41544 0.0
O1149 O 0.40384 0.5607 0.41528 0.0
O1150 O 0.48555 0.6286 0.42369 0.0
O1151 O 0.41617 0.6442 0.42348 0.0
H1152 H 0.26616 0.65772 0.37762 0.0
H1153 H 0.24658 0.70677 0.35651 0.0
H1154 H 0.38184 0.73948 0.35066 0.0
H1155 H 0.40091 0.69101 0.37151 0.0
H1156 H 0.57187 0.61173 0.3936 0.0
H1157 H 0.62026 0.66139 0.40692 0.0
H1158 H 0.6406 0.56729 0.4425 0.0
H1159 H 0.59237 0.51721 0.42926 0.0
Nd1160 Nd 0.21012 0.67089 0.14874 0.0
Nd1161 Nd 0.24674 0.71011 0.15266 0.0
C1162 C 0.19024 0.59354 0.13877 0.0
C1163 C 0.16249 0.58106 0.12622 0.0
C1164 C 0.15815 0.53787 0.12206 0.0
C1165 C 0.13007 0.52681 0.11018 0.0
C1166 C 0.10665 0.55909 0.10249 0.0
C1167 C 0.11168 0.60232 0.10663 0.0
C1168 C 0.13942 0.61323 0.11846 0.0
C1169 C 0.13388 0.73171 0.14835 0.0
C1170 C 0.26056 0.6922 0.11514 0.0
C1171 C 0.29283 0.78019 0.15776 0.0
C1172 C 0.27374 0.82278 0.16077 0.0
C1173 C 0.23384 0.83333 0.15385 0.0
C1174 C 0.20469 0.86076 0.16132 0.0
C1175 C 0.21531 0.87796 0.17567 0.0
C1176 C 0.25737 0.87235 0.18149 0.0
C1177 C 0.28659 0.84497 0.17403 0.0
C1178 C 0.27973 0.64608 0.18083 0.0
C1179 C 0.18868 0.69915 0.18087 0.0
O1180 O 0.22545 0.61366 0.13459 0.0
O1181 O 0.1699 0.61249 0.15006 0.0
O1182 O 0.13451 0.69055 0.15134 0.0
O1183 O 0.17546 0.73978 0.14558 0.0
O1184 O 0.22145 0.68213 0.12051 0.0
O1185 O 0.28379 0.70211 0.12743 0.0
O1186 O 0.28752 0.76422 0.14402 0.0
O1187 O 0.28371 0.75231 0.16839 0.0
O1188 O 0.27547 0.6479 0.1655 0.0
O1189 O 0.27422 0.64975 0.16534 0.0
O1190 O 0.20575 0.73169 0.17368 0.0
O1191 O 0.19013 0.66287 0.17361 0.0
H1192 H 0.17601 0.51294 0.12805 0.0
H1193 H 0.12654 0.49327 0.10704 0.0
H1194 H 0.09331 0.62755 0.101 0.0
H1195 H 0.14234 0.64674 0.12174 0.0
H1196 H 0.22297 0.81657 0.14364 0.0
H1197 H 0.17246 0.8651 0.15669 0.0
H1198 H 0.26595 0.88539 0.19263 0.0
H1199 H 0.31688 0.837 0.17966 0.0
Nd1200 Nd 0.16214 0.45658 0.89864 0.0
Nd1201 Nd 0.12279 0.49263 0.90276 0.0
C1202 C 0.23997 0.43789 0.88821 0.0
C1203 C 0.25249 0.4111 0.8754 0.0
C1204 C 0.29593 0.40724 0.87104 0.0
C1205 C 0.30708 0.37971 0.85902 0.0
C1206 C 0.27464 0.35642 0.85137 0.0
C1207 C 0.23112 0.36119 0.85564 0.0
C1208 C 0.22014 0.38832 0.86764 0.0
C1209 C 0.10159 0.38044 0.89833 0.0
C1210 C 0.14028 0.50691 0.86522 0.0
C1211 C 0.05188 0.53828 0.90798 0.0
C1212 C 1.00908 0.51942 0.91106 0.0
C1213 C 0.99816 0.48016 0.90394 0.0
C1214 C 0.97075 0.4511 0.91138 0.0
C1215 C 0.95407 0.46112 0.92589 0.0
C1216 C 0.95992 0.50261 0.93193 0.0
C1217 C 0.98718 0.53178 0.9245 0.0
C1218 C 0.18721 0.52562 0.93086 0.0
C1219 C 0.13541 0.43475 0.93083 0.0
O1220 O 0.21916 0.47292 0.88438 0.0
O1221 O 0.22148 0.41699 0.89943 0.0
O1222 O 0.14324 0.38124 0.90098 0.0
O1223 O 0.09292 0.4218 0.89585 0.0
O1224 O 0.15002 0.46785 0.87048 0.0
O1225 O 0.13084 0.52989 0.87763 0.0
O1226 O 0.06785 0.53288 0.89421 0.0
O1227 O 0.08012 0.52932 0.91856 0.0
O1228 O 0.18525 0.52139 0.91553 0.0
O1229 O 0.18337 0.52012 0.91537 0.0
O1230 O 0.10225 0.45178 0.92386 0.0
O1231 O 0.17164 0.43627 0.92337 0.0
H1232 H 0.321 0.42489 0.87704 0.0
H1233 H 0.34084 0.37629 0.85578 0.0
H1234 H 0.20578 0.34287 0.85006 0.0
H1235 H 0.18646 0.39079 0.87109 0.0
H1236 H 1.01465 0.46969 0.89359 0.0
H1237 H 0.96608 0.41938 0.90656 0.0
H1238 H 0.94723 0.51074 0.9432 0.0
H1239 H 0.9954 0.56158 0.93027 0.0
Nd1240 Nd 0.37629 0.4091 0.64844 0.0
Nd1241 Nd 0.34003 0.37033 0.65258 0.0
C1242 C 0.39399 0.48632 0.63788 0.0
C1243 C 0.41996 0.49907 0.62486 0.0
C1244 C 0.42263 0.54223 0.6205 0.0
C1245 C 0.44972 0.55376 0.60836 0.0
C1246 C 0.47374 0.52196 0.6006 0.0
C1247 C 0.4699 0.47867 0.60481 0.0
C1248 C 0.44325 0.46732 0.61693 0.0
C1249 C 0.45284 0.34862 0.64811 0.0
C1250 C 0.32621 0.38742 0.61501 0.0
C1251 C 0.29422 0.30016 0.65791 0.0
C1252 C 0.31339 0.25777 0.6612 0.0
C1253 C 0.35314 0.24663 0.65422 0.0
C1254 C 0.38217 0.21928 0.66174 0.0
C1255 C 0.37163 0.20286 0.67622 0.0
C1256 C 0.32975 0.2092 0.68218 0.0
C1257 C 0.30063 0.23641 0.67465 0.0
C1258 C 0.30716 0.43441 0.68079 0.0
C1259 C 0.39872 0.38291 0.68056 0.0
O1260 O 0.35865 0.46557 0.63431 0.0
O1261 O 0.41596 0.46795 0.64888 0.0
O1262 O 0.45213 0.39001 0.65076 0.0
O1263 O 0.41123 0.3402 0.64562 0.0
O1264 O 0.36556 0.39653 0.6203 0.0
O1265 O 0.30278 0.37866 0.6274 0.0
O1266 O 0.29988 0.31557 0.64411 0.0
O1267 O 0.30284 0.32854 0.66841 0.0
O1268 O 0.31119 0.43247 0.66545 0.0
O1269 O 0.31249 0.43058 0.66529 0.0
O1270 O 0.38125 0.35007 0.67367 0.0
O1271 O 0.39736 0.41878 0.67307 0.0
H1272 H 0.40454 0.56682 0.62661 0.0
H1273 H 0.45244 0.58735 0.60518 0.0
H1274 H 0.48881 0.45384 0.59915 0.0
H1275 H 0.44173 0.43387 0.62039 0.0
H1276 H 0.36396 0.26276 0.64387 0.0
H1277 H 0.41423 0.21432 0.65701 0.0
H1278 H 0.32124 0.19674 0.69342 0.0
H1279 H 0.27047 0.24485 0.68032 0.0
C1280 C 0.1421 0.20505 0.44849 0.0
C1281 C 0.13474 0.16104 0.44634 0.0
H1282 H 0.17342 0.25289 0.46222 0.0
C1283 C 0.14525 0.132 0.45813 0.0
H1284 H 0.13505 0.22778 0.43937 0.0
C1285 C 0.16858 0.14604 0.47097 0.0
C1286 C 0.18036 0.18939 0.47216 0.0
H1287 H 0.1401 0.09785 0.45651 0.0
H1288 H 0.18051 0.12269 0.47919 0.0
C1289 C 0.16459 0.21921 0.46141 0.0
C1290 C 0.20269 0.89062 0.70862 0.0
C1291 C 0.17282 0.88032 0.69703 0.0
H1292 H 0.21317 0.92567 0.72963 0.0
C1293 C 0.1286 0.88774 0.69953 0.0
H1294 H 0.23701 0.8854 0.70675 0.0
C1295 C 0.115 0.91011 0.71257 0.0
C1296 C 0.14562 0.9257 0.7231 0.0
H1297 H 0.10522 0.88085 0.69057 0.0
H1298 H 0.08112 0.91902 0.71364 0.0
C1299 C 0.18922 0.91386 0.72158 0.0
C1300 C 0.44319 0.87423 0.94853 0.0
C1301 C 0.45138 0.9181 0.9464 0.0
H1302 H 0.41116 0.8269 0.96231 0.0
C1303 C 0.44145 0.94729 0.95823 0.0
H1304 H 0.44977 0.8514 0.93938 0.0
C1305 C 0.418 0.93362 0.97113 0.0
C1306 C 0.40546 0.89048 0.97232 0.0
H1307 H 0.44719 0.98135 0.95663 0.0
H1308 H 0.40661 0.95713 0.97942 0.0
C1309 C 0.42055 0.86043 0.96149 0.0
C1310 C 0.39781 0.16487 0.22134 0.0
C1311 C 0.44109 0.15181 0.22274 0.0
H1312 H 0.35051 0.19404 0.20656 0.0
C1313 C 0.47187 0.16578 0.21195 0.0
H1314 H 0.37376 0.15432 0.2296 0.0
C1315 C 0.45863 0.1879 0.19885 0.0
C1316 C 0.41463 0.19675 0.19654 0.0
H1317 H 0.5055 0.15595 0.21294 0.0
H1318 H 0.482 0.19369 0.18976 0.0
C1319 C 0.38471 0.18784 0.2083 0.0
C1320 C 0.14295 0.87499 0.21001 0.0
C1321 C 0.13521 0.9189 0.21236 0.0
H1322 H 0.17448 0.82766 0.196 0.0
C1323 C 0.14541 0.94835 0.20066 0.0
H1324 H 0.13617 0.85196 0.21906 0.0
C1325 C 0.16874 0.93477 0.1877 0.0
C1326 C 0.18081 0.89148 0.1863 0.0
H1327 H 0.13998 0.98243 0.20242 0.0
H1328 H 0.1804 0.9584 0.17954 0.0
C1329 C 0.1654 0.86129 0.19697 0.0
C1330 C 0.4726 0.91431 0.44757 0.0
C1331 C 0.44199 0.92838 0.43676 0.0
H1332 H 0.4824 0.88609 0.46973 0.0
C1333 C 0.39879 0.91515 0.43805 0.0
H1334 H 0.50618 0.92425 0.44668 0.0
C1335 C 0.38553 0.89196 0.45102 0.0
C1336 C 0.41522 0.88298 0.46283 0.0
H1337 H 0.37487 0.92576 0.42976 0.0
H1338 H 0.35134 0.88567 0.45269 0.0
C1339 C 0.45922 0.89193 0.46061 0.0
C1340 C 0.41794 0.14549 0.68795 0.0
C1341 C 0.4061 0.18888 0.68674 0.0
H1342 H 0.44643 0.09726 0.70243 0.0
C1343 C 0.42174 0.21869 0.6975 0.0
H1344 H 0.40609 0.12215 0.67972 0.0
C1345 C 0.44423 0.20451 0.71043 0.0
C1346 C 0.4517 0.16049 0.71259 0.0
H1347 H 0.41286 0.2524 0.69668 0.0
H1348 H 0.45121 0.22726 0.71955 0.0
C1349 C 0.44124 0.13142 0.7008 0.0
C1350 C 0.129 0.19111 0.96018 0.0
C1351 C 0.17316 0.1988 0.96254 0.0
H1352 H 0.08165 0.15998 0.94611 0.0
C1353 C 0.20299 0.18893 0.95083 0.0
H1354 H 0.10568 0.19766 0.96923 0.0
C1355 C 0.18958 0.16597 0.93784 0.0
C1356 C 0.14607 0.15395 0.93641 0.0
H1357 H 0.23728 0.19431 0.95261 0.0
H1358 H 0.21352 0.15456 0.92966 0.0
C1359 C 0.11545 0.16903 0.9471 0.0
C1360 C 0.94202 0.87448 0.71075 0.0
C1361 C 0.95033 0.91834 0.71282 0.0
H1362 H 0.90989 0.82709 0.69706 0.0
C1363 C 0.94049 0.94744 0.70098 0.0
H1364 H 0.94854 0.85173 0.71991 0.0
C1365 C 0.91703 0.93369 0.68812 0.0
C1366 C 0.90437 0.89057 0.68699 0.0
H1367 H 0.94634 0.9815 0.70254 0.0
H1368 H 0.90572 0.95714 0.67982 0.0
C1369 C 0.91936 0.8606 0.69783 0.0
C1370 C 0.88515 0.18864 0.45071 0.0
C1371 C 0.91514 0.1978 0.46238 0.0
H1372 H 0.8741 0.15473 0.42949 0.0
C1373 C 0.95916 0.18913 0.45996 0.0
H1374 H 0.85095 0.19474 0.45253 0.0
C1375 C 0.97235 0.16688 0.44685 0.0
C1376 C 0.94152 0.1526 0.43617 0.0
H1377 H 0.98258 0.19512 0.46899 0.0
H1378 H 1.00601 0.15714 0.4458 0.0
C1379 C 0.8982 0.16552 0.43767 0.0
C1380 C 0.66545 0.21903 0.19763 0.0
C1381 C 0.68061 0.18892 0.18684 0.0
H1382 H 0.63634 0.22818 0.21975 0.0
C1383 C 0.66827 0.14574 0.1881 0.0
H1384 H 0.6747 0.25258 0.19676 0.0
C1385 C 0.64494 0.13211 0.20103 0.0
C1386 C 0.63496 0.16139 0.21283 0.0
H1387 H 0.67973 0.12218 0.17984 0.0
H1388 H 0.63934 0.09804 0.20268 0.0
C1389 C 0.64294 0.20527 0.21063 0.0
C1390 C 0.6901 0.91371 0.9377 0.0
C1391 C 0.64654 0.92568 0.93621 0.0
H1392 H 0.73779 0.8854 0.95254 0.0
C1393 C 0.61587 0.91054 0.94684 0.0
H1394 H 0.71408 0.92518 0.92958 0.0
C1395 C 0.62938 0.88845 0.95992 0.0
C1396 C 0.67356 0.88082 0.96236 0.0
H1397 H 0.58203 0.91956 0.94579 0.0
H1398 H 0.60597 0.88187 0.96893 0.0
C1399 C 0.70348 0.89073 0.95071 0.0
C1400 C 0.94495 0.20468 0.94912 0.0
C1401 C 0.95236 0.16071 0.94678 0.0
H1402 H 0.91359 0.25221 0.9631 0.0
C1403 C 0.94185 0.13134 0.95846 0.0
H1404 H 0.95198 0.22767 0.94009 0.0
C1405 C 0.91848 0.14506 0.97139 0.0
C1406 C 0.9067 0.18842 0.97278 0.0
H1407 H 0.94705 0.09722 0.9567 0.0
H1408 H 0.90655 0.1215 0.97952 0.0
C1409 C 0.92245 0.21853 0.96213 0.0
C1410 C 0.70129 0.18812 0.70816 0.0
C1411 C 0.67152 0.19696 0.69637 0.0
H1412 H 0.71219 0.15443 0.72943 0.0
C1413 C 0.62757 0.18781 0.69861 0.0
H1414 H 0.73545 0.19456 0.70647 0.0
C1415 C 0.61434 0.16542 0.71167 0.0
C1416 C 0.64505 0.15151 0.72247 0.0
H1417 H 0.60434 0.19354 0.6895 0.0
H1418 H 0.5808 0.15535 0.71258 0.0
C1419 C 0.68819 0.16491 0.72115 0.0
C1420 C 0.6419 0.87579 0.44903 0.0
C1421 C 0.63491 0.91984 0.44674 0.0
H1422 H 0.67271 0.8279 0.46294 0.0
C1423 C 0.64565 0.94905 0.45844 0.0
H1424 H 0.63469 0.85291 0.43998 0.0
C1425 C 0.6688 0.93505 0.47134 0.0
C1426 C 0.68015 0.89157 0.47268 0.0
H1427 H 0.64078 0.98323 0.45672 0.0
H1428 H 0.68091 0.95846 0.47949 0.0
C1429 C 0.66418 0.86167 0.46201 0.0
C1430 C 0.97168 0.91171 0.21189 0.0
C1431 C 0.94108 0.92669 0.2226 0.0
H1432 H 0.98146 0.883 0.18978 0.0
C1433 C 0.89763 0.91441 0.22123 0.0
H1434 H 1.00545 0.92093 0.21284 0.0
C1435 C 0.88423 0.89132 0.20826 0.0
C1436 C 0.91402 0.88155 0.19653 0.0
H1437 H 0.87369 0.92573 0.22943 0.0
H1438 H 0.84995 0.88577 0.20652 0.0
C1439 C 0.95816 0.88946 0.19885 0.0
C1440 C 0.66895 0.64591 0.97114 0.0
C1441 C 0.68144 0.68908 0.97228 0.0
H1442 H 0.63983 0.59803 0.95671 0.0
C1443 C 0.66629 0.71903 0.96147 0.0
H1444 H 0.68038 0.62247 0.97942 0.0
C1445 C 0.64365 0.70511 0.94855 0.0
C1446 C 0.63553 0.66121 0.94645 0.0
H1447 H 0.67564 0.75257 0.96226 0.0
H1448 H 0.63704 0.72788 0.9394 0.0
C1449 C 0.64551 0.63212 0.95828 0.0
C1450 C 0.69002 0.41368 0.22141 0.0
C1451 C 0.64642 0.4255 0.22298 0.0
H1452 H 0.73771 0.38536 0.20651 0.0
C1453 C 0.61574 0.41007 0.21245 0.0
H1454 H 0.714 0.42538 0.22946 0.0
C1455 C 0.62925 0.38787 0.19936 0.0
C1456 C 0.67345 0.38043 0.19683 0.0
H1457 H 0.58186 0.41898 0.21356 0.0
H1458 H 0.60581 0.3811 0.19041 0.0
C1459 C 0.7034 0.39058 0.20841 0.0
C1460 C 0.9188 0.43434 0.4709 0.0
C1461 C 0.90654 0.39112 0.47211 0.0
H1462 H 0.94775 0.48217 0.45639 0.0
C1463 C 0.92197 0.36109 0.46133 0.0
H1464 H 0.90715 0.45784 0.47914 0.0
C1465 C 0.94461 0.37496 0.44838 0.0
C1466 C 0.95244 0.41887 0.44621 0.0
H1467 H 0.9128 0.32751 0.46217 0.0
H1468 H 0.9514 0.3521 0.43926 0.0
C1469 C 0.94226 0.44808 0.45801 0.0
C1470 C 0.95717 0.69106 0.69934 0.0
C1471 C 0.91297 0.69862 0.6969 0.0
H1472 H 1.00456 0.66005 0.71348 0.0
C1473 C 0.88305 0.68864 0.70854 0.0
H1474 H 0.98057 0.69769 0.69033 0.0
C1475 C 0.89647 0.6657 0.72155 0.0
C1476 C 0.94005 0.65381 0.72305 0.0
H1477 H 0.84875 0.69392 0.70671 0.0
H1478 H 0.8725 0.65419 0.72967 0.0
C1479 C 0.9707 0.66901 0.71243 0.0
C1480 C 0.66757 0.4346 0.68793 0.0
C1481 C 0.67931 0.39122 0.68655 0.0
H1482 H 0.63905 0.48249 0.7026 0.0
C1483 C 0.66343 0.36114 0.69718 0.0
H1484 H 0.6796 0.45813 0.6798 0.0
C1485 C 0.64088 0.37502 0.71018 0.0
C1486 C 0.63358 0.41901 0.71253 0.0
H1487 H 0.67224 0.32744 0.69623 0.0
H1488 H 0.63377 0.35204 0.71921 0.0
C1489 C 0.64416 0.44836 0.70085 0.0
C1490 C 0.97169 0.41134 0.94701 0.0
C1491 C 0.941 0.42652 0.93641 0.0
H1492 H 0.98161 0.38234 0.96904 0.0
C1493 C 0.89757 0.41419 0.93784 0.0
H1494 H 1.00544 0.42059 0.946 0.0
C1495 C 0.88427 0.3909 0.95079 0.0
C1496 C 0.91413 0.38102 0.96244 0.0
H1497 H 0.87357 0.42565 0.92973 0.0
H1498 H 0.85 0.38533 0.9526 0.0
C1499 C 0.95826 0.38891 0.96003 0.0
C1500 C 0.91805 0.64543 0.18767 0.0
C1501 C 0.90617 0.6888 0.18643 0.0
H1502 H 0.94674 0.59734 0.20215 0.0
C1503 C 0.92196 0.71872 0.19713 0.0
H1504 H 0.9061 0.62202 0.17948 0.0
C1505 C 0.94461 0.70465 0.21004 0.0
C1506 C 0.95209 0.66065 0.21224 0.0
H1507 H 0.91305 0.75241 0.19628 0.0
H1508 H 0.95167 0.72749 0.21912 0.0
C1509 C 0.94152 0.63149 0.2005 0.0
C1510 C 0.70224 0.6882 0.45093 0.0
C1511 C 0.6724 0.69715 0.46273 0.0
H1512 H 0.71314 0.65462 0.42961 0.0
C1513 C 0.62841 0.68831 0.46048 0.0
H1514 H 0.73642 0.6944 0.45263 0.0
C1515 C 0.61516 0.66612 0.44739 0.0
C1516 C 0.6459 0.6521 0.43656 0.0
H1517 H 0.60512 0.69412 0.4696 0.0
H1518 H 0.58157 0.65628 0.44646 0.0
C1519 C 0.68912 0.66519 0.4379 0.0
C1520 C 0.44159 0.44778 0.20087 0.0
C1521 C 0.45195 0.41877 0.21269 0.0
H1522 H 0.4064 0.45711 0.17979 0.0
C1523 C 0.44429 0.3748 0.21059 0.0
H1524 H 0.44695 0.48191 0.20244 0.0
C1525 C 0.42164 0.36067 0.1977 0.0
C1526 C 0.40607 0.39049 0.18691 0.0
H1527 H 0.4512 0.3521 0.21973 0.0
H1528 H 0.41259 0.32704 0.19692 0.0
C1529 C 0.41817 0.43377 0.18804 0.0
C1530 C 0.45766 0.69156 0.95973 0.0
C1531 C 0.41348 0.69907 0.96227 0.0
H1532 H 0.50497 0.66039 0.94552 0.0
C1533 C 0.38348 0.68895 0.9507 0.0
H1534 H 0.48112 0.69831 0.96867 0.0
C1535 C 0.3968 0.66582 0.9377 0.0
C1536 C 0.44038 0.65393 0.93611 0.0
H1537 H 0.34919 0.69424 0.95261 0.0
H1538 H 0.37278 0.65415 0.92965 0.0
C1539 C 0.47111 0.66934 0.94663 0.0
C1540 C 0.14456 0.6317 0.70096 0.0
C1541 C 0.13436 0.66107 0.71271 0.0
H1542 H 0.17959 0.62169 0.67983 0.0
C1543 C 0.14208 0.70497 0.71045 0.0
H1544 H 0.13913 0.59763 0.70266 0.0
C1545 C 0.16458 0.71869 0.69744 0.0
C1546 C 0.18002 0.68852 0.68672 0.0
H1547 H 0.13529 0.72794 0.71953 0.0
H1548 H 0.17367 0.75228 0.69653 0.0
C1549 C 0.16792 0.64529 0.68804 0.0
C1550 C 0.20285 0.39249 0.45061 0.0
C1551 C 0.17297 0.38325 0.46235 0.0
H1552 H 0.21361 0.42622 0.42934 0.0
C1553 C 0.1289 0.39175 0.46003 0.0
H1554 H 0.23708 0.38654 0.45237 0.0
C1555 C 0.11553 0.41384 0.44693 0.0
C1556 C 0.14623 0.42813 0.43616 0.0
H1557 H 0.10555 0.38573 0.46911 0.0
H1558 H 0.08182 0.42342 0.44594 0.0
C1559 C 0.18961 0.41542 0.43758 0.0
C1560 C 0.4189 0.64572 0.47121 0.0
C1561 C 0.4069 0.68905 0.47253 0.0
H1562 H 0.4477 0.59782 0.45661 0.0
C1563 C 0.42265 0.7191 0.46186 0.0
H1564 H 0.40699 0.6222 0.47937 0.0
C1565 C 0.44532 0.7052 0.4489 0.0
C1566 C 0.45288 0.66123 0.44661 0.0
H1567 H 0.41366 0.75276 0.46277 0.0
H1568 H 0.45233 0.72813 0.43984 0.0
C1569 C 0.44241 0.63194 0.45833 0.0
C1570 C 0.11565 0.67019 0.21227 0.0
C1571 C 0.14634 0.65462 0.2228 0.0
H1572 H 0.10573 0.69931 0.19026 0.0
C1573 C 0.18989 0.66645 0.22128 0.0
H1574 H 0.08182 0.66129 0.21334 0.0
C1575 C 0.20324 0.68964 0.20832 0.0
C1576 C 0.17333 0.69985 0.19673 0.0
H1577 H 0.21389 0.65467 0.22934 0.0
H1578 H 0.23754 0.69485 0.20645 0.0
C1579 C 0.12914 0.69248 0.19922 0.0
C1580 C 0.14546 0.44811 0.95837 0.0
C1581 C 0.13537 0.41886 0.9466 0.0
H1582 H 0.18038 0.45787 0.97947 0.0
C1583 C 0.14333 0.37494 0.94879 0.0
H1584 H 0.13988 0.48221 0.95672 0.0
C1585 C 0.16589 0.36107 0.96174 0.0
C1586 C 0.18114 0.39111 0.97249 0.0
H1587 H 0.13663 0.35206 0.93968 0.0
H1588 H 0.17512 0.32746 0.9626 0.0
C1589 C 0.16885 0.43436 0.97125 0.0
C1590 C 0.45844 0.39193 0.69862 0.0
C1591 C 0.41448 0.38298 0.69635 0.0
H1592 H 0.50517 0.42391 0.71269 0.0
C1593 C 0.38459 0.39176 0.70815 0.0
H1594 H 0.48177 0.38624 0.6895 0.0
C1595 C 0.39762 0.41468 0.72121 0.0
C1596 C 0.44081 0.42784 0.72258 0.0
H1597 H 0.35043 0.38548 0.70644 0.0
H1598 H 0.37356 0.42512 0.72951 0.0
C1599 C 0.47161 0.41401 0.71174 0.0
C1600 C 1.02443 0.24935 0.39709 0.0
C1601 C 0.07141 0.24535 0.39737 0.0
H1602 H 0.964 0.28745 0.39727 0.0
C1603 C 0.08864 0.28913 0.39757 0.0
H1604 H 1.00619 0.21977 0.3969 0.0
C1605 C 0.06316 0.33027 0.39737 0.0
C1606 C 1.01618 0.33427 0.39732 0.0
H1607 H 0.12357 0.29217 0.39786 0.0
H1608 H 0.08141 0.35986 0.39743 0.0
C1609 C 0.99894 0.2905 0.39725 0.0
C1610 C 1.04269 0.7451 0.64757 0.0
C1611 C 0.99843 0.76197 0.64788 0.0
H1612 H 0.11383 0.75274 0.64699 0.0
C1613 C 1.00191 0.80862 0.64816 0.0
H1614 H 0.04614 0.71044 0.64739 0.0
C1615 C 1.04305 0.83415 0.64837 0.0
C1616 C 0.08731 0.81729 0.64793 0.0
H1617 H 0.9719 0.82654 0.64844 0.0
H1618 H 1.03961 0.86879 0.64886 0.0
C1619 C 0.08383 0.77065 0.6474 0.0
C1620 C 0.56288 0.82994 0.89734 0.0
C1621 C 0.5159 0.83388 0.89747 0.0
H1622 H 0.62332 0.7919 0.8977 0.0
C1623 C 0.49867 0.79012 0.89754 0.0
H1624 H 0.58109 0.85954 0.89727 0.0
C1625 C 0.52418 0.74901 0.89736 0.0
C1626 C 0.57116 0.74507 0.89749 0.0
H1627 H 0.46373 0.78706 0.8977 0.0
H1628 H 0.50598 0.71941 0.8973 0.0
C1629 C 0.58839 0.78883 0.89754 0.0
C1630 C 0.54338 0.24499 0.14716 0.0
C1631 C 0.49912 0.26185 0.14763 0.0
H1632 H 0.61452 0.25267 0.14646 0.0
C1633 C 0.50259 0.30848 0.14809 0.0
H1634 H 0.54684 0.21034 0.14684 0.0
C1635 C 0.54373 0.33401 0.1483 0.0
C1636 C 0.58798 0.31718 0.14771 0.0
H1637 H 0.47259 0.32638 0.14849 0.0
H1638 H 0.54028 0.36863 0.14893 0.0
C1639 C 0.58451 0.27056 0.147 0.0
C1640 C 0.0629 0.7491 0.26178 0.0
C1641 C 1.01594 0.74528 0.26129 0.0
H1642 H 0.12332 0.7869 0.26175 0.0
C1643 C 0.99871 0.78915 0.2609 0.0
H1644 H 0.08115 0.71944 0.26215 0.0
C1645 C 1.02416 0.83018 0.26112 0.0
C1646 C 0.07114 0.83399 0.26136 0.0
H1647 H 0.96379 0.79235 0.26045 0.0
H1648 H 1.00591 0.85984 0.26089 0.0
C1649 C 0.08839 0.79012 0.26161 0.0
C1650 C 0.50252 0.77093 0.5115 0.0
C1651 C 0.49891 0.81759 0.51169 0.0
H1652 H 0.54042 0.71068 0.5109 0.0
C1653 C 0.5431 0.83439 0.51193 0.0
H1654 H 0.47257 0.75309 0.51131 0.0
C1655 C 0.58431 0.80876 0.51211 0.0
C1656 C 0.58793 0.76211 0.51167 0.0
H1657 H 0.54643 0.86905 0.51205 0.0
H1658 H 0.61426 0.8266 0.51246 0.0
C1659 C 0.54374 0.74533 0.51131 0.0
C1660 C 0.58776 0.2899 0.76136 0.0
C1661 C 0.57046 0.33375 0.76155 0.0
H1662 H 0.58066 0.21918 0.7615 0.0
C1663 C 0.52347 0.32989 0.76179 0.0
H1664 H 0.62269 0.28672 0.76111 0.0
C1665 C 0.49805 0.28882 0.7616 0.0
C1666 C 0.51536 0.24497 0.76154 0.0
H1667 H 0.50516 0.35954 0.76195 0.0
H1668 H 0.46311 0.29199 0.76154 0.0
C1669 C 0.56235 0.24883 0.76154 0.0
C1670 C 0.08448 0.30886 1.01151 0.0
C1671 C 0.08808 0.26222 1.01154 0.0
H1672 H 0.04657 0.3691 1.01102 0.0
C1673 C 0.04391 0.24537 1.01161 0.0
H1674 H 0.11443 0.32672 1.01145 0.0
C1675 C 1.0027 0.27096 1.01179 0.0
C1676 C 0.9991 0.3176 1.01151 0.0
H1677 H 1.04061 0.21071 1.01158 0.0
H1678 H 0.97275 0.2531 1.01198 0.0
C1679 C 0.04327 0.33444 1.01131 0.0
C1680 C 0.08769 0.78958 0.76142 0.0
C1681 C 0.07048 0.74581 0.7617 0.0
H1682 H 0.08038 0.86029 0.76148 0.0
C1683 C 1.0235 0.74976 0.76205 0.0
H1684 H 0.12261 0.79265 0.76108 0.0
C1685 C 0.99797 0.79087 0.76186 0.0
C1686 C 1.01519 0.83465 0.76171 0.0
H1687 H 1.0053 0.72016 0.76231 0.0
H1688 H 0.96304 0.7878 0.7619 0.0
C1689 C 0.06217 0.83069 0.76161 0.0
C1690 C 0.04381 0.24606 0.51163 0.0
C1691 C 0.99954 0.2629 0.51136 0.0
H1692 H 0.11493 0.25377 0.51219 0.0
C1693 C 1.00295 0.30955 0.51112 0.0
H1694 H 0.04729 0.2114 0.51178 0.0
C1695 C 0.04406 0.33511 0.51093 0.0
C1696 C 0.08832 0.31828 0.51133 0.0
H1697 H 0.97293 0.32743 0.5109 0.0
H1698 H 1.04059 0.36975 0.51049 0.0
C1699 C 0.0849 0.27165 0.51181 0.0
C1700 C 0.52399 0.24983 0.26147 0.0
C1701 C 0.57097 0.24586 0.26174 0.0
H1702 H 0.4636 0.28792 0.26078 0.0
C1703 C 0.5882 0.28963 0.26203 0.0
H1704 H 0.50577 0.22024 0.26121 0.0
C1705 C 0.56269 0.33075 0.26219 0.0
C1706 C 0.51573 0.33472 0.26167 0.0
H1707 H 0.62313 0.29268 0.2622 0.0
H1708 H 0.58089 0.36033 0.26259 0.0
C1709 C 0.49851 0.29096 0.26126 0.0
C1710 C 0.54376 0.83441 1.01133 0.0
C1711 C 0.58803 0.81751 1.01138 0.0
H1712 H 0.4726 0.82684 1.01158 0.0
C1713 C 0.58452 0.77086 1.01148 0.0
H1714 H 0.54032 0.86907 1.01119 0.0
C1715 C 0.54336 0.74534 1.01128 0.0
C1716 C 0.49909 0.76223 1.01136 0.0
H1717 H 0.61452 0.75291 1.01153 0.0
H1718 H 0.5468 0.71068 1.01112 0.0
C1719 C 0.5026 0.80889 1.01151 0.0
C1720 C 0.08821 0.29076 0.89729 0.0
C1721 C 0.07094 0.33462 0.89767 0.0
H1722 H 0.08102 0.22008 0.89666 0.0
C1723 C 1.02397 0.33078 0.89801 0.0
H1724 H 0.12315 0.28757 0.89706 0.0
C1725 C 0.99854 0.28973 0.89821 0.0
C1726 C 1.01579 0.24589 0.89771 0.0
H1727 H 1.0057 0.36042 0.89834 0.0
H1728 H 0.96362 0.29292 0.89875 0.0
C1729 C 0.06275 0.24972 0.89712 0.0
C1730 C 0.5024 0.27122 0.64744 0.0
C1731 C 0.49881 0.31787 0.64745 0.0
H1732 H 0.54028 0.21095 0.64787 0.0
C1733 C 0.543 0.33469 0.6474 0.0
H1734 H 0.47244 0.25337 0.64746 0.0
C1735 C 0.5842 0.30907 0.64722 0.0
C1736 C 0.58779 0.26242 0.64746 0.0
H1737 H 0.54632 0.36935 0.64744 0.0
H1738 H 0.61416 0.32691 0.64704 0.0
C1739 C 0.54361 0.2456 0.64763 0.0
C1740 C 0.52464 0.83109 0.3975 0.0
C1741 C 0.57163 0.8349 0.39769 0.0
H1742 H 0.46424 0.79326 0.39776 0.0
C1743 C 0.58889 0.79103 0.39781 0.0
H1744 H 0.50636 0.86076 0.39739 0.0
C1745 C 0.56344 0.74999 0.3976 0.0
C1746 C 0.51644 0.74618 0.39765 0.0
H1747 H 0.62382 0.78782 0.39802 0.0
H1748 H 0.58172 0.72032 0.39759 0.0
C1749 C 0.49918 0.79005 0.39766 0.0
C1750 C 1.00254 0.77119 0.14781 0.0
C1751 C 0.99893 0.81783 0.14757 0.0
H1752 H 1.04047 0.71098 0.14846 0.0
C1753 C 1.0431 0.83467 0.14731 0.0
H1754 H 0.9726 0.75333 0.14804 0.0
C1755 C 0.08432 0.80908 0.14714 0.0
C1756 C 0.08793 0.76244 0.14762 0.0
H1757 H 0.0464 0.86933 0.14717 0.0
H1758 H 0.11426 0.82693 0.14678 0.0
C1759 C 0.04376 0.74562 0.14801 0.0
C1760 C 0.31791 0.28683 0.34276 0.0
C1761 C 0.28605 0.25593 0.33977 0.0
H1762 H 0.35054 0.34286 0.33459 0.0
C1763 C 0.26249 0.25728 0.326 0.0
H1764 H 0.33577 0.2867 0.35348 0.0
C1765 C 0.27061 0.28943 0.31532 0.0
C1766 C 0.3024 0.32039 0.31833 0.0
H1767 H 0.23787 0.23347 0.32353 0.0
H1768 H 0.25268 0.28963 0.30462 0.0
C1769 C 0.32601 0.31898 0.33209 0.0
C1770 C 1.03423 1.01447 0.56804 0.0
C1771 C 1.00363 0.04689 0.57088 0.0
H1772 H 0.09006 0.98122 0.57633 0.0
C1773 C 1.00496 0.07047 0.58462 0.0
H1774 H 1.03415 0.99662 0.55733 0.0
C1775 C 1.03695 0.06191 0.59541 0.0
C1776 C 0.06778 1.02972 0.5925 0.0
H1777 H 0.98142 0.0956 0.58695 0.0
H1778 H 1.03728 0.07999 0.60606 0.0
C1779 C 0.06624 1.00599 0.57879 0.0
C1780 C 0.32432 0.823 0.82594 0.0
C1781 C 0.3007 0.82448 0.83973 0.0
H1782 H 0.33408 0.79056 0.80454 0.0
C1783 C 0.26865 0.79377 0.84273 0.0
H1784 H 0.34911 0.84666 0.82346 0.0
C1785 C 0.26043 0.76165 0.83205 0.0
C1786 C 0.28412 0.76009 0.81828 0.0
H1787 H 0.25074 0.79401 0.85346 0.0
H1788 H 0.23577 0.7379 0.83458 0.0
C1789 C 0.31609 0.79088 0.81526 0.0
C1790 C 0.50488 0.06862 1.07444 0.0
C1791 C 0.50303 0.04533 0.08823 0.0
H1792 H 0.53855 0.07829 1.05323 0.0
C1793 C 0.53397 1.01351 0.09138 0.0
H1794 H 0.48109 0.09332 1.07188 0.0
C1795 C 0.5669 1.0054 0.0809 0.0
C1796 C 0.569 1.02892 1.06716 0.0
H1797 H 0.53347 0.99593 0.10214 0.0
H1798 H 0.59096 0.98108 0.08358 0.0
C1799 C 0.53779 0.06044 1.06393 0.0
C1800 C 0.2698 0.78862 0.34312 0.0
C1801 C 0.30191 0.75771 0.34022 0.0
H1802 H 0.2368 0.84435 0.33476 0.0
C1803 C 0.32567 0.75881 0.32646 0.0
H1804 H 0.25177 0.78865 0.35383 0.0
C1805 C 0.31747 0.79069 0.31569 0.0
C1806 C 0.28537 0.82161 0.31859 0.0
H1807 H 0.35049 0.73497 0.32405 0.0
H1808 H 0.33551 0.79067 0.30498 0.0
C1809 C 0.2616 0.8205 0.33235 0.0
C1810 C 0.54659 1.01644 0.59319 0.0
C1811 C 0.57729 0.04816 0.58976 0.0
H1812 H 0.48959 0.98365 0.58577 0.0
C1813 C 0.57445 0.07149 0.576 0.0
H1814 H 0.54785 0.99878 0.60392 0.0
C1815 C 0.54106 0.06323 0.56576 0.0
C1816 C 0.51034 1.03152 0.56919 0.0
H1817 H 0.59805 0.09604 0.57319 0.0
H1818 H 0.53978 0.0809 0.55503 0.0
C1819 C 0.5132 1.00818 0.58295 0.0
C1820 C 0.32587 0.26144 0.83207 0.0
C1821 C 0.30215 0.25978 0.81834 0.0
H1822 H 0.3357 0.29419 0.85337 0.0
C1823 C 0.2703 0.29079 0.81528 0.0
H1824 H 0.35047 0.23753 0.83462 0.0
C1825 C 0.2622 0.32322 0.82588 0.0
C1826 C 0.28584 0.3248 0.83962 0.0
H1827 H 0.2523 0.29039 0.80459 0.0
H1828 H 0.23748 0.34703 0.82337 0.0
C1829 C 0.31779 0.29388 0.84266 0.0
C1830 C 0.04548 1.01609 1.06589 0.0
C1831 C 0.07646 0.04784 1.06889 0.0
H1832 H 0.98926 0.98336 1.07411 0.0
C1833 C 0.07504 0.0712 0.08268 0.0
H1834 H 0.04568 0.99837 1.05516 0.0
C1835 C 1.04274 0.06298 0.09339 0.0
C1836 C 1.01172 1.03127 0.09039 0.0
H1837 H 0.09893 0.09574 0.08516 0.0
H1838 H 1.04251 0.08073 0.10412 0.0
C1839 C 1.01318 1.00786 1.0766 0.0
C1840 C 0.76067 0.76163 0.82708 0.0
C1841 C 0.78435 0.75968 0.84081 0.0
H1842 H 0.75083 0.79472 0.80585 0.0
C1843 C 0.81617 0.79051 0.84395 0.0
H1844 H 0.73611 0.73787 0.82447 0.0
C1845 C 0.82426 0.82306 0.83342 0.0
C1846 C 0.80063 0.82494 0.81967 0.0
H1847 H 0.83415 0.7899 0.85464 0.0
H1848 H 0.84894 0.84674 0.83599 0.0
C1849 C 0.76873 0.79419 0.81656 0.0
C1850 C 0.82527 0.32112 0.32626 0.0
C1851 C 0.80171 0.32291 0.34005 0.0
H1852 H 0.83499 0.28818 0.30496 0.0
C1853 C 0.76987 0.29209 0.34321 0.0
H1854 H 0.84988 0.34487 0.32366 0.0
C1855 C 0.76173 0.25963 0.33265 0.0
C1856 C 0.7853 0.25784 0.31886 0.0
H1857 H 0.75201 0.29256 0.35395 0.0
H1858 H 0.73713 0.23588 0.33526 0.0
C1859 C 0.81713 0.28867 0.3157 0.0
C1860 C 0.76232 0.32423 0.8333 0.0
C1861 C 0.78609 0.32501 0.81954 0.0
H1862 H 0.75245 0.29281 0.85487 0.0
C1863 C 0.81838 0.2942 0.81677 0.0
H1864 H 0.73736 0.34799 0.8356 0.0
C1865 C 0.82663 0.26261 0.82765 0.0
C1866 C 0.80275 0.2617 0.84138 0.0
H1867 H 0.8364 0.29391 0.80607 0.0
H1868 H 0.85142 0.23871 0.82529 0.0
C1869 C 0.7706 0.29265 0.84419 0.0
C1870 C 0.7624 0.82238 0.32635 0.0
C1871 C 0.78616 0.82318 0.34008 0.0
H1872 H 0.75244 0.79087 0.30481 0.0
C1873 C 0.81824 0.7922 0.34284 0.0
H1874 H 0.73761 0.84629 0.32405 0.0
C1875 C 0.82637 0.76048 0.33198 0.0
C1876 C 0.80255 0.75962 0.31826 0.0
H1877 H 0.83628 0.79194 0.35352 0.0
H1878 H 0.85109 0.73652 0.3343 0.0
C1879 C 0.77053 0.79067 0.31548 0.0
C1880 C 0.57268 0.50675 1.07699 0.0
C1881 C 0.57366 0.5303 0.09075 0.0
H1882 H 0.54105 0.49732 1.05543 0.0
C1883 C 0.54258 0.56226 0.0936 0.0
H1884 H 0.59666 0.48206 1.07462 0.0
C1885 C 0.51075 0.57065 0.08276 0.0
C1886 C 0.50986 0.5472 1.06898 0.0
H1887 H 0.54245 0.58015 0.1043 0.0
H1888 H 0.48684 0.59542 0.08511 0.0
C1889 C 0.54085 0.51513 1.06615 0.0
C1890 C 1.01087 0.5699 0.57656 0.0
C1891 C 1.00933 0.54638 0.5903 0.0
H1892 H 0.04377 0.57972 0.55522 0.0
C1893 C 1.04026 0.51439 0.59326 0.0
H1894 H 0.98701 0.5946 0.5741 0.0
C1895 C 0.07275 0.50622 0.5826 0.0
C1896 C 0.07445 0.52995 0.5689 0.0
H1897 H 1.03995 0.49652 0.60396 0.0
H1898 H 0.09668 0.48159 0.58507 0.0
C1899 C 0.04337 0.56176 0.5659 0.0
C1900 C 0.07431 0.57151 1.07683 0.0
C1901 C 0.07531 0.54805 0.0906 0.0
H1902 H 1.04269 0.58096 1.05526 0.0
C1903 C 0.04446 0.516 0.0934 0.0
H1904 H 0.09813 0.59624 1.07448 0.0
C1905 C 1.01274 0.50758 0.08253 0.0
C1906 C 1.01171 0.53109 1.06877 0.0
H1907 H 0.04434 0.49815 0.1041 0.0
H1908 H 0.98892 0.48286 0.08487 0.0
C1909 C 1.04258 0.5631 1.06596 0.0
C1910 C 0.50829 0.51038 0.57522 0.0
C1911 C 0.50573 0.53369 0.589 0.0
H1912 H 0.5428 0.50073 0.55417 0.0
C1913 C 0.53645 0.56543 0.59233 0.0
H1914 H 0.48466 0.48578 0.5725 0.0
C1915 C 0.56977 0.57354 0.58202 0.0
C1916 C 0.5725 0.55005 0.56827 0.0
H1917 H 0.53541 0.58306 0.60309 0.0
H1918 H 0.59355 0.59793 0.5848 0.0
C1919 C 0.54159 0.51852 0.56489 0.0
C1920 C 0.21885 1.02565 0.45905 0.0
C1921 C 0.22109 1.02374 0.44215 0.0
H1922 H 0.23794 1.00586 0.48259 0.0
C1923 C 0.25369 0.99148 0.43854 0.0
H1924 H 0.19565 0.04804 0.46385 0.0
C1925 C 0.2793 0.96577 0.45004 0.0
C1926 C 0.27708 0.96772 0.46693 0.0
H1927 H 0.25977 0.98513 0.42649 0.0
H1928 H 0.30193 0.94279 0.44524 0.0
C1929 C 0.24454 1.00003 0.47054 0.0
C1930 C 0.36757 1.02527 0.70009 0.0
C1931 C 0.3657 1.02337 0.71699 0.0
H1932 H 0.34811 1.0054 0.67659 0.0
C1933 C 0.33343 0.99106 0.72068 0.0
H1934 H 0.39049 0.04771 0.69522 0.0
C1935 C 0.30777 0.96528 0.70925 0.0
C1936 C 0.3096 0.9672 0.69235 0.0
H1937 H 0.32766 0.98471 0.73274 0.0
H1938 H 0.28543 0.94228 0.71411 0.0
C1939 C 0.34182 0.99957 0.68866 0.0
C1940 C 0.30832 0.11405 0.94998 0.0
C1941 C 0.31026 0.11209 0.96687 0.0
H1942 H 0.32816 0.09455 0.92646 0.0
C1943 C 0.34253 0.07962 0.97052 0.0
H1944 H 0.28591 0.13714 0.94517 0.0
C1945 C 0.36825 0.05384 0.95905 0.0
C1946 C 0.36629 0.05579 0.94216 0.0
H1947 H 0.34885 0.07378 0.98258 0.0
H1948 H 0.39124 1.03132 0.96386 0.0
C1949 C 0.33397 0.0882 0.93851 0.0
C1950 C 0.2191 0.05396 0.19998 0.0
C1951 C 0.22105 0.05567 0.21688 0.0
H1952 H 0.23853 0.07402 0.17649 0.0
C1953 C 0.25346 0.08782 0.22058 0.0
H1954 H 0.19607 1.03167 0.19512 0.0
C1955 C 0.27916 0.11363 0.20915 0.0
C1956 C 0.27722 0.11189 0.19225 0.0
H1957 H 0.25929 0.094 0.23264 0.0
H1958 H 0.30162 0.13651 0.214 0.0
C1959 C 0.24488 0.07968 0.18856 0.0
C1960 C 0.83304 0.08859 0.72059 0.0
C1961 C 0.86558 0.05629 0.71697 0.0
H1962 H 0.78488 0.13737 0.71391 0.0
C1963 C 0.86779 0.05437 0.70007 0.0
H1964 H 0.827 0.09495 0.73264 0.0
C1965 C 0.84212 0.08003 0.68859 0.0
C1966 C 0.80964 0.1124 0.69221 0.0
H1967 H 0.89096 1.03195 0.69526 0.0
H1968 H 0.84868 0.0742 0.67653 0.0
C1969 C 0.80746 0.11435 0.7091 0.0
C1970 C 0.77961 0.11457 0.44992 0.0
C1971 C 0.77775 0.11273 0.46682 0.0
H1972 H 0.7597 0.09504 0.42643 0.0
C1973 C 0.74546 0.08045 0.47052 0.0
H1974 H 0.802 0.13752 0.44505 0.0
C1975 C 0.71967 0.05475 0.45911 0.0
C1976 C 0.72156 0.05654 0.44221 0.0
H1977 H 0.73913 0.07472 0.48259 0.0
H1978 H 0.69668 1.03241 0.46399 0.0
C1979 C 0.75392 0.08877 0.4385 0.0
C1980 C 0.77882 0.96601 0.20915 0.0
C1981 C 0.77674 0.96792 0.19227 0.0
H1982 H 0.7591 0.98551 0.23269 0.0
C1983 C 0.74434 1.00027 0.18864 0.0
H1984 H 0.80133 0.94299 0.21395 0.0
C1985 C 0.7186 1.02599 0.20013 0.0
C1986 C 0.72071 1.02411 0.21702 0.0
H1987 H 0.73788 1.00604 0.17659 0.0
H1988 H 0.69548 0.0484 0.19533 0.0
C1989 C 0.75318 0.99182 0.22064 0.0
C1990 C 0.84242 0.99992 0.97054 0.0
C1991 C 0.81024 0.96754 0.96686 0.0
H1992 H 0.89106 0.04809 0.96396 0.0
C1993 C 0.8084 0.96568 0.94995 0.0
H1994 H 0.8487 1.00568 0.9826 0.0
C1995 C 0.83403 0.99154 0.93852 0.0
C1996 C 0.86628 1.02386 0.9422 0.0
H1997 H 0.78609 0.94267 0.9451 0.0
H1998 H 0.82829 0.98525 0.92646 0.0
C1999 C 0.86815 1.02567 0.9591 0.0
C2000 C 0.75314 0.491 0.93853 0.0
C2001 C 0.7209 0.52356 0.94217 0.0
H2002 H 0.80109 0.44204 0.94518 0.0
C2003 C 0.71903 0.52576 0.95907 0.0
H2004 H 0.75888 0.48443 0.92648 0.0
C2005 C 0.74475 0.5001 0.97054 0.0
C2006 C 0.77693 0.46748 0.96689 0.0
H2007 H 0.69612 0.54842 0.96389 0.0
H2008 H 0.73848 0.50617 0.98259 0.0
C2009 C 0.77877 0.46526 0.95 0.0
C2010 C 0.84222 0.49971 0.18847 0.0
C2011 C 0.81015 0.46721 0.19217 0.0
H2012 H 0.89078 0.54797 0.19501 0.0
C2013 C 0.80845 0.46522 0.20907 0.0
H2014 H 0.84839 0.50561 0.1764 0.0
C2015 C 0.83412 0.49104 0.22049 0.0
C2016 C 0.86626 0.52347 0.21679 0.0
H2017 H 0.78623 0.44212 0.21395 0.0
H2018 H 0.82848 0.48462 0.23256 0.0
C2019 C 0.86797 0.52544 0.19988 0.0
C2020 C 0.86859 0.55422 0.45898 0.0
C2021 C 0.86634 0.55599 0.44209 0.0
H2022 H 0.84945 0.57417 0.48253 0.0
C2023 C 0.83365 0.58812 0.4385 0.0
H2024 H 0.89186 0.53194 0.46377 0.0
C2025 C 0.80798 0.61385 0.45001 0.0
C2026 C 0.81021 0.61205 0.4669 0.0
H2027 H 0.82756 0.59434 0.42645 0.0
H2028 H 0.78528 0.63672 0.44522 0.0
C2029 C 0.84284 0.57987 0.47049 0.0
C2030 C 0.75251 0.58774 0.72072 0.0
C2031 C 0.72012 0.55557 0.71703 0.0
H2032 H 0.80064 0.63646 0.71416 0.0
C2033 C 0.71818 0.55389 0.70013 0.0
H2034 H 0.75834 0.59391 0.73279 0.0
C2035 C 0.74396 0.57964 0.6887 0.0
C2036 C 0.77628 0.61187 0.6924 0.0
H2037 H 0.69516 0.53159 0.69526 0.0
H2038 H 0.7376 0.57399 0.67664 0.0
C2039 C 0.7782 0.61358 0.7093 0.0
C2040 C 0.33406 0.58917 0.22062 0.0
C2041 C 0.36618 0.55649 0.21698 0.0
H2042 H 0.28626 0.63828 0.21398 0.0
C2043 C 0.36795 0.5542 0.20008 0.0
H2044 H 0.32841 0.59584 0.23268 0.0
C2045 C 0.34224 0.57988 0.18862 0.0
C2046 C 0.31019 0.61264 0.19226 0.0
H2047 H 0.39076 0.53146 0.19526 0.0
H2048 H 0.34843 0.57374 0.17656 0.0
C2049 C 0.30846 0.61495 0.20916 0.0
C2050 C 0.24475 0.57981 0.97057 0.0
C2051 C 0.27684 0.61231 0.96687 0.0
H2052 H 0.19612 0.53161 0.96402 0.0
C2053 C 0.27852 0.61433 0.94997 0.0
H2054 H 0.23857 0.5739 0.98264 0.0
C2055 C 0.25285 0.58855 0.93855 0.0
C2056 C 0.22069 0.55612 0.94224 0.0
H2057 H 0.30074 0.63745 0.9451 0.0
H2058 H 0.25849 0.59499 0.92648 0.0
C2059 C 0.21897 0.55412 0.95915 0.0
C2060 C 0.24416 0.50014 0.68863 0.0
C2061 C 0.27661 0.46782 0.69225 0.0
H2062 H 0.19523 0.5482 0.69531 0.0
C2063 C 0.27865 0.4659 0.70914 0.0
H2064 H 0.23772 0.50593 0.67658 0.0
C2065 C 0.25295 0.49167 0.72063 0.0
C2066 C 0.22043 0.52393 0.71701 0.0
H2067 H 0.3012 0.44291 0.71394 0.0
H2068 H 0.25886 0.48536 0.73268 0.0
C2069 C 0.21837 0.52581 0.70012 0.0
C2070 C 0.343 0.50037 0.4705 0.0
C2071 C 0.31045 0.46836 0.46681 0.0
H2072 H 0.39202 0.54817 0.46392 0.0
C2073 C 0.30832 0.46679 0.44992 0.0
H2074 H 0.34953 0.50587 0.48256 0.0
C2075 C 0.33403 0.49257 0.43848 0.0
C2076 C 0.36665 0.52451 0.44217 0.0
H2077 H 0.2857 0.44407 0.44507 0.0
H2078 H 0.32803 0.48654 0.42642 0.0
C2079 C 0.3688 0.52606 0.45907 0.0
C2080 C 0.14112 1.01125 0.34181 0.0
C2081 C 0.14116 0.05584 0.34669 0.0
H2082 H 0.14198 0.96153 0.32379 0.0
C2083 C 0.14119 0.08309 0.33319 0.0
H2084 H 0.1412 0.98698 0.35073 0.0
C2085 C 0.14059 0.0678 0.31703 0.0
C2086 C 0.14101 1.02321 0.31215 0.0
H2087 H 0.14125 0.11753 0.33505 0.0
H2088 H 0.14024 0.09207 0.30811 0.0
C2089 C 0.14159 0.99597 0.32565 0.0
C2090 C 0.32145 0.88598 0.59209 0.0
C2091 C 0.27663 0.88723 0.59707 0.0
H2092 H 0.37127 0.88588 0.57395 0.0
C2093 C 0.24899 0.88849 0.58364 0.0
H2094 H 0.34602 0.88505 0.60095 0.0
C2095 C 0.26413 0.88793 0.56744 0.0
C2096 C 0.30897 0.88715 0.56246 0.0
H2097 H 0.21434 0.88952 0.58558 0.0
H2098 H 0.23956 0.8886 0.55857 0.0
C2099 C 0.33661 0.88648 0.57589 0.0
C2100 C 0.44617 1.01122 0.81713 0.0
C2101 C 0.446 0.0558 0.81226 0.0
H2102 H 0.44543 0.96155 0.83515 0.0
C2103 C 0.44586 0.08309 0.82576 0.0
H2104 H 0.44619 0.98693 0.80821 0.0
C2105 C 0.44648 0.06784 0.84192 0.0
C2106 C 0.44619 1.02326 0.84679 0.0
H2107 H 0.4457 0.11752 0.8239 0.0
H2108 H 0.44673 0.09212 0.85084 0.0
C2109 C 0.44572 0.99598 0.83329 0.0
C2110 C 0.24977 0.1916 1.07575 0.0
C2111 C 0.27746 0.19246 1.06229 0.0
H2112 H 0.24026 0.1918 0.10082 0.0
C2113 C 0.32227 0.19329 1.06723 0.0
H2114 H 0.21513 0.19088 1.07384 0.0
C2115 C 0.33738 0.19281 0.08341 0.0
C2116 C 0.30969 0.19255 0.09687 0.0
H2117 H 0.34688 0.19388 1.05834 0.0
H2118 H 0.37204 0.19308 0.08532 0.0
C2119 C 0.26486 0.19215 0.09193 0.0
C2120 C 0.9463 0.99694 0.82589 0.0
C2121 C 0.94584 1.0242 0.8124 0.0
H2122 H 0.94764 0.98791 0.85096 0.0
C2123 C 0.94535 0.06879 0.81728 0.0
H2124 H 0.94666 0.9625 0.82402 0.0
C2125 C 0.94485 0.08403 0.83345 0.0
C2126 C 0.94593 0.05677 0.84694 0.0
H2127 H 0.94486 0.09307 0.80837 0.0
H2128 H 0.94404 0.11846 0.83533 0.0
C2129 C 0.94688 1.01219 0.84205 0.0
C2130 C 0.7501 0.19305 0.58332 0.0
C2131 C 0.77773 0.19324 0.59675 0.0
H2132 H 0.74071 0.1938 0.55826 0.0
C2133 C 0.82258 0.19341 0.59179 0.0
H2134 H 0.71543 0.19287 0.58525 0.0
C2135 C 0.83775 0.19295 0.57559 0.0
C2136 C 0.81011 0.19334 0.56216 0.0
H2137 H 0.84714 0.19344 0.60066 0.0
H2138 H 0.87242 0.19268 0.57365 0.0
C2139 C 0.76527 0.19361 0.56712 0.0
C2140 C 0.64055 0.06852 0.34213 0.0
C2141 C 0.64125 1.02395 0.347 0.0
H2142 H 0.64081 0.11822 0.32412 0.0
C2143 C 0.64191 0.99667 0.3335 0.0
H2144 H 0.64011 0.09281 0.35106 0.0
C2145 C 0.64127 1.01192 0.31734 0.0
C2146 C 0.64102 0.05651 0.31247 0.0
H2147 H 0.6425 0.96224 0.33535 0.0
H2148 H 0.64144 0.98764 0.30841 0.0
C2149 C 0.64097 0.08378 0.32597 0.0
C2150 C 0.76468 0.88727 0.09184 0.0
C2151 C 0.8095 0.88752 0.09679 0.0
H2152 H 0.71495 0.88795 1.07374 0.0
C2153 C 0.83721 0.88778 0.08334 0.0
H2154 H 0.74005 0.88716 0.10072 0.0
C2155 C 0.82214 0.8872 1.06715 0.0
C2156 C 0.77732 0.88741 1.0622 0.0
H2157 H 0.87186 0.88801 0.08525 0.0
H2158 H 0.84677 0.88704 1.05827 0.0
C2159 C 0.74961 0.88775 1.07565 0.0
C2160 C 0.64016 0.51089 0.84199 0.0
C2161 C 0.64055 0.55548 0.84686 0.0
H2162 H 0.64072 0.46116 0.82396 0.0
C2163 C 0.64094 0.58272 0.83337 0.0
H2164 H 0.63995 0.48662 0.85091 0.0
C2165 C 0.64033 0.56744 0.81721 0.0
C2166 C 0.6404 0.52285 0.81233 0.0
H2167 H 0.64128 0.61716 0.83523 0.0
H2168 H 0.64026 0.59171 0.80829 0.0
C2169 C 0.64063 0.4956 0.82583 0.0
C2170 C 0.83725 0.38766 1.07571 0.0
C2171 C 0.80958 0.38751 1.06229 0.0
H2172 H 0.84671 0.3868 0.10077 0.0
C2173 C 0.76474 0.38735 1.06727 0.0
H2174 H 0.87191 0.3878 1.07376 0.0
C2175 C 0.74961 0.38783 0.08347 0.0
C2176 C 0.77729 0.38737 0.09689 0.0
H2177 H 0.74015 0.38733 1.05841 0.0
H2178 H 0.71495 0.38812 0.08542 0.0
C2179 C 0.82212 0.38706 0.09191 0.0
C2180 C 0.94561 0.56817 0.34165 0.0
C2181 C 0.94633 0.5236 0.34653 0.0
H2182 H 0.94406 0.61781 0.32362 0.0
C2183 C 0.94695 0.49631 0.33303 0.0
H2184 H 0.94499 0.59247 0.35057 0.0
C2185 C 0.94748 0.51156 0.31687 0.0
C2186 C 0.9463 0.55612 0.31199 0.0
H2187 H 0.94751 0.46188 0.33489 0.0
H2188 H 0.94839 0.48726 0.30795 0.0
C2189 C 0.94506 0.58339 0.32549 0.0
C2190 C 0.74969 0.69225 0.57586 0.0
C2191 C 0.77744 0.6924 0.56242 0.0
H2192 H 0.74005 0.69299 0.60093 0.0
C2193 C 0.82224 0.69243 0.56738 0.0
H2194 H 0.71504 0.69218 0.57393 0.0
C2195 C 0.83726 0.69186 0.58358 0.0
C2196 C 0.8095 0.69231 0.59703 0.0
H2197 H 0.8469 0.69243 0.55851 0.0
H2198 H 0.87191 0.69149 0.58551 0.0
C2199 C 0.7647 0.69273 0.59206 0.0
C2200 C 0.44609 0.51244 0.34195 0.0
C2201 C 0.44643 0.55703 0.34683 0.0
H2202 H 0.44479 0.46273 0.32393 0.0
C2203 C 0.44662 0.58428 0.33333 0.0
H2204 H 0.44582 0.48818 0.35088 0.0
C2205 C 0.44708 0.56897 0.31717 0.0
C2206 C 0.44627 0.52439 0.3123 0.0
H2207 H 0.44686 0.61872 0.33519 0.0
H2208 H 0.44764 0.59323 0.30824 0.0
C2209 C 0.44548 0.49716 0.32579 0.0
C2210 C 0.33738 0.69211 1.07564 0.0
C2211 C 0.30971 0.69223 1.06222 0.0
H2212 H 0.34682 0.69293 0.1007 0.0
C2213 C 0.26487 0.69226 1.0672 0.0
H2214 H 0.37204 0.69206 1.07369 0.0
C2215 C 0.24974 0.69171 0.0834 0.0
C2216 C 0.2774 0.6922 0.09682 0.0
H2217 H 0.24029 0.69224 1.05834 0.0
H2218 H 0.21508 0.69134 0.08535 0.0
C2219 C 0.32224 0.69263 0.09184 0.0
C2220 C 0.14086 0.58374 0.82592 0.0
C2221 C 0.14028 0.55647 0.81241 0.0
H2222 H 0.14041 0.59278 0.851 0.0
C2223 C 0.13976 0.51189 0.81728 0.0
H2224 H 0.14131 0.61817 0.82406 0.0
C2225 C 0.14029 0.49664 0.83345 0.0
C2226 C 0.14026 0.52391 0.84695 0.0
H2227 H 0.1394 0.48761 0.80836 0.0
H2228 H 0.14028 0.4622 0.8353 0.0
C2229 C 0.14032 0.56849 0.84208 0.0
C2230 C 0.24964 0.38837 0.57555 0.0
C2231 C 0.2774 0.38756 0.56211 0.0
H2232 H 0.23999 0.38811 0.60061 0.0
C2233 C 0.3222 0.38674 0.56707 0.0
H2234 H 0.215 0.38908 0.57361 0.0
C2235 C 0.33721 0.38718 0.58326 0.0
C2236 C 0.30944 0.38741 0.5967 0.0
H2237 H 0.34685 0.38618 0.5582 0.0
H2238 H 0.37186 0.38693 0.5852 0.0
C2239 C 0.26465 0.38779 0.59174 0.0
loop_
_geom_bond_atom_site_label_1
_geom_bond_atom_site_label_2
_geom_bond_distance
_geom_bond_site_symmetry_2
_ccdc_geom_bond_type
Nd0 C2 2.836 . S
Nd0 O20 2.500 1_455 S
Nd0 O21 2.492 . S
Nd0 O22 2.487 . S
Nd0 O23 2.682 . S
Nd0 O24 2.410 . S
Nd0 O29 2.414 . S
Nd0 O31 2.424 . S
Nd1 C11 2.836 . S
Nd1 O23 2.414 . S
Nd1 O25 2.424 . S
Nd1 O26 2.500 . S
Nd1 O27 2.492 . S
Nd1 O28 2.487 . S
Nd1 O29 2.682 . S
Nd1 O30 2.410 . S
C2 Nd0 2.836 . S
C2 C3 1.498 1_455 S
C2 O20 1.258 1_455 S
C2 O21 1.239 . S
C3 C2 1.498 1_655 S
C3 C4 1.366 . S
C3 C8 1.407 . S
C4 C3 1.366 . S
C4 C5 1.392 . S
C4 H32 0.930 . S
C5 C4 1.392 . S
C5 C6 1.398 . S
C5 H33 0.929 . S
C6 C5 1.398 . S
C6 C7 1.352 . S
C7 C6 1.352 . S
C7 C8 1.384 . S
C7 H34 0.930 . S
C8 C3 1.407 . S
C8 C7 1.384 . S
C8 H35 0.929 . S
C9 O22 1.241 . S
C9 O23 1.273 . S
C10 O24 1.251 . S
C10 O25 1.268 . S
C11 Nd1 2.836 . S
C11 C12 1.498 . S
C11 O26 1.258 . S
C11 O27 1.239 . S
C12 C11 1.498 . S
C12 C13 1.366 . S
C12 C17 1.407 . S
C13 C12 1.366 . S
C13 C14 1.392 . S
C13 H36 0.930 . S
C14 C13 1.392 . S
C14 C15 1.398 . S
C14 H37 0.929 . S
C15 C14 1.398 . S
C15 C16 1.352 . S
C16 C15 1.352 . S
C16 C17 1.384 . S
C16 H38 0.930 . S
C17 C12 1.407 . S
C17 C16 1.384 . S
C17 H39 0.929 . S
C18 O28 1.241 . S
C18 O29 1.273 . S
C19 O30 1.251 . S
C19 O31 1.268 . S
O20 Nd0 2.500 1_655 S
O20 C2 1.258 1_655 S
O21 Nd0 2.492 . S
O21 C2 1.239 . S
O22 Nd0 2.487 . S
O22 C9 1.241 . S
O23 Nd0 2.682 . S
O23 Nd1 2.414 . S
O23 C9 1.273 . S
O24 Nd0 2.410 . S
O24 C10 1.251 . S
O25 Nd1 2.424 . S
O25 C10 1.268 . S
O26 Nd1 2.500 . S
O26 C11 1.258 . S
O27 Nd1 2.492 . S
O27 C11 1.239 . S
O28 Nd1 2.487 . S
O28 C18 1.241 . S
O29 Nd0 2.414 . S
O29 Nd1 2.682 . S
O29 C18 1.273 . S
O30 Nd1 2.410 . S
O30 C19 1.251 . S
O31 Nd0 2.424 . S
O31 C19 1.268 . S
H32 C4 0.930 . S
H33 C5 0.929 . S
H34 C7 0.930 . S
H35 C8 0.929 . S
H36 C13 0.930 . S
H37 C14 0.929 . S
H38 C16 0.930 . S
H39 C17 0.929 . S
Nd40 C42 2.836 . S
Nd40 O60 2.500 . S
Nd40 O61 2.492 . S
Nd40 O62 2.487 . S
Nd40 O63 2.682 . S
Nd40 O64 2.410 . S
Nd40 O69 2.414 . S
Nd40 O71 2.424 . S
Nd41 C51 2.836 . S
Nd41 O63 2.414 . S
Nd41 O65 2.424 . S
Nd41 O66 2.500 . S
Nd41 O67 2.492 . S
Nd41 O68 2.487 . S
Nd41 O69 2.682 . S
Nd41 O70 2.410 . S
C42 Nd40 2.836 . S
C42 C43 1.498 . S
C42 O60 1.258 . S
C42 O61 1.239 . S
C43 C42 1.498 . S
C43 C44 1.366 . S
C43 C48 1.407 . S
C44 C43 1.366 . S
C44 C45 1.392 . S
C44 H72 0.930 . S
C45 C44 1.392 . S
C45 C46 1.398 . S
C45 H73 0.929 . S
C46 C45 1.398 . S
C46 C47 1.352 . S
C47 C46 1.352 . S
C47 C48 1.384 . S
C47 H74 0.930 . S
C48 C43 1.407 . S
C48 C47 1.384 . S
C48 H75 0.929 . S
C49 O62 1.241 . S
C49 O63 1.273 . S
C50 O64 1.251 . S
C50 O65 1.268 . S
C51 Nd41 2.836 . S
C51 C52 1.498 . S
C51 O66 1.258 . S
C51 O67 1.239 . S
C52 C51 1.498 . S
C52 C53 1.366 . S
C52 C57 1.407 . S
C53 C52 1.366 . S
C53 C54 1.392 1_565 S
C53 H76 0.930 . S
C54 C53 1.392 1_545 S
C54 C55 1.398 . S
C54 H77 0.929 . S
C55 C54 1.398 . S
C55 C56 1.352 1_545 S
C56 C55 1.352 1_565 S
C56 C57 1.384 . S
C56 H78 0.930 . S
C57 C52 1.407 . S
C57 C56 1.384 . S
C57 H79 0.929 . S
C58 O68 1.241 . S
C58 O69 1.273 . S
C59 O70 1.251 . S
C59 O71 1.268 . S
O60 Nd40 2.500 . S
O60 C42 1.258 . S
O61 Nd40 2.492 . S
O61 C42 1.239 . S
O62 Nd40 2.487 . S
O62 C49 1.241 . S
O63 Nd40 2.682 . S
O63 Nd41 2.414 . S
O63 C49 1.273 . S
O64 Nd40 2.410 . S
O64 C50 1.251 . S
O65 Nd41 2.424 . S
O65 C50 1.268 . S
O66 Nd41 2.500 . S
O66 C51 1.258 . S
O67 Nd41 2.492 . S
O67 C51 1.239 . S
O68 Nd41 2.487 . S
O68 C58 1.241 . S
O69 Nd40 2.414 . S
O69 Nd41 2.682 . S
O69 C58 1.273 . S
O70 Nd41 2.410 . S
O70 C59 1.251 . S
O71 Nd40 2.424 . S
O71 C59 1.268 . S
H72 C44 0.930 . S
H73 C45 0.929 . S
H74 C47 0.930 . S
H75 C48 0.929 . S
H76 C53 0.930 . S
H77 C54 0.929 . S
H78 C56 0.930 . S
H79 C57 0.929 . S
Nd80 C82 2.836 . S
Nd80 O100 2.500 . S
Nd80 O101 2.492 . S
Nd80 O102 2.487 . S
Nd80 O103 2.682 . S
Nd80 O104 2.410 . S
Nd80 O109 2.414 . S
Nd80 O111 2.424 . S
Nd81 C91 2.836 . S
Nd81 O103 2.414 . S
Nd81 O105 2.424 . S
Nd81 O106 2.500 . S
Nd81 O107 2.492 . S
Nd81 O108 2.487 . S
Nd81 O109 2.682 . S
Nd81 O110 2.410 . S
C82 Nd80 2.836 . S
C82 C83 1.498 . S
C82 O100 1.258 . S
C82 O101 1.239 . S
C83 C82 1.498 . S
C83 C84 1.366 . S
C83 C88 1.407 . S
C84 C83 1.366 . S
C84 C85 1.392 . S
C84 H112 0.930 . S
C85 C84 1.392 . S
C85 C86 1.398 . S
C85 H113 0.929 . S
C86 C85 1.398 . S
C86 C87 1.352 . S
C87 C86 1.352 . S
C87 C88 1.384 . S
C87 H114 0.930 . S
C88 C83 1.407 . S
C88 C87 1.384 . S
C88 H115 0.929 . S
C89 O102 1.241 . S
C89 O103 1.273 . S
C90 O104 1.251 . S
C90 O105 1.268 . S
C91 Nd81 2.836 . S
C91 C92 1.498 . S
C91 O106 1.258 . S
C91 O107 1.239 . S
C92 C91 1.498 . S
C92 C93 1.366 . S
C92 C97 1.407 . S
C93 C92 1.366 . S
C93 C94 1.392 . S
C93 H116 0.930 . S
C94 C93 1.392 . S
C94 C95 1.398 . S
C94 H117 0.929 . S
C95 C94 1.398 . S
C95 C96 1.352 . S
C96 C95 1.352 . S
C96 C97 1.384 . S
C96 H118 0.930 . S
C97 C92 1.407 . S
C97 C96 1.384 . S
C97 H119 0.929 . S
C98 O108 1.241 . S
C98 O109 1.273 . S
C99 O110 1.251 . S
C99 O111 1.268 . S
O100 Nd80 2.500 . S
O100 C82 1.258 . S
O101 Nd80 2.492 . S
O101 C82 1.239 . S
O102 Nd80 2.487 . S
O102 C89 1.241 . S
O103 Nd80 2.682 . S
O103 Nd81 2.414 . S
O103 C89 1.273 . S
O104 Nd80 2.410 . S
O104 C90 1.251 . S
O105 Nd81 2.424 . S
O105 C90 1.268 . S
O106 Nd81 2.500 . S
O106 C91 1.258 . S
O107 Nd81 2.492 . S
O107 C91 1.239 . S
O108 Nd81 2.487 . S
O108 C98 1.241 . S
O109 Nd80 2.414 . S
O109 Nd81 2.682 . S
O109 C98 1.273 . S
O110 Nd81 2.410 . S
O110 C99 1.251 . S
O111 Nd80 2.424 . S
O111 C99 1.268 . S
H112 C84 0.930 . S
H113 C85 0.929 . S
H114 C87 0.930 . S
H115 C88 0.929 . S
H116 C93 0.930 . S
H117 C94 0.929 . S
H118 C96 0.930 . S
H119 C97 0.929 . S
Nd120 C122 2.836 . S
Nd120 O140 2.500 . S
Nd120 O141 2.492 . S
Nd120 O142 2.487 . S
Nd120 O143 2.682 . S
Nd120 O144 2.410 . S
Nd120 O149 2.414 . S
Nd120 O151 2.424 . S
Nd121 C131 2.836 . S
Nd121 O143 2.414 . S
Nd121 O145 2.424 . S
Nd121 O146 2.500 . S
Nd121 O147 2.492 . S
Nd121 O148 2.487 . S
Nd121 O149 2.682 . S
Nd121 O150 2.410 . S
C122 Nd120 2.836 . S
C122 C123 1.498 . S
C122 O140 1.258 . S
C122 O141 1.239 . S
C123 C122 1.498 . S
C123 C124 1.366 . S
C123 C128 1.407 . S
C124 C123 1.366 . S
C124 C125 1.392 . S
C124 H152 0.930 . S
C125 C124 1.392 . S
C125 C126 1.398 . S
C125 H153 0.929 . S
C126 C125 1.398 . S
C126 C127 1.352 . S
C127 C126 1.352 . S
C127 C128 1.384 . S
C127 H154 0.930 . S
C128 C123 1.407 . S
C128 C127 1.384 . S
C128 H155 0.929 . S
C129 O142 1.241 . S
C129 O143 1.273 . S
C130 O144 1.251 . S
C130 O145 1.268 . S
C131 Nd121 2.836 . S
C131 C132 1.498 . S
C131 O146 1.258 . S
C131 O147 1.239 . S
C132 C131 1.498 . S
C132 C133 1.366 . S
C132 C137 1.407 . S
C133 C132 1.366 . S
C133 C134 1.392 1_545 S
C133 H156 0.930 . S
C134 C133 1.392 1_565 S
C134 C135 1.398 . S
C134 H157 0.929 . S
C135 C134 1.398 . S
C135 C136 1.352 1_565 S
C136 C135 1.352 1_545 S
C136 C137 1.384 . S
C136 H158 0.930 . S
C137 C132 1.407 . S
C137 C136 1.384 . S
C137 H159 0.929 . S
C138 O148 1.241 . S
C138 O149 1.273 . S
C139 O150 1.251 . S
C139 O151 1.268 . S
O140 Nd120 2.500 . S
O140 C122 1.258 . S
O141 Nd120 2.492 . S
O141 C122 1.239 . S
O142 Nd120 2.487 . S
O142 C129 1.241 . S
O143 Nd120 2.682 . S
O143 Nd121 2.414 . S
O143 C129 1.273 . S
O144 Nd120 2.410 . S
O144 C130 1.251 . S
O145 Nd121 2.424 . S
O145 C130 1.268 . S
O146 Nd121 2.500 . S
O146 C131 1.258 . S
O147 Nd121 2.492 . S
O147 C131 1.239 . S
O148 Nd121 2.487 . S
O148 C138 1.241 . S
O149 Nd120 2.414 . S
O149 Nd121 2.682 . S
O149 C138 1.273 . S
O150 Nd121 2.410 . S
O150 C139 1.251 . S
O151 Nd120 2.424 . S
O151 C139 1.268 . S
H152 C124 0.930 . S
H153 C125 0.929 . S
H154 C127 0.930 . S
H155 C128 0.929 . S
H156 C133 0.930 . S
H157 C134 0.929 . S
H158 C136 0.930 . S
H159 C137 0.929 . S
Nd160 C162 2.836 . S
Nd160 O180 2.500 1_455 S
Nd160 O181 2.492 . S
Nd160 O182 2.487 . S
Nd160 O183 2.682 . S
Nd160 O184 2.410 . S
Nd160 O189 2.414 . S
Nd160 O191 2.424 . S
Nd161 C171 2.836 . S
Nd161 O183 2.414 . S
Nd161 O185 2.424 . S
Nd161 O186 2.500 . S
Nd161 O187 2.492 . S
Nd161 O188 2.487 . S
Nd161 O189 2.682 . S
Nd161 O190 2.410 . S
C162 Nd160 2.836 . S
C162 C163 1.498 1_455 S
C162 O180 1.258 1_455 S
C162 O181 1.239 . S
C163 C162 1.498 1_655 S
C163 C164 1.366 . S
C163 C168 1.407 . S
C164 C163 1.366 . S
C164 C165 1.392 . S
C164 H192 0.930 . S
C165 C164 1.392 . S
C165 C166 1.398 . S
C165 H193 0.929 . S
C166 C165 1.398 . S
C166 C167 1.352 . S
C167 C166 1.352 . S
C167 C168 1.384 . S
C167 H194 0.930 . S
C168 C163 1.407 . S
C168 C167 1.384 . S
C168 H195 0.929 . S
C169 O182 1.241 . S
C169 O183 1.273 . S
C170 O184 1.251 . S
C170 O185 1.268 . S
C171 Nd161 2.836 . S
C171 C172 1.498 . S
C171 O186 1.258 . S
C171 O187 1.239 . S
C172 C171 1.498 . S
C172 C173 1.366 . S
C172 C177 1.407 . S
C173 C172 1.366 . S
C173 C174 1.392 . S
C173 H196 0.930 . S
C174 C173 1.392 . S
C174 C175 1.398 . S
C174 H197 0.929 . S
C175 C174 1.398 . S
C175 C176 1.352 . S
C176 C175 1.352 . S
C176 C177 1.384 . S
C176 H198 0.930 . S
C177 C172 1.407 . S
C177 C176 1.384 . S
C177 H199 0.929 . S
C178 O188 1.241 . S
C178 O189 1.273 . S
C179 O190 1.251 . S
C179 O191 1.268 . S
O180 Nd160 2.500 1_655 S
O180 C162 1.258 1_655 S
O181 Nd160 2.492 . S
O181 C162 1.239 . S
O182 Nd160 2.487 . S
O182 C169 1.241 . S
O183 Nd160 2.682 . S
O183 Nd161 2.414 . S
O183 C169 1.273 . S
O184 Nd160 2.410 . S
O184 C170 1.251 . S
O185 Nd161 2.424 . S
O185 C170 1.268 . S
O186 Nd161 2.500 . S
O186 C171 1.258 . S
O187 Nd161 2.492 . S
O187 C171 1.239 . S
O188 Nd161 2.487 . S
O188 C178 1.241 . S
O189 Nd160 2.414 . S
O189 Nd161 2.682 . S
O189 C178 1.273 . S
O190 Nd161 2.410 . S
O190 C179 1.251 . S
O191 Nd160 2.424 . S
O191 C179 1.268 . S
H192 C164 0.930 . S
H193 C165 0.929 . S
H194 C167 0.930 . S
H195 C168 0.929 . S
H196 C173 0.930 . S
H197 C174 0.929 . S
H198 C176 0.930 . S
H199 C177 0.929 . S
Nd200 C202 2.836 . S
Nd200 O220 2.500 . S
Nd200 O221 2.492 . S
Nd200 O222 2.487 . S
Nd200 O223 2.682 . S
Nd200 O224 2.410 . S
Nd200 O229 2.414 . S
Nd200 O231 2.424 . S
Nd201 C211 2.836 . S
Nd201 O223 2.414 . S
Nd201 O225 2.424 . S
Nd201 O226 2.500 . S
Nd201 O227 2.492 . S
Nd201 O228 2.487 . S
Nd201 O229 2.682 . S
Nd201 O230 2.410 . S
C202 Nd200 2.836 . S
C202 C203 1.498 . S
C202 O220 1.258 . S
C202 O221 1.239 . S
C203 C202 1.498 . S
C203 C204 1.366 . S
C203 C208 1.407 . S
C204 C203 1.366 . S
C204 C205 1.392 . S
C204 H232 0.930 . S
C205 C204 1.392 . S
C205 C206 1.398 . S
C205 H233 0.929 . S
C206 C205 1.398 . S
C206 C207 1.352 . S
C207 C206 1.352 . S
C207 C208 1.384 . S
C207 H234 0.930 . S
C208 C203 1.407 . S
C208 C207 1.384 . S
C208 H235 0.929 . S
C209 O222 1.241 . S
C209 O223 1.273 . S
C210 O224 1.251 . S
C210 O225 1.268 . S
C211 Nd201 2.836 . S
C211 C212 1.498 . S
C211 O226 1.258 . S
C211 O227 1.239 . S
C212 C211 1.498 . S
C212 C213 1.366 . S
C212 C217 1.407 . S
C213 C212 1.366 . S
C213 C214 1.392 1_565 S
C213 H236 0.930 . S
C214 C213 1.392 1_545 S
C214 C215 1.398 . S
C214 H237 0.929 . S
C215 C214 1.398 . S
C215 C216 1.352 1_545 S
C216 C215 1.352 1_565 S
C216 C217 1.384 . S
C216 H238 0.930 . S
C217 C212 1.407 . S
C217 C216 1.384 . S
C217 H239 0.929 . S
C218 O228 1.241 . S
C218 O229 1.273 . S
C219 O230 1.251 . S
C219 O231 1.268 . S
O220 Nd200 2.500 . S
O220 C202 1.258 . S
O221 Nd200 2.492 . S
O221 C202 1.239 . S
O222 Nd200 2.487 . S
O222 C209 1.241 . S
O223 Nd200 2.682 . S
O223 Nd201 2.414 . S
O223 C209 1.273 . S
O224 Nd200 2.410 . S
O224 C210 1.251 . S
O225 Nd201 2.424 . S
O225 C210 1.268 . S
O226 Nd201 2.500 . S
O226 C211 1.258 . S
O227 Nd201 2.492 . S
O227 C211 1.239 . S
O228 Nd201 2.487 . S
O228 C218 1.241 . S
O229 Nd200 2.414 . S
O229 Nd201 2.682 . S
O229 C218 1.273 . S
O230 Nd201 2.410 . S
O230 C219 1.251 . S
O231 Nd200 2.424 . S
O231 C219 1.268 . S
H232 C204 0.930 . S
H233 C205 0.929 . S
H234 C207 0.930 . S
H235 C208 0.929 . S
H236 C213 0.930 . S
H237 C214 0.929 . S
H238 C216 0.930 . S
H239 C217 0.929 . S
Nd240 C242 2.836 . S
Nd240 O260 2.500 . S
Nd240 O261 2.492 . S
Nd240 O262 2.487 . S
Nd240 O263 2.682 . S
Nd240 O264 2.410 . S
Nd240 O269 2.414 . S
Nd240 O271 2.424 . S
Nd241 C251 2.836 . S
Nd241 O263 2.414 . S
Nd241 O265 2.424 . S
Nd241 O266 2.500 . S
Nd241 O267 2.492 . S
Nd241 O268 2.487 . S
Nd241 O269 2.682 . S
Nd241 O270 2.410 . S
C242 Nd240 2.836 . S
C242 C243 1.498 . S
C242 O260 1.258 . S
C242 O261 1.239 . S
C243 C242 1.498 . S
C243 C244 1.366 . S
C243 C248 1.407 . S
C244 C243 1.366 . S
C244 C245 1.392 . S
C244 H272 0.930 . S
C245 C244 1.392 . S
C245 C246 1.398 . S
C245 H273 0.929 . S
C246 C245 1.398 . S
C246 C247 1.352 . S
C247 C246 1.352 . S
C247 C248 1.384 . S
C247 H274 0.930 . S
C248 C243 1.407 . S
C248 C247 1.384 . S
C248 H275 0.929 . S
C249 O262 1.241 . S
C249 O263 1.273 . S
C250 O264 1.251 . S
C250 O265 1.268 . S
C251 Nd241 2.836 . S
C251 C252 1.498 . S
C251 O266 1.258 . S
C251 O267 1.239 . S
C252 C251 1.498 . S
C252 C253 1.366 . S
C252 C257 1.407 . S
C253 C252 1.366 . S
C253 C254 1.392 . S
C253 H276 0.930 . S
C254 C253 1.392 . S
C254 C255 1.398 . S
C254 H277 0.929 . S
C255 C254 1.398 . S
C255 C256 1.352 . S
C256 C255 1.352 . S
C256 C257 1.384 . S
C256 H278 0.930 . S
C257 C252 1.407 . S
C257 C256 1.384 . S
C257 H279 0.929 . S
C258 O268 1.241 . S
C258 O269 1.273 . S
C259 O270 1.251 . S
C259 O271 1.268 . S
O260 Nd240 2.500 . S
O260 C242 1.258 . S
O261 Nd240 2.492 . S
O261 C242 1.239 . S
O262 Nd240 2.487 . S
O262 C249 1.241 . S
O263 Nd240 2.682 . S
O263 Nd241 2.414 . S
O263 C249 1.273 . S
O264 Nd240 2.410 . S
O264 C250 1.251 . S
O265 Nd241 2.424 . S
O265 C250 1.268 . S
O266 Nd241 2.500 . S
O266 C251 1.258 . S
O267 Nd241 2.492 . S
O267 C251 1.239 . S
O268 Nd241 2.487 . S
O268 C258 1.241 . S
O269 Nd240 2.414 . S
O269 Nd241 2.682 . S
O269 C258 1.273 . S
O270 Nd241 2.410 . S
O270 C259 1.251 . S
O271 Nd240 2.424 . S
O271 C259 1.268 . S
H272 C244 0.930 . S
H273 C245 0.929 . S
H274 C247 0.930 . S
H275 C248 0.929 . S
H276 C253 0.930 . S
H277 C254 0.929 . S
H278 C256 0.930 . S
H279 C257 0.929 . S
Nd280 C282 2.836 . S
Nd280 O300 2.500 . S
Nd280 O301 2.492 . S
Nd280 O302 2.487 . S
Nd280 O303 2.682 . S
Nd280 O304 2.410 . S
Nd280 O309 2.414 . S
Nd280 O311 2.424 . S
Nd281 C291 2.836 . S
Nd281 O303 2.414 . S
Nd281 O305 2.424 . S
Nd281 O306 2.500 . S
Nd281 O307 2.492 . S
Nd281 O308 2.487 . S
Nd281 O309 2.682 . S
Nd281 O310 2.410 . S
C282 Nd280 2.836 . S
C282 C283 1.498 . S
C282 O300 1.258 . S
C282 O301 1.239 . S
C283 C282 1.498 . S
C283 C284 1.366 . S
C283 C288 1.407 . S
C284 C283 1.366 . S
C284 C285 1.392 . S
C284 H312 0.930 . S
C285 C284 1.392 . S
C285 C286 1.398 . S
C285 H313 0.929 . S
C286 C285 1.398 . S
C286 C287 1.352 . S
C287 C286 1.352 . S
C287 C288 1.384 . S
C287 H314 0.930 . S
C288 C283 1.407 . S
C288 C287 1.384 . S
C288 H315 0.929 . S
C289 O302 1.241 . S
C289 O303 1.273 . S
C290 O304 1.251 . S
C290 O305 1.268 . S
C291 Nd281 2.836 . S
C291 C292 1.498 . S
C291 O306 1.258 . S
C291 O307 1.239 . S
C292 C291 1.498 . S
C292 C293 1.366 . S
C292 C297 1.407 . S
C293 C292 1.366 . S
C293 C294 1.392 1_545 S
C293 H316 0.930 . S
C294 C293 1.392 1_565 S
C294 C295 1.398 . S
C294 H317 0.929 . S
C295 C294 1.398 . S
C295 C296 1.352 1_565 S
C296 C295 1.352 1_545 S
C296 C297 1.384 . S
C296 H318 0.930 . S
C297 C292 1.407 . S
C297 C296 1.384 . S
C297 H319 0.929 . S
C298 O308 1.241 . S
C298 O309 1.273 . S
C299 O310 1.251 . S
C299 O311 1.268 . S
O300 Nd280 2.500 . S
O300 C282 1.258 . S
O301 Nd280 2.492 . S
O301 C282 1.239 . S
O302 Nd280 2.487 . S
O302 C289 1.241 . S
O303 Nd280 2.682 . S
O303 Nd281 2.414 . S
O303 C289 1.273 . S
O304 Nd280 2.410 . S
O304 C290 1.251 . S
O305 Nd281 2.424 . S
O305 C290 1.268 . S
O306 Nd281 2.500 . S
O306 C291 1.258 . S
O307 Nd281 2.492 . S
O307 C291 1.239 . S
O308 Nd281 2.487 . S
O308 C298 1.241 . S
O309 Nd280 2.414 . S
O309 Nd281 2.682 . S
O309 C298 1.273 . S
O310 Nd281 2.410 . S
O310 C299 1.251 . S
O311 Nd280 2.424 . S
O311 C299 1.268 . S
H312 C284 0.930 . S
H313 C285 0.929 . S
H314 C287 0.930 . S
H315 C288 0.929 . S
H316 C293 0.930 . S
H317 C294 0.929 . S
H318 C296 0.930 . S
H319 C297 0.929 . S
Nd320 C322 2.836 . S
Nd320 O340 2.500 . S
Nd320 O341 2.492 . S
Nd320 O342 2.487 . S
Nd320 O343 2.682 . S
Nd320 O344 2.410 . S
Nd320 O349 2.414 . S
Nd320 O351 2.424 . S
Nd321 C331 2.836 . S
Nd321 O343 2.414 . S
Nd321 O345 2.424 . S
Nd321 O346 2.500 1_655 S
Nd321 O347 2.492 . S
Nd321 O348 2.487 . S
Nd321 O349 2.682 . S
Nd321 O350 2.410 . S
C322 Nd320 2.836 . S
C322 C323 1.498 . S
C322 O340 1.258 . S
C322 O341 1.239 . S
C323 C322 1.498 . S
C323 C324 1.366 . S
C323 C328 1.407 . S
C324 C323 1.366 . S
C324 C325 1.392 . S
C324 H352 0.930 . S
C325 C324 1.392 . S
C325 C326 1.398 . S
C325 H353 0.929 . S
C326 C325 1.398 . S
C326 C327 1.352 . S
C327 C326 1.352 . S
C327 C328 1.384 . S
C327 H354 0.930 . S
C328 C323 1.407 . S
C328 C327 1.384 . S
C328 H355 0.929 . S
C329 O342 1.241 . S
C329 O343 1.273 . S
C330 O344 1.251 . S
C330 O345 1.268 . S
C331 Nd321 2.836 . S
C331 C332 1.498 1_655 S
C331 O346 1.258 1_655 S
C331 O347 1.239 . S
C332 C331 1.498 1_455 S
C332 C333 1.366 . S
C332 C337 1.407 . S
C333 C332 1.366 . S
C333 C334 1.392 . S
C333 H356 0.930 . S
C334 C333 1.392 . S
C334 C335 1.398 . S
C334 H357 0.929 . S
C335 C334 1.398 . S
C335 C336 1.352 . S
C336 C335 1.352 . S
C336 C337 1.384 . S
C336 H358 0.930 . S
C337 C332 1.407 . S
C337 C336 1.384 . S
C337 H359 0.929 . S
C338 O348 1.241 . S
C338 O349 1.273 . S
C339 O350 1.251 . S
C339 O351 1.268 . S
O340 Nd320 2.500 . S
O340 C322 1.258 . S
O341 Nd320 2.492 . S
O341 C322 1.239 . S
O342 Nd320 2.487 . S
O342 C329 1.241 . S
O343 Nd320 2.682 . S
O343 Nd321 2.414 . S
O343 C329 1.273 . S
O344 Nd320 2.410 . S
O344 C330 1.251 . S
O345 Nd321 2.424 . S
O345 C330 1.268 . S
O346 Nd321 2.500 1_455 S
O346 C331 1.258 1_455 S
O347 Nd321 2.492 . S
O347 C331 1.239 . S
O348 Nd321 2.487 . S
O348 C338 1.241 . S
O349 Nd320 2.414 . S
O349 Nd321 2.682 . S
O349 C338 1.273 . S
O350 Nd321 2.410 . S
O350 C339 1.251 . S
O351 Nd320 2.424 . S
O351 C339 1.268 . S
H352 C324 0.930 . S
H353 C325 0.929 . S
H354 C327 0.930 . S
H355 C328 0.929 . S
H356 C333 0.930 . S
H357 C334 0.929 . S
H358 C336 0.930 . S
H359 C337 0.929 . S
Nd360 C362 2.836 . S
Nd360 O380 2.500 . S
Nd360 O381 2.492 . S
Nd360 O382 2.487 . S
Nd360 O383 2.682 . S
Nd360 O384 2.410 . S
Nd360 O389 2.414 . S
Nd360 O391 2.424 . S
Nd361 C371 2.836 . S
Nd361 O383 2.414 . S
Nd361 O385 2.424 . S
Nd361 O386 2.500 . S
Nd361 O387 2.492 . S
Nd361 O388 2.487 . S
Nd361 O389 2.682 . S
Nd361 O390 2.410 . S
C362 Nd360 2.836 . S
C362 C363 1.498 . S
C362 O380 1.258 . S
C362 O381 1.239 . S
C363 C362 1.498 . S
C363 C364 1.366 . S
C363 C368 1.407 . S
C364 C363 1.366 . S
C364 C365 1.392 1_545 S
C364 H392 0.930 . S
C365 C364 1.392 1_565 S
C365 C366 1.398 . S
C365 H393 0.929 . S
C366 C365 1.398 . S
C366 C367 1.352 1_565 S
C367 C366 1.352 1_545 S
C367 C368 1.384 . S
C367 H394 0.930 . S
C368 C363 1.407 . S
C368 C367 1.384 . S
C368 H395 0.929 . S
C369 O382 1.241 . S
C369 O383 1.273 . S
C370 O384 1.251 . S
C370 O385 1.268 . S
C371 Nd361 2.836 . S
C371 C372 1.498 . S
C371 O386 1.258 . S
C371 O387 1.239 . S
C372 C371 1.498 . S
C372 C373 1.366 . S
C372 C377 1.407 . S
C373 C372 1.366 . S
C373 C374 1.392 . S
C373 H396 0.930 . S
C374 C373 1.392 . S
C374 C375 1.398 . S
C374 H397 0.929 . S
C375 C374 1.398 . S
C375 C376 1.352 . S
C376 C375 1.352 . S
C376 C377 1.384 . S
C376 H398 0.930 . S
C377 C372 1.407 . S
C377 C376 1.384 . S
C377 H399 0.929 . S
C378 O388 1.241 . S
C378 O389 1.273 . S
C379 O390 1.251 . S
C379 O391 1.268 . S
O380 Nd360 2.500 . S
O380 C362 1.258 . S
O381 Nd360 2.492 . S
O381 C362 1.239 . S
O382 Nd360 2.487 . S
O382 C369 1.241 . S
O383 Nd360 2.682 . S
O383 Nd361 2.414 . S
O383 C369 1.273 . S
O384 Nd360 2.410 . S
O384 C370 1.251 . S
O385 Nd361 2.424 . S
O385 C370 1.268 . S
O386 Nd361 2.500 . S
O386 C371 1.258 . S
O387 Nd361 2.492 . S
O387 C371 1.239 . S
O388 Nd361 2.487 . S
O388 C378 1.241 . S
O389 Nd360 2.414 . S
O389 Nd361 2.682 . S
O389 C378 1.273 . S
O390 Nd361 2.410 . S
O390 C379 1.251 . S
O391 Nd360 2.424 . S
O391 C379 1.268 . S
H392 C364 0.930 . S
H393 C365 0.929 . S
H394 C367 0.930 . S
H395 C368 0.929 . S
H396 C373 0.930 . S
H397 C374 0.929 . S
H398 C376 0.930 . S
H399 C377 0.929 . S
Nd400 C402 2.836 . S
Nd400 O420 2.500 . S
Nd400 O421 2.492 . S
Nd400 O422 2.487 . S
Nd400 O423 2.682 . S
Nd400 O424 2.410 . S
Nd400 O429 2.414 . S
Nd400 O431 2.424 . S
Nd401 C411 2.836 . S
Nd401 O423 2.414 . S
Nd401 O425 2.424 . S
Nd401 O426 2.500 . S
Nd401 O427 2.492 . S
Nd401 O428 2.487 . S
Nd401 O429 2.682 . S
Nd401 O430 2.410 . S
C402 Nd400 2.836 . S
C402 C403 1.498 . S
C402 O420 1.258 . S
C402 O421 1.239 . S
C403 C402 1.498 . S
C403 C404 1.366 . S
C403 C408 1.407 . S
C404 C403 1.366 . S
C404 C405 1.392 . S
C404 H432 0.930 . S
C405 C404 1.392 . S
C405 C406 1.398 . S
C405 H433 0.929 . S
C406 C405 1.398 . S
C406 C407 1.352 . S
C407 C406 1.352 . S
C407 C408 1.384 . S
C407 H434 0.930 . S
C408 C403 1.407 . S
C408 C407 1.384 . S
C408 H435 0.929 . S
C409 O422 1.241 . S
C409 O423 1.273 . S
C410 O424 1.251 . S
C410 O425 1.268 . S
C411 Nd401 2.836 . S
C411 C412 1.498 . S
C411 O426 1.258 . S
C411 O427 1.239 . S
C412 C411 1.498 . S
C412 C413 1.366 . S
C412 C417 1.407 . S
C413 C412 1.366 . S
C413 C414 1.392 . S
C413 H436 0.930 . S
C414 C413 1.392 . S
C414 C415 1.398 . S
C414 H437 0.929 . S
C415 C414 1.398 . S
C415 C416 1.352 . S
C416 C415 1.352 . S
C416 C417 1.384 . S
C416 H438 0.930 . S
C417 C412 1.407 . S
C417 C416 1.384 . S
C417 H439 0.929 . S
C418 O428 1.241 . S
C418 O429 1.273 . S
C419 O430 1.251 . S
C419 O431 1.268 . S
O420 Nd400 2.500 . S
O420 C402 1.258 . S
O421 Nd400 2.492 . S
O421 C402 1.239 . S
O422 Nd400 2.487 . S
O422 C409 1.241 . S
O423 Nd400 2.682 . S
O423 Nd401 2.414 . S
O423 C409 1.273 . S
O424 Nd400 2.410 . S
O424 C410 1.251 . S
O425 Nd401 2.424 . S
O425 C410 1.268 . S
O426 Nd401 2.500 . S
O426 C411 1.258 . S
O427 Nd401 2.492 . S
O427 C411 1.239 . S
O428 Nd401 2.487 . S
O428 C418 1.241 . S
O429 Nd400 2.414 . S
O429 Nd401 2.682 . S
O429 C418 1.273 . S
O430 Nd401 2.410 . S
O430 C419 1.251 . S
O431 Nd400 2.424 . S
O431 C419 1.268 . S
H432 C404 0.930 . S
H433 C405 0.929 . S
H434 C407 0.930 . S
H435 C408 0.929 . S
H436 C413 0.930 . S
H437 C414 0.929 . S
H438 C416 0.930 . S
H439 C417 0.929 . S
Nd440 C442 2.836 . S
Nd440 O460 2.500 . S
Nd440 O461 2.492 . S
Nd440 O462 2.487 . S
Nd440 O463 2.682 . S
Nd440 O464 2.410 . S
Nd440 O469 2.414 . S
Nd440 O471 2.424 . S
Nd441 C451 2.836 . S
Nd441 O463 2.414 . S
Nd441 O465 2.424 . S
Nd441 O466 2.500 . S
Nd441 O467 2.492 . S
Nd441 O468 2.487 . S
Nd441 O469 2.682 . S
Nd441 O470 2.410 . S
C442 Nd440 2.836 . S
C442 C443 1.498 . S
C442 O460 1.258 . S
C442 O461 1.239 . S
C443 C442 1.498 . S
C443 C444 1.366 . S
C443 C448 1.407 . S
C444 C443 1.366 . S
C444 C445 1.392 1_565 S
C444 H472 0.930 . S
C445 C444 1.392 1_545 S
C445 C446 1.398 . S
C445 H473 0.929 . S
C446 C445 1.398 . S
C446 C447 1.352 1_545 S
C447 C446 1.352 1_565 S
C447 C448 1.384 . S
C447 H474 0.930 . S
C448 C443 1.407 . S
C448 C447 1.384 . S
C448 H475 0.929 . S
C449 O462 1.241 . S
C449 O463 1.273 . S
C450 O464 1.251 . S
C450 O465 1.268 . S
C451 Nd441 2.836 . S
C451 C452 1.498 . S
C451 O466 1.258 . S
C451 O467 1.239 . S
C452 C451 1.498 . S
C452 C453 1.366 . S
C452 C457 1.407 . S
C453 C452 1.366 . S
C453 C454 1.392 . S
C453 H476 0.930 . S
C454 C453 1.392 . S
C454 C455 1.398 . S
C454 H477 0.929 . S
C455 C454 1.398 . S
C455 C456 1.352 . S
C456 C455 1.352 . S
C456 C457 1.384 . S
C456 H478 0.930 . S
C457 C452 1.407 . S
C457 C456 1.384 . S
C457 H479 0.929 . S
C458 O468 1.241 . S
C458 O469 1.273 . S
C459 O470 1.251 . S
C459 O471 1.268 . S
O460 Nd440 2.500 . S
O460 C442 1.258 . S
O461 Nd440 2.492 . S
O461 C442 1.239 . S
O462 Nd440 2.487 . S
O462 C449 1.241 . S
O463 Nd440 2.682 . S
O463 Nd441 2.414 . S
O463 C449 1.273 . S
O464 Nd440 2.410 . S
O464 C450 1.251 . S
O465 Nd441 2.424 . S
O465 C450 1.268 . S
O466 Nd441 2.500 . S
O466 C451 1.258 . S
O467 Nd441 2.492 . S
O467 C451 1.239 . S
O468 Nd441 2.487 . S
O468 C458 1.241 . S
O469 Nd440 2.414 . S
O469 Nd441 2.682 . S
O469 C458 1.273 . S
O470 Nd441 2.410 . S
O470 C459 1.251 . S
O471 Nd440 2.424 . S
O471 C459 1.268 . S
H472 C444 0.930 . S
H473 C445 0.929 . S
H474 C447 0.930 . S
H475 C448 0.929 . S
H476 C453 0.930 . S
H477 C454 0.929 . S
H478 C456 0.930 . S
H479 C457 0.929 . S
Nd480 C482 2.836 . S
Nd480 O500 2.500 . S
Nd480 O501 2.492 . S
Nd480 O502 2.487 . S
Nd480 O503 2.682 . S
Nd480 O504 2.410 . S
Nd480 O509 2.414 . S
Nd480 O511 2.424 . S
Nd481 C491 2.836 . S
Nd481 O503 2.414 . S
Nd481 O505 2.424 . S
Nd481 O506 2.500 1_655 S
Nd481 O507 2.492 . S
Nd481 O508 2.487 . S
Nd481 O509 2.682 . S
Nd481 O510 2.410 . S
C482 Nd480 2.836 . S
C482 C483 1.498 . S
C482 O500 1.258 . S
C482 O501 1.239 . S
C483 C482 1.498 . S
C483 C484 1.366 . S
C483 C488 1.407 . S
C484 C483 1.366 . S
C484 C485 1.392 . S
C484 H512 0.930 . S
C485 C484 1.392 . S
C485 C486 1.398 . S
C485 H513 0.929 . S
C486 C485 1.398 . S
C486 C487 1.352 . S
C487 C486 1.352 . S
C487 C488 1.384 . S
C487 H514 0.930 . S
C488 C483 1.407 . S
C488 C487 1.384 . S
C488 H515 0.929 . S
C489 O502 1.241 . S
C489 O503 1.273 . S
C490 O504 1.251 . S
C490 O505 1.268 . S
C491 Nd481 2.836 . S
C491 C492 1.498 1_655 S
C491 O506 1.258 1_655 S
C491 O507 1.239 . S
C492 C491 1.498 1_455 S
C492 C493 1.366 . S
C492 C497 1.407 . S
C493 C492 1.366 . S
C493 C494 1.392 . S
C493 H516 0.930 . S
C494 C493 1.392 . S
C494 C495 1.398 . S
C494 H517 0.929 . S
C495 C494 1.398 . S
C495 C496 1.352 . S
C496 C495 1.352 . S
C496 C497 1.384 . S
C496 H518 0.930 . S
C497 C492 1.407 . S
C497 C496 1.384 . S
C497 H519 0.929 . S
C498 O508 1.241 . S
C498 O509 1.273 . S
C499 O510 1.251 . S
C499 O511 1.268 . S
O500 Nd480 2.500 . S
O500 C482 1.258 . S
O501 Nd480 2.492 . S
O501 C482 1.239 . S
O502 Nd480 2.487 . S
O502 C489 1.241 . S
O503 Nd480 2.682 . S
O503 Nd481 2.414 . S
O503 C489 1.273 . S
O504 Nd480 2.410 . S
O504 C490 1.251 . S
O505 Nd481 2.424 . S
O505 C490 1.268 . S
O506 Nd481 2.500 1_455 S
O506 C491 1.258 1_455 S
O507 Nd481 2.492 . S
O507 C491 1.239 . S
O508 Nd481 2.487 . S
O508 C498 1.241 . S
O509 Nd480 2.414 . S
O509 Nd481 2.682 . S
O509 C498 1.273 . S
O510 Nd481 2.410 . S
O510 C499 1.251 . S
O511 Nd480 2.424 . S
O511 C499 1.268 . S
H512 C484 0.930 . S
H513 C485 0.929 . S
H514 C487 0.930 . S
H515 C488 0.929 . S
H516 C493 0.930 . S
H517 C494 0.929 . S
H518 C496 0.930 . S
H519 C497 0.929 . S
Nd520 C522 2.836 . S
Nd520 O540 2.500 . S
Nd520 O541 2.492 . S
Nd520 O542 2.487 . S
Nd520 O543 2.682 . S
Nd520 O544 2.410 . S
Nd520 O549 2.414 . S
Nd520 O551 2.424 . S
Nd521 C531 2.836 . S
Nd521 O543 2.414 . S
Nd521 O545 2.424 . S
Nd521 O546 2.500 . S
Nd521 O547 2.492 . S
Nd521 O548 2.487 . S
Nd521 O549 2.682 . S
Nd521 O550 2.410 . S
C522 Nd520 2.836 . S
C522 C523 1.498 . S
C522 O540 1.258 . S
C522 O541 1.239 . S
C523 C522 1.498 . S
C523 C524 1.366 . S
C523 C528 1.407 . S
C524 C523 1.366 . S
C524 C525 1.392 1_545 S
C524 H552 0.930 . S
C525 C524 1.392 1_565 S
C525 C526 1.398 . S
C525 H553 0.929 . S
C526 C525 1.398 . S
C526 C527 1.352 1_565 S
C527 C526 1.352 1_545 S
C527 C528 1.384 . S
C527 H554 0.930 . S
C528 C523 1.407 . S
C528 C527 1.384 . S
C528 H555 0.929 . S
C529 O542 1.241 . S
C529 O543 1.273 . S
C530 O544 1.251 . S
C530 O545 1.268 . S
C531 Nd521 2.836 . S
C531 C532 1.498 . S
C531 O546 1.258 . S
C531 O547 1.239 . S
C532 C531 1.498 . S
C532 C533 1.366 . S
C532 C537 1.407 . S
C533 C532 1.366 . S
C533 C534 1.392 . S
C533 H556 0.930 . S
C534 C533 1.392 . S
C534 C535 1.398 . S
C534 H557 0.929 . S
C535 C534 1.398 . S
C535 C536 1.352 . S
C536 C535 1.352 . S
C536 C537 1.384 . S
C536 H558 0.930 . S
C537 C532 1.407 . S
C537 C536 1.384 . S
C537 H559 0.929 . S
C538 O548 1.241 . S
C538 O549 1.273 . S
C539 O550 1.251 . S
C539 O551 1.268 . S
O540 Nd520 2.500 . S
O540 C522 1.258 . S
O541 Nd520 2.492 . S
O541 C522 1.239 . S
O542 Nd520 2.487 . S
O542 C529 1.241 . S
O543 Nd520 2.682 . S
O543 Nd521 2.414 . S
O543 C529 1.273 . S
O544 Nd520 2.410 . S
O544 C530 1.251 . S
O545 Nd521 2.424 . S
O545 C530 1.268 . S
O546 Nd521 2.500 . S
O546 C531 1.258 . S
O547 Nd521 2.492 . S
O547 C531 1.239 . S
O548 Nd521 2.487 . S
O548 C538 1.241 . S
O549 Nd520 2.414 . S
O549 Nd521 2.682 . S
O549 C538 1.273 . S
O550 Nd521 2.410 . S
O550 C539 1.251 . S
O551 Nd520 2.424 . S
O551 C539 1.268 . S
H552 C524 0.930 . S
H553 C525 0.929 . S
H554 C527 0.930 . S
H555 C528 0.929 . S
H556 C533 0.930 . S
H557 C534 0.929 . S
H558 C536 0.930 . S
H559 C537 0.929 . S
Nd560 C562 2.836 . S
Nd560 O580 2.500 . S
Nd560 O581 2.492 . S
Nd560 O582 2.487 . S
Nd560 O583 2.682 . S
Nd560 O584 2.410 . S
Nd560 O589 2.414 . S
Nd560 O591 2.424 . S
Nd561 C571 2.836 . S
Nd561 O583 2.414 . S
Nd561 O585 2.424 . S
Nd561 O586 2.500 . S
Nd561 O587 2.492 . S
Nd561 O588 2.487 . S
Nd561 O589 2.682 . S
Nd561 O590 2.410 . S
C562 Nd560 2.836 . S
C562 C563 1.498 . S
C562 O580 1.258 . S
C562 O581 1.239 . S
C563 C562 1.498 . S
C563 C564 1.366 . S
C563 C568 1.407 . S
C564 C563 1.366 . S
C564 C565 1.392 . S
C564 H592 0.930 . S
C565 C564 1.392 . S
C565 C566 1.398 . S
C565 H593 0.929 . S
C566 C565 1.398 . S
C566 C567 1.352 . S
C567 C566 1.352 . S
C567 C568 1.384 . S
C567 H594 0.930 . S
C568 C563 1.407 . S
C568 C567 1.384 . S
C568 H595 0.929 . S
C569 O582 1.241 . S
C569 O583 1.273 . S
C570 O584 1.251 . S
C570 O585 1.268 . S
C571 Nd561 2.836 . S
C571 C572 1.498 . S
C571 O586 1.258 . S
C571 O587 1.239 . S
C572 C571 1.498 . S
C572 C573 1.366 . S
C572 C577 1.407 . S
C573 C572 1.366 . S
C573 C574 1.392 . S
C573 H596 0.930 . S
C574 C573 1.392 . S
C574 C575 1.398 . S
C574 H597 0.929 . S
C575 C574 1.398 . S
C575 C576 1.352 . S
C576 C575 1.352 . S
C576 C577 1.384 . S
C576 H598 0.930 . S
C577 C572 1.407 . S
C577 C576 1.384 . S
C577 H599 0.929 . S
C578 O588 1.241 . S
C578 O589 1.273 . S
C579 O590 1.251 . S
C579 O591 1.268 . S
O580 Nd560 2.500 . S
O580 C562 1.258 . S
O581 Nd560 2.492 . S
O581 C562 1.239 . S
O582 Nd560 2.487 . S
O582 C569 1.241 . S
O583 Nd560 2.682 . S
O583 Nd561 2.414 . S
O583 C569 1.273 . S
O584 Nd560 2.410 . S
O584 C570 1.251 . S
O585 Nd561 2.424 . S
O585 C570 1.268 . S
O586 Nd561 2.500 . S
O586 C571 1.258 . S
O587 Nd561 2.492 . S
O587 C571 1.239 . S
O588 Nd561 2.487 . S
O588 C578 1.241 . S
O589 Nd560 2.414 . S
O589 Nd561 2.682 . S
O589 C578 1.273 . S
O590 Nd561 2.410 . S
O590 C579 1.251 . S
O591 Nd560 2.424 . S
O591 C579 1.268 . S
H592 C564 0.930 . S
H593 C565 0.929 . S
H594 C567 0.930 . S
H595 C568 0.929 . S
H596 C573 0.930 . S
H597 C574 0.929 . S
H598 C576 0.930 . S
H599 C577 0.929 . S
Nd600 C602 2.836 . S
Nd600 O620 2.500 . S
Nd600 O621 2.492 . S
Nd600 O622 2.487 . S
Nd600 O623 2.682 . S
Nd600 O624 2.410 . S
Nd600 O629 2.414 . S
Nd600 O631 2.424 . S
Nd601 C611 2.836 . S
Nd601 O623 2.414 . S
Nd601 O625 2.424 . S
Nd601 O626 2.500 . S
Nd601 O627 2.492 . S
Nd601 O628 2.487 . S
Nd601 O629 2.682 . S
Nd601 O630 2.410 . S
C602 Nd600 2.836 . S
C602 C603 1.498 . S
C602 O620 1.258 . S
C602 O621 1.239 . S
C603 C602 1.498 . S
C603 C604 1.366 . S
C603 C608 1.407 . S
C604 C603 1.366 . S
C604 C605 1.392 1_565 S
C604 H632 0.930 . S
C605 C604 1.392 1_545 S
C605 C606 1.398 . S
C605 H633 0.929 . S
C606 C605 1.398 . S
C606 C607 1.352 1_545 S
C607 C606 1.352 1_565 S
C607 C608 1.384 . S
C607 H634 0.930 . S
C608 C603 1.407 . S
C608 C607 1.384 . S
C608 H635 0.929 . S
C609 O622 1.241 . S
C609 O623 1.273 . S
C610 O624 1.251 . S
C610 O625 1.268 . S
C611 Nd601 2.836 . S
C611 C612 1.498 . S
C611 O626 1.258 . S
C611 O627 1.239 . S
C612 C611 1.498 . S
C612 C613 1.366 . S
C612 C617 1.407 . S
C613 C612 1.366 . S
C613 C614 1.392 . S
C613 H636 0.930 . S
C614 C613 1.392 . S
C614 C615 1.398 . S
C614 H637 0.929 . S
C615 C614 1.398 . S
C615 C616 1.352 . S
C616 C615 1.352 . S
C616 C617 1.384 . S
C616 H638 0.930 . S
C617 C612 1.407 . S
C617 C616 1.384 . S
C617 H639 0.929 . S
C618 O628 1.241 . S
C618 O629 1.273 . S
C619 O630 1.251 . S
C619 O631 1.268 . S
O620 Nd600 2.500 . S
O620 C602 1.258 . S
O621 Nd600 2.492 . S
O621 C602 1.239 . S
O622 Nd600 2.487 . S
O622 C609 1.241 . S
O623 Nd600 2.682 . S
O623 Nd601 2.414 . S
O623 C609 1.273 . S
O624 Nd600 2.410 . S
O624 C610 1.251 . S
O625 Nd601 2.424 . S
O625 C610 1.268 . S
O626 Nd601 2.500 . S
O626 C611 1.258 . S
O627 Nd601 2.492 . S
O627 C611 1.239 . S
O628 Nd601 2.487 . S
O628 C618 1.241 . S
O629 Nd600 2.414 . S
O629 Nd601 2.682 . S
O629 C618 1.273 . S
O630 Nd601 2.410 . S
O630 C619 1.251 . S
O631 Nd600 2.424 . S
O631 C619 1.268 . S
H632 C604 0.930 . S
H633 C605 0.929 . S
H634 C607 0.930 . S
H635 C608 0.929 . S
H636 C613 0.930 . S
H637 C614 0.929 . S
H638 C616 0.930 . S
H639 C617 0.929 . S
Nd640 C642 2.836 . S
Nd640 O660 2.500 . S
Nd640 O661 2.492 . S
Nd640 O662 2.487 . S
Nd640 O663 2.682 . S
Nd640 O664 2.410 . S
Nd640 O669 2.414 . S
Nd640 O671 2.424 . S
Nd641 C651 2.836 . S
Nd641 O663 2.414 . S
Nd641 O665 2.424 . S
Nd641 O666 2.500 . S
Nd641 O667 2.492 . S
Nd641 O668 2.487 . S
Nd641 O669 2.682 . S
Nd641 O670 2.410 . S
C642 Nd640 2.836 . S
C642 C643 1.498 . S
C642 O660 1.258 . S
C642 O661 1.239 . S
C643 C642 1.498 . S
C643 C644 1.366 . S
C643 C648 1.407 . S
C644 C643 1.366 . S
C644 C645 1.392 . S
C644 H672 0.930 . S
C645 C644 1.392 . S
C645 C646 1.398 . S
C645 H673 0.929 . S
C646 C645 1.398 . S
C646 C647 1.352 . S
C647 C646 1.352 . S
C647 C648 1.384 . S
C647 H674 0.930 . S
C648 C643 1.407 . S
C648 C647 1.384 . S
C648 H675 0.929 . S
C649 O662 1.241 . S
C649 O663 1.273 . S
C650 O664 1.251 . S
C650 O665 1.268 . S
C651 Nd641 2.836 . S
C651 C652 1.498 . S
C651 O666 1.258 . S
C651 O667 1.239 . S
C652 C651 1.498 . S
C652 C653 1.366 . S
C652 C657 1.407 . S
C653 C652 1.366 . S
C653 C654 1.392 . S
C653 H676 0.930 . S
C654 C653 1.392 . S
C654 C655 1.398 . S
C654 H677 0.929 . S
C655 C654 1.398 . S
C655 C656 1.352 . S
C656 C655 1.352 . S
C656 C657 1.384 . S
C656 H678 0.930 . S
C657 C652 1.407 . S
C657 C656 1.384 . S
C657 H679 0.929 . S
C658 O668 1.241 . S
C658 O669 1.273 . S
C659 O670 1.251 . S
C659 O671 1.268 . S
O660 Nd640 2.500 . S
O660 C642 1.258 . S
O661 Nd640 2.492 . S
O661 C642 1.239 . S
O662 Nd640 2.487 . S
O662 C649 1.241 . S
O663 Nd640 2.682 . S
O663 Nd641 2.414 . S
O663 C649 1.273 . S
O664 Nd640 2.410 . S
O664 C650 1.251 . S
O665 Nd641 2.424 . S
O665 C650 1.268 . S
O666 Nd641 2.500 . S
O666 C651 1.258 . S
O667 Nd641 2.492 . S
O667 C651 1.239 . S
O668 Nd641 2.487 . S
O668 C658 1.241 . S
O669 Nd640 2.414 . S
O669 Nd641 2.682 . S
O669 C658 1.273 . S
O670 Nd641 2.410 . S
O670 C659 1.251 . S
O671 Nd640 2.424 . S
O671 C659 1.268 . S
H672 C644 0.930 . S
H673 C645 0.929 . S
H674 C647 0.930 . S
H675 C648 0.929 . S
H676 C653 0.930 . S
H677 C654 0.929 . S
H678 C656 0.930 . S
H679 C657 0.929 . S
Nd680 C682 2.836 . S
Nd680 O700 2.500 . S
Nd680 O701 2.492 . S
Nd680 O702 2.487 . S
Nd680 O703 2.682 . S
Nd680 O704 2.410 . S
Nd680 O709 2.414 . S
Nd680 O711 2.424 . S
Nd681 C691 2.836 . S
Nd681 O703 2.414 . S
Nd681 O705 2.424 . S
Nd681 O706 2.500 . S
Nd681 O707 2.492 . S
Nd681 O708 2.487 . S
Nd681 O709 2.682 . S
Nd681 O710 2.410 . S
C682 Nd680 2.836 . S
C682 C683 1.498 . S
C682 O700 1.258 . S
C682 O701 1.239 . S
C683 C682 1.498 . S
C683 C684 1.366 . S
C683 C688 1.407 . S
C684 C683 1.366 . S
C684 C685 1.392 . S
C684 H712 0.930 . S
C685 C684 1.392 . S
C685 C686 1.398 . S
C685 H713 0.929 . S
C686 C685 1.398 . S
C686 C687 1.352 . S
C687 C686 1.352 . S
C687 C688 1.384 . S
C687 H714 0.930 . S
C688 C683 1.407 . S
C688 C687 1.384 . S
C688 H715 0.929 . S
C689 O702 1.241 . S
C689 O703 1.273 . S
C690 O704 1.251 . S
C690 O705 1.268 . S
C691 Nd681 2.836 . S
C691 C692 1.498 . S
C691 O706 1.258 . S
C691 O707 1.239 . S
C692 C691 1.498 . S
C692 C693 1.366 . S
C692 C697 1.407 . S
C693 C692 1.366 . S
C693 C694 1.392 . S
C693 H716 0.930 . S
C694 C693 1.392 . S
C694 C695 1.398 . S
C694 H717 0.929 . S
C695 C694 1.398 . S
C695 C696 1.352 . S
C696 C695 1.352 . S
C696 C697 1.384 . S
C696 H718 0.930 . S
C697 C692 1.407 . S
C697 C696 1.384 . S
C697 H719 0.929 . S
C698 O708 1.241 . S
C698 O709 1.273 . S
C699 O710 1.251 . S
C699 O711 1.268 . S
O700 Nd680 2.500 . S
O700 C682 1.258 . S
O701 Nd680 2.492 . S
O701 C682 1.239 . S
O702 Nd680 2.487 . S
O702 C689 1.241 . S
O703 Nd680 2.682 . S
O703 Nd681 2.414 . S
O703 C689 1.273 . S
O704 Nd680 2.410 . S
O704 C690 1.251 . S
O705 Nd681 2.424 . S
O705 C690 1.268 . S
O706 Nd681 2.500 . S
O706 C691 1.258 . S
O707 Nd681 2.492 . S
O707 C691 1.239 . S
O708 Nd681 2.487 . S
O708 C698 1.241 . S
O709 Nd680 2.414 . S
O709 Nd681 2.682 . S
O709 C698 1.273 . S
O710 Nd681 2.410 . S
O710 C699 1.251 . S
O711 Nd680 2.424 . S
O711 C699 1.268 . S
H712 C684 0.930 . S
H713 C685 0.929 . S
H714 C687 0.930 . S
H715 C688 0.929 . S
H716 C693 0.930 . S
H717 C694 0.929 . S
H718 C696 0.930 . S
H719 C697 0.929 . S
Nd720 C722 2.836 . S
Nd720 O740 2.500 1_655 S
Nd720 O741 2.492 . S
Nd720 O742 2.487 . S
Nd720 O743 2.682 . S
Nd720 O744 2.410 . S
Nd720 O749 2.414 . S
Nd720 O751 2.424 . S
Nd721 C731 2.836 . S
Nd721 O743 2.414 . S
Nd721 O745 2.424 . S
Nd721 O746 2.500 . S
Nd721 O747 2.492 . S
Nd721 O748 2.487 . S
Nd721 O749 2.682 . S
Nd721 O750 2.410 . S
C722 Nd720 2.836 . S
C722 C723 1.498 1_655 S
C722 O740 1.258 1_655 S
C722 O741 1.239 . S
C723 C722 1.498 1_455 S
C723 C724 1.366 . S
C723 C728 1.407 . S
C724 C723 1.366 . S
C724 C725 1.392 . S
C724 H752 0.930 . S
C725 C724 1.392 . S
C725 C726 1.398 . S
C725 H753 0.929 . S
C726 C725 1.398 . S
C726 C727 1.352 . S
C727 C726 1.352 . S
C727 C728 1.384 . S
C727 H754 0.930 . S
C728 C723 1.407 . S
C728 C727 1.384 . S
C728 H755 0.929 . S
C729 O742 1.241 . S
C729 O743 1.273 . S
C730 O744 1.251 . S
C730 O745 1.268 . S
C731 Nd721 2.836 . S
C731 C732 1.498 . S
C731 O746 1.258 . S
C731 O747 1.239 . S
C732 C731 1.498 . S
C732 C733 1.366 . S
C732 C737 1.407 . S
C733 C732 1.366 . S
C733 C734 1.392 . S
C733 H756 0.930 . S
C734 C733 1.392 . S
C734 C735 1.398 . S
C734 H757 0.929 . S
C735 C734 1.398 . S
C735 C736 1.352 . S
C736 C735 1.352 . S
C736 C737 1.384 . S
C736 H758 0.930 . S
C737 C732 1.407 . S
C737 C736 1.384 . S
C737 H759 0.929 . S
C738 O748 1.241 . S
C738 O749 1.273 . S
C739 O750 1.251 . S
C739 O751 1.268 . S
O740 Nd720 2.500 1_455 S
O740 C722 1.258 1_455 S
O741 Nd720 2.492 . S
O741 C722 1.239 . S
O742 Nd720 2.487 . S
O742 C729 1.241 . S
O743 Nd720 2.682 . S
O743 Nd721 2.414 . S
O743 C729 1.273 . S
O744 Nd720 2.410 . S
O744 C730 1.251 . S
O745 Nd721 2.424 . S
O745 C730 1.268 . S
O746 Nd721 2.500 . S
O746 C731 1.258 . S
O747 Nd721 2.492 . S
O747 C731 1.239 . S
O748 Nd721 2.487 . S
O748 C738 1.241 . S
O749 Nd720 2.414 . S
O749 Nd721 2.682 . S
O749 C738 1.273 . S
O750 Nd721 2.410 . S
O750 C739 1.251 . S
O751 Nd720 2.424 . S
O751 C739 1.268 . S
H752 C724 0.930 . S
H753 C725 0.929 . S
H754 C727 0.930 . S
H755 C728 0.929 . S
H756 C733 0.930 . S
H757 C734 0.929 . S
H758 C736 0.930 . S
H759 C737 0.929 . S
Nd760 C762 2.836 . S
Nd760 O780 2.500 . S
Nd760 O781 2.492 . S
Nd760 O782 2.487 . S
Nd760 O783 2.682 . S
Nd760 O784 2.410 . S
Nd760 O789 2.414 . S
Nd760 O791 2.424 . S
Nd761 C771 2.836 . S
Nd761 O783 2.414 . S
Nd761 O785 2.424 . S
Nd761 O786 2.500 . S
Nd761 O787 2.492 . S
Nd761 O788 2.487 . S
Nd761 O789 2.682 . S
Nd761 O790 2.410 . S
C762 Nd760 2.836 . S
C762 C763 1.498 . S
C762 O780 1.258 . S
C762 O781 1.239 . S
C763 C762 1.498 . S
C763 C764 1.366 . S
C763 C768 1.407 . S
C764 C763 1.366 . S
C764 C765 1.392 . S
C764 H792 0.930 . S
C765 C764 1.392 . S
C765 C766 1.398 . S
C765 H793 0.929 . S
C766 C765 1.398 . S
C766 C767 1.352 . S
C767 C766 1.352 . S
C767 C768 1.384 . S
C767 H794 0.930 . S
C768 C763 1.407 . S
C768 C767 1.384 . S
C768 H795 0.929 . S
C769 O782 1.241 . S
C769 O783 1.273 . S
C770 O784 1.251 . S
C770 O785 1.268 . S
C771 Nd761 2.836 . S
C771 C772 1.498 . S
C771 O786 1.258 . S
C771 O787 1.239 . S
C772 C771 1.498 . S
C772 C773 1.366 . S
C772 C777 1.407 . S
C773 C772 1.366 . S
C773 C774 1.392 . S
C773 H796 0.930 . S
C774 C773 1.392 . S
C774 C775 1.398 . S
C774 H797 0.929 . S
C775 C774 1.398 . S
C775 C776 1.352 . S
C776 C775 1.352 . S
C776 C777 1.384 . S
C776 H798 0.930 . S
C777 C772 1.407 . S
C777 C776 1.384 . S
C777 H799 0.929 . S
C778 O788 1.241 . S
C778 O789 1.273 . S
C779 O790 1.251 . S
C779 O791 1.268 . S
O780 Nd760 2.500 . S
O780 C762 1.258 . S
O781 Nd760 2.492 . S
O781 C762 1.239 . S
O782 Nd760 2.487 . S
O782 C769 1.241 . S
O783 Nd760 2.682 . S
O783 Nd761 2.414 . S
O783 C769 1.273 . S
O784 Nd760 2.410 . S
O784 C770 1.251 . S
O785 Nd761 2.424 . S
O785 C770 1.268 . S
O786 Nd761 2.500 . S
O786 C771 1.258 . S
O787 Nd761 2.492 . S
O787 C771 1.239 . S
O788 Nd761 2.487 . S
O788 C778 1.241 . S
O789 Nd760 2.414 . S
O789 Nd761 2.682 . S
O789 C778 1.273 . S
O790 Nd761 2.410 . S
O790 C779 1.251 . S
O791 Nd760 2.424 . S
O791 C779 1.268 . S
H792 C764 0.930 . S
H793 C765 0.929 . S
H794 C767 0.930 . S
H795 C768 0.929 . S
H796 C773 0.930 . S
H797 C774 0.929 . S
H798 C776 0.930 . S
H799 C777 0.929 . S
Nd800 C802 2.836 . S
Nd800 O820 2.500 . S
Nd800 O821 2.492 . S
Nd800 O822 2.487 . S
Nd800 O823 2.682 . S
Nd800 O824 2.410 . S
Nd800 O829 2.414 . S
Nd800 O831 2.424 . S
Nd801 C811 2.836 . S
Nd801 O823 2.414 . S
Nd801 O825 2.424 . S
Nd801 O826 2.500 . S
Nd801 O827 2.492 . S
Nd801 O828 2.487 . S
Nd801 O829 2.682 . S
Nd801 O830 2.410 . S
C802 Nd800 2.836 . S
C802 C803 1.498 . S
C802 O820 1.258 . S
C802 O821 1.239 . S
C803 C802 1.498 . S
C803 C804 1.366 . S
C803 C808 1.407 . S
C804 C803 1.366 . S
C804 C805 1.392 . S
C804 H832 0.930 . S
C805 C804 1.392 . S
C805 C806 1.398 . S
C805 H833 0.929 . S
C806 C805 1.398 . S
C806 C807 1.352 . S
C807 C806 1.352 . S
C807 C808 1.384 . S
C807 H834 0.930 . S
C808 C803 1.407 . S
C808 C807 1.384 . S
C808 H835 0.929 . S
C809 O822 1.241 . S
C809 O823 1.273 . S
C810 O824 1.251 . S
C810 O825 1.268 . S
C811 Nd801 2.836 . S
C811 C812 1.498 . S
C811 O826 1.258 . S
C811 O827 1.239 . S
C812 C811 1.498 . S
C812 C813 1.366 . S
C812 C817 1.407 . S
C813 C812 1.366 . S
C813 C814 1.392 . S
C813 H836 0.930 . S
C814 C813 1.392 . S
C814 C815 1.398 . S
C814 H837 0.929 . S
C815 C814 1.398 . S
C815 C816 1.352 . S
C816 C815 1.352 . S
C816 C817 1.384 . S
C816 H838 0.930 . S
C817 C812 1.407 . S
C817 C816 1.384 . S
C817 H839 0.929 . S
C818 O828 1.241 . S
C818 O829 1.273 . S
C819 O830 1.251 . S
C819 O831 1.268 . S
O820 Nd800 2.500 . S
O820 C802 1.258 . S
O821 Nd800 2.492 . S
O821 C802 1.239 . S
O822 Nd800 2.487 . S
O822 C809 1.241 . S
O823 Nd800 2.682 . S
O823 Nd801 2.414 . S
O823 C809 1.273 . S
O824 Nd800 2.410 . S
O824 C810 1.251 . S
O825 Nd801 2.424 . S
O825 C810 1.268 . S
O826 Nd801 2.500 . S
O826 C811 1.258 . S
O827 Nd801 2.492 . S
O827 C811 1.239 . S
O828 Nd801 2.487 . S
O828 C818 1.241 . S
O829 Nd800 2.414 . S
O829 Nd801 2.682 . S
O829 C818 1.273 . S
O830 Nd801 2.410 . S
O830 C819 1.251 . S
O831 Nd800 2.424 . S
O831 C819 1.268 . S
H832 C804 0.930 . S
H833 C805 0.929 . S
H834 C807 0.930 . S
H835 C808 0.929 . S
H836 C813 0.930 . S
H837 C814 0.929 . S
H838 C816 0.930 . S
H839 C817 0.929 . S
Nd840 C842 2.836 . S
Nd840 O860 2.500 . S
Nd840 O861 2.492 . S
Nd840 O862 2.487 . S
Nd840 O863 2.682 . S
Nd840 O864 2.410 . S
Nd840 O869 2.414 . S
Nd840 O871 2.424 . S
Nd841 C851 2.836 . S
Nd841 O863 2.414 . S
Nd841 O865 2.424 . S
Nd841 O866 2.500 . S
Nd841 O867 2.492 . S
Nd841 O868 2.487 . S
Nd841 O869 2.682 . S
Nd841 O870 2.410 . S
C842 Nd840 2.836 . S
C842 C843 1.498 . S
C842 O860 1.258 . S
C842 O861 1.239 . S
C843 C842 1.498 . S
C843 C844 1.366 . S
C843 C848 1.407 . S
C844 C843 1.366 . S
C844 C845 1.392 . S
C844 H872 0.930 . S
C845 C844 1.392 . S
C845 C846 1.398 . S
C845 H873 0.929 . S
C846 C845 1.398 . S
C846 C847 1.352 . S
C847 C846 1.352 . S
C847 C848 1.384 . S
C847 H874 0.930 . S
C848 C843 1.407 . S
C848 C847 1.384 . S
C848 H875 0.929 . S
C849 O862 1.241 . S
C849 O863 1.273 . S
C850 O864 1.251 . S
C850 O865 1.268 . S
C851 Nd841 2.836 . S
C851 C852 1.498 . S
C851 O866 1.258 . S
C851 O867 1.239 . S
C852 C851 1.498 . S
C852 C853 1.366 . S
C852 C857 1.407 . S
C853 C852 1.366 . S
C853 C854 1.392 . S
C853 H876 0.930 . S
C854 C853 1.392 . S
C854 C855 1.398 . S
C854 H877 0.929 . S
C855 C854 1.398 . S
C855 C856 1.352 . S
C856 C855 1.352 . S
C856 C857 1.384 . S
C856 H878 0.930 . S
C857 C852 1.407 . S
C857 C856 1.384 . S
C857 H879 0.929 . S
C858 O868 1.241 . S
C858 O869 1.273 . S
C859 O870 1.251 . S
C859 O871 1.268 . S
O860 Nd840 2.500 . S
O860 C842 1.258 . S
O861 Nd840 2.492 . S
O861 C842 1.239 . S
O862 Nd840 2.487 . S
O862 C849 1.241 . S
O863 Nd840 2.682 . S
O863 Nd841 2.414 . S
O863 C849 1.273 . S
O864 Nd840 2.410 . S
O864 C850 1.251 . S
O865 Nd841 2.424 . S
O865 C850 1.268 . S
O866 Nd841 2.500 . S
O866 C851 1.258 . S
O867 Nd841 2.492 . S
O867 C851 1.239 . S
O868 Nd841 2.487 . S
O868 C858 1.241 . S
O869 Nd840 2.414 . S
O869 Nd841 2.682 . S
O869 C858 1.273 . S
O870 Nd841 2.410 . S
O870 C859 1.251 . S
O871 Nd840 2.424 . S
O871 C859 1.268 . S
H872 C844 0.930 . S
H873 C845 0.929 . S
H874 C847 0.930 . S
H875 C848 0.929 . S
H876 C853 0.930 . S
H877 C854 0.929 . S
H878 C856 0.930 . S
H879 C857 0.929 . S
Nd880 C882 2.836 . S
Nd880 O900 2.500 1_655 S
Nd880 O901 2.492 . S
Nd880 O902 2.487 . S
Nd880 O903 2.682 . S
Nd880 O904 2.410 . S
Nd880 O909 2.414 . S
Nd880 O911 2.424 . S
Nd881 C891 2.836 . S
Nd881 O903 2.414 . S
Nd881 O905 2.424 . S
Nd881 O906 2.500 . S
Nd881 O907 2.492 . S
Nd881 O908 2.487 . S
Nd881 O909 2.682 . S
Nd881 O910 2.410 . S
C882 Nd880 2.836 . S
C882 C883 1.498 1_655 S
C882 O900 1.258 1_655 S
C882 O901 1.239 . S
C883 C882 1.498 1_455 S
C883 C884 1.366 . S
C883 C888 1.407 . S
C884 C883 1.366 . S
C884 C885 1.392 . S
C884 H912 0.930 . S
C885 C884 1.392 . S
C885 C886 1.398 . S
C885 H913 0.929 . S
C886 C885 1.398 . S
C886 C887 1.352 . S
C887 C886 1.352 . S
C887 C888 1.384 . S
C887 H914 0.930 . S
C888 C883 1.407 . S
C888 C887 1.384 . S
C888 H915 0.929 . S
C889 O902 1.241 . S
C889 O903 1.273 . S
C890 O904 1.251 . S
C890 O905 1.268 . S
C891 Nd881 2.836 . S
C891 C892 1.498 . S
C891 O906 1.258 . S
C891 O907 1.239 . S
C892 C891 1.498 . S
C892 C893 1.366 . S
C892 C897 1.407 . S
C893 C892 1.366 . S
C893 C894 1.392 . S
C893 H916 0.930 . S
C894 C893 1.392 . S
C894 C895 1.398 . S
C894 H917 0.929 . S
C895 C894 1.398 . S
C895 C896 1.352 . S
C896 C895 1.352 . S
C896 C897 1.384 . S
C896 H918 0.930 . S
C897 C892 1.407 . S
C897 C896 1.384 . S
C897 H919 0.929 . S
C898 O908 1.241 . S
C898 O909 1.273 . S
C899 O910 1.251 . S
C899 O911 1.268 . S
O900 Nd880 2.500 1_455 S
O900 C882 1.258 1_455 S
O901 Nd880 2.492 . S
O901 C882 1.239 . S
O902 Nd880 2.487 . S
O902 C889 1.241 . S
O903 Nd880 2.682 . S
O903 Nd881 2.414 . S
O903 C889 1.273 . S
O904 Nd880 2.410 . S
O904 C890 1.251 . S
O905 Nd881 2.424 . S
O905 C890 1.268 . S
O906 Nd881 2.500 . S
O906 C891 1.258 . S
O907 Nd881 2.492 . S
O907 C891 1.239 . S
O908 Nd881 2.487 . S
O908 C898 1.241 . S
O909 Nd880 2.414 . S
O909 Nd881 2.682 . S
O909 C898 1.273 . S
O910 Nd881 2.410 . S
O910 C899 1.251 . S
O911 Nd880 2.424 . S
O911 C899 1.268 . S
H912 C884 0.930 . S
H913 C885 0.929 . S
H914 C887 0.930 . S
H915 C888 0.929 . S
H916 C893 0.930 . S
H917 C894 0.929 . S
H918 C896 0.930 . S
H919 C897 0.929 . S
Nd920 C922 2.836 . S
Nd920 O940 2.500 . S
Nd920 O941 2.492 . S
Nd920 O942 2.487 . S
Nd920 O943 2.682 . S
Nd920 O944 2.410 . S
Nd920 O949 2.414 . S
Nd920 O951 2.424 . S
Nd921 C931 2.836 . S
Nd921 O943 2.414 . S
Nd921 O945 2.424 . S
Nd921 O946 2.500 . S
Nd921 O947 2.492 . S
Nd921 O948 2.487 . S
Nd921 O949 2.682 . S
Nd921 O950 2.410 . S
C922 Nd920 2.836 . S
C922 C923 1.498 . S
C922 O940 1.258 . S
C922 O941 1.239 . S
C923 C922 1.498 . S
C923 C924 1.366 . S
C923 C928 1.407 . S
C924 C923 1.366 . S
C924 C925 1.392 . S
C924 H952 0.930 . S
C925 C924 1.392 . S
C925 C926 1.398 . S
C925 H953 0.929 . S
C926 C925 1.398 . S
C926 C927 1.352 . S
C927 C926 1.352 . S
C927 C928 1.384 . S
C927 H954 0.930 . S
C928 C923 1.407 . S
C928 C927 1.384 . S
C928 H955 0.929 . S
C929 O942 1.241 . S
C929 O943 1.273 . S
C930 O944 1.251 . S
C930 O945 1.268 . S
C931 Nd921 2.836 . S
C931 C932 1.498 . S
C931 O946 1.258 . S
C931 O947 1.239 . S
C932 C931 1.498 . S
C932 C933 1.366 . S
C932 C937 1.407 . S
C933 C932 1.366 . S
C933 C934 1.392 . S
C933 H956 0.930 . S
C934 C933 1.392 . S
C934 C935 1.398 . S
C934 H957 0.929 . S
C935 C934 1.398 . S
C935 C936 1.352 . S
C936 C935 1.352 . S
C936 C937 1.384 . S
C936 H958 0.930 . S
C937 C932 1.407 . S
C937 C936 1.384 . S
C937 H959 0.929 . S
C938 O948 1.241 . S
C938 O949 1.273 . S
C939 O950 1.251 . S
C939 O951 1.268 . S
O940 Nd920 2.500 . S
O940 C922 1.258 . S
O941 Nd920 2.492 . S
O941 C922 1.239 . S
O942 Nd920 2.487 . S
O942 C929 1.241 . S
O943 Nd920 2.682 . S
O943 Nd921 2.414 . S
O943 C929 1.273 . S
O944 Nd920 2.410 . S
O944 C930 1.251 . S
O945 Nd921 2.424 . S
O945 C930 1.268 . S
O946 Nd921 2.500 . S
O946 C931 1.258 . S
O947 Nd921 2.492 . S
O947 C931 1.239 . S
O948 Nd921 2.487 . S
O948 C938 1.241 . S
O949 Nd920 2.414 . S
O949 Nd921 2.682 . S
O949 C938 1.273 . S
O950 Nd921 2.410 . S
O950 C939 1.251 . S
O951 Nd920 2.424 . S
O951 C939 1.268 . S
H952 C924 0.930 . S
H953 C925 0.929 . S
H954 C927 0.930 . S
H955 C928 0.929 . S
H956 C933 0.930 . S
H957 C934 0.929 . S
H958 C936 0.930 . S
H959 C937 0.929 . S
Nd960 C962 2.836 . S
Nd960 O980 2.500 . S
Nd960 O981 2.492 . S
Nd960 O982 2.487 . S
Nd960 O983 2.682 . S
Nd960 O984 2.410 . S
Nd960 O989 2.414 . S
Nd960 O991 2.424 . S
Nd961 C971 2.836 . S
Nd961 O983 2.414 . S
Nd961 O985 2.424 . S
Nd961 O986 2.500 . S
Nd961 O987 2.492 . S
Nd961 O988 2.487 . S
Nd961 O989 2.682 . S
Nd961 O990 2.410 . S
C962 Nd960 2.836 . S
C962 C963 1.498 . S
C962 O980 1.258 . S
C962 O981 1.239 . S
C963 C962 1.498 . S
C963 C964 1.366 . S
C963 C968 1.407 . S
C964 C963 1.366 . S
C964 C965 1.392 . S
C964 H992 0.930 . S
C965 C964 1.392 . S
C965 C966 1.398 . S
C965 H993 0.929 . S
C966 C965 1.398 . S
C966 C967 1.352 . S
C967 C966 1.352 . S
C967 C968 1.384 . S
C967 H994 0.930 . S
C968 C963 1.407 . S
C968 C967 1.384 . S
C968 H995 0.929 . S
C969 O982 1.241 . S
C969 O983 1.273 . S
C970 O984 1.251 . S
C970 O985 1.268 . S
C971 Nd961 2.836 . S
C971 C972 1.498 . S
C971 O986 1.258 . S
C971 O987 1.239 . S
C972 C971 1.498 . S
C972 C973 1.366 . S
C972 C977 1.407 . S
C973 C972 1.366 . S
C973 C974 1.392 . S
C973 H996 0.930 . S
C974 C973 1.392 . S
C974 C975 1.398 . S
C974 H997 0.929 . S
C975 C974 1.398 . S
C975 C976 1.352 . S
C976 C975 1.352 . S
C976 C977 1.384 . S
C976 H998 0.930 . S
C977 C972 1.407 . S
C977 C976 1.384 . S
C977 H999 0.929 . S
C978 O988 1.241 . S
C978 O989 1.273 . S
C979 O990 1.251 . S
C979 O991 1.268 . S
O980 Nd960 2.500 . S
O980 C962 1.258 . S
O981 Nd960 2.492 . S
O981 C962 1.239 . S
O982 Nd960 2.487 . S
O982 C969 1.241 . S
O983 Nd960 2.682 . S
O983 Nd961 2.414 . S
O983 C969 1.273 . S
O984 Nd960 2.410 . S
O984 C970 1.251 . S
O985 Nd961 2.424 . S
O985 C970 1.268 . S
O986 Nd961 2.500 . S
O986 C971 1.258 . S
O987 Nd961 2.492 . S
O987 C971 1.239 . S
O988 Nd961 2.487 . S
O988 C978 1.241 . S
O989 Nd960 2.414 . S
O989 Nd961 2.682 . S
O989 C978 1.273 . S
O990 Nd961 2.410 . S
O990 C979 1.251 . S
O991 Nd960 2.424 . S
O991 C979 1.268 . S
H992 C964 0.930 . S
H993 C965 0.929 . S
H994 C967 0.930 . S
H995 C968 0.929 . S
H996 C973 0.930 . S
H997 C974 0.929 . S
H998 C976 0.930 . S
H999 C977 0.929 . S
Nd1000 C1002 2.836 . S
Nd1000 O1020 2.500 . S
Nd1000 O1021 2.492 . S
Nd1000 O1022 2.487 . S
Nd1000 O1023 2.682 . S
Nd1000 O1024 2.410 . S
Nd1000 O1029 2.414 . S
Nd1000 O1031 2.424 . S
Nd1001 C1011 2.836 . S
Nd1001 O1023 2.414 . S
Nd1001 O1025 2.424 . S
Nd1001 O1026 2.500 . S
Nd1001 O1027 2.492 . S
Nd1001 O1028 2.487 . S
Nd1001 O1029 2.682 . S
Nd1001 O1030 2.410 . S
C1002 Nd1000 2.836 . S
C1002 C1003 1.498 . S
C1002 O1020 1.258 . S
C1002 O1021 1.239 . S
C1003 C1002 1.498 . S
C1003 C1004 1.366 . S
C1003 C1008 1.407 . S
C1004 C1003 1.366 . S
C1004 C1005 1.392 . S
C1004 H1032 0.930 . S
C1005 C1004 1.392 . S
C1005 C1006 1.398 . S
C1005 H1033 0.929 . S
C1006 C1005 1.398 . S
C1006 C1007 1.352 . S
C1007 C1006 1.352 . S
C1007 C1008 1.384 . S
C1007 H1034 0.930 . S
C1008 C1003 1.407 . S
C1008 C1007 1.384 . S
C1008 H1035 0.929 . S
C1009 O1022 1.241 . S
C1009 O1023 1.273 . S
C1010 O1024 1.251 . S
C1010 O1025 1.268 . S
C1011 Nd1001 2.836 . S
C1011 C1012 1.498 . S
C1011 O1026 1.258 . S
C1011 O1027 1.239 . S
C1012 C1011 1.498 . S
C1012 C1013 1.366 . S
C1012 C1017 1.407 . S
C1013 C1012 1.366 . S
C1013 C1014 1.392 . S
C1013 H1036 0.930 . S
C1014 C1013 1.392 . S
C1014 C1015 1.398 . S
C1014 H1037 0.929 . S
C1015 C1014 1.398 . S
C1015 C1016 1.352 . S
C1016 C1015 1.352 . S
C1016 C1017 1.384 . S
C1016 H1038 0.930 . S
C1017 C1012 1.407 . S
C1017 C1016 1.384 . S
C1017 H1039 0.929 . S
C1018 O1028 1.241 . S
C1018 O1029 1.273 . S
C1019 O1030 1.251 . S
C1019 O1031 1.268 . S
O1020 Nd1000 2.500 . S
O1020 C1002 1.258 . S
O1021 Nd1000 2.492 . S
O1021 C1002 1.239 . S
O1022 Nd1000 2.487 . S
O1022 C1009 1.241 . S
O1023 Nd1000 2.682 . S
O1023 Nd1001 2.414 . S
O1023 C1009 1.273 . S
O1024 Nd1000 2.410 . S
O1024 C1010 1.251 . S
O1025 Nd1001 2.424 . S
O1025 C1010 1.268 . S
O1026 Nd1001 2.500 . S
O1026 C1011 1.258 . S
O1027 Nd1001 2.492 . S
O1027 C1011 1.239 . S
O1028 Nd1001 2.487 . S
O1028 C1018 1.241 . S
O1029 Nd1000 2.414 . S
O1029 Nd1001 2.682 . S
O1029 C1018 1.273 . S
O1030 Nd1001 2.410 . S
O1030 C1019 1.251 . S
O1031 Nd1000 2.424 . S
O1031 C1019 1.268 . S
H1032 C1004 0.930 . S
H1033 C1005 0.929 . S
H1034 C1007 0.930 . S
H1035 C1008 0.929 . S
H1036 C1013 0.930 . S
H1037 C1014 0.929 . S
H1038 C1016 0.930 . S
H1039 C1017 0.929 . S
Nd1040 C1042 2.836 . S
Nd1040 O1060 2.500 . S
Nd1040 O1061 2.492 . S
Nd1040 O1062 2.487 . S
Nd1040 O1063 2.682 . S
Nd1040 O1064 2.410 . S
Nd1040 O1069 2.414 . S
Nd1040 O1071 2.424 . S
Nd1041 C1051 2.836 . S
Nd1041 O1063 2.414 . S
Nd1041 O1065 2.424 . S
Nd1041 O1066 2.500 1_455 S
Nd1041 O1067 2.492 . S
Nd1041 O1068 2.487 . S
Nd1041 O1069 2.682 . S
Nd1041 O1070 2.410 . S
C1042 Nd1040 2.836 . S
C1042 C1043 1.498 . S
C1042 O1060 1.258 . S
C1042 O1061 1.239 . S
C1043 C1042 1.498 . S
C1043 C1044 1.366 . S
C1043 C1048 1.407 . S
C1044 C1043 1.366 . S
C1044 C1045 1.392 . S
C1044 H1072 0.930 . S
C1045 C1044 1.392 . S
C1045 C1046 1.398 . S
C1045 H1073 0.929 . S
C1046 C1045 1.398 . S
C1046 C1047 1.352 . S
C1047 C1046 1.352 . S
C1047 C1048 1.384 . S
C1047 H1074 0.930 . S
C1048 C1043 1.407 . S
C1048 C1047 1.384 . S
C1048 H1075 0.929 . S
C1049 O1062 1.241 . S
C1049 O1063 1.273 . S
C1050 O1064 1.251 . S
C1050 O1065 1.268 . S
C1051 Nd1041 2.836 . S
C1051 C1052 1.498 1_455 S
C1051 O1066 1.258 1_455 S
C1051 O1067 1.239 . S
C1052 C1051 1.498 1_655 S
C1052 C1053 1.366 . S
C1052 C1057 1.407 . S
C1053 C1052 1.366 . S
C1053 C1054 1.392 . S
C1053 H1076 0.930 . S
C1054 C1053 1.392 . S
C1054 C1055 1.398 . S
C1054 H1077 0.929 . S
C1055 C1054 1.398 . S
C1055 C1056 1.352 . S
C1056 C1055 1.352 . S
C1056 C1057 1.384 . S
C1056 H1078 0.930 . S
C1057 C1052 1.407 . S
C1057 C1056 1.384 . S
C1057 H1079 0.929 . S
C1058 O1068 1.241 . S
C1058 O1069 1.273 . S
C1059 O1070 1.251 . S
C1059 O1071 1.268 . S
O1060 Nd1040 2.500 . S
O1060 C1042 1.258 . S
O1061 Nd1040 2.492 . S
O1061 C1042 1.239 . S
O1062 Nd1040 2.487 . S
O1062 C1049 1.241 . S
O1063 Nd1040 2.682 . S
O1063 Nd1041 2.414 . S
O1063 C1049 1.273 . S
O1064 Nd1040 2.410 . S
O1064 C1050 1.251 . S
O1065 Nd1041 2.424 . S
O1065 C1050 1.268 . S
O1066 Nd1041 2.500 1_655 S
O1066 C1051 1.258 1_655 S
O1067 Nd1041 2.492 . S
O1067 C1051 1.239 . S
O1068 Nd1041 2.487 . S
O1068 C1058 1.241 . S
O1069 Nd1040 2.414 . S
O1069 Nd1041 2.682 . S
O1069 C1058 1.273 . S
O1070 Nd1041 2.410 . S
O1070 C1059 1.251 . S
O1071 Nd1040 2.424 . S
O1071 C1059 1.268 . S
H1072 C1044 0.930 . S
H1073 C1045 0.929 . S
H1074 C1047 0.930 . S
H1075 C1048 0.929 . S
H1076 C1053 0.930 . S
H1077 C1054 0.929 . S
H1078 C1056 0.930 . S
H1079 C1057 0.929 . S
Nd1080 C1082 2.836 . S
Nd1080 O1100 2.500 . S
Nd1080 O1101 2.492 . S
Nd1080 O1102 2.487 . S
Nd1080 O1103 2.682 . S
Nd1080 O1104 2.410 . S
Nd1080 O1109 2.414 . S
Nd1080 O1111 2.424 . S
Nd1081 C1091 2.836 . S
Nd1081 O1103 2.414 . S
Nd1081 O1105 2.424 . S
Nd1081 O1106 2.500 . S
Nd1081 O1107 2.492 . S
Nd1081 O1108 2.487 . S
Nd1081 O1109 2.682 . S
Nd1081 O1110 2.410 . S
C1082 Nd1080 2.836 . S
C1082 C1083 1.498 . S
C1082 O1100 1.258 . S
C1082 O1101 1.239 . S
C1083 C1082 1.498 . S
C1083 C1084 1.366 . S
C1083 C1088 1.407 . S
C1084 C1083 1.366 . S
C1084 C1085 1.392 . S
C1084 H1112 0.930 . S
C1085 C1084 1.392 . S
C1085 C1086 1.398 . S
C1085 H1113 0.929 . S
C1086 C1085 1.398 . S
C1086 C1087 1.352 . S
C1087 C1086 1.352 . S
C1087 C1088 1.384 . S
C1087 H1114 0.930 . S
C1088 C1083 1.407 . S
C1088 C1087 1.384 . S
C1088 H1115 0.929 . S
C1089 O1102 1.241 . S
C1089 O1103 1.273 . S
C1090 O1104 1.251 . S
C1090 O1105 1.268 . S
C1091 Nd1081 2.836 . S
C1091 C1092 1.498 . S
C1091 O1106 1.258 . S
C1091 O1107 1.239 . S
C1092 C1091 1.498 . S
C1092 C1093 1.366 . S
C1092 C1097 1.407 . S
C1093 C1092 1.366 . S
C1093 C1094 1.392 . S
C1093 H1116 0.930 . S
C1094 C1093 1.392 . S
C1094 C1095 1.398 . S
C1094 H1117 0.929 . S
C1095 C1094 1.398 . S
C1095 C1096 1.352 . S
C1096 C1095 1.352 . S
C1096 C1097 1.384 . S
C1096 H1118 0.930 . S
C1097 C1092 1.407 . S
C1097 C1096 1.384 . S
C1097 H1119 0.929 . S
C1098 O1108 1.241 . S
C1098 O1109 1.273 . S
C1099 O1110 1.251 . S
C1099 O1111 1.268 . S
O1100 Nd1080 2.500 . S
O1100 C1082 1.258 . S
O1101 Nd1080 2.492 . S
O1101 C1082 1.239 . S
O1102 Nd1080 2.487 . S
O1102 C1089 1.241 . S
O1103 Nd1080 2.682 . S
O1103 Nd1081 2.414 . S
O1103 C1089 1.273 . S
O1104 Nd1080 2.410 . S
O1104 C1090 1.251 . S
O1105 Nd1081 2.424 . S
O1105 C1090 1.268 . S
O1106 Nd1081 2.500 . S
O1106 C1091 1.258 . S
O1107 Nd1081 2.492 . S
O1107 C1091 1.239 . S
O1108 Nd1081 2.487 . S
O1108 C1098 1.241 . S
O1109 Nd1080 2.414 . S
O1109 Nd1081 2.682 . S
O1109 C1098 1.273 . S
O1110 Nd1081 2.410 . S
O1110 C1099 1.251 . S
O1111 Nd1080 2.424 . S
O1111 C1099 1.268 . S
H1112 C1084 0.930 . S
H1113 C1085 0.929 . S
H1114 C1087 0.930 . S
H1115 C1088 0.929 . S
H1116 C1093 0.930 . S
H1117 C1094 0.929 . S
H1118 C1096 0.930 . S
H1119 C1097 0.929 . S
Nd1120 C1122 2.836 . S
Nd1120 O1140 2.500 . S
Nd1120 O1141 2.492 . S
Nd1120 O1142 2.487 . S
Nd1120 O1143 2.682 . S
Nd1120 O1144 2.410 . S
Nd1120 O1149 2.414 . S
Nd1120 O1151 2.424 . S
Nd1121 C1131 2.836 . S
Nd1121 O1143 2.414 . S
Nd1121 O1145 2.424 . S
Nd1121 O1146 2.500 . S
Nd1121 O1147 2.492 . S
Nd1121 O1148 2.487 . S
Nd1121 O1149 2.682 . S
Nd1121 O1150 2.410 . S
C1122 Nd1120 2.836 . S
C1122 C1123 1.498 . S
C1122 O1140 1.258 . S
C1122 O1141 1.239 . S
C1123 C1122 1.498 . S
C1123 C1124 1.366 . S
C1123 C1128 1.407 . S
C1124 C1123 1.366 . S
C1124 C1125 1.392 . S
C1124 H1152 0.930 . S
C1125 C1124 1.392 . S
C1125 C1126 1.398 . S
C1125 H1153 0.929 . S
C1126 C1125 1.398 . S
C1126 C1127 1.352 . S
C1127 C1126 1.352 . S
C1127 C1128 1.384 . S
C1127 H1154 0.930 . S
C1128 C1123 1.407 . S
C1128 C1127 1.384 . S
C1128 H1155 0.929 . S
C1129 O1142 1.241 . S
C1129 O1143 1.273 . S
C1130 O1144 1.251 . S
C1130 O1145 1.268 . S
C1131 Nd1121 2.836 . S
C1131 C1132 1.498 . S
C1131 O1146 1.258 . S
C1131 O1147 1.239 . S
C1132 C1131 1.498 . S
C1132 C1133 1.366 . S
C1132 C1137 1.407 . S
C1133 C1132 1.366 . S
C1133 C1134 1.392 . S
C1133 H1156 0.930 . S
C1134 C1133 1.392 . S
C1134 C1135 1.398 . S
C1134 H1157 0.929 . S
C1135 C1134 1.398 . S
C1135 C1136 1.352 . S
C1136 C1135 1.352 . S
C1136 C1137 1.384 . S
C1136 H1158 0.930 . S
C1137 C1132 1.407 . S
C1137 C1136 1.384 . S
C1137 H1159 0.929 . S
C1138 O1148 1.241 . S
C1138 O1149 1.273 . S
C1139 O1150 1.251 . S
C1139 O1151 1.268 . S
O1140 Nd1120 2.500 . S
O1140 C1122 1.258 . S
O1141 Nd1120 2.492 . S
O1141 C1122 1.239 . S
O1142 Nd1120 2.487 . S
O1142 C1129 1.241 . S
O1143 Nd1120 2.682 . S
O1143 Nd1121 2.414 . S
O1143 C1129 1.273 . S
O1144 Nd1120 2.410 . S
O1144 C1130 1.251 . S
O1145 Nd1121 2.424 . S
O1145 C1130 1.268 . S
O1146 Nd1121 2.500 . S
O1146 C1131 1.258 . S
O1147 Nd1121 2.492 . S
O1147 C1131 1.239 . S
O1148 Nd1121 2.487 . S
O1148 C1138 1.241 . S
O1149 Nd1120 2.414 . S
O1149 Nd1121 2.682 . S
O1149 C1138 1.273 . S
O1150 Nd1121 2.410 . S
O1150 C1139 1.251 . S
O1151 Nd1120 2.424 . S
O1151 C1139 1.268 . S
H1152 C1124 0.930 . S
H1153 C1125 0.929 . S
H1154 C1127 0.930 . S
H1155 C1128 0.929 . S
H1156 C1133 0.930 . S
H1157 C1134 0.929 . S
H1158 C1136 0.930 . S
H1159 C1137 0.929 . S
Nd1160 C1162 2.836 . S
Nd1160 O1180 2.500 . S
Nd1160 O1181 2.492 . S
Nd1160 O1182 2.487 . S
Nd1160 O1183 2.682 . S
Nd1160 O1184 2.410 . S
Nd1160 O1189 2.414 . S
Nd1160 O1191 2.424 . S
Nd1161 C1171 2.836 . S
Nd1161 O1183 2.414 . S
Nd1161 O1185 2.424 . S
Nd1161 O1186 2.500 . S
Nd1161 O1187 2.492 . S
Nd1161 O1188 2.487 . S
Nd1161 O1189 2.682 . S
Nd1161 O1190 2.410 . S
C1162 Nd1160 2.836 . S
C1162 C1163 1.498 . S
C1162 O1180 1.258 . S
C1162 O1181 1.239 . S
C1163 C1162 1.498 . S
C1163 C1164 1.366 . S
C1163 C1168 1.407 . S
C1164 C1163 1.366 . S
C1164 C1165 1.392 . S
C1164 H1192 0.930 . S
C1165 C1164 1.392 . S
C1165 C1166 1.398 . S
C1165 H1193 0.929 . S
C1166 C1165 1.398 . S
C1166 C1167 1.352 . S
C1167 C1166 1.352 . S
C1167 C1168 1.384 . S
C1167 H1194 0.930 . S
C1168 C1163 1.407 . S
C1168 C1167 1.384 . S
C1168 H1195 0.929 . S
C1169 O1182 1.241 . S
C1169 O1183 1.273 . S
C1170 O1184 1.251 . S
C1170 O1185 1.268 . S
C1171 Nd1161 2.836 . S
C1171 C1172 1.498 . S
C1171 O1186 1.258 . S
C1171 O1187 1.239 . S
C1172 C1171 1.498 . S
C1172 C1173 1.366 . S
C1172 C1177 1.407 . S
C1173 C1172 1.366 . S
C1173 C1174 1.392 . S
C1173 H1196 0.930 . S
C1174 C1173 1.392 . S
C1174 C1175 1.398 . S
C1174 H1197 0.929 . S
C1175 C1174 1.398 . S
C1175 C1176 1.352 . S
C1176 C1175 1.352 . S
C1176 C1177 1.384 . S
C1176 H1198 0.930 . S
C1177 C1172 1.407 . S
C1177 C1176 1.384 . S
C1177 H1199 0.929 . S
C1178 O1188 1.241 . S
C1178 O1189 1.273 . S
C1179 O1190 1.251 . S
C1179 O1191 1.268 . S
O1180 Nd1160 2.500 . S
O1180 C1162 1.258 . S
O1181 Nd1160 2.492 . S
O1181 C1162 1.239 . S
O1182 Nd1160 2.487 . S
O1182 C1169 1.241 . S
O1183 Nd1160 2.682 . S
O1183 Nd1161 2.414 . S
O1183 C1169 1.273 . S
O1184 Nd1160 2.410 . S
O1184 C1170 1.251 . S
O1185 Nd1161 2.424 . S
O1185 C1170 1.268 . S
O1186 Nd1161 2.500 . S
O1186 C1171 1.258 . S
O1187 Nd1161 2.492 . S
O1187 C1171 1.239 . S
O1188 Nd1161 2.487 . S
O1188 C1178 1.241 . S
O1189 Nd1160 2.414 . S
O1189 Nd1161 2.682 . S
O1189 C1178 1.273 . S
O1190 Nd1161 2.410 . S
O1190 C1179 1.251 . S
O1191 Nd1160 2.424 . S
O1191 C1179 1.268 . S
H1192 C1164 0.930 . S
H1193 C1165 0.929 . S
H1194 C1167 0.930 . S
H1195 C1168 0.929 . S
H1196 C1173 0.930 . S
H1197 C1174 0.929 . S
H1198 C1176 0.930 . S
H1199 C1177 0.929 . S
Nd1200 C1202 2.836 . S
Nd1200 O1220 2.500 . S
Nd1200 O1221 2.492 . S
Nd1200 O1222 2.487 . S
Nd1200 O1223 2.682 . S
Nd1200 O1224 2.410 . S
Nd1200 O1229 2.414 . S
Nd1200 O1231 2.424 . S
Nd1201 C1211 2.836 . S
Nd1201 O1223 2.414 . S
Nd1201 O1225 2.424 . S
Nd1201 O1226 2.500 1_455 S
Nd1201 O1227 2.492 . S
Nd1201 O1228 2.487 . S
Nd1201 O1229 2.682 . S
Nd1201 O1230 2.410 . S
C1202 Nd1200 2.836 . S
C1202 C1203 1.498 . S
C1202 O1220 1.258 . S
C1202 O1221 1.239 . S
C1203 C1202 1.498 . S
C1203 C1204 1.366 . S
C1203 C1208 1.407 . S
C1204 C1203 1.366 . S
C1204 C1205 1.392 . S
C1204 H1232 0.930 . S
C1205 C1204 1.392 . S
C1205 C1206 1.398 . S
C1205 H1233 0.929 . S
C1206 C1205 1.398 . S
C1206 C1207 1.352 . S
C1207 C1206 1.352 . S
C1207 C1208 1.384 . S
C1207 H1234 0.930 . S
C1208 C1203 1.407 . S
C1208 C1207 1.384 . S
C1208 H1235 0.929 . S
C1209 O1222 1.241 . S
C1209 O1223 1.273 . S
C1210 O1224 1.251 . S
C1210 O1225 1.268 . S
C1211 Nd1201 2.836 . S
C1211 C1212 1.498 1_455 S
C1211 O1226 1.258 1_455 S
C1211 O1227 1.239 . S
C1212 C1211 1.498 1_655 S
C1212 C1213 1.366 . S
C1212 C1217 1.407 . S
C1213 C1212 1.366 . S
C1213 C1214 1.392 . S
C1213 H1236 0.930 . S
C1214 C1213 1.392 . S
C1214 C1215 1.398 . S
C1214 H1237 0.929 . S
C1215 C1214 1.398 . S
C1215 C1216 1.352 . S
C1216 C1215 1.352 . S
C1216 C1217 1.384 . S
C1216 H1238 0.930 . S
C1217 C1212 1.407 . S
C1217 C1216 1.384 . S
C1217 H1239 0.929 . S
C1218 O1228 1.241 . S
C1218 O1229 1.273 . S
C1219 O1230 1.251 . S
C1219 O1231 1.268 . S
O1220 Nd1200 2.500 . S
O1220 C1202 1.258 . S
O1221 Nd1200 2.492 . S
O1221 C1202 1.239 . S
O1222 Nd1200 2.487 . S
O1222 C1209 1.241 . S
O1223 Nd1200 2.682 . S
O1223 Nd1201 2.414 . S
O1223 C1209 1.273 . S
O1224 Nd1200 2.410 . S
O1224 C1210 1.251 . S
O1225 Nd1201 2.424 . S
O1225 C1210 1.268 . S
O1226 Nd1201 2.500 1_655 S
O1226 C1211 1.258 1_655 S
O1227 Nd1201 2.492 . S
O1227 C1211 1.239 . S
O1228 Nd1201 2.487 . S
O1228 C1218 1.241 . S
O1229 Nd1200 2.414 . S
O1229 Nd1201 2.682 . S
O1229 C1218 1.273 . S
O1230 Nd1201 2.410 . S
O1230 C1219 1.251 . S
O1231 Nd1200 2.424 . S
O1231 C1219 1.268 . S
H1232 C1204 0.930 . S
H1233 C1205 0.929 . S
H1234 C1207 0.930 . S
H1235 C1208 0.929 . S
H1236 C1213 0.930 . S
H1237 C1214 0.929 . S
H1238 C1216 0.930 . S
H1239 C1217 0.929 . S
Nd1240 C1242 2.836 . S
Nd1240 O1260 2.500 . S
Nd1240 O1261 2.492 . S
Nd1240 O1262 2.487 . S
Nd1240 O1263 2.682 . S
Nd1240 O1264 2.410 . S
Nd1240 O1269 2.414 . S
Nd1240 O1271 2.424 . S
Nd1241 C1251 2.836 . S
Nd1241 O1263 2.414 . S
Nd1241 O1265 2.424 . S
Nd1241 O1266 2.500 . S
Nd1241 O1267 2.492 . S
Nd1241 O1268 2.487 . S
Nd1241 O1269 2.682 . S
Nd1241 O1270 2.410 . S
C1242 Nd1240 2.836 . S
C1242 C1243 1.498 . S
C1242 O1260 1.258 . S
C1242 O1261 1.239 . S
C1243 C1242 1.498 . S
C1243 C1244 1.366 . S
C1243 C1248 1.407 . S
C1244 C1243 1.366 . S
C1244 C1245 1.392 . S
C1244 H1272 0.930 . S
C1245 C1244 1.392 . S
C1245 C1246 1.398 . S
C1245 H1273 0.929 . S
C1246 C1245 1.398 . S
C1246 C1247 1.352 . S
C1247 C1246 1.352 . S
C1247 C1248 1.384 . S
C1247 H1274 0.930 . S
C1248 C1243 1.407 . S
C1248 C1247 1.384 . S
C1248 H1275 0.929 . S
C1249 O1262 1.241 . S
C1249 O1263 1.273 . S
C1250 O1264 1.251 . S
C1250 O1265 1.268 . S
C1251 Nd1241 2.836 . S
C1251 C1252 1.498 . S
C1251 O1266 1.258 . S
C1251 O1267 1.239 . S
C1252 C1251 1.498 . S
C1252 C1253 1.366 . S
C1252 C1257 1.407 . S
C1253 C1252 1.366 . S
C1253 C1254 1.392 . S
C1253 H1276 0.930 . S
C1254 C1253 1.392 . S
C1254 C1255 1.398 . S
C1254 H1277 0.929 . S
C1255 C1254 1.398 . S
C1255 C1256 1.352 . S
C1256 C1255 1.352 . S
C1256 C1257 1.384 . S
C1256 H1278 0.930 . S
C1257 C1252 1.407 . S
C1257 C1256 1.384 . S
C1257 H1279 0.929 . S
C1258 O1268 1.241 . S
C1258 O1269 1.273 . S
C1259 O1270 1.251 . S
C1259 O1271 1.268 . S
O1260 Nd1240 2.500 . S
O1260 C1242 1.258 . S
O1261 Nd1240 2.492 . S
O1261 C1242 1.239 . S
O1262 Nd1240 2.487 . S
O1262 C1249 1.241 . S
O1263 Nd1240 2.682 . S
O1263 Nd1241 2.414 . S
O1263 C1249 1.273 . S
O1264 Nd1240 2.410 . S
O1264 C1250 1.251 . S
O1265 Nd1241 2.424 . S
O1265 C1250 1.268 . S
O1266 Nd1241 2.500 . S
O1266 C1251 1.258 . S
O1267 Nd1241 2.492 . S
O1267 C1251 1.239 . S
O1268 Nd1241 2.487 . S
O1268 C1258 1.241 . S
O1269 Nd1240 2.414 . S
O1269 Nd1241 2.682 . S
O1269 C1258 1.273 . S
O1270 Nd1241 2.410 . S
O1270 C1259 1.251 . S
O1271 Nd1240 2.424 . S
O1271 C1259 1.268 . S
H1272 C1244 0.930 . S
H1273 C1245 0.929 . S
H1274 C1247 0.930 . S
H1275 C1248 0.929 . S
H1276 C1253 0.930 . S
H1277 C1254 0.929 . S
H1278 C1256 0.930 . S
H1279 C1257 0.929 . S
C1280 C1281 1.387 . S
C1280 H1284 0.950 . S
C1280 C1289 1.390 . S
C1281 C1280 1.387 . S
C1281 C1283 1.387 . S
H1282 C1289 0.950 . S
C1283 C1281 1.387 . S
C1283 C1285 1.390 . S
C1283 H1287 0.950 . S
H1284 C1280 0.950 . S
C1285 C1283 1.390 . S
C1285 C1286 1.387 . S
C1285 H1288 0.950 . S
C1286 C1285 1.387 . S
C1286 C1289 1.387 . S
H1287 C1283 0.950 . S
H1288 C1285 0.950 . S
C1289 C1280 1.390 . S
C1289 H1282 0.950 . S
C1289 C1286 1.387 . S
C1290 C1291 1.387 . S
C1290 H1294 0.950 . S
C1290 C1299 1.390 . S
C1291 C1290 1.387 . S
C1291 C1293 1.387 . S
H1292 C1299 0.950 . S
C1293 C1291 1.387 . S
C1293 C1295 1.390 . S
C1293 H1297 0.950 . S
H1294 C1290 0.950 . S
C1295 C1293 1.390 . S
C1295 C1296 1.387 . S
C1295 H1298 0.950 . S
C1296 C1295 1.387 . S
C1296 C1299 1.387 . S
H1297 C1293 0.950 . S
H1298 C1295 0.950 . S
C1299 C1290 1.390 . S
C1299 H1292 0.950 . S
C1299 C1296 1.387 . S
C1300 C1301 1.387 . S
C1300 H1304 0.950 . S
C1300 C1309 1.390 . S
C1301 C1300 1.387 . S
C1301 C1303 1.387 . S
H1302 C1309 0.950 . S
C1303 C1301 1.387 . S
C1303 C1305 1.390 . S
C1303 H1307 0.950 . S
H1304 C1300 0.950 . S
C1305 C1303 1.390 . S
C1305 C1306 1.387 . S
C1305 H1308 0.950 . S
C1306 C1305 1.387 . S
C1306 C1309 1.387 . S
H1307 C1303 0.950 . S
H1308 C1305 0.950 . S
C1309 C1300 1.390 . S
C1309 H1302 0.950 . S
C1309 C1306 1.387 . S
C1310 C1311 1.387 . S
C1310 H1314 0.950 . S
C1310 C1319 1.390 . S
C1311 C1310 1.387 . S
C1311 C1313 1.387 . S
H1312 C1319 0.950 . S
C1313 C1311 1.387 . S
C1313 C1315 1.390 . S
C1313 H1317 0.950 . S
H1314 C1310 0.950 . S
C1315 C1313 1.390 . S
C1315 C1316 1.387 . S
C1315 H1318 0.950 . S
C1316 C1315 1.387 . S
C1316 C1319 1.387 . S
H1317 C1313 0.950 . S
H1318 C1315 0.950 . S
C1319 C1310 1.390 . S
C1319 H1312 0.950 . S
C1319 C1316 1.387 . S
C1320 C1321 1.387 . S
C1320 H1324 0.950 . S
C1320 C1329 1.390 . S
C1321 C1320 1.387 . S
C1321 C1323 1.387 . S
H1322 C1329 0.950 . S
C1323 C1321 1.387 . S
C1323 C1325 1.390 . S
C1323 H1327 0.950 . S
H1324 C1320 0.950 . S
C1325 C1323 1.390 . S
C1325 C1326 1.387 . S
C1325 H1328 0.950 . S
C1326 C1325 1.387 . S
C1326 C1329 1.387 . S
H1327 C1323 0.950 . S
H1328 C1325 0.950 . S
C1329 C1320 1.390 . S
C1329 H1322 0.950 . S
C1329 C1326 1.387 . S
C1330 C1331 1.387 . S
C1330 H1334 0.950 . S
C1330 C1339 1.390 . S
C1331 C1330 1.387 . S
C1331 C1333 1.387 . S
H1332 C1339 0.950 . S
C1333 C1331 1.387 . S
C1333 C1335 1.390 . S
C1333 H1337 0.950 . S
H1334 C1330 0.950 . S
C1335 C1333 1.390 . S
C1335 C1336 1.387 . S
C1335 H1338 0.950 . S
C1336 C1335 1.387 . S
C1336 C1339 1.387 . S
H1337 C1333 0.950 . S
H1338 C1335 0.950 . S
C1339 C1330 1.390 . S
C1339 H1332 0.950 . S
C1339 C1336 1.387 . S
C1340 C1341 1.387 . S
C1340 H1344 0.950 . S
C1340 C1349 1.390 . S
C1341 C1340 1.387 . S
C1341 C1343 1.387 . S
H1342 C1349 0.950 . S
C1343 C1341 1.387 . S
C1343 C1345 1.390 . S
C1343 H1347 0.950 . S
H1344 C1340 0.950 . S
C1345 C1343 1.390 . S
C1345 C1346 1.387 . S
C1345 H1348 0.950 . S
C1346 C1345 1.387 . S
C1346 C1349 1.387 . S
H1347 C1343 0.950 . S
H1348 C1345 0.950 . S
C1349 C1340 1.390 . S
C1349 H1342 0.950 . S
C1349 C1346 1.387 . S
C1350 C1351 1.387 . S
C1350 H1354 0.950 . S
C1350 C1359 1.390 . S
C1351 C1350 1.387 . S
C1351 C1353 1.387 . S
H1352 C1359 0.950 . S
C1353 C1351 1.387 . S
C1353 C1355 1.390 . S
C1353 H1357 0.950 . S
H1354 C1350 0.950 . S
C1355 C1353 1.390 . S
C1355 C1356 1.387 . S
C1355 H1358 0.950 . S
C1356 C1355 1.387 . S
C1356 C1359 1.387 . S
H1357 C1353 0.950 . S
H1358 C1355 0.950 . S
C1359 C1350 1.390 . S
C1359 H1352 0.950 . S
C1359 C1356 1.387 . S
C1360 C1361 1.387 . S
C1360 H1364 0.950 . S
C1360 C1369 1.390 . S
C1361 C1360 1.387 . S
C1361 C1363 1.387 . S
H1362 C1369 0.950 . S
C1363 C1361 1.387 . S
C1363 C1365 1.390 . S
C1363 H1367 0.950 . S
H1364 C1360 0.950 . S
C1365 C1363 1.390 . S
C1365 C1366 1.387 . S
C1365 H1368 0.950 . S
C1366 C1365 1.387 . S
C1366 C1369 1.387 . S
H1367 C1363 0.950 . S
H1368 C1365 0.950 . S
C1369 C1360 1.390 . S
C1369 H1362 0.950 . S
C1369 C1366 1.387 . S
C1370 C1371 1.387 . S
C1370 H1374 0.950 . S
C1370 C1379 1.390 . S
C1371 C1370 1.387 . S
C1371 C1373 1.387 . S
H1372 C1379 0.950 . S
C1373 C1371 1.387 . S
C1373 C1375 1.390 . S
C1373 H1377 0.950 . S
H1374 C1370 0.950 . S
C1375 C1373 1.390 . S
C1375 C1376 1.387 . S
C1375 H1378 0.950 . S
C1376 C1375 1.387 . S
C1376 C1379 1.387 . S
H1377 C1373 0.950 . S
H1378 C1375 0.950 . S
C1379 C1370 1.390 . S
C1379 H1372 0.950 . S
C1379 C1376 1.387 . S
C1380 C1381 1.387 . S
C1380 H1384 0.950 . S
C1380 C1389 1.390 . S
C1381 C1380 1.387 . S
C1381 C1383 1.387 . S
H1382 C1389 0.950 . S
C1383 C1381 1.387 . S
C1383 C1385 1.390 . S
C1383 H1387 0.950 . S
H1384 C1380 0.950 . S
C1385 C1383 1.390 . S
C1385 C1386 1.387 . S
C1385 H1388 0.950 . S
C1386 C1385 1.387 . S
C1386 C1389 1.387 . S
H1387 C1383 0.950 . S
H1388 C1385 0.950 . S
C1389 C1380 1.390 . S
C1389 H1382 0.950 . S
C1389 C1386 1.387 . S
C1390 C1391 1.387 . S
C1390 H1394 0.950 . S
C1390 C1399 1.390 . S
C1391 C1390 1.387 . S
C1391 C1393 1.387 . S
H1392 C1399 0.950 . S
C1393 C1391 1.387 . S
C1393 C1395 1.390 . S
C1393 H1397 0.950 . S
H1394 C1390 0.950 . S
C1395 C1393 1.390 . S
C1395 C1396 1.387 . S
C1395 H1398 0.950 . S
C1396 C1395 1.387 . S
C1396 C1399 1.387 . S
H1397 C1393 0.950 . S
H1398 C1395 0.950 . S
C1399 C1390 1.390 . S
C1399 H1392 0.950 . S
C1399 C1396 1.387 . S
C1400 C1401 1.387 . S
C1400 H1404 0.950 . S
C1400 C1409 1.390 . S
C1401 C1400 1.387 . S
C1401 C1403 1.387 . S
H1402 C1409 0.950 . S
C1403 C1401 1.387 . S
C1403 C1405 1.390 . S
C1403 H1407 0.950 . S
H1404 C1400 0.950 . S
C1405 C1403 1.390 . S
C1405 C1406 1.387 . S
C1405 H1408 0.950 . S
C1406 C1405 1.387 . S
C1406 C1409 1.387 . S
H1407 C1403 0.950 . S
H1408 C1405 0.950 . S
C1409 C1400 1.390 . S
C1409 H1402 0.950 . S
C1409 C1406 1.387 . S
C1410 C1411 1.387 . S
C1410 H1414 0.950 . S
C1410 C1419 1.390 . S
C1411 C1410 1.387 . S
C1411 C1413 1.387 . S
H1412 C1419 0.950 . S
C1413 C1411 1.387 . S
C1413 C1415 1.390 . S
C1413 H1417 0.950 . S
H1414 C1410 0.950 . S
C1415 C1413 1.390 . S
C1415 C1416 1.387 . S
C1415 H1418 0.950 . S
C1416 C1415 1.387 . S
C1416 C1419 1.387 . S
H1417 C1413 0.950 . S
H1418 C1415 0.950 . S
C1419 C1410 1.390 . S
C1419 H1412 0.950 . S
C1419 C1416 1.387 . S
C1420 C1421 1.387 . S
C1420 H1424 0.950 . S
C1420 C1429 1.390 . S
C1421 C1420 1.387 . S
C1421 C1423 1.387 . S
H1422 C1429 0.950 . S
C1423 C1421 1.387 . S
C1423 C1425 1.390 . S
C1423 H1427 0.950 . S
H1424 C1420 0.950 . S
C1425 C1423 1.390 . S
C1425 C1426 1.387 . S
C1425 H1428 0.950 . S
C1426 C1425 1.387 . S
C1426 C1429 1.387 . S
H1427 C1423 0.950 . S
H1428 C1425 0.950 . S
C1429 C1420 1.390 . S
C1429 H1422 0.950 . S
C1429 C1426 1.387 . S
C1430 C1431 1.387 . S
C1430 H1434 0.950 . S
C1430 C1439 1.390 . S
C1431 C1430 1.387 . S
C1431 C1433 1.387 . S
H1432 C1439 0.950 . S
C1433 C1431 1.387 . S
C1433 C1435 1.390 . S
C1433 H1437 0.950 . S
H1434 C1430 0.950 . S
C1435 C1433 1.390 . S
C1435 C1436 1.387 . S
C1435 H1438 0.950 . S
C1436 C1435 1.387 . S
C1436 C1439 1.387 . S
H1437 C1433 0.950 . S
H1438 C1435 0.950 . S
C1439 C1430 1.390 . S
C1439 H1432 0.950 . S
C1439 C1436 1.387 . S
C1440 C1441 1.387 . S
C1440 H1444 0.950 . S
C1440 C1449 1.390 . S
C1441 C1440 1.387 . S
C1441 C1443 1.387 . S
H1442 C1449 0.950 . S
C1443 C1441 1.387 . S
C1443 C1445 1.390 . S
C1443 H1447 0.950 . S
H1444 C1440 0.950 . S
C1445 C1443 1.390 . S
C1445 C1446 1.387 . S
C1445 H1448 0.950 . S
C1446 C1445 1.387 . S
C1446 C1449 1.387 . S
H1447 C1443 0.950 . S
H1448 C1445 0.950 . S
C1449 C1440 1.390 . S
C1449 H1442 0.950 . S
C1449 C1446 1.387 . S
C1450 C1451 1.387 . S
C1450 H1454 0.950 . S
C1450 C1459 1.390 . S
C1451 C1450 1.387 . S
C1451 C1453 1.387 . S
H1452 C1459 0.950 . S
C1453 C1451 1.387 . S
C1453 C1455 1.390 . S
C1453 H1457 0.950 . S
H1454 C1450 0.950 . S
C1455 C1453 1.390 . S
C1455 C1456 1.387 . S
C1455 H1458 0.950 . S
C1456 C1455 1.387 . S
C1456 C1459 1.387 . S
H1457 C1453 0.950 . S
H1458 C1455 0.950 . S
C1459 C1450 1.390 . S
C1459 H1452 0.950 . S
C1459 C1456 1.387 . S
C1460 C1461 1.387 . S
C1460 H1464 0.950 . S
C1460 C1469 1.390 . S
C1461 C1460 1.387 . S
C1461 C1463 1.387 . S
H1462 C1469 0.950 . S
C1463 C1461 1.387 . S
C1463 C1465 1.390 . S
C1463 H1467 0.950 . S
H1464 C1460 0.950 . S
C1465 C1463 1.390 . S
C1465 C1466 1.387 . S
C1465 H1468 0.950 . S
C1466 C1465 1.387 . S
C1466 C1469 1.387 . S
H1467 C1463 0.950 . S
H1468 C1465 0.950 . S
C1469 C1460 1.390 . S
C1469 H1462 0.950 . S
C1469 C1466 1.387 . S
C1470 C1471 1.387 . S
C1470 H1474 0.950 . S
C1470 C1479 1.390 . S
C1471 C1470 1.387 . S
C1471 C1473 1.387 . S
H1472 C1479 0.950 . S
C1473 C1471 1.387 . S
C1473 C1475 1.390 . S
C1473 H1477 0.950 . S
H1474 C1470 0.950 . S
C1475 C1473 1.390 . S
C1475 C1476 1.387 . S
C1475 H1478 0.950 . S
C1476 C1475 1.387 . S
C1476 C1479 1.387 . S
H1477 C1473 0.950 . S
H1478 C1475 0.950 . S
C1479 C1470 1.390 . S
C1479 H1472 0.950 . S
C1479 C1476 1.387 . S
C1480 C1481 1.387 . S
C1480 H1484 0.950 . S
C1480 C1489 1.390 . S
C1481 C1480 1.387 . S
C1481 C1483 1.387 . S
H1482 C1489 0.950 . S
C1483 C1481 1.387 . S
C1483 C1485 1.390 . S
C1483 H1487 0.950 . S
H1484 C1480 0.950 . S
C1485 C1483 1.390 . S
C1485 C1486 1.387 . S
C1485 H1488 0.950 . S
C1486 C1485 1.387 . S
C1486 C1489 1.387 . S
H1487 C1483 0.950 . S
H1488 C1485 0.950 . S
C1489 C1480 1.390 . S
C1489 H1482 0.950 . S
C1489 C1486 1.387 . S
C1490 C1491 1.387 . S
C1490 H1494 0.950 . S
C1490 C1499 1.390 . S
C1491 C1490 1.387 . S
C1491 C1493 1.387 . S
H1492 C1499 0.950 . S
C1493 C1491 1.387 . S
C1493 C1495 1.390 . S
C1493 H1497 0.950 . S
H1494 C1490 0.950 . S
C1495 C1493 1.390 . S
C1495 C1496 1.387 . S
C1495 H1498 0.950 . S
C1496 C1495 1.387 . S
C1496 C1499 1.387 . S
H1497 C1493 0.950 . S
H1498 C1495 0.950 . S
C1499 C1490 1.390 . S
C1499 H1492 0.950 . S
C1499 C1496 1.387 . S
C1500 C1501 1.387 . S
C1500 H1504 0.950 . S
C1500 C1509 1.390 . S
C1501 C1500 1.387 . S
C1501 C1503 1.387 . S
H1502 C1509 0.950 . S
C1503 C1501 1.387 . S
C1503 C1505 1.390 . S
C1503 H1507 0.950 . S
H1504 C1500 0.950 . S
C1505 C1503 1.390 . S
C1505 C1506 1.387 . S
C1505 H1508 0.950 . S
C1506 C1505 1.387 . S
C1506 C1509 1.387 . S
H1507 C1503 0.950 . S
H1508 C1505 0.950 . S
C1509 C1500 1.390 . S
C1509 H1502 0.950 . S
C1509 C1506 1.387 . S
C1510 C1511 1.387 . S
C1510 H1514 0.950 . S
C1510 C1519 1.390 . S
C1511 C1510 1.387 . S
C1511 C1513 1.387 . S
H1512 C1519 0.950 . S
C1513 C1511 1.387 . S
C1513 C1515 1.390 . S
C1513 H1517 0.950 . S
H1514 C1510 0.950 . S
C1515 C1513 1.390 . S
C1515 C1516 1.387 . S
C1515 H1518 0.950 . S
C1516 C1515 1.387 . S
C1516 C1519 1.387 . S
H1517 C1513 0.950 . S
H1518 C1515 0.950 . S
C1519 C1510 1.390 . S
C1519 H1512 0.950 . S
C1519 C1516 1.387 . S
C1520 C1521 1.387 . S
C1520 H1524 0.950 . S
C1520 C1529 1.390 . S
C1521 C1520 1.387 . S
C1521 C1523 1.387 . S
H1522 C1529 0.950 . S
C1523 C1521 1.387 . S
C1523 C1525 1.390 . S
C1523 H1527 0.950 . S
H1524 C1520 0.950 . S
C1525 C1523 1.390 . S
C1525 C1526 1.387 . S
C1525 H1528 0.950 . S
C1526 C1525 1.387 . S
C1526 C1529 1.387 . S
H1527 C1523 0.950 . S
H1528 C1525 0.950 . S
C1529 C1520 1.390 . S
C1529 H1522 0.950 . S
C1529 C1526 1.387 . S
C1530 C1531 1.387 . S
C1530 H1534 0.950 . S
C1530 C1539 1.390 . S
C1531 C1530 1.387 . S
C1531 C1533 1.387 . S
H1532 C1539 0.950 . S
C1533 C1531 1.387 . S
C1533 C1535 1.390 . S
C1533 H1537 0.950 . S
H1534 C1530 0.950 . S
C1535 C1533 1.390 . S
C1535 C1536 1.387 . S
C1535 H1538 0.950 . S
C1536 C1535 1.387 . S
C1536 C1539 1.387 . S
H1537 C1533 0.950 . S
H1538 C1535 0.950 . S
C1539 C1530 1.390 . S
C1539 H1532 0.950 . S
C1539 C1536 1.387 . S
C1540 C1541 1.387 . S
C1540 H1544 0.950 . S
C1540 C1549 1.390 . S
C1541 C1540 1.387 . S
C1541 C1543 1.387 . S
H1542 C1549 0.950 . S
C1543 C1541 1.387 . S
C1543 C1545 1.390 . S
C1543 H1547 0.950 . S
H1544 C1540 0.950 . S
C1545 C1543 1.390 . S
C1545 C1546 1.387 . S
C1545 H1548 0.950 . S
C1546 C1545 1.387 . S
C1546 C1549 1.387 . S
H1547 C1543 0.950 . S
H1548 C1545 0.950 . S
C1549 C1540 1.390 . S
C1549 H1542 0.950 . S
C1549 C1546 1.387 . S
C1550 C1551 1.387 . S
C1550 H1554 0.950 . S
C1550 C1559 1.390 . S
C1551 C1550 1.387 . S
C1551 C1553 1.387 . S
H1552 C1559 0.950 . S
C1553 C1551 1.387 . S
C1553 C1555 1.390 . S
C1553 H1557 0.950 . S
H1554 C1550 0.950 . S
C1555 C1553 1.390 . S
C1555 C1556 1.387 . S
C1555 H1558 0.950 . S
C1556 C1555 1.387 . S
C1556 C1559 1.387 . S
H1557 C1553 0.950 . S
H1558 C1555 0.950 . S
C1559 C1550 1.390 . S
C1559 H1552 0.950 . S
C1559 C1556 1.387 . S
C1560 C1561 1.387 . S
C1560 H1564 0.950 . S
C1560 C1569 1.390 . S
C1561 C1560 1.387 . S
C1561 C1563 1.387 . S
H1562 C1569 0.950 . S
C1563 C1561 1.387 . S
C1563 C1565 1.390 . S
C1563 H1567 0.950 . S
H1564 C1560 0.950 . S
C1565 C1563 1.390 . S
C1565 C1566 1.387 . S
C1565 H1568 0.950 . S
C1566 C1565 1.387 . S
C1566 C1569 1.387 . S
H1567 C1563 0.950 . S
H1568 C1565 0.950 . S
C1569 C1560 1.390 . S
C1569 H1562 0.950 . S
C1569 C1566 1.387 . S
C1570 C1571 1.387 . S
C1570 H1574 0.950 . S
C1570 C1579 1.390 . S
C1571 C1570 1.387 . S
C1571 C1573 1.387 . S
H1572 C1579 0.950 . S
C1573 C1571 1.387 . S
C1573 C1575 1.390 . S
C1573 H1577 0.950 . S
H1574 C1570 0.950 . S
C1575 C1573 1.390 . S
C1575 C1576 1.387 . S
C1575 H1578 0.950 . S
C1576 C1575 1.387 . S
C1576 C1579 1.387 . S
H1577 C1573 0.950 . S
H1578 C1575 0.950 . S
C1579 C1570 1.390 . S
C1579 H1572 0.950 . S
C1579 C1576 1.387 . S
C1580 C1581 1.387 . S
C1580 H1584 0.950 . S
C1580 C1589 1.390 . S
C1581 C1580 1.387 . S
C1581 C1583 1.387 . S
H1582 C1589 0.950 . S
C1583 C1581 1.387 . S
C1583 C1585 1.390 . S
C1583 H1587 0.950 . S
H1584 C1580 0.950 . S
C1585 C1583 1.390 . S
C1585 C1586 1.387 . S
C1585 H1588 0.950 . S
C1586 C1585 1.387 . S
C1586 C1589 1.387 . S
H1587 C1583 0.950 . S
H1588 C1585 0.950 . S
C1589 C1580 1.390 . S
C1589 H1582 0.950 . S
C1589 C1586 1.387 . S
C1590 C1591 1.387 . S
C1590 H1594 0.950 . S
C1590 C1599 1.390 . S
C1591 C1590 1.387 . S
C1591 C1593 1.387 . S
H1592 C1599 0.950 . S
C1593 C1591 1.387 . S
C1593 C1595 1.390 . S
C1593 H1597 0.950 . S
H1594 C1590 0.950 . S
C1595 C1593 1.390 . S
C1595 C1596 1.387 . S
C1595 H1598 0.950 . S
C1596 C1595 1.387 . S
C1596 C1599 1.387 . S
H1597 C1593 0.950 . S
H1598 C1595 0.950 . S
C1599 C1590 1.390 . S
C1599 H1592 0.950 . S
C1599 C1596 1.387 . S
C1600 C1601 1.387 . S
C1600 H1604 0.950 . S
C1600 C1609 1.390 1_455 S
C1601 C1600 1.387 . S
C1601 C1603 1.387 . S
H1602 C1609 0.950 . S
C1603 C1601 1.387 . S
C1603 C1605 1.390 1_455 S
C1603 H1607 0.950 . S
H1604 C1600 0.950 . S
C1605 C1603 1.390 1_655 S
C1605 C1606 1.387 . S
C1605 H1608 0.950 . S
C1606 C1605 1.387 . S
C1606 C1609 1.387 . S
H1607 C1603 0.950 . S
H1608 C1605 0.950 . S
C1609 C1600 1.390 1_655 S
C1609 H1602 0.950 . S
C1609 C1606 1.387 . S
C1610 C1611 1.387 . S
C1610 H1614 0.950 . S
C1610 C1619 1.390 1_655 S
C1611 C1610 1.387 . S
C1611 C1613 1.387 . S
H1612 C1619 0.950 . S
C1613 C1611 1.387 . S
C1613 C1615 1.390 1_655 S
C1613 H1617 0.950 . S
H1614 C1610 0.950 . S
C1615 C1613 1.390 1_455 S
C1615 C1616 1.387 . S
C1615 H1618 0.950 . S
C1616 C1615 1.387 . S
C1616 C1619 1.387 . S
H1617 C1613 0.950 . S
H1618 C1615 0.950 . S
C1619 C1610 1.390 1_455 S
C1619 H1612 0.950 . S
C1619 C1616 1.387 . S
C1620 C1621 1.387 . S
C1620 H1624 0.950 . S
C1620 C1629 1.390 . S
C1621 C1620 1.387 . S
C1621 C1623 1.387 . S
H1622 C1629 0.950 . S
C1623 C1621 1.387 . S
C1623 C1625 1.390 . S
C1623 H1627 0.950 . S
H1624 C1620 0.950 . S
C1625 C1623 1.390 . S
C1625 C1626 1.387 . S
C1625 H1628 0.950 . S
C1626 C1625 1.387 . S
C1626 C1629 1.387 . S
H1627 C1623 0.950 . S
H1628 C1625 0.950 . S
C1629 C1620 1.390 . S
C1629 H1622 0.950 . S
C1629 C1626 1.387 . S
C1630 C1631 1.387 . S
C1630 H1634 0.950 . S
C1630 C1639 1.390 . S
C1631 C1630 1.387 . S
C1631 C1633 1.387 . S
H1632 C1639 0.950 . S
C1633 C1631 1.387 . S
C1633 C1635 1.390 . S
C1633 H1637 0.950 . S
H1634 C1630 0.950 . S
C1635 C1633 1.390 . S
C1635 C1636 1.387 . S
C1635 H1638 0.950 . S
C1636 C1635 1.387 . S
C1636 C1639 1.387 . S
H1637 C1633 0.950 . S
H1638 C1635 0.950 . S
C1639 C1630 1.390 . S
C1639 H1632 0.950 . S
C1639 C1636 1.387 . S
C1640 C1641 1.387 . S
C1640 H1644 0.950 . S
C1640 C1649 1.390 1_655 S
C1641 C1640 1.387 . S
C1641 C1643 1.387 . S
H1642 C1649 0.950 . S
C1643 C1641 1.387 . S
C1643 C1645 1.390 1_655 S
C1643 H1647 0.950 . S
H1644 C1640 0.950 . S
C1645 C1643 1.390 1_455 S
C1645 C1646 1.387 . S
C1645 H1648 0.950 . S
C1646 C1645 1.387 . S
C1646 C1649 1.387 . S
H1647 C1643 0.950 . S
H1648 C1645 0.950 . S
C1649 C1640 1.390 1_455 S
C1649 H1642 0.950 . S
C1649 C1646 1.387 . S
C1650 C1651 1.387 . S
C1650 H1654 0.950 . S
C1650 C1659 1.390 . S
C1651 C1650 1.387 . S
C1651 C1653 1.387 . S
H1652 C1659 0.950 . S
C1653 C1651 1.387 . S
C1653 C1655 1.390 . S
C1653 H1657 0.950 . S
H1654 C1650 0.950 . S
C1655 C1653 1.390 . S
C1655 C1656 1.387 . S
C1655 H1658 0.950 . S
C1656 C1655 1.387 . S
C1656 C1659 1.387 . S
H1657 C1653 0.950 . S
H1658 C1655 0.950 . S
C1659 C1650 1.390 . S
C1659 H1652 0.950 . S
C1659 C1656 1.387 . S
C1660 C1661 1.387 . S
C1660 H1664 0.950 . S
C1660 C1669 1.390 . S
C1661 C1660 1.387 . S
C1661 C1663 1.387 . S
H1662 C1669 0.950 . S
C1663 C1661 1.387 . S
C1663 C1665 1.390 . S
C1663 H1667 0.950 . S
H1664 C1660 0.950 . S
C1665 C1663 1.390 . S
C1665 C1666 1.387 . S
C1665 H1668 0.950 . S
C1666 C1665 1.387 . S
C1666 C1669 1.387 . S
H1667 C1663 0.950 . S
H1668 C1665 0.950 . S
C1669 C1660 1.390 . S
C1669 H1662 0.950 . S
C1669 C1666 1.387 . S
C1670 C1671 1.387 . S
C1670 H1674 0.950 . S
C1670 C1679 1.390 1_455 S
C1671 C1670 1.387 . S
C1671 C1673 1.387 . S
H1672 C1679 0.950 . S
C1673 C1671 1.387 . S
C1673 C1675 1.390 1_455 S
C1673 H1677 0.950 . S
H1674 C1670 0.950 . S
C1675 C1673 1.390 1_655 S
C1675 C1676 1.387 . S
C1675 H1678 0.950 . S
C1676 C1675 1.387 . S
C1676 C1679 1.387 . S
H1677 C1673 0.950 . S
H1678 C1675 0.950 . S
C1679 C1670 1.390 1_655 S
C1679 H1672 0.950 . S
C1679 C1676 1.387 . S
C1680 C1681 1.387 . S
C1680 H1684 0.950 . S
C1680 C1689 1.390 1_455 S
C1681 C1680 1.387 . S
C1681 C1683 1.387 . S
H1682 C1689 0.950 . S
C1683 C1681 1.387 . S
C1683 C1685 1.390 1_455 S
C1683 H1687 0.950 . S
H1684 C1680 0.950 . S
C1685 C1683 1.390 1_655 S
C1685 C1686 1.387 . S
C1685 H1688 0.950 . S
C1686 C1685 1.387 . S
C1686 C1689 1.387 . S
H1687 C1683 0.950 . S
H1688 C1685 0.950 . S
C1689 C1680 1.390 1_655 S
C1689 H1682 0.950 . S
C1689 C1686 1.387 . S
C1690 C1691 1.387 . S
C1690 H1694 0.950 . S
C1690 C1699 1.390 1_655 S
C1691 C1690 1.387 . S
C1691 C1693 1.387 . S
H1692 C1699 0.950 . S
C1693 C1691 1.387 . S
C1693 C1695 1.390 1_655 S
C1693 H1697 0.950 . S
H1694 C1690 0.950 . S
C1695 C1693 1.390 1_455 S
C1695 C1696 1.387 . S
C1695 H1698 0.950 . S
C1696 C1695 1.387 . S
C1696 C1699 1.387 . S
H1697 C1693 0.950 . S
H1698 C1695 0.950 . S
C1699 C1690 1.390 1_455 S
C1699 H1692 0.950 . S
C1699 C1696 1.387 . S
C1700 C1701 1.387 . S
C1700 H1704 0.950 . S
C1700 C1709 1.390 . S
C1701 C1700 1.387 . S
C1701 C1703 1.387 . S
H1702 C1709 0.950 . S
C1703 C1701 1.387 . S
C1703 C1705 1.390 . S
C1703 H1707 0.950 . S
H1704 C1700 0.950 . S
C1705 C1703 1.390 . S
C1705 C1706 1.387 . S
C1705 H1708 0.950 . S
C1706 C1705 1.387 . S
C1706 C1709 1.387 . S
H1707 C1703 0.950 . S
H1708 C1705 0.950 . S
C1709 C1700 1.390 . S
C1709 H1702 0.950 . S
C1709 C1706 1.387 . S
C1710 C1711 1.387 . S
C1710 H1714 0.950 . S
C1710 C1719 1.390 . S
C1711 C1710 1.387 . S
C1711 C1713 1.387 . S
H1712 C1719 0.950 . S
C1713 C1711 1.387 . S
C1713 C1715 1.390 . S
C1713 H1717 0.950 . S
H1714 C1710 0.950 . S
C1715 C1713 1.390 . S
C1715 C1716 1.387 . S
C1715 H1718 0.950 . S
C1716 C1715 1.387 . S
C1716 C1719 1.387 . S
H1717 C1713 0.950 . S
H1718 C1715 0.950 . S
C1719 C1710 1.390 . S
C1719 H1712 0.950 . S
C1719 C1716 1.387 . S
C1720 C1721 1.387 . S
C1720 H1724 0.950 . S
C1720 C1729 1.390 1_455 S
C1721 C1720 1.387 . S
C1721 C1723 1.387 . S
H1722 C1729 0.950 . S
C1723 C1721 1.387 . S
C1723 C1725 1.390 1_455 S
C1723 H1727 0.950 . S
H1724 C1720 0.950 . S
C1725 C1723 1.390 1_655 S
C1725 C1726 1.387 . S
C1725 H1728 0.950 . S
C1726 C1725 1.387 . S
C1726 C1729 1.387 . S
H1727 C1723 0.950 . S
H1728 C1725 0.950 . S
C1729 C1720 1.390 1_655 S
C1729 H1722 0.950 . S
C1729 C1726 1.387 . S
C1730 C1731 1.387 . S
C1730 H1734 0.950 . S
C1730 C1739 1.390 . S
C1731 C1730 1.387 . S
C1731 C1733 1.387 . S
H1732 C1739 0.950 . S
C1733 C1731 1.387 . S
C1733 C1735 1.390 . S
C1733 H1737 0.950 . S
H1734 C1730 0.950 . S
C1735 C1733 1.390 . S
C1735 C1736 1.387 . S
C1735 H1738 0.950 . S
C1736 C1735 1.387 . S
C1736 C1739 1.387 . S
H1737 C1733 0.950 . S
H1738 C1735 0.950 . S
C1739 C1730 1.390 . S
C1739 H1732 0.950 . S
C1739 C1736 1.387 . S
C1740 C1741 1.387 . S
C1740 H1744 0.950 . S
C1740 C1749 1.390 . S
C1741 C1740 1.387 . S
C1741 C1743 1.387 . S
H1742 C1749 0.950 . S
C1743 C1741 1.387 . S
C1743 C1745 1.390 . S
C1743 H1747 0.950 . S
H1744 C1740 0.950 . S
C1745 C1743 1.390 . S
C1745 C1746 1.387 . S
C1745 H1748 0.950 . S
C1746 C1745 1.387 . S
C1746 C1749 1.387 . S
H1747 C1743 0.950 . S
H1748 C1745 0.950 . S
C1749 C1740 1.390 . S
C1749 H1742 0.950 . S
C1749 C1746 1.387 . S
C1750 C1751 1.387 . S
C1750 H1754 0.950 . S
C1750 C1759 1.390 1_655 S
C1751 C1750 1.387 . S
C1751 C1753 1.387 . S
H1752 C1759 0.950 . S
C1753 C1751 1.387 . S
C1753 C1755 1.390 1_655 S
C1753 H1757 0.950 . S
H1754 C1750 0.950 . S
C1755 C1753 1.390 1_455 S
C1755 C1756 1.387 . S
C1755 H1758 0.950 . S
C1756 C1755 1.387 . S
C1756 C1759 1.387 . S
H1757 C1753 0.950 . S
H1758 C1755 0.950 . S
C1759 C1750 1.390 1_455 S
C1759 H1752 0.950 . S
C1759 C1756 1.387 . S
C1760 C1761 1.387 . S
C1760 H1764 0.950 . S
C1760 C1769 1.390 . S
C1761 C1760 1.387 . S
C1761 C1763 1.387 . S
H1762 C1769 0.950 . S
C1763 C1761 1.387 . S
C1763 C1765 1.390 . S
C1763 H1767 0.950 . S
H1764 C1760 0.950 . S
C1765 C1763 1.390 . S
C1765 C1766 1.387 . S
C1765 H1768 0.950 . S
C1766 C1765 1.387 . S
C1766 C1769 1.387 . S
H1767 C1763 0.950 . S
H1768 C1765 0.950 . S
C1769 C1760 1.390 . S
C1769 H1762 0.950 . S
C1769 C1766 1.387 . S
C1770 C1771 1.387 . S
C1770 H1774 0.950 . S
C1770 C1779 1.393 1_655 S
C1771 C1770 1.387 . S
C1771 C1773 1.384 1_565 S
H1772 C1779 0.950 . S
C1773 C1771 1.384 1_545 S
C1773 C1775 1.393 1_655 S
C1773 H1777 0.950 . S
H1774 C1770 0.950 . S
C1775 C1773 1.393 1_455 S
C1775 C1776 1.387 . S
C1775 H1778 0.950 . S
C1776 C1775 1.387 . S
C1776 C1779 1.384 1_545 S
H1777 C1773 0.950 . S
H1778 C1775 0.950 . S
C1779 C1770 1.393 1_455 S
C1779 H1772 0.950 . S
C1779 C1776 1.384 1_565 S
C1780 C1781 1.387 . S
C1780 H1784 0.950 . S
C1780 C1789 1.390 . S
C1781 C1780 1.387 . S
C1781 C1783 1.387 . S
H1782 C1789 0.950 . S
C1783 C1781 1.387 . S
C1783 C1785 1.390 . S
C1783 H1787 0.950 . S
H1784 C1780 0.950 . S
C1785 C1783 1.390 . S
C1785 C1786 1.387 . S
C1785 H1788 0.950 . S
C1786 C1785 1.387 . S
C1786 C1789 1.387 . S
H1787 C1783 0.950 . S
H1788 C1785 0.950 . S
C1789 C1780 1.390 . S
C1789 H1782 0.950 . S
C1789 C1786 1.387 . S
C1790 C1791 1.398 . S
C1790 H1794 0.950 . S
C1790 C1799 1.390 1_565 S
C1791 C1790 1.398 . S
C1791 C1793 1.376 1_556 S
H1792 C1799 0.950 . S
C1793 C1791 1.376 1_554 S
C1793 C1795 1.390 1_565 S
C1793 H1797 0.950 . S
H1794 C1790 0.950 . S
C1795 C1793 1.390 1_545 S
C1795 C1796 1.398 . S
C1795 H1798 0.950 . S
C1796 C1795 1.398 . S
C1796 C1799 1.376 1_554 S
H1797 C1793 0.950 . S
H1798 C1795 0.950 . S
C1799 C1790 1.390 1_545 S
C1799 H1792 0.950 . S
C1799 C1796 1.376 1_556 S
C1800 C1801 1.387 . S
C1800 H1804 0.950 . S
C1800 C1809 1.390 . S
C1801 C1800 1.387 . S
C1801 C1803 1.387 . S
H1802 C1809 0.950 . S
C1803 C1801 1.387 . S
C1803 C1805 1.390 . S
C1803 H1807 0.950 . S
H1804 C1800 0.950 . S
C1805 C1803 1.390 . S
C1805 C1806 1.387 . S
C1805 H1808 0.950 . S
C1806 C1805 1.387 . S
C1806 C1809 1.387 . S
H1807 C1803 0.950 . S
H1808 C1805 0.950 . S
C1809 C1800 1.390 . S
C1809 H1802 0.950 . S
C1809 C1806 1.387 . S
C1810 C1811 1.387 . S
C1810 H1814 0.950 . S
C1810 C1819 1.390 . S
C1811 C1810 1.387 . S
C1811 C1813 1.387 1_565 S
H1812 C1819 0.950 . S
C1813 C1811 1.387 1_545 S
C1813 C1815 1.390 . S
C1813 H1817 0.950 . S
H1814 C1810 0.950 . S
C1815 C1813 1.390 . S
C1815 C1816 1.387 . S
C1815 H1818 0.950 . S
C1816 C1815 1.387 . S
C1816 C1819 1.387 1_545 S
H1817 C1813 0.950 . S
H1818 C1815 0.950 . S
C1819 C1810 1.390 . S
C1819 H1812 0.950 . S
C1819 C1816 1.387 1_565 S
C1820 C1821 1.387 . S
C1820 H1824 0.950 . S
C1820 C1829 1.390 . S
C1821 C1820 1.387 . S
C1821 C1823 1.387 . S
H1822 C1829 0.950 . S
C1823 C1821 1.387 . S
C1823 C1825 1.390 . S
C1823 H1827 0.950 . S
H1824 C1820 0.950 . S
C1825 C1823 1.390 . S
C1825 C1826 1.387 . S
C1825 H1828 0.950 . S
C1826 C1825 1.387 . S
C1826 C1829 1.387 . S
H1827 C1823 0.950 . S
H1828 C1825 0.950 . S
C1829 C1820 1.390 . S
C1829 H1822 0.950 . S
C1829 C1826 1.387 . S
C1830 C1831 1.376 1_556 S
C1830 H1834 0.950 . S
C1830 C1839 1.390 1_465 S
C1831 C1830 1.376 1_554 S
C1831 C1833 1.398 . S
H1832 C1839 0.950 . S
C1833 C1831 1.398 . S
C1833 C1835 1.390 1_465 S
C1833 H1837 0.950 . S
H1834 C1830 0.950 . S
C1835 C1833 1.390 1_645 S
C1835 C1836 1.376 1_554 S
C1835 H1838 0.950 . S
C1836 C1835 1.376 1_556 S
C1836 C1839 1.398 . S
H1837 C1833 0.950 . S
H1838 C1835 0.950 . S
C1839 C1830 1.390 1_645 S
C1839 H1832 0.950 . S
C1839 C1836 1.398 . S
C1840 C1841 1.387 . S
C1840 H1844 0.950 . S
C1840 C1849 1.390 . S
C1841 C1840 1.387 . S
C1841 C1843 1.387 . S
H1842 C1849 0.950 . S
C1843 C1841 1.387 . S
C1843 C1845 1.390 . S
C1843 H1847 0.950 . S
H1844 C1840 0.950 . S
C1845 C1843 1.390 . S
C1845 C1846 1.387 . S
C1845 H1848 0.950 . S
C1846 C1845 1.387 . S
C1846 C1849 1.387 . S
H1847 C1843 0.950 . S
H1848 C1845 0.950 . S
C1849 C1840 1.390 . S
C1849 H1842 0.950 . S
C1849 C1846 1.387 . S
C1850 C1851 1.387 . S
C1850 H1854 0.950 . S
C1850 C1859 1.390 . S
C1851 C1850 1.387 . S
C1851 C1853 1.387 . S
H1852 C1859 0.950 . S
C1853 C1851 1.387 . S
C1853 C1855 1.390 . S
C1853 H1857 0.950 . S
H1854 C1850 0.950 . S
C1855 C1853 1.390 . S
C1855 C1856 1.387 . S
C1855 H1858 0.950 . S
C1856 C1855 1.387 . S
C1856 C1859 1.387 . S
H1857 C1853 0.950 . S
H1858 C1855 0.950 . S
C1859 C1850 1.390 . S
C1859 H1852 0.950 . S
C1859 C1856 1.387 . S
C1860 C1861 1.387 . S
C1860 H1864 0.950 . S
C1860 C1869 1.390 . S
C1861 C1860 1.387 . S
C1861 C1863 1.387 . S
H1862 C1869 0.950 . S
C1863 C1861 1.387 . S
C1863 C1865 1.390 . S
C1863 H1867 0.950 . S
H1864 C1860 0.950 . S
C1865 C1863 1.390 . S
C1865 C1866 1.387 . S
C1865 H1868 0.950 . S
C1866 C1865 1.387 . S
C1866 C1869 1.387 . S
H1867 C1863 0.950 . S
H1868 C1865 0.950 . S
C1869 C1860 1.390 . S
C1869 H1862 0.950 . S
C1869 C1866 1.387 . S
C1870 C1871 1.387 . S
C1870 H1874 0.950 . S
C1870 C1879 1.390 . S
C1871 C1870 1.387 . S
C1871 C1873 1.387 . S
H1872 C1879 0.950 . S
C1873 C1871 1.387 . S
C1873 C1875 1.390 . S
C1873 H1877 0.950 . S
H1874 C1870 0.950 . S
C1875 C1873 1.390 . S
C1875 C1876 1.387 . S
C1875 H1878 0.950 . S
C1876 C1875 1.387 . S
C1876 C1879 1.387 . S
H1877 C1873 0.950 . S
H1878 C1875 0.950 . S
C1879 C1870 1.390 . S
C1879 H1872 0.950 . S
C1879 C1876 1.387 . S
C1880 C1881 1.398 . S
C1880 H1884 0.950 . S
C1880 C1889 1.390 . S
C1881 C1880 1.398 . S
C1881 C1883 1.376 1_556 S
H1882 C1889 0.950 . S
C1883 C1881 1.376 1_554 S
C1883 C1885 1.390 . S
C1883 H1887 0.950 . S
H1884 C1880 0.950 . S
C1885 C1883 1.390 . S
C1885 C1886 1.398 . S
C1885 H1888 0.950 . S
C1886 C1885 1.398 . S
C1886 C1889 1.376 1_554 S
H1887 C1883 0.950 . S
H1888 C1885 0.950 . S
C1889 C1880 1.390 . S
C1889 H1882 0.950 . S
C1889 C1886 1.376 1_556 S
C1890 C1891 1.387 . S
C1890 H1894 0.950 . S
C1890 C1899 1.390 1_655 S
C1891 C1890 1.387 . S
C1891 C1893 1.387 . S
H1892 C1899 0.950 . S
C1893 C1891 1.387 . S
C1893 C1895 1.390 1_655 S
C1893 H1897 0.950 . S
H1894 C1890 0.950 . S
C1895 C1893 1.390 1_455 S
C1895 C1896 1.387 . S
C1895 H1898 0.950 . S
C1896 C1895 1.387 . S
C1896 C1899 1.387 . S
H1897 C1893 0.950 . S
H1898 C1895 0.950 . S
C1899 C1890 1.390 1_455 S
C1899 H1892 0.950 . S
C1899 C1896 1.387 . S
C1900 C1901 1.398 . S
C1900 H1904 0.950 . S
C1900 C1909 1.390 1_455 S
C1901 C1900 1.398 . S
C1901 C1903 1.377 1_556 S
H1902 C1909 0.950 . S
C1903 C1901 1.377 1_554 S
C1903 C1905 1.390 1_455 S
C1903 H1907 0.950 . S
H1904 C1900 0.950 . S
C1905 C1903 1.390 1_655 S
C1905 C1906 1.398 . S
C1905 H1908 0.950 . S
C1906 C1905 1.398 . S
C1906 C1909 1.377 1_554 S
H1907 C1903 0.950 . S
H1908 C1905 0.950 . S
C1909 C1900 1.390 1_655 S
C1909 H1902 0.950 . S
C1909 C1906 1.377 1_556 S
C1910 C1911 1.387 . S
C1910 H1914 0.950 . S
C1910 C1919 1.390 . S
C1911 C1910 1.387 . S
C1911 C1913 1.387 . S
H1912 C1919 0.950 . S
C1913 C1911 1.387 . S
C1913 C1915 1.390 . S
C1913 H1917 0.950 . S
H1914 C1910 0.950 . S
C1915 C1913 1.390 . S
C1915 C1916 1.387 . S
C1915 H1918 0.950 . S
C1916 C1915 1.387 . S
C1916 C1919 1.387 . S
H1917 C1913 0.950 . S
H1918 C1915 0.950 . S
C1919 C1910 1.390 . S
C1919 H1912 0.950 . S
C1919 C1916 1.387 . S
C1920 C1921 1.387 1_545 S
C1920 H1924 0.950 . S
C1920 C1929 1.390 1_545 S
C1921 C1920 1.387 1_565 S
C1921 C1923 1.387 . S
H1922 C1929 0.950 1_545 S
C1923 C1921 1.387 . S
C1923 C1925 1.390 . S
C1923 H1927 0.950 . S
H1924 C1920 0.950 . S
C1925 C1923 1.390 . S
C1925 C1926 1.387 . S
C1925 H1928 0.950 . S
C1926 C1925 1.387 . S
C1926 C1929 1.387 . S
H1927 C1923 0.950 . S
H1928 C1925 0.950 . S
C1929 C1920 1.390 1_565 S
C1929 H1922 0.950 1_565 S
C1929 C1926 1.387 . S
C1930 C1931 1.387 1_545 S
C1930 H1934 0.950 . S
C1930 C1939 1.390 1_545 S
C1931 C1930 1.387 1_565 S
C1931 C1933 1.387 . S
H1932 C1939 0.950 1_545 S
C1933 C1931 1.387 . S
C1933 C1935 1.390 . S
C1933 H1937 0.950 . S
H1934 C1930 0.950 . S
C1935 C1933 1.390 . S
C1935 C1936 1.387 . S
C1935 H1938 0.950 . S
C1936 C1935 1.387 . S
C1936 C1939 1.387 . S
H1937 C1933 0.950 . S
H1938 C1935 0.950 . S
C1939 C1930 1.390 1_565 S
C1939 H1932 0.950 1_565 S
C1939 C1936 1.387 . S
C1940 C1941 1.387 . S
C1940 H1944 0.950 . S
C1940 C1949 1.390 . S
C1941 C1940 1.387 . S
C1941 C1943 1.387 . S
H1942 C1949 0.950 . S
C1943 C1941 1.387 . S
C1943 C1945 1.390 1_545 S
C1943 H1947 0.950 1_545 S
H1944 C1940 0.950 . S
C1945 C1943 1.390 1_565 S
C1945 C1946 1.387 1_565 S
C1945 H1948 0.950 . S
C1946 C1945 1.387 1_545 S
C1946 C1949 1.387 . S
H1947 C1943 0.950 1_565 S
H1948 C1945 0.950 . S
C1949 C1940 1.390 . S
C1949 H1942 0.950 . S
C1949 C1946 1.387 . S
C1950 C1951 1.387 1_565 S
C1950 H1954 0.950 . S
C1950 C1959 1.390 1_565 S
C1951 C1950 1.387 1_545 S
C1951 C1953 1.387 . S
H1952 C1959 0.950 1_565 S
C1953 C1951 1.387 . S
C1953 C1955 1.390 . S
C1953 H1957 0.950 . S
H1954 C1950 0.950 . S
C1955 C1953 1.390 . S
C1955 C1956 1.387 . S
C1955 H1958 0.950 . S
C1956 C1955 1.387 . S
C1956 C1959 1.387 . S
H1957 C1953 0.950 . S
H1958 C1955 0.950 . S
C1959 C1950 1.390 1_545 S
C1959 H1952 0.950 1_545 S
C1959 C1956 1.387 . S
C1960 C1961 1.387 . S
C1960 H1964 0.950 . S
C1960 C1969 1.390 . S
C1961 C1960 1.387 . S
C1961 C1963 1.387 1_545 S
H1962 C1969 0.950 . S
C1963 C1961 1.387 1_565 S
C1963 C1965 1.390 1_565 S
C1963 H1967 0.950 . S
H1964 C1960 0.950 . S
C1965 C1963 1.390 1_545 S
C1965 C1966 1.387 . S
C1965 H1968 0.950 1_545 S
C1966 C1965 1.387 . S
C1966 C1969 1.387 . S
H1967 C1963 0.950 . S
H1968 C1965 0.950 1_565 S
C1969 C1960 1.390 . S
C1969 H1962 0.950 . S
C1969 C1966 1.387 . S
C1970 C1971 1.387 . S
C1970 H1974 0.950 . S
C1970 C1979 1.390 . S
C1971 C1970 1.387 . S
C1971 C1973 1.387 . S
H1972 C1979 0.950 . S
C1973 C1971 1.387 . S
C1973 C1975 1.390 1_545 S
C1973 H1977 0.950 1_545 S
H1974 C1970 0.950 . S
C1975 C1973 1.390 1_565 S
C1975 C1976 1.387 1_565 S
C1975 H1978 0.950 . S
C1976 C1975 1.387 1_545 S
C1976 C1979 1.387 . S
H1977 C1973 0.950 1_565 S
H1978 C1975 0.950 . S
C1979 C1970 1.390 . S
C1979 H1972 0.950 . S
C1979 C1976 1.387 . S
C1980 C1981 1.387 . S
C1980 H1984 0.950 . S
C1980 C1989 1.390 . S
C1981 C1980 1.387 . S
C1981 C1983 1.387 . S
H1982 C1989 0.950 . S
C1983 C1981 1.387 . S
C1983 C1985 1.390 1_565 S
C1983 H1987 0.950 1_565 S
H1984 C1980 0.950 . S
C1985 C1983 1.390 1_545 S
C1985 C1986 1.387 1_545 S
C1985 H1988 0.950 . S
C1986 C1985 1.387 1_565 S
C1986 C1989 1.387 . S
H1987 C1983 0.950 1_545 S
H1988 C1985 0.950 . S
C1989 C1980 1.390 . S
C1989 H1982 0.950 . S
C1989 C1986 1.387 . S
C1990 C1991 1.387 . S
C1990 H1994 0.950 . S
C1990 C1999 1.390 . S
C1991 C1990 1.387 . S
C1991 C1993 1.387 . S
H1992 C1999 0.950 1_545 S
C1993 C1991 1.387 . S
C1993 C1995 1.390 . S
C1993 H1997 0.950 . S
H1994 C1990 0.950 . S
C1995 C1993 1.390 . S
C1995 C1996 1.387 . S
C1995 H1998 0.950 . S
C1996 C1995 1.387 . S
C1996 C1999 1.387 . S
H1997 C1993 0.950 . S
H1998 C1995 0.950 . S
C1999 C1990 1.390 . S
C1999 H1992 0.950 1_565 S
C1999 C1996 1.387 . S
C2000 C2001 1.387 . S
C2000 H2004 0.950 . S
C2000 C2009 1.390 . S
C2001 C2000 1.387 . S
C2001 C2003 1.387 . S
H2002 C2009 0.950 . S
C2003 C2001 1.387 . S
C2003 C2005 1.390 . S
C2003 H2007 0.950 . S
H2004 C2000 0.950 . S
C2005 C2003 1.390 . S
C2005 C2006 1.387 . S
C2005 H2008 0.950 . S
C2006 C2005 1.387 . S
C2006 C2009 1.387 . S
H2007 C2003 0.950 . S
H2008 C2005 0.950 . S
C2009 C2000 1.390 . S
C2009 H2002 0.950 . S
C2009 C2006 1.387 . S
C2010 C2011 1.387 . S
C2010 H2014 0.950 . S
C2010 C2019 1.390 . S
C2011 C2010 1.387 . S
C2011 C2013 1.387 . S
H2012 C2019 0.950 . S
C2013 C2011 1.387 . S
C2013 C2015 1.390 . S
C2013 H2017 0.950 . S
H2014 C2010 0.950 . S
C2015 C2013 1.390 . S
C2015 C2016 1.387 . S
C2015 H2018 0.950 . S
C2016 C2015 1.387 . S
C2016 C2019 1.387 . S
H2017 C2013 0.950 . S
H2018 C2015 0.950 . S
C2019 C2010 1.390 . S
C2019 H2012 0.950 . S
C2019 C2016 1.387 . S
C2020 C2021 1.387 . S
C2020 H2024 0.950 . S
C2020 C2029 1.390 . S
C2021 C2020 1.387 . S
C2021 C2023 1.387 . S
H2022 C2029 0.950 . S
C2023 C2021 1.387 . S
C2023 C2025 1.390 . S
C2023 H2027 0.950 . S
H2024 C2020 0.950 . S
C2025 C2023 1.390 . S
C2025 C2026 1.387 . S
C2025 H2028 0.950 . S
C2026 C2025 1.387 . S
C2026 C2029 1.387 . S
H2027 C2023 0.950 . S
H2028 C2025 0.950 . S
C2029 C2020 1.390 . S
C2029 H2022 0.950 . S
C2029 C2026 1.387 . S
C2030 C2031 1.387 . S
C2030 H2034 0.950 . S
C2030 C2039 1.390 . S
C2031 C2030 1.387 . S
C2031 C2033 1.387 . S
H2032 C2039 0.950 . S
C2033 C2031 1.387 . S
C2033 C2035 1.390 . S
C2033 H2037 0.950 . S
H2034 C2030 0.950 . S
C2035 C2033 1.390 . S
C2035 C2036 1.387 . S
C2035 H2038 0.950 . S
C2036 C2035 1.387 . S
C2036 C2039 1.387 . S
H2037 C2033 0.950 . S
H2038 C2035 0.950 . S
C2039 C2030 1.390 . S
C2039 H2032 0.950 . S
C2039 C2036 1.387 . S
C2040 C2041 1.387 . S
C2040 H2044 0.950 . S
C2040 C2049 1.390 . S
C2041 C2040 1.387 . S
C2041 C2043 1.387 . S
H2042 C2049 0.950 . S
C2043 C2041 1.387 . S
C2043 C2045 1.390 . S
C2043 H2047 0.950 . S
H2044 C2040 0.950 . S
C2045 C2043 1.390 . S
C2045 C2046 1.387 . S
C2045 H2048 0.950 . S
C2046 C2045 1.387 . S
C2046 C2049 1.387 . S
H2047 C2043 0.950 . S
H2048 C2045 0.950 . S
C2049 C2040 1.390 . S
C2049 H2042 0.950 . S
C2049 C2046 1.387 . S
C2050 C2051 1.387 . S
C2050 H2054 0.950 . S
C2050 C2059 1.390 . S
C2051 C2050 1.387 . S
C2051 C2053 1.387 . S
H2052 C2059 0.950 . S
C2053 C2051 1.387 . S
C2053 C2055 1.390 . S
C2053 H2057 0.950 . S
H2054 C2050 0.950 . S
C2055 C2053 1.390 . S
C2055 C2056 1.387 . S
C2055 H2058 0.950 . S
C2056 C2055 1.387 . S
C2056 C2059 1.387 . S
H2057 C2053 0.950 . S
H2058 C2055 0.950 . S
C2059 C2050 1.390 . S
C2059 H2052 0.950 . S
C2059 C2056 1.387 . S
C2060 C2061 1.387 . S
C2060 H2064 0.950 . S
C2060 C2069 1.390 . S
C2061 C2060 1.387 . S
C2061 C2063 1.387 . S
H2062 C2069 0.950 . S
C2063 C2061 1.387 . S
C2063 C2065 1.390 . S
C2063 H2067 0.950 . S
H2064 C2060 0.950 . S
C2065 C2063 1.390 . S
C2065 C2066 1.387 . S
C2065 H2068 0.950 . S
C2066 C2065 1.387 . S
C2066 C2069 1.387 . S
H2067 C2063 0.950 . S
H2068 C2065 0.950 . S
C2069 C2060 1.390 . S
C2069 H2062 0.950 . S
C2069 C2066 1.387 . S
C2070 C2071 1.387 . S
C2070 H2074 0.950 . S
C2070 C2079 1.390 . S
C2071 C2070 1.387 . S
C2071 C2073 1.387 . S
H2072 C2079 0.950 . S
C2073 C2071 1.387 . S
C2073 C2075 1.390 . S
C2073 H2077 0.950 . S
H2074 C2070 0.950 . S
C2075 C2073 1.390 . S
C2075 C2076 1.387 . S
C2075 H2078 0.950 . S
C2076 C2075 1.387 . S
C2076 C2079 1.387 . S
H2077 C2073 0.950 . S
H2078 C2075 0.950 . S
C2079 C2070 1.390 . S
C2079 H2072 0.950 . S
C2079 C2076 1.387 . S
C2080 C2081 1.387 . S
C2080 H2084 0.950 . S
C2080 C2089 1.390 1_545 S
C2081 C2080 1.387 . S
C2081 C2083 1.387 . S
H2082 C2089 0.950 . S
C2083 C2081 1.387 . S
C2083 C2085 1.390 1_545 S
C2083 H2087 0.950 . S
H2084 C2080 0.950 . S
C2085 C2083 1.390 1_565 S
C2085 C2086 1.387 . S
C2085 H2088 0.950 . S
C2086 C2085 1.387 . S
C2086 C2089 1.387 . S
H2087 C2083 0.950 . S
H2088 C2085 0.950 . S
C2089 C2080 1.390 1_565 S
C2089 H2082 0.950 . S
C2089 C2086 1.387 . S
C2090 C2091 1.387 . S
C2090 H2094 0.950 . S
C2090 C2099 1.390 . S
C2091 C2090 1.387 . S
C2091 C2093 1.387 . S
H2092 C2099 0.950 . S
C2093 C2091 1.387 . S
C2093 C2095 1.390 . S
C2093 H2097 0.950 . S
H2094 C2090 0.950 . S
C2095 C2093 1.390 . S
C2095 C2096 1.387 . S
C2095 H2098 0.950 . S
C2096 C2095 1.387 . S
C2096 C2099 1.387 . S
H2097 C2093 0.950 . S
H2098 C2095 0.950 . S
C2099 C2090 1.390 . S
C2099 H2092 0.950 . S
C2099 C2096 1.387 . S
C2100 C2101 1.387 . S
C2100 H2104 0.950 . S
C2100 C2109 1.390 1_545 S
C2101 C2100 1.387 . S
C2101 C2103 1.387 . S
H2102 C2109 0.950 . S
C2103 C2101 1.387 . S
C2103 C2105 1.390 1_545 S
C2103 H2107 0.950 . S
H2104 C2100 0.950 . S
C2105 C2103 1.390 1_565 S
C2105 C2106 1.387 . S
C2105 H2108 0.950 . S
C2106 C2105 1.387 . S
C2106 C2109 1.387 . S
H2107 C2103 0.950 . S
H2108 C2105 0.950 . S
C2109 C2100 1.390 1_565 S
C2109 H2102 0.950 . S
C2109 C2106 1.387 . S
C2110 C2111 1.387 . S
C2110 H2114 0.950 . S
C2110 C2119 1.390 1_556 S
C2111 C2110 1.387 . S
C2111 C2113 1.387 . S
H2112 C2119 0.950 . S
C2113 C2111 1.387 . S
C2113 C2115 1.390 1_556 S
C2113 H2117 0.950 . S
H2114 C2110 0.950 . S
C2115 C2113 1.390 1_554 S
C2115 C2116 1.387 . S
C2115 H2118 0.950 . S
C2116 C2115 1.387 . S
C2116 C2119 1.387 . S
H2117 C2113 0.950 . S
H2118 C2115 0.950 . S
C2119 C2110 1.390 1_554 S
C2119 H2112 0.950 . S
C2119 C2116 1.387 . S
C2120 C2121 1.387 . S
C2120 H2124 0.950 . S
C2120 C2129 1.390 1_565 S
C2121 C2120 1.387 . S
C2121 C2123 1.387 . S
H2122 C2129 0.950 . S
C2123 C2121 1.387 . S
C2123 C2125 1.390 1_565 S
C2123 H2127 0.950 . S
H2124 C2120 0.950 . S
C2125 C2123 1.390 1_545 S
C2125 C2126 1.387 . S
C2125 H2128 0.950 . S
C2126 C2125 1.387 . S
C2126 C2129 1.387 . S
H2127 C2123 0.950 . S
H2128 C2125 0.950 . S
C2129 C2120 1.390 1_545 S
C2129 H2122 0.950 . S
C2129 C2126 1.387 . S
C2130 C2131 1.387 . S
C2130 H2134 0.950 . S
C2130 C2139 1.390 . S
C2131 C2130 1.387 . S
C2131 C2133 1.387 . S
H2132 C2139 0.950 . S
C2133 C2131 1.387 . S
C2133 C2135 1.390 . S
C2133 H2137 0.950 . S
H2134 C2130 0.950 . S
C2135 C2133 1.390 . S
C2135 C2136 1.387 . S
C2135 H2138 0.950 . S
C2136 C2135 1.387 . S
C2136 C2139 1.387 . S
H2137 C2133 0.950 . S
H2138 C2135 0.950 . S
C2139 C2130 1.390 . S
C2139 H2132 0.950 . S
C2139 C2136 1.387 . S
C2140 C2141 1.387 . S
C2140 H2144 0.950 . S
C2140 C2149 1.390 1_565 S
C2141 C2140 1.387 . S
C2141 C2143 1.387 . S
H2142 C2149 0.950 . S
C2143 C2141 1.387 . S
C2143 C2145 1.390 1_565 S
C2143 H2147 0.950 . S
H2144 C2140 0.950 . S
C2145 C2143 1.390 1_545 S
C2145 C2146 1.387 . S
C2145 H2148 0.950 . S
C2146 C2145 1.387 . S
C2146 C2149 1.387 . S
H2147 C2143 0.950 . S
H2148 C2145 0.950 . S
C2149 C2140 1.390 1_545 S
C2149 H2142 0.950 . S
C2149 C2146 1.387 . S
C2150 C2151 1.387 . S
C2150 H2154 0.950 . S
C2150 C2159 1.390 1_554 S
C2151 C2150 1.387 . S
C2151 C2153 1.387 . S
H2152 C2159 0.950 . S
C2153 C2151 1.387 . S
C2153 C2155 1.390 1_554 S
C2153 H2157 0.950 . S
H2154 C2150 0.950 . S
C2155 C2153 1.390 1_556 S
C2155 C2156 1.387 . S
C2155 H2158 0.950 . S
C2156 C2155 1.387 . S
C2156 C2159 1.387 . S
H2157 C2153 0.950 . S
H2158 C2155 0.950 . S
C2159 C2150 1.390 1_556 S
C2159 H2152 0.950 . S
C2159 C2156 1.387 . S
C2160 C2161 1.387 . S
C2160 H2164 0.950 . S
C2160 C2169 1.390 . S
C2161 C2160 1.387 . S
C2161 C2163 1.387 . S
H2162 C2169 0.950 . S
C2163 C2161 1.387 . S
C2163 C2165 1.390 . S
C2163 H2167 0.950 . S
H2164 C2160 0.950 . S
C2165 C2163 1.390 . S
C2165 C2166 1.387 . S
C2165 H2168 0.950 . S
C2166 C2165 1.387 . S
C2166 C2169 1.387 . S
H2167 C2163 0.950 . S
H2168 C2165 0.950 . S
C2169 C2160 1.390 . S
C2169 H2162 0.950 . S
C2169 C2166 1.387 . S
C2170 C2171 1.387 . S
C2170 H2174 0.950 . S
C2170 C2179 1.390 1_556 S
C2171 C2170 1.387 . S
C2171 C2173 1.387 . S
H2172 C2179 0.950 . S
C2173 C2171 1.387 . S
C2173 C2175 1.390 1_556 S
C2173 H2177 0.950 . S
H2174 C2170 0.950 . S
C2175 C2173 1.390 1_554 S
C2175 C2176 1.387 . S
C2175 H2178 0.950 . S
C2176 C2175 1.387 . S
C2176 C2179 1.387 . S
H2177 C2173 0.950 . S
H2178 C2175 0.950 . S
C2179 C2170 1.390 1_554 S
C2179 H2172 0.950 . S
C2179 C2176 1.387 . S
C2180 C2181 1.387 . S
C2180 H2184 0.950 . S
C2180 C2189 1.390 . S
C2181 C2180 1.387 . S
C2181 C2183 1.387 . S
H2182 C2189 0.950 . S
C2183 C2181 1.387 . S
C2183 C2185 1.390 . S
C2183 H2187 0.950 . S
H2184 C2180 0.950 . S
C2185 C2183 1.390 . S
C2185 C2186 1.387 . S
C2185 H2188 0.950 . S
C2186 C2185 1.387 . S
C2186 C2189 1.387 . S
H2187 C2183 0.950 . S
H2188 C2185 0.950 . S
C2189 C2180 1.390 . S
C2189 H2182 0.950 . S
C2189 C2186 1.387 . S
C2190 C2191 1.387 . S
C2190 H2194 0.950 . S
C2190 C2199 1.390 . S
C2191 C2190 1.387 . S
C2191 C2193 1.387 . S
H2192 C2199 0.950 . S
C2193 C2191 1.387 . S
C2193 C2195 1.390 . S
C2193 H2197 0.950 . S
H2194 C2190 0.950 . S
C2195 C2193 1.390 . S
C2195 C2196 1.387 . S
C2195 H2198 0.950 . S
C2196 C2195 1.387 . S
C2196 C2199 1.387 . S
H2197 C2193 0.950 . S
H2198 C2195 0.950 . S
C2199 C2190 1.390 . S
C2199 H2192 0.950 . S
C2199 C2196 1.387 . S
C2200 C2201 1.387 . S
C2200 H2204 0.950 . S
C2200 C2209 1.390 . S
C2201 C2200 1.387 . S
C2201 C2203 1.387 . S
H2202 C2209 0.950 . S
C2203 C2201 1.387 . S
C2203 C2205 1.390 . S
C2203 H2207 0.950 . S
H2204 C2200 0.950 . S
C2205 C2203 1.390 . S
C2205 C2206 1.387 . S
C2205 H2208 0.950 . S
C2206 C2205 1.387 . S
C2206 C2209 1.387 . S
H2207 C2203 0.950 . S
H2208 C2205 0.950 . S
C2209 C2200 1.390 . S
C2209 H2202 0.950 . S
C2209 C2206 1.387 . S
C2210 C2211 1.387 . S
C2210 H2214 0.950 . S
C2210 C2219 1.390 1_556 S
C2211 C2210 1.387 . S
C2211 C2213 1.387 . S
H2212 C2219 0.950 . S
C2213 C2211 1.387 . S
C2213 C2215 1.390 1_556 S
C2213 H2217 0.950 . S
H2214 C2210 0.950 . S
C2215 C2213 1.390 1_554 S
C2215 C2216 1.387 . S
C2215 H2218 0.950 . S
C2216 C2215 1.387 . S
C2216 C2219 1.387 . S
H2217 C2213 0.950 . S
H2218 C2215 0.950 . S
C2219 C2210 1.390 1_554 S
C2219 H2212 0.950 . S
C2219 C2216 1.387 . S
C2220 C2221 1.387 . S
C2220 H2224 0.950 . S
C2220 C2229 1.390 . S
C2221 C2220 1.387 . S
C2221 C2223 1.387 . S
H2222 C2229 0.950 . S
C2223 C2221 1.387 . S
C2223 C2225 1.390 . S
C2223 H2227 0.950 . S
H2224 C2220 0.950 . S
C2225 C2223 1.390 . S
C2225 C2226 1.387 . S
C2225 H2228 0.950 . S
C2226 C2225 1.387 . S
C2226 C2229 1.387 . S
H2227 C2223 0.950 . S
H2228 C2225 0.950 . S
C2229 C2220 1.390 . S
C2229 H2222 0.950 . S
C2229 C2226 1.387 . S
C2230 C2231 1.387 . S
C2230 H2234 0.950 . S
C2230 C2239 1.390 . S
C2231 C2230 1.387 . S
C2231 C2233 1.387 . S
H2232 C2239 0.950 . S
C2233 C2231 1.387 . S
C2233 C2235 1.390 . S
C2233 H2237 0.950 . S
H2234 C2230 0.950 . S
C2235 C2233 1.390 . S
C2235 C2236 1.387 . S
C2235 H2238 0.950 . S
C2236 C2235 1.387 . S
C2236 C2239 1.387 . S
H2237 C2233 0.950 . S
H2238 C2235 0.950 . S
C2239 C2230 1.390 . S
C2239 H2232 0.950 . S
C2239 C2236 1.387 . S
C1281 C10 0.766 . S
C1286 C1095 0.787 . S
C1291 C50 0.776 . S
C1296 C335 0.797 . S
C1301 C90 0.767 . S
C1306 C1015 0.787 . S
C1311 C415 0.794 . S
C1316 C130 0.774 . S
C1321 C170 0.771 . S
C1326 C1175 0.792 . S
C1331 C575 0.790 . S
C1336 C210 0.770 . S
C1341 C1255 0.796 . S
C1346 C250 0.776 . S
C1351 C290 0.767 . S
C1356 C495 0.788 . S
C1361 C339 0.777 . S
C1366 C766 0.797 . S
C1371 C379 0.769 . S
C1376 C6 0.790 . S
C1381 C686 0.798 . S
C1386 C419 0.777 . S
C1391 C86 0.787 . S
C1396 C459 0.766 . S
C1401 C499 0.776 . S
C1406 C846 0.797 . S
C1411 C539 0.769 . S
C1416 C246 0.790 . S
C1421 C579 0.777 . S
C1426 C926 0.798 . S
C1431 C166 0.797 . S
C1436 C619 0.776 . S
C1441 C455 0.798 . S
C1446 C650 0.777 . S
C1451 C975 0.798 . S
C1456 C690 0.777 . S
C1461 C375 0.798 . S
C1466 C730 0.777 . S
C1471 C770 0.768 . S
C1476 C1055 0.789 . S
C1481 C535 0.798 . S
C1486 C810 0.777 . S
C1491 C1215 0.787 . S
C1496 C850 0.766 . S
C1501 C615 0.797 . S
C1506 C890 0.777 . S
C1511 C930 0.773 . S
C1516 C1135 0.794 . S
C1521 C979 0.767 . S
C1526 C126 0.788 . S
C1531 C1019 0.775 . S
C1536 C646 0.796 . S
C1541 C1059 0.767 . S
C1546 C46 0.788 . S
C1551 C1099 0.769 . S
C1556 C726 0.790 . S
C1561 C206 0.787 . S
C1566 C1139 0.766 . S
C1571 C886 0.795 . S
C1576 C1179 0.774 . S
C1581 C1219 0.766 . S
C1586 C286 0.787 . S
C1591 C1259 0.773 . S
C1596 C806 0.793 . S
C1601 C18 2.010 . S
C1606 C738 2.010 . S
C1611 C778 2.010 . S
C1616 C58 2.010 . S
C1621 C98 2.014 . S
C1626 C658 2.014 . S
C1631 C138 2.010 . S
C1636 C698 2.010 . S
C1641 C898 2.014 . S
C1646 C178 2.014 . S
C1651 C218 2.014 . S
C1656 C938 2.014 . S
C1661 C818 2.010 . S
C1666 C258 2.010 . S
C1671 C298 2.014 . S
C1676 C858 2.014 . S
C1681 C1049 2.010 . S
C1686 C329 2.010 . S
C1691 C369 2.014 . S
C1696 C1089 2.014 . S
C1701 C409 2.014 . S
C1706 C969 2.014 . S
C1711 C449 2.010 . S
C1716 C1009 2.010 . S
C1721 C1209 2.014 . S
C1726 C489 2.014 . S
C1731 C1249 2.014 . S
C1736 C529 2.014 . S
C1741 C569 2.014 . S
C1746 C1129 2.014 . S
C1751 C609 2.010 . S
C1756 C1169 2.010 . S
C1761 C15 2.405 . S
C1766 C966 2.405 . S
C1771 C366 2.407 . S
C1776 C55 2.407 . S
C1781 C95 2.407 . S
C1786 C1046 2.407 . S
C1791 C135 2.404 1_556 S
C1796 C446 2.404 1_554 S
C1801 C1126 2.407 . S
C1806 C175 2.407 . S
C1811 C526 2.407 . S
C1816 C215 2.407 . S
C1821 C255 2.407 . S
C1826 C1206 2.407 . S
C1831 C295 2.402 1_554 S
C1836 C606 2.402 1_556 S
C1841 C655 2.407 . S
C1846 C326 2.407 . S
C1851 C735 2.407 . S
C1856 C406 2.407 . S
C1861 C815 2.407 . S
C1866 C486 2.407 . S
C1871 C566 2.405 . S
C1876 C895 2.405 . S
C1881 C695 2.404 1_556 S
C1886 C1006 2.404 1_554 S
C1891 C775 2.408 . S
C1896 C1086 2.408 . S
C1901 C1166 2.402 1_556 S
C1906 C855 2.402 1_554 S
C1911 C1246 2.405 . S
C1916 C935 2.405 . S
C1921 C9 4.449 1_565 S
C1926 C209 4.448 . S
C1931 C249 4.449 1_565 S
C1936 C49 4.448 . S
C1941 C289 4.448 . S
C1946 C89 4.447 1_545 S
C1951 C169 4.449 1_545 S
C1956 C129 4.448 . S
C1961 C338 4.449 1_545 S
C1966 C538 4.448 . S
C1971 C378 4.449 . S
C1976 C578 4.449 1_545 S
C1981 C618 4.449 . S
C1986 C418 4.449 1_565 S
C1991 C458 4.449 . S
C1996 C498 4.448 1_565 S
C2001 C649 4.447 . S
C2006 C849 4.448 . S
C2011 C689 4.448 . S
C2016 C889 4.449 . S
C2021 C729 4.449 . S
C2026 C929 4.448 . S
C2031 C809 4.448 . S
C2036 C769 4.448 . S
C2041 C978 4.448 . S
C2046 C1178 4.448 . S
C2051 C1018 4.448 . S
C2056 C1218 4.447 . S
C2061 C1258 4.448 . S
C2066 C1058 4.448 . S
C2071 C1098 4.448 . S
C2076 C1138 4.448 . S
C2081 C19 3.869 . S
C2086 C179 3.869 . S
C2091 C59 3.869 . S
C2096 C219 3.869 . S
C2101 C259 3.869 . S
C2106 C99 3.869 . S
C2111 C299 3.869 . S
C2116 C139 3.869 . S
C2121 C330 3.869 . S
C2126 C490 3.869 . S
C2131 C530 3.869 . S
C2136 C370 3.869 . S
C2141 C570 3.869 . S
C2146 C410 3.869 . S
C2151 C610 3.869 . S
C2156 C450 3.869 . S
C2161 C659 3.869 . S
C2166 C819 3.869 . S
C2171 C859 3.869 . S
C2176 C699 3.869 . S
C2181 C739 3.869 . S
C2186 C899 3.869 . S
C2191 C939 3.869 . S
C2196 C779 3.869 . S
C2201 C1130 3.869 . S
C2206 C970 3.869 . S
C2211 C1010 3.869 . S
C2216 C1170 3.869 . S
C2221 C1050 3.869 . S
C2226 C1210 3.869 . S
C2231 C1090 3.869 . S
C2236 C1250 3.869 . S
