# Generated by pormake.
# Topology uoh, (4)-cn, num edge types: 1
# Building blocks:
#     Node 0, Type 0, BuildingBlock: GALJAG_clean_sbu_0, # of connection points: 4
#     Node 1, Type 0, BuildingBlock: GALJAG_clean_sbu_0, # of connection points: 4
#     Node 2, Type 0, BuildingBlock: GALJAG_clean_sbu_0, # of connection points: 4
#     Node 3, Type 0, BuildingBlock: GALJAG_clean_sbu_0, # of connection points: 4
#     Node 4, Type 0, BuildingBlock: GALJAG_clean_sbu_0, # of connection points: 4
#     Node 5, Type 0, BuildingBlock: GALJAG_clean_sbu_0, # of connection points: 4
#     Node 6, Type 0, BuildingBlock: GALJAG_clean_sbu_0, # of connection points: 4
#     Node 7, Type 0, BuildingBlock: GALJAG_clean_sbu_0, # of connection points: 4
#     Node 8, Type 0, BuildingBlock: GALJAG_clean_sbu_0, # of connection points: 4
#     Node 9, Type 0, BuildingBlock: GALJAG_clean_sbu_0, # of connection points: 4
#     Node 10, Type 0, BuildingBlock: GALJAG_clean_sbu_0, # of connection points: 4
#     Node 11, Type 0, BuildingBlock: GALJAG_clean_sbu_0, # of connection points: 4
#     Node 12, Type 0, BuildingBlock: GALJAG_clean_sbu_0, # of connection points: 4
#     Node 13, Type 0, BuildingBlock: GALJAG_clean_sbu_0, # of connection points: 4
#     Node 14, Type 0, BuildingBlock: GALJAG_clean_sbu_0, # of connection points: 4
#     Node 15, Type 0, BuildingBlock: GALJAG_clean_sbu_0, # of connection points: 4
#     Node 16, Type 0, BuildingBlock: GALJAG_clean_sbu_0, # of connection points: 4
#     Node 17, Type 0, BuildingBlock: GALJAG_clean_sbu_0, # of connection points: 4
#     Node 18, Type 0, BuildingBlock: GALJAG_clean_sbu_0, # of connection points: 4
#     Node 19, Type 0, BuildingBlock: GALJAG_clean_sbu_0, # of connection points: 4
#     Node 20, Type 0, BuildingBlock: GALJAG_clean_sbu_0, # of connection points: 4
#     Node 21, Type 0, BuildingBlock: GALJAG_clean_sbu_0, # of connection points: 4
#     Node 22, Type 0, BuildingBlock: GALJAG_clean_sbu_0, # of connection points: 4
#     Node 23, Type 0, BuildingBlock: GALJAG_clean_sbu_0, # of connection points: 4
#     Node 24, Type 0, BuildingBlock: GALJAG_clean_sbu_0, # of connection points: 4
#     Node 25, Type 0, BuildingBlock: GALJAG_clean_sbu_0, # of connection points: 4
#     Node 26, Type 0, BuildingBlock: GALJAG_clean_sbu_0, # of connection points: 4
#     Node 27, Type 0, BuildingBlock: GALJAG_clean_sbu_0, # of connection points: 4
#     Node 28, Type 0, BuildingBlock: GALJAG_clean_sbu_0, # of connection points: 4
#     Node 29, Type 0, BuildingBlock: GALJAG_clean_sbu_0, # of connection points: 4
#     Node 30, Type 0, BuildingBlock: GALJAG_clean_sbu_0, # of connection points: 4
#     Node 31, Type 0, BuildingBlock: GALJAG_clean_sbu_0, # of connection points: 4
#     Node 32, Type 0, BuildingBlock: GALJAG_clean_sbu_0, # of connection points: 4
#     Node 33, Type 0, BuildingBlock: GALJAG_clean_sbu_0, # of connection points: 4
#     Node 34, Type 0, BuildingBlock: GALJAG_clean_sbu_0, # of connection points: 4
#     Node 35, Type 0, BuildingBlock: GALJAG_clean_sbu_0, # of connection points: 4
#     Edge 36, Type (0, 0), BuildingBlock: ZUJKAS_clean_linker_0, # of connection points: 2
#     Edge 37, Type (0, 0), BuildingBlock: ZUJKAS_clean_linker_0, # of connection points: 2
#     Edge 38, Type (0, 0), BuildingBlock: ZUJKAS_clean_linker_0, # of connection points: 2
#     Edge 39, Type (0, 0), BuildingBlock: ZUJKAS_clean_linker_0, # of connection points: 2
#     Edge 40, Type (0, 0), BuildingBlock: ZUJKAS_clean_linker_0, # of connection points: 2
#     Edge 41, Type (0, 0), BuildingBlock: ZUJKAS_clean_linker_0, # of connection points: 2
#     Edge 42, Type (0, 0), BuildingBlock: ZUJKAS_clean_linker_0, # of connection points: 2
#     Edge 43, Type (0, 0), BuildingBlock: ZUJKAS_clean_linker_0, # of connection points: 2
#     Edge 44, Type (0, 0), BuildingBlock: ZUJKAS_clean_linker_0, # of connection points: 2
#     Edge 45, Type (0, 0), BuildingBlock: ZUJKAS_clean_linker_0, # of connection points: 2
#     Edge 46, Type (0, 0), BuildingBlock: ZUJKAS_clean_linker_0, # of connection points: 2
#     Edge 47, Type (0, 0), BuildingBlock: ZUJKAS_clean_linker_0, # of connection points: 2
#     Edge 48, Type (0, 0), BuildingBlock: ZUJKAS_clean_linker_0, # of connection points: 2
#     Edge 49, Type (0, 0), BuildingBlock: ZUJKAS_clean_linker_0, # of connection points: 2
#     Edge 50, Type (0, 0), BuildingBlock: ZUJKAS_clean_linker_0, # of connection points: 2
#     Edge 51, Type (0, 0), BuildingBlock: ZUJKAS_clean_linker_0, # of connection points: 2
#     Edge 52, Type (0, 0), BuildingBlock: ZUJKAS_clean_linker_0, # of connection points: 2
#     Edge 53, Type (0, 0), BuildingBlock: ZUJKAS_clean_linker_0, # of connection points: 2
#     Edge 54, Type (0, 0), BuildingBlock: ZUJKAS_clean_linker_0, # of connection points: 2
#     Edge 55, Type (0, 0), BuildingBlock: ZUJKAS_clean_linker_0, # of connection points: 2
#     Edge 56, Type (0, 0), BuildingBlock: ZUJKAS_clean_linker_0, # of connection points: 2
#     Edge 57, Type (0, 0), BuildingBlock: ZUJKAS_clean_linker_0, # of connection points: 2
#     Edge 58, Type (0, 0), BuildingBlock: ZUJKAS_clean_linker_0, # of connection points: 2
#     Edge 59, Type (0, 0), BuildingBlock: ZUJKAS_clean_linker_0, # of connection points: 2
#     Edge 60, Type (0, 0), BuildingBlock: ZUJKAS_clean_linker_0, # of connection points: 2
#     Edge 61, Type (0, 0), BuildingBlock: ZUJKAS_clean_linker_0, # of connection points: 2
#     Edge 62, Type (0, 0), BuildingBlock: ZUJKAS_clean_linker_0, # of connection points: 2
#     Edge 63, Type (0, 0), BuildingBlock: ZUJKAS_clean_linker_0, # of connection points: 2
#     Edge 64, Type (0, 0), BuildingBlock: ZUJKAS_clean_linker_0, # of connection points: 2
#     Edge 65, Type (0, 0), BuildingBlock: ZUJKAS_clean_linker_0, # of connection points: 2
#     Edge 66, Type (0, 0), BuildingBlock: ZUJKAS_clean_linker_0, # of connection points: 2
#     Edge 67, Type (0, 0), BuildingBlock: ZUJKAS_clean_linker_0, # of connection points: 2
#     Edge 68, Type (0, 0), BuildingBlock: ZUJKAS_clean_linker_0, # of connection points: 2
#     Edge 69, Type (0, 0), BuildingBlock: ZUJKAS_clean_linker_0, # of connection points: 2
#     Edge 70, Type (0, 0), BuildingBlock: ZUJKAS_clean_linker_0, # of connection points: 2
#     Edge 71, Type (0, 0), BuildingBlock: ZUJKAS_clean_linker_0, # of connection points: 2
#     Edge 72, Type (0, 0), BuildingBlock: ZUJKAS_clean_linker_0, # of connection points: 2
#     Edge 73, Type (0, 0), BuildingBlock: ZUJKAS_clean_linker_0, # of connection points: 2
#     Edge 74, Type (0, 0), BuildingBlock: ZUJKAS_clean_linker_0, # of connection points: 2
#     Edge 75, Type (0, 0), BuildingBlock: ZUJKAS_clean_linker_0, # of connection points: 2
#     Edge 76, Type (0, 0), BuildingBlock: ZUJKAS_clean_linker_0, # of connection points: 2
#     Edge 77, Type (0, 0), BuildingBlock: ZUJKAS_clean_linker_0, # of connection points: 2
#     Edge 78, Type (0, 0), BuildingBlock: ZUJKAS_clean_linker_0, # of connection points: 2
#     Edge 79, Type (0, 0), BuildingBlock: ZUJKAS_clean_linker_0, # of connection points: 2
#     Edge 80, Type (0, 0), BuildingBlock: ZUJKAS_clean_linker_0, # of connection points: 2
#     Edge 81, Type (0, 0), BuildingBlock: ZUJKAS_clean_linker_0, # of connection points: 2
#     Edge 82, Type (0, 0), BuildingBlock: ZUJKAS_clean_linker_0, # of connection points: 2
#     Edge 83, Type (0, 0), BuildingBlock: ZUJKAS_clean_linker_0, # of connection points: 2
#     Edge 84, Type (0, 0), BuildingBlock: ZUJKAS_clean_linker_0, # of connection points: 2
#     Edge 85, Type (0, 0), BuildingBlock: ZUJKAS_clean_linker_0, # of connection points: 2
#     Edge 86, Type (0, 0), BuildingBlock: ZUJKAS_clean_linker_0, # of connection points: 2
#     Edge 87, Type (0, 0), BuildingBlock: ZUJKAS_clean_linker_0, # of connection points: 2
#     Edge 88, Type (0, 0), BuildingBlock: ZUJKAS_clean_linker_0, # of connection points: 2
#     Edge 89, Type (0, 0), BuildingBlock: ZUJKAS_clean_linker_0, # of connection points: 2
#     Edge 90, Type (0, 0), BuildingBlock: ZUJKAS_clean_linker_0, # of connection points: 2
#     Edge 91, Type (0, 0), BuildingBlock: ZUJKAS_clean_linker_0, # of connection points: 2
#     Edge 92, Type (0, 0), BuildingBlock: ZUJKAS_clean_linker_0, # of connection points: 2
#     Edge 93, Type (0, 0), BuildingBlock: ZUJKAS_clean_linker_0, # of connection points: 2
#     Edge 94, Type (0, 0), BuildingBlock: ZUJKAS_clean_linker_0, # of connection points: 2
#     Edge 95, Type (0, 0), BuildingBlock: ZUJKAS_clean_linker_0, # of connection points: 2
#     Edge 96, Type (0, 0), BuildingBlock: ZUJKAS_clean_linker_0, # of connection points: 2
#     Edge 97, Type (0, 0), BuildingBlock: ZUJKAS_clean_linker_0, # of connection points: 2
#     Edge 98, Type (0, 0), BuildingBlock: ZUJKAS_clean_linker_0, # of connection points: 2
#     Edge 99, Type (0, 0), BuildingBlock: ZUJKAS_clean_linker_0, # of connection points: 2
#     Edge 100, Type (0, 0), BuildingBlock: ZUJKAS_clean_linker_0, # of connection points: 2
#     Edge 101, Type (0, 0), BuildingBlock: ZUJKAS_clean_linker_0, # of connection points: 2
#     Edge 102, Type (0, 0), BuildingBlock: ZUJKAS_clean_linker_0, # of connection points: 2
#     Edge 103, Type (0, 0), BuildingBlock: ZUJKAS_clean_linker_0, # of connection points: 2
#     Edge 104, Type (0, 0), BuildingBlock: ZUJKAS_clean_linker_0, # of connection points: 2
#     Edge 105, Type (0, 0), BuildingBlock: ZUJKAS_clean_linker_0, # of connection points: 2
#     Edge 106, Type (0, 0), BuildingBlock: ZUJKAS_clean_linker_0, # of connection points: 2
#     Edge 107, Type (0, 0), BuildingBlock: ZUJKAS_clean_linker_0, # of connection points: 2
# Relax obj value: 0.044
# Max RMSD: 0.095
# Mean RMSD: 0.095
data_MOF--net-uoh--node1-GALJAG_clean_sbu_0--edge1-ZUJKAS_clean_linker_0
_symmetry_space_group_name_H-M    P1
_symmetry_Int_Tables_number       1
_symmetry_cell_setting            triclinic
loop_
_symmetry_equiv_pos_as_xyz
'x, y, z'
_cell_length_a     112.02296
_cell_length_b     112.03161
_cell_length_c     37.367549
_cell_angle_alpha  90.016289
_cell_angle_beta   89.994676
_cell_angle_gamma 119.9889
loop_
_atom_site_label
_atom_site_type_symbol
_atom_site_fract_x
_atom_site_fract_y
_atom_site_fract_z
_atom_type_partial_charge
In0 In 0.2327 0.13459 0.19196 0.0
O1 O 0.23695 0.15644 0.20258 0.0
O2 O 0.21614 0.14009 0.20303 0.0
C3 C 0.25913 0.14135 0.18321 0.0
C4 C 0.22603 0.12128 0.25539 0.0
C5 C 0.22325 0.12563 0.12524 0.0
O6 O 0.2555 0.15023 0.18847 0.0
O7 O 0.24937 0.12901 0.18211 0.0
O8 O 0.22091 0.11734 0.1508 0.0
O9 O 0.23015 0.13818 0.13363 0.0
C10 C 0.2244 0.15281 0.20669 0.0
O11 O 0.21768 0.11722 0.22943 0.0
O12 O 0.23762 0.13161 0.24878 0.0
In13 In 0.86106 0.09749 0.20154 0.0
O14 O 0.84008 0.07852 0.21111 0.0
O15 O 0.85802 0.07667 0.21724 0.0
C16 C 0.85218 0.11534 0.18809 0.0
C17 C 0.87368 0.10574 0.26555 0.0
C18 C 0.87051 0.09609 0.13615 0.0
O19 O 0.84402 0.10276 0.19464 0.0
O20 O 0.86479 0.11887 0.18808 0.0
O21 O 0.87827 0.10472 0.15932 0.0
O22 O 0.8583 0.08826 0.14627 0.0
C23 C 0.84503 0.07086 0.21856 0.0
O24 O 0.87941 0.10342 0.2394 0.0
O25 O 0.86201 0.10427 0.25882 0.0
In26 In 0.89924 0.76513 0.18689 0.0
O27 O 0.89511 0.77833 0.22688 0.0
O28 O 0.89107 0.75848 0.24301 0.0
C29 C 0.90011 0.77668 0.12274 0.0
C30 C 0.92557 0.77398 0.20428 0.0
C31 C 0.88156 0.73858 0.17115 0.0
O32 O 0.89121 0.77486 0.14615 0.0
O33 O 0.9086 0.77303 0.13216 0.0
O34 O 0.89424 0.7431 0.1765 0.0
O35 O 0.87783 0.74748 0.17359 0.0
C36 C 0.89129 0.76945 0.25157 0.0
O37 O 0.91729 0.76158 0.19609 0.0
O38 O 0.92056 0.78188 0.20329 0.0
In39 In 0.13871 0.23653 0.30126 0.0
O40 O 0.16018 0.23959 0.29264 0.0
O41 O 0.14296 0.21918 0.29001 0.0
C42 C 0.1465 0.2632 0.31182 0.0
C43 C 0.12611 0.23052 0.23684 0.0
C44 C 0.1293 0.22651 0.36738 0.0
O45 O 0.15507 0.25915 0.30717 0.0
O46 O 0.13402 0.25379 0.31132 0.0
O47 O 0.12144 0.22674 0.34346 0.0
O48 O 0.1416 0.23113 0.35768 0.0
C49 C 0.15587 0.2269 0.28801 0.0
O50 O 0.1206 0.22289 0.26381 0.0
O51 O 0.1376 0.2411 0.24286 0.0
In52 In 0.76063 0.8996 0.3023 0.0
O53 O 0.75909 0.91899 0.29703 0.0
O54 O 0.77906 0.92122 0.30204 0.0
C55 C 0.73361 0.88058 0.30153 0.0
C56 C 0.76906 0.89556 0.23812 0.0
C57 C 0.76774 0.89805 0.37034 0.0
O58 O 0.73797 0.89335 0.29977 0.0
O59 O 0.7429 0.87736 0.30343 0.0
O60 O 0.77289 0.89501 0.34414 0.0
O61 O 0.75908 0.90161 0.36193 0.0
C62 C 0.77197 0.92704 0.29833 0.0
O63 O 0.77153 0.89113 0.26671 0.0
O64 O 0.76229 0.90167 0.24225 0.0
In65 In 0.09448 0.86132 0.30506 0.0
O66 O 0.09758 0.87887 0.26721 0.0
O67 O 0.10228 0.86381 0.24825 0.0
C68 C 0.09448 0.87059 0.37161 0.0
C69 C 0.06764 0.84387 0.29205 0.0
C70 C 0.11335 0.85356 0.31516 0.0
O71 O 0.10066 0.87878 0.34602 0.0
O72 O 0.0884 0.85801 0.36329 0.0
O73 O 0.10079 0.84504 0.30917 0.0
O74 O 0.11638 0.86604 0.31613 0.0
C75 C 0.10158 0.87445 0.24143 0.0
O76 O 0.07632 0.83984 0.294 0.0
O77 O 0.07254 0.85664 0.29653 0.0
In78 In 0.76446 0.86261 0.80554 0.0
O79 O 0.76034 0.841 0.79297 0.0
O80 O 0.78082 0.85779 0.78688 0.0
C81 C 0.73787 0.85375 0.82075 0.0
C82 C 0.76932 0.87617 0.74269 0.0
C83 C 0.77581 0.8721 0.8706 0.0
O84 O 0.7423 0.84559 0.81416 0.0
O85 O 0.7469 0.86638 0.81993 0.0
O86 O 0.77425 0.87964 0.84814 0.0
O87 O 0.77201 0.86008 0.85982 0.0
C88 C 0.77267 0.84498 0.78425 0.0
O89 O 0.77836 0.88018 0.76701 0.0
O90 O 0.75793 0.86585 0.75086 0.0
In91 In 0.13448 0.89988 0.80441 0.0
O92 O 0.1169 0.89723 0.76745 0.0
O93 O 0.13093 0.89116 0.74832 0.0
C94 C 0.12553 0.90048 0.87107 0.0
C95 C 0.15221 0.92635 0.78803 0.0
C96 C 0.14215 0.88087 0.81331 0.0
O97 O 0.11726 0.89404 0.84587 0.0
O98 O 0.13807 0.90658 0.86236 0.0
O99 O 0.15065 0.89337 0.80669 0.0
O100 O 0.12972 0.87795 0.81564 0.0
C101 C 0.12065 0.89254 0.74178 0.0
O102 O 0.15618 0.91779 0.79399 0.0
O103 O 0.1394 0.92157 0.79078 0.0
In104 In 0.09685 0.23314 0.80349 0.0
O105 O 0.07839 0.23596 0.79353 0.0
O106 O 0.07573 0.21584 0.78745 0.0
C107 C 0.11411 0.25972 0.82026 0.0
C108 C 0.10526 0.22927 0.73897 0.0
C109 C 0.09584 0.22164 0.86781 0.0
O110 O 0.10143 0.25502 0.81459 0.0
O111 O 0.11807 0.25101 0.8174 0.0
O112 O 0.10484 0.2235 0.84467 0.0
O113 O 0.08733 0.22521 0.858 0.0
C114 C 0.07037 0.22343 0.78594 0.0
O115 O 0.1023 0.22073 0.76421 0.0
O116 O 0.10436 0.23973 0.74685 0.0
In117 In 0.85676 0.76078 0.69159 0.0
O118 O 0.83526 0.75802 0.69481 0.0
O119 O 0.85225 0.77833 0.68755 0.0
C120 C 0.84992 0.73411 0.69568 0.0
C121 C 0.86887 0.77043 0.75571 0.0
C122 C 0.86585 0.76733 0.62366 0.0
O123 O 0.84108 0.73795 0.69593 0.0
O124 O 0.86227 0.74376 0.69365 0.0
O125 O 0.87351 0.77364 0.65006 0.0
O126 O 0.85395 0.75781 0.63184 0.0
C127 C 0.83938 0.77071 0.69121 0.0
O128 O 0.87591 0.77228 0.72764 0.0
O129 O 0.85602 0.76377 0.75112 0.0
In130 In 0.23203 0.0953 0.69148 0.0
O131 O 0.23587 0.07741 0.70134 0.0
O132 O 0.21514 0.07326 0.70075 0.0
C133 C 0.25837 0.1148 0.68021 0.0
C134 C 0.22606 0.1018 0.75604 0.0
C135 C 0.2222 0.09491 0.62537 0.0
O136 O 0.25473 0.10229 0.6853 0.0
O137 O 0.24868 0.1175 0.68094 0.0
O138 O 0.22014 0.10099 0.65115 0.0
O139 O 0.22896 0.08907 0.63333 0.0
C140 C 0.22324 0.06858 0.70429 0.0
O141 O 0.21783 0.09853 0.72994 0.0
O142 O 0.23723 0.10214 0.74904 0.0
In143 In 0.89935 0.1367 0.70282 0.0
O144 O 0.91813 0.15792 0.71132 0.0
O145 O 0.92065 0.14031 0.71527 0.0
C146 C 0.8808 0.14492 0.69228 0.0
C147 C 0.89216 0.12392 0.76685 0.0
C148 C 0.90027 0.12763 0.63655 0.0
O149 O 0.89338 0.15331 0.69823 0.0
O150 O 0.87762 0.13241 0.69138 0.0
O151 O 0.89207 0.11963 0.66012 0.0
O152 O 0.90785 0.13989 0.64666 0.0
C153 C 0.92619 0.15327 0.71674 0.0
O154 O 0.89418 0.11832 0.73991 0.0
O155 O 0.89348 0.13559 0.76096 0.0
In156 In 0.89889 0.46758 0.53171 0.0
O157 O 0.90349 0.4898 0.53476 0.0
O158 O 0.88445 0.47403 0.5561 0.0
C159 C 0.92564 0.47617 0.51905 0.0
C160 C 0.893 0.45365 0.59425 0.0
C161 C 0.88681 0.45759 0.46742 0.0
O162 O 0.92147 0.48419 0.52944 0.0
O163 O 0.91627 0.46379 0.5148 0.0
O164 O 0.88915 0.45041 0.48925 0.0
O165 O 0.89022 0.46948 0.47844 0.0
C166 C 0.89229 0.48673 0.55025 0.0
O167 O 0.88397 0.45068 0.57034 0.0
O168 O 0.90489 0.46313 0.58588 0.0
In169 In 0.53116 0.43195 0.53325 0.0
O170 O 0.51016 0.41333 0.54513 0.0
O171 O 0.52801 0.41132 0.55121 0.0
C172 C 0.52184 0.44935 0.51813 0.0
C173 C 0.54449 0.4409 0.59613 0.0
C174 C 0.54031 0.42973 0.46819 0.0
O175 O 0.51385 0.43675 0.52498 0.0
O176 O 0.53451 0.45311 0.51869 0.0
O177 O 0.54793 0.43913 0.48991 0.0
O178 O 0.52837 0.42155 0.47958 0.0
C179 C 0.51506 0.40569 0.55337 0.0
O180 O 0.54978 0.43799 0.57006 0.0
O181 O 0.53291 0.43973 0.58976 0.0
In182 In 0.56772 0.09726 0.52469 0.0
O183 O 0.58694 0.09533 0.52841 0.0
O184 O 0.58946 0.1153 0.52047 0.0
C185 C 0.54856 0.07035 0.52712 0.0
C186 C 0.56469 0.106 0.58946 0.0
C187 C 0.56488 0.10408 0.45741 0.0
O188 O 0.56132 0.07456 0.52614 0.0
O189 O 0.54546 0.07974 0.52721 0.0
O190 O 0.56363 0.11028 0.4842 0.0
O191 O 0.56728 0.09452 0.46491 0.0
C192 C 0.59514 0.10809 0.52455 0.0
O193 O 0.55938 0.10787 0.56165 0.0
O194 O 0.57127 0.09976 0.58427 0.0
In195 In 0.80301 0.56561 0.63998 0.0
O196 O 0.82511 0.56996 0.63622 0.0
O197 O 0.8089 0.55007 0.62086 0.0
C198 C 0.8105 0.59193 0.65507 0.0
C199 C 0.79113 0.56079 0.57466 0.0
C200 C 0.79211 0.5534 0.70348 0.0
O201 O 0.81917 0.58813 0.64865 0.0
O202 O 0.79806 0.58244 0.65391 0.0
O203 O 0.78504 0.5552 0.68001 0.0
O204 O 0.80434 0.55737 0.6944 0.0
C205 C 0.82171 0.55811 0.62442 0.0
O206 O 0.78615 0.55196 0.59949 0.0
O207 O 0.80162 0.57198 0.58337 0.0
In208 In 0.4283 0.23479 0.64009 0.0
O209 O 0.42735 0.25455 0.63691 0.0
O210 O 0.44711 0.25616 0.6398 0.0
C211 C 0.40121 0.21612 0.64074 0.0
C212 C 0.43544 0.23056 0.57434 0.0
C213 C 0.43567 0.23232 0.70718 0.0
O214 O 0.40573 0.22894 0.63998 0.0
O215 O 0.41038 0.21271 0.64098 0.0
O216 O 0.44073 0.22966 0.6801 0.0
O217 O 0.42701 0.23602 0.70009 0.0
C218 C 0.44029 0.26232 0.6375 0.0
O219 O 0.43854 0.22629 0.60224 0.0
O220 O 0.42878 0.23669 0.57994 0.0
In221 In 0.76407 0.19822 0.63127 0.0
O222 O 0.74571 0.17704 0.61937 0.0
O223 O 0.74349 0.1947 0.61167 0.0
C224 C 0.78184 0.18939 0.64645 0.0
C225 C 0.77309 0.21164 0.56853 0.0
C226 C 0.76144 0.20714 0.69631 0.0
O227 O 0.76932 0.18121 0.63925 0.0
O228 O 0.78533 0.20199 0.64629 0.0
O229 O 0.77084 0.21489 0.67476 0.0
O230 O 0.75341 0.19519 0.68471 0.0
C231 C 0.73804 0.18175 0.6099 0.0
O232 O 0.76982 0.21675 0.59432 0.0
O233 O 0.77226 0.20023 0.57516 0.0
In234 In 0.42916 0.19161 0.14055 0.0
O235 O 0.4264 0.1702 0.13358 0.0
O236 O 0.44675 0.18751 0.13112 0.0
C237 C 0.40228 0.18286 0.15086 0.0
C238 C 0.43486 0.20343 0.07507 0.0
C239 C 0.43898 0.20221 0.20601 0.0
O240 O 0.40683 0.17466 0.14688 0.0
O241 O 0.41132 0.19548 0.14987 0.0
O242 O 0.43837 0.2095 0.18105 0.0
O243 O 0.43486 0.18987 0.19761 0.0
C244 C 0.43912 0.17457 0.12957 0.0
O245 O 0.44284 0.20907 0.10136 0.0
O246 O 0.42409 0.19227 0.08232 0.0
In247 In 0.79903 0.2324 0.13045 0.0
O248 O 0.82044 0.2506 0.11996 0.0
O249 O 0.8031 0.25338 0.11254 0.0
C250 C 0.80754 0.21423 0.14386 0.0
C251 C 0.78548 0.22411 0.06763 0.0
C252 C 0.79023 0.23467 0.196 0.0
O253 O 0.81582 0.22675 0.13692 0.0
O254 O 0.79499 0.21092 0.14431 0.0
O255 O 0.78242 0.2254 0.17422 0.0
O256 O 0.80216 0.24272 0.18441 0.0
C257 C 0.81604 0.25861 0.1113 0.0
O258 O 0.78051 0.22727 0.09397 0.0
O259 O 0.79684 0.22474 0.07368 0.0
In260 In 0.76377 0.56788 0.1357 0.0
O261 O 0.7444 0.56952 0.13155 0.0
O262 O 0.74211 0.54949 0.13533 0.0
C263 C 0.78294 0.59482 0.13522 0.0
C264 C 0.7676 0.55982 0.07073 0.0
C265 C 0.76579 0.5608 0.20349 0.0
O266 O 0.77018 0.59057 0.13413 0.0
O267 O 0.78607 0.58546 0.1364 0.0
O268 O 0.76881 0.55577 0.17699 0.0
O269 O 0.76197 0.5693 0.19549 0.0
C270 C 0.73632 0.55665 0.1324 0.0
O271 O 0.77144 0.55653 0.0991 0.0
O272 O 0.76214 0.56716 0.0755 0.0
In273 In 0.5304 0.09762 0.02367 0.0
O274 O 0.50868 0.09362 0.03424 0.0
O275 O 0.52544 0.11419 0.03896 0.0
C276 C 0.52242 0.07097 0.01225 0.0
C277 C 0.54361 0.10372 0.08716 0.0
C278 C 0.53969 0.10828 0.95802 0.0
O279 O 0.51395 0.07512 0.01752 0.0
O280 O 0.53494 0.08031 0.01231 0.0
O281 O 0.54754 0.1077 0.98141 0.0
O282 O 0.52743 0.10367 0.96802 0.0
C283 C 0.51261 0.10607 0.04129 0.0
O284 O 0.54804 0.11209 0.06127 0.0
O285 O 0.53306 0.09232 0.08029 0.0
In286 In 0.89953 0.42985 0.03446 0.0
O287 O 0.88611 0.43488 0.07124 0.0
O288 O 0.9036 0.43485 0.09325 0.0
C289 C 0.89095 0.43012 0.96718 0.0
C290 C 0.88919 0.40275 0.04512 0.0
C291 C 0.92628 0.44887 0.02692 0.0
O292 O 0.88845 0.43599 0.99267 0.0
O293 O 0.89758 0.42422 0.97597 0.0
O294 O 0.9222 0.43627 0.03212 0.0
O295 O 0.91684 0.45189 0.02551 0.0
C296 C 0.89336 0.43639 0.09868 0.0
O297 O 0.90197 0.41106 0.0427 0.0
O298 O 0.88167 0.40814 0.0423 0.0
In299 In 0.56626 0.4669 0.03396 0.0
O300 O 0.58484 0.48806 0.04485 0.0
O301 O 0.58711 0.47034 0.05074 0.0
C302 C 0.54796 0.47528 0.02121 0.0
C303 C 0.55797 0.45356 0.09694 0.0
C304 C 0.5684 0.45828 0.96815 0.0
O305 O 0.56049 0.48363 0.02799 0.0
O306 O 0.54474 0.46276 0.0205 0.0
O307 O 0.55945 0.45027 0.99034 0.0
O308 O 0.57617 0.47034 0.97943 0.0
C309 C 0.59265 0.48329 0.05259 0.0
O310 O 0.56071 0.4483 0.07046 0.0
O311 O 0.55904 0.46512 0.09098 0.0
In312 In 0.56807 0.80419 0.86449 0.0
O313 O 0.55262 0.78656 0.90059 0.0
O314 O 0.57201 0.80126 0.92226 0.0
C315 C 0.5596 0.79556 0.79704 0.0
C316 C 0.55925 0.82217 0.87641 0.0
C317 C 0.59464 0.81117 0.85777 0.0
O318 O 0.55698 0.78712 0.8224 0.0
O319 O 0.56633 0.80807 0.80599 0.0
O320 O 0.59087 0.81994 0.86294 0.0
O321 O 0.58496 0.7988 0.85594 0.0
C322 C 0.56043 0.79074 0.92764 0.0
O323 O 0.5719 0.82588 0.87519 0.0
O324 O 0.55117 0.80946 0.87162 0.0
In325 In 0.19673 0.76468 0.86323 0.0
O326 O 0.21444 0.76805 0.90086 0.0
O327 O 0.19975 0.77333 0.9193 0.0
C328 C 0.20611 0.7635 0.79748 0.0
C329 C 0.17937 0.73824 0.87997 0.0
C330 C 0.18747 0.78228 0.85092 0.0
O331 O 0.21366 0.77257 0.82002 0.0
O332 O 0.19416 0.75515 0.80839 0.0
O333 O 0.17952 0.76972 0.85816 0.0
O334 O 0.20012 0.78595 0.84965 0.0
C335 C 0.21025 0.77243 0.92634 0.0
O336 O 0.17518 0.74659 0.87326 0.0
O337 O 0.19227 0.74328 0.8783 0.0
In338 In 0.23354 0.42892 0.86616 0.0
O339 O 0.22563 0.4394 0.90514 0.0
O340 O 0.23841 0.43188 0.92513 0.0
C341 C 0.23064 0.43643 0.79964 0.0
C342 C 0.26074 0.43841 0.86408 0.0
C343 C 0.21354 0.40229 0.8691 0.0
O344 O 0.23017 0.44285 0.82698 0.0
O345 O 0.23233 0.42635 0.80624 0.0
O346 O 0.22618 0.40598 0.8677 0.0
O347 O 0.21098 0.41205 0.86938 0.0
C348 C 0.23168 0.43786 0.93183 0.0
O349 O 0.25203 0.42573 0.8671 0.0
O350 O 0.25567 0.44623 0.86169 0.0
In351 In 0.46852 0.89987 0.97571 0.0
O352 O 0.49037 0.9039 0.96748 0.0
O353 O 0.47364 0.88355 0.95883 0.0
C354 C 0.47729 0.92677 0.98573 0.0
C355 C 0.45499 0.89339 0.91252 0.0
C356 C 0.45883 0.8896 0.04162 0.0
O357 O 0.48546 0.92227 0.98043 0.0
O358 O 0.46468 0.91767 0.98634 0.0
O359 O 0.45151 0.89124 0.01862 0.0
O360 O 0.47073 0.89282 0.03103 0.0
C361 C 0.48652 0.89162 0.95857 0.0
O362 O 0.451 0.88498 0.93834 0.0
O363 O 0.46528 0.90499 0.91928 0.0
In364 In 0.09589 0.56804 0.97102 0.0
O365 O 0.10855 0.5622 0.93381 0.0
O366 O 0.09082 0.5621 0.91308 0.0
C367 C 0.10587 0.56917 0.0373 0.0
C368 C 0.10605 0.5948 0.95579 0.0
C369 C 0.06931 0.54913 0.98205 0.0
O370 O 0.10775 0.5627 0.01223 0.0
O371 O 0.09917 0.575 0.02859 0.0
O372 O 0.07328 0.56166 0.97603 0.0
O373 O 0.07879 0.54614 0.98261 0.0
C374 C 0.10092 0.56038 0.90702 0.0
O375 O 0.09338 0.58672 0.96141 0.0
O376 O 0.11354 0.58936 0.95815 0.0
In377 In 0.42923 0.52648 0.96789 0.0
O378 O 0.41082 0.50516 0.95783 0.0
O379 O 0.40832 0.52264 0.94991 0.0
C380 C 0.44755 0.51818 0.98139 0.0
C381 C 0.43751 0.53929 0.90409 0.0
C382 C 0.42759 0.53598 0.03312 0.0
O383 O 0.43495 0.50979 0.9757 0.0
O384 O 0.45084 0.53072 0.98066 0.0
O385 O 0.43629 0.54366 0.01002 0.0
O386 O 0.41968 0.52379 0.02295 0.0
C387 C 0.40296 0.5097 0.94867 0.0
O388 O 0.43469 0.54473 0.93001 0.0
O389 O 0.43652 0.52783 0.91099 0.0
In390 In 0.09653 0.53095 0.46999 0.0
O391 O 0.11156 0.54863 0.43336 0.0
O392 O 0.09112 0.53547 0.41516 0.0
C393 C 0.10701 0.5398 0.53609 0.0
C394 C 0.10485 0.51311 0.45158 0.0
C395 C 0.06966 0.52191 0.48176 0.0
O396 O 0.10563 0.54754 0.51392 0.0
O397 O 0.10331 0.52789 0.52467 0.0
O398 O 0.0741 0.51397 0.47261 0.0
O399 O 0.07882 0.53442 0.48522 0.0
C400 C 0.10291 0.54547 0.40837 0.0
O401 O 0.09243 0.5092 0.45902 0.0
O402 O 0.11296 0.52595 0.45339 0.0
In403 In 0.46899 0.56691 0.46613 0.0
O404 O 0.44996 0.55978 0.42983 0.0
O405 O 0.46937 0.56557 0.40605 0.0
C406 C 0.46037 0.56737 0.53325 0.0
C407 C 0.48487 0.59403 0.45538 0.0
C408 C 0.47699 0.54795 0.47213 0.0
O409 O 0.452 0.56012 0.50895 0.0
O410 O 0.47276 0.57419 0.5235 0.0
O411 O 0.48546 0.56066 0.46873 0.0
O412 O 0.4645 0.54483 0.47261 0.0
C413 C 0.45678 0.56154 0.40137 0.0
O414 O 0.48987 0.58617 0.45892 0.0
O415 O 0.47188 0.58817 0.45766 0.0
In416 In 0.42949 0.90041 0.47803 0.0
O417 O 0.43736 0.88969 0.43986 0.0
O418 O 0.43051 0.90277 0.41804 0.0
C419 C 0.42936 0.89072 0.54413 0.0
C420 C 0.40232 0.88938 0.46793 0.0
C421 C 0.44848 0.92717 0.48657 0.0
O422 O 0.43441 0.8877 0.51766 0.0
O423 O 0.42451 0.89844 0.53691 0.0
O424 O 0.43576 0.92297 0.48395 0.0
O425 O 0.45167 0.91786 0.48457 0.0
C426 C 0.43514 0.89476 0.41211 0.0
O427 O 0.41033 0.90222 0.47093 0.0
O428 O 0.40802 0.88213 0.47058 0.0
In429 In 0.19381 0.43223 0.36519 0.0
O430 O 0.17206 0.42877 0.37077 0.0
O431 O 0.189 0.44922 0.37631 0.0
C432 C 0.1865 0.40569 0.35469 0.0
C433 C 0.20523 0.43798 0.43101 0.0
C434 C 0.20473 0.44262 0.30045 0.0
O435 O 0.17776 0.4096 0.35784 0.0
O436 O 0.19892 0.41518 0.35667 0.0
O437 O 0.21206 0.44267 0.32622 0.0
O438 O 0.19214 0.4376 0.3077 0.0
C439 C 0.17609 0.44133 0.37665 0.0
O440 O 0.21094 0.44602 0.40487 0.0
O441 O 0.19419 0.42711 0.42345 0.0
In442 In 0.56346 0.76435 0.36034 0.0
O443 O 0.5499 0.76828 0.39941 0.0
O444 O 0.56995 0.77308 0.41608 0.0
C445 C 0.55296 0.76349 0.29484 0.0
C446 C 0.55387 0.73773 0.37667 0.0
C447 C 0.59001 0.78256 0.34653 0.0
O448 O 0.55187 0.77041 0.32008 0.0
O449 O 0.55913 0.75707 0.30301 0.0
O450 O 0.58583 0.77005 0.35359 0.0
O451 O 0.58076 0.78589 0.34644 0.0
C452 C 0.55879 0.77256 0.42413 0.0
O453 O 0.56653 0.74606 0.37171 0.0
O454 O 0.54615 0.74285 0.37329 0.0
In455 In 0.23253 0.80269 0.36336 0.0
O456 O 0.2515 0.82365 0.37359 0.0
O457 O 0.25378 0.8059 0.37478 0.0
C458 C 0.2139 0.81079 0.3533 0.0
C459 C 0.22493 0.78986 0.42721 0.0
C460 C 0.23322 0.79382 0.29676 0.0
O461 O 0.2265 0.81919 0.35891 0.0
O462 O 0.21069 0.79825 0.35264 0.0
O463 O 0.22693 0.78548 0.322 0.0
O464 O 0.23904 0.80636 0.3054 0.0
C465 C 0.25943 0.8188 0.37801 0.0
O466 O 0.22671 0.78412 0.40019 0.0
O467 O 0.22663 0.80169 0.42146 0.0
H468 H 0.24372 0.1128 0.81183 0.0
H469 H 0.23815 0.1141 0.87422 0.0
H470 H 0.19523 0.0966 0.84654 0.0
H471 H 0.20083 0.09553 0.78338 0.0
H472 H 0.20398 0.11789 0.8954 0.0
H473 H 0.21971 0.08077 0.93971 0.0
H474 H 0.23324 0.09466 0.91499 0.0
H475 H 0.21717 0.08318 0.89314 0.0
C476 C 0.2331 0.10932 0.8189 0.0
C477 C 0.22268 0.10395 0.79281 0.0
C478 C 0.22992 0.10996 0.85463 0.0
C479 C 0.21622 0.10506 0.86517 0.0
C480 C 0.20584 0.10027 0.83899 0.0
H481 H 0.20748 0.09932 0.09926 0.0
H482 H 0.20198 0.09239 0.03634 0.0
C483 C 0.20905 0.09971 0.80298 0.0
C484 C 0.21299 0.10504 0.90363 0.0
H485 H 0.21941 0.0959 0.98534 0.0
C486 C 0.20711 0.11288 0.9151 0.0
C487 C 0.21667 0.09816 0.9293 0.0
C488 C 0.2219 0.08859 0.91862 0.0
C489 C 0.20581 0.11488 0.95169 0.0
C490 C 0.21086 0.10918 0.97733 0.0
C491 C 0.21574 0.10047 0.96579 0.0
C492 C 0.21259 0.11324 0.01564 0.0
C493 C 0.19926 0.12329 0.96241 0.0
C494 C 0.22036 0.12722 0.02493 0.0
C495 C 0.2234 0.13117 0.06065 0.0
C496 C 0.21896 0.12122 0.08791 0.0
C497 C 0.21102 0.10721 0.07879 0.0
C498 C 0.20787 0.10325 0.0429 0.0
H499 H 0.19139 0.12215 0.94251 0.0
H500 H 0.19431 0.12022 0.98914 0.0
H501 H 0.20728 0.13435 0.96325 0.0
H502 H 0.22453 0.13511 0.00445 0.0
H503 H 0.22962 0.14204 0.06677 0.0
H504 H 0.8926 0.10091 0.79057 0.0
H505 H 0.88895 0.0921 0.85232 0.0
H506 H 0.88182 0.1248 0.88631 0.0
H507 H 0.88534 0.13355 0.82529 0.0
H508 H 0.90397 0.10705 0.91585 0.0
H509 H 0.84821 0.08935 0.92474 0.0
H510 H 0.85716 0.09251 0.88253 0.0
H511 H 0.8582 0.10662 0.90804 0.0
C512 C 0.8901 0.1061 0.81121 0.0
C513 C 0.88918 0.11787 0.80311 0.0
C514 C 0.88809 0.10111 0.8464 0.0
C515 C 0.88498 0.10773 0.8737 0.0
C516 C 0.884 0.11942 0.86551 0.0
H517 H 0.89278 0.11619 0.10012 0.0
H518 H 0.8972 0.11698 0.03571 0.0
C519 C 0.88606 0.12442 0.83061 0.0
C520 C 0.88305 0.10284 0.91117 0.0
H521 H 0.86029 0.09337 0.98033 0.0
C522 C 0.89436 0.10381 0.92993 0.0
C523 C 0.87047 0.09847 0.92928 0.0
C524 C 0.85777 0.09653 0.91004 0.0
C525 C 0.8936 0.1012 0.96691 0.0
C526 C 0.88128 0.09778 0.98549 0.0
C527 C 0.86978 0.09612 0.96622 0.0
C528 C 0.88012 0.09649 0.02504 0.0
C529 C 0.90601 0.10227 0.9857 0.0
C530 C 0.86912 0.08472 0.04055 0.0
C531 C 0.86646 0.08437 0.07712 0.0
C532 C 0.87479 0.09576 0.09897 0.0
C533 C 0.88627 0.10724 0.08391 0.0
C534 C 0.88884 0.10765 0.04713 0.0
H535 H 0.91256 0.10035 0.96692 0.0
H536 H 0.91235 0.11284 0.99655 0.0
H537 H 0.90292 0.09485 0.00823 0.0
H538 H 0.86225 0.076 0.02407 0.0
H539 H 0.85757 0.07536 0.08806 0.0
H540 H 0.87909 0.77792 0.08899 0.0
H541 H 0.87736 0.78143 0.02485 0.0
H542 H 0.91883 0.7893 0.00923 0.0
H543 H 0.92048 0.78542 0.07297 0.0
H544 H 0.89228 0.80244 0.97536 0.0
H545 H 0.89632 0.75593 0.94578 0.0
H546 H 0.89385 0.76033 0.99053 0.0
H547 H 0.91063 0.76917 0.97014 0.0
C548 C 0.88791 0.78063 0.07195 0.0
C549 C 0.89984 0.78121 0.08581 0.0
C550 C 0.88691 0.78262 0.03535 0.0
C551 C 0.89785 0.78529 0.01218 0.0
C552 C 0.91014 0.7869 0.02649 0.0
H553 H 0.89569 0.78048 0.77704 0.0
H554 H 0.90482 0.78663 0.83829 0.0
C555 C 0.91109 0.78476 0.06293 0.0
C556 C 0.896 0.78537 0.97291 0.0
H557 H 0.89414 0.76774 0.89655 0.0
C558 C 0.89278 0.79492 0.95807 0.0
C559 C 0.89667 0.77554 0.95039 0.0
C560 C 0.89943 0.76458 0.96495 0.0
C561 C 0.89002 0.79478 0.92136 0.0
C562 C 0.89035 0.78475 0.8991 0.0
C563 C 0.89401 0.7755 0.9137 0.0
C564 C 0.88546 0.7826 0.86158 0.0
C565 C 0.8866 0.80527 0.90674 0.0
C566 C 0.8716 0.7783 0.85455 0.0
C567 C 0.86638 0.77468 0.81993 0.0
C568 C 0.87492 0.77529 0.79157 0.0
C569 C 0.88891 0.77995 0.79838 0.0
C570 C 0.89412 0.78347 0.83326 0.0
H571 H 0.89074 0.81454 0.92413 0.0
H572 H 0.89078 0.80851 0.87929 0.0
H573 H 0.87524 0.80062 0.90551 0.0
H574 H 0.86468 0.77727 0.87611 0.0
H575 H 0.85556 0.77114 0.81553 0.0
H576 H 0.14244 0.21955 0.41693 0.0
H577 H 0.13746 0.21569 0.48082 0.0
H578 H 0.10204 0.22079 0.46668 0.0
H579 H 0.10675 0.22421 0.40231 0.0
H580 H 0.13862 0.23458 0.52454 0.0
H581 H 0.0866 0.18867 0.53471 0.0
H582 H 0.09659 0.19317 0.49396 0.0
H583 H 0.08687 0.20147 0.50537 0.0
C584 C 0.1334 0.21953 0.42731 0.0
C585 C 0.12499 0.22222 0.40473 0.0
C586 C 0.13057 0.21732 0.46384 0.0
C587 C 0.11933 0.21785 0.47861 0.0
C588 C 0.11059 0.22001 0.45584 0.0
H589 H 0.11302 0.24712 0.68322 0.0
H590 H 0.11695 0.24315 0.62134 0.0
C591 C 0.11332 0.22205 0.41909 0.0
C592 C 0.1178 0.2178 0.51811 0.0
H593 H 0.09473 0.20341 0.58666 0.0
C594 C 0.12907 0.22761 0.53811 0.0
C595 C 0.10541 0.20862 0.536 0.0
C596 C 0.09323 0.1973 0.51643 0.0
C597 C 0.12814 0.22886 0.57517 0.0
C598 C 0.11549 0.22029 0.59268 0.0
C599 C 0.10438 0.21006 0.57308 0.0
C600 C 0.11335 0.22255 0.63065 0.0
C601 C 0.14068 0.23947 0.5952 0.0
C602 C 0.10983 0.21218 0.65642 0.0
C603 C 0.10754 0.21443 0.69206 0.0
C604 C 0.10863 0.22702 0.70224 0.0
C605 C 0.11219 0.23734 0.67631 0.0
C606 C 0.11449 0.23511 0.64091 0.0
H607 H 0.15034 0.24205 0.58073 0.0
H608 H 0.14018 0.24908 0.59778 0.0
H609 H 0.14117 0.23582 0.62249 0.0
H610 H 0.10883 0.20238 0.64893 0.0
H611 H 0.1047 0.20625 0.71142 0.0
H612 H 0.78596 0.89063 0.39728 0.0
H613 H 0.79122 0.88946 0.46065 0.0
H614 H 0.76294 0.9032 0.49147 0.0
H615 H 0.75781 0.90456 0.42878 0.0
H616 H 0.78789 0.91614 0.52983 0.0
H617 H 0.76391 0.85896 0.52805 0.0
H618 H 0.77749 0.86846 0.49637 0.0
H619 H 0.76145 0.86829 0.49217 0.0
C620 C 0.78092 0.89343 0.41764 0.0
C621 C 0.77139 0.89757 0.4081 0.0
C622 C 0.78392 0.89275 0.45376 0.0
C623 C 0.77737 0.89614 0.48073 0.0
C624 C 0.76812 0.90057 0.4711 0.0
H625 H 0.75053 0.87092 0.69055 0.0
H626 H 0.75489 0.87728 0.62755 0.0
C627 C 0.76515 0.90126 0.43522 0.0
C628 C 0.77945 0.89451 0.51918 0.0
H629 H 0.77111 0.86999 0.58355 0.0
C630 C 0.78445 0.9061 0.54162 0.0
C631 C 0.77486 0.88136 0.53438 0.0
C632 C 0.76903 0.86851 0.51168 0.0
C633 C 0.78442 0.9048 0.57903 0.0
C634 C 0.77936 0.89159 0.5942 0.0
C635 C 0.77498 0.88011 0.5717 0.0
C636 C 0.77706 0.88912 0.63317 0.0
C637 C 0.78905 0.9174 0.60213 0.0
C638 C 0.7881 0.89398 0.65741 0.0
C639 C 0.78562 0.89042 0.69371 0.0
C640 C 0.77208 0.88187 0.70605 0.0
C641 C 0.76107 0.87749 0.68185 0.0
C642 C 0.76355 0.88108 0.64582 0.0
H643 H 0.79097 0.92658 0.58626 0.0
H644 H 0.78119 0.91545 0.62288 0.0
H645 H 0.79874 0.91978 0.61606 0.0
H646 H 0.79862 0.90009 0.64807 0.0
H647 H 0.79429 0.89384 0.71174 0.0
H648 H 0.10454 0.90218 0.71324 0.0
H649 H 0.09786 0.90108 0.65017 0.0
H650 H 0.11669 0.87655 0.62601 0.0
H651 H 0.12364 0.8779 0.68839 0.0
H652 H 0.12571 0.89914 0.58237 0.0
H653 H 0.06841 0.86987 0.58928 0.0
H654 H 0.07701 0.88487 0.61736 0.0
H655 H 0.0791 0.87025 0.62591 0.0
C656 C 0.10698 0.89633 0.69453 0.0
C657 C 0.11462 0.89014 0.7056 0.0
C658 C 0.10316 0.8957 0.65856 0.0
C659 C 0.10677 0.88871 0.63344 0.0
C660 C 0.11387 0.88205 0.64493 0.0
H661 H 0.08329 0.8542 0.42963 0.0
H662 H 0.08569 0.86105 0.49218 0.0
C663 C 0.11779 0.88279 0.68059 0.0
C664 C 0.10406 0.88894 0.59471 0.0
H665 H 0.07843 0.87674 0.5322 0.0
C666 C 0.11538 0.89438 0.57133 0.0
C667 C 0.09057 0.88277 0.58054 0.0
C668 C 0.07804 0.87651 0.60444 0.0
C669 C 0.11359 0.89315 0.53412 0.0
C670 C 0.10008 0.88662 0.51987 0.0
C671 C 0.08877 0.88181 0.54323 0.0
C672 C 0.09745 0.88295 0.48143 0.0
C673 C 0.12615 0.89805 0.51061 0.0
C674 C 0.10298 0.89301 0.45441 0.0
C675 C 0.10178 0.88909 0.41838 0.0
C676 C 0.09487 0.87507 0.40897 0.0
C677 C 0.08875 0.86509 0.436 0.0
C678 C 0.09005 0.86899 0.47182 0.0
H679 H 0.13551 0.9004 0.52628 0.0
H680 H 0.12448 0.89018 0.49014 0.0
H681 H 0.12818 0.9076 0.49654 0.0
H682 H 0.1085 0.90386 0.46122 0.0
H683 H 0.10648 0.897 0.39805 0.0
H684 H 0.77924 0.87875 0.21791 0.0
H685 H 0.78542 0.87546 0.15691 0.0
H686 H 0.77531 0.90545 0.11711 0.0
H687 H 0.76909 0.90871 0.17732 0.0
H688 H 0.76634 0.86694 0.09715 0.0
H689 H 0.81342 0.91713 0.07164 0.0
H690 H 0.80724 0.91078 0.11622 0.0
H691 H 0.79945 0.91861 0.09036 0.0
C692 C 0.77851 0.88473 0.19615 0.0
C693 C 0.77364 0.89394 0.2023 0.0
C694 C 0.78205 0.88287 0.16143 0.0
C695 C 0.78103 0.89039 0.13268 0.0
C696 C 0.77644 0.89976 0.13902 0.0
H697 H 0.77749 0.89414 0.90659 0.0
H698 H 0.7809 0.89856 0.97105 0.0
C699 C 0.77277 0.90151 0.17343 0.0
C700 C 0.78344 0.88767 0.0954 0.0
H701 H 0.80152 0.90374 0.01991 0.0
C702 C 0.77421 0.87485 0.08034 0.0
C703 C 0.79364 0.89809 0.07362 0.0
C704 C 0.8041 0.9119 0.08881 0.0
C705 C 0.77436 0.87243 0.04354 0.0
C706 C 0.7843 0.88302 0.02144 0.0
C707 C 0.79391 0.89565 0.03685 0.0
C708 C 0.7842 0.88145 0.98202 0.0
C709 C 0.76335 0.85883 0.02843 0.0
C710 C 0.78551 0.87074 0.96663 0.0
C711 C 0.78341 0.86811 0.92995 0.0
C712 C 0.78022 0.8763 0.90794 0.0
C713 C 0.77992 0.88765 0.92293 0.0
C714 C 0.78186 0.89017 0.95974 0.0
H715 H 0.75468 0.85322 0.04744 0.0
H716 H 0.75916 0.86039 0.00303 0.0
H717 H 0.76789 0.85221 0.02276 0.0
H718 H 0.78767 0.86411 0.98317 0.0
H719 H 0.78386 0.85938 0.91903 0.0
H720 H 0.1155 0.87024 0.18837 0.0
H721 H 0.11749 0.87732 0.12598 0.0
H722 H 0.09494 0.89834 0.14903 0.0
H723 H 0.09323 0.89155 0.21219 0.0
H724 H 0.09556 0.8696 0.08138 0.0
H725 H 0.12718 0.92676 0.08924 0.0
H726 H 0.12586 0.91573 0.12605 0.0
H727 H 0.11191 0.9188 0.11646 0.0
C728 C 0.11117 0.87658 0.18033 0.0
C729 C 0.10421 0.88035 0.20507 0.0
C730 C 0.11228 0.88058 0.14464 0.0
C731 C 0.10637 0.88836 0.13283 0.0
C732 C 0.09975 0.89251 0.15767 0.0
H733 H 0.09922 0.8893 0.89743 0.0
H734 H 0.09238 0.8875 0.96052 0.0
C735 C 0.09876 0.88862 0.19368 0.0
C736 C 0.10657 0.89124 0.09406 0.0
H737 H 0.1202 0.91699 0.03192 0.0
C738 C 0.10082 0.87997 0.0705 0.0
C739 C 0.11341 0.90477 0.08007 0.0
C740 C 0.12005 0.91724 0.10414 0.0
C741 C 0.10237 0.8818 0.03334 0.0
C742 C 0.10951 0.89534 0.01928 0.0
C743 C 0.11467 0.90664 0.04279 0.0
C744 C 0.11328 0.89791 0.98087 0.0
C745 C 0.0971 0.86921 0.00975 0.0
C746 C 0.12726 0.90493 0.97134 0.0
C747 C 0.13116 0.90614 0.93551 0.0
C748 C 0.12115 0.90028 0.90844 0.0
C749 C 0.10714 0.89377 0.9178 0.0
C750 C 0.10323 0.8927 0.95379 0.0
H751 H 0.09442 0.85976 0.02538 0.0
H752 H 0.08766 0.86753 0.99566 0.0
H753 H 0.10489 0.87062 0.98931 0.0
H754 H 0.13519 0.90905 0.99174 0.0
H755 H 0.14205 0.91128 0.92916 0.0
H756 H 0.11679 0.22055 0.90253 0.0
H757 H 0.11841 0.21748 0.96689 0.0
H758 H 0.07693 0.20977 0.98117 0.0
H759 H 0.07539 0.21317 0.91716 0.0
H760 H 0.09465 0.23011 0.02323 0.0
H761 H 0.10334 0.18587 0.03743 0.0
H762 H 0.11513 0.19851 0.00647 0.0
H763 H 0.09697 0.1893 0.99655 0.0
C764 C 0.1079 0.21783 0.91929 0.0
C765 C 0.096 0.21718 0.90492 0.0
C766 C 0.1088 0.21601 0.95606 0.0
C767 C 0.09775 0.21329 0.97887 0.0
C768 C 0.08558 0.21184 0.96411 0.0
H769 H 0.10341 0.20676 0.21327 0.0
H770 H 0.09467 0.20126 0.15152 0.0
C771 C 0.08471 0.21378 0.92751 0.0
C772 C 0.0995 0.21382 0.01833 0.0
H773 H 0.10982 0.20134 0.0879 0.0
C774 C 0.09774 0.22364 0.0374 0.0
C775 C 0.10341 0.20531 0.03696 0.0
C776 C 0.10468 0.19406 0.01835 0.0
C777 C 0.10039 0.22562 0.0742 0.0
C778 C 0.10515 0.21773 0.09237 0.0
C779 C 0.10628 0.20745 0.07379 0.0
C780 C 0.11009 0.22088 0.12979 0.0
C781 C 0.09833 0.23634 0.09324 0.0
C782 C 0.12165 0.23367 0.13781 0.0
C783 C 0.12662 0.23681 0.17274 0.0
C784 C 0.12016 0.22721 0.20045 0.0
C785 C 0.10853 0.21439 0.19248 0.0
C786 C 0.10358 0.21121 0.15729 0.0
H787 H 0.09102 0.23855 0.07855 0.0
H788 H 0.09439 0.23297 0.12083 0.0
H789 H 0.10836 0.24607 0.09505 0.0
H790 H 0.12694 0.24119 0.11687 0.0
H791 H 0.13564 0.24675 0.17794 0.0
H792 H 0.88079 0.75079 0.30538 0.0
H793 H 0.87849 0.755 0.36829 0.0
H794 H 0.89363 0.79795 0.34542 0.0
H795 H 0.89585 0.79375 0.2818 0.0
H796 H 0.90071 0.7737 0.41239 0.0
H797 H 0.85825 0.7859 0.40598 0.0
H798 H 0.86155 0.77717 0.36998 0.0
H799 H 0.87279 0.7953 0.37677 0.0
C800 C 0.88347 0.76111 0.31356 0.0
C801 C 0.8885 0.77194 0.28866 0.0
C802 C 0.88219 0.76351 0.34956 0.0
C803 C 0.88589 0.77677 0.3615 0.0
C804 C 0.89059 0.7876 0.33665 0.0
H805 H 0.89074 0.78756 0.59722 0.0
H806 H 0.89738 0.79277 0.53394 0.0
C807 C 0.89184 0.78519 0.30038 0.0
C808 C 0.88521 0.77909 0.40029 0.0
H809 H 0.86634 0.78459 0.46301 0.0
C810 C 0.89336 0.77631 0.42355 0.0
C811 C 0.8756 0.78247 0.41459 0.0
C812 C 0.86646 0.78532 0.39071 0.0
C813 C 0.89168 0.77613 0.4608 0.0
C814 C 0.88171 0.77902 0.4751 0.0
C815 C 0.87402 0.78245 0.45189 0.0
C816 C 0.87782 0.77669 0.51342 0.0
C817 C 0.89999 0.77204 0.4844 0.0
C818 C 0.86459 0.76613 0.52272 0.0
C819 C 0.8608 0.76318 0.55854 0.0
C820 C 0.87015 0.77075 0.58592 0.0
C821 C 0.88336 0.7815 0.57667 0.0
C822 C 0.88716 0.78446 0.54061 0.0
H823 H 0.90571 0.7681 0.46869 0.0
H824 H 0.90757 0.78115 0.49989 0.0
H825 H 0.89317 0.76398 0.50376 0.0
H826 H 0.85724 0.75999 0.50217 0.0
H827 H 0.85053 0.75487 0.56473 0.0
H828 H 0.22755 0.08401 0.56695 0.0
H829 H 0.22294 0.08644 0.50457 0.0
H830 H 0.20226 0.10849 0.53654 0.0
H831 H 0.20727 0.10646 0.59956 0.0
H832 H 0.20002 0.07888 0.46464 0.0
H833 H 0.23227 0.13606 0.47166 0.0
H834 H 0.23173 0.12506 0.50756 0.0
H835 H 0.21773 0.12836 0.50134 0.0
C836 C 0.22193 0.0893 0.56084 0.0
C837 C 0.21794 0.09522 0.58813 0.0
C838 C 0.21924 0.09062 0.5251 0.0
C839 C 0.21245 0.09783 0.51581 0.0
C840 C 0.20777 0.10313 0.54309 0.0
H841 H 0.20026 0.10481 0.28371 0.0
H842 H 0.19464 0.09813 0.34679 0.0
C843 C 0.21058 0.10192 0.57903 0.0
C844 C 0.21132 0.10052 0.47743 0.0
H845 H 0.22389 0.12632 0.41543 0.0
C846 C 0.20506 0.08925 0.45383 0.0
C847 C 0.21801 0.11407 0.46344 0.0
C848 C 0.22542 0.1266 0.48717 0.0
C849 C 0.20589 0.09116 0.41655 0.0
C850 C 0.21292 0.1047 0.40263 0.0
C851 C 0.21853 0.11595 0.42626 0.0
C852 C 0.21591 0.10756 0.36394 0.0
C853 C 0.19993 0.0787 0.39241 0.0
C854 C 0.22969 0.11499 0.35269 0.0
C855 C 0.23289 0.1189 0.31703 0.0
C856 C 0.22238 0.11542 0.29175 0.0
C857 C 0.20856 0.10751 0.30262 0.0
C858 C 0.20534 0.10368 0.33859 0.0
H859 H 0.19716 0.06909 0.40738 0.0
H860 H 0.19045 0.07745 0.3795 0.0
H861 H 0.20735 0.08002 0.37095 0.0
H862 H 0.238 0.11802 0.37175 0.0
H863 H 0.24364 0.12497 0.30942 0.0
H864 H 0.88024 0.10525 0.60057 0.0
H865 H 0.87932 0.10095 0.53602 0.0
H866 H 0.91991 0.13646 0.52391 0.0
H867 H 0.92067 0.14102 0.58797 0.0
H868 H 0.90223 0.13796 0.48041 0.0
H869 H 0.89644 0.08614 0.4671 0.0
H870 H 0.88381 0.08612 0.49665 0.0
H871 H 0.9018 0.09582 0.50837 0.0
C872 C 0.88908 0.11192 0.58419 0.0
C873 C 0.90048 0.12351 0.59915 0.0
C874 C 0.88859 0.10942 0.54735 0.0
C875 C 0.89961 0.11832 0.52511 0.0
C876 C 0.9113 0.12945 0.5405 0.0
H877 H 0.89664 0.10566 0.29121 0.0
H878 H 0.90494 0.10951 0.35345 0.0
C879 C 0.91171 0.13205 0.57711 0.0
C880 C 0.89829 0.11712 0.48557 0.0
H881 H 0.88984 0.09461 0.41578 0.0
C882 C 0.89974 0.12853 0.46628 0.0
C883 C 0.89521 0.1049 0.46697 0.0
C884 C 0.89437 0.0926 0.48581 0.0
C885 C 0.89759 0.12787 0.42924 0.0
C886 C 0.8936 0.11537 0.41104 0.0
C887 C 0.89278 0.10415 0.4299 0.0
C888 C 0.88908 0.11345 0.37323 0.0
C889 C 0.89939 0.1405 0.40998 0.0
C890 C 0.87744 0.11437 0.36395 0.0
C891 C 0.87274 0.11222 0.32874 0.0
C892 C 0.87953 0.10903 0.30203 0.0
C893 C 0.89127 0.10821 0.31121 0.0
C894 C 0.89597 0.11033 0.34669 0.0
H895 H 0.9064 0.15008 0.42487 0.0
H896 H 0.90357 0.14123 0.38261 0.0
H897 H 0.88923 0.1399 0.40764 0.0
H898 H 0.87184 0.11653 0.38414 0.0
H899 H 0.86362 0.11285 0.32258 0.0
H900 H 0.86977 0.4359 0.12156 0.0
H901 H 0.86427 0.4394 0.18312 0.0
H902 H 0.9039 0.44642 0.21858 0.0
H903 H 0.90944 0.44297 0.15777 0.0
H904 H 0.86426 0.42408 0.24727 0.0
H905 H 0.90144 0.48008 0.25618 0.0
H906 H 0.89563 0.47112 0.21397 0.0
H907 H 0.90889 0.47028 0.2391 0.0
C908 C 0.87733 0.43832 0.14249 0.0
C909 C 0.89005 0.43922 0.13487 0.0
C910 C 0.87416 0.44026 0.17756 0.0
C911 C 0.88375 0.44329 0.20522 0.0
C912 C 0.89645 0.44427 0.19751 0.0
H913 H 0.88524 0.43573 0.43064 0.0
H914 H 0.88138 0.43134 0.36633 0.0
C915 C 0.89957 0.44226 0.16274 0.0
C916 C 0.8806 0.44515 0.24257 0.0
H917 H 0.89339 0.468 0.3117 0.0
C918 C 0.87043 0.43373 0.26133 0.0
C919 C 0.88855 0.4578 0.26065 0.0
C920 C 0.89916 0.47057 0.24139 0.0
C921 C 0.86854 0.43445 0.29831 0.0
C922 C 0.87719 0.44684 0.31688 0.0
C923 C 0.88682 0.45845 0.29759 0.0
C924 C 0.87715 0.44793 0.35647 0.0
C925 C 0.85743 0.42189 0.31715 0.0
C926 C 0.87598 0.45863 0.37242 0.0
C927 C 0.87838 0.46127 0.409 0.0
C928 C 0.88198 0.45323 0.43038 0.0
C929 C 0.88239 0.44202 0.41485 0.0
C930 C 0.8801 0.43946 0.37811 0.0
H931 H 0.84901 0.41519 0.29843 0.0
H932 H 0.86192 0.41577 0.32791 0.0
H933 H 0.85296 0.4248 0.33976 0.0
H934 H 0.87376 0.46532 0.35626 0.0
H935 H 0.87795 0.46996 0.42026 0.0
H936 H 0.55021 0.46268 0.15458 0.0
H937 H 0.54744 0.45453 0.21603 0.0
H938 H 0.55598 0.42262 0.18337 0.0
H939 H 0.559 0.43092 0.12125 0.0
H940 H 0.52939 0.42891 0.24493 0.0
H941 H 0.58421 0.44302 0.26411 0.0
H942 H 0.57864 0.44923 0.22673 0.0
H943 H 0.57515 0.43176 0.22727 0.0
C944 C 0.55141 0.45386 0.16031 0.0
C945 C 0.55488 0.44747 0.13313 0.0
C946 C 0.54983 0.44922 0.19548 0.0
C947 C 0.5517 0.43811 0.20432 0.0
C948 C 0.55472 0.43136 0.17713 0.0
H949 H 0.52834 0.40772 0.42341 0.0
H950 H 0.53199 0.4076 0.35893 0.0
C951 C 0.55632 0.43603 0.14169 0.0
C952 C 0.55058 0.43393 0.2423 0.0
H953 H 0.56969 0.43469 0.31443 0.0
C954 C 0.53813 0.42996 0.26009 0.0
C955 C 0.56208 0.43551 0.26194 0.0
C956 C 0.57583 0.4402 0.24425 0.0
C957 C 0.53697 0.42803 0.29723 0.0
C958 C 0.54851 0.42974 0.31703 0.0
C959 C 0.56086 0.43329 0.2991 0.0
C960 C 0.54816 0.42895 0.35661 0.0
C961 C 0.52362 0.4249 0.31511 0.0
C962 C 0.55669 0.44074 0.37698 0.0
C963 C 0.55479 0.44077 0.41399 0.0
C964 C 0.54426 0.42904 0.43095 0.0
C965 C 0.53642 0.41697 0.41087 0.0
C966 C 0.53845 0.41689 0.37405 0.0
H967 H 0.517 0.42705 0.29722 0.0
H968 H 0.51778 0.41383 0.32244 0.0
H969 H 0.52562 0.43107 0.33994 0.0
H970 H 0.5643 0.45014 0.36401 0.0
H971 H 0.56099 0.45019 0.42887 0.0
H972 H 0.56133 0.12518 0.43215 0.0
H973 H 0.5605 0.1311 0.3691 0.0
H974 H 0.5658 0.09718 0.33568 0.0
H975 H 0.56676 0.09133 0.3979 0.0
H976 H 0.58309 0.12276 0.29927 0.0
H977 H 0.52751 0.10774 0.30073 0.0
H978 H 0.53876 0.11987 0.33371 0.0
H979 H 0.53496 0.10232 0.33546 0.0
C980 C 0.56229 0.11901 0.41127 0.0
C981 C 0.56405 0.10777 0.41992 0.0
C982 C 0.56182 0.1224 0.37537 0.0
C983 C 0.56307 0.11455 0.34783 0.0
C984 C 0.56489 0.10341 0.35655 0.0
H985 H 0.53707 0.08625 0.14324 0.0
H986 H 0.54353 0.09209 0.20577 0.0
C987 C 0.56537 0.10004 0.39217 0.0
C988 C 0.56208 0.11741 0.30963 0.0
H989 H 0.53841 0.11199 0.24496 0.0
C990 C 0.57343 0.12075 0.28734 0.0
C991 C 0.54944 0.11472 0.29433 0.0
C992 C 0.53691 0.1109 0.31709 0.0
C993 C 0.57221 0.12063 0.24993 0.0
C994 C 0.55935 0.11713 0.23465 0.0
C995 C 0.54826 0.11467 0.25695 0.0
C996 C 0.55654 0.11394 0.19615 0.0
C997 C 0.58436 0.12327 0.22694 0.0
C998 C 0.56201 0.12429 0.16993 0.0
C999 C 0.55838 0.12095 0.13389 0.0
C1000 C 0.54919 0.10724 0.12385 0.0
C1001 C 0.54415 0.0969 0.15014 0.0
C1002 C 0.54778 0.10022 0.18589 0.0
H1003 H 0.59342 0.12502 0.24311 0.0
H1004 H 0.58147 0.11438 0.20879 0.0
H1005 H 0.58739 0.13248 0.21001 0.0
H1006 H 0.56874 0.13495 0.17745 0.0
H1007 H 0.56233 0.12913 0.11419 0.0
H1008 H 0.80385 0.54479 0.75325 0.0
H1009 H 0.79807 0.54051 0.81676 0.0
H1010 H 0.76411 0.54781 0.80074 0.0
H1011 H 0.76958 0.55167 0.73692 0.0
H1012 H 0.79969 0.55951 0.86116 0.0
H1013 H 0.74654 0.51535 0.86693 0.0
H1014 H 0.75692 0.51967 0.82691 0.0
H1015 H 0.74772 0.52858 0.83768 0.0
C1016 C 0.79492 0.54513 0.76312 0.0
C1017 C 0.78716 0.54858 0.74019 0.0
C1018 C 0.79165 0.54269 0.79942 0.0
C1019 C 0.78059 0.54372 0.81358 0.0
C1020 C 0.77247 0.54661 0.79038 0.0
H1021 H 0.75682 0.56308 0.00906 0.0
H1022 H 0.76002 0.55712 0.94843 0.0
C1023 C 0.77565 0.54889 0.75391 0.0
C1024 C 0.77864 0.54349 0.85295 0.0
H1025 H 0.75436 0.53015 0.91905 0.0
C1026 C 0.78985 0.55287 0.87391 0.0
C1027 C 0.76581 0.53483 0.86965 0.0
C1028 C 0.75361 0.52395 0.84914 0.0
C1029 C 0.78839 0.55434 0.91068 0.0
C1030 C 0.77541 0.54615 0.92697 0.0
C1031 C 0.76431 0.53641 0.9064 0.0
C1032 C 0.77283 0.54866 0.96431 0.0
C1033 C 0.80055 0.56514 0.93152 0.0
C1034 C 0.77886 0.54569 0.99342 0.0
C1035 C 0.77703 0.54908 0.02834 0.0
C1036 C 0.76922 0.55554 0.03446 0.0
C1037 C 0.76298 0.5582 0.00523 0.0
C1038 C 0.76473 0.55474 0.97056 0.0
H1039 H 0.80945 0.57176 0.91396 0.0
H1040 H 0.79759 0.57181 0.94659 0.0
H1041 H 0.80392 0.56001 0.95124 0.0
H1042 H 0.7851 0.54092 0.98905 0.0
H1043 H 0.78191 0.54687 0.05038 0.0
H1044 H 0.42502 0.23677 0.7675 0.0
H1045 H 0.43039 0.23457 0.82934 0.0
H1046 H 0.46021 0.22347 0.79394 0.0
H1047 H 0.45463 0.2254 0.73132 0.0
H1048 H 0.44353 0.2062 0.84468 0.0
H1049 H 0.46278 0.25942 0.89126 0.0
H1050 H 0.44638 0.25297 0.86989 0.0
H1051 H 0.46092 0.25497 0.84433 0.0
C1052 C 0.43282 0.23397 0.77274 0.0
C1053 C 0.43942 0.23127 0.74452 0.0
C1054 C 0.43599 0.23287 0.80821 0.0
C1055 C 0.44596 0.22921 0.81635 0.0
C1056 C 0.45261 0.22649 0.78825 0.0
H1057 H 0.45911 0.22468 0.04853 0.0
H1058 H 0.46452 0.23172 0.9855 0.0
C1059 C 0.44939 0.22756 0.75254 0.0
C1060 C 0.44841 0.22712 0.85428 0.0
H1061 H 0.45282 0.2416 0.93719 0.0
C1062 C 0.44587 0.21404 0.86482 0.0
C1063 C 0.45177 0.23743 0.88061 0.0
C1064 C 0.45577 0.25202 0.87085 0.0
C1065 C 0.44551 0.21067 0.9011 0.0
C1066 C 0.44741 0.22053 0.92751 0.0
C1067 C 0.45107 0.23395 0.91696 0.0
C1068 C 0.44433 0.2167 0.96576 0.0
C1069 C 0.44271 0.19642 0.9108 0.0
C1070 C 0.4311 0.20627 0.9756 0.0
C1071 C 0.42801 0.20228 0.01126 0.0
C1072 C 0.43805 0.20872 0.03802 0.0
C1073 C 0.45118 0.21954 0.02844 0.0
C1074 C 0.45429 0.22352 0.99251 0.0
H1075 H 0.44624 0.19205 0.88932 0.0
H1076 H 0.44788 0.1965 0.93622 0.0
H1077 H 0.43144 0.18949 0.9141 0.0
H1078 H 0.42313 0.20116 0.95558 0.0
H1079 H 0.41776 0.194 0.01779 0.0
H1080 H 0.78171 0.22787 0.73592 0.0
H1081 H 0.78161 0.23099 0.80082 0.0
H1082 H 0.73922 0.1983 0.80558 0.0
H1083 H 0.73941 0.19483 0.74102 0.0
H1084 H 0.76625 0.23609 0.8506 0.0
H1085 H 0.75871 0.18342 0.86705 0.0
H1086 H 0.7626 0.19205 0.82438 0.0
H1087 H 0.7454 0.18418 0.84219 0.0
C1088 C 0.7723 0.22154 0.75074 0.0
C1089 C 0.76065 0.21096 0.73363 0.0
C1090 C 0.77224 0.22333 0.78778 0.0
C1091 C 0.7605 0.21464 0.8081 0.0
C1092 C 0.74849 0.20487 0.79053 0.0
H1093 H 0.76301 0.22552 0.04358 0.0
H1094 H 0.7546 0.22256 0.98158 0.0
C1095 C 0.7486 0.20295 0.75365 0.0
C1096 C 0.7613 0.21492 0.8477 0.0
H1097 H 0.76059 0.19574 0.91951 0.0
C1098 C 0.76488 0.22725 0.86579 0.0
C1099 C 0.75962 0.20337 0.86735 0.0
C1100 C 0.75649 0.19004 0.84932 0.0
C1101 C 0.76718 0.22844 0.90293 0.0
C1102 C 0.76564 0.21693 0.92242 0.0
C1103 C 0.76162 0.20449 0.90448 0.0
C1104 C 0.76987 0.218 0.96037 0.0
C1105 C 0.77192 0.24219 0.92071 0.0
C1106 C 0.78088 0.21594 0.96908 0.0
C1107 C 0.78556 0.21747 0.00421 0.0
C1108 C 0.77933 0.22109 0.03148 0.0
C1109 C 0.768 0.22273 0.02306 0.0
C1110 C 0.76328 0.22117 0.98768 0.0
H1111 H 0.77482 0.25059 0.90091 0.0
H1112 H 0.76347 0.24155 0.9376 0.0
H1113 H 0.78092 0.24493 0.93832 0.0
H1114 H 0.78608 0.21344 0.94845 0.0
H1115 H 0.7943 0.21611 0.00982 0.0
H1116 H 0.43261 0.24202 0.51335 0.0
H1117 H 0.4373 0.23806 0.45206 0.0
H1118 H 0.4512 0.21077 0.49047 0.0
H1119 H 0.44651 0.21471 0.55239 0.0
H1120 H 0.463 0.24158 0.41987 0.0
H1121 H 0.41878 0.18773 0.41829 0.0
H1122 H 0.42023 0.20018 0.45121 0.0
H1123 H 0.43096 0.19255 0.45441 0.0
C1124 C 0.43673 0.23522 0.50887 0.0
C1125 C 0.43909 0.22858 0.53766 0.0
C1126 C 0.43947 0.23303 0.47383 0.0
C1127 C 0.44451 0.22408 0.46679 0.0
C1128 C 0.44721 0.21766 0.49544 0.0
H1129 H 0.44585 0.19002 0.25858 0.0
H1130 H 0.44976 0.19631 0.32181 0.0
C1131 C 0.44456 0.21992 0.53071 0.0
C1132 C 0.44619 0.22103 0.42919 0.0
H1133 H 0.43105 0.19632 0.36485 0.0
C1134 C 0.45614 0.23165 0.40781 0.0
C1135 C 0.43719 0.20808 0.41368 0.0
C1136 C 0.42611 0.19645 0.43536 0.0
C1137 C 0.45725 0.22967 0.37108 0.0
C1138 C 0.44792 0.21686 0.35527 0.0
C1139 C 0.43821 0.20615 0.37696 0.0
C1140 C 0.44757 0.21435 0.31615 0.0
C1141 C 0.46843 0.24131 0.3497 0.0
C1142 C 0.44531 0.22256 0.29169 0.0
C1143 C 0.44324 0.21907 0.25533 0.0
C1144 C 0.44313 0.20717 0.24303 0.0
C1145 C 0.44583 0.19923 0.26733 0.0
C1146 C 0.44806 0.20281 0.30348 0.0
H1147 H 0.47721 0.24838 0.36703 0.0
H1148 H 0.47237 0.23737 0.32812 0.0
H1149 H 0.4642 0.2474 0.33725 0.0
H1150 H 0.44455 0.23131 0.3009 0.0
H1151 H 0.44106 0.22529 0.23723 0.0
H1152 H 0.77195 0.23406 0.543 0.0
H1153 H 0.77499 0.24203 0.48058 0.0
H1154 H 0.78402 0.21024 0.44999 0.0
H1155 H 0.78128 0.20246 0.5118 0.0
H1156 H 0.80165 0.23528 0.41955 0.0
H1157 H 0.74688 0.22131 0.40071 0.0
H1158 H 0.756 0.233 0.43674 0.0
H1159 H 0.75257 0.21556 0.43879 0.0
C1160 C 0.77475 0.22892 0.52296 0.0
C1161 C 0.77632 0.21762 0.53221 0.0
C1162 C 0.77636 0.23338 0.48733 0.0
C1163 C 0.77949 0.22656 0.4606 0.0
C1164 C 0.78154 0.21561 0.47015 0.0
H1165 H 0.76947 0.21431 0.23542 0.0
H1166 H 0.76638 0.21427 0.3004 0.0
C1167 C 0.77997 0.21118 0.50554 0.0
C1168 C 0.78053 0.23048 0.42239 0.0
H1169 H 0.76139 0.22974 0.35034 0.0
C1170 C 0.79291 0.23425 0.40445 0.0
C1171 C 0.76902 0.22892 0.40279 0.0
C1172 C 0.75531 0.22438 0.42054 0.0
C1173 C 0.79401 0.23608 0.36726 0.0
C1174 C 0.7825 0.23447 0.34756 0.0
C1175 C 0.77021 0.23107 0.3656 0.0
C1176 C 0.78282 0.23531 0.30796 0.0
C1177 C 0.80728 0.239 0.34928 0.0
C1178 C 0.79264 0.24734 0.29058 0.0
C1179 C 0.79454 0.24731 0.25368 0.0
C1180 C 0.78646 0.23534 0.23345 0.0
C1181 C 0.77585 0.22367 0.25041 0.0
C1182 C 0.77408 0.22364 0.28749 0.0
H1183 H 0.8138 0.23666 0.36706 0.0
H1184 H 0.80518 0.23287 0.32436 0.0
H1185 H 0.81328 0.25009 0.34212 0.0
H1186 H 0.79926 0.25656 0.30577 0.0
H1187 H 0.80269 0.25652 0.24117 0.0
H1188 H 0.77158 0.53627 0.54504 0.0
H1189 H 0.76534 0.53162 0.48139 0.0
H1190 H 0.79307 0.57443 0.45691 0.0
H1191 H 0.79942 0.57909 0.51986 0.0
H1192 H 0.75433 0.54286 0.43328 0.0
H1193 H 0.80621 0.55432 0.39018 0.0
H1194 H 0.80082 0.55139 0.43644 0.0
H1195 H 0.80685 0.56805 0.41639 0.0
C1196 C 0.77623 0.54468 0.52606 0.0
C1197 C 0.78606 0.55802 0.53736 0.0
C1198 C 0.77271 0.54201 0.48976 0.0
C1199 C 0.77902 0.55261 0.46436 0.0
C1200 C 0.78837 0.56602 0.47592 0.0
H1201 H 0.75967 0.57074 0.26261 0.0
H1202 H 0.76152 0.56571 0.32501 0.0
C1203 C 0.7919 0.56869 0.51198 0.0
C1204 C 0.7759 0.54992 0.42568 0.0
H1205 H 0.79167 0.55548 0.34433 0.0
C1206 C 0.76242 0.54538 0.4138 0.0
C1207 C 0.7864 0.55286 0.4003 0.0
C1208 C 0.80085 0.55678 0.41147 0.0
C1209 C 0.75939 0.54468 0.37713 0.0
C1210 C 0.77018 0.54889 0.35184 0.0
C1211 C 0.78343 0.55244 0.3637 0.0
C1212 C 0.7683 0.55109 0.31358 0.0
C1213 C 0.74472 0.53972 0.36588 0.0
C1214 C 0.77188 0.54484 0.28621 0.0
C1215 C 0.77097 0.54783 0.25021 0.0
C1216 C 0.76659 0.55721 0.24115 0.0
C1217 C 0.76302 0.56341 0.26865 0.0
C1218 C 0.76393 0.56044 0.30442 0.0
H1219 H 0.7373 0.53245 0.38586 0.0
H1220 H 0.74306 0.54868 0.36406 0.0
H1221 H 0.74242 0.53454 0.3394 0.0
H1222 H 0.77544 0.53772 0.29273 0.0
H1223 H 0.77381 0.54293 0.22958 0.0
H1224 H 0.57845 0.10621 0.64931 0.0
H1225 H 0.57482 0.11134 0.71044 0.0
H1226 H 0.54397 0.12069 0.67323 0.0
H1227 H 0.54754 0.11552 0.61148 0.0
H1228 H 0.57592 0.13581 0.74214 0.0
H1229 H 0.52414 0.08842 0.74696 0.0
H1230 H 0.53665 0.09105 0.71291 0.0
H1231 H 0.52743 0.1003 0.71087 0.0
C1232 C 0.57096 0.10947 0.65401 0.0
C1233 C 0.56316 0.11033 0.62569 0.0
C1234 C 0.56896 0.11246 0.68894 0.0
C1235 C 0.55906 0.11627 0.69631 0.0
C1236 C 0.55158 0.11765 0.668 0.0
H1237 H 0.52577 0.11415 0.90812 0.0
H1238 H 0.53121 0.11891 0.84462 0.0
C1239 C 0.55365 0.11472 0.63283 0.0
C1240 C 0.55603 0.11778 0.73401 0.0
H1241 H 0.53242 0.10107 0.79993 0.0
C1242 C 0.56634 0.12834 0.75479 0.0
C1243 C 0.54355 0.10799 0.75031 0.0
C1244 C 0.5323 0.09622 0.72933 0.0
C1245 C 0.56458 0.12923 0.79172 0.0
C1246 C 0.5523 0.11911 0.80829 0.0
C1247 C 0.54183 0.10883 0.7872 0.0
C1248 C 0.55025 0.11842 0.8476 0.0
C1249 C 0.57587 0.14098 0.81259 0.0
C1250 C 0.55929 0.11683 0.87059 0.0
C1251 C 0.55626 0.11423 0.90706 0.0
C1252 C 0.54402 0.11295 0.92093 0.0
C1253 C 0.53525 0.11503 0.89813 0.0
C1254 C 0.53835 0.11776 0.86185 0.0
H1255 H 0.58217 0.15 0.79509 0.0
H1256 H 0.5716 0.14428 0.83483 0.0
H1257 H 0.58281 0.13758 0.82413 0.0
H1258 H 0.56837 0.11696 0.86009 0.0
H1259 H 0.56315 0.11257 0.92399 0.0
H1260 H 0.91126 0.45583 0.64508 0.0
H1261 H 0.90664 0.44954 0.70812 0.0
H1262 H 0.86313 0.43288 0.68991 0.0
H1263 H 0.86769 0.43893 0.62626 0.0
H1264 H 0.89486 0.4602 0.75361 0.0
H1265 H 0.86424 0.40291 0.75059 0.0
H1266 H 0.8743 0.41294 0.71281 0.0
H1267 H 0.8581 0.41183 0.72287 0.0
C1268 C 0.90067 0.45057 0.65431 0.0
C1269 C 0.88983 0.44786 0.63078 0.0
C1270 C 0.89805 0.44703 0.69036 0.0
C1271 C 0.88455 0.44074 0.70372 0.0
C1272 C 0.87361 0.43755 0.68007 0.0
H1273 H 0.87749 0.44286 0.93912 0.0
H1274 H 0.87305 0.44477 0.87556 0.0
C1275 C 0.87622 0.44101 0.64375 0.0
C1276 C 0.88228 0.4385 0.74281 0.0
H1277 H 0.86847 0.41359 0.80714 0.0
C1278 C 0.88897 0.45002 0.76538 0.0
C1279 C 0.87458 0.42521 0.75796 0.0
C1280 C 0.86745 0.41247 0.73493 0.0
C1281 C 0.88871 0.44859 0.8027 0.0
C1282 C 0.88125 0.43527 0.81792 0.0
C1283 C 0.87409 0.42379 0.79538 0.0
C1284 C 0.88225 0.43293 0.85659 0.0
C1285 C 0.89706 0.46128 0.82533 0.0
C1286 C 0.88838 0.42521 0.86701 0.0
C1287 C 0.8908 0.42402 0.90305 0.0
C1288 C 0.88715 0.43054 0.92952 0.0
C1289 C 0.8805 0.43782 0.91927 0.0
C1290 C 0.87801 0.43896 0.88301 0.0
H1291 H 0.90427 0.47032 0.80898 0.0
H1292 H 0.88999 0.46393 0.83951 0.0
H1293 H 0.90312 0.45937 0.84574 0.0
H1294 H 0.89173 0.42047 0.84711 0.0
H1295 H 0.89587 0.41827 0.91006 0.0
H1296 H 0.56731 0.44036 0.62097 0.0
H1297 H 0.57546 0.44348 0.68324 0.0
H1298 H 0.54302 0.45137 0.71506 0.0
H1299 H 0.53504 0.44852 0.6534 0.0
H1300 H 0.56817 0.46952 0.74493 0.0
H1301 H 0.55536 0.41506 0.7632 0.0
H1302 H 0.56679 0.42436 0.72687 0.0
H1303 H 0.5492 0.42054 0.72553 0.0
C1304 C 0.56205 0.44293 0.64126 0.0
C1305 C 0.55051 0.44415 0.6324 0.0
C1306 C 0.56663 0.44458 0.67679 0.0
C1307 C 0.55968 0.44742 0.7038 0.0
C1308 C 0.54848 0.44911 0.69465 0.0
H1309 H 0.54817 0.43727 0.92905 0.0
H1310 H 0.54803 0.43417 0.86404 0.0
C1311 C 0.54394 0.44749 0.65937 0.0
C1312 C 0.56375 0.44852 0.74189 0.0
H1313 H 0.56364 0.42956 0.81362 0.0
C1314 C 0.56736 0.46085 0.75991 0.0
C1315 C 0.5625 0.43711 0.76132 0.0
C1316 C 0.55816 0.42346 0.74345 0.0
C1317 C 0.56931 0.46197 0.79706 0.0
C1318 C 0.56798 0.45054 0.81662 0.0
C1319 C 0.56475 0.43832 0.79848 0.0
C1320 C 0.56893 0.45087 0.85619 0.0
C1321 C 0.57205 0.47516 0.81518 0.0
C1322 C 0.58092 0.46085 0.8734 0.0
C1323 C 0.58094 0.46276 0.9103 0.0
C1324 C 0.56906 0.45452 0.9307 0.0
C1325 C 0.55745 0.44376 0.91391 0.0
C1326 C 0.55737 0.44199 0.87683 0.0
H1327 H 0.5695 0.48157 0.79756 0.0
H1328 H 0.56596 0.47296 0.84023 0.0
H1329 H 0.58314 0.48132 0.82214 0.0
H1330 H 0.59006 0.46757 0.85808 0.0
H1331 H 0.5901 0.47102 0.92269 0.0
H1332 H 0.54442 0.76941 0.76949 0.0
H1333 H 0.5394 0.76299 0.7061 0.0
H1334 H 0.56129 0.80599 0.67673 0.0
H1335 H 0.56597 0.81243 0.73954 0.0
H1336 H 0.53776 0.79139 0.6375 0.0
H1337 H 0.56879 0.7651 0.63873 0.0
H1338 H 0.55455 0.75842 0.66939 0.0
H1339 H 0.56888 0.77553 0.6756 0.0
C1340 C 0.54805 0.77746 0.74946 0.0
C1341 C 0.55571 0.7914 0.75941 0.0
C1342 C 0.54522 0.77379 0.71331 0.0
C1343 C 0.55016 0.78402 0.68667 0.0
C1344 C 0.55738 0.79793 0.69679 0.0
H1345 H 0.57772 0.78664 0.47553 0.0
H1346 H 0.57355 0.78875 0.53863 0.0
C1347 C 0.5601 0.80158 0.73275 0.0
C1348 C 0.54867 0.78049 0.64807 0.0
H1349 H 0.55979 0.76675 0.5836 0.0
C1350 C 0.54242 0.78586 0.62566 0.0
C1351 C 0.55488 0.77337 0.63276 0.0
C1352 C 0.56226 0.76785 0.65521 0.0
C1353 C 0.54268 0.78478 0.58823 0.0
C1354 C 0.54916 0.77792 0.57297 0.0
C1355 C 0.55485 0.77202 0.59545 0.0
C1356 C 0.55132 0.77775 0.53389 0.0
C1357 C 0.53668 0.79158 0.56535 0.0
C1358 C 0.54019 0.77117 0.51002 0.0
C1359 C 0.54257 0.77012 0.47363 0.0
C1360 C 0.5561 0.77545 0.46086 0.0
C1361 C 0.56719 0.78241 0.48463 0.0
C1362 C 0.56482 0.78357 0.52072 0.0
H1363 H 0.53458 0.79875 0.58106 0.0
H1364 H 0.54377 0.79739 0.54302 0.0
H1365 H 0.52681 0.78354 0.5536 0.0
H1366 H 0.52969 0.76642 0.51969 0.0
H1367 H 0.53384 0.76458 0.45591 0.0
H1368 H 0.22577 0.7671 0.45113 0.0
H1369 H 0.22258 0.75858 0.51308 0.0
H1370 H 0.21462 0.79078 0.54666 0.0
H1371 H 0.21773 0.79927 0.48539 0.0
H1372 H 0.23801 0.77445 0.57551 0.0
H1373 H 0.18195 0.75494 0.5875 0.0
H1374 H 0.19056 0.75796 0.5448 0.0
H1375 H 0.19135 0.77209 0.56965 0.0
C1376 C 0.22316 0.77222 0.47171 0.0
C1377 C 0.22194 0.78381 0.46345 0.0
C1378 C 0.22141 0.76739 0.50701 0.0
C1379 C 0.21825 0.77399 0.53427 0.0
C1380 C 0.21687 0.78543 0.5259 0.0
H1381 H 0.22753 0.78408 0.76011 0.0
H1382 H 0.2315 0.7847 0.69548 0.0
C1383 C 0.21868 0.79029 0.49087 0.0
C1384 C 0.2168 0.76939 0.57192 0.0
H1385 H 0.19456 0.75961 0.64234 0.0
C1386 C 0.22846 0.77096 0.59011 0.0
C1387 C 0.2043 0.76471 0.5907 0.0
C1388 C 0.19128 0.76219 0.57211 0.0
C1389 C 0.22812 0.76864 0.62716 0.0
C1390 C 0.21585 0.76486 0.64638 0.0
C1391 C 0.20402 0.76262 0.62772 0.0
C1392 C 0.21505 0.76379 0.68597 0.0
C1393 C 0.2409 0.77038 0.64536 0.0
C1394 C 0.20457 0.75183 0.70216 0.0
C1395 C 0.20217 0.75155 0.73885 0.0
C1396 C 0.21023 0.76321 0.76013 0.0
C1397 C 0.22123 0.77492 0.74435 0.0
C1398 C 0.22355 0.77525 0.70745 0.0
H1399 H 0.24759 0.76878 0.6263 0.0
H1400 H 0.24693 0.78103 0.65595 0.0
H1401 H 0.23827 0.76307 0.66803 0.0
H1402 H 0.19788 0.74288 0.68613 0.0
H1403 H 0.19365 0.74235 0.75035 0.0
H1404 H 0.22636 0.46224 0.45781 0.0
H1405 H 0.2333 0.46761 0.52089 0.0
H1406 H 0.20245 0.42631 0.55064 0.0
H1407 H 0.1954 0.42097 0.48834 0.0
H1408 H 0.20214 0.44716 0.59253 0.0
H1409 H 0.25466 0.45358 0.58168 0.0
H1410 H 0.25045 0.46366 0.55231 0.0
H1411 H 0.24188 0.4453 0.54704 0.0
C1412 C 0.22118 0.4543 0.47784 0.0
C1413 C 0.21037 0.44119 0.46817 0.0
C1414 C 0.22515 0.45738 0.51379 0.0
C1415 C 0.21839 0.44734 0.54037 0.0
C1416 C 0.20774 0.43422 0.53056 0.0
H1417 H 0.23089 0.42327 0.7391 0.0
H1418 H 0.22922 0.42926 0.67747 0.0
C1419 C 0.20377 0.43117 0.49489 0.0
C1420 C 0.22213 0.45022 0.57868 0.0
H1421 H 0.24638 0.45357 0.63929 0.0
C1422 C 0.21191 0.44884 0.60285 0.0
C1423 C 0.23489 0.45241 0.59188 0.0
C1424 C 0.24612 0.45377 0.56705 0.0
C1425 C 0.21377 0.4487 0.63996 0.0
C1426 C 0.22628 0.4502 0.65313 0.0
C1427 C 0.23683 0.45247 0.62901 0.0
C1428 C 0.22779 0.44728 0.691 0.0
C1429 C 0.20201 0.44599 0.66462 0.0
C1430 C 0.22756 0.45546 0.71919 0.0
C1431 C 0.22842 0.45199 0.75478 0.0
C1432 C 0.22958 0.44032 0.7625 0.0
C1433 C 0.22996 0.4323 0.7341 0.0
C1434 C 0.22908 0.43574 0.6988 0.0
H1435 H 0.19238 0.44322 0.64973 0.0
H1436 H 0.19992 0.43751 0.68349 0.0
H1437 H 0.20484 0.45538 0.68064 0.0
H1438 H 0.22671 0.4645 0.71368 0.0
H1439 H 0.2282 0.4584 0.77616 0.0
H1440 H 0.4377 0.88991 0.07736 0.0
H1441 H 0.43319 0.88696 0.14185 0.0
H1442 H 0.46556 0.87709 0.15472 0.0
H1443 H 0.47044 0.88052 0.09058 0.0
H1444 H 0.42624 0.86631 0.19037 0.0
H1445 H 0.47866 0.90998 0.21981 0.0
H1446 H 0.47171 0.90606 0.1751 0.0
H1447 H 0.47855 0.89615 0.1953 0.0
C1448 C 0.44372 0.88693 0.0939 0.0
C1449 C 0.45454 0.88563 0.07911 0.0
C1450 C 0.44115 0.88526 0.13072 0.0
C1451 C 0.44929 0.88216 0.15323 0.0
C1452 C 0.45944 0.87989 0.13804 0.0
H1453 H 0.44862 0.88121 0.38984 0.0
H1454 H 0.45196 0.87613 0.32767 0.0
C1455 C 0.46214 0.88175 0.10136 0.0
C1456 C 0.44764 0.88209 0.19265 0.0
H1457 H 0.46448 0.8986 0.26928 0.0
C1458 C 0.43464 0.87329 0.20764 0.0
C1459 C 0.45861 0.89125 0.21519 0.0
C1460 C 0.47263 0.90149 0.20059 0.0
C1461 C 0.43225 0.87359 0.24443 0.0
C1462 C 0.44313 0.88291 0.26669 0.0
C1463 C 0.45623 0.89137 0.25204 0.0
C1464 C 0.44072 0.88525 0.30426 0.0
C1465 C 0.41804 0.86418 0.25925 0.0
C1466 C 0.43348 0.89218 0.31135 0.0
C1467 C 0.43176 0.89525 0.34644 0.0
C1468 C 0.43717 0.89137 0.37523 0.0
C1469 C 0.44434 0.88431 0.36816 0.0
C1470 C 0.44622 0.88138 0.33279 0.0
H1471 H 0.41166 0.85561 0.24056 0.0
H1472 H 0.4187 0.85978 0.28533 0.0
H1473 H 0.41277 0.8702 0.26385 0.0
H1474 H 0.42933 0.89541 0.28962 0.0
H1475 H 0.42614 0.90066 0.351 0.0
H1476 H 0.11981 0.55688 0.06502 0.0
H1477 H 0.12476 0.55544 0.12841 0.0
H1478 H 0.10638 0.58001 0.15686 0.0
H1479 H 0.10179 0.58181 0.09402 0.0
H1480 H 0.12937 0.5867 0.19711 0.0
H1481 H 0.09355 0.52996 0.19446 0.0
H1482 H 0.10796 0.53635 0.16437 0.0
H1483 H 0.09487 0.54095 0.15765 0.0
C1484 C 0.11701 0.56212 0.08482 0.0
C1485 C 0.11025 0.5693 0.07465 0.0
C1486 C 0.11979 0.56125 0.12098 0.0
C1487 C 0.11571 0.56742 0.14739 0.0
C1488 C 0.1096 0.57516 0.13698 0.0
H1489 H 0.08519 0.54373 0.3566 0.0
H1490 H 0.09047 0.55051 0.29402 0.0
C1491 C 0.10692 0.57611 0.10101 0.0
C1492 C 0.11665 0.56502 0.18604 0.0
H1493 H 0.1027 0.53999 0.24998 0.0
C1494 C 0.1237 0.57648 0.20874 0.0
C1495 C 0.10912 0.55168 0.20106 0.0
C1496 C 0.10085 0.53902 0.17827 0.0
C1497 C 0.12297 0.57499 0.24616 0.0
C1498 C 0.11516 0.56168 0.26108 0.0
C1499 C 0.10865 0.55019 0.23836 0.0
C1500 C 0.11251 0.55936 0.30001 0.0
C1501 C 0.12994 0.58769 0.26937 0.0
C1502 C 0.12321 0.56246 0.32442 0.0
C1503 C 0.12021 0.55873 0.36048 0.0
C1504 C 0.10647 0.55168 0.37238 0.0
C1505 C 0.09587 0.54912 0.34816 0.0
C1506 C 0.09887 0.55295 0.31238 0.0
H1507 H 0.13331 0.59728 0.25372 0.0
H1508 H 0.12292 0.5872 0.29103 0.0
H1509 H 0.13917 0.58828 0.28206 0.0
H1510 H 0.13379 0.56722 0.31534 0.0
H1511 H 0.12856 0.5607 0.37857 0.0
H1512 H 0.44799 0.55811 0.06865 0.0
H1513 H 0.44903 0.56284 0.13295 0.0
H1514 H 0.40775 0.52854 0.14564 0.0
H1515 H 0.40687 0.52345 0.08172 0.0
H1516 H 0.43429 0.56862 0.18079 0.0
H1517 H 0.42903 0.51768 0.21189 0.0
H1518 H 0.4317 0.52441 0.167 0.0
H1519 H 0.41487 0.51672 0.18708 0.0
C1520 C 0.43908 0.55171 0.0851 0.0
C1521 C 0.42743 0.54031 0.07036 0.0
C1522 C 0.43968 0.5544 0.12182 0.0
C1523 C 0.4286 0.54581 0.14426 0.0
C1524 C 0.41658 0.53504 0.12905 0.0
H1525 H 0.42949 0.54772 0.38122 0.0
H1526 H 0.42038 0.54399 0.31967 0.0
C1527 C 0.41606 0.53221 0.09249 0.0
C1528 C 0.43003 0.54764 0.18368 0.0
H1529 H 0.43104 0.53176 0.26081 0.0
C1530 C 0.43344 0.56052 0.19831 0.0
C1531 C 0.42896 0.53706 0.20657 0.0
C1532 C 0.42607 0.52323 0.1924 0.0
C1533 C 0.43614 0.56317 0.23503 0.0
C1534 C 0.43536 0.5527 0.25758 0.0
C1535 C 0.43144 0.53969 0.24334 0.0
C1536 C 0.44044 0.55559 0.29484 0.0
C1537 C 0.44017 0.57727 0.24944 0.0
C1538 C 0.45467 0.56321 0.30093 0.0
C1539 C 0.45985 0.56514 0.33563 0.0
C1540 C 0.4509 0.55957 0.36503 0.0
C1541 C 0.4366 0.55213 0.35903 0.0
C1542 C 0.43141 0.55002 0.32402 0.0
H1543 H 0.4375 0.58323 0.23054 0.0
H1544 H 0.43503 0.57641 0.27551 0.0
H1545 H 0.45148 0.5831 0.254 0.0
H1546 H 0.46179 0.56743 0.27868 0.0
H1547 H 0.47092 0.57098 0.3394 0.0
H1548 H 0.12372 0.55954 0.88312 0.0
H1549 H 0.12871 0.556 0.82112 0.0
H1550 H 0.08971 0.55113 0.78729 0.0
H1551 H 0.08463 0.55447 0.84859 0.0
H1552 H 0.09526 0.53109 0.76008 0.0
H1553 H 0.13887 0.58442 0.73878 0.0
H1554 H 0.13997 0.5751 0.77665 0.0
H1555 H 0.12699 0.58001 0.7757 0.0
C1556 C 0.1162 0.55761 0.86243 0.0
C1557 C 0.10381 0.55732 0.87064 0.0
C1558 C 0.1191 0.5557 0.82706 0.0
C1559 C 0.10964 0.55349 0.79962 0.0
C1560 C 0.09716 0.55287 0.80806 0.0
H1561 H 0.10811 0.56126 0.57381 0.0
H1562 H 0.11118 0.56493 0.63863 0.0
C1563 C 0.09428 0.55478 0.84314 0.0
C1564 C 0.11247 0.55177 0.76185 0.0
H1565 H 0.13168 0.56947 0.68919 0.0
C1566 C 0.10334 0.53939 0.74462 0.0
C1567 C 0.12293 0.56272 0.74183 0.0
C1568 C 0.13273 0.57637 0.75895 0.0
C1569 C 0.10406 0.53779 0.70764 0.0
C1570 C 0.11443 0.54879 0.68745 0.0
C1571 C 0.12382 0.56105 0.70482 0.0
C1572 C 0.11491 0.548 0.64795 0.0
C1573 C 0.09325 0.52459 0.69029 0.0
C1574 C 0.11659 0.53766 0.63163 0.0
C1575 C 0.11467 0.53544 0.59481 0.0
C1576 C 0.11128 0.54369 0.57361 0.0
C1577 C 0.11068 0.55474 0.58954 0.0
C1578 C 0.11245 0.55684 0.62652 0.0
H1579 H 0.0843 0.51856 0.70824 0.0
H1580 H 0.08945 0.52677 0.66508 0.0
H1581 H 0.09784 0.51808 0.68374 0.0
H1582 H 0.1188 0.53093 0.64759 0.0
H1583 H 0.11536 0.52696 0.58312 0.0
H1584 H 0.44441 0.52915 0.84684 0.0
H1585 H 0.4483 0.53752 0.78546 0.0
H1586 H 0.44182 0.57092 0.81662 0.0
H1587 H 0.43768 0.56242 0.87868 0.0
H1588 H 0.42732 0.55687 0.75405 0.0
H1589 H 0.48224 0.57138 0.74557 0.0
H1590 H 0.47161 0.55411 0.76162 0.0
H1591 H 0.4733 0.56839 0.78771 0.0
C1592 C 0.44394 0.53837 0.84084 0.0
C1593 C 0.44083 0.54519 0.86765 0.0
C1594 C 0.44621 0.54316 0.80571 0.0
C1595 C 0.44554 0.55495 0.7966 0.0
C1596 C 0.44246 0.56185 0.82323 0.0
H1597 H 0.47468 0.58697 0.58303 0.0
H1598 H 0.4701 0.58597 0.64711 0.0
C1599 C 0.44017 0.55703 0.85861 0.0
C1600 C 0.44771 0.55965 0.75889 0.0
H1601 H 0.4703 0.56768 0.68977 0.0
C1602 C 0.43679 0.55947 0.74002 0.0
C1603 C 0.46013 0.56321 0.74079 0.0
C1604 C 0.47254 0.56443 0.76006 0.0
C1605 C 0.43774 0.56212 0.70303 0.0
C1606 C 0.44983 0.56474 0.68448 0.0
C1607 C 0.46096 0.56554 0.70381 0.0
C1608 C 0.45119 0.56629 0.64497 0.0
C1609 C 0.42579 0.56205 0.68428 0.0
C1610 C 0.44189 0.55572 0.62217 0.0
C1611 C 0.4444 0.55638 0.58529 0.0
C1612 C 0.4564 0.56747 0.57085 0.0
C1613 C 0.46539 0.57825 0.5935 0.0
C1614 C 0.46278 0.5777 0.63012 0.0
H1615 H 0.41964 0.56451 0.70311 0.0
H1616 H 0.42935 0.56958 0.6619 0.0
H1617 H 0.41888 0.55162 0.67323 0.0
H1618 H 0.43305 0.54665 0.63303 0.0
H1619 H 0.43737 0.54788 0.56843 0.0
H1620 H 0.43733 0.86768 0.88531 0.0
H1621 H 0.43082 0.86177 0.82218 0.0
H1622 H 0.45329 0.90491 0.79463 0.0
H1623 H 0.45995 0.91084 0.85704 0.0
H1624 H 0.41701 0.86955 0.77256 0.0
H1625 H 0.47075 0.88817 0.73036 0.0
H1626 H 0.46544 0.88504 0.77667 0.0
H1627 H 0.46925 0.901 0.75547 0.0
C1628 C 0.44071 0.87588 0.86579 0.0
C1629 C 0.44925 0.88971 0.87599 0.0
C1630 C 0.43705 0.87249 0.82979 0.0
C1631 C 0.4419 0.88289 0.80366 0.0
C1632 C 0.44977 0.89671 0.81423 0.0
H1633 H 0.41892 0.89635 0.603 0.0
H1634 H 0.42057 0.89077 0.66495 0.0
C1635 C 0.45347 0.90009 0.84996 0.0
C1636 C 0.43899 0.87954 0.76516 0.0
H1637 H 0.4551 0.88684 0.68407 0.0
C1638 C 0.4253 0.87308 0.75318 0.0
C1639 C 0.44978 0.88376 0.73994 0.0
C1640 C 0.46462 0.88974 0.75129 0.0
C1641 C 0.42221 0.87176 0.71645 0.0
C1642 C 0.43312 0.87733 0.69126 0.0
C1643 C 0.44672 0.88275 0.70331 0.0
C1644 C 0.43088 0.87924 0.65304 0.0
C1645 C 0.4073 0.86472 0.70509 0.0
C1646 C 0.43639 0.87488 0.62552 0.0
C1647 C 0.43563 0.87826 0.58979 0.0
C1648 C 0.42944 0.88613 0.58117 0.0
C1649 C 0.42372 0.89022 0.60871 0.0
C1650 C 0.4245 0.88689 0.64422 0.0
H1651 H 0.40065 0.85667 0.72469 0.0
H1652 H 0.40384 0.87243 0.70406 0.0
H1653 H 0.40579 0.8599 0.67828 0.0
H1654 H 0.44151 0.8691 0.63178 0.0
H1655 H 0.44015 0.87499 0.5691 0.0
H1656 H 0.2295 0.44768 0.27323 0.0
H1657 H 0.23642 0.45105 0.21006 0.0
H1658 H 0.19862 0.45006 0.18171 0.0
H1659 H 0.19163 0.44665 0.24453 0.0
H1660 H 0.21884 0.43044 0.15821 0.0
H1661 H 0.22885 0.48279 0.12221 0.0
H1662 H 0.22972 0.47782 0.16774 0.0
H1663 H 0.2133 0.47224 0.14705 0.0
C1664 C 0.22284 0.44852 0.25362 0.0
C1665 C 0.21 0.44684 0.26371 0.0
C1666 C 0.22679 0.45044 0.21761 0.0
C1667 C 0.21808 0.45092 0.19135 0.0
C1668 C 0.20559 0.44994 0.20164 0.0
H1669 H 0.21278 0.44421 0.95925 0.0
H1670 H 0.20996 0.44845 0.02246 0.0
C1671 C 0.20158 0.44791 0.23751 0.0
C1672 C 0.2211 0.45059 0.15296 0.0
H1673 H 0.22717 0.46811 0.07409 0.0
C1674 C 0.22081 0.43873 0.13985 0.0
C1675 C 0.22339 0.46132 0.12911 0.0
C1676 C 0.22395 0.47433 0.14214 0.0
C1677 C 0.22255 0.43719 0.10335 0.0
C1678 C 0.22504 0.44799 0.07944 0.0
C1679 C 0.22531 0.45988 0.09252 0.0
C1680 C 0.22755 0.44706 0.04089 0.0
C1681 C 0.22131 0.42382 0.09064 0.0
C1682 C 0.23863 0.44539 0.03029 0.0
C1683 C 0.24014 0.44282 0.99457 0.0
C1684 C 0.23073 0.44212 0.9686 0.0
C1685 C 0.22013 0.44466 0.97878 0.0
C1686 C 0.21853 0.44708 0.01479 0.0
H1687 H 0.21559 0.41533 0.11011 0.0
H1688 H 0.21599 0.42067 0.06438 0.0
H1689 H 0.23178 0.42518 0.08752 0.0
H1690 H 0.2459 0.44568 0.04987 0.0
H1691 H 0.24854 0.44111 0.98741 0.0
H1692 H 0.53421 0.77355 0.95236 0.0
H1693 H 0.5273 0.76685 0.01495 0.0
H1694 H 0.57006 0.78795 0.0465 0.0
H1695 H 0.57696 0.79489 0.98467 0.0
H1696 H 0.53301 0.75232 0.06542 0.0
H1697 H 0.55411 0.80624 0.10904 0.0
H1698 H 0.55167 0.80131 0.06245 0.0
H1699 H 0.56692 0.80409 0.08582 0.0
C1700 C 0.5421 0.7766 0.97267 0.0
C1701 C 0.55611 0.78486 0.9638 0.0
C1702 C 0.53815 0.77282 0.00836 0.0
C1703 C 0.54816 0.77726 0.03545 0.0
C1704 C 0.56215 0.78479 0.02617 0.0
H1705 H 0.55656 0.75101 0.23702 0.0
H1706 H 0.55156 0.75304 0.17482 0.0
C1707 C 0.56609 0.78865 0.99078 0.0
C1708 C 0.54423 0.77429 0.07365 0.0
H1709 H 0.5515 0.78999 0.15524 0.0
C1710 C 0.5368 0.76054 0.08508 0.0
C1711 C 0.54876 0.78501 0.09921 0.0
C1712 C 0.55566 0.79998 0.08845 0.0
C1713 C 0.53482 0.75724 0.12167 0.0
C1714 C 0.54074 0.76797 0.14733 0.0
C1715 C 0.54714 0.78172 0.13572 0.0
C1716 C 0.54198 0.76533 0.18571 0.0
C1717 C 0.52663 0.74227 0.13237 0.0
C1718 C 0.53851 0.77178 0.21281 0.0
C1719 C 0.54165 0.77087 0.24864 0.0
C1720 C 0.54832 0.76351 0.25786 0.0
C1721 C 0.55135 0.75671 0.23084 0.0
C1722 C 0.54833 0.75772 0.19518 0.0
H1723 H 0.51846 0.73625 0.11238 0.0
H1724 H 0.53358 0.73788 0.13327 0.0
H1725 H 0.52176 0.74097 0.15904 0.0
H1726 H 0.53372 0.77783 0.20612 0.0
H1727 H 0.5392 0.77622 0.26893 0.0
H1728 H 0.22163 0.76754 0.26976 0.0
H1729 H 0.22076 0.7609 0.20675 0.0
H1730 H 0.24384 0.80383 0.177 0.0
H1731 H 0.24506 0.81045 0.23942 0.0
H1732 H 0.20844 0.76624 0.15434 0.0
H1733 H 0.26313 0.78906 0.11729 0.0
H1734 H 0.25756 0.78702 0.16336 0.0
H1735 H 0.26031 0.80187 0.13795 0.0
C1736 C 0.22672 0.77552 0.24977 0.0
C1737 C 0.2334 0.78951 0.25949 0.0
C1738 C 0.22625 0.77173 0.21384 0.0
C1739 C 0.23249 0.78186 0.18716 0.0
C1740 C 0.23934 0.7958 0.19708 0.0
H1741 H 0.20552 0.78565 0.98041 0.0
H1742 H 0.21184 0.7866 0.04321 0.0
C1743 C 0.23989 0.79958 0.23284 0.0
C1744 C 0.23053 0.77812 0.14865 0.0
H1745 H 0.24744 0.78641 0.06845 0.0
C1746 C 0.217 0.77039 0.13568 0.0
C1747 C 0.24167 0.7833 0.12419 0.0
C1748 C 0.25647 0.79063 0.13654 0.0
C1749 C 0.21429 0.76859 0.09887 0.0
C1750 C 0.22537 0.77499 0.07438 0.0
C1751 C 0.23894 0.7818 0.08727 0.0
C1752 C 0.2229 0.77553 0.03563 0.0
C1753 C 0.19952 0.76013 0.08656 0.0
C1754 C 0.22774 0.76972 0.0102 0.0
C1755 C 0.22429 0.76935 0.974 0.0
C1756 C 0.21597 0.77478 0.96291 0.0
C1757 C 0.21183 0.78126 0.98821 0.0
C1758 C 0.21534 0.78171 0.02415 0.0
H1759 H 0.19303 0.75246 0.10714 0.0
H1760 H 0.19525 0.76705 0.08192 0.0
H1761 H 0.19877 0.75461 0.06123 0.0
H1762 H 0.23372 0.76504 0.01853 0.0
H1763 H 0.22759 0.76427 0.95503 0.0
H1764 H 0.14873 0.20002 0.28063 0.0
H1765 H 0.16397 0.19066 0.27039 0.0
H1766 H 0.19919 0.23175 0.27021 0.0
H1767 H 0.18392 0.24129 0.28038 0.0
H1768 H 0.19796 0.21417 0.21207 0.0
H1769 H 0.19071 0.18918 0.34443 0.0
H1770 H 0.17477 0.18513 0.32306 0.0
H1771 H 0.1866 0.20261 0.33615 0.0
C1772 C 0.15971 0.20708 0.2785 0.0
C1773 C 0.16516 0.22137 0.28145 0.0
C1774 C 0.16841 0.20171 0.27286 0.0
C1775 C 0.18269 0.21052 0.27019 0.0
C1776 C 0.18818 0.22482 0.27255 0.0
H1777 H 0.24008 0.18073 0.21589 0.0
H1778 H 0.23196 0.19668 0.2326 0.0
C1779 C 0.17947 0.23022 0.27833 0.0
C1780 C 0.19168 0.20461 0.26386 0.0
H1781 H 0.19927 0.18088 0.29732 0.0
C1782 C 0.19853 0.2071 0.23092 0.0
C1783 C 0.19241 0.1955 0.28871 0.0
C1784 C 0.18584 0.19304 0.32523 0.0
C1785 C 0.20533 0.19993 0.22116 0.0
C1786 C 0.20533 0.1902 0.2452 0.0
C1787 C 0.19914 0.18831 0.27891 0.0
C1788 C 0.21045 0.18089 0.23465 0.0
C1789 C 0.21176 0.2022 0.18452 0.0
C1790 C 0.20103 0.16679 0.23064 0.0
C1791 C 0.20559 0.15772 0.2212 0.0
C1792 C 0.21969 0.16258 0.21579 0.0
C1793 C 0.22915 0.17673 0.21979 0.0
C1794 C 0.22455 0.18583 0.22921 0.0
H1795 H 0.2094 0.20888 0.16748 0.0
H1796 H 0.22312 0.20717 0.18729 0.0
H1797 H 0.20808 0.19217 0.17072 0.0
H1798 H 0.19011 0.16282 0.23479 0.0
H1799 H 0.19807 0.14687 0.21837 0.0
H1800 H 0.79931 0.94604 0.29828 0.0
H1801 H 0.80997 0.97072 0.28629 0.0
H1802 H 0.76976 0.96661 0.27527 0.0
H1803 H 0.75897 0.94187 0.28752 0.0
H1804 H 0.80535 0.98167 0.22155 0.0
H1805 H 0.79102 3e-05 0.34395 0.0
H1806 H 0.79076 0.98378 0.34238 0.0
H1807 H 0.77733 0.98549 0.32112 0.0
C1808 C 0.79273 0.95041 0.29374 0.0
C1809 C 0.77832 0.94205 0.29379 0.0
C1810 C 0.79883 0.96449 0.28687 0.0
C1811 C 0.79063 0.97044 0.28019 0.0
C1812 C 0.77623 0.9622 0.28091 0.0
H1813 H 0.81692 0.05585 0.22281 0.0
H1814 H 0.80271 0.03122 0.23661 0.0
C1815 C 0.77011 0.94809 0.28775 0.0
C1816 C 0.79725 0.98512 0.27027 0.0
H1817 H 0.80335 0.01657 0.29923 0.0
C1818 C 0.80489 0.98931 0.23845 0.0
C1819 C 0.79646 0.99496 0.29227 0.0
C1820 C 0.78854 0.99093 0.32699 0.0
C1821 C 0.81199 0.00318 0.22824 0.0
C1822 C 0.81161 0.0131 0.25082 0.0
C1823 C 0.80362 0.00889 0.28212 0.0
C1824 C 0.82006 0.02797 0.24325 0.0
C1825 C 0.81986 0.00712 0.19339 0.0
C1826 C 0.83447 0.03424 0.2431 0.0
C1827 C 0.84257 0.04822 0.23525 0.0
C1828 C 0.83638 0.05617 0.22762 0.0
C1829 C 0.82194 0.04993 0.22846 0.0
C1830 C 0.81383 0.03591 0.23636 0.0
H1831 H 0.81606 0.99818 0.17489 0.0
H1832 H 0.81907 0.01551 0.17981 0.0
H1833 H 0.83091 0.01085 0.19891 0.0
H1834 H 0.83945 0.0283 0.24902 0.0
H1835 H 0.85367 0.05277 0.23504 0.0
H1836 H 0.94475 0.79996 0.22406 0.0
H1837 H 0.96862 0.80826 0.24164 0.0
H1838 H 0.96283 0.76755 0.22613 0.0
H1839 H 0.93885 0.75913 0.20816 0.0
H1840 H 0.97798 0.79778 0.29945 0.0
H1841 H 0.99756 0.79354 0.16557 0.0
H1842 H 0.98155 0.79357 0.17087 0.0
H1843 H 0.98252 0.77856 0.1827 0.0
C1844 C 0.94855 0.79277 0.22426 0.0
C1845 C 0.93998 0.77892 0.21461 0.0
C1846 C 0.96216 0.79752 0.23439 0.0
C1847 C 0.96745 0.78852 0.23488 0.0
C1848 C 0.95893 0.77466 0.22545 0.0
H1849 H 0.05469 0.81619 0.2784 0.0
H1850 H 0.03001 0.80071 0.2673 0.0
C1851 C 0.94527 0.76988 0.21532 0.0
C1852 C 0.98191 0.79384 0.24556 0.0
H1853 H 0.01377 0.80342 0.21197 0.0
C1854 C 0.9858 0.79886 0.2805 0.0
C1855 C 0.99201 0.7951 0.22076 0.0
C1856 C 0.9883 0.79 0.18278 0.0
C1857 C -0.00035 0.80562 0.29097 0.0
C1858 C 0.00983 0.80757 0.26561 0.0
C1859 C 0.00589 0.80191 0.23123 0.0
C1860 C 0.02462 0.81665 0.27314 0.0
C1861 C 0.00332 0.81089 0.32883 0.0
C1862 C 0.02969 0.83071 0.2795 0.0
C1863 C 0.04369 0.83953 0.28566 0.0
C1864 C 0.05287 0.83444 0.28543 0.0
C1865 C 0.04781 0.82036 0.27883 0.0
C1866 C 0.03376 0.81152 0.27252 0.0
H1867 H 0.99449 0.8051 0.34732 0.0
H1868 H 0.01226 0.81012 0.3387 0.0
H1869 H 0.00612 0.82189 0.32959 0.0
H1870 H 0.02281 0.83489 0.27933 0.0
H1871 H 0.0473 0.85034 0.29052 0.0
H1872 H 0.81161 0.75664 0.70313 0.0
H1873 H 0.79652 0.76643 0.71142 0.0
H1874 H 0.83102 0.80718 0.69317 0.0
H1875 H 0.84608 0.79751 0.68444 0.0
H1876 H 0.79996 0.78507 0.76436 0.0
H1877 H 0.8011 0.8071 0.6311 0.0
H1878 H 0.80632 0.79441 0.63812 0.0
H1879 H 0.81807 0.81232 0.64747 0.0
C1880 C 0.81591 0.76766 0.7003 0.0
C1881 C 0.83001 0.77634 0.69317 0.0
C1882 C 0.80728 0.77322 0.70503 0.0
C1883 C 0.81262 0.78749 0.70235 0.0
C1884 C 0.82663 0.79611 0.69448 0.0
H1885 H 0.79835 0.85157 0.76208 0.0
H1886 H 0.80601 0.8359 0.74051 0.0
C1887 C 0.83525 0.79058 0.68978 0.0
C1888 C 0.80398 0.79361 0.71117 0.0
H1889 H 0.79488 0.81666 0.68083 0.0
C1890 C 0.79857 0.79175 0.7459 0.0
C1891 C 0.80219 0.80228 0.68695 0.0
C1892 C 0.80711 0.80404 0.64871 0.0
C1893 C 0.79217 0.79904 0.75782 0.0
C1894 C 0.79105 0.80827 0.73416 0.0
C1895 C 0.79585 0.80962 0.6989 0.0
C1896 C 0.78608 0.81752 0.74645 0.0
C1897 C 0.78734 0.79742 0.79614 0.0
C1898 C 0.77231 0.81231 0.75669 0.0
C1899 C 0.7679 0.82123 0.76912 0.0
C1900 C 0.77722 0.83547 0.77138 0.0
C1901 C 0.79096 0.84063 0.76077 0.0
C1902 C 0.79534 0.83173 0.74832 0.0
H1903 H 0.79082 0.79141 0.81237 0.0
H1904 H 0.7912 0.80767 0.80881 0.0
H1905 H 0.77591 0.79198 0.79675 0.0
H1906 H 0.765 0.80137 0.75503 0.0
H1907 H 0.75723 0.817 0.77695 0.0
H1908 H 0.19662 0.04807 0.71026 0.0
H1909 H 0.18812 0.02368 0.72181 0.0
H1910 H 0.22987 0.03137 0.72514 0.0
H1911 H 0.23853 0.05594 0.71377 0.0
H1912 H 0.19364 0.00535 0.67927 0.0
H1913 H 0.21178 0.01066 0.82046 0.0
H1914 H 0.21023 0.02411 0.79811 0.0
H1915 H 0.22412 0.02118 0.78696 0.0
C1916 C 0.20401 0.0446 0.71351 0.0
C1917 C 0.21823 0.05389 0.71122 0.0
C1918 C 0.19914 0.03067 0.72004 0.0
C1919 C 0.20839 0.02581 0.72455 0.0
C1920 C 0.22261 0.03501 0.72212 0.0
H1921 H 0.18035 0.93958 0.78347 0.0
H1922 H 0.19588 0.96358 0.76539 0.0
C1923 C 0.22751 0.04899 0.71553 0.0
C1924 C 0.20292 0.01102 0.73154 0.0
H1925 H 0.1981 0.9882 0.79812 0.0
C1926 C 0.19477 0.00157 0.70506 0.0
C1927 C 0.20453 0.0062 0.76513 0.0
C1928 C 0.21307 0.01601 0.7945 0.0
C1929 C 0.18768 0.98739 0.71183 0.0
C1930 C 0.18863 0.98261 0.7461 0.0
C1931 C 0.1974 0.99197 0.77193 0.0
C1932 C 0.17948 0.96815 0.75673 0.0
C1933 C 0.17893 0.97764 0.68259 0.0
C1934 C 0.16523 0.96296 0.75838 0.0
C1935 C 0.1564 0.94939 0.76879 0.0
C1936 C 0.1617 0.94077 0.77782 0.0
C1937 C 0.17601 0.94601 0.77654 0.0
C1938 C 0.18487 0.95967 0.76624 0.0
H1939 H 0.18238 0.98233 0.65567 0.0
H1940 H 0.17919 0.96787 0.68363 0.0
H1941 H 0.16809 0.97514 0.68619 0.0
H1942 H 0.16093 0.96946 0.75176 0.0
H1943 H 0.14542 0.94564 0.76964 0.0
H1944 H 0.9453 0.14537 0.72604 0.0
H1945 H 0.97006 0.16015 0.73538 0.0
H1946 H 0.96552 0.19615 0.73112 0.0
H1947 H 0.94062 0.18138 0.72184 0.0
H1948 H 0.9888 0.18239 0.68742 0.0
H1949 H 0.98712 0.19978 0.82621 0.0
H1950 H 0.97282 0.18454 0.80696 0.0
H1951 H 0.97631 0.20129 0.79297 0.0
C1952 C 0.94955 0.15642 0.72726 0.0
C1953 C 0.94105 0.16224 0.72329 0.0
C1954 C 0.96368 0.16484 0.73252 0.0
C1955 C 0.96953 0.17918 0.73413 0.0
C1956 C 0.96111 0.18506 0.73031 0.0
H1957 H 0.05639 0.23757 0.78154 0.0
H1958 H 0.03207 0.22828 0.7658 0.0
C1959 C 0.94693 0.17664 0.72493 0.0
C1960 C 0.98453 0.18787 0.73916 0.0
H1961 H 0.00898 0.20732 0.80105 0.0
C1962 C 0.99325 0.18797 0.7121 0.0
C1963 C 0.99022 0.19519 0.77127 0.0
C1964 C 0.98119 0.19521 0.80122 0.0
C1965 C 0.00757 0.19491 0.71671 0.0
C1966 C 0.01323 0.20166 0.74952 0.0
C1967 C 0.00456 0.20207 0.77599 0.0
C1968 C 0.02798 0.20743 0.75791 0.0
C1969 C 0.01649 0.19483 0.68657 0.0
C1970 C 0.03361 0.19873 0.75907 0.0
C1971 C 0.04742 0.20397 0.76801 0.0
C1972 C 0.05582 0.218 0.77621 0.0
C1973 C 0.05015 0.22671 0.77524 0.0
C1974 C 0.0363 0.22144 0.76628 0.0
H1975 H 0.01123 0.19308 0.66029 0.0
H1976 H 0.02645 0.20468 0.68542 0.0
H1977 H 0.01872 0.18633 0.69094 0.0
H1978 H 0.02726 0.18782 0.75348 0.0
H1979 H 0.05149 0.197 0.76873 0.0
H1980 H 0.84944 0.57212 0.63754 0.0
H1981 H 0.86605 0.56452 0.62392 0.0
H1982 H 0.83343 0.52704 0.5779 0.0
H1983 H 0.81683 0.53448 0.59144 0.0
H1984 H 0.86399 0.53907 0.64916 0.0
H1985 H 0.86459 0.5425 0.50114 0.0
H1986 H 0.85888 0.55175 0.52952 0.0
H1987 H 0.84753 0.5338 0.51987 0.0
C1988 C 0.84585 0.56231 0.62429 0.0
C1989 C 0.83186 0.55387 0.61553 0.0
C1990 C 0.85533 0.55801 0.61653 0.0
C1991 C 0.85096 0.54534 0.59947 0.0
C1992 C 0.83702 0.53697 0.59051 0.0
H1993 H 0.87032 0.48273 0.59017 0.0
H1994 H 0.86316 0.49951 0.60412 0.0
C1995 C 0.82754 0.54119 0.59848 0.0
C1996 C 0.86064 0.54029 0.59283 0.0
H1997 H 0.87213 0.52765 0.52653 0.0
C1998 C 0.86604 0.53683 0.62235 0.0
C1999 C 0.86342 0.53756 0.55782 0.0
C2000 C 0.85842 0.54171 0.52522 0.0
C2001 C 0.87334 0.52979 0.61779 0.0
C2002 C 0.87513 0.52607 0.5829 0.0
C2003 C 0.87061 0.53042 0.55328 0.0
C2004 C 0.88028 0.51643 0.57675 0.0
C2005 C 0.87866 0.52597 0.65035 0.0
C2006 C 0.89221 0.52039 0.55641 0.0
C2007 C 0.89633 0.5108 0.54837 0.0
C2008 C 0.88845 0.49709 0.56014 0.0
C2009 C 0.87659 0.49322 0.58076 0.0
C2010 C 0.87255 0.50281 0.58898 0.0
H2011 H 0.88014 0.5329 0.67326 0.0
H2012 H 0.87105 0.51529 0.65851 0.0
H2013 H 0.88858 0.52638 0.64454 0.0
H2014 H 0.89821 0.53084 0.54646 0.0
H2015 H 0.90551 0.51404 0.53235 0.0
H2016 H 0.46778 0.28077 0.63707 0.0
H2017 H 0.47897 0.30553 0.62568 0.0
H2018 H 0.43921 0.30262 0.61687 0.0
H2019 H 0.42789 0.27781 0.62858 0.0
H2020 H 0.47451 0.31672 0.56178 0.0
H2021 H 0.46145 0.33601 0.68452 0.0
H2022 H 0.46058 0.31947 0.68282 0.0
H2023 H 0.44736 0.32169 0.66209 0.0
C2024 C 0.46142 0.28543 0.63319 0.0
C2025 C 0.44697 0.27738 0.63364 0.0
C2026 C 0.46782 0.29955 0.62668 0.0
C2027 C 0.45989 0.30586 0.62074 0.0
C2028 C 0.44548 0.29794 0.62197 0.0
H2029 H 0.48697 0.39098 0.55913 0.0
H2030 H 0.47268 0.36656 0.57506 0.0
C2031 C 0.43905 0.28378 0.62849 0.0
C2032 C 0.4668 0.32055 0.61067 0.0
H2033 H 0.47359 0.35229 0.63901 0.0
C2034 C 0.4743 0.3245 0.57861 0.0
C2035 C 0.46634 0.33059 0.63258 0.0
C2036 C 0.45859 0.32681 0.66758 0.0
C2037 C 0.48154 0.33833 0.56802 0.0
C2038 C 0.48145 0.34843 0.59043 0.0
C2039 C 0.47364 0.34446 0.62203 0.0
C2040 C 0.48996 0.36323 0.58219 0.0
C2041 C 0.48925 0.34201 0.53293 0.0
C2042 C 0.50435 0.3694 0.58167 0.0
C2043 C 0.5125 0.38325 0.57259 0.0
C2044 C 0.50637 0.39118 0.56406 0.0
C2045 C 0.49195 0.38507 0.56543 0.0
C2046 C 0.48379 0.37117 0.57456 0.0
H2047 H 0.48535 0.33296 0.51479 0.0
H2048 H 0.48841 0.35033 0.51906 0.0
H2049 H 0.50032 0.34576 0.53815 0.0
H2050 H 0.50928 0.36345 0.58808 0.0
H2051 H 0.52359 0.38771 0.57201 0.0
H2052 H 0.60972 0.09507 0.5389 0.0
H2053 H 0.63456 0.10594 0.55027 0.0
H2054 H 0.63924 0.14581 0.52781 0.0
H2055 H 0.6145 0.1351 0.51663 0.0
H2056 H 0.65889 0.1254 0.50603 0.0
H2057 H 0.65266 0.14717 0.63368 0.0
H2058 H 0.63837 0.13308 0.61075 0.0
H2059 H 0.64512 0.15045 0.59518 0.0
C2060 C 0.61608 0.10613 0.53596 0.0
C2061 C 0.61019 0.11428 0.5273 0.0
C2062 C 0.63023 0.11229 0.54239 0.0
C2063 C 0.63859 0.12664 0.54031 0.0
C2064 C 0.63285 0.13472 0.52992 0.0
H2065 H 0.7203 0.18996 0.58675 0.0
H2066 H 0.69631 0.17542 0.56859 0.0
C2067 C 0.61874 0.12859 0.52353 0.0
C2068 C 0.65316 0.13338 0.55119 0.0
H2069 H 0.67553 0.15541 0.6135 0.0
C2070 C 0.66258 0.13187 0.52966 0.0
C2071 C 0.6578 0.14168 0.58221 0.0
C2072 C 0.64796 0.14314 0.60703 0.0
C2073 C 0.67672 0.13901 0.53761 0.0
C2074 C 0.68138 0.14766 0.56803 0.0
C2075 C 0.67188 0.14881 0.59008 0.0
C2076 C 0.69614 0.15621 0.57678 0.0
C2077 C 0.68662 0.13768 0.51282 0.0
C2078 C 0.70393 0.15017 0.58735 0.0
C2079 C 0.71767 0.15847 0.59778 0.0
C2080 C 0.72371 0.17289 0.59795 0.0
C2081 C 0.7159 0.17888 0.58698 0.0
C2082 C 0.70222 0.1706 0.57655 0.0
H2083 H 0.68166 0.13262 0.48716 0.0
H2084 H 0.69564 0.14796 0.50696 0.0
H2085 H 0.69047 0.13137 0.52598 0.0
H2086 H 0.69931 0.13907 0.58824 0.0
H2087 H 0.72347 0.1536 0.60618 0.0
H2088 H 0.42483 0.1466 0.12077 0.0
H2089 H 0.43444 0.13143 0.11032 0.0
H2090 H 0.47554 0.16658 0.11426 0.0
H2091 H 0.46609 0.18174 0.12476 0.0
H2092 H 0.45233 0.13356 0.05245 0.0
H2093 H 0.47655 0.13869 0.18509 0.0
H2094 H 0.46321 0.14298 0.17751 0.0
H2095 H 0.48077 0.15494 0.16534 0.0
C2096 C 0.43591 0.15106 0.1196 0.0
C2097 C 0.44473 0.16533 0.12367 0.0
C2098 C 0.44136 0.1424 0.11365 0.0
C2099 C 0.45567 0.1479 0.11213 0.0
C2100 C 0.46447 0.16213 0.11608 0.0
H2101 H 0.5191 0.1322 0.05832 0.0
H2102 H 0.50343 0.14026 0.07673 0.0
C2103 C 0.45905 0.17078 0.12185 0.0
C2104 C 0.46158 0.13898 0.10476 0.0
H2105 H 0.4849 0.1306 0.13703 0.0
C2106 C 0.45924 0.13264 0.07112 0.0
C2107 C 0.47051 0.13781 0.12935 0.0
C2108 C 0.47282 0.14385 0.16649 0.0
C2109 C 0.46636 0.12589 0.0605 0.0
C2110 C 0.47587 0.12539 0.08442 0.0
C2111 C 0.47764 0.1311 0.11874 0.0
C2112 C 0.48507 0.12019 0.07323 0.0
C2113 C 0.46428 0.12006 0.02314 0.0
C2114 C 0.47987 0.10622 0.06532 0.0
C2115 C 0.48881 0.10157 0.05469 0.0
C2116 C 0.50305 0.11085 0.05197 0.0
C2117 C 0.50818 0.12482 0.06008 0.0
C2118 C 0.49926 0.12944 0.07068 0.0
H2119 H 0.45806 0.12308 0.00626 0.0
H2120 H 0.47438 0.12358 0.0099 0.0
H2121 H 0.45886 0.10864 0.02459 0.0
H2122 H 0.46894 0.09892 0.06759 0.0
H2123 H 0.48461 0.09073 0.04875 0.0
H2124 H 0.86211 0.38307 0.0487 0.0
H2125 H 0.85242 0.35828 0.05688 0.0
H2126 H 0.89339 0.36387 0.06104 0.0
H2127 H 0.90322 0.38878 0.05303 0.0
H2128 H 0.85745 0.34005 0.01165 0.0
H2129 H 0.87364 0.34175 0.1535 0.0
H2130 H 0.87296 0.35597 0.13286 0.0
H2131 H 0.88666 0.35271 0.1219 0.0
C2132 C 0.86907 0.37904 0.05146 0.0
C2133 C 0.88341 0.38783 0.05035 0.0
C2134 C 0.86352 0.3649 0.05605 0.0
C2135 C 0.87222 0.35933 0.0598 0.0
C2136 C 0.88655 0.36805 0.05859 0.0
H2137 H 0.8442 0.27267 0.10919 0.0
H2138 H 0.85934 0.29696 0.09324 0.0
C2139 C 0.89212 0.38223 0.05393 0.0
C2140 C 0.86612 0.34435 0.06469 0.0
H2141 H 0.86043 0.3199 0.12723 0.0
C2142 C 0.8582 0.33562 0.03677 0.0
C2143 C 0.86726 0.33868 0.09741 0.0
C2144 C 0.87551 0.3477 0.12832 0.0
C2145 C 0.85101 0.32128 0.04106 0.0
C2146 C 0.8516 0.31562 0.07437 0.0
C2147 C 0.86002 0.32432 0.10177 0.0
C2148 C 0.84261 0.30084 0.08238 0.0
C2149 C 0.84272 0.31233 0.01009 0.0
C2150 C 0.82826 0.29512 0.08186 0.0
C2151 C 0.81964 0.28134 0.09096 0.0
C2152 C 0.82524 0.27307 0.10097 0.0
C2153 C 0.83963 0.27881 0.10148 0.0
C2154 C 0.84826 0.29264 0.09239 0.0
H2155 H 0.84669 0.31767 0.98408 0.0
H2156 H 0.84284 0.30248 0.00965 0.0
H2157 H 0.83187 0.3099 0.0128 0.0
H2158 H 0.82372 0.30138 0.07498 0.0
H2159 H 0.80859 0.27721 0.09048 0.0
H2160 H 0.72158 0.56981 0.1229 0.0
H2161 H 0.69681 0.55917 0.11108 0.0
H2162 H 0.69252 0.51884 0.1204 0.0
H2163 H 0.71721 0.52934 0.13195 0.0
H2164 H 0.68166 0.5239 0.05605 0.0
H2165 H 0.66332 0.53764 0.17952 0.0
H2166 H 0.67792 0.55139 0.157 0.0
H2167 H 0.67952 0.53781 0.17771 0.0
C2168 C 0.71531 0.55867 0.12286 0.0
C2169 C 0.7213 0.55038 0.12826 0.0
C2170 C 0.70118 0.55264 0.11627 0.0
C2171 C 0.69289 0.53825 0.11517 0.0
C2172 C 0.69879 0.52997 0.12129 0.0
H2173 H 0.61094 0.47503 0.07 0.0
H2174 H 0.63532 0.48953 0.08444 0.0
C2175 C 0.71288 0.53598 0.12789 0.0
C2176 C 0.67821 0.53173 0.10526 0.0
H2177 H 0.64674 0.52534 0.13484 0.0
C2178 C 0.67402 0.52425 0.07318 0.0
C2179 C 0.66836 0.53238 0.12756 0.0
C2180 C 0.67241 0.54015 0.16252 0.0
C2181 C 0.66014 0.51715 0.06305 0.0
C2182 C 0.65021 0.51735 0.08597 0.0
C2183 C 0.65443 0.52521 0.11748 0.0
C2184 C 0.63535 0.50876 0.07858 0.0
C2185 C 0.65619 0.50941 0.028 0.0
C2186 C 0.62726 0.51482 0.07152 0.0
C2187 C 0.61328 0.50654 0.06332 0.0
C2188 C 0.60724 0.49212 0.06234 0.0
C2189 C 0.61533 0.48612 0.0703 0.0
C2190 C 0.62926 0.49437 0.07844 0.0
H2191 H 0.66511 0.51331 0.00941 0.0
H2192 H 0.65251 0.49835 0.03317 0.0
H2193 H 0.64776 0.51021 0.01469 0.0
H2194 H 0.63182 0.52592 0.07176 0.0
H2195 H 0.60725 0.51143 0.05744 0.0
H2196 H 0.5147 0.90654 0.95919 0.0
H2197 H 0.53068 0.89861 0.94123 0.0
H2198 H 0.4962 0.85849 0.91675 0.0
H2199 H 0.48024 0.86628 0.93443 0.0
H2200 H 0.53212 0.87563 0.97047 0.0
H2201 H 0.52029 0.86945 0.82547 0.0
H2202 H 0.51611 0.87981 0.85427 0.0
H2203 H 0.50515 0.86139 0.85304 0.0
C2204 C 0.51055 0.89605 0.94984 0.0
C2205 C 0.49624 0.88702 0.9481 0.0
C2206 C 0.51967 0.89156 0.9396 0.0
C2207 C 0.51457 0.87807 0.92712 0.0
C2208 C 0.5003 0.86904 0.92562 0.0
H2209 H 0.53261 0.81622 0.87815 0.0
H2210 H 0.52401 0.83205 0.88934 0.0
C2211 C 0.49121 0.87347 0.93596 0.0
C2212 C 0.52401 0.87303 0.91703 0.0
H2213 H 0.53077 0.85691 0.84923 0.0
C2214 C 0.53211 0.8718 0.9438 0.0
C2215 C 0.52397 0.86815 0.88215 0.0
C2216 C 0.51602 0.86988 0.85197 0.0
C2217 C 0.53942 0.86488 0.93719 0.0
C2218 C 0.53867 0.85925 0.90287 0.0
C2219 C 0.53123 0.8612 0.87557 0.0
C2220 C 0.54423 0.85001 0.89578 0.0
C2221 C 0.54718 0.86288 0.96742 0.0
C2222 C 0.55846 0.85495 0.89553 0.0
C2223 C 0.56343 0.84591 0.88914 0.0
C2224 C 0.5542 0.83184 0.8829 0.0
C2225 C 0.53997 0.827 0.88294 0.0
C2226 C 0.53503 0.83602 0.88924 0.0
H2227 H 0.54531 0.86643 0.99351 0.0
H2228 H 0.54415 0.85184 0.96977 0.0
H2229 H 0.55839 0.8688 0.9617 0.0
H2230 H 0.56569 0.86577 0.90017 0.0
H2231 H 0.57445 0.84991 0.88915 0.0
H2232 H 0.09218 0.60901 0.95012 0.0
H2233 H 0.10183 0.63338 0.93417 0.0
H2234 H 0.14226 0.63783 0.92556 0.0
H2235 H 0.13274 0.61359 0.94113 0.0
H2236 H 0.12322 0.65684 0.96987 0.0
H2237 H 0.13715 0.65296 0.82979 0.0
H2238 H 0.12518 0.6381 0.85553 0.0
H2239 H 0.14345 0.64535 0.86141 0.0
C2240 C 0.10312 0.6152 0.9447 0.0
C2241 C 0.11172 0.60943 0.94669 0.0
C2242 C 0.10859 0.62907 0.93562 0.0
C2243 C 0.12268 0.63727 0.92813 0.0
C2244 C 0.13129 0.63156 0.93053 0.0
H2245 H 0.18628 0.71859 0.89259 0.0
H2246 H 0.17076 0.69409 0.90389 0.0
C2247 C 0.12586 0.61775 0.93964 0.0
C2248 C 0.12863 0.65195 0.91883 0.0
H2249 H 0.14824 0.67561 0.85559 0.0
C2250 C 0.12848 0.66097 0.94466 0.0
C2251 C 0.13539 0.6572 0.88581 0.0
C2252 C 0.1352 0.64788 0.85639 0.0
C2253 C 0.13568 0.67527 0.93912 0.0
C2254 C 0.14304 0.68053 0.90687 0.0
C2255 C 0.14263 0.67147 0.88038 0.0
C2256 C 0.15217 0.69543 0.90117 0.0
C2257 C 0.13598 0.68469 0.96839 0.0
C2258 C 0.14678 0.70421 0.89598 0.0
C2259 C 0.15563 0.71823 0.88946 0.0
C2260 C 0.16996 0.72359 0.88804 0.0
C2261 C 0.17529 0.71475 0.89356 0.0
C2262 C 0.16645 0.70077 0.89996 0.0
H2263 H 0.1311 0.67901 0.99347 0.0
H2264 H 0.14677 0.69274 0.97427 0.0
H2265 H 0.13037 0.68997 0.95933 0.0
H2266 H 0.13575 0.70018 0.89648 0.0
H2267 H 0.15126 0.72483 0.8852 0.0
H2268 H 0.27413 0.42382 0.87225 0.0
H2269 H 0.29895 0.43316 0.88053 0.0
H2270 H 0.3058 0.47442 0.86879 0.0
H2271 H 0.28111 0.46521 0.86004 0.0
H2272 H 0.3251 0.4694 0.83179 0.0
H2273 H 0.31831 0.45272 0.97441 0.0
H2274 H 0.30874 0.43955 0.94178 0.0
H2275 H 0.30476 0.45303 0.94902 0.0
C2276 C 0.28096 0.43488 0.87108 0.0
C2277 C 0.27571 0.44381 0.8658 0.0
C2278 C 0.29509 0.44018 0.87596 0.0
C2279 C 0.30412 0.45446 0.8758 0.0
C2280 C 0.29895 0.46336 0.86911 0.0
H2281 H 0.38496 0.51745 0.92459 0.0
H2282 H 0.36134 0.50257 0.90405 0.0
C2283 C 0.28486 0.45808 0.86419 0.0
C2284 C 0.31888 0.46034 0.88414 0.0
H2285 H 0.34099 0.46552 0.95295 0.0
C2286 C 0.3286 0.46844 0.85813 0.0
C2287 C 0.32336 0.45899 0.91852 0.0
C2288 C 0.31329 0.45069 0.94772 0.0
C2289 C 0.34273 0.47558 0.86593 0.0
C2290 C 0.34715 0.47472 0.90077 0.0
C2291 C 0.3375 0.46613 0.92628 0.0
C2292 C 0.36159 0.48358 0.9122 0.0
C2293 C 0.35278 0.48415 0.83702 0.0
C2294 C 0.36939 0.47776 0.92442 0.0
C2295 C 0.38289 0.48625 0.93637 0.0
C2296 C 0.38869 0.50064 0.93658 0.0
C2297 C 0.38077 0.5064 0.92464 0.0
C2298 C 0.36733 0.49793 0.91263 0.0
H2299 H 0.34836 0.48054 0.80991 0.0
H2300 H 0.35527 0.49501 0.83986 0.0
H2301 H 0.36252 0.48387 0.83921 0.0
H2302 H 0.36504 0.46668 0.92461 0.0
H2303 H 0.38877 0.48155 0.94549 0.0
H2304 H 0.13112 0.51945 0.43714 0.0
H2305 H 0.13954 0.50352 0.42502 0.0
H2306 H 0.09819 0.46908 0.43392 0.0
H2307 H 0.08959 0.48501 0.44615 0.0
H2308 H 0.13419 0.48015 0.47525 0.0
H2309 H 0.11525 0.46463 0.33541 0.0
H2310 H 0.11814 0.48075 0.35404 0.0
H2311 H 0.10379 0.46484 0.36898 0.0
C2312 C 0.12379 0.5085 0.43631 0.0
C2313 C 0.10971 0.50345 0.44264 0.0
C2314 C 0.12861 0.49943 0.4294 0.0
C2315 C 0.11945 0.4852 0.42849 0.0
C2316 C 0.10536 0.48007 0.43428 0.0
H2317 H 0.1479 0.42659 0.37864 0.0
H2318 H 0.13226 0.43531 0.39334 0.0
C2319 C 0.1005 0.48916 0.44132 0.0
C2320 C 0.12496 0.47585 0.42287 0.0
H2321 H 0.12997 0.45719 0.35857 0.0
C2322 C 0.13311 0.47494 0.44997 0.0
C2323 C 0.12337 0.46901 0.38997 0.0
C2324 C 0.1147 0.46981 0.36023 0.0
C2325 C 0.14025 0.46782 0.44445 0.0
C2326 C 0.1394 0.46172 0.41073 0.0
C2327 C 0.13062 0.46195 0.38431 0.0
C2328 C 0.14861 0.45633 0.40139 0.0
C2329 C 0.14895 0.46718 0.47442 0.0
C2330 C 0.16288 0.46536 0.40039 0.0
C2331 C 0.17178 0.46046 0.39199 0.0
C2332 C 0.16654 0.44645 0.38427 0.0
C2333 C 0.1522 0.43744 0.3846 0.0
C2334 C 0.14328 0.44238 0.39297 0.0
H2335 H 0.14533 0.46858 0.50094 0.0
H2336 H 0.14881 0.4572 0.47431 0.0
H2337 H 0.15977 0.47558 0.47088 0.0
H2338 H 0.16715 0.47622 0.40615 0.0
H2339 H 0.18277 0.46765 0.39176 0.0
H2340 H 0.47615 0.61248 0.44506 0.0
H2341 H 0.49021 0.63695 0.43084 0.0
H2342 H 0.52695 0.63368 0.43492 0.0
H2343 H 0.51292 0.60909 0.44943 0.0
H2344 H 0.52844 0.65707 0.47224 0.0
H2345 H 0.50937 0.65197 0.33291 0.0
H2346 H 0.49591 0.64408 0.36573 0.0
H2347 H 0.5074 0.63745 0.35865 0.0
C2348 C 0.48722 0.61695 0.443 0.0
C2349 C 0.49345 0.60888 0.44813 0.0
C2350 C 0.49522 0.6309 0.43472 0.0
C2351 C 0.50955 0.637 0.43129 0.0
C2352 C 0.51587 0.62908 0.43723 0.0
H2353 H 0.56828 0.72414 0.38526 0.0
H2354 H 0.55884 0.69959 0.39849 0.0
C2355 C 0.50786 0.61508 0.44547 0.0
C2356 C 0.51784 0.65169 0.42163 0.0
H2357 H 0.5213 0.67473 0.35716 0.0
C2358 C 0.52707 0.66096 0.44691 0.0
C2359 C 0.51603 0.65663 0.38846 0.0
C2360 C 0.50674 0.64701 0.3597 0.0
C2361 C 0.53402 0.67522 0.44059 0.0
C2362 C 0.53175 0.68017 0.408 0.0
C2363 C 0.52293 0.67084 0.3822 0.0
C2364 C 0.53767 0.69502 0.40097 0.0
C2365 C 0.54324 0.6849 0.46932 0.0
C2366 C 0.52884 0.70045 0.39764 0.0
C2367 C 0.53416 0.71437 0.39001 0.0
C2368 C 0.5484 0.72309 0.38539 0.0
C2369 C 0.55725 0.71765 0.38879 0.0
C2370 C 0.55191 0.70368 0.39649 0.0
H2371 H 0.54212 0.67952 0.49514 0.0
H2372 H 0.55414 0.68965 0.46063 0.0
H2373 H 0.54091 0.69333 0.47373 0.0
H2374 H 0.51781 0.69388 0.40095 0.0
H2375 H 0.52709 0.71828 0.38753 0.0
H2376 H 0.38354 0.86229 0.45781 0.0
H2377 H 0.35928 0.85231 0.44149 0.0
H2378 H 0.36341 0.89269 0.44375 0.0
H2379 H 0.38775 0.90281 0.46032 0.0
H2380 H 0.33928 0.87107 0.47934 0.0
H2381 H 0.34603 0.85703 0.34138 0.0
H2382 H 0.35315 0.85117 0.37559 0.0
H2383 H 0.36029 0.86934 0.36832 0.0
C2384 C 0.37928 0.86904 0.45498 0.0
C2385 C 0.38753 0.88332 0.46012 0.0
C2386 C 0.36546 0.86334 0.44549 0.0
C2387 C 0.35969 0.87182 0.44088 0.0
C2388 C 0.36776 0.88603 0.44697 0.0
H2389 H 0.27401 0.84676 0.38684 0.0
H2390 H 0.29855 0.86097 0.4015 0.0
C2391 C 0.38163 0.89176 0.45641 0.0
C2392 C 0.34519 0.86574 0.42967 0.0
H2393 H 0.32296 0.847 0.36284 0.0
C2394 C 0.33569 0.86595 0.45372 0.0
C2395 C 0.34065 0.85918 0.39613 0.0
C2396 C 0.35057 0.85925 0.36868 0.0
C2397 C 0.32156 0.85911 0.44576 0.0
C2398 C 0.31697 0.85212 0.41273 0.0
C2399 C 0.32655 0.85234 0.3882 0.0
C2400 C 0.3022 0.84376 0.40393 0.0
C2401 C 0.31159 0.85889 0.47327 0.0
C2402 C 0.29629 0.82947 0.39985 0.0
C2403 C 0.28237 0.82138 0.39135 0.0
C2404 C 0.27415 0.82747 0.38664 0.0
C2405 C 0.28012 0.84181 0.39046 0.0
C2406 C 0.29408 0.84991 0.39898 0.0
H2407 H 0.31655 0.86264 0.49981 0.0
H2408 H 0.30758 0.86565 0.46419 0.0
H2409 H 0.30269 0.84831 0.47642 0.0
H2410 H 0.30245 0.82457 0.40347 0.0
H2411 H 0.27805 0.81035 0.38854 0.0
H2412 H 0.26956 0.12414 0.17355 0.0
H2413 H 0.29388 0.13054 0.16947 0.0
H2414 H 0.30585 0.17343 0.18025 0.0
H2415 H 0.28163 0.16713 0.18478 0.0
H2416 H 0.31386 0.14803 0.11963 0.0
H2417 H 0.32839 0.16786 0.25827 0.0
H2418 H 0.31068 0.15735 0.24424 0.0
H2419 H 0.32007 0.17542 0.23365 0.0
C2420 C 0.27739 0.13493 0.17509 0.0
C2421 C 0.27372 0.14514 0.17967 0.0
C2422 C 0.29125 0.13856 0.17276 0.0
C2423 C 0.30163 0.15243 0.17518 0.0
C2424 C 0.29798 0.16265 0.17911 0.0
H2425 H 0.39021 0.19859 0.16016 0.0
H2426 H 0.36559 0.19063 0.166 0.0
C2427 C 0.28415 0.15904 0.18146 0.0
C2428 C 0.3163 0.15627 0.17288 0.0
H2429 H 0.34678 0.1725 0.2184 0.0
C2430 C 0.32105 0.15328 0.14129 0.0
C2431 C 0.32562 0.16311 0.20126 0.0
C2432 C 0.32094 0.16603 0.23641 0.0
C2433 C 0.335 0.1573 0.1369 0.0
C2434 C 0.34434 0.1643 0.16509 0.0
C2435 C 0.33956 0.16716 0.19684 0.0
C2436 C 0.35919 0.16898 0.16194 0.0
C2437 C 0.33971 0.15438 0.1018 0.0
C2438 C 0.3637 0.15941 0.15828 0.0
C2439 C 0.37775 0.16392 0.15496 0.0
C2440 C 0.38748 0.17807 0.1554 0.0
C2441 C 0.38293 0.18762 0.15964 0.0
C2442 C 0.3689 0.1831 0.163 0.0
H2443 H 0.33194 0.15176 0.0803 0.0
H2444 H 0.34959 0.16339 0.09308 0.0
H2445 H 0.34142 0.14551 0.10523 0.0
H2446 H 0.35636 0.14846 0.15805 0.0
H2447 H 0.38096 0.15633 0.15188 0.0
H2448 H 0.79156 0.18677 0.15785 0.0
H2449 H 0.79917 0.16993 0.1662 0.0
H2450 H 0.84139 0.20196 0.15107 0.0
H2451 H 0.83389 0.21889 0.14307 0.0
H2452 H 0.81403 0.16324 0.11702 0.0
H2453 H 0.84261 0.18331 0.24465 0.0
H2454 H 0.83049 0.18818 0.22821 0.0
H2455 H 0.84757 0.19593 0.20974 0.0
C2456 C 0.80247 0.19024 0.15658 0.0
C2457 C 0.81214 0.20415 0.14995 0.0
C2458 C 0.80679 0.18061 0.16129 0.0
C2459 C 0.82084 0.18475 0.15969 0.0
C2460 C 0.83052 0.19862 0.15307 0.0
H2461 H 0.86789 0.14284 0.17432 0.0
H2462 H 0.86001 0.15946 0.16608 0.0
C2463 C 0.82621 0.20826 0.14834 0.0
C2464 C 0.82533 0.17445 0.16373 0.0
H2465 H 0.84504 0.16586 0.21529 0.0
C2466 C 0.82075 0.16374 0.13859 0.0
C2467 C 0.83412 0.17521 0.19186 0.0
C2468 C 0.83891 0.1862 0.22037 0.0
C2469 C 0.82495 0.15387 0.14046 0.0
C2470 C 0.83376 0.15464 0.16856 0.0
C2471 C 0.83831 0.16534 0.19374 0.0
C2472 C 0.83838 0.14445 0.1724 0.0
C2473 C 0.82017 0.1429 0.11192 0.0
C2474 C 0.82881 0.13052 0.17884 0.0
C2475 C 0.83328 0.121 0.18348 0.0
C2476 C 0.84739 0.12528 0.18199 0.0
C2477 C 0.85694 0.13923 0.17552 0.0
C2478 C 0.85247 0.14874 0.17086 0.0
H2479 H 0.81641 0.14576 0.0877 0.0
H2480 H 0.82862 0.14098 0.10398 0.0
H2481 H 0.81156 0.13314 0.12258 0.0
H2482 H 0.81791 0.12706 0.18079 0.0
H2483 H 0.82569 0.11033 0.18864 0.0
H2484 H 0.81091 0.60649 0.13977 0.0
H2485 H 0.828 0.6311 0.14371 0.0
H2486 H 0.79555 0.64106 0.13592 0.0
H2487 H 0.77841 0.61653 0.13239 0.0
H2488 H 0.83351 0.6529 0.09537 0.0
H2489 H 0.81611 0.66053 0.22827 0.0
H2490 H 0.81109 0.64367 0.21058 0.0
H2491 H 0.8027 0.65284 0.19527 0.0
C2492 C 0.80743 0.61394 0.13885 0.0
C2493 C 0.79334 0.60961 0.13605 0.0
C2494 C 0.81719 0.62796 0.14106 0.0
C2495 C 0.81299 0.63784 0.14067 0.0
C2496 C 0.79896 0.63356 0.13696 0.0
H2497 H 0.85388 0.72652 0.15993 0.0
H2498 H 0.83749 0.70204 0.1503 0.0
C2499 C 0.7892 0.61956 0.13478 0.0
C2500 C 0.82325 0.65263 0.14435 0.0
H2501 H 0.83259 0.68063 0.19782 0.0
C2502 C 0.83337 0.65898 0.11781 0.0
C2503 C 0.82301 0.66047 0.17371 0.0
C2504 C 0.81273 0.65403 0.20378 0.0
C2505 C 0.84312 0.67309 0.11948 0.0
C2506 C 0.84281 0.68094 0.14874 0.0
C2507 C 0.83273 0.67457 0.17534 0.0
C2508 C 0.85289 0.69579 0.15252 0.0
C2509 C 0.85347 0.67955 0.08959 0.0
C2510 C 0.86695 0.70033 0.15702 0.0
C2511 C 0.87633 0.7143 0.1625 0.0
C2512 C 0.87177 0.72392 0.16379 0.0
C2513 C 0.85769 0.71934 0.15901 0.0
C2514 C 0.84832 0.70538 0.15353 0.0
H2515 H 0.85021 0.67301 0.06517 0.0
H2516 H 0.85503 0.68987 0.0826 0.0
H2517 H 0.86352 0.68087 0.09843 0.0
H2518 H 0.87063 0.69304 0.15702 0.0
H2519 H 0.88712 0.71753 0.16627 0.0
H2520 H 0.1605 0.38349 0.35096 0.0
H2521 H 0.15395 0.35923 0.34414 0.0
H2522 H 0.19686 0.3707 0.34002 0.0
H2523 H 0.2035 0.39496 0.34726 0.0
H2524 H 0.16056 0.34674 0.28814 0.0
H2525 H 0.18108 0.34109 0.41847 0.0
H2526 H 0.17849 0.35541 0.40871 0.0
H2527 H 0.19331 0.35514 0.39136 0.0
C2528 C 0.16854 0.38084 0.34867 0.0
C2529 C 0.18251 0.39109 0.34981 0.0
C2530 C 0.16478 0.367 0.34477 0.0
C2531 C 0.17493 0.36319 0.34214 0.0
C2532 C 0.18888 0.37342 0.34274 0.0
H2533 H 0.17265 0.28521 0.31418 0.0
H2534 H 0.17953 0.30958 0.32093 0.0
C2535 C 0.19265 0.38727 0.34666 0.0
C2536 C 0.17089 0.34852 0.33812 0.0
H2537 H 0.1732 0.32234 0.37799 0.0
C2538 C 0.16326 0.34137 0.30782 0.0
C2539 C 0.17448 0.3416 0.36386 0.0
C2540 C 0.18219 0.34864 0.39761 0.0
C2541 C 0.15929 0.32749 0.30229 0.0
C2542 C 0.16286 0.32057 0.32805 0.0
C2543 C 0.17051 0.32772 0.3583 0.0
C2544 C 0.15866 0.30585 0.32421 0.0
C2545 C 0.15153 0.32042 0.26862 0.0
C2546 C 0.14466 0.29574 0.32439 0.0
C2547 C 0.14071 0.28184 0.32058 0.0
C2548 C 0.1507 0.27785 0.31668 0.0
C2549 C 0.16473 0.288 0.31704 0.0
C2550 C 0.16867 0.30189 0.3209 0.0
H2551 H 0.15257 0.32795 0.24777 0.0
H2552 H 0.15523 0.31366 0.25747 0.0
H2553 H 0.14042 0.31389 0.27502 0.0
H2554 H 0.1368 0.29859 0.32759 0.0
H2555 H 0.12983 0.27424 0.32057 0.0
H2556 H 0.61158 0.77774 0.34579 0.0
H2557 H 0.63596 0.7945 0.33593 0.0
H2558 H 0.62587 0.82662 0.32126 0.0
H2559 H 0.60148 0.80996 0.33146 0.0
H2560 H 0.64875 0.81174 0.27575 0.0
H2561 H 0.65565 0.84184 0.39991 0.0
H2562 H 0.64101 0.82486 0.39289 0.0
H2563 H 0.64166 0.83959 0.3718 0.0
C2564 C 0.61456 0.78838 0.34048 0.0
C2565 C 0.60465 0.79258 0.33961 0.0
C2566 C 0.62847 0.79791 0.33481 0.0
C2567 C 0.6327 0.8118 0.32838 0.0
C2568 C 0.62281 0.81598 0.32683 0.0
H2569 H 0.71202 0.88528 0.2974 0.0
H2570 H 0.68745 0.86833 0.30161 0.0
C2571 C 0.60889 0.80645 0.33249 0.0
C2572 C 0.64748 0.82191 0.32329 0.0
H2573 H 0.67436 0.85087 0.3593 0.0
C2574 C 0.65439 0.82028 0.29402 0.0
C2575 C 0.65475 0.83301 0.34724 0.0
C2576 C 0.64795 0.83492 0.37993 0.0
C2577 C 0.66838 0.82964 0.28771 0.0
C2578 C 0.67565 0.84074 0.31168 0.0
C2579 C 0.66873 0.84236 0.34093 0.0
C2580 C 0.69048 0.8508 0.30716 0.0
C2581 C 0.6752 0.82772 0.25511 0.0
C2582 C 0.70031 0.84654 0.30896 0.0
C2583 C 0.71435 0.8562 0.3065 0.0
C2584 C 0.71878 0.87028 0.30247 0.0
C2585 C 0.70891 0.8745 0.30045 0.0
C2586 C 0.69488 0.86484 0.30287 0.0
H2587 H 0.6675 0.821 0.23484 0.0
H2588 H 0.68237 0.83779 0.24252 0.0
H2589 H 0.68124 0.82278 0.26323 0.0
H2590 H 0.69713 0.83578 0.313 0.0
H2591 H 0.72174 0.85266 0.30833 0.0
H2592 H 0.18627 0.79465 0.34147 0.0
H2593 H 0.1693 0.80218 0.33435 0.0
H2594 H 0.20138 0.84447 0.34795 0.0
H2595 H 0.21843 0.83706 0.35467 0.0
H2596 H 0.16292 0.81719 0.38378 0.0
H2597 H 0.18211 0.84537 0.25529 0.0
H2598 H 0.18714 0.83334 0.27153 0.0
H2599 H 0.19495 0.85047 0.28968 0.0
C2600 C 0.18971 0.80556 0.34272 0.0
C2601 C 0.20367 0.81528 0.34846 0.0
C2602 C 0.18002 0.80983 0.3387 0.0
C2603 C 0.18414 0.82388 0.34015 0.0
C2604 C 0.19805 0.8336 0.34605 0.0
H2605 H 0.14093 0.86994 0.32732 0.0
H2606 H 0.15809 0.86266 0.33466 0.0
C2607 C 0.20775 0.82934 0.35006 0.0
C2608 C 0.17381 0.82834 0.33658 0.0
H2609 H 0.16475 0.84775 0.28528 0.0
C2610 C 0.16326 0.82382 0.36217 0.0
C2611 C 0.17435 0.83702 0.30841 0.0
C2612 C 0.18517 0.84176 0.27945 0.0
C2613 C 0.15333 0.82793 0.36065 0.0
C2614 C 0.15386 0.83659 0.33245 0.0
C2615 C 0.16442 0.84113 0.3069 0.0
C2616 C 0.14343 0.84092 0.32869 0.0
C2617 C 0.14251 0.82318 0.38959 0.0
C2618 C 0.12957 0.83109 0.32259 0.0
C2619 C 0.11977 0.8352 0.31843 0.0
C2620 C 0.12369 0.84923 0.32009 0.0
C2621 C 0.1376 0.85906 0.32602 0.0
C2622 C 0.14741 0.85493 0.33017 0.0
H2623 H 0.14559 0.81963 0.41381 0.0
H2624 H 0.14048 0.83158 0.3974 0.0
H2625 H 0.13274 0.81443 0.37939 0.0
H2626 H 0.12636 0.82025 0.32067 0.0
H2627 H 0.10913 0.82741 0.31368 0.0
H2628 H 0.72603 0.86941 0.83448 0.0
H2629 H 0.7015 0.86146 0.84273 0.0
H2630 H 0.69201 0.81936 0.82939 0.0
H2631 H 0.71653 0.82722 0.82152 0.0
H2632 H 0.68053 0.84633 0.79282 0.0
H2633 H 0.67113 0.81795 0.92117 0.0
H2634 H 0.68823 0.83016 0.90556 0.0
H2635 H 0.67916 0.81309 0.88695 0.0
C2636 C 0.71873 0.85845 0.83366 0.0
C2637 C 0.72318 0.84892 0.82744 0.0
C2638 C 0.70474 0.85394 0.83834 0.0
C2639 C 0.69499 0.83983 0.83707 0.0
C2640 C 0.69941 0.83028 0.83113 0.0
H2641 H 0.60539 0.79428 0.84709 0.0
H2642 H 0.62977 0.80107 0.84119 0.0
C2643 C 0.7134 0.83478 0.82646 0.0
C2644 C 0.68015 0.83519 0.84018 0.0
H2645 H 0.65152 0.81577 0.89099 0.0
C2646 C 0.67418 0.83969 0.81434 0.0
C2647 C 0.67192 0.82646 0.86817 0.0
C2648 C 0.67792 0.8217 0.89726 0.0
C2649 C 0.66015 0.8356 0.81558 0.0
C2650 C 0.65195 0.82698 0.84376 0.0
C2651 C 0.65787 0.82237 0.86943 0.0
C2652 C 0.63725 0.82288 0.84744 0.0
C2653 C 0.65417 0.84036 0.78644 0.0
C2654 C 0.63345 0.8329 0.85335 0.0
C2655 C 0.61959 0.82907 0.85667 0.0
C2656 C 0.60928 0.81514 0.85434 0.0
C2657 C 0.61312 0.8051 0.84886 0.0
C2658 C 0.62701 0.80894 0.84555 0.0
H2659 H 0.66082 0.8438 0.76224 0.0
H2660 H 0.64372 0.83202 0.77866 0.0
H2661 H 0.65327 0.84921 0.79641 0.0
H2662 H 0.64124 0.84368 0.85556 0.0
H2663 H 0.61695 0.83703 0.86111 0.0
H2664 H 0.20261 0.80978 0.83624 0.0
H2665 H 0.19419 0.82604 0.82938 0.0
H2666 H 0.1525 0.79305 0.84601 0.0
H2667 H 0.16085 0.77674 0.85329 0.0
H2668 H 0.17478 0.82542 0.77963 0.0
H2669 H 0.15719 0.82229 0.92019 0.0
H2670 H 0.16858 0.81607 0.90659 0.0
H2671 H 0.15043 0.80602 0.89758 0.0
C2672 C 0.19165 0.80599 0.83842 0.0
C2673 C 0.18239 0.79202 0.84549 0.0
C2674 C 0.18687 0.81528 0.83448 0.0
C2675 C 0.17276 0.81076 0.83774 0.0
C2676 C 0.16346 0.79677 0.8441 0.0
H2677 H 0.12581 0.85334 0.82652 0.0
H2678 H 0.133 0.83603 0.83134 0.0
C2679 C 0.16823 0.78747 0.84805 0.0
C2680 C 0.1678 0.8207 0.83419 0.0
H2681 H 0.15194 0.8353 0.87987 0.0
C2682 C 0.1698 0.82761 0.80153 0.0
C2683 C 0.16129 0.82347 0.86283 0.0
C2684 C 0.15932 0.81668 0.89891 0.0
C2685 C 0.16535 0.83718 0.7966 0.0
C2686 C 0.15895 0.84005 0.82535 0.0
C2687 C 0.15684 0.83304 0.85791 0.0
C2688 C 0.15463 0.8505 0.82239 0.0
C2689 C 0.16734 0.84399 0.76054 0.0
C2690 C 0.16445 0.86437 0.81635 0.0
C2691 C 0.16038 0.87425 0.81359 0.0
C2692 C 0.14643 0.87044 0.81706 0.0
C2693 C 0.13663 0.85657 0.82365 0.0
C2694 C 0.14071 0.84668 0.82641 0.0
H2695 H 0.16898 0.83809 0.73909 0.0
H2696 H 0.15831 0.84507 0.75336 0.0
H2697 H 0.17657 0.85444 0.76152 0.0
H2698 H 0.17527 0.86756 0.81392 0.0
H2699 H 0.16817 0.88488 0.80869 0.0
H2700 H 0.21674 0.37973 0.86748 0.0
H2701 H 0.19864 0.35554 0.86318 0.0
H2702 H 0.16764 0.36761 0.86598 0.0
H2703 H 0.18569 0.39187 0.86991 0.0
H2704 H 0.17598 0.33942 0.90968 0.0
H2705 H 0.15917 0.34465 0.77333 0.0
H2706 H 0.17529 0.35754 0.7926 0.0
H2707 H 0.15941 0.35643 0.80634 0.0
C2708 C 0.20606 0.37723 0.86732 0.0
C2709 C 0.20261 0.38767 0.86876 0.0
C2710 C 0.19576 0.36342 0.86492 0.0
C2711 C 0.18185 0.35984 0.86376 0.0
C2712 C 0.17834 0.37021 0.86623 0.0
H2713 H 0.10795 0.28028 0.82776 0.0
H2714 H 0.12392 0.3046 0.84121 0.0
C2715 C 0.18865 0.38403 0.86864 0.0
C2716 C 0.17107 0.34525 0.8593 0.0
H2717 H 0.14669 0.32289 0.80098 0.0
C2718 C 0.16954 0.33579 0.88599 0.0
C2719 C 0.16269 0.3406 0.82836 0.0
C2720 C 0.16424 0.35028 0.79832 0.0
C2721 C 0.15982 0.32173 0.88255 0.0
C2722 C 0.15162 0.31704 0.8513 0.0
C2723 C 0.15299 0.32655 0.82491 0.0
C2724 C 0.14191 0.30224 0.84478 0.0
C2725 C 0.15833 0.31205 0.9125 0.0
C2726 C 0.14679 0.29293 0.84206 0.0
C2727 C 0.13772 0.27906 0.83442 0.0
C2728 C 0.12363 0.27431 0.8291 0.0
C2729 C 0.11876 0.28366 0.8318 0.0
C2730 C 0.12785 0.29753 0.83947 0.0
H2731 H 0.16236 0.31763 0.93819 0.0
H2732 H 0.14738 0.30397 0.91627 0.0
H2733 H 0.16431 0.30689 0.9058 0.0
H2734 H 0.15766 0.29643 0.84526 0.0
H2735 H 0.14177 0.27211 0.83231 0.0
H2736 H 0.82407 0.7118 0.69994 0.0
H2737 H 0.81754 0.68747 0.69742 0.0
H2738 H 0.86037 0.69894 0.68912 0.0
H2739 H 0.86701 0.72332 0.69209 0.0
H2740 H 0.82322 0.67487 0.64087 0.0
H2741 H 0.84593 0.66946 0.7677 0.0
H2742 H 0.84328 0.68383 0.75905 0.0
H2743 H 0.85774 0.68341 0.73962 0.0
C2744 C 0.83211 0.70914 0.69799 0.0
C2745 C 0.84605 0.71945 0.69624 0.0
C2746 C 0.82836 0.69525 0.69654 0.0
C2747 C 0.83848 0.69142 0.69352 0.0
C2748 C 0.85242 0.70168 0.69218 0.0
H2749 H 0.83655 0.6141 0.65769 0.0
H2750 H 0.8432 0.63826 0.66766 0.0
C2751 C 0.85619 0.7156 0.69367 0.0
C2752 C 0.83436 0.67673 0.68945 0.0
H2753 H 0.83753 0.65067 0.72697 0.0
C2754 C 0.82626 0.66954 0.6598 0.0
C2755 C 0.83843 0.66987 0.71413 0.0
C2756 C 0.84672 0.67698 0.74711 0.0
C2757 C 0.82229 0.65569 0.65382 0.0
C2758 C 0.82634 0.64882 0.67851 0.0
C2759 C 0.83445 0.656 0.70815 0.0
C2760 C 0.82229 0.63417 0.67381 0.0
C2761 C 0.81405 0.64862 0.62071 0.0
C2762 C 0.80834 0.62391 0.67462 0.0
C2763 C 0.80451 0.61013 0.66887 0.0
C2764 C 0.81458 0.60641 0.66243 0.0
C2765 C 0.82856 0.61668 0.66247 0.0
C2766 C 0.83238 0.63046 0.6682 0.0
H2767 H 0.81468 0.65614 0.60037 0.0
H2768 H 0.81769 0.64198 0.60844 0.0
H2769 H 0.80306 0.64198 0.62815 0.0
H2770 H 0.80042 0.62656 0.67953 0.0
H2771 H 0.79367 0.60242 0.66923 0.0
H2772 H 0.2688 0.1424 0.67021 0.0
H2773 H 0.29294 0.16 0.66034 0.0
H2774 H 0.30473 0.12884 0.66694 0.0
H2775 H 0.28066 0.11119 0.6765 0.0
H2776 H 0.31551 0.16659 0.7064 0.0
H2777 H 0.32263 0.1492 0.57301 0.0
H2778 H 0.30582 0.14366 0.59194 0.0
H2779 H 0.3157 0.13593 0.60652 0.0
C2780 C 0.27654 0.1393 0.66936 0.0
C2781 C 0.27286 0.12543 0.674 0.0
C2782 C 0.29029 0.14935 0.66374 0.0
C2783 C 0.30055 0.14566 0.6624 0.0
C2784 C 0.29691 0.13184 0.66718 0.0
H2785 H 0.38916 0.18814 0.64504 0.0
H2786 H 0.36453 0.17135 0.64979 0.0
C2787 C 0.28318 0.12179 0.67285 0.0
C2788 C 0.31514 0.15634 0.65736 0.0
H2789 H 0.34287 0.16616 0.60247 0.0
C2790 C 0.32148 0.16659 0.68356 0.0
C2791 C 0.32286 0.15623 0.62755 0.0
C2792 C 0.3164 0.14575 0.59795 0.0
C2793 C 0.33549 0.17658 0.68124 0.0
C2794 C 0.34325 0.17641 0.65157 0.0
C2795 C 0.33687 0.16623 0.62518 0.0
C2796 C 0.35807 0.18659 0.64774 0.0
C2797 C 0.34197 0.18696 0.71107 0.0
C2798 C 0.36253 0.20068 0.64439 0.0
C2799 C 0.37657 0.21028 0.64177 0.0
C2800 C 0.38636 0.20593 0.6422 0.0
C2801 C 0.38185 0.19179 0.64474 0.0
C2802 C 0.3678 0.18219 0.64742 0.0
H2803 H 0.33554 0.18365 0.73569 0.0
H2804 H 0.35237 0.18868 0.71773 0.0
H2805 H 0.34309 0.19694 0.70237 0.0
H2806 H 0.35515 0.20424 0.64388 0.0
H2807 H 0.37976 0.22111 0.63961 0.0
H2808 H 0.88519 0.17117 0.69384 0.0
H2809 H 0.86801 0.17844 0.68735 0.0
H2810 H 0.83615 0.13608 0.67323 0.0
H2811 H 0.85323 0.12871 0.68006 0.0
H2812 H 0.8503 0.17391 0.62885 0.0
H2813 H 0.82099 0.14996 0.7535 0.0
H2814 H 0.838 0.15251 0.74544 0.0
H2815 H 0.82322 0.13843 0.72449 0.0
C2816 C 0.87452 0.16341 0.68942 0.0
C2817 C 0.87053 0.14937 0.6876 0.0
C2818 C 0.86473 0.16757 0.68573 0.0
C2819 C 0.8508 0.15777 0.68038 0.0
C2820 C 0.84681 0.14377 0.67807 0.0
H2821 H 0.77691 0.16293 0.64653 0.0
H2822 H 0.79374 0.15527 0.65481 0.0
C2823 C 0.85659 0.13959 0.68175 0.0
C2824 C 0.8405 0.16225 0.67638 0.0
H2825 H 0.81143 0.1595 0.71386 0.0
C2826 C 0.84183 0.17082 0.64749 0.0
C2827 C 0.82946 0.15814 0.70074 0.0
C2828 C 0.82785 0.14935 0.73299 0.0
C2829 C 0.83228 0.17526 0.64197 0.0
C2830 C 0.82127 0.17119 0.66639 0.0
C2831 C 0.81991 0.16258 0.69523 0.0
C2832 C 0.81108 0.17581 0.66246 0.0
C2833 C 0.8339 0.18403 0.60969 0.0
C2834 C 0.81525 0.18986 0.66477 0.0
C2835 C 0.80569 0.19426 0.66005 0.0
C2836 C 0.79179 0.18466 0.65314 0.0
C2837 C 0.78757 0.17056 0.65171 0.0
C2838 C 0.79715 0.16617 0.65644 0.0
H2839 H 0.8407 0.18336 0.58912 0.0
H2840 H 0.82374 0.18091 0.59731 0.0
H2841 H 0.83858 0.19496 0.61811 0.0
H2842 H 0.82592 0.19742 0.67009 0.0
H2843 H 0.80922 0.20518 0.6615 0.0
H2844 H 0.05772 0.53703 0.50111 0.0
H2845 H 0.03309 0.52891 0.5079 0.0
H2846 H 0.0236 0.48773 0.47987 0.0
H2847 H 0.04819 0.49572 0.47349 0.0
H2848 H 0.01256 0.51636 0.45546 0.0
H2849 H 0.00184 0.48196 0.57263 0.0
H2850 H 0.01909 0.49476 0.5596 0.0
H2851 H 0.01014 0.47867 0.53592 0.0
C2852 C 0.05038 0.52622 0.49668 0.0
C2853 C 0.05486 0.51698 0.48692 0.0
C2854 C 0.03634 0.52162 0.50051 0.0
C2855 C 0.02656 0.5077 0.49484 0.0
C2856 C 0.031 0.49846 0.48506 0.0
H2857 H 0.93712 0.46074 0.49854 0.0
H2858 H 0.96167 0.46851 0.49106 0.0
C2859 C 0.04504 0.50305 0.48126 0.0
C2860 C 0.01168 0.50295 0.4979 0.0
H2861 H 0.98248 0.48089 0.54363 0.0
C2862 C 0.00598 0.50865 0.47483 0.0
C2863 C 0.00316 0.49286 0.52312 0.0
C2864 C 0.00886 0.48677 0.54947 0.0
C2865 C 0.99189 0.50439 0.47595 0.0
C2866 C 0.98337 0.49432 0.50122 0.0
C2867 C 0.98906 0.48858 0.52423 0.0
C2868 C 0.96855 0.48975 0.50467 0.0
C2869 C 0.98619 0.5105 0.44969 0.0
C2870 C 0.96434 0.49912 0.51499 0.0
C2871 C 0.95036 0.49473 0.51923 0.0
C2872 C 0.94037 0.48086 0.51342 0.0
C2873 C 0.9446 0.47149 0.50308 0.0
C2874 C 0.9586 0.4759 0.49886 0.0
H2875 H 0.99318 0.51528 0.42646 0.0
H2876 H 0.97592 0.50254 0.43968 0.0
H2877 H 0.98498 0.51864 0.46329 0.0
H2878 H 0.97189 0.5098 0.52026 0.0
H2879 H 0.94741 0.50216 0.52742 0.0
H2880 H 0.50319 0.55223 0.4708 0.0
H2881 H 0.51034 0.53494 0.4764 0.0
H2882 H 0.46781 0.50295 0.48594 0.0
H2883 H 0.46057 0.5202 0.48069 0.0
H2884 H 0.48547 0.50188 0.53816 0.0
H2885 H 0.50635 0.50637 0.40094 0.0
H2886 H 0.51312 0.52243 0.4246 0.0
H2887 H 0.49516 0.51303 0.4129 0.0
C2888 C 0.49537 0.54151 0.47395 0.0
C2889 C 0.48133 0.53755 0.47522 0.0
C2890 C 0.49946 0.53164 0.47692 0.0
C2891 C 0.48958 0.51767 0.48103 0.0
C2892 C 0.47557 0.51369 0.48255 0.0
H2893 H 0.49515 0.44367 0.51576 0.0
H2894 H 0.48692 0.45996 0.50599 0.0
C2895 C 0.47146 0.52354 0.47954 0.0
C2896 C 0.4939 0.50724 0.48499 0.0
H2897 H 0.51085 0.49307 0.44257 0.0
C2898 C 0.49093 0.49987 0.5172 0.0
C2899 C 0.50104 0.50469 0.45757 0.0
C2900 C 0.50402 0.51195 0.42191 0.0
C2901 C 0.49522 0.49022 0.52311 0.0
C2902 C 0.50243 0.48773 0.49577 0.0
C2903 C 0.50532 0.49503 0.46344 0.0
C2904 C 0.50731 0.47776 0.50048 0.0
C2905 C 0.49232 0.48305 0.5589 0.0
C2906 C 0.52147 0.48233 0.49955 0.0
C2907 C 0.52619 0.47305 0.50488 0.0
C2908 C 0.51681 0.45903 0.51109 0.0
C2909 C 0.50261 0.45443 0.51125 0.0
C2910 C 0.4979 0.46372 0.50587 0.0
H2911 H 0.48971 0.48849 0.57965 0.0
H2912 H 0.48343 0.47244 0.55621 0.0
H2913 H 0.50134 0.4823 0.56823 0.0
H2914 H 0.52888 0.49312 0.49524 0.0
H2915 H 0.53719 0.47688 0.50452 0.0
H2916 H 0.55295 0.04852 0.52451 0.0
H2917 H 0.53559 0.02408 0.51972 0.0
H2918 H 0.50329 0.03434 0.52403 0.0
H2919 H 0.52058 0.05884 0.5284 0.0
H2920 H 0.5134 0.00705 0.56589 0.0
H2921 H 0.49541 0.01192 0.43091 0.0
H2922 H 0.51132 0.02521 0.4502 0.0
H2923 H 0.49513 0.02335 0.4642 0.0
C2924 C 0.54214 0.04557 0.52457 0.0
C2925 C 0.5381 0.05557 0.52654 0.0
C2926 C 0.53226 0.03161 0.52187 0.0
C2927 C 0.5182 0.02747 0.52095 0.0
C2928 C 0.51412 0.03739 0.52402 0.0
H2929 H 0.44377 0.94868 0.4932 0.0
H2930 H 0.46079 0.97296 0.50304 0.0
C2931 C 0.52399 0.05135 0.52669 0.0
C2932 C 0.50784 0.01275 0.51625 0.0
H2933 H 0.48298 0.9902 0.45924 0.0
C2934 C 0.50675 0.00333 0.54257 0.0
C2935 C 0.49923 0.00799 0.48574 0.0
C2936 C 0.50037 0.0176 0.45595 0.0
C2937 C 0.49709 0.98924 0.53946 0.0
C2938 C 0.48851 0.98449 0.50891 0.0
C2939 C 0.48959 0.99392 0.48263 0.0
C2940 C 0.47829 0.96975 0.50361 0.0
C2941 C 0.49598 0.97962 0.56917 0.0
C2942 C 0.48255 0.95996 0.50025 0.0
C2943 C 0.47286 0.94609 0.49466 0.0
C2944 C 0.45877 0.94182 0.49209 0.0
C2945 C 0.45456 0.95167 0.49511 0.0
C2946 C 0.46425 0.96553 0.50074 0.0
H2947 H 0.5007 0.98528 0.59439 0.0
H2948 H 0.48504 0.97182 0.57445 0.0
H2949 H 0.50148 0.9741 0.56114 0.0
H2950 H 0.49338 0.96308 0.50163 0.0
H2951 H 0.4764 0.93872 0.49226 0.0
H2952 H 0.49619 0.04916 0.01325 0.0
H2953 H 0.48894 0.02468 0.0087 0.0
H2954 H 0.53134 0.03504 0.99646 0.0
H2955 H 0.5387 0.05956 0.00143 0.0
H2956 H 0.49341 0.01051 0.95279 0.0
H2957 H 0.51748 0.00743 0.07991 0.0
H2958 H 0.51498 0.02176 0.06934 0.0
H2959 H 0.52898 0.0206 0.04951 0.0
C2960 C 0.50396 0.04623 0.00955 0.0
C2961 C 0.51801 0.05625 0.00788 0.0
C2962 C 0.49981 0.03225 0.00696 0.0
C2963 C 0.50963 0.02807 0.00283 0.0
C2964 C 0.52364 0.03806 0.00037 0.0
H2965 H 0.50377 0.94815 0.9837 0.0
H2966 H 0.5116 0.97281 0.98739 0.0
C2967 C 0.52781 0.05205 0.00299 0.0
C2968 C 0.50515 0.01324 0.00077 0.0
H2969 H 0.50765 0.98757 0.04304 0.0
C2970 C 0.49648 0.00547 0.97254 0.0
C2971 C 0.50921 0.00674 0.02661 0.0
C2972 C 0.51808 0.01451 0.05826 0.0
C2973 C 0.49189 0.99136 0.96918 0.0
C2974 C 0.4959 0.98485 0.9951 0.0
C2975 C 0.50461 0.99263 0.02324 0.0
C2976 C 0.49112 0.96995 0.99352 0.0
C2977 C 0.483 0.98359 0.93757 0.0
C2978 C 0.47705 0.96021 0.99642 0.0
C2979 C 0.47255 0.94614 0.99432 0.0
C2980 C 0.48207 0.9416 0.98949 0.0
C2981 C 0.49619 0.95136 0.98735 0.0
C2982 C 0.50068 0.96543 0.98945 0.0
H2983 H 0.48374 0.99066 0.91573 0.0
H2984 H 0.48595 0.97619 0.92677 0.0
H2985 H 0.47207 0.97767 0.94626 0.0
H2986 H 0.46954 0.96351 0.00029 0.0
H2987 H 0.46161 0.93885 0.99623 0.0
H2988 H 0.94821 0.44464 0.02944 0.0
H2989 H 0.97263 0.46187 0.02302 0.0
H2990 H 0.96199 0.49362 0.00845 0.0
H2991 H 0.93755 0.47648 0.01524 0.0
H2992 H 0.98564 0.47931 0.96424 0.0
H2993 H 0.9912 0.50908 0.08815 0.0
H2994 H 0.97673 0.49205 0.08049 0.0
H2995 H 0.97738 0.50676 0.05926 0.0
C2996 C 0.95108 0.45531 0.02501 0.0
C2997 C 0.94099 0.45925 0.02298 0.0
C2998 C 0.96501 0.46511 0.02133 0.0
C2999 C 0.96909 0.47901 0.01578 0.0
C3000 C 0.95905 0.48297 0.01342 0.0
H3001 H 0.0473 0.55325 0.98104 0.0
H3002 H 0.02297 0.53597 0.98887 0.0
C3003 C 0.9451 0.47317 0.0171 0.0
C3004 C 0.98385 0.48931 0.0115 0.0
H3005 H 0.01016 0.51858 0.04806 0.0
C3006 C 0.99104 0.48787 0.98263 0.0
C3007 C 0.99081 0.50044 0.03556 0.0
C3008 C 0.9837 0.50216 0.06781 0.0
C3009 C 0.005 0.49744 0.97677 0.0
C3010 C 0.01195 0.50858 0.00081 0.0
C3011 C 0.00477 0.51001 0.02971 0.0
C3012 C 0.02668 0.51894 0.99629 0.0
C3013 C 0.0121 0.49573 0.94449 0.0
C3014 C 0.0368 0.51508 0.99837 0.0
C3015 C 0.0507 0.52491 0.99387 0.0
C3016 C 0.05468 0.53877 0.98744 0.0
C3017 C 0.04453 0.54263 0.98588 0.0
C3018 C 0.03064 0.5328 0.99037 0.0
H3019 H 0.00459 0.48874 0.92424 0.0
H3020 H 0.019 0.50584 0.93169 0.0
H3021 H 0.01849 0.49121 0.95303 0.0
H3022 H 0.03394 0.50447 0.00361 0.0
H3023 H 0.0583 0.52166 0.99539 0.0
H3024 H 0.55234 0.50154 0.02242 0.0
H3025 H 0.53509 0.50875 0.01608 0.0
H3026 H 0.50335 0.46639 0.00139 0.0
H3027 H 0.52048 0.45908 0.008 0.0
H3028 H 0.51688 0.50412 0.95788 0.0
H3029 H 0.48869 0.48004 0.08379 0.0
H3030 H 0.50573 0.48284 0.0747 0.0
H3031 H 0.49091 0.46863 0.05431 0.0
C3032 C 0.54169 0.49377 0.0178 0.0
C3033 C 0.53773 0.47974 0.01589 0.0
C3034 C 0.53187 0.4979 0.01419 0.0
C3035 C 0.51795 0.48807 0.00886 0.0
C3036 C 0.51401 0.47409 0.0062 0.0
H3037 H 0.44312 0.49191 0.98156 0.0
H3038 H 0.46037 0.48471 0.98801 0.0
C3039 C 0.52382 0.46995 0.00977 0.0
C3040 C 0.50754 0.49245 0.00572 0.0
H3041 H 0.47865 0.48937 0.04514 0.0
C3042 C 0.50855 0.50096 0.977 0.0
C3043 C 0.4967 0.48826 0.03073 0.0
C3044 C 0.49545 0.47953 0.06282 0.0
C3045 C 0.49882 0.50522 0.97225 0.0
C3046 C 0.48798 0.50104 0.99729 0.0
C3047 C 0.48698 0.49253 0.02601 0.0
C3048 C 0.47757 0.50542 0.99416 0.0
C3049 C 0.50005 0.5139 0.94006 0.0
C3050 C 0.48153 0.51942 0.99621 0.0
C3051 C 0.47173 0.52356 0.99252 0.0
C3052 C 0.45778 0.51374 0.98696 0.0
C3053 C 0.4538 0.4997 0.98575 0.0
C3054 C 0.46362 0.49557 0.98942 0.0
H3055 H 0.5067 0.51325 0.91898 0.0
H3056 H 0.48976 0.51067 0.92838 0.0
H3057 H 0.50473 0.52484 0.94839 0.0
H3058 H 0.49222 0.52715 0.00061 0.0
H3059 H 0.47509 0.53445 0.99377 0.0
loop_
_geom_bond_atom_site_label_1
_geom_bond_atom_site_label_2
_geom_bond_distance
_geom_bond_site_symmetry_2
_ccdc_geom_bond_type
In0 O1 2.294 . S
In0 O2 2.326 . S
In0 O6 2.266 . S
In0 O7 2.326 . S
In0 O8 2.266 . S
In0 O9 2.326 . S
In0 O11 2.294 . S
In0 O12 2.326 . S
O1 In0 2.294 . S
O1 C10 1.240 . S
O2 In0 2.326 . S
O2 C10 1.252 . S
C3 O6 1.252 . S
C3 O7 1.260 . S
C4 O11 1.240 . S
C4 O12 1.252 . S
C5 O8 1.252 . S
C5 O9 1.260 . S
O6 In0 2.266 . S
O6 C3 1.252 . S
O7 In0 2.326 . S
O7 C3 1.260 . S
O8 In0 2.266 . S
O8 C5 1.252 . S
O9 In0 2.326 . S
O9 C5 1.260 . S
C10 O1 1.240 . S
C10 O2 1.252 . S
O11 In0 2.294 . S
O11 C4 1.240 . S
O12 In0 2.326 . S
O12 C4 1.252 . S
In13 O14 2.294 . S
In13 O15 2.326 . S
In13 O19 2.266 . S
In13 O20 2.326 . S
In13 O21 2.266 . S
In13 O22 2.326 . S
In13 O24 2.294 . S
In13 O25 2.326 . S
O14 In13 2.294 . S
O14 C23 1.240 . S
O15 In13 2.326 . S
O15 C23 1.252 . S
C16 O19 1.252 . S
C16 O20 1.260 . S
C17 O24 1.240 . S
C17 O25 1.252 . S
C18 O21 1.252 . S
C18 O22 1.260 . S
O19 In13 2.266 . S
O19 C16 1.252 . S
O20 In13 2.326 . S
O20 C16 1.260 . S
O21 In13 2.266 . S
O21 C18 1.252 . S
O22 In13 2.326 . S
O22 C18 1.260 . S
C23 O14 1.240 . S
C23 O15 1.252 . S
O24 In13 2.294 . S
O24 C17 1.240 . S
O25 In13 2.326 . S
O25 C17 1.252 . S
In26 O27 2.294 . S
In26 O28 2.326 . S
In26 O32 2.266 . S
In26 O33 2.326 . S
In26 O34 2.266 . S
In26 O35 2.326 . S
In26 O37 2.294 . S
In26 O38 2.326 . S
O27 In26 2.294 . S
O27 C36 1.240 . S
O28 In26 2.326 . S
O28 C36 1.252 . S
C29 O32 1.252 . S
C29 O33 1.260 . S
C30 O37 1.240 . S
C30 O38 1.252 . S
C31 O34 1.252 . S
C31 O35 1.260 . S
O32 In26 2.266 . S
O32 C29 1.252 . S
O33 In26 2.326 . S
O33 C29 1.260 . S
O34 In26 2.266 . S
O34 C31 1.252 . S
O35 In26 2.326 . S
O35 C31 1.260 . S
C36 O27 1.240 . S
C36 O28 1.252 . S
O37 In26 2.294 . S
O37 C30 1.240 . S
O38 In26 2.326 . S
O38 C30 1.252 . S
In39 O40 2.294 . S
In39 O41 2.326 . S
In39 O45 2.266 . S
In39 O46 2.326 . S
In39 O47 2.266 . S
In39 O48 2.326 . S
In39 O50 2.294 . S
In39 O51 2.326 . S
O40 In39 2.294 . S
O40 C49 1.240 . S
O41 In39 2.326 . S
O41 C49 1.252 . S
C42 O45 1.252 . S
C42 O46 1.260 . S
C43 O50 1.240 . S
C43 O51 1.252 . S
C44 O47 1.252 . S
C44 O48 1.260 . S
O45 In39 2.266 . S
O45 C42 1.252 . S
O46 In39 2.326 . S
O46 C42 1.260 . S
O47 In39 2.266 . S
O47 C44 1.252 . S
O48 In39 2.326 . S
O48 C44 1.260 . S
C49 O40 1.240 . S
C49 O41 1.252 . S
O50 In39 2.294 . S
O50 C43 1.240 . S
O51 In39 2.326 . S
O51 C43 1.252 . S
In52 O53 2.294 . S
In52 O54 2.326 . S
In52 O58 2.266 . S
In52 O59 2.326 . S
In52 O60 2.266 . S
In52 O61 2.326 . S
In52 O63 2.294 . S
In52 O64 2.326 . S
O53 In52 2.294 . S
O53 C62 1.240 . S
O54 In52 2.326 . S
O54 C62 1.252 . S
C55 O58 1.252 . S
C55 O59 1.260 . S
C56 O63 1.240 . S
C56 O64 1.252 . S
C57 O60 1.252 . S
C57 O61 1.260 . S
O58 In52 2.266 . S
O58 C55 1.252 . S
O59 In52 2.326 . S
O59 C55 1.260 . S
O60 In52 2.266 . S
O60 C57 1.252 . S
O61 In52 2.326 . S
O61 C57 1.260 . S
C62 O53 1.240 . S
C62 O54 1.252 . S
O63 In52 2.294 . S
O63 C56 1.240 . S
O64 In52 2.326 . S
O64 C56 1.252 . S
In65 O66 2.294 . S
In65 O67 2.326 . S
In65 O71 2.266 . S
In65 O72 2.326 . S
In65 O73 2.266 . S
In65 O74 2.326 . S
In65 O76 2.294 . S
In65 O77 2.326 . S
O66 In65 2.294 . S
O66 C75 1.240 . S
O67 In65 2.326 . S
O67 C75 1.252 . S
C68 O71 1.252 . S
C68 O72 1.260 . S
C69 O76 1.240 . S
C69 O77 1.252 . S
C70 O73 1.252 . S
C70 O74 1.260 . S
O71 In65 2.266 . S
O71 C68 1.252 . S
O72 In65 2.326 . S
O72 C68 1.260 . S
O73 In65 2.266 . S
O73 C70 1.252 . S
O74 In65 2.326 . S
O74 C70 1.260 . S
C75 O66 1.240 . S
C75 O67 1.252 . S
O76 In65 2.294 . S
O76 C69 1.240 . S
O77 In65 2.326 . S
O77 C69 1.252 . S
In78 O79 2.294 . S
In78 O80 2.326 . S
In78 O84 2.266 . S
In78 O85 2.326 . S
In78 O86 2.266 . S
In78 O87 2.326 . S
In78 O89 2.294 . S
In78 O90 2.326 . S
O79 In78 2.294 . S
O79 C88 1.240 . S
O80 In78 2.326 . S
O80 C88 1.252 . S
C81 O84 1.252 . S
C81 O85 1.260 . S
C82 O89 1.240 . S
C82 O90 1.252 . S
C83 O86 1.252 . S
C83 O87 1.260 . S
O84 In78 2.266 . S
O84 C81 1.252 . S
O85 In78 2.326 . S
O85 C81 1.260 . S
O86 In78 2.266 . S
O86 C83 1.252 . S
O87 In78 2.326 . S
O87 C83 1.260 . S
C88 O79 1.240 . S
C88 O80 1.252 . S
O89 In78 2.294 . S
O89 C82 1.240 . S
O90 In78 2.326 . S
O90 C82 1.252 . S
In91 O92 2.294 . S
In91 O93 2.326 . S
In91 O97 2.266 . S
In91 O98 2.326 . S
In91 O99 2.266 . S
In91 O100 2.326 . S
In91 O102 2.294 . S
In91 O103 2.326 . S
O92 In91 2.294 . S
O92 C101 1.240 . S
O93 In91 2.326 . S
O93 C101 1.252 . S
C94 O97 1.252 . S
C94 O98 1.260 . S
C95 O102 1.240 . S
C95 O103 1.252 . S
C96 O99 1.252 . S
C96 O100 1.260 . S
O97 In91 2.266 . S
O97 C94 1.252 . S
O98 In91 2.326 . S
O98 C94 1.260 . S
O99 In91 2.266 . S
O99 C96 1.252 . S
O100 In91 2.326 . S
O100 C96 1.260 . S
C101 O92 1.240 . S
C101 O93 1.252 . S
O102 In91 2.294 . S
O102 C95 1.240 . S
O103 In91 2.326 . S
O103 C95 1.252 . S
In104 O105 2.294 . S
In104 O106 2.326 . S
In104 O110 2.266 . S
In104 O111 2.326 . S
In104 O112 2.266 . S
In104 O113 2.326 . S
In104 O115 2.294 . S
In104 O116 2.326 . S
O105 In104 2.294 . S
O105 C114 1.240 . S
O106 In104 2.326 . S
O106 C114 1.252 . S
C107 O110 1.252 . S
C107 O111 1.260 . S
C108 O115 1.240 . S
C108 O116 1.252 . S
C109 O112 1.252 . S
C109 O113 1.260 . S
O110 In104 2.266 . S
O110 C107 1.252 . S
O111 In104 2.326 . S
O111 C107 1.260 . S
O112 In104 2.266 . S
O112 C109 1.252 . S
O113 In104 2.326 . S
O113 C109 1.260 . S
C114 O105 1.240 . S
C114 O106 1.252 . S
O115 In104 2.294 . S
O115 C108 1.240 . S
O116 In104 2.326 . S
O116 C108 1.252 . S
In117 O118 2.294 . S
In117 O119 2.326 . S
In117 O123 2.266 . S
In117 O124 2.326 . S
In117 O125 2.266 . S
In117 O126 2.326 . S
In117 O128 2.294 . S
In117 O129 2.326 . S
O118 In117 2.294 . S
O118 C127 1.240 . S
O119 In117 2.326 . S
O119 C127 1.252 . S
C120 O123 1.252 . S
C120 O124 1.260 . S
C121 O128 1.240 . S
C121 O129 1.252 . S
C122 O125 1.252 . S
C122 O126 1.260 . S
O123 In117 2.266 . S
O123 C120 1.252 . S
O124 In117 2.326 . S
O124 C120 1.260 . S
O125 In117 2.266 . S
O125 C122 1.252 . S
O126 In117 2.326 . S
O126 C122 1.260 . S
C127 O118 1.240 . S
C127 O119 1.252 . S
O128 In117 2.294 . S
O128 C121 1.240 . S
O129 In117 2.326 . S
O129 C121 1.252 . S
In130 O131 2.294 . S
In130 O132 2.326 . S
In130 O136 2.266 . S
In130 O137 2.326 . S
In130 O138 2.266 . S
In130 O139 2.326 . S
In130 O141 2.294 . S
In130 O142 2.326 . S
O131 In130 2.294 . S
O131 C140 1.240 . S
O132 In130 2.326 . S
O132 C140 1.252 . S
C133 O136 1.252 . S
C133 O137 1.260 . S
C134 O141 1.240 . S
C134 O142 1.252 . S
C135 O138 1.252 . S
C135 O139 1.260 . S
O136 In130 2.266 . S
O136 C133 1.252 . S
O137 In130 2.326 . S
O137 C133 1.260 . S
O138 In130 2.266 . S
O138 C135 1.252 . S
O139 In130 2.326 . S
O139 C135 1.260 . S
C140 O131 1.240 . S
C140 O132 1.252 . S
O141 In130 2.294 . S
O141 C134 1.240 . S
O142 In130 2.326 . S
O142 C134 1.252 . S
In143 O144 2.294 . S
In143 O145 2.326 . S
In143 O149 2.266 . S
In143 O150 2.326 . S
In143 O151 2.266 . S
In143 O152 2.326 . S
In143 O154 2.294 . S
In143 O155 2.326 . S
O144 In143 2.294 . S
O144 C153 1.240 . S
O145 In143 2.326 . S
O145 C153 1.252 . S
C146 O149 1.252 . S
C146 O150 1.260 . S
C147 O154 1.240 . S
C147 O155 1.252 . S
C148 O151 1.252 . S
C148 O152 1.260 . S
O149 In143 2.266 . S
O149 C146 1.252 . S
O150 In143 2.326 . S
O150 C146 1.260 . S
O151 In143 2.266 . S
O151 C148 1.252 . S
O152 In143 2.326 . S
O152 C148 1.260 . S
C153 O144 1.240 . S
C153 O145 1.252 . S
O154 In143 2.294 . S
O154 C147 1.240 . S
O155 In143 2.326 . S
O155 C147 1.252 . S
In156 O157 2.294 . S
In156 O158 2.326 . S
In156 O162 2.266 . S
In156 O163 2.326 . S
In156 O164 2.266 . S
In156 O165 2.326 . S
In156 O167 2.294 . S
In156 O168 2.326 . S
O157 In156 2.294 . S
O157 C166 1.240 . S
O158 In156 2.326 . S
O158 C166 1.252 . S
C159 O162 1.252 . S
C159 O163 1.260 . S
C160 O167 1.240 . S
C160 O168 1.252 . S
C161 O164 1.252 . S
C161 O165 1.260 . S
O162 In156 2.266 . S
O162 C159 1.252 . S
O163 In156 2.326 . S
O163 C159 1.260 . S
O164 In156 2.266 . S
O164 C161 1.252 . S
O165 In156 2.326 . S
O165 C161 1.260 . S
C166 O157 1.240 . S
C166 O158 1.252 . S
O167 In156 2.294 . S
O167 C160 1.240 . S
O168 In156 2.326 . S
O168 C160 1.252 . S
In169 O170 2.294 . S
In169 O171 2.326 . S
In169 O175 2.266 . S
In169 O176 2.326 . S
In169 O177 2.266 . S
In169 O178 2.326 . S
In169 O180 2.294 . S
In169 O181 2.326 . S
O170 In169 2.294 . S
O170 C179 1.240 . S
O171 In169 2.326 . S
O171 C179 1.252 . S
C172 O175 1.252 . S
C172 O176 1.260 . S
C173 O180 1.240 . S
C173 O181 1.252 . S
C174 O177 1.252 . S
C174 O178 1.260 . S
O175 In169 2.266 . S
O175 C172 1.252 . S
O176 In169 2.326 . S
O176 C172 1.260 . S
O177 In169 2.266 . S
O177 C174 1.252 . S
O178 In169 2.326 . S
O178 C174 1.260 . S
C179 O170 1.240 . S
C179 O171 1.252 . S
O180 In169 2.294 . S
O180 C173 1.240 . S
O181 In169 2.326 . S
O181 C173 1.252 . S
In182 O183 2.294 . S
In182 O184 2.326 . S
In182 O188 2.266 . S
In182 O189 2.326 . S
In182 O190 2.266 . S
In182 O191 2.326 . S
In182 O193 2.294 . S
In182 O194 2.326 . S
O183 In182 2.294 . S
O183 C192 1.240 . S
O184 In182 2.326 . S
O184 C192 1.252 . S
C185 O188 1.252 . S
C185 O189 1.260 . S
C186 O193 1.240 . S
C186 O194 1.252 . S
C187 O190 1.252 . S
C187 O191 1.260 . S
O188 In182 2.266 . S
O188 C185 1.252 . S
O189 In182 2.326 . S
O189 C185 1.260 . S
O190 In182 2.266 . S
O190 C187 1.252 . S
O191 In182 2.326 . S
O191 C187 1.260 . S
C192 O183 1.240 . S
C192 O184 1.252 . S
O193 In182 2.294 . S
O193 C186 1.240 . S
O194 In182 2.326 . S
O194 C186 1.252 . S
In195 O196 2.294 . S
In195 O197 2.326 . S
In195 O201 2.266 . S
In195 O202 2.326 . S
In195 O203 2.266 . S
In195 O204 2.326 . S
In195 O206 2.294 . S
In195 O207 2.326 . S
O196 In195 2.294 . S
O196 C205 1.240 . S
O197 In195 2.326 . S
O197 C205 1.252 . S
C198 O201 1.252 . S
C198 O202 1.260 . S
C199 O206 1.240 . S
C199 O207 1.252 . S
C200 O203 1.252 . S
C200 O204 1.260 . S
O201 In195 2.266 . S
O201 C198 1.252 . S
O202 In195 2.326 . S
O202 C198 1.260 . S
O203 In195 2.266 . S
O203 C200 1.252 . S
O204 In195 2.326 . S
O204 C200 1.260 . S
C205 O196 1.240 . S
C205 O197 1.252 . S
O206 In195 2.294 . S
O206 C199 1.240 . S
O207 In195 2.326 . S
O207 C199 1.252 . S
In208 O209 2.294 . S
In208 O210 2.326 . S
In208 O214 2.266 . S
In208 O215 2.326 . S
In208 O216 2.266 . S
In208 O217 2.326 . S
In208 O219 2.294 . S
In208 O220 2.326 . S
O209 In208 2.294 . S
O209 C218 1.240 . S
O210 In208 2.326 . S
O210 C218 1.252 . S
C211 O214 1.252 . S
C211 O215 1.260 . S
C212 O219 1.240 . S
C212 O220 1.252 . S
C213 O216 1.252 . S
C213 O217 1.260 . S
O214 In208 2.266 . S
O214 C211 1.252 . S
O215 In208 2.326 . S
O215 C211 1.260 . S
O216 In208 2.266 . S
O216 C213 1.252 . S
O217 In208 2.326 . S
O217 C213 1.260 . S
C218 O209 1.240 . S
C218 O210 1.252 . S
O219 In208 2.294 . S
O219 C212 1.240 . S
O220 In208 2.326 . S
O220 C212 1.252 . S
In221 O222 2.294 . S
In221 O223 2.326 . S
In221 O227 2.266 . S
In221 O228 2.326 . S
In221 O229 2.266 . S
In221 O230 2.326 . S
In221 O232 2.294 . S
In221 O233 2.326 . S
O222 In221 2.294 . S
O222 C231 1.240 . S
O223 In221 2.326 . S
O223 C231 1.252 . S
C224 O227 1.252 . S
C224 O228 1.260 . S
C225 O232 1.240 . S
C225 O233 1.252 . S
C226 O229 1.252 . S
C226 O230 1.260 . S
O227 In221 2.266 . S
O227 C224 1.252 . S
O228 In221 2.326 . S
O228 C224 1.260 . S
O229 In221 2.266 . S
O229 C226 1.252 . S
O230 In221 2.326 . S
O230 C226 1.260 . S
C231 O222 1.240 . S
C231 O223 1.252 . S
O232 In221 2.294 . S
O232 C225 1.240 . S
O233 In221 2.326 . S
O233 C225 1.252 . S
In234 O235 2.294 . S
In234 O236 2.326 . S
In234 O240 2.266 . S
In234 O241 2.326 . S
In234 O242 2.266 . S
In234 O243 2.326 . S
In234 O245 2.294 . S
In234 O246 2.326 . S
O235 In234 2.294 . S
O235 C244 1.240 . S
O236 In234 2.326 . S
O236 C244 1.252 . S
C237 O240 1.252 . S
C237 O241 1.260 . S
C238 O245 1.240 . S
C238 O246 1.252 . S
C239 O242 1.252 . S
C239 O243 1.260 . S
O240 In234 2.266 . S
O240 C237 1.252 . S
O241 In234 2.326 . S
O241 C237 1.260 . S
O242 In234 2.266 . S
O242 C239 1.252 . S
O243 In234 2.326 . S
O243 C239 1.260 . S
C244 O235 1.240 . S
C244 O236 1.252 . S
O245 In234 2.294 . S
O245 C238 1.240 . S
O246 In234 2.326 . S
O246 C238 1.252 . S
In247 O248 2.294 . S
In247 O249 2.326 . S
In247 O253 2.266 . S
In247 O254 2.326 . S
In247 O255 2.266 . S
In247 O256 2.326 . S
In247 O258 2.294 . S
In247 O259 2.326 . S
O248 In247 2.294 . S
O248 C257 1.240 . S
O249 In247 2.326 . S
O249 C257 1.252 . S
C250 O253 1.252 . S
C250 O254 1.260 . S
C251 O258 1.240 . S
C251 O259 1.252 . S
C252 O255 1.252 . S
C252 O256 1.260 . S
O253 In247 2.266 . S
O253 C250 1.252 . S
O254 In247 2.326 . S
O254 C250 1.260 . S
O255 In247 2.266 . S
O255 C252 1.252 . S
O256 In247 2.326 . S
O256 C252 1.260 . S
C257 O248 1.240 . S
C257 O249 1.252 . S
O258 In247 2.294 . S
O258 C251 1.240 . S
O259 In247 2.326 . S
O259 C251 1.252 . S
In260 O261 2.294 . S
In260 O262 2.326 . S
In260 O266 2.266 . S
In260 O267 2.326 . S
In260 O268 2.266 . S
In260 O269 2.326 . S
In260 O271 2.294 . S
In260 O272 2.326 . S
O261 In260 2.294 . S
O261 C270 1.240 . S
O262 In260 2.326 . S
O262 C270 1.252 . S
C263 O266 1.252 . S
C263 O267 1.260 . S
C264 O271 1.240 . S
C264 O272 1.252 . S
C265 O268 1.252 . S
C265 O269 1.260 . S
O266 In260 2.266 . S
O266 C263 1.252 . S
O267 In260 2.326 . S
O267 C263 1.260 . S
O268 In260 2.266 . S
O268 C265 1.252 . S
O269 In260 2.326 . S
O269 C265 1.260 . S
C270 O261 1.240 . S
C270 O262 1.252 . S
O271 In260 2.294 . S
O271 C264 1.240 . S
O272 In260 2.326 . S
O272 C264 1.252 . S
In273 O274 2.294 . S
In273 O275 2.326 . S
In273 O279 2.266 . S
In273 O280 2.326 . S
In273 O281 2.266 . S
In273 O282 2.326 1_554 S
In273 O284 2.294 . S
In273 O285 2.326 . S
O274 In273 2.294 . S
O274 C283 1.240 . S
O275 In273 2.326 . S
O275 C283 1.252 . S
C276 O279 1.252 . S
C276 O280 1.260 . S
C277 O284 1.240 . S
C277 O285 1.252 . S
C278 O281 1.252 1_556 S
C278 O282 1.260 . S
O279 In273 2.266 . S
O279 C276 1.252 . S
O280 In273 2.326 . S
O280 C276 1.260 . S
O281 In273 2.266 . S
O281 C278 1.252 1_554 S
O282 In273 2.326 1_556 S
O282 C278 1.260 . S
C283 O274 1.240 . S
C283 O275 1.252 . S
O284 In273 2.294 . S
O284 C277 1.240 . S
O285 In273 2.326 . S
O285 C277 1.252 . S
In286 O287 2.294 . S
In286 O288 2.326 . S
In286 O292 2.266 . S
In286 O293 2.326 1_554 S
In286 O294 2.266 . S
In286 O295 2.326 . S
In286 O297 2.294 . S
In286 O298 2.326 . S
O287 In286 2.294 . S
O287 C296 1.240 . S
O288 In286 2.326 . S
O288 C296 1.252 . S
C289 O292 1.252 1_556 S
C289 O293 1.260 . S
C290 O297 1.240 . S
C290 O298 1.252 . S
C291 O294 1.252 . S
C291 O295 1.260 . S
O292 In286 2.266 . S
O292 C289 1.252 1_554 S
O293 In286 2.326 1_556 S
O293 C289 1.260 . S
O294 In286 2.266 . S
O294 C291 1.252 . S
O295 In286 2.326 . S
O295 C291 1.260 . S
C296 O287 1.240 . S
C296 O288 1.252 . S
O297 In286 2.294 . S
O297 C290 1.240 . S
O298 In286 2.326 . S
O298 C290 1.252 . S
In299 O300 2.294 . S
In299 O301 2.326 . S
In299 O305 2.266 . S
In299 O306 2.326 . S
In299 O307 2.266 . S
In299 O308 2.326 1_554 S
In299 O310 2.294 . S
In299 O311 2.326 . S
O300 In299 2.294 . S
O300 C309 1.240 . S
O301 In299 2.326 . S
O301 C309 1.252 . S
C302 O305 1.252 . S
C302 O306 1.260 . S
C303 O310 1.240 . S
C303 O311 1.252 . S
C304 O307 1.252 1_556 S
C304 O308 1.260 . S
O305 In299 2.266 . S
O305 C302 1.252 . S
O306 In299 2.326 . S
O306 C302 1.260 . S
O307 In299 2.266 . S
O307 C304 1.252 1_554 S
O308 In299 2.326 1_556 S
O308 C304 1.260 . S
C309 O300 1.240 . S
C309 O301 1.252 . S
O310 In299 2.294 . S
O310 C303 1.240 . S
O311 In299 2.326 . S
O311 C303 1.252 . S
In312 O313 2.294 . S
In312 O314 2.326 . S
In312 O318 2.266 . S
In312 O319 2.326 . S
In312 O320 2.266 . S
In312 O321 2.326 . S
In312 O323 2.294 . S
In312 O324 2.326 . S
O313 In312 2.294 . S
O313 C322 1.240 . S
O314 In312 2.326 . S
O314 C322 1.252 . S
C315 O318 1.252 . S
C315 O319 1.260 . S
C316 O323 1.240 . S
C316 O324 1.252 . S
C317 O320 1.252 . S
C317 O321 1.260 . S
O318 In312 2.266 . S
O318 C315 1.252 . S
O319 In312 2.326 . S
O319 C315 1.260 . S
O320 In312 2.266 . S
O320 C317 1.252 . S
O321 In312 2.326 . S
O321 C317 1.260 . S
C322 O313 1.240 . S
C322 O314 1.252 . S
O323 In312 2.294 . S
O323 C316 1.240 . S
O324 In312 2.326 . S
O324 C316 1.252 . S
In325 O326 2.294 . S
In325 O327 2.326 . S
In325 O331 2.266 . S
In325 O332 2.326 . S
In325 O333 2.266 . S
In325 O334 2.326 . S
In325 O336 2.294 . S
In325 O337 2.326 . S
O326 In325 2.294 . S
O326 C335 1.240 . S
O327 In325 2.326 . S
O327 C335 1.252 . S
C328 O331 1.252 . S
C328 O332 1.260 . S
C329 O336 1.240 . S
C329 O337 1.252 . S
C330 O333 1.252 . S
C330 O334 1.260 . S
O331 In325 2.266 . S
O331 C328 1.252 . S
O332 In325 2.326 . S
O332 C328 1.260 . S
O333 In325 2.266 . S
O333 C330 1.252 . S
O334 In325 2.326 . S
O334 C330 1.260 . S
C335 O326 1.240 . S
C335 O327 1.252 . S
O336 In325 2.294 . S
O336 C329 1.240 . S
O337 In325 2.326 . S
O337 C329 1.252 . S
In338 O339 2.294 . S
In338 O340 2.326 . S
In338 O344 2.266 . S
In338 O345 2.326 . S
In338 O346 2.266 . S
In338 O347 2.326 . S
In338 O349 2.294 . S
In338 O350 2.326 . S
O339 In338 2.294 . S
O339 C348 1.240 . S
O340 In338 2.326 . S
O340 C348 1.252 . S
C341 O344 1.252 . S
C341 O345 1.260 . S
C342 O349 1.240 . S
C342 O350 1.252 . S
C343 O346 1.252 . S
C343 O347 1.260 . S
O344 In338 2.266 . S
O344 C341 1.252 . S
O345 In338 2.326 . S
O345 C341 1.260 . S
O346 In338 2.266 . S
O346 C343 1.252 . S
O347 In338 2.326 . S
O347 C343 1.260 . S
C348 O339 1.240 . S
C348 O340 1.252 . S
O349 In338 2.294 . S
O349 C342 1.240 . S
O350 In338 2.326 . S
O350 C342 1.252 . S
In351 O352 2.294 . S
In351 O353 2.326 . S
In351 O357 2.266 . S
In351 O358 2.326 . S
In351 O359 2.266 . S
In351 O360 2.326 1_556 S
In351 O362 2.294 . S
In351 O363 2.326 . S
O352 In351 2.294 . S
O352 C361 1.240 . S
O353 In351 2.326 . S
O353 C361 1.252 . S
C354 O357 1.252 . S
C354 O358 1.260 . S
C355 O362 1.240 . S
C355 O363 1.252 . S
C356 O359 1.252 1_554 S
C356 O360 1.260 . S
O357 In351 2.266 . S
O357 C354 1.252 . S
O358 In351 2.326 . S
O358 C354 1.260 . S
O359 In351 2.266 . S
O359 C356 1.252 1_556 S
O360 In351 2.326 1_554 S
O360 C356 1.260 . S
C361 O352 1.240 . S
C361 O353 1.252 . S
O362 In351 2.294 . S
O362 C355 1.240 . S
O363 In351 2.326 . S
O363 C355 1.252 . S
In364 O365 2.294 . S
In364 O366 2.326 . S
In364 O370 2.266 . S
In364 O371 2.326 1_556 S
In364 O372 2.266 . S
In364 O373 2.326 . S
In364 O375 2.294 . S
In364 O376 2.326 . S
O365 In364 2.294 . S
O365 C374 1.240 . S
O366 In364 2.326 . S
O366 C374 1.252 . S
C367 O370 1.252 1_554 S
C367 O371 1.260 . S
C368 O375 1.240 . S
C368 O376 1.252 . S
C369 O372 1.252 . S
C369 O373 1.260 . S
O370 In364 2.266 . S
O370 C367 1.252 1_556 S
O371 In364 2.326 1_554 S
O371 C367 1.260 . S
O372 In364 2.266 . S
O372 C369 1.252 . S
O373 In364 2.326 . S
O373 C369 1.260 . S
C374 O365 1.240 . S
C374 O366 1.252 . S
O375 In364 2.294 . S
O375 C368 1.240 . S
O376 In364 2.326 . S
O376 C368 1.252 . S
In377 O378 2.294 . S
In377 O379 2.326 . S
In377 O383 2.266 . S
In377 O384 2.326 . S
In377 O385 2.266 . S
In377 O386 2.326 1_556 S
In377 O388 2.294 . S
In377 O389 2.326 . S
O378 In377 2.294 . S
O378 C387 1.240 . S
O379 In377 2.326 . S
O379 C387 1.252 . S
C380 O383 1.252 . S
C380 O384 1.260 . S
C381 O388 1.240 . S
C381 O389 1.252 . S
C382 O385 1.252 1_554 S
C382 O386 1.260 . S
O383 In377 2.266 . S
O383 C380 1.252 . S
O384 In377 2.326 . S
O384 C380 1.260 . S
O385 In377 2.266 . S
O385 C382 1.252 1_556 S
O386 In377 2.326 1_554 S
O386 C382 1.260 . S
C387 O378 1.240 . S
C387 O379 1.252 . S
O388 In377 2.294 . S
O388 C381 1.240 . S
O389 In377 2.326 . S
O389 C381 1.252 . S
In390 O391 2.294 . S
In390 O392 2.326 . S
In390 O396 2.266 . S
In390 O397 2.326 . S
In390 O398 2.266 . S
In390 O399 2.326 . S
In390 O401 2.294 . S
In390 O402 2.326 . S
O391 In390 2.294 . S
O391 C400 1.240 . S
O392 In390 2.326 . S
O392 C400 1.252 . S
C393 O396 1.252 . S
C393 O397 1.260 . S
C394 O401 1.240 . S
C394 O402 1.252 . S
C395 O398 1.252 . S
C395 O399 1.260 . S
O396 In390 2.266 . S
O396 C393 1.252 . S
O397 In390 2.326 . S
O397 C393 1.260 . S
O398 In390 2.266 . S
O398 C395 1.252 . S
O399 In390 2.326 . S
O399 C395 1.260 . S
C400 O391 1.240 . S
C400 O392 1.252 . S
O401 In390 2.294 . S
O401 C394 1.240 . S
O402 In390 2.326 . S
O402 C394 1.252 . S
In403 O404 2.294 . S
In403 O405 2.326 . S
In403 O409 2.266 . S
In403 O410 2.326 . S
In403 O411 2.266 . S
In403 O412 2.326 . S
In403 O414 2.294 . S
In403 O415 2.326 . S
O404 In403 2.294 . S
O404 C413 1.240 . S
O405 In403 2.326 . S
O405 C413 1.252 . S
C406 O409 1.252 . S
C406 O410 1.260 . S
C407 O414 1.240 . S
C407 O415 1.252 . S
C408 O411 1.252 . S
C408 O412 1.260 . S
O409 In403 2.266 . S
O409 C406 1.252 . S
O410 In403 2.326 . S
O410 C406 1.260 . S
O411 In403 2.266 . S
O411 C408 1.252 . S
O412 In403 2.326 . S
O412 C408 1.260 . S
C413 O404 1.240 . S
C413 O405 1.252 . S
O414 In403 2.294 . S
O414 C407 1.240 . S
O415 In403 2.326 . S
O415 C407 1.252 . S
In416 O417 2.294 . S
In416 O418 2.326 . S
In416 O422 2.266 . S
In416 O423 2.326 . S
In416 O424 2.266 . S
In416 O425 2.326 . S
In416 O427 2.294 . S
In416 O428 2.326 . S
O417 In416 2.294 . S
O417 C426 1.240 . S
O418 In416 2.326 . S
O418 C426 1.252 . S
C419 O422 1.252 . S
C419 O423 1.260 . S
C420 O427 1.240 . S
C420 O428 1.252 . S
C421 O424 1.252 . S
C421 O425 1.260 . S
O422 In416 2.266 . S
O422 C419 1.252 . S
O423 In416 2.326 . S
O423 C419 1.260 . S
O424 In416 2.266 . S
O424 C421 1.252 . S
O425 In416 2.326 . S
O425 C421 1.260 . S
C426 O417 1.240 . S
C426 O418 1.252 . S
O427 In416 2.294 . S
O427 C420 1.240 . S
O428 In416 2.326 . S
O428 C420 1.252 . S
In429 O430 2.294 . S
In429 O431 2.326 . S
In429 O435 2.266 . S
In429 O436 2.326 . S
In429 O437 2.266 . S
In429 O438 2.326 . S
In429 O440 2.294 . S
In429 O441 2.326 . S
O430 In429 2.294 . S
O430 C439 1.240 . S
O431 In429 2.326 . S
O431 C439 1.252 . S
C432 O435 1.252 . S
C432 O436 1.260 . S
C433 O440 1.240 . S
C433 O441 1.252 . S
C434 O437 1.252 . S
C434 O438 1.260 . S
O435 In429 2.266 . S
O435 C432 1.252 . S
O436 In429 2.326 . S
O436 C432 1.260 . S
O437 In429 2.266 . S
O437 C434 1.252 . S
O438 In429 2.326 . S
O438 C434 1.260 . S
C439 O430 1.240 . S
C439 O431 1.252 . S
O440 In429 2.294 . S
O440 C433 1.240 . S
O441 In429 2.326 . S
O441 C433 1.252 . S
In442 O443 2.294 . S
In442 O444 2.326 . S
In442 O448 2.266 . S
In442 O449 2.326 . S
In442 O450 2.266 . S
In442 O451 2.326 . S
In442 O453 2.294 . S
In442 O454 2.326 . S
O443 In442 2.294 . S
O443 C452 1.240 . S
O444 In442 2.326 . S
O444 C452 1.252 . S
C445 O448 1.252 . S
C445 O449 1.260 . S
C446 O453 1.240 . S
C446 O454 1.252 . S
C447 O450 1.252 . S
C447 O451 1.260 . S
O448 In442 2.266 . S
O448 C445 1.252 . S
O449 In442 2.326 . S
O449 C445 1.260 . S
O450 In442 2.266 . S
O450 C447 1.252 . S
O451 In442 2.326 . S
O451 C447 1.260 . S
C452 O443 1.240 . S
C452 O444 1.252 . S
O453 In442 2.294 . S
O453 C446 1.240 . S
O454 In442 2.326 . S
O454 C446 1.252 . S
In455 O456 2.294 . S
In455 O457 2.326 . S
In455 O461 2.266 . S
In455 O462 2.326 . S
In455 O463 2.266 . S
In455 O464 2.326 . S
In455 O466 2.294 . S
In455 O467 2.326 . S
O456 In455 2.294 . S
O456 C465 1.240 . S
O457 In455 2.326 . S
O457 C465 1.252 . S
C458 O461 1.252 . S
C458 O462 1.260 . S
C459 O466 1.240 . S
C459 O467 1.252 . S
C460 O463 1.252 . S
C460 O464 1.260 . S
O461 In455 2.266 . S
O461 C458 1.252 . S
O462 In455 2.326 . S
O462 C458 1.260 . S
O463 In455 2.266 . S
O463 C460 1.252 . S
O464 In455 2.326 . S
O464 C460 1.260 . S
C465 O456 1.240 . S
C465 O457 1.252 . S
O466 In455 2.294 . S
O466 C459 1.240 . S
O467 In455 2.326 . S
O467 C459 1.252 . S
H468 C476 0.929 . S
H469 C478 0.930 . S
H470 C480 0.930 . S
H471 C483 0.929 . S
H472 C486 0.930 . S
H473 C488 0.960 . S
H474 C488 0.960 . S
H475 C488 0.960 . S
C476 H468 0.929 . S
C476 C477 1.377 . S
C476 C478 1.384 . S
C477 C476 1.377 . S
C477 C483 1.390 . S
C478 H469 0.930 . S
C478 C476 1.384 . S
C478 C479 1.372 . S
C479 C478 1.372 . S
C479 C480 1.400 . S
C479 C484 1.490 . S
C480 H470 0.930 . S
C480 C479 1.400 . S
C480 C483 1.386 . S
H481 C497 0.930 . S
H482 C498 0.931 . S
C483 H471 0.929 . S
C483 C477 1.390 . S
C483 C480 1.386 . S
C484 C479 1.490 . S
C484 C486 1.395 . S
C484 C487 1.403 . S
H485 C491 0.930 . S
C486 H472 0.930 . S
C486 C484 1.395 . S
C486 C489 1.403 . S
C487 C484 1.403 . S
C487 C488 1.524 . S
C487 C491 1.400 . S
C488 H473 0.960 . S
C488 H474 0.960 . S
C488 H475 0.960 . S
C488 C487 1.524 . S
C489 C486 1.403 . S
C489 C490 1.392 . S
C489 C493 1.495 . S
C490 C489 1.392 . S
C490 C491 1.385 . S
C490 C492 1.478 1_556 S
C491 H485 0.930 . S
C491 C487 1.400 . S
C491 C490 1.385 . S
C492 C490 1.478 1_554 S
C492 C494 1.381 . S
C492 C498 1.383 . S
C493 C489 1.495 . S
C493 H499 0.959 . S
C493 H500 0.961 . S
C493 H501 0.960 1_556 S
C494 C492 1.381 . S
C494 C495 1.394 . S
C494 H502 0.930 . S
C495 C494 1.394 . S
C495 C496 1.383 . S
C495 H503 0.929 . S
C496 C495 1.383 . S
C496 C497 1.377 . S
C497 H481 0.930 . S
C497 C496 1.377 . S
C497 C498 1.379 . S
C498 H482 0.931 . S
C498 C492 1.383 . S
C498 C497 1.379 . S
H499 C493 0.959 . S
H500 C493 0.961 . S
H501 C493 0.960 1_554 S
H502 C494 0.930 . S
H503 C495 0.929 . S
H504 C512 0.929 . S
H505 C514 0.930 . S
H506 C516 0.930 . S
H507 C519 0.929 . S
H508 C522 0.930 . S
H509 C524 0.960 . S
H510 C524 0.960 . S
H511 C524 0.960 . S
C512 H504 0.929 . S
C512 C513 1.377 . S
C512 C514 1.384 . S
C513 C512 1.377 . S
C513 C519 1.390 . S
C514 H505 0.930 . S
C514 C512 1.384 . S
C514 C515 1.372 . S
C515 C514 1.372 . S
C515 C516 1.400 . S
C515 C520 1.490 . S
C516 H506 0.930 . S
C516 C515 1.400 . S
C516 C519 1.386 . S
H517 C533 0.930 . S
H518 C534 0.931 . S
C519 H507 0.929 . S
C519 C513 1.390 . S
C519 C516 1.386 . S
C520 C515 1.490 . S
C520 C522 1.395 . S
C520 C523 1.403 . S
H521 C527 0.930 . S
C522 H508 0.930 . S
C522 C520 1.395 . S
C522 C525 1.403 . S
C523 C520 1.403 . S
C523 C524 1.524 . S
C523 C527 1.400 . S
C524 H509 0.960 . S
C524 H510 0.960 . S
C524 H511 0.960 . S
C524 C523 1.524 . S
C525 C522 1.403 . S
C525 C526 1.392 . S
C525 C529 1.495 . S
C526 C525 1.392 . S
C526 C527 1.385 . S
C526 C528 1.478 1_556 S
C527 H521 0.930 . S
C527 C523 1.400 . S
C527 C526 1.385 . S
C528 C526 1.478 1_554 S
C528 C530 1.381 . S
C528 C534 1.383 . S
C529 C525 1.495 . S
C529 H535 0.959 . S
C529 H536 0.961 1_556 S
C529 H537 0.960 1_556 S
C530 C528 1.381 . S
C530 C531 1.394 . S
C530 H538 0.930 . S
C531 C530 1.394 . S
C531 C532 1.383 . S
C531 H539 0.929 . S
C532 C531 1.383 . S
C532 C533 1.377 . S
C533 H517 0.930 . S
C533 C532 1.377 . S
C533 C534 1.379 . S
C534 H518 0.931 . S
C534 C528 1.383 . S
C534 C533 1.379 . S
H535 C529 0.959 . S
H536 C529 0.961 1_554 S
H537 C529 0.960 1_554 S
H538 C530 0.930 . S
H539 C531 0.929 . S
H540 C548 0.929 . S
H541 C550 0.930 . S
H542 C552 0.930 . S
H543 C555 0.929 . S
H544 C558 0.930 . S
H545 C560 0.960 . S
H546 C560 0.960 1_554 S
H547 C560 0.960 1_554 S
C548 H540 0.929 . S
C548 C549 1.377 . S
C548 C550 1.384 . S
C549 C548 1.377 . S
C549 C555 1.390 . S
C550 H541 0.930 . S
C550 C548 1.384 . S
C550 C551 1.372 . S
C551 C550 1.372 . S
C551 C552 1.400 . S
C551 C556 1.490 1_554 S
C552 H542 0.930 . S
C552 C551 1.400 . S
C552 C555 1.386 . S
H553 C569 0.930 . S
H554 C570 0.931 . S
C555 H543 0.929 . S
C555 C549 1.390 . S
C555 C552 1.386 . S
C556 C551 1.490 1_556 S
C556 C558 1.395 . S
C556 C559 1.403 . S
H557 C563 0.930 . S
C558 H544 0.930 . S
C558 C556 1.395 . S
C558 C561 1.403 . S
C559 C556 1.403 . S
C559 C560 1.524 . S
C559 C563 1.400 . S
C560 H545 0.960 . S
C560 H546 0.960 1_556 S
C560 H547 0.960 1_556 S
C560 C559 1.524 . S
C561 C558 1.403 . S
C561 C562 1.392 . S
C561 C565 1.495 . S
C562 C561 1.392 . S
C562 C563 1.385 . S
C562 C564 1.478 . S
C563 H557 0.930 . S
C563 C559 1.400 . S
C563 C562 1.385 . S
C564 C562 1.478 . S
C564 C566 1.381 . S
C564 C570 1.383 . S
C565 C561 1.495 . S
C565 H571 0.959 . S
C565 H572 0.961 . S
C565 H573 0.960 . S
C566 C564 1.381 . S
C566 C567 1.394 . S
C566 H574 0.930 . S
C567 C566 1.394 . S
C567 C568 1.383 . S
C567 H575 0.929 . S
C568 C567 1.383 . S
C568 C569 1.377 . S
C569 H553 0.930 . S
C569 C568 1.377 . S
C569 C570 1.379 . S
C570 H554 0.931 . S
C570 C564 1.383 . S
C570 C569 1.379 . S
H571 C565 0.959 . S
H572 C565 0.961 . S
H573 C565 0.960 . S
H574 C566 0.930 . S
H575 C567 0.929 . S
H576 C584 0.929 . S
H577 C586 0.930 . S
H578 C588 0.930 . S
H579 C591 0.929 . S
H580 C594 0.930 . S
H581 C596 0.960 . S
H582 C596 0.960 . S
H583 C596 0.960 . S
C584 H576 0.929 . S
C584 C585 1.377 . S
C584 C586 1.384 . S
C585 C584 1.377 . S
C585 C591 1.390 . S
C586 H577 0.930 . S
C586 C584 1.384 . S
C586 C587 1.372 . S
C587 C586 1.372 . S
C587 C588 1.400 . S
C587 C592 1.490 . S
C588 H578 0.930 . S
C588 C587 1.400 . S
C588 C591 1.386 . S
H589 C605 0.930 . S
H590 C606 0.931 . S
C591 H579 0.929 . S
C591 C585 1.390 . S
C591 C588 1.386 . S
C592 C587 1.490 . S
C592 C594 1.395 . S
C592 C595 1.403 . S
H593 C599 0.930 . S
C594 H580 0.930 . S
C594 C592 1.395 . S
C594 C597 1.403 . S
C595 C592 1.403 . S
C595 C596 1.524 . S
C595 C599 1.400 . S
C596 H581 0.960 . S
C596 H582 0.960 . S
C596 H583 0.960 . S
C596 C595 1.524 . S
C597 C594 1.403 . S
C597 C598 1.392 . S
C597 C601 1.495 . S
C598 C597 1.392 . S
C598 C599 1.385 . S
C598 C600 1.478 . S
C599 H593 0.930 . S
C599 C595 1.400 . S
C599 C598 1.385 . S
C600 C598 1.478 . S
C600 C602 1.381 . S
C600 C606 1.383 . S
C601 C597 1.495 . S
C601 H607 0.959 . S
C601 H608 0.961 . S
C601 H609 0.960 . S
C602 C600 1.381 . S
C602 C603 1.394 . S
C602 H610 0.930 . S
C603 C602 1.394 . S
C603 C604 1.383 . S
C603 H611 0.929 . S
C604 C603 1.383 . S
C604 C605 1.377 . S
C605 H589 0.930 . S
C605 C604 1.377 . S
C605 C606 1.379 . S
C606 H590 0.931 . S
C606 C600 1.383 . S
C606 C605 1.379 . S
H607 C601 0.959 . S
H608 C601 0.961 . S
H609 C601 0.960 . S
H610 C602 0.930 . S
H611 C603 0.929 . S
H612 C620 0.929 . S
H613 C622 0.930 . S
H614 C624 0.930 . S
H615 C627 0.929 . S
H616 C630 0.930 . S
H617 C632 0.960 . S
H618 C632 0.960 . S
H619 C632 0.960 . S
C620 H612 0.929 . S
C620 C621 1.377 . S
C620 C622 1.384 . S
C621 C620 1.377 . S
C621 C627 1.390 . S
C622 H613 0.930 . S
C622 C620 1.384 . S
C622 C623 1.372 . S
C623 C622 1.372 . S
C623 C624 1.400 . S
C623 C628 1.490 . S
C624 H614 0.930 . S
C624 C623 1.400 . S
C624 C627 1.386 . S
H625 C641 0.930 . S
H626 C642 0.931 . S
C627 H615 0.929 . S
C627 C621 1.390 . S
C627 C624 1.386 . S
C628 C623 1.490 . S
C628 C630 1.395 . S
C628 C631 1.403 . S
H629 C635 0.930 . S
C630 H616 0.930 . S
C630 C628 1.395 . S
C630 C633 1.403 . S
C631 C628 1.403 . S
C631 C632 1.524 . S
C631 C635 1.400 . S
C632 H617 0.960 . S
C632 H618 0.960 . S
C632 H619 0.960 . S
C632 C631 1.524 . S
C633 C630 1.403 . S
C633 C634 1.392 . S
C633 C637 1.495 . S
C634 C633 1.392 . S
C634 C635 1.385 . S
C634 C636 1.478 . S
C635 H629 0.930 . S
C635 C631 1.400 . S
C635 C634 1.385 . S
C636 C634 1.478 . S
C636 C638 1.381 . S
C636 C642 1.383 . S
C637 C633 1.495 . S
C637 H643 0.959 . S
C637 H644 0.961 . S
C637 H645 0.960 . S
C638 C636 1.381 . S
C638 C639 1.394 . S
C638 H646 0.930 . S
C639 C638 1.394 . S
C639 C640 1.383 . S
C639 H647 0.929 . S
C640 C639 1.383 . S
C640 C641 1.377 . S
C641 H625 0.930 . S
C641 C640 1.377 . S
C641 C642 1.379 . S
C642 H626 0.931 . S
C642 C636 1.383 . S
C642 C641 1.379 . S
H643 C637 0.959 . S
H644 C637 0.961 . S
H645 C637 0.960 . S
H646 C638 0.930 . S
H647 C639 0.929 . S
H648 C656 0.929 . S
H649 C658 0.930 . S
H650 C660 0.930 . S
H651 C663 0.929 . S
H652 C666 0.930 . S
H653 C668 0.960 . S
H654 C668 0.960 . S
H655 C668 0.960 . S
C656 H648 0.929 . S
C656 C657 1.377 . S
C656 C658 1.384 . S
C657 C656 1.377 . S
C657 C663 1.390 . S
C658 H649 0.930 . S
C658 C656 1.384 . S
C658 C659 1.372 . S
C659 C658 1.372 . S
C659 C660 1.400 . S
C659 C664 1.490 . S
C660 H650 0.930 . S
C660 C659 1.400 . S
C660 C663 1.386 . S
H661 C677 0.930 . S
H662 C678 0.931 . S
C663 H651 0.929 . S
C663 C657 1.390 . S
C663 C660 1.386 . S
C664 C659 1.490 . S
C664 C666 1.395 . S
C664 C667 1.403 . S
H665 C671 0.930 . S
C666 H652 0.930 . S
C666 C664 1.395 . S
C666 C669 1.403 . S
C667 C664 1.403 . S
C667 C668 1.524 . S
C667 C671 1.400 . S
C668 H653 0.960 . S
C668 H654 0.960 . S
C668 H655 0.960 . S
C668 C667 1.524 . S
C669 C666 1.403 . S
C669 C670 1.392 . S
C669 C673 1.495 . S
C670 C669 1.392 . S
C670 C671 1.385 . S
C670 C672 1.478 . S
C671 H665 0.930 . S
C671 C667 1.400 . S
C671 C670 1.385 . S
C672 C670 1.478 . S
C672 C674 1.381 . S
C672 C678 1.383 . S
C673 C669 1.495 . S
C673 H679 0.959 . S
C673 H680 0.961 . S
C673 H681 0.960 . S
C674 C672 1.381 . S
C674 C675 1.394 . S
C674 H682 0.930 . S
C675 C674 1.394 . S
C675 C676 1.383 . S
C675 H683 0.929 . S
C676 C675 1.383 . S
C676 C677 1.377 . S
C677 H661 0.930 . S
C677 C676 1.377 . S
C677 C678 1.379 . S
C678 H662 0.931 . S
C678 C672 1.383 . S
C678 C677 1.379 . S
H679 C673 0.959 . S
H680 C673 0.961 . S
H681 C673 0.960 . S
H682 C674 0.930 . S
H683 C675 0.929 . S
H684 C692 0.929 . S
H685 C694 0.930 . S
H686 C696 0.930 . S
H687 C699 0.929 . S
H688 C702 0.930 . S
H689 C704 0.960 . S
H690 C704 0.960 . S
H691 C704 0.960 . S
C692 H684 0.929 . S
C692 C693 1.377 . S
C692 C694 1.384 . S
C693 C692 1.377 . S
C693 C699 1.390 . S
C694 H685 0.930 . S
C694 C692 1.384 . S
C694 C695 1.372 . S
C695 C694 1.372 . S
C695 C696 1.400 . S
C695 C700 1.490 . S
C696 H686 0.930 . S
C696 C695 1.400 . S
C696 C699 1.386 . S
H697 C713 0.930 . S
H698 C714 0.931 . S
C699 H687 0.929 . S
C699 C693 1.390 . S
C699 C696 1.386 . S
C700 C695 1.490 . S
C700 C702 1.395 . S
C700 C703 1.403 . S
H701 C707 0.944 . S
C702 H688 0.930 . S
C702 C700 1.395 . S
C702 C705 1.403 . S
C703 C700 1.403 . S
C703 C704 1.524 . S
C703 C707 1.400 . S
C704 H689 0.960 . S
C704 H690 0.960 . S
C704 H691 0.960 . S
C704 C703 1.524 . S
C705 C702 1.403 . S
C705 C706 1.392 . S
C705 C709 1.495 . S
C706 C705 1.392 . S
C706 C707 1.385 . S
C706 C708 1.478 1_554 S
C707 H701 0.944 . S
C707 C703 1.400 . S
C707 C706 1.385 . S
C708 C706 1.478 1_556 S
C708 C710 1.381 . S
C708 C714 1.383 . S
C709 C705 1.495 . S
C709 H715 0.959 . S
C709 H716 0.977 . S
C709 H717 0.968 . S
C710 C708 1.381 . S
C710 C711 1.394 . S
C710 H718 0.930 . S
C711 C710 1.394 . S
C711 C712 1.383 . S
C711 H719 0.929 . S
C712 C711 1.383 . S
C712 C713 1.377 . S
C713 H697 0.930 . S
C713 C712 1.377 . S
C713 C714 1.379 . S
C714 H698 0.931 . S
C714 C708 1.383 . S
C714 C713 1.379 . S
H715 C709 0.959 . S
H716 C709 0.977 . S
H717 C709 0.968 . S
H718 C710 0.930 . S
H719 C711 0.929 . S
H720 C728 0.929 . S
H721 C730 0.930 . S
H722 C732 0.930 . S
H723 C735 0.929 . S
H724 C738 0.930 . S
H725 C740 0.960 . S
H726 C740 0.960 . S
H727 C740 0.960 . S
C728 H720 0.929 . S
C728 C729 1.377 . S
C728 C730 1.384 . S
C729 C728 1.377 . S
C729 C735 1.390 . S
C730 H721 0.930 . S
C730 C728 1.384 . S
C730 C731 1.372 . S
C731 C730 1.372 . S
C731 C732 1.400 . S
C731 C736 1.490 . S
C732 H722 0.930 . S
C732 C731 1.400 . S
C732 C735 1.386 . S
H733 C749 0.930 . S
H734 C750 0.931 . S
C735 H723 0.929 . S
C735 C729 1.390 . S
C735 C732 1.386 . S
C736 C731 1.490 . S
C736 C738 1.395 . S
C736 C739 1.403 . S
H737 C743 0.930 . S
C738 H724 0.930 . S
C738 C736 1.395 . S
C738 C741 1.403 . S
C739 C736 1.403 . S
C739 C740 1.524 . S
C739 C743 1.400 . S
C740 H725 0.960 . S
C740 H726 0.960 . S
C740 H727 0.960 . S
C740 C739 1.524 . S
C741 C738 1.403 . S
C741 C742 1.392 . S
C741 C745 1.489 1_554 S
C742 C741 1.392 . S
C742 C743 1.385 . S
C742 C744 1.478 1_554 S
C743 H737 0.930 . S
C743 C739 1.400 . S
C743 C742 1.385 . S
C744 C742 1.478 1_556 S
C744 C746 1.381 . S
C744 C750 1.383 . S
C745 C741 1.489 1_556 S
C745 H751 0.951 1_556 S
C745 H752 0.969 . S
C745 H753 0.967 . S
C746 C744 1.381 . S
C746 C747 1.394 . S
C746 H754 0.930 . S
C747 C746 1.394 . S
C747 C748 1.383 . S
C747 H755 0.929 . S
C748 C747 1.383 . S
C748 C749 1.377 . S
C749 H733 0.930 . S
C749 C748 1.377 . S
C749 C750 1.379 . S
C750 H734 0.931 . S
C750 C744 1.383 . S
C750 C749 1.379 . S
H751 C745 0.951 1_554 S
H752 C745 0.969 . S
H753 C745 0.967 . S
H754 C746 0.930 . S
H755 C747 0.929 . S
H756 C764 0.929 . S
H757 C766 0.930 . S
H758 C768 0.930 . S
H759 C771 0.929 . S
H760 C774 0.930 . S
H761 C776 0.960 . S
H762 C776 0.960 1_556 S
H763 C776 0.960 1_556 S
C764 H756 0.929 . S
C764 C765 1.377 . S
C764 C766 1.384 . S
C765 C764 1.377 . S
C765 C771 1.390 . S
C766 H757 0.930 . S
C766 C764 1.384 . S
C766 C767 1.372 . S
C767 C766 1.372 . S
C767 C768 1.400 . S
C767 C772 1.490 1_556 S
C768 H758 0.930 . S
C768 C767 1.400 . S
C768 C771 1.386 . S
H769 C785 0.930 . S
H770 C786 0.931 . S
C771 H759 0.929 . S
C771 C765 1.390 . S
C771 C768 1.386 . S
C772 C767 1.490 1_554 S
C772 C774 1.395 . S
C772 C775 1.403 . S
H773 C779 0.930 . S
C774 H760 0.930 . S
C774 C772 1.395 . S
C774 C777 1.403 . S
C775 C772 1.403 . S
C775 C776 1.524 . S
C775 C779 1.400 . S
C776 H761 0.960 . S
C776 H762 0.960 1_554 S
C776 H763 0.960 1_554 S
C776 C775 1.524 . S
C777 C774 1.403 . S
C777 C778 1.392 . S
C777 C781 1.495 . S
C778 C777 1.392 . S
C778 C779 1.385 . S
C778 C780 1.478 . S
C779 H773 0.930 . S
C779 C775 1.400 . S
C779 C778 1.385 . S
C780 C778 1.478 . S
C780 C782 1.381 . S
C780 C786 1.383 . S
C781 C777 1.495 . S
C781 H787 0.959 . S
C781 H788 0.961 . S
C781 H789 0.960 . S
C782 C780 1.381 . S
C782 C783 1.394 . S
C782 H790 0.930 . S
C783 C782 1.394 . S
C783 C784 1.383 . S
C783 H791 0.929 . S
C784 C783 1.383 . S
C784 C785 1.377 . S
C785 H769 0.930 . S
C785 C784 1.377 . S
C785 C786 1.379 . S
C786 H770 0.931 . S
C786 C780 1.383 . S
C786 C785 1.379 . S
H787 C781 0.959 . S
H788 C781 0.961 . S
H789 C781 0.960 . S
H790 C782 0.930 . S
H791 C783 0.929 . S
H792 C800 0.929 . S
H793 C802 0.930 . S
H794 C804 0.930 . S
H795 C807 0.929 . S
H796 C810 0.930 . S
H797 C812 0.960 . S
H798 C812 0.960 . S
H799 C812 0.960 . S
C800 H792 0.929 . S
C800 C801 1.377 . S
C800 C802 1.384 . S
C801 C800 1.377 . S
C801 C807 1.390 . S
C802 H793 0.930 . S
C802 C800 1.384 . S
C802 C803 1.372 . S
C803 C802 1.372 . S
C803 C804 1.400 . S
C803 C808 1.490 . S
C804 H794 0.930 . S
C804 C803 1.400 . S
C804 C807 1.386 . S
H805 C821 0.930 . S
H806 C822 0.931 . S
C807 H795 0.929 . S
C807 C801 1.390 . S
C807 C804 1.386 . S
C808 C803 1.490 . S
C808 C810 1.395 . S
C808 C811 1.403 . S
H809 C815 0.930 . S
C810 H796 0.930 . S
C810 C808 1.395 . S
C810 C813 1.403 . S
C811 C808 1.403 . S
C811 C812 1.524 . S
C811 C815 1.400 . S
C812 H797 0.960 . S
C812 H798 0.960 . S
C812 H799 0.960 . S
C812 C811 1.524 . S
C813 C810 1.403 . S
C813 C814 1.392 . S
C813 C817 1.495 . S
C814 C813 1.392 . S
C814 C815 1.385 . S
C814 C816 1.478 . S
C815 H809 0.930 . S
C815 C811 1.400 . S
C815 C814 1.385 . S
C816 C814 1.478 . S
C816 C818 1.381 . S
C816 C822 1.383 . S
C817 C813 1.495 . S
C817 H823 0.959 . S
C817 H824 0.961 . S
C817 H825 0.960 . S
C818 C816 1.381 . S
C818 C819 1.394 . S
C818 H826 0.930 . S
C819 C818 1.394 . S
C819 C820 1.383 . S
C819 H827 0.929 . S
C820 C819 1.383 . S
C820 C821 1.377 . S
C821 H805 0.930 . S
C821 C820 1.377 . S
C821 C822 1.379 . S
C822 H806 0.931 . S
C822 C816 1.383 . S
C822 C821 1.379 . S
H823 C817 0.959 . S
H824 C817 0.961 . S
H825 C817 0.960 . S
H826 C818 0.930 . S
H827 C819 0.929 . S
H828 C836 0.929 . S
H829 C838 0.930 . S
H830 C840 0.930 . S
H831 C843 0.929 . S
H832 C846 0.930 . S
H833 C848 0.960 . S
H834 C848 0.960 . S
H835 C848 0.960 . S
C836 H828 0.929 . S
C836 C837 1.377 . S
C836 C838 1.384 . S
C837 C836 1.377 . S
C837 C843 1.390 . S
C838 H829 0.930 . S
C838 C836 1.384 . S
C838 C839 1.372 . S
C839 C838 1.372 . S
C839 C840 1.400 . S
C839 C844 1.490 . S
C840 H830 0.930 . S
C840 C839 1.400 . S
C840 C843 1.386 . S
H841 C857 0.930 . S
H842 C858 0.931 . S
C843 H831 0.929 . S
C843 C837 1.390 . S
C843 C840 1.386 . S
C844 C839 1.490 . S
C844 C846 1.395 . S
C844 C847 1.403 . S
H845 C851 0.930 . S
C846 H832 0.930 . S
C846 C844 1.395 . S
C846 C849 1.403 . S
C847 C844 1.403 . S
C847 C848 1.524 . S
C847 C851 1.400 . S
C848 H833 0.960 . S
C848 H834 0.960 . S
C848 H835 0.960 . S
C848 C847 1.524 . S
C849 C846 1.403 . S
C849 C850 1.392 . S
C849 C853 1.495 . S
C850 C849 1.392 . S
C850 C851 1.385 . S
C850 C852 1.478 . S
C851 H845 0.930 . S
C851 C847 1.400 . S
C851 C850 1.385 . S
C852 C850 1.478 . S
C852 C854 1.381 . S
C852 C858 1.383 . S
C853 C849 1.495 . S
C853 H859 0.959 . S
C853 H860 0.961 . S
C853 H861 0.960 . S
C854 C852 1.381 . S
C854 C855 1.394 . S
C854 H862 0.930 . S
C855 C854 1.394 . S
C855 C856 1.383 . S
C855 H863 0.929 . S
C856 C855 1.383 . S
C856 C857 1.377 . S
C857 H841 0.930 . S
C857 C856 1.377 . S
C857 C858 1.379 . S
C858 H842 0.931 . S
C858 C852 1.383 . S
C858 C857 1.379 . S
H859 C853 0.959 . S
H860 C853 0.961 . S
H861 C853 0.960 . S
H862 C854 0.930 . S
H863 C855 0.929 . S
H864 C872 0.929 . S
H865 C874 0.930 . S
H866 C876 0.930 . S
H867 C879 0.929 . S
H868 C882 0.930 . S
H869 C884 0.960 . S
H870 C884 0.960 . S
H871 C884 0.960 . S
C872 H864 0.929 . S
C872 C873 1.377 . S
C872 C874 1.384 . S
C873 C872 1.377 . S
C873 C879 1.390 . S
C874 H865 0.930 . S
C874 C872 1.384 . S
C874 C875 1.372 . S
C875 C874 1.372 . S
C875 C876 1.400 . S
C875 C880 1.490 . S
C876 H866 0.930 . S
C876 C875 1.400 . S
C876 C879 1.386 . S
H877 C893 0.930 . S
H878 C894 0.931 . S
C879 H867 0.929 . S
C879 C873 1.390 . S
C879 C876 1.386 . S
C880 C875 1.490 . S
C880 C882 1.395 . S
C880 C883 1.403 . S
H881 C887 0.930 . S
C882 H868 0.930 . S
C882 C880 1.395 . S
C882 C885 1.403 . S
C883 C880 1.403 . S
C883 C884 1.524 . S
C883 C887 1.400 . S
C884 H869 0.960 . S
C884 H870 0.960 . S
C884 H871 0.960 . S
C884 C883 1.524 . S
C885 C882 1.403 . S
C885 C886 1.392 . S
C885 C889 1.495 . S
C886 C885 1.392 . S
C886 C887 1.385 . S
C886 C888 1.478 . S
C887 H881 0.930 . S
C887 C883 1.400 . S
C887 C886 1.385 . S
C888 C886 1.478 . S
C888 C890 1.381 . S
C888 C894 1.383 . S
C889 C885 1.495 . S
C889 H895 0.959 . S
C889 H896 0.961 . S
C889 H897 0.960 . S
C890 C888 1.381 . S
C890 C891 1.394 . S
C890 H898 0.930 . S
C891 C890 1.394 . S
C891 C892 1.383 . S
C891 H899 0.929 . S
C892 C891 1.383 . S
C892 C893 1.377 . S
C893 H877 0.930 . S
C893 C892 1.377 . S
C893 C894 1.379 . S
C894 H878 0.931 . S
C894 C888 1.383 . S
C894 C893 1.379 . S
H895 C889 0.959 . S
H896 C889 0.961 . S
H897 C889 0.960 . S
H898 C890 0.930 . S
H899 C891 0.929 . S
H900 C908 0.929 . S
H901 C910 0.930 . S
H902 C912 0.930 . S
H903 C915 0.929 . S
H904 C918 0.930 . S
H905 C920 0.960 . S
H906 C920 0.960 . S
H907 C920 0.960 . S
C908 H900 0.929 . S
C908 C909 1.377 . S
C908 C910 1.384 . S
C909 C908 1.377 . S
C909 C915 1.390 . S
C910 H901 0.930 . S
C910 C908 1.384 . S
C910 C911 1.372 . S
C911 C910 1.372 . S
C911 C912 1.400 . S
C911 C916 1.490 . S
C912 H902 0.930 . S
C912 C911 1.400 . S
C912 C915 1.386 . S
H913 C929 0.930 . S
H914 C930 0.931 . S
C915 H903 0.929 . S
C915 C909 1.390 . S
C915 C912 1.386 . S
C916 C911 1.490 . S
C916 C918 1.395 . S
C916 C919 1.403 . S
H917 C923 0.930 . S
C918 H904 0.930 . S
C918 C916 1.395 . S
C918 C921 1.403 . S
C919 C916 1.403 . S
C919 C920 1.524 . S
C919 C923 1.400 . S
C920 H905 0.960 . S
C920 H906 0.960 . S
C920 H907 0.960 . S
C920 C919 1.524 . S
C921 C918 1.403 . S
C921 C922 1.392 . S
C921 C925 1.495 . S
C922 C921 1.392 . S
C922 C923 1.385 . S
C922 C924 1.478 . S
C923 H917 0.930 . S
C923 C919 1.400 . S
C923 C922 1.385 . S
C924 C922 1.478 . S
C924 C926 1.381 . S
C924 C930 1.383 . S
C925 C921 1.495 . S
C925 H931 0.959 . S
C925 H932 0.961 . S
C925 H933 0.960 . S
C926 C924 1.381 . S
C926 C927 1.394 . S
C926 H934 0.930 . S
C927 C926 1.394 . S
C927 C928 1.383 . S
C927 H935 0.929 . S
C928 C927 1.383 . S
C928 C929 1.377 . S
C929 H913 0.930 . S
C929 C928 1.377 . S
C929 C930 1.379 . S
C930 H914 0.931 . S
C930 C924 1.383 . S
C930 C929 1.379 . S
H931 C925 0.959 . S
H932 C925 0.961 . S
H933 C925 0.960 . S
H934 C926 0.930 . S
H935 C927 0.929 . S
H936 C944 0.929 . S
H937 C946 0.930 . S
H938 C948 0.930 . S
H939 C951 0.929 . S
H940 C954 0.930 . S
H941 C956 0.960 . S
H942 C956 0.960 . S
H943 C956 0.960 . S
C944 H936 0.929 . S
C944 C945 1.377 . S
C944 C946 1.384 . S
C945 C944 1.377 . S
C945 C951 1.390 . S
C946 H937 0.930 . S
C946 C944 1.384 . S
C946 C947 1.372 . S
C947 C946 1.372 . S
C947 C948 1.400 . S
C947 C952 1.490 . S
C948 H938 0.930 . S
C948 C947 1.400 . S
C948 C951 1.386 . S
H949 C965 0.930 . S
H950 C966 0.931 . S
C951 H939 0.929 . S
C951 C945 1.390 . S
C951 C948 1.386 . S
C952 C947 1.490 . S
C952 C954 1.395 . S
C952 C955 1.403 . S
H953 C959 0.930 . S
C954 H940 0.930 . S
C954 C952 1.395 . S
C954 C957 1.403 . S
C955 C952 1.403 . S
C955 C956 1.524 . S
C955 C959 1.400 . S
C956 H941 0.960 . S
C956 H942 0.960 . S
C956 H943 0.960 . S
C956 C955 1.524 . S
C957 C954 1.403 . S
C957 C958 1.392 . S
C957 C961 1.495 . S
C958 C957 1.392 . S
C958 C959 1.385 . S
C958 C960 1.478 . S
C959 H953 0.930 . S
C959 C955 1.400 . S
C959 C958 1.385 . S
C960 C958 1.478 . S
C960 C962 1.381 . S
C960 C966 1.383 . S
C961 C957 1.495 . S
C961 H967 0.959 . S
C961 H968 0.961 . S
C961 H969 0.960 . S
C962 C960 1.381 . S
C962 C963 1.394 . S
C962 H970 0.930 . S
C963 C962 1.394 . S
C963 C964 1.383 . S
C963 H971 0.929 . S
C964 C963 1.383 . S
C964 C965 1.377 . S
C965 H949 0.930 . S
C965 C964 1.377 . S
C965 C966 1.379 . S
C966 H950 0.931 . S
C966 C960 1.383 . S
C966 C965 1.379 . S
H967 C961 0.959 . S
H968 C961 0.961 . S
H969 C961 0.960 . S
H970 C962 0.930 . S
H971 C963 0.929 . S
H972 C980 0.929 . S
H973 C982 0.930 . S
H974 C984 0.930 . S
H975 C987 0.929 . S
H976 C990 0.930 . S
H977 C992 0.960 . S
H978 C992 0.960 . S
H979 C992 0.960 . S
C980 H972 0.929 . S
C980 C981 1.377 . S
C980 C982 1.384 . S
C981 C980 1.377 . S
C981 C987 1.390 . S
C982 H973 0.930 . S
C982 C980 1.384 . S
C982 C983 1.372 . S
C983 C982 1.372 . S
C983 C984 1.400 . S
C983 C988 1.490 . S
C984 H974 0.930 . S
C984 C983 1.400 . S
C984 C987 1.386 . S
H985 C1001 0.930 . S
H986 C1002 0.931 . S
C987 H975 0.929 . S
C987 C981 1.390 . S
C987 C984 1.386 . S
C988 C983 1.490 . S
C988 C990 1.395 . S
C988 C991 1.403 . S
H989 C995 0.930 . S
C990 H976 0.930 . S
C990 C988 1.395 . S
C990 C993 1.403 . S
C991 C988 1.403 . S
C991 C992 1.524 . S
C991 C995 1.400 . S
C992 H977 0.960 . S
C992 H978 0.960 . S
C992 H979 0.960 . S
C992 C991 1.524 . S
C993 C990 1.403 . S
C993 C994 1.392 . S
C993 C997 1.495 . S
C994 C993 1.392 . S
C994 C995 1.385 . S
C994 C996 1.478 . S
C995 H989 0.930 . S
C995 C991 1.400 . S
C995 C994 1.385 . S
C996 C994 1.478 . S
C996 C998 1.381 . S
C996 C1002 1.383 . S
C997 C993 1.495 . S
C997 H1003 0.959 . S
C997 H1004 0.961 . S
C997 H1005 0.960 . S
C998 C996 1.381 . S
C998 C999 1.394 . S
C998 H1006 0.930 . S
C999 C998 1.394 . S
C999 C1000 1.383 . S
C999 H1007 0.929 . S
C1000 C999 1.383 . S
C1000 C1001 1.377 . S
C1001 H985 0.930 . S
C1001 C1000 1.377 . S
C1001 C1002 1.379 . S
C1002 H986 0.931 . S
C1002 C996 1.383 . S
C1002 C1001 1.379 . S
H1003 C997 0.959 . S
H1004 C997 0.961 . S
H1005 C997 0.960 . S
H1006 C998 0.930 . S
H1007 C999 0.929 . S
H1008 C1016 0.929 . S
H1009 C1018 0.930 . S
H1010 C1020 0.930 . S
H1011 C1023 0.929 . S
H1012 C1026 0.930 . S
H1013 C1028 0.960 . S
H1014 C1028 0.960 . S
H1015 C1028 0.960 . S
C1016 H1008 0.929 . S
C1016 C1017 1.377 . S
C1016 C1018 1.384 . S
C1017 C1016 1.377 . S
C1017 C1023 1.390 . S
C1018 H1009 0.930 . S
C1018 C1016 1.384 . S
C1018 C1019 1.372 . S
C1019 C1018 1.372 . S
C1019 C1020 1.400 . S
C1019 C1024 1.490 . S
C1020 H1010 0.930 . S
C1020 C1019 1.400 . S
C1020 C1023 1.386 . S
H1021 C1037 0.930 . S
H1022 C1038 0.931 . S
C1023 H1011 0.929 . S
C1023 C1017 1.390 . S
C1023 C1020 1.386 . S
C1024 C1019 1.490 . S
C1024 C1026 1.395 . S
C1024 C1027 1.403 . S
H1025 C1031 0.930 . S
C1026 H1012 0.930 . S
C1026 C1024 1.395 . S
C1026 C1029 1.403 . S
C1027 C1024 1.403 . S
C1027 C1028 1.524 . S
C1027 C1031 1.400 . S
C1028 H1013 0.960 . S
C1028 H1014 0.960 . S
C1028 H1015 0.960 . S
C1028 C1027 1.524 . S
C1029 C1026 1.403 . S
C1029 C1030 1.392 . S
C1029 C1033 1.495 . S
C1030 C1029 1.392 . S
C1030 C1031 1.385 . S
C1030 C1032 1.478 . S
C1031 H1025 0.930 . S
C1031 C1027 1.400 . S
C1031 C1030 1.385 . S
C1032 C1030 1.478 . S
C1032 C1034 1.381 . S
C1032 C1038 1.383 . S
C1033 C1029 1.495 . S
C1033 H1039 0.959 . S
C1033 H1040 0.961 . S
C1033 H1041 0.960 . S
C1034 C1032 1.381 . S
C1034 C1035 1.394 1_556 S
C1034 H1042 0.930 . S
C1035 C1034 1.394 1_554 S
C1035 C1036 1.383 . S
C1035 H1043 0.929 . S
C1036 C1035 1.383 . S
C1036 C1037 1.377 . S
C1037 H1021 0.930 . S
C1037 C1036 1.377 . S
C1037 C1038 1.379 1_554 S
C1038 H1022 0.931 . S
C1038 C1032 1.383 . S
C1038 C1037 1.379 1_556 S
H1039 C1033 0.959 . S
H1040 C1033 0.961 . S
H1041 C1033 0.960 . S
H1042 C1034 0.930 . S
H1043 C1035 0.929 . S
H1044 C1052 0.929 . S
H1045 C1054 0.930 . S
H1046 C1056 0.930 . S
H1047 C1059 0.929 . S
H1048 C1062 0.930 . S
H1049 C1064 0.960 . S
H1050 C1064 0.960 . S
H1051 C1064 0.960 . S
C1052 H1044 0.929 . S
C1052 C1053 1.377 . S
C1052 C1054 1.384 . S
C1053 C1052 1.377 . S
C1053 C1059 1.390 . S
C1054 H1045 0.930 . S
C1054 C1052 1.384 . S
C1054 C1055 1.372 . S
C1055 C1054 1.372 . S
C1055 C1056 1.400 . S
C1055 C1060 1.490 . S
C1056 H1046 0.930 . S
C1056 C1055 1.400 . S
C1056 C1059 1.386 . S
H1057 C1073 0.930 . S
H1058 C1074 0.931 . S
C1059 H1047 0.929 . S
C1059 C1053 1.390 . S
C1059 C1056 1.386 . S
C1060 C1055 1.490 . S
C1060 C1062 1.395 . S
C1060 C1063 1.403 . S
H1061 C1067 0.930 . S
C1062 H1048 0.930 . S
C1062 C1060 1.395 . S
C1062 C1065 1.403 . S
C1063 C1060 1.403 . S
C1063 C1064 1.524 . S
C1063 C1067 1.400 . S
C1064 H1049 0.960 . S
C1064 H1050 0.960 . S
C1064 H1051 0.960 . S
C1064 C1063 1.524 . S
C1065 C1062 1.403 . S
C1065 C1066 1.392 . S
C1065 C1069 1.495 . S
C1066 C1065 1.392 . S
C1066 C1067 1.385 . S
C1066 C1068 1.478 . S
C1067 H1061 0.930 . S
C1067 C1063 1.400 . S
C1067 C1066 1.385 . S
C1068 C1066 1.478 . S
C1068 C1070 1.381 . S
C1068 C1074 1.383 . S
C1069 C1065 1.495 . S
C1069 H1075 0.959 . S
C1069 H1076 0.961 . S
C1069 H1077 0.960 . S
C1070 C1068 1.381 . S
C1070 C1071 1.394 1_556 S
C1070 H1078 0.930 . S
C1071 C1070 1.394 1_554 S
C1071 C1072 1.383 . S
C1071 H1079 0.929 . S
C1072 C1071 1.383 . S
C1072 C1073 1.377 . S
C1073 H1057 0.930 . S
C1073 C1072 1.377 . S
C1073 C1074 1.379 1_554 S
C1074 H1058 0.931 . S
C1074 C1068 1.383 . S
C1074 C1073 1.379 1_556 S
H1075 C1069 0.959 . S
H1076 C1069 0.961 . S
H1077 C1069 0.960 . S
H1078 C1070 0.930 . S
H1079 C1071 0.929 . S
H1080 C1088 0.929 . S
H1081 C1090 0.930 . S
H1082 C1092 0.930 . S
H1083 C1095 0.929 . S
H1084 C1098 0.930 . S
H1085 C1100 0.960 . S
H1086 C1100 0.960 . S
H1087 C1100 0.960 . S
C1088 H1080 0.929 . S
C1088 C1089 1.377 . S
C1088 C1090 1.384 . S
C1089 C1088 1.377 . S
C1089 C1095 1.390 . S
C1090 H1081 0.930 . S
C1090 C1088 1.384 . S
C1090 C1091 1.372 . S
C1091 C1090 1.372 . S
C1091 C1092 1.400 . S
C1091 C1096 1.490 . S
C1092 H1082 0.930 . S
C1092 C1091 1.400 . S
C1092 C1095 1.386 . S
H1093 C1109 0.930 . S
H1094 C1110 0.931 . S
C1095 H1083 0.929 . S
C1095 C1089 1.390 . S
C1095 C1092 1.386 . S
C1096 C1091 1.490 . S
C1096 C1098 1.395 . S
C1096 C1099 1.403 . S
H1097 C1103 0.930 . S
C1098 H1084 0.930 . S
C1098 C1096 1.395 . S
C1098 C1101 1.403 . S
C1099 C1096 1.403 . S
C1099 C1100 1.524 . S
C1099 C1103 1.400 . S
C1100 H1085 0.960 . S
C1100 H1086 0.960 . S
C1100 H1087 0.960 . S
C1100 C1099 1.524 . S
C1101 C1098 1.403 . S
C1101 C1102 1.392 . S
C1101 C1105 1.495 . S
C1102 C1101 1.392 . S
C1102 C1103 1.385 . S
C1102 C1104 1.478 . S
C1103 H1097 0.930 . S
C1103 C1099 1.400 . S
C1103 C1102 1.385 . S
C1104 C1102 1.478 . S
C1104 C1106 1.381 . S
C1104 C1110 1.383 . S
C1105 C1101 1.495 . S
C1105 H1111 0.959 . S
C1105 H1112 0.961 . S
C1105 H1113 0.960 . S
C1106 C1104 1.381 . S
C1106 C1107 1.394 1_556 S
C1106 H1114 0.930 . S
C1107 C1106 1.394 1_554 S
C1107 C1108 1.383 . S
C1107 H1115 0.929 . S
C1108 C1107 1.383 . S
C1108 C1109 1.377 . S
C1109 H1093 0.930 . S
C1109 C1108 1.377 . S
C1109 C1110 1.379 1_554 S
C1110 H1094 0.931 . S
C1110 C1104 1.383 . S
C1110 C1109 1.379 1_556 S
H1111 C1105 0.959 . S
H1112 C1105 0.961 . S
H1113 C1105 0.960 . S
H1114 C1106 0.930 . S
H1115 C1107 0.929 . S
H1116 C1124 0.929 . S
H1117 C1126 0.930 . S
H1118 C1128 0.930 . S
H1119 C1131 0.929 . S
H1120 C1134 0.930 . S
H1121 C1136 0.960 . S
H1122 C1136 0.960 . S
H1123 C1136 0.960 . S
C1124 H1116 0.929 . S
C1124 C1125 1.377 . S
C1124 C1126 1.384 . S
C1125 C1124 1.377 . S
C1125 C1131 1.390 . S
C1126 H1117 0.930 . S
C1126 C1124 1.384 . S
C1126 C1127 1.372 . S
C1127 C1126 1.372 . S
C1127 C1128 1.400 . S
C1127 C1132 1.490 . S
C1128 H1118 0.930 . S
C1128 C1127 1.400 . S
C1128 C1131 1.386 . S
H1129 C1145 0.930 . S
H1130 C1146 0.931 . S
C1131 H1119 0.929 . S
C1131 C1125 1.390 . S
C1131 C1128 1.386 . S
C1132 C1127 1.490 . S
C1132 C1134 1.395 . S
C1132 C1135 1.403 . S
H1133 C1139 0.930 . S
C1134 H1120 0.930 . S
C1134 C1132 1.395 . S
C1134 C1137 1.403 . S
C1135 C1132 1.403 . S
C1135 C1136 1.524 . S
C1135 C1139 1.400 . S
C1136 H1121 0.960 . S
C1136 H1122 0.960 . S
C1136 H1123 0.960 . S
C1136 C1135 1.524 . S
C1137 C1134 1.403 . S
C1137 C1138 1.392 . S
C1137 C1141 1.495 . S
C1138 C1137 1.392 . S
C1138 C1139 1.385 . S
C1138 C1140 1.478 . S
C1139 H1133 0.930 . S
C1139 C1135 1.400 . S
C1139 C1138 1.385 . S
C1140 C1138 1.478 . S
C1140 C1142 1.381 . S
C1140 C1146 1.383 . S
C1141 C1137 1.495 . S
C1141 H1147 0.959 . S
C1141 H1148 0.961 . S
C1141 H1149 0.960 . S
C1142 C1140 1.381 . S
C1142 C1143 1.394 . S
C1142 H1150 0.930 . S
C1143 C1142 1.394 . S
C1143 C1144 1.383 . S
C1143 H1151 0.929 . S
C1144 C1143 1.383 . S
C1144 C1145 1.377 . S
C1145 H1129 0.930 . S
C1145 C1144 1.377 . S
C1145 C1146 1.379 . S
C1146 H1130 0.931 . S
C1146 C1140 1.383 . S
C1146 C1145 1.379 . S
H1147 C1141 0.959 . S
H1148 C1141 0.961 . S
H1149 C1141 0.960 . S
H1150 C1142 0.930 . S
H1151 C1143 0.929 . S
H1152 C1160 0.929 . S
H1153 C1162 0.930 . S
H1154 C1164 0.930 . S
H1155 C1167 0.929 . S
H1156 C1170 0.930 . S
H1157 C1172 0.960 . S
H1158 C1172 0.960 . S
H1159 C1172 0.960 . S
C1160 H1152 0.929 . S
C1160 C1161 1.377 . S
C1160 C1162 1.384 . S
C1161 C1160 1.377 . S
C1161 C1167 1.390 . S
C1162 H1153 0.930 . S
C1162 C1160 1.384 . S
C1162 C1163 1.372 . S
C1163 C1162 1.372 . S
C1163 C1164 1.400 . S
C1163 C1168 1.490 . S
C1164 H1154 0.930 . S
C1164 C1163 1.400 . S
C1164 C1167 1.386 . S
H1165 C1181 0.930 . S
H1166 C1182 0.931 . S
C1167 H1155 0.929 . S
C1167 C1161 1.390 . S
C1167 C1164 1.386 . S
C1168 C1163 1.490 . S
C1168 C1170 1.395 . S
C1168 C1171 1.403 . S
H1169 C1175 0.930 . S
C1170 H1156 0.930 . S
C1170 C1168 1.395 . S
C1170 C1173 1.403 . S
C1171 C1168 1.403 . S
C1171 C1172 1.524 . S
C1171 C1175 1.400 . S
C1172 H1157 0.960 . S
C1172 H1158 0.960 . S
C1172 H1159 0.960 . S
C1172 C1171 1.524 . S
C1173 C1170 1.403 . S
C1173 C1174 1.392 . S
C1173 C1177 1.495 . S
C1174 C1173 1.392 . S
C1174 C1175 1.385 . S
C1174 C1176 1.478 . S
C1175 H1169 0.930 . S
C1175 C1171 1.400 . S
C1175 C1174 1.385 . S
C1176 C1174 1.478 . S
C1176 C1178 1.381 . S
C1176 C1182 1.383 . S
C1177 C1173 1.495 . S
C1177 H1183 0.959 . S
C1177 H1184 0.961 . S
C1177 H1185 0.960 . S
C1178 C1176 1.381 . S
C1178 C1179 1.394 . S
C1178 H1186 0.930 . S
C1179 C1178 1.394 . S
C1179 C1180 1.383 . S
C1179 H1187 0.929 . S
C1180 C1179 1.383 . S
C1180 C1181 1.377 . S
C1181 H1165 0.930 . S
C1181 C1180 1.377 . S
C1181 C1182 1.379 . S
C1182 H1166 0.931 . S
C1182 C1176 1.383 . S
C1182 C1181 1.379 . S
H1183 C1177 0.959 . S
H1184 C1177 0.961 . S
H1185 C1177 0.960 . S
H1186 C1178 0.930 . S
H1187 C1179 0.929 . S
H1188 C1196 0.929 . S
H1189 C1198 0.930 . S
H1190 C1200 0.930 . S
H1191 C1203 0.929 . S
H1192 C1206 0.930 . S
H1193 C1208 0.960 . S
H1194 C1208 0.960 . S
H1195 C1208 0.960 . S
C1196 H1188 0.929 . S
C1196 C1197 1.377 . S
C1196 C1198 1.384 . S
C1197 C1196 1.377 . S
C1197 C1203 1.390 . S
C1198 H1189 0.930 . S
C1198 C1196 1.384 . S
C1198 C1199 1.372 . S
C1199 C1198 1.372 . S
C1199 C1200 1.400 . S
C1199 C1204 1.490 . S
C1200 H1190 0.930 . S
C1200 C1199 1.400 . S
C1200 C1203 1.386 . S
H1201 C1217 0.930 . S
H1202 C1218 0.931 . S
C1203 H1191 0.929 . S
C1203 C1197 1.390 . S
C1203 C1200 1.386 . S
C1204 C1199 1.490 . S
C1204 C1206 1.395 . S
C1204 C1207 1.403 . S
H1205 C1211 0.930 . S
C1206 H1192 0.930 . S
C1206 C1204 1.395 . S
C1206 C1209 1.403 . S
C1207 C1204 1.403 . S
C1207 C1208 1.524 . S
C1207 C1211 1.400 . S
C1208 H1193 0.960 . S
C1208 H1194 0.960 . S
C1208 H1195 0.960 . S
C1208 C1207 1.524 . S
C1209 C1206 1.403 . S
C1209 C1210 1.392 . S
C1209 C1213 1.495 . S
C1210 C1209 1.392 . S
C1210 C1211 1.385 . S
C1210 C1212 1.478 . S
C1211 H1205 0.930 . S
C1211 C1207 1.400 . S
C1211 C1210 1.385 . S
C1212 C1210 1.478 . S
C1212 C1214 1.381 . S
C1212 C1218 1.383 . S
C1213 C1209 1.495 . S
C1213 H1219 0.959 . S
C1213 H1220 0.961 . S
C1213 H1221 0.960 . S
C1214 C1212 1.381 . S
C1214 C1215 1.394 . S
C1214 H1222 0.930 . S
C1215 C1214 1.394 . S
C1215 C1216 1.383 . S
C1215 H1223 0.929 . S
C1216 C1215 1.383 . S
C1216 C1217 1.377 . S
C1217 H1201 0.930 . S
C1217 C1216 1.377 . S
C1217 C1218 1.379 . S
C1218 H1202 0.931 . S
C1218 C1212 1.383 . S
C1218 C1217 1.379 . S
H1219 C1213 0.959 . S
H1220 C1213 0.961 . S
H1221 C1213 0.960 . S
H1222 C1214 0.930 . S
H1223 C1215 0.929 . S
H1224 C1232 0.929 . S
H1225 C1234 0.930 . S
H1226 C1236 0.930 . S
H1227 C1239 0.929 . S
H1228 C1242 0.930 . S
H1229 C1244 0.960 . S
H1230 C1244 0.960 . S
H1231 C1244 0.960 . S
C1232 H1224 0.929 . S
C1232 C1233 1.377 . S
C1232 C1234 1.384 . S
C1233 C1232 1.377 . S
C1233 C1239 1.390 . S
C1234 H1225 0.930 . S
C1234 C1232 1.384 . S
C1234 C1235 1.372 . S
C1235 C1234 1.372 . S
C1235 C1236 1.400 . S
C1235 C1240 1.490 . S
C1236 H1226 0.930 . S
C1236 C1235 1.400 . S
C1236 C1239 1.386 . S
H1237 C1253 0.930 . S
H1238 C1254 0.931 . S
C1239 H1227 0.929 . S
C1239 C1233 1.390 . S
C1239 C1236 1.386 . S
C1240 C1235 1.490 . S
C1240 C1242 1.395 . S
C1240 C1243 1.403 . S
H1241 C1247 0.930 . S
C1242 H1228 0.930 . S
C1242 C1240 1.395 . S
C1242 C1245 1.403 . S
C1243 C1240 1.403 . S
C1243 C1244 1.524 . S
C1243 C1247 1.400 . S
C1244 H1229 0.960 . S
C1244 H1230 0.960 . S
C1244 H1231 0.960 . S
C1244 C1243 1.524 . S
C1245 C1242 1.403 . S
C1245 C1246 1.392 . S
C1245 C1249 1.495 . S
C1246 C1245 1.392 . S
C1246 C1247 1.385 . S
C1246 C1248 1.478 . S
C1247 H1241 0.930 . S
C1247 C1243 1.400 . S
C1247 C1246 1.385 . S
C1248 C1246 1.478 . S
C1248 C1250 1.381 . S
C1248 C1254 1.383 . S
C1249 C1245 1.495 . S
C1249 H1255 0.959 . S
C1249 H1256 0.961 . S
C1249 H1257 0.960 . S
C1250 C1248 1.381 . S
C1250 C1251 1.394 . S
C1250 H1258 0.930 . S
C1251 C1250 1.394 . S
C1251 C1252 1.383 . S
C1251 H1259 0.929 . S
C1252 C1251 1.383 . S
C1252 C1253 1.377 . S
C1253 H1237 0.930 . S
C1253 C1252 1.377 . S
C1253 C1254 1.379 . S
C1254 H1238 0.931 . S
C1254 C1248 1.383 . S
C1254 C1253 1.379 . S
H1255 C1249 0.959 . S
H1256 C1249 0.961 . S
H1257 C1249 0.960 . S
H1258 C1250 0.930 . S
H1259 C1251 0.929 . S
H1260 C1268 0.929 . S
H1261 C1270 0.930 . S
H1262 C1272 0.930 . S
H1263 C1275 0.929 . S
H1264 C1278 0.930 . S
H1265 C1280 0.960 . S
H1266 C1280 0.960 . S
H1267 C1280 0.960 . S
C1268 H1260 0.929 . S
C1268 C1269 1.377 . S
C1268 C1270 1.384 . S
C1269 C1268 1.377 . S
C1269 C1275 1.390 . S
C1270 H1261 0.930 . S
C1270 C1268 1.384 . S
C1270 C1271 1.372 . S
C1271 C1270 1.372 . S
C1271 C1272 1.400 . S
C1271 C1276 1.490 . S
C1272 H1262 0.930 . S
C1272 C1271 1.400 . S
C1272 C1275 1.386 . S
H1273 C1289 0.930 . S
H1274 C1290 0.931 . S
C1275 H1263 0.929 . S
C1275 C1269 1.390 . S
C1275 C1272 1.386 . S
C1276 C1271 1.490 . S
C1276 C1278 1.395 . S
C1276 C1279 1.403 . S
H1277 C1283 0.930 . S
C1278 H1264 0.930 . S
C1278 C1276 1.395 . S
C1278 C1281 1.403 . S
C1279 C1276 1.403 . S
C1279 C1280 1.524 . S
C1279 C1283 1.400 . S
C1280 H1265 0.960 . S
C1280 H1266 0.960 . S
C1280 H1267 0.960 . S
C1280 C1279 1.524 . S
C1281 C1278 1.403 . S
C1281 C1282 1.392 . S
C1281 C1285 1.495 . S
C1282 C1281 1.392 . S
C1282 C1283 1.385 . S
C1282 C1284 1.478 . S
C1283 H1277 0.930 . S
C1283 C1279 1.400 . S
C1283 C1282 1.385 . S
C1284 C1282 1.478 . S
C1284 C1286 1.381 . S
C1284 C1290 1.383 . S
C1285 C1281 1.495 . S
C1285 H1291 0.959 . S
C1285 H1292 0.961 . S
C1285 H1293 0.960 . S
C1286 C1284 1.381 . S
C1286 C1287 1.394 . S
C1286 H1294 0.930 . S
C1287 C1286 1.394 . S
C1287 C1288 1.383 . S
C1287 H1295 0.929 . S
C1288 C1287 1.383 . S
C1288 C1289 1.377 . S
C1289 H1273 0.930 . S
C1289 C1288 1.377 . S
C1289 C1290 1.379 . S
C1290 H1274 0.931 . S
C1290 C1284 1.383 . S
C1290 C1289 1.379 . S
H1291 C1285 0.959 . S
H1292 C1285 0.961 . S
H1293 C1285 0.960 . S
H1294 C1286 0.930 . S
H1295 C1287 0.929 . S
H1296 C1304 0.929 . S
H1297 C1306 0.930 . S
H1298 C1308 0.930 . S
H1299 C1311 0.929 . S
H1300 C1314 0.930 . S
H1301 C1316 0.960 . S
H1302 C1316 0.960 . S
H1303 C1316 0.960 . S
C1304 H1296 0.929 . S
C1304 C1305 1.377 . S
C1304 C1306 1.384 . S
C1305 C1304 1.377 . S
C1305 C1311 1.390 . S
C1306 H1297 0.930 . S
C1306 C1304 1.384 . S
C1306 C1307 1.372 . S
C1307 C1306 1.372 . S
C1307 C1308 1.400 . S
C1307 C1312 1.490 . S
C1308 H1298 0.930 . S
C1308 C1307 1.400 . S
C1308 C1311 1.386 . S
H1309 C1325 0.930 . S
H1310 C1326 0.931 . S
C1311 H1299 0.929 . S
C1311 C1305 1.390 . S
C1311 C1308 1.386 . S
C1312 C1307 1.490 . S
C1312 C1314 1.395 . S
C1312 C1315 1.403 . S
H1313 C1319 0.930 . S
C1314 H1300 0.930 . S
C1314 C1312 1.395 . S
C1314 C1317 1.403 . S
C1315 C1312 1.403 . S
C1315 C1316 1.524 . S
C1315 C1319 1.400 . S
C1316 H1301 0.960 . S
C1316 H1302 0.960 . S
C1316 H1303 0.960 . S
C1316 C1315 1.524 . S
C1317 C1314 1.403 . S
C1317 C1318 1.392 . S
C1317 C1321 1.495 . S
C1318 C1317 1.392 . S
C1318 C1319 1.385 . S
C1318 C1320 1.478 . S
C1319 H1313 0.930 . S
C1319 C1315 1.400 . S
C1319 C1318 1.385 . S
C1320 C1318 1.478 . S
C1320 C1322 1.381 . S
C1320 C1326 1.383 . S
C1321 C1317 1.495 . S
C1321 H1327 0.959 . S
C1321 H1328 0.961 . S
C1321 H1329 0.960 . S
C1322 C1320 1.381 . S
C1322 C1323 1.394 . S
C1322 H1330 0.930 . S
C1323 C1322 1.394 . S
C1323 C1324 1.383 . S
C1323 H1331 0.929 . S
C1324 C1323 1.383 . S
C1324 C1325 1.377 . S
C1325 H1309 0.930 . S
C1325 C1324 1.377 . S
C1325 C1326 1.379 . S
C1326 H1310 0.931 . S
C1326 C1320 1.383 . S
C1326 C1325 1.379 . S
H1327 C1321 0.959 . S
H1328 C1321 0.961 . S
H1329 C1321 0.960 . S
H1330 C1322 0.930 . S
H1331 C1323 0.929 . S
H1332 C1340 0.929 . S
H1333 C1342 0.930 . S
H1334 C1344 0.930 . S
H1335 C1347 0.929 . S
H1336 C1350 0.930 . S
H1337 C1352 0.960 . S
H1338 C1352 0.960 . S
H1339 C1352 0.960 . S
C1340 H1332 0.929 . S
C1340 C1341 1.377 . S
C1340 C1342 1.384 . S
C1341 C1340 1.377 . S
C1341 C1347 1.390 . S
C1342 H1333 0.930 . S
C1342 C1340 1.384 . S
C1342 C1343 1.372 . S
C1343 C1342 1.372 . S
C1343 C1344 1.400 . S
C1343 C1348 1.490 . S
C1344 H1334 0.930 . S
C1344 C1343 1.400 . S
C1344 C1347 1.386 . S
H1345 C1361 0.930 . S
H1346 C1362 0.931 . S
C1347 H1335 0.929 . S
C1347 C1341 1.390 . S
C1347 C1344 1.386 . S
C1348 C1343 1.490 . S
C1348 C1350 1.395 . S
C1348 C1351 1.403 . S
H1349 C1355 0.930 . S
C1350 H1336 0.930 . S
C1350 C1348 1.395 . S
C1350 C1353 1.403 . S
C1351 C1348 1.403 . S
C1351 C1352 1.524 . S
C1351 C1355 1.400 . S
C1352 H1337 0.960 . S
C1352 H1338 0.960 . S
C1352 H1339 0.960 . S
C1352 C1351 1.524 . S
C1353 C1350 1.403 . S
C1353 C1354 1.392 . S
C1353 C1357 1.495 . S
C1354 C1353 1.392 . S
C1354 C1355 1.385 . S
C1354 C1356 1.478 . S
C1355 H1349 0.930 . S
C1355 C1351 1.400 . S
C1355 C1354 1.385 . S
C1356 C1354 1.478 . S
C1356 C1358 1.381 . S
C1356 C1362 1.383 . S
C1357 C1353 1.495 . S
C1357 H1363 0.959 . S
C1357 H1364 0.961 . S
C1357 H1365 0.960 . S
C1358 C1356 1.381 . S
C1358 C1359 1.394 . S
C1358 H1366 0.930 . S
C1359 C1358 1.394 . S
C1359 C1360 1.383 . S
C1359 H1367 0.929 . S
C1360 C1359 1.383 . S
C1360 C1361 1.377 . S
C1361 H1345 0.930 . S
C1361 C1360 1.377 . S
C1361 C1362 1.379 . S
C1362 H1346 0.931 . S
C1362 C1356 1.383 . S
C1362 C1361 1.379 . S
H1363 C1357 0.959 . S
H1364 C1357 0.961 . S
H1365 C1357 0.960 . S
H1366 C1358 0.930 . S
H1367 C1359 0.929 . S
H1368 C1376 0.929 . S
H1369 C1378 0.930 . S
H1370 C1380 0.930 . S
H1371 C1383 0.929 . S
H1372 C1386 0.930 . S
H1373 C1388 0.960 . S
H1374 C1388 0.960 . S
H1375 C1388 0.960 . S
C1376 H1368 0.929 . S
C1376 C1377 1.377 . S
C1376 C1378 1.384 . S
C1377 C1376 1.377 . S
C1377 C1383 1.390 . S
C1378 H1369 0.930 . S
C1378 C1376 1.384 . S
C1378 C1379 1.372 . S
C1379 C1378 1.372 . S
C1379 C1380 1.400 . S
C1379 C1384 1.490 . S
C1380 H1370 0.930 . S
C1380 C1379 1.400 . S
C1380 C1383 1.386 . S
H1381 C1397 0.930 . S
H1382 C1398 0.931 . S
C1383 H1371 0.929 . S
C1383 C1377 1.390 . S
C1383 C1380 1.386 . S
C1384 C1379 1.490 . S
C1384 C1386 1.395 . S
C1384 C1387 1.403 . S
H1385 C1391 0.930 . S
C1386 H1372 0.930 . S
C1386 C1384 1.395 . S
C1386 C1389 1.403 . S
C1387 C1384 1.403 . S
C1387 C1388 1.524 . S
C1387 C1391 1.400 . S
C1388 H1373 0.960 . S
C1388 H1374 0.960 . S
C1388 H1375 0.960 . S
C1388 C1387 1.524 . S
C1389 C1386 1.403 . S
C1389 C1390 1.392 . S
C1389 C1393 1.495 . S
C1390 C1389 1.392 . S
C1390 C1391 1.385 . S
C1390 C1392 1.478 . S
C1391 H1385 0.930 . S
C1391 C1387 1.400 . S
C1391 C1390 1.385 . S
C1392 C1390 1.478 . S
C1392 C1394 1.381 . S
C1392 C1398 1.383 . S
C1393 C1389 1.495 . S
C1393 H1399 0.959 . S
C1393 H1400 0.961 . S
C1393 H1401 0.960 . S
C1394 C1392 1.381 . S
C1394 C1395 1.394 . S
C1394 H1402 0.930 . S
C1395 C1394 1.394 . S
C1395 C1396 1.383 . S
C1395 H1403 0.929 . S
C1396 C1395 1.383 . S
C1396 C1397 1.377 . S
C1397 H1381 0.930 . S
C1397 C1396 1.377 . S
C1397 C1398 1.379 . S
C1398 H1382 0.931 . S
C1398 C1392 1.383 . S
C1398 C1397 1.379 . S
H1399 C1393 0.959 . S
H1400 C1393 0.961 . S
H1401 C1393 0.960 . S
H1402 C1394 0.930 . S
H1403 C1395 0.929 . S
H1404 C1412 0.929 . S
H1405 C1414 0.930 . S
H1406 C1416 0.930 . S
H1407 C1419 0.929 . S
H1408 C1422 0.930 . S
H1409 C1424 0.960 . S
H1410 C1424 0.960 . S
H1411 C1424 0.960 . S
C1412 H1404 0.929 . S
C1412 C1413 1.377 . S
C1412 C1414 1.384 . S
C1413 C1412 1.377 . S
C1413 C1419 1.390 . S
C1414 H1405 0.930 . S
C1414 C1412 1.384 . S
C1414 C1415 1.372 . S
C1415 C1414 1.372 . S
C1415 C1416 1.400 . S
C1415 C1420 1.490 . S
C1416 H1406 0.930 . S
C1416 C1415 1.400 . S
C1416 C1419 1.386 . S
H1417 C1433 0.930 . S
H1418 C1434 0.931 . S
C1419 H1407 0.929 . S
C1419 C1413 1.390 . S
C1419 C1416 1.386 . S
C1420 C1415 1.490 . S
C1420 C1422 1.395 . S
C1420 C1423 1.403 . S
H1421 C1427 0.930 . S
C1422 H1408 0.930 . S
C1422 C1420 1.395 . S
C1422 C1425 1.403 . S
C1423 C1420 1.403 . S
C1423 C1424 1.524 . S
C1423 C1427 1.400 . S
C1424 H1409 0.960 . S
C1424 H1410 0.960 . S
C1424 H1411 0.960 . S
C1424 C1423 1.524 . S
C1425 C1422 1.403 . S
C1425 C1426 1.392 . S
C1425 C1429 1.495 . S
C1426 C1425 1.392 . S
C1426 C1427 1.385 . S
C1426 C1428 1.478 . S
C1427 H1421 0.930 . S
C1427 C1423 1.400 . S
C1427 C1426 1.385 . S
C1428 C1426 1.478 . S
C1428 C1430 1.381 . S
C1428 C1434 1.383 . S
C1429 C1425 1.495 . S
C1429 H1435 0.959 . S
C1429 H1436 0.961 . S
C1429 H1437 0.960 . S
C1430 C1428 1.381 . S
C1430 C1431 1.394 . S
C1430 H1438 0.930 . S
C1431 C1430 1.394 . S
C1431 C1432 1.383 . S
C1431 H1439 0.929 . S
C1432 C1431 1.383 . S
C1432 C1433 1.377 . S
C1433 H1417 0.930 . S
C1433 C1432 1.377 . S
C1433 C1434 1.379 . S
C1434 H1418 0.931 . S
C1434 C1428 1.383 . S
C1434 C1433 1.379 . S
H1435 C1429 0.959 . S
H1436 C1429 0.961 . S
H1437 C1429 0.960 . S
H1438 C1430 0.930 . S
H1439 C1431 0.929 . S
H1440 C1448 0.929 . S
H1441 C1450 0.930 . S
H1442 C1452 0.930 . S
H1443 C1455 0.929 . S
H1444 C1458 0.930 . S
H1445 C1460 0.960 . S
H1446 C1460 0.960 . S
H1447 C1460 0.960 . S
C1448 H1440 0.929 . S
C1448 C1449 1.377 . S
C1448 C1450 1.384 . S
C1449 C1448 1.377 . S
C1449 C1455 1.390 . S
C1450 H1441 0.930 . S
C1450 C1448 1.384 . S
C1450 C1451 1.372 . S
C1451 C1450 1.372 . S
C1451 C1452 1.400 . S
C1451 C1456 1.490 . S
C1452 H1442 0.930 . S
C1452 C1451 1.400 . S
C1452 C1455 1.386 . S
H1453 C1469 0.930 . S
H1454 C1470 0.931 . S
C1455 H1443 0.929 . S
C1455 C1449 1.390 . S
C1455 C1452 1.386 . S
C1456 C1451 1.490 . S
C1456 C1458 1.395 . S
C1456 C1459 1.403 . S
H1457 C1463 0.930 . S
C1458 H1444 0.930 . S
C1458 C1456 1.395 . S
C1458 C1461 1.403 . S
C1459 C1456 1.403 . S
C1459 C1460 1.524 . S
C1459 C1463 1.400 . S
C1460 H1445 0.960 . S
C1460 H1446 0.960 . S
C1460 H1447 0.960 . S
C1460 C1459 1.524 . S
C1461 C1458 1.403 . S
C1461 C1462 1.392 . S
C1461 C1465 1.495 . S
C1462 C1461 1.392 . S
C1462 C1463 1.385 . S
C1462 C1464 1.478 . S
C1463 H1457 0.930 . S
C1463 C1459 1.400 . S
C1463 C1462 1.385 . S
C1464 C1462 1.478 . S
C1464 C1466 1.381 . S
C1464 C1470 1.383 . S
C1465 C1461 1.495 . S
C1465 H1471 0.959 . S
C1465 H1472 0.961 . S
C1465 H1473 0.960 . S
C1466 C1464 1.381 . S
C1466 C1467 1.394 . S
C1466 H1474 0.930 . S
C1467 C1466 1.394 . S
C1467 C1468 1.383 . S
C1467 H1475 0.929 . S
C1468 C1467 1.383 . S
C1468 C1469 1.377 . S
C1469 H1453 0.930 . S
C1469 C1468 1.377 . S
C1469 C1470 1.379 . S
C1470 H1454 0.931 . S
C1470 C1464 1.383 . S
C1470 C1469 1.379 . S
H1471 C1465 0.959 . S
H1472 C1465 0.961 . S
H1473 C1465 0.960 . S
H1474 C1466 0.930 . S
H1475 C1467 0.929 . S
H1476 C1484 0.929 . S
H1477 C1486 0.930 . S
H1478 C1488 0.930 . S
H1479 C1491 0.929 . S
H1480 C1494 0.930 . S
H1481 C1496 0.960 . S
H1482 C1496 0.960 . S
H1483 C1496 0.960 . S
C1484 H1476 0.929 . S
C1484 C1485 1.377 . S
C1484 C1486 1.384 . S
C1485 C1484 1.377 . S
C1485 C1491 1.390 . S
C1486 H1477 0.930 . S
C1486 C1484 1.384 . S
C1486 C1487 1.372 . S
C1487 C1486 1.372 . S
C1487 C1488 1.400 . S
C1487 C1492 1.490 . S
C1488 H1478 0.930 . S
C1488 C1487 1.400 . S
C1488 C1491 1.386 . S
H1489 C1505 0.930 . S
H1490 C1506 0.931 . S
C1491 H1479 0.929 . S
C1491 C1485 1.390 . S
C1491 C1488 1.386 . S
C1492 C1487 1.490 . S
C1492 C1494 1.395 . S
C1492 C1495 1.403 . S
H1493 C1499 0.930 . S
C1494 H1480 0.930 . S
C1494 C1492 1.395 . S
C1494 C1497 1.403 . S
C1495 C1492 1.403 . S
C1495 C1496 1.524 . S
C1495 C1499 1.400 . S
C1496 H1481 0.960 . S
C1496 H1482 0.960 . S
C1496 H1483 0.960 . S
C1496 C1495 1.524 . S
C1497 C1494 1.403 . S
C1497 C1498 1.392 . S
C1497 C1501 1.495 . S
C1498 C1497 1.392 . S
C1498 C1499 1.385 . S
C1498 C1500 1.478 . S
C1499 H1493 0.930 . S
C1499 C1495 1.400 . S
C1499 C1498 1.385 . S
C1500 C1498 1.478 . S
C1500 C1502 1.381 . S
C1500 C1506 1.383 . S
C1501 C1497 1.495 . S
C1501 H1507 0.959 . S
C1501 H1508 0.961 . S
C1501 H1509 0.960 . S
C1502 C1500 1.381 . S
C1502 C1503 1.394 . S
C1502 H1510 0.930 . S
C1503 C1502 1.394 . S
C1503 C1504 1.383 . S
C1503 H1511 0.929 . S
C1504 C1503 1.383 . S
C1504 C1505 1.377 . S
C1505 H1489 0.930 . S
C1505 C1504 1.377 . S
C1505 C1506 1.379 . S
C1506 H1490 0.931 . S
C1506 C1500 1.383 . S
C1506 C1505 1.379 . S
H1507 C1501 0.959 . S
H1508 C1501 0.961 . S
H1509 C1501 0.960 . S
H1510 C1502 0.930 . S
H1511 C1503 0.929 . S
H1512 C1520 0.929 . S
H1513 C1522 0.930 . S
H1514 C1524 0.930 . S
H1515 C1527 0.929 . S
H1516 C1530 0.930 . S
H1517 C1532 0.960 . S
H1518 C1532 0.960 . S
H1519 C1532 0.960 . S
C1520 H1512 0.929 . S
C1520 C1521 1.377 . S
C1520 C1522 1.384 . S
C1521 C1520 1.377 . S
C1521 C1527 1.390 . S
C1522 H1513 0.930 . S
C1522 C1520 1.384 . S
C1522 C1523 1.372 . S
C1523 C1522 1.372 . S
C1523 C1524 1.400 . S
C1523 C1528 1.490 . S
C1524 H1514 0.930 . S
C1524 C1523 1.400 . S
C1524 C1527 1.386 . S
H1525 C1541 0.930 . S
H1526 C1542 0.931 . S
C1527 H1515 0.929 . S
C1527 C1521 1.390 . S
C1527 C1524 1.386 . S
C1528 C1523 1.490 . S
C1528 C1530 1.395 . S
C1528 C1531 1.403 . S
H1529 C1535 0.930 . S
C1530 H1516 0.930 . S
C1530 C1528 1.395 . S
C1530 C1533 1.403 . S
C1531 C1528 1.403 . S
C1531 C1532 1.524 . S
C1531 C1535 1.400 . S
C1532 H1517 0.960 . S
C1532 H1518 0.960 . S
C1532 H1519 0.960 . S
C1532 C1531 1.524 . S
C1533 C1530 1.403 . S
C1533 C1534 1.392 . S
C1533 C1537 1.495 . S
C1534 C1533 1.392 . S
C1534 C1535 1.385 . S
C1534 C1536 1.478 . S
C1535 H1529 0.930 . S
C1535 C1531 1.400 . S
C1535 C1534 1.385 . S
C1536 C1534 1.478 . S
C1536 C1538 1.381 . S
C1536 C1542 1.383 . S
C1537 C1533 1.495 . S
C1537 H1543 0.959 . S
C1537 H1544 0.961 . S
C1537 H1545 0.960 . S
C1538 C1536 1.381 . S
C1538 C1539 1.394 . S
C1538 H1546 0.930 . S
C1539 C1538 1.394 . S
C1539 C1540 1.383 . S
C1539 H1547 0.929 . S
C1540 C1539 1.383 . S
C1540 C1541 1.377 . S
C1541 H1525 0.930 . S
C1541 C1540 1.377 . S
C1541 C1542 1.379 . S
C1542 H1526 0.931 . S
C1542 C1536 1.383 . S
C1542 C1541 1.379 . S
H1543 C1537 0.959 . S
H1544 C1537 0.961 . S
H1545 C1537 0.960 . S
H1546 C1538 0.930 . S
H1547 C1539 0.929 . S
H1548 C1556 0.929 . S
H1549 C1558 0.930 . S
H1550 C1560 0.930 . S
H1551 C1563 0.929 . S
H1552 C1566 0.930 . S
H1553 C1568 0.960 . S
H1554 C1568 0.960 . S
H1555 C1568 0.960 . S
C1556 H1548 0.929 . S
C1556 C1557 1.377 . S
C1556 C1558 1.384 . S
C1557 C1556 1.377 . S
C1557 C1563 1.390 . S
C1558 H1549 0.930 . S
C1558 C1556 1.384 . S
C1558 C1559 1.372 . S
C1559 C1558 1.372 . S
C1559 C1560 1.400 . S
C1559 C1564 1.490 . S
C1560 H1550 0.930 . S
C1560 C1559 1.400 . S
C1560 C1563 1.386 . S
H1561 C1577 0.930 . S
H1562 C1578 0.931 . S
C1563 H1551 0.929 . S
C1563 C1557 1.390 . S
C1563 C1560 1.386 . S
C1564 C1559 1.490 . S
C1564 C1566 1.395 . S
C1564 C1567 1.403 . S
H1565 C1571 0.930 . S
C1566 H1552 0.930 . S
C1566 C1564 1.395 . S
C1566 C1569 1.403 . S
C1567 C1564 1.403 . S
C1567 C1568 1.524 . S
C1567 C1571 1.400 . S
C1568 H1553 0.960 . S
C1568 H1554 0.960 . S
C1568 H1555 0.960 . S
C1568 C1567 1.524 . S
C1569 C1566 1.403 . S
C1569 C1570 1.392 . S
C1569 C1573 1.495 . S
C1570 C1569 1.392 . S
C1570 C1571 1.385 . S
C1570 C1572 1.478 . S
C1571 H1565 0.930 . S
C1571 C1567 1.400 . S
C1571 C1570 1.385 . S
C1572 C1570 1.478 . S
C1572 C1574 1.381 . S
C1572 C1578 1.383 . S
C1573 C1569 1.495 . S
C1573 H1579 0.959 . S
C1573 H1580 0.961 . S
C1573 H1581 0.960 . S
C1574 C1572 1.381 . S
C1574 C1575 1.394 . S
C1574 H1582 0.930 . S
C1575 C1574 1.394 . S
C1575 C1576 1.383 . S
C1575 H1583 0.929 . S
C1576 C1575 1.383 . S
C1576 C1577 1.377 . S
C1577 H1561 0.930 . S
C1577 C1576 1.377 . S
C1577 C1578 1.379 . S
C1578 H1562 0.931 . S
C1578 C1572 1.383 . S
C1578 C1577 1.379 . S
H1579 C1573 0.959 . S
H1580 C1573 0.961 . S
H1581 C1573 0.960 . S
H1582 C1574 0.930 . S
H1583 C1575 0.929 . S
H1584 C1592 0.929 . S
H1585 C1594 0.930 . S
H1586 C1596 0.930 . S
H1587 C1599 0.929 . S
H1588 C1602 0.930 . S
H1589 C1604 0.960 . S
H1590 C1604 0.960 . S
H1591 C1604 0.960 . S
C1592 H1584 0.929 . S
C1592 C1593 1.377 . S
C1592 C1594 1.384 . S
C1593 C1592 1.377 . S
C1593 C1599 1.390 . S
C1594 H1585 0.930 . S
C1594 C1592 1.384 . S
C1594 C1595 1.372 . S
C1595 C1594 1.372 . S
C1595 C1596 1.400 . S
C1595 C1600 1.490 . S
C1596 H1586 0.930 . S
C1596 C1595 1.400 . S
C1596 C1599 1.386 . S
H1597 C1613 0.930 . S
H1598 C1614 0.931 . S
C1599 H1587 0.929 . S
C1599 C1593 1.390 . S
C1599 C1596 1.386 . S
C1600 C1595 1.490 . S
C1600 C1602 1.395 . S
C1600 C1603 1.403 . S
H1601 C1607 0.930 . S
C1602 H1588 0.930 . S
C1602 C1600 1.395 . S
C1602 C1605 1.403 . S
C1603 C1600 1.403 . S
C1603 C1604 1.524 . S
C1603 C1607 1.400 . S
C1604 H1589 0.960 . S
C1604 H1590 0.960 . S
C1604 H1591 0.960 . S
C1604 C1603 1.524 . S
C1605 C1602 1.403 . S
C1605 C1606 1.392 . S
C1605 C1609 1.495 . S
C1606 C1605 1.392 . S
C1606 C1607 1.385 . S
C1606 C1608 1.478 . S
C1607 H1601 0.930 . S
C1607 C1603 1.400 . S
C1607 C1606 1.385 . S
C1608 C1606 1.478 . S
C1608 C1610 1.381 . S
C1608 C1614 1.383 . S
C1609 C1605 1.495 . S
C1609 H1615 0.959 . S
C1609 H1616 0.961 . S
C1609 H1617 0.960 . S
C1610 C1608 1.381 . S
C1610 C1611 1.394 . S
C1610 H1618 0.930 . S
C1611 C1610 1.394 . S
C1611 C1612 1.383 . S
C1611 H1619 0.929 . S
C1612 C1611 1.383 . S
C1612 C1613 1.377 . S
C1613 H1597 0.930 . S
C1613 C1612 1.377 . S
C1613 C1614 1.379 . S
C1614 H1598 0.931 . S
C1614 C1608 1.383 . S
C1614 C1613 1.379 . S
H1615 C1609 0.959 . S
H1616 C1609 0.961 . S
H1617 C1609 0.960 . S
H1618 C1610 0.930 . S
H1619 C1611 0.929 . S
H1620 C1628 0.929 . S
H1621 C1630 0.930 . S
H1622 C1632 0.930 . S
H1623 C1635 0.929 . S
H1624 C1638 0.930 . S
H1625 C1640 0.960 . S
H1626 C1640 0.960 . S
H1627 C1640 0.960 . S
C1628 H1620 0.929 . S
C1628 C1629 1.377 . S
C1628 C1630 1.384 . S
C1629 C1628 1.377 . S
C1629 C1635 1.390 . S
C1630 H1621 0.930 . S
C1630 C1628 1.384 . S
C1630 C1631 1.372 . S
C1631 C1630 1.372 . S
C1631 C1632 1.400 . S
C1631 C1636 1.490 . S
C1632 H1622 0.930 . S
C1632 C1631 1.400 . S
C1632 C1635 1.386 . S
H1633 C1649 0.930 . S
H1634 C1650 0.931 . S
C1635 H1623 0.929 . S
C1635 C1629 1.390 . S
C1635 C1632 1.386 . S
C1636 C1631 1.490 . S
C1636 C1638 1.395 . S
C1636 C1639 1.403 . S
H1637 C1643 0.930 . S
C1638 H1624 0.930 . S
C1638 C1636 1.395 . S
C1638 C1641 1.403 . S
C1639 C1636 1.403 . S
C1639 C1640 1.524 . S
C1639 C1643 1.400 . S
C1640 H1625 0.960 . S
C1640 H1626 0.960 . S
C1640 H1627 0.960 . S
C1640 C1639 1.524 . S
C1641 C1638 1.403 . S
C1641 C1642 1.392 . S
C1641 C1645 1.495 . S
C1642 C1641 1.392 . S
C1642 C1643 1.385 . S
C1642 C1644 1.478 . S
C1643 H1637 0.930 . S
C1643 C1639 1.400 . S
C1643 C1642 1.385 . S
C1644 C1642 1.478 . S
C1644 C1646 1.381 . S
C1644 C1650 1.383 . S
C1645 C1641 1.495 . S
C1645 H1651 0.959 . S
C1645 H1652 0.961 . S
C1645 H1653 0.960 . S
C1646 C1644 1.381 . S
C1646 C1647 1.394 . S
C1646 H1654 0.930 . S
C1647 C1646 1.394 . S
C1647 C1648 1.383 . S
C1647 H1655 0.929 . S
C1648 C1647 1.383 . S
C1648 C1649 1.377 . S
C1649 H1633 0.930 . S
C1649 C1648 1.377 . S
C1649 C1650 1.379 . S
C1650 H1634 0.931 . S
C1650 C1644 1.383 . S
C1650 C1649 1.379 . S
H1651 C1645 0.959 . S
H1652 C1645 0.961 . S
H1653 C1645 0.960 . S
H1654 C1646 0.930 . S
H1655 C1647 0.929 . S
H1656 C1664 0.929 . S
H1657 C1666 0.930 . S
H1658 C1668 0.930 . S
H1659 C1671 0.929 . S
H1660 C1674 0.930 . S
H1661 C1676 0.960 . S
H1662 C1676 0.960 . S
H1663 C1676 0.960 . S
C1664 H1656 0.929 . S
C1664 C1665 1.377 . S
C1664 C1666 1.384 . S
C1665 C1664 1.377 . S
C1665 C1671 1.390 . S
C1666 H1657 0.930 . S
C1666 C1664 1.384 . S
C1666 C1667 1.372 . S
C1667 C1666 1.372 . S
C1667 C1668 1.400 . S
C1667 C1672 1.490 . S
C1668 H1658 0.930 . S
C1668 C1667 1.400 . S
C1668 C1671 1.386 . S
H1669 C1685 0.930 . S
H1670 C1686 0.931 . S
C1671 H1659 0.929 . S
C1671 C1665 1.390 . S
C1671 C1668 1.386 . S
C1672 C1667 1.490 . S
C1672 C1674 1.395 . S
C1672 C1675 1.403 . S
H1673 C1679 0.930 . S
C1674 H1660 0.930 . S
C1674 C1672 1.395 . S
C1674 C1677 1.403 . S
C1675 C1672 1.403 . S
C1675 C1676 1.524 . S
C1675 C1679 1.400 . S
C1676 H1661 0.960 . S
C1676 H1662 0.960 . S
C1676 H1663 0.960 . S
C1676 C1675 1.524 . S
C1677 C1674 1.403 . S
C1677 C1678 1.392 . S
C1677 C1681 1.495 . S
C1678 C1677 1.392 . S
C1678 C1679 1.385 . S
C1678 C1680 1.478 . S
C1679 H1673 0.930 . S
C1679 C1675 1.400 . S
C1679 C1678 1.385 . S
C1680 C1678 1.478 . S
C1680 C1682 1.381 . S
C1680 C1686 1.383 . S
C1681 C1677 1.495 . S
C1681 H1687 0.959 . S
C1681 H1688 0.961 . S
C1681 H1689 0.960 . S
C1682 C1680 1.381 . S
C1682 C1683 1.394 1_554 S
C1682 H1690 0.930 . S
C1683 C1682 1.394 1_556 S
C1683 C1684 1.383 . S
C1683 H1691 0.929 . S
C1684 C1683 1.383 . S
C1684 C1685 1.377 . S
C1685 H1669 0.930 . S
C1685 C1684 1.377 . S
C1685 C1686 1.379 1_556 S
C1686 H1670 0.931 . S
C1686 C1680 1.383 . S
C1686 C1685 1.379 1_554 S
H1687 C1681 0.959 . S
H1688 C1681 0.961 . S
H1689 C1681 0.960 . S
H1690 C1682 0.930 . S
H1691 C1683 0.929 . S
H1692 C1700 0.929 . S
H1693 C1702 0.930 . S
H1694 C1704 0.930 . S
H1695 C1707 0.929 . S
H1696 C1710 0.930 . S
H1697 C1712 0.960 . S
H1698 C1712 0.960 . S
H1699 C1712 0.960 . S
C1700 H1692 0.929 . S
C1700 C1701 1.377 . S
C1700 C1702 1.384 1_556 S
C1701 C1700 1.377 . S
C1701 C1707 1.390 . S
C1702 H1693 0.930 . S
C1702 C1700 1.384 1_554 S
C1702 C1703 1.372 . S
C1703 C1702 1.372 . S
C1703 C1704 1.400 . S
C1703 C1708 1.490 . S
C1704 H1694 0.930 . S
C1704 C1703 1.400 . S
C1704 C1707 1.386 1_554 S
H1705 C1721 0.930 . S
H1706 C1722 0.931 . S
C1707 H1695 0.929 . S
C1707 C1701 1.390 . S
C1707 C1704 1.386 1_556 S
C1708 C1703 1.490 . S
C1708 C1710 1.395 . S
C1708 C1711 1.403 . S
H1709 C1715 0.930 . S
C1710 H1696 0.930 . S
C1710 C1708 1.395 . S
C1710 C1713 1.403 . S
C1711 C1708 1.403 . S
C1711 C1712 1.524 . S
C1711 C1715 1.400 . S
C1712 H1697 0.960 . S
C1712 H1698 0.960 . S
C1712 H1699 0.960 . S
C1712 C1711 1.524 . S
C1713 C1710 1.403 . S
C1713 C1714 1.392 . S
C1713 C1717 1.495 . S
C1714 C1713 1.392 . S
C1714 C1715 1.385 . S
C1714 C1716 1.478 . S
C1715 H1709 0.930 . S
C1715 C1711 1.400 . S
C1715 C1714 1.385 . S
C1716 C1714 1.478 . S
C1716 C1718 1.381 . S
C1716 C1722 1.383 . S
C1717 C1713 1.495 . S
C1717 H1723 0.959 . S
C1717 H1724 0.961 . S
C1717 H1725 0.960 . S
C1718 C1716 1.381 . S
C1718 C1719 1.394 . S
C1718 H1726 0.930 . S
C1719 C1718 1.394 . S
C1719 C1720 1.383 . S
C1719 H1727 0.929 . S
C1720 C1719 1.383 . S
C1720 C1721 1.377 . S
C1721 H1705 0.930 . S
C1721 C1720 1.377 . S
C1721 C1722 1.379 . S
C1722 H1706 0.931 . S
C1722 C1716 1.383 . S
C1722 C1721 1.379 . S
H1723 C1717 0.959 . S
H1724 C1717 0.961 . S
H1725 C1717 0.960 . S
H1726 C1718 0.930 . S
H1727 C1719 0.929 . S
H1728 C1736 0.929 . S
H1729 C1738 0.930 . S
H1730 C1740 0.930 . S
H1731 C1743 0.929 . S
H1732 C1746 0.930 . S
H1733 C1748 0.960 . S
H1734 C1748 0.960 . S
H1735 C1748 0.960 . S
C1736 H1728 0.929 . S
C1736 C1737 1.377 . S
C1736 C1738 1.384 . S
C1737 C1736 1.377 . S
C1737 C1743 1.390 . S
C1738 H1729 0.930 . S
C1738 C1736 1.384 . S
C1738 C1739 1.372 . S
C1739 C1738 1.372 . S
C1739 C1740 1.400 . S
C1739 C1744 1.490 . S
C1740 H1730 0.930 . S
C1740 C1739 1.400 . S
C1740 C1743 1.386 . S
H1741 C1757 0.930 . S
H1742 C1758 0.931 . S
C1743 H1731 0.929 . S
C1743 C1737 1.390 . S
C1743 C1740 1.386 . S
C1744 C1739 1.490 . S
C1744 C1746 1.395 . S
C1744 C1747 1.403 . S
H1745 C1751 0.930 . S
C1746 H1732 0.930 . S
C1746 C1744 1.395 . S
C1746 C1749 1.403 . S
C1747 C1744 1.403 . S
C1747 C1748 1.524 . S
C1747 C1751 1.400 . S
C1748 H1733 0.960 . S
C1748 H1734 0.960 . S
C1748 H1735 0.960 . S
C1748 C1747 1.524 . S
C1749 C1746 1.403 . S
C1749 C1750 1.392 . S
C1749 C1753 1.495 . S
C1750 C1749 1.392 . S
C1750 C1751 1.385 . S
C1750 C1752 1.478 . S
C1751 H1745 0.930 . S
C1751 C1747 1.400 . S
C1751 C1750 1.385 . S
C1752 C1750 1.478 . S
C1752 C1754 1.381 . S
C1752 C1758 1.383 . S
C1753 C1749 1.495 . S
C1753 H1759 0.959 . S
C1753 H1760 0.961 . S
C1753 H1761 0.960 . S
C1754 C1752 1.381 . S
C1754 C1755 1.394 1_554 S
C1754 H1762 0.930 . S
C1755 C1754 1.394 1_556 S
C1755 C1756 1.383 . S
C1755 H1763 0.929 . S
C1756 C1755 1.383 . S
C1756 C1757 1.377 . S
C1757 H1741 0.930 . S
C1757 C1756 1.377 . S
C1757 C1758 1.379 1_556 S
C1758 H1742 0.931 . S
C1758 C1752 1.383 . S
C1758 C1757 1.379 1_554 S
H1759 C1753 0.959 . S
H1760 C1753 0.961 . S
H1761 C1753 0.960 . S
H1762 C1754 0.930 . S
H1763 C1755 0.929 . S
H1764 C1772 0.929 . S
H1765 C1774 0.930 . S
H1766 C1776 0.930 . S
H1767 C1779 0.929 . S
H1768 C1782 0.930 . S
H1769 C1784 0.960 . S
H1770 C1784 0.960 . S
H1771 C1784 0.960 . S
C1772 H1764 0.929 . S
C1772 C1773 1.377 . S
C1772 C1774 1.384 . S
C1773 C1772 1.377 . S
C1773 C1779 1.390 . S
C1774 H1765 0.930 . S
C1774 C1772 1.384 . S
C1774 C1775 1.372 . S
C1775 C1774 1.372 . S
C1775 C1776 1.400 . S
C1775 C1780 1.490 . S
C1776 H1766 0.930 . S
C1776 C1775 1.400 . S
C1776 C1779 1.386 . S
H1777 C1793 0.930 . S
H1778 C1794 0.931 . S
C1779 H1767 0.929 . S
C1779 C1773 1.390 . S
C1779 C1776 1.386 . S
C1780 C1775 1.490 . S
C1780 C1782 1.395 . S
C1780 C1783 1.403 . S
H1781 C1787 0.930 . S
C1782 H1768 0.930 . S
C1782 C1780 1.395 . S
C1782 C1785 1.403 . S
C1783 C1780 1.403 . S
C1783 C1784 1.524 . S
C1783 C1787 1.400 . S
C1784 H1769 0.960 . S
C1784 H1770 0.960 . S
C1784 H1771 0.960 . S
C1784 C1783 1.524 . S
C1785 C1782 1.403 . S
C1785 C1786 1.392 . S
C1785 C1789 1.495 . S
C1786 C1785 1.392 . S
C1786 C1787 1.385 . S
C1786 C1788 1.478 . S
C1787 H1781 0.930 . S
C1787 C1783 1.400 . S
C1787 C1786 1.385 . S
C1788 C1786 1.478 . S
C1788 C1790 1.381 . S
C1788 C1794 1.383 . S
C1789 C1785 1.495 . S
C1789 H1795 0.959 . S
C1789 H1796 0.961 . S
C1789 H1797 0.960 . S
C1790 C1788 1.381 . S
C1790 C1791 1.394 . S
C1790 H1798 0.930 . S
C1791 C1790 1.394 . S
C1791 C1792 1.383 . S
C1791 H1799 0.929 . S
C1792 C1791 1.383 . S
C1792 C1793 1.377 . S
C1793 H1777 0.930 . S
C1793 C1792 1.377 . S
C1793 C1794 1.379 . S
C1794 H1778 0.931 . S
C1794 C1788 1.383 . S
C1794 C1793 1.379 . S
H1795 C1789 0.959 . S
H1796 C1789 0.961 . S
H1797 C1789 0.960 . S
H1798 C1790 0.930 . S
H1799 C1791 0.929 . S
H1800 C1808 0.929 . S
H1801 C1810 0.930 . S
H1802 C1812 0.930 . S
H1803 C1815 0.929 . S
H1804 C1818 0.930 . S
H1805 C1820 0.960 . S
H1806 C1820 0.960 . S
H1807 C1820 0.960 . S
C1808 H1800 0.929 . S
C1808 C1809 1.377 . S
C1808 C1810 1.384 . S
C1809 C1808 1.377 . S
C1809 C1815 1.390 . S
C1810 H1801 0.930 . S
C1810 C1808 1.384 . S
C1810 C1811 1.372 . S
C1811 C1810 1.372 . S
C1811 C1812 1.400 . S
C1811 C1816 1.490 . S
C1812 H1802 0.930 . S
C1812 C1811 1.400 . S
C1812 C1815 1.386 . S
H1813 C1829 0.930 . S
H1814 C1830 0.931 . S
C1815 H1803 0.929 . S
C1815 C1809 1.390 . S
C1815 C1812 1.386 . S
C1816 C1811 1.490 . S
C1816 C1818 1.395 . S
C1816 C1819 1.403 . S
H1817 C1823 0.930 . S
C1818 H1804 0.930 . S
C1818 C1816 1.395 . S
C1818 C1821 1.403 1_565 S
C1819 C1816 1.403 . S
C1819 C1820 1.524 . S
C1819 C1823 1.400 1_565 S
C1820 H1805 0.960 . S
C1820 H1806 0.960 . S
C1820 H1807 0.960 . S
C1820 C1819 1.524 . S
C1821 C1818 1.403 1_545 S
C1821 C1822 1.392 . S
C1821 C1825 1.495 . S
C1822 C1821 1.392 . S
C1822 C1823 1.385 . S
C1822 C1824 1.478 . S
C1823 H1817 0.930 . S
C1823 C1819 1.400 1_545 S
C1823 C1822 1.385 . S
C1824 C1822 1.478 . S
C1824 C1826 1.381 . S
C1824 C1830 1.383 . S
C1825 C1821 1.495 . S
C1825 H1831 0.959 . S
C1825 H1832 0.961 . S
C1825 H1833 0.960 . S
C1826 C1824 1.381 . S
C1826 C1827 1.394 . S
C1826 H1834 0.930 . S
C1827 C1826 1.394 . S
C1827 C1828 1.383 . S
C1827 H1835 0.929 . S
C1828 C1827 1.383 . S
C1828 C1829 1.377 . S
C1829 H1813 0.930 . S
C1829 C1828 1.377 . S
C1829 C1830 1.379 . S
C1830 H1814 0.931 . S
C1830 C1824 1.383 . S
C1830 C1829 1.379 . S
H1831 C1825 0.959 . S
H1832 C1825 0.961 . S
H1833 C1825 0.960 . S
H1834 C1826 0.930 . S
H1835 C1827 0.929 . S
H1836 C1844 0.929 . S
H1837 C1846 0.930 . S
H1838 C1848 0.930 . S
H1839 C1851 0.929 . S
H1840 C1854 0.930 . S
H1841 C1856 0.960 . S
H1842 C1856 0.960 . S
H1843 C1856 0.960 . S
C1844 H1836 0.929 . S
C1844 C1845 1.377 . S
C1844 C1846 1.384 . S
C1845 C1844 1.377 . S
C1845 C1851 1.390 . S
C1846 H1837 0.930 . S
C1846 C1844 1.384 . S
C1846 C1847 1.372 . S
C1847 C1846 1.372 . S
C1847 C1848 1.400 . S
C1847 C1852 1.490 . S
C1848 H1838 0.930 . S
C1848 C1847 1.400 . S
C1848 C1851 1.386 . S
H1849 C1865 0.930 . S
H1850 C1866 0.931 . S
C1851 H1839 0.929 . S
C1851 C1845 1.390 . S
C1851 C1848 1.386 . S
C1852 C1847 1.490 . S
C1852 C1854 1.395 . S
C1852 C1855 1.403 . S
H1853 C1859 0.930 . S
C1854 H1840 0.930 . S
C1854 C1852 1.395 . S
C1854 C1857 1.403 1_655 S
C1855 C1852 1.403 . S
C1855 C1856 1.524 . S
C1855 C1859 1.400 1_655 S
C1856 H1841 0.960 . S
C1856 H1842 0.960 . S
C1856 H1843 0.960 . S
C1856 C1855 1.524 . S
C1857 C1854 1.403 1_455 S
C1857 C1858 1.392 . S
C1857 C1861 1.495 . S
C1858 C1857 1.392 . S
C1858 C1859 1.385 . S
C1858 C1860 1.478 . S
C1859 H1853 0.930 . S
C1859 C1855 1.400 1_455 S
C1859 C1858 1.385 . S
C1860 C1858 1.478 . S
C1860 C1862 1.381 . S
C1860 C1866 1.383 . S
C1861 C1857 1.495 . S
C1861 H1867 0.959 . S
C1861 H1868 0.961 . S
C1861 H1869 0.960 . S
C1862 C1860 1.381 . S
C1862 C1863 1.394 . S
C1862 H1870 0.930 . S
C1863 C1862 1.394 . S
C1863 C1864 1.383 . S
C1863 H1871 0.929 . S
C1864 C1863 1.383 . S
C1864 C1865 1.377 . S
C1865 H1849 0.930 . S
C1865 C1864 1.377 . S
C1865 C1866 1.379 . S
C1866 H1850 0.931 . S
C1866 C1860 1.383 . S
C1866 C1865 1.379 . S
H1867 C1861 0.959 . S
H1868 C1861 0.961 . S
H1869 C1861 0.960 . S
H1870 C1862 0.930 . S
H1871 C1863 0.929 . S
H1872 C1880 0.929 . S
H1873 C1882 0.930 . S
H1874 C1884 0.930 . S
H1875 C1887 0.929 . S
H1876 C1890 0.930 . S
H1877 C1892 0.960 . S
H1878 C1892 0.960 . S
H1879 C1892 0.960 . S
C1880 H1872 0.929 . S
C1880 C1881 1.377 . S
C1880 C1882 1.384 . S
C1881 C1880 1.377 . S
C1881 C1887 1.390 . S
C1882 H1873 0.930 . S
C1882 C1880 1.384 . S
C1882 C1883 1.372 . S
C1883 C1882 1.372 . S
C1883 C1884 1.400 . S
C1883 C1888 1.490 . S
C1884 H1874 0.930 . S
C1884 C1883 1.400 . S
C1884 C1887 1.386 . S
H1885 C1901 0.930 . S
H1886 C1902 0.931 . S
C1887 H1875 0.929 . S
C1887 C1881 1.390 . S
C1887 C1884 1.386 . S
C1888 C1883 1.490 . S
C1888 C1890 1.395 . S
C1888 C1891 1.403 . S
H1889 C1895 0.930 . S
C1890 H1876 0.930 . S
C1890 C1888 1.395 . S
C1890 C1893 1.403 . S
C1891 C1888 1.403 . S
C1891 C1892 1.524 . S
C1891 C1895 1.400 . S
C1892 H1877 0.960 . S
C1892 H1878 0.960 . S
C1892 H1879 0.960 . S
C1892 C1891 1.524 . S
C1893 C1890 1.403 . S
C1893 C1894 1.392 . S
C1893 C1897 1.495 . S
C1894 C1893 1.392 . S
C1894 C1895 1.385 . S
C1894 C1896 1.478 . S
C1895 H1889 0.930 . S
C1895 C1891 1.400 . S
C1895 C1894 1.385 . S
C1896 C1894 1.478 . S
C1896 C1898 1.381 . S
C1896 C1902 1.383 . S
C1897 C1893 1.495 . S
C1897 H1903 0.959 . S
C1897 H1904 0.961 . S
C1897 H1905 0.960 . S
C1898 C1896 1.381 . S
C1898 C1899 1.394 . S
C1898 H1906 0.930 . S
C1899 C1898 1.394 . S
C1899 C1900 1.383 . S
C1899 H1907 0.929 . S
C1900 C1899 1.383 . S
C1900 C1901 1.377 . S
C1901 H1885 0.930 . S
C1901 C1900 1.377 . S
C1901 C1902 1.379 . S
C1902 H1886 0.931 . S
C1902 C1896 1.383 . S
C1902 C1901 1.379 . S
H1903 C1897 0.959 . S
H1904 C1897 0.961 . S
H1905 C1897 0.960 . S
H1906 C1898 0.930 . S
H1907 C1899 0.929 . S
H1908 C1916 0.929 . S
H1909 C1918 0.930 . S
H1910 C1920 0.930 . S
H1911 C1923 0.929 . S
H1912 C1926 0.930 . S
H1913 C1928 0.960 . S
H1914 C1928 0.960 . S
H1915 C1928 0.960 . S
C1916 H1908 0.929 . S
C1916 C1917 1.377 . S
C1916 C1918 1.384 . S
C1917 C1916 1.377 . S
C1917 C1923 1.390 . S
C1918 H1909 0.930 . S
C1918 C1916 1.384 . S
C1918 C1919 1.372 . S
C1919 C1918 1.372 . S
C1919 C1920 1.400 . S
C1919 C1924 1.490 . S
C1920 H1910 0.930 . S
C1920 C1919 1.400 . S
C1920 C1923 1.386 . S
H1921 C1937 0.930 . S
H1922 C1938 0.931 . S
C1923 H1911 0.929 . S
C1923 C1917 1.390 . S
C1923 C1920 1.386 . S
C1924 C1919 1.490 . S
C1924 C1926 1.395 . S
C1924 C1927 1.403 . S
H1925 C1931 0.930 . S
C1926 H1912 0.930 . S
C1926 C1924 1.395 . S
C1926 C1929 1.403 1_545 S
C1927 C1924 1.403 . S
C1927 C1928 1.524 . S
C1927 C1931 1.400 1_545 S
C1928 H1913 0.960 . S
C1928 H1914 0.960 . S
C1928 H1915 0.960 . S
C1928 C1927 1.524 . S
C1929 C1926 1.403 1_565 S
C1929 C1930 1.392 . S
C1929 C1933 1.495 . S
C1930 C1929 1.392 . S
C1930 C1931 1.385 . S
C1930 C1932 1.478 . S
C1931 H1925 0.930 . S
C1931 C1927 1.400 1_565 S
C1931 C1930 1.385 . S
C1932 C1930 1.478 . S
C1932 C1934 1.381 . S
C1932 C1938 1.383 . S
C1933 C1929 1.495 . S
C1933 H1939 0.959 . S
C1933 H1940 0.961 . S
C1933 H1941 0.960 . S
C1934 C1932 1.381 . S
C1934 C1935 1.394 . S
C1934 H1942 0.930 . S
C1935 C1934 1.394 . S
C1935 C1936 1.383 . S
C1935 H1943 0.929 . S
C1936 C1935 1.383 . S
C1936 C1937 1.377 . S
C1937 H1921 0.930 . S
C1937 C1936 1.377 . S
C1937 C1938 1.379 . S
C1938 H1922 0.931 . S
C1938 C1932 1.383 . S
C1938 C1937 1.379 . S
H1939 C1933 0.959 . S
H1940 C1933 0.961 . S
H1941 C1933 0.960 . S
H1942 C1934 0.930 . S
H1943 C1935 0.929 . S
H1944 C1952 0.929 . S
H1945 C1954 0.930 . S
H1946 C1956 0.930 . S
H1947 C1959 0.929 . S
H1948 C1962 0.930 . S
H1949 C1964 0.960 . S
H1950 C1964 0.960 . S
H1951 C1964 0.960 . S
C1952 H1944 0.929 . S
C1952 C1953 1.377 . S
C1952 C1954 1.384 . S
C1953 C1952 1.377 . S
C1953 C1959 1.390 . S
C1954 H1945 0.930 . S
C1954 C1952 1.384 . S
C1954 C1955 1.372 . S
C1955 C1954 1.372 . S
C1955 C1956 1.400 . S
C1955 C1960 1.490 . S
C1956 H1946 0.930 . S
C1956 C1955 1.400 . S
C1956 C1959 1.386 . S
H1957 C1973 0.930 . S
H1958 C1974 0.931 . S
C1959 H1947 0.929 . S
C1959 C1953 1.390 . S
C1959 C1956 1.386 . S
C1960 C1955 1.490 . S
C1960 C1962 1.395 . S
C1960 C1963 1.403 . S
H1961 C1967 0.930 . S
C1962 H1948 0.930 . S
C1962 C1960 1.395 . S
C1962 C1965 1.403 1_655 S
C1963 C1960 1.403 . S
C1963 C1964 1.524 . S
C1963 C1967 1.400 1_655 S
C1964 H1949 0.960 . S
C1964 H1950 0.960 . S
C1964 H1951 0.960 . S
C1964 C1963 1.524 . S
C1965 C1962 1.403 1_455 S
C1965 C1966 1.392 . S
C1965 C1969 1.495 . S
C1966 C1965 1.392 . S
C1966 C1967 1.385 . S
C1966 C1968 1.478 . S
C1967 H1961 0.930 . S
C1967 C1963 1.400 1_455 S
C1967 C1966 1.385 . S
C1968 C1966 1.478 . S
C1968 C1970 1.381 . S
C1968 C1974 1.383 . S
C1969 C1965 1.495 . S
C1969 H1975 0.959 . S
C1969 H1976 0.961 . S
C1969 H1977 0.960 . S
C1970 C1968 1.381 . S
C1970 C1971 1.394 . S
C1970 H1978 0.930 . S
C1971 C1970 1.394 . S
C1971 C1972 1.383 . S
C1971 H1979 0.929 . S
C1972 C1971 1.383 . S
C1972 C1973 1.377 . S
C1973 H1957 0.930 . S
C1973 C1972 1.377 . S
C1973 C1974 1.379 . S
C1974 H1958 0.931 . S
C1974 C1968 1.383 . S
C1974 C1973 1.379 . S
H1975 C1969 0.959 . S
H1976 C1969 0.961 . S
H1977 C1969 0.960 . S
H1978 C1970 0.930 . S
H1979 C1971 0.929 . S
H1980 C1988 0.929 . S
H1981 C1990 0.930 . S
H1982 C1992 0.930 . S
H1983 C1995 0.929 . S
H1984 C1998 0.930 . S
H1985 C2000 0.960 . S
H1986 C2000 0.960 . S
H1987 C2000 0.960 . S
C1988 H1980 0.929 . S
C1988 C1989 1.377 . S
C1988 C1990 1.384 . S
C1989 C1988 1.377 . S
C1989 C1995 1.390 . S
C1990 H1981 0.930 . S
C1990 C1988 1.384 . S
C1990 C1991 1.372 . S
C1991 C1990 1.372 . S
C1991 C1992 1.400 . S
C1991 C1996 1.490 . S
C1992 H1982 0.930 . S
C1992 C1991 1.400 . S
C1992 C1995 1.386 . S
H1993 C2009 0.930 . S
H1994 C2010 0.931 . S
C1995 H1983 0.929 . S
C1995 C1989 1.390 . S
C1995 C1992 1.386 . S
C1996 C1991 1.490 . S
C1996 C1998 1.395 . S
C1996 C1999 1.403 . S
H1997 C2003 0.930 . S
C1998 H1984 0.930 . S
C1998 C1996 1.395 . S
C1998 C2001 1.403 . S
C1999 C1996 1.403 . S
C1999 C2000 1.524 . S
C1999 C2003 1.400 . S
C2000 H1985 0.960 . S
C2000 H1986 0.960 . S
C2000 H1987 0.960 . S
C2000 C1999 1.524 . S
C2001 C1998 1.403 . S
C2001 C2002 1.392 . S
C2001 C2005 1.495 . S
C2002 C2001 1.392 . S
C2002 C2003 1.385 . S
C2002 C2004 1.478 . S
C2003 H1997 0.930 . S
C2003 C1999 1.400 . S
C2003 C2002 1.385 . S
C2004 C2002 1.478 . S
C2004 C2006 1.381 . S
C2004 C2010 1.383 . S
C2005 C2001 1.495 . S
C2005 H2011 0.959 . S
C2005 H2012 0.961 . S
C2005 H2013 0.960 . S
C2006 C2004 1.381 . S
C2006 C2007 1.394 . S
C2006 H2014 0.930 . S
C2007 C2006 1.394 . S
C2007 C2008 1.383 . S
C2007 H2015 0.929 . S
C2008 C2007 1.383 . S
C2008 C2009 1.377 . S
C2009 H1993 0.930 . S
C2009 C2008 1.377 . S
C2009 C2010 1.379 . S
C2010 H1994 0.931 . S
C2010 C2004 1.383 . S
C2010 C2009 1.379 . S
H2011 C2005 0.959 . S
H2012 C2005 0.961 . S
H2013 C2005 0.960 . S
H2014 C2006 0.930 . S
H2015 C2007 0.929 . S
H2016 C2024 0.929 . S
H2017 C2026 0.930 . S
H2018 C2028 0.930 . S
H2019 C2031 0.929 . S
H2020 C2034 0.930 . S
H2021 C2036 0.960 . S
H2022 C2036 0.960 . S
H2023 C2036 0.960 . S
C2024 H2016 0.929 . S
C2024 C2025 1.377 . S
C2024 C2026 1.384 . S
C2025 C2024 1.377 . S
C2025 C2031 1.390 . S
C2026 H2017 0.930 . S
C2026 C2024 1.384 . S
C2026 C2027 1.372 . S
C2027 C2026 1.372 . S
C2027 C2028 1.400 . S
C2027 C2032 1.490 . S
C2028 H2018 0.930 . S
C2028 C2027 1.400 . S
C2028 C2031 1.386 . S
H2029 C2045 0.930 . S
H2030 C2046 0.931 . S
C2031 H2019 0.929 . S
C2031 C2025 1.390 . S
C2031 C2028 1.386 . S
C2032 C2027 1.490 . S
C2032 C2034 1.395 . S
C2032 C2035 1.403 . S
H2033 C2039 0.930 . S
C2034 H2020 0.930 . S
C2034 C2032 1.395 . S
C2034 C2037 1.403 . S
C2035 C2032 1.403 . S
C2035 C2036 1.524 . S
C2035 C2039 1.400 . S
C2036 H2021 0.960 . S
C2036 H2022 0.960 . S
C2036 H2023 0.960 . S
C2036 C2035 1.524 . S
C2037 C2034 1.403 . S
C2037 C2038 1.392 . S
C2037 C2041 1.495 . S
C2038 C2037 1.392 . S
C2038 C2039 1.385 . S
C2038 C2040 1.478 . S
C2039 H2033 0.930 . S
C2039 C2035 1.400 . S
C2039 C2038 1.385 . S
C2040 C2038 1.478 . S
C2040 C2042 1.381 . S
C2040 C2046 1.383 . S
C2041 C2037 1.495 . S
C2041 H2047 0.959 . S
C2041 H2048 0.961 . S
C2041 H2049 0.960 . S
C2042 C2040 1.381 . S
C2042 C2043 1.394 . S
C2042 H2050 0.930 . S
C2043 C2042 1.394 . S
C2043 C2044 1.383 . S
C2043 H2051 0.929 . S
C2044 C2043 1.383 . S
C2044 C2045 1.377 . S
C2045 H2029 0.930 . S
C2045 C2044 1.377 . S
C2045 C2046 1.379 . S
C2046 H2030 0.931 . S
C2046 C2040 1.383 . S
C2046 C2045 1.379 . S
H2047 C2041 0.959 . S
H2048 C2041 0.961 . S
H2049 C2041 0.960 . S
H2050 C2042 0.930 . S
H2051 C2043 0.929 . S
H2052 C2060 0.929 . S
H2053 C2062 0.930 . S
H2054 C2064 0.930 . S
H2055 C2067 0.929 . S
H2056 C2070 0.930 . S
H2057 C2072 0.960 . S
H2058 C2072 0.960 . S
H2059 C2072 0.960 . S
C2060 H2052 0.929 . S
C2060 C2061 1.377 . S
C2060 C2062 1.384 . S
C2061 C2060 1.377 . S
C2061 C2067 1.390 . S
C2062 H2053 0.930 . S
C2062 C2060 1.384 . S
C2062 C2063 1.372 . S
C2063 C2062 1.372 . S
C2063 C2064 1.400 . S
C2063 C2068 1.490 . S
C2064 H2054 0.930 . S
C2064 C2063 1.400 . S
C2064 C2067 1.386 . S
H2065 C2081 0.930 . S
H2066 C2082 0.931 . S
C2067 H2055 0.929 . S
C2067 C2061 1.390 . S
C2067 C2064 1.386 . S
C2068 C2063 1.490 . S
C2068 C2070 1.395 . S
C2068 C2071 1.403 . S
H2069 C2075 0.930 . S
C2070 H2056 0.930 . S
C2070 C2068 1.395 . S
C2070 C2073 1.403 . S
C2071 C2068 1.403 . S
C2071 C2072 1.524 . S
C2071 C2075 1.400 . S
C2072 H2057 0.960 . S
C2072 H2058 0.960 . S
C2072 H2059 0.960 . S
C2072 C2071 1.524 . S
C2073 C2070 1.403 . S
C2073 C2074 1.392 . S
C2073 C2077 1.495 . S
C2074 C2073 1.392 . S
C2074 C2075 1.385 . S
C2074 C2076 1.478 . S
C2075 H2069 0.930 . S
C2075 C2071 1.400 . S
C2075 C2074 1.385 . S
C2076 C2074 1.478 . S
C2076 C2078 1.381 . S
C2076 C2082 1.383 . S
C2077 C2073 1.495 . S
C2077 H2083 0.959 . S
C2077 H2084 0.961 . S
C2077 H2085 0.960 . S
C2078 C2076 1.381 . S
C2078 C2079 1.394 . S
C2078 H2086 0.930 . S
C2079 C2078 1.394 . S
C2079 C2080 1.383 . S
C2079 H2087 0.929 . S
C2080 C2079 1.383 . S
C2080 C2081 1.377 . S
C2081 H2065 0.930 . S
C2081 C2080 1.377 . S
C2081 C2082 1.379 . S
C2082 H2066 0.931 . S
C2082 C2076 1.383 . S
C2082 C2081 1.379 . S
H2083 C2077 0.959 . S
H2084 C2077 0.961 . S
H2085 C2077 0.960 . S
H2086 C2078 0.930 . S
H2087 C2079 0.929 . S
H2088 C2096 0.929 . S
H2089 C2098 0.930 . S
H2090 C2100 0.930 . S
H2091 C2103 0.929 . S
H2092 C2106 0.930 . S
H2093 C2108 0.960 . S
H2094 C2108 0.960 . S
H2095 C2108 0.960 . S
C2096 H2088 0.929 . S
C2096 C2097 1.377 . S
C2096 C2098 1.384 . S
C2097 C2096 1.377 . S
C2097 C2103 1.390 . S
C2098 H2089 0.930 . S
C2098 C2096 1.384 . S
C2098 C2099 1.372 . S
C2099 C2098 1.372 . S
C2099 C2100 1.400 . S
C2099 C2104 1.490 . S
C2100 H2090 0.930 . S
C2100 C2099 1.400 . S
C2100 C2103 1.386 . S
H2101 C2117 0.930 . S
H2102 C2118 0.931 . S
C2103 H2091 0.929 . S
C2103 C2097 1.390 . S
C2103 C2100 1.386 . S
C2104 C2099 1.490 . S
C2104 C2106 1.395 . S
C2104 C2107 1.403 . S
H2105 C2111 0.930 . S
C2106 H2092 0.930 . S
C2106 C2104 1.395 . S
C2106 C2109 1.403 . S
C2107 C2104 1.403 . S
C2107 C2108 1.524 . S
C2107 C2111 1.400 . S
C2108 H2093 0.960 . S
C2108 H2094 0.960 . S
C2108 H2095 0.960 . S
C2108 C2107 1.524 . S
C2109 C2106 1.403 . S
C2109 C2110 1.392 . S
C2109 C2113 1.495 . S
C2110 C2109 1.392 . S
C2110 C2111 1.385 . S
C2110 C2112 1.478 . S
C2111 H2105 0.930 . S
C2111 C2107 1.400 . S
C2111 C2110 1.385 . S
C2112 C2110 1.478 . S
C2112 C2114 1.381 . S
C2112 C2118 1.383 . S
C2113 C2109 1.495 . S
C2113 H2119 0.959 1_554 S
C2113 H2120 0.961 . S
C2113 H2121 0.960 1_554 S
C2114 C2112 1.381 . S
C2114 C2115 1.394 . S
C2114 H2122 0.930 . S
C2115 C2114 1.394 . S
C2115 C2116 1.383 . S
C2115 H2123 0.929 . S
C2116 C2115 1.383 . S
C2116 C2117 1.377 . S
C2117 H2101 0.930 . S
C2117 C2116 1.377 . S
C2117 C2118 1.379 . S
C2118 H2102 0.931 . S
C2118 C2112 1.383 . S
C2118 C2117 1.379 . S
H2119 C2113 0.959 1_556 S
H2120 C2113 0.961 . S
H2121 C2113 0.960 1_556 S
H2122 C2114 0.930 . S
H2123 C2115 0.929 . S
H2124 C2132 0.929 . S
H2125 C2134 0.930 . S
H2126 C2136 0.930 . S
H2127 C2139 0.929 . S
H2128 C2142 0.930 . S
H2129 C2144 0.960 . S
H2130 C2144 0.960 . S
H2131 C2144 0.960 . S
C2132 H2124 0.929 . S
C2132 C2133 1.377 . S
C2132 C2134 1.384 . S
C2133 C2132 1.377 . S
C2133 C2139 1.390 . S
C2134 H2125 0.930 . S
C2134 C2132 1.384 . S
C2134 C2135 1.372 . S
C2135 C2134 1.372 . S
C2135 C2136 1.400 . S
C2135 C2140 1.490 . S
C2136 H2126 0.930 . S
C2136 C2135 1.400 . S
C2136 C2139 1.386 . S
H2137 C2153 0.930 . S
H2138 C2154 0.931 . S
C2139 H2127 0.929 . S
C2139 C2133 1.390 . S
C2139 C2136 1.386 . S
C2140 C2135 1.490 . S
C2140 C2142 1.395 . S
C2140 C2143 1.403 . S
H2141 C2147 0.930 . S
C2142 H2128 0.930 . S
C2142 C2140 1.395 . S
C2142 C2145 1.403 . S
C2143 C2140 1.403 . S
C2143 C2144 1.524 . S
C2143 C2147 1.400 . S
C2144 H2129 0.960 . S
C2144 H2130 0.960 . S
C2144 H2131 0.960 . S
C2144 C2143 1.524 . S
C2145 C2142 1.403 . S
C2145 C2146 1.392 . S
C2145 C2149 1.495 . S
C2146 C2145 1.392 . S
C2146 C2147 1.385 . S
C2146 C2148 1.478 . S
C2147 H2141 0.930 . S
C2147 C2143 1.400 . S
C2147 C2146 1.385 . S
C2148 C2146 1.478 . S
C2148 C2150 1.381 . S
C2148 C2154 1.383 . S
C2149 C2145 1.495 . S
C2149 H2155 0.959 . S
C2149 H2156 0.961 . S
C2149 H2157 0.960 . S
C2150 C2148 1.381 . S
C2150 C2151 1.394 . S
C2150 H2158 0.930 . S
C2151 C2150 1.394 . S
C2151 C2152 1.383 . S
C2151 H2159 0.929 . S
C2152 C2151 1.383 . S
C2152 C2153 1.377 . S
C2153 H2137 0.930 . S
C2153 C2152 1.377 . S
C2153 C2154 1.379 . S
C2154 H2138 0.931 . S
C2154 C2148 1.383 . S
C2154 C2153 1.379 . S
H2155 C2149 0.959 . S
H2156 C2149 0.961 . S
H2157 C2149 0.960 . S
H2158 C2150 0.930 . S
H2159 C2151 0.929 . S
H2160 C2168 0.929 . S
H2161 C2170 0.930 . S
H2162 C2172 0.930 . S
H2163 C2175 0.929 . S
H2164 C2178 0.930 . S
H2165 C2180 0.960 . S
H2166 C2180 0.960 . S
H2167 C2180 0.960 . S
C2168 H2160 0.929 . S
C2168 C2169 1.377 . S
C2168 C2170 1.384 . S
C2169 C2168 1.377 . S
C2169 C2175 1.390 . S
C2170 H2161 0.930 . S
C2170 C2168 1.384 . S
C2170 C2171 1.372 . S
C2171 C2170 1.372 . S
C2171 C2172 1.400 . S
C2171 C2176 1.490 . S
C2172 H2162 0.930 . S
C2172 C2171 1.400 . S
C2172 C2175 1.386 . S
H2173 C2189 0.930 . S
H2174 C2190 0.931 . S
C2175 H2163 0.929 . S
C2175 C2169 1.390 . S
C2175 C2172 1.386 . S
C2176 C2171 1.490 . S
C2176 C2178 1.395 . S
C2176 C2179 1.403 . S
H2177 C2183 0.930 . S
C2178 H2164 0.930 . S
C2178 C2176 1.395 . S
C2178 C2181 1.403 . S
C2179 C2176 1.403 . S
C2179 C2180 1.524 . S
C2179 C2183 1.400 . S
C2180 H2165 0.960 . S
C2180 H2166 0.960 . S
C2180 H2167 0.960 . S
C2180 C2179 1.524 . S
C2181 C2178 1.403 . S
C2181 C2182 1.392 . S
C2181 C2185 1.495 . S
C2182 C2181 1.392 . S
C2182 C2183 1.385 . S
C2182 C2184 1.478 . S
C2183 H2177 0.930 . S
C2183 C2179 1.400 . S
C2183 C2182 1.385 . S
C2184 C2182 1.478 . S
C2184 C2186 1.381 . S
C2184 C2190 1.383 . S
C2185 C2181 1.495 . S
C2185 H2191 0.959 . S
C2185 H2192 0.961 . S
C2185 H2193 0.960 . S
C2186 C2184 1.381 . S
C2186 C2187 1.394 . S
C2186 H2194 0.930 . S
C2187 C2186 1.394 . S
C2187 C2188 1.383 . S
C2187 H2195 0.929 . S
C2188 C2187 1.383 . S
C2188 C2189 1.377 . S
C2189 H2173 0.930 . S
C2189 C2188 1.377 . S
C2189 C2190 1.379 . S
C2190 H2174 0.931 . S
C2190 C2184 1.383 . S
C2190 C2189 1.379 . S
H2191 C2185 0.959 . S
H2192 C2185 0.961 . S
H2193 C2185 0.960 . S
H2194 C2186 0.930 . S
H2195 C2187 0.929 . S
H2196 C2204 0.929 . S
H2197 C2206 0.930 . S
H2198 C2208 0.930 . S
H2199 C2211 0.929 . S
H2200 C2214 0.930 . S
H2201 C2216 0.960 . S
H2202 C2216 0.960 . S
H2203 C2216 0.960 . S
C2204 H2196 0.929 . S
C2204 C2205 1.377 . S
C2204 C2206 1.384 . S
C2205 C2204 1.377 . S
C2205 C2211 1.390 . S
C2206 H2197 0.930 . S
C2206 C2204 1.384 . S
C2206 C2207 1.372 . S
C2207 C2206 1.372 . S
C2207 C2208 1.400 . S
C2207 C2212 1.490 . S
C2208 H2198 0.930 . S
C2208 C2207 1.400 . S
C2208 C2211 1.386 . S
H2209 C2225 0.930 . S
H2210 C2226 0.931 . S
C2211 H2199 0.929 . S
C2211 C2205 1.390 . S
C2211 C2208 1.386 . S
C2212 C2207 1.490 . S
C2212 C2214 1.395 . S
C2212 C2215 1.403 . S
H2213 C2219 0.930 . S
C2214 H2200 0.930 . S
C2214 C2212 1.395 . S
C2214 C2217 1.403 . S
C2215 C2212 1.403 . S
C2215 C2216 1.524 . S
C2215 C2219 1.400 . S
C2216 H2201 0.960 . S
C2216 H2202 0.960 . S
C2216 H2203 0.960 . S
C2216 C2215 1.524 . S
C2217 C2214 1.403 . S
C2217 C2218 1.392 . S
C2217 C2221 1.495 . S
C2218 C2217 1.392 . S
C2218 C2219 1.385 . S
C2218 C2220 1.478 . S
C2219 H2213 0.930 . S
C2219 C2215 1.400 . S
C2219 C2218 1.385 . S
C2220 C2218 1.478 . S
C2220 C2222 1.381 . S
C2220 C2226 1.383 . S
C2221 C2217 1.495 . S
C2221 H2227 0.959 . S
C2221 H2228 0.961 . S
C2221 H2229 0.960 . S
C2222 C2220 1.381 . S
C2222 C2223 1.394 . S
C2222 H2230 0.930 . S
C2223 C2222 1.394 . S
C2223 C2224 1.383 . S
C2223 H2231 0.929 . S
C2224 C2223 1.383 . S
C2224 C2225 1.377 . S
C2225 H2209 0.930 . S
C2225 C2224 1.377 . S
C2225 C2226 1.379 . S
C2226 H2210 0.931 . S
C2226 C2220 1.383 . S
C2226 C2225 1.379 . S
H2227 C2221 0.959 . S
H2228 C2221 0.961 . S
H2229 C2221 0.960 . S
H2230 C2222 0.930 . S
H2231 C2223 0.929 . S
H2232 C2240 0.929 . S
H2233 C2242 0.930 . S
H2234 C2244 0.930 . S
H2235 C2247 0.929 . S
H2236 C2250 0.930 . S
H2237 C2252 0.960 . S
H2238 C2252 0.960 . S
H2239 C2252 0.960 . S
C2240 H2232 0.929 . S
C2240 C2241 1.377 . S
C2240 C2242 1.384 . S
C2241 C2240 1.377 . S
C2241 C2247 1.390 . S
C2242 H2233 0.930 . S
C2242 C2240 1.384 . S
C2242 C2243 1.372 . S
C2243 C2242 1.372 . S
C2243 C2244 1.400 . S
C2243 C2248 1.490 . S
C2244 H2234 0.930 . S
C2244 C2243 1.400 . S
C2244 C2247 1.386 . S
H2245 C2261 0.930 . S
H2246 C2262 0.931 . S
C2247 H2235 0.929 . S
C2247 C2241 1.390 . S
C2247 C2244 1.386 . S
C2248 C2243 1.490 . S
C2248 C2250 1.395 . S
C2248 C2251 1.403 . S
H2249 C2255 0.930 . S
C2250 H2236 0.930 . S
C2250 C2248 1.395 . S
C2250 C2253 1.403 . S
C2251 C2248 1.403 . S
C2251 C2252 1.524 . S
C2251 C2255 1.400 . S
C2252 H2237 0.960 . S
C2252 H2238 0.960 . S
C2252 H2239 0.960 . S
C2252 C2251 1.524 . S
C2253 C2250 1.403 . S
C2253 C2254 1.392 . S
C2253 C2257 1.495 . S
C2254 C2253 1.392 . S
C2254 C2255 1.385 . S
C2254 C2256 1.478 . S
C2255 H2249 0.930 . S
C2255 C2251 1.400 . S
C2255 C2254 1.385 . S
C2256 C2254 1.478 . S
C2256 C2258 1.381 . S
C2256 C2262 1.383 . S
C2257 C2253 1.495 . S
C2257 H2263 0.959 . S
C2257 H2264 0.961 . S
C2257 H2265 0.960 . S
C2258 C2256 1.381 . S
C2258 C2259 1.394 . S
C2258 H2266 0.930 . S
C2259 C2258 1.394 . S
C2259 C2260 1.383 . S
C2259 H2267 0.929 . S
C2260 C2259 1.383 . S
C2260 C2261 1.377 . S
C2261 H2245 0.930 . S
C2261 C2260 1.377 . S
C2261 C2262 1.379 . S
C2262 H2246 0.931 . S
C2262 C2256 1.383 . S
C2262 C2261 1.379 . S
H2263 C2257 0.959 . S
H2264 C2257 0.961 . S
H2265 C2257 0.960 . S
H2266 C2258 0.930 . S
H2267 C2259 0.929 . S
H2268 C2276 0.929 . S
H2269 C2278 0.930 . S
H2270 C2280 0.930 . S
H2271 C2283 0.929 . S
H2272 C2286 0.930 . S
H2273 C2288 0.960 . S
H2274 C2288 0.960 . S
H2275 C2288 0.960 . S
C2276 H2268 0.929 . S
C2276 C2277 1.377 . S
C2276 C2278 1.384 . S
C2277 C2276 1.377 . S
C2277 C2283 1.390 . S
C2278 H2269 0.930 . S
C2278 C2276 1.384 . S
C2278 C2279 1.372 . S
C2279 C2278 1.372 . S
C2279 C2280 1.400 . S
C2279 C2284 1.490 . S
C2280 H2270 0.930 . S
C2280 C2279 1.400 . S
C2280 C2283 1.386 . S
H2281 C2297 0.930 . S
H2282 C2298 0.931 . S
C2283 H2271 0.929 . S
C2283 C2277 1.390 . S
C2283 C2280 1.386 . S
C2284 C2279 1.490 . S
C2284 C2286 1.395 . S
C2284 C2287 1.403 . S
H2285 C2291 0.930 . S
C2286 H2272 0.930 . S
C2286 C2284 1.395 . S
C2286 C2289 1.403 . S
C2287 C2284 1.403 . S
C2287 C2288 1.524 . S
C2287 C2291 1.400 . S
C2288 H2273 0.960 . S
C2288 H2274 0.960 . S
C2288 H2275 0.960 . S
C2288 C2287 1.524 . S
C2289 C2286 1.403 . S
C2289 C2290 1.392 . S
C2289 C2293 1.495 . S
C2290 C2289 1.392 . S
C2290 C2291 1.385 . S
C2290 C2292 1.478 . S
C2291 H2285 0.930 . S
C2291 C2287 1.400 . S
C2291 C2290 1.385 . S
C2292 C2290 1.478 . S
C2292 C2294 1.381 . S
C2292 C2298 1.383 . S
C2293 C2289 1.495 . S
C2293 H2299 0.959 . S
C2293 H2300 0.961 . S
C2293 H2301 0.960 . S
C2294 C2292 1.381 . S
C2294 C2295 1.394 . S
C2294 H2302 0.930 . S
C2295 C2294 1.394 . S
C2295 C2296 1.383 . S
C2295 H2303 0.929 . S
C2296 C2295 1.383 . S
C2296 C2297 1.377 . S
C2297 H2281 0.930 . S
C2297 C2296 1.377 . S
C2297 C2298 1.379 . S
C2298 H2282 0.931 . S
C2298 C2292 1.383 . S
C2298 C2297 1.379 . S
H2299 C2293 0.959 . S
H2300 C2293 0.961 . S
H2301 C2293 0.960 . S
H2302 C2294 0.930 . S
H2303 C2295 0.929 . S
H2304 C2312 0.929 . S
H2305 C2314 0.930 . S
H2306 C2316 0.930 . S
H2307 C2319 0.929 . S
H2308 C2322 0.930 . S
H2309 C2324 0.960 . S
H2310 C2324 0.960 . S
H2311 C2324 0.960 . S
C2312 H2304 0.929 . S
C2312 C2313 1.377 . S
C2312 C2314 1.384 . S
C2313 C2312 1.377 . S
C2313 C2319 1.390 . S
C2314 H2305 0.930 . S
C2314 C2312 1.384 . S
C2314 C2315 1.372 . S
C2315 C2314 1.372 . S
C2315 C2316 1.400 . S
C2315 C2320 1.490 . S
C2316 H2306 0.930 . S
C2316 C2315 1.400 . S
C2316 C2319 1.386 . S
H2317 C2333 0.930 . S
H2318 C2334 0.931 . S
C2319 H2307 0.929 . S
C2319 C2313 1.390 . S
C2319 C2316 1.386 . S
C2320 C2315 1.490 . S
C2320 C2322 1.395 . S
C2320 C2323 1.403 . S
H2321 C2327 0.930 . S
C2322 H2308 0.930 . S
C2322 C2320 1.395 . S
C2322 C2325 1.403 . S
C2323 C2320 1.403 . S
C2323 C2324 1.524 . S
C2323 C2327 1.400 . S
C2324 H2309 0.960 . S
C2324 H2310 0.960 . S
C2324 H2311 0.960 . S
C2324 C2323 1.524 . S
C2325 C2322 1.403 . S
C2325 C2326 1.392 . S
C2325 C2329 1.495 . S
C2326 C2325 1.392 . S
C2326 C2327 1.385 . S
C2326 C2328 1.478 . S
C2327 H2321 0.930 . S
C2327 C2323 1.400 . S
C2327 C2326 1.385 . S
C2328 C2326 1.478 . S
C2328 C2330 1.381 . S
C2328 C2334 1.383 . S
C2329 C2325 1.495 . S
C2329 H2335 0.959 . S
C2329 H2336 0.961 . S
C2329 H2337 0.960 . S
C2330 C2328 1.381 . S
C2330 C2331 1.394 . S
C2330 H2338 0.930 . S
C2331 C2330 1.394 . S
C2331 C2332 1.383 . S
C2331 H2339 0.929 . S
C2332 C2331 1.383 . S
C2332 C2333 1.377 . S
C2333 H2317 0.930 . S
C2333 C2332 1.377 . S
C2333 C2334 1.379 . S
C2334 H2318 0.931 . S
C2334 C2328 1.383 . S
C2334 C2333 1.379 . S
H2335 C2329 0.959 . S
H2336 C2329 0.961 . S
H2337 C2329 0.960 . S
H2338 C2330 0.930 . S
H2339 C2331 0.929 . S
H2340 C2348 0.929 . S
H2341 C2350 0.930 . S
H2342 C2352 0.930 . S
H2343 C2355 0.929 . S
H2344 C2358 0.930 . S
H2345 C2360 0.960 . S
H2346 C2360 0.960 . S
H2347 C2360 0.960 . S
C2348 H2340 0.929 . S
C2348 C2349 1.377 . S
C2348 C2350 1.384 . S
C2349 C2348 1.377 . S
C2349 C2355 1.390 . S
C2350 H2341 0.930 . S
C2350 C2348 1.384 . S
C2350 C2351 1.372 . S
C2351 C2350 1.372 . S
C2351 C2352 1.400 . S
C2351 C2356 1.490 . S
C2352 H2342 0.930 . S
C2352 C2351 1.400 . S
C2352 C2355 1.386 . S
H2353 C2369 0.930 . S
H2354 C2370 0.931 . S
C2355 H2343 0.929 . S
C2355 C2349 1.390 . S
C2355 C2352 1.386 . S
C2356 C2351 1.490 . S
C2356 C2358 1.395 . S
C2356 C2359 1.403 . S
H2357 C2363 0.930 . S
C2358 H2344 0.930 . S
C2358 C2356 1.395 . S
C2358 C2361 1.403 . S
C2359 C2356 1.403 . S
C2359 C2360 1.524 . S
C2359 C2363 1.400 . S
C2360 H2345 0.960 . S
C2360 H2346 0.960 . S
C2360 H2347 0.960 . S
C2360 C2359 1.524 . S
C2361 C2358 1.403 . S
C2361 C2362 1.392 . S
C2361 C2365 1.495 . S
C2362 C2361 1.392 . S
C2362 C2363 1.385 . S
C2362 C2364 1.478 . S
C2363 H2357 0.930 . S
C2363 C2359 1.400 . S
C2363 C2362 1.385 . S
C2364 C2362 1.478 . S
C2364 C2366 1.381 . S
C2364 C2370 1.383 . S
C2365 C2361 1.495 . S
C2365 H2371 0.959 . S
C2365 H2372 0.961 . S
C2365 H2373 0.960 . S
C2366 C2364 1.381 . S
C2366 C2367 1.394 . S
C2366 H2374 0.930 . S
C2367 C2366 1.394 . S
C2367 C2368 1.383 . S
C2367 H2375 0.929 . S
C2368 C2367 1.383 . S
C2368 C2369 1.377 . S
C2369 H2353 0.930 . S
C2369 C2368 1.377 . S
C2369 C2370 1.379 . S
C2370 H2354 0.931 . S
C2370 C2364 1.383 . S
C2370 C2369 1.379 . S
H2371 C2365 0.959 . S
H2372 C2365 0.961 . S
H2373 C2365 0.960 . S
H2374 C2366 0.930 . S
H2375 C2367 0.929 . S
H2376 C2384 0.929 . S
H2377 C2386 0.930 . S
H2378 C2388 0.930 . S
H2379 C2391 0.929 . S
H2380 C2394 0.930 . S
H2381 C2396 0.960 . S
H2382 C2396 0.960 . S
H2383 C2396 0.960 . S
C2384 H2376 0.929 . S
C2384 C2385 1.377 . S
C2384 C2386 1.384 . S
C2385 C2384 1.377 . S
C2385 C2391 1.390 . S
C2386 H2377 0.930 . S
C2386 C2384 1.384 . S
C2386 C2387 1.372 . S
C2387 C2386 1.372 . S
C2387 C2388 1.400 . S
C2387 C2392 1.490 . S
C2388 H2378 0.930 . S
C2388 C2387 1.400 . S
C2388 C2391 1.386 . S
H2389 C2405 0.930 . S
H2390 C2406 0.931 . S
C2391 H2379 0.929 . S
C2391 C2385 1.390 . S
C2391 C2388 1.386 . S
C2392 C2387 1.490 . S
C2392 C2394 1.395 . S
C2392 C2395 1.403 . S
H2393 C2399 0.930 . S
C2394 H2380 0.930 . S
C2394 C2392 1.395 . S
C2394 C2397 1.403 . S
C2395 C2392 1.403 . S
C2395 C2396 1.524 . S
C2395 C2399 1.400 . S
C2396 H2381 0.960 . S
C2396 H2382 0.960 . S
C2396 H2383 0.960 . S
C2396 C2395 1.524 . S
C2397 C2394 1.403 . S
C2397 C2398 1.392 . S
C2397 C2401 1.495 . S
C2398 C2397 1.392 . S
C2398 C2399 1.385 . S
C2398 C2400 1.478 . S
C2399 H2393 0.930 . S
C2399 C2395 1.400 . S
C2399 C2398 1.385 . S
C2400 C2398 1.478 . S
C2400 C2402 1.381 . S
C2400 C2406 1.383 . S
C2401 C2397 1.495 . S
C2401 H2407 0.959 . S
C2401 H2408 0.961 . S
C2401 H2409 0.960 . S
C2402 C2400 1.381 . S
C2402 C2403 1.394 . S
C2402 H2410 0.930 . S
C2403 C2402 1.394 . S
C2403 C2404 1.383 . S
C2403 H2411 0.929 . S
C2404 C2403 1.383 . S
C2404 C2405 1.377 . S
C2405 H2389 0.930 . S
C2405 C2404 1.377 . S
C2405 C2406 1.379 . S
C2406 H2390 0.931 . S
C2406 C2400 1.383 . S
C2406 C2405 1.379 . S
H2407 C2401 0.959 . S
H2408 C2401 0.961 . S
H2409 C2401 0.960 . S
H2410 C2402 0.930 . S
H2411 C2403 0.929 . S
H2412 C2420 0.929 . S
H2413 C2422 0.930 . S
H2414 C2424 0.930 . S
H2415 C2427 0.929 . S
H2416 C2430 0.930 . S
H2417 C2432 0.960 . S
H2418 C2432 0.960 . S
H2419 C2432 0.960 . S
C2420 H2412 0.929 . S
C2420 C2421 1.377 . S
C2420 C2422 1.384 . S
C2421 C2420 1.377 . S
C2421 C2427 1.390 . S
C2422 H2413 0.930 . S
C2422 C2420 1.384 . S
C2422 C2423 1.372 . S
C2423 C2422 1.372 . S
C2423 C2424 1.400 . S
C2423 C2428 1.490 . S
C2424 H2414 0.930 . S
C2424 C2423 1.400 . S
C2424 C2427 1.386 . S
H2425 C2441 0.930 . S
H2426 C2442 0.931 . S
C2427 H2415 0.929 . S
C2427 C2421 1.390 . S
C2427 C2424 1.386 . S
C2428 C2423 1.490 . S
C2428 C2430 1.395 . S
C2428 C2431 1.403 . S
H2429 C2435 0.930 . S
C2430 H2416 0.930 . S
C2430 C2428 1.395 . S
C2430 C2433 1.403 . S
C2431 C2428 1.403 . S
C2431 C2432 1.524 . S
C2431 C2435 1.400 . S
C2432 H2417 0.960 . S
C2432 H2418 0.960 . S
C2432 H2419 0.960 . S
C2432 C2431 1.524 . S
C2433 C2430 1.403 . S
C2433 C2434 1.392 . S
C2433 C2437 1.495 . S
C2434 C2433 1.392 . S
C2434 C2435 1.385 . S
C2434 C2436 1.478 . S
C2435 H2429 0.930 . S
C2435 C2431 1.400 . S
C2435 C2434 1.385 . S
C2436 C2434 1.478 . S
C2436 C2438 1.381 . S
C2436 C2442 1.383 . S
C2437 C2433 1.495 . S
C2437 H2443 0.959 . S
C2437 H2444 0.961 . S
C2437 H2445 0.960 . S
C2438 C2436 1.381 . S
C2438 C2439 1.394 . S
C2438 H2446 0.930 . S
C2439 C2438 1.394 . S
C2439 C2440 1.383 . S
C2439 H2447 0.929 . S
C2440 C2439 1.383 . S
C2440 C2441 1.377 . S
C2441 H2425 0.930 . S
C2441 C2440 1.377 . S
C2441 C2442 1.379 . S
C2442 H2426 0.931 . S
C2442 C2436 1.383 . S
C2442 C2441 1.379 . S
H2443 C2437 0.959 . S
H2444 C2437 0.961 . S
H2445 C2437 0.960 . S
H2446 C2438 0.930 . S
H2447 C2439 0.929 . S
H2448 C2456 0.929 . S
H2449 C2458 0.930 . S
H2450 C2460 0.930 . S
H2451 C2463 0.929 . S
H2452 C2466 0.930 . S
H2453 C2468 0.960 . S
H2454 C2468 0.960 . S
H2455 C2468 0.960 . S
C2456 H2448 0.929 . S
C2456 C2457 1.377 . S
C2456 C2458 1.384 . S
C2457 C2456 1.377 . S
C2457 C2463 1.390 . S
C2458 H2449 0.930 . S
C2458 C2456 1.384 . S
C2458 C2459 1.372 . S
C2459 C2458 1.372 . S
C2459 C2460 1.400 . S
C2459 C2464 1.490 . S
C2460 H2450 0.930 . S
C2460 C2459 1.400 . S
C2460 C2463 1.386 . S
H2461 C2477 0.930 . S
H2462 C2478 0.931 . S
C2463 H2451 0.929 . S
C2463 C2457 1.390 . S
C2463 C2460 1.386 . S
C2464 C2459 1.490 . S
C2464 C2466 1.395 . S
C2464 C2467 1.403 . S
H2465 C2471 0.930 . S
C2466 H2452 0.930 . S
C2466 C2464 1.395 . S
C2466 C2469 1.403 . S
C2467 C2464 1.403 . S
C2467 C2468 1.524 . S
C2467 C2471 1.400 . S
C2468 H2453 0.960 . S
C2468 H2454 0.960 . S
C2468 H2455 0.960 . S
C2468 C2467 1.524 . S
C2469 C2466 1.403 . S
C2469 C2470 1.392 . S
C2469 C2473 1.495 . S
C2470 C2469 1.392 . S
C2470 C2471 1.385 . S
C2470 C2472 1.478 . S
C2471 H2465 0.930 . S
C2471 C2467 1.400 . S
C2471 C2470 1.385 . S
C2472 C2470 1.478 . S
C2472 C2474 1.381 . S
C2472 C2478 1.383 . S
C2473 C2469 1.495 . S
C2473 H2479 0.959 . S
C2473 H2480 0.961 . S
C2473 H2481 0.960 . S
C2474 C2472 1.381 . S
C2474 C2475 1.394 . S
C2474 H2482 0.930 . S
C2475 C2474 1.394 . S
C2475 C2476 1.383 . S
C2475 H2483 0.929 . S
C2476 C2475 1.383 . S
C2476 C2477 1.377 . S
C2477 H2461 0.930 . S
C2477 C2476 1.377 . S
C2477 C2478 1.379 . S
C2478 H2462 0.931 . S
C2478 C2472 1.383 . S
C2478 C2477 1.379 . S
H2479 C2473 0.959 . S
H2480 C2473 0.961 . S
H2481 C2473 0.960 . S
H2482 C2474 0.930 . S
H2483 C2475 0.929 . S
H2484 C2492 0.929 . S
H2485 C2494 0.930 . S
H2486 C2496 0.930 . S
H2487 C2499 0.929 . S
H2488 C2502 0.930 . S
H2489 C2504 0.960 . S
H2490 C2504 0.960 . S
H2491 C2504 0.960 . S
C2492 H2484 0.929 . S
C2492 C2493 1.377 . S
C2492 C2494 1.384 . S
C2493 C2492 1.377 . S
C2493 C2499 1.390 . S
C2494 H2485 0.930 . S
C2494 C2492 1.384 . S
C2494 C2495 1.372 . S
C2495 C2494 1.372 . S
C2495 C2496 1.400 . S
C2495 C2500 1.490 . S
C2496 H2486 0.930 . S
C2496 C2495 1.400 . S
C2496 C2499 1.386 . S
H2497 C2513 0.930 . S
H2498 C2514 0.931 . S
C2499 H2487 0.929 . S
C2499 C2493 1.390 . S
C2499 C2496 1.386 . S
C2500 C2495 1.490 . S
C2500 C2502 1.395 . S
C2500 C2503 1.403 . S
H2501 C2507 0.930 . S
C2502 H2488 0.930 . S
C2502 C2500 1.395 . S
C2502 C2505 1.403 . S
C2503 C2500 1.403 . S
C2503 C2504 1.524 . S
C2503 C2507 1.400 . S
C2504 H2489 0.960 . S
C2504 H2490 0.960 . S
C2504 H2491 0.960 . S
C2504 C2503 1.524 . S
C2505 C2502 1.403 . S
C2505 C2506 1.392 . S
C2505 C2509 1.495 . S
C2506 C2505 1.392 . S
C2506 C2507 1.385 . S
C2506 C2508 1.478 . S
C2507 H2501 0.930 . S
C2507 C2503 1.400 . S
C2507 C2506 1.385 . S
C2508 C2506 1.478 . S
C2508 C2510 1.381 . S
C2508 C2514 1.383 . S
C2509 C2505 1.495 . S
C2509 H2515 0.959 . S
C2509 H2516 0.961 . S
C2509 H2517 0.960 . S
C2510 C2508 1.381 . S
C2510 C2511 1.394 . S
C2510 H2518 0.930 . S
C2511 C2510 1.394 . S
C2511 C2512 1.383 . S
C2511 H2519 0.929 . S
C2512 C2511 1.383 . S
C2512 C2513 1.377 . S
C2513 H2497 0.930 . S
C2513 C2512 1.377 . S
C2513 C2514 1.379 . S
C2514 H2498 0.931 . S
C2514 C2508 1.383 . S
C2514 C2513 1.379 . S
H2515 C2509 0.959 . S
H2516 C2509 0.961 . S
H2517 C2509 0.960 . S
H2518 C2510 0.930 . S
H2519 C2511 0.929 . S
H2520 C2528 0.929 . S
H2521 C2530 0.930 . S
H2522 C2532 0.930 . S
H2523 C2535 0.929 . S
H2524 C2538 0.930 . S
H2525 C2540 0.960 . S
H2526 C2540 0.960 . S
H2527 C2540 0.960 . S
C2528 H2520 0.929 . S
C2528 C2529 1.377 . S
C2528 C2530 1.384 . S
C2529 C2528 1.377 . S
C2529 C2535 1.390 . S
C2530 H2521 0.930 . S
C2530 C2528 1.384 . S
C2530 C2531 1.372 . S
C2531 C2530 1.372 . S
C2531 C2532 1.400 . S
C2531 C2536 1.490 . S
C2532 H2522 0.930 . S
C2532 C2531 1.400 . S
C2532 C2535 1.386 . S
H2533 C2549 0.930 . S
H2534 C2550 0.931 . S
C2535 H2523 0.929 . S
C2535 C2529 1.390 . S
C2535 C2532 1.386 . S
C2536 C2531 1.490 . S
C2536 C2538 1.395 . S
C2536 C2539 1.403 . S
H2537 C2543 0.930 . S
C2538 H2524 0.930 . S
C2538 C2536 1.395 . S
C2538 C2541 1.403 . S
C2539 C2536 1.403 . S
C2539 C2540 1.524 . S
C2539 C2543 1.400 . S
C2540 H2525 0.960 . S
C2540 H2526 0.960 . S
C2540 H2527 0.960 . S
C2540 C2539 1.524 . S
C2541 C2538 1.403 . S
C2541 C2542 1.392 . S
C2541 C2545 1.495 . S
C2542 C2541 1.392 . S
C2542 C2543 1.385 . S
C2542 C2544 1.478 . S
C2543 H2537 0.930 . S
C2543 C2539 1.400 . S
C2543 C2542 1.385 . S
C2544 C2542 1.478 . S
C2544 C2546 1.381 . S
C2544 C2550 1.383 . S
C2545 C2541 1.495 . S
C2545 H2551 0.959 . S
C2545 H2552 0.961 . S
C2545 H2553 0.960 . S
C2546 C2544 1.381 . S
C2546 C2547 1.394 . S
C2546 H2554 0.930 . S
C2547 C2546 1.394 . S
C2547 C2548 1.383 . S
C2547 H2555 0.929 . S
C2548 C2547 1.383 . S
C2548 C2549 1.377 . S
C2549 H2533 0.930 . S
C2549 C2548 1.377 . S
C2549 C2550 1.379 . S
C2550 H2534 0.931 . S
C2550 C2544 1.383 . S
C2550 C2549 1.379 . S
H2551 C2545 0.959 . S
H2552 C2545 0.961 . S
H2553 C2545 0.960 . S
H2554 C2546 0.930 . S
H2555 C2547 0.929 . S
H2556 C2564 0.929 . S
H2557 C2566 0.930 . S
H2558 C2568 0.930 . S
H2559 C2571 0.929 . S
H2560 C2574 0.930 . S
H2561 C2576 0.960 . S
H2562 C2576 0.960 . S
H2563 C2576 0.960 . S
C2564 H2556 0.929 . S
C2564 C2565 1.377 . S
C2564 C2566 1.384 . S
C2565 C2564 1.377 . S
C2565 C2571 1.390 . S
C2566 H2557 0.930 . S
C2566 C2564 1.384 . S
C2566 C2567 1.372 . S
C2567 C2566 1.372 . S
C2567 C2568 1.400 . S
C2567 C2572 1.490 . S
C2568 H2558 0.930 . S
C2568 C2567 1.400 . S
C2568 C2571 1.386 . S
H2569 C2585 0.930 . S
H2570 C2586 0.931 . S
C2571 H2559 0.929 . S
C2571 C2565 1.390 . S
C2571 C2568 1.386 . S
C2572 C2567 1.490 . S
C2572 C2574 1.395 . S
C2572 C2575 1.403 . S
H2573 C2579 0.930 . S
C2574 H2560 0.930 . S
C2574 C2572 1.395 . S
C2574 C2577 1.403 . S
C2575 C2572 1.403 . S
C2575 C2576 1.524 . S
C2575 C2579 1.400 . S
C2576 H2561 0.960 . S
C2576 H2562 0.960 . S
C2576 H2563 0.960 . S
C2576 C2575 1.524 . S
C2577 C2574 1.403 . S
C2577 C2578 1.392 . S
C2577 C2581 1.495 . S
C2578 C2577 1.392 . S
C2578 C2579 1.385 . S
C2578 C2580 1.478 . S
C2579 H2573 0.930 . S
C2579 C2575 1.400 . S
C2579 C2578 1.385 . S
C2580 C2578 1.478 . S
C2580 C2582 1.381 . S
C2580 C2586 1.383 . S
C2581 C2577 1.495 . S
C2581 H2587 0.959 . S
C2581 H2588 0.961 . S
C2581 H2589 0.960 . S
C2582 C2580 1.381 . S
C2582 C2583 1.394 . S
C2582 H2590 0.930 . S
C2583 C2582 1.394 . S
C2583 C2584 1.383 . S
C2583 H2591 0.929 . S
C2584 C2583 1.383 . S
C2584 C2585 1.377 . S
C2585 H2569 0.930 . S
C2585 C2584 1.377 . S
C2585 C2586 1.379 . S
C2586 H2570 0.931 . S
C2586 C2580 1.383 . S
C2586 C2585 1.379 . S
H2587 C2581 0.959 . S
H2588 C2581 0.961 . S
H2589 C2581 0.960 . S
H2590 C2582 0.930 . S
H2591 C2583 0.929 . S
H2592 C2600 0.929 . S
H2593 C2602 0.930 . S
H2594 C2604 0.930 . S
H2595 C2607 0.929 . S
H2596 C2610 0.930 . S
H2597 C2612 0.960 . S
H2598 C2612 0.960 . S
H2599 C2612 0.960 . S
C2600 H2592 0.929 . S
C2600 C2601 1.377 . S
C2600 C2602 1.384 . S
C2601 C2600 1.377 . S
C2601 C2607 1.390 . S
C2602 H2593 0.930 . S
C2602 C2600 1.384 . S
C2602 C2603 1.372 . S
C2603 C2602 1.372 . S
C2603 C2604 1.400 . S
C2603 C2608 1.490 . S
C2604 H2594 0.930 . S
C2604 C2603 1.400 . S
C2604 C2607 1.386 . S
H2605 C2621 0.930 . S
H2606 C2622 0.931 . S
C2607 H2595 0.929 . S
C2607 C2601 1.390 . S
C2607 C2604 1.386 . S
C2608 C2603 1.490 . S
C2608 C2610 1.395 . S
C2608 C2611 1.403 . S
H2609 C2615 0.930 . S
C2610 H2596 0.930 . S
C2610 C2608 1.395 . S
C2610 C2613 1.403 . S
C2611 C2608 1.403 . S
C2611 C2612 1.524 . S
C2611 C2615 1.400 . S
C2612 H2597 0.960 . S
C2612 H2598 0.960 . S
C2612 H2599 0.960 . S
C2612 C2611 1.524 . S
C2613 C2610 1.403 . S
C2613 C2614 1.392 . S
C2613 C2617 1.495 . S
C2614 C2613 1.392 . S
C2614 C2615 1.385 . S
C2614 C2616 1.478 . S
C2615 H2609 0.930 . S
C2615 C2611 1.400 . S
C2615 C2614 1.385 . S
C2616 C2614 1.478 . S
C2616 C2618 1.381 . S
C2616 C2622 1.383 . S
C2617 C2613 1.495 . S
C2617 H2623 0.959 . S
C2617 H2624 0.961 . S
C2617 H2625 0.960 . S
C2618 C2616 1.381 . S
C2618 C2619 1.394 . S
C2618 H2626 0.930 . S
C2619 C2618 1.394 . S
C2619 C2620 1.383 . S
C2619 H2627 0.929 . S
C2620 C2619 1.383 . S
C2620 C2621 1.377 . S
C2621 H2605 0.930 . S
C2621 C2620 1.377 . S
C2621 C2622 1.379 . S
C2622 H2606 0.931 . S
C2622 C2616 1.383 . S
C2622 C2621 1.379 . S
H2623 C2617 0.959 . S
H2624 C2617 0.961 . S
H2625 C2617 0.960 . S
H2626 C2618 0.930 . S
H2627 C2619 0.929 . S
H2628 C2636 0.929 . S
H2629 C2638 0.930 . S
H2630 C2640 0.930 . S
H2631 C2643 0.929 . S
H2632 C2646 0.930 . S
H2633 C2648 0.960 . S
H2634 C2648 0.960 . S
H2635 C2648 0.960 . S
C2636 H2628 0.929 . S
C2636 C2637 1.377 . S
C2636 C2638 1.384 . S
C2637 C2636 1.377 . S
C2637 C2643 1.390 . S
C2638 H2629 0.930 . S
C2638 C2636 1.384 . S
C2638 C2639 1.372 . S
C2639 C2638 1.372 . S
C2639 C2640 1.400 . S
C2639 C2644 1.490 . S
C2640 H2630 0.930 . S
C2640 C2639 1.400 . S
C2640 C2643 1.386 . S
H2641 C2657 0.930 . S
H2642 C2658 0.931 . S
C2643 H2631 0.929 . S
C2643 C2637 1.390 . S
C2643 C2640 1.386 . S
C2644 C2639 1.490 . S
C2644 C2646 1.395 . S
C2644 C2647 1.403 . S
H2645 C2651 0.930 . S
C2646 H2632 0.930 . S
C2646 C2644 1.395 . S
C2646 C2649 1.403 . S
C2647 C2644 1.403 . S
C2647 C2648 1.524 . S
C2647 C2651 1.400 . S
C2648 H2633 0.960 . S
C2648 H2634 0.960 . S
C2648 H2635 0.960 . S
C2648 C2647 1.524 . S
C2649 C2646 1.403 . S
C2649 C2650 1.392 . S
C2649 C2653 1.495 . S
C2650 C2649 1.392 . S
C2650 C2651 1.385 . S
C2650 C2652 1.478 . S
C2651 H2645 0.930 . S
C2651 C2647 1.400 . S
C2651 C2650 1.385 . S
C2652 C2650 1.478 . S
C2652 C2654 1.381 . S
C2652 C2658 1.383 . S
C2653 C2649 1.495 . S
C2653 H2659 0.959 . S
C2653 H2660 0.961 . S
C2653 H2661 0.960 . S
C2654 C2652 1.381 . S
C2654 C2655 1.394 . S
C2654 H2662 0.930 . S
C2655 C2654 1.394 . S
C2655 C2656 1.383 . S
C2655 H2663 0.929 . S
C2656 C2655 1.383 . S
C2656 C2657 1.377 . S
C2657 H2641 0.930 . S
C2657 C2656 1.377 . S
C2657 C2658 1.379 . S
C2658 H2642 0.931 . S
C2658 C2652 1.383 . S
C2658 C2657 1.379 . S
H2659 C2653 0.959 . S
H2660 C2653 0.961 . S
H2661 C2653 0.960 . S
H2662 C2654 0.930 . S
H2663 C2655 0.929 . S
H2664 C2672 0.929 . S
H2665 C2674 0.930 . S
H2666 C2676 0.930 . S
H2667 C2679 0.929 . S
H2668 C2682 0.930 . S
H2669 C2684 0.960 . S
H2670 C2684 0.960 . S
H2671 C2684 0.960 . S
C2672 H2664 0.929 . S
C2672 C2673 1.377 . S
C2672 C2674 1.384 . S
C2673 C2672 1.377 . S
C2673 C2679 1.390 . S
C2674 H2665 0.930 . S
C2674 C2672 1.384 . S
C2674 C2675 1.372 . S
C2675 C2674 1.372 . S
C2675 C2676 1.400 . S
C2675 C2680 1.490 . S
C2676 H2666 0.930 . S
C2676 C2675 1.400 . S
C2676 C2679 1.386 . S
H2677 C2693 0.930 . S
H2678 C2694 0.931 . S
C2679 H2667 0.929 . S
C2679 C2673 1.390 . S
C2679 C2676 1.386 . S
C2680 C2675 1.490 . S
C2680 C2682 1.395 . S
C2680 C2683 1.403 . S
H2681 C2687 0.930 . S
C2682 H2668 0.930 . S
C2682 C2680 1.395 . S
C2682 C2685 1.403 . S
C2683 C2680 1.403 . S
C2683 C2684 1.524 . S
C2683 C2687 1.400 . S
C2684 H2669 0.960 . S
C2684 H2670 0.960 . S
C2684 H2671 0.960 . S
C2684 C2683 1.524 . S
C2685 C2682 1.403 . S
C2685 C2686 1.392 . S
C2685 C2689 1.495 . S
C2686 C2685 1.392 . S
C2686 C2687 1.385 . S
C2686 C2688 1.478 . S
C2687 H2681 0.930 . S
C2687 C2683 1.400 . S
C2687 C2686 1.385 . S
C2688 C2686 1.478 . S
C2688 C2690 1.381 . S
C2688 C2694 1.383 . S
C2689 C2685 1.495 . S
C2689 H2695 0.959 . S
C2689 H2696 0.961 . S
C2689 H2697 0.960 . S
C2690 C2688 1.381 . S
C2690 C2691 1.394 . S
C2690 H2698 0.930 . S
C2691 C2690 1.394 . S
C2691 C2692 1.383 . S
C2691 H2699 0.929 . S
C2692 C2691 1.383 . S
C2692 C2693 1.377 . S
C2693 H2677 0.930 . S
C2693 C2692 1.377 . S
C2693 C2694 1.379 . S
C2694 H2678 0.931 . S
C2694 C2688 1.383 . S
C2694 C2693 1.379 . S
H2695 C2689 0.959 . S
H2696 C2689 0.961 . S
H2697 C2689 0.960 . S
H2698 C2690 0.930 . S
H2699 C2691 0.929 . S
H2700 C2708 0.929 . S
H2701 C2710 0.930 . S
H2702 C2712 0.930 . S
H2703 C2715 0.929 . S
H2704 C2718 0.930 . S
H2705 C2720 0.960 . S
H2706 C2720 0.960 . S
H2707 C2720 0.960 . S
C2708 H2700 0.929 . S
C2708 C2709 1.377 . S
C2708 C2710 1.384 . S
C2709 C2708 1.377 . S
C2709 C2715 1.390 . S
C2710 H2701 0.930 . S
C2710 C2708 1.384 . S
C2710 C2711 1.372 . S
C2711 C2710 1.372 . S
C2711 C2712 1.400 . S
C2711 C2716 1.490 . S
C2712 H2702 0.930 . S
C2712 C2711 1.400 . S
C2712 C2715 1.386 . S
H2713 C2729 0.930 . S
H2714 C2730 0.931 . S
C2715 H2703 0.929 . S
C2715 C2709 1.390 . S
C2715 C2712 1.386 . S
C2716 C2711 1.490 . S
C2716 C2718 1.395 . S
C2716 C2719 1.403 . S
H2717 C2723 0.930 . S
C2718 H2704 0.930 . S
C2718 C2716 1.395 . S
C2718 C2721 1.403 . S
C2719 C2716 1.403 . S
C2719 C2720 1.524 . S
C2719 C2723 1.400 . S
C2720 H2705 0.960 . S
C2720 H2706 0.960 . S
C2720 H2707 0.960 . S
C2720 C2719 1.524 . S
C2721 C2718 1.403 . S
C2721 C2722 1.392 . S
C2721 C2725 1.495 . S
C2722 C2721 1.392 . S
C2722 C2723 1.385 . S
C2722 C2724 1.478 . S
C2723 H2717 0.930 . S
C2723 C2719 1.400 . S
C2723 C2722 1.385 . S
C2724 C2722 1.478 . S
C2724 C2726 1.381 . S
C2724 C2730 1.383 . S
C2725 C2721 1.495 . S
C2725 H2731 0.959 . S
C2725 H2732 0.961 . S
C2725 H2733 0.960 . S
C2726 C2724 1.381 . S
C2726 C2727 1.394 . S
C2726 H2734 0.930 . S
C2727 C2726 1.394 . S
C2727 C2728 1.383 . S
C2727 H2735 0.929 . S
C2728 C2727 1.383 . S
C2728 C2729 1.377 . S
C2729 H2713 0.930 . S
C2729 C2728 1.377 . S
C2729 C2730 1.379 . S
C2730 H2714 0.931 . S
C2730 C2724 1.383 . S
C2730 C2729 1.379 . S
H2731 C2725 0.959 . S
H2732 C2725 0.961 . S
H2733 C2725 0.960 . S
H2734 C2726 0.930 . S
H2735 C2727 0.929 . S
H2736 C2744 0.929 . S
H2737 C2746 0.930 . S
H2738 C2748 0.930 . S
H2739 C2751 0.929 . S
H2740 C2754 0.930 . S
H2741 C2756 0.960 . S
H2742 C2756 0.960 . S
H2743 C2756 0.960 . S
C2744 H2736 0.929 . S
C2744 C2745 1.377 . S
C2744 C2746 1.384 . S
C2745 C2744 1.377 . S
C2745 C2751 1.390 . S
C2746 H2737 0.930 . S
C2746 C2744 1.384 . S
C2746 C2747 1.372 . S
C2747 C2746 1.372 . S
C2747 C2748 1.400 . S
C2747 C2752 1.490 . S
C2748 H2738 0.930 . S
C2748 C2747 1.400 . S
C2748 C2751 1.386 . S
H2749 C2765 0.930 . S
H2750 C2766 0.931 . S
C2751 H2739 0.929 . S
C2751 C2745 1.390 . S
C2751 C2748 1.386 . S
C2752 C2747 1.490 . S
C2752 C2754 1.395 . S
C2752 C2755 1.403 . S
H2753 C2759 0.930 . S
C2754 H2740 0.930 . S
C2754 C2752 1.395 . S
C2754 C2757 1.403 . S
C2755 C2752 1.403 . S
C2755 C2756 1.524 . S
C2755 C2759 1.400 . S
C2756 H2741 0.960 . S
C2756 H2742 0.960 . S
C2756 H2743 0.960 . S
C2756 C2755 1.524 . S
C2757 C2754 1.403 . S
C2757 C2758 1.392 . S
C2757 C2761 1.495 . S
C2758 C2757 1.392 . S
C2758 C2759 1.385 . S
C2758 C2760 1.478 . S
C2759 H2753 0.930 . S
C2759 C2755 1.400 . S
C2759 C2758 1.385 . S
C2760 C2758 1.478 . S
C2760 C2762 1.381 . S
C2760 C2766 1.383 . S
C2761 C2757 1.495 . S
C2761 H2767 0.959 . S
C2761 H2768 0.961 . S
C2761 H2769 0.960 . S
C2762 C2760 1.381 . S
C2762 C2763 1.394 . S
C2762 H2770 0.930 . S
C2763 C2762 1.394 . S
C2763 C2764 1.383 . S
C2763 H2771 0.929 . S
C2764 C2763 1.383 . S
C2764 C2765 1.377 . S
C2765 H2749 0.930 . S
C2765 C2764 1.377 . S
C2765 C2766 1.379 . S
C2766 H2750 0.931 . S
C2766 C2760 1.383 . S
C2766 C2765 1.379 . S
H2767 C2761 0.959 . S
H2768 C2761 0.961 . S
H2769 C2761 0.960 . S
H2770 C2762 0.930 . S
H2771 C2763 0.929 . S
H2772 C2780 0.929 . S
H2773 C2782 0.930 . S
H2774 C2784 0.930 . S
H2775 C2787 0.929 . S
H2776 C2790 0.930 . S
H2777 C2792 0.960 . S
H2778 C2792 0.960 . S
H2779 C2792 0.960 . S
C2780 H2772 0.929 . S
C2780 C2781 1.377 . S
C2780 C2782 1.384 . S
C2781 C2780 1.377 . S
C2781 C2787 1.390 . S
C2782 H2773 0.930 . S
C2782 C2780 1.384 . S
C2782 C2783 1.372 . S
C2783 C2782 1.372 . S
C2783 C2784 1.400 . S
C2783 C2788 1.490 . S
C2784 H2774 0.930 . S
C2784 C2783 1.400 . S
C2784 C2787 1.386 . S
H2785 C2801 0.930 . S
H2786 C2802 0.931 . S
C2787 H2775 0.929 . S
C2787 C2781 1.390 . S
C2787 C2784 1.386 . S
C2788 C2783 1.490 . S
C2788 C2790 1.395 . S
C2788 C2791 1.403 . S
H2789 C2795 0.930 . S
C2790 H2776 0.930 . S
C2790 C2788 1.395 . S
C2790 C2793 1.403 . S
C2791 C2788 1.403 . S
C2791 C2792 1.524 . S
C2791 C2795 1.400 . S
C2792 H2777 0.960 . S
C2792 H2778 0.960 . S
C2792 H2779 0.960 . S
C2792 C2791 1.524 . S
C2793 C2790 1.403 . S
C2793 C2794 1.392 . S
C2793 C2797 1.495 . S
C2794 C2793 1.392 . S
C2794 C2795 1.385 . S
C2794 C2796 1.478 . S
C2795 H2789 0.930 . S
C2795 C2791 1.400 . S
C2795 C2794 1.385 . S
C2796 C2794 1.478 . S
C2796 C2798 1.381 . S
C2796 C2802 1.383 . S
C2797 C2793 1.495 . S
C2797 H2803 0.959 . S
C2797 H2804 0.961 . S
C2797 H2805 0.960 . S
C2798 C2796 1.381 . S
C2798 C2799 1.394 . S
C2798 H2806 0.930 . S
C2799 C2798 1.394 . S
C2799 C2800 1.383 . S
C2799 H2807 0.929 . S
C2800 C2799 1.383 . S
C2800 C2801 1.377 . S
C2801 H2785 0.930 . S
C2801 C2800 1.377 . S
C2801 C2802 1.379 . S
C2802 H2786 0.931 . S
C2802 C2796 1.383 . S
C2802 C2801 1.379 . S
H2803 C2797 0.959 . S
H2804 C2797 0.961 . S
H2805 C2797 0.960 . S
H2806 C2798 0.930 . S
H2807 C2799 0.929 . S
H2808 C2816 0.929 . S
H2809 C2818 0.930 . S
H2810 C2820 0.930 . S
H2811 C2823 0.929 . S
H2812 C2826 0.930 . S
H2813 C2828 0.960 . S
H2814 C2828 0.960 . S
H2815 C2828 0.960 . S
C2816 H2808 0.929 . S
C2816 C2817 1.377 . S
C2816 C2818 1.384 . S
C2817 C2816 1.377 . S
C2817 C2823 1.390 . S
C2818 H2809 0.930 . S
C2818 C2816 1.384 . S
C2818 C2819 1.372 . S
C2819 C2818 1.372 . S
C2819 C2820 1.400 . S
C2819 C2824 1.490 . S
C2820 H2810 0.930 . S
C2820 C2819 1.400 . S
C2820 C2823 1.386 . S
H2821 C2837 0.930 . S
H2822 C2838 0.931 . S
C2823 H2811 0.929 . S
C2823 C2817 1.390 . S
C2823 C2820 1.386 . S
C2824 C2819 1.490 . S
C2824 C2826 1.395 . S
C2824 C2827 1.403 . S
H2825 C2831 0.930 . S
C2826 H2812 0.930 . S
C2826 C2824 1.395 . S
C2826 C2829 1.403 . S
C2827 C2824 1.403 . S
C2827 C2828 1.524 . S
C2827 C2831 1.400 . S
C2828 H2813 0.960 . S
C2828 H2814 0.960 . S
C2828 H2815 0.960 . S
C2828 C2827 1.524 . S
C2829 C2826 1.403 . S
C2829 C2830 1.392 . S
C2829 C2833 1.495 . S
C2830 C2829 1.392 . S
C2830 C2831 1.385 . S
C2830 C2832 1.478 . S
C2831 H2825 0.930 . S
C2831 C2827 1.400 . S
C2831 C2830 1.385 . S
C2832 C2830 1.478 . S
C2832 C2834 1.381 . S
C2832 C2838 1.383 . S
C2833 C2829 1.495 . S
C2833 H2839 0.959 . S
C2833 H2840 0.961 . S
C2833 H2841 0.960 . S
C2834 C2832 1.381 . S
C2834 C2835 1.394 . S
C2834 H2842 0.930 . S
C2835 C2834 1.394 . S
C2835 C2836 1.383 . S
C2835 H2843 0.929 . S
C2836 C2835 1.383 . S
C2836 C2837 1.377 . S
C2837 H2821 0.930 . S
C2837 C2836 1.377 . S
C2837 C2838 1.379 . S
C2838 H2822 0.931 . S
C2838 C2832 1.383 . S
C2838 C2837 1.379 . S
H2839 C2833 0.959 . S
H2840 C2833 0.961 . S
H2841 C2833 0.960 . S
H2842 C2834 0.930 . S
H2843 C2835 0.929 . S
H2844 C2852 0.929 . S
H2845 C2854 0.930 . S
H2846 C2856 0.930 . S
H2847 C2859 0.929 . S
H2848 C2862 0.930 . S
H2849 C2864 0.985 . S
H2850 C2864 0.960 . S
H2851 C2864 0.960 . S
C2852 H2844 0.929 . S
C2852 C2853 1.377 . S
C2852 C2854 1.384 . S
C2853 C2852 1.377 . S
C2853 C2859 1.390 . S
C2854 H2845 0.930 . S
C2854 C2852 1.384 . S
C2854 C2855 1.372 . S
C2855 C2854 1.372 . S
C2855 C2856 1.400 . S
C2855 C2860 1.490 . S
C2856 H2846 0.930 . S
C2856 C2855 1.400 . S
C2856 C2859 1.386 . S
H2857 C2873 0.930 . S
H2858 C2874 0.931 . S
C2859 H2847 0.929 . S
C2859 C2853 1.390 . S
C2859 C2856 1.386 . S
C2860 C2855 1.490 . S
C2860 C2862 1.395 . S
C2860 C2863 1.403 . S
H2861 C2867 0.930 . S
C2862 H2848 0.930 . S
C2862 C2860 1.395 . S
C2862 C2865 1.403 1_455 S
C2863 C2860 1.403 . S
C2863 C2864 1.524 . S
C2863 C2867 1.400 1_455 S
C2864 H2849 0.985 . S
C2864 H2850 0.960 . S
C2864 H2851 0.960 . S
C2864 C2863 1.524 . S
C2865 C2862 1.403 1_655 S
C2865 C2866 1.392 . S
C2865 C2869 1.495 . S
C2866 C2865 1.392 . S
C2866 C2867 1.385 . S
C2866 C2868 1.478 . S
C2867 H2861 0.930 . S
C2867 C2863 1.400 1_655 S
C2867 C2866 1.385 . S
C2868 C2866 1.478 . S
C2868 C2870 1.381 . S
C2868 C2874 1.383 . S
C2869 C2865 1.495 . S
C2869 H2875 0.974 . S
C2869 H2876 0.961 . S
C2869 H2877 0.960 . S
C2870 C2868 1.381 . S
C2870 C2871 1.394 . S
C2870 H2878 0.930 . S
C2871 C2870 1.394 . S
C2871 C2872 1.383 . S
C2871 H2879 0.929 . S
C2872 C2871 1.383 . S
C2872 C2873 1.377 . S
C2873 H2857 0.930 . S
C2873 C2872 1.377 . S
C2873 C2874 1.379 . S
C2874 H2858 0.931 . S
C2874 C2868 1.383 . S
C2874 C2873 1.379 . S
H2875 C2869 0.974 . S
H2876 C2869 0.961 . S
H2877 C2869 0.960 . S
H2878 C2870 0.930 . S
H2879 C2871 0.929 . S
H2880 C2888 0.929 . S
H2881 C2890 0.930 . S
H2882 C2892 0.930 . S
H2883 C2895 0.929 . S
H2884 C2898 0.930 . S
H2885 C2900 0.960 . S
H2886 C2900 0.960 . S
H2887 C2900 0.960 . S
C2888 H2880 0.929 . S
C2888 C2889 1.377 . S
C2888 C2890 1.384 . S
C2889 C2888 1.377 . S
C2889 C2895 1.390 . S
C2890 H2881 0.930 . S
C2890 C2888 1.384 . S
C2890 C2891 1.372 . S
C2891 C2890 1.372 . S
C2891 C2892 1.400 . S
C2891 C2896 1.490 . S
C2892 H2882 0.930 . S
C2892 C2891 1.400 . S
C2892 C2895 1.386 . S
H2893 C2909 0.930 . S
H2894 C2910 0.931 . S
C2895 H2883 0.929 . S
C2895 C2889 1.390 . S
C2895 C2892 1.386 . S
C2896 C2891 1.490 . S
C2896 C2898 1.395 . S
C2896 C2899 1.403 . S
H2897 C2903 0.930 . S
C2898 H2884 0.930 . S
C2898 C2896 1.395 . S
C2898 C2901 1.403 . S
C2899 C2896 1.403 . S
C2899 C2900 1.524 . S
C2899 C2903 1.400 . S
C2900 H2885 0.960 . S
C2900 H2886 0.960 . S
C2900 H2887 0.960 . S
C2900 C2899 1.524 . S
C2901 C2898 1.403 . S
C2901 C2902 1.392 . S
C2901 C2905 1.495 . S
C2902 C2901 1.392 . S
C2902 C2903 1.385 . S
C2902 C2904 1.478 . S
C2903 H2897 0.930 . S
C2903 C2899 1.400 . S
C2903 C2902 1.385 . S
C2904 C2902 1.478 . S
C2904 C2906 1.381 . S
C2904 C2910 1.383 . S
C2905 C2901 1.495 . S
C2905 H2911 0.959 . S
C2905 H2912 0.961 . S
C2905 H2913 0.960 . S
C2906 C2904 1.381 . S
C2906 C2907 1.394 . S
C2906 H2914 0.930 . S
C2907 C2906 1.394 . S
C2907 C2908 1.383 . S
C2907 H2915 0.929 . S
C2908 C2907 1.383 . S
C2908 C2909 1.377 . S
C2909 H2893 0.930 . S
C2909 C2908 1.377 . S
C2909 C2910 1.379 . S
C2910 H2894 0.931 . S
C2910 C2904 1.383 . S
C2910 C2909 1.379 . S
H2911 C2905 0.959 . S
H2912 C2905 0.961 . S
H2913 C2905 0.960 . S
H2914 C2906 0.930 . S
H2915 C2907 0.929 . S
H2916 C2924 0.929 . S
H2917 C2926 0.930 . S
H2918 C2928 0.930 . S
H2919 C2931 0.929 . S
H2920 C2934 0.930 . S
H2921 C2936 0.960 . S
H2922 C2936 0.960 . S
H2923 C2936 0.960 . S
C2924 H2916 0.929 . S
C2924 C2925 1.377 . S
C2924 C2926 1.384 . S
C2925 C2924 1.377 . S
C2925 C2931 1.390 . S
C2926 H2917 0.930 . S
C2926 C2924 1.384 . S
C2926 C2927 1.372 . S
C2927 C2926 1.372 . S
C2927 C2928 1.400 . S
C2927 C2932 1.490 . S
C2928 H2918 0.930 . S
C2928 C2927 1.400 . S
C2928 C2931 1.386 . S
H2929 C2945 0.930 . S
H2930 C2946 0.931 . S
C2931 H2919 0.929 . S
C2931 C2925 1.390 . S
C2931 C2928 1.386 . S
C2932 C2927 1.490 . S
C2932 C2934 1.395 . S
C2932 C2935 1.403 . S
H2933 C2939 0.930 . S
C2934 H2920 0.930 . S
C2934 C2932 1.395 . S
C2934 C2937 1.403 1_545 S
C2935 C2932 1.403 . S
C2935 C2936 1.524 . S
C2935 C2939 1.400 1_545 S
C2936 H2921 0.960 . S
C2936 H2922 0.960 . S
C2936 H2923 0.960 . S
C2936 C2935 1.524 . S
C2937 C2934 1.403 1_565 S
C2937 C2938 1.392 . S
C2937 C2941 1.495 . S
C2938 C2937 1.392 . S
C2938 C2939 1.385 . S
C2938 C2940 1.478 . S
C2939 H2933 0.930 . S
C2939 C2935 1.400 1_565 S
C2939 C2938 1.385 . S
C2940 C2938 1.478 . S
C2940 C2942 1.381 . S
C2940 C2946 1.383 . S
C2941 C2937 1.495 . S
C2941 H2947 0.959 . S
C2941 H2948 0.961 . S
C2941 H2949 0.960 . S
C2942 C2940 1.381 . S
C2942 C2943 1.394 . S
C2942 H2950 0.930 . S
C2943 C2942 1.394 . S
C2943 C2944 1.383 . S
C2943 H2951 0.929 . S
C2944 C2943 1.383 . S
C2944 C2945 1.377 . S
C2945 H2929 0.930 . S
C2945 C2944 1.377 . S
C2945 C2946 1.379 . S
C2946 H2930 0.931 . S
C2946 C2940 1.383 . S
C2946 C2945 1.379 . S
H2947 C2941 0.959 . S
H2948 C2941 0.961 . S
H2949 C2941 0.960 . S
H2950 C2942 0.930 . S
H2951 C2943 0.929 . S
H2952 C2960 0.929 . S
H2953 C2962 0.930 . S
H2954 C2964 0.930 . S
H2955 C2967 0.929 1_556 S
H2956 C2970 0.930 . S
H2957 C2972 0.960 . S
H2958 C2972 0.960 . S
H2959 C2972 0.960 . S
C2960 H2952 0.929 . S
C2960 C2961 1.377 . S
C2960 C2962 1.384 . S
C2961 C2960 1.377 . S
C2961 C2967 1.390 . S
C2962 H2953 0.930 . S
C2962 C2960 1.384 . S
C2962 C2963 1.372 . S
C2963 C2962 1.372 . S
C2963 C2964 1.400 1_554 S
C2963 C2968 1.490 . S
C2964 H2954 0.930 . S
C2964 C2963 1.400 1_556 S
C2964 C2967 1.386 1_556 S
H2965 C2981 0.930 . S
H2966 C2982 0.931 . S
C2967 H2955 0.929 1_554 S
C2967 C2961 1.390 . S
C2967 C2964 1.386 1_554 S
C2968 C2963 1.490 . S
C2968 C2970 1.395 1_554 S
C2968 C2971 1.403 . S
H2969 C2975 0.930 . S
C2970 H2956 0.930 . S
C2970 C2968 1.395 1_556 S
C2970 C2973 1.403 1_545 S
C2971 C2968 1.403 . S
C2971 C2972 1.524 . S
C2971 C2975 1.400 1_545 S
C2972 H2957 0.960 . S
C2972 H2958 0.960 . S
C2972 H2959 0.960 . S
C2972 C2971 1.524 . S
C2973 C2970 1.403 1_565 S
C2973 C2974 1.392 . S
C2973 C2977 1.495 . S
C2974 C2973 1.392 . S
C2974 C2975 1.385 1_556 S
C2974 C2976 1.478 . S
C2975 H2969 0.930 . S
C2975 C2971 1.400 1_565 S
C2975 C2974 1.385 1_554 S
C2976 C2974 1.478 . S
C2976 C2978 1.381 1_556 S
C2976 C2982 1.383 . S
C2977 C2973 1.495 . S
C2977 H2983 0.959 . S
C2977 H2984 0.961 . S
C2977 H2985 0.960 . S
C2978 C2976 1.381 1_554 S
C2978 C2979 1.395 . S
C2978 H2986 0.930 . S
C2979 C2978 1.395 . S
C2979 C2980 1.378 1_554 S
C2979 H2987 0.933 . S
C2980 C2979 1.378 1_556 S
C2980 C2981 1.377 . S
C2981 H2965 0.930 . S
C2981 C2980 1.377 . S
C2981 C2982 1.379 . S
C2982 H2966 0.931 . S
C2982 C2976 1.383 . S
C2982 C2981 1.379 . S
H2983 C2977 0.959 . S
H2984 C2977 0.961 . S
H2985 C2977 0.960 . S
H2986 C2978 0.930 . S
H2987 C2979 0.933 . S
H2988 C2996 0.929 . S
H2989 C2998 0.930 . S
H2990 C3000 0.930 . S
H2991 C3003 0.929 . S
H2992 C3006 0.930 . S
H2993 C3008 0.960 . S
H2994 C3008 0.960 . S
H2995 C3008 0.960 1_556 S
C2996 H2988 0.929 . S
C2996 C2997 1.377 . S
C2996 C2998 1.384 . S
C2997 C2996 1.377 . S
C2997 C3003 1.390 1_554 S
C2998 H2989 0.930 . S
C2998 C2996 1.384 . S
C2998 C2999 1.372 . S
C2999 C2998 1.372 . S
C2999 C3000 1.400 1_554 S
C2999 C3004 1.490 . S
C3000 H2990 0.930 . S
C3000 C2999 1.400 1_556 S
C3000 C3003 1.386 . S
H3001 C3017 0.930 . S
H3002 C3018 0.931 . S
C3003 H2991 0.929 . S
C3003 C2997 1.390 1_556 S
C3003 C3000 1.386 . S
C3004 C2999 1.490 . S
C3004 C3006 1.395 . S
C3004 C3007 1.403 . S
H3005 C3011 0.930 . S
C3006 H2992 0.930 . S
C3006 C3004 1.395 . S
C3006 C3009 1.404 1_654 S
C3007 C3004 1.403 . S
C3007 C3008 1.524 . S
C3007 C3011 1.400 1_654 S
C3008 H2993 0.960 . S
C3008 H2994 0.960 . S
C3008 H2995 0.960 1_554 S
C3008 C3007 1.524 . S
C3009 C3006 1.404 1_456 S
C3009 C3010 1.392 . S
C3009 C3013 1.495 . S
C3010 C3009 1.392 . S
C3010 C3011 1.385 . S
C3010 C3012 1.478 . S
C3011 H3005 0.930 . S
C3011 C3007 1.400 1_456 S
C3011 C3010 1.385 . S
C3012 C3010 1.478 . S
C3012 C3014 1.381 1_556 S
C3012 C3018 1.383 . S
C3013 C3009 1.495 . S
C3013 H3019 0.959 1_556 S
C3013 H3020 0.961 . S
C3013 H3021 0.960 1_556 S
C3014 C3012 1.381 1_554 S
C3014 C3015 1.394 . S
C3014 H3022 0.930 . S
C3015 C3014 1.394 . S
C3015 C3016 1.383 1_554 S
C3015 H3023 0.929 . S
C3016 C3015 1.383 1_556 S
C3016 C3017 1.377 . S
C3017 H3001 0.930 . S
C3017 C3016 1.377 . S
C3017 C3018 1.379 . S
C3018 H3002 0.931 . S
C3018 C3012 1.383 . S
C3018 C3017 1.379 . S
H3019 C3013 0.959 1_554 S
H3020 C3013 0.961 . S
H3021 C3013 0.960 1_554 S
H3022 C3014 0.930 . S
H3023 C3015 0.929 . S
H3024 C3032 0.929 . S
H3025 C3034 0.930 . S
H3026 C3036 0.930 . S
H3027 C3039 0.921 1_556 S
H3028 C3042 0.930 . S
H3029 C3044 0.960 . S
H3030 C3044 0.960 . S
H3031 C3044 0.960 . S
C3032 H3024 0.929 . S
C3032 C3033 1.377 . S
C3032 C3034 1.384 . S
C3033 C3032 1.377 . S
C3033 C3039 1.401 . S
C3034 H3025 0.930 . S
C3034 C3032 1.384 . S
C3034 C3035 1.372 . S
C3035 C3034 1.372 . S
C3035 C3036 1.400 1_554 S
C3035 C3040 1.490 . S
C3036 H3026 0.930 . S
C3036 C3035 1.400 1_556 S
C3036 C3039 1.383 1_556 S
H3037 C3053 0.930 . S
H3038 C3054 0.931 . S
C3039 H3027 0.921 1_554 S
C3039 C3033 1.401 . S
C3039 C3036 1.383 1_554 S
C3040 C3035 1.490 . S
C3040 C3042 1.395 1_554 S
C3040 C3043 1.403 . S
H3041 C3047 0.930 . S
C3042 H3028 0.930 . S
C3042 C3040 1.395 1_556 S
C3042 C3045 1.403 . S
C3043 C3040 1.403 . S
C3043 C3044 1.524 . S
C3043 C3047 1.400 . S
C3044 H3029 0.960 . S
C3044 H3030 0.960 . S
C3044 H3031 0.960 . S
C3044 C3043 1.524 . S
C3045 C3042 1.403 . S
C3045 C3046 1.392 . S
C3045 C3049 1.495 . S
C3046 C3045 1.392 . S
C3046 C3047 1.385 1_556 S
C3046 C3048 1.478 . S
C3047 H3041 0.930 . S
C3047 C3043 1.400 . S
C3047 C3046 1.385 1_554 S
C3048 C3046 1.478 . S
C3048 C3050 1.381 1_556 S
C3048 C3054 1.383 . S
C3049 C3045 1.495 . S
C3049 H3055 0.959 . S
C3049 H3056 0.961 . S
C3049 H3057 0.960 . S
C3050 C3048 1.381 1_554 S
C3050 C3051 1.394 . S
C3050 H3058 0.930 . S
C3051 C3050 1.394 . S
C3051 C3052 1.383 1_554 S
C3051 H3059 0.929 . S
C3052 C3051 1.383 1_556 S
C3052 C3053 1.377 . S
C3053 H3037 0.930 . S
C3053 C3052 1.377 . S
C3053 C3054 1.379 . S
C3054 H3038 0.931 . S
C3054 C3048 1.383 . S
C3054 C3053 1.379 . S
H3055 C3049 0.959 . S
H3056 C3049 0.961 . S
H3057 C3049 0.960 . S
H3058 C3050 0.930 . S
H3059 C3051 0.929 . S
C477 C134 1.274 . S
C496 C5 1.253 . S
C513 C147 1.279 . S
C532 C18 1.283 . S
C549 C29 1.275 . S
C568 C121 1.278 . S
C585 C44 1.274 . S
C604 C108 1.267 . S
C621 C57 1.279 . S
C640 C82 1.293 . S
C657 C101 1.281 . S
C676 C68 1.284 . S
C693 C56 1.280 . S
C712 C83 1.255 . S
C729 C75 1.279 . S
C748 C94 1.280 . S
C765 C109 1.279 . S
C784 C43 1.266 . S
C801 C36 1.281 . S
C820 C122 1.269 . S
C837 C135 1.275 . S
C856 C4 1.286 . S
C873 C148 1.279 . S
C892 C17 1.263 . S
C909 C296 1.281 . S
C928 C161 1.291 . S
C945 C303 1.274 . S
C964 C174 1.253 . S
C981 C187 1.279 . S
C1000 C277 1.293 . S
C1017 C200 1.273 . S
C1036 C264 1.264 . S
C1053 C213 1.271 . S
C1072 C238 1.259 . S
C1089 C226 1.273 . S
C1108 C251 1.271 . S
C1125 C212 1.274 . S
C1144 C239 1.283 . S
C1161 C225 1.281 . S
C1180 C252 1.253 . S
C1197 C199 1.278 . S
C1216 C265 1.262 . S
C1233 C186 1.274 . S
C1252 C278 1.282 . S
C1269 C160 1.280 . S
C1288 C289 1.278 . S
C1305 C173 1.279 . S
C1324 C304 1.257 . S
C1341 C315 1.279 . S
C1360 C452 1.293 . S
C1377 C459 1.281 . S
C1396 C328 1.291 . S
C1413 C433 1.282 . S
C1432 C341 1.288 . S
C1449 C356 1.272 . S
C1468 C426 1.269 . S
C1485 C367 1.278 . S
C1504 C400 1.290 . S
C1521 C382 1.276 . S
C1540 C413 1.286 . S
C1557 C374 1.280 . S
C1576 C393 1.254 . S
C1593 C381 1.274 . S
C1612 C406 1.285 . S
C1629 C355 1.277 . S
C1648 C419 1.268 . S
C1665 C434 1.279 . S
C1684 C348 1.266 . S
C1701 C322 1.277 . S
C1720 C445 1.263 . S
C1737 C460 1.277 . S
C1756 C335 1.258 . S
C1773 C49 1.586 . S
C1792 C10 1.580 . S
C1809 C62 1.585 . S
C1828 C23 1.584 . S
C1845 C30 1.585 . S
C1864 C69 1.585 . S
C1881 C127 1.586 . S
C1900 C88 1.580 . S
C1917 C140 1.585 . S
C1936 C95 1.580 . S
C1953 C153 1.585 . S
C1972 C114 1.584 . S
C1989 C205 1.585 . S
C2008 C166 1.581 . S
C2025 C218 1.585 . S
C2044 C179 1.585 . S
C2061 C192 1.585 . S
C2080 C231 1.579 . S
C2097 C244 1.585 . S
C2116 C283 1.585 . S
C2133 C290 1.585 . S
C2152 C257 1.584 . S
C2169 C270 1.585 . S
C2188 C309 1.585 . S
C2205 C361 1.585 . S
C2224 C316 1.579 . S
C2241 C368 1.585 . S
C2260 C329 1.579 . S
C2277 C342 1.585 . S
C2296 C387 1.581 . S
C2313 C394 1.585 . S
C2332 C439 1.584 . S
C2349 C407 1.586 . S
C2368 C446 1.578 . S
C2385 C420 1.586 . S
C2404 C465 1.578 . S
C2421 C3 1.569 . S
C2440 C237 1.565 . S
C2457 C250 1.569 . S
C2476 C16 1.566 . S
C2493 C263 1.569 . S
C2512 C31 1.566 . S
C2529 C432 1.569 . S
C2548 C42 1.565 . S
C2565 C447 1.569 . S
C2584 C55 1.565 . S
C2601 C458 1.569 . S
C2620 C70 1.567 . S
C2637 C81 1.569 . S
C2656 C317 1.567 . S
C2673 C330 1.569 . S
C2692 C96 1.566 . S
C2709 C343 1.569 . S
C2728 C107 1.564 . S
C2745 C120 1.569 . S
C2764 C198 1.565 . S
C2781 C133 1.569 . S
C2800 C211 1.566 . S
C2817 C146 1.569 . S
C2836 C224 1.564 . S
C2853 C395 1.569 . S
C2872 C159 1.567 . S
C2889 C408 1.569 . S
C2908 C172 1.566 . S
C2925 C185 1.569 . S
C2944 C421 1.565 . S
C2961 C276 1.569 . S
C2980 C354 1.564 . S
C2997 C291 1.569 . S
C3016 C369 1.564 . S
C3033 C302 1.568 . S
C3052 C380 1.564 . S
