# Generated by pormake.
# Topology uni, (4)-cn, num edge types: 1
# Building blocks:
#     Node 0, Type 0, BuildingBlock: QUQFOY_clean_sbu_3, # of connection points: 4
#     Node 1, Type 0, BuildingBlock: QUQFOY_clean_sbu_3, # of connection points: 4
#     Node 2, Type 0, BuildingBlock: QUQFOY_clean_sbu_3, # of connection points: 4
#     Node 3, Type 0, BuildingBlock: QUQFOY_clean_sbu_3, # of connection points: 4
#     Node 4, Type 0, BuildingBlock: QUQFOY_clean_sbu_3, # of connection points: 4
#     Node 5, Type 0, BuildingBlock: QUQFOY_clean_sbu_3, # of connection points: 4
#     Edge 6, Type (0, 0), BuildingBlock: UVAHIK_clean_linker_0, # of connection points: 2
#     Edge 7, Type (0, 0), BuildingBlock: UVAHIK_clean_linker_0, # of connection points: 2
#     Edge 8, Type (0, 0), BuildingBlock: UVAHIK_clean_linker_0, # of connection points: 2
#     Edge 9, Type (0, 0), BuildingBlock: UVAHIK_clean_linker_0, # of connection points: 2
#     Edge 10, Type (0, 0), BuildingBlock: UVAHIK_clean_linker_0, # of connection points: 2
#     Edge 11, Type (0, 0), BuildingBlock: UVAHIK_clean_linker_0, # of connection points: 2
#     Edge 12, Type (0, 0), BuildingBlock: UVAHIK_clean_linker_0, # of connection points: 2
#     Edge 13, Type (0, 0), BuildingBlock: UVAHIK_clean_linker_0, # of connection points: 2
#     Edge 14, Type (0, 0), BuildingBlock: UVAHIK_clean_linker_0, # of connection points: 2
#     Edge 15, Type (0, 0), BuildingBlock: UVAHIK_clean_linker_0, # of connection points: 2
#     Edge 16, Type (0, 0), BuildingBlock: UVAHIK_clean_linker_0, # of connection points: 2
#     Edge 17, Type (0, 0), BuildingBlock: UVAHIK_clean_linker_0, # of connection points: 2
# Relax obj value: 0.063
# Max RMSD: 0.095
# Mean RMSD: 0.087
data_MOF--net-uni--node1-QUQFOY_clean_sbu_3--edge1-UVAHIK_clean_linker_0
_symmetry_space_group_name_H-M    P1
_symmetry_Int_Tables_number       1
_symmetry_cell_setting            triclinic
loop_
_symmetry_equiv_pos_as_xyz
'x, y, z'
_cell_length_a     50.703088
_cell_length_b     51.969013
_cell_length_c     30.027614
_cell_angle_alpha  89.981153
_cell_angle_beta   89.984952
_cell_angle_gamma 119.98688
loop_
_atom_site_label
_atom_site_type_symbol
_atom_site_fract_x
_atom_site_fract_y
_atom_site_fract_z
_atom_type_partial_charge
C0 C 0.70914 0.10367 0.10995 0.0
O1 O 0.69526 0.11428 0.13171 0.0
Cd2 Cd 0.64657 0.08652 0.16687 0.0
O3 O 0.69775 0.07565 0.10612 0.0
Cd4 Cd 0.65122 0.02984 0.13172 0.0
C5 C 0.60425 0.04828 0.07599 0.0
O6 O 0.64781 0.04715 0.20586 0.0
O7 O 0.61055 0.00439 0.18674 0.0
O8 O 0.68025 0.00446 0.14473 0.0
C9 C 0.62273 0.02445 0.21613 0.0
O10 O 0.6106 0.06827 0.10524 0.0
C11 C 0.66403 0.98272 0.11916 0.0
O12 O 0.61657 0.03211 0.07697 0.0
O13 O 0.6425 0.98344 0.09864 0.0
C14 C 0.70151 0.62465 0.1365 0.0
O15 O 0.68953 0.60201 0.11122 0.0
Cd16 Cd 0.6439 0.58514 0.06821 0.0
O17 O 0.69035 0.64182 0.13904 0.0
Cd18 Cd 0.64785 0.64599 0.10524 0.0
C19 C 0.59588 0.58015 0.15277 0.0
O20 O 0.64848 0.62756 0.03048 0.0
O21 O 0.6113 0.63514 0.04564 0.0
O22 O 0.67899 0.70001 0.09709 0.0
C23 C 0.62449 0.62721 0.01756 0.0
O24 O 0.60379 0.56704 0.12445 0.0
C25 C 0.66158 0.70559 0.12056 0.0
O26 O 0.60883 0.6084 0.15387 0.0
O27 O 0.63848 0.68351 0.13783 0.0
C28 C 0.91652 0.62071 0.441 0.0
O29 O 0.90642 0.59712 0.46396 0.0
Cd30 Cd 0.93772 0.57936 0.49637 0.0
O31 O 0.94509 0.63781 0.43608 0.0
Cd32 Cd 0.99263 0.64002 0.46172 0.0
C33 C 0.97635 0.5784 0.40293 0.0
O34 O 0.97888 0.61833 0.53678 0.0
O35 O 0.01907 0.62142 0.50684 0.0
O36 O 0.01679 0.69228 0.4826 0.0
C37 C 0.00202 0.61513 0.5407 0.0
O38 O 0.95745 0.56392 0.43383 0.0
C39 C 0.03945 0.7008 0.45668 0.0
O40 O 0.99092 0.60671 0.40298 0.0
O41 O 0.03965 0.68117 0.43168 0.0
C42 C 0.31865 0.93876 0.6106 0.0
O43 O 0.33286 0.92852 0.63242 0.0
Cd44 Cd 0.38167 0.95686 0.6671 0.0
O45 O 0.3297 0.96671 0.6064 0.0
Cd46 Cd 0.37599 0.01291 0.63122 0.0
C47 C 0.42364 0.99511 0.57594 0.0
O48 O 0.3805 0.99641 0.70566 0.0
O49 O 0.41698 0.03926 0.68504 0.0
O50 O 0.34713 0.03842 0.64468 0.0
C51 C 0.40551 0.01949 0.71497 0.0
O52 O 0.41757 0.97525 0.60534 0.0
C53 C 0.3628 0.05973 0.61808 0.0
O54 O 0.41093 0.01095 0.57671 0.0
O55 O 0.38387 0.05865 0.59679 0.0
C56 C 0.32663 0.41779 0.63679 0.0
O57 O 0.33792 0.4402 0.61105 0.0
Cd58 Cd 0.38332 0.4575 0.56758 0.0
O59 O 0.33841 0.40114 0.63931 0.0
Cd60 Cd 0.38113 0.39774 0.60441 0.0
C61 C 0.43208 0.4638 0.65186 0.0
O62 O 0.37891 0.41522 0.5298 0.0
O63 O 0.41752 0.40972 0.5435 0.0
O64 O 0.35009 0.3437 0.59704 0.0
C65 C 0.40316 0.41657 0.51586 0.0
O66 O 0.42367 0.47643 0.62341 0.0
C67 C 0.36814 0.33828 0.61915 0.0
O68 O 0.4197 0.4356 0.65318 0.0
O69 O 0.39165 0.36048 0.63532 0.0
C70 C 0.11181 0.4214 0.94165 0.0
O71 O 0.12158 0.44537 0.96353 0.0
Cd72 Cd 0.08968 0.46253 0.99568 0.0
O73 O 0.08331 0.40372 0.93737 0.0
Cd74 Cd 0.03552 0.4011 0.96255 0.0
C75 C 0.05029 0.462 0.90258 0.0
O76 O 0.04948 0.42327 0.03724 0.0
O77 O 0.00847 0.41884 0.00822 0.0
O78 O 0.01167 0.34882 0.98357 0.0
C79 C 0.02589 0.42565 0.04172 0.0
O80 O 0.06909 0.47713 0.93319 0.0
C81 C 0.98915 0.34016 0.95736 0.0
O82 O 0.03645 0.43371 0.9033 0.0
O83 O 0.98889 0.35971 0.93226 0.0
C84 C 0.58361 0.99554 0.27391 0.0
C85 C 0.6064 0.02306 0.25747 0.0
C86 C 0.56669 0.99423 0.31141 0.0
C87 C 0.53601 0.0342 0.36767 0.0
H88 H 0.52707 0.98508 0.47014 0.0
C89 C 0.46185 0.02716 0.51849 0.0
C90 C 0.44587 -0.00024 0.54061 0.0
C91 C 0.48346 0.03163 0.48591 0.0
C92 C 0.52889 -0.00144 0.44154 0.0
H93 H 0.6296 0.07076 0.26732 0.0
H94 H 0.59921 0.06844 0.33232 0.0
H95 H 0.56128 0.9895 0.40977 0.0
H96 H 0.43935 0.95533 0.54531 0.0
H97 H 0.47572 0.96251 0.48719 0.0
H98 H 0.50258 0.04214 0.39776 0.0
C99 C 0.59485 0.04797 0.31643 0.0
C100 C 0.54871 0.00125 0.40722 0.0
C101 C 0.61226 0.04925 0.27949 0.0
C102 C 0.45156 0.97681 0.52913 0.0
C103 C 0.47267 0.98106 0.49599 0.0
C104 C 0.51571 0.03106 0.40154 0.0
C105 C 0.57185 0.02045 0.33249 0.0
C106 C 0.5523 0.01897 0.36997 0.0
C107 C 0.48911 0.0086 0.47412 0.0
C108 C 0.51169 0.013 0.43884 0.0
H109 H 0.57868 0.97503 0.25756 0.0
H110 H 0.54893 0.97278 0.32315 0.0
H111 H 0.53823 0.04776 0.33893 0.0
H112 H 0.45811 0.04535 0.52696 0.0
H113 H 0.49597 0.05331 0.47045 0.0
C114 C 0.56519 0.53325 0.19581 0.0
C115 C 0.57182 0.56223 0.18548 0.0
C116 C 0.54327 0.51655 0.22782 0.0
C117 C 0.501 0.5248 0.32282 0.0
H118 H 0.45535 0.43879 0.3151 0.0
C119 C 0.40955 0.44986 0.45166 0.0
C120 C 0.41668 0.42987 0.47245 0.0
C121 C 0.4249 0.46488 0.41299 0.0
C122 C 0.46788 0.46281 0.31746 0.0
H123 H 0.56001 0.59614 0.19952 0.0
H124 H 0.52077 0.56656 0.25404 0.0
H125 H 0.48838 0.46767 0.25358 0.0
H126 H 0.44429 0.40885 0.46827 0.0
H127 H 0.47042 0.43445 0.39981 0.0
H128 H 0.47985 0.51965 0.38655 0.0
C129 C 0.5332 0.55701 0.23858 0.0
C130 C 0.48703 0.4794 0.28248 0.0
C131 C 0.55558 0.57395 0.20713 0.0
C132 C 0.43842 0.42419 0.45291 0.0
C133 C 0.45325 0.43871 0.41375 0.0
C134 C 0.48138 0.5082 0.35737 0.0
C135 C 0.52695 0.52817 0.24973 0.0
C136 C 0.50439 0.51062 0.28509 0.0
C137 C 0.44705 0.45959 0.394 0.0
C138 C 0.46514 0.47708 0.35532 0.0
H139 H 0.57752 0.5237 0.17996 0.0
H140 H 0.53973 0.49476 0.23606 0.0
H141 H 0.51428 0.54869 0.32656 0.0
H142 H 0.39298 0.45474 0.4662 0.0
H143 H 0.41977 0.4809 0.3982 0.0
C144 C 0.05692 0.50858 0.86728 0.0
C145 C 0.04422 0.47755 0.86614 0.0
C146 C 0.05104 0.52329 0.83316 0.0
C147 C 0.02867 0.51576 0.71573 0.0
H148 H 0.01131 0.57887 0.74234 0.0
C149 C 0.98686 0.59225 0.61676 0.0
C150 C 0.00681 0.60098 0.58018 0.0
C151 C 0.99077 0.57743 0.65285 0.0
C152 C 0.01593 0.56116 0.73445 0.0
H153 H 0.01527 0.43765 0.82821 0.0
H154 H 0.00512 0.46341 0.76858 0.0
H155 H 0.01862 0.5518 0.80327 0.0
H156 H 0.0469 0.60167 0.55324 0.0
H157 H 0.05366 0.57595 0.61604 0.0
H158 H 0.02594 0.52501 0.64701 0.0
C159 C 0.01975 0.47632 0.79583 0.0
C160 C 0.02039 0.54587 0.76927 0.0
C161 C 0.02548 0.46157 0.83009 0.0
C162 C 0.03102 0.59511 0.58079 0.0
C163 C 0.03482 0.58021 0.61664 0.0
C164 C 0.02441 0.53115 0.68099 0.0
C165 C 0.03247 0.50733 0.79702 0.0
C166 C 0.02692 0.52308 0.76024 0.0
C167 C 0.01457 0.57093 0.65283 0.0
C168 C 0.01818 0.55413 0.68996 0.0
H169 H 0.07143 0.52159 0.89457 0.0
H170 H 0.06145 0.54724 0.83471 0.0
H171 H 0.03391 0.49848 0.70773 0.0
H172 H 0.968 0.59647 0.61723 0.0
H173 H 0.97475 0.57041 0.68024 0.0
C174 C 0.56675 0.01712 0.01711 0.0
C175 C 0.58254 0.04422 0.04016 0.0
C176 C 0.54609 0.01346 0.98343 0.0
C177 C 0.53088 0.05413 0.89977 0.0
H178 H 0.44669 0.9907 0.90346 0.0
C179 C 0.44507 0.04963 0.7713 0.0
C180 C 0.42265 0.02172 0.75578 0.0
C181 C 0.46307 0.05187 0.80787 0.0
C182 C 0.47022 0.00827 0.90146 0.0
H183 H 0.58933 0.08876 0.04578 0.0
H184 H 0.55394 0.08256 0.98604 0.0
H185 H 0.48163 0.99481 0.96269 0.0
H186 H 0.40109 0.97422 0.76642 0.0
H187 H 0.43338 0.97794 0.82907 0.0
H188 H 0.5203 0.06712 0.83803 0.0
C189 C 0.5573 0.06413 0.99449 0.0
C190 C 0.49013 0.01064 0.93551 0.0
C191 C 0.57743 0.06759 0.02872 0.0
C192 C 0.4181 0.99605 0.77799 0.0
C193 C 0.43657 -0.00176 0.81405 0.0
C194 C 0.51122 0.05146 0.86533 0.0
C195 C 0.54144 0.03704 0.97166 0.0
C196 C 0.52052 0.03375 0.93508 0.0
C197 C 0.45958 0.0262 0.82914 0.0
C198 C 0.4805 0.02868 0.86586 0.0
H199 H 0.57014 -0.00131 0.02537 0.0
H200 H 0.53416 0.99242 0.96604 0.0
H201 H 0.55437 0.07194 0.89855 0.0
H202 H 0.44881 0.06979 0.755 0.0
H203 H 0.47988 0.07382 0.8192 0.0
C204 C 0.61432 0.59236 0.95397 0.0
C205 C 0.60994 0.61419 0.97455 0.0
C206 C 0.59752 0.57754 0.91609 0.0
C207 C 0.5264 0.56167 0.85709 0.0
H208 H 0.55672 0.53045 0.76557 0.0
C209 C 0.46196 0.51134 0.69376 0.0
C210 C 0.45555 0.4822 0.68505 0.0
C211 C 0.48266 0.52824 0.72696 0.0
C212 C 0.54804 0.53902 0.79105 0.0
H213 H 0.58619 0.63904 0.97039 0.0
H214 H 0.5582 0.61453 0.90313 0.0
H215 H 0.59033 0.55997 0.82639 0.0
H216 H 0.46666 0.44831 0.70323 0.0
H217 H 0.50354 0.47834 0.76083 0.0
H218 H 0.48442 0.54138 0.82089 0.0
C219 C 0.57345 0.60772 0.91708 0.0
C220 C 0.56718 0.5558 0.82601 0.0
C221 C 0.58971 0.62202 0.95541 0.0
C222 C 0.47103 0.47065 0.70932 0.0
C223 C 0.49221 0.48782 0.74205 0.0
C224 C 0.50756 0.54542 0.82179 0.0
C225 C 0.57643 0.58466 0.89759 0.0
C226 C 0.55658 0.56734 0.85957 0.0
C227 C 0.49779 0.51656 0.75158 0.0
C228 C 0.51816 0.53391 0.78856 0.0
H229 H 0.62967 0.58579 0.9683 0.0
H230 H 0.60027 0.55974 0.90244 0.0
H231 H 0.51701 0.56935 0.8828 0.0
H232 H 0.45038 0.52087 0.67574 0.0
H233 H 0.48674 0.55043 0.73363 0.0
C234 C 0.04162 0.44944 0.11705 0.0
C235 C 0.02063 0.43901 0.08175 0.0
C236 C 0.03705 0.46331 0.1538 0.0
C237 C 0.03138 0.50856 0.21159 0.0
H238 H 0.9501 0.47903 0.25901 0.0
C239 C 0.00177 0.57722 0.3318 0.0
C240 C 0.98172 0.56198 0.36707 0.0
C241 C 0.00699 0.56159 0.29834 0.0
C242 C 0.973 0.48743 0.24647 0.0
H243 H 0.9782 0.43453 0.05756 0.0
H244 H 0.97044 0.45888 0.12119 0.0
H245 H 0.95828 0.45182 0.19973 0.0
H246 H 0.95162 0.51831 0.39494 0.0
H247 H 0.96098 0.49119 0.33694 0.0
H248 H 0.04614 0.54398 0.25881 0.0
C249 C 0.99023 0.45609 0.12088 0.0
C250 C 0.97763 0.472 0.21216 0.0
C251 C -0.00521 0.44228 0.08425 0.0
C252 C 0.96707 0.53078 0.36814 0.0
C253 C 0.97233 0.51519 0.33477 0.0
C254 C 0.02675 0.524 0.24597 0.0
C255 C 0.01137 0.46693 0.15597 0.0
C256 C 0.00682 0.48251 0.19407 0.0
C257 C 0.9923 0.53039 0.29944 0.0
C258 C -0.00254 0.5137 0.2636 0.0
H259 H 0.06172 0.44718 0.11609 0.0
H260 H 0.05358 0.47112 0.18056 0.0
H261 H 0.05411 0.51739 0.19811 0.0
H262 H 0.0134 0.60124 0.3299 0.0
H263 H 0.0222 0.57395 0.27125 0.0
C264 C 0.64701 0.74139 0.15158 0.0
C265 C 0.66664 0.73608 0.1251 0.0
C266 C 0.64961 0.76942 0.15231 0.0
C267 C 0.64511 0.82219 0.12073 0.0
H268 H 0.72214 0.89624 0.12063 0.0
C269 C 0.65019 0.93317 0.08703 0.0
C270 C 0.66862 0.95685 0.11557 0.0
C271 C 0.65234 0.90742 0.08672 0.0
C272 C 0.70046 0.87574 0.12084 0.0
H273 H 0.7052 0.75633 0.08 0.0
H274 H 0.70953 0.80528 0.08093 0.0
H275 H 0.72166 0.84906 0.12648 0.0
H276 H 0.70458 0.97254 0.16496 0.0
H277 H 0.70811 0.92737 0.16473 0.0
H278 H 0.62381 0.84865 0.11591 0.0
C279 C 0.69229 0.78781 0.10141 0.0
C280 C 0.70019 0.84873 0.12383 0.0
C281 C 0.68973 0.75973 0.10075 0.0
C282 C 0.69006 0.95466 0.14258 0.0
C283 C 0.69217 0.92883 0.14232 0.0
C284 C 0.64537 0.8491 0.11769 0.0
C285 C 0.67182 0.79278 0.12647 0.0
C286 C 0.67248 0.82165 0.12392 0.0
C287 C 0.67289 0.90469 0.11503 0.0
C288 C 0.67302 0.8762 0.11763 0.0
H289 H 0.62914 0.7237 0.17101 0.0
H290 H 0.63388 0.77268 0.17268 0.0
H291 H 0.62338 0.80175 0.12005 0.0
H292 H 0.6336 0.93424 0.06556 0.0
H293 H 0.63757 0.88944 0.06466 0.0
C294 C 0.86335 0.6085 0.42236 0.0
C295 C 0.89491 0.62684 0.41645 0.0
C296 C 0.84286 0.61168 0.39509 0.0
C297 C 0.83543 0.66089 0.31238 0.0
H298 H 0.76995 0.58627 0.26721 0.0
C299 C 0.74013 0.61131 0.16211 0.0
C300 C 0.72714 0.6296 0.16583 0.0
C301 C 0.76188 0.61356 0.19272 0.0
C302 C 0.78824 0.60732 0.27921 0.0
H303 H 0.92963 0.66403 0.37875 0.0
H304 H 0.89384 0.66928 0.33077 0.0
H305 H 0.80466 0.58589 0.32256 0.0
H306 H 0.72786 0.66553 0.20365 0.0
H307 H 0.76573 0.66926 0.25742 0.0
H308 H 0.81924 0.68224 0.26789 0.0
C309 C 0.88494 0.65259 0.35676 0.0
C310 C 0.80788 0.60711 0.3115 0.0
C311 C 0.90546 0.64948 0.38418 0.0
C312 C 0.73739 0.65109 0.19982 0.0
C313 C 0.75917 0.65329 0.23058 0.0
C314 C 0.81568 0.6611 0.27999 0.0
C315 C 0.85342 0.63319 0.36112 0.0
C316 C 0.83179 0.63385 0.32838 0.0
C317 C 0.77113 0.63408 0.22793 0.0
C318 C 0.79202 0.63429 0.26278 0.0
H319 H 0.85441 0.59105 0.44721 0.0
H320 H 0.8187 0.5968 0.39995 0.0
H321 H 0.85352 0.68187 0.32492 0.0
H322 H 0.73302 0.59472 0.1361 0.0
H323 H 0.77116 0.59888 0.18917 0.0
C324 C 0.06767 0.75065 0.49307 0.0
C325 C 0.06587 0.73126 0.45908 0.0
C326 C 0.09469 0.77735 0.50041 0.0
C327 C 0.1531 0.83701 0.50436 0.0
H328 H 0.22379 0.82681 0.50113 0.0
C329 C 0.27364 0.92809 0.56253 0.0
C330 C 0.28945 0.91779 0.5888 0.0
C331 C 0.24661 0.90799 0.54089 0.0
C332 C 0.20428 0.83003 0.50225 0.0
H333 H 0.09012 0.72577 0.40377 0.0
H334 H 0.1371 0.77268 0.41594 0.0
H335 H 0.17557 0.78797 0.47191 0.0
H336 H 0.2889 0.87823 0.61342 0.0
H337 H 0.24189 0.84344 0.57633 0.0
H338 H 0.18175 0.87855 0.53692 0.0
C339 C 0.11789 0.7669 0.4377 0.0
C340 C 0.17668 0.80793 0.48486 0.0
C341 C 0.09091 0.7401 0.43055 0.0
C342 C 0.27747 0.88701 0.5933 0.0
C343 C 0.25059 0.86701 0.57171 0.0
C344 C 0.1808 0.85916 0.52188 0.0
C345 C 0.12046 0.78532 0.47373 0.0
C346 C 0.15056 0.81081 0.48657 0.0
C347 C 0.23496 0.87722 0.54497 0.0
C348 C 0.20647 0.85553 0.52203 0.0
H349 H 0.04874 0.7445 0.51559 0.0
H350 H 0.09587 0.79082 0.52867 0.0
H351 H 0.13351 0.84008 0.5057 0.0
H352 H 0.28226 0.95167 0.55832 0.0
H353 H 0.23513 0.91652 0.52038 0.0
C354 C 0.33922 0.28398 0.60065 0.0
C355 C 0.36317 0.30782 0.62347 0.0
C356 C 0.33645 0.25581 0.60122 0.0
C357 C 0.32856 0.19496 0.62395 0.0
H358 H 0.40407 0.19386 0.61071 0.0
C359 C 0.33776 0.08851 0.64252 0.0
C360 C 0.35825 0.08562 0.61429 0.0
C361 C 0.33594 0.11451 0.64213 0.0
C362 C 0.38273 0.19373 0.61398 0.0
H363 H 0.40213 0.3205 0.66648 0.0
H364 H 0.39704 0.27137 0.668 0.0
H365 H 0.40529 0.24114 0.61473 0.0
H366 H 0.39177 0.10708 0.56196 0.0
H367 H 0.38828 0.15213 0.56081 0.0
H368 H 0.30602 0.14739 0.62237 0.0
C369 C 0.38076 0.27453 0.6489 0.0
C370 C 0.38347 0.22087 0.61696 0.0
C371 C 0.38356 0.30265 0.64827 0.0
C372 C 0.37593 0.10871 0.58438 0.0
C373 C 0.37408 0.13461 0.58393 0.0
C374 C 0.32782 0.16773 0.62102 0.0
C375 C 0.35757 0.25094 0.62464 0.0
C376 C 0.35643 0.22184 0.62208 0.0
C377 C 0.35456 0.1381 0.61347 0.0
C378 C 0.35492 0.16683 0.61591 0.0
H379 H 0.32314 0.28726 0.58121 0.0
H380 H 0.31845 0.23816 0.58195 0.0
H381 H 0.30735 0.19497 0.62813 0.0
H382 H 0.32383 0.07111 0.66597 0.0
H383 H 0.32082 0.11655 0.66549 0.0
C384 C 0.12336 0.3922 0.8863 0.0
C385 C 0.13368 0.41538 0.91759 0.0
C386 C 0.14404 0.38908 0.85924 0.0
C387 C 0.22054 0.43503 0.81246 0.0
H388 H 0.21052 0.35986 0.77158 0.0
C389 C 0.29184 0.39169 0.7014 0.0
C390 C 0.30112 0.41257 0.66659 0.0
C391 C 0.27021 0.3894 0.73254 0.0
C392 C 0.21371 0.38101 0.78292 0.0
H393 H 0.17396 0.45218 0.94708 0.0
H394 H 0.20995 0.44643 0.90044 0.0
H395 H 0.17635 0.36035 0.82876 0.0
H396 H 0.29362 0.44618 0.6358 0.0
H397 H 0.25576 0.44185 0.68953 0.0
H398 H 0.25794 0.45578 0.76721 0.0
C399 C 0.18584 0.4311 0.89606 0.0
C400 C 0.19402 0.38129 0.8154 0.0
C401 C 0.16519 0.4343 0.92297 0.0
C402 C 0.28728 0.43008 0.66244 0.0
C403 C 0.26569 0.42775 0.69342 0.0
C404 C 0.2401 0.43475 0.78009 0.0
C405 C 0.17547 0.40902 0.86299 0.0
C406 C 0.19716 0.40833 0.83037 0.0
C407 C 0.25745 0.40792 0.72944 0.0
C408 C 0.23677 0.40777 0.7646 0.0
H409 H 0.09924 0.3772 0.88133 0.0
H410 H 0.13528 0.37194 0.83394 0.0
H411 H 0.22336 0.45624 0.82271 0.0
H412 H 0.30204 0.37784 0.70556 0.0
H413 H 0.2644 0.37396 0.75999 0.0
C414 C 0.93821 0.30054 0.93018 0.0
C415 C 0.96287 0.30961 0.95953 0.0
C416 C 0.91123 0.27369 0.937 0.0
C417 C 0.85193 0.23289 0.9831 0.0
H418 H 0.84625 0.16265 0.03769 0.0
C419 C 0.75051 0.15514 0.09157 0.0
C420 C 0.73839 0.12429 0.0879 0.0
C421 C 0.77749 0.17482 0.06988 0.0
C422 C 0.84738 0.18192 0.02191 0.0
H423 H 0.97937 0.29671 0.01714 0.0
H424 H 0.93219 0.25029 0.02965 0.0
H425 H 0.89483 0.20086 0.00687 0.0
H426 H 0.74542 0.08996 0.05878 0.0
H427 H 0.79277 0.12458 0.0207 0.0
H428 H 0.80467 0.21417 -0.00168 0.0
C429 C 0.93369 0.26362 0.00101 0.0
C430 C 0.87526 0.20393 0.00462 0.0
C431 C 0.96074 0.29037 0.994 0.0
C432 C 0.75415 0.1136 0.06233 0.0
C433 C 0.78129 0.1334 0.04061 0.0
C434 C 0.82415 0.21093 0.00027 0.0
C435 C 0.90826 0.25545 0.97351 0.0
C436 C 0.87801 0.23001 0.98597 0.0
C437 C 0.79309 0.16422 0.04389 0.0
C438 C 0.82174 0.1856 0.02097 0.0
H439 H 0.93928 0.31475 0.903 0.0
H440 H 0.8923 0.26774 0.91461 0.0
H441 H 0.85318 0.25276 0.96946 0.0
H442 H 0.73911 0.16421 0.11112 0.0
H443 H 0.7863 0.19845 0.07387 0.0
loop_
_geom_bond_atom_site_label_1
_geom_bond_atom_site_label_2
_geom_bond_distance
_geom_bond_site_symmetry_2
_ccdc_geom_bond_type
C0 O1 1.306 . S
C0 O3 1.160 . S
O1 C0 1.306 . S
O1 Cd2 2.228 . S
Cd2 O1 2.228 . S
Cd2 O6 2.273 . S
Cd2 O10 2.277 . S
O3 C0 1.160 . S
O3 Cd4 2.203 . S
Cd4 O3 2.203 . S
Cd4 O6 2.411 . S
Cd4 O7 2.333 1_545 S
Cd4 O8 2.352 1_545 S
Cd4 O12 2.277 1_554 S
Cd4 O13 2.356 1_545 S
C5 O10 1.209 1_556 S
C5 O12 1.226 . S
O6 Cd2 2.273 . S
O6 Cd4 2.411 . S
O6 C9 1.320 . S
O7 Cd4 2.333 1_565 S
O7 C9 1.214 1_565 S
O8 Cd4 2.352 1_565 S
O8 C11 1.258 . S
C9 O6 1.320 . S
C9 O7 1.214 1_545 S
O10 Cd2 2.277 . S
O10 C5 1.209 1_554 S
C11 O8 1.258 . S
C11 O13 1.282 . S
O12 Cd4 2.277 1_556 S
O12 C5 1.226 . S
O13 Cd4 2.356 1_565 S
O13 C11 1.282 . S
C14 O15 1.306 . S
C14 O17 1.160 . S
O15 C14 1.306 . S
O15 Cd16 2.228 . S
Cd16 O15 2.228 . S
Cd16 O20 2.273 . S
Cd16 O24 2.277 . S
O17 C14 1.160 . S
O17 Cd18 2.203 . S
Cd18 O17 2.203 . S
Cd18 O20 2.411 . S
Cd18 O21 2.333 . S
Cd18 O22 2.352 . S
Cd18 O26 2.277 . S
Cd18 O27 2.356 . S
C19 O24 1.209 . S
C19 O26 1.226 . S
O20 Cd16 2.273 . S
O20 Cd18 2.411 . S
O20 C23 1.320 . S
O21 Cd18 2.333 . S
O21 C23 1.214 . S
O22 Cd18 2.352 . S
O22 C25 1.258 . S
C23 O20 1.320 . S
C23 O21 1.214 . S
O24 Cd16 2.277 . S
O24 C19 1.209 . S
C25 O22 1.258 . S
C25 O27 1.282 . S
O26 Cd18 2.277 . S
O26 C19 1.226 . S
O27 Cd18 2.356 . S
O27 C25 1.282 . S
C28 O29 1.306 . S
C28 O31 1.156 1_655 S
O29 C28 1.306 . S
O29 Cd30 2.228 . S
Cd30 O29 2.228 . S
Cd30 O34 2.273 1_655 S
Cd30 O38 2.277 . S
O31 C28 1.156 1_455 S
O31 Cd32 2.207 . S
Cd32 O31 2.207 . S
Cd32 O34 2.411 . S
Cd32 O35 2.333 . S
Cd32 O36 2.352 . S
Cd32 O40 2.277 . S
Cd32 O41 2.356 . S
C33 O38 1.209 1_455 S
C33 O40 1.226 . S
O34 Cd30 2.273 1_455 S
O34 Cd32 2.411 . S
O34 C37 1.320 . S
O35 Cd32 2.333 . S
O35 C37 1.214 . S
O36 Cd32 2.352 . S
O36 C39 1.258 . S
C37 O34 1.320 . S
C37 O35 1.214 . S
O38 Cd30 2.277 . S
O38 C33 1.209 1_655 S
C39 O36 1.258 . S
C39 O41 1.282 . S
O40 Cd32 2.277 . S
O40 C33 1.226 . S
O41 Cd32 2.356 . S
O41 C39 1.282 . S
C42 O43 1.306 . S
C42 O45 1.160 1_565 S
O43 C42 1.306 . S
O43 Cd44 2.228 . S
Cd44 O43 2.228 . S
Cd44 O48 2.273 1_565 S
Cd44 O52 2.277 1_565 S
O45 C42 1.160 1_545 S
O45 Cd46 2.203 . S
Cd46 O45 2.203 . S
Cd46 O48 2.411 . S
Cd46 O49 2.333 . S
Cd46 O50 2.352 . S
Cd46 O54 2.277 . S
Cd46 O55 2.356 . S
C47 O52 1.209 . S
C47 O54 1.226 . S
O48 Cd44 2.273 1_545 S
O48 Cd46 2.411 . S
O48 C51 1.320 . S
O49 Cd46 2.333 . S
O49 C51 1.214 . S
O50 Cd46 2.352 . S
O50 C53 1.258 . S
C51 O48 1.320 . S
C51 O49 1.214 . S
O52 Cd44 2.277 1_545 S
O52 C47 1.209 . S
C53 O50 1.258 . S
C53 O55 1.282 . S
O54 Cd46 2.277 . S
O54 C47 1.226 . S
O55 Cd46 2.356 . S
O55 C53 1.282 . S
C56 O57 1.306 . S
C56 O59 1.160 . S
O57 C56 1.306 . S
O57 Cd58 2.228 . S
Cd58 O57 2.228 . S
Cd58 O62 2.273 . S
Cd58 O66 2.277 . S
O59 C56 1.160 . S
O59 Cd60 2.203 . S
Cd60 O59 2.203 . S
Cd60 O62 2.411 . S
Cd60 O63 2.333 . S
Cd60 O64 2.352 . S
Cd60 O68 2.277 . S
Cd60 O69 2.356 . S
C61 O66 1.209 . S
C61 O68 1.226 . S
O62 Cd58 2.273 . S
O62 Cd60 2.411 . S
O62 C65 1.320 . S
O63 Cd60 2.333 . S
O63 C65 1.214 . S
O64 Cd60 2.352 . S
O64 C67 1.258 . S
C65 O62 1.320 . S
C65 O63 1.214 . S
O66 Cd58 2.277 . S
O66 C61 1.209 . S
C67 O64 1.258 . S
C67 O69 1.282 . S
O68 Cd60 2.277 . S
O68 C61 1.226 . S
O69 Cd60 2.356 . S
O69 C67 1.282 . S
C70 O71 1.306 . S
C70 O73 1.160 . S
O71 C70 1.306 . S
O71 Cd72 2.228 . S
Cd72 O71 2.228 . S
Cd72 O76 2.273 . S
Cd72 O80 2.277 . S
O73 C70 1.160 . S
O73 Cd74 2.203 . S
Cd74 O73 2.203 . S
Cd74 O76 2.411 . S
Cd74 O77 2.333 1_455 S
Cd74 O78 2.352 1_455 S
Cd74 O82 2.293 . S
Cd74 O83 2.356 1_455 S
C75 O80 1.209 . S
C75 O82 1.243 . S
O76 Cd72 2.273 . S
O76 Cd74 2.411 . S
O76 C79 1.320 . S
O77 Cd74 2.333 1_655 S
O77 C79 1.214 1_655 S
O78 Cd74 2.352 1_655 S
O78 C81 1.258 . S
C79 O76 1.320 . S
C79 O77 1.214 1_455 S
O80 Cd72 2.277 . S
O80 C75 1.209 . S
C81 O78 1.258 . S
C81 O83 1.282 . S
O82 Cd74 2.293 . S
O82 C75 1.243 . S
O83 Cd74 2.356 1_655 S
O83 C81 1.282 . S
C84 C85 1.330 1_565 S
C84 C86 1.318 . S
C84 H109 0.978 . S
C85 C84 1.330 1_545 S
C85 C101 1.349 . S
C86 C84 1.318 . S
C86 C105 1.429 1_565 S
C86 H110 0.950 . S
C87 C104 1.574 . S
C87 C106 1.368 . S
C87 H111 0.949 . S
H88 C92 0.949 . S
C89 C90 1.349 . S
C89 C91 1.327 . S
C89 H112 0.950 . S
C90 C89 1.349 . S
C90 C102 1.346 1_545 S
C91 C89 1.327 . S
C91 C107 1.429 . S
C91 H113 0.950 . S
C92 H88 0.949 . S
C92 C100 1.574 . S
C92 C108 1.368 1_565 S
H93 C101 0.950 . S
H94 C99 0.950 . S
H95 C100 0.949 . S
H96 C102 0.951 . S
H97 C103 0.983 . S
H98 C104 0.949 . S
C99 H94 0.950 . S
C99 C101 1.327 . S
C99 C105 1.429 . S
C100 C92 1.574 . S
C100 H95 0.949 . S
C100 C106 1.368 1_565 S
C101 C85 1.349 . S
C101 H93 0.950 . S
C101 C99 1.327 . S
C102 C90 1.346 1_565 S
C102 H96 0.951 . S
C102 C103 1.316 . S
C103 H97 0.983 . S
C103 C102 1.316 . S
C103 C107 1.409 1_565 S
C104 C87 1.574 . S
C104 H98 0.949 . S
C104 C108 1.368 . S
C105 C86 1.429 1_545 S
C105 C99 1.429 . S
C105 C106 1.523 . S
C106 C87 1.368 . S
C106 C100 1.368 1_545 S
C106 C105 1.523 . S
C107 C91 1.429 . S
C107 C103 1.409 1_545 S
C107 C108 1.523 . S
C108 C92 1.368 1_545 S
C108 C104 1.368 . S
C108 C107 1.523 . S
H109 C84 0.978 . S
H110 C86 0.950 . S
H111 C87 0.949 . S
H112 C89 0.950 . S
H113 C91 0.950 . S
C114 C115 1.349 . S
C114 C116 1.327 . S
C114 H139 0.950 . S
C115 C114 1.349 . S
C115 C131 1.349 . S
C116 C114 1.327 . S
C116 C135 1.429 . S
C116 H140 0.950 . S
C117 C134 1.574 . S
C117 C136 1.368 . S
C117 H141 0.949 . S
H118 C122 0.949 . S
C119 C120 1.349 . S
C119 C121 1.327 . S
C119 H142 0.950 . S
C120 C119 1.349 . S
C120 C132 1.349 . S
C121 C119 1.327 . S
C121 C137 1.429 . S
C121 H143 0.950 . S
C122 H118 0.949 . S
C122 C130 1.574 . S
C122 C138 1.368 . S
H123 C131 0.950 . S
H124 C129 0.950 . S
H125 C130 0.949 . S
H126 C132 0.950 . S
H127 C133 0.950 . S
H128 C134 0.949 . S
C129 H124 0.950 . S
C129 C131 1.327 . S
C129 C135 1.429 . S
C130 C122 1.574 . S
C130 H125 0.949 . S
C130 C136 1.368 . S
C131 C115 1.349 . S
C131 H123 0.950 . S
C131 C129 1.327 . S
C132 C120 1.349 . S
C132 H126 0.950 . S
C132 C133 1.327 . S
C133 H127 0.950 . S
C133 C132 1.327 . S
C133 C137 1.429 . S
C134 C117 1.574 . S
C134 H128 0.949 . S
C134 C138 1.368 . S
C135 C116 1.429 . S
C135 C129 1.429 . S
C135 C136 1.523 . S
C136 C117 1.368 . S
C136 C130 1.368 . S
C136 C135 1.523 . S
C137 C121 1.429 . S
C137 C133 1.429 . S
C137 C138 1.523 . S
C138 C122 1.368 . S
C138 C134 1.368 . S
C138 C137 1.523 . S
H139 C114 0.950 . S
H140 C116 0.950 . S
H141 C117 0.949 . S
H142 C119 0.950 . S
H143 C121 0.950 . S
C144 C145 1.349 . S
C144 C146 1.327 . S
C144 H169 0.950 . S
C145 C144 1.349 . S
C145 C161 1.349 1_455 S
C146 C144 1.327 . S
C146 C165 1.429 . S
C146 H170 0.950 . S
C147 C164 1.574 . S
C147 C166 1.368 1_655 S
C147 H171 0.949 . S
H148 C152 0.949 . S
C149 C150 1.338 1_655 S
C149 C151 1.319 . S
C149 H172 0.969 . S
C150 C149 1.338 1_455 S
C150 C162 1.349 . S
C151 C149 1.319 . S
C151 C167 1.429 1_655 S
C151 H173 0.950 . S
C152 H148 0.949 . S
C152 C160 1.574 . S
C152 C168 1.368 . S
H153 C161 0.950 . S
H154 C159 0.950 . S
H155 C160 0.949 . S
H156 C162 0.950 . S
H157 C163 0.950 . S
H158 C164 0.949 . S
C159 H154 0.950 . S
C159 C161 1.327 . S
C159 C165 1.429 1_655 S
C160 C152 1.574 . S
C160 H155 0.949 . S
C160 C166 1.368 . S
C161 C145 1.349 1_655 S
C161 H153 0.950 . S
C161 C159 1.327 . S
C162 C150 1.349 . S
C162 H156 0.950 . S
C162 C163 1.327 . S
C163 H157 0.950 . S
C163 C162 1.327 . S
C163 C167 1.429 . S
C164 C147 1.574 . S
C164 H158 0.949 . S
C164 C168 1.368 1_655 S
C165 C146 1.429 . S
C165 C159 1.429 1_455 S
C165 C166 1.523 . S
C166 C147 1.368 1_455 S
C166 C160 1.368 . S
C166 C165 1.523 . S
C167 C151 1.429 1_455 S
C167 C163 1.429 . S
C167 C168 1.523 . S
C168 C152 1.368 . S
C168 C164 1.368 1_455 S
C168 C167 1.523 . S
H169 C144 0.950 . S
H170 C146 0.950 . S
H171 C147 0.949 . S
H172 C149 0.969 . S
H173 C151 0.950 . S
C174 C175 1.349 . S
C174 C176 1.327 . S
C174 H199 0.950 1_545 S
C175 C174 1.349 . S
C175 C191 1.349 . S
C176 C174 1.327 . S
C176 C195 1.429 . S
C176 H200 0.950 1_545 S
C177 C194 1.574 . S
C177 C196 1.368 . S
C177 H201 0.949 . S
H178 C182 0.949 1_565 S
C179 C180 1.349 . S
C179 C181 1.327 . S
C179 H202 0.950 . S
C180 C179 1.349 . S
C180 C192 1.349 . S
C181 C179 1.327 . S
C181 C197 1.429 . S
C181 H203 0.950 . S
C182 H178 0.949 1_545 S
C182 C190 1.574 . S
C182 C198 1.368 . S
H183 C191 0.950 . S
H184 C189 0.950 . S
H185 C190 0.949 1_565 S
H186 C192 0.950 1_565 S
H187 C193 0.950 1_565 S
H188 C194 0.949 . S
C189 H184 0.950 . S
C189 C191 1.327 . S
C189 C195 1.429 . S
C190 C182 1.574 . S
C190 H185 0.949 1_545 S
C190 C196 1.368 . S
C191 C175 1.349 . S
C191 H183 0.950 . S
C191 C189 1.327 . S
C192 C180 1.349 . S
C192 H186 0.950 1_545 S
C192 C193 1.327 . S
C193 H187 0.950 1_545 S
C193 C192 1.327 . S
C193 C197 1.429 . S
C194 C177 1.574 . S
C194 H188 0.949 . S
C194 C198 1.368 . S
C195 C176 1.429 . S
C195 C189 1.429 . S
C195 C196 1.523 . S
C196 C177 1.368 . S
C196 C190 1.368 . S
C196 C195 1.523 . S
C197 C181 1.429 . S
C197 C193 1.429 . S
C197 C198 1.523 . S
C198 C182 1.368 . S
C198 C194 1.368 . S
C198 C197 1.523 . S
H199 C174 0.950 1_565 S
H200 C176 0.950 1_565 S
H201 C177 0.949 . S
H202 C179 0.950 . S
H203 C181 0.950 . S
C204 C205 1.349 . S
C204 C206 1.327 . S
C204 H229 0.950 . S
C205 C204 1.349 . S
C205 C221 1.349 . S
C206 C204 1.327 . S
C206 C225 1.429 . S
C206 H230 0.950 . S
C207 C224 1.574 1_554 S
C207 C226 1.368 . S
C207 H231 0.949 . S
H208 C212 0.949 . S
C209 C210 1.349 . S
C209 C211 1.327 . S
C209 H232 0.950 . S
C210 C209 1.349 . S
C210 C222 1.349 . S
C211 C209 1.327 . S
C211 C227 1.429 . S
C211 H233 0.950 . S
C212 H208 0.949 . S
C212 C220 1.574 . S
C212 C228 1.368 . S
H213 C221 0.950 . S
H214 C219 0.950 . S
H215 C220 0.949 . S
H216 C222 0.950 . S
H217 C223 0.950 . S
H218 C224 0.949 . S
C219 H214 0.950 . S
C219 C221 1.327 . S
C219 C225 1.429 . S
C220 C212 1.574 . S
C220 H215 0.949 . S
C220 C226 1.368 1_556 S
C221 C205 1.349 . S
C221 H213 0.950 . S
C221 C219 1.327 . S
C222 C210 1.349 . S
C222 H216 0.950 . S
C222 C223 1.327 . S
C223 H217 0.950 . S
C223 C222 1.327 . S
C223 C227 1.429 . S
C224 C207 1.574 1_556 S
C224 H218 0.949 . S
C224 C228 1.368 . S
C225 C206 1.429 . S
C225 C219 1.429 . S
C225 C226 1.523 . S
C226 C207 1.368 . S
C226 C220 1.368 1_554 S
C226 C225 1.523 . S
C227 C211 1.429 . S
C227 C223 1.429 . S
C227 C228 1.523 . S
C228 C212 1.368 . S
C228 C224 1.368 . S
C228 C227 1.523 . S
H229 C204 0.950 . S
H230 C206 0.950 . S
H231 C207 0.949 . S
H232 C209 0.950 . S
H233 C211 0.950 . S
C234 C235 1.349 . S
C234 C236 1.327 . S
C234 H259 0.950 1_455 S
C235 C234 1.349 . S
C235 C251 1.353 . S
C236 C234 1.327 . S
C236 C255 1.429 . S
C236 H260 0.950 1_455 S
C237 C254 1.574 . S
C237 C256 1.368 . S
C237 H261 0.949 . S
H238 C242 0.949 1_655 S
C239 C240 1.349 . S
C239 C241 1.327 . S
C239 H262 0.950 . S
C240 C239 1.349 . S
C240 C252 1.349 . S
C241 C239 1.327 . S
C241 C257 1.429 . S
C241 H263 0.950 . S
C242 H238 0.949 1_455 S
C242 C250 1.574 . S
C242 C258 1.368 . S
H243 C251 0.927 1_556 S
H244 C249 0.950 . S
H245 C250 0.949 1_655 S
H246 C252 0.950 1_655 S
H247 C253 0.950 1_655 S
H248 C254 0.949 . S
C249 H244 0.950 . S
C249 C251 1.346 . S
C249 C255 1.429 . S
C250 C242 1.574 . S
C250 H245 0.949 1_455 S
C250 C256 1.368 . S
C251 C235 1.353 . S
C251 H243 0.927 1_554 S
C251 C249 1.346 . S
C252 C240 1.349 . S
C252 H246 0.950 1_455 S
C252 C253 1.327 . S
C253 H247 0.950 1_455 S
C253 C252 1.327 . S
C253 C257 1.429 . S
C254 C237 1.574 . S
C254 H248 0.949 . S
C254 C258 1.368 . S
C255 C236 1.429 . S
C255 C249 1.429 . S
C255 C256 1.523 . S
C256 C237 1.368 . S
C256 C250 1.368 . S
C256 C255 1.523 . S
C257 C241 1.429 . S
C257 C253 1.429 . S
C257 C258 1.523 . S
C258 C242 1.368 . S
C258 C254 1.368 . S
C258 C257 1.523 . S
H259 C234 0.950 1_655 S
H260 C236 0.950 1_655 S
H261 C237 0.949 . S
H262 C239 0.950 . S
H263 C241 0.950 . S
C264 C265 1.349 . S
C264 C266 1.327 . S
C264 H289 0.950 . S
C265 C264 1.349 . S
C265 C281 1.349 . S
C266 C264 1.327 . S
C266 C285 1.429 . S
C266 H290 0.950 . S
C267 C284 1.574 . S
C267 C286 1.368 . S
C267 H291 0.949 . S
H268 C272 0.949 . S
C269 C270 1.349 . S
C269 C271 1.327 . S
C269 H292 0.950 . S
C270 C269 1.349 . S
C270 C282 1.349 . S
C271 C269 1.327 . S
C271 C287 1.429 . S
C271 H293 0.950 . S
C272 H268 0.949 . S
C272 C280 1.574 . S
C272 C288 1.368 . S
H273 C281 0.950 . S
H274 C279 0.950 . S
H275 C280 0.949 . S
H276 C282 0.950 . S
H277 C283 0.950 . S
H278 C284 0.949 . S
C279 H274 0.950 . S
C279 C281 1.327 . S
C279 C285 1.429 . S
C280 C272 1.574 . S
C280 H275 0.949 . S
C280 C286 1.368 . S
C281 C265 1.349 . S
C281 H273 0.950 . S
C281 C279 1.327 . S
C282 C270 1.349 . S
C282 H276 0.950 . S
C282 C283 1.327 . S
C283 H277 0.950 . S
C283 C282 1.327 . S
C283 C287 1.429 . S
C284 C267 1.574 . S
C284 H278 0.949 . S
C284 C288 1.368 . S
C285 C266 1.429 . S
C285 C279 1.429 . S
C285 C286 1.523 . S
C286 C267 1.368 . S
C286 C280 1.368 . S
C286 C285 1.523 . S
C287 C271 1.429 . S
C287 C283 1.429 . S
C287 C288 1.523 . S
C288 C272 1.368 . S
C288 C284 1.368 . S
C288 C287 1.523 . S
H289 C264 0.950 . S
H290 C266 0.950 . S
H291 C267 0.949 . S
H292 C269 0.950 . S
H293 C271 0.950 . S
C294 C295 1.349 . S
C294 C296 1.327 . S
C294 H319 0.950 . S
C295 C294 1.349 . S
C295 C311 1.349 . S
C296 C294 1.327 . S
C296 C315 1.429 . S
C296 H320 0.950 . S
C297 C314 1.574 . S
C297 C316 1.368 . S
C297 H321 0.949 . S
H298 C302 0.949 . S
C299 C300 1.349 . S
C299 C301 1.327 . S
C299 H322 0.950 . S
C300 C299 1.349 . S
C300 C312 1.349 . S
C301 C299 1.327 . S
C301 C317 1.429 . S
C301 H323 0.950 . S
C302 H298 0.949 . S
C302 C310 1.574 . S
C302 C318 1.368 . S
H303 C311 0.950 . S
H304 C309 0.950 . S
H305 C310 0.949 . S
H306 C312 0.950 . S
H307 C313 0.950 . S
H308 C314 0.949 . S
C309 H304 0.950 . S
C309 C311 1.327 . S
C309 C315 1.429 . S
C310 C302 1.574 . S
C310 H305 0.949 . S
C310 C316 1.368 . S
C311 C295 1.349 . S
C311 H303 0.950 . S
C311 C309 1.327 . S
C312 C300 1.349 . S
C312 H306 0.950 . S
C312 C313 1.327 . S
C313 H307 0.950 . S
C313 C312 1.327 . S
C313 C317 1.429 . S
C314 C297 1.574 . S
C314 H308 0.949 . S
C314 C318 1.368 . S
C315 C296 1.429 . S
C315 C309 1.429 . S
C315 C316 1.523 . S
C316 C297 1.368 . S
C316 C310 1.368 . S
C316 C315 1.523 . S
C317 C301 1.429 . S
C317 C313 1.429 . S
C317 C318 1.523 . S
C318 C302 1.368 . S
C318 C314 1.368 . S
C318 C317 1.523 . S
H319 C294 0.950 . S
H320 C296 0.950 . S
H321 C297 0.949 . S
H322 C299 0.950 . S
H323 C301 0.950 . S
C324 C325 1.349 . S
C324 C326 1.327 . S
C324 H349 0.950 . S
C325 C324 1.349 . S
C325 C341 1.349 . S
C326 C324 1.327 . S
C326 C345 1.429 . S
C326 H350 0.950 . S
C327 C344 1.574 . S
C327 C346 1.368 . S
C327 H351 0.949 . S
H328 C332 0.949 . S
C329 C330 1.349 . S
C329 C331 1.327 . S
C329 H352 0.950 . S
C330 C329 1.349 . S
C330 C342 1.349 . S
C331 C329 1.327 . S
C331 C347 1.429 . S
C331 H353 0.950 . S
C332 H328 0.949 . S
C332 C340 1.574 . S
C332 C348 1.368 . S
H333 C341 0.950 . S
H334 C339 0.950 . S
H335 C340 0.949 . S
H336 C342 0.950 . S
H337 C343 0.950 . S
H338 C344 0.949 . S
C339 H334 0.950 . S
C339 C341 1.327 . S
C339 C345 1.429 . S
C340 C332 1.574 . S
C340 H335 0.949 . S
C340 C346 1.368 . S
C341 C325 1.349 . S
C341 H333 0.950 . S
C341 C339 1.327 . S
C342 C330 1.349 . S
C342 H336 0.950 . S
C342 C343 1.327 . S
C343 H337 0.950 . S
C343 C342 1.327 . S
C343 C347 1.429 . S
C344 C327 1.574 . S
C344 H338 0.949 . S
C344 C348 1.368 . S
C345 C326 1.429 . S
C345 C339 1.429 . S
C345 C346 1.523 . S
C346 C327 1.368 . S
C346 C340 1.368 . S
C346 C345 1.523 . S
C347 C331 1.429 . S
C347 C343 1.429 . S
C347 C348 1.523 . S
C348 C332 1.368 . S
C348 C344 1.368 . S
C348 C347 1.523 . S
H349 C324 0.950 . S
H350 C326 0.950 . S
H351 C327 0.949 . S
H352 C329 0.950 . S
H353 C331 0.950 . S
C354 C355 1.349 . S
C354 C356 1.327 . S
C354 H379 0.950 . S
C355 C354 1.349 . S
C355 C371 1.349 . S
C356 C354 1.327 . S
C356 C375 1.429 . S
C356 H380 0.950 . S
C357 C374 1.574 . S
C357 C376 1.368 . S
C357 H381 0.949 . S
H358 C362 0.949 . S
C359 C360 1.349 . S
C359 C361 1.327 . S
C359 H382 0.950 . S
C360 C359 1.349 . S
C360 C372 1.349 . S
C361 C359 1.327 . S
C361 C377 1.429 . S
C361 H383 0.950 . S
C362 H358 0.949 . S
C362 C370 1.574 . S
C362 C378 1.368 . S
H363 C371 0.950 . S
H364 C369 0.950 . S
H365 C370 0.949 . S
H366 C372 0.950 . S
H367 C373 0.950 . S
H368 C374 0.949 . S
C369 H364 0.950 . S
C369 C371 1.327 . S
C369 C375 1.429 . S
C370 C362 1.574 . S
C370 H365 0.949 . S
C370 C376 1.368 . S
C371 C355 1.349 . S
C371 H363 0.950 . S
C371 C369 1.327 . S
C372 C360 1.349 . S
C372 H366 0.950 . S
C372 C373 1.327 . S
C373 H367 0.950 . S
C373 C372 1.327 . S
C373 C377 1.429 . S
C374 C357 1.574 . S
C374 H368 0.949 . S
C374 C378 1.368 . S
C375 C356 1.429 . S
C375 C369 1.429 . S
C375 C376 1.523 . S
C376 C357 1.368 . S
C376 C370 1.368 . S
C376 C375 1.523 . S
C377 C361 1.429 . S
C377 C373 1.429 . S
C377 C378 1.523 . S
C378 C362 1.368 . S
C378 C374 1.368 . S
C378 C377 1.523 . S
H379 C354 0.950 . S
H380 C356 0.950 . S
H381 C357 0.949 . S
H382 C359 0.950 . S
H383 C361 0.950 . S
C384 C385 1.349 . S
C384 C386 1.327 . S
C384 H409 0.950 . S
C385 C384 1.349 . S
C385 C401 1.349 . S
C386 C384 1.327 . S
C386 C405 1.429 . S
C386 H410 0.950 . S
C387 C404 1.574 . S
C387 C406 1.368 . S
C387 H411 0.949 . S
H388 C392 0.949 . S
C389 C390 1.349 . S
C389 C391 1.327 . S
C389 H412 0.950 . S
C390 C389 1.349 . S
C390 C402 1.349 . S
C391 C389 1.327 . S
C391 C407 1.429 . S
C391 H413 0.950 . S
C392 H388 0.949 . S
C392 C400 1.574 . S
C392 C408 1.368 . S
H393 C401 0.950 . S
H394 C399 0.950 . S
H395 C400 0.949 . S
H396 C402 0.950 . S
H397 C403 0.950 . S
H398 C404 0.949 . S
C399 H394 0.950 . S
C399 C401 1.327 . S
C399 C405 1.429 . S
C400 C392 1.574 . S
C400 H395 0.949 . S
C400 C406 1.368 . S
C401 C385 1.349 . S
C401 H393 0.950 . S
C401 C399 1.327 . S
C402 C390 1.349 . S
C402 H396 0.950 . S
C402 C403 1.327 . S
C403 H397 0.950 . S
C403 C402 1.327 . S
C403 C407 1.429 . S
C404 C387 1.574 . S
C404 H398 0.949 . S
C404 C408 1.368 . S
C405 C386 1.429 . S
C405 C399 1.429 . S
C405 C406 1.523 . S
C406 C387 1.368 . S
C406 C400 1.368 . S
C406 C405 1.523 . S
C407 C391 1.429 . S
C407 C403 1.429 . S
C407 C408 1.523 . S
C408 C392 1.368 . S
C408 C404 1.368 . S
C408 C407 1.523 . S
H409 C384 0.950 . S
H410 C386 0.950 . S
H411 C387 0.949 . S
H412 C389 0.950 . S
H413 C391 0.950 . S
C414 C415 1.349 . S
C414 C416 1.327 . S
C414 H439 0.950 . S
C415 C414 1.349 . S
C415 C431 1.349 . S
C416 C414 1.327 . S
C416 C435 1.429 . S
C416 H440 0.950 . S
C417 C434 1.574 . S
C417 C436 1.368 1_554 S
C417 H441 0.949 . S
H418 C422 0.949 . S
C419 C420 1.349 . S
C419 C421 1.327 . S
C419 H442 0.950 . S
C420 C419 1.349 . S
C420 C432 1.349 1_554 S
C421 C419 1.327 . S
C421 C437 1.429 . S
C421 H443 0.950 . S
C422 H418 0.949 . S
C422 C430 1.574 . S
C422 C438 1.368 . S
H423 C431 0.937 1_554 S
H424 C429 0.950 1_554 S
H425 C430 0.949 . S
H426 C432 0.950 . S
H427 C433 0.950 . S
H428 C434 0.949 . S
C429 H424 0.950 1_556 S
C429 C431 1.327 . S
C429 C435 1.429 . S
C430 C422 1.574 . S
C430 H425 0.949 . S
C430 C436 1.368 . S
C431 C415 1.349 . S
C431 H423 0.937 1_556 S
C431 C429 1.327 . S
C432 C420 1.349 1_556 S
C432 H426 0.950 . S
C432 C433 1.327 . S
C433 H427 0.950 . S
C433 C432 1.327 . S
C433 C437 1.429 1_556 S
C434 C417 1.574 . S
C434 H428 0.949 . S
C434 C438 1.368 1_554 S
C435 C416 1.429 . S
C435 C429 1.429 . S
C435 C436 1.523 . S
C436 C417 1.368 1_556 S
C436 C430 1.368 . S
C436 C435 1.523 . S
C437 C421 1.429 . S
C437 C433 1.429 1_554 S
C437 C438 1.523 1_554 S
C438 C422 1.368 . S
C438 C434 1.368 1_556 S
C438 C437 1.523 1_556 S
H439 C414 0.950 . S
H440 C416 0.950 . S
H441 C417 0.949 . S
H442 C419 0.950 . S
H443 C421 0.950 . S
C85 C9 1.672 . S
C90 C47 1.674 . S
C115 C19 1.705 . S
C120 C65 1.702 . S
C145 C75 1.736 . S
C150 C37 1.734 . S
C175 C5 1.674 . S
C180 C51 1.672 . S
C205 C23 1.702 . S
C210 C61 1.705 . S
C235 C79 1.734 1_554 S
C240 C33 1.736 . S
C265 C25 1.299 . S
C270 C11 1.297 . S
C295 C28 1.362 . S
C300 C14 1.359 . S
C325 C39 1.334 . S
C330 C42 1.324 . S
C355 C67 1.299 . S
C360 C53 1.297 . S
C385 C70 1.362 . S
C390 C56 1.359 . S
C415 C81 1.334 . S
C420 C0 1.324 . S
