# Generated by pormake.
# Topology wjh, (4)-cn, num edge types: 1
# Building blocks:
#     Node 0, Type 0, BuildingBlock: NAHDIM_clean_sbu_0, # of connection points: 4
#     Node 1, Type 0, BuildingBlock: NAHDIM_clean_sbu_0, # of connection points: 4
#     Node 2, Type 0, BuildingBlock: NAHDIM_clean_sbu_0, # of connection points: 4
#     Node 3, Type 0, BuildingBlock: NAHDIM_clean_sbu_0, # of connection points: 4
#     Node 4, Type 0, BuildingBlock: NAHDIM_clean_sbu_0, # of connection points: 4
#     Node 5, Type 0, BuildingBlock: NAHDIM_clean_sbu_0, # of connection points: 4
#     Node 6, Type 0, BuildingBlock: NAHDIM_clean_sbu_0, # of connection points: 4
#     Node 7, Type 0, BuildingBlock: NAHDIM_clean_sbu_0, # of connection points: 4
#     Node 8, Type 0, BuildingBlock: NAHDIM_clean_sbu_0, # of connection points: 4
#     Node 9, Type 0, BuildingBlock: NAHDIM_clean_sbu_0, # of connection points: 4
#     Node 10, Type 0, BuildingBlock: NAHDIM_clean_sbu_0, # of connection points: 4
#     Node 11, Type 0, BuildingBlock: NAHDIM_clean_sbu_0, # of connection points: 4
#     Edge 12, Type (0, 0), BuildingBlock: XUDNAN_clean_linker_2, # of connection points: 2
#     Edge 13, Type (0, 0), BuildingBlock: XUDNAN_clean_linker_2, # of connection points: 2
#     Edge 14, Type (0, 0), BuildingBlock: XUDNAN_clean_linker_2, # of connection points: 2
#     Edge 15, Type (0, 0), BuildingBlock: XUDNAN_clean_linker_2, # of connection points: 2
#     Edge 16, Type (0, 0), BuildingBlock: XUDNAN_clean_linker_2, # of connection points: 2
#     Edge 17, Type (0, 0), BuildingBlock: XUDNAN_clean_linker_2, # of connection points: 2
#     Edge 18, Type (0, 0), BuildingBlock: XUDNAN_clean_linker_2, # of connection points: 2
#     Edge 19, Type (0, 0), BuildingBlock: XUDNAN_clean_linker_2, # of connection points: 2
#     Edge 20, Type (0, 0), BuildingBlock: XUDNAN_clean_linker_2, # of connection points: 2
#     Edge 21, Type (0, 0), BuildingBlock: XUDNAN_clean_linker_2, # of connection points: 2
#     Edge 22, Type (0, 0), BuildingBlock: XUDNAN_clean_linker_2, # of connection points: 2
#     Edge 23, Type (0, 0), BuildingBlock: XUDNAN_clean_linker_2, # of connection points: 2
#     Edge 24, Type (0, 0), BuildingBlock: XUDNAN_clean_linker_2, # of connection points: 2
#     Edge 25, Type (0, 0), BuildingBlock: XUDNAN_clean_linker_2, # of connection points: 2
#     Edge 26, Type (0, 0), BuildingBlock: XUDNAN_clean_linker_2, # of connection points: 2
#     Edge 27, Type (0, 0), BuildingBlock: XUDNAN_clean_linker_2, # of connection points: 2
#     Edge 28, Type (0, 0), BuildingBlock: XUDNAN_clean_linker_2, # of connection points: 2
#     Edge 29, Type (0, 0), BuildingBlock: XUDNAN_clean_linker_2, # of connection points: 2
#     Edge 30, Type (0, 0), BuildingBlock: XUDNAN_clean_linker_2, # of connection points: 2
#     Edge 31, Type (0, 0), BuildingBlock: XUDNAN_clean_linker_2, # of connection points: 2
#     Edge 32, Type (0, 0), BuildingBlock: XUDNAN_clean_linker_2, # of connection points: 2
#     Edge 33, Type (0, 0), BuildingBlock: XUDNAN_clean_linker_2, # of connection points: 2
#     Edge 34, Type (0, 0), BuildingBlock: XUDNAN_clean_linker_2, # of connection points: 2
#     Edge 35, Type (0, 0), BuildingBlock: XUDNAN_clean_linker_2, # of connection points: 2
# Relax obj value: 0.145
# Max RMSD: 0.134
# Mean RMSD: 0.134
data_MOF--net-wjh--node1-NAHDIM_clean_sbu_0--edge1-XUDNAN_clean_linker_2
_symmetry_space_group_name_H-M    P1
_symmetry_Int_Tables_number       1
_symmetry_cell_setting            triclinic
loop_
_symmetry_equiv_pos_as_xyz
'x, y, z'
_cell_length_a     63.297069
_cell_length_b     63.287708
_cell_length_c     24.022675
_cell_angle_alpha  90.024829
_cell_angle_beta   90.00448
_cell_angle_gamma 120.03437
loop_
_atom_site_label
_atom_site_type_symbol
_atom_site_fract_x
_atom_site_fract_y
_atom_site_fract_z
_atom_type_partial_charge
C0 C 0.48694 0.1753 0.10437 0.0
O1 O 0.5092 0.18114 0.11916 0.0
O2 O 0.5064 0.13337 0.03253 0.0
Zn3 Zn 0.48384 0.12939 0.09607 0.0
O4 O 0.50268 0.13612 0.16797 0.0
C5 C 0.4503 0.07989 0.05918 0.0
O6 O 0.46366 0.08679 0.01379 0.0
O7 O 0.4721 0.15344 0.09006 0.0
C8 C 0.49876 0.11959 0.20325 0.0
O9 O 0.48164 0.09699 0.19332 0.0
C10 C 0.52075 0.12493 0.03848 0.0
O11 O 0.52023 0.11395 0.08529 0.0
O12 O 0.45516 0.09518 0.09824 0.0
C13 C 0.32037 0.50788 0.29944 0.0
O14 O 0.33855 0.52938 0.31372 0.0
O15 O 0.37903 0.52132 0.2174 0.0
Zn16 Zn 0.3602 0.50035 0.28287 0.0
O17 O 0.37502 0.51808 0.35416 0.0
C18 C 0.35514 0.45367 0.24754 0.0
O19 O 0.34297 0.45504 0.20472 0.0
O20 O 0.32505 0.49171 0.28195 0.0
C21 C 0.39725 0.52555 0.36544 0.0
O22 O 0.41071 0.52199 0.32922 0.0
C23 C 0.39023 0.5445 0.21999 0.0
O24 O 0.38867 0.55509 0.26561 0.0
O25 O 0.36324 0.47039 0.28414 0.0
C26 C 0.83205 0.3052 0.41866 0.0
O27 O 0.85461 0.31066 0.42886 0.0
O28 O 0.849 0.3603 0.28783 0.0
Zn29 Zn 0.85465 0.35295 0.36605 0.0
O30 O 0.85418 0.37759 0.41771 0.0
C31 C 0.89928 0.35182 0.33689 0.0
O32 O 0.88884 0.34276 0.28869 0.0
O33 O 0.82811 0.32001 0.39104 0.0
C34 C 0.86352 0.37978 0.46568 0.0
O35 O 0.87262 0.36582 0.47908 0.0
C36 C 0.86239 0.38188 0.26972 0.0
O37 O 0.87953 0.39815 0.30218 0.0
O38 O 0.88782 0.35657 0.37355 0.0
C39 C 0.51459 0.81842 0.57076 0.0
O40 O 0.49244 0.81503 0.57538 0.0
O41 O 0.49969 0.85892 0.48366 0.0
Zn42 Zn 0.52219 0.86506 0.54911 0.0
O43 O 0.50507 0.86364 0.62062 0.0
C44 C 0.55023 0.91549 0.52019 0.0
O45 O 0.52968 0.91033 0.49549 0.0
O46 O 0.53173 0.83927 0.55587 0.0
C47 C 0.4958 0.87688 0.63196 0.0
O48 O 0.49697 0.89275 0.5951 0.0
C49 C 0.47659 0.84755 0.48881 0.0
O50 O 0.46684 0.8386 0.53757 0.0
O51 O 0.55185 0.8985 0.54437 0.0
C52 C 0.66617 0.4811 0.81848 0.0
O53 O 0.64467 0.46462 0.83729 0.0
O54 O 0.61905 0.47327 0.69567 0.0
Zn55 Zn 0.63597 0.49508 0.76157 0.0
O56 O 0.61485 0.48333 0.82985 0.0
C57 C 0.62406 0.52989 0.72479 0.0
O58 O 0.60502 0.50958 0.70746 0.0
O59 O 0.66746 0.49615 0.78166 0.0
C60 C 0.59175 0.4713 0.83375 0.0
O61 O 0.57831 0.46503 0.78847 0.0
C62 C 0.60728 0.45011 0.69867 0.0
O63 O 0.60694 0.43952 0.74594 0.0
O64 O 0.64157 0.52876 0.74758 0.0
C65 C 0.17545 0.68595 0.9221 0.0
O66 O 0.17963 0.66812 0.93428 0.0
O67 O 0.13007 0.62527 0.85963 0.0
Zn68 Zn 0.12812 0.64569 0.92214 0.0
O69 O 0.13518 0.63487 0.99487 0.0
C70 C 0.08252 0.64436 0.89081 0.0
O71 O 0.09116 0.64893 0.8398 0.0
O72 O 0.15368 0.68085 0.9123 0.0
C73 C 0.12314 0.61294 0.01166 0.0
O74 O 0.10576 0.59649 0.97998 0.0
C75 C 0.11176 0.60742 0.83645 0.0
O76 O 0.08963 0.60129 0.8529 0.0
O77 O 0.09505 0.64242 0.92965 0.0
C78 C 0.82663 0.50655 0.92362 0.0
O79 O 0.83393 0.49976 0.96782 0.0
O80 O 0.86774 0.48505 0.93203 0.0
Zn81 Zn 0.86852 0.50784 0.8724 0.0
O82 O 0.86648 0.49302 0.79757 0.0
C83 C 0.90741 0.55178 0.9215 0.0
O84 O 0.89357 0.54404 0.96611 0.0
O85 O 0.83931 0.51213 0.87944 0.0
C86 C 0.87803 0.48193 0.78654 0.0
O87 O 0.89197 0.48038 0.82495 0.0
C88 C 0.85184 0.46248 0.93027 0.0
O89 O 0.83613 0.45427 0.88895 0.0
O90 O 0.89993 0.53956 0.87673 0.0
C91 C 0.32281 0.84141 0.00572 0.0
O92 O 0.33017 0.86402 0.99092 0.0
O93 O 0.37877 0.85377 0.13153 0.0
Zn94 Zn 0.37099 0.86165 0.05594 0.0
O95 O 0.39375 0.86019 0.00012 0.0
C96 C 0.36656 0.90297 0.09242 0.0
O97 O 0.35275 0.88804 0.13181 0.0
O98 O 0.3369 0.83671 0.03414 0.0
C99 C 0.39833 0.87191 0.95464 0.0
O100 O 0.38806 0.88513 0.94461 0.0
C101 C 0.40095 0.86356 0.14654 0.0
O102 O 0.41807 0.87875 0.11246 0.0
O103 O 0.37579 0.89542 0.05608 0.0
C104 C 0.45883 0.30911 0.20655 0.0
O105 O 0.44161 0.31406 0.19357 0.0
O106 O 0.49681 0.36305 0.34016 0.0
Zn107 Zn 0.48153 0.3561 0.26355 0.0
O108 O 0.50443 0.3816 0.20996 0.0
C109 C 0.44547 0.36874 0.29753 0.0
O110 O 0.46088 0.37963 0.33857 0.0
O111 O 0.47665 0.32398 0.23657 0.0
C112 C 0.49715 0.3824 0.16113 0.0
O113 O 0.47462 0.36654 0.14681 0.0
C114 C 0.51291 0.38457 0.35417 0.0
O115 O 0.51903 0.40253 0.31873 0.0
O116 O 0.45003 0.35667 0.26206 0.0
C117 C 0.1672 0.50048 0.40568 0.0
O118 O 0.17204 0.52194 0.42448 0.0
O119 O 0.1216 0.50582 0.49069 0.0
Zn120 Zn 0.11807 0.49093 0.41448 0.0
O121 O 0.12017 0.5146 0.35593 0.0
C122 C 0.06957 0.44812 0.43858 0.0
O123 O 0.07278 0.45561 0.4905 0.0
O124 O 0.1451 0.48383 0.39975 0.0
C125 C 0.13259 0.53766 0.36113 0.0
O126 O 0.14458 0.54715 0.40759 0.0
C127 C 0.10711 0.51288 0.50764 0.0
O128 O 0.08874 0.50938 0.47585 0.0
O129 O 0.08609 0.46004 0.40281 0.0
C130 C 0.67619 0.17716 0.56978 0.0
O131 O 0.65955 0.18346 0.56171 0.0
O132 O 0.62367 0.13302 0.6786 0.0
Zn133 Zn 0.63398 0.13219 0.59964 0.0
O134 O 0.61448 0.13968 0.54504 0.0
C135 C 0.64124 0.09013 0.5955 0.0
O136 O 0.66168 0.10416 0.6223 0.0
O137 O 0.66966 0.15593 0.58807 0.0
C138 C 0.59364 0.12304 0.52858 0.0
O139 O 0.58444 0.10094 0.54925 0.0
C140 C 0.6095 0.14108 0.6914 0.0
O141 O 0.60185 0.15012 0.65222 0.0
O142 O 0.62732 0.09843 0.58258 0.0
C143 C 0.51341 0.67974 0.75395 0.0
O144 O 0.49061 0.6635 0.76519 0.0
O145 O 0.50352 0.63482 0.86747 0.0
Zn146 Zn 0.51724 0.64009 0.78994 0.0
O147 O 0.49029 0.61865 0.73735 0.0
C148 C 0.56542 0.64294 0.79025 0.0
O149 O 0.57509 0.66562 0.80736 0.0
O150 O 0.52992 0.67446 0.764 0.0
C151 C 0.49616 0.61529 0.68896 0.0
O152 O 0.51937 0.62562 0.67572 0.0
C153 C 0.48971 0.61295 0.88338 0.0
O154 O 0.48583 0.59503 0.84958 0.0
O155 O 0.54252 0.63014 0.78302 0.0
H156 H 0.49707 0.08808 0.2837 0.0
H157 H 0.53541 0.16458 0.23645 0.0
H158 H 0.56228 0.17422 0.31832 0.0
H159 H 0.50027 0.09781 0.43427 0.0
H160 H 0.50486 0.07243 0.44845 0.0
H161 H 0.4876 0.07182 0.38821 0.0
H162 H 0.51645 0.06448 0.3248 0.0
H163 H 0.53378 0.06507 0.38475 0.0
H164 H 0.54885 0.08553 0.3274 0.0
H165 H 0.58653 0.17514 0.40197 0.0
H166 H 0.60644 0.16722 0.48122 0.0
H167 H 0.55203 0.09017 0.47383 0.0
C168 C 0.51092 0.10691 0.29084 0.0
C169 C 0.5141 0.12558 0.2537 0.0
C170 C 0.5326 0.14997 0.26437 0.0
C171 C 0.54793 0.15564 0.31082 0.0
C172 C 0.54445 0.13675 0.34627 0.0
C173 C 0.52636 0.1129 0.33694 0.0
C174 C 0.52711 0.09583 0.38002 0.0
C175 C 0.50356 0.08377 0.4148 0.0
C176 C 0.53184 0.0766 0.35259 0.0
C177 C 0.54873 0.11376 0.41447 0.0
C178 C 0.55838 0.13729 0.39456 0.0
C179 C 0.579 0.15682 0.41826 0.0
C180 C 0.5902 0.15213 0.4632 0.0
C181 C 0.58075 0.12809 0.48384 0.0
C182 C 0.55958 0.10877 0.45939 0.0
H183 H 0.44516 0.54829 0.39809 0.0
H184 H 0.37289 0.53075 0.45369 0.0
H185 H 0.39021 0.55108 0.54341 0.0
H186 H 0.46676 0.5396 0.53002 0.0
H187 H 0.49729 0.56482 0.52041 0.0
H188 H 0.47914 0.54848 0.46086 0.0
H189 H 0.48528 0.58896 0.41917 0.0
H190 H 0.50349 0.60542 0.47852 0.0
H191 H 0.47714 0.60776 0.4599 0.0
H192 H 0.41534 0.57315 0.62718 0.0
H193 H 0.44683 0.5968 0.69779 0.0
H194 H 0.50266 0.60054 0.58644 0.0
C195 C 0.43295 0.54865 0.42916 0.0
C196 C 0.40767 0.53787 0.41896 0.0
C197 C 0.39233 0.53889 0.46058 0.0
C198 C 0.40198 0.55035 0.51172 0.0
C199 C 0.42698 0.56077 0.52044 0.0
C200 C 0.44228 0.56013 0.48027 0.0
C201 C 0.46855 0.57315 0.49968 0.0
C202 C 0.47851 0.55545 0.50294 0.0
C203 C 0.48455 0.59513 0.46208 0.0
C204 C 0.46563 0.58125 0.55701 0.0
C205 C 0.4415 0.57382 0.56834 0.0
C206 C 0.43431 0.57911 0.61879 0.0
C207 C 0.45231 0.59251 0.65864 0.0
C208 C 0.47719 0.60055 0.64756 0.0
C209 C 0.48381 0.59473 0.59609 0.0
H210 H 0.89416 0.45083 0.75473 0.0
H211 H 0.85438 0.48578 0.69516 0.0
H212 H 0.84751 0.4645 0.60517 0.0
H213 H 0.92326 0.45196 0.62326 0.0
H214 H 0.92032 0.42244 0.63439 0.0
H215 H 0.92322 0.44146 0.69304 0.0
H216 H 0.88307 0.40647 0.73444 0.0
H217 H 0.88 0.38738 0.67589 0.0
H218 H 0.85562 0.39315 0.69305 0.0
H219 H 0.84388 0.43847 0.52278 0.0
H220 H 0.8434 0.40914 0.45419 0.0
H221 H 0.88499 0.39085 0.56851 0.0
C222 C 0.88423 0.45422 0.72259 0.0
C223 C 0.87487 0.47002 0.73189 0.0
C224 C 0.86173 0.47376 0.68894 0.0
C225 C 0.85777 0.4618 0.63765 0.0
C226 C 0.86703 0.44616 0.63004 0.0
C227 C 0.88 0.44235 0.67128 0.0
C228 C 0.88724 0.42394 0.65324 0.0
C229 C 0.91517 0.43566 0.65083 0.0
C230 C 0.87579 0.4014 0.69142 0.0
C231 C 0.87611 0.41782 0.59562 0.0
C232 C 0.86468 0.43094 0.58286 0.0
C233 C 0.85285 0.42815 0.53219 0.0
C234 C 0.85266 0.41144 0.49355 0.0
C235 C 0.86412 0.39768 0.50603 0.0
C236 C 0.87604 0.40106 0.55771 0.0
H237 H 0.47026 0.89904 0.66678 0.0
H238 H 0.49278 0.84751 0.71861 0.0
H239 H 0.47121 0.84154 0.80772 0.0
H240 H 0.47542 0.92649 0.80232 0.0
H241 H 0.44884 0.92954 0.79244 0.0
H242 H 0.46676 0.93043 0.73328 0.0
H243 H 0.42817 0.89505 0.68739 0.0
H244 H 0.41014 0.89403 0.74639 0.0
H245 H 0.41048 0.8669 0.72504 0.0
H246 H 0.44672 0.84053 0.89029 0.0
H247 H 0.42025 0.8441 0.96055 0.0
H248 H 0.41325 0.8959 0.85469 0.0
C249 C 0.47079 0.88661 0.69698 0.0
C250 C 0.48326 0.87379 0.68575 0.0
C251 C 0.48336 0.85756 0.72626 0.0
C252 C 0.4712 0.85406 0.77706 0.0
C253 C 0.459 0.86689 0.78671 0.0
C254 C 0.45867 0.88283 0.74787 0.0
C255 C 0.44369 0.8939 0.76814 0.0
C256 C 0.45964 0.92174 0.77442 0.0
C257 C 0.42182 0.88705 0.72944 0.0
C258 C 0.4355 0.88154 0.82423 0.0
C259 C 0.44465 0.86614 0.83423 0.0
C260 C 0.43946 0.85257 0.88303 0.0
C261 C 0.42441 0.85472 0.92267 0.0
C262 C 0.41466 0.87025 0.91311 0.0
C263 C 0.42041 0.88387 0.86325 0.0
H264 H 0.48886 0.3859 0.05032 0.0
H265 H 0.54395 0.41916 0.1795 0.0
H266 H 0.57307 0.44767 0.11041 0.0
H267 H 0.52807 0.38743 0.94519 0.0
H268 H 0.5134 0.39432 0.88948 0.0
H269 H 0.49612 0.37797 0.94983 0.0
H270 H 0.48332 0.41054 0.96569 0.0
H271 H 0.50058 0.427 0.90526 0.0
H272 H 0.5065 0.44224 0.97163 0.0
H273 H 0.59697 0.4704 0.02711 0.0
H274 H 0.61444 0.48591 0.93445 0.0
H275 H 0.54392 0.43808 0.85869 0.0
C276 C 0.50693 0.3994 0.06427 0.0
C277 C 0.51412 0.40033 0.12035 0.0
C278 C 0.53803 0.41811 0.13678 0.0
C279 C 0.55468 0.43443 0.0979 0.0
C280 C 0.5471 0.43282 0.04286 0.0
C281 C 0.5238 0.41583 0.02599 0.0
C282 C 0.52073 0.41711 0.96373 0.0
C283 C 0.51421 0.39276 0.93541 0.0
C284 C 0.50165 0.42468 0.95084 0.0
C285 C 0.54616 0.43707 0.94807 0.0
C286 C 0.56097 0.44602 0.99448 0.0
C287 C 0.5855 0.46374 0.9905 0.0
C288 C 0.59526 0.47238 0.93761 0.0
C289 C 0.58052 0.46325 0.88929 0.0
C290 C 0.55557 0.4456 0.89484 0.0
H291 H 0.10768 0.52376 0.26231 0.0
H292 H 0.16116 0.58742 0.35382 0.0
H293 H 0.16469 0.61364 0.27411 0.0
H294 H 0.13553 0.54242 0.12851 0.0
H295 H 0.107 0.53023 0.09156 0.0
H296 H 0.10846 0.51653 0.15607 0.0
H297 H 0.07399 0.52266 0.19691 0.0
H298 H 0.07236 0.5363 0.13246 0.0
H299 H 0.07745 0.55272 0.19697 0.0
H300 H 0.16303 0.63273 0.18358 0.0
H301 H 0.15525 0.64357 0.09017 0.0
H302 H 0.10242 0.56736 0.05867 0.0
C303 C 0.1201 0.54322 0.26575 0.0
C304 C 0.13418 0.55354 0.3143 0.0
C305 C 0.15017 0.5791 0.31709 0.0
C306 C 0.15233 0.59414 0.272 0.0
C307 C 0.1383 0.58333 0.22464 0.0
C308 C 0.12241 0.55848 0.22134 0.0
C309 C 0.10935 0.55141 0.16581 0.0
C310 C 0.11546 0.53413 0.1336 0.0
C311 C 0.08165 0.54011 0.17352 0.0
C312 C 0.12046 0.57618 0.13824 0.0
C313 C 0.13716 0.59434 0.17279 0.0
C314 C 0.14993 0.61868 0.15623 0.0
C315 C 0.1454 0.62463 0.10304 0.0
C316 C 0.12818 0.60632 0.06711 0.0
C317 C 0.11564 0.58179 0.08514 0.0
H318 H 0.49477 0.29735 0.21407 0.0
H319 H 0.42179 0.27106 0.14902 0.0
H320 H 0.42145 0.23438 0.11203 0.0
H321 H 0.51675 0.27695 0.09936 0.0
H322 H 0.53468 0.26885 0.14332 0.0
H323 H 0.52915 0.29303 0.16384 0.0
H324 H 0.51098 0.27103 0.25752 0.0
H325 H 0.51656 0.24686 0.2374 0.0
H326 H 0.48625 0.23987 0.25701 0.0
H327 H 0.42884 0.19987 0.08502 0.0
H328 H 0.44334 0.17054 0.07024 0.0
H329 H 0.51177 0.22061 0.15131 0.0
C330 C 0.47867 0.28391 0.19209 0.0
C331 C 0.45826 0.28701 0.1846 0.0
C332 C 0.43763 0.26903 0.1553 0.0
C333 C 0.43728 0.24818 0.13408 0.0
C334 C 0.45777 0.24574 0.14221 0.0
C335 C 0.47809 0.26318 0.17041 0.0
C336 C 0.49769 0.25626 0.17411 0.0
C337 C 0.52094 0.27488 0.14331 0.0
C338 C 0.50318 0.25332 0.23513 0.0
C339 C 0.48515 0.23201 0.14415 0.0
C340 C 0.46216 0.22623 0.12594 0.0
C341 C 0.44688 0.20429 0.09877 0.0
C342 C 0.45527 0.18776 0.09058 0.0
C343 C 0.47873 0.19333 0.1094 0.0
C344 C 0.49386 0.21589 0.13593 0.0
H345 H 0.30496 0.53797 0.34169 0.0
H346 H 0.27828 0.46465 0.27822 0.0
H347 H 0.23598 0.45456 0.29892 0.0
H348 H 0.26344 0.52142 0.45464 0.0
H349 H 0.25983 0.54782 0.44841 0.0
H350 H 0.28786 0.54951 0.42669 0.0
H351 H 0.28323 0.5637 0.32849 0.0
H352 H 0.25529 0.56225 0.35004 0.0
H353 H 0.25553 0.54547 0.28964 0.0
H354 H 0.19668 0.4523 0.32903 0.0
H355 H 0.16332 0.45846 0.36308 0.0
H356 H 0.21625 0.53322 0.40716 0.0
C357 C 0.29025 0.51983 0.33166 0.0
C358 C 0.29492 0.5021 0.30827 0.0
C359 C 0.27512 0.47855 0.29605 0.0
C360 C 0.25105 0.47263 0.30776 0.0
C361 C 0.24715 0.49048 0.33159 0.0
C362 C 0.26621 0.51363 0.34312 0.0
C363 C 0.25723 0.52943 0.3693 0.0
C364 C 0.26771 0.53751 0.42825 0.0
C365 C 0.26317 0.55151 0.33214 0.0
C366 C 0.23011 0.51154 0.37091 0.0
C367 C 0.22463 0.48916 0.34901 0.0
C368 C 0.20074 0.46976 0.34617 0.0
C369 C 0.18194 0.47343 0.36573 0.0
C370 C 0.18717 0.49632 0.38783 0.0
C371 C 0.21162 0.5155 0.39065 0.0
H372 H 0.69446 0.22075 0.51537 0.0
H373 H 0.71578 0.17118 0.58682 0.0
H374 H 0.75819 0.1984 0.55545 0.0
H375 H 0.73134 0.23557 0.3939 0.0
H376 H 0.73874 0.26702 0.39264 0.0
H377 H 0.71035 0.24411 0.42259 0.0
H378 H 0.72111 0.26842 0.51516 0.0
H379 H 0.74946 0.2915 0.48536 0.0
H380 H 0.74958 0.27673 0.54939 0.0
H381 H 0.79838 0.23123 0.51547 0.0
H382 H 0.83294 0.267 0.47048 0.0
H383 H 0.78438 0.29387 0.42349 0.0
C384 C 0.70804 0.21566 0.52489 0.0
C385 C 0.70183 0.19388 0.55372 0.0
C386 C 0.72015 0.18782 0.56486 0.0
C387 C 0.74427 0.20314 0.54719 0.0
C388 C 0.7497 0.22436 0.51828 0.0
C389 C 0.73209 0.23061 0.50729 0.0
C390 C 0.74245 0.25415 0.47471 0.0
C391 C 0.72998 0.24995 0.41758 0.0
C392 C 0.74054 0.27386 0.50817 0.0
C393 C 0.76866 0.26018 0.46892 0.0
C394 C 0.77256 0.24287 0.49447 0.0
C395 C 0.79552 0.24487 0.49522 0.0
C396 C 0.81502 0.26521 0.46953 0.0
C397 C 0.81134 0.28315 0.44322 0.0
C398 C 0.78778 0.28039 0.44275 0.0
H399 H 0.48174 0.77325 0.60962 0.0
H400 H 0.55904 0.82054 0.57714 0.0
H401 H 0.56747 0.78982 0.61932 0.0
H402 H 0.48812 0.75326 0.74123 0.0
H403 H 0.46305 0.72255 0.73276 0.0
H404 H 0.46299 0.74729 0.69602 0.0
H405 H 0.45812 0.72512 0.60205 0.0
H406 H 0.45786 0.70014 0.63857 0.0
H407 H 0.47962 0.71549 0.58357 0.0
H408 H 0.56734 0.75453 0.67033 0.0
H409 H 0.55847 0.7171 0.72185 0.0
H410 H 0.48133 0.69416 0.72115 0.0
C411 C 0.50044 0.77708 0.61052 0.0
C412 C 0.51974 0.79928 0.59 0.0
C413 C 0.54395 0.80358 0.59241 0.0
C414 C 0.54891 0.78629 0.61641 0.0
C415 C 0.52945 0.76483 0.63754 0.0
C416 C 0.50569 0.76015 0.63435 0.0
C417 C 0.48806 0.73618 0.66165 0.0
C418 C 0.47478 0.74007 0.71083 0.0
C419 C 0.46985 0.71817 0.6189 0.0
C420 C 0.50561 0.72818 0.68139 0.0
C421 C 0.52941 0.74484 0.66702 0.0
C422 C 0.54876 0.74132 0.68154 0.0
C423 C 0.54355 0.72007 0.71096 0.0
C424 C 0.51922 0.70274 0.7256 0.0
C425 C 0.50014 0.70704 0.71073 0.0
H426 H 0.71316 0.50593 0.77838 0.0
H427 H 0.66937 0.46156 0.91688 0.0
H428 H 0.70637 0.4663 0.96242 0.0
H429 H 0.75282 0.48107 0.77402 0.0
H430 H 0.77956 0.50954 0.75592 0.0
H431 H 0.7498 0.50394 0.73583 0.0
H432 H 0.75819 0.5437 0.78593 0.0
H433 H 0.78793 0.54929 0.80664 0.0
H434 H 0.76666 0.54788 0.85846 0.0
H435 H 0.74778 0.47543 0.9928 0.0
H436 H 0.79042 0.48473 0.00133 0.0
H437 H 0.80723 0.52192 0.84176 0.0
C438 C 0.71141 0.49733 0.8184 0.0
C439 C 0.68843 0.48346 0.8442 0.0
C440 C 0.6868 0.47222 0.89625 0.0
C441 C 0.70772 0.47494 0.92269 0.0
C442 C 0.73012 0.48883 0.89637 0.0
C443 C 0.7321 0.4996 0.84511 0.0
C444 C 0.75819 0.51232 0.82439 0.0
C445 C 0.7602 0.50103 0.76929 0.0
C446 C 0.76834 0.53994 0.81852 0.0
C447 C 0.77045 0.50675 0.87174 0.0
C448 C 0.75399 0.49352 0.91322 0.0
C449 C 0.76089 0.48583 0.96068 0.0
C450 C 0.78517 0.49128 0.96523 0.0
C451 C 0.80214 0.50401 0.9222 0.0
C452 C 0.7947 0.5122 0.87541 0.0
H453 H 0.22157 0.70254 0.96105 0.0
H454 H 0.17433 0.72725 0.89168 0.0
H455 H 0.20732 0.77014 0.90322 0.0
H456 H 0.24791 0.74772 0.06525 0.0
H457 H 0.27775 0.75084 0.06005 0.0
H458 H 0.25106 0.72227 0.04264 0.0
H459 H 0.26896 0.72336 0.94489 0.0
H460 H 0.2958 0.75186 0.96213 0.0
H461 H 0.27831 0.74967 0.90099 0.0
H462 H 0.24553 0.81049 0.92515 0.0
H463 H 0.28538 0.84464 0.9562 0.0
H464 H 0.30621 0.79256 0.01348 0.0
C465 C 0.2182 0.71692 0.94755 0.0
C466 C 0.19543 0.71157 0.92519 0.0
C467 C 0.19169 0.73096 0.90877 0.0
C468 C 0.2103 0.75535 0.91515 0.0
C469 C 0.23244 0.75995 0.93816 0.0
C470 C 0.23641 0.74123 0.95403 0.0
C471 C 0.26136 0.75088 0.97971 0.0
C472 C 0.25939 0.74243 0.04051 0.0
C473 C 0.27703 0.7435 0.94483 0.0
C474 C 0.27082 0.77798 0.97622 0.0
C475 C 0.25401 0.78294 0.95181 0.0
C476 C 0.25884 0.8068 0.94426 0.0
C477 C 0.28149 0.82606 0.96205 0.0
C478 C 0.29885 0.82126 0.98745 0.0
C479 C 0.2933 0.79687 0.99453 0.0
H480 H 0.57596 0.15278 0.73101 0.0
H481 H 0.62239 0.12393 0.78232 0.0
H482 H 0.60571 0.11803 0.8775 0.0
H483 H 0.57999 0.1848 0.8603 0.0
H484 H 0.54858 0.17745 0.85732 0.0
H485 H 0.5651 0.18058 0.79391 0.0
H486 H 0.5318 0.13718 0.76368 0.0
H487 H 0.51523 0.13388 0.82703 0.0
H488 H 0.52405 0.1117 0.80926 0.0
H489 H 0.58269 0.11347 0.96571 0.0
H490 H 0.55532 0.11111 0.04151 0.0
H491 H 0.52388 0.14299 0.93283 0.0
C492 C 0.58284 0.14547 0.76235 0.0
C493 C 0.60053 0.13886 0.74919 0.0
C494 C 0.60888 0.12917 0.79139 0.0
C495 C 0.59953 0.12576 0.8456 0.0
C496 C 0.5819 0.13218 0.85697 0.0
C497 C 0.57369 0.14192 0.81665 0.0
C498 C 0.55409 0.14662 0.83936 0.0
C499 C 0.56245 0.17399 0.83762 0.0
C500 C 0.52986 0.13143 0.80796 0.0
C501 C 0.55237 0.13775 0.8986 0.0
C502 C 0.56862 0.12957 0.90792 0.0
C503 C 0.57 0.11997 0.95904 0.0
C504 C 0.55433 0.11866 0.0018 0.0
C505 C 0.53748 0.12691 0.99319 0.0
C506 C 0.53664 0.13666 0.94086 0.0
H507 H 0.45812 0.56812 0.92765 0.0
H508 H 0.49281 0.64577 0.96226 0.0
H509 H 0.47077 0.63675 0.05183 0.0
H510 H 0.39967 0.55176 0.98458 0.0
H511 H 0.39452 0.52321 0.01302 0.0
H512 H 0.4133 0.53576 0.95208 0.0
H513 H 0.44888 0.53421 0.00161 0.0
H514 H 0.43017 0.52154 0.0626 0.0
H515 H 0.45946 0.549 0.06816 0.0
H516 H 0.44458 0.61917 0.13727 0.0
H517 H 0.41697 0.59437 0.21313 0.0
H518 H 0.39943 0.52829 0.12194 0.0
C519 C 0.46119 0.58326 0.95408 0.0
C520 C 0.47721 0.60767 0.93792 0.0
C521 C 0.48064 0.62693 0.97377 0.0
C522 C 0.46818 0.62199 0.02468 0.0
C523 C 0.45238 0.59772 0.0391 0.0
C524 C 0.44891 0.57868 0.00491 0.0
C525 C 0.43091 0.55422 0.02999 0.0
C526 C 0.40826 0.54044 0.99269 0.0
C527 C 0.44309 0.53884 0.04127 0.0
C528 C 0.42476 0.56247 0.08366 0.0
C529 C 0.43731 0.58762 0.08814 0.0
C530 C 0.43466 0.59946 0.13422 0.0
C531 C 0.4189 0.5852 0.17706 0.0
C532 C 0.406 0.55938 0.17351 0.0
C533 C 0.40896 0.54798 0.12592 0.0
H534 H 0.8797 0.47424 0.02501 0.0
H535 H 0.82102 0.41307 0.93695 0.0
H536 H 0.81821 0.38545 0.01278 0.0
H537 H 0.90855 0.44157 0.08014 0.0
H538 H 0.91609 0.45761 0.14566 0.0
H539 H 0.91403 0.47238 0.08348 0.0
H540 H 0.88229 0.48077 0.13154 0.0
H541 H 0.88425 0.46603 0.19382 0.0
H542 H 0.85508 0.45567 0.16096 0.0
H543 H 0.82099 0.3647 0.09969 0.0
H544 H 0.82905 0.35247 0.19135 0.0
H545 H 0.88591 0.4273 0.22208 0.0
C546 C 0.86636 0.45501 0.02141 0.0
C547 C 0.8506 0.44581 0.97496 0.0
C548 C 0.8333 0.42055 0.9721 0.0
C549 C 0.83159 0.4047 0.01493 0.0
C550 C 0.84731 0.4144 0.06026 0.0
C551 C 0.86438 0.43896 0.06374 0.0
C552 C 0.87871 0.44488 0.11752 0.0
C553 C 0.90596 0.45468 0.10599 0.0
C554 C 0.87484 0.4629 0.15305 0.0
C555 C 0.86691 0.41983 0.14396 0.0
C556 C 0.8489 0.40247 0.11023 0.0
C557 C 0.83513 0.37811 0.12636 0.0
C558 C 0.83983 0.37135 0.17851 0.0
C559 C 0.85813 0.3889 0.21389 0.0
C560 C 0.87188 0.41341 0.19597 0.0
H561 H 0.49086 0.86958 0.38661 0.0
H562 H 0.42671 0.82155 0.48404 0.0
H563 H 0.40032 0.81987 0.40649 0.0
H564 H 0.46663 0.90417 0.32567 0.0
H565 H 0.48106 0.90734 0.25909 0.0
H566 H 0.49494 0.90391 0.32129 0.0
H567 H 0.49513 0.86647 0.27808 0.0
H568 H 0.48134 0.86984 0.21563 0.0
H569 H 0.46699 0.84121 0.25258 0.0
H570 H 0.3809 0.82419 0.31916 0.0
H571 H 0.3699 0.83411 0.22813 0.0
H572 H 0.44679 0.87966 0.18854 0.0
C573 C 0.47127 0.85851 0.39149 0.0
C574 C 0.46085 0.84562 0.44134 0.0
C575 C 0.43512 0.83156 0.44622 0.0
C576 C 0.41996 0.83047 0.4024 0.0
C577 C 0.43083 0.84358 0.35406 0.0
C578 C 0.45589 0.8573 0.34832 0.0
C579 C 0.46295 0.87016 0.29259 0.0
C580 C 0.47723 0.89805 0.30014 0.0
C581 C 0.47745 0.86139 0.25766 0.0
C582 C 0.43794 0.86161 0.26798 0.0
C583 C 0.41966 0.84624 0.304 0.0
C584 C 0.39506 0.83617 0.29053 0.0
C585 C 0.389 0.84192 0.23875 0.0
C586 C 0.40747 0.85766 0.20119 0.0
C587 C 0.43223 0.86759 0.21627 0.0
H588 H 0.60255 0.46671 0.59662 0.0
H589 H 0.57816 0.40036 0.69264 0.0
H590 H 0.55162 0.37619 0.61457 0.0
H591 H 0.5453 0.45006 0.53504 0.0
H592 H 0.55799 0.46398 0.46878 0.0
H593 H 0.57579 0.47592 0.53129 0.0
H594 H 0.61036 0.47053 0.48829 0.0
H595 H 0.59272 0.45869 0.42551 0.0
H596 H 0.60346 0.44103 0.46222 0.0
H597 H 0.52662 0.35944 0.52694 0.0
H598 H 0.50604 0.35131 0.43558 0.0
H599 H 0.54702 0.42874 0.39748 0.0
C600 C 0.59181 0.44708 0.60116 0.0
C601 C 0.59248 0.43543 0.65078 0.0
C602 C 0.57801 0.4097 0.65501 0.0
C603 C 0.56285 0.39581 0.61091 0.0
C604 C 0.56242 0.40792 0.56286 0.0
C605 C 0.57661 0.43296 0.55764 0.0
C606 C 0.57255 0.4416 0.50203 0.0
C607 C 0.56229 0.45891 0.50978 0.0
C608 C 0.59618 0.45367 0.46748 0.0
C609 C 0.55372 0.41752 0.47686 0.0
C610 C 0.54811 0.3983 0.51254 0.0
C611 C 0.53095 0.37434 0.49856 0.0
C612 C 0.51932 0.36992 0.44662 0.0
C613 C 0.52492 0.38937 0.40929 0.0
C614 C 0.54235 0.41345 0.42493 0.0
H615 H 0.07608 0.52346 0.5652 0.0
H616 H 0.14889 0.5329 0.57 0.0
H617 H 0.1577 0.55742 0.65577 0.0
H618 H 0.09201 0.58284 0.61165 0.0
H619 H 0.06501 0.57293 0.65343 0.0
H620 H 0.0641 0.55546 0.59337 0.0
H621 H 0.04883 0.51688 0.6548 0.0
H622 H 0.04959 0.53421 0.71505 0.0
H623 H 0.06619 0.51792 0.7153 0.0
H624 H 0.15953 0.58315 0.73735 0.0
H625 H 0.15324 0.6059 0.81297 0.0
H626 H 0.07865 0.57817 0.75759 0.0
C627 C 0.09383 0.53055 0.58448 0.0
C628 C 0.11182 0.5263 0.56085 0.0
C629 C 0.13478 0.53583 0.58747 0.0
C630 C 0.13999 0.54984 0.63612 0.0
C631 C 0.12195 0.55391 0.65799 0.0
C632 C 0.09923 0.54432 0.63343 0.0
C633 C 0.08308 0.55143 0.66535 0.0
C634 C 0.07562 0.56657 0.62876 0.0
C635 C 0.0606 0.52876 0.68904 0.0
C636 C 0.10039 0.56681 0.71124 0.0
C637 C 0.12275 0.5681 0.70607 0.0
C638 C 0.14202 0.58206 0.74219 0.0
C639 C 0.1383 0.59499 0.78485 0.0
C640 C 0.11542 0.59367 0.79135 0.0
C641 C 0.09625 0.57929 0.75409 0.0
H642 H 0.44225 0.0409 0.99481 0.0
H643 H 0.41702 0.06027 0.14394 0.0
H644 H 0.38928 0.01657 0.1637 0.0
H645 H 0.38346 0.9859 0.95768 0.0
H646 H 0.3985 0.96963 0.9348 0.0
H647 H 0.41369 0.00238 0.92831 0.0
H648 H 0.45042 0.00618 0.98447 0.0
H649 H 0.43532 0.97354 0.99139 0.0
H650 H 0.4453 0.99256 0.05263 0.0
H651 H 0.36751 0.97082 0.17229 0.0
H652 H 0.35383 0.92676 0.16932 0.0
H653 H 0.39392 0.93775 0.01528 0.0
C654 C 0.43046 0.036 0.03087 0.0
C655 C 0.43169 0.05399 0.06763 0.0
C656 C 0.41631 0.04678 0.11503 0.0
C657 C 0.40044 0.02201 0.12654 0.0
C658 C 0.40013 0.00471 0.09015 0.0
C659 C 0.41466 0.0114 0.04312 0.0
C660 C 0.41251 0.98935 0.01333 0.0
C661 C 0.40137 0.98666 0.95508 0.0
C662 C 0.43736 0.99049 0.01032 0.0
C663 C 0.39507 0.96926 0.05183 0.0
C664 C 0.38785 0.97841 0.09548 0.0
C665 C 0.37279 0.9634 0.1379 0.0
C666 C 0.36515 0.93841 0.13592 0.0
C667 C 0.37279 0.92881 0.09209 0.0
C668 C 0.38764 0.94448 0.04921 0.0
H669 H 0.43349 0.3973 0.35994 0.0
H670 H 0.41218 0.35173 0.21213 0.0
H671 H 0.38239 0.36474 0.18893 0.0
H672 H 0.37204 0.38939 0.3915 0.0
H673 H 0.38532 0.4207 0.4137 0.0
H674 H 0.40183 0.4046 0.42336 0.0
H675 H 0.43854 0.43861 0.36918 0.0
H676 H 0.42214 0.45467 0.35901 0.0
H677 H 0.43388 0.44634 0.29976 0.0
H678 H 0.35924 0.38719 0.17506 0.0
H679 H 0.34441 0.41667 0.17279 0.0
H680 H 0.38105 0.44717 0.32983 0.0
C681 C 0.42209 0.3895 0.32352 0.0
C682 C 0.42512 0.37346 0.28797 0.0
C683 C 0.4101 0.36397 0.24019 0.0
C684 C 0.39308 0.37122 0.2267 0.0
C685 C 0.39115 0.38773 0.2617 0.0
C686 C 0.40509 0.39654 0.30948 0.0
C687 C 0.40128 0.41579 0.33739 0.0
C688 C 0.38941 0.40709 0.3949 0.0
C689 C 0.42539 0.44029 0.34152 0.0
C690 C 0.38382 0.4172 0.29666 0.0
C691 C 0.37786 0.40064 0.25369 0.0
C692 C 0.36342 0.39992 0.20904 0.0
C693 C 0.35513 0.41677 0.20802 0.0
C694 C 0.36151 0.43419 0.25116 0.0
C695 C 0.37564 0.43397 0.29642 0.0
H696 H 0.02552 0.42825 0.49203 0.0
H697 H 0.06017 0.42249 0.34147 0.0
H698 H 0.01993 0.39215 0.30404 0.0
H699 H 0.97445 0.36313 0.49607 0.0
H700 H 0.95306 0.37206 0.52004 0.0
H701 H 0.9848 0.38984 0.53919 0.0
H702 H 0.98645 0.42857 0.49847 0.0
H703 H 0.95485 0.41093 0.47904 0.0
H704 H 0.97751 0.4284 0.42713 0.0
H705 H 0.97591 0.36695 0.27768 0.0
H706 H 0.93152 0.3494 0.26423 0.0
H707 H 0.9257 0.37193 0.43159 0.0
C708 C 0.0247 0.42002 0.45198 0.0
C709 C 0.04595 0.42758 0.41982 0.0
C710 C 0.04409 0.41689 0.36689 0.0
C711 C 0.02133 0.39955 0.34538 0.0
C712 C 0.00062 0.39304 0.37737 0.0
C713 C 0.0021 0.40284 0.4297 0.0
C714 C 0.977 0.39488 0.45297 0.0
C715 C 0.97204 0.37903 0.50516 0.0
C716 C 0.97378 0.41701 0.46507 0.0
C717 C 0.96126 0.37993 0.40466 0.0
C718 C 0.97516 0.37868 0.36184 0.0
C719 C 0.96477 0.36741 0.31129 0.0
C720 C 0.93955 0.35753 0.30398 0.0
C721 C 0.92513 0.35925 0.34682 0.0
C722 C 0.93616 0.37011 0.39814 0.0
H723 H 0.54882 0.95631 0.48977 0.0
H724 H 0.59561 0.93267 0.56646 0.0
H725 H 0.62618 0.97564 0.58677 0.0
H726 H 0.59785 0.01416 0.43023 0.0
H727 H 0.58141 0.02993 0.44526 0.0
H728 H 0.56495 -0.00229 0.43016 0.0
H729 H 0.54161 0.98967 0.52353 0.0
H730 H 0.5581 0.02177 0.5391 0.0
H731 H 0.5586 0.00029 0.58758 0.0
H732 H 0.64968 0.0209 0.60696 0.0
H733 H 0.66407 0.06453 0.625 0.0
H734 H 0.60122 0.05773 0.53612 0.0
C735 C 0.56574 0.96015 0.50962 0.0
C736 C 0.56988 0.94115 0.52628 0.0
C737 C 0.59209 0.94696 0.55309 0.0
C738 C 0.60958 0.97131 0.56472 0.0
C739 C 0.60459 0.98957 0.54906 0.0
C740 C 0.58326 0.98426 0.52177 0.0
C741 C 0.58129 0.00688 0.51333 0.0
C742 C 0.58139 0.0125 0.45104 0.0
C743 C 0.55856 0.0045 0.54265 0.0
C744 C 0.60453 0.02567 0.54149 0.0
C745 C 0.61792 0.01547 0.56125 0.0
C746 C 0.6395 0.02916 0.59106 0.0
C747 C 0.6475 0.05389 0.60121 0.0
C748 C 0.63378 0.06454 0.582 0.0
C749 C 0.6122 0.0502 0.55123 0.0
H750 H 0.58683 0.53637 0.68946 0.0
H751 H 0.65841 0.57457 0.76657 0.0
H752 H 0.65314 0.61022 0.78326 0.0
H753 H 0.58795 0.5908 0.62644 0.0
H754 H 0.55601 0.5787 0.64119 0.0
H755 H 0.56743 0.55827 0.62677 0.0
H756 H 0.54938 0.53607 0.72029 0.0
H757 H 0.53822 0.55656 0.73534 0.0
H758 H 0.55809 0.55339 0.78414 0.0
H759 H 0.63759 0.63962 0.80192 0.0
H760 H 0.61335 0.65988 0.81965 0.0
H761 H 0.55199 0.60123 0.73222 0.0
C762 C 0.60173 0.55246 0.70843 0.0
C763 C 0.62305 0.55271 0.72656 0.0
C764 C 0.64195 0.57403 0.75203 0.0
C765 C 0.63913 0.59437 0.76165 0.0
C766 C 0.61741 0.59312 0.74518 0.0
C767 C 0.59915 0.57276 0.71857 0.0
C768 C 0.57663 0.57483 0.70973 0.0
C769 C 0.57173 0.57571 0.64732 0.0
C770 C 0.55428 0.55398 0.73915 0.0
C771 C 0.58467 0.59911 0.73739 0.0
C772 C 0.60836 0.60967 0.75679 0.0
C773 C 0.61914 0.63165 0.78622 0.0
C774 C 0.60524 0.64299 0.79623 0.0
C775 C 0.58078 0.63207 0.77757 0.0
C776 C 0.57062 0.61003 0.74724 0.0
H777 H 0.044 0.62589 0.8186 0.0
H778 H 0.06396 0.648 0.99035 0.0
H779 H 0.02065 0.63225 0.01374 0.0
H780 H 0.98997 0.63578 0.81199 0.0
H781 H 0.97292 0.60881 0.77 0.0
H782 H 0.00569 0.6264 0.76421 0.0
H783 H 0.0083 0.58761 0.7854 0.0
H784 H 0.97567 0.56999 0.79152 0.0
H785 H 0.99464 0.57066 0.84825 0.0
H786 H 0.97531 0.60897 0.0215 0.0
H787 H 0.93141 0.57877 0.01361 0.0
H788 H 0.94087 0.57087 0.83728 0.0
C789 C 0.0393 0.62822 0.86062 0.0
C790 C 0.05727 0.63839 0.90255 0.0
C791 C 0.05042 0.64037 0.95756 0.0
C792 C 0.0259 0.63161 0.97117 0.0
C793 C 0.00846 0.6209 0.92928 0.0
C794 C 0.01485 0.61924 0.87503 0.0
C795 C 0.99248 0.60407 0.83955 0.0
C796 C 0.99013 0.61971 0.79373 0.0
C797 C 0.9928 0.58177 0.81477 0.0
C798 C 0.97263 0.59657 0.88286 0.0
C799 C 0.98216 0.60691 0.93405 0.0
C800 C 0.96756 0.60111 0.98141 0.0
C801 C 0.94264 0.58389 0.97655 0.0
C802 C 0.9327 0.57248 0.92485 0.0
C803 C 0.94785 0.57944 0.87729 0.0
loop_
_geom_bond_atom_site_label_1
_geom_bond_atom_site_label_2
_geom_bond_distance
_geom_bond_site_symmetry_2
_ccdc_geom_bond_type
C0 O1 1.160 . S
C0 O7 1.185 . S
O1 C0 1.160 . S
O2 Zn3 1.899 . S
O2 C10 1.284 . S
Zn3 O2 1.899 . S
Zn3 O4 2.032 . S
Zn3 O7 2.086 . S
Zn3 O12 1.977 . S
O4 Zn3 2.032 . S
O4 C8 1.278 . S
C5 O6 1.203 . S
C5 O12 1.267 . S
O6 C5 1.203 . S
O7 C0 1.185 . S
O7 Zn3 2.086 . S
C8 O4 1.278 . S
C8 O9 1.211 . S
O9 C8 1.211 . S
C10 O2 1.284 . S
C10 O11 1.273 . S
O11 C10 1.273 . S
O12 Zn3 1.977 . S
O12 C5 1.267 . S
C13 O14 1.160 . S
C13 O20 1.185 . S
O14 C13 1.160 . S
O15 Zn16 1.899 . S
O15 C23 1.284 . S
Zn16 O15 1.899 . S
Zn16 O17 2.032 . S
Zn16 O20 2.086 . S
Zn16 O25 1.977 . S
O17 Zn16 2.032 . S
O17 C21 1.278 . S
C18 O19 1.203 . S
C18 O25 1.267 . S
O19 C18 1.203 . S
O20 C13 1.185 . S
O20 Zn16 2.086 . S
C21 O17 1.278 . S
C21 O22 1.211 . S
O22 C21 1.211 . S
C23 O15 1.284 . S
C23 O24 1.273 . S
O24 C23 1.273 . S
O25 Zn16 1.977 . S
O25 C18 1.267 . S
C26 O27 1.160 . S
C26 O33 1.185 . S
O27 C26 1.160 . S
O28 Zn29 1.899 . S
O28 C36 1.284 . S
Zn29 O28 1.899 . S
Zn29 O30 2.032 . S
Zn29 O33 2.086 . S
Zn29 O38 1.977 . S
O30 Zn29 2.032 . S
O30 C34 1.278 . S
C31 O32 1.203 . S
C31 O38 1.267 . S
O32 C31 1.203 . S
O33 C26 1.185 . S
O33 Zn29 2.086 . S
C34 O30 1.278 . S
C34 O35 1.211 . S
O35 C34 1.211 . S
C36 O28 1.284 . S
C36 O37 1.273 . S
O37 C36 1.273 . S
O38 Zn29 1.977 . S
O38 C31 1.267 . S
C39 O40 1.160 . S
C39 O46 1.185 . S
O40 C39 1.160 . S
O41 Zn42 1.899 . S
O41 C49 1.284 . S
Zn42 O41 1.899 . S
Zn42 O43 2.032 . S
Zn42 O46 2.086 . S
Zn42 O51 1.977 . S
O43 Zn42 2.032 . S
O43 C47 1.278 . S
C44 O45 1.203 . S
C44 O51 1.267 . S
O45 C44 1.203 . S
O46 C39 1.185 . S
O46 Zn42 2.086 . S
C47 O43 1.278 . S
C47 O48 1.211 . S
O48 C47 1.211 . S
C49 O41 1.284 . S
C49 O50 1.273 . S
O50 C49 1.273 . S
O51 Zn42 1.977 . S
O51 C44 1.267 . S
C52 O53 1.160 . S
C52 O59 1.185 . S
O53 C52 1.160 . S
O54 Zn55 1.899 . S
O54 C62 1.284 . S
Zn55 O54 1.899 . S
Zn55 O56 2.032 . S
Zn55 O59 2.086 . S
Zn55 O64 1.977 . S
O56 Zn55 2.032 . S
O56 C60 1.278 . S
C57 O58 1.203 . S
C57 O64 1.267 . S
O58 C57 1.203 . S
O59 C52 1.185 . S
O59 Zn55 2.086 . S
C60 O56 1.278 . S
C60 O61 1.211 . S
O61 C60 1.211 . S
C62 O54 1.284 . S
C62 O63 1.273 . S
O63 C62 1.273 . S
O64 Zn55 1.977 . S
O64 C57 1.267 . S
C65 O66 1.160 . S
C65 O72 1.185 . S
O66 C65 1.160 . S
O67 Zn68 1.899 . S
O67 C75 1.284 . S
Zn68 O67 1.899 . S
Zn68 O69 2.032 . S
Zn68 O72 2.086 . S
Zn68 O77 1.977 . S
O69 Zn68 2.032 . S
O69 C73 1.278 1_556 S
C70 O71 1.203 . S
C70 O77 1.267 . S
O71 C70 1.203 . S
O72 C65 1.185 . S
O72 Zn68 2.086 . S
C73 O69 1.278 1_554 S
C73 O74 1.213 . S
O74 C73 1.213 . S
C75 O67 1.284 . S
C75 O76 1.273 . S
O76 C75 1.273 . S
O77 Zn68 1.977 . S
O77 C70 1.267 . S
C78 O79 1.160 . S
C78 O85 1.185 . S
O79 C78 1.160 . S
O80 Zn81 1.899 . S
O80 C88 1.284 . S
Zn81 O80 1.899 . S
Zn81 O82 2.032 . S
Zn81 O85 2.086 . S
Zn81 O90 1.977 . S
O82 Zn81 2.032 . S
O82 C86 1.278 . S
C83 O84 1.203 . S
C83 O90 1.267 . S
O84 C83 1.203 . S
O85 C78 1.185 . S
O85 Zn81 2.086 . S
C86 O82 1.278 . S
C86 O87 1.211 . S
O87 C86 1.211 . S
C88 O80 1.284 . S
C88 O89 1.273 . S
O89 C88 1.273 . S
O90 Zn81 1.977 . S
O90 C83 1.267 . S
C91 O92 1.160 . S
C91 O98 1.185 . S
O92 C91 1.160 . S
O93 Zn94 1.899 . S
O93 C101 1.284 . S
Zn94 O93 1.899 . S
Zn94 O95 2.032 . S
Zn94 O98 2.086 . S
Zn94 O103 1.977 . S
O95 Zn94 2.032 . S
O95 C99 1.278 1_554 S
C96 O97 1.203 . S
C96 O103 1.267 . S
O97 C96 1.203 . S
O98 C91 1.185 . S
O98 Zn94 2.086 . S
C99 O95 1.278 1_556 S
C99 O100 1.211 . S
O100 C99 1.211 . S
C101 O93 1.284 . S
C101 O102 1.273 . S
O102 C101 1.273 . S
O103 Zn94 1.977 . S
O103 C96 1.267 . S
C104 O105 1.160 . S
C104 O111 1.185 . S
O105 C104 1.160 . S
O106 Zn107 1.899 . S
O106 C114 1.284 . S
Zn107 O106 1.899 . S
Zn107 O108 2.032 . S
Zn107 O111 2.086 . S
Zn107 O116 1.977 . S
O108 Zn107 2.032 . S
O108 C112 1.278 . S
C109 O110 1.203 . S
C109 O116 1.267 . S
O110 C109 1.203 . S
O111 C104 1.185 . S
O111 Zn107 2.086 . S
C112 O108 1.278 . S
C112 O113 1.211 . S
O113 C112 1.211 . S
C114 O106 1.284 . S
C114 O115 1.273 . S
O115 C114 1.273 . S
O116 Zn107 1.977 . S
O116 C109 1.267 . S
C117 O118 1.160 . S
C117 O124 1.185 . S
O118 C117 1.160 . S
O119 Zn120 1.899 . S
O119 C127 1.284 . S
Zn120 O119 1.899 . S
Zn120 O121 2.032 . S
Zn120 O124 2.086 . S
Zn120 O129 1.977 . S
O121 Zn120 2.032 . S
O121 C125 1.278 . S
C122 O123 1.203 . S
C122 O129 1.267 . S
O123 C122 1.203 . S
O124 C117 1.185 . S
O124 Zn120 2.086 . S
C125 O121 1.278 . S
C125 O126 1.211 . S
O126 C125 1.211 . S
C127 O119 1.284 . S
C127 O128 1.273 . S
O128 C127 1.273 . S
O129 Zn120 1.977 . S
O129 C122 1.267 . S
C130 O131 1.160 . S
C130 O137 1.185 . S
O131 C130 1.160 . S
O132 Zn133 1.899 . S
O132 C140 1.284 . S
Zn133 O132 1.899 . S
Zn133 O134 2.032 . S
Zn133 O137 2.086 . S
Zn133 O142 1.977 . S
O134 Zn133 2.032 . S
O134 C138 1.278 . S
C135 O136 1.203 . S
C135 O142 1.267 . S
O136 C135 1.203 . S
O137 C130 1.185 . S
O137 Zn133 2.086 . S
C138 O134 1.278 . S
C138 O139 1.211 . S
O139 C138 1.211 . S
C140 O132 1.284 . S
C140 O141 1.273 . S
O141 C140 1.273 . S
O142 Zn133 1.977 . S
O142 C135 1.267 . S
C143 O144 1.160 . S
C143 O150 1.185 . S
O144 C143 1.160 . S
O145 Zn146 1.899 . S
O145 C153 1.284 . S
Zn146 O145 1.899 . S
Zn146 O147 2.032 . S
Zn146 O150 2.086 . S
Zn146 O155 1.977 . S
O147 Zn146 2.032 . S
O147 C151 1.278 . S
C148 O149 1.203 . S
C148 O155 1.267 . S
O149 C148 1.203 . S
O150 C143 1.185 . S
O150 Zn146 2.086 . S
C151 O147 1.278 . S
C151 O152 1.211 . S
O152 C151 1.211 . S
C153 O145 1.284 . S
C153 O154 1.273 . S
O154 C153 1.273 . S
O155 Zn146 1.977 . S
O155 C148 1.267 . S
H156 C168 0.930 . S
H157 C170 0.930 . S
H158 C171 0.930 . S
H159 C175 0.959 . S
H160 C175 0.959 . S
H161 C175 0.961 . S
H162 C176 0.960 . S
H163 C176 0.961 . S
H164 C176 0.959 . S
H165 C179 0.929 . S
H166 C180 0.931 . S
H167 C182 0.930 . S
C168 H156 0.930 . S
C168 C169 1.399 . S
C168 C173 1.399 . S
C169 C168 1.399 . S
C169 C170 1.376 . S
C170 H157 0.930 . S
C170 C169 1.376 . S
C170 C171 1.388 . S
C171 H158 0.930 . S
C171 C170 1.388 . S
C171 C172 1.390 . S
C172 C171 1.390 . S
C172 C173 1.394 . S
C172 C178 1.465 . S
C173 C168 1.399 . S
C173 C172 1.394 . S
C173 C174 1.516 . S
C174 C173 1.516 . S
C174 C175 1.502 . S
C174 C176 1.561 . S
C174 C177 1.526 . S
C175 H159 0.959 . S
C175 H160 0.959 . S
C175 H161 0.961 . S
C175 C174 1.502 . S
C176 H162 0.960 . S
C176 H163 0.961 . S
C176 H164 0.959 . S
C176 C174 1.561 . S
C177 C174 1.526 . S
C177 C178 1.396 . S
C177 C182 1.390 . S
C178 C172 1.465 . S
C178 C177 1.396 . S
C178 C179 1.399 . S
C179 H165 0.929 . S
C179 C178 1.399 . S
C179 C180 1.385 . S
C180 H166 0.931 . S
C180 C179 1.385 . S
C180 C181 1.389 . S
C181 C180 1.389 . S
C181 C182 1.387 . S
C182 H167 0.930 . S
C182 C177 1.390 . S
C182 C181 1.387 . S
H183 C195 0.930 . S
H184 C197 0.930 . S
H185 C198 0.930 . S
H186 C202 0.959 . S
H187 C202 0.959 . S
H188 C202 0.961 . S
H189 C203 0.960 . S
H190 C203 0.961 . S
H191 C203 0.959 . S
H192 C206 0.929 . S
H193 C207 0.931 . S
H194 C209 0.930 . S
C195 H183 0.930 . S
C195 C196 1.399 . S
C195 C200 1.399 . S
C196 C195 1.399 . S
C196 C197 1.376 . S
C197 H184 0.930 . S
C197 C196 1.376 . S
C197 C198 1.388 . S
C198 H185 0.930 . S
C198 C197 1.388 . S
C198 C199 1.390 . S
C199 C198 1.390 . S
C199 C200 1.394 . S
C199 C205 1.465 . S
C200 C195 1.399 . S
C200 C199 1.394 . S
C200 C201 1.516 . S
C201 C200 1.516 . S
C201 C202 1.502 . S
C201 C203 1.561 . S
C201 C204 1.526 . S
C202 H186 0.959 . S
C202 H187 0.959 . S
C202 H188 0.961 . S
C202 C201 1.502 . S
C203 H189 0.960 . S
C203 H190 0.961 . S
C203 H191 0.959 . S
C203 C201 1.561 . S
C204 C201 1.526 . S
C204 C205 1.396 . S
C204 C209 1.390 . S
C205 C199 1.465 . S
C205 C204 1.396 . S
C205 C206 1.399 . S
C206 H192 0.929 . S
C206 C205 1.399 . S
C206 C207 1.385 . S
C207 H193 0.931 . S
C207 C206 1.385 . S
C207 C208 1.389 . S
C208 C207 1.389 . S
C208 C209 1.387 . S
C209 H194 0.930 . S
C209 C204 1.390 . S
C209 C208 1.387 . S
H210 C222 0.930 . S
H211 C224 0.930 . S
H212 C225 0.930 . S
H213 C229 0.959 . S
H214 C229 0.959 . S
H215 C229 0.961 . S
H216 C230 0.960 . S
H217 C230 0.961 . S
H218 C230 0.959 . S
H219 C233 0.929 . S
H220 C234 0.931 . S
H221 C236 0.930 . S
C222 H210 0.930 . S
C222 C223 1.399 . S
C222 C227 1.399 . S
C223 C222 1.399 . S
C223 C224 1.376 . S
C224 H211 0.930 . S
C224 C223 1.376 . S
C224 C225 1.388 . S
C225 H212 0.930 . S
C225 C224 1.388 . S
C225 C226 1.390 . S
C226 C225 1.390 . S
C226 C227 1.394 . S
C226 C232 1.465 . S
C227 C222 1.399 . S
C227 C226 1.394 . S
C227 C228 1.516 . S
C228 C227 1.516 . S
C228 C229 1.502 . S
C228 C230 1.561 . S
C228 C231 1.526 . S
C229 H213 0.959 . S
C229 H214 0.959 . S
C229 H215 0.961 . S
C229 C228 1.502 . S
C230 H216 0.960 . S
C230 H217 0.961 . S
C230 H218 0.959 . S
C230 C228 1.561 . S
C231 C228 1.526 . S
C231 C232 1.396 . S
C231 C236 1.390 . S
C232 C226 1.465 . S
C232 C231 1.396 . S
C232 C233 1.399 . S
C233 H219 0.929 . S
C233 C232 1.399 . S
C233 C234 1.385 . S
C234 H220 0.931 . S
C234 C233 1.385 . S
C234 C235 1.389 . S
C235 C234 1.389 . S
C235 C236 1.387 . S
C236 H221 0.930 . S
C236 C231 1.390 . S
C236 C235 1.387 . S
H237 C249 0.930 . S
H238 C251 0.930 . S
H239 C252 0.930 . S
H240 C256 0.959 . S
H241 C256 0.959 . S
H242 C256 0.961 . S
H243 C257 0.960 . S
H244 C257 0.961 . S
H245 C257 0.959 . S
H246 C260 0.929 . S
H247 C261 0.931 . S
H248 C263 0.930 . S
C249 H237 0.930 . S
C249 C250 1.399 . S
C249 C254 1.399 . S
C250 C249 1.399 . S
C250 C251 1.376 . S
C251 H238 0.930 . S
C251 C250 1.376 . S
C251 C252 1.388 . S
C252 H239 0.930 . S
C252 C251 1.388 . S
C252 C253 1.390 . S
C253 C252 1.390 . S
C253 C254 1.394 . S
C253 C259 1.465 . S
C254 C249 1.399 . S
C254 C253 1.394 . S
C254 C255 1.516 . S
C255 C254 1.516 . S
C255 C256 1.502 . S
C255 C257 1.561 . S
C255 C258 1.526 . S
C256 H240 0.959 . S
C256 H241 0.959 . S
C256 H242 0.961 . S
C256 C255 1.502 . S
C257 H243 0.960 . S
C257 H244 0.961 . S
C257 H245 0.959 . S
C257 C255 1.561 . S
C258 C255 1.526 . S
C258 C259 1.396 . S
C258 C263 1.390 . S
C259 C253 1.465 . S
C259 C258 1.396 . S
C259 C260 1.399 . S
C260 H246 0.929 . S
C260 C259 1.399 . S
C260 C261 1.385 . S
C261 H247 0.931 . S
C261 C260 1.385 . S
C261 C262 1.389 . S
C262 C261 1.389 . S
C262 C263 1.387 . S
C263 H248 0.930 . S
C263 C258 1.390 . S
C263 C262 1.387 . S
H264 C276 0.930 . S
H265 C278 0.930 . S
H266 C279 0.930 1_556 S
H267 C283 0.959 . S
H268 C283 0.959 . S
H269 C283 0.961 . S
H270 C284 0.960 . S
H271 C284 0.961 . S
H272 C284 0.959 . S
H273 C287 0.929 . S
H274 C288 0.931 . S
H275 C290 0.930 . S
C276 H264 0.930 . S
C276 C277 1.399 . S
C276 C281 1.399 . S
C277 C276 1.399 . S
C277 C278 1.376 . S
C278 H265 0.930 . S
C278 C277 1.376 . S
C278 C279 1.388 . S
C279 H266 0.930 1_554 S
C279 C278 1.388 . S
C279 C280 1.390 . S
C280 C279 1.390 . S
C280 C281 1.394 . S
C280 C286 1.465 1_554 S
C281 C276 1.399 . S
C281 C280 1.394 . S
C281 C282 1.516 . S
C282 C281 1.516 . S
C282 C283 1.502 . S
C282 C284 1.561 . S
C282 C285 1.526 1_554 S
C283 H267 0.959 . S
C283 H268 0.959 . S
C283 H269 0.961 . S
C283 C282 1.502 . S
C284 H270 0.960 . S
C284 H271 0.961 . S
C284 H272 0.959 . S
C284 C282 1.561 . S
C285 C282 1.526 1_556 S
C285 C286 1.396 . S
C285 C290 1.390 . S
C286 C280 1.465 1_556 S
C286 C285 1.396 . S
C286 C287 1.399 . S
C287 H273 0.929 . S
C287 C286 1.399 . S
C287 C288 1.385 . S
C288 H274 0.931 . S
C288 C287 1.385 . S
C288 C289 1.389 . S
C289 C288 1.389 . S
C289 C290 1.387 . S
C290 H275 0.930 . S
C290 C285 1.390 . S
C290 C289 1.387 . S
H291 C303 0.930 . S
H292 C305 0.930 . S
H293 C306 0.930 . S
H294 C310 0.959 . S
H295 C310 0.959 . S
H296 C310 0.961 . S
H297 C311 0.960 . S
H298 C311 0.961 . S
H299 C311 0.959 . S
H300 C314 0.929 . S
H301 C315 0.931 . S
H302 C317 0.930 . S
C303 H291 0.930 . S
C303 C304 1.399 . S
C303 C308 1.399 . S
C304 C303 1.399 . S
C304 C305 1.376 . S
C305 H292 0.930 . S
C305 C304 1.376 . S
C305 C306 1.388 . S
C306 H293 0.930 . S
C306 C305 1.388 . S
C306 C307 1.390 . S
C307 C306 1.390 . S
C307 C308 1.394 . S
C307 C313 1.465 . S
C308 C303 1.399 . S
C308 C307 1.394 . S
C308 C309 1.516 . S
C309 C308 1.516 . S
C309 C310 1.502 . S
C309 C311 1.561 . S
C309 C312 1.526 . S
C310 H294 0.959 . S
C310 H295 0.959 . S
C310 H296 0.961 . S
C310 C309 1.502 . S
C311 H297 0.960 . S
C311 H298 0.961 . S
C311 H299 0.959 . S
C311 C309 1.561 . S
C312 C309 1.526 . S
C312 C313 1.396 . S
C312 C317 1.390 . S
C313 C307 1.465 . S
C313 C312 1.396 . S
C313 C314 1.399 . S
C314 H300 0.929 . S
C314 C313 1.399 . S
C314 C315 1.385 . S
C315 H301 0.931 . S
C315 C314 1.385 . S
C315 C316 1.389 . S
C316 C315 1.389 . S
C316 C317 1.387 . S
C317 H302 0.930 . S
C317 C312 1.390 . S
C317 C316 1.387 . S
H318 C330 0.930 . S
H319 C332 0.930 . S
H320 C333 0.930 . S
H321 C337 0.959 . S
H322 C337 0.959 . S
H323 C337 0.961 . S
H324 C338 0.960 . S
H325 C338 0.961 . S
H326 C338 0.959 . S
H327 C341 0.929 . S
H328 C342 0.931 . S
H329 C344 0.930 . S
C330 H318 0.930 . S
C330 C331 1.399 . S
C330 C335 1.399 . S
C331 C330 1.399 . S
C331 C332 1.376 . S
C332 H319 0.930 . S
C332 C331 1.376 . S
C332 C333 1.388 . S
C333 H320 0.930 . S
C333 C332 1.388 . S
C333 C334 1.390 . S
C334 C333 1.390 . S
C334 C335 1.394 . S
C334 C340 1.465 . S
C335 C330 1.399 . S
C335 C334 1.394 . S
C335 C336 1.516 . S
C336 C335 1.516 . S
C336 C337 1.502 . S
C336 C338 1.561 . S
C336 C339 1.526 . S
C337 H321 0.959 . S
C337 H322 0.959 . S
C337 H323 0.961 . S
C337 C336 1.502 . S
C338 H324 0.960 . S
C338 H325 0.961 . S
C338 H326 0.959 . S
C338 C336 1.561 . S
C339 C336 1.526 . S
C339 C340 1.396 . S
C339 C344 1.390 . S
C340 C334 1.465 . S
C340 C339 1.396 . S
C340 C341 1.399 . S
C341 H327 0.929 . S
C341 C340 1.399 . S
C341 C342 1.385 . S
C342 H328 0.931 . S
C342 C341 1.385 . S
C342 C343 1.389 . S
C343 C342 1.389 . S
C343 C344 1.387 . S
C344 H329 0.930 . S
C344 C339 1.390 . S
C344 C343 1.387 . S
H345 C357 0.930 . S
H346 C359 0.930 . S
H347 C360 0.930 . S
H348 C364 0.959 . S
H349 C364 0.959 . S
H350 C364 0.961 . S
H351 C365 0.960 . S
H352 C365 0.961 . S
H353 C365 0.959 . S
H354 C368 0.929 . S
H355 C369 0.931 . S
H356 C371 0.930 . S
C357 H345 0.930 . S
C357 C358 1.399 . S
C357 C362 1.399 . S
C358 C357 1.399 . S
C358 C359 1.376 . S
C359 H346 0.930 . S
C359 C358 1.376 . S
C359 C360 1.388 . S
C360 H347 0.930 . S
C360 C359 1.388 . S
C360 C361 1.390 . S
C361 C360 1.390 . S
C361 C362 1.394 . S
C361 C367 1.465 . S
C362 C357 1.399 . S
C362 C361 1.394 . S
C362 C363 1.516 . S
C363 C362 1.516 . S
C363 C364 1.502 . S
C363 C365 1.561 . S
C363 C366 1.526 . S
C364 H348 0.959 . S
C364 H349 0.959 . S
C364 H350 0.961 . S
C364 C363 1.502 . S
C365 H351 0.960 . S
C365 H352 0.961 . S
C365 H353 0.959 . S
C365 C363 1.561 . S
C366 C363 1.526 . S
C366 C367 1.396 . S
C366 C371 1.390 . S
C367 C361 1.465 . S
C367 C366 1.396 . S
C367 C368 1.399 . S
C368 H354 0.929 . S
C368 C367 1.399 . S
C368 C369 1.385 . S
C369 H355 0.931 . S
C369 C368 1.385 . S
C369 C370 1.389 . S
C370 C369 1.389 . S
C370 C371 1.387 . S
C371 H356 0.930 . S
C371 C366 1.390 . S
C371 C370 1.387 . S
H372 C384 0.930 . S
H373 C386 0.930 . S
H374 C387 0.930 . S
H375 C391 0.959 . S
H376 C391 0.959 . S
H377 C391 0.961 . S
H378 C392 0.960 . S
H379 C392 0.961 . S
H380 C392 0.959 . S
H381 C395 0.929 . S
H382 C396 0.931 . S
H383 C398 0.930 . S
C384 H372 0.930 . S
C384 C385 1.399 . S
C384 C389 1.399 . S
C385 C384 1.399 . S
C385 C386 1.376 . S
C386 H373 0.930 . S
C386 C385 1.376 . S
C386 C387 1.388 . S
C387 H374 0.930 . S
C387 C386 1.388 . S
C387 C388 1.390 . S
C388 C387 1.390 . S
C388 C389 1.394 . S
C388 C394 1.465 . S
C389 C384 1.399 . S
C389 C388 1.394 . S
C389 C390 1.516 . S
C390 C389 1.516 . S
C390 C391 1.502 . S
C390 C392 1.561 . S
C390 C393 1.526 . S
C391 H375 0.959 . S
C391 H376 0.959 . S
C391 H377 0.961 . S
C391 C390 1.502 . S
C392 H378 0.960 . S
C392 H379 0.961 . S
C392 H380 0.959 . S
C392 C390 1.561 . S
C393 C390 1.526 . S
C393 C394 1.396 . S
C393 C398 1.390 . S
C394 C388 1.465 . S
C394 C393 1.396 . S
C394 C395 1.399 . S
C395 H381 0.929 . S
C395 C394 1.399 . S
C395 C396 1.385 . S
C396 H382 0.931 . S
C396 C395 1.385 . S
C396 C397 1.389 . S
C397 C396 1.389 . S
C397 C398 1.387 . S
C398 H383 0.930 . S
C398 C393 1.390 . S
C398 C397 1.387 . S
H399 C411 0.930 . S
H400 C413 0.930 . S
H401 C414 0.930 . S
H402 C418 0.959 . S
H403 C418 0.959 . S
H404 C418 0.961 . S
H405 C419 0.960 . S
H406 C419 0.961 . S
H407 C419 0.959 . S
H408 C422 0.929 . S
H409 C423 0.931 . S
H410 C425 0.930 . S
C411 H399 0.930 . S
C411 C412 1.399 . S
C411 C416 1.399 . S
C412 C411 1.399 . S
C412 C413 1.376 . S
C413 H400 0.930 . S
C413 C412 1.376 . S
C413 C414 1.388 . S
C414 H401 0.930 . S
C414 C413 1.388 . S
C414 C415 1.390 . S
C415 C414 1.390 . S
C415 C416 1.394 . S
C415 C421 1.465 . S
C416 C411 1.399 . S
C416 C415 1.394 . S
C416 C417 1.516 . S
C417 C416 1.516 . S
C417 C418 1.502 . S
C417 C419 1.561 . S
C417 C420 1.526 . S
C418 H402 0.959 . S
C418 H403 0.959 . S
C418 H404 0.961 . S
C418 C417 1.502 . S
C419 H405 0.960 . S
C419 H406 0.961 . S
C419 H407 0.959 . S
C419 C417 1.561 . S
C420 C417 1.526 . S
C420 C421 1.396 . S
C420 C425 1.390 . S
C421 C415 1.465 . S
C421 C420 1.396 . S
C421 C422 1.399 . S
C422 H408 0.929 . S
C422 C421 1.399 . S
C422 C423 1.385 . S
C423 H409 0.931 . S
C423 C422 1.385 . S
C423 C424 1.389 . S
C424 C423 1.389 . S
C424 C425 1.387 . S
C425 H410 0.930 . S
C425 C420 1.390 . S
C425 C424 1.387 . S
H426 C438 0.930 . S
H427 C440 0.930 . S
H428 C441 0.930 . S
H429 C445 0.959 . S
H430 C445 0.959 . S
H431 C445 0.961 . S
H432 C446 0.960 . S
H433 C446 0.961 . S
H434 C446 0.959 . S
H435 C449 0.929 . S
H436 C450 0.931 . S
H437 C452 0.930 . S
C438 H426 0.930 . S
C438 C439 1.399 . S
C438 C443 1.399 . S
C439 C438 1.399 . S
C439 C440 1.376 . S
C440 H427 0.930 . S
C440 C439 1.376 . S
C440 C441 1.388 . S
C441 H428 0.930 . S
C441 C440 1.388 . S
C441 C442 1.390 . S
C442 C441 1.390 . S
C442 C443 1.394 . S
C442 C448 1.465 . S
C443 C438 1.399 . S
C443 C442 1.394 . S
C443 C444 1.516 . S
C444 C443 1.516 . S
C444 C445 1.502 . S
C444 C446 1.561 . S
C444 C447 1.526 . S
C445 H429 0.959 . S
C445 H430 0.959 . S
C445 H431 0.961 . S
C445 C444 1.502 . S
C446 H432 0.960 . S
C446 H433 0.961 . S
C446 H434 0.959 . S
C446 C444 1.561 . S
C447 C444 1.526 . S
C447 C448 1.396 . S
C447 C452 1.390 . S
C448 C442 1.465 . S
C448 C447 1.396 . S
C448 C449 1.399 . S
C449 H435 0.929 . S
C449 C448 1.399 . S
C449 C450 1.385 . S
C450 H436 0.931 . S
C450 C449 1.385 . S
C450 C451 1.389 . S
C451 C450 1.389 . S
C451 C452 1.387 . S
C452 H437 0.930 . S
C452 C447 1.390 . S
C452 C451 1.387 . S
H453 C465 0.930 . S
H454 C467 0.930 . S
H455 C468 0.930 . S
H456 C472 0.959 . S
H457 C472 0.959 . S
H458 C472 0.961 . S
H459 C473 0.960 . S
H460 C473 0.961 . S
H461 C473 0.959 . S
H462 C476 0.929 . S
H463 C477 0.931 . S
H464 C479 0.930 1_556 S
C465 H453 0.930 . S
C465 C466 1.399 . S
C465 C470 1.399 . S
C466 C465 1.399 . S
C466 C467 1.376 1_556 S
C467 H454 0.930 . S
C467 C466 1.376 1_554 S
C467 C468 1.388 . S
C468 H455 0.930 . S
C468 C467 1.388 . S
C468 C469 1.390 . S
C469 C468 1.390 . S
C469 C470 1.394 1_554 S
C469 C475 1.465 . S
C470 C465 1.399 . S
C470 C469 1.394 1_556 S
C470 C471 1.516 . S
C471 C470 1.516 . S
C471 C472 1.502 . S
C471 C473 1.561 . S
C471 C474 1.526 . S
C472 H456 0.959 . S
C472 H457 0.959 . S
C472 H458 0.961 . S
C472 C471 1.502 . S
C473 H459 0.960 . S
C473 H460 0.961 . S
C473 H461 0.959 . S
C473 C471 1.561 . S
C474 C471 1.526 . S
C474 C475 1.396 1_556 S
C474 C479 1.390 1_556 S
C475 C469 1.465 . S
C475 C474 1.396 1_554 S
C475 C476 1.399 . S
C476 H462 0.929 . S
C476 C475 1.399 . S
C476 C477 1.385 . S
C477 H463 0.931 . S
C477 C476 1.385 . S
C477 C478 1.389 . S
C478 C477 1.389 . S
C478 C479 1.387 . S
C479 H464 0.930 1_554 S
C479 C474 1.390 1_554 S
C479 C478 1.387 . S
H480 C492 0.930 . S
H481 C494 0.930 . S
H482 C495 0.930 . S
H483 C499 0.959 . S
H484 C499 0.959 . S
H485 C499 0.961 . S
H486 C500 0.960 . S
H487 C500 0.961 . S
H488 C500 0.959 . S
H489 C503 0.929 . S
H490 C504 0.931 1_554 S
H491 C506 0.930 . S
C492 H480 0.930 . S
C492 C493 1.399 . S
C492 C497 1.399 . S
C493 C492 1.399 . S
C493 C494 1.376 . S
C494 H481 0.930 . S
C494 C493 1.376 . S
C494 C495 1.388 . S
C495 H482 0.930 . S
C495 C494 1.388 . S
C495 C496 1.390 . S
C496 C495 1.390 . S
C496 C497 1.394 . S
C496 C502 1.465 . S
C497 C492 1.399 . S
C497 C496 1.394 . S
C497 C498 1.516 . S
C498 C497 1.516 . S
C498 C499 1.502 . S
C498 C500 1.561 . S
C498 C501 1.526 . S
C499 H483 0.959 . S
C499 H484 0.959 . S
C499 H485 0.961 . S
C499 C498 1.502 . S
C500 H486 0.960 . S
C500 H487 0.961 . S
C500 H488 0.959 . S
C500 C498 1.561 . S
C501 C498 1.526 . S
C501 C502 1.396 . S
C501 C506 1.390 . S
C502 C496 1.465 . S
C502 C501 1.396 . S
C502 C503 1.399 . S
C503 H489 0.929 . S
C503 C502 1.399 . S
C503 C504 1.385 . S
C504 H490 0.931 1_556 S
C504 C503 1.385 . S
C504 C505 1.389 . S
C505 C504 1.389 . S
C505 C506 1.387 . S
C506 H491 0.930 . S
C506 C501 1.390 . S
C506 C505 1.387 . S
H507 C519 0.930 . S
H508 C521 0.930 . S
H509 C522 0.930 . S
H510 C526 0.959 . S
H511 C526 0.959 . S
H512 C526 0.961 . S
H513 C527 0.960 1_556 S
H514 C527 0.961 . S
H515 C527 0.959 . S
H516 C530 0.929 . S
H517 C531 0.931 . S
H518 C533 0.930 . S
C519 H507 0.930 . S
C519 C520 1.399 . S
C519 C524 1.399 . S
C520 C519 1.399 . S
C520 C521 1.376 . S
C521 H508 0.930 . S
C521 C520 1.376 . S
C521 C522 1.388 . S
C522 H509 0.930 . S
C522 C521 1.388 . S
C522 C523 1.390 . S
C523 C522 1.390 . S
C523 C524 1.394 . S
C523 C529 1.465 1_556 S
C524 C519 1.399 . S
C524 C523 1.394 . S
C524 C525 1.516 . S
C525 C524 1.516 . S
C525 C526 1.502 . S
C525 C527 1.561 1_556 S
C525 C528 1.526 1_556 S
C526 H510 0.959 . S
C526 H511 0.959 . S
C526 H512 0.961 . S
C526 C525 1.502 . S
C527 H513 0.960 1_554 S
C527 H514 0.961 . S
C527 H515 0.959 . S
C527 C525 1.561 1_554 S
C528 C525 1.526 1_554 S
C528 C529 1.396 . S
C528 C533 1.390 . S
C529 C523 1.465 1_554 S
C529 C528 1.396 . S
C529 C530 1.399 . S
C530 H516 0.929 . S
C530 C529 1.399 . S
C530 C531 1.385 . S
C531 H517 0.931 . S
C531 C530 1.385 . S
C531 C532 1.389 . S
C532 C531 1.389 . S
C532 C533 1.387 . S
C533 H518 0.930 . S
C533 C528 1.390 . S
C533 C532 1.387 . S
H534 C546 0.930 . S
H535 C548 0.930 . S
H536 C549 0.930 . S
H537 C553 0.959 . S
H538 C553 0.959 . S
H539 C553 0.961 . S
H540 C554 0.960 . S
H541 C554 0.961 . S
H542 C554 0.959 . S
H543 C557 0.929 . S
H544 C558 0.931 . S
H545 C560 0.930 . S
C546 H534 0.930 . S
C546 C547 1.399 . S
C546 C551 1.399 . S
C547 C546 1.399 . S
C547 C548 1.376 . S
C548 H535 0.930 . S
C548 C547 1.376 . S
C548 C549 1.388 . S
C549 H536 0.930 . S
C549 C548 1.388 . S
C549 C550 1.390 . S
C550 C549 1.390 . S
C550 C551 1.394 . S
C550 C556 1.465 . S
C551 C546 1.399 . S
C551 C550 1.394 . S
C551 C552 1.516 . S
C552 C551 1.516 . S
C552 C553 1.502 . S
C552 C554 1.561 . S
C552 C555 1.526 . S
C553 H537 0.959 . S
C553 H538 0.959 . S
C553 H539 0.961 . S
C553 C552 1.502 . S
C554 H540 0.960 . S
C554 H541 0.961 . S
C554 H542 0.959 . S
C554 C552 1.561 . S
C555 C552 1.526 . S
C555 C556 1.396 . S
C555 C560 1.390 . S
C556 C550 1.465 . S
C556 C555 1.396 . S
C556 C557 1.399 . S
C557 H543 0.929 . S
C557 C556 1.399 . S
C557 C558 1.385 . S
C558 H544 0.931 . S
C558 C557 1.385 . S
C558 C559 1.389 . S
C559 C558 1.389 . S
C559 C560 1.387 . S
C560 H545 0.930 . S
C560 C555 1.390 . S
C560 C559 1.387 . S
H561 C573 0.930 . S
H562 C575 0.930 . S
H563 C576 0.930 . S
H564 C580 0.959 . S
H565 C580 0.959 . S
H566 C580 0.961 . S
H567 C581 0.960 . S
H568 C581 0.961 . S
H569 C581 0.959 . S
H570 C584 0.929 . S
H571 C585 0.931 . S
H572 C587 0.930 . S
C573 H561 0.930 . S
C573 C574 1.399 . S
C573 C578 1.399 . S
C574 C573 1.399 . S
C574 C575 1.376 . S
C575 H562 0.930 . S
C575 C574 1.376 . S
C575 C576 1.388 . S
C576 H563 0.930 . S
C576 C575 1.388 . S
C576 C577 1.390 . S
C577 C576 1.390 . S
C577 C578 1.394 . S
C577 C583 1.465 . S
C578 C573 1.399 . S
C578 C577 1.394 . S
C578 C579 1.516 . S
C579 C578 1.516 . S
C579 C580 1.502 . S
C579 C581 1.561 . S
C579 C582 1.526 . S
C580 H564 0.959 . S
C580 H565 0.959 . S
C580 H566 0.961 . S
C580 C579 1.502 . S
C581 H567 0.960 . S
C581 H568 0.961 . S
C581 H569 0.959 . S
C581 C579 1.561 . S
C582 C579 1.526 . S
C582 C583 1.396 . S
C582 C587 1.390 . S
C583 C577 1.465 . S
C583 C582 1.396 . S
C583 C584 1.399 . S
C584 H570 0.929 . S
C584 C583 1.399 . S
C584 C585 1.385 . S
C585 H571 0.931 . S
C585 C584 1.385 . S
C585 C586 1.389 . S
C586 C585 1.389 . S
C586 C587 1.387 . S
C587 H572 0.930 . S
C587 C582 1.390 . S
C587 C586 1.387 . S
H588 C600 0.930 . S
H589 C602 0.930 . S
H590 C603 0.930 . S
H591 C607 0.959 . S
H592 C607 0.959 . S
H593 C607 0.961 . S
H594 C608 0.960 . S
H595 C608 0.961 . S
H596 C608 0.959 . S
H597 C611 0.929 . S
H598 C612 0.931 . S
H599 C614 0.930 . S
C600 H588 0.930 . S
C600 C601 1.399 . S
C600 C605 1.399 . S
C601 C600 1.399 . S
C601 C602 1.376 . S
C602 H589 0.930 . S
C602 C601 1.376 . S
C602 C603 1.388 . S
C603 H590 0.930 . S
C603 C602 1.388 . S
C603 C604 1.390 . S
C604 C603 1.390 . S
C604 C605 1.394 . S
C604 C610 1.465 . S
C605 C600 1.399 . S
C605 C604 1.394 . S
C605 C606 1.516 . S
C606 C605 1.516 . S
C606 C607 1.502 . S
C606 C608 1.561 . S
C606 C609 1.526 . S
C607 H591 0.959 . S
C607 H592 0.959 . S
C607 H593 0.961 . S
C607 C606 1.502 . S
C608 H594 0.960 . S
C608 H595 0.961 . S
C608 H596 0.959 . S
C608 C606 1.561 . S
C609 C606 1.526 . S
C609 C610 1.396 . S
C609 C614 1.390 . S
C610 C604 1.465 . S
C610 C609 1.396 . S
C610 C611 1.399 . S
C611 H597 0.929 . S
C611 C610 1.399 . S
C611 C612 1.385 . S
C612 H598 0.931 . S
C612 C611 1.385 . S
C612 C613 1.389 . S
C613 C612 1.389 . S
C613 C614 1.387 . S
C614 H599 0.930 . S
C614 C609 1.390 . S
C614 C613 1.387 . S
H615 C627 0.930 . S
H616 C629 0.930 . S
H617 C630 0.930 . S
H618 C634 0.959 . S
H619 C634 0.959 . S
H620 C634 0.961 . S
H621 C635 0.960 . S
H622 C635 0.961 . S
H623 C635 0.959 . S
H624 C638 0.929 . S
H625 C639 0.931 . S
H626 C641 0.930 . S
C627 H615 0.930 . S
C627 C628 1.399 . S
C627 C632 1.399 . S
C628 C627 1.399 . S
C628 C629 1.376 . S
C629 H616 0.930 . S
C629 C628 1.376 . S
C629 C630 1.388 . S
C630 H617 0.930 . S
C630 C629 1.388 . S
C630 C631 1.390 . S
C631 C630 1.390 . S
C631 C632 1.394 . S
C631 C637 1.465 . S
C632 C627 1.399 . S
C632 C631 1.394 . S
C632 C633 1.516 . S
C633 C632 1.516 . S
C633 C634 1.502 . S
C633 C635 1.561 . S
C633 C636 1.526 . S
C634 H618 0.959 . S
C634 H619 0.959 . S
C634 H620 0.961 . S
C634 C633 1.502 . S
C635 H621 0.960 . S
C635 H622 0.961 . S
C635 H623 0.959 . S
C635 C633 1.561 . S
C636 C633 1.526 . S
C636 C637 1.396 . S
C636 C641 1.390 . S
C637 C631 1.465 . S
C637 C636 1.396 . S
C637 C638 1.399 . S
C638 H624 0.929 . S
C638 C637 1.399 . S
C638 C639 1.385 . S
C639 H625 0.931 . S
C639 C638 1.385 . S
C639 C640 1.389 . S
C640 C639 1.389 . S
C640 C641 1.387 . S
C641 H626 0.930 . S
C641 C636 1.390 . S
C641 C640 1.387 . S
H642 C654 0.930 . S
H643 C656 0.930 . S
H644 C657 0.930 . S
H645 C661 0.957 . S
H646 C661 0.973 . S
H647 C661 0.937 1_545 S
H648 C662 0.962 1_545 S
H649 C662 0.960 . S
H650 C662 0.958 . S
H651 C665 0.929 . S
H652 C666 0.931 . S
H653 C668 0.930 . S
C654 H642 0.930 . S
C654 C655 1.399 . S
C654 C659 1.399 . S
C655 C654 1.399 . S
C655 C656 1.376 . S
C656 H643 0.930 . S
C656 C655 1.376 . S
C656 C657 1.388 . S
C657 H644 0.930 . S
C657 C656 1.388 . S
C657 C658 1.390 . S
C658 C657 1.390 . S
C658 C659 1.394 . S
C658 C664 1.465 1_545 S
C659 C654 1.399 . S
C659 C658 1.394 . S
C659 C660 1.518 1_545 S
C660 C659 1.518 1_565 S
C660 C661 1.517 . S
C660 C662 1.561 1_554 S
C660 C663 1.522 . S
C661 H645 0.957 . S
C661 H646 0.973 . S
C661 H647 0.937 1_565 S
C661 C660 1.517 . S
C662 H648 0.962 1_565 S
C662 H649 0.960 . S
C662 H650 0.958 . S
C662 C660 1.561 1_556 S
C663 C660 1.522 . S
C663 C664 1.396 . S
C663 C668 1.390 . S
C664 C658 1.465 1_565 S
C664 C663 1.396 . S
C664 C665 1.399 . S
C665 H651 0.929 . S
C665 C664 1.399 . S
C665 C666 1.385 . S
C666 H652 0.931 . S
C666 C665 1.385 . S
C666 C667 1.389 . S
C667 C666 1.389 . S
C667 C668 1.387 . S
C668 H653 0.930 . S
C668 C663 1.390 . S
C668 C667 1.387 . S
H669 C681 0.930 . S
H670 C683 0.930 . S
H671 C684 0.930 . S
H672 C688 0.959 . S
H673 C688 0.959 . S
H674 C688 0.961 . S
H675 C689 0.960 . S
H676 C689 0.961 . S
H677 C689 0.959 . S
H678 C692 0.929 . S
H679 C693 0.931 . S
H680 C695 0.930 . S
C681 H669 0.930 . S
C681 C682 1.399 . S
C681 C686 1.399 . S
C682 C681 1.399 . S
C682 C683 1.376 . S
C683 H670 0.930 . S
C683 C682 1.376 . S
C683 C684 1.388 . S
C684 H671 0.930 . S
C684 C683 1.388 . S
C684 C685 1.390 . S
C685 C684 1.390 . S
C685 C686 1.394 . S
C685 C691 1.465 . S
C686 C681 1.399 . S
C686 C685 1.394 . S
C686 C687 1.516 . S
C687 C686 1.516 . S
C687 C688 1.502 . S
C687 C689 1.561 . S
C687 C690 1.526 . S
C688 H672 0.959 . S
C688 H673 0.959 . S
C688 H674 0.961 . S
C688 C687 1.502 . S
C689 H675 0.960 . S
C689 H676 0.961 . S
C689 H677 0.959 . S
C689 C687 1.561 . S
C690 C687 1.526 . S
C690 C691 1.396 . S
C690 C695 1.390 . S
C691 C685 1.465 . S
C691 C690 1.396 . S
C691 C692 1.399 . S
C692 H678 0.929 . S
C692 C691 1.399 . S
C692 C693 1.385 . S
C693 H679 0.931 . S
C693 C692 1.385 . S
C693 C694 1.389 . S
C694 C693 1.389 . S
C694 C695 1.387 . S
C695 H680 0.930 . S
C695 C690 1.390 . S
C695 C694 1.387 . S
H696 C708 0.930 . S
H697 C710 0.930 . S
H698 C711 0.930 . S
H699 C715 0.951 . S
H700 C715 0.977 . S
H701 C715 0.944 1_455 S
H702 C716 0.961 1_455 S
H703 C716 0.960 . S
H704 C716 0.959 . S
H705 C719 0.929 . S
H706 C720 0.931 . S
H707 C722 0.930 . S
C708 H696 0.930 . S
C708 C709 1.399 . S
C708 C713 1.399 . S
C709 C708 1.399 . S
C709 C710 1.376 . S
C710 H697 0.930 . S
C710 C709 1.376 . S
C710 C711 1.388 . S
C711 H698 0.930 . S
C711 C710 1.388 . S
C711 C712 1.390 . S
C712 C711 1.390 . S
C712 C713 1.394 . S
C712 C718 1.465 1_455 S
C713 C708 1.399 . S
C713 C712 1.394 . S
C713 C714 1.519 1_455 S
C714 C713 1.519 1_655 S
C714 C715 1.511 . S
C714 C716 1.560 . S
C714 C717 1.523 . S
C715 H699 0.951 . S
C715 H700 0.977 . S
C715 H701 0.944 1_655 S
C715 C714 1.511 . S
C716 H702 0.961 1_655 S
C716 H703 0.960 . S
C716 H704 0.959 . S
C716 C714 1.560 . S
C717 C714 1.523 . S
C717 C718 1.396 . S
C717 C722 1.390 . S
C718 C712 1.465 1_655 S
C718 C717 1.396 . S
C718 C719 1.399 . S
C719 H705 0.929 . S
C719 C718 1.399 . S
C719 C720 1.385 . S
C720 H706 0.931 . S
C720 C719 1.385 . S
C720 C721 1.389 . S
C721 C720 1.389 . S
C721 C722 1.387 . S
C722 H707 0.930 . S
C722 C717 1.390 . S
C722 C721 1.387 . S
H723 C735 0.930 . S
H724 C737 0.930 . S
H725 C738 0.930 . S
H726 C742 0.952 . S
H727 C742 0.976 . S
H728 C742 0.941 1_565 S
H729 C743 0.961 1_565 S
H730 C743 0.960 . S
H731 C743 0.958 . S
H732 C746 0.929 . S
H733 C747 0.931 . S
H734 C749 0.930 . S
C735 H723 0.930 . S
C735 C736 1.399 . S
C735 C740 1.399 . S
C736 C735 1.399 . S
C736 C737 1.376 . S
C737 H724 0.930 . S
C737 C736 1.376 . S
C737 C738 1.388 . S
C738 H725 0.930 . S
C738 C737 1.388 . S
C738 C739 1.390 . S
C739 C738 1.390 . S
C739 C740 1.394 . S
C739 C745 1.465 1_565 S
C740 C735 1.399 . S
C740 C739 1.394 . S
C740 C741 1.519 1_565 S
C741 C740 1.519 1_545 S
C741 C742 1.514 . S
C741 C743 1.560 . S
C741 C744 1.523 . S
C742 H726 0.952 . S
C742 H727 0.976 . S
C742 H728 0.941 1_545 S
C742 C741 1.514 . S
C743 H729 0.961 1_545 S
C743 H730 0.960 . S
C743 H731 0.958 . S
C743 C741 1.560 . S
C744 C741 1.523 . S
C744 C745 1.396 . S
C744 C749 1.390 . S
C745 C739 1.465 1_545 S
C745 C744 1.396 . S
C745 C746 1.399 . S
C746 H732 0.929 . S
C746 C745 1.399 . S
C746 C747 1.385 . S
C747 H733 0.931 . S
C747 C746 1.385 . S
C747 C748 1.389 . S
C748 C747 1.389 . S
C748 C749 1.387 . S
C749 H734 0.930 . S
C749 C744 1.390 . S
C749 C748 1.387 . S
H750 C762 0.930 . S
H751 C764 0.930 . S
H752 C765 0.930 . S
H753 C769 0.959 . S
H754 C769 0.959 . S
H755 C769 0.961 . S
H756 C770 0.960 . S
H757 C770 0.961 . S
H758 C770 0.959 . S
H759 C773 0.929 . S
H760 C774 0.931 . S
H761 C776 0.930 . S
C762 H750 0.930 . S
C762 C763 1.399 . S
C762 C767 1.399 . S
C763 C762 1.399 . S
C763 C764 1.376 . S
C764 H751 0.930 . S
C764 C763 1.376 . S
C764 C765 1.388 . S
C765 H752 0.930 . S
C765 C764 1.388 . S
C765 C766 1.390 . S
C766 C765 1.390 . S
C766 C767 1.394 . S
C766 C772 1.465 . S
C767 C762 1.399 . S
C767 C766 1.394 . S
C767 C768 1.516 . S
C768 C767 1.516 . S
C768 C769 1.502 . S
C768 C770 1.561 . S
C768 C771 1.526 . S
C769 H753 0.959 . S
C769 H754 0.959 . S
C769 H755 0.961 . S
C769 C768 1.502 . S
C770 H756 0.960 . S
C770 H757 0.961 . S
C770 H758 0.959 . S
C770 C768 1.561 . S
C771 C768 1.526 . S
C771 C772 1.396 . S
C771 C776 1.390 . S
C772 C766 1.465 . S
C772 C771 1.396 . S
C772 C773 1.399 . S
C773 H759 0.929 . S
C773 C772 1.399 . S
C773 C774 1.385 . S
C774 H760 0.931 . S
C774 C773 1.385 . S
C774 C775 1.389 . S
C775 C774 1.389 . S
C775 C776 1.387 . S
C776 H761 0.930 . S
C776 C771 1.390 . S
C776 C775 1.387 . S
H777 C789 0.930 . S
H778 C791 0.930 . S
H779 C792 0.930 1_554 S
H780 C796 0.970 . S
H781 C796 0.977 . S
H782 C796 0.945 1_455 S
H783 C797 0.961 1_455 S
H784 C797 0.960 . S
H785 C797 0.959 . S
H786 C800 0.929 1_554 S
H787 C801 0.933 . S
H788 C803 0.930 . S
C789 H777 0.930 . S
C789 C790 1.399 . S
C789 C794 1.399 . S
C790 C789 1.399 . S
C790 C791 1.376 . S
C791 H778 0.930 . S
C791 C790 1.376 . S
C791 C792 1.388 . S
C792 H779 0.930 1_556 S
C792 C791 1.388 . S
C792 C793 1.390 . S
C793 C792 1.390 . S
C793 C794 1.394 . S
C793 C799 1.465 1_455 S
C794 C789 1.399 . S
C794 C793 1.394 . S
C794 C795 1.519 1_455 S
C795 C794 1.519 1_655 S
C795 C796 1.488 . S
C795 C797 1.562 . S
C795 C798 1.523 . S
C796 H780 0.970 . S
C796 H781 0.977 . S
C796 H782 0.945 1_655 S
C796 C795 1.488 . S
C797 H783 0.961 1_655 S
C797 H784 0.960 . S
C797 H785 0.959 . S
C797 C795 1.562 . S
C798 C795 1.523 . S
C798 C799 1.396 . S
C798 C803 1.390 . S
C799 C793 1.465 1_655 S
C799 C798 1.396 . S
C799 C800 1.399 . S
C800 H786 0.929 1_556 S
C800 C799 1.399 . S
C800 C801 1.385 . S
C801 H787 0.933 . S
C801 C800 1.385 . S
C801 C802 1.389 . S
C802 C801 1.389 . S
C802 C803 1.387 . S
C803 H788 0.930 . S
C803 C798 1.390 . S
C803 C802 1.387 . S
C169 C8 1.296 . S
C181 C138 1.301 . S
C196 C21 1.294 . S
C208 C151 1.289 . S
C223 C86 1.309 . S
C235 C34 1.312 . S
C250 C47 1.307 . S
C262 C99 1.311 . S
C277 C112 1.311 . S
C289 C60 1.307 . S
C304 C125 1.258 . S
C316 C73 1.264 . S
C331 C104 1.167 . S
C343 C0 1.201 . S
C358 C13 1.204 . S
C370 C117 1.224 . S
C385 C130 1.218 . S
C397 C26 1.188 . S
C412 C39 1.192 . S
C424 C143 1.220 . S
C439 C52 1.168 . S
C451 C78 1.153 . S
C466 C65 1.222 . S
C478 C91 1.195 . S
C493 C140 1.606 . S
C505 C10 1.567 1_556 S
C520 C153 1.614 . S
C532 C23 1.590 . S
C547 C88 1.586 1_554 S
C559 C36 1.616 . S
C574 C49 1.569 . S
C586 C101 1.599 . S
C601 C62 1.598 . S
C613 C114 1.608 . S
C628 C127 1.616 . S
C640 C75 1.587 . S
C655 C5 1.096 . S
C667 C96 1.091 . S
C682 C109 1.118 . S
C694 C18 1.110 . S
C709 C122 1.135 . S
C721 C31 1.125 . S
C736 C44 1.118 . S
C748 C135 1.110 . S
C763 C57 1.143 . S
C775 C148 1.133 . S
C790 C70 1.112 . S
C802 C83 1.104 . S
