# Generated by pormake.
# Topology smq, (6)-cn, num edge types: 1
# Building blocks:
#     Node 0, Type 0, BuildingBlock: IZENUY_clean_sbu_0, # of connection points: 6
#     Node 1, Type 0, BuildingBlock: IZENUY_clean_sbu_0, # of connection points: 6
#     Node 2, Type 0, BuildingBlock: IZENUY_clean_sbu_0, # of connection points: 6
#     Node 3, Type 0, BuildingBlock: IZENUY_clean_sbu_0, # of connection points: 6
#     Node 4, Type 0, BuildingBlock: IZENUY_clean_sbu_0, # of connection points: 6
#     Node 5, Type 0, BuildingBlock: IZENUY_clean_sbu_0, # of connection points: 6
#     Node 6, Type 0, BuildingBlock: IZENUY_clean_sbu_0, # of connection points: 6
#     Node 7, Type 0, BuildingBlock: IZENUY_clean_sbu_0, # of connection points: 6
#     Node 8, Type 0, BuildingBlock: IZENUY_clean_sbu_0, # of connection points: 6
#     Node 9, Type 0, BuildingBlock: IZENUY_clean_sbu_0, # of connection points: 6
#     Node 10, Type 0, BuildingBlock: IZENUY_clean_sbu_0, # of connection points: 6
#     Node 11, Type 0, BuildingBlock: IZENUY_clean_sbu_0, # of connection points: 6
#     Node 12, Type 0, BuildingBlock: IZENUY_clean_sbu_0, # of connection points: 6
#     Node 13, Type 0, BuildingBlock: IZENUY_clean_sbu_0, # of connection points: 6
#     Node 14, Type 0, BuildingBlock: IZENUY_clean_sbu_0, # of connection points: 6
#     Node 15, Type 0, BuildingBlock: IZENUY_clean_sbu_0, # of connection points: 6
#     Node 16, Type 0, BuildingBlock: IZENUY_clean_sbu_0, # of connection points: 6
#     Node 17, Type 0, BuildingBlock: IZENUY_clean_sbu_0, # of connection points: 6
#     Node 18, Type 0, BuildingBlock: IZENUY_clean_sbu_0, # of connection points: 6
#     Node 19, Type 0, BuildingBlock: IZENUY_clean_sbu_0, # of connection points: 6
#     Node 20, Type 0, BuildingBlock: IZENUY_clean_sbu_0, # of connection points: 6
#     Node 21, Type 0, BuildingBlock: IZENUY_clean_sbu_0, # of connection points: 6
#     Node 22, Type 0, BuildingBlock: IZENUY_clean_sbu_0, # of connection points: 6
#     Node 23, Type 0, BuildingBlock: IZENUY_clean_sbu_0, # of connection points: 6
#     Edge 24, Type (0, 0), BuildingBlock: UVAHIK_clean_linker_0, # of connection points: 2
#     Edge 25, Type (0, 0), BuildingBlock: UVAHIK_clean_linker_0, # of connection points: 2
#     Edge 26, Type (0, 0), BuildingBlock: UVAHIK_clean_linker_0, # of connection points: 2
#     Edge 27, Type (0, 0), BuildingBlock: UVAHIK_clean_linker_0, # of connection points: 2
#     Edge 28, Type (0, 0), BuildingBlock: UVAHIK_clean_linker_0, # of connection points: 2
#     Edge 29, Type (0, 0), BuildingBlock: UVAHIK_clean_linker_0, # of connection points: 2
#     Edge 30, Type (0, 0), BuildingBlock: UVAHIK_clean_linker_0, # of connection points: 2
#     Edge 31, Type (0, 0), BuildingBlock: UVAHIK_clean_linker_0, # of connection points: 2
#     Edge 32, Type (0, 0), BuildingBlock: UVAHIK_clean_linker_0, # of connection points: 2
#     Edge 33, Type (0, 0), BuildingBlock: UVAHIK_clean_linker_0, # of connection points: 2
#     Edge 34, Type (0, 0), BuildingBlock: UVAHIK_clean_linker_0, # of connection points: 2
#     Edge 35, Type (0, 0), BuildingBlock: UVAHIK_clean_linker_0, # of connection points: 2
#     Edge 36, Type (0, 0), BuildingBlock: UVAHIK_clean_linker_0, # of connection points: 2
#     Edge 37, Type (0, 0), BuildingBlock: UVAHIK_clean_linker_0, # of connection points: 2
#     Edge 38, Type (0, 0), BuildingBlock: UVAHIK_clean_linker_0, # of connection points: 2
#     Edge 39, Type (0, 0), BuildingBlock: UVAHIK_clean_linker_0, # of connection points: 2
#     Edge 40, Type (0, 0), BuildingBlock: UVAHIK_clean_linker_0, # of connection points: 2
#     Edge 41, Type (0, 0), BuildingBlock: UVAHIK_clean_linker_0, # of connection points: 2
#     Edge 42, Type (0, 0), BuildingBlock: UVAHIK_clean_linker_0, # of connection points: 2
#     Edge 43, Type (0, 0), BuildingBlock: UVAHIK_clean_linker_0, # of connection points: 2
#     Edge 44, Type (0, 0), BuildingBlock: UVAHIK_clean_linker_0, # of connection points: 2
#     Edge 45, Type (0, 0), BuildingBlock: UVAHIK_clean_linker_0, # of connection points: 2
#     Edge 46, Type (0, 0), BuildingBlock: UVAHIK_clean_linker_0, # of connection points: 2
#     Edge 47, Type (0, 0), BuildingBlock: UVAHIK_clean_linker_0, # of connection points: 2
#     Edge 48, Type (0, 0), BuildingBlock: UVAHIK_clean_linker_0, # of connection points: 2
#     Edge 49, Type (0, 0), BuildingBlock: UVAHIK_clean_linker_0, # of connection points: 2
#     Edge 50, Type (0, 0), BuildingBlock: UVAHIK_clean_linker_0, # of connection points: 2
#     Edge 51, Type (0, 0), BuildingBlock: UVAHIK_clean_linker_0, # of connection points: 2
#     Edge 52, Type (0, 0), BuildingBlock: UVAHIK_clean_linker_0, # of connection points: 2
#     Edge 53, Type (0, 0), BuildingBlock: UVAHIK_clean_linker_0, # of connection points: 2
#     Edge 54, Type (0, 0), BuildingBlock: UVAHIK_clean_linker_0, # of connection points: 2
#     Edge 55, Type (0, 0), BuildingBlock: UVAHIK_clean_linker_0, # of connection points: 2
#     Edge 56, Type (0, 0), BuildingBlock: UVAHIK_clean_linker_0, # of connection points: 2
#     Edge 57, Type (0, 0), BuildingBlock: UVAHIK_clean_linker_0, # of connection points: 2
#     Edge 58, Type (0, 0), BuildingBlock: UVAHIK_clean_linker_0, # of connection points: 2
#     Edge 59, Type (0, 0), BuildingBlock: UVAHIK_clean_linker_0, # of connection points: 2
#     Edge 60, Type (0, 0), BuildingBlock: UVAHIK_clean_linker_0, # of connection points: 2
#     Edge 61, Type (0, 0), BuildingBlock: UVAHIK_clean_linker_0, # of connection points: 2
#     Edge 62, Type (0, 0), BuildingBlock: UVAHIK_clean_linker_0, # of connection points: 2
#     Edge 63, Type (0, 0), BuildingBlock: UVAHIK_clean_linker_0, # of connection points: 2
#     Edge 64, Type (0, 0), BuildingBlock: UVAHIK_clean_linker_0, # of connection points: 2
#     Edge 65, Type (0, 0), BuildingBlock: UVAHIK_clean_linker_0, # of connection points: 2
#     Edge 66, Type (0, 0), BuildingBlock: UVAHIK_clean_linker_0, # of connection points: 2
#     Edge 67, Type (0, 0), BuildingBlock: UVAHIK_clean_linker_0, # of connection points: 2
#     Edge 68, Type (0, 0), BuildingBlock: UVAHIK_clean_linker_0, # of connection points: 2
#     Edge 69, Type (0, 0), BuildingBlock: UVAHIK_clean_linker_0, # of connection points: 2
#     Edge 70, Type (0, 0), BuildingBlock: UVAHIK_clean_linker_0, # of connection points: 2
#     Edge 71, Type (0, 0), BuildingBlock: UVAHIK_clean_linker_0, # of connection points: 2
#     Edge 72, Type (0, 0), BuildingBlock: UVAHIK_clean_linker_0, # of connection points: 2
#     Edge 73, Type (0, 0), BuildingBlock: UVAHIK_clean_linker_0, # of connection points: 2
#     Edge 74, Type (0, 0), BuildingBlock: UVAHIK_clean_linker_0, # of connection points: 2
#     Edge 75, Type (0, 0), BuildingBlock: UVAHIK_clean_linker_0, # of connection points: 2
#     Edge 76, Type (0, 0), BuildingBlock: UVAHIK_clean_linker_0, # of connection points: 2
#     Edge 77, Type (0, 0), BuildingBlock: UVAHIK_clean_linker_0, # of connection points: 2
#     Edge 78, Type (0, 0), BuildingBlock: UVAHIK_clean_linker_0, # of connection points: 2
#     Edge 79, Type (0, 0), BuildingBlock: UVAHIK_clean_linker_0, # of connection points: 2
#     Edge 80, Type (0, 0), BuildingBlock: UVAHIK_clean_linker_0, # of connection points: 2
#     Edge 81, Type (0, 0), BuildingBlock: UVAHIK_clean_linker_0, # of connection points: 2
#     Edge 82, Type (0, 0), BuildingBlock: UVAHIK_clean_linker_0, # of connection points: 2
#     Edge 83, Type (0, 0), BuildingBlock: UVAHIK_clean_linker_0, # of connection points: 2
#     Edge 84, Type (0, 0), BuildingBlock: UVAHIK_clean_linker_0, # of connection points: 2
#     Edge 85, Type (0, 0), BuildingBlock: UVAHIK_clean_linker_0, # of connection points: 2
#     Edge 86, Type (0, 0), BuildingBlock: UVAHIK_clean_linker_0, # of connection points: 2
#     Edge 87, Type (0, 0), BuildingBlock: UVAHIK_clean_linker_0, # of connection points: 2
#     Edge 88, Type (0, 0), BuildingBlock: UVAHIK_clean_linker_0, # of connection points: 2
#     Edge 89, Type (0, 0), BuildingBlock: UVAHIK_clean_linker_0, # of connection points: 2
#     Edge 90, Type (0, 0), BuildingBlock: UVAHIK_clean_linker_0, # of connection points: 2
#     Edge 91, Type (0, 0), BuildingBlock: UVAHIK_clean_linker_0, # of connection points: 2
#     Edge 92, Type (0, 0), BuildingBlock: UVAHIK_clean_linker_0, # of connection points: 2
#     Edge 93, Type (0, 0), BuildingBlock: UVAHIK_clean_linker_0, # of connection points: 2
#     Edge 94, Type (0, 0), BuildingBlock: UVAHIK_clean_linker_0, # of connection points: 2
#     Edge 95, Type (0, 0), BuildingBlock: UVAHIK_clean_linker_0, # of connection points: 2
# Relax obj value: 0.236
# Max RMSD: 0.213
# Mean RMSD: 0.213
data_MOF--net-smq--node1-IZENUY_clean_sbu_0--edge1-UVAHIK_clean_linker_0
_symmetry_space_group_name_H-M    P1
_symmetry_Int_Tables_number       1
_symmetry_cell_setting            triclinic
loop_
_symmetry_equiv_pos_as_xyz
'x, y, z'
_cell_length_a     57.882982
_cell_length_b     57.890891
_cell_length_c     57.971341
_cell_angle_alpha  89.976689
_cell_angle_beta   89.92505
_cell_angle_gamma 90.000808
loop_
_atom_site_label
_atom_site_type_symbol
_atom_site_fract_x
_atom_site_fract_y
_atom_site_fract_z
_atom_type_partial_charge
Fe0 Fe -0.00157 0.18814 0.28494 0.0
Fe1 Fe 0.98976 0.19335 0.23328 0.0
O2 O 0.99555 0.20597 0.26039 0.0
Fe3 Fe -0.0015 0.2363 0.26271 0.0
O4 O 0.0198 0.23525 0.28621 0.0
O5 O 0.02738 0.19827 0.29009 0.0
O6 O 0.01173 0.16395 0.26911 0.0
C7 C 0.02279 0.16438 0.2502 0.0
C8 C 0.97278 0.22633 0.30098 0.0
O9 O 0.01669 0.17767 0.2341 0.0
C10 C 0.96125 0.23045 0.23136 0.0
O11 O 0.96949 0.17695 0.28149 0.0
O12 O 0.97347 0.16869 0.24485 0.0
O13 O 0.97458 0.23799 0.2827 0.0
O14 O 0.98584 0.20922 0.30489 0.0
C15 C 0.02134 0.22871 0.2225 0.0
O16 O 0.9627 0.2087 0.23123 0.0
O17 O 0.9775 0.24267 0.2396 0.0
C18 C 0.96241 0.16698 0.2636 0.0
O19 O 0.00494 0.21557 0.21656 0.0
O20 O 0.02273 0.23631 0.2428 0.0
C21 C 0.033 0.21908 0.2928 0.0
Fe22 Fe 0.31051 0.49895 0.78326 0.0
Fe23 Fe 0.30612 0.49251 0.73117 0.0
O24 O 0.29302 0.49588 0.75847 0.0
Fe25 Fe 0.26249 0.49616 0.76092 0.0
O26 O 0.26195 0.51623 0.78549 0.0
O27 O 0.29818 0.52683 0.7895 0.0
O28 O 0.33386 0.51458 0.76834 0.0
C29 C 0.33295 0.52635 0.74992 0.0
C30 C 0.27449 0.46964 0.79789 0.0
O31 O 0.3201 0.52023 0.73353 0.0
C32 C 0.27106 0.46156 0.72736 0.0
O33 O 0.32378 0.4711 0.77854 0.0
O34 O 0.33162 0.47704 0.74201 0.0
O35 O 0.2629 0.47115 0.77956 0.0
O36 O 0.2903 0.48402 0.8025 0.0
C37 C 0.26855 0.52225 0.72235 0.0
O38 O 0.29261 0.46467 0.72729 0.0
O39 O 0.25766 0.47618 0.73667 0.0
C40 C 0.33399 0.4653 0.76028 0.0
O41 O 0.28311 0.50747 0.71541 0.0
O42 O 0.26026 0.52122 0.74242 0.0
C43 C 0.27695 0.53072 0.79215 0.0
Fe44 Fe -0.00245 0.7611 0.25938 0.0
Fe45 Fe 0.9912 0.80692 0.28521 0.0
O46 O 0.99468 0.79152 0.25911 0.0
Fe47 Fe 0.99532 0.80675 0.23275 0.0
O48 O 0.9825 0.78337 0.2158 0.0
O49 O 0.9722 0.75734 0.24136 0.0
O50 O 0.97856 0.75688 0.28449 0.0
C51 C 0.96312 0.76995 0.29288 0.0
C52 C 0.02991 0.77566 0.22566 0.0
O53 O 0.96485 0.7916 0.29162 0.0
C54 C 0.02133 0.83492 0.26243 0.0
O55 O 0.02312 0.76285 0.27713 0.0
O56 O 0.00863 0.787 0.30249 0.0
O57 O 0.02426 0.79669 0.22665 0.0
O58 O 0.01713 0.76016 0.23442 0.0
C59 C 0.96002 0.82847 0.25508 0.0
O60 O 0.01755 0.82297 0.28019 0.0
O61 O 0.00849 0.83295 0.24487 0.0
C62 C 0.02434 0.77318 0.29619 0.0
O63 O 0.973 0.82962 0.27262 0.0
O64 O 0.96629 0.81734 0.23747 0.0
C65 C 0.97023 0.76622 0.22159 0.0
Fe66 Fe 0.67361 0.49482 0.79209 0.0
Fe67 Fe 0.66999 0.50059 0.73983 0.0
O68 O 0.68706 0.49774 0.76482 0.0
Fe69 Fe 0.71757 0.49786 0.76264 0.0
O70 O 0.72203 0.47815 0.78729 0.0
O71 O 0.68687 0.4671 0.79634 0.0
O72 O 0.64827 0.47893 0.78122 0.0
C73 C 0.6466 0.4669 0.76305 0.0
C74 C 0.71057 0.52506 0.80037 0.0
O75 O 0.65682 0.47292 0.74486 0.0
C76 C 0.70377 0.53164 0.72993 0.0
O77 O 0.65959 0.52253 0.78924 0.0
O78 O 0.64643 0.51615 0.75432 0.0
O79 O 0.7192 0.52336 0.78049 0.0
O80 O 0.69658 0.50999 0.80785 0.0
C81 C 0.70623 0.47102 0.72584 0.0
O82 O 0.68249 0.52844 0.73323 0.0
O83 O 0.71851 0.51736 0.73757 0.0
C84 C 0.64676 0.52806 0.77264 0.0
O85 O 0.69041 0.48536 0.72102 0.0
O86 O 0.71749 0.47252 0.74438 0.0
C87 C 0.70827 0.46335 0.79582 0.0
Fe88 Fe 0.98606 0.80956 0.75736 0.0
Fe89 Fe -0.00426 0.76315 0.73389 0.0
O90 O 0.99368 0.79366 0.73255 0.0
Fe91 Fe -0.00083 0.80826 0.70635 0.0
O92 O 0.01153 0.8342 0.71999 0.0
O93 O 0.01303 0.82501 0.75667 0.0
O94 O 0.00011 0.78962 0.77748 0.0
C95 C 0.01639 0.77535 0.77427 0.0
C96 C 0.96168 0.83204 0.72178 0.0
O97 O 0.01842 0.76464 0.75541 0.0
C98 C 0.97322 0.76945 0.69307 0.0
O99 O 0.95867 0.7947 0.7596 0.0
O100 O 0.97331 0.75989 0.75614 0.0
O101 O 0.97031 0.82018 0.70579 0.0
O102 O 0.97086 0.83249 0.74159 0.0
C103 C 0.03323 0.77596 0.70539 0.0
O104 O 0.97306 0.76011 0.71271 0.0
O105 O 0.98789 0.78493 0.68812 0.0
C106 C 0.95692 0.77313 0.76212 0.0
O107 O 0.0186 0.761 0.71185 0.0
O108 O 0.02823 0.79711 0.7054 0.0
C109 C 0.02067 0.83626 0.73974 0.0
Fe110 Fe 0.67628 0.49259 0.25474 0.0
Fe111 Fe 0.72426 0.49409 0.23249 0.0
O112 O 0.69387 0.49602 0.23014 0.0
Fe113 Fe 0.68092 0.5014 0.20309 0.0
O114 O 0.65618 0.51749 0.21488 0.0
O115 O 0.66491 0.52143 0.25142 0.0
O116 O 0.6973 0.50503 0.27478 0.0
C117 C 0.71422 0.5185 0.27143 0.0
C118 C 0.65233 0.46829 0.22021 0.0
O119 O 0.72533 0.51803 0.25269 0.0
C120 C 0.717 0.47063 0.19246 0.0
O121 O 0.68703 0.46367 0.25957 0.0
O122 O 0.72373 0.47276 0.25601 0.0
O123 O 0.66571 0.4741 0.20408 0.0
O124 O 0.65206 0.47946 0.239 0.0
C125 C 0.71718 0.53113 0.20138 0.0
O126 O 0.72495 0.46992 0.21266 0.0
O127 O 0.70336 0.48656 0.18634 0.0
C128 C 0.70806 0.45903 0.26284 0.0
O129 O 0.73 0.51523 0.20935 0.0
O130 O 0.69556 0.52878 0.20081 0.0
C131 C 0.65521 0.5289 0.23349 0.0
Fe132 Fe 0.98732 0.18401 0.75465 0.0
Fe133 Fe 0.00018 0.22852 0.72905 0.0
O134 O 0.99513 0.19835 0.72895 0.0
Fe135 Fe -0.00223 0.18247 0.70305 0.0
O136 O 0.96777 0.17363 0.70434 0.0
O137 O 0.96924 0.16219 0.74042 0.0
O138 O 0.96161 0.2015 0.75765 0.0
C139 C 0.96192 0.22322 0.7593 0.0
C140 C 0.01808 0.15357 0.73617 0.0
O141 O 0.97907 0.23472 0.75197 0.0
C142 C 0.03503 0.21093 0.69959 0.0
O143 O 0.00408 0.20314 0.77344 0.0
O144 O 0.02348 0.22561 0.74973 0.0
O145 O 0.0079 0.15586 0.717 0.0
O146 O 0.01268 0.16598 0.75316 0.0
C147 C 0.97557 0.22325 0.68927 0.0
O148 O 0.02235 0.22755 0.70621 0.0
O149 O 0.02775 0.19045 0.70032 0.0
C150 C 0.02125 0.21601 0.76916 0.0
O151 O 0.97702 0.23315 0.70858 0.0
O152 O 0.98838 0.20622 0.68447 0.0
C153 C 0.95902 0.16296 0.72114 0.0
Fe154 Fe 0.30728 0.49608 0.21092 0.0
Fe155 Fe 0.30336 0.49961 0.26316 0.0
O156 O 0.28995 0.49784 0.23596 0.0
Fe157 Fe 0.25941 0.4979 0.23378 0.0
O158 O 0.25873 0.47883 0.2083 0.0
O159 O 0.29503 0.46848 0.20371 0.0
O160 O 0.33087 0.48002 0.22483 0.0
C161 C 0.32972 0.46679 0.2422 0.0
C162 C 0.27132 0.52597 0.1978 0.0
O163 O 0.317 0.47189 0.25907 0.0
C164 C 0.26864 0.53064 0.26904 0.0
O165 O 0.32037 0.52384 0.21689 0.0
O166 O 0.3288 0.51545 0.25276 0.0
O167 O 0.25998 0.52388 0.21627 0.0
O168 O 0.28679 0.51148 0.19249 0.0
C169 C 0.26566 0.46982 0.27107 0.0
O170 O 0.29015 0.52727 0.26863 0.0
O171 O 0.25494 0.51678 0.25903 0.0
C172 C 0.33064 0.52861 0.23541 0.0
O173 O 0.28043 0.48413 0.27845 0.0
O174 O 0.25699 0.47197 0.25124 0.0
C175 C 0.27379 0.46463 0.20102 0.0
Fe176 Fe 0.25924 -0.00418 0.22682 0.0
Fe177 Fe 0.28922 0.99408 0.18306 0.0
O178 O 0.26185 -0.00313 0.19639 0.0
Fe179 Fe 0.23721 0.00069 0.17898 0.0
O180 O 0.23104 0.02825 0.19217 0.0
O181 O 0.23492 0.01642 0.22806 0.0
O182 O 0.2783 0.02046 0.23007 0.0
C183 C 0.29826 0.02187 0.22149 0.0
C184 C 0.22108 0.97112 0.21447 0.0
O185 O 0.30518 0.00736 0.20676 0.0
C186 C 0.26044 0.96756 0.155 0.0
O187 O 0.28301 0.97485 0.23051 0.0
O188 O 0.29267 0.96557 0.19492 0.0
O189 O 0.21749 0.98564 0.19856 0.0
O190 O 0.23978 0.97125 0.22562 0.0
C191 C 0.27043 0.02917 0.15828 0.0
O192 O 0.27825 0.98008 0.15685 0.0
O193 O 0.24204 0.97309 0.1652 0.0
C194 C 0.29152 0.96067 0.21607 0.0
O195 O 0.287 0.02268 0.17073 0.0
O196 O 0.25255 0.01671 0.1563 0.0
C197 C 0.22756 0.03105 0.21346 0.0
Fe198 Fe 0.4969 0.74253 0.68041 0.0
Fe199 Fe 0.49597 0.76613 0.72768 0.0
O200 O 0.49749 0.76787 0.69724 0.0
Fe201 Fe 0.49956 0.79504 0.68341 0.0
O202 O 0.47257 0.79039 0.66842 0.0
O203 O 0.4821 0.75597 0.65585 0.0
O204 O 0.46868 0.73476 0.69137 0.0
C205 C 0.46424 0.73183 0.71249 0.0
C206 C 0.53041 0.76731 0.65853 0.0
O207 O 0.47712 0.74051 0.72793 0.0
C208 C 0.52949 0.80069 0.71921 0.0
O209 O 0.51134 0.72453 0.70191 0.0
O210 O 0.52185 0.74853 0.72926 0.0
O211 O 0.51684 0.78444 0.65904 0.0
O212 O 0.52522 0.74884 0.66882 0.0
C213 C 0.46767 0.80287 0.71895 0.0
O214 O 0.51473 0.79142 0.73255 0.0
O215 O 0.52645 0.801 0.69771 0.0
C216 C 0.524 0.72946 0.71899 0.0
O217 O 0.46983 0.78326 0.72808 0.0
O218 O 0.4829 0.81054 0.70531 0.0
C219 C 0.46866 0.77323 0.65568 0.0
Fe220 Fe 0.73064 -0.00063 0.22555 0.0
Fe221 Fe 0.70966 0.00099 0.1768 0.0
O222 O 0.73384 -0.0019 0.19523 0.0
Fe223 Fe 0.7614 0.99373 0.18302 0.0
O224 O 0.76385 0.96591 0.19681 0.0
O225 O 0.75372 0.97812 0.23136 0.0
O226 O 0.7108 0.97524 0.22538 0.0
C227 C 0.69265 0.97388 0.21349 0.0
C228 C 0.77101 0.02304 0.22063 0.0
O229 O 0.68915 0.98753 0.19681 0.0
C230 C 0.74415 0.0275 0.15538 0.0
O231 O 0.70706 0.02075 0.22465 0.0
O232 O 0.70364 0.02943 0.1878 0.0
O233 O 0.77724 0.00786 0.20627 0.0
O234 O 0.75048 0.02363 0.22788 0.0
C235 C 0.73305 0.96605 0.15586 0.0
O236 O 0.72595 0.01543 0.1536 0.0
O237 O 0.76008 0.02149 0.16892 0.0
C238 C 0.70082 0.03449 0.20874 0.0
O239 O 0.7143 0.97236 0.16489 0.0
O240 O 0.75077 0.97866 0.15747 0.0
C241 C 0.76267 0.96288 0.21833 0.0
Fe242 Fe 0.49412 0.22522 0.73036 0.0
Fe243 Fe 0.49671 0.20176 0.68282 0.0
O244 O 0.49913 0.22673 0.70025 0.0
Fe245 Fe 0.50671 0.25322 0.68733 0.0
O246 O 0.53257 0.25509 0.70461 0.0
O247 O 0.51547 0.2477 0.7377 0.0
O248 O 0.51708 0.20424 0.7339 0.0
C249 C 0.51863 0.18555 0.72285 0.0
C250 C 0.4733 0.26627 0.72043 0.0
O251 O 0.5062 0.18181 0.70533 0.0
C252 C 0.47567 0.2363 0.65638 0.0
O253 O 0.4718 0.20267 0.72803 0.0
O254 O 0.46677 0.19837 0.69064 0.0
O255 O 0.49035 0.27102 0.70762 0.0
O256 O 0.47089 0.2463 0.72881 0.0
C257 C 0.53552 0.22139 0.66491 0.0
O258 O 0.48652 0.21733 0.65718 0.0
O259 O 0.48104 0.25266 0.66965 0.0
C260 C 0.45929 0.19686 0.711 0.0
O261 O 0.52676 0.20374 0.67412 0.0
O262 O 0.52454 0.24028 0.66465 0.0
C263 C 0.53248 0.25568 0.72637 0.0
Fe264 Fe 0.29177 0.00074 0.80874 0.0
Fe265 Fe 0.23975 -0.00352 0.81571 0.0
O266 O 0.26364 -0.00135 0.79697 0.0
Fe267 Fe 0.2596 -0.00132 0.76671 0.0
O268 O 0.27729 0.97304 0.76364 0.0
O269 O 0.30589 0.98604 0.78468 0.0
O270 O 0.28895 0.97266 0.82228 0.0
C271 C 0.27274 0.96735 0.83579 0.0
C272 C 0.29371 0.03279 0.77439 0.0
O273 O 0.25548 0.98059 0.8381 0.0
C274 C 0.22351 0.02575 0.78024 0.0
O275 O 0.28277 0.01614 0.83497 0.0
O276 O 0.24645 0.02418 0.82827 0.0
O277 O 0.28402 0.01836 0.76102 0.0
O278 O 0.2958 0.02865 0.79563 0.0
C279 C 0.22697 0.96556 0.78275 0.0
O280 O 0.21991 0.01187 0.79671 0.0
O281 O 0.24134 0.02413 0.76784 0.0
C282 C 0.26551 0.02934 0.83732 0.0
O283 O 0.23153 0.96881 0.80378 0.0
O284 O 0.23443 0.97931 0.7674 0.0
C285 C 0.29765 0.97117 0.77103 0.0
Fe286 Fe 0.49548 0.79218 0.3125 0.0
Fe287 Fe 0.50337 0.74002 0.3116 0.0
O288 O 0.49793 0.76607 0.29676 0.0
Fe289 Fe 0.49509 0.76607 0.26637 0.0
O290 O 0.51925 0.78579 0.26328 0.0
O291 O 0.50723 0.81039 0.28948 0.0
O292 O 0.52481 0.78942 0.32311 0.0
C293 C 0.53239 0.77186 0.33348 0.0
C294 C 0.46036 0.79699 0.28166 0.0
O295 O 0.52052 0.75354 0.33442 0.0
C296 C 0.47133 0.72685 0.27735 0.0
O297 O 0.48296 0.7787 0.33834 0.0
O298 O 0.47684 0.74285 0.32772 0.0
O299 O 0.47376 0.78965 0.26593 0.0
O300 O 0.46627 0.79636 0.30257 0.0
C301 C 0.53159 0.73427 0.27447 0.0
O302 O 0.48724 0.72185 0.29144 0.0
O303 O 0.47083 0.74627 0.26751 0.0
C304 C 0.47151 0.76012 0.3398 0.0
O305 O 0.53011 0.7357 0.29612 0.0
O306 O 0.51578 0.74235 0.26165 0.0
C307 C 0.52055 0.80525 0.27296 0.0
Fe308 Fe 0.73172 0.99438 0.76147 0.0
Fe309 Fe 0.71534 0.99462 0.812 0.0
O310 O 0.73774 -0.00336 0.79131 0.0
Fe311 Fe 0.76639 0.00097 0.80076 0.0
O312 O 0.768 0.02832 0.78573 0.0
O313 O 0.75439 0.01505 0.7528 0.0
O314 O 0.71212 0.01871 0.76255 0.0
C315 C 0.69529 0.02072 0.77621 0.0
C316 C 0.77219 0.97056 0.76303 0.0
O317 O 0.69332 0.00785 0.79371 0.0
C318 C 0.75121 0.96827 0.831 0.0
O319 O 0.70812 0.97343 0.76525 0.0
O320 O 0.70783 0.96594 0.80251 0.0
O321 O 0.77984 0.98581 0.7766 0.0
O322 O 0.75101 0.96983 0.75809 0.0
C323 C 0.7408 0.02958 0.83023 0.0
O324 O 0.73346 0.98072 0.834 0.0
O325 O 0.76602 0.97361 0.81593 0.0
C326 C 0.70297 0.96037 0.78209 0.0
O327 O 0.72141 0.02342 0.82261 0.0
O328 O 0.75844 0.01718 0.82675 0.0
C329 C 0.76496 0.03048 0.76426 0.0
Fe330 Fe 0.49924 0.20518 0.30624 0.0
Fe331 Fe 0.49297 0.25742 0.30532 0.0
O332 O 0.49601 0.23109 0.29033 0.0
Fe333 Fe 0.49569 0.23063 0.25979 0.0
O334 O 0.47099 0.21136 0.25951 0.0
O335 O 0.48471 0.18698 0.28506 0.0
O336 O 0.47127 0.20904 0.31969 0.0
C337 C 0.46551 0.22687 0.33068 0.0
C338 C 0.53106 0.19904 0.27206 0.0
O339 O 0.47819 0.24467 0.33024 0.0
C340 C 0.5206 0.26996 0.26691 0.0
O341 O 0.51458 0.21874 0.33036 0.0
O342 O 0.52124 0.25395 0.31819 0.0
O343 O 0.51651 0.20665 0.25753 0.0
O344 O 0.52711 0.19999 0.29343 0.0
C345 C 0.46083 0.26321 0.27157 0.0
O346 O 0.50687 0.27502 0.28311 0.0
O347 O 0.52025 0.25015 0.25786 0.0
C348 C 0.52717 0.23661 0.32993 0.0
O349 O 0.46477 0.26222 0.29294 0.0
O350 O 0.47492 0.25462 0.25711 0.0
C351 C 0.46976 0.19245 0.27019 0.0
Fe352 Fe 0.23765 0.26367 -0.00174 0.0
Fe353 Fe 0.18808 0.28281 -0.00284 0.0
O354 O 0.2074 0.25917 -0.00339 0.0
Fe355 Fe 0.1963 0.23088 0.99445 0.0
O356 O 0.21958 0.2175 0.011 0.0
O357 O 0.23987 0.24658 0.02439 0.0
O358 O 0.23539 0.28918 0.01697 0.0
C359 C 0.2191 0.29585 0.03002 0.0
C360 C 0.23285 0.22813 0.96505 0.0
O361 O 0.19832 0.29166 0.02514 0.0
C362 C 0.16786 0.2562 0.96426 0.0
O363 O 0.23744 0.28105 0.97232 0.0
O364 O 0.20769 0.30256 0.98223 0.0
O365 O 0.21125 0.22641 0.96747 0.0
O366 O 0.245 0.23882 0.97979 0.0
C367 C 0.16684 0.24992 0.02572 0.0
O368 O 0.17678 0.27542 0.96904 0.0
O369 O 0.1708 0.23901 0.97744 0.0
C370 C 0.22466 0.29838 0.96912 0.0
O371 O 0.16497 0.26713 0.01237 0.0
O372 O 0.18112 0.23407 0.02149 0.0
C373 C 0.23267 0.22613 0.02616 0.0
Fe374 Fe 0.1932 0.76014 -0.0 0.0
Fe375 Fe 0.23655 0.73034 0.99394 0.0
O376 O 0.20613 0.73281 -0.00361 0.0
Fe377 Fe 0.18855 0.70783 -0.00443 0.0
O378 O 0.16377 0.72222 0.98199 0.0
O379 O 0.17677 0.75689 0.97375 0.0
O380 O 0.21478 0.77552 0.98274 0.0
C381 C 0.2286 0.76836 0.96737 0.0
C382 C 0.1686 0.73188 0.03072 0.0
O383 O 0.23712 0.74834 0.96836 0.0
C384 C 0.2265 0.69398 0.02226 0.0
O385 O 0.20887 0.76493 0.02642 0.0
O386 O 0.24294 0.75512 0.01286 0.0
O387 O 0.17788 0.71324 0.02443 0.0
O388 O 0.16935 0.74957 0.01792 0.0
C389 C 0.21921 0.69851 0.96124 0.0
O390 O 0.23781 0.71238 0.01952 0.0
O391 O 0.21014 0.68888 0.00875 0.0
C392 C 0.23055 0.76477 0.02811 0.0
O393 O 0.23539 0.70525 0.97439 0.0
O394 O 0.19836 0.70119 0.96688 0.0
C395 C 0.16332 0.7403 0.9697 0.0
Fe396 Fe 0.76438 0.73315 0.49457 0.0
Fe397 Fe 0.78388 0.68416 0.49978 0.0
O398 O 0.76017 0.70289 0.49556 0.0
Fe399 Fe 0.73219 0.6913 0.49222 0.0
O400 O 0.72971 0.70364 0.46367 0.0
O401 O 0.74077 0.73847 0.47394 0.0
O402 O 0.78323 0.73042 0.4699 0.0
C403 C 0.80087 0.71771 0.469 0.0
C404 C 0.72466 0.73115 0.51941 0.0
O405 O 0.80456 0.7025 0.48426 0.0
C406 C 0.74879 0.66504 0.52755 0.0
O407 O 0.78883 0.73318 0.51486 0.0
O408 O 0.7905 0.69733 0.52717 0.0
O409 O 0.71748 0.71602 0.50539 0.0
O410 O 0.74549 0.73757 0.51921 0.0
C411 C 0.76003 0.66042 0.46701 0.0
O412 O 0.76731 0.66254 0.51612 0.0
O413 O 0.73321 0.67858 0.52067 0.0
C414 C 0.7948 0.71846 0.52991 0.0
O415 O 0.77877 0.66991 0.47251 0.0
O416 O 0.74177 0.66442 0.47836 0.0
C417 C 0.73112 0.72501 0.45961 0.0
Fe418 Fe 0.82065 0.24227 -0.00032 0.0
Fe419 Fe 0.77381 0.26606 0.99408 0.0
O420 O 0.80427 0.26762 -0.00452 0.0
Fe421 Fe 0.81848 0.29459 0.9927 0.0
O422 O 0.84439 0.28267 0.97863 0.0
O423 O 0.83517 0.24648 0.97252 0.0
O424 O 0.80064 0.22343 0.984 0.0
C425 C 0.7856 0.22813 0.96887 0.0
C426 C 0.84237 0.27491 0.02809 0.0
O427 O 0.77482 0.24705 0.9693 0.0
C428 C 0.77963 0.30479 0.0201 0.0
O429 O 0.80668 0.23655 0.02697 0.0
O430 O 0.77132 0.24157 0.01419 0.0
O431 O 0.83075 0.29196 0.02124 0.0
O432 O 0.84357 0.25666 0.01612 0.0
C433 C 0.78563 0.29851 0.95946 0.0
O434 O 0.77106 0.28482 0.01888 0.0
O435 O 0.79505 0.31132 0.00603 0.0
C436 C 0.7852 0.23384 0.02925 0.0
O437 O 0.77101 0.29018 0.97352 0.0
O438 O 0.80686 0.29867 0.96419 0.0
C439 C 0.84582 0.26448 0.96659 0.0
Fe440 Fe 0.23418 0.25967 0.49773 0.0
Fe441 Fe 0.25792 0.30674 0.49332 0.0
O442 O 0.23258 0.29019 0.49683 0.0
Fe443 Fe 0.20555 0.30434 0.49926 0.0
O444 O 0.20093 0.29217 0.5275 0.0
O445 O 0.20981 0.25647 0.51798 0.0
O446 O 0.253 0.26012 0.52272 0.0
C447 C 0.27171 0.27122 0.52358 0.0
C448 C 0.19603 0.26628 0.47088 0.0
O449 O 0.27654 0.2865 0.50875 0.0
C450 C 0.22587 0.32918 0.46481 0.0
O451 O 0.2588 0.25766 0.47777 0.0
O452 O 0.26407 0.29334 0.46584 0.0
O453 O 0.18912 0.28119 0.48526 0.0
O454 O 0.2158 0.25739 0.47263 0.0
C455 C 0.23516 0.33136 0.52635 0.0
O456 O 0.24376 0.33006 0.47729 0.0
O457 O 0.20877 0.31717 0.47089 0.0
C458 C 0.26645 0.27188 0.46297 0.0
O459 O 0.25324 0.32069 0.52071 0.0
O460 O 0.21715 0.32998 0.51402 0.0
C461 C 0.20125 0.2709 0.53209 0.0
Fe462 Fe 0.80969 0.7004 0.99378 0.0
Fe463 Fe 0.81243 0.75188 0.00444 0.0
O464 O 0.79576 0.72709 -0.00136 0.0
Fe465 Fe 0.76527 0.72911 -0.00228 0.0
O466 O 0.76258 0.7087 0.02128 0.0
O467 O 0.78663 0.68313 0.0068 0.0
O468 O 0.82292 0.70099 0.02208 0.0
C469 C 0.8357 0.7171 0.02904 0.0
C470 C 0.77593 0.69837 0.96119 0.0
O471 O 0.83607 0.7363 0.01865 0.0
C472 C 0.77738 0.76876 0.97541 0.0
O473 O 0.83512 0.71321 0.97965 0.0
O474 O 0.82612 0.74991 0.97655 0.0
O475 O 0.76168 0.7064 0.97577 0.0
O476 O 0.79725 0.6981 0.96542 0.0
C477 C 0.77769 0.75801 0.03526 0.0
O478 O 0.79201 0.77202 0.99126 0.0
O479 O 0.76648 0.7499 0.97413 0.0
C480 C 0.83642 0.7323 0.969 0.0
O481 O 0.79914 0.75508 0.03251 0.0
O482 O 0.76356 0.75209 0.0196 0.0
C483 C 0.77187 0.68899 0.02181 0.0
Fe484 Fe 0.76256 0.26008 0.4961 0.0
Fe485 Fe 0.78171 0.30953 0.49962 0.0
O486 O 0.75803 0.29036 0.49743 0.0
Fe487 Fe 0.72973 0.30162 0.49643 0.0
O488 O 0.71648 0.27694 0.51108 0.0
O489 O 0.74571 0.25536 0.52205 0.0
O490 O 0.78836 0.26056 0.51464 0.0
C491 C 0.79513 0.27551 0.52912 0.0
C492 C 0.72681 0.26803 0.46379 0.0
O493 O 0.79057 0.29661 0.52646 0.0
C494 C 0.75476 0.33205 0.46835 0.0
O495 O 0.77973 0.26283 0.47016 0.0
O496 O 0.80139 0.29141 0.48275 0.0
O497 O 0.72515 0.28923 0.46832 0.0
O498 O 0.7375 0.25445 0.47725 0.0
C499 C 0.74867 0.32851 0.52989 0.0
O500 O 0.77421 0.3234 0.47268 0.0
O501 O 0.7378 0.32839 0.48161 0.0
C502 C 0.79721 0.27568 0.46819 0.0
O503 O 0.76624 0.33108 0.51708 0.0
O504 O 0.73287 0.31459 0.5245 0.0
C505 C 0.72527 0.26234 0.52474 0.0
Fe506 Fe 0.25455 0.69019 0.50249 0.0
Fe507 Fe 0.22932 0.73648 0.49802 0.0
O508 O 0.22868 0.70587 0.49949 0.0
Fe509 Fe 0.20208 0.69086 0.49812 0.0
O510 O 0.20639 0.6784 0.52647 0.0
O511 O 0.24172 0.66678 0.51943 0.0
O512 O 0.26105 0.70439 0.52944 0.0
C513 C 0.26352 0.72593 0.53146 0.0
C514 C 0.23189 0.66372 0.47097 0.0
O515 O 0.25473 0.73961 0.51681 0.0
C516 C 0.19576 0.72372 0.46515 0.0
O517 O 0.27191 0.71066 0.48599 0.0
O518 O 0.24725 0.7361 0.47223 0.0
O519 O 0.21387 0.66532 0.48328 0.0
O520 O 0.24962 0.67536 0.47568 0.0
C521 C 0.1926 0.7288 0.52664 0.0
O522 O 0.20402 0.73864 0.47888 0.0
O523 O 0.19641 0.70251 0.4699 0.0
C524 C 0.26618 0.72537 0.47091 0.0
O525 O 0.21183 0.73859 0.5238 0.0
O526 O 0.18556 0.71369 0.51252 0.0
C527 C 0.22395 0.66693 0.53214 0.0
C528 C 0.03005 0.24069 0.18234 0.0
C529 C 0.03782 0.23635 0.20485 0.0
C530 C 0.04579 0.24552 0.1648 0.0
C531 C 0.10013 0.2286 0.14456 0.0
H532 H 0.09954 0.28312 0.1057 0.0
C533 C 0.16075 0.23674 0.06612 0.0
C534 C 0.15252 0.24858 0.04666 0.0
C535 C 0.14821 0.2369 0.08667 0.0
C536 C 0.09973 0.26763 0.11615 0.0
H537 H 0.06785 0.23399 0.22698 0.0
H538 H 0.0957 0.24155 0.19577 0.0
H539 H 0.07503 0.28164 0.13998 0.0
H540 H 0.12457 0.2694 0.03313 0.0
H541 H 0.10189 0.26855 0.06853 0.0
H542 H 0.12343 0.21374 0.12022 0.0
C543 C 0.07738 0.24171 0.19199 0.0
C544 C 0.08592 0.26697 0.1359 0.0
C545 C 0.06154 0.23749 0.20974 0.0
C546 C 0.13131 0.2602 0.04794 0.0
C547 C 0.11848 0.25992 0.06835 0.0
C548 C 0.11354 0.22901 0.12455 0.0
C549 C 0.06955 0.24551 0.1694 0.0
C550 C 0.08596 0.2474 0.15011 0.0
C551 C 0.12688 0.24848 0.08808 0.0
C552 C 0.11336 0.24845 0.10993 0.0
H553 H 0.0118 0.23994 0.17824 0.0
H554 H 0.03948 0.24824 0.14742 0.0
H555 H 0.10006 0.21319 0.15518 0.0
H556 H 0.17728 0.22795 0.06569 0.0
H557 H 0.15551 0.22828 0.10154 0.0
C558 C 0.23965 0.55205 0.70979 0.0
C559 C 0.26056 0.54019 0.7062 0.0
C560 C 0.23244 0.569 0.69415 0.0
C561 C 0.25506 0.60901 0.651 0.0
H562 H 0.19693 0.60196 0.61849 0.0
C563 C 0.24406 0.64094 0.55975 0.0
C564 C 0.22417 0.65348 0.55377 0.0
C565 C 0.24555 0.62993 0.58099 0.0
C566 C 0.21297 0.60444 0.62777 0.0
H567 H 0.29049 0.53702 0.68383 0.0
H568 H 0.27805 0.56664 0.65686 0.0
H569 H 0.20513 0.57774 0.65227 0.0
H570 H 0.18993 0.66374 0.56519 0.0
H571 H 0.19255 0.64398 0.60257 0.0
H572 H 0.26342 0.63493 0.62614 0.0
C573 C 0.26722 0.56283 0.67164 0.0
C574 C 0.21764 0.59064 0.64703 0.0
C575 C 0.27422 0.54574 0.68696 0.0
C576 C 0.20547 0.65415 0.5693 0.0
C577 C 0.20694 0.64293 0.59065 0.0
C578 C 0.2504 0.62276 0.6319 0.0
C579 C 0.2463 0.5746 0.67507 0.0
C580 C 0.23913 0.59221 0.65815 0.0
C581 C 0.22722 0.63113 0.5968 0.0
C582 C 0.22977 0.6199 0.61952 0.0
H583 H 0.2288 0.54807 0.72449 0.0
H584 H 0.21622 0.57787 0.69706 0.0
H585 H 0.2716 0.61075 0.65957 0.0
H586 H 0.25875 0.63995 0.54821 0.0
H587 H 0.26118 0.6205 0.58511 0.0
C588 C 0.87091 0.72727 0.05138 0.0
C589 C 0.8512 0.71341 0.04884 0.0
C590 C 0.88469 0.72529 0.07094 0.0
C591 C 0.88127 0.71279 0.13151 0.0
H592 H 0.94799 0.7174 0.12729 0.0
C593 C 0.94127 0.73622 0.2091 0.0
C594 C 0.95614 0.7547 0.20372 0.0
C595 C 0.92876 0.72512 0.19162 0.0
C596 C 0.92939 0.7159 0.12878 0.0
H597 H 0.83056 0.68633 0.06452 0.0
H598 H 0.85461 0.68327 0.09926 0.0
H599 H 0.9256 0.70778 0.09299 0.0
H600 H 0.96934 0.77607 0.17583 0.0
H601 H 0.94776 0.75683 0.14574 0.0
H602 H 0.88506 0.72229 0.16707 0.0
C603 C 0.85942 0.69543 0.08588 0.0
C604 C 0.91662 0.71038 0.1092 0.0
C605 C 0.84578 0.69713 0.06603 0.0
C606 C 0.95813 0.76189 0.18065 0.0
C607 C 0.94591 0.7507 0.16332 0.0
C608 C 0.8941 0.71838 0.15118 0.0
C609 C 0.8789 0.70964 0.08853 0.0
C610 C 0.8924 0.7098 0.11015 0.0
C611 C 0.93125 0.73212 0.16854 0.0
C612 C 0.91818 0.72102 0.14966 0.0
H613 H 0.87552 0.73993 0.0384 0.0
H614 H 0.89942 0.7367 0.0727 0.0
H615 H 0.86259 0.71252 0.13266 0.0
H616 H 0.93933 0.73034 0.22673 0.0
H617 H 0.91742 0.71091 0.19607 0.0
C618 C 0.69584 0.44543 0.69311 0.0
C619 C 0.71263 0.4536 0.70853 0.0
C620 C 0.70177 0.42957 0.67603 0.0
C621 C 0.74819 0.41297 0.6389 0.0
H622 H 0.7124 0.35728 0.62875 0.0
C623 C 0.76564 0.35225 0.56162 0.0
C624 C 0.74618 0.34246 0.55099 0.0
C625 C 0.76338 0.36427 0.58239 0.0
C626 C 0.72242 0.37288 0.63118 0.0
H627 H 0.74867 0.45155 0.71847 0.0
H628 H 0.75922 0.42417 0.68788 0.0
H629 H 0.70504 0.3808 0.66285 0.0
H630 H 0.70906 0.33791 0.55342 0.0
H631 H 0.70494 0.35967 0.58898 0.0
H632 H 0.76473 0.40591 0.60669 0.0
C633 C 0.74147 0.42991 0.68933 0.0
C634 C 0.71831 0.38619 0.6508 0.0
C635 C 0.73543 0.44545 0.70678 0.0
C636 C 0.7244 0.34519 0.56129 0.0
C637 C 0.72209 0.35747 0.58182 0.0
C638 C 0.75207 0.39986 0.61905 0.0
C639 C 0.72466 0.42194 0.67382 0.0
C640 C 0.73091 0.4065 0.6546 0.0
C641 C 0.74156 0.36696 0.59278 0.0
C642 C 0.73891 0.37989 0.61474 0.0
H643 H 0.67811 0.45132 0.69423 0.0
H644 H 0.68857 0.42376 0.66413 0.0
H645 H 0.75796 0.42873 0.64145 0.0
H646 H 0.7827 0.35013 0.5542 0.0
H647 H 0.77878 0.3711 0.59049 0.0
C648 C 0.03562 0.78704 0.81064 0.0
C649 C 0.03187 0.77016 0.79371 0.0
C650 C 0.04939 0.78229 0.82972 0.0
C651 C 0.09327 0.74146 0.85225 0.0
H652 H 0.0758 0.7695 0.91052 0.0
C653 C 0.13802 0.72232 0.93986 0.0
C654 C 0.14645 0.74226 0.95082 0.0
C655 C 0.12321 0.7242 0.92095 0.0
C656 C 0.08082 0.76157 0.89434 0.0
H657 H 0.03978 0.73514 0.78317 0.0
H658 H 0.06331 0.72642 0.81709 0.0
H659 H 0.05144 0.77508 0.87675 0.0
H660 H 0.14573 0.77972 0.95099 0.0
H661 H 0.11924 0.78294 0.91834 0.0
H662 H 0.12247 0.72758 0.87032 0.0
C663 C 0.05599 0.74354 0.81537 0.0
C664 C 0.06701 0.76487 0.87494 0.0
C665 C 0.04247 0.74847 0.79599 0.0
C666 C 0.13946 0.76408 0.94287 0.0
C667 C 0.12429 0.76593 0.92429 0.0
C668 C 0.10688 0.73783 0.87181 0.0
C669 C 0.05943 0.76036 0.83258 0.0
C670 C 0.07331 0.75528 0.85352 0.0
C671 C 0.11625 0.74602 0.91306 0.0
C672 C 0.10095 0.74822 0.89287 0.0
H673 H 0.02797 0.80406 0.80909 0.0
H674 H 0.05221 0.79591 0.8422 0.0
H675 H 0.09879 0.734 0.83603 0.0
H676 H 0.14334 0.7053 0.94552 0.0
H677 H 0.11714 0.70865 0.91253 0.0
C678 C 0.70908 0.53404 0.31116 0.0
C679 C 0.72225 0.53301 0.29081 0.0
C680 C 0.71672 0.54678 0.33001 0.0
C681 C 0.75454 0.5945 0.34713 0.0
H682 H 0.74436 0.56873 0.40811 0.0
C683 C 0.7777 0.64298 0.43161 0.0
C684 C 0.75949 0.64383 0.44769 0.0
C685 C 0.77646 0.62825 0.41254 0.0
C686 C 0.74732 0.57612 0.39119 0.0
H687 H 0.75363 0.54501 0.27414 0.0
H688 H 0.76709 0.56736 0.30739 0.0
H689 H 0.73638 0.54533 0.37411 0.0
H690 H 0.72597 0.62963 0.45665 0.0
H691 H 0.72394 0.60383 0.42356 0.0
H692 H 0.76516 0.62546 0.36439 0.0
C693 C 0.75079 0.55824 0.30859 0.0
C694 C 0.74271 0.56278 0.37173 0.0
C695 C 0.74311 0.54543 0.2896 0.0
C696 C 0.74028 0.62935 0.44459 0.0
C697 C 0.73918 0.61448 0.42572 0.0
C698 C 0.75928 0.60784 0.36666 0.0
C699 C 0.73776 0.55881 0.32907 0.0
C700 C 0.74561 0.57204 0.3495 0.0
C701 C 0.75715 0.61392 0.40942 0.0
C702 C 0.7551 0.59896 0.38884 0.0
H703 H 0.6928 0.52493 0.31264 0.0
H704 H 0.70599 0.54734 0.34532 0.0
H705 H 0.75684 0.60214 0.33022 0.0
H706 H 0.79268 0.65404 0.43347 0.0
H707 H 0.79057 0.62807 0.40025 0.0
C708 C 0.92624 0.22174 0.78353 0.0
C709 C 0.94472 0.23454 0.77441 0.0
C710 C 0.91261 0.23085 0.80116 0.0
C711 C 0.9186 0.27063 0.84945 0.0
H712 H 0.85483 0.25318 0.86027 0.0
C713 C 0.86976 0.28463 0.93648 0.0
C714 C 0.85844 0.26463 0.94442 0.0
C715 C 0.87912 0.28535 0.91422 0.0
C716 C 0.87262 0.25827 0.85741 0.0
H717 H 0.96209 0.26778 0.77518 0.0
H718 H 0.9381 0.28375 0.80591 0.0
H719 H 0.87165 0.24799 0.822 0.0
H720 H 0.8486 0.22956 0.93537 0.0
H721 H 0.86491 0.2309 0.89682 0.0
H722 H 0.91966 0.28027 0.88513 0.0
C723 C 0.93448 0.26648 0.7997 0.0
C724 C 0.88224 0.25531 0.83555 0.0
C725 C 0.94812 0.25737 0.782 0.0
C726 C 0.85721 0.24524 0.92988 0.0
C727 C 0.86631 0.24607 0.90767 0.0
C728 C 0.90891 0.27374 0.87131 0.0
C729 C 0.91712 0.253 0.81001 0.0
C730 C 0.90558 0.26062 0.83156 0.0
C731 C 0.87702 0.26621 0.89949 0.0
C732 C 0.88611 0.26676 0.87567 0.0
H733 H 0.92301 0.20418 0.77792 0.0
H734 H 0.8995 0.21991 0.80881 0.0
H735 H 0.9367 0.2747 0.84702 0.0
H736 H 0.87088 0.29989 0.94723 0.0
H737 H 0.88741 0.30105 0.90829 0.0
C738 C 0.273 0.44374 0.30416 0.0
C739 C 0.25805 0.45116 0.28662 0.0
C740 C 0.26616 0.42667 0.31958 0.0
C741 C 0.2165 0.40295 0.34836 0.0
H742 H 0.26071 0.35619 0.36699 0.0
C743 C 0.20584 0.3421 0.42851 0.0
C744 C 0.2255 0.34204 0.44278 0.0
C745 C 0.20657 0.35266 0.40677 0.0
C746 C 0.24812 0.36906 0.36189 0.0
H747 H 0.22428 0.44635 0.27122 0.0
H748 H 0.21198 0.41652 0.2989 0.0
H749 H 0.26789 0.37895 0.33232 0.0
H750 H 0.26118 0.35336 0.44553 0.0
H751 H 0.26236 0.37162 0.40791 0.0
H752 H 0.19729 0.39368 0.3787 0.0
C753 C 0.22909 0.42395 0.3004 0.0
C754 C 0.25219 0.38201 0.34206 0.0
C755 C 0.23613 0.44091 0.28461 0.0
C756 C 0.24569 0.35308 0.43505 0.0
C757 C 0.24647 0.36337 0.41338 0.0
C758 C 0.21239 0.38992 0.36831 0.0
C759 C 0.24411 0.41672 0.31801 0.0
C760 C 0.23694 0.39973 0.33566 0.0
C761 C 0.22707 0.36299 0.39889 0.0
C762 C 0.22871 0.37356 0.37572 0.0
H763 H 0.29008 0.45118 0.30602 0.0
H764 H 0.27798 0.42165 0.33317 0.0
H765 H 0.20452 0.41658 0.34381 0.0
H766 H 0.19004 0.33365 0.43395 0.0
H767 H 0.19137 0.35224 0.3959 0.0
C768 C 0.2034 0.06565 0.2047 0.0
C769 C 0.21058 0.04874 0.22056 0.0
C770 C 0.18435 0.07958 0.20949 0.0
C771 C 0.14406 0.09924 0.25484 0.0
H772 H 0.10056 0.10141 0.20402 0.0
C773 C 0.05121 0.13513 0.2649 0.0
C774 C 0.04331 0.14949 0.247 0.0
C775 C 0.07176 0.12266 0.26242 0.0
C776 C 0.1126 0.1012 0.21831 0.0
H777 H 0.20448 0.03444 0.25464 0.0
H778 H 0.17107 0.05881 0.26294 0.0
H779 H 0.13743 0.08194 0.19899 0.0
H780 H 0.05075 0.16187 0.2124 0.0
H781 H 0.08648 0.14034 0.20821 0.0
H782 H 0.11911 0.11862 0.27413 0.0
C783 C 0.18022 0.06123 0.24681 0.0
C784 C 0.13376 0.09008 0.21541 0.0
C785 C 0.19935 0.04727 0.24204 0.0
C786 C 0.05619 0.15081 0.22647 0.0
C787 C 0.07668 0.13841 0.22403 0.0
C788 C 0.12285 0.11047 0.25773 0.0
C789 C 0.17205 0.07692 0.23022 0.0
C790 C 0.14978 0.08911 0.23357 0.0
C791 C 0.0848 0.12431 0.24201 0.0
C792 C 0.10695 0.11167 0.23942 0.0
H793 H 0.2119 0.06747 0.18813 0.0
H794 H 0.17877 0.09193 0.1966 0.0
H795 H 0.15611 0.0988 0.26911 0.0
H796 H 0.04174 0.13379 0.28097 0.0
H797 H 0.07742 0.11173 0.27648 0.0
C798 C 0.44517 0.70651 0.74192 0.0
C799 C 0.44656 0.71461 0.71909 0.0
C800 C 0.43082 0.68793 0.74748 0.0
C801 C 0.38215 0.65242 0.72637 0.0
H802 H 0.41187 0.60333 0.76093 0.0
C803 C 0.3468 0.55992 0.72661 0.0
C804 C 0.34681 0.54767 0.74755 0.0
C805 C 0.35816 0.58107 0.72476 0.0
C806 C 0.40318 0.61699 0.75156 0.0
H807 H 0.43283 0.71051 0.6845 0.0
H808 H 0.40785 0.67811 0.69422 0.0
H809 H 0.43182 0.64 0.75544 0.0
H810 H 0.35899 0.54795 0.78293 0.0
H811 H 0.37882 0.58503 0.77969 0.0
H812 H 0.35363 0.62931 0.72222 0.0
C813 C 0.41786 0.6861 0.70782 0.0
C814 C 0.41459 0.63801 0.74845 0.0
C815 C 0.43229 0.7046 0.70223 0.0
C816 C 0.35882 0.55686 0.7665 0.0
C817 C 0.37018 0.5781 0.76465 0.0
C818 C 0.37072 0.63142 0.72953 0.0
C819 C 0.41743 0.6772 0.73037 0.0
C820 C 0.40433 0.65582 0.73553 0.0
C821 C 0.36974 0.59054 0.74382 0.0
C822 C 0.38127 0.61334 0.74182 0.0
H823 H 0.45584 0.7139 0.75537 0.0
H824 H 0.43056 0.68164 0.76508 0.0
H825 H 0.3737 0.66595 0.71661 0.0
H826 H 0.33774 0.55334 0.71165 0.0
H827 H 0.3579 0.59 0.70834 0.0
C828 C 0.93022 0.85288 0.27478 0.0
C829 C 0.9375 0.84048 0.25522 0.0
C830 C 0.90846 0.86327 0.27533 0.0
C831 C 0.85119 0.86196 0.24721 0.0
H832 H 0.84728 0.92582 0.26692 0.0
C833 C 0.78349 0.92546 0.21417 0.0
C834 C 0.77602 0.94364 0.22837 0.0
C835 C 0.79953 0.90945 0.22223 0.0
C836 C 0.84788 0.90782 0.26189 0.0
H837 H 0.92755 0.82916 0.22094 0.0
H838 H 0.88977 0.84759 0.22178 0.0
H839 H 0.88341 0.90485 0.2715 0.0
H840 H 0.778 0.95821 0.26279 0.0
H841 H 0.80613 0.9301 0.27692 0.0
H842 H 0.81587 0.86523 0.2368 0.0
C843 C 0.90077 0.849 0.23682 0.0
C844 C 0.86864 0.89582 0.26444 0.0
C845 C 0.92253 0.83867 0.23624 0.0
C846 C 0.78356 0.94447 0.25139 0.0
C847 C 0.79975 0.92847 0.25944 0.0
C848 C 0.83042 0.87394 0.24467 0.0
C849 C 0.89349 0.86137 0.25638 0.0
C850 C 0.87069 0.87301 0.25648 0.0
C851 C 0.80848 0.91129 0.24467 0.0
C852 C 0.82877 0.89722 0.25135 0.0
H853 H 0.94125 0.85444 0.28978 0.0
H854 H 0.90325 0.87258 0.29068 0.0
H855 H 0.85215 0.84421 0.24137 0.0
H856 H 0.77779 0.92422 0.19641 0.0
H857 H 0.806 0.89654 0.21035 0.0
C858 C 0.63188 0.43219 0.74254 0.0
C859 C 0.63299 0.44532 0.76287 0.0
C860 C 0.6208 0.4109 0.74233 0.0
C861 C 0.60202 0.36294 0.77937 0.0
H862 H 0.56822 0.34622 0.72411 0.0
C863 C 0.54391 0.28136 0.75921 0.0
C864 C 0.54914 0.27128 0.73773 0.0
C865 C 0.55604 0.30086 0.76674 0.0
C866 C 0.57768 0.35067 0.73961 0.0
H867 H 0.62319 0.44637 0.799 0.0
H868 H 0.6032 0.40903 0.79846 0.0
H869 H 0.5828 0.38535 0.72838 0.0
H870 H 0.57305 0.27171 0.70887 0.0
H871 H 0.59397 0.30577 0.72195 0.0
H872 H 0.59629 0.32792 0.79054 0.0
C873 C 0.61122 0.41529 0.78277 0.0
C874 C 0.58605 0.37303 0.74206 0.0
C875 C 0.62246 0.43673 0.78301 0.0
C876 C 0.56836 0.27934 0.72528 0.0
C877 C 0.58035 0.29879 0.73275 0.0
C878 C 0.59328 0.34048 0.77702 0.0
C879 C 0.61032 0.40217 0.76238 0.0
C880 C 0.59891 0.37926 0.76162 0.0
C881 C 0.57349 0.31035 0.75287 0.0
C882 C 0.58163 0.33412 0.7568 0.0
H883 H 0.64001 0.43808 0.72675 0.0
H884 H 0.6209 0.40103 0.72646 0.0
H885 H 0.61192 0.36724 0.79461 0.0
H886 H 0.52926 0.27546 0.76926 0.0
H887 H 0.55052 0.30959 0.78232 0.0
C888 C 0.19822 0.93523 0.79382 0.0
C889 C 0.20897 0.94852 0.77658 0.0
C890 C 0.17868 0.92209 0.78873 0.0
C891 C 0.14389 0.89696 0.74178 0.0
H892 H 0.09334 0.90597 0.78485 0.0
C893 C 0.05169 0.86242 0.72435 0.0
C894 C 0.04083 0.85155 0.74315 0.0
C895 C 0.07209 0.87496 0.72757 0.0
C896 C 0.10733 0.9031 0.77276 0.0
H897 H 0.20863 0.95705 0.7401 0.0
H898 H 0.17449 0.93407 0.73127 0.0
H899 H 0.13042 0.92435 0.79213 0.0
H900 H 0.04268 0.84567 0.78012 0.0
H901 H 0.07811 0.86727 0.78562 0.0
H902 H 0.12076 0.8755 0.72252 0.0
C903 C 0.18115 0.93391 0.74872 0.0
C904 C 0.12859 0.91357 0.77697 0.0
C905 C 0.20068 0.94712 0.75382 0.0
C906 C 0.05048 0.85393 0.76526 0.0
C907 C 0.07079 0.86641 0.76845 0.0
C908 C 0.12259 0.88636 0.73761 0.0
C909 C 0.16955 0.92188 0.76629 0.0
C910 C 0.14714 0.91047 0.76164 0.0
C911 C 0.08196 0.87688 0.74964 0.0
C912 C 0.10415 0.88918 0.75318 0.0
H913 H 0.20429 0.93568 0.81148 0.0
H914 H 0.17033 0.91257 0.8025 0.0
H915 H 0.15793 0.89423 0.72972 0.0
H916 H 0.04474 0.86082 0.70709 0.0
H917 H 0.08019 0.88305 0.71278 0.0
C918 C 0.54781 0.71121 0.24165 0.0
C919 C 0.54949 0.719 0.26455 0.0
C920 C 0.56233 0.69366 0.23363 0.0
C921 C 0.61462 0.65921 0.2482 0.0
H922 H 0.58077 0.60899 0.21959 0.0
C923 C 0.6444 0.56522 0.25402 0.0
C924 C 0.64314 0.55138 0.23415 0.0
C925 C 0.63473 0.58726 0.25423 0.0
C926 C 0.59057 0.62299 0.22719 0.0
H927 H 0.56899 0.71591 0.29637 0.0
H928 H 0.594 0.68526 0.28253 0.0
H929 H 0.56195 0.64622 0.22524 0.0
H930 H 0.63048 0.54977 0.19896 0.0
H931 H 0.61324 0.58833 0.19949 0.0
H932 H 0.64292 0.63559 0.25102 0.0
C933 C 0.58157 0.69265 0.27069 0.0
C934 C 0.57984 0.64436 0.23036 0.0
C935 C 0.56708 0.71013 0.2787 0.0
C936 C 0.63163 0.55995 0.21459 0.0
C937 C 0.62179 0.58201 0.21486 0.0
C938 C 0.6253 0.63783 0.24513 0.0
C939 C 0.57886 0.68369 0.24833 0.0
C940 C 0.59154 0.6625 0.24148 0.0
C941 C 0.62349 0.59595 0.23461 0.0
C942 C 0.61316 0.61933 0.23518 0.0
H943 H 0.53456 0.71782 0.23024 0.0
H944 H 0.5601 0.68735 0.21619 0.0
H945 H 0.62421 0.67298 0.25645 0.0
H946 H 0.65321 0.5592 0.26937 0.0
H947 H 0.63592 0.59746 0.26984 0.0
C948 C 0.78604 0.0681 0.76397 0.0
C949 C 0.77809 0.04858 0.75199 0.0
C950 C 0.8018 0.08317 0.75366 0.0
C951 C 0.83147 0.1159 0.7245 0.0
H952 H 0.88604 0.08118 0.70687 0.0
C953 C 0.9205 0.15754 0.70237 0.0
C954 C 0.9374 0.14994 0.71803 0.0
C955 C 0.89926 0.14609 0.70087 0.0
C956 C 0.8708 0.09108 0.71134 0.0
H957 H 0.77918 0.03034 0.71931 0.0
H958 H 0.80717 0.05649 0.7015 0.0
H959 H 0.84972 0.06086 0.71389 0.0
H960 H 0.9458 0.12405 0.74372 0.0
H961 H 0.90903 0.10368 0.74055 0.0
H962 H 0.85298 0.14604 0.72284 0.0
C963 C 0.80107 0.06013 0.7188 0.0
C964 C 0.85001 0.07952 0.71522 0.0
C965 C 0.78502 0.04524 0.72898 0.0
C966 C 0.93305 0.1303 0.73156 0.0
C967 C 0.91211 0.11859 0.72966 0.0
C968 C 0.85221 0.12753 0.72022 0.0
C969 C 0.8101 0.07882 0.73131 0.0
C970 C 0.83038 0.09173 0.72263 0.0
C971 C 0.89494 0.12656 0.71456 0.0
C972 C 0.8722 0.11507 0.71442 0.0
H973 H 0.78086 0.07118 0.78167 0.0
H974 H 0.80863 0.09735 0.76376 0.0
H975 H 0.81654 0.12566 0.73017 0.0
H976 H 0.92342 0.17275 0.69186 0.0
H977 H 0.88617 0.15253 0.68917 0.0
C978 C 0.42552 0.28673 0.2792 0.0
C979 C 0.44213 0.27855 0.26351 0.0
C980 C 0.41031 0.30427 0.27284 0.0
C981 C 0.40908 0.35411 0.23478 0.0
H982 H 0.34644 0.3604 0.25771 0.0
C983 C 0.35525 0.4376 0.22299 0.0
C984 C 0.34283 0.44491 0.24252 0.0
C985 C 0.36587 0.41592 0.22266 0.0
C986 C 0.36396 0.35891 0.25127 0.0
H987 H 0.45465 0.28109 0.22829 0.0
H988 H 0.42796 0.31178 0.21718 0.0
H989 H 0.36629 0.32336 0.2612 0.0
H990 H 0.33211 0.43534 0.27715 0.0
H991 H 0.35099 0.39785 0.2767 0.0
H992 H 0.40706 0.38983 0.22553 0.0
C993 C 0.42697 0.30479 0.23449 0.0
C994 C 0.37526 0.3377 0.25319 0.0
C995 C 0.44214 0.28713 0.24082 0.0
C996 C 0.34157 0.43027 0.26183 0.0
C997 C 0.35217 0.40866 0.26148 0.0
C998 C 0.39779 0.37532 0.23288 0.0
C999 C 0.41141 0.31402 0.25066 0.0
C1000 C 0.39813 0.33524 0.24546 0.0
C1001 C 0.36422 0.40114 0.24182 0.0
C1002 C 0.37532 0.37809 0.24163 0.0
H1003 H 0.42494 0.28032 0.29676 0.0
H1004 H 0.39862 0.3111 0.28575 0.0
H1005 H 0.42682 0.35284 0.22895 0.0
H1006 H 0.35636 0.44838 0.20775 0.0
H1007 H 0.37495 0.41054 0.20722 0.0
C1008 C 0.26201 0.2138 0.0556 0.0
C1009 C 0.24014 0.21136 0.04537 0.0
C1010 C 0.26916 0.19825 0.0727 0.0
C1011 C 0.24687 0.15576 0.11438 0.0
H1012 H 0.30058 0.11854 0.09943 0.0
C1013 C 0.25127 0.06078 0.13637 0.0
C1014 C 0.27129 0.05187 0.14672 0.0
C1015 C 0.25097 0.08322 0.12777 0.0
C1016 C 0.28585 0.12909 0.10414 0.0
H1017 H 0.20819 0.19181 0.04567 0.0
H1018 H 0.22043 0.16513 0.07555 0.0
H1019 H 0.29364 0.1547 0.07854 0.0
H1020 H 0.30697 0.05933 0.15559 0.0
H1021 H 0.3065 0.09867 0.13989 0.0
H1022 H 0.23827 0.12958 0.13894 0.0
C1023 C 0.23214 0.17879 0.07039 0.0
C1024 C 0.28193 0.14977 0.09228 0.0
C1025 C 0.22522 0.19392 0.05312 0.0
C1026 C 0.29129 0.06569 0.14763 0.0
C1027 C 0.29105 0.08818 0.13874 0.0
C1028 C 0.25074 0.13516 0.12615 0.0
C1029 C 0.25426 0.18058 0.08012 0.0
C1030 C 0.26181 0.16265 0.09658 0.0
C1031 C 0.27071 0.09723 0.12918 0.0
C1032 C 0.26965 0.12113 0.12036 0.0
H1033 H 0.27378 0.22716 0.04985 0.0
H1034 H 0.28632 0.19987 0.07996 0.0
H1035 H 0.2314 0.16559 0.1182 0.0
H1036 H 0.23555 0.05067 0.13545 0.0
H1037 H 0.2352 0.08967 0.12005 0.0
C1038 C 0.25693 0.78172 0.93728 0.0
C1039 C 0.23591 0.78454 0.94915 0.0
C1040 C 0.264 0.79813 0.92097 0.0
C1041 C 0.24148 0.84462 0.884 0.0
H1042 H 0.30016 0.8755 0.89381 0.0
C1043 C 0.2539 0.93871 0.86171 0.0
C1044 C 0.27307 0.94512 0.84829 0.0
C1045 C 0.25239 0.91664 0.87104 0.0
C1046 C 0.28395 0.86673 0.89058 0.0
H1047 H 0.20545 0.80611 0.9527 0.0
H1048 H 0.21763 0.83441 0.9243 0.0
H1049 H 0.29152 0.83958 0.91462 0.0
H1050 H 0.30623 0.93365 0.83497 0.0
H1051 H 0.30368 0.89486 0.85192 0.0
H1052 H 0.23335 0.87227 0.86097 0.0
C1053 C 0.22868 0.81966 0.92753 0.0
C1054 C 0.27903 0.84621 0.90239 0.0
C1055 C 0.22181 0.80356 0.94395 0.0
C1056 C 0.29125 0.92923 0.84528 0.0
C1057 C 0.2898 0.90707 0.85489 0.0
C1058 C 0.24634 0.86505 0.87231 0.0
C1059 C 0.24989 0.81724 0.91601 0.0
C1060 C 0.25735 0.83557 0.89989 0.0
C1061 C 0.27006 0.90048 0.86732 0.0
C1062 C 0.26719 0.87677 0.87624 0.0
H1063 H 0.26812 0.7672 0.94101 0.0
H1064 H 0.28043 0.79595 0.91229 0.0
H1065 H 0.2248 0.83651 0.88149 0.0
H1066 H 0.23961 0.95049 0.86444 0.0
H1067 H 0.23718 0.91208 0.88098 0.0
C1068 C 0.56669 0.75106 0.34871 0.0
C1069 C 0.55558 0.77211 0.34402 0.0
C1070 C 0.58922 0.75075 0.35704 0.0
C1071 C 0.63007 0.78207 0.39121 0.0
H1072 H 0.674 0.73923 0.36422 0.0
C1073 C 0.71411 0.75873 0.43841 0.0
C1074 C 0.7175 0.73475 0.44036 0.0
C1075 C 0.69844 0.7676 0.42234 0.0
C1076 C 0.66198 0.75133 0.37192 0.0
H1077 H 0.55929 0.8094 0.34458 0.0
H1078 H 0.59878 0.80878 0.36009 0.0
H1079 H 0.63753 0.74696 0.34459 0.0
H1080 H 0.70841 0.70143 0.42584 0.0
H1081 H 0.68098 0.71675 0.39825 0.0
H1082 H 0.6537 0.78529 0.41933 0.0
C1083 C 0.58994 0.7926 0.35693 0.0
C1084 C 0.64119 0.75579 0.36066 0.0
C1085 C 0.56741 0.79293 0.34815 0.0
C1086 C 0.70607 0.71997 0.42493 0.0
C1087 C 0.69046 0.72881 0.40892 0.0
C1088 C 0.65081 0.77743 0.40263 0.0
C1089 C 0.60108 0.77146 0.36116 0.0
C1090 C 0.62472 0.77053 0.37064 0.0
C1091 C 0.68596 0.75266 0.40788 0.0
C1092 C 0.66658 0.7613 0.39354 0.0
H1093 H 0.55817 0.73472 0.34549 0.0
H1094 H 0.59732 0.73423 0.36051 0.0
H1095 H 0.61757 0.79343 0.39927 0.0
H1096 H 0.7228 0.77062 0.44992 0.0
H1097 H 0.69559 0.78608 0.42173 0.0
C1098 C 0.79478 0.19199 0.94753 0.0
C1099 C 0.77948 0.21034 0.95173 0.0
C1100 C 0.78906 0.17469 0.93188 0.0
C1101 C 0.74023 0.14489 0.90653 0.0
H1102 H 0.78645 0.12179 0.86388 0.0
C1103 C 0.72461 0.06678 0.84549 0.0
C1104 C 0.74306 0.05106 0.84377 0.0
C1105 C 0.72751 0.08782 0.85697 0.0
C1106 C 0.7734 0.12795 0.87579 0.0
H1107 H 0.74627 0.22514 0.94264 0.0
H1108 H 0.73609 0.19445 0.91535 0.0
H1109 H 0.79447 0.15634 0.88648 0.0
H1110 H 0.7788 0.04486 0.85323 0.0
H1111 H 0.78366 0.08117 0.87353 0.0
H1112 H 0.71946 0.116 0.89639 0.0
C1113 C 0.75253 0.19363 0.92423 0.0
C1114 C 0.77796 0.14776 0.88863 0.0
C1115 C 0.75839 0.21118 0.93974 0.0
C1116 C 0.76426 0.0566 0.85413 0.0
C1117 C 0.76712 0.07753 0.8656 0.0
C1118 C 0.73569 0.12493 0.89373 0.0
C1119 C 0.76783 0.17523 0.9202 0.0
C1120 C 0.76166 0.1561 0.90451 0.0
C1121 C 0.7489 0.09351 0.8669 0.0
C1122 C 0.75249 0.11595 0.87867 0.0
H1123 H 0.81122 0.19094 0.95639 0.0
H1124 H 0.80106 0.16056 0.92929 0.0
H1125 H 0.72743 0.15091 0.91877 0.0
H1126 H 0.70808 0.06305 0.83756 0.0
H1127 H 0.71318 0.09985 0.85762 0.0
C1128 C 0.29306 0.2793 0.42981 0.0
C1129 C 0.28154 0.2635 0.44418 0.0
C1130 C 0.30952 0.27165 0.41401 0.0
C1131 C 0.35007 0.22372 0.40578 0.0
H1132 H 0.36352 0.25678 0.34914 0.0
C1133 C 0.43074 0.20724 0.34757 0.0
C1134 C 0.4434 0.22755 0.34331 0.0
C1135 C 0.40886 0.20842 0.3578 0.0
C1136 C 0.35985 0.24732 0.36485 0.0
H1137 H 0.27705 0.22711 0.45204 0.0
H1138 H 0.30559 0.21373 0.4241 0.0
H1139 H 0.32729 0.26412 0.36941 0.0
H1140 H 0.44308 0.26494 0.34634 0.0
H1141 H 0.40496 0.26691 0.36393 0.0
H1142 H 0.38292 0.20721 0.40123 0.0
C1143 C 0.30227 0.23208 0.42549 0.0
C1144 C 0.33919 0.25155 0.37649 0.0
C1145 C 0.28585 0.23976 0.44142 0.0
C1146 C 0.43387 0.24896 0.34959 0.0
C1147 C 0.41196 0.25014 0.35942 0.0
C1148 C 0.37064 0.2193 0.39395 0.0
C1149 C 0.31471 0.248 0.41203 0.0
C1150 C 0.33445 0.24043 0.39753 0.0
C1151 C 0.3992 0.22994 0.36344 0.0
C1152 C 0.376 0.23166 0.37385 0.0
H1153 H 0.29008 0.29771 0.43139 0.0
H1154 H 0.31896 0.28445 0.40415 0.0
H1155 H 0.34709 0.21501 0.42204 0.0
H1156 H 0.4376 0.19051 0.34279 0.0
H1157 H 0.3993 0.19263 0.36083 0.0
C1158 C 0.78595 0.7836 0.06891 0.0
C1159 C 0.76978 0.7735 0.05393 0.0
C1160 C 0.77957 0.80208 0.08292 0.0
C1161 C 0.73295 0.83639 0.10781 0.0
H1162 H 0.77216 0.88814 0.09118 0.0
C1163 C 0.71532 0.93074 0.13784 0.0
C1164 C 0.73496 0.94364 0.14393 0.0
C1165 C 0.71777 0.90903 0.12747 0.0
C1166 C 0.76122 0.87385 0.09631 0.0
H1167 H 0.73363 0.77306 0.0439 0.0
H1168 H 0.72255 0.80543 0.06861 0.0
H1169 H 0.77983 0.85031 0.07491 0.0
H1170 H 0.77246 0.94358 0.14477 0.0
H1171 H 0.77667 0.90588 0.12745 0.0
H1172 H 0.71463 0.85999 0.1297 0.0
C1173 C 0.74016 0.79911 0.06922 0.0
C1174 C 0.76562 0.8522 0.08696 0.0
C1175 C 0.74657 0.78068 0.05504 0.0
C1176 C 0.75697 0.93434 0.1398 0.0
C1177 C 0.75939 0.91268 0.12979 0.0
C1178 C 0.72871 0.85813 0.11753 0.0
C1179 C 0.75688 0.8106 0.0824 0.0
C1180 C 0.75173 0.83325 0.09281 0.0
C1181 C 0.73988 0.89983 0.12328 0.0
C1182 C 0.74303 0.87702 0.11207 0.0
H1183 H 0.80389 0.77826 0.06878 0.0
H1184 H 0.79266 0.81054 0.09324 0.0
H1185 H 0.72192 0.82197 0.11237 0.0
H1186 H 0.69813 0.93743 0.14102 0.0
H1187 H 0.7024 0.89959 0.12254 0.0
C1188 C 0.56931 0.24084 0.64687 0.0
C1189 C 0.55854 0.22029 0.65394 0.0
C1190 C 0.59139 0.24045 0.63742 0.0
C1191 C 0.63135 0.20522 0.60499 0.0
H1192 H 0.67308 0.25525 0.62067 0.0
C1193 C 0.71377 0.23058 0.55201 0.0
C1194 C 0.71087 0.25316 0.54356 0.0
C1195 C 0.69915 0.22212 0.56936 0.0
C1196 C 0.66181 0.24093 0.61639 0.0
H1197 H 0.56254 0.1831 0.65663 0.0
H1198 H 0.60136 0.18244 0.63948 0.0
H1199 H 0.63927 0.24793 0.64476 0.0
H1200 H 0.69125 0.28488 0.54708 0.0
H1201 H 0.66626 0.27036 0.57758 0.0
H1202 H 0.65343 0.19913 0.57584 0.0
C1203 C 0.59254 0.19882 0.64149 0.0
C1204 C 0.64246 0.2368 0.63007 0.0
C1205 C 0.57037 0.19922 0.65123 0.0
C1206 C 0.69371 0.26733 0.55313 0.0
C1207 C 0.67956 0.25912 0.5707 0.0
C1208 C 0.65088 0.2093 0.59132 0.0
C1209 C 0.60329 0.2195 0.63471 0.0
C1210 C 0.62641 0.21972 0.6238 0.0
C1211 C 0.68201 0.23643 0.57885 0.0
C1212 C 0.66558 0.22792 0.59634 0.0
H1213 H 0.56078 0.25739 0.6488 0.0
H1214 H 0.59903 0.25662 0.6319 0.0
H1215 H 0.61923 0.19196 0.59979 0.0
H1216 H 0.7269 0.21934 0.54483 0.0
H1217 H 0.7012 0.20452 0.57537 0.0
C1218 C 0.28519 0.75855 0.54993 0.0
C1219 C 0.28097 0.73469 0.54785 0.0
C1220 C 0.30435 0.76651 0.56228 0.0
C1221 C 0.36227 0.75066 0.5717 0.0
H1222 H 0.36433 0.78631 0.62825 0.0
C1223 C 0.44273 0.75298 0.62802 0.0
C1224 C 0.44822 0.77302 0.64048 0.0
C1225 C 0.42234 0.75171 0.61539 0.0
C1226 C 0.36407 0.7768 0.61218 0.0
H1227 H 0.29255 0.70061 0.55853 0.0
H1228 H 0.32612 0.7146 0.57957 0.0
H1229 H 0.32701 0.778 0.61009 0.0
H1230 H 0.43689 0.80775 0.64895 0.0
H1231 H 0.40137 0.80568 0.62632 0.0
H1232 H 0.39906 0.74937 0.5734 0.0
C1233 C 0.31459 0.72701 0.57162 0.0
C1234 C 0.34274 0.77197 0.60194 0.0
C1235 C 0.29536 0.71908 0.55961 0.0
C1236 C 0.43315 0.79206 0.63949 0.0
C1237 C 0.41273 0.79082 0.62669 0.0
C1238 C 0.38353 0.75573 0.58167 0.0
C1239 C 0.31955 0.75068 0.57247 0.0
C1240 C 0.34176 0.75832 0.58202 0.0
C1241 C 0.407 0.77051 0.61471 0.0
C1242 C 0.38466 0.76822 0.60242 0.0
H1243 H 0.27432 0.77101 0.5412 0.0
H1244 H 0.30797 0.78486 0.56283 0.0
H1245 H 0.36179 0.74034 0.55611 0.0
H1246 H 0.45383 0.73792 0.62856 0.0
H1247 H 0.41828 0.73562 0.60678 0.0
C1248 C 0.84844 0.75429 0.93398 0.0
C1249 C 0.84888 0.73369 0.94681 0.0
C1250 C 0.85768 0.75503 0.91179 0.0
C1251 C 0.8988 0.7269 0.87322 0.0
H1252 H 0.86468 0.75969 0.82583 0.0
C1253 C 0.93845 0.74074 0.78399 0.0
C1254 C 0.93829 0.76401 0.777 0.0
C1255 C 0.92386 0.73321 0.80164 0.0
C1256 C 0.87439 0.75045 0.83886 0.0
H1257 H 0.85986 0.69783 0.94658 0.0
H1258 H 0.8763 0.69928 0.90777 0.0
H1259 H 0.8475 0.75433 0.86393 0.0
H1260 H 0.92111 0.79705 0.78149 0.0
H1261 H 0.89598 0.78402 0.8124 0.0
H1262 H 0.92606 0.72379 0.84855 0.0
C1263 C 0.86874 0.7148 0.91498 0.0
C1264 C 0.86459 0.74744 0.86066 0.0
C1265 C 0.85938 0.71401 0.9372 0.0
C1266 C 0.92186 0.77907 0.78662 0.0
C1267 C 0.90731 0.77154 0.80427 0.0
C1268 C 0.90864 0.72999 0.85145 0.0
C1269 C 0.86762 0.73523 0.90194 0.0
C1270 C 0.87696 0.73616 0.8782 0.0
C1271 C 0.9088 0.74878 0.81259 0.0
C1272 C 0.89677 0.7423 0.83422 0.0
H1273 H 0.84045 0.76977 0.94082 0.0
H1274 H 0.857 0.77114 0.90229 0.0
H1275 H 0.90876 0.71826 0.88647 0.0
H1276 H 0.95069 0.72861 0.77671 0.0
H1277 H 0.92505 0.71545 0.80739 0.0
C1278 C 0.72891 0.35178 0.44022 0.0
C1279 C 0.75137 0.34598 0.44729 0.0
C1280 C 0.72524 0.36298 0.41928 0.0
C1281 C 0.75261 0.37426 0.36276 0.0
H1282 H 0.70386 0.41997 0.35817 0.0
C1283 C 0.73725 0.43664 0.28555 0.0
C1284 C 0.71408 0.4405 0.27931 0.0
C1285 C 0.74261 0.42251 0.30434 0.0
C1286 C 0.71735 0.40703 0.35915 0.0
H1287 H 0.78768 0.34773 0.43811 0.0
H1288 H 0.7813 0.36805 0.40175 0.0
H1289 H 0.71234 0.40248 0.39532 0.0
H1290 H 0.67854 0.43081 0.28655 0.0
H1291 H 0.68798 0.40631 0.31935 0.0
H1292 H 0.75789 0.37951 0.32647 0.0
C1293 C 0.76649 0.36347 0.41223 0.0
C1294 C 0.72222 0.39701 0.38043 0.0
C1295 C 0.77016 0.35204 0.43315 0.0
C1296 C 0.69654 0.42847 0.29106 0.0
C1297 C 0.7019 0.41451 0.3099 0.0
C1298 C 0.74788 0.38454 0.34145 0.0
C1299 C 0.74395 0.36888 0.40498 0.0
C1300 C 0.73973 0.38032 0.38247 0.0
C1301 C 0.72489 0.41211 0.3172 0.0
C1302 C 0.73002 0.40081 0.33946 0.0
H1303 H 0.71401 0.34707 0.45053 0.0
H1304 H 0.70763 0.36646 0.41406 0.0
H1305 H 0.76603 0.36127 0.36369 0.0
H1306 H 0.75118 0.44548 0.27672 0.0
H1307 H 0.76047 0.42088 0.30963 0.0
C1308 C 0.05261 0.24036 0.78666 0.0
C1309 C 0.03741 0.22147 0.78807 0.0
C1310 C 0.0669 0.24592 0.80531 0.0
C1311 C 0.07181 0.23637 0.86826 0.0
H1312 H 0.13558 0.25505 0.85965 0.0
C1313 C 0.13827 0.23468 0.94148 0.0
C1314 C 0.15257 0.25411 0.94402 0.0
C1315 C 0.12401 0.2325 0.92224 0.0
C1316 C 0.11771 0.2501 0.86225 0.0
H1317 H 0.02599 0.19304 0.80968 0.0
H1318 H 0.05112 0.20238 0.84178 0.0
H1319 H 0.11127 0.24766 0.82596 0.0
H1320 H 0.16339 0.28637 0.92824 0.0
H1321 H 0.13851 0.28237 0.8944 0.0
H1322 H 0.07841 0.2382 0.90451 0.0
C1323 C 0.05157 0.21336 0.82665 0.0
C1324 C 0.10379 0.24592 0.843 0.0
C1325 C 0.03724 0.20792 0.80817 0.0
C1326 C 0.15244 0.27126 0.92683 0.0
C1327 C 0.13834 0.26893 0.90742 0.0
C1328 C 0.08574 0.24035 0.88743 0.0
C1329 C 0.0663 0.23261 0.82561 0.0
C1330 C 0.08079 0.23864 0.84583 0.0
C1331 C 0.12394 0.24957 0.90502 0.0
C1332 C 0.10889 0.24694 0.88462 0.0
H1333 H 0.05312 0.25112 0.77138 0.0
H1334 H 0.07799 0.26093 0.80402 0.0
H1335 H 0.05399 0.23136 0.87105 0.0
H1336 H 0.13802 0.22114 0.95439 0.0
H1337 H 0.11326 0.21726 0.92066 0.0
C1338 C 0.27484 0.5641 0.29518 0.0
C1339 C 0.25967 0.54778 0.2856 0.0
C1340 C 0.26827 0.57692 0.31438 0.0
C1341 C 0.2575 0.58071 0.36501 0.0
H1342 H 0.20385 0.61964 0.37472 0.0
C1343 C 0.25341 0.64472 0.439 0.0
C1344 C 0.23258 0.64786 0.45106 0.0
C1345 C 0.25414 0.63103 0.41932 0.0
C1346 C 0.21867 0.60846 0.37235 0.0
H1347 H 0.22492 0.53374 0.28722 0.0
H1348 H 0.2134 0.5565 0.32098 0.0
H1349 H 0.20915 0.59999 0.33752 0.0
H1350 H 0.19615 0.63903 0.45192 0.0
H1351 H 0.19756 0.61473 0.41734 0.0
H1352 H 0.2672 0.58896 0.39952 0.0
C1353 C 0.23041 0.55908 0.3136 0.0
C1354 C 0.22172 0.59738 0.35109 0.0
C1355 C 0.23702 0.54611 0.29431 0.0
C1356 C 0.21249 0.63679 0.44308 0.0
C1357 C 0.21324 0.62305 0.42322 0.0
C1358 C 0.25438 0.59155 0.38617 0.0
C1359 C 0.24639 0.57378 0.32432 0.0
C1360 C 0.24154 0.58399 0.34712 0.0
C1361 C 0.2341 0.62008 0.41117 0.0
C1362 C 0.23533 0.6061 0.38985 0.0
H1363 H 0.29226 0.56608 0.28861 0.0
H1364 H 0.28071 0.58854 0.32214 0.0
H1365 H 0.27263 0.56998 0.3625 0.0
H1366 H 0.26918 0.6531 0.44454 0.0
H1367 H 0.2704 0.62944 0.41017 0.0
C1368 C 0.85832 0.25494 0.06254 0.0
C1369 C 0.85368 0.27567 0.05085 0.0
C1370 C 0.86663 0.2553 0.08507 0.0
C1371 C 0.90099 0.28625 0.12528 0.0
H1372 H 0.86839 0.25009 0.17134 0.0
C1373 C 0.94394 0.26505 0.21183 0.0
C1374 C 0.94298 0.24141 0.21732 0.0
C1375 C 0.92904 0.27436 0.19528 0.0
C1376 C 0.8777 0.26029 0.15872 0.0
H1377 H 0.85461 0.31305 0.05332 0.0
H1378 H 0.87021 0.31359 0.09271 0.0
H1379 H 0.85096 0.25629 0.13353 0.0
H1380 H 0.92432 0.20947 0.21122 0.0
H1381 H 0.89893 0.2254 0.18222 0.0
H1382 H 0.92854 0.2888 0.14963 0.0
C1383 C 0.86695 0.29717 0.08439 0.0
C1384 C 0.86767 0.2639 0.13717 0.0
C1385 C 0.85813 0.29682 0.06192 0.0
C1386 C 0.92571 0.2277 0.20723 0.0
C1387 C 0.91093 0.23695 0.1907 0.0
C1388 C 0.91123 0.28233 0.14674 0.0
C1389 C 0.87084 0.27638 0.09621 0.0
C1390 C 0.87957 0.27625 0.12007 0.0
C1391 C 0.9129 0.2602 0.18395 0.0
C1392 C 0.90006 0.26856 0.1634 0.0
H1393 H 0.85482 0.23838 0.05457 0.0
H1394 H 0.86979 0.23907 0.09383 0.0
H1395 H 0.91046 0.29579 0.11226 0.0
H1396 H 0.95691 0.27615 0.21946 0.0
H1397 H 0.93072 0.29244 0.19077 0.0
C1398 C 0.2383 0.44404 0.70522 0.0
C1399 C 0.26145 0.44322 0.7125 0.0
C1400 C 0.2304 0.42898 0.68812 0.0
C1401 C 0.24573 0.37629 0.65493 0.0
H1402 H 0.21685 0.40833 0.60372 0.0
C1403 C 0.21469 0.35585 0.55571 0.0
C1404 C 0.23489 0.34471 0.54806 0.0
C1405 C 0.21405 0.36643 0.5774 0.0
C1406 C 0.2245 0.39903 0.61802 0.0
H1407 H 0.29392 0.42481 0.70898 0.0
H1408 H 0.28022 0.39873 0.67921 0.0
H1409 H 0.22176 0.42817 0.64052 0.0
H1410 H 0.27037 0.33636 0.55699 0.0
H1411 H 0.26923 0.3549 0.5945 0.0
H1412 H 0.24939 0.34752 0.63209 0.0
C1413 C 0.26812 0.41092 0.68663 0.0
C1414 C 0.22725 0.41034 0.63912 0.0
C1415 C 0.27604 0.42602 0.70358 0.0
C1416 C 0.25451 0.34478 0.56231 0.0
C1417 C 0.25381 0.35518 0.58394 0.0
C1418 C 0.24305 0.36504 0.63385 0.0
C1419 C 0.24544 0.41271 0.6782 0.0
C1420 C 0.23858 0.39933 0.65755 0.0
C1421 C 0.23351 0.36584 0.59183 0.0
C1422 C 0.23311 0.37657 0.61498 0.0
H1423 H 0.2266 0.45704 0.71185 0.0
H1424 H 0.21275 0.43054 0.68213 0.0
H1425 H 0.25415 0.36725 0.66896 0.0
H1426 H 0.19924 0.35598 0.54519 0.0
H1427 H 0.19819 0.37457 0.5831 0.0
C1428 C 0.15279 0.71344 0.0666 0.0
C1429 C 0.15676 0.73332 0.05322 0.0
C1430 C 0.14258 0.71526 0.08839 0.0
C1431 C 0.13225 0.75664 0.13537 0.0
H1432 H 0.0779 0.71985 0.14874 0.0
C1433 C 0.06213 0.78543 0.1986 0.0
C1434 C 0.04967 0.76876 0.21108 0.0
C1435 C 0.07905 0.77873 0.18284 0.0
C1436 C 0.09337 0.72989 0.14557 0.0
H1437 H 0.15339 0.77068 0.05229 0.0
H1438 H 0.13558 0.77376 0.09013 0.0
H1439 H 0.10028 0.71206 0.11396 0.0
H1440 H 0.04631 0.73203 0.21797 0.0
H1441 H 0.07606 0.72038 0.19056 0.0
H1442 H 0.12507 0.77488 0.16663 0.0
C1443 C 0.14046 0.75682 0.08386 0.0
C1444 C 0.10612 0.72545 0.12562 0.0
C1445 C 0.15041 0.755 0.06207 0.0
C1446 C 0.0554 0.7453 0.2084 0.0
C1447 C 0.07238 0.7386 0.19266 0.0
C1448 C 0.11959 0.761 0.15538 0.0
C1449 C 0.1365 0.73701 0.09724 0.0
C1450 C 0.12522 0.73927 0.11999 0.0
C1451 C 0.08398 0.75521 0.1793 0.0
C1452 C 0.09959 0.74816 0.16031 0.0
H1453 H 0.15764 0.6965 0.06029 0.0
H1454 H 0.13969 0.69974 0.09842 0.0
H1455 H 0.14718 0.76728 0.13157 0.0
H1456 H 0.05825 0.80366 0.20035 0.0
H1457 H 0.08747 0.79196 0.17264 0.0
C1458 C 0.73395 0.55022 0.70512 0.0
C1459 C 0.71109 0.54961 0.71332 0.0
C1460 C 0.74005 0.56493 0.68702 0.0
C1461 C 0.72093 0.61545 0.65293 0.0
H1462 H 0.75402 0.58524 0.60314 0.0
C1463 C 0.76336 0.63846 0.55835 0.0
C1464 C 0.7453 0.65175 0.54906 0.0
C1465 C 0.76054 0.62706 0.57939 0.0
C1466 C 0.74508 0.59406 0.617 0.0
H1467 H 0.6771 0.56512 0.71002 0.0
H1468 H 0.68776 0.59068 0.6784 0.0
H1469 H 0.74751 0.56468 0.63921 0.0
H1470 H 0.71003 0.66331 0.55449 0.0
H1471 H 0.70497 0.64301 0.59093 0.0
H1472 H 0.71827 0.64475 0.63058 0.0
C1473 C 0.70096 0.57979 0.68595 0.0
C1474 C 0.74139 0.5823 0.63768 0.0
C1475 C 0.69483 0.56503 0.70399 0.0
C1476 C 0.72429 0.6532 0.56115 0.0
C1477 C 0.72146 0.64175 0.58215 0.0
C1478 C 0.72468 0.62726 0.63224 0.0
C1479 C 0.72346 0.57942 0.67686 0.0
C1480 C 0.72905 0.59277 0.65577 0.0
C1481 C 0.73959 0.62867 0.59158 0.0
C1482 C 0.73655 0.61658 0.61395 0.0
H1483 H 0.74696 0.53869 0.71204 0.0
H1484 H 0.75763 0.56456 0.68059 0.0
H1485 H 0.71158 0.62403 0.66667 0.0
H1486 H 0.77985 0.63717 0.54959 0.0
H1487 H 0.77492 0.61732 0.58632 0.0
C1488 C 0.81271 0.96002 0.75353 0.0
C1489 C 0.78898 0.95566 0.75087 0.0
C1490 C 0.829 0.94648 0.74228 0.0
C1491 C 0.83879 0.88902 0.71993 0.0
H1492 H 0.89582 0.91785 0.69955 0.0
C1493 C 0.92461 0.83943 0.70098 0.0
C1494 C 0.9413 0.84648 0.71713 0.0
C1495 C 0.90437 0.8523 0.69798 0.0
C1496 C 0.87986 0.90957 0.70476 0.0
H1497 H 0.76375 0.93358 0.73419 0.0
H1498 H 0.79265 0.90944 0.71455 0.0
H1499 H 0.86172 0.94166 0.7065 0.0
H1500 H 0.95049 0.87275 0.74211 0.0
H1501 H 0.91554 0.89559 0.73631 0.0
H1502 H 0.85747 0.85701 0.71907 0.0
C1503 C 0.7984 0.92358 0.72534 0.0
C1504 C 0.8604 0.92313 0.70884 0.0
C1505 C 0.78192 0.93736 0.73656 0.0
C1506 C 0.93786 0.86693 0.72961 0.0
C1507 C 0.91798 0.88004 0.72619 0.0
C1508 C 0.85826 0.87537 0.71556 0.0
C1509 C 0.82211 0.92813 0.72806 0.0
C1510 C 0.84009 0.91316 0.71771 0.0
C1511 C 0.90097 0.87268 0.71061 0.0
C1512 C 0.8792 0.88576 0.70907 0.0
H1513 H 0.81885 0.97394 0.7644 0.0
H1514 H 0.84712 0.95009 0.74524 0.0
H1515 H 0.8234 0.88088 0.72679 0.0
H1516 H 0.92684 0.82359 0.69128 0.0
H1517 H 0.89135 0.84631 0.68598 0.0
C1518 C 0.53261 0.31122 0.26558 0.0
C1519 C 0.53469 0.28872 0.25671 0.0
C1520 C 0.54452 0.3295 0.25557 0.0
C1521 C 0.59531 0.34485 0.22246 0.0
H1522 H 0.56256 0.40304 0.21648 0.0
C1523 C 0.64146 0.43117 0.20086 0.0
C1524 C 0.63664 0.44842 0.21726 0.0
C1525 C 0.62799 0.41112 0.19991 0.0
C1526 C 0.5719 0.38689 0.21789 0.0
H1527 H 0.5515 0.26772 0.23062 0.0
H1528 H 0.5728 0.30005 0.21319 0.0
H1529 H 0.54115 0.3679 0.22549 0.0
H1530 H 0.61345 0.45867 0.24483 0.0
H1531 H 0.58984 0.42397 0.24295 0.0
H1532 H 0.62622 0.36416 0.21579 0.0
C1533 C 0.56165 0.30331 0.22784 0.0
C1534 C 0.55968 0.3668 0.22305 0.0
C1535 C 0.54948 0.28487 0.23781 0.0
C1536 C 0.6176 0.44569 0.23202 0.0
C1537 C 0.60399 0.42587 0.23085 0.0
C1538 C 0.60758 0.36502 0.21723 0.0
C1539 C 0.55895 0.32585 0.23647 0.0
C1540 C 0.57137 0.34578 0.22634 0.0
C1541 C 0.60926 0.40823 0.21506 0.0
C1542 C 0.59605 0.38635 0.21581 0.0
H1543 H 0.52153 0.31488 0.2802 0.0
H1544 H 0.54254 0.34658 0.26296 0.0
H1545 H 0.60473 0.32888 0.22495 0.0
H1546 H 0.65615 0.43276 0.18936 0.0
H1547 H 0.63237 0.39777 0.18757 0.0
C1548 C 0.20091 0.04792 0.75078 0.0
C1549 C 0.20473 0.04161 0.77386 0.0
C1550 C 0.18074 0.05977 0.74467 0.0
C1551 C 0.1215 0.06807 0.76628 0.0
H1552 H 0.11834 0.11825 0.7221 0.0
C1553 C 0.04499 0.13042 0.76046 0.0
C1554 C 0.03709 0.13683 0.73849 0.0
C1555 C 0.06471 0.11683 0.76278 0.0
C1556 C 0.11897 0.104 0.73421 0.0
H1557 H 0.19174 0.0443 0.80884 0.0
H1558 H 0.15706 0.06545 0.79834 0.0
H1559 H 0.15555 0.09986 0.73014 0.0
H1560 H 0.04334 0.13374 0.70169 0.0
H1561 H 0.07803 0.10999 0.70585 0.0
H1562 H 0.08512 0.07257 0.77082 0.0
C1563 C 0.16905 0.06058 0.78483 0.0
C1564 C 0.14023 0.09353 0.73883 0.0
C1565 C 0.18897 0.04863 0.79086 0.0
C1566 C 0.04893 0.12888 0.71884 0.0
C1567 C 0.06886 0.11549 0.72119 0.0
C1568 C 0.10037 0.07858 0.76177 0.0
C1569 C 0.1643 0.06555 0.7616 0.0
C1570 C 0.14175 0.07579 0.75528 0.0
C1571 C 0.07705 0.1096 0.7432 0.0
C1572 C 0.09897 0.0969 0.74601 0.0
H1573 H 0.21282 0.04265 0.73735 0.0
H1574 H 0.17754 0.06344 0.72664 0.0
H1575 H 0.12202 0.05399 0.77859 0.0
H1576 H 0.03626 0.13635 0.7759 0.0
H1577 H 0.0708 0.11269 0.77996 0.0
C1578 C 0.345 0.56621 0.21928 0.0
C1579 C 0.34499 0.54966 0.23706 0.0
C1580 C 0.35695 0.58704 0.22193 0.0
C1581 C 0.37967 0.62509 0.26755 0.0
H1582 H 0.41809 0.65103 0.21918 0.0
C1583 C 0.45163 0.68966 0.28598 0.0
C1584 C 0.45423 0.70889 0.27143 0.0
C1585 C 0.43599 0.67224 0.28056 0.0
C1586 C 0.40711 0.64417 0.23268 0.0
H1587 H 0.35813 0.54168 0.2712 0.0
H1588 H 0.37918 0.57768 0.27561 0.0
H1589 H 0.39561 0.61602 0.2116 0.0
H1590 H 0.44235 0.72506 0.23983 0.0
H1591 H 0.415 0.69415 0.23016 0.0
H1592 H 0.39164 0.65276 0.28883 0.0
C1593 C 0.36958 0.57482 0.25983 0.0
C1594 C 0.39429 0.62415 0.22837 0.0
C1595 C 0.35767 0.55409 0.25722 0.0
C1596 C 0.44069 0.71043 0.25137 0.0
C1597 C 0.42515 0.69275 0.24579 0.0
C1598 C 0.39251 0.64497 0.27186 0.0
C1599 C 0.36904 0.59169 0.24241 0.0
C1600 C 0.38091 0.6141 0.24598 0.0
C1601 C 0.42268 0.67353 0.26039 0.0
C1602 C 0.40678 0.65438 0.25466 0.0
H1603 H 0.3353 0.56335 0.20357 0.0
H1604 H 0.35618 0.59976 0.20824 0.0
H1605 H 0.36905 0.6181 0.28127 0.0
H1606 H 0.4617 0.68801 0.30163 0.0
H1607 H 0.43465 0.65748 0.29198 0.0
C1608 C 0.81163 0.03681 0.22211 0.0
C1609 C 0.7889 0.03834 0.23049 0.0
C1610 C 0.82905 0.05042 0.23137 0.0
C1611 C 0.84056 0.10434 0.26124 0.0
H1612 H 0.9013 0.07657 0.26728 0.0
C1613 C 0.92528 0.15502 0.28226 0.0
C1614 C 0.94204 0.15179 0.26496 0.0
C1615 C 0.9056 0.14103 0.283 0.0
C1616 C 0.88439 0.08449 0.26589 0.0
H1617 H 0.76655 0.05577 0.255 0.0
H1618 H 0.79739 0.07991 0.27131 0.0
H1619 H 0.86777 0.05204 0.26039 0.0
H1620 H 0.95158 0.13128 0.23514 0.0
H1621 H 0.91753 0.10654 0.23678 0.0
H1622 H 0.85756 0.13692 0.26618 0.0
C1623 C 0.80152 0.06795 0.25754 0.0
C1624 C 0.86524 0.07052 0.2619 0.0
C1625 C 0.78392 0.05416 0.24824 0.0
C1626 C 0.93896 0.13417 0.24864 0.0
C1627 C 0.91957 0.11995 0.24966 0.0
C1628 C 0.85979 0.11836 0.26549 0.0
C1629 C 0.8243 0.06597 0.24932 0.0
C1630 C 0.84331 0.08038 0.25849 0.0
C1631 C 0.9027 0.12331 0.26676 0.0
C1632 C 0.88194 0.10856 0.2669 0.0
H1633 H 0.81612 0.02504 0.20829 0.0
H1634 H 0.84628 0.04895 0.2242 0.0
H1635 H 0.82388 0.11239 0.25864 0.0
H1636 H 0.92718 0.16862 0.29496 0.0
H1637 H 0.89274 0.14392 0.29628 0.0
C1638 C 0.44263 0.28323 0.74625 0.0
C1639 C 0.45783 0.28533 0.72742 0.0
C1640 C 0.42939 0.30219 0.75342 0.0
C1641 C 0.42838 0.36595 0.74907 0.0
H1642 H 0.36313 0.36052 0.76324 0.0
C1643 C 0.36556 0.44188 0.74254 0.0
C1644 C 0.34949 0.44508 0.76041 0.0
C1645 C 0.37952 0.42227 0.74207 0.0
C1646 C 0.38143 0.3622 0.75967 0.0
H1647 H 0.47021 0.30856 0.7007 0.0
H1648 H 0.44705 0.34116 0.71287 0.0
H1649 H 0.38587 0.32565 0.7557 0.0
H1650 H 0.33537 0.43023 0.7918 0.0
H1651 H 0.35969 0.39565 0.79073 0.0
H1652 H 0.42379 0.40248 0.75213 0.0
C1653 C 0.44579 0.32521 0.72258 0.0
C1654 C 0.39443 0.34228 0.75539 0.0
C1655 C 0.45897 0.30643 0.71551 0.0
C1656 C 0.34773 0.4283 0.77789 0.0
C1657 C 0.36151 0.40848 0.77723 0.0
C1658 C 0.41539 0.38578 0.75316 0.0
C1659 C 0.43116 0.32348 0.74183 0.0
C1660 C 0.4179 0.34404 0.7494 0.0
C1661 C 0.3775 0.40531 0.7593 0.0
C1662 C 0.39169 0.38413 0.75792 0.0
H1663 H 0.44137 0.26716 0.75575 0.0
H1664 H 0.41821 0.30036 0.7683 0.0
H1665 H 0.44658 0.36781 0.74508 0.0
H1666 H 0.3673 0.45448 0.72882 0.0
H1667 H 0.39155 0.42009 0.7279 0.0
C1668 C 0.20287 0.9431 0.2423 0.0
C1669 C 0.20177 0.9561 0.22183 0.0
C1670 C 0.18363 0.93052 0.24986 0.0
C1671 C 0.1203 0.92898 0.24334 0.0
H1672 H 0.12495 0.86561 0.26451 0.0
C1673 C 0.04335 0.86688 0.24357 0.0
C1674 C 0.04083 0.85136 0.26204 0.0
C1675 C 0.06281 0.88099 0.24203 0.0
C1676 C 0.12343 0.88344 0.25902 0.0
H1677 H 0.17996 0.96521 0.19274 0.0
H1678 H 0.14677 0.94324 0.20577 0.0
H1679 H 0.16009 0.88717 0.25521 0.0
H1680 H 0.05655 0.8388 0.29363 0.0
H1681 H 0.09064 0.86357 0.29085 0.0
H1682 H 0.0837 0.92513 0.24657 0.0
C1683 C 0.16223 0.94316 0.21629 0.0
C1684 C 0.14353 0.89575 0.25368 0.0
C1685 C 0.18135 0.95564 0.20875 0.0
C1686 C 0.05795 0.85065 0.27923 0.0
C1687 C 0.07753 0.86469 0.27758 0.0
C1688 C 0.10027 0.9167 0.24864 0.0
C1689 C 0.16299 0.9308 0.2371 0.0
C1690 C 0.1421 0.91844 0.24523 0.0
C1691 C 0.08024 0.87983 0.25883 0.0
C1692 C 0.10159 0.89364 0.256 0.0
H1693 H 0.21837 0.94307 0.25275 0.0
H1694 H 0.18469 0.9211 0.26597 0.0
H1695 H 0.1187 0.94664 0.23738 0.0
H1696 H 0.03052 0.86781 0.23002 0.0
H1697 H 0.06456 0.89228 0.22722 0.0
C1698 C 0.5503 0.71415 0.75002 0.0
C1699 C 0.53823 0.71092 0.7292 0.0
C1700 C 0.56156 0.69553 0.76058 0.0
C1701 C 0.55848 0.63265 0.76366 0.0
H1702 H 0.62405 0.63286 0.7772 0.0
C1703 C 0.61381 0.55195 0.75868 0.0
C1704 C 0.63169 0.54848 0.77462 0.0
C1705 C 0.60083 0.57218 0.75918 0.0
C1706 C 0.60561 0.63269 0.77406 0.0
H1707 H 0.52952 0.6859 0.70264 0.0
H1708 H 0.54891 0.65377 0.72105 0.0
H1709 H 0.60478 0.66899 0.76654 0.0
H1710 H 0.6497 0.56324 0.80396 0.0
H1711 H 0.62697 0.59888 0.80464 0.0
H1712 H 0.55937 0.59632 0.77014 0.0
C1713 C 0.54937 0.67052 0.72938 0.0
C1714 C 0.59464 0.65332 0.76794 0.0
C1715 C 0.5384 0.68901 0.71878 0.0
C1716 C 0.63593 0.56541 0.79151 0.0
C1717 C 0.62305 0.58582 0.79185 0.0
C1718 C 0.56938 0.61213 0.76981 0.0
C1719 C 0.56063 0.67347 0.75056 0.0
C1720 C 0.57122 0.6532 0.76175 0.0
C1721 C 0.60554 0.58946 0.77552 0.0
C1722 C 0.59323 0.61178 0.77409 0.0
H1723 H 0.55056 0.73086 0.75842 0.0
H1724 H 0.57036 0.69817 0.77684 0.0
H1725 H 0.54028 0.63227 0.75933 0.0
H1726 H 0.61013 0.53924 0.74547 0.0
H1727 H 0.58767 0.57468 0.74614 0.0
C1728 C 0.73804 0.9413 0.86209 0.0
C1729 C 0.75435 0.94722 0.8451 0.0
C1730 C 0.74 0.92059 0.87425 0.0
C1731 C 0.78228 0.87634 0.89096 0.0
H1732 H 0.72763 0.84083 0.90677 0.0
C1733 C 0.75831 0.78518 0.9399 0.0
C1734 C 0.77263 0.78798 0.95928 0.0
C1735 C 0.75539 0.80337 0.92419 0.0
C1736 C 0.74305 0.85041 0.90223 0.0
H1737 H 0.78548 0.93593 0.82749 0.0
H1738 H 0.78886 0.89976 0.84873 0.0
H1739 H 0.72404 0.87498 0.88218 0.0
H1740 H 0.79454 0.81231 0.97765 0.0
H1741 H 0.78925 0.84367 0.95063 0.0
H1742 H 0.80131 0.85186 0.91092 0.0
C1743 C 0.77469 0.91128 0.85281 0.0
C1744 C 0.74098 0.8701 0.8884 0.0
C1745 C 0.77276 0.93202 0.84065 0.0
C1746 C 0.78352 0.8094 0.96284 0.0
C1747 C 0.78064 0.8274 0.94725 0.0
C1748 C 0.78433 0.85672 0.90474 0.0
C1749 C 0.75828 0.90529 0.86968 0.0
C1750 C 0.76054 0.88349 0.88295 0.0
C1751 C 0.76684 0.82454 0.92759 0.0
C1752 C 0.7647 0.84383 0.91093 0.0
H1753 H 0.72359 0.95258 0.86589 0.0
H1754 H 0.7273 0.91667 0.88742 0.0
H1755 H 0.79766 0.88632 0.8872 0.0
H1756 H 0.74974 0.76887 0.93666 0.0
H1757 H 0.74464 0.80072 0.90915 0.0
C1758 C 0.75406 0.20894 0.04604 0.0
C1759 C 0.77678 0.21749 0.04694 0.0
C1760 C 0.74733 0.19062 0.0602 0.0
C1761 C 0.7645 0.15565 0.11095 0.0
H1762 H 0.73552 0.10547 0.07738 0.0
C1763 C 0.76685 0.0623 0.14374 0.0
C1764 C 0.74656 0.04909 0.14201 0.0
C1765 C 0.76837 0.08384 0.13308 0.0
C1766 C 0.74328 0.11942 0.0871 0.0
H1767 H 0.80966 0.21479 0.06471 0.0
H1768 H 0.79796 0.1828 0.08925 0.0
H1769 H 0.74095 0.14274 0.0586 0.0
H1770 H 0.71205 0.04799 0.12743 0.0
H1771 H 0.71478 0.08567 0.10874 0.0
H1772 H 0.76731 0.13214 0.13928 0.0
C1773 C 0.78534 0.1902 0.07762 0.0
C1774 C 0.74633 0.1408 0.07638 0.0
C1775 C 0.79209 0.20846 0.06343 0.0
C1776 C 0.728 0.05766 0.12893 0.0
C1777 C 0.72954 0.07924 0.11825 0.0
C1778 C 0.76145 0.13428 0.12167 0.0
C1779 C 0.76313 0.18062 0.07563 0.0
C1780 C 0.75735 0.159 0.08805 0.0
C1781 C 0.74964 0.09267 0.12048 0.0
C1782 C 0.75122 0.11582 0.1097 0.0
H1783 H 0.74177 0.21564 0.03364 0.0
H1784 H 0.72997 0.18381 0.05859 0.0
H1785 H 0.77276 0.16946 0.12047 0.0
H1786 H 0.78147 0.05622 0.15368 0.0
H1787 H 0.78425 0.09359 0.13472 0.0
C1788 C 0.44471 0.26029 0.63835 0.0
C1789 C 0.45563 0.23878 0.64086 0.0
C1790 C 0.42396 0.26208 0.62629 0.0
C1791 C 0.38576 0.23163 0.58517 0.0
H1792 H 0.33968 0.27303 0.61077 0.0
C1793 C 0.29384 0.24229 0.54682 0.0
C1794 C 0.2894 0.26533 0.54072 0.0
C1795 C 0.31267 0.23697 0.56098 0.0
C1796 C 0.35237 0.26133 0.60354 0.0
H1797 H 0.45371 0.20237 0.63214 0.0
H1798 H 0.41732 0.20547 0.61134 0.0
H1799 H 0.37645 0.26797 0.63061 0.0
H1800 H 0.30002 0.30091 0.54538 0.0
H1801 H 0.33239 0.2917 0.57062 0.0
H1802 H 0.36146 0.2251 0.55807 0.0
C1803 C 0.42494 0.221 0.61843 0.0
C1804 C 0.37349 0.25859 0.61473 0.0
C1805 C 0.44581 0.21924 0.63035 0.0
C1806 C 0.30323 0.283 0.54981 0.0
C1807 C 0.32163 0.27776 0.5643 0.0
C1808 C 0.36449 0.23422 0.5741 0.0
C1809 C 0.41356 0.24237 0.61667 0.0
C1810 C 0.39063 0.24411 0.6054 0.0
C1811 C 0.32681 0.25469 0.56963 0.0
C1812 C 0.34784 0.24944 0.58297 0.0
H1813 H 0.45189 0.27569 0.64617 0.0
H1814 H 0.41592 0.27891 0.62476 0.0
H1815 H 0.39864 0.22048 0.57745 0.0
H1816 H 0.28343 0.2284 0.53985 0.0
H1817 H 0.31639 0.21906 0.56494 0.0
C1818 C 0.22791 0.78705 0.06469 0.0
C1819 C 0.24118 0.77967 0.04578 0.0
C1820 C 0.2361 0.80426 0.0793 0.0
C1821 C 0.27269 0.85508 0.07631 0.0
H1822 H 0.25529 0.8604 0.14071 0.0
C1823 C 0.24337 0.92978 0.14332 0.0
C1824 C 0.26161 0.94573 0.14189 0.0
C1825 C 0.24534 0.90809 0.13309 0.0
C1826 C 0.26031 0.85911 0.12274 0.0
H1827 H 0.27417 0.78323 0.02836 0.0
H1828 H 0.28857 0.81348 0.05407 0.0
H1829 H 0.25259 0.82301 0.12148 0.0
H1830 H 0.29604 0.9516 0.1282 0.0
H1831 H 0.29923 0.91368 0.10989 0.0
H1832 H 0.27971 0.89139 0.07746 0.0
C1833 C 0.27171 0.80606 0.05736 0.0
C1834 C 0.25882 0.83774 0.11176 0.0
C1835 C 0.26353 0.78866 0.04275 0.0
C1836 C 0.28164 0.93972 0.12951 0.0
C1837 C 0.28352 0.91804 0.11908 0.0
C1838 C 0.2743 0.87645 0.08735 0.0
C1839 C 0.25775 0.81452 0.07534 0.0
C1840 C 0.26415 0.83568 0.0882 0.0
C1841 C 0.26551 0.90192 0.1211 0.0
C1842 C 0.26731 0.8788 0.11042 0.0
H1843 H 0.2107 0.78027 0.06759 0.0
H1844 H 0.2248 0.8105 0.09284 0.0
H1845 H 0.2767 0.85412 0.05808 0.0
H1846 H 0.22775 0.9338 0.15281 0.0
H1847 H 0.23102 0.89612 0.13453 0.0
C1848 C 0.71434 0.75373 0.55492 0.0
C1849 C 0.70769 0.74288 0.5343 0.0
C1850 C 0.69758 0.76297 0.56972 0.0
C1851 C 0.63612 0.78063 0.57237 0.0
H1852 H 0.63757 0.75611 0.63459 0.0
C1853 C 0.55864 0.78952 0.63442 0.0
C1854 C 0.5523 0.76886 0.64552 0.0
C1855 C 0.57975 0.79122 0.62286 0.0
C1856 C 0.63701 0.7632 0.61731 0.0
H1857 H 0.67857 0.73428 0.51235 0.0
H1858 H 0.6496 0.75033 0.53795 0.0
H1859 H 0.67132 0.75172 0.60968 0.0
H1860 H 0.56329 0.73389 0.65344 0.0
H1861 H 0.59984 0.73674 0.6329 0.0
H1862 H 0.60136 0.79086 0.57944 0.0
C1863 C 0.66762 0.7518 0.54278 0.0
C1864 C 0.65641 0.76095 0.60317 0.0
C1865 C 0.68422 0.74236 0.52823 0.0
C1866 C 0.56758 0.75002 0.64497 0.0
C1867 C 0.58867 0.75174 0.63344 0.0
C1868 C 0.61675 0.78291 0.5865 0.0
C1869 C 0.67405 0.76183 0.56385 0.0
C1870 C 0.6558 0.76886 0.58028 0.0
C1871 C 0.59496 0.77233 0.62224 0.0
C1872 C 0.6167 0.77344 0.60881 0.0
H1873 H 0.73234 0.75435 0.55997 0.0
H1874 H 0.70295 0.77064 0.58589 0.0
H1875 H 0.63532 0.78709 0.55484 0.0
H1876 H 0.54735 0.80444 0.63473 0.0
H1877 H 0.5842 0.80735 0.61447 0.0
C1878 C 0.2311 0.20583 0.92843 0.0
C1879 C 0.24412 0.21405 0.9471 0.0
C1880 C 0.24048 0.18971 0.91326 0.0
C1881 C 0.28057 0.14199 0.91446 0.0
H1882 H 0.26269 0.13711 0.85021 0.0
C1883 C 0.24987 0.06771 0.84885 0.0
C1884 C 0.26789 0.05149 0.84969 0.0
C1885 C 0.25262 0.08951 0.85855 0.0
C1886 C 0.26797 0.13832 0.86809 0.0
H1887 H 0.2777 0.2131 0.96368 0.0
H1888 H 0.29407 0.1846 0.93712 0.0
H1889 H 0.25863 0.174 0.87018 0.0
H1890 H 0.30288 0.04533 0.86167 0.0
H1891 H 0.30744 0.08355 0.87921 0.0
H1892 H 0.28887 0.10598 0.91262 0.0
C1893 C 0.27658 0.19062 0.93436 0.0
C1894 C 0.26569 0.15939 0.87948 0.0
C1895 C 0.26723 0.20697 0.94947 0.0
C1896 C 0.28863 0.05742 0.86086 0.0
C1897 C 0.29129 0.07927 0.87081 0.0
C1898 C 0.28293 0.12089 0.90302 0.0
C1899 C 0.26305 0.18139 0.91649 0.0
C1900 C 0.27096 0.16115 0.90305 0.0
C1901 C 0.2734 0.09558 0.86944 0.0
C1902 C 0.27564 0.11867 0.88005 0.0
H1903 H 0.21331 0.21115 0.92606 0.0
H1904 H 0.2295 0.18275 0.89983 0.0
H1905 H 0.28464 0.14278 0.93268 0.0
H1906 H 0.23371 0.06376 0.84029 0.0
H1907 H 0.23836 0.10161 0.85769 0.0
C1908 C 0.29743 0.7136 0.44453 0.0
C1909 C 0.28349 0.73131 0.45337 0.0
C1910 C 0.31686 0.71881 0.43143 0.0
C1911 C 0.34797 0.76403 0.39928 0.0
H1912 H 0.40109 0.72749 0.41767 0.0
C1913 C 0.44071 0.77885 0.36367 0.0
C1914 C 0.45146 0.75867 0.35546 0.0
C1915 C 0.4203 0.77745 0.37652 0.0
C1916 C 0.38641 0.73778 0.41232 0.0
H1917 H 0.27786 0.76827 0.45438 0.0
H1918 H 0.31243 0.77758 0.43153 0.0
H1919 H 0.36419 0.72164 0.43686 0.0
H1920 H 0.44957 0.72124 0.35464 0.0
H1921 H 0.41424 0.71883 0.37731 0.0
H1922 H 0.37051 0.78011 0.37463 0.0
C1923 C 0.30814 0.75963 0.43463 0.0
C1924 C 0.36525 0.73438 0.42321 0.0
C1925 C 0.28838 0.75435 0.44762 0.0
C1926 C 0.44176 0.73709 0.36081 0.0
C1927 C 0.42156 0.7357 0.37384 0.0
C1928 C 0.36929 0.76752 0.3884 0.0
C1929 C 0.323 0.74189 0.42718 0.0
C1930 C 0.34566 0.74705 0.41645 0.0
C1931 C 0.41051 0.75585 0.3816 0.0
C1932 C 0.38855 0.75405 0.39453 0.0
H1933 H 0.29377 0.69567 0.44851 0.0
H1934 H 0.32757 0.70473 0.42531 0.0
H1935 H 0.33317 0.77404 0.39375 0.0
H1936 H 0.44767 0.79574 0.35961 0.0
H1937 H 0.41214 0.79322 0.38243 0.0
C1938 C 0.55621 0.21718 0.35528 0.0
C1939 C 0.54911 0.23683 0.34289 0.0
C1940 C 0.57779 0.21662 0.36596 0.0
C1941 C 0.6351 0.24443 0.36469 0.0
H1942 H 0.6397 0.22278 0.42782 0.0
C1943 C 0.70482 0.27396 0.42749 0.0
C1944 C 0.71255 0.2589 0.44483 0.0
C1945 C 0.68814 0.26682 0.41176 0.0
C1946 C 0.63886 0.22836 0.41 0.0
H1947 H 0.55902 0.27137 0.33219 0.0
H1948 H 0.59651 0.27053 0.35121 0.0
H1949 H 0.60308 0.21956 0.40746 0.0
H1950 H 0.71026 0.22402 0.45829 0.0
H1951 H 0.68088 0.21148 0.43065 0.0
H1952 H 0.67071 0.25396 0.36754 0.0
C1953 C 0.58552 0.25542 0.35232 0.0
C1954 C 0.61785 0.22661 0.39838 0.0
C1955 C 0.56393 0.256 0.34166 0.0
C1956 C 0.70452 0.23601 0.44514 0.0
C1957 C 0.68763 0.22889 0.42944 0.0
C1958 C 0.65613 0.24616 0.37631 0.0
C1959 C 0.59273 0.23566 0.36443 0.0
C1960 C 0.6156 0.23522 0.37583 0.0
C1961 C 0.67878 0.24448 0.41307 0.0
C1962 C 0.65804 0.23874 0.39931 0.0
H1963 H 0.54528 0.20204 0.3564 0.0
H1964 H 0.58294 0.20112 0.37507 0.0
H1965 H 0.63399 0.25074 0.34713 0.0
H1966 H 0.7109 0.29165 0.4267 0.0
H1967 H 0.68157 0.27931 0.3995 0.0
C1968 C 0.19035 0.25017 0.43138 0.0
C1969 C 0.18091 0.25973 0.45156 0.0
C1970 C 0.17642 0.24625 0.41214 0.0
C1971 C 0.14105 0.22878 0.37787 0.0
H1972 H 0.09118 0.27184 0.3659 0.0
C1973 C 0.06495 0.20666 0.31883 0.0
C1974 C 0.05364 0.22439 0.30674 0.0
C1975 C 0.08302 0.21175 0.33382 0.0
C1976 C 0.10527 0.25986 0.36867 0.0
H1977 H 0.14941 0.27185 0.46782 0.0
H1978 H 0.12492 0.26411 0.43467 0.0
H1979 H 0.11764 0.27918 0.39747 0.0
H1980 H 0.05338 0.26119 0.29973 0.0
H1981 H 0.08547 0.27004 0.32549 0.0
H1982 H 0.12904 0.20979 0.34865 0.0
C1983 C 0.14321 0.26039 0.43333 0.0
C1984 C 0.1202 0.26385 0.38709 0.0
C1985 C 0.15718 0.2646 0.45243 0.0
C1986 C 0.06156 0.2472 0.30905 0.0
C1987 C 0.07987 0.25227 0.32389 0.0
C1988 C 0.12628 0.22494 0.35926 0.0
C1989 C 0.15273 0.25156 0.41282 0.0
C1990 C 0.13793 0.24808 0.39224 0.0
C1991 C 0.09044 0.23465 0.33686 0.0
C1992 C 0.10789 0.24016 0.35476 0.0
H1993 H 0.20866 0.24649 0.43014 0.0
H1994 H 0.18437 0.23967 0.39655 0.0
H1995 H 0.15447 0.21623 0.38137 0.0
H1996 H 0.05932 0.18887 0.31743 0.0
H1997 H 0.09048 0.19777 0.34375 0.0
C1998 C 0.20637 0.67705 0.92621 0.0
C1999 C 0.22447 0.68514 0.94022 0.0
C2000 C 0.21102 0.6633 0.90706 0.0
C2001 C 0.25651 0.64502 0.86677 0.0
H2002 H 0.22116 0.58817 0.86389 0.0
C2003 C 0.28644 0.56553 0.81572 0.0
C2004 C 0.26976 0.5513 0.80533 0.0
C2005 C 0.27975 0.58426 0.82923 0.0
C2006 C 0.23087 0.60416 0.8641 0.0
H2007 H 0.2617 0.68602 0.94449 0.0
H2008 H 0.26979 0.66176 0.91098 0.0
H2009 H 0.21178 0.61693 0.89296 0.0
H2010 H 0.23301 0.54625 0.79998 0.0
H2011 H 0.22132 0.57926 0.82336 0.0
H2012 H 0.2758 0.63208 0.83805 0.0
C2013 C 0.25203 0.66619 0.91488 0.0
C2014 C 0.22554 0.6206 0.88081 0.0
C2015 C 0.24738 0.67992 0.93414 0.0
C2016 C 0.24626 0.55671 0.80802 0.0
C2017 C 0.23957 0.57558 0.82145 0.0
C2018 C 0.26177 0.62861 0.84992 0.0
C2019 C 0.23384 0.65743 0.90144 0.0
C2020 C 0.23852 0.64101 0.88252 0.0
C2021 C 0.25624 0.5893 0.83251 0.0
C2022 C 0.24925 0.60783 0.84868 0.0
H2023 H 0.18851 0.68101 0.93021 0.0
H2024 H 0.19671 0.65703 0.89679 0.0
H2025 H 0.26659 0.66077 0.86758 0.0
H2026 H 0.30471 0.5619 0.81391 0.0
H2027 H 0.29303 0.59429 0.83776 0.0
C2028 C 0.92501 0.77366 0.31247 0.0
C2029 C 0.94433 0.76008 0.3069 0.0
C2030 C 0.90814 0.76526 0.32742 0.0
C2031 C 0.90221 0.72691 0.37621 0.0
H2032 H 0.83667 0.73809 0.36798 0.0
C2033 C 0.83491 0.70418 0.44617 0.0
C2034 C 0.81752 0.72069 0.44998 0.0
C2035 C 0.84973 0.70621 0.42728 0.0
C2036 C 0.85494 0.73498 0.37057 0.0
H2037 H 0.96069 0.7267 0.31176 0.0
H2038 H 0.93116 0.7121 0.33823 0.0
H2039 H 0.86332 0.74579 0.33625 0.0
H2040 H 0.8022 0.75242 0.43718 0.0
H2041 H 0.82845 0.75628 0.40462 0.0
H2042 H 0.89404 0.71699 0.41078 0.0
C2043 C 0.92921 0.72925 0.331 0.0
C2044 C 0.87013 0.73927 0.35239 0.0
C2045 C 0.94601 0.73757 0.31582 0.0
C2046 C 0.81541 0.73939 0.43469 0.0
C2047 C 0.8303 0.74148 0.4159 0.0
C2048 C 0.88704 0.72276 0.39445 0.0
C2049 C 0.91034 0.74319 0.3372 0.0
C2050 C 0.89393 0.7357 0.35521 0.0
C2051 C 0.8475 0.72482 0.4119 0.0
C2052 C 0.86331 0.72722 0.39196 0.0
H2053 H 0.92316 0.791 0.30568 0.0
H2054 H 0.89387 0.77643 0.33208 0.0
H2055 H 0.92054 0.72431 0.37891 0.0
H2056 H 0.8368 0.68942 0.45751 0.0
H2057 H 0.86269 0.69299 0.42453 0.0
C2058 C 0.70142 0.4254 0.81479 0.0
C2059 C 0.71705 0.44259 0.80768 0.0
C2060 C 0.70896 0.40665 0.82775 0.0
C2061 C 0.75976 0.3735 0.84632 0.0
H2062 H 0.72341 0.36363 0.90173 0.0
C2063 C 0.79347 0.32358 0.92524 0.0
C2064 C 0.7777 0.31084 0.93864 0.0
C2065 C 0.78583 0.33667 0.90657 0.0
C2066 C 0.73351 0.36576 0.88613 0.0
H2067 H 0.75308 0.45289 0.80743 0.0
H2068 H 0.76629 0.41999 0.83045 0.0
H2069 H 0.71091 0.39205 0.87361 0.0
H2070 H 0.74178 0.30071 0.94209 0.0
H2071 H 0.72849 0.32327 0.90916 0.0
H2072 H 0.78251 0.34728 0.85904 0.0
C2073 C 0.74819 0.42113 0.82585 0.0
C2074 C 0.72638 0.38212 0.87005 0.0
C2075 C 0.74062 0.44 0.8128 0.0
C2076 C 0.75429 0.31062 0.93231 0.0
C2077 C 0.74668 0.32359 0.9135 0.0
C2078 C 0.76684 0.35696 0.86238 0.0
C2079 C 0.73229 0.40462 0.8339 0.0
C2080 C 0.73953 0.38632 0.85011 0.0
C2081 C 0.7623 0.33716 0.90075 0.0
C2082 C 0.75391 0.35311 0.88259 0.0
H2083 H 0.68319 0.42663 0.81075 0.0
H2084 H 0.69642 0.39393 0.83338 0.0
H2085 H 0.77008 0.37629 0.83096 0.0
H2086 H 0.81166 0.32403 0.92956 0.0
H2087 H 0.79829 0.34711 0.8973 0.0
C2088 C 0.15971 0.72013 0.55306 0.0
C2089 C 0.1783 0.7345 0.54692 0.0
C2090 C 0.14728 0.72421 0.57325 0.0
C2091 C 0.1312 0.76946 0.61346 0.0
H2092 H 0.11504 0.71837 0.65372 0.0
C2093 C 0.07298 0.78457 0.69142 0.0
C2094 C 0.05467 0.76882 0.69372 0.0
C2095 C 0.09179 0.77942 0.67731 0.0
C2096 C 0.11934 0.73279 0.64261 0.0
H2097 H 0.19831 0.76454 0.55702 0.0
H2098 H 0.17617 0.7719 0.59219 0.0
H2099 H 0.14032 0.71171 0.62061 0.0
H2100 H 0.0423 0.73475 0.68435 0.0
H2101 H 0.07479 0.72599 0.65912 0.0
H2102 H 0.10953 0.79039 0.63463 0.0
C2103 C 0.17138 0.75745 0.58134 0.0
C2104 C 0.13381 0.72898 0.62371 0.0
C2105 C 0.18399 0.75324 0.56123 0.0
C2106 C 0.05619 0.74721 0.68287 0.0
C2107 C 0.07489 0.74217 0.66849 0.0
C2108 C 0.11659 0.77324 0.63221 0.0
C2109 C 0.15306 0.74282 0.58761 0.0
C2110 C 0.13952 0.74721 0.60877 0.0
C2111 C 0.09251 0.75855 0.66497 0.0
C2112 C 0.11018 0.75488 0.64679 0.0
H2113 H 0.155 0.70543 0.54252 0.0
H2114 H 0.13301 0.71288 0.57754 0.0
H2115 H 0.13517 0.78376 0.60206 0.0
H2116 H 0.0724 0.80122 0.69993 0.0
H2117 H 0.10537 0.79215 0.67543 0.0
C2118 C 0.71393 0.57037 0.1842 0.0
C2119 C 0.72732 0.5506 0.18855 0.0
C2120 C 0.72172 0.5872 0.16887 0.0
C2121 C 0.75557 0.59056 0.11685 0.0
H2122 H 0.74803 0.6568 0.12333 0.0
C2123 C 0.7806 0.65342 0.04435 0.0
C2124 C 0.76643 0.67279 0.0407 0.0
C2125 C 0.7772 0.63923 0.06345 0.0
C2126 C 0.74997 0.63832 0.12119 0.0
H2127 H 0.75999 0.53363 0.18155 0.0
H2128 H 0.77352 0.56307 0.15443 0.0
H2129 H 0.74136 0.63164 0.15654 0.0
H2130 H 0.73727 0.69222 0.05398 0.0
H2131 H 0.73075 0.66685 0.087 0.0
H2132 H 0.76326 0.59691 0.08141 0.0
C2133 C 0.75698 0.56542 0.16289 0.0
C2134 C 0.74636 0.62399 0.14023 0.0
C2135 C 0.7493 0.54868 0.17846 0.0
C2136 C 0.74844 0.67739 0.05632 0.0
C2137 C 0.74488 0.66301 0.07535 0.0
C2138 C 0.75896 0.60482 0.09778 0.0
C2139 C 0.74293 0.58445 0.15746 0.0
C2140 C 0.749 0.59997 0.13817 0.0
C2141 C 0.75939 0.6439 0.07924 0.0
C2142 C 0.75606 0.62885 0.09968 0.0
H2143 H 0.69699 0.57237 0.19194 0.0
H2144 H 0.71051 0.60165 0.16491 0.0
H2145 H 0.75725 0.57204 0.11468 0.0
H2146 H 0.79485 0.64957 0.03284 0.0
H2147 H 0.78892 0.6249 0.0661 0.0
C2148 C 0.81574 0.28423 0.56584 0.0
C2149 C 0.81139 0.26894 0.54751 0.0
C2150 C 0.83278 0.27922 0.58205 0.0
C2151 C 0.8871 0.24856 0.58688 0.0
H2152 H 0.87887 0.25576 0.6529 0.0
C2153 C 0.95496 0.21801 0.65197 0.0
C2154 C 0.95845 0.23101 0.67213 0.0
C2155 C 0.93728 0.22367 0.63675 0.0
C2156 C 0.88154 0.25405 0.63448 0.0
H2157 H 0.82078 0.23602 0.53228 0.0
H2158 H 0.85078 0.22737 0.56061 0.0
H2159 H 0.84627 0.26246 0.62702 0.0
H2160 H 0.94656 0.26061 0.69178 0.0
H2161 H 0.91592 0.27091 0.66475 0.0
H2162 H 0.92237 0.24057 0.59412 0.0
C2163 C 0.84102 0.24325 0.56228 0.0
C2164 C 0.86285 0.25773 0.61973 0.0
C2165 C 0.82379 0.24814 0.54619 0.0
C2166 C 0.94429 0.25026 0.67639 0.0
C2167 C 0.92663 0.25603 0.66102 0.0
C2168 C 0.90581 0.24511 0.60157 0.0
C2169 C 0.8459 0.25895 0.58009 0.0
C2170 C 0.86546 0.25482 0.59584 0.0
C2171 C 0.92276 0.24258 0.64121 0.0
C2172 C 0.9032 0.24762 0.62555 0.0
H2173 H 0.8063 0.30032 0.56739 0.0
H2174 H 0.83628 0.29161 0.59559 0.0
H2175 H 0.88964 0.24667 0.56846 0.0
H2176 H 0.96542 0.20295 0.64824 0.0
H2177 H 0.93454 0.21273 0.62185 0.0
C2178 C 0.28383 0.42887 0.17936 0.0
C2179 C 0.26692 0.44461 0.18687 0.0
C2180 C 0.27802 0.41089 0.16456 0.0
C2181 C 0.23045 0.37605 0.14191 0.0
H2182 H 0.26995 0.37101 0.08802 0.0
C2183 C 0.20639 0.32213 0.06179 0.0
C2184 C 0.22427 0.31062 0.05007 0.0
C2185 C 0.21136 0.33691 0.0801 0.0
C2186 C 0.25897 0.37189 0.10314 0.0
H2187 H 0.23042 0.45311 0.1857 0.0
H2188 H 0.22028 0.42149 0.15958 0.0
H2189 H 0.27871 0.39953 0.11748 0.0
H2190 H 0.26127 0.30471 0.04903 0.0
H2191 H 0.26991 0.33017 0.0813 0.0
H2192 H 0.21073 0.3483 0.12753 0.0
C2193 C 0.23802 0.42323 0.16525 0.0
C2194 C 0.26395 0.38828 0.11996 0.0
C2195 C 0.24385 0.44135 0.18008 0.0
C2196 C 0.24715 0.3136 0.0575 0.0
C2197 C 0.2521 0.32824 0.07594 0.0
C2198 C 0.22554 0.35948 0.12511 0.0
C2199 C 0.25519 0.40819 0.15699 0.0
C2200 C 0.24975 0.39052 0.13948 0.0
C2201 C 0.23429 0.34034 0.08719 0.0
C2202 C 0.23975 0.35727 0.10552 0.0
H2203 H 0.30172 0.43063 0.18456 0.0
H2204 H 0.29149 0.39926 0.15875 0.0
H2205 H 0.21935 0.37738 0.15691 0.0
H2206 H 0.18855 0.32016 0.05651 0.0
H2207 H 0.19728 0.34617 0.08824 0.0
C2208 C 0.31289 0.05059 0.25033 0.0
C2209 C 0.31386 0.04073 0.22822 0.0
C2210 C 0.32802 0.06847 0.25625 0.0
C2211 C 0.36021 0.11637 0.234 0.0
H2212 H 0.40801 0.10304 0.27882 0.0
C2213 C 0.4403 0.17478 0.244 0.0
C2214 C 0.45057 0.17642 0.26582 0.0
C2215 C 0.42219 0.15925 0.24028 0.0
C2216 C 0.39452 0.10737 0.26665 0.0
H2217 H 0.33057 0.04224 0.19472 0.0
H2218 H 0.35644 0.07393 0.20493 0.0
H2219 H 0.37772 0.07475 0.27171 0.0
H2220 H 0.44938 0.1642 0.30114 0.0
H2221 H 0.41717 0.13812 0.29507 0.0
H2222 H 0.37647 0.14914 0.22914 0.0
C2223 C 0.34433 0.06756 0.21771 0.0
C2224 C 0.37727 0.09107 0.26257 0.0
C2225 C 0.32969 0.04937 0.21199 0.0
C2226 C 0.44205 0.16287 0.284 0.0
C2227 C 0.42363 0.14782 0.28046 0.0
C2228 C 0.37717 0.13293 0.23843 0.0
C2229 C 0.34371 0.07709 0.23989 0.0
C2230 C 0.36024 0.09535 0.24599 0.0
C2231 C 0.41364 0.14553 0.25849 0.0
C2232 C 0.39479 0.1285 0.25456 0.0
H2233 H 0.30077 0.04422 0.26309 0.0
H2234 H 0.32742 0.07566 0.27349 0.0
H2235 H 0.34713 0.1199 0.22112 0.0
H2236 H 0.44661 0.18511 0.22973 0.0
H2237 H 0.41523 0.15773 0.22303 0.0
C2238 C 0.30451 0.93533 0.74764 0.0
C2239 C 0.31219 0.95146 0.76406 0.0
C2240 C 0.31801 0.91603 0.74229 0.0
C2241 C 0.35894 0.88686 0.72495 0.0
H2242 H 0.3902 0.85487 0.7748 0.0
C2243 C 0.44386 0.83815 0.71246 0.0
C2244 C 0.44728 0.8172 0.72422 0.0
C2245 C 0.42419 0.85136 0.71655 0.0
C2246 C 0.38132 0.86333 0.7607 0.0
H2247 H 0.34 0.95998 0.78773 0.0
H2248 H 0.3634 0.92657 0.77829 0.0
H2249 H 0.36086 0.88374 0.78369 0.0
H2250 H 0.43258 0.79352 0.74931 0.0
H2251 H 0.39819 0.81687 0.75664 0.0
H2252 H 0.37985 0.86684 0.70196 0.0
C2253 C 0.34691 0.92868 0.76973 0.0
C2254 C 0.3647 0.87998 0.76579 0.0
C2255 C 0.33359 0.94797 0.77492 0.0
C2256 C 0.43054 0.80969 0.74012 0.0
C2257 C 0.41085 0.823 0.7443 0.0
C2258 C 0.37564 0.87025 0.71985 0.0
C2259 C 0.33921 0.91246 0.7535 0.0
C2260 C 0.3539 0.89238 0.74798 0.0
C2261 C 0.40751 0.84394 0.73252 0.0
C2262 C 0.38746 0.85884 0.73771 0.0
H2263 H 0.28803 0.93752 0.73907 0.0
H2264 H 0.31175 0.90373 0.72968 0.0
H2265 H 0.35086 0.89621 0.71092 0.0
H2266 H 0.45635 0.84437 0.69998 0.0
H2267 H 0.42227 0.86764 0.70754 0.0
C2268 C 0.67828 0.94127 0.238 0.0
C2269 C 0.67488 0.95656 0.21948 0.0
C2270 C 0.66178 0.92446 0.24317 0.0
C2271 C 0.61768 0.90071 0.25851 0.0
H2272 H 0.588 0.86643 0.20926 0.0
C2273 C 0.53786 0.84466 0.27496 0.0
C2274 C 0.53738 0.82262 0.2648 0.0
C2275 C 0.55463 0.8607 0.26861 0.0
C2276 C 0.59627 0.87576 0.22319 0.0
H2277 H 0.65147 0.96615 0.19183 0.0
H2278 H 0.62261 0.93698 0.20107 0.0
H2279 H 0.6179 0.89476 0.19997 0.0
H2280 H 0.5539 0.8003 0.23964 0.0
H2281 H 0.58338 0.82845 0.22858 0.0
H2282 H 0.59631 0.88158 0.28176 0.0
C2283 C 0.63816 0.93784 0.2114 0.0
C2284 C 0.61319 0.89212 0.21787 0.0
C2285 C 0.65462 0.95468 0.20625 0.0
C2286 C 0.55376 0.81716 0.24773 0.0
C2287 C 0.5706 0.83328 0.24136 0.0
C2288 C 0.60075 0.88442 0.26382 0.0
C2289 C 0.64158 0.92255 0.22989 0.0
C2290 C 0.62399 0.90483 0.23548 0.0
C2291 C 0.57136 0.85509 0.25198 0.0
C2292 C 0.58977 0.87189 0.24621 0.0
H2293 H 0.69376 0.94215 0.24844 0.0
H2294 H 0.665 0.91273 0.25737 0.0
H2295 H 0.62555 0.91037 0.27244 0.0
H2296 H 0.52544 0.84951 0.28809 0.0
H2297 H 0.55453 0.87752 0.27679 0.0
C2298 C 0.67238 0.04472 0.74864 0.0
C2299 C 0.67696 0.03761 0.77133 0.0
C2300 C 0.65461 0.0604 0.74422 0.0
C2301 C 0.62238 0.10763 0.76864 0.0
H2302 H 0.5734 0.09017 0.72656 0.0
C2303 C 0.54381 0.16689 0.75265 0.0
C2304 C 0.53525 0.1677 0.73003 0.0
C2305 C 0.56026 0.15033 0.75881 0.0
C2306 C 0.58709 0.0955 0.73809 0.0
H2307 H 0.66716 0.04171 0.80724 0.0
H2308 H 0.63645 0.06965 0.79947 0.0
H2309 H 0.60476 0.06319 0.73435 0.0
H2310 H 0.53744 0.15228 0.696 0.0
H2311 H 0.56663 0.1242 0.70638 0.0
H2312 H 0.60546 0.14027 0.77176 0.0
C2313 C 0.6464 0.0628 0.78518 0.0
C2314 C 0.60494 0.07998 0.74259 0.0
C2315 C 0.66382 0.04677 0.78956 0.0
C2316 C 0.54344 0.1518 0.71369 0.0
C2317 C 0.56013 0.13559 0.7197 0.0
C2318 C 0.60476 0.12337 0.76381 0.0
C2319 C 0.64155 0.06956 0.76248 0.0
C2320 C 0.62271 0.08597 0.75784 0.0
C2321 C 0.56876 0.13459 0.74233 0.0
C2322 C 0.58695 0.11753 0.74838 0.0
H2323 H 0.68227 0.03789 0.7343 0.0
H2324 H 0.65115 0.06554 0.72658 0.0
H2325 H 0.63604 0.11257 0.78041 0.0
H2326 H 0.53772 0.17895 0.76558 0.0
H2327 H 0.56626 0.14985 0.77649 0.0
C2328 C 0.81389 0.71013 0.56756 0.0
C2329 C 0.81013 0.72531 0.54902 0.0
C2330 C 0.83025 0.71533 0.5844 0.0
C2331 C 0.86674 0.76254 0.60771 0.0
H2332 H 0.90611 0.71175 0.62674 0.0
C2333 C 0.9523 0.77647 0.6561 0.0
C2334 C 0.95575 0.76275 0.67581 0.0
C2335 C 0.93422 0.77167 0.64096 0.0
C2336 C 0.89512 0.72603 0.62172 0.0
H2337 H 0.81985 0.75826 0.53408 0.0
H2338 H 0.8488 0.76713 0.56321 0.0
H2339 H 0.87411 0.70449 0.60046 0.0
H2340 H 0.94335 0.73288 0.69477 0.0
H2341 H 0.91192 0.72433 0.66807 0.0
H2342 H 0.88821 0.78412 0.62865 0.0
C2343 C 0.83888 0.75135 0.56494 0.0
C2344 C 0.87672 0.7219 0.60677 0.0
C2345 C 0.82235 0.74625 0.54819 0.0
C2346 C 0.94117 0.74373 0.6797 0.0
C2347 C 0.92321 0.73881 0.66443 0.0
C2348 C 0.88527 0.76669 0.62252 0.0
C2349 C 0.84334 0.73573 0.58298 0.0
C2350 C 0.86234 0.74011 0.59956 0.0
C2351 C 0.91937 0.75296 0.64513 0.0
C2352 C 0.89966 0.74849 0.62959 0.0
H2353 H 0.8045 0.69399 0.56883 0.0
H2354 H 0.83287 0.70319 0.59838 0.0
H2355 H 0.8558 0.77687 0.60276 0.0
H2356 H 0.96315 0.79133 0.65267 0.0
H2357 H 0.93177 0.78267 0.62604 0.0
C2358 C 0.76245 0.31286 0.05873 0.0
C2359 C 0.77106 0.32107 0.03759 0.0
C2360 C 0.75585 0.32837 0.07596 0.0
C2361 C 0.73432 0.38575 0.08613 0.0
H2362 H 0.7666 0.38384 0.14469 0.0
C2363 C 0.72438 0.45897 0.1518 0.0
C2364 C 0.72439 0.4534 0.17535 0.0
C2365 C 0.73012 0.44234 0.13539 0.0
C2366 C 0.75709 0.3844 0.12863 0.0
H2367 H 0.77893 0.35172 0.01754 0.0
H2368 H 0.76659 0.37883 0.04748 0.0
H2369 H 0.77513 0.35494 0.11524 0.0
H2370 H 0.73034 0.42623 0.20034 0.0
H2371 H 0.73945 0.39681 0.17164 0.0
H2372 H 0.71571 0.41462 0.09945 0.0
C2373 C 0.76529 0.36044 0.05074 0.0
C2374 C 0.76209 0.36791 0.11178 0.0
C2375 C 0.77239 0.34497 0.03371 0.0
C2376 C 0.73044 0.43098 0.18226 0.0
C2377 C 0.73573 0.41417 0.1658 0.0
C2378 C 0.72898 0.40195 0.1031 0.0
C2379 C 0.75726 0.35224 0.07206 0.0
C2380 C 0.75094 0.36868 0.09034 0.0
C2381 C 0.73548 0.41962 0.14213 0.0
C2382 C 0.74054 0.40172 0.12446 0.0
H2383 H 0.76144 0.29449 0.06217 0.0
H2384 H 0.74964 0.32176 0.09232 0.0
H2385 H 0.72541 0.38647 0.06972 0.0
H2386 H 0.71999 0.47623 0.14605 0.0
H2387 H 0.73036 0.44739 0.11741 0.0
C2388 C 0.0711 0.19712 0.68028 0.0
C2389 C 0.05726 0.21557 0.68793 0.0
C2390 C 0.09096 0.20129 0.6673 0.0
C2391 C 0.13231 0.24644 0.64914 0.0
H2392 H 0.1346 0.21133 0.59221 0.0
C2393 C 0.17888 0.27876 0.5681 0.0
C2394 C 0.18938 0.26276 0.55316 0.0
C2395 C 0.16664 0.27125 0.5874 0.0
C2396 C 0.13459 0.22095 0.60823 0.0
H2397 H 0.05417 0.25291 0.6891 0.0
H2398 H 0.08878 0.26017 0.66619 0.0
H2399 H 0.10624 0.20142 0.62154 0.0
H2400 H 0.1962 0.22636 0.5474 0.0
H2401 H 0.1749 0.21323 0.58134 0.0
H2402 H 0.16034 0.26634 0.63554 0.0
C2403 C 0.08428 0.24248 0.67036 0.0
C2404 C 0.11829 0.2153 0.62503 0.0
C2405 C 0.06437 0.23832 0.68334 0.0
C2406 C 0.18807 0.2391 0.55843 0.0
C2407 C 0.17584 0.23158 0.57783 0.0
C2408 C 0.14871 0.25204 0.63236 0.0
C2409 C 0.09745 0.22398 0.66175 0.0
C2410 C 0.11664 0.22831 0.64542 0.0
C2411 C 0.1647 0.24757 0.59232 0.0
C2412 C 0.14963 0.23971 0.61148 0.0
H2413 H 0.06632 0.17937 0.68382 0.0
H2414 H 0.10099 0.18673 0.66118 0.0
H2415 H 0.1316 0.25655 0.66485 0.0
H2416 H 0.17967 0.29714 0.56467 0.0
H2417 H 0.15799 0.28402 0.59799 0.0
C2418 C 0.24894 0.56136 0.18641 0.0
C2419 C 0.26614 0.54492 0.18154 0.0
C2420 C 0.24479 0.57957 0.1711 0.0
C2421 C 0.27189 0.61198 0.12325 0.0
H2422 H 0.20887 0.62643 0.10591 0.0
C2423 C 0.21991 0.65732 0.04393 0.0
C2424 C 0.23228 0.67804 0.04128 0.0
C2425 C 0.22411 0.64287 0.06268 0.0
C2426 C 0.22656 0.62255 0.11058 0.0
H2427 H 0.29248 0.53476 0.15679 0.0
H2428 H 0.28502 0.56616 0.13016 0.0
H2429 H 0.21608 0.59781 0.13595 0.0
H2430 H 0.25888 0.69979 0.05622 0.0
H2431 H 0.26624 0.67442 0.08906 0.0
H2432 H 0.2824 0.63605 0.09727 0.0
C2433 C 0.27497 0.56523 0.14591 0.0
C2434 C 0.23067 0.60638 0.12795 0.0
C2435 C 0.27907 0.54708 0.16111 0.0
C2436 C 0.24917 0.68386 0.05768 0.0
C2437 C 0.25339 0.66935 0.07648 0.0
C2438 C 0.26778 0.62816 0.10589 0.0
C2439 C 0.25785 0.5817 0.15075 0.0
C2440 C 0.25339 0.60059 0.13412 0.0
C2441 C 0.24075 0.6488 0.07925 0.0
C2442 C 0.24509 0.63325 0.09906 0.0
H2443 H 0.23877 0.56025 0.20207 0.0
H2444 H 0.23155 0.59211 0.1753 0.0
H2445 H 0.28959 0.60809 0.12789 0.0
H2446 H 0.20677 0.65229 0.03163 0.0
H2447 H 0.21442 0.62692 0.0641 0.0
C2448 C 0.82777 0.28946 0.44135 0.0
C2449 C 0.81408 0.2713 0.44973 0.0
C2450 C 0.84418 0.28544 0.42419 0.0
C2451 C 0.86264 0.24185 0.38065 0.0
H2452 H 0.92049 0.27558 0.38374 0.0
C2453 C 0.94589 0.21552 0.33267 0.0
C2454 C 0.95518 0.23262 0.31818 0.0
C2455 C 0.92821 0.22094 0.34807 0.0
C2456 C 0.90433 0.2662 0.38265 0.0
H2457 H 0.80662 0.23475 0.44686 0.0
H2458 H 0.83603 0.22739 0.41769 0.0
H2459 H 0.89031 0.28336 0.41206 0.0
H2460 H 0.95367 0.2688 0.30862 0.0
H2461 H 0.92312 0.27846 0.33635 0.0
H2462 H 0.8774 0.22396 0.35181 0.0
C2463 C 0.83367 0.24492 0.42374 0.0
C2464 C 0.88696 0.27071 0.39874 0.0
C2465 C 0.81691 0.24907 0.44057 0.0
C2466 C 0.94678 0.25533 0.31963 0.0
C2467 C 0.92941 0.26086 0.33544 0.0
C2468 C 0.88021 0.23705 0.36487 0.0
C2469 C 0.84759 0.26306 0.41539 0.0
C2470 C 0.86588 0.25857 0.39796 0.0
C2471 C 0.91987 0.24362 0.34955 0.0
C2472 C 0.90114 0.24917 0.36581 0.0
H2473 H 0.82565 0.30686 0.44792 0.0
H2474 H 0.85413 0.29994 0.41782 0.0
H2475 H 0.84651 0.23251 0.37918 0.0
H2476 H 0.9519 0.19781 0.33171 0.0
H2477 H 0.9211 0.20744 0.35893 0.0
C2478 C 0.2527 0.31801 0.94282 0.0
C2479 C 0.22996 0.31476 0.9505 0.0
C2480 C 0.25748 0.33419 0.92557 0.0
C2481 C 0.23149 0.3852 0.89656 0.0
H2482 H 0.2809 0.37517 0.85244 0.0
C2483 C 0.24681 0.44178 0.81577 0.0
C2484 C 0.26904 0.45145 0.81472 0.0
C2485 C 0.24185 0.42452 0.83184 0.0
C2486 C 0.26707 0.3781 0.86472 0.0
H2487 H 0.19423 0.32483 0.94564 0.0
H2488 H 0.20232 0.35218 0.9149 0.0
H2489 H 0.27235 0.34551 0.88117 0.0
H2490 H 0.30364 0.45037 0.82901 0.0
H2491 H 0.295 0.41974 0.85678 0.0
H2492 H 0.22589 0.41753 0.87949 0.0
C2493 C 0.21667 0.34313 0.92274 0.0
C2494 C 0.26226 0.36126 0.88126 0.0
C2495 C 0.21199 0.32736 0.94027 0.0
C2496 C 0.2863 0.44334 0.82967 0.0
C2497 C 0.28145 0.42576 0.84538 0.0
C2498 C 0.23602 0.4018 0.87975 0.0
C2499 C 0.23951 0.34701 0.91539 0.0
C2500 C 0.24448 0.36466 0.89748 0.0
C2501 C 0.25917 0.41637 0.84666 0.0
C2502 C 0.25392 0.39842 0.86383 0.0
H2503 H 0.26685 0.3085 0.95052 0.0
H2504 H 0.2753 0.33694 0.9206 0.0
H2505 H 0.21802 0.3887 0.90906 0.0
H2506 H 0.23323 0.44775 0.8044 0.0
H2507 H 0.22455 0.41739 0.83258 0.0
C2508 C 0.17966 0.71547 0.42633 0.0
C2509 C 0.18262 0.73098 0.4447 0.0
C2510 C 0.16542 0.72114 0.40785 0.0
C2511 C 0.13319 0.76924 0.38029 0.0
H2512 H 0.09285 0.71949 0.36062 0.0
C2513 C 0.04816 0.78326 0.33057 0.0
C2514 C 0.04392 0.76858 0.31174 0.0
C2515 C 0.067 0.77934 0.34501 0.0
C2516 C 0.1042 0.73346 0.36572 0.0
H2517 H 0.17391 0.76494 0.45778 0.0
H2518 H 0.14829 0.77462 0.42579 0.0
H2519 H 0.12285 0.71181 0.38889 0.0
H2520 H 0.05617 0.73844 0.29313 0.0
H2521 H 0.08892 0.73141 0.31869 0.0
H2522 H 0.11373 0.79102 0.35759 0.0
C2523 C 0.15733 0.75825 0.42543 0.0
C2524 C 0.12146 0.72908 0.38185 0.0
C2525 C 0.17189 0.75269 0.44381 0.0
C2526 C 0.05893 0.74997 0.30758 0.0
C2527 C 0.07763 0.74592 0.32218 0.0
C2528 C 0.11574 0.77367 0.36428 0.0
C2529 C 0.15353 0.74229 0.40752 0.0
C2530 C 0.13608 0.74693 0.38942 0.0
C2531 C 0.0818 0.76058 0.34101 0.0
C2532 C 0.10103 0.75582 0.35699 0.0
H2533 H 0.1881 0.69875 0.42642 0.0
H2534 H 0.16336 0.70872 0.39404 0.0
H2535 H 0.14437 0.78329 0.38553 0.0
H2536 H 0.03703 0.79788 0.33409 0.0
H2537 H 0.06974 0.79075 0.35957 0.0
C2538 C 0.72511 0.56532 0.80487 0.0
C2539 C 0.71672 0.54492 0.81498 0.0
C2540 C 0.72949 0.58475 0.81839 0.0
C2541 C 0.71748 0.6097 0.87632 0.0
H2542 H 0.77126 0.64711 0.8624 0.0
C2543 C 0.74386 0.68499 0.93537 0.0
C2544 C 0.76753 0.68594 0.9406 0.0
C2545 C 0.73597 0.67123 0.9172 0.0
C2546 C 0.7562 0.63681 0.86658 0.0
H2547 H 0.70663 0.52868 0.84714 0.0
H2548 H 0.71533 0.56219 0.87095 0.0
H2549 H 0.76129 0.61514 0.83725 0.0
H2550 H 0.8016 0.67412 0.93014 0.0
H2551 H 0.78788 0.64973 0.89924 0.0
H2552 H 0.71335 0.63036 0.90653 0.0
C2553 C 0.7178 0.56352 0.85248 0.0
C2554 C 0.75029 0.61863 0.85196 0.0
C2555 C 0.71305 0.54421 0.83889 0.0
C2556 C 0.78321 0.67372 0.92668 0.0
C2557 C 0.77534 0.65985 0.90873 0.0
C2558 C 0.72359 0.62768 0.89112 0.0
C2559 C 0.72592 0.58409 0.84237 0.0
C2560 C 0.73112 0.60455 0.8569 0.0
C2561 C 0.7516 0.65807 0.90403 0.0
C2562 C 0.74332 0.64113 0.88669 0.0
H2563 H 0.72773 0.56648 0.78639 0.0
H2564 H 0.73536 0.60038 0.80995 0.0
H2565 H 0.70228 0.59957 0.88036 0.0
H2566 H 0.73137 0.69442 0.94562 0.0
H2567 H 0.7176 0.67057 0.91375 0.0
C2568 C 0.56605 0.82269 0.71361 0.0
C2569 C 0.54981 0.81279 0.72871 0.0
C2570 C 0.58511 0.83454 0.72216 0.0
C2571 C 0.60442 0.86682 0.77264 0.0
H2572 H 0.66314 0.86532 0.74029 0.0
C2573 C 0.67983 0.92698 0.79687 0.0
C2574 C 0.68893 0.93946 0.77811 0.0
C2575 C 0.66533 0.9081 0.79316 0.0
C2576 C 0.64685 0.86585 0.74951 0.0
H2577 H 0.54122 0.80702 0.76469 0.0
H2578 H 0.57478 0.82783 0.77971 0.0
H2579 H 0.63299 0.83767 0.73014 0.0
H2580 H 0.69077 0.94126 0.74076 0.0
H2581 H 0.66542 0.90828 0.73431 0.0
H2582 H 0.61814 0.89535 0.79164 0.0
C2583 C 0.5725 0.82654 0.76122 0.0
C2584 C 0.6296 0.85008 0.74371 0.0
C2585 C 0.55333 0.81461 0.75263 0.0
C2586 C 0.68392 0.93211 0.75557 0.0
C2587 C 0.66956 0.91312 0.75188 0.0
C2588 C 0.62174 0.8825 0.77854 0.0
C2589 C 0.5885 0.83673 0.74603 0.0
C2590 C 0.60796 0.85087 0.75472 0.0
C2591 C 0.65985 0.90118 0.77063 0.0
C2592 C 0.64286 0.88257 0.76657 0.0
H2593 H 0.56398 0.82154 0.69508 0.0
H2594 H 0.59685 0.84255 0.70999 0.0
H2595 H 0.58786 0.86802 0.78128 0.0
H2596 H 0.68347 0.93207 0.81447 0.0
H2597 H 0.65821 0.89904 0.8079 0.0
C2598 C 0.56664 0.17605 0.2801 0.0
C2599 C 0.55195 0.18679 0.26405 0.0
C2600 C 0.58574 0.16344 0.2727 0.0
C2601 C 0.6065 0.13137 0.22232 0.0
H2602 H 0.66293 0.12741 0.25816 0.0
C2603 C 0.68009 0.07033 0.19666 0.0
C2604 C 0.68783 0.0557 0.21443 0.0
C2605 C 0.66638 0.08946 0.20165 0.0
C2606 C 0.64726 0.12838 0.24802 0.0
H2607 H 0.54646 0.19364 0.22767 0.0
H2608 H 0.58012 0.1718 0.21472 0.0
H2609 H 0.6337 0.15614 0.26827 0.0
H2610 H 0.6882 0.05038 0.25148 0.0
H2611 H 0.66405 0.08386 0.26018 0.0
H2612 H 0.6199 0.10344 0.20228 0.0
C2613 C 0.57651 0.17278 0.23303 0.0
C2614 C 0.63053 0.14477 0.25379 0.0
C2615 C 0.55728 0.18533 0.24045 0.0
C2616 C 0.68238 0.06121 0.2374 0.0
C2617 C 0.66871 0.08046 0.2424 0.0
C2618 C 0.62328 0.11514 0.21646 0.0
C2619 C 0.59074 0.16139 0.24907 0.0
C2620 C 0.60974 0.14609 0.2413 0.0
C2621 C 0.66021 0.09446 0.22451 0.0
C2622 C 0.64361 0.1132 0.22952 0.0
H2623 H 0.56313 0.17691 0.29844 0.0
H2624 H 0.59611 0.15462 0.2855 0.0
H2625 H 0.59055 0.13166 0.21257 0.0
H2626 H 0.68422 0.06678 0.17877 0.0
H2627 H 0.6603 0.10017 0.18758 0.0
C2628 C 0.30538 0.0579 0.74104 0.0
C2629 C 0.30469 0.05378 0.76492 0.0
C2630 C 0.31686 0.07729 0.73234 0.0
C2631 C 0.34292 0.13343 0.74966 0.0
H2632 H 0.38652 0.12021 0.70059 0.0
C2633 C 0.42861 0.18168 0.73745 0.0
C2634 C 0.43673 0.18561 0.71495 0.0
C2635 C 0.40816 0.16944 0.74108 0.0
C2636 C 0.37412 0.12438 0.71397 0.0
H2637 H 0.31455 0.06733 0.79845 0.0
H2638 H 0.33488 0.10062 0.7833 0.0
H2639 H 0.35783 0.0914 0.71114 0.0
H2640 H 0.42901 0.18102 0.67855 0.0
H2641 H 0.39341 0.15953 0.68499 0.0
H2642 H 0.3601 0.166 0.75319 0.0
C2643 C 0.32636 0.08914 0.77125 0.0
C2644 C 0.35764 0.10787 0.72 0.0
C2645 C 0.31493 0.06985 0.77993 0.0
C2646 C 0.42342 0.17799 0.69614 0.0
C2647 C 0.40303 0.16569 0.69978 0.0
C2648 C 0.3595 0.14989 0.74371 0.0
C2649 C 0.32777 0.09291 0.74736 0.0
C2650 C 0.34234 0.11193 0.73838 0.0
C2651 C 0.39546 0.16089 0.72228 0.0
C2652 C 0.37567 0.14523 0.72625 0.0
H2653 H 0.29744 0.04596 0.72905 0.0
H2654 H 0.31748 0.07988 0.71384 0.0
H2655 H 0.33106 0.13721 0.76362 0.0
H2656 H 0.43836 0.18748 0.7523 0.0
H2657 H 0.40284 0.16579 0.75863 0.0
C2658 C 0.42626 0.82143 0.292 0.0
C2659 C 0.43873 0.80891 0.27535 0.0
C2660 C 0.40674 0.83408 0.28573 0.0
C2661 C 0.38198 0.8624 0.2349 0.0
H2662 H 0.32928 0.87228 0.27514 0.0
C2663 C 0.30885 0.92223 0.20779 0.0
C2664 C 0.30291 0.93931 0.22397 0.0
C2665 C 0.32187 0.90313 0.21437 0.0
C2666 C 0.34392 0.86966 0.26379 0.0
H2667 H 0.43966 0.7986 0.23938 0.0
H2668 H 0.40532 0.82034 0.22852 0.0
H2669 H 0.35871 0.84385 0.28574 0.0
H2670 H 0.30463 0.94901 0.26006 0.0
H2671 H 0.32781 0.9156 0.27156 0.0
H2672 H 0.36751 0.88835 0.21314 0.0
C2673 C 0.41101 0.82089 0.2463 0.0
C2674 C 0.36076 0.85344 0.26983 0.0
C2675 C 0.43064 0.8084 0.25253 0.0
C2676 C 0.30908 0.93619 0.2472 0.0
C2677 C 0.32223 0.91703 0.25379 0.0
C2678 C 0.36515 0.87844 0.22882 0.0
C2679 C 0.39916 0.8343 0.26272 0.0
C2680 C 0.38012 0.84986 0.25557 0.0
C2681 C 0.32929 0.9007 0.23727 0.0
C2682 C 0.34608 0.88242 0.24329 0.0
H2683 H 0.43196 0.82208 0.30978 0.0
H2684 H 0.39818 0.8444 0.29875 0.0
H2685 H 0.3969 0.86048 0.22377 0.0
H2686 H 0.30393 0.92388 0.18983 0.0
H2687 H 0.32668 0.89056 0.20139 0.0
loop_
_geom_bond_atom_site_label_1
_geom_bond_atom_site_label_2
_geom_bond_distance
_geom_bond_site_symmetry_2
_ccdc_geom_bond_type
Fe0 O2 1.918 1_455 S
Fe0 O5 1.996 . S
Fe0 O6 2.002 . S
Fe0 O11 1.976 1_455 S
Fe0 O14 1.996 1_455 S
Fe1 O2 1.918 1_455 S
Fe1 O9 1.994 . S
Fe1 O12 1.998 1_455 S
Fe1 O16 1.978 1_455 S
Fe1 O19 2.000 . S
O2 Fe0 1.918 1_655 S
O2 Fe1 1.918 1_655 S
O2 Fe3 1.918 1_655 S
Fe3 O2 1.918 1_455 S
Fe3 O4 2.001 . S
Fe3 O13 1.977 1_455 S
Fe3 O17 1.997 1_455 S
Fe3 O20 1.995 . S
O4 Fe3 2.001 . S
O4 C21 1.295 . S
O5 Fe0 1.996 . S
O5 C21 1.235 . S
O6 Fe0 2.002 . S
O6 C7 1.295 . S
C7 O6 1.295 . S
C7 O9 1.235 . S
C8 O13 1.287 . S
C8 O14 1.255 . S
O9 Fe1 1.994 . S
O9 C7 1.235 . S
C10 O16 1.287 . S
C10 O17 1.255 . S
O11 Fe0 1.976 1_655 S
O11 C18 1.287 . S
O12 Fe1 1.998 1_655 S
O12 C18 1.255 . S
O13 Fe3 1.977 1_655 S
O13 C8 1.287 . S
O14 Fe0 1.996 1_655 S
O14 C8 1.255 . S
C15 O19 1.295 . S
C15 O20 1.235 . S
O16 Fe1 1.978 1_655 S
O16 C10 1.287 . S
O17 Fe3 1.997 1_655 S
O17 C10 1.255 . S
C18 O11 1.287 . S
C18 O12 1.255 . S
O19 Fe1 2.000 . S
O19 C15 1.295 . S
O20 Fe3 1.995 . S
O20 C15 1.235 . S
C21 O4 1.295 . S
C21 O5 1.235 . S
Fe22 O24 1.918 . S
Fe22 O27 1.997 . S
Fe22 O28 2.002 . S
Fe22 O33 1.976 . S
Fe22 O36 1.996 . S
Fe23 O24 1.918 . S
Fe23 O31 1.997 . S
Fe23 O34 1.996 . S
Fe23 O38 1.976 . S
Fe23 O41 2.002 . S
O24 Fe22 1.918 . S
O24 Fe23 1.918 . S
O24 Fe25 1.918 . S
Fe25 O24 1.918 . S
Fe25 O26 2.002 . S
Fe25 O35 1.976 . S
Fe25 O39 1.996 . S
Fe25 O42 1.997 . S
O26 Fe25 2.002 . S
O26 C43 1.295 . S
O27 Fe22 1.997 . S
O27 C43 1.235 . S
O28 Fe22 2.002 . S
O28 C29 1.295 . S
C29 O28 1.295 . S
C29 O31 1.235 . S
C30 O35 1.287 . S
C30 O36 1.255 . S
O31 Fe23 1.997 . S
O31 C29 1.235 . S
C32 O38 1.287 . S
C32 O39 1.255 . S
O33 Fe22 1.976 . S
O33 C40 1.287 . S
O34 Fe23 1.996 . S
O34 C40 1.255 . S
O35 Fe25 1.976 . S
O35 C30 1.287 . S
O36 Fe22 1.996 . S
O36 C30 1.255 . S
C37 O41 1.295 . S
C37 O42 1.235 . S
O38 Fe23 1.976 . S
O38 C32 1.287 . S
O39 Fe25 1.996 . S
O39 C32 1.255 . S
C40 O33 1.287 . S
C40 O34 1.255 . S
O41 Fe23 2.002 . S
O41 C37 1.295 . S
O42 Fe25 1.997 . S
O42 C37 1.235 . S
C43 O26 1.295 . S
C43 O27 1.235 . S
Fe44 O46 1.918 . S
Fe44 O49 1.997 1_455 S
Fe44 O50 2.002 1_455 S
Fe44 O55 1.976 . S
Fe44 O58 1.996 . S
Fe45 O46 1.918 . S
Fe45 O53 1.997 1_455 S
Fe45 O56 1.996 . S
Fe45 O60 1.976 . S
Fe45 O63 2.002 1_455 S
O46 Fe44 1.918 . S
O46 Fe45 1.918 . S
O46 Fe47 1.918 . S
Fe47 O46 1.918 . S
Fe47 O48 2.002 1_455 S
Fe47 O57 1.976 . S
Fe47 O61 1.996 . S
Fe47 O64 1.997 1_455 S
O48 Fe47 2.002 1_655 S
O48 C65 1.295 . S
O49 Fe44 1.997 1_655 S
O49 C65 1.235 . S
O50 Fe44 2.002 1_655 S
O50 C51 1.295 . S
C51 O50 1.295 . S
C51 O53 1.235 . S
C52 O57 1.287 . S
C52 O58 1.255 . S
O53 Fe45 1.997 1_655 S
O53 C51 1.235 . S
C54 O60 1.287 . S
C54 O61 1.255 . S
O55 Fe44 1.976 . S
O55 C62 1.287 . S
O56 Fe45 1.996 . S
O56 C62 1.255 . S
O57 Fe47 1.976 . S
O57 C52 1.287 . S
O58 Fe44 1.996 . S
O58 C52 1.255 . S
C59 O63 1.295 . S
C59 O64 1.235 . S
O60 Fe45 1.976 . S
O60 C54 1.287 . S
O61 Fe47 1.996 . S
O61 C54 1.255 . S
C62 O55 1.287 . S
C62 O56 1.255 . S
O63 Fe45 2.002 1_655 S
O63 C59 1.295 . S
O64 Fe47 1.997 1_655 S
O64 C59 1.235 . S
C65 O48 1.295 . S
C65 O49 1.235 . S
Fe66 O68 1.918 . S
Fe66 O71 1.997 . S
Fe66 O72 2.002 . S
Fe66 O77 1.976 . S
Fe66 O80 1.996 . S
Fe67 O68 1.918 . S
Fe67 O75 1.997 . S
Fe67 O78 1.996 . S
Fe67 O82 1.976 . S
Fe67 O85 2.002 . S
O68 Fe66 1.918 . S
O68 Fe67 1.918 . S
O68 Fe69 1.918 . S
Fe69 O68 1.918 . S
Fe69 O70 2.002 . S
Fe69 O79 1.976 . S
Fe69 O83 1.996 . S
Fe69 O86 1.997 . S
O70 Fe69 2.002 . S
O70 C87 1.295 . S
O71 Fe66 1.997 . S
O71 C87 1.235 . S
O72 Fe66 2.002 . S
O72 C73 1.295 . S
C73 O72 1.295 . S
C73 O75 1.235 . S
C74 O79 1.287 . S
C74 O80 1.255 . S
O75 Fe67 1.997 . S
O75 C73 1.235 . S
C76 O82 1.287 . S
C76 O83 1.255 . S
O77 Fe66 1.976 . S
O77 C84 1.287 . S
O78 Fe67 1.996 . S
O78 C84 1.255 . S
O79 Fe69 1.976 . S
O79 C74 1.287 . S
O80 Fe66 1.996 . S
O80 C74 1.255 . S
C81 O85 1.295 . S
C81 O86 1.235 . S
O82 Fe67 1.976 . S
O82 C76 1.287 . S
O83 Fe69 1.996 . S
O83 C76 1.255 . S
C84 O77 1.287 . S
C84 O78 1.255 . S
O85 Fe67 2.002 . S
O85 C81 1.295 . S
O86 Fe69 1.997 . S
O86 C81 1.235 . S
C87 O70 1.295 . S
C87 O71 1.235 . S
Fe88 O90 1.918 . S
Fe88 O93 2.018 . S
Fe88 O94 2.024 . S
Fe88 O99 1.955 1_455 S
Fe88 O102 1.975 1_455 S
Fe89 O90 1.918 . S
Fe89 O97 2.018 . S
Fe89 O100 1.974 1_455 S
Fe89 O104 1.954 1_455 S
Fe89 O107 2.025 . S
O90 Fe88 1.918 . S
O90 Fe89 1.918 . S
O90 Fe91 1.918 . S
Fe91 O90 1.918 . S
Fe91 O92 2.026 . S
Fe91 O101 1.953 1_455 S
Fe91 O105 1.973 1_455 S
Fe91 O108 2.020 . S
O92 Fe91 2.026 . S
O92 C109 1.295 . S
O93 Fe88 2.018 . S
O93 C109 1.235 . S
O94 Fe88 2.024 . S
O94 C95 1.295 . S
C95 O94 1.295 . S
C95 O97 1.235 . S
C96 O101 1.287 . S
C96 O102 1.255 . S
O97 Fe89 2.018 . S
O97 C95 1.235 . S
C98 O104 1.287 . S
C98 O105 1.255 . S
O99 Fe88 1.955 1_655 S
O99 C106 1.287 . S
O100 Fe89 1.974 1_655 S
O100 C106 1.255 . S
O101 Fe91 1.953 1_655 S
O101 C96 1.287 . S
O102 Fe88 1.975 1_655 S
O102 C96 1.255 . S
C103 O107 1.295 . S
C103 O108 1.235 . S
O104 Fe89 1.954 1_655 S
O104 C98 1.287 . S
O105 Fe91 1.973 1_655 S
O105 C98 1.255 . S
C106 O99 1.287 . S
C106 O100 1.255 . S
O107 Fe89 2.025 . S
O107 C103 1.295 . S
O108 Fe91 2.020 . S
O108 C103 1.235 . S
C109 O92 1.295 . S
C109 O93 1.235 . S
Fe110 O112 1.918 . S
Fe110 O115 1.997 . S
Fe110 O116 2.002 . S
Fe110 O121 1.976 . S
Fe110 O124 1.996 . S
Fe111 O112 1.918 . S
Fe111 O119 1.997 . S
Fe111 O122 1.996 . S
Fe111 O126 1.976 . S
Fe111 O129 2.002 . S
O112 Fe110 1.918 . S
O112 Fe111 1.918 . S
O112 Fe113 1.918 . S
Fe113 O112 1.918 . S
Fe113 O114 2.002 . S
Fe113 O123 1.976 . S
Fe113 O127 1.996 . S
Fe113 O130 1.997 . S
O114 Fe113 2.002 . S
O114 C131 1.295 . S
O115 Fe110 1.997 . S
O115 C131 1.235 . S
O116 Fe110 2.002 . S
O116 C117 1.295 . S
C117 O116 1.295 . S
C117 O119 1.235 . S
C118 O123 1.287 . S
C118 O124 1.255 . S
O119 Fe111 1.997 . S
O119 C117 1.235 . S
C120 O126 1.287 . S
C120 O127 1.255 . S
O121 Fe110 1.976 . S
O121 C128 1.287 . S
O122 Fe111 1.996 . S
O122 C128 1.255 . S
O123 Fe113 1.976 . S
O123 C118 1.287 . S
O124 Fe110 1.996 . S
O124 C118 1.255 . S
C125 O129 1.295 . S
C125 O130 1.235 . S
O126 Fe111 1.976 . S
O126 C120 1.287 . S
O127 Fe113 1.996 . S
O127 C120 1.255 . S
C128 O121 1.287 . S
C128 O122 1.255 . S
O129 Fe111 2.002 . S
O129 C125 1.295 . S
O130 Fe113 1.997 . S
O130 C125 1.235 . S
C131 O114 1.295 . S
C131 O115 1.235 . S
Fe132 O134 1.918 . S
Fe132 O137 1.997 1_455 S
Fe132 O138 2.002 1_455 S
Fe132 O143 1.976 . S
Fe132 O146 1.996 . S
Fe133 O134 1.918 . S
Fe133 O141 1.997 1_455 S
Fe133 O144 1.996 . S
Fe133 O148 1.976 . S
Fe133 O151 2.002 1_455 S
O134 Fe132 1.918 . S
O134 Fe133 1.918 . S
O134 Fe135 1.918 . S
Fe135 O134 1.918 . S
Fe135 O136 2.002 1_455 S
Fe135 O145 1.976 . S
Fe135 O149 1.996 . S
Fe135 O152 1.997 1_455 S
O136 Fe135 2.002 1_655 S
O136 C153 1.295 . S
O137 Fe132 1.997 1_655 S
O137 C153 1.235 . S
O138 Fe132 2.002 1_655 S
O138 C139 1.295 . S
C139 O138 1.295 . S
C139 O141 1.235 . S
C140 O145 1.287 . S
C140 O146 1.255 . S
O141 Fe133 1.997 1_655 S
O141 C139 1.235 . S
C142 O148 1.287 . S
C142 O149 1.255 . S
O143 Fe132 1.976 . S
O143 C150 1.287 . S
O144 Fe133 1.996 . S
O144 C150 1.255 . S
O145 Fe135 1.976 . S
O145 C140 1.287 . S
O146 Fe132 1.996 . S
O146 C140 1.255 . S
C147 O151 1.295 . S
C147 O152 1.235 . S
O148 Fe133 1.976 . S
O148 C142 1.287 . S
O149 Fe135 1.996 . S
O149 C142 1.255 . S
C150 O143 1.287 . S
C150 O144 1.255 . S
O151 Fe133 2.002 1_655 S
O151 C147 1.295 . S
O152 Fe135 1.997 1_655 S
O152 C147 1.235 . S
C153 O136 1.295 . S
C153 O137 1.235 . S
Fe154 O156 1.918 . S
Fe154 O159 1.997 . S
Fe154 O160 2.002 . S
Fe154 O165 1.976 . S
Fe154 O168 1.996 . S
Fe155 O156 1.918 . S
Fe155 O163 1.997 . S
Fe155 O166 1.996 . S
Fe155 O170 1.976 . S
Fe155 O173 2.002 . S
O156 Fe154 1.918 . S
O156 Fe155 1.918 . S
O156 Fe157 1.918 . S
Fe157 O156 1.918 . S
Fe157 O158 2.002 . S
Fe157 O167 1.976 . S
Fe157 O171 1.996 . S
Fe157 O174 1.997 . S
O158 Fe157 2.002 . S
O158 C175 1.295 . S
O159 Fe154 1.997 . S
O159 C175 1.235 . S
O160 Fe154 2.002 . S
O160 C161 1.295 . S
C161 O160 1.295 . S
C161 O163 1.235 . S
C162 O167 1.287 . S
C162 O168 1.255 . S
O163 Fe155 1.997 . S
O163 C161 1.235 . S
C164 O170 1.287 . S
C164 O171 1.255 . S
O165 Fe154 1.976 . S
O165 C172 1.287 . S
O166 Fe155 1.996 . S
O166 C172 1.255 . S
O167 Fe157 1.976 . S
O167 C162 1.287 . S
O168 Fe154 1.996 . S
O168 C162 1.255 . S
C169 O173 1.295 . S
C169 O174 1.235 . S
O170 Fe155 1.976 . S
O170 C164 1.287 . S
O171 Fe157 1.996 . S
O171 C164 1.255 . S
C172 O165 1.287 . S
C172 O166 1.255 . S
O173 Fe155 2.002 . S
O173 C169 1.295 . S
O174 Fe157 1.997 . S
O174 C169 1.235 . S
C175 O158 1.295 . S
C175 O159 1.235 . S
Fe176 O178 1.919 . S
Fe176 O181 1.997 . S
Fe176 O182 2.002 . S
Fe176 O187 1.976 1_545 S
Fe176 O190 1.996 1_545 S
Fe177 O178 1.919 . S
Fe177 O185 1.997 . S
Fe177 O188 1.996 1_545 S
Fe177 O192 1.976 1_545 S
Fe177 O195 2.002 . S
O178 Fe176 1.919 . S
O178 Fe177 1.919 . S
O178 Fe179 1.919 . S
Fe179 O178 1.919 . S
Fe179 O180 2.002 . S
Fe179 O189 1.976 1_545 S
Fe179 O193 1.996 1_545 S
Fe179 O196 1.997 . S
O180 Fe179 2.002 . S
O180 C197 1.295 . S
O181 Fe176 1.997 . S
O181 C197 1.235 . S
O182 Fe176 2.002 . S
O182 C183 1.295 . S
C183 O182 1.295 . S
C183 O185 1.235 . S
C184 O189 1.287 . S
C184 O190 1.255 . S
O185 Fe177 1.997 . S
O185 C183 1.235 . S
C186 O192 1.287 . S
C186 O193 1.255 . S
O187 Fe176 1.976 1_565 S
O187 C194 1.287 . S
O188 Fe177 1.996 1_565 S
O188 C194 1.255 . S
O189 Fe179 1.976 1_565 S
O189 C184 1.287 . S
O190 Fe176 1.996 1_565 S
O190 C184 1.255 . S
C191 O195 1.295 . S
C191 O196 1.235 . S
O192 Fe177 1.976 1_565 S
O192 C186 1.287 . S
O193 Fe179 1.996 1_565 S
O193 C186 1.255 . S
C194 O187 1.287 . S
C194 O188 1.255 . S
O195 Fe177 2.002 . S
O195 C191 1.295 . S
O196 Fe179 1.997 . S
O196 C191 1.235 . S
C197 O180 1.295 . S
C197 O181 1.235 . S
Fe198 O200 1.918 . S
Fe198 O203 1.997 . S
Fe198 O204 2.002 . S
Fe198 O209 1.976 . S
Fe198 O212 1.996 . S
Fe199 O200 1.918 . S
Fe199 O207 1.997 . S
Fe199 O210 1.996 . S
Fe199 O214 1.976 . S
Fe199 O217 2.002 . S
O200 Fe198 1.918 . S
O200 Fe199 1.918 . S
O200 Fe201 1.918 . S
Fe201 O200 1.918 . S
Fe201 O202 2.002 . S
Fe201 O211 1.976 . S
Fe201 O215 1.996 . S
Fe201 O218 1.997 . S
O202 Fe201 2.002 . S
O202 C219 1.295 . S
O203 Fe198 1.997 . S
O203 C219 1.235 . S
O204 Fe198 2.002 . S
O204 C205 1.295 . S
C205 O204 1.295 . S
C205 O207 1.235 . S
C206 O211 1.287 . S
C206 O212 1.255 . S
O207 Fe199 1.997 . S
O207 C205 1.235 . S
C208 O214 1.287 . S
C208 O215 1.255 . S
O209 Fe198 1.976 . S
O209 C216 1.287 . S
O210 Fe199 1.996 . S
O210 C216 1.255 . S
O211 Fe201 1.976 . S
O211 C206 1.287 . S
O212 Fe198 1.996 . S
O212 C206 1.255 . S
C213 O217 1.295 . S
C213 O218 1.235 . S
O214 Fe199 1.976 . S
O214 C208 1.287 . S
O215 Fe201 1.996 . S
O215 C208 1.255 . S
C216 O209 1.287 . S
C216 O210 1.255 . S
O217 Fe199 2.002 . S
O217 C213 1.295 . S
O218 Fe201 1.997 . S
O218 C213 1.235 . S
C219 O202 1.295 . S
C219 O203 1.235 . S
Fe220 O222 1.918 . S
Fe220 O225 1.997 1_545 S
Fe220 O226 2.002 1_545 S
Fe220 O231 1.976 . S
Fe220 O234 1.996 . S
Fe221 O222 1.918 . S
Fe221 O229 1.997 1_545 S
Fe221 O232 1.996 . S
Fe221 O236 1.976 . S
Fe221 O239 2.002 1_545 S
O222 Fe220 1.918 . S
O222 Fe221 1.918 . S
O222 Fe223 1.918 . S
Fe223 O222 1.918 . S
Fe223 O224 2.002 1_545 S
Fe223 O233 1.976 . S
Fe223 O237 1.996 . S
Fe223 O240 1.997 1_545 S
O224 Fe223 2.002 1_565 S
O224 C241 1.295 . S
O225 Fe220 1.997 1_565 S
O225 C241 1.235 . S
O226 Fe220 2.002 1_565 S
O226 C227 1.295 . S
C227 O226 1.295 . S
C227 O229 1.235 . S
C228 O233 1.287 . S
C228 O234 1.255 . S
O229 Fe221 1.997 1_565 S
O229 C227 1.235 . S
C230 O236 1.287 . S
C230 O237 1.255 . S
O231 Fe220 1.976 . S
O231 C238 1.287 . S
O232 Fe221 1.996 . S
O232 C238 1.255 . S
O233 Fe223 1.976 . S
O233 C228 1.287 . S
O234 Fe220 1.996 . S
O234 C228 1.255 . S
C235 O239 1.295 . S
C235 O240 1.235 . S
O236 Fe221 1.976 . S
O236 C230 1.287 . S
O237 Fe223 1.996 . S
O237 C230 1.255 . S
C238 O231 1.287 . S
C238 O232 1.255 . S
O239 Fe221 2.002 1_565 S
O239 C235 1.295 . S
O240 Fe223 1.997 1_565 S
O240 C235 1.235 . S
C241 O224 1.295 . S
C241 O225 1.235 . S
Fe242 O244 1.918 . S
Fe242 O247 1.997 . S
Fe242 O248 2.002 . S
Fe242 O253 1.976 . S
Fe242 O256 1.996 . S
Fe243 O244 1.918 . S
Fe243 O251 1.997 . S
Fe243 O254 1.996 . S
Fe243 O258 1.976 . S
Fe243 O261 2.002 . S
O244 Fe242 1.918 . S
O244 Fe243 1.918 . S
O244 Fe245 1.918 . S
Fe245 O244 1.918 . S
Fe245 O246 2.002 . S
Fe245 O255 1.976 . S
Fe245 O259 1.996 . S
Fe245 O262 1.997 . S
O246 Fe245 2.002 . S
O246 C263 1.295 . S
O247 Fe242 1.997 . S
O247 C263 1.235 . S
O248 Fe242 2.002 . S
O248 C249 1.295 . S
C249 O248 1.295 . S
C249 O251 1.235 . S
C250 O255 1.287 . S
C250 O256 1.255 . S
O251 Fe243 1.997 . S
O251 C249 1.235 . S
C252 O258 1.287 . S
C252 O259 1.255 . S
O253 Fe242 1.976 . S
O253 C260 1.287 . S
O254 Fe243 1.996 . S
O254 C260 1.255 . S
O255 Fe245 1.976 . S
O255 C250 1.287 . S
O256 Fe242 1.996 . S
O256 C250 1.255 . S
C257 O261 1.295 . S
C257 O262 1.235 . S
O258 Fe243 1.976 . S
O258 C252 1.287 . S
O259 Fe245 1.996 . S
O259 C252 1.255 . S
C260 O253 1.287 . S
C260 O254 1.255 . S
O261 Fe243 2.002 . S
O261 C257 1.295 . S
O262 Fe245 1.997 . S
O262 C257 1.235 . S
C263 O246 1.295 . S
C263 O247 1.235 . S
Fe264 O266 1.918 . S
Fe264 O269 1.997 1_545 S
Fe264 O270 2.002 1_545 S
Fe264 O275 1.976 . S
Fe264 O278 1.996 . S
Fe265 O266 1.918 . S
Fe265 O273 1.997 1_545 S
Fe265 O276 1.996 . S
Fe265 O280 1.976 . S
Fe265 O283 2.002 1_545 S
O266 Fe264 1.918 . S
O266 Fe265 1.918 . S
O266 Fe267 1.918 . S
Fe267 O266 1.918 . S
Fe267 O268 2.002 1_545 S
Fe267 O277 1.976 . S
Fe267 O281 1.996 . S
Fe267 O284 1.997 1_545 S
O268 Fe267 2.002 1_565 S
O268 C285 1.295 . S
O269 Fe264 1.997 1_565 S
O269 C285 1.235 . S
O270 Fe264 2.002 1_565 S
O270 C271 1.295 . S
C271 O270 1.295 . S
C271 O273 1.235 . S
C272 O277 1.287 . S
C272 O278 1.255 . S
O273 Fe265 1.997 1_565 S
O273 C271 1.235 . S
C274 O280 1.287 . S
C274 O281 1.255 . S
O275 Fe264 1.976 . S
O275 C282 1.287 . S
O276 Fe265 1.996 . S
O276 C282 1.255 . S
O277 Fe267 1.976 . S
O277 C272 1.287 . S
O278 Fe264 1.996 . S
O278 C272 1.255 . S
C279 O283 1.295 . S
C279 O284 1.235 . S
O280 Fe265 1.976 . S
O280 C274 1.287 . S
O281 Fe267 1.996 . S
O281 C274 1.255 . S
C282 O275 1.287 . S
C282 O276 1.255 . S
O283 Fe265 2.002 1_565 S
O283 C279 1.295 . S
O284 Fe267 1.997 1_565 S
O284 C279 1.235 . S
C285 O268 1.295 . S
C285 O269 1.235 . S
Fe286 O288 1.918 . S
Fe286 O291 1.997 . S
Fe286 O292 2.002 . S
Fe286 O297 1.976 . S
Fe286 O300 1.996 . S
Fe287 O288 1.918 . S
Fe287 O295 1.997 . S
Fe287 O298 1.996 . S
Fe287 O302 1.976 . S
Fe287 O305 2.002 . S
O288 Fe286 1.918 . S
O288 Fe287 1.918 . S
O288 Fe289 1.918 . S
Fe289 O288 1.918 . S
Fe289 O290 2.002 . S
Fe289 O299 1.976 . S
Fe289 O303 1.996 . S
Fe289 O306 1.997 . S
O290 Fe289 2.002 . S
O290 C307 1.295 . S
O291 Fe286 1.997 . S
O291 C307 1.235 . S
O292 Fe286 2.002 . S
O292 C293 1.295 . S
C293 O292 1.295 . S
C293 O295 1.235 . S
C294 O299 1.287 . S
C294 O300 1.255 . S
O295 Fe287 1.997 . S
O295 C293 1.235 . S
C296 O302 1.287 . S
C296 O303 1.255 . S
O297 Fe286 1.976 . S
O297 C304 1.287 . S
O298 Fe287 1.996 . S
O298 C304 1.255 . S
O299 Fe289 1.976 . S
O299 C294 1.287 . S
O300 Fe286 1.996 . S
O300 C294 1.255 . S
C301 O305 1.295 . S
C301 O306 1.235 . S
O302 Fe287 1.976 . S
O302 C296 1.287 . S
O303 Fe289 1.996 . S
O303 C296 1.255 . S
C304 O297 1.287 . S
C304 O298 1.255 . S
O305 Fe287 2.002 . S
O305 C301 1.295 . S
O306 Fe289 1.997 . S
O306 C301 1.235 . S
C307 O290 1.295 . S
C307 O291 1.235 . S
Fe308 O310 1.919 . S
Fe308 O313 1.997 . S
Fe308 O314 2.002 . S
Fe308 O319 1.976 1_545 S
Fe308 O322 1.996 1_545 S
Fe309 O310 1.919 . S
Fe309 O317 1.997 . S
Fe309 O320 1.996 1_545 S
Fe309 O324 1.976 1_545 S
Fe309 O327 2.002 . S
O310 Fe308 1.919 . S
O310 Fe309 1.919 . S
O310 Fe311 1.919 . S
Fe311 O310 1.919 . S
Fe311 O312 2.002 . S
Fe311 O321 1.976 1_545 S
Fe311 O325 1.996 1_545 S
Fe311 O328 1.997 . S
O312 Fe311 2.002 . S
O312 C329 1.295 . S
O313 Fe308 1.997 . S
O313 C329 1.235 . S
O314 Fe308 2.002 . S
O314 C315 1.295 . S
C315 O314 1.295 . S
C315 O317 1.235 . S
C316 O321 1.287 . S
C316 O322 1.255 . S
O317 Fe309 1.997 . S
O317 C315 1.235 . S
C318 O324 1.287 . S
C318 O325 1.255 . S
O319 Fe308 1.976 1_565 S
O319 C326 1.287 . S
O320 Fe309 1.996 1_565 S
O320 C326 1.255 . S
O321 Fe311 1.976 1_565 S
O321 C316 1.287 . S
O322 Fe308 1.996 1_565 S
O322 C316 1.255 . S
C323 O327 1.295 . S
C323 O328 1.235 . S
O324 Fe309 1.976 1_565 S
O324 C318 1.287 . S
O325 Fe311 1.996 1_565 S
O325 C318 1.255 . S
C326 O319 1.287 . S
C326 O320 1.255 . S
O327 Fe309 2.002 . S
O327 C323 1.295 . S
O328 Fe311 1.997 . S
O328 C323 1.235 . S
C329 O312 1.295 . S
C329 O313 1.235 . S
Fe330 O332 1.918 . S
Fe330 O335 1.997 . S
Fe330 O336 2.002 . S
Fe330 O341 1.976 . S
Fe330 O344 1.996 . S
Fe331 O332 1.918 . S
Fe331 O339 1.997 . S
Fe331 O342 1.996 . S
Fe331 O346 1.976 . S
Fe331 O349 2.002 . S
O332 Fe330 1.918 . S
O332 Fe331 1.918 . S
O332 Fe333 1.918 . S
Fe333 O332 1.918 . S
Fe333 O334 2.002 . S
Fe333 O343 1.976 . S
Fe333 O347 1.996 . S
Fe333 O350 1.997 . S
O334 Fe333 2.002 . S
O334 C351 1.295 . S
O335 Fe330 1.997 . S
O335 C351 1.235 . S
O336 Fe330 2.002 . S
O336 C337 1.295 . S
C337 O336 1.295 . S
C337 O339 1.235 . S
C338 O343 1.287 . S
C338 O344 1.255 . S
O339 Fe331 1.997 . S
O339 C337 1.235 . S
C340 O346 1.287 . S
C340 O347 1.255 . S
O341 Fe330 1.976 . S
O341 C348 1.287 . S
O342 Fe331 1.996 . S
O342 C348 1.255 . S
O343 Fe333 1.976 . S
O343 C338 1.287 . S
O344 Fe330 1.996 . S
O344 C338 1.255 . S
C345 O349 1.295 . S
C345 O350 1.235 . S
O346 Fe331 1.976 . S
O346 C340 1.287 . S
O347 Fe333 1.996 . S
O347 C340 1.255 . S
C348 O341 1.287 . S
C348 O342 1.255 . S
O349 Fe331 2.002 . S
O349 C345 1.295 . S
O350 Fe333 1.997 . S
O350 C345 1.235 . S
C351 O334 1.295 . S
C351 O335 1.235 . S
Fe352 O354 1.919 . S
Fe352 O357 1.997 . S
Fe352 O358 2.002 . S
Fe352 O363 1.976 1_554 S
Fe352 O366 1.996 1_554 S
Fe353 O354 1.919 . S
Fe353 O361 1.997 . S
Fe353 O364 1.996 1_554 S
Fe353 O368 1.976 1_554 S
Fe353 O371 2.002 . S
O354 Fe352 1.919 . S
O354 Fe353 1.919 . S
O354 Fe355 1.919 . S
Fe355 O354 1.919 . S
Fe355 O356 2.002 . S
Fe355 O365 1.976 1_554 S
Fe355 O369 1.996 1_554 S
Fe355 O372 1.997 . S
O356 Fe355 2.002 . S
O356 C373 1.295 . S
O357 Fe352 1.997 . S
O357 C373 1.235 . S
O358 Fe352 2.002 . S
O358 C359 1.295 . S
C359 O358 1.295 . S
C359 O361 1.235 . S
C360 O365 1.287 . S
C360 O366 1.255 . S
O361 Fe353 1.997 . S
O361 C359 1.235 . S
C362 O368 1.287 . S
C362 O369 1.255 . S
O363 Fe352 1.976 1_556 S
O363 C370 1.287 . S
O364 Fe353 1.996 1_556 S
O364 C370 1.255 . S
O365 Fe355 1.976 1_556 S
O365 C360 1.287 . S
O366 Fe352 1.996 1_556 S
O366 C360 1.255 . S
C367 O371 1.295 . S
C367 O372 1.235 . S
O368 Fe353 1.976 1_556 S
O368 C362 1.287 . S
O369 Fe355 1.996 1_556 S
O369 C362 1.255 . S
C370 O363 1.287 . S
C370 O364 1.255 . S
O371 Fe353 2.002 . S
O371 C367 1.295 . S
O372 Fe355 1.997 . S
O372 C367 1.235 . S
C373 O356 1.295 . S
C373 O357 1.235 . S
Fe374 O376 1.918 . S
Fe374 O379 1.997 1_554 S
Fe374 O380 2.002 1_554 S
Fe374 O385 1.976 . S
Fe374 O388 1.996 . S
Fe375 O376 1.918 . S
Fe375 O383 1.997 1_554 S
Fe375 O386 1.996 . S
Fe375 O390 1.976 . S
Fe375 O393 2.002 1_554 S
O376 Fe374 1.918 . S
O376 Fe375 1.918 . S
O376 Fe377 1.918 . S
Fe377 O376 1.918 . S
Fe377 O378 2.002 1_554 S
Fe377 O387 1.976 . S
Fe377 O391 1.996 . S
Fe377 O394 1.997 1_554 S
O378 Fe377 2.002 1_556 S
O378 C395 1.295 . S
O379 Fe374 1.997 1_556 S
O379 C395 1.235 . S
O380 Fe374 2.002 1_556 S
O380 C381 1.295 . S
C381 O380 1.295 . S
C381 O383 1.235 . S
C382 O387 1.287 . S
C382 O388 1.255 . S
O383 Fe375 1.997 1_556 S
O383 C381 1.235 . S
C384 O390 1.287 . S
C384 O391 1.255 . S
O385 Fe374 1.976 . S
O385 C392 1.287 . S
O386 Fe375 1.996 . S
O386 C392 1.255 . S
O387 Fe377 1.976 . S
O387 C382 1.287 . S
O388 Fe374 1.996 . S
O388 C382 1.255 . S
C389 O393 1.295 . S
C389 O394 1.235 . S
O390 Fe375 1.976 . S
O390 C384 1.287 . S
O391 Fe377 1.996 . S
O391 C384 1.255 . S
C392 O385 1.287 . S
C392 O386 1.255 . S
O393 Fe375 2.002 1_556 S
O393 C389 1.295 . S
O394 Fe377 1.997 1_556 S
O394 C389 1.235 . S
C395 O378 1.295 . S
C395 O379 1.235 . S
Fe396 O398 1.918 . S
Fe396 O401 1.997 . S
Fe396 O402 2.002 . S
Fe396 O407 1.976 . S
Fe396 O410 1.996 . S
Fe397 O398 1.918 . S
Fe397 O405 1.997 . S
Fe397 O408 1.996 . S
Fe397 O412 1.976 . S
Fe397 O415 2.002 . S
O398 Fe396 1.918 . S
O398 Fe397 1.918 . S
O398 Fe399 1.918 . S
Fe399 O398 1.918 . S
Fe399 O400 2.002 . S
Fe399 O409 1.976 . S
Fe399 O413 1.996 . S
Fe399 O416 1.997 . S
O400 Fe399 2.002 . S
O400 C417 1.295 . S
O401 Fe396 1.997 . S
O401 C417 1.235 . S
O402 Fe396 2.002 . S
O402 C403 1.295 . S
C403 O402 1.295 . S
C403 O405 1.235 . S
C404 O409 1.287 . S
C404 O410 1.255 . S
O405 Fe397 1.997 . S
O405 C403 1.235 . S
C406 O412 1.287 . S
C406 O413 1.255 . S
O407 Fe396 1.976 . S
O407 C414 1.287 . S
O408 Fe397 1.996 . S
O408 C414 1.255 . S
O409 Fe399 1.976 . S
O409 C404 1.287 . S
O410 Fe396 1.996 . S
O410 C404 1.255 . S
C411 O415 1.295 . S
C411 O416 1.235 . S
O412 Fe397 1.976 . S
O412 C406 1.287 . S
O413 Fe399 1.996 . S
O413 C406 1.255 . S
C414 O407 1.287 . S
C414 O408 1.255 . S
O415 Fe397 2.002 . S
O415 C411 1.295 . S
O416 Fe399 1.997 . S
O416 C411 1.235 . S
C417 O400 1.295 . S
C417 O401 1.235 . S
Fe418 O420 1.918 . S
Fe418 O423 1.997 1_554 S
Fe418 O424 2.002 1_554 S
Fe418 O429 1.976 . S
Fe418 O432 1.996 . S
Fe419 O420 1.918 . S
Fe419 O427 1.997 1_554 S
Fe419 O430 1.996 . S
Fe419 O434 1.976 . S
Fe419 O437 2.002 1_554 S
O420 Fe418 1.918 . S
O420 Fe419 1.918 . S
O420 Fe421 1.918 . S
Fe421 O420 1.918 . S
Fe421 O422 2.002 1_554 S
Fe421 O431 1.976 . S
Fe421 O435 1.996 . S
Fe421 O438 1.997 1_554 S
O422 Fe421 2.002 1_556 S
O422 C439 1.295 . S
O423 Fe418 1.997 1_556 S
O423 C439 1.235 . S
O424 Fe418 2.002 1_556 S
O424 C425 1.295 . S
C425 O424 1.295 . S
C425 O427 1.235 . S
C426 O431 1.287 . S
C426 O432 1.255 . S
O427 Fe419 1.997 1_556 S
O427 C425 1.235 . S
C428 O434 1.287 . S
C428 O435 1.255 . S
O429 Fe418 1.976 . S
O429 C436 1.287 . S
O430 Fe419 1.996 . S
O430 C436 1.255 . S
O431 Fe421 1.976 . S
O431 C426 1.287 . S
O432 Fe418 1.996 . S
O432 C426 1.255 . S
C433 O437 1.295 . S
C433 O438 1.235 . S
O434 Fe419 1.976 . S
O434 C428 1.287 . S
O435 Fe421 1.996 . S
O435 C428 1.255 . S
C436 O429 1.287 . S
C436 O430 1.255 . S
O437 Fe419 2.002 1_556 S
O437 C433 1.295 . S
O438 Fe421 1.997 1_556 S
O438 C433 1.235 . S
C439 O422 1.295 . S
C439 O423 1.235 . S
Fe440 O442 1.918 . S
Fe440 O445 1.997 . S
Fe440 O446 2.002 . S
Fe440 O451 1.976 . S
Fe440 O454 1.996 . S
Fe441 O442 1.918 . S
Fe441 O449 1.997 . S
Fe441 O452 1.996 . S
Fe441 O456 1.976 . S
Fe441 O459 2.002 . S
O442 Fe440 1.918 . S
O442 Fe441 1.918 . S
O442 Fe443 1.918 . S
Fe443 O442 1.918 . S
Fe443 O444 2.002 . S
Fe443 O453 1.976 . S
Fe443 O457 1.996 . S
Fe443 O460 1.997 . S
O444 Fe443 2.002 . S
O444 C461 1.295 . S
O445 Fe440 1.997 . S
O445 C461 1.235 . S
O446 Fe440 2.002 . S
O446 C447 1.295 . S
C447 O446 1.295 . S
C447 O449 1.235 . S
C448 O453 1.287 . S
C448 O454 1.255 . S
O449 Fe441 1.997 . S
O449 C447 1.235 . S
C450 O456 1.287 . S
C450 O457 1.255 . S
O451 Fe440 1.976 . S
O451 C458 1.287 . S
O452 Fe441 1.996 . S
O452 C458 1.255 . S
O453 Fe443 1.976 . S
O453 C448 1.287 . S
O454 Fe440 1.996 . S
O454 C448 1.255 . S
C455 O459 1.295 . S
C455 O460 1.235 . S
O456 Fe441 1.976 . S
O456 C450 1.287 . S
O457 Fe443 1.996 . S
O457 C450 1.255 . S
C458 O451 1.287 . S
C458 O452 1.255 . S
O459 Fe441 2.002 . S
O459 C455 1.295 . S
O460 Fe443 1.997 . S
O460 C455 1.235 . S
C461 O444 1.295 . S
C461 O445 1.235 . S
Fe462 O464 1.918 . S
Fe462 O467 2.030 . S
Fe462 O468 2.036 . S
Fe462 O473 1.943 1_554 S
Fe462 O476 1.963 1_554 S
Fe463 O464 1.918 . S
Fe463 O471 2.028 . S
Fe463 O474 1.965 1_554 S
Fe463 O478 1.944 1_554 S
Fe463 O481 2.035 . S
O464 Fe462 1.918 . S
O464 Fe463 1.918 . S
O464 Fe465 1.918 . S
Fe465 O464 1.918 . S
Fe465 O466 2.037 . S
Fe465 O475 1.943 1_554 S
Fe465 O479 1.963 1_554 S
Fe465 O482 2.030 . S
O466 Fe465 2.037 . S
O466 C483 1.295 . S
O467 Fe462 2.030 . S
O467 C483 1.235 . S
O468 Fe462 2.036 . S
O468 C469 1.295 . S
C469 O468 1.295 . S
C469 O471 1.235 . S
C470 O475 1.287 . S
C470 O476 1.255 . S
O471 Fe463 2.028 . S
O471 C469 1.235 . S
C472 O478 1.287 . S
C472 O479 1.255 . S
O473 Fe462 1.943 1_556 S
O473 C480 1.287 . S
O474 Fe463 1.965 1_556 S
O474 C480 1.255 . S
O475 Fe465 1.943 1_556 S
O475 C470 1.287 . S
O476 Fe462 1.963 1_556 S
O476 C470 1.255 . S
C477 O481 1.295 . S
C477 O482 1.235 . S
O478 Fe463 1.944 1_556 S
O478 C472 1.287 . S
O479 Fe465 1.963 1_556 S
O479 C472 1.255 . S
C480 O473 1.287 . S
C480 O474 1.255 . S
O481 Fe463 2.035 . S
O481 C477 1.295 . S
O482 Fe465 2.030 . S
O482 C477 1.235 . S
C483 O466 1.295 . S
C483 O467 1.235 . S
Fe484 O486 1.918 . S
Fe484 O489 1.997 . S
Fe484 O490 2.002 . S
Fe484 O495 1.976 . S
Fe484 O498 1.996 . S
Fe485 O486 1.918 . S
Fe485 O493 1.997 . S
Fe485 O496 1.996 . S
Fe485 O500 1.976 . S
Fe485 O503 2.002 . S
O486 Fe484 1.918 . S
O486 Fe485 1.918 . S
O486 Fe487 1.918 . S
Fe487 O486 1.918 . S
Fe487 O488 2.002 . S
Fe487 O497 1.976 . S
Fe487 O501 1.996 . S
Fe487 O504 1.997 . S
O488 Fe487 2.002 . S
O488 C505 1.295 . S
O489 Fe484 1.997 . S
O489 C505 1.235 . S
O490 Fe484 2.002 . S
O490 C491 1.295 . S
C491 O490 1.295 . S
C491 O493 1.235 . S
C492 O497 1.287 . S
C492 O498 1.255 . S
O493 Fe485 1.997 . S
O493 C491 1.235 . S
C494 O500 1.287 . S
C494 O501 1.255 . S
O495 Fe484 1.976 . S
O495 C502 1.287 . S
O496 Fe485 1.996 . S
O496 C502 1.255 . S
O497 Fe487 1.976 . S
O497 C492 1.287 . S
O498 Fe484 1.996 . S
O498 C492 1.255 . S
C499 O503 1.295 . S
C499 O504 1.235 . S
O500 Fe485 1.976 . S
O500 C494 1.287 . S
O501 Fe487 1.996 . S
O501 C494 1.255 . S
C502 O495 1.287 . S
C502 O496 1.255 . S
O503 Fe485 2.002 . S
O503 C499 1.295 . S
O504 Fe487 1.997 . S
O504 C499 1.235 . S
C505 O488 1.295 . S
C505 O489 1.235 . S
Fe506 O508 1.918 . S
Fe506 O511 1.997 . S
Fe506 O512 2.002 . S
Fe506 O517 1.976 . S
Fe506 O520 1.996 . S
Fe507 O508 1.918 . S
Fe507 O515 1.997 . S
Fe507 O518 1.996 . S
Fe507 O522 1.976 . S
Fe507 O525 2.002 . S
O508 Fe506 1.918 . S
O508 Fe507 1.918 . S
O508 Fe509 1.918 . S
Fe509 O508 1.918 . S
Fe509 O510 2.002 . S
Fe509 O519 1.976 . S
Fe509 O523 1.996 . S
Fe509 O526 1.997 . S
O510 Fe509 2.002 . S
O510 C527 1.295 . S
O511 Fe506 1.997 . S
O511 C527 1.235 . S
O512 Fe506 2.002 . S
O512 C513 1.295 . S
C513 O512 1.295 . S
C513 O515 1.235 . S
C514 O519 1.287 . S
C514 O520 1.255 . S
O515 Fe507 1.997 . S
O515 C513 1.235 . S
C516 O522 1.287 . S
C516 O523 1.255 . S
O517 Fe506 1.976 . S
O517 C524 1.287 . S
O518 Fe507 1.996 . S
O518 C524 1.255 . S
O519 Fe509 1.976 . S
O519 C514 1.287 . S
O520 Fe506 1.996 . S
O520 C514 1.255 . S
C521 O525 1.295 . S
C521 O526 1.235 . S
O522 Fe507 1.976 . S
O522 C516 1.287 . S
O523 Fe509 1.996 . S
O523 C516 1.255 . S
C524 O517 1.287 . S
C524 O518 1.255 . S
O525 Fe507 2.002 . S
O525 C521 1.295 . S
O526 Fe509 1.997 . S
O526 C521 1.235 . S
C527 O510 1.295 . S
C527 O511 1.235 . S
C528 C529 1.349 . S
C528 C530 1.327 . S
C528 H553 0.950 . S
C529 C528 1.349 . S
C529 C545 1.349 . S
C530 C528 1.327 . S
C530 C549 1.429 . S
C530 H554 0.950 . S
C531 C548 1.574 . S
C531 C550 1.368 . S
C531 H555 0.949 . S
H532 C536 0.949 . S
C533 C534 1.349 . S
C533 C535 1.327 . S
C533 H556 0.950 . S
C534 C533 1.349 . S
C534 C546 1.349 . S
C535 C533 1.327 . S
C535 C551 1.429 . S
C535 H557 0.950 . S
C536 H532 0.949 . S
C536 C544 1.574 . S
C536 C552 1.368 . S
H537 C545 0.950 . S
H538 C543 0.950 . S
H539 C544 0.949 . S
H540 C546 0.950 . S
H541 C547 0.950 . S
H542 C548 0.949 . S
C543 H538 0.950 . S
C543 C545 1.327 . S
C543 C549 1.429 . S
C544 C536 1.574 . S
C544 H539 0.949 . S
C544 C550 1.368 . S
C545 C529 1.349 . S
C545 H537 0.950 . S
C545 C543 1.327 . S
C546 C534 1.349 . S
C546 H540 0.950 . S
C546 C547 1.327 . S
C547 H541 0.950 . S
C547 C546 1.327 . S
C547 C551 1.429 . S
C548 C531 1.574 . S
C548 H542 0.949 . S
C548 C552 1.368 . S
C549 C530 1.429 . S
C549 C543 1.429 . S
C549 C550 1.523 . S
C550 C531 1.368 . S
C550 C544 1.368 . S
C550 C549 1.523 . S
C551 C535 1.429 . S
C551 C547 1.429 . S
C551 C552 1.523 . S
C552 C536 1.368 . S
C552 C548 1.368 . S
C552 C551 1.523 . S
H553 C528 0.950 . S
H554 C530 0.950 . S
H555 C531 0.949 . S
H556 C533 0.950 . S
H557 C535 0.950 . S
C558 C559 1.349 . S
C558 C560 1.327 . S
C558 H583 0.950 . S
C559 C558 1.349 . S
C559 C575 1.349 . S
C560 C558 1.327 . S
C560 C579 1.429 . S
C560 H584 0.950 . S
C561 C578 1.574 . S
C561 C580 1.368 . S
C561 H585 0.949 . S
H562 C566 0.949 . S
C563 C564 1.349 . S
C563 C565 1.327 . S
C563 H586 0.950 . S
C564 C563 1.349 . S
C564 C576 1.349 . S
C565 C563 1.327 . S
C565 C581 1.429 . S
C565 H587 0.950 . S
C566 H562 0.949 . S
C566 C574 1.574 . S
C566 C582 1.368 . S
H567 C575 0.950 . S
H568 C573 0.950 . S
H569 C574 0.949 . S
H570 C576 0.950 . S
H571 C577 0.950 . S
H572 C578 0.949 . S
C573 H568 0.950 . S
C573 C575 1.327 . S
C573 C579 1.429 . S
C574 C566 1.574 . S
C574 H569 0.949 . S
C574 C580 1.368 . S
C575 C559 1.349 . S
C575 H567 0.950 . S
C575 C573 1.327 . S
C576 C564 1.349 . S
C576 H570 0.950 . S
C576 C577 1.327 . S
C577 H571 0.950 . S
C577 C576 1.327 . S
C577 C581 1.429 . S
C578 C561 1.574 . S
C578 H572 0.949 . S
C578 C582 1.368 . S
C579 C560 1.429 . S
C579 C573 1.429 . S
C579 C580 1.523 . S
C580 C561 1.368 . S
C580 C574 1.368 . S
C580 C579 1.523 . S
C581 C565 1.429 . S
C581 C577 1.429 . S
C581 C582 1.523 . S
C582 C566 1.368 . S
C582 C578 1.368 . S
C582 C581 1.523 . S
H583 C558 0.950 . S
H584 C560 0.950 . S
H585 C561 0.949 . S
H586 C563 0.950 . S
H587 C565 0.950 . S
C588 C589 1.349 . S
C588 C590 1.327 . S
C588 H613 0.950 . S
C589 C588 1.349 . S
C589 C605 1.349 . S
C590 C588 1.327 . S
C590 C609 1.429 . S
C590 H614 0.950 . S
C591 C608 1.574 . S
C591 C610 1.368 . S
C591 H615 0.949 . S
H592 C596 0.949 . S
C593 C594 1.349 . S
C593 C595 1.327 . S
C593 H616 0.950 . S
C594 C593 1.349 . S
C594 C606 1.349 . S
C595 C593 1.327 . S
C595 C611 1.429 . S
C595 H617 0.950 . S
C596 H592 0.949 . S
C596 C604 1.574 . S
C596 C612 1.368 . S
H597 C605 0.950 . S
H598 C603 0.950 . S
H599 C604 0.949 . S
H600 C606 0.950 . S
H601 C607 0.950 . S
H602 C608 0.949 . S
C603 H598 0.950 . S
C603 C605 1.327 . S
C603 C609 1.429 . S
C604 C596 1.574 . S
C604 H599 0.949 . S
C604 C610 1.368 . S
C605 C589 1.349 . S
C605 H597 0.950 . S
C605 C603 1.327 . S
C606 C594 1.349 . S
C606 H600 0.950 . S
C606 C607 1.327 . S
C607 H601 0.950 . S
C607 C606 1.327 . S
C607 C611 1.429 . S
C608 C591 1.574 . S
C608 H602 0.949 . S
C608 C612 1.368 . S
C609 C590 1.429 . S
C609 C603 1.429 . S
C609 C610 1.523 . S
C610 C591 1.368 . S
C610 C604 1.368 . S
C610 C609 1.523 . S
C611 C595 1.429 . S
C611 C607 1.429 . S
C611 C612 1.523 . S
C612 C596 1.368 . S
C612 C608 1.368 . S
C612 C611 1.523 . S
H613 C588 0.950 . S
H614 C590 0.950 . S
H615 C591 0.949 . S
H616 C593 0.950 . S
H617 C595 0.950 . S
C618 C619 1.349 . S
C618 C620 1.327 . S
C618 H643 0.950 . S
C619 C618 1.349 . S
C619 C635 1.349 . S
C620 C618 1.327 . S
C620 C639 1.429 . S
C620 H644 0.950 . S
C621 C638 1.574 . S
C621 C640 1.368 . S
C621 H645 0.949 . S
H622 C626 0.949 . S
C623 C624 1.349 . S
C623 C625 1.327 . S
C623 H646 0.950 . S
C624 C623 1.349 . S
C624 C636 1.349 . S
C625 C623 1.327 . S
C625 C641 1.429 . S
C625 H647 0.950 . S
C626 H622 0.949 . S
C626 C634 1.574 . S
C626 C642 1.368 . S
H627 C635 0.950 . S
H628 C633 0.950 . S
H629 C634 0.949 . S
H630 C636 0.950 . S
H631 C637 0.950 . S
H632 C638 0.949 . S
C633 H628 0.950 . S
C633 C635 1.327 . S
C633 C639 1.429 . S
C634 C626 1.574 . S
C634 H629 0.949 . S
C634 C640 1.368 . S
C635 C619 1.349 . S
C635 H627 0.950 . S
C635 C633 1.327 . S
C636 C624 1.349 . S
C636 H630 0.950 . S
C636 C637 1.327 . S
C637 H631 0.950 . S
C637 C636 1.327 . S
C637 C641 1.429 . S
C638 C621 1.574 . S
C638 H632 0.949 . S
C638 C642 1.368 . S
C639 C620 1.429 . S
C639 C633 1.429 . S
C639 C640 1.523 . S
C640 C621 1.368 . S
C640 C634 1.368 . S
C640 C639 1.523 . S
C641 C625 1.429 . S
C641 C637 1.429 . S
C641 C642 1.523 . S
C642 C626 1.368 . S
C642 C638 1.368 . S
C642 C641 1.523 . S
H643 C618 0.950 . S
H644 C620 0.950 . S
H645 C621 0.949 . S
H646 C623 0.950 . S
H647 C625 0.950 . S
C648 C649 1.349 . S
C648 C650 1.327 . S
C648 H673 0.950 . S
C649 C648 1.349 . S
C649 C665 1.349 . S
C650 C648 1.327 . S
C650 C669 1.429 . S
C650 H674 0.950 . S
C651 C668 1.574 . S
C651 C670 1.368 . S
C651 H675 0.949 . S
H652 C656 0.949 . S
C653 C654 1.349 . S
C653 C655 1.327 . S
C653 H676 0.950 . S
C654 C653 1.349 . S
C654 C666 1.349 . S
C655 C653 1.327 . S
C655 C671 1.429 . S
C655 H677 0.950 . S
C656 H652 0.949 . S
C656 C664 1.574 . S
C656 C672 1.368 . S
H657 C665 0.950 . S
H658 C663 0.950 . S
H659 C664 0.949 . S
H660 C666 0.950 . S
H661 C667 0.950 . S
H662 C668 0.949 . S
C663 H658 0.950 . S
C663 C665 1.327 . S
C663 C669 1.429 . S
C664 C656 1.574 . S
C664 H659 0.949 . S
C664 C670 1.368 . S
C665 C649 1.349 . S
C665 H657 0.950 . S
C665 C663 1.327 . S
C666 C654 1.349 . S
C666 H660 0.950 . S
C666 C667 1.327 . S
C667 H661 0.950 . S
C667 C666 1.327 . S
C667 C671 1.429 . S
C668 C651 1.574 . S
C668 H662 0.949 . S
C668 C672 1.368 . S
C669 C650 1.429 . S
C669 C663 1.429 . S
C669 C670 1.523 . S
C670 C651 1.368 . S
C670 C664 1.368 . S
C670 C669 1.523 . S
C671 C655 1.429 . S
C671 C667 1.429 . S
C671 C672 1.523 . S
C672 C656 1.368 . S
C672 C668 1.368 . S
C672 C671 1.523 . S
H673 C648 0.950 . S
H674 C650 0.950 . S
H675 C651 0.949 . S
H676 C653 0.950 . S
H677 C655 0.950 . S
C678 C679 1.349 . S
C678 C680 1.327 . S
C678 H703 0.950 . S
C679 C678 1.349 . S
C679 C695 1.349 . S
C680 C678 1.327 . S
C680 C699 1.429 . S
C680 H704 0.950 . S
C681 C698 1.574 . S
C681 C700 1.368 . S
C681 H705 0.949 . S
H682 C686 0.949 . S
C683 C684 1.349 . S
C683 C685 1.327 . S
C683 H706 0.950 . S
C684 C683 1.349 . S
C684 C696 1.349 . S
C685 C683 1.327 . S
C685 C701 1.429 . S
C685 H707 0.950 . S
C686 H682 0.949 . S
C686 C694 1.574 . S
C686 C702 1.368 . S
H687 C695 0.950 . S
H688 C693 0.950 . S
H689 C694 0.949 . S
H690 C696 0.950 . S
H691 C697 0.950 . S
H692 C698 0.949 . S
C693 H688 0.950 . S
C693 C695 1.327 . S
C693 C699 1.429 . S
C694 C686 1.574 . S
C694 H689 0.949 . S
C694 C700 1.368 . S
C695 C679 1.349 . S
C695 H687 0.950 . S
C695 C693 1.327 . S
C696 C684 1.349 . S
C696 H690 0.950 . S
C696 C697 1.327 . S
C697 H691 0.950 . S
C697 C696 1.327 . S
C697 C701 1.429 . S
C698 C681 1.574 . S
C698 H692 0.949 . S
C698 C702 1.368 . S
C699 C680 1.429 . S
C699 C693 1.429 . S
C699 C700 1.523 . S
C700 C681 1.368 . S
C700 C694 1.368 . S
C700 C699 1.523 . S
C701 C685 1.429 . S
C701 C697 1.429 . S
C701 C702 1.523 . S
C702 C686 1.368 . S
C702 C698 1.368 . S
C702 C701 1.523 . S
H703 C678 0.950 . S
H704 C680 0.950 . S
H705 C681 0.949 . S
H706 C683 0.950 . S
H707 C685 0.950 . S
C708 C709 1.349 . S
C708 C710 1.327 . S
C708 H733 0.950 . S
C709 C708 1.349 . S
C709 C725 1.349 . S
C710 C708 1.327 . S
C710 C729 1.429 . S
C710 H734 0.950 . S
C711 C728 1.574 . S
C711 C730 1.368 . S
C711 H735 0.949 . S
H712 C716 0.949 . S
C713 C714 1.349 . S
C713 C715 1.327 . S
C713 H736 0.950 . S
C714 C713 1.349 . S
C714 C726 1.349 . S
C715 C713 1.327 . S
C715 C731 1.429 . S
C715 H737 0.950 . S
C716 H712 0.949 . S
C716 C724 1.574 . S
C716 C732 1.368 . S
H717 C725 0.950 . S
H718 C723 0.950 . S
H719 C724 0.949 . S
H720 C726 0.950 . S
H721 C727 0.950 . S
H722 C728 0.949 . S
C723 H718 0.950 . S
C723 C725 1.327 . S
C723 C729 1.429 . S
C724 C716 1.574 . S
C724 H719 0.949 . S
C724 C730 1.368 . S
C725 C709 1.349 . S
C725 H717 0.950 . S
C725 C723 1.327 . S
C726 C714 1.349 . S
C726 H720 0.950 . S
C726 C727 1.327 . S
C727 H721 0.950 . S
C727 C726 1.327 . S
C727 C731 1.429 . S
C728 C711 1.574 . S
C728 H722 0.949 . S
C728 C732 1.368 . S
C729 C710 1.429 . S
C729 C723 1.429 . S
C729 C730 1.523 . S
C730 C711 1.368 . S
C730 C724 1.368 . S
C730 C729 1.523 . S
C731 C715 1.429 . S
C731 C727 1.429 . S
C731 C732 1.523 . S
C732 C716 1.368 . S
C732 C728 1.368 . S
C732 C731 1.523 . S
H733 C708 0.950 . S
H734 C710 0.950 . S
H735 C711 0.949 . S
H736 C713 0.950 . S
H737 C715 0.950 . S
C738 C739 1.349 . S
C738 C740 1.327 . S
C738 H763 0.950 . S
C739 C738 1.349 . S
C739 C755 1.349 . S
C740 C738 1.327 . S
C740 C759 1.429 . S
C740 H764 0.950 . S
C741 C758 1.574 . S
C741 C760 1.368 . S
C741 H765 0.949 . S
H742 C746 0.949 . S
C743 C744 1.349 . S
C743 C745 1.327 . S
C743 H766 0.950 . S
C744 C743 1.349 . S
C744 C756 1.349 . S
C745 C743 1.327 . S
C745 C761 1.429 . S
C745 H767 0.950 . S
C746 H742 0.949 . S
C746 C754 1.574 . S
C746 C762 1.368 . S
H747 C755 0.950 . S
H748 C753 0.950 . S
H749 C754 0.949 . S
H750 C756 0.950 . S
H751 C757 0.950 . S
H752 C758 0.949 . S
C753 H748 0.950 . S
C753 C755 1.327 . S
C753 C759 1.429 . S
C754 C746 1.574 . S
C754 H749 0.949 . S
C754 C760 1.368 . S
C755 C739 1.349 . S
C755 H747 0.950 . S
C755 C753 1.327 . S
C756 C744 1.349 . S
C756 H750 0.950 . S
C756 C757 1.327 . S
C757 H751 0.950 . S
C757 C756 1.327 . S
C757 C761 1.429 . S
C758 C741 1.574 . S
C758 H752 0.949 . S
C758 C762 1.368 . S
C759 C740 1.429 . S
C759 C753 1.429 . S
C759 C760 1.523 . S
C760 C741 1.368 . S
C760 C754 1.368 . S
C760 C759 1.523 . S
C761 C745 1.429 . S
C761 C757 1.429 . S
C761 C762 1.523 . S
C762 C746 1.368 . S
C762 C758 1.368 . S
C762 C761 1.523 . S
H763 C738 0.950 . S
H764 C740 0.950 . S
H765 C741 0.949 . S
H766 C743 0.950 . S
H767 C745 0.950 . S
C768 C769 1.349 . S
C768 C770 1.327 . S
C768 H793 0.950 . S
C769 C768 1.349 . S
C769 C785 1.349 . S
C770 C768 1.327 . S
C770 C789 1.429 . S
C770 H794 0.950 . S
C771 C788 1.574 . S
C771 C790 1.368 . S
C771 H795 0.949 . S
H772 C776 0.949 . S
C773 C774 1.349 . S
C773 C775 1.327 . S
C773 H796 0.950 . S
C774 C773 1.349 . S
C774 C786 1.349 . S
C775 C773 1.327 . S
C775 C791 1.429 . S
C775 H797 0.950 . S
C776 H772 0.949 . S
C776 C784 1.574 . S
C776 C792 1.368 . S
H777 C785 0.950 . S
H778 C783 0.950 . S
H779 C784 0.949 . S
H780 C786 0.950 . S
H781 C787 0.950 . S
H782 C788 0.949 . S
C783 H778 0.950 . S
C783 C785 1.327 . S
C783 C789 1.429 . S
C784 C776 1.574 . S
C784 H779 0.949 . S
C784 C790 1.368 . S
C785 C769 1.349 . S
C785 H777 0.950 . S
C785 C783 1.327 . S
C786 C774 1.349 . S
C786 H780 0.950 . S
C786 C787 1.327 . S
C787 H781 0.950 . S
C787 C786 1.327 . S
C787 C791 1.429 . S
C788 C771 1.574 . S
C788 H782 0.949 . S
C788 C792 1.368 . S
C789 C770 1.429 . S
C789 C783 1.429 . S
C789 C790 1.523 . S
C790 C771 1.368 . S
C790 C784 1.368 . S
C790 C789 1.523 . S
C791 C775 1.429 . S
C791 C787 1.429 . S
C791 C792 1.523 . S
C792 C776 1.368 . S
C792 C788 1.368 . S
C792 C791 1.523 . S
H793 C768 0.950 . S
H794 C770 0.950 . S
H795 C771 0.949 . S
H796 C773 0.950 . S
H797 C775 0.950 . S
C798 C799 1.349 . S
C798 C800 1.327 . S
C798 H823 0.950 . S
C799 C798 1.349 . S
C799 C815 1.349 . S
C800 C798 1.327 . S
C800 C819 1.429 . S
C800 H824 0.950 . S
C801 C818 1.574 . S
C801 C820 1.368 . S
C801 H825 0.949 . S
H802 C806 0.949 . S
C803 C804 1.349 . S
C803 C805 1.327 . S
C803 H826 0.950 . S
C804 C803 1.349 . S
C804 C816 1.349 . S
C805 C803 1.327 . S
C805 C821 1.429 . S
C805 H827 0.950 . S
C806 H802 0.949 . S
C806 C814 1.574 . S
C806 C822 1.368 . S
H807 C815 0.950 . S
H808 C813 0.950 . S
H809 C814 0.949 . S
H810 C816 0.950 . S
H811 C817 0.950 . S
H812 C818 0.949 . S
C813 H808 0.950 . S
C813 C815 1.327 . S
C813 C819 1.429 . S
C814 C806 1.574 . S
C814 H809 0.949 . S
C814 C820 1.368 . S
C815 C799 1.349 . S
C815 H807 0.950 . S
C815 C813 1.327 . S
C816 C804 1.349 . S
C816 H810 0.950 . S
C816 C817 1.327 . S
C817 H811 0.950 . S
C817 C816 1.327 . S
C817 C821 1.429 . S
C818 C801 1.574 . S
C818 H812 0.949 . S
C818 C822 1.368 . S
C819 C800 1.429 . S
C819 C813 1.429 . S
C819 C820 1.523 . S
C820 C801 1.368 . S
C820 C814 1.368 . S
C820 C819 1.523 . S
C821 C805 1.429 . S
C821 C817 1.429 . S
C821 C822 1.523 . S
C822 C806 1.368 . S
C822 C818 1.368 . S
C822 C821 1.523 . S
H823 C798 0.950 . S
H824 C800 0.950 . S
H825 C801 0.949 . S
H826 C803 0.950 . S
H827 C805 0.950 . S
C828 C829 1.349 . S
C828 C830 1.327 . S
C828 H853 0.950 . S
C829 C828 1.349 . S
C829 C845 1.349 . S
C830 C828 1.327 . S
C830 C849 1.429 . S
C830 H854 0.950 . S
C831 C848 1.574 . S
C831 C850 1.368 . S
C831 H855 0.949 . S
H832 C836 0.949 . S
C833 C834 1.349 . S
C833 C835 1.327 . S
C833 H856 0.950 . S
C834 C833 1.349 . S
C834 C846 1.349 . S
C835 C833 1.327 . S
C835 C851 1.429 . S
C835 H857 0.950 . S
C836 H832 0.949 . S
C836 C844 1.574 . S
C836 C852 1.368 . S
H837 C845 0.950 . S
H838 C843 0.950 . S
H839 C844 0.949 . S
H840 C846 0.950 . S
H841 C847 0.950 . S
H842 C848 0.949 . S
C843 H838 0.950 . S
C843 C845 1.327 . S
C843 C849 1.429 . S
C844 C836 1.574 . S
C844 H839 0.949 . S
C844 C850 1.368 . S
C845 C829 1.349 . S
C845 H837 0.950 . S
C845 C843 1.327 . S
C846 C834 1.349 . S
C846 H840 0.950 . S
C846 C847 1.327 . S
C847 H841 0.950 . S
C847 C846 1.327 . S
C847 C851 1.429 . S
C848 C831 1.574 . S
C848 H842 0.949 . S
C848 C852 1.368 . S
C849 C830 1.429 . S
C849 C843 1.429 . S
C849 C850 1.523 . S
C850 C831 1.368 . S
C850 C844 1.368 . S
C850 C849 1.523 . S
C851 C835 1.429 . S
C851 C847 1.429 . S
C851 C852 1.523 . S
C852 C836 1.368 . S
C852 C848 1.368 . S
C852 C851 1.523 . S
H853 C828 0.950 . S
H854 C830 0.950 . S
H855 C831 0.949 . S
H856 C833 0.950 . S
H857 C835 0.950 . S
C858 C859 1.349 . S
C858 C860 1.327 . S
C858 H883 0.950 . S
C859 C858 1.349 . S
C859 C875 1.349 . S
C860 C858 1.327 . S
C860 C879 1.429 . S
C860 H884 0.950 . S
C861 C878 1.574 . S
C861 C880 1.368 . S
C861 H885 0.949 . S
H862 C866 0.949 . S
C863 C864 1.349 . S
C863 C865 1.327 . S
C863 H886 0.950 . S
C864 C863 1.349 . S
C864 C876 1.349 . S
C865 C863 1.327 . S
C865 C881 1.429 . S
C865 H887 0.950 . S
C866 H862 0.949 . S
C866 C874 1.574 . S
C866 C882 1.368 . S
H867 C875 0.950 . S
H868 C873 0.950 . S
H869 C874 0.949 . S
H870 C876 0.950 . S
H871 C877 0.950 . S
H872 C878 0.949 . S
C873 H868 0.950 . S
C873 C875 1.327 . S
C873 C879 1.429 . S
C874 C866 1.574 . S
C874 H869 0.949 . S
C874 C880 1.368 . S
C875 C859 1.349 . S
C875 H867 0.950 . S
C875 C873 1.327 . S
C876 C864 1.349 . S
C876 H870 0.950 . S
C876 C877 1.327 . S
C877 H871 0.950 . S
C877 C876 1.327 . S
C877 C881 1.429 . S
C878 C861 1.574 . S
C878 H872 0.949 . S
C878 C882 1.368 . S
C879 C860 1.429 . S
C879 C873 1.429 . S
C879 C880 1.523 . S
C880 C861 1.368 . S
C880 C874 1.368 . S
C880 C879 1.523 . S
C881 C865 1.429 . S
C881 C877 1.429 . S
C881 C882 1.523 . S
C882 C866 1.368 . S
C882 C878 1.368 . S
C882 C881 1.523 . S
H883 C858 0.950 . S
H884 C860 0.950 . S
H885 C861 0.949 . S
H886 C863 0.950 . S
H887 C865 0.950 . S
C888 C889 1.349 . S
C888 C890 1.327 . S
C888 H913 0.950 . S
C889 C888 1.349 . S
C889 C905 1.349 . S
C890 C888 1.327 . S
C890 C909 1.429 . S
C890 H914 0.950 . S
C891 C908 1.574 . S
C891 C910 1.368 . S
C891 H915 0.949 . S
H892 C896 0.949 . S
C893 C894 1.349 . S
C893 C895 1.327 . S
C893 H916 0.950 . S
C894 C893 1.349 . S
C894 C906 1.349 . S
C895 C893 1.327 . S
C895 C911 1.429 . S
C895 H917 0.950 . S
C896 H892 0.949 . S
C896 C904 1.574 . S
C896 C912 1.368 . S
H897 C905 0.950 . S
H898 C903 0.950 . S
H899 C904 0.949 . S
H900 C906 0.950 . S
H901 C907 0.950 . S
H902 C908 0.949 . S
C903 H898 0.950 . S
C903 C905 1.327 . S
C903 C909 1.429 . S
C904 C896 1.574 . S
C904 H899 0.949 . S
C904 C910 1.368 . S
C905 C889 1.349 . S
C905 H897 0.950 . S
C905 C903 1.327 . S
C906 C894 1.349 . S
C906 H900 0.950 . S
C906 C907 1.327 . S
C907 H901 0.950 . S
C907 C906 1.327 . S
C907 C911 1.429 . S
C908 C891 1.574 . S
C908 H902 0.949 . S
C908 C912 1.368 . S
C909 C890 1.429 . S
C909 C903 1.429 . S
C909 C910 1.523 . S
C910 C891 1.368 . S
C910 C904 1.368 . S
C910 C909 1.523 . S
C911 C895 1.429 . S
C911 C907 1.429 . S
C911 C912 1.523 . S
C912 C896 1.368 . S
C912 C908 1.368 . S
C912 C911 1.523 . S
H913 C888 0.950 . S
H914 C890 0.950 . S
H915 C891 0.949 . S
H916 C893 0.950 . S
H917 C895 0.950 . S
C918 C919 1.349 . S
C918 C920 1.327 . S
C918 H943 0.950 . S
C919 C918 1.349 . S
C919 C935 1.349 . S
C920 C918 1.327 . S
C920 C939 1.429 . S
C920 H944 0.950 . S
C921 C938 1.574 . S
C921 C940 1.368 . S
C921 H945 0.949 . S
H922 C926 0.949 . S
C923 C924 1.349 . S
C923 C925 1.327 . S
C923 H946 0.950 . S
C924 C923 1.349 . S
C924 C936 1.349 . S
C925 C923 1.327 . S
C925 C941 1.429 . S
C925 H947 0.950 . S
C926 H922 0.949 . S
C926 C934 1.574 . S
C926 C942 1.368 . S
H927 C935 0.950 . S
H928 C933 0.950 . S
H929 C934 0.949 . S
H930 C936 0.950 . S
H931 C937 0.950 . S
H932 C938 0.949 . S
C933 H928 0.950 . S
C933 C935 1.327 . S
C933 C939 1.429 . S
C934 C926 1.574 . S
C934 H929 0.949 . S
C934 C940 1.368 . S
C935 C919 1.349 . S
C935 H927 0.950 . S
C935 C933 1.327 . S
C936 C924 1.349 . S
C936 H930 0.950 . S
C936 C937 1.327 . S
C937 H931 0.950 . S
C937 C936 1.327 . S
C937 C941 1.429 . S
C938 C921 1.574 . S
C938 H932 0.949 . S
C938 C942 1.368 . S
C939 C920 1.429 . S
C939 C933 1.429 . S
C939 C940 1.523 . S
C940 C921 1.368 . S
C940 C934 1.368 . S
C940 C939 1.523 . S
C941 C925 1.429 . S
C941 C937 1.429 . S
C941 C942 1.523 . S
C942 C926 1.368 . S
C942 C938 1.368 . S
C942 C941 1.523 . S
H943 C918 0.950 . S
H944 C920 0.950 . S
H945 C921 0.949 . S
H946 C923 0.950 . S
H947 C925 0.950 . S
C948 C949 1.349 . S
C948 C950 1.327 . S
C948 H973 0.950 . S
C949 C948 1.349 . S
C949 C965 1.349 . S
C950 C948 1.327 . S
C950 C969 1.429 . S
C950 H974 0.950 . S
C951 C968 1.574 . S
C951 C970 1.368 . S
C951 H975 0.949 . S
H952 C956 0.949 . S
C953 C954 1.349 . S
C953 C955 1.327 . S
C953 H976 0.950 . S
C954 C953 1.349 . S
C954 C966 1.349 . S
C955 C953 1.327 . S
C955 C971 1.429 . S
C955 H977 0.950 . S
C956 H952 0.949 . S
C956 C964 1.574 . S
C956 C972 1.368 . S
H957 C965 0.950 . S
H958 C963 0.950 . S
H959 C964 0.949 . S
H960 C966 0.950 . S
H961 C967 0.950 . S
H962 C968 0.949 . S
C963 H958 0.950 . S
C963 C965 1.327 . S
C963 C969 1.429 . S
C964 C956 1.574 . S
C964 H959 0.949 . S
C964 C970 1.368 . S
C965 C949 1.349 . S
C965 H957 0.950 . S
C965 C963 1.327 . S
C966 C954 1.349 . S
C966 H960 0.950 . S
C966 C967 1.327 . S
C967 H961 0.950 . S
C967 C966 1.327 . S
C967 C971 1.429 . S
C968 C951 1.574 . S
C968 H962 0.949 . S
C968 C972 1.368 . S
C969 C950 1.429 . S
C969 C963 1.429 . S
C969 C970 1.523 . S
C970 C951 1.368 . S
C970 C964 1.368 . S
C970 C969 1.523 . S
C971 C955 1.429 . S
C971 C967 1.429 . S
C971 C972 1.523 . S
C972 C956 1.368 . S
C972 C968 1.368 . S
C972 C971 1.523 . S
H973 C948 0.950 . S
H974 C950 0.950 . S
H975 C951 0.949 . S
H976 C953 0.950 . S
H977 C955 0.950 . S
C978 C979 1.349 . S
C978 C980 1.327 . S
C978 H1003 0.950 . S
C979 C978 1.349 . S
C979 C995 1.349 . S
C980 C978 1.327 . S
C980 C999 1.429 . S
C980 H1004 0.950 . S
C981 C998 1.574 . S
C981 C1000 1.368 . S
C981 H1005 0.949 . S
H982 C986 0.949 . S
C983 C984 1.349 . S
C983 C985 1.327 . S
C983 H1006 0.950 . S
C984 C983 1.349 . S
C984 C996 1.349 . S
C985 C983 1.327 . S
C985 C1001 1.429 . S
C985 H1007 0.950 . S
C986 H982 0.949 . S
C986 C994 1.574 . S
C986 C1002 1.368 . S
H987 C995 0.950 . S
H988 C993 0.950 . S
H989 C994 0.949 . S
H990 C996 0.950 . S
H991 C997 0.950 . S
H992 C998 0.949 . S
C993 H988 0.950 . S
C993 C995 1.327 . S
C993 C999 1.429 . S
C994 C986 1.574 . S
C994 H989 0.949 . S
C994 C1000 1.368 . S
C995 C979 1.349 . S
C995 H987 0.950 . S
C995 C993 1.327 . S
C996 C984 1.349 . S
C996 H990 0.950 . S
C996 C997 1.327 . S
C997 H991 0.950 . S
C997 C996 1.327 . S
C997 C1001 1.429 . S
C998 C981 1.574 . S
C998 H992 0.949 . S
C998 C1002 1.368 . S
C999 C980 1.429 . S
C999 C993 1.429 . S
C999 C1000 1.523 . S
C1000 C981 1.368 . S
C1000 C994 1.368 . S
C1000 C999 1.523 . S
C1001 C985 1.429 . S
C1001 C997 1.429 . S
C1001 C1002 1.523 . S
C1002 C986 1.368 . S
C1002 C998 1.368 . S
C1002 C1001 1.523 . S
H1003 C978 0.950 . S
H1004 C980 0.950 . S
H1005 C981 0.949 . S
H1006 C983 0.950 . S
H1007 C985 0.950 . S
C1008 C1009 1.349 . S
C1008 C1010 1.327 . S
C1008 H1033 0.950 . S
C1009 C1008 1.349 . S
C1009 C1025 1.349 . S
C1010 C1008 1.327 . S
C1010 C1029 1.429 . S
C1010 H1034 0.950 . S
C1011 C1028 1.574 . S
C1011 C1030 1.368 . S
C1011 H1035 0.949 . S
H1012 C1016 0.949 . S
C1013 C1014 1.349 . S
C1013 C1015 1.327 . S
C1013 H1036 0.950 . S
C1014 C1013 1.349 . S
C1014 C1026 1.349 . S
C1015 C1013 1.327 . S
C1015 C1031 1.429 . S
C1015 H1037 0.950 . S
C1016 H1012 0.949 . S
C1016 C1024 1.574 . S
C1016 C1032 1.368 . S
H1017 C1025 0.950 . S
H1018 C1023 0.950 . S
H1019 C1024 0.949 . S
H1020 C1026 0.950 . S
H1021 C1027 0.950 . S
H1022 C1028 0.949 . S
C1023 H1018 0.950 . S
C1023 C1025 1.327 . S
C1023 C1029 1.429 . S
C1024 C1016 1.574 . S
C1024 H1019 0.949 . S
C1024 C1030 1.368 . S
C1025 C1009 1.349 . S
C1025 H1017 0.950 . S
C1025 C1023 1.327 . S
C1026 C1014 1.349 . S
C1026 H1020 0.950 . S
C1026 C1027 1.327 . S
C1027 H1021 0.950 . S
C1027 C1026 1.327 . S
C1027 C1031 1.429 . S
C1028 C1011 1.574 . S
C1028 H1022 0.949 . S
C1028 C1032 1.368 . S
C1029 C1010 1.429 . S
C1029 C1023 1.429 . S
C1029 C1030 1.523 . S
C1030 C1011 1.368 . S
C1030 C1024 1.368 . S
C1030 C1029 1.523 . S
C1031 C1015 1.429 . S
C1031 C1027 1.429 . S
C1031 C1032 1.523 . S
C1032 C1016 1.368 . S
C1032 C1028 1.368 . S
C1032 C1031 1.523 . S
H1033 C1008 0.950 . S
H1034 C1010 0.950 . S
H1035 C1011 0.949 . S
H1036 C1013 0.950 . S
H1037 C1015 0.950 . S
C1038 C1039 1.349 . S
C1038 C1040 1.327 . S
C1038 H1063 0.950 . S
C1039 C1038 1.349 . S
C1039 C1055 1.349 . S
C1040 C1038 1.327 . S
C1040 C1059 1.429 . S
C1040 H1064 0.950 . S
C1041 C1058 1.574 . S
C1041 C1060 1.368 . S
C1041 H1065 0.949 . S
H1042 C1046 0.949 . S
C1043 C1044 1.349 . S
C1043 C1045 1.327 . S
C1043 H1066 0.950 . S
C1044 C1043 1.349 . S
C1044 C1056 1.349 . S
C1045 C1043 1.327 . S
C1045 C1061 1.429 . S
C1045 H1067 0.950 . S
C1046 H1042 0.949 . S
C1046 C1054 1.574 . S
C1046 C1062 1.368 . S
H1047 C1055 0.950 . S
H1048 C1053 0.950 . S
H1049 C1054 0.949 . S
H1050 C1056 0.950 . S
H1051 C1057 0.950 . S
H1052 C1058 0.949 . S
C1053 H1048 0.950 . S
C1053 C1055 1.327 . S
C1053 C1059 1.429 . S
C1054 C1046 1.574 . S
C1054 H1049 0.949 . S
C1054 C1060 1.368 . S
C1055 C1039 1.349 . S
C1055 H1047 0.950 . S
C1055 C1053 1.327 . S
C1056 C1044 1.349 . S
C1056 H1050 0.950 . S
C1056 C1057 1.327 . S
C1057 H1051 0.950 . S
C1057 C1056 1.327 . S
C1057 C1061 1.429 . S
C1058 C1041 1.574 . S
C1058 H1052 0.949 . S
C1058 C1062 1.368 . S
C1059 C1040 1.429 . S
C1059 C1053 1.429 . S
C1059 C1060 1.523 . S
C1060 C1041 1.368 . S
C1060 C1054 1.368 . S
C1060 C1059 1.523 . S
C1061 C1045 1.429 . S
C1061 C1057 1.429 . S
C1061 C1062 1.523 . S
C1062 C1046 1.368 . S
C1062 C1058 1.368 . S
C1062 C1061 1.523 . S
H1063 C1038 0.950 . S
H1064 C1040 0.950 . S
H1065 C1041 0.949 . S
H1066 C1043 0.950 . S
H1067 C1045 0.950 . S
C1068 C1069 1.349 . S
C1068 C1070 1.327 . S
C1068 H1093 0.950 . S
C1069 C1068 1.349 . S
C1069 C1085 1.349 . S
C1070 C1068 1.327 . S
C1070 C1089 1.429 . S
C1070 H1094 0.950 . S
C1071 C1088 1.574 . S
C1071 C1090 1.368 . S
C1071 H1095 0.949 . S
H1072 C1076 0.949 . S
C1073 C1074 1.349 . S
C1073 C1075 1.327 . S
C1073 H1096 0.950 . S
C1074 C1073 1.349 . S
C1074 C1086 1.349 . S
C1075 C1073 1.327 . S
C1075 C1091 1.429 . S
C1075 H1097 0.950 . S
C1076 H1072 0.949 . S
C1076 C1084 1.574 . S
C1076 C1092 1.368 . S
H1077 C1085 0.950 . S
H1078 C1083 0.950 . S
H1079 C1084 0.949 . S
H1080 C1086 0.950 . S
H1081 C1087 0.950 . S
H1082 C1088 0.949 . S
C1083 H1078 0.950 . S
C1083 C1085 1.327 . S
C1083 C1089 1.429 . S
C1084 C1076 1.574 . S
C1084 H1079 0.949 . S
C1084 C1090 1.368 . S
C1085 C1069 1.349 . S
C1085 H1077 0.950 . S
C1085 C1083 1.327 . S
C1086 C1074 1.349 . S
C1086 H1080 0.950 . S
C1086 C1087 1.327 . S
C1087 H1081 0.950 . S
C1087 C1086 1.327 . S
C1087 C1091 1.429 . S
C1088 C1071 1.574 . S
C1088 H1082 0.949 . S
C1088 C1092 1.368 . S
C1089 C1070 1.429 . S
C1089 C1083 1.429 . S
C1089 C1090 1.523 . S
C1090 C1071 1.368 . S
C1090 C1084 1.368 . S
C1090 C1089 1.523 . S
C1091 C1075 1.429 . S
C1091 C1087 1.429 . S
C1091 C1092 1.523 . S
C1092 C1076 1.368 . S
C1092 C1088 1.368 . S
C1092 C1091 1.523 . S
H1093 C1068 0.950 . S
H1094 C1070 0.950 . S
H1095 C1071 0.949 . S
H1096 C1073 0.950 . S
H1097 C1075 0.950 . S
C1098 C1099 1.349 . S
C1098 C1100 1.327 . S
C1098 H1123 0.950 . S
C1099 C1098 1.349 . S
C1099 C1115 1.349 . S
C1100 C1098 1.327 . S
C1100 C1119 1.429 . S
C1100 H1124 0.950 . S
C1101 C1118 1.574 . S
C1101 C1120 1.368 . S
C1101 H1125 0.949 . S
H1102 C1106 0.949 . S
C1103 C1104 1.349 . S
C1103 C1105 1.327 . S
C1103 H1126 0.950 . S
C1104 C1103 1.349 . S
C1104 C1116 1.349 . S
C1105 C1103 1.327 . S
C1105 C1121 1.429 . S
C1105 H1127 0.950 . S
C1106 H1102 0.949 . S
C1106 C1114 1.574 . S
C1106 C1122 1.368 . S
H1107 C1115 0.950 . S
H1108 C1113 0.950 . S
H1109 C1114 0.949 . S
H1110 C1116 0.950 . S
H1111 C1117 0.950 . S
H1112 C1118 0.949 . S
C1113 H1108 0.950 . S
C1113 C1115 1.327 . S
C1113 C1119 1.429 . S
C1114 C1106 1.574 . S
C1114 H1109 0.949 . S
C1114 C1120 1.368 . S
C1115 C1099 1.349 . S
C1115 H1107 0.950 . S
C1115 C1113 1.327 . S
C1116 C1104 1.349 . S
C1116 H1110 0.950 . S
C1116 C1117 1.327 . S
C1117 H1111 0.950 . S
C1117 C1116 1.327 . S
C1117 C1121 1.429 . S
C1118 C1101 1.574 . S
C1118 H1112 0.949 . S
C1118 C1122 1.368 . S
C1119 C1100 1.429 . S
C1119 C1113 1.429 . S
C1119 C1120 1.523 . S
C1120 C1101 1.368 . S
C1120 C1114 1.368 . S
C1120 C1119 1.523 . S
C1121 C1105 1.429 . S
C1121 C1117 1.429 . S
C1121 C1122 1.523 . S
C1122 C1106 1.368 . S
C1122 C1118 1.368 . S
C1122 C1121 1.523 . S
H1123 C1098 0.950 . S
H1124 C1100 0.950 . S
H1125 C1101 0.949 . S
H1126 C1103 0.950 . S
H1127 C1105 0.950 . S
C1128 C1129 1.349 . S
C1128 C1130 1.327 . S
C1128 H1153 0.950 . S
C1129 C1128 1.349 . S
C1129 C1145 1.349 . S
C1130 C1128 1.327 . S
C1130 C1149 1.429 . S
C1130 H1154 0.950 . S
C1131 C1148 1.574 . S
C1131 C1150 1.368 . S
C1131 H1155 0.949 . S
H1132 C1136 0.949 . S
C1133 C1134 1.349 . S
C1133 C1135 1.327 . S
C1133 H1156 0.950 . S
C1134 C1133 1.349 . S
C1134 C1146 1.349 . S
C1135 C1133 1.327 . S
C1135 C1151 1.429 . S
C1135 H1157 0.950 . S
C1136 H1132 0.949 . S
C1136 C1144 1.574 . S
C1136 C1152 1.368 . S
H1137 C1145 0.950 . S
H1138 C1143 0.950 . S
H1139 C1144 0.949 . S
H1140 C1146 0.950 . S
H1141 C1147 0.950 . S
H1142 C1148 0.949 . S
C1143 H1138 0.950 . S
C1143 C1145 1.327 . S
C1143 C1149 1.429 . S
C1144 C1136 1.574 . S
C1144 H1139 0.949 . S
C1144 C1150 1.368 . S
C1145 C1129 1.349 . S
C1145 H1137 0.950 . S
C1145 C1143 1.327 . S
C1146 C1134 1.349 . S
C1146 H1140 0.950 . S
C1146 C1147 1.327 . S
C1147 H1141 0.950 . S
C1147 C1146 1.327 . S
C1147 C1151 1.429 . S
C1148 C1131 1.574 . S
C1148 H1142 0.949 . S
C1148 C1152 1.368 . S
C1149 C1130 1.429 . S
C1149 C1143 1.429 . S
C1149 C1150 1.523 . S
C1150 C1131 1.368 . S
C1150 C1144 1.368 . S
C1150 C1149 1.523 . S
C1151 C1135 1.429 . S
C1151 C1147 1.429 . S
C1151 C1152 1.523 . S
C1152 C1136 1.368 . S
C1152 C1148 1.368 . S
C1152 C1151 1.523 . S
H1153 C1128 0.950 . S
H1154 C1130 0.950 . S
H1155 C1131 0.949 . S
H1156 C1133 0.950 . S
H1157 C1135 0.950 . S
C1158 C1159 1.349 . S
C1158 C1160 1.327 . S
C1158 H1183 0.950 . S
C1159 C1158 1.349 . S
C1159 C1175 1.349 . S
C1160 C1158 1.327 . S
C1160 C1179 1.429 . S
C1160 H1184 0.950 . S
C1161 C1178 1.574 . S
C1161 C1180 1.368 . S
C1161 H1185 0.949 . S
H1162 C1166 0.949 . S
C1163 C1164 1.349 . S
C1163 C1165 1.327 . S
C1163 H1186 0.950 . S
C1164 C1163 1.349 . S
C1164 C1176 1.349 . S
C1165 C1163 1.327 . S
C1165 C1181 1.429 . S
C1165 H1187 0.950 . S
C1166 H1162 0.949 . S
C1166 C1174 1.574 . S
C1166 C1182 1.368 . S
H1167 C1175 0.950 . S
H1168 C1173 0.950 . S
H1169 C1174 0.949 . S
H1170 C1176 0.950 . S
H1171 C1177 0.950 . S
H1172 C1178 0.949 . S
C1173 H1168 0.950 . S
C1173 C1175 1.327 . S
C1173 C1179 1.429 . S
C1174 C1166 1.574 . S
C1174 H1169 0.949 . S
C1174 C1180 1.368 . S
C1175 C1159 1.349 . S
C1175 H1167 0.950 . S
C1175 C1173 1.327 . S
C1176 C1164 1.349 . S
C1176 H1170 0.950 . S
C1176 C1177 1.327 . S
C1177 H1171 0.950 . S
C1177 C1176 1.327 . S
C1177 C1181 1.429 . S
C1178 C1161 1.574 . S
C1178 H1172 0.949 . S
C1178 C1182 1.368 . S
C1179 C1160 1.429 . S
C1179 C1173 1.429 . S
C1179 C1180 1.523 . S
C1180 C1161 1.368 . S
C1180 C1174 1.368 . S
C1180 C1179 1.523 . S
C1181 C1165 1.429 . S
C1181 C1177 1.429 . S
C1181 C1182 1.523 . S
C1182 C1166 1.368 . S
C1182 C1178 1.368 . S
C1182 C1181 1.523 . S
H1183 C1158 0.950 . S
H1184 C1160 0.950 . S
H1185 C1161 0.949 . S
H1186 C1163 0.950 . S
H1187 C1165 0.950 . S
C1188 C1189 1.349 . S
C1188 C1190 1.327 . S
C1188 H1213 0.950 . S
C1189 C1188 1.349 . S
C1189 C1205 1.349 . S
C1190 C1188 1.327 . S
C1190 C1209 1.429 . S
C1190 H1214 0.950 . S
C1191 C1208 1.574 . S
C1191 C1210 1.368 . S
C1191 H1215 0.949 . S
H1192 C1196 0.949 . S
C1193 C1194 1.349 . S
C1193 C1195 1.327 . S
C1193 H1216 0.950 . S
C1194 C1193 1.349 . S
C1194 C1206 1.349 . S
C1195 C1193 1.327 . S
C1195 C1211 1.429 . S
C1195 H1217 0.950 . S
C1196 H1192 0.949 . S
C1196 C1204 1.574 . S
C1196 C1212 1.368 . S
H1197 C1205 0.950 . S
H1198 C1203 0.950 . S
H1199 C1204 0.949 . S
H1200 C1206 0.950 . S
H1201 C1207 0.950 . S
H1202 C1208 0.949 . S
C1203 H1198 0.950 . S
C1203 C1205 1.327 . S
C1203 C1209 1.429 . S
C1204 C1196 1.574 . S
C1204 H1199 0.949 . S
C1204 C1210 1.368 . S
C1205 C1189 1.349 . S
C1205 H1197 0.950 . S
C1205 C1203 1.327 . S
C1206 C1194 1.349 . S
C1206 H1200 0.950 . S
C1206 C1207 1.327 . S
C1207 H1201 0.950 . S
C1207 C1206 1.327 . S
C1207 C1211 1.429 . S
C1208 C1191 1.574 . S
C1208 H1202 0.949 . S
C1208 C1212 1.368 . S
C1209 C1190 1.429 . S
C1209 C1203 1.429 . S
C1209 C1210 1.523 . S
C1210 C1191 1.368 . S
C1210 C1204 1.368 . S
C1210 C1209 1.523 . S
C1211 C1195 1.429 . S
C1211 C1207 1.429 . S
C1211 C1212 1.523 . S
C1212 C1196 1.368 . S
C1212 C1208 1.368 . S
C1212 C1211 1.523 . S
H1213 C1188 0.950 . S
H1214 C1190 0.950 . S
H1215 C1191 0.949 . S
H1216 C1193 0.950 . S
H1217 C1195 0.950 . S
C1218 C1219 1.349 . S
C1218 C1220 1.327 . S
C1218 H1243 0.950 . S
C1219 C1218 1.349 . S
C1219 C1235 1.349 . S
C1220 C1218 1.327 . S
C1220 C1239 1.429 . S
C1220 H1244 0.950 . S
C1221 C1238 1.574 . S
C1221 C1240 1.368 . S
C1221 H1245 0.949 . S
H1222 C1226 0.949 . S
C1223 C1224 1.349 . S
C1223 C1225 1.327 . S
C1223 H1246 0.950 . S
C1224 C1223 1.349 . S
C1224 C1236 1.349 . S
C1225 C1223 1.327 . S
C1225 C1241 1.429 . S
C1225 H1247 0.950 . S
C1226 H1222 0.949 . S
C1226 C1234 1.574 . S
C1226 C1242 1.368 . S
H1227 C1235 0.950 . S
H1228 C1233 0.950 . S
H1229 C1234 0.949 . S
H1230 C1236 0.950 . S
H1231 C1237 0.950 . S
H1232 C1238 0.949 . S
C1233 H1228 0.950 . S
C1233 C1235 1.327 . S
C1233 C1239 1.429 . S
C1234 C1226 1.574 . S
C1234 H1229 0.949 . S
C1234 C1240 1.368 . S
C1235 C1219 1.349 . S
C1235 H1227 0.950 . S
C1235 C1233 1.327 . S
C1236 C1224 1.349 . S
C1236 H1230 0.950 . S
C1236 C1237 1.327 . S
C1237 H1231 0.950 . S
C1237 C1236 1.327 . S
C1237 C1241 1.429 . S
C1238 C1221 1.574 . S
C1238 H1232 0.949 . S
C1238 C1242 1.368 . S
C1239 C1220 1.429 . S
C1239 C1233 1.429 . S
C1239 C1240 1.523 . S
C1240 C1221 1.368 . S
C1240 C1234 1.368 . S
C1240 C1239 1.523 . S
C1241 C1225 1.429 . S
C1241 C1237 1.429 . S
C1241 C1242 1.523 . S
C1242 C1226 1.368 . S
C1242 C1238 1.368 . S
C1242 C1241 1.523 . S
H1243 C1218 0.950 . S
H1244 C1220 0.950 . S
H1245 C1221 0.949 . S
H1246 C1223 0.950 . S
H1247 C1225 0.950 . S
C1248 C1249 1.349 . S
C1248 C1250 1.327 . S
C1248 H1273 0.950 . S
C1249 C1248 1.349 . S
C1249 C1265 1.349 . S
C1250 C1248 1.327 . S
C1250 C1269 1.429 . S
C1250 H1274 0.950 . S
C1251 C1268 1.574 . S
C1251 C1270 1.368 . S
C1251 H1275 0.949 . S
H1252 C1256 0.949 . S
C1253 C1254 1.349 . S
C1253 C1255 1.327 . S
C1253 H1276 0.950 . S
C1254 C1253 1.349 . S
C1254 C1266 1.349 . S
C1255 C1253 1.327 . S
C1255 C1271 1.429 . S
C1255 H1277 0.950 . S
C1256 H1252 0.949 . S
C1256 C1264 1.574 . S
C1256 C1272 1.368 . S
H1257 C1265 0.950 . S
H1258 C1263 0.950 . S
H1259 C1264 0.949 . S
H1260 C1266 0.950 . S
H1261 C1267 0.950 . S
H1262 C1268 0.949 . S
C1263 H1258 0.950 . S
C1263 C1265 1.327 . S
C1263 C1269 1.429 . S
C1264 C1256 1.574 . S
C1264 H1259 0.949 . S
C1264 C1270 1.368 . S
C1265 C1249 1.349 . S
C1265 H1257 0.950 . S
C1265 C1263 1.327 . S
C1266 C1254 1.349 . S
C1266 H1260 0.950 . S
C1266 C1267 1.327 . S
C1267 H1261 0.950 . S
C1267 C1266 1.327 . S
C1267 C1271 1.429 . S
C1268 C1251 1.574 . S
C1268 H1262 0.949 . S
C1268 C1272 1.368 . S
C1269 C1250 1.429 . S
C1269 C1263 1.429 . S
C1269 C1270 1.523 . S
C1270 C1251 1.368 . S
C1270 C1264 1.368 . S
C1270 C1269 1.523 . S
C1271 C1255 1.429 . S
C1271 C1267 1.429 . S
C1271 C1272 1.523 . S
C1272 C1256 1.368 . S
C1272 C1268 1.368 . S
C1272 C1271 1.523 . S
H1273 C1248 0.950 . S
H1274 C1250 0.950 . S
H1275 C1251 0.949 . S
H1276 C1253 0.950 . S
H1277 C1255 0.950 . S
C1278 C1279 1.349 . S
C1278 C1280 1.327 . S
C1278 H1303 0.950 . S
C1279 C1278 1.349 . S
C1279 C1295 1.349 . S
C1280 C1278 1.327 . S
C1280 C1299 1.429 . S
C1280 H1304 0.950 . S
C1281 C1298 1.574 . S
C1281 C1300 1.368 . S
C1281 H1305 0.949 . S
H1282 C1286 0.949 . S
C1283 C1284 1.349 . S
C1283 C1285 1.327 . S
C1283 H1306 0.950 . S
C1284 C1283 1.349 . S
C1284 C1296 1.349 . S
C1285 C1283 1.327 . S
C1285 C1301 1.429 . S
C1285 H1307 0.950 . S
C1286 H1282 0.949 . S
C1286 C1294 1.574 . S
C1286 C1302 1.368 . S
H1287 C1295 0.950 . S
H1288 C1293 0.950 . S
H1289 C1294 0.949 . S
H1290 C1296 0.950 . S
H1291 C1297 0.950 . S
H1292 C1298 0.949 . S
C1293 H1288 0.950 . S
C1293 C1295 1.327 . S
C1293 C1299 1.429 . S
C1294 C1286 1.574 . S
C1294 H1289 0.949 . S
C1294 C1300 1.368 . S
C1295 C1279 1.349 . S
C1295 H1287 0.950 . S
C1295 C1293 1.327 . S
C1296 C1284 1.349 . S
C1296 H1290 0.950 . S
C1296 C1297 1.327 . S
C1297 H1291 0.950 . S
C1297 C1296 1.327 . S
C1297 C1301 1.429 . S
C1298 C1281 1.574 . S
C1298 H1292 0.949 . S
C1298 C1302 1.368 . S
C1299 C1280 1.429 . S
C1299 C1293 1.429 . S
C1299 C1300 1.523 . S
C1300 C1281 1.368 . S
C1300 C1294 1.368 . S
C1300 C1299 1.523 . S
C1301 C1285 1.429 . S
C1301 C1297 1.429 . S
C1301 C1302 1.523 . S
C1302 C1286 1.368 . S
C1302 C1298 1.368 . S
C1302 C1301 1.523 . S
H1303 C1278 0.950 . S
H1304 C1280 0.950 . S
H1305 C1281 0.949 . S
H1306 C1283 0.950 . S
H1307 C1285 0.950 . S
C1308 C1309 1.349 . S
C1308 C1310 1.327 . S
C1308 H1333 0.950 . S
C1309 C1308 1.349 . S
C1309 C1325 1.349 . S
C1310 C1308 1.327 . S
C1310 C1329 1.429 . S
C1310 H1334 0.950 . S
C1311 C1328 1.574 . S
C1311 C1330 1.368 . S
C1311 H1335 0.949 . S
H1312 C1316 0.949 . S
C1313 C1314 1.349 . S
C1313 C1315 1.327 . S
C1313 H1336 0.950 . S
C1314 C1313 1.349 . S
C1314 C1326 1.349 . S
C1315 C1313 1.327 . S
C1315 C1331 1.429 . S
C1315 H1337 0.950 . S
C1316 H1312 0.949 . S
C1316 C1324 1.574 . S
C1316 C1332 1.368 . S
H1317 C1325 0.950 . S
H1318 C1323 0.950 . S
H1319 C1324 0.949 . S
H1320 C1326 0.950 . S
H1321 C1327 0.950 . S
H1322 C1328 0.949 . S
C1323 H1318 0.950 . S
C1323 C1325 1.327 . S
C1323 C1329 1.429 . S
C1324 C1316 1.574 . S
C1324 H1319 0.949 . S
C1324 C1330 1.368 . S
C1325 C1309 1.349 . S
C1325 H1317 0.950 . S
C1325 C1323 1.327 . S
C1326 C1314 1.349 . S
C1326 H1320 0.950 . S
C1326 C1327 1.327 . S
C1327 H1321 0.950 . S
C1327 C1326 1.327 . S
C1327 C1331 1.429 . S
C1328 C1311 1.574 . S
C1328 H1322 0.949 . S
C1328 C1332 1.368 . S
C1329 C1310 1.429 . S
C1329 C1323 1.429 . S
C1329 C1330 1.523 . S
C1330 C1311 1.368 . S
C1330 C1324 1.368 . S
C1330 C1329 1.523 . S
C1331 C1315 1.429 . S
C1331 C1327 1.429 . S
C1331 C1332 1.523 . S
C1332 C1316 1.368 . S
C1332 C1328 1.368 . S
C1332 C1331 1.523 . S
H1333 C1308 0.950 . S
H1334 C1310 0.950 . S
H1335 C1311 0.949 . S
H1336 C1313 0.950 . S
H1337 C1315 0.950 . S
C1338 C1339 1.349 . S
C1338 C1340 1.327 . S
C1338 H1363 0.950 . S
C1339 C1338 1.349 . S
C1339 C1355 1.349 . S
C1340 C1338 1.327 . S
C1340 C1359 1.429 . S
C1340 H1364 0.950 . S
C1341 C1358 1.574 . S
C1341 C1360 1.368 . S
C1341 H1365 0.949 . S
H1342 C1346 0.949 . S
C1343 C1344 1.349 . S
C1343 C1345 1.327 . S
C1343 H1366 0.950 . S
C1344 C1343 1.349 . S
C1344 C1356 1.349 . S
C1345 C1343 1.327 . S
C1345 C1361 1.429 . S
C1345 H1367 0.950 . S
C1346 H1342 0.949 . S
C1346 C1354 1.574 . S
C1346 C1362 1.368 . S
H1347 C1355 0.950 . S
H1348 C1353 0.950 . S
H1349 C1354 0.949 . S
H1350 C1356 0.950 . S
H1351 C1357 0.950 . S
H1352 C1358 0.949 . S
C1353 H1348 0.950 . S
C1353 C1355 1.327 . S
C1353 C1359 1.429 . S
C1354 C1346 1.574 . S
C1354 H1349 0.949 . S
C1354 C1360 1.368 . S
C1355 C1339 1.349 . S
C1355 H1347 0.950 . S
C1355 C1353 1.327 . S
C1356 C1344 1.349 . S
C1356 H1350 0.950 . S
C1356 C1357 1.327 . S
C1357 H1351 0.950 . S
C1357 C1356 1.327 . S
C1357 C1361 1.429 . S
C1358 C1341 1.574 . S
C1358 H1352 0.949 . S
C1358 C1362 1.368 . S
C1359 C1340 1.429 . S
C1359 C1353 1.429 . S
C1359 C1360 1.523 . S
C1360 C1341 1.368 . S
C1360 C1354 1.368 . S
C1360 C1359 1.523 . S
C1361 C1345 1.429 . S
C1361 C1357 1.429 . S
C1361 C1362 1.523 . S
C1362 C1346 1.368 . S
C1362 C1358 1.368 . S
C1362 C1361 1.523 . S
H1363 C1338 0.950 . S
H1364 C1340 0.950 . S
H1365 C1341 0.949 . S
H1366 C1343 0.950 . S
H1367 C1345 0.950 . S
C1368 C1369 1.349 . S
C1368 C1370 1.327 . S
C1368 H1393 0.950 . S
C1369 C1368 1.349 . S
C1369 C1385 1.349 . S
C1370 C1368 1.327 . S
C1370 C1389 1.429 . S
C1370 H1394 0.950 . S
C1371 C1388 1.574 . S
C1371 C1390 1.368 . S
C1371 H1395 0.949 . S
H1372 C1376 0.949 . S
C1373 C1374 1.349 . S
C1373 C1375 1.327 . S
C1373 H1396 0.950 . S
C1374 C1373 1.349 . S
C1374 C1386 1.349 . S
C1375 C1373 1.327 . S
C1375 C1391 1.429 . S
C1375 H1397 0.950 . S
C1376 H1372 0.949 . S
C1376 C1384 1.574 . S
C1376 C1392 1.368 . S
H1377 C1385 0.950 . S
H1378 C1383 0.950 . S
H1379 C1384 0.949 . S
H1380 C1386 0.950 . S
H1381 C1387 0.950 . S
H1382 C1388 0.949 . S
C1383 H1378 0.950 . S
C1383 C1385 1.327 . S
C1383 C1389 1.429 . S
C1384 C1376 1.574 . S
C1384 H1379 0.949 . S
C1384 C1390 1.368 . S
C1385 C1369 1.349 . S
C1385 H1377 0.950 . S
C1385 C1383 1.327 . S
C1386 C1374 1.349 . S
C1386 H1380 0.950 . S
C1386 C1387 1.327 . S
C1387 H1381 0.950 . S
C1387 C1386 1.327 . S
C1387 C1391 1.429 . S
C1388 C1371 1.574 . S
C1388 H1382 0.949 . S
C1388 C1392 1.368 . S
C1389 C1370 1.429 . S
C1389 C1383 1.429 . S
C1389 C1390 1.523 . S
C1390 C1371 1.368 . S
C1390 C1384 1.368 . S
C1390 C1389 1.523 . S
C1391 C1375 1.429 . S
C1391 C1387 1.429 . S
C1391 C1392 1.523 . S
C1392 C1376 1.368 . S
C1392 C1388 1.368 . S
C1392 C1391 1.523 . S
H1393 C1368 0.950 . S
H1394 C1370 0.950 . S
H1395 C1371 0.949 . S
H1396 C1373 0.950 . S
H1397 C1375 0.950 . S
C1398 C1399 1.349 . S
C1398 C1400 1.327 . S
C1398 H1423 0.950 . S
C1399 C1398 1.349 . S
C1399 C1415 1.349 . S
C1400 C1398 1.327 . S
C1400 C1419 1.429 . S
C1400 H1424 0.950 . S
C1401 C1418 1.574 . S
C1401 C1420 1.368 . S
C1401 H1425 0.949 . S
H1402 C1406 0.949 . S
C1403 C1404 1.349 . S
C1403 C1405 1.327 . S
C1403 H1426 0.950 . S
C1404 C1403 1.349 . S
C1404 C1416 1.349 . S
C1405 C1403 1.327 . S
C1405 C1421 1.429 . S
C1405 H1427 0.950 . S
C1406 H1402 0.949 . S
C1406 C1414 1.574 . S
C1406 C1422 1.368 . S
H1407 C1415 0.950 . S
H1408 C1413 0.950 . S
H1409 C1414 0.949 . S
H1410 C1416 0.950 . S
H1411 C1417 0.950 . S
H1412 C1418 0.949 . S
C1413 H1408 0.950 . S
C1413 C1415 1.327 . S
C1413 C1419 1.429 . S
C1414 C1406 1.574 . S
C1414 H1409 0.949 . S
C1414 C1420 1.368 . S
C1415 C1399 1.349 . S
C1415 H1407 0.950 . S
C1415 C1413 1.327 . S
C1416 C1404 1.349 . S
C1416 H1410 0.950 . S
C1416 C1417 1.327 . S
C1417 H1411 0.950 . S
C1417 C1416 1.327 . S
C1417 C1421 1.429 . S
C1418 C1401 1.574 . S
C1418 H1412 0.949 . S
C1418 C1422 1.368 . S
C1419 C1400 1.429 . S
C1419 C1413 1.429 . S
C1419 C1420 1.523 . S
C1420 C1401 1.368 . S
C1420 C1414 1.368 . S
C1420 C1419 1.523 . S
C1421 C1405 1.429 . S
C1421 C1417 1.429 . S
C1421 C1422 1.523 . S
C1422 C1406 1.368 . S
C1422 C1418 1.368 . S
C1422 C1421 1.523 . S
H1423 C1398 0.950 . S
H1424 C1400 0.950 . S
H1425 C1401 0.949 . S
H1426 C1403 0.950 . S
H1427 C1405 0.950 . S
C1428 C1429 1.349 . S
C1428 C1430 1.327 . S
C1428 H1453 0.950 . S
C1429 C1428 1.349 . S
C1429 C1445 1.349 . S
C1430 C1428 1.327 . S
C1430 C1449 1.429 . S
C1430 H1454 0.950 . S
C1431 C1448 1.574 . S
C1431 C1450 1.368 . S
C1431 H1455 0.949 . S
H1432 C1436 0.949 . S
C1433 C1434 1.349 . S
C1433 C1435 1.327 . S
C1433 H1456 0.950 . S
C1434 C1433 1.349 . S
C1434 C1446 1.349 . S
C1435 C1433 1.327 . S
C1435 C1451 1.429 . S
C1435 H1457 0.950 . S
C1436 H1432 0.949 . S
C1436 C1444 1.574 . S
C1436 C1452 1.368 . S
H1437 C1445 0.950 . S
H1438 C1443 0.950 . S
H1439 C1444 0.949 . S
H1440 C1446 0.950 . S
H1441 C1447 0.950 . S
H1442 C1448 0.949 . S
C1443 H1438 0.950 . S
C1443 C1445 1.327 . S
C1443 C1449 1.429 . S
C1444 C1436 1.574 . S
C1444 H1439 0.949 . S
C1444 C1450 1.368 . S
C1445 C1429 1.349 . S
C1445 H1437 0.950 . S
C1445 C1443 1.327 . S
C1446 C1434 1.349 . S
C1446 H1440 0.950 . S
C1446 C1447 1.327 . S
C1447 H1441 0.950 . S
C1447 C1446 1.327 . S
C1447 C1451 1.429 . S
C1448 C1431 1.574 . S
C1448 H1442 0.949 . S
C1448 C1452 1.368 . S
C1449 C1430 1.429 . S
C1449 C1443 1.429 . S
C1449 C1450 1.523 . S
C1450 C1431 1.368 . S
C1450 C1444 1.368 . S
C1450 C1449 1.523 . S
C1451 C1435 1.429 . S
C1451 C1447 1.429 . S
C1451 C1452 1.523 . S
C1452 C1436 1.368 . S
C1452 C1448 1.368 . S
C1452 C1451 1.523 . S
H1453 C1428 0.950 . S
H1454 C1430 0.950 . S
H1455 C1431 0.949 . S
H1456 C1433 0.950 . S
H1457 C1435 0.950 . S
C1458 C1459 1.349 . S
C1458 C1460 1.327 . S
C1458 H1483 0.950 . S
C1459 C1458 1.349 . S
C1459 C1475 1.349 . S
C1460 C1458 1.327 . S
C1460 C1479 1.429 . S
C1460 H1484 0.950 . S
C1461 C1478 1.574 . S
C1461 C1480 1.368 . S
C1461 H1485 0.949 . S
H1462 C1466 0.949 . S
C1463 C1464 1.349 . S
C1463 C1465 1.327 . S
C1463 H1486 0.950 . S
C1464 C1463 1.349 . S
C1464 C1476 1.349 . S
C1465 C1463 1.327 . S
C1465 C1481 1.429 . S
C1465 H1487 0.950 . S
C1466 H1462 0.949 . S
C1466 C1474 1.574 . S
C1466 C1482 1.368 . S
H1467 C1475 0.950 . S
H1468 C1473 0.950 . S
H1469 C1474 0.949 . S
H1470 C1476 0.950 . S
H1471 C1477 0.950 . S
H1472 C1478 0.949 . S
C1473 H1468 0.950 . S
C1473 C1475 1.327 . S
C1473 C1479 1.429 . S
C1474 C1466 1.574 . S
C1474 H1469 0.949 . S
C1474 C1480 1.368 . S
C1475 C1459 1.349 . S
C1475 H1467 0.950 . S
C1475 C1473 1.327 . S
C1476 C1464 1.349 . S
C1476 H1470 0.950 . S
C1476 C1477 1.327 . S
C1477 H1471 0.950 . S
C1477 C1476 1.327 . S
C1477 C1481 1.429 . S
C1478 C1461 1.574 . S
C1478 H1472 0.949 . S
C1478 C1482 1.368 . S
C1479 C1460 1.429 . S
C1479 C1473 1.429 . S
C1479 C1480 1.523 . S
C1480 C1461 1.368 . S
C1480 C1474 1.368 . S
C1480 C1479 1.523 . S
C1481 C1465 1.429 . S
C1481 C1477 1.429 . S
C1481 C1482 1.523 . S
C1482 C1466 1.368 . S
C1482 C1478 1.368 . S
C1482 C1481 1.523 . S
H1483 C1458 0.950 . S
H1484 C1460 0.950 . S
H1485 C1461 0.949 . S
H1486 C1463 0.950 . S
H1487 C1465 0.950 . S
C1488 C1489 1.349 . S
C1488 C1490 1.327 . S
C1488 H1513 0.950 . S
C1489 C1488 1.349 . S
C1489 C1505 1.349 . S
C1490 C1488 1.327 . S
C1490 C1509 1.429 . S
C1490 H1514 0.950 . S
C1491 C1508 1.574 . S
C1491 C1510 1.368 . S
C1491 H1515 0.949 . S
H1492 C1496 0.949 . S
C1493 C1494 1.349 . S
C1493 C1495 1.327 . S
C1493 H1516 0.950 . S
C1494 C1493 1.349 . S
C1494 C1506 1.349 . S
C1495 C1493 1.327 . S
C1495 C1511 1.429 . S
C1495 H1517 0.950 . S
C1496 H1492 0.949 . S
C1496 C1504 1.574 . S
C1496 C1512 1.368 . S
H1497 C1505 0.950 . S
H1498 C1503 0.950 . S
H1499 C1504 0.949 . S
H1500 C1506 0.950 . S
H1501 C1507 0.950 . S
H1502 C1508 0.949 . S
C1503 H1498 0.950 . S
C1503 C1505 1.327 . S
C1503 C1509 1.429 . S
C1504 C1496 1.574 . S
C1504 H1499 0.949 . S
C1504 C1510 1.368 . S
C1505 C1489 1.349 . S
C1505 H1497 0.950 . S
C1505 C1503 1.327 . S
C1506 C1494 1.349 . S
C1506 H1500 0.950 . S
C1506 C1507 1.327 . S
C1507 H1501 0.950 . S
C1507 C1506 1.327 . S
C1507 C1511 1.429 . S
C1508 C1491 1.574 . S
C1508 H1502 0.949 . S
C1508 C1512 1.368 . S
C1509 C1490 1.429 . S
C1509 C1503 1.429 . S
C1509 C1510 1.523 . S
C1510 C1491 1.368 . S
C1510 C1504 1.368 . S
C1510 C1509 1.523 . S
C1511 C1495 1.429 . S
C1511 C1507 1.429 . S
C1511 C1512 1.523 . S
C1512 C1496 1.368 . S
C1512 C1508 1.368 . S
C1512 C1511 1.523 . S
H1513 C1488 0.950 . S
H1514 C1490 0.950 . S
H1515 C1491 0.949 . S
H1516 C1493 0.950 . S
H1517 C1495 0.950 . S
C1518 C1519 1.349 . S
C1518 C1520 1.327 . S
C1518 H1543 0.950 . S
C1519 C1518 1.349 . S
C1519 C1535 1.349 . S
C1520 C1518 1.327 . S
C1520 C1539 1.429 . S
C1520 H1544 0.950 . S
C1521 C1538 1.574 . S
C1521 C1540 1.368 . S
C1521 H1545 0.949 . S
H1522 C1526 0.949 . S
C1523 C1524 1.349 . S
C1523 C1525 1.327 . S
C1523 H1546 0.950 . S
C1524 C1523 1.349 . S
C1524 C1536 1.349 . S
C1525 C1523 1.327 . S
C1525 C1541 1.429 . S
C1525 H1547 0.950 . S
C1526 H1522 0.949 . S
C1526 C1534 1.574 . S
C1526 C1542 1.368 . S
H1527 C1535 0.950 . S
H1528 C1533 0.950 . S
H1529 C1534 0.949 . S
H1530 C1536 0.950 . S
H1531 C1537 0.950 . S
H1532 C1538 0.949 . S
C1533 H1528 0.950 . S
C1533 C1535 1.327 . S
C1533 C1539 1.429 . S
C1534 C1526 1.574 . S
C1534 H1529 0.949 . S
C1534 C1540 1.368 . S
C1535 C1519 1.349 . S
C1535 H1527 0.950 . S
C1535 C1533 1.327 . S
C1536 C1524 1.349 . S
C1536 H1530 0.950 . S
C1536 C1537 1.327 . S
C1537 H1531 0.950 . S
C1537 C1536 1.327 . S
C1537 C1541 1.429 . S
C1538 C1521 1.574 . S
C1538 H1532 0.949 . S
C1538 C1542 1.368 . S
C1539 C1520 1.429 . S
C1539 C1533 1.429 . S
C1539 C1540 1.523 . S
C1540 C1521 1.368 . S
C1540 C1534 1.368 . S
C1540 C1539 1.523 . S
C1541 C1525 1.429 . S
C1541 C1537 1.429 . S
C1541 C1542 1.523 . S
C1542 C1526 1.368 . S
C1542 C1538 1.368 . S
C1542 C1541 1.523 . S
H1543 C1518 0.950 . S
H1544 C1520 0.950 . S
H1545 C1521 0.949 . S
H1546 C1523 0.950 . S
H1547 C1525 0.950 . S
C1548 C1549 1.349 . S
C1548 C1550 1.327 . S
C1548 H1573 0.950 . S
C1549 C1548 1.349 . S
C1549 C1565 1.349 . S
C1550 C1548 1.327 . S
C1550 C1569 1.429 . S
C1550 H1574 0.950 . S
C1551 C1568 1.574 . S
C1551 C1570 1.368 . S
C1551 H1575 0.949 . S
H1552 C1556 0.949 . S
C1553 C1554 1.349 . S
C1553 C1555 1.327 . S
C1553 H1576 0.950 . S
C1554 C1553 1.349 . S
C1554 C1566 1.349 . S
C1555 C1553 1.327 . S
C1555 C1571 1.429 . S
C1555 H1577 0.950 . S
C1556 H1552 0.949 . S
C1556 C1564 1.574 . S
C1556 C1572 1.368 . S
H1557 C1565 0.950 . S
H1558 C1563 0.950 . S
H1559 C1564 0.949 . S
H1560 C1566 0.950 . S
H1561 C1567 0.950 . S
H1562 C1568 0.949 . S
C1563 H1558 0.950 . S
C1563 C1565 1.327 . S
C1563 C1569 1.429 . S
C1564 C1556 1.574 . S
C1564 H1559 0.949 . S
C1564 C1570 1.368 . S
C1565 C1549 1.349 . S
C1565 H1557 0.950 . S
C1565 C1563 1.327 . S
C1566 C1554 1.349 . S
C1566 H1560 0.950 . S
C1566 C1567 1.327 . S
C1567 H1561 0.950 . S
C1567 C1566 1.327 . S
C1567 C1571 1.429 . S
C1568 C1551 1.574 . S
C1568 H1562 0.949 . S
C1568 C1572 1.368 . S
C1569 C1550 1.429 . S
C1569 C1563 1.429 . S
C1569 C1570 1.523 . S
C1570 C1551 1.368 . S
C1570 C1564 1.368 . S
C1570 C1569 1.523 . S
C1571 C1555 1.429 . S
C1571 C1567 1.429 . S
C1571 C1572 1.523 . S
C1572 C1556 1.368 . S
C1572 C1568 1.368 . S
C1572 C1571 1.523 . S
H1573 C1548 0.950 . S
H1574 C1550 0.950 . S
H1575 C1551 0.949 . S
H1576 C1553 0.950 . S
H1577 C1555 0.950 . S
C1578 C1579 1.349 . S
C1578 C1580 1.327 . S
C1578 H1603 0.950 . S
C1579 C1578 1.349 . S
C1579 C1595 1.349 . S
C1580 C1578 1.327 . S
C1580 C1599 1.429 . S
C1580 H1604 0.950 . S
C1581 C1598 1.574 . S
C1581 C1600 1.368 . S
C1581 H1605 0.949 . S
H1582 C1586 0.949 . S
C1583 C1584 1.349 . S
C1583 C1585 1.327 . S
C1583 H1606 0.950 . S
C1584 C1583 1.349 . S
C1584 C1596 1.349 . S
C1585 C1583 1.327 . S
C1585 C1601 1.429 . S
C1585 H1607 0.950 . S
C1586 H1582 0.949 . S
C1586 C1594 1.574 . S
C1586 C1602 1.368 . S
H1587 C1595 0.950 . S
H1588 C1593 0.950 . S
H1589 C1594 0.949 . S
H1590 C1596 0.950 . S
H1591 C1597 0.950 . S
H1592 C1598 0.949 . S
C1593 H1588 0.950 . S
C1593 C1595 1.327 . S
C1593 C1599 1.429 . S
C1594 C1586 1.574 . S
C1594 H1589 0.949 . S
C1594 C1600 1.368 . S
C1595 C1579 1.349 . S
C1595 H1587 0.950 . S
C1595 C1593 1.327 . S
C1596 C1584 1.349 . S
C1596 H1590 0.950 . S
C1596 C1597 1.327 . S
C1597 H1591 0.950 . S
C1597 C1596 1.327 . S
C1597 C1601 1.429 . S
C1598 C1581 1.574 . S
C1598 H1592 0.949 . S
C1598 C1602 1.368 . S
C1599 C1580 1.429 . S
C1599 C1593 1.429 . S
C1599 C1600 1.523 . S
C1600 C1581 1.368 . S
C1600 C1594 1.368 . S
C1600 C1599 1.523 . S
C1601 C1585 1.429 . S
C1601 C1597 1.429 . S
C1601 C1602 1.523 . S
C1602 C1586 1.368 . S
C1602 C1598 1.368 . S
C1602 C1601 1.523 . S
H1603 C1578 0.950 . S
H1604 C1580 0.950 . S
H1605 C1581 0.949 . S
H1606 C1583 0.950 . S
H1607 C1585 0.950 . S
C1608 C1609 1.349 . S
C1608 C1610 1.327 . S
C1608 H1633 0.950 . S
C1609 C1608 1.349 . S
C1609 C1625 1.349 . S
C1610 C1608 1.327 . S
C1610 C1629 1.429 . S
C1610 H1634 0.950 . S
C1611 C1628 1.574 . S
C1611 C1630 1.368 . S
C1611 H1635 0.949 . S
H1612 C1616 0.949 . S
C1613 C1614 1.349 . S
C1613 C1615 1.327 . S
C1613 H1636 0.950 . S
C1614 C1613 1.349 . S
C1614 C1626 1.349 . S
C1615 C1613 1.327 . S
C1615 C1631 1.429 . S
C1615 H1637 0.950 . S
C1616 H1612 0.949 . S
C1616 C1624 1.574 . S
C1616 C1632 1.368 . S
H1617 C1625 0.950 . S
H1618 C1623 0.950 . S
H1619 C1624 0.949 . S
H1620 C1626 0.950 . S
H1621 C1627 0.950 . S
H1622 C1628 0.949 . S
C1623 H1618 0.950 . S
C1623 C1625 1.327 . S
C1623 C1629 1.429 . S
C1624 C1616 1.574 . S
C1624 H1619 0.949 . S
C1624 C1630 1.368 . S
C1625 C1609 1.349 . S
C1625 H1617 0.950 . S
C1625 C1623 1.327 . S
C1626 C1614 1.349 . S
C1626 H1620 0.950 . S
C1626 C1627 1.327 . S
C1627 H1621 0.950 . S
C1627 C1626 1.327 . S
C1627 C1631 1.429 . S
C1628 C1611 1.574 . S
C1628 H1622 0.949 . S
C1628 C1632 1.368 . S
C1629 C1610 1.429 . S
C1629 C1623 1.429 . S
C1629 C1630 1.523 . S
C1630 C1611 1.368 . S
C1630 C1624 1.368 . S
C1630 C1629 1.523 . S
C1631 C1615 1.429 . S
C1631 C1627 1.429 . S
C1631 C1632 1.523 . S
C1632 C1616 1.368 . S
C1632 C1628 1.368 . S
C1632 C1631 1.523 . S
H1633 C1608 0.950 . S
H1634 C1610 0.950 . S
H1635 C1611 0.949 . S
H1636 C1613 0.950 . S
H1637 C1615 0.950 . S
C1638 C1639 1.349 . S
C1638 C1640 1.327 . S
C1638 H1663 0.950 . S
C1639 C1638 1.349 . S
C1639 C1655 1.349 . S
C1640 C1638 1.327 . S
C1640 C1659 1.429 . S
C1640 H1664 0.950 . S
C1641 C1658 1.574 . S
C1641 C1660 1.368 . S
C1641 H1665 0.949 . S
H1642 C1646 0.949 . S
C1643 C1644 1.349 . S
C1643 C1645 1.327 . S
C1643 H1666 0.950 . S
C1644 C1643 1.349 . S
C1644 C1656 1.349 . S
C1645 C1643 1.327 . S
C1645 C1661 1.429 . S
C1645 H1667 0.950 . S
C1646 H1642 0.949 . S
C1646 C1654 1.574 . S
C1646 C1662 1.368 . S
H1647 C1655 0.950 . S
H1648 C1653 0.950 . S
H1649 C1654 0.949 . S
H1650 C1656 0.950 . S
H1651 C1657 0.950 . S
H1652 C1658 0.949 . S
C1653 H1648 0.950 . S
C1653 C1655 1.327 . S
C1653 C1659 1.429 . S
C1654 C1646 1.574 . S
C1654 H1649 0.949 . S
C1654 C1660 1.368 . S
C1655 C1639 1.349 . S
C1655 H1647 0.950 . S
C1655 C1653 1.327 . S
C1656 C1644 1.349 . S
C1656 H1650 0.950 . S
C1656 C1657 1.327 . S
C1657 H1651 0.950 . S
C1657 C1656 1.327 . S
C1657 C1661 1.429 . S
C1658 C1641 1.574 . S
C1658 H1652 0.949 . S
C1658 C1662 1.368 . S
C1659 C1640 1.429 . S
C1659 C1653 1.429 . S
C1659 C1660 1.523 . S
C1660 C1641 1.368 . S
C1660 C1654 1.368 . S
C1660 C1659 1.523 . S
C1661 C1645 1.429 . S
C1661 C1657 1.429 . S
C1661 C1662 1.523 . S
C1662 C1646 1.368 . S
C1662 C1658 1.368 . S
C1662 C1661 1.523 . S
H1663 C1638 0.950 . S
H1664 C1640 0.950 . S
H1665 C1641 0.949 . S
H1666 C1643 0.950 . S
H1667 C1645 0.950 . S
C1668 C1669 1.349 . S
C1668 C1670 1.327 . S
C1668 H1693 0.950 . S
C1669 C1668 1.349 . S
C1669 C1685 1.349 . S
C1670 C1668 1.327 . S
C1670 C1689 1.429 . S
C1670 H1694 0.950 . S
C1671 C1688 1.574 . S
C1671 C1690 1.368 . S
C1671 H1695 0.949 . S
H1672 C1676 0.949 . S
C1673 C1674 1.349 . S
C1673 C1675 1.327 . S
C1673 H1696 0.950 . S
C1674 C1673 1.349 . S
C1674 C1686 1.349 . S
C1675 C1673 1.327 . S
C1675 C1691 1.429 . S
C1675 H1697 0.950 . S
C1676 H1672 0.949 . S
C1676 C1684 1.574 . S
C1676 C1692 1.368 . S
H1677 C1685 0.950 . S
H1678 C1683 0.950 . S
H1679 C1684 0.949 . S
H1680 C1686 0.950 . S
H1681 C1687 0.950 . S
H1682 C1688 0.949 . S
C1683 H1678 0.950 . S
C1683 C1685 1.327 . S
C1683 C1689 1.429 . S
C1684 C1676 1.574 . S
C1684 H1679 0.949 . S
C1684 C1690 1.368 . S
C1685 C1669 1.349 . S
C1685 H1677 0.950 . S
C1685 C1683 1.327 . S
C1686 C1674 1.349 . S
C1686 H1680 0.950 . S
C1686 C1687 1.327 . S
C1687 H1681 0.950 . S
C1687 C1686 1.327 . S
C1687 C1691 1.429 . S
C1688 C1671 1.574 . S
C1688 H1682 0.949 . S
C1688 C1692 1.368 . S
C1689 C1670 1.429 . S
C1689 C1683 1.429 . S
C1689 C1690 1.523 . S
C1690 C1671 1.368 . S
C1690 C1684 1.368 . S
C1690 C1689 1.523 . S
C1691 C1675 1.429 . S
C1691 C1687 1.429 . S
C1691 C1692 1.523 . S
C1692 C1676 1.368 . S
C1692 C1688 1.368 . S
C1692 C1691 1.523 . S
H1693 C1668 0.950 . S
H1694 C1670 0.950 . S
H1695 C1671 0.949 . S
H1696 C1673 0.950 . S
H1697 C1675 0.950 . S
C1698 C1699 1.349 . S
C1698 C1700 1.327 . S
C1698 H1723 0.950 . S
C1699 C1698 1.349 . S
C1699 C1715 1.349 . S
C1700 C1698 1.327 . S
C1700 C1719 1.429 . S
C1700 H1724 0.950 . S
C1701 C1718 1.574 . S
C1701 C1720 1.368 . S
C1701 H1725 0.949 . S
H1702 C1706 0.949 . S
C1703 C1704 1.349 . S
C1703 C1705 1.327 . S
C1703 H1726 0.950 . S
C1704 C1703 1.349 . S
C1704 C1716 1.349 . S
C1705 C1703 1.327 . S
C1705 C1721 1.429 . S
C1705 H1727 0.950 . S
C1706 H1702 0.949 . S
C1706 C1714 1.574 . S
C1706 C1722 1.368 . S
H1707 C1715 0.950 . S
H1708 C1713 0.950 . S
H1709 C1714 0.949 . S
H1710 C1716 0.950 . S
H1711 C1717 0.950 . S
H1712 C1718 0.949 . S
C1713 H1708 0.950 . S
C1713 C1715 1.327 . S
C1713 C1719 1.429 . S
C1714 C1706 1.574 . S
C1714 H1709 0.949 . S
C1714 C1720 1.368 . S
C1715 C1699 1.349 . S
C1715 H1707 0.950 . S
C1715 C1713 1.327 . S
C1716 C1704 1.349 . S
C1716 H1710 0.950 . S
C1716 C1717 1.327 . S
C1717 H1711 0.950 . S
C1717 C1716 1.327 . S
C1717 C1721 1.429 . S
C1718 C1701 1.574 . S
C1718 H1712 0.949 . S
C1718 C1722 1.368 . S
C1719 C1700 1.429 . S
C1719 C1713 1.429 . S
C1719 C1720 1.523 . S
C1720 C1701 1.368 . S
C1720 C1714 1.368 . S
C1720 C1719 1.523 . S
C1721 C1705 1.429 . S
C1721 C1717 1.429 . S
C1721 C1722 1.523 . S
C1722 C1706 1.368 . S
C1722 C1718 1.368 . S
C1722 C1721 1.523 . S
H1723 C1698 0.950 . S
H1724 C1700 0.950 . S
H1725 C1701 0.949 . S
H1726 C1703 0.950 . S
H1727 C1705 0.950 . S
C1728 C1729 1.349 . S
C1728 C1730 1.327 . S
C1728 H1753 0.950 . S
C1729 C1728 1.349 . S
C1729 C1745 1.349 . S
C1730 C1728 1.327 . S
C1730 C1749 1.429 . S
C1730 H1754 0.950 . S
C1731 C1748 1.574 . S
C1731 C1750 1.368 . S
C1731 H1755 0.949 . S
H1732 C1736 0.949 . S
C1733 C1734 1.349 . S
C1733 C1735 1.327 . S
C1733 H1756 0.950 . S
C1734 C1733 1.349 . S
C1734 C1746 1.349 . S
C1735 C1733 1.327 . S
C1735 C1751 1.429 . S
C1735 H1757 0.950 . S
C1736 H1732 0.949 . S
C1736 C1744 1.574 . S
C1736 C1752 1.368 . S
H1737 C1745 0.950 . S
H1738 C1743 0.950 . S
H1739 C1744 0.949 . S
H1740 C1746 0.950 . S
H1741 C1747 0.950 . S
H1742 C1748 0.949 . S
C1743 H1738 0.950 . S
C1743 C1745 1.327 . S
C1743 C1749 1.429 . S
C1744 C1736 1.574 . S
C1744 H1739 0.949 . S
C1744 C1750 1.368 . S
C1745 C1729 1.349 . S
C1745 H1737 0.950 . S
C1745 C1743 1.327 . S
C1746 C1734 1.349 . S
C1746 H1740 0.950 . S
C1746 C1747 1.327 . S
C1747 H1741 0.950 . S
C1747 C1746 1.327 . S
C1747 C1751 1.429 . S
C1748 C1731 1.574 . S
C1748 H1742 0.949 . S
C1748 C1752 1.368 . S
C1749 C1730 1.429 . S
C1749 C1743 1.429 . S
C1749 C1750 1.523 . S
C1750 C1731 1.368 . S
C1750 C1744 1.368 . S
C1750 C1749 1.523 . S
C1751 C1735 1.429 . S
C1751 C1747 1.429 . S
C1751 C1752 1.523 . S
C1752 C1736 1.368 . S
C1752 C1748 1.368 . S
C1752 C1751 1.523 . S
H1753 C1728 0.950 . S
H1754 C1730 0.950 . S
H1755 C1731 0.949 . S
H1756 C1733 0.950 . S
H1757 C1735 0.950 . S
C1758 C1759 1.349 . S
C1758 C1760 1.327 . S
C1758 H1783 0.950 . S
C1759 C1758 1.349 . S
C1759 C1775 1.349 . S
C1760 C1758 1.327 . S
C1760 C1779 1.429 . S
C1760 H1784 0.950 . S
C1761 C1778 1.574 . S
C1761 C1780 1.368 . S
C1761 H1785 0.949 . S
H1762 C1766 0.949 . S
C1763 C1764 1.349 . S
C1763 C1765 1.327 . S
C1763 H1786 0.950 . S
C1764 C1763 1.349 . S
C1764 C1776 1.349 . S
C1765 C1763 1.327 . S
C1765 C1781 1.429 . S
C1765 H1787 0.950 . S
C1766 H1762 0.949 . S
C1766 C1774 1.574 . S
C1766 C1782 1.368 . S
H1767 C1775 0.950 . S
H1768 C1773 0.950 . S
H1769 C1774 0.949 . S
H1770 C1776 0.950 . S
H1771 C1777 0.950 . S
H1772 C1778 0.949 . S
C1773 H1768 0.950 . S
C1773 C1775 1.327 . S
C1773 C1779 1.429 . S
C1774 C1766 1.574 . S
C1774 H1769 0.949 . S
C1774 C1780 1.368 . S
C1775 C1759 1.349 . S
C1775 H1767 0.950 . S
C1775 C1773 1.327 . S
C1776 C1764 1.349 . S
C1776 H1770 0.950 . S
C1776 C1777 1.327 . S
C1777 H1771 0.950 . S
C1777 C1776 1.327 . S
C1777 C1781 1.429 . S
C1778 C1761 1.574 . S
C1778 H1772 0.949 . S
C1778 C1782 1.368 . S
C1779 C1760 1.429 . S
C1779 C1773 1.429 . S
C1779 C1780 1.523 . S
C1780 C1761 1.368 . S
C1780 C1774 1.368 . S
C1780 C1779 1.523 . S
C1781 C1765 1.429 . S
C1781 C1777 1.429 . S
C1781 C1782 1.523 . S
C1782 C1766 1.368 . S
C1782 C1778 1.368 . S
C1782 C1781 1.523 . S
H1783 C1758 0.950 . S
H1784 C1760 0.950 . S
H1785 C1761 0.949 . S
H1786 C1763 0.950 . S
H1787 C1765 0.950 . S
C1788 C1789 1.349 . S
C1788 C1790 1.327 . S
C1788 H1813 0.950 . S
C1789 C1788 1.349 . S
C1789 C1805 1.349 . S
C1790 C1788 1.327 . S
C1790 C1809 1.429 . S
C1790 H1814 0.950 . S
C1791 C1808 1.574 . S
C1791 C1810 1.368 . S
C1791 H1815 0.949 . S
H1792 C1796 0.949 . S
C1793 C1794 1.349 . S
C1793 C1795 1.327 . S
C1793 H1816 0.950 . S
C1794 C1793 1.349 . S
C1794 C1806 1.349 . S
C1795 C1793 1.327 . S
C1795 C1811 1.429 . S
C1795 H1817 0.950 . S
C1796 H1792 0.949 . S
C1796 C1804 1.574 . S
C1796 C1812 1.368 . S
H1797 C1805 0.950 . S
H1798 C1803 0.950 . S
H1799 C1804 0.949 . S
H1800 C1806 0.950 . S
H1801 C1807 0.950 . S
H1802 C1808 0.949 . S
C1803 H1798 0.950 . S
C1803 C1805 1.327 . S
C1803 C1809 1.429 . S
C1804 C1796 1.574 . S
C1804 H1799 0.949 . S
C1804 C1810 1.368 . S
C1805 C1789 1.349 . S
C1805 H1797 0.950 . S
C1805 C1803 1.327 . S
C1806 C1794 1.349 . S
C1806 H1800 0.950 . S
C1806 C1807 1.327 . S
C1807 H1801 0.950 . S
C1807 C1806 1.327 . S
C1807 C1811 1.429 . S
C1808 C1791 1.574 . S
C1808 H1802 0.949 . S
C1808 C1812 1.368 . S
C1809 C1790 1.429 . S
C1809 C1803 1.429 . S
C1809 C1810 1.523 . S
C1810 C1791 1.368 . S
C1810 C1804 1.368 . S
C1810 C1809 1.523 . S
C1811 C1795 1.429 . S
C1811 C1807 1.429 . S
C1811 C1812 1.523 . S
C1812 C1796 1.368 . S
C1812 C1808 1.368 . S
C1812 C1811 1.523 . S
H1813 C1788 0.950 . S
H1814 C1790 0.950 . S
H1815 C1791 0.949 . S
H1816 C1793 0.950 . S
H1817 C1795 0.950 . S
C1818 C1819 1.349 . S
C1818 C1820 1.327 . S
C1818 H1843 0.950 . S
C1819 C1818 1.349 . S
C1819 C1835 1.349 . S
C1820 C1818 1.327 . S
C1820 C1839 1.429 . S
C1820 H1844 0.950 . S
C1821 C1838 1.574 . S
C1821 C1840 1.368 . S
C1821 H1845 0.949 . S
H1822 C1826 0.949 . S
C1823 C1824 1.349 . S
C1823 C1825 1.327 . S
C1823 H1846 0.950 . S
C1824 C1823 1.349 . S
C1824 C1836 1.349 . S
C1825 C1823 1.327 . S
C1825 C1841 1.429 . S
C1825 H1847 0.950 . S
C1826 H1822 0.949 . S
C1826 C1834 1.574 . S
C1826 C1842 1.368 . S
H1827 C1835 0.950 . S
H1828 C1833 0.950 . S
H1829 C1834 0.949 . S
H1830 C1836 0.950 . S
H1831 C1837 0.950 . S
H1832 C1838 0.949 . S
C1833 H1828 0.950 . S
C1833 C1835 1.327 . S
C1833 C1839 1.429 . S
C1834 C1826 1.574 . S
C1834 H1829 0.949 . S
C1834 C1840 1.368 . S
C1835 C1819 1.349 . S
C1835 H1827 0.950 . S
C1835 C1833 1.327 . S
C1836 C1824 1.349 . S
C1836 H1830 0.950 . S
C1836 C1837 1.327 . S
C1837 H1831 0.950 . S
C1837 C1836 1.327 . S
C1837 C1841 1.429 . S
C1838 C1821 1.574 . S
C1838 H1832 0.949 . S
C1838 C1842 1.368 . S
C1839 C1820 1.429 . S
C1839 C1833 1.429 . S
C1839 C1840 1.523 . S
C1840 C1821 1.368 . S
C1840 C1834 1.368 . S
C1840 C1839 1.523 . S
C1841 C1825 1.429 . S
C1841 C1837 1.429 . S
C1841 C1842 1.523 . S
C1842 C1826 1.368 . S
C1842 C1838 1.368 . S
C1842 C1841 1.523 . S
H1843 C1818 0.950 . S
H1844 C1820 0.950 . S
H1845 C1821 0.949 . S
H1846 C1823 0.950 . S
H1847 C1825 0.950 . S
C1848 C1849 1.349 . S
C1848 C1850 1.327 . S
C1848 H1873 0.950 . S
C1849 C1848 1.349 . S
C1849 C1865 1.349 . S
C1850 C1848 1.327 . S
C1850 C1869 1.429 . S
C1850 H1874 0.950 . S
C1851 C1868 1.574 . S
C1851 C1870 1.368 . S
C1851 H1875 0.949 . S
H1852 C1856 0.949 . S
C1853 C1854 1.349 . S
C1853 C1855 1.327 . S
C1853 H1876 0.950 . S
C1854 C1853 1.349 . S
C1854 C1866 1.349 . S
C1855 C1853 1.327 . S
C1855 C1871 1.429 . S
C1855 H1877 0.950 . S
C1856 H1852 0.949 . S
C1856 C1864 1.574 . S
C1856 C1872 1.368 . S
H1857 C1865 0.950 . S
H1858 C1863 0.950 . S
H1859 C1864 0.949 . S
H1860 C1866 0.950 . S
H1861 C1867 0.950 . S
H1862 C1868 0.949 . S
C1863 H1858 0.950 . S
C1863 C1865 1.327 . S
C1863 C1869 1.429 . S
C1864 C1856 1.574 . S
C1864 H1859 0.949 . S
C1864 C1870 1.368 . S
C1865 C1849 1.349 . S
C1865 H1857 0.950 . S
C1865 C1863 1.327 . S
C1866 C1854 1.349 . S
C1866 H1860 0.950 . S
C1866 C1867 1.327 . S
C1867 H1861 0.950 . S
C1867 C1866 1.327 . S
C1867 C1871 1.429 . S
C1868 C1851 1.574 . S
C1868 H1862 0.949 . S
C1868 C1872 1.368 . S
C1869 C1850 1.429 . S
C1869 C1863 1.429 . S
C1869 C1870 1.523 . S
C1870 C1851 1.368 . S
C1870 C1864 1.368 . S
C1870 C1869 1.523 . S
C1871 C1855 1.429 . S
C1871 C1867 1.429 . S
C1871 C1872 1.523 . S
C1872 C1856 1.368 . S
C1872 C1868 1.368 . S
C1872 C1871 1.523 . S
H1873 C1848 0.950 . S
H1874 C1850 0.950 . S
H1875 C1851 0.949 . S
H1876 C1853 0.950 . S
H1877 C1855 0.950 . S
C1878 C1879 1.349 . S
C1878 C1880 1.327 . S
C1878 H1903 0.950 . S
C1879 C1878 1.349 . S
C1879 C1895 1.349 . S
C1880 C1878 1.327 . S
C1880 C1899 1.429 . S
C1880 H1904 0.950 . S
C1881 C1898 1.574 . S
C1881 C1900 1.368 . S
C1881 H1905 0.949 . S
H1882 C1886 0.949 . S
C1883 C1884 1.349 . S
C1883 C1885 1.327 . S
C1883 H1906 0.950 . S
C1884 C1883 1.349 . S
C1884 C1896 1.349 . S
C1885 C1883 1.327 . S
C1885 C1901 1.429 . S
C1885 H1907 0.950 . S
C1886 H1882 0.949 . S
C1886 C1894 1.574 . S
C1886 C1902 1.368 . S
H1887 C1895 0.950 . S
H1888 C1893 0.950 . S
H1889 C1894 0.949 . S
H1890 C1896 0.950 . S
H1891 C1897 0.950 . S
H1892 C1898 0.949 . S
C1893 H1888 0.950 . S
C1893 C1895 1.327 . S
C1893 C1899 1.429 . S
C1894 C1886 1.574 . S
C1894 H1889 0.949 . S
C1894 C1900 1.368 . S
C1895 C1879 1.349 . S
C1895 H1887 0.950 . S
C1895 C1893 1.327 . S
C1896 C1884 1.349 . S
C1896 H1890 0.950 . S
C1896 C1897 1.327 . S
C1897 H1891 0.950 . S
C1897 C1896 1.327 . S
C1897 C1901 1.429 . S
C1898 C1881 1.574 . S
C1898 H1892 0.949 . S
C1898 C1902 1.368 . S
C1899 C1880 1.429 . S
C1899 C1893 1.429 . S
C1899 C1900 1.523 . S
C1900 C1881 1.368 . S
C1900 C1894 1.368 . S
C1900 C1899 1.523 . S
C1901 C1885 1.429 . S
C1901 C1897 1.429 . S
C1901 C1902 1.523 . S
C1902 C1886 1.368 . S
C1902 C1898 1.368 . S
C1902 C1901 1.523 . S
H1903 C1878 0.950 . S
H1904 C1880 0.950 . S
H1905 C1881 0.949 . S
H1906 C1883 0.950 . S
H1907 C1885 0.950 . S
C1908 C1909 1.349 . S
C1908 C1910 1.327 . S
C1908 H1933 0.950 . S
C1909 C1908 1.349 . S
C1909 C1925 1.349 . S
C1910 C1908 1.327 . S
C1910 C1929 1.429 . S
C1910 H1934 0.950 . S
C1911 C1928 1.574 . S
C1911 C1930 1.368 . S
C1911 H1935 0.949 . S
H1912 C1916 0.949 . S
C1913 C1914 1.349 . S
C1913 C1915 1.327 . S
C1913 H1936 0.950 . S
C1914 C1913 1.349 . S
C1914 C1926 1.349 . S
C1915 C1913 1.327 . S
C1915 C1931 1.429 . S
C1915 H1937 0.950 . S
C1916 H1912 0.949 . S
C1916 C1924 1.574 . S
C1916 C1932 1.368 . S
H1917 C1925 0.950 . S
H1918 C1923 0.950 . S
H1919 C1924 0.949 . S
H1920 C1926 0.950 . S
H1921 C1927 0.950 . S
H1922 C1928 0.949 . S
C1923 H1918 0.950 . S
C1923 C1925 1.327 . S
C1923 C1929 1.429 . S
C1924 C1916 1.574 . S
C1924 H1919 0.949 . S
C1924 C1930 1.368 . S
C1925 C1909 1.349 . S
C1925 H1917 0.950 . S
C1925 C1923 1.327 . S
C1926 C1914 1.349 . S
C1926 H1920 0.950 . S
C1926 C1927 1.327 . S
C1927 H1921 0.950 . S
C1927 C1926 1.327 . S
C1927 C1931 1.429 . S
C1928 C1911 1.574 . S
C1928 H1922 0.949 . S
C1928 C1932 1.368 . S
C1929 C1910 1.429 . S
C1929 C1923 1.429 . S
C1929 C1930 1.523 . S
C1930 C1911 1.368 . S
C1930 C1924 1.368 . S
C1930 C1929 1.523 . S
C1931 C1915 1.429 . S
C1931 C1927 1.429 . S
C1931 C1932 1.523 . S
C1932 C1916 1.368 . S
C1932 C1928 1.368 . S
C1932 C1931 1.523 . S
H1933 C1908 0.950 . S
H1934 C1910 0.950 . S
H1935 C1911 0.949 . S
H1936 C1913 0.950 . S
H1937 C1915 0.950 . S
C1938 C1939 1.349 . S
C1938 C1940 1.327 . S
C1938 H1963 0.950 . S
C1939 C1938 1.349 . S
C1939 C1955 1.349 . S
C1940 C1938 1.327 . S
C1940 C1959 1.429 . S
C1940 H1964 0.950 . S
C1941 C1958 1.574 . S
C1941 C1960 1.368 . S
C1941 H1965 0.949 . S
H1942 C1946 0.949 . S
C1943 C1944 1.349 . S
C1943 C1945 1.327 . S
C1943 H1966 0.950 . S
C1944 C1943 1.349 . S
C1944 C1956 1.349 . S
C1945 C1943 1.327 . S
C1945 C1961 1.429 . S
C1945 H1967 0.950 . S
C1946 H1942 0.949 . S
C1946 C1954 1.574 . S
C1946 C1962 1.368 . S
H1947 C1955 0.950 . S
H1948 C1953 0.950 . S
H1949 C1954 0.949 . S
H1950 C1956 0.950 . S
H1951 C1957 0.950 . S
H1952 C1958 0.949 . S
C1953 H1948 0.950 . S
C1953 C1955 1.327 . S
C1953 C1959 1.429 . S
C1954 C1946 1.574 . S
C1954 H1949 0.949 . S
C1954 C1960 1.368 . S
C1955 C1939 1.349 . S
C1955 H1947 0.950 . S
C1955 C1953 1.327 . S
C1956 C1944 1.349 . S
C1956 H1950 0.950 . S
C1956 C1957 1.327 . S
C1957 H1951 0.950 . S
C1957 C1956 1.327 . S
C1957 C1961 1.429 . S
C1958 C1941 1.574 . S
C1958 H1952 0.949 . S
C1958 C1962 1.368 . S
C1959 C1940 1.429 . S
C1959 C1953 1.429 . S
C1959 C1960 1.523 . S
C1960 C1941 1.368 . S
C1960 C1954 1.368 . S
C1960 C1959 1.523 . S
C1961 C1945 1.429 . S
C1961 C1957 1.429 . S
C1961 C1962 1.523 . S
C1962 C1946 1.368 . S
C1962 C1958 1.368 . S
C1962 C1961 1.523 . S
H1963 C1938 0.950 . S
H1964 C1940 0.950 . S
H1965 C1941 0.949 . S
H1966 C1943 0.950 . S
H1967 C1945 0.950 . S
C1968 C1969 1.349 . S
C1968 C1970 1.327 . S
C1968 H1993 0.950 . S
C1969 C1968 1.349 . S
C1969 C1985 1.349 . S
C1970 C1968 1.327 . S
C1970 C1989 1.429 . S
C1970 H1994 0.950 . S
C1971 C1988 1.574 . S
C1971 C1990 1.368 . S
C1971 H1995 0.949 . S
H1972 C1976 0.949 . S
C1973 C1974 1.349 . S
C1973 C1975 1.327 . S
C1973 H1996 0.950 . S
C1974 C1973 1.349 . S
C1974 C1986 1.349 . S
C1975 C1973 1.327 . S
C1975 C1991 1.429 . S
C1975 H1997 0.950 . S
C1976 H1972 0.949 . S
C1976 C1984 1.574 . S
C1976 C1992 1.368 . S
H1977 C1985 0.950 . S
H1978 C1983 0.950 . S
H1979 C1984 0.949 . S
H1980 C1986 0.950 . S
H1981 C1987 0.950 . S
H1982 C1988 0.949 . S
C1983 H1978 0.950 . S
C1983 C1985 1.327 . S
C1983 C1989 1.429 . S
C1984 C1976 1.574 . S
C1984 H1979 0.949 . S
C1984 C1990 1.368 . S
C1985 C1969 1.349 . S
C1985 H1977 0.950 . S
C1985 C1983 1.327 . S
C1986 C1974 1.349 . S
C1986 H1980 0.950 . S
C1986 C1987 1.327 . S
C1987 H1981 0.950 . S
C1987 C1986 1.327 . S
C1987 C1991 1.429 . S
C1988 C1971 1.574 . S
C1988 H1982 0.949 . S
C1988 C1992 1.368 . S
C1989 C1970 1.429 . S
C1989 C1983 1.429 . S
C1989 C1990 1.523 . S
C1990 C1971 1.368 . S
C1990 C1984 1.368 . S
C1990 C1989 1.523 . S
C1991 C1975 1.429 . S
C1991 C1987 1.429 . S
C1991 C1992 1.523 . S
C1992 C1976 1.368 . S
C1992 C1988 1.368 . S
C1992 C1991 1.523 . S
H1993 C1968 0.950 . S
H1994 C1970 0.950 . S
H1995 C1971 0.949 . S
H1996 C1973 0.950 . S
H1997 C1975 0.950 . S
C1998 C1999 1.349 . S
C1998 C2000 1.327 . S
C1998 H2023 0.950 . S
C1999 C1998 1.349 . S
C1999 C2015 1.349 . S
C2000 C1998 1.327 . S
C2000 C2019 1.429 . S
C2000 H2024 0.950 . S
C2001 C2018 1.574 . S
C2001 C2020 1.368 . S
C2001 H2025 0.949 . S
H2002 C2006 0.949 . S
C2003 C2004 1.349 . S
C2003 C2005 1.327 . S
C2003 H2026 0.950 . S
C2004 C2003 1.349 . S
C2004 C2016 1.349 . S
C2005 C2003 1.327 . S
C2005 C2021 1.429 . S
C2005 H2027 0.950 . S
C2006 H2002 0.949 . S
C2006 C2014 1.574 . S
C2006 C2022 1.368 . S
H2007 C2015 0.950 . S
H2008 C2013 0.950 . S
H2009 C2014 0.949 . S
H2010 C2016 0.950 . S
H2011 C2017 0.950 . S
H2012 C2018 0.949 . S
C2013 H2008 0.950 . S
C2013 C2015 1.327 . S
C2013 C2019 1.429 . S
C2014 C2006 1.574 . S
C2014 H2009 0.949 . S
C2014 C2020 1.368 . S
C2015 C1999 1.349 . S
C2015 H2007 0.950 . S
C2015 C2013 1.327 . S
C2016 C2004 1.349 . S
C2016 H2010 0.950 . S
C2016 C2017 1.327 . S
C2017 H2011 0.950 . S
C2017 C2016 1.327 . S
C2017 C2021 1.429 . S
C2018 C2001 1.574 . S
C2018 H2012 0.949 . S
C2018 C2022 1.368 . S
C2019 C2000 1.429 . S
C2019 C2013 1.429 . S
C2019 C2020 1.523 . S
C2020 C2001 1.368 . S
C2020 C2014 1.368 . S
C2020 C2019 1.523 . S
C2021 C2005 1.429 . S
C2021 C2017 1.429 . S
C2021 C2022 1.523 . S
C2022 C2006 1.368 . S
C2022 C2018 1.368 . S
C2022 C2021 1.523 . S
H2023 C1998 0.950 . S
H2024 C2000 0.950 . S
H2025 C2001 0.949 . S
H2026 C2003 0.950 . S
H2027 C2005 0.950 . S
C2028 C2029 1.349 . S
C2028 C2030 1.327 . S
C2028 H2053 0.950 . S
C2029 C2028 1.349 . S
C2029 C2045 1.349 . S
C2030 C2028 1.327 . S
C2030 C2049 1.429 . S
C2030 H2054 0.950 . S
C2031 C2048 1.574 . S
C2031 C2050 1.368 . S
C2031 H2055 0.949 . S
H2032 C2036 0.949 . S
C2033 C2034 1.349 . S
C2033 C2035 1.327 . S
C2033 H2056 0.950 . S
C2034 C2033 1.349 . S
C2034 C2046 1.349 . S
C2035 C2033 1.327 . S
C2035 C2051 1.429 . S
C2035 H2057 0.950 . S
C2036 H2032 0.949 . S
C2036 C2044 1.574 . S
C2036 C2052 1.368 . S
H2037 C2045 0.950 . S
H2038 C2043 0.950 . S
H2039 C2044 0.949 . S
H2040 C2046 0.950 . S
H2041 C2047 0.950 . S
H2042 C2048 0.949 . S
C2043 H2038 0.950 . S
C2043 C2045 1.327 . S
C2043 C2049 1.429 . S
C2044 C2036 1.574 . S
C2044 H2039 0.949 . S
C2044 C2050 1.368 . S
C2045 C2029 1.349 . S
C2045 H2037 0.950 . S
C2045 C2043 1.327 . S
C2046 C2034 1.349 . S
C2046 H2040 0.950 . S
C2046 C2047 1.327 . S
C2047 H2041 0.950 . S
C2047 C2046 1.327 . S
C2047 C2051 1.429 . S
C2048 C2031 1.574 . S
C2048 H2042 0.949 . S
C2048 C2052 1.368 . S
C2049 C2030 1.429 . S
C2049 C2043 1.429 . S
C2049 C2050 1.523 . S
C2050 C2031 1.368 . S
C2050 C2044 1.368 . S
C2050 C2049 1.523 . S
C2051 C2035 1.429 . S
C2051 C2047 1.429 . S
C2051 C2052 1.523 . S
C2052 C2036 1.368 . S
C2052 C2048 1.368 . S
C2052 C2051 1.523 . S
H2053 C2028 0.950 . S
H2054 C2030 0.950 . S
H2055 C2031 0.949 . S
H2056 C2033 0.950 . S
H2057 C2035 0.950 . S
C2058 C2059 1.349 . S
C2058 C2060 1.327 . S
C2058 H2083 0.950 . S
C2059 C2058 1.349 . S
C2059 C2075 1.349 . S
C2060 C2058 1.327 . S
C2060 C2079 1.429 . S
C2060 H2084 0.950 . S
C2061 C2078 1.574 . S
C2061 C2080 1.368 . S
C2061 H2085 0.949 . S
H2062 C2066 0.949 . S
C2063 C2064 1.349 . S
C2063 C2065 1.327 . S
C2063 H2086 0.950 . S
C2064 C2063 1.349 . S
C2064 C2076 1.349 . S
C2065 C2063 1.327 . S
C2065 C2081 1.429 . S
C2065 H2087 0.950 . S
C2066 H2062 0.949 . S
C2066 C2074 1.574 . S
C2066 C2082 1.368 . S
H2067 C2075 0.950 . S
H2068 C2073 0.950 . S
H2069 C2074 0.949 . S
H2070 C2076 0.950 . S
H2071 C2077 0.950 . S
H2072 C2078 0.949 . S
C2073 H2068 0.950 . S
C2073 C2075 1.327 . S
C2073 C2079 1.429 . S
C2074 C2066 1.574 . S
C2074 H2069 0.949 . S
C2074 C2080 1.368 . S
C2075 C2059 1.349 . S
C2075 H2067 0.950 . S
C2075 C2073 1.327 . S
C2076 C2064 1.349 . S
C2076 H2070 0.950 . S
C2076 C2077 1.327 . S
C2077 H2071 0.950 . S
C2077 C2076 1.327 . S
C2077 C2081 1.429 . S
C2078 C2061 1.574 . S
C2078 H2072 0.949 . S
C2078 C2082 1.368 . S
C2079 C2060 1.429 . S
C2079 C2073 1.429 . S
C2079 C2080 1.523 . S
C2080 C2061 1.368 . S
C2080 C2074 1.368 . S
C2080 C2079 1.523 . S
C2081 C2065 1.429 . S
C2081 C2077 1.429 . S
C2081 C2082 1.523 . S
C2082 C2066 1.368 . S
C2082 C2078 1.368 . S
C2082 C2081 1.523 . S
H2083 C2058 0.950 . S
H2084 C2060 0.950 . S
H2085 C2061 0.949 . S
H2086 C2063 0.950 . S
H2087 C2065 0.950 . S
C2088 C2089 1.349 . S
C2088 C2090 1.327 . S
C2088 H2113 0.950 . S
C2089 C2088 1.349 . S
C2089 C2105 1.349 . S
C2090 C2088 1.327 . S
C2090 C2109 1.429 . S
C2090 H2114 0.950 . S
C2091 C2108 1.574 . S
C2091 C2110 1.368 . S
C2091 H2115 0.949 . S
H2092 C2096 0.949 . S
C2093 C2094 1.349 . S
C2093 C2095 1.327 . S
C2093 H2116 0.950 . S
C2094 C2093 1.349 . S
C2094 C2106 1.349 . S
C2095 C2093 1.327 . S
C2095 C2111 1.429 . S
C2095 H2117 0.950 . S
C2096 H2092 0.949 . S
C2096 C2104 1.574 . S
C2096 C2112 1.368 . S
H2097 C2105 0.950 . S
H2098 C2103 0.950 . S
H2099 C2104 0.949 . S
H2100 C2106 0.950 . S
H2101 C2107 0.950 . S
H2102 C2108 0.949 . S
C2103 H2098 0.950 . S
C2103 C2105 1.327 . S
C2103 C2109 1.429 . S
C2104 C2096 1.574 . S
C2104 H2099 0.949 . S
C2104 C2110 1.368 . S
C2105 C2089 1.349 . S
C2105 H2097 0.950 . S
C2105 C2103 1.327 . S
C2106 C2094 1.349 . S
C2106 H2100 0.950 . S
C2106 C2107 1.327 . S
C2107 H2101 0.950 . S
C2107 C2106 1.327 . S
C2107 C2111 1.429 . S
C2108 C2091 1.574 . S
C2108 H2102 0.949 . S
C2108 C2112 1.368 . S
C2109 C2090 1.429 . S
C2109 C2103 1.429 . S
C2109 C2110 1.523 . S
C2110 C2091 1.368 . S
C2110 C2104 1.368 . S
C2110 C2109 1.523 . S
C2111 C2095 1.429 . S
C2111 C2107 1.429 . S
C2111 C2112 1.523 . S
C2112 C2096 1.368 . S
C2112 C2108 1.368 . S
C2112 C2111 1.523 . S
H2113 C2088 0.950 . S
H2114 C2090 0.950 . S
H2115 C2091 0.949 . S
H2116 C2093 0.950 . S
H2117 C2095 0.950 . S
C2118 C2119 1.349 . S
C2118 C2120 1.327 . S
C2118 H2143 0.950 . S
C2119 C2118 1.349 . S
C2119 C2135 1.349 . S
C2120 C2118 1.327 . S
C2120 C2139 1.429 . S
C2120 H2144 0.950 . S
C2121 C2138 1.574 . S
C2121 C2140 1.368 . S
C2121 H2145 0.949 . S
H2122 C2126 0.949 . S
C2123 C2124 1.349 . S
C2123 C2125 1.327 . S
C2123 H2146 0.950 . S
C2124 C2123 1.349 . S
C2124 C2136 1.349 . S
C2125 C2123 1.327 . S
C2125 C2141 1.429 . S
C2125 H2147 0.950 . S
C2126 H2122 0.949 . S
C2126 C2134 1.574 . S
C2126 C2142 1.368 . S
H2127 C2135 0.950 . S
H2128 C2133 0.950 . S
H2129 C2134 0.949 . S
H2130 C2136 0.950 . S
H2131 C2137 0.950 . S
H2132 C2138 0.949 . S
C2133 H2128 0.950 . S
C2133 C2135 1.327 . S
C2133 C2139 1.429 . S
C2134 C2126 1.574 . S
C2134 H2129 0.949 . S
C2134 C2140 1.368 . S
C2135 C2119 1.349 . S
C2135 H2127 0.950 . S
C2135 C2133 1.327 . S
C2136 C2124 1.349 . S
C2136 H2130 0.950 . S
C2136 C2137 1.327 . S
C2137 H2131 0.950 . S
C2137 C2136 1.327 . S
C2137 C2141 1.429 . S
C2138 C2121 1.574 . S
C2138 H2132 0.949 . S
C2138 C2142 1.368 . S
C2139 C2120 1.429 . S
C2139 C2133 1.429 . S
C2139 C2140 1.523 . S
C2140 C2121 1.368 . S
C2140 C2134 1.368 . S
C2140 C2139 1.523 . S
C2141 C2125 1.429 . S
C2141 C2137 1.429 . S
C2141 C2142 1.523 . S
C2142 C2126 1.368 . S
C2142 C2138 1.368 . S
C2142 C2141 1.523 . S
H2143 C2118 0.950 . S
H2144 C2120 0.950 . S
H2145 C2121 0.949 . S
H2146 C2123 0.950 . S
H2147 C2125 0.950 . S
C2148 C2149 1.349 . S
C2148 C2150 1.327 . S
C2148 H2173 0.950 . S
C2149 C2148 1.349 . S
C2149 C2165 1.349 . S
C2150 C2148 1.327 . S
C2150 C2169 1.429 . S
C2150 H2174 0.950 . S
C2151 C2168 1.574 . S
C2151 C2170 1.368 . S
C2151 H2175 0.949 . S
H2152 C2156 0.949 . S
C2153 C2154 1.349 . S
C2153 C2155 1.327 . S
C2153 H2176 0.950 . S
C2154 C2153 1.349 . S
C2154 C2166 1.349 . S
C2155 C2153 1.327 . S
C2155 C2171 1.429 . S
C2155 H2177 0.950 . S
C2156 H2152 0.949 . S
C2156 C2164 1.574 . S
C2156 C2172 1.368 . S
H2157 C2165 0.950 . S
H2158 C2163 0.950 . S
H2159 C2164 0.949 . S
H2160 C2166 0.950 . S
H2161 C2167 0.950 . S
H2162 C2168 0.949 . S
C2163 H2158 0.950 . S
C2163 C2165 1.327 . S
C2163 C2169 1.429 . S
C2164 C2156 1.574 . S
C2164 H2159 0.949 . S
C2164 C2170 1.368 . S
C2165 C2149 1.349 . S
C2165 H2157 0.950 . S
C2165 C2163 1.327 . S
C2166 C2154 1.349 . S
C2166 H2160 0.950 . S
C2166 C2167 1.327 . S
C2167 H2161 0.950 . S
C2167 C2166 1.327 . S
C2167 C2171 1.429 . S
C2168 C2151 1.574 . S
C2168 H2162 0.949 . S
C2168 C2172 1.368 . S
C2169 C2150 1.429 . S
C2169 C2163 1.429 . S
C2169 C2170 1.523 . S
C2170 C2151 1.368 . S
C2170 C2164 1.368 . S
C2170 C2169 1.523 . S
C2171 C2155 1.429 . S
C2171 C2167 1.429 . S
C2171 C2172 1.523 . S
C2172 C2156 1.368 . S
C2172 C2168 1.368 . S
C2172 C2171 1.523 . S
H2173 C2148 0.950 . S
H2174 C2150 0.950 . S
H2175 C2151 0.949 . S
H2176 C2153 0.950 . S
H2177 C2155 0.950 . S
C2178 C2179 1.349 . S
C2178 C2180 1.327 . S
C2178 H2203 0.950 . S
C2179 C2178 1.349 . S
C2179 C2195 1.349 . S
C2180 C2178 1.327 . S
C2180 C2199 1.429 . S
C2180 H2204 0.950 . S
C2181 C2198 1.574 . S
C2181 C2200 1.368 . S
C2181 H2205 0.949 . S
H2182 C2186 0.949 . S
C2183 C2184 1.349 . S
C2183 C2185 1.327 . S
C2183 H2206 0.950 . S
C2184 C2183 1.349 . S
C2184 C2196 1.349 . S
C2185 C2183 1.327 . S
C2185 C2201 1.429 . S
C2185 H2207 0.950 . S
C2186 H2182 0.949 . S
C2186 C2194 1.574 . S
C2186 C2202 1.368 . S
H2187 C2195 0.950 . S
H2188 C2193 0.950 . S
H2189 C2194 0.949 . S
H2190 C2196 0.950 . S
H2191 C2197 0.950 . S
H2192 C2198 0.949 . S
C2193 H2188 0.950 . S
C2193 C2195 1.327 . S
C2193 C2199 1.429 . S
C2194 C2186 1.574 . S
C2194 H2189 0.949 . S
C2194 C2200 1.368 . S
C2195 C2179 1.349 . S
C2195 H2187 0.950 . S
C2195 C2193 1.327 . S
C2196 C2184 1.349 . S
C2196 H2190 0.950 . S
C2196 C2197 1.327 . S
C2197 H2191 0.950 . S
C2197 C2196 1.327 . S
C2197 C2201 1.429 . S
C2198 C2181 1.574 . S
C2198 H2192 0.949 . S
C2198 C2202 1.368 . S
C2199 C2180 1.429 . S
C2199 C2193 1.429 . S
C2199 C2200 1.523 . S
C2200 C2181 1.368 . S
C2200 C2194 1.368 . S
C2200 C2199 1.523 . S
C2201 C2185 1.429 . S
C2201 C2197 1.429 . S
C2201 C2202 1.523 . S
C2202 C2186 1.368 . S
C2202 C2198 1.368 . S
C2202 C2201 1.523 . S
H2203 C2178 0.950 . S
H2204 C2180 0.950 . S
H2205 C2181 0.949 . S
H2206 C2183 0.950 . S
H2207 C2185 0.950 . S
C2208 C2209 1.349 . S
C2208 C2210 1.327 . S
C2208 H2233 0.950 . S
C2209 C2208 1.349 . S
C2209 C2225 1.349 . S
C2210 C2208 1.327 . S
C2210 C2229 1.429 . S
C2210 H2234 0.950 . S
C2211 C2228 1.574 . S
C2211 C2230 1.368 . S
C2211 H2235 0.949 . S
H2212 C2216 0.949 . S
C2213 C2214 1.349 . S
C2213 C2215 1.327 . S
C2213 H2236 0.950 . S
C2214 C2213 1.349 . S
C2214 C2226 1.349 . S
C2215 C2213 1.327 . S
C2215 C2231 1.429 . S
C2215 H2237 0.950 . S
C2216 H2212 0.949 . S
C2216 C2224 1.574 . S
C2216 C2232 1.368 . S
H2217 C2225 0.950 . S
H2218 C2223 0.950 . S
H2219 C2224 0.949 . S
H2220 C2226 0.950 . S
H2221 C2227 0.950 . S
H2222 C2228 0.949 . S
C2223 H2218 0.950 . S
C2223 C2225 1.327 . S
C2223 C2229 1.429 . S
C2224 C2216 1.574 . S
C2224 H2219 0.949 . S
C2224 C2230 1.368 . S
C2225 C2209 1.349 . S
C2225 H2217 0.950 . S
C2225 C2223 1.327 . S
C2226 C2214 1.349 . S
C2226 H2220 0.950 . S
C2226 C2227 1.327 . S
C2227 H2221 0.950 . S
C2227 C2226 1.327 . S
C2227 C2231 1.429 . S
C2228 C2211 1.574 . S
C2228 H2222 0.949 . S
C2228 C2232 1.368 . S
C2229 C2210 1.429 . S
C2229 C2223 1.429 . S
C2229 C2230 1.523 . S
C2230 C2211 1.368 . S
C2230 C2224 1.368 . S
C2230 C2229 1.523 . S
C2231 C2215 1.429 . S
C2231 C2227 1.429 . S
C2231 C2232 1.523 . S
C2232 C2216 1.368 . S
C2232 C2228 1.368 . S
C2232 C2231 1.523 . S
H2233 C2208 0.950 . S
H2234 C2210 0.950 . S
H2235 C2211 0.949 . S
H2236 C2213 0.950 . S
H2237 C2215 0.950 . S
C2238 C2239 1.349 . S
C2238 C2240 1.327 . S
C2238 H2263 0.950 . S
C2239 C2238 1.349 . S
C2239 C2255 1.349 . S
C2240 C2238 1.327 . S
C2240 C2259 1.429 . S
C2240 H2264 0.950 . S
C2241 C2258 1.574 . S
C2241 C2260 1.368 . S
C2241 H2265 0.949 . S
H2242 C2246 0.949 . S
C2243 C2244 1.349 . S
C2243 C2245 1.327 . S
C2243 H2266 0.950 . S
C2244 C2243 1.349 . S
C2244 C2256 1.349 . S
C2245 C2243 1.327 . S
C2245 C2261 1.429 . S
C2245 H2267 0.950 . S
C2246 H2242 0.949 . S
C2246 C2254 1.574 . S
C2246 C2262 1.368 . S
H2247 C2255 0.950 . S
H2248 C2253 0.950 . S
H2249 C2254 0.949 . S
H2250 C2256 0.950 . S
H2251 C2257 0.950 . S
H2252 C2258 0.949 . S
C2253 H2248 0.950 . S
C2253 C2255 1.327 . S
C2253 C2259 1.429 . S
C2254 C2246 1.574 . S
C2254 H2249 0.949 . S
C2254 C2260 1.368 . S
C2255 C2239 1.349 . S
C2255 H2247 0.950 . S
C2255 C2253 1.327 . S
C2256 C2244 1.349 . S
C2256 H2250 0.950 . S
C2256 C2257 1.327 . S
C2257 H2251 0.950 . S
C2257 C2256 1.327 . S
C2257 C2261 1.429 . S
C2258 C2241 1.574 . S
C2258 H2252 0.949 . S
C2258 C2262 1.368 . S
C2259 C2240 1.429 . S
C2259 C2253 1.429 . S
C2259 C2260 1.523 . S
C2260 C2241 1.368 . S
C2260 C2254 1.368 . S
C2260 C2259 1.523 . S
C2261 C2245 1.429 . S
C2261 C2257 1.429 . S
C2261 C2262 1.523 . S
C2262 C2246 1.368 . S
C2262 C2258 1.368 . S
C2262 C2261 1.523 . S
H2263 C2238 0.950 . S
H2264 C2240 0.950 . S
H2265 C2241 0.949 . S
H2266 C2243 0.950 . S
H2267 C2245 0.950 . S
C2268 C2269 1.349 . S
C2268 C2270 1.327 . S
C2268 H2293 0.950 . S
C2269 C2268 1.349 . S
C2269 C2285 1.349 . S
C2270 C2268 1.327 . S
C2270 C2289 1.429 . S
C2270 H2294 0.950 . S
C2271 C2288 1.574 . S
C2271 C2290 1.368 . S
C2271 H2295 0.949 . S
H2272 C2276 0.949 . S
C2273 C2274 1.349 . S
C2273 C2275 1.327 . S
C2273 H2296 0.950 . S
C2274 C2273 1.349 . S
C2274 C2286 1.349 . S
C2275 C2273 1.327 . S
C2275 C2291 1.429 . S
C2275 H2297 0.950 . S
C2276 H2272 0.949 . S
C2276 C2284 1.574 . S
C2276 C2292 1.368 . S
H2277 C2285 0.950 . S
H2278 C2283 0.950 . S
H2279 C2284 0.949 . S
H2280 C2286 0.950 . S
H2281 C2287 0.950 . S
H2282 C2288 0.949 . S
C2283 H2278 0.950 . S
C2283 C2285 1.327 . S
C2283 C2289 1.429 . S
C2284 C2276 1.574 . S
C2284 H2279 0.949 . S
C2284 C2290 1.368 . S
C2285 C2269 1.349 . S
C2285 H2277 0.950 . S
C2285 C2283 1.327 . S
C2286 C2274 1.349 . S
C2286 H2280 0.950 . S
C2286 C2287 1.327 . S
C2287 H2281 0.950 . S
C2287 C2286 1.327 . S
C2287 C2291 1.429 . S
C2288 C2271 1.574 . S
C2288 H2282 0.949 . S
C2288 C2292 1.368 . S
C2289 C2270 1.429 . S
C2289 C2283 1.429 . S
C2289 C2290 1.523 . S
C2290 C2271 1.368 . S
C2290 C2284 1.368 . S
C2290 C2289 1.523 . S
C2291 C2275 1.429 . S
C2291 C2287 1.429 . S
C2291 C2292 1.523 . S
C2292 C2276 1.368 . S
C2292 C2288 1.368 . S
C2292 C2291 1.523 . S
H2293 C2268 0.950 . S
H2294 C2270 0.950 . S
H2295 C2271 0.949 . S
H2296 C2273 0.950 . S
H2297 C2275 0.950 . S
C2298 C2299 1.349 . S
C2298 C2300 1.327 . S
C2298 H2323 0.950 . S
C2299 C2298 1.349 . S
C2299 C2315 1.349 . S
C2300 C2298 1.327 . S
C2300 C2319 1.429 . S
C2300 H2324 0.950 . S
C2301 C2318 1.574 . S
C2301 C2320 1.368 . S
C2301 H2325 0.949 . S
H2302 C2306 0.949 . S
C2303 C2304 1.349 . S
C2303 C2305 1.327 . S
C2303 H2326 0.950 . S
C2304 C2303 1.349 . S
C2304 C2316 1.349 . S
C2305 C2303 1.327 . S
C2305 C2321 1.429 . S
C2305 H2327 0.950 . S
C2306 H2302 0.949 . S
C2306 C2314 1.574 . S
C2306 C2322 1.368 . S
H2307 C2315 0.950 . S
H2308 C2313 0.950 . S
H2309 C2314 0.949 . S
H2310 C2316 0.950 . S
H2311 C2317 0.950 . S
H2312 C2318 0.949 . S
C2313 H2308 0.950 . S
C2313 C2315 1.327 . S
C2313 C2319 1.429 . S
C2314 C2306 1.574 . S
C2314 H2309 0.949 . S
C2314 C2320 1.368 . S
C2315 C2299 1.349 . S
C2315 H2307 0.950 . S
C2315 C2313 1.327 . S
C2316 C2304 1.349 . S
C2316 H2310 0.950 . S
C2316 C2317 1.327 . S
C2317 H2311 0.950 . S
C2317 C2316 1.327 . S
C2317 C2321 1.429 . S
C2318 C2301 1.574 . S
C2318 H2312 0.949 . S
C2318 C2322 1.368 . S
C2319 C2300 1.429 . S
C2319 C2313 1.429 . S
C2319 C2320 1.523 . S
C2320 C2301 1.368 . S
C2320 C2314 1.368 . S
C2320 C2319 1.523 . S
C2321 C2305 1.429 . S
C2321 C2317 1.429 . S
C2321 C2322 1.523 . S
C2322 C2306 1.368 . S
C2322 C2318 1.368 . S
C2322 C2321 1.523 . S
H2323 C2298 0.950 . S
H2324 C2300 0.950 . S
H2325 C2301 0.949 . S
H2326 C2303 0.950 . S
H2327 C2305 0.950 . S
C2328 C2329 1.349 . S
C2328 C2330 1.327 . S
C2328 H2353 0.950 . S
C2329 C2328 1.349 . S
C2329 C2345 1.349 . S
C2330 C2328 1.327 . S
C2330 C2349 1.429 . S
C2330 H2354 0.950 . S
C2331 C2348 1.574 . S
C2331 C2350 1.368 . S
C2331 H2355 0.949 . S
H2332 C2336 0.949 . S
C2333 C2334 1.349 . S
C2333 C2335 1.327 . S
C2333 H2356 0.950 . S
C2334 C2333 1.349 . S
C2334 C2346 1.349 . S
C2335 C2333 1.327 . S
C2335 C2351 1.429 . S
C2335 H2357 0.950 . S
C2336 H2332 0.949 . S
C2336 C2344 1.574 . S
C2336 C2352 1.368 . S
H2337 C2345 0.950 . S
H2338 C2343 0.950 . S
H2339 C2344 0.949 . S
H2340 C2346 0.950 . S
H2341 C2347 0.950 . S
H2342 C2348 0.949 . S
C2343 H2338 0.950 . S
C2343 C2345 1.327 . S
C2343 C2349 1.429 . S
C2344 C2336 1.574 . S
C2344 H2339 0.949 . S
C2344 C2350 1.368 . S
C2345 C2329 1.349 . S
C2345 H2337 0.950 . S
C2345 C2343 1.327 . S
C2346 C2334 1.349 . S
C2346 H2340 0.950 . S
C2346 C2347 1.327 . S
C2347 H2341 0.950 . S
C2347 C2346 1.327 . S
C2347 C2351 1.429 . S
C2348 C2331 1.574 . S
C2348 H2342 0.949 . S
C2348 C2352 1.368 . S
C2349 C2330 1.429 . S
C2349 C2343 1.429 . S
C2349 C2350 1.523 . S
C2350 C2331 1.368 . S
C2350 C2344 1.368 . S
C2350 C2349 1.523 . S
C2351 C2335 1.429 . S
C2351 C2347 1.429 . S
C2351 C2352 1.523 . S
C2352 C2336 1.368 . S
C2352 C2348 1.368 . S
C2352 C2351 1.523 . S
H2353 C2328 0.950 . S
H2354 C2330 0.950 . S
H2355 C2331 0.949 . S
H2356 C2333 0.950 . S
H2357 C2335 0.950 . S
C2358 C2359 1.349 . S
C2358 C2360 1.327 . S
C2358 H2383 0.950 . S
C2359 C2358 1.349 . S
C2359 C2375 1.349 . S
C2360 C2358 1.327 . S
C2360 C2379 1.429 . S
C2360 H2384 0.950 . S
C2361 C2378 1.574 . S
C2361 C2380 1.368 . S
C2361 H2385 0.949 . S
H2362 C2366 0.949 . S
C2363 C2364 1.349 . S
C2363 C2365 1.327 . S
C2363 H2386 0.950 . S
C2364 C2363 1.349 . S
C2364 C2376 1.349 . S
C2365 C2363 1.327 . S
C2365 C2381 1.429 . S
C2365 H2387 0.950 . S
C2366 H2362 0.949 . S
C2366 C2374 1.574 . S
C2366 C2382 1.368 . S
H2367 C2375 0.950 . S
H2368 C2373 0.950 . S
H2369 C2374 0.949 . S
H2370 C2376 0.950 . S
H2371 C2377 0.950 . S
H2372 C2378 0.949 . S
C2373 H2368 0.950 . S
C2373 C2375 1.327 . S
C2373 C2379 1.429 . S
C2374 C2366 1.574 . S
C2374 H2369 0.949 . S
C2374 C2380 1.368 . S
C2375 C2359 1.349 . S
C2375 H2367 0.950 . S
C2375 C2373 1.327 . S
C2376 C2364 1.349 . S
C2376 H2370 0.950 . S
C2376 C2377 1.327 . S
C2377 H2371 0.950 . S
C2377 C2376 1.327 . S
C2377 C2381 1.429 . S
C2378 C2361 1.574 . S
C2378 H2372 0.949 . S
C2378 C2382 1.368 . S
C2379 C2360 1.429 . S
C2379 C2373 1.429 . S
C2379 C2380 1.523 . S
C2380 C2361 1.368 . S
C2380 C2374 1.368 . S
C2380 C2379 1.523 . S
C2381 C2365 1.429 . S
C2381 C2377 1.429 . S
C2381 C2382 1.523 . S
C2382 C2366 1.368 . S
C2382 C2378 1.368 . S
C2382 C2381 1.523 . S
H2383 C2358 0.950 . S
H2384 C2360 0.950 . S
H2385 C2361 0.949 . S
H2386 C2363 0.950 . S
H2387 C2365 0.950 . S
C2388 C2389 1.349 . S
C2388 C2390 1.327 . S
C2388 H2413 0.950 . S
C2389 C2388 1.349 . S
C2389 C2405 1.349 . S
C2390 C2388 1.327 . S
C2390 C2409 1.429 . S
C2390 H2414 0.950 . S
C2391 C2408 1.574 . S
C2391 C2410 1.368 . S
C2391 H2415 0.949 . S
H2392 C2396 0.949 . S
C2393 C2394 1.349 . S
C2393 C2395 1.327 . S
C2393 H2416 0.950 . S
C2394 C2393 1.349 . S
C2394 C2406 1.349 . S
C2395 C2393 1.327 . S
C2395 C2411 1.429 . S
C2395 H2417 0.950 . S
C2396 H2392 0.949 . S
C2396 C2404 1.574 . S
C2396 C2412 1.368 . S
H2397 C2405 0.950 . S
H2398 C2403 0.950 . S
H2399 C2404 0.949 . S
H2400 C2406 0.950 . S
H2401 C2407 0.950 . S
H2402 C2408 0.949 . S
C2403 H2398 0.950 . S
C2403 C2405 1.327 . S
C2403 C2409 1.429 . S
C2404 C2396 1.574 . S
C2404 H2399 0.949 . S
C2404 C2410 1.368 . S
C2405 C2389 1.349 . S
C2405 H2397 0.950 . S
C2405 C2403 1.327 . S
C2406 C2394 1.349 . S
C2406 H2400 0.950 . S
C2406 C2407 1.327 . S
C2407 H2401 0.950 . S
C2407 C2406 1.327 . S
C2407 C2411 1.429 . S
C2408 C2391 1.574 . S
C2408 H2402 0.949 . S
C2408 C2412 1.368 . S
C2409 C2390 1.429 . S
C2409 C2403 1.429 . S
C2409 C2410 1.523 . S
C2410 C2391 1.368 . S
C2410 C2404 1.368 . S
C2410 C2409 1.523 . S
C2411 C2395 1.429 . S
C2411 C2407 1.429 . S
C2411 C2412 1.523 . S
C2412 C2396 1.368 . S
C2412 C2408 1.368 . S
C2412 C2411 1.523 . S
H2413 C2388 0.950 . S
H2414 C2390 0.950 . S
H2415 C2391 0.949 . S
H2416 C2393 0.950 . S
H2417 C2395 0.950 . S
C2418 C2419 1.349 . S
C2418 C2420 1.327 . S
C2418 H2443 0.950 . S
C2419 C2418 1.349 . S
C2419 C2435 1.349 . S
C2420 C2418 1.327 . S
C2420 C2439 1.429 . S
C2420 H2444 0.950 . S
C2421 C2438 1.574 . S
C2421 C2440 1.368 . S
C2421 H2445 0.949 . S
H2422 C2426 0.949 . S
C2423 C2424 1.349 . S
C2423 C2425 1.327 . S
C2423 H2446 0.950 . S
C2424 C2423 1.349 . S
C2424 C2436 1.349 . S
C2425 C2423 1.327 . S
C2425 C2441 1.429 . S
C2425 H2447 0.950 . S
C2426 H2422 0.949 . S
C2426 C2434 1.574 . S
C2426 C2442 1.368 . S
H2427 C2435 0.950 . S
H2428 C2433 0.950 . S
H2429 C2434 0.949 . S
H2430 C2436 0.950 . S
H2431 C2437 0.950 . S
H2432 C2438 0.949 . S
C2433 H2428 0.950 . S
C2433 C2435 1.327 . S
C2433 C2439 1.429 . S
C2434 C2426 1.574 . S
C2434 H2429 0.949 . S
C2434 C2440 1.368 . S
C2435 C2419 1.349 . S
C2435 H2427 0.950 . S
C2435 C2433 1.327 . S
C2436 C2424 1.349 . S
C2436 H2430 0.950 . S
C2436 C2437 1.327 . S
C2437 H2431 0.950 . S
C2437 C2436 1.327 . S
C2437 C2441 1.429 . S
C2438 C2421 1.574 . S
C2438 H2432 0.949 . S
C2438 C2442 1.368 . S
C2439 C2420 1.429 . S
C2439 C2433 1.429 . S
C2439 C2440 1.523 . S
C2440 C2421 1.368 . S
C2440 C2434 1.368 . S
C2440 C2439 1.523 . S
C2441 C2425 1.429 . S
C2441 C2437 1.429 . S
C2441 C2442 1.523 . S
C2442 C2426 1.368 . S
C2442 C2438 1.368 . S
C2442 C2441 1.523 . S
H2443 C2418 0.950 . S
H2444 C2420 0.950 . S
H2445 C2421 0.949 . S
H2446 C2423 0.950 . S
H2447 C2425 0.950 . S
C2448 C2449 1.349 . S
C2448 C2450 1.327 . S
C2448 H2473 0.950 . S
C2449 C2448 1.349 . S
C2449 C2465 1.349 . S
C2450 C2448 1.327 . S
C2450 C2469 1.429 . S
C2450 H2474 0.950 . S
C2451 C2468 1.574 . S
C2451 C2470 1.368 . S
C2451 H2475 0.949 . S
H2452 C2456 0.949 . S
C2453 C2454 1.349 . S
C2453 C2455 1.327 . S
C2453 H2476 0.950 . S
C2454 C2453 1.349 . S
C2454 C2466 1.349 . S
C2455 C2453 1.327 . S
C2455 C2471 1.429 . S
C2455 H2477 0.950 . S
C2456 H2452 0.949 . S
C2456 C2464 1.574 . S
C2456 C2472 1.368 . S
H2457 C2465 0.950 . S
H2458 C2463 0.950 . S
H2459 C2464 0.949 . S
H2460 C2466 0.950 . S
H2461 C2467 0.950 . S
H2462 C2468 0.949 . S
C2463 H2458 0.950 . S
C2463 C2465 1.327 . S
C2463 C2469 1.429 . S
C2464 C2456 1.574 . S
C2464 H2459 0.949 . S
C2464 C2470 1.368 . S
C2465 C2449 1.349 . S
C2465 H2457 0.950 . S
C2465 C2463 1.327 . S
C2466 C2454 1.349 . S
C2466 H2460 0.950 . S
C2466 C2467 1.327 . S
C2467 H2461 0.950 . S
C2467 C2466 1.327 . S
C2467 C2471 1.429 . S
C2468 C2451 1.574 . S
C2468 H2462 0.949 . S
C2468 C2472 1.368 . S
C2469 C2450 1.429 . S
C2469 C2463 1.429 . S
C2469 C2470 1.523 . S
C2470 C2451 1.368 . S
C2470 C2464 1.368 . S
C2470 C2469 1.523 . S
C2471 C2455 1.429 . S
C2471 C2467 1.429 . S
C2471 C2472 1.523 . S
C2472 C2456 1.368 . S
C2472 C2468 1.368 . S
C2472 C2471 1.523 . S
H2473 C2448 0.950 . S
H2474 C2450 0.950 . S
H2475 C2451 0.949 . S
H2476 C2453 0.950 . S
H2477 C2455 0.950 . S
C2478 C2479 1.349 . S
C2478 C2480 1.327 . S
C2478 H2503 0.950 . S
C2479 C2478 1.349 . S
C2479 C2495 1.349 . S
C2480 C2478 1.327 . S
C2480 C2499 1.429 . S
C2480 H2504 0.950 . S
C2481 C2498 1.574 . S
C2481 C2500 1.368 . S
C2481 H2505 0.949 . S
H2482 C2486 0.949 . S
C2483 C2484 1.349 . S
C2483 C2485 1.327 . S
C2483 H2506 0.950 . S
C2484 C2483 1.349 . S
C2484 C2496 1.349 . S
C2485 C2483 1.327 . S
C2485 C2501 1.429 . S
C2485 H2507 0.950 . S
C2486 H2482 0.949 . S
C2486 C2494 1.574 . S
C2486 C2502 1.368 . S
H2487 C2495 0.950 . S
H2488 C2493 0.950 . S
H2489 C2494 0.949 . S
H2490 C2496 0.950 . S
H2491 C2497 0.950 . S
H2492 C2498 0.949 . S
C2493 H2488 0.950 . S
C2493 C2495 1.327 . S
C2493 C2499 1.429 . S
C2494 C2486 1.574 . S
C2494 H2489 0.949 . S
C2494 C2500 1.368 . S
C2495 C2479 1.349 . S
C2495 H2487 0.950 . S
C2495 C2493 1.327 . S
C2496 C2484 1.349 . S
C2496 H2490 0.950 . S
C2496 C2497 1.327 . S
C2497 H2491 0.950 . S
C2497 C2496 1.327 . S
C2497 C2501 1.429 . S
C2498 C2481 1.574 . S
C2498 H2492 0.949 . S
C2498 C2502 1.368 . S
C2499 C2480 1.429 . S
C2499 C2493 1.429 . S
C2499 C2500 1.523 . S
C2500 C2481 1.368 . S
C2500 C2494 1.368 . S
C2500 C2499 1.523 . S
C2501 C2485 1.429 . S
C2501 C2497 1.429 . S
C2501 C2502 1.523 . S
C2502 C2486 1.368 . S
C2502 C2498 1.368 . S
C2502 C2501 1.523 . S
H2503 C2478 0.950 . S
H2504 C2480 0.950 . S
H2505 C2481 0.949 . S
H2506 C2483 0.950 . S
H2507 C2485 0.950 . S
C2508 C2509 1.349 . S
C2508 C2510 1.327 . S
C2508 H2533 0.950 . S
C2509 C2508 1.349 . S
C2509 C2525 1.349 . S
C2510 C2508 1.327 . S
C2510 C2529 1.429 . S
C2510 H2534 0.950 . S
C2511 C2528 1.574 . S
C2511 C2530 1.368 . S
C2511 H2535 0.949 . S
H2512 C2516 0.949 . S
C2513 C2514 1.349 . S
C2513 C2515 1.327 . S
C2513 H2536 0.950 . S
C2514 C2513 1.349 . S
C2514 C2526 1.349 . S
C2515 C2513 1.327 . S
C2515 C2531 1.429 . S
C2515 H2537 0.950 . S
C2516 H2512 0.949 . S
C2516 C2524 1.574 . S
C2516 C2532 1.368 . S
H2517 C2525 0.950 . S
H2518 C2523 0.950 . S
H2519 C2524 0.949 . S
H2520 C2526 0.950 . S
H2521 C2527 0.950 . S
H2522 C2528 0.949 . S
C2523 H2518 0.950 . S
C2523 C2525 1.327 . S
C2523 C2529 1.429 . S
C2524 C2516 1.574 . S
C2524 H2519 0.949 . S
C2524 C2530 1.368 . S
C2525 C2509 1.349 . S
C2525 H2517 0.950 . S
C2525 C2523 1.327 . S
C2526 C2514 1.349 . S
C2526 H2520 0.950 . S
C2526 C2527 1.327 . S
C2527 H2521 0.950 . S
C2527 C2526 1.327 . S
C2527 C2531 1.429 . S
C2528 C2511 1.574 . S
C2528 H2522 0.949 . S
C2528 C2532 1.368 . S
C2529 C2510 1.429 . S
C2529 C2523 1.429 . S
C2529 C2530 1.523 . S
C2530 C2511 1.368 . S
C2530 C2524 1.368 . S
C2530 C2529 1.523 . S
C2531 C2515 1.429 . S
C2531 C2527 1.429 . S
C2531 C2532 1.523 . S
C2532 C2516 1.368 . S
C2532 C2528 1.368 . S
C2532 C2531 1.523 . S
H2533 C2508 0.950 . S
H2534 C2510 0.950 . S
H2535 C2511 0.949 . S
H2536 C2513 0.950 . S
H2537 C2515 0.950 . S
C2538 C2539 1.349 . S
C2538 C2540 1.327 . S
C2538 H2563 0.950 . S
C2539 C2538 1.349 . S
C2539 C2555 1.349 . S
C2540 C2538 1.327 . S
C2540 C2559 1.429 . S
C2540 H2564 0.950 . S
C2541 C2558 1.574 . S
C2541 C2560 1.368 . S
C2541 H2565 0.949 . S
H2542 C2546 0.949 . S
C2543 C2544 1.349 . S
C2543 C2545 1.327 . S
C2543 H2566 0.950 . S
C2544 C2543 1.349 . S
C2544 C2556 1.349 . S
C2545 C2543 1.327 . S
C2545 C2561 1.429 . S
C2545 H2567 0.950 . S
C2546 H2542 0.949 . S
C2546 C2554 1.574 . S
C2546 C2562 1.368 . S
H2547 C2555 0.950 . S
H2548 C2553 0.950 . S
H2549 C2554 0.949 . S
H2550 C2556 0.950 . S
H2551 C2557 0.950 . S
H2552 C2558 0.949 . S
C2553 H2548 0.950 . S
C2553 C2555 1.327 . S
C2553 C2559 1.429 . S
C2554 C2546 1.574 . S
C2554 H2549 0.949 . S
C2554 C2560 1.368 . S
C2555 C2539 1.349 . S
C2555 H2547 0.950 . S
C2555 C2553 1.327 . S
C2556 C2544 1.349 . S
C2556 H2550 0.950 . S
C2556 C2557 1.327 . S
C2557 H2551 0.950 . S
C2557 C2556 1.327 . S
C2557 C2561 1.429 . S
C2558 C2541 1.574 . S
C2558 H2552 0.949 . S
C2558 C2562 1.368 . S
C2559 C2540 1.429 . S
C2559 C2553 1.429 . S
C2559 C2560 1.523 . S
C2560 C2541 1.368 . S
C2560 C2554 1.368 . S
C2560 C2559 1.523 . S
C2561 C2545 1.429 . S
C2561 C2557 1.429 . S
C2561 C2562 1.523 . S
C2562 C2546 1.368 . S
C2562 C2558 1.368 . S
C2562 C2561 1.523 . S
H2563 C2538 0.950 . S
H2564 C2540 0.950 . S
H2565 C2541 0.949 . S
H2566 C2543 0.950 . S
H2567 C2545 0.950 . S
C2568 C2569 1.349 . S
C2568 C2570 1.327 . S
C2568 H2593 0.950 . S
C2569 C2568 1.349 . S
C2569 C2585 1.349 . S
C2570 C2568 1.327 . S
C2570 C2589 1.429 . S
C2570 H2594 0.950 . S
C2571 C2588 1.574 . S
C2571 C2590 1.368 . S
C2571 H2595 0.949 . S
H2572 C2576 0.949 . S
C2573 C2574 1.349 . S
C2573 C2575 1.327 . S
C2573 H2596 0.950 . S
C2574 C2573 1.349 . S
C2574 C2586 1.349 . S
C2575 C2573 1.327 . S
C2575 C2591 1.429 . S
C2575 H2597 0.950 . S
C2576 H2572 0.949 . S
C2576 C2584 1.574 . S
C2576 C2592 1.368 . S
H2577 C2585 0.950 . S
H2578 C2583 0.950 . S
H2579 C2584 0.949 . S
H2580 C2586 0.950 . S
H2581 C2587 0.950 . S
H2582 C2588 0.949 . S
C2583 H2578 0.950 . S
C2583 C2585 1.327 . S
C2583 C2589 1.429 . S
C2584 C2576 1.574 . S
C2584 H2579 0.949 . S
C2584 C2590 1.368 . S
C2585 C2569 1.349 . S
C2585 H2577 0.950 . S
C2585 C2583 1.327 . S
C2586 C2574 1.349 . S
C2586 H2580 0.950 . S
C2586 C2587 1.327 . S
C2587 H2581 0.950 . S
C2587 C2586 1.327 . S
C2587 C2591 1.429 . S
C2588 C2571 1.574 . S
C2588 H2582 0.949 . S
C2588 C2592 1.368 . S
C2589 C2570 1.429 . S
C2589 C2583 1.429 . S
C2589 C2590 1.523 . S
C2590 C2571 1.368 . S
C2590 C2584 1.368 . S
C2590 C2589 1.523 . S
C2591 C2575 1.429 . S
C2591 C2587 1.429 . S
C2591 C2592 1.523 . S
C2592 C2576 1.368 . S
C2592 C2588 1.368 . S
C2592 C2591 1.523 . S
H2593 C2568 0.950 . S
H2594 C2570 0.950 . S
H2595 C2571 0.949 . S
H2596 C2573 0.950 . S
H2597 C2575 0.950 . S
C2598 C2599 1.349 . S
C2598 C2600 1.327 . S
C2598 H2623 0.950 . S
C2599 C2598 1.349 . S
C2599 C2615 1.349 . S
C2600 C2598 1.327 . S
C2600 C2619 1.429 . S
C2600 H2624 0.950 . S
C2601 C2618 1.574 . S
C2601 C2620 1.368 . S
C2601 H2625 0.949 . S
H2602 C2606 0.949 . S
C2603 C2604 1.349 . S
C2603 C2605 1.327 . S
C2603 H2626 0.950 . S
C2604 C2603 1.349 . S
C2604 C2616 1.349 . S
C2605 C2603 1.327 . S
C2605 C2621 1.429 . S
C2605 H2627 0.950 . S
C2606 H2602 0.949 . S
C2606 C2614 1.574 . S
C2606 C2622 1.368 . S
H2607 C2615 0.950 . S
H2608 C2613 0.950 . S
H2609 C2614 0.949 . S
H2610 C2616 0.950 . S
H2611 C2617 0.950 . S
H2612 C2618 0.949 . S
C2613 H2608 0.950 . S
C2613 C2615 1.327 . S
C2613 C2619 1.429 . S
C2614 C2606 1.574 . S
C2614 H2609 0.949 . S
C2614 C2620 1.368 . S
C2615 C2599 1.349 . S
C2615 H2607 0.950 . S
C2615 C2613 1.327 . S
C2616 C2604 1.349 . S
C2616 H2610 0.950 . S
C2616 C2617 1.327 . S
C2617 H2611 0.950 . S
C2617 C2616 1.327 . S
C2617 C2621 1.429 . S
C2618 C2601 1.574 . S
C2618 H2612 0.949 . S
C2618 C2622 1.368 . S
C2619 C2600 1.429 . S
C2619 C2613 1.429 . S
C2619 C2620 1.523 . S
C2620 C2601 1.368 . S
C2620 C2614 1.368 . S
C2620 C2619 1.523 . S
C2621 C2605 1.429 . S
C2621 C2617 1.429 . S
C2621 C2622 1.523 . S
C2622 C2606 1.368 . S
C2622 C2618 1.368 . S
C2622 C2621 1.523 . S
H2623 C2598 0.950 . S
H2624 C2600 0.950 . S
H2625 C2601 0.949 . S
H2626 C2603 0.950 . S
H2627 C2605 0.950 . S
C2628 C2629 1.349 . S
C2628 C2630 1.327 . S
C2628 H2653 0.950 . S
C2629 C2628 1.349 . S
C2629 C2645 1.349 . S
C2630 C2628 1.327 . S
C2630 C2649 1.429 . S
C2630 H2654 0.950 . S
C2631 C2648 1.574 . S
C2631 C2650 1.368 . S
C2631 H2655 0.949 . S
H2632 C2636 0.949 . S
C2633 C2634 1.349 . S
C2633 C2635 1.327 . S
C2633 H2656 0.950 . S
C2634 C2633 1.349 . S
C2634 C2646 1.349 . S
C2635 C2633 1.327 . S
C2635 C2651 1.429 . S
C2635 H2657 0.950 . S
C2636 H2632 0.949 . S
C2636 C2644 1.574 . S
C2636 C2652 1.368 . S
H2637 C2645 0.950 . S
H2638 C2643 0.950 . S
H2639 C2644 0.949 . S
H2640 C2646 0.950 . S
H2641 C2647 0.950 . S
H2642 C2648 0.949 . S
C2643 H2638 0.950 . S
C2643 C2645 1.327 . S
C2643 C2649 1.429 . S
C2644 C2636 1.574 . S
C2644 H2639 0.949 . S
C2644 C2650 1.368 . S
C2645 C2629 1.349 . S
C2645 H2637 0.950 . S
C2645 C2643 1.327 . S
C2646 C2634 1.349 . S
C2646 H2640 0.950 . S
C2646 C2647 1.327 . S
C2647 H2641 0.950 . S
C2647 C2646 1.327 . S
C2647 C2651 1.429 . S
C2648 C2631 1.574 . S
C2648 H2642 0.949 . S
C2648 C2652 1.368 . S
C2649 C2630 1.429 . S
C2649 C2643 1.429 . S
C2649 C2650 1.523 . S
C2650 C2631 1.368 . S
C2650 C2644 1.368 . S
C2650 C2649 1.523 . S
C2651 C2635 1.429 . S
C2651 C2647 1.429 . S
C2651 C2652 1.523 . S
C2652 C2636 1.368 . S
C2652 C2648 1.368 . S
C2652 C2651 1.523 . S
H2653 C2628 0.950 . S
H2654 C2630 0.950 . S
H2655 C2631 0.949 . S
H2656 C2633 0.950 . S
H2657 C2635 0.950 . S
C2658 C2659 1.349 . S
C2658 C2660 1.327 . S
C2658 H2683 0.950 . S
C2659 C2658 1.349 . S
C2659 C2675 1.349 . S
C2660 C2658 1.327 . S
C2660 C2679 1.429 . S
C2660 H2684 0.950 . S
C2661 C2678 1.574 . S
C2661 C2680 1.368 . S
C2661 H2685 0.949 . S
H2662 C2666 0.949 . S
C2663 C2664 1.349 . S
C2663 C2665 1.327 . S
C2663 H2686 0.950 . S
C2664 C2663 1.349 . S
C2664 C2676 1.349 . S
C2665 C2663 1.327 . S
C2665 C2681 1.429 . S
C2665 H2687 0.950 . S
C2666 H2662 0.949 . S
C2666 C2674 1.574 . S
C2666 C2682 1.368 . S
H2667 C2675 0.950 . S
H2668 C2673 0.950 . S
H2669 C2674 0.949 . S
H2670 C2676 0.950 . S
H2671 C2677 0.950 . S
H2672 C2678 0.949 . S
C2673 H2668 0.950 . S
C2673 C2675 1.327 . S
C2673 C2679 1.429 . S
C2674 C2666 1.574 . S
C2674 H2669 0.949 . S
C2674 C2680 1.368 . S
C2675 C2659 1.349 . S
C2675 H2667 0.950 . S
C2675 C2673 1.327 . S
C2676 C2664 1.349 . S
C2676 H2670 0.950 . S
C2676 C2677 1.327 . S
C2677 H2671 0.950 . S
C2677 C2676 1.327 . S
C2677 C2681 1.429 . S
C2678 C2661 1.574 . S
C2678 H2672 0.949 . S
C2678 C2682 1.368 . S
C2679 C2660 1.429 . S
C2679 C2673 1.429 . S
C2679 C2680 1.523 . S
C2680 C2661 1.368 . S
C2680 C2674 1.368 . S
C2680 C2679 1.523 . S
C2681 C2665 1.429 . S
C2681 C2677 1.429 . S
C2681 C2682 1.523 . S
C2682 C2666 1.368 . S
C2682 C2678 1.368 . S
C2682 C2681 1.523 . S
H2683 C2658 0.950 . S
H2684 C2660 0.950 . S
H2685 C2661 0.949 . S
H2686 C2663 0.950 . S
H2687 C2665 0.950 . S
C529 C15 1.015 . S
C534 C367 1.035 . S
C559 C37 1.007 . S
C564 C527 1.027 . S
C589 C469 1.026 . S
C594 C65 1.006 . S
C619 C81 1.002 . S
C624 C499 1.021 . S
C649 C95 1.006 . S
C654 C395 1.025 . S
C679 C117 1.004 . S
C684 C411 1.024 . S
C709 C139 1.005 . S
C714 C439 1.025 . S
C739 C169 0.959 . S
C744 C450 0.972 . S
C769 C197 1.011 . S
C774 C7 1.032 . S
C799 C205 1.017 . S
C804 C29 1.037 . S
C829 C59 1.025 . S
C834 C241 1.005 . S
C859 C73 1.026 . S
C864 C263 1.006 . S
C889 C279 1.005 . S
C894 C109 1.025 . S
C919 C301 1.008 . S
C924 C131 1.028 . S
C949 C329 1.022 . S
C954 C153 1.043 . S
C979 C345 1.022 . S
C984 C161 1.043 . S
C1009 C373 1.002 . S
C1014 C191 1.022 . S
C1039 C381 1.002 . S
C1044 C271 1.022 . S
C1069 C293 1.023 . S
C1074 C417 1.004 . S
C1099 C425 1.004 . S
C1104 C323 1.023 . S
C1129 C458 0.955 . S
C1134 C337 0.966 . S
C1159 C477 0.999 . S
C1164 C235 1.019 . S
C1189 C257 1.036 . S
C1194 C505 1.016 . S
C1219 C513 1.004 . S
C1224 C219 1.024 . S
C1249 C480 0.990 . S
C1254 C106 0.987 . S
C1279 C494 0.994 . S
C1284 C128 0.992 . S
C1309 C150 0.979 . S
C1314 C362 0.981 . S
C1339 C164 0.987 . S
C1344 C514 0.989 . S
C1369 C426 0.990 . S
C1374 C10 0.988 . S
C1399 C32 1.036 . S
C1404 C455 1.044 . S
C1429 C382 0.990 . S
C1434 C52 0.988 . S
C1459 C76 0.989 . S
C1464 C406 0.992 . S
C1489 C316 0.988 . S
C1494 C96 0.990 . S
C1519 C340 0.988 . S
C1524 C118 0.990 . S
C1549 C274 0.982 . S
C1554 C140 0.984 . S
C1579 C172 0.979 . S
C1584 C296 0.976 . S
C1609 C228 0.971 . S
C1614 C18 0.973 . S
C1639 C250 0.971 . S
C1644 C40 0.973 . S
C1669 C184 0.988 . S
C1674 C54 0.990 . S
C1699 C216 0.985 . S
C1704 C84 0.988 . S
C1729 C318 0.997 . S
C1734 C472 0.994 . S
C1759 C436 0.990 . S
C1764 C230 0.992 . S
C1789 C252 1.048 . S
C1794 C447 1.038 . S
C1819 C392 0.991 . S
C1824 C186 0.993 . S
C1849 C404 0.990 . S
C1854 C206 0.992 . S
C1879 C360 0.991 . S
C1884 C282 0.993 . S
C1909 C524 0.989 . S
C1914 C304 0.992 . S
C1939 C348 0.979 . S
C1944 C492 0.977 . S
C1969 C448 1.259 . S
C1974 C21 1.257 . S
C1999 C389 1.308 . S
C2004 C43 1.308 . S
C2029 C51 1.305 . S
C2034 C403 1.305 . S
C2059 C87 1.305 . S
C2064 C433 1.305 . S
C2089 C521 1.304 . S
C2094 C103 1.304 . S
C2119 C125 1.306 . S
C2124 C483 1.306 . S
C2149 C491 1.312 . S
C2154 C147 1.312 . S
C2179 C175 1.311 . S
C2184 C359 1.311 . S
C2209 C183 1.317 . S
C2214 C351 1.318 . S
C2239 C285 1.305 . S
C2244 C213 1.305 . S
C2269 C227 1.298 . S
C2274 C307 1.298 . S
C2299 C315 1.315 . S
C2304 C249 1.315 . S
C2329 C414 1.265 . S
C2334 C98 1.265 . S
C2359 C428 1.265 . S
C2364 C120 1.265 . S
C2389 C142 1.312 . S
C2394 C461 1.310 . S
C2419 C162 1.261 . S
C2424 C384 1.261 . S
C2449 C502 1.257 . S
C2454 C8 1.257 . S
C2479 C370 1.259 . S
C2484 C30 1.259 . S
C2509 C516 1.266 . S
C2514 C62 1.266 . S
C2539 C74 1.264 . S
C2544 C470 1.264 . S
C2569 C208 1.271 . S
C2574 C326 1.271 . S
C2599 C338 1.254 . S
C2604 C238 1.254 . S
C2629 C272 1.252 . S
C2634 C260 1.252 . S
C2659 C294 1.265 . S
C2664 C194 1.265 . S
