# Generated by pormake.
# Topology irl, (4)-cn, num edge types: 1
# Building blocks:
#     Node 0, Type 0, BuildingBlock: CEKHIL_clean_sbu_0, # of connection points: 4
#     Node 1, Type 0, BuildingBlock: CEKHIL_clean_sbu_0, # of connection points: 4
#     Node 2, Type 0, BuildingBlock: CEKHIL_clean_sbu_0, # of connection points: 4
#     Node 3, Type 0, BuildingBlock: CEKHIL_clean_sbu_0, # of connection points: 4
#     Node 4, Type 0, BuildingBlock: CEKHIL_clean_sbu_0, # of connection points: 4
#     Node 5, Type 0, BuildingBlock: CEKHIL_clean_sbu_0, # of connection points: 4
#     Node 6, Type 0, BuildingBlock: CEKHIL_clean_sbu_0, # of connection points: 4
#     Node 7, Type 0, BuildingBlock: CEKHIL_clean_sbu_0, # of connection points: 4
#     Edge 8, Type (0, 0), BuildingBlock: TEMPAE_clean_linker_10, # of connection points: 2
#     Edge 9, Type (0, 0), BuildingBlock: TEMPAE_clean_linker_10, # of connection points: 2
#     Edge 10, Type (0, 0), BuildingBlock: TEMPAE_clean_linker_10, # of connection points: 2
#     Edge 11, Type (0, 0), BuildingBlock: TEMPAE_clean_linker_10, # of connection points: 2
#     Edge 12, Type (0, 0), BuildingBlock: TEMPAE_clean_linker_10, # of connection points: 2
#     Edge 13, Type (0, 0), BuildingBlock: TEMPAE_clean_linker_10, # of connection points: 2
#     Edge 14, Type (0, 0), BuildingBlock: TEMPAE_clean_linker_10, # of connection points: 2
#     Edge 15, Type (0, 0), BuildingBlock: TEMPAE_clean_linker_10, # of connection points: 2
#     Edge 16, Type (0, 0), BuildingBlock: TEMPAE_clean_linker_10, # of connection points: 2
#     Edge 17, Type (0, 0), BuildingBlock: TEMPAE_clean_linker_10, # of connection points: 2
#     Edge 18, Type (0, 0), BuildingBlock: TEMPAE_clean_linker_10, # of connection points: 2
#     Edge 19, Type (0, 0), BuildingBlock: TEMPAE_clean_linker_10, # of connection points: 2
#     Edge 20, Type (0, 0), BuildingBlock: TEMPAE_clean_linker_10, # of connection points: 2
#     Edge 21, Type (0, 0), BuildingBlock: TEMPAE_clean_linker_10, # of connection points: 2
#     Edge 22, Type (0, 0), BuildingBlock: TEMPAE_clean_linker_10, # of connection points: 2
#     Edge 23, Type (0, 0), BuildingBlock: TEMPAE_clean_linker_10, # of connection points: 2
# Relax obj value: 0.066
# Max RMSD: 0.129
# Mean RMSD: 0.129
data_MOF--net-irl--node1-CEKHIL_clean_sbu_0--edge1-TEMPAE_clean_linker_10
_symmetry_space_group_name_H-M    P1
_symmetry_Int_Tables_number       1
_symmetry_cell_setting            triclinic
loop_
_symmetry_equiv_pos_as_xyz
'x, y, z'
_cell_length_a     33.029098
_cell_length_b     46.10921
_cell_length_c     28.193008
_cell_angle_alpha  89.967915
_cell_angle_beta   89.981655
_cell_angle_gamma 90.014916
loop_
_atom_site_label
_atom_site_type_symbol
_atom_site_fract_x
_atom_site_fract_y
_atom_site_fract_z
_atom_type_partial_charge
Co0 Co 0.0686 0.17144 -0.00335 0.0
O1 O 0.09839 0.20721 -0.00337 0.0
O2 O 0.12138 0.16574 0.02593 0.0
C3 C 0.04843 0.17378 0.92082 0.0
O4 O 0.04562 0.13 0.00063 0.0
Co5 Co 0.97582 0.17373 0.98147 0.0
O6 O 0.98261 0.13164 0.9703 0.0
C7 C 0.00901 0.18802 0.07517 0.0
C8 C 0.12733 0.19317 0.01727 0.0
C9 C 0.01317 0.11743 0.98517 0.0
O10 O 0.0446 0.18185 0.05991 0.0
O11 O 0.97725 0.18721 0.04921 0.0
O12 O 0.08407 0.16385 0.93146 0.0
O13 O 0.02797 0.18484 0.95555 0.0
Co14 Co 0.93378 0.8423 0.99267 0.0
O15 O 0.90757 0.80525 0.9919 0.0
O16 O 0.88032 0.84489 0.02207 0.0
C17 C 0.95411 0.84096 0.9167 0.0
O18 O 0.95295 0.88473 -0.00288 0.0
Co19 Co 0.02661 0.84427 0.97714 0.0
O20 O 0.01562 0.88586 0.96564 0.0
C21 C 0.99489 0.82854 0.07103 0.0
C22 C 0.87691 0.81731 0.01253 0.0
C23 C 0.98408 0.89869 0.98107 0.0
O24 O 0.95872 0.83281 0.05584 0.0
O25 O 0.02645 0.83095 0.04497 0.0
O26 O 0.91774 0.84938 0.92738 0.0
O27 O 0.97548 0.83095 0.95149 0.0
Co28 Co 0.07185 0.84255 0.50294 0.0
O29 O 0.09866 0.80565 0.50128 0.0
O30 O 0.12518 0.84637 0.47365 0.0
C31 C 0.05181 0.8399 0.57894 0.0
O32 O 0.05159 0.88485 0.50053 0.0
Co33 Co 0.97886 0.84285 0.51899 0.0
O34 O 0.98844 0.88457 0.53087 0.0
C35 C 0.0108 0.82899 0.42449 0.0
C36 C 0.1288 0.81856 0.48095 0.0
C37 C 0.0197 0.89809 0.51622 0.0
O38 O 0.04684 0.83391 0.43953 0.0
O39 O 0.97926 0.83034 0.45076 0.0
O40 O 0.0881 0.84858 0.56839 0.0
O41 O 0.03054 0.83012 0.54388 0.0
Co42 Co 0.93436 0.17217 0.50564 0.0
O43 O 0.90685 0.20871 0.50767 0.0
O44 O 0.88124 0.16913 0.47537 0.0
C45 C 0.95378 0.17285 0.58202 0.0
O46 O 0.95523 0.13011 0.50013 0.0
Co47 Co 0.02713 0.17206 0.52231 0.0
O48 O 0.0176 0.13018 0.53245 0.0
C49 C 0.99575 0.18785 0.42841 0.0
C50 C 0.87673 0.19641 0.48644 0.0
C51 C 0.98683 0.11673 0.51632 0.0
O52 O 0.95959 0.18295 0.44312 0.0
O53 O 0.0272 0.18563 0.45464 0.0
O54 O 0.91783 0.16398 0.5704 0.0
O55 O 0.97517 0.18369 0.54788 0.0
Co56 Co 0.56531 0.673 -0.00659 0.0
O57 O 0.59078 0.71031 0.98894 0.0
O58 O 0.61817 0.67219 0.02417 0.0
C59 C 0.54594 0.6713 0.917 0.0
O60 O 0.54758 0.63056 0.00214 0.0
Co61 Co 0.47304 0.66781 0.97662 0.0
O62 O 0.48663 0.62638 0.96691 0.0
C63 C 0.50264 0.68754 0.06964 0.0
C64 C 0.6213 0.69926 0.01133 0.0
C65 C 0.51816 0.6152 0.98533 0.0
O66 O 0.53922 0.68432 0.05509 0.0
O67 O 0.47159 0.68297 0.0435 0.0
O68 O 0.58239 0.66385 0.92918 0.0
O69 O 0.52366 0.68197 0.95051 0.0
Co70 Co 0.42855 0.34371 -0.00309 0.0
O71 O 0.39915 0.30782 -0.00411 0.0
O72 O 0.37534 0.3489 0.02559 0.0
C73 C 0.44968 0.34216 0.92119 0.0
O74 O 0.4515 0.3851 0.00241 0.0
Co75 Co 0.52158 0.34063 0.98345 0.0
O76 O 0.5168 0.38332 0.97947 0.0
C77 C 0.48682 0.32516 0.07574 0.0
C78 C 0.36992 0.32143 0.01676 0.0
C79 C 0.48557 0.39753 0.99233 0.0
O80 O 0.4518 0.33271 0.06031 0.0
O81 O 0.51877 0.32528 0.05006 0.0
O82 O 0.41388 0.3519 0.93156 0.0
O83 O 0.4696 0.33072 0.95601 0.0
Co84 Co 0.56262 0.33783 0.50531 0.0
O85 O 0.58819 0.30053 0.50718 0.0
O86 O 0.6156 0.33939 0.47452 0.0
C87 C 0.54359 0.33789 0.58188 0.0
O88 O 0.54419 0.38041 0.49954 0.0
Co89 Co 0.47011 0.34102 0.52294 0.0
O90 O 0.48231 0.38256 0.53298 0.0
C91 C 0.49983 0.32411 0.42877 0.0
C92 C 0.61874 0.31198 0.48543 0.0
C93 C 0.51372 0.39488 0.51612 0.0
O94 O 0.53639 0.3277 0.44309 0.0
O95 O 0.46874 0.32753 0.45523 0.0
O96 O 0.57994 0.3457 0.5699 0.0
O97 O 0.5214 0.32757 0.54803 0.0
Co98 Co 0.43102 0.66791 0.50214 0.0
O99 O 0.40103 0.70358 0.50462 0.0
O100 O 0.3779 0.66275 0.4733 0.0
C101 C 0.45226 0.66907 0.57776 0.0
O102 O 0.45405 0.62654 0.49597 0.0
Co103 Co 0.52395 0.67011 0.51561 0.0
O104 O 0.51734 0.62789 0.52546 0.0
C105 C 0.48961 0.68517 0.42283 0.0
C106 C 0.37188 0.68994 0.48367 0.0
C107 C 0.48671 0.61381 0.51055 0.0
O108 O 0.4541 0.67939 0.43877 0.0
O109 O 0.52178 0.68369 0.44796 0.0
O110 O 0.41655 0.65918 0.56734 0.0
O111 O 0.47219 0.68071 0.54309 0.0
C112 C 0.01255 0.94551 0.95166 0.0
C113 C 0.98526 0.93094 0.98163 0.0
C114 C 0.01719 0.97571 0.95344 0.0
C115 C 0.99418 0.99202 0.98625 0.0
C116 C 0.96615 0.97761 0.01629 0.0
C117 C 0.96182 0.94721 0.01343 0.0
C118 C 0.04683 0.99015 0.9201 0.0
C119 C 0.94111 0.99427 0.05178 0.0
C120 C 0.03406 0.06788 0.01451 0.0
C121 C 0.00962 0.08525 0.98537 0.0
C122 C 0.02872 0.03755 0.01615 0.0
C123 C 0.99864 0.02426 0.98753 0.0
C124 C 0.97421 0.0417 0.9578 0.0
C125 C 0.97988 0.07184 0.95723 0.0
C126 C 0.05529 0.01969 0.04843 0.0
C127 C 0.94233 0.02848 0.92602 0.0
H128 H 0.03057 0.93322 0.9266 0.0
H129 H 0.94091 0.93615 0.03692 0.0
H130 H 0.03083 0.00621 0.89756 0.0
H131 H 0.07006 1.00213 0.94068 0.0
H132 H 0.06241 0.97434 0.89663 0.0
H133 H 0.92107 0.9799 0.07299 0.0
H134 H 0.96129 0.00633 0.07628 0.0
H135 H 0.92211 0.01053 0.03318 0.0
H136 H 0.05687 0.07802 0.03661 0.0
H137 H 0.96098 0.08496 0.93426 0.0
H138 H 0.07366 1.00435 0.02709 0.0
H139 H 0.03627 0.00654 0.07275 0.0
H140 H 0.07607 0.03333 0.06991 0.0
H141 H 0.95677 0.01342 0.90041 0.0
H142 H 0.92518 0.04511 0.90581 0.0
H143 H 0.92062 0.01559 0.94743 0.0
C144 C 0.9885 0.94412 0.54521 0.0
C145 C 0.01714 0.93034 0.516 0.0
C146 C 0.98251 0.97421 0.5436 0.0
C147 C 0.00557 0.99125 0.51181 0.0
C148 C 0.03482 0.97763 0.48241 0.0
C149 C 0.04045 0.94732 0.48502 0.0
C150 C 0.95157 0.98777 0.57627 0.0
C151 C 0.06002 0.99508 0.44805 0.0
C152 C 0.96577 0.06751 0.48511 0.0
C153 C 0.98952 0.08447 0.51561 0.0
C154 C 0.97112 0.03716 0.48271 0.0
C155 C 0.00058 0.02349 0.51179 0.0
C156 C 0.02412 0.04052 0.54303 0.0
C157 C 0.01836 0.07062 0.5445 0.0
C158 C 0.94539 0.01971 0.44896 0.0
C159 C 0.05534 0.02692 0.57531 0.0
H160 H 0.97049 0.93129 0.5696 0.0
H161 H 0.06235 0.93688 0.46205 0.0
H162 H 0.96659 1.00351 0.60026 0.0
H163 H 0.92882 0.99996 0.55529 0.0
H164 H 0.93552 0.9714 0.59826 0.0
H165 H 0.08056 0.98122 0.42662 0.0
H166 H 0.03997 0.00737 0.4237 0.0
H167 H 0.07852 0.01117 0.46769 0.0
H168 H 0.94363 0.07797 0.46248 0.0
H169 H 0.03669 0.08338 0.5686 0.0
H170 H 0.92707 1.0037 0.46906 0.0
H171 H 0.96505 0.00731 0.42432 0.0
H172 H 0.92463 0.03357 0.42782 0.0
H173 H 0.0405 0.01125 0.59962 0.0
H174 H 0.0717 0.04328 0.59697 0.0
H175 H 0.07782 0.01465 0.55405 0.0
C176 C 0.51251 0.56669 0.94796 0.0
C177 C 0.51895 0.58329 0.98884 0.0
C178 C 0.50726 0.53652 0.95066 0.0
C179 C 0.5071 0.5227 -0.00443 0.0
C180 C 0.51383 0.53943 0.03705 0.0
C181 C 0.52016 0.56956 0.03313 0.0
C182 C 0.50145 0.51948 0.90544 0.0
C183 C 0.51318 0.52563 0.0856 0.0
C184 C 0.45658 0.44814 -0.00022 0.0
C185 C 0.49014 0.42962 -0.00379 0.0
C186 C 0.46161 0.47852 0.00091 0.0
C187 C 0.50109 0.49063 -0.00139 0.0
C188 C 0.53501 0.472 -0.0036 0.0
C189 C 0.52915 0.4419 -0.00477 0.0
C190 C 0.42467 0.49769 0.00345 0.0
C191 C 0.57761 0.48388 -0.0061 0.0
H192 H 0.51119 0.57745 0.91378 0.0
H193 H 0.52419 0.58257 0.0648 0.0
H194 H 0.52474 0.50222 0.90282 0.0
H195 H 0.47145 0.50866 0.90578 0.0
H196 H 0.50345 0.53339 0.87333 0.0
H197 H 0.51895 0.5416 0.11431 0.0
H198 H 0.48329 0.51533 0.09188 0.0
H199 H 0.53633 0.50826 0.08774 0.0
H200 H 0.42638 0.43895 0.00066 0.0
H201 H 0.55547 0.42793 0.99311 0.0
H202 H 0.4221 0.51061 0.97037 0.0
H203 H 0.4276 0.51324 0.03327 0.0
H204 H 0.39634 0.48502 0.00818 0.0
H205 H 0.58143 0.49667 0.96085 0.0
H206 H 0.60085 0.46647 -0.0055 0.0
H207 H 0.58329 0.49874 0.0241 0.0
C208 C 0.53496 0.44288 0.48062 0.0
C209 C 0.51312 0.42714 0.51466 0.0
C210 C 0.53081 0.47327 0.47707 0.0
C211 C 0.50466 0.48823 0.50867 0.0
C212 C 0.48333 0.47243 0.54368 0.0
C213 C 0.4877 0.44223 0.54611 0.0
C214 C 0.55402 0.48937 0.43921 0.0
C215 C 0.45579 0.48744 0.57876 0.0
C216 C 0.52153 0.56808 0.53533 0.0
C217 C 0.49032 0.58159 0.50954 0.0
C218 C 0.52696 0.53792 0.53447 0.0
C219 C 0.50071 0.52052 0.50693 0.0
C220 C 0.46924 0.53389 0.48052 0.0
C221 C 0.46426 0.56427 0.48235 0.0
C222 C 0.56043 0.52464 0.56386 0.0
C223 C 0.4407 0.51607 0.45061 0.0
H224 H 0.55437 0.4314 0.45598 0.0
H225 H 0.47094 0.43033 0.57286 0.0
H226 H 0.53267 0.50134 0.41597 0.0
H227 H 0.57429 0.50565 0.45579 0.0
H228 H 0.57258 0.47461 0.41691 0.0
H229 H 0.44123 0.47198 0.60374 0.0
H230 H 0.47326 0.50353 0.59964 0.0
H231 H 0.43171 0.49945 0.55962 0.0
H232 H 0.54177 0.58111 0.5568 0.0
H233 H 0.44026 0.57444 0.46208 0.0
H234 H 0.5805 0.5113 0.54108 0.0
H235 H 0.54727 0.51 0.59105 0.0
H236 H 0.57913 0.54126 0.5821 0.0
H237 H 0.45814 0.50249 0.42536 0.0
H238 H 0.41917 0.52977 0.43026 0.0
H239 H 0.42311 0.50114 0.47361 0.0
C240 C 0.03343 0.21109 0.14971 0.0
C241 C 0.00458 0.19413 0.12611 0.0
C242 C 0.03215 0.21434 0.19917 0.0
C243 C 0.00238 0.19922 0.22556 0.0
C244 C 0.97267 0.18256 0.20165 0.0
C245 C 0.97371 0.18067 0.15202 0.0
C246 C 0.06333 0.23321 0.22324 0.0
C247 C 0.94124 0.16534 0.22856 0.0
C248 C 0.0274 0.17607 0.35118 0.0
C249 C 0.00121 0.19359 0.37758 0.0
C250 C 0.02856 0.17803 0.30159 0.0
C251 C 0.00407 0.19883 0.27821 0.0
C252 C 0.97934 0.21776 0.30512 0.0
C253 C 0.97744 0.21442 0.35457 0.0
C254 C 0.05426 0.15675 0.27414 0.0
C255 C 0.95412 0.24097 0.28163 0.0
H256 H 0.05723 0.22156 0.12946 0.0
H257 H 0.95175 0.16726 0.13367 0.0
H258 H 0.04847 0.24804 0.24889 0.0
H259 H 0.08476 0.21946 0.24352 0.0
H260 H 0.08094 0.24634 0.19739 0.0
H261 H 0.91981 0.15396 0.20456 0.0
H262 H 0.95646 0.14896 0.25125 0.0
H263 H 0.92367 0.17976 0.25233 0.0
H264 H 0.04527 0.15969 0.36918 0.0
H265 H 0.95719 0.22793 0.37528 0.0
H266 H 0.07575 0.16848 0.25079 0.0
H267 H 0.03462 0.14331 0.25097 0.0
H268 H 0.07179 0.14212 0.29776 0.0
H269 H 0.97275 0.25345 0.25597 0.0
H270 H 0.94089 0.25627 0.30783 0.0
H271 H 0.92903 0.23082 0.26146 0.0
C272 C 0.97823 0.84042 0.34754 0.0
C273 C 0.00567 0.82366 0.37352 0.0
C274 C 0.9769 0.83862 0.29794 0.0
C275 C 0.00256 0.81874 0.27415 0.0
C276 C 0.02876 0.80061 0.30063 0.0
C277 C 0.03069 0.80379 0.35007 0.0
C278 C 0.94955 0.85903 0.27091 0.0
C279 C 0.05536 0.77839 0.27668 0.0
C280 C 0.97274 0.80502 0.14626 0.0
C281 C 1.0001 0.82291 0.12203 0.0
C282 C 0.97471 0.80206 0.19574 0.0
C283 C 0.00361 0.81836 0.2215 0.0
C284 C 0.03184 0.836 0.19697 0.0
C285 C 0.03018 0.83764 0.14735 0.0
C286 C 0.94515 0.78218 0.22051 0.0
C287 C 0.0623 0.85442 0.22323 0.0
H288 H 0.95936 0.85606 0.36588 0.0
H289 H 0.05188 0.79084 0.37046 0.0
H290 H 0.96802 0.87309 0.24737 0.0
H291 H 0.92855 0.84659 0.24797 0.0
H292 H 0.93139 0.87308 0.29481 0.0
H293 H 0.07034 0.76378 0.30265 0.0
H294 H 0.03724 0.76506 0.25172 0.0
H295 H 0.07915 0.78948 0.25564 0.0
H296 H 0.94956 0.79356 0.12648 0.0
H297 H 0.05098 0.85175 0.12854 0.0
H298 H 0.92301 0.79522 0.24097 0.0
H299 H 0.9613 0.768 0.24608 0.0
H300 H 0.92822 0.76833 0.19509 0.0
H301 H 0.04618 0.87032 0.24596 0.0
H302 H 0.08267 0.86646 0.19879 0.0
H303 H 0.08108 0.84073 0.24689 0.0
C304 C 0.05597 0.85886 0.66139 0.0
C305 C 0.03617 0.84151 0.62782 0.0
C306 C 0.04254 0.86 0.7085 0.0
C307 C 0.00899 0.84293 0.72246 0.0
C308 C 0.98867 0.82553 0.6886 0.0
C309 C 0.00229 0.82526 0.64144 0.0
C310 C 0.06439 0.87931 0.74337 0.0
C311 C 0.95308 0.80678 0.7024 0.0
C312 C 1.00036 0.82362 0.85293 0.0
C313 C 0.96942 0.84228 0.86773 0.0
C314 C 0.01332 0.82344 0.80554 0.0
C315 C 0.9956 0.84293 0.77272 0.0
C316 C 0.96512 0.86239 0.78791 0.0
C317 C 0.95201 0.86156 0.83519 0.0
C318 C 0.04543 0.80205 0.79041 0.0
C319 C 0.94633 0.88402 0.75422 0.0
H320 H 0.08199 0.87166 0.6508 0.0
H321 H 0.98703 0.81178 0.61551 0.0
H322 H 0.04266 0.89443 0.76038 0.0
H323 H 0.07801 0.86597 0.77196 0.0
H324 H 0.08878 0.89222 0.72628 0.0
H325 H 0.94061 0.79452 0.6718 0.0
H326 H 0.96242 0.79109 0.73019 0.0
H327 H 0.92863 0.82036 0.71768 0.0
H328 H 0.01362 0.80859 0.87809 0.0
H329 H 0.92828 0.87617 0.8468 0.0
H330 H 0.07205 0.81376 0.77595 0.0
H331 H 0.03353 0.788 0.76166 0.0
H332 H 0.05566 0.78804 0.82015 0.0
H333 H 0.97025 0.89774 0.73806 0.0
H334 H 0.92401 0.89834 0.77212 0.0
H335 H 0.93084 0.87246 0.72489 0.0
C336 C 0.04816 0.15144 0.84066 0.0
C337 C 0.03265 0.17216 0.87211 0.0
C338 C 0.03491 0.15025 0.7935 0.0
C339 C 0.00622 0.17075 0.77726 0.0
C340 C 0.9902 0.19159 0.80904 0.0
C341 C 0.00327 0.19181 0.8564 0.0
C342 C 0.05183 0.12721 0.76099 0.0
C343 C 0.95999 0.21406 0.79273 0.0
C344 C 0.00311 0.18656 0.6452 0.0
C345 C 0.96837 0.17136 0.63136 0.0
C346 C 0.01577 0.18658 0.6927 0.0
C347 C 0.99344 0.17065 0.72681 0.0
C348 C 0.95888 0.15472 0.71276 0.0
C349 C 0.94659 0.15542 0.6652 0.0
C350 C 0.05264 0.204 0.70653 0.0
C351 C 0.93477 0.13705 0.74798 0.0
H352 H 0.07061 0.13604 0.85301 0.0
H353 H 0.99143 0.2079 0.88075 0.0
H354 H 0.02679 0.11452 0.74495 0.0
H355 H 0.06878 0.13753 0.7315 0.0
H356 H 0.07243 0.11204 0.77981 0.0
H357 H 0.95044 0.22872 0.82191 0.0
H358 H 0.9734 0.22735 0.76389 0.0
H359 H 0.93273 0.20329 0.778 0.0
H360 H 0.01994 0.19894 0.61911 0.0
H361 H 0.91982 0.14349 0.65453 0.0
H362 H 0.07574 0.18959 0.72267 0.0
H363 H 0.04426 0.22038 0.73364 0.0
H364 H 0.06648 0.21534 0.67576 0.0
H365 H 0.95478 0.12116 0.76597 0.0
H366 H 0.90941 0.12513 0.73096 0.0
H367 H 0.92213 0.15145 0.7758 0.0
C368 C 0.52476 0.71121 0.14487 0.0
C369 C 0.49658 0.69413 0.12035 0.0
C370 C 0.52271 0.71416 0.19435 0.0
C371 C 0.49268 0.69879 0.21991 0.0
C372 C 0.46323 0.6824 0.19508 0.0
C373 C 0.46518 0.68065 0.14546 0.0
C374 C 0.55375 0.73268 0.21939 0.0
C375 C 0.43138 0.66505 0.22105 0.0
C376 C 0.51892 0.67372 0.34425 0.0
C377 C 0.49351 0.69112 0.37186 0.0
C378 C 0.51909 0.67617 0.2947 0.0
C379 C 0.49444 0.69737 0.27255 0.0
C380 C 0.47023 0.71602 0.30064 0.0
C381 C 0.46929 0.71217 0.35006 0.0
C382 C 0.54424 0.65517 0.266 0.0
C383 C 0.44484 0.73962 0.27847 0.0
H384 H 0.54895 0.72179 0.1254 0.0
H385 H 0.44363 0.66719 0.12658 0.0
H386 H 0.53889 0.7468 0.2461 0.0
H387 H 0.57548 0.71858 0.23856 0.0
H388 H 0.57103 0.74651 0.19425 0.0
H389 H 0.40934 0.6548 0.19646 0.0
H390 H 0.44621 0.64773 0.24217 0.0
H391 H 0.41456 0.67905 0.24621 0.0
H392 H 0.5371 0.65714 0.36133 0.0
H393 H 0.4496 0.72555 0.3717 0.0
H394 H 0.5661 0.66716 0.24347 0.0
H395 H 0.52432 0.64254 0.24195 0.0
H396 H 0.56134 0.63976 0.28873 0.0
H397 H 0.46354 0.75282 0.25388 0.0
H398 H 0.43122 0.75418 0.30551 0.0
H399 H 0.42007 0.72983 0.2573 0.0
C400 C 0.51272 0.2954 0.35554 0.0
C401 C 0.49367 0.31876 0.378 0.0
C402 C 0.51048 0.29208 0.3061 0.0
C403 C 0.49044 0.31345 0.27869 0.0
C404 C 0.47076 0.33691 0.30154 0.0
C405 C 0.47197 0.33895 0.35111 0.0
C406 C 0.53036 0.26617 0.28315 0.0
C407 C 0.45022 0.36067 0.27357 0.0
C408 C 0.52401 0.32803 0.15233 0.0
C409 C 0.49043 0.31826 0.1266 0.0
C410 C 0.52497 0.32578 0.20193 0.0
C411 C 0.49213 0.31257 0.22604 0.0
C412 C 0.45941 0.30091 0.19983 0.0
C413 C 0.45859 0.30439 0.1504 0.0
C414 C 0.55991 0.33918 0.22864 0.0
C415 C 0.42457 0.28574 0.2241 0.0
H416 H 0.52955 0.27987 0.37667 0.0
H417 H 0.45784 0.35723 0.36875 0.0
H418 H 0.50927 0.25578 0.25766 0.0
H419 H 0.55738 0.27325 0.26288 0.0
H420 H 0.54001 0.24975 0.3097 0.0
H421 H 0.43624 0.37734 0.29682 0.0
H422 H 0.47263 0.37148 0.25012 0.0
H423 H 0.42635 0.3514 0.25048 0.0
H424 H 0.54844 0.33901 0.13393 0.0
H425 H 0.43272 0.29664 0.13038 0.0
H426 H 0.57374 0.32308 0.25294 0.0
H427 H 0.54867 0.35739 0.25076 0.0
H428 H 0.5838 0.34758 0.20452 0.0
H429 H 0.43604 0.26976 0.25029 0.0
H430 H 0.40461 0.27437 0.19841 0.0
H431 H 0.40609 0.30182 0.24377 0.0
C432 C 0.44795 0.36229 0.83931 0.0
C433 C 0.4656 0.34345 0.87238 0.0
C434 C 0.46107 0.36282 0.79203 0.0
C435 C 0.49201 0.3436 0.77736 0.0
C436 C 0.51034 0.32478 0.81079 0.0
C437 C 0.49716 0.32515 0.85813 0.0
C438 C 0.4415 0.38369 0.75767 0.0
C439 C 0.54309 0.30374 0.79626 0.0
C440 C 0.49619 0.32372 0.64678 0.0
C441 C 0.52919 0.34023 0.6312 0.0
C442 C 0.48387 0.3245 0.69441 0.0
C443 C 0.50456 0.34273 0.72678 0.0
C444 C 0.53724 0.36004 0.71086 0.0
C445 C 0.54944 0.35834 0.6633 0.0
C446 C 0.44921 0.30546 0.71027 0.0
C447 C 0.55937 0.38026 0.74406 0.0
H448 H 0.42375 0.37666 0.85038 0.0
H449 H 0.51074 0.3105 0.88367 0.0
H450 H 0.46496 0.39714 0.74005 0.0
H451 H 0.42549 0.37145 0.72948 0.0
H452 H 0.41943 0.3983 0.77536 0.0
H453 H 0.55451 0.29077 0.82666 0.0
H454 H 0.53122 0.28868 0.7689 0.0
H455 H 0.56889 0.31562 0.7802 0.0
H456 H 0.48063 0.30961 0.62201 0.0
H457 H 0.5748 0.37131 0.65118 0.0
H458 H 0.42457 0.31898 0.72527 0.0
H459 H 0.45956 0.29062 0.73878 0.0
H460 H 0.43664 0.29228 0.68078 0.0
H461 H 0.53767 0.39554 0.7607 0.0
H462 H 0.58322 0.39299 0.72565 0.0
H463 H 0.57369 0.36766 0.77308 0.0
C464 C 0.49677 0.68341 0.85281 0.0
C465 C 0.53167 0.66874 0.86761 0.0
C466 C 0.48445 0.68268 0.8052 0.0
C467 C 0.50725 0.66647 0.77192 0.0
C468 C 0.54189 0.65095 0.78699 0.0
C469 C 0.55388 0.65246 0.83465 0.0
C470 C 0.44753 0.69972 0.79033 0.0
C471 C 0.56645 0.63296 0.75272 0.0
C472 C 0.45306 0.64656 0.65795 0.0
C473 C 0.46842 0.66729 0.62635 0.0
C474 C 0.4664 0.64546 0.70512 0.0
C475 C 0.495 0.66606 0.72124 0.0
C476 C 0.51101 0.68682 0.68925 0.0
C477 C 0.49787 0.68694 0.6419 0.0
C478 C 0.44946 0.62252 0.73784 0.0
C479 C 0.54111 0.70941 0.70537 0.0
H480 H 0.4796 0.69607 0.87821 0.0
H481 H 0.58075 0.64092 0.84608 0.0
H482 H 0.45603 0.7159 0.76293 0.0
H483 H 0.42479 0.68502 0.77423 0.0
H484 H 0.4332 0.71126 0.82057 0.0
H485 H 0.59156 0.62121 0.77055 0.0
H486 H 0.54668 0.6169 0.73478 0.0
H487 H 0.57948 0.64709 0.72476 0.0
H488 H 0.43056 0.63115 0.64576 0.0
H489 H 0.50961 0.70305 0.61747 0.0
H490 H 0.43188 0.63292 0.76672 0.0
H491 H 0.47449 0.61021 0.75471 0.0
H492 H 0.42941 0.607 0.71897 0.0
H493 H 0.52741 0.72299 0.73362 0.0
H494 H 0.55101 0.72378 0.67593 0.0
H495 H 0.56819 0.69877 0.72081 0.0
C496 C 0.33596 0.27957 0.05494 0.0
C497 C 0.33277 0.30553 0.02938 0.0
C498 C 0.30256 0.261 0.0602 0.0
C499 C 0.26553 0.26805 0.03772 0.0
C500 C 0.26182 0.29485 0.01326 0.0
C501 C 0.29546 0.3135 0.00993 0.0
C502 C 0.30753 0.23319 0.08787 0.0
C503 C 0.22316 0.30295 0.98799 0.0
C504 C 0.19772 0.20637 -0.00395 0.0
C505 C 0.16548 0.2082 0.02802 0.0
C506 C 0.2309 0.22534 -0.00053 0.0
C507 C 0.23195 0.24637 0.03617 0.0
C508 C 0.20017 0.24728 0.06992 0.0
C509 C 0.16691 0.22847 0.06493 0.0
C510 C 0.2638 0.22384 0.96235 0.0
C511 C 0.20056 0.2688 0.11023 0.0
H512 H 0.36501 0.27344 0.06981 0.0
H513 H 0.29332 0.33336 0.98948 0.0
H514 H 0.28175 0.23012 0.11261 0.0
H515 H 0.30768 0.2145 0.06312 0.0
H516 H 0.33617 0.23287 0.10854 0.0
H517 H 0.22434 0.32522 0.973 0.0
H518 H 0.21757 0.28743 0.95863 0.0
H519 H 0.19702 0.30148 0.01257 0.0
H520 H 0.19594 0.19111 0.96686 0.0
H521 H 0.14144 0.23014 0.08906 0.0
H522 H 0.29373 0.22084 0.97948 0.0
H523 H 0.26496 0.24457 0.94238 0.0
H524 H 0.25892 0.20585 0.93678 0.0
H525 H 0.23008 0.26809 0.12898 0.0
H526 H 0.17597 0.2646 0.13624 0.0
H527 H 0.1968 0.29108 0.09603 0.0
C528 C 0.66813 0.73816 0.98515 0.0
C529 C 0.65834 0.71676 0.01857 0.0
C530 C 0.70323 0.755 0.9897 0.0
C531 C 0.72872 0.75105 0.02954 0.0
C532 C 0.71827 0.73012 0.06439 0.0
C533 C 0.68348 0.7128 0.05805 0.0
C534 C 0.71376 0.7763 0.95084 0.0
C535 C 0.74402 0.72587 0.10803 0.0
C536 C 0.83813 0.77115 0.00635 0.0
C537 C 0.83983 0.80003 0.02208 0.0
C538 C 0.80272 0.75463 0.01059 0.0
C539 C 0.76799 0.76702 0.03179 0.0
C540 C 0.77001 0.79566 0.05005 0.0
C541 C 0.80587 0.81196 0.04464 0.0
C542 C 0.80191 0.7244 0.9899 0.0
C543 C 0.73385 0.80942 0.07377 0.0
H544 H 0.64884 0.74118 0.95443 0.0
H545 H 0.67565 0.6965 0.08423 0.0
H546 H 0.71747 0.79837 0.96581 0.0
H547 H 0.74304 0.77014 0.93436 0.0
H548 H 0.69031 0.77714 0.92263 0.0
H549 H 0.72964 0.71096 0.13401 0.0
H550 H 0.77388 0.71683 0.09782 0.0
H551 H 0.74967 0.74704 0.12554 0.0
H552 H 0.86423 0.76159 0.98909 0.0
H553 H 0.80702 0.83415 0.05724 0.0
H554 H 0.78049 0.72372 0.95959 0.0
H555 H 0.79101 0.70859 0.01665 0.0
H556 H 0.83216 0.7173 0.97718 0.0
H557 H 0.71021 0.81404 0.04688 0.0
H558 H 0.74185 0.83005 0.09182 0.0
H559 H 0.72049 0.79433 0.10017 0.0
C560 C 0.16063 0.77307 0.45227 0.0
C561 C 0.16526 0.80165 0.46836 0.0
C562 C 0.19404 0.75448 0.44769 0.0
C563 C 0.23298 0.76443 0.46088 0.0
C564 C 0.2381 0.79376 0.47503 0.0
C565 C 0.20413 0.81217 0.47806 0.0
C566 C 0.18725 0.7237 0.43128 0.0
C567 C 0.27898 0.80514 0.48998 0.0
C568 C 0.30636 0.70911 0.5122 0.0
C569 C 0.33344 0.70507 0.47468 0.0
C570 C 0.27319 0.72796 0.50776 0.0
C571 C 0.26723 0.74338 0.46479 0.0
C572 C 0.29413 0.73878 0.4263 0.0
C573 C 0.32714 0.71974 0.43182 0.0
C574 C 0.24527 0.73207 0.54965 0.0
C575 C 0.28877 0.75464 0.3799 0.0
H576 H 0.13053 0.76497 0.44449 0.0
H577 H 0.20766 0.83417 0.49096 0.0
H578 H 0.20985 0.71765 0.4039 0.0
H579 H 0.1912 0.70864 0.46163 0.0
H580 H 0.15642 0.72052 0.41642 0.0
H581 H 0.27867 0.82896 0.49586 0.0
H582 H 0.28836 0.79438 0.52344 0.0
H583 H 0.30216 0.79996 0.46281 0.0
H584 H 0.31194 0.69818 0.54565 0.0
H585 H 0.34884 0.71709 0.40327 0.0
H586 H 0.21364 0.72701 0.53933 0.0
H587 H 0.24598 0.75505 0.56127 0.0
H588 H 0.2537 0.7181 0.58021 0.0
H589 H 0.25756 0.75149 0.36629 0.0
H590 H 0.31063 0.74725 0.35249 0.0
H591 H 0.29304 0.77826 0.38552 0.0
C592 C 0.65983 0.26759 0.49975 0.0
C593 C 0.6556 0.29436 0.4765 0.0
C594 C 0.69514 0.25097 0.4953 0.0
C595 C 0.72702 0.26096 0.46603 0.0
C596 C 0.72225 0.28729 0.44051 0.0
C597 C 0.68674 0.3039 0.4465 0.0
C598 C 0.69912 0.22347 0.52412 0.0
C599 C 0.75515 0.29832 0.40806 0.0
C600 C 0.83158 0.23772 0.50628 0.0
C601 C 0.83887 0.21302 0.47849 0.0
C602 C 0.79588 0.25384 0.50154 0.0
C603 C 0.76682 0.24559 0.46725 0.0
C604 C 0.77451 0.22124 0.43779 0.0
C605 C 0.81027 0.20493 0.44423 0.0
C606 C 0.78863 0.27908 0.53467 0.0
C607 C 0.74473 0.21222 0.40003 0.0
H608 H 0.63597 0.25996 0.52304 0.0
H609 H 0.68352 0.3244 0.42805 0.0
H610 H 0.70766 0.20503 0.50096 0.0
H611 H 0.72357 0.22612 0.55076 0.0
H612 H 0.67068 0.21782 0.54303 0.0
H613 H 0.74465 0.31671 0.38576 0.0
H614 H 0.78134 0.30575 0.42947 0.0
H615 H 0.76605 0.28066 0.38458 0.0
H616 H 0.85343 0.24407 0.53302 0.0
H617 H 0.81595 0.18605 0.42233 0.0
H618 H 0.76147 0.27477 0.55677 0.0
H619 H 0.78264 0.29912 0.51407 0.0
H620 H 0.81474 0.28312 0.5586 0.0
H621 H 0.7166 0.20406 0.41687 0.0
H622 H 0.75708 0.19494 0.3767 0.0
H623 H 0.73628 0.23116 0.37784 0.0
loop_
_geom_bond_atom_site_label_1
_geom_bond_atom_site_label_2
_geom_bond_distance
_geom_bond_site_symmetry_2
_ccdc_geom_bond_type
Co0 O1 2.216 1_556 S
Co0 O2 2.091 1_556 S
Co0 O4 2.004 . S
Co0 O10 2.021 1_556 S
Co0 O12 2.137 . S
Co0 O13 2.244 . S
O1 Co0 2.216 1_554 S
O1 C8 1.247 . S
O2 Co0 2.091 1_554 S
O2 C8 1.261 . S
C3 O12 1.247 . S
C3 O13 1.272 . S
O4 Co0 2.004 . S
O4 C9 1.259 1_556 S
Co5 O6 2.061 . S
Co5 O11 2.052 . S
Co5 O13 2.135 1_654 S
O6 Co5 2.061 . S
O6 C9 1.235 1_655 S
C7 O10 1.238 . S
C7 O11 1.241 1_455 S
C8 O1 1.247 . S
C8 O2 1.261 . S
C9 O4 1.259 1_554 S
C9 O6 1.235 1_455 S
O10 Co0 2.021 1_554 S
O10 C7 1.238 . S
O11 Co5 2.052 . S
O11 C7 1.241 1_655 S
O12 Co0 2.137 . S
O12 C3 1.247 . S
O13 Co0 2.244 . S
O13 C3 1.272 . S
O13 Co5 2.135 1_456 S
Co14 O15 2.216 1_556 S
Co14 O16 2.091 1_556 S
Co14 O18 2.004 . S
Co14 O24 2.021 1_556 S
Co14 O26 2.137 . S
Co14 O27 2.244 . S
O15 Co14 2.216 1_554 S
O15 C22 1.247 . S
O16 Co14 2.091 1_554 S
O16 C22 1.261 . S
C17 O26 1.247 . S
C17 O27 1.272 . S
O18 Co14 2.004 . S
O18 C23 1.259 1_556 S
Co19 O20 2.061 . S
Co19 O25 2.052 . S
Co19 O27 2.135 1_454 S
O20 Co19 2.061 . S
O20 C23 1.235 1_455 S
C21 O24 1.238 . S
C21 O25 1.241 1_655 S
C22 O15 1.247 . S
C22 O16 1.261 . S
C23 O18 1.259 1_554 S
C23 O20 1.235 1_655 S
O24 Co14 2.021 1_554 S
O24 C21 1.238 . S
O25 Co19 2.052 . S
O25 C21 1.241 1_455 S
O26 Co14 2.137 . S
O26 C17 1.247 . S
O27 Co14 2.244 . S
O27 C17 1.272 . S
O27 Co19 2.135 1_656 S
Co28 O29 2.216 . S
Co28 O30 2.091 . S
Co28 O32 2.004 . S
Co28 O38 2.021 . S
Co28 O40 2.137 . S
Co28 O41 2.244 . S
O29 Co28 2.216 . S
O29 C36 1.247 . S
O30 Co28 2.091 . S
O30 C36 1.261 . S
C31 O40 1.247 . S
C31 O41 1.272 . S
O32 Co28 2.004 . S
O32 C37 1.259 . S
Co33 O34 2.061 . S
Co33 O39 2.052 . S
Co33 O41 2.135 1_655 S
O34 Co33 2.061 . S
O34 C37 1.235 1_655 S
C35 O38 1.238 . S
C35 O39 1.241 1_455 S
C36 O29 1.247 . S
C36 O30 1.261 . S
C37 O32 1.259 . S
C37 O34 1.235 1_455 S
O38 Co28 2.021 . S
O38 C35 1.238 . S
O39 Co33 2.052 . S
O39 C35 1.241 1_655 S
O40 Co28 2.137 . S
O40 C31 1.247 . S
O41 Co28 2.244 . S
O41 C31 1.272 . S
O41 Co33 2.135 1_455 S
Co42 O43 2.216 . S
Co42 O44 2.091 . S
Co42 O46 2.004 . S
Co42 O52 2.021 . S
Co42 O54 2.137 . S
Co42 O55 2.244 . S
O43 Co42 2.216 . S
O43 C50 1.247 . S
O44 Co42 2.091 . S
O44 C50 1.261 . S
C45 O54 1.247 . S
C45 O55 1.272 . S
O46 Co42 2.004 . S
O46 C51 1.259 . S
Co47 O48 2.061 . S
Co47 O53 2.052 . S
Co47 O55 2.135 1_455 S
O48 Co47 2.061 . S
O48 C51 1.235 1_455 S
C49 O52 1.238 . S
C49 O53 1.241 1_655 S
C50 O43 1.247 . S
C50 O44 1.261 . S
C51 O46 1.259 . S
C51 O48 1.235 1_655 S
O52 Co42 2.021 . S
O52 C49 1.238 . S
O53 Co47 2.052 . S
O53 C49 1.241 1_455 S
O54 Co42 2.137 . S
O54 C45 1.247 . S
O55 Co42 2.244 . S
O55 C45 1.272 . S
O55 Co47 2.135 1_655 S
Co56 O57 2.216 1_556 S
Co56 O58 2.091 1_556 S
Co56 O60 2.004 . S
Co56 O66 2.021 1_556 S
Co56 O68 2.137 . S
Co56 O69 2.244 . S
O57 Co56 2.216 1_554 S
O57 C64 1.247 . S
O58 Co56 2.091 1_554 S
O58 C64 1.261 . S
C59 O68 1.247 . S
C59 O69 1.272 . S
O60 Co56 2.004 . S
O60 C65 1.259 1_556 S
Co61 O62 2.061 . S
Co61 O67 2.052 . S
Co61 O69 2.135 1_554 S
O62 Co61 2.061 . S
O62 C65 1.235 . S
C63 O66 1.238 . S
C63 O67 1.241 . S
C64 O57 1.247 . S
C64 O58 1.261 . S
C65 O60 1.259 1_554 S
C65 O62 1.235 . S
O66 Co56 2.021 1_554 S
O66 C63 1.238 . S
O67 Co61 2.052 . S
O67 C63 1.241 . S
O68 Co56 2.137 . S
O68 C59 1.247 . S
O69 Co56 2.244 . S
O69 C59 1.272 . S
O69 Co61 2.135 1_556 S
Co70 O71 2.216 1_556 S
Co70 O72 2.091 1_556 S
Co70 O74 2.004 . S
Co70 O80 2.021 1_556 S
Co70 O82 2.137 . S
Co70 O83 2.244 . S
O71 Co70 2.216 1_554 S
O71 C78 1.247 . S
O72 Co70 2.091 1_554 S
O72 C78 1.261 . S
C73 O82 1.247 . S
C73 O83 1.272 . S
O74 Co70 2.004 . S
O74 C79 1.259 1_556 S
Co75 O76 2.061 . S
Co75 O81 2.052 . S
Co75 O83 2.135 1_554 S
O76 Co75 2.061 . S
O76 C79 1.235 . S
C77 O80 1.238 . S
C77 O81 1.241 . S
C78 O71 1.247 . S
C78 O72 1.261 . S
C79 O74 1.259 1_554 S
C79 O76 1.235 . S
O80 Co70 2.021 1_554 S
O80 C77 1.238 . S
O81 Co75 2.052 . S
O81 C77 1.241 . S
O82 Co70 2.137 . S
O82 C73 1.247 . S
O83 Co70 2.244 . S
O83 C73 1.272 . S
O83 Co75 2.135 1_556 S
Co84 O85 2.216 . S
Co84 O86 2.091 . S
Co84 O88 2.004 . S
Co84 O94 2.021 . S
Co84 O96 2.137 . S
Co84 O97 2.244 . S
O85 Co84 2.216 . S
O85 C92 1.247 . S
O86 Co84 2.091 . S
O86 C92 1.261 . S
C87 O96 1.247 . S
C87 O97 1.272 . S
O88 Co84 2.004 . S
O88 C93 1.259 . S
Co89 O90 2.061 . S
Co89 O95 2.052 . S
Co89 O97 2.135 . S
O90 Co89 2.061 . S
O90 C93 1.235 . S
C91 O94 1.238 . S
C91 O95 1.241 . S
C92 O85 1.247 . S
C92 O86 1.261 . S
C93 O88 1.259 . S
C93 O90 1.235 . S
O94 Co84 2.021 . S
O94 C91 1.238 . S
O95 Co89 2.052 . S
O95 C91 1.241 . S
O96 Co84 2.137 . S
O96 C87 1.247 . S
O97 Co84 2.244 . S
O97 C87 1.272 . S
O97 Co89 2.135 . S
Co98 O99 2.216 . S
Co98 O100 2.091 . S
Co98 O102 2.004 . S
Co98 O108 2.021 . S
Co98 O110 2.137 . S
Co98 O111 2.244 . S
O99 Co98 2.216 . S
O99 C106 1.247 . S
O100 Co98 2.091 . S
O100 C106 1.261 . S
C101 O110 1.247 . S
C101 O111 1.272 . S
O102 Co98 2.004 . S
O102 C107 1.259 . S
Co103 O104 2.061 . S
Co103 O109 2.052 . S
Co103 O111 2.135 . S
O104 Co103 2.061 . S
O104 C107 1.235 . S
C105 O108 1.238 . S
C105 O109 1.241 . S
C106 O99 1.247 . S
C106 O100 1.261 . S
C107 O102 1.259 . S
C107 O104 1.235 . S
O108 Co98 2.021 . S
O108 C105 1.238 . S
O109 Co103 2.052 . S
O109 C105 1.241 . S
O110 Co98 2.137 . S
O110 C101 1.247 . S
O111 Co98 2.244 . S
O111 C101 1.272 . S
O111 Co103 2.135 . S
C112 C113 1.391 1_456 S
C112 C114 1.394 . S
C112 H128 0.931 . S
C113 C112 1.391 1_654 S
C113 C117 1.376 . S
C114 C112 1.394 . S
C114 C115 1.369 1_455 S
C114 C118 1.531 . S
C115 C114 1.369 1_655 S
C115 C116 1.410 1_556 S
C115 C123 1.497 1_665 S
C116 C115 1.410 1_554 S
C116 C117 1.392 . S
C116 C119 1.511 . S
C117 C113 1.376 . S
C117 C116 1.392 . S
C117 H129 0.929 . S
C118 C114 1.531 . S
C118 H130 0.960 . S
C118 H131 0.962 . S
C118 H132 0.960 . S
C119 C116 1.511 . S
C119 H133 0.961 . S
C119 H134 0.961 1_565 S
C119 H135 0.961 1_565 S
C120 C121 1.370 . S
C120 C122 1.363 . S
C120 H136 0.931 . S
C121 C120 1.370 . S
C121 C125 1.408 1_454 S
C122 C120 1.363 . S
C122 C123 1.390 1_554 S
C122 C126 1.524 . S
C123 C115 1.497 1_445 S
C123 C122 1.390 1_556 S
C123 C124 1.391 1_455 S
C124 C123 1.391 1_655 S
C124 C125 1.404 . S
C124 C127 1.539 . S
C125 C121 1.408 1_656 S
C125 C124 1.404 . S
C125 H137 0.930 . S
C126 C122 1.524 . S
C126 H138 0.956 1_545 S
C126 H139 0.961 1_545 S
C126 H140 0.961 . S
C127 C124 1.539 . S
C127 H141 0.958 . S
C127 H142 0.961 . S
C127 H143 0.960 . S
H128 C112 0.931 . S
H129 C117 0.929 . S
H130 C118 0.960 . S
H131 C118 0.962 . S
H132 C118 0.960 . S
H133 C119 0.961 . S
H134 C119 0.961 1_545 S
H135 C119 0.961 1_545 S
H136 C120 0.931 . S
H137 C125 0.930 . S
H138 C126 0.956 1_565 S
H139 C126 0.961 1_565 S
H140 C126 0.961 . S
H141 C127 0.958 . S
H142 C127 0.961 . S
H143 C127 0.960 . S
C144 C145 1.390 . S
C144 C146 1.394 1_455 S
C144 H160 0.931 1_455 S
C145 C144 1.390 . S
C145 C149 1.376 . S
C146 C144 1.394 1_655 S
C146 C147 1.369 1_655 S
C146 C150 1.531 . S
C147 C146 1.369 1_455 S
C147 C148 1.410 . S
C147 C155 1.501 1_465 S
C148 C147 1.410 . S
C148 C149 1.392 . S
C148 C151 1.511 . S
C149 C145 1.376 . S
C149 C148 1.392 . S
C149 H161 0.929 . S
C150 C146 1.531 . S
C150 H162 0.960 . S
C150 H163 0.962 . S
C150 H164 0.960 . S
C151 C148 1.511 . S
C151 H165 0.961 . S
C151 H166 0.961 1_565 S
C151 H167 0.961 1_565 S
C152 C153 1.370 . S
C152 C154 1.363 . S
C152 H168 0.931 . S
C153 C152 1.370 . S
C153 C157 1.408 1_655 S
C154 C152 1.363 . S
C154 C155 1.378 . S
C154 C158 1.524 . S
C155 C147 1.501 1_645 S
C155 C154 1.378 . S
C155 C156 1.398 1_655 S
C156 C155 1.398 1_455 S
C156 C157 1.404 . S
C156 C159 1.539 . S
C157 C153 1.408 1_455 S
C157 C156 1.404 . S
C157 H169 0.930 . S
C158 C154 1.524 . S
C158 H170 0.956 1_545 S
C158 H171 0.961 1_545 S
C158 H172 0.961 . S
C159 C156 1.539 . S
C159 H173 0.958 . S
C159 H174 0.961 . S
C159 H175 0.960 . S
H160 C144 0.931 1_655 S
H161 C149 0.929 . S
H162 C150 0.960 . S
H163 C150 0.962 . S
H164 C150 0.960 . S
H165 C151 0.961 . S
H166 C151 0.961 1_545 S
H167 C151 0.961 1_545 S
H168 C152 0.931 . S
H169 C157 0.930 . S
H170 C158 0.956 1_565 S
H171 C158 0.961 1_565 S
H172 C158 0.961 . S
H173 C159 0.958 . S
H174 C159 0.961 . S
H175 C159 0.960 . S
C176 C177 1.391 1_556 S
C176 C178 1.394 . S
C176 H192 0.931 . S
C177 C176 1.391 1_554 S
C177 C181 1.376 . S
C178 C176 1.394 . S
C178 C179 1.369 1_556 S
C178 C182 1.531 . S
C179 C178 1.369 1_554 S
C179 C180 1.410 . S
C179 C187 1.503 . S
C180 C179 1.410 . S
C180 C181 1.392 . S
C180 C183 1.511 . S
C181 C177 1.376 . S
C181 C180 1.392 . S
C181 H193 0.929 . S
C182 C178 1.531 . S
C182 H194 0.960 . S
C182 H195 0.962 . S
C182 H196 0.960 . S
C183 C180 1.511 . S
C183 H197 0.961 . S
C183 H198 0.961 . S
C183 H199 0.961 . S
C184 C185 1.370 1_556 S
C184 C186 1.363 . S
C184 H200 0.931 . S
C185 C184 1.370 1_554 S
C185 C189 1.408 . S
C186 C184 1.363 . S
C186 C187 1.370 1_556 S
C186 C190 1.524 . S
C187 C179 1.503 . S
C187 C186 1.370 1_554 S
C187 C188 1.403 . S
C188 C187 1.403 . S
C188 C189 1.404 . S
C188 C191 1.539 . S
C189 C185 1.408 . S
C189 C188 1.404 . S
C189 H201 0.930 . S
C190 C186 1.524 . S
C190 H202 0.956 . S
C190 H203 0.961 1_556 S
C190 H204 0.961 . S
C191 C188 1.539 . S
C191 H205 0.958 . S
C191 H206 0.961 . S
C191 H207 0.960 . S
H192 C176 0.931 . S
H193 C181 0.929 . S
H194 C182 0.960 . S
H195 C182 0.962 . S
H196 C182 0.960 . S
H197 C183 0.961 . S
H198 C183 0.961 . S
H199 C183 0.961 . S
H200 C184 0.931 . S
H201 C189 0.930 . S
H202 C190 0.956 . S
H203 C190 0.961 1_554 S
H204 C190 0.961 . S
H205 C191 0.958 . S
H206 C191 0.961 . S
H207 C191 0.960 . S
C208 C209 1.391 . S
C208 C210 1.394 . S
C208 H224 0.931 . S
C209 C208 1.391 . S
C209 C213 1.376 . S
C210 C208 1.394 . S
C210 C211 1.369 . S
C210 C214 1.531 . S
C211 C210 1.369 . S
C211 C212 1.410 . S
C211 C219 1.503 . S
C212 C211 1.410 . S
C212 C213 1.392 . S
C212 C215 1.511 . S
C213 C209 1.376 . S
C213 C212 1.392 . S
C213 H225 0.929 . S
C214 C210 1.531 . S
C214 H226 0.960 . S
C214 H227 0.962 . S
C214 H228 0.960 . S
C215 C212 1.511 . S
C215 H229 0.961 . S
C215 H230 0.961 . S
C215 H231 0.961 . S
C216 C217 1.370 . S
C216 C218 1.363 . S
C216 H232 0.931 . S
C217 C216 1.370 . S
C217 C221 1.408 . S
C218 C216 1.363 . S
C218 C219 1.370 . S
C218 C222 1.524 . S
C219 C211 1.503 . S
C219 C218 1.370 . S
C219 C220 1.403 . S
C220 C219 1.403 . S
C220 C221 1.404 . S
C220 C223 1.539 . S
C221 C217 1.408 . S
C221 C220 1.404 . S
C221 H233 0.930 . S
C222 C218 1.524 . S
C222 H234 0.956 . S
C222 H235 0.961 . S
C222 H236 0.961 . S
C223 C220 1.539 . S
C223 H237 0.958 . S
C223 H238 0.961 . S
C223 H239 0.960 . S
H224 C208 0.931 . S
H225 C213 0.929 . S
H226 C214 0.960 . S
H227 C214 0.962 . S
H228 C214 0.960 . S
H229 C215 0.961 . S
H230 C215 0.961 . S
H231 C215 0.961 . S
H232 C216 0.931 . S
H233 C221 0.930 . S
H234 C222 0.956 . S
H235 C222 0.961 . S
H236 C222 0.961 . S
H237 C223 0.958 . S
H238 C223 0.961 . S
H239 C223 0.960 . S
C240 C241 1.391 . S
C240 C242 1.394 . S
C240 H256 0.931 . S
C241 C240 1.391 . S
C241 C245 1.376 1_455 S
C242 C240 1.394 . S
C242 C243 1.369 1_455 S
C242 C246 1.531 . S
C243 C242 1.369 1_655 S
C243 C244 1.410 . S
C243 C251 1.503 . S
C244 C243 1.410 . S
C244 C245 1.392 . S
C244 C247 1.511 . S
C245 C241 1.376 1_655 S
C245 C244 1.392 . S
C245 H257 0.929 . S
C246 C242 1.531 . S
C246 H258 0.960 . S
C246 H259 0.962 . S
C246 H260 0.960 . S
C247 C244 1.511 . S
C247 H261 0.961 . S
C247 H262 0.961 . S
C247 H263 0.961 . S
C248 C249 1.370 1_455 S
C248 C250 1.363 . S
C248 H264 0.931 . S
C249 C248 1.370 1_655 S
C249 C253 1.408 . S
C250 C248 1.363 . S
C250 C251 1.370 1_455 S
C250 C254 1.524 . S
C251 C243 1.503 . S
C251 C250 1.370 1_655 S
C251 C252 1.403 . S
C252 C251 1.403 . S
C252 C253 1.404 . S
C252 C255 1.539 . S
C253 C249 1.408 . S
C253 C252 1.404 . S
C253 H265 0.930 . S
C254 C250 1.524 . S
C254 H266 0.956 . S
C254 H267 0.961 . S
C254 H268 0.961 . S
C255 C252 1.539 . S
C255 H269 0.958 . S
C255 H270 0.961 . S
C255 H271 0.960 . S
H256 C240 0.931 . S
H257 C245 0.929 . S
H258 C246 0.960 . S
H259 C246 0.962 . S
H260 C246 0.960 . S
H261 C247 0.961 . S
H262 C247 0.961 . S
H263 C247 0.961 . S
H264 C248 0.931 . S
H265 C253 0.930 . S
H266 C254 0.956 . S
H267 C254 0.961 . S
H268 C254 0.961 . S
H269 C255 0.958 . S
H270 C255 0.961 . S
H271 C255 0.960 . S
C272 C273 1.391 1_655 S
C272 C274 1.394 . S
C272 H288 0.931 . S
C273 C272 1.391 1_455 S
C273 C277 1.376 . S
C274 C272 1.394 . S
C274 C275 1.369 1_655 S
C274 C278 1.531 . S
C275 C274 1.369 1_455 S
C275 C276 1.410 . S
C275 C283 1.503 . S
C276 C275 1.410 . S
C276 C277 1.392 . S
C276 C279 1.511 . S
C277 C273 1.376 . S
C277 C276 1.392 . S
C277 H289 0.929 . S
C278 C274 1.531 . S
C278 H290 0.960 . S
C278 H291 0.962 . S
C278 H292 0.960 . S
C279 C276 1.511 . S
C279 H293 0.961 . S
C279 H294 0.961 . S
C279 H295 0.961 . S
C280 C281 1.370 . S
C280 C282 1.363 . S
C280 H296 0.931 . S
C281 C280 1.370 . S
C281 C285 1.408 1_655 S
C282 C280 1.363 . S
C282 C283 1.370 1_655 S
C282 C286 1.524 . S
C283 C275 1.503 . S
C283 C282 1.370 1_455 S
C283 C284 1.403 . S
C284 C283 1.403 . S
C284 C285 1.404 . S
C284 C287 1.539 . S
C285 C281 1.408 1_455 S
C285 C284 1.404 . S
C285 H297 0.930 . S
C286 C282 1.524 . S
C286 H298 0.956 . S
C286 H299 0.961 . S
C286 H300 0.961 . S
C287 C284 1.539 . S
C287 H301 0.958 . S
C287 H302 0.961 . S
C287 H303 0.960 . S
H288 C272 0.931 . S
H289 C277 0.929 . S
H290 C278 0.960 . S
H291 C278 0.962 . S
H292 C278 0.960 . S
H293 C279 0.961 . S
H294 C279 0.961 . S
H295 C279 0.961 . S
H296 C280 0.931 . S
H297 C285 0.930 . S
H298 C286 0.956 . S
H299 C286 0.961 . S
H300 C286 0.961 . S
H301 C287 0.958 . S
H302 C287 0.961 . S
H303 C287 0.960 . S
C304 C305 1.391 . S
C304 C306 1.394 . S
C304 H320 0.931 . S
C305 C304 1.391 . S
C305 C309 1.376 1_455 S
C306 C304 1.394 . S
C306 C307 1.369 1_455 S
C306 C310 1.531 . S
C307 C306 1.369 1_655 S
C307 C308 1.410 . S
C307 C315 1.503 . S
C308 C307 1.410 . S
C308 C309 1.392 . S
C308 C311 1.511 . S
C309 C305 1.376 1_655 S
C309 C308 1.392 . S
C309 H321 0.929 . S
C310 C306 1.531 . S
C310 H322 0.960 . S
C310 H323 0.962 . S
C310 H324 0.960 . S
C311 C308 1.511 . S
C311 H325 0.961 . S
C311 H326 0.961 . S
C311 H327 0.961 . S
C312 C313 1.370 1_455 S
C312 C314 1.363 . S
C312 H328 0.931 . S
C313 C312 1.370 1_655 S
C313 C317 1.408 . S
C314 C312 1.363 . S
C314 C315 1.370 1_455 S
C314 C318 1.524 . S
C315 C307 1.503 . S
C315 C314 1.370 1_655 S
C315 C316 1.403 . S
C316 C315 1.403 . S
C316 C317 1.404 . S
C316 C319 1.539 . S
C317 C313 1.408 . S
C317 C316 1.404 . S
C317 H329 0.930 . S
C318 C314 1.524 . S
C318 H330 0.956 . S
C318 H331 0.961 . S
C318 H332 0.961 . S
C319 C316 1.539 . S
C319 H333 0.958 . S
C319 H334 0.961 . S
C319 H335 0.960 . S
H320 C304 0.931 . S
H321 C309 0.929 . S
H322 C310 0.960 . S
H323 C310 0.962 . S
H324 C310 0.960 . S
H325 C311 0.961 . S
H326 C311 0.961 . S
H327 C311 0.961 . S
H328 C312 0.931 . S
H329 C317 0.930 . S
H330 C318 0.956 . S
H331 C318 0.961 . S
H332 C318 0.961 . S
H333 C319 0.958 . S
H334 C319 0.961 . S
H335 C319 0.960 . S
C336 C337 1.391 . S
C336 C338 1.394 . S
C336 H352 0.931 . S
C337 C336 1.391 . S
C337 C341 1.376 1_455 S
C338 C336 1.394 . S
C338 C339 1.369 1_455 S
C338 C342 1.531 . S
C339 C338 1.369 1_655 S
C339 C340 1.410 . S
C339 C347 1.503 . S
C340 C339 1.410 . S
C340 C341 1.392 . S
C340 C343 1.511 . S
C341 C337 1.376 1_655 S
C341 C340 1.392 . S
C341 H353 0.929 . S
C342 C338 1.531 . S
C342 H354 0.960 1_455 S
C342 H355 0.962 . S
C342 H356 0.960 . S
C343 C340 1.511 . S
C343 H357 0.961 . S
C343 H358 0.961 . S
C343 H359 0.961 . S
C344 C345 1.370 1_455 S
C344 C346 1.363 . S
C344 H360 0.931 . S
C345 C344 1.370 1_655 S
C345 C349 1.408 . S
C346 C344 1.363 . S
C346 C347 1.370 1_455 S
C346 C350 1.524 . S
C347 C339 1.503 . S
C347 C346 1.370 1_655 S
C347 C348 1.403 . S
C348 C347 1.403 . S
C348 C349 1.404 . S
C348 C351 1.539 . S
C349 C345 1.408 . S
C349 C348 1.404 . S
C349 H361 0.930 . S
C350 C346 1.524 . S
C350 H362 0.956 . S
C350 H363 0.961 . S
C350 H364 0.961 . S
C351 C348 1.539 . S
C351 H365 0.958 . S
C351 H366 0.961 . S
C351 H367 0.960 . S
H352 C336 0.931 . S
H353 C341 0.929 . S
H354 C342 0.960 1_655 S
H355 C342 0.962 . S
H356 C342 0.960 . S
H357 C343 0.961 . S
H358 C343 0.961 . S
H359 C343 0.961 . S
H360 C344 0.931 . S
H361 C349 0.930 . S
H362 C350 0.956 . S
H363 C350 0.961 . S
H364 C350 0.961 . S
H365 C351 0.958 . S
H366 C351 0.961 . S
H367 C351 0.960 . S
C368 C369 1.391 . S
C368 C370 1.394 . S
C368 H384 0.931 . S
C369 C368 1.391 . S
C369 C373 1.376 . S
C370 C368 1.394 . S
C370 C371 1.369 . S
C370 C374 1.531 . S
C371 C370 1.369 . S
C371 C372 1.410 . S
C371 C379 1.503 . S
C372 C371 1.410 . S
C372 C373 1.392 . S
C372 C375 1.511 . S
C373 C369 1.376 . S
C373 C372 1.392 . S
C373 H385 0.929 . S
C374 C370 1.531 . S
C374 H386 0.960 . S
C374 H387 0.962 . S
C374 H388 0.960 . S
C375 C372 1.511 . S
C375 H389 0.961 . S
C375 H390 0.961 . S
C375 H391 0.961 . S
C376 C377 1.370 . S
C376 C378 1.363 . S
C376 H392 0.931 . S
C377 C376 1.370 . S
C377 C381 1.408 . S
C378 C376 1.363 . S
C378 C379 1.370 . S
C378 C382 1.524 . S
C379 C371 1.503 . S
C379 C378 1.370 . S
C379 C380 1.403 . S
C380 C379 1.403 . S
C380 C381 1.404 . S
C380 C383 1.539 . S
C381 C377 1.408 . S
C381 C380 1.404 . S
C381 H393 0.930 . S
C382 C378 1.524 . S
C382 H394 0.956 . S
C382 H395 0.961 . S
C382 H396 0.961 . S
C383 C380 1.539 . S
C383 H397 0.958 . S
C383 H398 0.961 . S
C383 H399 0.960 . S
H384 C368 0.931 . S
H385 C373 0.929 . S
H386 C374 0.960 . S
H387 C374 0.962 . S
H388 C374 0.960 . S
H389 C375 0.961 . S
H390 C375 0.961 . S
H391 C375 0.961 . S
H392 C376 0.931 . S
H393 C381 0.930 . S
H394 C382 0.956 . S
H395 C382 0.961 . S
H396 C382 0.961 . S
H397 C383 0.958 . S
H398 C383 0.961 . S
H399 C383 0.960 . S
C400 C401 1.391 . S
C400 C402 1.394 . S
C400 H416 0.931 . S
C401 C400 1.391 . S
C401 C405 1.376 . S
C402 C400 1.394 . S
C402 C403 1.369 . S
C402 C406 1.531 . S
C403 C402 1.369 . S
C403 C404 1.410 . S
C403 C411 1.503 . S
C404 C403 1.410 . S
C404 C405 1.392 . S
C404 C407 1.511 . S
C405 C401 1.376 . S
C405 C404 1.392 . S
C405 H417 0.929 . S
C406 C402 1.531 . S
C406 H418 0.960 . S
C406 H419 0.962 . S
C406 H420 0.960 . S
C407 C404 1.511 . S
C407 H421 0.961 . S
C407 H422 0.961 . S
C407 H423 0.961 . S
C408 C409 1.370 . S
C408 C410 1.363 . S
C408 H424 0.931 . S
C409 C408 1.370 . S
C409 C413 1.408 . S
C410 C408 1.363 . S
C410 C411 1.370 . S
C410 C414 1.524 . S
C411 C403 1.503 . S
C411 C410 1.370 . S
C411 C412 1.403 . S
C412 C411 1.403 . S
C412 C413 1.404 . S
C412 C415 1.539 . S
C413 C409 1.408 . S
C413 C412 1.404 . S
C413 H425 0.930 . S
C414 C410 1.524 . S
C414 H426 0.956 . S
C414 H427 0.961 . S
C414 H428 0.961 . S
C415 C412 1.539 . S
C415 H429 0.958 . S
C415 H430 0.961 . S
C415 H431 0.960 . S
H416 C400 0.931 . S
H417 C405 0.929 . S
H418 C406 0.960 . S
H419 C406 0.962 . S
H420 C406 0.960 . S
H421 C407 0.961 . S
H422 C407 0.961 . S
H423 C407 0.961 . S
H424 C408 0.931 . S
H425 C413 0.930 . S
H426 C414 0.956 . S
H427 C414 0.961 . S
H428 C414 0.961 . S
H429 C415 0.958 . S
H430 C415 0.961 . S
H431 C415 0.960 . S
C432 C433 1.391 . S
C432 C434 1.394 . S
C432 H448 0.931 . S
C433 C432 1.391 . S
C433 C437 1.376 . S
C434 C432 1.394 . S
C434 C435 1.369 . S
C434 C438 1.531 . S
C435 C434 1.369 . S
C435 C436 1.410 . S
C435 C443 1.503 . S
C436 C435 1.410 . S
C436 C437 1.392 . S
C436 C439 1.511 . S
C437 C433 1.376 . S
C437 C436 1.392 . S
C437 H449 0.929 . S
C438 C434 1.531 . S
C438 H450 0.960 . S
C438 H451 0.962 . S
C438 H452 0.960 . S
C439 C436 1.511 . S
C439 H453 0.961 . S
C439 H454 0.961 . S
C439 H455 0.961 . S
C440 C441 1.370 . S
C440 C442 1.363 . S
C440 H456 0.931 . S
C441 C440 1.370 . S
C441 C445 1.408 . S
C442 C440 1.363 . S
C442 C443 1.370 . S
C442 C446 1.524 . S
C443 C435 1.503 . S
C443 C442 1.370 . S
C443 C444 1.403 . S
C444 C443 1.403 . S
C444 C445 1.404 . S
C444 C447 1.539 . S
C445 C441 1.408 . S
C445 C444 1.404 . S
C445 H457 0.930 . S
C446 C442 1.524 . S
C446 H458 0.956 . S
C446 H459 0.961 . S
C446 H460 0.961 . S
C447 C444 1.539 . S
C447 H461 0.958 . S
C447 H462 0.961 . S
C447 H463 0.960 . S
H448 C432 0.931 . S
H449 C437 0.929 . S
H450 C438 0.960 . S
H451 C438 0.962 . S
H452 C438 0.960 . S
H453 C439 0.961 . S
H454 C439 0.961 . S
H455 C439 0.961 . S
H456 C440 0.931 . S
H457 C445 0.930 . S
H458 C446 0.956 . S
H459 C446 0.961 . S
H460 C446 0.961 . S
H461 C447 0.958 . S
H462 C447 0.961 . S
H463 C447 0.960 . S
C464 C465 1.391 . S
C464 C466 1.394 . S
C464 H480 0.931 . S
C465 C464 1.391 . S
C465 C469 1.376 . S
C466 C464 1.394 . S
C466 C467 1.369 . S
C466 C470 1.531 . S
C467 C466 1.369 . S
C467 C468 1.410 . S
C467 C475 1.503 . S
C468 C467 1.410 . S
C468 C469 1.392 . S
C468 C471 1.511 . S
C469 C465 1.376 . S
C469 C468 1.392 . S
C469 H481 0.929 . S
C470 C466 1.531 . S
C470 H482 0.960 . S
C470 H483 0.962 . S
C470 H484 0.960 . S
C471 C468 1.511 . S
C471 H485 0.961 . S
C471 H486 0.961 . S
C471 H487 0.961 . S
C472 C473 1.370 . S
C472 C474 1.363 . S
C472 H488 0.931 . S
C473 C472 1.370 . S
C473 C477 1.408 . S
C474 C472 1.363 . S
C474 C475 1.370 . S
C474 C478 1.524 . S
C475 C467 1.503 . S
C475 C474 1.370 . S
C475 C476 1.403 . S
C476 C475 1.403 . S
C476 C477 1.404 . S
C476 C479 1.539 . S
C477 C473 1.408 . S
C477 C476 1.404 . S
C477 H489 0.930 . S
C478 C474 1.524 . S
C478 H490 0.956 . S
C478 H491 0.961 . S
C478 H492 0.961 . S
C479 C476 1.539 . S
C479 H493 0.958 . S
C479 H494 0.961 . S
C479 H495 0.960 . S
H480 C464 0.931 . S
H481 C469 0.929 . S
H482 C470 0.960 . S
H483 C470 0.962 . S
H484 C470 0.960 . S
H485 C471 0.961 . S
H486 C471 0.961 . S
H487 C471 0.961 . S
H488 C472 0.931 . S
H489 C477 0.930 . S
H490 C478 0.956 . S
H491 C478 0.961 . S
H492 C478 0.961 . S
H493 C479 0.958 . S
H494 C479 0.961 . S
H495 C479 0.960 . S
C496 C497 1.391 . S
C496 C498 1.394 . S
C496 H512 0.931 . S
C497 C496 1.391 . S
C497 C501 1.376 1_554 S
C498 C496 1.394 . S
C498 C499 1.369 . S
C498 C502 1.531 . S
C499 C498 1.369 . S
C499 C500 1.410 1_554 S
C499 C507 1.503 . S
C500 C499 1.410 1_556 S
C500 C501 1.392 . S
C500 C503 1.511 . S
C501 C497 1.376 1_556 S
C501 C500 1.392 . S
C501 H513 0.929 . S
C502 C498 1.531 . S
C502 H514 0.960 . S
C502 H515 0.962 . S
C502 H516 0.960 . S
C503 C500 1.511 . S
C503 H517 0.961 . S
C503 H518 0.961 . S
C503 H519 0.961 . S
C504 C505 1.370 1_556 S
C504 C506 1.363 . S
C504 H520 0.931 . S
C505 C504 1.370 1_554 S
C505 C509 1.408 . S
C506 C504 1.363 . S
C506 C507 1.370 1_556 S
C506 C510 1.524 . S
C507 C499 1.503 . S
C507 C506 1.370 1_554 S
C507 C508 1.403 . S
C508 C507 1.403 . S
C508 C509 1.404 . S
C508 C511 1.539 . S
C509 C505 1.408 . S
C509 C508 1.404 . S
C509 H521 0.930 . S
C510 C506 1.524 . S
C510 H522 0.956 . S
C510 H523 0.961 . S
C510 H524 0.961 . S
C511 C508 1.539 . S
C511 H525 0.958 . S
C511 H526 0.961 . S
C511 H527 0.960 . S
H512 C496 0.931 . S
H513 C501 0.929 . S
H514 C502 0.960 . S
H515 C502 0.962 . S
H516 C502 0.960 . S
H517 C503 0.961 . S
H518 C503 0.961 . S
H519 C503 0.961 . S
H520 C504 0.931 . S
H521 C509 0.930 . S
H522 C510 0.956 . S
H523 C510 0.961 . S
H524 C510 0.961 . S
H525 C511 0.958 . S
H526 C511 0.961 . S
H527 C511 0.960 . S
C528 C529 1.391 1_556 S
C528 C530 1.394 . S
C528 H544 0.931 . S
C529 C528 1.391 1_554 S
C529 C533 1.376 . S
C530 C528 1.394 . S
C530 C531 1.369 1_556 S
C530 C534 1.531 . S
C531 C530 1.369 1_554 S
C531 C532 1.410 . S
C531 C539 1.503 . S
C532 C531 1.410 . S
C532 C533 1.392 . S
C532 C535 1.511 . S
C533 C529 1.376 . S
C533 C532 1.392 . S
C533 H545 0.929 . S
C534 C530 1.531 . S
C534 H546 0.960 . S
C534 H547 0.962 . S
C534 H548 0.960 . S
C535 C532 1.511 . S
C535 H549 0.961 . S
C535 H550 0.961 . S
C535 H551 0.961 . S
C536 C537 1.370 . S
C536 C538 1.363 . S
C536 H552 0.931 1_554 S
C537 C536 1.370 . S
C537 C541 1.408 . S
C538 C536 1.363 . S
C538 C539 1.370 . S
C538 C542 1.522 1_554 S
C539 C531 1.503 . S
C539 C538 1.370 . S
C539 C540 1.403 . S
C540 C539 1.403 . S
C540 C541 1.404 . S
C540 C543 1.539 . S
C541 C537 1.408 . S
C541 C540 1.404 . S
C541 H553 0.930 . S
C542 C538 1.522 1_556 S
C542 H554 0.978 . S
C542 H555 0.942 1_556 S
C542 H556 0.961 . S
C543 C540 1.539 . S
C543 H557 0.958 1_554 S
C543 H558 0.961 . S
C543 H559 0.960 . S
H544 C528 0.931 . S
H545 C533 0.929 . S
H546 C534 0.960 . S
H547 C534 0.962 . S
H548 C534 0.960 . S
H549 C535 0.961 . S
H550 C535 0.961 . S
H551 C535 0.961 . S
H552 C536 0.931 1_556 S
H553 C541 0.930 . S
H554 C542 0.978 . S
H555 C542 0.942 1_554 S
H556 C542 0.961 . S
H557 C543 0.958 1_556 S
H558 C543 0.961 . S
H559 C543 0.960 . S
C560 C561 1.391 . S
C560 C562 1.394 . S
C560 H576 0.931 . S
C561 C560 1.391 . S
C561 C565 1.376 . S
C562 C560 1.394 . S
C562 C563 1.369 . S
C562 C566 1.531 . S
C563 C562 1.369 . S
C563 C564 1.410 . S
C563 C571 1.503 . S
C564 C563 1.410 . S
C564 C565 1.392 . S
C564 C567 1.511 . S
C565 C561 1.376 . S
C565 C564 1.392 . S
C565 H577 0.929 . S
C566 C562 1.531 . S
C566 H578 0.960 . S
C566 H579 0.962 . S
C566 H580 0.960 . S
C567 C564 1.511 . S
C567 H581 0.961 . S
C567 H582 0.961 . S
C567 H583 0.961 . S
C568 C569 1.370 . S
C568 C570 1.363 . S
C568 H584 0.931 . S
C569 C568 1.370 . S
C569 C573 1.408 . S
C570 C568 1.363 . S
C570 C571 1.370 . S
C570 C574 1.524 . S
C571 C563 1.503 . S
C571 C570 1.370 . S
C571 C572 1.403 . S
C572 C571 1.403 . S
C572 C573 1.404 . S
C572 C575 1.539 . S
C573 C569 1.408 . S
C573 C572 1.404 . S
C573 H585 0.930 . S
C574 C570 1.524 . S
C574 H586 0.956 . S
C574 H587 0.961 . S
C574 H588 0.961 . S
C575 C572 1.539 . S
C575 H589 0.958 . S
C575 H590 0.961 . S
C575 H591 0.960 . S
H576 C560 0.931 . S
H577 C565 0.929 . S
H578 C566 0.960 . S
H579 C566 0.962 . S
H580 C566 0.960 . S
H581 C567 0.961 . S
H582 C567 0.961 . S
H583 C567 0.961 . S
H584 C568 0.931 . S
H585 C573 0.930 . S
H586 C574 0.956 . S
H587 C574 0.961 . S
H588 C574 0.961 . S
H589 C575 0.958 . S
H590 C575 0.961 . S
H591 C575 0.960 . S
C592 C593 1.391 . S
C592 C594 1.394 . S
C592 H608 0.931 . S
C593 C592 1.391 . S
C593 C597 1.376 . S
C594 C592 1.394 . S
C594 C595 1.369 . S
C594 C598 1.531 . S
C595 C594 1.369 . S
C595 C596 1.410 . S
C595 C603 1.503 . S
C596 C595 1.410 . S
C596 C597 1.392 . S
C596 C599 1.511 . S
C597 C593 1.376 . S
C597 C596 1.392 . S
C597 H609 0.929 . S
C598 C594 1.531 . S
C598 H610 0.960 . S
C598 H611 0.962 . S
C598 H612 0.960 . S
C599 C596 1.511 . S
C599 H613 0.961 . S
C599 H614 0.961 . S
C599 H615 0.961 . S
C600 C601 1.370 . S
C600 C602 1.363 . S
C600 H616 0.931 . S
C601 C600 1.370 . S
C601 C605 1.408 . S
C602 C600 1.363 . S
C602 C603 1.370 . S
C602 C606 1.524 . S
C603 C595 1.503 . S
C603 C602 1.370 . S
C603 C604 1.403 . S
C604 C603 1.403 . S
C604 C605 1.404 . S
C604 C607 1.539 . S
C605 C601 1.408 . S
C605 C604 1.404 . S
C605 H617 0.930 . S
C606 C602 1.524 . S
C606 H618 0.956 . S
C606 H619 0.961 . S
C606 H620 0.961 . S
C607 C604 1.539 . S
C607 H621 0.958 . S
C607 H622 0.961 . S
C607 H623 0.960 . S
H608 C592 0.931 . S
H609 C597 0.929 . S
H610 C598 0.960 . S
H611 C598 0.962 . S
H612 C598 0.960 . S
H613 C599 0.961 . S
H614 C599 0.961 . S
H615 C599 0.961 . S
H616 C600 0.931 . S
H617 C605 0.930 . S
H618 C606 0.956 . S
H619 C606 0.961 . S
H620 C606 0.961 . S
H621 C607 0.958 . S
H622 C607 0.961 . S
H623 C607 0.960 . S
C113 C23 1.491 . S
C121 C9 1.475 . S
C145 C37 1.492 . S
C153 C51 1.475 . S
C177 C65 1.499 . S
C185 C79 1.476 . S
C209 C93 1.465 . S
C217 C107 1.490 . S
C241 C7 1.285 . S
C249 C49 1.280 . S
C273 C35 1.258 . S
C281 C21 1.263 . S
C305 C31 1.254 . S
C313 C17 1.246 . S
C337 C3 1.278 . S
C345 C45 1.246 . S
C369 C63 1.288 . S
C377 C105 1.281 . S
C401 C91 1.270 . S
C409 C77 1.275 . S
C433 C73 1.263 . S
C441 C87 1.245 . S
C465 C59 1.262 . S
C473 C101 1.271 . S
C497 C78 1.502 . S
C505 C8 1.510 . S
C529 C64 1.510 . S
C537 C22 1.504 . S
C561 C36 1.503 . S
C569 C106 1.510 . S
C593 C92 1.511 . S
C601 C50 1.507 . S
