# Generated by pormake.
# Topology umf, (4)-cn, num edge types: 1
# Building blocks:
#     Node 0, Type 0, BuildingBlock: QUQFOY_clean_sbu_1, # of connection points: 4
#     Node 1, Type 0, BuildingBlock: QUQFOY_clean_sbu_1, # of connection points: 4
#     Node 2, Type 0, BuildingBlock: QUQFOY_clean_sbu_1, # of connection points: 4
#     Node 3, Type 0, BuildingBlock: QUQFOY_clean_sbu_1, # of connection points: 4
#     Node 4, Type 0, BuildingBlock: QUQFOY_clean_sbu_1, # of connection points: 4
#     Node 5, Type 0, BuildingBlock: QUQFOY_clean_sbu_1, # of connection points: 4
#     Node 6, Type 0, BuildingBlock: QUQFOY_clean_sbu_1, # of connection points: 4
#     Node 7, Type 0, BuildingBlock: QUQFOY_clean_sbu_1, # of connection points: 4
#     Edge 8, Type (0, 0), BuildingBlock: KIFKEQ_clean_linker_1, # of connection points: 2
#     Edge 9, Type (0, 0), BuildingBlock: KIFKEQ_clean_linker_1, # of connection points: 2
#     Edge 10, Type (0, 0), BuildingBlock: KIFKEQ_clean_linker_1, # of connection points: 2
#     Edge 11, Type (0, 0), BuildingBlock: KIFKEQ_clean_linker_1, # of connection points: 2
#     Edge 12, Type (0, 0), BuildingBlock: KIFKEQ_clean_linker_1, # of connection points: 2
#     Edge 13, Type (0, 0), BuildingBlock: KIFKEQ_clean_linker_1, # of connection points: 2
#     Edge 14, Type (0, 0), BuildingBlock: KIFKEQ_clean_linker_1, # of connection points: 2
#     Edge 15, Type (0, 0), BuildingBlock: KIFKEQ_clean_linker_1, # of connection points: 2
#     Edge 16, Type (0, 0), BuildingBlock: KIFKEQ_clean_linker_1, # of connection points: 2
#     Edge 17, Type (0, 0), BuildingBlock: KIFKEQ_clean_linker_1, # of connection points: 2
#     Edge 18, Type (0, 0), BuildingBlock: KIFKEQ_clean_linker_1, # of connection points: 2
#     Edge 19, Type (0, 0), BuildingBlock: KIFKEQ_clean_linker_1, # of connection points: 2
#     Edge 20, Type (0, 0), BuildingBlock: KIFKEQ_clean_linker_1, # of connection points: 2
#     Edge 21, Type (0, 0), BuildingBlock: KIFKEQ_clean_linker_1, # of connection points: 2
#     Edge 22, Type (0, 0), BuildingBlock: KIFKEQ_clean_linker_1, # of connection points: 2
#     Edge 23, Type (0, 0), BuildingBlock: KIFKEQ_clean_linker_1, # of connection points: 2
# Relax obj value: 0.061
# Max RMSD: 0.221
# Mean RMSD: 0.221
data_MOF--net-umf--node1-QUQFOY_clean_sbu_1--edge1-KIFKEQ_clean_linker_1
_symmetry_space_group_name_H-M    P1
_symmetry_Int_Tables_number       1
_symmetry_cell_setting            triclinic
loop_
_symmetry_equiv_pos_as_xyz
'x, y, z'
_cell_length_a     29.80644
_cell_length_b     29.770436
_cell_length_c     53.375454
_cell_angle_alpha  90.037846
_cell_angle_beta   89.879821
_cell_angle_gamma 89.924178
loop_
_atom_site_label
_atom_site_type_symbol
_atom_site_fract_x
_atom_site_fract_y
_atom_site_fract_z
_atom_type_partial_charge
O0 O 0.01624 0.26511 0.14349 0.0
Cd1 Cd 0.01744 0.26273 0.18199 0.0
Cd2 Cd 0.10256 0.23349 0.17163 0.0
O3 O 0.08912 0.26047 0.13601 0.0
O4 O 0.97294 0.30956 0.19449 0.0
O5 O 0.0463 0.31635 0.19787 0.0
C6 C 0.00713 0.33379 0.20071 0.0
C7 C 0.15305 0.25121 0.20375 0.0
C8 C 0.04903 0.26672 0.12822 0.0
C9 C 0.0383 0.16551 0.1915 0.0
O10 O 0.07316 0.1729 0.17839 0.0
O11 O 0.01266 0.19806 0.19796 0.0
O12 O 0.1668 0.22942 0.18418 0.0
O13 O 0.11269 0.26658 0.20344 0.0
O14 O 0.83018 0.06455 0.68404 0.0
Cd15 Cd 0.76928 0.0923 0.67522 0.0
Cd16 Cd 0.74351 0.00526 0.68369 0.0
O17 O 0.80626 1.00116 0.70113 0.0
O18 O 0.77316 0.1576 0.68621 0.0
O19 O 0.73414 0.10583 0.70615 0.0
C20 C 0.75018 0.14592 0.70574 0.0
C21 C 0.67122 0.99811 0.70092 0.0
C22 C 0.83783 0.02891 0.69643 0.0
C23 C 0.74264 0.03748 0.63045 0.0
O24 O 0.74555 0.0043 0.64535 0.0
O25 O 0.74487 0.0777 0.6389 0.0
O26 O 0.69457 0.96272 0.69554 0.0
O27 O 0.69002 0.03657 0.69784 0.0
O28 O 0.98593 0.73819 0.1437 0.0
Cd29 Cd 0.9844 0.74063 0.18219 0.0
Cd30 Cd 0.89944 0.76967 0.17196 0.0
O31 O 0.91306 0.74263 0.13633 0.0
O32 O 0.02861 0.6937 0.19471 0.0
O33 O 0.95518 0.68716 0.19803 0.0
C34 C 0.99427 0.66958 0.20088 0.0
C35 C 0.84821 0.75233 0.2039 0.0
C36 C 0.95319 0.73645 0.12847 0.0
C37 C 0.96356 0.8378 0.19175 0.0
O38 O 0.92874 0.83034 0.1787 0.0
O39 O 0.98921 0.8053 0.19818 0.0
O40 O 0.83498 0.77402 0.18424 0.0
O41 O 0.88853 0.73682 0.2038 0.0
O42 O 0.17318 0.93806 0.68457 0.0
Cd43 Cd 0.23193 0.90749 0.67438 0.0
Cd44 Cd 0.26353 0.99324 0.68311 0.0
O45 O 0.20041 0.00154 0.69998 0.0
O46 O 0.22585 0.8426 0.68552 0.0
O47 O 0.26888 0.89255 0.70428 0.0
C48 C 0.25081 0.8533 0.7044 0.0
C49 C 0.3353 0.99987 0.70095 0.0
C50 C 0.16757 0.97482 0.69627 0.0
C51 C 0.26197 0.96058 0.6295 0.0
O52 O 0.26378 0.99348 0.64467 0.0
O53 O 0.25427 0.92086 0.63761 0.0
O54 O 0.3129 0.03532 0.69464 0.0
O55 O 0.31568 0.96164 0.69866 0.0
O56 O 0.00758 0.74254 0.92915 0.0
Cd57 Cd 0.01391 0.74179 0.89092 0.0
Cd58 Cd 0.09744 0.77027 0.90213 0.0
O59 O 0.08039 0.74209 0.93718 0.0
O60 O 0.97363 0.69361 0.87592 0.0
O61 O 0.04692 0.68678 0.88001 0.0
C62 C 0.00926 0.66902 0.87381 0.0
C63 C 0.14858 0.75294 0.86999 0.0
C64 C 0.03968 0.7386 0.94468 0.0
C65 C 0.03713 0.83812 0.88061 0.0
O66 O 0.0695 0.8314 0.89559 0.0
O67 O 0.01301 0.80518 0.87321 0.0
O68 O 0.1624 0.77255 0.89021 0.0
O69 O 0.10757 0.73962 0.8695 0.0
O70 O 0.16856 0.06562 0.39028 0.0
Cd71 Cd 0.22785 0.09516 0.40025 0.0
Cd72 Cd 0.25815 0.00866 0.39097 0.0
O73 O 0.19472 0.00192 0.3744 0.0
O74 O 0.223 0.16027 0.38917 0.0
O75 O 0.26488 0.10937 0.37022 0.0
C76 C 0.24772 0.14905 0.37021 0.0
C77 C 0.3297 1.00109 0.37278 0.0
C78 C 0.1623 0.02914 0.37842 0.0
C79 C 0.25806 0.04092 0.44468 0.0
O80 O 0.25889 0.00813 0.4294 0.0
O81 O 0.25085 0.08086 0.43675 0.0
O82 O 0.30693 0.96591 0.37909 0.0
O83 O 0.31053 0.03957 0.37525 0.0
O84 O 0.99457 0.25987 0.929 0.0
Cd85 Cd 0.98817 0.26048 0.89077 0.0
Cd86 Cd 0.90471 0.23202 0.90225 0.0
O87 O 0.92179 0.26022 0.93727 0.0
O88 O 0.02833 0.3087 0.87568 0.0
O89 O 0.95501 0.31533 0.87989 0.0
C90 C 0.99263 0.33317 0.87363 0.0
C91 C 0.85307 0.24902 0.87045 0.0
C92 C 0.96252 0.26379 0.94464 0.0
C93 C 0.9651 0.16415 0.88053 0.0
O94 O 0.93272 0.17092 0.89557 0.0
O95 O 0.98922 0.19707 0.87307 0.0
O96 O 0.83964 0.22932 0.89075 0.0
O97 O 0.89397 0.26267 0.86971 0.0
O98 O 0.8258 0.93909 0.38995 0.0
Cd99 Cd 0.76573 0.91031 0.39944 0.0
Cd100 Cd 0.73784 0.99687 0.39085 0.0
O101 O 0.80053 0.00238 0.37331 0.0
O102 O 0.77095 0.845 0.38864 0.0
O103 O 0.73003 0.89562 0.36898 0.0
C104 C 0.74715 0.85593 0.36933 0.0
C105 C 0.66554 0.00309 0.37363 0.0
C106 C 0.83263 0.97503 0.37769 0.0
C107 C 0.73852 0.96494 0.44427 0.0
O108 O 0.73982 0.998 0.42921 0.0
O109 O 0.74208 0.92471 0.43596 0.0
O110 O 0.68828 0.03875 0.37909 0.0
O111 O 0.68494 0.96487 0.37663 0.0
H112 H 0.93385 0.38886 0.1959 0.0
H113 H 0.07119 0.38761 0.2214 0.0
H114 H 0.93173 0.47028 0.20064 0.0
H115 H 0.06875 0.46878 0.22698 0.0
H116 H 0.06758 0.61446 0.19627 0.0
H117 H 0.06958 0.53304 0.20093 0.0
H118 H 0.93203 0.53457 0.22674 0.0
H119 H 0.92974 0.61575 0.22123 0.0
C120 C 0.9632 0.40582 0.20318 0.0
C121 C 0.00274 0.38172 0.20809 0.0
C122 C 0.96203 0.45265 0.20596 0.0
C123 C 1.00029 0.47651 0.21394 0.0
C124 C 0.03897 0.45189 0.22025 0.0
C125 C 0.04023 0.40518 0.21726 0.0
C126 C 0.03808 0.59751 0.20341 0.0
C127 C 0.99845 0.62163 0.2082 0.0
C128 C 0.03917 0.55067 0.20615 0.0
C129 C 0.00074 0.52682 0.21396 0.0
C130 C 0.96195 0.55146 0.22014 0.0
C131 C 0.96077 0.59817 0.2172 0.0
H132 H 0.39348 0.07049 0.69586 0.0
H133 H 0.3865 0.93288 0.72102 0.0
H134 H 0.4748 0.06886 0.70029 0.0
H135 H 0.46764 0.93157 0.72629 0.0
H136 H 0.61348 0.92707 0.6958 0.0
H137 H 0.53203 0.92835 0.70027 0.0
H138 H 0.53854 0.0656 0.72648 0.0
H139 H 0.61967 0.06464 0.72113 0.0
C140 C 0.40919 0.04026 0.70297 0.0
C141 C 0.38347 0.00178 0.70793 0.0
C142 C 0.45596 0.03927 0.70559 0.0
C143 C 0.47817 0.99987 0.71343 0.0
C144 C 0.45201 0.96219 0.71968 0.0
C145 C 0.40533 0.96308 0.71688 0.0
C146 C 0.59756 0.95719 0.70296 0.0
C147 C 0.62305 0.99581 0.70792 0.0
C148 C 0.55074 0.95798 0.70559 0.0
C149 C 0.52833 0.99732 0.71347 0.0
C150 C 0.55431 0.03506 0.7198 0.0
C151 C 0.60098 0.03437 0.71695 0.0
H152 H 0.06393 0.38162 0.85497 0.0
H153 H 0.92516 0.39432 0.87726 0.0
H154 H 0.06766 0.46275 0.8485 0.0
H155 H 0.92938 0.4749 0.87238 0.0
H156 H 0.93784 0.62065 0.85535 0.0
H157 H 0.93403 0.53952 0.8488 0.0
H158 H 0.07238 0.52724 0.87221 0.0
H159 H 0.07666 0.6078 0.87717 0.0
C160 C 0.03418 0.40168 0.85834 0.0
C161 C 0.9944 0.38146 0.86677 0.0
C162 C 0.03633 0.44835 0.85487 0.0
C163 C 0.99898 0.476 0.86021 0.0
C164 C 0.95874 0.45521 0.86765 0.0
C165 C 0.95642 0.40868 0.87068 0.0
C166 C 0.96758 0.60056 0.85861 0.0
C167 C 0.00741 0.62073 0.86693 0.0
C168 C 0.96539 0.5539 0.85508 0.0
C169 C 0.00275 0.52621 0.86025 0.0
C170 C 0.04301 0.54696 0.8676 0.0
C171 C 0.04538 0.59348 0.87068 0.0
H172 H 0.3877 0.93034 0.3785 0.0
H173 H 0.38102 0.06711 0.35193 0.0
H174 H 0.46912 0.93169 0.37426 0.0
H175 H 0.46224 0.06811 0.34684 0.0
H176 H 0.61466 0.93559 0.35407 0.0
H177 H 0.53363 0.93419 0.34844 0.0
H178 H 0.52584 0.07225 0.37321 0.0
H179 H 0.60715 0.07396 0.37797 0.0
C180 C 0.40351 0.96028 0.37109 0.0
C181 C 0.37786 0.99867 0.36572 0.0
C182 C 0.45033 0.96111 0.3686 0.0
C183 C 0.47263 1.00026 0.36046 0.0
C184 C 0.44653 0.03773 0.35371 0.0
C185 C 0.39982 0.03701 0.3564 0.0
C186 C 0.59572 0.96593 0.35788 0.0
C187 C 0.6174 0.00487 0.36658 0.0
C188 C 0.5491 0.96499 0.35486 0.0
C189 C 0.52279 0.00286 0.36067 0.0
C190 C 0.54481 0.0425 0.36826 0.0
C191 C 0.59156 0.04353 0.37108 0.0
H192 H 0.04291 0.28964 0.96422 0.0
H193 H 0.9085 0.25236 0.98613 0.0
H194 H 0.06459 0.29492 1.00796 0.0
H195 H 0.93059 0.2562 1.03014 0.0
H196 H 0.97208 0.29974 0.10773 0.0
H197 H 0.95114 0.30334 0.06382 0.0
H198 H 0.08082 0.24965 0.04316 0.0
H199 H 0.10229 0.24746 0.08731 0.0
C200 C 0.01785 0.28257 0.9784 0.0
C201 C 0.97387 0.27045 0.97157 0.0
C202 C 0.03048 0.28526 1.00359 0.0
C203 C 0.99964 0.2756 1.0228 0.0
C204 C 0.95528 0.26445 1.01597 0.0
C205 C 0.94252 0.2621 0.99069 0.0
C206 C 0.9964 0.28909 0.09383 0.0
C207 C 0.03893 0.27318 0.10113 0.0
C208 C 0.98415 0.29079 0.06856 0.0
C209 C 0.01391 0.27629 0.04974 0.0
C210 C 0.05703 0.26158 0.057 0.0
C211 C 0.06944 0.26023 0.08237 0.0
H212 H 0.76116 0.95867 0.60681 0.0
H213 H 0.71562 0.09381 0.59212 0.0
H214 H 0.75754 0.94123 0.56262 0.0
H215 H 0.70961 0.07568 0.54755 0.0
H216 H 0.75233 0.04531 0.46729 0.0
H217 H 0.75091 0.06282 0.51152 0.0
H218 H 0.71391 0.92554 0.52795 0.0
H219 H 0.71774 0.90748 0.4833 0.0
C220 C 0.74969 0.98465 0.59414 0.0
C221 C 0.73872 0.02779 0.60314 0.0
C222 C 0.74722 0.97441 0.56862 0.0
C223 C 0.73305 0.00676 0.55116 0.0
C224 C 0.72143 0.0499 0.56022 0.0
C225 C 0.7246 0.06038 0.58585 0.0
C226 C 0.74369 0.01871 0.48026 0.0
C227 C 0.73524 0.97482 0.47161 0.0
C228 C 0.7425 0.02897 0.50582 0.0
C229 C 0.73219 0.99584 0.52367 0.0
C230 C 0.72283 0.95198 0.51496 0.0
C231 C 0.72472 0.94152 0.48929 0.0
H232 H 0.89993 0.75531 0.08765 0.0
H233 H 0.03032 0.70365 0.10787 0.0
H234 H 0.92143 0.75291 0.04346 0.0
H235 H 0.0513 0.69983 0.06391 0.0
H236 H 0.09374 0.75035 0.98602 0.0
H237 H 0.07171 0.74671 1.03008 0.0
H238 H 0.93779 0.70747 1.00831 0.0
H239 H 0.95941 0.71257 0.9645 0.0
C240 C 0.93283 0.74263 0.08266 0.0
C241 C 0.96338 0.72992 0.10137 0.0
C242 C 0.94527 0.74116 0.05726 0.0
C243 C 0.98844 0.72655 0.04993 0.0
C244 C 0.01824 0.7123 0.0687 0.0
C245 C 0.00597 0.71412 0.094 0.0
C246 C 0.05975 0.74054 0.99067 0.0
C247 C 0.0284 0.73201 0.97165 0.0
C248 C 0.04702 0.73831 1.016 0.0
C249 C 0.00269 0.72708 1.02296 0.0
C250 C 0.97187 0.71721 1.00384 0.0
C251 C 0.98446 0.71979 0.97861 0.0
H252 H 0.24172 0.09596 0.48538 0.0
H253 H 0.28622 0.96235 0.46572 0.0
H254 H 0.2446 0.07559 0.52975 0.0
H255 H 0.29007 0.94244 0.50974 0.0
H256 H 0.24199 0.90596 0.58921 0.0
H257 H 0.24286 0.92622 0.5448 0.0
H258 H 0.29353 0.05779 0.56375 0.0
H259 H 0.29168 0.03802 0.60785 0.0
C260 C 0.2527 0.06251 0.49049 0.0
C261 C 0.26353 0.03088 0.47187 0.0
C262 C 0.25445 0.05075 0.51596 0.0
C263 C 0.26726 0.00711 0.52347 0.0
C264 C 0.27914 0.97598 0.5048 0.0
C265 C 0.27725 0.98764 0.47945 0.0
C266 C 0.25373 0.93901 0.58385 0.0
C267 C 0.26657 0.97029 0.60221 0.0
C268 C 0.2543 0.95071 0.55835 0.0
C269 C 0.26793 0.99392 0.55056 0.0
C270 C 0.28191 0.02462 0.56894 0.0
C271 C 0.28118 0.01303 0.59433 0.0
H272 H 0.23965 0.22235 0.21237 0.0
H273 H 0.12465 0.28103 0.24928 0.0
H274 H 0.27486 0.21003 0.25303 0.0
H275 H 0.15771 0.26601 0.28958 0.0
H276 H 0.21654 0.23521 0.36263 0.0
H277 H 0.20561 0.27251 0.32241 0.0
H278 H 0.2687 0.15991 0.28496 0.0
H279 H 0.28232 0.1249 0.32495 0.0
C280 C 0.22216 0.23321 0.22913 0.0
C281 C 0.17909 0.25219 0.2275 0.0
C282 C 0.24206 0.22562 0.25258 0.0
C283 C 0.21895 0.23585 0.27501 0.0
C284 C 0.17722 0.25783 0.27309 0.0
C285 C 0.15787 0.26623 0.24973 0.0
C286 C 0.22928 0.21923 0.34582 0.0
C287 C 0.2498 0.1768 0.34707 0.0
C288 C 0.22248 0.24031 0.3226 0.0
C289 C 0.23505 0.21897 0.29999 0.0
C290 C 0.25864 0.17805 0.30162 0.0
C291 C 0.26628 0.15757 0.32478 0.0
H292 H 0.76602 0.22016 0.86336 0.0
H293 H 0.87892 0.27826 0.82439 0.0
H294 H 0.72864 0.20749 0.82332 0.0
H295 H 0.84367 0.26302 0.78471 0.0
H296 H 0.78083 0.23235 0.71278 0.0
H297 H 0.79362 0.26981 0.7528 0.0
H298 H 0.73355 0.15697 0.7913 0.0
H299 H 0.71813 0.12171 0.75155 0.0
C300 C 0.78258 0.23085 0.8463 0.0
C301 C 0.82572 0.24972 0.84716 0.0
C302 C 0.76142 0.22306 0.8232 0.0
C303 C 0.78329 0.23312 0.80037 0.0
C304 C 0.82509 0.25499 0.80154 0.0
C305 C 0.84572 0.2635 0.82454 0.0
C306 C 0.76914 0.21634 0.7298 0.0
C307 C 0.74899 0.17375 0.7289 0.0
C308 C 0.77701 0.23751 0.75289 0.0
C309 C 0.76587 0.21614 0.7757 0.0
C310 C 0.74255 0.17509 0.77447 0.0
C311 C 0.73388 0.15449 0.75145 0.0
H312 H 0.7138 0.87909 0.32372 0.0
H313 H 0.77957 0.77004 0.36229 0.0
H314 H 0.7292 0.84375 0.28396 0.0
H315 H 0.79236 0.73239 0.32229 0.0
H316 H 0.87572 0.72382 0.24978 0.0
H317 H 0.8413 0.73912 0.28979 0.0
H318 H 0.72457 0.79306 0.25219 0.0
H319 H 0.76111 0.78046 0.21183 0.0
C320 C 0.73023 0.84661 0.32379 0.0
C321 C 0.74615 0.82785 0.34627 0.0
C322 C 0.7389 0.82594 0.30076 0.0
C323 C 0.76303 0.78529 0.29946 0.0
C324 C 0.77509 0.76439 0.32224 0.0
C325 C 0.76722 0.78566 0.34533 0.0
C326 C 0.84232 0.73822 0.24994 0.0
C327 C 0.82156 0.75159 0.2275 0.0
C328 C 0.82218 0.74679 0.27313 0.0
C329 C 0.78013 0.76827 0.27467 0.0
C330 C 0.75757 0.77787 0.25203 0.0
C331 C 0.77825 0.77011 0.22875 0.0
H332 H 0.28407 0.87745 0.7499 0.0
H333 H 0.21893 0.76749 0.71188 0.0
H334 H 0.26867 0.84289 0.78986 0.0
H335 H 0.20621 0.73063 0.75207 0.0
H336 H 0.12187 0.7238 0.82411 0.0
H337 H 0.15681 0.73835 0.78422 0.0
H338 H 0.27292 0.79287 0.82205 0.0
H339 H 0.23583 0.78095 0.86234 0.0
C340 C 0.26782 0.84493 0.75 0.0
C341 C 0.25202 0.82569 0.72761 0.0
C342 C 0.25913 0.82472 0.77314 0.0
C343 C 0.23513 0.78409 0.77464 0.0
C344 C 0.22332 0.76266 0.75197 0.0
C345 C 0.23115 0.78347 0.72877 0.0
C346 C 0.15523 0.73821 0.82405 0.0
C347 C 0.17564 0.75191 0.84653 0.0
C348 C 0.17569 0.7463 0.80093 0.0
C349 C 0.21774 0.76766 0.79947 0.0
C350 C 0.23995 0.77769 0.82216 0.0
C351 C 0.21896 0.77033 0.84539 0.0
H352 H 0.0927 0.09275 0.18578 0.0
H353 H 0.96087 0.13049 0.21232 0.0
H354 H 0.07458 0.01425 0.19146 0.0
H355 H 0.94298 0.05101 0.21876 0.0
H356 H 0.90913 0.91051 0.18611 0.0
H357 H 0.92724 0.98905 0.19166 0.0
H358 H 0.05886 0.95246 0.21867 0.0
H359 H 0.04097 0.87295 0.21236 0.0
C360 C 0.05992 0.08437 0.19321 0.0
C361 C 0.02795 0.11812 0.19821 0.0
C362 C 0.04972 0.03907 0.19675 0.0
C363 C 0.00722 0.02598 0.20546 0.0
C364 C 0.97587 0.05981 0.21166 0.0
C365 C 0.98614 0.10541 0.20811 0.0
C366 C 0.94191 0.91895 0.19346 0.0
C367 C 0.97388 0.88522 0.19841 0.0
C368 C 0.95211 0.96426 0.19692 0.0
C369 C 0.99461 0.97741 0.2055 0.0
C370 C 0.02597 0.94362 0.21167 0.0
C371 C 0.0157 0.898 0.20819 0.0
H372 H 0.12375 0.05508 0.69177 0.0
H373 H 0.10718 0.91919 0.71796 0.0
H374 H 0.0434 0.06795 0.69652 0.0
H375 H 0.02743 0.93246 0.72452 0.0
H376 H 0.88244 0.94856 0.69665 0.0
H377 H 0.96291 0.93714 0.70146 0.0
H378 H 0.97896 0.07805 0.71932 0.0
H379 H 0.89901 0.08949 0.71274 0.0
C380 C 0.10304 0.02852 0.69942 0.0
C381 C 0.12151 0.98616 0.70438 0.0
C382 C 0.0568 0.03577 0.70223 0.0
C383 C 0.02818 1.00103 0.7106 0.0
C384 C 0.04771 0.95967 0.71728 0.0
C385 C 0.09361 0.95216 0.71386 0.0
C386 C 0.90321 0.97679 0.70204 0.0
C387 C 0.88462 0.01989 0.70414 0.0
C388 C 0.94952 0.97037 0.70491 0.0
C389 C 0.97817 0.0068 0.71051 0.0
C390 C 0.95864 0.04936 0.71426 0.0
C391 C 0.91262 0.05589 0.71078 0.0
H392 H 0.91008 0.092 0.88545 0.0
H393 H 0.04125 0.12966 0.8581 0.0
H394 H 0.92771 0.01351 0.87877 0.0
H395 H 0.05873 0.05025 0.85077 0.0
H396 H 0.09209 0.91031 0.8855 0.0
H397 H 0.07449 0.98877 0.87877 0.0
H398 H 0.94366 0.95188 0.85083 0.0
H399 H 0.9611 0.8725 0.8582 0.0
C400 C 0.94256 0.08358 0.8776 0.0
C401 C 0.9746 0.11719 0.87274 0.0
C402 C 0.95247 0.03837 0.87347 0.0
C403 C 0.99475 0.02533 0.86438 0.0
C404 C 0.026 0.05909 0.85813 0.0
C405 C 0.01598 0.10461 0.86221 0.0
C406 C 0.05966 0.9187 0.87764 0.0
C407 C 0.02766 0.88506 0.87282 0.0
C408 C 0.04977 0.96389 0.8735 0.0
C409 C 0.00754 0.97687 0.8644 0.0
C410 C 0.97633 0.94308 0.85819 0.0
C411 C 0.98634 0.89758 0.86229 0.0
H412 H 0.8939 0.91619 0.35939 0.0
H413 H 0.87664 0.05549 0.37932 0.0
H414 H 0.97383 0.92834 0.35301 0.0
H415 H 0.95708 0.06749 0.37475 0.0
H416 H 0.10157 0.08685 0.35874 0.0
H417 H 0.02187 0.07429 0.35199 0.0
H418 H 0.038 0.9364 0.37608 0.0
H419 H 0.11831 0.94872 0.38103 0.0
C420 C 0.90735 0.94961 0.3622 0.0
C421 C 0.87918 0.98493 0.36986 0.0
C422 C 0.95336 0.95653 0.35885 0.0
C423 C 0.9727 0.99872 0.36379 0.0
C424 C 0.94386 0.03458 0.37038 0.0
C425 C 0.89755 0.02783 0.3731 0.0
C426 C 0.08806 0.05358 0.36199 0.0
C427 C 0.11601 0.01873 0.37042 0.0
C428 C 0.04217 0.04644 0.35843 0.0
C429 C 0.02269 0.00452 0.36391 0.0
C430 C 0.05135 0.96906 0.37128 0.0
C431 C 0.09757 0.97599 0.37422 0.0
loop_
_geom_bond_atom_site_label_1
_geom_bond_atom_site_label_2
_geom_bond_distance
_geom_bond_site_symmetry_2
_ccdc_geom_bond_type
O0 Cd1 2.223 . S
O0 C8 1.315 . S
Cd1 O0 2.223 . S
Cd1 O4 2.297 . S
Cd1 O5 2.439 . S
Cd1 O11 2.240 . S
Cd2 O3 2.240 . S
Cd2 O10 2.223 . S
Cd2 O12 2.297 . S
Cd2 O13 2.439 . S
O3 Cd2 2.240 . S
O3 C8 1.279 . S
O4 Cd1 2.297 . S
O4 C6 1.247 . S
O5 Cd1 2.439 . S
O5 C6 1.208 . S
C6 O4 1.247 . S
C6 O5 1.208 . S
C7 O12 1.247 . S
C7 O13 1.208 . S
C8 O0 1.315 . S
C8 O3 1.279 . S
C9 O10 1.315 . S
C9 O11 1.279 . S
O10 Cd2 2.223 . S
O10 C9 1.315 . S
O11 Cd1 2.240 . S
O11 C9 1.279 . S
O12 Cd2 2.297 . S
O12 C7 1.247 . S
O13 Cd2 2.439 . S
O13 C7 1.208 . S
O14 Cd15 2.223 . S
O14 C22 1.315 . S
Cd15 O14 2.223 . S
Cd15 O18 2.297 . S
Cd15 O19 2.439 . S
Cd15 O25 2.240 . S
Cd16 O17 2.240 . S
Cd16 O24 2.223 . S
Cd16 O26 2.297 . S
Cd16 O27 2.439 . S
O17 Cd16 2.240 . S
O17 C22 1.279 . S
O18 Cd15 2.297 . S
O18 C20 1.247 . S
O19 Cd15 2.439 . S
O19 C20 1.208 . S
C20 O18 1.247 . S
C20 O19 1.208 . S
C21 O26 1.247 . S
C21 O27 1.208 . S
C22 O14 1.315 . S
C22 O17 1.279 . S
C23 O24 1.315 . S
C23 O25 1.279 . S
O24 Cd16 2.223 . S
O24 C23 1.315 . S
O25 Cd15 2.240 . S
O25 C23 1.279 . S
O26 Cd16 2.297 . S
O26 C21 1.247 . S
O27 Cd16 2.439 . S
O27 C21 1.208 . S
O28 Cd29 2.223 . S
O28 C36 1.315 . S
Cd29 O28 2.223 . S
Cd29 O32 2.297 . S
Cd29 O33 2.439 . S
Cd29 O39 2.240 . S
Cd30 O31 2.240 . S
Cd30 O38 2.223 . S
Cd30 O40 2.297 . S
Cd30 O41 2.439 . S
O31 Cd30 2.240 . S
O31 C36 1.279 . S
O32 Cd29 2.297 . S
O32 C34 1.247 . S
O33 Cd29 2.439 . S
O33 C34 1.208 . S
C34 O32 1.247 . S
C34 O33 1.208 . S
C35 O40 1.247 . S
C35 O41 1.208 . S
C36 O28 1.315 . S
C36 O31 1.279 . S
C37 O38 1.315 . S
C37 O39 1.279 . S
O38 Cd30 2.223 . S
O38 C37 1.315 . S
O39 Cd29 2.240 . S
O39 C37 1.279 . S
O40 Cd30 2.297 . S
O40 C35 1.247 . S
O41 Cd30 2.439 . S
O41 C35 1.208 . S
O42 Cd43 2.223 . S
O42 C50 1.315 . S
Cd43 O42 2.223 . S
Cd43 O46 2.297 . S
Cd43 O47 2.439 . S
Cd43 O53 2.240 . S
Cd44 O45 2.240 . S
Cd44 O52 2.223 . S
Cd44 O54 2.297 . S
Cd44 O55 2.439 . S
O45 Cd44 2.240 . S
O45 C50 1.279 . S
O46 Cd43 2.297 . S
O46 C48 1.247 . S
O47 Cd43 2.439 . S
O47 C48 1.208 . S
C48 O46 1.247 . S
C48 O47 1.208 . S
C49 O54 1.247 . S
C49 O55 1.208 . S
C50 O42 1.315 . S
C50 O45 1.279 . S
C51 O52 1.315 . S
C51 O53 1.279 . S
O52 Cd44 2.223 . S
O52 C51 1.315 . S
O53 Cd43 2.240 . S
O53 C51 1.279 . S
O54 Cd44 2.297 . S
O54 C49 1.247 . S
O55 Cd44 2.439 . S
O55 C49 1.208 . S
O56 Cd57 2.223 . S
O56 C64 1.315 . S
Cd57 O56 2.223 . S
Cd57 O60 2.297 . S
Cd57 O61 2.439 . S
Cd57 O67 2.240 . S
Cd58 O59 2.240 . S
Cd58 O66 2.223 . S
Cd58 O68 2.297 . S
Cd58 O69 2.439 . S
O59 Cd58 2.240 . S
O59 C64 1.279 . S
O60 Cd57 2.297 . S
O60 C62 1.247 . S
O61 Cd57 2.439 . S
O61 C62 1.208 . S
C62 O60 1.247 . S
C62 O61 1.208 . S
C63 O68 1.247 . S
C63 O69 1.208 . S
C64 O56 1.315 . S
C64 O59 1.279 . S
C65 O66 1.315 . S
C65 O67 1.279 . S
O66 Cd58 2.223 . S
O66 C65 1.315 . S
O67 Cd57 2.240 . S
O67 C65 1.279 . S
O68 Cd58 2.297 . S
O68 C63 1.247 . S
O69 Cd58 2.439 . S
O69 C63 1.208 . S
O70 Cd71 2.223 . S
O70 C78 1.315 . S
Cd71 O70 2.223 . S
Cd71 O74 2.297 . S
Cd71 O75 2.439 . S
Cd71 O81 2.240 . S
Cd72 O73 2.240 . S
Cd72 O80 2.223 . S
Cd72 O82 2.297 . S
Cd72 O83 2.439 . S
O73 Cd72 2.240 . S
O73 C78 1.279 . S
O74 Cd71 2.297 . S
O74 C76 1.247 . S
O75 Cd71 2.439 . S
O75 C76 1.208 . S
C76 O74 1.247 . S
C76 O75 1.208 . S
C77 O82 1.247 . S
C77 O83 1.208 . S
C78 O70 1.315 . S
C78 O73 1.279 . S
C79 O80 1.315 . S
C79 O81 1.279 . S
O80 Cd72 2.223 . S
O80 C79 1.315 . S
O81 Cd71 2.240 . S
O81 C79 1.279 . S
O82 Cd72 2.297 . S
O82 C77 1.247 . S
O83 Cd72 2.439 . S
O83 C77 1.208 . S
O84 Cd85 2.223 . S
O84 C92 1.315 . S
Cd85 O84 2.223 . S
Cd85 O88 2.297 . S
Cd85 O89 2.439 . S
Cd85 O95 2.240 . S
Cd86 O87 2.240 . S
Cd86 O94 2.223 . S
Cd86 O96 2.297 . S
Cd86 O97 2.439 . S
O87 Cd86 2.240 . S
O87 C92 1.279 . S
O88 Cd85 2.297 . S
O88 C90 1.247 . S
O89 Cd85 2.439 . S
O89 C90 1.208 . S
C90 O88 1.247 . S
C90 O89 1.208 . S
C91 O96 1.247 . S
C91 O97 1.208 . S
C92 O84 1.315 . S
C92 O87 1.279 . S
C93 O94 1.315 . S
C93 O95 1.279 . S
O94 Cd86 2.223 . S
O94 C93 1.315 . S
O95 Cd85 2.240 . S
O95 C93 1.279 . S
O96 Cd86 2.297 . S
O96 C91 1.247 . S
O97 Cd86 2.439 . S
O97 C91 1.208 . S
O98 Cd99 2.223 . S
O98 C106 1.315 . S
Cd99 O98 2.223 . S
Cd99 O102 2.297 . S
Cd99 O103 2.439 . S
Cd99 O109 2.240 . S
Cd100 O101 2.240 . S
Cd100 O108 2.223 . S
Cd100 O110 2.297 . S
Cd100 O111 2.439 . S
O101 Cd100 2.240 . S
O101 C106 1.279 . S
O102 Cd99 2.297 . S
O102 C104 1.247 . S
O103 Cd99 2.439 . S
O103 C104 1.208 . S
C104 O102 1.247 . S
C104 O103 1.208 . S
C105 O110 1.247 . S
C105 O111 1.208 . S
C106 O98 1.315 . S
C106 O101 1.279 . S
C107 O108 1.315 . S
C107 O109 1.279 . S
O108 Cd100 2.223 . S
O108 C107 1.315 . S
O109 Cd99 2.240 . S
O109 C107 1.279 . S
O110 Cd100 2.297 . S
O110 C105 1.247 . S
O111 Cd100 2.439 . S
O111 C105 1.208 . S
H112 C120 0.950 . S
H113 C125 0.950 . S
H114 C122 0.950 . S
H115 C124 0.950 . S
H116 C126 0.950 . S
H117 C128 0.950 . S
H118 C130 0.950 . S
H119 C131 0.950 . S
C120 H112 0.950 . S
C120 C121 1.386 1_655 S
C120 C122 1.391 . S
C121 C120 1.386 1_455 S
C121 C125 1.393 . S
C122 H114 0.950 . S
C122 C120 1.391 . S
C122 C123 1.400 1_655 S
C123 C122 1.400 1_455 S
C123 C124 1.398 . S
C123 C129 1.491 1_455 S
C124 H115 0.950 . S
C124 C123 1.398 . S
C124 C125 1.391 . S
C125 H113 0.950 . S
C125 C121 1.393 . S
C125 C124 1.391 . S
C126 H116 0.950 . S
C126 C127 1.386 1_455 S
C126 C128 1.391 . S
C127 C126 1.386 1_655 S
C127 C131 1.393 . S
C128 H117 0.950 . S
C128 C126 1.391 . S
C128 C129 1.400 1_455 S
C129 C123 1.491 1_655 S
C129 C128 1.400 1_655 S
C129 C130 1.398 . S
C130 H118 0.950 . S
C130 C129 1.398 . S
C130 C131 1.391 . S
C131 H119 0.950 . S
C131 C127 1.393 . S
C131 C130 1.391 . S
H132 C140 0.950 . S
H133 C145 0.950 . S
H134 C142 0.950 . S
H135 C144 0.950 . S
H136 C146 0.950 . S
H137 C148 0.950 . S
H138 C150 0.950 . S
H139 C151 0.950 . S
C140 H132 0.950 . S
C140 C141 1.386 1_545 S
C140 C142 1.391 . S
C141 C140 1.386 1_565 S
C141 C145 1.393 . S
C142 H134 0.950 . S
C142 C140 1.391 . S
C142 C143 1.400 1_545 S
C143 C142 1.400 1_565 S
C143 C144 1.398 . S
C143 C149 1.491 1_565 S
C144 H135 0.950 . S
C144 C143 1.398 . S
C144 C145 1.391 . S
C145 H133 0.950 . S
C145 C141 1.393 . S
C145 C144 1.391 . S
C146 H136 0.950 . S
C146 C147 1.386 1_565 S
C146 C148 1.391 . S
C147 C146 1.386 1_545 S
C147 C151 1.393 . S
C148 H137 0.950 . S
C148 C146 1.391 . S
C148 C149 1.400 1_565 S
C149 C143 1.491 1_545 S
C149 C148 1.400 1_545 S
C149 C150 1.398 . S
C150 H138 0.950 . S
C150 C149 1.398 . S
C150 C151 1.391 . S
C151 H139 0.950 . S
C151 C147 1.393 . S
C151 C150 1.391 . S
H152 C160 0.950 . S
H153 C165 0.950 . S
H154 C162 0.950 1_455 S
H155 C164 0.950 . S
H156 C166 0.950 . S
H157 C168 0.950 1_655 S
H158 C170 0.950 . S
H159 C171 0.950 . S
C160 H152 0.950 . S
C160 C161 1.386 . S
C160 C162 1.391 . S
C161 C160 1.386 . S
C161 C165 1.393 . S
C162 H154 0.950 1_655 S
C162 C160 1.391 . S
C162 C163 1.400 . S
C163 C162 1.400 . S
C163 C164 1.398 . S
C163 C169 1.491 1_655 S
C164 H155 0.950 . S
C164 C163 1.398 . S
C164 C165 1.391 . S
C165 H153 0.950 . S
C165 C161 1.393 . S
C165 C164 1.391 . S
C166 H156 0.950 . S
C166 C167 1.386 . S
C166 C168 1.391 . S
C167 C166 1.386 . S
C167 C171 1.393 . S
C168 H157 0.950 1_455 S
C168 C166 1.391 . S
C168 C169 1.400 . S
C169 C163 1.491 1_455 S
C169 C168 1.400 . S
C169 C170 1.398 . S
C170 H158 0.950 . S
C170 C169 1.398 . S
C170 C171 1.391 . S
C171 H159 0.950 . S
C171 C167 1.393 . S
C171 C170 1.391 . S
H172 C180 0.950 . S
H173 C185 0.950 . S
H174 C182 0.950 1_565 S
H175 C184 0.950 . S
H176 C186 0.950 . S
H177 C188 0.950 1_545 S
H178 C190 0.950 . S
H179 C191 0.950 . S
C180 H172 0.950 . S
C180 C181 1.386 . S
C180 C182 1.391 . S
C181 C180 1.386 . S
C181 C185 1.393 . S
C182 H174 0.950 1_545 S
C182 C180 1.391 . S
C182 C183 1.400 . S
C183 C182 1.400 . S
C183 C184 1.398 . S
C183 C189 1.491 1_545 S
C184 H175 0.950 . S
C184 C183 1.398 . S
C184 C185 1.391 . S
C185 H173 0.950 . S
C185 C181 1.393 . S
C185 C184 1.391 . S
C186 H176 0.950 . S
C186 C187 1.386 . S
C186 C188 1.391 . S
C187 C186 1.386 . S
C187 C191 1.393 . S
C188 H177 0.950 1_565 S
C188 C186 1.391 . S
C188 C189 1.400 . S
C189 C183 1.491 1_565 S
C189 C188 1.400 . S
C189 C190 1.398 . S
C190 H178 0.950 . S
C190 C189 1.398 . S
C190 C191 1.391 . S
C191 H179 0.950 . S
C191 C187 1.393 . S
C191 C190 1.391 . S
H192 C200 0.950 . S
H193 C205 0.950 . S
H194 C202 0.950 1_455 S
H195 C204 0.950 1_554 S
H196 C206 0.950 . S
H197 C208 0.950 1_655 S
H198 C210 0.950 1_556 S
H199 C211 0.950 . S
C200 H192 0.950 . S
C200 C201 1.386 . S
C200 C202 1.391 . S
C201 C200 1.386 . S
C201 C205 1.393 . S
C202 H194 0.950 1_655 S
C202 C200 1.391 . S
C202 C203 1.400 . S
C203 C202 1.400 . S
C203 C204 1.398 . S
C203 C209 1.491 1_656 S
C204 H195 0.950 1_556 S
C204 C203 1.398 . S
C204 C205 1.391 . S
C205 H193 0.950 . S
C205 C201 1.393 . S
C205 C204 1.391 . S
C206 H196 0.950 . S
C206 C207 1.386 . S
C206 C208 1.391 . S
C207 C206 1.386 . S
C207 C211 1.393 . S
C208 H197 0.950 1_455 S
C208 C206 1.391 . S
C208 C209 1.400 . S
C209 C203 1.491 1_454 S
C209 C208 1.400 . S
C209 C210 1.398 . S
C210 H198 0.950 1_554 S
C210 C209 1.398 . S
C210 C211 1.391 . S
C211 H199 0.950 . S
C211 C207 1.393 . S
C211 C210 1.391 . S
H212 C220 0.950 . S
H213 C225 0.950 . S
H214 C222 0.964 . S
H215 C224 0.950 . S
H216 C226 0.950 . S
H217 C228 0.964 . S
H218 C230 0.950 . S
H219 C231 0.950 . S
C220 H212 0.950 . S
C220 C221 1.386 . S
C220 C222 1.382 1_545 S
C221 C220 1.386 . S
C221 C225 1.393 . S
C222 H214 0.964 . S
C222 C220 1.382 1_565 S
C222 C223 1.395 1_565 S
C223 C222 1.395 1_545 S
C223 C224 1.398 . S
C223 C229 1.491 1_545 S
C224 H215 0.950 . S
C224 C223 1.398 . S
C224 C225 1.391 . S
C225 H213 0.950 . S
C225 C221 1.393 . S
C225 C224 1.391 . S
C226 H216 0.950 . S
C226 C227 1.386 . S
C226 C228 1.382 1_565 S
C227 C226 1.386 . S
C227 C231 1.393 . S
C228 H217 0.964 . S
C228 C226 1.382 1_545 S
C228 C229 1.395 1_545 S
C229 C223 1.491 1_565 S
C229 C228 1.395 1_565 S
C229 C230 1.398 . S
C230 H218 0.950 . S
C230 C229 1.398 . S
C230 C231 1.391 . S
C231 H219 0.950 . S
C231 C227 1.393 . S
C231 C230 1.391 . S
H232 C240 0.950 . S
H233 C245 0.950 . S
H234 C242 0.950 1_556 S
H235 C244 0.964 . S
H236 C246 0.950 . S
H237 C248 0.950 1_554 S
H238 C250 0.964 . S
H239 C251 0.950 . S
C240 H232 0.950 . S
C240 C241 1.386 . S
C240 C242 1.391 . S
C241 C240 1.386 . S
C241 C245 1.393 . S
C242 H234 0.950 1_554 S
C242 C240 1.391 . S
C242 C243 1.400 . S
C243 C242 1.400 . S
C243 C244 1.394 1_655 S
C243 C249 1.491 1_654 S
C244 H235 0.964 . S
C244 C243 1.394 1_455 S
C244 C245 1.382 1_455 S
C245 H233 0.950 . S
C245 C241 1.393 . S
C245 C244 1.382 1_655 S
C246 H236 0.950 . S
C246 C247 1.386 . S
C246 C248 1.391 . S
C247 C246 1.386 . S
C247 C251 1.393 . S
C248 H237 0.950 1_556 S
C248 C246 1.391 . S
C248 C249 1.400 . S
C249 C243 1.491 1_456 S
C249 C248 1.400 . S
C249 C250 1.394 1_455 S
C250 H238 0.964 . S
C250 C249 1.394 1_655 S
C250 C251 1.382 1_655 S
C251 H239 0.950 . S
C251 C247 1.393 . S
C251 C250 1.382 1_455 S
H252 C260 0.950 . S
H253 C265 0.950 . S
H254 C262 0.950 . S
H255 C264 0.950 1_565 S
H256 C266 0.950 . S
H257 C268 0.950 . S
H258 C270 0.950 1_545 S
H259 C271 0.950 . S
C260 H252 0.950 . S
C260 C261 1.386 . S
C260 C262 1.391 . S
C261 C260 1.386 . S
C261 C265 1.393 . S
C262 H254 0.950 . S
C262 C260 1.391 . S
C262 C263 1.400 . S
C263 C262 1.400 . S
C263 C264 1.398 . S
C263 C269 1.491 1_545 S
C264 H255 0.950 1_545 S
C264 C263 1.398 . S
C264 C265 1.391 . S
C265 H253 0.950 . S
C265 C261 1.393 . S
C265 C264 1.391 . S
C266 H256 0.950 . S
C266 C267 1.386 . S
C266 C268 1.391 . S
C267 C266 1.386 . S
C267 C271 1.393 . S
C268 H257 0.950 . S
C268 C266 1.391 . S
C268 C269 1.400 . S
C269 C263 1.491 1_565 S
C269 C268 1.400 . S
C269 C270 1.398 . S
C270 H258 0.950 1_565 S
C270 C269 1.398 . S
C270 C271 1.391 . S
C271 H259 0.950 . S
C271 C267 1.393 . S
C271 C270 1.391 . S
H272 C280 0.950 . S
H273 C285 0.950 . S
H274 C282 0.950 . S
H275 C284 0.950 . S
H276 C286 0.950 . S
H277 C288 0.950 . S
H278 C290 0.950 . S
H279 C291 0.950 . S
C280 H272 0.950 . S
C280 C281 1.386 . S
C280 C282 1.391 . S
C281 C280 1.386 . S
C281 C285 1.393 . S
C282 H274 0.950 . S
C282 C280 1.391 . S
C282 C283 1.400 . S
C283 C282 1.400 . S
C283 C284 1.398 . S
C283 C289 1.491 . S
C284 H275 0.950 . S
C284 C283 1.398 . S
C284 C285 1.391 . S
C285 H273 0.950 . S
C285 C281 1.393 . S
C285 C284 1.391 . S
C286 H276 0.950 . S
C286 C287 1.386 . S
C286 C288 1.391 . S
C287 C286 1.386 . S
C287 C291 1.393 . S
C288 H277 0.950 . S
C288 C286 1.391 . S
C288 C289 1.400 . S
C289 C283 1.491 . S
C289 C288 1.400 . S
C289 C290 1.398 . S
C290 H278 0.950 . S
C290 C289 1.398 . S
C290 C291 1.391 . S
C291 H279 0.950 . S
C291 C287 1.393 . S
C291 C290 1.391 . S
H292 C300 0.950 . S
H293 C305 0.950 . S
H294 C302 0.950 . S
H295 C304 0.950 . S
H296 C306 0.950 . S
H297 C308 0.950 . S
H298 C310 0.950 . S
H299 C311 0.950 . S
C300 H292 0.950 . S
C300 C301 1.386 . S
C300 C302 1.391 . S
C301 C300 1.386 . S
C301 C305 1.393 . S
C302 H294 0.950 . S
C302 C300 1.391 . S
C302 C303 1.400 . S
C303 C302 1.400 . S
C303 C304 1.398 . S
C303 C309 1.491 . S
C304 H295 0.950 . S
C304 C303 1.398 . S
C304 C305 1.391 . S
C305 H293 0.950 . S
C305 C301 1.393 . S
C305 C304 1.391 . S
C306 H296 0.950 . S
C306 C307 1.386 . S
C306 C308 1.391 . S
C307 C306 1.386 . S
C307 C311 1.393 . S
C308 H297 0.950 . S
C308 C306 1.391 . S
C308 C309 1.400 . S
C309 C303 1.491 . S
C309 C308 1.400 . S
C309 C310 1.398 . S
C310 H298 0.950 . S
C310 C309 1.398 . S
C310 C311 1.391 . S
C311 H299 0.950 . S
C311 C307 1.393 . S
C311 C310 1.391 . S
H312 C320 0.950 . S
H313 C325 0.950 . S
H314 C322 0.950 . S
H315 C324 0.950 . S
H316 C326 0.950 . S
H317 C328 0.950 . S
H318 C330 0.950 . S
H319 C331 0.950 . S
C320 H312 0.950 . S
C320 C321 1.386 . S
C320 C322 1.391 . S
C321 C320 1.386 . S
C321 C325 1.393 . S
C322 H314 0.950 . S
C322 C320 1.391 . S
C322 C323 1.400 . S
C323 C322 1.400 . S
C323 C324 1.398 . S
C323 C329 1.491 . S
C324 H315 0.950 . S
C324 C323 1.398 . S
C324 C325 1.391 . S
C325 H313 0.950 . S
C325 C321 1.393 . S
C325 C324 1.391 . S
C326 H316 0.950 . S
C326 C327 1.386 . S
C326 C328 1.391 . S
C327 C326 1.386 . S
C327 C331 1.393 . S
C328 H317 0.950 . S
C328 C326 1.391 . S
C328 C329 1.400 . S
C329 C323 1.491 . S
C329 C328 1.400 . S
C329 C330 1.398 . S
C330 H318 0.950 . S
C330 C329 1.398 . S
C330 C331 1.391 . S
C331 H319 0.950 . S
C331 C327 1.393 . S
C331 C330 1.391 . S
H332 C340 0.950 . S
H333 C345 0.950 . S
H334 C342 0.950 . S
H335 C344 0.950 . S
H336 C346 0.950 . S
H337 C348 0.950 . S
H338 C350 0.950 . S
H339 C351 0.950 . S
C340 H332 0.950 . S
C340 C341 1.386 . S
C340 C342 1.391 . S
C341 C340 1.386 . S
C341 C345 1.393 . S
C342 H334 0.950 . S
C342 C340 1.391 . S
C342 C343 1.400 . S
C343 C342 1.400 . S
C343 C344 1.398 . S
C343 C349 1.491 . S
C344 H335 0.950 . S
C344 C343 1.398 . S
C344 C345 1.391 . S
C345 H333 0.950 . S
C345 C341 1.393 . S
C345 C344 1.391 . S
C346 H336 0.950 . S
C346 C347 1.386 . S
C346 C348 1.391 . S
C347 C346 1.386 . S
C347 C351 1.393 . S
C348 H337 0.950 . S
C348 C346 1.391 . S
C348 C349 1.400 . S
C349 C343 1.491 . S
C349 C348 1.400 . S
C349 C350 1.398 . S
C350 H338 0.950 . S
C350 C349 1.398 . S
C350 C351 1.391 . S
C351 H339 0.950 . S
C351 C347 1.393 . S
C351 C350 1.391 . S
H352 C360 0.950 . S
H353 C365 0.950 . S
H354 C362 0.950 . S
H355 C364 0.950 . S
H356 C366 0.950 . S
H357 C368 0.950 . S
H358 C370 0.950 . S
H359 C371 0.950 . S
C360 H352 0.950 . S
C360 C361 1.386 . S
C360 C362 1.391 . S
C361 C360 1.386 . S
C361 C365 1.393 1_455 S
C362 H354 0.950 . S
C362 C360 1.391 . S
C362 C363 1.400 . S
C363 C362 1.400 . S
C363 C364 1.398 1_455 S
C363 C369 1.491 1_445 S
C364 H355 0.950 . S
C364 C363 1.398 1_655 S
C364 C365 1.391 . S
C365 H353 0.950 . S
C365 C361 1.393 1_655 S
C365 C364 1.391 . S
C366 H356 0.950 . S
C366 C367 1.386 . S
C366 C368 1.391 . S
C367 C366 1.386 . S
C367 C371 1.393 1_655 S
C368 H357 0.950 . S
C368 C366 1.391 . S
C368 C369 1.400 . S
C369 C363 1.491 1_665 S
C369 C368 1.400 . S
C369 C370 1.398 1_655 S
C370 H358 0.950 . S
C370 C369 1.398 1_455 S
C370 C371 1.391 . S
C371 H359 0.950 . S
C371 C367 1.393 1_455 S
C371 C370 1.391 . S
H372 C380 0.950 . S
H373 C385 0.950 . S
H374 C382 0.950 . S
H375 C384 0.950 . S
H376 C386 0.950 . S
H377 C388 0.950 . S
H378 C390 0.950 . S
H379 C391 0.950 . S
C380 H372 0.950 . S
C380 C381 1.386 1_545 S
C380 C382 1.391 . S
C381 C380 1.386 1_565 S
C381 C385 1.393 . S
C382 H374 0.950 . S
C382 C380 1.391 . S
C382 C383 1.400 1_545 S
C383 C382 1.400 1_565 S
C383 C384 1.398 . S
C383 C389 1.491 1_465 S
C384 H375 0.950 . S
C384 C383 1.398 . S
C384 C385 1.391 . S
C385 H373 0.950 . S
C385 C381 1.393 . S
C385 C384 1.391 . S
C386 H376 0.950 . S
C386 C387 1.386 1_565 S
C386 C388 1.391 . S
C387 C386 1.386 1_545 S
C387 C391 1.393 . S
C388 H377 0.950 . S
C388 C386 1.391 . S
C388 C389 1.400 1_565 S
C389 C383 1.491 1_645 S
C389 C388 1.400 1_545 S
C389 C390 1.398 . S
C390 H378 0.950 . S
C390 C389 1.398 . S
C390 C391 1.391 . S
C391 H379 0.950 . S
C391 C387 1.393 . S
C391 C390 1.391 . S
H392 C400 0.950 . S
H393 C405 0.950 . S
H394 C402 0.950 . S
H395 C404 0.950 . S
H396 C406 0.950 . S
H397 C408 0.950 . S
H398 C410 0.950 . S
H399 C411 0.950 . S
C400 H392 0.950 . S
C400 C401 1.386 . S
C400 C402 1.391 . S
C401 C400 1.386 . S
C401 C405 1.393 1_655 S
C402 H394 0.950 . S
C402 C400 1.391 . S
C402 C403 1.400 . S
C403 C402 1.400 . S
C403 C404 1.398 1_655 S
C403 C409 1.491 1_645 S
C404 H395 0.950 . S
C404 C403 1.398 1_455 S
C404 C405 1.391 . S
C405 H393 0.950 . S
C405 C401 1.393 1_455 S
C405 C404 1.391 . S
C406 H396 0.950 . S
C406 C407 1.386 . S
C406 C408 1.391 . S
C407 C406 1.386 . S
C407 C411 1.393 1_455 S
C408 H397 0.950 . S
C408 C406 1.391 . S
C408 C409 1.400 . S
C409 C403 1.491 1_465 S
C409 C408 1.400 . S
C409 C410 1.398 1_455 S
C410 H398 0.950 . S
C410 C409 1.398 1_655 S
C410 C411 1.391 . S
C411 H399 0.950 . S
C411 C407 1.393 1_655 S
C411 C410 1.391 . S
H412 C420 0.950 . S
H413 C425 0.950 . S
H414 C422 0.950 . S
H415 C424 0.950 1_545 S
H416 C426 0.950 . S
H417 C428 0.950 . S
H418 C430 0.950 1_565 S
H419 C431 0.950 . S
C420 H412 0.950 . S
C420 C421 1.386 . S
C420 C422 1.391 . S
C421 C420 1.386 . S
C421 C425 1.393 . S
C422 H414 0.950 . S
C422 C420 1.391 . S
C422 C423 1.400 . S
C423 C422 1.400 . S
C423 C424 1.398 . S
C423 C429 1.491 1_665 S
C424 H415 0.950 1_565 S
C424 C423 1.398 . S
C424 C425 1.391 . S
C425 H413 0.950 . S
C425 C421 1.393 . S
C425 C424 1.391 . S
C426 H416 0.950 . S
C426 C427 1.386 . S
C426 C428 1.391 . S
C427 C426 1.386 . S
C427 C431 1.393 . S
C428 H417 0.950 . S
C428 C426 1.391 . S
C428 C429 1.400 . S
C429 C423 1.491 1_445 S
C429 C428 1.400 . S
C429 C430 1.398 . S
C430 H418 0.950 1_545 S
C430 C429 1.398 . S
C430 C431 1.391 . S
C431 H419 0.950 . S
C431 C427 1.393 . S
C431 C430 1.391 . S
C121 C6 1.474 . S
C127 C34 1.466 . S
C141 C49 1.476 . S
C147 C21 1.471 . S
C161 C90 1.477 . S
C167 C62 1.475 . S
C181 C77 1.463 . S
C187 C105 1.460 . S
C201 C92 1.380 . S
C207 C8 1.389 . S
C221 C23 1.372 . S
C227 C107 1.382 . S
C241 C36 1.370 . S
C247 C64 1.360 . S
C261 C79 1.394 . S
C267 C51 1.387 . S
C281 C7 1.652 . S
C287 C76 1.645 . S
C301 C91 1.649 . S
C307 C20 1.641 . S
C321 C104 1.641 . S
C327 C35 1.650 . S
C341 C48 1.641 . S
C347 C63 1.652 . S
C361 C9 1.251 . S
C367 C37 1.255 . S
C381 C50 1.258 . S
C387 C22 1.253 . S
C401 C93 1.255 . S
C407 C65 1.259 . S
C421 C106 1.267 . S
C427 C78 1.268 . S
