# Generated by pormake.
# Topology yfg, (5)-cn, num edge types: 1
# Building blocks:
#     Node 0, Type 0, BuildingBlock: XOMCOT_clean_sbu_1, # of connection points: 5
#     Node 1, Type 0, BuildingBlock: XOMCOT_clean_sbu_1, # of connection points: 5
#     Node 2, Type 0, BuildingBlock: XOMCOT_clean_sbu_1, # of connection points: 5
#     Node 3, Type 0, BuildingBlock: XOMCOT_clean_sbu_1, # of connection points: 5
#     Node 4, Type 0, BuildingBlock: XOMCOT_clean_sbu_1, # of connection points: 5
#     Node 5, Type 0, BuildingBlock: XOMCOT_clean_sbu_1, # of connection points: 5
#     Node 6, Type 0, BuildingBlock: XOMCOT_clean_sbu_1, # of connection points: 5
#     Node 7, Type 0, BuildingBlock: XOMCOT_clean_sbu_1, # of connection points: 5
#     Edge 8, Type (0, 0), BuildingBlock: CIFDUS_clean_linker_0, # of connection points: 2
#     Edge 9, Type (0, 0), BuildingBlock: CIFDUS_clean_linker_0, # of connection points: 2
#     Edge 10, Type (0, 0), BuildingBlock: CIFDUS_clean_linker_0, # of connection points: 2
#     Edge 11, Type (0, 0), BuildingBlock: CIFDUS_clean_linker_0, # of connection points: 2
#     Edge 12, Type (0, 0), BuildingBlock: CIFDUS_clean_linker_0, # of connection points: 2
#     Edge 13, Type (0, 0), BuildingBlock: CIFDUS_clean_linker_0, # of connection points: 2
#     Edge 14, Type (0, 0), BuildingBlock: CIFDUS_clean_linker_0, # of connection points: 2
#     Edge 15, Type (0, 0), BuildingBlock: CIFDUS_clean_linker_0, # of connection points: 2
#     Edge 16, Type (0, 0), BuildingBlock: CIFDUS_clean_linker_0, # of connection points: 2
#     Edge 17, Type (0, 0), BuildingBlock: CIFDUS_clean_linker_0, # of connection points: 2
#     Edge 18, Type (0, 0), BuildingBlock: CIFDUS_clean_linker_0, # of connection points: 2
#     Edge 19, Type (0, 0), BuildingBlock: CIFDUS_clean_linker_0, # of connection points: 2
#     Edge 20, Type (0, 0), BuildingBlock: CIFDUS_clean_linker_0, # of connection points: 2
#     Edge 21, Type (0, 0), BuildingBlock: CIFDUS_clean_linker_0, # of connection points: 2
#     Edge 22, Type (0, 0), BuildingBlock: CIFDUS_clean_linker_0, # of connection points: 2
#     Edge 23, Type (0, 0), BuildingBlock: CIFDUS_clean_linker_0, # of connection points: 2
#     Edge 24, Type (0, 0), BuildingBlock: CIFDUS_clean_linker_0, # of connection points: 2
#     Edge 25, Type (0, 0), BuildingBlock: CIFDUS_clean_linker_0, # of connection points: 2
#     Edge 26, Type (0, 0), BuildingBlock: CIFDUS_clean_linker_0, # of connection points: 2
#     Edge 27, Type (0, 0), BuildingBlock: CIFDUS_clean_linker_0, # of connection points: 2
# Relax obj value: 0.434
# Max RMSD: 0.203
# Mean RMSD: 0.203
data_MOF--net-yfg--node1-XOMCOT_clean_sbu_1--edge1-CIFDUS_clean_linker_0
_symmetry_space_group_name_H-M    P1
_symmetry_Int_Tables_number       1
_symmetry_cell_setting            triclinic
loop_
_symmetry_equiv_pos_as_xyz
'x, y, z'
_cell_length_a     31.407691
_cell_length_b     31.411181
_cell_length_c     35.381258
_cell_angle_alpha  89.951702
_cell_angle_beta   90.022602
_cell_angle_gamma 89.922841
loop_
_atom_site_label
_atom_site_type_symbol
_atom_site_fract_x
_atom_site_fract_y
_atom_site_fract_z
_atom_type_partial_charge
C0 C 0.19682 0.53197 0.08368 0.0
C1 C 0.18756 0.53522 0.12153 0.0
N2 N 0.22104 0.52028 0.14151 0.0
N3 N 0.23583 0.51481 0.07964 0.0
C4 C 0.24991 0.50816 0.11525 0.0
H5 H 0.17698 0.54261 0.06051 0.0
Co6 Co 0.26483 0.50947 0.03405 0.0
C7 C 0.30812 0.42414 0.05711 0.0
O8 O 0.28705 0.39637 0.03665 0.0
N9 N 0.29443 0.50651 0.98828 0.0
C10 C 0.33642 0.48937 0.94004 0.0
C11 C 0.31329 0.47375 0.97017 0.0
C12 C 0.30563 0.54139 0.96819 0.0
N13 N 0.33152 0.53197 0.93893 0.0
O14 O 0.30681 0.54675 0.05265 0.0
H15 H 0.31161 0.44085 0.97876 0.0
H16 H 0.29677 0.57347 0.97613 0.0
O17 O 0.29908 0.46369 0.05518 0.0
C18 C 0.29845 0.58556 0.05924 0.0
O19 O 0.26078 0.6008 0.05029 0.0
N20 N 0.22144 0.47362 0.01586 0.0
C21 C 0.13969 0.44365 0.99905 0.0
C22 C 0.16316 0.42638 0.02921 0.0
C23 C 0.20384 0.44206 0.03736 0.0
C24 C 0.20027 0.48886 0.98504 0.0
C25 C 0.15956 0.47415 0.97598 0.0
H26 H 0.21923 0.43179 0.06311 0.0
H27 H 0.21328 0.51531 0.96927 0.0
H28 H 0.28111 0.49548 0.12166 0.0
H29 H 0.1589 0.54902 0.13326 0.0
H30 H 0.35599 0.47096 0.92088 0.0
H31 H 0.14929 0.40273 0.04775 0.0
H32 H 0.14261 0.48918 0.95289 0.0
C33 C 0.48891 0.17953 0.33635 0.0
C34 C 0.48895 0.16467 0.37285 0.0
N35 N 0.5033 0.1959 0.39566 0.0
N36 N 0.50348 0.21981 0.33599 0.0
C37 C 0.51171 0.22914 0.37252 0.0
H38 H 0.47839 0.16235 0.31157 0.0
Co39 Co 0.50588 0.25306 0.29273 0.0
C40 C 0.58744 0.30126 0.3163 0.0
O41 O 0.61444 0.28326 0.29289 0.0
N42 N 0.50542 0.28625 0.2488 0.0
C43 C 0.51476 0.33322 0.20243 0.0
C44 C 0.53337 0.31385 0.23336 0.0
C45 C 0.47052 0.28902 0.22657 0.0
N46 N 0.47518 0.31743 0.19825 0.0
O47 O 0.46408 0.28921 0.31369 0.0
H48 H 0.56482 0.32048 0.24402 0.0
H49 H 0.44154 0.27144 0.23194 0.0
O50 O 0.54826 0.29034 0.31622 0.0
C51 C 0.42565 0.27707 0.31657 0.0
O52 O 0.4146 0.23986 0.30276 0.0
N53 N 0.54595 0.21489 0.27199 0.0
C54 C 0.57979 0.13537 0.25265 0.0
C55 C 0.59587 0.15823 0.28361 0.0
C56 C 0.57829 0.19779 0.29301 0.0
C57 C 0.53241 0.19474 0.24006 0.0
C58 C 0.54907 0.15518 0.22974 0.0
H59 H 0.58737 0.21215 0.31955 0.0
H60 H 0.50536 0.20693 0.2246 0.0
H61 H 0.52342 0.25973 0.38189 0.0
H62 H 0.47809 0.13362 0.38191 0.0
H63 H 0.52913 0.35722 0.18457 0.0
H64 H 0.6197 0.14437 0.30204 0.0
H65 H 0.53496 0.13866 0.20601 0.0
C66 C 0.84259 0.49874 0.58296 0.0
C67 C 0.85876 0.5005 0.61895 0.0
N68 N 0.8276 0.51355 0.6425 0.0
N69 N 0.80149 0.51091 0.58357 0.0
C70 C 0.79306 0.51953 0.62021 0.0
H71 H 0.85937 0.48828 0.55794 0.0
Co72 Co 0.76638 0.50923 0.54146 0.0
C73 C 0.68879 0.55074 0.56882 0.0
O74 O 0.66837 0.51766 0.55517 0.0
N75 N 0.73192 0.50506 0.49841 0.0
C76 C 0.68713 0.51387 0.45027 0.0
C77 C 0.70805 0.53396 0.47966 0.0
C78 C 0.72605 0.46825 0.47938 0.0
N79 N 0.69876 0.47256 0.45017 0.0
O80 O 0.73361 0.46714 0.56562 0.0
H81 H 0.70558 0.56725 0.48713 0.0
H82 H 0.74109 0.43852 0.48724 0.0
O83 O 0.72917 0.55362 0.56386 0.0
C84 C 0.7472 0.42945 0.57048 0.0
O85 O 0.7844 0.41844 0.55657 0.0
N86 N 0.80151 0.54905 0.51763 0.0
C87 C 0.88015 0.58358 0.49806 0.0
C88 C 0.85503 0.60265 0.52623 0.0
C89 C 0.8153 0.5851 0.53537 0.0
C90 C 0.82364 0.53257 0.48794 0.0
C91 C 0.86283 0.54965 0.47741 0.0
H92 H 0.79829 0.59727 0.55964 0.0
H93 H 0.81332 0.50312 0.47508 0.0
H94 H 0.76207 0.52936 0.6303 0.0
H95 H 0.89065 0.49131 0.62719 0.0
H96 H 0.66548 0.52852 0.4303 0.0
H97 H 0.86722 0.62897 0.54274 0.0
H98 H 0.88125 0.53359 0.45581 0.0
C99 C 0.53275 0.82419 0.83296 0.0
C100 C 0.53327 0.83962 0.86917 0.0
N101 N 0.51327 0.81148 0.89179 0.0
N102 N 0.51236 0.78652 0.83241 0.0
C103 C 0.50111 0.77925 0.86878 0.0
H104 H 0.54653 0.83934 0.80838 0.0
Co105 Co 0.50612 0.75564 0.7878 0.0
C106 C 0.41864 0.71713 0.80562 0.0
O107 O 0.39693 0.73827 0.78003 0.0
N108 N 0.50238 0.72475 0.74213 0.0
C109 C 0.482 0.69652 0.68741 0.0
C110 C 0.4695 0.72075 0.71786 0.0
C111 C 0.53474 0.70322 0.7253 0.0
N112 N 0.52314 0.68536 0.69207 0.0
O113 O 0.54214 0.71311 0.80799 0.0
H114 H 0.43879 0.73566 0.72114 0.0
H115 H 0.5663 0.70051 0.73726 0.0
O116 O 0.45862 0.72326 0.80945 0.0
C117 C 0.58132 0.72093 0.81345 0.0
O118 O 0.59712 0.75747 0.80208 0.0
N119 N 0.47179 0.80003 0.76853 0.0
C120 C 0.44533 0.88302 0.75215 0.0
C121 C 0.42613 0.85986 0.7814 0.0
C122 C 0.44026 0.8186 0.78951 0.0
C123 C 0.48868 0.82104 0.73832 0.0
C124 C 0.47576 0.86249 0.72953 0.0
H125 H 0.42898 0.80352 0.81506 0.0
H126 H 0.51506 0.80715 0.72302 0.0
H127 H 0.4841 0.7512 0.87809 0.0
H128 H 0.54798 0.86904 0.87822 0.0
H129 H 0.46243 0.68861 0.66324 0.0
H130 H 0.40331 0.87486 0.8001 0.0
H131 H 0.49152 0.87935 0.70678 0.0
C132 C 0.18754 0.49271 0.42366 0.0
C133 C 0.17284 0.49264 0.38717 0.0
N134 N 0.20272 0.51041 0.36484 0.0
N135 N 0.22638 0.51077 0.42461 0.0
C136 C 0.23512 0.52092 0.38828 0.0
H137 H 0.17122 0.47995 0.44808 0.0
Co138 Co 0.25773 0.51448 0.46905 0.0
C139 C 0.29727 0.60175 0.45338 0.0
O140 O 0.27769 0.62191 0.48087 0.0
N141 N 0.28906 0.51458 0.51429 0.0
C142 C 0.33726 0.52119 0.56009 0.0
C143 C 0.31856 0.54083 0.52935 0.0
C144 C 0.29046 0.47946 0.53646 0.0
N145 N 0.31955 0.48246 0.56447 0.0
O146 O 0.29912 0.47797 0.44795 0.0
H147 H 0.3279 0.57124 0.51801 0.0
H148 H 0.27199 0.45112 0.53072 0.0
O149 O 0.29088 0.56201 0.44817 0.0
C150 C 0.29135 0.43885 0.44224 0.0
O151 O 0.25442 0.42312 0.45263 0.0
N152 N 0.21464 0.54971 0.48976 0.0
C153 C 0.13311 0.57982 0.50794 0.0
C154 C 0.15627 0.59768 0.47798 0.0
C155 C 0.19666 0.58187 0.46907 0.0
C156 C 0.1938 0.53391 0.52053 0.0
C157 C 0.15319 0.54868 0.53026 0.0
H158 H 0.21158 0.59279 0.44333 0.0
H159 H 0.20674 0.50697 0.53565 0.0
H160 H 0.26459 0.53555 0.37925 0.0
H161 H 0.14287 0.47943 0.37771 0.0
H162 H 0.3627 0.53402 0.57728 0.0
H163 H 0.14231 0.62191 0.46003 0.0
H164 H 0.13641 0.53325 0.55321 0.0
C165 C 0.53339 0.19905 0.67599 0.0
C166 C 0.53479 0.18853 0.63833 0.0
N167 N 0.51751 0.22075 0.61822 0.0
N168 N 0.51505 0.23757 0.67975 0.0
C169 C 0.50591 0.25015 0.64416 0.0
H170 H 0.54587 0.18036 0.69918 0.0
Co171 Co 0.51078 0.26705 0.72503 0.0
C172 C 0.42492 0.31033 0.7025 0.0
O173 O 0.39714 0.28929 0.72299 0.0
N174 N 0.50954 0.29695 0.77059 0.0
C175 C 0.5004 0.34322 0.81748 0.0
C176 C 0.48152 0.3242 0.78647 0.0
C177 C 0.54467 0.2996 0.79249 0.0
N178 N 0.54012 0.3275 0.82114 0.0
O179 O 0.54775 0.30861 0.70558 0.0
H180 H 0.45021 0.33133 0.77554 0.0
H181 H 0.57397 0.28283 0.78628 0.0
O182 O 0.46446 0.30117 0.70451 0.0
C183 C 0.5869 0.30025 0.70075 0.0
O184 O 0.6018 0.26292 0.71113 0.0
N185 N 0.47556 0.22361 0.7444 0.0
C186 C 0.45803 0.13757 0.7559 0.0
C187 C 0.43593 0.16068 0.72818 0.0
C188 C 0.44516 0.204 0.72285 0.0
C189 C 0.49324 0.20272 0.77435 0.0
C190 C 0.48459 0.15983 0.7808 0.0
H191 H 0.4326 0.21966 0.69804 0.0
H192 H 0.5184 0.21735 0.7905 0.0
H193 H 0.49167 0.28061 0.63748 0.0
H194 H 0.54889 0.15994 0.62675 0.0
H195 H 0.48635 0.36732 0.83545 0.0
H196 H 0.41547 0.14454 0.70815 0.0
H197 H 0.50203 0.14317 0.80274 0.0
C198 C 0.83474 0.53427 0.92386 0.0
C199 C 0.84439 0.53605 0.88601 0.0
N200 N 0.81043 0.5221 0.86613 0.0
N201 N 0.795 0.51905 0.92802 0.0
C202 C 0.78091 0.51205 0.89251 0.0
H203 H 0.85482 0.54465 0.94692 0.0
Co204 Co 0.76544 0.51664 0.97338 0.0
C205 C 0.71679 0.43429 0.95223 0.0
O206 O 0.73687 0.40665 0.97371 0.0
N207 N 0.73539 0.51682 0.01905 0.0
C208 C 0.69105 0.50594 0.06713 0.0
C209 C 0.71064 0.48753 0.03627 0.0
C210 C 0.73098 0.55228 0.04031 0.0
N211 N 0.70399 0.5467 0.06954 0.0
O212 O 0.72715 0.55744 0.95409 0.0
H213 H 0.70594 0.4553 0.02672 0.0
H214 H 0.74593 0.58232 0.03343 0.0
O215 O 0.7275 0.47348 0.95258 0.0
C216 C 0.73893 0.59584 0.9501 0.0
O217 O 0.77657 0.60739 0.96265 0.0
N218 N 0.8058 0.47759 0.9923 0.0
C219 C 0.88637 0.44438 0.00911 0.0
C220 C 0.8624 0.4282 0.97883 0.0
C221 C 0.82224 0.4454 0.97076 0.0
C222 C 0.82736 0.49155 0.02335 0.0
C223 C 0.86742 0.47516 0.03245 0.0
H224 H 0.80658 0.43596 0.9449 0.0
H225 H 0.81557 0.51852 0.03915 0.0
H226 H 0.74918 0.50077 0.88629 0.0
H227 H 0.87371 0.54826 0.87428 0.0
H228 H 0.66865 0.49071 0.08603 0.0
H229 H 0.87565 0.40441 0.96008 0.0
H230 H 0.88484 0.48934 0.05564 0.0
C231 C 0.48518 0.82897 0.17243 0.0
C232 C 0.48292 0.8371 0.13425 0.0
N233 N 0.49628 0.8022 0.11538 0.0
N234 N 0.50023 0.78928 0.17774 0.0
C235 C 0.50651 0.77368 0.14259 0.0
H236 H 0.47533 0.85011 0.19491 0.0
Co237 Co 0.50365 0.76068 0.2238 0.0
C238 C 0.58746 0.71456 0.20305 0.0
O239 O 0.61416 0.73644 0.22396 0.0
N240 N 0.50485 0.73108 0.27003 0.0
C241 C 0.52194 0.6898 0.31891 0.0
C242 C 0.5376 0.71308 0.28893 0.0
C243 C 0.46981 0.71928 0.28973 0.0
N244 N 0.47927 0.69378 0.3193 0.0
O245 O 0.46344 0.72155 0.20527 0.0
H246 H 0.57066 0.71559 0.28112 0.0
H247 H 0.43767 0.72746 0.28145 0.0
O248 O 0.54775 0.7234 0.20323 0.0
C249 C 0.425 0.7337 0.20206 0.0
O250 O 0.41389 0.77106 0.21556 0.0
N251 N 0.54192 0.80215 0.24186 0.0
C252 C 0.57546 0.88236 0.25916 0.0
C253 C 0.59096 0.8589 0.2283 0.0
C254 C 0.57347 0.81905 0.2199 0.0
C255 C 0.52833 0.82332 0.27324 0.0
C256 C 0.54486 0.86321 0.28256 0.0
H257 H 0.58249 0.80378 0.19374 0.0
H258 H 0.50175 0.81114 0.28936 0.0
H259 H 0.51755 0.74165 0.13716 0.0
H260 H 0.47088 0.86604 0.12154 0.0
H261 H 0.5404 0.67075 0.33849 0.0
H262 H 0.61461 0.87224 0.20945 0.0
H263 H 0.53107 0.88026 0.30617 0.0
H264 H 0.26787 0.51123 0.31462 0.0
H265 H 0.13121 0.52124 0.32368 0.0
H266 H 0.12497 0.52459 0.25522 0.0
H267 H 0.15763 0.52241 0.19291 0.0
H268 H 0.29444 0.51551 0.18263 0.0
H269 H 0.30116 0.51276 0.25127 0.0
C270 C 0.23682 0.51469 0.30161 0.0
C271 C 0.20004 0.51553 0.32437 0.0
C272 C 0.23338 0.51673 0.26194 0.0
C273 C 0.15999 0.51967 0.30693 0.0
C274 C 0.15637 0.52178 0.26772 0.0
C275 C 0.18904 0.5209 0.20545 0.0
C276 C 0.22536 0.51908 0.18222 0.0
C277 C 0.19277 0.51993 0.24495 0.0
C278 C 0.26572 0.5163 0.19946 0.0
C279 C 0.26967 0.51505 0.23887 0.0
H280 H 0.50127 0.26195 0.44479 0.0
H281 H 0.51482 0.12535 0.43836 0.0
H282 H 0.51908 0.12107 0.50691 0.0
H283 H 0.51835 0.15563 0.56854 0.0
H284 H 0.5087 0.29253 0.57558 0.0
H285 H 0.5032 0.297 0.50698 0.0
C286 C 0.50566 0.23129 0.4583 0.0
C287 C 0.50744 0.19402 0.43625 0.0
C288 C 0.5085 0.22902 0.49791 0.0
C289 C 0.51256 0.15451 0.45448 0.0
C290 C 0.51526 0.15202 0.49375 0.0
C291 C 0.51559 0.18656 0.55525 0.0
C292 C 0.51399 0.22361 0.57756 0.0
C293 C 0.51314 0.18902 0.51573 0.0
C294 C 0.50946 0.26331 0.55946 0.0
C295 C 0.50662 0.26597 0.52008 0.0
H296 H 0.7632 0.51016 0.6935 0.0
H297 H 0.89921 0.52673 0.68347 0.0
H298 H 0.90581 0.52958 0.75185 0.0
H299 H 0.87367 0.52602 0.81429 0.0
H300 H 0.73713 0.51417 0.82504 0.0
H301 H 0.73036 0.51058 0.75665 0.0
C302 C 0.79422 0.51496 0.70615 0.0
C303 C 0.83067 0.51777 0.68306 0.0
C304 C 0.79786 0.5171 0.74574 0.0
C305 C 0.87065 0.52355 0.70029 0.0
C306 C 0.87448 0.52544 0.73952 0.0
C307 C 0.84226 0.52321 0.80199 0.0
C308 C 0.80611 0.52029 0.8254 0.0
C309 C 0.83837 0.52198 0.76251 0.0
C310 C 0.76583 0.51589 0.80826 0.0
C311 C 0.76178 0.51413 0.76892 0.0
H312 H 0.50697 0.74839 0.94388 0.0
H313 H 0.50521 0.88494 0.9306 0.0
H314 H 0.50014 0.89395 0.9987 0.0
H315 H 0.49867 0.86365 0.06204 0.0
H316 H 0.49745 0.72718 0.07651 0.0
H317 H 0.5016 0.71769 0.00821 0.0
C318 C 0.50494 0.78004 0.95589 0.0
C319 C 0.507 0.81591 0.93203 0.0
C320 C 0.50191 0.78511 0.9954 0.0
C321 C 0.50462 0.85676 0.9482 0.0
C322 C 0.5015 0.86199 0.98721 0.0
C323 C 0.49872 0.83176 0.05047 0.0
C324 C 0.49792 0.79632 0.07482 0.0
C325 C 0.50057 0.82646 0.01111 0.0
C326 C 0.49876 0.75524 0.05882 0.0
C327 C 0.50081 0.74971 0.01959 0.0
H328 H 0.08006 0.43301 0.05443 0.0
H329 H 0.09446 0.43447 0.93309 0.0
H330 H 0.01726 0.43092 0.92556 0.0
H331 H 0.94573 0.43487 0.95341 0.0
H332 H 0.93141 0.43209 0.07471 0.0
H333 H 1.00862 0.42802 0.08214 0.0
C334 C 0.06654 0.43134 0.02627 0.0
C335 C 0.09332 0.43437 0.99438 0.0
C336 C 0.02203 0.42944 0.02211 0.0
C337 C 0.07478 0.43291 0.95818 0.0
C338 C 0.03056 0.43076 0.95383 0.0
C339 C 0.9593 0.43215 0.98149 0.0
C340 C 0.93256 0.43412 0.01346 0.0
C341 C 1.00383 0.43011 0.98559 0.0
C342 C 0.9511 0.43128 0.0496 0.0
C343 C 0.99531 0.4289 0.05388 0.0
H344 H 0.58981 0.0748 0.30728 0.0
H345 H 0.59069 0.09155 0.18616 0.0
H346 H 0.59325 0.01446 0.17758 0.0
H347 H 0.58696 0.94263 0.20438 0.0
H348 H 0.58786 0.92592 0.32551 0.0
H349 H 0.59338 1.00282 0.33404 0.0
C350 C 0.59188 0.06181 0.27896 0.0
C351 C 0.58967 0.08922 0.24741 0.0
C352 C 0.59313 0.01737 0.27419 0.0
C353 C 0.59164 0.07137 0.21098 0.0
C354 C 0.59316 0.02722 0.20603 0.0
C355 C 0.58961 0.95553 0.23268 0.0
C356 C 0.58652 0.92826 0.26426 0.0
C357 C 0.59268 0.99989 0.23743 0.0
C358 C 0.58935 0.94603 0.30067 0.0
C359 C 0.59263 0.99007 0.30559 0.0
H360 H 0.07345 0.59148 0.45287 0.0
H361 H 0.08809 0.58842 0.57415 0.0
H362 H 0.01093 0.5942 0.58178 0.0
H363 H 0.93902 0.59302 0.55383 0.0
H364 H 0.92491 0.59515 0.43259 0.0
H365 H 1.00224 0.59791 0.42517 0.0
C366 C 0.06003 0.59325 0.48105 0.0
C367 C 0.08681 0.58936 0.51289 0.0
C368 C 0.0156 0.59628 0.48523 0.0
C369 C 0.06838 0.59078 0.54911 0.0
C370 C 0.0242 0.59423 0.55351 0.0
C371 C 0.95283 0.59535 0.52581 0.0
C372 C 0.92617 0.59391 0.49378 0.0
C373 C 0.99743 0.59602 0.52175 0.0
C374 C 0.94469 0.59605 0.45767 0.0
C375 C 0.98892 0.59749 0.45342 0.0
H376 H 0.39308 0.07858 0.75354 0.0
H377 H 0.52991 0.09073 0.75311 0.0
H378 H 0.53769 0.0138 0.7496 0.0
H379 H 0.50642 0.94296 0.7485 0.0
H380 H 0.37012 0.92814 0.75158 0.0
H381 H 0.36123 1.00587 0.75212 0.0
C382 C 0.42447 0.06421 0.75268 0.0
C383 C 0.46085 0.09034 0.7542 0.0
C384 C 0.42884 0.01947 0.751 0.0
C385 C 0.50141 0.07134 0.75286 0.0
C386 C 0.50594 0.02732 0.75056 0.0
C387 C 0.47471 0.95671 0.7486 0.0
C388 C 0.43898 0.92987 0.7494 0.0
C389 C 0.46998 1.0011 0.74981 0.0
C390 C 0.39813 0.9482 0.75071 0.0
C391 C 0.39307 0.99261 0.75109 0.0
H392 H 0.44292 0.66397 0.16007 0.0
H393 H 0.34059 0.74942 0.19019 0.0
H394 H 0.2929 0.71245 0.14672 0.0
H395 H 0.28049 0.65611 0.10011 0.0
H396 H 0.38265 0.57013 0.07093 0.0
H397 H 0.43053 0.60766 0.11382 0.0
C398 C 0.41008 0.67432 0.15741 0.0
C399 C 0.39524 0.70926 0.1784 0.0
C400 C 0.38304 0.65325 0.1322 0.0
C401 C 0.35273 0.72249 0.1744 0.0
C402 C 0.32551 0.70152 0.14944 0.0
C403 C 0.31337 0.64594 0.1028 0.0
C404 C 0.32816 0.61067 0.08227 0.0
C405 C 0.34043 0.66708 0.12802 0.0
C406 C 0.37063 0.59735 0.08642 0.0
C407 C 0.39794 0.61863 0.11103 0.0
H408 H 0.43986 0.35321 0.35026 0.0
H409 H 0.3425 0.25848 0.33192 0.0
H410 H 0.29277 0.29953 0.37047 0.0
H411 H 0.27707 0.36219 0.40942 0.0
H412 H 0.37421 0.45736 0.42667 0.0
H413 H 0.4241 0.41591 0.38868 0.0
C414 C 0.40771 0.34157 0.35453 0.0
C415 C 0.39489 0.30287 0.33821 0.0
C416 C 0.37937 0.36522 0.37674 0.0
C417 C 0.35315 0.28824 0.34409 0.0
C418 C 0.32473 0.31161 0.36623 0.0
C419 C 0.30925 0.3737 0.4051 0.0
C420 C 0.32199 0.41265 0.42093 0.0
C421 C 0.33757 0.35004 0.3828 0.0
C422 C 0.36364 0.42741 0.41477 0.0
C423 C 0.39216 0.40381 0.39301 0.0
H424 H 0.66358 0.28442 0.66846 0.0
H425 H 0.56968 0.38324 0.68503 0.0
H426 H 0.61122 0.43177 0.64591 0.0
H427 H 0.67283 0.44549 0.60606 0.0
H428 H 0.76649 0.34679 0.58802 0.0
H429 H 0.72604 0.29857 0.62865 0.0
C430 C 0.65245 0.3167 0.66381 0.0
C431 C 0.61375 0.33029 0.67963 0.0
C432 C 0.67612 0.34423 0.64081 0.0
C433 C 0.59944 0.37206 0.67311 0.0
C434 C 0.62306 0.39978 0.6507 0.0
C435 C 0.68443 0.4134 0.61086 0.0
C436 C 0.7225 0.39966 0.59395 0.0
C437 C 0.66118 0.38604 0.63415 0.0
C438 C 0.73715 0.35806 0.60064 0.0
C439 C 0.71414 0.33054 0.62392 0.0
H440 H 0.66492 0.57839 0.91394 0.0
H441 H 0.75565 0.67913 0.93388 0.0
H442 H 0.71575 0.72613 0.89176 0.0
H443 H 0.65551 0.73836 0.84908 0.0
H444 H 0.5642 0.63801 0.8301 0.0
H445 H 0.60442 0.59078 0.87182 0.0
C446 C 0.67586 0.61072 0.90932 0.0
C447 C 0.71315 0.62528 0.92706 0.0
C448 C 0.65299 0.63743 0.88495 0.0
C449 C 0.72696 0.66719 0.92063 0.0
C450 C 0.70429 0.69402 0.89643 0.0
C451 C 0.64465 0.70603 0.85379 0.0
C452 C 0.60716 0.69156 0.83641 0.0
C453 C 0.66745 0.67936 0.87827 0.0
C454 C 0.59308 0.64981 0.84315 0.0
C455 C 0.61595 0.62286 0.86706 0.0
H456 H 0.32482 0.34365 0.08286 0.0
H457 H 0.36926 0.47341 0.08979 0.0
H458 H 0.42583 0.45161 0.13289 0.0
H459 H 0.4622 0.39596 0.16983 0.0
H460 H 0.41615 0.26694 0.16559 0.0
H461 H 0.36086 0.28804 0.12049 0.0
C462 C 0.34702 0.3671 0.09365 0.0
C463 C 0.34278 0.41007 0.08288 0.0
C464 C 0.37923 0.35447 0.11906 0.0
C465 C 0.37163 0.44011 0.09753 0.0
C466 C 0.4041 0.42768 0.12221 0.0
C467 C 0.44031 0.37245 0.1587 0.0
C468 C 0.4434 0.32991 0.17089 0.0
C469 C 0.40817 0.38499 0.13327 0.0
C470 C 0.41427 0.29991 0.1568 0.0
C471 C 0.38273 0.31196 0.13094 0.0
H472 H 0.66828 0.31805 0.34043 0.0
H473 H 0.53869 0.36251 0.34986 0.0
H474 H 0.56184 0.4206 0.39086 0.0
H475 H 0.61913 0.45897 0.42459 0.0
H476 H 0.74764 0.41159 0.41882 0.0
H477 H 0.72497 0.35471 0.376 0.0
C478 C 0.64514 0.34051 0.35139 0.0
C479 C 0.60185 0.33599 0.34182 0.0
C480 C 0.65856 0.37343 0.37567 0.0
C481 C 0.57221 0.36512 0.35673 0.0
C482 C 0.58543 0.39847 0.38015 0.0
C483 C 0.64207 0.43628 0.41368 0.0
C484 C 0.68504 0.43957 0.42457 0.0
C485 C 0.62853 0.40301 0.38981 0.0
C486 C 0.71441 0.40956 0.41086 0.0
C487 C 0.70145 0.37712 0.38635 0.0
H488 H 0.60928 0.68636 0.68226 0.0
H489 H 0.49419 0.62394 0.64538 0.0
H490 H 0.5352 0.57892 0.60298 0.0
H491 H 0.60324 0.55573 0.5772 0.0
H492 H 0.71964 0.61606 0.6133 0.0
H493 H 0.67872 0.66337 0.65494 0.0
C494 C 0.59323 0.66278 0.66509 0.0
C495 C 0.54843 0.65885 0.66711 0.0
C496 C 0.61725 0.63663 0.64048 0.0
C497 C 0.52832 0.62832 0.64419 0.0
C498 C 0.55185 0.60229 0.61998 0.0
C499 C 0.61988 0.57932 0.59398 0.0
C500 C 0.6646 0.58219 0.59201 0.0
C501 C 0.59624 0.60608 0.61793 0.0
C502 C 0.68529 0.61319 0.61401 0.0
C503 C 0.66186 0.64013 0.638 0.0
H504 H 0.2986 0.60285 0.90762 0.0
H505 H 0.41322 0.52803 0.91565 0.0
H506 H 0.45112 0.57964 0.87618 0.0
H507 H 0.45166 0.6464 0.83935 0.0
H508 H 0.33547 0.71851 0.82746 0.0
H509 H 0.29828 0.66803 0.86843 0.0
C510 C 0.33186 0.59801 0.90066 0.0
C511 C 0.35312 0.56177 0.91452 0.0
C512 C 0.35317 0.62743 0.87731 0.0
C513 C 0.39612 0.55548 0.905 0.0
C514 C 0.41782 0.5851 0.88261 0.0
C515 C 0.41823 0.65109 0.84585 0.0
C516 C 0.39643 0.68632 0.83055 0.0
C517 C 0.39671 0.62124 0.86862 0.0
C518 C 0.35297 0.69164 0.8388 0.0
C519 C 0.33168 0.6628 0.86228 0.0
H520 H 0.36692 0.57011 0.4172 0.0
H521 H 0.29568 0.68589 0.43448 0.0
H522 H 0.34501 0.72462 0.39344 0.0
H523 H 0.40902 0.72567 0.35254 0.0
H524 H 0.48324 0.61128 0.33972 0.0
H525 H 0.43254 0.57194 0.379 0.0
C526 C 0.36217 0.6038 0.41187 0.0
C527 C 0.32752 0.62504 0.42867 0.0
C528 C 0.39137 0.62614 0.38908 0.0
C529 C 0.32213 0.66882 0.42195 0.0
C530 C 0.3503 0.69098 0.39842 0.0
C531 C 0.41389 0.69214 0.35844 0.0
C532 C 0.44969 0.67132 0.34327 0.0
C533 C 0.38508 0.67001 0.38184 0.0
C534 C 0.45607 0.62798 0.35137 0.0
C535 C 0.427 0.60548 0.37367 0.0
H536 H 0.39829 0.46682 0.59181 0.0
H537 H 0.26837 0.42335 0.59648 0.0
H538 H 0.28891 0.36664 0.64045 0.0
H539 H 0.34428 0.3288 0.67729 0.0
H540 H 0.47473 0.37114 0.66994 0.0
H541 H 0.45354 0.42872 0.62773 0.0
C542 C 0.37441 0.44522 0.60275 0.0
C543 C 0.33176 0.44955 0.59101 0.0
C544 C 0.38661 0.4123 0.6276 0.0
C545 C 0.3014 0.42063 0.6049 0.0
C546 C 0.31314 0.38826 0.63014 0.0
C547 C 0.36803 0.35074 0.66659 0.0
C548 C 0.41105 0.34556 0.67705 0.0
C549 C 0.35571 0.38366 0.64165 0.0
C550 C 0.4414 0.37415 0.66248 0.0
C551 C 0.42932 0.40724 0.63828 0.0
H552 H 0.69548 0.35344 0.93089 0.0
H553 H 0.65667 0.48462 0.91881 0.0
H554 H 0.59712 0.46301 0.87891 0.0
H555 H 0.55656 0.40687 0.84603 0.0
H556 H 0.59766 0.27642 0.85492 0.0
H557 H 0.65549 0.2975 0.89738 0.0
C558 C 0.67389 0.37728 0.91967 0.0
C559 C 0.68057 0.42058 0.92805 0.0
C560 C 0.63999 0.36471 0.89609 0.0
C561 C 0.65245 0.45106 0.91286 0.0
C562 C 0.61825 0.43874 0.89004 0.0
C563 C 0.57793 0.38312 0.85767 0.0
C564 C 0.57271 0.34011 0.84761 0.0
C565 C 0.61173 0.39567 0.88136 0.0
C566 C 0.60115 0.30969 0.86224 0.0
C567 C 0.63417 0.32176 0.88651 0.0
H568 H 0.66891 0.70001 0.17941 0.0
H569 H 0.54113 0.65043 0.17133 0.0
H570 H 0.56626 0.59288 0.13068 0.0
H571 H 0.62441 0.55713 0.09623 0.0
H572 H 0.75116 0.60896 0.10102 0.0
H573 H 0.72676 0.665 0.14401 0.0
C574 C 0.64661 0.67648 0.16892 0.0
C575 C 0.60324 0.67946 0.17866 0.0
C576 C 0.66114 0.64384 0.14487 0.0
C577 C 0.57469 0.64897 0.16435 0.0
C578 C 0.58904 0.61596 0.1411 0.0
C579 C 0.64667 0.58048 0.10705 0.0
C580 C 0.68958 0.57879 0.09574 0.0
C581 C 0.63216 0.61311 0.13108 0.0
C582 C 0.71799 0.60974 0.10929 0.0
C583 C 0.70404 0.6417 0.1339 0.0
loop_
_geom_bond_atom_site_label_1
_geom_bond_atom_site_label_2
_geom_bond_distance
_geom_bond_site_symmetry_2
_ccdc_geom_bond_type
C0 C1 1.351 . S
C0 N3 1.368 . S
C0 H5 0.931 . S
C1 C0 1.351 . S
C1 N2 1.373 . S
C1 H29 0.930 . S
N2 C1 1.373 . S
N2 C4 1.340 . S
N3 C0 1.368 . S
N3 C4 1.321 . S
N3 Co6 2.135 . S
C4 N2 1.340 . S
C4 N3 1.321 . S
C4 H28 0.930 . S
H5 C0 0.931 . S
Co6 N3 2.135 . S
Co6 N9 2.121 . S
Co6 O14 2.055 . S
Co6 O17 2.039 . S
Co6 N20 2.140 . S
C7 O8 1.227 . S
C7 O17 1.265 . S
O8 C7 1.227 . S
N9 Co6 2.121 . S
N9 C11 1.375 1_554 S
N9 C12 1.313 1_554 S
C10 C11 1.338 . S
C10 N13 1.377 . S
C10 H30 0.930 . S
C11 N9 1.375 1_556 S
C11 C10 1.338 . S
C11 H15 0.931 . S
C12 N9 1.313 1_556 S
C12 N13 1.344 . S
C12 H16 0.921 1_556 S
N13 C10 1.377 . S
N13 C12 1.344 . S
O14 Co6 2.055 . S
O14 C18 1.253 . S
H15 C11 0.931 . S
H16 C12 0.921 1_554 S
O17 Co6 2.039 . S
O17 C7 1.265 . S
C18 O14 1.253 . S
C18 O19 1.227 . S
O19 C18 1.227 . S
N20 Co6 2.140 . S
N20 C23 1.346 . S
N20 C24 1.345 . S
C21 C22 1.387 . S
C21 C25 1.391 1_554 S
C22 C21 1.387 . S
C22 C23 1.369 . S
C22 H31 0.929 . S
C23 N20 1.346 . S
C23 C22 1.369 . S
C23 H26 0.928 . S
C24 N20 1.345 . S
C24 C25 1.371 1_554 S
C24 H27 0.931 . S
C25 C21 1.391 1_556 S
C25 C24 1.371 1_556 S
C25 H32 0.930 . S
H26 C23 0.928 . S
H27 C24 0.931 . S
H28 C4 0.930 . S
H29 C1 0.930 . S
H30 C10 0.930 . S
H31 C22 0.929 . S
H32 C25 0.930 . S
C33 C34 1.351 . S
C33 N36 1.368 . S
C33 H38 0.931 . S
C34 C33 1.351 . S
C34 N35 1.373 . S
C34 H62 0.930 . S
N35 C34 1.373 . S
N35 C37 1.340 . S
N36 C33 1.368 . S
N36 C37 1.321 . S
N36 Co39 2.135 . S
C37 N35 1.340 . S
C37 N36 1.321 . S
C37 H61 0.930 . S
H38 C33 0.931 . S
Co39 N36 2.135 . S
Co39 N42 2.121 . S
Co39 O47 2.055 . S
Co39 O50 2.039 . S
Co39 N53 2.140 . S
C40 O41 1.227 . S
C40 O50 1.265 . S
O41 C40 1.227 . S
N42 Co39 2.121 . S
N42 C44 1.375 . S
N42 C45 1.313 . S
C43 C44 1.338 . S
C43 N46 1.377 . S
C43 H63 0.930 . S
C44 N42 1.375 . S
C44 C43 1.338 . S
C44 H48 0.931 . S
C45 N42 1.313 . S
C45 N46 1.344 . S
C45 H49 0.930 . S
N46 C43 1.377 . S
N46 C45 1.344 . S
O47 Co39 2.055 . S
O47 C51 1.253 . S
H48 C44 0.931 . S
H49 C45 0.930 . S
O50 Co39 2.039 . S
O50 C40 1.265 . S
C51 O47 1.253 . S
C51 O52 1.227 . S
O52 C51 1.227 . S
N53 Co39 2.140 . S
N53 C56 1.346 . S
N53 C57 1.345 . S
C54 C55 1.387 . S
C54 C58 1.391 . S
C55 C54 1.387 . S
C55 C56 1.369 . S
C55 H64 0.929 . S
C56 N53 1.346 . S
C56 C55 1.369 . S
C56 H59 0.928 . S
C57 N53 1.345 . S
C57 C58 1.371 . S
C57 H60 0.931 . S
C58 C54 1.391 . S
C58 C57 1.371 . S
C58 H65 0.930 . S
H59 C56 0.928 . S
H60 C57 0.931 . S
H61 C37 0.930 . S
H62 C34 0.930 . S
H63 C43 0.930 . S
H64 C55 0.929 . S
H65 C58 0.930 . S
C66 C67 1.351 . S
C66 N69 1.368 . S
C66 H71 0.931 . S
C67 C66 1.351 . S
C67 N68 1.373 . S
C67 H95 0.930 . S
N68 C67 1.373 . S
N68 C70 1.340 . S
N69 C66 1.368 . S
N69 C70 1.321 . S
N69 Co72 2.135 . S
C70 N68 1.340 . S
C70 N69 1.321 . S
C70 H94 0.930 . S
H71 C66 0.931 . S
Co72 N69 2.135 . S
Co72 N75 2.121 . S
Co72 O80 2.055 . S
Co72 O83 2.039 . S
Co72 N86 2.140 . S
C73 O74 1.227 . S
C73 O83 1.265 . S
O74 C73 1.227 . S
N75 Co72 2.121 . S
N75 C77 1.375 . S
N75 C78 1.313 . S
C76 C77 1.338 . S
C76 N79 1.377 . S
C76 H96 0.930 . S
C77 N75 1.375 . S
C77 C76 1.338 . S
C77 H81 0.931 . S
C78 N75 1.313 . S
C78 N79 1.344 . S
C78 H82 0.930 . S
N79 C76 1.377 . S
N79 C78 1.344 . S
O80 Co72 2.055 . S
O80 C84 1.253 . S
H81 C77 0.931 . S
H82 C78 0.930 . S
O83 Co72 2.039 . S
O83 C73 1.265 . S
C84 O80 1.253 . S
C84 O85 1.227 . S
O85 C84 1.227 . S
N86 Co72 2.140 . S
N86 C89 1.346 . S
N86 C90 1.345 . S
C87 C88 1.387 . S
C87 C91 1.391 . S
C88 C87 1.387 . S
C88 C89 1.369 . S
C88 H97 0.929 . S
C89 N86 1.346 . S
C89 C88 1.369 . S
C89 H92 0.928 . S
C90 N86 1.345 . S
C90 C91 1.371 . S
C90 H93 0.931 . S
C91 C87 1.391 . S
C91 C90 1.371 . S
C91 H98 0.930 . S
H92 C89 0.928 . S
H93 C90 0.931 . S
H94 C70 0.930 . S
H95 C67 0.930 . S
H96 C76 0.930 . S
H97 C88 0.929 . S
H98 C91 0.930 . S
C99 C100 1.351 . S
C99 N102 1.368 . S
C99 H104 0.931 . S
C100 C99 1.351 . S
C100 N101 1.373 . S
C100 H128 0.930 . S
N101 C100 1.373 . S
N101 C103 1.340 . S
N102 C99 1.368 . S
N102 C103 1.321 . S
N102 Co105 2.135 . S
C103 N101 1.340 . S
C103 N102 1.321 . S
C103 H127 0.930 . S
H104 C99 0.931 . S
Co105 N102 2.135 . S
Co105 N108 2.121 . S
Co105 O113 2.055 . S
Co105 O116 2.039 . S
Co105 N119 2.140 . S
C106 O107 1.227 . S
C106 O116 1.265 . S
O107 C106 1.227 . S
N108 Co105 2.121 . S
N108 C110 1.375 . S
N108 C111 1.313 . S
C109 C110 1.338 . S
C109 N112 1.377 . S
C109 H129 0.930 . S
C110 N108 1.375 . S
C110 C109 1.338 . S
C110 H114 0.931 . S
C111 N108 1.313 . S
C111 N112 1.344 . S
C111 H115 0.930 . S
N112 C109 1.377 . S
N112 C111 1.344 . S
O113 Co105 2.055 . S
O113 C117 1.253 . S
H114 C110 0.931 . S
H115 C111 0.930 . S
O116 Co105 2.039 . S
O116 C106 1.265 . S
C117 O113 1.253 . S
C117 O118 1.227 . S
O118 C117 1.227 . S
N119 Co105 2.140 . S
N119 C122 1.346 . S
N119 C123 1.345 . S
C120 C121 1.387 . S
C120 C124 1.391 . S
C121 C120 1.387 . S
C121 C122 1.369 . S
C121 H130 0.929 . S
C122 N119 1.346 . S
C122 C121 1.369 . S
C122 H125 0.928 . S
C123 N119 1.345 . S
C123 C124 1.371 . S
C123 H126 0.931 . S
C124 C120 1.391 . S
C124 C123 1.371 . S
C124 H131 0.930 . S
H125 C122 0.928 . S
H126 C123 0.931 . S
H127 C103 0.930 . S
H128 C100 0.930 . S
H129 C109 0.930 . S
H130 C121 0.929 . S
H131 C124 0.930 . S
C132 C133 1.351 . S
C132 N135 1.368 . S
C132 H137 0.931 . S
C133 C132 1.351 . S
C133 N134 1.373 . S
C133 H161 0.930 . S
N134 C133 1.373 . S
N134 C136 1.340 . S
N135 C132 1.368 . S
N135 C136 1.321 . S
N135 Co138 2.135 . S
C136 N134 1.340 . S
C136 N135 1.321 . S
C136 H160 0.930 . S
H137 C132 0.931 . S
Co138 N135 2.135 . S
Co138 N141 2.121 . S
Co138 O146 2.055 . S
Co138 O149 2.039 . S
Co138 N152 2.140 . S
C139 O140 1.227 . S
C139 O149 1.265 . S
O140 C139 1.227 . S
N141 Co138 2.121 . S
N141 C143 1.375 . S
N141 C144 1.313 . S
C142 C143 1.338 . S
C142 N145 1.377 . S
C142 H162 0.930 . S
C143 N141 1.375 . S
C143 C142 1.338 . S
C143 H147 0.931 . S
C144 N141 1.313 . S
C144 N145 1.344 . S
C144 H148 0.930 . S
N145 C142 1.377 . S
N145 C144 1.344 . S
O146 Co138 2.055 . S
O146 C150 1.253 . S
H147 C143 0.931 . S
H148 C144 0.930 . S
O149 Co138 2.039 . S
O149 C139 1.265 . S
C150 O146 1.253 . S
C150 O151 1.227 . S
O151 C150 1.227 . S
N152 Co138 2.140 . S
N152 C155 1.346 . S
N152 C156 1.345 . S
C153 C154 1.387 . S
C153 C157 1.391 . S
C154 C153 1.387 . S
C154 C155 1.369 . S
C154 H163 0.929 . S
C155 N152 1.346 . S
C155 C154 1.369 . S
C155 H158 0.928 . S
C156 N152 1.345 . S
C156 C157 1.371 . S
C156 H159 0.931 . S
C157 C153 1.391 . S
C157 C156 1.371 . S
C157 H164 0.930 . S
H158 C155 0.928 . S
H159 C156 0.931 . S
H160 C136 0.930 . S
H161 C133 0.930 . S
H162 C142 0.930 . S
H163 C154 0.929 . S
H164 C157 0.930 . S
C165 C166 1.351 . S
C165 N168 1.368 . S
C165 H170 0.931 . S
C166 C165 1.351 . S
C166 N167 1.373 . S
C166 H194 0.930 . S
N167 C166 1.373 . S
N167 C169 1.340 . S
N168 C165 1.368 . S
N168 C169 1.321 . S
N168 Co171 2.135 . S
C169 N167 1.340 . S
C169 N168 1.321 . S
C169 H193 0.930 . S
H170 C165 0.931 . S
Co171 N168 2.135 . S
Co171 N174 2.121 . S
Co171 O179 2.055 . S
Co171 O182 2.039 . S
Co171 N185 2.140 . S
C172 O173 1.227 . S
C172 O182 1.265 . S
O173 C172 1.227 . S
N174 Co171 2.121 . S
N174 C176 1.375 . S
N174 C177 1.313 . S
C175 C176 1.338 . S
C175 N178 1.377 . S
C175 H195 0.930 . S
C176 N174 1.375 . S
C176 C175 1.338 . S
C176 H180 0.931 . S
C177 N174 1.313 . S
C177 N178 1.344 . S
C177 H181 0.930 . S
N178 C175 1.377 . S
N178 C177 1.344 . S
O179 Co171 2.055 . S
O179 C183 1.253 . S
H180 C176 0.931 . S
H181 C177 0.930 . S
O182 Co171 2.039 . S
O182 C172 1.265 . S
C183 O179 1.253 . S
C183 O184 1.227 . S
O184 C183 1.227 . S
N185 Co171 2.140 . S
N185 C188 1.346 . S
N185 C189 1.345 . S
C186 C187 1.387 . S
C186 C190 1.391 . S
C187 C186 1.387 . S
C187 C188 1.369 . S
C187 H196 0.929 . S
C188 N185 1.346 . S
C188 C187 1.369 . S
C188 H191 0.928 . S
C189 N185 1.345 . S
C189 C190 1.371 . S
C189 H192 0.931 . S
C190 C186 1.391 . S
C190 C189 1.371 . S
C190 H197 0.930 . S
H191 C188 0.928 . S
H192 C189 0.931 . S
H193 C169 0.930 . S
H194 C166 0.930 . S
H195 C175 0.930 . S
H196 C187 0.929 . S
H197 C190 0.930 . S
C198 C199 1.351 . S
C198 N201 1.368 . S
C198 H203 0.931 . S
C199 C198 1.351 . S
C199 N200 1.373 . S
C199 H227 0.930 . S
N200 C199 1.373 . S
N200 C202 1.340 . S
N201 C198 1.368 . S
N201 C202 1.321 . S
N201 Co204 2.135 . S
C202 N200 1.340 . S
C202 N201 1.321 . S
C202 H226 0.930 . S
H203 C198 0.931 . S
Co204 N201 2.135 . S
Co204 N207 2.121 . S
Co204 O212 2.055 . S
Co204 O215 2.039 . S
Co204 N218 2.140 . S
C205 O206 1.227 . S
C205 O215 1.265 . S
O206 C205 1.227 . S
N207 Co204 2.121 . S
N207 C209 1.375 1_556 S
N207 C210 1.313 1_556 S
C208 C209 1.338 . S
C208 N211 1.377 . S
C208 H228 0.930 . S
C209 N207 1.375 1_554 S
C209 C208 1.338 . S
C209 H213 0.931 . S
C210 N207 1.313 1_554 S
C210 N211 1.344 . S
C210 H214 0.921 1_554 S
N211 C208 1.377 . S
N211 C210 1.344 . S
O212 Co204 2.055 . S
O212 C216 1.253 . S
H213 C209 0.931 . S
H214 C210 0.921 1_556 S
O215 Co204 2.039 . S
O215 C205 1.265 . S
C216 O212 1.253 . S
C216 O217 1.227 . S
O217 C216 1.227 . S
N218 Co204 2.140 . S
N218 C221 1.346 . S
N218 C222 1.345 . S
C219 C220 1.387 . S
C219 C223 1.391 1_556 S
C220 C219 1.387 . S
C220 C221 1.369 . S
C220 H229 0.929 . S
C221 N218 1.346 . S
C221 C220 1.369 . S
C221 H224 0.928 . S
C222 N218 1.345 . S
C222 C223 1.371 1_556 S
C222 H225 0.931 . S
C223 C219 1.391 1_554 S
C223 C222 1.371 1_554 S
C223 H230 0.930 . S
H224 C221 0.928 . S
H225 C222 0.931 . S
H226 C202 0.930 . S
H227 C199 0.930 . S
H228 C208 0.930 . S
H229 C220 0.929 . S
H230 C223 0.930 . S
C231 C232 1.351 . S
C231 N234 1.368 . S
C231 H236 0.931 . S
C232 C231 1.351 . S
C232 N233 1.373 . S
C232 H260 0.930 . S
N233 C232 1.373 . S
N233 C235 1.340 . S
N234 C231 1.368 . S
N234 C235 1.321 . S
N234 Co237 2.135 . S
C235 N233 1.340 . S
C235 N234 1.321 . S
C235 H259 0.930 . S
H236 C231 0.931 . S
Co237 N234 2.135 . S
Co237 N240 2.121 . S
Co237 O245 2.055 . S
Co237 O248 2.039 . S
Co237 N251 2.140 . S
C238 O239 1.227 . S
C238 O248 1.265 . S
O239 C238 1.227 . S
N240 Co237 2.121 . S
N240 C242 1.375 . S
N240 C243 1.313 . S
C241 C242 1.338 . S
C241 N244 1.377 . S
C241 H261 0.930 . S
C242 N240 1.375 . S
C242 C241 1.338 . S
C242 H246 0.931 . S
C243 N240 1.313 . S
C243 N244 1.344 . S
C243 H247 0.930 . S
N244 C241 1.377 . S
N244 C243 1.344 . S
O245 Co237 2.055 . S
O245 C249 1.253 . S
H246 C242 0.931 . S
H247 C243 0.930 . S
O248 Co237 2.039 . S
O248 C238 1.265 . S
C249 O245 1.253 . S
C249 O250 1.227 . S
O250 C249 1.227 . S
N251 Co237 2.140 . S
N251 C254 1.346 . S
N251 C255 1.345 . S
C252 C253 1.387 . S
C252 C256 1.391 . S
C253 C252 1.387 . S
C253 C254 1.369 . S
C253 H262 0.929 . S
C254 N251 1.346 . S
C254 C253 1.369 . S
C254 H257 0.928 . S
C255 N251 1.345 . S
C255 C256 1.371 . S
C255 H258 0.931 . S
C256 C252 1.391 . S
C256 C255 1.371 . S
C256 H263 0.930 . S
H257 C254 0.928 . S
H258 C255 0.931 . S
H259 C235 0.930 . S
H260 C232 0.930 . S
H261 C241 0.930 . S
H262 C253 0.929 . S
H263 C256 0.930 . S
H264 C270 0.930 . S
H265 C273 0.930 . S
H266 C274 0.930 . S
H267 C275 0.930 . S
H268 C278 0.930 . S
H269 C279 0.930 . S
C270 H264 0.930 . S
C270 C271 1.355 . S
C270 C272 1.415 . S
C271 C270 1.355 . S
C271 C273 1.419 . S
C272 C270 1.415 . S
C272 C277 1.425 . S
C272 C279 1.409 . S
C273 H265 0.930 . S
C273 C271 1.419 . S
C273 C274 1.362 . S
C274 H266 0.930 . S
C274 C273 1.362 . S
C274 C277 1.409 . S
C275 H267 0.930 . S
C275 C276 1.355 . S
C275 C277 1.415 . S
C276 C275 1.355 . S
C276 C278 1.419 . S
C277 C272 1.425 . S
C277 C274 1.409 . S
C277 C275 1.415 . S
C278 H268 0.930 . S
C278 C276 1.419 . S
C278 C279 1.362 . S
C279 H269 0.930 . S
C279 C272 1.409 . S
C279 C278 1.362 . S
H280 C286 0.930 . S
H281 C289 0.930 . S
H282 C290 0.930 . S
H283 C291 0.930 . S
H284 C294 0.930 . S
H285 C295 0.930 . S
C286 H280 0.930 . S
C286 C287 1.355 . S
C286 C288 1.415 . S
C287 C286 1.355 . S
C287 C289 1.419 . S
C288 C286 1.415 . S
C288 C293 1.425 . S
C288 C295 1.409 . S
C289 H281 0.930 . S
C289 C287 1.419 . S
C289 C290 1.362 . S
C290 H282 0.930 . S
C290 C289 1.362 . S
C290 C293 1.409 . S
C291 H283 0.930 . S
C291 C292 1.355 . S
C291 C293 1.415 . S
C292 C291 1.355 . S
C292 C294 1.419 . S
C293 C288 1.425 . S
C293 C290 1.409 . S
C293 C291 1.415 . S
C294 H284 0.930 . S
C294 C292 1.419 . S
C294 C295 1.362 . S
C295 H285 0.930 . S
C295 C288 1.409 . S
C295 C294 1.362 . S
H296 C302 0.930 . S
H297 C305 0.930 . S
H298 C306 0.930 . S
H299 C307 0.930 . S
H300 C310 0.930 . S
H301 C311 0.930 . S
C302 H296 0.930 . S
C302 C303 1.355 . S
C302 C304 1.415 . S
C303 C302 1.355 . S
C303 C305 1.419 . S
C304 C302 1.415 . S
C304 C309 1.425 . S
C304 C311 1.409 . S
C305 H297 0.930 . S
C305 C303 1.419 . S
C305 C306 1.362 . S
C306 H298 0.930 . S
C306 C305 1.362 . S
C306 C309 1.409 . S
C307 H299 0.930 . S
C307 C308 1.355 . S
C307 C309 1.415 . S
C308 C307 1.355 . S
C308 C310 1.419 . S
C309 C304 1.425 . S
C309 C306 1.409 . S
C309 C307 1.415 . S
C310 H300 0.930 . S
C310 C308 1.419 . S
C310 C311 1.362 . S
C311 H301 0.930 . S
C311 C304 1.409 . S
C311 C310 1.362 . S
H312 C318 0.930 . S
H313 C321 0.930 . S
H314 C322 0.930 . S
H315 C323 0.930 . S
H316 C326 0.930 . S
H317 C327 0.930 . S
C318 H312 0.930 . S
C318 C319 1.355 . S
C318 C320 1.415 . S
C319 C318 1.355 . S
C319 C321 1.419 . S
C320 C318 1.415 . S
C320 C325 1.425 1_556 S
C320 C327 1.409 1_556 S
C321 H313 0.930 . S
C321 C319 1.419 . S
C321 C322 1.362 . S
C322 H314 0.930 . S
C322 C321 1.362 . S
C322 C325 1.409 1_556 S
C323 H315 0.930 . S
C323 C324 1.355 . S
C323 C325 1.415 . S
C324 C323 1.355 . S
C324 C326 1.419 . S
C325 C320 1.425 1_554 S
C325 C322 1.409 1_554 S
C325 C323 1.415 . S
C326 H316 0.930 . S
C326 C324 1.419 . S
C326 C327 1.362 . S
C327 H317 0.930 . S
C327 C320 1.409 1_554 S
C327 C326 1.362 . S
H328 C334 0.930 . S
H329 C337 0.930 . S
H330 C338 0.930 . S
H331 C339 0.930 . S
H332 C342 0.930 . S
H333 C343 0.930 . S
C334 H328 0.930 . S
C334 C335 1.355 1_554 S
C334 C336 1.415 . S
C335 C334 1.355 1_556 S
C335 C337 1.419 . S
C336 C334 1.415 . S
C336 C341 1.425 1_454 S
C336 C343 1.409 1_455 S
C337 H329 0.930 . S
C337 C335 1.419 . S
C337 C338 1.362 . S
C338 H330 0.930 . S
C338 C337 1.362 . S
C338 C341 1.409 1_455 S
C339 H331 0.930 . S
C339 C340 1.355 1_556 S
C339 C341 1.415 . S
C340 C339 1.355 1_554 S
C340 C342 1.419 . S
C341 C336 1.425 1_656 S
C341 C338 1.409 1_655 S
C341 C339 1.415 . S
C342 H332 0.930 . S
C342 C340 1.419 . S
C342 C343 1.362 . S
C343 H333 0.930 . S
C343 C336 1.409 1_655 S
C343 C342 1.362 . S
H344 C350 0.930 . S
H345 C353 0.930 . S
H346 C354 0.930 . S
H347 C355 0.930 . S
H348 C358 0.930 . S
H349 C359 0.930 . S
C350 H344 0.930 . S
C350 C351 1.355 . S
C350 C352 1.415 . S
C351 C350 1.355 . S
C351 C353 1.419 . S
C352 C350 1.415 . S
C352 C357 1.425 1_545 S
C352 C359 1.409 1_545 S
C353 H345 0.930 . S
C353 C351 1.419 . S
C353 C354 1.362 . S
C354 H346 0.930 . S
C354 C353 1.362 . S
C354 C357 1.409 1_545 S
C355 H347 0.930 . S
C355 C356 1.355 . S
C355 C357 1.415 . S
C356 C355 1.355 . S
C356 C358 1.419 . S
C357 C352 1.425 1_565 S
C357 C354 1.409 1_565 S
C357 C355 1.415 . S
C358 H348 0.930 . S
C358 C356 1.419 . S
C358 C359 1.362 . S
C359 H349 0.930 . S
C359 C352 1.409 1_565 S
C359 C358 1.362 . S
H360 C366 0.930 . S
H361 C369 0.930 . S
H362 C370 0.930 . S
H363 C371 0.930 . S
H364 C374 0.930 . S
H365 C375 0.930 . S
C366 H360 0.930 . S
C366 C367 1.355 . S
C366 C368 1.415 . S
C367 C366 1.355 . S
C367 C369 1.419 . S
C368 C366 1.415 . S
C368 C373 1.425 1_455 S
C368 C375 1.409 1_455 S
C369 H361 0.930 . S
C369 C367 1.419 . S
C369 C370 1.362 . S
C370 H362 0.930 . S
C370 C369 1.362 . S
C370 C373 1.409 1_455 S
C371 H363 0.930 . S
C371 C372 1.355 . S
C371 C373 1.415 . S
C372 C371 1.355 . S
C372 C374 1.419 . S
C373 C368 1.425 1_655 S
C373 C370 1.409 1_655 S
C373 C371 1.415 . S
C374 H364 0.930 . S
C374 C372 1.419 . S
C374 C375 1.362 . S
C375 H365 0.930 . S
C375 C368 1.409 1_655 S
C375 C374 1.362 . S
H376 C382 0.930 . S
H377 C385 0.930 . S
H378 C386 0.930 . S
H379 C387 0.930 . S
H380 C390 0.930 . S
H381 C391 0.930 . S
C382 H376 0.930 . S
C382 C383 1.355 . S
C382 C384 1.415 . S
C383 C382 1.355 . S
C383 C385 1.419 . S
C384 C382 1.415 . S
C384 C389 1.425 1_545 S
C384 C391 1.409 1_545 S
C385 H377 0.930 . S
C385 C383 1.419 . S
C385 C386 1.362 . S
C386 H378 0.930 . S
C386 C385 1.362 . S
C386 C389 1.409 1_545 S
C387 H379 0.930 . S
C387 C388 1.355 . S
C387 C389 1.415 . S
C388 C387 1.355 . S
C388 C390 1.419 . S
C389 C384 1.425 1_565 S
C389 C386 1.409 1_565 S
C389 C387 1.415 . S
C390 H380 0.930 . S
C390 C388 1.419 . S
C390 C391 1.362 . S
C391 H381 0.930 . S
C391 C384 1.409 1_565 S
C391 C390 1.362 . S
H392 C398 0.930 . S
H393 C401 0.930 . S
H394 C402 0.930 . S
H395 C403 0.930 . S
H396 C406 0.930 . S
H397 C407 0.930 . S
C398 H392 0.930 . S
C398 C399 1.355 . S
C398 C400 1.415 . S
C399 C398 1.355 . S
C399 C401 1.419 . S
C400 C398 1.415 . S
C400 C405 1.425 . S
C400 C407 1.409 . S
C401 H393 0.930 . S
C401 C399 1.419 . S
C401 C402 1.362 . S
C402 H394 0.930 . S
C402 C401 1.362 . S
C402 C405 1.409 . S
C403 H395 0.930 . S
C403 C404 1.355 . S
C403 C405 1.415 . S
C404 C403 1.355 . S
C404 C406 1.419 . S
C405 C400 1.425 . S
C405 C402 1.409 . S
C405 C403 1.415 . S
C406 H396 0.930 . S
C406 C404 1.419 . S
C406 C407 1.362 . S
C407 H397 0.930 . S
C407 C400 1.409 . S
C407 C406 1.362 . S
H408 C414 0.930 . S
H409 C417 0.930 . S
H410 C418 0.930 . S
H411 C419 0.930 . S
H412 C422 0.930 . S
H413 C423 0.930 . S
C414 H408 0.930 . S
C414 C415 1.355 . S
C414 C416 1.415 . S
C415 C414 1.355 . S
C415 C417 1.419 . S
C416 C414 1.415 . S
C416 C421 1.425 . S
C416 C423 1.409 . S
C417 H409 0.930 . S
C417 C415 1.419 . S
C417 C418 1.362 . S
C418 H410 0.930 . S
C418 C417 1.362 . S
C418 C421 1.409 . S
C419 H411 0.930 . S
C419 C420 1.355 . S
C419 C421 1.415 . S
C420 C419 1.355 . S
C420 C422 1.419 . S
C421 C416 1.425 . S
C421 C418 1.409 . S
C421 C419 1.415 . S
C422 H412 0.930 . S
C422 C420 1.419 . S
C422 C423 1.362 . S
C423 H413 0.930 . S
C423 C416 1.409 . S
C423 C422 1.362 . S
H424 C430 0.930 . S
H425 C433 0.930 . S
H426 C434 0.930 . S
H427 C435 0.930 . S
H428 C438 0.930 . S
H429 C439 0.930 . S
C430 H424 0.930 . S
C430 C431 1.355 . S
C430 C432 1.415 . S
C431 C430 1.355 . S
C431 C433 1.419 . S
C432 C430 1.415 . S
C432 C437 1.425 . S
C432 C439 1.409 . S
C433 H425 0.930 . S
C433 C431 1.419 . S
C433 C434 1.362 . S
C434 H426 0.930 . S
C434 C433 1.362 . S
C434 C437 1.409 . S
C435 H427 0.930 . S
C435 C436 1.355 . S
C435 C437 1.415 . S
C436 C435 1.355 . S
C436 C438 1.419 . S
C437 C432 1.425 . S
C437 C434 1.409 . S
C437 C435 1.415 . S
C438 H428 0.930 . S
C438 C436 1.419 . S
C438 C439 1.362 . S
C439 H429 0.930 . S
C439 C432 1.409 . S
C439 C438 1.362 . S
H440 C446 0.930 . S
H441 C449 0.930 . S
H442 C450 0.930 . S
H443 C451 0.930 . S
H444 C454 0.930 . S
H445 C455 0.930 . S
C446 H440 0.930 . S
C446 C447 1.355 . S
C446 C448 1.415 . S
C447 C446 1.355 . S
C447 C449 1.419 . S
C448 C446 1.415 . S
C448 C453 1.425 . S
C448 C455 1.409 . S
C449 H441 0.930 . S
C449 C447 1.419 . S
C449 C450 1.362 . S
C450 H442 0.930 . S
C450 C449 1.362 . S
C450 C453 1.409 . S
C451 H443 0.930 . S
C451 C452 1.355 . S
C451 C453 1.415 . S
C452 C451 1.355 . S
C452 C454 1.419 . S
C453 C448 1.425 . S
C453 C450 1.409 . S
C453 C451 1.415 . S
C454 H444 0.930 . S
C454 C452 1.419 . S
C454 C455 1.362 . S
C455 H445 0.930 . S
C455 C448 1.409 . S
C455 C454 1.362 . S
H456 C462 0.930 . S
H457 C465 0.930 . S
H458 C466 0.930 . S
H459 C467 0.930 . S
H460 C470 0.930 . S
H461 C471 0.930 . S
C462 H456 0.930 . S
C462 C463 1.355 . S
C462 C464 1.415 . S
C463 C462 1.355 . S
C463 C465 1.419 . S
C464 C462 1.415 . S
C464 C469 1.425 . S
C464 C471 1.409 . S
C465 H457 0.930 . S
C465 C463 1.419 . S
C465 C466 1.362 . S
C466 H458 0.930 . S
C466 C465 1.362 . S
C466 C469 1.409 . S
C467 H459 0.930 . S
C467 C468 1.355 . S
C467 C469 1.415 . S
C468 C467 1.355 . S
C468 C470 1.419 . S
C469 C464 1.425 . S
C469 C466 1.409 . S
C469 C467 1.415 . S
C470 H460 0.930 . S
C470 C468 1.419 . S
C470 C471 1.362 . S
C471 H461 0.930 . S
C471 C464 1.409 . S
C471 C470 1.362 . S
H472 C478 0.930 . S
H473 C481 0.930 . S
H474 C482 0.930 . S
H475 C483 0.930 . S
H476 C486 0.930 . S
H477 C487 0.930 . S
C478 H472 0.930 . S
C478 C479 1.355 . S
C478 C480 1.415 . S
C479 C478 1.355 . S
C479 C481 1.419 . S
C480 C478 1.415 . S
C480 C485 1.425 . S
C480 C487 1.409 . S
C481 H473 0.930 . S
C481 C479 1.419 . S
C481 C482 1.362 . S
C482 H474 0.930 . S
C482 C481 1.362 . S
C482 C485 1.409 . S
C483 H475 0.930 . S
C483 C484 1.355 . S
C483 C485 1.415 . S
C484 C483 1.355 . S
C484 C486 1.419 . S
C485 C480 1.425 . S
C485 C482 1.409 . S
C485 C483 1.415 . S
C486 H476 0.930 . S
C486 C484 1.419 . S
C486 C487 1.362 . S
C487 H477 0.930 . S
C487 C480 1.409 . S
C487 C486 1.362 . S
H488 C494 0.930 . S
H489 C497 0.930 . S
H490 C498 0.930 . S
H491 C499 0.930 . S
H492 C502 0.930 . S
H493 C503 0.930 . S
C494 H488 0.930 . S
C494 C495 1.355 . S
C494 C496 1.415 . S
C495 C494 1.355 . S
C495 C497 1.419 . S
C496 C494 1.415 . S
C496 C501 1.425 . S
C496 C503 1.409 . S
C497 H489 0.930 . S
C497 C495 1.419 . S
C497 C498 1.362 . S
C498 H490 0.930 . S
C498 C497 1.362 . S
C498 C501 1.409 . S
C499 H491 0.930 . S
C499 C500 1.355 . S
C499 C501 1.415 . S
C500 C499 1.355 . S
C500 C502 1.419 . S
C501 C496 1.425 . S
C501 C498 1.409 . S
C501 C499 1.415 . S
C502 H492 0.930 . S
C502 C500 1.419 . S
C502 C503 1.362 . S
C503 H493 0.930 . S
C503 C496 1.409 . S
C503 C502 1.362 . S
H504 C510 0.930 . S
H505 C513 0.930 . S
H506 C514 0.930 . S
H507 C515 0.930 . S
H508 C518 0.930 . S
H509 C519 0.930 . S
C510 H504 0.930 . S
C510 C511 1.355 . S
C510 C512 1.415 . S
C511 C510 1.355 . S
C511 C513 1.419 . S
C512 C510 1.415 . S
C512 C517 1.425 . S
C512 C519 1.409 . S
C513 H505 0.930 . S
C513 C511 1.419 . S
C513 C514 1.362 . S
C514 H506 0.930 . S
C514 C513 1.362 . S
C514 C517 1.409 . S
C515 H507 0.930 . S
C515 C516 1.355 . S
C515 C517 1.415 . S
C516 C515 1.355 . S
C516 C518 1.419 . S
C517 C512 1.425 . S
C517 C514 1.409 . S
C517 C515 1.415 . S
C518 H508 0.930 . S
C518 C516 1.419 . S
C518 C519 1.362 . S
C519 H509 0.930 . S
C519 C512 1.409 . S
C519 C518 1.362 . S
H520 C526 0.930 . S
H521 C529 0.930 . S
H522 C530 0.930 . S
H523 C531 0.930 . S
H524 C534 0.930 . S
H525 C535 0.930 . S
C526 H520 0.930 . S
C526 C527 1.355 . S
C526 C528 1.415 . S
C527 C526 1.355 . S
C527 C529 1.419 . S
C528 C526 1.415 . S
C528 C533 1.425 . S
C528 C535 1.409 . S
C529 H521 0.930 . S
C529 C527 1.419 . S
C529 C530 1.362 . S
C530 H522 0.930 . S
C530 C529 1.362 . S
C530 C533 1.409 . S
C531 H523 0.930 . S
C531 C532 1.355 . S
C531 C533 1.415 . S
C532 C531 1.355 . S
C532 C534 1.419 . S
C533 C528 1.425 . S
C533 C530 1.409 . S
C533 C531 1.415 . S
C534 H524 0.930 . S
C534 C532 1.419 . S
C534 C535 1.362 . S
C535 H525 0.930 . S
C535 C528 1.409 . S
C535 C534 1.362 . S
H536 C542 0.930 . S
H537 C545 0.930 . S
H538 C546 0.930 . S
H539 C547 0.930 . S
H540 C550 0.930 . S
H541 C551 0.930 . S
C542 H536 0.930 . S
C542 C543 1.355 . S
C542 C544 1.415 . S
C543 C542 1.355 . S
C543 C545 1.419 . S
C544 C542 1.415 . S
C544 C549 1.425 . S
C544 C551 1.409 . S
C545 H537 0.930 . S
C545 C543 1.419 . S
C545 C546 1.362 . S
C546 H538 0.930 . S
C546 C545 1.362 . S
C546 C549 1.409 . S
C547 H539 0.930 . S
C547 C548 1.355 . S
C547 C549 1.415 . S
C548 C547 1.355 . S
C548 C550 1.419 . S
C549 C544 1.425 . S
C549 C546 1.409 . S
C549 C547 1.415 . S
C550 H540 0.930 . S
C550 C548 1.419 . S
C550 C551 1.362 . S
C551 H541 0.930 . S
C551 C544 1.409 . S
C551 C550 1.362 . S
H552 C558 0.930 . S
H553 C561 0.930 . S
H554 C562 0.930 . S
H555 C563 0.930 . S
H556 C566 0.930 . S
H557 C567 0.930 . S
C558 H552 0.930 . S
C558 C559 1.355 . S
C558 C560 1.415 . S
C559 C558 1.355 . S
C559 C561 1.419 . S
C560 C558 1.415 . S
C560 C565 1.425 . S
C560 C567 1.409 . S
C561 H553 0.930 . S
C561 C559 1.419 . S
C561 C562 1.362 . S
C562 H554 0.930 . S
C562 C561 1.362 . S
C562 C565 1.409 . S
C563 H555 0.930 . S
C563 C564 1.355 . S
C563 C565 1.415 . S
C564 C563 1.355 . S
C564 C566 1.419 . S
C565 C560 1.425 . S
C565 C562 1.409 . S
C565 C563 1.415 . S
C566 H556 0.930 . S
C566 C564 1.419 . S
C566 C567 1.362 . S
C567 H557 0.930 . S
C567 C560 1.409 . S
C567 C566 1.362 . S
H568 C574 0.930 . S
H569 C577 0.930 . S
H570 C578 0.930 . S
H571 C579 0.930 . S
H572 C582 0.930 . S
H573 C583 0.930 . S
C574 H568 0.930 . S
C574 C575 1.355 . S
C574 C576 1.415 . S
C575 C574 1.355 . S
C575 C577 1.419 . S
C576 C574 1.415 . S
C576 C581 1.425 . S
C576 C583 1.409 . S
C577 H569 0.930 . S
C577 C575 1.419 . S
C577 C578 1.362 . S
C578 H570 0.930 . S
C578 C577 1.362 . S
C578 C581 1.409 . S
C579 H571 0.930 . S
C579 C580 1.355 . S
C579 C581 1.415 . S
C580 C579 1.355 . S
C580 C582 1.419 . S
C581 C576 1.425 . S
C581 C578 1.409 . S
C581 C579 1.415 . S
C582 H572 0.930 . S
C582 C580 1.419 . S
C582 C583 1.362 . S
C583 H573 0.930 . S
C583 C576 1.409 . S
C583 C582 1.362 . S
C271 N134 0.699 . S
C276 N2 0.643 . S
C287 N35 0.702 . S
C292 N167 0.614 . S
C303 N68 0.636 . S
C308 N200 0.506 . S
C319 N101 0.670 . S
C324 N233 0.535 . S
C335 C21 1.118 1_556 S
C340 C219 1.119 1_554 S
C351 C54 1.120 . S
C356 C252 1.120 . S
C367 C153 1.116 . S
C372 C87 1.118 . S
C383 C186 1.070 . S
C388 C120 1.075 . S
C399 C249 0.674 . S
C404 C18 0.605 . S
C415 C51 0.664 . S
C420 C150 0.574 . S
C431 C183 0.630 . S
C436 C84 0.677 . S
C447 C216 0.677 . S
C452 C117 0.626 . S
C463 C7 1.884 . S
C468 N46 1.947 . S
C479 C40 1.841 . S
C484 N79 1.961 . S
C495 N112 1.960 . S
C500 C73 1.843 . S
C511 N13 1.946 . S
C516 C106 1.885 . S
C527 C139 1.873 . S
C532 N244 1.950 . S
C543 N145 1.953 . S
C548 C172 1.867 . S
C559 C205 1.844 . S
C564 N178 1.960 . S
C575 C238 1.851 . S
C580 N211 1.957 . S
