# Generated by pormake.
# Topology afi, (4)-cn, num edge types: 1
# Building blocks:
#     Node 0, Type 0, BuildingBlock: NAHDIM_clean_sbu_0, # of connection points: 4
#     Node 1, Type 0, BuildingBlock: NAHDIM_clean_sbu_0, # of connection points: 4
#     Node 2, Type 0, BuildingBlock: NAHDIM_clean_sbu_0, # of connection points: 4
#     Node 3, Type 0, BuildingBlock: NAHDIM_clean_sbu_0, # of connection points: 4
#     Node 4, Type 0, BuildingBlock: NAHDIM_clean_sbu_0, # of connection points: 4
#     Node 5, Type 0, BuildingBlock: NAHDIM_clean_sbu_0, # of connection points: 4
#     Node 6, Type 0, BuildingBlock: NAHDIM_clean_sbu_0, # of connection points: 4
#     Node 7, Type 0, BuildingBlock: NAHDIM_clean_sbu_0, # of connection points: 4
#     Node 8, Type 0, BuildingBlock: NAHDIM_clean_sbu_0, # of connection points: 4
#     Node 9, Type 0, BuildingBlock: NAHDIM_clean_sbu_0, # of connection points: 4
#     Node 10, Type 0, BuildingBlock: NAHDIM_clean_sbu_0, # of connection points: 4
#     Node 11, Type 0, BuildingBlock: NAHDIM_clean_sbu_0, # of connection points: 4
#     Node 12, Type 0, BuildingBlock: NAHDIM_clean_sbu_0, # of connection points: 4
#     Node 13, Type 0, BuildingBlock: NAHDIM_clean_sbu_0, # of connection points: 4
#     Node 14, Type 0, BuildingBlock: NAHDIM_clean_sbu_0, # of connection points: 4
#     Node 15, Type 0, BuildingBlock: NAHDIM_clean_sbu_0, # of connection points: 4
#     Node 16, Type 0, BuildingBlock: NAHDIM_clean_sbu_0, # of connection points: 4
#     Node 17, Type 0, BuildingBlock: NAHDIM_clean_sbu_0, # of connection points: 4
#     Node 18, Type 0, BuildingBlock: NAHDIM_clean_sbu_0, # of connection points: 4
#     Node 19, Type 0, BuildingBlock: NAHDIM_clean_sbu_0, # of connection points: 4
#     Node 20, Type 0, BuildingBlock: NAHDIM_clean_sbu_0, # of connection points: 4
#     Node 21, Type 0, BuildingBlock: NAHDIM_clean_sbu_0, # of connection points: 4
#     Node 22, Type 0, BuildingBlock: NAHDIM_clean_sbu_0, # of connection points: 4
#     Node 23, Type 0, BuildingBlock: NAHDIM_clean_sbu_0, # of connection points: 4
#     Edge 24, Type (0, 0), BuildingBlock: CIFDUS_clean_linker_0, # of connection points: 2
#     Edge 25, Type (0, 0), BuildingBlock: CIFDUS_clean_linker_0, # of connection points: 2
#     Edge 26, Type (0, 0), BuildingBlock: CIFDUS_clean_linker_0, # of connection points: 2
#     Edge 27, Type (0, 0), BuildingBlock: CIFDUS_clean_linker_0, # of connection points: 2
#     Edge 28, Type (0, 0), BuildingBlock: CIFDUS_clean_linker_0, # of connection points: 2
#     Edge 29, Type (0, 0), BuildingBlock: CIFDUS_clean_linker_0, # of connection points: 2
#     Edge 30, Type (0, 0), BuildingBlock: CIFDUS_clean_linker_0, # of connection points: 2
#     Edge 31, Type (0, 0), BuildingBlock: CIFDUS_clean_linker_0, # of connection points: 2
#     Edge 32, Type (0, 0), BuildingBlock: CIFDUS_clean_linker_0, # of connection points: 2
#     Edge 33, Type (0, 0), BuildingBlock: CIFDUS_clean_linker_0, # of connection points: 2
#     Edge 34, Type (0, 0), BuildingBlock: CIFDUS_clean_linker_0, # of connection points: 2
#     Edge 35, Type (0, 0), BuildingBlock: CIFDUS_clean_linker_0, # of connection points: 2
#     Edge 36, Type (0, 0), BuildingBlock: CIFDUS_clean_linker_0, # of connection points: 2
#     Edge 37, Type (0, 0), BuildingBlock: CIFDUS_clean_linker_0, # of connection points: 2
#     Edge 38, Type (0, 0), BuildingBlock: CIFDUS_clean_linker_0, # of connection points: 2
#     Edge 39, Type (0, 0), BuildingBlock: CIFDUS_clean_linker_0, # of connection points: 2
#     Edge 40, Type (0, 0), BuildingBlock: CIFDUS_clean_linker_0, # of connection points: 2
#     Edge 41, Type (0, 0), BuildingBlock: CIFDUS_clean_linker_0, # of connection points: 2
#     Edge 42, Type (0, 0), BuildingBlock: CIFDUS_clean_linker_0, # of connection points: 2
#     Edge 43, Type (0, 0), BuildingBlock: CIFDUS_clean_linker_0, # of connection points: 2
#     Edge 44, Type (0, 0), BuildingBlock: CIFDUS_clean_linker_0, # of connection points: 2
#     Edge 45, Type (0, 0), BuildingBlock: CIFDUS_clean_linker_0, # of connection points: 2
#     Edge 46, Type (0, 0), BuildingBlock: CIFDUS_clean_linker_0, # of connection points: 2
#     Edge 47, Type (0, 0), BuildingBlock: CIFDUS_clean_linker_0, # of connection points: 2
#     Edge 48, Type (0, 0), BuildingBlock: CIFDUS_clean_linker_0, # of connection points: 2
#     Edge 49, Type (0, 0), BuildingBlock: CIFDUS_clean_linker_0, # of connection points: 2
#     Edge 50, Type (0, 0), BuildingBlock: CIFDUS_clean_linker_0, # of connection points: 2
#     Edge 51, Type (0, 0), BuildingBlock: CIFDUS_clean_linker_0, # of connection points: 2
#     Edge 52, Type (0, 0), BuildingBlock: CIFDUS_clean_linker_0, # of connection points: 2
#     Edge 53, Type (0, 0), BuildingBlock: CIFDUS_clean_linker_0, # of connection points: 2
#     Edge 54, Type (0, 0), BuildingBlock: CIFDUS_clean_linker_0, # of connection points: 2
#     Edge 55, Type (0, 0), BuildingBlock: CIFDUS_clean_linker_0, # of connection points: 2
#     Edge 56, Type (0, 0), BuildingBlock: CIFDUS_clean_linker_0, # of connection points: 2
#     Edge 57, Type (0, 0), BuildingBlock: CIFDUS_clean_linker_0, # of connection points: 2
#     Edge 58, Type (0, 0), BuildingBlock: CIFDUS_clean_linker_0, # of connection points: 2
#     Edge 59, Type (0, 0), BuildingBlock: CIFDUS_clean_linker_0, # of connection points: 2
#     Edge 60, Type (0, 0), BuildingBlock: CIFDUS_clean_linker_0, # of connection points: 2
#     Edge 61, Type (0, 0), BuildingBlock: CIFDUS_clean_linker_0, # of connection points: 2
#     Edge 62, Type (0, 0), BuildingBlock: CIFDUS_clean_linker_0, # of connection points: 2
#     Edge 63, Type (0, 0), BuildingBlock: CIFDUS_clean_linker_0, # of connection points: 2
#     Edge 64, Type (0, 0), BuildingBlock: CIFDUS_clean_linker_0, # of connection points: 2
#     Edge 65, Type (0, 0), BuildingBlock: CIFDUS_clean_linker_0, # of connection points: 2
#     Edge 66, Type (0, 0), BuildingBlock: CIFDUS_clean_linker_0, # of connection points: 2
#     Edge 67, Type (0, 0), BuildingBlock: CIFDUS_clean_linker_0, # of connection points: 2
#     Edge 68, Type (0, 0), BuildingBlock: CIFDUS_clean_linker_0, # of connection points: 2
#     Edge 69, Type (0, 0), BuildingBlock: CIFDUS_clean_linker_0, # of connection points: 2
#     Edge 70, Type (0, 0), BuildingBlock: CIFDUS_clean_linker_0, # of connection points: 2
#     Edge 71, Type (0, 0), BuildingBlock: CIFDUS_clean_linker_0, # of connection points: 2
# Relax obj value: 0.071
# Max RMSD: 0.084
# Mean RMSD: 0.084
data_MOF--net-afi--node1-NAHDIM_clean_sbu_0--edge1-CIFDUS_clean_linker_0
_symmetry_space_group_name_H-M    P1
_symmetry_Int_Tables_number       1
_symmetry_cell_setting            triclinic
loop_
_symmetry_equiv_pos_as_xyz
'x, y, z'
_cell_length_a     59.965998
_cell_length_b     59.94703
_cell_length_c     34.244605
_cell_angle_alpha  90.069055
_cell_angle_beta   89.947187
_cell_angle_gamma 120.07198
loop_
_atom_site_label
_atom_site_type_symbol
_atom_site_fract_x
_atom_site_fract_y
_atom_site_fract_z
_atom_type_partial_charge
C0 C 0.45724 0.14512 0.24285 0.0
O1 O 0.46625 0.13316 0.26411 0.0
O2 O 0.49354 0.11981 0.20827 0.0
Zn3 Zn 0.45946 0.11222 0.18537 0.0
O4 O 0.46201 0.11497 0.12682 0.0
C5 C 0.44026 0.05963 0.19909 0.0
O6 O 0.4634 0.06698 0.18542 0.0
O7 O 0.45148 0.13856 0.20734 0.0
C8 C 0.4418 0.10594 0.10601 0.0
O9 O 0.41919 0.09496 0.12331 0.0
C10 C 0.51274 0.1224 0.1888 0.0
O11 O 0.51119 0.12051 0.15056 0.0
O12 O 0.43283 0.07606 0.20134 0.0
C13 C 0.30144 0.47249 0.25441 0.0
O14 O 0.32267 0.49467 0.24904 0.0
O15 O 0.36518 0.48405 0.25503 0.0
Zn16 Zn 0.33465 0.45449 0.22824 0.0
O17 O 0.33726 0.46031 0.17014 0.0
C18 C 0.35238 0.4188 0.22265 0.0
O19 O 0.36665 0.43539 0.19561 0.0
O20 O 0.30163 0.45176 0.24754 0.0
C21 C 0.32422 0.44205 0.14637 0.0
O22 O 0.30848 0.41889 0.16009 0.0
C23 C 0.38026 0.50515 0.23791 0.0
O24 O 0.37573 0.50836 0.20142 0.0
O25 O 0.33598 0.42241 0.24089 0.0
C26 C 0.83693 0.31899 0.239 0.0
O27 O 0.8409 0.34008 0.25684 0.0
O28 O 0.87849 0.38468 0.21906 0.0
Zn29 Zn 0.88058 0.35553 0.19299 0.0
O30 O 0.87771 0.35882 0.13502 0.0
C31 C 0.93424 0.37416 0.18248 0.0
O32 O 0.93003 0.38538 0.15275 0.0
O33 O 0.85177 0.32076 0.21115 0.0
C34 C 0.87627 0.34193 0.11114 0.0
O35 O 0.87558 0.32109 0.12468 0.0
C36 C 0.86303 0.39173 0.20648 0.0
O37 O 0.84806 0.37946 0.17668 0.0
O38 O 0.91552 0.35971 0.20478 0.0
C39 C 0.54245 0.82977 0.18068 0.0
O40 O 0.52489 0.8286 0.15653 0.0
O41 O 0.52236 0.87541 0.18875 0.0
Zn42 Zn 0.55718 0.88153 0.17108 0.0
O43 O 0.55922 0.882 0.1123 0.0
C44 C 0.58214 0.91952 0.22971 0.0
O45 O 0.56386 0.90081 0.25035 0.0
O46 O 0.56041 0.85178 0.19159 0.0
C47 C 0.5571 0.89864 0.09218 0.0
O48 O 0.55414 0.91634 0.11024 0.0
C49 C 0.50251 0.86769 0.16736 0.0
O50 O 0.50387 0.8635 0.13002 0.0
O51 O 0.58418 0.91559 0.19373 0.0
C52 C 0.71615 0.56997 0.19895 0.0
O53 O 0.71917 0.5844 0.16831 0.0
O54 O 0.63075 0.52212 0.20719 0.0
Zn55 Zn 0.66243 0.55315 0.18649 0.0
O56 O 0.66451 0.55028 0.12798 0.0
C57 C 0.65701 0.59869 0.17658 0.0
O58 O 0.65933 0.59539 0.13919 0.0
O59 O 0.69359 0.55527 0.21207 0.0
C60 C 0.6442 0.53938 0.10725 0.0
O61 O 0.62165 0.52987 0.12441 0.0
C62 C 0.62578 0.49897 0.20374 0.0
O63 O 0.64219 0.4942 0.18538 0.0
O64 O 0.65886 0.58383 0.2012 0.0
C65 C 0.17059 0.68913 0.2118 0.0
O66 O 0.16761 0.66744 0.19759 0.0
O67 O 0.1159 0.62881 0.24008 0.0
Zn68 Zn 0.11602 0.65846 0.21222 0.0
O69 O 0.10899 0.65008 0.15474 0.0
C70 C 0.0667 0.65636 0.21997 0.0
O71 O 0.06458 0.65086 0.18254 0.0
O72 O 0.15068 0.6905 0.22034 0.0
C73 C 0.11902 0.66745 0.12869 0.0
O74 O 0.13425 0.69149 0.1394 0.0
C75 C 0.11961 0.61194 0.22365 0.0
O76 O 0.12442 0.61364 0.186 0.0
O77 O 0.08747 0.66178 0.23757 0.0
C78 C 0.82077 0.55045 0.31469 0.0
O79 O 0.8173 0.53465 0.34363 0.0
O80 O 0.86667 0.52478 0.30433 0.0
Zn81 Zn 0.87232 0.55959 0.32038 0.0
O82 O 0.87382 0.56239 0.37915 0.0
C83 C 0.92724 0.59647 0.31259 0.0
O84 O 0.92815 0.59114 0.34955 0.0
O85 O 0.84313 0.56363 0.29994 0.0
C86 C 0.87913 0.58313 0.39683 0.0
O87 O 0.88399 0.60358 0.3763 0.0
C88 C 0.88069 0.51652 0.31877 0.0
O89 O 0.89792 0.53046 0.34531 0.0
O90 O 0.9056 0.58601 0.29521 0.0
C91 C 0.30168 0.81692 0.26764 0.0
O92 O 0.31971 0.81116 0.27496 0.0
O93 O 0.36864 0.85709 0.27125 0.0
Zn94 Zn 0.34223 0.8655 0.29265 0.0
O95 O 0.34179 0.86423 0.35138 0.0
C96 C 0.37771 0.91732 0.2857 0.0
O97 O 0.38951 0.90829 0.30727 0.0
O98 O 0.30675 0.84003 0.27246 0.0
C99 C 0.33203 0.87538 0.37064 0.0
O100 O 0.32205 0.88733 0.35163 0.0
C101 C 0.38432 0.85433 0.29287 0.0
O102 O 0.38229 0.85509 0.33098 0.0
O103 O 0.35451 0.90209 0.27551 0.0
C104 C 0.46015 0.27707 0.28655 0.0
O105 O 0.47848 0.29092 0.31174 0.0
O106 O 0.49169 0.34775 0.2676 0.0
Zn107 Zn 0.45585 0.32246 0.28581 0.0
O108 O 0.45442 0.32753 0.34387 0.0
C109 C 0.41286 0.33133 0.27479 0.0
O110 O 0.40641 0.32184 0.31023 0.0
O111 O 0.44729 0.28648 0.27157 0.0
C112 C 0.44496 0.31007 0.36984 0.0
O113 O 0.43459 0.28576 0.3596 0.0
C114 C 0.49886 0.37134 0.2734 0.0
O115 O 0.48297 0.37716 0.29112 0.0
O116 O 0.43231 0.33218 0.25848 0.0
C117 C 0.16285 0.44965 0.31442 0.0
O118 O 0.16507 0.47009 0.33225 0.0
O119 O 0.12017 0.47183 0.3017 0.0
Zn120 Zn 0.11238 0.43783 0.32478 0.0
O121 O 0.11243 0.43907 0.38347 0.0
C122 C 0.07162 0.41272 0.27015 0.0
O123 O 0.08993 0.42912 0.24685 0.0
O124 O 0.14041 0.43096 0.30724 0.0
C125 C 0.10413 0.41791 0.40169 0.0
O126 O 0.09566 0.39651 0.38151 0.0
C127 C 0.11222 0.48613 0.31604 0.0
O128 O 0.09896 0.47925 0.34873 0.0
O129 O 0.07709 0.41151 0.30564 0.0
C130 C 0.72277 0.17465 0.27486 0.0
O131 O 0.70464 0.17486 0.29617 0.0
O132 O 0.6572 0.126 0.2528 0.0
Zn133 Zn 0.68538 0.12299 0.27999 0.0
O134 O 0.68211 0.12573 0.33829 0.0
C135 C 0.66166 0.06886 0.2822 0.0
O136 O 0.64854 0.07317 0.30895 0.0
O137 O 0.71943 0.15308 0.2629 0.0
C138 C 0.69177 0.11768 0.36382 0.0
O139 O 0.70465 0.1064 0.35249 0.0
C140 C 0.64 0.12824 0.27118 0.0
O141 O 0.64064 0.12912 0.30951 0.0
O142 O 0.6803 0.08804 0.26529 0.0
C143 C 0.54492 0.71271 0.28751 0.0
O144 O 0.52176 0.69228 0.28724 0.0
O145 O 0.52322 0.6484 0.30174 0.0
Zn146 Zn 0.5558 0.67694 0.326 0.0
O147 O 0.55124 0.67719 0.38442 0.0
C148 C 0.59051 0.67015 0.27705 0.0
O149 O 0.57961 0.67734 0.25046 0.0
O150 O 0.56331 0.71115 0.30317 0.0
C151 C 0.5577 0.66458 0.40703 0.0
O152 O 0.56798 0.65163 0.39199 0.0
C153 C 0.50863 0.62699 0.31846 0.0
O154 O 0.51464 0.6228 0.35349 0.0
O155 O 0.58414 0.66951 0.31261 0.0
C156 C 0.54378 0.83755 0.77903 0.0
O157 O 0.52338 0.83332 0.7992 0.0
O158 O 0.51782 0.87924 0.75823 0.0
Zn159 Zn 0.5516 0.88795 0.78388 0.0
O160 O 0.54993 0.88934 0.84281 0.0
C161 C 0.57217 0.93905 0.75536 0.0
O162 O 0.54778 0.93233 0.759 0.0
O163 O 0.55987 0.86049 0.76882 0.0
C164 C 0.54596 0.90573 0.86041 0.0
O165 O 0.54187 0.92178 0.83979 0.0
C166 C 0.49606 0.87048 0.77488 0.0
O167 O 0.4941 0.86578 0.81256 0.0
O168 O 0.5791 0.92278 0.76391 0.0
C169 C 0.7044 0.54982 0.79694 0.0
O170 O 0.69504 0.53428 0.82709 0.0
O171 O 0.63012 0.51454 0.77026 0.0
Zn172 Zn 0.65492 0.54663 0.79981 0.0
O173 O 0.65209 0.54057 0.85807 0.0
C174 C 0.64228 0.58758 0.81103 0.0
O175 O 0.64633 0.58571 0.84825 0.0
O176 O 0.69078 0.55801 0.78089 0.0
C177 C 0.63028 0.5299 0.87496 0.0
O178 O 0.60939 0.52216 0.85381 0.0
C179 C 0.62173 0.49145 0.7813 0.0
O180 O 0.62949 0.48707 0.8148 0.0
O181 O 0.64555 0.57361 0.78633 0.0
C182 C 0.15076 0.7051 0.75588 0.0
O183 O 0.14217 0.68451 0.73372 0.0
O184 O 0.1251 0.64194 0.79032 0.0
Zn185 Zn 0.11654 0.66804 0.81228 0.0
O186 O 0.11998 0.67124 0.87088 0.0
C187 C 0.06278 0.65785 0.81324 0.0
O188 O 0.06774 0.66816 0.84829 0.0
O189 O 0.14179 0.70279 0.79019 0.0
C190 C 0.10658 0.65425 0.89619 0.0
O191 O 0.08824 0.63145 0.88462 0.0
C192 C 0.1319 0.62777 0.80828 0.0
O193 O 0.13461 0.6296 0.8464 0.0
O194 O 0.08045 0.6568 0.79424 0.0
C195 C 0.44231 0.15865 0.8014 0.0
O196 O 0.45564 0.16208 0.83349 0.0
O197 O 0.48367 0.12708 0.77314 0.0
Zn198 Zn 0.44881 0.1149 0.79751 0.0
O199 O 0.44992 0.11384 0.85627 0.0
C200 C 0.43679 0.0648 0.78315 0.0
O201 O 0.45936 0.0752 0.80046 0.0
O202 O 0.43616 0.13882 0.78055 0.0
C203 C 0.4283 0.10385 0.87366 0.0
O204 O 0.40722 0.09506 0.85264 0.0
C205 C 0.50574 0.14267 0.78709 0.0
O206 O 0.50746 0.15329 0.82136 0.0
O207 O 0.42626 0.07847 0.77829 0.0
C208 C 0.27281 0.42559 0.8299 0.0
O209 O 0.27438 0.4237 0.86788 0.0
O210 O 0.3541 0.46555 0.81801 0.0
Zn211 Zn 0.32354 0.43077 0.8311 0.0
O212 O 0.32028 0.42553 0.88945 0.0
C213 C 0.34198 0.40965 0.77418 0.0
O214 O 0.34596 0.43062 0.75597 0.0
O215 O 0.29124 0.42814 0.80838 0.0
C216 C 0.32931 0.44434 0.91325 0.0
O217 O 0.34139 0.46799 0.8996 0.0
C218 C 0.3527 0.48532 0.80859 0.0
O219 O 0.3302 0.48407 0.80895 0.0
O220 O 0.33087 0.40438 0.80725 0.0
C221 C 0.82904 0.28635 0.7901 0.0
O222 O 0.82583 0.29565 0.82303 0.0
O223 O 0.86494 0.35897 0.77949 0.0
Zn224 Zn 0.87568 0.33335 0.79559 0.0
O225 O 0.8753 0.32933 0.85407 0.0
C226 C 0.92577 0.37171 0.77383 0.0
O227 O 0.91577 0.38566 0.78558 0.0
O228 O 0.85022 0.29914 0.77177 0.0
C229 C 0.88238 0.34779 0.87816 0.0
O230 O 0.8909 0.37127 0.865 0.0
C231 C 0.8506 0.36586 0.79675 0.0
O232 O 0.8392 0.35466 0.82962 0.0
O233 O 0.91221 0.34724 0.77564 0.0
C234 C 0.1703 0.44555 0.70949 0.0
O235 O 0.17237 0.45404 0.67358 0.0
O236 O 0.13503 0.48763 0.73821 0.0
Zn237 Zn 0.12691 0.45414 0.71202 0.0
O238 O 0.12819 0.45747 0.6533 0.0
C239 C 0.07376 0.43351 0.71566 0.0
O240 O 0.08145 0.45478 0.69552 0.0
O241 O 0.15211 0.44358 0.73103 0.0
C242 C 0.11773 0.43688 0.63315 0.0
O243 O 0.10713 0.41458 0.65129 0.0
C244 C 0.13633 0.50672 0.72004 0.0
O245 O 0.13337 0.5054 0.68194 0.0
O246 O 0.09051 0.42788 0.72702 0.0
C247 C 0.69534 0.16573 0.72479 0.0
O248 O 0.67371 0.15357 0.7446 0.0
O249 O 0.63579 0.14889 0.6738 0.0
Zn250 Zn 0.66139 0.13724 0.66256 0.0
O251 O 0.66667 0.13483 0.60491 0.0
C252 C 0.65271 0.08557 0.68548 0.0
O253 O 0.67475 0.09153 0.66879 0.0
O254 O 0.69506 0.1614 0.68843 0.0
C255 C 0.66335 0.14831 0.57946 0.0
O256 O 0.65621 0.16474 0.59078 0.0
C257 C 0.61312 0.1352 0.66038 0.0
O258 O 0.60836 0.11607 0.63664 0.0
O259 O 0.64514 0.10192 0.68598 0.0
C260 C 0.53844 0.7054 0.7243 0.0
O261 O 0.55876 0.70902 0.70448 0.0
O262 O 0.48891 0.61941 0.72692 0.0
Zn263 Zn 0.52171 0.65168 0.71118 0.0
O264 O 0.52616 0.65332 0.65259 0.0
C265 C 0.55529 0.65036 0.7715 0.0
O266 O 0.53954 0.65257 0.79581 0.0
O267 O 0.52031 0.68254 0.73063 0.0
C268 C 0.53575 0.64074 0.637 0.0
O269 O 0.54168 0.62669 0.65936 0.0
C270 C 0.48899 0.59857 0.73343 0.0
O271 O 0.51049 0.5981 0.72862 0.0
O272 O 0.55174 0.65061 0.73499 0.0
C273 C 0.83467 0.55937 0.72133 0.0
O274 O 0.84119 0.57017 0.68672 0.0
O275 O 0.86743 0.50887 0.72093 0.0
Zn276 Zn 0.8733 0.54403 0.70664 0.0
O277 O 0.86969 0.54543 0.64809 0.0
C278 C 0.92824 0.57328 0.7045 0.0
O279 O 0.92397 0.55932 0.67282 0.0
O280 O 0.84619 0.54819 0.73511 0.0
C281 C 0.87957 0.56616 0.62832 0.0
O282 O 0.89246 0.5884 0.64644 0.0
C283 C 0.87224 0.49545 0.69732 0.0
O284 O 0.88142 0.50473 0.66252 0.0
O285 O 0.9091 0.57061 0.72427 0.0
C286 C 0.2799 0.82222 0.6698 0.0
O287 O 0.29383 0.82137 0.64083 0.0
O288 O 0.35058 0.86129 0.70341 0.0
Zn289 Zn 0.32546 0.87031 0.67878 0.0
O290 O 0.32961 0.87341 0.62033 0.0
C291 C 0.35724 0.92196 0.69772 0.0
O292 O 0.37309 0.91575 0.68097 0.0
O293 O 0.28933 0.84219 0.69137 0.0
C294 C 0.31878 0.88369 0.60163 0.0
O295 O 0.30581 0.89238 0.62113 0.0
C296 C 0.36909 0.8615 0.68495 0.0
O297 O 0.37161 0.86657 0.64737 0.0
O298 O 0.33354 0.90493 0.70046 0.0
C299 C 0.44309 0.28816 0.74924 0.0
O300 O 0.45288 0.30962 0.76958 0.0
O301 O 0.48536 0.34816 0.70671 0.0
Zn302 Zn 0.45005 0.32247 0.68584 0.0
O303 O 0.45053 0.31589 0.62789 0.0
C304 C 0.43353 0.35942 0.69411 0.0
O305 O 0.45737 0.37471 0.68268 0.0
O306 O 0.4391 0.28885 0.71295 0.0
C307 C 0.44861 0.32942 0.60096 0.0
O308 O 0.44687 0.34974 0.61023 0.0
C309 C 0.50361 0.36619 0.68747 0.0
O310 O 0.50047 0.3687 0.65009 0.0
O311 O 0.42542 0.33546 0.69806 0.0
H312 H 0.45698 0.02816 0.22445 0.0
H313 H 0.3877 0.03201 0.20809 0.0
H314 H 0.36175 0.98782 0.23284 0.0
H315 H 0.35907 0.94795 0.25913 0.0
H316 H 0.42942 0.9464 0.27865 0.0
H317 H 0.45461 0.98983 0.25271 0.0
C318 C 0.43618 0.01931 0.22611 0.0
C319 C 0.42422 0.03316 0.21414 0.0
C320 C 0.42159 0.99432 0.24106 0.0
C321 C 0.39731 0.02164 0.21712 0.0
C322 C 0.3825 0.99641 0.23121 0.0
C323 C 0.3799 0.95719 0.25765 0.0
C324 C 0.39234 0.94396 0.27071 0.0
C325 C 0.39445 0.98253 0.24326 0.0
C326 C 0.41936 0.9562 0.269 0.0
C327 C 0.43382 0.98103 0.25404 0.0
H328 H 0.37418 0.33764 0.30444 0.0
H329 H 0.42349 0.35491 0.20364 0.0
H330 H 0.40738 0.38183 0.17711 0.0
H331 H 0.38249 0.4037 0.18538 0.0
H332 H 0.33356 0.38716 0.28639 0.0
H333 H 0.34615 0.35655 0.30972 0.0
C334 C 0.38115 0.347 0.27642 0.0
C335 C 0.40026 0.34448 0.25635 0.0
C336 C 0.37203 0.36276 0.26147 0.0
C337 C 0.40894 0.35664 0.21992 0.0
C338 C 0.39979 0.37212 0.20472 0.0
C339 C 0.37438 0.39323 0.21233 0.0
C340 C 0.35739 0.39797 0.23435 0.0
C341 C 0.38185 0.37585 0.22573 0.0
C342 C 0.34679 0.38398 0.26894 0.0
C343 C 0.35404 0.36652 0.28238 0.0
H344 H 0.9515 0.36089 0.24731 0.0
H345 H 0.97674 0.40038 0.13675 0.0
H346 H 0.02123 0.41348 0.15261 0.0
H347 H 0.0533 0.41682 0.19976 0.0
H348 H 0.02871 0.37883 0.31144 0.0
H349 H 0.98367 0.36176 0.29295 0.0
C350 C 0.9667 0.37213 0.22653 0.0
C351 C 0.96078 0.37986 0.19108 0.0
C352 C 0.9924 0.37994 0.23604 0.0
C353 C 0.98073 0.39437 0.16443 0.0
C354 C 0.00622 0.40187 0.17343 0.0
C355 C 0.03812 0.40452 0.21992 0.0
C356 C 0.04442 0.39931 0.25705 0.0
C357 C 0.01233 0.39523 0.20946 0.0
C358 C 0.02443 0.38326 0.28271 0.0
C359 C -0.00134 0.37356 0.27223 0.0
H360 H 0.62203 0.96242 0.19623 0.0
H361 H 0.5775 0.93514 0.30245 0.0
H362 H 0.59966 0.97866 0.32905 0.0
H363 H 0.62905 0.02488 0.32036 0.0
H364 H 0.674 0.05274 0.21478 0.0
H365 H 0.65457 0.00858 0.19002 0.0
C366 C 0.61737 0.96595 0.22535 0.0
C367 C 0.59789 0.94552 0.24708 0.0
C368 C 0.63019 0.99116 0.24058 0.0
C369 C 0.59227 0.95045 0.28492 0.0
C370 C 0.60491 0.97538 0.3002 0.0
C371 C 0.6348 0.0213 0.29207 0.0
C372 C 0.65272 0.0421 0.26927 0.0
C373 C 0.62349 0.99594 0.27799 0.0
C374 C 0.66021 0.03708 0.23291 0.0
C375 C 0.649 0.01183 0.21865 0.0
H376 H 0.60705 0.6681 0.20384 0.0
H377 H 0.6116 0.6486 0.32379 0.0
H378 H 0.6347 0.62667 0.30345 0.0
H379 H 0.65011 0.60973 0.25122 0.0
H380 H 0.64496 0.62863 0.13117 0.0
H381 H 0.62585 0.65429 0.15208 0.0
C382 C 0.61334 0.65931 0.22562 0.0
C383 C 0.60732 0.65976 0.26523 0.0
C384 C 0.62639 0.64648 0.2137 0.0
C385 C 0.61582 0.64844 0.29306 0.0
C386 C 0.62899 0.63582 0.28146 0.0
C387 C 0.64509 0.6197 0.22962 0.0
C388 C 0.64871 0.61698 0.18964 0.0
C389 C 0.63384 0.6342 0.24179 0.0
C390 C 0.64228 0.63024 0.16212 0.0
C391 C 0.63126 0.64487 0.17403 0.0
H392 H 0.01888 0.64228 0.19239 0.0
H393 H 0.06278 0.65943 0.29913 0.0
H394 H 0.02353 0.64455 0.33739 0.0
H395 H 0.9763 0.62227 0.34054 0.0
H396 H 0.93236 0.60458 0.23376 0.0
H397 H 0.97208 0.62428 0.19569 0.0
C398 C 0.01995 0.64313 0.22401 0.0
C399 C 0.04372 0.65161 0.24279 0.0
C400 C 0.99724 0.63421 0.24591 0.0
C401 C 0.04474 0.65282 0.28383 0.0
C402 C 0.02226 0.64421 0.3058 0.0
C403 C 0.9754 0.62299 0.30896 0.0
C404 C 0.95135 0.61161 0.29007 0.0
C405 C -0.00168 0.63415 0.28715 0.0
C406 C 0.95058 0.61301 0.24913 0.0
C407 C 0.9733 0.62422 0.22726 0.0
H408 H 0.56473 0.97975 0.75093 0.0
H409 H 0.62206 0.9576 0.73098 0.0
H410 H 0.65249 0.00126 0.70813 0.0
H411 H 0.66229 0.04559 0.6925 0.0
H412 H 0.60436 0.06685 0.71438 0.0
H413 H 0.5748 0.02367 0.7379 0.0
C414 C 0.58387 0.98439 0.74155 0.0
C415 C 0.59105 0.96541 0.74235 0.0
C416 C 0.6012 0.00942 0.72881 0.0
C417 C 0.61604 0.97189 0.73056 0.0
C418 C 0.63343 0.99683 0.71747 0.0
C419 C 0.64324 0.04077 0.70255 0.0
C420 C 0.63559 0.05947 0.70146 0.0
C421 C 0.62616 0.01575 0.71628 0.0
C422 C 0.61084 0.05292 0.71479 0.0
C423 C 0.59383 0.02817 0.72823 0.0
H424 H 0.62053 0.60895 0.85633 0.0
H425 H 0.63841 0.6013 0.73663 0.0
H426 H 0.61519 0.62261 0.71425 0.0
H427 H 0.58662 0.63965 0.7281 0.0
H428 H 0.56676 0.64559 0.84738 0.0
H429 H 0.59423 0.629 0.87049 0.0
C430 C 0.61967 0.61229 0.82539 0.0
C431 C 0.631 0.60335 0.79818 0.0
C432 C 0.6058 0.62409 0.81262 0.0
C433 C 0.62967 0.60778 0.75818 0.0
C434 C 0.61638 0.61996 0.74533 0.0
C435 C 0.58851 0.63765 0.75921 0.0
C436 C 0.57445 0.64364 0.78594 0.0
C437 C 0.60386 0.6276 0.77222 0.0
C438 C 0.57725 0.641 0.82614 0.0
C439 C 0.59291 0.63144 0.83938 0.0
H440 H 0.9441 0.60119 0.77216 0.0
H441 H 0.97263 0.58414 0.66708 0.0
H442 H 0.01671 0.60998 0.69058 0.0
H443 H 0.04699 0.63544 0.74208 0.0
H444 H 0.01901 0.6522 0.84794 0.0
H445 H 0.97493 0.62863 0.8228 0.0
C446 C 0.95997 0.60329 0.75428 0.0
C447 C 0.95499 0.59056 0.718 0.0
C448 C 0.98538 0.61806 0.76812 0.0
C449 C 0.97583 0.59356 0.69519 0.0
C450 C 0.00109 0.60834 0.7086 0.0
C451 C 0.03131 0.63412 0.75965 0.0
C452 C 0.03633 0.64545 0.79698 0.0
C453 C 0.00605 0.62036 0.74522 0.0
C454 C 0.01573 0.64362 0.81915 0.0
C455 C 0.99049 0.63009 0.80483 0.0
H456 H 0.38631 0.03197 0.76382 0.0
H457 H 0.46116 0.03808 0.76794 0.0
H458 H 0.44307 0.99473 0.74165 0.0
H459 H 0.40644 0.95526 0.71721 0.0
H460 H 0.3308 0.94713 0.71544 0.0
H461 H 0.3487 0.99103 0.74123 0.0
C462 C 0.39859 0.02375 0.75888 0.0
C463 C 0.42505 0.03826 0.7677 0.0
C464 C 0.38796 0.99849 0.74424 0.0
C465 C 0.44072 0.02732 0.76155 0.0
C466 C 0.43042 0.00253 0.74642 0.0
C467 C 0.39383 0.96308 0.72234 0.0
C468 C 0.3674 0.94809 0.71415 0.0
C469 C 0.40413 0.98799 0.73762 0.0
C470 C 0.35125 0.95834 0.72154 0.0
C471 C 0.36148 0.98343 0.73619 0.0
H472 H 0.37893 0.42457 0.71892 0.0
H473 H 0.33206 0.36169 0.7968 0.0
H474 H 0.35504 0.33942 0.77663 0.0
H475 H 0.39057 0.33938 0.74004 0.0
H476 H 0.43896 0.40409 0.66599 0.0
H477 H 0.41323 0.42404 0.68142 0.0
C478 C 0.37346 0.40583 0.73114 0.0
C479 C 0.35381 0.3948 0.75929 0.0
C480 C 0.38721 0.39357 0.72031 0.0
C481 C 0.34717 0.37061 0.7751 0.0
C482 C 0.36034 0.35791 0.76365 0.0
C483 C 0.39527 0.35771 0.72704 0.0
C484 C 0.41668 0.37029 0.70204 0.0
C485 C 0.38072 0.36943 0.73678 0.0
C486 C 0.4227 0.39413 0.68558 0.0
C487 C 0.40797 0.40554 0.69432 0.0
H488 H 0.03665 0.44609 0.70838 0.0
H489 H 0.04921 0.38481 0.74716 0.0
H490 H 0.00381 0.35918 0.76634 0.0
H491 H 0.96077 0.35509 0.77434 0.0
H492 H 0.9501 0.41811 0.73847 0.0
H493 H 0.99447 0.44204 0.71563 0.0
C494 C 0.02949 0.42706 0.7208 0.0
C495 C 0.04628 0.41738 0.72633 0.0
C496 C 0.00366 0.41273 0.73232 0.0
C497 C 0.03667 0.39274 0.74272 0.0
C498 C 0.01072 0.37807 0.75365 0.0
C499 C 0.96818 0.37394 0.76117 0.0
C500 C 0.95224 0.38485 0.75811 0.0
C501 C 0.99406 0.38798 0.74888 0.0
C502 C 0.96207 0.4094 0.74138 0.0
C503 C 0.98743 0.4231 0.72827 0.0
H504 H 0.4366 0.1719 0.2094 0.0
H505 H 0.47747 0.16978 0.31178 0.0
H506 H 0.48124 0.21 0.33491 0.0
H507 H 0.47525 0.24711 0.32425 0.0
H508 H 0.43363 0.24898 0.22273 0.0
H509 H 0.42778 0.2075 0.2012 0.0
C510 C 0.44614 0.18013 0.23693 0.0
C511 C 0.45693 0.16795 0.25861 0.0
C512 C 0.44827 0.20331 0.25012 0.0
C513 C 0.46903 0.17875 0.29442 0.0
C514 C 0.47129 0.20183 0.30764 0.0
C515 C 0.46482 0.23839 0.29747 0.0
C516 C 0.45514 0.25122 0.27491 0.0
C517 C 0.46138 0.21449 0.2854 0.0
C518 C 0.44134 0.23952 0.24059 0.0
C519 C 0.43802 0.21583 0.22821 0.0
H520 H 0.21189 0.48939 0.31529 0.0
H521 H 0.16631 0.40871 0.28579 0.0
H522 H 0.20532 0.40843 0.26542 0.0
H523 H 0.25243 0.4314 0.25547 0.0
H524 H 0.29721 0.51244 0.28345 0.0
H525 H 0.25837 0.51221 0.305 0.0
C526 C 0.21042 0.47168 0.30454 0.0
C527 C 0.18623 0.44909 0.30217 0.0
C528 C 0.2328 0.47173 0.29257 0.0
C529 C 0.18471 0.42638 0.28787 0.0
C530 C 0.20701 0.4262 0.27626 0.0
C531 C 0.25368 0.44897 0.26642 0.0
C532 C 0.27771 0.47189 0.2679 0.0
C533 C 0.23116 0.4488 0.27842 0.0
C534 C 0.27898 0.49455 0.2819 0.0
C535 C 0.25678 0.49445 0.29428 0.0
H536 H 0.73603 0.22219 0.30153 0.0
H537 H 0.76219 0.18249 0.22547 0.0
H538 H 0.80006 0.22366 0.20782 0.0
H539 H 0.82529 0.27113 0.21327 0.0
H540 H 0.79866 0.31004 0.29029 0.0
H541 H 0.76142 0.26891 0.3082 0.0
C542 C 0.74999 0.22245 0.2811 0.0
C543 C 0.7462 0.19927 0.26473 0.0
C544 C 0.77165 0.24608 0.2712 0.0
C545 C 0.76462 0.20004 0.23849 0.0
C546 C 0.78626 0.22359 0.22835 0.0
C547 C 0.81137 0.27059 0.23403 0.0
C548 C 0.8148 0.2937 0.25034 0.0
C549 C 0.78991 0.24676 0.2444 0.0
C550 C 0.79659 0.29262 0.27731 0.0
C551 C 0.77523 0.26908 0.28756 0.0
H552 H 0.57694 0.82432 0.22611 0.0
H553 H 0.50238 0.78106 0.17102 0.0
H554 H 0.49683 0.74133 0.19903 0.0
H555 H 0.51243 0.71884 0.24006 0.0
H556 H 0.58724 0.76109 0.29439 0.0
H557 H 0.59341 0.8012 0.26569 0.0
C558 C 0.55954 0.80618 0.22016 0.0
C559 C 0.54009 0.80574 0.19659 0.0
C560 C 0.55645 0.78322 0.23627 0.0
C561 C 0.5177 0.78203 0.189 0.0
C562 C 0.51444 0.75925 0.20508 0.0
C563 C 0.53011 0.73681 0.2457 0.0
C564 C 0.54925 0.737 0.26955 0.0
C565 C 0.53359 0.75964 0.22893 0.0
C566 C 0.57217 0.76042 0.27616 0.0
C567 C 0.57569 0.78336 0.2598 0.0
H568 H 0.71617 0.54243 0.26201 0.0
H569 H 0.7667 0.59792 0.17691 0.0
H570 H 0.80356 0.59724 0.20576 0.0
H571 H 0.82132 0.58016 0.25416 0.0
H572 H 0.77067 0.52449 0.33899 0.0
H573 H 0.73404 0.52608 0.31122 0.0
C574 C 0.73525 0.55445 0.2498 0.0
C575 C 0.73862 0.57015 0.21725 0.0
C576 C 0.75636 0.55392 0.26644 0.0
C577 C 0.76351 0.58562 0.20191 0.0
C578 C 0.78463 0.58524 0.21837 0.0
C579 C 0.80229 0.56842 0.26669 0.0
C580 C 0.79877 0.55217 0.29856 0.0
C581 C 0.78125 0.56934 0.2505 0.0
C582 C 0.77396 0.53714 0.31442 0.0
C583 C 0.75297 0.53801 0.29854 0.0
H584 H 0.18438 0.73866 0.23103 0.0
H585 H 0.21579 0.68888 0.20888 0.0
H586 H 0.25897 0.72415 0.22319 0.0
H587 H 0.28773 0.76861 0.24378 0.0
H588 H 0.25712 0.81912 0.26489 0.0
H589 H 0.21377 0.78413 0.24894 0.0
C590 C 0.20069 0.73557 0.22927 0.0
C591 C 0.19679 0.7111 0.21912 0.0
C592 C 0.22562 0.75604 0.23734 0.0
C593 C 0.21817 0.70748 0.21663 0.0
C594 C 0.24292 0.72764 0.22487 0.0
C595 C 0.27161 0.77203 0.24482 0.0
C596 C 0.27564 0.79639 0.25576 0.0
C597 C 0.24684 0.75192 0.23552 0.0
C598 C 0.25455 0.80054 0.25655 0.0
C599 C 0.22975 0.78052 0.24755 0.0
H600 H 0.5722 0.75652 0.7127 0.0
H601 H 0.49977 0.7041 0.76807 0.0
H602 H 0.49549 0.74035 0.79057 0.0
H603 H 0.51171 0.78674 0.79352 0.0
H604 H 0.58383 0.83943 0.73775 0.0
H605 H 0.58882 0.80323 0.71656 0.0
C606 C 0.55551 0.75302 0.72978 0.0
C607 C 0.53632 0.7276 0.73856 0.0
C608 C 0.55308 0.77399 0.74255 0.0
C609 C 0.51482 0.72344 0.76075 0.0
C610 C 0.51233 0.74417 0.77367 0.0
C611 C 0.52858 0.79036 0.77684 0.0
C612 C 0.54733 0.81577 0.7672 0.0
C613 C 0.53126 0.76949 0.76458 0.0
C614 C 0.56907 0.82006 0.74555 0.0
C615 C 0.57194 0.79937 0.73339 0.0
H616 H 0.73827 0.53602 0.82452 0.0
H617 H 0.72735 0.57809 0.73138 0.0
H618 H 0.76749 0.58605 0.70097 0.0
H619 H 0.80441 0.57899 0.69882 0.0
H620 H 0.81505 0.53657 0.79176 0.0
H621 H 0.77642 0.53103 0.82428 0.0
C622 C 0.74472 0.54707 0.7977 0.0
C623 C 0.72968 0.55625 0.78014 0.0
C624 C 0.76777 0.55147 0.78022 0.0
C625 C 0.73847 0.57069 0.74549 0.0
C626 C 0.76143 0.57523 0.72801 0.0
C627 C 0.79842 0.56871 0.72634 0.0
C628 C 0.81254 0.55806 0.74261 0.0
C629 C 0.77604 0.5654 0.74482 0.0
C630 C 0.80451 0.54489 0.77842 0.0
C631 C 0.78237 0.54165 0.79706 0.0
H632 H 0.24842 0.81517 0.73179 0.0
H633 H 0.25402 0.7782 0.62692 0.0
H634 H 0.21358 0.73941 0.64289 0.0
H635 H 0.17806 0.71498 0.68849 0.0
H636 H 0.17281 0.75135 0.79426 0.0
H637 H 0.21149 0.79138 0.77583 0.0
C638 C 0.24069 0.79871 0.71227 0.0
C639 C 0.25437 0.79956 0.67838 0.0
C640 C 0.21749 0.77628 0.72182 0.0
C641 C 0.24402 0.77805 0.65336 0.0
C642 C 0.22086 0.75582 0.66245 0.0
C643 C 0.1852 0.73172 0.70736 0.0
C644 C 0.17262 0.73007 0.74282 0.0
C645 C 0.20765 0.75457 0.69689 0.0
C646 C 0.18216 0.75201 0.76687 0.0
C647 C 0.20433 0.77492 0.7564 0.0
H648 H 0.42513 0.24136 0.71451 0.0
H649 H 0.45467 0.28141 0.82385 0.0
H650 H 0.45511 0.24394 0.85059 0.0
H651 H 0.45067 0.20138 0.84108 0.0
H652 H 0.4218 0.1615 0.73148 0.0
H653 H 0.41736 0.1973 0.70685 0.0
C654 C 0.4314 0.24182 0.74434 0.0
C655 C 0.44013 0.26431 0.76696 0.0
C656 C 0.4319 0.2203 0.75942 0.0
C657 C 0.44798 0.26445 0.80567 0.0
C658 C 0.44832 0.24304 0.82098 0.0
C659 C 0.44319 0.20039 0.81191 0.0
C660 C 0.43687 0.17892 0.788 0.0
C661 C 0.4409 0.22111 0.79781 0.0
C662 C 0.42694 0.17785 0.75044 0.0
C663 C 0.42445 0.19835 0.73629 0.0
H664 H 0.17527 0.43382 0.78455 0.0
H665 H 0.20964 0.44496 0.67018 0.0
H666 H 0.24371 0.43856 0.69702 0.0
H667 H 0.26486 0.43181 0.75339 0.0
H668 H 0.23089 0.42149 0.86794 0.0
H669 H 0.19555 0.42549 0.84048 0.0
C670 C 0.1901 0.43467 0.76541 0.0
C671 C 0.18995 0.44 0.72545 0.0
C672 C 0.20979 0.43123 0.78107 0.0
C673 C 0.20934 0.44103 0.7011 0.0
C674 C 0.22886 0.43738 0.71641 0.0
C675 C 0.24965 0.43027 0.77234 0.0
C676 C 0.25062 0.42645 0.81269 0.0
C677 C 0.22946 0.43279 0.75643 0.0
C678 C 0.2307 0.42447 0.83678 0.0
C679 C 0.21046 0.42679 0.82112 0.0
H680 H 0.78374 0.25353 0.82517 0.0
H681 H 0.8258 0.26564 0.71751 0.0
H682 H 0.78847 0.22838 0.6884 0.0
H683 H 0.74305 0.19408 0.69235 0.0
H684 H 0.70121 0.18245 0.8002 0.0
H685 H 0.73942 0.21779 0.83042 0.0
C686 C 0.78485 0.24796 0.7954 0.0
C687 C 0.80746 0.2625 0.77344 0.0
C688 C 0.76332 0.22667 0.77882 0.0
C689 C 0.80861 0.25483 0.73504 0.0
C690 C 0.78725 0.23357 0.71834 0.0
C691 C 0.74233 0.19915 0.72255 0.0
C692 C 0.7192 0.18575 0.74384 0.0
C693 C 0.76436 0.21961 0.73976 0.0
C694 C 0.71869 0.19247 0.78304 0.0
C695 C 0.74053 0.21272 0.80037 0.0
H696 H 0.40255 0.08899 0.05372 0.0
H697 H 0.48547 0.12671 0.06133 0.0
H698 H 0.48866 0.12937 0.99022 0.0
H699 H 0.4679 0.12097 0.92578 0.0
H700 H 0.38494 0.08325 0.91856 0.0
H701 H 0.38186 0.08065 0.98955 0.0
C702 C 0.42133 0.09781 0.03988 0.0
C703 C 0.44371 0.10763 0.06288 0.0
C704 C 0.42305 0.09928 0.99898 0.0
C705 C 0.4679 0.11899 0.04437 0.0
C706 C 0.46976 0.12052 0.00367 0.0
C707 C 0.44914 0.11216 0.93973 0.0
C708 C 0.4267 0.10232 0.91681 0.0
C709 C 0.44746 0.11072 0.98067 0.0
C710 C 0.40256 0.091 0.93541 0.0
C711 C 0.40074 0.08948 0.97607 0.0
H712 H 0.34935 0.47981 0.97158 0.0
H713 H 0.30136 0.39814 0.95059 0.0
H714 H 0.29527 0.3903 0.02075 0.0
H715 H 0.30362 0.40657 0.08806 0.0
H716 H 0.35215 0.48819 0.109 0.0
H717 H 0.3579 0.49605 0.03884 0.0
C718 C 0.33754 0.46029 0.98231 0.0
C719 C 0.32583 0.43962 0.95582 0.0
C720 C 0.33418 0.45588 0.0227 0.0
C721 C 0.31065 0.41443 0.9703 0.0
C722 C 0.30712 0.40991 0.01044 0.0
C723 C 0.3154 0.42609 0.0773 0.0
C724 C 0.32737 0.44674 0.10378 0.0
C725 C 0.31878 0.43049 0.0369 0.0
C726 C 0.34269 0.47191 0.0893 0.0
C727 C 0.34601 0.47645 0.04915 0.0
H728 H 0.88694 0.38031 0.93696 0.0
H729 H 0.87309 0.3035 0.91469 0.0
H730 H 0.86963 0.29477 0.98469 0.0
H731 H 0.87086 0.30903 0.05228 0.0
H732 H 0.88384 0.38557 0.0744 0.0
H733 H 0.88716 0.39421 0.00444 0.0
C734 C 0.88324 0.36169 0.94741 0.0
C735 C 0.88041 0.34266 0.92063 0.0
C736 C 0.88102 0.35669 0.98769 0.0
C737 C 0.87537 0.31852 0.93467 0.0
C738 C 0.87338 0.3135 0.97471 0.0
C739 C 0.87435 0.32758 0.04182 0.0
C740 C 0.87715 0.34661 0.0686 0.0
C741 C 0.87619 0.33244 0.00149 0.0
C742 C 0.88157 0.37052 0.05447 0.0
C743 C 0.88354 0.37553 0.01444 0.0
H744 H 0.54779 0.92776 0.04111 0.0
H745 H 0.56458 0.86569 0.04613 0.0
H746 H 0.56231 0.86221 0.97507 0.0
H747 H 0.55545 0.87665 0.91147 0.0
H748 H 0.53845 0.93858 0.90652 0.0
H749 H 0.54081 0.94211 0.97755 0.0
C750 C 0.55105 0.91352 0.02669 0.0
C751 C 0.5564 0.89706 0.04899 0.0
C752 C 0.54958 0.9115 0.98579 0.0
C753 C 0.56044 0.87864 0.02975 0.0
C754 C 0.55912 0.8766 0.98907 0.0
C755 C 0.55221 0.89089 0.9259 0.0
C756 C 0.54678 0.90731 0.90361 0.0
C757 C 0.55365 0.89289 0.9668 0.0
C758 C 0.54265 0.92566 0.92287 0.0
C759 C 0.54403 0.92774 0.96354 0.0
H760 H 0.6047 0.51801 0.05514 0.0
H761 H 0.68775 0.55852 0.0625 0.0
H762 H 0.69072 0.55823 0.99142 0.0
H763 H 0.66982 0.54775 0.92712 0.0
H764 H 0.58678 0.5077 0.91983 0.0
H765 H 0.58379 0.50645 0.99094 0.0
C766 C 0.62347 0.52671 0.04125 0.0
C767 C 0.64596 0.53835 0.06419 0.0
C768 C 0.62506 0.52659 0.00034 0.0
C769 C 0.67011 0.54946 0.04562 0.0
C770 C 0.67184 0.54933 0.00493 0.0
C771 C 0.65105 0.53861 0.94105 0.0
C772 C 0.62856 0.52792 0.9181 0.0
C773 C 0.64945 0.53812 0.98199 0.0
C774 C 0.60442 0.51615 0.93671 0.0
C775 C 0.60267 0.51545 0.97742 0.0
H776 H 0.0844 0.62209 0.95845 0.0
H777 H 0.14032 0.70067 0.92864 0.0
H778 H 0.14889 0.71158 0.99758 0.0
H779 H 0.14066 0.69905 0.06634 0.0
H780 H 0.08528 0.62049 0.09684 0.0
H781 H 0.07641 0.60941 0.02773 0.0
C782 C 0.09845 0.6416 0.96703 0.0
C783 C 0.11165 0.6605 0.93829 0.0
C784 C 0.10342 0.64779 0.00689 0.0
C785 C 0.12986 0.68568 0.95002 0.0
C786 C 0.13479 0.69199 0.98951 0.0
C787 C 0.12662 0.6795 0.05794 0.0
C788 C 0.11365 0.66067 0.08679 0.0
C789 C 0.12169 0.67322 0.01818 0.0
C790 C 0.09558 0.6354 0.07527 0.0
C791 C 0.09048 0.62903 0.03572 0.0
H792 H 0.89342 0.6062 0.57802 0.0
H793 H 0.86027 0.52355 0.58168 0.0
H794 H 0.85718 0.52157 0.51063 0.0
H795 H 0.86435 0.54322 0.44739 0.0
H796 H 0.89675 0.62574 0.44341 0.0
H797 H 0.89963 0.62779 0.51461 0.0
C798 C 0.8855 0.58775 0.56329 0.0
C799 C 0.87716 0.56508 0.58522 0.0
C800 C 0.88365 0.5867 0.52234 0.0
C801 C 0.86681 0.54132 0.56561 0.0
C802 C 0.86507 0.54014 0.52492 0.0
C803 C 0.87204 0.56167 0.46206 0.0
C804 C 0.8804 0.5843 0.44004 0.0
C805 C 0.87351 0.56271 0.50299 0.0
C806 C 0.89016 0.60801 0.4596 0.0
C807 C 0.89185 0.60922 0.50034 0.0
H808 H 0.34013 0.86376 0.55255 0.0
H809 H 0.29985 0.90661 0.55368 0.0
H810 H 0.3006 0.90796 0.48247 0.0
H811 H 0.31212 0.89654 0.41988 0.0
H812 H 0.35205 0.85337 0.41858 0.0
H813 H 0.35195 0.8526 0.48985 0.0
C814 C 0.33158 0.87348 0.53725 0.0
C815 C 0.31994 0.88505 0.55847 0.0
C816 C 0.33194 0.87408 0.49624 0.0
C817 C 0.30891 0.8975 0.53812 0.0
C818 C 0.30931 0.89829 0.49736 0.0
C819 C 0.32082 0.88697 0.43514 0.0
C820 C 0.33203 0.875 0.41386 0.0
C821 C 0.32067 0.88655 0.47613 0.0
C822 C 0.34323 0.8627 0.43419 0.0
C823 C 0.34321 0.86226 0.47498 0.0
H824 H 0.45329 0.35806 0.53689 0.0
H825 H 0.44171 0.28387 0.57204 0.0
H826 H 0.4389 0.27106 0.50367 0.0
H827 H 0.43962 0.28091 0.43379 0.0
H828 H 0.45285 0.35576 0.39894 0.0
H829 H 0.45503 0.36827 0.46728 0.0
C830 C 0.45014 0.33908 0.52962 0.0
C831 C 0.44763 0.32194 0.55954 0.0
C832 C 0.44878 0.33193 0.49027 0.0
C833 C 0.44377 0.29748 0.54958 0.0
C834 C 0.44209 0.2901 0.51048 0.0
C835 C 0.44288 0.29991 0.44118 0.0
C836 C 0.44596 0.31733 0.41134 0.0
C837 C 0.44451 0.30715 0.48058 0.0
C838 C 0.45046 0.342 0.42136 0.0
C839 C 0.45169 0.34917 0.46044 0.0
H840 H 0.09766 0.39648 0.58278 0.0
H841 H 0.13679 0.47961 0.58649 0.0
H842 H 0.13576 0.4811 0.51524 0.0
H843 H 0.12385 0.45876 0.45185 0.0
H844 H 0.08501 0.3756 0.44866 0.0
H845 H 0.0858 0.37423 0.51977 0.0
C846 C 0.10598 0.41495 0.56807 0.0
C847 C 0.11729 0.43788 0.58999 0.0
C848 C 0.10536 0.41568 0.52715 0.0
C849 C 0.12798 0.46164 0.57036 0.0
C850 C 0.12739 0.46252 0.5296 0.0
C851 C 0.11551 0.44033 0.46671 0.0
C852 C 0.10438 0.41732 0.4449 0.0
C853 C 0.11612 0.43965 0.50769 0.0
C854 C 0.09373 0.39362 0.46465 0.0
C855 C 0.09417 0.3928 0.50536 0.0
H856 H 0.67202 0.14554 0.396 0.0
H857 H 0.70381 0.09721 0.42612 0.0
H858 H 0.69772 0.10234 0.49543 0.0
H859 H 0.68324 0.12043 0.54741 0.0
H860 H 0.65226 0.16945 0.51714 0.0
H861 H 0.65821 0.16415 0.44791 0.0
C862 C 0.6776 0.13609 0.41769 0.0
C863 C 0.6883 0.12095 0.40584 0.0
C864 C 0.67421 0.13925 0.45747 0.0
C865 C 0.69556 0.10899 0.4344 0.0
C866 C 0.69206 0.11189 0.47405 0.0
C867 C 0.67777 0.12995 0.52569 0.0
C868 C 0.66726 0.14527 0.5375 0.0
C869 C 0.68138 0.12696 0.48591 0.0
C870 C 0.66041 0.15757 0.50893 0.0
C871 C 0.66378 0.15453 0.4693 0.0
H872 H 0.56573 0.63653 0.46161 0.0
H873 H 0.53777 0.68987 0.4479 0.0
H874 H 0.52831 0.6871 0.51771 0.0
H875 H 0.52782 0.66936 0.58269 0.0
H876 H 0.55568 0.61586 0.59578 0.0
H877 H 0.56522 0.61885 0.52619 0.0
C878 C 0.55763 0.64762 0.47384 0.0
C879 C 0.5525 0.6634 0.4495 0.0
C880 C 0.55212 0.64585 0.51394 0.0
C881 C 0.54193 0.67757 0.46593 0.0
C882 C 0.53648 0.67598 0.50587 0.0
C883 C 0.53593 0.65831 0.57032 0.0
C884 C 0.54098 0.6424 0.5945 0.0
C885 C 0.54144 0.66013 0.53015 0.0
C886 C 0.55155 0.62826 0.57793 0.0
C887 C 0.55706 0.62997 0.53808 0.0
H888 H 0.55515 0.12381 0.15727 0.0
H889 H 0.52219 0.12831 0.26713 0.0
H890 H 0.55904 0.1314 0.30204 0.0
H891 H 0.59978 0.13125 0.30175 0.0
H892 H 0.63263 0.12617 0.19216 0.0
H893 H 0.5967 0.12498 0.15687 0.0
C894 C 0.55609 0.12562 0.18882 0.0
C895 C 0.53587 0.12572 0.2095 0.0
C896 C 0.57728 0.12721 0.20883 0.0
C897 C 0.53742 0.12809 0.25042 0.0
C898 C 0.55849 0.12984 0.27047 0.0
C899 C 0.59917 0.13 0.27013 0.0
C900 C 0.61883 0.1287 0.24969 0.0
C901 C 0.5784 0.12916 0.25002 0.0
C902 C 0.61773 0.12713 0.20869 0.0
C903 C 0.59717 0.12643 0.18845 0.0
H904 H 0.47277 0.58012 0.34672 0.0
H905 H 0.49198 0.62882 0.24493 0.0
H906 H 0.45387 0.59559 0.21131 0.0
H907 H 0.41539 0.55255 0.21043 0.0
H908 H 0.39609 0.5039 0.31228 0.0
H909 H 0.43392 0.53733 0.34619 0.0
C910 C 0.46864 0.5835 0.31719 0.0
C911 C 0.48528 0.60692 0.29839 0.0
C912 C 0.44666 0.56432 0.29799 0.0
C913 C 0.47954 0.61097 0.26014 0.0
C914 C 0.45774 0.59197 0.24084 0.0
C915 C 0.41941 0.54924 0.24007 0.0
C916 C 0.40292 0.5257 0.2587 0.0
C917 C 0.44121 0.56855 0.25944 0.0
C918 C 0.40843 0.52181 0.29718 0.0
C919 C 0.43009 0.54092 0.31662 0.0
H920 H 0.85026 0.48556 0.26004 0.0
H921 H 0.90737 0.49342 0.34415 0.0
H922 H 0.90645 0.45519 0.31755 0.0
H923 H 0.89056 0.42037 0.26904 0.0
H924 H 0.83377 0.41278 0.18451 0.0
H925 H 0.83347 0.45002 0.21272 0.0
C926 C 0.8624 0.47885 0.27273 0.0
C927 C 0.87891 0.49243 0.30399 0.0
C928 C 0.86194 0.45693 0.25711 0.0
C929 C 0.89451 0.48341 0.32003 0.0
C930 C 0.89403 0.46154 0.3048 0.0
C931 C 0.87805 0.4268 0.25683 0.0
C932 C 0.86229 0.41381 0.22459 0.0
C933 C 0.87801 0.4483 0.27311 0.0
C934 C 0.84614 0.42239 0.20927 0.0
C935 C 0.84596 0.44372 0.22537 0.0
H936 H 0.49027 0.86417 0.24431 0.0
H937 H 0.45965 0.86113 0.12916 0.0
H938 H 0.41973 0.85527 0.15782 0.0
H939 H 0.39429 0.85281 0.21561 0.0
H940 H 0.42487 0.85535 0.33069 0.0
H941 H 0.46391 0.8593 0.30192 0.0
C942 C 0.47486 0.86222 0.22545 0.0
C943 C 0.47803 0.86333 0.18466 0.0
C944 C 0.45192 0.85868 0.2421 0.0
C945 C 0.45774 0.86041 0.16065 0.0
C946 C 0.43491 0.85708 0.17702 0.0
C947 C 0.40939 0.85401 0.23443 0.0
C948 C 0.40668 0.85395 0.27527 0.0
C949 C 0.43188 0.8564 0.21771 0.0
C950 C 0.42641 0.85538 0.29917 0.0
C951 C 0.44882 0.85775 0.28276 0.0
H952 H 0.60798 0.44721 0.20005 0.0
H953 H 0.58879 0.50313 0.24386 0.0
H954 H 0.54835 0.46865 0.26983 0.0
H955 H 0.51807 0.42284 0.27932 0.0
H956 H 0.53645 0.36641 0.23543 0.0
H957 H 0.57759 0.40092 0.21044 0.0
C958 C 0.59498 0.45185 0.21534 0.0
C959 C 0.60146 0.47775 0.21989 0.0
C960 C 0.57159 0.43187 0.23021 0.0
C961 C 0.58435 0.4834 0.23982 0.0
C962 C 0.56117 0.46368 0.25474 0.0
C963 C 0.53107 0.41802 0.2644 0.0
C964 C 0.52415 0.39207 0.25922 0.0
C965 C 0.55456 0.43788 0.24997 0.0
C966 C 0.54128 0.38624 0.2398 0.0
C967 C 0.5648 0.40596 0.22546 0.0
H968 H 0.13257 0.57645 0.2007 0.0
H969 H 0.10253 0.59864 0.29861 0.0
H970 H 0.09809 0.56206 0.3361 0.0
H971 H 0.10171 0.52311 0.34061 0.0
H972 H 0.13242 0.50137 0.24301 0.0
H973 H 0.13769 0.53845 0.20608 0.0
C974 C 0.12509 0.57332 0.23025 0.0
C975 C 0.11778 0.5902 0.24669 0.0
C976 C 0.12269 0.5523 0.25178 0.0
C977 C 0.1083 0.58595 0.28517 0.0
C978 C 0.10571 0.565 0.30667 0.0
C979 C 0.10963 0.52652 0.31132 0.0
C980 C 0.11654 0.5094 0.29462 0.0
C981 C 0.11269 0.54795 0.29019 0.0
C982 C 0.12693 0.51422 0.25666 0.0
C983 C 0.12992 0.53541 0.23543 0.0
H984 H 0.44818 0.85722 0.80193 0.0
H985 H 0.4935 0.87637 0.69632 0.0
H986 H 0.45765 0.87359 0.6589 0.0
H987 H 0.41433 0.86802 0.65651 0.0
H988 H 0.36922 0.84994 0.76217 0.0
H989 H 0.40399 0.8498 0.799 0.0
C990 C 0.45016 0.8606 0.77069 0.0
C991 C 0.47359 0.86713 0.75208 0.0
C992 C 0.42951 0.85922 0.74928 0.0
C993 C 0.47577 0.87143 0.71152 0.0
C994 C 0.45526 0.86985 0.69002 0.0
C995 C 0.41196 0.8638 0.68752 0.0
C996 C 0.38921 0.85911 0.70651 0.0
C997 C 0.43217 0.86409 0.70866 0.0
C998 C 0.38655 0.85371 0.74677 0.0
C999 C 0.40646 0.85367 0.76791 0.0
H1000 H 0.59135 0.44128 0.80283 0.0
H1001 H 0.60841 0.49326 0.70576 0.0
H1002 H 0.57472 0.45854 0.6671 0.0
H1003 H 0.53878 0.4141 0.66202 0.0
H1004 H 0.52022 0.36262 0.76012 0.0
H1005 H 0.55621 0.39635 0.79699 0.0
C1006 C 0.58786 0.44495 0.77311 0.0
C1007 C 0.60234 0.46986 0.75731 0.0
C1008 C 0.56811 0.42499 0.7512 0.0
C1009 C 0.59745 0.47431 0.71877 0.0
C1010 C 0.57819 0.45446 0.69658 0.0
C1011 C 0.54279 0.41015 0.69128 0.0
C1012 C 0.52682 0.38589 0.70828 0.0
C1013 C 0.56317 0.42981 0.71266 0.0
C1014 C 0.53217 0.38118 0.74638 0.0
C1015 C 0.55273 0.40046 0.76753 0.0
H1016 H 0.1395 0.5897 0.83733 0.0
H1017 H 0.13126 0.6219 0.72924 0.0
H1018 H 0.13339 0.58822 0.69244 0.0
H1019 H 0.1353 0.54837 0.69089 0.0
H1020 H 0.14263 0.51543 0.79879 0.0
H1021 H 0.14333 0.5507 0.83551 0.0
C1022 C 0.13838 0.58947 0.80571 0.0
C1023 C 0.13506 0.60825 0.78618 0.0
C1024 C 0.13936 0.56984 0.7846 0.0
C1025 C 0.13365 0.60763 0.74514 0.0
C1026 C 0.13486 0.58835 0.72399 0.0
C1027 C 0.13725 0.54898 0.72241 0.0
C1028 C 0.13878 0.52917 0.74199 0.0
C1029 C 0.13736 0.56916 0.74343 0.0
C1030 C 0.14133 0.53035 0.7829 0.0
C1031 C 0.1417 0.55051 0.80398 0.0
H1032 H 0.61328 0.16276 0.72398 0.0
H1033 H 0.56432 0.11341 0.63172 0.0
H1034 H 0.52714 0.11292 0.66156 0.0
H1035 H 0.50793 0.12351 0.71626 0.0
H1036 H 0.55621 0.17164 0.81001 0.0
H1037 H 0.59427 0.1757 0.77701 0.0
C1038 C 0.59455 0.15224 0.71007 0.0
C1039 C 0.59158 0.13802 0.67575 0.0
C1040 C 0.57308 0.1516 0.72784 0.0
C1041 C 0.56714 0.1244 0.65823 0.0
C1042 C 0.54584 0.12405 0.67532 0.0
C1043 C 0.52678 0.13507 0.72944 0.0
C1044 C 0.52914 0.14706 0.76578 0.0
C1045 C 0.54848 0.13708 0.71056 0.0
C1046 C 0.55379 0.1621 0.78217 0.0
C1047 C 0.57557 0.1644 0.76332 0.0
H1048 H 0.40016 0.49158 0.79537 0.0
H1049 H 0.35776 0.53225 0.7916 0.0
H1050 H 0.39611 0.57087 0.76786 0.0
H1051 H 0.44165 0.59297 0.74769 0.0
H1052 H 0.48357 0.55177 0.75102 0.0
H1053 H 0.44537 0.51349 0.77528 0.0
C1054 C 0.39928 0.50891 0.78955 0.0
C1055 C 0.3761 0.50901 0.79537 0.0
C1056 C 0.42131 0.53095 0.77565 0.0
C1057 C 0.37534 0.53162 0.78741 0.0
C1058 C 0.39726 0.55372 0.77379 0.0
C1059 C 0.44243 0.57562 0.75367 0.0
C1060 C 0.46549 0.5753 0.74749 0.0
C1061 C 0.42034 0.55358 0.76767 0.0
C1062 C 0.46611 0.55261 0.75544 0.0
C1063 C 0.44427 0.53068 0.76939 0.0
H1064 H 0.86917 0.39036 0.72777 0.0
H1065 H 0.83014 0.39254 0.83246 0.0
H1066 H 0.83276 0.43258 0.81038 0.0
H1067 H 0.84826 0.46814 0.7629 0.0
H1068 H 0.88721 0.46545 0.65838 0.0
H1069 H 0.8825 0.42439 0.679 0.0
C1070 C 0.86104 0.39944 0.74571 0.0
C1071 C 0.84962 0.38853 0.78186 0.0
C1072 C 0.86278 0.42248 0.733 0.0
C1073 C 0.83904 0.40051 0.80452 0.0
C1074 C 0.84063 0.42347 0.79199 0.0
C1075 C 0.85566 0.45853 0.74458 0.0
C1076 C 0.86826 0.46999 0.70928 0.0
C1077 C 0.85283 0.43484 0.75656 0.0
C1078 C 0.8775 0.45715 0.68572 0.0
C1079 C 0.87483 0.43365 0.69749 0.0
loop_
_geom_bond_atom_site_label_1
_geom_bond_atom_site_label_2
_geom_bond_distance
_geom_bond_site_symmetry_2
_ccdc_geom_bond_type
C0 O1 1.160 . S
C0 O7 1.185 . S
O1 C0 1.160 . S
O2 Zn3 1.899 . S
O2 C10 1.284 . S
Zn3 O2 1.899 . S
Zn3 O4 2.032 . S
Zn3 O7 2.086 . S
Zn3 O12 1.977 . S
O4 Zn3 2.032 . S
O4 C8 1.278 . S
C5 O6 1.203 . S
C5 O12 1.267 . S
O6 C5 1.203 . S
O7 C0 1.185 . S
O7 Zn3 2.086 . S
C8 O4 1.278 . S
C8 O9 1.211 . S
O9 C8 1.211 . S
C10 O2 1.284 . S
C10 O11 1.273 . S
O11 C10 1.273 . S
O12 Zn3 1.977 . S
O12 C5 1.267 . S
C13 O14 1.160 . S
C13 O20 1.185 . S
O14 C13 1.160 . S
O15 Zn16 1.899 . S
O15 C23 1.284 . S
Zn16 O15 1.899 . S
Zn16 O17 2.032 . S
Zn16 O20 2.086 . S
Zn16 O25 1.977 . S
O17 Zn16 2.032 . S
O17 C21 1.278 . S
C18 O19 1.203 . S
C18 O25 1.267 . S
O19 C18 1.203 . S
O20 C13 1.185 . S
O20 Zn16 2.086 . S
C21 O17 1.278 . S
C21 O22 1.211 . S
O22 C21 1.211 . S
C23 O15 1.284 . S
C23 O24 1.273 . S
O24 C23 1.273 . S
O25 Zn16 1.977 . S
O25 C18 1.267 . S
C26 O27 1.160 . S
C26 O33 1.185 . S
O27 C26 1.160 . S
O28 Zn29 1.899 . S
O28 C36 1.284 . S
Zn29 O28 1.899 . S
Zn29 O30 2.032 . S
Zn29 O33 2.086 . S
Zn29 O38 1.977 . S
O30 Zn29 2.032 . S
O30 C34 1.278 . S
C31 O32 1.203 . S
C31 O38 1.267 . S
O32 C31 1.203 . S
O33 C26 1.185 . S
O33 Zn29 2.086 . S
C34 O30 1.278 . S
C34 O35 1.211 . S
O35 C34 1.211 . S
C36 O28 1.284 . S
C36 O37 1.273 . S
O37 C36 1.273 . S
O38 Zn29 1.977 . S
O38 C31 1.267 . S
C39 O40 1.160 . S
C39 O46 1.185 . S
O40 C39 1.160 . S
O41 Zn42 1.899 . S
O41 C49 1.284 . S
Zn42 O41 1.899 . S
Zn42 O43 2.032 . S
Zn42 O46 2.086 . S
Zn42 O51 1.977 . S
O43 Zn42 2.032 . S
O43 C47 1.278 . S
C44 O45 1.203 . S
C44 O51 1.267 . S
O45 C44 1.203 . S
O46 C39 1.185 . S
O46 Zn42 2.086 . S
C47 O43 1.278 . S
C47 O48 1.211 . S
O48 C47 1.211 . S
C49 O41 1.284 . S
C49 O50 1.273 . S
O50 C49 1.273 . S
O51 Zn42 1.977 . S
O51 C44 1.267 . S
C52 O53 1.160 . S
C52 O59 1.185 . S
O53 C52 1.160 . S
O54 Zn55 1.899 . S
O54 C62 1.284 . S
Zn55 O54 1.899 . S
Zn55 O56 2.032 . S
Zn55 O59 2.086 . S
Zn55 O64 1.977 . S
O56 Zn55 2.032 . S
O56 C60 1.278 . S
C57 O58 1.203 . S
C57 O64 1.267 . S
O58 C57 1.203 . S
O59 C52 1.185 . S
O59 Zn55 2.086 . S
C60 O56 1.278 . S
C60 O61 1.211 . S
O61 C60 1.211 . S
C62 O54 1.284 . S
C62 O63 1.273 . S
O63 C62 1.273 . S
O64 Zn55 1.977 . S
O64 C57 1.267 . S
C65 O66 1.160 . S
C65 O72 1.185 . S
O66 C65 1.160 . S
O67 Zn68 1.899 . S
O67 C75 1.284 . S
Zn68 O67 1.899 . S
Zn68 O69 2.032 . S
Zn68 O72 2.086 . S
Zn68 O77 1.977 . S
O69 Zn68 2.032 . S
O69 C73 1.278 . S
C70 O71 1.203 . S
C70 O77 1.267 . S
O71 C70 1.203 . S
O72 C65 1.185 . S
O72 Zn68 2.086 . S
C73 O69 1.278 . S
C73 O74 1.211 . S
O74 C73 1.211 . S
C75 O67 1.284 . S
C75 O76 1.273 . S
O76 C75 1.273 . S
O77 Zn68 1.977 . S
O77 C70 1.267 . S
C78 O79 1.160 . S
C78 O85 1.185 . S
O79 C78 1.160 . S
O80 Zn81 1.899 . S
O80 C88 1.284 . S
Zn81 O80 1.899 . S
Zn81 O82 2.032 . S
Zn81 O85 2.086 . S
Zn81 O90 1.977 . S
O82 Zn81 2.032 . S
O82 C86 1.278 . S
C83 O84 1.203 . S
C83 O90 1.267 . S
O84 C83 1.203 . S
O85 C78 1.185 . S
O85 Zn81 2.086 . S
C86 O82 1.278 . S
C86 O87 1.211 . S
O87 C86 1.211 . S
C88 O80 1.284 . S
C88 O89 1.273 . S
O89 C88 1.273 . S
O90 Zn81 1.977 . S
O90 C83 1.267 . S
C91 O92 1.160 . S
C91 O98 1.185 . S
O92 C91 1.160 . S
O93 Zn94 1.899 . S
O93 C101 1.284 . S
Zn94 O93 1.899 . S
Zn94 O95 2.032 . S
Zn94 O98 2.086 . S
Zn94 O103 1.977 . S
O95 Zn94 2.032 . S
O95 C99 1.278 . S
C96 O97 1.203 . S
C96 O103 1.267 . S
O97 C96 1.203 . S
O98 C91 1.185 . S
O98 Zn94 2.086 . S
C99 O95 1.278 . S
C99 O100 1.211 . S
O100 C99 1.211 . S
C101 O93 1.284 . S
C101 O102 1.273 . S
O102 C101 1.273 . S
O103 Zn94 1.977 . S
O103 C96 1.267 . S
C104 O105 1.160 . S
C104 O111 1.185 . S
O105 C104 1.160 . S
O106 Zn107 1.899 . S
O106 C114 1.284 . S
Zn107 O106 1.899 . S
Zn107 O108 2.032 . S
Zn107 O111 2.086 . S
Zn107 O116 1.977 . S
O108 Zn107 2.032 . S
O108 C112 1.278 . S
C109 O110 1.203 . S
C109 O116 1.267 . S
O110 C109 1.203 . S
O111 C104 1.185 . S
O111 Zn107 2.086 . S
C112 O108 1.278 . S
C112 O113 1.211 . S
O113 C112 1.211 . S
C114 O106 1.284 . S
C114 O115 1.273 . S
O115 C114 1.273 . S
O116 Zn107 1.977 . S
O116 C109 1.267 . S
C117 O118 1.160 . S
C117 O124 1.185 . S
O118 C117 1.160 . S
O119 Zn120 1.899 . S
O119 C127 1.284 . S
Zn120 O119 1.899 . S
Zn120 O121 2.032 . S
Zn120 O124 2.086 . S
Zn120 O129 1.977 . S
O121 Zn120 2.032 . S
O121 C125 1.278 . S
C122 O123 1.203 . S
C122 O129 1.267 . S
O123 C122 1.203 . S
O124 C117 1.185 . S
O124 Zn120 2.086 . S
C125 O121 1.278 . S
C125 O126 1.211 . S
O126 C125 1.211 . S
C127 O119 1.284 . S
C127 O128 1.273 . S
O128 C127 1.273 . S
O129 Zn120 1.977 . S
O129 C122 1.267 . S
C130 O131 1.160 . S
C130 O137 1.185 . S
O131 C130 1.160 . S
O132 Zn133 1.899 . S
O132 C140 1.284 . S
Zn133 O132 1.899 . S
Zn133 O134 2.032 . S
Zn133 O137 2.086 . S
Zn133 O142 1.977 . S
O134 Zn133 2.032 . S
O134 C138 1.278 . S
C135 O136 1.203 . S
C135 O142 1.267 . S
O136 C135 1.203 . S
O137 C130 1.185 . S
O137 Zn133 2.086 . S
C138 O134 1.278 . S
C138 O139 1.211 . S
O139 C138 1.211 . S
C140 O132 1.284 . S
C140 O141 1.273 . S
O141 C140 1.273 . S
O142 Zn133 1.977 . S
O142 C135 1.267 . S
C143 O144 1.160 . S
C143 O150 1.185 . S
O144 C143 1.160 . S
O145 Zn146 1.899 . S
O145 C153 1.284 . S
Zn146 O145 1.899 . S
Zn146 O147 2.032 . S
Zn146 O150 2.086 . S
Zn146 O155 1.977 . S
O147 Zn146 2.032 . S
O147 C151 1.278 . S
C148 O149 1.203 . S
C148 O155 1.267 . S
O149 C148 1.203 . S
O150 C143 1.185 . S
O150 Zn146 2.086 . S
C151 O147 1.278 . S
C151 O152 1.211 . S
O152 C151 1.211 . S
C153 O145 1.284 . S
C153 O154 1.273 . S
O154 C153 1.273 . S
O155 Zn146 1.977 . S
O155 C148 1.267 . S
C156 O157 1.160 . S
C156 O163 1.185 . S
O157 C156 1.160 . S
O158 Zn159 1.899 . S
O158 C166 1.284 . S
Zn159 O158 1.899 . S
Zn159 O160 2.032 . S
Zn159 O163 2.086 . S
Zn159 O168 1.977 . S
O160 Zn159 2.032 . S
O160 C164 1.278 . S
C161 O162 1.203 . S
C161 O168 1.267 . S
O162 C161 1.203 . S
O163 C156 1.185 . S
O163 Zn159 2.086 . S
C164 O160 1.278 . S
C164 O165 1.211 . S
O165 C164 1.211 . S
C166 O158 1.284 . S
C166 O167 1.273 . S
O167 C166 1.273 . S
O168 Zn159 1.977 . S
O168 C161 1.267 . S
C169 O170 1.160 . S
C169 O176 1.185 . S
O170 C169 1.160 . S
O171 Zn172 1.899 . S
O171 C179 1.284 . S
Zn172 O171 1.899 . S
Zn172 O173 2.032 . S
Zn172 O176 2.086 . S
Zn172 O181 1.977 . S
O173 Zn172 2.032 . S
O173 C177 1.278 . S
C174 O175 1.203 . S
C174 O181 1.267 . S
O175 C174 1.203 . S
O176 C169 1.185 . S
O176 Zn172 2.086 . S
C177 O173 1.278 . S
C177 O178 1.211 . S
O178 C177 1.211 . S
C179 O171 1.284 . S
C179 O180 1.273 . S
O180 C179 1.273 . S
O181 Zn172 1.977 . S
O181 C174 1.267 . S
C182 O183 1.160 . S
C182 O189 1.185 . S
O183 C182 1.160 . S
O184 Zn185 1.899 . S
O184 C192 1.284 . S
Zn185 O184 1.899 . S
Zn185 O186 2.032 . S
Zn185 O189 2.086 . S
Zn185 O194 1.977 . S
O186 Zn185 2.032 . S
O186 C190 1.278 . S
C187 O188 1.203 . S
C187 O194 1.267 . S
O188 C187 1.203 . S
O189 C182 1.185 . S
O189 Zn185 2.086 . S
C190 O186 1.278 . S
C190 O191 1.211 . S
O191 C190 1.211 . S
C192 O184 1.284 . S
C192 O193 1.273 . S
O193 C192 1.273 . S
O194 Zn185 1.977 . S
O194 C187 1.267 . S
C195 O196 1.160 . S
C195 O202 1.185 . S
O196 C195 1.160 . S
O197 Zn198 1.899 . S
O197 C205 1.284 . S
Zn198 O197 1.899 . S
Zn198 O199 2.032 . S
Zn198 O202 2.086 . S
Zn198 O207 1.977 . S
O199 Zn198 2.032 . S
O199 C203 1.278 . S
C200 O201 1.203 . S
C200 O207 1.267 . S
O201 C200 1.203 . S
O202 C195 1.185 . S
O202 Zn198 2.086 . S
C203 O199 1.278 . S
C203 O204 1.211 . S
O204 C203 1.211 . S
C205 O197 1.284 . S
C205 O206 1.273 . S
O206 C205 1.273 . S
O207 Zn198 1.977 . S
O207 C200 1.267 . S
C208 O209 1.160 . S
C208 O215 1.185 . S
O209 C208 1.160 . S
O210 Zn211 1.899 . S
O210 C218 1.284 . S
Zn211 O210 1.899 . S
Zn211 O212 2.032 . S
Zn211 O215 2.086 . S
Zn211 O220 1.977 . S
O212 Zn211 2.032 . S
O212 C216 1.278 . S
C213 O214 1.203 . S
C213 O220 1.267 . S
O214 C213 1.203 . S
O215 C208 1.185 . S
O215 Zn211 2.086 . S
C216 O212 1.278 . S
C216 O217 1.211 . S
O217 C216 1.211 . S
C218 O210 1.284 . S
C218 O219 1.273 . S
O219 C218 1.273 . S
O220 Zn211 1.977 . S
O220 C213 1.267 . S
C221 O222 1.160 . S
C221 O228 1.185 . S
O222 C221 1.160 . S
O223 Zn224 1.899 . S
O223 C231 1.284 . S
Zn224 O223 1.899 . S
Zn224 O225 2.032 . S
Zn224 O228 2.086 . S
Zn224 O233 1.977 . S
O225 Zn224 2.032 . S
O225 C229 1.278 . S
C226 O227 1.203 . S
C226 O233 1.267 . S
O227 C226 1.203 . S
O228 C221 1.185 . S
O228 Zn224 2.086 . S
C229 O225 1.278 . S
C229 O230 1.211 . S
O230 C229 1.211 . S
C231 O223 1.284 . S
C231 O232 1.273 . S
O232 C231 1.273 . S
O233 Zn224 1.977 . S
O233 C226 1.267 . S
C234 O235 1.160 . S
C234 O241 1.185 . S
O235 C234 1.160 . S
O236 Zn237 1.899 . S
O236 C244 1.284 . S
Zn237 O236 1.899 . S
Zn237 O238 2.032 . S
Zn237 O241 2.086 . S
Zn237 O246 1.977 . S
O238 Zn237 2.032 . S
O238 C242 1.278 . S
C239 O240 1.203 . S
C239 O246 1.267 . S
O240 C239 1.203 . S
O241 C234 1.185 . S
O241 Zn237 2.086 . S
C242 O238 1.278 . S
C242 O243 1.211 . S
O243 C242 1.211 . S
C244 O236 1.284 . S
C244 O245 1.273 . S
O245 C244 1.273 . S
O246 Zn237 1.977 . S
O246 C239 1.267 . S
C247 O248 1.160 . S
C247 O254 1.185 . S
O248 C247 1.160 . S
O249 Zn250 1.899 . S
O249 C257 1.284 . S
Zn250 O249 1.899 . S
Zn250 O251 2.032 . S
Zn250 O254 2.086 . S
Zn250 O259 1.977 . S
O251 Zn250 2.032 . S
O251 C255 1.278 . S
C252 O253 1.203 . S
C252 O259 1.267 . S
O253 C252 1.203 . S
O254 C247 1.185 . S
O254 Zn250 2.086 . S
C255 O251 1.278 . S
C255 O256 1.211 . S
O256 C255 1.211 . S
C257 O249 1.284 . S
C257 O258 1.273 . S
O258 C257 1.273 . S
O259 Zn250 1.977 . S
O259 C252 1.267 . S
C260 O261 1.160 . S
C260 O267 1.185 . S
O261 C260 1.160 . S
O262 Zn263 1.899 . S
O262 C270 1.284 . S
Zn263 O262 1.899 . S
Zn263 O264 2.032 . S
Zn263 O267 2.086 . S
Zn263 O272 1.977 . S
O264 Zn263 2.032 . S
O264 C268 1.278 . S
C265 O266 1.203 . S
C265 O272 1.267 . S
O266 C265 1.203 . S
O267 C260 1.185 . S
O267 Zn263 2.086 . S
C268 O264 1.278 . S
C268 O269 1.211 . S
O269 C268 1.211 . S
C270 O262 1.284 . S
C270 O271 1.273 . S
O271 C270 1.273 . S
O272 Zn263 1.977 . S
O272 C265 1.267 . S
C273 O274 1.160 . S
C273 O280 1.185 . S
O274 C273 1.160 . S
O275 Zn276 1.899 . S
O275 C283 1.284 . S
Zn276 O275 1.899 . S
Zn276 O277 2.032 . S
Zn276 O280 2.086 . S
Zn276 O285 1.977 . S
O277 Zn276 2.032 . S
O277 C281 1.278 . S
C278 O279 1.203 . S
C278 O285 1.267 . S
O279 C278 1.203 . S
O280 C273 1.185 . S
O280 Zn276 2.086 . S
C281 O277 1.278 . S
C281 O282 1.211 . S
O282 C281 1.211 . S
C283 O275 1.284 . S
C283 O284 1.273 . S
O284 C283 1.273 . S
O285 Zn276 1.977 . S
O285 C278 1.267 . S
C286 O287 1.160 . S
C286 O293 1.185 . S
O287 C286 1.160 . S
O288 Zn289 1.899 . S
O288 C296 1.284 . S
Zn289 O288 1.899 . S
Zn289 O290 2.032 . S
Zn289 O293 2.086 . S
Zn289 O298 1.977 . S
O290 Zn289 2.032 . S
O290 C294 1.278 . S
C291 O292 1.203 . S
C291 O298 1.267 . S
O292 C291 1.203 . S
O293 C286 1.185 . S
O293 Zn289 2.086 . S
C294 O290 1.278 . S
C294 O295 1.211 . S
O295 C294 1.211 . S
C296 O288 1.284 . S
C296 O297 1.273 . S
O297 C296 1.273 . S
O298 Zn289 1.977 . S
O298 C291 1.267 . S
C299 O300 1.160 . S
C299 O306 1.185 . S
O300 C299 1.160 . S
O301 Zn302 1.899 . S
O301 C309 1.284 . S
Zn302 O301 1.899 . S
Zn302 O303 2.032 . S
Zn302 O306 2.086 . S
Zn302 O311 1.977 . S
O303 Zn302 2.032 . S
O303 C307 1.278 . S
C304 O305 1.203 . S
C304 O311 1.267 . S
O305 C304 1.203 . S
O306 C299 1.185 . S
O306 Zn302 2.086 . S
C307 O303 1.278 . S
C307 O308 1.211 . S
O308 C307 1.211 . S
C309 O301 1.284 . S
C309 O310 1.273 . S
O310 C309 1.273 . S
O311 Zn302 1.977 . S
O311 C304 1.267 . S
H312 C318 0.930 . S
H313 C321 0.930 . S
H314 C322 0.930 . S
H315 C323 0.930 . S
H316 C326 0.930 . S
H317 C327 0.930 . S
C318 H312 0.930 . S
C318 C319 1.355 . S
C318 C320 1.415 . S
C319 C318 1.355 . S
C319 C321 1.419 . S
C320 C318 1.415 . S
C320 C325 1.425 1_545 S
C320 C327 1.409 1_545 S
C321 H313 0.930 . S
C321 C319 1.419 . S
C321 C322 1.362 . S
C322 H314 0.930 . S
C322 C321 1.362 . S
C322 C325 1.409 1_545 S
C323 H315 0.930 . S
C323 C324 1.355 . S
C323 C325 1.415 . S
C324 C323 1.355 . S
C324 C326 1.419 . S
C325 C320 1.425 1_565 S
C325 C322 1.409 1_565 S
C325 C323 1.415 . S
C326 H316 0.930 . S
C326 C324 1.419 . S
C326 C327 1.362 . S
C327 H317 0.930 . S
C327 C320 1.409 1_565 S
C327 C326 1.362 . S
H328 C334 0.930 . S
H329 C337 0.930 . S
H330 C338 0.930 . S
H331 C339 0.930 . S
H332 C342 0.930 . S
H333 C343 0.930 . S
C334 H328 0.930 . S
C334 C335 1.355 . S
C334 C336 1.415 . S
C335 C334 1.355 . S
C335 C337 1.419 . S
C336 C334 1.415 . S
C336 C341 1.425 . S
C336 C343 1.409 . S
C337 H329 0.930 . S
C337 C335 1.419 . S
C337 C338 1.362 . S
C338 H330 0.930 . S
C338 C337 1.362 . S
C338 C341 1.409 . S
C339 H331 0.930 . S
C339 C340 1.355 . S
C339 C341 1.415 . S
C340 C339 1.355 . S
C340 C342 1.419 . S
C341 C336 1.425 . S
C341 C338 1.409 . S
C341 C339 1.415 . S
C342 H332 0.930 . S
C342 C340 1.419 . S
C342 C343 1.362 . S
C343 H333 0.930 . S
C343 C336 1.409 . S
C343 C342 1.362 . S
H344 C350 0.930 . S
H345 C353 0.930 . S
H346 C354 0.930 . S
H347 C355 0.930 . S
H348 C358 0.930 . S
H349 C359 0.930 . S
C350 H344 0.930 . S
C350 C351 1.355 . S
C350 C352 1.415 . S
C351 C350 1.355 . S
C351 C353 1.419 . S
C352 C350 1.415 . S
C352 C357 1.425 1_655 S
C352 C359 1.409 1_655 S
C353 H345 0.930 . S
C353 C351 1.419 . S
C353 C354 1.362 . S
C354 H346 0.930 . S
C354 C353 1.362 . S
C354 C357 1.409 1_655 S
C355 H347 0.930 . S
C355 C356 1.355 . S
C355 C357 1.415 . S
C356 C355 1.355 . S
C356 C358 1.419 . S
C357 C352 1.425 1_455 S
C357 C354 1.409 1_455 S
C357 C355 1.415 . S
C358 H348 0.930 . S
C358 C356 1.419 . S
C358 C359 1.362 . S
C359 H349 0.930 . S
C359 C352 1.409 1_455 S
C359 C358 1.362 . S
H360 C366 0.930 . S
H361 C369 0.930 . S
H362 C370 0.930 . S
H363 C371 0.930 . S
H364 C374 0.930 . S
H365 C375 0.930 . S
C366 H360 0.930 . S
C366 C367 1.355 . S
C366 C368 1.415 . S
C367 C366 1.355 . S
C367 C369 1.419 . S
C368 C366 1.415 . S
C368 C373 1.425 1_565 S
C368 C375 1.409 1_565 S
C369 H361 0.930 . S
C369 C367 1.419 . S
C369 C370 1.362 . S
C370 H362 0.930 . S
C370 C369 1.362 . S
C370 C373 1.409 1_565 S
C371 H363 0.930 . S
C371 C372 1.355 . S
C371 C373 1.415 . S
C372 C371 1.355 . S
C372 C374 1.419 . S
C373 C368 1.425 1_545 S
C373 C370 1.409 1_545 S
C373 C371 1.415 . S
C374 H364 0.930 . S
C374 C372 1.419 . S
C374 C375 1.362 . S
C375 H365 0.930 . S
C375 C368 1.409 1_545 S
C375 C374 1.362 . S
H376 C382 0.930 . S
H377 C385 0.930 . S
H378 C386 0.930 . S
H379 C387 0.930 . S
H380 C390 0.930 . S
H381 C391 0.930 . S
C382 H376 0.930 . S
C382 C383 1.355 . S
C382 C384 1.415 . S
C383 C382 1.355 . S
C383 C385 1.419 . S
C384 C382 1.415 . S
C384 C389 1.425 . S
C384 C391 1.409 . S
C385 H377 0.930 . S
C385 C383 1.419 . S
C385 C386 1.362 . S
C386 H378 0.930 . S
C386 C385 1.362 . S
C386 C389 1.409 . S
C387 H379 0.930 . S
C387 C388 1.355 . S
C387 C389 1.415 . S
C388 C387 1.355 . S
C388 C390 1.419 . S
C389 C384 1.425 . S
C389 C386 1.409 . S
C389 C387 1.415 . S
C390 H380 0.930 . S
C390 C388 1.419 . S
C390 C391 1.362 . S
C391 H381 0.930 . S
C391 C384 1.409 . S
C391 C390 1.362 . S
H392 C398 0.930 . S
H393 C401 0.930 . S
H394 C402 0.930 . S
H395 C403 0.930 . S
H396 C406 0.930 . S
H397 C407 0.930 . S
C398 H392 0.930 . S
C398 C399 1.355 . S
C398 C400 1.415 . S
C399 C398 1.355 . S
C399 C401 1.419 . S
C400 C398 1.415 . S
C400 C405 1.425 1_455 S
C400 C407 1.409 1_455 S
C401 H393 0.930 . S
C401 C399 1.419 . S
C401 C402 1.362 . S
C402 H394 0.930 . S
C402 C401 1.362 . S
C402 C405 1.409 1_455 S
C403 H395 0.930 . S
C403 C404 1.355 . S
C403 C405 1.415 . S
C404 C403 1.355 . S
C404 C406 1.419 . S
C405 C400 1.425 1_655 S
C405 C402 1.409 1_655 S
C405 C403 1.415 . S
C406 H396 0.930 . S
C406 C404 1.419 . S
C406 C407 1.362 . S
C407 H397 0.930 . S
C407 C400 1.409 1_655 S
C407 C406 1.362 . S
H408 C414 0.930 . S
H409 C417 0.930 . S
H410 C418 0.930 . S
H411 C419 0.930 . S
H412 C422 0.930 . S
H413 C423 0.930 . S
C414 H408 0.930 . S
C414 C415 1.355 . S
C414 C416 1.437 . S
C415 C414 1.355 . S
C415 C417 1.419 . S
C416 C414 1.437 . S
C416 C421 1.435 1_565 S
C416 C423 1.383 1_565 S
C417 H409 0.930 . S
C417 C415 1.419 . S
C417 C418 1.362 . S
C418 H410 0.930 . S
C418 C417 1.362 . S
C418 C421 1.382 1_565 S
C419 H411 0.930 . S
C419 C420 1.355 . S
C419 C421 1.438 . S
C420 C419 1.355 . S
C420 C422 1.419 . S
C421 C416 1.435 1_545 S
C421 C418 1.382 1_545 S
C421 C419 1.438 . S
C422 H412 0.930 . S
C422 C420 1.419 . S
C422 C423 1.362 . S
C423 H413 0.930 . S
C423 C416 1.383 1_545 S
C423 C422 1.362 . S
H424 C430 0.930 . S
H425 C433 0.930 . S
H426 C434 0.930 . S
H427 C435 0.930 . S
H428 C438 0.930 . S
H429 C439 0.930 . S
C430 H424 0.930 . S
C430 C431 1.355 . S
C430 C432 1.415 . S
C431 C430 1.355 . S
C431 C433 1.419 . S
C432 C430 1.415 . S
C432 C437 1.425 . S
C432 C439 1.409 . S
C433 H425 0.930 . S
C433 C431 1.419 . S
C433 C434 1.362 . S
C434 H426 0.930 . S
C434 C433 1.362 . S
C434 C437 1.409 . S
C435 H427 0.930 . S
C435 C436 1.355 . S
C435 C437 1.415 . S
C436 C435 1.355 . S
C436 C438 1.419 . S
C437 C432 1.425 . S
C437 C434 1.409 . S
C437 C435 1.415 . S
C438 H428 0.930 . S
C438 C436 1.419 . S
C438 C439 1.362 . S
C439 H429 0.930 . S
C439 C432 1.409 . S
C439 C438 1.362 . S
H440 C446 0.930 . S
H441 C449 0.930 . S
H442 C450 0.930 1_455 S
H443 C451 0.930 . S
H444 C454 0.930 . S
H445 C455 0.930 1_655 S
C446 H440 0.930 . S
C446 C447 1.355 . S
C446 C448 1.415 . S
C447 C446 1.355 . S
C447 C449 1.419 . S
C448 C446 1.415 . S
C448 C453 1.425 1_655 S
C448 C455 1.409 1_655 S
C449 H441 0.930 . S
C449 C447 1.419 . S
C449 C450 1.362 . S
C450 H442 0.930 1_655 S
C450 C449 1.362 . S
C450 C453 1.409 1_655 S
C451 H443 0.930 . S
C451 C452 1.355 . S
C451 C453 1.415 . S
C452 C451 1.355 . S
C452 C454 1.419 . S
C453 C448 1.425 1_455 S
C453 C450 1.409 1_455 S
C453 C451 1.415 . S
C454 H444 0.930 . S
C454 C452 1.419 . S
C454 C455 1.362 . S
C455 H445 0.930 1_455 S
C455 C448 1.409 1_455 S
C455 C454 1.362 . S
H456 C462 0.930 . S
H457 C465 0.930 . S
H458 C466 0.930 1_565 S
H459 C467 0.930 . S
H460 C470 0.930 . S
H461 C471 0.930 1_545 S
C462 H456 0.930 . S
C462 C463 1.355 . S
C462 C464 1.415 . S
C463 C462 1.355 . S
C463 C465 1.419 . S
C464 C462 1.415 . S
C464 C469 1.425 1_545 S
C464 C471 1.409 1_545 S
C465 H457 0.930 . S
C465 C463 1.419 . S
C465 C466 1.362 . S
C466 H458 0.930 1_545 S
C466 C465 1.362 . S
C466 C469 1.409 1_545 S
C467 H459 0.930 . S
C467 C468 1.355 . S
C467 C469 1.415 . S
C468 C467 1.355 . S
C468 C470 1.419 . S
C469 C464 1.425 1_565 S
C469 C466 1.409 1_565 S
C469 C467 1.415 . S
C470 H460 0.930 . S
C470 C468 1.419 . S
C470 C471 1.362 . S
C471 H461 0.930 1_565 S
C471 C464 1.409 1_565 S
C471 C470 1.362 . S
H472 C478 0.930 . S
H473 C481 0.930 . S
H474 C482 0.930 . S
H475 C483 0.930 . S
H476 C486 0.930 . S
H477 C487 0.930 . S
C478 H472 0.930 . S
C478 C479 1.355 . S
C478 C480 1.415 . S
C479 C478 1.355 . S
C479 C481 1.419 . S
C480 C478 1.415 . S
C480 C485 1.425 . S
C480 C487 1.409 . S
C481 H473 0.930 . S
C481 C479 1.419 . S
C481 C482 1.362 . S
C482 H474 0.930 . S
C482 C481 1.362 . S
C482 C485 1.409 . S
C483 H475 0.930 . S
C483 C484 1.355 . S
C483 C485 1.415 . S
C484 C483 1.355 . S
C484 C486 1.419 . S
C485 C480 1.425 . S
C485 C482 1.409 . S
C485 C483 1.415 . S
C486 H476 0.930 . S
C486 C484 1.419 . S
C486 C487 1.362 . S
C487 H477 0.930 . S
C487 C480 1.409 . S
C487 C486 1.362 . S
H488 C494 0.930 . S
H489 C497 0.930 . S
H490 C498 0.930 . S
H491 C499 0.930 . S
H492 C502 0.930 . S
H493 C503 0.930 . S
C494 H488 0.930 . S
C494 C495 1.355 . S
C494 C496 1.415 . S
C495 C494 1.355 . S
C495 C497 1.419 . S
C496 C494 1.415 . S
C496 C501 1.425 1_455 S
C496 C503 1.409 1_455 S
C497 H489 0.930 . S
C497 C495 1.419 . S
C497 C498 1.362 . S
C498 H490 0.930 . S
C498 C497 1.362 . S
C498 C501 1.409 1_455 S
C499 H491 0.930 . S
C499 C500 1.355 . S
C499 C501 1.415 . S
C500 C499 1.355 . S
C500 C502 1.419 . S
C501 C496 1.425 1_655 S
C501 C498 1.409 1_655 S
C501 C499 1.415 . S
C502 H492 0.930 . S
C502 C500 1.419 . S
C502 C503 1.362 . S
C503 H493 0.930 . S
C503 C496 1.409 1_655 S
C503 C502 1.362 . S
H504 C510 0.930 . S
H505 C513 0.930 . S
H506 C514 0.930 . S
H507 C515 0.930 . S
H508 C518 0.930 . S
H509 C519 0.930 . S
C510 H504 0.930 . S
C510 C511 1.355 . S
C510 C512 1.415 . S
C511 C510 1.355 . S
C511 C513 1.419 . S
C512 C510 1.415 . S
C512 C517 1.425 . S
C512 C519 1.409 . S
C513 H505 0.930 . S
C513 C511 1.419 . S
C513 C514 1.362 . S
C514 H506 0.930 . S
C514 C513 1.362 . S
C514 C517 1.409 . S
C515 H507 0.930 . S
C515 C516 1.355 . S
C515 C517 1.415 . S
C516 C515 1.355 . S
C516 C518 1.419 . S
C517 C512 1.425 . S
C517 C514 1.409 . S
C517 C515 1.415 . S
C518 H508 0.930 . S
C518 C516 1.419 . S
C518 C519 1.362 . S
C519 H509 0.930 . S
C519 C512 1.409 . S
C519 C518 1.362 . S
H520 C526 0.930 . S
H521 C529 0.930 . S
H522 C530 0.930 . S
H523 C531 0.930 . S
H524 C534 0.930 . S
H525 C535 0.930 . S
C526 H520 0.930 . S
C526 C527 1.355 . S
C526 C528 1.415 . S
C527 C526 1.355 . S
C527 C529 1.419 . S
C528 C526 1.415 . S
C528 C533 1.425 . S
C528 C535 1.409 . S
C529 H521 0.930 . S
C529 C527 1.419 . S
C529 C530 1.362 . S
C530 H522 0.930 . S
C530 C529 1.362 . S
C530 C533 1.409 . S
C531 H523 0.930 . S
C531 C532 1.355 . S
C531 C533 1.415 . S
C532 C531 1.355 . S
C532 C534 1.419 . S
C533 C528 1.425 . S
C533 C530 1.409 . S
C533 C531 1.415 . S
C534 H524 0.930 . S
C534 C532 1.419 . S
C534 C535 1.362 . S
C535 H525 0.930 . S
C535 C528 1.409 . S
C535 C534 1.362 . S
H536 C542 0.930 . S
H537 C545 0.930 . S
H538 C546 0.930 . S
H539 C547 0.930 . S
H540 C550 0.930 . S
H541 C551 0.930 . S
C542 H536 0.930 . S
C542 C543 1.355 . S
C542 C544 1.415 . S
C543 C542 1.355 . S
C543 C545 1.419 . S
C544 C542 1.415 . S
C544 C549 1.425 . S
C544 C551 1.409 . S
C545 H537 0.930 . S
C545 C543 1.419 . S
C545 C546 1.362 . S
C546 H538 0.930 . S
C546 C545 1.362 . S
C546 C549 1.409 . S
C547 H539 0.930 . S
C547 C548 1.355 . S
C547 C549 1.415 . S
C548 C547 1.355 . S
C548 C550 1.419 . S
C549 C544 1.425 . S
C549 C546 1.409 . S
C549 C547 1.415 . S
C550 H540 0.930 . S
C550 C548 1.419 . S
C550 C551 1.362 . S
C551 H541 0.930 . S
C551 C544 1.409 . S
C551 C550 1.362 . S
H552 C558 0.930 . S
H553 C561 0.930 . S
H554 C562 0.930 . S
H555 C563 0.930 . S
H556 C566 0.930 . S
H557 C567 0.930 . S
C558 H552 0.930 . S
C558 C559 1.355 . S
C558 C560 1.415 . S
C559 C558 1.355 . S
C559 C561 1.419 . S
C560 C558 1.415 . S
C560 C565 1.425 . S
C560 C567 1.409 . S
C561 H553 0.930 . S
C561 C559 1.419 . S
C561 C562 1.362 . S
C562 H554 0.930 . S
C562 C561 1.362 . S
C562 C565 1.409 . S
C563 H555 0.930 . S
C563 C564 1.355 . S
C563 C565 1.415 . S
C564 C563 1.355 . S
C564 C566 1.419 . S
C565 C560 1.425 . S
C565 C562 1.409 . S
C565 C563 1.415 . S
C566 H556 0.930 . S
C566 C564 1.419 . S
C566 C567 1.362 . S
C567 H557 0.930 . S
C567 C560 1.409 . S
C567 C566 1.362 . S
H568 C574 0.930 . S
H569 C577 0.930 . S
H570 C578 0.930 . S
H571 C579 0.930 . S
H572 C582 0.930 . S
H573 C583 0.930 . S
C574 H568 0.930 . S
C574 C575 1.355 . S
C574 C576 1.415 . S
C575 C574 1.355 . S
C575 C577 1.419 . S
C576 C574 1.415 . S
C576 C581 1.425 . S
C576 C583 1.409 . S
C577 H569 0.930 . S
C577 C575 1.419 . S
C577 C578 1.362 . S
C578 H570 0.930 . S
C578 C577 1.362 . S
C578 C581 1.409 . S
C579 H571 0.930 . S
C579 C580 1.355 . S
C579 C581 1.415 . S
C580 C579 1.355 . S
C580 C582 1.419 . S
C581 C576 1.425 . S
C581 C578 1.409 . S
C581 C579 1.415 . S
C582 H572 0.930 . S
C582 C580 1.419 . S
C582 C583 1.362 . S
C583 H573 0.930 . S
C583 C576 1.409 . S
C583 C582 1.362 . S
H584 C590 0.930 . S
H585 C593 0.930 . S
H586 C594 0.930 . S
H587 C595 0.930 . S
H588 C598 0.930 . S
H589 C599 0.930 . S
C590 H584 0.930 . S
C590 C591 1.355 . S
C590 C592 1.415 . S
C591 C590 1.355 . S
C591 C593 1.419 . S
C592 C590 1.415 . S
C592 C597 1.425 . S
C592 C599 1.409 . S
C593 H585 0.930 . S
C593 C591 1.419 . S
C593 C594 1.362 . S
C594 H586 0.930 . S
C594 C593 1.362 . S
C594 C597 1.409 . S
C595 H587 0.930 . S
C595 C596 1.355 . S
C595 C597 1.415 . S
C596 C595 1.355 . S
C596 C598 1.419 . S
C597 C592 1.425 . S
C597 C594 1.409 . S
C597 C595 1.415 . S
C598 H588 0.930 . S
C598 C596 1.419 . S
C598 C599 1.362 . S
C599 H589 0.930 . S
C599 C592 1.409 . S
C599 C598 1.362 . S
H600 C606 0.930 . S
H601 C609 0.930 . S
H602 C610 0.930 . S
H603 C611 0.930 . S
H604 C614 0.930 . S
H605 C615 0.930 . S
C606 H600 0.930 . S
C606 C607 1.355 . S
C606 C608 1.415 . S
C607 C606 1.355 . S
C607 C609 1.419 . S
C608 C606 1.415 . S
C608 C613 1.425 . S
C608 C615 1.409 . S
C609 H601 0.930 . S
C609 C607 1.419 . S
C609 C610 1.362 . S
C610 H602 0.930 . S
C610 C609 1.362 . S
C610 C613 1.409 . S
C611 H603 0.930 . S
C611 C612 1.355 . S
C611 C613 1.415 . S
C612 C611 1.355 . S
C612 C614 1.419 . S
C613 C608 1.425 . S
C613 C610 1.409 . S
C613 C611 1.415 . S
C614 H604 0.930 . S
C614 C612 1.419 . S
C614 C615 1.362 . S
C615 H605 0.930 . S
C615 C608 1.409 . S
C615 C614 1.362 . S
H616 C622 0.930 . S
H617 C625 0.930 . S
H618 C626 0.930 . S
H619 C627 0.930 . S
H620 C630 0.930 . S
H621 C631 0.930 . S
C622 H616 0.930 . S
C622 C623 1.355 . S
C622 C624 1.415 . S
C623 C622 1.355 . S
C623 C625 1.419 . S
C624 C622 1.415 . S
C624 C629 1.425 . S
C624 C631 1.409 . S
C625 H617 0.930 . S
C625 C623 1.419 . S
C625 C626 1.362 . S
C626 H618 0.930 . S
C626 C625 1.362 . S
C626 C629 1.409 . S
C627 H619 0.930 . S
C627 C628 1.355 . S
C627 C629 1.415 . S
C628 C627 1.355 . S
C628 C630 1.419 . S
C629 C624 1.425 . S
C629 C626 1.409 . S
C629 C627 1.415 . S
C630 H620 0.930 . S
C630 C628 1.419 . S
C630 C631 1.362 . S
C631 H621 0.930 . S
C631 C624 1.409 . S
C631 C630 1.362 . S
H632 C638 0.930 . S
H633 C641 0.930 . S
H634 C642 0.930 . S
H635 C643 0.930 . S
H636 C646 0.930 . S
H637 C647 0.930 . S
C638 H632 0.930 . S
C638 C639 1.355 . S
C638 C640 1.415 . S
C639 C638 1.355 . S
C639 C641 1.419 . S
C640 C638 1.415 . S
C640 C645 1.425 . S
C640 C647 1.409 . S
C641 H633 0.930 . S
C641 C639 1.419 . S
C641 C642 1.362 . S
C642 H634 0.930 . S
C642 C641 1.362 . S
C642 C645 1.409 . S
C643 H635 0.930 . S
C643 C644 1.355 . S
C643 C645 1.415 . S
C644 C643 1.355 . S
C644 C646 1.419 . S
C645 C640 1.425 . S
C645 C642 1.409 . S
C645 C643 1.415 . S
C646 H636 0.930 . S
C646 C644 1.419 . S
C646 C647 1.362 . S
C647 H637 0.930 . S
C647 C640 1.409 . S
C647 C646 1.362 . S
H648 C654 0.930 . S
H649 C657 0.930 . S
H650 C658 0.930 . S
H651 C659 0.930 . S
H652 C662 0.930 . S
H653 C663 0.930 . S
C654 H648 0.930 . S
C654 C655 1.355 . S
C654 C656 1.415 . S
C655 C654 1.355 . S
C655 C657 1.419 . S
C656 C654 1.415 . S
C656 C661 1.425 . S
C656 C663 1.409 . S
C657 H649 0.930 . S
C657 C655 1.419 . S
C657 C658 1.362 . S
C658 H650 0.930 . S
C658 C657 1.362 . S
C658 C661 1.409 . S
C659 H651 0.930 . S
C659 C660 1.355 . S
C659 C661 1.415 . S
C660 C659 1.355 . S
C660 C662 1.419 . S
C661 C656 1.425 . S
C661 C658 1.409 . S
C661 C659 1.415 . S
C662 H652 0.930 . S
C662 C660 1.419 . S
C662 C663 1.362 . S
C663 H653 0.930 . S
C663 C656 1.409 . S
C663 C662 1.362 . S
H664 C670 0.930 . S
H665 C673 0.930 . S
H666 C674 0.930 . S
H667 C675 0.930 . S
H668 C678 0.930 . S
H669 C679 0.930 . S
C670 H664 0.930 . S
C670 C671 1.355 . S
C670 C672 1.415 . S
C671 C670 1.355 . S
C671 C673 1.419 . S
C672 C670 1.415 . S
C672 C677 1.425 . S
C672 C679 1.409 . S
C673 H665 0.930 . S
C673 C671 1.419 . S
C673 C674 1.362 . S
C674 H666 0.930 . S
C674 C673 1.362 . S
C674 C677 1.409 . S
C675 H667 0.930 . S
C675 C676 1.355 . S
C675 C677 1.415 . S
C676 C675 1.355 . S
C676 C678 1.419 . S
C677 C672 1.425 . S
C677 C674 1.409 . S
C677 C675 1.415 . S
C678 H668 0.930 . S
C678 C676 1.419 . S
C678 C679 1.362 . S
C679 H669 0.930 . S
C679 C672 1.409 . S
C679 C678 1.362 . S
H680 C686 0.930 . S
H681 C689 0.930 . S
H682 C690 0.930 . S
H683 C691 0.930 . S
H684 C694 0.930 . S
H685 C695 0.930 . S
C686 H680 0.930 . S
C686 C687 1.355 . S
C686 C688 1.415 . S
C687 C686 1.355 . S
C687 C689 1.419 . S
C688 C686 1.415 . S
C688 C693 1.425 . S
C688 C695 1.409 . S
C689 H681 0.930 . S
C689 C687 1.419 . S
C689 C690 1.362 . S
C690 H682 0.930 . S
C690 C689 1.362 . S
C690 C693 1.409 . S
C691 H683 0.930 . S
C691 C692 1.355 . S
C691 C693 1.415 . S
C692 C691 1.355 . S
C692 C694 1.419 . S
C693 C688 1.425 . S
C693 C690 1.409 . S
C693 C691 1.415 . S
C694 H684 0.930 . S
C694 C692 1.419 . S
C694 C695 1.362 . S
C695 H685 0.930 . S
C695 C688 1.409 . S
C695 C694 1.362 . S
H696 C702 0.930 . S
H697 C705 0.930 . S
H698 C706 0.930 . S
H699 C707 0.930 . S
H700 C710 0.930 . S
H701 C711 0.930 . S
C702 H696 0.930 . S
C702 C703 1.355 . S
C702 C704 1.415 . S
C703 C702 1.355 . S
C703 C705 1.419 . S
C704 C702 1.415 . S
C704 C709 1.425 1_554 S
C704 C711 1.409 1_554 S
C705 H697 0.930 . S
C705 C703 1.419 . S
C705 C706 1.362 . S
C706 H698 0.930 . S
C706 C705 1.362 . S
C706 C709 1.409 1_554 S
C707 H699 0.930 . S
C707 C708 1.355 . S
C707 C709 1.415 . S
C708 C707 1.355 . S
C708 C710 1.419 . S
C709 C704 1.425 1_556 S
C709 C706 1.409 1_556 S
C709 C707 1.415 . S
C710 H700 0.930 . S
C710 C708 1.419 . S
C710 C711 1.362 . S
C711 H701 0.930 . S
C711 C704 1.409 1_556 S
C711 C710 1.362 . S
H712 C718 0.930 . S
H713 C721 0.930 . S
H714 C722 0.930 . S
H715 C723 0.930 . S
H716 C726 0.930 . S
H717 C727 0.930 . S
C718 H712 0.930 . S
C718 C719 1.355 . S
C718 C720 1.415 . S
C719 C718 1.355 . S
C719 C721 1.419 . S
C720 C718 1.415 . S
C720 C725 1.425 1_556 S
C720 C727 1.409 1_556 S
C721 H713 0.930 . S
C721 C719 1.419 . S
C721 C722 1.362 . S
C722 H714 0.930 . S
C722 C721 1.362 . S
C722 C725 1.409 1_556 S
C723 H715 0.930 . S
C723 C724 1.355 . S
C723 C725 1.415 . S
C724 C723 1.355 . S
C724 C726 1.419 . S
C725 C720 1.425 1_554 S
C725 C722 1.409 1_554 S
C725 C723 1.415 . S
C726 H716 0.930 . S
C726 C724 1.419 . S
C726 C727 1.362 . S
C727 H717 0.930 . S
C727 C720 1.409 1_554 S
C727 C726 1.362 . S
H728 C734 0.930 . S
H729 C737 0.930 . S
H730 C738 0.930 . S
H731 C739 0.930 . S
H732 C742 0.930 . S
H733 C743 0.930 . S
C734 H728 0.930 . S
C734 C735 1.355 . S
C734 C736 1.415 . S
C735 C734 1.355 . S
C735 C737 1.419 . S
C736 C734 1.415 . S
C736 C741 1.425 1_556 S
C736 C743 1.409 1_556 S
C737 H729 0.930 . S
C737 C735 1.419 . S
C737 C738 1.362 . S
C738 H730 0.930 . S
C738 C737 1.362 . S
C738 C741 1.409 1_556 S
C739 H731 0.930 . S
C739 C740 1.355 . S
C739 C741 1.415 . S
C740 C739 1.355 . S
C740 C742 1.419 . S
C741 C736 1.425 1_554 S
C741 C738 1.409 1_554 S
C741 C739 1.415 . S
C742 H732 0.930 . S
C742 C740 1.419 . S
C742 C743 1.362 . S
C743 H733 0.930 . S
C743 C736 1.409 1_554 S
C743 C742 1.362 . S
H744 C750 0.930 . S
H745 C753 0.930 . S
H746 C754 0.930 . S
H747 C755 0.930 . S
H748 C758 0.930 . S
H749 C759 0.930 . S
C750 H744 0.930 . S
C750 C751 1.355 . S
C750 C752 1.415 . S
C751 C750 1.355 . S
C751 C753 1.419 . S
C752 C750 1.415 . S
C752 C757 1.425 1_554 S
C752 C759 1.409 1_554 S
C753 H745 0.930 . S
C753 C751 1.419 . S
C753 C754 1.362 . S
C754 H746 0.930 . S
C754 C753 1.362 . S
C754 C757 1.409 1_554 S
C755 H747 0.930 . S
C755 C756 1.355 . S
C755 C757 1.415 . S
C756 C755 1.355 . S
C756 C758 1.419 . S
C757 C752 1.425 1_556 S
C757 C754 1.409 1_556 S
C757 C755 1.415 . S
C758 H748 0.930 . S
C758 C756 1.419 . S
C758 C759 1.362 . S
C759 H749 0.930 . S
C759 C752 1.409 1_556 S
C759 C758 1.362 . S
H760 C766 0.930 . S
H761 C769 0.930 . S
H762 C770 0.930 . S
H763 C771 0.930 . S
H764 C774 0.930 . S
H765 C775 0.930 . S
C766 H760 0.930 . S
C766 C767 1.355 . S
C766 C768 1.415 . S
C767 C766 1.355 . S
C767 C769 1.419 . S
C768 C766 1.415 . S
C768 C773 1.425 1_554 S
C768 C775 1.409 1_554 S
C769 H761 0.930 . S
C769 C767 1.419 . S
C769 C770 1.362 . S
C770 H762 0.930 . S
C770 C769 1.362 . S
C770 C773 1.409 1_554 S
C771 H763 0.930 . S
C771 C772 1.355 . S
C771 C773 1.415 . S
C772 C771 1.355 . S
C772 C774 1.419 . S
C773 C768 1.425 1_556 S
C773 C770 1.409 1_556 S
C773 C771 1.415 . S
C774 H764 0.930 . S
C774 C772 1.419 . S
C774 C775 1.362 . S
C775 H765 0.930 . S
C775 C768 1.409 1_556 S
C775 C774 1.362 . S
H776 C782 0.930 . S
H777 C785 0.930 . S
H778 C786 0.930 . S
H779 C787 0.930 . S
H780 C790 0.930 . S
H781 C791 0.930 . S
C782 H776 0.930 . S
C782 C783 1.355 . S
C782 C784 1.415 . S
C783 C782 1.355 . S
C783 C785 1.419 . S
C784 C782 1.415 . S
C784 C789 1.425 1_556 S
C784 C791 1.409 1_556 S
C785 H777 0.930 . S
C785 C783 1.419 . S
C785 C786 1.362 . S
C786 H778 0.930 . S
C786 C785 1.362 . S
C786 C789 1.409 1_556 S
C787 H779 0.930 . S
C787 C788 1.355 . S
C787 C789 1.415 . S
C788 C787 1.355 . S
C788 C790 1.419 . S
C789 C784 1.425 1_554 S
C789 C786 1.409 1_554 S
C789 C787 1.415 . S
C790 H780 0.930 . S
C790 C788 1.419 . S
C790 C791 1.362 . S
C791 H781 0.930 . S
C791 C784 1.409 1_554 S
C791 C790 1.362 . S
H792 C798 0.930 . S
H793 C801 0.930 . S
H794 C802 0.930 . S
H795 C803 0.930 . S
H796 C806 0.930 . S
H797 C807 0.930 . S
C798 H792 0.930 . S
C798 C799 1.355 . S
C798 C800 1.415 . S
C799 C798 1.355 . S
C799 C801 1.419 . S
C800 C798 1.415 . S
C800 C805 1.425 . S
C800 C807 1.409 . S
C801 H793 0.930 . S
C801 C799 1.419 . S
C801 C802 1.362 . S
C802 H794 0.930 . S
C802 C801 1.362 . S
C802 C805 1.409 . S
C803 H795 0.930 . S
C803 C804 1.355 . S
C803 C805 1.415 . S
C804 C803 1.355 . S
C804 C806 1.419 . S
C805 C800 1.425 . S
C805 C802 1.409 . S
C805 C803 1.415 . S
C806 H796 0.930 . S
C806 C804 1.419 . S
C806 C807 1.362 . S
C807 H797 0.930 . S
C807 C800 1.409 . S
C807 C806 1.362 . S
H808 C814 0.930 . S
H809 C817 0.930 . S
H810 C818 0.930 . S
H811 C819 0.930 . S
H812 C822 0.930 . S
H813 C823 0.930 . S
C814 H808 0.930 . S
C814 C815 1.355 . S
C814 C816 1.415 . S
C815 C814 1.355 . S
C815 C817 1.419 . S
C816 C814 1.415 . S
C816 C821 1.425 . S
C816 C823 1.409 . S
C817 H809 0.930 . S
C817 C815 1.419 . S
C817 C818 1.362 . S
C818 H810 0.930 . S
C818 C817 1.362 . S
C818 C821 1.409 . S
C819 H811 0.930 . S
C819 C820 1.355 . S
C819 C821 1.415 . S
C820 C819 1.355 . S
C820 C822 1.419 . S
C821 C816 1.425 . S
C821 C818 1.409 . S
C821 C819 1.415 . S
C822 H812 0.930 . S
C822 C820 1.419 . S
C822 C823 1.362 . S
C823 H813 0.930 . S
C823 C816 1.409 . S
C823 C822 1.362 . S
H824 C830 0.930 . S
H825 C833 0.930 . S
H826 C834 0.930 . S
H827 C835 0.930 . S
H828 C838 0.930 . S
H829 C839 0.930 . S
C830 H824 0.930 . S
C830 C831 1.355 . S
C830 C832 1.415 . S
C831 C830 1.355 . S
C831 C833 1.419 . S
C832 C830 1.415 . S
C832 C837 1.425 . S
C832 C839 1.409 . S
C833 H825 0.930 . S
C833 C831 1.419 . S
C833 C834 1.362 . S
C834 H826 0.930 . S
C834 C833 1.362 . S
C834 C837 1.409 . S
C835 H827 0.930 . S
C835 C836 1.355 . S
C835 C837 1.415 . S
C836 C835 1.355 . S
C836 C838 1.419 . S
C837 C832 1.425 . S
C837 C834 1.409 . S
C837 C835 1.415 . S
C838 H828 0.930 . S
C838 C836 1.419 . S
C838 C839 1.362 . S
C839 H829 0.930 . S
C839 C832 1.409 . S
C839 C838 1.362 . S
H840 C846 0.930 . S
H841 C849 0.930 . S
H842 C850 0.930 . S
H843 C851 0.930 . S
H844 C854 0.930 . S
H845 C855 0.930 . S
C846 H840 0.930 . S
C846 C847 1.355 . S
C846 C848 1.415 . S
C847 C846 1.355 . S
C847 C849 1.419 . S
C848 C846 1.415 . S
C848 C853 1.425 . S
C848 C855 1.409 . S
C849 H841 0.930 . S
C849 C847 1.419 . S
C849 C850 1.362 . S
C850 H842 0.930 . S
C850 C849 1.362 . S
C850 C853 1.409 . S
C851 H843 0.930 . S
C851 C852 1.355 . S
C851 C853 1.415 . S
C852 C851 1.355 . S
C852 C854 1.419 . S
C853 C848 1.425 . S
C853 C850 1.409 . S
C853 C851 1.415 . S
C854 H844 0.930 . S
C854 C852 1.419 . S
C854 C855 1.362 . S
C855 H845 0.930 . S
C855 C848 1.409 . S
C855 C854 1.362 . S
H856 C862 0.930 . S
H857 C865 0.930 . S
H858 C866 0.930 . S
H859 C867 0.930 . S
H860 C870 0.930 . S
H861 C871 0.930 . S
C862 H856 0.930 . S
C862 C863 1.355 . S
C862 C864 1.415 . S
C863 C862 1.355 . S
C863 C865 1.419 . S
C864 C862 1.415 . S
C864 C869 1.425 . S
C864 C871 1.409 . S
C865 H857 0.930 . S
C865 C863 1.419 . S
C865 C866 1.362 . S
C866 H858 0.930 . S
C866 C865 1.362 . S
C866 C869 1.409 . S
C867 H859 0.930 . S
C867 C868 1.355 . S
C867 C869 1.415 . S
C868 C867 1.355 . S
C868 C870 1.419 . S
C869 C864 1.425 . S
C869 C866 1.409 . S
C869 C867 1.415 . S
C870 H860 0.930 . S
C870 C868 1.419 . S
C870 C871 1.362 . S
C871 H861 0.930 . S
C871 C864 1.409 . S
C871 C870 1.362 . S
H872 C878 0.930 . S
H873 C881 0.930 . S
H874 C882 0.930 . S
H875 C883 0.930 . S
H876 C886 0.930 . S
H877 C887 0.930 . S
C878 H872 0.930 . S
C878 C879 1.355 . S
C878 C880 1.415 . S
C879 C878 1.355 . S
C879 C881 1.419 . S
C880 C878 1.415 . S
C880 C885 1.425 . S
C880 C887 1.409 . S
C881 H873 0.930 . S
C881 C879 1.419 . S
C881 C882 1.362 . S
C882 H874 0.930 . S
C882 C881 1.362 . S
C882 C885 1.409 . S
C883 H875 0.930 . S
C883 C884 1.355 . S
C883 C885 1.415 . S
C884 C883 1.355 . S
C884 C886 1.419 . S
C885 C880 1.425 . S
C885 C882 1.409 . S
C885 C883 1.415 . S
C886 H876 0.930 . S
C886 C884 1.419 . S
C886 C887 1.362 . S
C887 H877 0.930 . S
C887 C880 1.409 . S
C887 C886 1.362 . S
H888 C894 0.930 . S
H889 C897 0.930 . S
H890 C898 0.930 . S
H891 C899 0.930 . S
H892 C902 0.930 . S
H893 C903 0.930 . S
C894 H888 0.930 . S
C894 C895 1.355 . S
C894 C896 1.415 . S
C895 C894 1.355 . S
C895 C897 1.419 . S
C896 C894 1.415 . S
C896 C901 1.425 . S
C896 C903 1.409 . S
C897 H889 0.930 . S
C897 C895 1.419 . S
C897 C898 1.362 . S
C898 H890 0.930 . S
C898 C897 1.362 . S
C898 C901 1.409 . S
C899 H891 0.930 . S
C899 C900 1.355 . S
C899 C901 1.415 . S
C900 C899 1.355 . S
C900 C902 1.419 . S
C901 C896 1.425 . S
C901 C898 1.409 . S
C901 C899 1.415 . S
C902 H892 0.930 . S
C902 C900 1.419 . S
C902 C903 1.362 . S
C903 H893 0.930 . S
C903 C896 1.409 . S
C903 C902 1.362 . S
H904 C910 0.930 . S
H905 C913 0.930 . S
H906 C914 0.930 . S
H907 C915 0.930 . S
H908 C918 0.930 . S
H909 C919 0.930 . S
C910 H904 0.930 . S
C910 C911 1.355 . S
C910 C912 1.415 . S
C911 C910 1.355 . S
C911 C913 1.419 . S
C912 C910 1.415 . S
C912 C917 1.425 . S
C912 C919 1.409 . S
C913 H905 0.930 . S
C913 C911 1.419 . S
C913 C914 1.362 . S
C914 H906 0.930 . S
C914 C913 1.362 . S
C914 C917 1.409 . S
C915 H907 0.930 . S
C915 C916 1.355 . S
C915 C917 1.415 . S
C916 C915 1.355 . S
C916 C918 1.419 . S
C917 C912 1.425 . S
C917 C914 1.409 . S
C917 C915 1.415 . S
C918 H908 0.930 . S
C918 C916 1.419 . S
C918 C919 1.362 . S
C919 H909 0.930 . S
C919 C912 1.409 . S
C919 C918 1.362 . S
H920 C926 0.930 . S
H921 C929 0.930 . S
H922 C930 0.930 . S
H923 C931 0.930 . S
H924 C934 0.930 . S
H925 C935 0.930 . S
C926 H920 0.930 . S
C926 C927 1.355 . S
C926 C928 1.415 . S
C927 C926 1.355 . S
C927 C929 1.419 . S
C928 C926 1.415 . S
C928 C933 1.425 . S
C928 C935 1.409 . S
C929 H921 0.930 . S
C929 C927 1.419 . S
C929 C930 1.362 . S
C930 H922 0.930 . S
C930 C929 1.362 . S
C930 C933 1.409 . S
C931 H923 0.930 . S
C931 C932 1.355 . S
C931 C933 1.415 . S
C932 C931 1.355 . S
C932 C934 1.419 . S
C933 C928 1.425 . S
C933 C930 1.409 . S
C933 C931 1.415 . S
C934 H924 0.930 . S
C934 C932 1.419 . S
C934 C935 1.362 . S
C935 H925 0.930 . S
C935 C928 1.409 . S
C935 C934 1.362 . S
H936 C942 0.930 . S
H937 C945 0.930 . S
H938 C946 0.930 . S
H939 C947 0.930 . S
H940 C950 0.930 . S
H941 C951 0.930 . S
C942 H936 0.930 . S
C942 C943 1.355 . S
C942 C944 1.415 . S
C943 C942 1.355 . S
C943 C945 1.419 . S
C944 C942 1.415 . S
C944 C949 1.425 . S
C944 C951 1.409 . S
C945 H937 0.930 . S
C945 C943 1.419 . S
C945 C946 1.362 . S
C946 H938 0.930 . S
C946 C945 1.362 . S
C946 C949 1.409 . S
C947 H939 0.930 . S
C947 C948 1.355 . S
C947 C949 1.415 . S
C948 C947 1.355 . S
C948 C950 1.419 . S
C949 C944 1.425 . S
C949 C946 1.409 . S
C949 C947 1.415 . S
C950 H940 0.930 . S
C950 C948 1.419 . S
C950 C951 1.362 . S
C951 H941 0.930 . S
C951 C944 1.409 . S
C951 C950 1.362 . S
H952 C958 0.930 . S
H953 C961 0.930 . S
H954 C962 0.930 . S
H955 C963 0.930 . S
H956 C966 0.930 . S
H957 C967 0.930 . S
C958 H952 0.930 . S
C958 C959 1.355 . S
C958 C960 1.415 . S
C959 C958 1.355 . S
C959 C961 1.419 . S
C960 C958 1.415 . S
C960 C965 1.425 . S
C960 C967 1.409 . S
C961 H953 0.930 . S
C961 C959 1.419 . S
C961 C962 1.362 . S
C962 H954 0.930 . S
C962 C961 1.362 . S
C962 C965 1.409 . S
C963 H955 0.930 . S
C963 C964 1.355 . S
C963 C965 1.415 . S
C964 C963 1.355 . S
C964 C966 1.419 . S
C965 C960 1.425 . S
C965 C962 1.409 . S
C965 C963 1.415 . S
C966 H956 0.930 . S
C966 C964 1.419 . S
C966 C967 1.362 . S
C967 H957 0.930 . S
C967 C960 1.409 . S
C967 C966 1.362 . S
H968 C974 0.930 . S
H969 C977 0.930 . S
H970 C978 0.930 . S
H971 C979 0.930 . S
H972 C982 0.930 . S
H973 C983 0.930 . S
C974 H968 0.930 . S
C974 C975 1.355 . S
C974 C976 1.415 . S
C975 C974 1.355 . S
C975 C977 1.419 . S
C976 C974 1.415 . S
C976 C981 1.425 . S
C976 C983 1.409 . S
C977 H969 0.930 . S
C977 C975 1.419 . S
C977 C978 1.362 . S
C978 H970 0.930 . S
C978 C977 1.362 . S
C978 C981 1.409 . S
C979 H971 0.930 . S
C979 C980 1.355 . S
C979 C981 1.415 . S
C980 C979 1.355 . S
C980 C982 1.419 . S
C981 C976 1.425 . S
C981 C978 1.409 . S
C981 C979 1.415 . S
C982 H972 0.930 . S
C982 C980 1.419 . S
C982 C983 1.362 . S
C983 H973 0.930 . S
C983 C976 1.409 . S
C983 C982 1.362 . S
H984 C990 0.930 . S
H985 C993 0.930 . S
H986 C994 0.930 . S
H987 C995 0.930 . S
H988 C998 0.930 . S
H989 C999 0.930 . S
C990 H984 0.930 . S
C990 C991 1.355 . S
C990 C992 1.415 . S
C991 C990 1.355 . S
C991 C993 1.419 . S
C992 C990 1.415 . S
C992 C997 1.425 . S
C992 C999 1.409 . S
C993 H985 0.930 . S
C993 C991 1.419 . S
C993 C994 1.362 . S
C994 H986 0.930 . S
C994 C993 1.362 . S
C994 C997 1.409 . S
C995 H987 0.930 . S
C995 C996 1.355 . S
C995 C997 1.415 . S
C996 C995 1.355 . S
C996 C998 1.419 . S
C997 C992 1.425 . S
C997 C994 1.409 . S
C997 C995 1.415 . S
C998 H988 0.930 . S
C998 C996 1.419 . S
C998 C999 1.362 . S
C999 H989 0.930 . S
C999 C992 1.409 . S
C999 C998 1.362 . S
H1000 C1006 0.930 . S
H1001 C1009 0.930 . S
H1002 C1010 0.930 . S
H1003 C1011 0.930 . S
H1004 C1014 0.930 . S
H1005 C1015 0.930 . S
C1006 H1000 0.930 . S
C1006 C1007 1.355 . S
C1006 C1008 1.415 . S
C1007 C1006 1.355 . S
C1007 C1009 1.419 . S
C1008 C1006 1.415 . S
C1008 C1013 1.425 . S
C1008 C1015 1.409 . S
C1009 H1001 0.930 . S
C1009 C1007 1.419 . S
C1009 C1010 1.362 . S
C1010 H1002 0.930 . S
C1010 C1009 1.362 . S
C1010 C1013 1.409 . S
C1011 H1003 0.930 . S
C1011 C1012 1.355 . S
C1011 C1013 1.415 . S
C1012 C1011 1.355 . S
C1012 C1014 1.419 . S
C1013 C1008 1.425 . S
C1013 C1010 1.409 . S
C1013 C1011 1.415 . S
C1014 H1004 0.930 . S
C1014 C1012 1.419 . S
C1014 C1015 1.362 . S
C1015 H1005 0.930 . S
C1015 C1008 1.409 . S
C1015 C1014 1.362 . S
H1016 C1022 0.930 . S
H1017 C1025 0.930 . S
H1018 C1026 0.930 . S
H1019 C1027 0.930 . S
H1020 C1030 0.930 . S
H1021 C1031 0.930 . S
C1022 H1016 0.930 . S
C1022 C1023 1.355 . S
C1022 C1024 1.415 . S
C1023 C1022 1.355 . S
C1023 C1025 1.419 . S
C1024 C1022 1.415 . S
C1024 C1029 1.425 . S
C1024 C1031 1.409 . S
C1025 H1017 0.930 . S
C1025 C1023 1.419 . S
C1025 C1026 1.362 . S
C1026 H1018 0.930 . S
C1026 C1025 1.362 . S
C1026 C1029 1.409 . S
C1027 H1019 0.930 . S
C1027 C1028 1.355 . S
C1027 C1029 1.415 . S
C1028 C1027 1.355 . S
C1028 C1030 1.419 . S
C1029 C1024 1.425 . S
C1029 C1026 1.409 . S
C1029 C1027 1.415 . S
C1030 H1020 0.930 . S
C1030 C1028 1.419 . S
C1030 C1031 1.362 . S
C1031 H1021 0.930 . S
C1031 C1024 1.409 . S
C1031 C1030 1.362 . S
H1032 C1038 0.930 . S
H1033 C1041 0.930 . S
H1034 C1042 0.930 . S
H1035 C1043 0.930 . S
H1036 C1046 0.930 . S
H1037 C1047 0.930 . S
C1038 H1032 0.930 . S
C1038 C1039 1.355 . S
C1038 C1040 1.415 . S
C1039 C1038 1.355 . S
C1039 C1041 1.419 . S
C1040 C1038 1.415 . S
C1040 C1045 1.425 . S
C1040 C1047 1.409 . S
C1041 H1033 0.930 . S
C1041 C1039 1.419 . S
C1041 C1042 1.362 . S
C1042 H1034 0.930 . S
C1042 C1041 1.362 . S
C1042 C1045 1.409 . S
C1043 H1035 0.930 . S
C1043 C1044 1.355 . S
C1043 C1045 1.415 . S
C1044 C1043 1.355 . S
C1044 C1046 1.419 . S
C1045 C1040 1.425 . S
C1045 C1042 1.409 . S
C1045 C1043 1.415 . S
C1046 H1036 0.930 . S
C1046 C1044 1.419 . S
C1046 C1047 1.362 . S
C1047 H1037 0.930 . S
C1047 C1040 1.409 . S
C1047 C1046 1.362 . S
H1048 C1054 0.930 . S
H1049 C1057 0.930 . S
H1050 C1058 0.930 . S
H1051 C1059 0.930 . S
H1052 C1062 0.930 . S
H1053 C1063 0.930 . S
C1054 H1048 0.930 . S
C1054 C1055 1.355 . S
C1054 C1056 1.415 . S
C1055 C1054 1.355 . S
C1055 C1057 1.419 . S
C1056 C1054 1.415 . S
C1056 C1061 1.425 . S
C1056 C1063 1.409 . S
C1057 H1049 0.930 . S
C1057 C1055 1.419 . S
C1057 C1058 1.362 . S
C1058 H1050 0.930 . S
C1058 C1057 1.362 . S
C1058 C1061 1.409 . S
C1059 H1051 0.930 . S
C1059 C1060 1.355 . S
C1059 C1061 1.415 . S
C1060 C1059 1.355 . S
C1060 C1062 1.419 . S
C1061 C1056 1.425 . S
C1061 C1058 1.409 . S
C1061 C1059 1.415 . S
C1062 H1052 0.930 . S
C1062 C1060 1.419 . S
C1062 C1063 1.362 . S
C1063 H1053 0.930 . S
C1063 C1056 1.409 . S
C1063 C1062 1.362 . S
H1064 C1070 0.930 . S
H1065 C1073 0.930 . S
H1066 C1074 0.930 . S
H1067 C1075 0.930 . S
H1068 C1078 0.930 . S
H1069 C1079 0.930 . S
C1070 H1064 0.930 . S
C1070 C1071 1.355 . S
C1070 C1072 1.415 . S
C1071 C1070 1.355 . S
C1071 C1073 1.419 . S
C1072 C1070 1.415 . S
C1072 C1077 1.425 . S
C1072 C1079 1.409 . S
C1073 H1065 0.930 . S
C1073 C1071 1.419 . S
C1073 C1074 1.362 . S
C1074 H1066 0.930 . S
C1074 C1073 1.362 . S
C1074 C1077 1.409 . S
C1075 H1067 0.930 . S
C1075 C1076 1.355 . S
C1075 C1077 1.415 . S
C1076 C1075 1.355 . S
C1076 C1078 1.419 . S
C1077 C1072 1.425 . S
C1077 C1074 1.409 . S
C1077 C1075 1.415 . S
C1078 H1068 0.930 . S
C1078 C1076 1.419 . S
C1078 C1079 1.362 . S
C1079 H1069 0.930 . S
C1079 C1072 1.409 . S
C1079 C1078 1.362 . S
C319 C5 1.315 . S
C324 C96 1.231 . S
C335 C109 1.273 . S
C340 C18 1.283 . S
C351 C31 1.226 . S
C356 C122 1.315 . S
C367 C44 1.241 . S
C372 C135 1.309 . S
C383 C148 1.308 . S
C388 C57 1.229 . S
C399 C70 1.263 . S
C404 C83 1.292 . S
C415 C161 1.279 . S
C420 C252 1.276 . S
C431 C174 1.290 . S
C436 C265 1.265 . S
C447 C278 1.273 . S
C452 C187 1.258 . S
C463 C200 1.260 . S
C468 C291 1.272 . S
C479 C213 1.307 . S
C484 C304 1.230 . S
C495 C239 1.315 . S
C500 C226 1.232 . S
C511 C0 1.229 . S
C516 C104 1.279 . S
C527 C117 1.294 . S
C532 C13 1.225 . S
C543 C130 1.297 . S
C548 C26 1.227 . S
C559 C39 1.251 . S
C564 C143 1.291 . S
C575 C52 1.291 . S
C580 C78 1.252 . S
C591 C65 1.225 . S
C596 C91 1.294 . S
C607 C260 1.253 . S
C612 C156 1.249 . S
C623 C169 1.274 . S
C628 C273 1.232 . S
C639 C286 1.227 . S
C644 C182 1.297 . S
C655 C299 1.230 . S
C660 C195 1.277 . S
C671 C234 1.262 . S
C676 C208 1.284 . S
C687 C221 1.289 . S
C692 C247 1.253 . S
C703 C8 1.496 . S
C708 C203 1.466 . S
C719 C216 1.475 . S
C724 C21 1.486 . S
C735 C229 1.480 . S
C740 C34 1.481 . S
C751 C47 1.504 . S
C756 C164 1.458 . S
C767 C60 1.500 . S
C772 C177 1.461 . S
C783 C190 1.465 . S
C788 C73 1.496 . S
C799 C281 1.498 . S
C804 C86 1.464 . S
C815 C294 1.463 . S
C820 C99 1.498 . S
C831 C307 1.473 . S
C836 C112 1.488 . S
C847 C242 1.507 . S
C852 C125 1.454 . S
C863 C138 1.454 . S
C868 C255 1.506 . S
C879 C151 1.507 . S
C884 C268 1.454 . S
C895 C10 1.528 . S
C900 C140 1.515 . S
C911 C153 1.517 . S
C916 C23 1.529 . S
C927 C88 1.500 . S
C932 C36 1.511 . S
C943 C49 1.507 . S
C948 C101 1.498 . S
C959 C62 1.511 . S
C964 C114 1.526 . S
C975 C75 1.519 . S
C980 C127 1.530 . S
C991 C166 1.526 . S
C996 C296 1.512 . S
C1007 C179 1.529 . S
C1012 C309 1.529 . S
C1023 C192 1.515 . S
C1028 C244 1.528 . S
C1039 C257 1.510 . S
C1044 C205 1.524 . S
C1055 C218 1.504 . S
C1060 C270 1.518 . S
C1071 C231 1.502 . S
C1076 C283 1.515 . S
