# Generated by pormake.
# Topology bcg, (8)-cn, num edge types: 1
# Building blocks:
#     Node 0, Type 0, BuildingBlock: XADDAJ01_clean_sbu_3, # of connection points: 8
#     Node 1, Type 0, BuildingBlock: XADDAJ01_clean_sbu_3, # of connection points: 8
#     Node 2, Type 0, BuildingBlock: XADDAJ01_clean_sbu_3, # of connection points: 8
#     Node 3, Type 0, BuildingBlock: XADDAJ01_clean_sbu_3, # of connection points: 8
#     Edge 4, Type (0, 0), BuildingBlock: MIFKUJ_clean_linker_0, # of connection points: 2
#     Edge 5, Type (0, 0), BuildingBlock: MIFKUJ_clean_linker_0, # of connection points: 2
#     Edge 6, Type (0, 0), BuildingBlock: MIFKUJ_clean_linker_0, # of connection points: 2
#     Edge 7, Type (0, 0), BuildingBlock: MIFKUJ_clean_linker_0, # of connection points: 2
#     Edge 8, Type (0, 0), BuildingBlock: MIFKUJ_clean_linker_0, # of connection points: 2
#     Edge 9, Type (0, 0), BuildingBlock: MIFKUJ_clean_linker_0, # of connection points: 2
#     Edge 10, Type (0, 0), BuildingBlock: MIFKUJ_clean_linker_0, # of connection points: 2
#     Edge 11, Type (0, 0), BuildingBlock: MIFKUJ_clean_linker_0, # of connection points: 2
#     Edge 12, Type (0, 0), BuildingBlock: MIFKUJ_clean_linker_0, # of connection points: 2
#     Edge 13, Type (0, 0), BuildingBlock: MIFKUJ_clean_linker_0, # of connection points: 2
#     Edge 14, Type (0, 0), BuildingBlock: MIFKUJ_clean_linker_0, # of connection points: 2
#     Edge 15, Type (0, 0), BuildingBlock: MIFKUJ_clean_linker_0, # of connection points: 2
#     Edge 16, Type (0, 0), BuildingBlock: MIFKUJ_clean_linker_0, # of connection points: 2
#     Edge 17, Type (0, 0), BuildingBlock: MIFKUJ_clean_linker_0, # of connection points: 2
#     Edge 18, Type (0, 0), BuildingBlock: MIFKUJ_clean_linker_0, # of connection points: 2
#     Edge 19, Type (0, 0), BuildingBlock: MIFKUJ_clean_linker_0, # of connection points: 2
# Relax obj value: 0.147
# Max RMSD: 0.212
# Mean RMSD: 0.212
data_MOF--net-bcg--node1-XADDAJ01_clean_sbu_3--edge1-MIFKUJ_clean_linker_0
_symmetry_space_group_name_H-M    P1
_symmetry_Int_Tables_number       1
_symmetry_cell_setting            triclinic
loop_
_symmetry_equiv_pos_as_xyz
'x, y, z'
_cell_length_a     26.842847
_cell_length_b     25.93602
_cell_length_c     40.900337
_cell_angle_alpha  81.221369
_cell_angle_beta   89.976516
_cell_angle_gamma 90.172746
loop_
_atom_site_label
_atom_site_type_symbol
_atom_site_fract_x
_atom_site_fract_y
_atom_site_fract_z
_atom_type_partial_charge
C0 C 0.10015 0.32219 0.0346 0.0
C1 C 0.05643 0.31549 0.01629 0.0
C2 C 1.01099 0.30248 0.03282 0.0
C3 C 1.00932 0.29689 0.06735 0.0
C4 C 0.05201 0.30363 0.08605 0.0
C5 C 0.09735 0.3162 0.06941 0.0
O6 O 0.20656 0.23303 0.97455 0.0
Tb7 Tb 0.21237 0.3152 0.97881 0.0
Tb8 Tb 0.30531 0.24009 0.01978 0.0
O9 O 0.19127 0.33724 0.92761 0.0
O10 O 0.2356 0.19669 0.02527 0.0
O11 O 0.14796 0.35708 0.98647 0.0
C12 C 0.35795 0.22245 0.9721 0.0
O13 O 0.18815 0.31148 0.02794 0.0
O14 O 0.3089 0.32068 0.02777 0.0
O15 O 0.28105 0.36025 0.97752 0.0
C16 C 0.14832 0.33952 0.01843 0.0
C17 C 0.32533 0.23674 0.09247 0.0
O18 O 0.28023 0.25657 0.09034 0.0
C19 C 0.20543 0.19563 7e-05 0.0
C20 C 0.30994 0.35993 0.00346 0.0
O21 O 0.34526 0.22231 0.066 0.0
C22 C 0.4058 0.23616 0.95481 0.0
C23 C 0.45344 0.24134 0.90357 0.0
C24 C 0.40792 0.23481 0.92055 0.0
C25 C 0.44998 0.24537 0.97192 0.0
C26 C 0.49561 0.25271 0.95472 0.0
C27 C 0.49681 0.25058 0.92073 0.0
C28 C 0.21571 0.31616 0.90521 0.0
O29 O 0.25284 0.28446 0.91459 0.0
O30 O 0.36013 0.19465 0.00184 0.0
O31 O 0.32292 0.25835 0.96926 0.0
H32 H 0.05748 0.3208 0.98951 0.0
H33 H 0.97368 0.28896 0.07962 0.0
H34 H 0.13059 0.32179 0.08352 0.0
H35 H 0.37456 0.22628 0.90738 0.0
H36 H 0.44913 0.24546 -0.0016 0.0
H37 H 0.53214 0.25475 0.90766 0.0
C38 C 0.59944 0.79862 0.05535 0.0
C39 C 0.55673 0.79711 0.03574 0.0
C40 C 0.5104 0.7863 0.05093 0.0
C41 C 0.50692 0.7772 0.08544 0.0
C42 C 0.54923 0.77931 0.1052 0.0
C43 C 0.59562 0.79031 0.08999 0.0
O44 O 0.73748 0.74542 0.97949 0.0
Tb45 Tb 0.68909 0.81079 0.98486 0.0
Tb46 Tb 0.8381 0.73138 0.00946 0.0
O47 O 0.63789 0.81765 0.94338 0.0
O48 O 0.77384 0.67951 0.01264 0.0
O49 O 0.65548 0.85051 0.0198 0.0
C50 C 0.87731 0.73698 0.95365 0.0
O51 O 0.66745 0.76583 0.02935 0.0
O52 O 0.78937 0.79628 0.0153 0.0
O53 O 0.75323 0.86274 0.98228 0.0
C54 C 0.64865 0.80665 0.04026 0.0
C55 C 0.87299 0.69101 0.079 0.0
O56 O 0.82516 0.68034 0.082 0.0
C57 C 0.73355 0.69884 -0.00282 0.0
C58 C 0.79339 0.84304 -0.00217 0.0
O59 O 0.89012 0.71266 0.05005 0.0
C60 C 0.92651 0.72982 0.93961 0.0
C61 C 0.97637 0.70009 0.89633 0.0
C62 C 0.92975 0.70846 0.91017 0.0
C63 C 0.97002 0.74287 0.95552 0.0
C64 C 0.01658 0.73428 0.94206 0.0
C65 C 0.0196 0.71326 0.91258 0.0
C66 C 0.65097 0.84615 0.91533 0.0
O67 O 0.69321 0.87212 0.91411 0.0
O68 O 0.8562 0.6943 0.96915 0.0
O69 O 0.87211 0.77746 0.96922 0.0
H70 H 0.55962 0.80361 0.00897 0.0
H71 H 0.47059 0.77007 0.09693 0.0
H72 H 0.62871 0.79175 0.10504 0.0
H73 H 0.89589 0.69795 0.89829 0.0
H74 H 0.96777 0.75882 0.97849 0.0
H75 H 0.05598 0.70847 0.90194 0.0
C76 C 0.10864 0.70871 0.44704 0.0
C77 C 0.06471 0.72213 0.463 0.0
C78 C 0.01956 0.73015 0.44512 0.0
C79 C 0.01891 0.72346 0.41171 0.0
C80 C 0.06158 0.70805 0.39591 0.0
C81 C 0.10654 0.70188 0.41361 0.0
O82 O 0.19527 0.78673 0.5289 0.0
Tb83 Tb 0.20302 0.70915 0.51615 0.0
Tb84 Tb 0.30657 0.78997 0.48743 0.0
O85 O 0.15632 0.68234 0.55836 0.0
O86 O 0.23874 0.8369 0.48675 0.0
O87 O 0.15422 0.66376 0.49268 0.0
C88 C 0.36931 0.80626 0.5302 0.0
O89 O 0.18848 0.73495 0.46574 0.0
O90 O 0.30969 0.71014 0.47737 0.0
O91 O 0.27335 0.66733 0.52415 0.0
C92 C 0.15639 0.69656 0.46481 0.0
C93 C 0.31596 0.79588 0.4134 0.0
O94 O 0.27384 0.76986 0.41815 0.0
C95 C 0.20227 0.83065 0.50869 0.0
C96 C 0.30723 0.66975 0.50083 0.0
O97 O 0.33738 0.81279 0.43858 0.0
C98 C 0.41875 0.79132 0.54513 0.0
C99 C 0.47141 0.78678 0.5942 0.0
C100 C 0.42465 0.79429 0.57898 0.0
C101 C 0.46078 0.77978 0.52642 0.0
C102 C 0.5077 0.76996 0.54199 0.0
C103 C 0.51206 0.77354 0.57574 0.0
C104 C 0.17553 0.65995 0.58644 0.0
O105 O 0.2238 0.65192 0.58848 0.0
O106 O 0.36849 0.83207 0.4999 0.0
O107 O 0.33192 0.77303 0.53659 0.0
H108 H 0.06562 0.72609 0.48899 0.0
H109 H 0.98422 0.72895 0.39806 0.0
H110 H 0.13963 0.68944 0.40179 0.0
H111 H 0.39325 0.80519 0.59314 0.0
H112 H 0.45709 0.77879 0.50016 0.0
H113 H 0.54815 0.76751 0.58764 0.0
C114 C 0.60444 0.24098 0.44766 0.0
C115 C 0.5599 0.2415 0.46565 0.0
C116 C 0.51511 0.25583 0.44903 0.0
C117 C 0.51542 0.26904 0.4145 0.0
C118 C 0.55952 0.26815 0.3963 0.0
C119 C 0.60408 0.2541 0.41307 0.0
O120 O 0.74497 0.29728 0.51751 0.0
Tb121 Tb 0.69567 0.23086 0.51784 0.0
Tb122 Tb 0.83849 0.30865 0.48293 0.0
O123 O 0.64651 0.23683 0.55925 0.0
O124 O 0.77555 0.36202 0.48082 0.0
O125 O 0.65266 0.18815 0.48863 0.0
C126 C 0.89151 0.3143 0.53258 0.0
O127 O 0.67899 0.2675 0.47005 0.0
O128 O 0.79552 0.23641 0.48492 0.0
O129 O 0.75871 0.17754 0.52356 0.0
C130 C 0.65217 0.22761 0.46412 0.0
C131 C 0.86753 0.28358 0.41438 0.0
O132 O 0.8256 0.25709 0.41815 0.0
C133 C 0.73785 0.34282 0.49932 0.0
C134 C 0.79947 0.19402 0.50713 0.0
O135 O 0.88247 0.30902 0.43808 0.0
C136 C 0.93929 0.29438 0.54629 0.0
C137 C 0.99324 0.27564 0.59432 0.0
C138 C 0.94874 0.2958 0.57982 0.0
C139 C 0.97477 0.27314 0.52687 0.0
C140 C 0.01866 0.25117 0.54148 0.0
C141 C 0.0275 0.2528 0.57509 0.0
C142 C 0.63987 0.19643 0.58246 0.0
O143 O 0.66161 0.15213 0.57929 0.0
O144 O 0.89305 0.34898 0.50554 0.0
O145 O 0.85656 0.27907 0.53195 0.0
H146 H 0.56025 0.23077 0.49228 0.0
H147 H 0.48043 0.27739 0.40153 0.0
H148 H 0.63846 0.25318 0.39923 0.0
H149 H 0.92151 0.31281 0.59458 0.0
H150 H 0.96823 0.27349 0.5007 0.0
H151 H 0.06283 0.23896 0.58586 0.0
H152 H 0.55906 0.17586 0.97971 0.0
H153 H 0.64696 0.18561 0.99373 0.0
H154 H 0.63007 0.35298 0.97827 0.0
H155 H 0.54217 0.34296 0.96367 0.0
H156 H 0.70832 0.32492 0.94496 0.0
H157 H 0.64492 0.27646 0.05522 0.0
H158 H 0.59862 0.21953 0.09874 0.0
H159 H 0.7019 0.09532 0.09309 0.0
H160 H 0.74733 0.15021 0.04832 0.0
H161 H 0.95172 0.37991 0.00215 0.0
H162 H 0.86332 0.37227 0.98866 0.0
H163 H 0.87298 0.20477 0.01351 0.0
H164 H 0.96099 0.21285 0.02785 0.0
H165 H 0.79749 0.23494 0.04341 0.0
H166 H 0.85151 0.26976 0.93132 0.0
H167 H 0.89443 0.31526 0.88185 0.0
H168 H 0.81076 0.45421 0.88838 0.0
H169 H 0.76739 0.40951 0.938 0.0
C170 C 0.5738 0.21457 0.98054 0.0
C171 C 0.54372 0.25861 0.97146 0.0
C172 C 0.62411 0.22021 0.98836 0.0
C173 C 0.64535 0.27008 0.9874 0.0
C174 C 0.61467 0.31412 0.97942 0.0
C175 C 0.56433 0.30843 0.97147 0.0
C176 C 0.70013 0.27622 0.99224 0.0
C177 C 0.72767 0.306 0.96681 0.0
C178 C 0.72585 0.24982 0.02013 0.0
C179 C 0.6993 0.21742 0.04797 0.0
C180 C 0.65756 0.23685 0.06296 0.0
C181 C 0.63145 0.20494 0.08791 0.0
C182 C 0.64746 0.15404 0.09879 0.0
C183 C 0.68951 0.13478 0.08464 0.0
C184 C 0.71531 0.16619 0.05934 0.0
C185 C 0.93532 0.34144 0.00341 0.0
C186 C 0.96334 0.29692 0.01532 0.0
C187 C 0.88464 0.337 0.99589 0.0
C188 C 0.86105 0.28784 -0.0001 0.0
C189 C 0.88996 0.24314 0.0102 0.0
C190 C 0.94046 0.24766 0.01797 0.0
C191 C 0.80578 0.2833 0.99597 0.0
C192 C 0.77813 0.25403 0.02163 0.0
C193 C 0.77998 0.30907 0.96798 0.0
C194 C 0.80664 0.33648 0.93859 0.0
C195 C 0.84262 0.31018 0.9224 0.0
C196 C 0.86691 0.33578 0.89427 0.0
C197 C 0.85547 0.38768 0.88204 0.0
C198 C 0.81964 0.41404 0.89791 0.0
C199 C 0.79511 0.38857 0.926 0.0
H200 H 0.87426 0.40741 0.86022 0.0
H201 H 0.62725 0.12951 0.11818 0.0
H202 H 0.08797 0.66643 0.96672 0.0
H203 H 0.1699 0.68707 0.9877 0.0
H204 H 0.13199 0.85055 0.97353 0.0
H205 H 0.04914 0.82968 0.95318 0.0
H206 H 0.22448 0.82222 0.94269 0.0
H207 H 0.13954 0.79675 0.0459 0.0
H208 H 0.08745 0.75349 0.09148 0.0
H209 H 0.18939 0.62485 0.10727 0.0
H210 H 0.24206 0.66714 0.0615 0.0
H211 H 0.46361 0.86851 0.01476 0.0
H212 H 0.37673 0.86997 0.99586 0.0
H213 H 0.36649 0.70381 0.0279 0.0
H214 H 0.45266 0.70253 0.04671 0.0
H215 H 0.29374 0.74955 0.05235 0.0
H216 H 0.37026 0.76477 0.94476 0.0
H217 H 0.42279 0.80385 0.89803 0.0
H218 H 0.33678 0.94466 0.88862 0.0
H219 H 0.284 0.90654 0.93559 0.0
C220 C 0.09693 0.70658 0.96876 0.0
C221 C 0.06277 0.74655 0.95854 0.0
C222 C 0.14348 0.71833 0.98069 0.0
C223 C 0.15669 0.77026 0.98215 0.0
C224 C 0.12218 0.81028 0.97263 0.0
C225 C 0.07507 0.79837 0.96123 0.0
C226 C 0.20793 0.78211 0.99154 0.0
C227 C 0.23967 0.80738 0.96687 0.0
C228 C 0.22732 0.7615 0.02288 0.0
C229 C 0.19502 0.73541 0.05015 0.0
C230 C 0.15093 0.75921 0.05893 0.0
C231 C 0.12122 0.73481 0.08487 0.0
C232 C 0.13514 0.68647 0.10233 0.0
C233 C 0.17872 0.66238 0.09379 0.0
C234 C 0.20859 0.68664 0.06787 0.0
C235 C 0.44308 0.83217 0.01644 0.0
C236 C 0.46439 0.78532 0.03172 0.0
C237 C 0.39352 0.833 0.00588 0.0
C238 C 0.36512 0.78685 0.01026 0.0
C239 C 0.38767 0.73971 0.02395 0.0
C240 C 0.43691 0.7389 0.03455 0.0
C241 C 0.31105 0.78763 0.00304 0.0
C242 C 0.27866 0.76496 0.02824 0.0
C243 C 0.29126 0.80983 0.97202 0.0
C244 C 0.32338 0.8329 0.94395 0.0
C245 C 0.36268 0.80415 0.9329 0.0
C246 C 0.39251 0.82613 0.90632 0.0
C247 C 0.38319 0.87675 0.8904 0.0
C248 C 0.344 0.90547 0.901 0.0
C249 C 0.3141 0.88368 0.9276 0.0
H250 H 0.40629 0.89367 0.8698 0.0
H251 H 0.1122 0.66764 0.12246 0.0
H252 H 0.55231 0.8301 0.48868 0.0
H253 H 0.63922 0.82395 0.47066 0.0
H254 H 0.65676 0.68135 0.53911 0.0
H255 H 0.57025 0.68742 0.55695 0.0
H256 H 0.72912 0.7504 0.54822 0.0
H257 H 0.67117 0.67394 0.45292 0.0
H258 H 0.61963 0.66879 0.40366 0.0
H259 H 0.66154 0.82535 0.3629 0.0
H260 H 0.71529 0.83044 0.41135 0.0
H261 H 0.97209 0.67506 0.49896 0.0
H262 H 0.88469 0.68351 0.51504 0.0
H263 H 0.86966 0.81963 0.44067 0.0
H264 H 0.95646 0.81053 0.42429 0.0
H265 H 0.79575 0.75677 0.43462 0.0
H266 H 0.86726 0.82522 0.52596 0.0
H267 H 0.92306 0.82647 0.57368 0.0
H268 H 0.85399 0.68691 0.62382 0.0
H269 H 0.79823 0.68435 0.57614 0.0
C270 C 0.5742 0.79648 0.49894 0.0
C271 C 0.55433 0.75922 0.5242 0.0
C272 C 0.62409 0.7931 0.4888 0.0
C273 C 0.65508 0.75238 0.50373 0.0
C274 C 0.63409 0.71342 0.52739 0.0
C275 C 0.58441 0.71668 0.53738 0.0
C276 C 0.71003 0.75242 0.49686 0.0
C277 C 0.74367 0.75114 0.5234 0.0
C278 C 0.72951 0.755 0.46453 0.0
C279 C 0.69667 0.75274 0.43579 0.0
C280 C 0.66917 0.70731 0.43348 0.0
C281 C 0.63974 0.70433 0.40566 0.0
C282 C 0.63667 0.74695 0.38034 0.0
C283 C 0.66379 0.79239 0.38255 0.0
C284 C 0.69412 0.79518 0.41003 0.0
C285 C 0.95053 0.7077 0.48681 0.0
C286 C 0.9713 0.74227 0.46048 0.0
C287 C 0.90035 0.71243 0.49588 0.0
C288 C 0.87003 0.75223 0.47906 0.0
C289 C 0.89175 0.78833 0.45393 0.0
C290 C 0.94161 0.78341 0.44477 0.0
C291 C 0.81516 0.75444 0.48601 0.0
C292 C 0.78145 0.75627 0.45948 0.0
C293 C 0.79575 0.75263 0.51842 0.0
C294 C 0.82884 0.75433 0.54731 0.0
C295 C 0.86418 0.79458 0.54706 0.0
C296 C 0.89578 0.79557 0.57413 0.0
C297 C 0.89215 0.75674 0.60175 0.0
C298 C 0.85679 0.71694 0.60239 0.0
C299 C 0.82514 0.71572 0.57536 0.0
H300 H 0.91668 0.75755 0.62267 0.0
H301 H 0.61348 0.74464 0.35896 0.0
H302 H 0.06097 0.29988 0.48438 0.0
H303 H 0.14478 0.28299 0.46525 0.0
H304 H 0.15224 0.14267 0.53686 0.0
H305 H 0.06803 0.15899 0.55562 0.0
H306 H 0.22017 0.21709 0.5484 0.0
H307 H 0.17552 0.1304 0.45764 0.0
H308 H 0.13253 0.11434 0.40688 0.0
H309 H 0.18664 0.26052 0.35545 0.0
H310 H 0.23018 0.27736 0.40589 0.0
H311 H 0.47718 0.17629 0.49381 0.0
H312 H 0.38993 0.16561 0.51186 0.0
H313 H 0.35619 0.31862 0.45949 0.0
H314 H 0.44332 0.33025 0.44238 0.0
H315 H 0.30337 0.22516 0.4395 0.0
H316 H 0.3366 0.31725 0.53148 0.0
H317 H 0.37751 0.3362 0.58225 0.0
H318 H 0.34423 0.18123 0.63084 0.0
H319 H 0.30223 0.1617 0.58038 0.0
C320 C 0.07949 0.2641 0.49485 0.0
C321 C 0.05877 0.2314 0.52197 0.0
C322 C 0.12748 0.2545 0.48399 0.0
C323 C 0.155 0.21207 0.5001 0.0
C324 C 0.13179 0.1759 0.52438 0.0
C325 C 0.08376 0.18525 0.53503 0.0
C326 C 0.20984 0.21197 0.49663 0.0
C327 C 0.23849 0.21736 0.52471 0.0
C328 C 0.23349 0.21415 0.46562 0.0
C329 C 0.20577 0.2053 0.43562 0.0
C330 C 0.1779 0.15934 0.43558 0.0
C331 C 0.15369 0.14994 0.4068 0.0
C332 C 0.15681 0.18642 0.37796 0.0
C333 C 0.18422 0.23233 0.37782 0.0
C334 C 0.20884 0.24171 0.40645 0.0
C335 C 0.45148 0.20829 0.48721 0.0
C336 C 0.46666 0.25383 0.46641 0.0
C337 C 0.40177 0.20209 0.49738 0.0
C338 C 0.36687 0.24114 0.48661 0.0
C339 C 0.38272 0.28802 0.46784 0.0
C340 C 0.43233 0.29453 0.45808 0.0
C341 C 0.31311 0.23076 0.49111 0.0
C342 C 0.28492 0.22365 0.46324 0.0
C343 C 0.28981 0.22722 0.52226 0.0
C344 C 0.31709 0.23774 0.55202 0.0
C345 C 0.33861 0.28699 0.55285 0.0
C346 C 0.36169 0.29794 0.58164 0.0
C347 C 0.36397 0.25976 0.60968 0.0
C348 C 0.34273 0.21066 0.60904 0.0
C349 C 0.31906 0.19971 0.58041 0.0
H350 H 0.38196 0.2683 0.63193 0.0
H351 H 0.13823 0.17904 0.35567 0.0
H352 H 0.70702 0.617 0.04429 0.0
H353 H 0.63051 0.56511 0.04668 0.0
H354 H 0.57675 0.6622 0.95869 0.0
H355 H 0.65267 0.71486 0.95676 0.0
H356 H 0.5022 0.63914 -0.00178 0.0
H357 H 0.63151 0.53958 0.95748 0.0
H358 H 0.71084 0.49253 0.95507 0.0
H359 H 0.67335 0.39157 0.04498 0.0
H360 H 0.59424 0.43871 0.04827 0.0
H361 H 0.32851 0.44557 0.95663 0.0
H362 H 0.39581 0.50956 0.95695 0.0
H363 H 0.44252 0.43293 0.05301 0.0
H364 H 0.37598 0.36891 0.05294 0.0
H365 H 0.51854 0.44696 0.00743 0.0
H366 H 0.38704 0.55144 0.04618 0.0
H367 H 0.30291 0.58992 0.04062 0.0
H368 H 0.34231 0.67532 0.94581 0.0
H369 H 0.42686 0.63772 0.95094 0.0
C370 C 0.67866 0.62751 0.02565 0.0
C371 C 0.68577 0.66998 0.00034 0.0
C372 C 0.63505 0.59767 0.02691 0.0
C373 C 0.59819 0.609 0.00246 0.0
C374 C 0.60458 0.65255 0.97781 0.0
C375 C 0.64795 0.68274 0.97676 0.0
C376 C 0.55377 0.57465 0.0021 0.0
C377 C 0.50595 0.59717 -6e-05 0.0
C378 C 0.5583 0.51973 0.00439 0.0
C379 C 0.60716 0.49315 0.00335 0.0
C380 C 0.6405 0.50788 0.97701 0.0
C381 C 0.68539 0.48109 0.97544 0.0
C382 C 0.69724 0.43924 -7e-05 0.0
C383 C 0.66428 0.42417 0.02612 0.0
C384 C 0.61942 0.45091 0.02785 0.0
C385 C 0.35269 0.44278 0.97802 0.0
C386 C 0.34695 0.402 0.00468 0.0
C387 C 0.39101 0.47945 0.97819 0.0
C388 C 0.42402 0.47598 0.00507 0.0
C389 C 0.41747 0.43621 0.03205 0.0
C390 C 0.37928 0.3997 0.03194 0.0
C391 C 0.46758 0.51132 0.0043 0.0
C392 C 0.51513 0.48895 0.006 0.0
C393 C 0.46278 0.56613 0.00096 0.0
C394 C 0.41315 0.5915 -0.00115 0.0
C395 C 0.37778 0.57854 0.02418 0.0
C396 C 0.33003 0.60017 0.0211 0.0
C397 C 0.31722 0.63494 0.99282 0.0
C398 C 0.35235 0.64856 0.96774 0.0
C399 C 0.40027 0.62728 0.97079 0.0
H400 H 0.28025 0.65167 0.99047 0.0
H401 H 0.73184 0.41833 -0.00145 0.0
H402 H 0.67743 0.3499 0.55128 0.0
H403 H 0.60019 0.39892 0.55176 0.0
H404 H 0.60829 0.43961 0.44538 0.0
H405 H 0.68856 0.39481 0.44562 0.0
H406 H 0.58369 0.51891 0.46558 0.0
H407 H 0.51922 0.34238 0.49832 0.0
H408 H 0.5084 0.25606 0.53294 0.0
H409 H 0.47465 0.32961 0.61712 0.0
H410 H 0.48603 0.41618 0.58359 0.0
H411 H 0.34813 0.63587 0.44728 0.0
H412 H 0.41459 0.57204 0.44647 0.0
H413 H 0.41864 0.5475 0.55323 0.0
H414 H 0.34955 0.60907 0.55405 0.0
H415 H 0.43438 0.45926 0.53231 0.0
H416 H 0.50761 0.63278 0.50265 0.0
H417 H 0.50764 0.72036 0.46901 0.0
H418 H 0.51984 0.65188 0.38029 0.0
H419 H 0.52014 0.56385 0.41333 0.0
C420 C 0.66242 0.36916 0.528 0.0
C421 C 0.68888 0.36885 0.49842 0.0
C422 C 0.61773 0.3967 0.52819 0.0
C423 C 0.59709 0.42243 0.49852 0.0
C424 C 0.62308 0.42049 0.46874 0.0
C425 C 0.66894 0.39479 0.46877 0.0
C426 C 0.55089 0.45473 0.49862 0.0
C427 C 0.55091 0.505 0.4798 0.0
C428 C 0.5081 0.43825 0.51804 0.0
C429 C 0.50363 0.38585 0.53839 0.0
C430 C 0.5099 0.34016 0.52426 0.0
C431 C 0.5035 0.29124 0.54363 0.0
C432 C 0.49044 0.28746 0.57694 0.0
C433 C 0.4846 0.33259 0.59125 0.0
C434 C 0.49099 0.38157 0.57211 0.0
C435 C 0.36281 0.61633 0.47058 0.0
C436 C 0.34399 0.62755 0.50074 0.0
C437 C 0.40115 0.58018 0.4701 0.0
C438 C 0.42295 0.55611 0.49976 0.0
C439 C 0.40279 0.5658 0.52999 0.0
C440 C 0.36333 0.60093 0.53048 0.0
C441 C 0.46765 0.52225 0.4992 0.0
C442 C 0.46735 0.4723 0.518 0.0
C443 C 0.51028 0.53887 0.48002 0.0
C444 C 0.51373 0.59181 0.46042 0.0
C445 C 0.51061 0.63645 0.47598 0.0
C446 C 0.51053 0.68613 0.45704 0.0
C447 C 0.51359 0.69166 0.42259 0.0
C448 C 0.51729 0.64751 0.40698 0.0
C449 C 0.51784 0.59774 0.42579 0.0
H450 H 0.51332 0.73016 0.40798 0.0
H451 H 0.4851 0.24953 0.59172 0.0
H452 H 0.19025 0.10955 0.04759 0.0
H453 H 0.12539 0.04248 0.04792 0.0
H454 H 0.07396 0.11763 0.95262 0.0
H455 H 0.13793 0.1843 0.95203 0.0
H456 H 0.99932 0.10016 -0.00149 0.0
H457 H 0.13271 1.0003 0.95702 0.0
H458 H 0.21696 0.96202 0.96002 0.0
H459 H 0.18387 0.87653 0.05593 0.0
H460 H 0.099 0.91355 0.05322 0.0
H461 H 0.82056 0.92751 0.95296 0.0
H462 H 0.89539 0.98124 0.95385 0.0
H463 H 0.9465 0.88086 0.0413 0.0
H464 H 0.87268 0.82585 0.03965 0.0
H465 H 0.02281 0.9093 0.00442 0.0
H466 H 0.88571 1.00156 0.04334 0.0
H467 H 0.80342 0.04385 0.04265 0.0
H468 H 0.84482 0.14957 0.9556 0.0
H469 H 0.92702 0.10743 0.95541 0.0
C470 C 0.16545 0.11141 0.02657 0.0
C471 C 0.16918 0.15247 -0.00012 0.0
C472 C 0.12858 0.07295 0.02673 0.0
C473 C 0.09497 0.07509 0.00024 0.0
C474 C 0.09948 0.1153 0.97332 0.0
C475 C 0.1362 0.15343 0.97306 0.0
C476 C 0.05269 0.03798 0.00121 0.0
C477 C 1.00434 0.05845 -0.0006 0.0
C478 C 0.05941 0.9835 0.00368 0.0
C479 C 0.10974 0.95998 0.00501 0.0
C480 C 0.14343 0.97329 0.97873 0.0
C481 C 0.19118 0.95165 0.98032 0.0
C482 C 0.20572 0.9168 0.00813 0.0
C483 C 0.17242 0.90329 0.03433 0.0
C484 C 0.1244 0.92435 0.0327 0.0
C485 C 0.84803 0.91663 0.97215 0.0
C486 C 0.84067 0.8727 0.99633 0.0
C487 C 0.89065 0.94756 0.9728 0.0
C488 C 0.92606 0.93599 -0.00182 0.0
C489 C 0.91966 0.89087 0.02159 0.0
C490 C 0.87742 0.85944 0.02063 0.0
C491 C 0.96895 0.97166 0.00074 0.0
C492 C 0.01746 0.95094 0.00355 0.0
C493 C 0.96236 0.02619 -0.00055 0.0
C494 C 0.91238 0.05083 -0.00086 0.0
C495 C 0.87708 0.03342 0.02383 0.0
C496 C 0.83047 0.05745 0.02362 0.0
C497 C 0.81882 0.09917 -0.00101 0.0
C498 C 0.8538 0.11706 0.97455 0.0
C499 C 0.90041 0.09314 0.97461 0.0
H500 H 0.78276 0.11773 -0.00116 0.0
H501 H 0.24277 0.90023 0.00939 0.0
H502 H 0.89453 0.22557 0.48914 0.0
H503 H 0.97075 0.17456 0.49716 0.0
H504 H 0.88445 0.03853 0.53688 0.0
H505 H 0.80965 0.0919 0.534 0.0
H506 H 0.96337 0.02805 0.56614 0.0
H507 H 0.93653 0.08101 0.44477 0.0
H508 H 0.92562 0.15263 0.39804 0.0
H509 H 0.06508 0.21983 0.42142 0.0
H510 H 0.07693 0.14831 0.46793 0.0
H511 H 0.10505 0.82061 0.52644 0.0
H512 H 0.04419 0.88906 0.52927 0.0
H513 H 0.15654 1.00598 0.49867 0.0
H514 H 0.21733 0.93676 0.49398 0.0
H515 H 0.07597 0.03591 0.46934 0.0
H516 H 0.11067 0.97387 0.58309 0.0
H517 H 0.12136 0.90847 0.63309 0.0
H518 H 0.9686 0.86125 0.62715 0.0
H519 H 0.95712 0.92593 0.5769 0.0
C520 C 0.89216 0.18528 0.50063 0.0
C521 C 0.84618 0.16327 0.5116 0.0
C522 C 0.93578 0.1555 0.50444 0.0
C523 C 0.93391 0.1017 0.51651 0.0
C524 C 0.88767 0.07977 0.52749 0.0
C525 C 0.8446 0.11035 0.52562 0.0
C526 C 0.979 0.06747 0.51689 0.0
C527 C 0.98743 0.02944 0.54471 0.0
C528 C 1.01254 0.07031 0.48979 0.0
C529 C 1.00742 0.1098 0.45988 0.0
C530 C 0.96498 0.11088 0.4397 0.0
C531 C 0.95849 0.15156 0.41343 0.0
C532 C 0.99437 0.19099 0.40713 0.0
C533 C 0.0372 0.18942 0.42656 0.0
C534 C 0.04397 0.14872 0.45271 0.0
C535 C 0.11698 0.86091 0.5205 0.0
C536 C 0.16619 0.87332 0.51038 0.0
C537 C 0.08212 0.90017 0.52237 0.0
C538 C 0.09588 0.95301 0.51525 0.0
C539 C 0.14497 0.96558 0.50464 0.0
C540 C 0.17973 0.92607 0.50199 0.0
C541 C 0.05831 0.99463 0.51779 0.0
C542 C 0.05175 0.03435 0.49071 0.0
C543 C 0.02647 0.99321 0.54562 0.0
C544 C 0.03313 0.95464 0.57611 0.0
C545 C 0.07942 0.9494 0.59236 0.0
C546 C 0.0856 0.91245 0.62076 0.0
C547 C 0.0457 0.88069 0.63327 0.0
C548 C 0.99947 0.88589 0.61745 0.0
C549 C 0.99308 0.92276 0.58904 0.0
H550 H 0.05057 0.85209 0.65525 0.0
H551 H 0.98956 0.22222 0.38677 0.0
H552 H 0.51028 0.34587 0.35702 0.0
H553 H 0.48449 0.34489 0.29984 0.0
H554 H 0.57615 0.20991 0.2956 0.0
H555 H 0.60115 0.20968 0.35324 0.0
H556 H 0.55874 0.29951 0.23091 0.0
H557 H 0.48009 0.17095 0.31805 0.0
H558 H 0.44191 0.15184 0.37348 0.0
H559 H 0.33077 0.26878 0.34498 0.0
H560 H 0.3691 0.28941 0.28959 0.0
H561 H 0.41935 0.19812 0.10582 0.0
H562 H 0.47069 0.20631 0.15428 0.0
H563 H 0.35133 0.28855 0.19453 0.0
H564 H 0.29959 0.27912 0.14697 0.0
H565 H 0.38842 0.22355 0.241 0.0
H566 H 0.45429 0.34773 0.15421 0.0
H567 H 0.49264 0.38297 0.1007 0.0
H568 H 0.62544 0.29513 0.12792 0.0
H569 H 0.58702 0.25711 0.1809 0.0
C570 C 0.52612 0.31693 0.34358 0.0
C571 C 0.55683 0.27716 0.35972 0.0
C572 C 0.51166 0.31668 0.31091 0.0
C573 C 0.52812 0.27703 0.29384 0.0
C574 C 0.56335 0.24092 0.30849 0.0
C575 C 0.57758 0.24086 0.34139 0.0
C576 C 0.50083 0.26723 0.26415 0.0
C577 C 0.52189 0.28202 0.2328 0.0
C578 C 0.45215 0.24624 0.2671 0.0
C579 C 0.42772 0.23201 0.29982 0.0
C580 C 0.4477 0.19278 0.32368 0.0
C581 C 0.42606 0.18171 0.35509 0.0
C582 C 0.38402 0.20919 0.36278 0.0
C583 C 0.36339 0.24759 0.339 0.0
C584 C 0.38505 0.25898 0.30761 0.0
C585 C 0.40396 0.21749 0.12519 0.0
C586 C 0.35539 0.23792 0.12259 0.0
C587 C 0.43347 0.22253 0.15272 0.0
C588 C 0.41513 0.24869 0.17785 0.0
C589 C 0.36633 0.26819 0.17549 0.0
C590 C 0.33673 0.26273 0.14824 0.0
C591 C 0.44612 0.25548 0.20693 0.0
C592 C 0.42558 0.24028 0.23854 0.0
C593 C 0.49481 0.27736 0.20394 0.0
C594 C 0.51727 0.29868 0.17141 0.0
C595 C 0.49124 0.33493 0.14855 0.0
C596 C 0.51301 0.35543 0.11825 0.0
C597 C 0.56123 0.34083 0.11075 0.0
C598 C 0.58784 0.30588 0.13358 0.0
C599 C 0.56596 0.28459 0.16367 0.0
H600 H 0.57811 0.35676 0.08734 0.0
H601 H 0.36739 0.20066 0.38714 0.0
H602 H 0.58458 0.84238 0.14777 0.0
H603 H 0.55609 0.84323 0.20473 0.0
H604 H 0.46998 0.70371 0.20063 0.0
H605 H 0.49871 0.70228 0.1441 0.0
H606 H 0.41461 0.79347 0.21024 0.0
H607 H 0.55952 0.69568 0.25389 0.0
H608 H 0.64957 0.67927 0.26124 0.0
H609 H 0.66709 0.82368 0.29925 0.0
H610 H 0.57712 0.84106 0.29202 0.0
H611 H 0.29733 0.73938 0.36396 0.0
H612 H 0.3461 0.73744 0.31402 0.0
H613 H 0.44376 0.85666 0.34094 0.0
H614 H 0.39612 0.8571 0.39199 0.0
H615 H 0.49698 0.78501 0.31945 0.0
H616 H 0.35437 0.88339 0.27835 0.0
H617 H 0.26504 0.90361 0.27069 0.0
H618 H 0.24404 0.76608 0.22562 0.0
H619 H 0.33314 0.74464 0.23339 0.0
C620 C 0.56113 0.81084 0.15954 0.0
C621 C 0.54315 0.7727 0.14151 0.0
C622 C 0.54483 0.81143 0.19198 0.0
C623 C 0.51063 0.7738 0.2066 0.0
C624 C 0.4962 0.73318 0.18961 0.0
C625 C 0.51252 0.73248 0.15738 0.0
C626 C 0.48369 0.78108 0.237 0.0
C627 C 0.43243 0.79101 0.23424 0.0
C628 C 0.50761 0.78026 0.2678 0.0
C629 C 0.5617 0.76996 0.27203 0.0
C630 C 0.58264 0.72416 0.26354 0.0
C631 C 0.63364 0.71459 0.26782 0.0
C632 C 0.66404 0.75046 0.28066 0.0
C633 C 0.64349 0.79594 0.2893 0.0
C634 C 0.59249 0.80561 0.2852 0.0
C635 C 0.32881 0.76567 0.35911 0.0
C636 C 0.34268 0.79875 0.38172 0.0
C637 C 0.35666 0.76458 0.33049 0.0
C638 C 0.39811 0.79757 0.32343 0.0
C639 C 0.41185 0.83098 0.34586 0.0
C640 C 0.38444 0.83144 0.37486 0.0
C641 C 0.42741 0.79611 0.29289 0.0
C642 C 0.47909 0.78777 0.29546 0.0
C643 C 0.40404 0.79924 0.26164 0.0
C644 C 0.35042 0.81222 0.25668 0.0
C645 C 0.33066 0.85728 0.26699 0.0
C646 C 0.28006 0.86898 0.2626 0.0
C647 C 0.24887 0.83609 0.24774 0.0
C648 C 0.26824 0.7915 0.23714 0.0
C649 C 0.31881 0.7796 0.24149 0.0
H650 H 0.2097 0.8452 0.24439 0.0
H651 H 0.7035 0.74298 0.28396 0.0
H652 H 0.41825 0.74841 0.65028 0.0
H653 H 0.43846 0.75856 0.70765 0.0
H654 H 0.56297 0.85743 0.67259 0.0
H655 H 0.54331 0.84699 0.6158 0.0
H656 H 0.59145 0.78298 0.72019 0.0
H657 H 0.45496 0.90499 0.70289 0.0
H658 H 0.36847 0.93234 0.68965 0.0
H659 H 0.31521 0.82158 0.77108 0.0
H660 H 0.40139 0.79303 0.78453 0.0
H661 H 0.67053 0.89834 0.85363 0.0
H662 H 0.62944 0.8878 0.80191 0.0
H663 H 0.52515 0.77925 0.85524 0.0
H664 H 0.56616 0.78964 0.90748 0.0
H665 H 0.48115 0.84828 0.80213 0.0
H666 H 0.61845 0.73002 0.82094 0.0
H667 H 0.70524 0.70427 0.83453 0.0
H668 H 0.75693 0.80895 0.74968 0.0
H669 H 0.67046 0.83595 0.73587 0.0
C670 C 0.44947 0.7728 0.65494 0.0
C671 C 0.47964 0.79633 0.62869 0.0
C672 C 0.46098 0.77864 0.68766 0.0
C673 C 0.5024 0.80863 0.69447 0.0
C674 C 0.53117 0.83369 0.66804 0.0
C675 C 0.51995 0.82763 0.63559 0.0
C676 C 0.51822 0.81191 0.72894 0.0
C677 C 0.56735 0.79773 0.73793 0.0
C678 C 0.48636 0.82938 0.75259 0.0
C679 C 0.43457 0.84639 0.74444 0.0
C680 C 0.42477 0.88609 0.71777 0.0
C681 C 0.37581 0.90189 0.71027 0.0
C682 C 0.33635 0.87857 0.72943 0.0
C683 C 0.3458 0.83951 0.7562 0.0
C684 C 0.39469 0.82352 0.76378 0.0
C685 C 0.6385 0.87266 0.85453 0.0
C686 C 0.62202 0.84435 0.88467 0.0
C687 C 0.61507 0.86666 0.8249 0.0
C688 C 0.57477 0.83212 0.8247 0.0
C689 C 0.55634 0.80594 0.85487 0.0
C690 C 0.57991 0.81184 0.88465 0.0
C691 C 0.55468 0.82102 0.79269 0.0
C692 C 0.50492 0.83324 0.78433 0.0
C693 C 0.58589 0.80178 0.76945 0.0
C694 C 0.63797 0.78531 0.77753 0.0
C695 C 0.64834 0.74784 0.80532 0.0
C696 C 0.69748 0.73298 0.81304 0.0
C697 C 0.73658 0.75503 0.79301 0.0
C698 C 0.7266 0.79192 0.76518 0.0
C699 C 0.67753 0.80699 0.75738 0.0
H700 H 0.77461 0.74347 0.79903 0.0
H701 H 0.29848 0.89088 0.7236 0.0
H702 H 0.42461 0.3074 0.84823 0.0
H703 H 0.44582 0.3001 0.79055 0.0
H704 H 0.51411 0.15067 0.82344 0.0
H705 H 0.49421 0.15889 0.88078 0.0
H706 H 0.57589 0.20985 0.78648 0.0
H707 H 0.40362 0.16674 0.77866 0.0
H708 H 0.31287 0.17858 0.78246 0.0
H709 H 0.32106 0.31583 0.70926 0.0
H710 H 0.41217 0.30564 0.70557 0.0
H711 H 0.61863 0.12018 0.63443 0.0
H712 H 0.57712 0.12988 0.68634 0.0
H713 H 0.5551 0.29357 0.65159 0.0
H714 H 0.59753 0.28459 0.59963 0.0
H715 H 0.46785 0.23224 0.68696 0.0
H716 H 0.64167 0.27552 0.6981 0.0
H717 H 0.73198 0.2604 0.69418 0.0
H718 H 0.71775 0.11668 0.76127 0.0
H719 H 0.62715 0.13056 0.76516 0.0
C720 C 0.44313 0.27262 0.84283 0.0
C721 C 0.45775 0.2336 0.86865 0.0
C722 C 0.4552 0.26837 0.80996 0.0
C723 C 0.4816 0.22477 0.80256 0.0
C724 C 0.49397 0.18476 0.82844 0.0
C725 C 0.4824 0.18927 0.86115 0.0
C726 C 0.50065 0.22255 0.76857 0.0
C727 C 0.55189 0.2141 0.76489 0.0
C728 C 0.46981 0.22958 0.74007 0.0
C729 C 0.41498 0.23591 0.74228 0.0
C730 C 0.38625 0.19987 0.76368 0.0
C731 C 0.3347 0.20623 0.76577 0.0
C732 C 0.3113 0.24813 0.74629 0.0
C733 C 0.33933 0.28357 0.72448 0.0
C734 C 0.39094 0.27755 0.72241 0.0
C735 C 0.6046 0.1582 0.63762 0.0
C736 C 0.61137 0.20161 0.61284 0.0
C737 C 0.58074 0.1636 0.66727 0.0
C738 C 0.56287 0.21237 0.67266 0.0
C739 C 0.56819 0.25552 0.64769 0.0
C740 C 0.59261 0.25029 0.61811 0.0
C741 C 0.54242 0.21869 0.70547 0.0
C742 C 0.49133 0.22811 0.70878 0.0
C743 C 0.57309 0.21216 0.73382 0.0
C744 C 0.62757 0.2038 0.73162 0.0
C745 C 0.65772 0.24044 0.71175 0.0
C746 C 0.70897 0.23215 0.70959 0.0
C747 C 0.73057 0.18753 0.72739 0.0
C748 C 0.70096 0.15117 0.74746 0.0
C749 C 0.64966 0.15925 0.74966 0.0
H750 H 0.77026 0.1812 0.72571 0.0
H751 H 0.27147 0.25306 0.74808 0.0
H752 H 0.98709 0.65511 0.36999 0.0
H753 H 0.97583 0.64148 0.31308 0.0
H754 H 0.117 0.71664 0.28674 0.0
H755 H 0.1273 0.73291 0.34394 0.0
H756 H 0.05379 0.75286 0.24277 0.0
H757 H 0.09759 0.58188 0.28578 0.0
H758 H 0.10172 0.49691 0.32202 0.0
H759 H 0.94782 0.46824 0.30248 0.0
H760 H 0.94237 0.55347 0.2666 0.0
H761 H 0.97375 0.70873 0.08204 0.0
H762 H 0.026 0.69952 0.13169 0.0
H763 H 0.89871 0.64521 0.19174 0.0
H764 H 0.84674 0.65299 0.14247 0.0
H765 H 0.98008 0.59092 0.21278 0.0
H766 H 0.94135 0.77917 0.17966 0.0
H767 H 0.94551 0.85856 0.13785 0.0
H768 H 0.10476 0.84514 0.13386 0.0
H769 H 0.10141 0.76555 0.17555 0.0
C770 C 0.0158 0.66898 0.35215 0.0
C771 C 0.05776 0.69587 0.36151 0.0
C772 C 1.00972 0.66027 0.31958 0.0
C773 C 0.04588 0.67724 0.29547 0.0
C774 C 0.08863 0.7029 0.30485 0.0
C775 C 0.09462 0.71196 0.3376 0.0
C776 C 0.0361 0.67204 0.26021 0.0
C777 C 0.03897 0.7169 0.23614 0.0
C778 C 0.01721 0.62514 0.25104 0.0
C779 C 0.01952 0.57448 0.27363 0.0
C780 C 0.06442 0.55783 0.28951 0.0
C781 C 0.06702 0.5095 0.30994 0.0
C782 C 0.02502 0.47728 0.31462 0.0
C783 C 0.98029 0.49332 0.29889 0.0
C784 C 0.97744 0.54165 0.27848 0.0
C785 C 0.95704 0.69432 0.1058 0.0
C786 C 0.90593 0.68208 0.10835 0.0
C787 C 0.98697 0.6892 0.13415 0.0
C788 C 0.96618 0.67242 0.16552 0.0
C789 C 0.91564 0.6583 0.16784 0.0
C790 C 0.88586 0.66303 0.13961 0.0
C791 C 0.9955 0.67202 0.19638 0.0
C792 C 0.99634 0.62615 0.21947 0.0
C793 C 0.01907 0.71738 0.20434 0.0
C794 C 0.02111 0.7665 0.18058 0.0
C795 C 0.97722 0.79333 0.16992 0.0
C796 C 0.97943 0.83827 0.14622 0.0
C797 C 0.02537 0.85687 0.1332 0.0
C798 C 0.06922 0.83076 0.14402 0.0
C799 C 0.0672 0.78582 0.16772 0.0
H800 H 0.02699 0.89151 0.11474 0.0
H801 H 0.02719 0.43984 0.33036 0.0
H802 H 0.85176 0.22739 0.36409 0.0
H803 H 0.89866 0.23078 0.31283 0.0
H804 H 0.99729 0.34627 0.34312 0.0
H805 H 0.94968 0.34382 0.39453 0.0
H806 H 0.97003 0.37443 0.28091 0.0
H807 H 0.05207 0.21479 0.33512 0.0
H808 H 0.05578 0.12628 0.36766 0.0
H809 H 0.94618 0.07258 0.30423 0.0
H810 H 0.94289 0.16028 0.27082 0.0
H811 H 0.09751 0.36363 0.12785 0.0
H812 H 0.08277 0.36085 0.18721 0.0
H813 H 0.97884 0.23384 0.18583 0.0
H814 H 0.99648 0.23356 0.12772 0.0
H815 H 0.02675 0.21521 0.23859 0.0
H816 H 0.9467 0.37441 0.18276 0.0
H817 H 0.94577 0.46167 0.14877 0.0
H818 H 0.04993 0.51756 0.21503 0.0
H819 H 0.05145 0.43067 0.24935 0.0
C820 C 0.88353 0.25342 0.36 0.0
C821 C 0.897 0.28521 0.38352 0.0
C822 C 0.91078 0.25485 0.33077 0.0
C823 C 0.95234 0.2879 0.32433 0.0
C824 C 0.96565 0.32015 0.34761 0.0
C825 C 0.9384 0.31867 0.37701 0.0
C826 C 0.97928 0.29111 0.29224 0.0
C827 C 0.98333 0.33973 0.27187 0.0
C828 C 0.99638 0.24605 0.28016 0.0
C829 C 0.99681 0.19404 0.30084 0.0
C830 C 0.02869 0.18406 0.32825 0.0
C831 C 0.03101 0.13401 0.34664 0.0
C832 C 1.00103 0.09399 0.33815 0.0
C833 C 0.96921 0.10368 0.3109 0.0
C834 C 0.96737 0.15339 0.29209 0.0
C835 C 0.0724 0.33435 0.14039 0.0
C836 C 0.04762 0.29932 0.12276 0.0
C837 C 0.06333 0.33338 0.17428 0.0
C838 C 0.0286 0.29806 0.19103 0.0
C839 C 1.00552 0.26183 0.17365 0.0
C840 C 0.01527 0.26208 0.14016 0.0
C841 C 0.01522 0.29816 0.22645 0.0
C842 C 0.01411 0.25016 0.24764 0.0
C843 C 1.00057 0.34384 0.23907 0.0
C844 C 0.99968 0.39593 0.21834 0.0
C845 C 0.9696 0.40527 0.18994 0.0
C846 C 0.96886 0.45469 0.17067 0.0
C847 C 0.99784 0.49512 0.17969 0.0
C848 C 0.0275 0.48624 0.20805 0.0
C849 C 0.02826 0.43696 0.22744 0.0
H850 H 0.99722 0.53335 0.16475 0.0
H851 H 1.00259 0.05544 0.35263 0.0
H852 H 0.16266 0.39692 0.8714 0.0
H853 H 0.12641 0.40159 0.81609 0.0
H854 H 0.18861 0.25057 0.80803 0.0
H855 H 0.22751 0.24764 0.86201 0.0
H856 H 0.19281 0.30592 0.75153 0.0
H857 H 0.05935 0.27446 0.83482 0.0
H858 H 1.01193 0.29992 0.88155 0.0
H859 H 0.97281 0.44523 0.82212 0.0
H860 H 0.02027 0.42072 0.77512 0.0
H861 H 0.03618 0.20357 0.64141 0.0
H862 H 0.0727 0.21913 0.69373 0.0
H863 H 0.01682 0.37668 0.67737 0.0
H864 H 0.98127 0.36194 0.62447 0.0
H865 H 1.00988 0.33139 0.74256 0.0
H866 H 0.13213 0.35792 0.65736 0.0
H867 H 0.18319 0.33793 0.61085 0.0
H868 H 0.24613 0.20589 0.67304 0.0
H869 H 0.19433 0.22423 0.71976 0.0
C870 C 0.16903 0.36518 0.8575 0.0
C871 C 0.1974 0.32173 0.87098 0.0
C872 C 0.14806 0.36765 0.82603 0.0
C873 C 0.15347 0.3257 0.80824 0.0
C874 C 0.18362 0.28335 0.82126 0.0
C875 C 0.20577 0.28162 0.85219 0.0
C876 C 0.12618 0.32394 0.77687 0.0
C877 C 0.15273 0.31071 0.74978 0.0
C878 C 0.07411 0.33247 0.77399 0.0
C879 C 0.04364 0.34597 0.80164 0.0
C880 C 0.04055 0.31178 0.83176 0.0
C881 C 0.01376 0.32608 0.85828 0.0
C882 C 0.98967 0.37429 0.85485 0.0
C883 C 0.99166 0.40799 0.82475 0.0
C884 C 0.0184 0.39388 0.79816 0.0
C885 C 0.03134 0.24142 0.64908 0.0
C886 C 1.00659 0.28181 0.62863 0.0
C887 C 0.05216 0.25021 0.67893 0.0
C888 C 0.04845 0.29945 0.68886 0.0
C889 C 0.02053 0.33865 0.66982 0.0
C890 C 0.99993 0.33001 0.63977 0.0
C891 C 0.07628 0.31063 0.7181 0.0
C892 C 0.04992 0.32619 0.74449 0.0
C893 C 0.12856 0.3041 0.72037 0.0
C894 C 0.15906 0.29229 0.69208 0.0
C895 C 0.15642 0.32428 0.66108 0.0
C896 C 0.18552 0.31325 0.63465 0.0
C897 C 0.21781 0.27061 0.63896 0.0
C898 C 0.22101 0.23885 0.66971 0.0
C899 C 0.19175 0.24952 0.69618 0.0
H900 H 0.24036 0.26224 0.61847 0.0
H901 H 0.96949 0.38555 0.87554 0.0
H902 H 0.20305 0.61728 0.64907 0.0
H903 H 0.1522 0.60924 0.69914 0.0
H904 H 0.02542 0.67049 0.64118 0.0
H905 H 0.07604 0.67911 0.591 0.0
H906 H 0.04506 0.72289 0.69245 0.0
H907 H 0.02768 0.54458 0.67676 0.0
H908 H 0.06302 0.46178 0.66497 0.0
H909 H 0.14546 0.44512 0.75584 0.0
H910 H 0.11166 0.52852 0.76787 0.0
H911 H 0.91669 0.72184 0.84138 0.0
H912 H 0.93166 0.69847 0.78663 0.0
H913 H 0.06245 0.61229 0.82366 0.0
H914 H 0.04545 0.63182 0.87885 0.0
H915 H 0.02499 0.56697 0.77827 0.0
H916 H 0.06325 0.74603 0.78819 0.0
H917 H 0.04641 0.83588 0.79792 0.0
H918 H 0.94012 0.85505 0.71857 0.0
H919 H 0.95571 0.76494 0.70876 0.0
C920 C 0.16416 0.62826 0.64689 0.0
C921 C 0.14367 0.64915 0.61613 0.0
C922 C 0.13507 0.62336 0.6755 0.0
C923 C 0.08497 0.63891 0.67378 0.0
C924 C 0.06397 0.65811 0.64296 0.0
C925 C 0.093 0.66297 0.61434 0.0
C926 C 0.05614 0.64002 0.70448 0.0
C927 C 0.03942 0.68859 0.71091 0.0
C928 C 0.05027 0.59541 0.7288 0.0
C929 C 0.06746 0.54317 0.72303 0.0
C930 C 0.05333 0.52329 0.69426 0.0
C931 C 0.07312 0.47627 0.68753 0.0
C932 C 0.10658 0.44842 0.70959 0.0
C933 C 0.1196 0.4669 0.73877 0.0
C934 C 0.10011 0.51405 0.74556 0.0
C935 C 0.94771 0.69652 0.83815 0.0
C936 C 0.98062 0.67979 0.86437 0.0
C937 C 0.95653 0.68364 0.8067 0.0
C938 C 0.99907 0.65501 0.80077 0.0
C939 C 0.02968 0.63493 0.82746 0.0
C940 C 0.02032 0.64683 0.85897 0.0
C941 C 0.01495 0.65024 0.76661 0.0
C942 C 0.02928 0.60105 0.75948 0.0
C943 C 0.02004 0.69461 0.74185 0.0
C944 C 1.00996 0.74844 0.74816 0.0
C945 C 0.03585 0.76921 0.77308 0.0
C946 C 0.0266 0.82021 0.77857 0.0
C947 C 0.99202 0.85106 0.75899 0.0
C948 C 0.96669 0.83102 0.73383 0.0
C949 C 0.97566 0.77996 0.72834 0.0
H950 H 0.98499 0.89058 0.76323 0.0
H951 H 0.12273 0.41277 0.70394 0.0
loop_
_geom_bond_atom_site_label_1
_geom_bond_atom_site_label_2
_geom_bond_distance
_geom_bond_site_symmetry_2
_ccdc_geom_bond_type
C0 C1 1.386 . S
C0 C5 1.384 . S
C0 C16 1.497 . S
C1 C0 1.386 . S
C1 C2 1.393 . S
C1 H32 0.932 . S
C2 C1 1.393 . S
C2 C3 1.387 . S
C3 C2 1.387 . S
C3 C4 1.392 . S
C3 H33 0.930 1_455 S
C4 C3 1.392 . S
C4 C5 1.402 . S
C5 C0 1.384 . S
C5 C4 1.402 . S
C5 H34 0.930 . S
O6 Tb7 2.288 . S
O6 C19 1.266 . S
Tb7 O6 2.288 . S
Tb7 O9 2.303 . S
Tb7 O11 2.430 . S
Tb7 O13 2.459 1_556 S
Tb7 O15 2.301 . S
Tb7 C16 2.808 1_556 S
Tb8 O10 2.301 . S
Tb8 C12 2.808 1_554 S
Tb8 O14 2.288 . S
Tb8 O21 2.303 . S
Tb8 O30 2.430 . S
Tb8 O31 2.459 1_554 S
O9 Tb7 2.303 . S
O9 C28 1.255 . S
O10 Tb8 2.301 . S
O10 C19 1.224 1_554 S
O11 Tb7 2.430 . S
O11 C16 1.248 1_556 S
C12 Tb8 2.808 1_556 S
C12 C22 1.497 . S
C12 O30 1.248 1_556 S
C12 O31 1.260 . S
O13 Tb7 2.459 1_554 S
O13 C16 1.260 . S
O14 Tb8 2.288 . S
O14 C20 1.257 . S
O15 Tb7 2.301 . S
O15 C20 1.237 1_556 S
C16 C0 1.497 . S
C16 Tb7 2.808 1_554 S
C16 O11 1.248 1_554 S
C16 O13 1.260 . S
C17 O18 1.255 . S
C17 O21 1.255 . S
O18 C17 1.255 . S
C19 O6 1.266 . S
C19 O10 1.224 1_556 S
C20 O14 1.257 . S
C20 O15 1.237 1_554 S
O21 Tb8 2.303 . S
O21 C17 1.255 . S
C22 C12 1.497 . S
C22 C24 1.384 . S
C22 C25 1.386 . S
C23 C24 1.402 . S
C23 C27 1.392 . S
C24 C22 1.384 . S
C24 C23 1.402 . S
C24 H35 0.930 . S
C25 C22 1.386 . S
C25 C26 1.393 . S
C25 H36 0.932 . S
C26 C25 1.393 . S
C26 C27 1.387 . S
C27 C23 1.392 . S
C27 C26 1.387 . S
C27 H37 0.930 . S
C28 O9 1.255 . S
C28 O29 1.255 . S
O29 C28 1.255 . S
O30 Tb8 2.430 . S
O30 C12 1.248 1_554 S
O31 Tb8 2.459 1_556 S
O31 C12 1.260 . S
H32 C1 0.932 . S
H33 C3 0.930 1_655 S
H34 C5 0.930 . S
H35 C24 0.930 . S
H36 C25 0.932 . S
H37 C27 0.930 . S
C38 C39 1.386 . S
C38 C43 1.384 . S
C38 C54 1.497 . S
C39 C38 1.386 . S
C39 C40 1.393 . S
C39 H70 0.932 . S
C40 C39 1.393 . S
C40 C41 1.387 . S
C41 C40 1.387 . S
C41 C42 1.392 . S
C41 H71 0.930 . S
C42 C41 1.392 . S
C42 C43 1.402 . S
C43 C38 1.384 . S
C43 C42 1.402 . S
C43 H72 0.930 . S
O44 Tb45 2.288 . S
O44 C57 1.266 . S
Tb45 O44 2.288 . S
Tb45 O47 2.303 . S
Tb45 O49 2.430 . S
Tb45 O51 2.459 1_556 S
Tb45 O53 2.301 . S
Tb45 C54 2.808 1_556 S
Tb46 O48 2.301 . S
Tb46 C50 2.808 1_554 S
Tb46 O52 2.288 . S
Tb46 O59 2.303 . S
Tb46 O68 2.430 . S
Tb46 O69 2.459 1_554 S
O47 Tb45 2.303 . S
O47 C66 1.255 . S
O48 Tb46 2.301 . S
O48 C57 1.224 1_554 S
O49 Tb45 2.430 . S
O49 C54 1.248 1_556 S
C50 Tb46 2.808 1_556 S
C50 C60 1.497 . S
C50 O68 1.248 1_556 S
C50 O69 1.260 . S
O51 Tb45 2.459 1_554 S
O51 C54 1.260 . S
O52 Tb46 2.288 . S
O52 C58 1.257 . S
O53 Tb45 2.301 . S
O53 C58 1.237 1_556 S
C54 C38 1.497 . S
C54 Tb45 2.808 1_554 S
C54 O49 1.248 1_554 S
C54 O51 1.260 . S
C55 O56 1.255 . S
C55 O59 1.255 . S
O56 C55 1.255 . S
C57 O44 1.266 . S
C57 O48 1.224 1_556 S
C58 O52 1.257 . S
C58 O53 1.237 1_554 S
O59 Tb46 2.303 . S
O59 C55 1.255 . S
C60 C50 1.497 . S
C60 C62 1.384 . S
C60 C63 1.386 . S
C61 C62 1.402 . S
C61 C65 1.392 . S
C62 C60 1.384 . S
C62 C61 1.402 . S
C62 H73 0.930 . S
C63 C60 1.386 . S
C63 C64 1.393 . S
C63 H74 0.932 . S
C64 C63 1.393 . S
C64 C65 1.387 . S
C65 C61 1.392 . S
C65 C64 1.387 . S
C65 H75 0.930 1_655 S
C66 O47 1.255 . S
C66 O67 1.255 . S
O67 C66 1.255 . S
O68 Tb46 2.430 . S
O68 C50 1.248 1_554 S
O69 Tb46 2.459 1_556 S
O69 C50 1.260 . S
H70 C39 0.932 . S
H71 C41 0.930 . S
H72 C43 0.930 . S
H73 C62 0.930 . S
H74 C63 0.932 . S
H75 C65 0.930 1_455 S
C76 C77 1.386 . S
C76 C81 1.384 . S
C76 C92 1.497 . S
C77 C76 1.386 . S
C77 C78 1.393 . S
C77 H108 0.932 . S
C78 C77 1.393 . S
C78 C79 1.387 . S
C79 C78 1.387 . S
C79 C80 1.392 . S
C79 H109 0.930 1_455 S
C80 C79 1.392 . S
C80 C81 1.402 . S
C81 C76 1.384 . S
C81 C80 1.402 . S
C81 H110 0.930 . S
O82 Tb83 2.288 . S
O82 C95 1.257 . S
Tb83 O82 2.288 . S
Tb83 O85 2.303 . S
Tb83 O87 2.430 . S
Tb83 O89 2.459 . S
Tb83 O91 2.301 . S
Tb83 C92 2.808 . S
Tb84 O86 2.301 . S
Tb84 C88 2.808 . S
Tb84 O90 2.288 . S
Tb84 O97 2.303 . S
Tb84 O106 2.430 . S
Tb84 O107 2.459 . S
O85 Tb83 2.303 . S
O85 C104 1.255 . S
O86 Tb84 2.301 . S
O86 C95 1.237 . S
O87 Tb83 2.430 . S
O87 C92 1.248 . S
C88 Tb84 2.808 . S
C88 C98 1.497 . S
C88 O106 1.248 . S
C88 O107 1.260 . S
O89 Tb83 2.459 . S
O89 C92 1.260 . S
O90 Tb84 2.288 . S
O90 C96 1.257 . S
O91 Tb83 2.301 . S
O91 C96 1.237 . S
C92 C76 1.497 . S
C92 Tb83 2.808 . S
C92 O87 1.248 . S
C92 O89 1.260 . S
C93 O94 1.255 . S
C93 O97 1.255 . S
O94 C93 1.255 . S
C95 O82 1.257 . S
C95 O86 1.237 . S
C96 O90 1.257 . S
C96 O91 1.237 . S
O97 Tb84 2.303 . S
O97 C93 1.255 . S
C98 C88 1.497 . S
C98 C100 1.384 . S
C98 C101 1.386 . S
C99 C100 1.402 . S
C99 C103 1.392 . S
C100 C98 1.384 . S
C100 C99 1.402 . S
C100 H111 0.930 . S
C101 C98 1.386 . S
C101 C102 1.393 . S
C101 H112 0.932 . S
C102 C101 1.393 . S
C102 C103 1.387 . S
C103 C99 1.392 . S
C103 C102 1.387 . S
C103 H113 0.930 . S
C104 O85 1.255 . S
C104 O105 1.255 . S
O105 C104 1.255 . S
O106 Tb84 2.430 . S
O106 C88 1.248 . S
O107 Tb84 2.459 . S
O107 C88 1.260 . S
H108 C77 0.932 . S
H109 C79 0.930 1_655 S
H110 C81 0.930 . S
H111 C100 0.930 . S
H112 C101 0.932 . S
H113 C103 0.930 . S
C114 C115 1.386 . S
C114 C119 1.384 . S
C114 C130 1.497 . S
C115 C114 1.386 . S
C115 C116 1.393 . S
C115 H146 0.932 . S
C116 C115 1.393 . S
C116 C117 1.387 . S
C117 C116 1.387 . S
C117 C118 1.392 . S
C117 H147 0.930 . S
C118 C117 1.392 . S
C118 C119 1.402 . S
C119 C114 1.384 . S
C119 C118 1.402 . S
C119 H148 0.930 . S
O120 Tb121 2.288 . S
O120 C133 1.257 . S
Tb121 O120 2.288 . S
Tb121 O123 2.303 . S
Tb121 O125 2.430 . S
Tb121 O127 2.459 . S
Tb121 O129 2.301 . S
Tb121 C130 2.808 . S
Tb122 O124 2.301 . S
Tb122 C126 2.808 . S
Tb122 O128 2.288 . S
Tb122 O135 2.303 . S
Tb122 O144 2.430 . S
Tb122 O145 2.459 . S
O123 Tb121 2.303 . S
O123 C142 1.255 . S
O124 Tb122 2.301 . S
O124 C133 1.237 . S
O125 Tb121 2.430 . S
O125 C130 1.248 . S
C126 Tb122 2.808 . S
C126 C136 1.497 . S
C126 O144 1.248 . S
C126 O145 1.260 . S
O127 Tb121 2.459 . S
O127 C130 1.260 . S
O128 Tb122 2.288 . S
O128 C134 1.257 . S
O129 Tb121 2.301 . S
O129 C134 1.237 . S
C130 C114 1.497 . S
C130 Tb121 2.808 . S
C130 O125 1.248 . S
C130 O127 1.260 . S
C131 O132 1.255 . S
C131 O135 1.255 . S
O132 C131 1.255 . S
C133 O120 1.257 . S
C133 O124 1.237 . S
C134 O128 1.257 . S
C134 O129 1.237 . S
O135 Tb122 2.303 . S
O135 C131 1.255 . S
C136 C126 1.497 . S
C136 C138 1.384 . S
C136 C139 1.386 . S
C137 C138 1.402 . S
C137 C141 1.392 . S
C138 C136 1.384 . S
C138 C137 1.402 . S
C138 H149 0.930 . S
C139 C136 1.386 . S
C139 C140 1.393 . S
C139 H150 0.932 . S
C140 C139 1.393 . S
C140 C141 1.387 . S
C141 C137 1.392 . S
C141 C140 1.387 . S
C141 H151 0.930 1_655 S
C142 O123 1.255 . S
C142 O143 1.255 . S
O143 C142 1.255 . S
O144 Tb122 2.430 . S
O144 C126 1.248 . S
O145 Tb122 2.459 . S
O145 C126 1.260 . S
H146 C115 0.932 . S
H147 C117 0.930 . S
H148 C119 0.930 . S
H149 C138 0.930 . S
H150 C139 0.932 . S
H151 C141 0.930 1_455 S
H152 C170 0.951 . S
H153 C172 0.951 . S
H154 C174 0.950 . S
H155 C175 0.950 . S
H156 C177 0.950 . S
H157 C180 0.950 . S
H158 C181 0.950 . S
H159 C183 0.950 . S
H160 C184 0.950 . S
H161 C185 0.951 . S
H162 C187 0.951 . S
H163 C189 0.950 . S
H164 C190 0.950 . S
H165 C192 0.950 . S
H166 C195 0.950 . S
H167 C196 0.950 . S
H168 C198 0.950 . S
H169 C199 0.950 . S
C170 H152 0.951 . S
C170 C171 1.366 . S
C170 C172 1.388 . S
C171 C170 1.366 . S
C171 C175 1.385 . S
C172 H153 0.951 . S
C172 C170 1.388 . S
C172 C173 1.366 . S
C173 C172 1.366 . S
C173 C174 1.414 . S
C173 C176 1.499 . S
C174 H154 0.950 . S
C174 C173 1.414 . S
C174 C175 1.374 . S
C175 H155 0.950 . S
C175 C171 1.385 . S
C175 C174 1.374 . S
C176 C173 1.499 . S
C176 C177 1.373 . S
C176 C178 1.389 1_556 S
C177 H156 0.950 . S
C177 C176 1.373 . S
C177 C193 1.377 . S
C178 C176 1.389 1_554 S
C178 C179 1.524 . S
C178 C192 1.377 . S
C179 C178 1.524 . S
C179 C180 1.397 . S
C179 C184 1.363 . S
C180 H157 0.950 . S
C180 C179 1.397 . S
C180 C181 1.334 . S
C181 H158 0.950 . S
C181 C180 1.334 . S
C181 C182 1.287 . S
C182 C181 1.287 . S
C182 C183 1.524 . S
C182 H201 0.913 . S
C183 H159 0.950 . S
C183 C182 1.524 . S
C183 C184 1.415 . S
C184 H160 0.950 . S
C184 C179 1.363 . S
C184 C183 1.415 . S
C185 H161 0.951 . S
C185 C186 1.366 . S
C185 C187 1.388 . S
C186 C185 1.366 . S
C186 C190 1.385 . S
C187 H162 0.951 . S
C187 C185 1.388 . S
C187 C188 1.366 . S
C188 C187 1.366 . S
C188 C189 1.414 . S
C188 C191 1.499 . S
C189 H163 0.950 . S
C189 C188 1.414 . S
C189 C190 1.374 . S
C190 H164 0.950 . S
C190 C186 1.385 . S
C190 C189 1.374 . S
C191 C188 1.499 . S
C191 C192 1.373 . S
C191 C193 1.389 1_554 S
C192 H165 0.950 . S
C192 C178 1.377 . S
C192 C191 1.373 . S
C193 C177 1.377 . S
C193 C191 1.389 1_556 S
C193 C194 1.524 . S
C194 C193 1.524 . S
C194 C195 1.397 . S
C194 C199 1.363 . S
C195 H166 0.950 . S
C195 C194 1.397 . S
C195 C196 1.334 . S
C196 H167 0.950 . S
C196 C195 1.334 . S
C196 C197 1.287 . S
C197 C196 1.287 . S
C197 C198 1.524 . S
C197 H200 0.999 . S
C198 H168 0.950 . S
C198 C197 1.524 . S
C198 C199 1.415 . S
C199 H169 0.950 . S
C199 C194 1.363 . S
C199 C198 1.415 . S
H200 C197 0.999 . S
H201 C182 0.913 . S
H202 C220 0.951 . S
H203 C222 0.951 1_554 S
H204 C224 0.950 . S
H205 C225 0.950 . S
H206 C227 0.950 . S
H207 C230 0.950 . S
H208 C231 0.950 . S
H209 C233 0.950 . S
H210 C234 0.950 . S
H211 C235 0.951 . S
H212 C237 0.951 1_556 S
H213 C239 0.950 . S
H214 C240 0.950 . S
H215 C242 0.950 . S
H216 C245 0.950 . S
H217 C246 0.950 . S
H218 C248 0.950 . S
H219 C249 0.950 . S
C220 H202 0.951 . S
C220 C221 1.366 . S
C220 C222 1.388 . S
C221 C220 1.366 . S
C221 C225 1.385 . S
C222 H203 0.951 1_556 S
C222 C220 1.388 . S
C222 C223 1.366 . S
C223 C222 1.366 . S
C223 C224 1.414 . S
C223 C226 1.499 . S
C224 H204 0.950 . S
C224 C223 1.414 . S
C224 C225 1.374 . S
C225 H205 0.950 . S
C225 C221 1.385 . S
C225 C224 1.374 . S
C226 C223 1.499 . S
C226 C227 1.373 . S
C226 C228 1.389 1_556 S
C227 H206 0.950 . S
C227 C226 1.373 . S
C227 C243 1.377 . S
C228 C226 1.389 1_554 S
C228 C229 1.524 . S
C228 C242 1.377 . S
C229 C228 1.524 . S
C229 C230 1.397 . S
C229 C234 1.363 . S
C230 H207 0.950 . S
C230 C229 1.397 . S
C230 C231 1.334 . S
C231 H208 0.950 . S
C231 C230 1.334 . S
C231 C232 1.287 . S
C232 C231 1.287 . S
C232 C233 1.524 . S
C232 H251 0.913 . S
C233 H209 0.950 . S
C233 C232 1.524 . S
C233 C234 1.415 . S
C234 H210 0.950 . S
C234 C229 1.363 . S
C234 C233 1.415 . S
C235 H211 0.951 . S
C235 C236 1.366 . S
C235 C237 1.388 . S
C236 C235 1.366 . S
C236 C240 1.385 . S
C237 H212 0.951 1_554 S
C237 C235 1.388 . S
C237 C238 1.366 . S
C238 C237 1.366 . S
C238 C239 1.414 . S
C238 C241 1.499 . S
C239 H213 0.950 . S
C239 C238 1.414 . S
C239 C240 1.374 . S
C240 H214 0.950 . S
C240 C236 1.385 . S
C240 C239 1.374 . S
C241 C238 1.499 . S
C241 C242 1.373 . S
C241 C243 1.389 1_554 S
C242 H215 0.950 . S
C242 C228 1.377 . S
C242 C241 1.373 . S
C243 C227 1.377 . S
C243 C241 1.389 1_556 S
C243 C244 1.524 . S
C244 C243 1.524 . S
C244 C245 1.397 . S
C244 C249 1.363 . S
C245 H216 0.950 . S
C245 C244 1.397 . S
C245 C246 1.334 . S
C246 H217 0.950 . S
C246 C245 1.334 . S
C246 C247 1.287 . S
C247 C246 1.287 . S
C247 C248 1.524 . S
C247 H250 0.999 . S
C248 H218 0.950 . S
C248 C247 1.524 . S
C248 C249 1.415 . S
C249 H219 0.950 . S
C249 C244 1.363 . S
C249 C248 1.415 . S
H250 C247 0.999 . S
H251 C232 0.913 . S
H252 C270 0.951 . S
H253 C272 0.951 . S
H254 C274 0.950 . S
H255 C275 0.950 . S
H256 C277 0.950 . S
H257 C280 0.950 . S
H258 C281 0.950 . S
H259 C283 0.950 . S
H260 C284 0.950 . S
H261 C285 0.951 . S
H262 C287 0.951 . S
H263 C289 0.950 . S
H264 C290 0.950 . S
H265 C292 0.950 . S
H266 C295 0.950 . S
H267 C296 0.950 . S
H268 C298 0.950 . S
H269 C299 0.950 . S
C270 H252 0.951 . S
C270 C271 1.366 . S
C270 C272 1.388 . S
C271 C270 1.366 . S
C271 C275 1.385 . S
C272 H253 0.951 . S
C272 C270 1.388 . S
C272 C273 1.366 . S
C273 C272 1.366 . S
C273 C274 1.414 . S
C273 C276 1.499 . S
C274 H254 0.950 . S
C274 C273 1.414 . S
C274 C275 1.374 . S
C275 H255 0.950 . S
C275 C271 1.385 . S
C275 C274 1.374 . S
C276 C273 1.499 . S
C276 C277 1.373 . S
C276 C278 1.389 . S
C277 H256 0.950 . S
C277 C276 1.373 . S
C277 C293 1.377 . S
C278 C276 1.389 . S
C278 C279 1.524 . S
C278 C292 1.377 . S
C279 C278 1.524 . S
C279 C280 1.397 . S
C279 C284 1.363 . S
C280 H257 0.950 . S
C280 C279 1.397 . S
C280 C281 1.334 . S
C281 H258 0.950 . S
C281 C280 1.334 . S
C281 C282 1.287 . S
C282 C281 1.287 . S
C282 C283 1.524 . S
C282 H301 0.913 . S
C283 H259 0.950 . S
C283 C282 1.524 . S
C283 C284 1.415 . S
C284 H260 0.950 . S
C284 C279 1.363 . S
C284 C283 1.415 . S
C285 H261 0.951 . S
C285 C286 1.366 . S
C285 C287 1.388 . S
C286 C285 1.366 . S
C286 C290 1.385 . S
C287 H262 0.951 . S
C287 C285 1.388 . S
C287 C288 1.366 . S
C288 C287 1.366 . S
C288 C289 1.414 . S
C288 C291 1.499 . S
C289 H263 0.950 . S
C289 C288 1.414 . S
C289 C290 1.374 . S
C290 H264 0.950 . S
C290 C286 1.385 . S
C290 C289 1.374 . S
C291 C288 1.499 . S
C291 C292 1.373 . S
C291 C293 1.389 . S
C292 H265 0.950 . S
C292 C278 1.377 . S
C292 C291 1.373 . S
C293 C277 1.377 . S
C293 C291 1.389 . S
C293 C294 1.524 . S
C294 C293 1.524 . S
C294 C295 1.397 . S
C294 C299 1.363 . S
C295 H266 0.950 . S
C295 C294 1.397 . S
C295 C296 1.334 . S
C296 H267 0.950 . S
C296 C295 1.334 . S
C296 C297 1.287 . S
C297 C296 1.287 . S
C297 C298 1.524 . S
C297 H300 0.999 . S
C298 H268 0.950 . S
C298 C297 1.524 . S
C298 C299 1.415 . S
C299 H269 0.950 . S
C299 C294 1.363 . S
C299 C298 1.415 . S
H300 C297 0.999 . S
H301 C282 0.913 . S
H302 C320 0.951 . S
H303 C322 0.951 . S
H304 C324 0.950 . S
H305 C325 0.950 . S
H306 C327 0.950 . S
H307 C330 0.950 . S
H308 C331 0.950 . S
H309 C333 0.950 . S
H310 C334 0.950 . S
H311 C335 0.951 . S
H312 C337 0.951 . S
H313 C339 0.950 . S
H314 C340 0.950 . S
H315 C342 0.950 . S
H316 C345 0.950 . S
H317 C346 0.950 . S
H318 C348 0.950 . S
H319 C349 0.950 . S
C320 H302 0.951 . S
C320 C321 1.366 . S
C320 C322 1.388 . S
C321 C320 1.366 . S
C321 C325 1.385 . S
C322 H303 0.951 . S
C322 C320 1.388 . S
C322 C323 1.366 . S
C323 C322 1.366 . S
C323 C324 1.414 . S
C323 C326 1.499 . S
C324 H304 0.950 . S
C324 C323 1.414 . S
C324 C325 1.374 . S
C325 H305 0.950 . S
C325 C321 1.385 . S
C325 C324 1.374 . S
C326 C323 1.499 . S
C326 C327 1.373 . S
C326 C328 1.389 . S
C327 H306 0.950 . S
C327 C326 1.373 . S
C327 C343 1.377 . S
C328 C326 1.389 . S
C328 C329 1.524 . S
C328 C342 1.377 . S
C329 C328 1.524 . S
C329 C330 1.397 . S
C329 C334 1.363 . S
C330 H307 0.950 . S
C330 C329 1.397 . S
C330 C331 1.334 . S
C331 H308 0.950 . S
C331 C330 1.334 . S
C331 C332 1.287 . S
C332 C331 1.287 . S
C332 C333 1.524 . S
C332 H351 0.913 . S
C333 H309 0.950 . S
C333 C332 1.524 . S
C333 C334 1.415 . S
C334 H310 0.950 . S
C334 C329 1.363 . S
C334 C333 1.415 . S
C335 H311 0.951 . S
C335 C336 1.366 . S
C335 C337 1.388 . S
C336 C335 1.366 . S
C336 C340 1.385 . S
C337 H312 0.951 . S
C337 C335 1.388 . S
C337 C338 1.366 . S
C338 C337 1.366 . S
C338 C339 1.414 . S
C338 C341 1.499 . S
C339 H313 0.950 . S
C339 C338 1.414 . S
C339 C340 1.374 . S
C340 H314 0.950 . S
C340 C336 1.385 . S
C340 C339 1.374 . S
C341 C338 1.499 . S
C341 C342 1.373 . S
C341 C343 1.389 . S
C342 H315 0.950 . S
C342 C328 1.377 . S
C342 C341 1.373 . S
C343 C327 1.377 . S
C343 C341 1.389 . S
C343 C344 1.524 . S
C344 C343 1.524 . S
C344 C345 1.397 . S
C344 C349 1.363 . S
C345 H316 0.950 . S
C345 C344 1.397 . S
C345 C346 1.334 . S
C346 H317 0.950 . S
C346 C345 1.334 . S
C346 C347 1.287 . S
C347 C346 1.287 . S
C347 C348 1.524 . S
C347 H350 0.999 . S
C348 H318 0.950 . S
C348 C347 1.524 . S
C348 C349 1.415 . S
C349 H319 0.950 . S
C349 C344 1.363 . S
C349 C348 1.415 . S
H350 C347 0.999 . S
H351 C332 0.913 . S
H352 C370 0.951 . S
H353 C372 0.951 . S
H354 C374 0.950 . S
H355 C375 0.950 . S
H356 C377 0.950 . S
H357 C380 0.950 . S
H358 C381 0.950 . S
H359 C383 0.950 . S
H360 C384 0.950 . S
H361 C385 0.951 . S
H362 C387 0.951 . S
H363 C389 0.950 . S
H364 C390 0.950 . S
H365 C392 0.950 . S
H366 C395 0.950 . S
H367 C396 0.950 . S
H368 C398 0.950 . S
H369 C399 0.950 . S
C370 H352 0.951 . S
C370 C371 1.366 . S
C370 C372 1.388 . S
C371 C370 1.366 . S
C371 C375 1.385 1_556 S
C372 H353 0.951 . S
C372 C370 1.388 . S
C372 C373 1.366 . S
C373 C372 1.366 . S
C373 C374 1.414 1_556 S
C373 C376 1.499 . S
C374 H354 0.950 . S
C374 C373 1.414 1_554 S
C374 C375 1.374 . S
C375 H355 0.950 . S
C375 C371 1.385 1_554 S
C375 C374 1.374 . S
C376 C373 1.499 . S
C376 C377 1.373 1_556 S
C376 C378 1.389 . S
C377 H356 0.950 . S
C377 C376 1.373 1_554 S
C377 C393 1.377 . S
C378 C376 1.389 . S
C378 C379 1.524 . S
C378 C392 1.377 . S
C379 C378 1.524 . S
C379 C380 1.397 . S
C379 C384 1.363 . S
C380 H357 0.950 . S
C380 C379 1.397 . S
C380 C381 1.334 . S
C381 H358 0.950 . S
C381 C380 1.334 . S
C381 C382 1.287 . S
C382 C381 1.287 . S
C382 C383 1.524 . S
C382 H401 0.913 . S
C383 H359 0.950 . S
C383 C382 1.524 . S
C383 C384 1.415 . S
C384 H360 0.950 . S
C384 C379 1.363 . S
C384 C383 1.415 . S
C385 H361 0.951 . S
C385 C386 1.366 . S
C385 C387 1.388 . S
C386 C385 1.366 . S
C386 C390 1.385 1_554 S
C387 H362 0.951 . S
C387 C385 1.388 . S
C387 C388 1.366 . S
C388 C387 1.366 . S
C388 C389 1.414 1_554 S
C388 C391 1.499 . S
C389 H363 0.950 . S
C389 C388 1.414 1_556 S
C389 C390 1.374 . S
C390 H364 0.950 . S
C390 C386 1.385 1_556 S
C390 C389 1.374 . S
C391 C388 1.499 . S
C391 C392 1.373 1_554 S
C391 C393 1.389 . S
C392 H365 0.950 . S
C392 C378 1.377 . S
C392 C391 1.373 1_556 S
C393 C377 1.377 . S
C393 C391 1.389 . S
C393 C394 1.524 . S
C394 C393 1.524 . S
C394 C395 1.397 . S
C394 C399 1.363 . S
C395 H366 0.950 . S
C395 C394 1.397 . S
C395 C396 1.334 . S
C396 H367 0.950 . S
C396 C395 1.334 . S
C396 C397 1.287 . S
C397 C396 1.287 . S
C397 C398 1.524 . S
C397 H400 0.999 . S
C398 H368 0.950 . S
C398 C397 1.524 . S
C398 C399 1.415 . S
C399 H369 0.950 . S
C399 C394 1.363 . S
C399 C398 1.415 . S
H400 C397 0.999 . S
H401 C382 0.913 . S
H402 C420 0.951 . S
H403 C422 0.951 . S
H404 C424 0.950 . S
H405 C425 0.950 . S
H406 C427 0.950 . S
H407 C430 0.950 . S
H408 C431 0.950 . S
H409 C433 0.950 . S
H410 C434 0.950 . S
H411 C435 0.951 . S
H412 C437 0.951 . S
H413 C439 0.950 . S
H414 C440 0.950 . S
H415 C442 0.950 . S
H416 C445 0.950 . S
H417 C446 0.950 . S
H418 C448 0.950 . S
H419 C449 0.950 . S
C420 H402 0.951 . S
C420 C421 1.366 . S
C420 C422 1.388 . S
C421 C420 1.366 . S
C421 C425 1.385 . S
C422 H403 0.951 . S
C422 C420 1.388 . S
C422 C423 1.366 . S
C423 C422 1.366 . S
C423 C424 1.414 . S
C423 C426 1.499 . S
C424 H404 0.950 . S
C424 C423 1.414 . S
C424 C425 1.374 . S
C425 H405 0.950 . S
C425 C421 1.385 . S
C425 C424 1.374 . S
C426 C423 1.499 . S
C426 C427 1.373 . S
C426 C428 1.389 . S
C427 H406 0.950 . S
C427 C426 1.373 . S
C427 C443 1.377 . S
C428 C426 1.389 . S
C428 C429 1.524 . S
C428 C442 1.377 . S
C429 C428 1.524 . S
C429 C430 1.397 . S
C429 C434 1.363 . S
C430 H407 0.950 . S
C430 C429 1.397 . S
C430 C431 1.334 . S
C431 H408 0.950 . S
C431 C430 1.334 . S
C431 C432 1.287 . S
C432 C431 1.287 . S
C432 C433 1.524 . S
C432 H451 0.913 . S
C433 H409 0.950 . S
C433 C432 1.524 . S
C433 C434 1.415 . S
C434 H410 0.950 . S
C434 C429 1.363 . S
C434 C433 1.415 . S
C435 H411 0.951 . S
C435 C436 1.366 . S
C435 C437 1.388 . S
C436 C435 1.366 . S
C436 C440 1.385 . S
C437 H412 0.951 . S
C437 C435 1.388 . S
C437 C438 1.366 . S
C438 C437 1.366 . S
C438 C439 1.414 . S
C438 C441 1.499 . S
C439 H413 0.950 . S
C439 C438 1.414 . S
C439 C440 1.374 . S
C440 H414 0.950 . S
C440 C436 1.385 . S
C440 C439 1.374 . S
C441 C438 1.499 . S
C441 C442 1.373 . S
C441 C443 1.389 . S
C442 H415 0.950 . S
C442 C428 1.377 . S
C442 C441 1.373 . S
C443 C427 1.377 . S
C443 C441 1.389 . S
C443 C444 1.524 . S
C444 C443 1.524 . S
C444 C445 1.397 . S
C444 C449 1.363 . S
C445 H416 0.950 . S
C445 C444 1.397 . S
C445 C446 1.334 . S
C446 H417 0.950 . S
C446 C445 1.334 . S
C446 C447 1.287 . S
C447 C446 1.287 . S
C447 C448 1.524 . S
C447 H450 0.999 . S
C448 H418 0.950 . S
C448 C447 1.524 . S
C448 C449 1.415 . S
C449 H419 0.950 . S
C449 C444 1.363 . S
C449 C448 1.415 . S
H450 C447 0.999 . S
H451 C432 0.913 . S
H452 C470 0.951 . S
H453 C472 0.951 . S
H454 C474 0.950 . S
H455 C475 0.950 . S
H456 C477 0.950 . S
H457 C480 0.950 1_556 S
H458 C481 0.950 . S
H459 C483 0.950 . S
H460 C484 0.950 . S
H461 C485 0.951 . S
H462 C487 0.951 . S
H463 C489 0.950 . S
H464 C490 0.950 . S
H465 C492 0.950 . S
H466 C495 0.950 1_554 S
H467 C496 0.950 . S
H468 C498 0.950 . S
H469 C499 0.950 . S
C470 H452 0.951 . S
C470 C471 1.366 1_554 S
C470 C472 1.388 . S
C471 C470 1.366 1_556 S
C471 C475 1.385 . S
C472 H453 0.951 . S
C472 C470 1.388 . S
C472 C473 1.338 1_554 S
C473 C472 1.338 1_556 S
C473 C474 1.439 . S
C473 C476 1.503 . S
C474 H454 0.950 . S
C474 C473 1.439 . S
C474 C475 1.374 . S
C475 H455 0.950 . S
C475 C471 1.385 . S
C475 C474 1.374 . S
C476 C473 1.503 . S
C476 C477 1.373 1_455 S
C476 C478 1.389 1_546 S
C477 H456 0.950 . S
C477 C476 1.373 1_655 S
C477 C493 1.377 . S
C478 C476 1.389 1_564 S
C478 C479 1.524 . S
C478 C492 1.377 . S
C479 C478 1.524 . S
C479 C480 1.397 . S
C479 C484 1.363 . S
C480 H457 0.950 1_554 S
C480 C479 1.397 . S
C480 C481 1.334 . S
C481 H458 0.950 . S
C481 C480 1.334 . S
C481 C482 1.287 . S
C482 C481 1.287 . S
C482 C483 1.524 . S
C482 H501 0.913 . S
C483 H459 0.950 . S
C483 C482 1.524 . S
C483 C484 1.415 . S
C484 H460 0.950 . S
C484 C479 1.363 . S
C484 C483 1.415 . S
C485 H461 0.951 . S
C485 C486 1.366 1_556 S
C485 C487 1.388 . S
C486 C485 1.366 1_554 S
C486 C490 1.385 . S
C487 H462 0.951 . S
C487 C485 1.388 . S
C487 C488 1.366 1_556 S
C488 C487 1.366 1_554 S
C488 C489 1.414 . S
C488 C491 1.499 . S
C489 H463 0.950 . S
C489 C488 1.414 . S
C489 C490 1.374 . S
C490 H464 0.950 . S
C490 C486 1.385 . S
C490 C489 1.374 . S
C491 C488 1.499 . S
C491 C492 1.373 1_655 S
C491 C493 1.389 1_564 S
C492 H465 0.950 . S
C492 C478 1.377 . S
C492 C491 1.373 1_455 S
C493 C477 1.377 . S
C493 C491 1.389 1_546 S
C493 C494 1.524 . S
C494 C493 1.524 . S
C494 C495 1.397 . S
C494 C499 1.363 . S
C495 H466 0.950 1_556 S
C495 C494 1.397 . S
C495 C496 1.334 . S
C496 H467 0.950 . S
C496 C495 1.334 . S
C496 C497 1.287 . S
C497 C496 1.287 . S
C497 C498 1.524 . S
C497 H500 0.999 . S
C498 H468 0.950 . S
C498 C497 1.524 . S
C498 C499 1.415 . S
C499 H469 0.950 . S
C499 C494 1.363 . S
C499 C498 1.415 . S
H500 C497 0.999 . S
H501 C482 0.913 . S
H502 C520 0.951 . S
H503 C522 0.951 . S
H504 C524 0.950 . S
H505 C525 0.950 . S
H506 C527 0.950 . S
H507 C530 0.950 . S
H508 C531 0.950 . S
H509 C533 0.950 . S
H510 C534 0.950 . S
H511 C535 0.951 . S
H512 C537 0.951 . S
H513 C539 0.950 . S
H514 C540 0.950 . S
H515 C542 0.950 . S
H516 C545 0.950 . S
H517 C546 0.950 . S
H518 C548 0.950 . S
H519 C549 0.950 . S
C520 H502 0.951 . S
C520 C521 1.366 . S
C520 C522 1.388 . S
C521 C520 1.366 . S
C521 C525 1.385 . S
C522 H503 0.951 . S
C522 C520 1.388 . S
C522 C523 1.366 . S
C523 C522 1.366 . S
C523 C524 1.414 . S
C523 C526 1.499 . S
C524 H504 0.950 . S
C524 C523 1.414 . S
C524 C525 1.374 . S
C525 H505 0.950 . S
C525 C521 1.385 . S
C525 C524 1.374 . S
C526 C523 1.499 . S
C526 C527 1.373 1_545 S
C526 C528 1.389 . S
C527 H506 0.950 . S
C527 C526 1.373 1_565 S
C527 C543 1.377 1_655 S
C528 C526 1.389 . S
C528 C529 1.524 . S
C528 C542 1.377 1_655 S
C529 C528 1.524 . S
C529 C530 1.397 . S
C529 C534 1.363 1_655 S
C530 H507 0.950 . S
C530 C529 1.397 . S
C530 C531 1.334 . S
C531 H508 0.950 . S
C531 C530 1.334 . S
C531 C532 1.287 . S
C532 C531 1.287 . S
C532 C533 1.524 1_655 S
C532 H551 0.913 . S
C533 H509 0.950 . S
C533 C532 1.524 1_455 S
C533 C534 1.415 . S
C534 H510 0.950 . S
C534 C529 1.363 1_455 S
C534 C533 1.415 . S
C535 H511 0.951 . S
C535 C536 1.366 . S
C535 C537 1.388 . S
C536 C535 1.366 . S
C536 C540 1.385 . S
C537 H512 0.951 . S
C537 C535 1.388 . S
C537 C538 1.366 . S
C538 C537 1.366 . S
C538 C539 1.414 . S
C538 C541 1.499 . S
C539 H513 0.950 . S
C539 C538 1.414 . S
C539 C540 1.374 . S
C540 H514 0.950 . S
C540 C536 1.385 . S
C540 C539 1.374 . S
C541 C538 1.499 . S
C541 C542 1.373 1_565 S
C541 C543 1.389 . S
C542 H515 0.950 . S
C542 C528 1.377 1_455 S
C542 C541 1.373 1_545 S
C543 C527 1.377 1_455 S
C543 C541 1.389 . S
C543 C544 1.524 . S
C544 C543 1.524 . S
C544 C545 1.397 . S
C544 C549 1.363 1_455 S
C545 H516 0.950 . S
C545 C544 1.397 . S
C545 C546 1.334 . S
C546 H517 0.950 . S
C546 C545 1.334 . S
C546 C547 1.287 . S
C547 C546 1.287 . S
C547 C548 1.524 1_455 S
C547 H550 0.999 . S
C548 H518 0.950 . S
C548 C547 1.524 1_655 S
C548 C549 1.415 . S
C549 H519 0.950 . S
C549 C544 1.363 1_655 S
C549 C548 1.415 . S
H550 C547 0.999 . S
H551 C532 0.913 . S
H552 C570 0.951 . S
H553 C572 0.951 . S
H554 C574 0.950 . S
H555 C575 0.950 . S
H556 C577 0.950 . S
H557 C580 0.950 . S
H558 C581 0.950 . S
H559 C583 0.950 . S
H560 C584 0.950 . S
H561 C585 0.951 . S
H562 C587 0.951 . S
H563 C589 0.950 . S
H564 C590 0.950 . S
H565 C592 0.950 . S
H566 C595 0.950 . S
H567 C596 0.950 . S
H568 C598 0.950 . S
H569 C599 0.950 . S
C570 H552 0.951 . S
C570 C571 1.366 . S
C570 C572 1.388 . S
C571 C570 1.366 . S
C571 C575 1.385 . S
C572 H553 0.951 . S
C572 C570 1.388 . S
C572 C573 1.366 . S
C573 C572 1.366 . S
C573 C574 1.414 . S
C573 C576 1.499 . S
C574 H554 0.950 . S
C574 C573 1.414 . S
C574 C575 1.374 . S
C575 H555 0.950 . S
C575 C571 1.385 . S
C575 C574 1.374 . S
C576 C573 1.499 . S
C576 C577 1.373 . S
C576 C578 1.389 . S
C577 H556 0.950 . S
C577 C576 1.373 . S
C577 C593 1.377 . S
C578 C576 1.389 . S
C578 C579 1.524 . S
C578 C592 1.377 . S
C579 C578 1.524 . S
C579 C580 1.397 . S
C579 C584 1.363 . S
C580 H557 0.950 . S
C580 C579 1.397 . S
C580 C581 1.334 . S
C581 H558 0.950 . S
C581 C580 1.334 . S
C581 C582 1.287 . S
C582 C581 1.287 . S
C582 C583 1.524 . S
C582 H601 0.913 . S
C583 H559 0.950 . S
C583 C582 1.524 . S
C583 C584 1.415 . S
C584 H560 0.950 . S
C584 C579 1.363 . S
C584 C583 1.415 . S
C585 H561 0.951 . S
C585 C586 1.366 . S
C585 C587 1.388 . S
C586 C585 1.366 . S
C586 C590 1.385 . S
C587 H562 0.951 . S
C587 C585 1.388 . S
C587 C588 1.366 . S
C588 C587 1.366 . S
C588 C589 1.414 . S
C588 C591 1.499 . S
C589 H563 0.950 . S
C589 C588 1.414 . S
C589 C590 1.374 . S
C590 H564 0.950 . S
C590 C586 1.385 . S
C590 C589 1.374 . S
C591 C588 1.499 . S
C591 C592 1.373 . S
C591 C593 1.389 . S
C592 H565 0.950 . S
C592 C578 1.377 . S
C592 C591 1.373 . S
C593 C577 1.377 . S
C593 C591 1.389 . S
C593 C594 1.524 . S
C594 C593 1.524 . S
C594 C595 1.397 . S
C594 C599 1.363 . S
C595 H566 0.950 . S
C595 C594 1.397 . S
C595 C596 1.334 . S
C596 H567 0.950 . S
C596 C595 1.334 . S
C596 C597 1.287 . S
C597 C596 1.287 . S
C597 C598 1.524 . S
C597 H600 0.999 . S
C598 H568 0.950 . S
C598 C597 1.524 . S
C598 C599 1.415 . S
C599 H569 0.950 . S
C599 C594 1.363 . S
C599 C598 1.415 . S
H600 C597 0.999 . S
H601 C582 0.913 . S
H602 C620 0.951 . S
H603 C622 0.951 . S
H604 C624 0.950 . S
H605 C625 0.950 . S
H606 C627 0.950 . S
H607 C630 0.950 . S
H608 C631 0.950 . S
H609 C633 0.950 . S
H610 C634 0.950 . S
H611 C635 0.951 . S
H612 C637 0.951 . S
H613 C639 0.950 . S
H614 C640 0.950 . S
H615 C642 0.950 . S
H616 C645 0.950 . S
H617 C646 0.950 . S
H618 C648 0.950 . S
H619 C649 0.950 . S
C620 H602 0.951 . S
C620 C621 1.366 . S
C620 C622 1.388 . S
C621 C620 1.366 . S
C621 C625 1.385 . S
C622 H603 0.951 . S
C622 C620 1.388 . S
C622 C623 1.366 . S
C623 C622 1.366 . S
C623 C624 1.414 . S
C623 C626 1.499 . S
C624 H604 0.950 . S
C624 C623 1.414 . S
C624 C625 1.374 . S
C625 H605 0.950 . S
C625 C621 1.385 . S
C625 C624 1.374 . S
C626 C623 1.499 . S
C626 C627 1.373 . S
C626 C628 1.389 . S
C627 H606 0.950 . S
C627 C626 1.373 . S
C627 C643 1.377 . S
C628 C626 1.389 . S
C628 C629 1.524 . S
C628 C642 1.377 . S
C629 C628 1.524 . S
C629 C630 1.397 . S
C629 C634 1.363 . S
C630 H607 0.950 . S
C630 C629 1.397 . S
C630 C631 1.334 . S
C631 H608 0.950 . S
C631 C630 1.334 . S
C631 C632 1.287 . S
C632 C631 1.287 . S
C632 C633 1.524 . S
C632 H651 0.913 . S
C633 H609 0.950 . S
C633 C632 1.524 . S
C633 C634 1.415 . S
C634 H610 0.950 . S
C634 C629 1.363 . S
C634 C633 1.415 . S
C635 H611 0.951 . S
C635 C636 1.366 . S
C635 C637 1.388 . S
C636 C635 1.366 . S
C636 C640 1.385 . S
C637 H612 0.951 . S
C637 C635 1.388 . S
C637 C638 1.366 . S
C638 C637 1.366 . S
C638 C639 1.414 . S
C638 C641 1.499 . S
C639 H613 0.950 . S
C639 C638 1.414 . S
C639 C640 1.374 . S
C640 H614 0.950 . S
C640 C636 1.385 . S
C640 C639 1.374 . S
C641 C638 1.499 . S
C641 C642 1.373 . S
C641 C643 1.389 . S
C642 H615 0.950 . S
C642 C628 1.377 . S
C642 C641 1.373 . S
C643 C627 1.377 . S
C643 C641 1.389 . S
C643 C644 1.524 . S
C644 C643 1.524 . S
C644 C645 1.397 . S
C644 C649 1.363 . S
C645 H616 0.950 . S
C645 C644 1.397 . S
C645 C646 1.334 . S
C646 H617 0.950 . S
C646 C645 1.334 . S
C646 C647 1.287 . S
C647 C646 1.287 . S
C647 C648 1.524 . S
C647 H650 0.999 . S
C648 H618 0.950 . S
C648 C647 1.524 . S
C648 C649 1.415 . S
C649 H619 0.950 . S
C649 C644 1.363 . S
C649 C648 1.415 . S
H650 C647 0.999 . S
H651 C632 0.913 . S
H652 C670 0.951 . S
H653 C672 0.951 . S
H654 C674 0.950 . S
H655 C675 0.950 . S
H656 C677 0.950 . S
H657 C680 0.950 . S
H658 C681 0.950 . S
H659 C683 0.950 . S
H660 C684 0.950 . S
H661 C685 0.951 . S
H662 C687 0.951 . S
H663 C689 0.950 . S
H664 C690 0.950 . S
H665 C692 0.950 . S
H666 C695 0.950 . S
H667 C696 0.950 . S
H668 C698 0.950 . S
H669 C699 0.950 . S
C670 H652 0.951 . S
C670 C671 1.366 . S
C670 C672 1.388 . S
C671 C670 1.366 . S
C671 C675 1.385 . S
C672 H653 0.951 . S
C672 C670 1.388 . S
C672 C673 1.366 . S
C673 C672 1.366 . S
C673 C674 1.414 . S
C673 C676 1.499 . S
C674 H654 0.950 . S
C674 C673 1.414 . S
C674 C675 1.374 . S
C675 H655 0.950 . S
C675 C671 1.385 . S
C675 C674 1.374 . S
C676 C673 1.499 . S
C676 C677 1.373 . S
C676 C678 1.389 . S
C677 H656 0.950 . S
C677 C676 1.373 . S
C677 C693 1.377 . S
C678 C676 1.389 . S
C678 C679 1.524 . S
C678 C692 1.377 . S
C679 C678 1.524 . S
C679 C680 1.397 . S
C679 C684 1.363 . S
C680 H657 0.950 . S
C680 C679 1.397 . S
C680 C681 1.334 . S
C681 H658 0.950 . S
C681 C680 1.334 . S
C681 C682 1.287 . S
C682 C681 1.287 . S
C682 C683 1.524 . S
C682 H701 0.913 . S
C683 H659 0.950 . S
C683 C682 1.524 . S
C683 C684 1.415 . S
C684 H660 0.950 . S
C684 C679 1.363 . S
C684 C683 1.415 . S
C685 H661 0.951 . S
C685 C686 1.366 . S
C685 C687 1.388 . S
C686 C685 1.366 . S
C686 C690 1.385 . S
C687 H662 0.951 . S
C687 C685 1.388 . S
C687 C688 1.366 . S
C688 C687 1.366 . S
C688 C689 1.414 . S
C688 C691 1.499 . S
C689 H663 0.950 . S
C689 C688 1.414 . S
C689 C690 1.374 . S
C690 H664 0.950 . S
C690 C686 1.385 . S
C690 C689 1.374 . S
C691 C688 1.499 . S
C691 C692 1.373 . S
C691 C693 1.389 . S
C692 H665 0.950 . S
C692 C678 1.377 . S
C692 C691 1.373 . S
C693 C677 1.377 . S
C693 C691 1.389 . S
C693 C694 1.524 . S
C694 C693 1.524 . S
C694 C695 1.397 . S
C694 C699 1.363 . S
C695 H666 0.950 . S
C695 C694 1.397 . S
C695 C696 1.334 . S
C696 H667 0.950 . S
C696 C695 1.334 . S
C696 C697 1.287 . S
C697 C696 1.287 . S
C697 C698 1.524 . S
C697 H700 0.999 . S
C698 H668 0.950 . S
C698 C697 1.524 . S
C698 C699 1.415 . S
C699 H669 0.950 . S
C699 C694 1.363 . S
C699 C698 1.415 . S
H700 C697 0.999 . S
H701 C682 0.913 . S
H702 C720 0.951 . S
H703 C722 0.951 . S
H704 C724 0.950 . S
H705 C725 0.950 . S
H706 C727 0.950 . S
H707 C730 0.950 . S
H708 C731 0.950 . S
H709 C733 0.950 . S
H710 C734 0.950 . S
H711 C735 0.951 . S
H712 C737 0.951 . S
H713 C739 0.950 . S
H714 C740 0.950 . S
H715 C742 0.950 . S
H716 C745 0.950 . S
H717 C746 0.950 . S
H718 C748 0.950 . S
H719 C749 0.950 . S
C720 H702 0.951 . S
C720 C721 1.366 . S
C720 C722 1.388 . S
C721 C720 1.366 . S
C721 C725 1.385 . S
C722 H703 0.951 . S
C722 C720 1.388 . S
C722 C723 1.366 . S
C723 C722 1.366 . S
C723 C724 1.414 . S
C723 C726 1.499 . S
C724 H704 0.950 . S
C724 C723 1.414 . S
C724 C725 1.374 . S
C725 H705 0.950 . S
C725 C721 1.385 . S
C725 C724 1.374 . S
C726 C723 1.499 . S
C726 C727 1.373 . S
C726 C728 1.389 . S
C727 H706 0.950 . S
C727 C726 1.373 . S
C727 C743 1.377 . S
C728 C726 1.389 . S
C728 C729 1.524 . S
C728 C742 1.377 . S
C729 C728 1.524 . S
C729 C730 1.397 . S
C729 C734 1.363 . S
C730 H707 0.950 . S
C730 C729 1.397 . S
C730 C731 1.334 . S
C731 H708 0.950 . S
C731 C730 1.334 . S
C731 C732 1.287 . S
C732 C731 1.287 . S
C732 C733 1.524 . S
C732 H751 0.913 . S
C733 H709 0.950 . S
C733 C732 1.524 . S
C733 C734 1.415 . S
C734 H710 0.950 . S
C734 C729 1.363 . S
C734 C733 1.415 . S
C735 H711 0.951 . S
C735 C736 1.366 . S
C735 C737 1.388 . S
C736 C735 1.366 . S
C736 C740 1.385 . S
C737 H712 0.951 . S
C737 C735 1.388 . S
C737 C738 1.366 . S
C738 C737 1.366 . S
C738 C739 1.414 . S
C738 C741 1.499 . S
C739 H713 0.950 . S
C739 C738 1.414 . S
C739 C740 1.374 . S
C740 H714 0.950 . S
C740 C736 1.385 . S
C740 C739 1.374 . S
C741 C738 1.499 . S
C741 C742 1.373 . S
C741 C743 1.389 . S
C742 H715 0.950 . S
C742 C728 1.377 . S
C742 C741 1.373 . S
C743 C727 1.377 . S
C743 C741 1.389 . S
C743 C744 1.524 . S
C744 C743 1.524 . S
C744 C745 1.397 . S
C744 C749 1.363 . S
C745 H716 0.950 . S
C745 C744 1.397 . S
C745 C746 1.334 . S
C746 H717 0.950 . S
C746 C745 1.334 . S
C746 C747 1.287 . S
C747 C746 1.287 . S
C747 C748 1.524 . S
C747 H750 0.999 . S
C748 H718 0.950 . S
C748 C747 1.524 . S
C748 C749 1.415 . S
C749 H719 0.950 . S
C749 C744 1.363 . S
C749 C748 1.415 . S
H750 C747 0.999 . S
H751 C732 0.913 . S
H752 C770 0.951 . S
H753 C772 0.956 . S
H754 C774 0.950 . S
H755 C775 0.950 . S
H756 C777 0.950 1_455 S
H757 C780 0.950 . S
H758 C781 0.950 . S
H759 C783 0.950 . S
H760 C784 0.950 . S
H761 C785 0.951 . S
H762 C787 0.951 . S
H763 C789 0.950 . S
H764 C790 0.950 . S
H765 C792 0.950 . S
H766 C795 0.950 . S
H767 C796 0.950 . S
H768 C798 0.950 1_455 S
H769 C799 0.950 1_455 S
C770 H752 0.951 . S
C770 C771 1.366 . S
C770 C772 1.385 1_455 S
C771 C770 1.366 . S
C771 C775 1.385 . S
C772 H753 0.956 . S
C772 C770 1.385 1_655 S
C772 C773 1.363 1_655 S
C773 C772 1.363 1_455 S
C773 C774 1.414 . S
C773 C776 1.499 1_455 S
C774 H754 0.950 . S
C774 C773 1.414 . S
C774 C775 1.374 . S
C775 H755 0.950 . S
C775 C771 1.385 . S
C775 C774 1.374 . S
C776 C773 1.499 1_655 S
C776 C777 1.373 . S
C776 C778 1.389 . S
C777 H756 0.950 1_655 S
C777 C776 1.373 . S
C777 C793 1.377 . S
C778 C776 1.389 . S
C778 C779 1.524 . S
C778 C792 1.377 . S
C779 C778 1.524 . S
C779 C780 1.397 1_655 S
C779 C784 1.363 . S
C780 H757 0.950 . S
C780 C779 1.397 1_455 S
C780 C781 1.334 . S
C781 H758 0.950 . S
C781 C780 1.334 . S
C781 C782 1.287 1_455 S
C782 C781 1.287 1_655 S
C782 C783 1.524 . S
C782 H801 0.914 . S
C783 H759 0.950 . S
C783 C782 1.524 . S
C783 C784 1.415 . S
C784 H760 0.950 . S
C784 C779 1.363 . S
C784 C783 1.415 . S
C785 H761 0.951 . S
C785 C786 1.366 . S
C785 C787 1.388 . S
C786 C785 1.366 . S
C786 C790 1.385 . S
C787 H762 0.951 . S
C787 C785 1.388 . S
C787 C788 1.366 . S
C788 C787 1.366 . S
C788 C789 1.414 . S
C788 C791 1.499 . S
C789 H763 0.950 . S
C789 C788 1.414 . S
C789 C790 1.374 . S
C790 H764 0.950 . S
C790 C786 1.385 . S
C790 C789 1.374 . S
C791 C788 1.499 . S
C791 C792 1.373 . S
C791 C793 1.389 . S
C792 H765 0.950 . S
C792 C778 1.377 . S
C792 C791 1.373 . S
C793 C777 1.377 . S
C793 C791 1.389 . S
C793 C794 1.524 . S
C794 C793 1.524 . S
C794 C795 1.397 . S
C794 C799 1.363 . S
C795 H766 0.950 . S
C795 C794 1.397 . S
C795 C796 1.334 . S
C796 H767 0.950 . S
C796 C795 1.334 . S
C796 C797 1.287 . S
C797 C796 1.287 . S
C797 C798 1.524 . S
C797 H800 0.999 . S
C798 H768 0.950 1_655 S
C798 C797 1.524 . S
C798 C799 1.415 . S
C799 H769 0.950 1_655 S
C799 C794 1.363 . S
C799 C798 1.415 . S
H800 C797 0.999 . S
H801 C782 0.914 . S
H802 C820 0.951 . S
H803 C822 0.951 . S
H804 C824 0.950 . S
H805 C825 0.950 . S
H806 C827 0.950 . S
H807 C830 0.950 . S
H808 C831 0.950 . S
H809 C833 0.950 . S
H810 C834 0.950 . S
H811 C835 0.951 . S
H812 C837 0.951 . S
H813 C839 0.950 . S
H814 C840 0.950 . S
H815 C842 0.950 . S
H816 C845 0.950 . S
H817 C846 0.954 . S
H818 C848 0.950 . S
H819 C849 0.950 . S
C820 H802 0.951 . S
C820 C821 1.366 . S
C820 C822 1.388 . S
C821 C820 1.366 . S
C821 C825 1.385 . S
C822 H803 0.951 . S
C822 C820 1.388 . S
C822 C823 1.366 . S
C823 C822 1.366 . S
C823 C824 1.414 . S
C823 C826 1.499 . S
C824 H804 0.950 . S
C824 C823 1.414 . S
C824 C825 1.374 . S
C825 H805 0.950 . S
C825 C821 1.385 . S
C825 C824 1.374 . S
C826 C823 1.499 . S
C826 C827 1.373 . S
C826 C828 1.389 . S
C827 H806 0.950 . S
C827 C826 1.373 . S
C827 C843 1.377 . S
C828 C826 1.389 . S
C828 C829 1.524 . S
C828 C842 1.377 . S
C829 C828 1.524 . S
C829 C830 1.397 . S
C829 C834 1.363 . S
C830 H807 0.950 . S
C830 C829 1.397 . S
C830 C831 1.334 . S
C831 H808 0.950 . S
C831 C830 1.334 . S
C831 C832 1.287 . S
C832 C831 1.287 . S
C832 C833 1.524 . S
C832 H851 0.913 . S
C833 H809 0.950 . S
C833 C832 1.524 . S
C833 C834 1.415 . S
C834 H810 0.950 . S
C834 C829 1.363 . S
C834 C833 1.415 . S
C835 H811 0.951 . S
C835 C836 1.366 . S
C835 C837 1.388 . S
C836 C835 1.366 . S
C836 C840 1.385 . S
C837 H812 0.951 . S
C837 C835 1.388 . S
C837 C838 1.366 . S
C838 C837 1.366 . S
C838 C839 1.414 1_455 S
C838 C841 1.499 1_455 S
C839 H813 0.950 . S
C839 C838 1.414 1_655 S
C839 C840 1.374 1_655 S
C840 H814 0.950 . S
C840 C836 1.385 . S
C840 C839 1.374 1_455 S
C841 C838 1.499 1_655 S
C841 C842 1.373 . S
C841 C843 1.389 . S
C842 H815 0.950 . S
C842 C828 1.377 . S
C842 C841 1.373 . S
C843 C827 1.377 . S
C843 C841 1.389 . S
C843 C844 1.524 1_655 S
C844 C843 1.524 1_455 S
C844 C845 1.397 1_455 S
C844 C849 1.363 . S
C845 H816 0.950 . S
C845 C844 1.397 1_655 S
C845 C846 1.334 1_655 S
C846 H817 0.954 . S
C846 C845 1.334 1_455 S
C846 C847 1.287 . S
C847 C846 1.287 . S
C847 C848 1.524 . S
C847 H850 0.999 . S
C848 H818 0.950 . S
C848 C847 1.524 . S
C848 C849 1.415 . S
C849 H819 0.950 . S
C849 C844 1.363 . S
C849 C848 1.415 . S
H850 C847 0.999 . S
H851 C832 0.913 . S
H852 C870 0.951 . S
H853 C872 0.951 . S
H854 C874 0.950 . S
H855 C875 0.950 . S
H856 C877 0.950 . S
H857 C880 0.950 . S
H858 C881 0.950 . S
H859 C883 0.950 . S
H860 C884 0.950 . S
H861 C885 0.951 . S
H862 C887 0.951 . S
H863 C889 0.950 . S
H864 C890 0.950 . S
H865 C892 0.950 . S
H866 C895 0.950 . S
H867 C896 0.950 . S
H868 C898 0.950 . S
H869 C899 0.950 . S
C870 H852 0.951 . S
C870 C871 1.366 . S
C870 C872 1.388 . S
C871 C870 1.366 . S
C871 C875 1.385 . S
C872 H853 0.951 . S
C872 C870 1.388 . S
C872 C873 1.366 . S
C873 C872 1.366 . S
C873 C874 1.414 . S
C873 C876 1.499 . S
C874 H854 0.950 . S
C874 C873 1.414 . S
C874 C875 1.374 . S
C875 H855 0.950 . S
C875 C871 1.385 . S
C875 C874 1.374 . S
C876 C873 1.499 . S
C876 C877 1.373 . S
C876 C878 1.389 . S
C877 H856 0.950 . S
C877 C876 1.373 . S
C877 C893 1.377 . S
C878 C876 1.389 . S
C878 C879 1.524 1_455 S
C878 C892 1.377 1_455 S
C879 C878 1.524 1_655 S
C879 C880 1.397 . S
C879 C884 1.363 . S
C880 H857 0.950 . S
C880 C879 1.397 . S
C880 C881 1.334 . S
C881 H858 0.950 . S
C881 C880 1.334 . S
C881 C882 1.287 . S
C882 C881 1.287 . S
C882 C883 1.524 . S
C882 H901 0.913 . S
C883 H859 0.950 . S
C883 C882 1.524 . S
C883 C884 1.415 . S
C884 H860 0.950 . S
C884 C879 1.363 . S
C884 C883 1.415 . S
C885 H861 0.951 . S
C885 C886 1.366 . S
C885 C887 1.388 . S
C886 C885 1.366 . S
C886 C890 1.385 . S
C887 H862 0.951 . S
C887 C885 1.388 . S
C887 C888 1.366 . S
C888 C887 1.366 . S
C888 C889 1.414 . S
C888 C891 1.499 1_655 S
C889 H863 0.950 . S
C889 C888 1.414 . S
C889 C890 1.374 . S
C890 H864 0.950 . S
C890 C886 1.385 . S
C890 C889 1.374 . S
C891 C888 1.499 1_455 S
C891 C892 1.373 1_455 S
C891 C893 1.389 . S
C892 H865 0.950 . S
C892 C878 1.377 1_655 S
C892 C891 1.373 1_655 S
C893 C877 1.377 . S
C893 C891 1.389 . S
C893 C894 1.524 . S
C894 C893 1.524 . S
C894 C895 1.397 . S
C894 C899 1.363 . S
C895 H866 0.950 . S
C895 C894 1.397 . S
C895 C896 1.334 . S
C896 H867 0.950 . S
C896 C895 1.334 . S
C896 C897 1.287 . S
C897 C896 1.287 . S
C897 C898 1.524 . S
C897 H900 0.999 . S
C898 H868 0.950 . S
C898 C897 1.524 . S
C898 C899 1.415 . S
C899 H869 0.950 . S
C899 C894 1.363 . S
C899 C898 1.415 . S
H900 C897 0.999 . S
H901 C882 0.913 . S
H902 C920 0.951 . S
H903 C922 0.951 . S
H904 C924 0.950 . S
H905 C925 0.950 . S
H906 C927 0.950 . S
H907 C930 0.950 . S
H908 C931 0.950 . S
H909 C933 0.950 . S
H910 C934 0.950 . S
H911 C935 0.951 . S
H912 C937 0.951 . S
H913 C939 0.950 . S
H914 C940 0.950 . S
H915 C942 0.950 . S
H916 C945 0.950 1_455 S
H917 C946 0.950 . S
H918 C948 0.950 . S
H919 C949 0.950 . S
C920 H902 0.951 . S
C920 C921 1.366 . S
C920 C922 1.388 . S
C921 C920 1.366 . S
C921 C925 1.385 . S
C922 H903 0.951 . S
C922 C920 1.388 . S
C922 C923 1.366 . S
C923 C922 1.366 . S
C923 C924 1.414 . S
C923 C926 1.499 . S
C924 H904 0.950 . S
C924 C923 1.414 . S
C924 C925 1.374 . S
C925 H905 0.950 . S
C925 C921 1.385 . S
C925 C924 1.374 . S
C926 C923 1.499 . S
C926 C927 1.373 . S
C926 C928 1.389 . S
C927 H906 0.950 . S
C927 C926 1.373 . S
C927 C943 1.377 . S
C928 C926 1.389 . S
C928 C929 1.524 . S
C928 C942 1.377 . S
C929 C928 1.524 . S
C929 C930 1.397 . S
C929 C934 1.363 . S
C930 H907 0.950 . S
C930 C929 1.397 . S
C930 C931 1.334 . S
C931 H908 0.950 . S
C931 C930 1.334 . S
C931 C932 1.287 . S
C932 C931 1.287 . S
C932 C933 1.524 . S
C932 H951 0.913 . S
C933 H909 0.950 . S
C933 C932 1.524 . S
C933 C934 1.415 . S
C934 H910 0.950 . S
C934 C929 1.363 . S
C934 C933 1.415 . S
C935 H911 0.951 . S
C935 C936 1.366 . S
C935 C937 1.388 . S
C936 C935 1.366 . S
C936 C940 1.385 . S
C937 H912 0.951 . S
C937 C935 1.388 . S
C937 C938 1.366 . S
C938 C937 1.366 . S
C938 C939 1.414 1_655 S
C938 C941 1.499 1_655 S
C939 H913 0.950 . S
C939 C938 1.414 1_455 S
C939 C940 1.374 1_455 S
C940 H914 0.950 . S
C940 C936 1.385 . S
C940 C939 1.374 1_655 S
C941 C938 1.499 1_455 S
C941 C942 1.373 . S
C941 C943 1.389 . S
C942 H915 0.950 . S
C942 C928 1.377 . S
C942 C941 1.373 . S
C943 C927 1.377 . S
C943 C941 1.389 . S
C943 C944 1.524 1_455 S
C944 C943 1.524 1_655 S
C944 C945 1.397 . S
C944 C949 1.363 . S
C945 H916 0.950 1_655 S
C945 C944 1.397 . S
C945 C946 1.334 . S
C946 H917 0.950 . S
C946 C945 1.334 . S
C946 C947 1.287 . S
C947 C946 1.287 . S
C947 C948 1.524 . S
C947 H950 0.999 . S
C948 H918 0.950 . S
C948 C947 1.524 . S
C948 C949 1.415 . S
C949 H919 0.950 . S
C949 C944 1.363 . S
C949 C948 1.415 . S
H950 C947 0.999 . S
H951 C932 0.913 . S
C171 C26 1.852 . S
C186 C2 1.852 1_655 S
C221 C64 1.852 1_455 S
C236 C40 1.852 . S
C271 C102 1.852 . S
C286 C78 1.852 1_655 S
C321 C140 1.852 1_455 S
C336 C116 1.852 . S
C371 C57 1.580 . S
C386 C20 1.577 . S
C421 C133 1.577 . S
C436 C96 1.577 . S
C471 C19 1.580 . S
C486 C58 1.577 . S
C521 C134 1.577 . S
C536 C95 1.577 . S
C571 C118 1.086 . S
C586 C17 1.120 . S
C621 C42 1.084 . S
C636 C93 1.121 . S
C671 C99 1.084 . S
C686 C66 1.121 . S
C721 C23 1.084 . S
C736 C142 1.120 . S
C771 C80 1.085 . S
C786 C55 1.120 . S
C821 C131 1.120 . S
C836 C4 1.085 . S
C871 C28 1.120 . S
C886 C137 1.086 . S
C921 C104 1.121 . S
C936 C61 1.085 . S
