# Generated by pormake.
# Topology wib, (6)-cn, num edge types: 1
# Building blocks:
#     Node 0, Type 0, BuildingBlock: IZENUY_clean_sbu_0, # of connection points: 6
#     Node 1, Type 0, BuildingBlock: IZENUY_clean_sbu_0, # of connection points: 6
#     Node 2, Type 0, BuildingBlock: IZENUY_clean_sbu_0, # of connection points: 6
#     Node 3, Type 0, BuildingBlock: IZENUY_clean_sbu_0, # of connection points: 6
#     Node 4, Type 0, BuildingBlock: IZENUY_clean_sbu_0, # of connection points: 6
#     Node 5, Type 0, BuildingBlock: IZENUY_clean_sbu_0, # of connection points: 6
#     Node 6, Type 0, BuildingBlock: IZENUY_clean_sbu_0, # of connection points: 6
#     Node 7, Type 0, BuildingBlock: IZENUY_clean_sbu_0, # of connection points: 6
#     Node 8, Type 0, BuildingBlock: IZENUY_clean_sbu_0, # of connection points: 6
#     Node 9, Type 0, BuildingBlock: IZENUY_clean_sbu_0, # of connection points: 6
#     Node 10, Type 0, BuildingBlock: IZENUY_clean_sbu_0, # of connection points: 6
#     Node 11, Type 0, BuildingBlock: IZENUY_clean_sbu_0, # of connection points: 6
#     Node 12, Type 0, BuildingBlock: IZENUY_clean_sbu_0, # of connection points: 6
#     Node 13, Type 0, BuildingBlock: IZENUY_clean_sbu_0, # of connection points: 6
#     Node 14, Type 0, BuildingBlock: IZENUY_clean_sbu_0, # of connection points: 6
#     Node 15, Type 0, BuildingBlock: IZENUY_clean_sbu_0, # of connection points: 6
#     Edge 16, Type (0, 0), BuildingBlock: XIVTED_clean_linker_0, # of connection points: 2
#     Edge 17, Type (0, 0), BuildingBlock: XIVTED_clean_linker_0, # of connection points: 2
#     Edge 18, Type (0, 0), BuildingBlock: XIVTED_clean_linker_0, # of connection points: 2
#     Edge 19, Type (0, 0), BuildingBlock: XIVTED_clean_linker_0, # of connection points: 2
#     Edge 20, Type (0, 0), BuildingBlock: XIVTED_clean_linker_0, # of connection points: 2
#     Edge 21, Type (0, 0), BuildingBlock: XIVTED_clean_linker_0, # of connection points: 2
#     Edge 22, Type (0, 0), BuildingBlock: XIVTED_clean_linker_0, # of connection points: 2
#     Edge 23, Type (0, 0), BuildingBlock: XIVTED_clean_linker_0, # of connection points: 2
#     Edge 24, Type (0, 0), BuildingBlock: XIVTED_clean_linker_0, # of connection points: 2
#     Edge 25, Type (0, 0), BuildingBlock: XIVTED_clean_linker_0, # of connection points: 2
#     Edge 26, Type (0, 0), BuildingBlock: XIVTED_clean_linker_0, # of connection points: 2
#     Edge 27, Type (0, 0), BuildingBlock: XIVTED_clean_linker_0, # of connection points: 2
#     Edge 28, Type (0, 0), BuildingBlock: XIVTED_clean_linker_0, # of connection points: 2
#     Edge 29, Type (0, 0), BuildingBlock: XIVTED_clean_linker_0, # of connection points: 2
#     Edge 30, Type (0, 0), BuildingBlock: XIVTED_clean_linker_0, # of connection points: 2
#     Edge 31, Type (0, 0), BuildingBlock: XIVTED_clean_linker_0, # of connection points: 2
#     Edge 32, Type (0, 0), BuildingBlock: XIVTED_clean_linker_0, # of connection points: 2
#     Edge 33, Type (0, 0), BuildingBlock: XIVTED_clean_linker_0, # of connection points: 2
#     Edge 34, Type (0, 0), BuildingBlock: XIVTED_clean_linker_0, # of connection points: 2
#     Edge 35, Type (0, 0), BuildingBlock: XIVTED_clean_linker_0, # of connection points: 2
#     Edge 36, Type (0, 0), BuildingBlock: XIVTED_clean_linker_0, # of connection points: 2
#     Edge 37, Type (0, 0), BuildingBlock: XIVTED_clean_linker_0, # of connection points: 2
#     Edge 38, Type (0, 0), BuildingBlock: XIVTED_clean_linker_0, # of connection points: 2
#     Edge 39, Type (0, 0), BuildingBlock: XIVTED_clean_linker_0, # of connection points: 2
#     Edge 40, Type (0, 0), BuildingBlock: XIVTED_clean_linker_0, # of connection points: 2
#     Edge 41, Type (0, 0), BuildingBlock: XIVTED_clean_linker_0, # of connection points: 2
#     Edge 42, Type (0, 0), BuildingBlock: XIVTED_clean_linker_0, # of connection points: 2
#     Edge 43, Type (0, 0), BuildingBlock: XIVTED_clean_linker_0, # of connection points: 2
#     Edge 44, Type (0, 0), BuildingBlock: XIVTED_clean_linker_0, # of connection points: 2
#     Edge 45, Type (0, 0), BuildingBlock: XIVTED_clean_linker_0, # of connection points: 2
#     Edge 46, Type (0, 0), BuildingBlock: XIVTED_clean_linker_0, # of connection points: 2
#     Edge 47, Type (0, 0), BuildingBlock: XIVTED_clean_linker_0, # of connection points: 2
#     Edge 48, Type (0, 0), BuildingBlock: XIVTED_clean_linker_0, # of connection points: 2
#     Edge 49, Type (0, 0), BuildingBlock: XIVTED_clean_linker_0, # of connection points: 2
#     Edge 50, Type (0, 0), BuildingBlock: XIVTED_clean_linker_0, # of connection points: 2
#     Edge 51, Type (0, 0), BuildingBlock: XIVTED_clean_linker_0, # of connection points: 2
#     Edge 52, Type (0, 0), BuildingBlock: XIVTED_clean_linker_0, # of connection points: 2
#     Edge 53, Type (0, 0), BuildingBlock: XIVTED_clean_linker_0, # of connection points: 2
#     Edge 54, Type (0, 0), BuildingBlock: XIVTED_clean_linker_0, # of connection points: 2
#     Edge 55, Type (0, 0), BuildingBlock: XIVTED_clean_linker_0, # of connection points: 2
#     Edge 56, Type (0, 0), BuildingBlock: XIVTED_clean_linker_0, # of connection points: 2
#     Edge 57, Type (0, 0), BuildingBlock: XIVTED_clean_linker_0, # of connection points: 2
#     Edge 58, Type (0, 0), BuildingBlock: XIVTED_clean_linker_0, # of connection points: 2
#     Edge 59, Type (0, 0), BuildingBlock: XIVTED_clean_linker_0, # of connection points: 2
#     Edge 60, Type (0, 0), BuildingBlock: XIVTED_clean_linker_0, # of connection points: 2
#     Edge 61, Type (0, 0), BuildingBlock: XIVTED_clean_linker_0, # of connection points: 2
#     Edge 62, Type (0, 0), BuildingBlock: XIVTED_clean_linker_0, # of connection points: 2
#     Edge 63, Type (0, 0), BuildingBlock: XIVTED_clean_linker_0, # of connection points: 2
# Relax obj value: 0.444
# Max RMSD: 0.268
# Mean RMSD: 0.268
data_MOF--net-wib--node1-IZENUY_clean_sbu_0--edge1-XIVTED_clean_linker_0
_symmetry_space_group_name_H-M    P1
_symmetry_Int_Tables_number       1
_symmetry_cell_setting            triclinic
loop_
_symmetry_equiv_pos_as_xyz
'x, y, z'
_cell_length_a     30.368357
_cell_length_b     30.416369
_cell_length_c     57.16259
_cell_angle_alpha  90.158979
_cell_angle_beta   90.194459
_cell_angle_gamma 90.013409
loop_
_atom_site_label
_atom_site_type_symbol
_atom_site_fract_x
_atom_site_fract_y
_atom_site_fract_z
_atom_type_partial_charge
Fe0 Fe 0.07218 0.5807 0.28021 0.0
Fe1 Fe 0.12037 0.49314 0.28905 0.0
O2 O 0.11218 0.54966 0.2958 0.0
Fe3 Fe 0.14547 0.57621 0.31704 0.0
O4 O 0.14491 0.62947 0.30281 0.0
O5 O 0.11369 0.61757 0.26867 0.0
O6 O 0.07679 0.54991 0.25258 0.0
C7 C 0.11073 0.5309 0.24483 0.0
C8 C 0.06689 0.61518 0.32664 0.0
O9 O 0.13317 0.50702 0.25848 0.0
C10 C 0.13401 0.49058 0.33676 0.0
O11 O 0.02862 0.546 0.29077 0.0
O12 O 0.06078 0.48283 0.28254 0.0
O13 O 0.09795 0.5918 0.3347 0.0
O14 O 0.06002 0.61751 0.3048 0.0
C15 C 0.20727 0.5259 0.29412 0.0
O16 O 0.11111 0.47565 0.31974 0.0
O17 O 0.15276 0.52758 0.33523 0.0
C18 C 0.02641 0.50516 0.28747 0.0
O19 O 0.1805 0.49389 0.29395 0.0
O20 O 0.19501 0.56374 0.30053 0.0
C21 C 0.13888 0.63948 0.2817 0.0
Fe22 Fe 0.26723 0.36968 0.53638 0.0
Fe23 Fe 0.20133 0.40097 0.57353 0.0
O24 O 0.21376 0.3688 0.54863 0.0
Fe25 Fe 0.17224 0.33563 0.53612 0.0
O26 O 0.17507 0.36484 0.50888 0.0
O27 O 0.24721 0.36248 0.50528 0.0
O28 O 0.26331 0.42839 0.53094 0.0
C29 C 0.25489 0.45731 0.54618 0.0
C30 C 0.24651 0.28149 0.53365 0.0
O31 O 0.23983 0.44621 0.56603 0.0
C32 C 0.15197 0.32189 0.58132 0.0
O33 O 0.29575 0.37954 0.5654 0.0
O34 O 0.24184 0.37242 0.59071 0.0
O35 O 0.20965 0.2933 0.52567 0.0
O36 O 0.27394 0.3099 0.54099 0.0
C37 C 0.12759 0.41312 0.54816 0.0
O38 O 0.15938 0.3624 0.58531 0.0
O39 O 0.16664 0.30447 0.56291 0.0
C40 C 0.28235 0.37487 0.5865 0.0
O41 O 0.16034 0.43111 0.55764 0.0
O42 O 0.12711 0.37236 0.54392 0.0
C43 C 0.20887 0.36903 0.49642 0.0
Fe44 Fe 0.38577 0.51946 0.78888 0.0
Fe45 Fe 0.35926 0.44947 0.82468 0.0
O46 O 0.38847 0.46474 0.79937 0.0
Fe47 Fe 0.42005 0.42476 0.78464 0.0
O48 O 0.38754 0.43086 0.75866 0.0
O49 O 0.3895 0.50312 0.75693 0.0
O50 O 0.32615 0.51586 0.78514 0.0
C51 C 0.29939 0.50557 0.80109 0.0
C52 C 0.47335 0.50081 0.78165 0.0
O53 O 0.31353 0.48878 0.82 0.0
C54 C 0.43843 0.39838 0.82841 0.0
O55 O 0.3794 0.54451 0.81918 0.0
O56 O 0.39047 0.48771 0.84204 0.0
O57 O 0.46154 0.46345 0.7742 0.0
O58 O 0.44594 0.52615 0.79161 0.0
C59 C 0.34321 0.37923 0.79722 0.0
O60 O 0.3986 0.40606 0.8338 0.0
O61 O 0.45431 0.41552 0.81023 0.0
C62 C 0.38623 0.52857 0.83967 0.0
O63 O 0.32679 0.41074 0.80843 0.0
O64 O 0.38358 0.37887 0.79189 0.0
C65 C 0.38146 0.46573 0.74737 0.0
Fe66 Fe 0.24375 0.63062 0.04034 0.0
Fe67 Fe 0.32713 0.60545 0.06852 0.0
O68 O 0.30052 0.63812 0.0471 0.0
Fe69 Fe 0.33177 0.67757 0.03121 0.0
O70 O 0.29909 0.67477 1.00417 0.0
O71 O 0.25763 0.61749 1.00964 0.0
O72 O 0.24325 0.57067 0.04504 0.0
C73 C 0.27413 0.54289 0.047 0.0
C74 C 0.25757 0.7245 0.03921 0.0
O75 O 0.31205 0.5546 0.05369 0.0
C76 C 0.36971 0.6831 0.07664 0.0
O77 O 0.226 0.64018 0.07107 0.0
O78 O 0.27952 0.60202 0.08762 0.0
O79 O 0.29844 0.72153 0.04266 0.0
O80 O 0.23464 0.69049 0.03407 0.0
C81 C 0.38797 0.60848 0.03164 0.0
O82 O 0.34567 0.65337 0.08527 0.0
O83 O 0.37102 0.68883 0.05479 0.0
C84 C 0.24236 0.62061 0.08886 0.0
O85 O 0.37909 0.60298 0.05297 0.0
O86 O 0.36692 0.63511 1.01901 0.0
C87 C 0.28006 0.64128 0.99602 0.0
Fe88 Fe 0.85819 0.4494 0.72887 0.0
Fe89 Fe 0.92166 0.4229 0.7677 0.0
O90 O 0.88854 0.46335 0.75424 0.0
Fe91 Fe 0.8855 0.51726 0.76593 0.0
O92 O 0.8262 0.51256 0.77012 0.0
O93 O 0.81218 0.48776 0.73483 0.0
O94 O 0.82718 0.40922 0.74468 0.0
C95 C 0.84456 0.37722 0.75504 0.0
C96 C 0.88368 0.5299 0.71551 0.0
O97 O 0.88516 0.37706 0.76006 0.0
C98 C 0.97393 0.49969 0.77185 0.0
O99 O 0.89742 0.40697 0.71841 0.0
O100 O 0.95426 0.41587 0.74141 0.0
O101 O 0.87737 0.54413 0.73639 0.0
O102 O 0.88786 0.48929 0.71191 0.0
C103 C 0.88565 0.46093 0.80652 0.0
O104 O 0.96339 0.46141 0.77827 0.0
O105 O 0.94548 0.52523 0.76286 0.0
C106 C 0.93755 0.39928 0.72322 0.0
O107 O 0.89133 0.42676 0.7945 0.0
O108 O 0.89083 0.49898 0.79732 0.0
C109 C 0.79883 0.50336 0.75417 0.0
Fe110 Fe 0.82305 0.66651 0.51703 0.0
Fe111 Fe 0.72788 0.63329 0.51579 0.0
O112 O 0.78155 0.63431 0.50386 0.0
Fe113 Fe 0.79465 0.60251 0.47892 0.0
O114 O 0.83454 0.57152 0.49522 0.0
O115 O 0.868 0.62984 0.50903 0.0
O116 O 0.81935 0.63564 0.54367 0.0
C117 C 0.78532 0.63047 0.55583 0.0
C118 C 0.84458 0.68178 0.47222 0.0
O119 O 0.74722 0.63898 0.54718 0.0
C120 C 0.71428 0.62953 0.46541 0.0
O121 O 0.7858 0.70848 0.52801 0.0
O122 O 0.72157 0.69328 0.51213 0.0
O123 O 0.83726 0.64129 0.46792 0.0
O124 O 0.82949 0.69884 0.49066 0.0
C125 C 0.74002 0.54582 0.50528 0.0
O126 O 0.70018 0.62482 0.48639 0.0
O127 O 0.75495 0.63173 0.46152 0.0
C128 C 0.74821 0.72067 0.52119 0.0
O129 O 0.73128 0.5744 0.5206 0.0
O130 O 0.75556 0.55733 0.48561 0.0
C131 C 0.86637 0.58884 0.50584 0.0
Fe132 Fe 0.61776 0.48293 0.26275 0.0
Fe133 Fe 0.6504 0.55242 0.22797 0.0
O134 O 0.61743 0.53755 0.25207 0.0
Fe135 Fe 0.58455 0.57813 0.26543 0.0
O136 O 0.61325 0.57197 0.29263 0.0
O137 O 0.6108 0.4997 0.29447 0.0
O138 O 0.67683 0.48545 0.26843 0.0
C139 C 0.70569 0.4948 0.25339 0.0
C140 C 0.5297 0.50415 0.26556 0.0
O141 O 0.69445 0.51194 0.23407 0.0
C142 C 0.57242 0.60371 0.22087 0.0
O143 O 0.62667 0.45779 0.23275 0.0
O144 O 0.62091 0.51496 0.20937 0.0
O145 O 0.54133 0.54043 0.2743 0.0
O146 O 0.55806 0.47727 0.25785 0.0
C147 C 0.66383 0.62089 0.25718 0.0
O148 O 0.61316 0.59668 0.21741 0.0
O149 O 0.55408 0.58728 0.23854 0.0
C150 C 0.62221 0.47392 0.21212 0.0
O151 O 0.68133 0.59016 0.2458 0.0
O152 O 0.62256 0.62305 0.25945 0.0
C153 C 0.61825 0.53715 0.30411 0.0
Fe154 Fe 0.67309 0.32151 1.02095 0.0
Fe155 Fe 0.76047 0.37018 1.0128 0.0
O156 O 0.70378 0.36255 1.00599 0.0
Fe157 Fe 0.67684 0.39669 0.98536 0.0
O158 O 0.62449 0.39668 1.0006 0.0
O159 O 0.63691 0.36231 0.03386 0.0
O160 O 0.70538 0.32345 0.04818 0.0
C161 C 0.7243 0.3567 0.05677 0.0
C162 C 0.63578 0.31918 0.97519 0.0
O163 O 0.7467 0.38124 0.04357 0.0
C164 C 0.7623 0.38543 0.96513 0.0
O165 O 0.7073 0.27888 1.00881 0.0
O166 O 0.77046 0.31022 1.01816 0.0
O167 O 0.6595 0.34999 0.96736 0.0
O168 O 0.63457 0.31129 0.99687 0.0
C169 C 0.72892 0.45796 1.00809 0.0
O170 O 0.77784 0.36263 0.98196 0.0
O171 O 0.72481 0.40324 0.9667 0.0
C172 C 0.74811 0.2762 1.01246 0.0
O173 O 0.7602 0.43042 1.0091 0.0
O174 O 0.69084 0.44621 1.00166 0.0
C175 C 0.61528 0.3892 1.02171 0.0
Fe176 Fe 0.61677 0.97998 0.78614 0.0
Fe177 Fe 0.64619 0.05116 0.82088 0.0
O178 O 0.61421 0.03491 0.7964 0.0
Fe179 Fe 0.58046 0.07437 0.78238 0.0
O180 O 0.60838 0.06768 0.75498 0.0
O181 O 0.6109 0.9952 0.75441 0.0
O182 O 0.67598 0.98391 0.7813 0.0
C183 C 0.7039 0.99425 0.79673 0.0
C184 C 0.52801 0.99725 0.7807 0.0
O185 O 0.69125 0.01153 0.81575 0.0
C186 C 0.56796 0.10267 0.82646 0.0
O187 O 0.62519 0.95614 0.81638 0.0
O188 O 0.61707 0.01357 0.83957 0.0
O189 O 0.53773 0.03542 0.77378 0.0
O190 O 0.55692 0.97233 0.78973 0.0
C191 C 0.65937 0.1191 0.79142 0.0
O192 O 0.60836 0.0953 0.83058 0.0
O193 O 0.54985 0.08455 0.80909 0.0
C194 C 0.61976 0.97251 0.8369 0.0
O195 O 0.67676 0.0888 0.80315 0.0
O196 O 0.61823 0.12018 0.78788 0.0
C197 C 0.61467 0.03234 0.74409 0.0
Fe198 Fe 0.67597 0.83547 0.03696 0.0
Fe199 Fe 0.77089 0.86934 0.03786 0.0
O200 O 0.71747 0.86773 0.05007 0.0
Fe201 Fe 0.70461 0.89901 0.07525 0.0
O202 O 0.66445 0.93012 0.05921 0.0
O203 O 0.63097 0.8719 0.04529 0.0
O204 O 0.67902 0.8666 1.01038 0.0
C205 C 0.71274 0.87215 0.99803 0.0
C206 C 0.65498 0.81949 0.08173 0.0
O207 O 0.75106 0.86406 1.00653 0.0
C208 C 0.78532 0.872 0.08821 0.0
O209 O 0.71326 0.79378 1.02567 0.0
O210 O 0.77773 0.80935 0.04117 0.0
O211 O 0.66219 0.85993 0.08619 0.0
O212 O 0.6702 0.80278 0.06324 0.0
C213 C 0.75867 0.9565 0.04903 0.0
O214 O 0.79898 0.87732 0.06718 0.0
O215 O 0.74473 0.86964 0.09235 0.0
C216 C 0.75113 0.78185 0.03218 0.0
O217 O 0.76706 0.92834 0.03342 0.0
O218 O 0.74347 0.94442 0.06867 0.0
C219 C 0.63268 0.9129 0.04849 0.0
Fe220 Fe 0.88608 0.01713 0.29015 0.0
Fe221 Fe 0.85617 0.94999 0.32684 0.0
O222 O 0.88766 0.96333 0.30199 0.0
Fe223 Fe 0.92083 0.92245 0.28914 0.0
O224 O 0.89061 0.92602 0.26222 0.0
O225 O 0.89281 0.99803 0.25878 0.0
O226 O 0.82705 0.01302 0.28491 0.0
C227 C 0.79866 0.0041 0.30028 0.0
C228 C 0.97432 0.99727 0.28699 0.0
O229 O 0.81058 0.9885 0.31991 0.0
C230 C 0.9356 0.90063 0.33405 0.0
O231 O 0.87687 0.04472 0.31954 0.0
O232 O 0.8854 0.98989 0.34403 0.0
O233 O 0.96282 0.96043 0.27887 0.0
O234 O 0.94581 0.02411 0.29463 0.0
C235 C 0.84379 0.87684 0.3012 0.0
O236 O 0.89513 0.90794 0.33816 0.0
O237 O 0.95275 0.91601 0.31578 0.0
C238 C 0.88211 0.0305 0.3405 0.0
O239 O 0.82567 0.90933 0.31078 0.0
O240 O 0.88446 0.87692 0.29669 0.0
C241 C 0.88536 0.95988 0.24995 0.0
Fe242 Fe 0.7423 0.13173 0.54034 0.0
Fe243 Fe 0.82799 0.10601 0.56614 0.0
O244 O 0.79941 0.13982 0.54602 0.0
Fe245 Fe 0.82883 0.18094 0.53039 0.0
O246 O 0.79475 0.17857 0.50382 0.0
O247 O 0.75425 0.12053 0.50931 0.0
O248 O 0.74322 0.07163 0.54412 0.0
C249 C 0.7747 0.0443 0.54448 0.0
C250 C 0.75408 0.22581 0.54019 0.0
O251 O 0.81311 0.0562 0.55023 0.0
C252 C 0.86871 0.18417 0.57544 0.0
O253 O 0.72677 0.13918 0.57155 0.0
O254 O 0.78155 0.09963 0.58573 0.0
O255 O 0.79512 0.22343 0.54306 0.0
O256 O 0.73157 0.19157 0.53506 0.0
C257 C 0.88696 0.11351 0.52863 0.0
O258 O 0.84617 0.15293 0.58372 0.0
O259 O 0.8688 0.19172 0.55372 0.0
C260 C 0.74429 0.11747 0.58829 0.0
O261 O 0.87925 0.10619 0.54992 0.0
O262 O 0.86444 0.14027 0.51686 0.0
C263 C 0.77582 0.14499 0.49566 0.0
Fe264 Fe 0.35801 0.92719 0.23386 0.0
Fe265 Fe 0.43004 0.92143 0.27133 0.0
O266 O 0.39112 0.95316 0.25538 0.0
Fe267 Fe 0.38378 0.00981 0.26205 0.0
O268 O 0.32376 0.01015 0.25659 0.0
O269 O 0.30813 0.94056 0.24994 0.0
O270 O 0.35722 0.87395 0.24807 0.0
C271 C 0.36229 0.86391 0.26924 0.0
C272 C 0.37181 0.01247 0.21422 0.0
O273 O 0.38748 0.88534 0.2825 0.0
C274 C 0.47752 0.99606 0.26458 0.0
O275 O 0.40586 0.91077 0.21661 0.0
O276 O 0.44233 0.88443 0.24688 0.0
O277 O 0.39443 0.02699 0.23145 0.0
O278 O 0.35214 0.97594 0.21561 0.0
C279 C 0.39135 0.97197 0.30632 0.0
O280 O 0.47462 0.9553 0.26118 0.0
O281 O 0.44337 0.01904 0.26913 0.0
C282 C 0.43641 0.88709 0.22498 0.0
O283 O 0.42516 0.95236 0.29887 0.0
O284 O 0.36973 0.99624 0.2925 0.0
C285 C 0.29638 0.97865 0.25623 0.0
Fe286 Fe 0.33175 0.16666 1.01452 0.0
Fe287 Fe 0.2372 0.13138 1.01409 0.0
O288 O 0.29036 0.13391 1.00155 0.0
Fe289 Fe 0.30262 0.10361 0.97596 0.0
O290 O 0.34454 0.07303 0.99091 0.0
O291 O 0.37724 0.13116 1.00568 0.0
O292 O 0.32981 0.13536 0.04117 0.0
C293 C 0.29627 0.13012 0.05374 0.0
C294 C 0.35111 0.18386 0.96956 0.0
O295 O 0.25774 0.13672 0.04516 0.0
C296 C 0.22089 0.12874 0.96398 0.0
O297 O 0.29404 0.20769 0.02615 0.0
O298 O 0.22942 0.19137 1.011 0.0
O299 O 0.34361 0.14368 0.96471 0.0
O300 O 0.33652 0.19991 0.98836 0.0
C301 C 0.25046 0.04461 1.00257 0.0
O302 O 0.2081 0.12292 0.98509 0.0
O303 O 0.26122 0.13269 0.95965 0.0
C304 C 0.25584 0.21917 1.01993 0.0
O305 O 0.24207 0.07245 1.01834 0.0
O306 O 0.26511 0.05712 0.98286 0.0
C307 C 0.37731 0.09081 1.00046 0.0
Fe308 Fe 0.11636 0.98034 0.76247 0.0
Fe309 Fe 0.14594 0.05192 0.72825 0.0
O310 O 0.11474 0.03556 0.75272 0.0
Fe311 Fe 0.08264 0.07521 0.76744 0.0
O312 O 0.11326 0.06756 0.79393 0.0
O313 O 0.11156 0.99517 0.79458 0.0
O314 O 0.17574 0.98298 0.76708 0.0
C315 C 0.20353 0.9936 0.75174 0.0
C316 C 0.02864 0.99934 0.7688 0.0
O317 O 0.19077 0.01165 0.73291 0.0
C318 C 0.0676 0.104 0.72375 0.0
O319 O 0.12361 0.95689 0.73187 0.0
O320 O 0.11551 0.01518 0.70961 0.0
O321 O 0.04007 0.03656 0.77659 0.0
O322 O 0.05635 0.97426 0.75895 0.0
C323 C 0.16117 0.11947 0.75781 0.0
O324 O 0.10783 0.09646 0.71918 0.0
O325 O 0.05025 0.08613 0.74134 0.0
C326 C 0.11845 0.97406 0.71151 0.0
O327 O 0.17781 0.08894 0.74594 0.0
O328 O 0.12021 0.12086 0.76159 0.0
C329 C 0.1192 0.03212 0.80469 0.0
Fe330 Fe 0.16821 0.82343 0.51927 0.0
Fe331 Fe 0.25556 0.87122 0.50943 0.0
O332 O 0.19867 0.86308 0.5032 0.0
Fe333 Fe 0.17123 0.89579 0.48218 0.0
O334 O 0.11922 0.89692 0.49769 0.0
O335 O 0.1326 0.86546 0.53162 0.0
O336 O 0.20126 0.82715 0.54617 0.0
C337 C 0.2202 0.861 0.55402 0.0
C338 C 0.12991 0.81769 0.47382 0.0
O339 O 0.24244 0.88455 0.54017 0.0
C340 C 0.25564 0.88171 0.46119 0.0
O341 O 0.20192 0.7798 0.50778 0.0
O342 O 0.26552 0.81161 0.51589 0.0
O343 O 0.15333 0.84797 0.46517 0.0
O344 O 0.12904 0.81161 0.49568 0.0
C345 C 0.22365 0.95828 0.5039 0.0
O346 O 0.27225 0.86135 0.47863 0.0
O347 O 0.21873 0.90071 0.46297 0.0
C348 C 0.2429 0.77732 0.51096 0.0
O349 O 0.25535 0.9312 0.50439 0.0
O350 O 0.18557 0.94603 0.49778 0.0
C351 C 0.11076 0.89151 0.51905 0.0
H352 H 0.26633 0.5871 0.27928 0.0
H353 H 0.47939 0.43502 0.28263 0.0
H354 H 0.2548 0.4485 0.29395 0.0
H355 H 0.47088 0.55828 0.24596 0.0
H356 H 0.39844 0.43634 0.28759 0.0
H357 H 0.34317 0.57596 0.26878 0.0
C358 C 0.28002 0.55426 0.28036 0.0
C359 C 0.25406 0.51875 0.28761 0.0
C360 C 0.41438 0.46253 0.27802 0.0
C361 C 0.34264 0.50559 0.27557 0.0
C362 C 0.46039 0.46151 0.275 0.0
C363 C 0.4817 0.49656 0.26382 0.0
C364 C 0.39013 0.49908 0.27001 0.0
C365 C 0.45576 0.53064 0.2547 0.0
C366 C 0.32393 0.54781 0.27419 0.0
C367 C 0.27365 0.47681 0.28842 0.0
N368 N 0.41167 0.5313 0.25822 0.0
N369 N 0.31693 0.47141 0.28269 0.0
H370 H 0.28573 0.7434 0.54916 0.0
H371 H 0.26667 0.49454 0.50309 0.0
H372 H 0.23606 0.70824 0.48098 0.0
H373 H 0.26038 0.52831 0.57637 0.0
H374 H 0.27368 0.57261 0.49363 0.0
H375 H 0.29564 0.6647 0.55797 0.0
C376 C 0.27853 0.71921 0.53574 0.0
C377 C 0.26071 0.73233 0.51416 0.0
C378 C 0.27117 0.56292 0.5118 0.0
C379 C 0.27115 0.64248 0.52423 0.0
C380 C 0.26731 0.51827 0.51726 0.0
C381 C 0.26271 0.50461 0.5406 0.0
C382 C 0.27109 0.5945 0.52977 0.0
C383 C 0.26356 0.5372 0.55813 0.0
C384 C 0.28352 0.67433 0.5409 0.0
C385 C 0.25046 0.69952 0.49769 0.0
N386 N 0.26764 0.58056 0.55237 0.0
N387 N 0.25577 0.65625 0.50305 0.0
H388 H 0.23309 0.49162 0.83268 0.0
H389 H 0.03363 0.54447 0.74396 0.0
H390 H 0.25488 0.53683 0.76218 0.0
H391 H 0.01935 0.48465 0.81174 0.0
H392 H 0.11344 0.55249 0.75156 0.0
H393 H 0.15398 0.49884 0.82653 0.0
C394 C 0.22135 0.50342 0.81592 0.0
C395 C 0.25107 0.51345 0.79793 0.0
C396 C 0.09263 0.53825 0.76489 0.0
C397 C 0.15948 0.52162 0.79063 0.0
C398 C 0.04704 0.53414 0.76064 0.0
C399 C 0.01977 0.51396 0.77726 0.0
C400 C 0.11084 0.52233 0.78596 0.0
C401 C 0.03909 0.50034 0.79841 0.0
C402 C 0.17594 0.5075 0.81239 0.0
C403 C 0.23339 0.52866 0.7766 0.0
N404 N 0.08313 0.50458 0.80207 0.0
N405 N 0.18886 0.53202 0.77349 0.0
H406 H 0.27282 0.26146 0.06035 0.0
H407 H 0.20902 0.50445 1.01991 0.0
H408 H 0.2132 0.28208 0.99275 0.0
H409 H 0.31872 0.47245 0.06485 0.0
H410 H 0.19577 0.42513 1.01381 0.0
H411 H 0.27224 0.34048 0.06725 0.0
C412 C 0.25851 0.28266 0.04715 0.0
C413 C 0.24308 0.26503 1.02591 0.0
C414 C 0.22262 0.43568 1.02501 0.0
C415 C 0.2432 0.35632 0.03358 0.0
C416 C 0.23016 0.48085 0.02857 0.0
C417 C 0.2651 0.49525 0.04294 0.0
C418 C 0.24951 0.40476 0.03637 0.0
C419 C 0.29155 0.46312 0.05358 0.0
C420 C 0.25863 0.32787 0.05102 0.0
C421 C 0.22501 0.29423 1.00944 0.0
N422 N 0.283 0.41965 0.05023 0.0
N423 N 0.22596 0.33865 1.01351 0.0
H424 H 0.51612 0.49008 0.74069 0.0
H425 H 0.75657 0.53336 0.79389 0.0
H426 H 0.5357 0.53979 0.81059 0.0
H427 H 0.73091 0.49164 0.72293 0.0
H428 H 0.67696 0.54144 0.80001 0.0
H429 H 0.59475 0.49724 0.73335 0.0
C430 C 0.53701 0.50337 0.75439 0.0
C431 C 0.51921 0.51454 0.77625 0.0
C432 C 0.68881 0.53091 0.78305 0.0
C433 C 0.61032 0.52168 0.76819 0.0
C434 C 0.73434 0.52628 0.77951 0.0
C435 C 0.75079 0.51162 0.75784 0.0
C436 C 0.65927 0.52075 0.76483 0.0
C437 C 0.72011 0.50289 0.73995 0.0
C438 C 0.58209 0.50723 0.75024 0.0
C439 C 0.54796 0.53132 0.7934 0.0
N440 N 0.67613 0.50735 0.74389 0.0
N441 N 0.59222 0.53383 0.78912 0.0
H442 H 0.70987 0.25954 0.50243 0.0
H443 H 0.7287 0.50836 0.54827 0.0
H444 H 0.76183 0.295 0.57009 0.0
H445 H 0.73499 0.47484 0.47496 0.0
H446 H 0.7223 0.43029 0.55769 0.0
H447 H 0.69958 0.33819 0.49363 0.0
C448 C 0.71749 0.28379 0.51576 0.0
C449 C 0.73606 0.27076 0.53718 0.0
C450 C 0.72466 0.44002 0.53953 0.0
C451 C 0.72517 0.36054 0.52711 0.0
C452 C 0.72816 0.48468 0.53408 0.0
C453 C 0.73255 0.49843 0.51073 0.0
C454 C 0.72488 0.40849 0.52155 0.0
C455 C 0.73192 0.46588 0.49319 0.0
C456 C 0.71229 0.32863 0.51059 0.0
C457 C 0.74684 0.30363 0.55352 0.0
N458 N 0.72816 0.42247 0.49894 0.0
N459 N 0.74128 0.34687 0.54816 0.0
H460 H 0.77458 0.4898 0.22229 0.0
H461 H 0.96013 0.50818 0.31912 0.0
H462 H 0.7454 0.48016 0.2959 0.0
H463 H 0.98953 0.46543 0.24903 0.0
H464 H 0.88154 0.49718 0.31124 0.0
H465 H 0.85312 0.48127 0.23137 0.0
C466 C 0.78458 0.48552 0.24035 0.0
C467 C 0.75314 0.48579 0.25835 0.0
C468 C 0.90512 0.48914 0.29772 0.0
C469 C 0.84335 0.47654 0.26889 0.0
C470 C 0.95002 0.49505 0.30229 0.0
C471 C 0.98142 0.48683 0.28487 0.0
C472 C 0.89118 0.47629 0.27524 0.0
C473 C 0.96646 0.47116 0.26312 0.0
C474 C 0.82948 0.48046 0.2455 0.0
C475 C 0.76828 0.48002 0.28142 0.0
N476 N 0.92238 0.46715 0.25877 0.0
N477 N 0.8122 0.47625 0.28603 0.0
H478 H 0.79529 0.49621 0.03433 0.0
H479 H 0.7335 0.73825 0.99225 0.0
H480 H 0.68329 0.52832 0.99102 0.0
H481 H 0.79306 0.71965 0.06005 0.0
H482 H 0.73293 0.65897 0.98631 0.0
H483 H 0.80949 0.57552 0.0398 0.0
C484 C 0.77378 0.51984 1.02594 0.0
C485 C 0.73796 0.5055 1.0122 0.0
C486 C 0.74677 0.67208 1.00237 0.0
C487 C 0.75469 0.59587 1.01797 0.0
C488 C 0.74754 0.71741 1.0057 0.0
C489 C 0.76323 0.73566 0.02672 0.0
C490 C 0.76184 0.64421 1.02015 0.0
C491 C 0.78101 0.70696 0.04352 0.0
C492 C 0.78189 0.56498 0.02913 0.0
C493 C 0.7111 0.53762 1.00185 0.0
N494 N 0.77943 0.66242 0.03999 0.0
N495 N 0.72025 0.58105 1.00478 0.0
H496 H 0.74559 0.96503 0.75667 0.0
H497 H 0.98617 0.00718 0.80996 0.0
H498 H 0.77197 0.00488 0.82786 0.0
H499 H 0.96645 0.96191 0.73923 0.0
H500 H 0.90769 0.99888 0.81732 0.0
H501 H 0.8252 0.95731 0.75025 0.0
C502 C 0.76798 0.9717 0.77104 0.0
C503 C 0.75179 0.9858 0.79286 0.0
C504 C 0.92027 0.99012 0.80023 0.0
C505 C 0.84316 0.97712 0.78554 0.0
C506 C 0.96526 0.99464 0.79606 0.0
C507 C 0.98293 0.98507 0.77397 0.0
C508 C 0.89204 0.97663 0.78206 0.0
C509 C 0.95423 0.96917 0.75658 0.0
C510 C 0.81348 0.96732 0.76732 0.0
C511 C 0.7826 0.99411 0.81072 0.0
N512 N 0.91004 0.96601 0.76089 0.0
N513 N 0.82651 0.98986 0.80663 0.0
H514 H 0.76224 0.02639 0.08 0.0
H515 H 0.74398 0.20833 0.98159 0.0
H516 H 0.77211 0.99544 1.0065 0.0
H517 H 0.78708 0.24076 0.05137 0.0
H518 H 0.75403 0.13019 0.99038 0.0
H519 H 0.76993 0.1048 0.07048 0.0
C520 C 0.76635 0.03596 0.0619 0.0
C521 C 0.76647 0.00405 0.04405 0.0
C522 C 0.7623 0.15432 1.00365 0.0
C523 C 0.77479 0.09392 0.03302 0.0
C524 C 0.75695 0.19896 0.99854 0.0
C525 C 0.76563 0.23109 1.0156 0.0
C526 C 0.77504 0.14141 0.02627 0.0
C527 C 0.78106 0.21707 0.03755 0.0
C528 C 0.77092 0.08074 0.05649 0.0
C529 C 0.77195 0.01863 1.0209 0.0
N530 N 0.78454 0.17326 0.0424 0.0
N531 N 0.77534 0.06232 1.01607 0.0
H532 H 0.54452 0.9934 0.23335 0.0
H533 H 0.72928 0.00765 0.3313 0.0
H534 H 0.51422 0.03318 0.30381 0.0
H535 H 0.75893 0.01858 0.2578 0.0
H536 H 0.6507 0.01606 0.32206 0.0
H537 H 0.62309 0.0029 0.24184 0.0
C538 C 0.55445 0.00555 0.25041 0.0
C539 C 0.52278 0.01348 0.26773 0.0
C540 C 0.67447 0.01711 0.30799 0.0
C541 C 0.613 0.02223 0.27805 0.0
C542 C 0.71939 0.01213 0.31325 0.0
C543 C 0.75101 0.01233 0.29532 0.0
C544 C 0.66078 0.0215 0.28459 0.0
C545 C 0.73597 0.01833 0.27224 0.0
C546 C 0.59934 0.01059 0.25534 0.0
C547 C 0.53752 0.02779 0.28979 0.0
N548 N 0.6921 0.02212 0.26754 0.0
N549 N 0.58157 0.03099 0.29445 0.0
H550 H 0.76512 0.76443 0.56115 0.0
H551 H 0.70764 0.00677 0.5186 0.0
H552 H 0.70803 0.78309 0.49276 0.0
H553 H 0.82051 0.97349 0.561 0.0
H554 H 0.69248 0.92766 0.51318 0.0
H555 H 0.76721 0.84381 0.56671 0.0
C556 C 0.75189 0.78532 0.5475 0.0
C557 C 0.73648 0.76704 0.52642 0.0
C558 C 0.7205 0.93789 0.52363 0.0
C559 C 0.73958 0.85852 0.53258 0.0
C560 C 0.72916 0.98291 0.52679 0.0
C561 C 0.76546 0.99684 0.54029 0.0
C562 C 0.74761 0.90672 0.5346 0.0
C563 C 0.79232 0.96445 0.55038 0.0
C564 C 0.75355 0.83068 0.55061 0.0
C565 C 0.71979 0.7958 0.50935 0.0
N566 N 0.7826 0.92112 0.54752 0.0
N567 N 0.72217 0.84035 0.51269 0.0
H568 H 0.03371 0.9469 0.30892 0.0
H569 H 0.2499 0.05663 0.25517 0.0
H570 H 0.0242 0.06355 0.26666 0.0
H571 H 0.23613 0.91905 0.27177 0.0
H572 H 0.17202 0.06795 0.26566 0.0
H573 H 0.11306 0.94629 0.30336 0.0
C574 C 0.04858 0.97314 0.29893 0.0
C575 C 0.02232 0.00542 0.28834 0.0
C576 C 0.18622 0.0354 0.267 0.0
C577 C 0.11364 0.00426 0.28127 0.0
C578 C 0.23061 0.02888 0.26109 0.0
C579 C 0.24955 0.98672 0.26246 0.0
C580 C 0.16099 0.99972 0.27488 0.0
C581 C 0.22296 0.952 0.27021 0.0
C582 C 0.09392 0.97249 0.29554 0.0
C583 C 0.04337 0.03842 0.27537 0.0
N584 N 0.18031 0.95934 0.27621 0.0
N585 N 0.08796 0.0368 0.27198 0.0
H586 H 0.24803 0.97478 0.97144 0.0
H587 H 0.25999 0.79227 0.07015 0.0
H588 H 0.23581 0.00533 0.04489 0.0
H589 H 0.22166 0.7602 0.99957 0.0
H590 H 0.2512 0.87049 0.06119 0.0
H591 H 0.23971 0.89633 0.98077 0.0
C592 C 0.24332 0.96512 0.98948 0.0
C593 C 0.24271 0.99695 1.00738 0.0
C594 C 0.24368 0.84644 0.04776 0.0
C595 C 0.23359 0.90701 1.0182 0.0
C596 C 0.24829 0.80176 0.05296 0.0
C597 C 0.24051 0.76969 0.03575 0.0
C598 C 0.23264 0.85948 1.02489 0.0
C599 C 0.22685 0.78385 1.0135 0.0
C600 C 0.23838 0.92031 0.99478 0.0
C601 C 0.23642 0.98223 0.03045 0.0
N602 N 0.22406 0.8277 1.00858 0.0
N603 N 0.23262 0.93854 0.03518 0.0
H604 H 0.48641 0.00142 0.73906 0.0
H605 H 0.24511 0.96307 0.79157 0.0
H606 H 0.46555 0.9618 0.81044 0.0
H607 H 0.27176 0.00457 0.7209 0.0
H608 H 0.3246 0.95458 0.7982 0.0
H609 H 0.40785 0.99333 0.73134 0.0
C610 C 0.46525 0.98997 0.75301 0.0
C611 C 0.48263 0.98192 0.77537 0.0
C612 C 0.31299 0.96513 0.78119 0.0
C613 C 0.39166 0.97398 0.76688 0.0
C614 C 0.26753 0.96995 0.77734 0.0
C615 C 0.25142 0.98471 0.75561 0.0
C616 C 0.34277 0.97508 0.76318 0.0
C617 C 0.28233 0.99326 0.73795 0.0
C618 C 0.42022 0.98569 0.74865 0.0
C619 C 0.45359 0.9677 0.79286 0.0
N620 N 0.32622 0.98851 0.74217 0.0
N621 N 0.4094 0.96472 0.78834 0.0
H622 H 0.31602 0.23101 0.51636 0.0
H623 H 0.16236 0.01871 0.51725 0.0
H624 H 0.19172 0.22216 0.55214 0.0
H625 H 0.30179 0.00536 0.50488 0.0
H626 H 0.17372 0.09558 0.52753 0.0
H627 H 0.31442 0.1502 0.51065 0.0
C628 C 0.28922 0.21202 0.52363 0.0
C629 C 0.254 0.2333 0.53481 0.0
C630 C 0.20202 0.07596 0.52266 0.0
C631 C 0.25118 0.14176 0.52774 0.0
C632 C 0.19545 0.03197 0.51662 0.0
C633 C 0.2311 0.00536 0.51011 0.0
C634 C 0.24454 0.09426 0.52192 0.0
C635 C 0.27333 0.02462 0.50984 0.0
C636 C 0.28805 0.16605 0.52018 0.0
C637 C 0.21955 0.20722 0.54342 0.0
N638 N 0.27887 0.06801 0.51545 0.0
N639 N 0.21878 0.16325 0.53949 0.0
H640 H 0.12933 0.72227 0.29704 0.0
H641 H 0.37118 0.78106 0.2539 0.0
H642 H 0.20435 0.64074 0.25006 0.0
H643 H 0.29577 0.86342 0.3003 0.0
H644 H 0.31178 0.72706 0.25394 0.0
H645 H 0.1883 0.77675 0.2967 0.0
C646 C 0.15755 0.71701 0.2858 0.0
C647 C 0.16227 0.67769 0.27332 0.0
C648 C 0.30849 0.75645 0.26453 0.0
C649 C 0.23052 0.73788 0.27394 0.0
C650 C 0.34273 0.78663 0.26494 0.0
C651 C 0.33809 0.826 0.27737 0.0
C652 C 0.26937 0.76634 0.27641 0.0
C653 C 0.30051 0.83281 0.29089 0.0
C654 C 0.19156 0.74747 0.28603 0.0
C655 C 0.19956 0.67128 0.25952 0.0
N656 N 0.26701 0.80342 0.28977 0.0
N657 N 0.23286 0.70089 0.2605 0.0
H658 H 0.11513 0.50018 0.55712 0.0
H659 H 0.87339 0.4997 0.50317 0.0
H660 H 0.04948 0.38379 0.53081 0.0
H661 H 0.94187 0.61652 0.5267 0.0
H662 H 0.93524 0.45537 0.51651 0.0
H663 H 0.04873 0.5424 0.54949 0.0
C664 C 0.08669 0.48353 0.5498 0.0
C665 C 0.08773 0.43864 0.54436 0.0
C666 C 0.93663 0.49071 0.51875 0.0
C667 C 0.01217 0.48649 0.53557 0.0
C668 C 0.90153 0.51597 0.51105 0.0
C669 C 0.90305 0.56174 0.51354 0.0
C670 C 0.97321 0.51158 0.52889 0.0
C671 C 0.93973 0.58128 0.52421 0.0
C672 C 0.04884 0.50758 0.54548 0.0
C673 C 0.05005 0.4185 0.53506 0.0
N674 N 0.97361 0.55598 0.53142 0.0
N675 N 0.01369 0.44275 0.53082 0.0
H676 H 0.25594 0.36858 0.80633 0.0
H677 H 0.25021 0.12603 0.75393 0.0
H678 H 0.36983 0.30142 0.7784 0.0
H679 H 0.1353 0.19532 0.77905 0.0
H680 H 0.29569 0.18823 0.76548 0.0
H681 H 0.21195 0.30324 0.79888 0.0
C682 C 0.27168 0.34003 0.79867 0.0
C683 C 0.31646 0.34028 0.79287 0.0
C684 C 0.26053 0.18977 0.76848 0.0
C685 C 0.26652 0.26582 0.78433 0.0
C686 C 0.23458 0.15439 0.76185 0.0
C687 C 0.18895 0.15598 0.76527 0.0
C688 C 0.24057 0.2268 0.77853 0.0
C689 C 0.17036 0.19305 0.77592 0.0
C690 C 0.24659 0.30279 0.79444 0.0
C691 C 0.3353 0.30257 0.783 0.0
N692 N 0.19634 0.22726 0.78208 0.0
N693 N 0.31008 0.26672 0.77897 0.0
H694 H 0.53111 0.37438 1.00978 0.0
H695 H 0.4727 0.62209 0.04269 0.0
H696 H 0.6152 0.45818 0.05121 0.0
H697 H 0.3856 0.53707 1.0038 0.0
H698 H 0.52755 0.56352 0.04385 0.0
H699 H 0.4753 0.43209 1.00909 0.0
C700 C 0.53668 0.40428 1.01974 0.0
C701 C 0.57711 0.41178 0.03085 0.0
C702 C 0.4969 0.55787 0.03459 0.0
C703 C 0.51533 0.47856 0.02888 0.0
C704 C 0.46621 0.59162 0.0334 0.0
C705 C 0.42531 0.58416 1.0228 0.0
C706 C 0.48604 0.51648 1.02534 0.0
C707 C 0.41736 0.54398 1.01169 0.0
C708 C 0.50544 0.43757 1.01885 0.0
C709 C 0.58386 0.45125 0.04286 0.0
N710 N 0.44733 0.51115 1.01355 0.0
N711 N 0.55346 0.48371 0.04121 0.0
H712 H 0.87339 0.29746 0.77031 0.0
H713 H 0.63254 0.19411 0.76968 0.0
H714 H 0.75659 0.36709 0.74783 0.0
H715 H 0.74831 0.12675 0.79541 0.0
H716 H 0.67872 0.25573 0.75824 0.0
H717 H 0.82883 0.23211 0.77661 0.0
C718 C 0.83837 0.29896 0.76672 0.0
C719 C 0.81847 0.33764 0.75871 0.0
C720 C 0.69398 0.2274 0.76635 0.0
C721 C 0.76761 0.2634 0.76579 0.0
C722 C 0.66767 0.19231 0.77289 0.0
C723 C 0.68667 0.15574 0.7838 0.0
C724 C 0.73939 0.22568 0.7708 0.0
C725 C 0.73232 0.1547 0.78734 0.0
C726 C 0.81302 0.26168 0.77024 0.0
C727 C 0.77315 0.33786 0.7541 0.0
N728 N 0.7572 0.18943 0.78094 0.0
N729 N 0.74911 0.30119 0.75782 0.0
H730 H 0.87515 0.79735 0.28716 0.0
H731 H 0.63679 0.69029 0.28342 0.0
H732 H 0.75613 0.86438 0.30838 0.0
H733 H 0.75277 0.63007 0.25352 0.0
H734 H 0.68234 0.7495 0.29863 0.0
H735 H 0.83256 0.7308 0.2806 0.0
C736 C 0.84004 0.79802 0.29046 0.0
C737 C 0.81885 0.83643 0.29797 0.0
C738 C 0.6978 0.72327 0.28878 0.0
C739 C 0.77032 0.76077 0.29058 0.0
C740 C 0.67185 0.68963 0.28001 0.0
C741 C 0.69106 0.65596 0.26676 0.0
C742 C 0.74306 0.72313 0.28416 0.0
C743 C 0.73665 0.65598 0.2633 0.0
C744 C 0.81586 0.76003 0.2868 0.0
C745 C 0.77356 0.83547 0.30235 0.0
N746 N 0.7612 0.68947 0.27181 0.0
N747 N 0.75062 0.79813 0.29839 0.0
H748 H 0.6275 0.00224 0.04972 0.0
H749 H 0.39026 0.00417 0.99052 0.0
H750 H 0.55783 0.88577 0.02672 0.0
H751 H 0.45551 0.11999 1.0178 0.0
H752 H 0.45603 0.96145 0.99894 0.0
H753 H 0.5683 0.04728 0.03389 0.0
C754 C 0.5996 0.98619 0.04147 0.0
C755 C 0.597 0.94033 0.03982 0.0
C756 C 0.456 0.99627 1.00295 0.0
C757 C 0.52991 0.99131 1.02156 0.0
C758 C 0.41853 0.02062 0.99816 0.0
C759 C 0.4174 0.0654 1.00385 0.0
C760 C 0.49218 0.01696 1.01359 0.0
C761 C 0.45492 0.08532 1.01346 0.0
C762 C 0.56607 0.01186 0.03231 0.0
C763 C 0.56075 0.92108 0.0286 0.0
N764 N 0.49083 0.06076 1.01825 0.0
N765 N 0.52837 0.94678 1.01996 0.0
H766 H 0.02565 0.87803 0.50872 0.0
H767 H 0.97226 0.12851 0.538 0.0
H768 H 0.11412 0.96344 0.54645 0.0
H769 H 0.88397 0.0431 0.50016 0.0
H770 H 0.02719 0.06997 0.5388 0.0
H771 H 0.97154 0.93725 0.507 0.0
C772 C 0.03257 0.90874 0.51768 0.0
C773 C 0.07369 0.91608 0.52807 0.0
C774 C 0.99628 0.06427 0.52978 0.0
C775 C 0.01381 0.9845 0.52486 0.0
C776 C 0.96553 0.09802 0.52878 0.0
C777 C 0.92416 0.09036 0.51874 0.0
C778 C 0.98501 0.0227 0.52091 0.0
C779 C 0.91601 0.05015 0.50769 0.0
C780 C 0.00232 0.94285 0.51615 0.0
C781 C 0.08219 0.9566 0.53873 0.0
N782 N 0.94597 0.0173 0.50945 0.0
N783 N 0.05267 0.98976 0.53651 0.0
H784 H 0.21343 0.48899 0.3584 0.0
H785 H 0.13324 0.35666 0.47123 0.0
H786 H 0.08406 0.43159 0.36352 0.0
H787 H 0.26569 0.40546 0.46327 0.0
H788 H 0.11621 0.37981 0.43146 0.0
H789 H 0.23393 0.4549 0.39535 0.0
C790 C 0.18925 0.4688 0.36721 0.0
C791 C 0.14665 0.46354 0.35769 0.0
C792 C 0.14912 0.38521 0.43822 0.0
C793 C 0.17031 0.42422 0.40079 0.0
C794 C 0.15909 0.37198 0.46109 0.0
C795 C 0.20119 0.37912 0.47096 0.0
C796 C 0.1812 0.40634 0.42473 0.0
C797 C 0.23294 0.39897 0.45659 0.0
C798 C 0.20116 0.44927 0.38844 0.0
C799 C 0.11722 0.43655 0.37 0.0
N800 N 0.22218 0.41218 0.43437 0.0
N801 N 0.12943 0.41837 0.39099 0.0
H802 H 0.4025 0.51318 0.70654 0.0
H803 H 0.28797 0.32672 0.62609 0.0
H804 H 0.32797 0.40196 0.73114 0.0
H805 H 0.33616 0.44651 0.59549 0.0
H806 H 0.31353 0.35176 0.66431 0.0
H807 H 0.38554 0.49025 0.66573 0.0
C808 C 0.38202 0.48458 0.70346 0.0
C809 C 0.36674 0.45952 0.72247 0.0
C810 C 0.31937 0.37255 0.6493 0.0
C811 C 0.34838 0.43237 0.67593 0.0
C812 C 0.3054 0.35775 0.62731 0.0
C813 C 0.3107 0.38395 0.60737 0.0
C814 C 0.33842 0.41453 0.65182 0.0
C815 C 0.33242 0.42464 0.61026 0.0
C816 C 0.37277 0.47118 0.68016 0.0
C817 C 0.34088 0.42231 0.71724 0.0
N818 N 0.34508 0.43891 0.63208 0.0
N819 N 0.33293 0.40995 0.69477 0.0
H820 H 0.40751 0.50425 0.8841 0.0
H821 H 0.29561 0.69409 0.9578 0.0
H822 H 0.34129 0.6082 0.84673 0.0
H823 H 0.2891 0.55791 0.97806 0.0
H824 H 0.3224 0.67132 0.91891 0.0
H825 H 0.37801 0.53264 0.92068 0.0
C826 C 0.38742 0.53367 0.88351 0.0
C827 C 0.37688 0.55351 0.86193 0.0
C828 C 0.31453 0.64648 0.93178 0.0
C829 C 0.34267 0.58651 0.90454 0.0
C830 C 0.2991 0.65937 0.95397 0.0
C831 C 0.28943 0.62786 0.97126 0.0
C832 C 0.32197 0.60178 0.927 0.0
C833 C 0.2953 0.58338 0.96529 0.0
C834 C 0.37021 0.54958 0.90454 0.0
C835 C 0.35071 0.5918 0.86276 0.0
N836 N 0.31179 0.57182 0.94392 0.0
N837 N 0.33449 0.60703 0.88368 0.0
H838 H 0.1516 0.62363 0.0993 0.0
H839 H 0.1917 0.5133 0.22557 0.0
H840 H 0.27876 0.60181 0.13108 0.0
H841 H 0.06705 0.57331 0.20857 0.0
H842 H 0.2206 0.53783 0.18796 0.0
H843 H 0.11673 0.60094 0.13657 0.0
C844 C 0.17222 0.61485 0.11406 0.0
C845 C 0.2184 0.61457 0.11173 0.0
C846 C 0.18677 0.54547 0.1923 0.0
C847 C 0.17867 0.5873 0.15423 0.0
C848 C 0.17004 0.53099 0.21381 0.0
C849 C 0.12663 0.54086 0.22046 0.0
C850 C 0.16009 0.56991 0.17687 0.0
C851 C 0.10065 0.56467 0.2043 0.0
C852 C 0.15228 0.6015 0.13529 0.0
C853 C 0.24313 0.60225 0.13162 0.0
N854 N 0.11765 0.57828 0.18334 0.0
N855 N 0.22315 0.58888 0.15164 0.0
H856 H 0.84357 0.56902 0.56922 0.0
H857 H 0.81785 0.59212 0.70859 0.0
H858 H 0.74727 0.65729 0.59847 0.0
H859 H 0.92313 0.52487 0.67309 0.0
H860 H 0.7899 0.61779 0.67028 0.0
H861 H 0.86864 0.55079 0.60831 0.0
C862 C 0.82717 0.58425 0.58399 0.0
C863 C 0.79307 0.61474 0.58035 0.0
C864 C 0.81959 0.59814 0.67096 0.0
C865 C 0.82277 0.59437 0.62605 0.0
C866 C 0.83603 0.58406 0.69288 0.0
C867 C 0.87342 0.55668 0.69421 0.0
C868 C 0.84048 0.58445 0.65019 0.0
C869 C 0.89455 0.54616 0.67309 0.0
C870 C 0.84187 0.57404 0.60646 0.0
C871 C 0.77328 0.63324 0.60036 0.0
N872 N 0.87771 0.55964 0.65221 0.0
N873 N 0.78856 0.62295 0.62236 0.0
H874 H 0.59411 0.4915 0.3451 0.0
H875 H 0.71182 0.67646 0.42528 0.0
H876 H 0.67317 0.59951 0.32045 0.0
H877 H 0.65847 0.55933 0.45638 0.0
H878 H 0.68699 0.65103 0.38701 0.0
H879 H 0.61035 0.515 0.38592 0.0
C880 C 0.61541 0.51949 0.34818 0.0
C881 C 0.63217 0.54351 0.32915 0.0
C882 C 0.67985 0.63094 0.40213 0.0
C883 C 0.64981 0.57132 0.37567 0.0
C884 C 0.69344 0.64597 0.42415 0.0
C885 C 0.6865 0.62062 0.44427 0.0
C886 C 0.65949 0.58955 0.39975 0.0
C887 C 0.66354 0.58059 0.44146 0.0
C888 C 0.62427 0.53323 0.37148 0.0
C889 C 0.65909 0.57998 0.33437 0.0
N890 N 0.65125 0.56605 0.41963 0.0
N891 N 0.66666 0.59268 0.35683 0.0
H892 H 0.70392 0.30342 0.09425 0.0
H893 H 0.60042 0.49731 0.16773 0.0
H894 H 0.71979 0.4396 0.07539 0.0
H895 H 0.66364 0.39242 0.20582 0.0
H896 H 0.62837 0.46671 0.13132 0.0
H897 H 0.67737 0.32671 0.13313 0.0
C898 C 0.70249 0.33816 0.09838 0.0
C899 C 0.71464 0.36959 0.08151 0.0
C900 C 0.63577 0.45004 0.14759 0.0
C901 C 0.68258 0.39629 0.12562 0.0
C902 C 0.61947 0.46723 0.1685 0.0
C903 C 0.62984 0.44779 0.19018 0.0
C904 C 0.66215 0.4123 0.14789 0.0
C905 C 0.65452 0.40854 0.18967 0.0
C906 C 0.68725 0.35134 0.12055 0.0
C907 C 0.71151 0.41415 0.08783 0.0
N908 N 0.66997 0.39212 0.16886 0.0
N909 N 0.69517 0.42608 0.10912 0.0
H910 H 0.90332 0.38827 0.83277 0.0
H911 H 0.75923 0.46347 0.94254 0.0
H912 H 0.84371 0.51653 0.83844 0.0
H913 H 0.82543 0.3382 0.9395 0.0
H914 H 0.79382 0.48462 0.90597 0.0
H915 H 0.87949 0.37141 0.87238 0.0
C916 C 0.88546 0.41325 0.8424 0.0
C917 C 0.8754 0.45404 0.83194 0.0
C918 C 0.8012 0.45261 0.91324 0.0
C919 C 0.84746 0.43427 0.87791 0.0
C920 C 0.78134 0.44028 0.93424 0.0
C921 C 0.78891 0.39858 0.94421 0.0
C922 C 0.829 0.4231 0.9016 0.0
C923 C 0.81851 0.37058 0.93261 0.0
C924 C 0.87186 0.4034 0.86515 0.0
C925 C 0.85245 0.48481 0.84562 0.0
N926 N 0.83704 0.38316 0.91182 0.0
N927 N 0.83894 0.47413 0.86774 0.0
H928 H 0.57622 0.97841 0.87812 0.0
H929 H 0.75968 0.85455 0.95653 0.0
H930 H 0.68622 0.9124 0.84624 0.0
H931 H 0.64496 0.92186 0.98274 0.0
H932 H 0.7358 0.87304 0.91615 0.0
H933 H 0.60094 0.95306 0.91636 0.0
C934 C 0.605 0.95743 0.87911 0.0
C935 C 0.62852 0.9469 0.85876 0.0
C936 C 0.71607 0.88377 0.93083 0.0
C937 C 0.65879 0.91889 0.9032 0.0
C938 C 0.72996 0.8736 0.9539 0.0
C939 C 0.70435 0.88647 0.97325 0.0
C940 C 0.67642 0.90711 0.92712 0.0
C941 C 0.66581 0.91073 0.96857 0.0
C942 C 0.6196 0.94334 0.90109 0.0
C943 C 0.66636 0.92043 0.86135 0.0
N944 N 0.65323 0.91998 0.94629 0.0
N945 N 0.68058 0.90772 0.88313 0.0
H946 H 0.7921 0.82212 0.12723 0.0
H947 H 0.89751 0.01161 0.20942 0.0
H948 H 0.83778 0.94408 0.09803 0.0
H949 H 0.8437 0.8881 0.23282 0.0
H950 H 0.88045 0.9894 0.16853 0.0
H951 H 0.81857 0.84545 0.16559 0.0
C952 C 0.80915 0.8533 0.12877 0.0
C953 C 0.81365 0.88053 0.10917 0.0
C954 C 0.87249 0.96734 0.18272 0.0
C955 C 0.84236 0.90919 0.15384 0.0
C956 C 0.88189 0.9802 0.2061 0.0
C957 C 0.87241 0.95173 0.22483 0.0
C958 C 0.85343 0.92578 0.17809 0.0
C959 C 0.85232 0.91124 0.21922 0.0
C960 C 0.82373 0.8671 0.15085 0.0
C961 C 0.83477 0.92141 0.11251 0.0
N962 N 0.84381 0.89971 0.19668 0.0
N963 N 0.8479 0.93472 0.13441 0.0
H964 H 0.78027 0.06155 0.47773 0.0
H965 H 0.8371 0.11053 0.34511 0.0
H966 H 0.79539 0.19718 0.45757 0.0
H967 H 0.90329 0.01054 0.38545 0.0
H968 H 0.80825 0.14191 0.38208 0.0
H969 H 0.80818 0.03908 0.43929 0.0
C970 C 0.78836 0.08665 0.46504 0.0
C971 C 0.78517 0.13137 0.47096 0.0
C972 C 0.82958 0.11341 0.38267 0.0
C973 C 0.81731 0.10569 0.42669 0.0
C974 C 0.84649 0.09579 0.36161 0.0
C975 C 0.87273 0.0576 0.36195 0.0
C976 C 0.83807 0.09202 0.40406 0.0
C977 C 0.88299 0.03968 0.38405 0.0
C978 C 0.80478 0.07379 0.44317 0.0
C979 C 0.79716 0.16234 0.45377 0.0
N980 N 0.86509 0.05638 0.40395 0.0
N981 N 0.8125 0.14899 0.43241 0.0
H982 H 0.77952 0.07623 0.62614 0.0
H983 H 0.57569 0.08621 0.71213 0.0
H984 H 0.65663 0.13284 0.60278 0.0
H985 H 0.68034 0.99148 0.71871 0.0
H986 H 0.6033 0.10652 0.6733 0.0
H987 H 0.74398 0.05065 0.66126 0.0
C988 C 0.74488 0.08364 0.62828 0.0
C989 C 0.72125 0.10687 0.61093 0.0
C990 C 0.61975 0.08073 0.68299 0.0
C991 C 0.67981 0.07691 0.65228 0.0
C992 C 0.60392 0.06887 0.70514 0.0
C993 C 0.62542 0.03663 0.71869 0.0
C994 C 0.65825 0.06113 0.67439 0.0
C995 C 0.66221 0.01587 0.70884 0.0
C996 C 0.72452 0.06852 0.64854 0.0
C997 C 0.67645 0.1153 0.61545 0.0
N998 N 0.67778 0.02893 0.68753 0.0
N999 N 0.65725 0.1005 0.63571 0.0
H1000 H 0.2376 0.09949 0.08748 0.0
H1001 H 0.42511 0.06758 0.18718 0.0
H1002 H 0.37396 0.13492 0.07808 0.0
H1003 H 0.29264 0.0178 0.19254 0.0
H1004 H 0.40518 0.1009 0.14918 0.0
H1005 H 0.25515 0.07708 0.12785 0.0
C1006 C 0.27103 0.103 0.09387 0.0
C1007 C 0.30418 0.11902 0.07907 0.0
C1008 C 0.38038 0.08301 0.15883 0.0
C1009 C 0.32477 0.09334 0.1255 0.0
C1010 C 0.39175 0.06434 0.18065 0.0
C1011 C 0.36069 0.03959 0.19312 0.0
C1012 C 0.33755 0.07725 0.14951 0.0
C1013 C 0.31794 0.03618 0.18351 0.0
C1014 C 0.28117 0.09005 0.11695 0.0
C1015 C 0.3471 0.12251 0.08857 0.0
N1016 N 0.3078 0.05445 0.16245 0.0
N1017 N 0.35606 0.10979 0.11094 0.0
H1018 H 0.2177 0.17349 0.92317 0.0
H1019 H 0.09146 0.99036 0.84606 0.0
H1020 H 0.16428 0.0584 0.95633 0.0
H1021 H 0.18106 0.08839 0.81995 0.0
H1022 H 0.10937 0.01466 0.88654 0.0
H1023 H 0.19192 0.14619 0.88544 0.0
C1024 C 0.19917 0.14305 0.92261 0.0
C1025 C 0.19261 0.11875 0.94314 0.0
C1026 C 0.12538 0.03037 0.87188 0.0
C1027 C 0.16432 0.08565 0.89928 0.0
C1028 C 0.1156 0.01608 0.84879 0.0
C1029 C 0.13493 0.03716 0.82946 0.0
C1030 C 0.15419 0.06625 0.87553 0.0
C1031 C 0.16523 0.07108 0.83417 0.0
C1032 C 0.18504 0.12696 0.90091 0.0
C1033 C 0.1692 0.07882 0.94108 0.0
N1034 N 0.17346 0.08459 0.85644 0.0
N1035 N 0.15627 0.06328 0.91954 0.0
H1036 H 0.15456 0.89014 0.70424 0.0
H1037 H 0.21828 0.94486 0.57194 0.0
H1038 H 0.10599 0.00346 0.66693 0.0
H1039 H 0.19863 0.80989 0.59219 0.0
H1040 H 0.19172 0.96833 0.61051 0.0
H1041 H 0.18191 0.86011 0.66668 0.0
C1042 C 0.14883 0.90835 0.68827 0.0
C1043 C 0.1278 0.94962 0.68906 0.0
C1044 C 0.19371 0.93352 0.60662 0.0
C1045 C 0.16081 0.91628 0.64617 0.0
C1046 C 0.20939 0.92007 0.58465 0.0
C1047 C 0.21107 0.87526 0.57871 0.0
C1048 C 0.18024 0.90208 0.62318 0.0
C1049 C 0.19808 0.84478 0.59596 0.0
C1050 C 0.16487 0.89137 0.66685 0.0
C1051 C 0.12213 0.97176 0.66756 0.0
N1052 N 0.18344 0.85866 0.61737 0.0
N1053 N 0.139 0.95528 0.64733 0.0
H1054 H 0.31069 0.99216 0.3253 0.0
H1055 H 0.34574 0.87408 0.45014 0.0
H1056 H 0.43293 0.92756 0.34249 0.0
H1057 H 0.21983 0.90731 0.4198 0.0
H1058 H 0.38139 0.89712 0.41319 0.0
H1059 H 0.28039 0.96793 0.36266 0.0
C1060 C 0.33153 0.9735 0.33705 0.0
C1061 C 0.37468 0.96227 0.33054 0.0
C1062 C 0.34592 0.89904 0.41471 0.0
C1063 C 0.33959 0.93352 0.37379 0.0
C1064 C 0.32551 0.88554 0.43577 0.0
C1065 C 0.27952 0.88881 0.43841 0.0
C1066 C 0.32022 0.91632 0.39625 0.0
C1067 C 0.25532 0.90444 0.41901 0.0
C1068 C 0.314 0.95921 0.35841 0.0
C1069 C 0.39958 0.93728 0.34666 0.0
N1070 N 0.27579 0.91777 0.39913 0.0
N1071 N 0.38179 0.92381 0.36744 0.0
H1072 H 0.98003 0.63147 0.33388 0.0
H1073 H 0.02396 0.88219 0.33688 0.0
H1074 H 0.10957 0.68194 0.34887 0.0
H1075 H 0.89657 0.82928 0.35452 0.0
H1076 H 0.05685 0.81016 0.34465 0.0
H1077 H 0.9485 0.70261 0.34502 0.0
C1078 C 0.00163 0.65705 0.34049 0.0
C1079 C 0.04733 0.65065 0.34089 0.0
C1080 C 0.02187 0.8146 0.34743 0.0
C1081 C 0.01187 0.73297 0.35237 0.0
C1082 C 0.00308 0.8558 0.34303 0.0
C1083 C 0.95737 0.86187 0.3449 0.0
C1084 C 0.99465 0.77885 0.35316 0.0
C1085 C 0.93194 0.8263 0.35287 0.0
C1086 C 0.98371 0.69781 0.34665 0.0
C1087 C 0.07407 0.68531 0.34883 0.0
N1088 N 0.95073 0.78612 0.35614 0.0
N1089 N 0.05607 0.72533 0.3537 0.0
H1090 H 0.13613 0.23355 0.5856 0.0
H1091 H 0.88335 0.27124 0.58254 0.0
H1092 H 0.07952 0.36023 0.60122 0.0
H1093 H 0.93769 0.14337 0.59686 0.0
H1094 H 0.9539 0.30471 0.59337 0.0
H1095 H 0.06487 0.19917 0.59362 0.0
C1096 C 0.10906 0.254 0.59139 0.0
C1097 C 0.11386 0.29989 0.5926 0.0
C1098 C 0.95013 0.26943 0.5949 0.0
C1099 C 0.03168 0.26086 0.60113 0.0
C1100 C 0.90972 0.2504 0.58889 0.0
C1101 C 0.90455 0.2046 0.5892 0.0
C1102 C 0.9862 0.24235 0.6004 0.0
C1103 C 0.94013 0.17889 0.59686 0.0
C1104 C 0.06829 0.23436 0.59592 0.0
C1105 C 0.0775 0.32475 0.60012 0.0
N1106 N 0.97978 0.198 0.60163 0.0
N1107 N 0.03775 0.30507 0.60353 0.0
H1108 H 0.52635 0.37704 0.82834 0.0
H1109 H 0.48016 0.12426 0.82851 0.0
H1110 H 0.39901 0.32616 0.84772 0.0
H1111 H 0.60937 0.17511 0.84472 0.0
H1112 H 0.4492 0.19747 0.83593 0.0
H1113 H 0.55805 0.30386 0.83474 0.0
C1114 C 0.50528 0.3508 0.83451 0.0
C1115 C 0.45996 0.35792 0.83752 0.0
C1116 C 0.48421 0.19233 0.83835 0.0
C1117 C 0.49574 0.27368 0.8441 0.0
C1118 C 0.50187 0.15051 0.83417 0.0
C1119 C 0.54744 0.14337 0.83599 0.0
C1120 C 0.51241 0.22761 0.84378 0.0
C1121 C 0.57403 0.17885 0.84322 0.0
C1122 C 0.52335 0.30898 0.83809 0.0
C1123 C 0.43416 0.32244 0.84533 0.0
N1124 N 0.55629 0.21955 0.84635 0.0
N1125 N 0.4522 0.28173 0.84785 0.0
H1126 H 0.63795 0.73104 0.084 0.0
H1127 H 0.38495 0.76991 0.08455 0.0
H1128 H 0.58296 0.85701 0.10264 0.0
H1129 H 0.43933 0.64128 0.09669 0.0
H1130 H 0.45627 0.80264 0.0947 0.0
H1131 H 0.5666 0.69672 0.09196 0.0
C1132 C 0.61123 0.75131 0.09041 0.0
C1133 C 0.61655 0.79704 0.09255 0.0
C1134 C 0.45236 0.76733 0.09592 0.0
C1135 C 0.53421 0.7581 0.101 0.0
C1136 C 0.4115 0.74872 0.09033 0.0
C1137 C 0.40605 0.70295 0.09028 0.0
C1138 C 0.48856 0.73986 0.1006 0.0
C1139 C 0.44194 0.67679 0.09708 0.0
C1140 C 0.57041 0.7317 0.0949 0.0
C1141 C 0.58057 0.82166 0.1008 0.0
N1142 N 0.48194 0.69552 0.10144 0.0
N1143 N 0.54074 0.80208 0.10418 0.0
H1144 H 0.9797 0.12542 0.72253 0.0
H1145 H 0.02549 0.37836 0.72173 0.0
H1146 H 0.10801 0.17628 0.705 0.0
H1147 H 0.89706 0.3268 0.70445 0.0
H1148 H 0.05699 0.30519 0.71493 0.0
H1149 H 0.94824 0.19843 0.71533 0.0
C1150 C 1.00109 0.15163 0.71663 0.0
C1151 C 0.04658 0.14455 0.71438 0.0
C1152 C 0.02207 0.31015 0.71211 0.0
C1153 C 0.01099 0.22861 0.70682 0.0
C1154 C 0.0041 0.35197 0.71591 0.0
C1155 C 0.95857 0.35891 0.71362 0.0
C1156 C 0.99417 0.27466 0.70661 0.0
C1157 C 0.93238 0.32323 0.70626 0.0
C1158 C 0.98313 0.19334 0.71257 0.0
C1159 C 0.07274 0.17998 0.70685 0.0
N1160 N 0.95037 0.28253 0.70353 0.0
N1161 N 0.05475 0.2206 0.70384 0.0
H1162 H 0.86185 0.77019 0.46982 0.0
H1163 H 0.11458 0.7309 0.46589 0.0
H1164 H 0.91568 0.64404 0.45054 0.0
H1165 H 0.05981 0.85955 0.45431 0.0
H1166 H 0.04282 0.69822 0.45662 0.0
H1167 H 0.93286 0.80433 0.46085 0.0
C1168 C 0.88823 0.74983 0.46309 0.0
C1169 C 0.88271 0.70411 0.46105 0.0
C1170 C 0.04672 0.73352 0.45532 0.0
C1171 C 0.96467 0.74286 0.4514 0.0
C1172 C 0.08783 0.75211 0.46039 0.0
C1173 C 0.0933 0.79787 0.46038 0.0
C1174 C 0.01034 0.76102 0.45111 0.0
C1175 C 0.05718 0.82405 0.45396 0.0
C1176 C 0.92884 0.76935 0.458 0.0
C1177 C 0.91824 0.67939 0.45234 0.0
N1178 N 0.01697 0.80535 0.45013 0.0
N1179 N 0.95791 0.69888 0.44837 0.0
H1180 H 0.48406 0.62085 0.21668 0.0
H1181 H 0.52359 0.87295 0.21773 0.0
H1182 H 0.61152 0.67582 0.20108 0.0
H1183 H 0.39535 0.81887 0.20321 0.0
H1184 H 0.55684 0.80214 0.20749 0.0
H1185 H 0.45034 0.69207 0.20795 0.0
C1186 C 0.50485 0.64757 0.21083 0.0
C1187 C 0.55076 0.64232 0.20981 0.0
C1188 C 0.52154 0.80604 0.20574 0.0
C1189 C 0.51245 0.72443 0.20037 0.0
C1190 C 0.50264 0.84663 0.21137 0.0
C1191 C 0.45679 0.85193 0.21087 0.0
C1192 C 0.49424 0.76998 0.20046 0.0
C1193 C 0.43092 0.81635 0.2033 0.0
C1194 C 0.48557 0.68829 0.20586 0.0
C1195 C 0.57602 0.67821 0.20212 0.0
N1196 N 0.44989 0.77656 0.19895 0.0
N1197 N 0.55668 0.71795 0.19825 0.0
H1198 H 0.42058 0.14648 0.94634 0.0
H1199 H 0.56786 0.36412 0.95549 0.0
H1200 H 0.37045 0.27213 0.96916 0.0
H1201 H 0.61788 0.23319 0.96601 0.0
H1202 H 0.49546 0.33288 0.94558 0.0
H1203 H 0.49193 0.18088 0.93862 0.0
C1204 C 0.42399 0.1816 0.94897 0.0
C1205 C 0.38938 0.20636 0.95862 0.0
C1206 C 0.52271 0.31097 0.94926 0.0
C1207 C 0.4713 0.24583 0.94987 0.0
C1208 C 0.56417 0.32872 0.95455 0.0
C1209 C 0.59903 0.30108 0.96118 0.0
C1210 C 0.5163 0.26526 0.95038 0.0
C1211 C 0.592 0.25551 0.96062 0.0
C1212 C 0.46494 0.20109 0.94475 0.0
C1213 C 0.39621 0.2517 0.96188 0.0
N1214 N 0.5514 0.23901 0.9555 0.0
N1215 N 0.43646 0.26987 0.95775 0.0
loop_
_geom_bond_atom_site_label_1
_geom_bond_atom_site_label_2
_geom_bond_distance
_geom_bond_site_symmetry_2
_ccdc_geom_bond_type
Fe0 O2 1.918 . S
Fe0 O5 1.997 . S
Fe0 O6 2.002 . S
Fe0 O11 1.976 . S
Fe0 O14 1.996 . S
Fe1 O2 1.918 . S
Fe1 O9 1.997 . S
Fe1 O12 1.996 . S
Fe1 O16 1.976 . S
Fe1 O19 2.002 . S
O2 Fe0 1.918 . S
O2 Fe1 1.918 . S
O2 Fe3 1.918 . S
Fe3 O2 1.918 . S
Fe3 O4 2.002 . S
Fe3 O13 1.976 . S
Fe3 O17 1.996 . S
Fe3 O20 1.997 . S
O4 Fe3 2.002 . S
O4 C21 1.295 . S
O5 Fe0 1.997 . S
O5 C21 1.235 . S
O6 Fe0 2.002 . S
O6 C7 1.295 . S
C7 O6 1.295 . S
C7 O9 1.235 . S
C8 O13 1.287 . S
C8 O14 1.255 . S
O9 Fe1 1.997 . S
O9 C7 1.235 . S
C10 O16 1.287 . S
C10 O17 1.255 . S
O11 Fe0 1.976 . S
O11 C18 1.287 . S
O12 Fe1 1.996 . S
O12 C18 1.255 . S
O13 Fe3 1.976 . S
O13 C8 1.287 . S
O14 Fe0 1.996 . S
O14 C8 1.255 . S
C15 O19 1.295 . S
C15 O20 1.235 . S
O16 Fe1 1.976 . S
O16 C10 1.287 . S
O17 Fe3 1.996 . S
O17 C10 1.255 . S
C18 O11 1.287 . S
C18 O12 1.255 . S
O19 Fe1 2.002 . S
O19 C15 1.295 . S
O20 Fe3 1.997 . S
O20 C15 1.235 . S
C21 O4 1.295 . S
C21 O5 1.235 . S
Fe22 O24 1.918 . S
Fe22 O27 1.997 . S
Fe22 O28 2.002 . S
Fe22 O33 1.976 . S
Fe22 O36 1.996 . S
Fe23 O24 1.918 . S
Fe23 O31 1.997 . S
Fe23 O34 1.996 . S
Fe23 O38 1.976 . S
Fe23 O41 2.002 . S
O24 Fe22 1.918 . S
O24 Fe23 1.918 . S
O24 Fe25 1.918 . S
Fe25 O24 1.918 . S
Fe25 O26 2.002 . S
Fe25 O35 1.976 . S
Fe25 O39 1.996 . S
Fe25 O42 1.997 . S
O26 Fe25 2.002 . S
O26 C43 1.295 . S
O27 Fe22 1.997 . S
O27 C43 1.235 . S
O28 Fe22 2.002 . S
O28 C29 1.295 . S
C29 O28 1.295 . S
C29 O31 1.235 . S
C30 O35 1.287 . S
C30 O36 1.255 . S
O31 Fe23 1.997 . S
O31 C29 1.235 . S
C32 O38 1.287 . S
C32 O39 1.255 . S
O33 Fe22 1.976 . S
O33 C40 1.287 . S
O34 Fe23 1.996 . S
O34 C40 1.255 . S
O35 Fe25 1.976 . S
O35 C30 1.287 . S
O36 Fe22 1.996 . S
O36 C30 1.255 . S
C37 O41 1.295 . S
C37 O42 1.235 . S
O38 Fe23 1.976 . S
O38 C32 1.287 . S
O39 Fe25 1.996 . S
O39 C32 1.255 . S
C40 O33 1.287 . S
C40 O34 1.255 . S
O41 Fe23 2.002 . S
O41 C37 1.295 . S
O42 Fe25 1.997 . S
O42 C37 1.235 . S
C43 O26 1.295 . S
C43 O27 1.235 . S
Fe44 O46 1.918 . S
Fe44 O49 1.997 . S
Fe44 O50 2.002 . S
Fe44 O55 1.976 . S
Fe44 O58 1.996 . S
Fe45 O46 1.918 . S
Fe45 O53 1.997 . S
Fe45 O56 1.996 . S
Fe45 O60 1.976 . S
Fe45 O63 2.002 . S
O46 Fe44 1.918 . S
O46 Fe45 1.918 . S
O46 Fe47 1.918 . S
Fe47 O46 1.918 . S
Fe47 O48 2.002 . S
Fe47 O57 1.976 . S
Fe47 O61 1.996 . S
Fe47 O64 1.997 . S
O48 Fe47 2.002 . S
O48 C65 1.295 . S
O49 Fe44 1.997 . S
O49 C65 1.235 . S
O50 Fe44 2.002 . S
O50 C51 1.295 . S
C51 O50 1.295 . S
C51 O53 1.235 . S
C52 O57 1.287 . S
C52 O58 1.255 . S
O53 Fe45 1.997 . S
O53 C51 1.235 . S
C54 O60 1.287 . S
C54 O61 1.255 . S
O55 Fe44 1.976 . S
O55 C62 1.287 . S
O56 Fe45 1.996 . S
O56 C62 1.255 . S
O57 Fe47 1.976 . S
O57 C52 1.287 . S
O58 Fe44 1.996 . S
O58 C52 1.255 . S
C59 O63 1.295 . S
C59 O64 1.235 . S
O60 Fe45 1.976 . S
O60 C54 1.287 . S
O61 Fe47 1.996 . S
O61 C54 1.255 . S
C62 O55 1.287 . S
C62 O56 1.255 . S
O63 Fe45 2.002 . S
O63 C59 1.295 . S
O64 Fe47 1.997 . S
O64 C59 1.235 . S
C65 O48 1.295 . S
C65 O49 1.235 . S
Fe66 O68 1.918 . S
Fe66 O71 1.997 1_554 S
Fe66 O72 2.002 . S
Fe66 O77 1.976 . S
Fe66 O80 1.996 . S
Fe67 O68 1.918 . S
Fe67 O75 1.997 . S
Fe67 O78 1.996 . S
Fe67 O82 1.976 . S
Fe67 O85 2.002 . S
O68 Fe66 1.918 . S
O68 Fe67 1.918 . S
O68 Fe69 1.918 1_554 S
Fe69 O68 1.918 1_556 S
Fe69 O70 2.002 . S
Fe69 O79 1.976 . S
Fe69 O83 1.996 1_556 S
Fe69 O86 1.997 . S
O70 Fe69 2.002 . S
O70 C87 1.295 . S
O71 Fe66 1.997 1_556 S
O71 C87 1.235 . S
O72 Fe66 2.002 . S
O72 C73 1.295 . S
C73 O72 1.295 . S
C73 O75 1.235 . S
C74 O79 1.287 . S
C74 O80 1.255 1_556 S
O75 Fe67 1.997 . S
O75 C73 1.235 . S
C76 O82 1.287 . S
C76 O83 1.255 . S
O77 Fe66 1.976 . S
O77 C84 1.287 . S
O78 Fe67 1.996 . S
O78 C84 1.255 . S
O79 Fe69 1.976 . S
O79 C74 1.287 . S
O80 Fe66 1.996 . S
O80 C74 1.255 1_554 S
C81 O85 1.284 1_556 S
C81 O86 1.242 . S
O82 Fe67 1.976 . S
O82 C76 1.287 . S
O83 Fe69 1.996 1_554 S
O83 C76 1.255 . S
C84 O77 1.287 . S
C84 O78 1.255 . S
O85 Fe67 2.002 . S
O85 C81 1.284 1_554 S
O86 Fe69 1.997 . S
O86 C81 1.242 . S
C87 O70 1.295 . S
C87 O71 1.235 . S
Fe88 O90 1.918 . S
Fe88 O93 1.997 . S
Fe88 O94 2.002 . S
Fe88 O99 1.976 . S
Fe88 O102 1.996 . S
Fe89 O90 1.918 . S
Fe89 O97 1.997 . S
Fe89 O100 1.996 . S
Fe89 O104 1.976 . S
Fe89 O107 2.002 . S
O90 Fe88 1.918 . S
O90 Fe89 1.918 . S
O90 Fe91 1.918 . S
Fe91 O90 1.918 . S
Fe91 O92 2.002 . S
Fe91 O101 1.976 . S
Fe91 O105 1.996 . S
Fe91 O108 1.997 . S
O92 Fe91 2.002 . S
O92 C109 1.295 . S
O93 Fe88 1.997 . S
O93 C109 1.235 . S
O94 Fe88 2.002 . S
O94 C95 1.295 . S
C95 O94 1.295 . S
C95 O97 1.235 . S
C96 O101 1.287 . S
C96 O102 1.255 . S
O97 Fe89 1.997 . S
O97 C95 1.235 . S
C98 O104 1.287 . S
C98 O105 1.255 . S
O99 Fe88 1.976 . S
O99 C106 1.287 . S
O100 Fe89 1.996 . S
O100 C106 1.255 . S
O101 Fe91 1.976 . S
O101 C96 1.287 . S
O102 Fe88 1.996 . S
O102 C96 1.255 . S
C103 O107 1.295 . S
C103 O108 1.235 . S
O104 Fe89 1.976 . S
O104 C98 1.287 . S
O105 Fe91 1.996 . S
O105 C98 1.255 . S
C106 O99 1.287 . S
C106 O100 1.255 . S
O107 Fe89 2.002 . S
O107 C103 1.295 . S
O108 Fe91 1.997 . S
O108 C103 1.235 . S
C109 O92 1.295 . S
C109 O93 1.235 . S
Fe110 O112 1.918 . S
Fe110 O115 1.997 . S
Fe110 O116 2.002 . S
Fe110 O121 1.976 . S
Fe110 O124 1.996 . S
Fe111 O112 1.918 . S
Fe111 O119 1.997 . S
Fe111 O122 1.996 . S
Fe111 O126 1.976 . S
Fe111 O129 2.002 . S
O112 Fe110 1.918 . S
O112 Fe111 1.918 . S
O112 Fe113 1.918 . S
Fe113 O112 1.918 . S
Fe113 O114 2.002 . S
Fe113 O123 1.976 . S
Fe113 O127 1.996 . S
Fe113 O130 1.997 . S
O114 Fe113 2.002 . S
O114 C131 1.295 . S
O115 Fe110 1.997 . S
O115 C131 1.235 . S
O116 Fe110 2.002 . S
O116 C117 1.295 . S
C117 O116 1.295 . S
C117 O119 1.235 . S
C118 O123 1.287 . S
C118 O124 1.255 . S
O119 Fe111 1.997 . S
O119 C117 1.235 . S
C120 O126 1.287 . S
C120 O127 1.255 . S
O121 Fe110 1.976 . S
O121 C128 1.287 . S
O122 Fe111 1.996 . S
O122 C128 1.255 . S
O123 Fe113 1.976 . S
O123 C118 1.287 . S
O124 Fe110 1.996 . S
O124 C118 1.255 . S
C125 O129 1.295 . S
C125 O130 1.235 . S
O126 Fe111 1.976 . S
O126 C120 1.287 . S
O127 Fe113 1.996 . S
O127 C120 1.255 . S
C128 O121 1.287 . S
C128 O122 1.255 . S
O129 Fe111 2.002 . S
O129 C125 1.295 . S
O130 Fe113 1.997 . S
O130 C125 1.235 . S
C131 O114 1.295 . S
C131 O115 1.235 . S
Fe132 O134 1.918 . S
Fe132 O137 1.997 . S
Fe132 O138 2.002 . S
Fe132 O143 1.976 . S
Fe132 O146 1.996 . S
Fe133 O134 1.918 . S
Fe133 O141 1.997 . S
Fe133 O144 1.996 . S
Fe133 O148 1.976 . S
Fe133 O151 2.002 . S
O134 Fe132 1.918 . S
O134 Fe133 1.918 . S
O134 Fe135 1.918 . S
Fe135 O134 1.918 . S
Fe135 O136 2.002 . S
Fe135 O145 1.976 . S
Fe135 O149 1.996 . S
Fe135 O152 1.997 . S
O136 Fe135 2.002 . S
O136 C153 1.295 . S
O137 Fe132 1.997 . S
O137 C153 1.235 . S
O138 Fe132 2.002 . S
O138 C139 1.295 . S
C139 O138 1.295 . S
C139 O141 1.235 . S
C140 O145 1.287 . S
C140 O146 1.255 . S
O141 Fe133 1.997 . S
O141 C139 1.235 . S
C142 O148 1.287 . S
C142 O149 1.255 . S
O143 Fe132 1.976 . S
O143 C150 1.287 . S
O144 Fe133 1.996 . S
O144 C150 1.255 . S
O145 Fe135 1.976 . S
O145 C140 1.287 . S
O146 Fe132 1.996 . S
O146 C140 1.255 . S
C147 O151 1.295 . S
C147 O152 1.235 . S
O148 Fe133 1.976 . S
O148 C142 1.287 . S
O149 Fe135 1.996 . S
O149 C142 1.255 . S
C150 O143 1.287 . S
C150 O144 1.255 . S
O151 Fe133 2.002 . S
O151 C147 1.295 . S
O152 Fe135 1.997 . S
O152 C147 1.235 . S
C153 O136 1.295 . S
C153 O137 1.235 . S
Fe154 O156 1.918 1_554 S
Fe154 O159 1.997 . S
Fe154 O160 2.002 . S
Fe154 O165 1.976 . S
Fe154 O168 1.996 1_554 S
Fe155 O156 1.918 . S
Fe155 O163 1.997 1_556 S
Fe155 O166 1.996 . S
Fe155 O170 1.976 . S
Fe155 O173 2.002 . S
O156 Fe154 1.918 1_556 S
O156 Fe155 1.918 . S
O156 Fe157 1.918 . S
Fe157 O156 1.918 . S
Fe157 O158 2.002 . S
Fe157 O167 1.976 . S
Fe157 O171 1.996 . S
Fe157 O174 1.997 . S
O158 Fe157 2.002 . S
O158 C175 1.284 1_556 S
O159 Fe154 1.997 . S
O159 C175 1.242 . S
O160 Fe154 2.002 . S
O160 C161 1.295 . S
C161 O160 1.295 . S
C161 O163 1.235 . S
C162 O167 1.287 . S
C162 O168 1.255 . S
O163 Fe155 1.997 1_554 S
O163 C161 1.235 . S
C164 O170 1.287 . S
C164 O171 1.255 . S
O165 Fe154 1.976 . S
O165 C172 1.287 . S
O166 Fe155 1.996 . S
O166 C172 1.255 1_556 S
O167 Fe157 1.976 . S
O167 C162 1.287 . S
O168 Fe154 1.996 1_556 S
O168 C162 1.255 . S
C169 O173 1.295 . S
C169 O174 1.235 . S
O170 Fe155 1.976 . S
O170 C164 1.287 . S
O171 Fe157 1.996 . S
O171 C164 1.255 . S
C172 O165 1.287 . S
C172 O166 1.255 1_554 S
O173 Fe155 2.002 . S
O173 C169 1.295 . S
O174 Fe157 1.997 . S
O174 C169 1.235 . S
C175 O158 1.284 1_554 S
C175 O159 1.242 . S
Fe176 O178 1.918 1_565 S
Fe176 O181 1.997 . S
Fe176 O182 2.002 . S
Fe176 O187 1.976 . S
Fe176 O190 1.996 . S
Fe177 O178 1.918 . S
Fe177 O185 1.997 . S
Fe177 O188 1.996 . S
Fe177 O192 1.976 . S
Fe177 O195 2.002 . S
O178 Fe176 1.918 1_545 S
O178 Fe177 1.918 . S
O178 Fe179 1.918 . S
Fe179 O178 1.918 . S
Fe179 O180 2.002 . S
Fe179 O189 1.976 . S
Fe179 O193 1.996 . S
Fe179 O196 1.997 . S
O180 Fe179 2.002 . S
O180 C197 1.295 . S
O181 Fe176 1.997 . S
O181 C197 1.235 1_565 S
O182 Fe176 2.002 . S
O182 C183 1.295 1_565 S
C183 O182 1.295 1_545 S
C183 O185 1.235 . S
C184 O189 1.287 1_565 S
C184 O190 1.255 . S
O185 Fe177 1.997 . S
O185 C183 1.235 . S
C186 O192 1.287 . S
C186 O193 1.255 . S
O187 Fe176 1.976 . S
O187 C194 1.287 . S
O188 Fe177 1.996 . S
O188 C194 1.255 1_545 S
O189 Fe179 1.976 . S
O189 C184 1.287 1_545 S
O190 Fe176 1.996 . S
O190 C184 1.255 . S
C191 O195 1.295 . S
C191 O196 1.235 . S
O192 Fe177 1.976 . S
O192 C186 1.287 . S
O193 Fe179 1.996 . S
O193 C186 1.255 . S
C194 O187 1.287 . S
C194 O188 1.255 1_565 S
O195 Fe177 2.002 . S
O195 C191 1.295 . S
O196 Fe179 1.997 . S
O196 C191 1.235 . S
C197 O180 1.295 . S
C197 O181 1.235 1_545 S
Fe198 O200 1.918 1_556 S
Fe198 O203 1.997 . S
Fe198 O204 2.002 . S
Fe198 O209 1.976 . S
Fe198 O212 1.996 1_556 S
Fe199 O200 1.918 . S
Fe199 O207 1.997 1_554 S
Fe199 O210 1.996 . S
Fe199 O214 1.976 . S
Fe199 O217 2.002 . S
O200 Fe198 1.918 1_554 S
O200 Fe199 1.918 . S
O200 Fe201 1.918 . S
Fe201 O200 1.918 . S
Fe201 O202 2.002 . S
Fe201 O211 1.976 . S
Fe201 O215 1.996 . S
Fe201 O218 1.997 . S
O202 Fe201 2.002 . S
O202 C219 1.284 1_554 S
O203 Fe198 1.997 . S
O203 C219 1.242 . S
O204 Fe198 2.002 . S
O204 C205 1.295 . S
C205 O204 1.295 . S
C205 O207 1.235 . S
C206 O211 1.287 . S
C206 O212 1.255 . S
O207 Fe199 1.997 1_556 S
O207 C205 1.235 . S
C208 O214 1.287 . S
C208 O215 1.255 . S
O209 Fe198 1.976 . S
O209 C216 1.287 . S
O210 Fe199 1.996 . S
O210 C216 1.255 1_554 S
O211 Fe201 1.976 . S
O211 C206 1.287 . S
O212 Fe198 1.996 1_554 S
O212 C206 1.255 . S
C213 O217 1.295 1_545 S
C213 O218 1.235 1_545 S
O214 Fe199 1.976 . S
O214 C208 1.287 . S
O215 Fe201 1.996 . S
O215 C208 1.255 . S
C216 O209 1.287 . S
C216 O210 1.255 1_556 S
O217 Fe199 2.002 . S
O217 C213 1.295 1_565 S
O218 Fe201 1.997 . S
O218 C213 1.235 1_565 S
C219 O202 1.284 1_556 S
C219 O203 1.242 . S
Fe220 O222 1.918 1_545 S
Fe220 O225 1.997 . S
Fe220 O226 2.002 . S
Fe220 O231 1.976 . S
Fe220 O234 1.996 . S
Fe221 O222 1.918 . S
Fe221 O229 1.997 . S
Fe221 O232 1.996 . S
Fe221 O236 1.976 . S
Fe221 O239 2.002 . S
O222 Fe220 1.918 1_565 S
O222 Fe221 1.918 . S
O222 Fe223 1.918 . S
Fe223 O222 1.918 . S
Fe223 O224 2.002 . S
Fe223 O233 1.976 . S
Fe223 O237 1.996 . S
Fe223 O240 1.997 . S
O224 Fe223 2.002 . S
O224 C241 1.295 . S
O225 Fe220 1.997 . S
O225 C241 1.235 1_545 S
O226 Fe220 2.002 . S
O226 C227 1.295 1_545 S
C227 O226 1.295 1_565 S
C227 O229 1.235 . S
C228 O233 1.287 1_545 S
C228 O234 1.255 . S
O229 Fe221 1.997 . S
O229 C227 1.235 . S
C230 O236 1.287 . S
C230 O237 1.255 . S
O231 Fe220 1.976 . S
O231 C238 1.287 . S
O232 Fe221 1.996 . S
O232 C238 1.255 1_565 S
O233 Fe223 1.976 . S
O233 C228 1.287 1_565 S
O234 Fe220 1.996 . S
O234 C228 1.255 . S
C235 O239 1.295 . S
C235 O240 1.235 . S
O236 Fe221 1.976 . S
O236 C230 1.287 . S
O237 Fe223 1.996 . S
O237 C230 1.255 . S
C238 O231 1.287 . S
C238 O232 1.255 1_545 S
O239 Fe221 2.002 . S
O239 C235 1.295 . S
O240 Fe223 1.997 . S
O240 C235 1.235 . S
C241 O224 1.295 . S
C241 O225 1.235 1_565 S
Fe242 O244 1.918 . S
Fe242 O247 1.997 . S
Fe242 O248 2.002 . S
Fe242 O253 1.976 . S
Fe242 O256 1.996 . S
Fe243 O244 1.918 . S
Fe243 O251 1.997 . S
Fe243 O254 1.996 . S
Fe243 O258 1.976 . S
Fe243 O261 2.002 . S
O244 Fe242 1.918 . S
O244 Fe243 1.918 . S
O244 Fe245 1.918 . S
Fe245 O244 1.918 . S
Fe245 O246 2.002 . S
Fe245 O255 1.976 . S
Fe245 O259 1.996 . S
Fe245 O262 1.997 . S
O246 Fe245 2.002 . S
O246 C263 1.295 . S
O247 Fe242 1.997 . S
O247 C263 1.235 . S
O248 Fe242 2.002 . S
O248 C249 1.295 1_545 S
C249 O248 1.295 1_565 S
C249 O251 1.235 1_565 S
C250 O255 1.287 . S
C250 O256 1.255 . S
O251 Fe243 1.997 . S
O251 C249 1.235 1_545 S
C252 O258 1.287 . S
C252 O259 1.255 . S
O253 Fe242 1.976 . S
O253 C260 1.287 . S
O254 Fe243 1.996 . S
O254 C260 1.255 . S
O255 Fe245 1.976 . S
O255 C250 1.287 . S
O256 Fe242 1.996 . S
O256 C250 1.255 . S
C257 O261 1.295 . S
C257 O262 1.235 . S
O258 Fe243 1.976 . S
O258 C252 1.287 . S
O259 Fe245 1.996 . S
O259 C252 1.255 . S
C260 O253 1.287 . S
C260 O254 1.255 . S
O261 Fe243 2.002 . S
O261 C257 1.295 . S
O262 Fe245 1.997 . S
O262 C257 1.235 . S
C263 O246 1.295 . S
C263 O247 1.235 . S
Fe264 O266 1.918 . S
Fe264 O269 1.997 . S
Fe264 O270 2.002 . S
Fe264 O275 1.976 . S
Fe264 O278 1.996 . S
Fe265 O266 1.918 . S
Fe265 O273 1.997 . S
Fe265 O276 1.996 . S
Fe265 O280 1.976 . S
Fe265 O283 2.002 . S
O266 Fe264 1.918 . S
O266 Fe265 1.918 . S
O266 Fe267 1.918 1_565 S
Fe267 O266 1.918 1_545 S
Fe267 O268 2.002 . S
Fe267 O277 1.976 . S
Fe267 O281 1.996 . S
Fe267 O284 1.997 . S
O268 Fe267 2.002 . S
O268 C285 1.295 1_545 S
O269 Fe264 1.997 . S
O269 C285 1.235 . S
O270 Fe264 2.002 . S
O270 C271 1.295 . S
C271 O270 1.295 . S
C271 O273 1.235 . S
C272 O277 1.287 . S
C272 O278 1.255 1_545 S
O273 Fe265 1.997 . S
O273 C271 1.235 . S
C274 O280 1.287 1_545 S
C274 O281 1.255 . S
O275 Fe264 1.976 . S
O275 C282 1.287 . S
O276 Fe265 1.996 . S
O276 C282 1.255 . S
O277 Fe267 1.976 . S
O277 C272 1.287 . S
O278 Fe264 1.996 . S
O278 C272 1.255 1_565 S
C279 O283 1.295 . S
C279 O284 1.235 1_565 S
O280 Fe265 1.976 . S
O280 C274 1.287 1_565 S
O281 Fe267 1.996 . S
O281 C274 1.255 . S
C282 O275 1.287 . S
C282 O276 1.255 . S
O283 Fe265 2.002 . S
O283 C279 1.295 . S
O284 Fe267 1.997 . S
O284 C279 1.235 1_545 S
C285 O268 1.295 1_565 S
C285 O269 1.235 . S
Fe286 O288 1.918 1_554 S
Fe286 O291 1.997 . S
Fe286 O292 2.002 . S
Fe286 O297 1.976 . S
Fe286 O300 1.996 1_554 S
Fe287 O288 1.918 . S
Fe287 O295 1.997 1_556 S
Fe287 O298 1.996 . S
Fe287 O302 1.976 . S
Fe287 O305 2.002 . S
O288 Fe286 1.918 1_556 S
O288 Fe287 1.918 . S
O288 Fe289 1.918 . S
Fe289 O288 1.918 . S
Fe289 O290 2.002 . S
Fe289 O299 1.976 . S
Fe289 O303 1.996 . S
Fe289 O306 1.997 . S
O290 Fe289 2.002 . S
O290 C307 1.284 1_556 S
O291 Fe286 1.997 . S
O291 C307 1.242 . S
O292 Fe286 2.002 . S
O292 C293 1.295 . S
C293 O292 1.295 . S
C293 O295 1.235 . S
C294 O299 1.287 . S
C294 O300 1.255 . S
O295 Fe287 1.997 1_554 S
O295 C293 1.235 . S
C296 O302 1.287 . S
C296 O303 1.255 . S
O297 Fe286 1.976 . S
O297 C304 1.287 . S
O298 Fe287 1.996 . S
O298 C304 1.255 1_556 S
O299 Fe289 1.976 . S
O299 C294 1.287 . S
O300 Fe286 1.996 1_556 S
O300 C294 1.255 . S
C301 O305 1.295 1_565 S
C301 O306 1.235 1_565 S
O302 Fe287 1.976 . S
O302 C296 1.287 . S
O303 Fe289 1.996 . S
O303 C296 1.255 . S
C304 O297 1.287 . S
C304 O298 1.255 1_554 S
O305 Fe287 2.002 . S
O305 C301 1.295 1_545 S
O306 Fe289 1.997 . S
O306 C301 1.235 1_545 S
C307 O290 1.284 1_554 S
C307 O291 1.242 . S
Fe308 O310 1.918 1_565 S
Fe308 O313 1.997 . S
Fe308 O314 2.002 . S
Fe308 O319 1.976 . S
Fe308 O322 1.996 . S
Fe309 O310 1.918 . S
Fe309 O317 1.997 . S
Fe309 O320 1.996 . S
Fe309 O324 1.976 . S
Fe309 O327 2.002 . S
O310 Fe308 1.918 1_545 S
O310 Fe309 1.918 . S
O310 Fe311 1.918 . S
Fe311 O310 1.918 . S
Fe311 O312 2.002 . S
Fe311 O321 1.976 . S
Fe311 O325 1.996 . S
Fe311 O328 1.997 . S
O312 Fe311 2.002 . S
O312 C329 1.295 . S
O313 Fe308 1.997 . S
O313 C329 1.235 1_565 S
O314 Fe308 2.002 . S
O314 C315 1.295 1_565 S
C315 O314 1.295 1_545 S
C315 O317 1.235 . S
C316 O321 1.287 1_565 S
C316 O322 1.255 . S
O317 Fe309 1.997 . S
O317 C315 1.235 . S
C318 O324 1.287 . S
C318 O325 1.255 . S
O319 Fe308 1.976 . S
O319 C326 1.287 . S
O320 Fe309 1.996 . S
O320 C326 1.255 1_545 S
O321 Fe311 1.976 . S
O321 C316 1.287 1_545 S
O322 Fe308 1.996 . S
O322 C316 1.255 . S
C323 O327 1.295 . S
C323 O328 1.235 . S
O324 Fe309 1.976 . S
O324 C318 1.287 . S
O325 Fe311 1.996 . S
O325 C318 1.255 . S
C326 O319 1.287 . S
C326 O320 1.255 1_565 S
O327 Fe309 2.002 . S
O327 C323 1.295 . S
O328 Fe311 1.997 . S
O328 C323 1.235 . S
C329 O312 1.295 . S
C329 O313 1.235 1_545 S
Fe330 O332 1.918 . S
Fe330 O335 1.997 . S
Fe330 O336 2.002 . S
Fe330 O341 1.976 . S
Fe330 O344 1.996 . S
Fe331 O332 1.918 . S
Fe331 O339 1.997 . S
Fe331 O342 1.996 . S
Fe331 O346 1.976 . S
Fe331 O349 2.002 . S
O332 Fe330 1.918 . S
O332 Fe331 1.918 . S
O332 Fe333 1.918 . S
Fe333 O332 1.918 . S
Fe333 O334 2.002 . S
Fe333 O343 1.976 . S
Fe333 O347 1.996 . S
Fe333 O350 1.997 . S
O334 Fe333 2.002 . S
O334 C351 1.295 . S
O335 Fe330 1.997 . S
O335 C351 1.235 . S
O336 Fe330 2.002 . S
O336 C337 1.295 . S
C337 O336 1.295 . S
C337 O339 1.235 . S
C338 O343 1.287 . S
C338 O344 1.255 . S
O339 Fe331 1.997 . S
O339 C337 1.235 . S
C340 O346 1.287 . S
C340 O347 1.255 . S
O341 Fe330 1.976 . S
O341 C348 1.287 . S
O342 Fe331 1.996 . S
O342 C348 1.255 . S
O343 Fe333 1.976 . S
O343 C338 1.287 . S
O344 Fe330 1.996 . S
O344 C338 1.255 . S
C345 O349 1.295 1_545 S
C345 O350 1.235 1_545 S
O346 Fe331 1.976 . S
O346 C340 1.287 . S
O347 Fe333 1.996 . S
O347 C340 1.255 . S
C348 O341 1.287 . S
C348 O342 1.255 . S
O349 Fe331 2.002 . S
O349 C345 1.295 1_565 S
O350 Fe333 1.997 . S
O350 C345 1.235 1_565 S
C351 O334 1.295 . S
C351 O335 1.235 . S
H352 C358 0.930 . S
H353 C362 0.930 . S
H354 C367 0.929 . S
H355 C365 0.929 . S
H356 C360 0.929 . S
H357 C366 0.929 . S
C358 H352 0.930 . S
C358 C359 1.367 . S
C358 C366 1.378 . S
C359 C358 1.367 . S
C359 C367 1.433 . S
C360 H356 0.929 . S
C360 C362 1.378 . S
C360 C364 1.350 . S
C361 C364 1.463 . S
C361 C366 1.350 . S
C361 N369 1.427 . S
C362 H353 0.930 . S
C362 C360 1.378 . S
C362 C363 1.367 . S
C363 C362 1.367 . S
C363 C365 1.433 . S
C364 C360 1.350 . S
C364 C361 1.463 . S
C364 N368 1.427 . S
C365 H355 0.929 . S
C365 C363 1.433 . S
C365 N368 1.384 . S
C366 H357 0.929 . S
C366 C358 1.378 . S
C366 C361 1.350 . S
C367 H354 0.929 . S
C367 C359 1.433 . S
C367 N369 1.384 . S
N368 C364 1.427 . S
N368 C365 1.384 . S
N369 C361 1.427 . S
N369 C367 1.384 . S
H370 C376 0.930 . S
H371 C380 0.930 . S
H372 C385 0.929 . S
H373 C383 0.929 . S
H374 C378 0.929 . S
H375 C384 0.929 . S
C376 H370 0.930 . S
C376 C377 1.367 . S
C376 C384 1.378 . S
C377 C376 1.367 . S
C377 C385 1.433 . S
C378 H374 0.929 . S
C378 C380 1.378 . S
C378 C382 1.350 . S
C379 C382 1.463 . S
C379 C384 1.350 . S
C379 N387 1.427 . S
C380 H371 0.930 . S
C380 C378 1.378 . S
C380 C381 1.367 . S
C381 C380 1.367 . S
C381 C383 1.433 . S
C382 C378 1.350 . S
C382 C379 1.463 . S
C382 N386 1.427 . S
C383 H373 0.929 . S
C383 C381 1.433 . S
C383 N386 1.384 . S
C384 H375 0.929 . S
C384 C376 1.378 . S
C384 C379 1.350 . S
C385 H372 0.929 . S
C385 C377 1.433 . S
C385 N387 1.384 . S
N386 C382 1.427 . S
N386 C383 1.384 . S
N387 C379 1.427 . S
N387 C385 1.384 . S
H388 C394 0.930 . S
H389 C398 0.930 . S
H390 C403 0.929 . S
H391 C401 0.929 . S
H392 C396 0.929 . S
H393 C402 0.929 . S
C394 H388 0.930 . S
C394 C395 1.367 . S
C394 C402 1.378 . S
C395 C394 1.367 . S
C395 C403 1.433 . S
C396 H392 0.929 . S
C396 C398 1.378 1_455 S
C396 C400 1.350 . S
C397 C400 1.463 . S
C397 C402 1.350 . S
C397 N405 1.427 . S
C398 H389 0.930 . S
C398 C396 1.378 1_655 S
C398 C399 1.367 . S
C399 C398 1.367 . S
C399 C401 1.433 . S
C400 C396 1.350 . S
C400 C397 1.463 . S
C400 N404 1.427 . S
C401 H391 0.929 . S
C401 C399 1.433 . S
C401 N404 1.384 1_655 S
C402 H393 0.929 . S
C402 C394 1.378 . S
C402 C397 1.350 . S
C403 H390 0.929 . S
C403 C395 1.433 . S
C403 N405 1.384 . S
N404 C400 1.427 . S
N404 C401 1.384 1_455 S
N405 C397 1.427 . S
N405 C403 1.384 . S
H406 C412 0.930 . S
H407 C416 0.913 1_556 S
H408 C421 0.929 . S
H409 C419 0.929 . S
H410 C414 0.929 1_556 S
H411 C420 0.929 . S
C412 H406 0.930 . S
C412 C413 1.367 . S
C412 C420 1.378 . S
C413 C412 1.367 . S
C413 C421 1.433 1_554 S
C414 H410 0.929 1_554 S
C414 C416 1.378 . S
C414 C418 1.350 . S
C415 C418 1.463 . S
C415 C420 1.350 . S
C415 N423 1.427 1_554 S
C416 H407 0.913 1_554 S
C416 C414 1.378 . S
C416 C417 1.367 . S
C417 C416 1.367 . S
C417 C419 1.433 . S
C418 C414 1.350 . S
C418 C415 1.463 . S
C418 N422 1.427 . S
C419 H409 0.929 . S
C419 C417 1.433 . S
C419 N422 1.384 . S
C420 H411 0.929 . S
C420 C412 1.378 . S
C420 C415 1.350 . S
C421 H408 0.929 . S
C421 C413 1.433 1_556 S
C421 N423 1.384 . S
N422 C418 1.427 . S
N422 C419 1.384 . S
N423 C415 1.427 1_556 S
N423 C421 1.384 . S
H424 C430 0.930 . S
H425 C434 0.930 . S
H426 C439 0.929 . S
H427 C437 0.929 . S
H428 C432 0.929 . S
H429 C438 0.929 . S
C430 H424 0.930 . S
C430 C431 1.367 . S
C430 C438 1.378 . S
C431 C430 1.367 . S
C431 C439 1.433 . S
C432 H428 0.929 . S
C432 C434 1.378 . S
C432 C436 1.350 . S
C433 C436 1.463 . S
C433 C438 1.350 . S
C433 N441 1.427 . S
C434 H425 0.930 . S
C434 C432 1.378 . S
C434 C435 1.367 . S
C435 C434 1.367 . S
C435 C437 1.433 . S
C436 C432 1.350 . S
C436 C433 1.463 . S
C436 N440 1.427 . S
C437 H427 0.929 . S
C437 C435 1.433 . S
C437 N440 1.384 . S
C438 H429 0.929 . S
C438 C430 1.378 . S
C438 C433 1.350 . S
C439 H426 0.929 . S
C439 C431 1.433 . S
C439 N441 1.384 . S
N440 C436 1.427 . S
N440 C437 1.384 . S
N441 C433 1.427 . S
N441 C439 1.384 . S
H442 C448 0.930 . S
H443 C452 0.930 . S
H444 C457 0.929 . S
H445 C455 0.929 . S
H446 C450 0.929 . S
H447 C456 0.929 . S
C448 H442 0.930 . S
C448 C449 1.367 . S
C448 C456 1.378 . S
C449 C448 1.367 . S
C449 C457 1.433 . S
C450 H446 0.929 . S
C450 C452 1.378 . S
C450 C454 1.350 . S
C451 C454 1.463 . S
C451 C456 1.350 . S
C451 N459 1.427 . S
C452 H443 0.930 . S
C452 C450 1.378 . S
C452 C453 1.367 . S
C453 C452 1.367 . S
C453 C455 1.433 . S
C454 C450 1.350 . S
C454 C451 1.463 . S
C454 N458 1.427 . S
C455 H445 0.929 . S
C455 C453 1.433 . S
C455 N458 1.384 . S
C456 H447 0.929 . S
C456 C448 1.378 . S
C456 C451 1.350 . S
C457 H444 0.929 . S
C457 C449 1.433 . S
C457 N459 1.384 . S
N458 C454 1.427 . S
N458 C455 1.384 . S
N459 C451 1.427 . S
N459 C457 1.384 . S
H460 C466 0.930 . S
H461 C470 0.930 . S
H462 C475 0.929 . S
H463 C473 0.929 . S
H464 C468 0.929 . S
H465 C474 0.929 . S
C466 H460 0.930 . S
C466 C467 1.367 . S
C466 C474 1.378 . S
C467 C466 1.367 . S
C467 C475 1.433 . S
C468 H464 0.929 . S
C468 C470 1.378 1_655 S
C468 C472 1.350 . S
C469 C472 1.463 . S
C469 C474 1.350 . S
C469 N477 1.427 . S
C470 H461 0.930 . S
C470 C468 1.378 1_455 S
C470 C471 1.367 . S
C471 C470 1.367 . S
C471 C473 1.433 . S
C472 C468 1.350 . S
C472 C469 1.463 . S
C472 N476 1.427 . S
C473 H463 0.929 . S
C473 C471 1.433 . S
C473 N476 1.384 1_455 S
C474 H465 0.929 . S
C474 C466 1.378 . S
C474 C469 1.350 . S
C475 H462 0.929 . S
C475 C467 1.433 . S
C475 N477 1.384 . S
N476 C472 1.427 . S
N476 C473 1.384 1_655 S
N477 C469 1.427 . S
N477 C475 1.384 . S
H478 C484 0.951 . S
H479 C488 0.930 . S
H480 C493 0.929 . S
H481 C491 0.929 . S
H482 C486 0.929 . S
H483 C492 0.929 . S
C484 H478 0.951 . S
C484 C485 1.343 1_554 S
C484 C492 1.381 . S
C485 C484 1.343 1_556 S
C485 C493 1.433 . S
C486 H482 0.929 . S
C486 C488 1.378 . S
C486 C490 1.350 . S
C487 C490 1.463 . S
C487 C492 1.350 1_556 S
C487 N495 1.427 . S
C488 H479 0.930 . S
C488 C486 1.378 . S
C488 C489 1.367 . S
C489 C488 1.367 . S
C489 C491 1.433 1_556 S
C490 C486 1.350 . S
C490 C487 1.463 . S
C490 N494 1.427 1_556 S
C491 H481 0.929 . S
C491 C489 1.433 1_554 S
C491 N494 1.384 . S
C492 H483 0.929 . S
C492 C484 1.381 . S
C492 C487 1.350 1_554 S
C493 H480 0.929 . S
C493 C485 1.433 . S
C493 N495 1.384 . S
N494 C490 1.427 1_554 S
N494 C491 1.384 . S
N495 C487 1.427 . S
N495 C493 1.384 . S
H496 C502 0.930 . S
H497 C506 0.930 . S
H498 C511 0.929 . S
H499 C509 0.929 . S
H500 C504 0.929 . S
H501 C510 0.929 . S
C502 H496 0.930 . S
C502 C503 1.367 . S
C502 C510 1.378 . S
C503 C502 1.367 . S
C503 C511 1.433 1_545 S
C504 H500 0.929 . S
C504 C506 1.378 1_655 S
C504 C508 1.350 . S
C505 C508 1.463 . S
C505 C510 1.350 1_565 S
C505 N513 1.427 . S
C506 H497 0.930 . S
C506 C504 1.378 1_455 S
C506 C507 1.367 . S
C507 C506 1.367 . S
C507 C509 1.433 1_565 S
C508 C504 1.350 . S
C508 C505 1.463 . S
C508 N512 1.427 1_565 S
C509 H499 0.929 . S
C509 C507 1.433 1_545 S
C509 N512 1.384 1_455 S
C510 H501 0.929 . S
C510 C502 1.378 . S
C510 C505 1.350 1_545 S
C511 H498 0.929 . S
C511 C503 1.433 1_565 S
C511 N513 1.384 . S
N512 C508 1.427 1_545 S
N512 C509 1.384 1_655 S
N513 C505 1.427 . S
N513 C511 1.384 . S
H514 C520 0.930 . S
H515 C524 0.930 . S
H516 C529 0.929 . S
H517 C527 0.929 . S
H518 C522 0.929 . S
H519 C528 0.929 . S
C520 H514 0.930 . S
C520 C521 1.367 . S
C520 C528 1.378 . S
C521 C520 1.367 . S
C521 C529 1.433 . S
C522 H518 0.929 . S
C522 C524 1.378 . S
C522 C526 1.350 1_556 S
C523 C526 1.463 . S
C523 C528 1.350 . S
C523 N531 1.427 . S
C524 H515 0.930 . S
C524 C522 1.378 . S
C524 C525 1.367 1_556 S
C525 C524 1.367 1_554 S
C525 C527 1.433 . S
C526 C522 1.350 1_554 S
C526 C523 1.463 . S
C526 N530 1.427 . S
C527 H517 0.929 . S
C527 C525 1.433 . S
C527 N530 1.384 . S
C528 H519 0.929 . S
C528 C520 1.378 . S
C528 C523 1.350 . S
C529 H516 0.929 . S
C529 C521 1.433 . S
C529 N531 1.384 . S
N530 C526 1.427 . S
N530 C527 1.384 . S
N531 C523 1.427 . S
N531 C529 1.384 . S
H532 C538 0.930 . S
H533 C542 0.930 . S
H534 C547 0.929 . S
H535 C545 0.929 . S
H536 C540 0.929 . S
H537 C546 0.929 . S
C538 H532 0.930 . S
C538 C539 1.367 . S
C538 C546 1.378 . S
C539 C538 1.367 . S
C539 C547 1.433 1_545 S
C540 H536 0.929 . S
C540 C542 1.378 . S
C540 C544 1.350 1_565 S
C541 C544 1.463 . S
C541 C546 1.350 . S
C541 N549 1.427 1_545 S
C542 H533 0.930 . S
C542 C540 1.378 . S
C542 C543 1.367 . S
C543 C542 1.367 . S
C543 C545 1.433 1_565 S
C544 C540 1.350 1_545 S
C544 C541 1.463 . S
C544 N548 1.427 . S
C545 H535 0.929 . S
C545 C543 1.433 1_545 S
C545 N548 1.384 . S
C546 H537 0.929 . S
C546 C538 1.378 . S
C546 C541 1.350 . S
C547 H534 0.929 . S
C547 C539 1.433 1_565 S
C547 N549 1.384 . S
N548 C544 1.427 . S
N548 C545 1.384 . S
N549 C541 1.427 1_565 S
N549 C547 1.384 . S
H550 C556 0.930 . S
H551 C560 0.930 . S
H552 C565 0.929 . S
H553 C563 0.929 . S
H554 C558 0.929 . S
H555 C564 0.929 . S
C556 H550 0.930 . S
C556 C557 1.367 . S
C556 C564 1.378 . S
C557 C556 1.367 . S
C557 C565 1.433 . S
C558 H554 0.929 . S
C558 C560 1.378 . S
C558 C562 1.350 . S
C559 C562 1.463 . S
C559 C564 1.350 . S
C559 N567 1.427 . S
C560 H551 0.930 . S
C560 C558 1.378 . S
C560 C561 1.367 . S
C561 C560 1.367 . S
C561 C563 1.433 . S
C562 C558 1.350 . S
C562 C559 1.463 . S
C562 N566 1.427 . S
C563 H553 0.929 . S
C563 C561 1.433 . S
C563 N566 1.384 . S
C564 H555 0.929 . S
C564 C556 1.378 . S
C564 C559 1.350 . S
C565 H552 0.929 . S
C565 C557 1.433 . S
C565 N567 1.384 . S
N566 C562 1.427 . S
N566 C563 1.384 . S
N567 C559 1.427 . S
N567 C565 1.384 . S
H568 C574 0.930 . S
H569 C578 0.930 . S
H570 C583 0.929 . S
H571 C581 0.929 . S
H572 C576 0.929 . S
H573 C582 0.929 . S
C574 H568 0.930 . S
C574 C575 1.367 1_565 S
C574 C582 1.378 1_655 S
C575 C574 1.367 1_545 S
C575 C583 1.433 . S
C576 H572 0.929 . S
C576 C578 1.378 . S
C576 C580 1.350 . S
C577 C580 1.463 . S
C577 C582 1.350 1_545 S
C577 N585 1.427 . S
C578 H569 0.930 . S
C578 C576 1.378 . S
C578 C579 1.367 1_545 S
C579 C578 1.367 1_565 S
C579 C581 1.433 . S
C580 C576 1.350 . S
C580 C577 1.463 . S
C580 N584 1.427 1_545 S
C581 H571 0.929 . S
C581 C579 1.433 . S
C581 N584 1.384 . S
C582 H573 0.929 . S
C582 C574 1.378 1_455 S
C582 C577 1.350 1_565 S
C583 H570 0.929 . S
C583 C575 1.433 . S
C583 N585 1.384 1_655 S
N584 C580 1.427 1_565 S
N584 C581 1.384 . S
N585 C577 1.427 . S
N585 C583 1.384 1_455 S
H586 C592 0.930 . S
H587 C596 0.930 . S
H588 C601 0.963 . S
H589 C599 0.929 . S
H590 C594 0.929 . S
H591 C600 0.929 . S
C592 H586 0.930 . S
C592 C593 1.367 . S
C592 C600 1.378 . S
C593 C592 1.367 . S
C593 C601 1.394 1_556 S
C594 H590 0.929 . S
C594 C596 1.378 . S
C594 C598 1.350 1_554 S
C595 C598 1.463 . S
C595 C600 1.350 . S
C595 N603 1.427 1_556 S
C596 H587 0.930 . S
C596 C594 1.378 . S
C596 C597 1.367 1_554 S
C597 C596 1.367 1_556 S
C597 C599 1.433 . S
C598 C594 1.350 1_556 S
C598 C595 1.463 . S
C598 N602 1.427 . S
C599 H589 0.929 . S
C599 C597 1.433 . S
C599 N602 1.384 . S
C600 H591 0.929 . S
C600 C592 1.378 . S
C600 C595 1.350 . S
C601 H588 0.963 . S
C601 C593 1.394 1_554 S
C601 N603 1.389 . S
N602 C598 1.427 . S
N602 C599 1.384 . S
N603 C595 1.427 1_554 S
N603 C601 1.389 . S
H604 C610 0.930 . S
H605 C614 0.930 . S
H606 C619 0.929 . S
H607 C617 0.929 . S
H608 C612 0.929 . S
H609 C618 0.929 . S
C610 H604 0.930 . S
C610 C611 1.367 . S
C610 C618 1.378 . S
C611 C610 1.367 . S
C611 C619 1.433 . S
C612 H608 0.929 . S
C612 C614 1.378 . S
C612 C616 1.350 1_545 S
C613 C616 1.463 . S
C613 C618 1.350 . S
C613 N621 1.427 . S
C614 H605 0.930 . S
C614 C612 1.378 . S
C614 C615 1.367 . S
C615 C614 1.367 . S
C615 C617 1.433 1_545 S
C616 C612 1.350 1_565 S
C616 C613 1.463 . S
C616 N620 1.427 . S
C617 H607 0.929 . S
C617 C615 1.433 1_565 S
C617 N620 1.384 . S
C618 H609 0.929 . S
C618 C610 1.378 . S
C618 C613 1.350 . S
C619 H606 0.929 . S
C619 C611 1.433 . S
C619 N621 1.384 . S
N620 C616 1.427 . S
N620 C617 1.384 . S
N621 C613 1.427 . S
N621 C619 1.384 . S
H622 C628 0.930 . S
H623 C632 0.930 . S
H624 C637 0.929 . S
H625 C635 0.929 . S
H626 C630 0.929 . S
H627 C636 0.929 . S
C628 H622 0.930 . S
C628 C629 1.367 . S
C628 C636 1.378 . S
C629 C628 1.367 . S
C629 C637 1.433 . S
C630 H626 0.929 . S
C630 C632 1.378 . S
C630 C634 1.350 . S
C631 C634 1.463 . S
C631 C636 1.350 . S
C631 N639 1.427 . S
C632 H623 0.930 . S
C632 C630 1.378 . S
C632 C633 1.367 . S
C633 C632 1.367 . S
C633 C635 1.433 . S
C634 C630 1.350 . S
C634 C631 1.463 . S
C634 N638 1.427 . S
C635 H625 0.929 . S
C635 C633 1.433 . S
C635 N638 1.384 . S
C636 H627 0.929 . S
C636 C628 1.378 . S
C636 C631 1.350 . S
C637 H624 0.929 . S
C637 C629 1.433 . S
C637 N639 1.384 . S
N638 C634 1.427 . S
N638 C635 1.384 . S
N639 C631 1.427 . S
N639 C637 1.384 . S
H640 C646 0.930 . S
H641 C650 0.930 . S
H642 C655 0.929 . S
H643 C653 0.929 . S
H644 C648 0.929 . S
H645 C654 0.929 . S
C646 H640 0.930 . S
C646 C647 1.367 . S
C646 C654 1.378 . S
C647 C646 1.367 . S
C647 C655 1.433 . S
C648 H644 0.929 . S
C648 C650 1.378 . S
C648 C652 1.350 . S
C649 C652 1.463 . S
C649 C654 1.350 . S
C649 N657 1.427 . S
C650 H641 0.930 . S
C650 C648 1.378 . S
C650 C651 1.367 . S
C651 C650 1.367 . S
C651 C653 1.433 . S
C652 C648 1.350 . S
C652 C649 1.463 . S
C652 N656 1.427 . S
C653 H643 0.929 . S
C653 C651 1.433 . S
C653 N656 1.384 . S
C654 H645 0.929 . S
C654 C646 1.378 . S
C654 C649 1.350 . S
C655 H642 0.929 . S
C655 C647 1.433 . S
C655 N657 1.384 . S
N656 C652 1.427 . S
N656 C653 1.384 . S
N657 C649 1.427 . S
N657 C655 1.384 . S
H658 C664 0.930 . S
H659 C668 0.930 . S
H660 C673 0.929 . S
H661 C671 0.929 . S
H662 C666 0.929 . S
H663 C672 0.929 . S
C664 H658 0.930 . S
C664 C665 1.367 . S
C664 C672 1.378 . S
C665 C664 1.367 . S
C665 C673 1.433 . S
C666 H662 0.929 . S
C666 C668 1.378 . S
C666 C670 1.350 . S
C667 C670 1.463 1_455 S
C667 C672 1.350 . S
C667 N675 1.427 . S
C668 H659 0.930 . S
C668 C666 1.378 . S
C668 C669 1.367 . S
C669 C668 1.367 . S
C669 C671 1.433 . S
C670 C666 1.350 . S
C670 C667 1.463 1_655 S
C670 N674 1.427 . S
C671 H661 0.929 . S
C671 C669 1.433 . S
C671 N674 1.384 . S
C672 H663 0.929 . S
C672 C664 1.378 . S
C672 C667 1.350 . S
C673 H660 0.929 . S
C673 C665 1.433 . S
C673 N675 1.384 . S
N674 C670 1.427 . S
N674 C671 1.384 . S
N675 C667 1.427 . S
N675 C673 1.384 . S
H676 C682 0.930 . S
H677 C686 0.930 . S
H678 C691 0.929 . S
H679 C689 0.929 . S
H680 C684 0.929 . S
H681 C690 0.929 . S
C682 H676 0.930 . S
C682 C683 1.367 . S
C682 C690 1.378 . S
C683 C682 1.367 . S
C683 C691 1.433 . S
C684 H680 0.929 . S
C684 C686 1.378 . S
C684 C688 1.350 . S
C685 C688 1.463 . S
C685 C690 1.350 . S
C685 N693 1.427 . S
C686 H677 0.930 . S
C686 C684 1.378 . S
C686 C687 1.367 . S
C687 C686 1.367 . S
C687 C689 1.433 . S
C688 C684 1.350 . S
C688 C685 1.463 . S
C688 N692 1.427 . S
C689 H679 0.929 . S
C689 C687 1.433 . S
C689 N692 1.384 . S
C690 H681 0.929 . S
C690 C682 1.378 . S
C690 C685 1.350 . S
C691 H678 0.929 . S
C691 C683 1.433 . S
C691 N693 1.384 . S
N692 C688 1.427 . S
N692 C689 1.384 . S
N693 C685 1.427 . S
N693 C691 1.384 . S
H694 C700 0.930 . S
H695 C704 0.930 . S
H696 C709 0.929 . S
H697 C707 0.929 . S
H698 C702 0.929 . S
H699 C708 0.929 . S
C700 H694 0.930 . S
C700 C701 1.367 . S
C700 C708 1.378 . S
C701 C700 1.367 . S
C701 C709 1.433 1_554 S
C702 H698 0.929 . S
C702 C704 1.378 . S
C702 C706 1.350 . S
C703 C706 1.463 1_554 S
C703 C708 1.350 . S
C703 N711 1.427 1_554 S
C704 H695 0.930 . S
C704 C702 1.378 . S
C704 C705 1.367 . S
C705 C704 1.367 . S
C705 C707 1.433 1_556 S
C706 C702 1.350 . S
C706 C703 1.463 1_556 S
C706 N710 1.427 1_556 S
C707 H697 0.929 . S
C707 C705 1.433 1_554 S
C707 N710 1.384 . S
C708 H699 0.929 . S
C708 C700 1.378 . S
C708 C703 1.350 . S
C709 H696 0.929 . S
C709 C701 1.433 1_556 S
C709 N711 1.384 . S
N710 C706 1.427 1_554 S
N710 C707 1.384 . S
N711 C703 1.427 1_556 S
N711 C709 1.384 . S
H712 C718 0.930 . S
H713 C722 0.930 . S
H714 C727 0.929 . S
H715 C725 0.929 . S
H716 C720 0.929 . S
H717 C726 0.929 . S
C718 H712 0.930 . S
C718 C719 1.367 . S
C718 C726 1.378 . S
C719 C718 1.367 . S
C719 C727 1.433 . S
C720 H716 0.929 . S
C720 C722 1.378 . S
C720 C724 1.350 . S
C721 C724 1.463 . S
C721 C726 1.350 . S
C721 N729 1.427 . S
C722 H713 0.930 . S
C722 C720 1.378 . S
C722 C723 1.367 . S
C723 C722 1.367 . S
C723 C725 1.433 . S
C724 C720 1.350 . S
C724 C721 1.463 . S
C724 N728 1.427 . S
C725 H715 0.929 . S
C725 C723 1.433 . S
C725 N728 1.384 . S
C726 H717 0.929 . S
C726 C718 1.378 . S
C726 C721 1.350 . S
C727 H714 0.929 . S
C727 C719 1.433 . S
C727 N729 1.384 . S
N728 C724 1.427 . S
N728 C725 1.384 . S
N729 C721 1.427 . S
N729 C727 1.384 . S
H730 C736 0.930 . S
H731 C740 0.930 . S
H732 C745 0.929 . S
H733 C743 0.929 . S
H734 C738 0.929 . S
H735 C744 0.929 . S
C736 H730 0.930 . S
C736 C737 1.367 . S
C736 C744 1.378 . S
C737 C736 1.367 . S
C737 C745 1.433 . S
C738 H734 0.929 . S
C738 C740 1.378 . S
C738 C742 1.350 . S
C739 C742 1.463 . S
C739 C744 1.350 . S
C739 N747 1.427 . S
C740 H731 0.930 . S
C740 C738 1.378 . S
C740 C741 1.367 . S
C741 C740 1.367 . S
C741 C743 1.433 . S
C742 C738 1.350 . S
C742 C739 1.463 . S
C742 N746 1.427 . S
C743 H733 0.929 . S
C743 C741 1.433 . S
C743 N746 1.384 . S
C744 H735 0.929 . S
C744 C736 1.378 . S
C744 C739 1.350 . S
C745 H732 0.929 . S
C745 C737 1.433 . S
C745 N747 1.384 . S
N746 C742 1.427 . S
N746 C743 1.384 . S
N747 C739 1.427 . S
N747 C745 1.384 . S
H748 C754 0.930 . S
H749 C758 0.930 . S
H750 C763 0.929 . S
H751 C761 0.929 . S
H752 C756 0.929 . S
H753 C762 0.929 . S
C754 H748 0.930 . S
C754 C755 1.367 1_554 S
C754 C762 1.378 . S
C755 C754 1.367 1_556 S
C755 C763 1.433 . S
C756 H752 0.929 . S
C756 C758 1.378 . S
C756 C760 1.324 1_556 S
C757 C760 1.461 1_566 S
C757 C762 1.324 1_556 S
C757 N765 1.457 . S
C758 H749 0.930 . S
C758 C756 1.378 . S
C758 C759 1.367 1_556 S
C759 C758 1.367 1_554 S
C759 C761 1.433 . S
C760 C756 1.324 1_554 S
C760 C757 1.461 1_544 S
C760 N764 1.457 . S
C761 H751 0.929 . S
C761 C759 1.433 . S
C761 N764 1.384 . S
C762 H753 0.929 . S
C762 C754 1.378 . S
C762 C757 1.324 1_554 S
C763 H750 0.929 . S
C763 C755 1.433 . S
C763 N765 1.384 . S
N764 C760 1.457 . S
N764 C761 1.384 . S
N765 C757 1.457 . S
N765 C763 1.384 . S
H766 C772 0.930 . S
H767 C776 0.930 . S
H768 C781 0.921 1_545 S
H769 C779 0.921 1_565 S
H770 C774 0.929 . S
H771 C780 0.929 . S
C772 H766 0.930 . S
C772 C773 1.367 . S
C772 C780 1.378 . S
C773 C772 1.367 . S
C773 C781 1.448 . S
C774 H770 0.929 . S
C774 C776 1.378 . S
C774 C778 1.350 . S
C775 C778 1.463 1_465 S
C775 C780 1.350 . S
C775 N783 1.427 1_565 S
C776 H767 0.930 . S
C776 C774 1.378 . S
C776 C777 1.367 . S
C777 C776 1.367 . S
C777 C779 1.448 . S
C778 C774 1.350 . S
C778 C775 1.463 1_645 S
C778 N782 1.427 1_545 S
C779 H769 0.921 1_545 S
C779 C777 1.448 . S
C779 N782 1.378 1_545 S
C780 H771 0.929 . S
C780 C772 1.378 . S
C780 C775 1.350 . S
C781 H768 0.921 1_565 S
C781 C773 1.448 . S
C781 N783 1.378 1_565 S
N782 C778 1.427 1_565 S
N782 C779 1.378 1_565 S
N783 C775 1.427 1_545 S
N783 C781 1.378 1_545 S
H784 C790 0.930 . S
H785 C794 0.930 . S
H786 C799 0.929 . S
H787 C797 0.929 . S
H788 C792 0.929 . S
H789 C798 0.929 . S
C790 H784 0.930 . S
C790 C791 1.367 . S
C790 C798 1.378 . S
C791 C790 1.367 . S
C791 C799 1.433 . S
C792 H788 0.929 . S
C792 C794 1.378 . S
C792 C796 1.350 . S
C793 C796 1.463 . S
C793 C798 1.350 . S
C793 N801 1.427 . S
C794 H785 0.930 . S
C794 C792 1.378 . S
C794 C795 1.367 . S
C795 C794 1.367 . S
C795 C797 1.433 . S
C796 C792 1.350 . S
C796 C793 1.463 . S
C796 N800 1.427 . S
C797 H787 0.929 . S
C797 C795 1.433 . S
C797 N800 1.384 . S
C798 H789 0.929 . S
C798 C790 1.378 . S
C798 C793 1.350 . S
C799 H786 0.929 . S
C799 C791 1.433 . S
C799 N801 1.384 . S
N800 C796 1.427 . S
N800 C797 1.384 . S
N801 C793 1.427 . S
N801 C799 1.384 . S
H802 C808 0.930 . S
H803 C812 0.930 . S
H804 C817 0.929 . S
H805 C815 0.929 . S
H806 C810 0.929 . S
H807 C816 0.929 . S
C808 H802 0.930 . S
C808 C809 1.367 . S
C808 C816 1.378 . S
C809 C808 1.367 . S
C809 C817 1.433 . S
C810 H806 0.929 . S
C810 C812 1.378 . S
C810 C814 1.350 . S
C811 C814 1.463 . S
C811 C816 1.350 . S
C811 N819 1.427 . S
C812 H803 0.930 . S
C812 C810 1.378 . S
C812 C813 1.367 . S
C813 C812 1.367 . S
C813 C815 1.433 . S
C814 C810 1.350 . S
C814 C811 1.463 . S
C814 N818 1.427 . S
C815 H805 0.929 . S
C815 C813 1.433 . S
C815 N818 1.384 . S
C816 H807 0.929 . S
C816 C808 1.378 . S
C816 C811 1.350 . S
C817 H804 0.929 . S
C817 C809 1.433 . S
C817 N819 1.384 . S
N818 C814 1.427 . S
N818 C815 1.384 . S
N819 C811 1.427 . S
N819 C817 1.384 . S
H820 C826 0.930 . S
H821 C830 0.930 . S
H822 C835 0.929 . S
H823 C833 0.929 . S
H824 C828 0.929 . S
H825 C834 0.929 . S
C826 H820 0.930 . S
C826 C827 1.367 . S
C826 C834 1.378 . S
C827 C826 1.367 . S
C827 C835 1.433 . S
C828 H824 0.929 . S
C828 C830 1.378 . S
C828 C832 1.350 . S
C829 C832 1.463 . S
C829 C834 1.350 . S
C829 N837 1.427 . S
C830 H821 0.930 . S
C830 C828 1.378 . S
C830 C831 1.367 . S
C831 C830 1.367 . S
C831 C833 1.433 . S
C832 C828 1.350 . S
C832 C829 1.463 . S
C832 N836 1.427 . S
C833 H823 0.929 . S
C833 C831 1.433 . S
C833 N836 1.384 . S
C834 H825 0.929 . S
C834 C826 1.378 . S
C834 C829 1.350 . S
C835 H822 0.929 . S
C835 C827 1.433 . S
C835 N837 1.384 . S
N836 C832 1.427 . S
N836 C833 1.384 . S
N837 C829 1.427 . S
N837 C835 1.384 . S
H838 C844 0.930 . S
H839 C848 0.930 . S
H840 C853 0.929 . S
H841 C851 0.929 . S
H842 C846 0.929 . S
H843 C852 0.929 . S
C844 H838 0.930 . S
C844 C845 1.367 . S
C844 C852 1.378 . S
C845 C844 1.367 . S
C845 C853 1.433 . S
C846 H842 0.929 . S
C846 C848 1.378 . S
C846 C850 1.350 . S
C847 C850 1.463 . S
C847 C852 1.350 . S
C847 N855 1.427 . S
C848 H839 0.930 . S
C848 C846 1.378 . S
C848 C849 1.367 . S
C849 C848 1.367 . S
C849 C851 1.433 . S
C850 C846 1.350 . S
C850 C847 1.463 . S
C850 N854 1.427 . S
C851 H841 0.929 . S
C851 C849 1.433 . S
C851 N854 1.384 . S
C852 H843 0.929 . S
C852 C844 1.378 . S
C852 C847 1.350 . S
C853 H840 0.929 . S
C853 C845 1.433 . S
C853 N855 1.384 . S
N854 C850 1.427 . S
N854 C851 1.384 . S
N855 C847 1.427 . S
N855 C853 1.384 . S
H856 C862 0.930 . S
H857 C866 0.930 . S
H858 C871 0.929 . S
H859 C869 0.929 . S
H860 C864 0.929 . S
H861 C870 0.929 . S
C862 H856 0.930 . S
C862 C863 1.367 . S
C862 C870 1.378 . S
C863 C862 1.367 . S
C863 C871 1.433 . S
C864 H860 0.929 . S
C864 C866 1.378 . S
C864 C868 1.350 . S
C865 C868 1.463 . S
C865 C870 1.350 . S
C865 N873 1.427 . S
C866 H857 0.930 . S
C866 C864 1.378 . S
C866 C867 1.367 . S
C867 C866 1.367 . S
C867 C869 1.433 . S
C868 C864 1.350 . S
C868 C865 1.463 . S
C868 N872 1.427 . S
C869 H859 0.929 . S
C869 C867 1.433 . S
C869 N872 1.384 . S
C870 H861 0.929 . S
C870 C862 1.378 . S
C870 C865 1.350 . S
C871 H858 0.929 . S
C871 C863 1.433 . S
C871 N873 1.384 . S
N872 C868 1.427 . S
N872 C869 1.384 . S
N873 C865 1.427 . S
N873 C871 1.384 . S
H874 C880 0.930 . S
H875 C884 0.930 . S
H876 C889 0.929 . S
H877 C887 0.929 . S
H878 C882 0.929 . S
H879 C888 0.929 . S
C880 H874 0.930 . S
C880 C881 1.367 . S
C880 C888 1.378 . S
C881 C880 1.367 . S
C881 C889 1.433 . S
C882 H878 0.929 . S
C882 C884 1.378 . S
C882 C886 1.350 . S
C883 C886 1.463 . S
C883 C888 1.350 . S
C883 N891 1.427 . S
C884 H875 0.930 . S
C884 C882 1.378 . S
C884 C885 1.367 . S
C885 C884 1.367 . S
C885 C887 1.433 . S
C886 C882 1.350 . S
C886 C883 1.463 . S
C886 N890 1.427 . S
C887 H877 0.929 . S
C887 C885 1.433 . S
C887 N890 1.384 . S
C888 H879 0.929 . S
C888 C880 1.378 . S
C888 C883 1.350 . S
C889 H876 0.929 . S
C889 C881 1.433 . S
C889 N891 1.384 . S
N890 C886 1.427 . S
N890 C887 1.384 . S
N891 C883 1.427 . S
N891 C889 1.384 . S
H892 C898 0.930 . S
H893 C902 0.930 . S
H894 C907 0.929 . S
H895 C905 0.929 . S
H896 C900 0.929 . S
H897 C906 0.929 . S
C898 H892 0.930 . S
C898 C899 1.367 . S
C898 C906 1.378 . S
C899 C898 1.367 . S
C899 C907 1.433 . S
C900 H896 0.929 . S
C900 C902 1.378 . S
C900 C904 1.350 . S
C901 C904 1.463 . S
C901 C906 1.350 . S
C901 N909 1.427 . S
C902 H893 0.930 . S
C902 C900 1.378 . S
C902 C903 1.367 . S
C903 C902 1.367 . S
C903 C905 1.433 . S
C904 C900 1.350 . S
C904 C901 1.463 . S
C904 N908 1.427 . S
C905 H895 0.929 . S
C905 C903 1.433 . S
C905 N908 1.384 . S
C906 H897 0.929 . S
C906 C898 1.378 . S
C906 C901 1.350 . S
C907 H894 0.929 . S
C907 C899 1.433 . S
C907 N909 1.384 . S
N908 C904 1.427 . S
N908 C905 1.384 . S
N909 C901 1.427 . S
N909 C907 1.384 . S
H910 C916 0.930 . S
H911 C920 0.930 . S
H912 C925 0.929 . S
H913 C923 0.929 . S
H914 C918 0.929 . S
H915 C924 0.929 . S
C916 H910 0.930 . S
C916 C917 1.367 . S
C916 C924 1.378 . S
C917 C916 1.367 . S
C917 C925 1.433 . S
C918 H914 0.929 . S
C918 C920 1.378 . S
C918 C922 1.350 . S
C919 C922 1.463 . S
C919 C924 1.350 . S
C919 N927 1.427 . S
C920 H911 0.930 . S
C920 C918 1.378 . S
C920 C921 1.367 . S
C921 C920 1.367 . S
C921 C923 1.433 . S
C922 C918 1.350 . S
C922 C919 1.463 . S
C922 N926 1.427 . S
C923 H913 0.929 . S
C923 C921 1.433 . S
C923 N926 1.384 . S
C924 H915 0.929 . S
C924 C916 1.378 . S
C924 C919 1.350 . S
C925 H912 0.929 . S
C925 C917 1.433 . S
C925 N927 1.384 . S
N926 C922 1.427 . S
N926 C923 1.384 . S
N927 C919 1.427 . S
N927 C925 1.384 . S
H928 C934 0.930 . S
H929 C938 0.930 . S
H930 C943 0.929 . S
H931 C941 0.929 . S
H932 C936 0.929 . S
H933 C942 0.929 1_545 S
C934 H928 0.930 . S
C934 C935 1.367 1_545 S
C934 C942 1.378 1_545 S
C935 C934 1.367 1_565 S
C935 C943 1.433 . S
C936 H932 0.929 . S
C936 C938 1.378 . S
C936 C940 1.350 . S
C937 C940 1.463 . S
C937 C942 1.350 . S
C937 N945 1.427 . S
C938 H929 0.930 . S
C938 C936 1.378 . S
C938 C939 1.367 . S
C939 C938 1.367 . S
C939 C941 1.433 . S
C940 C936 1.350 . S
C940 C937 1.463 . S
C940 N944 1.427 . S
C941 H931 0.929 . S
C941 C939 1.433 . S
C941 N944 1.384 . S
C942 H933 0.929 1_565 S
C942 C934 1.378 1_565 S
C942 C937 1.350 . S
C943 H930 0.929 . S
C943 C935 1.433 . S
C943 N945 1.384 . S
N944 C940 1.427 . S
N944 C941 1.384 . S
N945 C937 1.427 . S
N945 C943 1.384 . S
H946 C952 0.930 . S
H947 C956 0.930 . S
H948 C961 0.929 . S
H949 C959 0.929 . S
H950 C954 0.929 . S
H951 C960 0.929 . S
C952 H946 0.930 . S
C952 C953 1.367 . S
C952 C960 1.378 . S
C953 C952 1.367 . S
C953 C961 1.433 . S
C954 H950 0.929 . S
C954 C956 1.378 . S
C954 C958 1.350 . S
C955 C958 1.463 . S
C955 C960 1.350 . S
C955 N963 1.427 . S
C956 H947 0.930 . S
C956 C954 1.378 . S
C956 C957 1.367 . S
C957 C956 1.367 . S
C957 C959 1.433 1_565 S
C958 C954 1.350 . S
C958 C955 1.463 . S
C958 N962 1.427 . S
C959 H949 0.929 . S
C959 C957 1.433 1_545 S
C959 N962 1.384 1_545 S
C960 H951 0.929 . S
C960 C952 1.378 . S
C960 C955 1.350 . S
C961 H948 0.929 . S
C961 C953 1.433 . S
C961 N963 1.384 . S
N962 C958 1.427 . S
N962 C959 1.384 1_565 S
N963 C955 1.427 . S
N963 C961 1.384 . S
H964 C970 0.930 1_565 S
H965 C974 0.930 . S
H966 C979 0.929 . S
H967 C977 0.929 . S
H968 C972 0.929 . S
H969 C978 0.929 1_565 S
C970 H964 0.930 1_545 S
C970 C971 1.367 . S
C970 C978 1.378 . S
C971 C970 1.367 . S
C971 C979 1.433 . S
C972 H968 0.929 . S
C972 C974 1.378 . S
C972 C976 1.350 . S
C973 C976 1.463 . S
C973 C978 1.350 . S
C973 N981 1.427 . S
C974 H965 0.930 . S
C974 C972 1.378 . S
C974 C975 1.367 . S
C975 C974 1.367 . S
C975 C977 1.433 1_545 S
C976 C972 1.350 . S
C976 C973 1.463 . S
C976 N980 1.427 1_545 S
C977 H967 0.929 . S
C977 C975 1.433 1_565 S
C977 N980 1.384 . S
C978 H969 0.929 1_545 S
C978 C970 1.378 . S
C978 C973 1.350 . S
C979 H966 0.929 . S
C979 C971 1.433 . S
C979 N981 1.384 . S
N980 C976 1.427 1_565 S
N980 C977 1.384 . S
N981 C973 1.427 . S
N981 C979 1.384 . S
H982 C988 0.930 . S
H983 C992 0.930 . S
H984 C997 0.929 . S
H985 C995 0.929 . S
H986 C990 0.929 . S
H987 C996 0.929 1_565 S
C988 H982 0.930 . S
C988 C989 1.367 . S
C988 C996 1.378 . S
C989 C988 1.367 . S
C989 C997 1.433 . S
C990 H986 0.929 . S
C990 C992 1.378 . S
C990 C994 1.350 . S
C991 C994 1.463 . S
C991 C996 1.350 . S
C991 N999 1.427 . S
C992 H983 0.930 . S
C992 C990 1.378 . S
C992 C993 1.367 . S
C993 C992 1.367 . S
C993 C995 1.433 1_545 S
C994 C990 1.350 . S
C994 C991 1.463 . S
C994 N998 1.430 . S
C995 H985 0.929 . S
C995 C993 1.433 1_565 S
C995 N998 1.383 1_565 S
C996 H987 0.929 1_545 S
C996 C988 1.378 . S
C996 C991 1.350 . S
C997 H984 0.929 . S
C997 C989 1.433 . S
C997 N999 1.384 . S
N998 C994 1.430 . S
N998 C995 1.383 1_545 S
N999 C991 1.427 . S
N999 C997 1.384 . S
H1000 C1006 0.930 . S
H1001 C1010 0.930 . S
H1002 C1015 0.929 . S
H1003 C1013 0.929 . S
H1004 C1008 0.929 . S
H1005 C1014 0.929 1_565 S
C1006 H1000 0.930 . S
C1006 C1007 1.367 . S
C1006 C1014 1.378 . S
C1007 C1006 1.367 . S
C1007 C1015 1.433 . S
C1008 H1004 0.929 . S
C1008 C1010 1.378 . S
C1008 C1012 1.350 . S
C1009 C1012 1.463 . S
C1009 C1014 1.350 . S
C1009 N1017 1.427 . S
C1010 H1001 0.930 . S
C1010 C1008 1.378 . S
C1010 C1011 1.367 . S
C1011 C1010 1.367 . S
C1011 C1013 1.433 1_545 S
C1012 C1008 1.350 . S
C1012 C1009 1.463 . S
C1012 N1016 1.432 . S
C1013 H1003 0.929 . S
C1013 C1011 1.433 1_565 S
C1013 N1016 1.383 1_565 S
C1014 H1005 0.929 1_545 S
C1014 C1006 1.378 . S
C1014 C1009 1.350 . S
C1015 H1002 0.929 . S
C1015 C1007 1.433 . S
C1015 N1017 1.384 . S
N1016 C1012 1.432 . S
N1016 C1013 1.383 1_545 S
N1017 C1009 1.427 . S
N1017 C1015 1.384 . S
H1018 C1024 0.930 . S
H1019 C1028 0.930 . S
H1020 C1033 0.929 . S
H1021 C1031 0.929 . S
H1022 C1026 0.929 . S
H1023 C1032 0.929 . S
C1024 H1018 0.930 . S
C1024 C1025 1.367 . S
C1024 C1032 1.378 . S
C1025 C1024 1.367 . S
C1025 C1033 1.433 . S
C1026 H1022 0.929 . S
C1026 C1028 1.378 . S
C1026 C1030 1.350 . S
C1027 C1030 1.463 . S
C1027 C1032 1.350 . S
C1027 N1035 1.427 . S
C1028 H1019 0.930 . S
C1028 C1026 1.378 . S
C1028 C1029 1.367 . S
C1029 C1028 1.367 . S
C1029 C1031 1.433 1_545 S
C1030 C1026 1.350 . S
C1030 C1027 1.463 . S
C1030 N1034 1.427 . S
C1031 H1021 0.929 . S
C1031 C1029 1.433 1_565 S
C1031 N1034 1.384 1_565 S
C1032 H1023 0.929 . S
C1032 C1024 1.378 . S
C1032 C1027 1.350 . S
C1033 H1020 0.929 . S
C1033 C1025 1.433 . S
C1033 N1035 1.384 . S
N1034 C1030 1.427 . S
N1034 C1031 1.384 1_545 S
N1035 C1027 1.427 . S
N1035 C1033 1.384 . S
H1036 C1042 0.930 . S
H1037 C1046 0.930 . S
H1038 C1051 0.929 . S
H1039 C1049 0.929 . S
H1040 C1044 0.929 1_545 S
H1041 C1050 0.929 . S
C1042 H1036 0.930 . S
C1042 C1043 1.367 . S
C1042 C1050 1.378 . S
C1043 C1042 1.367 . S
C1043 C1051 1.433 1_565 S
C1044 H1040 0.929 1_565 S
C1044 C1046 1.378 . S
C1044 C1048 1.350 . S
C1045 C1048 1.463 . S
C1045 C1050 1.350 . S
C1045 N1053 1.427 . S
C1046 H1037 0.930 . S
C1046 C1044 1.378 . S
C1046 C1047 1.367 . S
C1047 C1046 1.367 . S
C1047 C1049 1.433 . S
C1048 C1044 1.350 . S
C1048 C1045 1.463 . S
C1048 N1052 1.427 . S
C1049 H1039 0.929 . S
C1049 C1047 1.433 . S
C1049 N1052 1.384 . S
C1050 H1041 0.929 . S
C1050 C1042 1.378 . S
C1050 C1045 1.350 . S
C1051 H1038 0.929 . S
C1051 C1043 1.433 1_545 S
C1051 N1053 1.384 1_545 S
N1052 C1048 1.427 . S
N1052 C1049 1.384 . S
N1053 C1045 1.427 . S
N1053 C1051 1.384 1_565 S
H1054 C1060 0.930 . S
H1055 C1064 0.930 . S
H1056 C1069 0.929 . S
H1057 C1067 0.929 . S
H1058 C1062 0.929 . S
H1059 C1068 0.926 1_545 S
C1060 H1054 0.930 . S
C1060 C1061 1.367 1_545 S
C1060 C1068 1.376 1_545 S
C1061 C1060 1.367 1_565 S
C1061 C1069 1.433 . S
C1062 H1058 0.929 . S
C1062 C1064 1.378 . S
C1062 C1066 1.350 . S
C1063 C1066 1.463 . S
C1063 C1068 1.354 . S
C1063 N1071 1.427 . S
C1064 H1055 0.930 . S
C1064 C1062 1.378 . S
C1064 C1065 1.367 . S
C1065 C1064 1.367 . S
C1065 C1067 1.433 . S
C1066 C1062 1.350 . S
C1066 C1063 1.463 . S
C1066 N1070 1.427 . S
C1067 H1057 0.929 . S
C1067 C1065 1.433 . S
C1067 N1070 1.384 . S
C1068 H1059 0.926 1_565 S
C1068 C1060 1.376 1_565 S
C1068 C1063 1.354 . S
C1069 H1056 0.929 . S
C1069 C1061 1.433 . S
C1069 N1071 1.384 . S
N1070 C1066 1.427 . S
N1070 C1067 1.384 . S
N1071 C1063 1.427 . S
N1071 C1069 1.384 . S
H1072 C1078 0.930 . S
H1073 C1082 0.930 . S
H1074 C1087 0.929 . S
H1075 C1085 0.929 . S
H1076 C1080 0.929 1_455 S
H1077 C1086 0.929 1_655 S
C1078 H1072 0.930 . S
C1078 C1079 1.367 . S
C1078 C1086 1.378 . S
C1079 C1078 1.367 . S
C1079 C1087 1.433 . S
C1080 H1076 0.929 1_655 S
C1080 C1082 1.378 . S
C1080 C1084 1.350 . S
C1081 C1084 1.463 1_455 S
C1081 C1086 1.350 . S
C1081 N1089 1.427 . S
C1082 H1073 0.930 . S
C1082 C1080 1.378 . S
C1082 C1083 1.367 . S
C1083 C1082 1.367 . S
C1083 C1085 1.433 . S
C1084 C1080 1.350 . S
C1084 C1081 1.463 1_655 S
C1084 N1088 1.427 . S
C1085 H1075 0.929 . S
C1085 C1083 1.433 . S
C1085 N1088 1.384 . S
C1086 H1077 0.929 1_455 S
C1086 C1078 1.378 . S
C1086 C1081 1.350 . S
C1087 H1074 0.929 . S
C1087 C1079 1.433 . S
C1087 N1089 1.384 . S
N1088 C1084 1.427 . S
N1088 C1085 1.384 . S
N1089 C1081 1.427 . S
N1089 C1087 1.384 . S
H1090 C1096 0.930 . S
H1091 C1100 0.930 . S
H1092 C1105 0.929 . S
H1093 C1103 0.929 . S
H1094 C1098 0.929 . S
H1095 C1104 0.929 . S
C1096 H1090 0.930 . S
C1096 C1097 1.367 . S
C1096 C1104 1.378 . S
C1097 C1096 1.367 . S
C1097 C1105 1.433 . S
C1098 H1094 0.929 . S
C1098 C1100 1.378 . S
C1098 C1102 1.350 . S
C1099 C1102 1.463 1_455 S
C1099 C1104 1.350 . S
C1099 N1107 1.427 . S
C1100 H1091 0.930 . S
C1100 C1098 1.378 . S
C1100 C1101 1.367 . S
C1101 C1100 1.367 . S
C1101 C1103 1.433 . S
C1102 C1098 1.350 . S
C1102 C1099 1.463 1_655 S
C1102 N1106 1.427 . S
C1103 H1093 0.929 . S
C1103 C1101 1.433 . S
C1103 N1106 1.384 . S
C1104 H1095 0.929 . S
C1104 C1096 1.378 . S
C1104 C1099 1.350 . S
C1105 H1092 0.929 . S
C1105 C1097 1.433 . S
C1105 N1107 1.384 . S
N1106 C1102 1.427 . S
N1106 C1103 1.384 . S
N1107 C1099 1.427 . S
N1107 C1105 1.384 . S
H1108 C1114 0.930 . S
H1109 C1118 0.930 . S
H1110 C1123 0.929 . S
H1111 C1121 0.929 . S
H1112 C1116 0.929 . S
H1113 C1122 0.929 . S
C1114 H1108 0.930 . S
C1114 C1115 1.367 . S
C1114 C1122 1.378 . S
C1115 C1114 1.367 . S
C1115 C1123 1.433 . S
C1116 H1112 0.929 . S
C1116 C1118 1.378 . S
C1116 C1120 1.350 . S
C1117 C1120 1.463 . S
C1117 C1122 1.350 . S
C1117 N1125 1.427 . S
C1118 H1109 0.930 . S
C1118 C1116 1.378 . S
C1118 C1119 1.367 . S
C1119 C1118 1.367 . S
C1119 C1121 1.433 . S
C1120 C1116 1.350 . S
C1120 C1117 1.463 . S
C1120 N1124 1.427 . S
C1121 H1111 0.929 . S
C1121 C1119 1.433 . S
C1121 N1124 1.384 . S
C1122 H1113 0.929 . S
C1122 C1114 1.378 . S
C1122 C1117 1.350 . S
C1123 H1110 0.929 . S
C1123 C1115 1.433 . S
C1123 N1125 1.384 . S
N1124 C1120 1.427 . S
N1124 C1121 1.384 . S
N1125 C1117 1.427 . S
N1125 C1123 1.384 . S
H1126 C1132 0.930 . S
H1127 C1136 0.930 . S
H1128 C1141 0.929 . S
H1129 C1139 0.929 . S
H1130 C1134 0.929 . S
H1131 C1140 0.929 . S
C1132 H1126 0.930 . S
C1132 C1133 1.367 . S
C1132 C1140 1.378 . S
C1133 C1132 1.367 . S
C1133 C1141 1.433 . S
C1134 H1130 0.929 . S
C1134 C1136 1.378 . S
C1134 C1138 1.350 . S
C1135 C1138 1.463 . S
C1135 C1140 1.350 . S
C1135 N1143 1.427 . S
C1136 H1127 0.930 . S
C1136 C1134 1.378 . S
C1136 C1137 1.367 . S
C1137 C1136 1.367 . S
C1137 C1139 1.433 . S
C1138 C1134 1.350 . S
C1138 C1135 1.463 . S
C1138 N1142 1.427 . S
C1139 H1129 0.929 . S
C1139 C1137 1.433 . S
C1139 N1142 1.384 . S
C1140 H1131 0.929 . S
C1140 C1132 1.378 . S
C1140 C1135 1.350 . S
C1141 H1128 0.929 . S
C1141 C1133 1.433 . S
C1141 N1143 1.384 . S
N1142 C1138 1.427 . S
N1142 C1139 1.384 . S
N1143 C1135 1.427 . S
N1143 C1141 1.384 . S
H1144 C1150 0.930 . S
H1145 C1154 0.930 . S
H1146 C1159 0.929 . S
H1147 C1157 0.929 . S
H1148 C1152 0.929 . S
H1149 C1158 0.929 . S
C1150 H1144 0.930 . S
C1150 C1151 1.367 . S
C1150 C1158 1.378 1_455 S
C1151 C1150 1.367 . S
C1151 C1159 1.433 . S
C1152 H1148 0.929 . S
C1152 C1154 1.378 1_455 S
C1152 C1156 1.350 1_455 S
C1153 C1156 1.463 1_455 S
C1153 C1158 1.350 1_455 S
C1153 N1161 1.427 . S
C1154 H1145 0.930 . S
C1154 C1152 1.378 1_655 S
C1154 C1155 1.367 . S
C1155 C1154 1.367 . S
C1155 C1157 1.433 . S
C1156 C1152 1.350 1_655 S
C1156 C1153 1.463 1_655 S
C1156 N1160 1.427 . S
C1157 H1147 0.929 . S
C1157 C1155 1.433 . S
C1157 N1160 1.384 . S
C1158 H1149 0.929 . S
C1158 C1150 1.378 1_655 S
C1158 C1153 1.350 1_655 S
C1159 H1146 0.929 . S
C1159 C1151 1.433 . S
C1159 N1161 1.384 . S
N1160 C1156 1.427 . S
N1160 C1157 1.384 . S
N1161 C1153 1.427 . S
N1161 C1159 1.384 . S
H1162 C1168 0.930 . S
H1163 C1172 0.930 . S
H1164 C1177 0.929 . S
H1165 C1175 0.929 . S
H1166 C1170 0.929 . S
H1167 C1176 0.929 . S
C1168 H1162 0.930 . S
C1168 C1169 1.367 . S
C1168 C1176 1.378 . S
C1169 C1168 1.367 . S
C1169 C1177 1.433 . S
C1170 H1166 0.929 . S
C1170 C1172 1.378 . S
C1170 C1174 1.350 . S
C1171 C1174 1.463 1_655 S
C1171 C1176 1.350 . S
C1171 N1179 1.427 . S
C1172 H1163 0.930 . S
C1172 C1170 1.378 . S
C1172 C1173 1.367 . S
C1173 C1172 1.367 . S
C1173 C1175 1.433 . S
C1174 C1170 1.350 . S
C1174 C1171 1.463 1_455 S
C1174 N1178 1.427 . S
C1175 H1165 0.929 . S
C1175 C1173 1.433 . S
C1175 N1178 1.384 . S
C1176 H1167 0.929 . S
C1176 C1168 1.378 . S
C1176 C1171 1.350 . S
C1177 H1164 0.929 . S
C1177 C1169 1.433 . S
C1177 N1179 1.384 . S
N1178 C1174 1.427 . S
N1178 C1175 1.384 . S
N1179 C1171 1.427 . S
N1179 C1177 1.384 . S
H1180 C1186 0.930 . S
H1181 C1190 0.930 . S
H1182 C1195 0.929 . S
H1183 C1193 0.929 . S
H1184 C1188 0.929 . S
H1185 C1194 0.929 . S
C1186 H1180 0.930 . S
C1186 C1187 1.367 . S
C1186 C1194 1.378 . S
C1187 C1186 1.367 . S
C1187 C1195 1.433 . S
C1188 H1184 0.929 . S
C1188 C1190 1.378 . S
C1188 C1192 1.350 . S
C1189 C1192 1.463 . S
C1189 C1194 1.350 . S
C1189 N1197 1.427 . S
C1190 H1181 0.930 . S
C1190 C1188 1.378 . S
C1190 C1191 1.367 . S
C1191 C1190 1.367 . S
C1191 C1193 1.433 . S
C1192 C1188 1.350 . S
C1192 C1189 1.463 . S
C1192 N1196 1.427 . S
C1193 H1183 0.929 . S
C1193 C1191 1.433 . S
C1193 N1196 1.384 . S
C1194 H1185 0.929 . S
C1194 C1186 1.378 . S
C1194 C1189 1.350 . S
C1195 H1182 0.929 . S
C1195 C1187 1.433 . S
C1195 N1197 1.384 . S
N1196 C1192 1.427 . S
N1196 C1193 1.384 . S
N1197 C1189 1.427 . S
N1197 C1195 1.384 . S
H1198 C1204 0.930 . S
H1199 C1208 0.930 . S
H1200 C1213 0.929 . S
H1201 C1211 0.929 . S
H1202 C1206 0.929 . S
H1203 C1212 0.929 . S
C1204 H1198 0.930 . S
C1204 C1205 1.367 . S
C1204 C1212 1.378 . S
C1205 C1204 1.367 . S
C1205 C1213 1.433 . S
C1206 H1202 0.929 . S
C1206 C1208 1.378 . S
C1206 C1210 1.350 . S
C1207 C1210 1.463 . S
C1207 C1212 1.350 . S
C1207 N1215 1.427 . S
C1208 H1199 0.930 . S
C1208 C1206 1.378 . S
C1208 C1209 1.367 . S
C1209 C1208 1.367 . S
C1209 C1211 1.433 . S
C1210 C1206 1.350 . S
C1210 C1207 1.463 . S
C1210 N1214 1.427 . S
C1211 H1201 0.929 . S
C1211 C1209 1.433 . S
C1211 N1214 1.384 . S
C1212 H1203 0.929 . S
C1212 C1204 1.378 . S
C1212 C1207 1.350 . S
C1213 H1200 0.929 . S
C1213 C1205 1.433 . S
C1213 N1215 1.384 . S
N1214 C1210 1.427 . S
N1214 C1211 1.384 . S
N1215 C1207 1.427 . S
N1215 C1213 1.384 . S
C359 C15 1.437 . S
C363 C140 1.403 . S
C377 C348 1.394 . S
C381 C29 1.438 . S
C395 C51 1.440 . S
C399 C98 1.394 . S
C413 C304 1.391 . S
C417 C73 1.439 . S
C431 C52 1.389 . S
C435 C109 1.440 . S
C449 C250 1.401 . S
C453 C125 1.437 . S
C467 C139 1.440 . S
C471 C18 1.395 . S
C485 C169 1.438 . S
C489 C216 1.397 . S
C503 C183 1.437 . S
C507 C316 1.402 . S
C521 C213 1.439 . S
C525 C172 1.401 . S
C539 C274 1.399 . S
C543 C227 1.439 . S
C557 C128 1.395 . S
C561 C249 1.438 . S
C575 C228 1.388 . S
C579 C285 1.441 . S
C593 C301 1.440 . S
C597 C74 1.395 . S
C611 C184 1.398 . S
C615 C315 1.437 . S
C629 C30 1.401 . S
C633 C345 1.437 . S
C647 C21 0.481 . S
C651 C271 0.481 . S
C665 C37 0.453 . S
C669 C131 0.453 . S
C683 C59 0.458 . S
C687 C323 0.458 . S
C701 C175 0.490 . S
C705 C81 0.490 . S
C719 C95 0.495 . S
C723 C191 0.495 . S
C737 C235 0.476 . S
C741 C147 0.476 . S
C755 C219 0.456 . S
C759 C307 0.456 . S
C773 C351 0.472 . S
C777 C257 0.472 . S
C791 C10 1.436 . S
C795 C43 1.443 . S
C809 C65 1.442 . S
C813 C40 1.435 . S
C827 C62 1.434 . S
C831 C87 1.438 . S
C845 C84 1.448 . S
C849 C7 1.453 . S
C863 C117 1.443 . S
C867 C96 1.440 . S
C881 C153 1.439 . S
C885 C120 1.433 . S
C899 C161 1.447 . S
C903 C150 1.440 . S
C917 C103 1.442 . S
C921 C164 1.435 . S
C935 C194 1.440 . S
C939 C205 1.447 . S
C953 C208 1.433 . S
C957 C241 1.438 . S
C971 C263 1.448 . S
C975 C238 1.446 . S
C989 C260 1.434 . S
C993 C197 1.438 . S
C1007 C293 1.445 . S
C1011 C272 1.443 . S
C1025 C296 1.433 . S
C1029 C329 1.438 . S
C1043 C326 1.448 . S
C1047 C337 1.452 . S
C1061 C279 1.453 . S
C1065 C340 1.447 . S
C1079 C8 1.534 . S
C1083 C230 1.524 . S
C1097 C32 1.534 . S
C1101 C252 1.525 . S
C1115 C54 1.524 . S
C1119 C186 1.535 . S
C1133 C206 1.523 . S
C1137 C76 1.535 . S
C1151 C318 1.529 . S
C1155 C106 1.531 . S
C1169 C118 1.535 . S
C1173 C338 1.523 . S
C1187 C142 1.534 . S
C1191 C282 1.525 . S
C1205 C294 1.527 . S
C1209 C162 1.528 . S
