# Generated by pormake.
# Topology mok, (4)-cn, num edge types: 1
# Building blocks:
#     Node 0, Type 0, BuildingBlock: QUQFOY_clean_sbu_3, # of connection points: 4
#     Node 1, Type 0, BuildingBlock: QUQFOY_clean_sbu_3, # of connection points: 4
#     Node 2, Type 0, BuildingBlock: QUQFOY_clean_sbu_3, # of connection points: 4
#     Node 3, Type 0, BuildingBlock: QUQFOY_clean_sbu_3, # of connection points: 4
#     Node 4, Type 0, BuildingBlock: QUQFOY_clean_sbu_3, # of connection points: 4
#     Node 5, Type 0, BuildingBlock: QUQFOY_clean_sbu_3, # of connection points: 4
#     Node 6, Type 0, BuildingBlock: QUQFOY_clean_sbu_3, # of connection points: 4
#     Node 7, Type 0, BuildingBlock: QUQFOY_clean_sbu_3, # of connection points: 4
#     Edge 8, Type (0, 0), BuildingBlock: CIFDUS_clean_linker_0, # of connection points: 2
#     Edge 9, Type (0, 0), BuildingBlock: CIFDUS_clean_linker_0, # of connection points: 2
#     Edge 10, Type (0, 0), BuildingBlock: CIFDUS_clean_linker_0, # of connection points: 2
#     Edge 11, Type (0, 0), BuildingBlock: CIFDUS_clean_linker_0, # of connection points: 2
#     Edge 12, Type (0, 0), BuildingBlock: CIFDUS_clean_linker_0, # of connection points: 2
#     Edge 13, Type (0, 0), BuildingBlock: CIFDUS_clean_linker_0, # of connection points: 2
#     Edge 14, Type (0, 0), BuildingBlock: CIFDUS_clean_linker_0, # of connection points: 2
#     Edge 15, Type (0, 0), BuildingBlock: CIFDUS_clean_linker_0, # of connection points: 2
#     Edge 16, Type (0, 0), BuildingBlock: CIFDUS_clean_linker_0, # of connection points: 2
#     Edge 17, Type (0, 0), BuildingBlock: CIFDUS_clean_linker_0, # of connection points: 2
#     Edge 18, Type (0, 0), BuildingBlock: CIFDUS_clean_linker_0, # of connection points: 2
#     Edge 19, Type (0, 0), BuildingBlock: CIFDUS_clean_linker_0, # of connection points: 2
#     Edge 20, Type (0, 0), BuildingBlock: CIFDUS_clean_linker_0, # of connection points: 2
#     Edge 21, Type (0, 0), BuildingBlock: CIFDUS_clean_linker_0, # of connection points: 2
#     Edge 22, Type (0, 0), BuildingBlock: CIFDUS_clean_linker_0, # of connection points: 2
#     Edge 23, Type (0, 0), BuildingBlock: CIFDUS_clean_linker_0, # of connection points: 2
# Relax obj value: 0.012
# Max RMSD: 0.032
# Mean RMSD: 0.032
data_MOF--net-mok--node1-QUQFOY_clean_sbu_3--edge1-CIFDUS_clean_linker_0
_symmetry_space_group_name_H-M    P1
_symmetry_Int_Tables_number       1
_symmetry_cell_setting            triclinic
loop_
_symmetry_equiv_pos_as_xyz
'x, y, z'
_cell_length_a     49.410466
_cell_length_b     14.459651
_cell_length_c     25.023472
_cell_angle_alpha  90.137131
_cell_angle_beta   89.604763
_cell_angle_gamma 89.853065
loop_
_atom_site_label
_atom_site_type_symbol
_atom_site_fract_x
_atom_site_fract_y
_atom_site_fract_z
_atom_type_partial_charge
C0 C 0.61016 0.45694 0.09922 0.0
O1 O 0.61775 0.52044 0.06758 0.0
Cd2 Cd 0.62368 0.49072 0.97425 0.0
O3 O 0.60362 0.37753 0.08165 0.0
Cd4 Cd 0.5978 0.28995 -0.00067 0.0
C5 C 0.6656 0.29943 -0.01893 0.0
O6 O 0.58243 0.41913 0.94732 0.0
O7 O 0.59143 0.29387 0.90332 0.0
O8 O 0.55394 0.2444 0.03267 0.0
C9 C 0.58231 0.37594 0.90328 0.0
O10 O 0.66227 0.38497 0.97091 0.0
C11 C 0.55738 0.15827 0.02569 0.0
O12 O 0.6456 0.24838 -0.00617 0.0
O13 O 0.58046 0.13208 0.00855 0.0
C14 C 0.37306 0.59417 0.10549 0.0
O15 O 0.36656 0.52494 0.07709 0.0
Cd16 Cd 0.3547 0.54728 -0.01557 0.0
O17 O 0.3765 0.67283 0.08409 0.0
Cd18 Cd 0.37798 0.74791 -0.00323 0.0
C19 C 0.31009 0.73028 -0.00478 0.0
O20 O 0.39099 0.62153 0.93664 0.0
O21 O 0.37634 0.74826 0.90058 0.0
O22 O 0.42333 0.79181 0.01931 0.0
C23 C 0.38633 0.66798 0.89454 0.0
O24 O 0.3142 0.64449 -0.01338 0.0
C25 C 0.41954 0.8784 0.01623 0.0
O26 O 0.32985 0.78539 0.00236 0.0
O27 O 0.39584 0.90574 0.00426 0.0
C28 C 0.59771 0.46422 0.41554 0.0
O29 O 0.60387 0.40119 0.44862 0.0
Cd30 Cd 0.60745 0.43115 0.54239 0.0
O31 O 0.5907 0.54454 0.43137 0.0
Cd32 Cd 0.58178 0.63745 0.51094 0.0
C33 C 0.64938 0.62361 0.53337 0.0
O34 O 0.56682 0.511 0.56461 0.0
O35 O 0.57324 0.6392 0.60666 0.0
O36 O 0.53888 0.68419 0.47355 0.0
C37 C 0.56612 0.55505 0.60834 0.0
O38 O 0.64564 0.53864 0.54474 0.0
C39 C 0.54263 0.77026 0.48015 0.0
O40 O 0.62978 0.67521 0.51888 0.0
O41 O 0.56537 0.79503 0.49882 0.0
C42 C 0.38444 0.46499 0.41423 0.0
O43 O 0.37701 0.53183 0.44396 0.0
Cd44 Cd 0.36687 0.50746 0.53752 0.0
O45 O 0.3898 0.38659 0.43442 0.0
Cd46 Cd 0.39356 0.3068 0.52001 0.0
C47 C 0.3253 0.31678 0.52442 0.0
O48 O 0.40382 0.43251 0.58148 0.0
O49 O 0.392 0.30127 0.61623 0.0
O50 O 0.43974 0.26791 0.49751 0.0
C51 C 0.39964 0.38412 0.62314 0.0
O52 O 0.32835 0.40257 0.53444 0.0
C53 C 0.43626 0.181 0.49754 0.0
O54 O 0.34569 0.26437 0.51584 0.0
O55 O 0.41251 0.15174 0.50777 0.0
C56 C 0.09281 0.00455 0.10016 0.0
O57 O 0.09949 0.06601 0.06641 0.0
Cd58 Cd 0.10895 0.02736 0.97446 0.0
O59 O 0.08779 0.92233 0.08512 0.0
Cd60 Cd 0.08359 0.82679 0.00468 0.0
C61 C 0.15168 0.84027 -0.00437 0.0
O62 O 0.07173 0.94296 0.93913 0.0
O63 O 0.08385 0.80849 0.90888 0.0
O64 O 0.03812 0.78799 0.03215 0.0
C65 C 0.07562 0.88984 0.89926 0.0
O66 O 0.14785 0.92378 -0.01874 0.0
C67 C 0.0417 0.70105 0.03147 0.0
O68 O 0.13183 0.7883 0.00837 0.0
O69 O 0.0654 0.67199 0.02017 0.0
C70 C 0.87801 0.01808 0.10432 0.0
O71 O 0.87107 0.95148 0.07424 0.0
Cd72 Cd 0.8636 0.97415 0.97962 0.0
O73 O 0.88425 0.09593 0.08434 0.0
Cd74 Cd 0.89047 0.17328 -0.00179 0.0
C75 C 0.82247 0.16756 -0.01345 0.0
O76 O 0.9017 0.04633 0.93747 0.0
O77 O 0.89102 0.17814 0.90215 0.0
O78 O 0.93622 0.21074 0.02333 0.0
C79 C 0.89847 0.09487 0.89559 0.0
O80 O 0.82553 0.08145 0.97727 0.0
C81 C 0.93307 0.2978 0.02158 0.0
O82 O 0.84269 0.21869 -0.00239 0.0
O83 O 0.90965 0.32777 0.00953 0.0
C84 C 0.10532 0.03465 0.41672 0.0
O85 O 0.11336 0.97277 0.44887 0.0
Cd86 Cd 0.12474 0.0114 0.53964 0.0
O87 O 0.10084 0.11657 0.43311 0.0
Cd88 Cd 0.0998 0.20912 0.51508 0.0
C89 C 0.16784 0.19579 0.51922 0.0
O90 O 0.08727 0.09152 0.57994 0.0
O91 O 0.10104 0.22302 0.61118 0.0
O92 O 0.05418 0.24919 0.49172 0.0
C93 C 0.09126 0.14352 0.62012 0.0
O94 O 0.16424 0.11185 0.53285 0.0
C95 C 0.05751 0.33609 0.4927 0.0
O96 O 0.14779 0.24783 0.50809 0.0
O97 O 0.08124 0.36534 0.50251 0.0
C98 C 0.86726 0.88562 0.41341 0.0
O99 O 0.86052 0.95407 0.44248 0.0
Cd100 Cd 0.85024 0.93062 0.53613 0.0
O101 O 0.87169 0.8072 0.43441 0.0
Cd102 Cd 0.87482 0.7338 0.52228 0.0
C103 C 0.80696 0.74455 0.53021 0.0
O104 O 0.88767 0.86072 0.58206 0.0
O105 O 0.87358 0.73347 0.61845 0.0
O106 O 0.92044 0.69274 0.49782 0.0
C107 C 0.88353 0.8136 0.62424 0.0
O108 O 0.81052 0.83062 0.53846 0.0
C109 C 0.91735 0.60601 0.50197 0.0
O110 O 0.82702 0.69118 0.52081 0.0
O111 O 0.89389 0.57734 0.51504 0.0
H112 H 0.77496 0.07437 -0.01747 0.0
H113 H 0.80797 0.35054 -0.01317 0.0
H114 H 0.76228 0.41541 -0.01633 0.0
H115 H 0.71309 0.39349 -0.01921 0.0
H116 H 0.68021 0.11706 0.97955 0.0
H117 H 0.72592 0.05245 0.9802 0.0
C118 C 0.77223 0.14883 -0.01738 0.0
C119 C 0.79489 0.20751 -0.01519 0.0
C120 C 0.74597 0.18555 -0.01869 0.0
C121 C 0.7909 0.30378 -0.0147 0.0
C122 C 0.76479 0.34092 -0.0166 0.0
C123 C 0.7159 0.31907 0.98033 0.0
C124 C 0.69326 0.26017 0.97995 0.0
C125 C 0.7422 0.28241 -0.01851 0.0
C126 C 0.69727 0.16394 0.97994 0.0
C127 C 0.7234 0.12694 0.98029 0.0
H128 H 0.19808 0.93989 -0.00731 0.0
H129 H 0.16831 0.66 0.00344 0.0
H130 H 0.21478 0.60155 0.0045 0.0
H131 H 0.26371 0.63002 0.00103 0.0
H132 H 0.29329 0.91044 -0.00758 0.0
H133 H 0.24686 0.96861 -0.00802 0.0
C134 C 0.2017 0.86602 -0.0048 0.0
C135 C 0.17972 0.80436 -0.00235 0.0
C136 C 0.22839 0.83304 -0.00381 0.0
C137 C 0.18484 0.70897 0.00151 0.0
C138 C 0.2114 0.6755 0.00203 0.0
C139 C 0.26003 0.70391 -0.00097 0.0
C140 C 0.28197 0.76575 -0.00352 0.0
C141 C 0.23331 0.73692 -0.00084 0.0
C142 C 0.27681 0.86129 -0.00554 0.0
C143 C 0.25026 0.89462 -0.00591 0.0
H144 H 0.7598 0.84151 0.53159 0.0
H145 H 0.79154 0.56295 0.53191 0.0
H146 H 0.74556 0.50146 0.53484 0.0
H147 H 0.69648 0.52675 0.53628 0.0
H148 H 0.66475 0.80518 0.53283 0.0
H149 H 0.71075 0.86678 0.53241 0.0
C150 C 0.75671 0.7673 0.53243 0.0
C151 C 0.77912 0.70695 0.53161 0.0
C152 C 0.73025 0.73242 0.53362 0.0
C153 C 0.77468 0.61099 0.53235 0.0
C154 C 0.74839 0.57576 0.53414 0.0
C155 C 0.69959 0.60097 0.53578 0.0
C156 C 0.67718 0.66128 0.53478 0.0
C157 C 0.72605 0.63585 0.53472 0.0
C158 C 0.68162 0.75722 0.53354 0.0
C159 C 0.70791 0.7925 0.5333 0.0
H160 H 0.21492 0.09854 0.52243 0.0
H161 H 0.18338 0.37669 0.51174 0.0
H162 H 0.22937 0.43807 0.51227 0.0
H163 H 0.2783 0.41304 0.51752 0.0
H164 H 0.31001 0.13497 0.52614 0.0
H165 H 0.26401 0.07322 0.52461 0.0
C166 C 0.21807 0.17264 0.52018 0.0
C167 C 0.1957 0.23295 0.51734 0.0
C168 C 0.24454 0.20743 0.52023 0.0
C169 C 0.2002 0.32869 0.51391 0.0
C170 C 0.22649 0.36388 0.51435 0.0
C171 C 0.27519 0.33886 0.51916 0.0
C172 C 0.29757 0.27872 0.52232 0.0
C173 C 0.24877 0.30391 0.51783 0.0
C174 C 0.29316 0.18279 0.52372 0.0
C175 C 0.26686 0.14745 0.52293 0.0
H176 H 0.60643 0.32903 0.1773 0.0
H177 H 0.61044 0.62376 0.15067 0.0
H178 H 0.6064 0.65136 0.24677 0.0
H179 H 0.60144 0.59172 0.33748 0.0
H180 H 0.59891 0.29697 0.36449 0.0
H181 H 0.60262 0.26924 0.26828 0.0
C182 C 0.60637 0.39938 0.19246 0.0
C183 C 0.60856 0.47433 0.15705 0.0
C184 C 0.60426 0.41459 0.24749 0.0
C185 C 0.6088 0.56498 0.17725 0.0
C186 C 0.60642 0.58078 0.23206 0.0
C187 C 0.60154 0.52135 0.32234 0.0
C188 C 0.59968 0.44643 0.35782 0.0
C189 C 0.60404 0.50607 0.2674 0.0
C190 C 0.60028 0.35567 0.33781 0.0
C191 C 0.60239 0.33984 0.28293 0.0
H192 H 0.38075 0.43663 0.16284 0.0
H193 H 0.37243 0.73259 0.17932 0.0
H194 H 0.37611 0.71957 0.27609 0.0
H195 H 0.38024 0.62383 0.35643 0.0
H196 H 0.38994 0.32824 0.33975 0.0
H197 H 0.38742 0.34177 0.24294 0.0
C198 C 0.37976 0.49819 0.18764 0.0
C199 C 0.37615 0.58521 0.16393 0.0
C200 C 0.38219 0.49047 0.24332 0.0
C201 C 0.37523 0.6646 0.19655 0.0
C202 C 0.37728 0.65733 0.25194 0.0
C203 C 0.38196 0.56247 0.33162 0.0
C204 C 0.38511 0.47527 0.35543 0.0
C205 C 0.38059 0.57057 0.27581 0.0
C206 C 0.38751 0.39643 0.32259 0.0
C207 C 0.38597 0.40391 0.26713 0.0
H208 H 0.39569 0.48869 0.86745 0.0
H209 H 0.38808 0.76232 0.80064 0.0
H210 H 0.39383 0.69942 0.71068 0.0
H211 H 0.39834 0.56572 0.65063 0.0
H212 H 0.40333 0.29126 0.71716 0.0
H213 H 0.40153 0.35538 0.80748 0.0
C214 C 0.39553 0.53454 0.83321 0.0
C215 C 0.39138 0.62983 0.84063 0.0
C216 C 0.39832 0.49775 0.78151 0.0
C217 C 0.39108 0.6885 0.79591 0.0
C218 C 0.39439 0.65267 0.74445 0.0
C219 C 0.39936 0.52015 0.68494 0.0
C220 C 0.40092 0.42405 0.67734 0.0
C221 C 0.39765 0.55728 0.73672 0.0
C222 C 0.40199 0.36559 0.72207 0.0
C223 C 0.40095 0.40213 0.77371 0.0
H224 H 0.57389 0.29568 0.80728 0.0
H225 H 0.57317 0.5597 0.88825 0.0
H226 H 0.56488 0.63828 0.80374 0.0
H227 H 0.56247 0.63273 0.70626 0.0
H228 H 0.56378 0.36899 0.625 0.0
H229 H 0.56672 0.28917 0.7106 0.0
C230 C 0.57172 0.37035 0.8064 0.0
C231 C 0.5746 0.42209 0.85349 0.0
C232 C 0.5671 0.41498 0.75781 0.0
C233 C 0.57126 0.51855 0.85224 0.0
C234 C 0.56656 0.56352 0.80402 0.0
C235 C 0.56307 0.55774 0.70736 0.0
C236 C 0.5634 0.50679 0.65961 0.0
C237 C 0.56514 0.51254 0.75646 0.0
C238 C 0.56372 0.40969 0.6614 0.0
C239 C 0.56553 0.36404 0.71024 0.0
H240 H 0.09407 0.88247 0.18189 0.0
H241 H 0.0917 0.175 0.14785 0.0
H242 H 0.09424 0.20952 0.24338 0.0
H243 H 0.09888 0.15659 0.33573 0.0
H244 H 0.10351 0.86413 0.36927 0.0
H245 H 0.09833 0.82954 0.27426 0.0
C246 C 0.09384 0.95386 0.19533 0.0
C247 C 0.09263 0.02613 0.15786 0.0
C248 C 0.09588 0.9731 0.25003 0.0
C249 C 0.09266 0.11818 0.17591 0.0
C250 C 0.09413 0.13791 0.23047 0.0
C251 C 0.0986 0.08518 0.32238 0.0
C252 C 0.10157 0.01299 0.35954 0.0
C253 C 0.09603 0.06591 0.26776 0.0
C254 C 0.10137 0.92094 0.34147 0.0
C255 C 0.09837 0.90113 0.2872 0.0
H256 H 0.87247 0.04447 0.35602 0.0
H257 H 0.86758 0.74784 0.33906 0.0
H258 H 0.87077 0.76206 0.24217 0.0
H259 H 0.87424 0.85873 0.1619 0.0
H260 H 0.88074 0.15504 0.17908 0.0
H261 H 0.87778 0.14067 0.27591 0.0
C262 C 0.87208 0.98301 0.33109 0.0
C263 C 0.86967 0.89541 0.35475 0.0
C264 C 0.87427 -0.00854 0.27533 0.0
C265 C 0.86948 0.81626 0.32191 0.0
C266 C 0.87126 0.82422 0.26644 0.0
C267 C 0.87508 0.9201 0.18683 0.0
C268 C 0.87761 0.0077 0.16316 0.0
C269 C 0.87358 0.91148 0.24267 0.0
C270 C 0.87887 0.08656 0.19615 0.0
C271 C 0.87709 0.07857 0.25162 0.0
H272 H 0.89458 -0.00842 0.65136 0.0
H273 H 0.88469 0.7186 0.71796 0.0
H274 H 0.89095 0.78031 0.80783 0.0
H275 H 0.89628 0.91328 0.86804 0.0
H276 H 0.90373 0.18724 0.8017 0.0
H277 H 0.90167 0.1237 0.71136 0.0
C278 C 0.89404 0.94556 0.68552 0.0
C279 C 0.88903 0.85087 0.67805 0.0
C280 C 0.89717 0.98171 0.73721 0.0
C281 C 0.88831 0.79201 0.72269 0.0
C282 C 0.89192 0.82715 0.77412 0.0
C283 C 0.89783 0.9588 0.83376 0.0
C284 C 0.90008 0.05467 0.84144 0.0
C285 C 0.89595 0.92208 0.78194 0.0
C286 C 0.90184 0.11309 0.79673 0.0
C287 C 0.90063 0.0769 0.74507 0.0
H288 H 0.07762 0.06799 0.86637 0.0
H289 H 0.07152 0.78753 0.8085 0.0
H290 H 0.07401 0.84219 0.71632 0.0
H291 H 0.08094 0.96849 0.65262 0.0
H292 H 0.08971 0.24802 0.71074 0.0
H293 H 0.08311 0.19496 0.80244 0.0
C294 C 0.07647 0.01908 0.83352 0.0
C295 C 0.07444 0.92404 0.84401 0.0
C296 C 0.07864 0.0507 0.78077 0.0
C297 C 0.07322 0.86112 0.80124 0.0
C298 C 0.07468 0.89225 0.7486 0.0
C299 C 0.08119 0.01783 0.68534 0.0
C300 C 0.08592 0.11181 0.67505 0.0
C301 C 0.07789 0.98669 0.73795 0.0
C302 C 0.08629 0.17507 0.71777 0.0
C303 C 0.08248 0.14488 0.77017 0.0
H304 H 0.47256 0.83525 0.02586 0.0
H305 H 0.41729 0.06694 0.02429 0.0
H306 H 0.45533 0.17383 0.03257 0.0
H307 H 0.50425 0.20117 0.03432 0.0
H308 H 0.55956 0.96966 0.03009 0.0
H309 H 0.52137 0.86238 0.03067 0.0
C310 C 0.46879 0.90912 0.02776 0.0
C311 C 0.44217 0.94326 0.02426 0.0
C312 C 0.49072 0.96992 0.03146 0.0
C313 C 0.43762 0.03907 0.02663 0.0
C314 C 0.45934 0.10011 0.0314 0.0
C315 C 0.50797 0.1272 0.03429 0.0
C316 C 0.53466 0.09323 0.03217 0.0
C317 C 0.48597 0.06628 0.03305 0.0
C318 C 0.53917 -0.00266 0.03164 0.0
C319 C 0.51737 0.9361 0.03182 0.0
H320 H 0.54547 0.95754 0.48486 0.0
H321 H 0.48985 0.73266 0.45815 0.0
H322 H 0.45188 0.84083 0.45868 0.0
H323 H 0.43415 -0.00249 0.4745 0.0
H324 H 0.48989 0.2225 0.49981 0.0
H325 H 0.5281 0.1161 0.49195 0.0
C326 C 0.52508 0.93239 0.47844 0.0
C327 C 0.52046 0.83724 0.47208 0.0
C328 C 0.50332 -0.00518 0.47911 0.0
C329 C 0.49395 0.80567 0.46331 0.0
C330 C 0.47219 0.86738 0.46389 0.0
C331 C 0.45467 0.0232 0.47794 0.0
C332 C 0.45919 0.11733 0.48839 0.0
C333 C 0.47658 0.96177 0.47309 0.0
C334 C 0.48588 0.15011 0.492 0.0
C335 C 0.50776 0.08936 0.48759 0.0
H336 H 0.04324 0.51335 0.03631 0.0
H337 H -0.01162 0.74604 0.04241 0.0
H338 H 0.94976 0.64146 0.04275 0.0
H339 H 0.93151 0.48444 0.03417 0.0
H340 H 0.98636 0.2517 0.02898 0.0
H341 H 0.02496 0.35575 0.03569 0.0
C342 C 0.02285 0.5411 0.03834 0.0
C343 C 0.01871 0.63722 0.03878 0.0
C344 C 0.00069 0.48063 0.03826 0.0
C345 C -0.00785 0.67221 0.04184 0.0
C346 C 0.97001 0.61251 0.04182 0.0
C347 C 0.95191 0.45653 0.03491 0.0
C348 C 0.95608 0.36072 0.03046 0.0
C349 C 0.97404 0.51669 0.03885 0.0
C350 C 0.9826 0.32535 0.03211 0.0
C351 C 0.00471 0.38476 0.03585 0.0
H352 H 0.00463 0.28909 0.48897 0.0
H353 H 0.0581 0.52466 0.48403 0.0
H354 H 0.01903 0.62888 0.48262 0.0
H355 H 0.96999 0.65268 0.48879 0.0
H356 H 0.91669 0.41707 0.49851 0.0
H357 H 0.95559 0.31273 0.49185 0.0
C358 C 0.00778 0.36322 0.487 0.0
C359 C 0.03421 0.39922 0.48673 0.0
C360 C 0.98531 0.42248 0.48742 0.0
C361 C 0.03794 0.49535 0.4844 0.0
C362 C 0.01563 0.55488 0.4837 0.0
C363 C 0.96683 0.57848 0.489 0.0
C364 C 0.94051 0.54256 0.49434 0.0
C365 C -0.01073 0.51916 0.48615 0.0
C366 C 0.93676 0.44635 0.49467 0.0
C367 C 0.95898 0.38674 0.49087 0.0
loop_
_geom_bond_atom_site_label_1
_geom_bond_atom_site_label_2
_geom_bond_distance
_geom_bond_site_symmetry_2
_ccdc_geom_bond_type
C0 O1 1.306 . S
C0 O3 1.160 . S
O1 C0 1.306 . S
O1 Cd2 2.228 . S
Cd2 O1 2.228 . S
Cd2 O6 2.273 1_554 S
Cd2 O10 2.277 . S
O3 C0 1.160 . S
O3 Cd4 2.203 . S
Cd4 O3 2.203 . S
Cd4 O6 2.411 1_554 S
Cd4 O7 2.333 1_554 S
Cd4 O8 2.352 . S
Cd4 O12 2.277 . S
Cd4 O13 2.356 . S
C5 O10 1.209 . S
C5 O12 1.226 . S
O6 Cd2 2.273 1_556 S
O6 Cd4 2.411 1_556 S
O6 C9 1.320 . S
O7 Cd4 2.333 1_556 S
O7 C9 1.214 . S
O8 Cd4 2.352 . S
O8 C11 1.258 . S
C9 O6 1.320 . S
C9 O7 1.214 . S
O10 Cd2 2.277 . S
O10 C5 1.209 . S
C11 O8 1.258 . S
C11 O13 1.282 . S
O12 Cd4 2.277 . S
O12 C5 1.226 . S
O13 Cd4 2.356 . S
O13 C11 1.282 . S
C14 O15 1.306 . S
C14 O17 1.160 . S
O15 C14 1.306 . S
O15 Cd16 2.228 . S
Cd16 O15 2.228 . S
Cd16 O20 2.273 1_554 S
Cd16 O24 2.277 . S
O17 C14 1.160 . S
O17 Cd18 2.203 . S
Cd18 O17 2.203 . S
Cd18 O20 2.411 1_554 S
Cd18 O21 2.333 1_554 S
Cd18 O22 2.352 . S
Cd18 O26 2.277 . S
Cd18 O27 2.356 . S
C19 O24 1.209 . S
C19 O26 1.226 . S
O20 Cd16 2.273 1_556 S
O20 Cd18 2.411 1_556 S
O20 C23 1.320 . S
O21 Cd18 2.333 1_556 S
O21 C23 1.214 . S
O22 Cd18 2.352 . S
O22 C25 1.258 . S
C23 O20 1.320 . S
C23 O21 1.214 . S
O24 Cd16 2.277 . S
O24 C19 1.209 . S
C25 O22 1.258 . S
C25 O27 1.282 . S
O26 Cd18 2.277 . S
O26 C19 1.226 . S
O27 Cd18 2.356 . S
O27 C25 1.282 . S
C28 O29 1.306 . S
C28 O31 1.160 . S
O29 C28 1.306 . S
O29 Cd30 2.228 . S
Cd30 O29 2.228 . S
Cd30 O34 2.273 . S
Cd30 O38 2.277 . S
O31 C28 1.160 . S
O31 Cd32 2.203 . S
Cd32 O31 2.203 . S
Cd32 O34 2.411 . S
Cd32 O35 2.333 . S
Cd32 O36 2.352 . S
Cd32 O40 2.277 . S
Cd32 O41 2.356 . S
C33 O38 1.209 . S
C33 O40 1.226 . S
O34 Cd30 2.273 . S
O34 Cd32 2.411 . S
O34 C37 1.320 . S
O35 Cd32 2.333 . S
O35 C37 1.214 . S
O36 Cd32 2.352 . S
O36 C39 1.258 . S
C37 O34 1.320 . S
C37 O35 1.214 . S
O38 Cd30 2.277 . S
O38 C33 1.209 . S
C39 O36 1.258 . S
C39 O41 1.282 . S
O40 Cd32 2.277 . S
O40 C33 1.226 . S
O41 Cd32 2.356 . S
O41 C39 1.282 . S
C42 O43 1.306 . S
C42 O45 1.160 . S
O43 C42 1.306 . S
O43 Cd44 2.228 . S
Cd44 O43 2.228 . S
Cd44 O48 2.273 . S
Cd44 O52 2.277 . S
O45 C42 1.160 . S
O45 Cd46 2.203 . S
Cd46 O45 2.203 . S
Cd46 O48 2.411 . S
Cd46 O49 2.333 . S
Cd46 O50 2.352 . S
Cd46 O54 2.277 . S
Cd46 O55 2.356 . S
C47 O52 1.209 . S
C47 O54 1.226 . S
O48 Cd44 2.273 . S
O48 Cd46 2.411 . S
O48 C51 1.320 . S
O49 Cd46 2.333 . S
O49 C51 1.214 . S
O50 Cd46 2.352 . S
O50 C53 1.258 . S
C51 O48 1.320 . S
C51 O49 1.214 . S
O52 Cd44 2.277 . S
O52 C47 1.209 . S
C53 O50 1.258 . S
C53 O55 1.282 . S
O54 Cd46 2.277 . S
O54 C47 1.226 . S
O55 Cd46 2.356 . S
O55 C53 1.282 . S
C56 O57 1.306 . S
C56 O59 1.160 . S
O57 C56 1.306 . S
O57 Cd58 2.228 1_565 S
Cd58 O57 2.228 1_545 S
Cd58 O62 2.273 1_544 S
Cd58 O66 2.277 1_545 S
O59 C56 1.160 . S
O59 Cd60 2.203 . S
Cd60 O59 2.203 . S
Cd60 O62 2.411 1_554 S
Cd60 O63 2.333 1_554 S
Cd60 O64 2.352 . S
Cd60 O68 2.277 . S
Cd60 O69 2.356 . S
C61 O66 1.209 . S
C61 O68 1.226 . S
O62 Cd58 2.273 1_566 S
O62 Cd60 2.411 1_556 S
O62 C65 1.320 . S
O63 Cd60 2.333 1_556 S
O63 C65 1.214 . S
O64 Cd60 2.352 . S
O64 C67 1.258 . S
C65 O62 1.320 . S
C65 O63 1.214 . S
O66 Cd58 2.277 1_565 S
O66 C61 1.209 . S
C67 O64 1.258 . S
C67 O69 1.282 . S
O68 Cd60 2.277 . S
O68 C61 1.226 . S
O69 Cd60 2.356 . S
O69 C67 1.282 . S
C70 O71 1.306 . S
C70 O73 1.160 . S
O71 C70 1.306 . S
O71 Cd72 2.228 1_545 S
Cd72 O71 2.228 1_565 S
Cd72 O76 2.273 1_564 S
Cd72 O80 2.277 1_565 S
O73 C70 1.160 . S
O73 Cd74 2.203 . S
Cd74 O73 2.203 . S
Cd74 O76 2.411 1_554 S
Cd74 O77 2.333 1_554 S
Cd74 O78 2.352 . S
Cd74 O82 2.277 . S
Cd74 O83 2.356 . S
C75 O80 1.209 . S
C75 O82 1.226 . S
O76 Cd72 2.273 1_546 S
O76 Cd74 2.411 1_556 S
O76 C79 1.320 . S
O77 Cd74 2.333 1_556 S
O77 C79 1.214 . S
O78 Cd74 2.352 . S
O78 C81 1.258 . S
C79 O76 1.320 . S
C79 O77 1.214 . S
O80 Cd72 2.277 1_545 S
O80 C75 1.209 . S
C81 O78 1.258 . S
C81 O83 1.282 . S
O82 Cd74 2.277 . S
O82 C75 1.226 . S
O83 Cd74 2.356 . S
O83 C81 1.282 . S
C84 O85 1.306 . S
C84 O87 1.160 . S
O85 C84 1.306 . S
O85 Cd86 2.228 1_545 S
Cd86 O85 2.228 1_565 S
Cd86 O90 2.273 1_565 S
Cd86 O94 2.277 1_565 S
O87 C84 1.160 . S
O87 Cd88 2.203 . S
Cd88 O87 2.203 . S
Cd88 O90 2.411 . S
Cd88 O91 2.333 . S
Cd88 O92 2.352 . S
Cd88 O96 2.277 . S
Cd88 O97 2.356 . S
C89 O94 1.209 . S
C89 O96 1.226 . S
O90 Cd86 2.273 1_545 S
O90 Cd88 2.411 . S
O90 C93 1.320 . S
O91 Cd88 2.333 . S
O91 C93 1.214 . S
O92 Cd88 2.352 . S
O92 C95 1.258 . S
C93 O90 1.320 . S
C93 O91 1.214 . S
O94 Cd86 2.277 1_545 S
O94 C89 1.209 . S
C95 O92 1.258 . S
C95 O97 1.282 . S
O96 Cd88 2.277 . S
O96 C89 1.226 . S
O97 Cd88 2.356 . S
O97 C95 1.282 . S
C98 O99 1.306 . S
C98 O101 1.160 . S
O99 C98 1.306 . S
O99 Cd100 2.228 1_565 S
Cd100 O99 2.228 1_545 S
Cd100 O104 2.273 1_545 S
Cd100 O108 2.277 1_545 S
O101 C98 1.160 . S
O101 Cd102 2.203 . S
Cd102 O101 2.203 . S
Cd102 O104 2.411 . S
Cd102 O105 2.333 . S
Cd102 O106 2.352 . S
Cd102 O110 2.277 . S
Cd102 O111 2.356 . S
C103 O108 1.209 . S
C103 O110 1.226 . S
O104 Cd100 2.273 1_565 S
O104 Cd102 2.411 . S
O104 C107 1.320 . S
O105 Cd102 2.333 . S
O105 C107 1.214 . S
O106 Cd102 2.352 . S
O106 C109 1.258 . S
C107 O104 1.320 . S
C107 O105 1.214 . S
O108 Cd100 2.277 1_565 S
O108 C103 1.209 . S
C109 O106 1.258 . S
C109 O111 1.282 . S
O110 Cd102 2.277 . S
O110 C103 1.226 . S
O111 Cd102 2.356 . S
O111 C109 1.282 . S
H112 C118 0.930 . S
H113 C121 0.930 . S
H114 C122 0.930 . S
H115 C123 0.930 . S
H116 C126 0.930 . S
H117 C127 0.930 . S
C118 H112 0.930 . S
C118 C119 1.355 . S
C118 C120 1.415 . S
C119 C118 1.355 . S
C119 C121 1.419 . S
C120 C118 1.415 . S
C120 C125 1.425 . S
C120 C127 1.409 . S
C121 H113 0.930 . S
C121 C119 1.419 . S
C121 C122 1.362 . S
C122 H114 0.930 . S
C122 C121 1.362 . S
C122 C125 1.409 . S
C123 H115 0.930 . S
C123 C124 1.355 . S
C123 C125 1.415 . S
C124 C123 1.355 . S
C124 C126 1.419 . S
C125 C120 1.425 . S
C125 C122 1.409 . S
C125 C123 1.415 . S
C126 H116 0.930 . S
C126 C124 1.419 . S
C126 C127 1.362 . S
C127 H117 0.930 . S
C127 C120 1.409 . S
C127 C126 1.362 . S
H128 C134 0.930 . S
H129 C137 0.930 . S
H130 C138 0.930 . S
H131 C139 0.930 . S
H132 C142 0.930 . S
H133 C143 0.930 . S
C134 H128 0.930 . S
C134 C135 1.355 . S
C134 C136 1.415 . S
C135 C134 1.355 . S
C135 C137 1.419 . S
C136 C134 1.415 . S
C136 C141 1.425 . S
C136 C143 1.409 . S
C137 H129 0.930 . S
C137 C135 1.419 . S
C137 C138 1.362 . S
C138 H130 0.930 . S
C138 C137 1.362 . S
C138 C141 1.409 . S
C139 H131 0.930 . S
C139 C140 1.355 . S
C139 C141 1.415 . S
C140 C139 1.355 . S
C140 C142 1.419 . S
C141 C136 1.425 . S
C141 C138 1.409 . S
C141 C139 1.415 . S
C142 H132 0.930 . S
C142 C140 1.419 . S
C142 C143 1.362 . S
C143 H133 0.930 . S
C143 C136 1.409 . S
C143 C142 1.362 . S
H144 C150 0.930 . S
H145 C153 0.930 . S
H146 C154 0.930 . S
H147 C155 0.930 . S
H148 C158 0.930 . S
H149 C159 0.930 . S
C150 H144 0.930 . S
C150 C151 1.355 . S
C150 C152 1.415 . S
C151 C150 1.355 . S
C151 C153 1.419 . S
C152 C150 1.415 . S
C152 C157 1.425 . S
C152 C159 1.409 . S
C153 H145 0.930 . S
C153 C151 1.419 . S
C153 C154 1.362 . S
C154 H146 0.930 . S
C154 C153 1.362 . S
C154 C157 1.409 . S
C155 H147 0.930 . S
C155 C156 1.355 . S
C155 C157 1.415 . S
C156 C155 1.355 . S
C156 C158 1.419 . S
C157 C152 1.425 . S
C157 C154 1.409 . S
C157 C155 1.415 . S
C158 H148 0.930 . S
C158 C156 1.419 . S
C158 C159 1.362 . S
C159 H149 0.930 . S
C159 C152 1.409 . S
C159 C158 1.362 . S
H160 C166 0.930 . S
H161 C169 0.930 . S
H162 C170 0.930 . S
H163 C171 0.930 . S
H164 C174 0.930 . S
H165 C175 0.930 . S
C166 H160 0.930 . S
C166 C167 1.355 . S
C166 C168 1.415 . S
C167 C166 1.355 . S
C167 C169 1.419 . S
C168 C166 1.415 . S
C168 C173 1.425 . S
C168 C175 1.409 . S
C169 H161 0.930 . S
C169 C167 1.419 . S
C169 C170 1.362 . S
C170 H162 0.930 . S
C170 C169 1.362 . S
C170 C173 1.409 . S
C171 H163 0.930 . S
C171 C172 1.355 . S
C171 C173 1.415 . S
C172 C171 1.355 . S
C172 C174 1.419 . S
C173 C168 1.425 . S
C173 C170 1.409 . S
C173 C171 1.415 . S
C174 H164 0.930 . S
C174 C172 1.419 . S
C174 C175 1.362 . S
C175 H165 0.930 . S
C175 C168 1.409 . S
C175 C174 1.362 . S
H176 C182 0.930 . S
H177 C185 0.930 . S
H178 C186 0.930 . S
H179 C187 0.930 . S
H180 C190 0.930 . S
H181 C191 0.930 . S
C182 H176 0.930 . S
C182 C183 1.355 . S
C182 C184 1.415 . S
C183 C182 1.355 . S
C183 C185 1.419 . S
C184 C182 1.415 . S
C184 C189 1.425 . S
C184 C191 1.409 . S
C185 H177 0.930 . S
C185 C183 1.419 . S
C185 C186 1.362 . S
C186 H178 0.930 . S
C186 C185 1.362 . S
C186 C189 1.409 . S
C187 H179 0.930 . S
C187 C188 1.355 . S
C187 C189 1.415 . S
C188 C187 1.355 . S
C188 C190 1.419 . S
C189 C184 1.425 . S
C189 C186 1.409 . S
C189 C187 1.415 . S
C190 H180 0.930 . S
C190 C188 1.419 . S
C190 C191 1.362 . S
C191 H181 0.930 . S
C191 C184 1.409 . S
C191 C190 1.362 . S
H192 C198 0.930 . S
H193 C201 0.930 . S
H194 C202 0.930 . S
H195 C203 0.930 . S
H196 C206 0.930 . S
H197 C207 0.930 . S
C198 H192 0.930 . S
C198 C199 1.355 . S
C198 C200 1.415 . S
C199 C198 1.355 . S
C199 C201 1.419 . S
C200 C198 1.415 . S
C200 C205 1.425 . S
C200 C207 1.409 . S
C201 H193 0.930 . S
C201 C199 1.419 . S
C201 C202 1.362 . S
C202 H194 0.930 . S
C202 C201 1.362 . S
C202 C205 1.409 . S
C203 H195 0.930 . S
C203 C204 1.355 . S
C203 C205 1.415 . S
C204 C203 1.355 . S
C204 C206 1.419 . S
C205 C200 1.425 . S
C205 C202 1.409 . S
C205 C203 1.415 . S
C206 H196 0.930 . S
C206 C204 1.419 . S
C206 C207 1.362 . S
C207 H197 0.930 . S
C207 C200 1.409 . S
C207 C206 1.362 . S
H208 C214 0.930 . S
H209 C217 0.930 . S
H210 C218 0.930 . S
H211 C219 0.930 . S
H212 C222 0.930 . S
H213 C223 0.930 . S
C214 H208 0.930 . S
C214 C215 1.355 . S
C214 C216 1.415 . S
C215 C214 1.355 . S
C215 C217 1.419 . S
C216 C214 1.415 . S
C216 C221 1.425 . S
C216 C223 1.409 . S
C217 H209 0.930 . S
C217 C215 1.419 . S
C217 C218 1.362 . S
C218 H210 0.930 . S
C218 C217 1.362 . S
C218 C221 1.409 . S
C219 H211 0.930 . S
C219 C220 1.355 . S
C219 C221 1.415 . S
C220 C219 1.355 . S
C220 C222 1.419 . S
C221 C216 1.425 . S
C221 C218 1.409 . S
C221 C219 1.415 . S
C222 H212 0.930 . S
C222 C220 1.419 . S
C222 C223 1.362 . S
C223 H213 0.930 . S
C223 C216 1.409 . S
C223 C222 1.362 . S
H224 C230 0.930 . S
H225 C233 0.930 . S
H226 C234 0.930 . S
H227 C235 0.930 . S
H228 C238 0.930 . S
H229 C239 0.930 . S
C230 H224 0.930 . S
C230 C231 1.355 . S
C230 C232 1.415 . S
C231 C230 1.355 . S
C231 C233 1.419 . S
C232 C230 1.415 . S
C232 C237 1.425 . S
C232 C239 1.409 . S
C233 H225 0.930 . S
C233 C231 1.419 . S
C233 C234 1.362 . S
C234 H226 0.930 . S
C234 C233 1.362 . S
C234 C237 1.409 . S
C235 H227 0.930 . S
C235 C236 1.355 . S
C235 C237 1.415 . S
C236 C235 1.355 . S
C236 C238 1.419 . S
C237 C232 1.425 . S
C237 C234 1.409 . S
C237 C235 1.415 . S
C238 H228 0.930 . S
C238 C236 1.419 . S
C238 C239 1.362 . S
C239 H229 0.930 . S
C239 C232 1.409 . S
C239 C238 1.362 . S
H240 C246 0.930 . S
H241 C249 0.930 . S
H242 C250 0.930 . S
H243 C251 0.930 . S
H244 C254 0.930 . S
H245 C255 0.930 . S
C246 H240 0.930 . S
C246 C247 1.355 . S
C246 C248 1.415 . S
C247 C246 1.355 . S
C247 C249 1.419 1_565 S
C248 C246 1.415 . S
C248 C253 1.425 1_565 S
C248 C255 1.409 . S
C249 H241 0.930 . S
C249 C247 1.419 1_545 S
C249 C250 1.362 . S
C250 H242 0.930 . S
C250 C249 1.362 . S
C250 C253 1.409 . S
C251 H243 0.930 . S
C251 C252 1.355 . S
C251 C253 1.415 . S
C252 C251 1.355 . S
C252 C254 1.419 1_545 S
C253 C248 1.425 1_545 S
C253 C250 1.409 . S
C253 C251 1.415 . S
C254 H244 0.930 . S
C254 C252 1.419 1_565 S
C254 C255 1.362 . S
C255 H245 0.930 . S
C255 C248 1.409 . S
C255 C254 1.362 . S
H256 C262 0.930 . S
H257 C265 0.930 . S
H258 C266 0.930 . S
H259 C267 0.930 . S
H260 C270 0.930 . S
H261 C271 0.930 . S
C262 H256 0.930 . S
C262 C263 1.355 1_545 S
C262 C264 1.415 . S
C263 C262 1.355 1_565 S
C263 C265 1.419 . S
C264 C262 1.415 . S
C264 C269 1.425 1_545 S
C264 C271 1.409 . S
C265 H257 0.930 . S
C265 C263 1.419 . S
C265 C266 1.362 . S
C266 H258 0.930 . S
C266 C265 1.362 . S
C266 C269 1.409 . S
C267 H259 0.930 . S
C267 C268 1.355 1_565 S
C267 C269 1.415 . S
C268 C267 1.355 1_545 S
C268 C270 1.419 . S
C269 C264 1.425 1_565 S
C269 C266 1.409 . S
C269 C267 1.415 . S
C270 H260 0.930 . S
C270 C268 1.419 . S
C270 C271 1.362 . S
C271 H261 0.930 . S
C271 C264 1.409 . S
C271 C270 1.362 . S
H272 C278 0.930 . S
H273 C281 0.930 . S
H274 C282 0.930 . S
H275 C283 0.930 . S
H276 C286 0.930 . S
H277 C287 0.930 . S
C278 H272 0.930 . S
C278 C279 1.355 . S
C278 C280 1.415 1_565 S
C279 C278 1.355 . S
C279 C281 1.419 . S
C280 C278 1.415 1_545 S
C280 C285 1.425 1_545 S
C280 C287 1.409 . S
C281 H273 0.930 . S
C281 C279 1.419 . S
C281 C282 1.362 . S
C282 H274 0.930 . S
C282 C281 1.362 . S
C282 C285 1.409 . S
C283 H275 0.930 . S
C283 C284 1.355 . S
C283 C285 1.415 1_545 S
C284 C283 1.355 . S
C284 C286 1.419 . S
C285 C280 1.425 1_565 S
C285 C282 1.409 . S
C285 C283 1.415 1_565 S
C286 H276 0.930 . S
C286 C284 1.419 . S
C286 C287 1.362 . S
C287 H277 0.930 . S
C287 C280 1.409 . S
C287 C286 1.362 . S
H288 C294 0.930 . S
H289 C297 0.930 . S
H290 C298 0.930 . S
H291 C299 0.930 . S
H292 C302 0.930 . S
H293 C303 0.930 . S
C294 H288 0.930 . S
C294 C295 1.355 1_545 S
C294 C296 1.415 . S
C295 C294 1.355 1_565 S
C295 C297 1.419 . S
C296 C294 1.415 . S
C296 C301 1.425 1_545 S
C296 C303 1.409 . S
C297 H289 0.930 . S
C297 C295 1.419 . S
C297 C298 1.362 . S
C298 H290 0.930 . S
C298 C297 1.362 . S
C298 C301 1.409 . S
C299 H291 0.930 . S
C299 C300 1.355 1_565 S
C299 C301 1.415 . S
C300 C299 1.355 1_545 S
C300 C302 1.419 . S
C301 C296 1.425 1_565 S
C301 C298 1.409 . S
C301 C299 1.415 . S
C302 H292 0.930 . S
C302 C300 1.419 . S
C302 C303 1.362 . S
C303 H293 0.930 . S
C303 C296 1.409 . S
C303 C302 1.362 . S
H304 C310 0.930 . S
H305 C313 0.930 . S
H306 C314 0.930 . S
H307 C315 0.930 . S
H308 C318 0.930 . S
H309 C319 0.930 . S
C310 H304 0.930 . S
C310 C311 1.355 1_556 S
C310 C312 1.415 1_556 S
C311 C310 1.355 1_554 S
C311 C313 1.419 . S
C312 C310 1.415 1_554 S
C312 C317 1.425 1_565 S
C312 C319 1.409 1_554 S
C313 H305 0.930 . S
C313 C311 1.419 . S
C313 C314 1.362 1_565 S
C314 H306 0.930 . S
C314 C313 1.362 1_545 S
C314 C317 1.409 . S
C315 H307 0.930 . S
C315 C316 1.355 . S
C315 C317 1.415 . S
C316 C315 1.355 . S
C316 C318 1.419 1_554 S
C317 C312 1.425 1_545 S
C317 C314 1.409 . S
C317 C315 1.415 . S
C318 H308 0.930 . S
C318 C316 1.419 1_556 S
C318 C319 1.362 1_545 S
C319 H309 0.930 . S
C319 C312 1.409 1_556 S
C319 C318 1.362 1_565 S
H320 C326 0.930 1_545 S
H321 C329 0.930 . S
H322 C330 0.930 . S
H323 C331 0.930 1_565 S
H324 C334 0.930 . S
H325 C335 0.930 . S
C326 H320 0.930 1_565 S
C326 C327 1.355 . S
C326 C328 1.415 1_565 S
C327 C326 1.355 . S
C327 C329 1.419 . S
C328 C326 1.415 1_545 S
C328 C333 1.425 1_545 S
C328 C335 1.409 . S
C329 H321 0.930 . S
C329 C327 1.419 . S
C329 C330 1.362 . S
C330 H322 0.930 . S
C330 C329 1.362 . S
C330 C333 1.409 . S
C331 H323 0.930 1_545 S
C331 C332 1.355 . S
C331 C333 1.415 1_545 S
C332 C331 1.355 . S
C332 C334 1.419 . S
C333 C328 1.425 1_565 S
C333 C330 1.409 . S
C333 C331 1.415 1_565 S
C334 H324 0.930 . S
C334 C332 1.419 . S
C334 C335 1.362 . S
C335 H325 0.930 . S
C335 C328 1.409 . S
C335 C334 1.362 . S
H336 C342 0.929 1_556 S
H337 C345 0.930 . S
H338 C346 0.930 . S
H339 C347 0.930 . S
H340 C350 0.930 1_556 S
H341 C351 0.930 1_556 S
C342 H336 0.929 1_554 S
C342 C343 1.355 . S
C342 C344 1.415 . S
C343 C342 1.355 . S
C343 C345 1.419 . S
C344 C342 1.415 . S
C344 C349 1.425 1_455 S
C344 C351 1.409 . S
C345 H337 0.930 . S
C345 C343 1.419 . S
C345 C346 1.362 1_455 S
C346 H338 0.930 . S
C346 C345 1.362 1_655 S
C346 C349 1.409 . S
C347 H339 0.930 . S
C347 C348 1.355 . S
C347 C349 1.415 . S
C348 C347 1.355 . S
C348 C350 1.419 . S
C349 C344 1.425 1_655 S
C349 C346 1.409 . S
C349 C347 1.415 . S
C350 H340 0.930 1_554 S
C350 C348 1.419 . S
C350 C351 1.362 1_655 S
C351 H341 0.930 1_554 S
C351 C344 1.409 . S
C351 C350 1.362 1_455 S
H352 C358 0.930 . S
H353 C361 0.930 . S
H354 C362 0.930 . S
H355 C363 0.930 . S
H356 C366 0.930 . S
H357 C367 0.930 . S
C358 H352 0.930 . S
C358 C359 1.355 . S
C358 C360 1.415 1_455 S
C359 C358 1.355 . S
C359 C361 1.419 . S
C360 C358 1.415 1_655 S
C360 C365 1.425 1_655 S
C360 C367 1.409 . S
C361 H353 0.930 . S
C361 C359 1.419 . S
C361 C362 1.362 . S
C362 H354 0.930 . S
C362 C361 1.362 . S
C362 C365 1.409 . S
C363 H355 0.930 . S
C363 C364 1.355 . S
C363 C365 1.415 1_655 S
C364 C363 1.355 . S
C364 C366 1.419 . S
C365 C360 1.425 1_455 S
C365 C362 1.409 . S
C365 C363 1.415 1_455 S
C366 H356 0.930 . S
C366 C364 1.419 . S
C366 C367 1.362 . S
C367 H357 0.930 . S
C367 C360 1.409 . S
C367 C366 1.362 . S
C119 C75 1.500 . S
C124 C5 1.500 . S
C135 C61 1.500 . S
C140 C19 1.501 . S
C151 C103 1.496 . S
C156 C33 1.497 . S
C167 C89 1.499 . S
C172 C47 1.499 . S
C183 C0 1.438 . S
C188 C28 1.409 . S
C199 C14 1.411 . S
C204 C42 1.438 . S
C215 C23 1.418 . S
C220 C51 1.414 . S
C231 C9 1.436 . S
C236 C37 1.436 . S
C247 C56 1.432 . S
C252 C84 1.412 . S
C263 C98 1.428 . S
C268 C70 1.425 . S
C279 C107 1.410 . S
C284 C79 1.413 . S
C295 C65 1.416 . S
C300 C93 1.413 . S
C311 C25 1.490 . S
C316 C11 1.485 . S
C327 C39 1.499 . S
C332 C53 1.502 . S
C343 C67 1.501 . S
C348 C81 1.502 . S
C359 C95 1.484 . S
C364 C109 1.482 . S
