# Generated by pormake.
# Topology fst, (5)-cn, num edge types: 1
# Building blocks:
#     Node 0, Type 0, BuildingBlock: XOMCOT_clean_sbu_1, # of connection points: 5
#     Node 1, Type 0, BuildingBlock: XOMCOT_clean_sbu_1, # of connection points: 5
#     Node 2, Type 0, BuildingBlock: XOMCOT_clean_sbu_1, # of connection points: 5
#     Node 3, Type 0, BuildingBlock: XOMCOT_clean_sbu_1, # of connection points: 5
#     Node 4, Type 0, BuildingBlock: XOMCOT_clean_sbu_1, # of connection points: 5
#     Node 5, Type 0, BuildingBlock: XOMCOT_clean_sbu_1, # of connection points: 5
#     Node 6, Type 0, BuildingBlock: XOMCOT_clean_sbu_1, # of connection points: 5
#     Node 7, Type 0, BuildingBlock: XOMCOT_clean_sbu_1, # of connection points: 5
#     Node 8, Type 0, BuildingBlock: XOMCOT_clean_sbu_1, # of connection points: 5
#     Node 9, Type 0, BuildingBlock: XOMCOT_clean_sbu_1, # of connection points: 5
#     Node 10, Type 0, BuildingBlock: XOMCOT_clean_sbu_1, # of connection points: 5
#     Node 11, Type 0, BuildingBlock: XOMCOT_clean_sbu_1, # of connection points: 5
#     Edge 12, Type (0, 0), BuildingBlock: CIFDUS_clean_linker_0, # of connection points: 2
#     Edge 13, Type (0, 0), BuildingBlock: CIFDUS_clean_linker_0, # of connection points: 2
#     Edge 14, Type (0, 0), BuildingBlock: CIFDUS_clean_linker_0, # of connection points: 2
#     Edge 15, Type (0, 0), BuildingBlock: CIFDUS_clean_linker_0, # of connection points: 2
#     Edge 16, Type (0, 0), BuildingBlock: CIFDUS_clean_linker_0, # of connection points: 2
#     Edge 17, Type (0, 0), BuildingBlock: CIFDUS_clean_linker_0, # of connection points: 2
#     Edge 18, Type (0, 0), BuildingBlock: CIFDUS_clean_linker_0, # of connection points: 2
#     Edge 19, Type (0, 0), BuildingBlock: CIFDUS_clean_linker_0, # of connection points: 2
#     Edge 20, Type (0, 0), BuildingBlock: CIFDUS_clean_linker_0, # of connection points: 2
#     Edge 21, Type (0, 0), BuildingBlock: CIFDUS_clean_linker_0, # of connection points: 2
#     Edge 22, Type (0, 0), BuildingBlock: CIFDUS_clean_linker_0, # of connection points: 2
#     Edge 23, Type (0, 0), BuildingBlock: CIFDUS_clean_linker_0, # of connection points: 2
#     Edge 24, Type (0, 0), BuildingBlock: CIFDUS_clean_linker_0, # of connection points: 2
#     Edge 25, Type (0, 0), BuildingBlock: CIFDUS_clean_linker_0, # of connection points: 2
#     Edge 26, Type (0, 0), BuildingBlock: CIFDUS_clean_linker_0, # of connection points: 2
#     Edge 27, Type (0, 0), BuildingBlock: CIFDUS_clean_linker_0, # of connection points: 2
#     Edge 28, Type (0, 0), BuildingBlock: CIFDUS_clean_linker_0, # of connection points: 2
#     Edge 29, Type (0, 0), BuildingBlock: CIFDUS_clean_linker_0, # of connection points: 2
#     Edge 30, Type (0, 0), BuildingBlock: CIFDUS_clean_linker_0, # of connection points: 2
#     Edge 31, Type (0, 0), BuildingBlock: CIFDUS_clean_linker_0, # of connection points: 2
#     Edge 32, Type (0, 0), BuildingBlock: CIFDUS_clean_linker_0, # of connection points: 2
#     Edge 33, Type (0, 0), BuildingBlock: CIFDUS_clean_linker_0, # of connection points: 2
#     Edge 34, Type (0, 0), BuildingBlock: CIFDUS_clean_linker_0, # of connection points: 2
#     Edge 35, Type (0, 0), BuildingBlock: CIFDUS_clean_linker_0, # of connection points: 2
#     Edge 36, Type (0, 0), BuildingBlock: CIFDUS_clean_linker_0, # of connection points: 2
#     Edge 37, Type (0, 0), BuildingBlock: CIFDUS_clean_linker_0, # of connection points: 2
#     Edge 38, Type (0, 0), BuildingBlock: CIFDUS_clean_linker_0, # of connection points: 2
#     Edge 39, Type (0, 0), BuildingBlock: CIFDUS_clean_linker_0, # of connection points: 2
#     Edge 40, Type (0, 0), BuildingBlock: CIFDUS_clean_linker_0, # of connection points: 2
#     Edge 41, Type (0, 0), BuildingBlock: CIFDUS_clean_linker_0, # of connection points: 2
# Relax obj value: 0.137
# Max RMSD: 0.121
# Mean RMSD: 0.121
data_MOF--net-fst--node1-XOMCOT_clean_sbu_1--edge1-CIFDUS_clean_linker_0
_symmetry_space_group_name_H-M    P1
_symmetry_Int_Tables_number       1
_symmetry_cell_setting            triclinic
loop_
_symmetry_equiv_pos_as_xyz
'x, y, z'
_cell_length_a     65.006228
_cell_length_b     65.226289
_cell_length_c     15.906051
_cell_angle_alpha  89.911321
_cell_angle_beta   90.10134
_cell_angle_gamma 120.07186
loop_
_atom_site_label
_atom_site_type_symbol
_atom_site_fract_x
_atom_site_fract_y
_atom_site_fract_z
_atom_type_partial_charge
C0 C 0.16806 0.45734 0.94048 0.0
C1 C 0.16843 0.45904 0.85425 0.0
N2 N 0.14588 0.44987 0.82667 0.0
N3 N 0.14542 0.44704 0.96741 0.0
C4 C 0.13231 0.44292 0.89685 0.0
H5 H 0.18328 0.46271 0.98108 0.0
Co6 Co 0.137 0.44021 0.07963 0.0
C7 C 0.08948 0.39842 1.01222 0.0
O8 O 0.09681 0.38845 0.9574 0.0
N9 N 0.12868 0.43313 0.19355 0.0
C10 C 0.11292 0.41193 0.30949 0.0
C11 C 0.11378 0.4112 0.2235 0.0
C12 C 0.13693 0.44686 0.26312 0.0
N13 N 0.12752 0.43437 0.33467 0.0
O14 O 0.14741 0.41712 0.07608 0.0
H15 H 0.10477 0.39537 0.18555 0.0
H16 H 0.15007 0.46549 0.26169 0.0
O17 O 0.10447 0.41675 0.05262 0.0
C18 C 0.16647 0.42313 0.11749 0.0
O19 O 0.17519 0.44212 0.16502 0.0
N20 N 0.12924 0.46433 0.08165 0.0
C21 C 0.1277 0.50622 0.06073 0.0
C22 C 0.10859 0.48425 0.035 0.0
C23 C 0.10964 0.46348 0.04633 0.0
C24 C 0.14764 0.4853 0.10882 0.0
C25 C 0.14701 0.50628 0.10101 0.0
H26 H 0.09527 0.44713 0.02182 0.0
H27 H 0.16345 0.48592 0.13348 0.0
H28 H 0.1132 0.43495 0.89681 0.0
H29 H 0.18405 0.46566 0.81494 0.0
H30 H 0.10318 0.3968 0.35042 0.0
H31 H 0.09343 0.48312 1.00234 0.0
H32 H 0.162 0.52249 0.12417 0.0
C33 C 0.70691 0.15549 0.91647 0.0
C34 C 0.7062 0.1556 0.83019 0.0
N35 N 0.70424 0.13519 0.80198 0.0
N36 N 0.70542 0.13517 0.94256 0.0
C37 C 0.70386 0.12315 0.87175 0.0
H38 H 0.7087 0.16944 0.95787 0.0
Co39 Co 0.70642 0.12833 0.05398 0.0
C40 C 0.68772 0.07713 0.0691 0.0
O41 O 0.67579 0.07828 0.13382 0.0
N42 N 0.70858 0.12235 0.16897 0.0
C43 C 0.7228 0.11381 0.28284 0.0
C44 C 0.72326 0.11473 0.19686 0.0
C45 C 0.69957 0.12618 0.23999 0.0
N46 N 0.70788 0.12102 0.31018 0.0
O47 O 0.7406 0.14261 0.04463 0.0
H48 H 0.73408 0.11052 0.15689 0.0
H49 H 0.68748 0.13291 0.24106 0.0
O50 O 0.70114 0.09607 0.02699 0.0
C51 C 0.75159 0.16284 0.08036 0.0
O52 O 0.73916 0.17046 0.12115 0.0
N53 N 0.67328 0.117 0.05938 0.0
C54 C 0.62732 0.1099 0.03885 0.0
C55 C 0.63395 0.09479 1.00027 0.0
C56 C 0.65706 0.09887 1.01005 0.0
C57 C 0.66723 0.13222 0.09541 0.0
C58 C 0.6442 0.12864 0.08797 0.0
H59 H 0.66217 0.08834 0.97282 0.0
H60 H 0.68078 0.14819 0.12539 0.0
H61 H 0.70236 0.10588 0.87148 0.0
H62 H 0.70768 0.16993 0.79152 0.0
H63 H 0.73344 0.10911 0.32199 0.0
H64 H 0.62164 0.08048 0.96001 0.0
H65 H 0.64012 0.14132 0.11587 0.0
C66 C 0.55767 0.69174 0.86837 0.0
C67 C 0.55845 0.69582 0.78331 0.0
N68 N 0.58135 0.70892 0.75988 0.0
N69 N 0.57999 0.7017 0.89923 0.0
C70 C 0.59398 0.71299 0.83202 0.0
H71 H 0.5417 0.68154 0.90498 0.0
Co72 Co 0.5873 0.70005 1.01385 0.0
C73 C 0.62096 0.68623 0.92448 0.0
O74 O 0.61133 0.68325 0.84973 0.0
N75 N 0.59391 0.69877 0.12887 0.0
C76 C 0.60181 0.68664 0.24925 0.0
C77 C 0.60015 0.68376 0.16348 0.0
C78 C 0.59127 0.71019 0.19556 0.0
N79 N 0.59615 0.70322 0.26967 0.0
O80 O 0.60996 0.73341 1.01141 0.0
H81 H 0.60189 0.67044 0.1292 0.0
H82 H 0.5852 0.72284 0.1902 0.0
O83 O 0.61255 0.69222 0.98659 0.0
C84 C 0.59897 0.74486 0.02102 0.0
O85 O 0.57582 0.73295 0.03156 0.0
N86 N 0.56337 0.6678 0.01825 0.0
C87 C 0.52103 0.62406 1.01557 0.0
C88 C 0.5406 0.6279 0.96643 0.0
C89 C 0.56164 0.64991 0.9687 0.0
C90 C 0.54493 0.66404 0.069 0.0
C91 C 0.5238 0.64231 0.06947 0.0
H92 H 0.57576 0.65279 0.92676 0.0
H93 H 0.54621 0.67842 0.10668 0.0
H94 H 0.61319 0.72327 0.83535 0.0
H95 H 0.54331 0.68855 0.74126 0.0
H96 H 0.60544 0.67625 0.29365 0.0
H97 H 0.5393 0.61452 0.92307 0.0
H98 H 0.50947 0.64015 0.10996 0.0
C99 C 0.86675 0.55051 0.92663 0.0
C100 C 0.86644 0.54984 0.84027 0.0
N101 N 0.88513 0.57009 0.81147 0.0
N102 N 0.88553 0.57101 0.95228 0.0
C103 C 0.89635 0.58262 0.88108 0.0
H104 H 0.8539 0.53711 0.96832 0.0
Co105 Co 0.89208 0.57991 0.0633 0.0
C106 C 0.94345 0.61523 0.07576 0.0
O107 O 0.9436 0.60556 0.14812 0.0
N108 N 0.89771 0.58896 0.17749 0.0
C109 C 0.90442 0.6115 0.29061 0.0
C110 C 0.90395 0.61096 0.20448 0.0
C111 C 0.89431 0.57641 0.24905 0.0
N112 N 0.89833 0.58971 0.31886 0.0
O113 O 0.87721 0.59905 0.04905 0.0
H114 H 0.90751 0.62568 0.16382 0.0
H115 H 0.88866 0.55783 0.25063 0.0
O116 O 0.92397 0.60692 0.03383 0.0
C117 C 0.85671 0.58959 0.08322 0.0
O118 O 0.84904 0.56969 0.12507 0.0
N119 N 0.90419 0.55898 0.07402 0.0
C120 C 0.91259 0.52085 0.06297 0.0
C121 C 0.9283 0.54282 0.02641 0.0
C122 C 0.92353 0.56145 0.03101 0.0
C123 C 0.88852 0.53761 0.10852 0.0
C124 C 0.89261 0.51852 0.10542 0.0
H125 H 0.93451 0.57707 0.99421 0.0
H126 H 0.87202 0.53492 0.13476 0.0
H127 H 0.91203 0.59998 0.88047 0.0
H128 H 0.85302 0.53578 0.80206 0.0
H129 H 0.90809 0.62662 0.32909 0.0
H130 H 0.94336 0.54519 0.98971 0.0
H131 H 0.87976 0.50184 0.13369 0.0
C132 C 0.31202 0.85701 0.9415 0.0
C133 C 0.31371 0.85689 0.85537 0.0
N134 N 0.32539 0.87951 0.82809 0.0
N135 N 0.32244 0.87955 0.96873 0.0
C136 C 0.33068 0.89289 0.89842 0.0
H137 H 0.30317 0.84162 0.98182 0.0
Co138 Co 0.32263 0.88728 0.08108 0.0
C139 C 0.32453 0.93343 1.01427 0.0
O140 O 0.30911 0.92641 0.95226 0.0
N141 N 0.32247 0.89476 0.19493 0.0
C142 C 0.31421 0.90811 0.31111 0.0
C143 C 0.31252 0.90711 0.22511 0.0
C144 C 0.32976 0.8881 0.26426 0.0
N145 N 0.32504 0.89612 0.33599 0.0
O146 O 0.28854 0.87371 0.07523 0.0
H147 H 0.30381 0.9143 0.18717 0.0
H148 H 0.33787 0.87713 0.26239 0.0
O149 O 0.32797 0.91849 0.05445 0.0
C150 C 0.27602 0.8547 0.11703 0.0
O151 O 0.28678 0.84719 0.16795 0.0
N152 N 0.3555 0.89861 0.08507 0.0
C153 C 0.40192 0.90724 0.06847 0.0
C154 C 0.39627 0.92467 0.04667 0.0
C155 C 0.37295 0.92008 0.0558 0.0
C156 C 0.36083 0.88167 0.10808 0.0
C157 C 0.38402 0.88573 0.10149 0.0
H158 H 0.36902 0.93349 0.03513 0.0
H159 H 0.34673 0.86449 0.1283 0.0
H160 H 0.34029 0.91203 0.89865 0.0
H161 H 0.30601 0.8413 0.81584 0.0
H162 H 0.30697 0.91612 0.35228 0.0
H163 H 0.40966 0.94147 0.02064 0.0
H164 H 0.38762 0.8717 0.11775 0.0
C165 C 0.46678 0.31659 0.92813 0.0
C166 C 0.46617 0.31447 0.84206 0.0
N167 N 0.44358 0.30565 0.81595 0.0
N168 N 0.44475 0.3097 0.9573 0.0
C169 C 0.4309 0.30212 0.88739 0.0
H170 H 0.48261 0.32299 0.96583 0.0
Co171 Co 0.43472 0.30968 0.06991 0.0
C172 C 0.41303 0.33341 0.97217 0.0
O173 O 0.43233 0.34429 0.92598 0.0
N174 N 0.42466 0.30878 0.18109 0.0
C175 C 0.40194 0.30179 0.29377 0.0
C176 C 0.40273 0.30307 0.20734 0.0
C177 C 0.43687 0.31087 0.25259 0.0
N178 N 0.42345 0.30662 0.32262 0.0
O179 O 0.41157 0.27662 0.05616 0.0
H180 H 0.38791 0.29908 0.16628 0.0
H181 H 0.45513 0.31483 0.25268 0.0
O182 O 0.41175 0.31953 0.0316 0.0
C183 C 0.41853 0.26383 0.0935 0.0
O184 O 0.43819 0.27432 0.13795 0.0
N185 N 0.45931 0.34126 0.08667 0.0
C186 C 0.50178 0.38453 0.09021 0.0
C187 C 0.47984 0.3838 0.08424 0.0
C188 C 0.45865 0.36188 0.085 0.0
C189 C 0.48009 0.3419 0.10477 0.0
C190 C 0.50155 0.36324 0.10579 0.0
H191 H 0.44202 0.36172 0.08219 0.0
H192 H 0.48013 0.32546 0.11352 0.0
H193 H 0.41186 0.29487 0.88884 0.0
H194 H 0.48146 0.31996 0.80181 0.0
H195 H 0.38632 0.29666 0.33178 0.0
H196 H 0.47901 0.39983 0.07562 0.0
H197 H 0.51787 0.36294 0.11581 0.0
C198 C 0.56312 0.86277 0.12016 0.0
C199 C 0.56364 0.86186 0.20652 0.0
N200 N 0.58301 0.88165 0.23436 0.0
N201 N 0.58206 0.883 0.09321 0.0
C202 C 0.59399 0.89402 0.16409 0.0
H203 H 0.54919 0.85004 0.0797 0.0
Co204 Co 0.58654 0.89319 0.98149 0.0
C205 C 0.63232 0.93908 0.98384 0.0
O206 O 0.64029 0.93329 0.91745 0.0
N207 N 0.5905 0.90312 0.86828 0.0
C208 C 0.59381 0.92398 0.75315 0.0
C209 C 0.59312 0.92379 0.83953 0.0
C210 C 0.58936 0.89095 0.7979 0.0
N211 N 0.59141 0.90326 0.72678 0.0
O212 O 0.60827 0.88146 0.96727 0.0
H213 H 0.59391 0.93766 0.87895 0.0
H214 H 0.58677 0.87327 0.79848 0.0
O215 O 0.612 0.92442 1.01438 0.0
C216 C 0.59667 0.85951 0.9485 0.0
O217 O 0.57357 0.84933 0.93769 0.0
N218 N 0.56386 0.90264 0.99644 0.0
C219 C 0.52506 0.90864 0.02863 0.0
C220 C 0.54617 0.92129 0.07474 0.0
C221 C 0.5655 0.91815 0.05731 0.0
C222 C 0.54358 0.89044 0.95031 0.0
C223 C 0.52405 0.89345 0.96452 0.0
H224 H 0.5813 0.92735 0.09554 0.0
H225 H 0.54227 0.8777 0.90405 0.0
H226 H 0.60999 0.91116 0.16441 0.0
H227 H 0.55003 0.84828 0.24574 0.0
H228 H 0.59507 0.93797 0.71301 0.0
H229 H 0.54754 0.93311 0.12497 0.0
H230 H 0.50792 0.88312 0.92846 0.0
C231 C 0.70403 0.55511 0.14733 0.0
C232 C 0.70673 0.55657 0.23324 0.0
N233 N 0.70702 0.57635 0.25977 0.0
N234 N 0.70249 0.57378 0.11932 0.0
C235 C 0.70484 0.58668 0.18893 0.0
H236 H 0.70216 0.54076 0.10802 0.0
Co237 Co 0.69608 0.57741 1.00737 0.0
C238 C 0.67227 0.60621 0.05066 0.0
O239 O 0.65085 0.5877 0.04885 0.0
N240 N 0.69041 0.58139 0.89281 0.0
C241 C 0.67455 0.5863 0.77556 0.0
C242 C 0.67301 0.58481 0.86161 0.0
C243 C 0.7022 0.58073 0.82356 0.0
N244 N 0.69296 0.58375 0.75133 0.0
O245 O 0.72954 0.59953 0.99316 0.0
H246 H 0.65927 0.58519 0.89805 0.0
H247 H 0.71717 0.57789 0.82564 0.0
O248 O 0.69054 0.60411 0.03594 0.0
C249 C 0.74053 0.58844 0.97557 0.0
O250 O 0.72812 0.56541 0.96448 0.0
N251 N 0.66351 0.55302 0.0226 0.0
C252 C 0.61848 0.51272 0.04559 0.0
C253 C 0.62911 0.5296 0.10945 0.0
C254 C 0.65169 0.54927 0.09741 0.0
C255 C 0.65377 0.5361 0.9613 0.0
C256 C 0.63117 0.5162 0.97066 0.0
H257 H 0.65938 0.56172 0.14845 0.0
H258 H 0.66371 0.53752 0.90512 0.0
H259 H 0.70391 0.60276 0.18799 0.0
H260 H 0.70699 0.54327 0.27326 0.0
H261 H 0.66237 0.58813 0.73403 0.0
H262 H 0.62037 0.52736 0.16945 0.0
H263 H 0.62389 0.5035 0.91981 0.0
C264 C 0.15608 0.694 0.09244 0.0
C265 C 0.15648 0.69386 0.17884 0.0
N266 N 0.13771 0.6953 0.20741 0.0
N267 N 0.13715 0.69546 0.06655 0.0
C268 C 0.12634 0.69632 0.13764 0.0
H269 H 0.16899 0.69352 0.05089 0.0
Co270 Co 0.13037 0.69768 0.95555 0.0
C271 C 0.07881 0.68053 0.94422 0.0
O272 O 0.07867 0.67029 0.87299 0.0
N273 N 0.12437 0.70097 0.84133 0.0
C274 C 0.11701 0.71648 0.72837 0.0
C275 C 0.11751 0.7163 0.81456 0.0
C276 C 0.12803 0.69213 0.76957 0.0
N277 N 0.12369 0.70126 0.69987 0.0
O278 O 0.14462 0.73152 0.97044 0.0
H279 H 0.11362 0.72717 0.85541 0.0
H280 H 0.13409 0.67954 0.76765 0.0
O281 O 0.09833 0.69221 0.98543 0.0
C282 C 0.16475 0.74365 0.93449 0.0
O283 O 0.17258 0.7327 0.88623 0.0
N284 N 0.11895 0.66482 0.94493 0.0
C285 C 0.11286 0.61918 0.96019 0.0
C286 C 0.0969 0.62492 0.99812 0.0
C287 C 0.1004 0.64783 0.99069 0.0
C288 C 0.13481 0.65965 0.90891 0.0
C289 C 0.13169 0.63688 0.91317 0.0
H290 H 0.08931 0.65221 0.02803 0.0
H291 H 0.15089 0.67369 0.881 0.0
H292 H 0.11056 0.69785 0.13806 0.0
H293 H 0.17002 0.69344 0.21721 0.0
H294 H 0.11295 0.72771 0.69006 0.0
H295 H 0.08269 0.61236 0.03817 0.0
H296 H 0.14462 0.63359 0.88262 0.0
C297 C 0.46919 0.14302 0.14004 0.0
C298 C 0.46868 0.14608 0.22527 0.0
N299 N 0.44582 0.13581 0.24997 0.0
N300 N 0.44678 0.13037 0.11038 0.0
C301 C 0.43295 0.12717 0.1784 0.0
H302 H 0.48502 0.149 0.10241 0.0
Co303 Co 0.43972 0.12119 0.99665 0.0
C304 C 0.40264 0.07376 0.0821 0.0
O305 O 0.4104 0.07852 0.15983 0.0
N306 N 0.43329 0.11287 0.8819 0.0
C307 C 0.42268 0.09196 0.76325 0.0
C308 C 0.42388 0.09086 0.84929 0.0
C309 C 0.43811 0.12709 0.8138 0.0
N310 N 0.43168 0.11477 0.74076 0.0
O311 O 0.41861 0.13387 0.9949 0.0
H312 H 0.41892 0.07498 0.88524 0.0
H313 H 0.44654 0.14616 0.81734 0.0
O314 O 0.41309 0.08917 0.02405 0.0
C315 C 0.42986 0.15583 0.97616 0.0
O316 O 0.45276 0.16607 0.9609 0.0
N317 N 0.46204 0.11061 0.99742 0.0
C318 C 0.50206 0.1055 1.01503 0.0
C319 C 0.48167 0.0919 0.06355 0.0
C320 C 0.46186 0.0947 0.05379 0.0
C321 C 0.48137 0.12325 0.94708 0.0
C322 C 0.5015 0.12081 0.95427 0.0
H323 H 0.44726 0.08527 0.09604 0.0
H324 H 0.48176 0.13639 0.90451 0.0
H325 H 0.41374 0.11817 0.17585 0.0
H326 H 0.484 0.15409 0.26644 0.0
H327 H 0.41664 0.07718 0.7203 0.0
H328 H 0.48135 0.07982 0.11106 0.0
H329 H 0.51698 0.13187 0.91621 0.0
C330 C 0.32895 0.46392 0.10205 0.0
C331 C 0.3296 0.46458 0.18827 0.0
N332 N 0.32889 0.44472 0.21663 0.0
N333 N 0.32788 0.44381 0.07599 0.0
C334 C 0.32782 0.43241 0.14682 0.0
H335 H 0.32863 0.47694 0.06072 0.0
Co336 Co 0.32465 0.43515 0.96496 0.0
C337 C 0.34317 0.40262 0.94286 0.0
O338 O 0.35305 0.41467 0.8739 0.0
N339 N 0.32025 0.42626 0.85031 0.0
C340 C 0.30442 0.40344 0.73758 0.0
C341 C 0.30464 0.40411 0.82374 0.0
C342 C 0.32918 0.43874 0.77849 0.0
N343 N 0.31991 0.42528 0.70899 0.0
O344 O 0.29078 0.41501 0.98326 0.0
H345 H 0.29388 0.3893 0.86472 0.0
H346 H 0.34223 0.45729 0.77638 0.0
O347 O 0.33112 0.40879 0.98994 0.0
C348 C 0.27885 0.42378 0.95103 0.0
O349 O 0.29019 0.44343 0.90712 0.0
N350 N 0.35743 0.45728 0.95078 0.0
C351 C 0.40344 0.49689 0.95505 0.0
C352 C 0.39848 0.47546 0.99303 0.0
C353 C 0.37532 0.45607 0.99182 0.0
C354 C 0.36181 0.4782 0.91595 0.0
C355 C 0.38469 0.49795 0.9153 0.0
H356 H 0.37167 0.44076 0.02896 0.0
H357 H 0.34719 0.47991 0.89173 0.0
H358 H 0.32668 0.4153 0.14699 0.0
H359 H 0.32964 0.47826 0.22675 0.0
H360 H 0.29319 0.38813 0.69931 0.0
H361 H 0.41205 0.47406 0.02788 0.0
H362 H 0.38744 0.51413 0.88602 0.0
C363 C 0.8777 0.33046 0.11366 0.0
C364 C 0.87483 0.32697 0.19907 0.0
N365 N 0.8856 0.31491 0.22394 0.0
N366 N 0.89068 0.32113 0.08413 0.0
C367 C 0.89438 0.31094 0.15241 0.0
H368 H 0.87122 0.33983 0.07584 0.0
Co369 Co 0.89972 0.32242 0.97063 0.0
C370 C 0.94788 0.33733 0.05949 0.0
O371 O 0.9425 0.34184 0.1341 0.0
N372 N 0.90804 0.32341 0.85615 0.0
C373 C 0.92894 0.33326 0.73741 0.0
C374 C 0.93012 0.33577 0.82329 0.0
C375 C 0.8937 0.31386 0.78827 0.0
N376 N 0.90601 0.31951 0.71511 0.0
O377 O 0.88853 0.28896 0.97484 0.0
H378 H 0.94612 0.34684 0.8587 0.0
H379 H 0.87454 0.30343 0.79211 0.0
O380 O 0.93249 0.33007 1.0001 0.0
C381 C 0.86636 0.27757 0.95792 0.0
O382 O 0.85563 0.28955 0.93991 0.0
N383 N 0.90829 0.35469 0.96482 0.0
C384 C 0.90834 0.39764 0.97212 0.0
C385 C 0.9246 0.39419 0.01958 0.0
C386 C 0.92431 0.3726 1.01496 0.0
C387 C 0.8933 0.35823 0.91475 0.0
C388 C 0.89322 0.37958 0.91665 0.0
H389 H 0.93584 0.37002 0.05623 0.0
H390 H 0.88025 0.34384 0.87673 0.0
H391 H 0.90396 0.30135 0.15 0.0
H392 H 0.8665 0.33389 0.24014 0.0
H393 H 0.94376 0.34193 0.69436 0.0
H394 H 0.93647 0.40742 0.06401 0.0
H395 H 0.88066 0.38149 0.87733 0.0
H396 H 0.14934 0.60993 0.97621 0.0
H397 H 0.07269 0.57539 0.9824 0.0
H398 H 0.07048 0.53791 0.01772 0.0
H399 H 0.09038 0.51498 0.04847 0.0
H400 H 0.16684 0.54932 0.02452 0.0
H401 H 0.16879 0.58666 0.99457 0.0
C402 C 0.13203 0.59421 0.98311 0.0
C403 C 0.11124 0.59577 0.97627 0.0
C404 C 0.1308 0.57255 1.00133 0.0
C405 C 0.0891 0.57503 0.98834 0.0
C406 C 0.08778 0.55347 1.00814 0.0
C407 C 0.10749 0.53048 0.03573 0.0
C408 C 0.12844 0.52906 0.04085 0.0
C409 C 0.10855 0.55202 1.01514 0.0
C410 C 0.15038 0.54968 0.0245 0.0
C411 C 0.15157 0.57116 1.00608 0.0
H412 H 0.59614 0.11074 0.15107 0.0
H413 H 0.6058 0.10398 0.8865 0.0
H414 H 0.56786 0.10165 0.8554 0.0
H415 H 0.53222 0.1025 0.90308 0.0
H416 H 0.52218 0.10839 0.168 0.0
H417 H 0.55976 0.11 0.19924 0.0
C418 C 0.58988 0.10874 0.08669 0.0
C419 C 0.60374 0.10751 0.02127 0.0
C420 C 0.56794 0.10724 0.06927 0.0
C421 C 0.59534 0.10471 0.93813 0.0
C422 C 0.5737 0.1035 0.92021 0.0
C423 C 0.53829 0.1041 0.96757 0.0
C424 C 0.52441 0.10528 0.03306 0.0
C425 C 0.55989 0.10488 0.98521 0.0
C426 C 0.53239 0.10716 0.11648 0.0
C427 C 0.55395 0.10823 0.13441 0.0
H428 H 0.41389 0.54236 0.98242 0.0
H429 H 0.44719 0.50003 0.94688 0.0
H430 H 0.48637 0.53528 0.96445 0.0
H431 H 0.51123 0.57828 0.99036 0.0
H432 H 0.47725 0.62033 0.01768 0.0
H433 H 0.43844 0.58505 1.00279 0.0
C434 C 0.42967 0.5408 0.977 0.0
C435 C 0.42745 0.51848 0.96279 0.0
C436 C 0.45213 0.56114 0.98639 0.0
C437 C 0.44825 0.5169 0.95842 0.0
C438 C 0.4707 0.53709 0.96812 0.0
C439 C 0.49537 0.57978 0.99245 0.0
C440 C 0.49736 0.60207 1.00636 0.0
C441 C 0.47288 0.55934 0.98226 0.0
C442 C 0.47645 0.60347 1.0094 0.0
C443 C 0.45414 0.58328 1.00001 0.0
H444 H 0.94314 0.44364 1.00376 0.0
H445 H 0.86716 0.39933 0.97355 0.0
H446 H 0.86196 0.4332 0.99834 0.0
H447 H 0.87863 0.4753 0.02895 0.0
H448 H 0.95422 0.51965 0.06658 0.0
H449 H 0.95979 0.48587 0.03921 0.0
C450 C 0.92542 0.44132 1.00311 0.0
C451 C 0.90564 0.41885 0.98562 0.0
C452 C 0.92241 0.4609 0.01914 0.0
C453 C 0.88285 0.4164 0.98447 0.0
C454 C 0.87977 0.43576 0.99962 0.0
C455 C 0.89631 0.47757 0.03263 0.0
C456 C 0.91594 0.50005 0.05034 0.0
C457 C 0.89939 0.45807 0.0172 0.0
C458 C 0.93878 0.50264 0.05254 0.0
C459 C 0.94198 0.48329 0.03711 0.0
H460 H 0.43165 0.90201 0.1756 0.0
H461 H 0.42531 0.9197 0.91931 0.0
H462 H 0.46317 0.92228 0.88416 0.0
H463 H 0.49729 0.91774 0.92505 0.0
H464 H 0.50463 0.9019 0.18276 0.0
H465 H 0.46736 0.90051 0.21899 0.0
C466 C 0.43871 0.90657 0.1123 0.0
C467 C 0.42576 0.9106 0.05004 0.0
C468 C 0.46063 0.90831 0.09285 0.0
C469 C 0.4351 0.91669 0.96834 0.0
C470 C 0.45666 0.91805 0.94814 0.0
C471 C 0.49073 0.91414 0.98915 0.0
C472 C 0.50356 0.90984 0.05112 0.0
C473 C 0.46946 0.91365 1.00965 0.0
C474 C 0.49508 0.90541 0.13418 0.0
C475 C 0.47374 0.90449 0.15479 0.0
H476 H 0.60456 0.46759 0.99738 0.0
H477 H 0.57929 0.50909 0.1248 0.0
H478 H 0.54113 0.4733 0.15119 0.0
H479 H 0.51502 0.42995 0.13927 0.0
H480 H 0.54031 0.38931 1.00537 0.0
H481 H 0.57822 0.425 0.98046 0.0
C482 C 0.59062 0.46893 0.0298 0.0
C483 C 0.59487 0.49107 0.05888 0.0
C484 C 0.56869 0.44834 0.04427 0.0
C485 C 0.57667 0.49227 0.10247 0.0
C486 C 0.55477 0.4718 0.11729 0.0
C487 C 0.52874 0.42892 0.10412 0.0
C488 C 0.52479 0.4068 0.07548 0.0
C489 C 0.5506 0.44969 0.08874 0.0
C490 C 0.54294 0.4059 0.03032 0.0
C491 C 0.56464 0.42637 1.01523 0.0
H492 H 0.25585 0.41144 0.10147 0.0
H493 H 0.24512 0.41645 0.83673 0.0
H494 H 0.20584 0.41136 0.86427 0.0
H495 H 0.17804 0.41303 0.96523 0.0
H496 H 0.19104 0.41274 0.23064 0.0
H497 H 0.22532 0.4079 0.20205 0.0
C498 C 0.24447 0.41048 0.04986 0.0
C499 C 0.25322 0.41411 0.96719 0.0
C500 C 0.22232 0.40871 0.06664 0.0
C501 C 0.23863 0.41354 0.90085 0.0
C502 C 0.21624 0.41079 0.91664 0.0
C503 C 0.18783 0.41093 0.01662 0.0
C504 C 0.18192 0.413 0.09991 0.0
C505 C 0.20832 0.40941 0.99951 0.0
C506 C 0.19517 0.41098 0.16602 0.0
C507 C 0.21492 0.40843 0.14965 0.0
H508 H 0.85194 0.25281 0.10243 0.0
H509 H 0.84564 0.24541 0.83349 0.0
H510 H 0.811 0.20563 0.84806 0.0
H511 H 0.77814 0.17652 0.93735 0.0
H512 H 0.78236 0.18655 0.20568 0.0
H513 H 0.82209 0.22118 0.19227 0.0
C514 C 0.84357 0.24198 0.04736 0.0
C515 C 0.85153 0.25168 0.96708 0.0
C516 C 0.8229 0.21965 0.05642 0.0
C517 C 0.84005 0.23798 0.89586 0.0
C518 C 0.82007 0.21536 0.90426 0.0
C519 C 0.78821 0.1858 0.99285 0.0
C520 C 0.7775 0.17897 0.07244 0.0
C521 C 0.81067 0.20645 0.98418 0.0
C522 C 0.79038 0.19147 0.14388 0.0
C523 C 0.81303 0.21137 0.13616 0.0
H524 H 0.60461 0.77046 0.88193 0.0
H525 H 0.61674 0.77637 0.14897 0.0
H526 H 0.62253 0.81651 0.14719 0.0
H527 H 0.61563 0.84604 0.07382 0.0
H528 H 0.59974 0.83792 0.80904 0.0
H529 H 0.6045 0.80307 0.80452 0.0
C530 C 0.60963 0.78105 0.93884 0.0
C531 C 0.61072 0.77082 1.01518 0.0
C532 C 0.6119 0.80367 0.9376 0.0
C533 C 0.61638 0.78422 0.08928 0.0
C534 C 0.61937 0.80704 0.08833 0.0
C535 C 0.61434 0.83722 1.01463 0.0
C536 C 0.60771 0.84463 0.94154 0.0
C537 C 0.61603 0.81649 1.01351 0.0
C538 C 0.60522 0.83267 0.86562 0.0
C539 C 0.60769 0.81259 0.86329 0.0
H540 H 0.76814 0.60201 0.11361 0.0
H541 H 0.7702 0.59673 0.84458 0.0
H542 H 0.81007 0.60165 0.85303 0.0
H543 H 0.84062 0.59945 0.93943 0.0
H544 H 0.83572 0.5998 0.20928 0.0
H545 H 0.80124 0.60526 0.19888 0.0
C546 C 0.77787 0.60307 0.05683 0.0
C547 C 0.76661 0.59959 0.97848 0.0
C548 C 0.8002 0.60455 0.06279 0.0
C549 C 0.77884 0.59995 0.90534 0.0
C550 C 0.8015 0.60244 0.91035 0.0
C551 C 0.8325 0.60167 0.99562 0.0
C552 C 0.84074 0.59947 0.07502 0.0
C553 C 0.81189 0.60364 0.989 0.0
C554 C 0.82972 0.60165 0.14759 0.0
C555 C 0.80991 0.60459 0.14163 0.0
H556 H 0.17528 0.76455 0.08822 0.0
H557 H 0.19198 0.77857 0.82505 0.0
H558 H 0.22612 0.81735 0.85844 0.0
H559 H 0.25502 0.84405 0.96332 0.0
H560 H 0.24089 0.8276 0.22668 0.0
H561 H 0.20202 0.79349 0.19322 0.0
C562 C 0.18594 0.77651 0.03831 0.0
C563 C 0.18108 0.76888 0.95432 0.0
C564 C 0.2063 0.7983 0.05835 0.0
C565 C 0.19537 0.7842 0.89014 0.0
C566 C 0.21498 0.8063 0.90926 0.0
C567 C 0.24303 0.83346 1.0133 0.0
C568 C 0.25068 0.83838 0.09733 0.0
C569 C 0.2212 0.81314 0.99327 0.0
C570 C 0.23528 0.82418 0.16154 0.0
C571 C 0.21312 0.80458 0.14238 0.0
H572 H 0.40776 0.16406 0.10532 0.0
H573 H 0.42896 0.18218 0.84718 0.0
H574 H 0.42131 0.21521 0.85537 0.0
H575 H 0.41658 0.24346 0.94406 0.0
H576 H 0.40052 0.22819 0.20684 0.0
H577 H 0.39749 0.1895 0.18916 0.0
C578 C 0.40973 0.17471 0.05019 0.0
C579 C 0.41864 0.17065 0.97551 0.0
C580 C 0.40646 0.19445 0.0568 0.0
C581 C 0.42189 0.18494 0.905 0.0
C582 C 0.41769 0.20393 0.9099 0.0
C583 C 0.4113 0.23113 0.9963 0.0
C584 C 0.40832 0.23836 0.07626 0.0
C585 C 0.41104 0.20953 0.98653 0.0
C586 C 0.40242 0.22271 0.14443 0.0
C587 C 0.401 0.20072 0.1345 0.0
H588 H 0.09971 0.41535 0.47082 0.0
H589 H 0.16876 0.47142 0.39291 0.0
H590 H 0.17994 0.48242 0.53957 0.0
H591 H 0.17106 0.47433 0.69023 0.0
H592 H 0.10269 0.41669 0.76714 0.0
H593 H 0.09032 0.40821 0.62078 0.0
C594 C 0.11724 0.42994 0.48577 0.0
C595 C 0.13342 0.44234 0.42061 0.0
C596 C 0.12372 0.43587 0.57029 0.0
C597 C 0.15585 0.46161 0.44138 0.0
C598 C 0.16234 0.46781 0.52543 0.0
C599 C 0.15348 0.45987 0.67514 0.0
C600 C 0.13796 0.44611 0.74019 0.0
C601 C 0.14658 0.45477 0.59044 0.0
C602 C 0.11501 0.42778 0.71902 0.0
C603 C 0.10794 0.42277 0.63505 0.0
H604 H 0.71299 0.09929 0.44622 0.0
H605 H 0.6928 0.15034 0.36986 0.0
H606 H 0.68815 0.15788 0.51649 0.0
H607 H 0.69203 0.15168 0.66614 0.0
H608 H 0.71546 0.10303 0.74181 0.0
H609 H 0.71658 0.09288 0.59553 0.0
C610 C 0.70775 0.11221 0.46134 0.0
C611 C 0.7035 0.12435 0.39657 0.0
C612 C 0.70573 0.11695 0.54585 0.0
C613 C 0.69604 0.14054 0.41787 0.0
C614 C 0.69355 0.14503 0.50195 0.0
C615 C 0.69757 0.139 0.65094 0.0
C616 C 0.70381 0.12833 0.71552 0.0
C617 C 0.69874 0.13362 0.5664 0.0
C618 C 0.71034 0.11145 0.69408 0.0
C619 C 0.71116 0.10571 0.61015 0.0
H620 H 0.62274 0.70747 0.40548 0.0
H621 H 0.56192 0.71207 0.32451 0.0
H622 H 0.55302 0.71652 0.47076 0.0
H623 H 0.56047 0.71528 0.62276 0.0
H624 H 0.62154 0.71084 0.70272 0.0
H625 H 0.63261 0.71053 0.55642 0.0
C626 C 0.60768 0.70968 0.41995 0.0
C627 C 0.59288 0.70921 0.35421 0.0
C628 C 0.60268 0.71219 0.50421 0.0
C629 C 0.57364 0.71248 0.37372 0.0
C630 C 0.56846 0.71486 0.45748 0.0
C631 C 0.57634 0.7145 0.60813 0.0
C632 C 0.58998 0.71283 0.67411 0.0
C633 C 0.58254 0.71417 0.52341 0.0
C634 C 0.61073 0.71224 0.65379 0.0
C635 C 0.61698 0.71186 0.56986 0.0
H636 H 0.91735 0.61722 0.4561 0.0
H637 H 0.87185 0.54465 0.37824 0.0
H638 H 0.86501 0.53207 0.52447 0.0
H639 H 0.87055 0.54176 0.67428 0.0
H640 H 0.91346 0.6148 0.75159 0.0
H641 H 0.92262 0.62695 0.60566 0.0
C642 C 0.90575 0.59866 0.47071 0.0
C643 C 0.89509 0.58202 0.40546 0.0
C644 C 0.90137 0.59156 0.55513 0.0
C645 C 0.88058 0.55794 0.42641 0.0
C646 C 0.87647 0.5507 0.51035 0.0
C647 C 0.88172 0.56037 0.65966 0.0
C648 C 0.89113 0.57724 0.72479 0.0
C649 C 0.88654 0.5674 0.57519 0.0
C650 C 0.90607 0.60125 0.70368 0.0
C651 C 0.91124 0.6083 0.61985 0.0
H652 H 0.32805 0.85611 0.69205 0.0
H653 H 0.33044 0.92077 0.76819 0.0
H654 H 0.33264 0.93252 0.62158 0.0
H655 H 0.33101 0.92323 0.47163 0.0
H656 H 0.3266 0.85777 0.39451 0.0
H657 H 0.32826 0.84765 0.54138 0.0
C658 C 0.32902 0.87275 0.67671 0.0
C659 C 0.32887 0.88739 0.7416 0.0
C660 C 0.32986 0.87926 0.59189 0.0
C661 C 0.33071 0.90918 0.72016 0.0
C662 C 0.33179 0.91586 0.63606 0.0
C663 C 0.33037 0.90672 0.48684 0.0
C664 C 0.3284 0.89118 0.42189 0.0
C665 C 0.33092 0.90084 0.57146 0.0
C666 C 0.32823 0.87014 0.44289 0.0
C667 C 0.329 0.86426 0.52704 0.0
H668 H 0.40085 0.30824 0.46388 0.0
H669 H 0.461 0.30272 0.37911 0.0
H670 H 0.47198 0.30112 0.52418 0.0
H671 H 0.46473 0.30132 0.67565 0.0
H672 H 0.40442 0.30645 0.76023 0.0
H673 H 0.39289 0.30719 0.61497 0.0
C674 C 0.41623 0.30643 0.47652 0.0
C675 C 0.43003 0.30572 0.40929 0.0
C676 C 0.42235 0.30517 0.56061 0.0
C677 C 0.45012 0.30372 0.42844 0.0
C678 C 0.45637 0.30259 0.51186 0.0
C679 C 0.44909 0.30266 0.66261 0.0
C680 C 0.4356 0.30394 0.72972 0.0
C681 C 0.44266 0.30336 0.57849 0.0
C682 C 0.41511 0.30521 0.7107 0.0
C683 C 0.40858 0.30584 0.62726 0.0
H684 H 0.57033 0.85388 0.37291 0.0
H685 H 0.60842 0.92689 0.29205 0.0
H686 H 0.61554 0.93991 0.43792 0.0
H687 H 0.6093 0.93079 0.58863 0.0
H688 H 0.56954 0.85788 0.66964 0.0
H689 H 0.56484 0.84472 0.52397 0.0
C690 C 0.58013 0.87264 0.38701 0.0
C691 C 0.5887 0.88929 0.32089 0.0
C692 C 0.58384 0.8801 0.4714 0.0
C693 C 0.6018 0.91356 0.34094 0.0
C694 C 0.60573 0.92108 0.42467 0.0
C695 C 0.59949 0.91202 0.57463 0.0
C696 C 0.58968 0.89543 0.64064 0.0
C697 C 0.59655 0.90453 0.49039 0.0
C698 C 0.57749 0.87113 0.62079 0.0
C699 C 0.57464 0.86355 0.53717 0.0
H700 H 0.68536 0.60347 0.61392 0.0
H701 H 0.71641 0.56172 0.69474 0.0
H702 H 0.72546 0.55756 0.54913 0.0
H703 H 0.72223 0.56357 0.39816 0.0
H704 H 0.68893 0.60331 0.31769 0.0
H705 H 0.68336 0.6106 0.46356 0.0
C706 C 0.69401 0.59335 0.59992 0.0
C707 C 0.69992 0.58273 0.66575 0.0
C708 C 0.6988 0.59066 0.51577 0.0
C709 C 0.71172 0.57023 0.64597 0.0
C710 C 0.71678 0.5677 0.56242 0.0
C711 C 0.71371 0.57379 0.41227 0.0
C712 C 0.70589 0.58267 0.34618 0.0
C713 C 0.71003 0.57749 0.4967 0.0
C714 C 0.69538 0.59637 0.36641 0.0
C715 C 0.69197 0.6004 0.45019 0.0
H716 H 0.15255 0.68199 0.34525 0.0
H717 H 0.10909 0.71145 0.26635 0.0
H718 H 0.09971 0.71434 0.41203 0.0
H719 H 0.10481 0.70982 0.56192 0.0
H720 H 0.15087 0.6834 0.641 0.0
H721 H 0.15806 0.67795 0.49516 0.0
C722 C 0.14122 0.68927 0.35947 0.0
C723 C 0.13169 0.69654 0.29396 0.0
C724 C 0.13626 0.69141 0.44377 0.0
C725 C 0.11656 0.70542 0.31456 0.0
C726 C 0.11127 0.70726 0.39826 0.0
C727 C 0.1166 0.70307 0.54768 0.0
C728 C 0.12727 0.69715 0.61327 0.0
C729 C 0.1212 0.70051 0.46336 0.0
C730 C 0.14208 0.68789 0.59269 0.0
C731 C 0.1464 0.68492 0.50891 0.0
H732 H 0.46797 0.16223 0.38721 0.0
H733 H 0.40503 0.09831 0.30814 0.0
H734 H 0.39421 0.08691 0.45453 0.0
H735 H 0.40448 0.09324 0.60503 0.0
H736 H 0.46767 0.15675 0.68455 0.0
H737 H 0.47648 0.17018 0.53855 0.0
C738 C 0.45181 0.14588 0.40194 0.0
C739 C 0.43754 0.13105 0.33614 0.0
C740 C 0.44582 0.13924 0.48663 0.0
C741 C 0.41636 0.11016 0.35683 0.0
C742 C 0.41025 0.1035 0.44083 0.0
C743 C 0.42013 0.11006 0.59038 0.0
C744 C 0.43552 0.12383 0.65573 0.0
C745 C 0.42515 0.11759 0.50615 0.0
C746 C 0.45547 0.14583 0.63578 0.0
C747 C 0.4606 0.15345 0.55213 0.0
H748 H 0.31221 0.39765 0.57267 0.0
H749 H 0.33846 0.47017 0.64875 0.0
H750 H 0.34529 0.4827 0.50263 0.0
H751 H 0.34229 0.47301 0.3534 0.0
H752 H 0.31284 0.4001 0.27653 0.0
H753 H 0.30897 0.38792 0.42296 0.0
C754 C 0.31922 0.41617 0.55763 0.0
C755 C 0.32469 0.43283 0.62238 0.0
C756 C 0.32258 0.42326 0.4731 0.0
C757 C 0.33431 0.45687 0.601 0.0
C758 C 0.33808 0.46409 0.51711 0.0
C759 C 0.3348 0.45441 0.36821 0.0
C760 C 0.32772 0.43757 0.30324 0.0
C761 C 0.33202 0.4474 0.45269 0.0
C762 C 0.31867 0.4136 0.32451 0.0
C763 C 0.31626 0.40654 0.40854 0.0
H764 H 0.92767 0.31444 0.57888 0.0
H765 H 0.86389 0.31351 0.65899 0.0
H766 H 0.8507 0.30971 0.51281 0.0
H767 H 0.85895 0.31004 0.36131 0.0
H768 H 0.92335 0.31199 0.28192 0.0
H769 H 0.93443 0.31168 0.42821 0.0
C770 C 0.91084 0.31333 0.56437 0.0
C771 C 0.89693 0.31453 0.62999 0.0
C772 C 0.90349 0.31137 0.48004 0.0
C773 C 0.87492 0.31253 0.61008 0.0
C774 C 0.86744 0.31052 0.5263 0.0
C775 C 0.87536 0.31028 0.37592 0.0
C776 C 0.89037 0.3113 0.31006 0.0
C777 C 0.88183 0.31044 0.46062 0.0
C778 C 0.91133 0.31108 0.33062 0.0
C779 C 0.91781 0.31111 0.41458 0.0
H780 H 0.05051 0.36463 0.92455 0.0
H781 H 0.07043 0.40932 0.14469 0.0
H782 H 0.02889 0.3934 0.18038 0.0
H783 H 0.98687 0.36771 0.14894 0.0
H784 H 0.96569 0.32413 0.9264 0.0
H785 H 1.00753 0.33858 0.89228 0.0
C786 C 0.04574 0.3708 0.98041 0.0
C787 C 0.06375 0.38815 0.03177 0.0
C788 C 0.02151 0.36177 1.00039 0.0
C789 C 0.05712 0.39604 0.10366 0.0
C790 C 0.03328 0.38691 0.12444 0.0
C791 C 0.99131 0.36114 0.0933 0.0
C792 C 0.97308 0.34477 0.04055 0.0
C793 C 0.01533 0.36986 0.07327 0.0
C794 C 0.97933 0.33677 0.96812 0.0
C795 C 1.00328 0.34504 0.94856 0.0
H796 H 0.66369 0.97964 0.90006 0.0
H797 H 0.62828 0.95409 0.13864 0.0
H798 H 0.64429 0.99461 0.18746 0.0
H799 H 0.66542 0.03687 0.15953 0.0
H800 H 0.6994 0.06369 0.91982 0.0
H801 H 0.68718 0.02313 0.87467 0.0
C802 C 0.65985 0.98299 0.96322 0.0
C803 C 0.64477 0.96378 1.01566 0.0
C804 C 0.66869 1.00654 0.99041 0.0
C805 C 0.63974 0.96844 0.09693 0.0
C806 C 0.64886 0.99165 0.1249 0.0
C807 C 0.67035 0.03399 0.09738 0.0
C808 C 0.68314 0.05334 0.04283 0.0
C809 C 0.66288 0.01077 0.0716 0.0
C810 C 0.68956 0.04916 0.96307 0.0
C811 C 0.68246 0.02594 0.93718 0.0
H812 H 0.67797 0.63221 0.91283 0.0
H813 H 0.66628 0.6298 0.17965 0.0
H814 H 0.65276 0.65861 0.16558 0.0
H815 H 0.63748 0.67848 0.07388 0.0
H816 H 0.64467 0.67637 0.80489 0.0
H817 H 0.66713 0.65598 0.82297 0.0
C818 C 0.67348 0.63887 0.96815 0.0
C819 C 0.67356 0.62937 0.04734 0.0
C820 C 0.66427 0.65419 0.95866 0.0
C821 C 0.66689 0.63738 0.1184 0.0
C822 C 0.65879 0.65355 0.11007 0.0
C823 C 0.64406 0.67374 0.01927 0.0
C824 C 0.63859 0.6783 0.93808 0.0
C825 C 0.65626 0.66112 0.02995 0.0
C826 C 0.64807 0.67265 0.86819 0.0
C827 C 0.66097 0.66095 0.87838 0.0
H828 H 0.03714 0.66567 0.86207 0.0
H829 H 0.06823 0.68209 0.11015 0.0
H830 H 0.0287 0.6657 0.17234 0.0
H831 H 0.98523 0.64231 0.15664 0.0
H832 H 0.95414 0.62551 0.90862 0.0
H833 H 0.99375 0.64678 0.8459 0.0
C834 C 0.03531 0.66599 0.92975 0.0
C835 C 0.05562 0.67481 0.98147 0.0
C836 C 1.0125 0.65633 0.96502 0.0
C837 C 0.05296 0.67541 0.06888 0.0
C838 C 0.03031 0.66589 0.10449 0.0
C839 C 0.98709 0.64363 0.08879 0.0
C840 C 0.96671 0.63204 0.03739 0.0
C841 C 1.00994 0.65564 0.05326 0.0
C842 C 0.96943 0.63421 0.94968 0.0
C843 C 0.99213 0.64624 0.91378 0.0
H844 H 0.33132 0.97288 0.92681 0.0
H845 H 0.34955 0.95117 0.1587 0.0
H846 H 0.37343 0.99217 0.20192 0.0
H847 H 0.39073 0.03425 0.17292 0.0
H848 H 0.37534 0.05732 0.93893 0.0
H849 H 0.34886 0.01595 0.89791 0.0
C850 C 0.34038 0.97715 0.987 0.0
C851 C 0.33841 0.95879 0.03942 0.0
C852 C 0.35473 1.00109 1.01121 0.0
C853 C 0.35054 0.96475 0.11691 0.0
C854 C 0.3643 0.98829 0.14191 0.0
C855 C 0.38139 0.03033 0.11329 0.0
C856 C 0.38502 0.04892 0.05921 0.0
C857 C 0.36669 1.0066 0.08943 0.0
C858 C 0.37295 0.04336 0.98171 0.0
C859 C 0.35781 0.01969 0.95821 0.0
H860 H 0.35219 0.37605 0.83822 0.0
H861 H 0.34823 0.38853 0.10201 0.0
H862 H 0.36676 0.36463 0.13653 0.0
H863 H 0.38947 0.3451 0.08873 0.0
H864 H 0.3954 0.33628 0.82289 0.0
H865 H 0.37057 0.35353 0.79198 0.0
C866 C 0.35499 0.37321 0.9035 0.0
C867 C 0.34908 0.38422 0.96741 0.0
C868 C 0.36622 0.3602 0.92226 0.0
C869 C 0.35255 0.38016 0.05166 0.0
C870 C 0.36336 0.36668 0.07124 0.0
C871 C 0.38471 0.34641 0.02438 0.0
C872 C 0.39416 0.33937 0.95797 0.0
C873 C 0.37104 0.35729 1.00679 0.0
C874 C 0.38829 0.34153 0.87479 0.0
C875 C 0.37418 0.3515 0.85709 0.0
loop_
_geom_bond_atom_site_label_1
_geom_bond_atom_site_label_2
_geom_bond_distance
_geom_bond_site_symmetry_2
_ccdc_geom_bond_type
C0 C1 1.351 . S
C0 N3 1.368 . S
C0 H5 0.931 . S
C1 C0 1.351 . S
C1 N2 1.373 . S
C1 H29 0.930 . S
N2 C1 1.373 . S
N2 C4 1.340 . S
N3 C0 1.368 . S
N3 C4 1.321 . S
N3 Co6 2.135 1_556 S
C4 N2 1.340 . S
C4 N3 1.321 . S
C4 H28 0.930 . S
H5 C0 0.931 . S
Co6 N3 2.135 1_554 S
Co6 N9 2.121 . S
Co6 O14 2.055 . S
Co6 O17 2.039 1_554 S
Co6 N20 2.140 . S
C7 O8 1.227 . S
C7 O17 1.265 . S
O8 C7 1.227 . S
N9 Co6 2.121 . S
N9 C11 1.375 . S
N9 C12 1.313 . S
C10 C11 1.338 . S
C10 N13 1.377 . S
C10 H30 0.930 . S
C11 N9 1.375 . S
C11 C10 1.338 . S
C11 H15 0.931 . S
C12 N9 1.313 . S
C12 N13 1.344 . S
C12 H16 0.930 . S
N13 C10 1.377 . S
N13 C12 1.344 . S
O14 Co6 2.055 . S
O14 C18 1.253 . S
H15 C11 0.931 . S
H16 C12 0.930 . S
O17 Co6 2.039 1_556 S
O17 C7 1.265 . S
C18 O14 1.253 . S
C18 O19 1.227 . S
O19 C18 1.227 . S
N20 Co6 2.140 . S
N20 C23 1.346 1_554 S
N20 C24 1.345 . S
C21 C22 1.386 1_554 S
C21 C25 1.392 . S
C22 C21 1.386 1_556 S
C22 C23 1.369 . S
C22 H31 0.929 . S
C23 N20 1.346 1_556 S
C23 C22 1.369 . S
C23 H26 0.928 . S
C24 N20 1.345 . S
C24 C25 1.371 . S
C24 H27 0.931 . S
C25 C21 1.392 . S
C25 C24 1.371 . S
C25 H32 0.930 . S
H26 C23 0.928 . S
H27 C24 0.931 . S
H28 C4 0.930 . S
H29 C1 0.930 . S
H30 C10 0.930 . S
H31 C22 0.929 . S
H32 C25 0.930 . S
C33 C34 1.351 . S
C33 N36 1.368 . S
C33 H38 0.931 . S
C34 C33 1.351 . S
C34 N35 1.373 . S
C34 H62 0.930 . S
N35 C34 1.373 . S
N35 C37 1.340 . S
N36 C33 1.368 . S
N36 C37 1.321 . S
N36 Co39 2.135 1_556 S
C37 N35 1.340 . S
C37 N36 1.321 . S
C37 H61 0.930 . S
H38 C33 0.931 . S
Co39 N36 2.135 1_554 S
Co39 N42 2.121 . S
Co39 O47 2.055 . S
Co39 O50 2.039 1_554 S
Co39 N53 2.140 . S
C40 O41 1.227 . S
C40 O50 1.265 . S
O41 C40 1.227 . S
N42 Co39 2.121 . S
N42 C44 1.375 . S
N42 C45 1.313 . S
C43 C44 1.338 . S
C43 N46 1.377 . S
C43 H63 0.930 . S
C44 N42 1.375 . S
C44 C43 1.338 . S
C44 H48 0.931 . S
C45 N42 1.313 . S
C45 N46 1.344 . S
C45 H49 0.930 . S
N46 C43 1.377 . S
N46 C45 1.344 . S
O47 Co39 2.055 . S
O47 C51 1.253 . S
H48 C44 0.931 . S
H49 C45 0.930 . S
O50 Co39 2.039 1_556 S
O50 C40 1.265 . S
C51 O47 1.253 . S
C51 O52 1.227 . S
O52 C51 1.227 . S
N53 Co39 2.140 . S
N53 C56 1.346 1_554 S
N53 C57 1.345 . S
C54 C55 1.386 1_554 S
C54 C58 1.392 . S
C55 C54 1.386 1_556 S
C55 C56 1.369 . S
C55 H64 0.929 . S
C56 N53 1.346 1_556 S
C56 C55 1.369 . S
C56 H59 0.928 . S
C57 N53 1.345 . S
C57 C58 1.371 . S
C57 H60 0.931 . S
C58 C54 1.392 . S
C58 C57 1.371 . S
C58 H65 0.930 . S
H59 C56 0.928 . S
H60 C57 0.931 . S
H61 C37 0.930 . S
H62 C34 0.930 . S
H63 C43 0.930 . S
H64 C55 0.929 . S
H65 C58 0.930 . S
C66 C67 1.351 . S
C66 N69 1.368 . S
C66 H71 0.931 . S
C67 C66 1.351 . S
C67 N68 1.373 . S
C67 H95 0.930 . S
N68 C67 1.373 . S
N68 C70 1.340 . S
N69 C66 1.368 . S
N69 C70 1.321 . S
N69 Co72 2.135 1_556 S
C70 N68 1.340 . S
C70 N69 1.321 . S
C70 H94 0.930 . S
H71 C66 0.931 . S
Co72 N69 2.135 1_554 S
Co72 N75 2.121 . S
Co72 O80 2.055 . S
Co72 O83 2.039 1_554 S
Co72 N86 2.140 . S
C73 O74 1.227 . S
C73 O83 1.265 . S
O74 C73 1.227 . S
N75 Co72 2.121 . S
N75 C77 1.375 . S
N75 C78 1.313 . S
C76 C77 1.338 . S
C76 N79 1.377 . S
C76 H96 0.930 . S
C77 N75 1.375 . S
C77 C76 1.338 . S
C77 H81 0.931 . S
C78 N75 1.313 . S
C78 N79 1.344 . S
C78 H82 0.930 . S
N79 C76 1.377 . S
N79 C78 1.344 . S
O80 Co72 2.055 . S
O80 C84 1.253 . S
H81 C77 0.931 . S
H82 C78 0.930 . S
O83 Co72 2.039 1_556 S
O83 C73 1.265 . S
C84 O80 1.253 . S
C84 O85 1.227 . S
O85 C84 1.227 . S
N86 Co72 2.140 . S
N86 C89 1.346 1_554 S
N86 C90 1.345 . S
C87 C88 1.386 1_554 S
C87 C91 1.392 . S
C88 C87 1.386 1_556 S
C88 C89 1.369 . S
C88 H97 0.929 . S
C89 N86 1.346 1_556 S
C89 C88 1.369 . S
C89 H92 0.928 . S
C90 N86 1.345 . S
C90 C91 1.371 . S
C90 H93 0.931 . S
C91 C87 1.392 . S
C91 C90 1.371 . S
C91 H98 0.930 . S
H92 C89 0.928 . S
H93 C90 0.931 . S
H94 C70 0.930 . S
H95 C67 0.930 . S
H96 C76 0.930 . S
H97 C88 0.929 . S
H98 C91 0.930 . S
C99 C100 1.351 . S
C99 N102 1.368 . S
C99 H104 0.931 . S
C100 C99 1.351 . S
C100 N101 1.373 . S
C100 H128 0.930 . S
N101 C100 1.373 . S
N101 C103 1.340 . S
N102 C99 1.368 . S
N102 C103 1.321 . S
N102 Co105 2.135 1_556 S
C103 N101 1.340 . S
C103 N102 1.321 . S
C103 H127 0.930 . S
H104 C99 0.931 . S
Co105 N102 2.135 1_554 S
Co105 N108 2.121 . S
Co105 O113 2.055 . S
Co105 O116 2.039 1_554 S
Co105 N119 2.140 . S
C106 O107 1.227 . S
C106 O116 1.265 . S
O107 C106 1.227 . S
N108 Co105 2.121 . S
N108 C110 1.375 . S
N108 C111 1.313 . S
C109 C110 1.338 . S
C109 N112 1.377 . S
C109 H129 0.930 . S
C110 N108 1.375 . S
C110 C109 1.338 . S
C110 H114 0.931 . S
C111 N108 1.313 . S
C111 N112 1.344 . S
C111 H115 0.930 . S
N112 C109 1.377 . S
N112 C111 1.344 . S
O113 Co105 2.055 . S
O113 C117 1.253 . S
H114 C110 0.931 . S
H115 C111 0.930 . S
O116 Co105 2.039 1_556 S
O116 C106 1.265 . S
C117 O113 1.253 . S
C117 O118 1.227 . S
O118 C117 1.227 . S
N119 Co105 2.140 . S
N119 C122 1.346 1_554 S
N119 C123 1.345 . S
C120 C121 1.386 1_554 S
C120 C124 1.392 . S
C121 C120 1.386 1_556 S
C121 C122 1.369 . S
C121 H130 0.929 . S
C122 N119 1.346 1_556 S
C122 C121 1.369 . S
C122 H125 0.928 . S
C123 N119 1.345 . S
C123 C124 1.371 . S
C123 H126 0.931 . S
C124 C120 1.392 . S
C124 C123 1.371 . S
C124 H131 0.930 . S
H125 C122 0.928 . S
H126 C123 0.931 . S
H127 C103 0.930 . S
H128 C100 0.930 . S
H129 C109 0.930 . S
H130 C121 0.929 . S
H131 C124 0.930 . S
C132 C133 1.351 . S
C132 N135 1.368 . S
C132 H137 0.931 . S
C133 C132 1.351 . S
C133 N134 1.373 . S
C133 H161 0.930 . S
N134 C133 1.373 . S
N134 C136 1.340 . S
N135 C132 1.368 . S
N135 C136 1.321 . S
N135 Co138 2.135 1_556 S
C136 N134 1.340 . S
C136 N135 1.321 . S
C136 H160 0.930 . S
H137 C132 0.931 . S
Co138 N135 2.135 1_554 S
Co138 N141 2.121 . S
Co138 O146 2.055 . S
Co138 O149 2.039 1_554 S
Co138 N152 2.140 . S
C139 O140 1.227 . S
C139 O149 1.265 . S
O140 C139 1.227 . S
N141 Co138 2.121 . S
N141 C143 1.375 . S
N141 C144 1.313 . S
C142 C143 1.338 . S
C142 N145 1.377 . S
C142 H162 0.930 . S
C143 N141 1.375 . S
C143 C142 1.338 . S
C143 H147 0.931 . S
C144 N141 1.313 . S
C144 N145 1.344 . S
C144 H148 0.930 . S
N145 C142 1.377 . S
N145 C144 1.344 . S
O146 Co138 2.055 . S
O146 C150 1.253 . S
H147 C143 0.931 . S
H148 C144 0.930 . S
O149 Co138 2.039 1_556 S
O149 C139 1.265 . S
C150 O146 1.253 . S
C150 O151 1.227 . S
O151 C150 1.227 . S
N152 Co138 2.140 . S
N152 C155 1.346 1_554 S
N152 C156 1.345 . S
C153 C154 1.386 1_554 S
C153 C157 1.392 . S
C154 C153 1.386 1_556 S
C154 C155 1.369 . S
C154 H163 0.929 . S
C155 N152 1.346 1_556 S
C155 C154 1.369 . S
C155 H158 0.928 . S
C156 N152 1.345 . S
C156 C157 1.371 . S
C156 H159 0.931 . S
C157 C153 1.392 . S
C157 C156 1.371 . S
C157 H164 0.930 . S
H158 C155 0.928 . S
H159 C156 0.931 . S
H160 C136 0.930 . S
H161 C133 0.930 . S
H162 C142 0.930 . S
H163 C154 0.929 . S
H164 C157 0.930 . S
C165 C166 1.351 . S
C165 N168 1.368 . S
C165 H170 0.931 . S
C166 C165 1.351 . S
C166 N167 1.373 . S
C166 H194 0.930 . S
N167 C166 1.373 . S
N167 C169 1.340 . S
N168 C165 1.368 . S
N168 C169 1.321 . S
N168 Co171 2.135 1_556 S
C169 N167 1.340 . S
C169 N168 1.321 . S
C169 H193 0.930 . S
H170 C165 0.931 . S
Co171 N168 2.135 1_554 S
Co171 N174 2.121 . S
Co171 O179 2.055 . S
Co171 O182 2.039 1_554 S
Co171 N185 2.140 . S
C172 O173 1.227 . S
C172 O182 1.265 . S
O173 C172 1.227 . S
N174 Co171 2.121 . S
N174 C176 1.375 . S
N174 C177 1.313 . S
C175 C176 1.338 . S
C175 N178 1.377 . S
C175 H195 0.930 . S
C176 N174 1.375 . S
C176 C175 1.338 . S
C176 H180 0.931 . S
C177 N174 1.313 . S
C177 N178 1.344 . S
C177 H181 0.930 . S
N178 C175 1.377 . S
N178 C177 1.344 . S
O179 Co171 2.055 . S
O179 C183 1.253 . S
H180 C176 0.931 . S
H181 C177 0.930 . S
O182 Co171 2.039 1_556 S
O182 C172 1.265 . S
C183 O179 1.253 . S
C183 O184 1.227 . S
O184 C183 1.227 . S
N185 Co171 2.140 . S
N185 C188 1.346 1_554 S
N185 C189 1.345 . S
C186 C187 1.386 1_554 S
C186 C190 1.392 . S
C187 C186 1.386 1_556 S
C187 C188 1.369 . S
C187 H196 0.929 . S
C188 N185 1.346 1_556 S
C188 C187 1.369 . S
C188 H191 0.928 . S
C189 N185 1.345 . S
C189 C190 1.371 . S
C189 H192 0.931 . S
C190 C186 1.392 . S
C190 C189 1.371 . S
C190 H197 0.930 . S
H191 C188 0.928 . S
H192 C189 0.931 . S
H193 C169 0.930 . S
H194 C166 0.930 . S
H195 C175 0.930 . S
H196 C187 0.929 . S
H197 C190 0.930 . S
C198 C199 1.351 . S
C198 N201 1.368 . S
C198 H203 0.931 . S
C199 C198 1.351 . S
C199 N200 1.373 . S
C199 H227 0.930 . S
N200 C199 1.373 . S
N200 C202 1.340 . S
N201 C198 1.368 . S
N201 C202 1.321 . S
N201 Co204 2.135 . S
C202 N200 1.340 . S
C202 N201 1.321 . S
C202 H226 0.930 . S
H203 C198 0.931 . S
Co204 N201 2.135 . S
Co204 N207 2.121 1_554 S
Co204 O212 2.055 1_554 S
Co204 O215 2.039 . S
Co204 N218 2.140 . S
C205 O206 1.227 . S
C205 O215 1.265 . S
O206 C205 1.227 . S
N207 Co204 2.121 1_556 S
N207 C209 1.375 . S
N207 C210 1.313 . S
C208 C209 1.338 . S
C208 N211 1.377 . S
C208 H228 0.930 . S
C209 N207 1.375 . S
C209 C208 1.338 . S
C209 H213 0.931 . S
C210 N207 1.313 . S
C210 N211 1.344 . S
C210 H214 0.930 . S
N211 C208 1.377 . S
N211 C210 1.344 . S
O212 Co204 2.055 1_556 S
O212 C216 1.253 . S
H213 C209 0.931 . S
H214 C210 0.930 . S
O215 Co204 2.039 . S
O215 C205 1.265 . S
C216 O212 1.253 . S
C216 O217 1.227 . S
O217 C216 1.227 . S
N218 Co204 2.140 . S
N218 C221 1.346 . S
N218 C222 1.345 1_554 S
C219 C220 1.387 . S
C219 C223 1.391 1_554 S
C220 C219 1.387 . S
C220 C221 1.369 . S
C220 H229 0.929 . S
C221 N218 1.346 . S
C221 C220 1.369 . S
C221 H224 0.928 . S
C222 N218 1.345 1_556 S
C222 C223 1.371 . S
C222 H225 0.931 . S
C223 C219 1.391 1_556 S
C223 C222 1.371 . S
C223 H230 0.930 . S
H224 C221 0.928 . S
H225 C222 0.931 . S
H226 C202 0.930 . S
H227 C199 0.930 . S
H228 C208 0.930 . S
H229 C220 0.929 . S
H230 C223 0.930 . S
C231 C232 1.351 . S
C231 N234 1.368 . S
C231 H236 0.931 . S
C232 C231 1.351 . S
C232 N233 1.373 . S
C232 H260 0.930 . S
N233 C232 1.373 . S
N233 C235 1.340 . S
N234 C231 1.368 . S
N234 C235 1.321 . S
N234 Co237 2.135 . S
C235 N233 1.340 . S
C235 N234 1.321 . S
C235 H259 0.930 . S
H236 C231 0.931 . S
Co237 N234 2.135 . S
Co237 N240 2.121 1_554 S
Co237 O245 2.055 1_554 S
Co237 O248 2.039 . S
Co237 N251 2.140 . S
C238 O239 1.227 . S
C238 O248 1.265 . S
O239 C238 1.227 . S
N240 Co237 2.121 1_556 S
N240 C242 1.375 . S
N240 C243 1.313 . S
C241 C242 1.338 . S
C241 N244 1.377 . S
C241 H261 0.930 . S
C242 N240 1.375 . S
C242 C241 1.338 . S
C242 H246 0.931 . S
C243 N240 1.313 . S
C243 N244 1.344 . S
C243 H247 0.930 . S
N244 C241 1.377 . S
N244 C243 1.344 . S
O245 Co237 2.055 1_556 S
O245 C249 1.253 . S
H246 C242 0.931 . S
H247 C243 0.930 . S
O248 Co237 2.039 . S
O248 C238 1.265 . S
C249 O245 1.253 . S
C249 O250 1.227 . S
O250 C249 1.227 . S
N251 Co237 2.140 . S
N251 C254 1.346 . S
N251 C255 1.345 1_554 S
C252 C253 1.387 . S
C252 C256 1.391 1_554 S
C253 C252 1.387 . S
C253 C254 1.369 . S
C253 H262 0.929 . S
C254 N251 1.346 . S
C254 C253 1.369 . S
C254 H257 0.928 . S
C255 N251 1.345 1_556 S
C255 C256 1.371 . S
C255 H258 0.931 . S
C256 C252 1.391 1_556 S
C256 C255 1.371 . S
C256 H263 0.930 . S
H257 C254 0.928 . S
H258 C255 0.931 . S
H259 C235 0.930 . S
H260 C232 0.930 . S
H261 C241 0.930 . S
H262 C253 0.929 . S
H263 C256 0.930 . S
C264 C265 1.351 . S
C264 N267 1.368 . S
C264 H269 0.931 . S
C265 C264 1.351 . S
C265 N266 1.373 . S
C265 H293 0.930 . S
N266 C265 1.373 . S
N266 C268 1.340 . S
N267 C264 1.368 . S
N267 C268 1.321 . S
N267 Co270 2.135 . S
C268 N266 1.340 . S
C268 N267 1.321 . S
C268 H292 0.930 . S
H269 C264 0.931 . S
Co270 N267 2.135 . S
Co270 N273 2.121 1_554 S
Co270 O278 2.055 1_554 S
Co270 O281 2.039 . S
Co270 N284 2.140 . S
C271 O272 1.227 . S
C271 O281 1.265 . S
O272 C271 1.227 . S
N273 Co270 2.121 1_556 S
N273 C275 1.375 . S
N273 C276 1.313 . S
C274 C275 1.338 . S
C274 N277 1.377 . S
C274 H294 0.930 . S
C275 N273 1.375 . S
C275 C274 1.338 . S
C275 H279 0.931 . S
C276 N273 1.313 . S
C276 N277 1.344 . S
C276 H280 0.930 . S
N277 C274 1.377 . S
N277 C276 1.344 . S
O278 Co270 2.055 1_556 S
O278 C282 1.253 . S
H279 C275 0.931 . S
H280 C276 0.930 . S
O281 Co270 2.039 . S
O281 C271 1.265 . S
C282 O278 1.253 . S
C282 O283 1.227 . S
O283 C282 1.227 . S
N284 Co270 2.140 . S
N284 C287 1.346 . S
N284 C288 1.345 1_554 S
C285 C286 1.387 . S
C285 C289 1.391 1_554 S
C286 C285 1.387 . S
C286 C287 1.369 . S
C286 H295 0.929 . S
C287 N284 1.346 . S
C287 C286 1.369 . S
C287 H290 0.928 . S
C288 N284 1.345 1_556 S
C288 C289 1.371 . S
C288 H291 0.931 . S
C289 C285 1.391 1_556 S
C289 C288 1.371 . S
C289 H296 0.930 . S
H290 C287 0.928 . S
H291 C288 0.931 . S
H292 C268 0.930 . S
H293 C265 0.930 . S
H294 C274 0.930 . S
H295 C286 0.929 . S
H296 C289 0.930 . S
C297 C298 1.351 . S
C297 N300 1.368 . S
C297 H302 0.931 . S
C298 C297 1.351 . S
C298 N299 1.373 . S
C298 H326 0.930 . S
N299 C298 1.373 . S
N299 C301 1.340 . S
N300 C297 1.368 . S
N300 C301 1.321 . S
N300 Co303 2.135 . S
C301 N299 1.340 . S
C301 N300 1.321 . S
C301 H325 0.930 . S
H302 C297 0.931 . S
Co303 N300 2.135 . S
Co303 N306 2.121 1_554 S
Co303 O311 2.055 1_554 S
Co303 O314 2.039 . S
Co303 N317 2.140 . S
C304 O305 1.227 . S
C304 O314 1.265 . S
O305 C304 1.227 . S
N306 Co303 2.121 1_556 S
N306 C308 1.375 . S
N306 C309 1.313 . S
C307 C308 1.338 . S
C307 N310 1.377 . S
C307 H327 0.930 . S
C308 N306 1.375 . S
C308 C307 1.338 . S
C308 H312 0.931 . S
C309 N306 1.313 . S
C309 N310 1.344 . S
C309 H313 0.930 . S
N310 C307 1.377 . S
N310 C309 1.344 . S
O311 Co303 2.055 1_556 S
O311 C315 1.253 . S
H312 C308 0.931 . S
H313 C309 0.930 . S
O314 Co303 2.039 . S
O314 C304 1.265 . S
C315 O311 1.253 . S
C315 O316 1.227 . S
O316 C315 1.227 . S
N317 Co303 2.140 . S
N317 C320 1.346 . S
N317 C321 1.345 1_554 S
C318 C319 1.387 . S
C318 C322 1.391 1_554 S
C319 C318 1.387 . S
C319 C320 1.369 . S
C319 H328 0.929 . S
C320 N317 1.346 . S
C320 C319 1.369 . S
C320 H323 0.928 . S
C321 N317 1.345 1_556 S
C321 C322 1.371 . S
C321 H324 0.931 . S
C322 C318 1.391 1_556 S
C322 C321 1.371 . S
C322 H329 0.930 . S
H323 C320 0.928 . S
H324 C321 0.931 . S
H325 C301 0.930 . S
H326 C298 0.930 . S
H327 C307 0.930 . S
H328 C319 0.929 . S
H329 C322 0.930 . S
C330 C331 1.351 . S
C330 N333 1.368 . S
C330 H335 0.931 . S
C331 C330 1.351 . S
C331 N332 1.373 . S
C331 H359 0.930 . S
N332 C331 1.373 . S
N332 C334 1.340 . S
N333 C330 1.368 . S
N333 C334 1.321 . S
N333 Co336 2.135 . S
C334 N332 1.340 . S
C334 N333 1.321 . S
C334 H358 0.930 . S
H335 C330 0.931 . S
Co336 N333 2.135 . S
Co336 N339 2.121 1_554 S
Co336 O344 2.055 1_554 S
Co336 O347 2.039 . S
Co336 N350 2.140 . S
C337 O338 1.227 . S
C337 O347 1.265 . S
O338 C337 1.227 . S
N339 Co336 2.121 1_556 S
N339 C341 1.375 . S
N339 C342 1.313 . S
C340 C341 1.338 . S
C340 N343 1.377 . S
C340 H360 0.930 . S
C341 N339 1.375 . S
C341 C340 1.338 . S
C341 H345 0.931 . S
C342 N339 1.313 . S
C342 N343 1.344 . S
C342 H346 0.930 . S
N343 C340 1.377 . S
N343 C342 1.344 . S
O344 Co336 2.055 1_556 S
O344 C348 1.253 . S
H345 C341 0.931 . S
H346 C342 0.930 . S
O347 Co336 2.039 . S
O347 C337 1.265 . S
C348 O344 1.253 . S
C348 O349 1.227 . S
O349 C348 1.227 . S
N350 Co336 2.140 . S
N350 C353 1.346 . S
N350 C354 1.345 1_554 S
C351 C352 1.387 . S
C351 C355 1.391 1_554 S
C352 C351 1.387 . S
C352 C353 1.369 . S
C352 H361 0.929 . S
C353 N350 1.346 . S
C353 C352 1.369 . S
C353 H356 0.928 . S
C354 N350 1.345 1_556 S
C354 C355 1.371 . S
C354 H357 0.931 . S
C355 C351 1.391 1_556 S
C355 C354 1.371 . S
C355 H362 0.930 . S
H356 C353 0.928 . S
H357 C354 0.931 . S
H358 C334 0.930 . S
H359 C331 0.930 . S
H360 C340 0.930 . S
H361 C352 0.929 . S
H362 C355 0.930 . S
C363 C364 1.351 . S
C363 N366 1.368 . S
C363 H368 0.931 . S
C364 C363 1.351 . S
C364 N365 1.373 . S
C364 H392 0.930 . S
N365 C364 1.373 . S
N365 C367 1.340 . S
N366 C363 1.368 . S
N366 C367 1.321 . S
N366 Co369 2.135 . S
C367 N365 1.340 . S
C367 N366 1.321 . S
C367 H391 0.930 . S
H368 C363 0.931 . S
Co369 N366 2.135 . S
Co369 N372 2.121 1_554 S
Co369 O377 2.055 1_554 S
Co369 O380 2.039 . S
Co369 N383 2.140 . S
C370 O371 1.227 . S
C370 O380 1.265 . S
O371 C370 1.227 . S
N372 Co369 2.121 1_556 S
N372 C374 1.375 . S
N372 C375 1.313 . S
C373 C374 1.338 . S
C373 N376 1.377 . S
C373 H393 0.930 . S
C374 N372 1.375 . S
C374 C373 1.338 . S
C374 H378 0.931 . S
C375 N372 1.313 . S
C375 N376 1.344 . S
C375 H379 0.930 . S
N376 C373 1.377 . S
N376 C375 1.344 . S
O377 Co369 2.055 1_556 S
O377 C381 1.253 . S
H378 C374 0.931 . S
H379 C375 0.930 . S
O380 Co369 2.039 . S
O380 C370 1.265 . S
C381 O377 1.253 . S
C381 O382 1.227 . S
O382 C381 1.227 . S
N383 Co369 2.140 . S
N383 C386 1.346 . S
N383 C387 1.345 1_554 S
C384 C385 1.387 . S
C384 C388 1.391 1_554 S
C385 C384 1.387 . S
C385 C386 1.369 . S
C385 H394 0.929 . S
C386 N383 1.346 . S
C386 C385 1.369 . S
C386 H389 0.928 . S
C387 N383 1.345 1_556 S
C387 C388 1.371 . S
C387 H390 0.931 . S
C388 C384 1.391 1_556 S
C388 C387 1.371 . S
C388 H395 0.930 . S
H389 C386 0.928 . S
H390 C387 0.931 . S
H391 C367 0.930 . S
H392 C364 0.930 . S
H393 C373 0.930 . S
H394 C385 0.929 . S
H395 C388 0.930 . S
H396 C402 0.930 . S
H397 C405 0.930 . S
H398 C406 0.930 . S
H399 C407 0.930 . S
H400 C410 0.930 . S
H401 C411 0.930 . S
C402 H396 0.930 . S
C402 C403 1.356 . S
C402 C404 1.415 . S
C403 C402 1.356 . S
C403 C405 1.418 1_554 S
C404 C402 1.415 . S
C404 C409 1.425 1_554 S
C404 C411 1.409 . S
C405 H397 0.930 . S
C405 C403 1.418 1_556 S
C405 C406 1.362 . S
C406 H398 0.930 . S
C406 C405 1.362 . S
C406 C409 1.409 . S
C407 H399 0.930 . S
C407 C408 1.355 1_556 S
C407 C409 1.415 . S
C408 C407 1.355 1_554 S
C408 C410 1.419 . S
C409 C404 1.425 1_556 S
C409 C406 1.409 . S
C409 C407 1.415 . S
C410 H400 0.930 . S
C410 C408 1.419 . S
C410 C411 1.362 . S
C411 H401 0.930 . S
C411 C404 1.409 . S
C411 C410 1.362 . S
H412 C418 0.930 . S
H413 C421 0.930 . S
H414 C422 0.930 . S
H415 C423 0.930 . S
H416 C426 0.930 . S
H417 C427 0.930 . S
C418 H412 0.930 . S
C418 C419 1.355 1_554 S
C418 C420 1.415 . S
C419 C418 1.355 1_556 S
C419 C421 1.419 . S
C420 C418 1.415 . S
C420 C425 1.425 1_554 S
C420 C427 1.409 . S
C421 H413 0.930 . S
C421 C419 1.419 . S
C421 C422 1.362 . S
C422 H414 0.930 . S
C422 C421 1.362 . S
C422 C425 1.409 . S
C423 H415 0.930 . S
C423 C424 1.355 1_556 S
C423 C425 1.415 . S
C424 C423 1.355 1_554 S
C424 C426 1.419 . S
C425 C420 1.425 1_556 S
C425 C422 1.409 . S
C425 C423 1.415 . S
C426 H416 0.930 . S
C426 C424 1.419 . S
C426 C427 1.362 . S
C427 H417 0.930 . S
C427 C420 1.409 . S
C427 C426 1.362 . S
H428 C434 0.930 . S
H429 C437 0.930 . S
H430 C438 0.930 . S
H431 C439 0.930 . S
H432 C442 0.930 . S
H433 C443 0.930 . S
C434 H428 0.930 . S
C434 C435 1.355 1_556 S
C434 C436 1.415 . S
C435 C434 1.355 1_554 S
C435 C437 1.419 . S
C436 C434 1.415 . S
C436 C441 1.425 1_556 S
C436 C443 1.409 . S
C437 H429 0.930 . S
C437 C435 1.419 . S
C437 C438 1.362 . S
C438 H430 0.930 . S
C438 C437 1.362 . S
C438 C441 1.409 . S
C439 H431 0.930 . S
C439 C440 1.356 . S
C439 C441 1.415 . S
C440 C439 1.356 . S
C440 C442 1.417 1_554 S
C441 C436 1.425 1_554 S
C441 C438 1.409 . S
C441 C439 1.415 . S
C442 H432 0.930 . S
C442 C440 1.417 1_556 S
C442 C443 1.362 . S
C443 H433 0.930 . S
C443 C436 1.409 . S
C443 C442 1.362 . S
H444 C450 0.930 . S
H445 C453 0.930 . S
H446 C454 0.930 . S
H447 C455 0.930 . S
H448 C458 0.930 . S
H449 C459 0.930 . S
C450 H444 0.930 . S
C450 C451 1.355 1_556 S
C450 C452 1.415 . S
C451 C450 1.355 1_554 S
C451 C453 1.419 . S
C452 C450 1.415 . S
C452 C457 1.425 1_556 S
C452 C459 1.409 . S
C453 H445 0.930 . S
C453 C451 1.419 . S
C453 C454 1.362 . S
C454 H446 0.930 . S
C454 C453 1.362 . S
C454 C457 1.409 . S
C455 H447 0.930 . S
C455 C456 1.355 1_554 S
C455 C457 1.415 . S
C456 C455 1.355 1_556 S
C456 C458 1.419 . S
C457 C452 1.425 1_554 S
C457 C454 1.409 . S
C457 C455 1.415 . S
C458 H448 0.930 . S
C458 C456 1.419 . S
C458 C459 1.362 . S
C459 H449 0.930 . S
C459 C452 1.409 . S
C459 C458 1.362 . S
H460 C466 0.930 . S
H461 C469 0.930 . S
H462 C470 0.930 . S
H463 C471 0.930 . S
H464 C474 0.930 . S
H465 C475 0.930 . S
C466 H460 0.930 . S
C466 C467 1.355 1_554 S
C466 C468 1.415 . S
C467 C466 1.355 1_556 S
C467 C469 1.419 . S
C468 C466 1.415 . S
C468 C473 1.425 1_554 S
C468 C475 1.409 . S
C469 H461 0.930 . S
C469 C467 1.419 . S
C469 C470 1.362 . S
C470 H462 0.930 . S
C470 C469 1.362 . S
C470 C473 1.409 . S
C471 H463 0.930 . S
C471 C472 1.355 1_556 S
C471 C473 1.415 . S
C472 C471 1.355 1_554 S
C472 C474 1.419 . S
C473 C468 1.425 1_556 S
C473 C470 1.409 . S
C473 C471 1.415 . S
C474 H464 0.930 . S
C474 C472 1.419 . S
C474 C475 1.362 . S
C475 H465 0.930 . S
C475 C468 1.409 . S
C475 C474 1.362 . S
H476 C482 0.930 . S
H477 C485 0.930 . S
H478 C486 0.930 . S
H479 C487 0.930 . S
H480 C490 0.930 . S
H481 C491 0.930 . S
C482 H476 0.930 . S
C482 C483 1.355 1_556 S
C482 C484 1.415 . S
C483 C482 1.355 1_554 S
C483 C485 1.419 . S
C484 C482 1.415 . S
C484 C489 1.425 1_556 S
C484 C491 1.409 . S
C485 H477 0.930 . S
C485 C483 1.419 . S
C485 C486 1.362 . S
C486 H478 0.930 . S
C486 C485 1.362 . S
C486 C489 1.409 . S
C487 H479 0.930 . S
C487 C488 1.355 1_554 S
C487 C489 1.415 . S
C488 C487 1.355 1_556 S
C488 C490 1.419 . S
C489 C484 1.425 1_554 S
C489 C486 1.409 . S
C489 C487 1.415 . S
C490 H480 0.930 . S
C490 C488 1.419 . S
C490 C491 1.362 . S
C491 H481 0.930 . S
C491 C484 1.409 . S
C491 C490 1.362 . S
H492 C498 0.929 1_554 S
H493 C501 0.930 . S
H494 C502 0.930 . S
H495 C503 0.930 . S
H496 C506 0.930 . S
H497 C507 0.930 . S
C498 H492 0.929 1_556 S
C498 C499 1.356 . S
C498 C500 1.414 1_556 S
C499 C498 1.356 . S
C499 C501 1.419 . S
C500 C498 1.414 1_554 S
C500 C505 1.425 . S
C500 C507 1.409 . S
C501 H493 0.930 . S
C501 C499 1.419 . S
C501 C502 1.362 . S
C502 H494 0.930 . S
C502 C501 1.362 . S
C502 C505 1.409 1_556 S
C503 H495 0.930 . S
C503 C504 1.355 . S
C503 C505 1.415 . S
C504 C503 1.355 . S
C504 C506 1.419 . S
C505 C500 1.425 . S
C505 C502 1.409 1_554 S
C505 C503 1.415 . S
C506 H496 0.930 . S
C506 C504 1.419 . S
C506 C507 1.362 . S
C507 H497 0.930 . S
C507 C500 1.409 . S
C507 C506 1.362 . S
H508 C514 0.930 . S
H509 C517 0.930 . S
H510 C518 0.930 . S
H511 C519 0.930 . S
H512 C522 0.930 . S
H513 C523 0.930 . S
C514 H508 0.930 . S
C514 C515 1.355 1_554 S
C514 C516 1.415 . S
C515 C514 1.355 1_556 S
C515 C517 1.419 . S
C516 C514 1.415 . S
C516 C521 1.425 1_554 S
C516 C523 1.409 . S
C517 H509 0.930 . S
C517 C515 1.419 . S
C517 C518 1.362 . S
C518 H510 0.930 . S
C518 C517 1.362 . S
C518 C521 1.409 . S
C519 H511 0.930 . S
C519 C520 1.355 1_556 S
C519 C521 1.415 . S
C520 C519 1.355 1_554 S
C520 C522 1.419 . S
C521 C516 1.425 1_556 S
C521 C518 1.409 . S
C521 C519 1.415 . S
C522 H512 0.930 . S
C522 C520 1.419 . S
C522 C523 1.362 . S
C523 H513 0.930 . S
C523 C516 1.409 . S
C523 C522 1.362 . S
H524 C530 0.930 . S
H525 C533 0.930 . S
H526 C534 0.930 . S
H527 C535 0.930 . S
H528 C538 0.930 . S
H529 C539 0.930 . S
C530 H524 0.930 . S
C530 C531 1.355 1_556 S
C530 C532 1.415 . S
C531 C530 1.355 1_554 S
C531 C533 1.419 . S
C532 C530 1.415 . S
C532 C537 1.425 1_556 S
C532 C539 1.409 . S
C533 H525 0.930 . S
C533 C531 1.419 . S
C533 C534 1.362 . S
C534 H526 0.930 . S
C534 C533 1.362 . S
C534 C537 1.409 . S
C535 H527 0.930 . S
C535 C536 1.355 1_554 S
C535 C537 1.415 . S
C536 C535 1.355 1_556 S
C536 C538 1.419 . S
C537 C532 1.425 1_554 S
C537 C534 1.409 . S
C537 C535 1.415 . S
C538 H528 0.930 . S
C538 C536 1.419 . S
C538 C539 1.362 . S
C539 H529 0.930 . S
C539 C532 1.409 . S
C539 C538 1.362 . S
H540 C546 0.930 . S
H541 C549 0.930 . S
H542 C550 0.930 . S
H543 C551 0.930 . S
H544 C554 0.930 . S
H545 C555 0.930 . S
C546 H540 0.930 . S
C546 C547 1.355 1_554 S
C546 C548 1.415 . S
C547 C546 1.355 1_556 S
C547 C549 1.419 . S
C548 C546 1.415 . S
C548 C553 1.425 1_554 S
C548 C555 1.409 . S
C549 H541 0.930 . S
C549 C547 1.419 . S
C549 C550 1.362 . S
C550 H542 0.930 . S
C550 C549 1.362 . S
C550 C553 1.409 . S
C551 H543 0.930 . S
C551 C552 1.355 1_556 S
C551 C553 1.415 . S
C552 C551 1.355 1_554 S
C552 C554 1.419 . S
C553 C548 1.425 1_556 S
C553 C550 1.409 . S
C553 C551 1.415 . S
C554 H544 0.930 . S
C554 C552 1.419 . S
C554 C555 1.362 . S
C555 H545 0.930 . S
C555 C548 1.409 . S
C555 C554 1.362 . S
H556 C562 0.930 . S
H557 C565 0.930 . S
H558 C566 0.930 . S
H559 C567 0.930 . S
H560 C570 0.930 . S
H561 C571 0.930 . S
C562 H556 0.930 . S
C562 C563 1.355 1_554 S
C562 C564 1.415 . S
C563 C562 1.355 1_556 S
C563 C565 1.419 . S
C564 C562 1.415 . S
C564 C569 1.425 1_554 S
C564 C571 1.409 . S
C565 H557 0.930 . S
C565 C563 1.419 . S
C565 C566 1.362 . S
C566 H558 0.930 . S
C566 C565 1.362 . S
C566 C569 1.409 . S
C567 H559 0.930 . S
C567 C568 1.355 1_556 S
C567 C569 1.415 . S
C568 C567 1.355 1_554 S
C568 C570 1.419 . S
C569 C564 1.425 1_556 S
C569 C566 1.409 . S
C569 C567 1.415 . S
C570 H560 0.930 . S
C570 C568 1.419 . S
C570 C571 1.362 . S
C571 H561 0.930 . S
C571 C564 1.409 . S
C571 C570 1.362 . S
H572 C578 0.930 . S
H573 C581 0.930 . S
H574 C582 0.930 . S
H575 C583 0.930 . S
H576 C586 0.930 . S
H577 C587 0.930 . S
C578 H572 0.930 . S
C578 C579 1.355 1_554 S
C578 C580 1.415 . S
C579 C578 1.355 1_556 S
C579 C581 1.419 . S
C580 C578 1.415 . S
C580 C585 1.425 1_554 S
C580 C587 1.409 . S
C581 H573 0.930 . S
C581 C579 1.419 . S
C581 C582 1.362 . S
C582 H574 0.930 . S
C582 C581 1.362 . S
C582 C585 1.409 . S
C583 H575 0.930 . S
C583 C584 1.355 1_556 S
C583 C585 1.415 . S
C584 C583 1.355 1_554 S
C584 C586 1.419 . S
C585 C580 1.425 1_556 S
C585 C582 1.409 . S
C585 C583 1.415 . S
C586 H576 0.930 . S
C586 C584 1.419 . S
C586 C587 1.362 . S
C587 H577 0.930 . S
C587 C580 1.409 . S
C587 C586 1.362 . S
H588 C594 0.930 . S
H589 C597 0.930 . S
H590 C598 0.930 . S
H591 C599 0.930 . S
H592 C602 0.930 . S
H593 C603 0.930 . S
C594 H588 0.930 . S
C594 C595 1.355 . S
C594 C596 1.415 . S
C595 C594 1.355 . S
C595 C597 1.419 . S
C596 C594 1.415 . S
C596 C601 1.425 . S
C596 C603 1.409 . S
C597 H589 0.930 . S
C597 C595 1.419 . S
C597 C598 1.362 . S
C598 H590 0.930 . S
C598 C597 1.362 . S
C598 C601 1.409 . S
C599 H591 0.930 . S
C599 C600 1.355 . S
C599 C601 1.415 . S
C600 C599 1.355 . S
C600 C602 1.419 . S
C601 C596 1.425 . S
C601 C598 1.409 . S
C601 C599 1.415 . S
C602 H592 0.930 . S
C602 C600 1.419 . S
C602 C603 1.362 . S
C603 H593 0.930 . S
C603 C596 1.409 . S
C603 C602 1.362 . S
H604 C610 0.930 . S
H605 C613 0.930 . S
H606 C614 0.930 . S
H607 C615 0.930 . S
H608 C618 0.930 . S
H609 C619 0.930 . S
C610 H604 0.930 . S
C610 C611 1.355 . S
C610 C612 1.415 . S
C611 C610 1.355 . S
C611 C613 1.419 . S
C612 C610 1.415 . S
C612 C617 1.425 . S
C612 C619 1.409 . S
C613 H605 0.930 . S
C613 C611 1.419 . S
C613 C614 1.362 . S
C614 H606 0.930 . S
C614 C613 1.362 . S
C614 C617 1.409 . S
C615 H607 0.930 . S
C615 C616 1.355 . S
C615 C617 1.415 . S
C616 C615 1.355 . S
C616 C618 1.419 . S
C617 C612 1.425 . S
C617 C614 1.409 . S
C617 C615 1.415 . S
C618 H608 0.930 . S
C618 C616 1.419 . S
C618 C619 1.362 . S
C619 H609 0.930 . S
C619 C612 1.409 . S
C619 C618 1.362 . S
H620 C626 0.930 . S
H621 C629 0.930 . S
H622 C630 0.930 . S
H623 C631 0.930 . S
H624 C634 0.930 . S
H625 C635 0.930 . S
C626 H620 0.930 . S
C626 C627 1.355 . S
C626 C628 1.415 . S
C627 C626 1.355 . S
C627 C629 1.419 . S
C628 C626 1.415 . S
C628 C633 1.425 . S
C628 C635 1.409 . S
C629 H621 0.930 . S
C629 C627 1.419 . S
C629 C630 1.362 . S
C630 H622 0.930 . S
C630 C629 1.362 . S
C630 C633 1.409 . S
C631 H623 0.930 . S
C631 C632 1.355 . S
C631 C633 1.415 . S
C632 C631 1.355 . S
C632 C634 1.419 . S
C633 C628 1.425 . S
C633 C630 1.409 . S
C633 C631 1.415 . S
C634 H624 0.930 . S
C634 C632 1.419 . S
C634 C635 1.362 . S
C635 H625 0.930 . S
C635 C628 1.409 . S
C635 C634 1.362 . S
H636 C642 0.930 . S
H637 C645 0.930 . S
H638 C646 0.930 . S
H639 C647 0.930 . S
H640 C650 0.930 . S
H641 C651 0.930 . S
C642 H636 0.930 . S
C642 C643 1.355 . S
C642 C644 1.415 . S
C643 C642 1.355 . S
C643 C645 1.419 . S
C644 C642 1.415 . S
C644 C649 1.425 . S
C644 C651 1.409 . S
C645 H637 0.930 . S
C645 C643 1.419 . S
C645 C646 1.362 . S
C646 H638 0.930 . S
C646 C645 1.362 . S
C646 C649 1.409 . S
C647 H639 0.930 . S
C647 C648 1.355 . S
C647 C649 1.415 . S
C648 C647 1.355 . S
C648 C650 1.419 . S
C649 C644 1.425 . S
C649 C646 1.409 . S
C649 C647 1.415 . S
C650 H640 0.930 . S
C650 C648 1.419 . S
C650 C651 1.362 . S
C651 H641 0.930 . S
C651 C644 1.409 . S
C651 C650 1.362 . S
H652 C658 0.930 . S
H653 C661 0.930 . S
H654 C662 0.930 . S
H655 C663 0.930 . S
H656 C666 0.930 . S
H657 C667 0.930 . S
C658 H652 0.930 . S
C658 C659 1.355 . S
C658 C660 1.415 . S
C659 C658 1.355 . S
C659 C661 1.419 . S
C660 C658 1.415 . S
C660 C665 1.425 . S
C660 C667 1.409 . S
C661 H653 0.930 . S
C661 C659 1.419 . S
C661 C662 1.362 . S
C662 H654 0.930 . S
C662 C661 1.362 . S
C662 C665 1.409 . S
C663 H655 0.930 . S
C663 C664 1.355 . S
C663 C665 1.415 . S
C664 C663 1.355 . S
C664 C666 1.419 . S
C665 C660 1.425 . S
C665 C662 1.409 . S
C665 C663 1.415 . S
C666 H656 0.930 . S
C666 C664 1.419 . S
C666 C667 1.362 . S
C667 H657 0.930 . S
C667 C660 1.409 . S
C667 C666 1.362 . S
H668 C674 0.930 . S
H669 C677 0.930 . S
H670 C678 0.930 . S
H671 C679 0.930 . S
H672 C682 0.930 . S
H673 C683 0.930 . S
C674 H668 0.930 . S
C674 C675 1.355 . S
C674 C676 1.415 . S
C675 C674 1.355 . S
C675 C677 1.419 . S
C676 C674 1.415 . S
C676 C681 1.425 . S
C676 C683 1.409 . S
C677 H669 0.930 . S
C677 C675 1.419 . S
C677 C678 1.362 . S
C678 H670 0.930 . S
C678 C677 1.362 . S
C678 C681 1.409 . S
C679 H671 0.930 . S
C679 C680 1.355 . S
C679 C681 1.415 . S
C680 C679 1.355 . S
C680 C682 1.419 . S
C681 C676 1.425 . S
C681 C678 1.409 . S
C681 C679 1.415 . S
C682 H672 0.930 . S
C682 C680 1.419 . S
C682 C683 1.362 . S
C683 H673 0.930 . S
C683 C676 1.409 . S
C683 C682 1.362 . S
H684 C690 0.930 . S
H685 C693 0.930 . S
H686 C694 0.930 . S
H687 C695 0.930 . S
H688 C698 0.930 . S
H689 C699 0.930 . S
C690 H684 0.930 . S
C690 C691 1.355 . S
C690 C692 1.415 . S
C691 C690 1.355 . S
C691 C693 1.419 . S
C692 C690 1.415 . S
C692 C697 1.425 . S
C692 C699 1.409 . S
C693 H685 0.930 . S
C693 C691 1.419 . S
C693 C694 1.362 . S
C694 H686 0.930 . S
C694 C693 1.362 . S
C694 C697 1.409 . S
C695 H687 0.930 . S
C695 C696 1.355 . S
C695 C697 1.415 . S
C696 C695 1.355 . S
C696 C698 1.419 . S
C697 C692 1.425 . S
C697 C694 1.409 . S
C697 C695 1.415 . S
C698 H688 0.930 . S
C698 C696 1.419 . S
C698 C699 1.362 . S
C699 H689 0.930 . S
C699 C692 1.409 . S
C699 C698 1.362 . S
H700 C706 0.930 . S
H701 C709 0.930 . S
H702 C710 0.930 . S
H703 C711 0.930 . S
H704 C714 0.930 . S
H705 C715 0.930 . S
C706 H700 0.930 . S
C706 C707 1.355 . S
C706 C708 1.415 . S
C707 C706 1.355 . S
C707 C709 1.419 . S
C708 C706 1.415 . S
C708 C713 1.425 . S
C708 C715 1.409 . S
C709 H701 0.930 . S
C709 C707 1.419 . S
C709 C710 1.362 . S
C710 H702 0.930 . S
C710 C709 1.362 . S
C710 C713 1.409 . S
C711 H703 0.930 . S
C711 C712 1.355 . S
C711 C713 1.415 . S
C712 C711 1.355 . S
C712 C714 1.419 . S
C713 C708 1.425 . S
C713 C710 1.409 . S
C713 C711 1.415 . S
C714 H704 0.930 . S
C714 C712 1.419 . S
C714 C715 1.362 . S
C715 H705 0.930 . S
C715 C708 1.409 . S
C715 C714 1.362 . S
H716 C722 0.930 . S
H717 C725 0.930 . S
H718 C726 0.930 . S
H719 C727 0.930 . S
H720 C730 0.930 . S
H721 C731 0.930 . S
C722 H716 0.930 . S
C722 C723 1.355 . S
C722 C724 1.415 . S
C723 C722 1.355 . S
C723 C725 1.419 . S
C724 C722 1.415 . S
C724 C729 1.425 . S
C724 C731 1.409 . S
C725 H717 0.930 . S
C725 C723 1.419 . S
C725 C726 1.362 . S
C726 H718 0.930 . S
C726 C725 1.362 . S
C726 C729 1.409 . S
C727 H719 0.930 . S
C727 C728 1.355 . S
C727 C729 1.415 . S
C728 C727 1.355 . S
C728 C730 1.419 . S
C729 C724 1.425 . S
C729 C726 1.409 . S
C729 C727 1.415 . S
C730 H720 0.930 . S
C730 C728 1.419 . S
C730 C731 1.362 . S
C731 H721 0.930 . S
C731 C724 1.409 . S
C731 C730 1.362 . S
H732 C738 0.930 . S
H733 C741 0.930 . S
H734 C742 0.930 . S
H735 C743 0.930 . S
H736 C746 0.930 . S
H737 C747 0.930 . S
C738 H732 0.930 . S
C738 C739 1.355 . S
C738 C740 1.415 . S
C739 C738 1.355 . S
C739 C741 1.419 . S
C740 C738 1.415 . S
C740 C745 1.425 . S
C740 C747 1.409 . S
C741 H733 0.930 . S
C741 C739 1.419 . S
C741 C742 1.362 . S
C742 H734 0.930 . S
C742 C741 1.362 . S
C742 C745 1.409 . S
C743 H735 0.930 . S
C743 C744 1.355 . S
C743 C745 1.415 . S
C744 C743 1.355 . S
C744 C746 1.419 . S
C745 C740 1.425 . S
C745 C742 1.409 . S
C745 C743 1.415 . S
C746 H736 0.930 . S
C746 C744 1.419 . S
C746 C747 1.362 . S
C747 H737 0.930 . S
C747 C740 1.409 . S
C747 C746 1.362 . S
H748 C754 0.930 . S
H749 C757 0.930 . S
H750 C758 0.930 . S
H751 C759 0.930 . S
H752 C762 0.930 . S
H753 C763 0.930 . S
C754 H748 0.930 . S
C754 C755 1.355 . S
C754 C756 1.415 . S
C755 C754 1.355 . S
C755 C757 1.419 . S
C756 C754 1.415 . S
C756 C761 1.425 . S
C756 C763 1.409 . S
C757 H749 0.930 . S
C757 C755 1.419 . S
C757 C758 1.362 . S
C758 H750 0.930 . S
C758 C757 1.362 . S
C758 C761 1.409 . S
C759 H751 0.930 . S
C759 C760 1.355 . S
C759 C761 1.415 . S
C760 C759 1.355 . S
C760 C762 1.419 . S
C761 C756 1.425 . S
C761 C758 1.409 . S
C761 C759 1.415 . S
C762 H752 0.930 . S
C762 C760 1.419 . S
C762 C763 1.362 . S
C763 H753 0.930 . S
C763 C756 1.409 . S
C763 C762 1.362 . S
H764 C770 0.930 . S
H765 C773 0.930 . S
H766 C774 0.930 . S
H767 C775 0.930 . S
H768 C778 0.930 . S
H769 C779 0.930 . S
C770 H764 0.930 . S
C770 C771 1.355 . S
C770 C772 1.415 . S
C771 C770 1.355 . S
C771 C773 1.419 . S
C772 C770 1.415 . S
C772 C777 1.425 . S
C772 C779 1.409 . S
C773 H765 0.930 . S
C773 C771 1.419 . S
C773 C774 1.362 . S
C774 H766 0.930 . S
C774 C773 1.362 . S
C774 C777 1.409 . S
C775 H767 0.930 . S
C775 C776 1.355 . S
C775 C777 1.415 . S
C776 C775 1.355 . S
C776 C778 1.419 . S
C777 C772 1.425 . S
C777 C774 1.409 . S
C777 C775 1.415 . S
C778 H768 0.930 . S
C778 C776 1.419 . S
C778 C779 1.362 . S
C779 H769 0.930 . S
C779 C772 1.409 . S
C779 C778 1.362 . S
H780 C786 0.930 . S
H781 C789 0.930 . S
H782 C790 0.930 . S
H783 C791 0.930 . S
H784 C794 0.930 . S
H785 C795 0.930 . S
C786 H780 0.930 . S
C786 C787 1.355 . S
C786 C788 1.415 1_556 S
C787 C786 1.355 . S
C787 C789 1.419 . S
C788 C786 1.415 1_554 S
C788 C793 1.425 1_455 S
C788 C795 1.409 1_455 S
C789 H781 0.930 . S
C789 C787 1.419 . S
C789 C790 1.362 . S
C790 H782 0.930 . S
C790 C789 1.362 . S
C790 C793 1.409 1_456 S
C791 H783 0.930 . S
C791 C792 1.355 . S
C791 C793 1.415 . S
C792 C791 1.355 . S
C792 C794 1.419 . S
C793 C788 1.425 1_655 S
C793 C790 1.409 1_654 S
C793 C791 1.415 . S
C794 H784 0.930 . S
C794 C792 1.419 . S
C794 C795 1.362 . S
C795 H785 0.930 . S
C795 C788 1.409 1_655 S
C795 C794 1.362 . S
H796 C802 0.930 . S
H797 C805 0.930 . S
H798 C806 0.930 . S
H799 C807 0.930 . S
H800 C810 0.930 . S
H801 C811 0.930 . S
C802 H796 0.930 . S
C802 C803 1.355 1_556 S
C802 C804 1.415 . S
C803 C802 1.355 1_554 S
C803 C805 1.419 . S
C804 C802 1.415 . S
C804 C809 1.425 1_566 S
C804 C811 1.409 1_565 S
C805 H797 0.930 . S
C805 C803 1.419 . S
C805 C806 1.362 . S
C806 H798 0.930 . S
C806 C805 1.362 . S
C806 C809 1.409 1_565 S
C807 H799 0.930 . S
C807 C808 1.355 1_554 S
C807 C809 1.415 . S
C808 C807 1.355 1_556 S
C808 C810 1.419 . S
C809 C804 1.425 1_544 S
C809 C806 1.409 1_545 S
C809 C807 1.415 . S
C810 H800 0.930 . S
C810 C808 1.419 . S
C810 C811 1.362 . S
C811 H801 0.930 . S
C811 C804 1.409 1_545 S
C811 C810 1.362 . S
H812 C818 0.930 . S
H813 C821 0.930 . S
H814 C822 0.930 . S
H815 C823 0.930 . S
H816 C826 0.930 . S
H817 C827 0.930 . S
C818 H812 0.930 . S
C818 C819 1.355 1_556 S
C818 C820 1.415 . S
C819 C818 1.355 1_554 S
C819 C821 1.419 . S
C820 C818 1.415 . S
C820 C825 1.425 1_556 S
C820 C827 1.409 . S
C821 H813 0.930 . S
C821 C819 1.419 . S
C821 C822 1.362 . S
C822 H814 0.930 . S
C822 C821 1.362 . S
C822 C825 1.409 . S
C823 H815 0.930 . S
C823 C824 1.355 1_554 S
C823 C825 1.415 . S
C824 C823 1.355 1_556 S
C824 C826 1.419 . S
C825 C820 1.425 1_554 S
C825 C822 1.409 . S
C825 C823 1.415 . S
C826 H816 0.930 . S
C826 C824 1.419 . S
C826 C827 1.362 . S
C827 H817 0.930 . S
C827 C820 1.409 . S
C827 C826 1.362 . S
H828 C834 0.930 . S
H829 C837 0.930 . S
H830 C838 0.930 . S
H831 C839 0.930 . S
H832 C842 0.930 . S
H833 C843 0.930 . S
C834 H828 0.930 . S
C834 C835 1.355 1_556 S
C834 C836 1.415 . S
C835 C834 1.355 1_554 S
C835 C837 1.419 . S
C836 C834 1.415 . S
C836 C841 1.425 1_456 S
C836 C843 1.409 1_455 S
C837 H829 0.930 . S
C837 C835 1.419 . S
C837 C838 1.362 . S
C838 H830 0.930 . S
C838 C837 1.362 . S
C838 C841 1.409 1_455 S
C839 H831 0.930 . S
C839 C840 1.355 1_554 S
C839 C841 1.415 . S
C840 C839 1.355 1_556 S
C840 C842 1.419 . S
C841 C836 1.425 1_654 S
C841 C838 1.409 1_655 S
C841 C839 1.415 . S
C842 H832 0.930 . S
C842 C840 1.419 . S
C842 C843 1.362 . S
C843 H833 0.930 . S
C843 C836 1.409 1_655 S
C843 C842 1.362 . S
H844 C850 0.930 . S
H845 C853 0.930 . S
H846 C854 0.930 . S
H847 C855 0.930 . S
H848 C858 0.930 . S
H849 C859 0.931 . S
C850 H844 0.930 . S
C850 C851 1.355 . S
C850 C852 1.415 1_556 S
C851 C850 1.355 . S
C851 C853 1.419 . S
C852 C850 1.415 1_554 S
C852 C857 1.425 1_565 S
C852 C859 1.409 1_565 S
C853 H845 0.930 . S
C853 C851 1.419 . S
C853 C854 1.362 1_556 S
C854 H846 0.930 . S
C854 C853 1.362 1_554 S
C854 C857 1.409 1_565 S
C855 H847 0.930 . S
C855 C856 1.355 . S
C855 C857 1.415 . S
C856 C855 1.355 . S
C856 C858 1.419 . S
C857 C852 1.425 1_545 S
C857 C854 1.409 1_545 S
C857 C855 1.415 . S
C858 H848 0.930 . S
C858 C856 1.419 . S
C858 C859 1.362 . S
C859 H849 0.931 . S
C859 C852 1.409 1_545 S
C859 C858 1.362 . S
H860 C866 0.930 . S
H861 C869 0.930 . S
H862 C870 0.930 . S
H863 C871 0.930 . S
H864 C874 0.930 . S
H865 C875 0.930 . S
C866 H860 0.930 . S
C866 C867 1.355 1_556 S
C866 C868 1.415 . S
C867 C866 1.355 1_554 S
C867 C869 1.419 . S
C868 C866 1.415 . S
C868 C873 1.425 1_556 S
C868 C875 1.409 . S
C869 H861 0.930 . S
C869 C867 1.419 . S
C869 C870 1.362 . S
C870 H862 0.930 . S
C870 C869 1.362 . S
C870 C873 1.409 . S
C871 H863 0.930 . S
C871 C872 1.355 1_554 S
C871 C873 1.415 . S
C872 C871 1.355 1_556 S
C872 C874 1.419 . S
C873 C868 1.425 1_554 S
C873 C870 1.409 . S
C873 C871 1.415 . S
C874 H864 0.930 . S
C874 C872 1.419 . S
C874 C875 1.362 . S
C875 H865 0.930 . S
C875 C868 1.409 . S
C875 C874 1.362 . S
C403 C285 1.559 . S
C408 C21 1.569 . S
C419 C54 1.562 1_556 S
C424 C318 1.573 . S
C435 C351 1.557 . S
C440 C87 1.574 . S
C451 C384 1.572 . S
C456 C120 1.562 1_556 S
C467 C153 1.565 1_556 S
C472 C219 1.570 . S
C483 C252 1.558 . S
C488 C186 1.574 1_556 S
C499 C348 1.278 . S
C504 C18 1.253 . S
C515 C381 1.287 . S
C520 C51 1.264 . S
C531 C84 1.271 . S
C536 C216 1.287 . S
C547 C249 1.287 . S
C552 C117 1.273 . S
C563 C282 1.284 . S
C568 C150 1.258 . S
C579 C315 1.284 . S
C584 C183 1.259 . S
C595 N13 1.440 . S
C600 N2 1.436 . S
C611 N46 1.417 . S
C616 N35 1.412 . S
C627 N79 1.417 . S
C632 N68 1.412 . S
C643 N112 1.419 . S
C648 N101 1.415 . S
C659 N134 1.418 . S
C664 N145 1.423 . S
C675 N178 1.487 . S
C680 N167 1.483 . S
C691 N200 1.494 . S
C696 N211 1.497 . S
C707 N244 1.491 . S
C712 N233 1.488 . S
C723 N266 1.447 . S
C728 N277 1.451 . S
C739 N299 1.429 . S
C744 N310 1.433 . S
C755 N343 1.417 . S
C760 N332 1.412 . S
C771 N376 1.473 . S
C776 N365 1.469 . S
C787 C7 1.259 . S
C792 C370 1.315 . S
C803 C205 1.307 . S
C808 C40 1.267 . S
C819 C238 1.269 . S
C824 C73 1.306 . S
C835 C271 1.310 . S
C840 C106 1.264 . S
C851 C139 1.257 . S
C856 C304 1.317 . S
C867 C337 1.263 . S
C872 C172 1.311 . S
