# Generated by pormake.
# Topology lon, (4)-cn, num edge types: 1
# Building blocks:
#     Node 0, Type 0, BuildingBlock: NAHDIM_clean_sbu_0, # of connection points: 4
#     Node 1, Type 0, BuildingBlock: NAHDIM_clean_sbu_0, # of connection points: 4
#     Node 2, Type 0, BuildingBlock: NAHDIM_clean_sbu_0, # of connection points: 4
#     Node 3, Type 0, BuildingBlock: NAHDIM_clean_sbu_0, # of connection points: 4
#     Edge 4, Type (0, 0), BuildingBlock: FUNLAD_clean_linker_1, # of connection points: 2
#     Edge 5, Type (0, 0), BuildingBlock: FUNLAD_clean_linker_1, # of connection points: 2
#     Edge 6, Type (0, 0), BuildingBlock: FUNLAD_clean_linker_1, # of connection points: 2
#     Edge 7, Type (0, 0), BuildingBlock: FUNLAD_clean_linker_1, # of connection points: 2
#     Edge 8, Type (0, 0), BuildingBlock: FUNLAD_clean_linker_1, # of connection points: 2
#     Edge 9, Type (0, 0), BuildingBlock: FUNLAD_clean_linker_1, # of connection points: 2
#     Edge 10, Type (0, 0), BuildingBlock: FUNLAD_clean_linker_1, # of connection points: 2
#     Edge 11, Type (0, 0), BuildingBlock: FUNLAD_clean_linker_1, # of connection points: 2
# Relax obj value: 0.020
# Max RMSD: 0.061
# Mean RMSD: 0.060
data_MOF--net-lon--node1-NAHDIM_clean_sbu_0--edge1-FUNLAD_clean_linker_1
_symmetry_space_group_name_H-M    P1
_symmetry_Int_Tables_number       1
_symmetry_cell_setting            triclinic
loop_
_symmetry_equiv_pos_as_xyz
'x, y, z'
_cell_length_a     25.639395
_cell_length_b     25.406245
_cell_length_c     42.495809
_cell_angle_alpha  88.750855
_cell_angle_beta   89.449521
_cell_angle_gamma 119.56645
loop_
_atom_site_label
_atom_site_type_symbol
_atom_site_fract_x
_atom_site_fract_y
_atom_site_fract_z
_atom_type_partial_charge
C0 C 0.41673 0.62695 0.03358 0.0
O1 O 0.38365 0.63364 0.01216 0.0
O2 O 0.3956 0.76186 0.05233 0.0
Zn3 Zn 0.36135 0.67742 0.07189 0.0
O4 O 0.28091 0.62173 0.05326 0.0
C5 C 0.34267 0.71737 0.13248 0.0
O6 O 0.33538 0.7565 0.11512 0.0
O7 O 0.41587 0.64378 0.06142 0.0
C8 C 0.23062 0.60972 0.06535 0.0
O9 O 0.2286 0.63401 0.09198 0.0
C10 C 0.36158 0.78056 0.04113 0.0
O11 O 0.30326 0.74478 0.04229 0.0
O12 O 0.35383 0.67943 0.11927 0.0
C13 C 0.80661 0.44198 0.55364 0.0
O14 O 0.77547 0.46911 0.55955 0.0
O15 O 0.64826 0.37441 0.55063 0.0
Zn16 Zn 0.69332 0.33392 0.56791 0.0
O17 O 0.66192 0.25071 0.55008 0.0
C18 C 0.63651 0.32063 0.62872 0.0
O19 O 0.59298 0.31751 0.61144 0.0
O20 O 0.78112 0.38454 0.55579 0.0
C21 C 0.60677 0.21068 0.55142 0.0
O22 O 0.56778 0.22297 0.56481 0.0
C23 C 0.62661 0.36543 0.52322 0.0
O24 O 0.63305 0.32811 0.50481 0.0
O25 O 0.6841 0.32728 0.61539 0.0
C26 C 0.40622 0.61326 0.48865 0.0
O27 O 0.3776 0.6292 0.50867 0.0
O28 O 0.27525 0.61907 0.45436 0.0
Zn29 Zn 0.36362 0.66822 0.44244 0.0
O30 O 0.39997 0.75239 0.45975 0.0
C31 C 0.33408 0.67194 0.37673 0.0
O32 O 0.28338 0.66476 0.38858 0.0
O33 O 0.40659 0.6255 0.45946 0.0
C34 C 0.37785 0.78624 0.45297 0.0
O35 O 0.33114 0.76601 0.4348 0.0
C36 C 0.2524 0.63028 0.47819 0.0
O37 O 0.28682 0.67498 0.49634 0.0
O38 O 0.37415 0.6747 0.39506 0.0
C39 C 0.81282 0.38395 0.96393 0.0
O40 O 0.79928 0.32903 0.95596 0.0
O41 O 0.66186 0.26545 0.95709 0.0
Zn42 Zn 0.69669 0.35032 0.9387 0.0
O43 O 0.64355 0.38585 0.94877 0.0
C44 C 0.66541 0.33364 0.87304 0.0
O45 O 0.6115 0.31701 0.88445 0.0
O46 O 0.77626 0.40292 0.95848 0.0
C47 C 0.65202 0.43356 0.93396 0.0
O48 O 0.69351 0.45739 0.91158 0.0
C49 C 0.60588 0.22885 0.95955 0.0
O50 O 0.56788 0.24608 0.94999 0.0
O51 O 0.70873 0.34965 0.8917 0.0
H52 H 0.32442 0.74902 0.17697 0.0
C53 C 0.33662 0.71739 0.16703 0.0
H54 H 0.35606 0.64706 0.17671 0.0
H55 H 0.39197 0.7861 0.31344 0.0
H56 H 0.47517 0.87311 0.28722 0.0
H57 H 0.49769 0.87154 0.23079 0.0
H58 H 0.43632 0.78344 0.20014 0.0
C59 C 0.34554 0.68011 0.18633 0.0
C60 C 0.33637 0.67927 0.22106 0.0
C61 C 0.37448 0.73017 0.23896 0.0
C62 C 0.36341 0.72988 0.27186 0.0
C63 C 0.39987 0.78275 0.28872 0.0
C64 C 0.44758 0.83324 0.2739 0.0
C65 C 0.4601 0.83246 0.24211 0.0
C66 C 0.4242 0.78168 0.22473 0.0
H67 H 0.38682 0.68014 0.33372 0.0
C68 C 0.34501 0.67632 0.34238 0.0
H69 H 0.26262 0.67015 0.33003 0.0
H70 H 0.25506 0.57417 0.19381 0.0
H71 H 0.17451 0.48551 0.22048 0.0
H72 H 0.15821 0.48323 0.27791 0.0
H73 H 0.22209 0.56978 0.30899 0.0
C74 C 0.30535 0.67573 0.32175 0.0
C75 C 0.31616 0.67751 0.28712 0.0
C76 C 0.27875 0.62629 0.26931 0.0
C77 C 0.28875 0.62723 0.23626 0.0
C78 C 0.25006 0.57571 0.21903 0.0
C79 C 0.20353 0.52449 0.23403 0.0
C80 C 0.19431 0.52324 0.26635 0.0
C81 C 0.2313 0.57334 0.28391 0.0
H82 H 0.58699 0.30946 0.67329 0.0
C83 C 0.62941 0.31694 0.66331 0.0
H84 H 0.71674 0.33328 0.67322 0.0
H85 H 0.70484 0.43745 0.80672 0.0
H86 H 0.77298 0.52987 0.77777 0.0
H87 H 0.79315 0.52869 0.72099 0.0
H88 H 0.74472 0.43498 0.69278 0.0
C89 C 0.67322 0.32349 0.68265 0.0
C90 C 0.66496 0.32272 0.71742 0.0
C91 C 0.69512 0.37749 0.73379 0.0
C92 C 0.68455 0.3779 0.7667 0.0
C93 C 0.71275 0.43394 0.78203 0.0
C94 C 0.75166 0.48754 0.76561 0.0
C95 C 0.76293 0.48689 0.73364 0.0
C96 C 0.7349 0.43274 0.71775 0.0
H97 H 0.72144 0.34683 0.83062 0.0
C98 C 0.67654 0.33485 0.83884 0.0
H99 H 0.58807 0.30915 0.82573 0.0
H100 H 0.60401 0.20916 0.69363 0.0
H101 H 0.53667 0.11621 0.7226 0.0
H102 H 0.5183 0.1167 0.77965 0.0
H103 H 0.56727 0.21007 0.80809 0.0
C104 C 0.63351 0.32269 0.81781 0.0
C105 C 0.64514 0.32306 0.78335 0.0
C106 C 0.61563 0.26814 0.76701 0.0
C107 C 0.62579 0.26791 0.73405 0.0
C108 C 0.59691 0.21216 0.7185 0.0
C109 C 0.55841 0.15839 0.73489 0.0
C110 C 0.54811 0.15865 0.76701 0.0
C111 C 0.5764 0.21266 0.78303 0.0
H112 H 0.47836 0.5921 0.04465 0.0
C113 C 0.45288 0.59809 0.02598 0.0
H114 H 0.42717 0.58198 0.97855 0.0
H115 H 0.67054 0.54994 0.98528 0.0
H116 H 0.72508 0.65637 0.9973 0.0
H117 H 0.67193 0.71403 1.00474 0.0
H118 H 0.56385 0.66521 1.00093 0.0
C119 C 0.45412 0.57814 0.99709 0.0
C120 C 0.48731 0.54518 0.99023 0.0
C121 C 0.55086 0.57525 0.9911 0.0
C122 C 0.58182 0.54283 0.98507 0.0
C123 C 0.64494 0.57297 0.98812 0.0
C124 C 0.67682 0.63402 0.99527 0.0
C125 C 0.64688 0.6664 0.99959 0.0
C126 C 0.58469 0.63765 0.99754 0.0
H127 H 0.62465 0.50277 0.92775 0.0
C128 C 0.61795 0.46418 0.94238 0.0
H129 H 0.57373 0.40901 0.98263 0.0
H130 H 0.36535 0.47356 0.98727 0.0
H131 H 0.31115 0.368 0.97342 0.0
H132 H 0.36521 0.3132 0.96046 0.0
H133 H 0.47379 0.36353 0.96149 0.0
C134 C 0.5817 0.44806 0.96804 0.0
C135 C 0.54945 0.4813 0.97644 0.0
C136 C 0.48599 0.45135 0.9755 0.0
C137 C 0.45489 0.48324 0.98249 0.0
C138 C 0.39139 0.45187 0.98176 0.0
C139 C 0.35966 0.39118 0.9739 0.0
C140 C 0.39008 0.36032 0.96664 0.0
C141 C 0.45247 0.38978 0.96737 0.0
H142 H 0.16139 0.55423 0.47054 0.0
C143 C 0.18746 0.59301 0.48505 0.0
H144 H 0.1857 0.64382 0.5233 0.0
H145 H 0.89905 0.48717 0.48151 0.0
H146 H 0.93195 0.5445 0.432 0.0
H147 H 0.0393 0.61486 0.42067 0.0
H148 H 0.11441 0.62744 0.45849 0.0
C149 C 0.15989 0.60601 0.50818 0.0
C150 C 0.09459 0.56697 0.51553 0.0
C151 C 0.05108 0.56212 0.4936 0.0
C152 C 0.98894 0.52369 0.50073 0.0
C153 C 0.94665 0.51732 0.47779 0.0
C154 C 0.96493 0.54974 0.44919 0.0
C155 C 0.02539 0.58918 0.44277 0.0
C156 C 0.06812 0.59561 0.46464 0.0
H157 H 0.88996 0.52754 0.54248 0.0
C158 C 0.87063 0.47866 0.54443 0.0
H159 H 0.88732 0.40532 0.54138 0.0
H160 H 0.16602 0.56599 0.56282 0.0
H161 H 0.13271 0.51161 0.61311 0.0
H162 H 0.02489 0.44814 0.62621 0.0
H163 H 0.94969 0.43838 0.58901 0.0
C164 C 0.90533 0.45389 0.53852 0.0
C165 C 0.9703 0.49231 0.53031 0.0
C166 C 0.0137 0.49771 0.55234 0.0
C167 C 0.07587 0.53498 0.54494 0.0
C168 C 0.1182 0.53898 0.56732 0.0
C169 C 0.09971 0.50788 0.59628 0.0
C170 C 0.03901 0.47209 0.60364 0.0
C171 C 0.99631 0.46686 0.58204 0.0
H172 H 0.61808 0.15547 0.98039 0.0
C173 C 0.58467 0.16747 0.97305 0.0
H174 H 0.49221 0.13691 0.96829 0.0
H175 H 0.42309 0.86071 0.96603 0.0
H176 H 0.40967 0.87971 0.91139 0.0
H177 H 0.44004 0.98308 0.89157 0.0
H178 H 0.48438 0.06811 0.92627 0.0
C179 C 0.52619 0.12641 0.97644 0.0
C180 C 0.5063 0.06399 0.98895 0.0
C181 C 0.47926 0.01459 0.96852 0.0
C182 C 0.46076 0.95482 0.98008 0.0
C183 C 0.4362 0.90673 0.9588 0.0
C184 C 0.42868 0.91707 0.92727 0.0
C185 C 0.44585 0.97527 0.91611 0.0
C186 C 0.47111 0.02366 0.93633 0.0
H187 H 0.35478 0.85591 0.01882 0.0
C188 C 0.3863 0.84223 0.02735 0.0
H189 H 0.47754 0.86947 0.03437 0.0
H190 H 0.55293 0.14793 0.03501 0.0
H191 H 0.56687 0.12897 0.08956 0.0
H192 H 0.53604 0.02552 0.10942 0.0
H193 H 0.49078 0.94038 0.07484 0.0
C194 C 0.44541 0.88162 0.02509 0.0
C195 C 0.46807 0.94439 0.01226 0.0
C196 C 0.49573 0.99387 0.03261 0.0
C197 C 0.51434 0.05367 0.02104 0.0
C198 C 0.53951 0.10185 0.04225 0.0
C199 C 0.54738 0.09154 0.07373 0.0
C200 C 0.52995 0.0333 0.08492 0.0
C201 C 0.50414 0.98483 0.06477 0.0
H202 H 0.5735 0.38471 0.48899 0.0
C203 C 0.594 0.39619 0.51192 0.0
H204 H 0.61131 0.45143 0.55134 0.0
H205 H 0.57523 0.64639 0.47249 0.0
H206 H 0.68395 0.69654 0.47239 0.0
H207 H 0.73606 0.64339 0.49245 0.0
H208 H 0.67975 0.53973 0.51279 0.0
C209 C 0.58941 0.43783 0.52886 0.0
C210 C 0.55761 0.46935 0.51658 0.0
C211 C 0.59113 0.52987 0.5048 0.0
C212 C 0.56107 0.56036 0.49304 0.0
C213 C 0.59574 0.62091 0.48149 0.0
C214 C 0.65819 0.65028 0.48134 0.0
C215 C 0.68752 0.62037 0.49265 0.0
C216 C 0.65465 0.56089 0.50428 0.0
H217 H 0.43409 0.57004 0.52538 0.0
C218 C 0.43662 0.58043 0.50027 0.0
H219 H 0.47108 0.57441 0.45593 0.0
H220 H 0.48 0.35468 0.53924 0.0
H221 H 0.37133 0.30353 0.53822 0.0
H222 H 0.31915 0.35482 0.51579 0.0
H223 H 0.37525 0.45775 0.49461 0.0
C224 C 0.46651 0.56276 0.48095 0.0
C225 C 0.49751 0.53037 0.49326 0.0
C226 C 0.46394 0.46957 0.50482 0.0
C227 C 0.49404 0.43932 0.51687 0.0
C228 C 0.45946 0.37931 0.52916 0.0
C229 C 0.39704 0.34947 0.52881 0.0
C230 C 0.36766 0.3784 0.51625 0.0
C231 C 0.40045 0.43767 0.50432 0.0
H232 H 0.17973 0.55073 0.02679 0.0
C233 C 0.17553 0.57081 0.04833 0.0
H234 H 0.116 0.57966 0.07966 0.0
H235 H 0.9697 0.49036 0.94452 0.0
H236 H 0.04506 0.58814 0.92296 0.0
H237 H 0.12974 0.65826 0.955 0.0
H238 H 0.14019 0.63041 0.00851 0.0
C239 C 0.12133 0.56114 0.05784 0.0
C240 C 0.06682 0.5223 0.03968 0.0
C241 C 0.05993 0.54062 0.00892 0.0
C242 C 0.00942 0.50157 0.99103 0.0
C243 C 1.00567 0.51933 0.95968 0.0
C244 C 0.04888 0.5752 0.94691 0.0
C245 C 0.09668 0.61456 0.96489 0.0
C246 C 0.10236 0.59776 0.99553 0.0
H247 H 0.87752 0.46802 0.98651 0.0
C248 C 0.86914 0.42345 0.97988 0.0
H249 H 0.90088 0.36092 0.98129 0.0
H250 H 0.06597 0.47402 0.09805 0.0
H251 H 0.98824 0.37821 0.12049 0.0
H252 H 0.89838 0.31253 0.09038 0.0
H253 H 0.8859 0.34202 0.03756 0.0
C254 C 0.90951 0.40606 0.98677 0.0
C255 C 0.96426 0.44576 1.00457 0.0
C256 C 0.97064 0.42799 0.03552 0.0
C257 C 0.02203 0.46625 0.05306 0.0
C258 C 0.02757 0.44703 0.08378 0.0
C259 C 0.9833 0.39209 0.09695 0.0
C260 C 0.93275 0.35509 0.07999 0.0
C261 C 0.92621 0.37257 0.04965 0.0
H262 H 0.62121 0.14382 0.52609 0.0
C263 C 0.58733 0.15144 0.53732 0.0
H264 H 0.49549 0.11352 0.5497 0.0
H265 H 0.49309 0.94088 0.43329 0.0
H266 H 0.5273 0.03072 0.3997 0.0
H267 H 0.5522 0.12888 0.42221 0.0
H268 H 0.54422 0.13797 0.47846 0.0
C269 C 0.52964 0.1074 0.53768 0.0
C270 C 0.51114 0.04766 0.52362 0.0
C271 C 0.51382 0.04273 0.49051 0.0
C272 C 0.4966 0.98551 0.47738 0.0
C273 C 0.503 0.98257 0.44442 0.0
C274 C 0.52303 0.03393 0.42486 0.0
C275 C 0.53728 0.08923 0.43754 0.0
C276 C 0.53281 0.09386 0.46994 0.0
H277 H 0.38019 0.87296 0.46028 0.0
C278 C 0.40279 0.84732 0.46573 0.0
H279 H 0.4738 0.84631 0.49001 0.0
H280 H 0.50178 0.04158 0.58796 0.0
H281 H 0.46477 0.95115 0.62145 0.0
H282 H 0.43096 0.85132 0.59855 0.0
H283 H 0.43428 0.8413 0.54207 0.0
C284 C 0.45171 0.872 0.48361 0.0
C285 C 0.47395 0.93282 0.49724 0.0
C286 C 0.47141 0.93783 0.53033 0.0
C287 C 0.49011 0.99529 0.54351 0.0
C288 C 0.48753 0.99899 0.57666 0.0
C289 C 0.46647 0.94745 0.59617 0.0
C290 C 0.44749 0.89126 0.58328 0.0
C291 C 0.44974 0.88619 0.55079 0.0
loop_
_geom_bond_atom_site_label_1
_geom_bond_atom_site_label_2
_geom_bond_distance
_geom_bond_site_symmetry_2
_ccdc_geom_bond_type
C0 O1 1.160 . S
C0 O7 1.185 . S
O1 C0 1.160 . S
O2 Zn3 1.899 . S
O2 C10 1.284 . S
Zn3 O2 1.899 . S
Zn3 O4 2.032 . S
Zn3 O7 2.086 . S
Zn3 O12 1.977 . S
O4 Zn3 2.032 . S
O4 C8 1.278 . S
C5 O6 1.203 . S
C5 O12 1.267 . S
O6 C5 1.203 . S
O7 C0 1.185 . S
O7 Zn3 2.086 . S
C8 O4 1.278 . S
C8 O9 1.211 . S
O9 C8 1.211 . S
C10 O2 1.284 . S
C10 O11 1.273 . S
O11 C10 1.273 . S
O12 Zn3 1.977 . S
O12 C5 1.267 . S
C13 O14 1.160 . S
C13 O20 1.185 . S
O14 C13 1.160 . S
O15 Zn16 1.899 . S
O15 C23 1.284 . S
Zn16 O15 1.899 . S
Zn16 O17 2.032 . S
Zn16 O20 2.086 . S
Zn16 O25 1.977 . S
O17 Zn16 2.032 . S
O17 C21 1.278 . S
C18 O19 1.203 . S
C18 O25 1.267 . S
O19 C18 1.203 . S
O20 C13 1.185 . S
O20 Zn16 2.086 . S
C21 O17 1.278 . S
C21 O22 1.211 . S
O22 C21 1.211 . S
C23 O15 1.284 . S
C23 O24 1.273 . S
O24 C23 1.273 . S
O25 Zn16 1.977 . S
O25 C18 1.267 . S
C26 O27 1.160 . S
C26 O33 1.185 . S
O27 C26 1.160 . S
O28 Zn29 1.899 . S
O28 C36 1.284 . S
Zn29 O28 1.899 . S
Zn29 O30 2.032 . S
Zn29 O33 2.086 . S
Zn29 O38 1.977 . S
O30 Zn29 2.032 . S
O30 C34 1.278 . S
C31 O32 1.203 . S
C31 O38 1.267 . S
O32 C31 1.203 . S
O33 C26 1.185 . S
O33 Zn29 2.086 . S
C34 O30 1.278 . S
C34 O35 1.211 . S
O35 C34 1.211 . S
C36 O28 1.284 . S
C36 O37 1.273 . S
O37 C36 1.273 . S
O38 Zn29 1.977 . S
O38 C31 1.267 . S
C39 O40 1.160 . S
C39 O46 1.185 . S
O40 C39 1.160 . S
O41 Zn42 1.899 . S
O41 C49 1.284 . S
Zn42 O41 1.899 . S
Zn42 O43 2.032 . S
Zn42 O46 2.086 . S
Zn42 O51 1.977 . S
O43 Zn42 2.032 . S
O43 C47 1.278 . S
C44 O45 1.203 . S
C44 O51 1.267 . S
O45 C44 1.203 . S
O46 C39 1.185 . S
O46 Zn42 2.086 . S
C47 O43 1.278 . S
C47 O48 1.211 . S
O48 C47 1.211 . S
C49 O41 1.284 . S
C49 O50 1.273 . S
O50 C49 1.273 . S
O51 Zn42 1.977 . S
O51 C44 1.267 . S
H52 C53 0.951 . S
C53 H52 0.951 . S
C53 C59 1.265 . S
H54 C59 0.950 . S
H55 C63 0.949 . S
H56 C64 0.950 . S
H57 C65 0.951 . S
H58 C66 0.951 . S
C59 C53 1.265 . S
C59 H54 0.950 . S
C59 C60 1.478 . S
C60 C59 1.478 . S
C60 C61 1.397 . S
C60 C77 1.394 . S
C61 C60 1.397 . S
C61 C62 1.438 . S
C61 C66 1.429 . S
C62 C61 1.438 . S
C62 C63 1.428 . S
C62 C75 1.394 . S
C63 H55 0.949 . S
C63 C62 1.428 . S
C63 C64 1.345 . S
C64 H56 0.950 . S
C64 C63 1.345 . S
C64 C65 1.424 . S
C65 H57 0.951 . S
C65 C64 1.424 . S
C65 C66 1.347 . S
C66 H58 0.951 . S
C66 C61 1.429 . S
C66 C65 1.347 . S
H67 C68 0.951 . S
C68 H67 0.951 . S
C68 C74 1.265 . S
H69 C74 0.950 . S
H70 C78 0.949 . S
H71 C79 0.950 . S
H72 C80 0.951 . S
H73 C81 0.951 . S
C74 C68 1.265 . S
C74 H69 0.950 . S
C74 C75 1.478 . S
C75 C62 1.394 . S
C75 C74 1.478 . S
C75 C76 1.397 . S
C76 C75 1.397 . S
C76 C77 1.438 . S
C76 C81 1.429 . S
C77 C60 1.394 . S
C77 C76 1.438 . S
C77 C78 1.428 . S
C78 H70 0.949 . S
C78 C77 1.428 . S
C78 C79 1.345 . S
C79 H71 0.950 . S
C79 C78 1.345 . S
C79 C80 1.424 . S
C80 H72 0.951 . S
C80 C79 1.424 . S
C80 C81 1.347 . S
C81 H73 0.951 . S
C81 C76 1.429 . S
C81 C80 1.347 . S
H82 C83 0.951 . S
C83 H82 0.951 . S
C83 C89 1.265 . S
H84 C89 0.950 . S
H85 C93 0.949 . S
H86 C94 0.950 . S
H87 C95 0.951 . S
H88 C96 0.951 . S
C89 C83 1.265 . S
C89 H84 0.950 . S
C89 C90 1.478 . S
C90 C89 1.478 . S
C90 C91 1.397 . S
C90 C107 1.394 . S
C91 C90 1.397 . S
C91 C92 1.438 . S
C91 C96 1.429 . S
C92 C91 1.438 . S
C92 C93 1.428 . S
C92 C105 1.394 . S
C93 H85 0.949 . S
C93 C92 1.428 . S
C93 C94 1.345 . S
C94 H86 0.950 . S
C94 C93 1.345 . S
C94 C95 1.424 . S
C95 H87 0.951 . S
C95 C94 1.424 . S
C95 C96 1.347 . S
C96 H88 0.951 . S
C96 C91 1.429 . S
C96 C95 1.347 . S
H97 C98 0.951 . S
C98 H97 0.951 . S
C98 C104 1.265 . S
H99 C104 0.950 . S
H100 C108 0.949 . S
H101 C109 0.950 . S
H102 C110 0.951 . S
H103 C111 0.951 . S
C104 C98 1.265 . S
C104 H99 0.950 . S
C104 C105 1.478 . S
C105 C92 1.394 . S
C105 C104 1.478 . S
C105 C106 1.397 . S
C106 C105 1.397 . S
C106 C107 1.438 . S
C106 C111 1.429 . S
C107 C90 1.394 . S
C107 C106 1.438 . S
C107 C108 1.428 . S
C108 H100 0.949 . S
C108 C107 1.428 . S
C108 C109 1.345 . S
C109 H101 0.950 . S
C109 C108 1.345 . S
C109 C110 1.424 . S
C110 H102 0.951 . S
C110 C109 1.424 . S
C110 C111 1.347 . S
C111 H103 0.951 . S
C111 C106 1.429 . S
C111 C110 1.347 . S
H112 C113 0.951 . S
C113 H112 0.951 . S
C113 C119 1.265 . S
H114 C119 0.950 1_556 S
H115 C123 0.949 . S
H116 C124 0.950 . S
H117 C125 0.951 . S
H118 C126 0.951 . S
C119 C113 1.265 . S
C119 H114 0.950 1_554 S
C119 C120 1.475 1_554 S
C120 C119 1.475 1_556 S
C120 C121 1.397 . S
C120 C137 1.397 . S
C121 C120 1.397 . S
C121 C122 1.445 . S
C121 C126 1.422 1_556 S
C122 C121 1.445 . S
C122 C123 1.428 . S
C122 C135 1.394 . S
C123 H115 0.949 . S
C123 C122 1.428 . S
C123 C124 1.345 . S
C124 H116 0.950 . S
C124 C123 1.345 . S
C124 C125 1.424 1_556 S
C125 H117 0.951 . S
C125 C124 1.424 1_554 S
C125 C126 1.347 . S
C126 H118 0.951 . S
C126 C121 1.422 1_554 S
C126 C125 1.347 . S
H127 C128 0.951 . S
C128 H127 0.951 . S
C128 C134 1.265 . S
H129 C134 0.938 1_554 S
H130 C138 0.949 . S
H131 C139 0.950 . S
H132 C140 0.951 . S
H133 C141 0.951 . S
C134 C128 1.265 . S
C134 H129 0.938 1_556 S
C134 C135 1.478 . S
C135 C122 1.394 . S
C135 C134 1.478 . S
C135 C136 1.397 . S
C136 C135 1.397 . S
C136 C137 1.438 . S
C136 C141 1.429 . S
C137 C120 1.397 . S
C137 C136 1.438 . S
C137 C138 1.428 . S
C138 H130 0.949 . S
C138 C137 1.428 . S
C138 C139 1.345 . S
C139 H131 0.950 . S
C139 C138 1.345 . S
C139 C140 1.424 . S
C140 H132 0.951 . S
C140 C139 1.424 . S
C140 C141 1.347 . S
C141 H133 0.951 . S
C141 C136 1.429 . S
C141 C140 1.347 . S
H142 C143 0.951 . S
C143 H142 0.951 . S
C143 C149 1.265 . S
H144 C149 0.950 . S
H145 C153 0.949 . S
H146 C154 0.950 . S
H147 C155 0.951 . S
H148 C156 0.951 . S
C149 C143 1.265 . S
C149 H144 0.950 . S
C149 C150 1.478 . S
C150 C149 1.478 . S
C150 C151 1.397 . S
C150 C167 1.394 . S
C151 C150 1.397 . S
C151 C152 1.438 1_455 S
C151 C156 1.429 . S
C152 C151 1.438 1_655 S
C152 C153 1.428 . S
C152 C165 1.394 . S
C153 H145 0.949 . S
C153 C152 1.428 . S
C153 C154 1.345 . S
C154 H146 0.950 . S
C154 C153 1.345 . S
C154 C155 1.424 . S
C155 H147 0.951 . S
C155 C154 1.424 . S
C155 C156 1.347 1_655 S
C156 H148 0.951 . S
C156 C151 1.429 . S
C156 C155 1.347 1_455 S
H157 C158 0.951 . S
C158 H157 0.951 . S
C158 C164 1.265 . S
H159 C164 0.950 . S
H160 C168 0.949 . S
H161 C169 0.950 . S
H162 C170 0.951 . S
H163 C171 0.951 1_655 S
C164 C158 1.265 . S
C164 H159 0.950 . S
C164 C165 1.478 . S
C165 C152 1.394 . S
C165 C164 1.478 . S
C165 C166 1.397 1_655 S
C166 C165 1.397 1_455 S
C166 C167 1.438 . S
C166 C171 1.429 . S
C167 C150 1.394 . S
C167 C166 1.438 . S
C167 C168 1.428 . S
C168 H160 0.949 . S
C168 C167 1.428 . S
C168 C169 1.345 . S
C169 H161 0.950 . S
C169 C168 1.345 . S
C169 C170 1.424 . S
C170 H162 0.951 . S
C170 C169 1.424 . S
C170 C171 1.347 . S
C171 H163 0.951 1_455 S
C171 C166 1.429 . S
C171 C170 1.347 . S
H172 C173 0.951 . S
C173 H172 0.951 . S
C173 C179 1.265 . S
H174 C179 0.950 . S
H175 C183 0.949 . S
H176 C184 0.950 . S
H177 C185 0.951 . S
H178 C186 0.951 . S
C179 C173 1.265 . S
C179 H174 0.950 . S
C179 C180 1.478 . S
C180 C179 1.478 . S
C180 C181 1.397 . S
C180 C197 1.394 1_556 S
C181 C180 1.397 . S
C181 C182 1.438 1_545 S
C181 C186 1.429 . S
C182 C181 1.438 1_565 S
C182 C183 1.428 . S
C182 C195 1.394 1_556 S
C183 H175 0.949 . S
C183 C182 1.428 . S
C183 C184 1.345 . S
C184 H176 0.950 . S
C184 C183 1.345 . S
C184 C185 1.424 . S
C185 H177 0.951 . S
C185 C184 1.424 . S
C185 C186 1.347 1_565 S
C186 H178 0.951 . S
C186 C181 1.429 . S
C186 C185 1.347 1_545 S
H187 C188 0.951 . S
C188 H187 0.951 . S
C188 C194 1.265 . S
H189 C194 0.950 . S
H190 C198 0.949 . S
H191 C199 0.950 . S
H192 C200 0.951 . S
H193 C201 0.951 . S
C194 C188 1.265 . S
C194 H189 0.950 . S
C194 C195 1.478 . S
C195 C182 1.394 1_554 S
C195 C194 1.478 . S
C195 C196 1.397 . S
C196 C195 1.397 . S
C196 C197 1.438 1_565 S
C196 C201 1.429 . S
C197 C180 1.394 1_554 S
C197 C196 1.438 1_545 S
C197 C198 1.428 . S
C198 H190 0.949 . S
C198 C197 1.428 . S
C198 C199 1.345 . S
C199 H191 0.950 . S
C199 C198 1.345 . S
C199 C200 1.424 . S
C200 H192 0.951 . S
C200 C199 1.424 . S
C200 C201 1.347 1_545 S
C201 H193 0.951 . S
C201 C196 1.429 . S
C201 C200 1.347 1_565 S
H202 C203 0.951 . S
C203 H202 0.951 . S
C203 C209 1.265 . S
H204 C209 0.950 . S
H205 C213 0.949 . S
H206 C214 0.950 . S
H207 C215 0.951 . S
H208 C216 0.951 . S
C209 C203 1.265 . S
C209 H204 0.950 . S
C209 C210 1.478 . S
C210 C209 1.478 . S
C210 C211 1.397 . S
C210 C227 1.394 . S
C211 C210 1.397 . S
C211 C212 1.438 . S
C211 C216 1.429 . S
C212 C211 1.438 . S
C212 C213 1.428 . S
C212 C225 1.394 . S
C213 H205 0.949 . S
C213 C212 1.428 . S
C213 C214 1.345 . S
C214 H206 0.950 . S
C214 C213 1.345 . S
C214 C215 1.424 . S
C215 H207 0.951 . S
C215 C214 1.424 . S
C215 C216 1.347 . S
C216 H208 0.951 . S
C216 C211 1.429 . S
C216 C215 1.347 . S
H217 C218 0.951 . S
C218 H217 0.951 . S
C218 C224 1.265 . S
H219 C224 0.950 . S
H220 C228 0.949 . S
H221 C229 0.950 . S
H222 C230 0.951 . S
H223 C231 0.951 . S
C224 C218 1.265 . S
C224 H219 0.950 . S
C224 C225 1.478 . S
C225 C212 1.394 . S
C225 C224 1.478 . S
C225 C226 1.397 . S
C226 C225 1.397 . S
C226 C227 1.438 . S
C226 C231 1.429 . S
C227 C210 1.394 . S
C227 C226 1.438 . S
C227 C228 1.428 . S
C228 H220 0.949 . S
C228 C227 1.428 . S
C228 C229 1.345 . S
C229 H221 0.950 . S
C229 C228 1.345 . S
C229 C230 1.424 . S
C230 H222 0.951 . S
C230 C229 1.424 . S
C230 C231 1.347 . S
C231 H223 0.951 . S
C231 C226 1.429 . S
C231 C230 1.347 . S
H232 C233 0.951 . S
C233 H232 0.951 . S
C233 C239 1.265 . S
H234 C239 0.950 . S
H235 C243 0.949 . S
H236 C244 0.950 1_655 S
H237 C245 0.951 . S
H238 C246 0.951 . S
C239 C233 1.265 . S
C239 H234 0.950 . S
C239 C240 1.478 . S
C240 C239 1.478 . S
C240 C241 1.397 1_554 S
C240 C257 1.394 . S
C241 C240 1.397 1_556 S
C241 C242 1.438 1_455 S
C241 C246 1.429 . S
C242 C241 1.438 1_655 S
C242 C243 1.428 . S
C242 C255 1.394 . S
C243 H235 0.949 . S
C243 C242 1.428 . S
C243 C244 1.345 1_655 S
C244 H236 0.950 1_455 S
C244 C243 1.345 1_455 S
C244 C245 1.424 . S
C245 H237 0.951 . S
C245 C244 1.424 . S
C245 C246 1.347 . S
C246 H238 0.951 . S
C246 C241 1.429 . S
C246 C245 1.347 . S
H247 C248 0.951 . S
C248 H247 0.951 . S
C248 C254 1.265 . S
H249 C254 0.950 . S
H250 C258 0.949 . S
H251 C259 0.950 1_455 S
H252 C260 0.951 . S
H253 C261 0.951 . S
C254 C248 1.265 . S
C254 H249 0.950 . S
C254 C255 1.478 . S
C255 C242 1.394 . S
C255 C254 1.478 . S
C255 C256 1.397 1_556 S
C256 C255 1.397 1_554 S
C256 C257 1.438 1_655 S
C256 C261 1.429 . S
C257 C240 1.394 . S
C257 C256 1.438 1_455 S
C257 C258 1.428 . S
C258 H250 0.949 . S
C258 C257 1.428 . S
C258 C259 1.345 1_455 S
C259 H251 0.950 1_655 S
C259 C258 1.345 1_655 S
C259 C260 1.424 . S
C260 H252 0.951 . S
C260 C259 1.424 . S
C260 C261 1.347 . S
C261 H253 0.951 . S
C261 C256 1.429 . S
C261 C260 1.347 . S
H262 C263 0.951 . S
C263 H262 0.951 . S
C263 C269 1.265 . S
H264 C269 0.950 . S
H265 C273 0.949 . S
H266 C274 0.950 . S
H267 C275 0.951 . S
H268 C276 0.951 . S
C269 C263 1.265 . S
C269 H264 0.950 . S
C269 C270 1.478 . S
C270 C269 1.478 . S
C270 C271 1.397 . S
C270 C287 1.394 . S
C271 C270 1.397 . S
C271 C272 1.438 1_545 S
C271 C276 1.429 . S
C272 C271 1.438 1_565 S
C272 C273 1.428 . S
C272 C285 1.394 . S
C273 H265 0.949 . S
C273 C272 1.428 . S
C273 C274 1.345 1_565 S
C274 H266 0.950 . S
C274 C273 1.345 1_545 S
C274 C275 1.424 . S
C275 H267 0.951 . S
C275 C274 1.424 . S
C275 C276 1.347 . S
C276 H268 0.951 . S
C276 C271 1.429 . S
C276 C275 1.347 . S
H277 C278 0.951 . S
C278 H277 0.951 . S
C278 C284 1.265 . S
H279 C284 0.950 . S
H280 C288 0.949 . S
H281 C289 0.950 . S
H282 C290 0.951 . S
H283 C291 0.951 . S
C284 C278 1.265 . S
C284 H279 0.950 . S
C284 C285 1.478 . S
C285 C272 1.394 . S
C285 C284 1.478 . S
C285 C286 1.397 . S
C286 C285 1.397 . S
C286 C287 1.438 1_565 S
C286 C291 1.429 . S
C287 C270 1.394 . S
C287 C286 1.438 1_545 S
C287 C288 1.428 . S
C288 H280 0.949 . S
C288 C287 1.428 . S
C288 C289 1.345 1_545 S
C289 H281 0.950 . S
C289 C288 1.345 1_565 S
C289 C290 1.424 . S
C290 H282 0.951 . S
C290 C289 1.424 . S
C290 C291 1.347 . S
C291 H283 0.951 . S
C291 C286 1.429 . S
C291 C290 1.347 . S
C53 C5 1.482 . S
C68 C31 1.513 . S
C83 C18 1.460 . S
C98 C44 1.497 . S
C113 C0 1.534 . S
C128 C47 1.488 . S
C143 C36 1.456 . S
C158 C13 1.383 . S
C173 C49 1.410 . S
C188 C10 1.368 . S
C203 C23 1.422 . S
C218 C26 1.439 . S
C233 C8 1.524 . S
C248 C39 1.540 . S
C263 C21 1.567 . S
C278 C34 1.547 . S
