# Generated by pormake.
# Topology umo, (4)-cn, num edge types: 1
# Building blocks:
#     Node 0, Type 0, BuildingBlock: KUFVIS_clean_sbu_0, # of connection points: 4
#     Node 1, Type 0, BuildingBlock: KUFVIS_clean_sbu_0, # of connection points: 4
#     Node 2, Type 0, BuildingBlock: KUFVIS_clean_sbu_0, # of connection points: 4
#     Node 3, Type 0, BuildingBlock: KUFVIS_clean_sbu_0, # of connection points: 4
#     Node 4, Type 0, BuildingBlock: KUFVIS_clean_sbu_0, # of connection points: 4
#     Node 5, Type 0, BuildingBlock: KUFVIS_clean_sbu_0, # of connection points: 4
#     Node 6, Type 0, BuildingBlock: KUFVIS_clean_sbu_0, # of connection points: 4
#     Node 7, Type 0, BuildingBlock: KUFVIS_clean_sbu_0, # of connection points: 4
#     Node 8, Type 0, BuildingBlock: KUFVIS_clean_sbu_0, # of connection points: 4
#     Node 9, Type 0, BuildingBlock: KUFVIS_clean_sbu_0, # of connection points: 4
#     Node 10, Type 0, BuildingBlock: KUFVIS_clean_sbu_0, # of connection points: 4
#     Node 11, Type 0, BuildingBlock: KUFVIS_clean_sbu_0, # of connection points: 4
#     Edge 12, Type (0, 0), BuildingBlock: AJUNOK_clean_linker_0, # of connection points: 2
#     Edge 13, Type (0, 0), BuildingBlock: AJUNOK_clean_linker_0, # of connection points: 2
#     Edge 14, Type (0, 0), BuildingBlock: AJUNOK_clean_linker_0, # of connection points: 2
#     Edge 15, Type (0, 0), BuildingBlock: AJUNOK_clean_linker_0, # of connection points: 2
#     Edge 16, Type (0, 0), BuildingBlock: AJUNOK_clean_linker_0, # of connection points: 2
#     Edge 17, Type (0, 0), BuildingBlock: AJUNOK_clean_linker_0, # of connection points: 2
#     Edge 18, Type (0, 0), BuildingBlock: AJUNOK_clean_linker_0, # of connection points: 2
#     Edge 19, Type (0, 0), BuildingBlock: AJUNOK_clean_linker_0, # of connection points: 2
#     Edge 20, Type (0, 0), BuildingBlock: AJUNOK_clean_linker_0, # of connection points: 2
#     Edge 21, Type (0, 0), BuildingBlock: AJUNOK_clean_linker_0, # of connection points: 2
#     Edge 22, Type (0, 0), BuildingBlock: AJUNOK_clean_linker_0, # of connection points: 2
#     Edge 23, Type (0, 0), BuildingBlock: AJUNOK_clean_linker_0, # of connection points: 2
#     Edge 24, Type (0, 0), BuildingBlock: AJUNOK_clean_linker_0, # of connection points: 2
#     Edge 25, Type (0, 0), BuildingBlock: AJUNOK_clean_linker_0, # of connection points: 2
#     Edge 26, Type (0, 0), BuildingBlock: AJUNOK_clean_linker_0, # of connection points: 2
#     Edge 27, Type (0, 0), BuildingBlock: AJUNOK_clean_linker_0, # of connection points: 2
#     Edge 28, Type (0, 0), BuildingBlock: AJUNOK_clean_linker_0, # of connection points: 2
#     Edge 29, Type (0, 0), BuildingBlock: AJUNOK_clean_linker_0, # of connection points: 2
#     Edge 30, Type (0, 0), BuildingBlock: AJUNOK_clean_linker_0, # of connection points: 2
#     Edge 31, Type (0, 0), BuildingBlock: AJUNOK_clean_linker_0, # of connection points: 2
#     Edge 32, Type (0, 0), BuildingBlock: AJUNOK_clean_linker_0, # of connection points: 2
#     Edge 33, Type (0, 0), BuildingBlock: AJUNOK_clean_linker_0, # of connection points: 2
#     Edge 34, Type (0, 0), BuildingBlock: AJUNOK_clean_linker_0, # of connection points: 2
#     Edge 35, Type (0, 0), BuildingBlock: AJUNOK_clean_linker_0, # of connection points: 2
# Relax obj value: 0.187
# Max RMSD: 0.239
# Mean RMSD: 0.239
data_MOF--net-umo--node1-KUFVIS_clean_sbu_0--edge1-AJUNOK_clean_linker_0
_symmetry_space_group_name_H-M    P1
_symmetry_Int_Tables_number       1
_symmetry_cell_setting            triclinic
loop_
_symmetry_equiv_pos_as_xyz
'x, y, z'
_cell_length_a     34.241576
_cell_length_b     34.365563
_cell_length_c     28.478912
_cell_angle_alpha  90.162136
_cell_angle_beta   89.920673
_cell_angle_gamma 119.95401
loop_
_atom_site_label
_atom_site_type_symbol
_atom_site_fract_x
_atom_site_fract_y
_atom_site_fract_z
_atom_type_partial_charge
Mn0 Mn 0.17586 0.565 0.39997 0.0
Mn1 Mn 0.09931 0.59777 0.42314 0.0
C2 C 0.19941 0.63975 0.41013 0.0
C3 C 0.21314 0.54576 0.34199 0.0
C4 C 0.13997 0.56842 0.49939 0.0
O5 O 0.1167 0.50803 0.38686 0.0
O6 O 0.06994 0.5336 0.40581 0.0
C7 C 0.0671 0.58696 0.32491 0.0
N8 N 0.08587 0.61353 0.36339 0.0
C9 C 0.08971 0.67714 0.32397 0.0
C10 C 0.07061 0.65052 0.2839 0.0
C11 C 0.05934 0.60523 0.28436 0.0
C12 C 0.09764 0.65734 0.36301 0.0
H13 H 0.05799 0.55205 0.32511 0.0
C14 C 0.07749 0.50239 0.3929 0.0
O15 O 0.21079 0.53321 0.38548 0.0
O16 O 0.1932 0.56829 0.33241 0.0
N17 N 0.12076 0.65895 0.4402 0.0
C18 C 0.12954 0.67687 0.48429 0.0
C19 C 0.13819 0.72091 0.49121 0.0
C20 C 0.13515 0.74513 0.4532 0.0
C21 C 0.12329 0.72511 0.40871 0.0
C22 C 0.11551 0.68124 0.40389 0.0
H23 H 0.12985 0.65757 0.51402 0.0
O24 O 0.22781 0.6253 0.41093 0.0
O25 O 0.15797 0.6106 0.39903 0.0
O26 O 0.16388 0.55803 0.47257 0.0
O27 O 0.11458 0.58329 0.48461 0.0
C28 C 0.11621 0.74596 0.36969 0.0
C29 C 0.09995 0.72217 0.32716 0.0
H30 H 0.06393 0.66433 0.2528 0.0
H31 H 0.04434 0.58436 0.25368 0.0
H32 H 0.14596 0.73571 0.52595 0.0
H33 H 0.13977 0.77824 0.45902 0.0
H34 H 0.12203 0.77989 0.37234 0.0
H35 H 0.09407 0.73836 0.2976 0.0
Mn36 Mn 0.60427 0.18285 0.56829 0.0
Mn37 Mn 0.49426 0.11476 0.59432 0.0
C38 C 0.55909 0.21297 0.5835 0.0
C39 C 0.65959 0.21773 0.50868 0.0
C40 C 0.56581 0.14822 0.66876 0.0
O41 O 0.59518 0.12195 0.55052 0.0
O42 O 0.52479 0.08022 0.57794 0.0
C43 C 0.47066 0.0814 0.49646 0.0
N44 N 0.46517 0.10254 0.53435 0.0
C45 C 0.40972 0.11295 0.49331 0.0
C46 C 0.415 0.09152 0.45386 0.0
C47 C 0.44571 0.07577 0.45544 0.0
C48 C 0.43633 0.11857 0.53288 0.0
H49 H 0.49375 0.06873 0.4974 0.0
C50 C 0.56103 0.08436 0.56036 0.0
O51 O 0.67065 0.2128 0.55107 0.0
O52 O 0.61718 0.20224 0.50131 0.0
N53 N 0.45835 0.14128 0.61009 0.0
C54 C 0.45031 0.15226 0.65362 0.0
C55 C 0.41874 0.16662 0.65914 0.0
C56 C 0.39352 0.16662 0.62037 0.0
C57 C 0.3996 0.1516 0.57665 0.0
C58 C 0.43235 0.13867 0.57313 0.0
H59 H 0.46765 0.14967 0.68396 0.0
O60 O 0.60254 0.23776 0.58435 0.0
O61 O 0.54274 0.17144 0.56992 0.0
O62 O 0.5997 0.16667 0.64015 0.0
O63 O 0.52445 0.12927 0.65587 0.0
C64 C 0.37262 0.14646 0.5372 0.0
C65 C 0.3781 0.12771 0.49536 0.0
H66 H 0.39527 0.0865 0.42239 0.0
H67 H 0.44986 0.05897 0.42525 0.0
H68 H 0.41299 0.17648 0.69343 0.0
H69 H 0.36806 0.17611 0.62506 0.0
H70 H 0.34657 0.15547 0.539 0.0
H71 H 0.3568 0.12349 0.46545 0.0
Mn72 Mn 0.42641 0.60818 0.73358 0.0
Mn73 Mn 0.39625 0.49956 0.75456 0.0
C74 C 0.3519 0.55565 0.74343 0.0
C75 C 0.44419 0.66468 0.67653 0.0
C76 C 0.4246 0.56865 0.83199 0.0
O77 O 0.48429 0.60777 0.71996 0.0
O78 O 0.46039 0.53537 0.73584 0.0
C79 C 0.40559 0.47817 0.65579 0.0
N80 N 0.37951 0.4704 0.6947 0.0
C81 C 0.31473 0.41139 0.65541 0.0
C82 C 0.34084 0.41893 0.61488 0.0
C83 C 0.38647 0.45248 0.61509 0.0
C84 C 0.33545 0.43857 0.6947 0.0
H85 H 0.44074 0.5037 0.65574 0.0
C86 C 0.4909 0.57471 0.72368 0.0
O87 O 0.45678 0.67477 0.72009 0.0
O88 O 0.42257 0.62238 0.66632 0.0
N89 N 0.33524 0.45939 0.77251 0.0
C90 C 0.31768 0.45037 0.81673 0.0
C91 C 0.27316 0.41568 0.82371 0.0
C92 C 0.24801 0.3891 0.78555 0.0
C93 C 0.26773 0.39705 0.74089 0.0
C94 C 0.31212 0.43238 0.73606 0.0
H95 H 0.33749 0.46973 0.84645 0.0
O96 O 0.36545 0.59818 0.74491 0.0
O97 O 0.38184 0.5445 0.73179 0.0
O98 O 0.43357 0.60282 0.80593 0.0
O99 O 0.41149 0.52904 0.81636 0.0
C100 C 0.24591 0.36983 0.70158 0.0
C101 C 0.26928 0.37725 0.65874 0.0
H102 H 0.32633 0.39881 0.58359 0.0
H103 H 0.40694 0.45835 0.58405 0.0
H104 H 0.25859 0.40888 0.85855 0.0
H105 H 0.21429 0.36142 0.79136 0.0
H106 H 0.2115 0.3424 0.70418 0.0
H107 H 0.25235 0.3557 0.62894 0.0
Mn108 Mn 0.81821 0.42892 0.90075 0.0
Mn109 Mn 0.89412 0.39514 0.92323 0.0
C110 C 0.79369 0.35428 0.91436 0.0
C111 C 0.78103 0.44705 0.84154 0.0
C112 C 0.85785 0.43009 0.99933 0.0
O113 O 0.87772 0.48484 0.88523 0.0
O114 O 0.92382 0.45783 0.90132 0.0
C115 C 0.9198 0.39752 0.82353 0.0
N116 N 0.90337 0.37425 0.86428 0.0
C117 C 0.89518 0.3069 0.82905 0.0
C118 C 0.91197 0.33011 0.78671 0.0
C119 C 0.92419 0.3756 0.78392 0.0
C120 C 0.89048 0.33021 0.86702 0.0
H121 H 0.92951 0.43255 0.82124 0.0
C122 C 0.9167 0.48927 0.88861 0.0
O123 O 0.78382 0.46112 0.88457 0.0
O124 O 0.79978 0.42315 0.83332 0.0
N125 N 0.87243 0.33523 0.94479 0.0
C126 C 0.86675 0.32107 0.99022 0.0
C127 C 0.85734 0.27731 1.00029 0.0
C128 C 0.85686 0.24954 0.96388 0.0
C129 C 0.86624 0.26593 0.91777 0.0
C130 C 0.87472 0.30969 0.90987 0.0
H131 H 0.86987 0.34328 0.01869 0.0
O132 O 0.76574 0.36928 0.91444 0.0
O133 O 0.83486 0.38244 0.90163 0.0
O134 O 0.83224 0.43866 0.97309 0.0
O135 O 0.88266 0.41466 0.98394 0.0
C136 C 0.87034 0.24167 0.87994 0.0
C137 C 0.88418 0.26193 0.83545 0.0
H138 H 0.91608 0.3135 0.75629 0.0
H139 H 0.93731 0.39382 0.75142 0.0
H140 H 0.85187 0.26552 0.03621 0.0
H141 H 0.85167 0.21663 0.97229 0.0
H142 H 0.86416 0.20784 0.88488 0.0
H143 H 0.88768 0.24309 0.8068 0.0
Mn144 Mn 0.39055 0.81343 0.06977 0.0
Mn145 Mn 0.49989 0.88686 0.09592 0.0
C146 C 0.43943 0.78752 0.08457 0.0
C147 C 0.33625 0.77729 1.00958 0.0
C148 C 0.4266 0.85108 0.16945 0.0
O149 O 0.39583 0.8732 0.05334 0.0
O150 O 0.46823 0.91811 0.07355 0.0
C151 C 0.5266 0.91536 0.99747 0.0
N152 N 0.5318 0.89735 0.03793 0.0
C153 C 0.59241 0.89025 1.00436 0.0
C154 C 0.58767 0.90866 0.96235 0.0
C155 C 0.55448 0.92111 0.95885 0.0
C156 C 0.56289 0.88428 0.04131 0.0
H157 H 0.50146 0.92537 0.99464 0.0
C158 C 0.43038 0.91171 0.05851 0.0
O159 O 0.3243 0.78049 0.05219 0.0
O160 O 0.37902 0.79507 1.00231 0.0
N161 N 0.53655 0.86311 0.1177 0.0
C162 C 0.54188 0.85334 0.16276 0.0
C163 C 0.57519 0.84223 0.17311 0.0
C164 C 0.60435 0.84378 0.13756 0.0
C165 C 0.60023 0.85682 0.09211 0.0
C166 C 0.56582 0.86668 0.08372 0.0
H167 H 0.52068 0.85385 0.1906 0.0
O168 O 0.39626 0.76051 0.08442 0.0
O169 O 0.45343 0.82877 0.07192 0.0
O170 O 0.39308 0.82721 0.14182 0.0
O171 O 0.46756 0.87486 0.15593 0.0
C172 C 0.63044 0.86275 0.0555 0.0
C173 C 0.62611 0.87879 1.01145 0.0
H174 H 0.60962 0.91381 0.93274 0.0
H175 H 0.55066 0.93548 0.92661 0.0
H176 H 0.57903 0.83346 0.20861 0.0
H177 H 0.63093 0.83666 0.14596 0.0
H178 H 0.65789 0.85621 0.06113 0.0
H179 H 0.64972 0.88346 0.9837 0.0
Mn180 Mn 0.57355 0.38854 0.23033 0.0
Mn181 Mn 0.6076 0.49871 0.24685 0.0
C182 C 0.64854 0.43909 0.24151 0.0
C183 C 0.55451 0.33056 0.17423 0.0
C184 C 0.57607 0.43234 0.32701 0.0
O185 O 0.517 0.3908 0.21468 0.0
O186 O 0.54344 0.46408 0.2282 0.0
C187 C 0.60007 0.51549 0.14621 0.0
N188 N 0.62558 0.52467 0.18576 0.0
C189 C 0.692 0.57906 0.14479 0.0
C190 C 0.66646 0.57008 0.10362 0.0
C191 C 0.62029 0.5381 0.10434 0.0
C192 C 0.67018 0.55481 0.18525 0.0
H193 H 0.56456 0.4911 0.14653 0.0
C194 C 0.51191 0.42485 0.21713 0.0
O195 O 0.54111 0.32146 0.21767 0.0
O196 O 0.57783 0.37262 0.16375 0.0
N197 N 0.66884 0.53822 0.26458 0.0
C198 C 0.68572 0.55005 0.30889 0.0
C199 C 0.73076 0.58371 0.31533 0.0
C200 C 0.75711 0.60689 0.27632 0.0
C201 C 0.73795 0.59673 0.23132 0.0
C202 C 0.693 0.56241 0.22713 0.0
H203 H 0.66476 0.53398 0.33913 0.0
O204 O 0.63349 0.39632 0.24373 0.0
O205 O 0.62002 0.4514 0.22787 0.0
O206 O 0.56577 0.39681 0.30228 0.0
O207 O 0.59113 0.4717 0.30962 0.0
C208 C 0.76084 0.62104 0.1909 0.0
C209 C 0.738 0.61188 0.14755 0.0
H210 H 0.68184 0.58786 0.07139 0.0
H211 H 0.60028 0.53106 0.07277 0.0
H212 H 0.74476 0.59256 0.35036 0.0
H213 H 0.79125 0.63396 0.28167 0.0
H214 H 0.79566 0.64766 0.19297 0.0
H215 H 0.75578 0.63119 0.11686 0.0
Mn216 Mn 0.41991 0.81668 0.47181 0.0
Mn217 Mn 0.38017 0.88746 0.44946 0.0
C218 C 0.3446 0.78814 0.45717 0.0
C219 C 0.44021 0.78105 0.53027 0.0
C220 C 0.41855 0.85503 0.37321 0.0
O221 O 0.47342 0.87725 0.48897 0.0
O222 O 0.44375 0.92034 0.47004 0.0
C223 C 0.38366 0.91339 0.54929 0.0
N224 N 0.35957 0.89575 0.5091 0.0
C225 C 0.29147 0.88397 0.54639 0.0
C226 C 0.31554 0.90199 0.58814 0.0
C227 C 0.36182 0.91661 0.58963 0.0
C228 C 0.31481 0.88053 0.50763 0.0
H229 H 0.41926 0.92496 0.55066 0.0
C230 C 0.4762 0.91523 0.48418 0.0
O231 O 0.45535 0.78559 0.4875 0.0
O232 O 0.41417 0.79738 0.5387 0.0
N233 N 0.31897 0.86257 0.42958 0.0
C234 C 0.30321 0.85524 0.38465 0.0
C235 C 0.25811 0.8428 0.37607 0.0
C236 C 0.23052 0.84105 0.4134 0.0
C237 C 0.24841 0.85224 0.45888 0.0
C238 C 0.29341 0.86352 0.46535 0.0
H239 H 0.32514 0.85934 0.35549 0.0
O240 O 0.36221 0.76246 0.45664 0.0
O241 O 0.37067 0.82947 0.47087 0.0
O242 O 0.43005 0.832 0.39989 0.0
O243 O 0.39974 0.87698 0.38811 0.0
C244 C 0.22423 0.85532 0.49744 0.0
C245 C 0.24555 0.87052 0.54133 0.0
H246 H 0.29893 0.90518 0.61911 0.0
H247 H 0.3807 0.93066 0.62167 0.0
H248 H 0.24505 0.83592 0.34059 0.0
H249 H 0.19635 0.83325 0.40632 0.0
H250 H 0.18958 0.84738 0.49351 0.0
H251 H 0.22669 0.87312 0.57057 0.0
Mn252 Mn 0.61328 0.4372 0.63136 0.0
Mn253 Mn 0.50533 0.40722 0.60427 0.0
C254 C 0.56124 0.36334 0.61744 0.0
C255 C 0.66761 0.45263 0.69113 0.0
C256 C 0.57824 0.43759 0.53092 0.0
O257 O 0.61161 0.49408 0.64672 0.0
O258 O 0.54044 0.47066 0.6244 0.0
C259 C 0.47882 0.41541 0.70126 0.0
N260 N 0.47292 0.38991 0.66231 0.0
C261 C 0.40913 0.32615 0.69716 0.0
C262 C 0.41472 0.35165 0.73771 0.0
C263 C 0.4498 0.39647 0.73978 0.0
C264 C 0.43974 0.34655 0.66024 0.0
H265 H 0.50528 0.45002 0.70293 0.0
C266 C 0.57876 0.50072 0.63987 0.0
O267 O 0.67954 0.46699 0.64836 0.0
O268 O 0.62475 0.43069 0.69907 0.0
N269 N 0.46566 0.34678 0.58452 0.0
C270 C 0.45941 0.3299 0.54007 0.0
C271 C 0.42403 0.28627 0.5309 0.0
C272 C 0.39386 0.26143 0.5669 0.0
C273 C 0.39915 0.2805 0.61162 0.0
C274 C 0.43559 0.32384 0.61889 0.0
H275 H 0.48138 0.34961 0.51177 0.0
O276 O 0.60401 0.37713 0.61769 0.0
O277 O 0.54925 0.3924 0.62987 0.0
O278 O 0.61144 0.44703 0.55893 0.0
O279 O 0.53763 0.42316 0.54424 0.0
C280 C 0.3682 0.25917 0.64845 0.0
C281 C 0.37349 0.28179 0.69138 0.0
H282 H 0.39191 0.33736 0.76719 0.0
H283 H 0.45414 0.41653 0.77079 0.0
H284 H 0.41936 0.27225 0.49591 0.0
H285 H 0.36561 0.22854 0.55931 0.0
H286 H 0.3395 0.22581 0.64375 0.0
H287 H 0.34915 0.26523 0.7192 0.0
Mn288 Mn 0.18143 0.60623 0.80146 0.0
Mn289 Mn 0.10641 0.49645 0.78094 0.0
C290 C 0.20674 0.55671 0.78831 0.0
C291 C 0.21944 0.66242 0.85947 0.0
C292 C 0.14139 0.56553 0.70345 0.0
O293 O 0.12199 0.6026 0.81755 0.0
O294 O 0.07591 0.52988 0.80044 0.0
C295 C 0.07981 0.47627 0.88079 0.0
N296 N 0.09725 0.4686 0.8411 0.0
C297 C 0.10856 0.4131 0.88028 0.0
C298 C 0.09081 0.42046 0.92158 0.0
C299 C 0.07643 0.45224 0.92183 0.0
C300 C 0.11189 0.43867 0.8407 0.0
H301 H 0.06855 0.50051 0.88122 0.0
C302 C 0.083 0.56847 0.8133 0.0
O303 O 0.21552 0.67287 0.81649 0.0
O304 O 0.2008 0.62007 0.86845 0.0
N305 N 0.12917 0.4581 0.76212 0.0
C306 C 0.13592 0.44822 0.71754 0.0
C307 C 0.14813 0.4153 0.71017 0.0
C308 C 0.1504 0.39086 0.74842 0.0
C309 C 0.13959 0.39896 0.79355 0.0
C310 C 0.12833 0.43272 0.79873 0.0
H311 H 0.13189 0.46535 0.68781 0.0
O312 O 0.23417 0.5996 0.78725 0.0
O313 O 0.16561 0.54355 0.80171 0.0
O314 O 0.16611 0.60029 0.72939 0.0
O315 O 0.11789 0.52538 0.71918 0.0
C316 C 0.13711 0.37324 0.83308 0.0
C317 C 0.12206 0.38063 0.87654 0.0
H318 H 0.08764 0.40159 0.95315 0.0
H319 H 0.06256 0.45804 0.95351 0.0
H320 H 0.15472 0.40805 0.67498 0.0
H321 H 0.15831 0.36448 0.74233 0.0
H322 H 0.14552 0.34686 0.83023 0.0
H323 H 0.11976 0.36026 0.90651 0.0
Mn324 Mn 0.57737 0.17522 0.97194 0.0
Mn325 Mn 0.61642 0.10389 0.9512 0.0
C326 C 0.65272 0.20281 0.96099 0.0
C327 C 0.55602 0.21136 0.02921 0.0
C328 C 0.5844 0.13964 0.87264 0.0
O329 O 0.52311 0.11546 0.98738 0.0
O330 O 0.5506 0.0714 0.96444 0.0
C331 C 0.60124 0.07138 0.04958 0.0
N332 N 0.62977 0.09105 1.01265 0.0
C333 C 0.6925 0.09792 0.05739 0.0
C334 C 0.66379 0.07795 0.09585 0.0
C335 C 0.61796 0.0647 0.09193 0.0
C336 C 0.67409 0.10465 1.01637 0.0
H337 H 0.56593 0.06069 0.04689 0.0
C338 C 0.51858 0.07719 0.97916 0.0
O339 O 0.54234 0.20726 0.98589 0.0
O340 O 0.58115 0.19431 0.0388 0.0
N341 N 0.67944 0.12824 0.93888 0.0
C342 C 0.70088 0.13979 0.89662 0.0
C343 C 0.74596 0.15029 0.89321 0.0
C344 C 0.76814 0.14702 0.93301 0.0
C345 C 0.74525 0.13374 0.97592 0.0
C346 C 0.70022 0.12362 0.97709 0.0
H347 H 0.6838 0.14133 0.86578 0.0
O348 O 0.63558 0.22885 0.9587 0.0
O349 O 0.62587 0.16147 0.97406 0.0
O350 O 0.56941 0.15969 0.89972 0.0
O351 O 0.6041 0.11877 0.8881 0.0
C352 C 0.76467 0.12785 1.01691 0.0
C353 C 0.73843 0.11043 0.05781 0.0
H354 H 0.67647 0.07219 0.12838 0.0
H355 H 0.59547 0.04906 0.12136 0.0
H356 H 0.76323 0.15991 0.85977 0.0
H357 H 0.80217 0.15304 0.92981 0.0
H358 H 0.79954 0.13583 1.0171 0.0
H359 H 0.75359 0.1056 0.089 0.0
Mn360 Mn 0.38606 0.56328 0.13529 0.0
Mn361 Mn 0.4959 0.59816 0.11277 0.0
C362 C 0.4359 0.63812 0.12381 0.0
C363 C 0.33018 0.54409 0.19392 0.0
C364 C 0.42585 0.56675 0.03598 0.0
O365 O 0.38962 0.50726 0.14932 0.0
O366 O 0.46202 0.53398 0.12984 0.0
C367 C 0.51682 0.5882 0.21139 0.0
N368 N 0.52448 0.61458 0.17294 0.0
C369 C 0.58246 0.67914 0.21336 0.0
C370 C 0.57511 0.65269 0.25339 0.0
C371 C 0.54204 0.60703 0.25242 0.0
C372 C 0.55553 0.65875 0.17382 0.0
H373 H 0.49174 0.55304 0.21085 0.0
C374 C 0.42361 0.50237 0.14303 0.0
O375 O 0.31928 0.53071 0.15065 0.0
O376 O 0.37276 0.56757 0.20273 0.0
N377 N 0.53494 0.65958 0.09611 0.0
C378 C 0.54479 0.6774 0.05211 0.0
C379 C 0.57885 0.72218 0.0459 0.0
C380 C 0.6046 0.74717 0.08455 0.0
C381 C 0.59656 0.72696 0.12884 0.0
C382 C 0.56143 0.68249 0.13299 0.0
H383 H 0.52693 0.65734 0.02189 0.0
O384 O 0.39286 0.62275 0.1232 0.0
O385 O 0.44915 0.60999 0.13585 0.0
O386 O 0.39122 0.55543 0.06271 0.0
O387 O 0.46632 0.58292 0.05111 0.0
C388 C 0.62383 0.74828 0.16828 0.0
C389 C 0.61641 0.72456 0.2107 0.0
H390 H 0.59502 0.66696 0.28486 0.0
H391 H 0.53626 0.58631 0.28308 0.0
H392 H 0.58611 0.73695 1.01121 0.0
H393 H 0.63203 0.78101 0.07939 0.0
H394 H 0.65153 0.78247 0.16603 0.0
H395 H 0.63796 0.74116 0.24059 0.0
Mn396 Mn 0.81599 0.38846 0.30143 0.0
Mn397 Mn 0.89411 0.49746 0.28098 0.0
C398 C 0.79355 0.44041 0.29016 0.0
C399 C 0.77728 0.33241 0.3593 0.0
C400 C 0.85584 0.42807 0.20347 0.0
O401 O 0.8745 0.38963 0.31599 0.0
O402 O 0.92258 0.46262 0.302 0.0
C403 C 0.92112 0.51955 0.38058 0.0
N404 N 0.90426 0.52698 0.34042 0.0
C405 C 0.89636 0.58569 0.37741 0.0
C406 C 0.9135 0.57857 0.41919 0.0
C407 C 0.92588 0.5453 0.42077 0.0
C408 C 0.89161 0.55842 0.33872 0.0
H409 H 0.93091 0.49421 0.38197 0.0
C410 C 0.914 0.4233 0.31372 0.0
O411 O 0.77999 0.32185 0.31594 0.0
O412 O 0.79749 0.37482 0.36874 0.0
N413 N 0.87305 0.53672 0.26072 0.0
C414 C 0.86551 0.54497 0.21583 0.0
C415 C 0.85558 0.57927 0.20713 0.0
C416 C 0.85576 0.6062 0.24434 0.0
C417 C 0.86631 0.59891 0.28983 0.0
C418 C 0.87565 0.564 0.29635 0.0
H419 H 0.86693 0.52537 0.18685 0.0
O420 O 0.7647 0.3978 0.28907 0.0
O421 O 0.83452 0.45192 0.30245 0.0
O422 O 0.82959 0.3938 0.22906 0.0
O423 O 0.882 0.46757 0.21961 0.0
C424 C 0.87018 0.62635 0.32845 0.0
C425 C 0.88478 0.61945 0.37234 0.0
H426 H 0.91771 0.59873 0.45011 0.0
H427 H 0.9393 0.5397 0.45281 0.0
H428 H 0.8487 0.58553 0.17172 0.0
H429 H 0.84968 0.63361 0.23717 0.0
H430 H 0.86299 0.65349 0.32456 0.0
H431 H 0.88813 0.64109 0.40162 0.0
C432 C 0.22724 0.70158 0.46643 0.0
C433 C 0.21722 0.68753 0.4194 0.0
C434 C 0.26561 0.74226 0.4783 0.0
C435 C 0.29721 0.76791 0.44376 0.0
H436 H 0.20913 0.67828 0.49455 0.0
H437 H 0.27442 0.74928 0.51512 0.0
S438 S 0.28512 0.74672 0.31545 0.0
N439 N 0.23793 0.70595 0.3379 0.0
N440 N 0.3147 0.77759 0.36055 0.0
C441 C 0.28572 0.75612 0.39646 0.0
C442 C 0.24445 0.71701 0.38424 0.0
C443 C 0.52609 0.25762 0.55679 0.0
C444 C 0.53273 0.2348 0.59386 0.0
C445 C 0.52711 0.2983 0.56507 0.0
C446 C 0.53086 0.31521 0.6109 0.0
H447 H 0.52804 0.24836 0.5208 0.0
H448 H 0.53188 0.31955 0.53515 0.0
S449 S 0.54166 0.26429 0.72014 0.0
N450 N 0.5415 0.23125 0.67787 0.0
N451 N 0.53332 0.30225 0.69388 0.0
C452 C 0.52906 0.28828 0.64849 0.0
C453 C 0.53289 0.24952 0.63991 0.0
C454 C 0.24949 0.5205 0.81026 0.0
C455 C 0.22491 0.52765 0.7754 0.0
C456 C 0.28951 0.52103 0.79882 0.0
C457 C 0.30399 0.52487 0.75195 0.0
H458 H 0.2425 0.52283 0.84699 0.0
H459 H 0.3124 0.52557 0.82722 0.0
S460 S 0.24629 0.53453 0.64723 0.0
N461 N 0.21583 0.53495 0.69198 0.0
N462 N 0.28602 0.52666 0.67023 0.0
C463 C 0.27484 0.52295 0.71649 0.0
C464 C 0.23653 0.52688 0.72822 0.0
C465 C 0.7531 0.27495 0.89331 0.0
C466 C 0.7764 0.3075 0.92791 0.0
C467 C 0.71483 0.23425 0.90513 0.0
C468 C 0.70104 0.22346 0.95215 0.0
H469 H 0.75961 0.28388 0.85651 0.0
H470 H 0.69244 0.21442 0.87695 0.0
S471 S 0.75557 0.29391 0.05618 0.0
N472 N 0.78451 0.32518 1.01112 0.0
N473 N 0.71821 0.24497 0.03367 0.0
C474 C 0.72907 0.25234 0.98735 0.0
C475 C 0.76529 0.29554 0.97519 0.0
C476 C 0.47075 0.75549 0.13912 0.0
C477 C 0.46801 0.76781 0.09274 0.0
C478 C 0.47153 0.71599 0.14882 0.0
C479 C 0.46504 0.68559 0.11265 0.0
H480 H 0.46567 0.77281 0.16825 0.0
H481 H 0.46876 0.70553 0.18513 0.0
S482 S 0.45923 0.70396 0.98522 0.0
N483 N 0.46692 0.75066 1.01021 0.0
N484 N 0.4583 0.67178 0.02862 0.0
C485 C 0.46611 0.69933 0.06602 0.0
C486 C 0.47011 0.74174 0.05609 0.0
C487 C 0.76651 0.4735 0.23229 0.0
C488 C 0.77674 0.47098 0.2796 0.0
C489 C 0.72749 0.47448 0.21982 0.0
C490 C 0.69574 0.46886 0.25416 0.0
H491 H 0.78485 0.46779 0.20464 0.0
H492 H 0.71837 0.47109 0.18298 0.0
S493 S 0.70987 0.46644 0.38302 0.0
N494 N 0.75716 0.47257 0.36083 0.0
N495 N 0.6793 0.46487 0.33754 0.0
C496 C 0.70797 0.47115 0.30162 0.0
C497 C 0.74983 0.4747 0.31423 0.0
C498 C 0.18129 0.5936 0.62584 0.0
C499 C 0.14095 0.56961 0.65154 0.0
C500 C 0.18152 0.591 0.57634 0.0
C501 C 0.14136 0.56469 0.55105 0.0
H502 H 0.21297 0.61344 0.64412 0.0
H503 H 0.21303 0.61057 0.55772 0.0
S504 S 0.02684 0.49712 0.60137 0.0
N505 N 0.05988 0.51945 0.64751 0.0
N506 N 0.06037 0.51553 0.55516 0.0
C507 C 0.10095 0.54127 0.57633 0.0
C508 C 0.10073 0.54348 0.62633 0.0
C509 C 0.54943 0.16008 0.75186 0.0
C510 C 0.57358 0.1484 0.72013 0.0
C511 C 0.5536 0.15787 0.80072 0.0
C512 C 0.58033 0.14156 0.82026 0.0
H513 H 0.52667 0.17073 0.73902 0.0
H514 H 0.53483 0.16814 0.82325 0.0
S515 S 0.6448 0.09956 0.75147 0.0
N516 N 0.62287 0.11739 0.71118 0.0
N517 N 0.62764 0.10869 0.80236 0.0
C518 C 0.60295 0.12756 0.78847 0.0
C519 C 0.60033 0.13203 0.73872 0.0
C520 C 0.44976 0.55389 0.95759 0.0
C521 C 0.42135 0.56434 0.98399 0.0
C522 C 0.45201 0.55742 0.90855 0.0
C523 C 0.42702 0.57289 0.88375 0.0
H524 H 0.47064 0.54288 0.97508 0.0
H525 H 0.47336 0.54768 0.88976 0.0
S526 S 0.34677 0.60386 0.93537 0.0
N527 N 0.36669 0.58983 0.98118 0.0
N528 N 0.37187 0.59751 0.88874 0.0
C529 C 0.3984 0.58348 0.90938 0.0
C530 C 0.39524 0.57884 0.95951 0.0
C531 C 0.81549 0.41055 0.12578 0.0
C532 C 0.85546 0.42454 0.15155 0.0
C533 C 0.81642 0.41537 0.07646 0.0
C534 C 0.85731 0.43393 0.05132 0.0
H535 H 0.78352 0.39694 0.14394 0.0
H536 H 0.78488 0.40316 0.05779 0.0
S537 S 0.97123 0.47731 0.10279 0.0
N538 N 0.93691 0.45918 0.1484 0.0
N539 N 0.93868 0.46742 0.05642 0.0
C540 C 0.89735 0.44842 0.07701 0.0
C541 C 0.89641 0.44389 0.12683 0.0
C542 C 0.40797 0.81221 0.24748 0.0
C543 C 0.41973 0.85095 0.22076 0.0
C544 C 0.40998 0.81398 0.297 0.0
C545 C 0.42342 0.85448 0.32136 0.0
H546 H 0.39845 0.78067 0.22998 0.0
H547 H 0.3999 0.78328 0.31632 0.0
S548 S 0.4591 0.96544 0.26721 0.0
N549 N 0.44681 0.93098 0.22208 0.0
N550 N 0.44939 0.93426 0.31455 0.0
C551 C 0.43532 0.89332 0.29476 0.0
C552 C 0.43383 0.89158 0.24467 0.0
C553 C 0.56736 0.46188 0.40415 0.0
C554 C 0.57477 0.43057 0.37929 0.0
C555 C 0.57146 0.46588 0.45313 0.0
C556 C 0.58447 0.43976 0.47944 0.0
H557 H 0.55803 0.48349 0.38555 0.0
H558 H 0.56358 0.48913 0.47074 0.0
S559 S 0.60781 0.35271 0.43237 0.0
N560 N 0.59539 0.37252 0.38535 0.0
N561 N 0.60399 0.38089 0.47759 0.0
C562 C 0.59234 0.40853 0.45537 0.0
C563 C 0.58717 0.40365 0.40534 0.0
C564 C 0.99091 0.4353 0.3058 0.0
C565 C 0.95192 0.42031 0.33331 0.0
C566 C 0.03356 0.45498 0.32683 0.0
C567 C 0.03805 0.46143 0.37568 0.0
H568 H 0.98886 0.43683 0.26794 0.0
H569 H 0.06303 0.47125 0.30441 0.0
S570 S 0.94583 0.41939 0.463 0.0
N571 N 0.91987 0.40509 0.41169 0.0
N572 N 0.00028 0.44418 0.45118 0.0
C573 C -0.00087 0.4408 0.40359 0.0
C574 C 0.95576 0.41968 0.38226 0.0
C575 C 0.51913 0.96154 0.55158 0.0
C576 C 0.51536 0.95569 0.50265 0.0
C577 C 0.53976 0.00471 0.57124 0.0
C578 C 0.55829 0.04297 0.54242 0.0
H579 H 0.50103 0.93291 0.57459 0.0
H580 H 0.53721 0.00808 0.6088 0.0
S581 S 0.56462 0.0449 0.41259 0.0
N582 N 0.53688 0.99099 0.42615 0.0
N583 N 0.57789 0.07229 0.4631 0.0
C584 C 0.56031 0.0374 0.4938 0.0
C585 C 0.53816 0.99352 0.4738 0.0
C586 C 0.55516 0.5614 0.73113 0.0
C587 C 0.5323 0.57818 0.70452 0.0
C588 C 0.57939 0.54356 0.70903 0.0
C589 C 0.57972 0.54057 0.65982 0.0
H590 H 0.54993 0.55724 0.76874 0.0
H591 H 0.59169 0.52589 0.73039 0.0
S592 S 0.53329 0.58845 0.5752 0.0
N593 N 0.51908 0.59887 0.62722 0.0
N594 N 0.56259 0.56308 0.58557 0.0
C595 C 0.56254 0.56299 0.63329 0.0
C596 C 0.53908 0.58233 0.6558 0.0
C597 C 0.00511 0.55302 0.80201 0.0
C598 C 0.04352 0.57001 0.83081 0.0
C599 C 0.9619 0.53357 0.82171 0.0
C600 C 0.95622 0.52958 0.87063 0.0
H601 H 0.00817 0.55003 0.76447 0.0
H602 H 0.93302 0.51587 0.79873 0.0
S603 S 0.04625 0.57658 0.96051 0.0
N604 N 0.07351 0.58893 0.90994 0.0
N605 N 0.99209 0.55058 0.94706 0.0
C606 C 0.99442 0.55185 0.8994 0.0
C607 C 0.03837 0.57256 0.87935 0.0
C608 C 0.45855 -0.0019 0.96862 0.0
C609 C 0.47832 0.03705 0.99655 0.0
C610 C 0.43447 0.95556 0.98923 0.0
C611 C 0.4311 0.95111 0.0383 0.0
H612 H 0.46574 0.0003 0.93135 0.0
H613 H 0.42419 0.92625 0.9672 0.0
S614 S 0.46983 0.04282 0.12573 0.0
N615 N 0.48604 0.06875 0.07466 0.0
N616 N 0.44303 0.98854 0.11356 0.0
C617 C 0.44576 0.98975 0.06592 0.0
C618 C 0.46896 0.03301 0.04488 0.0
C619 C 0.42352 0.45648 0.20873 0.0
C620 C 0.42307 0.46187 0.1599 0.0
C621 C 0.44768 0.4375 0.2283 0.0
C622 C 0.47047 0.42209 0.19941 0.0
H623 H 0.41121 0.47302 0.23197 0.0
H624 H 0.45297 0.43974 0.26595 0.0
S625 S 0.46946 0.41848 0.06962 0.0
N626 N 0.44021 0.44329 0.08324 0.0
N627 N 0.48368 0.40541 0.12009 0.0
C628 C 0.46374 0.4205 0.15075 0.0
C629 C 0.44028 0.44094 0.13086 0.0
C630 C 0.22955 0.53919 0.25703 0.0
C631 C 0.23952 0.53799 0.30494 0.0
C632 C 0.25723 0.53798 0.22101 0.0
C633 C 0.29665 0.53661 0.23145 0.0
H634 H 0.20067 0.54228 0.2472 0.0
H635 H 0.249 0.54064 0.18489 0.0
S636 S 0.33647 0.52975 0.35076 0.0
N637 N 0.29014 0.53213 0.36041 0.0
N638 N 0.34269 0.53121 0.29315 0.0
C639 C 0.30606 0.53364 0.27909 0.0
C640 C 0.27738 0.53392 0.31568 0.0
C641 C 0.76168 0.30964 0.44426 0.0
C642 C 0.75046 0.29883 0.39644 0.0
C643 C 0.73382 0.2817 0.48059 0.0
C644 C 0.69295 0.24234 0.47061 0.0
H645 H 0.79178 0.34066 0.45378 0.0
H646 H 0.74315 0.29234 0.51667 0.0
S647 S 0.64918 0.1971 0.35165 0.0
N648 N 0.69688 0.24414 0.34149 0.0
N649 N 0.64398 0.19257 0.40935 0.0
C650 C 0.68215 0.23029 0.42303 0.0
C651 C 0.71102 0.2582 0.38609 0.0
C652 C 0.45117 0.68868 0.59208 0.0
C653 C 0.45067 0.69865 0.64015 0.0
C654 C 0.45091 0.71702 0.55652 0.0
C655 C 0.44896 0.75593 0.56758 0.0
H656 H 0.45058 0.65802 0.58177 0.0
H657 H 0.44973 0.70706 0.5202 0.0
S658 S 0.45006 0.79894 0.68767 0.0
N659 N 0.45123 0.75206 0.69654 0.0
N660 N 0.44932 0.8044 0.63012 0.0
C661 C 0.45014 0.76716 0.61543 0.0
C662 C 0.45142 0.73884 0.65158 0.0
C663 C 0.71538 0.45479 0.81319 0.0
C664 C 0.75589 0.4552 0.80349 0.0
C665 C 0.68788 0.45546 0.77669 0.0
C666 C 0.70024 0.45778 0.72898 0.0
H667 H 0.7037 0.45168 0.84909 0.0
H668 H 0.65611 0.45319 0.78594 0.0
S669 S 0.8051 0.46366 0.68506 0.0
N670 N 0.80816 0.46043 0.74267 0.0
N671 N 0.75743 0.46318 0.67461 0.0
C672 C 0.74183 0.46061 0.71904 0.0
C673 C 0.76931 0.45889 0.75609 0.0
C674 C 0.2624 0.71312 0.98087 0.0
C675 C 0.30344 0.75233 0.97113 0.0
C676 C 0.2346 0.68527 0.9444 0.0
C677 C 0.24602 0.69607 0.89668 0.0
H678 H 0.25282 0.70257 1.01688 0.0
H679 H 0.20437 0.65433 0.95373 0.0
S680 S 0.34785 0.79724 0.85237 0.0
N681 N 0.35286 0.80186 0.91009 0.0
N682 N 0.29999 0.75039 0.84198 0.0
C683 C 0.28566 0.7365 0.88651 0.0
C684 C 0.3145 0.76432 0.9236 0.0
C685 C 0.54777 0.30595 0.08993 0.0
C686 C 0.54681 0.29577 0.1381 0.0
C687 C 0.54737 0.27694 0.05458 0.0
C688 C 0.5471 0.23703 0.06596 0.0
H689 H 0.55018 0.33734 0.07938 0.0
H690 H 0.54996 0.28717 0.01823 0.0
S691 S 0.54097 0.19285 0.18629 0.0
N692 N 0.54211 0.24099 0.19483 0.0
N693 N 0.54272 0.18727 0.12882 0.0
C694 C 0.54419 0.2255 0.11386 0.0
C695 C 0.54363 0.25458 0.14979 0.0
loop_
_geom_bond_atom_site_label_1
_geom_bond_atom_site_label_2
_geom_bond_distance
_geom_bond_site_symmetry_2
_ccdc_geom_bond_type
Mn0 O5 2.095 . S
Mn0 O15 2.162 . S
Mn0 O16 2.297 . S
Mn0 O24 2.385 . S
Mn0 O25 2.209 . S
Mn0 O26 2.094 . S
Mn1 O6 2.121 . S
Mn1 N8 2.257 . S
Mn1 N17 2.282 . S
Mn1 O25 2.215 . S
Mn1 O27 2.117 . S
C2 O24 1.234 . S
C2 O25 1.283 . S
C3 O15 1.281 . S
C3 O16 1.236 . S
C4 O26 1.240 . S
C4 O27 1.264 . S
O5 Mn0 2.095 . S
O5 C14 1.250 . S
O6 Mn1 2.121 . S
O6 C14 1.258 . S
C7 N8 1.326 . S
C7 C11 1.460 . S
C7 H13 0.929 . S
N8 Mn1 2.257 . S
N8 C7 1.326 . S
N8 C12 1.362 . S
C9 C10 1.258 . S
C9 C12 1.431 . S
C9 C29 1.449 . S
C10 C9 1.258 . S
C10 C11 1.477 . S
C10 H30 0.931 . S
C11 C7 1.460 . S
C11 C10 1.477 . S
C11 H31 0.930 . S
C12 N8 1.362 . S
C12 C9 1.431 . S
C12 C22 1.476 . S
H13 C7 0.929 . S
C14 O5 1.250 . S
C14 O6 1.258 . S
O15 Mn0 2.162 . S
O15 C3 1.281 . S
O16 Mn0 2.297 . S
O16 C3 1.236 . S
N17 Mn1 2.282 . S
N17 C18 1.328 . S
N17 C22 1.318 . S
C18 N17 1.328 . S
C18 C19 1.457 . S
C18 H23 0.929 . S
C19 C18 1.457 . S
C19 C20 1.291 . S
C19 H32 0.931 . S
C20 C19 1.291 . S
C20 C21 1.373 . S
C20 H33 0.929 . S
C21 C20 1.373 . S
C21 C22 1.396 . S
C21 C28 1.403 . S
C22 C12 1.476 . S
C22 N17 1.318 . S
C22 C21 1.396 . S
H23 C18 0.929 . S
O24 Mn0 2.385 . S
O24 C2 1.234 . S
O25 Mn0 2.209 . S
O25 Mn1 2.215 . S
O25 C2 1.283 . S
O26 Mn0 2.094 . S
O26 C4 1.240 . S
O27 Mn1 2.117 . S
O27 C4 1.264 . S
C28 C21 1.403 . S
C28 C29 1.399 . S
C28 H34 0.929 . S
C29 C9 1.449 . S
C29 C28 1.399 . S
C29 H35 0.930 . S
H30 C10 0.931 . S
H31 C11 0.930 . S
H32 C19 0.931 . S
H33 C20 0.929 . S
H34 C28 0.929 . S
H35 C29 0.930 . S
Mn36 O41 2.095 . S
Mn36 O51 2.162 . S
Mn36 O52 2.297 . S
Mn36 O60 2.385 . S
Mn36 O61 2.209 . S
Mn36 O62 2.094 . S
Mn37 O42 2.121 . S
Mn37 N44 2.257 . S
Mn37 N53 2.282 . S
Mn37 O61 2.215 . S
Mn37 O63 2.117 . S
C38 O60 1.234 . S
C38 O61 1.283 . S
C39 O51 1.281 . S
C39 O52 1.236 . S
C40 O62 1.240 . S
C40 O63 1.264 . S
O41 Mn36 2.095 . S
O41 C50 1.250 . S
O42 Mn37 2.121 . S
O42 C50 1.258 . S
C43 N44 1.326 . S
C43 C47 1.460 . S
C43 H49 0.929 . S
N44 Mn37 2.257 . S
N44 C43 1.326 . S
N44 C48 1.362 . S
C45 C46 1.258 . S
C45 C48 1.431 . S
C45 C65 1.449 . S
C46 C45 1.258 . S
C46 C47 1.477 . S
C46 H66 0.931 . S
C47 C43 1.460 . S
C47 C46 1.477 . S
C47 H67 0.930 . S
C48 N44 1.362 . S
C48 C45 1.431 . S
C48 C58 1.476 . S
H49 C43 0.929 . S
C50 O41 1.250 . S
C50 O42 1.258 . S
O51 Mn36 2.162 . S
O51 C39 1.281 . S
O52 Mn36 2.297 . S
O52 C39 1.236 . S
N53 Mn37 2.282 . S
N53 C54 1.328 . S
N53 C58 1.318 . S
C54 N53 1.328 . S
C54 C55 1.457 . S
C54 H59 0.929 . S
C55 C54 1.457 . S
C55 C56 1.291 . S
C55 H68 0.931 . S
C56 C55 1.291 . S
C56 C57 1.373 . S
C56 H69 0.929 . S
C57 C56 1.373 . S
C57 C58 1.396 . S
C57 C64 1.403 . S
C58 C48 1.476 . S
C58 N53 1.318 . S
C58 C57 1.396 . S
H59 C54 0.929 . S
O60 Mn36 2.385 . S
O60 C38 1.234 . S
O61 Mn36 2.209 . S
O61 Mn37 2.215 . S
O61 C38 1.283 . S
O62 Mn36 2.094 . S
O62 C40 1.240 . S
O63 Mn37 2.117 . S
O63 C40 1.264 . S
C64 C57 1.403 . S
C64 C65 1.399 . S
C64 H70 0.929 . S
C65 C45 1.449 . S
C65 C64 1.399 . S
C65 H71 0.930 . S
H66 C46 0.931 . S
H67 C47 0.930 . S
H68 C55 0.931 . S
H69 C56 0.929 . S
H70 C64 0.929 . S
H71 C65 0.930 . S
Mn72 O77 2.095 . S
Mn72 O87 2.162 . S
Mn72 O88 2.297 . S
Mn72 O96 2.385 . S
Mn72 O97 2.209 . S
Mn72 O98 2.094 . S
Mn73 O78 2.121 . S
Mn73 N80 2.257 . S
Mn73 N89 2.282 . S
Mn73 O97 2.215 . S
Mn73 O99 2.117 . S
C74 O96 1.234 . S
C74 O97 1.283 . S
C75 O87 1.281 . S
C75 O88 1.236 . S
C76 O98 1.240 . S
C76 O99 1.264 . S
O77 Mn72 2.095 . S
O77 C86 1.250 . S
O78 Mn73 2.121 . S
O78 C86 1.258 . S
C79 N80 1.326 . S
C79 C83 1.460 . S
C79 H85 0.929 . S
N80 Mn73 2.257 . S
N80 C79 1.326 . S
N80 C84 1.362 . S
C81 C82 1.258 . S
C81 C84 1.431 . S
C81 C101 1.449 . S
C82 C81 1.258 . S
C82 C83 1.477 . S
C82 H102 0.931 . S
C83 C79 1.460 . S
C83 C82 1.477 . S
C83 H103 0.930 . S
C84 N80 1.362 . S
C84 C81 1.431 . S
C84 C94 1.476 . S
H85 C79 0.929 . S
C86 O77 1.250 . S
C86 O78 1.258 . S
O87 Mn72 2.162 . S
O87 C75 1.281 . S
O88 Mn72 2.297 . S
O88 C75 1.236 . S
N89 Mn73 2.282 . S
N89 C90 1.328 . S
N89 C94 1.318 . S
C90 N89 1.328 . S
C90 C91 1.457 . S
C90 H95 0.929 . S
C91 C90 1.457 . S
C91 C92 1.291 . S
C91 H104 0.931 . S
C92 C91 1.291 . S
C92 C93 1.373 . S
C92 H105 0.929 . S
C93 C92 1.373 . S
C93 C94 1.396 . S
C93 C100 1.403 . S
C94 C84 1.476 . S
C94 N89 1.318 . S
C94 C93 1.396 . S
H95 C90 0.929 . S
O96 Mn72 2.385 . S
O96 C74 1.234 . S
O97 Mn72 2.209 . S
O97 Mn73 2.215 . S
O97 C74 1.283 . S
O98 Mn72 2.094 . S
O98 C76 1.240 . S
O99 Mn73 2.117 . S
O99 C76 1.264 . S
C100 C93 1.403 . S
C100 C101 1.399 . S
C100 H106 0.929 . S
C101 C81 1.449 . S
C101 C100 1.399 . S
C101 H107 0.930 . S
H102 C82 0.931 . S
H103 C83 0.930 . S
H104 C91 0.931 . S
H105 C92 0.929 . S
H106 C100 0.929 . S
H107 C101 0.930 . S
Mn108 O113 2.095 . S
Mn108 O123 2.162 . S
Mn108 O124 2.297 . S
Mn108 O132 2.385 . S
Mn108 O133 2.209 . S
Mn108 O134 2.094 . S
Mn109 O114 2.121 . S
Mn109 N116 2.257 . S
Mn109 N125 2.282 . S
Mn109 O133 2.215 . S
Mn109 O135 2.117 . S
C110 O132 1.234 . S
C110 O133 1.283 . S
C111 O123 1.281 . S
C111 O124 1.236 . S
C112 O134 1.240 . S
C112 O135 1.264 . S
O113 Mn108 2.095 . S
O113 C122 1.250 . S
O114 Mn109 2.121 . S
O114 C122 1.258 . S
C115 N116 1.326 . S
C115 C119 1.460 . S
C115 H121 0.929 . S
N116 Mn109 2.257 . S
N116 C115 1.326 . S
N116 C120 1.362 . S
C117 C118 1.258 . S
C117 C120 1.431 . S
C117 C137 1.449 . S
C118 C117 1.258 . S
C118 C119 1.477 . S
C118 H138 0.931 . S
C119 C115 1.460 . S
C119 C118 1.477 . S
C119 H139 0.930 . S
C120 N116 1.362 . S
C120 C117 1.431 . S
C120 C130 1.476 . S
H121 C115 0.929 . S
C122 O113 1.250 . S
C122 O114 1.258 . S
O123 Mn108 2.162 . S
O123 C111 1.281 . S
O124 Mn108 2.297 . S
O124 C111 1.236 . S
N125 Mn109 2.282 . S
N125 C126 1.328 1_556 S
N125 C130 1.318 . S
C126 N125 1.328 1_554 S
C126 C127 1.457 . S
C126 H131 0.929 . S
C127 C126 1.457 . S
C127 C128 1.291 . S
C127 H140 0.931 . S
C128 C127 1.291 . S
C128 C129 1.373 1_554 S
C128 H141 0.929 . S
C129 C128 1.373 1_556 S
C129 C130 1.396 . S
C129 C136 1.403 . S
C130 C120 1.476 . S
C130 N125 1.318 . S
C130 C129 1.396 . S
H131 C126 0.929 . S
O132 Mn108 2.385 . S
O132 C110 1.234 . S
O133 Mn108 2.209 . S
O133 Mn109 2.215 . S
O133 C110 1.283 . S
O134 Mn108 2.094 . S
O134 C112 1.240 . S
O135 Mn109 2.117 . S
O135 C112 1.264 . S
C136 C129 1.403 . S
C136 C137 1.399 . S
C136 H142 0.929 . S
C137 C117 1.449 . S
C137 C136 1.399 . S
C137 H143 0.930 . S
H138 C118 0.931 . S
H139 C119 0.930 . S
H140 C127 0.931 . S
H141 C128 0.929 . S
H142 C136 0.929 . S
H143 C137 0.930 . S
Mn144 O149 2.095 . S
Mn144 O159 2.162 . S
Mn144 O160 2.297 1_554 S
Mn144 O168 2.385 . S
Mn144 O169 2.209 . S
Mn144 O170 2.094 . S
Mn145 O150 2.121 . S
Mn145 N152 2.257 . S
Mn145 N161 2.282 . S
Mn145 O169 2.215 . S
Mn145 O171 2.117 . S
C146 O168 1.234 . S
C146 O169 1.283 . S
C147 O159 1.281 1_556 S
C147 O160 1.236 . S
C148 O170 1.240 . S
C148 O171 1.264 . S
O149 Mn144 2.095 . S
O149 C158 1.250 . S
O150 Mn145 2.121 . S
O150 C158 1.258 . S
C151 N152 1.326 . S
C151 C155 1.460 . S
C151 H157 0.929 . S
N152 Mn145 2.257 . S
N152 C151 1.326 . S
N152 C156 1.362 . S
C153 C154 1.258 . S
C153 C156 1.431 . S
C153 C173 1.449 . S
C154 C153 1.258 . S
C154 C155 1.477 . S
C154 H174 0.931 . S
C155 C151 1.460 . S
C155 C154 1.477 . S
C155 H175 0.930 . S
C156 N152 1.362 . S
C156 C153 1.431 . S
C156 C166 1.476 . S
H157 C151 0.929 . S
C158 O149 1.250 . S
C158 O150 1.258 . S
O159 Mn144 2.162 . S
O159 C147 1.281 1_554 S
O160 Mn144 2.297 1_556 S
O160 C147 1.236 . S
N161 Mn145 2.282 . S
N161 C162 1.328 . S
N161 C166 1.318 . S
C162 N161 1.328 . S
C162 C163 1.457 . S
C162 H167 0.929 . S
C163 C162 1.457 . S
C163 C164 1.291 . S
C163 H176 0.931 . S
C164 C163 1.291 . S
C164 C165 1.373 . S
C164 H177 0.929 . S
C165 C164 1.373 . S
C165 C166 1.396 . S
C165 C172 1.403 . S
C166 C156 1.476 . S
C166 N161 1.318 . S
C166 C165 1.396 . S
H167 C162 0.929 . S
O168 Mn144 2.385 . S
O168 C146 1.234 . S
O169 Mn144 2.209 . S
O169 Mn145 2.215 . S
O169 C146 1.283 . S
O170 Mn144 2.094 . S
O170 C148 1.240 . S
O171 Mn145 2.117 . S
O171 C148 1.264 . S
C172 C165 1.403 . S
C172 C173 1.399 . S
C172 H178 0.929 . S
C173 C153 1.449 . S
C173 C172 1.399 . S
C173 H179 0.930 . S
H174 C154 0.931 . S
H175 C155 0.930 . S
H176 C163 0.931 . S
H177 C164 0.929 . S
H178 C172 0.929 . S
H179 C173 0.930 . S
Mn180 O185 2.095 . S
Mn180 O195 2.162 . S
Mn180 O196 2.297 . S
Mn180 O204 2.385 . S
Mn180 O205 2.209 . S
Mn180 O206 2.094 . S
Mn181 O186 2.121 . S
Mn181 N188 2.257 . S
Mn181 N197 2.282 . S
Mn181 O205 2.215 . S
Mn181 O207 2.117 . S
C182 O204 1.234 . S
C182 O205 1.283 . S
C183 O195 1.281 . S
C183 O196 1.236 . S
C184 O206 1.240 . S
C184 O207 1.264 . S
O185 Mn180 2.095 . S
O185 C194 1.250 . S
O186 Mn181 2.121 . S
O186 C194 1.258 . S
C187 N188 1.326 . S
C187 C191 1.460 . S
C187 H193 0.929 . S
N188 Mn181 2.257 . S
N188 C187 1.326 . S
N188 C192 1.362 . S
C189 C190 1.258 . S
C189 C192 1.431 . S
C189 C209 1.449 . S
C190 C189 1.258 . S
C190 C191 1.477 . S
C190 H210 0.931 . S
C191 C187 1.460 . S
C191 C190 1.477 . S
C191 H211 0.930 . S
C192 N188 1.362 . S
C192 C189 1.431 . S
C192 C202 1.476 . S
H193 C187 0.929 . S
C194 O185 1.250 . S
C194 O186 1.258 . S
O195 Mn180 2.162 . S
O195 C183 1.281 . S
O196 Mn180 2.297 . S
O196 C183 1.236 . S
N197 Mn181 2.282 . S
N197 C198 1.328 . S
N197 C202 1.318 . S
C198 N197 1.328 . S
C198 C199 1.457 . S
C198 H203 0.929 . S
C199 C198 1.457 . S
C199 C200 1.291 . S
C199 H212 0.931 . S
C200 C199 1.291 . S
C200 C201 1.373 . S
C200 H213 0.929 . S
C201 C200 1.373 . S
C201 C202 1.396 . S
C201 C208 1.403 . S
C202 C192 1.476 . S
C202 N197 1.318 . S
C202 C201 1.396 . S
H203 C198 0.929 . S
O204 Mn180 2.385 . S
O204 C182 1.234 . S
O205 Mn180 2.209 . S
O205 Mn181 2.215 . S
O205 C182 1.283 . S
O206 Mn180 2.094 . S
O206 C184 1.240 . S
O207 Mn181 2.117 . S
O207 C184 1.264 . S
C208 C201 1.403 . S
C208 C209 1.399 . S
C208 H214 0.929 . S
C209 C189 1.449 . S
C209 C208 1.399 . S
C209 H215 0.930 . S
H210 C190 0.931 . S
H211 C191 0.930 . S
H212 C199 0.931 . S
H213 C200 0.929 . S
H214 C208 0.929 . S
H215 C209 0.930 . S
Mn216 O221 2.095 . S
Mn216 O231 2.162 . S
Mn216 O232 2.297 . S
Mn216 O240 2.385 . S
Mn216 O241 2.209 . S
Mn216 O242 2.094 . S
Mn217 O222 2.121 . S
Mn217 N224 2.257 . S
Mn217 N233 2.282 . S
Mn217 O241 2.215 . S
Mn217 O243 2.117 . S
C218 O240 1.234 . S
C218 O241 1.283 . S
C219 O231 1.281 . S
C219 O232 1.236 . S
C220 O242 1.240 . S
C220 O243 1.264 . S
O221 Mn216 2.095 . S
O221 C230 1.250 . S
O222 Mn217 2.121 . S
O222 C230 1.258 . S
C223 N224 1.326 . S
C223 C227 1.460 . S
C223 H229 0.929 . S
N224 Mn217 2.257 . S
N224 C223 1.326 . S
N224 C228 1.362 . S
C225 C226 1.258 . S
C225 C228 1.431 . S
C225 C245 1.449 . S
C226 C225 1.258 . S
C226 C227 1.477 . S
C226 H246 0.931 . S
C227 C223 1.460 . S
C227 C226 1.477 . S
C227 H247 0.930 . S
C228 N224 1.362 . S
C228 C225 1.431 . S
C228 C238 1.476 . S
H229 C223 0.929 . S
C230 O221 1.250 . S
C230 O222 1.258 . S
O231 Mn216 2.162 . S
O231 C219 1.281 . S
O232 Mn216 2.297 . S
O232 C219 1.236 . S
N233 Mn217 2.282 . S
N233 C234 1.328 . S
N233 C238 1.318 . S
C234 N233 1.328 . S
C234 C235 1.457 . S
C234 H239 0.929 . S
C235 C234 1.457 . S
C235 C236 1.291 . S
C235 H248 0.931 . S
C236 C235 1.291 . S
C236 C237 1.373 . S
C236 H249 0.929 . S
C237 C236 1.373 . S
C237 C238 1.396 . S
C237 C244 1.403 . S
C238 C228 1.476 . S
C238 N233 1.318 . S
C238 C237 1.396 . S
H239 C234 0.929 . S
O240 Mn216 2.385 . S
O240 C218 1.234 . S
O241 Mn216 2.209 . S
O241 Mn217 2.215 . S
O241 C218 1.283 . S
O242 Mn216 2.094 . S
O242 C220 1.240 . S
O243 Mn217 2.117 . S
O243 C220 1.264 . S
C244 C237 1.403 . S
C244 C245 1.399 . S
C244 H250 0.929 . S
C245 C225 1.449 . S
C245 C244 1.399 . S
C245 H251 0.930 . S
H246 C226 0.931 . S
H247 C227 0.930 . S
H248 C235 0.931 . S
H249 C236 0.929 . S
H250 C244 0.929 . S
H251 C245 0.930 . S
Mn252 O257 2.095 . S
Mn252 O267 2.162 . S
Mn252 O268 2.297 . S
Mn252 O276 2.385 . S
Mn252 O277 2.209 . S
Mn252 O278 2.094 . S
Mn253 O258 2.121 . S
Mn253 N260 2.257 . S
Mn253 N269 2.282 . S
Mn253 O277 2.215 . S
Mn253 O279 2.117 . S
C254 O276 1.234 . S
C254 O277 1.283 . S
C255 O267 1.281 . S
C255 O268 1.236 . S
C256 O278 1.240 . S
C256 O279 1.264 . S
O257 Mn252 2.095 . S
O257 C266 1.250 . S
O258 Mn253 2.121 . S
O258 C266 1.258 . S
C259 N260 1.326 . S
C259 C263 1.460 . S
C259 H265 0.929 . S
N260 Mn253 2.257 . S
N260 C259 1.326 . S
N260 C264 1.362 . S
C261 C262 1.258 . S
C261 C264 1.431 . S
C261 C281 1.449 . S
C262 C261 1.258 . S
C262 C263 1.477 . S
C262 H282 0.931 . S
C263 C259 1.460 . S
C263 C262 1.477 . S
C263 H283 0.930 . S
C264 N260 1.362 . S
C264 C261 1.431 . S
C264 C274 1.476 . S
H265 C259 0.929 . S
C266 O257 1.250 . S
C266 O258 1.258 . S
O267 Mn252 2.162 . S
O267 C255 1.281 . S
O268 Mn252 2.297 . S
O268 C255 1.236 . S
N269 Mn253 2.282 . S
N269 C270 1.328 . S
N269 C274 1.318 . S
C270 N269 1.328 . S
C270 C271 1.457 . S
C270 H275 0.929 . S
C271 C270 1.457 . S
C271 C272 1.291 . S
C271 H284 0.931 . S
C272 C271 1.291 . S
C272 C273 1.373 . S
C272 H285 0.929 . S
C273 C272 1.373 . S
C273 C274 1.396 . S
C273 C280 1.403 . S
C274 C264 1.476 . S
C274 N269 1.318 . S
C274 C273 1.396 . S
H275 C270 0.929 . S
O276 Mn252 2.385 . S
O276 C254 1.234 . S
O277 Mn252 2.209 . S
O277 Mn253 2.215 . S
O277 C254 1.283 . S
O278 Mn252 2.094 . S
O278 C256 1.240 . S
O279 Mn253 2.117 . S
O279 C256 1.264 . S
C280 C273 1.403 . S
C280 C281 1.399 . S
C280 H286 0.929 . S
C281 C261 1.449 . S
C281 C280 1.399 . S
C281 H287 0.930 . S
H282 C262 0.931 . S
H283 C263 0.930 . S
H284 C271 0.931 . S
H285 C272 0.929 . S
H286 C280 0.929 . S
H287 C281 0.930 . S
Mn288 O293 2.095 . S
Mn288 O303 2.162 . S
Mn288 O304 2.297 . S
Mn288 O312 2.385 . S
Mn288 O313 2.209 . S
Mn288 O314 2.094 . S
Mn289 O294 2.121 . S
Mn289 N296 2.257 . S
Mn289 N305 2.282 . S
Mn289 O313 2.215 . S
Mn289 O315 2.117 . S
C290 O312 1.234 . S
C290 O313 1.283 . S
C291 O303 1.281 . S
C291 O304 1.236 . S
C292 O314 1.240 . S
C292 O315 1.264 . S
O293 Mn288 2.095 . S
O293 C302 1.250 . S
O294 Mn289 2.121 . S
O294 C302 1.258 . S
C295 N296 1.326 . S
C295 C299 1.460 . S
C295 H301 0.929 . S
N296 Mn289 2.257 . S
N296 C295 1.326 . S
N296 C300 1.362 . S
C297 C298 1.258 . S
C297 C300 1.431 . S
C297 C317 1.449 . S
C298 C297 1.258 . S
C298 C299 1.477 . S
C298 H318 0.931 . S
C299 C295 1.460 . S
C299 C298 1.477 . S
C299 H319 0.930 . S
C300 N296 1.362 . S
C300 C297 1.431 . S
C300 C310 1.476 . S
H301 C295 0.929 . S
C302 O293 1.250 . S
C302 O294 1.258 . S
O303 Mn288 2.162 . S
O303 C291 1.281 . S
O304 Mn288 2.297 . S
O304 C291 1.236 . S
N305 Mn289 2.282 . S
N305 C306 1.328 . S
N305 C310 1.318 . S
C306 N305 1.328 . S
C306 C307 1.457 . S
C306 H311 0.929 . S
C307 C306 1.457 . S
C307 C308 1.291 . S
C307 H320 0.931 . S
C308 C307 1.291 . S
C308 C309 1.373 . S
C308 H321 0.929 . S
C309 C308 1.373 . S
C309 C310 1.396 . S
C309 C316 1.403 . S
C310 C300 1.476 . S
C310 N305 1.318 . S
C310 C309 1.396 . S
H311 C306 0.929 . S
O312 Mn288 2.385 . S
O312 C290 1.234 . S
O313 Mn288 2.209 . S
O313 Mn289 2.215 . S
O313 C290 1.283 . S
O314 Mn288 2.094 . S
O314 C292 1.240 . S
O315 Mn289 2.117 . S
O315 C292 1.264 . S
C316 C309 1.403 . S
C316 C317 1.399 . S
C316 H322 0.929 . S
C317 C297 1.449 . S
C317 C316 1.399 . S
C317 H323 0.930 . S
H318 C298 0.931 . S
H319 C299 0.930 . S
H320 C307 0.931 . S
H321 C308 0.929 . S
H322 C316 0.929 . S
H323 C317 0.930 . S
Mn324 O329 2.095 . S
Mn324 O339 2.162 . S
Mn324 O340 2.297 1_556 S
Mn324 O348 2.385 . S
Mn324 O349 2.209 . S
Mn324 O350 2.094 . S
Mn325 O330 2.121 . S
Mn325 N332 2.257 . S
Mn325 N341 2.282 . S
Mn325 O349 2.215 . S
Mn325 O351 2.117 . S
C326 O348 1.234 . S
C326 O349 1.283 . S
C327 O339 1.281 1_554 S
C327 O340 1.236 . S
C328 O350 1.240 . S
C328 O351 1.264 . S
O329 Mn324 2.095 . S
O329 C338 1.250 . S
O330 Mn325 2.121 . S
O330 C338 1.258 . S
C331 N332 1.326 . S
C331 C335 1.460 . S
C331 H337 0.929 . S
N332 Mn325 2.257 . S
N332 C331 1.326 . S
N332 C336 1.362 . S
C333 C334 1.258 . S
C333 C336 1.431 . S
C333 C353 1.449 . S
C334 C333 1.258 . S
C334 C335 1.477 . S
C334 H354 0.931 . S
C335 C331 1.460 . S
C335 C334 1.477 . S
C335 H355 0.930 . S
C336 N332 1.362 . S
C336 C333 1.431 . S
C336 C346 1.476 . S
H337 C331 0.929 . S
C338 O329 1.250 . S
C338 O330 1.258 . S
O339 Mn324 2.162 . S
O339 C327 1.281 1_556 S
O340 Mn324 2.297 1_554 S
O340 C327 1.236 . S
N341 Mn325 2.282 . S
N341 C342 1.328 . S
N341 C346 1.318 . S
C342 N341 1.328 . S
C342 C343 1.457 . S
C342 H347 0.929 . S
C343 C342 1.457 . S
C343 C344 1.291 . S
C343 H356 0.931 . S
C344 C343 1.291 . S
C344 C345 1.373 . S
C344 H357 0.929 . S
C345 C344 1.373 . S
C345 C346 1.396 . S
C345 C352 1.403 . S
C346 C336 1.476 . S
C346 N341 1.318 . S
C346 C345 1.396 . S
H347 C342 0.929 . S
O348 Mn324 2.385 . S
O348 C326 1.234 . S
O349 Mn324 2.209 . S
O349 Mn325 2.215 . S
O349 C326 1.283 . S
O350 Mn324 2.094 . S
O350 C328 1.240 . S
O351 Mn325 2.117 . S
O351 C328 1.264 . S
C352 C345 1.403 . S
C352 C353 1.399 . S
C352 H358 0.929 . S
C353 C333 1.449 . S
C353 C352 1.399 . S
C353 H359 0.930 . S
H354 C334 0.931 . S
H355 C335 0.930 . S
H356 C343 0.931 . S
H357 C344 0.929 . S
H358 C352 0.929 . S
H359 C353 0.930 . S
Mn360 O365 2.095 . S
Mn360 O375 2.162 . S
Mn360 O376 2.297 . S
Mn360 O384 2.385 . S
Mn360 O385 2.209 . S
Mn360 O386 2.094 . S
Mn361 O366 2.121 . S
Mn361 N368 2.257 . S
Mn361 N377 2.282 . S
Mn361 O385 2.215 . S
Mn361 O387 2.117 . S
C362 O384 1.234 . S
C362 O385 1.283 . S
C363 O375 1.281 . S
C363 O376 1.236 . S
C364 O386 1.240 . S
C364 O387 1.264 . S
O365 Mn360 2.095 . S
O365 C374 1.250 . S
O366 Mn361 2.121 . S
O366 C374 1.258 . S
C367 N368 1.326 . S
C367 C371 1.460 . S
C367 H373 0.929 . S
N368 Mn361 2.257 . S
N368 C367 1.326 . S
N368 C372 1.362 . S
C369 C370 1.258 . S
C369 C372 1.431 . S
C369 C389 1.449 . S
C370 C369 1.258 . S
C370 C371 1.477 . S
C370 H390 0.931 . S
C371 C367 1.460 . S
C371 C370 1.477 . S
C371 H391 0.930 . S
C372 N368 1.362 . S
C372 C369 1.431 . S
C372 C382 1.476 . S
H373 C367 0.929 . S
C374 O365 1.250 . S
C374 O366 1.258 . S
O375 Mn360 2.162 . S
O375 C363 1.281 . S
O376 Mn360 2.297 . S
O376 C363 1.236 . S
N377 Mn361 2.282 . S
N377 C378 1.328 1_554 S
N377 C382 1.318 . S
C378 N377 1.328 1_556 S
C378 C379 1.457 . S
C378 H383 0.929 . S
C379 C378 1.457 . S
C379 C380 1.291 . S
C379 H392 0.931 . S
C380 C379 1.291 . S
C380 C381 1.373 1_556 S
C380 H393 0.929 . S
C381 C380 1.373 1_554 S
C381 C382 1.396 . S
C381 C388 1.403 . S
C382 C372 1.476 . S
C382 N377 1.318 . S
C382 C381 1.396 . S
H383 C378 0.929 . S
O384 Mn360 2.385 . S
O384 C362 1.234 . S
O385 Mn360 2.209 . S
O385 Mn361 2.215 . S
O385 C362 1.283 . S
O386 Mn360 2.094 . S
O386 C364 1.240 . S
O387 Mn361 2.117 . S
O387 C364 1.264 . S
C388 C381 1.403 . S
C388 C389 1.399 . S
C388 H394 0.929 . S
C389 C369 1.449 . S
C389 C388 1.399 . S
C389 H395 0.930 . S
H390 C370 0.931 . S
H391 C371 0.930 . S
H392 C379 0.931 . S
H393 C380 0.929 . S
H394 C388 0.929 . S
H395 C389 0.930 . S
Mn396 O401 2.095 . S
Mn396 O411 2.162 . S
Mn396 O412 2.297 . S
Mn396 O420 2.385 . S
Mn396 O421 2.209 . S
Mn396 O422 2.094 . S
Mn397 O402 2.121 . S
Mn397 N404 2.257 . S
Mn397 N413 2.282 . S
Mn397 O421 2.215 . S
Mn397 O423 2.117 . S
C398 O420 1.234 . S
C398 O421 1.283 . S
C399 O411 1.281 . S
C399 O412 1.236 . S
C400 O422 1.240 . S
C400 O423 1.264 . S
O401 Mn396 2.095 . S
O401 C410 1.250 . S
O402 Mn397 2.121 . S
O402 C410 1.258 . S
C403 N404 1.326 . S
C403 C407 1.460 . S
C403 H409 0.929 . S
N404 Mn397 2.257 . S
N404 C403 1.326 . S
N404 C408 1.362 . S
C405 C406 1.258 . S
C405 C408 1.431 . S
C405 C425 1.449 . S
C406 C405 1.258 . S
C406 C407 1.477 . S
C406 H426 0.931 . S
C407 C403 1.460 . S
C407 C406 1.477 . S
C407 H427 0.930 . S
C408 N404 1.362 . S
C408 C405 1.431 . S
C408 C418 1.476 . S
H409 C403 0.929 . S
C410 O401 1.250 . S
C410 O402 1.258 . S
O411 Mn396 2.162 . S
O411 C399 1.281 . S
O412 Mn396 2.297 . S
O412 C399 1.236 . S
N413 Mn397 2.282 . S
N413 C414 1.328 . S
N413 C418 1.318 . S
C414 N413 1.328 . S
C414 C415 1.457 . S
C414 H419 0.929 . S
C415 C414 1.457 . S
C415 C416 1.291 . S
C415 H428 0.931 . S
C416 C415 1.291 . S
C416 C417 1.373 . S
C416 H429 0.929 . S
C417 C416 1.373 . S
C417 C418 1.396 . S
C417 C424 1.403 . S
C418 C408 1.476 . S
C418 N413 1.318 . S
C418 C417 1.396 . S
H419 C414 0.929 . S
O420 Mn396 2.385 . S
O420 C398 1.234 . S
O421 Mn396 2.209 . S
O421 Mn397 2.215 . S
O421 C398 1.283 . S
O422 Mn396 2.094 . S
O422 C400 1.240 . S
O423 Mn397 2.117 . S
O423 C400 1.264 . S
C424 C417 1.403 . S
C424 C425 1.399 . S
C424 H430 0.929 . S
C425 C405 1.449 . S
C425 C424 1.399 . S
C425 H431 0.930 . S
H426 C406 0.931 . S
H427 C407 0.930 . S
H428 C415 0.931 . S
H429 C416 0.929 . S
H430 C424 0.929 . S
H431 C425 0.930 . S
C432 C433 1.369 . S
C432 C434 1.419 . S
C432 H436 0.930 . S
C433 C432 1.369 . S
C433 C442 1.429 . S
C434 C432 1.419 . S
C434 C435 1.363 . S
C434 H437 0.929 . S
C435 C434 1.363 . S
C435 C441 1.428 . S
H436 C432 0.930 . S
H437 C434 0.929 . S
S438 N439 1.613 . S
S438 N440 1.610 . S
N439 S438 1.613 . S
N439 C442 1.350 . S
N440 S438 1.610 . S
N440 C441 1.351 . S
C441 C435 1.428 . S
C441 N440 1.351 . S
C441 C442 1.434 . S
C442 C433 1.429 . S
C442 N439 1.350 . S
C442 C441 1.434 . S
C443 C444 1.369 . S
C443 C445 1.419 . S
C443 H447 0.930 . S
C444 C443 1.369 . S
C444 C453 1.429 . S
C445 C443 1.419 . S
C445 C446 1.363 . S
C445 H448 0.929 . S
C446 C445 1.363 . S
C446 C452 1.428 . S
H447 C443 0.930 . S
H448 C445 0.929 . S
S449 N450 1.613 . S
S449 N451 1.610 . S
N450 S449 1.613 . S
N450 C453 1.350 . S
N451 S449 1.610 . S
N451 C452 1.351 . S
C452 C446 1.428 . S
C452 N451 1.351 . S
C452 C453 1.434 . S
C453 C444 1.429 . S
C453 N450 1.350 . S
C453 C452 1.434 . S
C454 C455 1.369 . S
C454 C456 1.419 . S
C454 H458 0.930 . S
C455 C454 1.369 . S
C455 C464 1.429 . S
C456 C454 1.419 . S
C456 C457 1.363 . S
C456 H459 0.929 . S
C457 C456 1.363 . S
C457 C463 1.428 . S
H458 C454 0.930 . S
H459 C456 0.929 . S
S460 N461 1.613 . S
S460 N462 1.610 . S
N461 S460 1.613 . S
N461 C464 1.350 . S
N462 S460 1.610 . S
N462 C463 1.351 . S
C463 C457 1.428 . S
C463 N462 1.351 . S
C463 C464 1.434 . S
C464 C455 1.429 . S
C464 N461 1.350 . S
C464 C463 1.434 . S
C465 C466 1.369 . S
C465 C467 1.419 . S
C465 H469 0.930 . S
C466 C465 1.369 . S
C466 C475 1.429 . S
C467 C465 1.419 . S
C467 C468 1.363 . S
C467 H470 0.929 . S
C468 C467 1.363 . S
C468 C474 1.428 . S
H469 C465 0.930 . S
H470 C467 0.929 . S
S471 N472 1.613 1_554 S
S471 N473 1.610 . S
N472 S471 1.613 1_556 S
N472 C475 1.350 . S
N473 S471 1.610 . S
N473 C474 1.351 1_554 S
C474 C468 1.428 . S
C474 N473 1.351 1_556 S
C474 C475 1.434 . S
C475 C466 1.429 . S
C475 N472 1.350 . S
C475 C474 1.434 . S
C476 C477 1.369 . S
C476 C478 1.419 . S
C476 H480 0.930 . S
C477 C476 1.369 . S
C477 C486 1.429 . S
C478 C476 1.419 . S
C478 C479 1.363 . S
C478 H481 0.929 . S
C479 C478 1.363 . S
C479 C485 1.428 . S
H480 C476 0.930 . S
H481 C478 0.929 . S
S482 N483 1.613 1_556 S
S482 N484 1.610 1_556 S
N483 S482 1.613 1_554 S
N483 C486 1.350 . S
N484 S482 1.610 1_554 S
N484 C485 1.351 . S
C485 C479 1.428 . S
C485 N484 1.351 . S
C485 C486 1.434 . S
C486 C477 1.429 . S
C486 N483 1.350 . S
C486 C485 1.434 . S
C487 C488 1.369 . S
C487 C489 1.419 . S
C487 H491 0.930 . S
C488 C487 1.369 . S
C488 C497 1.429 . S
C489 C487 1.419 . S
C489 C490 1.363 . S
C489 H492 0.929 . S
C490 C489 1.363 . S
C490 C496 1.428 . S
H491 C487 0.930 . S
H492 C489 0.929 . S
S493 N494 1.613 . S
S493 N495 1.610 . S
N494 S493 1.613 . S
N494 C497 1.350 . S
N495 S493 1.610 . S
N495 C496 1.351 . S
C496 C490 1.428 . S
C496 N495 1.351 . S
C496 C497 1.434 . S
C497 C488 1.429 . S
C497 N494 1.350 . S
C497 C496 1.434 . S
C498 C499 1.369 . S
C498 C500 1.419 . S
C498 H502 0.930 . S
C499 C498 1.369 . S
C499 C508 1.429 . S
C500 C498 1.419 . S
C500 C501 1.363 . S
C500 H503 0.929 . S
C501 C500 1.363 . S
C501 C507 1.428 . S
H502 C498 0.930 . S
H503 C500 0.929 . S
S504 N505 1.613 . S
S504 N506 1.610 . S
N505 S504 1.613 . S
N505 C508 1.350 . S
N506 S504 1.610 . S
N506 C507 1.351 . S
C507 C501 1.428 . S
C507 N506 1.351 . S
C507 C508 1.434 . S
C508 C499 1.429 . S
C508 N505 1.350 . S
C508 C507 1.434 . S
C509 C510 1.369 . S
C509 C511 1.419 . S
C509 H513 0.930 . S
C510 C509 1.369 . S
C510 C519 1.429 . S
C511 C509 1.419 . S
C511 C512 1.363 . S
C511 H514 0.929 . S
C512 C511 1.363 . S
C512 C518 1.428 . S
H513 C509 0.930 . S
H514 C511 0.929 . S
S515 N516 1.613 . S
S515 N517 1.610 . S
N516 S515 1.613 . S
N516 C519 1.350 . S
N517 S515 1.610 . S
N517 C518 1.351 . S
C518 C512 1.428 . S
C518 N517 1.351 . S
C518 C519 1.434 . S
C519 C510 1.429 . S
C519 N516 1.350 . S
C519 C518 1.434 . S
C520 C521 1.369 . S
C520 C522 1.419 . S
C520 H524 0.930 . S
C521 C520 1.369 . S
C521 C530 1.429 . S
C522 C520 1.419 . S
C522 C523 1.363 . S
C522 H525 0.929 . S
C523 C522 1.363 . S
C523 C529 1.428 . S
H524 C520 0.930 . S
H525 C522 0.929 . S
S526 N527 1.613 . S
S526 N528 1.610 . S
N527 S526 1.613 . S
N527 C530 1.350 . S
N528 S526 1.610 . S
N528 C529 1.351 . S
C529 C523 1.428 . S
C529 N528 1.351 . S
C529 C530 1.434 . S
C530 C521 1.429 . S
C530 N527 1.350 . S
C530 C529 1.434 . S
C531 C532 1.369 . S
C531 C533 1.419 . S
C531 H535 0.930 . S
C532 C531 1.369 . S
C532 C541 1.429 . S
C533 C531 1.419 . S
C533 C534 1.363 . S
C533 H536 0.929 . S
C534 C533 1.363 . S
C534 C540 1.428 . S
H535 C531 0.930 . S
H536 C533 0.929 . S
S537 N538 1.613 . S
S537 N539 1.610 . S
N538 S537 1.613 . S
N538 C541 1.350 . S
N539 S537 1.610 . S
N539 C540 1.351 . S
C540 C534 1.428 . S
C540 N539 1.351 . S
C540 C541 1.434 . S
C541 C532 1.429 . S
C541 N538 1.350 . S
C541 C540 1.434 . S
C542 C543 1.369 . S
C542 C544 1.419 . S
C542 H546 0.930 . S
C543 C542 1.369 . S
C543 C552 1.429 . S
C544 C542 1.419 . S
C544 C545 1.363 . S
C544 H547 0.929 . S
C545 C544 1.363 . S
C545 C551 1.428 . S
H546 C542 0.930 . S
H547 C544 0.929 . S
S548 N549 1.613 . S
S548 N550 1.610 . S
N549 S548 1.613 . S
N549 C552 1.350 . S
N550 S548 1.610 . S
N550 C551 1.351 . S
C551 C545 1.428 . S
C551 N550 1.351 . S
C551 C552 1.434 . S
C552 C543 1.429 . S
C552 N549 1.350 . S
C552 C551 1.434 . S
C553 C554 1.369 . S
C553 C555 1.419 . S
C553 H557 0.930 . S
C554 C553 1.369 . S
C554 C563 1.429 . S
C555 C553 1.419 . S
C555 C556 1.363 . S
C555 H558 0.929 . S
C556 C555 1.363 . S
C556 C562 1.428 . S
H557 C553 0.930 . S
H558 C555 0.929 . S
S559 N560 1.613 . S
S559 N561 1.610 . S
N560 S559 1.613 . S
N560 C563 1.350 . S
N561 S559 1.610 . S
N561 C562 1.351 . S
C562 C556 1.428 . S
C562 N561 1.351 . S
C562 C563 1.434 . S
C563 C554 1.429 . S
C563 N560 1.350 . S
C563 C562 1.434 . S
C564 C565 1.369 . S
C564 C566 1.419 1_655 S
C564 H568 0.930 . S
C565 C564 1.369 . S
C565 C574 1.429 . S
C566 C564 1.419 1_455 S
C566 C567 1.363 . S
C566 H569 0.929 . S
C567 C566 1.363 . S
C567 C573 1.428 . S
H568 C564 0.930 . S
H569 C566 0.929 . S
S570 N571 1.613 . S
S570 N572 1.610 1_655 S
N571 S570 1.613 . S
N571 C574 1.350 . S
N572 S570 1.610 1_455 S
N572 C573 1.351 . S
C573 C567 1.428 . S
C573 N572 1.351 . S
C573 C574 1.434 1_455 S
C574 C565 1.429 . S
C574 N571 1.350 . S
C574 C573 1.434 1_655 S
C575 C576 1.369 . S
C575 C577 1.419 1_565 S
C575 H579 0.930 . S
C576 C575 1.369 . S
C576 C585 1.429 . S
C577 C575 1.419 1_545 S
C577 C578 1.363 . S
C577 H580 0.929 . S
C578 C577 1.363 . S
C578 C584 1.428 . S
H579 C575 0.930 . S
H580 C577 0.929 . S
S581 N582 1.613 1_545 S
S581 N583 1.610 . S
N582 S581 1.613 1_565 S
N582 C585 1.350 . S
N583 S581 1.610 . S
N583 C584 1.351 . S
C584 C578 1.428 . S
C584 N583 1.351 . S
C584 C585 1.434 1_545 S
C585 C576 1.429 . S
C585 N582 1.350 . S
C585 C584 1.434 1_565 S
C586 C587 1.369 . S
C586 C588 1.419 . S
C586 H590 0.930 . S
C587 C586 1.369 . S
C587 C596 1.429 . S
C588 C586 1.419 . S
C588 C589 1.363 . S
C588 H591 0.929 . S
C589 C588 1.363 . S
C589 C595 1.428 . S
H590 C586 0.930 . S
H591 C588 0.929 . S
S592 N593 1.613 . S
S592 N594 1.610 . S
N593 S592 1.613 . S
N593 C596 1.350 . S
N594 S592 1.610 . S
N594 C595 1.351 . S
C595 C589 1.428 . S
C595 N594 1.351 . S
C595 C596 1.434 . S
C596 C587 1.429 . S
C596 N593 1.350 . S
C596 C595 1.434 . S
C597 C598 1.369 . S
C597 C599 1.419 1_455 S
C597 H601 0.930 . S
C598 C597 1.369 . S
C598 C607 1.429 . S
C599 C597 1.419 1_655 S
C599 C600 1.363 . S
C599 H602 0.929 . S
C600 C599 1.363 . S
C600 C606 1.428 . S
H601 C597 0.930 . S
H602 C599 0.929 . S
S603 N604 1.613 . S
S603 N605 1.610 1_455 S
N604 S603 1.613 . S
N604 C607 1.350 . S
N605 S603 1.610 1_655 S
N605 C606 1.351 . S
C606 C600 1.428 . S
C606 N605 1.351 . S
C606 C607 1.434 1_655 S
C607 C598 1.429 . S
C607 N604 1.350 . S
C607 C606 1.434 1_455 S
C608 C609 1.369 . S
C608 C610 1.419 1_545 S
C608 H612 0.930 . S
C609 C608 1.369 . S
C609 C618 1.429 1_556 S
C610 C608 1.419 1_565 S
C610 C611 1.363 1_556 S
C610 H613 0.929 . S
C611 C610 1.363 1_554 S
C611 C617 1.428 . S
H612 C608 0.930 . S
H613 C610 0.929 . S
S614 N615 1.613 . S
S614 N616 1.610 1_545 S
N615 S614 1.613 . S
N615 C618 1.350 . S
N616 S614 1.610 1_565 S
N616 C617 1.351 . S
C617 C611 1.428 . S
C617 N616 1.351 . S
C617 C618 1.434 1_565 S
C618 C609 1.429 1_554 S
C618 N615 1.350 . S
C618 C617 1.434 1_545 S
C619 C620 1.369 . S
C619 C621 1.419 . S
C619 H623 0.930 . S
C620 C619 1.369 . S
C620 C629 1.429 . S
C621 C619 1.419 . S
C621 C622 1.363 . S
C621 H624 0.929 . S
C622 C621 1.363 . S
C622 C628 1.428 . S
H623 C619 0.930 . S
H624 C621 0.929 . S
S625 N626 1.613 . S
S625 N627 1.610 . S
N626 S625 1.613 . S
N626 C629 1.350 . S
N627 S625 1.610 . S
N627 C628 1.351 . S
C628 C622 1.428 . S
C628 N627 1.351 . S
C628 C629 1.434 . S
C629 C620 1.429 . S
C629 N626 1.350 . S
C629 C628 1.434 . S
C630 C631 1.369 . S
C630 C632 1.419 . S
C630 H634 0.930 . S
C631 C630 1.369 . S
C631 C640 1.429 . S
C632 C630 1.419 . S
C632 C633 1.363 . S
C632 H635 0.929 . S
C633 C632 1.363 . S
C633 C639 1.428 . S
H634 C630 0.930 . S
H635 C632 0.929 . S
S636 N637 1.613 . S
S636 N638 1.610 . S
N637 S636 1.613 . S
N637 C640 1.350 . S
N638 S636 1.610 . S
N638 C639 1.351 . S
C639 C633 1.428 . S
C639 N638 1.351 . S
C639 C640 1.434 . S
C640 C631 1.429 . S
C640 N637 1.350 . S
C640 C639 1.434 . S
C641 C642 1.369 . S
C641 C643 1.419 . S
C641 H645 0.930 . S
C642 C641 1.369 . S
C642 C651 1.429 . S
C643 C641 1.419 . S
C643 C644 1.363 . S
C643 H646 0.929 . S
C644 C643 1.363 . S
C644 C650 1.428 . S
H645 C641 0.930 . S
H646 C643 0.929 . S
S647 N648 1.613 . S
S647 N649 1.610 . S
N648 S647 1.613 . S
N648 C651 1.350 . S
N649 S647 1.610 . S
N649 C650 1.351 . S
C650 C644 1.428 . S
C650 N649 1.351 . S
C650 C651 1.434 . S
C651 C642 1.429 . S
C651 N648 1.350 . S
C651 C650 1.434 . S
C652 C653 1.369 . S
C652 C654 1.419 . S
C652 H656 0.930 . S
C653 C652 1.369 . S
C653 C662 1.429 . S
C654 C652 1.419 . S
C654 C655 1.363 . S
C654 H657 0.929 . S
C655 C654 1.363 . S
C655 C661 1.428 . S
H656 C652 0.930 . S
H657 C654 0.929 . S
S658 N659 1.613 . S
S658 N660 1.610 . S
N659 S658 1.613 . S
N659 C662 1.350 . S
N660 S658 1.610 . S
N660 C661 1.351 . S
C661 C655 1.428 . S
C661 N660 1.351 . S
C661 C662 1.434 . S
C662 C653 1.429 . S
C662 N659 1.350 . S
C662 C661 1.434 . S
C663 C664 1.369 . S
C663 C665 1.419 . S
C663 H667 0.930 . S
C664 C663 1.369 . S
C664 C673 1.429 . S
C665 C663 1.419 . S
C665 C666 1.363 . S
C665 H668 0.929 . S
C666 C665 1.363 . S
C666 C672 1.428 . S
H667 C663 0.930 . S
H668 C665 0.929 . S
S669 N670 1.613 . S
S669 N671 1.610 . S
N670 S669 1.613 . S
N670 C673 1.350 . S
N671 S669 1.610 . S
N671 C672 1.351 . S
C672 C666 1.428 . S
C672 N671 1.351 . S
C672 C673 1.434 . S
C673 C664 1.429 . S
C673 N670 1.350 . S
C673 C672 1.434 . S
C674 C675 1.369 . S
C674 C676 1.419 . S
C674 H678 0.930 . S
C675 C674 1.369 . S
C675 C684 1.429 . S
C676 C674 1.419 . S
C676 C677 1.363 . S
C676 H679 0.929 . S
C677 C676 1.363 . S
C677 C683 1.428 . S
H678 C674 0.930 . S
H679 C676 0.929 . S
S680 N681 1.613 . S
S680 N682 1.610 . S
N681 S680 1.613 . S
N681 C684 1.350 . S
N682 S680 1.610 . S
N682 C683 1.351 . S
C683 C677 1.428 . S
C683 N682 1.351 . S
C683 C684 1.434 . S
C684 C675 1.429 . S
C684 N681 1.350 . S
C684 C683 1.434 . S
C685 C686 1.369 . S
C685 C687 1.419 . S
C685 H689 0.930 . S
C686 C685 1.369 . S
C686 C695 1.429 . S
C687 C685 1.419 . S
C687 C688 1.363 . S
C687 H690 0.929 . S
C688 C687 1.363 . S
C688 C694 1.428 . S
H689 C685 0.930 . S
H690 C687 0.929 . S
S691 N692 1.613 . S
S691 N693 1.610 . S
N692 S691 1.613 . S
N692 C695 1.350 . S
N693 S691 1.610 . S
N693 C694 1.351 . S
C694 C688 1.428 . S
C694 N693 1.351 . S
C694 C695 1.434 . S
C695 C686 1.429 . S
C695 N692 1.350 . S
C695 C694 1.434 . S
C433 C2 0.865 . S
C435 C218 0.856 . S
C444 C38 0.848 . S
C446 C254 0.857 . S
C455 C290 0.852 . S
C457 C74 0.861 . S
C466 C110 0.857 . S
C468 C326 0.863 . S
C477 C146 0.853 . S
C479 C362 0.849 . S
C488 C398 0.859 . S
C490 C182 0.850 . S
C499 C292 1.486 . S
C501 C4 1.483 . S
C510 C40 1.490 . S
C512 C328 1.480 . S
C521 C364 1.485 1_556 S
C523 C76 1.481 . S
C532 C400 1.478 . S
C534 C112 1.488 1_554 S
C543 C148 1.485 . S
C545 C220 1.484 . S
C554 C184 1.489 . S
C556 C256 1.478 . S
C565 C410 1.283 . S
C567 C14 1.281 . S
C576 C230 1.280 . S
C578 C50 1.287 . S
C587 C86 1.287 . S
C589 C266 1.284 . S
C598 C302 1.288 . S
C600 C122 1.281 . S
C609 C338 1.286 . S
C611 C158 1.280 . S
C620 C374 1.279 . S
C622 C194 1.285 . S
C631 C3 1.603 . S
C633 C363 1.603 . S
C642 C399 1.604 . S
C644 C39 1.603 . S
C653 C75 1.605 . S
C655 C219 1.604 . S
C664 C111 1.603 . S
C666 C255 1.604 . S
C675 C147 1.602 . S
C677 C291 1.602 . S
C686 C183 1.605 . S
C688 C327 1.604 . S
