# Generated by pormake.
# Topology npo, (4)-cn, num edge types: 1
# Building blocks:
#     Node 0, Type 0, BuildingBlock: UXUYUI_clean_sbu_0, # of connection points: 4
#     Node 1, Type 0, BuildingBlock: UXUYUI_clean_sbu_0, # of connection points: 4
#     Node 2, Type 0, BuildingBlock: UXUYUI_clean_sbu_0, # of connection points: 4
#     Node 3, Type 0, BuildingBlock: UXUYUI_clean_sbu_0, # of connection points: 4
#     Node 4, Type 0, BuildingBlock: UXUYUI_clean_sbu_0, # of connection points: 4
#     Node 5, Type 0, BuildingBlock: UXUYUI_clean_sbu_0, # of connection points: 4
#     Edge 6, Type (0, 0), BuildingBlock: XUDNAN_clean_linker_2, # of connection points: 2
#     Edge 7, Type (0, 0), BuildingBlock: XUDNAN_clean_linker_2, # of connection points: 2
#     Edge 8, Type (0, 0), BuildingBlock: XUDNAN_clean_linker_2, # of connection points: 2
#     Edge 9, Type (0, 0), BuildingBlock: XUDNAN_clean_linker_2, # of connection points: 2
#     Edge 10, Type (0, 0), BuildingBlock: XUDNAN_clean_linker_2, # of connection points: 2
#     Edge 11, Type (0, 0), BuildingBlock: XUDNAN_clean_linker_2, # of connection points: 2
#     Edge 12, Type (0, 0), BuildingBlock: XUDNAN_clean_linker_2, # of connection points: 2
#     Edge 13, Type (0, 0), BuildingBlock: XUDNAN_clean_linker_2, # of connection points: 2
#     Edge 14, Type (0, 0), BuildingBlock: XUDNAN_clean_linker_2, # of connection points: 2
#     Edge 15, Type (0, 0), BuildingBlock: XUDNAN_clean_linker_2, # of connection points: 2
#     Edge 16, Type (0, 0), BuildingBlock: XUDNAN_clean_linker_2, # of connection points: 2
#     Edge 17, Type (0, 0), BuildingBlock: XUDNAN_clean_linker_2, # of connection points: 2
# Relax obj value: 0.320
# Max RMSD: 0.247
# Mean RMSD: 0.247
data_MOF--net-npo--node1-UXUYUI_clean_sbu_0--edge1-XUDNAN_clean_linker_2
_symmetry_space_group_name_H-M    P1
_symmetry_Int_Tables_number       1
_symmetry_cell_setting            triclinic
loop_
_symmetry_equiv_pos_as_xyz
'x, y, z'
_cell_length_a     60.949628
_cell_length_b     60.934523
_cell_length_c     37.874885
_cell_angle_alpha  89.98371
_cell_angle_beta   90.038494
_cell_angle_gamma 120.03254
loop_
_atom_site_label
_atom_site_type_symbol
_atom_site_fract_x
_atom_site_fract_y
_atom_site_fract_z
_atom_type_partial_charge
Li0 Li 0.5344 0.11672 0.24164 0.0
Li1 Li 0.57514 0.11886 0.24992 0.0
Li2 Li 0.54248 0.08664 0.21252 0.0
Li3 Li 0.53783 0.08503 0.27623 0.0
C4 C 0.56708 0.12572 0.17136 0.0
N5 N 0.57959 0.12668 0.10101 0.0
C6 C 0.59149 0.13128 0.16184 0.0
C7 C 0.54904 0.12069 0.14506 0.0
C8 C 0.59745 0.1317 0.12614 0.0
C9 C 0.55572 0.12122 0.10966 0.0
C10 C 0.57053 0.14196 0.30469 0.0
C11 C 0.60552 0.16132 0.34562 0.0
N12 N 0.6076 0.18426 0.33933 0.0
C13 C 0.573 0.16574 0.29866 0.0
C14 C 0.58687 0.13971 0.32843 0.0
C15 C 0.59185 0.18689 0.31645 0.0
C16 C 0.50629 0.13814 0.2687 0.0
N17 N 0.51826 0.13645 0.23943 0.0
C18 C 0.50913 0.1649 0.2081 0.0
C19 C 0.51981 0.14935 0.20944 0.0
C20 C 0.49701 0.16741 0.2381 0.0
C21 C 0.49547 0.15364 0.26864 0.0
H22 H 0.5056 0.12782 0.29231 0.0
H23 H 0.52986 0.14805 0.18683 0.0
C24 C 0.6267 0.13375 0.26458 0.0
N25 N 0.61047 0.14165 0.25402 0.0
C26 C 0.65266 0.15104 0.26694 0.0
C27 C 0.64456 0.18406 0.24708 0.0
C28 C 0.61884 0.16619 0.24514 0.0
C29 C 0.66186 0.17657 0.25803 0.0
H30 H 0.61954 0.11404 0.27094 0.0
H31 H 0.60546 0.17182 0.23653 0.0
C32 C 0.48905 0.07767 0.24122 0.0
N33 N 0.44337 0.07685 0.24502 0.0
C34 C 0.47587 0.07215 0.27318 0.0
C35 C 0.47896 0.08271 0.21118 0.0
C36 C 0.45279 0.07181 0.27454 0.0
C37 C 0.45587 0.08225 0.21366 0.0
C38 C 0.56366 0.06236 0.26377 0.0
C39 C 0.55027 0.03837 0.24825 0.0
C40 C 0.57571 0.06519 0.29625 0.0
C41 C 0.54908 0.01756 0.26559 0.0
C42 C 0.57401 0.0439 0.31279 0.0
N43 N 0.56085 0.02073 0.29724 0.0
C44 C 0.55825 0.06636 0.15895 0.0
C45 C 0.51536 0.05609 0.15359 0.0
C46 C 0.55664 0.05367 0.1276 0.0
N47 N 0.53785 0.06748 0.17106 0.0
C48 C 0.51293 0.0433 0.12198 0.0
C49 C 0.53379 0.04208 0.1086 0.0
H50 H 0.57589 0.07566 0.17351 0.0
H51 H 0.49942 0.05712 0.164 0.0
C52 C 0.53035 0.07228 0.34866 0.0
N53 N 0.52429 0.0629 0.31535 0.0
C54 C 0.52027 0.05612 0.3776 0.0
C55 C 0.49767 0.021 0.33734 0.0
C56 C 0.50817 0.03786 0.30918 0.0
C57 C 0.5037 0.0301 0.37211 0.0
H58 H 0.54278 0.09235 0.35276 0.0
H59 H 0.50348 0.03104 0.28233 0.0
O60 O 0.56069 0.1246 0.20622 0.0
O61 O 0.55255 0.1211 0.28697 0.0
O62 O 0.51195 0.07864 0.23951 0.0
O63 O 0.56462 0.08289 0.24757 0.0
H64 H 0.60563 0.13492 0.18176 0.0
H65 H 0.52992 0.11585 0.1519 0.0
H66 H 0.61624 0.13589 0.11842 0.0
H67 H 0.54189 0.11714 0.08908 0.0
H68 H 0.61841 0.15987 0.36385 0.0
H69 H 0.56073 0.16793 0.28014 0.0
H70 H 0.58548 0.12154 0.33307 0.0
H71 H 0.59404 0.20541 0.31193 0.0
H72 H 0.5112 0.17561 0.18429 0.0
H73 H 0.48629 0.15508 0.29229 0.0
H74 H 0.6654 0.14446 0.27516 0.0
H75 H 0.65078 0.20361 0.24047 0.0
H76 H 0.48346 0.06843 0.29678 0.0
H77 H 0.4891 0.08743 0.18637 0.0
H78 H 0.44243 0.06766 0.29912 0.0
H79 H 0.44795 0.08631 0.19069 0.0
H80 H 0.54062 0.03577 0.2233 0.0
H81 H 0.5859 0.08355 0.30886 0.0
H82 H 0.53869 -0.00113 0.25395 0.0
H83 H 0.58308 0.04578 0.33806 0.0
H84 H 0.57321 0.05336 0.118 0.0
H85 H 0.4949 0.0343 0.1083 0.0
H86 H 0.52503 0.064 0.40397 0.0
H87 H 0.48513 0.00106 0.33194 0.0
Li88 Li 0.46158 0.54025 0.781 0.0
Li89 Li 0.46194 0.57953 0.75582 0.0
Li90 Li 0.42333 0.53849 0.76005 0.0
Li91 Li 0.45453 0.54415 0.71858 0.0
C92 C 0.42806 0.55808 0.82317 0.0
N93 N 0.39112 0.55386 0.86944 0.0
C94 C 0.42083 0.57652 0.82356 0.0
C95 C 0.41675 0.53767 0.84663 0.0
C96 C 0.40206 0.57401 0.84707 0.0
C97 C 0.39805 0.53583 0.86974 0.0
C98 C 0.50365 0.57059 0.72252 0.0
C99 C 0.53133 0.5953 0.67502 0.0
N100 N 0.53847 0.57758 0.67079 0.0
C101 C 0.51134 0.55269 0.71789 0.0
C102 C 0.51376 0.59212 0.70106 0.0
C103 C 0.52893 0.55654 0.69151 0.0
C104 C 0.48092 0.5101 0.80856 0.0
N105 N 0.47621 0.52924 0.81553 0.0
C106 C 0.48833 0.5307 0.87575 0.0
C107 C 0.48012 0.53989 0.84808 0.0
C108 C 0.49248 0.5103 0.8698 0.0
C109 C 0.48909 0.50024 0.83553 0.0
H110 H 0.47748 0.50196 0.78237 0.0
H111 H 0.47608 0.55502 0.85278 0.0
C112 C 0.46015 0.62359 0.74788 0.0
N113 N 0.47565 0.61484 0.75849 0.0
C114 C 0.46859 0.64944 0.74856 0.0
C115 C 0.5089 0.65691 0.77117 0.0
C116 C 0.49962 0.63077 0.77003 0.0
C117 C 0.4933 0.66651 0.76017 0.0
H118 H 0.4411 0.61036 0.73916 0.0
H119 H 0.5115 0.62316 0.77821 0.0
C120 C 0.41908 0.48983 0.75751 0.0
N121 N 0.38588 0.43951 0.77333 0.0
C122 C 0.40469 0.47284 0.73079 0.0
C123 C 0.41678 0.48111 0.79222 0.0
C124 C 0.38793 0.44752 0.73935 0.0
C125 C 0.39986 0.45563 0.79969 0.0
C126 C 0.41954 0.55593 0.69182 0.0
C127 C 0.40257 0.53043 0.68455 0.0
C128 C 0.42012 0.57469 0.66996 0.0
C129 C 0.38638 0.52408 0.65551 0.0
C130 C 0.40363 0.56758 0.64114 0.0
N131 N 0.38724 0.54264 0.63457 0.0
C132 C 0.38028 0.54261 0.76017 0.0
C133 C 0.37105 0.50216 0.78073 0.0
C134 C 0.35506 0.53618 0.764 0.0
N135 N 0.38779 0.5256 0.76805 0.0
C136 C 0.34552 0.49492 0.78511 0.0
C137 C 0.33724 0.51197 0.77628 0.0
H138 H 0.39402 0.56136 0.75104 0.0
H139 H 0.3773 0.48904 0.78757 0.0
C140 C 0.45799 0.51397 0.66427 0.0
N141 N 0.46013 0.53674 0.67196 0.0
C142 C 0.46079 0.50813 0.62952 0.0
C143 C 0.46829 0.54943 0.61156 0.0
C144 C 0.46544 0.55448 0.6466 0.0
C145 C 0.46574 0.52591 0.6026 0.0
H146 H 0.45386 0.50029 0.68508 0.0
H147 H 0.4673 0.57253 0.65361 0.0
O148 O 0.44586 0.55982 0.7996 0.0
O149 O 0.48588 0.56677 0.74743 0.0
O150 O 0.43597 0.51458 0.74937 0.0
O151 O 0.43576 0.56262 0.71995 0.0
H152 H 0.4294 0.59244 0.80561 0.0
H153 H 0.42224 0.52334 0.84688 0.0
H154 H 0.39612 0.58803 0.84745 0.0
H155 H 0.38901 0.52005 0.88788 0.0
H156 H 0.53921 0.61179 0.65806 0.0
H157 H 0.50356 0.53586 0.7342 0.0
H158 H 0.50785 0.60606 0.70421 0.0
H159 H 0.53495 0.54277 0.68744 0.0
H160 H 0.49033 0.53876 0.90184 0.0
H161 H 0.49227 0.48464 0.8298 0.0
H162 H 0.45572 0.65593 0.74061 0.0
H163 H 0.52809 0.66945 0.78016 0.0
H164 H 0.4065 0.47908 0.70366 0.0
H165 H 0.42768 0.49384 0.81328 0.0
H166 H 0.37663 0.43421 0.71894 0.0
H167 H 0.39781 0.44869 0.82647 0.0
H168 H 0.40185 0.51573 0.70122 0.0
H169 H 0.43326 0.59453 0.6751 0.0
H170 H 0.37313 0.50441 0.64962 0.0
H171 H 0.40389 0.5819 0.62397 0.0
H172 H 0.34962 0.55015 0.75774 0.0
H173 H 0.33237 0.47608 0.79476 0.0
H174 H 0.45855 0.48972 0.62367 0.0
H175 H 0.47255 0.56382 0.59172 0.0
Li176 Li 0.8783 0.46195 0.25441 0.0
Li177 Li 0.91326 0.45696 0.27691 0.0
Li178 Li 0.90583 0.45682 0.21165 0.0
Li179 Li 0.87833 0.42077 0.24936 0.0
C180 C 0.92151 0.50947 0.24335 0.0
N181 N 0.93413 0.55963 0.23645 0.0
C182 C 0.93352 0.52654 0.27103 0.0
C183 C 0.91641 0.51808 0.21189 0.0
C184 C 0.93961 0.55177 0.26711 0.0
C185 C 0.9228 0.54345 0.20898 0.0
C186 C 0.87852 0.43953 0.32829 0.0
C187 C 0.88805 0.42591 0.38315 0.0
N188 N 0.88208 0.44154 0.4011 0.0
C189 C 0.87228 0.4553 0.34731 0.0
C190 C 0.88627 0.42454 0.34636 0.0
C191 C 0.87426 0.45609 0.3841 0.0
C192 C 0.83286 0.46202 0.24957 0.0
N193 N 0.85695 0.47602 0.26187 0.0
C194 C 0.84785 0.50714 0.28496 0.0
C195 C 0.86466 0.49815 0.27952 0.0
C196 C 0.82299 0.49323 0.27193 0.0
C197 C 0.81558 0.47042 0.25399 0.0
H198 H 0.82698 0.44413 0.23657 0.0
H199 H 0.88363 0.50855 0.29007 0.0
C200 C 0.95342 0.45668 0.31325 0.0
N201 N 0.93793 0.46675 0.31331 0.0
C202 C 0.96927 0.46046 0.34198 0.0
C203 C 0.95382 0.48591 0.36954 0.0
C204 C 0.93831 0.48167 0.34025 0.0
C205 C 0.96916 0.47477 0.37098 0.0
H206 H 0.95294 0.44511 0.29133 0.0
H207 H 0.92568 0.48929 0.33979 0.0
C208 C 0.85718 0.43818 0.18241 0.0
N209 N 0.83477 0.43851 0.11906 0.0
C210 C 0.84491 0.41619 0.16191 0.0
C211 C 0.85758 0.46018 0.17098 0.0
C212 C 0.83383 0.41678 0.12988 0.0
C213 C 0.84626 0.46002 0.13882 0.0
C214 C 0.91594 0.41324 0.23306 0.0
C215 C 0.91853 0.40682 0.19851 0.0
C216 C 0.91393 0.39728 0.2609 0.0
C217 C 0.91872 0.38431 0.19234 0.0
C218 C 0.91415 0.37491 0.25364 0.0
N219 N 0.91651 0.36894 0.21979 0.0
C220 C 0.94336 0.49025 0.16501 0.0
C221 C 0.91109 0.45318 0.13739 0.0
C222 C 0.95498 0.49991 0.13254 0.0
N223 N 0.92154 0.46754 0.16674 0.0
C224 C 0.92218 0.46202 0.10436 0.0
C225 C 0.94422 0.48585 0.10164 0.0
H226 H 0.9516 0.50101 0.18886 0.0
H227 H 0.89417 0.43485 0.13957 0.0
C228 C 0.84477 0.37494 0.28251 0.0
N229 N 0.85703 0.38488 0.25157 0.0
C230 C 0.82822 0.34897 0.28575 0.0
C231 C 0.83691 0.34376 0.22501 0.0
C232 C 0.85361 0.36988 0.2231 0.0
C233 C 0.82391 0.33308 0.25664 0.0
H234 H 0.84738 0.38724 0.30453 0.0
H235 H 0.8636 0.37823 0.19879 0.0
O236 O 0.9154 0.48466 0.2468 0.0
O237 O 0.87697 0.43873 0.2922 0.0
O238 O 0.86819 0.43792 0.21385 0.0
O239 O 0.91539 0.43506 0.23957 0.0
H240 H 0.93804 0.5204 0.29533 0.0
H241 H 0.90796 0.50545 0.18974 0.0
H242 H 0.94873 0.56511 0.28845 0.0
H243 H 0.91888 0.55031 0.1848 0.0
H244 H 0.89424 0.41459 0.39742 0.0
H245 H 0.86608 0.46687 0.33385 0.0
H246 H 0.89112 0.41219 0.33211 0.0
H247 H 0.86961 0.46831 0.39913 0.0
H248 H 0.85418 0.52472 0.29919 0.0
H249 H 0.7964 0.45882 0.24431 0.0
H250 H 0.98112 0.45189 0.34177 0.0
H251 H 0.9529 0.49681 0.39148 0.0
H252 H 0.84405 0.39887 0.17048 0.0
H253 H 0.86615 0.4771 0.18699 0.0
H254 H 0.82446 0.39994 0.11364 0.0
H255 H 0.84651 0.47696 0.12967 0.0
H256 H 0.9203 0.41902 0.17668 0.0
H257 H 0.912 0.40198 0.2878 0.0
H258 H 0.9206 0.37905 0.16571 0.0
H259 H 0.91243 0.36229 0.27492 0.0
H260 H 0.97227 0.51813 0.13164 0.0
H261 H 0.91333 0.45057 0.08116 0.0
H262 H 0.81816 0.34152 0.31037 0.0
H263 H 0.83404 0.33206 0.202 0.0
Li264 Li 0.45165 0.90757 0.7124 0.0
Li265 Li 0.45754 0.91391 0.77358 0.0
Li266 Li 0.45955 0.87892 0.74755 0.0
Li267 Li 0.41766 0.87928 0.75228 0.0
C268 C 0.50164 0.93918 0.7311 0.0
N269 N 0.53983 0.98761 0.71487 0.0
C270 C 0.49715 0.95949 0.73275 0.0
C271 C 0.52556 0.94347 0.72125 0.0
C272 C 0.51669 0.98384 0.72445 0.0
C273 C 0.54463 0.9681 0.71312 0.0
C274 C 0.42129 0.92964 0.75724 0.0
C275 C 0.39161 0.93381 0.79477 0.0
N276 N 0.40017 0.9576 0.78202 0.0
C277 C 0.42955 0.954 0.74418 0.0
C278 C 0.40195 0.91932 0.78244 0.0
C279 C 0.41874 0.96789 0.75719 0.0
C280 C 0.43786 0.92657 0.65486 0.0
N281 N 0.45639 0.9224 0.66721 0.0
C282 C 0.47902 0.93641 0.61287 0.0
C283 C 0.47677 0.92715 0.64715 0.0
C284 C 0.46001 0.94063 0.59921 0.0
C285 C 0.43929 0.93572 0.62071 0.0
H286 H 0.42175 0.92233 0.6714 0.0
H287 H 0.49095 0.92315 0.65747 0.0
C288 C 0.49719 0.94325 0.82004 0.0
N289 N 0.47313 0.93737 0.8118 0.0
C290 C 0.50867 0.95648 0.85091 0.0
C291 C 0.47066 0.95796 0.86409 0.0
C292 C 0.45999 0.94486 0.83278 0.0
C293 C 0.49512 0.96342 0.87391 0.0
H294 H 0.50705 0.93648 0.80358 0.0
H295 H 0.4407 0.93936 0.82659 0.0
C296 C 0.43237 0.86499 0.67666 0.0
N297 N 0.43348 0.85758 0.60488 0.0
C298 C 0.41214 0.86143 0.65532 0.0
C299 C 0.45312 0.86465 0.66155 0.0
C300 C 0.41308 0.85777 0.61906 0.0
C301 C 0.45332 0.86088 0.6252 0.0
C302 C 0.4445 0.88072 0.82531 0.0
C303 C 0.46633 0.88171 0.83878 0.0
C304 C 0.42801 0.88345 0.84814 0.0
C305 C 0.4715 0.88579 0.87489 0.0
C306 C 0.43383 0.88746 0.88409 0.0
N307 N 0.4553 0.88859 0.89659 0.0
C308 C 0.49821 0.86669 0.75881 0.0
C309 C 0.45807 0.83285 0.74125 0.0
C310 C 0.50795 0.85027 0.76099 0.0
N311 N 0.47366 0.85765 0.74927 0.0
C312 C 0.46702 0.81586 0.74279 0.0
C313 C 0.49224 0.82448 0.75289 0.0
H314 H 0.5101 0.88657 0.76508 0.0
H315 H 0.43859 0.82628 0.73394 0.0
C316 C 0.36649 0.85929 0.73316 0.0
N317 N 0.38227 0.8584 0.75777 0.0
C318 C 0.34034 0.84305 0.73577 0.0
C319 C 0.34724 0.82621 0.78985 0.0
C320 C 0.37325 0.84239 0.78581 0.0
C321 C 0.33053 0.82624 0.76439 0.0
H322 H 0.37427 0.87243 0.71133 0.0
H323 H 0.3863 0.84193 0.80473 0.0
O324 O 0.48276 0.9151 0.73877 0.0
O325 O 0.43123 0.91556 0.74405 0.0
O326 O 0.43223 0.86947 0.71202 0.0
O327 O 0.43959 0.87762 0.78984 0.0
H328 H 0.47883 0.95651 0.74052 0.0
H329 H 0.52931 0.9279 0.71978 0.0
H330 H 0.51347 -0.00026 0.72564 0.0
H331 H 0.56323 0.97171 0.7054 0.0
H332 H 0.3768 0.92614 0.8145 0.0
H333 H 0.44402 0.96206 0.72399 0.0
H334 H 0.39523 0.90052 0.79282 0.0
H335 H 0.42503 0.9868 0.74741 0.0
H336 H 0.49513 0.93964 0.59696 0.0
H337 H 0.42438 0.93898 0.61128 0.0
H338 H 0.52767 0.96052 0.8572 0.0
H339 H 0.45929 0.96247 0.88129 0.0
H340 H 0.39601 0.86176 0.66655 0.0
H341 H 0.46908 0.86768 0.67762 0.0
H342 H 0.39763 0.85515 0.60219 0.0
H343 H 0.46932 0.86072 0.61311 0.0
H344 H 0.47935 0.87976 0.82147 0.0
H345 H 0.4111 0.88288 0.83816 0.0
H346 H 0.48846 0.88686 0.88562 0.0
H347 H 0.42136 0.88983 0.90201 0.0
H348 H 0.5275 0.85762 0.76878 0.0
H349 H 0.45416 0.79605 0.73693 0.0
H350 H 0.32792 0.84354 0.7157 0.0
H351 H 0.34031 0.81322 0.81199 0.0
Li352 Li 0.53696 0.45054 0.28267 0.0
Li353 Li 0.53759 0.41517 0.25301 0.0
Li354 Li 0.57767 0.4573 0.25974 0.0
Li355 Li 0.54472 0.45086 0.2173 0.0
C356 C 0.55954 0.43365 0.33249 0.0
N357 N 0.56722 0.43521 0.40464 0.0
C358 C 0.54752 0.41138 0.35247 0.0
C359 C 0.57587 0.4566 0.34918 0.0
C360 C 0.55152 0.41259 0.38892 0.0
C361 C 0.5794 0.45704 0.38566 0.0
C362 C 0.49085 0.40595 0.24488 0.0
C363 C 0.46054 0.36696 0.21641 0.0
N364 N 0.44531 0.36071 0.24527 0.0
C365 C 0.47477 0.39922 0.27411 0.0
C366 C 0.48357 0.38979 0.21564 0.0
C367 C 0.45187 0.37625 0.27385 0.0
C368 C 0.5212 0.4818 0.3158 0.0
N369 N 0.52175 0.45986 0.31907 0.0
C370 C 0.50249 0.45233 0.376 0.0
C371 C 0.51212 0.44486 0.34804 0.0
C372 C 0.50257 0.47538 0.37399 0.0
C373 C 0.51172 0.49002 0.34315 0.0
H374 H 0.52861 0.49317 0.2922 0.0
H375 H 0.51188 0.42706 0.34948 0.0
C376 C 0.53017 0.36918 0.2259 0.0
N377 N 0.52348 0.37932 0.25289 0.0
C378 C 0.51937 0.34302 0.22288 0.0
C379 C 0.49578 0.33804 0.27647 0.0
C380 C 0.50667 0.36439 0.27805 0.0
C381 C 0.50196 0.3272 0.24832 0.0
H382 H 0.54387 0.38138 0.20664 0.0
H383 H 0.50147 0.37291 0.29905 0.0
C384 C 0.57911 0.50392 0.25813 0.0
N385 N 0.61352 0.5546 0.26993 0.0
C386 C 0.59102 0.52026 0.22972 0.0
C387 C 0.58431 0.51354 0.29252 0.0
C388 C 0.60848 0.54576 0.23622 0.0
C389 C 0.60185 0.53916 0.29795 0.0
C390 C 0.57238 0.43433 0.18403 0.0
C391 C 0.59765 0.44967 0.17385 0.0
C392 C 0.55428 0.41945 0.1587 0.0
C393 C 0.60431 0.45022 0.13843 0.0
C394 C 0.56168 0.42056 0.12354 0.0
N395 N 0.58633 0.43581 0.11421 0.0
C396 C 0.62101 0.46215 0.29297 0.0
C397 C 0.63022 0.49365 0.24961 0.0
C398 C 0.64674 0.47202 0.29972 0.0
N399 N 0.61323 0.47314 0.26851 0.0
C400 C 0.65622 0.50379 0.2549 0.0
C401 C 0.66464 0.4929 0.28027 0.0
H402 H 0.60726 0.44529 0.30669 0.0
H403 H 0.62366 0.50154 0.22947 0.0
C404 C 0.51376 0.44835 0.16091 0.0
N405 N 0.53828 0.45974 0.17177 0.0
C406 C 0.50797 0.45094 0.1261 0.0
C407 C 0.55271 0.47821 0.11475 0.0
C408 C 0.55765 0.47486 0.14975 0.0
C409 C 0.52763 0.46567 0.10244 0.0
H410 H 0.4987 0.43665 0.17899 0.0
H411 H 0.57702 0.48332 0.1588 0.0
O412 O 0.55559 0.43284 0.29678 0.0
O413 O 0.51359 0.42818 0.24494 0.0
O414 O 0.56189 0.47886 0.25216 0.0
O415 O 0.56548 0.43378 0.21861 0.0
H416 H 0.53516 0.39337 0.34004 0.0
H417 H 0.58605 0.47382 0.33405 0.0
H418 H 0.54218 0.39552 0.4047 0.0
H419 H 0.59195 0.47472 0.39886 0.0
H420 H 0.45481 0.35419 0.19409 0.0
H421 H 0.47991 0.41155 0.29681 0.0
H422 H 0.49567 0.39467 0.19273 0.0
H423 H 0.43932 0.37078 0.29639 0.0
H424 H 0.49504 0.44018 0.39894 0.0
H425 H 0.51221 0.50796 0.34057 0.0
H426 H 0.52486 0.33522 0.20116 0.0
H427 H 0.48243 0.32627 0.29659 0.0
H428 H 0.58697 0.51336 0.20292 0.0
H429 H 0.57467 0.50152 0.31481 0.0
H430 H 0.61798 0.55854 0.21444 0.0
H431 H 0.60608 0.54678 0.32446 0.0
H432 H 0.612 0.46099 0.19304 0.0
H433 H 0.53466 0.40745 0.16599 0.0
H434 H 0.62378 0.4621 0.13021 0.0
H435 H 0.5478 0.40934 0.10366 0.0
H436 H 0.65262 0.46277 0.31887 0.0
H437 H 0.66961 0.51969 0.23906 0.0
H438 H 0.48836 0.4413 0.11764 0.0
H439 H 0.56836 0.48959 0.09716 0.0
Li440 Li 0.08352 0.54406 0.7763 0.0
Li441 Li 0.11945 0.5402 0.75539 0.0
Li442 Li 0.11826 0.58075 0.7494 0.0
Li443 Li 0.09185 0.54432 0.71151 0.0
C444 C 0.11733 0.56166 0.82859 0.0
N445 N 0.11229 0.55827 0.9012 0.0
C446 C 0.12279 0.54522 0.84738 0.0
C447 C 0.10959 0.57659 0.84677 0.0
C448 C 0.12008 0.54375 0.88408 0.0
C449 C 0.10705 0.57453 0.88346 0.0
C450 C 0.0773 0.4922 0.74197 0.0
C451 C 0.07886 0.4602 0.70633 0.0
N452 N 0.06639 0.44279 0.73211 0.0
C453 C 0.06423 0.47392 0.76792 0.0
C454 C 0.08444 0.48523 0.71077 0.0
C455 C 0.05899 0.44907 0.76251 0.0
C456 C 0.04345 0.54425 0.81292 0.0
N457 N 0.05851 0.53372 0.8122 0.0
C458 C 0.04241 0.51374 0.8679 0.0
C459 C 0.05773 0.51809 0.83838 0.0
C460 C 0.02764 0.52548 0.87029 0.0
C461 C 0.02777 0.54036 0.84187 0.0
H462 H 0.04421 0.55636 0.79156 0.0
H463 H 0.07001 0.51007 0.83724 0.0
C464 C 0.16649 0.54427 0.75598 0.0
N465 N 0.14189 0.5276 0.7638 0.0
C466 C 0.18495 0.53741 0.7603 0.0
C467 C 0.15262 0.49652 0.78187 0.0
C468 C 0.13469 0.50419 0.77699 0.0
C469 C 0.17809 0.51318 0.77312 0.0
H470 H 0.17175 0.56296 0.74626 0.0
H471 H 0.11516 0.4915 0.78395 0.0
C472 C 0.08002 0.58701 0.73165 0.0
N473 N 0.07806 0.63049 0.71761 0.0
C474 C 0.07684 0.59284 0.69702 0.0
C475 C 0.08194 0.60315 0.75919 0.0
C476 C 0.07594 0.61494 0.69045 0.0
C477 C 0.08099 0.62509 0.75153 0.0
C478 C 0.14167 0.56489 0.68412 0.0
C479 C 0.15274 0.58689 0.66356 0.0
C480 C 0.14391 0.5441 0.67367 0.0
C481 C 0.16531 0.5875 0.63242 0.0
C482 C 0.15665 0.54544 0.64239 0.0
N483 N 0.16696 0.56692 0.62254 0.0
C484 C 0.15172 0.62616 0.78281 0.0
C485 C 0.14179 0.63219 0.72441 0.0
C486 C 0.16782 0.65213 0.78696 0.0
N487 N 0.13907 0.61671 0.75198 0.0
C488 C 0.15791 0.6584 0.72733 0.0
C489 C 0.17119 0.66862 0.75897 0.0
H490 H 0.14971 0.61348 0.80405 0.0
H491 H 0.13162 0.62422 0.70008 0.0
C492 C 0.05527 0.5103 0.66422 0.0
N493 N 0.07676 0.53328 0.66626 0.0
C494 C 0.04398 0.50056 0.63158 0.0
C495 C 0.07642 0.53888 0.60386 0.0
C496 C 0.08721 0.54778 0.63704 0.0
C497 C 0.05469 0.51484 0.60084 0.0
H498 H 0.04699 0.49942 0.68796 0.0
H499 H 0.10384 0.5663 0.63946 0.0
O500 O 0.11955 0.5631 0.79259 0.0
O501 O 0.08263 0.51665 0.74694 0.0
O502 O 0.08118 0.56556 0.73856 0.0
O503 O 0.12938 0.56405 0.71479 0.0
H504 H 0.12887 0.53358 0.83379 0.0
H505 H 0.10533 0.58944 0.83267 0.0
H506 H 0.1241 0.531 0.89894 0.0
H507 H 0.10086 0.5858 0.89782 0.0
H508 H 0.08434 0.45459 0.68232 0.0
H509 H 0.05822 0.47883 0.79202 0.0
H510 H 0.09389 0.49889 0.68997 0.0
H511 H 0.04902 0.43478 0.78248 0.0
H512 H 0.04312 0.50235 0.88934 0.0
H513 H 0.01632 0.54938 0.84235 0.0
H514 H 0.20446 0.55108 0.75404 0.0
H515 H 0.14658 0.47771 0.79195 0.0
H516 H 0.07512 0.58048 0.67544 0.0
H517 H 0.0844 0.59893 0.78614 0.0
H518 H 0.07358 0.61974 0.66376 0.0
H519 H 0.08265 0.63785 0.77255 0.0
H520 H 0.1515 0.60328 0.6714 0.0
H521 H 0.13624 0.52722 0.68973 0.0
H522 H 0.17377 0.60434 0.61613 0.0
H523 H 0.15846 0.52945 0.63398 0.0
H524 H 0.17816 0.65913 0.8115 0.0
H525 H 0.16001 0.6705 0.70511 0.0
H526 H 0.02691 0.48216 0.63045 0.0
H527 H 0.0852 0.5505 0.58077 0.0
H528 H 0.50455 0.20214 0.28916 0.0
H529 H 0.47019 0.1751 0.18634 0.0
H530 H 0.4612 0.2103 0.18238 0.0
H531 H 0.46188 0.22742 0.31836 0.0
H532 H 0.48793 0.25411 0.33996 0.0
H533 H 0.4871 0.22414 0.33779 0.0
H534 H 0.5315 0.24631 0.30863 0.0
H535 H 0.53242 0.27621 0.31047 0.0
H536 H 0.53653 0.26444 0.26879 0.0
H537 H 0.46302 0.25189 0.18468 0.0
H538 H 0.47481 0.29668 0.19375 0.0
H539 H 0.50672 0.29634 0.2958 0.0
C540 C 0.49421 0.20305 0.26647 0.0
C541 C 0.48792 0.18585 0.23813 0.0
C542 C 0.47521 0.18815 0.20829 0.0
C543 C 0.46986 0.20794 0.20595 0.0
C544 C 0.4771 0.22511 0.23383 0.0
C545 C 0.48876 0.22271 0.26373 0.0
C546 C 0.4973 0.24528 0.28807 0.0
C547 C 0.48267 0.23725 0.32312 0.0
C548 C 0.52614 0.25885 0.29432 0.0
C549 C 0.48982 0.26135 0.26633 0.0
C550 C 0.47781 0.24918 0.23539 0.0
C551 C 0.47174 0.26134 0.20921 0.0
C552 C 0.47855 0.28673 0.21448 0.0
C553 C 0.49121 0.29957 0.24569 0.0
C554 C 0.49634 0.28656 0.27225 0.0
H555 H 0.30904 0.52152 0.72945 0.0
H556 H 0.3048 0.48699 0.83125 0.0
H557 H 0.2611 0.47911 0.83904 0.0
H558 H 0.27941 0.55484 0.75473 0.0
H559 H 0.26281 0.55072 0.71367 0.0
H560 H 0.29211 0.55034 0.71415 0.0
H561 H 0.26992 0.50611 0.68428 0.0
H562 H 0.2405 0.50639 0.68357 0.0
H563 H 0.24195 0.48048 0.70419 0.0
H564 H 0.21963 0.47943 0.83821 0.0
H565 H 0.18435 0.48793 0.82887 0.0
H566 H 0.21638 0.52217 0.72754 0.0
C567 C 0.29882 0.51205 0.75324 0.0
C568 C 0.31027 0.50489 0.77979 0.0
C569 C 0.29624 0.49237 0.81041 0.0
C570 C 0.27146 0.48788 0.81507 0.0
C571 C 0.26098 0.49579 0.78869 0.0
C572 C 0.2742 0.50743 0.75825 0.0
C573 C 0.25955 0.51573 0.73493 0.0
C574 C 0.27435 0.54462 0.72905 0.0
C575 C 0.25256 0.50131 0.69966 0.0
C576 C 0.23637 0.50779 0.75755 0.0
C577 C 0.23729 0.496 0.78824 0.0
C578 C 0.21854 0.4883 0.81402 0.0
C579 C 0.19855 0.49313 0.80846 0.0
C580 C 0.19767 0.50574 0.77751 0.0
C581 C 0.21662 0.51265 0.75157 0.0
H582 H 0.69042 0.21462 0.21132 0.0
H583 H 0.69501 0.18164 0.31066 0.0
H584 H 0.73963 0.21559 0.31723 0.0
H585 H 0.75668 0.2381 0.1825 0.0
H586 H 0.75935 0.26658 0.16393 0.0
H587 H 0.72907 0.23772 0.1646 0.0
H588 H 0.70941 0.26092 0.1979 0.0
H589 H 0.73953 0.28977 0.19727 0.0
H590 H 0.72359 0.27711 0.23868 0.0
H591 H 0.78158 0.256 0.31679 0.0
H592 H 0.81769 0.29952 0.30906 0.0
H593 H 0.78555 0.30598 0.21012 0.0
C594 C 0.7009 0.21435 0.23426 0.0
C595 C 0.68927 0.19548 0.26047 0.0
C596 C 0.70365 0.19572 0.29001 0.0
C597 C 0.72898 0.21494 0.29399 0.0
C598 C 0.73969 0.2336 0.26801 0.0
C599 C 0.72614 0.23333 0.23858 0.0
C600 C 0.74128 0.2566 0.21591 0.0
C601 C 0.74693 0.24931 0.17959 0.0
C602 C 0.72764 0.272 0.21226 0.0
C603 C 0.76512 0.2705 0.23786 0.0
C604 C 0.76399 0.2568 0.26759 0.0
C605 C 0.78289 0.2667 0.29329 0.0
C606 C 0.80324 0.29142 0.28878 0.0
C607 C 0.80446 0.30591 0.25884 0.0
C608 C 0.78541 0.29505 0.23277 0.0
H609 H 0.4844 0.78687 0.70673 0.0
H610 H 0.52011 0.82045 0.80672 0.0
H611 H 0.53018 0.78623 0.81564 0.0
H612 H 0.45351 0.7255 0.73475 0.0
H613 H 0.45727 0.71182 0.69463 0.0
H614 H 0.45723 0.74126 0.69303 0.0
H615 H 0.50106 0.76287 0.66212 0.0
H616 H 0.50118 0.73335 0.66342 0.0
H617 H 0.52716 0.76155 0.68234 0.0
H618 H 0.53021 0.74487 0.81779 0.0
H619 H 0.52056 0.70045 0.81267 0.0
H620 H 0.48535 0.69452 0.71086 0.0
C621 C 0.49481 0.7873 0.73016 0.0
C622 C 0.50151 0.80627 0.75602 0.0
C623 C 0.51511 0.80625 0.78635 0.0
C624 C 0.52086 0.78687 0.79165 0.0
C625 C 0.51319 0.76793 0.76613 0.0
C626 C 0.50072 0.7682 0.73576 0.0
C627 C 0.49235 0.74453 0.71398 0.0
C628 C 0.46338 0.72993 0.70883 0.0
C629 C 0.50628 0.75097 0.67836 0.0
C630 C 0.5009 0.73028 0.73766 0.0
C631 C 0.51329 0.7442 0.76732 0.0
C632 C 0.52103 0.73401 0.79431 0.0
C633 C 0.51552 0.70879 0.79114 0.0
C634 C 0.5022 0.69404 0.76138 0.0
C635 C 0.49547 0.70528 0.73399 0.0
H636 H 0.69711 0.49539 0.22935 0.0
H637 H 0.6925 0.50788 0.34098 0.0
H638 H 0.73628 0.51608 0.3493 0.0
H639 H 0.72564 0.45986 0.23961 0.0
H640 H 0.74557 0.47131 0.20104 0.0
H641 H 0.71639 0.47187 0.20239 0.0
H642 H 0.74071 0.52013 0.18955 0.0
H643 H 0.77006 0.5197 0.1879 0.0
H644 H 0.76683 0.54106 0.21753 0.0
H645 H 0.77804 0.51747 0.34668 0.0
H646 H 0.81331 0.50957 0.33413 0.0
H647 H 0.78986 0.49453 0.22452 0.0
C648 C 0.70577 0.50083 0.25523 0.0
C649 C 0.69184 0.50155 0.28444 0.0
C650 C 0.70317 0.50761 0.31828 0.0
C651 C 0.72799 0.51237 0.32317 0.0
C652 C 0.74107 0.51084 0.29395 0.0
C653 C 0.73034 0.50521 0.2606 0.0
C654 C 0.7469 0.50132 0.23456 0.0
C655 C 0.73278 0.4745 0.21849 0.0
C656 C 0.75671 0.52178 0.20568 0.0
C657 C 0.76813 0.50464 0.25871 0.0
C658 C 0.76476 0.51073 0.29266 0.0
C659 C 0.78111 0.51313 0.32007 0.0
C660 C 0.80111 0.50868 0.3127 0.0
C661 C 0.80428 0.50151 0.27837 0.0
C662 C 0.78787 0.50003 0.25099 0.0
H663 H 0.30077 0.7924 0.71421 0.0
H664 H 0.29933 0.81754 0.82073 0.0
H665 H 0.25492 0.78296 0.82733 0.0
H666 H 0.23241 0.76867 0.69175 0.0
H667 H 0.22995 0.74189 0.668 0.0
H668 H 0.25969 0.77133 0.66923 0.0
H669 H 0.28186 0.74768 0.69387 0.0
H670 H 0.25228 0.71829 0.69278 0.0
H671 H 0.26983 0.72902 0.73351 0.0
H672 H 0.21322 0.74298 0.8251 0.0
H673 H 0.17795 0.6994 0.81543 0.0
H674 H 0.20705 0.69933 0.71097 0.0
C675 C 0.29073 0.79108 0.73842 0.0
C676 C 0.30316 0.80772 0.76682 0.0
C677 C 0.28992 0.805 0.79865 0.0
C678 C 0.26471 0.78554 0.80252 0.0
C679 C 0.25312 0.769 0.7743 0.0
C680 C 0.26568 0.77156 0.74283 0.0
C681 C 0.25015 0.74948 0.71832 0.0
C682 C 0.2426 0.75838 0.68484 0.0
C683 C 0.26438 0.73528 0.70911 0.0
C684 C 0.22733 0.7336 0.74144 0.0
C685 C 0.22917 0.74546 0.77331 0.0
C686 C 0.21138 0.73366 0.80006 0.0
C687 C 0.19151 0.70887 0.79442 0.0
C688 C 0.18976 0.69604 0.76243 0.0
C689 C 0.20758 0.70887 0.73534 0.0
H690 H 0.4907 0.0004 0.90949 0.0
H691 H 0.52239 0.9507 0.91855 0.0
H692 H 0.53761 0.96705 0.97842 0.0
H693 H 0.53954 0.05346 0.95953 0.0
H694 H 0.51722 0.06054 0.98036 0.0
H695 H 0.5107 0.04652 0.937 0.0
H696 H 0.46777 0.0097 0.95932 0.0
H697 H 0.4742 0.02354 0.00276 0.0
H698 H 0.4673 0.99134 0.99695 0.0
H699 H 0.54752 0.9871 0.03832 0.0
H700 H 0.55116 0.00942 0.09439 0.0
H701 H 0.51188 0.04497 0.04693 0.0
C702 C 0.50093 0.99301 0.92397 0.0
C703 C 0.50557 0.97445 0.90908 0.0
C704 C 0.51911 0.96536 0.92896 0.0
C705 C 0.52768 0.97438 0.96313 0.0
C706 C 0.5225 0.99243 0.97711 0.0
C707 C 0.50946 0.00167 0.95818 0.0
C708 C 0.5054 0.02018 0.97989 0.0
C709 C 0.51904 0.04675 0.9632 0.0
C710 C 0.47698 0.01061 0.98503 0.0
C711 C 0.51787 0.0196 0.01416 0.0
C712 C 0.5278 0.00364 0.01191 0.0
C713 C 0.53996 -0.00023 0.04036 0.0
C714 C 0.542 0.01257 0.07201 0.0
C715 C 0.53179 0.02888 0.07494 0.0
C716 C 0.51964 0.03242 0.04554 0.0
H717 H 0.51228 0.4733 0.44407 0.0
H718 H 0.47324 0.49792 0.37241 0.0
H719 H 0.45936 0.51345 0.42319 0.0
H720 H 0.46561 0.45132 0.51355 0.0
H721 H 0.48889 0.4621 0.54838 0.0
H722 H 0.49562 0.45292 0.50636 0.0
H723 H 0.53641 0.4968 0.5008 0.0
H724 H 0.5298 0.50612 0.54277 0.0
H725 H 0.53427 0.52519 0.50413 0.0
H726 H 0.44998 0.5264 0.48186 0.0
H727 H 0.44574 0.53584 0.54409 0.0
H728 H 0.49092 0.50254 0.57696 0.0
C729 C 0.50055 0.48167 0.43905 0.0
C730 C 0.49377 0.48434 0.4043 0.0
C731 C 0.47884 0.49589 0.3988 0.0
C732 C 0.47077 0.50464 0.42746 0.0
C733 C 0.47782 0.5017 0.46136 0.0
C734 C 0.49237 0.49049 0.46726 0.0
C735 C 0.49764 0.48986 0.50618 0.0
C736 C 0.48625 0.46242 0.51939 0.0
C737 C 0.52623 0.50542 0.51391 0.0
C738 C 0.48373 0.50243 0.52132 0.0
C739 C 0.47244 0.50915 0.49507 0.0
C740 C 0.45875 0.52125 0.50264 0.0
C741 C 0.45658 0.52666 0.53801 0.0
C742 C 0.46803 0.51995 0.56533 0.0
C743 C 0.48171 0.50763 0.55671 0.0
H744 H 0.00026 0.48358 0.91228 0.0
H745 H 0.0241 0.56349 0.90332 0.0
H746 H 0.00341 0.56144 0.96011 0.0
H747 H 0.93921 0.46359 0.95439 0.0
H748 H 0.94151 0.44111 0.98283 0.0
H749 H 0.95654 0.44837 0.94012 0.0
H750 H -0.00044 0.4606 0.96961 0.0
H751 H 0.9847 0.45344 0.01237 0.0
H752 H 0.0117 0.4843 0.0039 0.0
H753 H 0.98277 0.55156 0.01951 0.0
H754 H 0.96235 0.53405 0.077 0.0
H755 H 0.9526 0.46081 0.04782 0.0
C756 C 0.001 0.50061 0.92215 0.0
C757 C 0.01364 0.52364 0.9032 0.0
C758 C 0.0141 0.5455 0.91699 0.0
C759 C 0.00255 0.54458 0.94935 0.0
C760 C 0.99056 0.52166 0.96754 0.0
C761 C 0.98957 0.50003 0.9544 0.0
C762 C 0.97627 0.47804 0.97982 0.0
C763 C 0.95194 0.45651 0.9633 0.0
C764 C 0.99413 0.46855 0.99215 0.0
C765 C 0.97029 0.49081 0.00954 0.0
C766 C 0.97863 0.51595 0.00187 0.0
C767 C 0.97602 0.53187 0.02575 0.0
C768 C 0.96457 0.52181 0.05839 0.0
C769 C 0.9559 0.4961 0.06681 0.0
C770 C 0.95872 0.48044 0.0419 0.0
H771 H 0.52738 0.02976 0.43347 0.0
H772 H 0.45474 0.99126 0.37968 0.0
H773 H 0.43591 0.96309 0.4312 0.0
H774 H 0.52237 0.97463 0.47705 0.0
H775 H 0.53744 0.99163 0.51696 0.0
H776 H 0.54541 0.00798 0.4752 0.0
H777 H 0.53386 0.04054 0.50008 0.0
H778 H 0.52588 0.02432 0.54189 0.0
H779 H 0.5029 0.02943 0.51893 0.0
H780 H 0.42467 0.94032 0.48951 0.0
H781 H 0.422 0.92412 0.55011 0.0
H782 H 0.50182 0.97825 0.56588 0.0
C783 C 0.50749 0.01544 0.43253 0.0
C784 C 0.49253 0.01268 0.40255 0.0
C785 C 0.46665 0.9935 0.40219 0.0
C786 C 0.45576 0.9775 0.43138 0.0
C787 C 0.47102 0.98091 0.46061 0.0
C788 C 0.49634 -0.00064 0.46136 0.0
C789 C 0.50849 -0.00055 0.49624 0.0
C790 C 0.52968 0.99303 0.49104 0.0
C791 C 0.51835 0.02495 0.51541 0.0
C792 C 0.48598 0.97832 0.51515 0.0
C793 C 0.46456 0.96783 0.49415 0.0
C794 C 0.44132 0.94835 0.50619 0.0
C795 C 0.43996 0.9394 0.54067 0.0
C796 C 0.4617 0.94995 0.56265 0.0
C797 C 0.48498 0.96959 0.54953 0.0
H798 H 0.52526 0.53428 0.92482 0.0
H799 H 0.47239 0.45973 0.88324 0.0
H800 H 0.47844 0.44004 0.93649 0.0
H801 H 0.56788 0.51619 0.96971 0.0
H802 H 0.57296 0.5369 0.0066 0.0
H803 H 0.56684 0.54498 0.96334 0.0
H804 H 0.52913 0.54836 0.98858 0.0
H805 H 0.535 0.54014 0.03179 0.0
H806 H 0.50419 0.52172 0.01181 0.0
H807 H 0.48626 0.42872 0.99675 0.0
H808 H 0.4972 0.42642 0.05897 0.0
H809 H 0.54499 0.50824 0.0615 0.0
C810 C 0.51523 0.5138 0.92671 0.0
C811 C 0.49845 0.49853 0.8998 0.0
C812 C 0.48569 0.4718 0.90322 0.0
C813 C 0.48889 0.46044 0.93345 0.0
C814 C 0.50508 0.47607 0.95986 0.0
C815 C 0.51827 0.50216 0.95665 0.0
C816 C 0.53338 0.51469 0.9897 0.0
C817 C 0.56196 0.52903 0.98186 0.0
C818 C 0.5249 0.53226 0.00645 0.0
C819 C 0.52602 0.49159 0.01241 0.0
C820 C 0.50979 0.4695 0.99462 0.0
C821 C 0.49922 0.44584 0.01081 0.0
C822 C 0.50537 0.44474 0.04616 0.0
C823 C 0.52194 0.46715 0.06485 0.0
C824 C 0.53257 0.49081 0.04759 0.0
H825 H 0.04541 0.53966 0.5477 0.0
H826 H 0.03765 0.46701 0.57542 0.0
H827 H 0.01704 0.44951 0.51797 0.0
H828 H 0.986 0.51524 0.50547 0.0
H829 H 0.99713 0.53908 0.47141 0.0
H830 H 0.01271 0.54635 0.51369 0.0
H831 H 0.05561 0.55969 0.48304 0.0
H832 H 0.04015 0.55251 0.44061 0.0
H833 H 0.05819 0.53778 0.45375 0.0
H834 H 0.99583 0.43951 0.45885 0.0
H835 H 0.97421 0.43721 0.40273 0.0
H836 H 0.99627 0.51659 0.41317 0.0
C837 C 0.03973 0.52019 0.54142 0.0
C838 C 0.04314 0.50467 0.56591 0.0
C839 C 0.03501 0.47914 0.55709 0.0
C840 C 0.02346 0.4691 0.52448 0.0
C841 C 0.02021 0.48486 0.50103 0.0
C842 C 0.02807 0.50984 0.50907 0.0
C843 C 0.02128 0.52239 0.4799 0.0
C844 C 0.00321 0.53128 0.49344 0.0
C845 C 0.04524 0.54439 0.46335 0.0
C846 C 0.00806 0.50044 0.45442 0.0
C847 C 0.00785 0.47904 0.46696 0.0
C848 C 0.99609 0.4562 0.44855 0.0
C849 C 0.984 0.45514 0.41659 0.0
C850 C 0.98369 0.47676 0.40343 0.0
C851 C 0.99611 0.49972 0.42258 0.0
loop_
_geom_bond_atom_site_label_1
_geom_bond_atom_site_label_2
_geom_bond_distance
_geom_bond_site_symmetry_2
_ccdc_geom_bond_type
Li0 N17 1.990 . S
Li0 O60 1.956 . S
Li0 O61 1.970 . S
Li0 O62 1.961 . S
Li1 N25 1.990 . S
Li1 O60 1.970 . S
Li1 O61 1.956 . S
Li1 O63 1.961 . S
Li2 N47 1.990 . S
Li2 O60 1.961 . S
Li2 O62 1.956 . S
Li2 O63 1.970 . S
Li3 N53 1.990 . S
Li3 O61 1.961 . S
Li3 O62 1.970 . S
Li3 O63 1.956 . S
C4 C6 1.348 . S
C4 C7 1.356 . S
C4 O60 1.325 . S
N5 C8 1.314 . S
N5 C9 1.279 . S
C6 C4 1.348 . S
C6 C8 1.353 . S
C6 H64 0.929 . S
C7 C4 1.356 . S
C7 C9 1.358 . S
C7 H65 0.930 . S
C8 N5 1.314 . S
C8 C6 1.353 . S
C8 H66 0.930 . S
C9 N5 1.279 . S
C9 C7 1.358 . S
C9 H67 0.930 . S
C10 C13 1.348 . S
C10 C14 1.356 . S
C10 O61 1.325 . S
C11 N12 1.279 . S
C11 C14 1.358 . S
C11 H68 0.930 . S
N12 C11 1.279 . S
N12 C15 1.314 . S
C13 C10 1.348 . S
C13 C15 1.353 . S
C13 H69 0.929 . S
C14 C10 1.356 . S
C14 C11 1.358 . S
C14 H70 0.930 . S
C15 N12 1.314 . S
C15 C13 1.353 . S
C15 H71 0.930 . S
C16 N17 1.314 . S
C16 C21 1.353 . S
C16 H22 0.930 . S
N17 Li0 1.990 . S
N17 C16 1.314 . S
N17 C19 1.279 . S
C18 C19 1.358 . S
C18 C20 1.356 . S
C18 H72 0.930 . S
C19 N17 1.279 . S
C19 C18 1.358 . S
C19 H23 0.930 . S
C20 C18 1.356 . S
C20 C21 1.348 . S
C21 C16 1.353 . S
C21 C20 1.348 . S
C21 H73 0.929 . S
H22 C16 0.930 . S
H23 C19 0.930 . S
C24 N25 1.314 . S
C24 C26 1.353 . S
C24 H30 0.930 . S
N25 Li1 1.990 . S
N25 C24 1.314 . S
N25 C28 1.279 . S
C26 C24 1.353 . S
C26 C29 1.348 . S
C26 H74 0.929 . S
C27 C28 1.358 . S
C27 C29 1.356 . S
C27 H75 0.930 . S
C28 N25 1.279 . S
C28 C27 1.358 . S
C28 H31 0.930 . S
C29 C26 1.348 . S
C29 C27 1.356 . S
H30 C24 0.930 . S
H31 C28 0.930 . S
C32 C34 1.348 . S
C32 C35 1.356 . S
C32 O62 1.325 . S
N33 C36 1.314 . S
N33 C37 1.279 . S
C34 C32 1.348 . S
C34 C36 1.353 . S
C34 H76 0.929 . S
C35 C32 1.356 . S
C35 C37 1.358 . S
C35 H77 0.930 . S
C36 N33 1.314 . S
C36 C34 1.353 . S
C36 H78 0.930 . S
C37 N33 1.279 . S
C37 C35 1.358 . S
C37 H79 0.930 . S
C38 C39 1.348 . S
C38 C40 1.356 . S
C38 O63 1.325 . S
C39 C38 1.348 . S
C39 C41 1.353 . S
C39 H80 0.929 . S
C40 C38 1.356 . S
C40 C42 1.358 . S
C40 H81 0.930 . S
C41 C39 1.353 . S
C41 N43 1.314 . S
C41 H82 0.930 . S
C42 C40 1.358 . S
C42 N43 1.279 . S
C42 H83 0.930 . S
N43 C41 1.314 . S
N43 C42 1.279 . S
C44 C46 1.353 . S
C44 N47 1.314 . S
C44 H50 0.930 . S
C45 N47 1.279 . S
C45 C48 1.358 . S
C45 H51 0.930 . S
C46 C44 1.353 . S
C46 C49 1.348 . S
C46 H84 0.929 . S
N47 Li2 1.990 . S
N47 C44 1.314 . S
N47 C45 1.279 . S
C48 C45 1.358 . S
C48 C49 1.356 . S
C48 H85 0.930 . S
C49 C46 1.348 . S
C49 C48 1.356 . S
H50 C44 0.930 . S
H51 C45 0.930 . S
C52 N53 1.314 . S
C52 C54 1.353 . S
C52 H58 0.930 . S
N53 Li3 1.990 . S
N53 C52 1.314 . S
N53 C56 1.279 . S
C54 C52 1.353 . S
C54 C57 1.348 . S
C54 H86 0.929 . S
C55 C56 1.358 . S
C55 C57 1.356 . S
C55 H87 0.930 . S
C56 N53 1.279 . S
C56 C55 1.358 . S
C56 H59 0.930 . S
C57 C54 1.348 . S
C57 C55 1.356 . S
H58 C52 0.930 . S
H59 C56 0.930 . S
O60 Li0 1.956 . S
O60 Li1 1.970 . S
O60 Li2 1.961 . S
O60 C4 1.325 . S
O61 Li0 1.970 . S
O61 Li1 1.956 . S
O61 Li3 1.961 . S
O61 C10 1.325 . S
O62 Li0 1.961 . S
O62 Li2 1.956 . S
O62 Li3 1.970 . S
O62 C32 1.325 . S
O63 Li1 1.961 . S
O63 Li2 1.970 . S
O63 Li3 1.956 . S
O63 C38 1.325 . S
H64 C6 0.929 . S
H65 C7 0.930 . S
H66 C8 0.930 . S
H67 C9 0.930 . S
H68 C11 0.930 . S
H69 C13 0.929 . S
H70 C14 0.930 . S
H71 C15 0.930 . S
H72 C18 0.930 . S
H73 C21 0.929 . S
H74 C26 0.929 . S
H75 C27 0.930 . S
H76 C34 0.929 . S
H77 C35 0.930 . S
H78 C36 0.930 . S
H79 C37 0.930 . S
H80 C39 0.929 . S
H81 C40 0.930 . S
H82 C41 0.930 . S
H83 C42 0.930 . S
H84 C46 0.929 . S
H85 C48 0.930 . S
H86 C54 0.929 . S
H87 C55 0.930 . S
Li88 N105 1.990 . S
Li88 O148 1.956 . S
Li88 O149 1.970 . S
Li88 O150 1.961 . S
Li89 N113 1.990 . S
Li89 O148 1.970 . S
Li89 O149 1.956 . S
Li89 O151 1.961 . S
Li90 N135 1.990 . S
Li90 O148 1.961 . S
Li90 O150 1.956 . S
Li90 O151 1.970 . S
Li91 N141 1.990 . S
Li91 O149 1.961 . S
Li91 O150 1.970 . S
Li91 O151 1.956 . S
C92 C94 1.348 . S
C92 C95 1.356 . S
C92 O148 1.325 . S
N93 C96 1.314 . S
N93 C97 1.279 . S
C94 C92 1.348 . S
C94 C96 1.353 . S
C94 H152 0.929 . S
C95 C92 1.356 . S
C95 C97 1.358 . S
C95 H153 0.930 . S
C96 N93 1.314 . S
C96 C94 1.353 . S
C96 H154 0.930 . S
C97 N93 1.279 . S
C97 C95 1.358 . S
C97 H155 0.930 . S
C98 C101 1.348 . S
C98 C102 1.356 . S
C98 O149 1.325 . S
C99 N100 1.279 . S
C99 C102 1.358 . S
C99 H156 0.930 . S
N100 C99 1.279 . S
N100 C103 1.314 . S
C101 C98 1.348 . S
C101 C103 1.353 . S
C101 H157 0.929 . S
C102 C98 1.356 . S
C102 C99 1.358 . S
C102 H158 0.930 . S
C103 N100 1.314 . S
C103 C101 1.353 . S
C103 H159 0.930 . S
C104 N105 1.314 . S
C104 C109 1.353 . S
C104 H110 0.930 . S
N105 Li88 1.990 . S
N105 C104 1.314 . S
N105 C107 1.279 . S
C106 C107 1.358 . S
C106 C108 1.356 . S
C106 H160 0.930 . S
C107 N105 1.279 . S
C107 C106 1.358 . S
C107 H111 0.930 . S
C108 C106 1.356 . S
C108 C109 1.348 . S
C109 C104 1.353 . S
C109 C108 1.348 . S
C109 H161 0.929 . S
H110 C104 0.930 . S
H111 C107 0.930 . S
C112 N113 1.314 . S
C112 C114 1.353 . S
C112 H118 0.930 . S
N113 Li89 1.990 . S
N113 C112 1.314 . S
N113 C116 1.279 . S
C114 C112 1.353 . S
C114 C117 1.348 . S
C114 H162 0.929 . S
C115 C116 1.358 . S
C115 C117 1.356 . S
C115 H163 0.930 . S
C116 N113 1.279 . S
C116 C115 1.358 . S
C116 H119 0.930 . S
C117 C114 1.348 . S
C117 C115 1.356 . S
H118 C112 0.930 . S
H119 C116 0.930 . S
C120 C122 1.348 . S
C120 C123 1.356 . S
C120 O150 1.325 . S
N121 C124 1.314 . S
N121 C125 1.279 . S
C122 C120 1.348 . S
C122 C124 1.353 . S
C122 H164 0.929 . S
C123 C120 1.356 . S
C123 C125 1.358 . S
C123 H165 0.930 . S
C124 N121 1.314 . S
C124 C122 1.353 . S
C124 H166 0.930 . S
C125 N121 1.279 . S
C125 C123 1.358 . S
C125 H167 0.930 . S
C126 C127 1.348 . S
C126 C128 1.356 . S
C126 O151 1.325 . S
C127 C126 1.348 . S
C127 C129 1.353 . S
C127 H168 0.929 . S
C128 C126 1.356 . S
C128 C130 1.358 . S
C128 H169 0.930 . S
C129 C127 1.353 . S
C129 N131 1.314 . S
C129 H170 0.930 . S
C130 C128 1.358 . S
C130 N131 1.279 . S
C130 H171 0.930 . S
N131 C129 1.314 . S
N131 C130 1.279 . S
C132 C134 1.353 . S
C132 N135 1.314 . S
C132 H138 0.930 . S
C133 N135 1.279 . S
C133 C136 1.358 . S
C133 H139 0.930 . S
C134 C132 1.353 . S
C134 C137 1.348 . S
C134 H172 0.929 . S
N135 Li90 1.990 . S
N135 C132 1.314 . S
N135 C133 1.279 . S
C136 C133 1.358 . S
C136 C137 1.356 . S
C136 H173 0.930 . S
C137 C134 1.348 . S
C137 C136 1.356 . S
H138 C132 0.930 . S
H139 C133 0.930 . S
C140 N141 1.314 . S
C140 C142 1.353 . S
C140 H146 0.930 . S
N141 Li91 1.990 . S
N141 C140 1.314 . S
N141 C144 1.279 . S
C142 C140 1.353 . S
C142 C145 1.348 . S
C142 H174 0.929 . S
C143 C144 1.358 . S
C143 C145 1.356 . S
C143 H175 0.930 . S
C144 N141 1.279 . S
C144 C143 1.358 . S
C144 H147 0.930 . S
C145 C142 1.348 . S
C145 C143 1.356 . S
H146 C140 0.930 . S
H147 C144 0.930 . S
O148 Li88 1.956 . S
O148 Li89 1.970 . S
O148 Li90 1.961 . S
O148 C92 1.325 . S
O149 Li88 1.970 . S
O149 Li89 1.956 . S
O149 Li91 1.961 . S
O149 C98 1.325 . S
O150 Li88 1.961 . S
O150 Li90 1.956 . S
O150 Li91 1.970 . S
O150 C120 1.325 . S
O151 Li89 1.961 . S
O151 Li90 1.970 . S
O151 Li91 1.956 . S
O151 C126 1.325 . S
H152 C94 0.929 . S
H153 C95 0.930 . S
H154 C96 0.930 . S
H155 C97 0.930 . S
H156 C99 0.930 . S
H157 C101 0.929 . S
H158 C102 0.930 . S
H159 C103 0.930 . S
H160 C106 0.930 . S
H161 C109 0.929 . S
H162 C114 0.929 . S
H163 C115 0.930 . S
H164 C122 0.929 . S
H165 C123 0.930 . S
H166 C124 0.930 . S
H167 C125 0.930 . S
H168 C127 0.929 . S
H169 C128 0.930 . S
H170 C129 0.930 . S
H171 C130 0.930 . S
H172 C134 0.929 . S
H173 C136 0.930 . S
H174 C142 0.929 . S
H175 C143 0.930 . S
Li176 N193 1.990 . S
Li176 O236 1.956 . S
Li176 O237 1.970 . S
Li176 O238 1.961 . S
Li177 N201 1.990 . S
Li177 O236 1.970 . S
Li177 O237 1.956 . S
Li177 O239 1.961 . S
Li178 N223 1.990 . S
Li178 O236 1.961 . S
Li178 O238 1.956 . S
Li178 O239 1.970 . S
Li179 N229 1.990 . S
Li179 O237 1.961 . S
Li179 O238 1.970 . S
Li179 O239 1.956 . S
C180 C182 1.348 . S
C180 C183 1.356 . S
C180 O236 1.325 . S
N181 C184 1.314 . S
N181 C185 1.279 . S
C182 C180 1.348 . S
C182 C184 1.353 . S
C182 H240 0.929 . S
C183 C180 1.356 . S
C183 C185 1.358 . S
C183 H241 0.930 . S
C184 N181 1.314 . S
C184 C182 1.353 . S
C184 H242 0.930 . S
C185 N181 1.279 . S
C185 C183 1.358 . S
C185 H243 0.930 . S
C186 C189 1.348 . S
C186 C190 1.356 . S
C186 O237 1.325 . S
C187 N188 1.279 . S
C187 C190 1.358 . S
C187 H244 0.930 . S
N188 C187 1.279 . S
N188 C191 1.314 . S
C189 C186 1.348 . S
C189 C191 1.353 . S
C189 H245 0.929 . S
C190 C186 1.356 . S
C190 C187 1.358 . S
C190 H246 0.930 . S
C191 N188 1.314 . S
C191 C189 1.353 . S
C191 H247 0.930 . S
C192 N193 1.314 . S
C192 C197 1.353 . S
C192 H198 0.930 . S
N193 Li176 1.990 . S
N193 C192 1.314 . S
N193 C195 1.279 . S
C194 C195 1.358 . S
C194 C196 1.356 . S
C194 H248 0.930 . S
C195 N193 1.279 . S
C195 C194 1.358 . S
C195 H199 0.930 . S
C196 C194 1.356 . S
C196 C197 1.348 . S
C197 C192 1.353 . S
C197 C196 1.348 . S
C197 H249 0.929 . S
H198 C192 0.930 . S
H199 C195 0.930 . S
C200 N201 1.314 . S
C200 C202 1.353 . S
C200 H206 0.930 . S
N201 Li177 1.990 . S
N201 C200 1.314 . S
N201 C204 1.279 . S
C202 C200 1.353 . S
C202 C205 1.348 . S
C202 H250 0.929 . S
C203 C204 1.358 . S
C203 C205 1.356 . S
C203 H251 0.930 . S
C204 N201 1.279 . S
C204 C203 1.358 . S
C204 H207 0.930 . S
C205 C202 1.348 . S
C205 C203 1.356 . S
H206 C200 0.930 . S
H207 C204 0.930 . S
C208 C210 1.348 . S
C208 C211 1.356 . S
C208 O238 1.325 . S
N209 C212 1.314 . S
N209 C213 1.279 . S
C210 C208 1.348 . S
C210 C212 1.353 . S
C210 H252 0.929 . S
C211 C208 1.356 . S
C211 C213 1.358 . S
C211 H253 0.930 . S
C212 N209 1.314 . S
C212 C210 1.353 . S
C212 H254 0.930 . S
C213 N209 1.279 . S
C213 C211 1.358 . S
C213 H255 0.930 . S
C214 C215 1.348 . S
C214 C216 1.356 . S
C214 O239 1.325 . S
C215 C214 1.348 . S
C215 C217 1.353 . S
C215 H256 0.929 . S
C216 C214 1.356 . S
C216 C218 1.358 . S
C216 H257 0.930 . S
C217 C215 1.353 . S
C217 N219 1.314 . S
C217 H258 0.930 . S
C218 C216 1.358 . S
C218 N219 1.279 . S
C218 H259 0.930 . S
N219 C217 1.314 . S
N219 C218 1.279 . S
C220 C222 1.353 . S
C220 N223 1.314 . S
C220 H226 0.930 . S
C221 N223 1.279 . S
C221 C224 1.358 . S
C221 H227 0.930 . S
C222 C220 1.353 . S
C222 C225 1.348 . S
C222 H260 0.929 . S
N223 Li178 1.990 . S
N223 C220 1.314 . S
N223 C221 1.279 . S
C224 C221 1.358 . S
C224 C225 1.356 . S
C224 H261 0.930 . S
C225 C222 1.348 . S
C225 C224 1.356 . S
H226 C220 0.930 . S
H227 C221 0.930 . S
C228 N229 1.314 . S
C228 C230 1.353 . S
C228 H234 0.930 . S
N229 Li179 1.990 . S
N229 C228 1.314 . S
N229 C232 1.279 . S
C230 C228 1.353 . S
C230 C233 1.348 . S
C230 H262 0.929 . S
C231 C232 1.358 . S
C231 C233 1.356 . S
C231 H263 0.930 . S
C232 N229 1.279 . S
C232 C231 1.358 . S
C232 H235 0.930 . S
C233 C230 1.348 . S
C233 C231 1.356 . S
H234 C228 0.930 . S
H235 C232 0.930 . S
O236 Li176 1.956 . S
O236 Li177 1.970 . S
O236 Li178 1.961 . S
O236 C180 1.325 . S
O237 Li176 1.970 . S
O237 Li177 1.956 . S
O237 Li179 1.961 . S
O237 C186 1.325 . S
O238 Li176 1.961 . S
O238 Li178 1.956 . S
O238 Li179 1.970 . S
O238 C208 1.325 . S
O239 Li177 1.961 . S
O239 Li178 1.970 . S
O239 Li179 1.956 . S
O239 C214 1.325 . S
H240 C182 0.929 . S
H241 C183 0.930 . S
H242 C184 0.930 . S
H243 C185 0.930 . S
H244 C187 0.930 . S
H245 C189 0.929 . S
H246 C190 0.930 . S
H247 C191 0.930 . S
H248 C194 0.930 . S
H249 C197 0.929 . S
H250 C202 0.929 . S
H251 C203 0.930 . S
H252 C210 0.929 . S
H253 C211 0.930 . S
H254 C212 0.930 . S
H255 C213 0.930 . S
H256 C215 0.929 . S
H257 C216 0.930 . S
H258 C217 0.930 . S
H259 C218 0.930 . S
H260 C222 0.929 . S
H261 C224 0.930 . S
H262 C230 0.929 . S
H263 C231 0.930 . S
Li264 N281 1.990 . S
Li264 O324 1.956 . S
Li264 O325 1.970 . S
Li264 O326 1.961 . S
Li265 N289 1.990 . S
Li265 O324 1.970 . S
Li265 O325 1.956 . S
Li265 O327 1.961 . S
Li266 N311 1.990 . S
Li266 O324 1.961 . S
Li266 O326 1.956 . S
Li266 O327 1.970 . S
Li267 N317 1.990 . S
Li267 O325 1.961 . S
Li267 O326 1.970 . S
Li267 O327 1.956 . S
C268 C270 1.348 . S
C268 C271 1.356 . S
C268 O324 1.325 . S
N269 C272 1.314 . S
N269 C273 1.279 . S
C270 C268 1.348 . S
C270 C272 1.353 . S
C270 H328 0.929 . S
C271 C268 1.356 . S
C271 C273 1.358 . S
C271 H329 0.930 . S
C272 N269 1.314 . S
C272 C270 1.353 . S
C272 H330 0.930 . S
C273 N269 1.279 . S
C273 C271 1.358 . S
C273 H331 0.930 . S
C274 C277 1.348 . S
C274 C278 1.356 . S
C274 O325 1.325 . S
C275 N276 1.279 . S
C275 C278 1.358 . S
C275 H332 0.930 . S
N276 C275 1.279 . S
N276 C279 1.314 . S
C277 C274 1.348 . S
C277 C279 1.353 . S
C277 H333 0.929 . S
C278 C274 1.356 . S
C278 C275 1.358 . S
C278 H334 0.930 . S
C279 N276 1.314 . S
C279 C277 1.353 . S
C279 H335 0.930 . S
C280 N281 1.314 . S
C280 C285 1.353 . S
C280 H286 0.930 . S
N281 Li264 1.990 . S
N281 C280 1.314 . S
N281 C283 1.279 . S
C282 C283 1.358 . S
C282 C284 1.356 . S
C282 H336 0.930 . S
C283 N281 1.279 . S
C283 C282 1.358 . S
C283 H287 0.930 . S
C284 C282 1.356 . S
C284 C285 1.348 . S
C285 C280 1.353 . S
C285 C284 1.348 . S
C285 H337 0.929 . S
H286 C280 0.930 . S
H287 C283 0.930 . S
C288 N289 1.314 . S
C288 C290 1.353 . S
C288 H294 0.930 . S
N289 Li265 1.990 . S
N289 C288 1.314 . S
N289 C292 1.279 . S
C290 C288 1.353 . S
C290 C293 1.348 . S
C290 H338 0.929 . S
C291 C292 1.358 . S
C291 C293 1.356 . S
C291 H339 0.930 . S
C292 N289 1.279 . S
C292 C291 1.358 . S
C292 H295 0.930 . S
C293 C290 1.348 . S
C293 C291 1.356 . S
H294 C288 0.930 . S
H295 C292 0.930 . S
C296 C298 1.348 . S
C296 C299 1.356 . S
C296 O326 1.325 . S
N297 C300 1.314 . S
N297 C301 1.279 . S
C298 C296 1.348 . S
C298 C300 1.353 . S
C298 H340 0.929 . S
C299 C296 1.356 . S
C299 C301 1.358 . S
C299 H341 0.930 . S
C300 N297 1.314 . S
C300 C298 1.353 . S
C300 H342 0.930 . S
C301 N297 1.279 . S
C301 C299 1.358 . S
C301 H343 0.930 . S
C302 C303 1.348 . S
C302 C304 1.356 . S
C302 O327 1.325 . S
C303 C302 1.348 . S
C303 C305 1.353 . S
C303 H344 0.929 . S
C304 C302 1.356 . S
C304 C306 1.358 . S
C304 H345 0.930 . S
C305 C303 1.353 . S
C305 N307 1.314 . S
C305 H346 0.930 . S
C306 C304 1.358 . S
C306 N307 1.279 . S
C306 H347 0.930 . S
N307 C305 1.314 . S
N307 C306 1.279 . S
C308 C310 1.353 . S
C308 N311 1.314 . S
C308 H314 0.930 . S
C309 N311 1.279 . S
C309 C312 1.358 . S
C309 H315 0.930 . S
C310 C308 1.353 . S
C310 C313 1.348 . S
C310 H348 0.929 . S
N311 Li266 1.990 . S
N311 C308 1.314 . S
N311 C309 1.279 . S
C312 C309 1.358 . S
C312 C313 1.356 . S
C312 H349 0.930 . S
C313 C310 1.348 . S
C313 C312 1.356 . S
H314 C308 0.930 . S
H315 C309 0.930 . S
C316 N317 1.314 . S
C316 C318 1.353 . S
C316 H322 0.930 . S
N317 Li267 1.990 . S
N317 C316 1.314 . S
N317 C320 1.279 . S
C318 C316 1.353 . S
C318 C321 1.348 . S
C318 H350 0.929 . S
C319 C320 1.358 . S
C319 C321 1.356 . S
C319 H351 0.930 . S
C320 N317 1.279 . S
C320 C319 1.358 . S
C320 H323 0.930 . S
C321 C318 1.348 . S
C321 C319 1.356 . S
H322 C316 0.930 . S
H323 C320 0.930 . S
O324 Li264 1.956 . S
O324 Li265 1.970 . S
O324 Li266 1.961 . S
O324 C268 1.325 . S
O325 Li264 1.970 . S
O325 Li265 1.956 . S
O325 Li267 1.961 . S
O325 C274 1.325 . S
O326 Li264 1.961 . S
O326 Li266 1.956 . S
O326 Li267 1.970 . S
O326 C296 1.325 . S
O327 Li265 1.961 . S
O327 Li266 1.970 . S
O327 Li267 1.956 . S
O327 C302 1.325 . S
H328 C270 0.929 . S
H329 C271 0.930 . S
H330 C272 0.930 . S
H331 C273 0.930 . S
H332 C275 0.930 . S
H333 C277 0.929 . S
H334 C278 0.930 . S
H335 C279 0.930 . S
H336 C282 0.930 . S
H337 C285 0.929 . S
H338 C290 0.929 . S
H339 C291 0.930 . S
H340 C298 0.929 . S
H341 C299 0.930 . S
H342 C300 0.930 . S
H343 C301 0.930 . S
H344 C303 0.929 . S
H345 C304 0.930 . S
H346 C305 0.930 . S
H347 C306 0.930 . S
H348 C310 0.929 . S
H349 C312 0.930 . S
H350 C318 0.929 . S
H351 C319 0.930 . S
Li352 N369 1.990 . S
Li352 O412 1.956 . S
Li352 O413 1.970 . S
Li352 O414 1.961 . S
Li353 N377 1.990 . S
Li353 O412 1.970 . S
Li353 O413 1.956 . S
Li353 O415 1.961 . S
Li354 N399 1.990 . S
Li354 O412 1.961 . S
Li354 O414 1.956 . S
Li354 O415 1.970 . S
Li355 N405 1.990 . S
Li355 O413 1.961 . S
Li355 O414 1.970 . S
Li355 O415 1.956 . S
C356 C358 1.348 . S
C356 C359 1.356 . S
C356 O412 1.325 . S
N357 C360 1.314 . S
N357 C361 1.279 . S
C358 C356 1.348 . S
C358 C360 1.353 . S
C358 H416 0.929 . S
C359 C356 1.356 . S
C359 C361 1.358 . S
C359 H417 0.930 . S
C360 N357 1.314 . S
C360 C358 1.353 . S
C360 H418 0.930 . S
C361 N357 1.279 . S
C361 C359 1.358 . S
C361 H419 0.930 . S
C362 C365 1.348 . S
C362 C366 1.356 . S
C362 O413 1.325 . S
C363 N364 1.279 . S
C363 C366 1.358 . S
C363 H420 0.930 . S
N364 C363 1.279 . S
N364 C367 1.314 . S
C365 C362 1.348 . S
C365 C367 1.353 . S
C365 H421 0.929 . S
C366 C362 1.356 . S
C366 C363 1.358 . S
C366 H422 0.930 . S
C367 N364 1.314 . S
C367 C365 1.353 . S
C367 H423 0.930 . S
C368 N369 1.314 . S
C368 C373 1.353 . S
C368 H374 0.930 . S
N369 Li352 1.990 . S
N369 C368 1.314 . S
N369 C371 1.279 . S
C370 C371 1.358 . S
C370 C372 1.356 . S
C370 H424 0.930 . S
C371 N369 1.279 . S
C371 C370 1.358 . S
C371 H375 0.930 . S
C372 C370 1.356 . S
C372 C373 1.348 . S
C373 C368 1.353 . S
C373 C372 1.348 . S
C373 H425 0.929 . S
H374 C368 0.930 . S
H375 C371 0.930 . S
C376 N377 1.314 . S
C376 C378 1.353 . S
C376 H382 0.930 . S
N377 Li353 1.990 . S
N377 C376 1.314 . S
N377 C380 1.279 . S
C378 C376 1.353 . S
C378 C381 1.348 . S
C378 H426 0.929 . S
C379 C380 1.358 . S
C379 C381 1.356 . S
C379 H427 0.930 . S
C380 N377 1.279 . S
C380 C379 1.358 . S
C380 H383 0.930 . S
C381 C378 1.348 . S
C381 C379 1.356 . S
H382 C376 0.930 . S
H383 C380 0.930 . S
C384 C386 1.348 . S
C384 C387 1.356 . S
C384 O414 1.325 . S
N385 C388 1.314 . S
N385 C389 1.279 . S
C386 C384 1.348 . S
C386 C388 1.353 . S
C386 H428 0.929 . S
C387 C384 1.356 . S
C387 C389 1.358 . S
C387 H429 0.930 . S
C388 N385 1.314 . S
C388 C386 1.353 . S
C388 H430 0.930 . S
C389 N385 1.279 . S
C389 C387 1.358 . S
C389 H431 0.930 . S
C390 C391 1.348 . S
C390 C392 1.356 . S
C390 O415 1.325 . S
C391 C390 1.348 . S
C391 C393 1.353 . S
C391 H432 0.929 . S
C392 C390 1.356 . S
C392 C394 1.358 . S
C392 H433 0.930 . S
C393 C391 1.353 . S
C393 N395 1.314 . S
C393 H434 0.930 . S
C394 C392 1.358 . S
C394 N395 1.279 . S
C394 H435 0.930 . S
N395 C393 1.314 . S
N395 C394 1.279 . S
C396 C398 1.353 . S
C396 N399 1.314 . S
C396 H402 0.930 . S
C397 N399 1.279 . S
C397 C400 1.358 . S
C397 H403 0.930 . S
C398 C396 1.353 . S
C398 C401 1.348 . S
C398 H436 0.929 . S
N399 Li354 1.990 . S
N399 C396 1.314 . S
N399 C397 1.279 . S
C400 C397 1.358 . S
C400 C401 1.356 . S
C400 H437 0.930 . S
C401 C398 1.348 . S
C401 C400 1.356 . S
H402 C396 0.930 . S
H403 C397 0.930 . S
C404 N405 1.314 . S
C404 C406 1.353 . S
C404 H410 0.930 . S
N405 Li355 1.990 . S
N405 C404 1.314 . S
N405 C408 1.279 . S
C406 C404 1.353 . S
C406 C409 1.348 . S
C406 H438 0.929 . S
C407 C408 1.358 . S
C407 C409 1.356 . S
C407 H439 0.930 . S
C408 N405 1.279 . S
C408 C407 1.358 . S
C408 H411 0.930 . S
C409 C406 1.348 . S
C409 C407 1.356 . S
H410 C404 0.930 . S
H411 C408 0.930 . S
O412 Li352 1.956 . S
O412 Li353 1.970 . S
O412 Li354 1.961 . S
O412 C356 1.325 . S
O413 Li352 1.970 . S
O413 Li353 1.956 . S
O413 Li355 1.961 . S
O413 C362 1.325 . S
O414 Li352 1.961 . S
O414 Li354 1.956 . S
O414 Li355 1.970 . S
O414 C384 1.325 . S
O415 Li353 1.961 . S
O415 Li354 1.970 . S
O415 Li355 1.956 . S
O415 C390 1.325 . S
H416 C358 0.929 . S
H417 C359 0.930 . S
H418 C360 0.930 . S
H419 C361 0.930 . S
H420 C363 0.930 . S
H421 C365 0.929 . S
H422 C366 0.930 . S
H423 C367 0.930 . S
H424 C370 0.930 . S
H425 C373 0.929 . S
H426 C378 0.929 . S
H427 C379 0.930 . S
H428 C386 0.929 . S
H429 C387 0.930 . S
H430 C388 0.930 . S
H431 C389 0.930 . S
H432 C391 0.929 . S
H433 C392 0.930 . S
H434 C393 0.930 . S
H435 C394 0.930 . S
H436 C398 0.929 . S
H437 C400 0.930 . S
H438 C406 0.929 . S
H439 C407 0.930 . S
Li440 N457 1.990 . S
Li440 O500 1.956 . S
Li440 O501 1.970 . S
Li440 O502 1.961 . S
Li441 N465 1.990 . S
Li441 O500 1.970 . S
Li441 O501 1.956 . S
Li441 O503 1.961 . S
Li442 N487 1.990 . S
Li442 O500 1.961 . S
Li442 O502 1.956 . S
Li442 O503 1.970 . S
Li443 N493 1.990 . S
Li443 O501 1.961 . S
Li443 O502 1.970 . S
Li443 O503 1.956 . S
C444 C446 1.348 . S
C444 C447 1.356 . S
C444 O500 1.325 . S
N445 C448 1.314 . S
N445 C449 1.279 . S
C446 C444 1.348 . S
C446 C448 1.353 . S
C446 H504 0.929 . S
C447 C444 1.356 . S
C447 C449 1.358 . S
C447 H505 0.930 . S
C448 N445 1.314 . S
C448 C446 1.353 . S
C448 H506 0.930 . S
C449 N445 1.279 . S
C449 C447 1.358 . S
C449 H507 0.930 . S
C450 C453 1.348 . S
C450 C454 1.356 . S
C450 O501 1.325 . S
C451 N452 1.279 . S
C451 C454 1.358 . S
C451 H508 0.930 . S
N452 C451 1.279 . S
N452 C455 1.314 . S
C453 C450 1.348 . S
C453 C455 1.353 . S
C453 H509 0.929 . S
C454 C450 1.356 . S
C454 C451 1.358 . S
C454 H510 0.930 . S
C455 N452 1.314 . S
C455 C453 1.353 . S
C455 H511 0.930 . S
C456 N457 1.314 . S
C456 C461 1.353 . S
C456 H462 0.930 . S
N457 Li440 1.990 . S
N457 C456 1.314 . S
N457 C459 1.279 . S
C458 C459 1.358 . S
C458 C460 1.356 . S
C458 H512 0.930 . S
C459 N457 1.279 . S
C459 C458 1.358 . S
C459 H463 0.930 . S
C460 C458 1.356 . S
C460 C461 1.348 . S
C461 C456 1.353 . S
C461 C460 1.348 . S
C461 H513 0.929 . S
H462 C456 0.930 . S
H463 C459 0.930 . S
C464 N465 1.314 . S
C464 C466 1.353 . S
C464 H470 0.930 . S
N465 Li441 1.990 . S
N465 C464 1.314 . S
N465 C468 1.279 . S
C466 C464 1.353 . S
C466 C469 1.348 . S
C466 H514 0.929 . S
C467 C468 1.358 . S
C467 C469 1.356 . S
C467 H515 0.930 . S
C468 N465 1.279 . S
C468 C467 1.358 . S
C468 H471 0.930 . S
C469 C466 1.348 . S
C469 C467 1.356 . S
H470 C464 0.930 . S
H471 C468 0.930 . S
C472 C474 1.348 . S
C472 C475 1.356 . S
C472 O502 1.325 . S
N473 C476 1.314 . S
N473 C477 1.279 . S
C474 C472 1.348 . S
C474 C476 1.353 . S
C474 H516 0.929 . S
C475 C472 1.356 . S
C475 C477 1.358 . S
C475 H517 0.930 . S
C476 N473 1.314 . S
C476 C474 1.353 . S
C476 H518 0.930 . S
C477 N473 1.279 . S
C477 C475 1.358 . S
C477 H519 0.930 . S
C478 C479 1.348 . S
C478 C480 1.356 . S
C478 O503 1.325 . S
C479 C478 1.348 . S
C479 C481 1.353 . S
C479 H520 0.929 . S
C480 C478 1.356 . S
C480 C482 1.358 . S
C480 H521 0.930 . S
C481 C479 1.353 . S
C481 N483 1.314 . S
C481 H522 0.930 . S
C482 C480 1.358 . S
C482 N483 1.279 . S
C482 H523 0.930 . S
N483 C481 1.314 . S
N483 C482 1.279 . S
C484 C486 1.353 . S
C484 N487 1.314 . S
C484 H490 0.930 . S
C485 N487 1.279 . S
C485 C488 1.358 . S
C485 H491 0.930 . S
C486 C484 1.353 . S
C486 C489 1.348 . S
C486 H524 0.929 . S
N487 Li442 1.990 . S
N487 C484 1.314 . S
N487 C485 1.279 . S
C488 C485 1.358 . S
C488 C489 1.356 . S
C488 H525 0.930 . S
C489 C486 1.348 . S
C489 C488 1.356 . S
H490 C484 0.930 . S
H491 C485 0.930 . S
C492 N493 1.314 . S
C492 C494 1.353 . S
C492 H498 0.930 . S
N493 Li443 1.990 . S
N493 C492 1.314 . S
N493 C496 1.279 . S
C494 C492 1.353 . S
C494 C497 1.348 . S
C494 H526 0.929 . S
C495 C496 1.358 . S
C495 C497 1.356 . S
C495 H527 0.930 . S
C496 N493 1.279 . S
C496 C495 1.358 . S
C496 H499 0.930 . S
C497 C494 1.348 . S
C497 C495 1.356 . S
H498 C492 0.930 . S
H499 C496 0.930 . S
O500 Li440 1.956 . S
O500 Li441 1.970 . S
O500 Li442 1.961 . S
O500 C444 1.325 . S
O501 Li440 1.970 . S
O501 Li441 1.956 . S
O501 Li443 1.961 . S
O501 C450 1.325 . S
O502 Li440 1.961 . S
O502 Li442 1.956 . S
O502 Li443 1.970 . S
O502 C472 1.325 . S
O503 Li441 1.961 . S
O503 Li442 1.970 . S
O503 Li443 1.956 . S
O503 C478 1.325 . S
H504 C446 0.929 . S
H505 C447 0.930 . S
H506 C448 0.930 . S
H507 C449 0.930 . S
H508 C451 0.930 . S
H509 C453 0.929 . S
H510 C454 0.930 . S
H511 C455 0.930 . S
H512 C458 0.930 . S
H513 C461 0.929 . S
H514 C466 0.929 . S
H515 C467 0.930 . S
H516 C474 0.929 . S
H517 C475 0.930 . S
H518 C476 0.930 . S
H519 C477 0.930 . S
H520 C479 0.929 . S
H521 C480 0.930 . S
H522 C481 0.930 . S
H523 C482 0.930 . S
H524 C486 0.929 . S
H525 C488 0.930 . S
H526 C494 0.929 . S
H527 C495 0.930 . S
H528 C540 0.930 . S
H529 C542 0.930 . S
H530 C543 0.930 . S
H531 C547 0.959 . S
H532 C547 0.959 . S
H533 C547 0.961 . S
H534 C548 0.960 . S
H535 C548 0.961 . S
H536 C548 0.959 . S
H537 C551 0.929 . S
H538 C552 0.931 . S
H539 C554 0.930 . S
C540 H528 0.930 . S
C540 C541 1.399 . S
C540 C545 1.399 . S
C541 C540 1.399 . S
C541 C542 1.376 . S
C542 H529 0.930 . S
C542 C541 1.376 . S
C542 C543 1.388 . S
C543 H530 0.930 . S
C543 C542 1.388 . S
C543 C544 1.390 . S
C544 C543 1.390 . S
C544 C545 1.394 . S
C544 C550 1.465 . S
C545 C540 1.399 . S
C545 C544 1.394 . S
C545 C546 1.516 . S
C546 C545 1.516 . S
C546 C547 1.502 . S
C546 C548 1.561 . S
C546 C549 1.526 . S
C547 H531 0.959 . S
C547 H532 0.959 . S
C547 H533 0.961 . S
C547 C546 1.502 . S
C548 H534 0.960 . S
C548 H535 0.961 . S
C548 H536 0.959 . S
C548 C546 1.561 . S
C549 C546 1.526 . S
C549 C550 1.396 . S
C549 C554 1.390 . S
C550 C544 1.465 . S
C550 C549 1.396 . S
C550 C551 1.399 . S
C551 H537 0.929 . S
C551 C550 1.399 . S
C551 C552 1.385 . S
C552 H538 0.931 . S
C552 C551 1.385 . S
C552 C553 1.389 . S
C553 C552 1.389 . S
C553 C554 1.387 . S
C554 H539 0.930 . S
C554 C549 1.390 . S
C554 C553 1.387 . S
H555 C567 0.930 . S
H556 C569 0.930 . S
H557 C570 0.930 . S
H558 C574 0.959 . S
H559 C574 0.959 . S
H560 C574 0.961 . S
H561 C575 0.960 . S
H562 C575 0.961 . S
H563 C575 0.959 . S
H564 C578 0.929 . S
H565 C579 0.931 . S
H566 C581 0.930 . S
C567 H555 0.930 . S
C567 C568 1.399 . S
C567 C572 1.399 . S
C568 C567 1.399 . S
C568 C569 1.376 . S
C569 H556 0.930 . S
C569 C568 1.376 . S
C569 C570 1.388 . S
C570 H557 0.930 . S
C570 C569 1.388 . S
C570 C571 1.390 . S
C571 C570 1.390 . S
C571 C572 1.394 . S
C571 C577 1.465 . S
C572 C567 1.399 . S
C572 C571 1.394 . S
C572 C573 1.516 . S
C573 C572 1.516 . S
C573 C574 1.502 . S
C573 C575 1.561 . S
C573 C576 1.526 . S
C574 H558 0.959 . S
C574 H559 0.959 . S
C574 H560 0.961 . S
C574 C573 1.502 . S
C575 H561 0.960 . S
C575 H562 0.961 . S
C575 H563 0.959 . S
C575 C573 1.561 . S
C576 C573 1.526 . S
C576 C577 1.396 . S
C576 C581 1.390 . S
C577 C571 1.465 . S
C577 C576 1.396 . S
C577 C578 1.399 . S
C578 H564 0.929 . S
C578 C577 1.399 . S
C578 C579 1.385 . S
C579 H565 0.931 . S
C579 C578 1.385 . S
C579 C580 1.389 . S
C580 C579 1.389 . S
C580 C581 1.387 . S
C581 H566 0.930 . S
C581 C576 1.390 . S
C581 C580 1.387 . S
H582 C594 0.930 . S
H583 C596 0.930 . S
H584 C597 0.930 . S
H585 C601 0.959 . S
H586 C601 0.959 . S
H587 C601 0.961 . S
H588 C602 0.960 . S
H589 C602 0.961 . S
H590 C602 0.959 . S
H591 C605 0.929 . S
H592 C606 0.931 . S
H593 C608 0.930 . S
C594 H582 0.930 . S
C594 C595 1.399 . S
C594 C599 1.399 . S
C595 C594 1.399 . S
C595 C596 1.376 . S
C596 H583 0.930 . S
C596 C595 1.376 . S
C596 C597 1.388 . S
C597 H584 0.930 . S
C597 C596 1.388 . S
C597 C598 1.390 . S
C598 C597 1.390 . S
C598 C599 1.394 . S
C598 C604 1.465 . S
C599 C594 1.399 . S
C599 C598 1.394 . S
C599 C600 1.516 . S
C600 C599 1.516 . S
C600 C601 1.502 . S
C600 C602 1.561 . S
C600 C603 1.526 . S
C601 H585 0.959 . S
C601 H586 0.959 . S
C601 H587 0.961 . S
C601 C600 1.502 . S
C602 H588 0.960 . S
C602 H589 0.961 . S
C602 H590 0.959 . S
C602 C600 1.561 . S
C603 C600 1.526 . S
C603 C604 1.396 . S
C603 C608 1.390 . S
C604 C598 1.465 . S
C604 C603 1.396 . S
C604 C605 1.399 . S
C605 H591 0.929 . S
C605 C604 1.399 . S
C605 C606 1.385 . S
C606 H592 0.931 . S
C606 C605 1.385 . S
C606 C607 1.389 . S
C607 C606 1.389 . S
C607 C608 1.387 . S
C608 H593 0.930 . S
C608 C603 1.390 . S
C608 C607 1.387 . S
H609 C621 0.930 . S
H610 C623 0.930 . S
H611 C624 0.930 . S
H612 C628 0.959 . S
H613 C628 0.959 . S
H614 C628 0.961 . S
H615 C629 0.960 . S
H616 C629 0.961 . S
H617 C629 0.959 . S
H618 C632 0.929 . S
H619 C633 0.931 . S
H620 C635 0.930 . S
C621 H609 0.930 . S
C621 C622 1.399 . S
C621 C626 1.399 . S
C622 C621 1.399 . S
C622 C623 1.376 . S
C623 H610 0.930 . S
C623 C622 1.376 . S
C623 C624 1.388 . S
C624 H611 0.930 . S
C624 C623 1.388 . S
C624 C625 1.390 . S
C625 C624 1.390 . S
C625 C626 1.394 . S
C625 C631 1.465 . S
C626 C621 1.399 . S
C626 C625 1.394 . S
C626 C627 1.516 . S
C627 C626 1.516 . S
C627 C628 1.502 . S
C627 C629 1.561 . S
C627 C630 1.526 . S
C628 H612 0.959 . S
C628 H613 0.959 . S
C628 H614 0.961 . S
C628 C627 1.502 . S
C629 H615 0.960 . S
C629 H616 0.961 . S
C629 H617 0.959 . S
C629 C627 1.561 . S
C630 C627 1.526 . S
C630 C631 1.396 . S
C630 C635 1.390 . S
C631 C625 1.465 . S
C631 C630 1.396 . S
C631 C632 1.399 . S
C632 H618 0.929 . S
C632 C631 1.399 . S
C632 C633 1.385 . S
C633 H619 0.931 . S
C633 C632 1.385 . S
C633 C634 1.389 . S
C634 C633 1.389 . S
C634 C635 1.387 . S
C635 H620 0.930 . S
C635 C630 1.390 . S
C635 C634 1.387 . S
H636 C648 0.930 . S
H637 C650 0.930 . S
H638 C651 0.930 . S
H639 C655 0.959 . S
H640 C655 0.959 . S
H641 C655 0.961 . S
H642 C656 0.960 . S
H643 C656 0.961 . S
H644 C656 0.959 . S
H645 C659 0.929 . S
H646 C660 0.931 . S
H647 C662 0.930 . S
C648 H636 0.930 . S
C648 C649 1.399 . S
C648 C653 1.399 . S
C649 C648 1.399 . S
C649 C650 1.376 . S
C650 H637 0.930 . S
C650 C649 1.376 . S
C650 C651 1.388 . S
C651 H638 0.930 . S
C651 C650 1.388 . S
C651 C652 1.390 . S
C652 C651 1.390 . S
C652 C653 1.394 . S
C652 C658 1.465 . S
C653 C648 1.399 . S
C653 C652 1.394 . S
C653 C654 1.516 . S
C654 C653 1.516 . S
C654 C655 1.502 . S
C654 C656 1.561 . S
C654 C657 1.526 . S
C655 H639 0.959 . S
C655 H640 0.959 . S
C655 H641 0.961 . S
C655 C654 1.502 . S
C656 H642 0.960 . S
C656 H643 0.961 . S
C656 H644 0.959 . S
C656 C654 1.561 . S
C657 C654 1.526 . S
C657 C658 1.396 . S
C657 C662 1.390 . S
C658 C652 1.465 . S
C658 C657 1.396 . S
C658 C659 1.399 . S
C659 H645 0.929 . S
C659 C658 1.399 . S
C659 C660 1.385 . S
C660 H646 0.931 . S
C660 C659 1.385 . S
C660 C661 1.389 . S
C661 C660 1.389 . S
C661 C662 1.387 . S
C662 H647 0.930 . S
C662 C657 1.390 . S
C662 C661 1.387 . S
H663 C675 0.930 . S
H664 C677 0.930 . S
H665 C678 0.930 . S
H666 C682 0.959 . S
H667 C682 0.959 . S
H668 C682 0.961 . S
H669 C683 0.960 . S
H670 C683 0.961 . S
H671 C683 0.959 . S
H672 C686 0.929 . S
H673 C687 0.931 . S
H674 C689 0.930 . S
C675 H663 0.930 . S
C675 C676 1.399 . S
C675 C680 1.399 . S
C676 C675 1.399 . S
C676 C677 1.376 . S
C677 H664 0.930 . S
C677 C676 1.376 . S
C677 C678 1.388 . S
C678 H665 0.930 . S
C678 C677 1.388 . S
C678 C679 1.390 . S
C679 C678 1.390 . S
C679 C680 1.394 . S
C679 C685 1.465 . S
C680 C675 1.399 . S
C680 C679 1.394 . S
C680 C681 1.516 . S
C681 C680 1.516 . S
C681 C682 1.502 . S
C681 C683 1.561 . S
C681 C684 1.526 . S
C682 H666 0.959 . S
C682 H667 0.959 . S
C682 H668 0.961 . S
C682 C681 1.502 . S
C683 H669 0.960 . S
C683 H670 0.961 . S
C683 H671 0.959 . S
C683 C681 1.561 . S
C684 C681 1.526 . S
C684 C685 1.396 . S
C684 C689 1.390 . S
C685 C679 1.465 . S
C685 C684 1.396 . S
C685 C686 1.399 . S
C686 H672 0.929 . S
C686 C685 1.399 . S
C686 C687 1.385 . S
C687 H673 0.931 . S
C687 C686 1.385 . S
C687 C688 1.389 . S
C688 C687 1.389 . S
C688 C689 1.387 . S
C689 H674 0.930 . S
C689 C684 1.390 . S
C689 C688 1.387 . S
H690 C702 0.930 1_545 S
H691 C704 0.930 . S
H692 C705 0.930 . S
H693 C709 0.959 . S
H694 C709 0.959 . S
H695 C709 0.961 . S
H696 C710 0.960 . S
H697 C710 0.961 . S
H698 C710 0.959 . S
H699 C713 0.929 . S
H700 C714 0.931 1_565 S
H701 C716 0.930 . S
C702 H690 0.930 1_565 S
C702 C703 1.399 . S
C702 C707 1.399 1_565 S
C703 C702 1.399 . S
C703 C704 1.376 . S
C704 H691 0.930 . S
C704 C703 1.376 . S
C704 C705 1.388 . S
C705 H692 0.930 . S
C705 C704 1.388 . S
C705 C706 1.390 . S
C706 C705 1.390 . S
C706 C707 1.394 1_565 S
C706 C712 1.465 1_556 S
C707 C702 1.399 1_545 S
C707 C706 1.394 1_545 S
C707 C708 1.516 . S
C708 C707 1.516 . S
C708 C709 1.502 . S
C708 C710 1.561 . S
C708 C711 1.526 1_556 S
C709 H693 0.959 . S
C709 H694 0.959 . S
C709 H695 0.961 . S
C709 C708 1.502 . S
C710 H696 0.960 . S
C710 H697 0.961 . S
C710 H698 0.959 . S
C710 C708 1.561 . S
C711 C708 1.526 1_554 S
C711 C712 1.396 1_545 S
C711 C716 1.390 . S
C712 C706 1.465 1_554 S
C712 C711 1.396 1_565 S
C712 C713 1.399 . S
C713 H699 0.929 . S
C713 C712 1.399 . S
C713 C714 1.385 1_565 S
C714 H700 0.931 1_545 S
C714 C713 1.385 1_545 S
C714 C715 1.389 . S
C715 C714 1.389 . S
C715 C716 1.387 . S
C716 H701 0.930 . S
C716 C711 1.390 . S
C716 C715 1.387 . S
H717 C729 0.930 . S
H718 C731 0.930 . S
H719 C732 0.930 . S
H720 C736 0.959 . S
H721 C736 0.959 . S
H722 C736 0.961 . S
H723 C737 0.960 . S
H724 C737 0.961 . S
H725 C737 0.959 . S
H726 C740 0.929 . S
H727 C741 0.931 . S
H728 C743 0.930 . S
C729 H717 0.930 . S
C729 C730 1.399 . S
C729 C734 1.399 . S
C730 C729 1.399 . S
C730 C731 1.376 . S
C731 H718 0.930 . S
C731 C730 1.376 . S
C731 C732 1.388 . S
C732 H719 0.930 . S
C732 C731 1.388 . S
C732 C733 1.390 . S
C733 C732 1.390 . S
C733 C734 1.394 . S
C733 C739 1.465 . S
C734 C729 1.399 . S
C734 C733 1.394 . S
C734 C735 1.516 . S
C735 C734 1.516 . S
C735 C736 1.502 . S
C735 C737 1.561 . S
C735 C738 1.526 . S
C736 H720 0.959 . S
C736 H721 0.959 . S
C736 H722 0.961 . S
C736 C735 1.502 . S
C737 H723 0.960 . S
C737 H724 0.961 . S
C737 H725 0.959 . S
C737 C735 1.561 . S
C738 C735 1.526 . S
C738 C739 1.396 . S
C738 C743 1.390 . S
C739 C733 1.465 . S
C739 C738 1.396 . S
C739 C740 1.399 . S
C740 H726 0.929 . S
C740 C739 1.399 . S
C740 C741 1.385 . S
C741 H727 0.931 . S
C741 C740 1.385 . S
C741 C742 1.389 . S
C742 C741 1.389 . S
C742 C743 1.387 . S
C743 H728 0.930 . S
C743 C738 1.390 . S
C743 C742 1.387 . S
H744 C756 0.930 . S
H745 C758 0.930 . S
H746 C759 0.930 . S
H747 C763 0.959 . S
H748 C763 0.959 . S
H749 C763 0.961 . S
H750 C764 0.960 1_455 S
H751 C764 0.961 1_554 S
H752 C764 0.959 1_454 S
H753 C767 0.929 . S
H754 C768 0.931 . S
H755 C770 0.930 . S
C756 H744 0.930 . S
C756 C757 1.399 . S
C756 C761 1.399 . S
C757 C756 1.399 . S
C757 C758 1.376 . S
C758 H745 0.930 . S
C758 C757 1.376 . S
C758 C759 1.388 . S
C759 H746 0.930 . S
C759 C758 1.388 . S
C759 C760 1.390 . S
C760 C759 1.390 . S
C760 C761 1.394 . S
C760 C766 1.465 1_556 S
C761 C756 1.399 . S
C761 C760 1.394 . S
C761 C762 1.516 1_455 S
C762 C761 1.516 1_655 S
C762 C763 1.502 . S
C762 C764 1.561 . S
C762 C765 1.526 1_556 S
C763 H747 0.959 . S
C763 H748 0.959 . S
C763 H749 0.961 . S
C763 C762 1.502 . S
C764 H750 0.960 1_655 S
C764 H751 0.961 1_556 S
C764 H752 0.959 1_656 S
C764 C762 1.561 . S
C765 C762 1.526 1_554 S
C765 C766 1.396 1_655 S
C765 C770 1.390 . S
C766 C760 1.465 1_554 S
C766 C765 1.396 1_455 S
C766 C767 1.399 . S
C767 H753 0.929 . S
C767 C766 1.399 . S
C767 C768 1.385 1_455 S
C768 H754 0.931 . S
C768 C767 1.385 1_655 S
C768 C769 1.389 . S
C769 C768 1.389 . S
C769 C770 1.387 . S
C770 H755 0.930 . S
C770 C765 1.390 . S
C770 C769 1.387 . S
H771 C783 0.930 . S
H772 C785 0.930 1_565 S
H773 C786 0.930 . S
H774 C790 0.959 . S
H775 C790 0.959 . S
H776 C790 0.961 . S
H777 C791 0.960 . S
H778 C791 0.961 . S
H779 C791 0.959 . S
H780 C794 0.929 . S
H781 C795 0.931 . S
H782 C797 0.930 1_545 S
C783 H771 0.930 . S
C783 C784 1.399 . S
C783 C788 1.399 . S
C784 C783 1.399 . S
C784 C785 1.376 . S
C785 H772 0.930 1_545 S
C785 C784 1.376 . S
C785 C786 1.388 1_545 S
C786 H773 0.930 . S
C786 C785 1.388 1_565 S
C786 C787 1.390 . S
C787 C786 1.390 . S
C787 C788 1.394 1_565 S
C787 C793 1.465 . S
C788 C783 1.399 . S
C788 C787 1.394 1_545 S
C788 C789 1.516 . S
C789 C788 1.516 . S
C789 C790 1.502 . S
C789 C791 1.561 . S
C789 C792 1.526 . S
C790 H774 0.959 . S
C790 H775 0.959 . S
C790 H776 0.961 . S
C790 C789 1.502 . S
C791 H777 0.960 . S
C791 H778 0.961 . S
C791 H779 0.959 . S
C791 C789 1.561 . S
C792 C789 1.526 . S
C792 C793 1.396 1_545 S
C792 C797 1.390 1_545 S
C793 C787 1.465 . S
C793 C792 1.396 1_565 S
C793 C794 1.399 . S
C794 H780 0.929 . S
C794 C793 1.399 . S
C794 C795 1.385 . S
C795 H781 0.931 . S
C795 C794 1.385 . S
C795 C796 1.389 . S
C796 C795 1.389 . S
C796 C797 1.387 . S
C797 H782 0.930 1_565 S
C797 C792 1.390 1_565 S
C797 C796 1.387 . S
H798 C810 0.930 . S
H799 C812 0.930 . S
H800 C813 0.930 . S
H801 C817 0.959 . S
H802 C817 0.959 1_554 S
H803 C817 0.961 . S
H804 C818 0.960 . S
H805 C818 0.961 . S
H806 C818 0.959 . S
H807 C821 0.929 . S
H808 C822 0.931 . S
H809 C824 0.930 . S
C810 H798 0.930 . S
C810 C811 1.399 . S
C810 C815 1.399 . S
C811 C810 1.399 . S
C811 C812 1.376 . S
C812 H799 0.930 . S
C812 C811 1.376 . S
C812 C813 1.388 . S
C813 H800 0.930 . S
C813 C812 1.388 . S
C813 C814 1.390 . S
C814 C813 1.390 . S
C814 C815 1.394 . S
C814 C820 1.465 1_556 S
C815 C810 1.399 . S
C815 C814 1.394 . S
C815 C816 1.516 1_556 S
C816 C815 1.516 1_554 S
C816 C817 1.502 1_554 S
C816 C818 1.561 . S
C816 C819 1.526 . S
C817 H801 0.959 . S
C817 H802 0.959 1_556 S
C817 H803 0.961 . S
C817 C816 1.502 1_556 S
C818 H804 0.960 . S
C818 H805 0.961 . S
C818 H806 0.959 . S
C818 C816 1.561 . S
C819 C816 1.526 . S
C819 C820 1.396 . S
C819 C824 1.390 . S
C820 C814 1.465 1_554 S
C820 C819 1.396 . S
C820 C821 1.399 . S
C821 H807 0.929 . S
C821 C820 1.399 . S
C821 C822 1.385 . S
C822 H808 0.931 . S
C822 C821 1.385 . S
C822 C823 1.389 . S
C823 C822 1.389 . S
C823 C824 1.387 . S
C824 H809 0.930 . S
C824 C819 1.390 . S
C824 C823 1.387 . S
H825 C837 0.930 . S
H826 C839 0.930 . S
H827 C840 0.930 . S
H828 C844 0.959 . S
H829 C844 0.959 . S
H830 C844 0.961 . S
H831 C845 0.960 . S
H832 C845 0.961 . S
H833 C845 0.959 . S
H834 C848 0.929 . S
H835 C849 0.931 . S
H836 C851 0.928 1_455 S
C837 H825 0.930 . S
C837 C838 1.399 . S
C837 C842 1.399 . S
C838 C837 1.399 . S
C838 C839 1.376 . S
C839 H826 0.930 . S
C839 C838 1.376 . S
C839 C840 1.388 1_455 S
C840 H827 0.930 . S
C840 C839 1.388 1_655 S
C840 C841 1.388 . S
C841 C840 1.388 . S
C841 C842 1.381 1_655 S
C841 C847 1.481 . S
C842 C837 1.399 . S
C842 C841 1.381 1_455 S
C842 C843 1.516 . S
C843 C842 1.516 . S
C843 C844 1.502 . S
C843 C845 1.561 . S
C843 C846 1.525 1_455 S
C844 H828 0.959 . S
C844 H829 0.959 . S
C844 H830 0.961 . S
C844 C843 1.502 . S
C845 H831 0.960 . S
C845 H832 0.961 . S
C845 H833 0.959 . S
C845 C843 1.561 . S
C846 C843 1.525 1_655 S
C846 C847 1.396 . S
C846 C851 1.390 . S
C847 C841 1.481 . S
C847 C846 1.396 . S
C847 C848 1.399 . S
C848 H834 0.929 . S
C848 C847 1.399 . S
C848 C849 1.385 . S
C849 H835 0.931 . S
C849 C848 1.385 . S
C849 C850 1.389 . S
C850 C849 1.389 . S
C850 C851 1.387 . S
C851 H836 0.928 1_655 S
C851 C846 1.390 . S
C851 C850 1.387 . S
C541 C20 0.831 . S
C553 C381 0.849 . S
C568 C137 0.828 . S
C580 C469 0.824 . S
C595 C29 0.827 . S
C607 C233 0.844 . S
C622 C313 0.902 . S
C634 C117 0.888 . S
C649 C401 0.835 . S
C661 C196 0.829 . S
C676 C321 0.823 . S
C688 C489 0.839 . S
C703 C293 1.244 . S
C715 C49 1.268 . S
C730 C372 1.281 . S
C742 C145 1.248 . S
C757 C460 1.248 . S
C769 C225 1.275 . S
C784 C57 1.270 . S
C796 C284 1.245 . S
C811 C108 1.257 . S
C823 C409 1.264 . S
C838 C497 1.269 . S
C850 C205 1.252 . S
