# Generated by pormake.
# Topology smu, (6)-cn, num edge types: 1
# Building blocks:
#     Node 0, Type 0, BuildingBlock: NUHQIS_clean_sbu_0, # of connection points: 6
#     Node 1, Type 0, BuildingBlock: NUHQIS_clean_sbu_0, # of connection points: 6
#     Node 2, Type 0, BuildingBlock: NUHQIS_clean_sbu_0, # of connection points: 6
#     Node 3, Type 0, BuildingBlock: NUHQIS_clean_sbu_0, # of connection points: 6
#     Node 4, Type 0, BuildingBlock: NUHQIS_clean_sbu_0, # of connection points: 6
#     Node 5, Type 0, BuildingBlock: NUHQIS_clean_sbu_0, # of connection points: 6
#     Edge 6, Type (0, 0), BuildingBlock: OJICUG_clean_linker_0, # of connection points: 2
#     Edge 7, Type (0, 0), BuildingBlock: OJICUG_clean_linker_0, # of connection points: 2
#     Edge 8, Type (0, 0), BuildingBlock: OJICUG_clean_linker_0, # of connection points: 2
#     Edge 9, Type (0, 0), BuildingBlock: OJICUG_clean_linker_0, # of connection points: 2
#     Edge 10, Type (0, 0), BuildingBlock: OJICUG_clean_linker_0, # of connection points: 2
#     Edge 11, Type (0, 0), BuildingBlock: OJICUG_clean_linker_0, # of connection points: 2
#     Edge 12, Type (0, 0), BuildingBlock: OJICUG_clean_linker_0, # of connection points: 2
#     Edge 13, Type (0, 0), BuildingBlock: OJICUG_clean_linker_0, # of connection points: 2
#     Edge 14, Type (0, 0), BuildingBlock: OJICUG_clean_linker_0, # of connection points: 2
#     Edge 15, Type (0, 0), BuildingBlock: OJICUG_clean_linker_0, # of connection points: 2
#     Edge 16, Type (0, 0), BuildingBlock: OJICUG_clean_linker_0, # of connection points: 2
#     Edge 17, Type (0, 0), BuildingBlock: OJICUG_clean_linker_0, # of connection points: 2
#     Edge 18, Type (0, 0), BuildingBlock: OJICUG_clean_linker_0, # of connection points: 2
#     Edge 19, Type (0, 0), BuildingBlock: OJICUG_clean_linker_0, # of connection points: 2
#     Edge 20, Type (0, 0), BuildingBlock: OJICUG_clean_linker_0, # of connection points: 2
#     Edge 21, Type (0, 0), BuildingBlock: OJICUG_clean_linker_0, # of connection points: 2
#     Edge 22, Type (0, 0), BuildingBlock: OJICUG_clean_linker_0, # of connection points: 2
#     Edge 23, Type (0, 0), BuildingBlock: OJICUG_clean_linker_0, # of connection points: 2
# Relax obj value: 0.233
# Max RMSD: 0.336
# Mean RMSD: 0.336
data_MOF--net-smu--node1-NUHQIS_clean_sbu_0--edge1-OJICUG_clean_linker_0
_symmetry_space_group_name_H-M    P1
_symmetry_Int_Tables_number       1
_symmetry_cell_setting            triclinic
loop_
_symmetry_equiv_pos_as_xyz
'x, y, z'
_cell_length_a     31.70572
_cell_length_b     31.689936
_cell_length_c     20.053988
_cell_angle_alpha  90.381371
_cell_angle_beta   89.637471
_cell_angle_gamma 120.07909
loop_
_atom_site_label
_atom_site_type_symbol
_atom_site_fract_x
_atom_site_fract_y
_atom_site_fract_z
_atom_type_partial_charge
Tb0 Tb 0.31719 0.12425 0.26718 0.0
Eu1 Eu 0.40291 0.0961 0.26185 0.0
C2 C 0.34082 0.07923 0.39663 0.0
C3 C 0.42572 0.20467 0.26027 0.0
C4 C 0.22972 0.17995 0.27566 0.0
C5 C 0.20521 0.23263 0.33087 0.0
C6 C 0.23205 0.20875 0.33045 0.0
C7 C 0.19903 0.17419 0.22203 0.0
C8 C 0.17212 0.1981 0.22242 0.0
C9 C 0.17553 0.22819 0.27645 0.0
C10 C 0.26205 0.15926 0.27232 0.0
O11 O 0.30452 0.08642 0.17094 0.0
O12 O 0.38176 0.09969 0.15561 0.0
O13 O 0.3304 0.02406 0.25103 0.0
O14 O 0.27615 0.04805 0.28875 0.0
C15 C 0.33698 0.08269 0.13404 0.0
O16 O 0.45598 0.08702 0.20212 0.0
O17 O 0.45528 0.08041 0.3094 0.0
O18 O 0.36971 0.06923 0.36152 0.0
O19 O 0.32254 0.10551 0.37228 0.0
O20 O 0.38409 0.18574 0.22917 0.0
O21 O 0.43749 0.17569 0.29046 0.0
C22 C 0.28638 1.01437 0.27068 0.0
O23 O 0.29839 0.1723 0.31335 0.0
O24 O 0.25613 0.1257 0.22926 0.0
C25 C 0.532 0.11082 0.25421 0.0
C26 C 0.6354 0.15817 0.25646 0.0
C27 C 0.6083 0.12359 0.20672 0.0
C28 C 0.55741 0.10013 0.20591 0.0
C29 C 0.55869 0.14652 0.30283 0.0
C30 C 0.60986 0.16989 0.30399 0.0
C31 C 0.47795 0.08255 0.25401 0.0
H32 H 0.20852 0.25539 0.37331 0.0
H33 H 0.25536 0.21362 0.37252 0.0
H34 H 0.19662 0.15211 0.17916 0.0
H35 H 0.14854 0.19286 0.18055 0.0
H36 H 0.62636 0.11436 0.16813 0.0
H37 H 0.53774 0.073 0.16773 0.0
H38 H 0.54007 0.15577 0.34062 0.0
H39 H 0.6292 0.1961 0.34324 0.0
Tb40 Tb 0.84169 0.72383 0.26195 0.0
Eu41 Eu 0.72642 0.64685 0.26577 0.0
C42 C 0.77556 0.71152 0.39313 0.0
C43 C 0.80458 0.61539 0.26063 0.0
C44 C 0.98456 0.80774 0.25817 0.0
C45 C 0.06008 0.85626 0.31921 0.0
C46 C 1.00936 0.82497 0.31883 0.0
C47 C 1.01093 0.82282 0.19835 0.0
C48 C 0.06133 0.85274 0.19866 0.0
C49 C 0.08702 0.8697 0.25901 0.0
C50 C 0.93325 0.7686 0.25421 0.0
O51 O 0.81371 0.73759 0.16953 0.0
O52 O 0.74623 0.66208 0.15732 0.0
O53 O 0.73446 0.72398 0.26127 0.0
O54 O 0.81802 0.77498 0.27793 0.0
C55 C 0.77625 0.70569 0.13422 0.0
O56 O 0.65858 0.5982 0.21282 0.0
O57 O 0.66158 0.59442 0.32019 0.0
O58 O 0.73559 0.68711 0.35886 0.0
O59 O 0.81888 0.72121 0.3691 0.0
O60 O 0.82558 0.65354 0.22279 0.0
O61 O 0.76874 0.61023 0.29826 0.0
C62 C 0.77384 0.76785 0.27102 0.0
O63 O 0.9094 0.74292 0.30626 0.0
O64 O 0.90516 0.771 0.20917 0.0
C65 C 0.61053 0.51977 0.26264 0.0
C66 C 0.55399 0.41615 0.25898 0.0
C67 C 0.5495 0.4447 0.20895 0.0
C68 C 0.57717 0.49571 0.21101 0.0
C69 C 0.61656 0.49148 0.31147 0.0
C70 C 0.58857 0.44037 0.30975 0.0
C71 C 0.63643 0.57395 0.26651 0.0
H72 H 0.07796 0.86942 0.36679 0.0
H73 H 0.98984 0.81355 0.36578 0.0
H74 H 0.99275 0.80937 0.15088 0.0
H75 H 0.07996 0.86084 0.15108 0.0
H76 H 0.52432 0.42771 0.16805 0.0
H77 H 0.5719 0.51647 0.17256 0.0
H78 H 0.64213 0.50875 0.35194 0.0
H79 H 0.59305 0.42002 0.3495 0.0
Tb80 Tb 0.9218 0.21062 0.26028 0.0
Eu81 Eu 0.95645 0.32622 0.2606 0.0
C82 C 0.97293 0.27895 0.39054 0.0
C83 C 0.84667 0.2439 0.25586 0.0
C84 C 0.87147 0.07006 0.27034 0.0
C85 C 0.82649 0.99367 0.33039 0.0
C86 C 0.8452 0.04398 0.32683 0.0
C87 C 0.88124 0.04542 0.21944 0.0
C88 C 0.86248 0.99517 0.22292 0.0
C89 C 0.83335 0.9685 0.27727 0.0
C90 C 0.87881 0.11893 0.2567 0.0
O91 O 0.96019 0.23495 0.16475 0.0
O92 O 0.96404 0.30916 0.15367 0.0
O93 O 1.02714 0.32206 0.25785 0.0
O94 O 0.99759 0.23925 0.27651 0.0
C95 C 0.9718 0.27472 0.13076 0.0
O96 O 0.96878 0.39051 0.20484 0.0
O97 O 0.9737 0.3937 0.31253 0.0
O98 O 0.98392 0.31845 0.35736 0.0
O99 O 0.94322 0.23444 0.36624 0.0
O100 O 0.86511 0.22233 0.22099 0.0
O101 O 0.8764 0.28339 0.28842 0.0
C102 C 0.0334 0.28414 0.26875 0.0
O103 O 0.8705 0.14331 0.30275 0.0
O104 O 0.91288 0.14707 0.21494 0.0
C105 C 0.94477 0.44145 0.26004 0.0
C106 C 0.89359 0.4936 0.26108 0.0
C107 C 0.93417 0.50744 0.21889 0.0
C108 C 0.9591 0.48152 0.21814 0.0
C109 C 0.90441 0.42717 0.30253 0.0
C110 C 0.87907 0.45298 0.30301 0.0
C111 C 0.97298 0.41585 0.25839 0.0
H112 H 0.80442 0.97414 0.37313 0.0
H113 H 0.83661 0.06184 0.3665 0.0
H114 H 0.90097 0.06442 0.1749 0.0
H115 H 0.86962 0.97704 0.1821 0.0
H116 H 0.94754 0.53898 0.1869 0.0
H117 H 0.99009 0.49315 0.18501 0.0
H118 H 0.89237 0.39609 0.33519 0.0
H119 H 0.84778 0.44063 0.33564 0.0
Tb120 Tb 0.13655 0.31232 0.75996 0.0
Eu121 Eu 0.09931 0.39093 0.75994 0.0
C122 C 0.0907 0.32858 0.62995 0.0
C123 C 0.20899 0.42093 0.75502 0.0
C124 C 0.19511 0.22783 0.76543 0.0
C125 C 0.21731 0.17174 0.71461 0.0
C126 C 0.19552 0.20049 0.71038 0.0
C127 C 0.21568 0.22482 0.82568 0.0
C128 C 0.23785 0.19624 0.82989 0.0
C129 C 0.23989 0.17007 0.77393 0.0
C130 C 0.18005 0.2644 0.75495 0.0
O131 O 0.11993 0.31906 0.86646 0.0
O132 O 0.07117 0.3538 0.85694 0.0
O133 O 0.03071 0.31478 0.74871 0.0
O134 O 0.06163 0.26596 0.78444 0.0
C135 C 0.08806 0.33066 0.89147 0.0
O136 O 0.08134 0.44147 0.81007 0.0
O137 O 0.08659 0.44207 0.70268 0.0
O138 O 0.10474 0.37277 0.65208 0.0
O139 O 0.09587 0.29719 0.66641 0.0
O140 O 0.19145 0.38152 0.71891 0.0
O141 O 0.17855 0.42778 0.791 0.0
C142 C 1.02527 0.27183 0.76616 0.0
O143 O 0.14311 0.25501 0.717 0.0
O144 O 0.1903 0.29902 0.79859 0.0
C145 C 0.11181 0.51882 0.75642 0.0
C146 C 0.15961 0.62255 0.75767 0.0
C147 C 0.14787 0.5961 0.81764 0.0
C148 C 0.12415 0.54496 0.81703 0.0
C149 C 0.1247 0.54533 0.6965 0.0
C150 C 0.1483 0.59642 0.69712 0.0
C151 C 0.08302 0.46437 0.75546 0.0
H152 H 0.21659 0.15106 0.67102 0.0
H153 H 0.18034 0.2026 0.66308 0.0
H154 H 0.21618 0.24582 0.86881 0.0
H155 H 0.25478 0.19606 0.8765 0.0
H156 H 0.15554 0.61483 0.86522 0.0
H157 H 0.11458 0.52589 0.86422 0.0
H158 H 0.11579 0.52657 0.64887 0.0
H159 H 0.15742 0.61548 0.64994 0.0
Tb160 Tb 0.21242 0.91264 0.76564 0.0
Eu161 Eu 0.32561 0.94165 0.76171 0.0
C162 C 0.27388 0.9591 0.63558 0.0
C163 C 0.24126 0.83355 0.7609 0.0
C164 C 0.06906 0.85246 0.77699 0.0
C165 C 0.99007 0.81337 0.72317 0.0
C166 C 0.04082 0.83742 0.71886 0.0
C167 C 0.0462 0.84369 0.8394 0.0
C168 C 0.99556 0.81993 0.84376 0.0
C169 C 0.96698 0.80434 0.78572 0.0
C170 C 0.12206 0.87471 0.77282 0.0
O171 O 0.2372 0.93547 0.87033 0.0
O172 O 0.32005 0.9648 0.86418 0.0
O173 O 0.32646 1.01481 0.75778 0.0
O174 O 0.24561 0.98885 0.78497 0.0
C175 C 0.28153 0.95864 0.89686 0.0
O176 O 0.39837 0.96514 0.80186 0.0
O177 O 0.3813 0.93919 0.70023 0.0
O178 O 0.30192 0.94228 0.65613 0.0
O179 O 0.23677 0.95346 0.67197 0.0
O180 O 0.22001 0.85247 0.72682 0.0
O181 O 0.28035 0.86301 0.7943 0.0
C182 C 0.2907 0.02335 0.77425 0.0
O183 O 0.14754 0.90349 0.72414 0.0
O184 O 0.14743 0.86793 0.81813 0.0
C185 C 0.43822 0.92386 0.75723 0.0
C186 C 0.49525 0.87766 0.76576 0.0
C187 C 0.50342 0.91626 0.8091 0.0
C188 C 0.47553 0.93917 0.80456 0.0
C189 C 0.42848 0.88398 0.71567 0.0
C190 C 0.45666 0.86126 0.71981 0.0
C191 C 0.41282 0.95221 0.74846 0.0
H192 H 0.96899 0.80278 0.67759 0.0
H193 H 0.05796 0.84371 0.67021 0.0
H194 H 0.06749 0.85521 0.8848 0.0
H195 H 0.97876 0.81368 0.89263 0.0
H196 H 0.53181 0.92931 0.84638 0.0
H197 H 0.48389 0.96969 0.83732 0.0
H198 H 0.39994 0.87108 0.67857 0.0
H199 H 0.44921 0.83198 0.68523 0.0
Tb200 Tb 0.73348 0.82794 0.76842 0.0
Eu201 Eu 0.65183 0.71301 0.76964 0.0
C202 C 0.71672 0.76048 0.64024 0.0
C203 C 0.62535 0.79713 0.77213 0.0
C204 C 0.82061 0.97123 0.76032 0.0
C205 C 0.85613 0.04631 0.69716 0.0
C206 C 0.82737 0.9957 0.69973 0.0
C207 C 0.84332 0.99792 0.81823 0.0
C208 C 0.87152 0.04868 0.81585 0.0
C209 C 0.87776 0.07314 0.75536 0.0
C210 C 0.78841 0.91825 0.76346 0.0
O211 O 0.7439 0.80255 0.86528 0.0
O212 O 0.66865 0.7343 0.87818 0.0
O213 O 0.72554 0.717 0.78582 0.0
O214 O 0.77763 0.7959 0.74928 0.0
C215 C 0.71193 0.76569 0.90151 0.0
O216 O 0.59878 0.6485 0.82476 0.0
O217 O 0.60117 0.64605 0.71714 0.0
O218 O 0.69309 0.72067 0.67548 0.0
O219 O 0.7251 0.80328 0.66311 0.0
O220 O 0.66603 0.82116 0.80493 0.0
O221 O 0.61611 0.75707 0.74076 0.0
C222 C 0.76952 0.75325 0.76946 0.0
O223 O 0.75336 0.89431 0.72076 0.0
O224 O 0.79275 0.89137 0.80872 0.0
C225 C 0.52292 0.6 0.76887 0.0
C226 C 0.41945 0.54763 0.76435 0.0
C227 C 0.44412 0.55547 0.82527 0.0
C228 C 0.49519 0.58115 0.82744 0.0
C229 C 0.49822 0.59332 0.70818 0.0
C230 C 0.4472 0.56749 0.70599 0.0
C231 C 0.57706 0.62404 0.77098 0.0
H232 H 0.86145 0.06459 0.64978 0.0
H233 H 0.81054 0.97571 0.65435 0.0
H234 H 0.83874 0.97962 0.86542 0.0
H235 H 0.88919 0.06876 0.86084 0.0
H236 H 0.424 0.54031 0.87107 0.0
H237 H 0.51301 0.58538 0.87493 0.0
H238 H 0.51823 0.60732 0.662 0.0
H239 H 0.42943 0.56275 0.65834 0.0
C240 C 0.33772 1.00386 0.99111 0.0
C241 C 0.29151 0.98561 0.96178 0.0
H242 H 0.38829 0.04882 0.06555 0.0
C243 C 0.25976 1.00008 0.98958 0.0
H244 H 0.36344 0.99382 0.97159 0.0
C245 C 0.27466 0.03294 0.04404 0.0
C246 C 0.32144 0.05169 0.07228 0.0
H247 H 0.22423 0.98754 0.96779 0.0
H248 H 0.24955 0.0436 0.06403 0.0
C249 C 0.35242 0.03628 0.04493 0.0
C250 C 0.72072 0.76181 0.516 0.0
C251 C 0.7389 0.75693 0.57681 0.0
H252 H 0.71783 0.75046 0.41087 0.0
C253 C 0.77407 0.74202 0.57678 0.0
H254 H 0.69324 0.77256 0.5146 0.0
C255 C 0.78974 0.73072 0.51684 0.0
C256 C 0.76926 0.73286 0.45616 0.0
H257 H 0.78826 0.73764 0.62343 0.0
H258 H 0.81522 0.71743 0.51845 0.0
C259 C 0.735 0.74906 0.4567 0.0
C260 C 0.98541 0.25764 1.01223 0.0
C261 C 1.00276 0.28564 0.07053 0.0
H262 H 0.99997 0.25001 0.90959 0.0
C263 C 0.05083 0.3253 0.07149 0.0
H264 H 0.9484 0.22724 1.01002 0.0
C265 C 0.08079 0.33745 1.01477 0.0
C266 C 0.06297 0.31052 0.95571 0.0
H267 H 0.06501 0.34744 0.11605 0.0
H268 H 0.11693 0.3693 0.01608 0.0
C269 C 1.01509 0.2704 0.95512 0.0
C270 C 0.27884 0.04065 0.49095 0.0
C271 C 0.32438 0.05358 0.46203 0.0
H272 H 0.22645 1.0001 0.56812 0.0
C273 C 0.3522 0.03529 0.49111 0.0
H274 H 0.25602 0.05334 0.46924 0.0
C275 C 0.3349 1.00406 0.54573 0.0
C276 C 0.28916 0.99008 0.57428 0.0
H277 H 0.38744 0.0443 0.47066 0.0
H278 H 0.358 0.99113 0.56579 0.0
C279 C 0.26153 1.00941 0.54686 0.0
C280 C 0.7124 0.75457 0.02605 0.0
C281 C 0.72919 0.75215 0.96212 0.0
H282 H 0.71303 0.73971 0.13038 0.0
C283 C 0.76066 0.73303 0.95531 0.0
H284 H 0.68703 0.76772 0.03279 0.0
C285 C 0.77723 0.71912 1.01101 0.0
C286 C 0.76113 0.72232 0.07487 0.0
H287 H 0.77115 0.72706 0.90669 0.0
H288 H 0.80152 0.70467 1.004 0.0
C289 C 0.72776 0.73914 0.08179 0.0
C290 C 0.98629 0.25753 0.50768 0.0
C291 C 1.00299 0.28753 0.45142 0.0
H292 H 1.00035 0.24858 0.60902 0.0
C293 C 0.05017 0.32922 0.45337 0.0
H294 H 0.95009 0.22575 0.50838 0.0
C295 C 0.0793 0.34135 0.5102 0.0
C296 C 0.06233 0.3122 0.56699 0.0
H297 H 0.06492 0.3529 0.41046 0.0
H298 H 0.11491 0.37399 0.51003 0.0
C299 C 1.01556 0.27019 0.56511 0.0
C300 C 0.72048 0.22952 0.27864 0.0
C301 C 0.68977 0.1806 0.25897 0.0
H302 H 0.79407 0.28805 0.2933 0.0
C303 C 0.71155 0.15289 0.24068 0.0
H304 H 0.70527 0.2522 0.29276 0.0
C305 C 0.76221 0.1737 0.23974 0.0
C306 C 0.79287 0.22271 0.25812 0.0
H307 H 0.68947 0.11476 0.22732 0.0
H308 H 0.77735 0.15104 0.22505 0.0
C309 C 0.77145 0.25025 0.27859 0.0
C310 C 0.47307 0.34018 0.2369 0.0
C311 C 0.52159 0.3617 0.25916 0.0
H312 H 0.40536 0.27459 0.21953 0.0
C313 C 0.53828 0.33067 0.28215 0.0
H314 H 0.45819 0.3625 0.2204 0.0
C315 C 0.50739 0.2798 0.28269 0.0
C316 C 0.45913 0.25855 0.25974 0.0
H317 H 0.57544 0.34554 0.29907 0.0
H318 H 0.52147 0.25711 0.30065 0.0
C319 C 0.44247 0.28948 0.23683 0.0
C320 C 0.84558 0.5278 0.31931 0.0
C321 C 0.86714 0.52178 0.26088 0.0
H322 H 0.80808 0.56148 0.36492 0.0
C323 C 0.86458 0.54443 0.20204 0.0
H324 H 0.84727 0.51171 0.36593 0.0
C325 C 0.84342 0.5739 0.20221 0.0
C326 C 0.82268 0.58042 0.26057 0.0
H327 H 0.87917 0.53975 0.15544 0.0
H328 H 0.8434 0.59178 0.15635 0.0
C329 C 0.82317 0.55644 0.31894 0.0
C330 C 0.21812 0.70651 0.80416 0.0
C331 C 0.18164 0.67687 0.7581 0.0
H332 H 0.26592 0.77903 0.84086 0.0
C333 C 0.16552 0.69952 0.71288 0.0
H334 H 0.23163 0.69045 0.83953 0.0
C335 C 0.18504 0.75015 0.71382 0.0
C336 C 0.22162 0.77982 0.75959 0.0
H337 H 0.137 0.67797 0.6774 0.0
H338 H 0.17128 0.76602 0.67851 0.0
C339 C 0.23804 0.75737 0.80466 0.0
C340 C 0.57805 0.88595 0.78121 0.0
C341 C 0.52811 0.85623 0.76694 0.0
H342 H 0.64723 0.89076 0.79421 0.0
C343 C 0.5105 0.80642 0.75305 0.0
H344 H 0.59363 0.92466 0.79017 0.0
C345 C 0.54188 0.78706 0.75388 0.0
C346 C 0.59146 0.81682 0.76956 0.0
H347 H 0.47231 0.78211 0.74243 0.0
H348 H 0.52715 0.74863 0.74337 0.0
C349 C 0.60907 0.86649 0.78305 0.0
C350 C 0.28419 0.49038 0.80716 0.0
C351 C 0.26243 0.45542 0.75616 0.0
H352 H 0.35076 0.5469 0.84996 0.0
C353 C 0.2926 0.45189 0.70737 0.0
H354 H 0.26202 0.49376 0.84579 0.0
C355 C 0.34321 0.48231 0.70958 0.0
C356 C 0.36522 0.51684 0.76103 0.0
H357 H 0.27713 0.42526 0.66749 0.0
H358 H 0.36523 0.47787 0.67174 0.0
C359 C 0.33505 0.52056 0.8098 0.0
C360 C 0.12307 0.25446 0.33589 0.0
C361 C 0.14687 0.25346 0.2772 0.0
H362 H 0.069 0.26711 0.37903 0.0
C363 C 0.14037 0.27386 0.21872 0.0
H364 H 0.12638 0.23817 0.38143 0.0
C365 C 0.10784 0.29154 0.21793 0.0
C366 C 0.08156 0.2892 0.27555 0.0
H367 H 0.15859 0.27398 0.17281 0.0
H368 H 0.09987 0.30251 0.17093 0.0
C369 C 0.09077 0.27206 0.33494 0.0
C370 C 0.17017 0.90242 0.31252 0.0
C371 C 0.14137 0.90122 0.2583 0.0
H372 H 0.24084 0.93946 0.35861 0.0
C373 C 0.16508 0.93161 0.20336 0.0
H374 H 0.15386 0.8791 0.35532 0.0
C375 C 0.21522 0.96317 0.20365 0.0
C376 C 0.24305 0.96688 0.25958 0.0
H377 H 0.14494 0.93368 0.16141 0.0
H378 H 0.23133 0.98864 0.163 0.0
C379 C 0.22042 0.93569 0.31366 0.0
C380 C 0.80846 0.89031 0.33652 0.0
C381 C 0.8094 0.91456 0.2779 0.0
H382 H 0.79564 0.82389 0.37966 0.0
C383 C 0.78897 0.88705 0.21945 0.0
H384 H 0.82491 0.91046 0.38192 0.0
C385 C 0.77041 0.83662 0.21899 0.0
C386 C 0.77169 0.81282 0.27692 0.0
H387 H 0.78903 0.90474 0.17339 0.0
H388 H 0.75934 0.8174 0.17201 0.0
C389 C 0.79031 0.8402 0.33576 0.0
C390 C 0.28707 0.13333 0.72109 0.0
C391 C 0.26425 0.1402 0.77756 0.0
H392 H 0.31561 0.09095 0.67614 0.0
C393 C 0.26218 0.11566 0.83664 0.0
H394 H 0.29041 0.15237 0.675 0.0
C395 C 0.27912 0.08273 0.83787 0.0
C396 C 0.29753 0.07251 0.77993 0.0
H397 H 0.24426 0.11896 0.88084 0.0
H398 H 0.2729 0.06127 0.88239 0.0
C399 C 0.30314 0.09938 0.72209 0.0
C400 C 0.89458 0.80418 0.8332 0.0
C401 C 0.91357 0.78274 0.7903 0.0
H402 H 0.83288 0.80992 0.86063 0.0
C403 C 0.88166 0.74387 0.7486 0.0
H404 H 0.91812 0.8347 0.86501 0.0
C405 C 0.8319 0.72888 0.747 0.0
C406 C 0.81411 0.75308 0.78658 0.0
H407 H 0.89551 0.72652 0.71538 0.0
H408 H 0.80839 0.70117 0.71165 0.0
C409 C 0.84556 0.78969 0.83101 0.0
C410 C 0.98596 0.19279 0.71039 0.0
C411 C 0.98079 0.22565 0.75238 0.0
H412 H 0.95672 0.11935 0.67725 0.0
C413 C 0.93928 0.20856 0.79283 0.0
H414 H 1.01899 0.20446 0.68155 0.0
C415 C 0.90454 0.15865 0.79308 0.0
C416 C 0.91065 0.12612 0.7515 0.0
H417 H 0.93555 0.23285 0.82747 0.0
H418 H 0.87379 0.1452 0.82696 0.0
C419 C 0.9508 0.14387 0.70872 0.0
loop_
_geom_bond_atom_site_label_1
_geom_bond_atom_site_label_2
_geom_bond_distance
_geom_bond_site_symmetry_2
_ccdc_geom_bond_type
Tb0 C10 2.825 . S
Tb0 O11 2.347 . S
Tb0 O14 2.366 . S
Tb0 O19 2.418 . S
Tb0 O20 2.384 . S
Tb0 O23 2.479 . S
Tb0 O24 2.471 . S
Eu1 O12 2.418 . S
Eu1 O13 2.384 . S
Eu1 O16 2.479 . S
Eu1 O17 2.471 . S
Eu1 O18 2.347 . S
Eu1 O21 2.366 . S
Eu1 C31 2.825 . S
C2 O18 1.259 . S
C2 O19 1.265 . S
C3 O20 1.255 . S
C3 O21 1.265 . S
C4 C6 1.380 . S
C4 C7 1.374 . S
C4 C10 1.507 . S
C5 C6 1.384 . S
C5 C9 1.387 . S
C5 H32 0.930 . S
C6 C4 1.380 . S
C6 C5 1.384 . S
C6 H33 0.931 . S
C7 C4 1.374 . S
C7 C8 1.390 . S
C7 H34 0.930 . S
C8 C7 1.390 . S
C8 C9 1.391 . S
C8 H35 0.930 . S
C9 C5 1.387 . S
C9 C8 1.391 . S
C10 Tb0 2.825 . S
C10 C4 1.507 . S
C10 O23 1.238 . S
C10 O24 1.247 . S
O11 Tb0 2.347 . S
O11 C15 1.259 . S
O12 Eu1 2.418 . S
O12 C15 1.265 . S
O13 Eu1 2.384 . S
O13 C22 1.255 . S
O14 Tb0 2.366 . S
O14 C22 1.265 . S
C15 O11 1.259 . S
C15 O12 1.265 . S
O16 Eu1 2.479 . S
O16 C31 1.238 . S
O17 Eu1 2.471 . S
O17 C31 1.247 . S
O18 Eu1 2.347 . S
O18 C2 1.259 . S
O19 Tb0 2.418 . S
O19 C2 1.265 . S
O20 Tb0 2.384 . S
O20 C3 1.255 . S
O21 Eu1 2.366 . S
O21 C3 1.265 . S
C22 O13 1.255 . S
C22 O14 1.265 . S
O23 Tb0 2.479 . S
O23 C10 1.238 . S
O24 Tb0 2.471 . S
O24 C10 1.247 . S
C25 C28 1.380 . S
C25 C29 1.374 . S
C25 C31 1.507 . S
C26 C27 1.387 . S
C26 C30 1.391 . S
C27 C26 1.387 . S
C27 C28 1.384 . S
C27 H36 0.930 . S
C28 C25 1.380 . S
C28 C27 1.384 . S
C28 H37 0.931 . S
C29 C25 1.374 . S
C29 C30 1.390 . S
C29 H38 0.930 . S
C30 C26 1.391 . S
C30 C29 1.390 . S
C30 H39 0.930 . S
C31 Eu1 2.825 . S
C31 O16 1.238 . S
C31 O17 1.247 . S
C31 C25 1.507 . S
H32 C5 0.930 . S
H33 C6 0.931 . S
H34 C7 0.930 . S
H35 C8 0.930 . S
H36 C27 0.930 . S
H37 C28 0.931 . S
H38 C29 0.930 . S
H39 C30 0.930 . S
Tb40 C50 2.825 . S
Tb40 O51 2.347 . S
Tb40 O54 2.366 . S
Tb40 O59 2.418 . S
Tb40 O60 2.384 . S
Tb40 O63 2.479 . S
Tb40 O64 2.471 . S
Eu41 O52 2.418 . S
Eu41 O53 2.384 . S
Eu41 O56 2.479 . S
Eu41 O57 2.471 . S
Eu41 O58 2.347 . S
Eu41 O61 2.366 . S
Eu41 C71 2.825 . S
C42 O58 1.259 . S
C42 O59 1.265 . S
C43 O60 1.255 . S
C43 O61 1.265 . S
C44 C46 1.380 1_655 S
C44 C47 1.374 . S
C44 C50 1.507 . S
C45 C46 1.384 . S
C45 C49 1.387 . S
C45 H72 0.930 . S
C46 C44 1.380 1_455 S
C46 C45 1.384 . S
C46 H73 0.931 . S
C47 C44 1.374 . S
C47 C48 1.390 1_655 S
C47 H74 0.930 . S
C48 C47 1.390 1_455 S
C48 C49 1.391 . S
C48 H75 0.930 . S
C49 C45 1.387 . S
C49 C48 1.391 . S
C50 Tb40 2.825 . S
C50 C44 1.507 . S
C50 O63 1.238 . S
C50 O64 1.247 . S
O51 Tb40 2.347 . S
O51 C55 1.259 . S
O52 Eu41 2.418 . S
O52 C55 1.265 . S
O53 Eu41 2.384 . S
O53 C62 1.255 . S
O54 Tb40 2.366 . S
O54 C62 1.265 . S
C55 O51 1.259 . S
C55 O52 1.265 . S
O56 Eu41 2.479 . S
O56 C71 1.238 . S
O57 Eu41 2.471 . S
O57 C71 1.247 . S
O58 Eu41 2.347 . S
O58 C42 1.259 . S
O59 Tb40 2.418 . S
O59 C42 1.265 . S
O60 Tb40 2.384 . S
O60 C43 1.255 . S
O61 Eu41 2.366 . S
O61 C43 1.265 . S
C62 O53 1.255 . S
C62 O54 1.265 . S
O63 Tb40 2.479 . S
O63 C50 1.238 . S
O64 Tb40 2.471 . S
O64 C50 1.247 . S
C65 C68 1.380 . S
C65 C69 1.374 . S
C65 C71 1.507 . S
C66 C67 1.387 . S
C66 C70 1.391 . S
C67 C66 1.387 . S
C67 C68 1.384 . S
C67 H76 0.930 . S
C68 C65 1.380 . S
C68 C67 1.384 . S
C68 H77 0.931 . S
C69 C65 1.374 . S
C69 C70 1.390 . S
C69 H78 0.930 . S
C70 C66 1.391 . S
C70 C69 1.390 . S
C70 H79 0.930 . S
C71 Eu41 2.825 . S
C71 O56 1.238 . S
C71 O57 1.247 . S
C71 C65 1.507 . S
H72 C45 0.930 . S
H73 C46 0.931 . S
H74 C47 0.930 . S
H75 C48 0.930 . S
H76 C67 0.930 . S
H77 C68 0.931 . S
H78 C69 0.930 . S
H79 C70 0.930 . S
Tb80 C90 2.825 . S
Tb80 O91 2.347 . S
Tb80 O94 2.366 . S
Tb80 O99 2.418 . S
Tb80 O100 2.384 . S
Tb80 O103 2.479 . S
Tb80 O104 2.471 . S
Eu81 O92 2.418 . S
Eu81 O93 2.384 . S
Eu81 O96 2.479 . S
Eu81 O97 2.471 . S
Eu81 O98 2.347 . S
Eu81 O101 2.366 . S
Eu81 C111 2.825 . S
C82 O98 1.259 . S
C82 O99 1.265 . S
C83 O100 1.255 . S
C83 O101 1.265 . S
C84 C86 1.380 1_545 S
C84 C87 1.374 . S
C84 C90 1.507 . S
C85 C86 1.384 . S
C85 C89 1.387 . S
C85 H112 0.930 . S
C86 C84 1.380 1_565 S
C86 C85 1.384 . S
C86 H113 0.930 . S
C87 C84 1.374 . S
C87 C88 1.390 1_545 S
C87 H114 0.930 . S
C88 C87 1.390 1_565 S
C88 C89 1.391 . S
C88 H115 0.930 . S
C89 C85 1.387 . S
C89 C88 1.391 . S
C90 Tb80 2.825 . S
C90 C84 1.507 . S
C90 O103 1.238 . S
C90 O104 1.247 . S
O91 Tb80 2.347 . S
O91 C95 1.259 . S
O92 Eu81 2.418 . S
O92 C95 1.265 . S
O93 Eu81 2.384 . S
O93 C102 1.255 . S
O94 Tb80 2.366 . S
O94 C102 1.265 . S
C95 O91 1.259 . S
C95 O92 1.265 . S
O96 Eu81 2.479 . S
O96 C111 1.238 . S
O97 Eu81 2.471 . S
O97 C111 1.247 . S
O98 Eu81 2.347 . S
O98 C82 1.259 . S
O99 Tb80 2.418 . S
O99 C82 1.265 . S
O100 Tb80 2.384 . S
O100 C83 1.255 . S
O101 Eu81 2.366 . S
O101 C83 1.265 . S
C102 O93 1.255 . S
C102 O94 1.265 . S
O103 Tb80 2.479 . S
O103 C90 1.238 . S
O104 Tb80 2.471 . S
O104 C90 1.247 . S
C105 C108 1.380 . S
C105 C109 1.374 . S
C105 C111 1.507 . S
C106 C107 1.387 . S
C106 C110 1.391 . S
C107 C106 1.387 . S
C107 C108 1.384 . S
C107 H116 0.930 . S
C108 C105 1.380 . S
C108 C107 1.384 . S
C108 H117 0.931 . S
C109 C105 1.374 . S
C109 C110 1.390 . S
C109 H118 0.930 . S
C110 C106 1.391 . S
C110 C109 1.390 . S
C110 H119 0.930 . S
C111 Eu81 2.825 . S
C111 O96 1.238 . S
C111 O97 1.247 . S
C111 C105 1.507 . S
H112 C85 0.930 . S
H113 C86 0.930 . S
H114 C87 0.930 . S
H115 C88 0.930 . S
H116 C107 0.930 . S
H117 C108 0.931 . S
H118 C109 0.930 . S
H119 C110 0.930 . S
Tb120 C130 2.825 . S
Tb120 O131 2.347 . S
Tb120 O134 2.366 . S
Tb120 O139 2.418 . S
Tb120 O140 2.384 . S
Tb120 O143 2.479 . S
Tb120 O144 2.471 . S
Eu121 O132 2.418 . S
Eu121 O133 2.384 . S
Eu121 O136 2.479 . S
Eu121 O137 2.471 . S
Eu121 O138 2.347 . S
Eu121 O141 2.366 . S
Eu121 C151 2.825 . S
C122 O138 1.259 . S
C122 O139 1.265 . S
C123 O140 1.255 . S
C123 O141 1.265 . S
C124 C126 1.380 . S
C124 C127 1.374 . S
C124 C130 1.507 . S
C125 C126 1.384 . S
C125 C129 1.387 . S
C125 H152 0.930 . S
C126 C124 1.380 . S
C126 C125 1.384 . S
C126 H153 0.931 . S
C127 C124 1.374 . S
C127 C128 1.390 . S
C127 H154 0.930 . S
C128 C127 1.390 . S
C128 C129 1.391 . S
C128 H155 0.930 . S
C129 C125 1.387 . S
C129 C128 1.391 . S
C130 Tb120 2.825 . S
C130 C124 1.507 . S
C130 O143 1.238 . S
C130 O144 1.247 . S
O131 Tb120 2.347 . S
O131 C135 1.259 . S
O132 Eu121 2.418 . S
O132 C135 1.265 . S
O133 Eu121 2.384 . S
O133 C142 1.255 . S
O134 Tb120 2.366 . S
O134 C142 1.265 . S
C135 O131 1.259 . S
C135 O132 1.265 . S
O136 Eu121 2.479 . S
O136 C151 1.238 . S
O137 Eu121 2.471 . S
O137 C151 1.247 . S
O138 Eu121 2.347 . S
O138 C122 1.259 . S
O139 Tb120 2.418 . S
O139 C122 1.265 . S
O140 Tb120 2.384 . S
O140 C123 1.255 . S
O141 Eu121 2.366 . S
O141 C123 1.265 . S
C142 O133 1.255 . S
C142 O134 1.265 . S
O143 Tb120 2.479 . S
O143 C130 1.238 . S
O144 Tb120 2.471 . S
O144 C130 1.247 . S
C145 C148 1.380 . S
C145 C149 1.374 . S
C145 C151 1.507 . S
C146 C147 1.387 . S
C146 C150 1.391 . S
C147 C146 1.387 . S
C147 C148 1.384 . S
C147 H156 0.930 . S
C148 C145 1.380 . S
C148 C147 1.384 . S
C148 H157 0.931 . S
C149 C145 1.374 . S
C149 C150 1.390 . S
C149 H158 0.930 . S
C150 C146 1.391 . S
C150 C149 1.390 . S
C150 H159 0.930 . S
C151 Eu121 2.825 . S
C151 O136 1.238 . S
C151 O137 1.247 . S
C151 C145 1.507 . S
H152 C125 0.930 . S
H153 C126 0.931 . S
H154 C127 0.930 . S
H155 C128 0.930 . S
H156 C147 0.930 . S
H157 C148 0.931 . S
H158 C149 0.930 . S
H159 C150 0.930 . S
Tb160 C170 2.825 . S
Tb160 O171 2.347 . S
Tb160 O174 2.366 . S
Tb160 O179 2.418 . S
Tb160 O180 2.384 . S
Tb160 O183 2.479 . S
Tb160 O184 2.471 . S
Eu161 O172 2.418 . S
Eu161 O173 2.384 . S
Eu161 O176 2.479 . S
Eu161 O177 2.471 . S
Eu161 O178 2.347 . S
Eu161 O181 2.366 . S
Eu161 C191 2.825 . S
C162 O178 1.259 . S
C162 O179 1.265 . S
C163 O180 1.255 . S
C163 O181 1.265 . S
C164 C166 1.380 1_455 S
C164 C167 1.374 . S
C164 C170 1.507 . S
C165 C166 1.384 . S
C165 C169 1.387 . S
C165 H192 0.930 . S
C166 C164 1.380 1_655 S
C166 C165 1.384 . S
C166 H193 0.930 . S
C167 C164 1.374 . S
C167 C168 1.390 1_455 S
C167 H194 0.930 . S
C168 C167 1.390 1_655 S
C168 C169 1.391 . S
C168 H195 0.930 . S
C169 C165 1.387 . S
C169 C168 1.391 . S
C170 Tb160 2.825 . S
C170 C164 1.507 . S
C170 O183 1.238 . S
C170 O184 1.247 . S
O171 Tb160 2.347 . S
O171 C175 1.259 . S
O172 Eu161 2.418 . S
O172 C175 1.265 . S
O173 Eu161 2.384 . S
O173 C182 1.255 . S
O174 Tb160 2.366 . S
O174 C182 1.265 . S
C175 O171 1.259 . S
C175 O172 1.265 . S
O176 Eu161 2.479 . S
O176 C191 1.238 . S
O177 Eu161 2.471 . S
O177 C191 1.247 . S
O178 Eu161 2.347 . S
O178 C162 1.259 . S
O179 Tb160 2.418 . S
O179 C162 1.265 . S
O180 Tb160 2.384 . S
O180 C163 1.255 . S
O181 Eu161 2.366 . S
O181 C163 1.265 . S
C182 O173 1.255 . S
C182 O174 1.265 . S
O183 Tb160 2.479 . S
O183 C170 1.238 . S
O184 Tb160 2.471 . S
O184 C170 1.247 . S
C185 C188 1.380 . S
C185 C189 1.374 . S
C185 C191 1.507 . S
C186 C187 1.387 . S
C186 C190 1.391 . S
C187 C186 1.387 . S
C187 C188 1.384 . S
C187 H196 0.930 . S
C188 C185 1.380 . S
C188 C187 1.384 . S
C188 H197 0.931 . S
C189 C185 1.374 . S
C189 C190 1.390 . S
C189 H198 0.930 . S
C190 C186 1.391 . S
C190 C189 1.390 . S
C190 H199 0.930 . S
C191 Eu161 2.825 . S
C191 O176 1.238 . S
C191 O177 1.247 . S
C191 C185 1.507 . S
H192 C165 0.930 . S
H193 C166 0.930 . S
H194 C167 0.930 . S
H195 C168 0.930 . S
H196 C187 0.930 . S
H197 C188 0.931 . S
H198 C189 0.930 . S
H199 C190 0.930 . S
Tb200 C210 2.825 . S
Tb200 O211 2.347 . S
Tb200 O214 2.366 . S
Tb200 O219 2.418 . S
Tb200 O220 2.384 . S
Tb200 O223 2.479 . S
Tb200 O224 2.471 . S
Eu201 O212 2.418 . S
Eu201 O213 2.384 . S
Eu201 O216 2.479 . S
Eu201 O217 2.471 . S
Eu201 O218 2.347 . S
Eu201 O221 2.366 . S
Eu201 C231 2.825 . S
C202 O218 1.259 . S
C202 O219 1.265 . S
C203 O220 1.255 . S
C203 O221 1.265 . S
C204 C206 1.380 1_565 S
C204 C207 1.374 . S
C204 C210 1.507 . S
C205 C206 1.384 . S
C205 C209 1.387 . S
C205 H232 0.930 . S
C206 C204 1.380 1_545 S
C206 C205 1.384 . S
C206 H233 0.931 . S
C207 C204 1.374 . S
C207 C208 1.390 1_565 S
C207 H234 0.930 . S
C208 C207 1.390 1_545 S
C208 C209 1.391 . S
C208 H235 0.930 . S
C209 C205 1.387 . S
C209 C208 1.391 . S
C210 Tb200 2.825 . S
C210 C204 1.507 . S
C210 O223 1.238 . S
C210 O224 1.247 . S
O211 Tb200 2.347 . S
O211 C215 1.259 . S
O212 Eu201 2.418 . S
O212 C215 1.265 . S
O213 Eu201 2.384 . S
O213 C222 1.255 . S
O214 Tb200 2.366 . S
O214 C222 1.265 . S
C215 O211 1.259 . S
C215 O212 1.265 . S
O216 Eu201 2.479 . S
O216 C231 1.238 . S
O217 Eu201 2.471 . S
O217 C231 1.247 . S
O218 Eu201 2.347 . S
O218 C202 1.259 . S
O219 Tb200 2.418 . S
O219 C202 1.265 . S
O220 Tb200 2.384 . S
O220 C203 1.255 . S
O221 Eu201 2.366 . S
O221 C203 1.265 . S
C222 O213 1.255 . S
C222 O214 1.265 . S
O223 Tb200 2.479 . S
O223 C210 1.238 . S
O224 Tb200 2.471 . S
O224 C210 1.247 . S
C225 C228 1.380 . S
C225 C229 1.374 . S
C225 C231 1.507 . S
C226 C227 1.387 . S
C226 C230 1.391 . S
C227 C226 1.387 . S
C227 C228 1.384 . S
C227 H236 0.930 . S
C228 C225 1.380 . S
C228 C227 1.384 . S
C228 H237 0.931 . S
C229 C225 1.374 . S
C229 C230 1.390 . S
C229 H238 0.930 . S
C230 C226 1.391 . S
C230 C229 1.390 . S
C230 H239 0.930 . S
C231 Eu201 2.825 . S
C231 O216 1.238 . S
C231 O217 1.247 . S
C231 C225 1.507 . S
H232 C205 0.930 . S
H233 C206 0.931 . S
H234 C207 0.930 . S
H235 C208 0.930 . S
H236 C227 0.930 . S
H237 C228 0.931 . S
H238 C229 0.930 . S
H239 C230 0.930 . S
C240 C241 1.387 . S
C240 H244 0.950 . S
C240 C249 1.390 1_566 S
C241 C240 1.387 . S
C241 C243 1.387 . S
H242 C249 0.950 . S
C243 C241 1.387 . S
C243 C245 1.390 1_566 S
C243 H247 0.950 . S
H244 C240 0.950 . S
C245 C243 1.390 1_544 S
C245 C246 1.387 . S
C245 H248 0.950 . S
C246 C245 1.387 . S
C246 C249 1.387 . S
H247 C243 0.950 . S
H248 C245 0.950 . S
C249 C240 1.390 1_544 S
C249 H242 0.950 . S
C249 C246 1.387 . S
C250 C251 1.387 . S
C250 H254 0.950 . S
C250 C259 1.390 . S
C251 C250 1.387 . S
C251 C253 1.387 . S
H252 C259 0.950 . S
C253 C251 1.387 . S
C253 C255 1.390 . S
C253 H257 0.950 . S
H254 C250 0.950 . S
C255 C253 1.390 . S
C255 C256 1.387 . S
C255 H258 0.950 . S
C256 C255 1.387 . S
C256 C259 1.387 . S
H257 C253 0.950 . S
H258 C255 0.950 . S
C259 C250 1.390 . S
C259 H252 0.950 . S
C259 C256 1.387 . S
C260 C261 1.387 1_556 S
C260 H264 0.950 . S
C260 C269 1.390 . S
C261 C260 1.387 1_554 S
C261 C263 1.387 1_655 S
H262 C269 0.950 . S
C263 C261 1.387 1_455 S
C263 C265 1.390 . S
C263 H267 0.950 . S
H264 C260 0.950 . S
C265 C263 1.390 . S
C265 C266 1.387 1_554 S
C265 H268 0.950 . S
C266 C265 1.387 1_556 S
C266 C269 1.387 1_455 S
H267 C263 0.950 . S
H268 C265 0.950 . S
C269 C260 1.390 . S
C269 H262 0.950 . S
C269 C266 1.387 1_655 S
C270 C271 1.387 . S
C270 H274 0.950 . S
C270 C279 1.390 1_545 S
C271 C270 1.387 . S
C271 C273 1.387 . S
H272 C279 0.950 . S
C273 C271 1.387 . S
C273 C275 1.390 1_545 S
C273 H277 0.950 . S
H274 C270 0.950 . S
C275 C273 1.390 1_565 S
C275 C276 1.387 . S
C275 H278 0.950 . S
C276 C275 1.387 . S
C276 C279 1.387 . S
H277 C273 0.950 . S
H278 C275 0.950 . S
C279 C270 1.390 1_565 S
C279 H272 0.950 . S
C279 C276 1.387 . S
C280 C281 1.387 1_554 S
C280 H284 0.950 . S
C280 C289 1.390 . S
C281 C280 1.387 1_556 S
C281 C283 1.387 . S
H282 C289 0.950 . S
C283 C281 1.387 . S
C283 C285 1.390 . S
C283 H287 0.950 . S
H284 C280 0.950 . S
C285 C283 1.390 . S
C285 C286 1.387 1_556 S
C285 H288 0.950 . S
C286 C285 1.387 1_554 S
C286 C289 1.387 . S
H287 C283 0.950 . S
H288 C285 0.950 . S
C289 C280 1.390 . S
C289 H282 0.950 . S
C289 C286 1.387 . S
C290 C291 1.387 . S
C290 H294 0.950 . S
C290 C299 1.380 1_655 S
C291 C290 1.387 . S
C291 C293 1.394 . S
H292 C299 0.947 . S
C293 C291 1.394 . S
C293 C295 1.380 1_655 S
C293 H297 0.947 . S
H294 C290 0.950 . S
C295 C293 1.380 1_455 S
C295 C296 1.387 . S
C295 H298 0.950 . S
C296 C295 1.387 . S
C296 C299 1.394 . S
H297 C293 0.947 . S
H298 C295 0.950 . S
C299 C290 1.380 1_455 S
C299 H292 0.947 . S
C299 C296 1.394 . S
C300 C301 1.387 . S
C300 H304 0.950 . S
C300 C309 1.390 . S
C301 C300 1.387 . S
C301 C303 1.387 . S
H302 C309 0.950 . S
C303 C301 1.387 . S
C303 C305 1.390 . S
C303 H307 0.950 . S
H304 C300 0.950 . S
C305 C303 1.390 . S
C305 C306 1.387 . S
C305 H308 0.950 . S
C306 C305 1.387 . S
C306 C309 1.387 . S
H307 C303 0.950 . S
H308 C305 0.950 . S
C309 C300 1.390 . S
C309 H302 0.950 . S
C309 C306 1.387 . S
C310 C311 1.387 . S
C310 H314 0.950 . S
C310 C319 1.390 . S
C311 C310 1.387 . S
C311 C313 1.387 . S
H312 C319 0.950 . S
C313 C311 1.387 . S
C313 C315 1.390 . S
C313 H317 0.950 . S
H314 C310 0.950 . S
C315 C313 1.390 . S
C315 C316 1.387 . S
C315 H318 0.950 . S
C316 C315 1.387 . S
C316 C319 1.387 . S
H317 C313 0.950 . S
H318 C315 0.950 . S
C319 C310 1.390 . S
C319 H312 0.950 . S
C319 C316 1.387 . S
C320 C321 1.387 . S
C320 H324 0.950 . S
C320 C329 1.390 . S
C321 C320 1.387 . S
C321 C323 1.387 . S
H322 C329 0.950 . S
C323 C321 1.387 . S
C323 C325 1.390 . S
C323 H327 0.950 . S
H324 C320 0.950 . S
C325 C323 1.390 . S
C325 C326 1.387 . S
C325 H328 0.950 . S
C326 C325 1.387 . S
C326 C329 1.387 . S
H327 C323 0.950 . S
H328 C325 0.950 . S
C329 C320 1.390 . S
C329 H322 0.950 . S
C329 C326 1.387 . S
C330 C331 1.387 . S
C330 H334 0.950 . S
C330 C339 1.390 . S
C331 C330 1.387 . S
C331 C333 1.387 . S
H332 C339 0.950 . S
C333 C331 1.387 . S
C333 C335 1.390 . S
C333 H337 0.950 . S
H334 C330 0.950 . S
C335 C333 1.390 . S
C335 C336 1.387 . S
C335 H338 0.950 . S
C336 C335 1.387 . S
C336 C339 1.387 . S
H337 C333 0.950 . S
H338 C335 0.950 . S
C339 C330 1.390 . S
C339 H332 0.950 . S
C339 C336 1.387 . S
C340 C341 1.387 . S
C340 H344 0.950 . S
C340 C349 1.390 . S
C341 C340 1.387 . S
C341 C343 1.387 . S
H342 C349 0.950 . S
C343 C341 1.387 . S
C343 C345 1.390 . S
C343 H347 0.950 . S
H344 C340 0.950 . S
C345 C343 1.390 . S
C345 C346 1.387 . S
C345 H348 0.950 . S
C346 C345 1.387 . S
C346 C349 1.387 . S
H347 C343 0.950 . S
H348 C345 0.950 . S
C349 C340 1.390 . S
C349 H342 0.950 . S
C349 C346 1.387 . S
C350 C351 1.387 . S
C350 H354 0.950 . S
C350 C359 1.390 . S
C351 C350 1.387 . S
C351 C353 1.387 . S
H352 C359 0.950 . S
C353 C351 1.387 . S
C353 C355 1.390 . S
C353 H357 0.950 . S
H354 C350 0.950 . S
C355 C353 1.390 . S
C355 C356 1.387 . S
C355 H358 0.950 . S
C356 C355 1.387 . S
C356 C359 1.387 . S
H357 C353 0.950 . S
H358 C355 0.950 . S
C359 C350 1.390 . S
C359 H352 0.950 . S
C359 C356 1.387 . S
C360 C361 1.387 . S
C360 H364 0.950 . S
C360 C369 1.390 . S
C361 C360 1.387 . S
C361 C363 1.387 . S
H362 C369 0.950 1_655 S
C363 C361 1.387 . S
C363 C365 1.390 . S
C363 H367 0.950 . S
H364 C360 0.950 . S
C365 C363 1.390 . S
C365 C366 1.387 . S
C365 H368 0.950 . S
C366 C365 1.387 . S
C366 C369 1.387 . S
H367 C363 0.950 . S
H368 C365 0.950 . S
C369 C360 1.390 . S
C369 H362 0.950 1_455 S
C369 C366 1.387 . S
C370 C371 1.387 . S
C370 H374 0.950 . S
C370 C379 1.390 . S
C371 C370 1.387 . S
C371 C373 1.387 1_565 S
H372 C379 0.950 . S
C373 C371 1.387 1_545 S
C373 C375 1.390 . S
C373 H377 0.950 . S
H374 C370 0.950 . S
C375 C373 1.390 . S
C375 C376 1.387 1_545 S
C375 H378 0.950 . S
C376 C375 1.387 1_565 S
C376 C379 1.387 . S
H377 C373 0.950 . S
H378 C375 0.950 . S
C379 C370 1.390 . S
C379 H372 0.950 . S
C379 C376 1.387 . S
C380 C381 1.387 . S
C380 H384 0.950 . S
C380 C389 1.390 . S
C381 C380 1.387 . S
C381 C383 1.387 . S
H382 C389 0.950 . S
C383 C381 1.387 . S
C383 C385 1.390 . S
C383 H387 0.950 . S
H384 C380 0.950 . S
C385 C383 1.390 . S
C385 C386 1.387 . S
C385 H388 0.950 . S
C386 C385 1.387 . S
C386 C389 1.387 . S
H387 C383 0.950 . S
H388 C385 0.950 . S
C389 C380 1.390 . S
C389 H382 0.950 . S
C389 C386 1.387 . S
C390 C391 1.387 . S
C390 H394 0.950 . S
C390 C399 1.390 . S
C391 C390 1.387 . S
C391 C393 1.387 1_545 S
H392 C399 0.950 . S
C393 C391 1.387 1_565 S
C393 C395 1.390 . S
C393 H397 0.950 . S
H394 C390 0.950 . S
C395 C393 1.390 . S
C395 C396 1.387 1_565 S
C395 H398 0.950 . S
C396 C395 1.387 1_545 S
C396 C399 1.387 . S
H397 C393 0.950 . S
H398 C395 0.950 . S
C399 C390 1.390 . S
C399 H392 0.950 . S
C399 C396 1.387 . S
C400 C401 1.387 . S
C400 H404 0.950 . S
C400 C409 1.390 . S
C401 C400 1.387 . S
C401 C403 1.387 . S
H402 C409 0.950 . S
C403 C401 1.387 . S
C403 C405 1.390 . S
C403 H407 0.950 . S
H404 C400 0.950 . S
C405 C403 1.390 . S
C405 C406 1.387 . S
C405 H408 0.950 . S
C406 C405 1.387 . S
C406 C409 1.387 . S
H407 C403 0.950 . S
H408 C405 0.950 . S
C409 C400 1.390 . S
C409 H402 0.950 . S
C409 C406 1.387 . S
C410 C411 1.387 . S
C410 H414 0.950 . S
C410 C419 1.390 . S
C411 C410 1.387 . S
C411 C413 1.384 1_655 S
H412 C419 0.950 . S
C413 C411 1.384 1_455 S
C413 C415 1.394 1_455 S
C413 H417 0.949 . S
H414 C410 0.950 . S
C415 C413 1.394 1_655 S
C415 C416 1.387 . S
C415 H418 0.950 . S
C416 C415 1.387 . S
C416 C419 1.387 . S
H417 C413 0.949 . S
H418 C415 0.950 . S
C419 C410 1.390 . S
C419 H412 0.950 . S
C419 C416 1.387 . S
C241 C175 2.483 . S
C246 C15 2.483 . S
C251 C202 2.558 . S
C256 C42 2.557 . S
C261 C95 2.482 . S
C266 C135 2.481 . S
C271 C2 2.558 . S
C276 C162 2.558 . S
C281 C215 2.481 . S
C286 C55 2.480 . S
C291 C82 2.558 . S
C296 C122 2.557 . S
C301 C26 1.982 . S
C306 C83 1.910 . S
C311 C66 1.983 . S
C316 C3 1.911 . S
C321 C106 1.982 . S
C326 C43 1.909 . S
C331 C146 1.983 . S
C336 C163 1.911 . S
C341 C186 1.983 . S
C346 C203 1.910 . S
C351 C123 1.911 . S
C356 C226 1.983 . S
C361 C9 1.401 . S
C366 C102 1.522 1_455 S
C371 C49 1.400 . S
C376 C22 1.521 1_565 S
C381 C89 1.401 . S
C386 C62 1.522 . S
C391 C129 1.400 . S
C396 C182 1.521 1_545 S
C401 C169 1.399 . S
C406 C222 1.521 . S
C411 C142 1.522 1_655 S
C416 C209 1.401 . S
