# Generated by pormake.
# Topology afw, (4)-cn, num edge types: 1
# Building blocks:
#     Node 0, Type 0, BuildingBlock: UXUYUI_clean_sbu_0, # of connection points: 4
#     Node 1, Type 0, BuildingBlock: UXUYUI_clean_sbu_0, # of connection points: 4
#     Node 2, Type 0, BuildingBlock: UXUYUI_clean_sbu_0, # of connection points: 4
#     Node 3, Type 0, BuildingBlock: UXUYUI_clean_sbu_0, # of connection points: 4
#     Node 4, Type 0, BuildingBlock: UXUYUI_clean_sbu_0, # of connection points: 4
#     Node 5, Type 0, BuildingBlock: UXUYUI_clean_sbu_0, # of connection points: 4
#     Node 6, Type 0, BuildingBlock: UXUYUI_clean_sbu_0, # of connection points: 4
#     Node 7, Type 0, BuildingBlock: UXUYUI_clean_sbu_0, # of connection points: 4
#     Node 8, Type 0, BuildingBlock: UXUYUI_clean_sbu_0, # of connection points: 4
#     Edge 9, Type (0, 0), BuildingBlock: UVAHIK_clean_linker_0, # of connection points: 2
#     Edge 10, Type (0, 0), BuildingBlock: UVAHIK_clean_linker_0, # of connection points: 2
#     Edge 11, Type (0, 0), BuildingBlock: UVAHIK_clean_linker_0, # of connection points: 2
#     Edge 12, Type (0, 0), BuildingBlock: UVAHIK_clean_linker_0, # of connection points: 2
#     Edge 13, Type (0, 0), BuildingBlock: UVAHIK_clean_linker_0, # of connection points: 2
#     Edge 14, Type (0, 0), BuildingBlock: UVAHIK_clean_linker_0, # of connection points: 2
#     Edge 15, Type (0, 0), BuildingBlock: UVAHIK_clean_linker_0, # of connection points: 2
#     Edge 16, Type (0, 0), BuildingBlock: UVAHIK_clean_linker_0, # of connection points: 2
#     Edge 17, Type (0, 0), BuildingBlock: UVAHIK_clean_linker_0, # of connection points: 2
#     Edge 18, Type (0, 0), BuildingBlock: UVAHIK_clean_linker_0, # of connection points: 2
#     Edge 19, Type (0, 0), BuildingBlock: UVAHIK_clean_linker_0, # of connection points: 2
#     Edge 20, Type (0, 0), BuildingBlock: UVAHIK_clean_linker_0, # of connection points: 2
#     Edge 21, Type (0, 0), BuildingBlock: UVAHIK_clean_linker_0, # of connection points: 2
#     Edge 22, Type (0, 0), BuildingBlock: UVAHIK_clean_linker_0, # of connection points: 2
#     Edge 23, Type (0, 0), BuildingBlock: UVAHIK_clean_linker_0, # of connection points: 2
#     Edge 24, Type (0, 0), BuildingBlock: UVAHIK_clean_linker_0, # of connection points: 2
#     Edge 25, Type (0, 0), BuildingBlock: UVAHIK_clean_linker_0, # of connection points: 2
#     Edge 26, Type (0, 0), BuildingBlock: UVAHIK_clean_linker_0, # of connection points: 2
# Relax obj value: 0.350
# Max RMSD: 0.270
# Mean RMSD: 0.270
data_MOF--net-afw--node1-UXUYUI_clean_sbu_0--edge1-UVAHIK_clean_linker_0
_symmetry_space_group_name_H-M    P1
_symmetry_Int_Tables_number       1
_symmetry_cell_setting            triclinic
loop_
_symmetry_equiv_pos_as_xyz
'x, y, z'
_cell_length_a     68.546812
_cell_length_b     68.542462
_cell_length_c     64.280407
_cell_angle_alpha  90.003525
_cell_angle_beta   89.987491
_cell_angle_gamma 119.99982
loop_
_atom_site_label
_atom_site_type_symbol
_atom_site_fract_x
_atom_site_fract_y
_atom_site_fract_z
_atom_type_partial_charge
Li0 Li 0.01785 0.24605 0.02553 0.0
Li1 Li 0.99525 0.20922 0.0105 0.0
Li2 Li 0.03684 0.22843 0.00773 0.0
Li3 Li 0.01469 0.24052 0.98777 0.0
C4 C 0.00756 0.20804 0.0517 0.0
N5 N 0.98651 0.1876 0.08857 0.0
C6 C 0.99021 0.21098 0.05957 0.0
C7 C 0.01429 0.19477 0.06264 0.0
C8 C 0.97975 0.20049 0.0782 0.0
C9 C 0.00342 0.18456 0.08124 0.0
C10 C 0.96826 0.2277 0.00883 0.0
C11 C 0.93094 0.20574 0.99439 0.0
N12 N 0.92235 0.21118 0.01104 0.0
C13 C 0.95908 0.23328 0.02568 0.0
C14 C 0.95411 0.21401 0.99295 0.0
C15 C 0.93582 0.22469 0.02655 0.0
C16 C 0.01588 0.28251 0.04195 0.0
N17 N 0.02116 0.26644 0.04684 0.0
C18 C 0.03045 0.28023 0.08161 0.0
C19 C 0.02876 0.26527 0.06607 0.0
C20 C 0.02443 0.29663 0.07723 0.0
C21 C 0.0174 0.29787 0.05698 0.0
H22 H 0.01023 0.28318 0.0264 0.0
H23 H 0.03324 0.25255 0.06941 0.0
C24 C 0.97075 0.16377 0.0019 0.0
N25 N 0.96948 0.17988 0.01312 0.0
C26 C 0.95292 0.14168 0.00185 0.0
C27 C 0.93277 0.15283 0.02542 0.0
C28 C 0.9511 0.17481 0.02502 0.0
C29 C 0.93349 0.13598 0.01354 0.0
H30 H 0.98571 0.16807 0.99294 0.0
H31 H 0.95051 0.18778 0.03405 0.0
C32 C 0.06215 0.27484 0.01365 0.0
N33 N 0.10175 0.30577 0.03284 0.0
C34 C 0.07542 0.29623 0.00501 0.0
C35 C 0.06901 0.26917 0.03206 0.0
C36 C 0.09539 0.31163 0.01494 0.0
C37 C 0.08908 0.28505 0.04152 0.0
C38 C 0.01433 0.20752 0.96562 0.0
C39 C 0.03459 0.21294 0.95573 0.0
C40 C 0.9944 0.19822 0.95407 0.0
C41 C 0.03463 0.20941 0.93433 0.0
C42 C 0.99515 0.19497 0.9327 0.0
N43 N 0.01508 0.20061 0.92335 0.0
C44 C 0.05894 0.20469 0.0162 0.0
C45 C 0.08184 0.23914 -0.00147 0.0
C46 C 0.0765 0.19998 0.01642 0.0
N47 N 0.06195 0.22403 0.00747 0.0
C48 C 0.09989 0.23509 -0.00165 0.0
C49 C 0.09732 0.21529 0.00743 0.0
H50 H 0.04276 0.19279 0.02274 0.0
H51 H 0.08363 0.25423 0.99138 0.0
C52 C -0.00389 0.25566 0.95645 0.0
N53 N 0.01404 0.25344 0.96201 0.0
C54 C -0.00423 0.26474 0.93711 0.0
C55 C 0.03239 0.26918 0.92976 0.0
C56 C 0.03218 0.26037 0.94933 0.0
C57 C 0.01398 0.27137 0.92346 0.0
H58 H 0.98213 0.25046 0.96701 0.0
H59 H 0.04644 0.25893 0.95444 0.0
O60 O 0.01799 0.21809 0.03342 0.0
O61 O 0.99101 0.23597 0.00772 0.0
O62 O 0.0425 0.25967 0.00409 0.0
O63 O 0.014 0.21117 0.98652 0.0
H64 H 0.98491 0.22127 0.05138 0.0
H65 H 0.02779 0.19242 0.05688 0.0
H66 H 0.96627 0.20262 0.08443 0.0
H67 H 0.00845 0.17424 0.08986 0.0
H68 H 0.91979 0.19499 0.98228 0.0
H69 H 0.96977 0.24412 0.03798 0.0
H70 H 0.96092 0.20971 0.97972 0.0
H71 H 0.92849 0.22877 0.03955 0.0
H72 H 0.03573 0.2785 0.09705 0.0
H73 H 0.01295 0.31047 0.05283 0.0
H74 H 0.95448 0.12913 0.99292 0.0
H75 H 0.91811 0.14915 0.03466 0.0
H76 H 0.07031 0.30086 0.99077 0.0
H77 H 0.05899 0.25269 0.03897 0.0
H78 H 0.10584 0.32826 0.00842 0.0
H79 H 0.09459 0.28089 0.05576 0.0
H80 H 0.05015 0.22004 0.96443 0.0
H81 H 0.97853 0.19355 0.96152 0.0
H82 H 0.05022 0.21371 0.92644 0.0
H83 H 0.97987 0.18792 0.92355 0.0
H84 H 0.07363 0.18428 0.02316 0.0
H85 H 0.11567 0.24732 0.99127 0.0
H86 H 0.98134 0.26631 0.93276 0.0
H87 H 0.04693 0.27455 0.91978 0.0
Li88 Li 0.81892 0.80282 0.00353 0.0
Li89 Li 0.78485 0.79123 0.02377 0.0
Li90 Li 0.78369 0.78922 0.98606 0.0
Li91 Li 0.80015 0.82525 0.00406 0.0
C92 C 0.80154 0.7594 0.00837 0.0
N93 N 0.82298 0.73485 0.01476 0.0
C94 C 0.80285 0.75213 0.02837 0.0
C95 C 0.81105 0.7541 0.99161 0.0
C96 C 0.81376 0.73973 0.03128 0.0
C97 C 0.82186 0.74171 0.99517 0.0
C98 C 0.82759 0.83935 0.0356 0.0
C99 C 0.83143 0.87132 0.05484 0.0
N100 N 0.85371 0.88296 0.04995 0.0
C101 C 0.85053 0.85164 0.03077 0.0
C102 C 0.81796 0.84924 0.04778 0.0
C103 C 0.86346 0.87366 0.03819 0.0
C104 C 0.85996 0.81104 0.98558 0.0
N105 N 0.84736 0.80433 0.00321 0.0
C106 C 0.87636 0.80165 0.02132 0.0
C107 C 0.85507 0.79963 0.02091 0.0
C108 C 0.88989 0.80878 0.00338 0.0
C109 C 0.88134 0.81331 0.98529 0.0
H110 H 0.85367 0.8152 0.97189 0.0
H111 H 0.84479 0.79468 0.0348 0.0
C112 C 0.75255 0.75454 0.04698 0.0
N113 N 0.76915 0.77643 0.04827 0.0
C114 C 0.7404 0.74319 0.06468 0.0
C115 C 0.7626 0.77723 0.08462 0.0
C116 C 0.77441 0.78784 0.06657 0.0
C117 C 0.74542 0.75455 0.08385 0.0
H118 H 0.74886 0.7459 0.03218 0.0
H119 H 0.78776 0.80518 0.06715 0.0
C120 C 0.81177 0.8186 0.95895 0.0
N121 N 0.80782 0.82012 0.91626 0.0
C122 C 0.80631 0.83387 0.95004 0.0
C123 C 0.81533 0.80419 0.94612 0.0
C124 C 0.8044 0.83438 0.92843 0.0
C125 C 0.81319 0.80517 0.92459 0.0
C126 C 0.74778 0.79049 0.01329 0.0
C127 C 0.73069 0.77016 0.00516 0.0
C128 C 0.74362 0.79955 0.03112 0.0
C129 C 0.70972 0.75921 0.01503 0.0
C130 C 0.72245 0.78805 0.04056 0.0
N131 N 0.70608 0.76829 0.03239 0.0
C132 C 0.76401 0.75363 0.95625 0.0
C133 C 0.75732 0.78414 0.95163 0.0
C134 C 0.75256 0.74367 0.93781 0.0
N135 N 0.76645 0.77368 0.9625 0.0
C136 C 0.74609 0.775 0.93302 0.0
C137 C 0.74388 0.75468 0.92581 0.0
H138 H 0.77123 0.74559 0.96539 0.0
H139 H 0.75926 0.7999 0.95723 0.0
C140 C 0.8254 0.87161 -0.00403 0.0
N141 N 0.80515 0.85509 0.00309 0.0
C142 C 0.83049 0.89401 -0.00379 0.0
C143 C 0.7937 0.88195 0.01094 0.0
C144 C 0.78923 0.85973 0.01019 0.0
C145 C 0.81461 0.89939 0.00399 0.0
H146 H 0.83773 0.86737 0.99046 0.0
H147 H 0.77322 0.84625 0.01558 0.0
O148 O 0.79126 0.77188 0.00525 0.0
O149 O 0.81452 0.81796 0.02804 0.0
O150 O 0.81324 0.81751 0.98011 0.0
O151 O 0.76858 0.80122 0.00411 0.0
H152 H 0.79576 0.75623 0.04156 0.0
H153 H 0.81038 0.75977 0.97606 0.0
H154 H 0.81498 0.73408 0.04668 0.0
H155 H 0.82943 0.73763 0.98236 0.0
H156 H 0.82414 0.87925 0.06409 0.0
H157 H 0.85828 0.84441 0.02121 0.0
H158 H 0.80014 0.84021 0.05129 0.0
H159 H 0.88121 0.88338 0.03451 0.0
H160 H 0.88226 0.79791 0.03557 0.0
H161 H 0.89137 0.81934 0.97126 0.0
H162 H 0.72757 0.72561 0.06342 0.0
H163 H 0.76688 0.78671 0.099 0.0
H164 H 0.80328 0.845 0.95969 0.0
H165 H 0.81927 0.79207 0.95274 0.0
H166 H 0.80008 0.84603 0.92133 0.0
H167 H 0.8157 0.79398 0.91451 0.0
H168 H 0.7336 0.76275 0.99152 0.0
H169 H 0.75676 0.815 0.03791 0.0
H170 H 0.69638 0.74343 0.00895 0.0
H171 H 0.71908 0.79477 0.05446 0.0
H172 H 0.75107 0.72792 0.93268 0.0
H173 H 0.73926 0.78376 0.92431 0.0
H174 H 0.84689 0.90704 0.99092 0.0
H175 H 0.78098 0.88546 0.01687 0.0
Li176 Li 0.22116 0.03048 -0.00223 0.0
Li177 Li 0.23444 0.00872 0.01734 0.0
Li178 Li 0.23548 0.01055 0.97833 0.0
Li179 Li 0.19966 0.98844 -0.00338 0.0
C180 C 0.26481 0.0577 0.00154 0.0
N181 N 0.28955 0.10376 0.00735 0.0
C182 C 0.27316 0.06652 0.02125 0.0
C183 C 0.26922 0.07227 0.98474 0.0
C184 C 0.2856 0.08987 0.02387 0.0
C185 C 0.2817 0.09551 0.98801 0.0
C186 C 0.19503 0.00147 0.03947 0.0
C187 C 0.17593 0.97183 0.06472 0.0
N188 N 0.17304 0.98628 0.0771 0.0
C189 C 0.19172 0.01599 0.05236 0.0
C190 C 0.18695 0.97918 0.04563 0.0
C191 C 0.18063 0.00801 0.07136 0.0
C192 C 0.20986 0.06182 0.98187 0.0
N193 N 0.21832 0.05661 -0.00128 0.0
C194 C 0.22183 0.08842 0.01727 0.0
C195 C 0.22431 0.06943 0.01624 0.0
C196 C 0.21294 0.09413 0.00014 0.0
C197 C 0.20706 0.08061 0.98222 0.0
H198 H 0.20491 0.05116 0.96827 0.0
H199 H 0.23087 0.0648 0.02946 0.0
C200 C 0.26727 0.00332 0.03739 0.0
N201 N 0.25046 0.00795 0.04093 0.0
C202 C 0.28094 0.00389 0.05372 0.0
C203 C 0.25938 0.01351 0.0771 0.0
C204 C 0.24629 0.01299 0.06028 0.0
C205 C 0.27713 0.0092 0.07384 0.0
H206 H 0.27028 -0.00042 0.02176 0.0
H207 H 0.23329 0.01725 0.06263 0.0
C208 C 0.20396 0.00875 0.95257 0.0
N209 N 0.199 0.00532 0.90985 0.0
C210 C 0.18746 0.98869 0.94352 0.0
C211 C 0.21779 0.02714 0.93991 0.0
C212 C 0.18524 0.98728 0.92188 0.0
C213 C 0.21507 0.02504 0.91834 0.0
C214 C 0.22265 0.96287 -0.00064 0.0
C215 C 0.22286 0.95053 0.98213 0.0
C216 C 0.21944 0.95349 0.01924 0.0
C217 C 0.21928 0.92878 0.98502 0.0
C218 C 0.21594 0.93169 0.0215 0.0
N219 N 0.2159 0.91988 0.00449 0.0
C220 C 0.27491 0.02765 0.95439 0.0
C221 C 0.24314 0.99624 0.93936 0.0
C222 C 0.28833 0.02891 0.93753 0.0
N223 N 0.25276 0.01156 0.95492 0.0
C224 C 0.25582 0.99708 0.92209 0.0
C225 C 0.27871 0.01356 0.92108 0.0
H226 H 0.2822 0.03943 0.96712 0.0
H227 H 0.22563 0.98333 0.94036 0.0
C228 C 0.15372 0.9666 0.00385 0.0
N229 N 0.17013 0.96298 -0.00374 0.0
C230 C 0.13154 0.94897 0.00502 0.0
C231 C 0.14331 0.92426 0.98979 0.0
C232 C 0.16535 0.94241 0.98902 0.0
C233 C 0.12612 0.92742 -0.00192 0.0
H234 H 0.15793 0.98324 0.00913 0.0
H235 H 0.17855 0.94003 0.98261 0.0
O236 O 0.25229 0.03491 -0.00128 0.0
O237 O 0.2059 0.00909 0.02083 0.0
O238 O 0.20643 0.01041 0.97371 0.0
O239 O 0.22635 0.98429 -0.00322 0.0
H240 H 0.26991 0.05547 0.03441 0.0
H241 H 0.26293 0.06569 0.96938 0.0
H242 H 0.29207 0.09695 0.03906 0.0
H243 H 0.28512 0.107 0.97518 0.0
H244 H 0.16958 0.9546 0.06966 0.0
H245 H 0.19769 0.03325 0.04777 0.0
H246 H 0.18889 0.96758 0.03567 0.0
H247 H 0.17804 0.01909 0.08153 0.0
H248 H 0.22672 0.09845 0.03134 0.0
H249 H 0.19971 0.08409 0.96882 0.0
H250 H 0.29448 0.00047 0.05063 0.0
H251 H 0.25623 0.01813 0.09233 0.0
H252 H 0.17655 0.97434 0.95309 0.0
H253 H 0.23065 0.04279 0.94666 0.0
H254 H 0.17261 0.97183 0.91466 0.0
H255 H 0.22576 0.03908 0.90834 0.0
H256 H 0.22556 0.95758 0.96665 0.0
H257 H 0.21988 0.96296 0.03284 0.0
H258 H 0.21922 0.91898 0.9718 0.0
H259 H 0.21336 0.92421 0.0368 0.0
H260 H 0.30595 0.04183 0.93726 0.0
H261 H 0.24792 0.9847 0.90984 0.0
H262 H 0.11871 0.95226 0.01108 0.0
H263 H 0.13981 0.90791 0.98422 0.0
Li264 Li 0.64954 0.53424 0.33315 0.0
Li265 Li 0.67357 0.56771 0.35427 0.0
Li266 Li 0.67128 0.56974 0.31607 0.0
Li267 Li 0.69207 0.55303 0.33118 0.0
C268 C 0.62507 0.5547 0.34043 0.0
N269 N 0.58006 0.53989 0.34769 0.0
C270 C 0.61791 0.55703 0.36016 0.0
C271 C 0.60937 0.54499 0.32434 0.0
C272 C 0.59507 0.54941 0.36353 0.0
C273 C 0.58668 0.53756 0.32834 0.0
C274 C 0.67226 0.52862 0.37366 0.0
C275 C 0.6932 0.52393 0.4015 0.0
N276 N 0.67353 0.50951 0.41117 0.0
C277 C 0.65226 0.51356 0.3838 0.0
C278 C 0.69292 0.53369 0.38251 0.0
C279 C 0.65325 0.50416 0.40277 0.0
C280 C 0.62288 0.49064 0.31827 0.0
N281 N 0.62291 0.5054 0.33239 0.0
C282 C 0.58687 0.47747 0.34518 0.0
C283 C 0.60538 0.49927 0.34572 0.0
C284 C 0.58657 0.46167 0.33105 0.0
C285 C 0.60487 0.46861 0.31735 0.0
H286 H 0.63718 0.49582 0.30807 0.0
H287 H 0.60594 0.51108 0.35714 0.0
C288 C 0.68688 0.60621 0.37849 0.0
N289 N 0.67673 0.58338 0.37951 0.0
C290 C 0.68996 0.61881 0.39649 0.0
C291 C 0.67184 0.58412 0.41619 0.0
C292 C 0.66906 0.57222 0.39782 0.0
C293 C 0.68243 0.60773 0.41567 0.0
H294 H 0.69258 0.61463 0.36366 0.0
H295 H 0.66045 0.5541 0.3982 0.0
C296 C 0.66949 0.54193 0.28735 0.0
N297 N 0.66998 0.54577 0.24456 0.0
C298 C 0.68952 0.54912 0.27632 0.0
C299 C 0.64966 0.53643 0.27663 0.0
C300 C 0.68942 0.55101 0.25468 0.0
C301 C 0.65027 0.53856 0.255 0.0
C302 C 0.71968 0.59873 0.34141 0.0
C303 C 0.73486 0.61748 0.3298 0.0
C304 C 0.72619 0.59466 0.36076 0.0
C305 C 0.75644 0.6317 0.33768 0.0
C306 C 0.74789 0.60928 0.36813 0.0
N307 N 0.76246 0.62733 0.35651 0.0
C308 C 0.65426 0.59104 0.2897 0.0
C309 C 0.69156 0.59911 0.28283 0.0
C310 C 0.65551 0.60528 0.2736 0.0
N311 N 0.67215 0.58827 0.29393 0.0
C312 C 0.69358 0.61353 0.26667 0.0
C313 C 0.67545 0.61687 0.26198 0.0
H314 H 0.63916 0.58245 0.29898 0.0
H315 H 0.70549 0.59654 0.28659 0.0
C316 C 0.71305 0.52751 0.33559 0.0
N317 N 0.71657 0.54777 0.32878 0.0
C318 C 0.73065 0.52286 0.33565 0.0
C319 C 0.75495 0.55964 0.32072 0.0
C320 C 0.73685 0.56362 0.32105 0.0
C321 C 0.75201 0.53915 0.32839 0.0
H322 H 0.69661 0.51508 0.34127 0.0
H323 H 0.73905 0.57941 0.31531 0.0
O324 O 0.64737 0.56217 0.33684 0.0
O325 O 0.67156 0.53781 0.35493 0.0
O326 O 0.66935 0.54045 0.30855 0.0
O327 O 0.69855 0.58454 0.33379 0.0
H328 H 0.62984 0.56462 0.37275 0.0
H329 H 0.6146 0.54299 0.309 0.0
H330 H 0.58929 0.55105 0.37874 0.0
H331 H 0.57432 0.52988 0.31608 0.0
H332 H 0.70908 0.52776 0.4085 0.0
H333 H 0.63614 0.50938 0.37725 0.0
H334 H 0.70861 0.54486 0.37476 0.0
H335 H 0.63788 0.49261 0.41083 0.0
H336 H 0.5731 0.47299 0.35594 0.0
H337 H 0.60572 0.45697 0.30652 0.0
H338 H 0.6982 0.63699 0.39544 0.0
H339 H 0.66525 0.57489 0.43057 0.0
H340 H 0.705 0.55343 0.28441 0.0
H341 H 0.63402 0.53072 0.28496 0.0
H342 H 0.70482 0.5567 0.24594 0.0
H343 H 0.63509 0.53451 0.2465 0.0
H344 H 0.73007 0.62099 0.31484 0.0
H345 H 0.71454 0.58053 0.3701 0.0
H346 H 0.76838 0.64622 0.32882 0.0
H347 H 0.75313 0.6063 0.3831 0.0
H348 H 0.64125 0.6076 0.27059 0.0
H349 H 0.70913 0.62189 0.25787 0.0
H350 H 0.72755 0.50666 0.34127 0.0
H351 H 0.77114 0.57259 0.31494 0.0
Li352 Li 0.48747 0.12852 0.33301 0.0
Li353 Li 0.45421 0.11827 0.35345 0.0
Li354 Li 0.45339 0.11739 0.31541 0.0
Li355 Li 0.47103 0.15309 0.33369 0.0
C356 C 0.46847 0.08504 0.33834 0.0
N357 N 0.48778 0.05876 0.34619 0.0
C358 C 0.47064 0.07942 0.35878 0.0
C359 C 0.47588 0.07707 0.32188 0.0
C360 C 0.4805 0.06616 0.36243 0.0
C361 C 0.48568 0.06388 0.32618 0.0
C362 C 0.50527 0.16231 0.36274 0.0
C363 C 0.53348 0.18396 0.38854 0.0
N364 N 0.54752 0.19729 0.37324 0.0
C365 C 0.52002 0.17625 0.34726 0.0
C366 C 0.51208 0.16619 0.38355 0.0
C367 C 0.54128 0.19382 0.35289 0.0
C368 C 0.52789 0.13445 0.31519 0.0
N369 N 0.51542 0.12879 0.33289 0.0
C370 C 0.54469 0.12744 0.35189 0.0
C371 C 0.52328 0.12512 0.35103 0.0
C372 C 0.55817 0.13377 0.33391 0.0
C373 C 0.54935 0.13694 0.31532 0.0
H374 H 0.52158 0.13787 0.30112 0.0
H375 H 0.51316 0.12104 0.36499 0.0
C376 C 0.41506 0.09066 0.3766 0.0
N377 N 0.43772 0.10453 0.37782 0.0
C378 C 0.40252 0.08091 0.39459 0.0
C379 C 0.43697 0.09994 0.41462 0.0
C380 C 0.44879 0.10934 0.39627 0.0
C381 C 0.41351 0.08553 0.41394 0.0
H382 H 0.40675 0.08732 0.36165 0.0
H383 H 0.46683 0.12033 0.39667 0.0
C384 C 0.48498 0.1452 0.28836 0.0
N385 N 0.48782 0.14606 0.24543 0.0
C386 C 0.4875 0.16386 0.27728 0.0
C387 C 0.48437 0.12718 0.2776 0.0
C388 C 0.4888 0.16394 0.25558 0.0
C389 C 0.48568 0.12786 0.2559 0.0
C390 C 0.4269 0.13682 0.34521 0.0
C391 C 0.40649 0.13354 0.33731 0.0
C392 C 0.4349 0.14787 0.36424 0.0
C393 C 0.39436 0.14134 0.34863 0.0
C394 C 0.42227 0.15542 0.37508 0.0
N395 N 0.40243 0.15203 0.36712 0.0
C396 C 0.42831 0.08014 0.28896 0.0
C397 C 0.43083 0.11449 0.27829 0.0
C398 C 0.41633 0.06938 0.27099 0.0
N399 N 0.43548 0.10233 0.29207 0.0
C400 C 0.41932 0.10455 0.25994 0.0
C401 C 0.4121 0.08179 0.25612 0.0
H402 H 0.43218 0.07092 0.3003 0.0
H403 H 0.43659 0.13207 0.28135 0.0
C404 C 0.48417 0.19651 0.35036 0.0
N405 N 0.47482 0.18261 0.33375 0.0
C406 C 0.48641 0.21786 0.35044 0.0
C407 C 0.46837 0.20991 0.31676 0.0
C408 C 0.46649 0.18866 0.31734 0.0
C409 C 0.4786 0.22489 0.33343 0.0
H410 H 0.48971 0.19105 0.3637 0.0
H411 H 0.45819 0.17686 0.30478 0.0
O412 O 0.45924 0.09836 0.33449 0.0
O413 O 0.48447 0.14465 0.35765 0.0
O414 O 0.48334 0.1447 0.30963 0.0
O415 O 0.439 0.12938 0.33418 0.0
H416 H 0.46501 0.08542 0.37171 0.0
H417 H 0.47415 0.08104 0.30597 0.0
H418 H 0.48242 0.06182 0.37818 0.0
H419 H 0.49161 0.0577 0.31359 0.0
H420 H 0.53893 0.18714 0.40459 0.0
H421 H 0.51521 0.17363 0.33107 0.0
H422 H 0.50097 0.15561 0.39575 0.0
H423 H 0.55284 0.20471 0.34107 0.0
H424 H 0.5508 0.12477 0.36653 0.0
H425 H 0.55932 0.14234 0.30121 0.0
H426 H 0.38445 0.07004 0.3934 0.0
H427 H 0.44618 0.10361 0.42912 0.0
H428 H 0.48862 0.17823 0.28531 0.0
H429 H 0.48261 0.11269 0.28591 0.0
H430 H 0.49065 0.17824 0.24682 0.0
H431 H 0.48496 0.11389 0.2474 0.0
H432 H 0.40013 0.12507 0.32257 0.0
H433 H 0.4507 0.15064 0.37058 0.0
H434 H 0.37852 0.13892 0.3427 0.0
H435 H 0.42826 0.164 0.38982 0.0
H436 H 0.41094 0.05178 0.26846 0.0
H437 H 0.41608 0.1145 0.24887 0.0
H438 H 0.4945 0.22886 0.36359 0.0
H439 H 0.46169 0.21446 0.30354 0.0
Li440 Li 0.90047 0.34403 0.35053 0.0
Li441 Li 0.88855 0.36646 0.33016 0.0
Li442 Li 0.86742 0.32431 0.32758 0.0
Li443 Li 0.90454 0.34749 0.31176 0.0
C444 C 0.85986 0.33685 0.37028 0.0
N445 N 0.83605 0.32255 0.40716 0.0
C446 C 0.85701 0.35198 0.38271 0.0
C447 C 0.85031 0.31437 0.37649 0.0
C448 C 0.84501 0.34445 0.40134 0.0
C449 C 0.8384 0.30748 0.39521 0.0
C450 C 0.93172 0.39381 0.33678 0.0
C451 C 0.94847 0.43204 0.32434 0.0
N452 N 0.95557 0.43968 0.34398 0.0
C453 C 0.93931 0.40202 0.35681 0.0
C454 C 0.93646 0.40891 0.32036 0.0
C455 C 0.9513 0.42528 0.36014 0.0
C456 C 0.92799 0.33347 0.37456 0.0
N457 N 0.91383 0.34194 0.37554 0.0
C458 C 0.91951 0.34758 0.41215 0.0
C459 C 0.9096 0.34914 0.39377 0.0
C460 C 0.93412 0.33878 0.41167 0.0
C461 C 0.93837 0.33169 0.39257 0.0
H462 H 0.93124 0.32813 0.35976 0.0
H463 H 0.89888 0.3565 0.39403 0.0
C464 C 0.87685 0.39704 0.31342 0.0
N465 N 0.88514 0.3923 0.33068 0.0
C466 C 0.87344 0.41545 0.3132 0.0
C467 C 0.88725 0.42387 0.34855 0.0
C468 C 0.89043 0.40528 0.34806 0.0
C469 C 0.87848 0.42904 0.33099 0.0
H470 H 0.87247 0.38626 0.29993 0.0
H471 H 0.89694 0.40107 0.3616 0.0
C472 C 0.88975 0.29869 0.33207 0.0
N473 N 0.88104 0.25501 0.33733 0.0
C474 C 0.89212 0.28697 0.31536 0.0
C475 C 0.88334 0.28829 0.35154 0.0
C476 C 0.88753 0.26487 0.3183 0.0
C477 C 0.87891 0.26618 0.35386 0.0
C478 C 0.87487 0.34605 0.284 0.0
C479 C 0.85963 0.32597 0.2741 0.0
C480 C 0.88912 0.36497 0.27209 0.0
C481 C 0.8591 0.32508 0.25237 0.0
C482 C 0.8881 0.36338 0.25041 0.0
N483 N 0.87325 0.34363 0.24109 0.0
C484 C 0.82115 0.30224 0.33218 0.0
C485 C 0.83377 0.2782 0.31886 0.0
C486 C 0.79905 0.28441 0.33297 0.0
N487 N 0.83802 0.29877 0.32564 0.0
C488 C 0.81182 0.25985 0.3193 0.0
C489 C 0.7942 0.2628 0.32676 0.0
H490 H 0.82498 0.31886 0.33713 0.0
H491 H 0.84733 0.27593 0.31328 0.0
C492 C 0.94485 0.36738 0.2886 0.0
N493 N 0.92334 0.34983 0.28913 0.0
C494 C 0.95874 0.37013 0.27166 0.0
C495 C 0.92814 0.33649 0.25633 0.0
C496 C 0.91494 0.3343 0.27363 0.0
C497 C 0.95027 0.35469 0.25515 0.0
H498 H 0.95117 0.37935 0.30126 0.0
H499 H 0.89788 0.32037 0.27455 0.0
O500 O 0.87159 0.34401 0.35199 0.0
O501 O 0.91969 0.3711 0.33326 0.0
O502 O 0.89425 0.32038 0.32942 0.0
O503 O 0.87574 0.34718 0.30526 0.0
H504 H 0.86404 0.36937 0.37806 0.0
H505 H 0.85175 0.30227 0.36685 0.0
H506 H 0.84279 0.35602 0.41115 0.0
H507 H 0.83094 0.29012 0.40018 0.0
H508 H 0.95212 0.44392 0.31181 0.0
H509 H 0.93585 0.39057 0.36967 0.0
H510 H 0.93073 0.40283 0.30476 0.0
H511 H 0.95718 0.43188 0.37558 0.0
H512 H 0.91623 0.35375 0.42649 0.0
H513 H 0.94953 0.32481 0.39157 0.0
H514 H 0.86623 0.41855 0.29948 0.0
H515 H 0.89147 0.43399 0.36254 0.0
H516 H 0.89733 0.29478 0.30025 0.0
H517 H 0.88207 0.29724 0.36481 0.0
H518 H 0.88914 0.25557 0.30546 0.0
H519 H 0.87388 0.25794 0.36884 0.0
H520 H 0.84844 0.3112 0.28307 0.0
H521 H 0.90101 0.38064 0.27952 0.0
H522 H 0.84748 0.30962 0.24449 0.0
H523 H 0.89915 0.37783 0.241 0.0
H524 H 0.78589 0.28753 0.33837 0.0
H525 H 0.80877 0.24347 0.31431 0.0
H526 H 0.97572 0.38438 0.27128 0.0
H527 H 0.92113 0.32401 0.24407 0.0
Li528 Li 0.342 0.90377 0.68501 0.0
Li529 Li 0.32101 0.87 0.66352 0.0
Li530 Li 0.36167 0.88983 0.66346 0.0
Li531 Li 0.33987 0.90572 0.64774 0.0
C532 C 0.32983 0.86242 0.70431 0.0
N533 N 0.30588 0.83785 0.73866 0.0
C534 C 0.30907 0.86054 0.70923 0.0
C535 C 0.33837 0.85179 0.71687 0.0
C536 C 0.29722 0.84803 0.72665 0.0
C537 C 0.32602 0.83946 0.73417 0.0
C538 C 0.30092 0.90216 0.66053 0.0
C539 C 0.27639 0.90243 0.63374 0.0
N540 N 0.27375 0.91785 0.64482 0.0
C541 C 0.29766 0.91775 0.6718 0.0
C542 C 0.28992 0.8942 0.64149 0.0
C543 C 0.28397 0.92557 0.66355 0.0
C544 C 0.34675 0.94086 0.70607 0.0
N545 N 0.34471 0.92037 0.70952 0.0
C546 C 0.34753 0.92664 0.74622 0.0
C547 C 0.34566 0.9133 0.72907 0.0
C548 C 0.34861 0.94744 0.74312 0.0
C549 C 0.34854 0.95467 0.72271 0.0
H550 H 0.34678 0.94636 0.69029 0.0
H551 H 0.34494 0.89738 0.73147 0.0
C552 C 0.30001 0.82318 0.66425 0.0
N553 N 0.29569 0.84043 0.66276 0.0
C554 C 0.28242 0.80096 0.66368 0.0
C555 C 0.25608 0.81461 0.66104 0.0
C556 C 0.27428 0.83665 0.66135 0.0
C557 C 0.26014 0.79648 0.66203 0.0
H558 H 0.31718 0.82675 0.66593 0.0
H559 H 0.2713 0.85069 0.66061 0.0
C560 C 0.38653 0.9343 0.67648 0.0
N561 N 0.42563 0.96087 0.69856 0.0
C562 C 0.40099 0.95657 0.67044 0.0
C563 C 0.3919 0.92554 0.6938 0.0
C564 C 0.4207 0.96974 0.68179 0.0
C565 C 0.41176 0.93924 0.70473 0.0
C566 C 0.33234 0.85967 0.62733 0.0
C567 C 0.34158 0.84555 0.62813 0.0
C568 C 0.31363 0.85383 0.61466 0.0
C569 C 0.3316 0.82554 0.61669 0.0
C570 C 0.30411 0.83366 0.60347 0.0
N571 N 0.31319 0.82003 0.60473 0.0
C572 C 0.38508 0.86733 0.67095 0.0
C573 C 0.40725 0.9023 0.65386 0.0
C574 C 0.40309 0.86333 0.67107 0.0
N575 N 0.38743 0.88647 0.66236 0.0
C576 C 0.42588 0.89913 0.65389 0.0
C577 C 0.42393 0.87938 0.66258 0.0
H578 H 0.36902 0.85497 0.6774 0.0
H579 H 0.40863 0.91743 0.64719 0.0
C580 C 0.33992 0.9437 0.63165 0.0
N581 N 0.33973 0.92443 0.6263 0.0
C582 C 0.34018 0.95817 0.61629 0.0
C583 C 0.34047 0.93285 0.59023 0.0
C584 C 0.33993 0.91874 0.60611 0.0
C585 C 0.3407 0.95296 0.59522 0.0
H586 H 0.33994 0.94782 0.6479 0.0
H587 H 0.34008 0.90344 0.60237 0.0
O588 O 0.3417 0.87434 0.68721 0.0
O589 O 0.31452 0.89453 0.66825 0.0
O590 O 0.36711 0.92132 0.66557 0.0
O591 O 0.34166 0.87916 0.63873 0.0
H592 H 0.30212 0.86863 0.69978 0.0
H593 H 0.35442 0.85311 0.71333 0.0
H594 H 0.28115 0.84644 0.73062 0.0
H595 H 0.33246 0.83117 0.74403 0.0
H596 H 0.26799 0.89655 0.61891 0.0
H597 H 0.30544 0.92364 0.68683 0.0
H598 H 0.29195 0.88191 0.63273 0.0
H599 H 0.28141 0.93772 0.67207 0.0
H600 H 0.34754 0.92046 0.76173 0.0
H601 H 0.34979 0.9708 0.71966 0.0
H602 H 0.28617 0.78741 0.66489 0.0
H603 H 0.23909 0.81176 0.65984 0.0
H604 H 0.39701 0.96361 0.65713 0.0
H605 H 0.38088 0.90837 0.69878 0.0
H606 H 0.43206 0.98701 0.67729 0.0
H607 H 0.41613 0.93268 0.71815 0.0
H608 H 0.35619 0.84986 0.63758 0.0
H609 H 0.30652 0.86471 0.61343 0.0
H610 H 0.33848 0.81438 0.61733 0.0
H611 H 0.28953 0.82888 0.59374 0.0
H612 H 0.4005 0.8476 0.67745 0.0
H613 H 0.44164 0.91207 0.64734 0.0
H614 H 0.34008 0.97332 0.62089 0.0
H615 H 0.34136 0.92835 0.57425 0.0
Li616 Li 0.1115 0.45185 0.68473 0.0
Li617 Li 0.14708 0.4683 0.66553 0.0
Li618 Li 0.12572 0.48739 0.66938 0.0
Li619 Li 0.11104 0.45347 0.64763 0.0
C620 C 0.15229 0.49855 0.70262 0.0
N621 N 0.17641 0.53886 0.72377 0.0
C622 C 0.17561 0.51168 0.69999 0.0
C623 C 0.14133 0.50576 0.71631 0.0
C624 C 0.18749 0.53204 0.71076 0.0
C625 C 0.15378 0.52624 0.72675 0.0
C626 C 0.12743 0.42422 0.6523 0.0
C627 C 0.14477 0.42004 0.62125 0.0
N628 N 0.13891 0.39877 0.62723 0.0
C629 C 0.12156 0.40232 0.65813 0.0
C630 C 0.1391 0.43318 0.6337 0.0
C631 C 0.12753 0.38972 0.64524 0.0
C632 C 0.07986 0.41105 0.70205 0.0
N633 N 0.09538 0.4326 0.707 0.0
C634 C 0.08749 0.42504 0.74317 0.0
C635 C 0.09935 0.43989 0.72702 0.0
C636 C 0.07158 0.40252 0.73856 0.0
C637 C 0.06765 0.39563 0.71767 0.0
H638 H 0.07712 0.40584 0.68592 0.0
H639 H 0.11191 0.45712 0.73044 0.0
C640 C 0.19117 0.48969 0.6514 0.0
N641 N 0.17628 0.47213 0.66324 0.0
C642 C 0.2131 0.49389 0.64888 0.0
C643 C 0.20406 0.46183 0.67088 0.0
C644 C 0.18217 0.4582 0.67293 0.0
C645 C 0.21982 0.47989 0.65869 0.0
H646 H 0.18607 0.50069 0.64422 0.0
H647 H 0.1699 0.44434 0.68226 0.0
C648 C 0.07467 0.45327 0.67816 0.0
N649 N 0.03511 0.43437 0.70085 0.0
C650 C 0.0553 0.43448 0.67052 0.0
C651 C 0.07377 0.46269 0.69717 0.0
C652 C 0.0355 0.42511 0.68226 0.0
C653 C 0.05367 0.45283 0.70846 0.0
C654 C 0.13696 0.49472 0.62708 0.0
C655 C 0.118 0.4973 0.62567 0.0
C656 C 0.1536 0.50408 0.61173 0.0
C657 C 0.11608 0.50928 0.60897 0.0
C658 C 0.15103 0.51589 0.59525 0.0
N659 N 0.13249 0.51824 0.59423 0.0
C660 C 0.15141 0.534 0.66833 0.0
C661 C 0.11283 0.52103 0.67516 0.0
C662 C 0.15649 0.55631 0.6698 0.0
N663 N 0.12999 0.51695 0.67139 0.0
C664 C 0.1171 0.5432 0.67641 0.0
C665 C 0.13923 0.5611 0.67395 0.0
H666 H 0.16458 0.5302 0.66478 0.0
H667 H 0.09586 0.50714 0.67705 0.0
C668 C 0.07859 0.4147 0.62843 0.0
N669 N 0.09447 0.43633 0.62408 0.0
C670 C 0.06511 0.40034 0.61265 0.0
C671 C 0.08523 0.43048 0.58795 0.0
C672 C 0.09834 0.44424 0.60423 0.0
C673 C 0.06817 0.40828 0.59211 0.0
H674 H 0.07636 0.40864 0.64428 0.0
H675 H 0.1115 0.46116 0.60086 0.0
O676 O 0.14032 0.47872 0.69194 0.0
O677 O 0.12155 0.43664 0.66477 0.0
O678 O 0.09439 0.4624 0.66712 0.0
O679 O 0.13946 0.48335 0.64343 0.0
H680 H 0.18448 0.50634 0.68968 0.0
H681 H 0.12337 0.49578 0.71874 0.0
H682 H 0.20551 0.54243 0.70874 0.0
H683 H 0.14545 0.5321 0.73723 0.0
H684 H 0.1538 0.42676 0.60682 0.0
H685 H 0.11246 0.39514 0.67245 0.0
H686 H 0.14373 0.45006 0.62886 0.0
H687 H 0.1231 0.37274 0.64956 0.0
H688 H 0.09125 0.43093 0.75909 0.0
H689 H 0.05539 0.37849 0.71347 0.0
H690 H 0.22483 0.50831 0.63975 0.0
H691 H 0.20858 0.45062 0.67865 0.0
H692 H 0.05549 0.42721 0.65567 0.0
H693 H 0.0885 0.47732 0.70324 0.0
H694 H 0.02043 0.41048 0.67657 0.0
H695 H 0.05283 0.45984 0.72329 0.0
H696 H 0.10484 0.49013 0.63725 0.0
H697 H 0.16831 0.50215 0.61245 0.0
H698 H 0.10152 0.51141 0.60772 0.0
H699 H 0.16377 0.52319 0.58326 0.0
H700 H 0.17369 0.56969 0.66739 0.0
H701 H 0.10337 0.54633 0.67949 0.0
H702 H 0.05245 0.38322 0.61649 0.0
H703 H 0.0881 0.43734 0.57235 0.0
Li704 Li 0.55415 0.6993 0.66213 0.0
Li705 Li 0.56741 0.67977 0.68249 0.0
Li706 Li 0.56862 0.67713 0.646 0.0
Li707 Li 0.53244 0.65837 0.66514 0.0
C708 C 0.59888 0.72216 0.65025 0.0
N709 N 0.62654 0.75763 0.62449 0.0
C710 C 0.62092 0.7375 0.65632 0.0
C711 C 0.59091 0.72483 0.63104 0.0
C712 C 0.63464 0.75533 0.64309 0.0
C713 C 0.60515 0.74288 0.61826 0.0
C714 C 0.54199 0.69504 0.70343 0.0
C715 C 0.52664 0.70459 0.73292 0.0
N716 N 0.54684 0.72366 0.73581 0.0
C717 C 0.5626 0.71475 0.70668 0.0
C718 C 0.52386 0.68992 0.71664 0.0
C719 C 0.56471 0.72899 0.72314 0.0
C720 C 0.52912 0.72001 0.65466 0.0
N721 N 0.5503 0.72474 0.65954 0.0
C722 C 0.56298 0.76414 0.66091 0.0
C723 C 0.56713 0.74625 0.66286 0.0
C724 C 0.54119 0.75981 0.65589 0.0
C725 C 0.52413 0.73731 0.65287 0.0
H726 H 0.51602 0.70269 0.65243 0.0
H727 H 0.58376 0.74956 0.66712 0.0
C728 C 0.60662 0.68916 0.70294 0.0
N729 N 0.58446 0.68175 0.70638 0.0
C730 C 0.62084 0.69185 0.71951 0.0
C731 C 0.589 0.67875 0.74283 0.0
C732 C 0.57537 0.67631 0.72576 0.0
C733 C 0.61211 0.6869 0.7398 0.0
H734 H 0.61325 0.69311 0.68728 0.0
H735 H 0.55761 0.67025 0.72799 0.0
C736 C 0.52858 0.66425 0.62279 0.0
N737 N 0.50436 0.63762 0.58953 0.0
C738 C 0.52651 0.64306 0.61995 0.0
C739 C 0.51825 0.67183 0.60878 0.0
C740 C 0.51422 0.62987 0.60302 0.0
C741 C 0.50611 0.65814 0.59203 0.0
C742 C 0.56223 0.63966 0.67963 0.0
C743 C 0.58081 0.63681 0.67636 0.0
C744 C 0.549 0.63059 0.69742 0.0
C745 C 0.58599 0.62511 0.69111 0.0
C746 C 0.55472 0.61898 0.71179 0.0
N747 N 0.57296 0.61653 0.70837 0.0
C748 C 0.60638 0.6783 0.62976 0.0
C749 C 0.58081 0.6753 0.60345 0.0
C750 C 0.62122 0.67834 0.61491 0.0
N751 N 0.58646 0.67636 0.62385 0.0
C752 C 0.59507 0.67512 0.58807 0.0
C753 C 0.61552 0.67647 0.59374 0.0
H754 H 0.6108 0.68002 0.64607 0.0
H755 H 0.56536 0.67472 0.599 0.0
C756 C 0.4867 0.63951 0.65958 0.0
N757 N 0.50252 0.63396 0.66476 0.0
C758 C 0.46425 0.62279 0.65734 0.0
C759 C 0.47461 0.59492 0.66648 0.0
C760 C 0.49702 0.6122 0.66812 0.0
C761 C 0.45803 0.60021 0.66079 0.0
H762 H 0.49167 0.65696 0.65682 0.0
H763 H 0.51002 0.6082 0.67171 0.0
O764 O 0.58545 0.70455 0.66309 0.0
O765 O 0.53934 0.68077 0.6874 0.0
O766 O 0.54004 0.67729 0.63951 0.0
O767 O 0.55714 0.65148 0.66561 0.0
H768 H 0.62735 0.73562 0.67111 0.0
H769 H 0.57394 0.71319 0.62601 0.0
H770 H 0.65173 0.76734 0.6476 0.0
H771 H 0.5992 0.74515 0.60337 0.0
H772 H 0.51274 0.70083 0.74327 0.0
H773 H 0.57687 0.71904 0.6967 0.0
H774 H 0.50778 0.67474 0.7143 0.0
H775 H 0.58056 0.74427 0.72583 0.0
H776 H 0.57673 0.78116 0.66324 0.0
H777 H 0.50695 0.73298 0.64953 0.0
H778 H 0.63849 0.69788 0.71649 0.0
H779 H 0.58166 0.67494 0.75825 0.0
H780 H 0.53431 0.63685 0.63068 0.0
H781 H 0.51956 0.68812 0.61088 0.0
H782 H 0.51249 0.61345 0.60062 0.0
H783 H 0.49804 0.6638 0.58105 0.0
H784 H 0.59113 0.64355 0.66261 0.0
H785 H 0.53471 0.63288 0.70031 0.0
H786 H 0.60037 0.62285 0.68882 0.0
H787 H 0.54473 0.61204 0.72571 0.0
H788 H 0.63703 0.67995 0.61997 0.0
H789 H 0.58991 0.67354 0.57195 0.0
H790 H 0.45183 0.62744 0.65304 0.0
H791 H 0.47034 0.57762 0.66908 0.0
C792 C 0.19925 0.11679 0.01941 0.0
C793 C 0.20851 0.1132 0.00129 0.0
C794 C 0.19288 0.1332 0.01984 0.0
C795 C 0.17356 0.1618 0.98464 0.0
H796 H 0.17772 0.19637 0.03388 0.0
C797 C 0.12866 0.21361 0.98882 0.0
C798 C 0.11588 0.21008 0.00698 0.0
C799 C 0.14461 0.20662 0.98782 0.0
C800 C 0.17643 0.18682 0.02001 0.0
H801 H 0.21961 0.12499 0.96983 0.0
H802 H 0.20833 0.1536 0.97055 0.0
H803 H 0.19776 0.17528 0.03273 0.0
H804 H 0.11074 0.19769 0.03869 0.0
H805 H 0.13815 0.18507 0.03681 0.0
H806 H 0.15158 0.17256 0.9722 0.0
C807 C 0.20573 0.14346 0.98432 0.0
C808 C 0.1879 0.17476 0.01935 0.0
C809 C 0.21214 0.12706 0.9839 0.0
C810 C 0.12009 0.20034 0.02439 0.0
C811 C 0.13603 0.19338 0.02339 0.0
C812 C 0.16207 0.17381 0.98531 0.0
C813 C 0.19561 0.14639 0.00216 0.0
C814 C 0.18614 0.16169 0.00185 0.0
C815 C 0.14814 0.19601 0.00496 0.0
C816 C 0.16291 0.186 0.0032 0.0
H817 H 0.19595 0.10622 0.03298 0.0
H818 H 0.18483 0.1348 0.03372 0.0
H819 H 0.17161 0.15167 0.97103 0.0
H820 H 0.12573 0.22097 0.97512 0.0
H821 H 0.15386 0.20909 0.97347 0.0
C822 C 0.81634 0.93159 0.02395 0.0
C823 C 0.82021 0.92318 0.00542 0.0
C824 C 0.82331 0.95447 0.02586 0.0
C825 C 0.84087 0.00657 -0.00408 0.0
H826 H 0.87933 0.03656 0.04329 0.0
C827 C 0.90823 0.09995 0.99488 0.0
C828 C 0.91442 0.11245 0.01344 0.0
C829 C 0.89207 0.07711 0.99497 0.0
C830 C 0.86821 0.02849 0.03021 0.0
H831 H 0.83344 0.93178 0.97408 0.0
H832 H 0.84557 0.97175 0.97736 0.0
H833 H 0.85914 0.99562 0.04141 0.0
H834 H 0.90759 0.11103 0.04651 0.0
H835 H 0.87886 0.07116 0.0466 0.0
H836 H 0.85023 0.03941 0.9845 0.0
C837 C 0.83715 0.96068 0.99041 0.0
C838 C 0.85669 0.00499 0.02912 0.0
C839 C 0.83042 0.93788 0.98858 0.0
C840 C 0.90317 0.10187 0.03194 0.0
C841 C 0.88689 0.07897 0.03202 0.0
C842 C 0.85223 0.03006 -0.00291 0.0
C843 C 0.83401 0.96927 0.00918 0.0
C844 C 0.84343 0.99385 0.01168 0.0
C845 C 0.88153 0.06621 0.01361 0.0
C846 C 0.86659 0.04133 0.01394 0.0
H847 H 0.80863 0.92062 0.03721 0.0
H848 H 0.82062 0.96065 0.04047 0.0
H849 H 0.83048 -0.00165 0.98244 0.0
H850 H 0.91628 0.10771 0.98028 0.0
H851 H 0.88859 0.06783 0.98052 0.0
C852 C 0.92733 0.82403 0.02097 0.0
C853 C 0.91337 0.81309 0.00383 0.0
C854 C 0.95013 0.83045 0.02049 0.0
C855 C 0.99567 0.84657 0.98299 0.0
H856 H 0.02961 0.84831 0.03189 0.0
C857 C 0.09264 0.89379 0.9824 0.0
C858 C 0.10256 0.90856 -0.00073 0.0
C859 C 0.06982 0.87733 0.98292 0.0
C860 C 0.02035 0.84792 0.0181 0.0
H861 H 0.91207 0.79905 0.97328 0.0
H862 H 0.95199 0.81038 0.97243 0.0
H863 H 0.98849 0.82751 0.03297 0.0
H864 H 0.09674 0.91682 0.03037 0.0
H865 H 0.05694 0.88848 0.03114 0.0
H866 H 0.02743 0.86766 0.96834 0.0
C867 C 0.94532 0.81426 0.9861 0.0
C868 C -0.00317 0.83602 0.01872 0.0
C869 C 0.9225 0.80781 0.98658 0.0
C870 C 0.08947 0.90589 0.01701 0.0
C871 C 0.06673 0.88944 0.01755 0.0
C872 C 0.01917 0.85848 0.98237 0.0
C873 C 0.95949 0.8261 0.00287 0.0
C874 C 0.98424 0.83573 0.00134 0.0
C875 C 0.05652 0.87526 0.00036 0.0
C876 C 0.03178 0.8598 0.0001 0.0
H877 H 0.92093 0.82863 0.03438 0.0
H878 H 0.96063 0.83984 0.03354 0.0
H879 H 0.98649 0.84692 0.96941 0.0
H880 H 0.10229 0.89549 0.96849 0.0
H881 H 0.06248 0.86651 0.96951 0.0
C882 C 0.87709 0.46134 0.31406 0.0
C883 C 0.87315 0.44751 0.33154 0.0
C884 C 0.8696 0.47691 0.31372 0.0
C885 C 0.84675 0.50534 0.34686 0.0
H886 H 0.81308 0.50191 0.29718 0.0
C887 C 0.77426 0.52436 0.3465 0.0
C888 C 0.771 0.53463 0.32896 0.0
C889 C 0.79115 0.51868 0.34666 0.0
C890 C 0.82279 0.50348 0.31101 0.0
H891 H 0.85898 0.43977 0.36263 0.0
H892 H 0.84584 0.4668 0.36201 0.0
H893 H 0.83532 0.48325 0.29786 0.0
H894 H 0.78335 0.54766 0.29807 0.0
H895 H 0.81305 0.53777 0.29837 0.0
H896 H 0.83345 0.52487 0.36024 0.0
C897 C 0.855 0.46588 0.34867 0.0
C898 C 0.83557 0.49278 0.3114 0.0
C899 C 0.86251 0.45035 0.34902 0.0
C900 C 0.78551 0.5398 0.31183 0.0
C901 C 0.80239 0.53401 0.31194 0.0
C902 C 0.83394 0.51602 0.34647 0.0
C903 C 0.85799 0.47897 0.33083 0.0
C904 C 0.84722 0.49309 0.32951 0.0
C905 C 0.80517 0.52309 0.32926 0.0
C906 C 0.82135 0.5147 0.32872 0.0
H907 H 0.8856 0.4598 0.30049 0.0
H908 H 0.87248 0.48701 0.29987 0.0
H909 H 0.85586 0.50621 0.36091 0.0
H910 H 0.76354 0.52047 0.36005 0.0
H911 H 0.79267 0.51006 0.36015 0.0
C912 C 0.47938 0.25788 0.35118 0.0
C913 C 0.48185 0.24799 0.33294 0.0
C914 C 0.48507 0.28048 0.35135 0.0
C915 C 0.49804 0.32966 0.31827 0.0
H916 H 0.53989 0.36345 0.36248 0.0
C917 C 0.56104 0.42493 0.3131 0.0
C918 C 0.56821 0.43771 0.3315 0.0
C919 C 0.54596 0.40176 0.31384 0.0
C920 C 0.52783 0.35434 0.35029 0.0
H921 H 0.49118 0.25381 0.30033 0.0
H922 H 0.50096 0.29325 0.30063 0.0
H923 H 0.52109 0.32265 0.36267 0.0
H924 H 0.56401 0.43619 0.36507 0.0
H925 H 0.53699 0.39613 0.36623 0.0
H926 H 0.50508 0.36146 0.30572 0.0
C927 C 0.49451 0.28346 0.31475 0.0
C928 C 0.51708 0.33089 0.35038 0.0
C929 C 0.48891 0.26086 0.31459 0.0
C930 C 0.55883 0.42699 0.35054 0.0
C931 C 0.54355 0.40388 0.35125 0.0
C932 C 0.50866 0.35319 0.31827 0.0
C933 C 0.49322 0.29364 0.33327 0.0
C934 C 0.50242 0.31832 0.33418 0.0
C935 C 0.53747 0.39085 0.33299 0.0
C936 C 0.52405 0.36584 0.33407 0.0
H937 H 0.47348 0.24828 0.36546 0.0
H938 H 0.48359 0.28783 0.36577 0.0
H939 H 0.48663 0.32034 0.3057 0.0
H940 H 0.56754 0.43269 0.29811 0.0
H941 H 0.5418 0.3923 0.29945 0.0
C942 C 0.59577 0.1515 0.35155 0.0
C943 C 0.58196 0.13905 0.33481 0.0
C944 C 0.61885 0.15916 0.35116 0.0
C945 C 0.66434 0.17577 0.31356 0.0
H946 H 0.69991 0.18281 0.36283 0.0
C947 C 0.76137 0.22785 0.31197 0.0
C948 C 0.77086 0.24355 0.32824 0.0
C949 C 0.73884 0.21067 0.31292 0.0
C950 C 0.6902 0.18096 0.34893 0.0
H951 H 0.58129 0.12357 0.30519 0.0
H952 H 0.6217 0.13706 0.30449 0.0
H953 H 0.65891 0.15985 0.36446 0.0
H954 H 0.76458 0.25285 0.35871 0.0
H955 H 0.72528 0.22326 0.36019 0.0
H956 H 0.69548 0.19754 0.29822 0.0
C957 C 0.61468 0.14116 0.31776 0.0
C958 C 0.66674 0.1678 0.34987 0.0
C959 C 0.59156 0.13346 0.31816 0.0
C960 C 0.75763 0.24121 0.34579 0.0
C961 C 0.73519 0.22405 0.34676 0.0
C962 C 0.68778 0.18893 0.31263 0.0
C963 C 0.62865 0.15457 0.33402 0.0
C964 C 0.65353 0.16556 0.33233 0.0
C965 C 0.72542 0.20879 0.3302 0.0
C966 C 0.70093 0.19217 0.33045 0.0
H967 H 0.58899 0.15638 0.36448 0.0
H968 H 0.62918 0.16971 0.36381 0.0
H969 H 0.65465 0.17462 0.29984 0.0
H970 H 0.77113 0.22926 0.29822 0.0
H971 H 0.73183 0.19904 0.29999 0.0
C972 C 0.45779 0.88123 0.64523 0.0
C973 C 0.44313 0.87502 0.66238 0.0
C974 C 0.47431 0.87497 0.64423 0.0
C975 C 0.50158 0.8489 0.67562 0.0
H976 H 0.50764 0.82718 0.62172 0.0
C977 C 0.54636 0.79718 0.66769 0.0
C978 C 0.536 0.77842 0.65435 0.0
C979 C 0.54015 0.81375 0.66722 0.0
C980 C 0.50605 0.83302 0.63694 0.0
H981 H 0.43554 0.85876 0.69262 0.0
H982 H 0.46314 0.84672 0.69036 0.0
H983 H 0.48713 0.84736 0.62463 0.0
H984 H 0.51187 0.76321 0.62919 0.0
H985 H 0.50007 0.79107 0.62929 0.0
H986 H 0.51876 0.83285 0.68821 0.0
C987 C 0.46235 0.8568 0.67778 0.0
C988 C 0.49459 0.84502 0.63857 0.0
C989 C 0.44612 0.86335 0.67892 0.0
C990 C 0.51986 0.7771 0.64005 0.0
C991 C 0.51339 0.79343 0.63983 0.0
C992 C 0.51264 0.8365 0.67406 0.0
C993 C 0.47639 0.86211 0.66024 0.0
C994 C 0.49161 0.85255 0.65804 0.0
C995 C 0.52319 0.81182 0.65362 0.0
C996 C 0.51445 0.82781 0.65478 0.0
H997 H 0.45599 0.89018 0.63217 0.0
H998 H 0.48509 0.87978 0.63066 0.0
H999 H 0.5002 0.85494 0.69081 0.0
H1000 H 0.55876 0.79877 0.67901 0.0
H1001 H 0.5484 0.82786 0.67781 0.0
C1002 C 0.22286 0.76592 0.67521 0.0
C1003 C 0.24135 0.77291 0.66177 0.0
C1004 C 0.2063 0.74316 0.67639 0.0
C1005 C 0.18325 0.68843 0.64932 0.0
H1006 H 0.17239 0.66296 0.70486 0.0
C1007 C 0.13257 0.59247 0.66332 0.0
C1008 C 0.14456 0.5848 0.67526 0.0
C1009 C 0.13947 0.61543 0.66273 0.0
C1010 C 0.17507 0.66987 0.68928 0.0
H1011 H 0.25648 0.76199 0.63828 0.0
H1012 H 0.22757 0.72231 0.64026 0.0
H1013 H 0.19362 0.70381 0.70037 0.0
H1014 H 0.17221 0.59468 0.69683 0.0
H1015 H 0.18419 0.6347 0.69593 0.0
H1016 H 0.16559 0.65446 0.63819 0.0
C1017 C 0.22582 0.73432 0.64988 0.0
C1018 C 0.18706 0.69323 0.68671 0.0
C1019 C 0.24247 0.75697 0.64888 0.0
C1020 C 0.16281 0.60024 0.68739 0.0
C1021 C 0.16952 0.62309 0.68701 0.0
C1022 C 0.17109 0.66507 0.65189 0.0
C1023 C 0.20781 0.72711 0.66393 0.0
C1024 C 0.19187 0.70271 0.66668 0.0
C1025 C 0.15825 0.63099 0.67432 0.0
C1026 C 0.16751 0.65556 0.67187 0.0
H1027 H 0.22168 0.77789 0.68537 0.0
H1028 H 0.19254 0.73805 0.6873 0.0
H1029 H 0.18656 0.69532 0.63372 0.0
H1030 H 0.11849 0.58086 0.65377 0.0
H1031 H 0.13045 0.62109 0.65289 0.0
C1032 C 0.25552 0.48467 0.67434 0.0
C1033 C 0.24348 0.48498 0.65676 0.0
C1034 C 0.27868 0.49268 0.67303 0.0
C1035 C 0.32678 0.53425 0.64359 0.0
H1036 H 0.36004 0.50946 0.67086 0.0
C1037 C 0.42284 0.58118 0.63977 0.0
C1038 C 0.43429 0.58242 0.65823 0.0
C1039 C 0.39984 0.56593 0.63794 0.0
C1040 C 0.35099 0.51668 0.66329 0.0
H1041 H 0.2458 0.49203 0.62369 0.0
H1042 H 0.2862 0.50616 0.62146 0.0
H1043 H 0.31879 0.48816 0.67083 0.0
H1044 H 0.43113 0.56833 0.689 0.0
H1045 H 0.39062 0.54213 0.6862 0.0
H1046 H 0.35853 0.5631 0.63679 0.0
C1047 C 0.27783 0.50011 0.63631 0.0
C1048 C 0.32741 0.50443 0.66323 0.0
C1049 C 0.25474 0.49207 0.6376 0.0
C1050 C 0.42258 0.56757 0.67458 0.0
C1051 C 0.39943 0.55252 0.67291 0.0
C1052 C 0.35023 0.54654 0.64384 0.0
C1053 C 0.29016 0.50116 0.65413 0.0
C1054 C 0.3151 0.51316 0.6534 0.0
C1055 C 0.38768 0.55189 0.65472 0.0
C1056 C 0.36268 0.53798 0.65372 0.0
H1057 H 0.24733 0.47941 0.68935 0.0
H1058 H 0.2878 0.49341 0.68704 0.0
H1059 H 0.31775 0.54164 0.63629 0.0
H1060 H 0.43165 0.59228 0.62685 0.0
H1061 H 0.39151 0.56549 0.6235 0.0
C1062 C 0.0201 0.27325 0.88508 0.0
C1063 C 0.01418 0.281 0.90286 0.0
C1064 C 0.02219 0.28357 0.86587 0.0
C1065 C 0.01045 0.32396 0.83751 0.0
H1066 H 0.06299 0.33462 0.80574 0.0
C1067 C 0.05221 0.39182 0.77326 0.0
C1068 C 0.06018 0.38601 0.75552 0.0
C1069 C 0.04319 0.37682 0.78994 0.0
C1070 C 0.04806 0.3315 0.81425 0.0
H1071 H 0.0051 0.30504 0.91454 0.0
H1072 H 0.00936 0.32357 0.88105 0.0
H1073 H 0.05333 0.31222 0.83727 0.0
H1074 H 0.06443 0.35975 0.74109 0.0
H1075 H 0.04853 0.33355 0.77011 0.0
H1076 H 0.00582 0.34408 0.81465 0.0
C1077 C 0.01193 0.30923 0.8818 0.0
C1078 C 0.04246 0.31859 0.83232 0.0
C1079 C 0.00958 0.29871 0.90099 0.0
C1080 C 0.05827 0.36465 0.75448 0.0
C1081 C 0.04936 0.34972 0.77116 0.0
C1082 C 0.01618 0.33706 0.81945 0.0
C1083 C 0.0187 0.30206 0.8641 0.0
C1084 C 0.02366 0.31474 0.84424 0.0
C1085 C 0.04213 0.35582 0.7892 0.0
C1086 C 0.03511 0.34102 0.80772 0.0
H1087 H 0.02336 0.25936 0.88611 0.0
H1088 H 0.0269 0.27727 0.85246 0.0
H1089 H 0.99571 0.3211 0.8462 0.0
H1090 H 0.05326 0.40808 0.77438 0.0
H1091 H 0.03786 0.382 0.80371 0.0
C1092 C 0.7392 0.75948 0.88811 0.0
C1093 C 0.73284 0.74544 0.90563 0.0
C1094 C 0.72763 0.75159 0.8694 0.0
C1095 C 0.68678 0.70024 0.8408 0.0
H1096 H 0.67386 0.74255 0.81262 0.0
C1097 C 0.62084 0.67641 0.77461 0.0
C1098 C 0.6273 0.6915 0.75779 0.0
C1099 C 0.63472 0.68164 0.79208 0.0
C1100 C 0.67755 0.73063 0.82016 0.0
H1101 H 0.71006 0.71194 0.91732 0.0
H1102 H 0.68931 0.69815 0.88461 0.0
H1103 H 0.69641 0.75406 0.84411 0.0
H1104 H 0.65348 0.72369 0.74595 0.0
H1105 H 0.67772 0.73266 0.77628 0.0
H1106 H 0.66731 0.67665 0.81685 0.0
C1107 C 0.70348 0.71517 0.88523 0.0
C1108 C 0.69053 0.73722 0.83819 0.0
C1109 C 0.71527 0.72304 0.90394 0.0
C1110 C 0.64812 0.71162 0.75857 0.0
C1111 C 0.6619 0.71687 0.77601 0.0
C1112 C 0.67361 0.69357 0.82274 0.0
C1113 C 0.70924 0.72954 0.86789 0.0
C1114 C 0.69544 0.72219 0.84866 0.0
C1115 C 0.6552 0.70211 0.79307 0.0
C1116 C 0.66902 0.70879 0.81221 0.0
H1117 H 0.753 0.77671 0.88896 0.0
H1118 H 0.73288 0.7629 0.85619 0.0
H1119 H 0.6904 0.68832 0.84843 0.0
H1120 H 0.60497 0.66068 0.77433 0.0
H1121 H 0.62912 0.67001 0.80507 0.0
C1122 C 0.36179 0.9638 0.77874 0.0
C1123 C 0.34857 0.96096 0.76106 0.0
C1124 C 0.36033 0.97517 0.7962 0.0
C1125 C 0.33741 0.0114 0.81451 0.0
H1126 H 0.33129 0.98118 0.86712 0.0
C1127 C 0.28441 0.01283 0.8828 0.0
C1128 C 0.29248 0.01423 0.90312 0.0
C1129 C 0.29645 0.01156 0.86587 0.0
C1130 C 0.33341 0.99011 0.85263 0.0
H1131 H 0.32372 0.96801 0.74768 0.0
H1132 H 0.32085 0.98739 0.77811 0.0
H1133 H 0.34326 0.96924 0.83638 0.0
H1134 H 0.31969 0.01605 0.92175 0.0
H1135 H 0.3407 0.01352 0.89203 0.0
H1136 H 0.32625 0.03139 0.83069 0.0
C1137 C 0.33279 0.98142 0.77841 0.0
C1138 C 0.34032 0.9833 0.835 0.0
C1139 C 0.33435 0.97021 0.76096 0.0
C1140 C 0.31318 0.01507 0.9062 0.0
C1141 C 0.32511 0.01352 0.88926 0.0
C1142 C 0.3303 0.01806 0.83212 0.0
C1143 C 0.3455 0.98376 0.79636 0.0
C1144 C 0.34175 0.99342 0.8156 0.0
C1145 C 0.31667 0.01143 0.86897 0.0
C1146 C 0.32765 0.00705 0.8512 0.0
H1147 H 0.37312 0.95708 0.77912 0.0
H1148 H 0.37059 0.97695 0.80966 0.0
H1149 H 0.33883 0.01988 0.7999 0.0
H1150 H 0.26858 0.01234 0.88003 0.0
H1151 H 0.28944 0.00972 0.85041 0.0
C1152 C 0.3793 0.05148 0.23682 0.0
C1153 C 0.4004 0.07121 0.23653 0.0
C1154 C 0.36758 0.04245 0.21827 0.0
C1155 C 0.36513 0.05975 0.16423 0.0
H1156 H 0.32428 0.99578 0.15634 0.0
C1157 C 0.31593 0.02499 0.08831 0.0
C1158 C 0.29252 0.0119 0.09111 0.0
C1159 C 0.33048 0.02988 0.10516 0.0
C1160 C 0.33568 0.01367 0.15838 0.0
H1161 H 0.42651 0.09635 0.21687 0.0
H1162 H 0.40656 0.08019 0.18439 0.0
H1163 H 0.34785 0.00893 0.1875 0.0
H1164 H 0.26598 0.99262 0.11336 0.0
H1165 H 0.29152 0.00107 0.1429 0.0
H1166 H 0.35302 0.06444 0.13508 0.0
C1167 C 0.39856 0.07207 0.19888 0.0
C1168 C 0.34908 0.02124 0.17624 0.0
C1169 C 0.41006 0.08128 0.21743 0.0
C1170 C 0.28397 0.00288 0.11085 0.0
C1171 C 0.29855 0.00756 0.12767 0.0
C1172 C 0.352 0.05216 0.1463 0.0
C1173 C 0.37695 0.05282 0.19908 0.0
C1174 C 0.36377 0.04442 0.17951 0.0
C1175 C 0.32188 0.02156 0.12506 0.0
C1176 C 0.33698 0.02911 0.14332 0.0
H1177 H 0.37153 0.04351 0.25144 0.0
H1178 H 0.35087 0.02781 0.2191 0.0
H1179 H 0.37581 0.07774 0.16637 0.0
H1180 H 0.32295 0.03228 0.07328 0.0
H1181 H 0.34843 0.04062 0.10276 0.0
C1182 C 0.00616 0.31566 0.09532 0.0
C1183 C 0.02411 0.31133 0.094 0.0
C1184 C 0.00447 0.32757 0.11214 0.0
C1185 C 0.01953 0.33769 0.16686 0.0
H1186 H 0.99288 0.37586 0.16248 0.0
C1187 C 0.98666 0.36206 0.23903 0.0
C1188 C 0.96434 0.35737 0.23673 0.0
C1189 C -0.0008 0.36269 0.22163 0.0
C1190 C 0.00044 0.36532 0.16394 0.0
H1191 H 0.05506 0.31722 0.10874 0.0
H1192 H 0.05193 0.33787 0.13836 0.0
H1193 H 0.00613 0.36591 0.13115 0.0
H1194 H 0.93808 0.351 0.21446 0.0
H1195 H 0.95978 0.35182 0.18416 0.0
H1196 H 0.01294 0.33625 0.1995 0.0
C1197 C 0.03909 0.33184 0.1264 0.0
C1198 C 0.00801 0.35963 0.14604 0.0
C1199 C 0.04082 0.31996 0.1095 0.0
C1200 C 0.95515 0.35434 0.21669 0.0
C1201 C 0.96769 0.35511 0.19932 0.0
C1202 C 0.01199 0.3434 0.18477 0.0
C1203 C 0.02065 0.33538 0.12808 0.0
C1204 C 0.01686 0.34507 0.14723 0.0
C1205 C 0.98969 0.35886 0.20163 0.0
C1206 C 0.00161 0.35659 0.18338 0.0
H1207 H 0.99279 0.30896 0.08385 0.0
H1208 H 0.98983 0.32963 0.11315 0.0
H1209 H 0.02608 0.32628 0.16828 0.0
H1210 H 0.99413 0.36441 0.25433 0.0
H1211 H 0.01616 0.36573 0.22384 0.0
C1212 C 0.69749 0.65346 0.24321 0.0
C1213 C 0.67758 0.63261 0.24521 0.0
C1214 C 0.70018 0.66787 0.2268 0.0
C1215 C 0.68124 0.6666 0.17355 0.0
H1216 H 0.71532 0.73158 0.17974 0.0
C1217 C 0.71037 0.72654 0.10279 0.0
C1218 C 0.7335 0.74256 0.1031 0.0
C1219 C 0.6996 0.71432 0.1207 0.0
C1220 C 0.70571 0.71346 0.17779 0.0
H1221 H 0.64459 0.61073 0.23192 0.0
H1222 H 0.64925 0.6361 0.20317 0.0
H1223 H 0.70302 0.70769 0.21064 0.0
H1224 H 0.76337 0.75839 0.12256 0.0
H1225 H 0.74457 0.73734 0.15372 0.0
H1226 H 0.68459 0.67238 0.14069 0.0
C1227 C 0.66282 0.64117 0.21428 0.0
C1228 C 0.6987 0.6998 0.19545 0.0
C1229 C 0.6601 0.62675 0.23079 0.0
C1230 C 0.74546 0.7465 0.12184 0.0
C1231 C 0.73468 0.73443 0.13973 0.0
C1232 C 0.6882 0.68029 0.15588 0.0
C1233 C 0.68301 0.66177 0.21199 0.0
C1234 C 0.68705 0.67622 0.1935 0.0
C1235 C 0.71173 0.71802 0.13929 0.0
C1236 C 0.70113 0.70382 0.15784 0.0
H1237 H 0.71113 0.65857 0.25426 0.0
H1238 H 0.71606 0.68347 0.22533 0.0
H1239 H 0.67246 0.64849 0.17153 0.0
H1240 H 0.70059 0.72336 0.08868 0.0
H1241 H 0.68184 0.70187 0.11999 0.0
C1242 C 0.02977 0.38066 0.57868 0.0
C1243 C 0.05308 0.39391 0.57524 0.0
C1244 C 0.01525 0.36886 0.56231 0.0
C1245 C 0.01301 0.34954 0.50797 0.0
H1246 H 0.96207 0.35925 0.50366 0.0
C1247 C 0.96884 0.34565 0.43071 0.0
C1248 C 0.94564 0.3381 0.4309 0.0
C1249 C 0.98021 0.34731 0.44922 0.0
C1250 C 0.9759 0.35591 0.50478 0.0
H1251 H 0.07957 0.40406 0.55223 0.0
H1252 H 0.05417 0.3839 0.52353 0.0
H1253 H 0.98526 0.37131 0.53474 0.0
H1254 H 0.91588 0.32496 0.45035 0.0
H1255 H 0.93572 0.32771 0.48271 0.0
H1256 H 0.00395 0.33476 0.47762 0.0
C1257 C 0.04712 0.38248 0.53892 0.0
C1258 C 0.98922 0.36285 0.52263 0.0
C1259 C 0.06165 0.39428 0.55529 0.0
C1260 C 0.93385 0.33122 0.44982 0.0
C1261 C 0.9452 0.33278 0.46831 0.0
C1262 C -0.00036 0.34256 0.49008 0.0
C1263 C 0.02372 0.37007 0.54216 0.0
C1264 C 0.00818 0.36016 0.52425 0.0
C1265 C 0.9686 0.34138 0.46828 0.0
C1266 C 0.9812 0.3461 0.48813 0.0
H1267 H 0.02262 0.38012 0.59384 0.0
H1268 H -0.00269 0.35922 0.56533 0.0
H1269 H 0.02735 0.34698 0.50891 0.0
H1270 H 0.9784 0.35127 0.41638 0.0
H1271 H -0.00171 0.35428 0.44868 0.0
C1272 C 0.69043 0.61445 0.4538 0.0
C1273 C 0.68449 0.62046 0.43493 0.0
C1274 C 0.68972 0.62459 0.47239 0.0
C1275 C 0.68425 0.6715 0.49495 0.0
H1276 H 0.6499 0.62737 0.53746 0.0
C1277 C 0.63299 0.68534 0.55816 0.0
C1278 C 0.63035 0.67509 0.5777 0.0
C1279 C 0.64504 0.68206 0.54238 0.0
C1280 C 0.65997 0.64006 0.52602 0.0
H1281 H 0.67417 0.64251 0.42059 0.0
H1282 H 0.67278 0.66009 0.45306 0.0
H1283 H 0.66189 0.61579 0.50666 0.0
H1284 H 0.63925 0.65422 0.59624 0.0
H1285 H 0.66081 0.64908 0.56892 0.0
H1286 H 0.68164 0.69563 0.51416 0.0
C1287 C 0.67827 0.64777 0.45347 0.0
C1288 C 0.66684 0.6334 0.50832 0.0
C1289 C 0.67901 0.63766 0.43487 0.0
C1290 C 0.64102 0.66246 0.58142 0.0
C1291 C 0.65319 0.6593 0.56568 0.0
C1292 C 0.67741 0.6782 0.51275 0.0
C1293 C 0.68301 0.64089 0.47249 0.0
C1294 C 0.67861 0.64891 0.49238 0.0
C1295 C 0.65483 0.66856 0.54582 0.0
C1296 C 0.66475 0.66242 0.52825 0.0
H1297 H 0.69514 0.60155 0.45424 0.0
H1298 H 0.69383 0.61922 0.48677 0.0
H1299 H 0.69354 0.68387 0.48302 0.0
H1300 H 0.62533 0.69552 0.55491 0.0
H1301 H 0.64582 0.68931 0.52721 0.0
C1302 C 0.35648 0.99229 0.58147 0.0
C1303 C 0.34278 0.96892 0.57856 0.0
C1304 C 0.3603 0.00721 0.56515 0.0
C1305 C 0.34198 0.01143 0.5115 0.0
H1306 H 0.4048 0.05726 0.50539 0.0
C1307 C 0.38407 0.05194 0.43338 0.0
C1308 C 0.40084 0.0748 0.43326 0.0
C1309 C 0.37382 0.04123 0.452 0.0
C1310 C 0.38711 0.04485 0.50703 0.0
H1311 H 0.32121 0.94309 0.55653 0.0
H1312 H 0.3287 0.96901 0.52782 0.0
H1313 H 0.39254 0.03442 0.53666 0.0
H1314 H 0.41886 0.10473 0.45234 0.0
H1315 H 0.40113 0.08593 0.48491 0.0
H1316 H 0.33696 0.02135 0.48125 0.0
C1317 C 0.33623 0.97586 0.54281 0.0
C1318 C 0.38003 0.03176 0.52501 0.0
C1319 C 0.33222 0.96094 0.55919 0.0
C1320 C 0.40635 0.08698 0.452 0.0
C1321 C 0.39615 0.07626 0.47062 0.0
C1322 C 0.34912 0.02447 0.4934 0.0
C1323 C 0.35075 -0.00086 0.54546 0.0
C1324 C 0.35747 0.01462 0.52733 0.0
C1325 C 0.38018 0.05316 0.47087 0.0
C1326 C 0.37184 0.04105 0.49087 0.0
H1327 H 0.36503 -0.00092 0.5961 0.0
H1328 H 0.37126 0.02507 0.56784 0.0
H1329 H 0.32441 -0.00139 0.51294 0.0
H1330 H 0.37959 0.04203 0.41924 0.0
H1331 H 0.36175 0.02334 0.45175 0.0
loop_
_geom_bond_atom_site_label_1
_geom_bond_atom_site_label_2
_geom_bond_distance
_geom_bond_site_symmetry_2
_ccdc_geom_bond_type
Li0 N17 1.990 . S
Li0 O60 1.956 . S
Li0 O61 2.010 1_455 S
Li0 O62 1.961 . S
Li1 N25 1.986 1_554 S
Li1 O60 1.988 1_655 S
Li1 O61 1.956 . S
Li1 O63 1.950 1_654 S
Li2 N47 1.990 . S
Li2 O60 1.961 . S
Li2 O62 1.956 . S
Li2 O63 1.970 1_554 S
Li3 N53 1.990 . S
Li3 O61 1.935 1_456 S
Li3 O62 1.970 1_556 S
Li3 O63 1.956 . S
C4 C6 1.348 1_455 S
C4 C7 1.356 . S
C4 O60 1.325 . S
N5 C8 1.314 . S
N5 C9 1.279 1_655 S
C6 C4 1.348 1_655 S
C6 C8 1.353 . S
C6 H64 0.929 . S
C7 C4 1.356 . S
C7 C9 1.358 . S
C7 H65 0.930 . S
C8 N5 1.314 . S
C8 C6 1.353 . S
C8 H66 0.930 . S
C9 N5 1.279 1_455 S
C9 C7 1.358 . S
C9 H67 0.930 . S
C10 C13 1.348 1_556 S
C10 C14 1.356 . S
C10 O61 1.317 1_556 S
C11 N12 1.279 . S
C11 C14 1.358 . S
C11 H68 0.930 . S
N12 C11 1.279 . S
N12 C15 1.314 1_556 S
C13 C10 1.348 1_554 S
C13 C15 1.353 . S
C13 H69 0.929 . S
C14 C10 1.356 . S
C14 C11 1.358 . S
C14 H70 0.930 . S
C15 N12 1.314 1_554 S
C15 C13 1.353 . S
C15 H71 0.930 . S
C16 N17 1.314 . S
C16 C21 1.353 . S
C16 H22 0.930 . S
N17 Li0 1.990 . S
N17 C16 1.314 . S
N17 C19 1.279 1_455 S
C18 C19 1.358 . S
C18 C20 1.356 . S
C18 H72 0.930 . S
C19 N17 1.279 1_655 S
C19 C18 1.358 . S
C19 H23 0.930 . S
C20 C18 1.356 . S
C20 C21 1.348 1_655 S
C21 C16 1.353 . S
C21 C20 1.348 1_455 S
C21 H73 0.929 . S
H22 C16 0.930 . S
H23 C19 0.930 . S
C24 N25 1.314 . S
C24 C26 1.353 . S
C24 H30 0.930 . S
N25 Li1 1.986 1_556 S
N25 C24 1.314 . S
N25 C28 1.279 . S
C26 C24 1.353 . S
C26 C29 1.348 . S
C26 H74 0.929 . S
C27 C28 1.358 . S
C27 C29 1.356 . S
C27 H75 0.930 . S
C28 N25 1.279 . S
C28 C27 1.358 . S
C28 H31 0.930 . S
C29 C26 1.348 . S
C29 C27 1.356 . S
H30 C24 0.930 . S
H31 C28 0.930 . S
C32 C34 1.348 1_554 S
C32 C35 1.356 . S
C32 O62 1.325 . S
N33 C36 1.314 . S
N33 C37 1.279 . S
C34 C32 1.348 1_556 S
C34 C36 1.353 1_556 S
C34 H76 0.929 . S
C35 C32 1.356 . S
C35 C37 1.358 . S
C35 H77 0.930 . S
C36 N33 1.314 . S
C36 C34 1.353 1_554 S
C36 H78 0.930 1_554 S
C37 N33 1.279 . S
C37 C35 1.358 . S
C37 H79 0.930 . S
C38 C39 1.348 . S
C38 C40 1.356 . S
C38 O63 1.325 . S
C39 C38 1.348 . S
C39 C41 1.353 . S
C39 H80 0.929 . S
C40 C38 1.356 . S
C40 C42 1.358 . S
C40 H81 0.930 1_455 S
C41 C39 1.353 . S
C41 N43 1.314 . S
C41 H82 0.930 . S
C42 C40 1.358 . S
C42 N43 1.279 . S
C42 H83 0.931 . S
N43 C41 1.314 . S
N43 C42 1.279 . S
C44 C46 1.353 . S
C44 N47 1.314 . S
C44 H50 0.930 . S
C45 N47 1.279 . S
C45 C48 1.358 . S
C45 H51 0.930 . S
C46 C44 1.353 . S
C46 C49 1.348 . S
C46 H84 0.929 . S
N47 Li2 1.990 . S
N47 C44 1.314 . S
N47 C45 1.279 . S
C48 C45 1.358 . S
C48 C49 1.356 . S
C48 H85 0.930 . S
C49 C46 1.348 . S
C49 C48 1.356 . S
H50 C44 0.930 . S
H51 C45 0.930 . S
C52 N53 1.314 . S
C52 C54 1.353 . S
C52 H58 0.930 . S
N53 Li3 1.990 . S
N53 C52 1.314 . S
N53 C56 1.279 . S
C54 C52 1.353 . S
C54 C57 1.348 . S
C54 H86 0.929 . S
C55 C56 1.358 . S
C55 C57 1.356 . S
C55 H87 0.930 . S
C56 N53 1.279 . S
C56 C55 1.358 . S
C56 H59 0.930 . S
C57 C54 1.348 . S
C57 C55 1.356 . S
H58 C52 0.930 . S
H59 C56 0.930 . S
O60 Li0 1.956 . S
O60 Li1 1.988 1_455 S
O60 Li2 1.961 . S
O60 C4 1.325 . S
O61 Li0 2.010 1_655 S
O61 Li1 1.956 . S
O61 Li3 1.935 1_654 S
O61 C10 1.317 1_554 S
O62 Li0 1.961 . S
O62 Li2 1.956 . S
O62 Li3 1.970 1_554 S
O62 C32 1.325 . S
O63 Li1 1.950 1_456 S
O63 Li2 1.970 1_556 S
O63 Li3 1.956 . S
O63 C38 1.325 . S
H64 C6 0.929 . S
H65 C7 0.930 . S
H66 C8 0.930 . S
H67 C9 0.930 . S
H68 C11 0.930 . S
H69 C13 0.929 . S
H70 C14 0.930 . S
H71 C15 0.930 . S
H72 C18 0.930 . S
H73 C21 0.929 . S
H74 C26 0.929 . S
H75 C27 0.930 . S
H76 C34 0.929 . S
H77 C35 0.930 . S
H78 C36 0.930 1_556 S
H79 C37 0.930 . S
H80 C39 0.929 . S
H81 C40 0.930 1_655 S
H82 C41 0.930 . S
H83 C42 0.931 . S
H84 C46 0.929 . S
H85 C48 0.930 . S
H86 C54 0.929 . S
H87 C55 0.930 . S
Li88 N105 1.986 1_554 S
Li88 O148 1.956 . S
Li88 O149 1.988 . S
Li88 O150 1.950 1_554 S
Li89 N113 1.990 . S
Li89 O148 2.011 . S
Li89 O149 1.956 . S
Li89 O151 1.961 . S
Li90 N135 1.990 . S
Li90 O148 1.934 1_556 S
Li90 O150 1.956 . S
Li90 O151 1.970 1_556 S
Li91 N141 1.990 . S
Li91 O149 1.961 . S
Li91 O150 1.970 1_554 S
Li91 O151 1.956 . S
C92 C94 1.348 1_556 S
C92 C95 1.356 . S
C92 O148 1.317 1_556 S
N93 C96 1.314 1_556 S
N93 C97 1.279 . S
C94 C92 1.348 1_554 S
C94 C96 1.353 . S
C94 H152 0.929 . S
C95 C92 1.356 . S
C95 C97 1.358 . S
C95 H153 0.930 . S
C96 N93 1.314 1_554 S
C96 C94 1.353 . S
C96 H154 0.930 . S
C97 N93 1.279 . S
C97 C95 1.358 . S
C97 H155 0.930 . S
C98 C101 1.348 . S
C98 C102 1.356 . S
C98 O149 1.325 . S
C99 N100 1.279 . S
C99 C102 1.358 . S
C99 H156 0.930 . S
N100 C99 1.279 . S
N100 C103 1.314 . S
C101 C98 1.348 . S
C101 C103 1.353 . S
C101 H157 0.929 . S
C102 C98 1.356 . S
C102 C99 1.358 . S
C102 H158 0.930 . S
C103 N100 1.314 . S
C103 C101 1.353 . S
C103 H159 0.930 . S
C104 N105 1.314 . S
C104 C109 1.353 . S
C104 H110 0.930 . S
N105 Li88 1.986 1_556 S
N105 C104 1.314 . S
N105 C107 1.279 . S
C106 C107 1.358 . S
C106 C108 1.356 . S
C106 H160 0.930 . S
C107 N105 1.279 . S
C107 C106 1.358 . S
C107 H111 0.930 . S
C108 C106 1.356 . S
C108 C109 1.348 . S
C109 C104 1.353 . S
C109 C108 1.348 . S
C109 H161 0.929 . S
H110 C104 0.930 . S
H111 C107 0.930 . S
C112 N113 1.314 . S
C112 C114 1.353 . S
C112 H118 0.930 . S
N113 Li89 1.990 . S
N113 C112 1.314 . S
N113 C116 1.279 . S
C114 C112 1.353 . S
C114 C117 1.348 . S
C114 H162 0.929 . S
C115 C116 1.358 . S
C115 C117 1.356 . S
C115 H163 0.930 . S
C116 N113 1.279 . S
C116 C115 1.358 . S
C116 H119 0.930 . S
C117 C114 1.348 . S
C117 C115 1.356 . S
H118 C112 0.930 . S
H119 C116 0.930 . S
C120 C122 1.348 . S
C120 C123 1.356 . S
C120 O150 1.325 . S
N121 C124 1.314 . S
N121 C125 1.279 . S
C122 C120 1.348 . S
C122 C124 1.353 . S
C122 H164 0.929 . S
C123 C120 1.356 . S
C123 C125 1.358 . S
C123 H165 0.930 . S
C124 N121 1.314 . S
C124 C122 1.353 . S
C124 H166 0.930 . S
C125 N121 1.279 . S
C125 C123 1.358 . S
C125 H167 0.930 . S
C126 C127 1.348 1_554 S
C126 C128 1.356 . S
C126 O151 1.325 . S
C127 C126 1.348 1_556 S
C127 C129 1.353 1_556 S
C127 H168 0.929 . S
C128 C126 1.356 . S
C128 C130 1.358 . S
C128 H169 0.930 . S
C129 C127 1.353 1_554 S
C129 N131 1.314 . S
C129 H170 0.930 1_554 S
C130 C128 1.358 . S
C130 N131 1.279 . S
C130 H171 0.930 . S
N131 C129 1.314 . S
N131 C130 1.279 . S
C132 C134 1.353 . S
C132 N135 1.314 . S
C132 H138 0.930 . S
C133 N135 1.279 . S
C133 C136 1.358 . S
C133 H139 0.930 . S
C134 C132 1.353 . S
C134 C137 1.348 . S
C134 H172 0.929 . S
N135 Li90 1.990 . S
N135 C132 1.314 . S
N135 C133 1.279 . S
C136 C133 1.358 . S
C136 C137 1.356 . S
C136 H173 0.930 . S
C137 C134 1.348 . S
C137 C136 1.356 . S
H138 C132 0.930 . S
H139 C133 0.930 . S
C140 N141 1.314 . S
C140 C142 1.353 . S
C140 H146 0.930 . S
N141 Li91 1.990 . S
N141 C140 1.314 . S
N141 C144 1.279 . S
C142 C140 1.353 . S
C142 C145 1.348 . S
C142 H174 0.929 . S
C143 C144 1.358 . S
C143 C145 1.356 . S
C143 H175 0.930 . S
C144 N141 1.279 . S
C144 C143 1.358 . S
C144 H147 0.930 . S
C145 C142 1.348 . S
C145 C143 1.356 . S
H146 C140 0.930 . S
H147 C144 0.930 . S
O148 Li88 1.956 . S
O148 Li89 2.011 . S
O148 Li90 1.934 1_554 S
O148 C92 1.317 1_554 S
O149 Li88 1.988 . S
O149 Li89 1.956 . S
O149 Li91 1.961 . S
O149 C98 1.325 . S
O150 Li88 1.950 1_556 S
O150 Li90 1.956 . S
O150 Li91 1.970 1_556 S
O150 C120 1.325 . S
O151 Li89 1.961 . S
O151 Li90 1.970 1_554 S
O151 Li91 1.956 . S
O151 C126 1.325 . S
H152 C94 0.929 . S
H153 C95 0.930 . S
H154 C96 0.930 . S
H155 C97 0.930 . S
H156 C99 0.930 . S
H157 C101 0.929 . S
H158 C102 0.930 . S
H159 C103 0.930 . S
H160 C106 0.930 . S
H161 C109 0.929 . S
H162 C114 0.929 . S
H163 C115 0.930 . S
H164 C122 0.929 . S
H165 C123 0.930 . S
H166 C124 0.930 . S
H167 C125 0.930 . S
H168 C127 0.929 . S
H169 C128 0.930 . S
H170 C129 0.930 1_556 S
H171 C130 0.930 . S
H172 C134 0.929 . S
H173 C136 0.930 . S
H174 C142 0.929 . S
H175 C143 0.930 . S
Li176 N193 1.986 1_554 S
Li176 O236 1.956 . S
Li176 O237 1.988 . S
Li176 O238 1.950 1_554 S
Li177 N201 1.990 . S
Li177 O236 2.011 . S
Li177 O237 1.956 . S
Li177 O239 1.961 1_545 S
Li178 N223 1.990 . S
Li178 O236 1.934 1_556 S
Li178 O238 1.956 . S
Li178 O239 1.970 1_546 S
Li179 N229 1.990 . S
Li179 O237 1.961 1_565 S
Li179 O238 1.970 1_564 S
Li179 O239 1.956 . S
C180 C182 1.348 1_556 S
C180 C183 1.356 . S
C180 O236 1.317 1_556 S
N181 C184 1.314 1_556 S
N181 C185 1.279 . S
C182 C180 1.348 1_554 S
C182 C184 1.353 . S
C182 H240 0.929 . S
C183 C180 1.356 . S
C183 C185 1.358 . S
C183 H241 0.930 . S
C184 N181 1.314 1_554 S
C184 C182 1.353 . S
C184 H242 0.930 . S
C185 N181 1.279 . S
C185 C183 1.358 . S
C185 H243 0.930 . S
C186 C189 1.348 . S
C186 C190 1.356 . S
C186 O237 1.325 . S
C187 N188 1.279 . S
C187 C190 1.358 . S
C187 H244 0.930 . S
N188 C187 1.279 . S
N188 C191 1.314 . S
C189 C186 1.348 . S
C189 C191 1.353 . S
C189 H245 0.929 . S
C190 C186 1.356 . S
C190 C187 1.358 . S
C190 H246 0.930 1_545 S
C191 N188 1.314 . S
C191 C189 1.353 . S
C191 H247 0.930 . S
C192 N193 1.314 . S
C192 C197 1.353 . S
C192 H198 0.930 . S
N193 Li176 1.986 1_556 S
N193 C192 1.314 . S
N193 C195 1.279 . S
C194 C195 1.358 . S
C194 C196 1.356 . S
C194 H248 0.930 . S
C195 N193 1.279 . S
C195 C194 1.358 . S
C195 H199 0.930 . S
C196 C194 1.356 . S
C196 C197 1.348 . S
C197 C192 1.353 . S
C197 C196 1.348 . S
C197 H249 0.929 . S
H198 C192 0.930 . S
H199 C195 0.930 . S
C200 N201 1.314 . S
C200 C202 1.353 . S
C200 H206 0.930 . S
N201 Li177 1.990 . S
N201 C200 1.314 . S
N201 C204 1.279 . S
C202 C200 1.353 . S
C202 C205 1.348 . S
C202 H250 0.929 . S
C203 C204 1.358 . S
C203 C205 1.356 . S
C203 H251 0.930 . S
C204 N201 1.279 . S
C204 C203 1.358 . S
C204 H207 0.930 . S
C205 C202 1.348 . S
C205 C203 1.356 . S
H206 C200 0.930 . S
H207 C204 0.930 . S
C208 C210 1.348 1_545 S
C208 C211 1.356 . S
C208 O238 1.325 . S
N209 C212 1.307 1_545 S
N209 C213 1.285 . S
C210 C208 1.348 1_565 S
C210 C212 1.353 . S
C210 H252 0.929 . S
C211 C208 1.356 . S
C211 C213 1.358 . S
C211 H253 0.930 . S
C212 N209 1.307 1_565 S
C212 C210 1.353 . S
C212 H254 0.930 . S
C213 N209 1.285 . S
C213 C211 1.358 . S
C213 H255 0.930 . S
C214 C215 1.348 1_554 S
C214 C216 1.356 . S
C214 O239 1.325 . S
C215 C214 1.348 1_556 S
C215 C217 1.353 1_556 S
C215 H256 0.929 . S
C216 C214 1.356 . S
C216 C218 1.358 . S
C216 H257 0.930 . S
C217 C215 1.353 1_554 S
C217 N219 1.314 . S
C217 H258 0.930 1_554 S
C218 C216 1.358 . S
C218 N219 1.279 . S
C218 H259 0.930 . S
N219 C217 1.314 . S
N219 C218 1.279 . S
C220 C222 1.353 . S
C220 N223 1.314 . S
C220 H226 0.930 . S
C221 N223 1.279 1_565 S
C221 C224 1.358 . S
C221 H227 0.930 . S
C222 C220 1.353 . S
C222 C225 1.348 1_545 S
C222 H260 0.929 . S
N223 Li178 1.990 . S
N223 C220 1.314 . S
N223 C221 1.279 1_545 S
C224 C221 1.358 . S
C224 C225 1.356 . S
C224 H261 0.930 . S
C225 C222 1.348 1_565 S
C225 C224 1.356 . S
H226 C220 0.930 . S
H227 C221 0.930 . S
C228 N229 1.314 . S
C228 C230 1.353 . S
C228 H234 0.930 . S
N229 Li179 1.990 . S
N229 C228 1.314 . S
N229 C232 1.279 . S
C230 C228 1.353 . S
C230 C233 1.348 . S
C230 H262 0.929 . S
C231 C232 1.358 . S
C231 C233 1.356 . S
C231 H263 0.930 . S
C232 N229 1.279 . S
C232 C231 1.358 . S
C232 H235 0.930 . S
C233 C230 1.348 . S
C233 C231 1.356 . S
H234 C228 0.930 . S
H235 C232 0.930 . S
O236 Li176 1.956 . S
O236 Li177 2.011 . S
O236 Li178 1.934 1_554 S
O236 C180 1.317 1_554 S
O237 Li176 1.988 . S
O237 Li177 1.956 . S
O237 Li179 1.961 1_545 S
O237 C186 1.325 . S
O238 Li176 1.950 1_556 S
O238 Li178 1.956 . S
O238 Li179 1.970 1_546 S
O238 C208 1.325 . S
O239 Li177 1.961 1_565 S
O239 Li178 1.970 1_564 S
O239 Li179 1.956 . S
O239 C214 1.325 . S
H240 C182 0.929 . S
H241 C183 0.930 . S
H242 C184 0.930 . S
H243 C185 0.930 . S
H244 C187 0.930 . S
H245 C189 0.929 . S
H246 C190 0.930 1_565 S
H247 C191 0.930 . S
H248 C194 0.930 . S
H249 C197 0.929 . S
H250 C202 0.929 . S
H251 C203 0.930 . S
H252 C210 0.929 . S
H253 C211 0.930 . S
H254 C212 0.930 . S
H255 C213 0.930 . S
H256 C215 0.929 . S
H257 C216 0.930 . S
H258 C217 0.930 1_556 S
H259 C218 0.930 . S
H260 C222 0.929 . S
H261 C224 0.930 . S
H262 C230 0.929 . S
H263 C231 0.930 . S
Li264 N281 1.990 . S
Li264 O324 1.956 . S
Li264 O325 1.970 . S
Li264 O326 1.961 . S
Li265 N289 1.990 . S
Li265 O324 1.970 . S
Li265 O325 1.956 . S
Li265 O327 1.961 . S
Li266 N311 1.990 . S
Li266 O324 1.961 . S
Li266 O326 1.956 . S
Li266 O327 1.970 . S
Li267 N317 1.990 . S
Li267 O325 1.961 . S
Li267 O326 1.970 . S
Li267 O327 1.956 . S
C268 C270 1.348 . S
C268 C271 1.356 . S
C268 O324 1.325 . S
N269 C272 1.314 . S
N269 C273 1.279 . S
C270 C268 1.348 . S
C270 C272 1.353 . S
C270 H328 0.929 . S
C271 C268 1.356 . S
C271 C273 1.358 . S
C271 H329 0.930 . S
C272 N269 1.314 . S
C272 C270 1.353 . S
C272 H330 0.930 . S
C273 N269 1.279 . S
C273 C271 1.358 . S
C273 H331 0.930 . S
C274 C277 1.348 . S
C274 C278 1.356 . S
C274 O325 1.325 . S
C275 N276 1.279 . S
C275 C278 1.358 . S
C275 H332 0.930 . S
N276 C275 1.279 . S
N276 C279 1.314 . S
C277 C274 1.348 . S
C277 C279 1.353 . S
C277 H333 0.929 . S
C278 C274 1.356 . S
C278 C275 1.358 . S
C278 H334 0.930 . S
C279 N276 1.314 . S
C279 C277 1.353 . S
C279 H335 0.930 . S
C280 N281 1.314 . S
C280 C285 1.353 . S
C280 H286 0.930 . S
N281 Li264 1.990 . S
N281 C280 1.314 . S
N281 C283 1.279 . S
C282 C283 1.358 . S
C282 C284 1.356 . S
C282 H336 0.930 . S
C283 N281 1.279 . S
C283 C282 1.358 . S
C283 H287 0.930 . S
C284 C282 1.356 . S
C284 C285 1.348 . S
C285 C280 1.353 . S
C285 C284 1.348 . S
C285 H337 0.929 . S
H286 C280 0.930 . S
H287 C283 0.930 . S
C288 N289 1.314 . S
C288 C290 1.353 . S
C288 H294 0.930 . S
N289 Li265 1.990 . S
N289 C288 1.314 . S
N289 C292 1.279 . S
C290 C288 1.353 . S
C290 C293 1.348 . S
C290 H338 0.929 . S
C291 C292 1.358 . S
C291 C293 1.356 . S
C291 H339 0.930 . S
C292 N289 1.279 . S
C292 C291 1.358 . S
C292 H295 0.930 . S
C293 C290 1.348 . S
C293 C291 1.356 . S
H294 C288 0.930 . S
H295 C292 0.930 . S
C296 C298 1.348 . S
C296 C299 1.356 . S
C296 O326 1.325 . S
N297 C300 1.314 . S
N297 C301 1.279 . S
C298 C296 1.348 . S
C298 C300 1.353 . S
C298 H340 0.929 . S
C299 C296 1.356 . S
C299 C301 1.358 . S
C299 H341 0.930 . S
C300 N297 1.314 . S
C300 C298 1.353 . S
C300 H342 0.930 . S
C301 N297 1.279 . S
C301 C299 1.358 . S
C301 H343 0.930 . S
C302 C303 1.348 . S
C302 C304 1.356 . S
C302 O327 1.325 . S
C303 C302 1.348 . S
C303 C305 1.353 . S
C303 H344 0.929 . S
C304 C302 1.356 . S
C304 C306 1.358 . S
C304 H345 0.930 . S
C305 C303 1.353 . S
C305 N307 1.314 . S
C305 H346 0.930 . S
C306 C304 1.358 . S
C306 N307 1.279 . S
C306 H347 0.930 . S
N307 C305 1.314 . S
N307 C306 1.279 . S
C308 C310 1.353 . S
C308 N311 1.314 . S
C308 H314 0.930 . S
C309 N311 1.279 . S
C309 C312 1.358 . S
C309 H315 0.930 . S
C310 C308 1.353 . S
C310 C313 1.348 . S
C310 H348 0.929 . S
N311 Li266 1.990 . S
N311 C308 1.314 . S
N311 C309 1.279 . S
C312 C309 1.358 . S
C312 C313 1.356 . S
C312 H349 0.930 . S
C313 C310 1.348 . S
C313 C312 1.356 . S
H314 C308 0.930 . S
H315 C309 0.930 . S
C316 N317 1.314 . S
C316 C318 1.353 . S
C316 H322 0.930 . S
N317 Li267 1.990 . S
N317 C316 1.314 . S
N317 C320 1.279 . S
C318 C316 1.353 . S
C318 C321 1.348 . S
C318 H350 0.929 . S
C319 C320 1.358 . S
C319 C321 1.356 . S
C319 H351 0.930 . S
C320 N317 1.279 . S
C320 C319 1.358 . S
C320 H323 0.930 . S
C321 C318 1.348 . S
C321 C319 1.356 . S
H322 C316 0.930 . S
H323 C320 0.930 . S
O324 Li264 1.956 . S
O324 Li265 1.970 . S
O324 Li266 1.961 . S
O324 C268 1.325 . S
O325 Li264 1.970 . S
O325 Li265 1.956 . S
O325 Li267 1.961 . S
O325 C274 1.325 . S
O326 Li264 1.961 . S
O326 Li266 1.956 . S
O326 Li267 1.970 . S
O326 C296 1.325 . S
O327 Li265 1.961 . S
O327 Li266 1.970 . S
O327 Li267 1.956 . S
O327 C302 1.325 . S
H328 C270 0.929 . S
H329 C271 0.930 . S
H330 C272 0.930 . S
H331 C273 0.930 . S
H332 C275 0.930 . S
H333 C277 0.929 . S
H334 C278 0.930 . S
H335 C279 0.930 . S
H336 C282 0.930 . S
H337 C285 0.929 . S
H338 C290 0.929 . S
H339 C291 0.930 . S
H340 C298 0.929 . S
H341 C299 0.930 . S
H342 C300 0.930 . S
H343 C301 0.930 . S
H344 C303 0.929 . S
H345 C304 0.930 . S
H346 C305 0.930 . S
H347 C306 0.930 . S
H348 C310 0.929 . S
H349 C312 0.930 . S
H350 C318 0.929 . S
H351 C319 0.930 . S
Li352 N369 1.990 . S
Li352 O412 1.956 . S
Li352 O413 1.970 . S
Li352 O414 1.961 . S
Li353 N377 1.990 . S
Li353 O412 1.970 . S
Li353 O413 1.956 . S
Li353 O415 1.961 . S
Li354 N399 1.990 . S
Li354 O412 1.961 . S
Li354 O414 1.956 . S
Li354 O415 1.970 . S
Li355 N405 1.990 . S
Li355 O413 1.961 . S
Li355 O414 1.970 . S
Li355 O415 1.956 . S
C356 C358 1.348 . S
C356 C359 1.356 . S
C356 O412 1.325 . S
N357 C360 1.314 . S
N357 C361 1.279 . S
C358 C356 1.348 . S
C358 C360 1.353 . S
C358 H416 0.929 . S
C359 C356 1.356 . S
C359 C361 1.358 . S
C359 H417 0.930 . S
C360 N357 1.314 . S
C360 C358 1.353 . S
C360 H418 0.930 . S
C361 N357 1.279 . S
C361 C359 1.358 . S
C361 H419 0.930 . S
C362 C365 1.348 . S
C362 C366 1.356 . S
C362 O413 1.325 . S
C363 N364 1.279 . S
C363 C366 1.358 . S
C363 H420 0.930 . S
N364 C363 1.279 . S
N364 C367 1.314 . S
C365 C362 1.348 . S
C365 C367 1.353 . S
C365 H421 0.929 . S
C366 C362 1.356 . S
C366 C363 1.358 . S
C366 H422 0.930 . S
C367 N364 1.314 . S
C367 C365 1.353 . S
C367 H423 0.930 . S
C368 N369 1.314 . S
C368 C373 1.353 . S
C368 H374 0.930 . S
N369 Li352 1.990 . S
N369 C368 1.314 . S
N369 C371 1.279 . S
C370 C371 1.358 . S
C370 C372 1.356 . S
C370 H424 0.930 . S
C371 N369 1.279 . S
C371 C370 1.358 . S
C371 H375 0.930 . S
C372 C370 1.356 . S
C372 C373 1.348 . S
C373 C368 1.353 . S
C373 C372 1.348 . S
C373 H425 0.929 . S
H374 C368 0.930 . S
H375 C371 0.930 . S
C376 N377 1.314 . S
C376 C378 1.353 . S
C376 H382 0.930 . S
N377 Li353 1.990 . S
N377 C376 1.314 . S
N377 C380 1.279 . S
C378 C376 1.353 . S
C378 C381 1.348 . S
C378 H426 0.929 . S
C379 C380 1.358 . S
C379 C381 1.356 . S
C379 H427 0.930 . S
C380 N377 1.279 . S
C380 C379 1.358 . S
C380 H383 0.930 . S
C381 C378 1.348 . S
C381 C379 1.356 . S
H382 C376 0.930 . S
H383 C380 0.930 . S
C384 C386 1.348 . S
C384 C387 1.356 . S
C384 O414 1.325 . S
N385 C388 1.314 . S
N385 C389 1.279 . S
C386 C384 1.348 . S
C386 C388 1.353 . S
C386 H428 0.929 . S
C387 C384 1.356 . S
C387 C389 1.358 . S
C387 H429 0.930 . S
C388 N385 1.314 . S
C388 C386 1.353 . S
C388 H430 0.930 . S
C389 N385 1.279 . S
C389 C387 1.358 . S
C389 H431 0.930 . S
C390 C391 1.348 . S
C390 C392 1.356 . S
C390 O415 1.325 . S
C391 C390 1.348 . S
C391 C393 1.353 . S
C391 H432 0.929 . S
C392 C390 1.356 . S
C392 C394 1.358 . S
C392 H433 0.930 . S
C393 C391 1.353 . S
C393 N395 1.314 . S
C393 H434 0.930 . S
C394 C392 1.358 . S
C394 N395 1.279 . S
C394 H435 0.930 . S
N395 C393 1.314 . S
N395 C394 1.279 . S
C396 C398 1.353 . S
C396 N399 1.314 . S
C396 H402 0.930 . S
C397 N399 1.279 . S
C397 C400 1.358 . S
C397 H403 0.930 . S
C398 C396 1.353 . S
C398 C401 1.348 . S
C398 H436 0.929 . S
N399 Li354 1.990 . S
N399 C396 1.314 . S
N399 C397 1.279 . S
C400 C397 1.358 . S
C400 C401 1.356 . S
C400 H437 0.930 . S
C401 C398 1.348 . S
C401 C400 1.356 . S
H402 C396 0.930 . S
H403 C397 0.930 . S
C404 N405 1.314 . S
C404 C406 1.353 . S
C404 H410 0.930 . S
N405 Li355 1.990 . S
N405 C404 1.314 . S
N405 C408 1.279 . S
C406 C404 1.353 . S
C406 C409 1.348 . S
C406 H438 0.929 . S
C407 C408 1.358 . S
C407 C409 1.356 . S
C407 H439 0.930 . S
C408 N405 1.279 . S
C408 C407 1.358 . S
C408 H411 0.930 . S
C409 C406 1.348 . S
C409 C407 1.356 . S
H410 C404 0.930 . S
H411 C408 0.930 . S
O412 Li352 1.956 . S
O412 Li353 1.970 . S
O412 Li354 1.961 . S
O412 C356 1.325 . S
O413 Li352 1.970 . S
O413 Li353 1.956 . S
O413 Li355 1.961 . S
O413 C362 1.325 . S
O414 Li352 1.961 . S
O414 Li354 1.956 . S
O414 Li355 1.970 . S
O414 C384 1.325 . S
O415 Li353 1.961 . S
O415 Li354 1.970 . S
O415 Li355 1.956 . S
O415 C390 1.325 . S
H416 C358 0.929 . S
H417 C359 0.930 . S
H418 C360 0.930 . S
H419 C361 0.930 . S
H420 C363 0.930 . S
H421 C365 0.929 . S
H422 C366 0.930 . S
H423 C367 0.930 . S
H424 C370 0.930 . S
H425 C373 0.929 . S
H426 C378 0.929 . S
H427 C379 0.930 . S
H428 C386 0.929 . S
H429 C387 0.930 . S
H430 C388 0.930 . S
H431 C389 0.930 . S
H432 C391 0.929 . S
H433 C392 0.930 . S
H434 C393 0.930 . S
H435 C394 0.930 . S
H436 C398 0.929 . S
H437 C400 0.930 . S
H438 C406 0.929 . S
H439 C407 0.930 . S
Li440 N457 1.990 . S
Li440 O500 1.956 . S
Li440 O501 1.970 . S
Li440 O502 1.961 . S
Li441 N465 1.990 . S
Li441 O500 1.970 . S
Li441 O501 1.956 . S
Li441 O503 1.961 . S
Li442 N487 1.990 . S
Li442 O500 1.961 . S
Li442 O502 1.956 . S
Li442 O503 1.970 . S
Li443 N493 1.990 . S
Li443 O501 1.961 . S
Li443 O502 1.970 . S
Li443 O503 1.956 . S
C444 C446 1.348 . S
C444 C447 1.356 . S
C444 O500 1.325 . S
N445 C448 1.314 . S
N445 C449 1.279 . S
C446 C444 1.348 . S
C446 C448 1.353 . S
C446 H504 0.929 . S
C447 C444 1.356 . S
C447 C449 1.358 . S
C447 H505 0.930 . S
C448 N445 1.314 . S
C448 C446 1.353 . S
C448 H506 0.930 . S
C449 N445 1.279 . S
C449 C447 1.358 . S
C449 H507 0.930 . S
C450 C453 1.348 . S
C450 C454 1.356 . S
C450 O501 1.325 . S
C451 N452 1.279 . S
C451 C454 1.358 . S
C451 H508 0.930 . S
N452 C451 1.279 . S
N452 C455 1.314 . S
C453 C450 1.348 . S
C453 C455 1.353 . S
C453 H509 0.929 . S
C454 C450 1.356 . S
C454 C451 1.358 . S
C454 H510 0.930 . S
C455 N452 1.314 . S
C455 C453 1.353 . S
C455 H511 0.930 . S
C456 N457 1.314 . S
C456 C461 1.353 . S
C456 H462 0.930 . S
N457 Li440 1.990 . S
N457 C456 1.314 . S
N457 C459 1.279 . S
C458 C459 1.358 . S
C458 C460 1.356 . S
C458 H512 0.930 . S
C459 N457 1.279 . S
C459 C458 1.358 . S
C459 H463 0.930 . S
C460 C458 1.356 . S
C460 C461 1.348 . S
C461 C456 1.353 . S
C461 C460 1.348 . S
C461 H513 0.929 . S
H462 C456 0.930 . S
H463 C459 0.930 . S
C464 N465 1.314 . S
C464 C466 1.353 . S
C464 H470 0.930 . S
N465 Li441 1.990 . S
N465 C464 1.314 . S
N465 C468 1.279 . S
C466 C464 1.353 . S
C466 C469 1.348 . S
C466 H514 0.929 . S
C467 C468 1.358 . S
C467 C469 1.356 . S
C467 H515 0.930 . S
C468 N465 1.279 . S
C468 C467 1.358 . S
C468 H471 0.930 . S
C469 C466 1.348 . S
C469 C467 1.356 . S
H470 C464 0.930 . S
H471 C468 0.930 . S
C472 C474 1.348 . S
C472 C475 1.356 . S
C472 O502 1.325 . S
N473 C476 1.314 . S
N473 C477 1.279 . S
C474 C472 1.348 . S
C474 C476 1.353 . S
C474 H516 0.929 . S
C475 C472 1.356 . S
C475 C477 1.358 . S
C475 H517 0.930 . S
C476 N473 1.314 . S
C476 C474 1.353 . S
C476 H518 0.930 . S
C477 N473 1.279 . S
C477 C475 1.358 . S
C477 H519 0.930 . S
C478 C479 1.348 . S
C478 C480 1.356 . S
C478 O503 1.325 . S
C479 C478 1.348 . S
C479 C481 1.353 . S
C479 H520 0.929 . S
C480 C478 1.356 . S
C480 C482 1.358 . S
C480 H521 0.930 . S
C481 C479 1.353 . S
C481 N483 1.314 . S
C481 H522 0.930 . S
C482 C480 1.358 . S
C482 N483 1.279 . S
C482 H523 0.930 . S
N483 C481 1.314 . S
N483 C482 1.279 . S
C484 C486 1.353 . S
C484 N487 1.314 . S
C484 H490 0.930 . S
C485 N487 1.279 . S
C485 C488 1.358 . S
C485 H491 0.930 . S
C486 C484 1.353 . S
C486 C489 1.348 . S
C486 H524 0.929 . S
N487 Li442 1.990 . S
N487 C484 1.314 . S
N487 C485 1.279 . S
C488 C485 1.358 . S
C488 C489 1.356 . S
C488 H525 0.930 . S
C489 C486 1.348 . S
C489 C488 1.356 . S
H490 C484 0.930 . S
H491 C485 0.930 . S
C492 N493 1.314 . S
C492 C494 1.353 . S
C492 H498 0.930 . S
N493 Li443 1.990 . S
N493 C492 1.314 . S
N493 C496 1.279 . S
C494 C492 1.353 . S
C494 C497 1.348 . S
C494 H526 0.929 . S
C495 C496 1.358 . S
C495 C497 1.356 . S
C495 H527 0.930 . S
C496 N493 1.279 . S
C496 C495 1.358 . S
C496 H499 0.930 . S
C497 C494 1.348 . S
C497 C495 1.356 . S
H498 C492 0.930 . S
H499 C496 0.930 . S
O500 Li440 1.956 . S
O500 Li441 1.970 . S
O500 Li442 1.961 . S
O500 C444 1.325 . S
O501 Li440 1.970 . S
O501 Li441 1.956 . S
O501 Li443 1.961 . S
O501 C450 1.325 . S
O502 Li440 1.961 . S
O502 Li442 1.956 . S
O502 Li443 1.970 . S
O502 C472 1.325 . S
O503 Li441 1.961 . S
O503 Li442 1.970 . S
O503 Li443 1.956 . S
O503 C478 1.325 . S
H504 C446 0.929 . S
H505 C447 0.930 . S
H506 C448 0.930 . S
H507 C449 0.930 . S
H508 C451 0.930 . S
H509 C453 0.929 . S
H510 C454 0.930 . S
H511 C455 0.930 . S
H512 C458 0.930 . S
H513 C461 0.929 . S
H514 C466 0.929 . S
H515 C467 0.930 . S
H516 C474 0.929 . S
H517 C475 0.930 . S
H518 C476 0.930 . S
H519 C477 0.930 . S
H520 C479 0.929 . S
H521 C480 0.930 . S
H522 C481 0.930 . S
H523 C482 0.930 . S
H524 C486 0.929 . S
H525 C488 0.930 . S
H526 C494 0.929 . S
H527 C495 0.930 . S
Li528 N545 1.990 . S
Li528 O588 1.956 . S
Li528 O589 1.970 . S
Li528 O590 1.961 . S
Li529 N553 1.990 . S
Li529 O588 1.970 . S
Li529 O589 1.956 . S
Li529 O591 1.961 . S
Li530 N575 1.990 . S
Li530 O588 1.961 . S
Li530 O590 1.956 . S
Li530 O591 1.970 . S
Li531 N581 1.990 . S
Li531 O589 1.961 . S
Li531 O590 1.970 . S
Li531 O591 1.956 . S
C532 C534 1.348 . S
C532 C535 1.356 . S
C532 O588 1.325 . S
N533 C536 1.314 . S
N533 C537 1.279 . S
C534 C532 1.348 . S
C534 C536 1.353 . S
C534 H592 0.929 . S
C535 C532 1.356 . S
C535 C537 1.358 . S
C535 H593 0.930 . S
C536 N533 1.314 . S
C536 C534 1.353 . S
C536 H594 0.930 . S
C537 N533 1.279 . S
C537 C535 1.358 . S
C537 H595 0.930 . S
C538 C541 1.348 . S
C538 C542 1.356 . S
C538 O589 1.325 . S
C539 N540 1.279 . S
C539 C542 1.358 . S
C539 H596 0.930 . S
N540 C539 1.279 . S
N540 C543 1.314 . S
C541 C538 1.348 . S
C541 C543 1.353 . S
C541 H597 0.929 . S
C542 C538 1.356 . S
C542 C539 1.358 . S
C542 H598 0.930 . S
C543 N540 1.314 . S
C543 C541 1.353 . S
C543 H599 0.930 . S
C544 N545 1.314 . S
C544 C549 1.353 . S
C544 H550 0.930 . S
N545 Li528 1.990 . S
N545 C544 1.314 . S
N545 C547 1.279 . S
C546 C547 1.358 . S
C546 C548 1.356 . S
C546 H600 0.930 . S
C547 N545 1.279 . S
C547 C546 1.358 . S
C547 H551 0.930 . S
C548 C546 1.356 . S
C548 C549 1.348 . S
C549 C544 1.353 . S
C549 C548 1.348 . S
C549 H601 0.929 . S
H550 C544 0.930 . S
H551 C547 0.930 . S
C552 N553 1.314 . S
C552 C554 1.353 . S
C552 H558 0.930 . S
N553 Li529 1.990 . S
N553 C552 1.314 . S
N553 C556 1.279 . S
C554 C552 1.353 . S
C554 C557 1.348 . S
C554 H602 0.929 . S
C555 C556 1.358 . S
C555 C557 1.356 . S
C555 H603 0.930 . S
C556 N553 1.279 . S
C556 C555 1.358 . S
C556 H559 0.930 . S
C557 C554 1.348 . S
C557 C555 1.356 . S
H558 C552 0.930 . S
H559 C556 0.930 . S
C560 C562 1.348 . S
C560 C563 1.356 . S
C560 O590 1.325 . S
N561 C564 1.314 . S
N561 C565 1.279 . S
C562 C560 1.348 . S
C562 C564 1.353 . S
C562 H604 0.929 . S
C563 C560 1.356 . S
C563 C565 1.358 . S
C563 H605 0.930 . S
C564 N561 1.314 . S
C564 C562 1.353 . S
C564 H606 0.930 . S
C565 N561 1.279 . S
C565 C563 1.358 . S
C565 H607 0.930 . S
C566 C567 1.348 . S
C566 C568 1.356 . S
C566 O591 1.325 . S
C567 C566 1.348 . S
C567 C569 1.353 . S
C567 H608 0.929 . S
C568 C566 1.356 . S
C568 C570 1.358 . S
C568 H609 0.930 . S
C569 C567 1.353 . S
C569 N571 1.314 . S
C569 H610 0.930 . S
C570 C568 1.358 . S
C570 N571 1.279 . S
C570 H611 0.930 . S
N571 C569 1.314 . S
N571 C570 1.279 . S
C572 C574 1.353 . S
C572 N575 1.314 . S
C572 H578 0.930 . S
C573 N575 1.279 . S
C573 C576 1.358 . S
C573 H579 0.930 . S
C574 C572 1.353 . S
C574 C577 1.348 . S
C574 H612 0.929 . S
N575 Li530 1.990 . S
N575 C572 1.314 . S
N575 C573 1.279 . S
C576 C573 1.358 . S
C576 C577 1.356 . S
C576 H613 0.930 . S
C577 C574 1.348 . S
C577 C576 1.356 . S
H578 C572 0.930 . S
H579 C573 0.930 . S
C580 N581 1.314 . S
C580 C582 1.353 . S
C580 H586 0.930 . S
N581 Li531 1.990 . S
N581 C580 1.314 . S
N581 C584 1.279 . S
C582 C580 1.353 . S
C582 C585 1.348 . S
C582 H614 0.929 . S
C583 C584 1.358 . S
C583 C585 1.356 . S
C583 H615 0.930 . S
C584 N581 1.279 . S
C584 C583 1.358 . S
C584 H587 0.930 . S
C585 C582 1.348 . S
C585 C583 1.356 . S
H586 C580 0.930 . S
H587 C584 0.930 . S
O588 Li528 1.956 . S
O588 Li529 1.970 . S
O588 Li530 1.961 . S
O588 C532 1.325 . S
O589 Li528 1.970 . S
O589 Li529 1.956 . S
O589 Li531 1.961 . S
O589 C538 1.325 . S
O590 Li528 1.961 . S
O590 Li530 1.956 . S
O590 Li531 1.970 . S
O590 C560 1.325 . S
O591 Li529 1.961 . S
O591 Li530 1.970 . S
O591 Li531 1.956 . S
O591 C566 1.325 . S
H592 C534 0.929 . S
H593 C535 0.930 . S
H594 C536 0.930 . S
H595 C537 0.930 . S
H596 C539 0.930 . S
H597 C541 0.929 . S
H598 C542 0.930 . S
H599 C543 0.930 . S
H600 C546 0.930 . S
H601 C549 0.929 . S
H602 C554 0.929 . S
H603 C555 0.930 . S
H604 C562 0.929 . S
H605 C563 0.930 . S
H606 C564 0.930 . S
H607 C565 0.930 . S
H608 C567 0.929 . S
H609 C568 0.930 . S
H610 C569 0.930 . S
H611 C570 0.930 . S
H612 C574 0.929 . S
H613 C576 0.930 . S
H614 C582 0.929 . S
H615 C583 0.930 . S
Li616 N633 1.990 . S
Li616 O676 1.956 . S
Li616 O677 1.970 . S
Li616 O678 1.961 . S
Li617 N641 1.990 . S
Li617 O676 1.970 . S
Li617 O677 1.956 . S
Li617 O679 1.961 . S
Li618 N663 1.990 . S
Li618 O676 1.961 . S
Li618 O678 1.956 . S
Li618 O679 1.970 . S
Li619 N669 1.990 . S
Li619 O677 1.961 . S
Li619 O678 1.970 . S
Li619 O679 1.956 . S
C620 C622 1.348 . S
C620 C623 1.356 . S
C620 O676 1.325 . S
N621 C624 1.314 . S
N621 C625 1.279 . S
C622 C620 1.348 . S
C622 C624 1.353 . S
C622 H680 0.929 . S
C623 C620 1.356 . S
C623 C625 1.358 . S
C623 H681 0.930 . S
C624 N621 1.314 . S
C624 C622 1.353 . S
C624 H682 0.930 . S
C625 N621 1.279 . S
C625 C623 1.358 . S
C625 H683 0.930 . S
C626 C629 1.348 . S
C626 C630 1.356 . S
C626 O677 1.325 . S
C627 N628 1.279 . S
C627 C630 1.358 . S
C627 H684 0.930 . S
N628 C627 1.279 . S
N628 C631 1.314 . S
C629 C626 1.348 . S
C629 C631 1.353 . S
C629 H685 0.929 . S
C630 C626 1.356 . S
C630 C627 1.358 . S
C630 H686 0.930 . S
C631 N628 1.314 . S
C631 C629 1.353 . S
C631 H687 0.930 . S
C632 N633 1.314 . S
C632 C637 1.353 . S
C632 H638 0.930 . S
N633 Li616 1.990 . S
N633 C632 1.314 . S
N633 C635 1.279 . S
C634 C635 1.358 . S
C634 C636 1.356 . S
C634 H688 0.930 . S
C635 N633 1.279 . S
C635 C634 1.358 . S
C635 H639 0.930 . S
C636 C634 1.356 . S
C636 C637 1.348 . S
C637 C632 1.353 . S
C637 C636 1.348 . S
C637 H689 0.929 . S
H638 C632 0.930 . S
H639 C635 0.930 . S
C640 N641 1.314 . S
C640 C642 1.353 . S
C640 H646 0.930 . S
N641 Li617 1.990 . S
N641 C640 1.314 . S
N641 C644 1.279 . S
C642 C640 1.353 . S
C642 C645 1.348 . S
C642 H690 0.929 . S
C643 C644 1.358 . S
C643 C645 1.356 . S
C643 H691 0.930 . S
C644 N641 1.279 . S
C644 C643 1.358 . S
C644 H647 0.930 . S
C645 C642 1.348 . S
C645 C643 1.356 . S
H646 C640 0.930 . S
H647 C644 0.930 . S
C648 C650 1.348 . S
C648 C651 1.356 . S
C648 O678 1.325 . S
N649 C652 1.314 . S
N649 C653 1.279 . S
C650 C648 1.348 . S
C650 C652 1.353 . S
C650 H692 0.929 . S
C651 C648 1.356 . S
C651 C653 1.358 . S
C651 H693 0.930 . S
C652 N649 1.314 . S
C652 C650 1.353 . S
C652 H694 0.930 . S
C653 N649 1.279 . S
C653 C651 1.358 . S
C653 H695 0.930 . S
C654 C655 1.348 . S
C654 C656 1.356 . S
C654 O679 1.325 . S
C655 C654 1.348 . S
C655 C657 1.353 . S
C655 H696 0.929 . S
C656 C654 1.356 . S
C656 C658 1.358 . S
C656 H697 0.930 . S
C657 C655 1.353 . S
C657 N659 1.314 . S
C657 H698 0.930 . S
C658 C656 1.358 . S
C658 N659 1.279 . S
C658 H699 0.930 . S
N659 C657 1.314 . S
N659 C658 1.279 . S
C660 C662 1.353 . S
C660 N663 1.314 . S
C660 H666 0.930 . S
C661 N663 1.279 . S
C661 C664 1.358 . S
C661 H667 0.930 . S
C662 C660 1.353 . S
C662 C665 1.348 . S
C662 H700 0.929 . S
N663 Li618 1.990 . S
N663 C660 1.314 . S
N663 C661 1.279 . S
C664 C661 1.358 . S
C664 C665 1.356 . S
C664 H701 0.930 . S
C665 C662 1.348 . S
C665 C664 1.356 . S
H666 C660 0.930 . S
H667 C661 0.930 . S
C668 N669 1.314 . S
C668 C670 1.353 . S
C668 H674 0.930 . S
N669 Li619 1.990 . S
N669 C668 1.314 . S
N669 C672 1.279 . S
C670 C668 1.353 . S
C670 C673 1.348 . S
C670 H702 0.929 . S
C671 C672 1.358 . S
C671 C673 1.356 . S
C671 H703 0.930 . S
C672 N669 1.279 . S
C672 C671 1.358 . S
C672 H675 0.930 . S
C673 C670 1.348 . S
C673 C671 1.356 . S
H674 C668 0.930 . S
H675 C672 0.930 . S
O676 Li616 1.956 . S
O676 Li617 1.970 . S
O676 Li618 1.961 . S
O676 C620 1.325 . S
O677 Li616 1.970 . S
O677 Li617 1.956 . S
O677 Li619 1.961 . S
O677 C626 1.325 . S
O678 Li616 1.961 . S
O678 Li618 1.956 . S
O678 Li619 1.970 . S
O678 C648 1.325 . S
O679 Li617 1.961 . S
O679 Li618 1.970 . S
O679 Li619 1.956 . S
O679 C654 1.325 . S
H680 C622 0.929 . S
H681 C623 0.930 . S
H682 C624 0.930 . S
H683 C625 0.930 . S
H684 C627 0.930 . S
H685 C629 0.929 . S
H686 C630 0.930 . S
H687 C631 0.930 . S
H688 C634 0.930 . S
H689 C637 0.929 . S
H690 C642 0.929 . S
H691 C643 0.930 . S
H692 C650 0.929 . S
H693 C651 0.930 . S
H694 C652 0.930 . S
H695 C653 0.930 . S
H696 C655 0.929 . S
H697 C656 0.930 . S
H698 C657 0.930 . S
H699 C658 0.930 . S
H700 C662 0.929 . S
H701 C664 0.930 . S
H702 C670 0.929 . S
H703 C671 0.930 . S
Li704 N721 1.990 . S
Li704 O764 1.956 . S
Li704 O765 1.970 . S
Li704 O766 1.961 . S
Li705 N729 1.990 . S
Li705 O764 1.970 . S
Li705 O765 1.956 . S
Li705 O767 1.961 . S
Li706 N751 1.990 . S
Li706 O764 1.961 . S
Li706 O766 1.956 . S
Li706 O767 1.970 . S
Li707 N757 1.990 . S
Li707 O765 1.961 . S
Li707 O766 1.970 . S
Li707 O767 1.956 . S
C708 C710 1.348 . S
C708 C711 1.356 . S
C708 O764 1.325 . S
N709 C712 1.314 . S
N709 C713 1.279 . S
C710 C708 1.348 . S
C710 C712 1.353 . S
C710 H768 0.929 . S
C711 C708 1.356 . S
C711 C713 1.358 . S
C711 H769 0.930 . S
C712 N709 1.314 . S
C712 C710 1.353 . S
C712 H770 0.930 . S
C713 N709 1.279 . S
C713 C711 1.358 . S
C713 H771 0.930 . S
C714 C717 1.348 . S
C714 C718 1.356 . S
C714 O765 1.325 . S
C715 N716 1.279 . S
C715 C718 1.358 . S
C715 H772 0.930 . S
N716 C715 1.279 . S
N716 C719 1.314 . S
C717 C714 1.348 . S
C717 C719 1.353 . S
C717 H773 0.929 . S
C718 C714 1.356 . S
C718 C715 1.358 . S
C718 H774 0.930 . S
C719 N716 1.314 . S
C719 C717 1.353 . S
C719 H775 0.930 . S
C720 N721 1.314 . S
C720 C725 1.353 . S
C720 H726 0.930 . S
N721 Li704 1.990 . S
N721 C720 1.314 . S
N721 C723 1.279 . S
C722 C723 1.358 . S
C722 C724 1.356 . S
C722 H776 0.930 . S
C723 N721 1.279 . S
C723 C722 1.358 . S
C723 H727 0.930 . S
C724 C722 1.356 . S
C724 C725 1.348 . S
C725 C720 1.353 . S
C725 C724 1.348 . S
C725 H777 0.929 . S
H726 C720 0.930 . S
H727 C723 0.930 . S
C728 N729 1.314 . S
C728 C730 1.353 . S
C728 H734 0.930 . S
N729 Li705 1.990 . S
N729 C728 1.314 . S
N729 C732 1.279 . S
C730 C728 1.353 . S
C730 C733 1.348 . S
C730 H778 0.929 . S
C731 C732 1.358 . S
C731 C733 1.356 . S
C731 H779 0.930 . S
C732 N729 1.279 . S
C732 C731 1.358 . S
C732 H735 0.930 . S
C733 C730 1.348 . S
C733 C731 1.356 . S
H734 C728 0.930 . S
H735 C732 0.930 . S
C736 C738 1.348 . S
C736 C739 1.356 . S
C736 O766 1.325 . S
N737 C740 1.314 . S
N737 C741 1.279 . S
C738 C736 1.348 . S
C738 C740 1.353 . S
C738 H780 0.929 . S
C739 C736 1.356 . S
C739 C741 1.358 . S
C739 H781 0.930 . S
C740 N737 1.314 . S
C740 C738 1.353 . S
C740 H782 0.930 . S
C741 N737 1.279 . S
C741 C739 1.358 . S
C741 H783 0.930 . S
C742 C743 1.348 . S
C742 C744 1.356 . S
C742 O767 1.325 . S
C743 C742 1.348 . S
C743 C745 1.353 . S
C743 H784 0.929 . S
C744 C742 1.356 . S
C744 C746 1.358 . S
C744 H785 0.930 . S
C745 C743 1.353 . S
C745 N747 1.314 . S
C745 H786 0.930 . S
C746 C744 1.358 . S
C746 N747 1.279 . S
C746 H787 0.930 . S
N747 C745 1.314 . S
N747 C746 1.279 . S
C748 C750 1.353 . S
C748 N751 1.314 . S
C748 H754 0.930 . S
C749 N751 1.279 . S
C749 C752 1.358 . S
C749 H755 0.930 . S
C750 C748 1.353 . S
C750 C753 1.348 . S
C750 H788 0.929 . S
N751 Li706 1.990 . S
N751 C748 1.314 . S
N751 C749 1.279 . S
C752 C749 1.358 . S
C752 C753 1.356 . S
C752 H789 0.930 . S
C753 C750 1.348 . S
C753 C752 1.356 . S
H754 C748 0.930 . S
H755 C749 0.930 . S
C756 N757 1.314 . S
C756 C758 1.353 . S
C756 H762 0.930 . S
N757 Li707 1.990 . S
N757 C756 1.314 . S
N757 C760 1.279 . S
C758 C756 1.353 . S
C758 C761 1.348 . S
C758 H790 0.929 . S
C759 C760 1.358 . S
C759 C761 1.356 . S
C759 H791 0.930 . S
C760 N757 1.279 . S
C760 C759 1.358 . S
C760 H763 0.930 . S
C761 C758 1.348 . S
C761 C759 1.356 . S
H762 C756 0.930 . S
H763 C760 0.930 . S
O764 Li704 1.956 . S
O764 Li705 1.970 . S
O764 Li706 1.961 . S
O764 C708 1.325 . S
O765 Li704 1.970 . S
O765 Li705 1.956 . S
O765 Li707 1.961 . S
O765 C714 1.325 . S
O766 Li704 1.961 . S
O766 Li706 1.956 . S
O766 Li707 1.970 . S
O766 C736 1.325 . S
O767 Li705 1.961 . S
O767 Li706 1.970 . S
O767 Li707 1.956 . S
O767 C742 1.325 . S
H768 C710 0.929 . S
H769 C711 0.930 . S
H770 C712 0.930 . S
H771 C713 0.930 . S
H772 C715 0.930 . S
H773 C717 0.929 . S
H774 C718 0.930 . S
H775 C719 0.930 . S
H776 C722 0.930 . S
H777 C725 0.929 . S
H778 C730 0.929 . S
H779 C731 0.930 . S
H780 C738 0.929 . S
H781 C739 0.930 . S
H782 C740 0.930 . S
H783 C741 0.930 . S
H784 C743 0.929 . S
H785 C744 0.930 . S
H786 C745 0.930 . S
H787 C746 0.930 . S
H788 C750 0.929 . S
H789 C752 0.930 . S
H790 C758 0.929 . S
H791 C759 0.930 . S
C792 C793 1.349 1_554 S
C792 C794 1.327 . S
C792 H817 0.950 . S
C793 C792 1.349 1_556 S
C793 C809 1.349 . S
C794 C792 1.327 . S
C794 C813 1.429 1_554 S
C794 H818 0.950 . S
C795 C812 1.574 . S
C795 C814 1.337 1_556 S
C795 H819 0.949 . S
H796 C800 0.949 . S
C797 C798 1.349 . S
C797 C799 1.337 . S
C797 H820 0.950 1_554 S
C798 C797 1.349 . S
C798 C810 1.349 . S
C799 C797 1.337 . S
C799 C815 1.453 . S
C799 H821 0.916 1_554 S
C800 H796 0.949 . S
C800 C808 1.574 . S
C800 C816 1.368 . S
H801 C809 0.950 . S
H802 C807 0.950 . S
H803 C808 0.949 . S
H804 C810 0.950 . S
H805 C811 0.950 . S
H806 C812 0.949 . S
C807 H802 0.950 . S
C807 C809 1.327 . S
C807 C813 1.429 . S
C808 C800 1.574 . S
C808 H803 0.949 . S
C808 C814 1.408 . S
C809 C793 1.349 . S
C809 H801 0.950 . S
C809 C807 1.327 . S
C810 C798 1.349 . S
C810 H804 0.950 . S
C810 C811 1.327 . S
C811 H805 0.950 . S
C811 C810 1.327 . S
C811 C815 1.429 . S
C812 C795 1.574 . S
C812 H806 0.949 . S
C812 C816 1.368 1_556 S
C813 C794 1.429 1_556 S
C813 C807 1.429 . S
C813 C814 1.514 1_556 S
C814 C795 1.337 1_554 S
C814 C808 1.408 . S
C814 C813 1.514 1_554 S
C815 C799 1.453 . S
C815 C811 1.429 . S
C815 C816 1.523 . S
C816 C800 1.368 . S
C816 C812 1.368 1_554 S
C816 C815 1.523 . S
H817 C792 0.950 . S
H818 C794 0.950 . S
H819 C795 0.949 . S
H820 C797 0.950 1_556 S
H821 C799 0.916 1_556 S
C822 C823 1.349 . S
C822 C824 1.327 . S
C822 H847 0.950 . S
C823 C822 1.349 . S
C823 C839 1.349 . S
C824 C822 1.327 . S
C824 C843 1.429 . S
C824 H848 0.950 . S
C825 C842 1.532 1_565 S
C825 C844 1.390 1_556 S
C825 H849 0.968 . S
H826 C830 0.949 . S
C827 C828 1.349 . S
C827 C829 1.327 . S
C827 H850 0.950 . S
C828 C827 1.349 . S
C828 C840 1.349 1_556 S
C829 C827 1.327 . S
C829 C845 1.429 . S
C829 H851 0.950 . S
C830 H826 0.949 . S
C830 C838 1.574 . S
C830 C846 1.407 . S
H831 C839 0.950 1_556 S
H832 C837 0.950 1_556 S
H833 C838 0.954 . S
H834 C840 0.950 . S
H835 C841 0.950 . S
H836 C842 0.949 . S
C837 H832 0.950 1_554 S
C837 C839 1.327 . S
C837 C843 1.429 . S
C838 C830 1.574 . S
C838 H833 0.954 . S
C838 C844 1.368 1_545 S
C839 C823 1.349 . S
C839 H831 0.950 1_554 S
C839 C837 1.327 . S
C840 C828 1.349 1_554 S
C840 H834 0.950 . S
C840 C841 1.327 . S
C841 H835 0.950 . S
C841 C840 1.327 . S
C841 C845 1.429 1_554 S
C842 C825 1.532 1_545 S
C842 H836 0.949 . S
C842 C846 1.337 1_556 S
C843 C824 1.429 . S
C843 C837 1.429 . S
C843 C844 1.523 . S
C844 C825 1.390 1_554 S
C844 C838 1.368 1_565 S
C844 C843 1.523 . S
C845 C829 1.429 . S
C845 C841 1.429 1_556 S
C845 C846 1.514 1_556 S
C846 C830 1.407 . S
C846 C842 1.337 1_554 S
C846 C845 1.514 1_554 S
H847 C822 0.950 . S
H848 C824 0.950 . S
H849 C825 0.968 . S
H850 C827 0.950 . S
H851 C829 0.950 . S
C852 C853 1.349 1_554 S
C852 C854 1.327 . S
C852 H877 0.950 . S
C853 C852 1.349 1_556 S
C853 C869 1.349 . S
C854 C852 1.327 . S
C854 C873 1.429 1_554 S
C854 H878 0.950 . S
C855 C872 1.574 . S
C855 C874 1.344 1_456 S
C855 H879 0.949 1_455 S
H856 C860 0.949 . S
C857 C858 1.349 . S
C857 C859 1.327 . S
C857 H880 0.950 . S
C858 C857 1.349 . S
C858 C870 1.349 . S
C859 C857 1.327 . S
C859 C875 1.429 . S
C859 H881 0.950 1_554 S
C860 H856 0.949 . S
C860 C868 1.574 1_455 S
C860 C876 1.368 . S
H861 C869 0.950 . S
H862 C867 0.950 . S
H863 C868 0.949 . S
H864 C870 0.950 . S
H865 C871 0.950 . S
H866 C872 0.949 . S
C867 H862 0.950 . S
C867 C869 1.327 . S
C867 C873 1.429 . S
C868 C860 1.574 1_655 S
C868 H863 0.949 . S
C868 C874 1.401 . S
C869 C853 1.349 . S
C869 H861 0.950 . S
C869 C867 1.327 . S
C870 C858 1.349 . S
C870 H864 0.950 . S
C870 C871 1.327 . S
C871 H865 0.950 . S
C871 C870 1.327 . S
C871 C875 1.429 . S
C872 C855 1.574 . S
C872 H866 0.949 . S
C872 C876 1.368 1_556 S
C873 C854 1.429 1_556 S
C873 C867 1.429 . S
C873 C874 1.514 1_556 S
C874 C855 1.344 1_654 S
C874 C868 1.401 . S
C874 C873 1.514 1_554 S
C875 C859 1.429 . S
C875 C871 1.429 . S
C875 C876 1.523 . S
C876 C860 1.368 . S
C876 C872 1.368 1_554 S
C876 C875 1.523 . S
H877 C852 0.950 . S
H878 C854 0.950 . S
H879 C855 0.949 1_655 S
H880 C857 0.950 . S
H881 C859 0.950 1_556 S
C882 C883 1.349 . S
C882 C884 1.327 . S
C882 H907 0.950 . S
C883 C882 1.349 . S
C883 C899 1.349 . S
C884 C882 1.327 . S
C884 C903 1.429 . S
C884 H908 0.950 . S
C885 C902 1.574 . S
C885 C904 1.368 . S
C885 H909 0.949 . S
H886 C890 0.949 . S
C887 C888 1.349 . S
C887 C889 1.327 . S
C887 H910 0.950 . S
C888 C887 1.349 . S
C888 C900 1.349 . S
C889 C887 1.327 . S
C889 C905 1.429 . S
C889 H911 0.950 . S
C890 H886 0.949 . S
C890 C898 1.574 . S
C890 C906 1.368 . S
H891 C899 0.950 . S
H892 C897 0.950 . S
H893 C898 0.949 . S
H894 C900 0.950 . S
H895 C901 0.950 . S
H896 C902 0.949 . S
C897 H892 0.950 . S
C897 C899 1.327 . S
C897 C903 1.429 . S
C898 C890 1.574 . S
C898 H893 0.949 . S
C898 C904 1.368 . S
C899 C883 1.349 . S
C899 H891 0.950 . S
C899 C897 1.327 . S
C900 C888 1.349 . S
C900 H894 0.950 . S
C900 C901 1.327 . S
C901 H895 0.950 . S
C901 C900 1.327 . S
C901 C905 1.429 . S
C902 C885 1.574 . S
C902 H896 0.949 . S
C902 C906 1.368 . S
C903 C884 1.429 . S
C903 C897 1.429 . S
C903 C904 1.523 . S
C904 C885 1.368 . S
C904 C898 1.368 . S
C904 C903 1.523 . S
C905 C889 1.429 . S
C905 C901 1.429 . S
C905 C906 1.523 . S
C906 C890 1.368 . S
C906 C902 1.368 . S
C906 C905 1.523 . S
H907 C882 0.950 . S
H908 C884 0.950 . S
H909 C885 0.949 . S
H910 C887 0.950 . S
H911 C889 0.950 . S
C912 C913 1.349 . S
C912 C914 1.327 . S
C912 H937 0.950 . S
C913 C912 1.349 . S
C913 C929 1.349 . S
C914 C912 1.327 . S
C914 C933 1.429 . S
C914 H938 0.950 . S
C915 C932 1.574 . S
C915 C934 1.368 . S
C915 H939 0.949 . S
H916 C920 0.949 . S
C917 C918 1.349 . S
C917 C919 1.327 . S
C917 H940 0.950 . S
C918 C917 1.349 . S
C918 C930 1.349 . S
C919 C917 1.327 . S
C919 C935 1.429 . S
C919 H941 0.950 . S
C920 H916 0.949 . S
C920 C928 1.574 . S
C920 C936 1.368 . S
H921 C929 0.950 . S
H922 C927 0.950 . S
H923 C928 0.949 . S
H924 C930 0.950 . S
H925 C931 0.950 . S
H926 C932 0.949 . S
C927 H922 0.950 . S
C927 C929 1.327 . S
C927 C933 1.429 . S
C928 C920 1.574 . S
C928 H923 0.949 . S
C928 C934 1.368 . S
C929 C913 1.349 . S
C929 H921 0.950 . S
C929 C927 1.327 . S
C930 C918 1.349 . S
C930 H924 0.950 . S
C930 C931 1.327 . S
C931 H925 0.950 . S
C931 C930 1.327 . S
C931 C935 1.429 . S
C932 C915 1.574 . S
C932 H926 0.949 . S
C932 C936 1.368 . S
C933 C914 1.429 . S
C933 C927 1.429 . S
C933 C934 1.523 . S
C934 C915 1.368 . S
C934 C928 1.368 . S
C934 C933 1.523 . S
C935 C919 1.429 . S
C935 C931 1.429 . S
C935 C936 1.523 . S
C936 C920 1.368 . S
C936 C932 1.368 . S
C936 C935 1.523 . S
H937 C912 0.950 . S
H938 C914 0.950 . S
H939 C915 0.949 . S
H940 C917 0.950 . S
H941 C919 0.950 . S
C942 C943 1.349 . S
C942 C944 1.327 . S
C942 H967 0.950 . S
C943 C942 1.349 . S
C943 C959 1.349 . S
C944 C942 1.327 . S
C944 C963 1.429 . S
C944 H968 0.950 . S
C945 C962 1.574 . S
C945 C964 1.368 . S
C945 H969 0.949 . S
H946 C950 0.949 . S
C947 C948 1.349 . S
C947 C949 1.327 . S
C947 H970 0.950 . S
C948 C947 1.349 . S
C948 C960 1.349 . S
C949 C947 1.327 . S
C949 C965 1.429 . S
C949 H971 0.950 . S
C950 H946 0.949 . S
C950 C958 1.574 . S
C950 C966 1.368 . S
H951 C959 0.950 . S
H952 C957 0.950 . S
H953 C958 0.949 . S
H954 C960 0.950 . S
H955 C961 0.950 . S
H956 C962 0.949 . S
C957 H952 0.950 . S
C957 C959 1.327 . S
C957 C963 1.429 . S
C958 C950 1.574 . S
C958 H953 0.949 . S
C958 C964 1.368 . S
C959 C943 1.349 . S
C959 H951 0.950 . S
C959 C957 1.327 . S
C960 C948 1.349 . S
C960 H954 0.950 . S
C960 C961 1.327 . S
C961 H955 0.950 . S
C961 C960 1.327 . S
C961 C965 1.429 . S
C962 C945 1.574 . S
C962 H956 0.949 . S
C962 C966 1.368 . S
C963 C944 1.429 . S
C963 C957 1.429 . S
C963 C964 1.523 . S
C964 C945 1.368 . S
C964 C958 1.368 . S
C964 C963 1.523 . S
C965 C949 1.429 . S
C965 C961 1.429 . S
C965 C966 1.523 . S
C966 C950 1.368 . S
C966 C962 1.368 . S
C966 C965 1.523 . S
H967 C942 0.950 . S
H968 C944 0.950 . S
H969 C945 0.949 . S
H970 C947 0.950 . S
H971 C949 0.950 . S
C972 C973 1.349 . S
C972 C974 1.327 . S
C972 H997 0.950 . S
C973 C972 1.349 . S
C973 C989 1.349 . S
C974 C972 1.327 . S
C974 C993 1.429 . S
C974 H998 0.950 . S
C975 C992 1.574 . S
C975 C994 1.368 . S
C975 H999 0.949 . S
H976 C980 0.949 . S
C977 C978 1.349 . S
C977 C979 1.327 . S
C977 H1000 0.950 . S
C978 C977 1.349 . S
C978 C990 1.349 . S
C979 C977 1.327 . S
C979 C995 1.429 . S
C979 H1001 0.950 . S
C980 H976 0.949 . S
C980 C988 1.574 . S
C980 C996 1.368 . S
H981 C989 0.950 . S
H982 C987 0.950 . S
H983 C988 0.949 . S
H984 C990 0.950 . S
H985 C991 0.950 . S
H986 C992 0.949 . S
C987 H982 0.950 . S
C987 C989 1.327 . S
C987 C993 1.429 . S
C988 C980 1.574 . S
C988 H983 0.949 . S
C988 C994 1.368 . S
C989 C973 1.349 . S
C989 H981 0.950 . S
C989 C987 1.327 . S
C990 C978 1.349 . S
C990 H984 0.950 . S
C990 C991 1.327 . S
C991 H985 0.950 . S
C991 C990 1.327 . S
C991 C995 1.429 . S
C992 C975 1.574 . S
C992 H986 0.949 . S
C992 C996 1.368 . S
C993 C974 1.429 . S
C993 C987 1.429 . S
C993 C994 1.523 . S
C994 C975 1.368 . S
C994 C988 1.368 . S
C994 C993 1.523 . S
C995 C979 1.429 . S
C995 C991 1.429 . S
C995 C996 1.523 . S
C996 C980 1.368 . S
C996 C992 1.368 . S
C996 C995 1.523 . S
H997 C972 0.950 . S
H998 C974 0.950 . S
H999 C975 0.949 . S
H1000 C977 0.950 . S
H1001 C979 0.950 . S
C1002 C1003 1.349 . S
C1002 C1004 1.327 . S
C1002 H1027 0.950 . S
C1003 C1002 1.349 . S
C1003 C1019 1.349 . S
C1004 C1002 1.327 . S
C1004 C1023 1.429 . S
C1004 H1028 0.950 . S
C1005 C1022 1.574 . S
C1005 C1024 1.368 . S
C1005 H1029 0.949 . S
H1006 C1010 0.949 . S
C1007 C1008 1.349 . S
C1007 C1009 1.327 . S
C1007 H1030 0.950 . S
C1008 C1007 1.349 . S
C1008 C1020 1.349 . S
C1009 C1007 1.327 . S
C1009 C1025 1.429 . S
C1009 H1031 0.950 . S
C1010 H1006 0.949 . S
C1010 C1018 1.574 . S
C1010 C1026 1.368 . S
H1011 C1019 0.950 . S
H1012 C1017 0.950 . S
H1013 C1018 0.949 . S
H1014 C1020 0.950 . S
H1015 C1021 0.950 . S
H1016 C1022 0.949 . S
C1017 H1012 0.950 . S
C1017 C1019 1.327 . S
C1017 C1023 1.429 . S
C1018 C1010 1.574 . S
C1018 H1013 0.949 . S
C1018 C1024 1.368 . S
C1019 C1003 1.349 . S
C1019 H1011 0.950 . S
C1019 C1017 1.327 . S
C1020 C1008 1.349 . S
C1020 H1014 0.950 . S
C1020 C1021 1.327 . S
C1021 H1015 0.950 . S
C1021 C1020 1.327 . S
C1021 C1025 1.429 . S
C1022 C1005 1.574 . S
C1022 H1016 0.949 . S
C1022 C1026 1.368 . S
C1023 C1004 1.429 . S
C1023 C1017 1.429 . S
C1023 C1024 1.523 . S
C1024 C1005 1.368 . S
C1024 C1018 1.368 . S
C1024 C1023 1.523 . S
C1025 C1009 1.429 . S
C1025 C1021 1.429 . S
C1025 C1026 1.523 . S
C1026 C1010 1.368 . S
C1026 C1022 1.368 . S
C1026 C1025 1.523 . S
H1027 C1002 0.950 . S
H1028 C1004 0.950 . S
H1029 C1005 0.949 . S
H1030 C1007 0.950 . S
H1031 C1009 0.950 . S
C1032 C1033 1.349 . S
C1032 C1034 1.327 . S
C1032 H1057 0.950 . S
C1033 C1032 1.349 . S
C1033 C1049 1.349 . S
C1034 C1032 1.327 . S
C1034 C1053 1.429 . S
C1034 H1058 0.950 . S
C1035 C1052 1.574 . S
C1035 C1054 1.368 . S
C1035 H1059 0.949 . S
H1036 C1040 0.949 . S
C1037 C1038 1.349 . S
C1037 C1039 1.327 . S
C1037 H1060 0.950 . S
C1038 C1037 1.349 . S
C1038 C1050 1.349 . S
C1039 C1037 1.327 . S
C1039 C1055 1.429 . S
C1039 H1061 0.950 . S
C1040 H1036 0.949 . S
C1040 C1048 1.574 . S
C1040 C1056 1.368 . S
H1041 C1049 0.950 . S
H1042 C1047 0.950 . S
H1043 C1048 0.949 . S
H1044 C1050 0.950 . S
H1045 C1051 0.950 . S
H1046 C1052 0.949 . S
C1047 H1042 0.950 . S
C1047 C1049 1.327 . S
C1047 C1053 1.429 . S
C1048 C1040 1.574 . S
C1048 H1043 0.949 . S
C1048 C1054 1.368 . S
C1049 C1033 1.349 . S
C1049 H1041 0.950 . S
C1049 C1047 1.327 . S
C1050 C1038 1.349 . S
C1050 H1044 0.950 . S
C1050 C1051 1.327 . S
C1051 H1045 0.950 . S
C1051 C1050 1.327 . S
C1051 C1055 1.429 . S
C1052 C1035 1.574 . S
C1052 H1046 0.949 . S
C1052 C1056 1.368 . S
C1053 C1034 1.429 . S
C1053 C1047 1.429 . S
C1053 C1054 1.523 . S
C1054 C1035 1.368 . S
C1054 C1048 1.368 . S
C1054 C1053 1.523 . S
C1055 C1039 1.429 . S
C1055 C1051 1.429 . S
C1055 C1056 1.523 . S
C1056 C1040 1.368 . S
C1056 C1052 1.368 . S
C1056 C1055 1.523 . S
H1057 C1032 0.950 . S
H1058 C1034 0.950 . S
H1059 C1035 0.949 . S
H1060 C1037 0.950 . S
H1061 C1039 0.950 . S
C1062 C1063 1.349 . S
C1062 C1064 1.327 . S
C1062 H1087 0.950 . S
C1063 C1062 1.349 . S
C1063 C1079 1.349 . S
C1064 C1062 1.327 . S
C1064 C1083 1.429 . S
C1064 H1088 0.950 . S
C1065 C1082 1.574 . S
C1065 C1084 1.368 . S
C1065 H1089 0.949 . S
H1066 C1070 0.949 . S
C1067 C1068 1.349 . S
C1067 C1069 1.327 . S
C1067 H1090 0.950 . S
C1068 C1067 1.349 . S
C1068 C1080 1.349 . S
C1069 C1067 1.327 . S
C1069 C1085 1.429 . S
C1069 H1091 0.950 . S
C1070 H1066 0.949 . S
C1070 C1078 1.574 . S
C1070 C1086 1.368 . S
H1071 C1079 0.950 . S
H1072 C1077 0.950 . S
H1073 C1078 0.949 . S
H1074 C1080 0.950 . S
H1075 C1081 0.950 . S
H1076 C1082 0.949 . S
C1077 H1072 0.950 . S
C1077 C1079 1.327 . S
C1077 C1083 1.429 . S
C1078 C1070 1.574 . S
C1078 H1073 0.949 . S
C1078 C1084 1.368 . S
C1079 C1063 1.349 . S
C1079 H1071 0.950 . S
C1079 C1077 1.327 . S
C1080 C1068 1.349 . S
C1080 H1074 0.950 . S
C1080 C1081 1.327 . S
C1081 H1075 0.950 . S
C1081 C1080 1.327 . S
C1081 C1085 1.429 . S
C1082 C1065 1.574 . S
C1082 H1076 0.949 . S
C1082 C1086 1.368 . S
C1083 C1064 1.429 . S
C1083 C1077 1.429 . S
C1083 C1084 1.523 . S
C1084 C1065 1.368 . S
C1084 C1078 1.368 . S
C1084 C1083 1.523 . S
C1085 C1069 1.429 . S
C1085 C1081 1.429 . S
C1085 C1086 1.523 . S
C1086 C1070 1.368 . S
C1086 C1082 1.368 . S
C1086 C1085 1.523 . S
H1087 C1062 0.950 . S
H1088 C1064 0.950 . S
H1089 C1065 0.949 . S
H1090 C1067 0.950 . S
H1091 C1069 0.950 . S
C1092 C1093 1.349 . S
C1092 C1094 1.327 . S
C1092 H1117 0.950 . S
C1093 C1092 1.349 . S
C1093 C1109 1.349 . S
C1094 C1092 1.327 . S
C1094 C1113 1.429 . S
C1094 H1118 0.950 . S
C1095 C1112 1.574 . S
C1095 C1114 1.368 . S
C1095 H1119 0.949 . S
H1096 C1100 0.949 . S
C1097 C1098 1.349 . S
C1097 C1099 1.327 . S
C1097 H1120 0.950 . S
C1098 C1097 1.349 . S
C1098 C1110 1.349 . S
C1099 C1097 1.327 . S
C1099 C1115 1.429 . S
C1099 H1121 0.950 . S
C1100 H1096 0.949 . S
C1100 C1108 1.574 . S
C1100 C1116 1.368 . S
H1101 C1109 0.950 . S
H1102 C1107 0.950 . S
H1103 C1108 0.949 . S
H1104 C1110 0.950 . S
H1105 C1111 0.950 . S
H1106 C1112 0.949 . S
C1107 H1102 0.950 . S
C1107 C1109 1.327 . S
C1107 C1113 1.429 . S
C1108 C1100 1.574 . S
C1108 H1103 0.949 . S
C1108 C1114 1.368 . S
C1109 C1093 1.349 . S
C1109 H1101 0.950 . S
C1109 C1107 1.327 . S
C1110 C1098 1.349 . S
C1110 H1104 0.950 . S
C1110 C1111 1.327 . S
C1111 H1105 0.950 . S
C1111 C1110 1.327 . S
C1111 C1115 1.429 . S
C1112 C1095 1.574 . S
C1112 H1106 0.949 . S
C1112 C1116 1.368 . S
C1113 C1094 1.429 . S
C1113 C1107 1.429 . S
C1113 C1114 1.523 . S
C1114 C1095 1.368 . S
C1114 C1108 1.368 . S
C1114 C1113 1.523 . S
C1115 C1099 1.429 . S
C1115 C1111 1.429 . S
C1115 C1116 1.523 . S
C1116 C1100 1.368 . S
C1116 C1112 1.368 . S
C1116 C1115 1.523 . S
H1117 C1092 0.950 . S
H1118 C1094 0.950 . S
H1119 C1095 0.949 . S
H1120 C1097 0.950 . S
H1121 C1099 0.950 . S
C1122 C1123 1.349 . S
C1122 C1124 1.327 . S
C1122 H1147 0.950 . S
C1123 C1122 1.349 . S
C1123 C1139 1.349 . S
C1124 C1122 1.327 . S
C1124 C1143 1.429 . S
C1124 H1148 0.950 . S
C1125 C1142 1.574 . S
C1125 C1144 1.368 . S
C1125 H1149 0.949 . S
H1126 C1130 0.949 . S
C1127 C1128 1.349 1_545 S
C1127 C1129 1.299 1_545 S
C1127 H1150 0.950 . S
C1128 C1127 1.349 1_565 S
C1128 C1140 1.349 . S
C1129 C1127 1.299 1_565 S
C1129 C1145 1.489 . S
C1129 H1151 0.919 1_565 S
C1130 H1126 0.949 . S
C1130 C1138 1.574 . S
C1130 C1146 1.368 . S
H1131 C1139 0.950 . S
H1132 C1137 0.950 . S
H1133 C1138 0.949 . S
H1134 C1140 0.950 . S
H1135 C1141 0.950 . S
H1136 C1142 0.949 . S
C1137 H1132 0.950 . S
C1137 C1139 1.327 . S
C1137 C1143 1.429 . S
C1138 C1130 1.574 . S
C1138 H1133 0.949 . S
C1138 C1144 1.368 . S
C1139 C1123 1.349 . S
C1139 H1131 0.950 . S
C1139 C1137 1.327 . S
C1140 C1128 1.349 . S
C1140 H1134 0.950 . S
C1140 C1141 1.327 . S
C1141 H1135 0.950 . S
C1141 C1140 1.327 . S
C1141 C1145 1.429 . S
C1142 C1125 1.574 . S
C1142 H1136 0.949 . S
C1142 C1146 1.368 . S
C1143 C1124 1.429 . S
C1143 C1137 1.429 . S
C1143 C1144 1.523 . S
C1144 C1125 1.368 . S
C1144 C1138 1.368 . S
C1144 C1143 1.523 . S
C1145 C1129 1.489 . S
C1145 C1141 1.429 . S
C1145 C1146 1.523 . S
C1146 C1130 1.368 . S
C1146 C1142 1.368 . S
C1146 C1145 1.523 . S
H1147 C1122 0.950 . S
H1148 C1124 0.950 . S
H1149 C1125 0.949 . S
H1150 C1127 0.950 . S
H1151 C1129 0.919 1_545 S
C1152 C1153 1.349 . S
C1152 C1154 1.327 . S
C1152 H1177 0.950 . S
C1153 C1152 1.349 . S
C1153 C1169 1.349 . S
C1154 C1152 1.327 . S
C1154 C1173 1.429 . S
C1154 H1178 0.950 . S
C1155 C1172 1.574 . S
C1155 C1174 1.368 . S
C1155 H1179 0.949 . S
H1156 C1160 0.949 . S
C1157 C1158 1.349 . S
C1157 C1159 1.327 . S
C1157 H1180 0.950 . S
C1158 C1157 1.349 . S
C1158 C1170 1.349 . S
C1159 C1157 1.327 . S
C1159 C1175 1.429 . S
C1159 H1181 0.950 . S
C1160 H1156 0.949 . S
C1160 C1168 1.574 . S
C1160 C1176 1.368 . S
H1161 C1169 0.950 . S
H1162 C1167 0.950 . S
H1163 C1168 0.949 . S
H1164 C1170 0.950 . S
H1165 C1171 0.950 . S
H1166 C1172 0.949 . S
C1167 H1162 0.950 . S
C1167 C1169 1.327 . S
C1167 C1173 1.429 . S
C1168 C1160 1.574 . S
C1168 H1163 0.949 . S
C1168 C1174 1.368 . S
C1169 C1153 1.349 . S
C1169 H1161 0.950 . S
C1169 C1167 1.327 . S
C1170 C1158 1.349 . S
C1170 H1164 0.950 . S
C1170 C1171 1.327 . S
C1171 H1165 0.950 . S
C1171 C1170 1.327 . S
C1171 C1175 1.429 . S
C1172 C1155 1.574 . S
C1172 H1166 0.949 . S
C1172 C1176 1.368 . S
C1173 C1154 1.429 . S
C1173 C1167 1.429 . S
C1173 C1174 1.523 . S
C1174 C1155 1.368 . S
C1174 C1168 1.368 . S
C1174 C1173 1.523 . S
C1175 C1159 1.429 . S
C1175 C1171 1.429 . S
C1175 C1176 1.523 . S
C1176 C1160 1.368 . S
C1176 C1172 1.368 . S
C1176 C1175 1.523 . S
H1177 C1152 0.950 . S
H1178 C1154 0.950 . S
H1179 C1155 0.949 . S
H1180 C1157 0.950 . S
H1181 C1159 0.950 . S
C1182 C1183 1.349 . S
C1182 C1184 1.327 . S
C1182 H1207 0.950 . S
C1183 C1182 1.349 . S
C1183 C1199 1.349 . S
C1184 C1182 1.327 . S
C1184 C1203 1.429 . S
C1184 H1208 0.950 . S
C1185 C1202 1.574 . S
C1185 C1204 1.368 . S
C1185 H1209 0.949 . S
H1186 C1190 0.949 . S
C1187 C1188 1.349 . S
C1187 C1189 1.327 . S
C1187 H1210 0.950 . S
C1188 C1187 1.349 . S
C1188 C1200 1.349 . S
C1189 C1187 1.327 . S
C1189 C1205 1.429 . S
C1189 H1211 0.950 . S
C1190 H1186 0.949 . S
C1190 C1198 1.574 . S
C1190 C1206 1.368 . S
H1191 C1199 0.950 . S
H1192 C1197 0.950 . S
H1193 C1198 0.949 . S
H1194 C1200 0.950 . S
H1195 C1201 0.950 . S
H1196 C1202 0.949 . S
C1197 H1192 0.950 . S
C1197 C1199 1.327 . S
C1197 C1203 1.429 . S
C1198 C1190 1.574 . S
C1198 H1193 0.949 . S
C1198 C1204 1.368 . S
C1199 C1183 1.349 . S
C1199 H1191 0.950 . S
C1199 C1197 1.327 . S
C1200 C1188 1.349 . S
C1200 H1194 0.950 . S
C1200 C1201 1.327 . S
C1201 H1195 0.950 . S
C1201 C1200 1.327 . S
C1201 C1205 1.429 . S
C1202 C1185 1.574 . S
C1202 H1196 0.949 . S
C1202 C1206 1.368 . S
C1203 C1184 1.429 . S
C1203 C1197 1.429 . S
C1203 C1204 1.523 . S
C1204 C1185 1.368 . S
C1204 C1198 1.368 . S
C1204 C1203 1.523 . S
C1205 C1189 1.429 . S
C1205 C1201 1.429 . S
C1205 C1206 1.523 . S
C1206 C1190 1.368 . S
C1206 C1202 1.368 . S
C1206 C1205 1.523 . S
H1207 C1182 0.950 . S
H1208 C1184 0.950 . S
H1209 C1185 0.949 . S
H1210 C1187 0.950 . S
H1211 C1189 0.950 . S
C1212 C1213 1.349 . S
C1212 C1214 1.327 . S
C1212 H1237 0.950 . S
C1213 C1212 1.349 . S
C1213 C1229 1.349 . S
C1214 C1212 1.327 . S
C1214 C1233 1.429 . S
C1214 H1238 0.950 . S
C1215 C1232 1.574 . S
C1215 C1234 1.368 . S
C1215 H1239 0.949 . S
H1216 C1220 0.949 . S
C1217 C1218 1.349 . S
C1217 C1219 1.327 . S
C1217 H1240 0.950 . S
C1218 C1217 1.349 . S
C1218 C1230 1.349 . S
C1219 C1217 1.327 . S
C1219 C1235 1.429 . S
C1219 H1241 0.950 . S
C1220 H1216 0.949 . S
C1220 C1228 1.574 . S
C1220 C1236 1.368 . S
H1221 C1229 0.950 . S
H1222 C1227 0.950 . S
H1223 C1228 0.949 . S
H1224 C1230 0.950 . S
H1225 C1231 0.950 . S
H1226 C1232 0.949 . S
C1227 H1222 0.950 . S
C1227 C1229 1.327 . S
C1227 C1233 1.429 . S
C1228 C1220 1.574 . S
C1228 H1223 0.949 . S
C1228 C1234 1.368 . S
C1229 C1213 1.349 . S
C1229 H1221 0.950 . S
C1229 C1227 1.327 . S
C1230 C1218 1.349 . S
C1230 H1224 0.950 . S
C1230 C1231 1.327 . S
C1231 H1225 0.950 . S
C1231 C1230 1.327 . S
C1231 C1235 1.429 . S
C1232 C1215 1.574 . S
C1232 H1226 0.949 . S
C1232 C1236 1.368 . S
C1233 C1214 1.429 . S
C1233 C1227 1.429 . S
C1233 C1234 1.523 . S
C1234 C1215 1.368 . S
C1234 C1228 1.368 . S
C1234 C1233 1.523 . S
C1235 C1219 1.429 . S
C1235 C1231 1.429 . S
C1235 C1236 1.523 . S
C1236 C1220 1.368 . S
C1236 C1232 1.368 . S
C1236 C1235 1.523 . S
H1237 C1212 0.950 . S
H1238 C1214 0.950 . S
H1239 C1215 0.949 . S
H1240 C1217 0.950 . S
H1241 C1219 0.950 . S
C1242 C1243 1.349 . S
C1242 C1244 1.327 . S
C1242 H1267 0.950 . S
C1243 C1242 1.349 . S
C1243 C1259 1.349 . S
C1244 C1242 1.327 . S
C1244 C1263 1.429 . S
C1244 H1268 0.950 . S
C1245 C1262 1.574 . S
C1245 C1264 1.368 . S
C1245 H1269 0.949 . S
H1246 C1250 0.949 . S
C1247 C1248 1.349 . S
C1247 C1249 1.327 . S
C1247 H1270 0.950 . S
C1248 C1247 1.349 . S
C1248 C1260 1.349 . S
C1249 C1247 1.327 . S
C1249 C1265 1.429 . S
C1249 H1271 0.950 1_655 S
C1250 H1246 0.949 . S
C1250 C1258 1.574 1_655 S
C1250 C1266 1.368 1_655 S
H1251 C1259 0.950 . S
H1252 C1257 0.950 . S
H1253 C1258 0.955 . S
H1254 C1260 0.950 . S
H1255 C1261 0.950 . S
H1256 C1262 0.949 . S
C1257 H1252 0.950 . S
C1257 C1259 1.327 . S
C1257 C1263 1.429 . S
C1258 C1250 1.574 1_455 S
C1258 H1253 0.955 . S
C1258 C1264 1.368 . S
C1259 C1243 1.349 . S
C1259 H1251 0.950 . S
C1259 C1257 1.327 . S
C1260 C1248 1.349 . S
C1260 H1254 0.950 . S
C1260 C1261 1.327 . S
C1261 H1255 0.950 . S
C1261 C1260 1.327 . S
C1261 C1265 1.429 . S
C1262 C1245 1.574 . S
C1262 H1256 0.949 . S
C1262 C1266 1.368 . S
C1263 C1244 1.429 . S
C1263 C1257 1.429 . S
C1263 C1264 1.523 . S
C1264 C1245 1.368 . S
C1264 C1258 1.368 . S
C1264 C1263 1.523 . S
C1265 C1249 1.429 . S
C1265 C1261 1.429 . S
C1265 C1266 1.523 1_655 S
C1266 C1250 1.368 1_455 S
C1266 C1262 1.368 . S
C1266 C1265 1.523 1_455 S
H1267 C1242 0.950 . S
H1268 C1244 0.950 . S
H1269 C1245 0.949 . S
H1270 C1247 0.950 . S
H1271 C1249 0.950 1_455 S
C1272 C1273 1.349 . S
C1272 C1274 1.327 . S
C1272 H1297 0.950 . S
C1273 C1272 1.349 . S
C1273 C1289 1.349 . S
C1274 C1272 1.327 . S
C1274 C1293 1.429 . S
C1274 H1298 0.950 . S
C1275 C1292 1.574 . S
C1275 C1294 1.368 . S
C1275 H1299 0.949 . S
H1276 C1280 0.949 . S
C1277 C1278 1.349 . S
C1277 C1279 1.327 . S
C1277 H1300 0.950 . S
C1278 C1277 1.349 . S
C1278 C1290 1.349 . S
C1279 C1277 1.327 . S
C1279 C1295 1.429 . S
C1279 H1301 0.950 . S
C1280 H1276 0.949 . S
C1280 C1288 1.574 . S
C1280 C1296 1.368 . S
H1281 C1289 0.950 . S
H1282 C1287 0.950 . S
H1283 C1288 0.949 . S
H1284 C1290 0.950 . S
H1285 C1291 0.950 . S
H1286 C1292 0.949 . S
C1287 H1282 0.950 . S
C1287 C1289 1.327 . S
C1287 C1293 1.429 . S
C1288 C1280 1.574 . S
C1288 H1283 0.949 . S
C1288 C1294 1.368 . S
C1289 C1273 1.349 . S
C1289 H1281 0.950 . S
C1289 C1287 1.327 . S
C1290 C1278 1.349 . S
C1290 H1284 0.950 . S
C1290 C1291 1.327 . S
C1291 H1285 0.950 . S
C1291 C1290 1.327 . S
C1291 C1295 1.429 . S
C1292 C1275 1.574 . S
C1292 H1286 0.949 . S
C1292 C1296 1.368 . S
C1293 C1274 1.429 . S
C1293 C1287 1.429 . S
C1293 C1294 1.523 . S
C1294 C1275 1.368 . S
C1294 C1288 1.368 . S
C1294 C1293 1.523 . S
C1295 C1279 1.429 . S
C1295 C1291 1.429 . S
C1295 C1296 1.523 . S
C1296 C1280 1.368 . S
C1296 C1292 1.368 . S
C1296 C1295 1.523 . S
H1297 C1272 0.950 . S
H1298 C1274 0.950 . S
H1299 C1275 0.949 . S
H1300 C1277 0.950 . S
H1301 C1279 0.950 . S
C1302 C1303 1.349 . S
C1302 C1304 1.327 . S
C1302 H1327 0.950 . S
C1303 C1302 1.349 . S
C1303 C1319 1.349 . S
C1304 C1302 1.327 . S
C1304 C1323 1.429 . S
C1304 H1328 0.950 1_565 S
C1305 C1322 1.574 1_565 S
C1305 C1324 1.368 1_565 S
C1305 H1329 0.949 . S
H1306 C1310 0.949 . S
C1307 C1308 1.349 . S
C1307 C1309 1.327 . S
C1307 H1330 0.950 . S
C1308 C1307 1.349 . S
C1308 C1320 1.349 . S
C1309 C1307 1.327 . S
C1309 C1325 1.429 . S
C1309 H1331 0.950 . S
C1310 H1306 0.949 . S
C1310 C1318 1.574 . S
C1310 C1326 1.368 . S
H1311 C1319 0.950 . S
H1312 C1317 0.950 . S
H1313 C1318 0.949 . S
H1314 C1320 0.950 . S
H1315 C1321 0.950 . S
H1316 C1322 0.949 . S
C1317 H1312 0.950 . S
C1317 C1319 1.327 . S
C1317 C1323 1.429 . S
C1318 C1310 1.574 . S
C1318 H1313 0.949 . S
C1318 C1324 1.368 . S
C1319 C1303 1.349 . S
C1319 H1311 0.950 . S
C1319 C1317 1.327 . S
C1320 C1308 1.349 . S
C1320 H1314 0.950 . S
C1320 C1321 1.327 . S
C1321 H1315 0.950 . S
C1321 C1320 1.327 . S
C1321 C1325 1.429 . S
C1322 C1305 1.574 1_545 S
C1322 H1316 0.949 . S
C1322 C1326 1.368 . S
C1323 C1304 1.429 . S
C1323 C1317 1.429 . S
C1323 C1324 1.523 1_565 S
C1324 C1305 1.368 1_545 S
C1324 C1318 1.368 . S
C1324 C1323 1.523 1_545 S
C1325 C1309 1.429 . S
C1325 C1321 1.429 . S
C1325 C1326 1.523 . S
C1326 C1310 1.368 . S
C1326 C1322 1.368 . S
C1326 C1325 1.523 . S
H1327 C1302 0.950 . S
H1328 C1304 0.950 1_545 S
H1329 C1305 0.949 . S
H1330 C1307 0.950 . S
H1331 C1309 0.950 . S
C793 C196 0.755 . S
C798 C49 0.755 . S
C823 C145 0.755 . S
C828 C29 0.755 . S
C853 C108 0.755 . S
C858 C233 0.755 . S
C883 C469 0.755 . S
C888 C321 0.755 . S
C913 C409 0.755 . S
C918 C284 0.755 . S
C943 C372 0.755 . S
C948 C489 0.755 . S
C973 C577 0.755 . S
C978 C724 0.755 . S
C1003 C557 0.755 . S
C1008 C665 0.755 . S
C1033 C645 0.755 . S
C1038 C761 0.755 . S
C1063 C57 1.143 . S
C1068 C636 1.143 . S
C1093 C137 1.143 . S
C1098 C733 1.143 . S
C1123 C548 1.142 . S
C1128 C225 1.142 . S
C1153 C401 1.143 . S
C1158 C205 1.143 . S
C1183 C20 1.143 . S
C1188 C497 1.143 . S
C1213 C313 1.143 . S
C1218 C117 1.143 . S
C1243 C673 1.143 . S
C1248 C460 1.143 . S
C1273 C293 1.143 . S
C1278 C753 1.143 . S
C1303 C585 1.143 . S
C1308 C381 1.143 . S
