# Generated by pormake.
# Topology zfp, (5)-cn, num edge types: 1
# Building blocks:
#     Node 0, Type 0, BuildingBlock: BEQFEK_clean_sbu_0, # of connection points: 5
#     Node 1, Type 0, BuildingBlock: BEQFEK_clean_sbu_0, # of connection points: 5
#     Node 2, Type 0, BuildingBlock: BEQFEK_clean_sbu_0, # of connection points: 5
#     Node 3, Type 0, BuildingBlock: BEQFEK_clean_sbu_0, # of connection points: 5
#     Node 4, Type 0, BuildingBlock: BEQFEK_clean_sbu_0, # of connection points: 5
#     Node 5, Type 0, BuildingBlock: BEQFEK_clean_sbu_0, # of connection points: 5
#     Node 6, Type 0, BuildingBlock: BEQFEK_clean_sbu_0, # of connection points: 5
#     Node 7, Type 0, BuildingBlock: BEQFEK_clean_sbu_0, # of connection points: 5
#     Node 8, Type 0, BuildingBlock: BEQFEK_clean_sbu_0, # of connection points: 5
#     Node 9, Type 0, BuildingBlock: BEQFEK_clean_sbu_0, # of connection points: 5
#     Node 10, Type 0, BuildingBlock: BEQFEK_clean_sbu_0, # of connection points: 5
#     Node 11, Type 0, BuildingBlock: BEQFEK_clean_sbu_0, # of connection points: 5
#     Node 12, Type 0, BuildingBlock: BEQFEK_clean_sbu_0, # of connection points: 5
#     Node 13, Type 0, BuildingBlock: BEQFEK_clean_sbu_0, # of connection points: 5
#     Node 14, Type 0, BuildingBlock: BEQFEK_clean_sbu_0, # of connection points: 5
#     Node 15, Type 0, BuildingBlock: BEQFEK_clean_sbu_0, # of connection points: 5
#     Edge 16, Type (0, 0), BuildingBlock: TEMPAE_clean_linker_10, # of connection points: 2
#     Edge 17, Type (0, 0), BuildingBlock: TEMPAE_clean_linker_10, # of connection points: 2
#     Edge 18, Type (0, 0), BuildingBlock: TEMPAE_clean_linker_10, # of connection points: 2
#     Edge 19, Type (0, 0), BuildingBlock: TEMPAE_clean_linker_10, # of connection points: 2
#     Edge 20, Type (0, 0), BuildingBlock: TEMPAE_clean_linker_10, # of connection points: 2
#     Edge 21, Type (0, 0), BuildingBlock: TEMPAE_clean_linker_10, # of connection points: 2
#     Edge 22, Type (0, 0), BuildingBlock: TEMPAE_clean_linker_10, # of connection points: 2
#     Edge 23, Type (0, 0), BuildingBlock: TEMPAE_clean_linker_10, # of connection points: 2
#     Edge 24, Type (0, 0), BuildingBlock: TEMPAE_clean_linker_10, # of connection points: 2
#     Edge 25, Type (0, 0), BuildingBlock: TEMPAE_clean_linker_10, # of connection points: 2
#     Edge 26, Type (0, 0), BuildingBlock: TEMPAE_clean_linker_10, # of connection points: 2
#     Edge 27, Type (0, 0), BuildingBlock: TEMPAE_clean_linker_10, # of connection points: 2
#     Edge 28, Type (0, 0), BuildingBlock: TEMPAE_clean_linker_10, # of connection points: 2
#     Edge 29, Type (0, 0), BuildingBlock: TEMPAE_clean_linker_10, # of connection points: 2
#     Edge 30, Type (0, 0), BuildingBlock: TEMPAE_clean_linker_10, # of connection points: 2
#     Edge 31, Type (0, 0), BuildingBlock: TEMPAE_clean_linker_10, # of connection points: 2
#     Edge 32, Type (0, 0), BuildingBlock: TEMPAE_clean_linker_10, # of connection points: 2
#     Edge 33, Type (0, 0), BuildingBlock: TEMPAE_clean_linker_10, # of connection points: 2
#     Edge 34, Type (0, 0), BuildingBlock: TEMPAE_clean_linker_10, # of connection points: 2
#     Edge 35, Type (0, 0), BuildingBlock: TEMPAE_clean_linker_10, # of connection points: 2
#     Edge 36, Type (0, 0), BuildingBlock: TEMPAE_clean_linker_10, # of connection points: 2
#     Edge 37, Type (0, 0), BuildingBlock: TEMPAE_clean_linker_10, # of connection points: 2
#     Edge 38, Type (0, 0), BuildingBlock: TEMPAE_clean_linker_10, # of connection points: 2
#     Edge 39, Type (0, 0), BuildingBlock: TEMPAE_clean_linker_10, # of connection points: 2
#     Edge 40, Type (0, 0), BuildingBlock: TEMPAE_clean_linker_10, # of connection points: 2
#     Edge 41, Type (0, 0), BuildingBlock: TEMPAE_clean_linker_10, # of connection points: 2
#     Edge 42, Type (0, 0), BuildingBlock: TEMPAE_clean_linker_10, # of connection points: 2
#     Edge 43, Type (0, 0), BuildingBlock: TEMPAE_clean_linker_10, # of connection points: 2
#     Edge 44, Type (0, 0), BuildingBlock: TEMPAE_clean_linker_10, # of connection points: 2
#     Edge 45, Type (0, 0), BuildingBlock: TEMPAE_clean_linker_10, # of connection points: 2
#     Edge 46, Type (0, 0), BuildingBlock: TEMPAE_clean_linker_10, # of connection points: 2
#     Edge 47, Type (0, 0), BuildingBlock: TEMPAE_clean_linker_10, # of connection points: 2
#     Edge 48, Type (0, 0), BuildingBlock: TEMPAE_clean_linker_10, # of connection points: 2
#     Edge 49, Type (0, 0), BuildingBlock: TEMPAE_clean_linker_10, # of connection points: 2
#     Edge 50, Type (0, 0), BuildingBlock: TEMPAE_clean_linker_10, # of connection points: 2
#     Edge 51, Type (0, 0), BuildingBlock: TEMPAE_clean_linker_10, # of connection points: 2
#     Edge 52, Type (0, 0), BuildingBlock: TEMPAE_clean_linker_10, # of connection points: 2
#     Edge 53, Type (0, 0), BuildingBlock: TEMPAE_clean_linker_10, # of connection points: 2
#     Edge 54, Type (0, 0), BuildingBlock: TEMPAE_clean_linker_10, # of connection points: 2
#     Edge 55, Type (0, 0), BuildingBlock: TEMPAE_clean_linker_10, # of connection points: 2
# Relax obj value: 0.110
# Max RMSD: 0.152
# Mean RMSD: 0.152
data_MOF--net-zfp--node1-BEQFEK_clean_sbu_0--edge1-TEMPAE_clean_linker_10
_symmetry_space_group_name_H-M    P1
_symmetry_Int_Tables_number       1
_symmetry_cell_setting            triclinic
loop_
_symmetry_equiv_pos_as_xyz
'x, y, z'
_cell_length_a     30.810175
_cell_length_b     30.81798
_cell_length_c     78.616005
_cell_angle_alpha  90.003719
_cell_angle_beta   90.014663
_cell_angle_gamma 89.993005
loop_
_atom_site_label
_atom_site_type_symbol
_atom_site_fract_x
_atom_site_fract_y
_atom_site_fract_z
_atom_type_partial_charge
Co0 Co 0.15232 0.3187 0.15102 0.0
Co1 Co 0.1492 0.30853 0.11143 0.0
C2 C 0.09231 0.25463 0.13264 0.0
O3 O 0.10685 0.27385 0.14588 0.0
O4 O 0.1084 0.26202 0.11796 0.0
C5 C 0.16954 0.28776 0.18515 0.0
O6 O 0.16548 0.24875 0.17859 0.0
C7 C 0.14579 0.28702 0.07449 0.0
C8 C 0.17433 0.34732 0.06412 0.0
C9 C 0.15629 0.30801 0.05939 0.0
N10 N 0.15733 0.313 0.08751 0.0
N11 N 0.17438 0.34885 0.08117 0.0
C12 C 0.12161 0.24532 0.07666 0.0
H13 H 0.09274 0.25104 0.08478 0.0
H14 H 0.14269 0.22159 0.08334 0.0
H15 H 0.11084 0.23168 0.06432 0.0
C16 C 0.24689 0.31019 0.14427 0.0
N17 N 0.20515 0.3102 0.13908 0.0
N18 N 0.20388 0.30396 0.12254 0.0
C19 C 0.24477 0.2984 0.11676 0.0
C20 C 0.27339 0.30264 0.13031 0.0
C21 C 0.26101 0.31685 0.1623 0.0
H22 H 0.24367 0.34506 0.16782 0.0
H23 H 0.25248 0.28764 0.16982 0.0
H24 H 0.29653 0.32206 0.1633 0.0
O25 O 0.12576 0.37475 0.14502 0.0
O26 O 0.11834 0.36287 0.11736 0.0
H27 H 0.25571 0.32285 0.09174 0.0
H28 H 0.28937 0.2773 0.09716 0.0
C29 C 0.25637 0.29126 0.09849 0.0
H30 H 0.23236 0.26934 0.09244 0.0
H31 H 0.18538 0.37476 0.08855 0.0
O32 O 0.16431 0.32075 0.17568 0.0
C33 C 0.11145 0.38593 0.1305 0.0
Co34 Co 0.69268 0.14786 0.65158 0.0
Co35 Co 0.67023 0.14741 0.61278 0.0
C36 C 0.73863 0.08816 0.62836 0.0
O37 O 0.73566 0.10514 0.64312 0.0
O38 O 0.71579 0.10211 0.61596 0.0
C39 C 0.73268 0.16217 0.68532 0.0
O40 O 0.77125 0.15832 0.67836 0.0
C41 C 0.68635 0.15268 0.57594 0.0
C42 C 0.62134 0.17107 0.56649 0.0
C43 C 0.6634 0.16251 0.56123 0.0
N44 N 0.65902 0.15549 0.58922 0.0
N45 N 0.62019 0.16623 0.58347 0.0
C46 C 0.73386 0.14371 0.57763 0.0
H47 H 0.74574 0.15504 0.5902 0.0
H48 H 0.75241 0.15983 0.56732 0.0
H49 H 0.73933 0.10818 0.57682 0.0
C50 C 0.69901 0.24265 0.64475 0.0
N51 N 0.69343 0.20131 0.63954 0.0
N52 N 0.68384 0.20122 0.62324 0.0
C53 C 0.68275 0.24256 0.61758 0.0
C54 C 0.69225 0.27012 0.63103 0.0
C55 C 0.70739 0.2557 0.66279 0.0
H56 H 0.68231 0.24119 0.67116 0.0
H57 H 0.73949 0.243 0.66679 0.0
H58 H 0.70702 0.29146 0.66438 0.0
O59 O 0.63591 0.11838 0.64973 0.0
O60 O 0.61685 0.12258 0.62258 0.0
H61 H 0.63819 0.24726 0.59686 0.0
H62 H 0.67744 0.29077 0.59762 0.0
C63 C 0.67247 0.25551 0.59969 0.0
H64 H 0.69352 0.23723 0.59079 0.0
H65 H 0.59301 0.17073 0.59119 0.0
O66 O 0.69895 0.15857 0.67616 0.0
C67 C 0.60918 0.11073 0.63778 0.0
Co68 Co 0.84017 0.68381 0.152 0.0
Co69 Co 0.84379 0.69589 0.11257 0.0
C70 C 0.89968 0.7494 0.13423 0.0
O71 O 0.88517 0.72932 0.14727 0.0
O72 O 0.88388 0.74259 0.11947 0.0
C73 C 0.82139 0.7142 0.1859 0.0
O74 O 0.82374 0.75311 0.17913 0.0
C75 C 0.84876 0.71931 0.07596 0.0
C76 C 0.8208 0.65964 0.06478 0.0
C77 C 0.83932 0.69913 0.06059 0.0
N78 N 0.83624 0.69268 0.08861 0.0
N79 N 0.81946 0.65726 0.08182 0.0
C80 C 0.87327 0.76058 0.07874 0.0
H81 H 0.85408 0.78234 0.0871 0.0
H82 H 0.88086 0.77728 0.06661 0.0
H83 H 0.90408 0.7531 0.08542 0.0
C84 C 0.74558 0.69148 0.14507 0.0
N85 N 0.78741 0.69221 0.14001 0.0
N86 N 0.7889 0.69935 0.12353 0.0
C87 C 0.74805 0.70482 0.11768 0.0
C88 C 0.71926 0.69954 0.13111 0.0
C89 C 0.73119 0.68367 0.16299 0.0
H90 H 0.73826 0.71296 0.1707 0.0
H91 H 0.69588 0.67702 0.16378 0.0
H92 H 0.74946 0.65599 0.16848 0.0
O93 O 0.8674 0.6283 0.14574 0.0
O94 O 0.87524 0.64164 0.1182 0.0
H95 H 0.73756 0.6817 0.09243 0.0
H96 H 0.70367 0.72683 0.09816 0.0
C97 C 0.7367 0.71291 0.09944 0.0
H98 H 0.76072 0.73524 0.09363 0.0
H99 H 0.80799 0.63096 0.08886 0.0
O100 O 0.8281 0.68116 0.17661 0.0
C101 C 0.88215 0.61802 0.13119 0.0
Co102 Co 0.29031 0.85203 0.65225 0.0
Co103 Co 0.31525 0.84946 0.61369 0.0
C104 C 0.24688 0.91071 0.6278 0.0
O105 O 0.2489 0.89487 0.64277 0.0
O106 O 0.27016 0.89556 0.61575 0.0
C107 C 0.28748 0.8735 0.68705 0.0
O108 O 0.29703 0.91203 0.68094 0.0
C109 C 0.30216 0.84292 0.57675 0.0
C110 C 0.36732 0.82218 0.56825 0.0
C111 C 0.32605 0.83202 0.56239 0.0
N112 N 0.32823 0.83957 0.5904 0.0
N113 N 0.36714 0.82736 0.58522 0.0
C114 C 0.2549 0.85364 0.57777 0.0
H115 H 0.24142 0.84251 0.59011 0.0
H116 H 0.23673 0.83841 0.56714 0.0
H117 H 0.25084 0.88937 0.57701 0.0
C118 C 0.28321 0.75721 0.64642 0.0
N119 N 0.28942 0.79801 0.64074 0.0
N120 N 0.30009 0.79671 0.62455 0.0
C121 C 0.30135 0.75493 0.61945 0.0
C122 C 0.29086 0.72856 0.63314 0.0
C123 C 0.27387 0.74601 0.66457 0.0
H124 H 0.24453 0.76381 0.66885 0.0
H125 H 0.26891 0.71064 0.66633 0.0
H126 H 0.30145 0.75673 0.67262 0.0
O127 O 0.348 0.88014 0.65088 0.0
O128 O 0.36811 0.87415 0.62388 0.0
H129 H 0.30739 0.70516 0.60012 0.0
H130 H 0.29361 0.75862 0.59244 0.0
C131 C 0.31314 0.74042 0.60189 0.0
H132 H 0.34792 0.74748 0.59956 0.0
H133 H 0.39351 0.82229 0.59332 0.0
O134 O 0.28023 0.84262 0.67674 0.0
C135 C 0.37538 0.88661 0.63904 0.0
Co136 Co 0.66179 0.18348 0.84398 0.0
Co137 Co 0.66095 0.19242 0.88362 0.0
C138 C 0.60205 0.24615 0.86295 0.0
O139 O 0.61651 0.228 0.84947 0.0
O140 O 0.6184 0.23781 0.8775 0.0
C141 C 0.67695 0.21478 0.80982 0.0
O142 O 0.67366 0.2537 0.81653 0.0
C143 C 0.66289 0.21719 0.92019 0.0
C144 C 0.69398 0.15851 0.93084 0.0
C145 C 0.67724 0.19863 0.93529 0.0
N146 N 0.67112 0.18921 0.90744 0.0
N147 N 0.68944 0.15419 0.91395 0.0
C148 C 0.64368 0.26129 0.91769 0.0
H149 H 0.65408 0.2748 0.90526 0.0
H150 H 0.65347 0.28358 0.9281 0.0
H151 H 0.60777 0.25852 0.91759 0.0
C152 C 0.75657 0.19306 0.84985 0.0
N153 N 0.71516 0.19247 0.85541 0.0
N154 N 0.71478 0.19842 0.87197 0.0
C155 C 0.75595 0.20446 0.87739 0.0
C156 C 0.78376 0.20078 0.86357 0.0
C157 C 0.76975 0.18659 0.8317 0.0
H158 H 0.76079 0.21586 0.82429 0.0
H159 H 0.80522 0.18146 0.83042 0.0
H160 H 0.75219 0.15839 0.82627 0.0
O161 O 0.6362 0.12722 0.85018 0.0
O162 O 0.63128 0.13706 0.87806 0.0
H163 H 0.76844 0.17984 0.90227 0.0
H164 H 0.80176 0.22537 0.8966 0.0
C165 C 0.76868 0.21146 0.89555 0.0
H166 H 0.74514 0.23345 0.90183 0.0
H167 H 0.69907 0.12736 0.90678 0.0
O168 O 0.67215 0.18166 0.81924 0.0
C169 C 0.62365 0.1147 0.86478 0.0
Co170 Co 0.79882 0.65251 0.34428 0.0
Co171 Co 0.82109 0.65479 0.38305 0.0
C172 C 0.7531 0.59404 0.36797 0.0
O173 O 0.75582 0.61022 0.35306 0.0
O174 O 0.7759 0.60887 0.38022 0.0
C175 C 0.75991 0.66366 0.31012 0.0
O176 O 0.72111 0.65883 0.31678 0.0
C177 C 0.80488 0.66128 0.41985 0.0
C178 C 0.86947 0.68153 0.42916 0.0
C179 C 0.82769 0.672 0.4345 0.0
N180 N 0.83203 0.66448 0.40653 0.0
N181 N 0.8706 0.67639 0.41219 0.0
C182 C 0.75768 0.65077 0.41824 0.0
H183 H 0.74524 0.66191 0.40573 0.0
H184 H 0.73874 0.66612 0.42864 0.0
H185 H 0.75339 0.61507 0.41897 0.0
C186 C 0.79164 0.74771 0.35014 0.0
N187 N 0.79762 0.70676 0.35576 0.0
N188 N 0.8073 0.70785 0.37205 0.0
C189 C 0.80815 0.74957 0.37726 0.0
C190 C 0.79831 0.77613 0.36356 0.0
C191 C 0.78261 0.75949 0.33202 0.0
H192 H 0.75121 0.74501 0.32811 0.0
H193 H 0.78119 0.79517 0.3302 0.0
H194 H 0.80839 0.74584 0.32375 0.0
O195 O 0.85561 0.62312 0.3466 0.0
O196 O 0.87472 0.62958 0.37367 0.0
H197 H 0.85325 0.75604 0.39773 0.0
H198 H 0.81378 0.7993 0.39662 0.0
C199 C 0.81885 0.7639 0.39496 0.0
H200 H 0.79816 0.74617 0.40416 0.0
H201 H 0.89763 0.68129 0.40443 0.0
O202 O 0.79322 0.66175 0.31959 0.0
C203 C 0.88236 0.61643 0.35864 0.0
Co204 Co 0.35123 0.81501 0.84553 0.0
Co205 Co 0.35707 0.80609 0.88516 0.0
C206 C 0.41144 0.75072 0.86352 0.0
O207 O 0.39634 0.76981 0.85035 0.0
O208 O 0.39637 0.75864 0.87831 0.0
C209 C 0.3647 0.81675 0.80938 0.0
O210 O 0.40609 0.81591 0.81341 0.0
C211 C 0.35561 0.78413 0.92228 0.0
C212 C 0.34298 0.84981 0.93246 0.0
C213 C 0.35051 0.80732 0.93734 0.0
N214 N 0.35129 0.81199 0.90917 0.0
N215 N 0.34361 0.85103 0.91542 0.0
C216 C 0.36651 0.73709 0.9204 0.0
H217 H 0.33599 0.71799 0.92029 0.0
H218 H 0.3868 0.72585 0.9312 0.0
H219 H 0.38375 0.73113 0.90827 0.0
C220 C 0.25757 0.80774 0.85331 0.0
N221 N 0.29951 0.80762 0.85816 0.0
N222 N 0.30162 0.80277 0.87474 0.0
C223 C 0.26098 0.7989 0.88097 0.0
C224 C 0.23169 0.80232 0.86759 0.0
C225 C 0.24282 0.81241 0.83526 0.0
H226 H 0.25741 0.78614 0.82748 0.0
H227 H 0.20698 0.81073 0.8341 0.0
H228 H 0.25449 0.84385 0.83013 0.0
O229 O 0.37925 0.87093 0.8508 0.0
O230 O 0.38895 0.85907 0.87836 0.0
H231 H 0.21558 0.78732 0.90154 0.0
H232 H 0.27048 0.76812 0.90508 0.0
C233 C 0.25048 0.7944 0.89946 0.0
H234 H 0.25876 0.82507 0.90609 0.0
H235 H 0.33926 0.87873 0.90797 0.0
O236 O 0.3365 0.81556 0.82113 0.0
C237 C 0.39528 0.88175 0.86508 0.0
Co238 Co 0.19653 0.35181 0.34346 0.0
Co239 Co 0.17533 0.34973 0.38237 0.0
C240 C 0.24338 0.40987 0.3671 0.0
O241 O 0.24001 0.39385 0.35218 0.0
O242 O 0.22089 0.39513 0.37945 0.0
C243 C 0.23456 0.33914 0.30915 0.0
O244 O 0.27365 0.34178 0.31575 0.0
C245 C 0.19113 0.34373 0.41929 0.0
C246 C 0.12654 0.32289 0.42838 0.0
C247 C 0.16809 0.33289 0.43387 0.0
N248 N 0.16431 0.34015 0.40586 0.0
N249 N 0.12575 0.32789 0.4114 0.0
C250 C 0.23827 0.35468 0.41784 0.0
H251 H 0.25108 0.34363 0.40538 0.0
H252 H 0.25712 0.33952 0.4283 0.0
H253 H 0.2422 0.39042 0.41857 0.0
C254 C 0.2031 0.25646 0.34938 0.0
N255 N 0.19745 0.29749 0.35496 0.0
N256 N 0.18853 0.29659 0.37132 0.0
C257 C 0.18802 0.25496 0.37664 0.0
C258 C 0.1971 0.22818 0.36291 0.0
C259 C 0.21115 0.24446 0.33121 0.0
H260 H 0.18591 0.25944 0.32304 0.0
H261 H 0.24316 0.2574 0.32724 0.0
H262 H 0.21076 0.20879 0.32931 0.0
O263 O 0.14009 0.38169 0.34594 0.0
O264 O 0.12181 0.37549 0.3731 0.0
H265 H 0.14462 0.24765 0.39761 0.0
H266 H 0.18561 0.20588 0.39636 0.0
C267 C 0.1791 0.24098 0.39452 0.0
H268 H 0.19974 0.25981 0.4034 0.0
H269 H 0.09894 0.32265 0.40355 0.0
O270 O 0.20153 0.34271 0.3187 0.0
C271 C 0.1138 0.38865 0.3581 0.0
Co272 Co 0.85346 0.68649 0.84564 0.0
Co273 Co 0.85285 0.69649 0.88525 0.0
C274 C 0.91259 0.74948 0.86478 0.0
O275 O 0.89882 0.73077 0.85131 0.0
O276 O 0.89531 0.742 0.87924 0.0
C277 C 0.87181 0.68186 0.80963 0.0
O278 O 0.91273 0.68011 0.81431 0.0
C279 C 0.84835 0.72281 0.92156 0.0
C280 C 0.81869 0.66367 0.93244 0.0
C281 C 0.83369 0.70462 0.93668 0.0
N282 N 0.84192 0.69383 0.909 0.0
N283 N 0.82448 0.65854 0.91564 0.0
C284 C 0.86599 0.76747 0.91885 0.0
H285 H 0.85585 0.77986 0.9062 0.0
H286 H 0.85474 0.78994 0.92896 0.0
H287 H 0.90198 0.76609 0.9191 0.0
C288 C 0.75888 0.6965 0.85086 0.0
N289 N 0.79993 0.69599 0.85678 0.0
N290 N 0.79943 0.70188 0.87333 0.0
C291 C 0.75792 0.70743 0.87843 0.0
C292 C 0.73086 0.70371 0.86437 0.0
C293 C 0.74693 0.69025 0.83258 0.0
H294 H 0.75952 0.65849 0.82812 0.0
H295 H 0.76252 0.716 0.82484 0.0
H296 H 0.71131 0.69162 0.83058 0.0
O297 O 0.87879 0.63013 0.8521 0.0
O298 O 0.88318 0.64136 0.87993 0.0
H299 H 0.74552 0.68189 0.90317 0.0
H300 H 0.71053 0.72613 0.89742 0.0
C301 C 0.74418 0.71357 0.89652 0.0
H302 H 0.76658 0.73638 0.903 0.0
H303 H 0.81616 0.63103 0.90862 0.0
O304 O 0.84255 0.68541 0.82091 0.0
C305 C 0.89124 0.61845 0.86683 0.0
Co306 Co 0.30612 0.84869 0.34492 0.0
Co307 Co 0.31249 0.85337 0.38469 0.0
C308 C 0.25023 0.90944 0.36586 0.0
O309 O 0.26252 0.89378 0.35159 0.0
O310 O 0.26496 0.89471 0.37989 0.0
C311 C 0.26971 0.83564 0.31077 0.0
O312 O 0.23158 0.84621 0.317 0.0
C313 C 0.29905 0.8508 0.42234 0.0
C314 C 0.36713 0.84108 0.43038 0.0
C315 C 0.32551 0.84691 0.43658 0.0
N316 N 0.32419 0.84745 0.40837 0.0
N317 N 0.36471 0.8414 0.41334 0.0
C318 C 0.25132 0.85963 0.42201 0.0
H319 H 0.2336 0.82842 0.42309 0.0
H320 H 0.24184 0.88054 0.43289 0.0
H321 H 0.24175 0.87525 0.40989 0.0
C322 C 0.298 0.7547 0.35287 0.0
N323 N 0.30164 0.79654 0.35769 0.0
N324 N 0.30459 0.79834 0.37436 0.0
C325 C 0.30308 0.75767 0.38069 0.0
C326 C 0.29891 0.72864 0.36727 0.0
C327 C 0.29648 0.73997 0.33474 0.0
H328 H 0.32365 0.75491 0.32758 0.0
H329 H 0.26564 0.75108 0.32889 0.0
H330 H 0.29874 0.70415 0.33366 0.0
O331 O 0.36352 0.87644 0.34784 0.0
O332 O 0.36432 0.883 0.3759 0.0
H333 H 0.33788 0.75425 0.40414 0.0
H334 H 0.2973 0.71234 0.40164 0.0
C335 C 0.30491 0.74699 0.39924 0.0
H336 H 0.28144 0.76759 0.40624 0.0
H337 H 0.39093 0.83815 0.40504 0.0
O338 O 0.3027 0.83533 0.32044 0.0
C339 C 0.38115 0.89017 0.36143 0.0
Co340 Co 0.16073 0.32226 0.84431 0.0
Co341 Co 0.16095 0.30876 0.88374 0.0
C342 C 0.10234 0.25671 0.86276 0.0
O343 O 0.11594 0.27705 0.84963 0.0
O344 O 0.11939 0.26297 0.87733 0.0
C345 C 0.17785 0.29117 0.81058 0.0
O346 O 0.18033 0.25315 0.81809 0.0
C347 C 0.16252 0.28225 0.92012 0.0
C348 C 0.19587 0.33922 0.93113 0.0
C349 C 0.17756 0.29963 0.93534 0.0
N350 N 0.17185 0.3104 0.90755 0.0
N351 N 0.19155 0.34438 0.91426 0.0
C352 C 0.14149 0.23909 0.91736 0.0
H353 H 0.1522 0.22518 0.90504 0.0
H354 H 0.14949 0.21628 0.92782 0.0
H355 H 0.10577 0.24352 0.91683 0.0
C356 C 0.25598 0.31343 0.84972 0.0
N357 N 0.21462 0.31293 0.85537 0.0
N358 N 0.21454 0.30465 0.87177 0.0
C359 C 0.25579 0.29787 0.87695 0.0
C360 C 0.2834 0.3037 0.86319 0.0
C361 C 0.26898 0.32281 0.83175 0.0
H362 H 0.24859 0.34925 0.82649 0.0
H363 H 0.26389 0.29325 0.82396 0.0
H364 H 0.30369 0.33201 0.83084 0.0
O365 O 0.13483 0.37778 0.85131 0.0
O366 O 0.12955 0.36376 0.87892 0.0
H367 H 0.27029 0.31835 0.90224 0.0
H368 H 0.30125 0.27225 0.89538 0.0
C369 C 0.26879 0.28774 0.89485 0.0
H370 H 0.24453 0.26595 0.90081 0.0
H371 H 0.20215 0.37114 0.90727 0.0
O372 O 0.16939 0.32458 0.81944 0.0
C373 C 0.12165 0.38781 0.86612 0.0
Co374 Co 0.69285 0.15572 0.34385 0.0
Co375 Co 0.68816 0.14945 0.38367 0.0
C376 C 0.75065 0.09532 0.36447 0.0
O377 O 0.73692 0.11072 0.35035 0.0
O378 O 0.73696 0.10998 0.37867 0.0
C379 C 0.72853 0.1705 0.30961 0.0
O380 O 0.76707 0.16106 0.31574 0.0
C381 C 0.70072 0.15039 0.42144 0.0
C382 C 0.63227 0.15875 0.42922 0.0
C383 C 0.67374 0.15302 0.43557 0.0
N384 N 0.676 0.15428 0.40737 0.0
N385 N 0.63525 0.15955 0.41219 0.0
C386 C 0.74855 0.14214 0.4213 0.0
H387 H 0.75881 0.12767 0.40906 0.0
H388 H 0.76584 0.17345 0.42292 0.0
H389 H 0.75784 0.12046 0.43198 0.0
C390 C 0.69969 0.24953 0.35233 0.0
N391 N 0.69674 0.20746 0.35691 0.0
N392 N 0.69439 0.20497 0.37358 0.0
C393 C 0.69566 0.2454 0.38015 0.0
C394 C 0.699 0.27501 0.3669 0.0
C395 C 0.70059 0.26496 0.33428 0.0
H396 H 0.67373 0.24959 0.32708 0.0
H397 H 0.73163 0.25488 0.32832 0.0
H398 H 0.69739 0.30075 0.33343 0.0
O399 O 0.63589 0.1272 0.34674 0.0
O400 O 0.63753 0.11801 0.37469 0.0
H401 H 0.66198 0.24785 0.40386 0.0
H402 H 0.70251 0.28979 0.40136 0.0
C403 C 0.69473 0.25526 0.39878 0.0
H404 H 0.71847 0.23429 0.40548 0.0
H405 H 0.60925 0.16292 0.40379 0.0
O406 O 0.69572 0.16969 0.31937 0.0
C407 C 0.61988 0.11163 0.36031 0.0
Co408 Co 0.34221 0.81788 0.15228 0.0
Co409 Co 0.34043 0.80709 0.11276 0.0
C410 C 0.40017 0.75385 0.13295 0.0
O411 O 0.38694 0.77307 0.14638 0.0
O412 O 0.38253 0.76114 0.11855 0.0
C413 C 0.32611 0.78615 0.1861 0.0
O414 O 0.32382 0.748 0.17869 0.0
C415 C 0.33532 0.78071 0.07647 0.0
C416 C 0.30666 0.84025 0.06552 0.0
C417 C 0.32137 0.79918 0.06128 0.0
N418 N 0.32888 0.80969 0.08903 0.0
N419 N 0.31191 0.84517 0.08236 0.0
C420 C 0.35244 0.73587 0.07926 0.0
H421 H 0.34219 0.72374 0.09193 0.0
H422 H 0.34081 0.71342 0.0692 0.0
H423 H 0.38844 0.73678 0.07898 0.0
C424 C 0.24671 0.80976 0.14734 0.0
N425 N 0.28786 0.80923 0.14146 0.0
N426 N 0.28724 0.80243 0.12495 0.0
C427 C 0.24571 0.79688 0.1199 0.0
C428 C 0.21866 0.80177 0.13389 0.0
C429 C 0.23452 0.81772 0.1655 0.0
H430 H 0.24067 0.78779 0.17295 0.0
H431 H 0.19972 0.82615 0.16684 0.0
H432 H 0.25469 0.84422 0.17085 0.0
O433 O 0.36777 0.8738 0.1456 0.0
O434 O 0.37176 0.86194 0.1178 0.0
H435 H 0.19835 0.77681 0.10111 0.0
H436 H 0.25441 0.76615 0.09567 0.0
C437 C 0.23199 0.78941 0.10188 0.0
H438 H 0.23333 0.8206 0.09487 0.0
H439 H 0.30383 0.87278 0.08936 0.0
O440 O 0.33423 0.8195 0.17716 0.0
C441 C 0.38016 0.88503 0.13082 0.0
Co442 Co 0.18939 0.34851 0.65125 0.0
Co443 Co 0.18315 0.35515 0.61147 0.0
C444 C 0.24575 0.40966 0.63058 0.0
O445 O 0.23291 0.39375 0.64473 0.0
O446 O 0.2313 0.39543 0.61644 0.0
C447 C 0.22696 0.33582 0.68512 0.0
O448 O 0.26439 0.34772 0.67862 0.0
C449 C 0.19665 0.35344 0.57381 0.0
C450 C 0.12842 0.34567 0.56565 0.0
C451 C 0.17023 0.35053 0.55951 0.0
N452 N 0.17132 0.35044 0.58773 0.0
N453 N 0.1307 0.34561 0.58269 0.0
C454 C 0.2446 0.36096 0.57424 0.0
H455 H 0.25447 0.37604 0.58642 0.0
H456 H 0.2615 0.32931 0.57307 0.0
H457 H 0.25475 0.38185 0.56344 0.0
C458 C 0.19669 0.255 0.64262 0.0
N459 N 0.19348 0.29706 0.63809 0.0
N460 N 0.19053 0.29965 0.62143 0.0
C461 C 0.19165 0.25927 0.61482 0.0
C462 C 0.19553 0.22962 0.62803 0.0
C463 C 0.19792 0.23952 0.66066 0.0
H464 H 0.17093 0.25457 0.6679 0.0
H465 H 0.22887 0.24999 0.6666 0.0
H466 H 0.19514 0.2037 0.66152 0.0
O467 O 0.13202 0.37634 0.64861 0.0
O468 O 0.13182 0.38511 0.62062 0.0
H469 H 0.15697 0.2575 0.59131 0.0
H470 H 0.19687 0.21482 0.59355 0.0
C471 C 0.18978 0.24947 0.5962 0.0
H472 H 0.21364 0.26999 0.58938 0.0
H473 H 0.10433 0.34283 0.59095 0.0
O474 O 0.19357 0.33437 0.67567 0.0
C475 C 0.11481 0.39125 0.63514 0.0
Co476 Co 0.65088 0.18271 0.15124 0.0
Co477 Co 0.6503 0.19233 0.11163 0.0
C478 C 0.59231 0.24671 0.13201 0.0
O479 O 0.60595 0.22748 0.14539 0.0
O480 O 0.60935 0.23924 0.11751 0.0
C481 C 0.66834 0.21582 0.18488 0.0
O482 O 0.66938 0.25386 0.17735 0.0
C483 C 0.64889 0.21325 0.07469 0.0
C484 C 0.67758 0.15272 0.06457 0.0
C485 C 0.65982 0.19204 0.05968 0.0
N486 N 0.65988 0.18738 0.08781 0.0
N487 N 0.67708 0.15142 0.08163 0.0
C488 C 0.62456 0.25493 0.07667 0.0
H489 H 0.59392 0.24858 0.08364 0.0
H490 H 0.64409 0.27776 0.08445 0.0
H491 H 0.61667 0.26993 0.06423 0.0
C492 C 0.74608 0.19056 0.14536 0.0
N493 N 0.70461 0.19069 0.13983 0.0
N494 N 0.70427 0.19688 0.12328 0.0
C495 C 0.74547 0.20236 0.11784 0.0
C496 C 0.77336 0.1981 0.13162 0.0
C497 C 0.75926 0.18379 0.16349 0.0
H498 H 0.75292 0.21399 0.17074 0.0
H499 H 0.79426 0.17601 0.16465 0.0
H500 H 0.73978 0.15725 0.16919 0.0
O501 O 0.62452 0.12657 0.14519 0.0
O502 O 0.61866 0.13834 0.11746 0.0
H503 H 0.75758 0.17781 0.09292 0.0
H504 H 0.79113 0.22324 0.09857 0.0
C505 C 0.75803 0.20941 0.09966 0.0
H506 H 0.7344 0.23141 0.09342 0.0
H507 H 0.68767 0.12553 0.08912 0.0
O508 O 0.66044 0.18213 0.1761 0.0
C509 C 0.61089 0.11542 0.13057 0.0
Co510 Co 0.79576 0.64849 0.65168 0.0
Co511 Co 0.80407 0.64504 0.6119 0.0
C512 C 0.74055 0.58899 0.62975 0.0
O513 O 0.75268 0.60377 0.64418 0.0
O514 O 0.75567 0.60437 0.6159 0.0
C515 C 0.79646 0.62947 0.6866 0.0
O516 O 0.80297 0.59024 0.68056 0.0
C517 C 0.793 0.64943 0.57417 0.0
C518 C 0.86167 0.65841 0.5668 0.0
C519 C 0.82033 0.65356 0.56019 0.0
N520 N 0.81737 0.65174 0.58837 0.0
N521 N 0.85826 0.65734 0.58381 0.0
C522 C 0.74513 0.64138 0.574 0.0
H523 H 0.72797 0.67292 0.57293 0.0
H524 H 0.73596 0.62104 0.56292 0.0
H525 H 0.73458 0.62548 0.58593 0.0
C526 C 0.78909 0.74265 0.64419 0.0
N527 N 0.79236 0.70098 0.63915 0.0
N528 N 0.79618 0.69972 0.6225 0.0
C529 C 0.79558 0.74062 0.6164 0.0
C530 C 0.79119 0.76922 0.62994 0.0
C531 C 0.78705 0.75651 0.66242 0.0
H532 H 0.81487 0.74227 0.66944 0.0
H533 H 0.75684 0.74374 0.66824 0.0
H534 H 0.7879 0.79234 0.66376 0.0
O535 O 0.8534 0.62105 0.64918 0.0
O536 O 0.85479 0.61422 0.62112 0.0
H537 H 0.83168 0.74461 0.59327 0.0
H538 H 0.79122 0.78669 0.59564 0.0
C539 C 0.79849 0.75192 0.59793 0.0
H540 H 0.77528 0.73172 0.59062 0.0
H541 H 0.88404 0.65979 0.59237 0.0
O542 O 0.78981 0.66039 0.67624 0.0
C543 C 0.87115 0.60703 0.63568 0.0
C544 C 0.19143 0.33548 0.20936 0.0
C545 C 0.18249 0.29374 0.20314 0.0
C546 C 0.20317 0.34209 0.22639 0.0
C547 C 0.20594 0.30612 0.23751 0.0
C548 C 0.19791 0.26378 0.23125 0.0
C549 C 0.18631 0.25807 0.21411 0.0
C550 C 0.21147 0.38776 0.23258 0.0
C551 C 0.20047 0.22466 0.24277 0.0
C552 C 0.26328 0.32271 0.27992 0.0
C553 C 0.22803 0.33038 0.2908 0.0
C554 C 0.25667 0.31412 0.26253 0.0
C555 C 0.21387 0.31334 0.25595 0.0
C556 C 0.17825 0.32085 0.26689 0.0
C557 C 0.18575 0.32921 0.28414 0.0
C558 C 0.2954 0.30616 0.2512 0.0
C559 C 0.13211 0.32051 0.26035 0.0
H560 H 0.18898 0.36323 0.20094 0.0
H561 H 0.17968 0.22571 0.20939 0.0
H562 H 0.18658 0.39688 0.24213 0.0
H563 H 0.24356 0.38967 0.23894 0.0
H564 H 0.21064 0.41187 0.22208 0.0
H565 H 0.19618 0.19373 0.2357 0.0
H566 H 0.23224 0.22387 0.24941 0.0
H567 H 0.17493 0.22681 0.25268 0.0
H568 H 0.29601 0.32339 0.28496 0.0
H569 H 0.15823 0.33504 0.29242 0.0
H570 H 0.29675 0.33126 0.2411 0.0
H571 H 0.29219 0.27426 0.24478 0.0
H572 H 0.32647 0.30671 0.25837 0.0
H573 H 0.12795 0.34609 0.25056 0.0
H574 H 0.10798 0.32608 0.27062 0.0
H575 H 0.1249 0.28893 0.2542 0.0
C576 C 0.69576 0.1672 0.7852 0.0
C577 C 0.68858 0.20902 0.79169 0.0
C578 C 0.70621 0.16076 0.76805 0.0
C579 C 0.70952 0.19698 0.75708 0.0
C580 C 0.70329 0.23936 0.76359 0.0
C581 C 0.69289 0.2449 0.78086 0.0
C582 C 0.71255 0.11503 0.76157 0.0
C583 C 0.70652 0.27874 0.75224 0.0
C584 C 0.76369 0.17858 0.71419 0.0
C585 C 0.72755 0.172 0.70365 0.0
C586 C 0.75842 0.18767 0.7316 0.0
C587 C 0.71608 0.19003 0.73856 0.0
C588 C 0.67956 0.18388 0.72794 0.0
C589 C 0.68573 0.17502 0.71065 0.0
C590 C 0.79807 0.19419 0.74258 0.0
C591 C 0.63386 0.18595 0.73488 0.0
H592 H 0.69288 0.13927 0.7935 0.0
H593 H 0.68762 0.27731 0.78579 0.0
H594 H 0.68683 0.10711 0.75219 0.0
H595 H 0.74419 0.11219 0.75493 0.0
H596 H 0.71144 0.09061 0.77195 0.0
H597 H 0.7038 0.30956 0.75949 0.0
H598 H 0.73786 0.2786 0.7453 0.0
H599 H 0.68029 0.27783 0.74257 0.0
H600 H 0.79607 0.17651 0.70887 0.0
H601 H 0.65754 0.17011 0.70263 0.0
H602 H 0.79944 0.16862 0.7525 0.0
H603 H 0.79612 0.22588 0.74924 0.0
H604 H 0.82863 0.19314 0.7351 0.0
H605 H 0.62921 0.16023 0.74459 0.0
H606 H 0.60894 0.18171 0.7248 0.0
H607 H 0.6283 0.21759 0.74125 0.0
C608 C 0.80782 0.67667 0.28509 0.0
C609 C 0.76574 0.67266 0.29175 0.0
C610 C 0.81468 0.68495 0.2678 0.0
C611 C 0.77859 0.68948 0.25683 0.0
C612 C 0.73596 0.68598 0.26344 0.0
C613 C 0.73001 0.67753 0.28086 0.0
C614 C 0.86066 0.68826 0.26123 0.0
C615 C 0.69675 0.69076 0.25208 0.0
C616 C 0.80246 0.74424 0.21459 0.0
C617 C 0.80872 0.70832 0.20391 0.0
C618 C 0.79115 0.73868 0.23175 0.0
C619 C 0.78597 0.69624 0.23835 0.0
C620 C 0.79121 0.65994 0.22753 0.0
C621 C 0.80255 0.66641 0.21046 0.0
C622 C 0.78586 0.77815 0.24294 0.0
C623 C 0.78604 0.61416 0.23409 0.0
H624 H 0.8357 0.67306 0.29338 0.0
H625 H 0.69742 0.67466 0.28593 0.0
H626 H 0.86665 0.66251 0.25165 0.0
H627 H 0.8656 0.71993 0.25481 0.0
H628 H 0.88515 0.685 0.27153 0.0
H629 H 0.66581 0.68865 0.25929 0.0
H630 H 0.69787 0.72238 0.24536 0.0
H631 H 0.69697 0.66499 0.24222 0.0
H632 H 0.80693 0.77672 0.2096 0.0
H633 H 0.80694 0.63845 0.20228 0.0
H634 H 0.81154 0.77835 0.25284 0.0
H635 H 0.75415 0.77706 0.24961 0.0
H636 H 0.78793 0.8089 0.23562 0.0
H637 H 0.8115 0.60727 0.24371 0.0
H638 H 0.78852 0.5896 0.2238 0.0
H639 H 0.75417 0.6104 0.24048 0.0
C640 C 0.30672 0.82826 0.78757 0.0
C641 C 0.35075 0.82196 0.79147 0.0
C642 C 0.29313 0.83571 0.77079 0.0
C643 C 0.32428 0.83662 0.75759 0.0
C644 C 0.36864 0.82932 0.76137 0.0
C645 C 0.38136 0.82219 0.77829 0.0
C646 C 0.24558 0.8435 0.76725 0.0
C647 C 0.40275 0.82973 0.74758 0.0
C648 C 0.28982 0.82188 0.7116 0.0
C649 C 0.29184 0.86462 0.70547 0.0
C650 C 0.29931 0.81236 0.72865 0.0
C651 C 0.31078 0.84642 0.73985 0.0
C652 C 0.31107 0.8898 0.73393 0.0
C653 C 0.30168 0.89837 0.7168 0.0
C654 C 0.29862 0.7657 0.73451 0.0
C655 C 0.32271 0.92704 0.74556 0.0
H656 H 0.28279 0.82817 0.79767 0.0
H657 H 0.41539 0.8172 0.78118 0.0
H658 H 0.24101 0.87659 0.76199 0.0
H659 H 0.23367 0.82022 0.75756 0.0
H660 H 0.2253 0.84024 0.77887 0.0
H661 H 0.4356 0.82191 0.75255 0.0
H662 H 0.39433 0.8059 0.73753 0.0
H663 H 0.40386 0.8622 0.7415 0.0
H664 H 0.28221 0.79558 0.70294 0.0
H665 H 0.30314 0.93149 0.71219 0.0
H666 H 0.27771 0.76224 0.74591 0.0
H667 H 0.33185 0.75554 0.73822 0.0
H668 H 0.28663 0.74331 0.72448 0.0
H669 H 0.302 0.92643 0.7571 0.0
H670 H 0.31892 0.95907 0.73924 0.0
H671 H 0.35688 0.92367 0.74982 0.0
C672 C 0.81536 0.67454 0.78695 0.0
C673 C 0.85934 0.67723 0.79152 0.0
C674 C 0.80284 0.66802 0.76999 0.0
C675 C 0.83506 0.6643 0.75727 0.0
C676 C 0.87947 0.66784 0.76172 0.0
C677 C 0.8911 0.67416 0.77881 0.0
C678 C 0.75517 0.66426 0.76575 0.0
C679 C 0.91474 0.6643 0.74845 0.0
C680 C 0.80928 0.60411 0.71638 0.0
C681 C 0.80246 0.63839 0.70495 0.0
C682 C 0.8191 0.61212 0.73352 0.0
C683 C 0.82239 0.65545 0.73935 0.0
C684 C 0.81445 0.6902 0.728 0.0
C685 C 0.80442 0.68126 0.71094 0.0
C686 C 0.82689 0.57419 0.7453 0.0
C687 C 0.8177 0.73683 0.73376 0.0
H688 H 0.79054 0.67684 0.79667 0.0
H689 H 0.92512 0.67632 0.78222 0.0
H690 H 0.74619 0.6885 0.75593 0.0
H691 H 0.74834 0.63169 0.76037 0.0
H692 H 0.73413 0.6692 0.77707 0.0
H693 H 0.94763 0.66933 0.7539 0.0
H694 H 0.91364 0.63176 0.74242 0.0
H695 H 0.90936 0.6886 0.73826 0.0
H696 H 0.80769 0.57091 0.71187 0.0
H697 H 0.79927 0.70795 0.70219 0.0
H698 H 0.80517 0.57642 0.75652 0.0
H699 H 0.86077 0.57507 0.75008 0.0
H700 H 0.82136 0.54249 0.73894 0.0
H701 H 0.79592 0.74253 0.74477 0.0
H702 H 0.80909 0.76007 0.7235 0.0
H703 H 0.8513 0.74379 0.73806 0.0
C704 C 0.31586 0.81103 0.28656 0.0
C705 C 0.27514 0.82454 0.29257 0.0
C706 C 0.32267 0.80235 0.26928 0.0
C707 C 0.28792 0.8072 0.25769 0.0
C708 C 0.24639 0.81962 0.26369 0.0
C709 C 0.24047 0.82817 0.2811 0.0
C710 C 0.36745 0.78917 0.26338 0.0
C711 C 0.20856 0.82496 0.25167 0.0
C712 C 0.31961 0.83203 0.21215 0.0
C713 C 0.31613 0.79116 0.20441 0.0
C714 C 0.30977 0.83776 0.22941 0.0
C715 C 0.29598 0.80176 0.23918 0.0
C716 C 0.29196 0.76048 0.23144 0.0
C717 C 0.30219 0.75563 0.21413 0.0
C718 C 0.31473 0.88227 0.23723 0.0
C719 C 0.27726 0.7214 0.24149 0.0
H720 H 0.34281 0.80776 0.29533 0.0
H721 H 0.20889 0.83841 0.28566 0.0
H722 H 0.36576 0.75843 0.25607 0.0
H723 H 0.38073 0.81434 0.25473 0.0
H724 H 0.39041 0.78473 0.27413 0.0
H725 H 0.17777 0.83202 0.25848 0.0
H726 H 0.21524 0.85193 0.24269 0.0
H727 H 0.20418 0.79512 0.24397 0.0
H728 H 0.33025 0.85971 0.20474 0.0
H729 H 0.29916 0.724 0.20822 0.0
H730 H 0.33952 0.88124 0.24746 0.0
H731 H 0.28371 0.89257 0.24315 0.0
H732 H 0.32456 0.90713 0.22775 0.0
H733 H 0.3008 0.71455 0.25182 0.0
H734 H 0.27413 0.69195 0.23343 0.0
H735 H 0.24548 0.72807 0.24758 0.0
C736 C 0.25791 0.33004 0.71457 0.0
C737 C 0.22267 0.32538 0.70343 0.0
C738 C 0.25308 0.32237 0.7321 0.0
C739 C 0.21205 0.30983 0.73857 0.0
C740 C 0.17671 0.30397 0.72731 0.0
C741 C 0.18246 0.31174 0.70991 0.0
C742 C 0.29153 0.32873 0.74374 0.0
C743 C 0.13244 0.29065 0.73372 0.0
C744 C 0.20099 0.25997 0.78257 0.0
C745 C 0.18719 0.29573 0.79219 0.0
C746 C 0.21016 0.26422 0.76514 0.0
C747 C 0.20517 0.30512 0.75719 0.0
C748 C 0.19161 0.34138 0.76687 0.0
C749 C 0.18287 0.33626 0.78425 0.0
C750 C 0.22469 0.22488 0.75521 0.0
C751 C 0.18566 0.38549 0.75881 0.0
H752 H 0.28911 0.3404 0.70967 0.0
H753 H 0.15507 0.30773 0.70139 0.0
H754 H 0.28504 0.35604 0.75257 0.0
H755 H 0.29672 0.29931 0.75161 0.0
H756 H 0.32183 0.33582 0.7366 0.0
H757 H 0.10888 0.28553 0.72321 0.0
H758 H 0.13487 0.26025 0.74121 0.0
H759 H 0.11943 0.31608 0.74231 0.0
H760 H 0.20466 0.2286 0.78863 0.0
H761 H 0.17232 0.36411 0.79159 0.0
H762 H 0.25595 0.23168 0.74874 0.0
H763 H 0.20054 0.21726 0.74518 0.0
H764 H 0.22878 0.19584 0.76343 0.0
H765 H 0.21617 0.39586 0.75253 0.0
H766 H 0.17615 0.41065 0.76822 0.0
H767 H 0.16023 0.38376 0.74884 0.0
C768 C 0.75711 0.17911 0.27988 0.0
C769 C 0.72241 0.18123 0.2914 0.0
C770 C 0.75063 0.18715 0.26246 0.0
C771 C 0.70851 0.19749 0.25647 0.0
C772 C 0.67367 0.20083 0.26811 0.0
C773 C 0.68105 0.19272 0.2854 0.0
C774 C 0.78859 0.1835 0.25041 0.0
C775 C 0.62827 0.21176 0.26223 0.0
C776 C 0.69142 0.24773 0.21281 0.0
C777 C 0.67903 0.21147 0.20318 0.0
C778 C 0.70204 0.24361 0.23012 0.0
C779 C 0.70005 0.20228 0.23795 0.0
C780 C 0.68791 0.16555 0.22825 0.0
C781 C 0.67761 0.17057 0.211 0.0
C782 C 0.71491 0.28348 0.24007 0.0
C783 C 0.68519 0.12096 0.23617 0.0
H784 H 0.78918 0.17044 0.28442 0.0
H785 H 0.65405 0.19479 0.2942 0.0
H786 H 0.78316 0.15611 0.2415 0.0
H787 H 0.79144 0.21341 0.24264 0.0
H788 H 0.81974 0.17805 0.2572 0.0
H789 H 0.60521 0.21524 0.27301 0.0
H790 H 0.62842 0.24244 0.25486 0.0
H791 H 0.61614 0.18585 0.25366 0.0
H792 H 0.69283 0.2794 0.20684 0.0
H793 H 0.66822 0.14232 0.20366 0.0
H794 H 0.74698 0.2784 0.24618 0.0
H795 H 0.69109 0.28939 0.25039 0.0
H796 H 0.71666 0.31292 0.23194 0.0
H797 H 0.71671 0.11226 0.24208 0.0
H798 H 0.67652 0.09552 0.22675 0.0
H799 H 0.66043 0.12091 0.24641 0.0
C800 C 0.13567 0.32566 0.02978 0.0
C801 C 0.14946 0.29455 0.04157 0.0
C802 C 0.13618 0.31702 0.01232 0.0
C803 C 0.15108 0.27619 0.00648 0.0
C804 C 0.16221 0.2435 0.01838 0.0
C805 C 0.16157 0.25319 0.03587 0.0
C806 C 0.12384 0.35285 0.00012 0.0
C807 C 0.17762 0.19941 0.01265 0.0
C808 C 0.13458 0.26555 0.95893 0.0
C809 C 0.17358 0.2833 0.95294 0.0
C810 C 0.12797 0.25895 0.97644 0.0
C811 C 0.16095 0.27094 0.98808 0.0
C812 C 0.20159 0.28547 0.98191 0.0
C813 C 0.20732 0.29154 0.96442 0.0
C814 C 0.0845 0.24264 0.98251 0.0
C815 C 0.23779 0.29843 0.99384 0.0
H816 H 0.12608 0.35758 0.03422 0.0
H817 H 0.17296 0.2293 0.04495 0.0
H818 H 0.15316 0.36403 0.99319 0.0
H819 H 0.10038 0.34075 0.99053 0.0
H820 H 0.10925 0.38118 0.00673 0.0
H821 H 0.17592 0.1752 0.0231 0.0
H822 H 0.15809 0.18755 0.00174 0.0
H823 H 0.21185 0.20175 0.00837 0.0
H824 H 0.10813 0.25969 0.95014 0.0
H825 H 0.23763 0.30495 0.95977 0.0
H826 H 0.06472 0.27045 0.987 0.0
H827 H 0.08842 0.21991 0.99335 0.0
H828 H 0.06636 0.226 0.97218 0.0
H829 H 0.2287 0.32876 0.00057 0.0
H830 H 0.26883 0.30413 0.987 0.0
H831 H 0.24311 0.27303 0.0036 0.0
C832 C 0.71963 0.17071 0.46105 0.0
C833 C 0.68414 0.14901 0.45384 0.0
C834 C 0.72518 0.172 0.47881 0.0
C835 C 0.69444 0.15119 0.48944 0.0
C836 C 0.66012 0.12709 0.48209 0.0
C837 C 0.6553 0.12653 0.4644 0.0
C838 C 0.76227 0.19784 0.48618 0.0
C839 C 0.6268 0.10408 0.49293 0.0
C840 C 0.70568 0.13129 0.53685 0.0
C841 C 0.67818 0.16351 0.54335 0.0
C842 C 0.7141 0.12861 0.5193 0.0
C843 C 0.69429 0.1587 0.50812 0.0
C844 C 0.66874 0.19287 0.5148 0.0
C845 C 0.66082 0.19468 0.53232 0.0
C846 C 0.74164 0.09183 0.51267 0.0
C847 C 0.64722 0.22584 0.50335 0.0
H848 H 0.74163 0.18867 0.45293 0.0
H849 H 0.62803 0.10943 0.45882 0.0
H850 H 0.74963 0.2287 0.4915 0.0
H851 H 0.77801 0.17984 0.49673 0.0
H852 H 0.78715 0.20572 0.47643 0.0
H853 H 0.60466 0.08346 0.48524 0.0
H854 H 0.64302 0.08337 0.50256 0.0
H855 H 0.60697 0.12837 0.49987 0.0
H856 H 0.71856 0.10665 0.54527 0.0
H857 H 0.63978 0.21979 0.53736 0.0
H858 H 0.76422 0.10348 0.50267 0.0
H859 H 0.72037 0.06692 0.50681 0.0
H860 H 0.76076 0.07618 0.52296 0.0
H861 H 0.67103 0.23942 0.49421 0.0
H862 H 0.63252 0.25299 0.51064 0.0
H863 H 0.62125 0.20981 0.49585 0.0
C864 C 0.87167 0.74231 0.96072 0.0
C865 C 0.83459 0.72187 0.95419 0.0
C866 C 0.87591 0.74978 0.97829 0.0
C867 C 0.84248 0.73605 0.98942 0.0
C868 C 0.80349 0.71895 0.98264 0.0
C869 C 0.80014 0.71195 0.96511 0.0
C870 C 0.91761 0.76885 0.98501 0.0
C871 C 0.76681 0.7042 0.994 0.0
C872 C 0.86548 0.68288 0.03158 0.0
C873 C 0.84836 0.71314 0.04302 0.0
C874 C 0.86703 0.69161 0.01414 0.0
C875 C 0.85067 0.73157 0.00797 0.0
C876 C 0.83624 0.76359 0.0196 0.0
C877 C 0.83501 0.75387 0.03708 0.0
C878 C 0.88297 0.65656 0.00224 0.0
C879 C 0.81914 0.80676 0.01354 0.0
H880 H 0.8986 0.7496 0.95234 0.0
H881 H 0.77128 0.69652 0.96002 0.0
H882 H 0.91119 0.79131 0.99575 0.0
H883 H 0.93866 0.74235 0.98983 0.0
H884 H 0.93566 0.78656 0.97493 0.0
H885 H 0.73691 0.69662 0.98668 0.0
H886 H 0.77685 0.67456 0.001 0.0
H887 H 0.75901 0.72946 0.00357 0.0
H888 H 0.876 0.65146 0.03624 0.0
H889 H 0.82115 0.77706 0.04591 0.0
H890 H 0.90668 0.67004 0.99304 0.0
H891 H 0.85522 0.64349 0.99483 0.0
H892 H 0.89856 0.62926 0.00916 0.0
H893 H 0.83902 0.8195 0.00288 0.0
H894 H 0.81863 0.83114 0.02395 0.0
H895 H 0.78549 0.80261 0.00879 0.0
C896 C 0.34346 0.87054 0.46585 0.0
C897 C 0.31448 0.84972 0.45482 0.0
C898 C 0.3376 0.86908 0.48347 0.0
C899 C 0.30201 0.84582 0.49028 0.0
C900 C 0.27133 0.82652 0.47919 0.0
C901 C 0.27799 0.82862 0.46151 0.0
C902 C 0.37094 0.89042 0.49483 0.0
C903 C 0.23294 0.80158 0.48599 0.0
C904 C 0.33026 0.8003 0.53344 0.0
C905 C 0.31295 0.83182 0.54432 0.0
C906 C 0.32405 0.80276 0.51582 0.0
C907 C 0.30032 0.83792 0.50891 0.0
C908 C 0.28057 0.86848 0.51991 0.0
C909 C 0.28726 0.86516 0.53754 0.0
C910 C 0.34547 0.76931 0.50456 0.0
C911 C 0.25496 0.90635 0.51302 0.0
H912 H 0.37155 0.88713 0.46066 0.0
H913 H 0.25593 0.81183 0.45305 0.0
H914 H 0.35479 0.91151 0.50435 0.0
H915 H 0.38919 0.86516 0.5019 0.0
H916 H 0.39451 0.91034 0.48752 0.0
H917 H 0.20872 0.79447 0.4759 0.0
H918 H 0.24428 0.77035 0.49144 0.0
H919 H 0.21679 0.8199 0.49636 0.0
H920 H 0.34995 0.77438 0.53868 0.0
H921 H 0.27452 0.89011 0.54585 0.0
H922 H 0.37267 0.78459 0.4975 0.0
H923 H 0.32209 0.75679 0.49502 0.0
H924 H 0.35851 0.7415 0.51195 0.0
H925 H 0.2776 0.93047 0.50745 0.0
H926 H 0.23568 0.92265 0.5231 0.0
H927 H 0.23272 0.89564 0.50274 0.0
C928 C 0.63799 0.17419 0.03023 0.0
C929 C 0.6531 0.20515 0.04183 0.0
C930 C 0.6382 0.18241 0.01274 0.0
C931 C 0.65427 0.22257 0.00667 0.0
C932 C 0.66697 0.25511 0.01839 0.0
C933 C 0.66647 0.2459 0.03591 0.0
C934 C 0.62415 0.14679 0.00073 0.0
C935 C 0.68384 0.29845 0.01241 0.0
C936 C 0.70817 0.20489 0.96425 0.0
C937 C 0.6744 0.21466 0.95296 0.0
C938 C 0.70331 0.21106 0.98178 0.0
C939 C 0.66351 0.22716 0.98819 0.0
C940 C 0.63058 0.24045 0.97675 0.0
C941 C 0.63633 0.23383 0.95919 0.0
C942 C 0.73945 0.19668 0.99349 0.0
C943 C 0.58796 0.25831 0.98308 0.0
H944 H 0.6275 0.14273 0.03485 0.0
H945 H 0.67888 0.26961 0.04486 0.0
H946 H 0.60089 0.15955 0.99119 0.0
H947 H 0.65281 0.13432 0.99371 0.0
H948 H 0.60868 0.11921 0.00751 0.0
H949 H 0.68388 0.32285 0.02282 0.0
H950 H 0.71762 0.2946 0.00777 0.0
H951 H 0.66408 0.31099 0.00168 0.0
H952 H 0.73776 0.19037 0.95942 0.0
H953 H 0.60987 0.24088 0.95054 0.0
H954 H 0.72946 0.16672 0.00028 0.0
H955 H 0.7461 0.22185 0.00323 0.0
H956 H 0.76998 0.18981 0.98648 0.0
H957 H 0.56752 0.23126 0.98782 0.0
H958 H 0.56986 0.27534 0.97284 0.0
H959 H 0.59316 0.28111 0.99382 0.0
C960 C 0.83963 0.63112 0.53091 0.0
C961 C 0.81028 0.65175 0.54183 0.0
C962 C 0.83462 0.63329 0.51324 0.0
C963 C 0.79952 0.65706 0.5063 0.0
C964 C 0.76851 0.67625 0.51727 0.0
C965 C 0.77432 0.67346 0.53498 0.0
C966 C 0.86832 0.61207 0.50202 0.0
C967 C 0.73063 0.70174 0.51033 0.0
C968 C 0.83017 0.70336 0.46354 0.0
C969 C 0.81329 0.67214 0.45242 0.0
C970 C 0.82299 0.70062 0.48109 0.0
C971 C 0.79868 0.66548 0.4877 0.0
C972 C 0.77926 0.63532 0.47644 0.0
C973 C 0.78695 0.63891 0.45888 0.0
C974 C 0.84407 0.73366 0.49264 0.0
C975 C 0.75302 0.59752 0.483 0.0
H976 H 0.86731 0.61407 0.5362 0.0
H977 H 0.752 0.69014 0.54337 0.0
H978 H 0.85245 0.59131 0.49232 0.0
H979 H 0.88697 0.63741 0.49516 0.0
H980 H 0.89149 0.59185 0.5094 0.0
H981 H 0.706 0.70869 0.52028 0.0
H982 H 0.74245 0.73306 0.50514 0.0
H983 H 0.71482 0.68391 0.49975 0.0
H984 H 0.85035 0.72922 0.45855 0.0
H985 H 0.77452 0.61419 0.45038 0.0
H986 H 0.8709 0.71806 0.49981 0.0
H987 H 0.82035 0.74605 0.50207 0.0
H988 H 0.85755 0.7616 0.48544 0.0
H989 H 0.77518 0.57305 0.48863 0.0
H990 H 0.73405 0.58166 0.47271 0.0
H991 H 0.7304 0.60817 0.49315 0.0
C992 C 0.29133 0.79496 0.03211 0.0
C993 C 0.3236 0.78255 0.04367 0.0
C994 C 0.29666 0.78855 0.01461 0.0
C995 C 0.33532 0.7692 0.00852 0.0
C996 C 0.36624 0.75293 0.02023 0.0
C997 C 0.36021 0.76014 0.03773 0.0
C998 C 0.26273 0.80631 0.00261 0.0
C999 C 0.4074 0.73127 0.01424 0.0
C1000 C 0.33499 0.75337 0.96061 0.0
C1001 C 0.35308 0.79282 0.95525 0.0
C1002 C 0.33183 0.74337 0.97803 0.0
C1003 C 0.34645 0.77389 0.99022 0.0
C1004 C 0.36701 0.81254 0.98477 0.0
C1005 C 0.37008 0.82143 0.96738 0.0
C1006 C 0.31045 0.70149 0.98335 0.0
C1007 C 0.38314 0.84607 0.9973 0.0
H1008 H 0.2628 0.81194 0.03669 0.0
H1009 H 0.38563 0.75101 0.04655 0.0
H1010 H 0.27573 0.8355 0.99609 0.0
H1011 H 0.25461 0.78211 0.99267 0.0
H1012 H 0.23242 0.81559 0.00935 0.0
H1013 H 0.42296 0.71219 0.02457 0.0
H1014 H 0.40085 0.70949 0.0033 0.0
H1015 H 0.43073 0.75639 0.00994 0.0
H1016 H 0.32112 0.73141 0.95133 0.0
H1017 H 0.38448 0.85177 0.96326 0.0
H1018 H 0.27652 0.70812 0.98729 0.0
H1019 H 0.32751 0.68688 0.99438 0.0
H1020 H 0.30973 0.67756 0.97278 0.0
H1021 H 0.35517 0.86031 0.00423 0.0
H1022 H 0.40119 0.87279 0.99099 0.0
H1023 H 0.40473 0.83079 0.00687 0.0
C1024 C 0.21775 0.33134 0.53464 0.0
C1025 C 0.18149 0.35301 0.54127 0.0
C1026 C 0.22448 0.3289 0.51697 0.0
C1027 C 0.19407 0.34833 0.50581 0.0
C1028 C 0.15876 0.37218 0.51254 0.0
C1029 C 0.15286 0.37406 0.53016 0.0
C1030 C 0.26262 0.3034 0.51026 0.0
C1031 C 0.12565 0.39364 0.50111 0.0
C1032 C 0.20819 0.36615 0.45841 0.0
C1033 C 0.18203 0.33289 0.45186 0.0
C1034 C 0.21535 0.36985 0.47601 0.0
C1035 C 0.19553 0.3398 0.48721 0.0
C1036 C 0.1714 0.30463 0.48052 0.0
C1037 C 0.16482 0.30175 0.46293 0.0
C1038 C 0.2415 0.40761 0.48266 0.0
C1039 C 0.14987 0.27173 0.49199 0.0
H1040 H 0.23954 0.31434 0.54315 0.0
H1041 H 0.12497 0.3911 0.53528 0.0
H1042 H 0.25102 0.27199 0.50508 0.0
H1043 H 0.27876 0.32113 0.49973 0.0
H1044 H 0.28693 0.29662 0.52036 0.0
H1045 H 0.10231 0.41399 0.50835 0.0
H1046 H 0.14203 0.41432 0.49152 0.0
H1047 H 0.10712 0.36842 0.49412 0.0
H1048 H 0.2209 0.39081 0.44996 0.0
H1049 H 0.1448 0.27584 0.45787 0.0
H1050 H 0.26364 0.39702 0.49299 0.0
H1051 H 0.21922 0.43228 0.48809 0.0
H1052 H 0.26096 0.42322 0.47246 0.0
H1053 H 0.17328 0.25926 0.50152 0.0
H1054 H 0.13643 0.24383 0.48475 0.0
H1055 H 0.12293 0.28748 0.49904 0.0
C1056 C 0.08233 0.45718 0.14068 0.0
C1057 C 0.08051 0.42233 0.12927 0.0
C1058 C 0.05021 0.48953 0.14052 0.0
C1059 C 0.01482 0.48595 0.12909 0.0
C1060 C 0.01298 0.45087 0.11752 0.0
C1061 C 0.04622 0.41986 0.11757 0.0
C1062 C 0.05391 0.52728 0.15268 0.0
C1063 C 0.97522 0.4453 0.10544 0.0
C1064 C 0.91158 0.54642 0.14082 0.0
C1065 C 0.91349 0.58202 0.12978 0.0
C1066 C 0.94389 0.51427 0.14047 0.0
C1067 C 0.97956 0.51881 0.12923 0.0
C1068 C 0.98155 0.55472 0.11806 0.0
C1069 C 0.94813 0.58552 0.11828 0.0
C1070 C 0.94005 0.47567 0.15219 0.0
C1071 C 0.01961 0.5613 0.10622 0.0
H1072 H 0.10879 0.45904 0.14975 0.0
H1073 H 0.04428 0.39252 0.10892 0.0
H1074 H 0.05213 0.55835 0.14557 0.0
H1075 H 0.02636 0.52682 0.16175 0.0
H1076 H 0.0847 0.52657 0.16003 0.0
H1077 H 0.97856 0.41594 0.09735 0.0
H1078 H 0.94454 0.44277 0.11277 0.0
H1079 H 0.97231 0.47408 0.09705 0.0
H1080 H 0.88486 0.54378 0.14973 0.0
H1081 H 0.95012 0.61345 0.10993 0.0
H1082 H 0.9675 0.47545 0.16132 0.0
H1083 H 0.94191 0.44513 0.14475 0.0
H1084 H 0.90918 0.47584 0.15949 0.0
H1085 H 0.05011 0.56324 0.11369 0.0
H1086 H 0.01644 0.59132 0.09849 0.0
H1087 H 0.02274 0.53324 0.09747 0.0
C1088 C 0.40894 0.94892 0.65423 0.0
C1089 C 0.41272 0.91537 0.64226 0.0
C1090 C 0.44028 0.98178 0.65526 0.0
C1091 C 0.47678 0.98029 0.64436 0.0
C1092 C 0.48214 0.94496 0.63302 0.0
C1093 C 0.44965 0.91322 0.63192 0.0
C1094 C 0.43299 0.01936 0.66725 0.0
C1095 C 0.52135 0.94159 0.62157 0.0
C1096 C 0.53551 0.08242 0.63053 0.0
C1097 C 0.57211 0.08165 0.64109 0.0
C1098 C 0.50308 0.05071 0.63205 0.0
C1099 C 0.50817 0.01681 0.64407 0.0
C1100 C 0.54441 0.01665 0.6551 0.0
C1101 C 0.57569 0.04945 0.65363 0.0
C1102 C 0.46415 0.05263 0.6204 0.0
C1103 C 0.55146 0.98053 0.66779 0.0
H1104 H 0.38011 0.95101 0.6621 0.0
H1105 H 0.45263 0.88725 0.62268 0.0
H1106 H 0.46221 0.02506 0.67518 0.0
H1107 H 0.42718 0.04936 0.65977 0.0
H1108 H 0.40474 0.01398 0.67577 0.0
H1109 H 0.52271 0.91004 0.61476 0.0
H1110 H 0.52056 0.96803 0.612 0.0
H1111 H 0.55158 0.94554 0.62909 0.0
H1112 H 0.53268 0.10733 0.62085 0.0
H1113 H 0.60425 0.0484 0.66168 0.0
H1114 H 0.43374 0.04975 0.62788 0.0
H1115 H 0.46509 0.02496 0.61139 0.0
H1116 H 0.46302 0.08324 0.61295 0.0
H1117 H 0.52217 0.976 0.67579 0.0
H1118 H 0.5797 0.98678 0.67623 0.0
H1119 H 0.5571 0.94961 0.6609 0.0
C1120 C 0.42388 0.95383 0.8556 0.0
C1121 C 0.42759 0.91691 0.86586 0.0
C1122 C 0.45634 0.98586 0.85574 0.0
C1123 C 0.49394 0.97977 0.86587 0.0
C1124 C 0.49799 0.94217 0.87605 0.0
C1125 C 0.46441 0.91158 0.87614 0.0
C1126 C 0.4504 0.02621 0.8451 0.0
C1127 C 0.53815 0.9338 0.88659 0.0
C1128 C 0.59415 0.04453 0.85369 0.0
C1129 C 0.59377 0.0774 0.866 0.0
C1130 C 0.56242 0.01181 0.85374 0.0
C1131 C 0.52886 0.01297 0.86605 0.0
C1132 C 0.52862 0.04586 0.87859 0.0
C1133 C 0.56145 0.0773 0.87857 0.0
C1134 C 0.56448 0.97637 0.8405 0.0
C1135 C 0.49288 0.04873 0.8917 0.0
H1136 H 0.39548 0.95778 0.84761 0.0
H1137 H 0.46773 0.88253 0.88383 0.0
H1138 H 0.45282 0.05547 0.85328 0.0
H1139 H 0.47657 0.02842 0.83546 0.0
H1140 H 0.41858 0.02671 0.83845 0.0
H1141 H 0.53685 0.90209 0.89329 0.0
H1142 H 0.56734 0.93428 0.87833 0.0
H1143 H 0.54224 0.95985 0.89619 0.0
H1144 H 0.61907 0.0446 0.84396 0.0
H1145 H 0.5606 0.10308 0.88795 0.0
H1146 H 0.5356 0.9782 0.83211 0.0
H1147 H 0.56394 0.94408 0.84675 0.0
H1148 H 0.59409 0.97868 0.83249 0.0
H1149 H 0.46102 0.05209 0.88523 0.0
H1150 H 0.49724 0.07663 0.90048 0.0
H1151 H 0.49167 0.01849 0.89933 0.0
C1152 C 0.08105 0.45212 0.34339 0.0
C1153 C 0.07711 0.4186 0.35537 0.0
C1154 C 0.05022 0.48549 0.34252 0.0
C1155 C 0.01401 0.48459 0.35356 0.0
C1156 C 0.00865 0.44956 0.36505 0.0
C1157 C 0.04068 0.41728 0.366 0.0
C1158 C 0.05759 0.5228 0.3304 0.0
C1159 C 0.96974 0.44687 0.37667 0.0
C1160 C 0.95564 0.58788 0.3664 0.0
C1161 C 0.91923 0.58679 0.35574 0.0
C1162 C 0.98779 0.55575 0.3653 0.0
C1163 C 0.9826 0.52111 0.35362 0.0
C1164 C 0.94648 0.52051 0.34252 0.0
C1165 C 0.91552 0.55372 0.34356 0.0
C1166 C 0.0266 0.55813 0.377 0.0
C1167 C 0.93933 0.48364 0.33017 0.0
H1168 H 0.10954 0.45363 0.33532 0.0
H1169 H 0.03762 0.3914 0.37527 0.0
H1170 H 0.02864 0.52779 0.32224 0.0
H1171 H 0.06261 0.55314 0.33775 0.0
H1172 H 0.08627 0.51754 0.32209 0.0
H1173 H 0.96854 0.41572 0.38378 0.0
H1174 H 0.9707 0.47387 0.386 0.0
H1175 H 0.93933 0.45036 0.36923 0.0
H1176 H 0.95857 0.61343 0.37582 0.0
H1177 H 0.88709 0.55239 0.33545 0.0
H1178 H 0.05707 0.55483 0.36959 0.0
H1179 H 0.02554 0.53087 0.3862 0.0
H1180 H 0.02773 0.58908 0.38423 0.0
H1181 H 0.9684 0.47897 0.32206 0.0
H1182 H 0.91077 0.48917 0.32183 0.0
H1183 H 0.93423 0.45304 0.33734 0.0
C1184 C 0.92109 0.54731 0.85686 0.0
C1185 C 0.92181 0.58182 0.86844 0.0
C1186 C 0.95335 0.51511 0.85725 0.0
C1187 C 0.98786 0.51853 0.8691 0.0
C1188 C 0.98846 0.55314 0.88092 0.0
C1189 C 0.95505 0.58396 0.88062 0.0
C1190 C 0.95091 0.47784 0.84482 0.0
C1191 C 0.02529 0.55859 0.89343 0.0
C1192 C 0.05561 0.41921 0.87938 0.0
C1193 C 0.09044 0.42377 0.86804 0.0
C1194 C 0.02186 0.44967 0.87979 0.0
C1195 C 0.02375 0.48633 0.86899 0.0
C1196 C 0.05976 0.49203 0.858 0.0
C1197 C 0.09235 0.46019 0.85742 0.0
C1198 C 0.98344 0.44179 0.89132 0.0
C1199 C 0.06357 0.53147 0.8467 0.0
H1200 H 0.89546 0.54569 0.84742 0.0
H1201 H 0.95616 0.61105 0.88941 0.0
H1202 H 0.97874 0.47936 0.8359 0.0
H1203 H 0.95314 0.44649 0.85171 0.0
H1204 H 0.92037 0.47823 0.83731 0.0
H1205 H 0.02071 0.58719 0.90185 0.0
H1206 H 0.02844 0.52922 0.90148 0.0
H1207 H 0.05633 0.5625 0.88644 0.0
H1208 H 0.05363 0.39061 0.88738 0.0
H1209 H 0.11921 0.46362 0.84861 0.0
H1210 H 0.95338 0.43929 0.8836 0.0
H1211 H 0.97913 0.4695 0.90016 0.0
H1212 H 0.987 0.41162 0.89893 0.0
H1213 H 0.0368 0.53165 0.83727 0.0
H1214 H 0.09494 0.53243 0.83975 0.0
H1215 H 0.0605 0.56148 0.85441 0.0
C1216 C 0.58841 0.04116 0.36872 0.0
C1217 C 0.58477 0.07948 0.35924 0.0
C1218 C 0.55679 0.00874 0.36767 0.0
C1219 C 0.51982 0.01552 0.35734 0.0
C1220 C 0.51601 0.05416 0.34765 0.0
C1221 C 0.54912 0.08547 0.34847 0.0
C1222 C 0.56272 0.9675 0.3778 0.0
C1223 C 0.47639 0.06297 0.3369 0.0
C1224 C 0.44823 0.91839 0.34718 0.0
C1225 C 0.41783 0.92072 0.36039 0.0
C1226 C 0.4818 0.94912 0.34595 0.0
C1227 C 0.48382 0.98359 0.35786 0.0
C1228 C 0.45257 0.98647 0.37098 0.0
C1229 C 0.42041 0.95462 0.37224 0.0
C1230 C 0.51545 0.94435 0.33212 0.0
C1231 C 0.45299 0.02326 0.38369 0.0
H1232 H 0.6166 0.03617 0.37676 0.0
H1233 H 0.54664 0.11506 0.34107 0.0
H1234 H 0.53791 0.9658 0.388 0.0
H1235 H 0.55809 0.93874 0.36951 0.0
H1236 H 0.59535 0.96548 0.38377 0.0
H1237 H 0.47915 0.09381 0.32966 0.0
H1238 H 0.47105 0.03602 0.32779 0.0
H1239 H 0.44725 0.06477 0.34517 0.0
H1240 H 0.44606 0.89227 0.33798 0.0
H1241 H 0.39638 0.95702 0.38227 0.0
H1242 H 0.5481 0.94064 0.33792 0.0
H1243 H 0.51631 0.97399 0.32413 0.0
H1244 H 0.50908 0.91591 0.32381 0.0
H1245 H 0.48288 0.02161 0.39153 0.0
H1246 H 0.42448 0.02243 0.39233 0.0
H1247 H 0.4533 0.0549 0.37695 0.0
C1248 C 0.40955 0.9568 0.14019 0.0
C1249 C 0.4111 0.92127 0.12911 0.0
C1250 C 0.44199 0.98879 0.13979 0.0
C1251 C 0.4775 0.98411 0.12848 0.0
C1252 C 0.47902 0.94837 0.1172 0.0
C1253 C 0.4454 0.91776 0.11747 0.0
C1254 C 0.43858 0.02727 0.1516 0.0
C1255 C 0.51691 0.94158 0.10531 0.0
C1256 C 0.54554 0.08252 0.11733 0.0
C1257 C 0.57961 0.07937 0.12911 0.0
C1258 C 0.51197 0.05189 0.11706 0.0
C1259 C 0.51324 0.01646 0.12848 0.0
C1260 C 0.54844 0.01217 0.13998 0.0
C1261 C 0.58088 0.04419 0.14037 0.0
C1262 C 0.47441 0.05827 0.10496 0.0
C1263 C 0.55156 0.97404 0.15197 0.0
H1264 H 0.38309 0.95941 0.14923 0.0
H1265 H 0.4471 0.88984 0.1091 0.0
H1266 H 0.4658 0.0268 0.16083 0.0
H1267 H 0.44117 0.05791 0.14425 0.0
H1268 H 0.40754 0.02754 0.15879 0.0
H1269 H 0.51315 0.91197 0.09738 0.0
H1270 H 0.52061 0.96996 0.09676 0.0
H1271 H 0.54736 0.9387 0.11277 0.0
H1272 H 0.54404 0.11014 0.1088 0.0
H1273 H 0.60716 0.04181 0.1495 0.0
H1274 H 0.44372 0.06121 0.11226 0.0
H1275 H 0.47107 0.02968 0.09649 0.0
H1276 H 0.4783 0.0877 0.09695 0.0
H1277 H 0.52404 0.9747 0.16106 0.0
H1278 H 0.58236 0.97406 0.15932 0.0
H1279 H 0.54928 0.94319 0.14474 0.0
C1280 C 0.07799 0.45849 0.62586 0.0
C1281 C 0.07834 0.42188 0.63643 0.0
C1282 C 0.0453 0.48975 0.62722 0.0
C1283 C 0.01128 0.4835 0.63904 0.0
C1284 C 0.01136 0.44652 0.64976 0.0
C1285 C 0.0455 0.41641 0.64854 0.0
C1286 C 0.04701 0.5293 0.61587 0.0
C1287 C 0.97487 0.4382 0.66214 0.0
C1288 C 0.94013 0.58097 0.64908 0.0
C1289 C 0.90739 0.57613 0.63688 0.0
C1290 C 0.97418 0.55072 0.65013 0.0
C1291 C 0.97424 0.51422 0.63915 0.0
C1292 C 0.94023 0.50853 0.62727 0.0
C1293 C 0.90765 0.53995 0.62609 0.0
C1294 C 0.01066 0.55843 0.66258 0.0
C1295 C 0.93845 0.46947 0.61567 0.0
H1296 H 0.10398 0.4632 0.61674 0.0
H1297 H 0.04603 0.38816 0.65676 0.0
H1298 H 0.01953 0.52859 0.60676 0.0
H1299 H 0.04368 0.55927 0.62358 0.0
H1300 H 0.07775 0.5312 0.60852 0.0
H1301 H 0.9805 0.40868 0.66994 0.0
H1302 H 0.97076 0.46637 0.67076 0.0
H1303 H 0.94395 0.4342 0.65506 0.0
H1304 H 0.93964 0.60888 0.65747 0.0
H1305 H 0.8817 0.53572 0.61691 0.0
H1306 H 0.04157 0.56286 0.65554 0.0
H1307 H 0.01482 0.52982 0.67097 0.0
H1308 H 0.00498 0.58753 0.67062 0.0
H1309 H 0.96587 0.47059 0.60654 0.0
H1310 H 0.90766 0.46789 0.60833 0.0
H1311 H 0.94185 0.43917 0.62318 0.0
C1312 C 0.5249 0.26859 0.14761 0.0
C1313 C 0.55009 0.27014 0.13273 0.0
C1314 C 0.48064 0.27951 0.14738 0.0
C1315 C 0.46109 0.29284 0.13194 0.0
C1316 C 0.48716 0.29835 0.11726 0.0
C1317 C 0.53132 0.28691 0.11782 0.0
C1318 C 0.45412 0.27338 0.16335 0.0
C1319 C 0.4678 0.3133 0.10063 0.0
C1320 C 0.3425 0.26204 0.12596 0.0
C1321 C 0.32136 0.30086 0.12997 0.0
C1322 C 0.38799 0.25924 0.12635 0.0
C1323 C 0.41287 0.29633 0.13074 0.0
C1324 C 0.39151 0.33591 0.13447 0.0
C1325 C 0.34591 0.33762 0.13412 0.0
C1326 C 0.40939 0.21632 0.1224 0.0
C1327 C 0.41678 0.37621 0.13904 0.0
H1328 H 0.53892 0.25596 0.15925 0.0
H1329 H 0.55044 0.28873 0.10628 0.0
H1330 H 0.43332 0.30211 0.16572 0.0
H1331 H 0.43234 0.24499 0.16175 0.0
H1332 H 0.47484 0.26778 0.17471 0.0
H1333 H 0.49316 0.32184 0.09116 0.0
H1334 H 0.44739 0.28702 0.09524 0.0
H1335 H 0.44653 0.34189 0.10264 0.0
H1336 H 0.32331 0.23364 0.12284 0.0
H1337 H 0.32931 0.36767 0.13716 0.0
H1338 H 0.42823 0.20506 0.13359 0.0
H1339 H 0.43257 0.2202 0.11171 0.0
H1340 H 0.38547 0.1908 0.11896 0.0
H1341 H 0.43511 0.37074 0.15099 0.0
H1342 H 0.39541 0.40491 0.14076 0.0
H1343 H 0.44087 0.38355 0.12895 0.0
C1344 C 0.65461 0.34126 0.62731 0.0
C1345 C 0.69255 0.31805 0.63098 0.0
C1346 C 0.6546 0.38688 0.62719 0.0
C1347 C 0.69371 0.40954 0.63048 0.0
C1348 C 0.73211 0.38595 0.63419 0.0
C1349 C 0.73091 0.34044 0.63456 0.0
C1350 C 0.61289 0.4108 0.62353 0.0
C1351 C 0.77466 0.40877 0.63752 0.0
C1352 C 0.71617 0.52285 0.614 0.0
C1353 C 0.71683 0.547 0.62916 0.0
C1354 C 0.70603 0.47845 0.61406 0.0
C1355 C 0.69534 0.45783 0.62959 0.0
C1356 C 0.69147 0.48295 0.6446 0.0
C1357 C 0.70253 0.5272 0.64424 0.0
C1358 C 0.71071 0.45293 0.59776 0.0
C1359 C 0.67894 0.46244 0.66133 0.0
H1360 H 0.62491 0.32364 0.62466 0.0
H1361 H 0.76016 0.32221 0.63737 0.0
H1362 H 0.60561 0.43375 0.63402 0.0
H1363 H 0.61638 0.43029 0.61175 0.0
H1364 H 0.58491 0.38841 0.62196 0.0
H1365 H 0.80156 0.38567 0.64008 0.0
H1366 H 0.78356 0.42901 0.62638 0.0
H1367 H 0.77139 0.43081 0.6486 0.0
H1368 H 0.72693 0.5377 0.60223 0.0
H1369 H 0.70249 0.54555 0.656 0.0
H1370 H 0.68246 0.43119 0.59585 0.0
H1371 H 0.74007 0.43215 0.59857 0.0
H1372 H 0.71391 0.47436 0.58647 0.0
H1373 H 0.65102 0.44013 0.65963 0.0
H1374 H 0.67036 0.48716 0.67105 0.0
H1375 H 0.70655 0.44298 0.66622 0.0
C1376 C 0.46761 0.73119 0.14837 0.0
C1377 C 0.4425 0.73059 0.13346 0.0
C1378 C 0.5119 0.72045 0.14806 0.0
C1379 C 0.53156 0.70827 0.1325 0.0
C1380 C 0.50558 0.7037 0.11775 0.0
C1381 C 0.46138 0.71496 0.11838 0.0
C1382 C 0.53833 0.72556 0.16412 0.0
C1383 C 0.52508 0.69 0.10097 0.0
C1384 C 0.65002 0.74004 0.12702 0.0
C1385 C 0.6713 0.70107 0.13065 0.0
C1386 C 0.60451 0.74259 0.12736 0.0
C1387 C 0.57979 0.70508 0.13131 0.0
C1388 C 0.6013 0.66536 0.13464 0.0
C1389 C 0.64691 0.6639 0.13435 0.0
C1390 C 0.58293 0.78566 0.12383 0.0
C1391 C 0.5762 0.62463 0.13873 0.0
H1392 H 0.45347 0.74293 0.16013 0.0
H1393 H 0.44235 0.71401 0.10679 0.0
H1394 H 0.55921 0.69674 0.1662 0.0
H1395 H 0.56005 0.75411 0.16283 0.0
H1396 H 0.51755 0.73033 0.17551 0.0
H1397 H 0.49979 0.68193 0.0914 0.0
H1398 H 0.54533 0.71676 0.09586 0.0
H1399 H 0.54652 0.66141 0.1027 0.0
H1400 H 0.66909 0.76874 0.12424 0.0
H1401 H 0.66364 0.63374 0.1371 0.0
H1402 H 0.56399 0.79608 0.13512 0.0
H1403 H 0.55982 0.78241 0.11308 0.0
H1404 H 0.60675 0.81151 0.12068 0.0
H1405 H 0.55783 0.62915 0.15074 0.0
H1406 H 0.59769 0.59591 0.14015 0.0
H1407 H 0.55215 0.61793 0.12856 0.0
C1408 C 0.27166 0.47651 0.61572 0.0
C1409 C 0.26943 0.45169 0.63069 0.0
C1410 C 0.28146 0.52095 0.61626 0.0
C1411 C 0.29017 0.54095 0.63211 0.0
C1412 C 0.29258 0.51519 0.64699 0.0
C1413 C 0.28195 0.47088 0.64613 0.0
C1414 C 0.27848 0.54716 0.60007 0.0
C1415 C 0.30302 0.53504 0.66406 0.0
C1416 C 0.32993 0.65787 0.63083 0.0
C1417 C 0.2913 0.68068 0.63371 0.0
C1418 C 0.33049 0.61227 0.63079 0.0
C1419 C 0.29128 0.5892 0.63333 0.0
C1420 C 0.25224 0.61236 0.63638 0.0
C1421 C 0.25285 0.65789 0.63669 0.0
C1422 C 0.37284 0.58883 0.62784 0.0
C1423 C 0.20959 0.58906 0.63891 0.0
H1424 H 0.26238 0.46212 0.60367 0.0
H1425 H 0.28082 0.45201 0.65776 0.0
H1426 H 0.249 0.56784 0.6005 0.0
H1427 H 0.30685 0.56904 0.59878 0.0
H1428 H 0.2766 0.52621 0.58859 0.0
H1429 H 0.31083 0.50996 0.67374 0.0
H1430 H 0.33083 0.55775 0.66301 0.0
H1431 H 0.27467 0.55395 0.66862 0.0
H1432 H 0.35966 0.67581 0.6286 0.0
H1433 H 0.22306 0.67581 0.63885 0.0
H1434 H 0.37129 0.57044 0.61573 0.0
H1435 H 0.37862 0.56496 0.63816 0.0
H1436 H 0.40087 0.61146 0.62726 0.0
H1437 H 0.20194 0.56931 0.6275 0.0
H1438 H 0.18228 0.61184 0.64123 0.0
H1439 H 0.21198 0.56651 0.64987 0.0
C1440 C 0.03568 0.2349 0.84667 0.0
C1441 C 0.06026 0.23321 0.86171 0.0
C1442 C 0.99145 0.22388 0.84661 0.0
C1443 C 0.97136 0.21032 0.8619 0.0
C1444 C 0.99687 0.2046 0.87672 0.0
C1445 C 0.04099 0.21616 0.87646 0.0
C1446 C 0.96553 0.23025 0.83049 0.0
C1447 C 0.97688 0.18942 0.89321 0.0
C1448 C 0.85286 0.24147 0.8676 0.0
C1449 C 0.83169 0.20269 0.86357 0.0
C1450 C 0.89834 0.24419 0.86723 0.0
C1451 C 0.92314 0.20705 0.86284 0.0
C1452 C 0.90173 0.16758 0.85899 0.0
C1453 C 0.85614 0.16594 0.85934 0.0
C1454 C 0.91981 0.287 0.87131 0.0
C1455 C 0.92695 0.12726 0.8544 0.0
H1456 H 0.05013 0.24772 0.83515 0.0
H1457 H 0.05964 0.21433 0.88814 0.0
H1458 H 0.94461 0.20168 0.82798 0.0
H1459 H 0.94389 0.25879 0.832 0.0
H1460 H 0.98668 0.23576 0.81926 0.0
H1461 H 0.00189 0.18065 0.90279 0.0
H1462 H 0.95635 0.21567 0.89855 0.0
H1463 H 0.95562 0.16092 0.891 0.0
H1464 H 0.83371 0.26984 0.8708 0.0
H1465 H 0.83949 0.13592 0.8563 0.0
H1466 H 0.93912 0.29817 0.86022 0.0
H1467 H 0.94257 0.28298 0.88213 0.0
H1468 H 0.89591 0.31264 0.87461 0.0
H1469 H 0.94602 0.13302 0.84265 0.0
H1470 H 0.90548 0.09879 0.85232 0.0
H1471 H 0.9504 0.11936 0.86466 0.0
C1472 C 0.75886 0.84626 0.36085 0.0
C1473 C 0.79796 0.82403 0.36312 0.0
C1474 C 0.75769 0.89181 0.36094 0.0
C1475 C 0.7968 0.91556 0.36299 0.0
C1476 C 0.83658 0.89301 0.3649 0.0
C1477 C 0.8366 0.84739 0.36513 0.0
C1478 C 0.71447 0.9145 0.35915 0.0
C1479 C 0.87899 0.91706 0.36674 0.0
C1480 C 0.78489 0.03284 0.34897 0.0
C1481 C 0.7744 0.05327 0.36441 0.0
C1482 C 0.79555 0.98849 0.34843 0.0
C1483 C 0.79535 0.96391 0.36365 0.0
C1484 C 0.78866 0.98516 0.3794 0.0
C1485 C 0.77871 0.02962 0.3796 0.0
C1486 C 0.80369 0.96731 0.33142 0.0
C1487 C 0.7881 0.96027 0.39594 0.0
H1488 H 0.72908 0.8279 0.35932 0.0
H1489 H 0.86682 0.82986 0.3668 0.0
H1490 H 0.70837 0.93511 0.37048 0.0
H1491 H 0.7149 0.93616 0.34789 0.0
H1492 H 0.68709 0.8913 0.35777 0.0
H1493 H 0.90727 0.89473 0.36726 0.0
H1494 H 0.88341 0.93974 0.35592 0.0
H1495 H 0.87858 0.93685 0.37853 0.0
H1496 H 0.7821 0.05076 0.33715 0.0
H1497 H 0.77101 0.04494 0.39164 0.0
H1498 H 0.77496 0.94771 0.32776 0.0
H1499 H 0.83189 0.945 0.33214 0.0
H1500 H 0.80974 0.99162 0.32125 0.0
H1501 H 0.75873 0.93945 0.39639 0.0
H1502 H 0.7877 0.98213 0.40718 0.0
H1503 H 0.81674 0.93861 0.39689 0.0
C1504 C 0.97285 0.79053 0.87905 0.0
C1505 C 0.9551 0.77232 0.86422 0.0
C1506 C 0.01701 0.80186 0.87991 0.0
C1507 C 0.04415 0.79441 0.86567 0.0
C1508 C 0.02572 0.7793 0.85027 0.0
C1509 C 0.9814 0.76882 0.84969 0.0
C1510 C 0.03516 0.81896 0.89644 0.0
C1511 C 0.05345 0.7708 0.83478 0.0
C1512 C 0.15971 0.83777 0.86314 0.0
C1513 C 0.18375 0.80147 0.86826 0.0
C1514 C 0.11411 0.83657 0.86276 0.0
C1515 C 0.09226 0.79786 0.86733 0.0
C1516 C 0.11662 0.76132 0.87276 0.0
C1517 C 0.16213 0.76371 0.87326 0.0
C1518 C 0.08939 0.87638 0.85718 0.0
C1519 C 0.09469 0.71924 0.87756 0.0
H1520 H 0.95286 0.79372 0.89033 0.0
H1521 H 0.96819 0.75492 0.83813 0.0
H1522 H 0.05482 0.7933 0.90266 0.0
H1523 H 0.0569 0.84703 0.89409 0.0
H1524 H 0.00912 0.82907 0.90537 0.0
H1525 H 0.03364 0.76333 0.82334 0.0
H1526 H 0.07432 0.79921 0.83196 0.0
H1527 H 0.07522 0.74284 0.83732 0.0
H1528 H 0.17671 0.86699 0.85931 0.0
H1529 H 0.18095 0.73565 0.87712 0.0
H1530 H 0.06428 0.8848 0.86674 0.0
H1531 H 0.07233 0.86968 0.84503 0.0
H1532 H 0.11099 0.90485 0.85532 0.0
H1533 H 0.07091 0.72492 0.88792 0.0
H1534 H 0.11822 0.69418 0.88182 0.0
H1535 H 0.07644 0.70635 0.86648 0.0
C1536 C 0.16098 0.15625 0.36667 0.0
C1537 C 0.19821 0.18023 0.36266 0.0
C1538 C 0.16195 0.11063 0.36686 0.0
C1539 C 0.20136 0.08873 0.36334 0.0
C1540 C 0.23897 0.11307 0.35918 0.0
C1541 C 0.23678 0.15857 0.35872 0.0
C1542 C 0.12099 0.08592 0.37098 0.0
C1543 C 0.28183 0.09111 0.3556 0.0
C1544 C 0.22649 0.97691 0.38088 0.0
C1545 C 0.22663 0.95156 0.36602 0.0
C1546 C 0.21595 0.0212 0.38037 0.0
C1547 C 0.20424 0.04053 0.36469 0.0
C1548 C 0.20009 0.01425 0.35 0.0
C1549 C 0.21165 0.97013 0.3508 0.0
C1550 C 0.22107 0.048 0.39633 0.0
C1551 C 0.18642 0.03332 0.33315 0.0
H1552 H 0.13111 0.17327 0.36961 0.0
H1553 H 0.2655 0.17736 0.35567 0.0
H1554 H 0.11419 0.06173 0.36088 0.0
H1555 H 0.12524 0.06777 0.38305 0.0
H1556 H 0.09242 0.10766 0.37229 0.0
H1557 H 0.30794 0.1147 0.35252 0.0
H1558 H 0.29202 0.07183 0.36683 0.0
H1559 H 0.27835 0.06827 0.34478 0.0
H1560 H 0.23785 0.96305 0.39275 0.0
H1561 H 0.21124 0.95086 0.33926 0.0
H1562 H 0.19227 0.06894 0.39835 0.0
H1563 H 0.24964 0.06966 0.39496 0.0
H1564 H 0.22582 0.0275 0.40781 0.0
H1565 H 0.1581 0.05516 0.3348 0.0
H1566 H 0.17794 0.00777 0.32374 0.0
H1567 H 0.21337 0.05302 0.32787 0.0
C1568 C 0.47789 0.7304 0.84704 0.0
C1569 C 0.4536 0.72747 0.86213 0.0
C1570 C 0.5224 0.7206 0.84683 0.0
C1571 C 0.54304 0.70686 0.86199 0.0
C1572 C 0.51785 0.69957 0.87678 0.0
C1573 C 0.47345 0.71006 0.87669 0.0
C1574 C 0.54797 0.7287 0.83076 0.0
C1575 C 0.53841 0.684 0.89311 0.0
C1576 C 0.65987 0.6669 0.85923 0.0
C1577 C 0.68289 0.70414 0.86402 0.0
C1578 C 0.61425 0.66694 0.85873 0.0
C1579 C 0.59136 0.70534 0.86291 0.0
C1580 C 0.61473 0.74306 0.86774 0.0
C1581 C 0.66026 0.74188 0.86831 0.0
C1582 C 0.59058 0.62602 0.85371 0.0
C1583 C 0.59164 0.78483 0.87214 0.0
H1584 H 0.46301 0.74357 0.83566 0.0
H1585 H 0.45503 0.70724 0.88839 0.0
H1586 H 0.56833 0.75809 0.83244 0.0
H1587 H 0.5701 0.70118 0.82806 0.0
H1588 H 0.52654 0.73376 0.81956 0.0
H1589 H 0.51374 0.67361 0.90258 0.0
H1590 H 0.56076 0.6565 0.89062 0.0
H1591 H 0.55788 0.71064 0.89876 0.0
H1592 H 0.67764 0.6377 0.85596 0.0
H1593 H 0.67831 0.77067 0.87191 0.0
H1594 H 0.57109 0.63189 0.84207 0.0
H1595 H 0.56765 0.61644 0.86391 0.0
H1596 H 0.61313 0.59859 0.85126 0.0
H1597 H 0.57179 0.79574 0.86116 0.0
H1598 H 0.61457 0.81122 0.87559 0.0
H1599 H 0.56919 0.77944 0.88296 0.0
C1600 C 0.28879 0.47107 0.35573 0.0
C1601 C 0.26615 0.45209 0.36933 0.0
C1602 C 0.30053 0.51516 0.35608 0.0
C1603 C 0.28886 0.54103 0.37026 0.0
C1604 C 0.26923 0.52127 0.38457 0.0
C1605 C 0.25854 0.477 0.38401 0.0
C1606 C 0.32258 0.53471 0.34075 0.0
C1607 C 0.25601 0.54758 0.39993 0.0
C1608 C 0.33083 0.65677 0.37517 0.0
C1609 C 0.29671 0.68073 0.36806 0.0
C1610 C 0.32924 0.61117 0.37573 0.0
C1611 C 0.29226 0.58928 0.36932 0.0
C1612 C 0.25762 0.61361 0.36222 0.0
C1613 C 0.26049 0.65904 0.36155 0.0
C1614 C 0.36711 0.58644 0.38311 0.0
C1615 C 0.21727 0.59169 0.35549 0.0
H1616 H 0.29522 0.45214 0.34438 0.0
H1617 H 0.24126 0.46281 0.39465 0.0
H1618 H 0.29895 0.55482 0.33359 0.0
H1619 H 0.3496 0.55626 0.34472 0.0
H1620 H 0.33555 0.50944 0.33205 0.0
H1621 H 0.24599 0.52671 0.41076 0.0
H1622 H 0.28298 0.56883 0.40416 0.0
H1623 H 0.22834 0.56891 0.39649 0.0
H1624 H 0.35898 0.67376 0.38009 0.0
H1625 H 0.23412 0.67777 0.3561 0.0
H1626 H 0.37988 0.56321 0.37355 0.0
H1627 H 0.35633 0.56717 0.39424 0.0
H1628 H 0.39389 0.60824 0.38717 0.0
H1629 H 0.22597 0.56906 0.34506 0.0
H1630 H 0.19307 0.61532 0.35059 0.0
H1631 H 0.20188 0.5722 0.36571 0.0
C1632 C 0.53634 0.27075 0.84682 0.0
C1633 C 0.55992 0.26969 0.86211 0.0
C1634 C 0.49215 0.28199 0.8466 0.0
C1635 C 0.47105 0.29287 0.86202 0.0
C1636 C 0.49555 0.29573 0.87722 0.0
C1637 C 0.53967 0.2841 0.87709 0.0
C1638 C 0.46733 0.27877 0.83009 0.0
C1639 C 0.47448 0.30791 0.89388 0.0
C1640 C 0.35617 0.33851 0.85997 0.0
C1641 C 0.33132 0.30128 0.86304 0.0
C1642 C 0.40177 0.33653 0.85976 0.0
C1643 C 0.42277 0.29626 0.86256 0.0
C1644 C 0.39754 0.2586 0.86568 0.0
C1645 C 0.35208 0.26164 0.86593 0.0
C1646 C 0.42745 0.3774 0.85652 0.0
C1647 C 0.41856 0.21496 0.86863 0.0
H1648 H 0.55156 0.25999 0.83512 0.0
H1649 H 0.55752 0.28378 0.88898 0.0
H1650 H 0.44556 0.25011 0.83053 0.0
H1651 H 0.44664 0.30782 0.8282 0.0
H1652 H 0.48925 0.27532 0.81894 0.0
H1653 H 0.49883 0.31458 0.90398 0.0
H1654 H 0.4536 0.33695 0.8923 0.0
H1655 H 0.45337 0.28091 0.89821 0.0
H1656 H 0.33985 0.3692 0.85782 0.0
H1657 H 0.33262 0.23292 0.86824 0.0
H1658 H 0.44757 0.37348 0.84492 0.0
H1659 H 0.44996 0.38353 0.86727 0.0
H1660 H 0.40622 0.40624 0.85486 0.0
H1661 H 0.43853 0.20591 0.85743 0.0
H1662 H 0.39433 0.1889 0.8709 0.0
H1663 H 0.44061 0.21666 0.87976 0.0
C1664 C 0.66736 0.34643 0.37557 0.0
C1665 C 0.7011 0.3229 0.36799 0.0
C1666 C 0.66886 0.39201 0.37642 0.0
C1667 C 0.70537 0.4143 0.36981 0.0
C1668 C 0.73966 0.39038 0.36226 0.0
C1669 C 0.73688 0.34498 0.36131 0.0
C1670 C 0.63137 0.4163 0.38429 0.0
C1671 C 0.77952 0.41272 0.35531 0.0
C1672 C 0.70737 0.53291 0.35676 0.0
C1673 C 0.73074 0.55162 0.37023 0.0
C1674 C 0.6959 0.48874 0.35701 0.0
C1675 C 0.70857 0.46253 0.37096 0.0
C1676 C 0.72899 0.48198 0.38517 0.0
C1677 C 0.73942 0.52633 0.38471 0.0
C1678 C 0.67302 0.46952 0.3418 0.0
C1679 C 0.74329 0.45529 0.40028 0.0
H1680 H 0.63957 0.32915 0.38063 0.0
H1681 H 0.76298 0.32657 0.35551 0.0
H1682 H 0.64279 0.43536 0.39539 0.0
H1683 H 0.6178 0.43969 0.37497 0.0
H1684 H 0.60501 0.39422 0.38854 0.0
H1685 H 0.80355 0.38937 0.35008 0.0
H1686 H 0.77014 0.43565 0.34507 0.0
H1687 H 0.79539 0.43195 0.3655 0.0
H1688 H 0.70012 0.55213 0.34556 0.0
H1689 H 0.75729 0.54031 0.39525 0.0
H1690 H 0.64632 0.44777 0.34591 0.0
H1691 H 0.6963 0.44968 0.33435 0.0
H1692 H 0.65945 0.49497 0.33331 0.0
H1693 H 0.71673 0.43371 0.40463 0.0
H1694 H 0.75378 0.4759 0.41112 0.0
H1695 H 0.77091 0.43429 0.39649 0.0
C1696 C 0.96572 0.7709 0.15081 0.0
C1697 C 0.94169 0.77297 0.13564 0.0
C1698 C 0.01005 0.78156 0.15113 0.0
C1699 C 0.03083 0.79501 0.13596 0.0
C1700 C 0.00586 0.80123 0.12103 0.0
C1701 C 0.9616 0.79019 0.12105 0.0
C1702 C 0.03534 0.77483 0.16737 0.0
C1703 C 0.02657 0.81623 0.10466 0.0
C1704 C 0.14681 0.83759 0.1385 0.0
C1705 C 0.17068 0.80045 0.13426 0.0
C1706 C 0.10119 0.83658 0.13899 0.0
C1707 C 0.07915 0.79742 0.13521 0.0
C1708 C 0.10336 0.75986 0.13087 0.0
C1709 C 0.14887 0.7619 0.13041 0.0
C1710 C 0.07662 0.8773 0.14358 0.0
C1711 C 0.08121 0.71737 0.12682 0.0
H1712 H 0.95078 0.75798 0.16222 0.0
H1713 H 0.94337 0.79247 0.1093 0.0
H1714 H 0.05629 0.74574 0.16604 0.0
H1715 H 0.05688 0.80292 0.16991 0.0
H1716 H 0.01371 0.77001 0.17852 0.0
H1717 H 0.00199 0.8254 0.09496 0.0
H1718 H 0.04815 0.84442 0.10698 0.0
H1719 H 0.04689 0.78972 0.09939 0.0
H1720 H 0.16392 0.86745 0.14137 0.0
H1721 H 0.16754 0.73323 0.12719 0.0
H1722 H 0.05685 0.87164 0.15516 0.0
H1723 H 0.05385 0.88597 0.13318 0.0
H1724 H 0.09858 0.90526 0.14593 0.0
H1725 H 0.06152 0.70668 0.13787 0.0
H1726 H 0.10471 0.69128 0.12363 0.0
H1727 H 0.05871 0.72166 0.11593 0.0
C1728 C 0.23281 0.15933 0.63354 0.0
C1729 C 0.19717 0.18176 0.62691 0.0
C1730 C 0.23506 0.11392 0.63263 0.0
C1731 C 0.20044 0.09039 0.62512 0.0
C1732 C 0.16414 0.11302 0.61852 0.0
C1733 C 0.16311 0.15859 0.61938 0.0
C1734 C 0.27468 0.09115 0.6396 0.0
C1735 C 0.12636 0.08912 0.61068 0.0
C1736 C 0.23357 0.97782 0.61066 0.0
C1737 C 0.22466 0.95305 0.62525 0.0
C1738 C 0.22335 0.02219 0.60999 0.0
C1739 C 0.20301 0.04215 0.62411 0.0
C1740 C 0.19 0.01643 0.63813 0.0
C1741 C 0.20117 0.97222 0.63859 0.0
C1742 C 0.23788 0.04837 0.59478 0.0
C1743 C 0.16725 0.03624 0.65326 0.0
H1744 H 0.25915 0.17748 0.6393 0.0
H1745 H 0.13543 0.17616 0.61437 0.0
H1746 H 0.26505 0.06846 0.64988 0.0
H1747 H 0.29027 0.07162 0.62944 0.0
H1748 H 0.29902 0.11425 0.64477 0.0
H1749 H 0.10038 0.11149 0.60631 0.0
H1750 H 0.13759 0.06961 0.59967 0.0
H1751 H 0.11235 0.06618 0.62007 0.0
H1752 H 0.25148 0.96344 0.60022 0.0
H1753 H 0.19372 0.95338 0.64986 0.0
H1754 H 0.26588 0.069 0.59847 0.0
H1755 H 0.21162 0.0703 0.5904 0.0
H1756 H 0.24794 0.02738 0.58399 0.0
H1757 H 0.19073 0.05592 0.66068 0.0
H1758 H 0.15332 0.01112 0.6618 0.0
H1759 H 0.14085 0.05824 0.64905 0.0
C1760 C 0.84595 0.1636 0.13604 0.0
C1761 C 0.82135 0.20016 0.13166 0.0
C1762 C 0.89155 0.16547 0.13651 0.0
C1763 C 0.91285 0.20497 0.1326 0.0
C1764 C 0.88791 0.24189 0.12804 0.0
C1765 C 0.84243 0.23895 0.12758 0.0
C1766 C 0.91688 0.12538 0.14129 0.0
C1767 C 0.90925 0.2847 0.12387 0.0
C1768 C 0.02543 0.23342 0.14876 0.0
C1769 C 0.05012 0.23122 0.13376 0.0
C1770 C 0.98117 0.22243 0.14882 0.0
C1771 C 0.96111 0.20843 0.13357 0.0
C1772 C 0.98672 0.20229 0.1188 0.0
C1773 C 0.03088 0.21376 0.11907 0.0
C1774 C 0.95517 0.2292 0.16488 0.0
C1775 C 0.96682 0.18669 0.10236 0.0
H1776 H 0.82941 0.13355 0.13911 0.0
H1777 H 0.82321 0.2672 0.12428 0.0
H1778 H 0.94042 0.11728 0.1311 0.0
H1779 H 0.93586 0.13154 0.15304 0.0
H1780 H 0.89551 0.09689 0.14347 0.0
H1781 H 0.88527 0.31015 0.12042 0.0
H1782 H 0.92837 0.2962 0.13495 0.0
H1783 H 0.93216 0.28054 0.1131 0.0
H1784 H 0.03982 0.24661 0.16023 0.0
H1785 H 0.04962 0.21142 0.10744 0.0
H1786 H 0.93425 0.20068 0.16748 0.0
H1787 H 0.93353 0.25769 0.16325 0.0
H1788 H 0.97628 0.23499 0.17612 0.0
H1789 H 0.94572 0.15811 0.10464 0.0
H1790 H 0.99187 0.17787 0.0928 0.0
H1791 H 0.94613 0.21272 0.09693 0.0
C1792 C 0.75382 0.02021 0.61199 0.0
C1793 C 0.76133 0.04582 0.62648 0.0
C1794 C 0.76431 0.97588 0.61181 0.0
C1795 C 0.78359 0.95677 0.62634 0.0
C1796 C 0.79521 0.98331 0.64032 0.0
C1797 C 0.78374 0.02747 0.64028 0.0
C1798 C 0.75125 0.94883 0.59662 0.0
C1799 C 0.81685 0.96444 0.65588 0.0
C1800 C 0.75388 0.83944 0.63566 0.0
C1801 C 0.78997 0.81717 0.62934 0.0
C1802 C 0.75158 0.88488 0.6348 0.0
C1803 C 0.78661 0.90859 0.62768 0.0
C1804 C 0.82354 0.88612 0.62155 0.0
C1805 C 0.82459 0.84054 0.62231 0.0
C1806 C 0.71132 0.90746 0.64127 0.0
C1807 C 0.86179 0.9102 0.61416 0.0
H1808 H 0.73677 0.03393 0.60119 0.0
H1809 H 0.79011 0.04695 0.65149 0.0
H1810 H 0.7782 0.92724 0.59265 0.0
H1811 H 0.72342 0.92782 0.60015 0.0
H1812 H 0.74154 0.96918 0.5856 0.0
H1813 H 0.8299 0.99009 0.6644 0.0
H1814 H 0.79292 0.94496 0.66315 0.0
H1815 H 0.84374 0.94243 0.65218 0.0
H1816 H 0.72709 0.82115 0.64101 0.0
H1817 H 0.8526 0.82309 0.61753 0.0
H1818 H 0.69613 0.92639 0.63084 0.0
H1819 H 0.72006 0.93069 0.65149 0.0
H1820 H 0.68694 0.88429 0.64635 0.0
H1821 H 0.85154 0.92854 0.60271 0.0
H1822 H 0.88871 0.88803 0.61056 0.0
H1823 H 0.87418 0.93419 0.6235 0.0
loop_
_geom_bond_atom_site_label_1
_geom_bond_atom_site_label_2
_geom_bond_distance
_geom_bond_site_symmetry_2
_ccdc_geom_bond_type
Co0 O3 1.970 . S
Co0 N17 1.989 . S
Co0 O25 1.967 . S
Co0 O32 1.920 . S
Co1 O4 1.966 . S
Co1 N10 2.022 . S
Co1 N18 1.993 . S
Co1 O26 1.941 . S
C2 O3 1.258 . S
C2 O4 1.263 . S
O3 Co0 1.970 . S
O3 C2 1.258 . S
O4 Co1 1.966 . S
O4 C2 1.263 . S
C5 O6 1.235 . S
C5 O32 1.289 . S
O6 C5 1.235 . S
C7 C9 1.400 . S
C7 N10 1.351 . S
C7 C12 1.501 . S
C8 C9 1.387 . S
C8 N11 1.341 . S
C9 C7 1.400 . S
C9 C8 1.387 . S
N10 Co1 2.022 . S
N10 C7 1.351 . S
N10 N11 1.365 . S
N11 C8 1.341 . S
N11 N10 1.365 . S
N11 H31 0.862 . S
C12 C7 1.501 . S
C12 H13 0.961 . S
C12 H14 0.961 . S
C12 H15 0.960 . S
H13 C12 0.961 . S
H14 C12 0.961 . S
H15 C12 0.960 . S
C16 N17 1.342 . S
C16 C20 1.401 . S
C16 C21 1.499 . S
N17 Co0 1.989 . S
N17 C16 1.342 . S
N17 N18 1.388 . S
N18 Co1 1.993 . S
N18 N17 1.388 . S
N18 C19 1.346 . S
C19 N18 1.346 . S
C19 C20 1.396 . S
C19 C29 1.510 . S
C20 C16 1.401 . S
C20 C19 1.396 . S
C21 C16 1.499 . S
C21 H22 0.959 . S
C21 H23 0.960 . S
C21 H24 0.961 . S
H22 C21 0.959 . S
H23 C21 0.960 . S
H24 C21 0.961 . S
O25 Co0 1.967 . S
O25 C33 1.258 . S
O26 Co1 1.941 . S
O26 C33 1.266 . S
H27 C29 0.959 . S
H28 C29 0.961 . S
C29 C19 1.510 . S
C29 H27 0.959 . S
C29 H28 0.961 . S
C29 H30 0.960 . S
H30 C29 0.960 . S
H31 N11 0.862 . S
O32 Co0 1.920 . S
O32 C5 1.289 . S
C33 O25 1.258 . S
C33 O26 1.266 . S
Co34 O37 1.970 . S
Co34 N51 1.989 . S
Co34 O59 1.967 . S
Co34 O66 1.920 . S
Co35 O38 1.966 . S
Co35 N44 2.022 . S
Co35 N52 1.993 . S
Co35 O60 1.941 . S
C36 O37 1.258 . S
C36 O38 1.263 . S
O37 Co34 1.970 . S
O37 C36 1.258 . S
O38 Co35 1.966 . S
O38 C36 1.263 . S
C39 O40 1.235 . S
C39 O66 1.289 . S
O40 C39 1.235 . S
C41 C43 1.400 . S
C41 N44 1.351 . S
C41 C46 1.501 . S
C42 C43 1.387 . S
C42 N45 1.341 . S
C43 C41 1.400 . S
C43 C42 1.387 . S
N44 Co35 2.022 . S
N44 C41 1.351 . S
N44 N45 1.365 . S
N45 C42 1.341 . S
N45 N44 1.365 . S
N45 H65 0.862 . S
C46 C41 1.501 . S
C46 H47 0.961 . S
C46 H48 0.961 . S
C46 H49 0.960 . S
H47 C46 0.961 . S
H48 C46 0.961 . S
H49 C46 0.960 . S
C50 N51 1.342 . S
C50 C54 1.401 . S
C50 C55 1.499 . S
N51 Co34 1.989 . S
N51 C50 1.342 . S
N51 N52 1.388 . S
N52 Co35 1.993 . S
N52 N51 1.388 . S
N52 C53 1.346 . S
C53 N52 1.346 . S
C53 C54 1.396 . S
C53 C63 1.510 . S
C54 C50 1.401 . S
C54 C53 1.396 . S
C55 C50 1.499 . S
C55 H56 0.959 . S
C55 H57 0.960 . S
C55 H58 0.961 . S
H56 C55 0.959 . S
H57 C55 0.960 . S
H58 C55 0.961 . S
O59 Co34 1.967 . S
O59 C67 1.258 . S
O60 Co35 1.941 . S
O60 C67 1.266 . S
H61 C63 0.959 . S
H62 C63 0.961 . S
C63 C53 1.510 . S
C63 H61 0.959 . S
C63 H62 0.961 . S
C63 H64 0.960 . S
H64 C63 0.960 . S
H65 N45 0.862 . S
O66 Co34 1.920 . S
O66 C39 1.289 . S
C67 O59 1.258 . S
C67 O60 1.266 . S
Co68 O71 1.970 . S
Co68 N85 1.989 . S
Co68 O93 1.967 . S
Co68 O100 1.920 . S
Co69 O72 1.966 . S
Co69 N78 2.022 . S
Co69 N86 1.993 . S
Co69 O94 1.941 . S
C70 O71 1.258 . S
C70 O72 1.263 . S
O71 Co68 1.970 . S
O71 C70 1.258 . S
O72 Co69 1.966 . S
O72 C70 1.263 . S
C73 O74 1.235 . S
C73 O100 1.289 . S
O74 C73 1.235 . S
C75 C77 1.400 . S
C75 N78 1.351 . S
C75 C80 1.501 . S
C76 C77 1.387 . S
C76 N79 1.341 . S
C77 C75 1.400 . S
C77 C76 1.387 . S
N78 Co69 2.022 . S
N78 C75 1.351 . S
N78 N79 1.365 . S
N79 C76 1.341 . S
N79 N78 1.365 . S
N79 H99 0.862 . S
C80 C75 1.501 . S
C80 H81 0.961 . S
C80 H82 0.961 . S
C80 H83 0.960 . S
H81 C80 0.961 . S
H82 C80 0.961 . S
H83 C80 0.960 . S
C84 N85 1.342 . S
C84 C88 1.401 . S
C84 C89 1.499 . S
N85 Co68 1.989 . S
N85 C84 1.342 . S
N85 N86 1.388 . S
N86 Co69 1.993 . S
N86 N85 1.388 . S
N86 C87 1.346 . S
C87 N86 1.346 . S
C87 C88 1.396 . S
C87 C97 1.510 . S
C88 C84 1.401 . S
C88 C87 1.396 . S
C89 C84 1.499 . S
C89 H90 0.959 . S
C89 H91 0.960 . S
C89 H92 0.961 . S
H90 C89 0.959 . S
H91 C89 0.960 . S
H92 C89 0.961 . S
O93 Co68 1.967 . S
O93 C101 1.258 . S
O94 Co69 1.941 . S
O94 C101 1.266 . S
H95 C97 0.959 . S
H96 C97 0.961 . S
C97 C87 1.510 . S
C97 H95 0.959 . S
C97 H96 0.961 . S
C97 H98 0.960 . S
H98 C97 0.960 . S
H99 N79 0.862 . S
O100 Co68 1.920 . S
O100 C73 1.289 . S
C101 O93 1.258 . S
C101 O94 1.266 . S
Co102 O105 1.970 . S
Co102 N119 1.989 . S
Co102 O127 1.967 . S
Co102 O134 1.920 . S
Co103 O106 1.966 . S
Co103 N112 2.022 . S
Co103 N120 1.993 . S
Co103 O128 1.941 . S
C104 O105 1.258 . S
C104 O106 1.263 . S
O105 Co102 1.970 . S
O105 C104 1.258 . S
O106 Co103 1.966 . S
O106 C104 1.263 . S
C107 O108 1.235 . S
C107 O134 1.289 . S
O108 C107 1.235 . S
C109 C111 1.400 . S
C109 N112 1.351 . S
C109 C114 1.501 . S
C110 C111 1.387 . S
C110 N113 1.341 . S
C111 C109 1.400 . S
C111 C110 1.387 . S
N112 Co103 2.022 . S
N112 C109 1.351 . S
N112 N113 1.365 . S
N113 C110 1.341 . S
N113 N112 1.365 . S
N113 H133 0.862 . S
C114 C109 1.501 . S
C114 H115 0.961 . S
C114 H116 0.961 . S
C114 H117 0.960 . S
H115 C114 0.961 . S
H116 C114 0.961 . S
H117 C114 0.960 . S
C118 N119 1.342 . S
C118 C122 1.401 . S
C118 C123 1.499 . S
N119 Co102 1.989 . S
N119 C118 1.342 . S
N119 N120 1.388 . S
N120 Co103 1.993 . S
N120 N119 1.388 . S
N120 C121 1.346 . S
C121 N120 1.346 . S
C121 C122 1.396 . S
C121 C131 1.510 . S
C122 C118 1.401 . S
C122 C121 1.396 . S
C123 C118 1.499 . S
C123 H124 0.959 . S
C123 H125 0.960 . S
C123 H126 0.961 . S
H124 C123 0.959 . S
H125 C123 0.960 . S
H126 C123 0.961 . S
O127 Co102 1.967 . S
O127 C135 1.258 . S
O128 Co103 1.941 . S
O128 C135 1.266 . S
H129 C131 0.959 . S
H130 C131 0.961 . S
C131 C121 1.510 . S
C131 H129 0.959 . S
C131 H130 0.961 . S
C131 H132 0.960 . S
H132 C131 0.960 . S
H133 N113 0.862 . S
O134 Co102 1.920 . S
O134 C107 1.289 . S
C135 O127 1.258 . S
C135 O128 1.266 . S
Co136 O139 1.970 . S
Co136 N153 1.989 . S
Co136 O161 1.967 . S
Co136 O168 1.920 . S
Co137 O140 1.966 . S
Co137 N146 2.022 . S
Co137 N154 1.993 . S
Co137 O162 1.941 . S
C138 O139 1.258 . S
C138 O140 1.263 . S
O139 Co136 1.970 . S
O139 C138 1.258 . S
O140 Co137 1.966 . S
O140 C138 1.263 . S
C141 O142 1.235 . S
C141 O168 1.289 . S
O142 C141 1.235 . S
C143 C145 1.400 . S
C143 N146 1.351 . S
C143 C148 1.501 . S
C144 C145 1.387 . S
C144 N147 1.341 . S
C145 C143 1.400 . S
C145 C144 1.387 . S
N146 Co137 2.022 . S
N146 C143 1.351 . S
N146 N147 1.365 . S
N147 C144 1.341 . S
N147 N146 1.365 . S
N147 H167 0.862 . S
C148 C143 1.501 . S
C148 H149 0.961 . S
C148 H150 0.961 . S
C148 H151 0.960 . S
H149 C148 0.961 . S
H150 C148 0.961 . S
H151 C148 0.960 . S
C152 N153 1.342 . S
C152 C156 1.401 . S
C152 C157 1.499 . S
N153 Co136 1.989 . S
N153 C152 1.342 . S
N153 N154 1.388 . S
N154 Co137 1.993 . S
N154 N153 1.388 . S
N154 C155 1.346 . S
C155 N154 1.346 . S
C155 C156 1.396 . S
C155 C165 1.510 . S
C156 C152 1.401 . S
C156 C155 1.396 . S
C157 C152 1.499 . S
C157 H158 0.959 . S
C157 H159 0.960 . S
C157 H160 0.961 . S
H158 C157 0.959 . S
H159 C157 0.960 . S
H160 C157 0.961 . S
O161 Co136 1.967 . S
O161 C169 1.258 . S
O162 Co137 1.941 . S
O162 C169 1.266 . S
H163 C165 0.959 . S
H164 C165 0.961 . S
C165 C155 1.510 . S
C165 H163 0.959 . S
C165 H164 0.961 . S
C165 H166 0.960 . S
H166 C165 0.960 . S
H167 N147 0.862 . S
O168 Co136 1.920 . S
O168 C141 1.289 . S
C169 O161 1.258 . S
C169 O162 1.266 . S
Co170 O173 1.970 . S
Co170 N187 1.989 . S
Co170 O195 1.967 . S
Co170 O202 1.920 . S
Co171 O174 1.966 . S
Co171 N180 2.022 . S
Co171 N188 1.993 . S
Co171 O196 1.941 . S
C172 O173 1.258 . S
C172 O174 1.263 . S
O173 Co170 1.970 . S
O173 C172 1.258 . S
O174 Co171 1.966 . S
O174 C172 1.263 . S
C175 O176 1.235 . S
C175 O202 1.289 . S
O176 C175 1.235 . S
C177 C179 1.400 . S
C177 N180 1.351 . S
C177 C182 1.501 . S
C178 C179 1.387 . S
C178 N181 1.341 . S
C179 C177 1.400 . S
C179 C178 1.387 . S
N180 Co171 2.022 . S
N180 C177 1.351 . S
N180 N181 1.365 . S
N181 C178 1.341 . S
N181 N180 1.365 . S
N181 H201 0.862 . S
C182 C177 1.501 . S
C182 H183 0.961 . S
C182 H184 0.961 . S
C182 H185 0.960 . S
H183 C182 0.961 . S
H184 C182 0.961 . S
H185 C182 0.960 . S
C186 N187 1.342 . S
C186 C190 1.401 . S
C186 C191 1.499 . S
N187 Co170 1.989 . S
N187 C186 1.342 . S
N187 N188 1.388 . S
N188 Co171 1.993 . S
N188 N187 1.388 . S
N188 C189 1.346 . S
C189 N188 1.346 . S
C189 C190 1.396 . S
C189 C199 1.510 . S
C190 C186 1.401 . S
C190 C189 1.396 . S
C191 C186 1.499 . S
C191 H192 0.959 . S
C191 H193 0.960 . S
C191 H194 0.961 . S
H192 C191 0.959 . S
H193 C191 0.960 . S
H194 C191 0.961 . S
O195 Co170 1.967 . S
O195 C203 1.258 . S
O196 Co171 1.941 . S
O196 C203 1.266 . S
H197 C199 0.959 . S
H198 C199 0.961 . S
C199 C189 1.510 . S
C199 H197 0.959 . S
C199 H198 0.961 . S
C199 H200 0.960 . S
H200 C199 0.960 . S
H201 N181 0.862 . S
O202 Co170 1.920 . S
O202 C175 1.289 . S
C203 O195 1.258 . S
C203 O196 1.266 . S
Co204 O207 1.970 . S
Co204 N221 1.989 . S
Co204 O229 1.967 . S
Co204 O236 1.920 . S
Co205 O208 1.966 . S
Co205 N214 2.022 . S
Co205 N222 1.993 . S
Co205 O230 1.941 . S
C206 O207 1.258 . S
C206 O208 1.263 . S
O207 Co204 1.970 . S
O207 C206 1.258 . S
O208 Co205 1.966 . S
O208 C206 1.263 . S
C209 O210 1.235 . S
C209 O236 1.289 . S
O210 C209 1.235 . S
C211 C213 1.400 . S
C211 N214 1.351 . S
C211 C216 1.501 . S
C212 C213 1.387 . S
C212 N215 1.341 . S
C213 C211 1.400 . S
C213 C212 1.387 . S
N214 Co205 2.022 . S
N214 C211 1.351 . S
N214 N215 1.365 . S
N215 C212 1.341 . S
N215 N214 1.365 . S
N215 H235 0.862 . S
C216 C211 1.501 . S
C216 H217 0.961 . S
C216 H218 0.961 . S
C216 H219 0.960 . S
H217 C216 0.961 . S
H218 C216 0.961 . S
H219 C216 0.960 . S
C220 N221 1.342 . S
C220 C224 1.401 . S
C220 C225 1.499 . S
N221 Co204 1.989 . S
N221 C220 1.342 . S
N221 N222 1.388 . S
N222 Co205 1.993 . S
N222 N221 1.388 . S
N222 C223 1.346 . S
C223 N222 1.346 . S
C223 C224 1.396 . S
C223 C233 1.510 . S
C224 C220 1.401 . S
C224 C223 1.396 . S
C225 C220 1.499 . S
C225 H226 0.959 . S
C225 H227 0.960 . S
C225 H228 0.961 . S
H226 C225 0.959 . S
H227 C225 0.960 . S
H228 C225 0.961 . S
O229 Co204 1.967 . S
O229 C237 1.258 . S
O230 Co205 1.941 . S
O230 C237 1.266 . S
H231 C233 0.959 . S
H232 C233 0.961 . S
C233 C223 1.510 . S
C233 H231 0.959 . S
C233 H232 0.961 . S
C233 H234 0.960 . S
H234 C233 0.960 . S
H235 N215 0.862 . S
O236 Co204 1.920 . S
O236 C209 1.289 . S
C237 O229 1.258 . S
C237 O230 1.266 . S
Co238 O241 1.970 . S
Co238 N255 1.989 . S
Co238 O263 1.967 . S
Co238 O270 1.920 . S
Co239 O242 1.966 . S
Co239 N248 2.022 . S
Co239 N256 1.993 . S
Co239 O264 1.941 . S
C240 O241 1.258 . S
C240 O242 1.263 . S
O241 Co238 1.970 . S
O241 C240 1.258 . S
O242 Co239 1.966 . S
O242 C240 1.263 . S
C243 O244 1.235 . S
C243 O270 1.289 . S
O244 C243 1.235 . S
C245 C247 1.400 . S
C245 N248 1.351 . S
C245 C250 1.501 . S
C246 C247 1.387 . S
C246 N249 1.341 . S
C247 C245 1.400 . S
C247 C246 1.387 . S
N248 Co239 2.022 . S
N248 C245 1.351 . S
N248 N249 1.365 . S
N249 C246 1.341 . S
N249 N248 1.365 . S
N249 H269 0.862 . S
C250 C245 1.501 . S
C250 H251 0.961 . S
C250 H252 0.961 . S
C250 H253 0.960 . S
H251 C250 0.961 . S
H252 C250 0.961 . S
H253 C250 0.960 . S
C254 N255 1.342 . S
C254 C258 1.401 . S
C254 C259 1.499 . S
N255 Co238 1.989 . S
N255 C254 1.342 . S
N255 N256 1.388 . S
N256 Co239 1.993 . S
N256 N255 1.388 . S
N256 C257 1.346 . S
C257 N256 1.346 . S
C257 C258 1.396 . S
C257 C267 1.510 . S
C258 C254 1.401 . S
C258 C257 1.396 . S
C259 C254 1.499 . S
C259 H260 0.959 . S
C259 H261 0.960 . S
C259 H262 0.961 . S
H260 C259 0.959 . S
H261 C259 0.960 . S
H262 C259 0.961 . S
O263 Co238 1.967 . S
O263 C271 1.258 . S
O264 Co239 1.941 . S
O264 C271 1.266 . S
H265 C267 0.959 . S
H266 C267 0.961 . S
C267 C257 1.510 . S
C267 H265 0.959 . S
C267 H266 0.961 . S
C267 H268 0.960 . S
H268 C267 0.960 . S
H269 N249 0.862 . S
O270 Co238 1.920 . S
O270 C243 1.289 . S
C271 O263 1.258 . S
C271 O264 1.266 . S
Co272 O275 1.970 . S
Co272 N289 1.989 . S
Co272 O297 1.967 . S
Co272 O304 1.920 . S
Co273 O276 1.966 . S
Co273 N282 2.022 . S
Co273 N290 1.993 . S
Co273 O298 1.941 . S
C274 O275 1.258 . S
C274 O276 1.263 . S
O275 Co272 1.970 . S
O275 C274 1.258 . S
O276 Co273 1.966 . S
O276 C274 1.263 . S
C277 O278 1.235 . S
C277 O304 1.289 . S
O278 C277 1.235 . S
C279 C281 1.400 . S
C279 N282 1.351 . S
C279 C284 1.501 . S
C280 C281 1.387 . S
C280 N283 1.341 . S
C281 C279 1.400 . S
C281 C280 1.387 . S
N282 Co273 2.022 . S
N282 C279 1.351 . S
N282 N283 1.365 . S
N283 C280 1.341 . S
N283 N282 1.365 . S
N283 H303 0.862 . S
C284 C279 1.501 . S
C284 H285 0.961 . S
C284 H286 0.961 . S
C284 H287 0.960 . S
H285 C284 0.961 . S
H286 C284 0.961 . S
H287 C284 0.960 . S
C288 N289 1.342 . S
C288 C292 1.401 . S
C288 C293 1.499 . S
N289 Co272 1.989 . S
N289 C288 1.342 . S
N289 N290 1.388 . S
N290 Co273 1.993 . S
N290 N289 1.388 . S
N290 C291 1.346 . S
C291 N290 1.346 . S
C291 C292 1.396 . S
C291 C301 1.510 . S
C292 C288 1.401 . S
C292 C291 1.396 . S
C293 C288 1.499 . S
C293 H294 0.959 . S
C293 H295 0.960 . S
C293 H296 0.961 . S
H294 C293 0.959 . S
H295 C293 0.960 . S
H296 C293 0.961 . S
O297 Co272 1.967 . S
O297 C305 1.258 . S
O298 Co273 1.941 . S
O298 C305 1.266 . S
H299 C301 0.959 . S
H300 C301 0.961 . S
C301 C291 1.510 . S
C301 H299 0.959 . S
C301 H300 0.961 . S
C301 H302 0.960 . S
H302 C301 0.960 . S
H303 N283 0.862 . S
O304 Co272 1.920 . S
O304 C277 1.289 . S
C305 O297 1.258 . S
C305 O298 1.266 . S
Co306 O309 1.970 . S
Co306 N323 1.989 . S
Co306 O331 1.967 . S
Co306 O338 1.920 . S
Co307 O310 1.966 . S
Co307 N316 2.022 . S
Co307 N324 1.993 . S
Co307 O332 1.941 . S
C308 O309 1.258 . S
C308 O310 1.263 . S
O309 Co306 1.970 . S
O309 C308 1.258 . S
O310 Co307 1.966 . S
O310 C308 1.263 . S
C311 O312 1.235 . S
C311 O338 1.289 . S
O312 C311 1.235 . S
C313 C315 1.400 . S
C313 N316 1.351 . S
C313 C318 1.501 . S
C314 C315 1.387 . S
C314 N317 1.341 . S
C315 C313 1.400 . S
C315 C314 1.387 . S
N316 Co307 2.022 . S
N316 C313 1.351 . S
N316 N317 1.365 . S
N317 C314 1.341 . S
N317 N316 1.365 . S
N317 H337 0.862 . S
C318 C313 1.501 . S
C318 H319 0.961 . S
C318 H320 0.961 . S
C318 H321 0.960 . S
H319 C318 0.961 . S
H320 C318 0.961 . S
H321 C318 0.960 . S
C322 N323 1.342 . S
C322 C326 1.401 . S
C322 C327 1.499 . S
N323 Co306 1.989 . S
N323 C322 1.342 . S
N323 N324 1.388 . S
N324 Co307 1.993 . S
N324 N323 1.388 . S
N324 C325 1.346 . S
C325 N324 1.346 . S
C325 C326 1.396 . S
C325 C335 1.510 . S
C326 C322 1.401 . S
C326 C325 1.396 . S
C327 C322 1.499 . S
C327 H328 0.959 . S
C327 H329 0.960 . S
C327 H330 0.961 . S
H328 C327 0.959 . S
H329 C327 0.960 . S
H330 C327 0.961 . S
O331 Co306 1.967 . S
O331 C339 1.258 . S
O332 Co307 1.941 . S
O332 C339 1.266 . S
H333 C335 0.959 . S
H334 C335 0.961 . S
C335 C325 1.510 . S
C335 H333 0.959 . S
C335 H334 0.961 . S
C335 H336 0.960 . S
H336 C335 0.960 . S
H337 N317 0.862 . S
O338 Co306 1.920 . S
O338 C311 1.289 . S
C339 O331 1.258 . S
C339 O332 1.266 . S
Co340 O343 1.970 . S
Co340 N357 1.989 . S
Co340 O365 1.967 . S
Co340 O372 1.920 . S
Co341 O344 1.966 . S
Co341 N350 2.022 . S
Co341 N358 1.993 . S
Co341 O366 1.941 . S
C342 O343 1.258 . S
C342 O344 1.263 . S
O343 Co340 1.970 . S
O343 C342 1.258 . S
O344 Co341 1.966 . S
O344 C342 1.263 . S
C345 O346 1.235 . S
C345 O372 1.289 . S
O346 C345 1.235 . S
C347 C349 1.400 . S
C347 N350 1.351 . S
C347 C352 1.501 . S
C348 C349 1.387 . S
C348 N351 1.341 . S
C349 C347 1.400 . S
C349 C348 1.387 . S
N350 Co341 2.022 . S
N350 C347 1.351 . S
N350 N351 1.365 . S
N351 C348 1.341 . S
N351 N350 1.365 . S
N351 H371 0.862 . S
C352 C347 1.501 . S
C352 H353 0.961 . S
C352 H354 0.961 . S
C352 H355 0.960 . S
H353 C352 0.961 . S
H354 C352 0.961 . S
H355 C352 0.960 . S
C356 N357 1.342 . S
C356 C360 1.401 . S
C356 C361 1.499 . S
N357 Co340 1.989 . S
N357 C356 1.342 . S
N357 N358 1.388 . S
N358 Co341 1.993 . S
N358 N357 1.388 . S
N358 C359 1.346 . S
C359 N358 1.346 . S
C359 C360 1.396 . S
C359 C369 1.510 . S
C360 C356 1.401 . S
C360 C359 1.396 . S
C361 C356 1.499 . S
C361 H362 0.959 . S
C361 H363 0.960 . S
C361 H364 0.961 . S
H362 C361 0.959 . S
H363 C361 0.960 . S
H364 C361 0.961 . S
O365 Co340 1.967 . S
O365 C373 1.258 . S
O366 Co341 1.941 . S
O366 C373 1.266 . S
H367 C369 0.959 . S
H368 C369 0.961 . S
C369 C359 1.510 . S
C369 H367 0.959 . S
C369 H368 0.961 . S
C369 H370 0.960 . S
H370 C369 0.960 . S
H371 N351 0.862 . S
O372 Co340 1.920 . S
O372 C345 1.289 . S
C373 O365 1.258 . S
C373 O366 1.266 . S
Co374 O377 1.970 . S
Co374 N391 1.989 . S
Co374 O399 1.967 . S
Co374 O406 1.920 . S
Co375 O378 1.966 . S
Co375 N384 2.022 . S
Co375 N392 1.993 . S
Co375 O400 1.941 . S
C376 O377 1.258 . S
C376 O378 1.263 . S
O377 Co374 1.970 . S
O377 C376 1.258 . S
O378 Co375 1.966 . S
O378 C376 1.263 . S
C379 O380 1.235 . S
C379 O406 1.289 . S
O380 C379 1.235 . S
C381 C383 1.400 . S
C381 N384 1.351 . S
C381 C386 1.501 . S
C382 C383 1.387 . S
C382 N385 1.341 . S
C383 C381 1.400 . S
C383 C382 1.387 . S
N384 Co375 2.022 . S
N384 C381 1.351 . S
N384 N385 1.365 . S
N385 C382 1.341 . S
N385 N384 1.365 . S
N385 H405 0.862 . S
C386 C381 1.501 . S
C386 H387 0.961 . S
C386 H388 0.961 . S
C386 H389 0.960 . S
H387 C386 0.961 . S
H388 C386 0.961 . S
H389 C386 0.960 . S
C390 N391 1.342 . S
C390 C394 1.401 . S
C390 C395 1.499 . S
N391 Co374 1.989 . S
N391 C390 1.342 . S
N391 N392 1.388 . S
N392 Co375 1.993 . S
N392 N391 1.388 . S
N392 C393 1.346 . S
C393 N392 1.346 . S
C393 C394 1.396 . S
C393 C403 1.510 . S
C394 C390 1.401 . S
C394 C393 1.396 . S
C395 C390 1.499 . S
C395 H396 0.959 . S
C395 H397 0.960 . S
C395 H398 0.961 . S
H396 C395 0.959 . S
H397 C395 0.960 . S
H398 C395 0.961 . S
O399 Co374 1.967 . S
O399 C407 1.258 . S
O400 Co375 1.941 . S
O400 C407 1.266 . S
H401 C403 0.959 . S
H402 C403 0.961 . S
C403 C393 1.510 . S
C403 H401 0.959 . S
C403 H402 0.961 . S
C403 H404 0.960 . S
H404 C403 0.960 . S
H405 N385 0.862 . S
O406 Co374 1.920 . S
O406 C379 1.289 . S
C407 O399 1.258 . S
C407 O400 1.266 . S
Co408 O411 1.970 . S
Co408 N425 1.989 . S
Co408 O433 1.967 . S
Co408 O440 1.920 . S
Co409 O412 1.966 . S
Co409 N418 2.022 . S
Co409 N426 1.993 . S
Co409 O434 1.941 . S
C410 O411 1.258 . S
C410 O412 1.263 . S
O411 Co408 1.970 . S
O411 C410 1.258 . S
O412 Co409 1.966 . S
O412 C410 1.263 . S
C413 O414 1.235 . S
C413 O440 1.289 . S
O414 C413 1.235 . S
C415 C417 1.400 . S
C415 N418 1.351 . S
C415 C420 1.501 . S
C416 C417 1.387 . S
C416 N419 1.341 . S
C417 C415 1.400 . S
C417 C416 1.387 . S
N418 Co409 2.022 . S
N418 C415 1.351 . S
N418 N419 1.365 . S
N419 C416 1.341 . S
N419 N418 1.365 . S
N419 H439 0.862 . S
C420 C415 1.501 . S
C420 H421 0.961 . S
C420 H422 0.961 . S
C420 H423 0.960 . S
H421 C420 0.961 . S
H422 C420 0.961 . S
H423 C420 0.960 . S
C424 N425 1.342 . S
C424 C428 1.401 . S
C424 C429 1.499 . S
N425 Co408 1.989 . S
N425 C424 1.342 . S
N425 N426 1.388 . S
N426 Co409 1.993 . S
N426 N425 1.388 . S
N426 C427 1.346 . S
C427 N426 1.346 . S
C427 C428 1.396 . S
C427 C437 1.510 . S
C428 C424 1.401 . S
C428 C427 1.396 . S
C429 C424 1.499 . S
C429 H430 0.959 . S
C429 H431 0.960 . S
C429 H432 0.961 . S
H430 C429 0.959 . S
H431 C429 0.960 . S
H432 C429 0.961 . S
O433 Co408 1.967 . S
O433 C441 1.258 . S
O434 Co409 1.941 . S
O434 C441 1.266 . S
H435 C437 0.959 . S
H436 C437 0.961 . S
C437 C427 1.510 . S
C437 H435 0.959 . S
C437 H436 0.961 . S
C437 H438 0.960 . S
H438 C437 0.960 . S
H439 N419 0.862 . S
O440 Co408 1.920 . S
O440 C413 1.289 . S
C441 O433 1.258 . S
C441 O434 1.266 . S
Co442 O445 1.970 . S
Co442 N459 1.989 . S
Co442 O467 1.967 . S
Co442 O474 1.920 . S
Co443 O446 1.966 . S
Co443 N452 2.022 . S
Co443 N460 1.993 . S
Co443 O468 1.941 . S
C444 O445 1.258 . S
C444 O446 1.263 . S
O445 Co442 1.970 . S
O445 C444 1.258 . S
O446 Co443 1.966 . S
O446 C444 1.263 . S
C447 O448 1.235 . S
C447 O474 1.289 . S
O448 C447 1.235 . S
C449 C451 1.400 . S
C449 N452 1.351 . S
C449 C454 1.501 . S
C450 C451 1.387 . S
C450 N453 1.341 . S
C451 C449 1.400 . S
C451 C450 1.387 . S
N452 Co443 2.022 . S
N452 C449 1.351 . S
N452 N453 1.365 . S
N453 C450 1.341 . S
N453 N452 1.365 . S
N453 H473 0.862 . S
C454 C449 1.501 . S
C454 H455 0.961 . S
C454 H456 0.961 . S
C454 H457 0.960 . S
H455 C454 0.961 . S
H456 C454 0.961 . S
H457 C454 0.960 . S
C458 N459 1.342 . S
C458 C462 1.401 . S
C458 C463 1.499 . S
N459 Co442 1.989 . S
N459 C458 1.342 . S
N459 N460 1.388 . S
N460 Co443 1.993 . S
N460 N459 1.388 . S
N460 C461 1.346 . S
C461 N460 1.346 . S
C461 C462 1.396 . S
C461 C471 1.510 . S
C462 C458 1.401 . S
C462 C461 1.396 . S
C463 C458 1.499 . S
C463 H464 0.959 . S
C463 H465 0.960 . S
C463 H466 0.961 . S
H464 C463 0.959 . S
H465 C463 0.960 . S
H466 C463 0.961 . S
O467 Co442 1.967 . S
O467 C475 1.258 . S
O468 Co443 1.941 . S
O468 C475 1.266 . S
H469 C471 0.959 . S
H470 C471 0.961 . S
C471 C461 1.510 . S
C471 H469 0.959 . S
C471 H470 0.961 . S
C471 H472 0.960 . S
H472 C471 0.960 . S
H473 N453 0.862 . S
O474 Co442 1.920 . S
O474 C447 1.289 . S
C475 O467 1.258 . S
C475 O468 1.266 . S
Co476 O479 1.970 . S
Co476 N493 1.989 . S
Co476 O501 1.967 . S
Co476 O508 1.920 . S
Co477 O480 1.966 . S
Co477 N486 2.022 . S
Co477 N494 1.993 . S
Co477 O502 1.941 . S
C478 O479 1.258 . S
C478 O480 1.263 . S
O479 Co476 1.970 . S
O479 C478 1.258 . S
O480 Co477 1.966 . S
O480 C478 1.263 . S
C481 O482 1.235 . S
C481 O508 1.289 . S
O482 C481 1.235 . S
C483 C485 1.400 . S
C483 N486 1.351 . S
C483 C488 1.501 . S
C484 C485 1.387 . S
C484 N487 1.341 . S
C485 C483 1.400 . S
C485 C484 1.387 . S
N486 Co477 2.022 . S
N486 C483 1.351 . S
N486 N487 1.365 . S
N487 C484 1.341 . S
N487 N486 1.365 . S
N487 H507 0.862 . S
C488 C483 1.501 . S
C488 H489 0.961 . S
C488 H490 0.961 . S
C488 H491 0.960 . S
H489 C488 0.961 . S
H490 C488 0.961 . S
H491 C488 0.960 . S
C492 N493 1.342 . S
C492 C496 1.401 . S
C492 C497 1.499 . S
N493 Co476 1.989 . S
N493 C492 1.342 . S
N493 N494 1.388 . S
N494 Co477 1.993 . S
N494 N493 1.388 . S
N494 C495 1.346 . S
C495 N494 1.346 . S
C495 C496 1.396 . S
C495 C505 1.510 . S
C496 C492 1.401 . S
C496 C495 1.396 . S
C497 C492 1.499 . S
C497 H498 0.959 . S
C497 H499 0.960 . S
C497 H500 0.961 . S
H498 C497 0.959 . S
H499 C497 0.960 . S
H500 C497 0.961 . S
O501 Co476 1.967 . S
O501 C509 1.258 . S
O502 Co477 1.941 . S
O502 C509 1.266 . S
H503 C505 0.959 . S
H504 C505 0.961 . S
C505 C495 1.510 . S
C505 H503 0.959 . S
C505 H504 0.961 . S
C505 H506 0.960 . S
H506 C505 0.960 . S
H507 N487 0.862 . S
O508 Co476 1.920 . S
O508 C481 1.289 . S
C509 O501 1.258 . S
C509 O502 1.266 . S
Co510 O513 1.970 . S
Co510 N527 1.989 . S
Co510 O535 1.967 . S
Co510 O542 1.920 . S
Co511 O514 1.966 . S
Co511 N520 2.022 . S
Co511 N528 1.993 . S
Co511 O536 1.941 . S
C512 O513 1.258 . S
C512 O514 1.263 . S
O513 Co510 1.970 . S
O513 C512 1.258 . S
O514 Co511 1.966 . S
O514 C512 1.263 . S
C515 O516 1.235 . S
C515 O542 1.289 . S
O516 C515 1.235 . S
C517 C519 1.400 . S
C517 N520 1.351 . S
C517 C522 1.501 . S
C518 C519 1.387 . S
C518 N521 1.341 . S
C519 C517 1.400 . S
C519 C518 1.387 . S
N520 Co511 2.022 . S
N520 C517 1.351 . S
N520 N521 1.365 . S
N521 C518 1.341 . S
N521 N520 1.365 . S
N521 H541 0.862 . S
C522 C517 1.501 . S
C522 H523 0.961 . S
C522 H524 0.961 . S
C522 H525 0.960 . S
H523 C522 0.961 . S
H524 C522 0.961 . S
H525 C522 0.960 . S
C526 N527 1.342 . S
C526 C530 1.401 . S
C526 C531 1.499 . S
N527 Co510 1.989 . S
N527 C526 1.342 . S
N527 N528 1.388 . S
N528 Co511 1.993 . S
N528 N527 1.388 . S
N528 C529 1.346 . S
C529 N528 1.346 . S
C529 C530 1.396 . S
C529 C539 1.510 . S
C530 C526 1.401 . S
C530 C529 1.396 . S
C531 C526 1.499 . S
C531 H532 0.959 . S
C531 H533 0.960 . S
C531 H534 0.961 . S
H532 C531 0.959 . S
H533 C531 0.960 . S
H534 C531 0.961 . S
O535 Co510 1.967 . S
O535 C543 1.258 . S
O536 Co511 1.941 . S
O536 C543 1.266 . S
H537 C539 0.959 . S
H538 C539 0.961 . S
C539 C529 1.510 . S
C539 H537 0.959 . S
C539 H538 0.961 . S
C539 H540 0.960 . S
H540 C539 0.960 . S
H541 N521 0.862 . S
O542 Co510 1.920 . S
O542 C515 1.289 . S
C543 O535 1.258 . S
C543 O536 1.266 . S
C544 C545 1.391 . S
C544 C546 1.394 . S
C544 H560 0.931 . S
C545 C544 1.391 . S
C545 C549 1.376 . S
C546 C544 1.394 . S
C546 C547 1.369 . S
C546 C550 1.531 . S
C547 C546 1.369 . S
C547 C548 1.410 . S
C547 C555 1.503 . S
C548 C547 1.410 . S
C548 C549 1.392 . S
C548 C551 1.511 . S
C549 C545 1.376 . S
C549 C548 1.392 . S
C549 H561 0.929 . S
C550 C546 1.531 . S
C550 H562 0.960 . S
C550 H563 0.962 . S
C550 H564 0.960 . S
C551 C548 1.511 . S
C551 H565 0.961 . S
C551 H566 0.961 . S
C551 H567 0.961 . S
C552 C553 1.370 . S
C552 C554 1.363 . S
C552 H568 0.931 . S
C553 C552 1.370 . S
C553 C557 1.408 . S
C554 C552 1.363 . S
C554 C555 1.370 . S
C554 C558 1.524 . S
C555 C547 1.503 . S
C555 C554 1.370 . S
C555 C556 1.403 . S
C556 C555 1.403 . S
C556 C557 1.404 . S
C556 C559 1.539 . S
C557 C553 1.408 . S
C557 C556 1.404 . S
C557 H569 0.930 . S
C558 C554 1.524 . S
C558 H570 0.956 . S
C558 H571 0.961 . S
C558 H572 0.961 . S
C559 C556 1.539 . S
C559 H573 0.958 . S
C559 H574 0.961 . S
C559 H575 0.960 . S
H560 C544 0.931 . S
H561 C549 0.929 . S
H562 C550 0.960 . S
H563 C550 0.962 . S
H564 C550 0.960 . S
H565 C551 0.961 . S
H566 C551 0.961 . S
H567 C551 0.961 . S
H568 C552 0.931 . S
H569 C557 0.930 . S
H570 C558 0.956 . S
H571 C558 0.961 . S
H572 C558 0.961 . S
H573 C559 0.958 . S
H574 C559 0.961 . S
H575 C559 0.960 . S
C576 C577 1.391 . S
C576 C578 1.394 . S
C576 H592 0.931 . S
C577 C576 1.391 . S
C577 C581 1.376 . S
C578 C576 1.394 . S
C578 C579 1.369 . S
C578 C582 1.531 . S
C579 C578 1.369 . S
C579 C580 1.410 . S
C579 C587 1.503 . S
C580 C579 1.410 . S
C580 C581 1.392 . S
C580 C583 1.511 . S
C581 C577 1.376 . S
C581 C580 1.392 . S
C581 H593 0.929 . S
C582 C578 1.531 . S
C582 H594 0.960 . S
C582 H595 0.962 . S
C582 H596 0.960 . S
C583 C580 1.511 . S
C583 H597 0.961 . S
C583 H598 0.961 . S
C583 H599 0.961 . S
C584 C585 1.370 . S
C584 C586 1.363 . S
C584 H600 0.931 . S
C585 C584 1.370 . S
C585 C589 1.408 . S
C586 C584 1.363 . S
C586 C587 1.370 . S
C586 C590 1.524 . S
C587 C579 1.503 . S
C587 C586 1.370 . S
C587 C588 1.403 . S
C588 C587 1.403 . S
C588 C589 1.404 . S
C588 C591 1.539 . S
C589 C585 1.408 . S
C589 C588 1.404 . S
C589 H601 0.930 . S
C590 C586 1.524 . S
C590 H602 0.956 . S
C590 H603 0.961 . S
C590 H604 0.961 . S
C591 C588 1.539 . S
C591 H605 0.958 . S
C591 H606 0.961 . S
C591 H607 0.960 . S
H592 C576 0.931 . S
H593 C581 0.929 . S
H594 C582 0.960 . S
H595 C582 0.962 . S
H596 C582 0.960 . S
H597 C583 0.961 . S
H598 C583 0.961 . S
H599 C583 0.961 . S
H600 C584 0.931 . S
H601 C589 0.930 . S
H602 C590 0.956 . S
H603 C590 0.961 . S
H604 C590 0.961 . S
H605 C591 0.958 . S
H606 C591 0.961 . S
H607 C591 0.960 . S
C608 C609 1.391 . S
C608 C610 1.394 . S
C608 H624 0.931 . S
C609 C608 1.391 . S
C609 C613 1.376 . S
C610 C608 1.394 . S
C610 C611 1.369 . S
C610 C614 1.531 . S
C611 C610 1.369 . S
C611 C612 1.410 . S
C611 C619 1.503 . S
C612 C611 1.410 . S
C612 C613 1.392 . S
C612 C615 1.511 . S
C613 C609 1.376 . S
C613 C612 1.392 . S
C613 H625 0.929 . S
C614 C610 1.531 . S
C614 H626 0.960 . S
C614 H627 0.962 . S
C614 H628 0.960 . S
C615 C612 1.511 . S
C615 H629 0.961 . S
C615 H630 0.961 . S
C615 H631 0.961 . S
C616 C617 1.370 . S
C616 C618 1.363 . S
C616 H632 0.931 . S
C617 C616 1.370 . S
C617 C621 1.408 . S
C618 C616 1.363 . S
C618 C619 1.370 . S
C618 C622 1.524 . S
C619 C611 1.503 . S
C619 C618 1.370 . S
C619 C620 1.403 . S
C620 C619 1.403 . S
C620 C621 1.404 . S
C620 C623 1.539 . S
C621 C617 1.408 . S
C621 C620 1.404 . S
C621 H633 0.930 . S
C622 C618 1.524 . S
C622 H634 0.956 . S
C622 H635 0.961 . S
C622 H636 0.961 . S
C623 C620 1.539 . S
C623 H637 0.958 . S
C623 H638 0.961 . S
C623 H639 0.960 . S
H624 C608 0.931 . S
H625 C613 0.929 . S
H626 C614 0.960 . S
H627 C614 0.962 . S
H628 C614 0.960 . S
H629 C615 0.961 . S
H630 C615 0.961 . S
H631 C615 0.961 . S
H632 C616 0.931 . S
H633 C621 0.930 . S
H634 C622 0.956 . S
H635 C622 0.961 . S
H636 C622 0.961 . S
H637 C623 0.958 . S
H638 C623 0.961 . S
H639 C623 0.960 . S
C640 C641 1.391 . S
C640 C642 1.394 . S
C640 H656 0.931 . S
C641 C640 1.391 . S
C641 C645 1.376 . S
C642 C640 1.394 . S
C642 C643 1.369 . S
C642 C646 1.531 . S
C643 C642 1.369 . S
C643 C644 1.410 . S
C643 C651 1.503 . S
C644 C643 1.410 . S
C644 C645 1.392 . S
C644 C647 1.511 . S
C645 C641 1.376 . S
C645 C644 1.392 . S
C645 H657 0.929 . S
C646 C642 1.531 . S
C646 H658 0.960 . S
C646 H659 0.962 . S
C646 H660 0.960 . S
C647 C644 1.511 . S
C647 H661 0.961 . S
C647 H662 0.961 . S
C647 H663 0.961 . S
C648 C649 1.370 . S
C648 C650 1.363 . S
C648 H664 0.931 . S
C649 C648 1.370 . S
C649 C653 1.408 . S
C650 C648 1.363 . S
C650 C651 1.370 . S
C650 C654 1.524 . S
C651 C643 1.503 . S
C651 C650 1.370 . S
C651 C652 1.403 . S
C652 C651 1.403 . S
C652 C653 1.404 . S
C652 C655 1.539 . S
C653 C649 1.408 . S
C653 C652 1.404 . S
C653 H665 0.930 . S
C654 C650 1.524 . S
C654 H666 0.956 . S
C654 H667 0.961 . S
C654 H668 0.961 . S
C655 C652 1.539 . S
C655 H669 0.958 . S
C655 H670 0.961 . S
C655 H671 0.960 . S
H656 C640 0.931 . S
H657 C645 0.929 . S
H658 C646 0.960 . S
H659 C646 0.962 . S
H660 C646 0.960 . S
H661 C647 0.961 . S
H662 C647 0.961 . S
H663 C647 0.961 . S
H664 C648 0.931 . S
H665 C653 0.930 . S
H666 C654 0.956 . S
H667 C654 0.961 . S
H668 C654 0.961 . S
H669 C655 0.958 . S
H670 C655 0.961 . S
H671 C655 0.960 . S
C672 C673 1.391 . S
C672 C674 1.394 . S
C672 H688 0.931 . S
C673 C672 1.391 . S
C673 C677 1.376 . S
C674 C672 1.394 . S
C674 C675 1.369 . S
C674 C678 1.531 . S
C675 C674 1.369 . S
C675 C676 1.410 . S
C675 C683 1.503 . S
C676 C675 1.410 . S
C676 C677 1.392 . S
C676 C679 1.511 . S
C677 C673 1.376 . S
C677 C676 1.392 . S
C677 H689 0.929 . S
C678 C674 1.531 . S
C678 H690 0.960 . S
C678 H691 0.962 . S
C678 H692 0.960 . S
C679 C676 1.511 . S
C679 H693 0.961 . S
C679 H694 0.961 . S
C679 H695 0.961 . S
C680 C681 1.370 . S
C680 C682 1.363 . S
C680 H696 0.931 . S
C681 C680 1.370 . S
C681 C685 1.408 . S
C682 C680 1.363 . S
C682 C683 1.370 . S
C682 C686 1.524 . S
C683 C675 1.503 . S
C683 C682 1.370 . S
C683 C684 1.403 . S
C684 C683 1.403 . S
C684 C685 1.404 . S
C684 C687 1.539 . S
C685 C681 1.408 . S
C685 C684 1.404 . S
C685 H697 0.930 . S
C686 C682 1.524 . S
C686 H698 0.956 . S
C686 H699 0.961 . S
C686 H700 0.961 . S
C687 C684 1.539 . S
C687 H701 0.958 . S
C687 H702 0.961 . S
C687 H703 0.960 . S
H688 C672 0.931 . S
H689 C677 0.929 . S
H690 C678 0.960 . S
H691 C678 0.962 . S
H692 C678 0.960 . S
H693 C679 0.961 . S
H694 C679 0.961 . S
H695 C679 0.961 . S
H696 C680 0.931 . S
H697 C685 0.930 . S
H698 C686 0.956 . S
H699 C686 0.961 . S
H700 C686 0.961 . S
H701 C687 0.958 . S
H702 C687 0.961 . S
H703 C687 0.960 . S
C704 C705 1.391 . S
C704 C706 1.394 . S
C704 H720 0.931 . S
C705 C704 1.391 . S
C705 C709 1.376 . S
C706 C704 1.394 . S
C706 C707 1.369 . S
C706 C710 1.531 . S
C707 C706 1.369 . S
C707 C708 1.410 . S
C707 C715 1.503 . S
C708 C707 1.410 . S
C708 C709 1.392 . S
C708 C711 1.511 . S
C709 C705 1.376 . S
C709 C708 1.392 . S
C709 H721 0.929 . S
C710 C706 1.531 . S
C710 H722 0.960 . S
C710 H723 0.962 . S
C710 H724 0.960 . S
C711 C708 1.511 . S
C711 H725 0.961 . S
C711 H726 0.961 . S
C711 H727 0.961 . S
C712 C713 1.370 . S
C712 C714 1.363 . S
C712 H728 0.931 . S
C713 C712 1.370 . S
C713 C717 1.408 . S
C714 C712 1.363 . S
C714 C715 1.370 . S
C714 C718 1.524 . S
C715 C707 1.503 . S
C715 C714 1.370 . S
C715 C716 1.403 . S
C716 C715 1.403 . S
C716 C717 1.404 . S
C716 C719 1.539 . S
C717 C713 1.408 . S
C717 C716 1.404 . S
C717 H729 0.930 . S
C718 C714 1.524 . S
C718 H730 0.956 . S
C718 H731 0.961 . S
C718 H732 0.961 . S
C719 C716 1.539 . S
C719 H733 0.958 . S
C719 H734 0.961 . S
C719 H735 0.960 . S
H720 C704 0.931 . S
H721 C709 0.929 . S
H722 C710 0.960 . S
H723 C710 0.962 . S
H724 C710 0.960 . S
H725 C711 0.961 . S
H726 C711 0.961 . S
H727 C711 0.961 . S
H728 C712 0.931 . S
H729 C717 0.930 . S
H730 C718 0.956 . S
H731 C718 0.961 . S
H732 C718 0.961 . S
H733 C719 0.958 . S
H734 C719 0.961 . S
H735 C719 0.960 . S
C736 C737 1.391 . S
C736 C738 1.394 . S
C736 H752 0.931 . S
C737 C736 1.391 . S
C737 C741 1.376 . S
C738 C736 1.394 . S
C738 C739 1.369 . S
C738 C742 1.531 . S
C739 C738 1.369 . S
C739 C740 1.410 . S
C739 C747 1.503 . S
C740 C739 1.410 . S
C740 C741 1.392 . S
C740 C743 1.511 . S
C741 C737 1.376 . S
C741 C740 1.392 . S
C741 H753 0.929 . S
C742 C738 1.531 . S
C742 H754 0.960 . S
C742 H755 0.962 . S
C742 H756 0.960 . S
C743 C740 1.511 . S
C743 H757 0.961 . S
C743 H758 0.961 . S
C743 H759 0.961 . S
C744 C745 1.370 . S
C744 C746 1.363 . S
C744 H760 0.931 . S
C745 C744 1.370 . S
C745 C749 1.408 . S
C746 C744 1.363 . S
C746 C747 1.370 . S
C746 C750 1.524 . S
C747 C739 1.503 . S
C747 C746 1.370 . S
C747 C748 1.403 . S
C748 C747 1.403 . S
C748 C749 1.404 . S
C748 C751 1.539 . S
C749 C745 1.408 . S
C749 C748 1.404 . S
C749 H761 0.930 . S
C750 C746 1.524 . S
C750 H762 0.956 . S
C750 H763 0.961 . S
C750 H764 0.961 . S
C751 C748 1.539 . S
C751 H765 0.958 . S
C751 H766 0.961 . S
C751 H767 0.960 . S
H752 C736 0.931 . S
H753 C741 0.929 . S
H754 C742 0.960 . S
H755 C742 0.962 . S
H756 C742 0.960 . S
H757 C743 0.961 . S
H758 C743 0.961 . S
H759 C743 0.961 . S
H760 C744 0.931 . S
H761 C749 0.930 . S
H762 C750 0.956 . S
H763 C750 0.961 . S
H764 C750 0.961 . S
H765 C751 0.958 . S
H766 C751 0.961 . S
H767 C751 0.960 . S
C768 C769 1.391 . S
C768 C770 1.394 . S
C768 H784 0.931 . S
C769 C768 1.391 . S
C769 C773 1.376 . S
C770 C768 1.394 . S
C770 C771 1.369 . S
C770 C774 1.531 . S
C771 C770 1.369 . S
C771 C772 1.410 . S
C771 C779 1.503 . S
C772 C771 1.410 . S
C772 C773 1.392 . S
C772 C775 1.511 . S
C773 C769 1.376 . S
C773 C772 1.392 . S
C773 H785 0.929 . S
C774 C770 1.531 . S
C774 H786 0.960 . S
C774 H787 0.962 . S
C774 H788 0.960 . S
C775 C772 1.511 . S
C775 H789 0.961 . S
C775 H790 0.961 . S
C775 H791 0.961 . S
C776 C777 1.370 . S
C776 C778 1.363 . S
C776 H792 0.931 . S
C777 C776 1.370 . S
C777 C781 1.408 . S
C778 C776 1.363 . S
C778 C779 1.370 . S
C778 C782 1.524 . S
C779 C771 1.503 . S
C779 C778 1.370 . S
C779 C780 1.403 . S
C780 C779 1.403 . S
C780 C781 1.404 . S
C780 C783 1.539 . S
C781 C777 1.408 . S
C781 C780 1.404 . S
C781 H793 0.930 . S
C782 C778 1.524 . S
C782 H794 0.956 . S
C782 H795 0.961 . S
C782 H796 0.961 . S
C783 C780 1.539 . S
C783 H797 0.958 . S
C783 H798 0.961 . S
C783 H799 0.960 . S
H784 C768 0.931 . S
H785 C773 0.929 . S
H786 C774 0.960 . S
H787 C774 0.962 . S
H788 C774 0.960 . S
H789 C775 0.961 . S
H790 C775 0.961 . S
H791 C775 0.961 . S
H792 C776 0.931 . S
H793 C781 0.930 . S
H794 C782 0.956 . S
H795 C782 0.961 . S
H796 C782 0.961 . S
H797 C783 0.958 . S
H798 C783 0.961 . S
H799 C783 0.960 . S
C800 C801 1.391 . S
C800 C802 1.394 . S
C800 H816 0.931 . S
C801 C800 1.391 . S
C801 C805 1.376 . S
C802 C800 1.394 . S
C802 C803 1.369 . S
C802 C806 1.531 . S
C803 C802 1.369 . S
C803 C804 1.410 . S
C803 C811 1.503 1_554 S
C804 C803 1.410 . S
C804 C805 1.392 . S
C804 C807 1.511 . S
C805 C801 1.376 . S
C805 C804 1.392 . S
C805 H817 0.929 . S
C806 C802 1.531 . S
C806 H818 0.960 1_554 S
C806 H819 0.962 . S
C806 H820 0.960 . S
C807 C804 1.511 . S
C807 H821 0.961 . S
C807 H822 0.961 1_554 S
C807 H823 0.961 . S
C808 C809 1.370 . S
C808 C810 1.363 . S
C808 H824 0.931 . S
C809 C808 1.370 . S
C809 C813 1.408 . S
C810 C808 1.363 . S
C810 C811 1.370 . S
C810 C814 1.524 . S
C811 C803 1.503 1_556 S
C811 C810 1.370 . S
C811 C812 1.403 . S
C812 C811 1.403 . S
C812 C813 1.404 . S
C812 C815 1.539 . S
C813 C809 1.408 . S
C813 C812 1.404 . S
C813 H825 0.930 . S
C814 C810 1.524 . S
C814 H826 0.983 . S
C814 H827 0.918 1_556 S
C814 H828 0.961 . S
C815 C812 1.539 . S
C815 H829 0.958 . S
C815 H830 0.961 . S
C815 H831 0.968 . S
H816 C800 0.931 . S
H817 C805 0.929 . S
H818 C806 0.960 1_556 S
H819 C806 0.962 . S
H820 C806 0.960 . S
H821 C807 0.961 . S
H822 C807 0.961 1_556 S
H823 C807 0.961 . S
H824 C808 0.931 . S
H825 C813 0.930 . S
H826 C814 0.983 . S
H827 C814 0.918 1_554 S
H828 C814 0.961 . S
H829 C815 0.958 . S
H830 C815 0.961 . S
H831 C815 0.968 . S
C832 C833 1.391 . S
C832 C834 1.394 . S
C832 H848 0.931 . S
C833 C832 1.391 . S
C833 C837 1.376 . S
C834 C832 1.394 . S
C834 C835 1.369 . S
C834 C838 1.531 . S
C835 C834 1.369 . S
C835 C836 1.410 . S
C835 C843 1.503 . S
C836 C835 1.410 . S
C836 C837 1.392 . S
C836 C839 1.511 . S
C837 C833 1.376 . S
C837 C836 1.392 . S
C837 H849 0.929 . S
C838 C834 1.531 . S
C838 H850 0.960 . S
C838 H851 0.962 . S
C838 H852 0.960 . S
C839 C836 1.511 . S
C839 H853 0.961 . S
C839 H854 0.961 . S
C839 H855 0.961 . S
C840 C841 1.370 . S
C840 C842 1.363 . S
C840 H856 0.931 . S
C841 C840 1.370 . S
C841 C845 1.408 . S
C842 C840 1.363 . S
C842 C843 1.370 . S
C842 C846 1.524 . S
C843 C835 1.503 . S
C843 C842 1.370 . S
C843 C844 1.403 . S
C844 C843 1.403 . S
C844 C845 1.404 . S
C844 C847 1.539 . S
C845 C841 1.408 . S
C845 C844 1.404 . S
C845 H857 0.930 . S
C846 C842 1.524 . S
C846 H858 0.956 . S
C846 H859 0.961 . S
C846 H860 0.961 . S
C847 C844 1.539 . S
C847 H861 0.958 . S
C847 H862 0.961 . S
C847 H863 0.960 . S
H848 C832 0.931 . S
H849 C837 0.929 . S
H850 C838 0.960 . S
H851 C838 0.962 . S
H852 C838 0.960 . S
H853 C839 0.961 . S
H854 C839 0.961 . S
H855 C839 0.961 . S
H856 C840 0.931 . S
H857 C845 0.930 . S
H858 C846 0.956 . S
H859 C846 0.961 . S
H860 C846 0.961 . S
H861 C847 0.958 . S
H862 C847 0.961 . S
H863 C847 0.960 . S
C864 C865 1.391 . S
C864 C866 1.394 . S
C864 H880 0.931 . S
C865 C864 1.391 . S
C865 C869 1.376 . S
C866 C864 1.394 . S
C866 C867 1.369 . S
C866 C870 1.531 . S
C867 C866 1.369 . S
C867 C868 1.410 . S
C867 C875 1.503 1_556 S
C868 C867 1.410 . S
C868 C869 1.392 . S
C868 C871 1.511 . S
C869 C865 1.376 . S
C869 C868 1.392 . S
C869 H881 0.929 . S
C870 C866 1.531 . S
C870 H882 0.960 1_556 S
C870 H883 0.962 . S
C870 H884 0.960 . S
C871 C868 1.511 . S
C871 H885 0.961 . S
C871 H886 0.961 1_556 S
C871 H887 0.961 . S
C872 C873 1.370 . S
C872 C874 1.363 . S
C872 H888 0.931 . S
C873 C872 1.370 . S
C873 C877 1.408 . S
C874 C872 1.363 . S
C874 C875 1.370 . S
C874 C878 1.524 . S
C875 C867 1.503 1_554 S
C875 C874 1.370 . S
C875 C876 1.403 . S
C876 C875 1.403 . S
C876 C877 1.404 . S
C876 C879 1.539 . S
C877 C873 1.408 . S
C877 C876 1.404 . S
C877 H889 0.930 . S
C878 C874 1.524 . S
C878 H890 0.983 . S
C878 H891 0.918 1_554 S
C878 H892 0.961 . S
C879 C876 1.539 . S
C879 H893 0.958 . S
C879 H894 0.961 . S
C879 H895 0.968 . S
H880 C864 0.931 . S
H881 C869 0.929 . S
H882 C870 0.960 1_554 S
H883 C870 0.962 . S
H884 C870 0.960 . S
H885 C871 0.961 . S
H886 C871 0.961 1_554 S
H887 C871 0.961 . S
H888 C872 0.931 . S
H889 C877 0.930 . S
H890 C878 0.983 . S
H891 C878 0.918 1_556 S
H892 C878 0.961 . S
H893 C879 0.958 . S
H894 C879 0.961 . S
H895 C879 0.968 . S
C896 C897 1.391 . S
C896 C898 1.394 . S
C896 H912 0.931 . S
C897 C896 1.391 . S
C897 C901 1.376 . S
C898 C896 1.394 . S
C898 C899 1.369 . S
C898 C902 1.531 . S
C899 C898 1.369 . S
C899 C900 1.410 . S
C899 C907 1.503 . S
C900 C899 1.410 . S
C900 C901 1.392 . S
C900 C903 1.511 . S
C901 C897 1.376 . S
C901 C900 1.392 . S
C901 H913 0.929 . S
C902 C898 1.531 . S
C902 H914 0.960 . S
C902 H915 0.962 . S
C902 H916 0.960 . S
C903 C900 1.511 . S
C903 H917 0.961 . S
C903 H918 0.961 . S
C903 H919 0.961 . S
C904 C905 1.370 . S
C904 C906 1.363 . S
C904 H920 0.931 . S
C905 C904 1.370 . S
C905 C909 1.408 . S
C906 C904 1.363 . S
C906 C907 1.370 . S
C906 C910 1.524 . S
C907 C899 1.503 . S
C907 C906 1.370 . S
C907 C908 1.403 . S
C908 C907 1.403 . S
C908 C909 1.404 . S
C908 C911 1.539 . S
C909 C905 1.408 . S
C909 C908 1.404 . S
C909 H921 0.930 . S
C910 C906 1.524 . S
C910 H922 0.956 . S
C910 H923 0.961 . S
C910 H924 0.961 . S
C911 C908 1.539 . S
C911 H925 0.958 . S
C911 H926 0.961 . S
C911 H927 0.960 . S
H912 C896 0.931 . S
H913 C901 0.929 . S
H914 C902 0.960 . S
H915 C902 0.962 . S
H916 C902 0.960 . S
H917 C903 0.961 . S
H918 C903 0.961 . S
H919 C903 0.961 . S
H920 C904 0.931 . S
H921 C909 0.930 . S
H922 C910 0.956 . S
H923 C910 0.961 . S
H924 C910 0.961 . S
H925 C911 0.958 . S
H926 C911 0.961 . S
H927 C911 0.960 . S
C928 C929 1.391 . S
C928 C930 1.394 . S
C928 H944 0.931 . S
C929 C928 1.391 . S
C929 C933 1.376 . S
C930 C928 1.394 . S
C930 C931 1.369 . S
C930 C934 1.531 . S
C931 C930 1.369 . S
C931 C932 1.410 . S
C931 C939 1.503 1_554 S
C932 C931 1.410 . S
C932 C933 1.392 . S
C932 C935 1.511 . S
C933 C929 1.376 . S
C933 C932 1.392 . S
C933 H945 0.929 . S
C934 C930 1.531 . S
C934 H946 0.960 1_554 S
C934 H947 0.962 . S
C934 H948 0.960 . S
C935 C932 1.511 . S
C935 H949 0.961 . S
C935 H950 0.961 1_554 S
C935 H951 0.961 . S
C936 C937 1.370 . S
C936 C938 1.363 . S
C936 H952 0.931 . S
C937 C936 1.370 . S
C937 C941 1.408 . S
C938 C936 1.363 . S
C938 C939 1.370 . S
C938 C942 1.524 . S
C939 C931 1.503 1_556 S
C939 C938 1.370 . S
C939 C940 1.403 . S
C940 C939 1.403 . S
C940 C941 1.404 . S
C940 C943 1.539 . S
C941 C937 1.408 . S
C941 C940 1.404 . S
C941 H953 0.930 . S
C942 C938 1.524 . S
C942 H954 0.983 . S
C942 H955 0.918 1_556 S
C942 H956 0.961 . S
C943 C940 1.539 . S
C943 H957 0.958 . S
C943 H958 0.961 . S
C943 H959 0.968 . S
H944 C928 0.931 . S
H945 C933 0.929 . S
H946 C934 0.960 1_556 S
H947 C934 0.962 . S
H948 C934 0.960 . S
H949 C935 0.961 . S
H950 C935 0.961 1_556 S
H951 C935 0.961 . S
H952 C936 0.931 . S
H953 C941 0.930 . S
H954 C942 0.983 . S
H955 C942 0.918 1_554 S
H956 C942 0.961 . S
H957 C943 0.958 . S
H958 C943 0.961 . S
H959 C943 0.968 . S
C960 C961 1.391 . S
C960 C962 1.394 . S
C960 H976 0.931 . S
C961 C960 1.391 . S
C961 C965 1.376 . S
C962 C960 1.394 . S
C962 C963 1.369 . S
C962 C966 1.531 . S
C963 C962 1.369 . S
C963 C964 1.410 . S
C963 C971 1.503 . S
C964 C963 1.410 . S
C964 C965 1.392 . S
C964 C967 1.511 . S
C965 C961 1.376 . S
C965 C964 1.392 . S
C965 H977 0.929 . S
C966 C962 1.531 . S
C966 H978 0.960 . S
C966 H979 0.962 . S
C966 H980 0.960 . S
C967 C964 1.511 . S
C967 H981 0.961 . S
C967 H982 0.961 . S
C967 H983 0.961 . S
C968 C969 1.370 . S
C968 C970 1.363 . S
C968 H984 0.931 . S
C969 C968 1.370 . S
C969 C973 1.408 . S
C970 C968 1.363 . S
C970 C971 1.370 . S
C970 C974 1.524 . S
C971 C963 1.503 . S
C971 C970 1.370 . S
C971 C972 1.403 . S
C972 C971 1.403 . S
C972 C973 1.404 . S
C972 C975 1.539 . S
C973 C969 1.408 . S
C973 C972 1.404 . S
C973 H985 0.930 . S
C974 C970 1.524 . S
C974 H986 0.956 . S
C974 H987 0.961 . S
C974 H988 0.961 . S
C975 C972 1.539 . S
C975 H989 0.958 . S
C975 H990 0.961 . S
C975 H991 0.960 . S
H976 C960 0.931 . S
H977 C965 0.929 . S
H978 C966 0.960 . S
H979 C966 0.962 . S
H980 C966 0.960 . S
H981 C967 0.961 . S
H982 C967 0.961 . S
H983 C967 0.961 . S
H984 C968 0.931 . S
H985 C973 0.930 . S
H986 C974 0.956 . S
H987 C974 0.961 . S
H988 C974 0.961 . S
H989 C975 0.958 . S
H990 C975 0.961 . S
H991 C975 0.960 . S
C992 C993 1.391 . S
C992 C994 1.394 . S
C992 H1008 0.931 . S
C993 C992 1.391 . S
C993 C997 1.376 . S
C994 C992 1.394 . S
C994 C995 1.369 . S
C994 C998 1.531 . S
C995 C994 1.369 . S
C995 C996 1.410 . S
C995 C1003 1.503 1_554 S
C996 C995 1.410 . S
C996 C997 1.392 . S
C996 C999 1.511 . S
C997 C993 1.376 . S
C997 C996 1.392 . S
C997 H1009 0.929 . S
C998 C994 1.531 . S
C998 H1010 0.960 1_554 S
C998 H1011 0.962 . S
C998 H1012 0.960 . S
C999 C996 1.511 . S
C999 H1013 0.961 . S
C999 H1014 0.961 1_554 S
C999 H1015 0.961 . S
C1000 C1001 1.370 . S
C1000 C1002 1.363 . S
C1000 H1016 0.931 . S
C1001 C1000 1.370 . S
C1001 C1005 1.408 . S
C1002 C1000 1.363 . S
C1002 C1003 1.370 . S
C1002 C1006 1.524 . S
C1003 C995 1.503 1_556 S
C1003 C1002 1.370 . S
C1003 C1004 1.403 . S
C1004 C1003 1.403 . S
C1004 C1005 1.404 . S
C1004 C1007 1.539 . S
C1005 C1001 1.408 . S
C1005 C1004 1.404 . S
C1005 H1017 0.930 . S
C1006 C1002 1.524 . S
C1006 H1018 0.983 . S
C1006 H1019 0.918 1_556 S
C1006 H1020 0.961 . S
C1007 C1004 1.539 . S
C1007 H1021 0.958 . S
C1007 H1022 0.961 . S
C1007 H1023 0.968 . S
H1008 C992 0.931 . S
H1009 C997 0.929 . S
H1010 C998 0.960 1_556 S
H1011 C998 0.962 . S
H1012 C998 0.960 . S
H1013 C999 0.961 . S
H1014 C999 0.961 1_556 S
H1015 C999 0.961 . S
H1016 C1000 0.931 . S
H1017 C1005 0.930 . S
H1018 C1006 0.983 . S
H1019 C1006 0.918 1_554 S
H1020 C1006 0.961 . S
H1021 C1007 0.958 . S
H1022 C1007 0.961 . S
H1023 C1007 0.968 . S
C1024 C1025 1.391 . S
C1024 C1026 1.394 . S
C1024 H1040 0.931 . S
C1025 C1024 1.391 . S
C1025 C1029 1.376 . S
C1026 C1024 1.394 . S
C1026 C1027 1.369 . S
C1026 C1030 1.531 . S
C1027 C1026 1.369 . S
C1027 C1028 1.410 . S
C1027 C1035 1.503 . S
C1028 C1027 1.410 . S
C1028 C1029 1.392 . S
C1028 C1031 1.511 . S
C1029 C1025 1.376 . S
C1029 C1028 1.392 . S
C1029 H1041 0.929 . S
C1030 C1026 1.531 . S
C1030 H1042 0.960 . S
C1030 H1043 0.962 . S
C1030 H1044 0.960 . S
C1031 C1028 1.511 . S
C1031 H1045 0.961 . S
C1031 H1046 0.961 . S
C1031 H1047 0.961 . S
C1032 C1033 1.370 . S
C1032 C1034 1.363 . S
C1032 H1048 0.931 . S
C1033 C1032 1.370 . S
C1033 C1037 1.408 . S
C1034 C1032 1.363 . S
C1034 C1035 1.370 . S
C1034 C1038 1.524 . S
C1035 C1027 1.503 . S
C1035 C1034 1.370 . S
C1035 C1036 1.403 . S
C1036 C1035 1.403 . S
C1036 C1037 1.404 . S
C1036 C1039 1.539 . S
C1037 C1033 1.408 . S
C1037 C1036 1.404 . S
C1037 H1049 0.930 . S
C1038 C1034 1.524 . S
C1038 H1050 0.956 . S
C1038 H1051 0.961 . S
C1038 H1052 0.961 . S
C1039 C1036 1.539 . S
C1039 H1053 0.958 . S
C1039 H1054 0.961 . S
C1039 H1055 0.960 . S
H1040 C1024 0.931 . S
H1041 C1029 0.929 . S
H1042 C1030 0.960 . S
H1043 C1030 0.962 . S
H1044 C1030 0.960 . S
H1045 C1031 0.961 . S
H1046 C1031 0.961 . S
H1047 C1031 0.961 . S
H1048 C1032 0.931 . S
H1049 C1037 0.930 . S
H1050 C1038 0.956 . S
H1051 C1038 0.961 . S
H1052 C1038 0.961 . S
H1053 C1039 0.958 . S
H1054 C1039 0.961 . S
H1055 C1039 0.960 . S
C1056 C1057 1.391 . S
C1056 C1058 1.394 . S
C1056 H1072 0.931 . S
C1057 C1056 1.391 . S
C1057 C1061 1.376 . S
C1058 C1056 1.394 . S
C1058 C1059 1.369 . S
C1058 C1062 1.531 . S
C1059 C1058 1.369 . S
C1059 C1060 1.410 . S
C1059 C1067 1.503 1_455 S
C1060 C1059 1.410 . S
C1060 C1061 1.392 . S
C1060 C1063 1.511 1_455 S
C1061 C1057 1.376 . S
C1061 C1060 1.392 . S
C1061 H1073 0.929 . S
C1062 C1058 1.531 . S
C1062 H1074 0.960 . S
C1062 H1075 0.962 . S
C1062 H1076 0.960 . S
C1063 C1060 1.511 1_655 S
C1063 H1077 0.961 . S
C1063 H1078 0.961 . S
C1063 H1079 0.961 . S
C1064 C1065 1.370 . S
C1064 C1066 1.363 . S
C1064 H1080 0.931 . S
C1065 C1064 1.370 . S
C1065 C1069 1.408 . S
C1066 C1064 1.363 . S
C1066 C1067 1.370 . S
C1066 C1070 1.524 . S
C1067 C1059 1.503 1_655 S
C1067 C1066 1.370 . S
C1067 C1068 1.403 . S
C1068 C1067 1.403 . S
C1068 C1069 1.404 . S
C1068 C1071 1.539 1_655 S
C1069 C1065 1.408 . S
C1069 C1068 1.404 . S
C1069 H1081 0.930 . S
C1070 C1066 1.524 . S
C1070 H1082 0.956 . S
C1070 H1083 0.961 . S
C1070 H1084 0.961 . S
C1071 C1068 1.539 1_455 S
C1071 H1085 0.958 . S
C1071 H1086 0.961 1_455 S
C1071 H1087 0.960 . S
H1072 C1056 0.931 . S
H1073 C1061 0.929 . S
H1074 C1062 0.960 . S
H1075 C1062 0.962 . S
H1076 C1062 0.960 . S
H1077 C1063 0.961 . S
H1078 C1063 0.961 . S
H1079 C1063 0.961 . S
H1080 C1064 0.931 . S
H1081 C1069 0.930 . S
H1082 C1070 0.956 . S
H1083 C1070 0.961 . S
H1084 C1070 0.961 . S
H1085 C1071 0.958 . S
H1086 C1071 0.961 1_655 S
H1087 C1071 0.960 . S
C1088 C1089 1.391 . S
C1088 C1090 1.394 . S
C1088 H1104 0.931 . S
C1089 C1088 1.391 . S
C1089 C1093 1.376 . S
C1090 C1088 1.394 . S
C1090 C1091 1.369 . S
C1090 C1094 1.531 1_565 S
C1091 C1090 1.369 . S
C1091 C1092 1.410 . S
C1091 C1099 1.503 1_565 S
C1092 C1091 1.410 . S
C1092 C1093 1.392 . S
C1092 C1095 1.511 . S
C1093 C1089 1.376 . S
C1093 C1092 1.392 . S
C1093 H1105 0.929 . S
C1094 C1090 1.531 1_545 S
C1094 H1106 0.960 . S
C1094 H1107 0.962 . S
C1094 H1108 0.960 . S
C1095 C1092 1.511 . S
C1095 H1109 0.961 . S
C1095 H1110 0.961 . S
C1095 H1111 0.961 . S
C1096 C1097 1.370 . S
C1096 C1098 1.363 . S
C1096 H1112 0.931 . S
C1097 C1096 1.370 . S
C1097 C1101 1.408 . S
C1098 C1096 1.363 . S
C1098 C1099 1.370 . S
C1098 C1102 1.524 . S
C1099 C1091 1.503 1_545 S
C1099 C1098 1.370 . S
C1099 C1100 1.403 . S
C1100 C1099 1.403 . S
C1100 C1101 1.404 . S
C1100 C1103 1.539 . S
C1101 C1097 1.408 . S
C1101 C1100 1.404 . S
C1101 H1113 0.930 . S
C1102 C1098 1.524 . S
C1102 H1114 0.956 . S
C1102 H1115 0.961 1_545 S
C1102 H1116 0.961 . S
C1103 C1100 1.539 . S
C1103 H1117 0.958 . S
C1103 H1118 0.961 . S
C1103 H1119 0.960 1_545 S
H1104 C1088 0.931 . S
H1105 C1093 0.929 . S
H1106 C1094 0.960 . S
H1107 C1094 0.962 . S
H1108 C1094 0.960 . S
H1109 C1095 0.961 . S
H1110 C1095 0.961 . S
H1111 C1095 0.961 . S
H1112 C1096 0.931 . S
H1113 C1101 0.930 . S
H1114 C1102 0.956 . S
H1115 C1102 0.961 1_565 S
H1116 C1102 0.961 . S
H1117 C1103 0.958 . S
H1118 C1103 0.961 . S
H1119 C1103 0.960 1_565 S
C1120 C1121 1.391 . S
C1120 C1122 1.394 . S
C1120 H1136 0.931 . S
C1121 C1120 1.391 . S
C1121 C1125 1.376 . S
C1122 C1120 1.394 . S
C1122 C1123 1.369 . S
C1122 C1126 1.531 1_565 S
C1123 C1122 1.369 . S
C1123 C1124 1.410 . S
C1123 C1131 1.503 1_565 S
C1124 C1123 1.410 . S
C1124 C1125 1.392 . S
C1124 C1127 1.511 . S
C1125 C1121 1.376 . S
C1125 C1124 1.392 . S
C1125 H1137 0.929 . S
C1126 C1122 1.531 1_545 S
C1126 H1138 0.960 . S
C1126 H1139 0.962 . S
C1126 H1140 0.960 . S
C1127 C1124 1.511 . S
C1127 H1141 0.961 . S
C1127 H1142 0.961 . S
C1127 H1143 0.961 . S
C1128 C1129 1.370 . S
C1128 C1130 1.363 . S
C1128 H1144 0.931 . S
C1129 C1128 1.370 . S
C1129 C1133 1.408 . S
C1130 C1128 1.363 . S
C1130 C1131 1.370 . S
C1130 C1134 1.526 . S
C1131 C1123 1.503 1_545 S
C1131 C1130 1.370 . S
C1131 C1132 1.403 . S
C1132 C1131 1.403 . S
C1132 C1133 1.404 . S
C1132 C1135 1.539 . S
C1133 C1129 1.408 . S
C1133 C1132 1.404 . S
C1133 H1145 0.930 . S
C1134 C1130 1.526 . S
C1134 H1146 0.956 . S
C1134 H1147 0.958 1_545 S
C1134 H1148 0.961 . S
C1135 C1132 1.539 . S
C1135 H1149 0.958 . S
C1135 H1150 0.961 . S
C1135 H1151 0.960 . S
H1136 C1120 0.931 . S
H1137 C1125 0.929 . S
H1138 C1126 0.960 . S
H1139 C1126 0.962 . S
H1140 C1126 0.960 . S
H1141 C1127 0.961 . S
H1142 C1127 0.961 . S
H1143 C1127 0.961 . S
H1144 C1128 0.931 . S
H1145 C1133 0.930 . S
H1146 C1134 0.956 . S
H1147 C1134 0.958 1_565 S
H1148 C1134 0.961 . S
H1149 C1135 0.958 . S
H1150 C1135 0.961 . S
H1151 C1135 0.960 . S
C1152 C1153 1.391 . S
C1152 C1154 1.394 . S
C1152 H1168 0.931 . S
C1153 C1152 1.391 . S
C1153 C1157 1.376 . S
C1154 C1152 1.394 . S
C1154 C1155 1.369 . S
C1154 C1158 1.531 . S
C1155 C1154 1.369 . S
C1155 C1156 1.410 . S
C1155 C1163 1.503 1_455 S
C1156 C1155 1.410 . S
C1156 C1157 1.392 . S
C1156 C1159 1.511 1_455 S
C1157 C1153 1.376 . S
C1157 C1156 1.392 . S
C1157 H1169 0.929 . S
C1158 C1154 1.531 . S
C1158 H1170 0.960 . S
C1158 H1171 0.962 . S
C1158 H1172 0.960 . S
C1159 C1156 1.511 1_655 S
C1159 H1173 0.961 . S
C1159 H1174 0.961 . S
C1159 H1175 0.961 . S
C1160 C1161 1.370 . S
C1160 C1162 1.363 . S
C1160 H1176 0.931 . S
C1161 C1160 1.370 . S
C1161 C1165 1.408 . S
C1162 C1160 1.363 . S
C1162 C1163 1.370 . S
C1162 C1166 1.524 1_655 S
C1163 C1155 1.503 1_655 S
C1163 C1162 1.370 . S
C1163 C1164 1.403 . S
C1164 C1163 1.403 . S
C1164 C1165 1.404 . S
C1164 C1167 1.539 . S
C1165 C1161 1.408 . S
C1165 C1164 1.404 . S
C1165 H1177 0.930 . S
C1166 C1162 1.524 1_455 S
C1166 H1178 0.956 . S
C1166 H1179 0.961 . S
C1166 H1180 0.961 1_455 S
C1167 C1164 1.539 . S
C1167 H1181 0.958 . S
C1167 H1182 0.961 . S
C1167 H1183 0.960 . S
H1168 C1152 0.931 . S
H1169 C1157 0.929 . S
H1170 C1158 0.960 . S
H1171 C1158 0.962 . S
H1172 C1158 0.960 . S
H1173 C1159 0.961 . S
H1174 C1159 0.961 . S
H1175 C1159 0.961 . S
H1176 C1160 0.931 . S
H1177 C1165 0.930 . S
H1178 C1166 0.956 . S
H1179 C1166 0.961 . S
H1180 C1166 0.961 1_655 S
H1181 C1167 0.958 . S
H1182 C1167 0.961 . S
H1183 C1167 0.960 . S
C1184 C1185 1.391 . S
C1184 C1186 1.394 . S
C1184 H1200 0.931 . S
C1185 C1184 1.391 . S
C1185 C1189 1.376 . S
C1186 C1184 1.394 . S
C1186 C1187 1.369 . S
C1186 C1190 1.531 1_655 S
C1187 C1186 1.369 . S
C1187 C1188 1.410 . S
C1187 C1195 1.503 1_655 S
C1188 C1187 1.410 . S
C1188 C1189 1.392 . S
C1188 C1191 1.511 . S
C1189 C1185 1.376 . S
C1189 C1188 1.392 . S
C1189 H1201 0.929 . S
C1190 C1186 1.531 1_455 S
C1190 H1202 0.960 . S
C1190 H1203 0.962 1_455 S
C1190 H1204 0.960 . S
C1191 C1188 1.511 . S
C1191 H1205 0.961 . S
C1191 H1206 0.961 . S
C1191 H1207 0.961 1_655 S
C1192 C1193 1.370 . S
C1192 C1194 1.363 . S
C1192 H1208 0.931 . S
C1193 C1192 1.370 . S
C1193 C1197 1.408 . S
C1194 C1192 1.363 . S
C1194 C1195 1.370 . S
C1194 C1198 1.524 1_455 S
C1195 C1187 1.503 1_455 S
C1195 C1194 1.370 . S
C1195 C1196 1.403 . S
C1196 C1195 1.403 . S
C1196 C1197 1.404 . S
C1196 C1199 1.539 . S
C1197 C1193 1.408 . S
C1197 C1196 1.404 . S
C1197 H1209 0.930 . S
C1198 C1194 1.524 1_655 S
C1198 H1210 0.956 . S
C1198 H1211 0.961 . S
C1198 H1212 0.961 . S
C1199 C1196 1.539 . S
C1199 H1213 0.958 . S
C1199 H1214 0.961 . S
C1199 H1215 0.960 . S
H1200 C1184 0.931 . S
H1201 C1189 0.929 . S
H1202 C1190 0.960 . S
H1203 C1190 0.962 1_655 S
H1204 C1190 0.960 . S
H1205 C1191 0.961 . S
H1206 C1191 0.961 . S
H1207 C1191 0.961 1_455 S
H1208 C1192 0.931 . S
H1209 C1197 0.930 . S
H1210 C1198 0.956 . S
H1211 C1198 0.961 . S
H1212 C1198 0.961 . S
H1213 C1199 0.958 . S
H1214 C1199 0.961 . S
H1215 C1199 0.960 . S
C1216 C1217 1.391 . S
C1216 C1218 1.394 . S
C1216 H1232 0.931 . S
C1217 C1216 1.391 . S
C1217 C1221 1.376 . S
C1218 C1216 1.394 . S
C1218 C1219 1.369 . S
C1218 C1222 1.531 1_545 S
C1219 C1218 1.369 . S
C1219 C1220 1.410 . S
C1219 C1227 1.503 1_545 S
C1220 C1219 1.410 . S
C1220 C1221 1.392 . S
C1220 C1223 1.511 . S
C1221 C1217 1.376 . S
C1221 C1220 1.392 . S
C1221 H1233 0.929 . S
C1222 C1218 1.531 1_565 S
C1222 H1234 0.960 . S
C1222 H1235 0.962 . S
C1222 H1236 0.960 . S
C1223 C1220 1.511 . S
C1223 H1237 0.961 . S
C1223 H1238 0.961 . S
C1223 H1239 0.961 . S
C1224 C1225 1.370 . S
C1224 C1226 1.363 . S
C1224 H1240 0.931 . S
C1225 C1224 1.370 . S
C1225 C1229 1.408 . S
C1226 C1224 1.363 . S
C1226 C1227 1.370 . S
C1226 C1230 1.524 . S
C1227 C1219 1.503 1_565 S
C1227 C1226 1.370 . S
C1227 C1228 1.403 . S
C1228 C1227 1.403 . S
C1228 C1229 1.404 . S
C1228 C1231 1.539 . S
C1229 C1225 1.408 . S
C1229 C1228 1.404 . S
C1229 H1241 0.930 . S
C1230 C1226 1.524 . S
C1230 H1242 0.956 . S
C1230 H1243 0.961 1_565 S
C1230 H1244 0.961 . S
C1231 C1228 1.539 . S
C1231 H1245 0.958 . S
C1231 H1246 0.961 . S
C1231 H1247 0.960 1_565 S
H1232 C1216 0.931 . S
H1233 C1221 0.929 . S
H1234 C1222 0.960 . S
H1235 C1222 0.962 . S
H1236 C1222 0.960 . S
H1237 C1223 0.961 . S
H1238 C1223 0.961 . S
H1239 C1223 0.961 . S
H1240 C1224 0.931 . S
H1241 C1229 0.930 . S
H1242 C1230 0.956 . S
H1243 C1230 0.961 1_545 S
H1244 C1230 0.961 . S
H1245 C1231 0.958 . S
H1246 C1231 0.961 . S
H1247 C1231 0.960 1_545 S
C1248 C1249 1.391 . S
C1248 C1250 1.394 . S
C1248 H1264 0.931 . S
C1249 C1248 1.391 . S
C1249 C1253 1.376 . S
C1250 C1248 1.394 . S
C1250 C1251 1.369 . S
C1250 C1254 1.531 1_565 S
C1251 C1250 1.369 . S
C1251 C1252 1.410 . S
C1251 C1259 1.503 1_565 S
C1252 C1251 1.410 . S
C1252 C1253 1.392 . S
C1252 C1255 1.511 . S
C1253 C1249 1.376 . S
C1253 C1252 1.392 . S
C1253 H1265 0.929 . S
C1254 C1250 1.531 1_545 S
C1254 H1266 0.960 . S
C1254 H1267 0.962 . S
C1254 H1268 0.960 . S
C1255 C1252 1.511 . S
C1255 H1269 0.961 . S
C1255 H1270 0.961 . S
C1255 H1271 0.961 . S
C1256 C1257 1.370 . S
C1256 C1258 1.363 . S
C1256 H1272 0.931 . S
C1257 C1256 1.370 . S
C1257 C1261 1.408 . S
C1258 C1256 1.363 . S
C1258 C1259 1.370 . S
C1258 C1262 1.524 . S
C1259 C1251 1.503 1_545 S
C1259 C1258 1.370 . S
C1259 C1260 1.403 . S
C1260 C1259 1.403 . S
C1260 C1261 1.404 . S
C1260 C1263 1.539 1_545 S
C1261 C1257 1.408 . S
C1261 C1260 1.404 . S
C1261 H1273 0.930 . S
C1262 C1258 1.524 . S
C1262 H1274 0.956 . S
C1262 H1275 0.961 . S
C1262 H1276 0.961 . S
C1263 C1260 1.539 1_565 S
C1263 H1277 0.958 . S
C1263 H1278 0.961 . S
C1263 H1279 0.960 . S
H1264 C1248 0.931 . S
H1265 C1253 0.929 . S
H1266 C1254 0.960 . S
H1267 C1254 0.962 . S
H1268 C1254 0.960 . S
H1269 C1255 0.961 . S
H1270 C1255 0.961 . S
H1271 C1255 0.961 . S
H1272 C1256 0.931 . S
H1273 C1261 0.930 . S
H1274 C1262 0.956 . S
H1275 C1262 0.961 . S
H1276 C1262 0.961 . S
H1277 C1263 0.958 . S
H1278 C1263 0.961 . S
H1279 C1263 0.960 . S
C1280 C1281 1.391 . S
C1280 C1282 1.394 . S
C1280 H1296 0.931 . S
C1281 C1280 1.391 . S
C1281 C1285 1.376 . S
C1282 C1280 1.394 . S
C1282 C1283 1.369 . S
C1282 C1286 1.531 . S
C1283 C1282 1.369 . S
C1283 C1284 1.410 . S
C1283 C1291 1.503 1_455 S
C1284 C1283 1.410 . S
C1284 C1285 1.392 . S
C1284 C1287 1.511 1_455 S
C1285 C1281 1.376 . S
C1285 C1284 1.392 . S
C1285 H1297 0.929 . S
C1286 C1282 1.531 . S
C1286 H1298 0.960 1_455 S
C1286 H1299 0.962 . S
C1286 H1300 0.960 . S
C1287 C1284 1.511 1_655 S
C1287 H1301 0.961 1_655 S
C1287 H1302 0.961 . S
C1287 H1303 0.961 . S
C1288 C1289 1.370 . S
C1288 C1290 1.363 . S
C1288 H1304 0.931 . S
C1289 C1288 1.370 . S
C1289 C1293 1.408 . S
C1290 C1288 1.363 . S
C1290 C1291 1.370 . S
C1290 C1294 1.524 1_655 S
C1291 C1283 1.503 1_655 S
C1291 C1290 1.370 . S
C1291 C1292 1.403 . S
C1292 C1291 1.403 . S
C1292 C1293 1.404 . S
C1292 C1295 1.539 . S
C1293 C1289 1.408 . S
C1293 C1292 1.404 . S
C1293 H1305 0.930 . S
C1294 C1290 1.524 1_455 S
C1294 H1306 0.956 . S
C1294 H1307 0.961 . S
C1294 H1308 0.961 . S
C1295 C1292 1.539 . S
C1295 H1309 0.958 . S
C1295 H1310 0.961 . S
C1295 H1311 0.960 . S
H1296 C1280 0.931 . S
H1297 C1285 0.929 . S
H1298 C1286 0.960 1_655 S
H1299 C1286 0.962 . S
H1300 C1286 0.960 . S
H1301 C1287 0.961 1_455 S
H1302 C1287 0.961 . S
H1303 C1287 0.961 . S
H1304 C1288 0.931 . S
H1305 C1293 0.930 . S
H1306 C1294 0.956 . S
H1307 C1294 0.961 . S
H1308 C1294 0.961 . S
H1309 C1295 0.958 . S
H1310 C1295 0.961 . S
H1311 C1295 0.960 . S
C1312 C1313 1.391 . S
C1312 C1314 1.394 . S
C1312 H1328 0.931 . S
C1313 C1312 1.391 . S
C1313 C1317 1.376 . S
C1314 C1312 1.394 . S
C1314 C1315 1.369 . S
C1314 C1318 1.531 . S
C1315 C1314 1.369 . S
C1315 C1316 1.410 . S
C1315 C1323 1.503 . S
C1316 C1315 1.410 . S
C1316 C1317 1.392 . S
C1316 C1319 1.511 . S
C1317 C1313 1.376 . S
C1317 C1316 1.392 . S
C1317 H1329 0.929 . S
C1318 C1314 1.531 . S
C1318 H1330 0.960 . S
C1318 H1331 0.962 . S
C1318 H1332 0.960 . S
C1319 C1316 1.511 . S
C1319 H1333 0.961 . S
C1319 H1334 0.961 . S
C1319 H1335 0.961 . S
C1320 C1321 1.370 . S
C1320 C1322 1.363 . S
C1320 H1336 0.931 . S
C1321 C1320 1.370 . S
C1321 C1325 1.408 . S
C1322 C1320 1.363 . S
C1322 C1323 1.370 . S
C1322 C1326 1.524 . S
C1323 C1315 1.503 . S
C1323 C1322 1.370 . S
C1323 C1324 1.403 . S
C1324 C1323 1.403 . S
C1324 C1325 1.404 . S
C1324 C1327 1.539 . S
C1325 C1321 1.408 . S
C1325 C1324 1.404 . S
C1325 H1337 0.930 . S
C1326 C1322 1.524 . S
C1326 H1338 0.956 . S
C1326 H1339 0.961 . S
C1326 H1340 0.961 . S
C1327 C1324 1.539 . S
C1327 H1341 0.958 . S
C1327 H1342 0.961 . S
C1327 H1343 0.960 . S
H1328 C1312 0.931 . S
H1329 C1317 0.929 . S
H1330 C1318 0.960 . S
H1331 C1318 0.962 . S
H1332 C1318 0.960 . S
H1333 C1319 0.961 . S
H1334 C1319 0.961 . S
H1335 C1319 0.961 . S
H1336 C1320 0.931 . S
H1337 C1325 0.930 . S
H1338 C1326 0.956 . S
H1339 C1326 0.961 . S
H1340 C1326 0.961 . S
H1341 C1327 0.958 . S
H1342 C1327 0.961 . S
H1343 C1327 0.960 . S
C1344 C1345 1.391 . S
C1344 C1346 1.394 . S
C1344 H1360 0.931 . S
C1345 C1344 1.391 . S
C1345 C1349 1.376 . S
C1346 C1344 1.394 . S
C1346 C1347 1.369 . S
C1346 C1350 1.531 . S
C1347 C1346 1.369 . S
C1347 C1348 1.410 . S
C1347 C1355 1.503 . S
C1348 C1347 1.410 . S
C1348 C1349 1.392 . S
C1348 C1351 1.511 . S
C1349 C1345 1.376 . S
C1349 C1348 1.392 . S
C1349 H1361 0.929 . S
C1350 C1346 1.531 . S
C1350 H1362 0.960 . S
C1350 H1363 0.962 . S
C1350 H1364 0.960 . S
C1351 C1348 1.511 . S
C1351 H1365 0.961 . S
C1351 H1366 0.961 . S
C1351 H1367 0.961 . S
C1352 C1353 1.370 . S
C1352 C1354 1.363 . S
C1352 H1368 0.931 . S
C1353 C1352 1.370 . S
C1353 C1357 1.408 . S
C1354 C1352 1.363 . S
C1354 C1355 1.370 . S
C1354 C1358 1.524 . S
C1355 C1347 1.503 . S
C1355 C1354 1.370 . S
C1355 C1356 1.403 . S
C1356 C1355 1.403 . S
C1356 C1357 1.404 . S
C1356 C1359 1.539 . S
C1357 C1353 1.408 . S
C1357 C1356 1.404 . S
C1357 H1369 0.930 . S
C1358 C1354 1.524 . S
C1358 H1370 0.956 . S
C1358 H1371 0.961 . S
C1358 H1372 0.961 . S
C1359 C1356 1.539 . S
C1359 H1373 0.958 . S
C1359 H1374 0.961 . S
C1359 H1375 0.960 . S
H1360 C1344 0.931 . S
H1361 C1349 0.929 . S
H1362 C1350 0.960 . S
H1363 C1350 0.962 . S
H1364 C1350 0.960 . S
H1365 C1351 0.961 . S
H1366 C1351 0.961 . S
H1367 C1351 0.961 . S
H1368 C1352 0.931 . S
H1369 C1357 0.930 . S
H1370 C1358 0.956 . S
H1371 C1358 0.961 . S
H1372 C1358 0.961 . S
H1373 C1359 0.958 . S
H1374 C1359 0.961 . S
H1375 C1359 0.960 . S
C1376 C1377 1.391 . S
C1376 C1378 1.394 . S
C1376 H1392 0.931 . S
C1377 C1376 1.391 . S
C1377 C1381 1.376 . S
C1378 C1376 1.394 . S
C1378 C1379 1.369 . S
C1378 C1382 1.531 . S
C1379 C1378 1.369 . S
C1379 C1380 1.410 . S
C1379 C1387 1.503 . S
C1380 C1379 1.410 . S
C1380 C1381 1.392 . S
C1380 C1383 1.511 . S
C1381 C1377 1.376 . S
C1381 C1380 1.392 . S
C1381 H1393 0.929 . S
C1382 C1378 1.531 . S
C1382 H1394 0.960 . S
C1382 H1395 0.962 . S
C1382 H1396 0.960 . S
C1383 C1380 1.511 . S
C1383 H1397 0.961 . S
C1383 H1398 0.961 . S
C1383 H1399 0.961 . S
C1384 C1385 1.370 . S
C1384 C1386 1.363 . S
C1384 H1400 0.931 . S
C1385 C1384 1.370 . S
C1385 C1389 1.408 . S
C1386 C1384 1.363 . S
C1386 C1387 1.370 . S
C1386 C1390 1.524 . S
C1387 C1379 1.503 . S
C1387 C1386 1.370 . S
C1387 C1388 1.403 . S
C1388 C1387 1.403 . S
C1388 C1389 1.404 . S
C1388 C1391 1.539 . S
C1389 C1385 1.408 . S
C1389 C1388 1.404 . S
C1389 H1401 0.930 . S
C1390 C1386 1.524 . S
C1390 H1402 0.956 . S
C1390 H1403 0.961 . S
C1390 H1404 0.961 . S
C1391 C1388 1.539 . S
C1391 H1405 0.958 . S
C1391 H1406 0.961 . S
C1391 H1407 0.960 . S
H1392 C1376 0.931 . S
H1393 C1381 0.929 . S
H1394 C1382 0.960 . S
H1395 C1382 0.962 . S
H1396 C1382 0.960 . S
H1397 C1383 0.961 . S
H1398 C1383 0.961 . S
H1399 C1383 0.961 . S
H1400 C1384 0.931 . S
H1401 C1389 0.930 . S
H1402 C1390 0.956 . S
H1403 C1390 0.961 . S
H1404 C1390 0.961 . S
H1405 C1391 0.958 . S
H1406 C1391 0.961 . S
H1407 C1391 0.960 . S
C1408 C1409 1.391 . S
C1408 C1410 1.394 . S
C1408 H1424 0.931 . S
C1409 C1408 1.391 . S
C1409 C1413 1.376 . S
C1410 C1408 1.394 . S
C1410 C1411 1.369 . S
C1410 C1414 1.531 . S
C1411 C1410 1.369 . S
C1411 C1412 1.410 . S
C1411 C1419 1.503 . S
C1412 C1411 1.410 . S
C1412 C1413 1.392 . S
C1412 C1415 1.511 . S
C1413 C1409 1.376 . S
C1413 C1412 1.392 . S
C1413 H1425 0.929 . S
C1414 C1410 1.531 . S
C1414 H1426 0.960 . S
C1414 H1427 0.962 . S
C1414 H1428 0.960 . S
C1415 C1412 1.511 . S
C1415 H1429 0.961 . S
C1415 H1430 0.961 . S
C1415 H1431 0.961 . S
C1416 C1417 1.370 . S
C1416 C1418 1.363 . S
C1416 H1432 0.931 . S
C1417 C1416 1.370 . S
C1417 C1421 1.408 . S
C1418 C1416 1.363 . S
C1418 C1419 1.370 . S
C1418 C1422 1.524 . S
C1419 C1411 1.503 . S
C1419 C1418 1.370 . S
C1419 C1420 1.403 . S
C1420 C1419 1.403 . S
C1420 C1421 1.404 . S
C1420 C1423 1.539 . S
C1421 C1417 1.408 . S
C1421 C1420 1.404 . S
C1421 H1433 0.930 . S
C1422 C1418 1.524 . S
C1422 H1434 0.956 . S
C1422 H1435 0.961 . S
C1422 H1436 0.961 . S
C1423 C1420 1.539 . S
C1423 H1437 0.958 . S
C1423 H1438 0.961 . S
C1423 H1439 0.960 . S
H1424 C1408 0.931 . S
H1425 C1413 0.929 . S
H1426 C1414 0.960 . S
H1427 C1414 0.962 . S
H1428 C1414 0.960 . S
H1429 C1415 0.961 . S
H1430 C1415 0.961 . S
H1431 C1415 0.961 . S
H1432 C1416 0.931 . S
H1433 C1421 0.930 . S
H1434 C1422 0.956 . S
H1435 C1422 0.961 . S
H1436 C1422 0.961 . S
H1437 C1423 0.958 . S
H1438 C1423 0.961 . S
H1439 C1423 0.960 . S
C1440 C1441 1.391 . S
C1440 C1442 1.394 . S
C1440 H1456 0.931 . S
C1441 C1440 1.391 . S
C1441 C1445 1.376 . S
C1442 C1440 1.394 . S
C1442 C1443 1.369 . S
C1442 C1446 1.531 . S
C1443 C1442 1.369 . S
C1443 C1444 1.410 . S
C1443 C1451 1.503 . S
C1444 C1443 1.410 . S
C1444 C1445 1.392 . S
C1444 C1447 1.511 . S
C1445 C1441 1.376 . S
C1445 C1444 1.392 . S
C1445 H1457 0.929 . S
C1446 C1442 1.531 . S
C1446 H1458 0.960 . S
C1446 H1459 0.962 . S
C1446 H1460 0.960 . S
C1447 C1444 1.511 . S
C1447 H1461 0.961 . S
C1447 H1462 0.961 . S
C1447 H1463 0.961 . S
C1448 C1449 1.370 . S
C1448 C1450 1.363 . S
C1448 H1464 0.931 . S
C1449 C1448 1.370 . S
C1449 C1453 1.408 . S
C1450 C1448 1.363 . S
C1450 C1451 1.370 . S
C1450 C1454 1.524 . S
C1451 C1443 1.503 . S
C1451 C1450 1.370 . S
C1451 C1452 1.403 . S
C1452 C1451 1.403 . S
C1452 C1453 1.404 . S
C1452 C1455 1.539 . S
C1453 C1449 1.408 . S
C1453 C1452 1.404 . S
C1453 H1465 0.930 . S
C1454 C1450 1.524 . S
C1454 H1466 0.956 . S
C1454 H1467 0.961 . S
C1454 H1468 0.961 . S
C1455 C1452 1.539 . S
C1455 H1469 0.958 . S
C1455 H1470 0.961 . S
C1455 H1471 0.960 . S
H1456 C1440 0.931 . S
H1457 C1445 0.929 . S
H1458 C1446 0.960 . S
H1459 C1446 0.962 . S
H1460 C1446 0.960 . S
H1461 C1447 0.961 . S
H1462 C1447 0.961 . S
H1463 C1447 0.961 . S
H1464 C1448 0.931 . S
H1465 C1453 0.930 . S
H1466 C1454 0.956 . S
H1467 C1454 0.961 . S
H1468 C1454 0.961 . S
H1469 C1455 0.958 . S
H1470 C1455 0.961 . S
H1471 C1455 0.960 . S
C1472 C1473 1.391 . S
C1472 C1474 1.394 . S
C1472 H1488 0.931 . S
C1473 C1472 1.391 . S
C1473 C1477 1.376 . S
C1474 C1472 1.394 . S
C1474 C1475 1.369 . S
C1474 C1478 1.531 . S
C1475 C1474 1.369 . S
C1475 C1476 1.410 . S
C1475 C1483 1.503 . S
C1476 C1475 1.410 . S
C1476 C1477 1.392 . S
C1476 C1479 1.511 . S
C1477 C1473 1.376 . S
C1477 C1476 1.392 . S
C1477 H1489 0.929 . S
C1478 C1474 1.531 . S
C1478 H1490 0.960 . S
C1478 H1491 0.962 . S
C1478 H1492 0.960 . S
C1479 C1476 1.511 . S
C1479 H1493 0.961 . S
C1479 H1494 0.961 . S
C1479 H1495 0.961 . S
C1480 C1481 1.370 . S
C1480 C1482 1.363 . S
C1480 H1496 0.931 . S
C1481 C1480 1.370 . S
C1481 C1485 1.408 . S
C1482 C1480 1.363 . S
C1482 C1483 1.370 . S
C1482 C1486 1.524 . S
C1483 C1475 1.503 . S
C1483 C1482 1.370 . S
C1483 C1484 1.403 . S
C1484 C1483 1.403 . S
C1484 C1485 1.404 . S
C1484 C1487 1.539 . S
C1485 C1481 1.408 . S
C1485 C1484 1.404 . S
C1485 H1497 0.930 1_565 S
C1486 C1482 1.524 . S
C1486 H1498 0.956 . S
C1486 H1499 0.961 . S
C1486 H1500 0.961 . S
C1487 C1484 1.539 . S
C1487 H1501 0.958 . S
C1487 H1502 0.961 . S
C1487 H1503 0.960 . S
H1488 C1472 0.931 . S
H1489 C1477 0.929 . S
H1490 C1478 0.960 . S
H1491 C1478 0.962 . S
H1492 C1478 0.960 . S
H1493 C1479 0.961 . S
H1494 C1479 0.961 . S
H1495 C1479 0.961 . S
H1496 C1480 0.931 . S
H1497 C1485 0.930 1_545 S
H1498 C1486 0.956 . S
H1499 C1486 0.961 . S
H1500 C1486 0.961 . S
H1501 C1487 0.958 . S
H1502 C1487 0.961 . S
H1503 C1487 0.960 . S
C1504 C1505 1.391 . S
C1504 C1506 1.394 . S
C1504 H1520 0.931 . S
C1505 C1504 1.391 . S
C1505 C1509 1.376 . S
C1506 C1504 1.394 . S
C1506 C1507 1.369 . S
C1506 C1510 1.531 . S
C1507 C1506 1.369 . S
C1507 C1508 1.410 . S
C1507 C1515 1.503 . S
C1508 C1507 1.410 . S
C1508 C1509 1.392 . S
C1508 C1511 1.511 . S
C1509 C1505 1.376 . S
C1509 C1508 1.392 . S
C1509 H1521 0.929 . S
C1510 C1506 1.531 . S
C1510 H1522 0.960 . S
C1510 H1523 0.962 . S
C1510 H1524 0.960 . S
C1511 C1508 1.511 . S
C1511 H1525 0.961 . S
C1511 H1526 0.961 . S
C1511 H1527 0.961 . S
C1512 C1513 1.370 . S
C1512 C1514 1.363 . S
C1512 H1528 0.931 . S
C1513 C1512 1.370 . S
C1513 C1517 1.408 . S
C1514 C1512 1.363 . S
C1514 C1515 1.370 . S
C1514 C1518 1.524 . S
C1515 C1507 1.503 . S
C1515 C1514 1.370 . S
C1515 C1516 1.403 . S
C1516 C1515 1.403 . S
C1516 C1517 1.404 . S
C1516 C1519 1.539 . S
C1517 C1513 1.408 . S
C1517 C1516 1.404 . S
C1517 H1529 0.930 . S
C1518 C1514 1.524 . S
C1518 H1530 0.956 . S
C1518 H1531 0.961 . S
C1518 H1532 0.961 . S
C1519 C1516 1.539 . S
C1519 H1533 0.958 . S
C1519 H1534 0.961 . S
C1519 H1535 0.960 . S
H1520 C1504 0.931 . S
H1521 C1509 0.929 . S
H1522 C1510 0.960 . S
H1523 C1510 0.962 . S
H1524 C1510 0.960 . S
H1525 C1511 0.961 . S
H1526 C1511 0.961 . S
H1527 C1511 0.961 . S
H1528 C1512 0.931 . S
H1529 C1517 0.930 . S
H1530 C1518 0.956 . S
H1531 C1518 0.961 . S
H1532 C1518 0.961 . S
H1533 C1519 0.958 . S
H1534 C1519 0.961 . S
H1535 C1519 0.960 . S
C1536 C1537 1.391 . S
C1536 C1538 1.394 . S
C1536 H1552 0.931 . S
C1537 C1536 1.391 . S
C1537 C1541 1.376 . S
C1538 C1536 1.394 . S
C1538 C1539 1.369 . S
C1538 C1542 1.531 . S
C1539 C1538 1.369 . S
C1539 C1540 1.410 . S
C1539 C1547 1.503 . S
C1540 C1539 1.410 . S
C1540 C1541 1.392 . S
C1540 C1543 1.511 . S
C1541 C1537 1.376 . S
C1541 C1540 1.392 . S
C1541 H1553 0.929 . S
C1542 C1538 1.531 . S
C1542 H1554 0.960 . S
C1542 H1555 0.962 . S
C1542 H1556 0.960 . S
C1543 C1540 1.511 . S
C1543 H1557 0.961 . S
C1543 H1558 0.961 . S
C1543 H1559 0.961 . S
C1544 C1545 1.370 . S
C1544 C1546 1.363 . S
C1544 H1560 0.931 . S
C1545 C1544 1.370 . S
C1545 C1549 1.408 . S
C1546 C1544 1.363 . S
C1546 C1547 1.370 . S
C1546 C1550 1.524 . S
C1547 C1539 1.503 . S
C1547 C1546 1.370 . S
C1547 C1548 1.403 . S
C1548 C1547 1.403 . S
C1548 C1549 1.404 . S
C1548 C1551 1.539 . S
C1549 C1545 1.408 . S
C1549 C1548 1.404 . S
C1549 H1561 0.930 . S
C1550 C1546 1.524 . S
C1550 H1562 0.956 . S
C1550 H1563 0.961 . S
C1550 H1564 0.961 . S
C1551 C1548 1.539 . S
C1551 H1565 0.958 . S
C1551 H1566 0.961 . S
C1551 H1567 0.960 . S
H1552 C1536 0.931 . S
H1553 C1541 0.929 . S
H1554 C1542 0.960 . S
H1555 C1542 0.962 . S
H1556 C1542 0.960 . S
H1557 C1543 0.961 . S
H1558 C1543 0.961 . S
H1559 C1543 0.961 . S
H1560 C1544 0.931 . S
H1561 C1549 0.930 . S
H1562 C1550 0.956 . S
H1563 C1550 0.961 . S
H1564 C1550 0.961 . S
H1565 C1551 0.958 . S
H1566 C1551 0.961 . S
H1567 C1551 0.960 . S
C1568 C1569 1.391 . S
C1568 C1570 1.394 . S
C1568 H1584 0.931 . S
C1569 C1568 1.391 . S
C1569 C1573 1.376 . S
C1570 C1568 1.394 . S
C1570 C1571 1.369 . S
C1570 C1574 1.531 . S
C1571 C1570 1.369 . S
C1571 C1572 1.410 . S
C1571 C1579 1.503 . S
C1572 C1571 1.410 . S
C1572 C1573 1.392 . S
C1572 C1575 1.511 . S
C1573 C1569 1.376 . S
C1573 C1572 1.392 . S
C1573 H1585 0.929 . S
C1574 C1570 1.531 . S
C1574 H1586 0.960 . S
C1574 H1587 0.962 . S
C1574 H1588 0.960 . S
C1575 C1572 1.511 . S
C1575 H1589 0.961 . S
C1575 H1590 0.961 . S
C1575 H1591 0.961 . S
C1576 C1577 1.370 . S
C1576 C1578 1.363 . S
C1576 H1592 0.931 . S
C1577 C1576 1.370 . S
C1577 C1581 1.408 . S
C1578 C1576 1.363 . S
C1578 C1579 1.370 . S
C1578 C1582 1.524 . S
C1579 C1571 1.503 . S
C1579 C1578 1.370 . S
C1579 C1580 1.403 . S
C1580 C1579 1.403 . S
C1580 C1581 1.404 . S
C1580 C1583 1.539 . S
C1581 C1577 1.408 . S
C1581 C1580 1.404 . S
C1581 H1593 0.930 . S
C1582 C1578 1.524 . S
C1582 H1594 0.956 . S
C1582 H1595 0.961 . S
C1582 H1596 0.961 . S
C1583 C1580 1.539 . S
C1583 H1597 0.958 . S
C1583 H1598 0.961 . S
C1583 H1599 0.960 . S
H1584 C1568 0.931 . S
H1585 C1573 0.929 . S
H1586 C1574 0.960 . S
H1587 C1574 0.962 . S
H1588 C1574 0.960 . S
H1589 C1575 0.961 . S
H1590 C1575 0.961 . S
H1591 C1575 0.961 . S
H1592 C1576 0.931 . S
H1593 C1581 0.930 . S
H1594 C1582 0.956 . S
H1595 C1582 0.961 . S
H1596 C1582 0.961 . S
H1597 C1583 0.958 . S
H1598 C1583 0.961 . S
H1599 C1583 0.960 . S
C1600 C1601 1.391 . S
C1600 C1602 1.394 . S
C1600 H1616 0.931 . S
C1601 C1600 1.391 . S
C1601 C1605 1.376 . S
C1602 C1600 1.394 . S
C1602 C1603 1.369 . S
C1602 C1606 1.531 . S
C1603 C1602 1.369 . S
C1603 C1604 1.410 . S
C1603 C1611 1.503 . S
C1604 C1603 1.410 . S
C1604 C1605 1.392 . S
C1604 C1607 1.511 . S
C1605 C1601 1.376 . S
C1605 C1604 1.392 . S
C1605 H1617 0.929 . S
C1606 C1602 1.531 . S
C1606 H1618 0.960 . S
C1606 H1619 0.962 . S
C1606 H1620 0.960 . S
C1607 C1604 1.511 . S
C1607 H1621 0.961 . S
C1607 H1622 0.961 . S
C1607 H1623 0.961 . S
C1608 C1609 1.370 . S
C1608 C1610 1.363 . S
C1608 H1624 0.931 . S
C1609 C1608 1.370 . S
C1609 C1613 1.408 . S
C1610 C1608 1.363 . S
C1610 C1611 1.370 . S
C1610 C1614 1.524 . S
C1611 C1603 1.503 . S
C1611 C1610 1.370 . S
C1611 C1612 1.403 . S
C1612 C1611 1.403 . S
C1612 C1613 1.404 . S
C1612 C1615 1.539 . S
C1613 C1609 1.408 . S
C1613 C1612 1.404 . S
C1613 H1625 0.930 . S
C1614 C1610 1.524 . S
C1614 H1626 0.956 . S
C1614 H1627 0.961 . S
C1614 H1628 0.961 . S
C1615 C1612 1.539 . S
C1615 H1629 0.958 . S
C1615 H1630 0.961 . S
C1615 H1631 0.960 . S
H1616 C1600 0.931 . S
H1617 C1605 0.929 . S
H1618 C1606 0.960 . S
H1619 C1606 0.962 . S
H1620 C1606 0.960 . S
H1621 C1607 0.961 . S
H1622 C1607 0.961 . S
H1623 C1607 0.961 . S
H1624 C1608 0.931 . S
H1625 C1613 0.930 . S
H1626 C1614 0.956 . S
H1627 C1614 0.961 . S
H1628 C1614 0.961 . S
H1629 C1615 0.958 . S
H1630 C1615 0.961 . S
H1631 C1615 0.960 . S
C1632 C1633 1.391 . S
C1632 C1634 1.394 . S
C1632 H1648 0.931 . S
C1633 C1632 1.391 . S
C1633 C1637 1.376 . S
C1634 C1632 1.394 . S
C1634 C1635 1.369 . S
C1634 C1638 1.531 . S
C1635 C1634 1.369 . S
C1635 C1636 1.410 . S
C1635 C1643 1.503 . S
C1636 C1635 1.410 . S
C1636 C1637 1.392 . S
C1636 C1639 1.511 . S
C1637 C1633 1.376 . S
C1637 C1636 1.392 . S
C1637 H1649 0.929 . S
C1638 C1634 1.531 . S
C1638 H1650 0.960 . S
C1638 H1651 0.962 . S
C1638 H1652 0.960 . S
C1639 C1636 1.511 . S
C1639 H1653 0.961 . S
C1639 H1654 0.961 . S
C1639 H1655 0.961 . S
C1640 C1641 1.370 . S
C1640 C1642 1.363 . S
C1640 H1656 0.931 . S
C1641 C1640 1.370 . S
C1641 C1645 1.408 . S
C1642 C1640 1.363 . S
C1642 C1643 1.370 . S
C1642 C1646 1.524 . S
C1643 C1635 1.503 . S
C1643 C1642 1.370 . S
C1643 C1644 1.403 . S
C1644 C1643 1.403 . S
C1644 C1645 1.404 . S
C1644 C1647 1.539 . S
C1645 C1641 1.408 . S
C1645 C1644 1.404 . S
C1645 H1657 0.930 . S
C1646 C1642 1.524 . S
C1646 H1658 0.956 . S
C1646 H1659 0.961 . S
C1646 H1660 0.961 . S
C1647 C1644 1.539 . S
C1647 H1661 0.958 . S
C1647 H1662 0.961 . S
C1647 H1663 0.960 . S
H1648 C1632 0.931 . S
H1649 C1637 0.929 . S
H1650 C1638 0.960 . S
H1651 C1638 0.962 . S
H1652 C1638 0.960 . S
H1653 C1639 0.961 . S
H1654 C1639 0.961 . S
H1655 C1639 0.961 . S
H1656 C1640 0.931 . S
H1657 C1645 0.930 . S
H1658 C1646 0.956 . S
H1659 C1646 0.961 . S
H1660 C1646 0.961 . S
H1661 C1647 0.958 . S
H1662 C1647 0.961 . S
H1663 C1647 0.960 . S
C1664 C1665 1.391 . S
C1664 C1666 1.394 . S
C1664 H1680 0.931 . S
C1665 C1664 1.391 . S
C1665 C1669 1.376 . S
C1666 C1664 1.394 . S
C1666 C1667 1.369 . S
C1666 C1670 1.531 . S
C1667 C1666 1.369 . S
C1667 C1668 1.410 . S
C1667 C1675 1.503 . S
C1668 C1667 1.410 . S
C1668 C1669 1.392 . S
C1668 C1671 1.511 . S
C1669 C1665 1.376 . S
C1669 C1668 1.392 . S
C1669 H1681 0.929 . S
C1670 C1666 1.531 . S
C1670 H1682 0.960 . S
C1670 H1683 0.962 . S
C1670 H1684 0.960 . S
C1671 C1668 1.511 . S
C1671 H1685 0.961 . S
C1671 H1686 0.961 . S
C1671 H1687 0.961 . S
C1672 C1673 1.370 . S
C1672 C1674 1.363 . S
C1672 H1688 0.931 . S
C1673 C1672 1.370 . S
C1673 C1677 1.408 . S
C1674 C1672 1.363 . S
C1674 C1675 1.370 . S
C1674 C1678 1.524 . S
C1675 C1667 1.503 . S
C1675 C1674 1.370 . S
C1675 C1676 1.403 . S
C1676 C1675 1.403 . S
C1676 C1677 1.404 . S
C1676 C1679 1.539 . S
C1677 C1673 1.408 . S
C1677 C1676 1.404 . S
C1677 H1689 0.930 . S
C1678 C1674 1.524 . S
C1678 H1690 0.956 . S
C1678 H1691 0.961 . S
C1678 H1692 0.961 . S
C1679 C1676 1.539 . S
C1679 H1693 0.958 . S
C1679 H1694 0.961 . S
C1679 H1695 0.960 . S
H1680 C1664 0.931 . S
H1681 C1669 0.929 . S
H1682 C1670 0.960 . S
H1683 C1670 0.962 . S
H1684 C1670 0.960 . S
H1685 C1671 0.961 . S
H1686 C1671 0.961 . S
H1687 C1671 0.961 . S
H1688 C1672 0.931 . S
H1689 C1677 0.930 . S
H1690 C1678 0.956 . S
H1691 C1678 0.961 . S
H1692 C1678 0.961 . S
H1693 C1679 0.958 . S
H1694 C1679 0.961 . S
H1695 C1679 0.960 . S
C1696 C1697 1.391 . S
C1696 C1698 1.394 . S
C1696 H1712 0.931 . S
C1697 C1696 1.391 . S
C1697 C1701 1.376 . S
C1698 C1696 1.394 . S
C1698 C1699 1.369 . S
C1698 C1702 1.531 . S
C1699 C1698 1.369 . S
C1699 C1700 1.410 . S
C1699 C1707 1.503 . S
C1700 C1699 1.410 . S
C1700 C1701 1.392 . S
C1700 C1703 1.511 . S
C1701 C1697 1.376 . S
C1701 C1700 1.392 . S
C1701 H1713 0.929 . S
C1702 C1698 1.531 . S
C1702 H1714 0.960 . S
C1702 H1715 0.962 . S
C1702 H1716 0.960 . S
C1703 C1700 1.511 . S
C1703 H1717 0.961 . S
C1703 H1718 0.961 . S
C1703 H1719 0.961 . S
C1704 C1705 1.370 . S
C1704 C1706 1.363 . S
C1704 H1720 0.931 . S
C1705 C1704 1.370 . S
C1705 C1709 1.408 . S
C1706 C1704 1.363 . S
C1706 C1707 1.370 . S
C1706 C1710 1.524 . S
C1707 C1699 1.503 . S
C1707 C1706 1.370 . S
C1707 C1708 1.403 . S
C1708 C1707 1.403 . S
C1708 C1709 1.404 . S
C1708 C1711 1.539 . S
C1709 C1705 1.408 . S
C1709 C1708 1.404 . S
C1709 H1721 0.930 . S
C1710 C1706 1.524 . S
C1710 H1722 0.956 . S
C1710 H1723 0.961 . S
C1710 H1724 0.961 . S
C1711 C1708 1.539 . S
C1711 H1725 0.958 . S
C1711 H1726 0.961 . S
C1711 H1727 0.960 . S
H1712 C1696 0.931 . S
H1713 C1701 0.929 . S
H1714 C1702 0.960 . S
H1715 C1702 0.962 . S
H1716 C1702 0.960 . S
H1717 C1703 0.961 . S
H1718 C1703 0.961 . S
H1719 C1703 0.961 . S
H1720 C1704 0.931 . S
H1721 C1709 0.930 . S
H1722 C1710 0.956 . S
H1723 C1710 0.961 . S
H1724 C1710 0.961 . S
H1725 C1711 0.958 . S
H1726 C1711 0.961 . S
H1727 C1711 0.960 . S
C1728 C1729 1.391 . S
C1728 C1730 1.394 . S
C1728 H1744 0.931 . S
C1729 C1728 1.391 . S
C1729 C1733 1.376 . S
C1730 C1728 1.394 . S
C1730 C1731 1.369 . S
C1730 C1734 1.531 . S
C1731 C1730 1.369 . S
C1731 C1732 1.410 . S
C1731 C1739 1.503 . S
C1732 C1731 1.410 . S
C1732 C1733 1.392 . S
C1732 C1735 1.511 . S
C1733 C1729 1.376 . S
C1733 C1732 1.392 . S
C1733 H1745 0.929 . S
C1734 C1730 1.531 . S
C1734 H1746 0.960 . S
C1734 H1747 0.962 . S
C1734 H1748 0.960 . S
C1735 C1732 1.511 . S
C1735 H1749 0.961 . S
C1735 H1750 0.961 . S
C1735 H1751 0.961 . S
C1736 C1737 1.370 . S
C1736 C1738 1.363 . S
C1736 H1752 0.931 . S
C1737 C1736 1.370 . S
C1737 C1741 1.408 . S
C1738 C1736 1.363 . S
C1738 C1739 1.370 . S
C1738 C1742 1.524 . S
C1739 C1731 1.503 . S
C1739 C1738 1.370 . S
C1739 C1740 1.403 . S
C1740 C1739 1.403 . S
C1740 C1741 1.404 . S
C1740 C1743 1.539 . S
C1741 C1737 1.408 . S
C1741 C1740 1.404 . S
C1741 H1753 0.930 . S
C1742 C1738 1.524 . S
C1742 H1754 0.956 . S
C1742 H1755 0.961 . S
C1742 H1756 0.961 . S
C1743 C1740 1.539 . S
C1743 H1757 0.958 . S
C1743 H1758 0.961 . S
C1743 H1759 0.960 . S
H1744 C1728 0.931 . S
H1745 C1733 0.929 . S
H1746 C1734 0.960 . S
H1747 C1734 0.962 . S
H1748 C1734 0.960 . S
H1749 C1735 0.961 . S
H1750 C1735 0.961 . S
H1751 C1735 0.961 . S
H1752 C1736 0.931 . S
H1753 C1741 0.930 . S
H1754 C1742 0.956 . S
H1755 C1742 0.961 . S
H1756 C1742 0.961 . S
H1757 C1743 0.958 . S
H1758 C1743 0.961 . S
H1759 C1743 0.960 . S
C1760 C1761 1.391 . S
C1760 C1762 1.394 . S
C1760 H1776 0.931 . S
C1761 C1760 1.391 . S
C1761 C1765 1.376 . S
C1762 C1760 1.394 . S
C1762 C1763 1.369 . S
C1762 C1766 1.531 . S
C1763 C1762 1.369 . S
C1763 C1764 1.410 . S
C1763 C1771 1.503 . S
C1764 C1763 1.410 . S
C1764 C1765 1.392 . S
C1764 C1767 1.511 . S
C1765 C1761 1.376 . S
C1765 C1764 1.392 . S
C1765 H1777 0.929 . S
C1766 C1762 1.531 . S
C1766 H1778 0.960 . S
C1766 H1779 0.962 . S
C1766 H1780 0.960 . S
C1767 C1764 1.511 . S
C1767 H1781 0.961 . S
C1767 H1782 0.961 . S
C1767 H1783 0.961 . S
C1768 C1769 1.370 . S
C1768 C1770 1.363 . S
C1768 H1784 0.931 . S
C1769 C1768 1.370 . S
C1769 C1773 1.408 . S
C1770 C1768 1.363 . S
C1770 C1771 1.370 . S
C1770 C1774 1.524 . S
C1771 C1763 1.503 . S
C1771 C1770 1.370 . S
C1771 C1772 1.403 . S
C1772 C1771 1.403 . S
C1772 C1773 1.404 . S
C1772 C1775 1.539 . S
C1773 C1769 1.408 . S
C1773 C1772 1.404 . S
C1773 H1785 0.915 1_655 S
C1774 C1770 1.524 . S
C1774 H1786 0.956 . S
C1774 H1787 0.961 . S
C1774 H1788 0.961 . S
C1775 C1772 1.539 . S
C1775 H1789 0.958 . S
C1775 H1790 0.961 . S
C1775 H1791 0.960 . S
H1776 C1760 0.931 . S
H1777 C1765 0.929 . S
H1778 C1766 0.960 . S
H1779 C1766 0.962 . S
H1780 C1766 0.960 . S
H1781 C1767 0.961 . S
H1782 C1767 0.961 . S
H1783 C1767 0.961 . S
H1784 C1768 0.931 . S
H1785 C1773 0.915 1_455 S
H1786 C1774 0.956 . S
H1787 C1774 0.961 . S
H1788 C1774 0.961 . S
H1789 C1775 0.958 . S
H1790 C1775 0.961 . S
H1791 C1775 0.960 . S
C1792 C1793 1.391 . S
C1792 C1794 1.394 . S
C1792 H1808 0.931 . S
C1793 C1792 1.391 . S
C1793 C1797 1.376 . S
C1794 C1792 1.394 . S
C1794 C1795 1.369 . S
C1794 C1798 1.531 . S
C1795 C1794 1.369 . S
C1795 C1796 1.410 . S
C1795 C1803 1.503 . S
C1796 C1795 1.410 . S
C1796 C1797 1.392 . S
C1796 C1799 1.511 . S
C1797 C1793 1.376 . S
C1797 C1796 1.392 . S
C1797 H1809 0.929 . S
C1798 C1794 1.531 . S
C1798 H1810 0.960 . S
C1798 H1811 0.962 . S
C1798 H1812 0.960 . S
C1799 C1796 1.511 . S
C1799 H1813 0.961 . S
C1799 H1814 0.961 . S
C1799 H1815 0.961 . S
C1800 C1801 1.370 . S
C1800 C1802 1.363 . S
C1800 H1816 0.931 . S
C1801 C1800 1.370 . S
C1801 C1805 1.408 . S
C1802 C1800 1.363 . S
C1802 C1803 1.370 . S
C1802 C1806 1.524 . S
C1803 C1795 1.503 . S
C1803 C1802 1.370 . S
C1803 C1804 1.403 . S
C1804 C1803 1.403 . S
C1804 C1805 1.404 . S
C1804 C1807 1.539 . S
C1805 C1801 1.408 . S
C1805 C1804 1.404 . S
C1805 H1817 0.930 . S
C1806 C1802 1.524 . S
C1806 H1818 0.956 . S
C1806 H1819 0.961 . S
C1806 H1820 0.961 . S
C1807 C1804 1.539 . S
C1807 H1821 0.958 . S
C1807 H1822 0.961 . S
C1807 H1823 0.960 . S
H1808 C1792 0.931 . S
H1809 C1797 0.929 . S
H1810 C1798 0.960 . S
H1811 C1798 0.962 . S
H1812 C1798 0.960 . S
H1813 C1799 0.961 . S
H1814 C1799 0.961 . S
H1815 C1799 0.961 . S
H1816 C1800 0.931 . S
H1817 C1805 0.930 . S
H1818 C1806 0.956 . S
H1819 C1806 0.961 . S
H1820 C1806 0.961 . S
H1821 C1807 0.958 . S
H1822 C1807 0.961 . S
H1823 C1807 0.960 . S
C545 C5 1.710 . S
C553 C243 1.718 . S
C577 C141 1.715 . S
C585 C39 1.716 . S
C609 C175 1.723 . S
C617 C73 1.709 . S
C641 C209 1.714 . S
C649 C107 1.716 . S
C673 C277 1.715 . S
C681 C515 1.708 . S
C705 C311 1.703 . S
C713 C413 1.711 . S
C737 C447 1.719 . S
C745 C345 1.716 . S
C769 C379 1.720 . S
C777 C481 1.715 . S
C801 C9 1.454 . S
C809 C349 1.477 . S
C833 C383 1.483 . S
C841 C43 1.484 . S
C865 C281 1.503 . S
C873 C77 1.493 . S
C897 C315 1.512 . S
C905 C111 1.501 . S
C929 C485 1.497 . S
C937 C145 1.495 . S
C961 C519 1.515 . S
C969 C179 1.502 . S
C993 C417 1.465 . S
C1001 C213 1.482 . S
C1025 C451 1.460 . S
C1033 C247 1.475 . S
C1057 C33 0.724 . S
C1065 C101 0.700 . S
C1089 C135 0.733 . S
C1097 C67 0.710 . S
C1121 C237 0.713 . S
C1129 C169 0.704 . S
C1153 C271 0.747 . S
C1161 C203 0.703 . S
C1185 C305 0.655 . S
C1193 C373 0.730 . S
C1217 C407 0.706 . S
C1225 C339 0.700 . S
C1249 C441 0.693 . S
C1257 C509 0.730 . S
C1281 C475 0.758 . S
C1289 C543 0.688 . S
C1313 C478 1.388 . S
C1321 C20 1.399 . S
C1345 C54 1.387 . S
C1353 C512 1.385 . S
C1377 C410 1.395 . S
C1385 C88 1.396 . S
C1409 C444 1.375 . S
C1417 C122 1.398 . S
C1441 C342 1.392 1_655 S
C1449 C156 1.395 . S
C1473 C190 1.400 . S
C1481 C376 1.389 1_565 S
C1505 C274 1.369 1_455 S
C1513 C224 1.397 . S
C1537 C258 1.387 . S
C1545 C308 1.386 1_545 S
C1569 C206 1.371 . S
C1577 C292 1.393 . S
C1601 C240 1.368 . S
C1609 C326 1.393 . S
C1633 C138 1.380 . S
C1641 C360 1.393 . S
C1665 C394 1.395 . S
C1673 C172 1.378 . S
C1697 C70 1.368 1_455 S
C1705 C428 1.398 . S
C1729 C462 1.390 . S
C1737 C104 1.390 1_545 S
C1761 C496 1.400 . S
C1769 C2 1.386 1_655 S
C1793 C36 1.388 1_565 S
C1801 C530 1.399 . S
