# Generated by pormake.
# Topology upb, (4)-cn, num edge types: 1
# Building blocks:
#     Node 0, Type 0, BuildingBlock: NAHDIM_clean_sbu_0, # of connection points: 4
#     Node 1, Type 0, BuildingBlock: NAHDIM_clean_sbu_0, # of connection points: 4
#     Node 2, Type 0, BuildingBlock: NAHDIM_clean_sbu_0, # of connection points: 4
#     Node 3, Type 0, BuildingBlock: NAHDIM_clean_sbu_0, # of connection points: 4
#     Node 4, Type 0, BuildingBlock: NAHDIM_clean_sbu_0, # of connection points: 4
#     Node 5, Type 0, BuildingBlock: NAHDIM_clean_sbu_0, # of connection points: 4
#     Node 6, Type 0, BuildingBlock: NAHDIM_clean_sbu_0, # of connection points: 4
#     Node 7, Type 0, BuildingBlock: NAHDIM_clean_sbu_0, # of connection points: 4
#     Node 8, Type 0, BuildingBlock: NAHDIM_clean_sbu_0, # of connection points: 4
#     Node 9, Type 0, BuildingBlock: NAHDIM_clean_sbu_0, # of connection points: 4
#     Node 10, Type 0, BuildingBlock: NAHDIM_clean_sbu_0, # of connection points: 4
#     Node 11, Type 0, BuildingBlock: NAHDIM_clean_sbu_0, # of connection points: 4
#     Node 12, Type 0, BuildingBlock: NAHDIM_clean_sbu_0, # of connection points: 4
#     Node 13, Type 0, BuildingBlock: NAHDIM_clean_sbu_0, # of connection points: 4
#     Node 14, Type 0, BuildingBlock: NAHDIM_clean_sbu_0, # of connection points: 4
#     Node 15, Type 0, BuildingBlock: NAHDIM_clean_sbu_0, # of connection points: 4
#     Edge 16, Type (0, 0), BuildingBlock: CIFDUS_clean_linker_0, # of connection points: 2
#     Edge 17, Type (0, 0), BuildingBlock: CIFDUS_clean_linker_0, # of connection points: 2
#     Edge 18, Type (0, 0), BuildingBlock: CIFDUS_clean_linker_0, # of connection points: 2
#     Edge 19, Type (0, 0), BuildingBlock: CIFDUS_clean_linker_0, # of connection points: 2
#     Edge 20, Type (0, 0), BuildingBlock: CIFDUS_clean_linker_0, # of connection points: 2
#     Edge 21, Type (0, 0), BuildingBlock: CIFDUS_clean_linker_0, # of connection points: 2
#     Edge 22, Type (0, 0), BuildingBlock: CIFDUS_clean_linker_0, # of connection points: 2
#     Edge 23, Type (0, 0), BuildingBlock: CIFDUS_clean_linker_0, # of connection points: 2
#     Edge 24, Type (0, 0), BuildingBlock: CIFDUS_clean_linker_0, # of connection points: 2
#     Edge 25, Type (0, 0), BuildingBlock: CIFDUS_clean_linker_0, # of connection points: 2
#     Edge 26, Type (0, 0), BuildingBlock: CIFDUS_clean_linker_0, # of connection points: 2
#     Edge 27, Type (0, 0), BuildingBlock: CIFDUS_clean_linker_0, # of connection points: 2
#     Edge 28, Type (0, 0), BuildingBlock: CIFDUS_clean_linker_0, # of connection points: 2
#     Edge 29, Type (0, 0), BuildingBlock: CIFDUS_clean_linker_0, # of connection points: 2
#     Edge 30, Type (0, 0), BuildingBlock: CIFDUS_clean_linker_0, # of connection points: 2
#     Edge 31, Type (0, 0), BuildingBlock: CIFDUS_clean_linker_0, # of connection points: 2
#     Edge 32, Type (0, 0), BuildingBlock: CIFDUS_clean_linker_0, # of connection points: 2
#     Edge 33, Type (0, 0), BuildingBlock: CIFDUS_clean_linker_0, # of connection points: 2
#     Edge 34, Type (0, 0), BuildingBlock: CIFDUS_clean_linker_0, # of connection points: 2
#     Edge 35, Type (0, 0), BuildingBlock: CIFDUS_clean_linker_0, # of connection points: 2
#     Edge 36, Type (0, 0), BuildingBlock: CIFDUS_clean_linker_0, # of connection points: 2
#     Edge 37, Type (0, 0), BuildingBlock: CIFDUS_clean_linker_0, # of connection points: 2
#     Edge 38, Type (0, 0), BuildingBlock: CIFDUS_clean_linker_0, # of connection points: 2
#     Edge 39, Type (0, 0), BuildingBlock: CIFDUS_clean_linker_0, # of connection points: 2
#     Edge 40, Type (0, 0), BuildingBlock: CIFDUS_clean_linker_0, # of connection points: 2
#     Edge 41, Type (0, 0), BuildingBlock: CIFDUS_clean_linker_0, # of connection points: 2
#     Edge 42, Type (0, 0), BuildingBlock: CIFDUS_clean_linker_0, # of connection points: 2
#     Edge 43, Type (0, 0), BuildingBlock: CIFDUS_clean_linker_0, # of connection points: 2
#     Edge 44, Type (0, 0), BuildingBlock: CIFDUS_clean_linker_0, # of connection points: 2
#     Edge 45, Type (0, 0), BuildingBlock: CIFDUS_clean_linker_0, # of connection points: 2
#     Edge 46, Type (0, 0), BuildingBlock: CIFDUS_clean_linker_0, # of connection points: 2
#     Edge 47, Type (0, 0), BuildingBlock: CIFDUS_clean_linker_0, # of connection points: 2
# Relax obj value: 0.223
# Max RMSD: 0.105
# Mean RMSD: 0.105
data_MOF--net-upb--node1-NAHDIM_clean_sbu_0--edge1-CIFDUS_clean_linker_0
_symmetry_space_group_name_H-M    P1
_symmetry_Int_Tables_number       1
_symmetry_cell_setting            triclinic
loop_
_symmetry_equiv_pos_as_xyz
'x, y, z'
_cell_length_a     34.656987
_cell_length_b     34.645678
_cell_length_c     39.593055
_cell_angle_alpha  90.051225
_cell_angle_beta   90.005496
_cell_angle_gamma 90.029138
loop_
_atom_site_label
_atom_site_type_symbol
_atom_site_fract_x
_atom_site_fract_y
_atom_site_fract_z
_atom_type_partial_charge
C0 C 0.01418 0.34294 0.30938 0.0
O1 O 0.01501 0.34828 0.34221 0.0
O2 O 0.97911 0.27955 0.37542 0.0
Zn3 Zn 0.99481 0.26446 0.32812 0.0
O4 O 0.04466 0.23504 0.33154 0.0
C5 C 0.92082 0.22764 0.32115 0.0
O6 O 0.91127 0.25297 0.3444 0.0
O7 O 0.0042 0.31016 0.29785 0.0
C8 C 0.05777 0.21456 0.30752 0.0
O9 O 0.0383 0.21239 0.2791 0.0
C10 C 0.00422 0.28454 0.39841 0.0
O11 O 0.04099 0.28267 0.3905 0.0
O12 O 0.95477 0.22828 0.30904 0.0
C13 C 0.6397 0.01183 0.3175 0.0
O14 O 0.63403 0.01278 0.35027 0.0
O15 O 0.70078 0.98294 0.38546 0.0
Zn16 Zn 0.71767 0.99358 0.33766 0.0
O17 O 0.74801 0.04305 0.3382 0.0
C18 C 0.74978 0.91703 0.33517 0.0
O19 O 0.72062 0.90965 0.35537 0.0
O20 O 0.67258 0.00173 0.30628 0.0
C21 C 0.77243 0.05208 0.31562 0.0
O22 O 0.77878 0.02815 0.29047 0.0
C23 C 0.69549 0.01039 0.40627 0.0
O24 O 0.69901 0.04618 0.39576 0.0
O25 O 0.75322 0.95073 0.32285 0.0
C26 C 0.96322 0.65727 0.32109 0.0
O27 O 0.95586 0.65846 0.3536 0.0
O28 O 0.00109 0.71955 0.3842 0.0
Zn29 Zn 0.99168 0.73321 0.33537 0.0
O30 O 0.94521 0.76816 0.33229 0.0
C31 C 0.07115 0.75803 0.33308 0.0
O32 O 0.07497 0.73135 0.3564 0.0
O33 O 0.9804 0.68572 0.30744 0.0
C34 C 0.94341 0.79563 0.31107 0.0
O35 O 0.97265 0.80165 0.29062 0.0
C36 C 0.97559 0.7216 0.40719 0.0
O37 O 0.94021 0.73162 0.39914 0.0
O38 O 0.03849 0.76255 0.31898 0.0
C39 C 0.33818 0.9537 0.29437 0.0
O40 O 0.33786 0.94204 0.32593 0.0
O41 O 0.28783 0.00119 0.36283 0.0
Zn42 Zn 0.26806 0.98876 0.31605 0.0
O43 O 0.23298 0.94233 0.31784 0.0
C44 C 0.23076 0.06362 0.31709 0.0
O45 O 0.24906 0.06681 0.346 0.0
O46 O 0.31151 0.97603 0.28421 0.0
C47 C 0.20884 0.93704 0.29408 0.0
O48 O 0.20762 0.96186 0.26903 0.0
C49 C 0.28745 0.97749 0.38731 0.0
O50 O 0.2757 0.94193 0.38205 0.0
O51 O 0.23596 0.03361 0.29914 0.0
C52 C 0.02244 0.67296 0.69954 0.0
O53 O 0.02895 0.6668 0.66731 0.0
O54 O 0.98217 0.72933 0.62955 0.0
Zn55 Zn 0.9995 0.74809 0.67543 0.0
O56 O 0.05004 0.77576 0.66922 0.0
C57 C 0.92656 0.78746 0.68151 0.0
O58 O 0.9159 0.76152 0.65916 0.0
O59 O 0.00803 0.70504 0.70867 0.0
C60 C 0.0625 0.80096 0.68985 0.0
O61 O 0.04191 0.80943 0.71671 0.0
C62 C 0.00655 0.72271 0.60627 0.0
O63 O 0.04354 0.72522 0.61318 0.0
O64 O 0.96076 0.78652 0.69308 0.0
C65 C 0.3533 0.04891 0.67679 0.0
O66 O 0.35164 0.06423 0.64649 0.0
O67 O 0.29627 0.99893 0.60898 0.0
Zn68 Zn 0.28102 0.01673 0.65571 0.0
O69 O 0.25166 0.06668 0.65196 0.0
C70 C 0.23988 0.94435 0.66324 0.0
O71 O 0.26081 0.93422 0.63704 0.0
O72 O 0.32677 0.02583 0.68595 0.0
C73 C 0.23135 0.07863 0.67657 0.0
O74 O 0.23028 0.05825 0.70452 0.0
C75 C 0.29931 0.02208 0.58423 0.0
O76 O 0.29502 0.05927 0.58952 0.0
O77 O 0.2447 0.97759 0.67619 0.0
C78 C 0.9662 0.34979 0.68118 0.0
O79 O 0.9578 0.34617 0.64899 0.0
O80 O 0.00294 0.28373 0.62106 0.0
Zn81 Zn 0.99356 0.27287 0.67046 0.0
O82 O 0.94626 0.23914 0.67518 0.0
C83 C 0.07164 0.2437 0.67249 0.0
O84 O 0.07544 0.26589 0.64582 0.0
O85 O 0.9835 0.32227 0.69609 0.0
C86 C 0.94431 0.21221 0.69692 0.0
O87 O 0.9739 0.20594 0.71691 0.0
C88 C 0.97732 0.28087 0.59824 0.0
O89 O 0.94189 0.27148 0.60673 0.0
O90 O 0.03975 0.24362 0.68839 0.0
C91 C 0.639 0.99713 0.6959 0.0
O92 O 0.63152 0.00049 0.66353 0.0
O93 O 0.69871 0.02776 0.62739 0.0
Zn94 Zn 0.71667 0.01661 0.67478 0.0
O95 O 0.74863 0.96828 0.67245 0.0
C96 C 0.74828 0.09357 0.67716 0.0
O97 O 0.71944 0.10068 0.65656 0.0
O98 O 0.67259 0.00547 0.70663 0.0
C99 C 0.77524 0.96024 0.69335 0.0
O100 O 0.78289 0.98447 0.718 0.0
C101 C 0.69288 0.00035 0.60666 0.0
O102 O 0.69602 0.96454 0.61722 0.0
O103 O 0.75147 0.06005 0.68991 0.0
C104 C 0.54873 0.84965 0.82568 0.0
O105 O 0.56175 0.84093 0.85587 0.0
O106 O 0.51212 0.77738 0.88181 0.0
Zn107 Zn 0.52034 0.77273 0.83139 0.0
O108 O 0.56854 0.74143 0.82326 0.0
C109 C 0.44335 0.74077 0.82702 0.0
O110 O 0.43846 0.76052 0.85503 0.0
O111 O 0.52812 0.82507 0.81001 0.0
C112 C 0.57179 0.71809 0.79863 0.0
O113 O 0.54306 0.71439 0.77722 0.0
C114 C 0.53936 0.77244 0.90288 0.0
O115 O 0.57435 0.76547 0.89166 0.0
O116 O 0.47533 0.74335 0.81145 0.0
C117 C 0.15811 0.54247 0.8119 0.0
O118 O 0.15859 0.55537 0.84312 0.0
O119 O 0.215 0.5034 0.8804 0.0
Zn120 Zn 0.23126 0.51394 0.83251 0.0
O121 O 0.2622 0.56314 0.834 0.0
C122 C 0.25885 0.43605 0.82772 0.0
O123 O 0.22808 0.42951 0.84623 0.0
O124 O 0.1861 0.52193 0.80159 0.0
C125 C 0.28671 0.57316 0.81181 0.0
O126 O 0.29253 0.55075 0.78551 0.0
C127 C 0.24347 0.49944 0.90032 0.0
O128 O 0.27855 0.50216 0.88794 0.0
O129 O 0.26532 0.47013 0.81722 0.0
C130 C 0.48052 0.17883 0.79715 0.0
O131 O 0.47024 0.17175 0.82847 0.0
O132 O 0.50657 0.2263 0.87305 0.0
Zn133 Zn 0.49891 0.2508 0.82743 0.0
O134 O 0.44928 0.28109 0.82565 0.0
C135 C 0.54009 0.31612 0.84416 0.0
O136 O 0.51144 0.31556 0.8659 0.0
O137 O 0.49635 0.21101 0.79035 0.0
C138 C 0.44592 0.30569 0.80203 0.0
O139 O 0.47405 0.3093 0.78001 0.0
C140 C 0.48137 0.226 0.89636 0.0
O141 O 0.44693 0.24024 0.89034 0.0
O142 O 0.5423 0.2892 0.82235 0.0
C143 C 0.86033 0.48254 0.81459 0.0
O144 O 0.86137 0.47994 0.84766 0.0
O145 O 0.79408 0.51962 0.87655 0.0
Zn146 Zn 0.78292 0.51025 0.82721 0.0
O147 O 0.74617 0.46554 0.82309 0.0
C148 C 0.75992 0.58989 0.82304 0.0
O149 O 0.78687 0.5939 0.84612 0.0
O150 O 0.83063 0.49687 0.80051 0.0
C151 C 0.71358 0.46787 0.83761 0.0
O152 O 0.70539 0.49904 0.85513 0.0
C153 C 0.79423 0.49304 0.89864 0.0
O154 O 0.78908 0.45707 0.88909 0.0
O155 O 0.75497 0.557 0.80944 0.0
C156 C 0.54169 0.13995 0.17704 0.0
O157 O 0.55122 0.14317 0.14508 0.0
O158 O 0.49623 0.20748 0.11824 0.0
Zn159 Zn 0.51602 0.21722 0.16549 0.0
O160 O 0.567 0.24484 0.16197 0.0
C161 C 0.4425 0.24927 0.18369 0.0
O162 O 0.42998 0.21999 0.16563 0.0
O163 O 0.52431 0.16784 0.19136 0.0
C164 C 0.58143 0.26406 0.18624 0.0
O165 O 0.5628 0.26585 0.2151 0.0
C166 C 0.51933 0.20513 0.09339 0.0
O167 O 0.55665 0.2071 0.09895 0.0
O168 O 0.47855 0.25288 0.18862 0.0
C169 C 0.85345 0.5323 0.18343 0.0
O170 O 0.85277 0.53744 0.15059 0.0
O171 O 0.79285 0.48598 0.12169 0.0
Zn172 Zn 0.77981 0.4958 0.17066 0.0
O173 O 0.73959 0.53782 0.17287 0.0
C174 C 0.75183 0.41715 0.17344 0.0
O175 O 0.76839 0.41516 0.14366 0.0
O176 O 0.82611 0.51371 0.19739 0.0
C177 C 0.70459 0.52916 0.16698 0.0
O178 O 0.69588 0.49335 0.15912 0.0
C179 C 0.78966 0.51201 0.09927 0.0
O180 O 0.77948 0.54704 0.10835 0.0
O181 O 0.75528 0.44793 0.19072 0.0
C182 C 0.46334 0.81069 0.18367 0.0
O183 O 0.4553 0.81534 0.15152 0.0
O184 O 0.49054 0.75172 0.11291 0.0
Zn185 Zn 0.48326 0.73428 0.16101 0.0
O186 O 0.43528 0.70175 0.16456 0.0
C187 C 0.56322 0.71094 0.1724 0.0
O188 O 0.57137 0.74749 0.16716 0.0
O189 O 0.47767 0.77881 0.19343 0.0
C190 C 0.43145 0.67919 0.18964 0.0
O191 O 0.45874 0.67805 0.21266 0.0
C192 C 0.46277 0.75512 0.09215 0.0
O193 O 0.42732 0.74901 0.10262 0.0
O194 O 0.52821 0.70006 0.17225 0.0
C195 C 0.14576 0.43987 0.17159 0.0
O196 O 0.15319 0.42613 0.14134 0.0
O197 O 0.22021 0.46851 0.11408 0.0
Zn198 Zn 0.2235 0.46498 0.16472 0.0
O199 O 0.25344 0.41643 0.17476 0.0
C200 C 0.24782 0.54372 0.16555 0.0
O201 O 0.22053 0.54622 0.14261 0.0
O202 O 0.17135 0.45997 0.18642 0.0
C203 C 0.28465 0.41521 0.19159 0.0
O204 O 0.29843 0.44714 0.20484 0.0
C205 C 0.25301 0.46797 0.09972 0.0
O206 O 0.28408 0.46505 0.11856 0.0
O207 O 0.25298 0.51174 0.1806 0.0
H208 H 0.0887 0.16074 0.26518 0.0
H209 H 0.10754 0.21784 0.36078 0.0
H210 H 0.16452 0.17826 0.37071 0.0
H211 H 0.20665 0.12499 0.35405 0.0
H212 H 0.18699 0.06602 0.2595 0.0
H213 H 0.13297 0.10911 0.24723 0.0
C214 C 0.10543 0.16473 0.28807 0.0
C215 C 0.09366 0.19205 0.31228 0.0
C216 C 0.13801 0.14151 0.29385 0.0
C217 C 0.11573 0.19685 0.3418 0.0
C218 C 0.14838 0.17424 0.34751 0.0
C219 C 0.19085 0.12175 0.33057 0.0
C220 C 0.20078 0.09217 0.30783 0.0
C221 C 0.15944 0.14611 0.32397 0.0
C222 C 0.17993 0.08847 0.27752 0.0
C223 C 0.14895 0.11303 0.27052 0.0
H224 H 0.85336 0.20957 0.35205 0.0
H225 H 0.92894 0.1734 0.27136 0.0
H226 H 0.88838 0.11683 0.26124 0.0
H227 H 0.83375 0.07556 0.27774 0.0
H228 H 0.76001 0.11093 0.36004 0.0
H229 H 0.7976 0.16987 0.36702 0.0
C230 C 0.86078 0.18959 0.33198 0.0
C231 C 0.89421 0.19567 0.31258 0.0
C232 C 0.83783 0.15675 0.32676 0.0
C233 C 0.90341 0.16935 0.28675 0.0
C234 C 0.88029 0.13693 0.281 0.0
C235 C 0.82574 0.09628 0.29704 0.0
C236 C 0.79424 0.08868 0.31845 0.0
C237 C 0.84781 0.12999 0.30124 0.0
C238 C 0.78428 0.11587 0.34335 0.0
C239 C 0.80573 0.14965 0.34736 0.0
H240 H 0.81551 0.92436 0.29793 0.0
H241 H 0.75412 0.8448 0.3624 0.0
H242 H 0.80818 0.79985 0.35992 0.0
H243 H 0.87424 0.7846 0.34206 0.0
H244 H 0.93558 0.8639 0.27737 0.0
H245 H 0.88018 0.9074 0.27739 0.0
C246 C 0.81376 0.89704 0.31119 0.0
C247 C 0.78084 0.88815 0.33051 0.0
C248 C 0.84509 0.87136 0.30987 0.0
C249 C 0.77909 0.8525 0.34741 0.0
C250 C 0.81008 0.82678 0.34611 0.0
C251 C 0.87547 0.81136 0.32788 0.0
C252 C 0.90915 0.82111 0.30997 0.0
C253 C 0.84346 0.83619 0.32789 0.0
C254 C 0.91008 0.8557 0.29145 0.0
C255 C 0.8784 0.88064 0.29146 0.0
H256 H 0.07316 0.81587 0.28654 0.0
H257 H 0.14026 0.76305 0.36591 0.0
H258 H 0.18929 0.81314 0.36024 0.0
H259 H 0.21135 0.87409 0.33512 0.0
H260 H 0.14471 0.92643 0.25526 0.0
H261 H 0.09741 0.87439 0.25879 0.0
C262 C 0.09868 0.81508 0.30239 0.0
C263 C 0.10281 0.78586 0.32678 0.0
C264 C 0.12676 0.84409 0.29912 0.0
C265 C 0.13622 0.7852 0.34695 0.0
C266 C 0.16426 0.81395 0.34384 0.0
C267 C 0.18654 0.87404 0.31841 0.0
C268 C 0.18141 0.90431 0.29519 0.0
C269 C 0.15951 0.8439 0.32043 0.0
C270 C 0.14934 0.90356 0.27344 0.0
C271 C 0.12221 0.87382 0.27546 0.0
H272 H 0.09269 0.86242 0.72376 0.0
H273 H 0.11419 0.78609 0.63955 0.0
H274 H 0.17239 0.82218 0.62543 0.0
H275 H 0.21527 0.87724 0.63505 0.0
H276 H 0.19297 0.95499 0.71805 0.0
H277 H 0.13722 0.91626 0.73471 0.0
C278 C 0.11024 0.8535 0.70246 0.0
C279 C 0.09893 0.82171 0.68266 0.0
C280 C 0.14352 0.87466 0.6942 0.0
C281 C 0.12205 0.81058 0.65513 0.0
C282 C 0.15539 0.83119 0.64702 0.0
C283 C 0.19848 0.88557 0.65699 0.0
C284 C 0.20824 0.91906 0.67517 0.0
C285 C 0.16612 0.86355 0.6661 0.0
C286 C 0.18606 0.9294 0.70351 0.0
C287 C 0.15411 0.90731 0.71303 0.0
H288 H 0.17622 0.10504 0.71973 0.0
H289 H 0.23255 0.13111 0.62518 0.0
H290 H 0.19023 0.18664 0.61724 0.0
H291 H 0.13467 0.22516 0.63519 0.0
H292 H 0.07624 0.1975 0.72837 0.0
H293 H 0.12228 0.14549 0.73896 0.0
C294 C 0.17948 0.12305 0.69752 0.0
C295 C 0.20738 0.11376 0.673 0.0
C296 C 0.15464 0.15462 0.69283 0.0
C297 C 0.21116 0.13742 0.64436 0.0
C298 C 0.18698 0.16922 0.63979 0.0
C299 C 0.13224 0.20811 0.65805 0.0
C300 C 0.10195 0.21516 0.68089 0.0
C301 C 0.15824 0.17772 0.66359 0.0
C302 C 0.0992 0.19262 0.7103 0.0
C303 C 0.12546 0.1628 0.71634 0.0
H304 H 0.87453 0.22413 0.66719 0.0
H305 H 0.93594 0.14469 0.73166 0.0
H306 H 0.87975 0.10221 0.73317 0.0
H307 H 0.81441 0.08597 0.71383 0.0
H308 H 0.75296 0.16559 0.6495 0.0
H309 H 0.80775 0.20979 0.65073 0.0
C310 C 0.8756 0.19758 0.68166 0.0
C311 C 0.90953 0.18748 0.69904 0.0
C312 C 0.84313 0.17332 0.68254 0.0
C313 C 0.91025 0.15316 0.71797 0.0
C314 C 0.87812 0.12881 0.71884 0.0
C315 C 0.81279 0.11317 0.70036 0.0
C316 C 0.77965 0.12225 0.68141 0.0
C317 C 0.84456 0.13838 0.70092 0.0
C318 C 0.7781 0.15773 0.66422 0.0
C319 C 0.8095 0.18301 0.66479 0.0
H320 H 0.83976 0.93861 0.7278 0.0
H321 H 0.7617 0.90127 0.64925 0.0
H322 H 0.8003 0.84338 0.64032 0.0
H323 H 0.85761 0.8048 0.65287 0.0
H324 H 0.93712 0.84281 0.72998 0.0
H325 H 0.89634 0.89879 0.74156 0.0
C326 C 0.83107 0.91771 0.70886 0.0
C327 C 0.79797 0.92441 0.68915 0.0
C328 C 0.85365 0.88459 0.70355 0.0
C329 C 0.78715 0.897 0.66469 0.0
C330 C 0.80918 0.86382 0.65955 0.0
C331 C 0.86589 0.8251 0.67244 0.0
C332 C 0.90042 0.81964 0.69046 0.0
C333 C 0.84269 0.85753 0.67857 0.0
C334 C 0.91074 0.84637 0.71565 0.0
C335 C 0.88747 0.87843 0.72226 0.0
H336 H 0.63978 0.72555 0.83226 0.0
H337 H 0.58162 0.65505 0.75808 0.0
H338 H 0.63646 0.61088 0.75674 0.0
H339 H 0.69858 0.58955 0.77997 0.0
H340 H 0.75663 0.66014 0.8542 0.0
H341 H 0.70443 0.70722 0.85174 0.0
C342 C 0.6392 0.70066 0.81561 0.0
C343 C 0.60644 0.69338 0.79561 0.0
C344 C 0.67081 0.67535 0.81497 0.0
C345 C 0.60638 0.66128 0.77386 0.0
C346 C 0.63772 0.63594 0.77311 0.0
C347 C 0.70011 0.61548 0.79528 0.0
C348 C 0.73134 0.62103 0.81751 0.0
C349 C 0.66977 0.6423 0.79403 0.0
C350 C 0.7329 0.65496 0.83698 0.0
C351 C 0.70295 0.68187 0.83572 0.0
H352 H 0.37722 0.72128 0.85963 0.0
H353 H 0.44456 0.69443 0.77095 0.0
H354 H 0.40064 0.6415 0.75727 0.0
H355 H 0.34576 0.59999 0.77271 0.0
H356 H 0.27986 0.62619 0.86242 0.0
H357 H 0.32056 0.68218 0.87333 0.0
C358 C 0.3821 0.70418 0.83707 0.0
C359 C 0.4143 0.71174 0.81648 0.0
C360 C 0.35715 0.67339 0.82966 0.0
C361 C 0.42009 0.68921 0.78734 0.0
C362 C 0.39504 0.65883 0.77954 0.0
C363 C 0.3401 0.6181 0.7945 0.0
C364 C 0.30994 0.60864 0.81682 0.0
C365 C 0.36391 0.65018 0.80088 0.0
C366 C 0.303 0.63257 0.84489 0.0
C367 C 0.32627 0.66466 0.85119 0.0
H368 H 0.32244 0.43814 0.7875 0.0
H369 H 0.26142 0.36536 0.85804 0.0
H370 H 0.31334 0.3179 0.8555 0.0
H371 H 0.37793 0.29887 0.83595 0.0
H372 H 0.43832 0.37125 0.7647 0.0
H373 H 0.38478 0.41691 0.76482 0.0
C374 C 0.32032 0.41174 0.80209 0.0
C375 C 0.28823 0.4055 0.82312 0.0
C376 C 0.35031 0.38456 0.80059 0.0
C377 C 0.28581 0.37097 0.84165 0.0
C378 C 0.31558 0.34384 0.84035 0.0
C379 C 0.37927 0.32454 0.82033 0.0
C380 C 0.41221 0.33179 0.80059 0.0
C381 C 0.34827 0.35065 0.82036 0.0
C382 C 0.41334 0.36497 0.78019 0.0
C383 C 0.38276 0.39118 0.78028 0.0
H384 H 0.64472 0.46202 0.8696 0.0
H385 H 0.71863 0.40232 0.7991 0.0
H386 H 0.67124 0.35033 0.79421 0.0
H387 H 0.60866 0.32163 0.81028 0.0
H388 H 0.53599 0.3816 0.88169 0.0
H389 H 0.58298 0.43358 0.88574 0.0
C390 C 0.65051 0.43769 0.85312 0.0
C391 C 0.68515 0.43614 0.83474 0.0
C392 C 0.6233 0.40786 0.85054 0.0
C393 C 0.6922 0.40425 0.8136 0.0
C394 C 0.66509 0.3745 0.81074 0.0
C395 C 0.6031 0.34614 0.82662 0.0
C396 C 0.56883 0.34766 0.84562 0.0
C397 C 0.6305 0.37599 0.82911 0.0
C398 C 0.56214 0.37956 0.86682 0.0
C399 C 0.58901 0.40939 0.86918 0.0
H400 H 0.72816 0.35519 0.13693 0.0
H401 H 0.71196 0.41191 0.23302 0.0
H402 H 0.6594 0.3675 0.24656 0.0
H403 H 0.61452 0.3162 0.22898 0.0
H404 H 0.62948 0.26169 0.13173 0.0
H405 H 0.68606 0.30161 0.12088 0.0
C406 C 0.71355 0.35758 0.16106 0.0
C407 C 0.72389 0.38703 0.18382 0.0
C408 C 0.6828 0.33257 0.16835 0.0
C409 C 0.70454 0.3896 0.21496 0.0
C410 C 0.67436 0.3643 0.22268 0.0
C411 C 0.63037 0.31278 0.20555 0.0
C412 C 0.61753 0.28619 0.1811 0.0
C413 C 0.66265 0.33626 0.19922 0.0
C414 C 0.63848 0.28212 0.1509 0.0
C415 C 0.6709 0.30493 0.14465 0.0
H416 H 0.55554 0.63311 0.17043 0.0
H417 H 0.64095 0.7233 0.17912 0.0
H418 H 0.69236 0.67492 0.17917 0.0
H419 H 0.71303 0.60702 0.17469 0.0
H420 H 0.62697 0.51764 0.164 0.0
H421 H 0.57588 0.56582 0.16669 0.0
C422 C 0.58537 0.64228 0.17262 0.0
C423 C 0.59435 0.6818 0.17479 0.0
C424 C 0.61471 0.61445 0.17203 0.0
C425 C 0.63321 0.69307 0.17739 0.0
C426 C 0.66264 0.66543 0.17735 0.0
C427 C 0.6831 0.59809 0.17306 0.0
C428 C 0.67389 0.55876 0.16907 0.0
C429 C 0.65373 0.62604 0.17433 0.0
C430 C 0.63494 0.5477 0.16692 0.0
C431 C 0.60565 0.57522 0.16852 0.0
H432 H 0.36544 0.68152 0.15251 0.0
H433 H 0.42189 0.61805 0.23221 0.0
H434 H 0.36857 0.57206 0.23359 0.0
H435 H 0.30799 0.54749 0.20968 0.0
H436 H 0.25135 0.61124 0.13022 0.0
H437 H 0.30241 0.65967 0.1316 0.0
C438 C 0.36599 0.65774 0.1703 0.0
C439 C 0.39781 0.65302 0.19196 0.0
C440 C 0.33518 0.63141 0.17104 0.0
C441 C 0.39784 0.62231 0.21515 0.0
C442 C 0.36736 0.59593 0.21595 0.0
C443 C 0.30655 0.5722 0.19293 0.0
C444 C 0.27601 0.5755 0.1697 0.0
C445 C 0.33617 0.59987 0.19366 0.0
C446 C 0.27453 0.60786 0.14831 0.0
C447 C 0.30383 0.63554 0.14897 0.0
H448 H 0.3564 0.4044 0.2181 0.0
H449 H 0.26356 0.34434 0.16772 0.0
H450 H 0.30311 0.28634 0.16392 0.0
H451 H 0.36578 0.25455 0.17025 0.0
H452 H 0.45942 0.31502 0.21907 0.0
H453 H 0.41764 0.3707 0.22847 0.0
C454 C 0.34463 0.3785 0.20664 0.0
C455 C 0.3072 0.37893 0.19289 0.0
C456 C 0.36774 0.34531 0.20409 0.0
C457 C 0.29239 0.345 0.17827 0.0
C458 C 0.315 0.31176 0.17604 0.0
C459 C 0.37697 0.27968 0.18335 0.0
C460 C 0.41581 0.28069 0.1936 0.0
C461 C 0.353 0.31187 0.18816 0.0
C462 C 0.4297 0.3135 0.21069 0.0
C463 C 0.40585 0.34544 0.21601 0.0
H464 H 0.01695 0.34096 0.24077 0.0
H465 H 0.05172 0.40948 0.32668 0.0
H466 H 0.09197 0.44947 0.29024 0.0
H467 H 0.12435 0.45879 0.2357 0.0
H468 H 0.0907 0.38907 0.15016 0.0
H469 H 0.0426 0.35623 0.18466 0.0
C470 C 0.0328 0.36505 0.25146 0.0
C471 C 0.03192 0.37168 0.28651 0.0
C472 C 0.05643 0.38753 0.23047 0.0
C473 C 0.05216 0.40342 0.29984 0.0
C474 C 0.07535 0.42624 0.27903 0.0
C475 C 0.10605 0.43689 0.22443 0.0
C476 C 0.11173 0.42587 0.19058 0.0
C477 C 0.07884 0.41761 0.24456 0.0
C478 C 0.08734 0.39782 0.17626 0.0
C479 C 0.05986 0.37889 0.19601 0.0
H480 H 0.64106 0.01297 0.24881 0.0
H481 H 0.57458 0.05162 0.33462 0.0
H482 H 0.53516 0.09191 0.29782 0.0
H483 H 0.52524 0.12254 0.24256 0.0
H484 H 0.59204 0.08404 0.15687 0.0
H485 H 0.62522 0.03712 0.19229 0.0
C486 C 0.61753 0.0297 0.2594 0.0
C487 C 0.61129 0.02981 0.29449 0.0
C488 C 0.59522 0.05321 0.23817 0.0
C489 C 0.5803 0.05122 0.30773 0.0
C490 C 0.5578 0.07446 0.28672 0.0
C491 C 0.54665 0.10349 0.23152 0.0
C492 C 0.55664 0.10734 0.19727 0.0
C493 C 0.56591 0.07671 0.25209 0.0
C494 C 0.58401 0.08201 0.18324 0.0
C495 C 0.60314 0.0552 0.2035 0.0
H496 H 0.86237 0.52893 0.25168 0.0
H497 H 0.90952 0.58209 0.16213 0.0
H498 H 0.95076 0.62304 0.19693 0.0
H499 H 0.96834 0.64848 0.25278 0.0
H500 H 0.92035 0.59584 0.34224 0.0
H501 H 0.88496 0.54982 0.30745 0.0
C502 C 0.88201 0.54911 0.23973 0.0
C503 C 0.88239 0.55278 0.20435 0.0
C504 C 0.90536 0.57294 0.25989 0.0
C505 C 0.90836 0.57882 0.18931 0.0
C506 C 0.93192 0.60238 0.2092 0.0
C507 C 0.95057 0.62662 0.2647 0.0
C508 C 0.94661 0.62604 0.30006 0.0
C509 C 0.92987 0.60043 0.24453 0.0
C510 C 0.9237 0.59724 0.31507 0.0
C511 C 0.90333 0.57091 0.29519 0.0
H512 H 0.39401 0.90069 0.30726 0.0
H513 H 0.3437 0.96759 0.22653 0.0
H514 H 0.38197 0.93195 0.18522 0.0
H515 H 0.4238 0.87703 0.17164 0.0
H516 H 0.47209 0.80852 0.25229 0.0
H517 H 0.44087 0.84994 0.29399 0.0
C518 C 0.39177 0.90789 0.28068 0.0
C519 C 0.36558 0.93641 0.27 0.0
C520 C 0.41329 0.88679 0.25699 0.0
C521 C 0.36336 0.94555 0.23546 0.0
C522 C 0.38517 0.9251 0.21178 0.0
C523 C 0.42801 0.87145 0.19833 0.0
C524 C 0.44982 0.83935 0.20877 0.0
C525 C 0.40933 0.8949 0.22219 0.0
C526 C 0.45518 0.83281 0.24351 0.0
C527 C 0.43723 0.85642 0.2674 0.0
H528 H 0.09944 0.59248 0.82439 0.0
H529 H 0.15125 0.52474 0.74484 0.0
H530 H 0.10983 0.55608 0.70327 0.0
H531 H 0.06482 0.60808 0.68877 0.0
H532 H 0.01502 0.6776 0.76815 0.0
H533 H 0.04938 0.63979 0.8105 0.0
C534 C 0.10132 0.58412 0.79804 0.0
C535 C 0.12885 0.55674 0.78771 0.0
C536 C 0.07796 0.6028 0.77416 0.0
C537 C 0.13059 0.54602 0.75348 0.0
C538 C 0.10697 0.564 0.72964 0.0
C539 C 0.06095 0.6146 0.71536 0.0
C540 C 0.03783 0.64602 0.7252 0.0
C541 C 0.08145 0.59329 0.73957 0.0
C542 C 0.03296 0.65384 0.7598 0.0
C543 C 0.05268 0.63229 0.78407 0.0
H544 H 0.44308 0.11038 0.80353 0.0
H545 H 0.48778 0.18944 0.72891 0.0
H546 H 0.45577 0.15291 0.6842 0.0
H547 H 0.40857 0.10365 0.66734 0.0
H548 H 0.36206 0.02622 0.74244 0.0
H549 H 0.40166 0.05679 0.7858 0.0
C550 C 0.44635 0.11934 0.77744 0.0
C551 C 0.4673 0.15298 0.76968 0.0
C552 C 0.42722 0.0987 0.75194 0.0
C553 C 0.47158 0.16385 0.73567 0.0
C554 C 0.45313 0.14306 0.71007 0.0
C555 C 0.4075 0.09304 0.69308 0.0
C556 C 0.38188 0.06309 0.70169 0.0
C557 C 0.42983 0.11122 0.71806 0.0
C558 C 0.38119 0.04949 0.73514 0.0
C559 C 0.40378 0.06702 0.76001 0.0
H560 H 0.97575 0.36528 0.74822 0.0
H561 H 0.92096 0.40834 0.65783 0.0
H562 H 0.88662 0.45664 0.69094 0.0
H563 H 0.86634 0.48148 0.74609 0.0
H564 H 0.92027 0.43798 0.83669 0.0
H565 H 0.96112 0.39561 0.80288 0.0
C566 C 0.95673 0.38558 0.73569 0.0
C567 C 0.95047 0.3827 0.70067 0.0
C568 C 0.93668 0.41312 0.75493 0.0
C569 C 0.92606 0.40957 0.6848 0.0
C570 C 0.9063 0.43722 0.70372 0.0
C571 C 0.88744 0.46318 0.75845 0.0
C572 C 0.88973 0.46246 0.7939 0.0
C573 C 0.91048 0.43846 0.73891 0.0
C574 C 0.91761 0.43892 0.80944 0.0
C575 C 0.94091 0.41451 0.79013 0.0
H576 H 0.64494 0.98567 0.76366 0.0
H577 H 0.57207 0.96077 0.67792 0.0
H578 H 0.53465 0.91548 0.71183 0.0
H579 H 0.52811 0.87678 0.76357 0.0
H580 H 0.60154 0.90153 0.84902 0.0
H581 H 0.63286 0.95316 0.81755 0.0
C582 C 0.62047 0.97085 0.75252 0.0
C583 C 0.61181 0.97612 0.71813 0.0
C584 C 0.59937 0.9444 0.77201 0.0
C585 C 0.57964 0.95707 0.70425 0.0
C586 C 0.5583 0.93096 0.72359 0.0
C587 C 0.55057 0.89384 0.77548 0.0
C588 C 0.56291 0.88477 0.80838 0.0
C589 C 0.56878 0.92339 0.75714 0.0
C590 C 0.5917 0.90754 0.8236 0.0
C591 C 0.60975 0.93708 0.8056 0.0
H592 H 0.0504 0.29521 0.45305 0.0
H593 H 0.93103 0.28168 0.42413 0.0
H594 H 0.91195 0.2811 0.48348 0.0
H595 H 0.92959 0.28045 0.54359 0.0
H596 H 0.04913 0.29356 0.57223 0.0
H597 H 0.06758 0.29837 0.51298 0.0
C598 C 0.02016 0.29246 0.45968 0.0
C599 C 0.99226 0.28822 0.43415 0.0
C600 C 0.0094 0.29182 0.49383 0.0
C601 C 0.95316 0.28491 0.44325 0.0
C602 C 0.94221 0.28444 0.4772 0.0
C603 C 0.95965 0.28457 0.5369 0.0
C604 C 0.98792 0.28632 0.56235 0.0
C605 C 0.97015 0.28721 0.50271 0.0
C606 C 0.02673 0.29196 0.55319 0.0
C607 C 0.03736 0.29469 0.51928 0.0
H608 H 0.6861 0.94858 0.55544 0.0
H609 H 0.68669 0.07093 0.57637 0.0
H610 H 0.68442 0.08475 0.51599 0.0
H611 H 0.68761 0.06218 0.45736 0.0
H612 H 0.68886 0.93982 0.43647 0.0
H613 H 0.68477 0.92601 0.49678 0.0
C614 C 0.6853 0.97828 0.54685 0.0
C615 C 0.68692 0.00864 0.57041 0.0
C616 C 0.68457 0.98605 0.51209 0.0
C617 C 0.68569 0.04697 0.55879 0.0
C618 C 0.68448 0.05493 0.52425 0.0
C619 C 0.6866 0.03247 0.46594 0.0
C620 C 0.68891 0.00211 0.44244 0.0
C621 C 0.68476 0.0247 0.50068 0.0
C622 C 0.68736 0.96378 0.45402 0.0
C623 C 0.68508 0.95583 0.48852 0.0
H624 H 0.05106 0.70804 0.55134 0.0
H625 H 0.93273 0.72537 0.58185 0.0
H626 H 0.91231 0.7241 0.52283 0.0
H627 H 0.92875 0.7231 0.46244 0.0
H628 H 0.04736 0.70655 0.43227 0.0
H629 H 0.06682 0.70233 0.49129 0.0
C630 C 0.02074 0.71115 0.54516 0.0
C631 C 0.99356 0.71716 0.57099 0.0
C632 C 0.00923 0.71082 0.51118 0.0
C633 C 0.95433 0.72084 0.56247 0.0
C634 C 0.94261 0.72026 0.5287 0.0
C635 C 0.95881 0.71825 0.46875 0.0
C636 C 0.98656 0.71555 0.44293 0.0
C637 C 0.96993 0.71608 0.50282 0.0
C638 C 0.02537 0.70896 0.4516 0.0
C639 C 0.03659 0.70658 0.48538 0.0
H640 H 0.30886 0.06326 0.52641 0.0
H641 H 0.29711 0.94675 0.56364 0.0
H642 H 0.29505 0.92235 0.50584 0.0
H643 H 0.29145 0.93458 0.44481 0.0
H644 H 0.30294 0.0512 0.40774 0.0
H645 H 0.31049 0.0749 0.46535 0.0
C646 C 0.30623 0.03248 0.52192 0.0
C647 C 0.30275 0.00697 0.54936 0.0
C648 C 0.30478 0.01863 0.48861 0.0
C649 C 0.2997 0.96712 0.54303 0.0
C650 C 0.29839 0.95311 0.50995 0.0
C651 C 0.29596 0.96514 0.44929 0.0
C652 C 0.2962 0.99106 0.42196 0.0
C653 C 0.30009 0.97868 0.48255 0.0
C654 C 0.30243 0.03055 0.42825 0.0
C655 C 0.30667 0.0442 0.46124 0.0
H656 H 0.46946 0.77682 0.93406 0.0
H657 H 0.5916 0.76817 0.95427 0.0
H658 H 0.57868 0.76442 0.01474 0.0
H659 H 0.53276 0.76032 0.06158 0.0
H660 H 0.4105 0.76708 0.0415 0.0
H661 H 0.42352 0.77513 0.98128 0.0
C662 C 0.49329 0.77441 0.95169 0.0
C663 C 0.53144 0.7726 0.9396 0.0
C664 C 0.48566 0.77182 0.98645 0.0
C665 C 0.56195 0.76944 0.96283 0.0
C666 C 0.5546 0.76729 0.99745 0.0
C667 C 0.50892 0.76386 0.04411 0.0
C668 C 0.4707 0.76292 0.05606 0.0
C669 C 0.51657 0.76795 0.0095 0.0
C670 C 0.4402 0.76754 0.033 0.0
C671 C 0.44761 0.7721 0.99854 0.0
H672 H 0.29881 0.48589 0.94682 0.0
H673 H 0.17545 0.49729 0.93579 0.0
H674 H 0.16721 0.48771 0.99663 0.0
H675 H 0.19552 0.47762 0.05319 0.0
H676 H 0.31919 0.46662 0.063 0.0
H677 H 0.3267 0.47451 0.00233 0.0
C678 C 0.27005 0.48625 0.95763 0.0
C679 C 0.23782 0.49247 0.93681 0.0
C680 C 0.26558 0.48085 0.99244 0.0
C681 C 0.20077 0.49261 0.95128 0.0
C682 C 0.19605 0.48718 0.98606 0.0
C683 C 0.22408 0.47684 0.04201 0.0
C684 C 0.25673 0.47167 0.06267 0.0
C685 C 0.22831 0.48151 0.00693 0.0
C686 C 0.29354 0.47067 0.04778 0.0
C687 C 0.29792 0.47518 0.01304 0.0
H688 H 0.56014 0.19159 0.03621 0.0
H689 H 0.44514 0.21648 0.07194 0.0
H690 H 0.42236 0.22208 0.01374 0.0
H691 H 0.43645 0.2253 0.9529 0.0
H692 H 0.55179 0.20067 0.91766 0.0
H693 H 0.57288 0.18924 0.97547 0.0
C694 C 0.53 0.19791 0.0313 0.0
C695 C 0.50451 0.20406 0.05837 0.0
C696 C 0.51716 0.20131 0.99784 0.0
C697 C 0.46544 0.21175 0.05155 0.0
C698 C 0.4524 0.21508 0.01827 0.0
C699 C 0.46609 0.217 0.95781 0.0
C700 C 0.49256 0.21433 0.93097 0.0
C701 C 0.4782 0.21074 0.99123 0.0
C702 C 0.5308 0.20323 0.93781 0.0
C703 C 0.54298 0.19676 0.97091 0.0
H704 H 0.80047 0.44375 0.95184 0.0
H705 H 0.7944 0.56491 0.92692 0.0
H706 H 0.7941 0.58149 0.98678 0.0
H707 H 0.79219 0.56156 0.04617 0.0
H708 H 0.7987 0.44049 0.07124 0.0
H709 H 0.80243 0.42402 0.01139 0.0
C710 C 0.79933 0.4738 0.95949 0.0
C711 C 0.79718 0.50298 0.9349 0.0
C712 C 0.79912 0.48319 0.994 0.0
C713 C 0.79601 0.54181 0.94528 0.0
C714 C 0.79574 0.55136 0.97954 0.0
C715 C 0.79464 0.53158 0.03857 0.0
C716 C 0.79487 0.50233 0.06316 0.0
C717 C 0.79675 0.52227 0.00411 0.0
C718 C 0.79839 0.46363 0.05286 0.0
C719 C 0.80043 0.45414 0.01861 0.0
loop_
_geom_bond_atom_site_label_1
_geom_bond_atom_site_label_2
_geom_bond_distance
_geom_bond_site_symmetry_2
_ccdc_geom_bond_type
C0 O1 1.160 . S
C0 O7 1.185 . S
O1 C0 1.160 . S
O2 Zn3 1.898 1_655 S
O2 C10 1.282 1_655 S
Zn3 O2 1.898 1_455 S
Zn3 O4 2.032 . S
Zn3 O7 2.086 . S
Zn3 O12 1.977 1_455 S
O4 Zn3 2.032 . S
O4 C8 1.278 . S
C5 O6 1.203 . S
C5 O12 1.267 . S
O6 C5 1.203 . S
O7 C0 1.185 . S
O7 Zn3 2.086 . S
C8 O4 1.278 . S
C8 O9 1.211 . S
O9 C8 1.211 . S
C10 O2 1.282 1_455 S
C10 O11 1.273 . S
O11 C10 1.273 . S
O12 Zn3 1.977 1_655 S
O12 C5 1.267 . S
C13 O14 1.160 . S
C13 O20 1.185 . S
O14 C13 1.160 . S
O15 Zn16 1.898 1_565 S
O15 C23 1.282 1_565 S
Zn16 O15 1.898 1_545 S
Zn16 O17 2.032 . S
Zn16 O20 2.086 . S
Zn16 O25 1.977 1_545 S
O17 Zn16 2.032 . S
O17 C21 1.278 . S
C18 O19 1.203 . S
C18 O25 1.267 . S
O19 C18 1.203 . S
O20 C13 1.185 . S
O20 Zn16 2.086 . S
C21 O17 1.278 . S
C21 O22 1.211 . S
O22 C21 1.211 . S
C23 O15 1.282 1_545 S
C23 O24 1.273 . S
O24 C23 1.273 . S
O25 Zn16 1.977 1_565 S
O25 C18 1.267 . S
C26 O27 1.160 . S
C26 O33 1.185 . S
O27 C26 1.160 . S
O28 Zn29 1.898 1_455 S
O28 C36 1.282 1_455 S
Zn29 O28 1.898 1_655 S
Zn29 O30 2.032 . S
Zn29 O33 2.086 . S
Zn29 O38 1.977 1_655 S
O30 Zn29 2.032 . S
O30 C34 1.278 . S
C31 O32 1.203 . S
C31 O38 1.267 . S
O32 C31 1.203 . S
O33 C26 1.185 . S
O33 Zn29 2.086 . S
C34 O30 1.278 . S
C34 O35 1.211 . S
O35 C34 1.211 . S
C36 O28 1.282 1_655 S
C36 O37 1.273 . S
O37 C36 1.273 . S
O38 Zn29 1.977 1_455 S
O38 C31 1.267 . S
C39 O40 1.160 . S
C39 O46 1.185 . S
O40 C39 1.160 . S
O41 Zn42 1.898 1_545 S
O41 C49 1.282 1_545 S
Zn42 O41 1.898 1_565 S
Zn42 O43 2.032 . S
Zn42 O46 2.086 . S
Zn42 O51 1.977 1_565 S
O43 Zn42 2.032 . S
O43 C47 1.278 . S
C44 O45 1.203 . S
C44 O51 1.267 . S
O45 C44 1.203 . S
O46 C39 1.185 . S
O46 Zn42 2.086 . S
C47 O43 1.278 . S
C47 O48 1.211 . S
O48 C47 1.211 . S
C49 O41 1.282 1_565 S
C49 O50 1.273 . S
O50 C49 1.273 . S
O51 Zn42 1.977 1_545 S
O51 C44 1.267 . S
C52 O53 1.160 . S
C52 O59 1.185 . S
O53 C52 1.160 . S
O54 Zn55 1.898 1_655 S
O54 C62 1.282 1_655 S
Zn55 O54 1.898 1_455 S
Zn55 O56 2.032 . S
Zn55 O59 2.086 . S
Zn55 O64 1.977 1_455 S
O56 Zn55 2.032 . S
O56 C60 1.278 . S
C57 O58 1.203 . S
C57 O64 1.267 . S
O58 C57 1.203 . S
O59 C52 1.185 . S
O59 Zn55 2.086 . S
C60 O56 1.278 . S
C60 O61 1.211 . S
O61 C60 1.211 . S
C62 O54 1.282 1_455 S
C62 O63 1.273 . S
O63 C62 1.273 . S
O64 Zn55 1.977 1_655 S
O64 C57 1.267 . S
C65 O66 1.160 . S
C65 O72 1.185 . S
O66 C65 1.160 . S
O67 Zn68 1.898 1_565 S
O67 C75 1.282 1_565 S
Zn68 O67 1.898 1_545 S
Zn68 O69 2.032 . S
Zn68 O72 2.086 . S
Zn68 O77 1.977 1_545 S
O69 Zn68 2.032 . S
O69 C73 1.278 . S
C70 O71 1.203 . S
C70 O77 1.267 . S
O71 C70 1.203 . S
O72 C65 1.185 . S
O72 Zn68 2.086 . S
C73 O69 1.278 . S
C73 O74 1.211 . S
O74 C73 1.211 . S
C75 O67 1.282 1_545 S
C75 O76 1.273 . S
O76 C75 1.273 . S
O77 Zn68 1.977 1_565 S
O77 C70 1.267 . S
C78 O79 1.160 . S
C78 O85 1.185 . S
O79 C78 1.160 . S
O80 Zn81 1.898 1_455 S
O80 C88 1.282 1_455 S
Zn81 O80 1.898 1_655 S
Zn81 O82 2.032 . S
Zn81 O85 2.086 . S
Zn81 O90 1.977 1_655 S
O82 Zn81 2.032 . S
O82 C86 1.278 . S
C83 O84 1.203 . S
C83 O90 1.267 . S
O84 C83 1.203 . S
O85 C78 1.185 . S
O85 Zn81 2.086 . S
C86 O82 1.278 . S
C86 O87 1.211 . S
O87 C86 1.211 . S
C88 O80 1.282 1_655 S
C88 O89 1.273 . S
O89 C88 1.273 . S
O90 Zn81 1.977 1_455 S
O90 C83 1.267 . S
C91 O92 1.160 . S
C91 O98 1.185 . S
O92 C91 1.160 . S
O93 Zn94 1.898 1_545 S
O93 C101 1.282 1_545 S
Zn94 O93 1.898 1_565 S
Zn94 O95 2.032 . S
Zn94 O98 2.086 . S
Zn94 O103 1.977 1_565 S
O95 Zn94 2.032 . S
O95 C99 1.278 . S
C96 O97 1.203 . S
C96 O103 1.267 . S
O97 C96 1.203 . S
O98 C91 1.185 . S
O98 Zn94 2.086 . S
C99 O95 1.278 . S
C99 O100 1.211 . S
O100 C99 1.211 . S
C101 O93 1.282 1_565 S
C101 O102 1.273 . S
O102 C101 1.273 . S
O103 Zn94 1.977 1_545 S
O103 C96 1.267 . S
C104 O105 1.160 . S
C104 O111 1.185 . S
O105 C104 1.160 . S
O106 Zn107 1.899 . S
O106 C114 1.284 . S
Zn107 O106 1.899 . S
Zn107 O108 2.032 . S
Zn107 O111 2.086 . S
Zn107 O116 1.977 . S
O108 Zn107 2.032 . S
O108 C112 1.278 . S
C109 O110 1.203 . S
C109 O116 1.267 . S
O110 C109 1.203 . S
O111 C104 1.185 . S
O111 Zn107 2.086 . S
C112 O108 1.278 . S
C112 O113 1.211 . S
O113 C112 1.211 . S
C114 O106 1.284 . S
C114 O115 1.273 . S
O115 C114 1.273 . S
O116 Zn107 1.977 . S
O116 C109 1.267 . S
C117 O118 1.160 . S
C117 O124 1.185 . S
O118 C117 1.160 . S
O119 Zn120 1.899 . S
O119 C127 1.284 . S
Zn120 O119 1.899 . S
Zn120 O121 2.032 . S
Zn120 O124 2.086 . S
Zn120 O129 1.977 . S
O121 Zn120 2.032 . S
O121 C125 1.278 . S
C122 O123 1.203 . S
C122 O129 1.267 . S
O123 C122 1.203 . S
O124 C117 1.185 . S
O124 Zn120 2.086 . S
C125 O121 1.278 . S
C125 O126 1.211 . S
O126 C125 1.211 . S
C127 O119 1.284 . S
C127 O128 1.273 . S
O128 C127 1.273 . S
O129 Zn120 1.977 . S
O129 C122 1.267 . S
C130 O131 1.160 . S
C130 O137 1.185 . S
O131 C130 1.160 . S
O132 Zn133 1.899 . S
O132 C140 1.284 . S
Zn133 O132 1.899 . S
Zn133 O134 2.032 . S
Zn133 O137 2.086 . S
Zn133 O142 1.977 . S
O134 Zn133 2.032 . S
O134 C138 1.278 . S
C135 O136 1.203 . S
C135 O142 1.267 . S
O136 C135 1.203 . S
O137 C130 1.185 . S
O137 Zn133 2.086 . S
C138 O134 1.278 . S
C138 O139 1.211 . S
O139 C138 1.211 . S
C140 O132 1.284 . S
C140 O141 1.273 . S
O141 C140 1.273 . S
O142 Zn133 1.977 . S
O142 C135 1.267 . S
C143 O144 1.160 . S
C143 O150 1.185 . S
O144 C143 1.160 . S
O145 Zn146 1.899 . S
O145 C153 1.284 . S
Zn146 O145 1.899 . S
Zn146 O147 2.032 . S
Zn146 O150 2.086 . S
Zn146 O155 1.977 . S
O147 Zn146 2.032 . S
O147 C151 1.278 . S
C148 O149 1.203 . S
C148 O155 1.267 . S
O149 C148 1.203 . S
O150 C143 1.185 . S
O150 Zn146 2.086 . S
C151 O147 1.278 . S
C151 O152 1.211 . S
O152 C151 1.211 . S
C153 O145 1.284 . S
C153 O154 1.273 . S
O154 C153 1.273 . S
O155 Zn146 1.977 . S
O155 C148 1.267 . S
C156 O157 1.160 . S
C156 O163 1.185 . S
O157 C156 1.160 . S
O158 Zn159 1.899 . S
O158 C166 1.284 . S
Zn159 O158 1.899 . S
Zn159 O160 2.032 . S
Zn159 O163 2.086 . S
Zn159 O168 1.977 . S
O160 Zn159 2.032 . S
O160 C164 1.278 . S
C161 O162 1.203 . S
C161 O168 1.267 . S
O162 C161 1.203 . S
O163 C156 1.185 . S
O163 Zn159 2.086 . S
C164 O160 1.278 . S
C164 O165 1.211 . S
O165 C164 1.211 . S
C166 O158 1.284 . S
C166 O167 1.273 . S
O167 C166 1.273 . S
O168 Zn159 1.977 . S
O168 C161 1.267 . S
C169 O170 1.160 . S
C169 O176 1.185 . S
O170 C169 1.160 . S
O171 Zn172 1.899 . S
O171 C179 1.284 . S
Zn172 O171 1.899 . S
Zn172 O173 2.032 . S
Zn172 O176 2.086 . S
Zn172 O181 1.977 . S
O173 Zn172 2.032 . S
O173 C177 1.278 . S
C174 O175 1.203 . S
C174 O181 1.267 . S
O175 C174 1.203 . S
O176 C169 1.185 . S
O176 Zn172 2.086 . S
C177 O173 1.278 . S
C177 O178 1.211 . S
O178 C177 1.211 . S
C179 O171 1.284 . S
C179 O180 1.273 . S
O180 C179 1.273 . S
O181 Zn172 1.977 . S
O181 C174 1.267 . S
C182 O183 1.160 . S
C182 O189 1.185 . S
O183 C182 1.160 . S
O184 Zn185 1.899 . S
O184 C192 1.284 . S
Zn185 O184 1.899 . S
Zn185 O186 2.032 . S
Zn185 O189 2.086 . S
Zn185 O194 1.977 . S
O186 Zn185 2.032 . S
O186 C190 1.278 . S
C187 O188 1.203 . S
C187 O194 1.267 . S
O188 C187 1.203 . S
O189 C182 1.185 . S
O189 Zn185 2.086 . S
C190 O186 1.278 . S
C190 O191 1.211 . S
O191 C190 1.211 . S
C192 O184 1.284 . S
C192 O193 1.273 . S
O193 C192 1.273 . S
O194 Zn185 1.977 . S
O194 C187 1.267 . S
C195 O196 1.160 . S
C195 O202 1.185 . S
O196 C195 1.160 . S
O197 Zn198 1.899 . S
O197 C205 1.284 . S
Zn198 O197 1.899 . S
Zn198 O199 2.032 . S
Zn198 O202 2.086 . S
Zn198 O207 1.977 . S
O199 Zn198 2.032 . S
O199 C203 1.278 . S
C200 O201 1.203 . S
C200 O207 1.267 . S
O201 C200 1.203 . S
O202 C195 1.185 . S
O202 Zn198 2.086 . S
C203 O199 1.278 . S
C203 O204 1.211 . S
O204 C203 1.211 . S
C205 O197 1.284 . S
C205 O206 1.273 . S
O206 C205 1.273 . S
O207 Zn198 1.977 . S
O207 C200 1.267 . S
H208 C214 0.930 . S
H209 C217 0.930 . S
H210 C218 0.930 . S
H211 C219 0.930 . S
H212 C222 0.930 . S
H213 C223 0.930 . S
C214 H208 0.930 . S
C214 C215 1.355 . S
C214 C216 1.415 . S
C215 C214 1.355 . S
C215 C217 1.419 . S
C216 C214 1.415 . S
C216 C221 1.425 . S
C216 C223 1.409 . S
C217 H209 0.930 . S
C217 C215 1.419 . S
C217 C218 1.362 . S
C218 H210 0.930 . S
C218 C217 1.362 . S
C218 C221 1.409 . S
C219 H211 0.930 . S
C219 C220 1.355 . S
C219 C221 1.415 . S
C220 C219 1.355 . S
C220 C222 1.419 . S
C221 C216 1.425 . S
C221 C218 1.409 . S
C221 C219 1.415 . S
C222 H212 0.930 . S
C222 C220 1.419 . S
C222 C223 1.362 . S
C223 H213 0.930 . S
C223 C216 1.409 . S
C223 C222 1.362 . S
H224 C230 0.930 . S
H225 C233 0.930 . S
H226 C234 0.930 . S
H227 C235 0.930 . S
H228 C238 0.930 . S
H229 C239 0.930 . S
C230 H224 0.930 . S
C230 C231 1.355 . S
C230 C232 1.415 . S
C231 C230 1.355 . S
C231 C233 1.419 . S
C232 C230 1.415 . S
C232 C237 1.425 . S
C232 C239 1.409 . S
C233 H225 0.930 . S
C233 C231 1.419 . S
C233 C234 1.362 . S
C234 H226 0.930 . S
C234 C233 1.362 . S
C234 C237 1.409 . S
C235 H227 0.930 . S
C235 C236 1.355 . S
C235 C237 1.415 . S
C236 C235 1.355 . S
C236 C238 1.419 . S
C237 C232 1.425 . S
C237 C234 1.409 . S
C237 C235 1.415 . S
C238 H228 0.930 . S
C238 C236 1.419 . S
C238 C239 1.362 . S
C239 H229 0.930 . S
C239 C232 1.409 . S
C239 C238 1.362 . S
H240 C246 0.930 . S
H241 C249 0.930 . S
H242 C250 0.930 . S
H243 C251 0.930 . S
H244 C254 0.930 . S
H245 C255 0.930 . S
C246 H240 0.930 . S
C246 C247 1.355 . S
C246 C248 1.415 . S
C247 C246 1.355 . S
C247 C249 1.419 . S
C248 C246 1.415 . S
C248 C253 1.425 . S
C248 C255 1.409 . S
C249 H241 0.930 . S
C249 C247 1.419 . S
C249 C250 1.362 . S
C250 H242 0.930 . S
C250 C249 1.362 . S
C250 C253 1.409 . S
C251 H243 0.930 . S
C251 C252 1.355 . S
C251 C253 1.415 . S
C252 C251 1.355 . S
C252 C254 1.419 . S
C253 C248 1.425 . S
C253 C250 1.409 . S
C253 C251 1.415 . S
C254 H244 0.930 . S
C254 C252 1.419 . S
C254 C255 1.362 . S
C255 H245 0.930 . S
C255 C248 1.409 . S
C255 C254 1.362 . S
H256 C262 0.930 . S
H257 C265 0.930 . S
H258 C266 0.930 . S
H259 C267 0.930 . S
H260 C270 0.930 . S
H261 C271 0.930 . S
C262 H256 0.930 . S
C262 C263 1.355 . S
C262 C264 1.415 . S
C263 C262 1.355 . S
C263 C265 1.419 . S
C264 C262 1.415 . S
C264 C269 1.425 . S
C264 C271 1.409 . S
C265 H257 0.930 . S
C265 C263 1.419 . S
C265 C266 1.362 . S
C266 H258 0.930 . S
C266 C265 1.362 . S
C266 C269 1.409 . S
C267 H259 0.930 . S
C267 C268 1.355 . S
C267 C269 1.415 . S
C268 C267 1.355 . S
C268 C270 1.419 . S
C269 C264 1.425 . S
C269 C266 1.409 . S
C269 C267 1.415 . S
C270 H260 0.930 . S
C270 C268 1.419 . S
C270 C271 1.362 . S
C271 H261 0.930 . S
C271 C264 1.409 . S
C271 C270 1.362 . S
H272 C278 0.930 . S
H273 C281 0.930 . S
H274 C282 0.930 . S
H275 C283 0.930 . S
H276 C286 0.930 . S
H277 C287 0.930 . S
C278 H272 0.930 . S
C278 C279 1.355 . S
C278 C280 1.415 . S
C279 C278 1.355 . S
C279 C281 1.419 . S
C280 C278 1.415 . S
C280 C285 1.425 . S
C280 C287 1.409 . S
C281 H273 0.930 . S
C281 C279 1.419 . S
C281 C282 1.362 . S
C282 H274 0.930 . S
C282 C281 1.362 . S
C282 C285 1.409 . S
C283 H275 0.930 . S
C283 C284 1.355 . S
C283 C285 1.415 . S
C284 C283 1.355 . S
C284 C286 1.419 . S
C285 C280 1.425 . S
C285 C282 1.409 . S
C285 C283 1.415 . S
C286 H276 0.930 . S
C286 C284 1.419 . S
C286 C287 1.362 . S
C287 H277 0.930 . S
C287 C280 1.409 . S
C287 C286 1.362 . S
H288 C294 0.930 . S
H289 C297 0.930 . S
H290 C298 0.930 . S
H291 C299 0.930 . S
H292 C302 0.930 . S
H293 C303 0.930 . S
C294 H288 0.930 . S
C294 C295 1.355 . S
C294 C296 1.415 . S
C295 C294 1.355 . S
C295 C297 1.419 . S
C296 C294 1.415 . S
C296 C301 1.425 . S
C296 C303 1.409 . S
C297 H289 0.930 . S
C297 C295 1.419 . S
C297 C298 1.362 . S
C298 H290 0.930 . S
C298 C297 1.362 . S
C298 C301 1.409 . S
C299 H291 0.930 . S
C299 C300 1.355 . S
C299 C301 1.415 . S
C300 C299 1.355 . S
C300 C302 1.419 . S
C301 C296 1.425 . S
C301 C298 1.409 . S
C301 C299 1.415 . S
C302 H292 0.930 . S
C302 C300 1.419 . S
C302 C303 1.362 . S
C303 H293 0.930 . S
C303 C296 1.409 . S
C303 C302 1.362 . S
H304 C310 0.930 . S
H305 C313 0.930 . S
H306 C314 0.930 . S
H307 C315 0.930 . S
H308 C318 0.930 . S
H309 C319 0.930 . S
C310 H304 0.930 . S
C310 C311 1.355 . S
C310 C312 1.415 . S
C311 C310 1.355 . S
C311 C313 1.419 . S
C312 C310 1.415 . S
C312 C317 1.425 . S
C312 C319 1.409 . S
C313 H305 0.930 . S
C313 C311 1.419 . S
C313 C314 1.362 . S
C314 H306 0.930 . S
C314 C313 1.362 . S
C314 C317 1.409 . S
C315 H307 0.930 . S
C315 C316 1.355 . S
C315 C317 1.415 . S
C316 C315 1.355 . S
C316 C318 1.419 . S
C317 C312 1.425 . S
C317 C314 1.409 . S
C317 C315 1.415 . S
C318 H308 0.930 . S
C318 C316 1.419 . S
C318 C319 1.362 . S
C319 H309 0.930 . S
C319 C312 1.409 . S
C319 C318 1.362 . S
H320 C326 0.930 . S
H321 C329 0.930 . S
H322 C330 0.930 . S
H323 C331 0.930 . S
H324 C334 0.930 . S
H325 C335 0.930 . S
C326 H320 0.930 . S
C326 C327 1.355 . S
C326 C328 1.415 . S
C327 C326 1.355 . S
C327 C329 1.419 . S
C328 C326 1.415 . S
C328 C333 1.425 . S
C328 C335 1.409 . S
C329 H321 0.930 . S
C329 C327 1.419 . S
C329 C330 1.362 . S
C330 H322 0.930 . S
C330 C329 1.362 . S
C330 C333 1.409 . S
C331 H323 0.930 . S
C331 C332 1.355 . S
C331 C333 1.415 . S
C332 C331 1.355 . S
C332 C334 1.419 . S
C333 C328 1.425 . S
C333 C330 1.409 . S
C333 C331 1.415 . S
C334 H324 0.930 . S
C334 C332 1.419 . S
C334 C335 1.362 . S
C335 H325 0.930 . S
C335 C328 1.409 . S
C335 C334 1.362 . S
H336 C342 0.930 . S
H337 C345 0.930 . S
H338 C346 0.930 . S
H339 C347 0.930 . S
H340 C350 0.930 . S
H341 C351 0.930 . S
C342 H336 0.930 . S
C342 C343 1.355 . S
C342 C344 1.415 . S
C343 C342 1.355 . S
C343 C345 1.419 . S
C344 C342 1.415 . S
C344 C349 1.425 . S
C344 C351 1.409 . S
C345 H337 0.930 . S
C345 C343 1.419 . S
C345 C346 1.362 . S
C346 H338 0.930 . S
C346 C345 1.362 . S
C346 C349 1.409 . S
C347 H339 0.930 . S
C347 C348 1.355 . S
C347 C349 1.415 . S
C348 C347 1.355 . S
C348 C350 1.419 . S
C349 C344 1.425 . S
C349 C346 1.409 . S
C349 C347 1.415 . S
C350 H340 0.930 . S
C350 C348 1.419 . S
C350 C351 1.362 . S
C351 H341 0.930 . S
C351 C344 1.409 . S
C351 C350 1.362 . S
H352 C358 0.930 . S
H353 C361 0.930 . S
H354 C362 0.930 . S
H355 C363 0.930 . S
H356 C366 0.930 . S
H357 C367 0.930 . S
C358 H352 0.930 . S
C358 C359 1.355 . S
C358 C360 1.415 . S
C359 C358 1.355 . S
C359 C361 1.419 . S
C360 C358 1.415 . S
C360 C365 1.425 . S
C360 C367 1.409 . S
C361 H353 0.930 . S
C361 C359 1.419 . S
C361 C362 1.362 . S
C362 H354 0.930 . S
C362 C361 1.362 . S
C362 C365 1.409 . S
C363 H355 0.930 . S
C363 C364 1.355 . S
C363 C365 1.415 . S
C364 C363 1.355 . S
C364 C366 1.419 . S
C365 C360 1.425 . S
C365 C362 1.409 . S
C365 C363 1.415 . S
C366 H356 0.930 . S
C366 C364 1.419 . S
C366 C367 1.362 . S
C367 H357 0.930 . S
C367 C360 1.409 . S
C367 C366 1.362 . S
H368 C374 0.930 . S
H369 C377 0.930 . S
H370 C378 0.930 . S
H371 C379 0.930 . S
H372 C382 0.930 . S
H373 C383 0.930 . S
C374 H368 0.930 . S
C374 C375 1.355 . S
C374 C376 1.415 . S
C375 C374 1.355 . S
C375 C377 1.419 . S
C376 C374 1.415 . S
C376 C381 1.425 . S
C376 C383 1.409 . S
C377 H369 0.930 . S
C377 C375 1.419 . S
C377 C378 1.362 . S
C378 H370 0.930 . S
C378 C377 1.362 . S
C378 C381 1.409 . S
C379 H371 0.930 . S
C379 C380 1.355 . S
C379 C381 1.415 . S
C380 C379 1.355 . S
C380 C382 1.419 . S
C381 C376 1.425 . S
C381 C378 1.409 . S
C381 C379 1.415 . S
C382 H372 0.930 . S
C382 C380 1.419 . S
C382 C383 1.362 . S
C383 H373 0.930 . S
C383 C376 1.409 . S
C383 C382 1.362 . S
H384 C390 0.930 . S
H385 C393 0.930 . S
H386 C394 0.930 . S
H387 C395 0.930 . S
H388 C398 0.930 . S
H389 C399 0.930 . S
C390 H384 0.930 . S
C390 C391 1.355 . S
C390 C392 1.415 . S
C391 C390 1.355 . S
C391 C393 1.419 . S
C392 C390 1.415 . S
C392 C397 1.425 . S
C392 C399 1.409 . S
C393 H385 0.930 . S
C393 C391 1.419 . S
C393 C394 1.362 . S
C394 H386 0.930 . S
C394 C393 1.362 . S
C394 C397 1.409 . S
C395 H387 0.930 . S
C395 C396 1.355 . S
C395 C397 1.415 . S
C396 C395 1.355 . S
C396 C398 1.419 . S
C397 C392 1.425 . S
C397 C394 1.409 . S
C397 C395 1.415 . S
C398 H388 0.930 . S
C398 C396 1.419 . S
C398 C399 1.362 . S
C399 H389 0.930 . S
C399 C392 1.409 . S
C399 C398 1.362 . S
H400 C406 0.930 . S
H401 C409 0.930 . S
H402 C410 0.930 . S
H403 C411 0.930 . S
H404 C414 0.930 . S
H405 C415 0.930 . S
C406 H400 0.930 . S
C406 C407 1.355 . S
C406 C408 1.415 . S
C407 C406 1.355 . S
C407 C409 1.419 . S
C408 C406 1.415 . S
C408 C413 1.425 . S
C408 C415 1.409 . S
C409 H401 0.930 . S
C409 C407 1.419 . S
C409 C410 1.362 . S
C410 H402 0.930 . S
C410 C409 1.362 . S
C410 C413 1.409 . S
C411 H403 0.930 . S
C411 C412 1.355 . S
C411 C413 1.415 . S
C412 C411 1.355 . S
C412 C414 1.419 . S
C413 C408 1.425 . S
C413 C410 1.409 . S
C413 C411 1.415 . S
C414 H404 0.930 . S
C414 C412 1.419 . S
C414 C415 1.362 . S
C415 H405 0.930 . S
C415 C408 1.409 . S
C415 C414 1.362 . S
H416 C422 0.930 . S
H417 C425 0.930 . S
H418 C426 0.930 . S
H419 C427 0.930 . S
H420 C430 0.930 . S
H421 C431 0.930 . S
C422 H416 0.930 . S
C422 C423 1.355 . S
C422 C424 1.415 . S
C423 C422 1.355 . S
C423 C425 1.419 . S
C424 C422 1.415 . S
C424 C429 1.425 . S
C424 C431 1.409 . S
C425 H417 0.930 . S
C425 C423 1.419 . S
C425 C426 1.362 . S
C426 H418 0.930 . S
C426 C425 1.362 . S
C426 C429 1.409 . S
C427 H419 0.930 . S
C427 C428 1.355 . S
C427 C429 1.415 . S
C428 C427 1.355 . S
C428 C430 1.419 . S
C429 C424 1.425 . S
C429 C426 1.409 . S
C429 C427 1.415 . S
C430 H420 0.930 . S
C430 C428 1.419 . S
C430 C431 1.362 . S
C431 H421 0.930 . S
C431 C424 1.409 . S
C431 C430 1.362 . S
H432 C438 0.930 . S
H433 C441 0.930 . S
H434 C442 0.930 . S
H435 C443 0.930 . S
H436 C446 0.930 . S
H437 C447 0.930 . S
C438 H432 0.930 . S
C438 C439 1.355 . S
C438 C440 1.415 . S
C439 C438 1.355 . S
C439 C441 1.419 . S
C440 C438 1.415 . S
C440 C445 1.425 . S
C440 C447 1.409 . S
C441 H433 0.930 . S
C441 C439 1.419 . S
C441 C442 1.362 . S
C442 H434 0.930 . S
C442 C441 1.362 . S
C442 C445 1.409 . S
C443 H435 0.930 . S
C443 C444 1.355 . S
C443 C445 1.415 . S
C444 C443 1.355 . S
C444 C446 1.419 . S
C445 C440 1.425 . S
C445 C442 1.409 . S
C445 C443 1.415 . S
C446 H436 0.930 . S
C446 C444 1.419 . S
C446 C447 1.362 . S
C447 H437 0.930 . S
C447 C440 1.409 . S
C447 C446 1.362 . S
H448 C454 0.930 . S
H449 C457 0.930 . S
H450 C458 0.930 . S
H451 C459 0.930 . S
H452 C462 0.930 . S
H453 C463 0.930 . S
C454 H448 0.930 . S
C454 C455 1.355 . S
C454 C456 1.415 . S
C455 C454 1.355 . S
C455 C457 1.419 . S
C456 C454 1.415 . S
C456 C461 1.425 . S
C456 C463 1.409 . S
C457 H449 0.930 . S
C457 C455 1.419 . S
C457 C458 1.362 . S
C458 H450 0.930 . S
C458 C457 1.362 . S
C458 C461 1.409 . S
C459 H451 0.930 . S
C459 C460 1.355 . S
C459 C461 1.415 . S
C460 C459 1.355 . S
C460 C462 1.419 . S
C461 C456 1.425 . S
C461 C458 1.409 . S
C461 C459 1.415 . S
C462 H452 0.930 . S
C462 C460 1.419 . S
C462 C463 1.362 . S
C463 H453 0.930 . S
C463 C456 1.409 . S
C463 C462 1.362 . S
H464 C470 0.930 . S
H465 C473 0.930 . S
H466 C474 0.930 . S
H467 C475 0.930 . S
H468 C478 0.930 . S
H469 C479 0.930 . S
C470 H464 0.930 . S
C470 C471 1.355 . S
C470 C472 1.415 . S
C471 C470 1.355 . S
C471 C473 1.419 . S
C472 C470 1.415 . S
C472 C477 1.425 . S
C472 C479 1.409 . S
C473 H465 0.930 . S
C473 C471 1.419 . S
C473 C474 1.362 . S
C474 H466 0.930 . S
C474 C473 1.362 . S
C474 C477 1.409 . S
C475 H467 0.930 . S
C475 C476 1.355 . S
C475 C477 1.415 . S
C476 C475 1.355 . S
C476 C478 1.419 . S
C477 C472 1.425 . S
C477 C474 1.409 . S
C477 C475 1.415 . S
C478 H468 0.930 . S
C478 C476 1.419 . S
C478 C479 1.362 . S
C479 H469 0.930 . S
C479 C472 1.409 . S
C479 C478 1.362 . S
H480 C486 0.930 . S
H481 C489 0.930 . S
H482 C490 0.930 . S
H483 C491 0.930 . S
H484 C494 0.930 . S
H485 C495 0.930 . S
C486 H480 0.930 . S
C486 C487 1.355 . S
C486 C488 1.415 . S
C487 C486 1.355 . S
C487 C489 1.419 . S
C488 C486 1.415 . S
C488 C493 1.425 . S
C488 C495 1.409 . S
C489 H481 0.930 . S
C489 C487 1.419 . S
C489 C490 1.362 . S
C490 H482 0.930 . S
C490 C489 1.362 . S
C490 C493 1.409 . S
C491 H483 0.930 . S
C491 C492 1.355 . S
C491 C493 1.415 . S
C492 C491 1.355 . S
C492 C494 1.419 . S
C493 C488 1.425 . S
C493 C490 1.409 . S
C493 C491 1.415 . S
C494 H484 0.930 . S
C494 C492 1.419 . S
C494 C495 1.362 . S
C495 H485 0.930 . S
C495 C488 1.409 . S
C495 C494 1.362 . S
H496 C502 0.930 . S
H497 C505 0.930 . S
H498 C506 0.930 . S
H499 C507 0.930 . S
H500 C510 0.930 . S
H501 C511 0.930 . S
C502 H496 0.930 . S
C502 C503 1.355 . S
C502 C504 1.415 . S
C503 C502 1.355 . S
C503 C505 1.419 . S
C504 C502 1.415 . S
C504 C509 1.425 . S
C504 C511 1.409 . S
C505 H497 0.930 . S
C505 C503 1.419 . S
C505 C506 1.362 . S
C506 H498 0.930 . S
C506 C505 1.362 . S
C506 C509 1.409 . S
C507 H499 0.930 . S
C507 C508 1.355 . S
C507 C509 1.415 . S
C508 C507 1.355 . S
C508 C510 1.419 . S
C509 C504 1.425 . S
C509 C506 1.409 . S
C509 C507 1.415 . S
C510 H500 0.930 . S
C510 C508 1.419 . S
C510 C511 1.362 . S
C511 H501 0.930 . S
C511 C504 1.409 . S
C511 C510 1.362 . S
H512 C518 0.930 . S
H513 C521 0.930 . S
H514 C522 0.930 . S
H515 C523 0.930 . S
H516 C526 0.930 . S
H517 C527 0.930 . S
C518 H512 0.930 . S
C518 C519 1.355 . S
C518 C520 1.415 . S
C519 C518 1.355 . S
C519 C521 1.419 . S
C520 C518 1.415 . S
C520 C525 1.425 . S
C520 C527 1.409 . S
C521 H513 0.930 . S
C521 C519 1.419 . S
C521 C522 1.362 . S
C522 H514 0.930 . S
C522 C521 1.362 . S
C522 C525 1.409 . S
C523 H515 0.930 . S
C523 C524 1.355 . S
C523 C525 1.415 . S
C524 C523 1.355 . S
C524 C526 1.419 . S
C525 C520 1.425 . S
C525 C522 1.409 . S
C525 C523 1.415 . S
C526 H516 0.930 . S
C526 C524 1.419 . S
C526 C527 1.362 . S
C527 H517 0.930 . S
C527 C520 1.409 . S
C527 C526 1.362 . S
H528 C534 0.930 . S
H529 C537 0.930 . S
H530 C538 0.930 . S
H531 C539 0.930 . S
H532 C542 0.930 . S
H533 C543 0.930 . S
C534 H528 0.930 . S
C534 C535 1.355 . S
C534 C536 1.415 . S
C535 C534 1.355 . S
C535 C537 1.419 . S
C536 C534 1.415 . S
C536 C541 1.425 . S
C536 C543 1.409 . S
C537 H529 0.930 . S
C537 C535 1.419 . S
C537 C538 1.362 . S
C538 H530 0.930 . S
C538 C537 1.362 . S
C538 C541 1.409 . S
C539 H531 0.930 . S
C539 C540 1.355 . S
C539 C541 1.415 . S
C540 C539 1.355 . S
C540 C542 1.419 . S
C541 C536 1.425 . S
C541 C538 1.409 . S
C541 C539 1.415 . S
C542 H532 0.930 . S
C542 C540 1.419 . S
C542 C543 1.362 . S
C543 H533 0.930 . S
C543 C536 1.409 . S
C543 C542 1.362 . S
H544 C550 0.930 . S
H545 C553 0.930 . S
H546 C554 0.930 . S
H547 C555 0.930 . S
H548 C558 0.930 . S
H549 C559 0.930 . S
C550 H544 0.930 . S
C550 C551 1.355 . S
C550 C552 1.415 . S
C551 C550 1.355 . S
C551 C553 1.419 . S
C552 C550 1.415 . S
C552 C557 1.425 . S
C552 C559 1.409 . S
C553 H545 0.930 . S
C553 C551 1.419 . S
C553 C554 1.362 . S
C554 H546 0.930 . S
C554 C553 1.362 . S
C554 C557 1.409 . S
C555 H547 0.930 . S
C555 C556 1.355 . S
C555 C557 1.415 . S
C556 C555 1.355 . S
C556 C558 1.419 . S
C557 C552 1.425 . S
C557 C554 1.409 . S
C557 C555 1.415 . S
C558 H548 0.930 . S
C558 C556 1.419 . S
C558 C559 1.362 . S
C559 H549 0.930 . S
C559 C552 1.409 . S
C559 C558 1.362 . S
H560 C566 0.930 . S
H561 C569 0.930 . S
H562 C570 0.930 . S
H563 C571 0.930 . S
H564 C574 0.930 . S
H565 C575 0.930 . S
C566 H560 0.930 . S
C566 C567 1.355 . S
C566 C568 1.415 . S
C567 C566 1.355 . S
C567 C569 1.419 . S
C568 C566 1.415 . S
C568 C573 1.425 . S
C568 C575 1.409 . S
C569 H561 0.930 . S
C569 C567 1.419 . S
C569 C570 1.362 . S
C570 H562 0.930 . S
C570 C569 1.362 . S
C570 C573 1.409 . S
C571 H563 0.930 . S
C571 C572 1.355 . S
C571 C573 1.415 . S
C572 C571 1.355 . S
C572 C574 1.419 . S
C573 C568 1.425 . S
C573 C570 1.409 . S
C573 C571 1.415 . S
C574 H564 0.930 . S
C574 C572 1.419 . S
C574 C575 1.362 . S
C575 H565 0.930 . S
C575 C568 1.409 . S
C575 C574 1.362 . S
H576 C582 0.930 . S
H577 C585 0.930 . S
H578 C586 0.930 . S
H579 C587 0.930 . S
H580 C590 0.930 . S
H581 C591 0.930 . S
C582 H576 0.930 . S
C582 C583 1.355 . S
C582 C584 1.415 . S
C583 C582 1.355 . S
C583 C585 1.419 . S
C584 C582 1.415 . S
C584 C589 1.425 . S
C584 C591 1.409 . S
C585 H577 0.930 . S
C585 C583 1.419 . S
C585 C586 1.362 . S
C586 H578 0.930 . S
C586 C585 1.362 . S
C586 C589 1.409 . S
C587 H579 0.930 . S
C587 C588 1.355 . S
C587 C589 1.415 . S
C588 C587 1.355 . S
C588 C590 1.419 . S
C589 C584 1.425 . S
C589 C586 1.409 . S
C589 C587 1.415 . S
C590 H580 0.930 . S
C590 C588 1.419 . S
C590 C591 1.362 . S
C591 H581 0.930 . S
C591 C584 1.409 . S
C591 C590 1.362 . S
H592 C598 0.930 . S
H593 C601 0.930 . S
H594 C602 0.930 . S
H595 C603 0.930 . S
H596 C606 0.930 . S
H597 C607 0.930 . S
C598 H592 0.930 . S
C598 C599 1.360 . S
C598 C600 1.415 . S
C599 C598 1.360 . S
C599 C601 1.412 1_455 S
C600 C598 1.415 . S
C600 C605 1.425 1_455 S
C600 C607 1.409 . S
C601 H593 0.930 . S
C601 C599 1.412 1_655 S
C601 C602 1.362 . S
C602 H594 0.930 . S
C602 C601 1.362 . S
C602 C605 1.409 . S
C603 H595 0.930 . S
C603 C604 1.360 . S
C603 C605 1.415 . S
C604 C603 1.360 . S
C604 C606 1.412 1_655 S
C605 C600 1.425 1_655 S
C605 C602 1.409 . S
C605 C603 1.415 . S
C606 H596 0.930 . S
C606 C604 1.412 1_455 S
C606 C607 1.362 . S
C607 H597 0.930 . S
C607 C600 1.409 . S
C607 C606 1.362 . S
H608 C614 0.930 . S
H609 C617 0.930 . S
H610 C618 0.930 . S
H611 C619 0.930 . S
H612 C622 0.930 . S
H613 C623 0.930 . S
C614 H608 0.930 . S
C614 C615 1.371 . S
C614 C616 1.415 . S
C615 C614 1.371 . S
C615 C617 1.397 1_565 S
C616 C614 1.415 . S
C616 C621 1.425 1_565 S
C616 C623 1.409 . S
C617 H609 0.930 . S
C617 C615 1.397 1_545 S
C617 C618 1.362 . S
C618 H610 0.930 . S
C618 C617 1.362 . S
C618 C621 1.409 . S
C619 H611 0.930 . S
C619 C620 1.371 . S
C619 C621 1.415 . S
C620 C619 1.371 . S
C620 C622 1.397 1_545 S
C621 C616 1.425 1_545 S
C621 C618 1.409 . S
C621 C619 1.415 . S
C622 H612 0.930 . S
C622 C620 1.397 1_565 S
C622 C623 1.362 . S
C623 H613 0.930 . S
C623 C616 1.409 . S
C623 C622 1.362 . S
H624 C630 0.930 . S
H625 C633 0.930 . S
H626 C634 0.930 . S
H627 C635 0.930 . S
H628 C638 0.930 . S
H629 C639 0.930 . S
C630 H624 0.930 . S
C630 C631 1.367 . S
C630 C632 1.415 . S
C631 C630 1.367 . S
C631 C633 1.402 1_455 S
C632 C630 1.415 . S
C632 C637 1.425 1_455 S
C632 C639 1.409 . S
C633 H625 0.930 . S
C633 C631 1.402 1_655 S
C633 C634 1.362 . S
C634 H626 0.930 . S
C634 C633 1.362 . S
C634 C637 1.409 . S
C635 H627 0.930 . S
C635 C636 1.367 . S
C635 C637 1.415 . S
C636 C635 1.367 . S
C636 C638 1.402 1_655 S
C637 C632 1.425 1_655 S
C637 C634 1.409 . S
C637 C635 1.415 . S
C638 H628 0.930 . S
C638 C636 1.402 1_455 S
C638 C639 1.362 . S
C639 H629 0.930 . S
C639 C632 1.409 . S
C639 C638 1.362 . S
H640 C646 0.930 . S
H641 C649 0.930 . S
H642 C650 0.930 . S
H643 C651 0.930 . S
H644 C654 0.930 . S
H645 C655 0.930 . S
C646 H640 0.930 . S
C646 C647 1.355 . S
C646 C648 1.415 . S
C647 C646 1.355 . S
C647 C649 1.419 1_545 S
C648 C646 1.415 . S
C648 C653 1.425 1_545 S
C648 C655 1.409 . S
C649 H641 0.930 . S
C649 C647 1.419 1_565 S
C649 C650 1.362 . S
C650 H642 0.930 . S
C650 C649 1.362 . S
C650 C653 1.409 . S
C651 H643 0.930 . S
C651 C652 1.355 . S
C651 C653 1.415 . S
C652 C651 1.355 . S
C652 C654 1.419 1_565 S
C653 C648 1.425 1_565 S
C653 C650 1.409 . S
C653 C651 1.415 . S
C654 H644 0.930 . S
C654 C652 1.419 1_545 S
C654 C655 1.362 . S
C655 H645 0.930 . S
C655 C648 1.409 . S
C655 C654 1.362 . S
H656 C662 0.930 . S
H657 C665 0.930 . S
H658 C666 0.930 . S
H659 C667 0.930 . S
H660 C670 0.930 . S
H661 C671 0.930 . S
C662 H656 0.930 . S
C662 C663 1.355 . S
C662 C664 1.415 . S
C663 C662 1.355 . S
C663 C665 1.419 . S
C664 C662 1.415 . S
C664 C669 1.425 1_556 S
C664 C671 1.409 1_556 S
C665 H657 0.930 . S
C665 C663 1.419 . S
C665 C666 1.362 . S
C666 H658 0.930 . S
C666 C665 1.362 . S
C666 C669 1.409 1_556 S
C667 H659 0.930 . S
C667 C668 1.355 . S
C667 C669 1.415 . S
C668 C667 1.355 . S
C668 C670 1.419 . S
C669 C664 1.425 1_554 S
C669 C666 1.409 1_554 S
C669 C667 1.415 . S
C670 H660 0.930 . S
C670 C668 1.419 . S
C670 C671 1.362 . S
C671 H661 0.930 . S
C671 C664 1.409 1_554 S
C671 C670 1.362 . S
H672 C678 0.930 . S
H673 C681 0.930 . S
H674 C682 0.930 . S
H675 C683 0.930 . S
H676 C686 0.930 . S
H677 C687 0.930 . S
C678 H672 0.930 . S
C678 C679 1.355 . S
C678 C680 1.415 . S
C679 C678 1.355 . S
C679 C681 1.419 . S
C680 C678 1.415 . S
C680 C685 1.425 1_556 S
C680 C687 1.409 1_556 S
C681 H673 0.930 . S
C681 C679 1.419 . S
C681 C682 1.362 . S
C682 H674 0.930 . S
C682 C681 1.362 . S
C682 C685 1.409 1_556 S
C683 H675 0.930 . S
C683 C684 1.355 . S
C683 C685 1.415 . S
C684 C683 1.355 . S
C684 C686 1.419 . S
C685 C680 1.425 1_554 S
C685 C682 1.409 1_554 S
C685 C683 1.415 . S
C686 H676 0.930 . S
C686 C684 1.419 . S
C686 C687 1.362 . S
C687 H677 0.930 . S
C687 C680 1.409 1_554 S
C687 C686 1.362 . S
H688 C694 0.930 . S
H689 C697 0.930 . S
H690 C698 0.930 . S
H691 C699 0.930 . S
H692 C702 0.930 . S
H693 C703 0.930 . S
C694 H688 0.930 . S
C694 C695 1.355 . S
C694 C696 1.415 . S
C695 C694 1.355 . S
C695 C697 1.419 . S
C696 C694 1.415 . S
C696 C701 1.425 1_554 S
C696 C703 1.409 1_554 S
C697 H689 0.930 . S
C697 C695 1.419 . S
C697 C698 1.362 . S
C698 H690 0.930 . S
C698 C697 1.362 . S
C698 C701 1.409 1_554 S
C699 H691 0.930 . S
C699 C700 1.355 . S
C699 C701 1.415 . S
C700 C699 1.355 . S
C700 C702 1.419 . S
C701 C696 1.425 1_556 S
C701 C698 1.409 1_556 S
C701 C699 1.415 . S
C702 H692 0.930 . S
C702 C700 1.419 . S
C702 C703 1.362 . S
C703 H693 0.930 . S
C703 C696 1.409 1_556 S
C703 C702 1.362 . S
H704 C710 0.930 . S
H705 C713 0.930 . S
H706 C714 0.930 . S
H707 C715 0.930 . S
H708 C718 0.930 . S
H709 C719 0.930 . S
C710 H704 0.930 . S
C710 C711 1.355 . S
C710 C712 1.415 . S
C711 C710 1.355 . S
C711 C713 1.419 . S
C712 C710 1.415 . S
C712 C717 1.425 1_556 S
C712 C719 1.409 1_556 S
C713 H705 0.930 . S
C713 C711 1.419 . S
C713 C714 1.362 . S
C714 H706 0.930 . S
C714 C713 1.362 . S
C714 C717 1.409 1_556 S
C715 H707 0.930 . S
C715 C716 1.355 . S
C715 C717 1.415 . S
C716 C715 1.355 . S
C716 C718 1.419 . S
C717 C712 1.425 1_554 S
C717 C714 1.409 1_554 S
C717 C715 1.415 . S
C718 H708 0.930 . S
C718 C716 1.419 . S
C718 C719 1.362 . S
C719 H709 0.930 . S
C719 C712 1.409 1_554 S
C719 C718 1.362 . S
C215 C8 1.452 . S
C220 C44 1.329 . S
C231 C5 1.281 . S
C236 C21 1.448 . S
C247 C18 1.382 . S
C252 C34 1.414 . S
C263 C31 1.353 . S
C268 C47 1.408 . S
C279 C60 1.447 . S
C284 C70 1.280 . S
C295 C73 1.452 . S
C300 C83 1.325 . S
C311 C86 1.409 . S
C316 C96 1.335 . S
C327 C99 1.453 . S
C332 C57 1.299 . S
C343 C112 1.419 . S
C348 C148 1.299 . S
C359 C109 1.356 . S
C364 C125 1.445 . S
C375 C122 1.383 . S
C380 C138 1.414 . S
C391 C151 1.443 . S
C396 C135 1.277 . S
C407 C174 1.276 . S
C412 C164 1.439 . S
C423 C187 1.387 . S
C428 C177 1.423 . S
C439 C190 1.411 . S
C444 C200 1.329 . S
C455 C203 1.450 . S
C460 C161 1.337 . S
C471 C0 1.078 . S
C476 C195 1.096 . S
C487 C13 1.092 . S
C492 C156 1.113 . S
C503 C169 1.078 . S
C508 C26 1.068 . S
C519 C39 1.123 . S
C524 C182 1.101 . S
C535 C117 1.136 . S
C540 C52 1.116 . S
C551 C130 1.112 . S
C556 C65 1.132 . S
C567 C78 1.068 . S
C572 C143 1.072 . S
C583 C91 1.096 . S
C588 C104 1.078 . S
C599 C10 1.432 . S
C604 C88 1.422 . S
C615 C101 1.414 . S
C620 C23 1.445 . S
C631 C62 1.448 . S
C636 C36 1.412 . S
C647 C75 1.391 . S
C652 C49 1.444 . S
C663 C114 1.405 . S
C668 C192 1.380 . S
C679 C127 1.441 . S
C684 C205 1.375 . S
C695 C166 1.436 . S
C700 C140 1.412 . S
C711 C153 1.439 . S
C716 C179 1.406 . S
