# Generated by pormake.
# Topology rkf, (6)-cn, num edge types: 1
# Building blocks:
#     Node 0, Type 0, BuildingBlock: BETDEL_clean_sbu_0, # of connection points: 6
#     Node 1, Type 0, BuildingBlock: BETDEL_clean_sbu_0, # of connection points: 6
#     Node 2, Type 0, BuildingBlock: BETDEL_clean_sbu_0, # of connection points: 6
#     Node 3, Type 0, BuildingBlock: BETDEL_clean_sbu_0, # of connection points: 6
#     Node 4, Type 0, BuildingBlock: BETDEL_clean_sbu_0, # of connection points: 6
#     Node 5, Type 0, BuildingBlock: BETDEL_clean_sbu_0, # of connection points: 6
#     Edge 6, Type (0, 0), BuildingBlock: FUNLAD_clean_linker_0, # of connection points: 2
#     Edge 7, Type (0, 0), BuildingBlock: FUNLAD_clean_linker_0, # of connection points: 2
#     Edge 8, Type (0, 0), BuildingBlock: FUNLAD_clean_linker_0, # of connection points: 2
#     Edge 9, Type (0, 0), BuildingBlock: FUNLAD_clean_linker_0, # of connection points: 2
#     Edge 10, Type (0, 0), BuildingBlock: FUNLAD_clean_linker_0, # of connection points: 2
#     Edge 11, Type (0, 0), BuildingBlock: FUNLAD_clean_linker_0, # of connection points: 2
#     Edge 12, Type (0, 0), BuildingBlock: FUNLAD_clean_linker_0, # of connection points: 2
#     Edge 13, Type (0, 0), BuildingBlock: FUNLAD_clean_linker_0, # of connection points: 2
#     Edge 14, Type (0, 0), BuildingBlock: FUNLAD_clean_linker_0, # of connection points: 2
#     Edge 15, Type (0, 0), BuildingBlock: FUNLAD_clean_linker_0, # of connection points: 2
#     Edge 16, Type (0, 0), BuildingBlock: FUNLAD_clean_linker_0, # of connection points: 2
#     Edge 17, Type (0, 0), BuildingBlock: FUNLAD_clean_linker_0, # of connection points: 2
#     Edge 18, Type (0, 0), BuildingBlock: FUNLAD_clean_linker_0, # of connection points: 2
#     Edge 19, Type (0, 0), BuildingBlock: FUNLAD_clean_linker_0, # of connection points: 2
#     Edge 20, Type (0, 0), BuildingBlock: FUNLAD_clean_linker_0, # of connection points: 2
#     Edge 21, Type (0, 0), BuildingBlock: FUNLAD_clean_linker_0, # of connection points: 2
#     Edge 22, Type (0, 0), BuildingBlock: FUNLAD_clean_linker_0, # of connection points: 2
#     Edge 23, Type (0, 0), BuildingBlock: FUNLAD_clean_linker_0, # of connection points: 2
# Relax obj value: 0.365
# Max RMSD: 0.269
# Mean RMSD: 0.269
data_MOF--net-rkf--node1-BETDEL_clean_sbu_0--edge1-FUNLAD_clean_linker_0
_symmetry_space_group_name_H-M    P1
_symmetry_Int_Tables_number       1
_symmetry_cell_setting            triclinic
loop_
_symmetry_equiv_pos_as_xyz
'x, y, z'
_cell_length_a     27.735288
_cell_length_b     27.398806
_cell_length_c     47.800051
_cell_angle_alpha  89.974403
_cell_angle_beta   90.176508
_cell_angle_gamma 120.16938
loop_
_atom_site_label
_atom_site_type_symbol
_atom_site_fract_x
_atom_site_fract_y
_atom_site_fract_z
_atom_type_partial_charge
Dy0 Dy 0.20998 0.99028 0.05575 0.0
C1 C 0.2681 0.15912 0.96835 0.0
C2 C 0.16387 0.90468 0.09425 0.0
Dy3 Dy 0.26189 0.09054 1.01189 0.0
O4 O 0.13704 0.9124 0.07391 0.0
O5 O 0.21701 0.94137 0.09209 0.0
O6 O 0.16503 0.03246 0.074 0.0
O7 O 0.18202 0.03902 1.03177 0.0
C8 C 0.16201 0.05484 0.05078 0.0
C9 C 0.33179 0.05699 1.03032 0.0
O10 O 0.28299 0.13607 0.05327 0.0
O11 O 0.27755 0.06217 0.07995 0.0
O12 O 0.284 0.12181 0.9674 0.0
O13 O 0.25212 0.16126 0.99368 0.0
O14 O 0.34834 0.10769 1.02099 0.0
O15 O 0.28004 0.0255 1.02635 0.0
O16 O 0.19231 0.94159 1.01507 0.0
O17 O 0.20729 0.01588 0.98563 0.0
C18 C 0.29249 0.11616 0.07681 0.0
C19 C 0.19052 0.96202 0.99 0.0
Dy20 Dy 0.27453 0.23139 0.37764 0.0
C21 C 0.09624 0.21789 0.31099 0.0
C22 C 0.3399 0.2221 0.41831 0.0
Dy23 Dy 0.18001 0.23714 0.34853 0.0
O24 O 0.31437 0.18646 0.39821 0.0
O25 O 0.33359 0.26567 0.41471 0.0
O26 O 0.25164 0.15596 0.35231 0.0
O27 O 0.18751 0.16765 0.36786 0.0
C28 C 0.19825 0.13412 0.35444 0.0
C29 C 0.26082 0.33522 0.36983 0.0
O30 O 0.14117 0.21601 0.39091 0.0
O31 O 0.22317 0.23511 0.41313 0.0
O32 O 0.13067 0.26621 0.32239 0.0
O33 O 0.10689 0.17991 0.32061 0.0
O34 O 0.20925 0.32342 0.36774 0.0
O35 O 0.26644 0.2975 0.35809 0.0
O36 O 0.31852 0.26372 0.33678 0.0
O37 O 0.23558 0.23948 0.31344 0.0
C38 C 0.17088 0.22401 0.41397 0.0
C39 C 0.28948 0.25518 0.31326 0.0
Dy40 Dy 0.97068 0.20979 0.71929 0.0
C41 C 0.79409 0.14328 0.63775 0.0
C42 C 0.05906 0.23376 0.75416 0.0
Dy43 Dy 0.87023 0.1894 0.68029 0.0
O44 O 0.04315 0.19965 0.73283 0.0
O45 O 0.02836 0.25731 0.75552 0.0
O46 O 0.92015 0.11636 0.73013 0.0
O47 O 0.9115 0.14441 0.69197 0.0
C48 C 0.89291 0.10111 0.70665 0.0
C49 C 0.92347 0.29089 0.7043 0.0
O50 O 0.82915 0.16157 0.72257 0.0
O51 O 0.91069 0.21452 0.74838 0.0
O52 O 0.83343 0.19597 0.63939 0.0
O53 O 0.79405 0.11693 0.66045 0.0
O54 O 0.87137 0.2661 0.69646 0.0
O55 O 0.94635 0.26345 0.69599 0.0
O56 O 0.0154 0.2323 0.67768 0.0
O57 O 0.93617 0.20198 0.64964 0.0
C58 C 0.85563 0.1858 0.7463 0.0
C59 C -0.00983 0.22028 0.65277 0.0
Dy60 Dy 0.8197 0.10581 0.0482 0.0
C61 C 0.84199 0.95327 0.97381 0.0
C62 C 0.8263 0.16499 0.09589 0.0
Dy63 Dy 0.8157 0.00724 1.01456 0.0
O64 O 0.85791 0.18562 0.07397 0.0
O65 O 0.7866 0.1141 0.08993 0.0
O66 O 0.89255 0.16516 1.02334 0.0
O67 O 0.88261 0.08587 1.03345 0.0
C68 C 0.91291 0.13197 1.02059 0.0
C69 C 0.7199 0.98406 0.03962 0.0
O70 O 0.83475 0.98202 0.05578 0.0
O71 O 0.8263 0.05032 0.08041 0.0
O72 O 0.79198 0.94311 0.97958 0.0
O73 O 0.87726 0.99188 0.99078 0.0
O74 O 0.73203 0.94491 1.03378 0.0
O75 O 0.75577 0.02974 1.02886 0.0
O76 O 0.77873 0.11577 1.00988 0.0
O77 O 0.80592 0.06275 0.98265 0.0
C78 C 0.83362 0.00632 0.07953 0.0
C79 C 0.78556 0.09744 0.98519 0.0
Dy80 Dy 0.78589 0.83921 0.38977 0.0
C81 C 0.88908 0.7541 0.3125 0.0
C82 C 0.735 0.88203 0.42245 0.0
Dy83 Dy 0.83167 0.77447 0.3534 0.0
O84 O 0.77589 0.91114 0.40525 0.0
O85 O 0.71974 0.82872 0.42049 0.0
O86 O 0.87147 0.89151 0.40846 0.0
O87 O 0.86231 0.86006 0.36801 0.0
C88 C 0.89711 0.88601 0.38716 0.0
C89 C 0.72923 0.71092 0.37407 0.0
O90 O 0.8588 0.76601 0.39654 0.0
O91 O 0.79497 0.78215 0.42055 0.0
O92 O 0.83515 0.7314 0.31373 0.0
O93 O 0.91123 0.7853 0.33458 0.0
O94 O 0.76286 0.69173 0.36892 0.0
O95 O 0.74968 0.76105 0.36541 0.0
O96 O 0.77005 0.86197 0.34665 0.0
O97 O 0.80794 0.81667 0.32088 0.0
C98 C 0.83303 0.76618 0.41997 0.0
C99 C 0.78385 0.84777 0.32258 0.0
Dy100 Dy 0.0685 0.84999 0.71779 0.0
C101 C 0.24552 0.95701 0.63714 0.0
C102 C 0.98393 0.81416 0.75623 0.0
Dy103 Dy 0.17262 0.89311 0.67844 0.0
O104 O -0.01339 0.83944 0.73272 0.0
O105 O 0.0252 0.80433 0.75745 0.0
O106 O 0.09783 0.94285 0.72504 0.0
O107 O 0.11192 0.91676 0.68768 0.0
C108 C 0.12006 0.95969 0.70059 0.0
C109 C 0.14499 0.79643 0.70462 0.0
O110 O 0.21027 0.93202 0.72061 0.0
O111 O 0.13656 0.86439 0.74677 0.0
O112 O 0.2201 0.90209 0.63863 0.0
O113 O 0.23303 0.97682 0.65896 0.0
O114 O 0.19545 0.83184 0.69604 0.0
O115 O 0.11126 0.81167 0.6961 0.0
O116 O 0.02297 0.80818 0.67795 0.0
O117 O 0.10055 0.85178 0.64829 0.0
C118 C 0.18862 0.90561 0.74465 0.0
C119 C 0.04589 0.8193 0.65253 0.0
C120 C 0.00191 0.20212 0.99917 0.0
C121 C 0.97369 0.15938 1.01908 0.0
C122 C 0.05848 0.24152 1.00258 0.0
C123 C 0.08752 0.23889 1.02601 0.0
C124 C 0.05936 0.19521 0.04562 0.0
C125 C 0.00321 0.15508 0.04186 0.0
C126 C 0.1462 0.28403 1.03061 0.0
C127 C 0.18646 0.27447 0.04001 0.0
C128 C 0.17844 0.21725 0.04307 0.0
C129 C 0.15709 0.17865 1.02077 0.0
C130 C 0.14846 0.12428 1.02391 0.0
C131 C 0.16138 0.10794 0.0493 0.0
H132 H 0.20642 0.22975 0.08612 0.0
C133 C 0.18081 0.1458 0.07194 0.0
C134 C 0.19029 0.20058 0.06866 0.0
H135 H 0.1913 0.13404 0.09171 0.0
H136 H 0.97933 0.20706 0.98188 0.0
H137 H 0.07913 0.27513 0.98741 0.0
H138 H 0.07987 0.1935 0.06459 0.0
H139 H 0.9818 0.12395 0.05808 0.0
H140 H 0.15702 0.32737 1.0265 0.0
H141 H 0.22701 0.31034 0.04519 0.0
H142 H 0.14771 0.19079 1.00081 0.0
H143 H 0.13364 0.09569 1.00619 0.0
C144 C 0.96811 0.87847 0.41588 0.0
C145 C 0.95011 0.88674 0.38969 0.0
C146 C 0.01386 0.87039 0.4177 0.0
C147 C 0.04292 0.87223 0.39347 0.0
C148 C 0.02538 0.88135 0.36738 0.0
C149 C 0.97961 0.88915 0.36557 0.0
C150 C 0.09505 0.8705 0.39564 0.0
C151 C 0.14369 0.91308 0.38622 0.0
C152 C 0.14978 0.96711 0.37624 0.0
C153 C 0.13307 -0.00186 0.39306 0.0
C154 C 0.14146 0.05036 0.3841 0.0
C155 C 0.16772 0.07275 0.35845 0.0
H156 H 0.18541 0.96434 0.33658 0.0
C157 C 0.18114 0.04005 0.34094 0.0
C158 C 0.17269 0.98783 0.34989 0.0
H159 H 0.20251 0.05707 0.32131 0.0
H160 H 0.94572 0.87629 0.4348 0.0
H161 H 0.02731 0.86404 0.438 0.0
H162 H 0.04759 0.8831 0.34845 0.0
H163 H 0.96655 0.89594 0.34525 0.0
H164 H 0.09383 0.83361 0.40478 0.0
H165 H 0.18004 0.90793 0.38601 0.0
H166 H 0.11589 0.9832 0.41368 0.0
H167 H 0.13226 0.07532 0.39836 0.0
C168 C 0.11586 0.00175 0.65559 0.0
C169 C 0.11645 0.00415 0.68507 0.0
C170 C 0.08495 0.01993 0.6403 0.0
C171 C 0.05732 0.04343 0.65433 0.0
C172 C 0.06763 0.05638 0.68294 0.0
C173 C 0.09674 0.03622 0.69842 0.0
C174 C 0.00644 0.03891 0.64237 0.0
C175 C 0.95913 0.98842 0.64476 0.0
C176 C 0.91225 0.9882 0.65911 0.0
C177 C 0.88633 0.01537 0.64676 0.0
C178 C 0.86762 0.04381 0.66367 0.0
C179 C 0.87733 0.04719 0.69276 0.0
H180 H 0.9284 0.9585 0.69804 0.0
C181 C 0.89194 0.01004 0.70517 0.0
C182 C 0.90895 0.97999 0.68822 0.0
H183 H 0.89862 0.01086 0.72755 0.0
H184 H 0.13202 0.97836 0.64467 0.0
H185 H 0.07763 0.01001 0.61821 0.0
H186 H 0.04658 0.07486 0.694 0.0
H187 H 0.09742 0.03946 0.72102 0.0
H188 H 0.00393 0.07729 0.64302 0.0
H189 H 0.96243 0.95071 0.64724 0.0
H190 H 0.88809 0.02165 0.62432 0.0
H191 H 0.85519 0.0711 0.65353 0.0
C192 C 0.26443 0.16977 0.91623 0.0
C193 C 0.25703 0.18459 0.94339 0.0
C194 C 0.2464 0.18705 0.89269 0.0
C195 C 0.22004 0.21942 0.89571 0.0
C196 C 0.21515 0.23627 0.9229 0.0
C197 C 0.23324 0.21903 0.94639 0.0
C198 C 0.19632 0.23593 0.87152 0.0
C199 C 0.18616 0.21206 0.84573 0.0
C200 C 0.15805 0.22423 0.82194 0.0
C201 C 0.15392 0.19822 0.79594 0.0
C202 C 0.12412 0.20367 0.7736 0.0
C203 C 0.09742 0.23542 0.7765 0.0
H204 H 0.1343 0.27863 0.84393 0.0
C205 C 0.10301 0.26332 0.80204 0.0
C206 C 0.13286 0.25783 0.82451 0.0
H207 H 0.08256 0.28777 0.80502 0.0
H208 H 0.28274 0.14334 0.91318 0.0
H209 H 0.25299 0.17435 0.87232 0.0
H210 H 0.19575 0.26167 0.92611 0.0
H211 H 0.22715 0.23143 0.96698 0.0
H212 H 0.18474 0.2675 0.87583 0.0
H213 H 0.19716 0.17996 0.84171 0.0
H214 H 0.17271 0.17217 0.79304 0.0
H215 H 0.12051 0.1814 0.75428 0.0
C216 C 0.04957 0.25351 0.27808 0.0
C217 C 0.05469 0.20844 0.28873 0.0
C218 C 0.0126 0.24506 0.25596 0.0
C219 C 0.97986 0.19115 0.2438 0.0
C220 C 0.9842 0.14599 0.25507 0.0
C221 C 0.02118 0.1545 0.27711 0.0
C222 C 0.94086 0.17966 0.21954 0.0
C223 C 0.94204 0.21973 0.20244 0.0
C224 C 0.90674 0.20716 0.17659 0.0
C225 C 0.92544 0.24738 0.15494 0.0
C226 C 0.89679 0.23549 0.12934 0.0
C227 C 0.84801 0.18335 0.12482 0.0
H228 H 0.83889 0.12469 0.18898 0.0
C229 C 0.82696 0.14461 0.14712 0.0
C230 C 0.85596 0.15622 0.17266 0.0
H231 H 0.7897 0.1038 0.14433 0.0
H232 H 0.07462 0.29556 0.28668 0.0
H233 H 0.0099 0.28095 0.24866 0.0
H234 H 0.95944 0.10387 0.24648 0.0
H235 H 0.02398 0.11883 0.28483 0.0
H236 H 0.91232 0.1356 0.21459 0.0
H237 H 0.97319 0.2636 0.20599 0.0
H238 H 0.9639 0.2873 0.15734 0.0
H239 H 0.91441 0.26611 0.11258 0.0
C240 C 0.7375 0.05551 0.60933 0.0
C241 C 0.76668 0.11472 0.61117 0.0
C242 C 0.72159 0.02842 0.58324 0.0
C243 C 0.73464 0.06009 0.55827 0.0
C244 C 0.76075 0.11924 0.56047 0.0
C245 C 0.77671 0.14622 0.58653 0.0
C246 C 0.72576 0.03453 0.52959 0.0
C247 C 0.7078 0.9795 0.52421 0.0
C248 C 0.70819 0.9563 0.49586 0.0
C249 C 0.67884 0.89738 0.49198 0.0
C250 C 0.68439 0.87315 0.46725 0.0
C251 C 0.71971 0.90731 0.44579 0.0
H252 H 0.7657 0.03594 0.47564 0.0
C253 C 0.74682 0.96625 0.44893 0.0
C254 C 0.74134 0.99054 0.47365 0.0
H255 H 0.77475 0.99372 0.43286 0.0
H256 H 0.72931 0.03004 0.62797 0.0
H257 H 0.70076 0.9829 0.58302 0.0
H258 H 0.77113 0.14506 0.54182 0.0
H259 H 0.79929 0.19193 0.58722 0.0
H260 H 0.73733 0.06357 0.51214 0.0
H261 H 0.69397 0.94955 0.5413 0.0
H262 H 0.65309 0.86974 0.5086 0.0
H263 H 0.66319 0.82758 0.46555 0.0
C264 C 0.81756 0.89381 0.93008 0.0
C265 C 0.85735 0.92851 0.95013 0.0
C266 C 0.8331 0.87316 0.90692 0.0
C267 C 0.88895 0.8867 0.90332 0.0
C268 C 0.92822 0.92035 0.92381 0.0
C269 C 0.91278 0.94128 0.94676 0.0
C270 C 0.90821 0.86633 0.87898 0.0
C271 C 0.88142 0.84969 0.85405 0.0
C272 C 0.90417 0.83447 0.82919 0.0
C273 C 0.88869 0.84184 0.80214 0.0
C274 C 0.91221 0.83218 0.77831 0.0
C275 C 0.95117 0.81392 0.7809 0.0
H276 H 0.95282 0.80537 0.85207 0.0
C277 C 0.96426 0.80331 0.80786 0.0
C278 C 0.94113 0.81348 0.83172 0.0
H279 H -0.0058 0.78931 0.81061 0.0
H280 H 0.77445 0.8831 0.93212 0.0
H281 H 0.80111 0.84628 0.89213 0.0
H282 H 0.97143 0.93129 0.92187 0.0
H283 H 0.94447 0.96784 0.96182 0.0
H284 H 0.94843 0.86898 0.88123 0.0
H285 H 0.84362 0.85154 0.85083 0.0
H286 H 0.85986 0.85726 0.7994 0.0
H287 H 0.90138 0.84101 0.75788 0.0
C288 C 0.97825 0.7924 0.28512 0.0
C289 C 0.92037 0.75531 0.28701 0.0
C290 C 0.00638 0.80013 0.25963 0.0
C291 C 0.97723 0.77056 0.23534 0.0
C292 C 0.9197 0.73188 0.23773 0.0
C293 C 0.89167 0.72439 0.26314 0.0
C294 C 0.00337 0.7812 0.20679 0.0
C295 C 0.05867 0.81319 0.20139 0.0
C296 C 0.0837 0.82872 0.17258 0.0
C297 C 0.14207 0.85529 0.1698 0.0
C298 C 0.1681 0.87666 0.14393 0.0
C299 C 0.13643 0.87214 0.12006 0.0
H300 H 0.00709 0.80285 0.14908 0.0
C301 C 0.07799 0.84331 0.12241 0.0
C302 C 0.05191 0.82203 0.14827 0.0
H303 H 0.05233 0.83959 0.10449 0.0
H304 H 0.0015 0.8173 0.30308 0.0
H305 H 0.05039 0.83087 0.25907 0.0
H306 H 0.89578 0.70839 0.21959 0.0
H307 H 0.84703 0.69573 0.2638 0.0
H308 H 0.97479 0.76179 0.1894 0.0
H309 H 0.08771 0.82985 0.21878 0.0
H310 H 0.16798 0.86132 0.18796 0.0
H311 H 0.21322 0.89903 0.14295 0.0
C312 C 0.29387 0.04907 0.61119 0.0
C313 C 0.27489 0.99088 0.61206 0.0
C314 C 0.31506 0.07987 0.58636 0.0
C315 C 0.31749 0.05302 0.56165 0.0
C316 C 0.30066 0.99526 0.56305 0.0
C317 C 0.27949 0.96456 0.58785 0.0
C318 C 0.33536 0.0823 0.53386 0.0
C319 C 0.34039 0.13301 0.52783 0.0
C320 C 0.35033 0.1587 0.49912 0.0
C321 C 0.35815 0.21343 0.49632 0.0
C322 C 0.35962 0.2364 0.46987 0.0
C323 C 0.35317 0.20512 0.44548 0.0
H324 H 0.34124 0.0868 0.47514 0.0
C325 C 0.34893 0.15199 0.44809 0.0
C326 C 0.34747 0.12897 0.47449 0.0
H327 H 0.34347 0.12661 0.42968 0.0
H328 H 0.29097 0.07061 0.62955 0.0
H329 H 0.3288 0.1244 0.5868 0.0
H330 H 0.30228 0.97321 0.54458 0.0
H331 H 0.26514 0.91977 0.58781 0.0
H332 H 0.34175 0.05899 0.51741 0.0
H333 H 0.33412 0.15631 0.54435 0.0
H334 H 0.36069 0.2377 0.51472 0.0
H335 H 0.3624 0.27722 0.46863 0.0
C336 C 0.3573 0.9829 0.04094 0.0
C337 C 0.36969 0.03928 0.0422 0.0
C338 C 0.39675 0.9684 0.04992 0.0
C339 C 0.44855 0.01008 0.0608 0.0
C340 C 0.45911 0.06563 0.06341 0.0
C341 C 0.42049 0.08023 0.05389 0.0
C342 C 0.49431 -0.00085 0.06831 0.0
C343 C 0.50381 0.96143 0.05497 0.0
C344 C 0.55924 0.96495 0.0558 0.0
C345 C 0.56366 0.91714 0.04954 0.0
C346 C 0.61618 0.92192 0.0461 0.0
C347 C 0.66493 0.97489 0.0483 0.0
H348 H 0.60751 0.05571 0.06296 0.0
C349 C 0.66048 0.02208 0.05549 0.0
C350 C 0.60853 0.01731 0.0592 0.0
H351 H 0.69726 0.06359 0.05689 0.0
H352 H 0.3181 0.95054 1.03214 0.0
H353 H 0.3868 0.92494 0.04814 0.0
H354 H 0.49848 0.09852 0.07183 0.0
H355 H 0.43072 0.12387 0.05538 0.0
H356 H 0.5255 0.02874 0.08283 0.0
H357 H 0.47257 0.93076 0.04083 0.0
H358 H 0.52643 0.87645 0.04642 0.0
H359 H 0.61847 0.88496 0.04024 0.0
C360 C 0.3603 0.39214 0.38303 0.0
C361 C 0.30891 0.38932 0.37886 0.0
C362 C 0.40818 0.44343 0.38867 0.0
C363 C 0.40607 0.49358 0.39011 0.0
C364 C 0.35446 0.49084 0.38632 0.0
C365 C 0.30593 0.43885 0.38111 0.0
C366 C 0.45853 0.54899 0.39215 0.0
C367 C 0.50316 0.55458 0.40631 0.0
C368 C 0.56154 0.60009 0.4012 0.0
C369 C 0.6041 0.58796 0.40691 0.0
C370 C 0.65883 0.62505 0.39879 0.0
C371 C 0.67253 0.67574 0.38524 0.0
H372 H 0.54438 0.66394 0.38482 0.0
C373 C 0.63103 0.69013 0.38117 0.0
C374 C 0.57573 0.6524 0.38893 0.0
H375 H 0.64085 0.7294 0.371 0.0
H376 H 0.364 0.35479 0.38101 0.0
H377 H 0.44734 0.44389 0.3904 0.0
H378 H 0.35191 0.529 0.38688 0.0
H379 H 0.26679 0.43778 0.37768 0.0
H380 H 0.46169 0.58322 0.37939 0.0
H381 H 0.4977 0.51981 0.41949 0.0
H382 H 0.5946 0.54826 0.4165 0.0
H383 H 0.69025 0.61333 0.40252 0.0
C384 C 0.011 0.38156 0.71583 0.0
C385 C 0.95266 0.34819 0.71627 0.0
C386 C 0.03711 0.43846 0.72381 0.0
C387 C 0.00503 0.46262 0.73242 0.0
C388 C 0.94707 0.42773 0.73474 0.0
C389 C 0.92114 0.37127 0.72662 0.0
C390 C 0.02895 0.52419 0.73724 0.0
C391 C 0.07729 0.56406 0.72597 0.0
C392 C 0.09415 0.62481 0.72496 0.0
C393 C 0.15078 0.66502 0.72168 0.0
C394 C 0.16754 0.72154 0.71655 0.0
C395 C 0.12783 0.73879 0.71414 0.0
H396 H 0.01038 0.61289 0.72549 0.0
C397 C 0.07136 0.69923 0.71853 0.0
C398 C 0.05457 0.6427 0.72385 0.0
H399 H 0.03991 0.71146 0.71672 0.0
H400 H 0.03622 0.36436 0.70831 0.0
H401 H 0.08207 0.46327 0.72269 0.0
H402 H 0.92132 0.44481 0.74163 0.0
H403 H 0.87607 0.34611 0.72763 0.0
H404 H 0.00289 0.53712 0.74815 0.0
H405 H 0.10437 0.55211 0.71541 0.0
H406 H 0.18204 0.65238 0.72226 0.0
H407 H 0.21144 0.75125 0.71333 0.0
C408 C 0.32854 0.13355 0.12602 0.0
C409 C 0.31586 0.15358 0.10159 0.0
C410 C 0.34184 0.16435 0.15093 0.0
C411 C 0.34313 0.21635 0.15205 0.0
C412 C 0.33353 0.23781 0.12723 0.0
C413 C 0.32035 0.20698 0.10223 0.0
C414 C 0.34655 0.24522 0.17908 0.0
C415 C 0.36222 0.23299 0.20368 0.0
C416 C 0.35037 0.24948 0.23146 0.0
C417 C 0.37776 0.24555 0.25548 0.0
C418 C 0.36074 0.25119 0.28232 0.0
C419 C 0.31541 0.26004 0.2856 0.0
H420 H 0.28374 0.26373 0.21728 0.0
C421 C 0.29004 0.26692 0.2616 0.0
C422 C 0.30712 0.26164 0.23492 0.0
H423 H 0.25508 0.27399 0.26338 0.0
H424 H 0.32585 0.09272 0.1263 0.0
H425 H 0.34784 0.14534 0.16944 0.0
H426 H 0.33394 0.27756 0.1274 0.0
H427 H 0.311 0.2238 0.08382 0.0
H428 H 0.33222 0.27551 0.17877 0.0
H429 H 0.38164 0.20711 0.20387 0.0
H430 H 0.4109 0.23577 0.25351 0.0
H431 H 0.3809 0.24536 0.30042 0.0
C432 C 0.17662 0.22683 0.46649 0.0
C433 C 0.14644 0.22225 0.44189 0.0
C434 C 0.15493 0.22685 0.4929 0.0
C435 C 0.10244 0.22269 0.49546 0.0
C436 C 0.07214 0.21758 0.47086 0.0
C437 C 0.09378 0.21739 0.44444 0.0
C438 C 0.07652 0.22123 0.52308 0.0
C439 C 0.10312 0.2338 0.54815 0.0
C440 C 0.07436 0.22938 0.57527 0.0
C441 C 0.10544 0.2603 0.59883 0.0
C442 C 0.07897 0.25723 0.62439 0.0
C443 C 0.02082 0.2232 0.62678 0.0
H444 H -0.00892 0.16663 0.56135 0.0
C445 C -0.00973 0.19084 0.6035 0.0
C446 C 0.01654 0.19351 0.57827 0.0
H447 H 0.94558 0.16272 0.60472 0.0
H448 H 0.21723 0.23026 0.46543 0.0
H449 H 0.17936 0.22944 0.51108 0.0
H450 H 0.03139 0.2138 0.47205 0.0
H451 H 0.06935 0.21383 0.42603 0.0
H452 H 0.0331 0.21025 0.5224 0.0
H453 H 0.14758 0.24939 0.54906 0.0
H454 H 0.15023 0.28752 0.59735 0.0
H455 H 0.10375 0.2822 0.64199 0.0
C456 C 0.77758 0.13389 0.78063 0.0
C457 C 0.82461 0.18387 0.77168 0.0
C458 C 0.75619 0.13062 0.80761 0.0
C459 C 0.78149 0.17757 0.82585 0.0
C460 C 0.82532 0.22866 0.81571 0.0
C461 C 0.84695 0.23166 0.78908 0.0
C462 C 0.76767 0.17455 0.85616 0.0
C463 C 0.74665 0.12655 0.87116 0.0
C464 C 0.74794 0.12448 0.90233 0.0
C465 C 0.71645 0.07175 0.91531 0.0
C466 C 0.72531 0.0645 0.94337 0.0
C467 C 0.7655 0.10994 0.9592 0.0
H468 H 0.81175 0.21225 0.90973 0.0
C469 C 0.79419 0.16373 0.94712 0.0
C470 C 0.78565 0.17105 0.91884 0.0
H471 H 0.82635 0.19901 0.95883 0.0
H472 H 0.75949 0.0966 0.7675 0.0
H473 H 0.72103 0.09095 0.81425 0.0
H474 H 0.84523 0.26569 0.82902 0.0
H475 H 0.88281 0.27102 0.78249 0.0
H476 H 0.78173 0.21431 0.86695 0.0
H477 H 0.73226 0.08675 0.86035 0.0
H478 H 0.68733 0.03512 0.90325 0.0
H479 H 0.70324 0.02244 0.95225 0.0
C480 C 0.85219 0.01843 0.13069 0.0
C481 C 0.83638 0.98302 0.10703 0.0
C482 C 0.8445 -0.00379 0.1576 0.0
C483 C 0.82059 0.93779 0.16159 0.0
C484 C 0.8086 0.9028 0.13795 0.0
C485 C 0.8162 0.92516 0.11084 0.0
C486 C 0.80797 0.91231 0.19003 0.0
C487 C 0.79627 0.93543 0.21215 0.0
C488 C 0.78472 0.91056 0.24077 0.0
C489 C 0.79534 0.94579 0.26419 0.0
C490 C 0.7905 0.92466 0.29143 0.0
C491 C 0.77481 0.8679 0.29554 0.0
H492 H 0.75306 0.8235 0.22791 0.0
C493 C 0.76 0.83188 0.27224 0.0
C494 C 0.76444 0.85275 0.2452 0.0
H495 H 0.74717 0.7877 0.27489 0.0
H496 H 0.86895 0.06348 0.12845 0.0
H497 H 0.85688 0.02501 0.17516 0.0
H498 H 0.79112 0.85771 0.14046 0.0
H499 H 0.80355 0.89686 0.09305 0.0
H500 H 0.80748 0.8727 0.19244 0.0
H501 H 0.79678 0.97506 0.20961 0.0
H502 H 0.8101 0.99036 0.26139 0.0
H503 H 0.80261 0.95338 0.30904 0.0
C504 C 0.82742 0.75806 0.47235 0.0
C505 C 0.85104 0.75378 0.4471 0.0
C506 C 0.84935 0.75443 0.49818 0.0
C507 C 0.8955 0.74614 0.49948 0.0
C508 C 0.91739 0.73935 0.47419 0.0
C509 C 0.89549 0.74306 0.44837 0.0
C510 C 0.92498 0.74859 0.5262 0.0
C511 C 0.9089 0.75471 0.55205 0.0
C512 C 0.94393 0.76601 0.57773 0.0
C513 C 0.91906 0.75724 0.60429 0.0
C514 C 0.95156 0.77243 0.62877 0.0
C515 C 0.00982 0.7973 0.62722 0.0
H516 H 0.02369 0.79917 0.55651 0.0
C517 C 0.03447 0.80493 0.60067 0.0
C518 C 0.00216 0.7898 0.57633 0.0
H519 H 0.0792 0.82411 0.59851 0.0
H520 H 0.79312 0.76627 0.47228 0.0
H521 H 0.8308 0.76015 0.51682 0.0
H522 H 0.95287 0.73294 0.47434 0.0
H523 H 0.9149 0.73964 0.42939 0.0
H524 H 0.96303 0.74683 0.52413 0.0
H525 H 0.86914 0.75256 0.55487 0.0
H526 H 0.87441 0.73953 0.60609 0.0
H527 H 0.93114 0.76623 0.64882 0.0
C528 C 0.21783 0.87971 0.78818 0.0
C529 C 0.21958 0.92248 0.77123 0.0
C530 C 0.22334 0.88615 0.81722 0.0
C531 C 0.23036 0.93563 0.82995 0.0
C532 C 0.23826 0.9807 0.8126 0.0
C533 C 0.23282 0.97418 0.78347 0.0
C534 C 0.2231 0.93997 0.86065 0.0
C535 C 0.20873 0.89803 0.87952 0.0
C536 C 0.19389 0.90357 0.90876 0.0
C537 C 0.21294 0.88486 0.93138 0.0
C538 C 0.20574 0.89753 0.959 0.0
C539 C 0.17861 0.92826 0.9642 0.0
H540 H 0.14446 0.94167 0.89733 0.0
C541 C 0.15407 0.94094 0.94169 0.0
C542 C 0.16172 0.9289 0.91428 0.0
H543 H 0.13282 0.96453 0.94511 0.0
H544 H 0.20691 0.83912 0.77917 0.0
H545 H 0.21819 0.85064 0.8294 0.0
H546 H 0.24432 0.01962 0.82169 0.0
H547 H 0.23311 0.0073 0.77094 0.0
H548 H 0.22639 0.97916 0.8679 0.0
H549 H 0.20812 0.85939 0.874 0.0
H550 H 0.23681 0.86411 0.92762 0.0
H551 H 0.22576 0.88798 0.97592 0.0
loop_
_geom_bond_atom_site_label_1
_geom_bond_atom_site_label_2
_geom_bond_distance
_geom_bond_site_symmetry_2
_ccdc_geom_bond_type
Dy0 O4 2.398 1_545 S
Dy0 O5 2.498 . S
Dy0 O6 2.403 . S
Dy0 O7 2.664 1_554 S
Dy0 O11 2.326 . S
Dy0 O15 2.310 . S
Dy0 O16 2.351 1_544 S
C1 O12 1.185 . S
C1 O13 1.355 . S
C2 O4 1.185 . S
C2 O5 1.355 1_565 S
Dy3 O7 2.310 . S
Dy3 O10 2.351 1_556 S
Dy3 O12 2.398 . S
Dy3 O13 2.491 . S
Dy3 O14 2.403 . S
Dy3 O15 2.664 1_556 S
Dy3 O17 2.326 . S
O4 Dy0 2.398 1_565 S
O4 C2 1.185 . S
O5 Dy0 2.498 . S
O5 C2 1.355 1_545 S
O6 Dy0 2.403 . S
O6 C8 1.254 . S
O7 Dy0 2.664 1_556 S
O7 Dy3 2.310 . S
O7 C8 1.268 1_556 S
C8 O6 1.254 . S
C8 O7 1.268 1_554 S
C9 O14 1.254 1_554 S
C9 O15 1.268 . S
O10 Dy3 2.351 1_554 S
O10 C18 1.249 . S
O11 Dy0 2.326 . S
O11 C18 1.267 . S
O12 C1 1.185 . S
O12 Dy3 2.398 . S
O13 C1 1.355 . S
O13 Dy3 2.491 . S
O14 Dy3 2.403 . S
O14 C9 1.254 1_556 S
O15 Dy0 2.310 . S
O15 Dy3 2.664 1_554 S
O15 C9 1.268 . S
O16 Dy0 2.351 1_566 S
O16 C19 1.249 1_565 S
O17 Dy3 2.326 . S
O17 C19 1.267 . S
C18 O10 1.249 . S
C18 O11 1.267 . S
C19 O16 1.249 1_545 S
C19 O17 1.267 . S
Dy20 O24 2.398 . S
Dy20 O25 2.491 . S
Dy20 O26 2.403 . S
Dy20 O27 2.664 . S
Dy20 O31 2.326 . S
Dy20 O35 2.310 . S
Dy20 O36 2.351 . S
C21 O32 1.185 . S
C21 O33 1.355 . S
C22 O24 1.185 . S
C22 O25 1.355 . S
Dy23 O27 2.310 . S
Dy23 O30 2.351 . S
Dy23 O32 2.398 . S
Dy23 O33 2.491 . S
Dy23 O34 2.403 . S
Dy23 O35 2.664 . S
Dy23 O37 2.326 . S
O24 Dy20 2.398 . S
O24 C22 1.185 . S
O25 Dy20 2.491 . S
O25 C22 1.355 . S
O26 Dy20 2.403 . S
O26 C28 1.254 . S
O27 Dy20 2.664 . S
O27 Dy23 2.310 . S
O27 C28 1.268 . S
C28 O26 1.254 . S
C28 O27 1.268 . S
C29 O34 1.254 . S
C29 O35 1.268 . S
O30 Dy23 2.351 . S
O30 C38 1.249 . S
O31 Dy20 2.326 . S
O31 C38 1.267 . S
O32 C21 1.185 . S
O32 Dy23 2.398 . S
O33 C21 1.355 . S
O33 Dy23 2.491 . S
O34 Dy23 2.403 . S
O34 C29 1.254 . S
O35 Dy20 2.310 . S
O35 Dy23 2.664 . S
O35 C29 1.268 . S
O36 Dy20 2.351 . S
O36 C39 1.249 . S
O37 Dy23 2.326 . S
O37 C39 1.267 . S
C38 O30 1.249 . S
C38 O31 1.267 . S
C39 O36 1.249 . S
C39 O37 1.267 . S
Dy40 O44 2.398 . S
Dy40 O45 2.491 . S
Dy40 O46 2.403 . S
Dy40 O47 2.664 1_455 S
Dy40 O51 2.326 1_455 S
Dy40 O55 2.310 . S
Dy40 O56 2.351 . S
C41 O52 1.185 . S
C41 O53 1.355 . S
C42 O44 1.185 . S
C42 O45 1.355 . S
Dy43 O47 2.310 . S
Dy43 O50 2.351 . S
Dy43 O52 2.398 . S
Dy43 O53 2.491 . S
Dy43 O54 2.403 . S
Dy43 O55 2.664 1_655 S
Dy43 O57 2.326 1_655 S
O44 Dy40 2.398 . S
O44 C42 1.185 . S
O45 Dy40 2.491 . S
O45 C42 1.355 . S
O46 Dy40 2.403 . S
O46 C48 1.254 . S
O47 Dy40 2.664 1_655 S
O47 Dy43 2.310 . S
O47 C48 1.268 1_655 S
C48 O46 1.254 . S
C48 O47 1.268 1_455 S
C49 O54 1.254 . S
C49 O55 1.268 1_655 S
O50 Dy43 2.351 . S
O50 C58 1.249 . S
O51 Dy40 2.326 1_655 S
O51 C58 1.267 . S
O52 C41 1.185 . S
O52 Dy43 2.398 . S
O53 C41 1.355 . S
O53 Dy43 2.491 . S
O54 Dy43 2.403 . S
O54 C49 1.254 . S
O55 Dy40 2.310 . S
O55 Dy43 2.664 1_455 S
O55 C49 1.268 1_455 S
O56 Dy40 2.351 . S
O56 C59 1.249 . S
O57 Dy43 2.326 1_455 S
O57 C59 1.267 . S
C58 O50 1.249 . S
C58 O51 1.267 . S
C59 O56 1.249 . S
C59 O57 1.267 . S
Dy60 O64 2.398 . S
Dy60 O65 2.491 . S
Dy60 O66 2.403 . S
Dy60 O67 2.664 1_544 S
Dy60 O71 2.326 1_545 S
Dy60 O75 2.310 . S
Dy60 O76 2.351 1_554 S
C61 O72 1.185 . S
C61 O73 1.355 . S
C62 O64 1.185 . S
C62 O65 1.355 . S
Dy63 O67 2.310 . S
Dy63 O70 2.351 1_556 S
Dy63 O72 2.398 . S
Dy63 O73 2.491 . S
Dy63 O74 2.403 . S
Dy63 O75 2.664 1_566 S
Dy63 O77 2.326 1_565 S
O64 Dy60 2.398 . S
O64 C62 1.185 . S
O65 Dy60 2.491 . S
O65 C62 1.355 . S
O66 Dy60 2.403 . S
O66 C68 1.254 . S
O67 Dy60 2.664 1_566 S
O67 Dy63 2.310 . S
O67 C68 1.268 1_566 S
C68 O66 1.254 . S
C68 O67 1.268 1_544 S
C69 O74 1.254 1_554 S
C69 O75 1.268 1_565 S
O70 Dy63 2.351 1_554 S
O70 C78 1.249 . S
O71 Dy60 2.326 1_565 S
O71 C78 1.267 . S
O72 C61 1.185 . S
O72 Dy63 2.398 . S
O73 C61 1.355 . S
O73 Dy63 2.491 . S
O74 Dy63 2.403 . S
O74 C69 1.254 1_556 S
O75 Dy60 2.310 . S
O75 Dy63 2.664 1_544 S
O75 C69 1.268 1_545 S
O76 Dy60 2.351 1_556 S
O76 C79 1.249 . S
O77 Dy63 2.326 1_545 S
O77 C79 1.267 . S
C78 O70 1.249 . S
C78 O71 1.267 . S
C79 O76 1.249 . S
C79 O77 1.267 . S
Dy80 O84 2.398 . S
Dy80 O85 2.491 . S
Dy80 O86 2.403 . S
Dy80 O87 2.664 . S
Dy80 O91 2.326 . S
Dy80 O95 2.310 . S
Dy80 O96 2.351 . S
C81 O92 1.185 . S
C81 O93 1.355 . S
C82 O84 1.185 . S
C82 O85 1.355 . S
Dy83 O87 2.310 . S
Dy83 O90 2.351 . S
Dy83 O92 2.398 . S
Dy83 O93 2.491 . S
Dy83 O94 2.403 . S
Dy83 O95 2.664 . S
Dy83 O97 2.326 . S
O84 Dy80 2.398 . S
O84 C82 1.185 . S
O85 Dy80 2.491 . S
O85 C82 1.355 . S
O86 Dy80 2.403 . S
O86 C88 1.254 . S
O87 Dy80 2.664 . S
O87 Dy83 2.310 . S
O87 C88 1.268 . S
C88 O86 1.254 . S
C88 O87 1.268 . S
C89 O94 1.254 . S
C89 O95 1.268 . S
O90 Dy83 2.351 . S
O90 C98 1.249 . S
O91 Dy80 2.326 . S
O91 C98 1.267 . S
O92 C81 1.185 . S
O92 Dy83 2.398 . S
O93 C81 1.355 . S
O93 Dy83 2.491 . S
O94 Dy83 2.403 . S
O94 C89 1.254 . S
O95 Dy80 2.310 . S
O95 Dy83 2.664 . S
O95 C89 1.268 . S
O96 Dy80 2.351 . S
O96 C99 1.249 . S
O97 Dy83 2.326 . S
O97 C99 1.267 . S
C98 O90 1.249 . S
C98 O91 1.267 . S
C99 O96 1.249 . S
C99 O97 1.267 . S
Dy100 O104 2.398 1_455 S
Dy100 O105 2.494 1_455 S
Dy100 O106 2.403 . S
Dy100 O107 2.664 . S
Dy100 O111 2.326 . S
Dy100 O115 2.310 . S
Dy100 O116 2.351 1_455 S
C101 O112 1.185 . S
C101 O113 1.355 . S
C102 O104 1.185 . S
C102 O105 1.366 . S
Dy103 O107 2.310 . S
Dy103 O110 2.351 . S
Dy103 O112 2.398 . S
Dy103 O113 2.491 . S
Dy103 O114 2.403 . S
Dy103 O115 2.664 . S
Dy103 O117 2.326 . S
O104 Dy100 2.398 1_655 S
O104 C102 1.185 . S
O105 Dy100 2.494 1_655 S
O105 C102 1.366 . S
O106 Dy100 2.403 . S
O106 C108 1.254 . S
O107 Dy100 2.664 . S
O107 Dy103 2.310 . S
O107 C108 1.268 . S
C108 O106 1.254 . S
C108 O107 1.268 . S
C109 O114 1.254 . S
C109 O115 1.268 . S
O110 Dy103 2.351 . S
O110 C118 1.249 . S
O111 Dy100 2.326 . S
O111 C118 1.267 . S
O112 C101 1.185 . S
O112 Dy103 2.398 . S
O113 C101 1.355 . S
O113 Dy103 2.491 . S
O114 Dy103 2.403 . S
O114 C109 1.254 . S
O115 Dy100 2.310 . S
O115 Dy103 2.664 . S
O115 C109 1.268 . S
O116 Dy100 2.351 1_655 S
O116 C119 1.249 1_655 S
O117 Dy103 2.326 . S
O117 C119 1.267 . S
C118 O110 1.249 . S
C118 O111 1.267 . S
C119 O116 1.249 1_455 S
C119 O117 1.267 . S
C120 C121 1.386 1_546 S
C120 C122 1.383 . S
C120 H136 0.951 . S
C121 C120 1.386 1_564 S
C121 C125 1.383 . S
C122 C120 1.383 . S
C122 C123 1.402 1_556 S
C122 H137 0.951 . S
C123 C122 1.402 1_554 S
C123 C124 1.375 1_545 S
C123 C126 1.481 1_655 S
C124 C123 1.375 1_565 S
C124 C125 1.367 . S
C124 H138 0.951 . S
C125 C121 1.383 . S
C125 C124 1.367 . S
C125 H139 0.950 . S
C126 C123 1.481 1_455 S
C126 C127 1.297 1_554 S
C126 H140 0.950 . S
C127 C126 1.297 1_556 S
C127 C128 1.482 . S
C127 H141 0.950 . S
C128 C127 1.482 . S
C128 C129 1.397 . S
C128 C134 1.381 1_556 S
C129 C128 1.397 . S
C129 C130 1.369 . S
C129 H142 0.950 . S
C130 C129 1.369 . S
C130 C131 1.392 . S
C130 H143 0.951 . S
C131 C130 1.392 . S
C131 C133 1.384 1_556 S
H132 C134 0.949 . S
C133 C131 1.384 1_554 S
C133 C134 1.385 . S
C133 H135 0.950 . S
C134 C128 1.381 1_554 S
C134 H132 0.949 . S
C134 C133 1.385 . S
H135 C133 0.950 . S
H136 C120 0.951 . S
H137 C122 0.951 . S
H138 C124 0.951 . S
H139 C125 0.950 . S
H140 C126 0.950 . S
H141 C127 0.950 . S
H142 C129 0.950 . S
H143 C130 0.951 . S
C144 C145 1.386 . S
C144 C146 1.383 . S
C144 H160 0.951 . S
C145 C144 1.386 . S
C145 C149 1.383 . S
C146 C144 1.383 . S
C146 C147 1.405 . S
C146 H161 0.951 . S
C147 C146 1.405 . S
C147 C148 1.374 . S
C147 C150 1.479 1_665 S
C148 C147 1.374 . S
C148 C149 1.367 . S
C148 H162 0.951 1_655 S
C149 C145 1.383 . S
C149 C148 1.367 . S
C149 H163 0.950 . S
C150 C147 1.479 1_445 S
C150 C151 1.297 . S
C150 H164 0.950 . S
C151 C150 1.297 . S
C151 C152 1.479 . S
C151 H165 0.950 . S
C152 C151 1.479 . S
C152 C153 1.375 . S
C152 C158 1.404 . S
C153 C152 1.375 . S
C153 C154 1.369 . S
C153 H166 0.950 . S
C154 C153 1.369 . S
C154 C155 1.392 . S
C154 H167 0.951 . S
C155 C154 1.392 . S
C155 C157 1.384 . S
H156 C158 0.949 . S
C157 C155 1.384 . S
C157 C158 1.385 . S
C157 H159 0.950 . S
C158 C152 1.404 . S
C158 H156 0.949 . S
C158 C157 1.385 . S
H159 C157 0.950 . S
H160 C144 0.951 . S
H161 C146 0.951 . S
H162 C148 0.951 1_455 S
H163 C149 0.950 . S
H164 C150 0.950 . S
H165 C151 0.950 . S
H166 C153 0.950 . S
H167 C154 0.951 . S
C168 C169 1.386 . S
C168 C170 1.383 . S
C168 H184 0.951 . S
C169 C168 1.386 . S
C169 C173 1.383 . S
C170 C168 1.383 . S
C170 C171 1.402 . S
C170 H185 0.961 . S
C171 C170 1.402 . S
C171 C172 1.375 . S
C171 C174 1.481 1_565 S
C172 C171 1.375 . S
C172 C173 1.367 . S
C172 H186 0.951 . S
C173 C169 1.383 . S
C173 C172 1.367 . S
C173 H187 0.950 . S
C174 C171 1.481 1_545 S
C174 C175 1.297 . S
C174 H188 0.956 . S
C175 C174 1.297 . S
C175 C176 1.479 1_455 S
C175 H189 0.950 . S
C176 C175 1.479 1_655 S
C176 C177 1.375 1_655 S
C176 C182 1.404 . S
C177 C176 1.375 1_455 S
C177 C178 1.369 1_455 S
C177 H190 0.950 . S
C178 C177 1.369 1_655 S
C178 C179 1.392 . S
C178 H191 0.951 1_655 S
C179 C178 1.392 . S
C179 C181 1.384 . S
H180 C182 0.949 . S
C181 C179 1.384 . S
C181 C182 1.385 . S
C181 H183 0.950 . S
C182 C176 1.404 . S
C182 H180 0.949 . S
C182 C181 1.385 . S
H183 C181 0.950 . S
H184 C168 0.951 . S
H185 C170 0.961 . S
H186 C172 0.951 . S
H187 C173 0.950 . S
H188 C174 0.956 . S
H189 C175 0.950 . S
H190 C177 0.950 . S
H191 C178 0.951 1_455 S
C192 C193 1.386 . S
C192 C194 1.383 . S
C192 H208 0.951 . S
C193 C192 1.386 . S
C193 C197 1.383 . S
C194 C192 1.383 . S
C194 C195 1.402 . S
C194 H209 0.951 . S
C195 C194 1.402 . S
C195 C196 1.375 . S
C195 C198 1.481 . S
C196 C195 1.375 . S
C196 C197 1.367 . S
C196 H210 0.951 . S
C197 C193 1.383 . S
C197 C196 1.367 . S
C197 H211 0.950 . S
C198 C195 1.481 . S
C198 C199 1.297 . S
C198 H212 0.950 . S
C199 C198 1.297 . S
C199 C200 1.479 . S
C199 H213 0.950 . S
C200 C199 1.479 . S
C200 C201 1.375 . S
C200 C206 1.404 . S
C201 C200 1.375 . S
C201 C202 1.369 . S
C201 H214 0.950 . S
C202 C201 1.369 . S
C202 C203 1.392 . S
C202 H215 0.951 . S
C203 C202 1.392 . S
C203 C205 1.384 . S
H204 C206 0.949 . S
C205 C203 1.384 . S
C205 C206 1.385 . S
C205 H207 0.950 . S
C206 C200 1.404 . S
C206 H204 0.949 . S
C206 C205 1.385 . S
H207 C205 0.950 . S
H208 C192 0.951 . S
H209 C194 0.951 . S
H210 C196 0.951 . S
H211 C197 0.950 . S
H212 C198 0.950 . S
H213 C199 0.950 . S
H214 C201 0.950 . S
H215 C202 0.951 . S
C216 C217 1.386 . S
C216 C218 1.383 . S
C216 H232 0.951 . S
C217 C216 1.386 . S
C217 C221 1.383 . S
C218 C216 1.383 . S
C218 C219 1.402 . S
C218 H233 0.951 . S
C219 C218 1.402 . S
C219 C220 1.375 . S
C219 C222 1.481 . S
C220 C219 1.375 . S
C220 C221 1.367 . S
C220 H234 0.951 . S
C221 C217 1.383 . S
C221 C220 1.367 . S
C221 H235 0.950 . S
C222 C219 1.481 . S
C222 C223 1.297 . S
C222 H236 0.950 1_455 S
C223 C222 1.297 . S
C223 C224 1.479 1_455 S
C223 H237 0.950 . S
C224 C223 1.479 1_655 S
C224 C225 1.375 . S
C224 C230 1.404 . S
C225 C224 1.375 . S
C225 C226 1.369 . S
C225 H238 0.950 1_655 S
C226 C225 1.369 . S
C226 C227 1.392 . S
C226 H239 0.951 . S
C227 C226 1.392 . S
C227 C229 1.384 . S
H228 C230 0.949 . S
C229 C227 1.384 . S
C229 C230 1.385 . S
C229 H231 0.950 . S
C230 C224 1.404 . S
C230 H228 0.949 . S
C230 C229 1.385 . S
H231 C229 0.950 . S
H232 C216 0.951 . S
H233 C218 0.951 . S
H234 C220 0.951 . S
H235 C221 0.950 . S
H236 C222 0.950 1_655 S
H237 C223 0.950 . S
H238 C225 0.950 1_455 S
H239 C226 0.951 . S
C240 C241 1.386 . S
C240 C242 1.383 . S
C240 H256 0.951 . S
C241 C240 1.386 . S
C241 C245 1.383 . S
C242 C240 1.383 . S
C242 C243 1.402 . S
C242 H257 0.951 . S
C243 C242 1.402 . S
C243 C244 1.375 . S
C243 C246 1.481 . S
C244 C243 1.375 . S
C244 C245 1.367 . S
C244 H258 0.951 . S
C245 C241 1.383 . S
C245 C244 1.367 . S
C245 H259 0.950 . S
C246 C243 1.481 . S
C246 C247 1.297 . S
C246 H260 0.950 . S
C247 C246 1.297 . S
C247 C248 1.479 1_545 S
C247 H261 0.950 . S
C248 C247 1.479 1_565 S
C248 C249 1.375 . S
C248 C254 1.404 . S
C249 C248 1.375 . S
C249 C250 1.369 . S
C249 H262 0.950 . S
C250 C249 1.369 . S
C250 C251 1.392 . S
C250 H263 0.951 . S
C251 C250 1.392 . S
C251 C253 1.384 . S
H252 C254 0.949 . S
C253 C251 1.384 . S
C253 C254 1.385 . S
C253 H255 0.950 . S
C254 C248 1.404 . S
C254 H252 0.949 . S
C254 C253 1.385 . S
H255 C253 0.950 . S
H256 C240 0.951 . S
H257 C242 0.951 . S
H258 C244 0.951 . S
H259 C245 0.950 . S
H260 C246 0.950 . S
H261 C247 0.950 . S
H262 C249 0.950 . S
H263 C250 0.951 . S
C264 C265 1.386 . S
C264 C266 1.383 . S
C264 H280 0.951 . S
C265 C264 1.386 . S
C265 C269 1.383 . S
C266 C264 1.383 . S
C266 C267 1.402 . S
C266 H281 0.951 . S
C267 C266 1.402 . S
C267 C268 1.375 . S
C267 C270 1.481 . S
C268 C267 1.375 . S
C268 C269 1.367 . S
C268 H282 0.951 . S
C269 C265 1.383 . S
C269 C268 1.367 . S
C269 H283 0.950 . S
C270 C267 1.481 . S
C270 C271 1.297 . S
C270 H284 0.950 . S
C271 C270 1.297 . S
C271 C272 1.479 . S
C271 H285 0.950 . S
C272 C271 1.479 . S
C272 C273 1.375 . S
C272 C278 1.404 . S
C273 C272 1.375 . S
C273 C274 1.369 . S
C273 H286 0.950 . S
C274 C273 1.369 . S
C274 C275 1.392 . S
C274 H287 0.951 . S
C275 C274 1.392 . S
C275 C277 1.384 . S
H276 C278 0.949 . S
C277 C275 1.384 . S
C277 C278 1.385 . S
C277 H279 0.950 1_655 S
C278 C272 1.404 . S
C278 H276 0.949 . S
C278 C277 1.385 . S
H279 C277 0.950 1_455 S
H280 C264 0.951 . S
H281 C266 0.951 . S
H282 C268 0.951 . S
H283 C269 0.950 . S
H284 C270 0.950 . S
H285 C271 0.950 . S
H286 C273 0.950 . S
H287 C274 0.951 . S
C288 C289 1.386 . S
C288 C290 1.383 1_655 S
C288 H304 0.951 . S
C289 C288 1.386 . S
C289 C293 1.383 . S
C290 C288 1.383 1_455 S
C290 C291 1.402 . S
C290 H305 0.951 . S
C291 C290 1.402 . S
C291 C292 1.375 1_455 S
C291 C294 1.481 . S
C292 C291 1.375 1_655 S
C292 C293 1.367 . S
C292 H306 0.951 . S
C293 C289 1.383 . S
C293 C292 1.367 . S
C293 H307 0.950 . S
C294 C291 1.481 . S
C294 C295 1.297 . S
C294 H308 0.950 . S
C295 C294 1.297 . S
C295 C296 1.479 . S
C295 H309 0.950 . S
C296 C295 1.479 . S
C296 C297 1.375 . S
C296 C302 1.404 . S
C297 C296 1.375 . S
C297 C298 1.369 . S
C297 H310 0.950 . S
C298 C297 1.369 . S
C298 C299 1.392 . S
C298 H311 0.951 1_565 S
C299 C298 1.392 . S
C299 C301 1.384 . S
H300 C302 0.949 . S
C301 C299 1.384 . S
C301 C302 1.385 . S
C301 H303 0.950 . S
C302 C296 1.404 . S
C302 H300 0.949 . S
C302 C301 1.385 . S
H303 C301 0.950 . S
H304 C288 0.951 . S
H305 C290 0.951 . S
H306 C292 0.951 . S
H307 C293 0.950 . S
H308 C294 0.950 . S
H309 C295 0.950 . S
H310 C297 0.950 . S
H311 C298 0.951 1_545 S
C312 C313 1.386 . S
C312 C314 1.383 1_565 S
C312 H328 0.951 1_565 S
C313 C312 1.386 . S
C313 C317 1.383 . S
C314 C312 1.383 1_545 S
C314 C315 1.402 . S
C314 H329 0.951 . S
C315 C314 1.402 . S
C315 C316 1.368 1_545 S
C315 C318 1.488 . S
C316 C315 1.368 1_565 S
C316 C317 1.367 . S
C316 H330 0.951 . S
C317 C313 1.383 . S
C317 C316 1.367 . S
C317 H331 0.950 . S
C318 C315 1.488 . S
C318 C319 1.297 . S
C318 H332 0.950 . S
C319 C318 1.297 . S
C319 C320 1.479 . S
C319 H333 0.950 . S
C320 C319 1.479 . S
C320 C321 1.375 . S
C320 C326 1.404 . S
C321 C320 1.375 . S
C321 C322 1.369 . S
C321 H334 0.950 . S
C322 C321 1.369 . S
C322 C323 1.392 . S
C322 H335 0.951 . S
C323 C322 1.392 . S
C323 C325 1.384 . S
H324 C326 0.949 . S
C325 C323 1.384 . S
C325 C326 1.385 . S
C325 H327 0.950 . S
C326 C320 1.404 . S
C326 H324 0.949 . S
C326 C325 1.385 . S
H327 C325 0.950 . S
H328 C312 0.951 1_545 S
H329 C314 0.951 . S
H330 C316 0.951 . S
H331 C317 0.950 . S
H332 C318 0.950 . S
H333 C319 0.950 . S
H334 C321 0.950 . S
H335 C322 0.951 . S
C336 C337 1.386 . S
C336 C338 1.383 . S
C336 H352 0.951 . S
C337 C336 1.386 . S
C337 C341 1.383 1_554 S
C338 C336 1.383 . S
C338 C339 1.402 1_554 S
C338 H353 0.951 1_545 S
C339 C338 1.402 1_556 S
C339 C340 1.375 . S
C339 C342 1.481 . S
C340 C339 1.375 . S
C340 C341 1.367 . S
C340 H354 0.951 . S
C341 C337 1.383 1_556 S
C341 C340 1.367 . S
C341 H355 0.950 . S
C342 C339 1.481 . S
C342 C343 1.297 . S
C342 H356 0.950 . S
C343 C342 1.297 . S
C343 C344 1.479 . S
C343 H357 0.950 1_546 S
C344 C343 1.479 . S
C344 C345 1.375 1_546 S
C344 C350 1.404 . S
C345 C344 1.375 1_564 S
C345 C346 1.369 . S
C345 H358 0.950 . S
C346 C345 1.369 . S
C346 C347 1.392 . S
C346 H359 0.951 . S
C347 C346 1.392 . S
C347 C349 1.384 1_564 S
H348 C350 0.949 . S
C349 C347 1.384 1_546 S
C349 C350 1.385 . S
C349 H351 0.950 . S
C350 C344 1.404 . S
C350 H348 0.949 . S
C350 C349 1.385 . S
H351 C349 0.950 . S
H352 C336 0.951 . S
H353 C338 0.951 1_565 S
H354 C340 0.951 . S
H355 C341 0.950 . S
H356 C342 0.950 . S
H357 C343 0.950 1_564 S
H358 C345 0.950 . S
H359 C346 0.951 . S
C360 C361 1.386 . S
C360 C362 1.383 . S
C360 H376 0.951 . S
C361 C360 1.386 . S
C361 C365 1.383 . S
C362 C360 1.383 . S
C362 C363 1.402 . S
C362 H377 0.951 . S
C363 C362 1.402 . S
C363 C364 1.375 . S
C363 C366 1.481 . S
C364 C363 1.375 . S
C364 C365 1.367 . S
C364 H378 0.951 . S
C365 C361 1.383 . S
C365 C364 1.367 . S
C365 H379 0.950 . S
C366 C363 1.481 . S
C366 C367 1.297 . S
C366 H380 0.950 . S
C367 C366 1.297 . S
C367 C368 1.479 . S
C367 H381 0.950 . S
C368 C367 1.479 . S
C368 C369 1.375 . S
C368 C374 1.404 . S
C369 C368 1.375 . S
C369 C370 1.369 . S
C369 H382 0.950 . S
C370 C369 1.369 . S
C370 C371 1.392 . S
C370 H383 0.951 . S
C371 C370 1.392 . S
C371 C373 1.384 . S
H372 C374 0.949 . S
C373 C371 1.384 . S
C373 C374 1.385 . S
C373 H375 0.950 . S
C374 C368 1.404 . S
C374 H372 0.949 . S
C374 C373 1.385 . S
H375 C373 0.950 . S
H376 C360 0.951 . S
H377 C362 0.951 . S
H378 C364 0.951 . S
H379 C365 0.950 . S
H380 C366 0.950 . S
H381 C367 0.950 . S
H382 C369 0.950 . S
H383 C370 0.951 . S
C384 C385 1.386 1_455 S
C384 C386 1.383 . S
C384 H400 0.951 . S
C385 C384 1.386 1_655 S
C385 C389 1.383 . S
C386 C384 1.383 . S
C386 C387 1.396 1_455 S
C386 H401 0.951 . S
C387 C386 1.396 1_655 S
C387 C388 1.378 . S
C387 C390 1.484 1_655 S
C388 C387 1.378 . S
C388 C389 1.367 . S
C388 H402 0.951 . S
C389 C385 1.383 . S
C389 C388 1.367 . S
C389 H403 0.950 . S
C390 C387 1.484 1_455 S
C390 C391 1.297 . S
C390 H404 0.950 1_455 S
C391 C390 1.297 . S
C391 C392 1.479 . S
C391 H405 0.950 . S
C392 C391 1.479 . S
C392 C393 1.375 . S
C392 C398 1.404 . S
C393 C392 1.375 . S
C393 C394 1.369 . S
C393 H406 0.950 . S
C394 C393 1.369 . S
C394 C395 1.392 . S
C394 H407 0.951 . S
C395 C394 1.392 . S
C395 C397 1.384 . S
H396 C398 0.949 1_655 S
C397 C395 1.384 . S
C397 C398 1.385 . S
C397 H399 0.950 . S
C398 C392 1.404 . S
C398 H396 0.949 1_455 S
C398 C397 1.385 . S
H399 C397 0.950 . S
H400 C384 0.951 . S
H401 C386 0.951 . S
H402 C388 0.951 . S
H403 C389 0.950 . S
H404 C390 0.950 1_655 S
H405 C391 0.950 . S
H406 C393 0.950 . S
H407 C394 0.951 . S
C408 C409 1.386 . S
C408 C410 1.383 . S
C408 H424 0.951 . S
C409 C408 1.386 . S
C409 C413 1.383 . S
C410 C408 1.383 . S
C410 C411 1.402 . S
C410 H425 0.951 . S
C411 C410 1.402 . S
C411 C412 1.375 . S
C411 C414 1.481 . S
C412 C411 1.375 . S
C412 C413 1.367 . S
C412 H426 0.951 . S
C413 C409 1.383 . S
C413 C412 1.367 . S
C413 H427 0.950 . S
C414 C411 1.481 . S
C414 C415 1.297 . S
C414 H428 0.950 . S
C415 C414 1.297 . S
C415 C416 1.479 . S
C415 H429 0.950 . S
C416 C415 1.479 . S
C416 C417 1.375 . S
C416 C422 1.404 . S
C417 C416 1.375 . S
C417 C418 1.369 . S
C417 H430 0.950 . S
C418 C417 1.369 . S
C418 C419 1.392 . S
C418 H431 0.951 . S
C419 C418 1.392 . S
C419 C421 1.384 . S
H420 C422 0.949 . S
C421 C419 1.384 . S
C421 C422 1.385 . S
C421 H423 0.950 . S
C422 C416 1.404 . S
C422 H420 0.949 . S
C422 C421 1.385 . S
H423 C421 0.950 . S
H424 C408 0.951 . S
H425 C410 0.951 . S
H426 C412 0.951 . S
H427 C413 0.950 . S
H428 C414 0.950 . S
H429 C415 0.950 . S
H430 C417 0.950 . S
H431 C418 0.951 . S
C432 C433 1.386 . S
C432 C434 1.383 . S
C432 H448 0.951 . S
C433 C432 1.386 . S
C433 C437 1.383 . S
C434 C432 1.383 . S
C434 C435 1.402 . S
C434 H449 0.951 . S
C435 C434 1.402 . S
C435 C436 1.375 . S
C435 C438 1.481 . S
C436 C435 1.375 . S
C436 C437 1.367 . S
C436 H450 0.951 . S
C437 C433 1.383 . S
C437 C436 1.367 . S
C437 H451 0.950 . S
C438 C435 1.481 . S
C438 C439 1.297 . S
C438 H452 0.950 . S
C439 C438 1.297 . S
C439 C440 1.479 . S
C439 H453 0.950 . S
C440 C439 1.479 . S
C440 C441 1.375 . S
C440 C446 1.404 . S
C441 C440 1.375 . S
C441 C442 1.369 . S
C441 H454 0.950 . S
C442 C441 1.369 . S
C442 C443 1.392 . S
C442 H455 0.951 . S
C443 C442 1.392 . S
C443 C445 1.384 . S
H444 C446 0.949 . S
C445 C443 1.384 . S
C445 C446 1.385 . S
C445 H447 0.950 . S
C446 C440 1.404 . S
C446 H444 0.949 . S
C446 C445 1.385 . S
H447 C445 0.950 . S
H448 C432 0.951 . S
H449 C434 0.951 . S
H450 C436 0.951 . S
H451 C437 0.950 . S
H452 C438 0.950 . S
H453 C439 0.950 . S
H454 C441 0.950 . S
H455 C442 0.951 . S
C456 C457 1.386 . S
C456 C458 1.383 . S
C456 H472 0.951 . S
C457 C456 1.386 . S
C457 C461 1.383 . S
C458 C456 1.383 . S
C458 C459 1.402 . S
C458 H473 0.951 . S
C459 C458 1.402 . S
C459 C460 1.375 . S
C459 C462 1.481 . S
C460 C459 1.375 . S
C460 C461 1.367 . S
C460 H474 0.951 . S
C461 C457 1.383 . S
C461 C460 1.367 . S
C461 H475 0.950 . S
C462 C459 1.481 . S
C462 C463 1.297 . S
C462 H476 0.950 . S
C463 C462 1.297 . S
C463 C464 1.479 . S
C463 H477 0.950 . S
C464 C463 1.479 . S
C464 C465 1.375 . S
C464 C470 1.404 . S
C465 C464 1.375 . S
C465 C466 1.369 . S
C465 H478 0.950 . S
C466 C465 1.369 . S
C466 C467 1.392 . S
C466 H479 0.951 . S
C467 C466 1.392 . S
C467 C469 1.384 . S
H468 C470 0.949 . S
C469 C467 1.384 . S
C469 C470 1.385 . S
C469 H471 0.950 . S
C470 C464 1.404 . S
C470 H468 0.949 . S
C470 C469 1.385 . S
H471 C469 0.950 . S
H472 C456 0.951 . S
H473 C458 0.951 . S
H474 C460 0.951 . S
H475 C461 0.950 . S
H476 C462 0.950 . S
H477 C463 0.950 . S
H478 C465 0.950 . S
H479 C466 0.951 . S
C480 C481 1.386 . S
C480 C482 1.383 . S
C480 H496 0.951 . S
C481 C480 1.386 . S
C481 C485 1.383 . S
C482 C480 1.383 . S
C482 C483 1.402 . S
C482 H497 0.951 . S
C483 C482 1.402 . S
C483 C484 1.375 . S
C483 C486 1.481 . S
C484 C483 1.375 . S
C484 C485 1.367 . S
C484 H498 0.951 . S
C485 C481 1.383 . S
C485 C484 1.367 . S
C485 H499 0.950 . S
C486 C483 1.481 . S
C486 C487 1.297 . S
C486 H500 0.950 . S
C487 C486 1.297 . S
C487 C488 1.479 . S
C487 H501 0.950 . S
C488 C487 1.479 . S
C488 C489 1.375 . S
C488 C494 1.404 . S
C489 C488 1.375 . S
C489 C490 1.369 . S
C489 H502 0.950 . S
C490 C489 1.369 . S
C490 C491 1.392 . S
C490 H503 0.951 . S
C491 C490 1.392 . S
C491 C493 1.384 . S
H492 C494 0.949 . S
C493 C491 1.384 . S
C493 C494 1.385 . S
C493 H495 0.950 . S
C494 C488 1.404 . S
C494 H492 0.949 . S
C494 C493 1.385 . S
H495 C493 0.950 . S
H496 C480 0.951 . S
H497 C482 0.951 . S
H498 C484 0.951 . S
H499 C485 0.950 . S
H500 C486 0.950 . S
H501 C487 0.950 . S
H502 C489 0.950 . S
H503 C490 0.951 . S
C504 C505 1.386 . S
C504 C506 1.383 . S
C504 H520 0.951 . S
C505 C504 1.386 . S
C505 C509 1.383 . S
C506 C504 1.383 . S
C506 C507 1.402 . S
C506 H521 0.951 . S
C507 C506 1.402 . S
C507 C508 1.375 . S
C507 C510 1.481 . S
C508 C507 1.375 . S
C508 C509 1.367 . S
C508 H522 0.951 . S
C509 C505 1.383 . S
C509 C508 1.367 . S
C509 H523 0.950 . S
C510 C507 1.481 . S
C510 C511 1.297 . S
C510 H524 0.950 . S
C511 C510 1.297 . S
C511 C512 1.479 . S
C511 H525 0.950 . S
C512 C511 1.479 . S
C512 C513 1.375 . S
C512 C518 1.404 . S
C513 C512 1.375 . S
C513 C514 1.369 . S
C513 H526 0.950 . S
C514 C513 1.369 . S
C514 C515 1.392 . S
C514 H527 0.951 . S
C515 C514 1.392 . S
C515 C517 1.384 . S
H516 C518 0.949 . S
C517 C515 1.384 . S
C517 C518 1.385 . S
C517 H519 0.950 . S
C518 C512 1.404 . S
C518 H516 0.949 . S
C518 C517 1.385 . S
H519 C517 0.950 . S
H520 C504 0.951 . S
H521 C506 0.951 . S
H522 C508 0.951 . S
H523 C509 0.950 . S
H524 C510 0.950 . S
H525 C511 0.950 . S
H526 C513 0.950 . S
H527 C514 0.951 . S
C528 C529 1.386 . S
C528 C530 1.383 . S
C528 H544 0.951 . S
C529 C528 1.386 . S
C529 C533 1.383 . S
C530 C528 1.383 . S
C530 C531 1.402 . S
C530 H545 0.951 . S
C531 C530 1.402 . S
C531 C532 1.375 . S
C531 C534 1.481 . S
C532 C531 1.375 . S
C532 C533 1.367 . S
C532 H546 0.951 . S
C533 C529 1.383 . S
C533 C532 1.367 . S
C533 H547 0.950 . S
C534 C531 1.481 . S
C534 C535 1.297 . S
C534 H548 0.950 . S
C535 C534 1.297 . S
C535 C536 1.479 . S
C535 H549 0.950 . S
C536 C535 1.479 . S
C536 C537 1.375 . S
C536 C542 1.404 . S
C537 C536 1.375 . S
C537 C538 1.369 1_565 S
C537 H550 0.943 . S
C538 C537 1.369 1_545 S
C538 C539 1.392 . S
C538 H551 0.951 . S
C539 C538 1.392 . S
C539 C541 1.384 . S
H540 C542 0.949 . S
C541 C539 1.384 . S
C541 C542 1.385 1_545 S
C541 H543 0.950 . S
C542 C536 1.404 . S
C542 H540 0.949 . S
C542 C541 1.385 1_565 S
H543 C541 0.950 . S
H544 C528 0.951 . S
H545 C530 0.951 . S
H546 C532 0.951 . S
H547 C533 0.950 . S
H548 C534 0.950 . S
H549 C535 0.950 . S
H550 C537 0.943 . S
H551 C538 0.951 . S
C121 C68 1.717 1_565 S
C131 C8 1.806 1_556 S
C145 C88 1.771 . S
C155 C28 1.707 . S
C169 C108 1.707 . S
C179 C48 1.815 1_655 S
C193 C1 1.373 . S
C203 C42 1.366 . S
C217 C21 1.388 . S
C227 C62 1.301 . S
C241 C41 1.419 . S
C251 C82 1.309 . S
C265 C61 1.387 . S
C275 C102 1.302 . S
C289 C81 1.407 . S
C299 C2 1.428 . S
C313 C101 1.431 . S
C323 C22 1.342 . S
C337 C9 1.016 . S
C347 C69 0.995 . S
C361 C29 1.024 . S
C371 C89 1.001 . S
C385 C49 1.026 . S
C395 C109 1.022 . S
C409 C18 1.776 . S
C419 C39 1.785 . S
C433 C38 1.745 . S
C443 C59 1.772 . S
C457 C58 1.753 . S
C467 C79 1.795 . S
C481 C78 1.767 . S
C491 C99 1.806 . S
C505 C98 1.785 . S
C515 C119 1.808 1_655 S
C529 C118 1.745 . S
C539 C19 1.774 . S
