# Generated by pormake.
# Topology lcy-e, (6)-cn, num edge types: 1
# Building blocks:
#     Node 0, Type 0, BuildingBlock: MIFKUJ_clean_sbu_0, # of connection points: 6
#     Node 1, Type 0, BuildingBlock: MIFKUJ_clean_sbu_0, # of connection points: 6
#     Node 2, Type 0, BuildingBlock: MIFKUJ_clean_sbu_0, # of connection points: 6
#     Node 3, Type 0, BuildingBlock: MIFKUJ_clean_sbu_0, # of connection points: 6
#     Node 4, Type 0, BuildingBlock: MIFKUJ_clean_sbu_0, # of connection points: 6
#     Node 5, Type 0, BuildingBlock: MIFKUJ_clean_sbu_0, # of connection points: 6
#     Node 6, Type 0, BuildingBlock: MIFKUJ_clean_sbu_0, # of connection points: 6
#     Node 7, Type 0, BuildingBlock: MIFKUJ_clean_sbu_0, # of connection points: 6
#     Node 8, Type 0, BuildingBlock: MIFKUJ_clean_sbu_0, # of connection points: 6
#     Node 9, Type 0, BuildingBlock: MIFKUJ_clean_sbu_0, # of connection points: 6
#     Node 10, Type 0, BuildingBlock: MIFKUJ_clean_sbu_0, # of connection points: 6
#     Node 11, Type 0, BuildingBlock: MIFKUJ_clean_sbu_0, # of connection points: 6
#     Edge 12, Type (0, 0), BuildingBlock: OJICUG_clean_linker_0, # of connection points: 2
#     Edge 13, Type (0, 0), BuildingBlock: OJICUG_clean_linker_0, # of connection points: 2
#     Edge 14, Type (0, 0), BuildingBlock: OJICUG_clean_linker_0, # of connection points: 2
#     Edge 15, Type (0, 0), BuildingBlock: OJICUG_clean_linker_0, # of connection points: 2
#     Edge 16, Type (0, 0), BuildingBlock: OJICUG_clean_linker_0, # of connection points: 2
#     Edge 17, Type (0, 0), BuildingBlock: OJICUG_clean_linker_0, # of connection points: 2
#     Edge 18, Type (0, 0), BuildingBlock: OJICUG_clean_linker_0, # of connection points: 2
#     Edge 19, Type (0, 0), BuildingBlock: OJICUG_clean_linker_0, # of connection points: 2
#     Edge 20, Type (0, 0), BuildingBlock: OJICUG_clean_linker_0, # of connection points: 2
#     Edge 21, Type (0, 0), BuildingBlock: OJICUG_clean_linker_0, # of connection points: 2
#     Edge 22, Type (0, 0), BuildingBlock: OJICUG_clean_linker_0, # of connection points: 2
#     Edge 23, Type (0, 0), BuildingBlock: OJICUG_clean_linker_0, # of connection points: 2
#     Edge 24, Type (0, 0), BuildingBlock: OJICUG_clean_linker_0, # of connection points: 2
#     Edge 25, Type (0, 0), BuildingBlock: OJICUG_clean_linker_0, # of connection points: 2
#     Edge 26, Type (0, 0), BuildingBlock: OJICUG_clean_linker_0, # of connection points: 2
#     Edge 27, Type (0, 0), BuildingBlock: OJICUG_clean_linker_0, # of connection points: 2
#     Edge 28, Type (0, 0), BuildingBlock: OJICUG_clean_linker_0, # of connection points: 2
#     Edge 29, Type (0, 0), BuildingBlock: OJICUG_clean_linker_0, # of connection points: 2
#     Edge 30, Type (0, 0), BuildingBlock: OJICUG_clean_linker_0, # of connection points: 2
#     Edge 31, Type (0, 0), BuildingBlock: OJICUG_clean_linker_0, # of connection points: 2
#     Edge 32, Type (0, 0), BuildingBlock: OJICUG_clean_linker_0, # of connection points: 2
#     Edge 33, Type (0, 0), BuildingBlock: OJICUG_clean_linker_0, # of connection points: 2
#     Edge 34, Type (0, 0), BuildingBlock: OJICUG_clean_linker_0, # of connection points: 2
#     Edge 35, Type (0, 0), BuildingBlock: OJICUG_clean_linker_0, # of connection points: 2
#     Edge 36, Type (0, 0), BuildingBlock: OJICUG_clean_linker_0, # of connection points: 2
#     Edge 37, Type (0, 0), BuildingBlock: OJICUG_clean_linker_0, # of connection points: 2
#     Edge 38, Type (0, 0), BuildingBlock: OJICUG_clean_linker_0, # of connection points: 2
#     Edge 39, Type (0, 0), BuildingBlock: OJICUG_clean_linker_0, # of connection points: 2
#     Edge 40, Type (0, 0), BuildingBlock: OJICUG_clean_linker_0, # of connection points: 2
#     Edge 41, Type (0, 0), BuildingBlock: OJICUG_clean_linker_0, # of connection points: 2
#     Edge 42, Type (0, 0), BuildingBlock: OJICUG_clean_linker_0, # of connection points: 2
#     Edge 43, Type (0, 0), BuildingBlock: OJICUG_clean_linker_0, # of connection points: 2
#     Edge 44, Type (0, 0), BuildingBlock: OJICUG_clean_linker_0, # of connection points: 2
#     Edge 45, Type (0, 0), BuildingBlock: OJICUG_clean_linker_0, # of connection points: 2
#     Edge 46, Type (0, 0), BuildingBlock: OJICUG_clean_linker_0, # of connection points: 2
#     Edge 47, Type (0, 0), BuildingBlock: OJICUG_clean_linker_0, # of connection points: 2
# Relax obj value: 0.186
# Max RMSD: 0.294
# Mean RMSD: 0.243
data_MOF--net-lcy-e--node1-MIFKUJ_clean_sbu_0--edge1-OJICUG_clean_linker_0
_symmetry_space_group_name_H-M    P1
_symmetry_Int_Tables_number       1
_symmetry_cell_setting            triclinic
loop_
_symmetry_equiv_pos_as_xyz
'x, y, z'
_cell_length_a     27.829667
_cell_length_b     30.257121
_cell_length_c     30.337127
_cell_angle_alpha  86.757889
_cell_angle_beta   88.707425
_cell_angle_gamma 88.086463
loop_
_atom_site_label
_atom_site_type_symbol
_atom_site_fract_x
_atom_site_fract_y
_atom_site_fract_z
_atom_type_partial_charge
Zn0 Zn 0.11185 0.26284 0.43441 0.0
Zn1 Zn 0.09916 0.14446 0.47014 0.0
C2 C 0.14407 0.34462 0.46982 0.0
O3 O 0.13115 0.36389 0.43185 0.0
C4 C 0.03191 0.11602 0.40742 0.0
O5 O 0.06521 0.08503 0.40132 0.0
O6 O 0.09345 0.2998 0.37973 0.0
O7 O 0.16461 0.21963 0.41653 0.0
O8 O 0.16128 0.14765 0.43468 0.0
C9 C 0.10193 0.28515 0.34178 0.0
O10 O 0.11569 0.24345 0.33887 0.0
O11 O 0.13999 0.30307 0.47666 0.0
C12 C 0.11333 0.07972 0.54237 0.0
O13 O 0.13636 0.11191 0.55903 0.0
O14 O 0.09662 0.0855 0.50379 0.0
O15 O 0.09055 0.19013 0.51571 0.0
O16 O 0.05611 0.23596 0.46699 0.0
O17 O 0.04066 0.14706 0.43233 0.0
C18 C 0.18254 0.1804 0.41581 0.0
C19 C 0.06635 0.22569 0.50692 0.0
Zn20 Zn 0.9575 0.88176 0.66935 0.0
Zn21 Zn 0.04354 0.88159 0.73613 0.0
C22 C 0.88132 0.91933 0.71418 0.0
O23 O 0.86389 0.88303 0.69994 0.0
C24 C 0.09844 0.82423 0.6808 0.0
O25 O 0.12983 0.85563 0.68176 0.0
O26 O 0.91232 0.87361 0.61818 0.0
O27 O 0.01891 0.90624 0.64104 0.0
O28 O 0.04955 0.93683 0.69798 0.0
C29 C 0.90428 0.90981 0.59565 0.0
O30 O 0.9264 0.94517 0.6066 0.0
O31 O 0.9244 0.92886 0.70387 0.0
C32 C 0.10108 0.8422 0.80543 0.0
O33 O 0.07507 0.8085 0.79647 0.0
O34 O 0.09384 0.87912 0.78393 0.0
O35 O 0.98017 0.87221 0.76546 0.0
O36 O 0.95788 0.82881 0.71417 0.0
O37 O 0.05807 0.82917 0.70037 0.0
C38 C 0.04442 0.93563 0.6566 0.0
C39 C 0.95888 0.83806 0.7547 0.0
Zn40 Zn 0.33665 0.73405 0.94538 0.0
Zn41 Zn 0.33993 0.84905 0.97758 0.0
C42 C 0.28821 0.6807 0.01626 0.0
O43 O 0.27553 0.71902 0.03204 0.0
C44 C 0.41249 0.88239 0.91768 0.0
O45 O 0.37962 0.91409 0.91087 0.0
O46 O 0.36179 0.71031 0.88724 0.0
O47 O 0.28058 0.77553 0.92673 0.0
O48 O 0.28124 0.84693 0.94025 0.0
C49 C 0.33455 0.68122 0.87337 0.0
O50 O 0.29634 0.67012 0.89709 0.0
O51 O 0.31258 0.67999 0.98048 0.0
C52 C 0.36481 0.90946 0.04293 0.0
O53 O 0.38637 0.87311 0.05935 0.0
O54 O 0.34045 0.90763 0.00802 0.0
O55 O 0.34386 0.80049 0.02542 0.0
O56 O 0.38802 0.756 0.98489 0.0
O57 O 0.40179 0.84843 0.94206 0.0
C58 C 0.26154 0.81449 0.92368 0.0
C59 C 0.37394 0.76819 0.02269 0.0
Zn60 Zn 0.42495 0.12551 0.251 0.0
Zn61 Zn 0.48457 0.12551 0.16098 0.0
C62 C 0.49021 0.16109 0.30768 0.0
O63 O 0.48617 0.12096 0.32594 0.0
C64 C 0.42113 0.07442 0.11092 0.0
O65 O 0.42368 0.10943 0.08341 0.0
O66 O 0.37214 0.11927 0.29783 0.0
O67 O 0.38913 0.15053 0.1968 0.0
O68 O 0.44808 0.18385 0.16083 0.0
C69 C 0.35345 0.15691 0.30637 0.0
O70 O 0.37072 0.19247 0.2857 0.0
O71 O 0.46686 0.17245 0.2731 0.0
C72 C 0.55725 0.09087 0.10899 0.0
O73 O 0.54685 0.05758 0.1369 0.0
O74 O 0.5339 0.12744 0.11187 0.0
O75 O 0.52355 0.10932 0.21447 0.0
O76 O 0.46876 0.06981 0.25011 0.0
O77 O 0.4419 0.07472 0.14788 0.0
C78 C 0.40435 0.18364 0.17347 0.0
C79 C 0.51288 0.07747 0.24157 0.0
Zn80 Zn 0.60811 0.32939 0.48394 0.0
Zn81 Zn 0.62475 0.28723 0.59691 0.0
C82 C 0.59787 0.27707 0.40765 0.0
O83 O 0.645 0.27661 0.40686 0.0
C84 C 0.69214 0.35026 0.62232 0.0
O85 O 0.65965 0.35626 0.65371 0.0
O86 O 0.62956 0.38945 0.45949 0.0
O87 O 0.55502 0.34353 0.52806 0.0
O88 O 0.56237 0.32084 0.59823 0.0
C89 C 0.63251 0.40036 0.41842 0.0
O90 O 0.62819 0.36984 0.38985 0.0
O91 O 0.57466 0.29878 0.43627 0.0
C92 C 0.62177 0.21687 0.66732 0.0
O93 O 0.60842 0.19102 0.63677 0.0
O94 O 0.63001 0.25719 0.65707 0.0
O95 O 0.62996 0.24083 0.55186 0.0
O96 O 0.66369 0.28812 0.50397 0.0
O97 O 0.6826 0.32547 0.5914 0.0
C98 C 0.53877 0.34103 0.56762 0.0
C99 C 0.65441 0.2484 0.51655 0.0
Zn100 Zn 0.96687 0.36079 0.729 0.0
Zn101 Zn -0.00233 0.37309 0.84572 0.0
C102 C 0.01328 0.34449 0.64423 0.0
O103 O -0.00281 0.38503 0.63411 0.0
C104 C 0.92591 0.43557 0.87579 0.0
O105 O 0.9176 0.40288 0.90505 0.0
O106 O 0.90521 0.38323 0.69943 0.0
O107 O 0.94445 0.31433 0.77418 0.0
O108 O 0.95932 0.31801 0.84514 0.0
C109 C 0.88768 0.35704 0.67304 0.0
O110 O 0.91076 0.31943 0.66611 0.0
O111 O 0.0066 0.32809 0.68336 0.0
C112 C 0.06424 0.39375 0.91307 0.0
O113 O 0.08579 0.41514 0.87974 0.0
O114 O 0.02713 0.37201 0.906 0.0
O115 O 0.05195 0.37999 0.80016 0.0
O116 O 0.00642 0.41143 0.74779 0.0
O117 O 0.95595 0.42908 0.84435 0.0
C118 C 0.94087 0.29873 0.81382 0.0
C119 C 0.04733 0.40528 0.76546 0.0
Zn120 Zn 0.86954 0.6847 0.98252 0.0
Zn121 Zn 0.85009 0.72479 0.0965 0.0
C122 C 0.87729 0.72584 0.89516 0.0
O123 O 0.84065 0.70096 0.88843 0.0
C124 C 0.79428 0.65454 0.13228 0.0
O125 O 0.82744 0.65439 0.16246 0.0
O126 O 0.85701 0.62545 0.95675 0.0
O127 O 0.92173 0.67123 0.02704 0.0
O128 O 0.91421 0.6934 0.09557 0.0
C129 C 0.89148 0.61208 0.93196 0.0
O130 O 0.92905 0.63699 0.92553 0.0
O131 O 0.89599 0.72436 0.93312 0.0
C132 C 0.82548 0.79625 0.15602 0.0
O133 O 0.81326 0.81893 0.11956 0.0
O134 O 0.84269 0.7569 0.15363 0.0
O135 O 0.83992 0.76818 0.0453 0.0
O136 O 0.81073 0.71831 0.00416 0.0
O137 O 0.79784 0.68095 0.09841 0.0
C138 C 0.93786 0.67371 0.06573 0.0
C139 C 0.81801 0.75865 0.01098 0.0
Zn140 Zn 0.52443 0.63648 0.23749 0.0
Zn141 Zn 0.47637 0.62192 0.34772 0.0
C142 C 0.45482 0.68804 0.18389 0.0
O143 O 0.43867 0.70034 0.22249 0.0
C144 C 0.56675 0.57651 0.37262 0.0
O145 O 0.57128 0.60984 0.39801 0.0
O146 O 0.59124 0.61783 0.21892 0.0
O147 O 0.53374 0.68747 0.27635 0.0
O148 O 0.50324 0.68239 0.34445 0.0
C149 C 0.60256 0.60894 0.17952 0.0
O150 O 0.5687 0.60824 0.15011 0.0
O151 O 0.49052 0.66081 0.18241 0.0
C152 C 0.44766 0.58609 0.43619 0.0
O153 O 0.48257 0.55653 0.43077 0.0
O154 O 0.43921 0.61578 0.40572 0.0
O155 O 0.42974 0.60822 0.30072 0.0
O156 O 0.49015 0.58239 0.26104 0.0
O157 O 0.53046 0.57602 0.34797 0.0
C158 C 0.52615 0.70346 0.31383 0.0
C159 C 0.44543 0.58435 0.27009 0.0
Zn160 Zn 0.24587 0.42924 0.14771 0.0
Zn161 Zn 0.15487 0.49106 0.15124 0.0
C162 C 0.32362 0.46834 0.181 0.0
O163 O 0.33795 0.4563 0.14175 0.0
C164 C 0.11108 0.43605 0.08967 0.0
O165 O 0.07688 0.43466 0.12026 0.0
O166 O 0.28857 0.37576 0.13223 0.0
O167 O 0.18524 0.39997 0.17431 0.0
O168 O 0.14297 0.45317 0.20514 0.0
C169 C 0.28935 0.34607 0.16381 0.0
O170 O 0.26543 0.35381 0.20054 0.0
O171 O 0.28178 0.45809 0.19497 0.0
C172 C 0.10237 0.56043 0.1083 0.0
O173 O 0.13438 0.5506 0.07759 0.0
O174 O 0.10362 0.53896 0.14554 0.0
O175 O 0.21661 0.5215 0.1502 0.0
O176 O 0.24396 0.47933 0.09842 0.0
O177 O 0.14916 0.45636 0.09664 0.0
C178 C 0.15412 0.41247 0.20279 0.0
C179 C 0.23882 0.51774 0.11365 0.0
Zn180 Zn 0.68884 0.98893 0.89102 0.0
Zn181 Zn 0.75032 0.09197 0.8873 0.0
C182 C 0.73693 0.9015 0.89911 0.0
O183 O 0.71435 0.89417 0.8628 0.0
C184 C 0.68618 0.14891 0.83714 0.0
O185 O 0.69685 0.17624 0.86736 0.0
O186 O 0.62478 0.96355 0.87705 0.0
O187 O 0.6754 0.02814 0.94084 0.0
O188 O 0.71543 0.08977 0.94593 0.0
C189 C 0.60923 0.93292 0.90357 0.0
O190 O 0.63561 0.91895 0.93724 0.0
O191 O 0.73213 0.93923 0.91544 0.0
C192 C 0.81891 0.14857 0.84733 0.0
O193 O 0.80767 0.12483 0.81432 0.0
O194 O 0.79889 0.14044 0.8849 0.0
O195 O 0.78585 0.03712 0.86826 0.0
O196 O 0.72097 0.01552 0.8367 0.0
O197 O 0.7032 0.10947 0.84016 0.0
C198 C 0.68471 0.06237 0.96101 0.0
C199 C 0.76646 0.01626 0.83848 0.0
Zn200 Zn 0.753 0.01944 0.38665 0.0
Zn201 Zn 0.70426 0.90819 0.38289 0.0
C202 C 0.71866 0.10688 0.40681 0.0
O203 O 0.74067 0.11676 0.36894 0.0
C204 C 0.76722 0.86142 0.32547 0.0
O205 O 0.76455 0.83261 0.35944 0.0
O206 O 0.81744 0.04438 0.36693 0.0
O207 O 0.76946 0.96966 0.43016 0.0
O208 O 0.74417 0.9017 0.43869 0.0
C209 C 0.83705 0.06588 0.39622 0.0
O210 O 0.8148 0.0699 0.43448 0.0
O211 O 0.71711 0.06653 0.42082 0.0
C212 C 0.63574 0.85623 0.34683 0.0
O213 O 0.64342 0.88657 0.31495 0.0
O214 O 0.6583 0.85795 0.38271 0.0
O215 O 0.66053 0.96325 0.37319 0.0
O216 O 0.71105 0.00659 0.33566 0.0
O217 O 0.7465 0.89932 0.32844 0.0
C218 C 0.77033 0.93214 0.45101 0.0
C219 C 0.66866 0.9929 0.34272 0.0
Zn220 Zn 0.29518 0.49305 0.64404 0.0
Zn221 Zn 0.24393 0.58331 0.64433 0.0
C222 C 0.233 0.43945 0.604 0.0
O223 O 0.24244 0.418 0.64186 0.0
C224 C 0.31211 0.62395 0.69937 0.0
O225 O 0.31329 0.65394 0.66634 0.0
O226 O 0.34572 0.44327 0.64564 0.0
O227 O 0.33623 0.54497 0.62445 0.0
O228 O 0.27899 0.57879 0.58673 0.0
C229 C 0.3628 0.43893 0.6067 0.0
O230 O 0.34408 0.46358 0.57401 0.0
O231 O 0.25123 0.47709 0.59569 0.0
C232 C 0.16319 0.64843 0.64233 0.0
O233 O 0.13483 0.61464 0.64803 0.0
O234 O 0.20833 0.6416 0.63938 0.0
O235 O 0.198 0.53534 0.66123 0.0
O236 O 0.25084 0.49308 0.69854 0.0
O237 O 0.28793 0.58942 0.69564 0.0
C238 C 0.3229 0.56741 0.59009 0.0
C239 C 0.20721 0.50482 0.69073 0.0
C240 C 0.16731 0.35199 0.54783 0.0
C241 C 0.16356 0.37069 0.50458 0.0
H242 H 0.19134 0.3594 0.61318 0.0
C243 C 0.17951 0.41383 0.49493 0.0
H244 H 0.15458 0.31911 0.5565 0.0
C245 C 0.20081 0.43705 0.52757 0.0
C246 C 0.20616 0.41757 0.5704 0.0
H247 H 0.1768 0.42916 0.4619 0.0
H248 H 0.21416 0.4697 0.51894 0.0
C249 C 0.18823 0.37521 0.58039 0.0
C250 C 0.77498 0.96214 0.77982 0.0
C251 C 0.79622 0.99248 0.80615 0.0
H252 H 0.7853 0.91544 0.73008 0.0
C253 C 0.84567 0.99988 0.80098 0.0
H254 H 0.73696 0.95572 0.78302 0.0
C255 C 0.8734 0.97701 0.77015 0.0
C256 C 0.85215 0.94609 0.74445 0.0
H257 H 0.86289 0.02333 0.82067 0.0
H258 H 0.91155 0.98287 0.7671 0.0
C259 C 0.80269 0.93904 0.74946 0.0
C260 C 0.25345 0.63945 0.0824 0.0
C261 C 0.27588 0.63865 0.04063 0.0
H262 H 0.2248 0.60231 0.13802 0.0
C263 C 0.287 0.59736 0.02288 0.0
H264 H 0.24459 0.67054 0.09717 0.0
C265 C 0.27554 0.55774 0.04646 0.0
C266 C 0.25297 0.55874 0.08826 0.0
H267 H 0.30439 0.59562 0.9907 0.0
H268 H 0.28414 0.52649 0.03193 0.0
C269 C 0.24227 0.60011 0.10591 0.0
C270 C 0.60014 0.06532 0.25788 0.0
C271 C 0.55215 0.05369 0.26658 0.0
H272 H 0.67394 0.05567 0.27482 0.0
C273 C 0.54275 0.02085 0.30004 0.0
H274 H 0.60893 0.09038 0.23234 0.0
C275 C 0.5805 0.00065 0.32458 0.0
C276 C 0.62839 0.013 0.31624 0.0
H277 H 0.50625 0.01113 0.30763 0.0
H278 H 0.57209 0.9757 0.35034 0.0
C279 C 0.63762 0.04537 0.28237 0.0
C280 C 0.65163 0.16938 0.49544 0.0
C281 C 0.67209 0.21129 0.49005 0.0
H282 H 0.65022 0.10334 0.47313 0.0
C283 C 0.70884 0.21788 0.45807 0.0
H284 H 0.62342 0.16317 0.51997 0.0
C285 C 0.7232 0.18413 0.43064 0.0
C286 C 0.70216 0.14255 0.43541 0.0
H287 H 0.72601 0.24948 0.45367 0.0
H288 H 0.75127 0.19051 0.406 0.0
C289 C 0.66676 0.13522 0.46853 0.0
C290 C 0.13552 0.42266 0.76334 0.0
C291 C 0.08867 0.43099 0.74758 0.0
H292 H 0.20997 0.43931 0.7578 0.0
C293 C 0.0814 0.46433 0.71405 0.0
H294 H 0.14238 0.39718 0.78913 0.0
C295 C 0.11977 0.48863 0.69657 0.0
C296 C 0.16674 0.48006 0.71176 0.0
H297 H 0.04589 0.4718 0.70109 0.0
H298 H 0.11252 0.51379 0.67055 0.0
C299 C 0.17422 0.44683 0.74544 0.0
C300 C 0.75638 0.82051 0.91437 0.0
C301 C 0.76185 0.8648 0.92459 0.0
H302 H 0.76933 0.75203 0.93394 0.0
C303 C 0.78837 0.87369 0.96174 0.0
H304 H 0.73611 0.81257 0.88597 0.0
C305 C 0.80746 0.83916 0.98901 0.0
C306 C 0.80032 0.79482 0.97998 0.0
H307 H 0.79353 0.90744 0.97039 0.0
H308 H 0.82693 0.84737 0.01781 0.0
C309 C 0.77526 0.78582 0.94194 0.0
C310 C 0.36601 0.54769 0.26364 0.0
C311 C 0.41336 0.55471 0.24822 0.0
H312 H 0.30033 0.51419 0.25482 0.0
C313 C 0.43081 0.53231 0.21153 0.0
H314 H 0.35159 0.5644 0.29193 0.0
C315 C 0.40176 0.50376 0.19057 0.0
C316 C 0.35445 0.49667 0.20572 0.0
H317 H 0.46702 0.53702 0.19866 0.0
H318 H 0.41648 0.48742 0.16217 0.0
C319 C 0.33681 0.51874 0.24262 0.0
C320 C 0.50165 0.23554 0.33608 0.0
C321 C 0.51978 0.19269 0.3288 0.0
H322 H 0.51208 0.29587 0.36808 0.0
C323 C 0.56486 0.17883 0.34522 0.0
H324 H 0.46668 0.24659 0.32396 0.0
C325 C 0.5913 0.20729 0.36914 0.0
C326 C 0.57221 0.24937 0.37831 0.0
H327 H 0.57935 0.1458 0.33996 0.0
H328 H 0.62569 0.19567 0.38208 0.0
C329 C 0.52736 0.26347 0.36139 0.0
C330 C 0.03792 0.30043 0.53107 0.0
C331 C 0.05581 0.25725 0.54185 0.0
H332 H 0.0116 0.36217 0.5548 0.0
C333 C 0.06277 0.24417 0.58654 0.0
H334 H 0.03252 0.31172 0.49697 0.0
C335 C 0.05049 0.27301 0.61974 0.0
C336 C 0.0314 0.31577 0.60903 0.0
H337 H 0.07664 0.2112 0.596 0.0
H338 H 0.05507 0.26144 0.65388 0.0
C339 C 0.0262 0.32946 0.56426 0.0
C340 C 0.94944 0.81408 0.83416 0.0
C341 C 0.93739 0.80899 0.79 0.0
H342 H 0.94007 0.79184 0.90175 0.0
C343 C 0.90495 0.77643 0.78055 0.0
H344 H 0.97449 0.83877 0.8426 0.0
C345 C 0.88482 0.74959 0.81479 0.0
C346 C 0.89735 0.75456 0.85887 0.0
H347 H 0.89488 0.77191 0.74686 0.0
H348 H 0.85989 0.72469 0.80668 0.0
C349 C 0.92984 0.78707 0.86814 0.0
C350 C 0.39623 0.73996 0.14414 0.0
C351 C 0.43303 0.70712 0.14253 0.0
H352 H 0.34889 0.78485 0.10788 0.0
C353 C 0.44945 0.69355 0.10104 0.0
H354 H 0.38263 0.75116 0.17547 0.0
C355 C 0.42996 0.71289 0.06208 0.0
C356 C 0.39378 0.74635 0.06373 0.0
H357 H 0.47766 0.66822 0.0986 0.0
H358 H 0.44365 0.70194 0.03068 0.0
C359 C 0.37691 0.75935 0.10527 0.0
C360 C 0.09483 0.36186 0.30633 0.0
C361 C 0.10704 0.31668 0.303 0.0
H362 H 0.09974 0.42762 0.27704 0.0
C363 C 0.12986 0.30288 0.26409 0.0
H364 H 0.07706 0.37355 0.33581 0.0
C365 C 0.14323 0.33389 0.2306 0.0
C366 C 0.13373 0.37935 0.23513 0.0
H367 H 0.13971 0.26833 0.26037 0.0
H368 H 0.16264 0.3223 0.20189 0.0
C369 C 0.10789 0.39287 0.27265 0.0
C370 C 0.86375 0.95468 0.53505 0.0
C371 C 0.86977 0.91372 0.55876 0.0
H372 H 0.82815 0.9924 0.48356 0.0
C373 C 0.84211 0.87814 0.54717 0.0
H374 H 0.88425 0.98292 0.54285 0.0
C375 C 0.80921 0.88369 0.51248 0.0
C376 C 0.80346 0.92491 0.48886 0.0
H377 H 0.84579 0.84616 0.56488 0.0
H378 H 0.78856 0.85576 0.50407 0.0
C379 C 0.83123 0.96017 0.50081 0.0
C380 C 0.35011 0.67543 0.74985 0.0
C381 C 0.32912 0.63458 0.74343 0.0
H382 H 0.36936 0.72225 0.79669 0.0
C383 C 0.31837 0.60651 0.78056 0.0
H384 H 0.35912 0.69773 0.72192 0.0
C385 C 0.3239 0.62072 0.82303 0.0
C386 C 0.34101 0.66298 0.82944 0.0
H387 H 0.30264 0.57467 0.77697 0.0
H388 H 0.31225 0.59949 0.85095 0.0
C389 C 0.35625 0.68945 0.79262 0.0
C390 C 0.60793 0.04134 0.06313 0.0
C391 C 0.59331 0.08447 0.07339 0.0
H392 H 0.64848 0.00073 0.01949 0.0
C393 C 0.61235 0.12071 0.0486 0.0
H394 H 0.59401 0.01272 0.08167 0.0
C395 C 0.64447 0.11378 0.01329 0.0
C396 C 0.65713 0.07052 0.00187 0.0
H397 H 0.60191 0.15433 0.05607 0.0
H398 H 0.65763 0.14212 0.99378 0.0
C399 C 0.63915 0.03444 0.02752 0.0
C400 C 0.63616 0.15301 0.7221 0.0
C401 C 0.63155 0.19888 0.71259 0.0
H402 H 0.65692 0.10105 0.76934 0.0
C403 C 0.63971 0.22782 0.7461 0.0
H404 H 0.62989 0.12989 0.69701 0.0
C405 C 0.65477 0.21136 0.78756 0.0
C406 C 0.66239 0.16563 0.79623 0.0
H407 H 0.63592 0.26337 0.73993 0.0
H408 H 0.66253 0.23465 0.81208 0.0
C409 C 0.65166 0.13652 0.76353 0.0
C410 C 0.06113 0.39633 0.0378 0.0
C411 C 0.10248 0.41996 0.04543 0.0
H412 H 0.01686 0.36901 0.99008 0.0
C413 C 0.13342 0.43128 0.00957 0.0
H414 H 0.03668 0.38693 0.06474 0.0
C415 C 0.12189 0.42129 0.96671 0.0
C416 C 0.07941 0.39942 0.95883 0.0
H417 H 0.16562 0.44945 0.01429 0.0
H418 H 0.14562 0.43184 0.93962 0.0
C419 C 0.04981 0.386 0.99498 0.0
C420 C 0.80966 0.80498 0.27986 0.0
C421 C 0.78752 0.84724 0.28263 0.0
H422 H 0.83922 0.75586 0.23801 0.0
C423 C 0.78132 0.87391 0.24356 0.0
H424 H 0.81515 0.78358 0.30928 0.0
C425 C 0.79502 0.85788 0.20255 0.0
C426 C 0.81536 0.81489 0.19967 0.0
H427 H 0.76434 0.90659 0.24446 0.0
H428 H 0.78846 0.87882 0.17301 0.0
C429 C 0.82347 0.78903 0.23892 0.0
C430 C 0.34304 0.60321 0.51594 0.0
C431 C 0.35672 0.5753 0.55242 0.0
H432 H 0.36124 0.62884 0.45073 0.0
C433 C 0.40173 0.55284 0.55128 0.0
H434 H 0.30868 0.62112 0.51591 0.0
C435 C 0.43151 0.55673 0.51367 0.0
C436 C 0.41728 0.58378 0.47677 0.0
H437 H 0.4134 0.53117 0.57889 0.0
H438 H 0.46549 0.53819 0.51338 0.0
C439 C 0.37316 0.60764 0.4786 0.0
C440 C 0.25251 0.21001 0.37199 0.0
C441 C 0.22811 0.17328 0.39049 0.0
H442 H 0.31084 0.23355 0.33156 0.0
C443 C 0.24673 0.13046 0.38288 0.0
H444 H 0.23952 0.2435 0.37723 0.0
C445 C 0.28816 0.12469 0.3563 0.0
C446 C 0.31161 0.16164 0.33696 0.0
H447 H 0.2288 0.10145 0.39666 0.0
H448 H 0.30121 0.09142 0.35022 0.0
C449 C 0.29362 0.20427 0.34566 0.0
C450 C 0.07312 0.00699 0.55343 0.0
C451 C 0.10079 0.03995 0.57033 0.0
H452 H 0.03373 0.94815 0.56732 0.0
C453 C 0.11291 0.03632 0.61512 0.0
H454 H 0.06327 0.00872 0.51902 0.0
C455 C 0.09583 0.00164 0.64289 0.0
C456 C 0.06639 0.96977 0.62641 0.0
H457 H 0.13428 0.06107 0.62917 0.0
H458 H 0.10472 0.0005 0.67752 0.0
C459 C 0.05614 0.97225 0.58116 0.0
C460 C 0.15304 0.79325 0.85529 0.0
C461 C 0.14003 0.83602 0.83812 0.0
H462 H 0.2012 0.75297 0.89563 0.0
C463 C 0.16556 0.87213 0.8515 0.0
H464 H 0.13417 0.76465 0.84581 0.0
C465 C 0.20389 0.86544 0.88064 0.0
C466 C 0.21789 0.82244 0.8966 0.0
H467 H 0.15634 0.90552 0.83904 0.0
H468 H 0.22345 0.89386 0.88956 0.0
C469 C 0.19158 0.78653 0.88393 0.0
C470 C 0.4084 0.99267 0.12071 0.0
C471 C 0.40075 0.03304 0.09625 0.0
H472 H 0.40296 0.92219 0.1231 0.0
C473 C 0.37712 0.03276 0.05572 0.0
H474 H 0.42644 0.99158 0.15204 0.0
C475 C 0.36334 0.99284 0.03916 0.0
C476 C 0.3733 0.9523 0.06261 0.0
H477 H 0.3705 0.06328 0.03607 0.0
H478 H 0.34666 0.99365 0.0072 0.0
C479 C 0.39504 0.9528 0.104 0.0
C480 C 0.82752 0.34426 0.61618 0.0
C481 C 0.83931 0.36492 0.65461 0.0
H482 H 0.7718 0.32467 0.57489 0.0
C483 C 0.80297 0.38751 0.67802 0.0
H484 H 0.85499 0.32702 0.59723 0.0
C485 C 0.75492 0.38572 0.66553 0.0
C486 C 0.74268 0.36179 0.62914 0.0
H487 H 0.81113 0.40373 0.70776 0.0
H488 H 0.72721 0.4008 0.68593 0.0
C489 C 0.77978 0.34305 0.60332 0.0
C490 C 0.93001 0.51766 0.86177 0.0
C491 C 0.90917 0.48131 0.88487 0.0
H492 H 0.94052 0.58745 0.85871 0.0
C493 C 0.877 0.48925 0.92029 0.0
H494 H 0.95478 0.51289 0.83426 0.0
C495 C 0.86838 0.53234 0.93406 0.0
C496 C 0.89235 0.56806 0.91302 0.0
H497 H 0.86016 0.46198 0.93866 0.0
H498 H 0.84534 0.53726 0.96274 0.0
C499 C 0.92198 0.56044 0.87591 0.0
C500 C 0.71332 0.63183 0.10955 0.0
C501 C 0.74847 0.63238 0.14205 0.0
H502 H 0.63932 0.62292 0.09586 0.0
C503 C 0.73688 0.61728 0.18551 0.0
H504 H 0.72138 0.64279 0.07566 0.0
C505 C 0.68979 0.60629 0.19715 0.0
C506 C 0.65365 0.60967 0.16543 0.0
H507 H 0.76326 0.61694 0.21125 0.0
H508 H 0.68115 0.59763 0.2315 0.0
C509 C 0.66633 0.62029 0.12111 0.0
C510 C 0.63085 0.48096 0.43375 0.0
C511 C 0.62793 0.44769 0.40346 0.0
H512 H 0.61458 0.54859 0.44729 0.0
C513 C 0.61313 0.45959 0.36026 0.0
H514 H 0.64252 0.47292 0.46716 0.0
C515 C 0.59662 0.50275 0.34908 0.0
C516 C 0.59539 0.53501 0.38063 0.0
H517 H 0.61081 0.4349 0.33596 0.0
H518 H 0.58216 0.51021 0.31654 0.0
C519 C 0.615 0.52437 0.42231 0.0
C520 C 0.30064 0.26622 0.18637 0.0
C521 C 0.31636 0.30336 0.16082 0.0
H522 H 0.31509 0.19921 0.20928 0.0
C523 C 0.35931 0.29969 0.13591 0.0
H524 H 0.2674 0.26793 0.20561 0.0
C525 C 0.3874 0.26022 0.13867 0.0
C526 C 0.37248 0.22358 0.16575 0.0
H527 H 0.37226 0.32786 0.11601 0.0
H528 H 0.42137 0.25882 0.12059 0.0
C529 C 0.32802 0.22673 0.18842 0.0
C530 C 0.89729 0.24594 0.86672 0.0
C531 C 0.9123 0.25863 0.82337 0.0
H532 H 0.85569 0.20134 0.90842 0.0
C533 C 0.89781 0.23374 0.78853 0.0
H534 H 0.90769 0.26446 0.8943 0.0
C535 C 0.86837 0.19761 0.79663 0.0
C536 C 0.85227 0.18556 0.83974 0.0
H537 H 0.90879 0.24242 0.75474 0.0
H538 H 0.85753 0.17962 0.76882 0.0
C539 C 0.86737 0.20987 0.8748 0.0
C540 C 0.03263 0.60861 0.13178 0.0
C541 C 0.06313 0.59311 0.0981 0.0
H542 H 0.96943 0.64707 0.14799 0.0
C543 C 0.0544 0.60744 0.05407 0.0
H544 H 0.03871 0.59834 0.16604 0.0
C545 C 0.01458 0.63496 0.04368 0.0
C546 C 0.98306 0.64924 0.07718 0.0
H547 H 0.07734 0.59615 0.02737 0.0
H548 H 0.00789 0.64423 0.00929 0.0
C549 C 0.99314 0.6367 0.12144 0.0
C550 C 0.59027 0.81139 0.29624 0.0
C551 C 0.60404 0.81921 0.33935 0.0
H552 H 0.55478 0.76872 0.25441 0.0
C553 C 0.58859 0.79056 0.3745 0.0
H554 H 0.6015 0.83288 0.2684 0.0
C555 C 0.56101 0.7541 0.3665 0.0
C556 C 0.54912 0.74524 0.32311 0.0
H557 H 0.5984 0.7959 0.40809 0.0
H558 H 0.55075 0.73186 0.39409 0.0
C559 C 0.56347 0.77462 0.28817 0.0
C560 C 0.46469 0.38394 0.5441 0.0
C561 C 0.49207 0.36329 0.57816 0.0
H562 H 0.40249 0.42328 0.52647 0.0
C563 C 0.47491 0.36525 0.62209 0.0
H564 H 0.47653 0.38287 0.5099 0.0
C565 C 0.43199 0.38864 0.63172 0.0
C566 C 0.40556 0.41037 0.59758 0.0
H567 H 0.49509 0.34953 0.64912 0.0
H568 H 0.42022 0.39061 0.66585 0.0
C569 C 0.42203 0.40711 0.55368 0.0
C570 C 0.17517 0.72995 0.63874 0.0
C571 C 0.14411 0.69431 0.64522 0.0
H572 H 0.18491 0.79915 0.64441 0.0
C573 C 0.09613 0.70281 0.65822 0.0
H574 H 0.21227 0.72457 0.62823 0.0
C575 C 0.08045 0.74569 0.66748 0.0
C576 C 0.11249 0.7808 0.66384 0.0
H577 H 0.07127 0.67611 0.66322 0.0
H578 H 0.04381 0.7509 0.67935 0.0
C579 C 0.1595 0.77277 0.64793 0.0
C580 C 0.50014 0.86366 0.92579 0.0
C581 C 0.46355 0.89078 0.90633 0.0
H582 H 0.57494 0.8559 0.94011 0.0
C583 C 0.47631 0.92911 0.8809 0.0
H584 H 0.49168 0.83382 0.94545 0.0
C585 C 0.52432 0.94158 0.87752 0.0
C586 C 0.56024 0.91622 0.9 0.0
H587 H 0.44899 0.95059 0.8653 0.0
H588 H 0.53282 0.97235 0.85949 0.0
C589 C 0.5479 0.87642 0.92291 0.0
C590 C 0.92211 0.06057 0.36765 0.0
C591 C 0.88538 0.0839 0.3898 0.0
H592 H -0.00191 0.05256 0.35579 0.0
C593 C 0.89655 0.12194 0.41138 0.0
H594 H 0.91429 0.03107 0.35084 0.0
C595 C 0.94406 0.13467 0.41366 0.0
C596 C 0.98159 0.109 0.39522 0.0
H597 H 0.86868 0.14075 0.42831 0.0
H598 H 0.95152 0.16292 0.43253 0.0
C599 C 0.97001 0.07284 0.37063 0.0
loop_
_geom_bond_atom_site_label_1
_geom_bond_atom_site_label_2
_geom_bond_distance
_geom_bond_site_symmetry_2
_ccdc_geom_bond_type
Zn0 O6 1.969 . S
Zn0 O7 1.965 . S
Zn0 O11 2.024 . S
Zn0 O16 1.969 . S
Zn1 O8 1.969 . S
Zn1 O14 1.969 . S
Zn1 O15 1.965 . S
Zn1 O17 2.024 . S
C2 O3 1.229 . S
C2 O11 1.058 . S
O3 C2 1.229 . S
C4 O5 1.229 . S
C4 O17 1.058 . S
O5 C4 1.229 . S
O6 Zn0 1.969 . S
O6 C9 1.267 . S
O7 Zn0 1.965 . S
O7 C18 1.260 . S
O8 Zn1 1.969 . S
O8 C18 1.258 . S
C9 O6 1.267 . S
C9 O10 1.228 . S
O10 C9 1.228 . S
O11 Zn0 2.024 . S
O11 C2 1.058 . S
C12 O13 1.228 . S
C12 O14 1.267 . S
O13 C12 1.228 . S
O14 Zn1 1.969 . S
O14 C12 1.267 . S
O15 Zn1 1.965 . S
O15 C19 1.260 . S
O16 Zn0 1.969 . S
O16 C19 1.258 . S
O17 Zn1 2.024 . S
O17 C4 1.058 . S
C18 O7 1.260 . S
C18 O8 1.258 . S
C19 O15 1.260 . S
C19 O16 1.258 . S
Zn20 O26 1.969 . S
Zn20 O27 1.965 1_655 S
Zn20 O31 2.024 . S
Zn20 O36 1.969 . S
Zn21 O28 1.969 . S
Zn21 O34 1.969 . S
Zn21 O35 1.965 . S
Zn21 O37 2.024 . S
C22 O23 1.229 . S
C22 O31 1.058 . S
O23 C22 1.229 . S
C24 O25 1.229 . S
C24 O37 1.058 . S
O25 C24 1.229 . S
O26 Zn20 1.969 . S
O26 C29 1.267 . S
O27 Zn20 1.965 1_455 S
O27 C38 1.260 . S
O28 Zn21 1.969 . S
O28 C38 1.258 . S
C29 O26 1.267 . S
C29 O30 1.228 . S
O30 C29 1.228 . S
O31 Zn20 2.024 . S
O31 C22 1.058 . S
C32 O33 1.228 . S
C32 O34 1.267 . S
O33 C32 1.228 . S
O34 Zn21 1.969 . S
O34 C32 1.267 . S
O35 Zn21 1.965 . S
O35 C39 1.260 1_455 S
O36 Zn20 1.969 . S
O36 C39 1.258 . S
O37 Zn21 2.024 . S
O37 C24 1.058 . S
C38 O27 1.260 . S
C38 O28 1.258 . S
C39 O35 1.260 1_655 S
C39 O36 1.258 . S
Zn40 O46 1.969 . S
Zn40 O47 1.965 . S
Zn40 O51 2.024 . S
Zn40 O56 1.969 . S
Zn41 O48 1.969 . S
Zn41 O54 1.969 1_556 S
Zn41 O55 1.965 1_556 S
Zn41 O57 2.024 . S
C42 O43 1.229 . S
C42 O51 1.058 . S
O43 C42 1.229 . S
C44 O45 1.229 . S
C44 O57 1.058 . S
O45 C44 1.229 . S
O46 Zn40 1.969 . S
O46 C49 1.267 . S
O47 Zn40 1.965 . S
O47 C58 1.260 . S
O48 Zn41 1.969 . S
O48 C58 1.258 . S
C49 O46 1.267 . S
C49 O50 1.228 . S
O50 C49 1.228 . S
O51 Zn40 2.024 . S
O51 C42 1.058 . S
C52 O53 1.228 . S
C52 O54 1.267 . S
O53 C52 1.228 . S
O54 Zn41 1.969 1_554 S
O54 C52 1.267 . S
O55 Zn41 1.965 1_554 S
O55 C59 1.260 . S
O56 Zn40 1.969 . S
O56 C59 1.258 1_556 S
O57 Zn41 2.024 . S
O57 C44 1.058 . S
C58 O47 1.260 . S
C58 O48 1.258 . S
C59 O55 1.260 . S
C59 O56 1.258 1_554 S
Zn60 O66 1.969 . S
Zn60 O67 1.965 . S
Zn60 O71 2.024 . S
Zn60 O76 1.969 . S
Zn61 O68 1.969 . S
Zn61 O74 1.969 . S
Zn61 O75 1.965 . S
Zn61 O77 2.024 . S
C62 O63 1.229 . S
C62 O71 1.058 . S
O63 C62 1.229 . S
C64 O65 1.229 . S
C64 O77 1.058 . S
O65 C64 1.229 . S
O66 Zn60 1.969 . S
O66 C69 1.267 . S
O67 Zn60 1.965 . S
O67 C78 1.260 . S
O68 Zn61 1.969 . S
O68 C78 1.258 . S
C69 O66 1.267 . S
C69 O70 1.228 . S
O70 C69 1.228 . S
O71 Zn60 2.024 . S
O71 C62 1.058 . S
C72 O73 1.228 . S
C72 O74 1.267 . S
O73 C72 1.228 . S
O74 Zn61 1.969 . S
O74 C72 1.267 . S
O75 Zn61 1.965 . S
O75 C79 1.260 . S
O76 Zn60 1.969 . S
O76 C79 1.258 . S
O77 Zn61 2.024 . S
O77 C64 1.058 . S
C78 O67 1.260 . S
C78 O68 1.258 . S
C79 O75 1.260 . S
C79 O76 1.258 . S
Zn80 O86 1.969 . S
Zn80 O87 1.965 . S
Zn80 O91 2.024 . S
Zn80 O96 1.969 . S
Zn81 O88 1.969 . S
Zn81 O94 1.969 . S
Zn81 O95 1.965 . S
Zn81 O97 2.024 . S
C82 O83 1.229 . S
C82 O91 1.058 . S
O83 C82 1.229 . S
C84 O85 1.229 . S
C84 O97 1.058 . S
O85 C84 1.229 . S
O86 Zn80 1.969 . S
O86 C89 1.267 . S
O87 Zn80 1.965 . S
O87 C98 1.260 . S
O88 Zn81 1.969 . S
O88 C98 1.258 . S
C89 O86 1.267 . S
C89 O90 1.228 . S
O90 C89 1.228 . S
O91 Zn80 2.024 . S
O91 C82 1.058 . S
C92 O93 1.228 . S
C92 O94 1.267 . S
O93 C92 1.228 . S
O94 Zn81 1.969 . S
O94 C92 1.267 . S
O95 Zn81 1.965 . S
O95 C99 1.260 . S
O96 Zn80 1.969 . S
O96 C99 1.258 . S
O97 Zn81 2.024 . S
O97 C84 1.058 . S
C98 O87 1.260 . S
C98 O88 1.258 . S
C99 O95 1.260 . S
C99 O96 1.258 . S
Zn100 O106 1.969 . S
Zn100 O107 1.965 . S
Zn100 O111 2.024 . S
Zn100 O116 1.969 1_655 S
Zn101 O108 1.969 . S
Zn101 O114 1.969 1_655 S
Zn101 O115 1.965 1_655 S
Zn101 O117 2.024 . S
C102 O103 1.231 . S
C102 O111 1.058 1_455 S
O103 C102 1.231 . S
C104 O105 1.229 . S
C104 O117 1.058 . S
O105 C104 1.229 . S
O106 Zn100 1.969 . S
O106 C109 1.267 . S
O107 Zn100 1.965 . S
O107 C118 1.260 . S
O108 Zn101 1.969 . S
O108 C118 1.258 . S
C109 O106 1.267 . S
C109 O110 1.228 . S
O110 C109 1.228 . S
O111 Zn100 2.024 . S
O111 C102 1.058 1_655 S
C112 O113 1.228 . S
C112 O114 1.267 . S
O113 C112 1.228 . S
O114 Zn101 1.969 1_455 S
O114 C112 1.267 . S
O115 Zn101 1.965 1_455 S
O115 C119 1.260 . S
O116 Zn100 1.969 1_455 S
O116 C119 1.258 . S
O117 Zn101 2.024 . S
O117 C104 1.058 . S
C118 O107 1.260 . S
C118 O108 1.258 . S
C119 O115 1.260 . S
C119 O116 1.258 . S
Zn120 O126 1.969 . S
Zn120 O127 1.965 1_556 S
Zn120 O131 2.024 . S
Zn120 O136 1.969 . S
Zn121 O128 1.969 . S
Zn121 O134 1.969 . S
Zn121 O135 1.965 . S
Zn121 O137 2.024 . S
C122 O123 1.229 . S
C122 O131 1.058 . S
O123 C122 1.229 . S
C124 O125 1.229 . S
C124 O137 1.058 . S
O125 C124 1.229 . S
O126 Zn120 1.969 . S
O126 C129 1.267 . S
O127 Zn120 1.965 1_554 S
O127 C138 1.260 . S
O128 Zn121 1.969 . S
O128 C138 1.258 . S
C129 O126 1.267 . S
C129 O130 1.228 . S
O130 C129 1.228 . S
O131 Zn120 2.024 . S
O131 C122 1.058 . S
C132 O133 1.228 . S
C132 O134 1.267 . S
O133 C132 1.228 . S
O134 Zn121 1.969 . S
O134 C132 1.267 . S
O135 Zn121 1.965 . S
O135 C139 1.260 1_554 S
O136 Zn120 1.969 . S
O136 C139 1.258 . S
O137 Zn121 2.024 . S
O137 C124 1.058 . S
C138 O127 1.260 . S
C138 O128 1.258 . S
C139 O135 1.260 1_556 S
C139 O136 1.258 . S
Zn140 O146 1.969 . S
Zn140 O147 1.965 . S
Zn140 O151 2.024 . S
Zn140 O156 1.969 . S
Zn141 O148 1.969 . S
Zn141 O154 1.969 . S
Zn141 O155 1.965 . S
Zn141 O157 2.024 . S
C142 O143 1.229 . S
C142 O151 1.058 . S
O143 C142 1.229 . S
C144 O145 1.229 . S
C144 O157 1.058 . S
O145 C144 1.229 . S
O146 Zn140 1.969 . S
O146 C149 1.267 . S
O147 Zn140 1.965 . S
O147 C158 1.260 . S
O148 Zn141 1.969 . S
O148 C158 1.258 . S
C149 O146 1.267 . S
C149 O150 1.228 . S
O150 C149 1.228 . S
O151 Zn140 2.024 . S
O151 C142 1.058 . S
C152 O153 1.228 . S
C152 O154 1.267 . S
O153 C152 1.228 . S
O154 Zn141 1.969 . S
O154 C152 1.267 . S
O155 Zn141 1.965 . S
O155 C159 1.260 . S
O156 Zn140 1.969 . S
O156 C159 1.258 . S
O157 Zn141 2.024 . S
O157 C144 1.058 . S
C158 O147 1.260 . S
C158 O148 1.258 . S
C159 O155 1.260 . S
C159 O156 1.258 . S
Zn160 O166 1.969 . S
Zn160 O167 1.965 . S
Zn160 O171 2.024 . S
Zn160 O176 1.969 . S
Zn161 O168 1.969 . S
Zn161 O174 1.969 . S
Zn161 O175 1.965 . S
Zn161 O177 2.024 . S
C162 O163 1.229 . S
C162 O171 1.058 . S
O163 C162 1.229 . S
C164 O165 1.229 . S
C164 O177 1.058 . S
O165 C164 1.229 . S
O166 Zn160 1.969 . S
O166 C169 1.267 . S
O167 Zn160 1.965 . S
O167 C178 1.260 . S
O168 Zn161 1.969 . S
O168 C178 1.258 . S
C169 O166 1.267 . S
C169 O170 1.228 . S
O170 C169 1.228 . S
O171 Zn160 2.024 . S
O171 C162 1.058 . S
C172 O173 1.228 . S
C172 O174 1.267 . S
O173 C172 1.228 . S
O174 Zn161 1.969 . S
O174 C172 1.267 . S
O175 Zn161 1.965 . S
O175 C179 1.260 . S
O176 Zn160 1.969 . S
O176 C179 1.258 . S
O177 Zn161 2.024 . S
O177 C164 1.058 . S
C178 O167 1.260 . S
C178 O168 1.258 . S
C179 O175 1.260 . S
C179 O176 1.258 . S
Zn180 O186 1.969 . S
Zn180 O187 1.965 1_565 S
Zn180 O191 2.024 . S
Zn180 O196 1.969 . S
Zn181 O188 1.969 . S
Zn181 O194 1.969 . S
Zn181 O195 1.965 . S
Zn181 O197 2.024 . S
C182 O183 1.229 . S
C182 O191 1.058 . S
O183 C182 1.229 . S
C184 O185 1.229 . S
C184 O197 1.058 . S
O185 C184 1.229 . S
O186 Zn180 1.969 . S
O186 C189 1.267 . S
O187 Zn180 1.965 1_545 S
O187 C198 1.260 . S
O188 Zn181 1.969 . S
O188 C198 1.258 . S
C189 O186 1.267 . S
C189 O190 1.228 . S
O190 C189 1.228 . S
O191 Zn180 2.024 . S
O191 C182 1.058 . S
C192 O193 1.228 . S
C192 O194 1.267 . S
O193 C192 1.228 . S
O194 Zn181 1.969 . S
O194 C192 1.267 . S
O195 Zn181 1.965 . S
O195 C199 1.260 . S
O196 Zn180 1.969 . S
O196 C199 1.258 1_565 S
O197 Zn181 2.024 . S
O197 C184 1.058 . S
C198 O187 1.260 . S
C198 O188 1.258 . S
C199 O195 1.260 . S
C199 O196 1.258 1_545 S
Zn200 O206 1.969 . S
Zn200 O207 1.965 1_545 S
Zn200 O211 2.024 . S
Zn200 O216 1.969 . S
Zn201 O208 1.969 . S
Zn201 O214 1.969 . S
Zn201 O215 1.965 . S
Zn201 O217 2.024 . S
C202 O203 1.229 . S
C202 O211 1.058 . S
O203 C202 1.229 . S
C204 O205 1.229 . S
C204 O217 1.058 . S
O205 C204 1.229 . S
O206 Zn200 1.969 . S
O206 C209 1.267 . S
O207 Zn200 1.965 1_565 S
O207 C218 1.260 . S
O208 Zn201 1.969 . S
O208 C218 1.258 . S
C209 O206 1.267 . S
C209 O210 1.228 . S
O210 C209 1.228 . S
O211 Zn200 2.024 . S
O211 C202 1.058 . S
C212 O213 1.228 . S
C212 O214 1.267 . S
O213 C212 1.228 . S
O214 Zn201 1.969 . S
O214 C212 1.267 . S
O215 Zn201 1.965 . S
O215 C219 1.260 . S
O216 Zn200 1.969 . S
O216 C219 1.258 1_545 S
O217 Zn201 2.024 . S
O217 C204 1.058 . S
C218 O207 1.260 . S
C218 O208 1.258 . S
C219 O215 1.260 . S
C219 O216 1.258 1_565 S
Zn220 O226 1.969 . S
Zn220 O227 1.965 . S
Zn220 O231 2.024 . S
Zn220 O236 1.969 . S
Zn221 O228 1.969 . S
Zn221 O234 1.969 . S
Zn221 O235 1.965 . S
Zn221 O237 2.024 . S
C222 O223 1.229 . S
C222 O231 1.058 . S
O223 C222 1.229 . S
C224 O225 1.229 . S
C224 O237 1.058 . S
O225 C224 1.229 . S
O226 Zn220 1.969 . S
O226 C229 1.267 . S
O227 Zn220 1.965 . S
O227 C238 1.260 . S
O228 Zn221 1.969 . S
O228 C238 1.258 . S
C229 O226 1.267 . S
C229 O230 1.228 . S
O230 C229 1.228 . S
O231 Zn220 2.024 . S
O231 C222 1.058 . S
C232 O233 1.228 . S
C232 O234 1.267 . S
O233 C232 1.228 . S
O234 Zn221 1.969 . S
O234 C232 1.267 . S
O235 Zn221 1.965 . S
O235 C239 1.260 . S
O236 Zn220 1.969 . S
O236 C239 1.258 . S
O237 Zn221 2.024 . S
O237 C224 1.058 . S
C238 O227 1.260 . S
C238 O228 1.258 . S
C239 O235 1.260 . S
C239 O236 1.258 . S
C240 C241 1.387 . S
C240 H244 0.950 . S
C240 C249 1.390 . S
C241 C240 1.387 . S
C241 C243 1.387 . S
H242 C249 0.950 . S
C243 C241 1.387 . S
C243 C245 1.390 . S
C243 H247 0.950 . S
H244 C240 0.950 . S
C245 C243 1.390 . S
C245 C246 1.387 . S
C245 H248 0.950 . S
C246 C245 1.387 . S
C246 C249 1.387 . S
H247 C243 0.950 . S
H248 C245 0.950 . S
C249 C240 1.390 . S
C249 H242 0.950 . S
C249 C246 1.387 . S
C250 C251 1.387 1_565 S
C250 H254 0.950 . S
C250 C259 1.390 . S
C251 C250 1.387 1_545 S
C251 C253 1.387 . S
H252 C259 0.950 . S
C253 C251 1.387 . S
C253 C255 1.390 . S
C253 H257 0.950 . S
H254 C250 0.950 . S
C255 C253 1.390 . S
C255 C256 1.387 1_545 S
C255 H258 0.950 . S
C256 C255 1.387 1_565 S
C256 C259 1.387 . S
H257 C253 0.950 . S
H258 C255 0.950 . S
C259 C250 1.390 . S
C259 H252 0.950 . S
C259 C256 1.387 . S
C260 C261 1.387 . S
C260 H264 0.950 . S
C260 C269 1.390 . S
C261 C260 1.387 . S
C261 C263 1.387 . S
H262 C269 0.950 . S
C263 C261 1.387 . S
C263 C265 1.390 . S
C263 H267 0.950 . S
H264 C260 0.950 . S
C265 C263 1.390 . S
C265 C266 1.387 . S
C265 H268 0.950 . S
C266 C265 1.387 . S
C266 C269 1.387 . S
H267 C263 0.950 . S
H268 C265 0.950 . S
C269 C260 1.390 . S
C269 H262 0.950 . S
C269 C266 1.387 . S
C270 C271 1.387 . S
C270 H274 0.950 . S
C270 C279 1.398 . S
C271 C270 1.387 . S
C271 C273 1.387 . S
H272 C279 0.934 1_565 S
C273 C271 1.387 . S
C273 C275 1.390 . S
C273 H277 0.950 . S
H274 C270 0.950 . S
C275 C273 1.390 . S
C275 C276 1.387 . S
C275 H278 0.950 . S
C276 C275 1.387 . S
C276 C279 1.396 . S
H277 C273 0.950 . S
H278 C275 0.950 . S
C279 C270 1.398 . S
C279 H272 0.934 1_545 S
C279 C276 1.396 . S
C280 C281 1.387 . S
C280 H284 0.950 . S
C280 C289 1.390 . S
C281 C280 1.387 . S
C281 C283 1.387 . S
H282 C289 0.950 . S
C283 C281 1.387 . S
C283 C285 1.390 . S
C283 H287 0.950 . S
H284 C280 0.950 . S
C285 C283 1.390 . S
C285 C286 1.387 . S
C285 H288 0.950 . S
C286 C285 1.387 . S
C286 C289 1.387 . S
H287 C283 0.950 . S
H288 C285 0.950 . S
C289 C280 1.390 . S
C289 H282 0.950 . S
C289 C286 1.387 . S
C290 C291 1.387 . S
C290 H294 0.950 . S
C290 C299 1.390 . S
C291 C290 1.387 . S
C291 C293 1.387 . S
H292 C299 0.950 . S
C293 C291 1.387 . S
C293 C295 1.390 . S
C293 H297 0.950 . S
H294 C290 0.950 . S
C295 C293 1.390 . S
C295 C296 1.387 . S
C295 H298 0.950 . S
C296 C295 1.387 . S
C296 C299 1.387 . S
H297 C293 0.950 . S
H298 C295 0.950 . S
C299 C290 1.390 . S
C299 H292 0.950 . S
C299 C296 1.387 . S
C300 C301 1.387 1_554 S
C300 H304 0.950 . S
C300 C309 1.390 . S
C301 C300 1.387 1_556 S
C301 C303 1.387 . S
H302 C309 0.950 . S
C303 C301 1.387 . S
C303 C305 1.390 . S
C303 H307 0.950 . S
H304 C300 0.950 . S
C305 C303 1.390 . S
C305 C306 1.387 . S
C305 H308 0.950 . S
C306 C305 1.387 . S
C306 C309 1.387 1_556 S
H307 C303 0.950 . S
H308 C305 0.950 . S
C309 C300 1.390 . S
C309 H302 0.950 . S
C309 C306 1.387 1_554 S
C310 C311 1.387 . S
C310 H314 0.950 . S
C310 C319 1.390 . S
C311 C310 1.387 . S
C311 C313 1.387 . S
H312 C319 0.950 . S
C313 C311 1.387 . S
C313 C315 1.390 . S
C313 H317 0.950 . S
H314 C310 0.950 . S
C315 C313 1.390 . S
C315 C316 1.387 . S
C315 H318 0.950 . S
C316 C315 1.387 . S
C316 C319 1.387 . S
H317 C313 0.950 . S
H318 C315 0.950 . S
C319 C310 1.390 . S
C319 H312 0.950 . S
C319 C316 1.387 . S
C320 C321 1.387 . S
C320 H324 0.950 . S
C320 C329 1.390 . S
C321 C320 1.387 . S
C321 C323 1.387 . S
H322 C329 0.950 . S
C323 C321 1.387 . S
C323 C325 1.390 . S
C323 H327 0.950 . S
H324 C320 0.950 . S
C325 C323 1.390 . S
C325 C326 1.387 . S
C325 H328 0.950 . S
C326 C325 1.387 . S
C326 C329 1.387 . S
H327 C323 0.950 . S
H328 C325 0.950 . S
C329 C320 1.390 . S
C329 H322 0.950 . S
C329 C326 1.387 . S
C330 C331 1.387 . S
C330 H334 0.950 . S
C330 C339 1.390 . S
C331 C330 1.387 . S
C331 C333 1.387 . S
H332 C339 0.958 . S
C333 C331 1.387 . S
C333 C335 1.390 . S
C333 H337 0.950 . S
H334 C330 0.950 . S
C335 C333 1.390 . S
C335 C336 1.387 . S
C335 H338 0.950 . S
C336 C335 1.387 . S
C336 C339 1.387 . S
H337 C333 0.950 . S
H338 C335 0.950 . S
C339 C330 1.390 . S
C339 H332 0.958 . S
C339 C336 1.387 . S
C340 C341 1.387 . S
C340 H344 0.950 . S
C340 C349 1.390 . S
C341 C340 1.387 . S
C341 C343 1.387 . S
H342 C349 0.950 . S
C343 C341 1.387 . S
C343 C345 1.390 . S
C343 H347 0.949 1_655 S
H344 C340 0.950 . S
C345 C343 1.390 . S
C345 C346 1.387 . S
C345 H348 0.950 . S
C346 C345 1.387 . S
C346 C349 1.387 . S
H347 C343 0.949 1_455 S
H348 C345 0.950 . S
C349 C340 1.390 . S
C349 H342 0.950 . S
C349 C346 1.387 . S
C350 C351 1.387 . S
C350 H354 0.950 . S
C350 C359 1.390 . S
C351 C350 1.387 . S
C351 C353 1.387 . S
H352 C359 0.950 . S
C353 C351 1.387 . S
C353 C355 1.390 . S
C353 H357 0.950 . S
H354 C350 0.950 . S
C355 C353 1.390 . S
C355 C356 1.387 . S
C355 H358 0.950 . S
C356 C355 1.387 . S
C356 C359 1.387 . S
H357 C353 0.950 . S
H358 C355 0.950 . S
C359 C350 1.390 . S
C359 H352 0.950 . S
C359 C356 1.387 . S
C360 C361 1.387 . S
C360 H364 0.950 . S
C360 C369 1.390 . S
C361 C360 1.387 . S
C361 C363 1.387 . S
H362 C369 0.950 . S
C363 C361 1.387 . S
C363 C365 1.390 . S
C363 H367 0.950 . S
H364 C360 0.950 . S
C365 C363 1.390 . S
C365 C366 1.387 . S
C365 H368 0.950 . S
C366 C365 1.387 . S
C366 C369 1.387 . S
H367 C363 0.950 . S
H368 C365 0.950 . S
C369 C360 1.390 . S
C369 H362 0.950 . S
C369 C366 1.387 . S
C370 C371 1.387 . S
C370 H374 0.950 . S
C370 C379 1.390 . S
C371 C370 1.387 . S
C371 C373 1.387 . S
H372 C379 0.950 . S
C373 C371 1.387 . S
C373 C375 1.390 . S
C373 H377 0.950 . S
H374 C370 0.950 . S
C375 C373 1.390 . S
C375 C376 1.387 . S
C375 H378 0.950 . S
C376 C375 1.387 . S
C376 C379 1.387 . S
H377 C373 0.950 . S
H378 C375 0.950 . S
C379 C370 1.390 . S
C379 H372 0.950 . S
C379 C376 1.387 . S
C380 C381 1.387 . S
C380 H384 0.950 . S
C380 C389 1.390 . S
C381 C380 1.387 . S
C381 C383 1.387 . S
H382 C389 0.950 . S
C383 C381 1.387 . S
C383 C385 1.390 . S
C383 H387 0.950 . S
H384 C380 0.950 . S
C385 C383 1.390 . S
C385 C386 1.387 . S
C385 H388 0.950 . S
C386 C385 1.387 . S
C386 C389 1.387 . S
H387 C383 0.950 . S
H388 C385 0.950 . S
C389 C380 1.390 . S
C389 H382 0.950 . S
C389 C386 1.387 . S
C390 C391 1.387 . S
C390 H394 0.950 . S
C390 C399 1.390 . S
C391 C390 1.387 . S
C391 C393 1.387 . S
H392 C399 0.950 1_556 S
C393 C391 1.387 . S
C393 C395 1.390 1_554 S
C393 H397 0.950 . S
H394 C390 0.950 . S
C395 C393 1.390 1_556 S
C395 C396 1.387 . S
C395 H398 0.950 . S
C396 C395 1.387 . S
C396 C399 1.387 1_556 S
H397 C393 0.950 . S
H398 C395 0.950 . S
C399 C390 1.390 . S
C399 H392 0.950 1_554 S
C399 C396 1.387 1_554 S
C400 C401 1.387 . S
C400 H404 0.950 . S
C400 C409 1.390 . S
C401 C400 1.387 . S
C401 C403 1.387 . S
H402 C409 0.950 . S
C403 C401 1.387 . S
C403 C405 1.390 . S
C403 H407 0.950 . S
H404 C400 0.950 . S
C405 C403 1.390 . S
C405 C406 1.387 . S
C405 H408 0.950 . S
C406 C405 1.387 . S
C406 C409 1.387 . S
H407 C403 0.950 . S
H408 C405 0.950 . S
C409 C400 1.390 . S
C409 H402 0.950 . S
C409 C406 1.387 . S
C410 C411 1.387 1_556 S
C410 H414 0.950 1_556 S
C410 C419 1.390 . S
C411 C410 1.387 1_554 S
C411 C413 1.387 1_554 S
H412 C419 0.950 . S
C413 C411 1.387 1_556 S
C413 C415 1.390 . S
C413 H417 0.950 . S
H414 C410 0.950 1_554 S
C415 C413 1.390 . S
C415 C416 1.387 . S
C415 H418 0.950 . S
C416 C415 1.387 . S
C416 C419 1.387 . S
H417 C413 0.950 . S
H418 C415 0.950 . S
C419 C410 1.390 . S
C419 H412 0.950 . S
C419 C416 1.387 . S
C420 C421 1.387 . S
C420 H424 0.950 . S
C420 C429 1.390 . S
C421 C420 1.387 . S
C421 C423 1.387 . S
H422 C429 0.950 . S
C423 C421 1.387 . S
C423 C425 1.390 . S
C423 H427 0.950 . S
H424 C420 0.950 . S
C425 C423 1.390 . S
C425 C426 1.387 . S
C425 H428 0.950 . S
C426 C425 1.387 . S
C426 C429 1.387 . S
H427 C423 0.950 . S
H428 C425 0.950 . S
C429 C420 1.390 . S
C429 H422 0.950 . S
C429 C426 1.387 . S
C430 C431 1.387 . S
C430 H434 0.950 . S
C430 C439 1.390 . S
C431 C430 1.387 . S
C431 C433 1.387 . S
H432 C439 0.950 . S
C433 C431 1.387 . S
C433 C435 1.390 . S
C433 H437 0.950 . S
H434 C430 0.950 . S
C435 C433 1.390 . S
C435 C436 1.387 . S
C435 H438 0.950 . S
C436 C435 1.387 . S
C436 C439 1.387 . S
H437 C433 0.950 . S
H438 C435 0.950 . S
C439 C430 1.390 . S
C439 H432 0.950 . S
C439 C436 1.387 . S
C440 C441 1.387 . S
C440 H444 0.950 . S
C440 C449 1.390 . S
C441 C440 1.387 . S
C441 C443 1.387 . S
H442 C449 0.950 . S
C443 C441 1.387 . S
C443 C445 1.390 . S
C443 H447 0.950 . S
H444 C440 0.950 . S
C445 C443 1.390 . S
C445 C446 1.387 . S
C445 H448 0.950 . S
C446 C445 1.387 . S
C446 C449 1.387 . S
H447 C443 0.950 . S
H448 C445 0.950 . S
C449 C440 1.390 . S
C449 H442 0.950 . S
C449 C446 1.387 . S
C450 C451 1.387 . S
C450 H454 0.950 . S
C450 C459 1.390 1_545 S
C451 C450 1.387 . S
C451 C453 1.387 . S
H452 C459 0.950 . S
C453 C451 1.387 . S
C453 C455 1.390 1_545 S
C453 H457 0.950 . S
H454 C450 0.950 . S
C455 C453 1.390 1_565 S
C455 C456 1.387 . S
C455 H458 0.950 . S
C456 C455 1.387 . S
C456 C459 1.387 . S
H457 C453 0.950 . S
H458 C455 0.950 . S
C459 C450 1.390 1_565 S
C459 H452 0.950 . S
C459 C456 1.387 . S
C460 C461 1.387 . S
C460 H464 0.950 . S
C460 C469 1.390 . S
C461 C460 1.387 . S
C461 C463 1.387 . S
H462 C469 0.950 . S
C463 C461 1.387 . S
C463 C465 1.390 . S
C463 H467 0.950 . S
H464 C460 0.950 . S
C465 C463 1.390 . S
C465 C466 1.387 . S
C465 H468 0.950 . S
C466 C465 1.387 . S
C466 C469 1.387 . S
H467 C463 0.950 . S
H468 C465 0.950 . S
C469 C460 1.390 . S
C469 H462 0.950 . S
C469 C466 1.387 . S
C470 C471 1.387 1_565 S
C470 H474 0.950 . S
C470 C479 1.390 . S
C471 C470 1.387 1_545 S
C471 C473 1.387 . S
H472 C479 0.950 . S
C473 C471 1.387 . S
C473 C475 1.390 1_545 S
C473 H477 0.950 . S
H474 C470 0.950 . S
C475 C473 1.390 1_565 S
C475 C476 1.387 . S
C475 H478 0.950 . S
C476 C475 1.387 . S
C476 C479 1.387 . S
H477 C473 0.950 . S
H478 C475 0.950 . S
C479 C470 1.390 . S
C479 H472 0.950 . S
C479 C476 1.387 . S
C480 C481 1.387 . S
C480 H484 0.950 . S
C480 C489 1.390 . S
C481 C480 1.387 . S
C481 C483 1.387 . S
H482 C489 0.950 . S
C483 C481 1.387 . S
C483 C485 1.390 . S
C483 H487 0.950 . S
H484 C480 0.950 . S
C485 C483 1.390 . S
C485 C486 1.387 . S
C485 H488 0.950 . S
C486 C485 1.387 . S
C486 C489 1.387 . S
H487 C483 0.950 . S
H488 C485 0.950 . S
C489 C480 1.390 . S
C489 H482 0.950 . S
C489 C486 1.387 . S
C490 C491 1.387 . S
C490 H494 0.950 . S
C490 C499 1.390 . S
C491 C490 1.387 . S
C491 C493 1.387 . S
H492 C499 0.950 . S
C493 C491 1.387 . S
C493 C495 1.390 . S
C493 H497 0.950 . S
H494 C490 0.950 . S
C495 C493 1.390 . S
C495 C496 1.387 . S
C495 H498 0.950 . S
C496 C495 1.387 . S
C496 C499 1.387 . S
H497 C493 0.950 . S
H498 C495 0.950 . S
C499 C490 1.390 . S
C499 H492 0.950 . S
C499 C496 1.387 . S
C500 C501 1.387 . S
C500 H504 0.950 . S
C500 C509 1.390 . S
C501 C500 1.387 . S
C501 C503 1.387 . S
H502 C509 0.950 . S
C503 C501 1.387 . S
C503 C505 1.390 . S
C503 H507 0.950 . S
H504 C500 0.950 . S
C505 C503 1.390 . S
C505 C506 1.387 . S
C505 H508 0.950 . S
C506 C505 1.387 . S
C506 C509 1.387 . S
H507 C503 0.950 . S
H508 C505 0.950 . S
C509 C500 1.390 . S
C509 H502 0.950 . S
C509 C506 1.387 . S
C510 C511 1.387 . S
C510 H514 0.950 . S
C510 C519 1.390 . S
C511 C510 1.387 . S
C511 C513 1.387 . S
H512 C519 0.950 . S
C513 C511 1.387 . S
C513 C515 1.390 . S
C513 H517 0.950 . S
H514 C510 0.950 . S
C515 C513 1.390 . S
C515 C516 1.387 . S
C515 H518 0.950 . S
C516 C515 1.387 . S
C516 C519 1.387 . S
H517 C513 0.950 . S
H518 C515 0.950 . S
C519 C510 1.390 . S
C519 H512 0.950 . S
C519 C516 1.387 . S
C520 C521 1.387 . S
C520 H524 0.950 . S
C520 C529 1.390 . S
C521 C520 1.387 . S
C521 C523 1.387 . S
H522 C529 0.950 . S
C523 C521 1.387 . S
C523 C525 1.390 . S
C523 H527 0.950 . S
H524 C520 0.950 . S
C525 C523 1.390 . S
C525 C526 1.387 . S
C525 H528 0.950 . S
C526 C525 1.387 . S
C526 C529 1.387 . S
H527 C523 0.950 . S
H528 C525 0.950 . S
C529 C520 1.390 . S
C529 H522 0.950 . S
C529 C526 1.387 . S
C530 C531 1.387 . S
C530 H534 0.950 . S
C530 C539 1.390 . S
C531 C530 1.387 . S
C531 C533 1.387 . S
H532 C539 0.950 . S
C533 C531 1.387 . S
C533 C535 1.390 . S
C533 H537 0.950 . S
H534 C530 0.950 . S
C535 C533 1.390 . S
C535 C536 1.387 . S
C535 H538 0.950 . S
C536 C535 1.387 . S
C536 C539 1.387 . S
H537 C533 0.950 . S
H538 C535 0.950 . S
C539 C530 1.390 . S
C539 H532 0.950 . S
C539 C536 1.387 . S
C540 C541 1.387 . S
C540 H544 0.950 . S
C540 C549 1.390 1_455 S
C541 C540 1.387 . S
C541 C543 1.387 . S
H542 C549 0.950 . S
C543 C541 1.387 . S
C543 C545 1.390 1_455 S
C543 H547 0.950 . S
H544 C540 0.950 . S
C545 C543 1.390 1_655 S
C545 C546 1.387 . S
C545 H548 0.950 . S
C546 C545 1.387 . S
C546 C549 1.387 . S
H547 C543 0.950 . S
H548 C545 0.950 . S
C549 C540 1.390 1_655 S
C549 H542 0.950 . S
C549 C546 1.387 . S
C550 C551 1.387 . S
C550 H554 0.950 . S
C550 C559 1.390 . S
C551 C550 1.387 . S
C551 C553 1.387 . S
H552 C559 0.950 . S
C553 C551 1.387 . S
C553 C555 1.390 . S
C553 H557 0.950 . S
H554 C550 0.950 . S
C555 C553 1.390 . S
C555 C556 1.387 . S
C555 H558 0.950 . S
C556 C555 1.387 . S
C556 C559 1.387 . S
H557 C553 0.950 . S
H558 C555 0.950 . S
C559 C550 1.390 . S
C559 H552 0.950 . S
C559 C556 1.387 . S
C560 C561 1.387 . S
C560 H564 0.950 . S
C560 C569 1.390 . S
C561 C560 1.387 . S
C561 C563 1.387 . S
H562 C569 0.950 . S
C563 C561 1.387 . S
C563 C565 1.390 . S
C563 H567 0.950 . S
H564 C560 0.950 . S
C565 C563 1.390 . S
C565 C566 1.387 . S
C565 H568 0.950 . S
C566 C565 1.387 . S
C566 C569 1.387 . S
H567 C563 0.950 . S
H568 C565 0.950 . S
C569 C560 1.390 . S
C569 H562 0.950 . S
C569 C566 1.387 . S
C570 C571 1.387 . S
C570 H574 0.950 . S
C570 C579 1.390 . S
C571 C570 1.387 . S
C571 C573 1.387 . S
H572 C579 0.950 . S
C573 C571 1.387 . S
C573 C575 1.390 . S
C573 H577 0.950 . S
H574 C570 0.950 . S
C575 C573 1.390 . S
C575 C576 1.387 . S
C575 H578 0.950 . S
C576 C575 1.387 . S
C576 C579 1.387 . S
H577 C573 0.950 . S
H578 C575 0.950 . S
C579 C570 1.390 . S
C579 H572 0.950 . S
C579 C576 1.387 . S
C580 C581 1.387 . S
C580 H584 0.950 . S
C580 C589 1.390 . S
C581 C580 1.387 . S
C581 C583 1.387 . S
H582 C589 0.950 . S
C583 C581 1.387 . S
C583 C585 1.390 . S
C583 H587 0.950 . S
H584 C580 0.950 . S
C585 C583 1.390 . S
C585 C586 1.387 . S
C585 H588 0.950 . S
C586 C585 1.387 . S
C586 C589 1.387 . S
H587 C583 0.950 . S
H588 C585 0.950 . S
C589 C580 1.390 . S
C589 H582 0.950 . S
C589 C586 1.387 . S
C590 C591 1.387 . S
C590 H594 0.950 . S
C590 C599 1.390 . S
C591 C590 1.387 . S
C591 C593 1.387 . S
H592 C599 0.950 . S
C593 C591 1.387 . S
C593 C595 1.390 . S
C593 H597 0.950 . S
H594 C590 0.950 . S
C595 C593 1.390 . S
C595 C596 1.387 . S
C595 H598 0.950 . S
C596 C595 1.387 . S
C596 C599 1.387 . S
H597 C593 0.950 . S
H598 C595 0.950 . S
C599 C590 1.390 . S
C599 H592 0.950 . S
C599 C596 1.387 . S
C241 C2 1.024 . S
C246 C222 1.045 . S
C251 C199 1.429 . S
C256 C22 1.314 . S
C261 C42 1.488 1_554 S
C266 C179 1.683 . S
C271 C79 1.983 . S
C276 C219 2.019 1_545 S
C281 C99 1.684 . S
C286 C202 1.498 . S
C291 C119 1.970 . S
C296 C239 1.928 . S
C301 C182 1.459 . S
C306 C139 1.686 . S
C311 C159 1.453 . S
C316 C162 1.306 . S
C321 C62 1.093 . S
C326 C82 1.055 . S
C331 C19 1.601 . S
C336 C102 1.455 . S
C341 C39 1.668 . S
C346 C122 1.452 . S
C351 C142 1.462 . S
C356 C59 1.692 . S
C361 C9 1.741 . S
C366 C178 1.813 . S
C371 C29 1.850 . S
C376 C218 1.887 . S
C381 C224 1.431 . S
C386 C49 1.399 . S
C391 C72 1.495 . S
C396 C198 1.583 . S
C401 C92 1.109 . S
C406 C184 1.236 . S
C411 C164 1.499 . S
C416 C112 1.349 . S
C421 C204 1.710 . S
C426 C132 1.586 . S
C431 C238 1.655 . S
C436 C152 1.494 . S
C441 C18 1.642 . S
C446 C69 1.610 . S
C451 C12 1.604 . S
C456 C38 1.692 . S
C461 C32 1.716 . S
C466 C58 1.773 . S
C471 C64 1.633 . S
C476 C52 1.540 . S
C481 C109 1.233 . S
C486 C84 1.329 . S
C491 C104 1.539 . S
C496 C129 1.462 . S
C501 C124 1.109 . S
C506 C149 1.110 . S
C511 C89 1.273 . S
C516 C144 1.385 . S
C521 C169 1.702 . S
C526 C78 1.754 . S
C531 C118 1.717 . S
C536 C192 1.594 . S
C541 C172 1.528 . S
C546 C138 1.611 . S
C551 C212 1.645 . S
C556 C158 1.794 . S
C561 C98 1.322 . S
C566 C229 1.251 . S
C571 C232 1.251 . S
C576 C24 1.281 . S
C581 C44 1.208 . S
C586 C189 1.263 . S
C591 C209 1.496 . S
C596 C4 1.502 1_655 S
