# Generated by pormake.
# Topology wlb, (5)-cn, num edge types: 1
# Building blocks:
#     Node 0, Type 0, BuildingBlock: BEQFEK_clean_sbu_0, # of connection points: 5
#     Node 1, Type 0, BuildingBlock: BEQFEK_clean_sbu_0, # of connection points: 5
#     Node 2, Type 0, BuildingBlock: BEQFEK_clean_sbu_0, # of connection points: 5
#     Node 3, Type 0, BuildingBlock: BEQFEK_clean_sbu_0, # of connection points: 5
#     Node 4, Type 0, BuildingBlock: BEQFEK_clean_sbu_0, # of connection points: 5
#     Node 5, Type 0, BuildingBlock: BEQFEK_clean_sbu_0, # of connection points: 5
#     Node 6, Type 0, BuildingBlock: BEQFEK_clean_sbu_0, # of connection points: 5
#     Node 7, Type 0, BuildingBlock: BEQFEK_clean_sbu_0, # of connection points: 5
#     Node 8, Type 0, BuildingBlock: BEQFEK_clean_sbu_0, # of connection points: 5
#     Node 9, Type 0, BuildingBlock: BEQFEK_clean_sbu_0, # of connection points: 5
#     Node 10, Type 0, BuildingBlock: BEQFEK_clean_sbu_0, # of connection points: 5
#     Node 11, Type 0, BuildingBlock: BEQFEK_clean_sbu_0, # of connection points: 5
#     Node 12, Type 0, BuildingBlock: BEQFEK_clean_sbu_0, # of connection points: 5
#     Node 13, Type 0, BuildingBlock: BEQFEK_clean_sbu_0, # of connection points: 5
#     Node 14, Type 0, BuildingBlock: BEQFEK_clean_sbu_0, # of connection points: 5
#     Node 15, Type 0, BuildingBlock: BEQFEK_clean_sbu_0, # of connection points: 5
#     Node 16, Type 0, BuildingBlock: BEQFEK_clean_sbu_0, # of connection points: 5
#     Node 17, Type 0, BuildingBlock: BEQFEK_clean_sbu_0, # of connection points: 5
#     Edge 18, Type (0, 0), BuildingBlock: UVAHIK_clean_linker_0, # of connection points: 2
#     Edge 19, Type (0, 0), BuildingBlock: UVAHIK_clean_linker_0, # of connection points: 2
#     Edge 20, Type (0, 0), BuildingBlock: UVAHIK_clean_linker_0, # of connection points: 2
#     Edge 21, Type (0, 0), BuildingBlock: UVAHIK_clean_linker_0, # of connection points: 2
#     Edge 22, Type (0, 0), BuildingBlock: UVAHIK_clean_linker_0, # of connection points: 2
#     Edge 23, Type (0, 0), BuildingBlock: UVAHIK_clean_linker_0, # of connection points: 2
#     Edge 24, Type (0, 0), BuildingBlock: UVAHIK_clean_linker_0, # of connection points: 2
#     Edge 25, Type (0, 0), BuildingBlock: UVAHIK_clean_linker_0, # of connection points: 2
#     Edge 26, Type (0, 0), BuildingBlock: UVAHIK_clean_linker_0, # of connection points: 2
#     Edge 27, Type (0, 0), BuildingBlock: UVAHIK_clean_linker_0, # of connection points: 2
#     Edge 28, Type (0, 0), BuildingBlock: UVAHIK_clean_linker_0, # of connection points: 2
#     Edge 29, Type (0, 0), BuildingBlock: UVAHIK_clean_linker_0, # of connection points: 2
#     Edge 30, Type (0, 0), BuildingBlock: UVAHIK_clean_linker_0, # of connection points: 2
#     Edge 31, Type (0, 0), BuildingBlock: UVAHIK_clean_linker_0, # of connection points: 2
#     Edge 32, Type (0, 0), BuildingBlock: UVAHIK_clean_linker_0, # of connection points: 2
#     Edge 33, Type (0, 0), BuildingBlock: UVAHIK_clean_linker_0, # of connection points: 2
#     Edge 34, Type (0, 0), BuildingBlock: UVAHIK_clean_linker_0, # of connection points: 2
#     Edge 35, Type (0, 0), BuildingBlock: UVAHIK_clean_linker_0, # of connection points: 2
#     Edge 36, Type (0, 0), BuildingBlock: UVAHIK_clean_linker_0, # of connection points: 2
#     Edge 37, Type (0, 0), BuildingBlock: UVAHIK_clean_linker_0, # of connection points: 2
#     Edge 38, Type (0, 0), BuildingBlock: UVAHIK_clean_linker_0, # of connection points: 2
#     Edge 39, Type (0, 0), BuildingBlock: UVAHIK_clean_linker_0, # of connection points: 2
#     Edge 40, Type (0, 0), BuildingBlock: UVAHIK_clean_linker_0, # of connection points: 2
#     Edge 41, Type (0, 0), BuildingBlock: UVAHIK_clean_linker_0, # of connection points: 2
#     Edge 42, Type (0, 0), BuildingBlock: UVAHIK_clean_linker_0, # of connection points: 2
#     Edge 43, Type (0, 0), BuildingBlock: UVAHIK_clean_linker_0, # of connection points: 2
#     Edge 44, Type (0, 0), BuildingBlock: UVAHIK_clean_linker_0, # of connection points: 2
#     Edge 45, Type (0, 0), BuildingBlock: UVAHIK_clean_linker_0, # of connection points: 2
#     Edge 46, Type (0, 0), BuildingBlock: UVAHIK_clean_linker_0, # of connection points: 2
#     Edge 47, Type (0, 0), BuildingBlock: UVAHIK_clean_linker_0, # of connection points: 2
#     Edge 48, Type (0, 0), BuildingBlock: UVAHIK_clean_linker_0, # of connection points: 2
#     Edge 49, Type (0, 0), BuildingBlock: UVAHIK_clean_linker_0, # of connection points: 2
#     Edge 50, Type (0, 0), BuildingBlock: UVAHIK_clean_linker_0, # of connection points: 2
#     Edge 51, Type (0, 0), BuildingBlock: UVAHIK_clean_linker_0, # of connection points: 2
#     Edge 52, Type (0, 0), BuildingBlock: UVAHIK_clean_linker_0, # of connection points: 2
#     Edge 53, Type (0, 0), BuildingBlock: UVAHIK_clean_linker_0, # of connection points: 2
#     Edge 54, Type (0, 0), BuildingBlock: UVAHIK_clean_linker_0, # of connection points: 2
#     Edge 55, Type (0, 0), BuildingBlock: UVAHIK_clean_linker_0, # of connection points: 2
#     Edge 56, Type (0, 0), BuildingBlock: UVAHIK_clean_linker_0, # of connection points: 2
#     Edge 57, Type (0, 0), BuildingBlock: UVAHIK_clean_linker_0, # of connection points: 2
#     Edge 58, Type (0, 0), BuildingBlock: UVAHIK_clean_linker_0, # of connection points: 2
#     Edge 59, Type (0, 0), BuildingBlock: UVAHIK_clean_linker_0, # of connection points: 2
#     Edge 60, Type (0, 0), BuildingBlock: UVAHIK_clean_linker_0, # of connection points: 2
#     Edge 61, Type (0, 0), BuildingBlock: UVAHIK_clean_linker_0, # of connection points: 2
#     Edge 62, Type (0, 0), BuildingBlock: UVAHIK_clean_linker_0, # of connection points: 2
# Relax obj value: 0.365
# Max RMSD: 0.213
# Mean RMSD: 0.213
data_MOF--net-wlb--node1-BEQFEK_clean_sbu_0--edge1-UVAHIK_clean_linker_0
_symmetry_space_group_name_H-M    P1
_symmetry_Int_Tables_number       1
_symmetry_cell_setting            triclinic
loop_
_symmetry_equiv_pos_as_xyz
'x, y, z'
_cell_length_a     65.864868
_cell_length_b     65.838861
_cell_length_c     48.868661
_cell_angle_alpha  90.040049
_cell_angle_beta   89.987887
_cell_angle_gamma 119.97985
loop_
_atom_site_label
_atom_site_type_symbol
_atom_site_fract_x
_atom_site_fract_y
_atom_site_fract_z
_atom_type_partial_charge
Co0 Co 0.06068 0.18415 0.19439 0.0
Co1 Co 0.03514 0.2129 0.1984 0.0
C2 C 0.04622 0.19803 0.14379 0.0
O3 O 0.05736 0.18865 0.15414 0.0
O4 O 0.03767 0.2075 0.15909 0.0
C5 C 0.06592 0.14499 0.19184 0.0
O6 O 0.04567 0.1373 0.17944 0.0
C7 C 0.04014 0.25736 0.1858 0.0
C8 C 0.01114 0.25783 0.2079 0.0
C9 C 0.03032 0.27129 0.19114 0.0
N10 N 0.02747 0.23686 0.19881 0.0
N11 N 0.01008 0.23709 0.21195 0.0
C12 C 0.06219 0.26367 0.1704 0.0
H13 H 0.06976 0.25283 0.17725 0.0
H14 H 0.07532 0.2825 0.17319 0.0
H15 H 0.05805 0.26011 0.1483 0.0
C16 C 0.09459 0.22291 0.23149 0.0
N17 N 0.07525 0.21234 0.2155 0.0
N18 N 0.06351 0.22352 0.21816 0.0
C19 C 0.07481 0.24138 0.23595 0.0
C20 C 0.09507 0.2419 0.24477 0.0
C21 C 0.11184 0.21459 0.23445 0.0
H22 H 0.10441 0.19921 0.24834 0.0
H23 H 0.11493 0.20889 0.21427 0.0
H24 H 0.12866 0.22854 0.2431 0.0
O25 O 0.02833 0.16312 0.20837 0.0
O26 O 0.00949 0.18304 0.21288 0.0
H27 H 0.0459 0.2458 0.2481 0.0
H28 H 0.07249 0.26352 0.26709 0.0
C29 C 0.06525 0.25627 0.24658 0.0
H30 H 0.07013 0.27114 0.23239 0.0
H31 H -0.00227 0.22327 0.22386 0.0
O32 O 0.07717 0.16626 0.19956 0.0
C33 C 0.01 0.16399 0.21468 0.0
Co34 Co 0.80476 0.88366 0.1911 0.0
Co35 Co 0.78974 0.8334 0.21171 0.0
C36 C 0.79296 0.84545 0.15086 0.0
O37 O 0.79833 0.86668 0.15535 0.0
O38 O 0.78897 0.83129 0.17066 0.0
C39 C 0.83058 0.92945 0.16999 0.0
O40 O 0.83866 0.91903 0.15401 0.0
C41 C 0.75356 0.78581 0.22308 0.0
C42 C 0.76952 0.77544 0.25609 0.0
C43 C 0.74876 0.76833 0.24203 0.0
N44 N 0.77583 0.80288 0.22656 0.0
N45 N 0.78545 0.79646 0.24595 0.0
C46 C 0.73749 0.78652 0.20188 0.0
H47 H 0.74766 0.79657 0.18376 0.0
H48 H 0.72841 0.7955 0.21028 0.0
H49 H 0.72412 0.76852 0.19553 0.0
C50 C 0.7659 0.87679 0.2288 0.0
N51 N 0.77929 0.86927 0.21631 0.0
N52 N 0.77403 0.84869 0.22633 0.0
C53 C 0.75779 0.8429 0.24622 0.0
C54 C 0.75176 0.8602 0.24805 0.0
C55 C 0.7673 0.89974 0.22305 0.0
H56 H 0.78393 0.91408 0.23161 0.0
H57 H 0.7676 0.90245 0.20061 0.0
H58 H 0.75234 0.90054 0.23238 0.0
O59 O 0.8337 0.885 0.20586 0.0
O60 O 0.82278 0.84971 0.22246 0.0
H61 H 0.76421 0.81886 0.26927 0.0
H62 H 0.74434 0.82646 0.28539 0.0
C63 C 0.74987 0.82265 0.2655 0.0
H64 H 0.73454 0.807 0.25674 0.0
H65 H 0.80253 0.80691 0.25316 0.0
O66 O 0.81406 0.91705 0.18647 0.0
C67 C 0.8386 0.8707 0.2176 0.0
Co68 Co 0.11388 0.92349 0.19519 0.0
Co69 Co 0.16486 0.95658 0.21484 0.0
C70 C 0.15108 0.94932 0.15425 0.0
O71 O 0.12992 0.93361 0.15904 0.0
O72 O 0.16564 0.95895 0.17382 0.0
C73 C 0.07041 0.91179 0.17663 0.0
O74 O 0.08416 0.93143 0.16361 0.0
C75 C 0.21138 0.96378 0.22221 0.0
C76 C 0.2253 0.98959 0.25596 0.0
C77 C 0.22993 0.97476 0.24038 0.0
N78 N 0.19604 0.97098 0.22767 0.0
N79 N 0.20462 0.98678 0.24744 0.0
C80 C 0.20787 0.94648 0.20017 0.0
H81 H 0.19795 0.9482 0.18288 0.0
H82 H 0.19747 0.92839 0.20826 0.0
H83 H 0.22495 0.94919 0.19264 0.0
C84 C 0.11897 0.88957 0.23144 0.0
N85 N 0.12739 0.91059 0.21899 0.0
N86 N 0.14829 0.92519 0.22887 0.0
C87 C 0.15337 0.9142 0.2488 0.0
C88 C 0.13517 0.89118 0.25085 0.0
C89 C 0.09507 0.8691 0.22644 0.0
H90 H 0.08189 0.87252 0.23631 0.0
H91 H 0.09138 0.86709 0.20414 0.0
H92 H 0.09338 0.85271 0.23498 0.0
O93 O 0.11515 0.95163 0.21217 0.0
O94 O 0.15086 0.9749 0.22829 0.0
H95 H 0.17949 0.94414 0.27085 0.0
H96 H 0.17213 0.91666 0.28641 0.0
C97 C 0.17474 0.92577 0.26663 0.0
H98 H 0.18946 0.92541 0.2562 0.0
H99 H 0.19579 0.99467 0.2561 0.0
O100 O 0.0798 0.90242 0.19066 0.0
C101 C 0.12991 0.97032 0.2244 0.0
Co102 Co 0.18631 0.06831 0.83505 0.0
Co103 Co 0.21326 0.04121 0.82806 0.0
C104 C 0.20082 0.05281 0.88406 0.0
O105 O 0.19203 0.06483 0.87477 0.0
O106 O 0.20894 0.04352 0.86782 0.0
C107 C 0.14833 0.07462 0.84145 0.0
O108 O 0.14153 0.05475 0.85438 0.0
C109 C 0.25731 0.04506 0.83928 0.0
C110 C 0.25746 0.01668 0.81538 0.0
C111 C 0.27105 0.0353 0.83281 0.0
N112 N 0.23672 0.03289 0.82631 0.0
N113 N 0.23674 0.01584 0.8121 0.0
C114 C 0.26401 0.06679 0.85562 0.0
H115 H 0.25354 0.07492 0.84933 0.0
H116 H 0.28293 0.07969 0.85316 0.0
H117 H 0.2603 0.06206 0.87757 0.0
C118 C 0.22487 0.10213 0.79765 0.0
N119 N 0.21387 0.08238 0.81293 0.0
N120 N 0.22426 0.07 0.80903 0.0
C121 C 0.24199 0.08127 0.79109 0.0
C122 C 0.24328 0.10217 0.78352 0.0
C123 C 0.21765 0.12031 0.79641 0.0
H124 H 0.20228 0.11406 0.78262 0.0
H125 H 0.21227 0.12291 0.81705 0.0
H126 H 0.23206 0.13718 0.78847 0.0
O127 O 0.16418 0.03608 0.82127 0.0
O128 O 0.18282 0.01633 0.81375 0.0
H129 H 0.24525 0.05206 0.77722 0.0
H130 H 0.26345 0.07901 0.75906 0.0
C131 C 0.25621 0.07133 0.77941 0.0
H132 H 0.27108 0.07542 0.79331 0.0
H133 H 0.22285 0.00396 0.79993 0.0
O134 O 0.16892 0.08549 0.83161 0.0
C135 C 0.16406 0.01748 0.81369 0.0
Co136 Co 0.91833 0.10901 0.82995 0.0
Co137 Co 0.94958 0.16107 0.81387 0.0
C138 C 0.94183 0.1437 0.87341 0.0
O139 O 0.92632 0.12268 0.86767 0.0
O140 O 0.95137 0.15887 0.85449 0.0
C141 C 0.90922 0.06566 0.84529 0.0
O142 O 0.92892 0.07987 0.85795 0.0
C143 C 0.95158 0.20512 0.81692 0.0
C144 C 0.98374 0.22951 0.79446 0.0
C145 C 0.96512 0.22822 0.80918 0.0
N146 N 0.96133 0.19308 0.80683 0.0
N147 N 0.98047 0.20761 0.79317 0.0
C148 C 0.93081 0.19492 0.83568 0.0
H149 H 0.92515 0.17645 0.8408 0.0
H150 H 0.91601 0.19549 0.82564 0.0
H151 H 0.93516 0.20551 0.85471 0.0
C152 C 0.88421 0.11377 0.79335 0.0
N153 N 0.90476 0.12238 0.80697 0.0
N154 N 0.91883 0.14405 0.79894 0.0
C155 C 0.90802 0.14971 0.77946 0.0
C156 C 0.88563 0.13088 0.77544 0.0
C157 C 0.86458 0.08904 0.79562 0.0
H158 H 0.86233 0.08328 0.8173 0.0
H159 H 0.84799 0.08723 0.78757 0.0
H160 H 0.86907 0.07752 0.78361 0.0
O161 O 0.94822 0.11397 0.81351 0.0
O162 O 0.97021 0.15038 0.79854 0.0
H163 H 0.9109 0.17047 0.74365 0.0
H164 H 0.91755 0.18573 0.77558 0.0
C165 C 0.91934 0.17232 0.76382 0.0
H166 H 0.93821 0.1785 0.76066 0.0
H167 H 0.99159 0.20273 0.78369 0.0
O168 O 0.89895 0.07451 0.83198 0.0
C169 C 0.96678 0.12974 0.80193 0.0
Co170 Co 0.88546 0.80186 0.84274 0.0
Co171 Co 0.83353 0.78265 0.82561 0.0
C172 C 0.849 0.78874 0.88553 0.0
O173 O 0.87035 0.79535 0.87984 0.0
O174 O 0.83386 0.78336 0.86655 0.0
C175 C 0.93102 0.83518 0.85573 0.0
O176 O 0.919 0.84386 0.86736 0.0
C177 C 0.78721 0.74305 0.8216 0.0
C178 C 0.77163 0.75275 0.78752 0.0
C179 C 0.76783 0.73439 0.80462 0.0
N180 N 0.802 0.76531 0.81443 0.0
N181 N 0.79244 0.77128 0.79451 0.0
C182 C 0.79339 0.72964 0.84143 0.0
H183 H 0.8126 0.73867 0.84478 0.0
H184 H 0.78711 0.71155 0.83393 0.0
H185 H 0.78482 0.72857 0.86134 0.0
C186 C 0.87994 0.76335 0.80495 0.0
N187 N 0.87158 0.77557 0.8185 0.0
N188 N 0.85013 0.76859 0.81003 0.0
C189 C 0.84446 0.75228 0.79026 0.0
C190 C 0.86295 0.74816 0.78661 0.0
C191 C 0.90422 0.76736 0.80819 0.0
H192 H 0.9088 0.76893 0.83024 0.0
H193 H 0.90593 0.75294 0.79874 0.0
H194 H 0.91673 0.78415 0.79816 0.0
O195 O 0.88275 0.82851 0.82738 0.0
O196 O 0.84635 0.81503 0.81302 0.0
H197 H 0.82421 0.73423 0.75422 0.0
H198 H 0.80811 0.72711 0.78553 0.0
C199 C 0.82232 0.74164 0.77379 0.0
H200 H 0.81736 0.75504 0.7692 0.0
H201 H 0.80077 0.78746 0.78454 0.0
O202 O 0.91988 0.81485 0.84514 0.0
C203 C 0.86713 0.83188 0.81644 0.0
Co204 Co 0.73393 0.51577 0.5335 0.0
Co205 Co 0.70961 0.54585 0.53426 0.0
C206 C 0.71726 0.52607 0.48154 0.0
O207 O 0.72798 0.51678 0.49319 0.0
O208 O 0.71018 0.53773 0.49532 0.0
C209 C 0.73911 0.47637 0.53518 0.0
O210 O 0.71767 0.46727 0.52561 0.0
C211 C 0.71223 0.58894 0.51844 0.0
C212 C 0.68395 0.58946 0.54214 0.0
C213 C 0.70163 0.60224 0.52333 0.0
N214 N 0.70135 0.5694 0.53361 0.0
N215 N 0.68444 0.56971 0.54777 0.0
C216 C 0.7333 0.59502 0.50119 0.0
H217 H 0.74252 0.58594 0.50883 0.0
H218 H 0.74552 0.61424 0.5011 0.0
H219 H 0.72758 0.58901 0.4799 0.0
C220 C 0.7692 0.55633 0.56725 0.0
N221 N 0.74979 0.54556 0.55141 0.0
N222 N 0.73886 0.55765 0.55242 0.0
C223 C 0.75084 0.57638 0.56892 0.0
C224 C 0.77064 0.57641 0.5787 0.0
C225 C 0.78534 0.54691 0.57227 0.0
H226 H 0.77684 0.53192 0.58667 0.0
H227 H 0.78861 0.54033 0.55281 0.0
H228 H 0.80223 0.56053 0.58116 0.0
O229 O 0.70257 0.49622 0.5504 0.0
O230 O 0.68469 0.51719 0.55212 0.0
H231 H 0.72272 0.58199 0.58115 0.0
H232 H 0.75025 0.60133 0.59746 0.0
C233 C 0.74193 0.59225 0.57804 0.0
H234 H 0.74586 0.60567 0.56207 0.0
H235 H 0.67334 0.55651 0.56126 0.0
O236 O 0.75086 0.49833 0.53948 0.0
C237 C 0.68478 0.49816 0.55643 0.0
Co238 Co 0.47382 0.22169 0.52624 0.0
Co239 Co 0.45522 0.16924 0.54067 0.0
C240 C 0.46228 0.18675 0.48173 0.0
O241 O 0.46882 0.20785 0.48868 0.0
O242 O 0.4562 0.17069 0.4997 0.0
C243 C 0.50608 0.26812 0.5154 0.0
O244 O 0.51603 0.25727 0.50383 0.0
C245 C 0.41648 0.12189 0.54581 0.0
C246 C 0.42921 0.10721 0.57778 0.0
C247 C 0.40952 0.10262 0.56274 0.0
N248 N 0.4389 0.13749 0.55152 0.0
N249 N 0.44661 0.12848 0.57019 0.0
C250 C 0.40232 0.12577 0.52465 0.0
H251 H 0.4138 0.13681 0.50782 0.0
H252 H 0.39399 0.13518 0.53393 0.0
H253 H 0.38844 0.10883 0.51617 0.0
C254 C 0.43445 0.21406 0.56351 0.0
N255 N 0.44708 0.2064 0.54956 0.0
N256 N 0.44051 0.18485 0.55727 0.0
C257 C 0.42418 0.17849 0.57717 0.0
C258 C 0.4195 0.19657 0.58148 0.0
C259 C 0.43804 0.23827 0.56123 0.0
H260 H 0.45479 0.25076 0.57137 0.0
H261 H 0.43946 0.24331 0.53935 0.0
H262 H 0.42352 0.23951 0.57109 0.0
O263 O 0.50076 0.2196 0.54162 0.0
O264 O 0.48777 0.1826 0.55307 0.0
H265 H 0.42798 0.15139 0.5968 0.0
H266 H 0.40759 0.15789 0.61351 0.0
C267 C 0.41433 0.15623 0.59336 0.0
H268 H 0.39943 0.142 0.58211 0.0
H269 H 0.46335 0.13735 0.5788 0.0
O270 O 0.48554 0.2559 0.52509 0.0
C271 C 0.50437 0.20368 0.55113 0.0
Co272 Co 0.78144 0.25685 0.52346 0.0
Co273 Co 0.83424 0.28533 0.53897 0.0
C274 C 0.81703 0.28107 0.47999 0.0
O275 O 0.79569 0.26694 0.48625 0.0
O276 O 0.83292 0.28905 0.49835 0.0
C277 C 0.73812 0.2495 0.50975 0.0
O278 O 0.75236 0.27013 0.49901 0.0
C279 C 0.87807 0.2859 0.53989 0.0
C280 C 0.89638 0.3087 0.57525 0.0
C281 C 0.89736 0.2931 0.55692 0.0
N282 N 0.86574 0.29579 0.54871 0.0
N283 N 0.87698 0.30982 0.56946 0.0
C284 C 0.87077 0.26943 0.51601 0.0
H285 H 0.86018 0.27313 0.50144 0.0
H286 H 0.85975 0.25115 0.52331 0.0
H287 H 0.8863 0.27105 0.50514 0.0
C288 C 0.78421 0.21973 0.556 0.0
N289 N 0.79384 0.24109 0.54406 0.0
N290 N 0.81587 0.25364 0.55171 0.0
C291 C 0.82076 0.24077 0.56921 0.0
C292 C 0.80115 0.21877 0.57205 0.0
C293 C 0.75908 0.20118 0.5531 0.0
H294 H 0.74813 0.20613 0.56556 0.0
H295 H 0.75356 0.20001 0.53143 0.0
H296 H 0.75618 0.1839 0.56015 0.0
O297 O 0.78685 0.28551 0.5433 0.0
O298 O 0.82404 0.30585 0.55622 0.0
H299 H 0.84894 0.26866 0.59168 0.0
H300 H 0.83902 0.24006 0.60569 0.0
C301 C 0.84246 0.2501 0.58636 0.0
H302 H 0.85609 0.2484 0.57499 0.0
H303 H 0.87067 0.319 0.5807 0.0
O304 O 0.74692 0.23817 0.52077 0.0
C305 C 0.80356 0.30322 0.55513 0.0
Co306 Co 0.85331 0.41511 0.17051 0.0
Co307 Co 0.87322 0.38297 0.15304 0.0
C308 C 0.86658 0.39127 0.21292 0.0
O309 O 0.85954 0.40569 0.20728 0.0
O310 O 0.87247 0.38192 0.19393 0.0
C311 C 0.8201 0.42697 0.18454 0.0
O312 O 0.81168 0.40612 0.19568 0.0
C313 C 0.91162 0.37371 0.14655 0.0
C314 C 0.8999 0.34983 0.11086 0.0
C315 C 0.91893 0.36285 0.12783 0.0
N316 N 0.88969 0.36825 0.14004 0.0
N317 N 0.88255 0.35354 0.11914 0.0
C318 C 0.9251 0.38922 0.17008 0.0
H319 H 0.91312 0.38657 0.18734 0.0
H320 H 0.93336 0.40786 0.16379 0.0
H321 H 0.93894 0.38551 0.1771 0.0
C322 C 0.89136 0.44854 0.13285 0.0
N323 N 0.87974 0.42798 0.14652 0.0
N324 N 0.88736 0.41397 0.1382 0.0
C325 C 0.90367 0.42497 0.11851 0.0
C326 C 0.90687 0.44727 0.11452 0.0
C327 C 0.88612 0.46806 0.13564 0.0
H328 H 0.86847 0.46233 0.12703 0.0
H329 H 0.8857 0.47205 0.15763 0.0
H330 H 0.89925 0.48405 0.12472 0.0
O331 O 0.82672 0.38645 0.15398 0.0
O332 O 0.84075 0.36383 0.1403 0.0
H333 H 0.90242 0.39634 0.09616 0.0
H334 H 0.9254 0.42459 0.08506 0.0
C335 C 0.91557 0.41416 0.10308 0.0
H336 H 0.92841 0.41305 0.11663 0.0
H337 H 0.86629 0.34704 0.1096 0.0
O338 O 0.84042 0.43653 0.17392 0.0
C339 C 0.82376 0.36765 0.14294 0.0
Co340 Co 0.58265 0.43792 0.16864 0.0
Co341 Co 0.60842 0.49257 0.16877 0.0
C342 C 0.5987 0.46466 0.22118 0.0
O343 O 0.58807 0.44474 0.20927 0.0
O344 O 0.60639 0.48352 0.20755 0.0
C345 C 0.57513 0.39206 0.16374 0.0
O346 O 0.59743 0.40331 0.1704 0.0
C347 C 0.60865 0.53444 0.18519 0.0
C348 C 0.63715 0.56222 0.16066 0.0
C349 C 0.62025 0.55834 0.18019 0.0
N350 N 0.61819 0.52476 0.16938 0.0
N351 N 0.63525 0.54137 0.15476 0.0
C352 C 0.58753 0.52041 0.20276 0.0
H353 H 0.57731 0.50214 0.19509 0.0
H354 H 0.57622 0.52847 0.20319 0.0
H355 H 0.59326 0.51979 0.22392 0.0
C356 C 0.55012 0.4453 0.13194 0.0
N357 N 0.56825 0.45308 0.14977 0.0
N358 N 0.57968 0.47613 0.14955 0.0
C359 C 0.56933 0.48375 0.13172 0.0
C360 C 0.55025 0.46455 0.11984 0.0
C361 C 0.53499 0.42013 0.12416 0.0
H362 H 0.54586 0.414 0.11357 0.0
H363 H 0.52776 0.40938 0.14292 0.0
H364 H 0.52045 0.41761 0.11049 0.0
O365 O 0.61433 0.44881 0.15277 0.0
O366 O 0.63301 0.48773 0.15197 0.0
H367 H 0.59715 0.51729 0.11879 0.0
H368 H 0.56838 0.51136 0.10822 0.0
C369 C 0.57847 0.50904 0.12485 0.0
H370 H 0.57718 0.51824 0.14315 0.0
H371 H 0.64551 0.53846 0.14077 0.0
O372 O 0.56416 0.40336 0.16256 0.0
C373 C 0.63256 0.46844 0.14754 0.0
Co374 Co 0.54582 0.14116 0.16605 0.0
Co375 Co 0.49165 0.10946 0.16391 0.0
C376 C 0.51775 0.12856 0.21742 0.0
O377 O 0.53791 0.13896 0.20615 0.0
O378 O 0.49934 0.11666 0.20322 0.0
C379 C 0.5887 0.18157 0.16878 0.0
O380 O 0.57476 0.18792 0.18051 0.0
C381 C 0.45274 0.06487 0.17816 0.0
C382 C 0.42324 0.06281 0.15448 0.0
C383 C 0.42908 0.05037 0.17276 0.0
N384 N 0.46036 0.08471 0.16376 0.0
N385 N 0.44272 0.0835 0.14963 0.0
C386 C 0.46862 0.05972 0.19502 0.0
H387 H 0.48705 0.07053 0.18818 0.0
H388 H 0.4633 0.04087 0.19365 0.0
H389 H 0.46777 0.06425 0.2167 0.0
C390 C 0.54301 0.10198 0.13163 0.0
N391 N 0.5334 0.11186 0.14741 0.0
N392 N 0.51045 0.09909 0.14576 0.0
C393 C 0.50474 0.08073 0.12896 0.0
C394 C 0.52509 0.08173 0.11968 0.0
C395 C 0.56873 0.11258 0.12674 0.0
H396 H 0.57489 0.12849 0.1139 0.0
H397 H 0.57823 0.11811 0.14653 0.0
H398 H 0.57276 0.10005 0.11621 0.0
O399 O 0.53323 0.1598 0.14885 0.0
O400 O 0.49446 0.13812 0.14655 0.0
H401 H 0.48044 0.05488 0.10029 0.0
H402 H 0.47126 0.05026 0.13543 0.0
C403 C 0.48036 0.06382 0.11951 0.0
H404 H 0.47051 0.07317 0.11601 0.0
H405 H 0.44403 0.09666 0.13664 0.0
O406 O 0.58017 0.16038 0.16119 0.0
C407 C 0.51341 0.15739 0.14242 0.0
Co408 Co 0.40958 0.85298 0.86126 0.0
Co409 Co 0.3786 0.87435 0.87751 0.0
C410 C 0.38403 0.86312 0.81828 0.0
O411 O 0.39915 0.85701 0.82392 0.0
O412 O 0.37551 0.87005 0.83709 0.0
C413 C 0.42167 0.81994 0.84626 0.0
O414 O 0.4009 0.81154 0.83492 0.0
C415 C 0.3734 0.91488 0.87735 0.0
C416 C 0.35012 0.90903 0.91267 0.0
C417 C 0.36415 0.92558 0.8934 0.0
N418 N 0.36566 0.89322 0.88706 0.0
N419 N 0.35131 0.88952 0.90776 0.0
C420 C 0.39203 0.92601 0.85587 0.0
H421 H 0.40142 0.91609 0.85322 0.0
H422 H 0.40473 0.94449 0.86129 0.0
H423 H 0.38371 0.92587 0.83609 0.0
C424 C 0.4447 0.89333 0.89546 0.0
N425 N 0.42363 0.88083 0.883 0.0
N426 N 0.4101 0.88924 0.89052 0.0
C427 C 0.42203 0.90715 0.90817 0.0
C428 C 0.44441 0.91064 0.91153 0.0
C429 C 0.46417 0.88799 0.89303 0.0
H430 H 0.45918 0.87141 0.90405 0.0
H431 H 0.46682 0.8853 0.87119 0.0
H432 H 0.4807 0.9023 0.90185 0.0
O433 O 0.38102 0.8278 0.87967 0.0
O434 O 0.35957 0.84316 0.89372 0.0
H435 H 0.39335 0.90616 0.93021 0.0
H436 H 0.42173 0.92707 0.94332 0.0
C437 C 0.41158 0.919 0.92437 0.0
H438 H 0.4118 0.93315 0.91192 0.0
H439 H 0.34358 0.87429 0.9196 0.0
O440 O 0.43062 0.83968 0.85828 0.0
C441 C 0.36285 0.82576 0.89153 0.0
Co442 Co 0.13844 0.55129 0.86258 0.0
Co443 Co 0.11394 0.49824 0.87609 0.0
C444 C 0.12402 0.51658 0.81747 0.0
O445 O 0.13219 0.53794 0.82454 0.0
O446 O 0.1166 0.5004 0.83541 0.0
C447 C 0.17476 0.5954 0.85118 0.0
O448 O 0.18142 0.58197 0.83881 0.0
C449 C 0.07232 0.45328 0.87337 0.0
C450 C 0.07577 0.43438 0.90884 0.0
C451 C 0.06046 0.43286 0.88842 0.0
N452 N 0.09346 0.46652 0.88473 0.0
N453 N 0.0957 0.45504 0.9056 0.0
C454 C 0.06269 0.4618 0.85123 0.0
H455 H 0.07156 0.48123 0.85142 0.0
H456 H 0.04352 0.45439 0.85369 0.0
H457 H 0.06601 0.45621 0.8311 0.0
C458 C 0.10124 0.54867 0.90026 0.0
N459 N 0.11149 0.53881 0.88557 0.0
N460 N 0.10165 0.51646 0.89189 0.0
C461 C 0.08491 0.51141 0.91092 0.0
C462 C 0.08407 0.5316 0.91698 0.0
C463 C 0.1094 0.57432 0.90018 0.0
H464 H 0.1272 0.58398 0.90931 0.0
H465 H 0.11074 0.58047 0.87877 0.0
H466 H 0.09741 0.57829 0.912 0.0
O467 O 0.16243 0.54498 0.87879 0.0
O468 O 0.14544 0.50752 0.89046 0.0
H469 H 0.08142 0.48122 0.93176 0.0
H470 H 0.05861 0.48775 0.94002 0.0
C471 C 0.07005 0.4877 0.92347 0.0
H472 H 0.05844 0.47542 0.9076 0.0
H473 H 0.1103 0.46181 0.91845 0.0
O474 O 0.15444 0.58586 0.86179 0.0
C475 C 0.16358 0.52777 0.8889 0.0
Co476 Co 0.44243 0.58526 0.85688 0.0
Co477 Co 0.49672 0.612 0.86197 0.0
C478 C 0.47149 0.60097 0.80683 0.0
O479 O 0.45085 0.58906 0.81669 0.0
O480 O 0.48923 0.60986 0.82256 0.0
C481 C 0.39768 0.57924 0.85411 0.0
O482 O 0.41013 0.59959 0.84189 0.0
C483 C 0.53758 0.60974 0.84862 0.0
C484 C 0.56565 0.6375 0.87365 0.0
C485 C 0.56112 0.61983 0.85493 0.0
N486 N 0.52862 0.6208 0.86295 0.0
N487 N 0.54542 0.63748 0.87782 0.0
C488 C 0.52302 0.58849 0.8314 0.0
H489 H 0.50452 0.57938 0.83834 0.0
H490 H 0.52992 0.57619 0.83225 0.0
H491 H 0.52341 0.59398 0.80986 0.0
C492 C 0.44788 0.55259 0.89562 0.0
N493 N 0.45646 0.57123 0.87849 0.0
N494 N 0.47936 0.58336 0.88125 0.0
C495 C 0.48609 0.57306 0.90023 0.0
C496 C 0.46645 0.55317 0.91002 0.0
C497 C 0.42234 0.53616 0.90019 0.0
H498 H 0.41481 0.54553 0.91142 0.0
H499 H 0.41322 0.53052 0.88018 0.0
H500 H 0.41936 0.52062 0.91223 0.0
O501 O 0.45294 0.61755 0.87077 0.0
O502 O 0.49147 0.63683 0.877 0.0
H503 H 0.5187 0.60167 0.91437 0.0
H504 H 0.51215 0.57353 0.92805 0.0
C505 C 0.51087 0.58273 0.90974 0.0
H506 H 0.52119 0.58063 0.89322 0.0
H507 H 0.543 0.64856 0.89103 0.0
O508 O 0.40787 0.5681 0.86166 0.0
C509 C 0.47174 0.63601 0.87788 0.0
Co510 Co 0.51602 0.7398 0.49961 0.0
Co511 Co 0.53101 0.7044 0.47952 0.0
C512 C 0.5253 0.71221 0.54032 0.0
O513 O 0.52086 0.72873 0.53596 0.0
O514 O 0.52957 0.70229 0.52046 0.0
C515 C 0.48991 0.76057 0.51873 0.0
O516 O 0.48094 0.74234 0.53515 0.0
C517 C 0.5681 0.69385 0.47147 0.0
C518 C 0.55403 0.66721 0.43859 0.0
C519 C 0.57409 0.68135 0.4536 0.0
N520 N 0.54586 0.68809 0.46644 0.0
N521 N 0.53733 0.67186 0.44715 0.0
C522 C 0.58307 0.71111 0.49296 0.0
H523 H 0.59219 0.72904 0.48421 0.0
H524 H 0.59639 0.70694 0.50077 0.0
H525 H 0.57205 0.71103 0.51015 0.0
C526 C 0.55608 0.77192 0.46332 0.0
N527 N 0.5424 0.75103 0.47566 0.0
N528 N 0.54737 0.73552 0.46553 0.0
C529 C 0.56353 0.74575 0.44553 0.0
C530 C 0.5699 0.76922 0.44375 0.0
C531 C 0.55452 0.79345 0.46864 0.0
H532 H 0.53825 0.79129 0.45915 0.0
H533 H 0.55343 0.7957 0.491 0.0
H534 H 0.56981 0.80926 0.45991 0.0
O535 O 0.48766 0.71245 0.48326 0.0
O536 O 0.49865 0.68811 0.46659 0.0
H537 H 0.55723 0.71499 0.42321 0.0
H538 H 0.57783 0.74205 0.40706 0.0
C539 C 0.57166 0.73308 0.42701 0.0
H540 H 0.5866 0.73254 0.4366 0.0
H541 H 0.52053 0.6648 0.43891 0.0
O542 O 0.50673 0.764 0.50308 0.0
C543 C 0.4829 0.6935 0.47094 0.0
Co544 Co 0.25872 0.77949 0.50049 0.0
Co545 Co 0.28244 0.83386 0.49762 0.0
C546 C 0.27246 0.80772 0.55168 0.0
O547 O 0.26229 0.7873 0.54094 0.0
O548 O 0.28007 0.82587 0.53675 0.0
C549 C 0.25323 0.73422 0.49773 0.0
O550 O 0.27528 0.74608 0.50542 0.0
C551 C 0.27842 0.87396 0.5109 0.0
C552 C 0.30627 0.90252 0.48653 0.0
C553 C 0.28816 0.89756 0.50475 0.0
N554 N 0.29009 0.86549 0.49689 0.0
N555 N 0.30681 0.88258 0.48242 0.0
C556 C 0.25705 0.85883 0.52766 0.0
H557 H 0.24875 0.84031 0.52083 0.0
H558 H 0.24417 0.86497 0.52609 0.0
H559 H 0.26223 0.85953 0.5494 0.0
C560 C 0.22518 0.78351 0.46204 0.0
N561 N 0.24358 0.79275 0.47954 0.0
N562 N 0.25436 0.81572 0.47769 0.0
C563 C 0.24339 0.82187 0.45894 0.0
C564 C 0.22451 0.80172 0.44829 0.0
C565 C 0.21029 0.75784 0.45649 0.0
H566 H 0.22122 0.75133 0.44686 0.0
H567 H 0.20355 0.74833 0.47611 0.0
H568 H 0.19542 0.75411 0.44273 0.0
O569 O 0.2912 0.79142 0.48624 0.0
O570 O 0.30838 0.83021 0.48307 0.0
H571 H 0.27032 0.85592 0.44604 0.0
H572 H 0.2416 0.84782 0.43293 0.0
C573 C 0.25132 0.84667 0.45077 0.0
H574 H 0.24833 0.85577 0.46801 0.0
H575 H 0.31834 0.88056 0.46957 0.0
O576 O 0.24177 0.74494 0.49522 0.0
C577 C 0.30899 0.81126 0.48054 0.0
Co578 Co 0.20537 0.47152 0.50107 0.0
Co579 Co 0.15208 0.44674 0.48894 0.0
C580 C 0.17227 0.46035 0.54687 0.0
O581 O 0.19335 0.46748 0.53952 0.0
O582 O 0.15582 0.45247 0.52926 0.0
C583 C 0.24914 0.50834 0.5114 0.0
O584 O 0.23543 0.51462 0.52382 0.0
C585 C 0.10944 0.40438 0.49763 0.0
C586 C 0.08619 0.4027 0.46404 0.0
C587 C 0.08792 0.39006 0.48571 0.0
N588 N 0.12018 0.4245 0.48359 0.0
N589 N 0.10614 0.42368 0.46375 0.0
C590 C 0.12107 0.39796 0.51963 0.0
H591 H 0.14036 0.40772 0.51697 0.0
H592 H 0.11468 0.37884 0.5195 0.0
H593 H 0.11693 0.40273 0.53982 0.0
C594 C 0.20151 0.43181 0.46691 0.0
N595 N 0.19231 0.44329 0.48041 0.0
N596 N 0.16994 0.43362 0.47431 0.0
C597 C 0.16426 0.41586 0.45654 0.0
C598 C 0.18391 0.41393 0.45146 0.0
C599 C 0.22694 0.43913 0.46703 0.0
H600 H 0.23382 0.44333 0.48825 0.0
H601 H 0.22985 0.4252 0.45836 0.0
H602 H 0.23669 0.45529 0.4546 0.0
O603 O 0.19811 0.49409 0.48274 0.0
O604 O 0.1605 0.47704 0.47153 0.0
H605 H 0.14174 0.39205 0.42496 0.0
H606 H 0.12816 0.38928 0.45756 0.0
C607 C 0.14093 0.40203 0.44281 0.0
H608 H 0.13471 0.41398 0.43584 0.0
H609 H 0.11065 0.43687 0.44922 0.0
O610 O 0.23995 0.48803 0.50077 0.0
C611 C 0.18095 0.495 0.47203 0.0
C612 C 0.94466 0.34672 0.1158 0.0
C613 C 0.94246 0.36586 0.12419 0.0
C614 C 0.96671 0.34886 0.1137 0.0
C615 C 0.02235 0.37975 0.14768 0.0
H616 H 0.02992 0.33478 0.10429 0.0
C617 C 0.03159 0.30949 0.19606 0.0
C618 C 0.03742 0.29505 0.1809 0.0
C619 C 0.03428 0.33011 0.18476 0.0
C620 C 0.02899 0.34809 0.11632 0.0
H621 H 0.96161 0.40307 0.13353 0.0
H622 H 0.0003 0.40662 0.13086 0.0
H623 H 0.00585 0.35006 0.08721 0.0
H624 H 0.05209 0.29192 0.14232 0.0
H625 H 0.0582 0.32842 0.12349 0.0
H626 H 0.04473 0.37707 0.17734 0.0
C627 C 0.98492 0.38986 0.12642 0.0
C628 C 0.01487 0.35667 0.10652 0.0
C629 C 0.96277 0.3877 0.12843 0.0
C630 C 0.04788 0.3027 0.15505 0.0
C631 C 0.05107 0.32361 0.14395 0.0
C632 C 0.03689 0.37154 0.15726 0.0
C633 C 0.98707 0.37028 0.11973 0.0
C634 C 0.00952 0.37059 0.12341 0.0
C635 C 0.04299 0.33685 0.15797 0.0
C636 C 0.03825 0.35369 0.143 0.0
H637 H 0.92927 0.3298 0.11199 0.0
H638 H 0.96763 0.33327 0.10896 0.0
H639 H 0.01902 0.39095 0.16095 0.0
H640 H 0.02369 0.3042 0.21615 0.0
H641 H 0.02756 0.33954 0.19626 0.0
C642 C 0.61078 0.57513 0.22119 0.0
C643 C 0.61713 0.57675 0.19348 0.0
C644 C 0.61187 0.59436 0.23466 0.0
C645 C 0.62876 0.65739 0.22404 0.0
H646 H 0.66858 0.66633 0.28657 0.0
C647 C 0.70515 0.74797 0.24756 0.0
C648 C 0.72614 0.74729 0.2481 0.0
C649 C 0.68368 0.7275 0.25145 0.0
C650 C 0.65726 0.66411 0.26938 0.0
H651 H 0.62796 0.5991 0.15768 0.0
H652 H 0.6311 0.63288 0.18123 0.0
H653 H 0.64166 0.62702 0.27082 0.0
H654 H 0.74148 0.72543 0.25556 0.0
H655 H 0.70418 0.68961 0.26153 0.0
H656 H 0.64661 0.69465 0.22062 0.0
C657 C 0.62451 0.61669 0.1926 0.0
C658 C 0.6415 0.64148 0.26049 0.0
C659 C 0.62311 0.5974 0.1791 0.0
C660 C 0.72549 0.72629 0.25464 0.0
C661 C 0.70408 0.70584 0.25843 0.0
C662 C 0.64483 0.68005 0.23267 0.0
C663 C 0.61994 0.61575 0.22086 0.0
C664 C 0.62852 0.63797 0.23633 0.0
C665 C 0.68288 0.70606 0.25607 0.0
C666 C 0.66053 0.68354 0.25405 0.0
H667 H 0.60663 0.55976 0.23317 0.0
H668 H 0.60797 0.59294 0.25633 0.0
H669 H 0.61833 0.65521 0.20598 0.0
H670 H 0.70525 0.76421 0.24384 0.0
H671 H 0.66769 0.7283 0.24997 0.0
C672 C 0.39172 0.01233 0.17029 0.0
C673 C 0.41235 0.02724 0.18462 0.0
C674 C 0.37345 0.99294 0.18319 0.0
C675 C 0.35134 0.98134 0.25275 0.0
H676 H 0.29631 0.93815 0.21147 0.0
C677 C 0.27163 0.98912 0.25174 0.0
C678 C 0.24956 0.97042 0.24474 0.0
C679 C 0.2907 0.98561 0.25428 0.0
C680 C 0.31142 0.94951 0.22387 0.0
H681 H 0.43052 0.03207 0.22332 0.0
H682 H 0.39954 -0.00242 0.24492 0.0
H683 H 0.33488 0.94798 0.19484 0.0
H684 H 0.22938 0.93277 0.23834 0.0
H685 H 0.26296 0.92674 0.24192 0.0
H686 H 0.32788 0.98349 0.28122 0.0
C687 C 0.39715 0.00121 0.22393 0.0
C688 C 0.33361 0.95539 0.21412 0.0
C689 C 0.41523 0.02096 0.21123 0.0
C690 C 0.24647 0.94775 0.24237 0.0
C691 C 0.2656 0.94421 0.24487 0.0
C692 C 0.32918 0.97508 0.26276 0.0
C693 C 0.37544 0.9879 0.21075 0.0
C694 C 0.35378 0.9733 0.22691 0.0
C695 C 0.28804 0.96323 0.25013 0.0
C696 C 0.30922 0.96104 0.24692 0.0
H697 H 0.38905 0.01649 0.14963 0.0
H698 H 0.35708 0.98336 0.17216 0.0
H699 H 0.36631 0.99479 0.26371 0.0
H700 H 0.27438 0.00669 0.25408 0.0
H701 H 0.3078 0.00079 0.25788 0.0
C702 C 0.30218 0.05108 0.8691 0.0
C703 C 0.29489 0.04228 0.84251 0.0
C704 C 0.32346 0.05459 0.87932 0.0
C705 C 0.37452 0.0466 0.86193 0.0
H706 H 0.35264 0.00708 0.92629 0.0
C707 C 0.37187 0.96142 0.86786 0.0
C708 C 0.37027 0.95032 0.89284 0.0
C709 C 0.37601 0.98432 0.86739 0.0
C710 C 0.35978 0.01876 0.90892 0.0
H711 H 0.30478 0.03165 0.80522 0.0
H712 H 0.34112 0.03632 0.82345 0.0
H713 H 0.33469 0.02973 0.91387 0.0
H714 H 0.37329 0.95468 0.93686 0.0
H715 H 0.38044 0.99488 0.93614 0.0
H716 H 0.39815 0.03358 0.8558 0.0
C717 C 0.33098 0.04144 0.8362 0.0
C718 C 0.34938 0.0319 0.9017 0.0
C719 C 0.30988 0.0383 0.82585 0.0
C720 C 0.37408 0.96284 0.91735 0.0
C721 C 0.37839 0.98587 0.9169 0.0
C722 C 0.38496 0.03342 0.8692 0.0
C723 C 0.3375 0.04861 0.86349 0.0
C724 C 0.35516 0.04421 0.87678 0.0
C725 C 0.37857 0.99657 0.89194 0.0
C726 C 0.3761 0.01772 0.89133 0.0
H727 H 0.29089 0.05374 0.88285 0.0
H728 H 0.32803 0.06027 0.90034 0.0
H729 H 0.37991 0.05663 0.84312 0.0
H730 H 0.36866 0.95202 0.84871 0.0
H731 H 0.37542 0.9917 0.84781 0.0
C732 C 0.02761 0.4052 0.85868 0.0
C733 C 0.03614 0.41385 0.88488 0.0
C734 C 0.00573 0.38523 0.85548 0.0
C735 C 0.96047 0.34067 0.85098 0.0
H736 H 0.96749 0.29722 0.89797 0.0
C737 C 0.9414 0.24756 0.81825 0.0
C738 C 0.96292 0.24794 0.8195 0.0
C739 C 0.9389 0.26525 0.83087 0.0
C740 C 0.96469 0.30898 0.88506 0.0
H741 H 0.02794 0.41007 0.92813 0.0
H742 H 0.9894 0.37507 0.92261 0.0
H743 H 0.98257 0.3372 0.91291 0.0
H744 H -0.00132 0.2669 0.83415 0.0
H745 H 0.99441 0.29777 0.85618 0.0
H746 H 0.94524 0.31273 0.82169 0.0
C747 C -0.0003 0.38348 0.90453 0.0
C748 C 0.9732 0.33197 0.89366 0.0
C749 C 0.02178 0.40336 0.90773 0.0
C750 C 0.98199 0.26635 0.8329 0.0
C751 C 0.9794 0.28373 0.84582 0.0
C752 C 0.95214 0.31763 0.84226 0.0
C753 C 0.99195 0.37347 0.87847 0.0
C754 C 0.97328 0.3486 0.87553 0.0
C755 C 0.95778 0.28313 0.84525 0.0
C756 C 0.95618 0.3024 0.85834 0.0
H757 H 0.03847 0.41285 0.84076 0.0
H758 H 0.00072 0.37794 0.8351 0.0
H759 H 0.95949 0.35292 0.83701 0.0
H760 H 0.92658 0.23358 0.8076 0.0
H761 H 0.92226 0.26481 0.82976 0.0
C762 C 0.59714 0.61703 0.86049 0.0
C763 C 0.57844 0.61399 0.84398 0.0
C764 C 0.61555 0.61508 0.84929 0.0
C765 C 0.64551 0.63074 0.78508 0.0
H766 H 0.691 0.62428 0.82883 0.0
C767 C 0.74036 0.69995 0.77643 0.0
C768 C 0.74864 0.71 0.80229 0.0
C769 C 0.72117 0.6773 0.7742 0.0
C770 C 0.67844 0.62584 0.816 0.0
H771 H 0.5638 0.60543 0.80299 0.0
H772 H 0.59555 0.6014 0.78369 0.0
H773 H 0.64933 0.60022 0.83924 0.0
H774 H 0.74393 0.70427 0.84601 0.0
H775 H 0.71025 0.66521 0.84232 0.0
H776 H 0.67441 0.65787 0.76359 0.0
C777 C 0.59599 0.60524 0.80531 0.0
C778 C 0.65461 0.61206 0.82194 0.0
C779 C 0.57766 0.60738 0.81648 0.0
C780 C 0.73813 0.69678 0.82584 0.0
C781 C 0.71892 0.67425 0.82365 0.0
C782 C 0.66927 0.6445 0.77919 0.0
C783 C 0.61567 0.6102 0.82126 0.0
C784 C 0.63816 0.61594 0.80807 0.0
C785 C 0.70977 0.66449 0.79782 0.0
C786 C 0.68601 0.64364 0.79618 0.0
H787 H 0.59809 0.62201 0.88179 0.0
H788 H 0.63055 0.61938 0.86216 0.0
H789 H 0.63336 0.6341 0.77376 0.0
H790 H 0.74847 0.70977 0.75796 0.0
H791 H 0.71461 0.67023 0.75404 0.0
C792 C 0.70005 0.63914 0.52438 0.0
C793 C 0.70605 0.62433 0.51029 0.0
C794 C 0.69933 0.65734 0.51075 0.0
C795 C 0.68413 0.66528 0.44193 0.0
H796 H 0.67621 0.71199 0.48116 0.0
C797 C 0.59872 0.66351 0.44355 0.0
C798 C 0.59723 0.68355 0.44926 0.0
C799 C 0.62053 0.66507 0.44121 0.0
C800 C 0.6788 0.69955 0.46932 0.0
H801 H 0.71767 0.61821 0.47109 0.0
H802 H 0.7177 0.65064 0.44788 0.0
H803 H 0.70481 0.70171 0.49719 0.0
H804 H 0.61719 0.7214 0.45363 0.0
H805 H 0.65542 0.72409 0.45017 0.0
H806 H 0.65754 0.66255 0.41466 0.0
C807 C 0.71309 0.64793 0.46937 0.0
C808 C 0.69504 0.69346 0.47873 0.0
C809 C 0.71341 0.62944 0.4829 0.0
C810 C 0.61787 0.70548 0.45056 0.0
C811 C 0.63975 0.70709 0.44818 0.0
C812 C 0.66822 0.67167 0.43227 0.0
C813 C 0.70466 0.66119 0.48266 0.0
C814 C 0.69624 0.6747 0.46663 0.0
C815 C 0.64131 0.68679 0.44422 0.0
C816 C 0.66391 0.68728 0.44733 0.0
H817 H 0.69449 0.63578 0.54557 0.0
H818 H 0.69253 0.66692 0.5218 0.0
H819 H 0.6847 0.651 0.43169 0.0
H820 H 0.58304 0.64644 0.4421 0.0
H821 H 0.62101 0.64898 0.43862 0.0
C822 C 0.27338 0.91307 0.54222 0.0
C823 C 0.28207 0.91483 0.51552 0.0
C824 C 0.27174 0.93161 0.55371 0.0
C825 C 0.28781 0.99419 0.53974 0.0
H826 H 0.3237 0.0042 0.60619 0.0
C827 C 0.36569 0.08426 0.56472 0.0
C828 C 0.38591 0.08222 0.56666 0.0
C829 C 0.34346 0.0645 0.56753 0.0
C830 C 0.31336 0.00169 0.58794 0.0
H831 H 0.29392 0.93653 0.47919 0.0
H832 H 0.29269 0.96931 0.49956 0.0
H833 H 0.29702 0.96469 0.59123 0.0
H834 H 0.3989 0.05849 0.57526 0.0
H835 H 0.36035 0.02406 0.57984 0.0
H836 H 0.30676 0.03141 0.53481 0.0
C837 C 0.28627 0.95346 0.51157 0.0
C838 C 0.29775 0.97893 0.57939 0.0
C839 C 0.28743 0.93476 0.49993 0.0
C840 C 0.3836 0.06048 0.57329 0.0
C841 C 0.36148 0.04082 0.57627 0.0
C842 C 0.30378 0.01701 0.54808 0.0
C843 C 0.27962 0.95264 0.53913 0.0
C844 C 0.28652 0.97495 0.55382 0.0
C845 C 0.34115 0.0425 0.57286 0.0
C846 C 0.31818 0.02073 0.57092 0.0
H847 H 0.26952 0.8983 0.55517 0.0
H848 H 0.26612 0.93016 0.57479 0.0
H849 H 0.2786 0.99171 0.52057 0.0
H850 H 0.36693 0.10103 0.56105 0.0
H851 H 0.32809 0.06631 0.56504 0.0
C852 C 0.06123 0.34795 0.47395 0.0
C853 C 0.07101 0.36587 0.49356 0.0
C854 C 0.04484 0.32507 0.48178 0.0
C855 C -0.00358 0.28879 0.49948 0.0
H856 H 0.98802 0.27565 0.57722 0.0
C857 C 0.93773 0.30099 0.56667 0.0
C858 C 0.91506 0.28551 0.5571 0.0
C859 C 0.95547 0.29552 0.56362 0.0
C860 C 0.99009 0.27818 0.55528 0.0
H861 H 0.07207 0.37426 0.53651 0.0
H862 H 0.04285 0.33518 0.55008 0.0
H863 H 0.0274 0.29543 0.55793 0.0
H864 H 0.89232 0.25016 0.54178 0.0
H865 H 0.92398 0.24183 0.53358 0.0
H866 H 0.95921 0.27275 0.49719 0.0
C867 C 0.04827 0.33798 0.52886 0.0
C868 C 0.01263 0.28985 0.54422 0.0
C869 C 0.06482 0.36061 0.52109 0.0
C870 C 0.90993 0.26331 0.54732 0.0
C871 C 0.92786 0.25811 0.54348 0.0
C872 C 0.97389 0.27645 0.51037 0.0
C873 C 0.03758 0.31994 0.50927 0.0
C874 C 0.01601 0.29783 0.51696 0.0
C875 C 0.9509 0.27458 0.55069 0.0
C876 C 0.97084 0.27352 0.53878 0.0
H877 H 0.06618 0.35167 0.45261 0.0
H878 H 0.03723 0.31163 0.46617 0.0
H879 H -0.00188 0.29403 0.47824 0.0
H880 H 0.94214 0.31797 0.57496 0.0
H881 H 0.97322 0.30866 0.56907 0.0
C882 C 0.18032 0.37544 0.43918 0.0
C883 C 0.18538 0.39795 0.43123 0.0
C884 C 0.17602 0.35826 0.41945 0.0
C885 C 0.17872 0.34866 0.34402 0.0
H886 H 0.12543 0.28742 0.3598 0.0
C887 C 0.12194 0.283 0.26006 0.0
C888 C 0.11228 0.25886 0.26463 0.0
C889 C 0.13505 0.29929 0.28039 0.0
C890 C 0.14061 0.30426 0.35516 0.0
H891 H 0.19038 0.42045 0.3967 0.0
H892 H 0.18284 0.39066 0.36218 0.0
H893 H 0.141 0.31728 0.39539 0.0
H894 H 0.10934 0.23277 0.29369 0.0
H895 H 0.13239 0.2613 0.32951 0.0
H896 H 0.17764 0.3358 0.30341 0.0
C897 C 0.18267 0.38618 0.38352 0.0
C898 C 0.14962 0.32147 0.37565 0.0
C899 C 0.18705 0.40334 0.40327 0.0
C900 C 0.11679 0.25131 0.28959 0.0
C901 C 0.12976 0.26764 0.31014 0.0
C902 C 0.16962 0.33149 0.32349 0.0
C903 C 0.17643 0.36317 0.39131 0.0
C904 C 0.16855 0.34409 0.37028 0.0
C905 C 0.13867 0.29183 0.30597 0.0
C906 C 0.15016 0.30919 0.32863 0.0
H907 H 0.17855 0.37081 0.46067 0.0
H908 H 0.17167 0.34091 0.42631 0.0
H909 H 0.19357 0.36567 0.33917 0.0
H910 H 0.11859 0.28924 0.24102 0.0
H911 H 0.14137 0.31768 0.27649 0.0
C912 C 0.60958 0.80357 0.43405 0.0
C913 C 0.58733 0.78673 0.4246 0.0
C914 C 0.62763 0.81697 0.41546 0.0
C915 C 0.6659 0.82857 0.37333 0.0
H916 H 0.65492 0.84611 0.30147 0.0
C917 C 0.73994 0.87017 0.29251 0.0
C918 C 0.73376 0.85985 0.26649 0.0
C919 C 0.72257 0.86566 0.31206 0.0
C920 C 0.65828 0.8413 0.32145 0.0
H921 H 0.56598 0.77143 0.38861 0.0
H922 H 0.59731 0.79445 0.3561 0.0
H923 H 0.62361 0.83084 0.33552 0.0
H924 H 0.70487 0.83711 0.24017 0.0
H925 H 0.67446 0.82951 0.27393 0.0
H926 H 0.70046 0.83873 0.35911 0.0
C927 C 0.60102 0.79771 0.37775 0.0
C928 C 0.64029 0.83247 0.341 0.0
C929 C 0.58301 0.78443 0.39634 0.0
C930 C 0.70998 0.84566 0.25994 0.0
C931 C 0.6926 0.84131 0.27933 0.0
C932 C 0.68392 0.83753 0.35384 0.0
C933 C 0.6238 0.81373 0.387 0.0
C934 C 0.64368 0.82555 0.36709 0.0
C935 C 0.69867 0.85077 0.30589 0.0
C936 C 0.68024 0.84362 0.32747 0.0
H937 H 0.61331 0.80557 0.45579 0.0
H938 H 0.64476 0.82943 0.42343 0.0
H939 H 0.66918 0.8231 0.39294 0.0
H940 H 0.75823 0.88081 0.29813 0.0
H941 H 0.72787 0.87337 0.33222 0.0
C942 C 0.13435 0.87659 0.29832 0.0
C943 C 0.13395 0.87307 0.26997 0.0
C944 C 0.13857 0.86265 0.31642 0.0
C945 C 0.16592 0.82484 0.31687 0.0
H946 H 0.14851 0.81857 0.39341 0.0
C947 C 0.21973 0.81097 0.39998 0.0
C948 C 0.20942 0.80064 0.42508 0.0
C949 C 0.20675 0.81437 0.3797 0.0
C950 C 0.15328 0.81968 0.37205 0.0
H951 H 0.13552 0.85097 0.23832 0.0
H952 H 0.14165 0.82566 0.26988 0.0
H953 H 0.13077 0.83311 0.36119 0.0
H954 H 0.17703 0.78408 0.44797 0.0
H955 H 0.15383 0.78897 0.41207 0.0
H956 H 0.18789 0.81075 0.32755 0.0
C957 C 0.13974 0.83984 0.27827 0.0
C958 C 0.14334 0.82848 0.3535 0.0
C959 C 0.13585 0.85408 0.26013 0.0
C960 C 0.18538 0.79216 0.42878 0.0
C961 C 0.17222 0.79531 0.40831 0.0
C962 C 0.17557 0.81569 0.33532 0.0
C963 C 0.14207 0.84446 0.30667 0.0
C964 C 0.15002 0.8319 0.32573 0.0
C965 C 0.1829 0.80716 0.38376 0.0
C966 C 0.16999 0.81364 0.36339 0.0
H967 H 0.13281 0.89109 0.30639 0.0
H968 H 0.14039 0.8671 0.33794 0.0
H969 H 0.17179 0.82727 0.29582 0.0
H970 H 0.23826 0.81762 0.39663 0.0
H971 H 0.21588 0.82381 0.36144 0.0
C972 C 0.38072 0.19256 0.59346 0.0
C973 C 0.40285 0.19672 0.6018 0.0
C974 C 0.36316 0.18773 0.61285 0.0
C975 C 0.35217 0.18782 0.68831 0.0
H976 H 0.29073 0.13599 0.66983 0.0
C977 C 0.28471 0.12865 0.76928 0.0
C978 C 0.26073 0.11983 0.76446 0.0
C979 C 0.3014 0.14225 0.74956 0.0
C980 C 0.30764 0.15076 0.67523 0.0
H981 H 0.42446 0.20013 0.63671 0.0
H982 H 0.394 0.19158 0.67059 0.0
H983 H 0.32125 0.15238 0.63503 0.0
H984 H 0.23534 0.11881 0.73562 0.0
H985 H 0.2646 0.14268 0.70083 0.0
H986 H 0.33871 0.18548 0.72886 0.0
C987 C 0.39004 0.19233 0.64924 0.0
C988 C 0.32522 0.16024 0.6552 0.0
C989 C 0.40756 0.19722 0.62985 0.0
C990 C 0.25376 0.12561 0.73991 0.0
C991 C 0.27049 0.13905 0.71994 0.0
C992 C 0.33463 0.17824 0.70837 0.0
C993 C 0.36735 0.18687 0.64101 0.0
C994 C 0.3479 0.17862 0.66156 0.0
C995 C 0.29451 0.14719 0.72434 0.0
C996 C 0.31226 0.15928 0.70225 0.0
H997 H 0.37667 0.19193 0.57188 0.0
H998 H 0.34609 0.18405 0.6057 0.0
H999 H 0.36921 0.20225 0.69394 0.0
H1000 H 0.29049 0.1243 0.78801 0.0
H1001 H 0.31964 0.14794 0.75359 0.0
C1002 C 0.81524 0.19153 0.58552 0.0
C1003 C 0.79958 0.19982 0.58987 0.0
C1004 C 0.81814 0.17783 0.60527 0.0
C1005 C 0.81467 0.16941 0.67956 0.0
H1006 H 0.82882 0.12034 0.66221 0.0
C1007 C 0.84933 0.13194 0.76279 0.0
C1008 C 0.86846 0.12948 0.75485 0.0
C1009 C 0.83587 0.13543 0.74308 0.0
C1010 C 0.82503 0.13409 0.66746 0.0
H1011 H 0.77413 0.1998 0.61781 0.0
H1012 H 0.77908 0.17565 0.6526 0.0
H1013 H 0.81395 0.13542 0.62657 0.0
H1014 H 0.88802 0.12771 0.72034 0.0
H1015 H 0.86482 0.13389 0.68592 0.0
H1016 H 0.82665 0.16884 0.72011 0.0
C1017 C 0.78911 0.17972 0.63383 0.0
C1018 C 0.81642 0.14269 0.64699 0.0
C1019 C 0.78603 0.19327 0.61383 0.0
C1020 C 0.87317 0.12933 0.72689 0.0
C1021 C 0.8598 0.13285 0.70719 0.0
C1022 C 0.8234 0.1609 0.7 0.0
C1023 C 0.80565 0.17232 0.63007 0.0
C1024 C 0.81161 0.16083 0.65261 0.0
C1025 C 0.84132 0.13658 0.71501 0.0
C1026 C 0.82922 0.14347 0.69411 0.0
H1027 H 0.82617 0.1967 0.56739 0.0
H1028 H 0.83124 0.17275 0.60175 0.0
H1029 H 0.81147 0.18359 0.68459 0.0
H1030 H 0.84549 0.13227 0.78429 0.0
H1031 H 0.82158 0.13785 0.74991 0.0
C1032 C 0.85762 0.70895 0.77429 0.0
C1033 C 0.86376 0.73178 0.7664 0.0
C1034 C 0.85269 0.69163 0.7545 0.0
C1035 C 0.85548 0.68193 0.67911 0.0
H1036 H 0.80009 0.62203 0.69419 0.0
C1037 C 0.79831 0.61735 0.59421 0.0
C1038 C 0.78759 0.59313 0.599 0.0
C1039 C 0.81142 0.63347 0.61472 0.0
C1040 C 0.81583 0.63847 0.68974 0.0
H1041 H 0.87031 0.75478 0.73193 0.0
H1042 H 0.86172 0.72479 0.69732 0.0
H1043 H 0.8165 0.65171 0.72992 0.0
H1044 H 0.78271 0.56671 0.62869 0.0
H1045 H 0.80578 0.5949 0.6647 0.0
H1046 H 0.8542 0.66887 0.63855 0.0
C1047 C 0.86106 0.72009 0.71866 0.0
C1048 C 0.82532 0.65557 0.71032 0.0
C1049 C 0.86605 0.73736 0.73846 0.0
C1050 C 0.79099 0.58531 0.62439 0.0
C1051 C 0.80397 0.60146 0.64507 0.0
C1052 C 0.8459 0.66486 0.65848 0.0
C1053 C 0.85361 0.69677 0.72635 0.0
C1054 C 0.84507 0.67772 0.70521 0.0
C1055 C 0.814 0.62577 0.64066 0.0
C1056 C 0.82571 0.64303 0.66337 0.0
H1057 H 0.85543 0.70419 0.79575 0.0
H1058 H 0.84742 0.67403 0.76128 0.0
H1059 H 0.87092 0.69855 0.67446 0.0
H1060 H 0.79585 0.62381 0.57483 0.0
H1061 H 0.81862 0.65198 0.61061 0.0
C1062 C 0.94225 0.48568 0.10216 0.0
C1063 C 0.92252 0.46467 0.09394 0.0
C1064 C 0.95967 0.4996 0.0831 0.0
C1065 C 0.97423 0.50516 1.00751 0.0
H1066 H 0.03768 0.53177 0.03476 0.0
C1067 C 0.05215 0.53953 0.93197 0.0
C1068 C 0.06958 0.53405 0.93862 0.0
C1069 C 0.03552 0.53715 0.95161 0.0
C1070 C 0.0201 0.52429 0.02662 0.0
H1071 H 0.90454 0.44256 0.05926 0.0
H1072 H 0.93494 0.46598 0.02631 0.0
H1073 H 0.00526 0.51559 0.06668 0.0
H1074 H 0.0844 0.52344 0.97126 0.0
H1075 H 0.05527 0.51845 1.00508 0.0
H1076 H 0.98895 0.5121 0.96732 0.0
C1077 C 0.93717 0.4723 0.04715 0.0
C1078 C 0.00136 0.51533 0.04514 0.0
C1079 C 0.91967 0.45869 0.06609 0.0
C1080 C 0.07105 0.5277 0.96563 0.0
C1081 C 0.05432 0.52499 0.9851 0.0
C1082 C 0.99295 0.5137 0.98896 0.0
C1083 C 0.95785 0.49263 0.05545 0.0
C1084 C 0.97802 0.50508 0.03589 0.0
C1085 C 0.03584 0.52903 0.97826 0.0
C1086 C 0.01619 0.5229 0.99816 0.0
H1087 H 0.94479 0.49072 0.12354 0.0
H1088 H 0.9749 0.51542 0.09031 0.0
H1089 H 0.95668 0.49805 0.9994 0.0
H1090 H 0.0507 0.54452 0.91126 0.0
H1091 H 0.02202 0.54105 0.94559 0.0
C1092 C 0.47361 0.54887 0.95924 0.0
C1093 C 0.46603 0.53853 0.93337 0.0
C1094 C 0.4787 0.53736 0.97985 0.0
C1095 C 0.4722 0.48114 1.00371 0.0
H1096 H 0.53432 0.52087 0.03381 0.0
C1097 C 0.51299 0.45894 0.0985 0.0
C1098 C 0.53669 0.46534 0.09595 0.0
C1099 C 0.50178 0.46441 0.07764 0.0
C1100 C 0.51697 0.50948 0.02557 0.0
H1101 H 0.4563 0.50745 0.90925 0.0
H1102 H 0.46474 0.48691 0.94566 0.0
H1103 H 0.51842 0.53699 1.00084 0.0
H1104 H 0.56681 0.48093 0.06908 0.0
H1105 H 0.54743 0.49055 0.03284 0.0
H1106 H 0.47086 0.45366 0.0289 0.0
C1107 C 0.46685 0.504 0.94992 0.0
C1108 C 0.50775 0.51879 1.00685 0.0
C1109 C 0.46195 0.51569 0.92912 0.0
C1110 C 0.54853 0.47588 0.07155 0.0
C1111 C 0.53748 0.48153 0.05092 0.0
C1112 C 0.48132 0.47188 0.02292 0.0
C1113 C 0.47614 0.51511 0.97518 0.0
C1114 C 0.48529 0.50479 0.99561 0.0
C1115 C 0.51421 0.47655 0.05405 0.0
C1116 C 0.50393 0.48593 0.03387 0.0
H1117 H 0.47692 0.56649 0.96297 0.0
H1118 H 0.4855 0.54626 0.99919 0.0
H1119 H 0.45483 0.46992 0.99544 0.0
H1120 H 0.50355 0.45092 0.1172 0.0
H1121 H 0.48385 0.46036 0.08066 0.0
C1122 C 0.51873 0.04238 0.1066 0.0
C1123 C 0.52632 0.06568 0.09932 0.0
C1124 C 0.51522 0.0257 0.08657 0.0
C1125 C 0.5238 0.01826 1.01173 0.0
H1126 H 0.46947 0.95683 0.02353 0.0
C1127 C 0.47156 0.95202 0.92525 0.0
C1128 C 0.46238 0.92801 0.93032 0.0
C1129 C 0.48387 0.96866 0.94563 0.0
C1130 C 0.48494 0.97375 0.02004 0.0
H1131 H 0.53645 0.09007 0.06564 0.0
H1132 H 0.5298 0.06099 0.03039 0.0
H1133 H 0.48223 0.98616 0.05946 0.0
H1134 H 0.4592 0.90249 0.96032 0.0
H1135 H 0.48073 0.93157 0.99622 0.0
H1136 H 0.52556 0.0059 0.97159 0.0
C1137 C 0.52721 0.05551 0.05159 0.0
C1138 C 0.49237 0.99068 0.04076 0.0
C1139 C 0.53106 0.07226 0.07175 0.0
C1140 C 0.46654 0.92095 0.95578 0.0
C1141 C 0.47859 0.93758 0.97637 0.0
C1142 C 0.51615 0.00136 0.99084 0.0
C1143 C 0.51866 0.0318 0.05861 0.0
C1144 C 0.51182 0.01331 0.03692 0.0
C1145 C 0.48687 0.9616 0.97177 0.0
C1146 C 0.4965 0.97895 0.99466 0.0
H1147 H 0.5147 0.03687 0.12775 0.0
H1148 H 0.50921 0.00787 0.09304 0.0
H1149 H 0.53907 0.03525 1.008 0.0
H1150 H 0.4681 0.9578 0.90595 0.0
H1151 H 0.48975 0.98692 0.94145 0.0
C1152 C 0.04311 0.18009 0.09697 0.0
C1153 C 0.04018 0.19563 0.11408 0.0
C1154 C 0.03384 0.17535 0.07028 0.0
C1155 C -0.00058 0.15686 0.02212 0.0
H1156 H 0.99491 0.20456 0.98059 0.0
C1157 C 0.94265 0.13391 0.92338 0.0
C1158 C 0.95119 0.15028 0.90184 0.0
C1159 C 0.9535 0.13967 0.94921 0.0
C1160 C 0.99616 0.19098 0.99164 0.0
H1161 H 0.02594 0.21907 0.11586 0.0
H1162 H 0.00962 0.21059 0.07025 0.0
H1163 H 0.01619 0.2149 0.02349 0.0
H1164 H 0.97777 0.18576 0.89103 0.0
H1165 H -0.00322 0.19547 0.93529 0.0
H1166 H 0.98011 0.13315 0.98961 0.0
C1167 C 0.0193 0.2022 0.07696 0.0
C1168 C 0.00817 0.19688 0.01662 0.0
C1169 C 0.02862 0.207 0.1034 0.0
C1170 C 0.9705 0.17267 0.90706 0.0
C1171 C 0.98143 0.17833 0.93268 0.0
C1172 C 0.98758 0.15099 0.99692 0.0
C1173 C 0.02138 0.18603 0.06006 0.0
C1174 C 0.00984 0.1799 0.03244 0.0
C1175 C 0.97328 0.16189 0.95417 0.0
C1176 C 0.98566 0.16795 0.98131 0.0
H1177 H 0.05183 0.17094 0.10449 0.0
H1178 H 0.03621 0.1631 0.0578 0.0
H1179 H -0.0 0.14316 0.03373 0.0
H1180 H 0.92786 0.11649 0.92016 0.0
H1181 H 0.94636 0.12663 0.96527 0.0
C1182 C 0.81859 0.78363 0.92032 0.0
C1183 C 0.84196 0.79005 0.91427 0.0
C1184 C 0.81234 0.78787 0.94622 0.0
C1185 C 0.83812 0.82629 1.00688 0.0
H1186 H 0.77794 0.7843 0.04005 0.0
C1187 C 0.78795 0.81432 0.11705 0.0
C1188 C 0.79441 0.83781 0.12249 0.0
C1189 C 0.79242 0.8077 0.09146 0.0
C1190 C 0.79487 0.7962 0.03117 0.0
H1191 H 0.87688 0.80516 0.9315 0.0
H1192 H 0.86591 0.81216 0.97682 0.0
H1193 H 0.78895 0.77322 0.99725 0.0
H1194 H 0.80995 0.87254 0.10459 0.0
H1195 H 0.81752 0.86095 0.06 0.0
H1196 H 0.84417 0.84912 0.04096 0.0
C1197 C 0.85246 0.80422 0.96127 0.0
C1198 C 0.80113 0.78992 1.00644 0.0
C1199 C 0.85873 0.79996 0.9353 0.0
C1200 C 0.80467 0.85429 0.10123 0.0
C1201 C 0.80926 0.84769 0.07569 0.0
C1202 C 0.83183 0.83259 0.03153 0.0
C1203 C 0.82925 0.79864 0.96696 0.0
C1204 C 0.82285 0.80489 0.99389 0.0
C1205 C 0.80361 0.82438 0.07059 0.0
C1206 C 0.81009 0.81768 0.04404 0.0
H1207 H 0.80513 0.77601 0.90472 0.0
H1208 H 0.79436 0.78349 0.94962 0.0
H1209 H 0.85485 0.83844 0.99776 0.0
H1210 H 0.78006 0.8011 0.13286 0.0
H1211 H 0.78792 0.78963 0.08842 0.0
C1212 C 0.185 0.05061 0.93185 0.0
C1213 C 0.19946 0.04695 0.91373 0.0
C1214 C 0.18119 0.04167 0.95865 0.0
C1215 C 0.20372 0.01601 1.0109 0.0
H1216 H 0.14054 0.9879 0.03958 0.0
C1217 C 0.14211 0.94991 0.10412 0.0
C1218 C 0.15818 0.95877 0.12595 0.0
C1219 C 0.14787 0.96084 0.0784 0.0
C1220 C 0.15824 0.99543 0.03181 0.0
H1221 H 0.22206 0.03183 0.91021 0.0
H1222 H 0.21528 0.01621 0.95625 0.0
H1223 H 0.14965 0.00771 0.99547 0.0
H1224 H 0.19326 0.98588 0.13733 0.0
H1225 H 0.2031 0.00499 0.09292 0.0
H1226 H 0.21214 0.00301 0.04671 0.0
C1227 C 0.20698 0.02613 0.95012 0.0
C1228 C 0.16358 0.00719 1.00662 0.0
C1229 C 0.21078 0.03504 0.92349 0.0
C1230 C 0.18042 0.97841 0.12106 0.0
C1231 C 0.18612 0.9894 0.09542 0.0
C1232 C 0.19836 0.00416 0.036 0.0
C1233 C 0.19179 0.02889 0.96799 0.0
C1234 C 0.18638 0.01756 0.99568 0.0
C1235 C 0.16981 0.98102 0.07379 0.0
C1236 C 0.17551 0.99358 0.04683 0.0
H1237 H 0.17594 0.05963 0.92506 0.0
H1238 H 0.16969 0.04452 0.97192 0.0
H1239 H 0.22155 0.02397 1.00343 0.0
H1240 H 0.12483 0.93483 0.10703 0.0
H1241 H 0.13499 0.95352 0.06217 0.0
C1242 C 0.61174 0.4877 0.2647 0.0
C1243 C 0.60578 0.46688 0.25048 0.0
C1244 C 0.62345 0.4927 0.28981 0.0
C1245 C 0.64187 0.46789 0.34708 0.0
H1246 H 0.69061 0.53285 0.35546 0.0
C1247 C 0.7066 0.50029 0.43958 0.0
C1248 C 0.70972 0.52081 0.45239 0.0
C1249 C 0.69527 0.49322 0.41409 0.0
C1250 C 0.67701 0.51466 0.35359 0.0
H1251 H 0.60654 0.43439 0.25239 0.0
H1252 H 0.62718 0.44315 0.29632 0.0
H1253 H 0.66669 0.52058 0.31429 0.0
H1254 H 0.70428 0.5505 0.4477 0.0
H1255 H 0.68503 0.53848 0.40342 0.0
H1256 H 0.65241 0.46211 0.38655 0.0
C1257 C 0.62258 0.45558 0.28808 0.0
C1258 C 0.66313 0.50759 0.32996 0.0
C1259 C 0.61062 0.45048 0.26291 0.0
C1260 C 0.70229 0.53464 0.43845 0.0
C1261 C 0.69123 0.52774 0.41295 0.0
C1262 C 0.65586 0.47498 0.37077 0.0
C1263 C 0.62987 0.47716 0.30143 0.0
C1264 C 0.64508 0.48419 0.32648 0.0
C1265 C 0.68707 0.50667 0.40065 0.0
C1266 C 0.67342 0.49855 0.37451 0.0
H1267 H 0.60819 0.50068 0.25586 0.0
H1268 H 0.62804 0.50914 0.29978 0.0
H1269 H 0.62813 0.44975 0.34527 0.0
H1270 H 0.71189 0.48908 0.44983 0.0
H1271 H 0.69261 0.47703 0.40509 0.0
C1272 C 0.4813 0.19891 0.43541 0.0
C1273 C 0.46502 0.18125 0.45285 0.0
C1274 C 0.48696 0.1932 0.40994 0.0
C1275 C 0.46634 0.14798 0.35617 0.0
H1276 H 0.53229 0.17289 0.34043 0.0
C1277 C 0.49466 0.11638 0.26106 0.0
C1278 C 0.5148 0.13265 0.24674 0.0
C1279 C 0.48944 0.1218 0.28689 0.0
C1280 C 0.51379 0.166 0.34415 0.0
H1281 H 0.44116 0.14384 0.45647 0.0
H1282 H 0.45046 0.13402 0.41165 0.0
H1283 H 0.52056 0.18421 0.38249 0.0
H1284 H 0.54557 0.16721 0.24878 0.0
H1285 H 0.5362 0.17705 0.29337 0.0
H1286 H 0.45935 0.13038 0.31766 0.0
C1287 C 0.45905 0.15225 0.41787 0.0
C1288 C 0.50708 0.17249 0.3684 0.0
C1289 C 0.45371 0.15789 0.44355 0.0
C1290 C 0.53009 0.15415 0.25941 0.0
C1291 C 0.52463 0.15978 0.28509 0.0
C1292 C 0.47302 0.1418 0.33172 0.0
C1293 C 0.47615 0.16976 0.40103 0.0
C1294 C 0.48327 0.16346 0.37477 0.0
C1295 C 0.5039 0.14388 0.299 0.0
C1296 C 0.49687 0.15055 0.32533 0.0
H1297 H 0.49053 0.21705 0.44197 0.0
H1298 H 0.50003 0.20712 0.39732 0.0
H1299 H 0.44786 0.14091 0.36034 0.0
H1300 H 0.48255 0.09961 0.25194 0.0
H1301 H 0.47374 0.1087 0.29711 0.0
C1302 C 0.87242 0.36646 0.24772 0.0
C1303 C 0.8654 0.38296 0.24163 0.0
C1304 C 0.86856 0.35617 0.2737 0.0
C1305 C 0.86743 0.3435 0.33385 0.0
H1306 H 0.80884 0.32727 0.36994 0.0
C1307 C 0.84658 0.30705 0.44479 0.0
C1308 C 0.82328 0.29039 0.45151 0.0
C1309 C 0.85221 0.31791 0.41907 0.0
C1310 C 0.82519 0.33143 0.36008 0.0
H1311 H 0.84954 0.40212 0.25879 0.0
H1312 H 0.84324 0.38454 0.30422 0.0
H1313 H 0.81826 0.34774 0.32624 0.0
H1314 H 0.78776 0.27164 0.43575 0.0
H1315 H 0.79763 0.29021 0.39077 0.0
H1316 H 0.87408 0.32665 0.36735 0.0
C1317 C 0.85134 0.3792 0.28867 0.0
C1318 C 0.83079 0.34356 0.33512 0.0
C1319 C 0.8552 0.38951 0.26264 0.0
C1320 C 0.80589 0.28437 0.4314 0.0
C1321 C 0.81153 0.29524 0.40563 0.0
C1322 C 0.86182 0.33136 0.3588 0.0
C1323 C 0.85758 0.36206 0.29445 0.0
C1324 C 0.85198 0.34976 0.32158 0.0
C1325 C 0.83473 0.31245 0.39921 0.0
C1326 C 0.84059 0.3251 0.3723 0.0
H1327 H 0.88029 0.36088 0.23214 0.0
H1328 H 0.87344 0.34293 0.27713 0.0
H1329 H 0.88401 0.34811 0.32428 0.0
H1330 H 0.86049 0.31224 0.45969 0.0
H1331 H 0.87022 0.3312 0.41512 0.0
C1332 C 0.35401 0.86197 0.78571 0.0
C1333 C 0.37373 0.85942 0.79023 0.0
C1334 C 0.34225 0.85591 0.76059 0.0
C1335 C 0.33513 0.82176 0.69638 0.0
H1336 H 0.3037 0.85489 0.6718 0.0
C1337 C 0.28951 0.83419 0.59225 0.0
C1338 C 0.27881 0.81135 0.58132 0.0
C1339 C 0.29947 0.83904 0.61837 0.0
C1340 C 0.31251 0.8455 0.67807 0.0
H1341 H 0.39687 0.84905 0.77117 0.0
H1342 H 0.377 0.83946 0.72684 0.0
H1343 H 0.3263 0.86691 0.71365 0.0
H1344 H 0.2693 0.77544 0.59025 0.0
H1345 H 0.28591 0.78371 0.63648 0.0
H1346 H 0.32227 0.80117 0.65984 0.0
C1347 C 0.37015 0.8455 0.7431 0.0
C1348 C 0.32528 0.85221 0.70252 0.0
C1349 C 0.38179 0.85129 0.76848 0.0
C1350 C 0.27731 0.79321 0.59797 0.0
C1351 C 0.28718 0.79807 0.62438 0.0
C1352 C 0.32258 0.81524 0.67164 0.0
C1353 C 0.34998 0.84743 0.73885 0.0
C1354 C 0.3368 0.84046 0.71219 0.0
C1355 C 0.29885 0.82118 0.63477 0.0
C1356 C 0.31113 0.82708 0.662 0.0
H1357 H 0.34704 0.86793 0.80193 0.0
H1358 H 0.32662 0.85729 0.75863 0.0
H1359 H 0.34335 0.81194 0.70317 0.0
H1360 H 0.29112 0.84871 0.58016 0.0
H1361 H 0.30852 0.85711 0.62514 0.0
C1362 C 0.18454 0.47458 0.59545 0.0
C1363 C 0.16676 0.46333 0.57574 0.0
C1364 C 0.17935 0.47958 0.62164 0.0
C1365 C 0.12938 0.46493 0.66951 0.0
H1366 H 0.17367 0.52377 0.70375 0.0
C1367 C 0.13693 0.52786 0.76836 0.0
C1368 C 0.12562 0.51043 0.78843 0.0
C1369 C 0.14101 0.52205 0.74205 0.0
C1370 C 0.16093 0.50738 0.6944 0.0
H1371 H 0.12939 0.44803 0.56866 0.0
H1372 H 0.12052 0.457 0.6137 0.0
H1373 H 0.18286 0.51341 0.65944 0.0
H1374 H 0.10912 0.473 0.79597 0.0
H1375 H 0.1165 0.46302 0.75069 0.0
H1376 H 0.1071 0.45921 0.70397 0.0
C1377 C 0.13846 0.46172 0.60927 0.0
C1378 C 0.1664 0.50122 0.66908 0.0
C1379 C 0.1436 0.45665 0.58322 0.0
C1380 C 0.11783 0.48697 0.78114 0.0
C1381 C 0.12199 0.48119 0.75496 0.0
C1382 C 0.12385 0.47113 0.69472 0.0
C1383 C 0.15626 0.47352 0.62883 0.0
C1384 C 0.15072 0.47988 0.65623 0.0
C1385 C 0.13396 0.49865 0.73509 0.0
C1386 C 0.13955 0.49243 0.70763 0.0
H1387 H 0.20257 0.48001 0.59048 0.0
H1388 H 0.19352 0.4883 0.63623 0.0
H1389 H 0.1169 0.44822 0.66057 0.0
H1390 H 0.1432 0.54611 0.77317 0.0
H1391 H 0.14988 0.53597 0.72723 0.0
C1392 C 0.45737 0.60509 0.75999 0.0
C1393 C 0.47554 0.60749 0.77726 0.0
C1394 C 0.46235 0.61498 0.7336 0.0
C1395 C 0.47941 0.65087 0.68684 0.0
H1396 H 0.53142 0.65525 0.64498 0.0
C1397 C 0.51529 0.7105 0.59061 0.0
C1398 C 0.52258 0.7021 0.56836 0.0
C1399 C 0.5099 0.69891 0.61599 0.0
C1400 C 0.51668 0.65407 0.65615 0.0
H1401 H 0.51313 0.62142 0.77958 0.0
H1402 H 0.5217 0.63865 0.7344 0.0
H1403 H 0.51974 0.63288 0.68717 0.0
H1404 H 0.53035 0.67506 0.55589 0.0
H1405 H 0.52066 0.65485 0.59949 0.0
H1406 H 0.47591 0.67148 0.65525 0.0
C1407 C 0.50355 0.62898 0.7408 0.0
C1408 C 0.51012 0.6414 0.6807 0.0
C1409 C 0.4986 0.61912 0.76698 0.0
C1410 C 0.52494 0.68222 0.57248 0.0
C1411 C 0.51943 0.67059 0.5977 0.0
C1412 C 0.48587 0.66343 0.66213 0.0
C1413 C 0.48561 0.62748 0.72381 0.0
C1414 C 0.49151 0.63974 0.69661 0.0
C1415 C 0.51154 0.67854 0.61981 0.0
C1416 C 0.5047 0.66534 0.64642 0.0
H1417 H 0.43943 0.59638 0.76721 0.0
H1418 H 0.44797 0.61308 0.72102 0.0
H1419 H 0.46518 0.65031 0.69855 0.0
H1420 H 0.51321 0.72571 0.58829 0.0
H1421 H 0.50434 0.70591 0.63258 0.0
C1422 C 0.10046 0.98371 0.22526 0.0
C1423 C 0.12322 0.98813 0.2311 0.0
C1424 C 0.09503 0.0016 0.22723 0.0
C1425 C 0.12375 0.0656 0.22205 0.0
H1426 H 0.06184 0.05444 0.24101 0.0
C1427 C 0.09596 0.13634 0.21173 0.0
C1428 C 0.07419 0.12849 0.19889 0.0
C1429 C 0.103 0.12033 0.21954 0.0
C1430 C 0.0792 0.0578 0.23563 0.0
H1431 H 0.15769 0.01448 0.24534 0.0
H1432 H 0.14805 0.04567 0.24911 0.0
H1433 H 0.072 0.02418 0.25005 0.0
H1434 H 0.04283 0.09775 0.18398 0.0
H1435 H 0.05513 0.07001 0.1975 0.0
H1436 H 0.13074 0.09909 0.20717 0.0
C1437 C 0.13456 0.02844 0.24251 0.0
C1438 C 0.08503 0.04048 0.2408 0.0
C1439 C 0.14002 0.01051 0.24054 0.0
C1440 C 0.05972 0.1044 0.19382 0.0
C1441 C 0.06665 0.08845 0.2018 0.0
C1442 C 0.11795 0.08298 0.21701 0.0
C1443 C 0.11218 0.02434 0.23516 0.0
C1444 C 0.10716 0.04393 0.23342 0.0
C1445 C 0.08828 0.0962 0.21488 0.0
C1446 C 0.09541 0.079 0.22309 0.0
H1447 H 0.08705 0.96668 0.21797 0.0
H1448 H 0.07769 -0.00215 0.22113 0.0
H1449 H 0.14085 0.06873 0.2158 0.0
H1450 H 0.10748 0.1548 0.21597 0.0
H1451 H 0.11976 0.12677 0.22963 0.0
C1452 C 0.98944 0.12174 0.22765 0.0
C1453 C 0.98816 0.14156 0.21967 0.0
C1454 C 0.9698 0.09938 0.22576 0.0
C1455 C 0.90555 0.06561 0.21205 0.0
H1456 H 0.92202 0.02228 0.17881 0.0
C1457 C 0.84017 0.96621 0.19563 0.0
C1458 C 0.84374 0.9553 0.17283 0.0
C1459 C 0.85558 0.98995 0.2011 0.0
C1460 C 0.91702 0.0342 0.18776 0.0
H1461 H 0.96482 0.15365 0.2055 0.0
H1462 H 0.93055 0.11449 0.2017 0.0
H1463 H 0.95272 0.06112 0.19175 0.0
H1464 H 0.86501 0.96122 0.13662 0.0
H1465 H 0.89146 0.00267 0.14573 0.0
H1466 H 0.86966 0.03856 0.20728 0.0
C1467 C 0.94668 0.11624 0.2097 0.0
C1468 C 0.9347 0.05639 0.1957 0.0
C1469 C 0.96633 0.13871 0.21191 0.0
C1470 C 0.86195 0.96902 0.15454 0.0
C1471 C 0.87723 0.99275 0.15989 0.0
C1472 C 0.88775 0.04327 0.20403 0.0
C1473 C 0.94849 0.09626 0.21546 0.0
C1474 C 0.92926 0.07238 0.20805 0.0
C1475 C 0.87478 0.00328 0.18378 0.0
C1476 C 0.89331 0.02734 0.1917 0.0
H1477 H 0.00597 0.1234 0.23399 0.0
H1478 H 0.97163 0.08442 0.23117 0.0
H1479 H 0.90075 0.07748 0.22154 0.0
H1480 H 0.82627 0.95614 0.21013 0.0
H1481 H 0.8532 0.99746 0.2197 0.0
C1482 C 0.86921 0.86199 0.23504 0.0
C1483 C 0.86344 0.87738 0.22175 0.0
C1484 C 0.89211 0.86594 0.23422 0.0
C1485 C 0.95346 0.90992 0.21504 0.0
H1486 H 0.95794 0.85469 0.19806 0.0
C1487 C 0.0361 0.91705 0.16733 0.0
C1488 C 0.04526 0.90413 0.17986 0.0
C1489 C 0.01371 0.91279 0.17391 0.0
C1490 C 0.95697 0.87022 0.20305 0.0
H1491 H 0.87757 0.90981 0.19872 0.0
H1492 H 0.91727 0.91646 0.19689 0.0
H1493 H 0.91993 0.85044 0.20945 0.0
H1494 H 0.03752 0.87564 0.20793 0.0
H1495 H -0.00193 0.86796 0.21911 0.0
H1496 H 0.99041 0.92971 0.20774 0.0
C1497 C 0.90424 0.90146 0.20822 0.0
C1498 C 0.93523 0.86782 0.20975 0.0
C1499 C 0.88139 0.89761 0.20921 0.0
C1500 C 0.03096 0.88589 0.19791 0.0
C1501 C 0.00841 0.88151 0.20436 0.0
C1502 C 0.97512 0.91232 0.20811 0.0
C1503 C 0.90972 0.88528 0.21997 0.0
C1504 C 0.93316 0.88768 0.21548 0.0
C1505 C -0.00012 0.89541 0.19301 0.0
C1506 C 0.97703 0.89253 0.20166 0.0
H1507 H 0.85584 0.84634 0.24512 0.0
H1508 H 0.89585 0.85343 0.24406 0.0
H1509 H 0.95261 0.92554 0.21983 0.0
H1510 H 0.04655 0.93113 0.1532 0.0
H1511 H 0.00736 0.92343 0.16442 0.0
C1512 C 0.98209 0.10191 0.80128 0.0
C1513 C 0.98592 0.12463 0.79655 0.0
C1514 C 0.0009 0.09786 0.80263 0.0
C1515 C 0.06253 0.11927 0.78746 0.0
H1516 H 0.06129 0.08994 0.85674 0.0
C1517 C 0.13831 0.10434 0.82344 0.0
C1518 C 0.13143 0.08278 0.83639 0.0
C1519 C 0.12178 0.11122 0.8177 0.0
C1520 C 0.06183 0.09788 0.83715 0.0
H1521 H 0.01237 0.16046 0.78696 0.0
H1522 H 0.04534 0.15315 0.78901 0.0
H1523 H 0.02982 0.09758 0.84539 0.0
H1524 H 0.10182 0.0515 0.85321 0.0
H1525 H 0.07316 0.06314 0.84275 0.0
H1526 H 0.0943 0.11895 0.7789 0.0
C1527 C 0.0277 0.13864 0.79192 0.0
C1528 C 0.04381 0.10229 0.83071 0.0
C1529 C 0.00882 0.14278 0.79074 0.0
C1530 C 0.10779 0.06833 0.8435 0.0
C1531 C 0.09132 0.07509 0.8376 0.0
C1532 C 0.08052 0.11455 0.79377 0.0
C1533 C 0.02393 0.11635 0.79905 0.0
C1534 C 0.04378 0.11269 0.80567 0.0
C1535 C 0.09806 0.09663 0.8247 0.0
C1536 C 0.08015 0.10344 0.81855 0.0
H1537 H 0.96468 0.08744 0.80553 0.0
H1538 H -0.00247 0.08042 0.80769 0.0
H1539 H 0.06289 0.1274 0.76806 0.0
H1540 H 0.15642 0.11584 0.81766 0.0
H1541 H 0.1276 0.12801 0.80797 0.0
C1542 C 0.91508 0.03189 0.85545 0.0
C1543 C 0.90149 0.04042 0.8433 0.0
C1544 C 0.90968 0.00879 0.8513 0.0
C1545 C 0.87862 0.95897 0.80369 0.0
H1546 H 0.89034 0.92573 0.8614 0.0
C1547 C 0.85499 0.86072 0.80138 0.0
C1548 C 0.87232 0.85623 0.8117 0.0
C1549 C 0.85824 0.8834 0.80218 0.0
C1550 C 0.88717 0.93489 0.84503 0.0
H1551 H 0.87104 0.03114 0.81795 0.0
H1552 H 0.86118 0.99037 0.81127 0.0
H1553 H 0.89434 0.96381 0.87096 0.0
H1554 H 0.90742 0.87243 0.82886 0.0
H1555 H 0.91287 0.9118 0.8304 0.0
H1556 H 0.87096 0.92948 0.778 0.0
C1557 C 0.87634 0.00179 0.82356 0.0
C1558 C 0.88946 0.95672 0.85048 0.0
C1559 C 0.88185 0.02506 0.8276 0.0
C1560 C 0.89361 0.87517 0.82096 0.0
C1561 C 0.89672 0.89772 0.822 0.0
C1562 C 0.87602 0.9369 0.79833 0.0
C1563 C 0.8904 0.99349 0.8351 0.0
C1564 C 0.88568 0.96927 0.82977 0.0
C1565 C 0.87876 0.90188 0.81351 0.0
C1566 C 0.88072 0.9249 0.81886 0.0
H1567 H 0.93041 0.04325 0.86755 0.0
H1568 H 0.92117 0.0032 0.86012 0.0
H1569 H 0.87579 0.96824 0.78718 0.0
H1570 H 0.83843 0.84655 0.79397 0.0
H1571 H 0.84416 0.88621 0.79545 0.0
C1572 C 0.1389 0.97386 0.80674 0.0
C1573 C 0.1411 0.99622 0.80821 0.0
C1574 C 0.11668 0.95364 0.80645 0.0
C1575 C 0.05278 0.93351 0.79907 0.0
H1576 H 0.04448 0.88428 0.84925 0.0
C1577 C 0.96657 0.87494 0.85437 0.0
C1578 C 0.95639 0.85062 0.85049 0.0
C1579 C 0.98959 0.89016 0.84621 0.0
C1580 C 0.04663 0.89775 0.83489 0.0
H1581 H 0.12162 0.01482 0.80882 0.0
H1582 H 0.08336 0.97998 0.80878 0.0
H1583 H 0.08405 0.91579 0.83807 0.0
H1584 H 0.96278 0.82313 0.8361 0.0
H1585 H 0.00365 0.85002 0.82264 0.0
H1586 H 0.01529 0.9162 0.79735 0.0
C1587 C 0.09858 0.97782 0.80753 0.0
C1588 C 0.06926 0.91574 0.82833 0.0
C1589 C 0.12066 -0.00208 0.80775 0.0
C1590 C 0.97015 0.84178 0.83936 0.0
C1591 C 0.99346 0.85709 0.83164 0.0
C1592 C 0.03024 0.91578 0.80595 0.0
C1593 C 0.09624 0.95538 0.80755 0.0
C1594 C 0.07259 0.93424 0.81095 0.0
C1595 C 0.00311 0.88144 0.83442 0.0
C1596 C 0.02697 0.8981 0.82445 0.0
H1597 H 0.15428 0.97191 0.80704 0.0
H1598 H 0.11553 0.93665 0.80605 0.0
H1599 H 0.05463 0.94707 0.78507 0.0
H1600 H 0.95651 0.88239 0.86279 0.0
H1601 H -0.00322 0.90887 0.84883 0.0
C1602 C 0.81819 0.34473 0.57034 0.0
C1603 C 0.79938 0.32216 0.56473 0.0
C1604 C 0.8142 0.36349 0.57454 0.0
C1605 C 0.76707 0.37816 0.58646 0.0
H1606 H 0.80577 0.43231 0.5411 0.0
C1607 C 0.73375 0.43647 0.54234 0.0
C1608 C 0.74857 0.46092 0.54259 0.0
C1609 C 0.74213 0.42165 0.55017 0.0
C1610 C 0.79506 0.41753 0.55427 0.0
H1611 H 0.76152 0.30129 0.56106 0.0
H1612 H 0.75464 0.33378 0.56817 0.0
H1613 H 0.81672 0.40229 0.54759 0.0
H1614 H 0.7839 0.48901 0.55111 0.0
H1615 H 0.7987 0.46287 0.56439 0.0
H1616 H 0.74482 0.39289 0.59203 0.0
C1617 C 0.77247 0.33712 0.56949 0.0
C1618 C 0.80137 0.40035 0.55808 0.0
C1619 C 0.77644 0.31846 0.56521 0.0
C1620 C 0.77207 0.47023 0.55066 0.0
C1621 C 0.78054 0.45531 0.55824 0.0
C1622 C 0.76072 0.39525 0.58253 0.0
C1623 C 0.79132 0.35998 0.5734 0.0
C1624 C 0.78703 0.3801 0.57352 0.0
C1625 C 0.76557 0.43087 0.55825 0.0
C1626 C 0.77426 0.41473 0.56571 0.0
H1627 H 0.83608 0.34816 0.57016 0.0
H1628 H 0.82906 0.38085 0.57785 0.0
H1629 H 0.75591 0.36302 0.59892 0.0
H1630 H 0.71555 0.42871 0.53629 0.0
H1631 H 0.73029 0.40287 0.5495 0.0
C1632 C 0.64106 0.47564 0.56282 0.0
C1633 C 0.66288 0.47667 0.56446 0.0
C1634 C 0.62019 0.45403 0.56431 0.0
C1635 C 0.59654 0.39018 0.57877 0.0
H1636 H 0.55348 0.38113 0.51964 0.0
C1637 C 0.54476 0.30482 0.51906 0.0
C1638 C 0.52024 0.29346 0.5216 0.0
C1639 C 0.5587 0.32784 0.52805 0.0
C1640 C 0.56513 0.38353 0.53653 0.0
H1641 H 0.67981 0.45606 0.57133 0.0
H1642 H 0.64386 0.41876 0.57347 0.0
H1643 H 0.58445 0.42077 0.53143 0.0
H1644 H 0.49106 0.29772 0.53453 0.0
H1645 H 0.51575 0.33867 0.54941 0.0
H1646 H 0.57822 0.35271 0.58224 0.0
C1647 C 0.64258 0.43445 0.57124 0.0
C1648 C 0.58281 0.40621 0.54344 0.0
C1649 C 0.66334 0.45594 0.56981 0.0
C1650 C 0.50991 0.30603 0.53229 0.0
C1651 C 0.52394 0.32935 0.54084 0.0
C1652 C 0.57914 0.36757 0.57156 0.0
C1653 C 0.62075 0.43308 0.56753 0.0
C1654 C 0.59925 0.40974 0.56403 0.0
C1655 C 0.54845 0.34017 0.5393 0.0
C1656 C 0.56376 0.36407 0.5499 0.0
H1657 H 0.64007 0.4913 0.55879 0.0
H1658 H 0.60367 0.45367 0.56187 0.0
H1659 H 0.60851 0.39224 0.59513 0.0
H1660 H 0.55332 0.29567 0.51105 0.0
H1661 H 0.57759 0.33599 0.5265 0.0
C1662 C 0.69759 0.22079 0.52644 0.0
C1663 C 0.71292 0.24167 0.51264 0.0
C1664 C 0.67439 0.21499 0.53163 0.0
C1665 C 0.62933 0.23043 0.51116 0.0
H1666 H 0.60257 0.20563 0.5825 0.0
C1667 C 0.54757 0.23108 0.54782 0.0
C1668 C 0.52882 0.20901 0.55535 0.0
C1669 C 0.57021 0.2346 0.54552 0.0
C1670 C 0.60984 0.21247 0.56249 0.0
H1671 H 0.71574 0.27252 0.49295 0.0
H1672 H 0.67581 0.26274 0.50239 0.0
H1673 H 0.64121 0.21133 0.57067 0.0
H1674 H 0.51963 0.17403 0.56888 0.0
H1675 H 0.55942 0.18043 0.56521 0.0
H1676 H 0.59829 0.23213 0.50326 0.0
C1677 C 0.68138 0.25055 0.50882 0.0
C1678 C 0.63186 0.21558 0.5556 0.0
C1679 C 0.70441 0.25624 0.5035 0.0
C1680 C 0.53363 0.1912 0.56287 0.0
C1681 C 0.5564 0.19483 0.5608 0.0
C1682 C 0.60755 0.22761 0.51817 0.0
C1683 C 0.66611 0.22999 0.52319 0.0
C1684 C 0.64198 0.22487 0.52994 0.0
C1685 C 0.57466 0.21625 0.551 0.0
C1686 C 0.59772 0.21888 0.54398 0.0
H1687 H 0.70364 0.2092 0.53374 0.0
H1688 H 0.66301 0.19886 0.54242 0.0
H1689 H 0.63627 0.23707 0.49099 0.0
H1690 H 0.54459 0.24527 0.5421 0.0
H1691 H 0.58412 0.25142 0.5384 0.0
C1692 C 0.81288 0.45924 0.1688 0.0
C1693 C 0.80435 0.43655 0.17948 0.0
C1694 C 0.79729 0.46689 0.16108 0.0
C1695 C 0.73961 0.44496 0.13351 0.0
H1696 H 0.73479 0.49444 0.17056 0.0
C1697 C 0.65426 0.44732 0.13657 0.0
C1698 C 0.6545 0.46862 0.14018 0.0
C1699 C 0.67516 0.44682 0.13532 0.0
C1700 C 0.73621 0.48098 0.15941 0.0
H1701 H 0.77284 0.40437 0.19098 0.0
H1702 H 0.74589 0.41758 0.17698 0.0
H1703 H 0.7673 0.48784 0.18133 0.0
H1704 H 0.67706 0.50636 0.14299 0.0
H1705 H 0.71365 0.50552 0.14009 0.0
H1706 H 0.70864 0.43782 0.11168 0.0
C1707 C 0.76457 0.42943 0.17476 0.0
C1708 C 0.75478 0.47718 0.16575 0.0
C1709 C 0.78005 0.42197 0.18293 0.0
C1710 C 0.67622 0.48961 0.14038 0.0
C1711 C 0.69721 0.48912 0.13899 0.0
C1712 C 0.72132 0.44898 0.12684 0.0
C1713 C 0.77301 0.45177 0.16342 0.0
C1714 C 0.7561 0.45861 0.15351 0.0
C1715 C 0.69693 0.46763 0.13738 0.0
C1716 C 0.71882 0.46644 0.14048 0.0
H1717 H 0.83151 0.47085 0.16587 0.0
H1718 H 0.80412 0.48425 0.15244 0.0
H1719 H 0.74049 0.43068 0.12363 0.0
H1720 H 0.6379 0.4308 0.13618 0.0
H1721 H 0.6741 0.42989 0.13438 0.0
C1722 C 0.53364 0.19808 0.12391 0.0
C1723 C 0.51285 0.17852 0.13312 0.0
C1724 C 0.53492 0.21969 0.12035 0.0
C1725 C 0.50897 0.25313 0.14824 0.0
H1726 H 0.55245 0.29999 0.09753 0.0
C1727 C 0.53906 0.35291 0.15508 0.0
C1728 C 0.56362 0.36696 0.15615 0.0
C1729 C 0.52859 0.32913 0.14797 0.0
C1730 C 0.5401 0.28704 0.11168 0.0
H1731 H 0.47658 0.16594 0.14404 0.0
H1732 H 0.47877 0.20388 0.13755 0.0
H1733 H 0.5405 0.25882 0.0905 0.0
H1734 H 0.59639 0.36723 0.15007 0.0
H1735 H 0.57818 0.32609 0.13731 0.0
H1736 H 0.50914 0.28165 0.16975 0.0
C1737 C 0.49417 0.20246 0.13343 0.0
C1738 C 0.5333 0.26348 0.10773 0.0
C1739 C 0.49285 0.18068 0.13689 0.0
C1740 C 0.57744 0.35689 0.14958 0.0
C1741 C 0.56702 0.33336 0.14203 0.0
C1742 C 0.51561 0.27674 0.15203 0.0
C1743 C 0.51545 0.22238 0.1259 0.0
C1744 C 0.51844 0.24635 0.1266 0.0
C1745 C 0.54252 0.31921 0.14122 0.0
C1746 C 0.53195 0.29399 0.13438 0.0
H1747 H 0.54936 0.19702 0.12072 0.0
H1748 H 0.55169 0.23461 0.11486 0.0
H1749 H 0.49765 0.24048 0.16332 0.0
H1750 H 0.52798 0.36021 0.16003 0.0
H1751 H 0.50965 0.31855 0.14754 0.0
C1752 C 0.79558 0.32694 0.12655 0.0
C1753 C 0.7997 0.34884 0.13611 0.0
C1754 C 0.77271 0.30807 0.12422 0.0
C1755 C 0.70998 0.29222 0.12471 0.0
H1756 H 0.7002 0.23421 0.15709 0.0
C1757 C 0.6212 0.22315 0.16801 0.0
C1758 C 0.61323 0.19938 0.16252 0.0
C1759 C 0.64388 0.24034 0.16092 0.0
C1760 C 0.70266 0.25015 0.14759 0.0
H1761 H 0.78291 0.3684 0.14919 0.0
H1762 H 0.74322 0.33557 0.14542 0.0
H1763 H 0.74 0.26654 0.14997 0.0
H1764 H 0.62295 0.17497 0.14556 0.0
H1765 H 0.6629 0.20518 0.1334 0.0
H1766 H 0.6726 0.27607 0.12326 0.0
C1767 C 0.75758 0.33294 0.13949 0.0
C1768 C 0.72547 0.26867 0.14342 0.0
C1769 C 0.78041 0.35179 0.14179 0.0
C1770 C 0.62861 0.19314 0.15011 0.0
C1771 C 0.65145 0.2104 0.14317 0.0
C1772 C 0.68721 0.27376 0.12899 0.0
C1773 C 0.75348 0.31071 0.13136 0.0
C1774 C 0.72939 0.29011 0.13248 0.0
C1775 C 0.65921 0.2342 0.14828 0.0
C1776 C 0.68332 0.25273 0.14104 0.0
H1777 H 0.81003 0.32408 0.12182 0.0
H1778 H 0.77012 0.29127 0.11745 0.0
H1779 H 0.71239 0.30832 0.11576 0.0
H1780 H 0.60984 0.22859 0.17756 0.0
H1781 H 0.6495 0.25848 0.16558 0.0
C1782 C 0.42168 0.78284 0.83589 0.0
C1783 C 0.43269 0.80514 0.8481 0.0
C1784 C 0.43033 0.7676 0.83991 0.0
C1785 C 0.46528 0.75477 0.88836 0.0
H1786 H 0.459 0.71089 0.83147 0.0
C1787 C 0.49132 0.67971 0.88463 0.0
C1788 C 0.47071 0.65768 0.883 0.0
C1789 C 0.49019 0.7004 0.88347 0.0
C1790 C 0.46102 0.7232 0.84743 0.0
H1791 H 0.46199 0.82926 0.87337 0.0
H1792 H 0.47738 0.80262 0.88007 0.0
H1793 H 0.45189 0.74297 0.8206 0.0
H1794 H 0.43268 0.64024 0.88118 0.0
H1795 H 0.43094 0.67628 0.87879 0.0
H1796 H 0.47428 0.73451 0.91512 0.0
C1797 C 0.46181 0.79686 0.8677 0.0
C1798 C 0.45681 0.74145 0.84132 0.0
C1799 C 0.45309 0.81217 0.86369 0.0
C1800 C 0.44893 0.65683 0.88226 0.0
C1801 C 0.44786 0.67743 0.8809 0.0
C1802 C 0.46973 0.73655 0.8944 0.0
C1803 C 0.45032 0.77426 0.85614 0.0
C1804 C 0.45819 0.75706 0.86187 0.0
C1805 C 0.46847 0.69928 0.88065 0.0
C1806 C 0.46706 0.72037 0.87408 0.0
H1807 H 0.4059 0.77681 0.82383 0.0
H1808 H 0.42078 0.75022 0.83105 0.0
H1809 H 0.46632 0.76635 0.90472 0.0
H1810 H 0.50837 0.68101 0.8852 0.0
H1811 H 0.50628 0.71717 0.88322 0.0
C1812 C 0.32189 0.79861 0.90793 0.0
C1813 C 0.34366 0.80203 0.89886 0.0
C1814 C 0.30237 0.77604 0.90925 0.0
C1815 C 0.2838 0.71251 0.90435 0.0
H1816 H 0.22852 0.70752 0.86956 0.0
C1817 C 0.21584 0.62879 0.85066 0.0
C1818 C 0.19212 0.62016 0.85707 0.0
C1819 C 0.23292 0.65105 0.85929 0.0
C1820 C 0.2437 0.70867 0.87965 0.0
H1821 H 0.36235 0.78424 0.88615 0.0
H1822 H 0.32847 0.74518 0.88806 0.0
H1823 H 0.26134 0.74611 0.88113 0.0
H1824 H 0.1676 0.62854 0.87656 0.0
H1825 H 0.19764 0.6679 0.89113 0.0
H1826 H 0.26652 0.67508 0.90161 0.0
C1827 C 0.32637 0.7598 0.89437 0.0
C1828 C 0.26248 0.73075 0.88644 0.0
C1829 C 0.34586 0.7823 0.89314 0.0
C1830 C 0.18574 0.63471 0.8713 0.0
C1831 C 0.20289 0.65718 0.87967 0.0
C1832 C 0.26515 0.6905 0.89732 0.0
C1833 C 0.30422 0.75645 0.90153 0.0
C1834 C 0.28299 0.73296 0.89826 0.0
C1835 C 0.22668 0.66529 0.87426 0.0
C1836 C 0.24519 0.68842 0.88431 0.0
H1837 H 0.31961 0.81341 0.9127 0.0
H1838 H 0.28566 0.77402 0.91539 0.0
H1839 H 0.2991 0.71353 0.91394 0.0
H1840 H 0.22139 0.61809 0.83972 0.0
H1841 H 0.25111 0.65707 0.85441 0.0
C1842 C 0.20689 0.55354 0.89409 0.0
C1843 C 0.18697 0.53107 0.89575 0.0
C1844 C 0.22933 0.55649 0.89597 0.0
C1845 C 0.2605 0.5242 0.88306 0.0
H1846 H 0.3132 0.58139 0.91109 0.0
C1847 C 0.35846 0.54835 0.87217 0.0
C1848 C 0.37297 0.57095 0.86148 0.0
C1849 C 0.33546 0.5413 0.88029 0.0
C1850 C 0.29863 0.56529 0.90325 0.0
H1851 H 0.17508 0.49422 0.90238 0.0
H1852 H 0.21444 0.49947 0.90609 0.0
H1853 H 0.27338 0.57283 0.92075 0.0
H1854 H 0.37467 0.60379 0.85089 0.0
H1855 H 0.33485 0.59157 0.86525 0.0
H1856 H 0.28599 0.51695 0.86525 0.0
C1857 C 0.2126 0.51474 0.90283 0.0
C1858 C 0.27583 0.5604 0.90871 0.0
C1859 C 0.19005 0.51176 0.90094 0.0
C1860 C 0.36399 0.58625 0.85897 0.0
C1861 C 0.34123 0.57934 0.86742 0.0
C1862 C 0.28337 0.52901 0.87782 0.0
C1863 C 0.23252 0.53709 0.89968 0.0
C1864 C 0.25647 0.54019 0.89792 0.0
C1865 C 0.32677 0.55688 0.87831 0.0
C1866 C 0.30264 0.54997 0.88713 0.0
H1867 H 0.20523 0.56884 0.89014 0.0
H1868 H 0.24419 0.57393 0.8931 0.0
H1869 H 0.24604 0.50858 0.87421 0.0
H1870 H 0.36491 0.53619 0.87438 0.0
H1871 H 0.32463 0.52387 0.8886 0.0
C1872 C 0.33207 0.7919 0.46775 0.0
C1873 C 0.33162 0.81231 0.47515 0.0
C1874 C 0.35309 0.79153 0.46814 0.0
C1875 C 0.4026 0.79865 0.46235 0.0
H1876 H 0.43335 0.81765 0.53304 0.0
C1877 C 0.48139 0.78728 0.49065 0.0
C1878 C 0.47767 0.77405 0.51463 0.0
C1879 C 0.46706 0.79672 0.48449 0.0
C1880 C 0.42508 0.81249 0.51313 0.0
H1881 H 0.35313 0.84873 0.48723 0.0
H1882 H 0.38981 0.8479 0.48829 0.0
H1883 H 0.40162 0.82534 0.52178 0.0
H1884 H 0.45703 0.76169 0.55178 0.0
H1885 H 0.43234 0.77862 0.54126 0.0
H1886 H 0.42562 0.78521 0.45401 0.0
C1887 C 0.37386 0.83225 0.48215 0.0
C1888 C 0.40706 0.81703 0.50659 0.0
C1889 C 0.35287 0.83275 0.48133 0.0
C1890 C 0.4603 0.77174 0.53312 0.0
C1891 C 0.44622 0.7815 0.52715 0.0
C1892 C 0.42086 0.79443 0.46873 0.0
C1893 C 0.37403 0.81145 0.4763 0.0
C1894 C 0.39528 0.80966 0.4814 0.0
C1895 C 0.44902 0.79349 0.50241 0.0
C1896 C 0.43189 0.8008 0.49443 0.0
H1897 H 0.316 0.77588 0.46286 0.0
H1898 H 0.35269 0.77521 0.46367 0.0
H1899 H 0.39383 0.79283 0.44279 0.0
H1900 H 0.49462 0.78937 0.47595 0.0
H1901 H 0.4697 0.80606 0.46538 0.0
C1902 C 0.16606 0.52247 0.46049 0.0
C1903 C 0.18484 0.51816 0.4631 0.0
C1904 C 0.17033 0.54542 0.45722 0.0
C1905 C 0.21763 0.60676 0.44276 0.0
H1906 H 0.18377 0.62376 0.49425 0.0
C1907 C 0.25675 0.69885 0.48817 0.0
C1908 C 0.24259 0.70916 0.49025 0.0
C1909 C 0.24717 0.6755 0.48015 0.0
C1910 C 0.19311 0.61924 0.47942 0.0
H1911 H 0.22275 0.53434 0.46229 0.0
H1912 H 0.23012 0.574 0.45679 0.0
H1913 H 0.1711 0.58246 0.48656 0.0
H1914 H 0.20717 0.70297 0.48571 0.0
H1915 H 0.19029 0.66179 0.47214 0.0
H1916 H 0.24033 0.6436 0.4367 0.0
C1917 C 0.21209 0.55983 0.45712 0.0
C1918 C 0.18581 0.59558 0.47491 0.0
C1919 C 0.20786 0.53702 0.46048 0.0
C1920 C 0.21853 0.6955 0.48435 0.0
C1921 C 0.20886 0.67197 0.4766 0.0
C1922 C 0.22501 0.63037 0.44742 0.0
C1923 C 0.19343 0.56443 0.45627 0.0
C1924 C 0.19844 0.5891 0.45717 0.0
C1925 C 0.22316 0.66182 0.47423 0.0
C1926 C 0.21325 0.63686 0.4664 0.0
H1927 H 0.14812 0.50831 0.46243 0.0
H1928 H 0.15557 0.54836 0.45629 0.0
H1929 H 0.22746 0.60236 0.42854 0.0
H1930 H 0.27535 0.70887 0.49251 0.0
H1931 H 0.25855 0.66805 0.47894 0.0
C1932 C 0.45242 0.65424 0.45317 0.0
C1933 C 0.45814 0.67583 0.46534 0.0
C1934 C 0.42926 0.63578 0.45289 0.0
C1935 C 0.36754 0.62043 0.46595 0.0
H1936 H 0.3607 0.56129 0.49053 0.0
C1937 C 0.28277 0.54919 0.51506 0.0
C1938 C 0.27392 0.52598 0.5061 0.0
C1939 C 0.30515 0.56669 0.50742 0.0
C1940 C 0.36231 0.57759 0.48331 0.0
H1941 H 0.44371 0.69544 0.48494 0.0
H1942 H 0.40349 0.66326 0.48472 0.0
H1943 H 0.39953 0.59381 0.47947 0.0
H1944 H 0.28198 0.50277 0.48293 0.0
H1945 H 0.32138 0.53349 0.46982 0.0
H1946 H 0.33036 0.60436 0.47068 0.0
C1947 C 0.41683 0.66057 0.47523 0.0
C1948 C 0.38453 0.59621 0.47684 0.0
C1949 C 0.43996 0.67906 0.47543 0.0
C1950 C 0.28832 0.52048 0.49019 0.0
C1951 C 0.31084 0.53805 0.48267 0.0
C1952 C 0.34536 0.60186 0.47256 0.0
C1953 C 0.41133 0.63849 0.46478 0.0
C1954 C 0.38745 0.61799 0.46854 0.0
C1955 C 0.31926 0.56141 0.49077 0.0
C1956 C 0.34258 0.5804 0.48179 0.0
H1957 H 0.46596 0.65121 0.44497 0.0
H1958 H 0.42552 0.61914 0.44415 0.0
H1959 H 0.36912 0.63682 0.45917 0.0
H1960 H 0.2722 0.55403 0.52743 0.0
H1961 H 0.31137 0.58446 0.51444 0.0
loop_
_geom_bond_atom_site_label_1
_geom_bond_atom_site_label_2
_geom_bond_distance
_geom_bond_site_symmetry_2
_ccdc_geom_bond_type
Co0 O3 1.970 . S
Co0 N17 1.989 . S
Co0 O25 1.967 . S
Co0 O32 1.920 . S
Co1 O4 1.966 . S
Co1 N10 2.022 . S
Co1 N18 1.993 . S
Co1 O26 1.941 . S
C2 O3 1.258 . S
C2 O4 1.263 . S
O3 Co0 1.970 . S
O3 C2 1.258 . S
O4 Co1 1.966 . S
O4 C2 1.263 . S
C5 O6 1.235 . S
C5 O32 1.289 . S
O6 C5 1.235 . S
C7 C9 1.400 . S
C7 N10 1.351 . S
C7 C12 1.501 . S
C8 C9 1.387 . S
C8 N11 1.341 . S
C9 C7 1.400 . S
C9 C8 1.387 . S
N10 Co1 2.022 . S
N10 C7 1.351 . S
N10 N11 1.365 . S
N11 C8 1.341 . S
N11 N10 1.365 . S
N11 H31 0.862 . S
C12 C7 1.501 . S
C12 H13 0.961 . S
C12 H14 0.961 . S
C12 H15 0.960 . S
H13 C12 0.961 . S
H14 C12 0.961 . S
H15 C12 0.960 . S
C16 N17 1.342 . S
C16 C20 1.401 . S
C16 C21 1.499 . S
N17 Co0 1.989 . S
N17 C16 1.342 . S
N17 N18 1.388 . S
N18 Co1 1.993 . S
N18 N17 1.388 . S
N18 C19 1.346 . S
C19 N18 1.346 . S
C19 C20 1.396 . S
C19 C29 1.510 . S
C20 C16 1.401 . S
C20 C19 1.396 . S
C21 C16 1.499 . S
C21 H22 0.959 . S
C21 H23 0.960 . S
C21 H24 0.961 . S
H22 C21 0.959 . S
H23 C21 0.960 . S
H24 C21 0.961 . S
O25 Co0 1.967 . S
O25 C33 1.258 . S
O26 Co1 1.941 . S
O26 C33 1.266 . S
H27 C29 0.959 . S
H28 C29 0.961 . S
C29 C19 1.510 . S
C29 H27 0.959 . S
C29 H28 0.961 . S
C29 H30 0.960 . S
H30 C29 0.960 . S
H31 N11 0.862 . S
O32 Co0 1.920 . S
O32 C5 1.289 . S
C33 O25 1.258 . S
C33 O26 1.266 . S
Co34 O37 1.970 . S
Co34 N51 1.989 . S
Co34 O59 1.967 . S
Co34 O66 1.920 . S
Co35 O38 1.966 . S
Co35 N44 2.022 . S
Co35 N52 1.993 . S
Co35 O60 1.941 . S
C36 O37 1.258 . S
C36 O38 1.263 . S
O37 Co34 1.970 . S
O37 C36 1.258 . S
O38 Co35 1.966 . S
O38 C36 1.263 . S
C39 O40 1.235 . S
C39 O66 1.289 . S
O40 C39 1.235 . S
C41 C43 1.400 . S
C41 N44 1.351 . S
C41 C46 1.501 . S
C42 C43 1.387 . S
C42 N45 1.341 . S
C43 C41 1.400 . S
C43 C42 1.387 . S
N44 Co35 2.022 . S
N44 C41 1.351 . S
N44 N45 1.365 . S
N45 C42 1.341 . S
N45 N44 1.365 . S
N45 H65 0.862 . S
C46 C41 1.501 . S
C46 H47 0.961 . S
C46 H48 0.961 . S
C46 H49 0.960 . S
H47 C46 0.961 . S
H48 C46 0.961 . S
H49 C46 0.960 . S
C50 N51 1.342 . S
C50 C54 1.401 . S
C50 C55 1.499 . S
N51 Co34 1.989 . S
N51 C50 1.342 . S
N51 N52 1.388 . S
N52 Co35 1.993 . S
N52 N51 1.388 . S
N52 C53 1.346 . S
C53 N52 1.346 . S
C53 C54 1.396 . S
C53 C63 1.510 . S
C54 C50 1.401 . S
C54 C53 1.396 . S
C55 C50 1.499 . S
C55 H56 0.959 . S
C55 H57 0.960 . S
C55 H58 0.961 . S
H56 C55 0.959 . S
H57 C55 0.960 . S
H58 C55 0.961 . S
O59 Co34 1.967 . S
O59 C67 1.258 . S
O60 Co35 1.941 . S
O60 C67 1.266 . S
H61 C63 0.959 . S
H62 C63 0.961 . S
C63 C53 1.510 . S
C63 H61 0.959 . S
C63 H62 0.961 . S
C63 H64 0.960 . S
H64 C63 0.960 . S
H65 N45 0.862 . S
O66 Co34 1.920 . S
O66 C39 1.289 . S
C67 O59 1.258 . S
C67 O60 1.266 . S
Co68 O71 1.970 . S
Co68 N85 1.989 . S
Co68 O93 1.967 . S
Co68 O100 1.920 . S
Co69 O72 1.966 . S
Co69 N78 2.022 . S
Co69 N86 1.993 . S
Co69 O94 1.941 . S
C70 O71 1.258 . S
C70 O72 1.263 . S
O71 Co68 1.970 . S
O71 C70 1.258 . S
O72 Co69 1.966 . S
O72 C70 1.263 . S
C73 O74 1.235 . S
C73 O100 1.289 . S
O74 C73 1.235 . S
C75 C77 1.400 . S
C75 N78 1.351 . S
C75 C80 1.501 . S
C76 C77 1.387 . S
C76 N79 1.341 . S
C77 C75 1.400 . S
C77 C76 1.387 . S
N78 Co69 2.022 . S
N78 C75 1.351 . S
N78 N79 1.365 . S
N79 C76 1.341 . S
N79 N78 1.365 . S
N79 H99 0.862 . S
C80 C75 1.501 . S
C80 H81 0.961 . S
C80 H82 0.961 . S
C80 H83 0.960 . S
H81 C80 0.961 . S
H82 C80 0.961 . S
H83 C80 0.960 . S
C84 N85 1.342 . S
C84 C88 1.401 . S
C84 C89 1.499 . S
N85 Co68 1.989 . S
N85 C84 1.342 . S
N85 N86 1.388 . S
N86 Co69 1.993 . S
N86 N85 1.388 . S
N86 C87 1.346 . S
C87 N86 1.346 . S
C87 C88 1.396 . S
C87 C97 1.510 . S
C88 C84 1.401 . S
C88 C87 1.396 . S
C89 C84 1.499 . S
C89 H90 0.959 . S
C89 H91 0.960 . S
C89 H92 0.961 . S
H90 C89 0.959 . S
H91 C89 0.960 . S
H92 C89 0.961 . S
O93 Co68 1.967 . S
O93 C101 1.258 . S
O94 Co69 1.941 . S
O94 C101 1.266 . S
H95 C97 0.959 . S
H96 C97 0.961 . S
C97 C87 1.510 . S
C97 H95 0.959 . S
C97 H96 0.961 . S
C97 H98 0.960 . S
H98 C97 0.960 . S
H99 N79 0.862 . S
O100 Co68 1.920 . S
O100 C73 1.289 . S
C101 O93 1.258 . S
C101 O94 1.266 . S
Co102 O105 1.970 . S
Co102 N119 1.989 . S
Co102 O127 1.967 . S
Co102 O134 1.920 . S
Co103 O106 1.966 . S
Co103 N112 2.022 . S
Co103 N120 1.993 . S
Co103 O128 1.941 . S
C104 O105 1.258 . S
C104 O106 1.263 . S
O105 Co102 1.970 . S
O105 C104 1.258 . S
O106 Co103 1.966 . S
O106 C104 1.263 . S
C107 O108 1.235 . S
C107 O134 1.289 . S
O108 C107 1.235 . S
C109 C111 1.400 . S
C109 N112 1.351 . S
C109 C114 1.501 . S
C110 C111 1.387 . S
C110 N113 1.341 . S
C111 C109 1.400 . S
C111 C110 1.387 . S
N112 Co103 2.022 . S
N112 C109 1.351 . S
N112 N113 1.365 . S
N113 C110 1.341 . S
N113 N112 1.365 . S
N113 H133 0.862 . S
C114 C109 1.501 . S
C114 H115 0.961 . S
C114 H116 0.961 . S
C114 H117 0.960 . S
H115 C114 0.961 . S
H116 C114 0.961 . S
H117 C114 0.960 . S
C118 N119 1.342 . S
C118 C122 1.401 . S
C118 C123 1.499 . S
N119 Co102 1.989 . S
N119 C118 1.342 . S
N119 N120 1.388 . S
N120 Co103 1.993 . S
N120 N119 1.388 . S
N120 C121 1.346 . S
C121 N120 1.346 . S
C121 C122 1.396 . S
C121 C131 1.510 . S
C122 C118 1.401 . S
C122 C121 1.396 . S
C123 C118 1.499 . S
C123 H124 0.959 . S
C123 H125 0.960 . S
C123 H126 0.961 . S
H124 C123 0.959 . S
H125 C123 0.960 . S
H126 C123 0.961 . S
O127 Co102 1.967 . S
O127 C135 1.258 . S
O128 Co103 1.941 . S
O128 C135 1.266 . S
H129 C131 0.959 . S
H130 C131 0.961 . S
C131 C121 1.510 . S
C131 H129 0.959 . S
C131 H130 0.961 . S
C131 H132 0.960 . S
H132 C131 0.960 . S
H133 N113 0.862 . S
O134 Co102 1.920 . S
O134 C107 1.289 . S
C135 O127 1.258 . S
C135 O128 1.266 . S
Co136 O139 1.970 . S
Co136 N153 1.989 . S
Co136 O161 1.967 . S
Co136 O168 1.920 . S
Co137 O140 1.966 . S
Co137 N146 2.022 . S
Co137 N154 1.993 . S
Co137 O162 1.941 . S
C138 O139 1.258 . S
C138 O140 1.263 . S
O139 Co136 1.970 . S
O139 C138 1.258 . S
O140 Co137 1.966 . S
O140 C138 1.263 . S
C141 O142 1.235 . S
C141 O168 1.289 . S
O142 C141 1.235 . S
C143 C145 1.400 . S
C143 N146 1.351 . S
C143 C148 1.501 . S
C144 C145 1.387 . S
C144 N147 1.341 . S
C145 C143 1.400 . S
C145 C144 1.387 . S
N146 Co137 2.022 . S
N146 C143 1.351 . S
N146 N147 1.365 . S
N147 C144 1.341 . S
N147 N146 1.365 . S
N147 H167 0.862 . S
C148 C143 1.501 . S
C148 H149 0.961 . S
C148 H150 0.961 . S
C148 H151 0.960 . S
H149 C148 0.961 . S
H150 C148 0.961 . S
H151 C148 0.960 . S
C152 N153 1.342 . S
C152 C156 1.401 . S
C152 C157 1.499 . S
N153 Co136 1.989 . S
N153 C152 1.342 . S
N153 N154 1.388 . S
N154 Co137 1.993 . S
N154 N153 1.388 . S
N154 C155 1.346 . S
C155 N154 1.346 . S
C155 C156 1.396 . S
C155 C165 1.510 . S
C156 C152 1.401 . S
C156 C155 1.396 . S
C157 C152 1.499 . S
C157 H158 0.959 . S
C157 H159 0.960 . S
C157 H160 0.961 . S
H158 C157 0.959 . S
H159 C157 0.960 . S
H160 C157 0.961 . S
O161 Co136 1.967 . S
O161 C169 1.258 . S
O162 Co137 1.941 . S
O162 C169 1.266 . S
H163 C165 0.959 . S
H164 C165 0.961 . S
C165 C155 1.510 . S
C165 H163 0.959 . S
C165 H164 0.961 . S
C165 H166 0.960 . S
H166 C165 0.960 . S
H167 N147 0.862 . S
O168 Co136 1.920 . S
O168 C141 1.289 . S
C169 O161 1.258 . S
C169 O162 1.266 . S
Co170 O173 1.970 . S
Co170 N187 1.989 . S
Co170 O195 1.967 . S
Co170 O202 1.920 . S
Co171 O174 1.966 . S
Co171 N180 2.022 . S
Co171 N188 1.993 . S
Co171 O196 1.941 . S
C172 O173 1.258 . S
C172 O174 1.263 . S
O173 Co170 1.970 . S
O173 C172 1.258 . S
O174 Co171 1.966 . S
O174 C172 1.263 . S
C175 O176 1.235 . S
C175 O202 1.289 . S
O176 C175 1.235 . S
C177 C179 1.400 . S
C177 N180 1.351 . S
C177 C182 1.501 . S
C178 C179 1.387 . S
C178 N181 1.341 . S
C179 C177 1.400 . S
C179 C178 1.387 . S
N180 Co171 2.022 . S
N180 C177 1.351 . S
N180 N181 1.365 . S
N181 C178 1.341 . S
N181 N180 1.365 . S
N181 H201 0.862 . S
C182 C177 1.501 . S
C182 H183 0.961 . S
C182 H184 0.961 . S
C182 H185 0.960 . S
H183 C182 0.961 . S
H184 C182 0.961 . S
H185 C182 0.960 . S
C186 N187 1.342 . S
C186 C190 1.401 . S
C186 C191 1.499 . S
N187 Co170 1.989 . S
N187 C186 1.342 . S
N187 N188 1.388 . S
N188 Co171 1.993 . S
N188 N187 1.388 . S
N188 C189 1.346 . S
C189 N188 1.346 . S
C189 C190 1.396 . S
C189 C199 1.510 . S
C190 C186 1.401 . S
C190 C189 1.396 . S
C191 C186 1.499 . S
C191 H192 0.959 . S
C191 H193 0.960 . S
C191 H194 0.961 . S
H192 C191 0.959 . S
H193 C191 0.960 . S
H194 C191 0.961 . S
O195 Co170 1.967 . S
O195 C203 1.258 . S
O196 Co171 1.941 . S
O196 C203 1.266 . S
H197 C199 0.959 . S
H198 C199 0.961 . S
C199 C189 1.510 . S
C199 H197 0.959 . S
C199 H198 0.961 . S
C199 H200 0.960 . S
H200 C199 0.960 . S
H201 N181 0.862 . S
O202 Co170 1.920 . S
O202 C175 1.289 . S
C203 O195 1.258 . S
C203 O196 1.266 . S
Co204 O207 1.970 . S
Co204 N221 1.989 . S
Co204 O229 1.967 . S
Co204 O236 1.920 . S
Co205 O208 1.966 . S
Co205 N214 2.022 . S
Co205 N222 1.993 . S
Co205 O230 1.941 . S
C206 O207 1.258 . S
C206 O208 1.263 . S
O207 Co204 1.970 . S
O207 C206 1.258 . S
O208 Co205 1.966 . S
O208 C206 1.263 . S
C209 O210 1.235 . S
C209 O236 1.289 . S
O210 C209 1.235 . S
C211 C213 1.400 . S
C211 N214 1.351 . S
C211 C216 1.501 . S
C212 C213 1.387 . S
C212 N215 1.341 . S
C213 C211 1.400 . S
C213 C212 1.387 . S
N214 Co205 2.022 . S
N214 C211 1.351 . S
N214 N215 1.365 . S
N215 C212 1.341 . S
N215 N214 1.365 . S
N215 H235 0.862 . S
C216 C211 1.501 . S
C216 H217 0.961 . S
C216 H218 0.961 . S
C216 H219 0.960 . S
H217 C216 0.961 . S
H218 C216 0.961 . S
H219 C216 0.960 . S
C220 N221 1.342 . S
C220 C224 1.401 . S
C220 C225 1.499 . S
N221 Co204 1.989 . S
N221 C220 1.342 . S
N221 N222 1.388 . S
N222 Co205 1.993 . S
N222 N221 1.388 . S
N222 C223 1.346 . S
C223 N222 1.346 . S
C223 C224 1.396 . S
C223 C233 1.510 . S
C224 C220 1.401 . S
C224 C223 1.396 . S
C225 C220 1.499 . S
C225 H226 0.959 . S
C225 H227 0.960 . S
C225 H228 0.961 . S
H226 C225 0.959 . S
H227 C225 0.960 . S
H228 C225 0.961 . S
O229 Co204 1.967 . S
O229 C237 1.258 . S
O230 Co205 1.941 . S
O230 C237 1.266 . S
H231 C233 0.959 . S
H232 C233 0.961 . S
C233 C223 1.510 . S
C233 H231 0.959 . S
C233 H232 0.961 . S
C233 H234 0.960 . S
H234 C233 0.960 . S
H235 N215 0.862 . S
O236 Co204 1.920 . S
O236 C209 1.289 . S
C237 O229 1.258 . S
C237 O230 1.266 . S
Co238 O241 1.970 . S
Co238 N255 1.989 . S
Co238 O263 1.967 . S
Co238 O270 1.920 . S
Co239 O242 1.966 . S
Co239 N248 2.022 . S
Co239 N256 1.993 . S
Co239 O264 1.941 . S
C240 O241 1.258 . S
C240 O242 1.263 . S
O241 Co238 1.970 . S
O241 C240 1.258 . S
O242 Co239 1.966 . S
O242 C240 1.263 . S
C243 O244 1.235 . S
C243 O270 1.289 . S
O244 C243 1.235 . S
C245 C247 1.400 . S
C245 N248 1.351 . S
C245 C250 1.501 . S
C246 C247 1.387 . S
C246 N249 1.341 . S
C247 C245 1.400 . S
C247 C246 1.387 . S
N248 Co239 2.022 . S
N248 C245 1.351 . S
N248 N249 1.365 . S
N249 C246 1.341 . S
N249 N248 1.365 . S
N249 H269 0.862 . S
C250 C245 1.501 . S
C250 H251 0.961 . S
C250 H252 0.961 . S
C250 H253 0.960 . S
H251 C250 0.961 . S
H252 C250 0.961 . S
H253 C250 0.960 . S
C254 N255 1.342 . S
C254 C258 1.401 . S
C254 C259 1.499 . S
N255 Co238 1.989 . S
N255 C254 1.342 . S
N255 N256 1.388 . S
N256 Co239 1.993 . S
N256 N255 1.388 . S
N256 C257 1.346 . S
C257 N256 1.346 . S
C257 C258 1.396 . S
C257 C267 1.510 . S
C258 C254 1.401 . S
C258 C257 1.396 . S
C259 C254 1.499 . S
C259 H260 0.959 . S
C259 H261 0.960 . S
C259 H262 0.961 . S
H260 C259 0.959 . S
H261 C259 0.960 . S
H262 C259 0.961 . S
O263 Co238 1.967 . S
O263 C271 1.258 . S
O264 Co239 1.941 . S
O264 C271 1.266 . S
H265 C267 0.959 . S
H266 C267 0.961 . S
C267 C257 1.510 . S
C267 H265 0.959 . S
C267 H266 0.961 . S
C267 H268 0.960 . S
H268 C267 0.960 . S
H269 N249 0.862 . S
O270 Co238 1.920 . S
O270 C243 1.289 . S
C271 O263 1.258 . S
C271 O264 1.266 . S
Co272 O275 1.970 . S
Co272 N289 1.989 . S
Co272 O297 1.967 . S
Co272 O304 1.920 . S
Co273 O276 1.966 . S
Co273 N282 2.022 . S
Co273 N290 1.993 . S
Co273 O298 1.941 . S
C274 O275 1.258 . S
C274 O276 1.263 . S
O275 Co272 1.970 . S
O275 C274 1.258 . S
O276 Co273 1.966 . S
O276 C274 1.263 . S
C277 O278 1.235 . S
C277 O304 1.289 . S
O278 C277 1.235 . S
C279 C281 1.400 . S
C279 N282 1.351 . S
C279 C284 1.501 . S
C280 C281 1.387 . S
C280 N283 1.341 . S
C281 C279 1.400 . S
C281 C280 1.387 . S
N282 Co273 2.022 . S
N282 C279 1.351 . S
N282 N283 1.365 . S
N283 C280 1.341 . S
N283 N282 1.365 . S
N283 H303 0.862 . S
C284 C279 1.501 . S
C284 H285 0.961 . S
C284 H286 0.961 . S
C284 H287 0.960 . S
H285 C284 0.961 . S
H286 C284 0.961 . S
H287 C284 0.960 . S
C288 N289 1.342 . S
C288 C292 1.401 . S
C288 C293 1.499 . S
N289 Co272 1.989 . S
N289 C288 1.342 . S
N289 N290 1.388 . S
N290 Co273 1.993 . S
N290 N289 1.388 . S
N290 C291 1.346 . S
C291 N290 1.346 . S
C291 C292 1.396 . S
C291 C301 1.510 . S
C292 C288 1.401 . S
C292 C291 1.396 . S
C293 C288 1.499 . S
C293 H294 0.959 . S
C293 H295 0.960 . S
C293 H296 0.961 . S
H294 C293 0.959 . S
H295 C293 0.960 . S
H296 C293 0.961 . S
O297 Co272 1.967 . S
O297 C305 1.258 . S
O298 Co273 1.941 . S
O298 C305 1.266 . S
H299 C301 0.959 . S
H300 C301 0.961 . S
C301 C291 1.510 . S
C301 H299 0.959 . S
C301 H300 0.961 . S
C301 H302 0.960 . S
H302 C301 0.960 . S
H303 N283 0.862 . S
O304 Co272 1.920 . S
O304 C277 1.289 . S
C305 O297 1.258 . S
C305 O298 1.266 . S
Co306 O309 1.970 . S
Co306 N323 1.989 . S
Co306 O331 1.967 . S
Co306 O338 1.920 . S
Co307 O310 1.966 . S
Co307 N316 2.022 . S
Co307 N324 1.993 . S
Co307 O332 1.941 . S
C308 O309 1.258 . S
C308 O310 1.263 . S
O309 Co306 1.970 . S
O309 C308 1.258 . S
O310 Co307 1.966 . S
O310 C308 1.263 . S
C311 O312 1.235 . S
C311 O338 1.289 . S
O312 C311 1.235 . S
C313 C315 1.400 . S
C313 N316 1.351 . S
C313 C318 1.501 . S
C314 C315 1.387 . S
C314 N317 1.341 . S
C315 C313 1.400 . S
C315 C314 1.387 . S
N316 Co307 2.022 . S
N316 C313 1.351 . S
N316 N317 1.365 . S
N317 C314 1.341 . S
N317 N316 1.365 . S
N317 H337 0.862 . S
C318 C313 1.501 . S
C318 H319 0.961 . S
C318 H320 0.961 . S
C318 H321 0.960 . S
H319 C318 0.961 . S
H320 C318 0.961 . S
H321 C318 0.960 . S
C322 N323 1.342 . S
C322 C326 1.401 . S
C322 C327 1.499 . S
N323 Co306 1.989 . S
N323 C322 1.342 . S
N323 N324 1.388 . S
N324 Co307 1.993 . S
N324 N323 1.388 . S
N324 C325 1.346 . S
C325 N324 1.346 . S
C325 C326 1.396 . S
C325 C335 1.510 . S
C326 C322 1.401 . S
C326 C325 1.396 . S
C327 C322 1.499 . S
C327 H328 0.959 . S
C327 H329 0.960 . S
C327 H330 0.961 . S
H328 C327 0.959 . S
H329 C327 0.960 . S
H330 C327 0.961 . S
O331 Co306 1.967 . S
O331 C339 1.258 . S
O332 Co307 1.941 . S
O332 C339 1.266 . S
H333 C335 0.959 . S
H334 C335 0.961 . S
C335 C325 1.510 . S
C335 H333 0.959 . S
C335 H334 0.961 . S
C335 H336 0.960 . S
H336 C335 0.960 . S
H337 N317 0.862 . S
O338 Co306 1.920 . S
O338 C311 1.289 . S
C339 O331 1.258 . S
C339 O332 1.266 . S
Co340 O343 1.970 . S
Co340 N357 1.989 . S
Co340 O365 1.967 . S
Co340 O372 1.920 . S
Co341 O344 1.966 . S
Co341 N350 2.022 . S
Co341 N358 1.993 . S
Co341 O366 1.941 . S
C342 O343 1.258 . S
C342 O344 1.263 . S
O343 Co340 1.970 . S
O343 C342 1.258 . S
O344 Co341 1.966 . S
O344 C342 1.263 . S
C345 O346 1.235 . S
C345 O372 1.289 . S
O346 C345 1.235 . S
C347 C349 1.400 . S
C347 N350 1.351 . S
C347 C352 1.501 . S
C348 C349 1.387 . S
C348 N351 1.341 . S
C349 C347 1.400 . S
C349 C348 1.387 . S
N350 Co341 2.022 . S
N350 C347 1.351 . S
N350 N351 1.365 . S
N351 C348 1.341 . S
N351 N350 1.365 . S
N351 H371 0.862 . S
C352 C347 1.501 . S
C352 H353 0.961 . S
C352 H354 0.961 . S
C352 H355 0.960 . S
H353 C352 0.961 . S
H354 C352 0.961 . S
H355 C352 0.960 . S
C356 N357 1.342 . S
C356 C360 1.401 . S
C356 C361 1.499 . S
N357 Co340 1.989 . S
N357 C356 1.342 . S
N357 N358 1.388 . S
N358 Co341 1.993 . S
N358 N357 1.388 . S
N358 C359 1.346 . S
C359 N358 1.346 . S
C359 C360 1.396 . S
C359 C369 1.510 . S
C360 C356 1.401 . S
C360 C359 1.396 . S
C361 C356 1.499 . S
C361 H362 0.959 . S
C361 H363 0.960 . S
C361 H364 0.961 . S
H362 C361 0.959 . S
H363 C361 0.960 . S
H364 C361 0.961 . S
O365 Co340 1.967 . S
O365 C373 1.258 . S
O366 Co341 1.941 . S
O366 C373 1.266 . S
H367 C369 0.959 . S
H368 C369 0.961 . S
C369 C359 1.510 . S
C369 H367 0.959 . S
C369 H368 0.961 . S
C369 H370 0.960 . S
H370 C369 0.960 . S
H371 N351 0.862 . S
O372 Co340 1.920 . S
O372 C345 1.289 . S
C373 O365 1.258 . S
C373 O366 1.266 . S
Co374 O377 1.970 . S
Co374 N391 1.989 . S
Co374 O399 1.967 . S
Co374 O406 1.920 . S
Co375 O378 1.966 . S
Co375 N384 2.022 . S
Co375 N392 1.993 . S
Co375 O400 1.941 . S
C376 O377 1.258 . S
C376 O378 1.263 . S
O377 Co374 1.970 . S
O377 C376 1.258 . S
O378 Co375 1.966 . S
O378 C376 1.263 . S
C379 O380 1.235 . S
C379 O406 1.289 . S
O380 C379 1.235 . S
C381 C383 1.400 . S
C381 N384 1.351 . S
C381 C386 1.501 . S
C382 C383 1.387 . S
C382 N385 1.341 . S
C383 C381 1.400 . S
C383 C382 1.387 . S
N384 Co375 2.022 . S
N384 C381 1.351 . S
N384 N385 1.365 . S
N385 C382 1.341 . S
N385 N384 1.365 . S
N385 H405 0.862 . S
C386 C381 1.501 . S
C386 H387 0.961 . S
C386 H388 0.961 . S
C386 H389 0.960 . S
H387 C386 0.961 . S
H388 C386 0.961 . S
H389 C386 0.960 . S
C390 N391 1.342 . S
C390 C394 1.401 . S
C390 C395 1.499 . S
N391 Co374 1.989 . S
N391 C390 1.342 . S
N391 N392 1.388 . S
N392 Co375 1.993 . S
N392 N391 1.388 . S
N392 C393 1.346 . S
C393 N392 1.346 . S
C393 C394 1.396 . S
C393 C403 1.510 . S
C394 C390 1.401 . S
C394 C393 1.396 . S
C395 C390 1.499 . S
C395 H396 0.959 . S
C395 H397 0.960 . S
C395 H398 0.961 . S
H396 C395 0.959 . S
H397 C395 0.960 . S
H398 C395 0.961 . S
O399 Co374 1.967 . S
O399 C407 1.258 . S
O400 Co375 1.941 . S
O400 C407 1.266 . S
H401 C403 0.959 . S
H402 C403 0.961 . S
C403 C393 1.510 . S
C403 H401 0.959 . S
C403 H402 0.961 . S
C403 H404 0.960 . S
H404 C403 0.960 . S
H405 N385 0.862 . S
O406 Co374 1.920 . S
O406 C379 1.289 . S
C407 O399 1.258 . S
C407 O400 1.266 . S
Co408 O411 1.970 . S
Co408 N425 1.989 . S
Co408 O433 1.967 . S
Co408 O440 1.920 . S
Co409 O412 1.966 . S
Co409 N418 2.022 . S
Co409 N426 1.993 . S
Co409 O434 1.941 . S
C410 O411 1.258 . S
C410 O412 1.263 . S
O411 Co408 1.970 . S
O411 C410 1.258 . S
O412 Co409 1.966 . S
O412 C410 1.263 . S
C413 O414 1.235 . S
C413 O440 1.289 . S
O414 C413 1.235 . S
C415 C417 1.400 . S
C415 N418 1.351 . S
C415 C420 1.501 . S
C416 C417 1.387 . S
C416 N419 1.341 . S
C417 C415 1.400 . S
C417 C416 1.387 . S
N418 Co409 2.022 . S
N418 C415 1.351 . S
N418 N419 1.365 . S
N419 C416 1.341 . S
N419 N418 1.365 . S
N419 H439 0.862 . S
C420 C415 1.501 . S
C420 H421 0.961 . S
C420 H422 0.961 . S
C420 H423 0.960 . S
H421 C420 0.961 . S
H422 C420 0.961 . S
H423 C420 0.960 . S
C424 N425 1.342 . S
C424 C428 1.401 . S
C424 C429 1.499 . S
N425 Co408 1.989 . S
N425 C424 1.342 . S
N425 N426 1.388 . S
N426 Co409 1.993 . S
N426 N425 1.388 . S
N426 C427 1.346 . S
C427 N426 1.346 . S
C427 C428 1.396 . S
C427 C437 1.510 . S
C428 C424 1.401 . S
C428 C427 1.396 . S
C429 C424 1.499 . S
C429 H430 0.959 . S
C429 H431 0.960 . S
C429 H432 0.961 . S
H430 C429 0.959 . S
H431 C429 0.960 . S
H432 C429 0.961 . S
O433 Co408 1.967 . S
O433 C441 1.258 . S
O434 Co409 1.941 . S
O434 C441 1.266 . S
H435 C437 0.959 . S
H436 C437 0.961 . S
C437 C427 1.510 . S
C437 H435 0.959 . S
C437 H436 0.961 . S
C437 H438 0.960 . S
H438 C437 0.960 . S
H439 N419 0.862 . S
O440 Co408 1.920 . S
O440 C413 1.289 . S
C441 O433 1.258 . S
C441 O434 1.266 . S
Co442 O445 1.970 . S
Co442 N459 1.989 . S
Co442 O467 1.967 . S
Co442 O474 1.920 . S
Co443 O446 1.966 . S
Co443 N452 2.022 . S
Co443 N460 1.993 . S
Co443 O468 1.941 . S
C444 O445 1.258 . S
C444 O446 1.263 . S
O445 Co442 1.970 . S
O445 C444 1.258 . S
O446 Co443 1.966 . S
O446 C444 1.263 . S
C447 O448 1.235 . S
C447 O474 1.289 . S
O448 C447 1.235 . S
C449 C451 1.400 . S
C449 N452 1.351 . S
C449 C454 1.501 . S
C450 C451 1.387 . S
C450 N453 1.341 . S
C451 C449 1.400 . S
C451 C450 1.387 . S
N452 Co443 2.022 . S
N452 C449 1.351 . S
N452 N453 1.365 . S
N453 C450 1.341 . S
N453 N452 1.365 . S
N453 H473 0.862 . S
C454 C449 1.501 . S
C454 H455 0.961 . S
C454 H456 0.961 . S
C454 H457 0.960 . S
H455 C454 0.961 . S
H456 C454 0.961 . S
H457 C454 0.960 . S
C458 N459 1.342 . S
C458 C462 1.401 . S
C458 C463 1.499 . S
N459 Co442 1.989 . S
N459 C458 1.342 . S
N459 N460 1.388 . S
N460 Co443 1.993 . S
N460 N459 1.388 . S
N460 C461 1.346 . S
C461 N460 1.346 . S
C461 C462 1.396 . S
C461 C471 1.510 . S
C462 C458 1.401 . S
C462 C461 1.396 . S
C463 C458 1.499 . S
C463 H464 0.959 . S
C463 H465 0.960 . S
C463 H466 0.961 . S
H464 C463 0.959 . S
H465 C463 0.960 . S
H466 C463 0.961 . S
O467 Co442 1.967 . S
O467 C475 1.258 . S
O468 Co443 1.941 . S
O468 C475 1.266 . S
H469 C471 0.959 . S
H470 C471 0.961 . S
C471 C461 1.510 . S
C471 H469 0.959 . S
C471 H470 0.961 . S
C471 H472 0.960 . S
H472 C471 0.960 . S
H473 N453 0.862 . S
O474 Co442 1.920 . S
O474 C447 1.289 . S
C475 O467 1.258 . S
C475 O468 1.266 . S
Co476 O479 1.970 . S
Co476 N493 1.989 . S
Co476 O501 1.967 . S
Co476 O508 1.920 . S
Co477 O480 1.966 . S
Co477 N486 2.022 . S
Co477 N494 1.993 . S
Co477 O502 1.941 . S
C478 O479 1.258 . S
C478 O480 1.263 . S
O479 Co476 1.970 . S
O479 C478 1.258 . S
O480 Co477 1.966 . S
O480 C478 1.263 . S
C481 O482 1.235 . S
C481 O508 1.289 . S
O482 C481 1.235 . S
C483 C485 1.400 . S
C483 N486 1.351 . S
C483 C488 1.501 . S
C484 C485 1.387 . S
C484 N487 1.341 . S
C485 C483 1.400 . S
C485 C484 1.387 . S
N486 Co477 2.022 . S
N486 C483 1.351 . S
N486 N487 1.365 . S
N487 C484 1.341 . S
N487 N486 1.365 . S
N487 H507 0.862 . S
C488 C483 1.501 . S
C488 H489 0.961 . S
C488 H490 0.961 . S
C488 H491 0.960 . S
H489 C488 0.961 . S
H490 C488 0.961 . S
H491 C488 0.960 . S
C492 N493 1.342 . S
C492 C496 1.401 . S
C492 C497 1.499 . S
N493 Co476 1.989 . S
N493 C492 1.342 . S
N493 N494 1.388 . S
N494 Co477 1.993 . S
N494 N493 1.388 . S
N494 C495 1.346 . S
C495 N494 1.346 . S
C495 C496 1.396 . S
C495 C505 1.510 . S
C496 C492 1.401 . S
C496 C495 1.396 . S
C497 C492 1.499 . S
C497 H498 0.959 . S
C497 H499 0.960 . S
C497 H500 0.961 . S
H498 C497 0.959 . S
H499 C497 0.960 . S
H500 C497 0.961 . S
O501 Co476 1.967 . S
O501 C509 1.258 . S
O502 Co477 1.941 . S
O502 C509 1.266 . S
H503 C505 0.959 . S
H504 C505 0.961 . S
C505 C495 1.510 . S
C505 H503 0.959 . S
C505 H504 0.961 . S
C505 H506 0.960 . S
H506 C505 0.960 . S
H507 N487 0.862 . S
O508 Co476 1.920 . S
O508 C481 1.289 . S
C509 O501 1.258 . S
C509 O502 1.266 . S
Co510 O513 1.970 . S
Co510 N527 1.989 . S
Co510 O535 1.967 . S
Co510 O542 1.920 . S
Co511 O514 1.966 . S
Co511 N520 2.022 . S
Co511 N528 1.993 . S
Co511 O536 1.941 . S
C512 O513 1.258 . S
C512 O514 1.263 . S
O513 Co510 1.970 . S
O513 C512 1.258 . S
O514 Co511 1.966 . S
O514 C512 1.263 . S
C515 O516 1.235 . S
C515 O542 1.289 . S
O516 C515 1.235 . S
C517 C519 1.400 . S
C517 N520 1.351 . S
C517 C522 1.501 . S
C518 C519 1.387 . S
C518 N521 1.341 . S
C519 C517 1.400 . S
C519 C518 1.387 . S
N520 Co511 2.022 . S
N520 C517 1.351 . S
N520 N521 1.365 . S
N521 C518 1.341 . S
N521 N520 1.365 . S
N521 H541 0.862 . S
C522 C517 1.501 . S
C522 H523 0.961 . S
C522 H524 0.961 . S
C522 H525 0.960 . S
H523 C522 0.961 . S
H524 C522 0.961 . S
H525 C522 0.960 . S
C526 N527 1.342 . S
C526 C530 1.401 . S
C526 C531 1.499 . S
N527 Co510 1.989 . S
N527 C526 1.342 . S
N527 N528 1.388 . S
N528 Co511 1.993 . S
N528 N527 1.388 . S
N528 C529 1.346 . S
C529 N528 1.346 . S
C529 C530 1.396 . S
C529 C539 1.510 . S
C530 C526 1.401 . S
C530 C529 1.396 . S
C531 C526 1.499 . S
C531 H532 0.959 . S
C531 H533 0.960 . S
C531 H534 0.961 . S
H532 C531 0.959 . S
H533 C531 0.960 . S
H534 C531 0.961 . S
O535 Co510 1.967 . S
O535 C543 1.258 . S
O536 Co511 1.941 . S
O536 C543 1.266 . S
H537 C539 0.959 . S
H538 C539 0.961 . S
C539 C529 1.510 . S
C539 H537 0.959 . S
C539 H538 0.961 . S
C539 H540 0.960 . S
H540 C539 0.960 . S
H541 N521 0.862 . S
O542 Co510 1.920 . S
O542 C515 1.289 . S
C543 O535 1.258 . S
C543 O536 1.266 . S
Co544 O547 1.970 . S
Co544 N561 1.989 . S
Co544 O569 1.967 . S
Co544 O576 1.920 . S
Co545 O548 1.966 . S
Co545 N554 2.022 . S
Co545 N562 1.993 . S
Co545 O570 1.941 . S
C546 O547 1.258 . S
C546 O548 1.263 . S
O547 Co544 1.970 . S
O547 C546 1.258 . S
O548 Co545 1.966 . S
O548 C546 1.263 . S
C549 O550 1.235 . S
C549 O576 1.289 . S
O550 C549 1.235 . S
C551 C553 1.400 . S
C551 N554 1.351 . S
C551 C556 1.501 . S
C552 C553 1.387 . S
C552 N555 1.341 . S
C553 C551 1.400 . S
C553 C552 1.387 . S
N554 Co545 2.022 . S
N554 C551 1.351 . S
N554 N555 1.365 . S
N555 C552 1.341 . S
N555 N554 1.365 . S
N555 H575 0.862 . S
C556 C551 1.501 . S
C556 H557 0.961 . S
C556 H558 0.961 . S
C556 H559 0.960 . S
H557 C556 0.961 . S
H558 C556 0.961 . S
H559 C556 0.960 . S
C560 N561 1.342 . S
C560 C564 1.401 . S
C560 C565 1.499 . S
N561 Co544 1.989 . S
N561 C560 1.342 . S
N561 N562 1.388 . S
N562 Co545 1.993 . S
N562 N561 1.388 . S
N562 C563 1.346 . S
C563 N562 1.346 . S
C563 C564 1.396 . S
C563 C573 1.510 . S
C564 C560 1.401 . S
C564 C563 1.396 . S
C565 C560 1.499 . S
C565 H566 0.959 . S
C565 H567 0.960 . S
C565 H568 0.961 . S
H566 C565 0.959 . S
H567 C565 0.960 . S
H568 C565 0.961 . S
O569 Co544 1.967 . S
O569 C577 1.258 . S
O570 Co545 1.941 . S
O570 C577 1.266 . S
H571 C573 0.959 . S
H572 C573 0.961 . S
C573 C563 1.510 . S
C573 H571 0.959 . S
C573 H572 0.961 . S
C573 H574 0.960 . S
H574 C573 0.960 . S
H575 N555 0.862 . S
O576 Co544 1.920 . S
O576 C549 1.289 . S
C577 O569 1.258 . S
C577 O570 1.266 . S
Co578 O581 1.970 . S
Co578 N595 1.989 . S
Co578 O603 1.967 . S
Co578 O610 1.920 . S
Co579 O582 1.966 . S
Co579 N588 2.022 . S
Co579 N596 1.993 . S
Co579 O604 1.941 . S
C580 O581 1.258 . S
C580 O582 1.263 . S
O581 Co578 1.970 . S
O581 C580 1.258 . S
O582 Co579 1.966 . S
O582 C580 1.263 . S
C583 O584 1.235 . S
C583 O610 1.289 . S
O584 C583 1.235 . S
C585 C587 1.400 . S
C585 N588 1.351 . S
C585 C590 1.501 . S
C586 C587 1.387 . S
C586 N589 1.341 . S
C587 C585 1.400 . S
C587 C586 1.387 . S
N588 Co579 2.022 . S
N588 C585 1.351 . S
N588 N589 1.365 . S
N589 C586 1.341 . S
N589 N588 1.365 . S
N589 H609 0.862 . S
C590 C585 1.501 . S
C590 H591 0.961 . S
C590 H592 0.961 . S
C590 H593 0.960 . S
H591 C590 0.961 . S
H592 C590 0.961 . S
H593 C590 0.960 . S
C594 N595 1.342 . S
C594 C598 1.401 . S
C594 C599 1.499 . S
N595 Co578 1.989 . S
N595 C594 1.342 . S
N595 N596 1.388 . S
N596 Co579 1.993 . S
N596 N595 1.388 . S
N596 C597 1.346 . S
C597 N596 1.346 . S
C597 C598 1.396 . S
C597 C607 1.510 . S
C598 C594 1.401 . S
C598 C597 1.396 . S
C599 C594 1.499 . S
C599 H600 0.959 . S
C599 H601 0.960 . S
C599 H602 0.961 . S
H600 C599 0.959 . S
H601 C599 0.960 . S
H602 C599 0.961 . S
O603 Co578 1.967 . S
O603 C611 1.258 . S
O604 Co579 1.941 . S
O604 C611 1.266 . S
H605 C607 0.959 . S
H606 C607 0.961 . S
C607 C597 1.510 . S
C607 H605 0.959 . S
C607 H606 0.961 . S
C607 H608 0.960 . S
H608 C607 0.960 . S
H609 N589 0.862 . S
O610 Co578 1.920 . S
O610 C583 1.289 . S
C611 O603 1.258 . S
C611 O604 1.266 . S
C612 C613 1.349 . S
C612 C614 1.327 . S
C612 H637 0.950 . S
C613 C612 1.349 . S
C613 C629 1.349 . S
C614 C612 1.327 . S
C614 C633 1.429 . S
C614 H638 0.950 . S
C615 C632 1.574 . S
C615 C634 1.368 . S
C615 H639 0.949 . S
H616 C620 0.949 . S
C617 C618 1.349 . S
C617 C619 1.327 . S
C617 H640 0.950 . S
C618 C617 1.349 . S
C618 C630 1.349 . S
C619 C617 1.327 . S
C619 C635 1.429 1_455 S
C619 H641 0.950 . S
C620 H616 0.949 . S
C620 C628 1.574 . S
C620 C636 1.368 . S
H621 C629 0.950 . S
H622 C627 0.950 . S
H623 C628 0.949 . S
H624 C630 0.950 . S
H625 C631 0.950 . S
H626 C632 0.982 . S
C627 H622 0.950 . S
C627 C629 1.327 . S
C627 C633 1.429 . S
C628 C620 1.574 . S
C628 H623 0.949 . S
C628 C634 1.368 . S
C629 C613 1.349 . S
C629 H621 0.950 . S
C629 C627 1.327 . S
C630 C618 1.349 . S
C630 H624 0.950 . S
C630 C631 1.327 1_455 S
C631 H625 0.950 . S
C631 C630 1.327 1_655 S
C631 C635 1.429 . S
C632 C615 1.574 . S
C632 H626 0.982 . S
C632 C636 1.368 . S
C633 C614 1.429 . S
C633 C627 1.429 . S
C633 C634 1.523 . S
C634 C615 1.368 . S
C634 C628 1.368 . S
C634 C633 1.523 . S
C635 C619 1.429 1_655 S
C635 C631 1.429 . S
C635 C636 1.523 . S
C636 C620 1.368 . S
C636 C632 1.368 . S
C636 C635 1.523 . S
H637 C612 0.950 . S
H638 C614 0.950 . S
H639 C615 0.949 . S
H640 C617 0.950 . S
H641 C619 0.950 . S
C642 C643 1.349 . S
C642 C644 1.327 . S
C642 H667 0.950 . S
C643 C642 1.349 . S
C643 C659 1.349 . S
C644 C642 1.327 . S
C644 C663 1.429 . S
C644 H668 0.950 . S
C645 C662 1.574 . S
C645 C664 1.368 . S
C645 H669 0.949 . S
H646 C650 0.949 . S
C647 C648 1.349 . S
C647 C649 1.327 . S
C647 H670 0.950 . S
C648 C647 1.349 . S
C648 C660 1.349 . S
C649 C647 1.327 . S
C649 C665 1.429 . S
C649 H671 0.950 . S
C650 H646 0.949 . S
C650 C658 1.574 . S
C650 C666 1.368 . S
H651 C659 0.950 . S
H652 C657 0.950 . S
H653 C658 0.949 . S
H654 C660 0.950 . S
H655 C661 0.950 . S
H656 C662 0.949 . S
C657 H652 0.950 . S
C657 C659 1.327 . S
C657 C663 1.429 . S
C658 C650 1.574 . S
C658 H653 0.949 . S
C658 C664 1.368 . S
C659 C643 1.349 . S
C659 H651 0.950 . S
C659 C657 1.327 . S
C660 C648 1.349 . S
C660 H654 0.950 . S
C660 C661 1.327 . S
C661 H655 0.950 . S
C661 C660 1.327 . S
C661 C665 1.429 . S
C662 C645 1.574 . S
C662 H656 0.949 . S
C662 C666 1.368 . S
C663 C644 1.429 . S
C663 C657 1.429 . S
C663 C664 1.523 . S
C664 C645 1.368 . S
C664 C658 1.368 . S
C664 C663 1.523 . S
C665 C649 1.429 . S
C665 C661 1.429 . S
C665 C666 1.523 . S
C666 C650 1.368 . S
C666 C662 1.368 . S
C666 C665 1.523 . S
H667 C642 0.950 . S
H668 C644 0.950 . S
H669 C645 0.949 . S
H670 C647 0.950 . S
H671 C649 0.950 . S
C672 C673 1.349 . S
C672 C674 1.327 . S
C672 H697 0.950 . S
C673 C672 1.349 . S
C673 C689 1.349 . S
C674 C672 1.327 . S
C674 C693 1.429 . S
C674 H698 0.950 . S
C675 C692 1.574 . S
C675 C694 1.368 . S
C675 H699 0.949 . S
H676 C680 0.949 1_565 S
C677 C678 1.349 . S
C677 C679 1.327 1_565 S
C677 H700 0.950 1_565 S
C678 C677 1.349 . S
C678 C690 1.349 . S
C679 C677 1.327 1_545 S
C679 C695 1.429 . S
C679 H701 0.950 . S
C680 H676 0.949 1_545 S
C680 C688 1.574 . S
C680 C696 1.368 . S
H681 C689 0.950 . S
H682 C687 0.950 . S
H683 C688 0.949 . S
H684 C690 0.950 . S
H685 C691 0.950 . S
H686 C692 0.949 . S
C687 H682 0.950 . S
C687 C689 1.327 . S
C687 C693 1.429 . S
C688 C680 1.574 . S
C688 H683 0.949 . S
C688 C694 1.368 . S
C689 C673 1.349 . S
C689 H681 0.950 . S
C689 C687 1.327 . S
C690 C678 1.349 . S
C690 H684 0.950 . S
C690 C691 1.327 . S
C691 H685 0.950 . S
C691 C690 1.327 . S
C691 C695 1.429 1_565 S
C692 C675 1.574 . S
C692 H686 0.949 . S
C692 C696 1.368 . S
C693 C674 1.429 . S
C693 C687 1.429 . S
C693 C694 1.523 . S
C694 C675 1.368 . S
C694 C688 1.368 . S
C694 C693 1.523 . S
C695 C679 1.429 . S
C695 C691 1.429 1_545 S
C695 C696 1.523 . S
C696 C680 1.368 . S
C696 C692 1.368 . S
C696 C695 1.523 . S
H697 C672 0.950 . S
H698 C674 0.950 . S
H699 C675 0.949 . S
H700 C677 0.950 1_545 S
H701 C679 0.950 . S
C702 C703 1.349 . S
C702 C704 1.327 1_545 S
C702 H727 0.950 . S
C703 C702 1.349 . S
C703 C719 1.349 . S
C704 C702 1.327 1_565 S
C704 C723 1.429 . S
C704 H728 0.950 . S
C705 C722 1.574 . S
C705 C724 1.368 . S
C705 H729 0.949 . S
H706 C710 0.949 . S
C707 C708 1.349 . S
C707 C709 1.327 . S
C707 H730 0.950 . S
C708 C707 1.349 . S
C708 C720 1.349 . S
C709 C707 1.327 . S
C709 C725 1.429 . S
C709 H731 0.950 . S
C710 H706 0.949 . S
C710 C718 1.574 . S
C710 C726 1.368 . S
H711 C719 0.950 . S
H712 C717 0.950 . S
H713 C718 0.949 . S
H714 C720 0.950 . S
H715 C721 0.950 . S
H716 C722 0.949 . S
C717 H712 0.950 . S
C717 C719 1.327 . S
C717 C723 1.429 1_545 S
C718 C710 1.574 . S
C718 H713 0.949 . S
C718 C724 1.368 . S
C719 C703 1.349 . S
C719 H711 0.950 . S
C719 C717 1.327 . S
C720 C708 1.349 . S
C720 H714 0.950 . S
C720 C721 1.327 . S
C721 H715 0.950 . S
C721 C720 1.327 . S
C721 C725 1.429 . S
C722 C705 1.574 . S
C722 H716 0.949 . S
C722 C726 1.368 . S
C723 C704 1.429 . S
C723 C717 1.429 1_565 S
C723 C724 1.523 . S
C724 C705 1.368 . S
C724 C718 1.368 . S
C724 C723 1.523 . S
C725 C709 1.429 . S
C725 C721 1.429 . S
C725 C726 1.523 . S
C726 C710 1.368 . S
C726 C722 1.368 . S
C726 C725 1.523 . S
H727 C702 0.950 . S
H728 C704 0.950 . S
H729 C705 0.949 . S
H730 C707 0.950 . S
H731 C709 0.950 . S
C732 C733 1.349 . S
C732 C734 1.327 . S
C732 H757 0.950 . S
C733 C732 1.349 . S
C733 C749 1.349 . S
C734 C732 1.327 . S
C734 C753 1.429 . S
C734 H758 0.950 . S
C735 C752 1.574 . S
C735 C754 1.368 . S
C735 H759 0.949 . S
H736 C740 0.949 . S
C737 C738 1.349 . S
C737 C739 1.327 . S
C737 H760 0.950 . S
C738 C737 1.349 . S
C738 C750 1.349 . S
C739 C737 1.327 . S
C739 C755 1.429 1_655 S
C739 H761 0.950 . S
C740 H736 0.949 . S
C740 C748 1.574 . S
C740 C756 1.368 . S
H741 C749 0.950 . S
H742 C747 0.950 . S
H743 C748 0.949 . S
H744 C750 0.950 . S
H745 C751 0.950 . S
H746 C752 0.949 1_655 S
C747 H742 0.950 . S
C747 C749 1.327 . S
C747 C753 1.429 . S
C748 C740 1.574 . S
C748 H743 0.949 . S
C748 C754 1.368 . S
C749 C733 1.349 . S
C749 H741 0.950 . S
C749 C747 1.327 . S
C750 C738 1.349 . S
C750 H744 0.950 . S
C750 C751 1.327 1_655 S
C751 H745 0.950 . S
C751 C750 1.327 1_455 S
C751 C755 1.429 . S
C752 C735 1.574 . S
C752 H746 0.949 1_455 S
C752 C756 1.368 . S
C753 C734 1.429 . S
C753 C747 1.429 . S
C753 C754 1.523 . S
C754 C735 1.368 . S
C754 C748 1.368 . S
C754 C753 1.523 . S
C755 C739 1.429 1_455 S
C755 C751 1.429 . S
C755 C756 1.523 . S
C756 C740 1.368 . S
C756 C752 1.368 . S
C756 C755 1.523 . S
H757 C732 0.950 . S
H758 C734 0.950 . S
H759 C735 0.949 . S
H760 C737 0.950 . S
H761 C739 0.950 . S
C762 C763 1.349 . S
C762 C764 1.327 . S
C762 H787 0.950 . S
C763 C762 1.349 . S
C763 C779 1.349 . S
C764 C762 1.327 . S
C764 C783 1.429 . S
C764 H788 0.950 . S
C765 C782 1.574 . S
C765 C784 1.368 . S
C765 H789 0.949 . S
H766 C770 0.949 . S
C767 C768 1.349 . S
C767 C769 1.327 . S
C767 H790 0.950 . S
C768 C767 1.349 . S
C768 C780 1.349 . S
C769 C767 1.327 . S
C769 C785 1.429 . S
C769 H791 0.950 . S
C770 H766 0.949 . S
C770 C778 1.574 . S
C770 C786 1.368 . S
H771 C779 0.950 . S
H772 C777 0.950 . S
H773 C778 0.949 . S
H774 C780 0.950 . S
H775 C781 0.950 . S
H776 C782 0.949 . S
C777 H772 0.950 . S
C777 C779 1.327 . S
C777 C783 1.429 . S
C778 C770 1.574 . S
C778 H773 0.949 . S
C778 C784 1.368 . S
C779 C763 1.349 . S
C779 H771 0.950 . S
C779 C777 1.327 . S
C780 C768 1.349 . S
C780 H774 0.950 . S
C780 C781 1.327 . S
C781 H775 0.950 . S
C781 C780 1.327 . S
C781 C785 1.429 . S
C782 C765 1.574 . S
C782 H776 0.949 . S
C782 C786 1.368 . S
C783 C764 1.429 . S
C783 C777 1.429 . S
C783 C784 1.523 . S
C784 C765 1.368 . S
C784 C778 1.368 . S
C784 C783 1.523 . S
C785 C769 1.429 . S
C785 C781 1.429 . S
C785 C786 1.523 . S
C786 C770 1.368 . S
C786 C782 1.368 . S
C786 C785 1.523 . S
H787 C762 0.950 . S
H788 C764 0.950 . S
H789 C765 0.949 . S
H790 C767 0.950 . S
H791 C769 0.950 . S
C792 C793 1.349 . S
C792 C794 1.327 . S
C792 H817 0.950 . S
C793 C792 1.349 . S
C793 C809 1.349 . S
C794 C792 1.327 . S
C794 C813 1.429 . S
C794 H818 0.950 . S
C795 C812 1.574 . S
C795 C814 1.368 . S
C795 H819 0.949 . S
H796 C800 0.949 . S
C797 C798 1.349 . S
C797 C799 1.327 . S
C797 H820 0.950 . S
C798 C797 1.349 . S
C798 C810 1.349 . S
C799 C797 1.327 . S
C799 C815 1.429 . S
C799 H821 0.950 . S
C800 H796 0.949 . S
C800 C808 1.574 . S
C800 C816 1.368 . S
H801 C809 0.950 . S
H802 C807 0.950 . S
H803 C808 0.949 . S
H804 C810 0.950 . S
H805 C811 0.950 . S
H806 C812 0.949 . S
C807 H802 0.950 . S
C807 C809 1.327 . S
C807 C813 1.429 . S
C808 C800 1.574 . S
C808 H803 0.949 . S
C808 C814 1.368 . S
C809 C793 1.349 . S
C809 H801 0.950 . S
C809 C807 1.327 . S
C810 C798 1.349 . S
C810 H804 0.950 . S
C810 C811 1.327 . S
C811 H805 0.950 . S
C811 C810 1.327 . S
C811 C815 1.429 . S
C812 C795 1.574 . S
C812 H806 0.949 . S
C812 C816 1.368 . S
C813 C794 1.429 . S
C813 C807 1.429 . S
C813 C814 1.523 . S
C814 C795 1.368 . S
C814 C808 1.368 . S
C814 C813 1.523 . S
C815 C799 1.429 . S
C815 C811 1.429 . S
C815 C816 1.523 . S
C816 C800 1.368 . S
C816 C812 1.368 . S
C816 C815 1.523 . S
H817 C792 0.950 . S
H818 C794 0.950 . S
H819 C795 0.949 . S
H820 C797 0.950 . S
H821 C799 0.950 . S
C822 C823 1.349 . S
C822 C824 1.327 . S
C822 H847 0.950 . S
C823 C822 1.349 . S
C823 C839 1.349 . S
C824 C822 1.327 . S
C824 C843 1.429 . S
C824 H848 0.950 . S
C825 C842 1.574 1_565 S
C825 C844 1.368 . S
C825 H849 0.949 . S
H826 C830 0.949 . S
C827 C828 1.349 . S
C827 C829 1.327 . S
C827 H850 0.950 . S
C828 C827 1.349 . S
C828 C840 1.349 . S
C829 C827 1.327 . S
C829 C845 1.429 . S
C829 H851 0.950 . S
C830 H826 0.949 . S
C830 C838 1.574 1_545 S
C830 C846 1.368 . S
H831 C839 0.950 . S
H832 C837 0.950 . S
H833 C838 0.949 . S
H834 C840 0.950 . S
H835 C841 0.950 . S
H836 C842 0.949 . S
C837 H832 0.950 . S
C837 C839 1.327 . S
C837 C843 1.429 . S
C838 C830 1.574 1_565 S
C838 H833 0.949 . S
C838 C844 1.368 . S
C839 C823 1.349 . S
C839 H831 0.950 . S
C839 C837 1.327 . S
C840 C828 1.349 . S
C840 H834 0.950 . S
C840 C841 1.327 . S
C841 H835 0.950 . S
C841 C840 1.327 . S
C841 C845 1.429 . S
C842 C825 1.574 1_545 S
C842 H836 0.949 . S
C842 C846 1.368 . S
C843 C824 1.429 . S
C843 C837 1.429 . S
C843 C844 1.523 . S
C844 C825 1.368 . S
C844 C838 1.368 . S
C844 C843 1.523 . S
C845 C829 1.429 . S
C845 C841 1.429 . S
C845 C846 1.523 . S
C846 C830 1.368 . S
C846 C842 1.368 . S
C846 C845 1.523 . S
H847 C822 0.950 . S
H848 C824 0.950 . S
H849 C825 0.949 . S
H850 C827 0.950 . S
H851 C829 0.950 . S
C852 C853 1.349 . S
C852 C854 1.327 . S
C852 H877 0.950 . S
C853 C852 1.349 . S
C853 C869 1.349 . S
C854 C852 1.327 . S
C854 C873 1.429 . S
C854 H878 0.950 . S
C855 C872 1.574 1_455 S
C855 C874 1.368 . S
C855 H879 0.949 . S
H856 C860 0.949 . S
C857 C858 1.349 . S
C857 C859 1.327 . S
C857 H880 0.950 . S
C858 C857 1.349 . S
C858 C870 1.349 . S
C859 C857 1.327 . S
C859 C875 1.429 . S
C859 H881 0.950 . S
C860 H856 0.949 . S
C860 C868 1.574 1_655 S
C860 C876 1.368 . S
H861 C869 0.950 . S
H862 C867 0.950 . S
H863 C868 0.949 . S
H864 C870 0.950 . S
H865 C871 0.950 . S
H866 C872 0.949 . S
C867 H862 0.950 . S
C867 C869 1.327 . S
C867 C873 1.429 . S
C868 C860 1.574 1_455 S
C868 H863 0.949 . S
C868 C874 1.368 . S
C869 C853 1.349 . S
C869 H861 0.950 . S
C869 C867 1.327 . S
C870 C858 1.349 . S
C870 H864 0.950 . S
C870 C871 1.327 . S
C871 H865 0.950 . S
C871 C870 1.327 . S
C871 C875 1.429 . S
C872 C855 1.574 1_655 S
C872 H866 0.949 . S
C872 C876 1.368 . S
C873 C854 1.429 . S
C873 C867 1.429 . S
C873 C874 1.523 . S
C874 C855 1.368 . S
C874 C868 1.368 . S
C874 C873 1.523 . S
C875 C859 1.429 . S
C875 C871 1.429 . S
C875 C876 1.523 . S
C876 C860 1.368 . S
C876 C872 1.368 . S
C876 C875 1.523 . S
H877 C852 0.950 . S
H878 C854 0.950 . S
H879 C855 0.949 . S
H880 C857 0.950 . S
H881 C859 0.950 . S
C882 C883 1.349 . S
C882 C884 1.327 . S
C882 H907 0.950 . S
C883 C882 1.349 . S
C883 C899 1.349 . S
C884 C882 1.327 . S
C884 C903 1.429 . S
C884 H908 0.950 . S
C885 C902 1.574 . S
C885 C904 1.368 . S
C885 H909 0.949 . S
H886 C890 0.949 . S
C887 C888 1.349 . S
C887 C889 1.327 . S
C887 H910 0.950 . S
C888 C887 1.349 . S
C888 C900 1.349 . S
C889 C887 1.327 . S
C889 C905 1.429 . S
C889 H911 0.950 . S
C890 H886 0.949 . S
C890 C898 1.574 . S
C890 C906 1.368 . S
H891 C899 0.950 . S
H892 C897 0.950 . S
H893 C898 0.949 . S
H894 C900 0.950 . S
H895 C901 0.950 . S
H896 C902 0.949 . S
C897 H892 0.950 . S
C897 C899 1.327 . S
C897 C903 1.429 . S
C898 C890 1.574 . S
C898 H893 0.949 . S
C898 C904 1.368 . S
C899 C883 1.349 . S
C899 H891 0.950 . S
C899 C897 1.327 . S
C900 C888 1.349 . S
C900 H894 0.950 . S
C900 C901 1.327 . S
C901 H895 0.950 . S
C901 C900 1.327 . S
C901 C905 1.429 . S
C902 C885 1.574 . S
C902 H896 0.949 . S
C902 C906 1.368 . S
C903 C884 1.429 . S
C903 C897 1.429 . S
C903 C904 1.523 . S
C904 C885 1.368 . S
C904 C898 1.368 . S
C904 C903 1.523 . S
C905 C889 1.429 . S
C905 C901 1.429 . S
C905 C906 1.523 . S
C906 C890 1.368 . S
C906 C902 1.368 . S
C906 C905 1.523 . S
H907 C882 0.950 . S
H908 C884 0.950 . S
H909 C885 0.949 . S
H910 C887 0.950 . S
H911 C889 0.950 . S
C912 C913 1.349 . S
C912 C914 1.327 . S
C912 H937 0.950 . S
C913 C912 1.349 . S
C913 C929 1.349 . S
C914 C912 1.327 . S
C914 C933 1.429 . S
C914 H938 0.950 . S
C915 C932 1.574 . S
C915 C934 1.368 . S
C915 H939 0.949 . S
H916 C920 0.949 . S
C917 C918 1.349 . S
C917 C919 1.327 . S
C917 H940 0.950 . S
C918 C917 1.349 . S
C918 C930 1.349 . S
C919 C917 1.327 . S
C919 C935 1.429 . S
C919 H941 0.950 . S
C920 H916 0.949 . S
C920 C928 1.574 . S
C920 C936 1.368 . S
H921 C929 0.950 . S
H922 C927 0.950 . S
H923 C928 0.949 . S
H924 C930 0.950 . S
H925 C931 0.950 . S
H926 C932 0.949 . S
C927 H922 0.950 . S
C927 C929 1.327 . S
C927 C933 1.429 . S
C928 C920 1.574 . S
C928 H923 0.949 . S
C928 C934 1.368 . S
C929 C913 1.349 . S
C929 H921 0.950 . S
C929 C927 1.327 . S
C930 C918 1.349 . S
C930 H924 0.950 . S
C930 C931 1.327 . S
C931 H925 0.950 . S
C931 C930 1.327 . S
C931 C935 1.429 . S
C932 C915 1.574 . S
C932 H926 0.949 . S
C932 C936 1.368 . S
C933 C914 1.429 . S
C933 C927 1.429 . S
C933 C934 1.523 . S
C934 C915 1.368 . S
C934 C928 1.368 . S
C934 C933 1.523 . S
C935 C919 1.429 . S
C935 C931 1.429 . S
C935 C936 1.523 . S
C936 C920 1.368 . S
C936 C932 1.368 . S
C936 C935 1.523 . S
H937 C912 0.950 . S
H938 C914 0.950 . S
H939 C915 0.949 . S
H940 C917 0.950 . S
H941 C919 0.950 . S
C942 C943 1.349 . S
C942 C944 1.327 . S
C942 H967 0.950 . S
C943 C942 1.349 . S
C943 C959 1.349 . S
C944 C942 1.327 . S
C944 C963 1.429 . S
C944 H968 0.950 . S
C945 C962 1.574 . S
C945 C964 1.368 . S
C945 H969 0.949 . S
H946 C950 0.949 . S
C947 C948 1.349 . S
C947 C949 1.327 . S
C947 H970 0.950 . S
C948 C947 1.349 . S
C948 C960 1.349 . S
C949 C947 1.327 . S
C949 C965 1.429 . S
C949 H971 0.950 . S
C950 H946 0.949 . S
C950 C958 1.574 . S
C950 C966 1.368 . S
H951 C959 0.950 . S
H952 C957 0.950 . S
H953 C958 0.949 . S
H954 C960 0.950 . S
H955 C961 0.950 . S
H956 C962 0.949 . S
C957 H952 0.950 . S
C957 C959 1.327 . S
C957 C963 1.429 . S
C958 C950 1.574 . S
C958 H953 0.949 . S
C958 C964 1.368 . S
C959 C943 1.349 . S
C959 H951 0.950 . S
C959 C957 1.327 . S
C960 C948 1.349 . S
C960 H954 0.950 . S
C960 C961 1.327 . S
C961 H955 0.950 . S
C961 C960 1.327 . S
C961 C965 1.429 . S
C962 C945 1.574 . S
C962 H956 0.949 . S
C962 C966 1.368 . S
C963 C944 1.429 . S
C963 C957 1.429 . S
C963 C964 1.523 . S
C964 C945 1.368 . S
C964 C958 1.368 . S
C964 C963 1.523 . S
C965 C949 1.429 . S
C965 C961 1.429 . S
C965 C966 1.523 . S
C966 C950 1.368 . S
C966 C962 1.368 . S
C966 C965 1.523 . S
H967 C942 0.950 . S
H968 C944 0.950 . S
H969 C945 0.949 . S
H970 C947 0.950 . S
H971 C949 0.950 . S
C972 C973 1.349 . S
C972 C974 1.327 . S
C972 H997 0.950 . S
C973 C972 1.349 . S
C973 C989 1.349 . S
C974 C972 1.327 . S
C974 C993 1.429 . S
C974 H998 0.950 . S
C975 C992 1.574 . S
C975 C994 1.368 . S
C975 H999 0.949 . S
H976 C980 0.949 . S
C977 C978 1.349 . S
C977 C979 1.327 . S
C977 H1000 0.950 . S
C978 C977 1.349 . S
C978 C990 1.349 . S
C979 C977 1.327 . S
C979 C995 1.429 . S
C979 H1001 0.950 . S
C980 H976 0.949 . S
C980 C988 1.574 . S
C980 C996 1.368 . S
H981 C989 0.950 . S
H982 C987 0.950 . S
H983 C988 0.949 . S
H984 C990 0.950 . S
H985 C991 0.950 . S
H986 C992 0.949 . S
C987 H982 0.950 . S
C987 C989 1.327 . S
C987 C993 1.429 . S
C988 C980 1.574 . S
C988 H983 0.949 . S
C988 C994 1.368 . S
C989 C973 1.349 . S
C989 H981 0.950 . S
C989 C987 1.327 . S
C990 C978 1.349 . S
C990 H984 0.950 . S
C990 C991 1.327 . S
C991 H985 0.950 . S
C991 C990 1.327 . S
C991 C995 1.429 . S
C992 C975 1.574 . S
C992 H986 0.949 . S
C992 C996 1.368 . S
C993 C974 1.429 . S
C993 C987 1.429 . S
C993 C994 1.523 . S
C994 C975 1.368 . S
C994 C988 1.368 . S
C994 C993 1.523 . S
C995 C979 1.429 . S
C995 C991 1.429 . S
C995 C996 1.523 . S
C996 C980 1.368 . S
C996 C992 1.368 . S
C996 C995 1.523 . S
H997 C972 0.950 . S
H998 C974 0.950 . S
H999 C975 0.949 . S
H1000 C977 0.950 . S
H1001 C979 0.950 . S
C1002 C1003 1.349 . S
C1002 C1004 1.327 . S
C1002 H1027 0.950 . S
C1003 C1002 1.349 . S
C1003 C1019 1.349 . S
C1004 C1002 1.327 . S
C1004 C1023 1.429 . S
C1004 H1028 0.950 . S
C1005 C1022 1.574 . S
C1005 C1024 1.368 . S
C1005 H1029 0.949 . S
H1006 C1010 0.949 . S
C1007 C1008 1.349 . S
C1007 C1009 1.327 . S
C1007 H1030 0.950 . S
C1008 C1007 1.349 . S
C1008 C1020 1.349 . S
C1009 C1007 1.327 . S
C1009 C1025 1.429 . S
C1009 H1031 0.950 . S
C1010 H1006 0.949 . S
C1010 C1018 1.574 . S
C1010 C1026 1.368 . S
H1011 C1019 0.950 . S
H1012 C1017 0.950 . S
H1013 C1018 0.949 . S
H1014 C1020 0.950 . S
H1015 C1021 0.950 . S
H1016 C1022 0.949 . S
C1017 H1012 0.950 . S
C1017 C1019 1.327 . S
C1017 C1023 1.429 . S
C1018 C1010 1.574 . S
C1018 H1013 0.949 . S
C1018 C1024 1.368 . S
C1019 C1003 1.349 . S
C1019 H1011 0.950 . S
C1019 C1017 1.327 . S
C1020 C1008 1.349 . S
C1020 H1014 0.950 . S
C1020 C1021 1.327 . S
C1021 H1015 0.950 . S
C1021 C1020 1.327 . S
C1021 C1025 1.429 . S
C1022 C1005 1.574 . S
C1022 H1016 0.949 . S
C1022 C1026 1.368 . S
C1023 C1004 1.429 . S
C1023 C1017 1.429 . S
C1023 C1024 1.523 . S
C1024 C1005 1.368 . S
C1024 C1018 1.368 . S
C1024 C1023 1.523 . S
C1025 C1009 1.429 . S
C1025 C1021 1.429 . S
C1025 C1026 1.523 . S
C1026 C1010 1.368 . S
C1026 C1022 1.368 . S
C1026 C1025 1.523 . S
H1027 C1002 0.950 . S
H1028 C1004 0.950 . S
H1029 C1005 0.949 . S
H1030 C1007 0.950 . S
H1031 C1009 0.950 . S
C1032 C1033 1.349 . S
C1032 C1034 1.327 . S
C1032 H1057 0.950 . S
C1033 C1032 1.349 . S
C1033 C1049 1.349 . S
C1034 C1032 1.327 . S
C1034 C1053 1.429 . S
C1034 H1058 0.950 . S
C1035 C1052 1.574 . S
C1035 C1054 1.368 . S
C1035 H1059 0.949 . S
H1036 C1040 0.949 . S
C1037 C1038 1.349 . S
C1037 C1039 1.327 . S
C1037 H1060 0.950 . S
C1038 C1037 1.349 . S
C1038 C1050 1.349 . S
C1039 C1037 1.327 . S
C1039 C1055 1.429 . S
C1039 H1061 0.950 . S
C1040 H1036 0.949 . S
C1040 C1048 1.574 . S
C1040 C1056 1.368 . S
H1041 C1049 0.950 . S
H1042 C1047 0.950 . S
H1043 C1048 0.949 . S
H1044 C1050 0.950 . S
H1045 C1051 0.950 . S
H1046 C1052 0.949 . S
C1047 H1042 0.950 . S
C1047 C1049 1.327 . S
C1047 C1053 1.429 . S
C1048 C1040 1.574 . S
C1048 H1043 0.949 . S
C1048 C1054 1.368 . S
C1049 C1033 1.349 . S
C1049 H1041 0.950 . S
C1049 C1047 1.327 . S
C1050 C1038 1.349 . S
C1050 H1044 0.950 . S
C1050 C1051 1.327 . S
C1051 H1045 0.950 . S
C1051 C1050 1.327 . S
C1051 C1055 1.429 . S
C1052 C1035 1.574 . S
C1052 H1046 0.949 . S
C1052 C1056 1.368 . S
C1053 C1034 1.429 . S
C1053 C1047 1.429 . S
C1053 C1054 1.523 . S
C1054 C1035 1.368 . S
C1054 C1048 1.368 . S
C1054 C1053 1.523 . S
C1055 C1039 1.429 . S
C1055 C1051 1.429 . S
C1055 C1056 1.523 . S
C1056 C1040 1.368 . S
C1056 C1052 1.368 . S
C1056 C1055 1.523 . S
H1057 C1032 0.950 . S
H1058 C1034 0.950 . S
H1059 C1035 0.949 . S
H1060 C1037 0.950 . S
H1061 C1039 0.950 . S
C1062 C1063 1.349 . S
C1062 C1064 1.327 . S
C1062 H1087 0.950 . S
C1063 C1062 1.349 . S
C1063 C1079 1.349 . S
C1064 C1062 1.327 . S
C1064 C1083 1.429 . S
C1064 H1088 0.950 . S
C1065 C1082 1.574 . S
C1065 C1084 1.368 1_556 S
C1065 H1089 0.949 . S
H1066 C1070 0.949 . S
C1067 C1068 1.349 . S
C1067 C1069 1.327 . S
C1067 H1090 0.950 . S
C1068 C1067 1.349 . S
C1068 C1080 1.349 . S
C1069 C1067 1.327 . S
C1069 C1085 1.429 . S
C1069 H1091 0.950 . S
C1070 H1066 0.949 . S
C1070 C1078 1.574 . S
C1070 C1086 1.368 1_554 S
H1071 C1079 0.950 . S
H1072 C1077 0.950 . S
H1073 C1078 0.949 . S
H1074 C1080 0.950 . S
H1075 C1081 0.950 . S
H1076 C1082 0.949 . S
C1077 H1072 0.950 . S
C1077 C1079 1.327 . S
C1077 C1083 1.429 . S
C1078 C1070 1.574 . S
C1078 H1073 0.949 . S
C1078 C1084 1.368 1_455 S
C1079 C1063 1.349 . S
C1079 H1071 0.950 . S
C1079 C1077 1.327 . S
C1080 C1068 1.349 . S
C1080 H1074 0.950 . S
C1080 C1081 1.327 . S
C1081 H1075 0.950 . S
C1081 C1080 1.327 . S
C1081 C1085 1.429 . S
C1082 C1065 1.574 . S
C1082 H1076 0.949 . S
C1082 C1086 1.368 1_655 S
C1083 C1064 1.429 . S
C1083 C1077 1.429 . S
C1083 C1084 1.523 . S
C1084 C1065 1.368 1_554 S
C1084 C1078 1.368 1_655 S
C1084 C1083 1.523 . S
C1085 C1069 1.429 . S
C1085 C1081 1.429 . S
C1085 C1086 1.523 . S
C1086 C1070 1.368 1_556 S
C1086 C1082 1.368 1_455 S
C1086 C1085 1.523 . S
H1087 C1062 0.950 . S
H1088 C1064 0.950 . S
H1089 C1065 0.949 . S
H1090 C1067 0.950 . S
H1091 C1069 0.950 . S
C1092 C1093 1.349 . S
C1092 C1094 1.327 . S
C1092 H1117 0.950 . S
C1093 C1092 1.349 . S
C1093 C1109 1.349 . S
C1094 C1092 1.327 . S
C1094 C1113 1.429 . S
C1094 H1118 0.950 . S
C1095 C1112 1.574 1_556 S
C1095 C1114 1.368 . S
C1095 H1119 0.949 . S
H1096 C1100 0.949 . S
C1097 C1098 1.349 . S
C1097 C1099 1.327 . S
C1097 H1120 0.950 . S
C1098 C1097 1.349 . S
C1098 C1110 1.349 . S
C1099 C1097 1.327 . S
C1099 C1115 1.429 . S
C1099 H1121 0.950 . S
C1100 H1096 0.949 . S
C1100 C1108 1.574 1_554 S
C1100 C1116 1.368 . S
H1101 C1109 0.950 . S
H1102 C1107 0.950 . S
H1103 C1108 0.949 . S
H1104 C1110 0.950 . S
H1105 C1111 0.950 . S
H1106 C1112 0.949 . S
C1107 H1102 0.950 . S
C1107 C1109 1.327 . S
C1107 C1113 1.429 . S
C1108 C1100 1.574 1_556 S
C1108 H1103 0.949 . S
C1108 C1114 1.368 . S
C1109 C1093 1.349 . S
C1109 H1101 0.950 . S
C1109 C1107 1.327 . S
C1110 C1098 1.349 . S
C1110 H1104 0.950 . S
C1110 C1111 1.327 . S
C1111 H1105 0.950 . S
C1111 C1110 1.327 . S
C1111 C1115 1.429 . S
C1112 C1095 1.574 1_554 S
C1112 H1106 0.949 . S
C1112 C1116 1.368 . S
C1113 C1094 1.429 . S
C1113 C1107 1.429 . S
C1113 C1114 1.523 . S
C1114 C1095 1.368 . S
C1114 C1108 1.368 . S
C1114 C1113 1.523 . S
C1115 C1099 1.429 . S
C1115 C1111 1.429 . S
C1115 C1116 1.523 . S
C1116 C1100 1.368 . S
C1116 C1112 1.368 . S
C1116 C1115 1.523 . S
H1117 C1092 0.950 . S
H1118 C1094 0.950 . S
H1119 C1095 0.949 . S
H1120 C1097 0.950 . S
H1121 C1099 0.950 . S
C1122 C1123 1.349 . S
C1122 C1124 1.327 . S
C1122 H1147 0.950 . S
C1123 C1122 1.349 . S
C1123 C1139 1.349 . S
C1124 C1122 1.327 . S
C1124 C1143 1.429 . S
C1124 H1148 0.950 . S
C1125 C1142 1.574 . S
C1125 C1144 1.368 1_556 S
C1125 H1149 0.949 . S
H1126 C1130 0.949 . S
C1127 C1128 1.349 . S
C1127 C1129 1.327 . S
C1127 H1150 0.950 . S
C1128 C1127 1.349 . S
C1128 C1140 1.349 . S
C1129 C1127 1.327 . S
C1129 C1145 1.429 . S
C1129 H1151 0.950 . S
C1130 H1126 0.949 . S
C1130 C1138 1.574 . S
C1130 C1146 1.368 1_554 S
H1131 C1139 0.950 . S
H1132 C1137 0.950 . S
H1133 C1138 0.949 . S
H1134 C1140 0.950 . S
H1135 C1141 0.950 . S
H1136 C1142 0.949 . S
C1137 H1132 0.950 . S
C1137 C1139 1.327 . S
C1137 C1143 1.429 . S
C1138 C1130 1.574 . S
C1138 H1133 0.949 . S
C1138 C1144 1.368 1_565 S
C1139 C1123 1.349 . S
C1139 H1131 0.950 . S
C1139 C1137 1.327 . S
C1140 C1128 1.349 . S
C1140 H1134 0.950 . S
C1140 C1141 1.327 . S
C1141 H1135 0.950 . S
C1141 C1140 1.327 . S
C1141 C1145 1.429 . S
C1142 C1125 1.574 . S
C1142 H1136 0.949 . S
C1142 C1146 1.368 1_545 S
C1143 C1124 1.429 . S
C1143 C1137 1.429 . S
C1143 C1144 1.523 . S
C1144 C1125 1.368 1_554 S
C1144 C1138 1.368 1_545 S
C1144 C1143 1.523 . S
C1145 C1129 1.429 . S
C1145 C1141 1.429 . S
C1145 C1146 1.523 . S
C1146 C1130 1.368 1_556 S
C1146 C1142 1.368 1_565 S
C1146 C1145 1.523 . S
H1147 C1122 0.950 . S
H1148 C1124 0.950 . S
H1149 C1125 0.949 . S
H1150 C1127 0.950 . S
H1151 C1129 0.950 . S
C1152 C1153 1.349 . S
C1152 C1154 1.327 . S
C1152 H1177 0.950 . S
C1153 C1152 1.349 . S
C1153 C1169 1.349 . S
C1154 C1152 1.327 . S
C1154 C1173 1.429 . S
C1154 H1178 0.950 . S
C1155 C1172 1.574 1_554 S
C1155 C1174 1.368 1_655 S
C1155 H1179 0.949 . S
H1156 C1160 0.949 . S
C1157 C1158 1.349 . S
C1157 C1159 1.327 . S
C1157 H1180 0.950 . S
C1158 C1157 1.349 . S
C1158 C1170 1.349 . S
C1159 C1157 1.327 . S
C1159 C1175 1.429 . S
C1159 H1181 0.950 . S
C1160 H1156 0.949 . S
C1160 C1168 1.574 1_556 S
C1160 C1176 1.368 1_455 S
H1161 C1169 0.950 . S
H1162 C1167 0.950 1_655 S
H1163 C1168 0.949 . S
H1164 C1170 0.950 . S
H1165 C1171 0.950 1_455 S
H1166 C1172 0.949 . S
C1167 H1162 0.950 1_455 S
C1167 C1169 1.327 . S
C1167 C1173 1.429 . S
C1168 C1160 1.574 1_554 S
C1168 H1163 0.949 . S
C1168 C1174 1.368 . S
C1169 C1153 1.349 . S
C1169 H1161 0.950 . S
C1169 C1167 1.327 . S
C1170 C1158 1.349 . S
C1170 H1164 0.950 . S
C1170 C1171 1.327 . S
C1171 H1165 0.950 1_655 S
C1171 C1170 1.327 . S
C1171 C1175 1.429 . S
C1172 C1155 1.574 1_556 S
C1172 H1166 0.949 . S
C1172 C1176 1.368 . S
C1173 C1154 1.429 . S
C1173 C1167 1.429 . S
C1173 C1174 1.523 . S
C1174 C1155 1.368 1_455 S
C1174 C1168 1.368 . S
C1174 C1173 1.523 . S
C1175 C1159 1.429 . S
C1175 C1171 1.429 . S
C1175 C1176 1.523 . S
C1176 C1160 1.368 1_655 S
C1176 C1172 1.368 . S
C1176 C1175 1.523 . S
H1177 C1152 0.950 . S
H1178 C1154 0.950 . S
H1179 C1155 0.949 . S
H1180 C1157 0.950 . S
H1181 C1159 0.950 . S
C1182 C1183 1.349 . S
C1182 C1184 1.327 . S
C1182 H1207 0.950 . S
C1183 C1182 1.349 . S
C1183 C1199 1.349 . S
C1184 C1182 1.327 . S
C1184 C1203 1.429 . S
C1184 H1208 0.950 . S
C1185 C1202 1.574 1_556 S
C1185 C1204 1.368 . S
C1185 H1209 0.949 . S
H1186 C1190 0.949 . S
C1187 C1188 1.349 . S
C1187 C1189 1.327 . S
C1187 H1210 0.950 . S
C1188 C1187 1.349 . S
C1188 C1200 1.349 . S
C1189 C1187 1.327 . S
C1189 C1205 1.429 . S
C1189 H1211 0.950 . S
C1190 H1186 0.949 . S
C1190 C1198 1.574 1_554 S
C1190 C1206 1.368 . S
H1191 C1199 0.950 . S
H1192 C1197 0.950 . S
H1193 C1198 0.949 . S
H1194 C1200 0.950 . S
H1195 C1201 0.950 . S
H1196 C1202 0.949 . S
C1197 H1192 0.950 . S
C1197 C1199 1.327 . S
C1197 C1203 1.429 . S
C1198 C1190 1.574 1_556 S
C1198 H1193 0.949 . S
C1198 C1204 1.368 . S
C1199 C1183 1.349 . S
C1199 H1191 0.950 . S
C1199 C1197 1.327 . S
C1200 C1188 1.349 . S
C1200 H1194 0.950 . S
C1200 C1201 1.327 . S
C1201 H1195 0.950 . S
C1201 C1200 1.327 . S
C1201 C1205 1.429 . S
C1202 C1185 1.574 1_554 S
C1202 H1196 0.949 . S
C1202 C1206 1.368 . S
C1203 C1184 1.429 . S
C1203 C1197 1.429 . S
C1203 C1204 1.523 . S
C1204 C1185 1.368 . S
C1204 C1198 1.368 . S
C1204 C1203 1.523 . S
C1205 C1189 1.429 . S
C1205 C1201 1.429 . S
C1205 C1206 1.523 . S
C1206 C1190 1.368 . S
C1206 C1202 1.368 . S
C1206 C1205 1.523 . S
H1207 C1182 0.950 . S
H1208 C1184 0.950 . S
H1209 C1185 0.949 . S
H1210 C1187 0.950 . S
H1211 C1189 0.950 . S
C1212 C1213 1.349 . S
C1212 C1214 1.327 . S
C1212 H1237 0.950 . S
C1213 C1212 1.349 . S
C1213 C1229 1.349 . S
C1214 C1212 1.327 . S
C1214 C1233 1.429 . S
C1214 H1238 0.950 . S
C1215 C1232 1.574 1_556 S
C1215 C1234 1.368 1_565 S
C1215 H1239 0.949 . S
H1216 C1220 0.949 . S
C1217 C1218 1.349 . S
C1217 C1219 1.327 . S
C1217 H1240 0.950 . S
C1218 C1217 1.349 . S
C1218 C1230 1.349 . S
C1219 C1217 1.327 . S
C1219 C1235 1.429 . S
C1219 H1241 0.950 . S
C1220 H1216 0.949 . S
C1220 C1228 1.574 1_554 S
C1220 C1236 1.368 1_545 S
H1221 C1229 0.950 . S
H1222 C1227 0.950 . S
H1223 C1228 0.949 . S
H1224 C1230 0.950 . S
H1225 C1231 0.950 . S
H1226 C1232 0.949 . S
C1227 H1222 0.950 . S
C1227 C1229 1.327 . S
C1227 C1233 1.429 . S
C1228 C1220 1.574 1_556 S
C1228 H1223 0.949 . S
C1228 C1234 1.368 . S
C1229 C1213 1.349 . S
C1229 H1221 0.950 . S
C1229 C1227 1.327 . S
C1230 C1218 1.349 . S
C1230 H1224 0.950 . S
C1230 C1231 1.327 . S
C1231 H1225 0.950 . S
C1231 C1230 1.327 . S
C1231 C1235 1.429 . S
C1232 C1215 1.574 1_554 S
C1232 H1226 0.949 . S
C1232 C1236 1.368 . S
C1233 C1214 1.429 . S
C1233 C1227 1.429 . S
C1233 C1234 1.523 . S
C1234 C1215 1.368 1_545 S
C1234 C1228 1.368 . S
C1234 C1233 1.523 . S
C1235 C1219 1.429 . S
C1235 C1231 1.429 . S
C1235 C1236 1.523 . S
C1236 C1220 1.368 1_565 S
C1236 C1232 1.368 . S
C1236 C1235 1.523 . S
H1237 C1212 0.950 . S
H1238 C1214 0.950 . S
H1239 C1215 0.949 . S
H1240 C1217 0.950 . S
H1241 C1219 0.950 . S
C1242 C1243 1.349 . S
C1242 C1244 1.327 . S
C1242 H1267 0.950 . S
C1243 C1242 1.349 . S
C1243 C1259 1.349 . S
C1244 C1242 1.327 . S
C1244 C1263 1.429 . S
C1244 H1268 0.950 . S
C1245 C1262 1.574 . S
C1245 C1264 1.368 . S
C1245 H1269 0.949 . S
H1246 C1250 0.949 . S
C1247 C1248 1.349 . S
C1247 C1249 1.327 . S
C1247 H1270 0.950 . S
C1248 C1247 1.349 . S
C1248 C1260 1.349 . S
C1249 C1247 1.327 . S
C1249 C1265 1.429 . S
C1249 H1271 0.950 . S
C1250 H1246 0.949 . S
C1250 C1258 1.574 . S
C1250 C1266 1.368 . S
H1251 C1259 0.950 . S
H1252 C1257 0.950 . S
H1253 C1258 0.949 . S
H1254 C1260 0.950 . S
H1255 C1261 0.950 . S
H1256 C1262 0.949 . S
C1257 H1252 0.950 . S
C1257 C1259 1.327 . S
C1257 C1263 1.429 . S
C1258 C1250 1.574 . S
C1258 H1253 0.949 . S
C1258 C1264 1.368 . S
C1259 C1243 1.349 . S
C1259 H1251 0.950 . S
C1259 C1257 1.327 . S
C1260 C1248 1.349 . S
C1260 H1254 0.950 . S
C1260 C1261 1.327 . S
C1261 H1255 0.950 . S
C1261 C1260 1.327 . S
C1261 C1265 1.429 . S
C1262 C1245 1.574 . S
C1262 H1256 0.949 . S
C1262 C1266 1.368 . S
C1263 C1244 1.429 . S
C1263 C1257 1.429 . S
C1263 C1264 1.523 . S
C1264 C1245 1.368 . S
C1264 C1258 1.368 . S
C1264 C1263 1.523 . S
C1265 C1249 1.429 . S
C1265 C1261 1.429 . S
C1265 C1266 1.523 . S
C1266 C1250 1.368 . S
C1266 C1262 1.368 . S
C1266 C1265 1.523 . S
H1267 C1242 0.950 . S
H1268 C1244 0.950 . S
H1269 C1245 0.949 . S
H1270 C1247 0.950 . S
H1271 C1249 0.950 . S
C1272 C1273 1.349 . S
C1272 C1274 1.327 . S
C1272 H1297 0.950 . S
C1273 C1272 1.349 . S
C1273 C1289 1.349 . S
C1274 C1272 1.327 . S
C1274 C1293 1.429 . S
C1274 H1298 0.950 . S
C1275 C1292 1.574 . S
C1275 C1294 1.368 . S
C1275 H1299 0.949 . S
H1276 C1280 0.949 . S
C1277 C1278 1.349 . S
C1277 C1279 1.327 . S
C1277 H1300 0.950 . S
C1278 C1277 1.349 . S
C1278 C1290 1.349 . S
C1279 C1277 1.327 . S
C1279 C1295 1.429 . S
C1279 H1301 0.950 . S
C1280 H1276 0.949 . S
C1280 C1288 1.574 . S
C1280 C1296 1.368 . S
H1281 C1289 0.950 . S
H1282 C1287 0.950 . S
H1283 C1288 0.949 . S
H1284 C1290 0.950 . S
H1285 C1291 0.950 . S
H1286 C1292 0.949 . S
C1287 H1282 0.950 . S
C1287 C1289 1.327 . S
C1287 C1293 1.429 . S
C1288 C1280 1.574 . S
C1288 H1283 0.949 . S
C1288 C1294 1.368 . S
C1289 C1273 1.349 . S
C1289 H1281 0.950 . S
C1289 C1287 1.327 . S
C1290 C1278 1.349 . S
C1290 H1284 0.950 . S
C1290 C1291 1.327 . S
C1291 H1285 0.950 . S
C1291 C1290 1.327 . S
C1291 C1295 1.429 . S
C1292 C1275 1.574 . S
C1292 H1286 0.949 . S
C1292 C1296 1.368 . S
C1293 C1274 1.429 . S
C1293 C1287 1.429 . S
C1293 C1294 1.523 . S
C1294 C1275 1.368 . S
C1294 C1288 1.368 . S
C1294 C1293 1.523 . S
C1295 C1279 1.429 . S
C1295 C1291 1.429 . S
C1295 C1296 1.523 . S
C1296 C1280 1.368 . S
C1296 C1292 1.368 . S
C1296 C1295 1.523 . S
H1297 C1272 0.950 . S
H1298 C1274 0.950 . S
H1299 C1275 0.949 . S
H1300 C1277 0.950 . S
H1301 C1279 0.950 . S
C1302 C1303 1.349 . S
C1302 C1304 1.327 . S
C1302 H1327 0.950 . S
C1303 C1302 1.349 . S
C1303 C1319 1.349 . S
C1304 C1302 1.327 . S
C1304 C1323 1.429 . S
C1304 H1328 0.950 . S
C1305 C1322 1.574 . S
C1305 C1324 1.368 . S
C1305 H1329 0.949 . S
H1306 C1310 0.949 . S
C1307 C1308 1.349 . S
C1307 C1309 1.327 . S
C1307 H1330 0.950 . S
C1308 C1307 1.349 . S
C1308 C1320 1.349 . S
C1309 C1307 1.327 . S
C1309 C1325 1.429 . S
C1309 H1331 0.950 . S
C1310 H1306 0.949 . S
C1310 C1318 1.574 . S
C1310 C1326 1.368 . S
H1311 C1319 0.950 . S
H1312 C1317 0.950 . S
H1313 C1318 0.949 . S
H1314 C1320 0.950 . S
H1315 C1321 0.950 . S
H1316 C1322 0.949 . S
C1317 H1312 0.950 . S
C1317 C1319 1.327 . S
C1317 C1323 1.429 . S
C1318 C1310 1.574 . S
C1318 H1313 0.949 . S
C1318 C1324 1.368 . S
C1319 C1303 1.349 . S
C1319 H1311 0.950 . S
C1319 C1317 1.327 . S
C1320 C1308 1.349 . S
C1320 H1314 0.950 . S
C1320 C1321 1.327 . S
C1321 H1315 0.950 . S
C1321 C1320 1.327 . S
C1321 C1325 1.429 . S
C1322 C1305 1.574 . S
C1322 H1316 0.949 . S
C1322 C1326 1.368 . S
C1323 C1304 1.429 . S
C1323 C1317 1.429 . S
C1323 C1324 1.523 . S
C1324 C1305 1.368 . S
C1324 C1318 1.368 . S
C1324 C1323 1.523 . S
C1325 C1309 1.429 . S
C1325 C1321 1.429 . S
C1325 C1326 1.523 . S
C1326 C1310 1.368 . S
C1326 C1322 1.368 . S
C1326 C1325 1.523 . S
H1327 C1302 0.950 . S
H1328 C1304 0.950 . S
H1329 C1305 0.949 . S
H1330 C1307 0.950 . S
H1331 C1309 0.950 . S
C1332 C1333 1.349 . S
C1332 C1334 1.327 . S
C1332 H1357 0.950 . S
C1333 C1332 1.349 . S
C1333 C1349 1.349 . S
C1334 C1332 1.327 . S
C1334 C1353 1.429 . S
C1334 H1358 0.950 . S
C1335 C1352 1.574 . S
C1335 C1354 1.368 . S
C1335 H1359 0.949 . S
H1336 C1340 0.949 . S
C1337 C1338 1.349 . S
C1337 C1339 1.327 . S
C1337 H1360 0.950 . S
C1338 C1337 1.349 . S
C1338 C1350 1.349 . S
C1339 C1337 1.327 . S
C1339 C1355 1.429 . S
C1339 H1361 0.950 . S
C1340 H1336 0.949 . S
C1340 C1348 1.574 . S
C1340 C1356 1.368 . S
H1341 C1349 0.950 . S
H1342 C1347 0.950 . S
H1343 C1348 0.949 . S
H1344 C1350 0.950 . S
H1345 C1351 0.950 . S
H1346 C1352 0.949 . S
C1347 H1342 0.950 . S
C1347 C1349 1.327 . S
C1347 C1353 1.429 . S
C1348 C1340 1.574 . S
C1348 H1343 0.949 . S
C1348 C1354 1.368 . S
C1349 C1333 1.349 . S
C1349 H1341 0.950 . S
C1349 C1347 1.327 . S
C1350 C1338 1.349 . S
C1350 H1344 0.950 . S
C1350 C1351 1.327 . S
C1351 H1345 0.950 . S
C1351 C1350 1.327 . S
C1351 C1355 1.429 . S
C1352 C1335 1.574 . S
C1352 H1346 0.949 . S
C1352 C1356 1.368 . S
C1353 C1334 1.429 . S
C1353 C1347 1.429 . S
C1353 C1354 1.523 . S
C1354 C1335 1.368 . S
C1354 C1348 1.368 . S
C1354 C1353 1.523 . S
C1355 C1339 1.429 . S
C1355 C1351 1.429 . S
C1355 C1356 1.523 . S
C1356 C1340 1.368 . S
C1356 C1352 1.368 . S
C1356 C1355 1.523 . S
H1357 C1332 0.950 . S
H1358 C1334 0.950 . S
H1359 C1335 0.949 . S
H1360 C1337 0.950 . S
H1361 C1339 0.950 . S
C1362 C1363 1.349 . S
C1362 C1364 1.327 . S
C1362 H1387 0.950 . S
C1363 C1362 1.349 . S
C1363 C1379 1.349 . S
C1364 C1362 1.327 . S
C1364 C1383 1.429 . S
C1364 H1388 0.950 . S
C1365 C1382 1.574 . S
C1365 C1384 1.368 . S
C1365 H1389 0.949 . S
H1366 C1370 0.949 . S
C1367 C1368 1.349 . S
C1367 C1369 1.327 . S
C1367 H1390 0.950 . S
C1368 C1367 1.349 . S
C1368 C1380 1.349 . S
C1369 C1367 1.327 . S
C1369 C1385 1.429 . S
C1369 H1391 0.950 . S
C1370 H1366 0.949 . S
C1370 C1378 1.574 . S
C1370 C1386 1.368 . S
H1371 C1379 0.950 . S
H1372 C1377 0.950 . S
H1373 C1378 0.949 . S
H1374 C1380 0.950 . S
H1375 C1381 0.950 . S
H1376 C1382 0.949 . S
C1377 H1372 0.950 . S
C1377 C1379 1.327 . S
C1377 C1383 1.429 . S
C1378 C1370 1.574 . S
C1378 H1373 0.949 . S
C1378 C1384 1.368 . S
C1379 C1363 1.349 . S
C1379 H1371 0.950 . S
C1379 C1377 1.327 . S
C1380 C1368 1.349 . S
C1380 H1374 0.950 . S
C1380 C1381 1.327 . S
C1381 H1375 0.950 . S
C1381 C1380 1.327 . S
C1381 C1385 1.429 . S
C1382 C1365 1.574 . S
C1382 H1376 0.949 . S
C1382 C1386 1.368 . S
C1383 C1364 1.429 . S
C1383 C1377 1.429 . S
C1383 C1384 1.523 . S
C1384 C1365 1.368 . S
C1384 C1378 1.368 . S
C1384 C1383 1.523 . S
C1385 C1369 1.429 . S
C1385 C1381 1.429 . S
C1385 C1386 1.523 . S
C1386 C1370 1.368 . S
C1386 C1382 1.368 . S
C1386 C1385 1.523 . S
H1387 C1362 0.950 . S
H1388 C1364 0.950 . S
H1389 C1365 0.949 . S
H1390 C1367 0.950 . S
H1391 C1369 0.950 . S
C1392 C1393 1.349 . S
C1392 C1394 1.327 . S
C1392 H1417 0.950 . S
C1393 C1392 1.349 . S
C1393 C1409 1.349 . S
C1394 C1392 1.327 . S
C1394 C1413 1.429 . S
C1394 H1418 0.950 . S
C1395 C1412 1.574 . S
C1395 C1414 1.368 . S
C1395 H1419 0.949 . S
H1396 C1400 0.949 . S
C1397 C1398 1.349 . S
C1397 C1399 1.327 . S
C1397 H1420 0.950 . S
C1398 C1397 1.349 . S
C1398 C1410 1.349 . S
C1399 C1397 1.327 . S
C1399 C1415 1.429 . S
C1399 H1421 0.950 . S
C1400 H1396 0.949 . S
C1400 C1408 1.574 . S
C1400 C1416 1.368 . S
H1401 C1409 0.950 . S
H1402 C1407 0.950 . S
H1403 C1408 0.949 . S
H1404 C1410 0.950 . S
H1405 C1411 0.950 . S
H1406 C1412 0.949 . S
C1407 H1402 0.950 . S
C1407 C1409 1.327 . S
C1407 C1413 1.429 . S
C1408 C1400 1.574 . S
C1408 H1403 0.949 . S
C1408 C1414 1.368 . S
C1409 C1393 1.349 . S
C1409 H1401 0.950 . S
C1409 C1407 1.327 . S
C1410 C1398 1.349 . S
C1410 H1404 0.950 . S
C1410 C1411 1.327 . S
C1411 H1405 0.950 . S
C1411 C1410 1.327 . S
C1411 C1415 1.429 . S
C1412 C1395 1.574 . S
C1412 H1406 0.949 . S
C1412 C1416 1.368 . S
C1413 C1394 1.429 . S
C1413 C1407 1.429 . S
C1413 C1414 1.523 . S
C1414 C1395 1.368 . S
C1414 C1408 1.368 . S
C1414 C1413 1.523 . S
C1415 C1399 1.429 . S
C1415 C1411 1.429 . S
C1415 C1416 1.523 . S
C1416 C1400 1.368 . S
C1416 C1412 1.368 . S
C1416 C1415 1.523 . S
H1417 C1392 0.950 . S
H1418 C1394 0.950 . S
H1419 C1395 0.949 . S
H1420 C1397 0.950 . S
H1421 C1399 0.950 . S
C1422 C1423 1.349 . S
C1422 C1424 1.327 1_565 S
C1422 H1447 0.950 . S
C1423 C1422 1.349 . S
C1423 C1439 1.349 1_565 S
C1424 C1422 1.327 1_545 S
C1424 C1443 1.429 . S
C1424 H1448 0.950 . S
C1425 C1442 1.574 . S
C1425 C1444 1.368 . S
C1425 H1449 0.949 . S
H1426 C1430 0.949 . S
C1427 C1428 1.349 . S
C1427 C1429 1.327 . S
C1427 H1450 0.950 . S
C1428 C1427 1.349 . S
C1428 C1440 1.349 . S
C1429 C1427 1.327 . S
C1429 C1445 1.429 . S
C1429 H1451 0.950 . S
C1430 H1426 0.949 . S
C1430 C1438 1.574 . S
C1430 C1446 1.368 . S
H1431 C1439 0.950 . S
H1432 C1437 0.950 . S
H1433 C1438 0.949 . S
H1434 C1440 0.950 . S
H1435 C1441 0.950 . S
H1436 C1442 0.949 . S
C1437 H1432 0.950 . S
C1437 C1439 1.327 . S
C1437 C1443 1.429 . S
C1438 C1430 1.574 . S
C1438 H1433 0.949 . S
C1438 C1444 1.368 . S
C1439 C1423 1.349 1_545 S
C1439 H1431 0.950 . S
C1439 C1437 1.327 . S
C1440 C1428 1.349 . S
C1440 H1434 0.950 . S
C1440 C1441 1.327 . S
C1441 H1435 0.950 . S
C1441 C1440 1.327 . S
C1441 C1445 1.429 . S
C1442 C1425 1.574 . S
C1442 H1436 0.949 . S
C1442 C1446 1.368 . S
C1443 C1424 1.429 . S
C1443 C1437 1.429 . S
C1443 C1444 1.523 . S
C1444 C1425 1.368 . S
C1444 C1438 1.368 . S
C1444 C1443 1.523 . S
C1445 C1429 1.429 . S
C1445 C1441 1.429 . S
C1445 C1446 1.523 . S
C1446 C1430 1.368 . S
C1446 C1442 1.368 . S
C1446 C1445 1.523 . S
H1447 C1422 0.950 . S
H1448 C1424 0.950 . S
H1449 C1425 0.949 . S
H1450 C1427 0.950 . S
H1451 C1429 0.950 . S
C1452 C1453 1.349 1_655 S
C1452 C1454 1.327 . S
C1452 H1477 0.950 1_655 S
C1453 C1452 1.349 1_455 S
C1453 C1469 1.349 1_455 S
C1454 C1452 1.327 . S
C1454 C1473 1.429 . S
C1454 H1478 0.950 . S
C1455 C1472 1.574 . S
C1455 C1474 1.368 . S
C1455 H1479 0.949 . S
H1456 C1460 0.949 . S
C1457 C1458 1.349 . S
C1457 C1459 1.327 . S
C1457 H1480 0.950 . S
C1458 C1457 1.349 . S
C1458 C1470 1.349 . S
C1459 C1457 1.327 . S
C1459 C1475 1.429 . S
C1459 H1481 0.950 . S
C1460 H1456 0.949 . S
C1460 C1468 1.574 . S
C1460 C1476 1.368 . S
H1461 C1469 0.950 . S
H1462 C1467 0.950 . S
H1463 C1468 0.949 . S
H1464 C1470 0.950 . S
H1465 C1471 0.950 . S
H1466 C1472 0.949 . S
C1467 H1462 0.950 . S
C1467 C1469 1.327 . S
C1467 C1473 1.429 . S
C1468 C1460 1.574 . S
C1468 H1463 0.949 . S
C1468 C1474 1.368 . S
C1469 C1453 1.349 1_655 S
C1469 H1461 0.950 . S
C1469 C1467 1.327 . S
C1470 C1458 1.349 . S
C1470 H1464 0.950 . S
C1470 C1471 1.327 . S
C1471 H1465 0.950 . S
C1471 C1470 1.327 . S
C1471 C1475 1.433 . S
C1472 C1455 1.574 . S
C1472 H1466 0.949 . S
C1472 C1476 1.368 . S
C1473 C1454 1.429 . S
C1473 C1467 1.429 . S
C1473 C1474 1.523 . S
C1474 C1455 1.368 . S
C1474 C1468 1.368 . S
C1474 C1473 1.523 . S
C1475 C1459 1.429 . S
C1475 C1471 1.433 . S
C1475 C1476 1.518 1_565 S
C1476 C1460 1.368 . S
C1476 C1472 1.368 . S
C1476 C1475 1.518 1_545 S
H1477 C1452 0.950 1_455 S
H1478 C1454 0.950 . S
H1479 C1455 0.949 . S
H1480 C1457 0.950 . S
H1481 C1459 0.950 . S
C1482 C1483 1.349 . S
C1482 C1484 1.327 . S
C1482 H1507 0.950 . S
C1483 C1482 1.349 . S
C1483 C1499 1.349 . S
C1484 C1482 1.327 . S
C1484 C1503 1.429 . S
C1484 H1508 0.950 . S
C1485 C1502 1.574 . S
C1485 C1504 1.368 . S
C1485 H1509 0.949 . S
H1486 C1490 0.949 . S
C1487 C1488 1.349 . S
C1487 C1489 1.327 . S
C1487 H1510 0.950 . S
C1488 C1487 1.349 . S
C1488 C1500 1.349 . S
C1489 C1487 1.327 . S
C1489 C1505 1.429 1_455 S
C1489 H1511 0.950 . S
C1490 H1486 0.949 . S
C1490 C1498 1.574 . S
C1490 C1506 1.368 . S
H1491 C1499 0.950 . S
H1492 C1497 0.950 . S
H1493 C1498 0.949 . S
H1494 C1500 0.950 . S
H1495 C1501 0.950 1_655 S
H1496 C1502 0.949 . S
C1497 H1492 0.950 . S
C1497 C1499 1.327 . S
C1497 C1503 1.429 . S
C1498 C1490 1.574 . S
C1498 H1493 0.949 . S
C1498 C1504 1.368 . S
C1499 C1483 1.349 . S
C1499 H1491 0.950 . S
C1499 C1497 1.327 . S
C1500 C1488 1.349 . S
C1500 H1494 0.950 . S
C1500 C1501 1.327 . S
C1501 H1495 0.950 1_455 S
C1501 C1500 1.327 . S
C1501 C1505 1.429 1_455 S
C1502 C1485 1.574 . S
C1502 H1496 0.949 . S
C1502 C1506 1.368 . S
C1503 C1484 1.429 . S
C1503 C1497 1.429 . S
C1503 C1504 1.523 . S
C1504 C1485 1.368 . S
C1504 C1498 1.368 . S
C1504 C1503 1.523 . S
C1505 C1489 1.429 1_655 S
C1505 C1501 1.429 1_655 S
C1505 C1506 1.523 . S
C1506 C1490 1.368 . S
C1506 C1502 1.368 . S
C1506 C1505 1.523 . S
H1507 C1482 0.950 . S
H1508 C1484 0.950 . S
H1509 C1485 0.949 . S
H1510 C1487 0.950 . S
H1511 C1489 0.950 . S
C1512 C1513 1.349 1_455 S
C1512 C1514 1.327 . S
C1512 H1537 0.950 1_455 S
C1513 C1512 1.349 1_655 S
C1513 C1529 1.349 1_655 S
C1514 C1512 1.327 . S
C1514 C1533 1.429 . S
C1514 H1538 0.950 . S
C1515 C1532 1.574 . S
C1515 C1534 1.368 . S
C1515 H1539 0.949 . S
H1516 C1520 0.949 . S
C1517 C1518 1.349 . S
C1517 C1519 1.327 . S
C1517 H1540 0.950 . S
C1518 C1517 1.349 . S
C1518 C1530 1.349 . S
C1519 C1517 1.327 . S
C1519 C1535 1.429 . S
C1519 H1541 0.950 . S
C1520 H1516 0.949 . S
C1520 C1528 1.574 . S
C1520 C1536 1.368 . S
H1521 C1529 0.950 1_655 S
H1522 C1527 0.950 . S
H1523 C1528 0.949 . S
H1524 C1530 0.950 . S
H1525 C1531 0.950 . S
H1526 C1532 0.949 . S
C1527 H1522 0.950 . S
C1527 C1529 1.327 . S
C1527 C1533 1.429 . S
C1528 C1520 1.574 . S
C1528 H1523 0.949 . S
C1528 C1534 1.368 . S
C1529 C1513 1.349 1_455 S
C1529 H1521 0.950 1_455 S
C1529 C1527 1.327 . S
C1530 C1518 1.349 . S
C1530 H1524 0.950 . S
C1530 C1531 1.327 . S
C1531 H1525 0.950 . S
C1531 C1530 1.327 . S
C1531 C1535 1.429 . S
C1532 C1515 1.574 . S
C1532 H1526 0.949 . S
C1532 C1536 1.368 . S
C1533 C1514 1.429 . S
C1533 C1527 1.429 . S
C1533 C1534 1.523 . S
C1534 C1515 1.368 . S
C1534 C1528 1.368 . S
C1534 C1533 1.523 . S
C1535 C1519 1.429 . S
C1535 C1531 1.429 . S
C1535 C1536 1.523 . S
C1536 C1520 1.368 . S
C1536 C1532 1.368 . S
C1536 C1535 1.523 . S
H1537 C1512 0.950 1_655 S
H1538 C1514 0.950 . S
H1539 C1515 0.949 . S
H1540 C1517 0.950 . S
H1541 C1519 0.950 . S
C1542 C1543 1.349 . S
C1542 C1544 1.327 . S
C1542 H1567 0.950 . S
C1543 C1542 1.349 . S
C1543 C1559 1.349 . S
C1544 C1542 1.327 . S
C1544 C1563 1.429 1_545 S
C1544 H1568 0.950 1_545 S
C1545 C1562 1.574 . S
C1545 C1564 1.368 . S
C1545 H1569 0.949 . S
H1546 C1550 0.949 . S
C1547 C1548 1.349 . S
C1547 C1549 1.327 . S
C1547 H1570 0.950 . S
C1548 C1547 1.349 . S
C1548 C1560 1.349 . S
C1549 C1547 1.327 . S
C1549 C1565 1.429 . S
C1549 H1571 0.950 . S
C1550 H1546 0.949 . S
C1550 C1558 1.574 . S
C1550 C1566 1.368 . S
H1551 C1559 0.950 . S
H1552 C1557 0.950 . S
H1553 C1558 0.949 . S
H1554 C1560 0.950 . S
H1555 C1561 0.950 . S
H1556 C1562 0.949 . S
C1557 H1552 0.950 . S
C1557 C1559 1.327 . S
C1557 C1563 1.429 1_545 S
C1558 C1550 1.574 . S
C1558 H1553 0.949 . S
C1558 C1564 1.368 . S
C1559 C1543 1.349 . S
C1559 H1551 0.950 . S
C1559 C1557 1.327 . S
C1560 C1548 1.349 . S
C1560 H1554 0.950 . S
C1560 C1561 1.327 . S
C1561 H1555 0.950 . S
C1561 C1560 1.327 . S
C1561 C1565 1.429 . S
C1562 C1545 1.574 . S
C1562 H1556 0.949 . S
C1562 C1566 1.368 . S
C1563 C1544 1.429 1_565 S
C1563 C1557 1.429 1_565 S
C1563 C1564 1.523 . S
C1564 C1545 1.368 . S
C1564 C1558 1.368 . S
C1564 C1563 1.523 . S
C1565 C1549 1.429 . S
C1565 C1561 1.429 . S
C1565 C1566 1.523 . S
C1566 C1550 1.368 . S
C1566 C1562 1.368 . S
C1566 C1565 1.523 . S
H1567 C1542 0.950 . S
H1568 C1544 0.950 1_565 S
H1569 C1545 0.949 . S
H1570 C1547 0.950 . S
H1571 C1549 0.950 . S
C1572 C1573 1.349 1_565 S
C1572 C1574 1.327 . S
C1572 H1597 0.950 . S
C1573 C1572 1.349 1_545 S
C1573 C1589 1.349 . S
C1574 C1572 1.327 . S
C1574 C1593 1.429 . S
C1574 H1598 0.950 . S
C1575 C1592 1.574 . S
C1575 C1594 1.368 . S
C1575 H1599 0.949 . S
H1576 C1580 0.949 . S
C1577 C1578 1.349 . S
C1577 C1579 1.327 . S
C1577 H1600 0.950 . S
C1578 C1577 1.349 . S
C1578 C1590 1.349 . S
C1579 C1577 1.327 . S
C1579 C1595 1.435 . S
C1579 H1601 0.950 . S
C1580 H1576 0.949 . S
C1580 C1588 1.574 . S
C1580 C1596 1.368 . S
H1581 C1589 0.950 . S
H1582 C1587 0.950 . S
H1583 C1588 0.949 . S
H1584 C1590 0.950 . S
H1585 C1591 0.950 1_455 S
H1586 C1592 0.949 . S
C1587 H1582 0.950 . S
C1587 C1589 1.327 1_565 S
C1587 C1593 1.429 . S
C1588 C1580 1.574 . S
C1588 H1583 0.949 . S
C1588 C1594 1.368 . S
C1589 C1573 1.349 . S
C1589 H1581 0.950 . S
C1589 C1587 1.327 1_545 S
C1590 C1578 1.349 . S
C1590 H1584 0.950 . S
C1590 C1591 1.327 . S
C1591 H1585 0.950 1_655 S
C1591 C1590 1.327 . S
C1591 C1595 1.428 . S
C1592 C1575 1.574 . S
C1592 H1586 0.949 . S
C1592 C1596 1.368 . S
C1593 C1574 1.429 . S
C1593 C1587 1.429 . S
C1593 C1594 1.523 . S
C1594 C1575 1.368 . S
C1594 C1588 1.368 . S
C1594 C1593 1.523 . S
C1595 C1579 1.435 . S
C1595 C1591 1.428 . S
C1595 C1596 1.518 1_655 S
C1596 C1580 1.368 . S
C1596 C1592 1.368 . S
C1596 C1595 1.518 1_455 S
H1597 C1572 0.950 . S
H1598 C1574 0.950 . S
H1599 C1575 0.949 . S
H1600 C1577 0.950 . S
H1601 C1579 0.950 . S
C1602 C1603 1.349 . S
C1602 C1604 1.327 . S
C1602 H1627 0.950 . S
C1603 C1602 1.349 . S
C1603 C1619 1.349 . S
C1604 C1602 1.327 . S
C1604 C1623 1.429 . S
C1604 H1628 0.950 . S
C1605 C1622 1.574 . S
C1605 C1624 1.368 . S
C1605 H1629 0.949 . S
H1606 C1610 0.949 . S
C1607 C1608 1.349 . S
C1607 C1609 1.327 . S
C1607 H1630 0.950 . S
C1608 C1607 1.349 . S
C1608 C1620 1.349 . S
C1609 C1607 1.327 . S
C1609 C1625 1.429 . S
C1609 H1631 0.950 . S
C1610 H1606 0.949 . S
C1610 C1618 1.574 . S
C1610 C1626 1.368 . S
H1611 C1619 0.950 . S
H1612 C1617 0.950 . S
H1613 C1618 0.949 . S
H1614 C1620 0.950 . S
H1615 C1621 0.950 . S
H1616 C1622 0.949 . S
C1617 H1612 0.950 . S
C1617 C1619 1.327 . S
C1617 C1623 1.429 . S
C1618 C1610 1.574 . S
C1618 H1613 0.949 . S
C1618 C1624 1.368 . S
C1619 C1603 1.349 . S
C1619 H1611 0.950 . S
C1619 C1617 1.327 . S
C1620 C1608 1.349 . S
C1620 H1614 0.950 . S
C1620 C1621 1.327 . S
C1621 H1615 0.950 . S
C1621 C1620 1.327 . S
C1621 C1625 1.429 . S
C1622 C1605 1.574 . S
C1622 H1616 0.949 . S
C1622 C1626 1.368 . S
C1623 C1604 1.429 . S
C1623 C1617 1.429 . S
C1623 C1624 1.523 . S
C1624 C1605 1.368 . S
C1624 C1618 1.368 . S
C1624 C1623 1.523 . S
C1625 C1609 1.429 . S
C1625 C1621 1.429 . S
C1625 C1626 1.523 . S
C1626 C1610 1.368 . S
C1626 C1622 1.368 . S
C1626 C1625 1.523 . S
H1627 C1602 0.950 . S
H1628 C1604 0.950 . S
H1629 C1605 0.949 . S
H1630 C1607 0.950 . S
H1631 C1609 0.950 . S
C1632 C1633 1.349 . S
C1632 C1634 1.327 . S
C1632 H1657 0.950 . S
C1633 C1632 1.349 . S
C1633 C1649 1.349 . S
C1634 C1632 1.327 . S
C1634 C1653 1.429 . S
C1634 H1658 0.950 . S
C1635 C1652 1.574 . S
C1635 C1654 1.368 . S
C1635 H1659 0.949 . S
H1636 C1640 0.949 . S
C1637 C1638 1.349 . S
C1637 C1639 1.327 . S
C1637 H1660 0.950 . S
C1638 C1637 1.349 . S
C1638 C1650 1.349 . S
C1639 C1637 1.327 . S
C1639 C1655 1.429 . S
C1639 H1661 0.950 . S
C1640 H1636 0.949 . S
C1640 C1648 1.574 . S
C1640 C1656 1.368 . S
H1641 C1649 0.950 . S
H1642 C1647 0.950 . S
H1643 C1648 0.949 . S
H1644 C1650 0.950 . S
H1645 C1651 0.950 . S
H1646 C1652 0.949 . S
C1647 H1642 0.950 . S
C1647 C1649 1.327 . S
C1647 C1653 1.429 . S
C1648 C1640 1.574 . S
C1648 H1643 0.949 . S
C1648 C1654 1.368 . S
C1649 C1633 1.349 . S
C1649 H1641 0.950 . S
C1649 C1647 1.327 . S
C1650 C1638 1.349 . S
C1650 H1644 0.950 . S
C1650 C1651 1.327 . S
C1651 H1645 0.950 . S
C1651 C1650 1.327 . S
C1651 C1655 1.429 . S
C1652 C1635 1.574 . S
C1652 H1646 0.949 . S
C1652 C1656 1.368 . S
C1653 C1634 1.429 . S
C1653 C1647 1.429 . S
C1653 C1654 1.523 . S
C1654 C1635 1.368 . S
C1654 C1648 1.368 . S
C1654 C1653 1.523 . S
C1655 C1639 1.429 . S
C1655 C1651 1.429 . S
C1655 C1656 1.523 . S
C1656 C1640 1.368 . S
C1656 C1652 1.368 . S
C1656 C1655 1.523 . S
H1657 C1632 0.950 . S
H1658 C1634 0.950 . S
H1659 C1635 0.949 . S
H1660 C1637 0.950 . S
H1661 C1639 0.950 . S
C1662 C1663 1.349 . S
C1662 C1664 1.327 . S
C1662 H1687 0.950 . S
C1663 C1662 1.349 . S
C1663 C1679 1.349 . S
C1664 C1662 1.327 . S
C1664 C1683 1.429 . S
C1664 H1688 0.950 . S
C1665 C1682 1.574 . S
C1665 C1684 1.368 . S
C1665 H1689 0.949 . S
H1666 C1670 0.949 . S
C1667 C1668 1.349 . S
C1667 C1669 1.327 . S
C1667 H1690 0.950 . S
C1668 C1667 1.349 . S
C1668 C1680 1.349 . S
C1669 C1667 1.327 . S
C1669 C1685 1.429 . S
C1669 H1691 0.950 . S
C1670 H1666 0.949 . S
C1670 C1678 1.574 . S
C1670 C1686 1.368 . S
H1671 C1679 0.950 . S
H1672 C1677 0.950 . S
H1673 C1678 0.949 . S
H1674 C1680 0.950 . S
H1675 C1681 0.950 . S
H1676 C1682 0.949 . S
C1677 H1672 0.950 . S
C1677 C1679 1.327 . S
C1677 C1683 1.429 . S
C1678 C1670 1.574 . S
C1678 H1673 0.949 . S
C1678 C1684 1.368 . S
C1679 C1663 1.349 . S
C1679 H1671 0.950 . S
C1679 C1677 1.327 . S
C1680 C1668 1.349 . S
C1680 H1674 0.950 . S
C1680 C1681 1.327 . S
C1681 H1675 0.950 . S
C1681 C1680 1.327 . S
C1681 C1685 1.429 . S
C1682 C1665 1.574 . S
C1682 H1676 0.949 . S
C1682 C1686 1.368 . S
C1683 C1664 1.429 . S
C1683 C1677 1.429 . S
C1683 C1684 1.523 . S
C1684 C1665 1.368 . S
C1684 C1678 1.368 . S
C1684 C1683 1.523 . S
C1685 C1669 1.429 . S
C1685 C1681 1.429 . S
C1685 C1686 1.523 . S
C1686 C1670 1.368 . S
C1686 C1682 1.368 . S
C1686 C1685 1.523 . S
H1687 C1662 0.950 . S
H1688 C1664 0.950 . S
H1689 C1665 0.949 . S
H1690 C1667 0.950 . S
H1691 C1669 0.950 . S
C1692 C1693 1.349 . S
C1692 C1694 1.327 . S
C1692 H1717 0.950 . S
C1693 C1692 1.349 . S
C1693 C1709 1.349 . S
C1694 C1692 1.327 . S
C1694 C1713 1.429 . S
C1694 H1718 0.950 . S
C1695 C1712 1.574 . S
C1695 C1714 1.368 . S
C1695 H1719 0.949 . S
H1696 C1700 0.949 . S
C1697 C1698 1.349 . S
C1697 C1699 1.327 . S
C1697 H1720 0.950 . S
C1698 C1697 1.349 . S
C1698 C1710 1.349 . S
C1699 C1697 1.327 . S
C1699 C1715 1.429 . S
C1699 H1721 0.950 . S
C1700 H1696 0.949 . S
C1700 C1708 1.574 . S
C1700 C1716 1.368 . S
H1701 C1709 0.950 . S
H1702 C1707 0.950 . S
H1703 C1708 0.949 . S
H1704 C1710 0.950 . S
H1705 C1711 0.950 . S
H1706 C1712 0.949 . S
C1707 H1702 0.950 . S
C1707 C1709 1.327 . S
C1707 C1713 1.429 . S
C1708 C1700 1.574 . S
C1708 H1703 0.949 . S
C1708 C1714 1.368 . S
C1709 C1693 1.349 . S
C1709 H1701 0.950 . S
C1709 C1707 1.327 . S
C1710 C1698 1.349 . S
C1710 H1704 0.950 . S
C1710 C1711 1.327 . S
C1711 H1705 0.950 . S
C1711 C1710 1.327 . S
C1711 C1715 1.429 . S
C1712 C1695 1.574 . S
C1712 H1706 0.949 . S
C1712 C1716 1.368 . S
C1713 C1694 1.429 . S
C1713 C1707 1.429 . S
C1713 C1714 1.523 . S
C1714 C1695 1.368 . S
C1714 C1708 1.368 . S
C1714 C1713 1.523 . S
C1715 C1699 1.429 . S
C1715 C1711 1.429 . S
C1715 C1716 1.523 . S
C1716 C1700 1.368 . S
C1716 C1712 1.368 . S
C1716 C1715 1.523 . S
H1717 C1692 0.950 . S
H1718 C1694 0.950 . S
H1719 C1695 0.949 . S
H1720 C1697 0.950 . S
H1721 C1699 0.950 . S
C1722 C1723 1.349 . S
C1722 C1724 1.327 . S
C1722 H1747 0.950 . S
C1723 C1722 1.349 . S
C1723 C1739 1.349 . S
C1724 C1722 1.327 . S
C1724 C1743 1.429 . S
C1724 H1748 0.950 . S
C1725 C1742 1.574 . S
C1725 C1744 1.368 . S
C1725 H1749 0.949 . S
H1726 C1730 0.949 . S
C1727 C1728 1.349 . S
C1727 C1729 1.327 . S
C1727 H1750 0.950 . S
C1728 C1727 1.349 . S
C1728 C1740 1.349 . S
C1729 C1727 1.327 . S
C1729 C1745 1.429 . S
C1729 H1751 0.950 . S
C1730 H1726 0.949 . S
C1730 C1738 1.574 . S
C1730 C1746 1.368 . S
H1731 C1739 0.950 . S
H1732 C1737 0.950 . S
H1733 C1738 0.949 . S
H1734 C1740 0.950 . S
H1735 C1741 0.950 . S
H1736 C1742 0.949 . S
C1737 H1732 0.950 . S
C1737 C1739 1.327 . S
C1737 C1743 1.429 . S
C1738 C1730 1.574 . S
C1738 H1733 0.949 . S
C1738 C1744 1.368 . S
C1739 C1723 1.349 . S
C1739 H1731 0.950 . S
C1739 C1737 1.327 . S
C1740 C1728 1.349 . S
C1740 H1734 0.950 . S
C1740 C1741 1.327 . S
C1741 H1735 0.950 . S
C1741 C1740 1.327 . S
C1741 C1745 1.429 . S
C1742 C1725 1.574 . S
C1742 H1736 0.949 . S
C1742 C1746 1.368 . S
C1743 C1724 1.429 . S
C1743 C1737 1.429 . S
C1743 C1744 1.523 . S
C1744 C1725 1.368 . S
C1744 C1738 1.368 . S
C1744 C1743 1.523 . S
C1745 C1729 1.429 . S
C1745 C1741 1.429 . S
C1745 C1746 1.523 . S
C1746 C1730 1.368 . S
C1746 C1742 1.368 . S
C1746 C1745 1.523 . S
H1747 C1722 0.950 . S
H1748 C1724 0.950 . S
H1749 C1725 0.949 . S
H1750 C1727 0.950 . S
H1751 C1729 0.950 . S
C1752 C1753 1.349 . S
C1752 C1754 1.327 . S
C1752 H1777 0.950 . S
C1753 C1752 1.349 . S
C1753 C1769 1.349 . S
C1754 C1752 1.327 . S
C1754 C1773 1.429 . S
C1754 H1778 0.950 . S
C1755 C1772 1.574 . S
C1755 C1774 1.368 . S
C1755 H1779 0.949 . S
H1756 C1760 0.949 . S
C1757 C1758 1.349 . S
C1757 C1759 1.327 . S
C1757 H1780 0.950 . S
C1758 C1757 1.349 . S
C1758 C1770 1.349 . S
C1759 C1757 1.327 . S
C1759 C1775 1.429 . S
C1759 H1781 0.950 . S
C1760 H1756 0.949 . S
C1760 C1768 1.574 . S
C1760 C1776 1.368 . S
H1761 C1769 0.950 . S
H1762 C1767 0.950 . S
H1763 C1768 0.949 . S
H1764 C1770 0.950 . S
H1765 C1771 0.950 . S
H1766 C1772 0.949 . S
C1767 H1762 0.950 . S
C1767 C1769 1.327 . S
C1767 C1773 1.429 . S
C1768 C1760 1.574 . S
C1768 H1763 0.949 . S
C1768 C1774 1.368 . S
C1769 C1753 1.349 . S
C1769 H1761 0.950 . S
C1769 C1767 1.327 . S
C1770 C1758 1.349 . S
C1770 H1764 0.950 . S
C1770 C1771 1.327 . S
C1771 H1765 0.950 . S
C1771 C1770 1.327 . S
C1771 C1775 1.429 . S
C1772 C1755 1.574 . S
C1772 H1766 0.949 . S
C1772 C1776 1.368 . S
C1773 C1754 1.429 . S
C1773 C1767 1.429 . S
C1773 C1774 1.523 . S
C1774 C1755 1.368 . S
C1774 C1768 1.368 . S
C1774 C1773 1.523 . S
C1775 C1759 1.429 . S
C1775 C1771 1.429 . S
C1775 C1776 1.523 . S
C1776 C1760 1.368 . S
C1776 C1772 1.368 . S
C1776 C1775 1.523 . S
H1777 C1752 0.950 . S
H1778 C1754 0.950 . S
H1779 C1755 0.949 . S
H1780 C1757 0.950 . S
H1781 C1759 0.950 . S
C1782 C1783 1.349 . S
C1782 C1784 1.327 . S
C1782 H1807 0.950 . S
C1783 C1782 1.349 . S
C1783 C1799 1.349 . S
C1784 C1782 1.327 . S
C1784 C1803 1.429 . S
C1784 H1808 0.950 . S
C1785 C1802 1.574 . S
C1785 C1804 1.368 . S
C1785 H1809 0.949 . S
H1786 C1790 0.949 . S
C1787 C1788 1.349 . S
C1787 C1789 1.327 . S
C1787 H1810 0.950 . S
C1788 C1787 1.349 . S
C1788 C1800 1.349 . S
C1789 C1787 1.327 . S
C1789 C1805 1.429 . S
C1789 H1811 0.950 . S
C1790 H1786 0.949 . S
C1790 C1798 1.574 . S
C1790 C1806 1.368 . S
H1791 C1799 0.950 . S
H1792 C1797 0.950 . S
H1793 C1798 0.949 . S
H1794 C1800 0.950 . S
H1795 C1801 0.950 . S
H1796 C1802 0.949 . S
C1797 H1792 0.950 . S
C1797 C1799 1.327 . S
C1797 C1803 1.429 . S
C1798 C1790 1.574 . S
C1798 H1793 0.949 . S
C1798 C1804 1.368 . S
C1799 C1783 1.349 . S
C1799 H1791 0.950 . S
C1799 C1797 1.327 . S
C1800 C1788 1.349 . S
C1800 H1794 0.950 . S
C1800 C1801 1.327 . S
C1801 H1795 0.950 . S
C1801 C1800 1.327 . S
C1801 C1805 1.429 . S
C1802 C1785 1.574 . S
C1802 H1796 0.949 . S
C1802 C1806 1.368 . S
C1803 C1784 1.429 . S
C1803 C1797 1.429 . S
C1803 C1804 1.523 . S
C1804 C1785 1.368 . S
C1804 C1798 1.368 . S
C1804 C1803 1.523 . S
C1805 C1789 1.429 . S
C1805 C1801 1.429 . S
C1805 C1806 1.523 . S
C1806 C1790 1.368 . S
C1806 C1802 1.368 . S
C1806 C1805 1.523 . S
H1807 C1782 0.950 . S
H1808 C1784 0.950 . S
H1809 C1785 0.949 . S
H1810 C1787 0.950 . S
H1811 C1789 0.950 . S
C1812 C1813 1.349 . S
C1812 C1814 1.327 . S
C1812 H1837 0.950 . S
C1813 C1812 1.349 . S
C1813 C1829 1.349 . S
C1814 C1812 1.327 . S
C1814 C1833 1.429 . S
C1814 H1838 0.950 . S
C1815 C1832 1.574 . S
C1815 C1834 1.368 . S
C1815 H1839 0.949 . S
H1816 C1820 0.949 . S
C1817 C1818 1.349 . S
C1817 C1819 1.327 . S
C1817 H1840 0.950 . S
C1818 C1817 1.349 . S
C1818 C1830 1.349 . S
C1819 C1817 1.327 . S
C1819 C1835 1.429 . S
C1819 H1841 0.950 . S
C1820 H1816 0.949 . S
C1820 C1828 1.574 . S
C1820 C1836 1.368 . S
H1821 C1829 0.950 . S
H1822 C1827 0.950 . S
H1823 C1828 0.949 . S
H1824 C1830 0.950 . S
H1825 C1831 0.950 . S
H1826 C1832 0.949 . S
C1827 H1822 0.950 . S
C1827 C1829 1.327 . S
C1827 C1833 1.429 . S
C1828 C1820 1.574 . S
C1828 H1823 0.949 . S
C1828 C1834 1.368 . S
C1829 C1813 1.349 . S
C1829 H1821 0.950 . S
C1829 C1827 1.327 . S
C1830 C1818 1.349 . S
C1830 H1824 0.950 . S
C1830 C1831 1.327 . S
C1831 H1825 0.950 . S
C1831 C1830 1.327 . S
C1831 C1835 1.429 . S
C1832 C1815 1.574 . S
C1832 H1826 0.949 . S
C1832 C1836 1.368 . S
C1833 C1814 1.429 . S
C1833 C1827 1.429 . S
C1833 C1834 1.523 . S
C1834 C1815 1.368 . S
C1834 C1828 1.368 . S
C1834 C1833 1.523 . S
C1835 C1819 1.429 . S
C1835 C1831 1.429 . S
C1835 C1836 1.523 . S
C1836 C1820 1.368 . S
C1836 C1832 1.368 . S
C1836 C1835 1.523 . S
H1837 C1812 0.950 . S
H1838 C1814 0.950 . S
H1839 C1815 0.949 . S
H1840 C1817 0.950 . S
H1841 C1819 0.950 . S
C1842 C1843 1.349 . S
C1842 C1844 1.327 . S
C1842 H1867 0.950 . S
C1843 C1842 1.349 . S
C1843 C1859 1.349 . S
C1844 C1842 1.327 . S
C1844 C1863 1.429 . S
C1844 H1868 0.950 . S
C1845 C1862 1.574 . S
C1845 C1864 1.368 . S
C1845 H1869 0.949 . S
H1846 C1850 0.949 . S
C1847 C1848 1.349 . S
C1847 C1849 1.327 . S
C1847 H1870 0.950 . S
C1848 C1847 1.349 . S
C1848 C1860 1.349 . S
C1849 C1847 1.327 . S
C1849 C1865 1.429 . S
C1849 H1871 0.950 . S
C1850 H1846 0.949 . S
C1850 C1858 1.574 . S
C1850 C1866 1.368 . S
H1851 C1859 0.950 . S
H1852 C1857 0.950 . S
H1853 C1858 0.949 . S
H1854 C1860 0.950 . S
H1855 C1861 0.950 . S
H1856 C1862 0.949 . S
C1857 H1852 0.950 . S
C1857 C1859 1.327 . S
C1857 C1863 1.429 . S
C1858 C1850 1.574 . S
C1858 H1853 0.949 . S
C1858 C1864 1.368 . S
C1859 C1843 1.349 . S
C1859 H1851 0.950 . S
C1859 C1857 1.327 . S
C1860 C1848 1.349 . S
C1860 H1854 0.950 . S
C1860 C1861 1.327 . S
C1861 H1855 0.950 . S
C1861 C1860 1.327 . S
C1861 C1865 1.429 . S
C1862 C1845 1.574 . S
C1862 H1856 0.949 . S
C1862 C1866 1.368 . S
C1863 C1844 1.429 . S
C1863 C1857 1.429 . S
C1863 C1864 1.523 . S
C1864 C1845 1.368 . S
C1864 C1858 1.368 . S
C1864 C1863 1.523 . S
C1865 C1849 1.429 . S
C1865 C1861 1.429 . S
C1865 C1866 1.523 . S
C1866 C1850 1.368 . S
C1866 C1862 1.368 . S
C1866 C1865 1.523 . S
H1867 C1842 0.950 . S
H1868 C1844 0.950 . S
H1869 C1845 0.949 . S
H1870 C1847 0.950 . S
H1871 C1849 0.950 . S
C1872 C1873 1.349 . S
C1872 C1874 1.327 . S
C1872 H1897 0.950 . S
C1873 C1872 1.349 . S
C1873 C1889 1.349 . S
C1874 C1872 1.327 . S
C1874 C1893 1.429 . S
C1874 H1898 0.950 . S
C1875 C1892 1.574 . S
C1875 C1894 1.368 . S
C1875 H1899 0.949 . S
H1876 C1880 0.949 . S
C1877 C1878 1.349 . S
C1877 C1879 1.327 . S
C1877 H1900 0.950 . S
C1878 C1877 1.349 . S
C1878 C1890 1.349 . S
C1879 C1877 1.327 . S
C1879 C1895 1.429 . S
C1879 H1901 0.950 . S
C1880 H1876 0.949 . S
C1880 C1888 1.574 . S
C1880 C1896 1.368 . S
H1881 C1889 0.950 . S
H1882 C1887 0.950 . S
H1883 C1888 0.949 . S
H1884 C1890 0.950 . S
H1885 C1891 0.950 . S
H1886 C1892 0.949 . S
C1887 H1882 0.950 . S
C1887 C1889 1.327 . S
C1887 C1893 1.429 . S
C1888 C1880 1.574 . S
C1888 H1883 0.949 . S
C1888 C1894 1.368 . S
C1889 C1873 1.349 . S
C1889 H1881 0.950 . S
C1889 C1887 1.327 . S
C1890 C1878 1.349 . S
C1890 H1884 0.950 . S
C1890 C1891 1.327 . S
C1891 H1885 0.950 . S
C1891 C1890 1.327 . S
C1891 C1895 1.429 . S
C1892 C1875 1.574 . S
C1892 H1886 0.949 . S
C1892 C1896 1.368 . S
C1893 C1874 1.429 . S
C1893 C1887 1.429 . S
C1893 C1894 1.523 . S
C1894 C1875 1.368 . S
C1894 C1888 1.368 . S
C1894 C1893 1.523 . S
C1895 C1879 1.429 . S
C1895 C1891 1.429 . S
C1895 C1896 1.523 . S
C1896 C1880 1.368 . S
C1896 C1892 1.368 . S
C1896 C1895 1.523 . S
H1897 C1872 0.950 . S
H1898 C1874 0.950 . S
H1899 C1875 0.949 . S
H1900 C1877 0.950 . S
H1901 C1879 0.950 . S
C1902 C1903 1.349 . S
C1902 C1904 1.327 . S
C1902 H1927 0.950 . S
C1903 C1902 1.349 . S
C1903 C1919 1.349 . S
C1904 C1902 1.327 . S
C1904 C1923 1.429 . S
C1904 H1928 0.950 . S
C1905 C1922 1.574 . S
C1905 C1924 1.368 . S
C1905 H1929 0.949 . S
H1906 C1910 0.949 . S
C1907 C1908 1.349 . S
C1907 C1909 1.327 . S
C1907 H1930 0.950 . S
C1908 C1907 1.349 . S
C1908 C1920 1.349 . S
C1909 C1907 1.327 . S
C1909 C1925 1.429 . S
C1909 H1931 0.950 . S
C1910 H1906 0.949 . S
C1910 C1918 1.574 . S
C1910 C1926 1.368 . S
H1911 C1919 0.950 . S
H1912 C1917 0.950 . S
H1913 C1918 0.949 . S
H1914 C1920 0.950 . S
H1915 C1921 0.950 . S
H1916 C1922 0.949 . S
C1917 H1912 0.950 . S
C1917 C1919 1.327 . S
C1917 C1923 1.429 . S
C1918 C1910 1.574 . S
C1918 H1913 0.949 . S
C1918 C1924 1.368 . S
C1919 C1903 1.349 . S
C1919 H1911 0.950 . S
C1919 C1917 1.327 . S
C1920 C1908 1.349 . S
C1920 H1914 0.950 . S
C1920 C1921 1.327 . S
C1921 H1915 0.950 . S
C1921 C1920 1.327 . S
C1921 C1925 1.429 . S
C1922 C1905 1.574 . S
C1922 H1916 0.949 . S
C1922 C1926 1.368 . S
C1923 C1904 1.429 . S
C1923 C1917 1.429 . S
C1923 C1924 1.523 . S
C1924 C1905 1.368 . S
C1924 C1918 1.368 . S
C1924 C1923 1.523 . S
C1925 C1909 1.429 . S
C1925 C1921 1.429 . S
C1925 C1926 1.523 . S
C1926 C1910 1.368 . S
C1926 C1922 1.368 . S
C1926 C1925 1.523 . S
H1927 C1902 0.950 . S
H1928 C1904 0.950 . S
H1929 C1905 0.949 . S
H1930 C1907 0.950 . S
H1931 C1909 0.950 . S
C1932 C1933 1.349 . S
C1932 C1934 1.327 . S
C1932 H1957 0.950 . S
C1933 C1932 1.349 . S
C1933 C1949 1.349 . S
C1934 C1932 1.327 . S
C1934 C1953 1.429 . S
C1934 H1958 0.950 . S
C1935 C1952 1.574 . S
C1935 C1954 1.368 . S
C1935 H1959 0.949 . S
H1936 C1940 0.949 . S
C1937 C1938 1.349 . S
C1937 C1939 1.327 . S
C1937 H1960 0.950 . S
C1938 C1937 1.349 . S
C1938 C1950 1.349 . S
C1939 C1937 1.327 . S
C1939 C1955 1.429 . S
C1939 H1961 0.950 . S
C1940 H1936 0.949 . S
C1940 C1948 1.574 . S
C1940 C1956 1.368 . S
H1941 C1949 0.950 . S
H1942 C1947 0.950 . S
H1943 C1948 0.949 . S
H1944 C1950 0.950 . S
H1945 C1951 0.950 . S
H1946 C1952 0.949 . S
C1947 H1942 0.950 . S
C1947 C1949 1.327 . S
C1947 C1953 1.429 . S
C1948 C1940 1.574 . S
C1948 H1943 0.949 . S
C1948 C1954 1.368 . S
C1949 C1933 1.349 . S
C1949 H1941 0.950 . S
C1949 C1947 1.327 . S
C1950 C1938 1.349 . S
C1950 H1944 0.950 . S
C1950 C1951 1.327 . S
C1951 H1945 0.950 . S
C1951 C1950 1.327 . S
C1951 C1955 1.429 . S
C1952 C1935 1.574 . S
C1952 H1946 0.949 . S
C1952 C1956 1.368 . S
C1953 C1934 1.429 . S
C1953 C1947 1.429 . S
C1953 C1954 1.523 . S
C1954 C1935 1.368 . S
C1954 C1948 1.368 . S
C1954 C1953 1.523 . S
C1955 C1939 1.429 . S
C1955 C1951 1.429 . S
C1955 C1956 1.523 . S
C1956 C1940 1.368 . S
C1956 C1952 1.368 . S
C1956 C1955 1.523 . S
H1957 C1932 0.950 . S
H1958 C1934 0.950 . S
H1959 C1935 0.949 . S
H1960 C1937 0.950 . S
H1961 C1939 0.950 . S
C613 C315 0.439 . S
C618 C9 0.439 . S
C643 C349 0.439 . S
C648 C43 0.439 . S
C673 C383 0.439 . S
C678 C77 0.439 . S
C703 C111 0.439 . S
C708 C417 0.439 . S
C733 C451 0.439 . S
C738 C145 0.439 . S
C763 C485 0.439 . S
C768 C179 0.439 . S
C793 C213 0.439 . S
C798 C519 0.439 . S
C823 C553 0.439 . S
C828 C247 0.439 . S
C853 C587 0.439 . S
C858 C281 0.439 . S
C883 C598 1.881 . S
C888 C20 1.881 . S
C913 C530 1.881 . S
C918 C54 1.881 . S
C943 C88 1.882 . S
C948 C564 1.882 . S
C973 C258 1.881 . S
C978 C122 1.881 . S
C1003 C292 1.882 . S
C1008 C156 1.882 . S
C1033 C190 1.881 . S
C1038 C224 1.881 . S
C1063 C326 1.881 . S
C1068 C462 1.881 . S
C1093 C496 1.882 . S
C1098 C360 1.882 . S
C1123 C394 1.881 . S
C1128 C428 1.881 . S
C1153 C2 1.772 . S
C1158 C138 1.772 . S
C1183 C172 1.772 . S
C1188 C36 1.772 . S
C1213 C104 1.772 . S
C1218 C70 1.772 . S
C1243 C342 1.772 . S
C1248 C206 1.772 . S
C1273 C240 1.772 . S
C1278 C376 1.772 . S
C1303 C308 1.772 . S
C1308 C274 1.772 . S
C1333 C410 1.772 . S
C1338 C546 1.772 . S
C1363 C580 1.772 . S
C1368 C444 1.772 . S
C1393 C478 1.772 . S
C1398 C512 1.772 . S
C1423 C101 1.126 . S
C1428 C5 1.122 . S
C1453 C33 1.126 . S
C1458 C39 1.122 . S
C1483 C67 1.126 . S
C1488 C73 1.122 . S
C1513 C169 1.126 . S
C1518 C107 1.122 . S
C1543 C141 1.122 . S
C1548 C203 1.126 . S
C1573 C135 1.126 . S
C1578 C175 1.122 . S
C1603 C305 1.126 . S
C1608 C209 1.122 . S
C1633 C237 1.126 . S
C1638 C243 1.122 . S
C1663 C277 1.122 . S
C1668 C271 1.126 . S
C1693 C311 1.122 . S
C1698 C373 1.126 . S
C1723 C407 1.126 . S
C1728 C345 1.122 . S
C1753 C339 1.126 . S
C1758 C379 1.122 . S
C1783 C413 1.122 . S
C1788 C509 1.126 . S
C1813 C441 1.126 . S
C1818 C447 1.122 . S
C1843 C475 1.126 . S
C1848 C481 1.122 . S
C1873 C577 1.126 . S
C1878 C515 1.122 . S
C1903 C611 1.126 . S
C1908 C549 1.122 . S
C1933 C543 1.126 . S
C1938 C583 1.122 . S
