# Generated by pormake.
# Topology wfv, (7)-cn, num edge types: 1
# Building blocks:
#     Node 0, Type 0, BuildingBlock: NUHQUE_clean_sbu_2, # of connection points: 7
#     Node 1, Type 0, BuildingBlock: NUHQUE_clean_sbu_2, # of connection points: 7
#     Node 2, Type 0, BuildingBlock: NUHQUE_clean_sbu_2, # of connection points: 7
#     Node 3, Type 0, BuildingBlock: NUHQUE_clean_sbu_2, # of connection points: 7
#     Node 4, Type 0, BuildingBlock: NUHQUE_clean_sbu_2, # of connection points: 7
#     Node 5, Type 0, BuildingBlock: NUHQUE_clean_sbu_2, # of connection points: 7
#     Node 6, Type 0, BuildingBlock: NUHQUE_clean_sbu_2, # of connection points: 7
#     Node 7, Type 0, BuildingBlock: NUHQUE_clean_sbu_2, # of connection points: 7
#     Node 8, Type 0, BuildingBlock: NUHQUE_clean_sbu_2, # of connection points: 7
#     Node 9, Type 0, BuildingBlock: NUHQUE_clean_sbu_2, # of connection points: 7
#     Node 10, Type 0, BuildingBlock: NUHQUE_clean_sbu_2, # of connection points: 7
#     Node 11, Type 0, BuildingBlock: NUHQUE_clean_sbu_2, # of connection points: 7
#     Node 12, Type 0, BuildingBlock: NUHQUE_clean_sbu_2, # of connection points: 7
#     Node 13, Type 0, BuildingBlock: NUHQUE_clean_sbu_2, # of connection points: 7
#     Node 14, Type 0, BuildingBlock: NUHQUE_clean_sbu_2, # of connection points: 7
#     Node 15, Type 0, BuildingBlock: NUHQUE_clean_sbu_2, # of connection points: 7
#     Edge 16, Type (0, 0), BuildingBlock: OJICUG_clean_linker_0, # of connection points: 2
#     Edge 17, Type (0, 0), BuildingBlock: OJICUG_clean_linker_0, # of connection points: 2
#     Edge 18, Type (0, 0), BuildingBlock: OJICUG_clean_linker_0, # of connection points: 2
#     Edge 19, Type (0, 0), BuildingBlock: OJICUG_clean_linker_0, # of connection points: 2
#     Edge 20, Type (0, 0), BuildingBlock: OJICUG_clean_linker_0, # of connection points: 2
#     Edge 21, Type (0, 0), BuildingBlock: OJICUG_clean_linker_0, # of connection points: 2
#     Edge 22, Type (0, 0), BuildingBlock: OJICUG_clean_linker_0, # of connection points: 2
#     Edge 23, Type (0, 0), BuildingBlock: OJICUG_clean_linker_0, # of connection points: 2
#     Edge 24, Type (0, 0), BuildingBlock: OJICUG_clean_linker_0, # of connection points: 2
#     Edge 25, Type (0, 0), BuildingBlock: OJICUG_clean_linker_0, # of connection points: 2
#     Edge 26, Type (0, 0), BuildingBlock: OJICUG_clean_linker_0, # of connection points: 2
#     Edge 27, Type (0, 0), BuildingBlock: OJICUG_clean_linker_0, # of connection points: 2
#     Edge 28, Type (0, 0), BuildingBlock: OJICUG_clean_linker_0, # of connection points: 2
#     Edge 29, Type (0, 0), BuildingBlock: OJICUG_clean_linker_0, # of connection points: 2
#     Edge 30, Type (0, 0), BuildingBlock: OJICUG_clean_linker_0, # of connection points: 2
#     Edge 31, Type (0, 0), BuildingBlock: OJICUG_clean_linker_0, # of connection points: 2
#     Edge 32, Type (0, 0), BuildingBlock: OJICUG_clean_linker_0, # of connection points: 2
#     Edge 33, Type (0, 0), BuildingBlock: OJICUG_clean_linker_0, # of connection points: 2
#     Edge 34, Type (0, 0), BuildingBlock: OJICUG_clean_linker_0, # of connection points: 2
#     Edge 35, Type (0, 0), BuildingBlock: OJICUG_clean_linker_0, # of connection points: 2
#     Edge 36, Type (0, 0), BuildingBlock: OJICUG_clean_linker_0, # of connection points: 2
#     Edge 37, Type (0, 0), BuildingBlock: OJICUG_clean_linker_0, # of connection points: 2
#     Edge 38, Type (0, 0), BuildingBlock: OJICUG_clean_linker_0, # of connection points: 2
#     Edge 39, Type (0, 0), BuildingBlock: OJICUG_clean_linker_0, # of connection points: 2
#     Edge 40, Type (0, 0), BuildingBlock: OJICUG_clean_linker_0, # of connection points: 2
#     Edge 41, Type (0, 0), BuildingBlock: OJICUG_clean_linker_0, # of connection points: 2
#     Edge 42, Type (0, 0), BuildingBlock: OJICUG_clean_linker_0, # of connection points: 2
#     Edge 43, Type (0, 0), BuildingBlock: OJICUG_clean_linker_0, # of connection points: 2
#     Edge 44, Type (0, 0), BuildingBlock: OJICUG_clean_linker_0, # of connection points: 2
#     Edge 45, Type (0, 0), BuildingBlock: OJICUG_clean_linker_0, # of connection points: 2
#     Edge 46, Type (0, 0), BuildingBlock: OJICUG_clean_linker_0, # of connection points: 2
#     Edge 47, Type (0, 0), BuildingBlock: OJICUG_clean_linker_0, # of connection points: 2
#     Edge 48, Type (0, 0), BuildingBlock: OJICUG_clean_linker_0, # of connection points: 2
#     Edge 49, Type (0, 0), BuildingBlock: OJICUG_clean_linker_0, # of connection points: 2
#     Edge 50, Type (0, 0), BuildingBlock: OJICUG_clean_linker_0, # of connection points: 2
#     Edge 51, Type (0, 0), BuildingBlock: OJICUG_clean_linker_0, # of connection points: 2
#     Edge 52, Type (0, 0), BuildingBlock: OJICUG_clean_linker_0, # of connection points: 2
#     Edge 53, Type (0, 0), BuildingBlock: OJICUG_clean_linker_0, # of connection points: 2
#     Edge 54, Type (0, 0), BuildingBlock: OJICUG_clean_linker_0, # of connection points: 2
#     Edge 55, Type (0, 0), BuildingBlock: OJICUG_clean_linker_0, # of connection points: 2
#     Edge 56, Type (0, 0), BuildingBlock: OJICUG_clean_linker_0, # of connection points: 2
#     Edge 57, Type (0, 0), BuildingBlock: OJICUG_clean_linker_0, # of connection points: 2
#     Edge 58, Type (0, 0), BuildingBlock: OJICUG_clean_linker_0, # of connection points: 2
#     Edge 59, Type (0, 0), BuildingBlock: OJICUG_clean_linker_0, # of connection points: 2
#     Edge 60, Type (0, 0), BuildingBlock: OJICUG_clean_linker_0, # of connection points: 2
#     Edge 61, Type (0, 0), BuildingBlock: OJICUG_clean_linker_0, # of connection points: 2
#     Edge 62, Type (0, 0), BuildingBlock: OJICUG_clean_linker_0, # of connection points: 2
#     Edge 63, Type (0, 0), BuildingBlock: OJICUG_clean_linker_0, # of connection points: 2
#     Edge 64, Type (0, 0), BuildingBlock: OJICUG_clean_linker_0, # of connection points: 2
#     Edge 65, Type (0, 0), BuildingBlock: OJICUG_clean_linker_0, # of connection points: 2
#     Edge 66, Type (0, 0), BuildingBlock: OJICUG_clean_linker_0, # of connection points: 2
#     Edge 67, Type (0, 0), BuildingBlock: OJICUG_clean_linker_0, # of connection points: 2
#     Edge 68, Type (0, 0), BuildingBlock: OJICUG_clean_linker_0, # of connection points: 2
#     Edge 69, Type (0, 0), BuildingBlock: OJICUG_clean_linker_0, # of connection points: 2
#     Edge 70, Type (0, 0), BuildingBlock: OJICUG_clean_linker_0, # of connection points: 2
#     Edge 71, Type (0, 0), BuildingBlock: OJICUG_clean_linker_0, # of connection points: 2
# Relax obj value: 0.189
# Max RMSD: 0.259
# Mean RMSD: 0.259
data_MOF--net-wfv--node1-NUHQUE_clean_sbu_2--edge1-OJICUG_clean_linker_0
_symmetry_space_group_name_H-M    P1
_symmetry_Int_Tables_number       1
_symmetry_cell_setting            triclinic
loop_
_symmetry_equiv_pos_as_xyz
'x, y, z'
_cell_length_a     36.717699
_cell_length_b     36.702939
_cell_length_c     31.516766
_cell_angle_alpha  89.967619
_cell_angle_beta   90.087697
_cell_angle_gamma 89.940045
loop_
_atom_site_label
_atom_site_type_symbol
_atom_site_fract_x
_atom_site_fract_y
_atom_site_fract_z
_atom_type_partial_charge
O0 O 0.64851 0.14685 0.09649 0.0
Tb1 Tb 0.70391 0.12746 0.08986 0.0
Eu2 Eu 0.72119 0.00664 0.10823 0.0
C3 C 0.62542 0.14024 0.06559 0.0
O4 O 0.63261 0.11327 0.03951 0.0
C5 C 0.74308 0.0642 0.04383 0.0
O6 O 0.77005 0.97518 0.13081 0.0
C7 C 0.66866 0.96356 0.08552 0.0
C8 C 0.79975 0.99193 0.14329 0.0
O9 O 0.79938 0.0276 0.14679 0.0
C10 C 0.72234 0.07862 0.16599 0.0
C11 C 0.62959 0.95515 0.09233 0.0
C12 C 0.60131 0.97464 0.0719 0.0
C13 C 0.56472 0.96334 0.07617 0.0
C14 C 0.55687 0.93329 0.10209 0.0
C15 C 0.58469 0.91317 0.12151 0.0
C16 C 0.62085 0.92418 0.11653 0.0
O17 O 0.71167 0.07566 0.0587 0.0
O18 O 0.75274 0.03103 0.05423 0.0
O19 O 0.71098 0.17024 0.04284 0.0
O20 O 0.7482 0.16682 0.09431 0.0
C21 C 0.73874 0.18562 0.0611 0.0
O22 O 0.70123 0.05476 0.14656 0.0
O23 O 0.72152 0.11282 0.15326 0.0
O24 O 0.69064 0.957 0.11766 0.0
O25 O 0.67762 0.9928 0.06368 0.0
H26 H 0.6078 0.99748 0.05149 0.0
H27 H 0.52891 0.9243 0.10549 0.0
H28 H 0.64234 0.90785 0.1306 0.0
O29 O 0.37903 0.66562 0.04877 0.0
Tb30 Tb 0.38605 0.71863 0.07875 0.0
Eu31 Eu 0.4826 0.72363 0.08816 0.0
C32 C 0.36647 0.66568 0.0095 0.0
O33 O 0.36747 0.69642 0.98817 0.0
C34 C 0.43173 0.77791 0.03542 0.0
O35 O 0.52801 0.75259 0.12152 0.0
C36 C 0.50858 0.6757 0.03634 0.0
C37 C 0.51905 0.77774 0.14924 0.0
O38 O 0.48478 0.78014 0.16081 0.0
C39 C 0.43179 0.71317 0.16603 0.0
C40 C 0.52767 0.64037 0.04131 0.0
C41 C 0.51316 0.60892 0.0223 0.0
C42 C 0.53071 0.57498 0.02676 0.0
C43 C 0.56265 0.57285 0.05097 0.0
C44 C 0.57785 0.604 0.06942 0.0
C45 C 0.56052 0.63776 0.06446 0.0
O46 O 0.4107 0.74985 0.02747 0.0
O47 O 0.45775 0.77551 0.06366 0.0
O48 O 0.32859 0.70667 0.08908 0.0
O49 O 0.34421 0.76102 0.07498 0.0
C50 C 0.31693 0.73964 0.08329 0.0
O51 O 0.46018 0.69878 0.14719 0.0
O52 O 0.40437 0.72706 0.14427 0.0
O53 O 0.52674 0.70478 0.04842 0.0
O54 O 0.47382 0.67664 0.04689 0.0
H55 H 0.48855 0.6111 0.00343 0.0
H56 H 0.57626 0.54684 0.05501 0.0
H57 H 0.57264 0.6617 0.07877 0.0
O58 O 0.836 0.40759 0.03684 0.0
Tb59 Tb 0.78039 0.41011 0.06001 0.0
Eu60 Eu 0.77215 0.50399 0.06742 0.0
C61 C 0.84034 0.39404 0.99842 0.0
O62 O 0.81229 0.39479 0.97251 0.0
C63 C 0.72226 0.45229 0.0098 0.0
O64 O 0.74063 0.55383 0.08651 0.0
C65 C 0.82843 0.52136 0.02179 0.0
C66 C 0.71544 0.55032 0.11581 0.0
O67 O 0.71473 0.52006 0.13808 0.0
C68 C 0.77448 0.45411 0.14903 0.0
C69 C 0.8651 0.5376 0.02841 0.0
C70 C 0.89576 0.52207 0.00844 0.0
C71 C 0.93058 0.53781 0.01318 0.0
C72 C 0.93438 0.56909 0.0382 0.0
C73 C 0.90416 0.58539 0.05743 0.0
C74 C 0.86956 0.56967 0.05262 0.0
O75 O 0.75115 0.43168 0.00525 0.0
O76 O 0.72225 0.47867 0.0377 0.0
O77 O 0.79716 0.35392 0.0714 0.0
O78 O 0.74374 0.36416 0.04851 0.0
C79 C 0.7669 0.339 0.05939 0.0
O80 O 0.78609 0.48511 0.13302 0.0
O81 O 0.76584 0.42583 0.12509 0.0
O82 O 0.80046 0.54311 0.02797 0.0
O83 O 0.82292 0.48802 0.03599 0.0
H84 H 0.89246 0.49793 0.98901 0.0
H85 H 0.96085 0.58199 0.04108 0.0
H86 H 0.84629 0.58262 0.06744 0.0
O87 O 0.10498 0.86411 0.09118 0.0
Tb88 Tb 0.09788 0.8052 0.09373 0.0
Eu89 Eu 0.00405 0.78885 0.09237 0.0
C90 C 0.10697 0.88074 0.05418 0.0
O91 O 0.09168 0.86526 0.02111 0.0
C92 C 0.06057 0.75881 0.02633 0.0
O93 O 0.95712 0.74929 0.09239 0.0
C94 C 0.98955 0.85145 0.05779 0.0
C95 C 0.95931 0.72073 0.11753 0.0
O96 O 0.98623 0.71924 0.14499 0.0
C97 C 0.05024 0.78355 0.1779 0.0
C98 C 0.97934 0.88957 0.06787 0.0
C99 C 0.99684 0.91831 0.04636 0.0
C100 C 0.98471 0.95445 0.05122 0.0
C101 C 0.95584 0.96166 0.07894 0.0
C102 C 0.93785 0.93355 0.10051 0.0
C103 C 0.94983 0.89745 0.095 0.0
O104 O 0.0763 0.79051 0.03168 0.0
O105 O 0.03493 0.74875 0.05253 0.0
O106 O 0.15607 0.81617 0.097 0.0
O107 O 0.13867 0.76207 0.08541 0.0
C108 C 0.16682 0.78311 0.09022 0.0
O109 O 0.01816 0.79113 0.16135 0.0
O110 O 0.08105 0.78504 0.15626 0.0
O111 O 0.96485 0.82617 0.06482 0.0
O112 O 0.02298 0.84088 0.06683 0.0
H113 H 0.01869 0.91232 0.02432 0.0
H114 H 0.94619 0.98945 0.08217 0.0
H115 H 0.93551 0.87552 0.11084 0.0
O116 O 0.66382 0.38823 0.41697 0.0
Tb117 Tb 0.72254 0.39149 0.40833 0.0
Eu118 Eu 0.73572 0.48877 0.41648 0.0
C119 C 0.64991 0.38602 0.45539 0.0
O120 O 0.66896 0.39838 0.48757 0.0
C121 C 0.7733 0.42818 0.47128 0.0
O122 O 0.77166 0.53814 0.40998 0.0
C123 C 0.67648 0.50213 0.45905 0.0
C124 C 0.79854 0.53712 0.38248 0.0
O125 O 0.79984 0.50981 0.35559 0.0
C126 C 0.73682 0.44541 0.32798 0.0
C127 C 0.6392 0.51708 0.4532 0.0
C128 C 0.60948 0.50044 0.474 0.0
C129 C 0.57432 0.51594 0.47179 0.0
C130 C 0.56916 0.54731 0.44715 0.0
C131 C 0.59833 0.56457 0.42701 0.0
C132 C 0.63339 0.54957 0.43013 0.0
O133 O 0.74075 0.41377 0.46854 0.0
O134 O 0.78026 0.45733 0.44901 0.0
O135 O 0.76158 0.34763 0.42231 0.0
O136 O 0.70997 0.33417 0.39694 0.0
C137 C 0.74045 0.32096 0.41095 0.0
O138 O 0.7267 0.47552 0.34768 0.0
O139 O 0.74123 0.41357 0.34728 0.0
O140 O 0.70357 0.52532 0.45534 0.0
O141 O 0.68372 0.46998 0.44252 0.0
H142 H 0.61405 0.47632 0.49316 0.0
H143 H 0.54222 0.55928 0.44464 0.0
H144 H 0.656 0.56343 0.41509 0.0
O145 O 0.12916 0.66298 0.45345 0.0
Tb146 Tb 0.11382 0.71702 0.43131 0.0
Eu147 Eu 0.01314 0.72268 0.43685 0.0
C148 C 0.15167 0.6639 0.48613 0.0
O149 O 0.15777 0.69556 0.50424 0.0
C150 C 0.07109 0.76381 0.49212 0.0
O151 O 0.9613 0.75432 0.42622 0.0
C152 C 1.00262 0.66122 0.47639 0.0
C153 C 0.9613 0.78007 0.39715 0.0
O154 O 0.9892 0.78206 0.37123 0.0
C155 C 0.05799 0.7258 0.34947 0.0
C156 C 0.98506 0.62548 0.46759 0.0
C157 C 1.00001 0.59296 0.48438 0.0
C158 C 0.9822 0.55918 0.47839 0.0
C159 C 0.95009 0.55837 0.45435 0.0
C160 C 0.93485 0.59026 0.43766 0.0
C161 C 0.95218 0.62379 0.44441 0.0
O162 O 0.08726 0.7322 0.49006 0.0
O163 O 0.04232 0.76917 0.46866 0.0
O164 O 0.17095 0.71366 0.41414 0.0
O165 O 0.15159 0.76268 0.44206 0.0
C166 C 0.18012 0.74588 0.42719 0.0
O167 O 0.02759 0.7156 0.3683 0.0
O168 O 0.08978 0.72936 0.36905 0.0
O169 O 0.98063 0.68944 0.47928 0.0
O170 O 0.03303 0.66875 0.45606 0.0
H171 H 0.02479 0.59413 0.50306 0.0
H172 H 0.93634 0.53263 0.44896 0.0
H173 H 0.93994 0.64843 0.43184 0.0
O174 O 0.8481 0.09831 0.42736 0.0
Tb175 Tb 0.78924 0.09698 0.42271 0.0
Eu176 Eu 0.77863 1.00227 0.41475 0.0
C177 C 0.86331 0.09716 0.4651 0.0
O178 O 0.84477 0.08285 0.49657 0.0
C179 C 0.73355 0.05458 0.47378 0.0
O180 O 0.75227 0.94909 0.39759 0.0
C181 C 0.83648 0.99279 0.46114 0.0
C182 C 0.72772 0.94971 0.36723 0.0
O183 O 0.72493 0.97937 0.34418 0.0
C184 C 0.78164 0.05313 0.33273 0.0
C185 C 0.87103 0.97211 0.45954 0.0
C186 C 0.90239 0.98633 0.47937 0.0
C187 C 0.9351 0.96616 0.48024 0.0
C188 C 0.93607 0.93209 0.46017 0.0
C189 C 0.90511 0.91758 0.44057 0.0
C190 C 0.87257 0.93753 0.44017 0.0
O191 O 0.76453 0.07185 0.47813 0.0
O192 O 0.73027 0.03038 0.44365 0.0
O193 O 0.74972 0.14127 0.41373 0.0
O194 O 0.80182 0.15372 0.43829 0.0
C195 C 0.77072 0.16737 0.42705 0.0
O196 O 0.78885 0.02046 0.34793 0.0
O197 O 0.77762 0.08248 0.35667 0.0
O198 O 0.80662 0.97339 0.46526 0.0
O199 O 0.83281 0.0201 0.43443 0.0
H200 H 0.90098 0.01259 0.49501 0.0
H201 H 0.96115 0.91644 0.45979 0.0
H202 H 0.84858 0.92607 0.42519 0.0
O203 O 0.41916 0.85593 0.40813 0.0
Tb204 Tb 0.40155 0.79997 0.41839 0.0
Eu205 Eu 0.49633 0.77026 0.41991 0.0
C206 C 0.40338 0.88605 0.42193 0.0
O207 O 0.41647 0.91731 0.40862 0.0
C208 C 0.43604 0.7531 0.48615 0.0
O209 O 0.54067 0.72843 0.4111 0.0
C210 C 0.52058 0.83073 0.45178 0.0
C211 C 0.53507 0.70072 0.38548 0.0
O212 O 0.50474 0.69983 0.36334 0.0
C213 C 0.44476 0.7663 0.33822 0.0
C214 C 0.53902 0.86479 0.43911 0.0
C215 C 0.52375 0.89837 0.45123 0.0
C216 C 0.54185 0.93129 0.4425 0.0
C217 C 0.57489 0.93032 0.42054 0.0
C218 C 0.59044 0.89708 0.40825 0.0
C219 C 0.5727 0.86431 0.41776 0.0
O220 O 0.42784 0.78717 0.47815 0.0
O221 O 0.46091 0.73721 0.46297 0.0
O222 O 0.35669 0.76554 0.43867 0.0
O223 O 0.34444 0.81789 0.41395 0.0
C224 C 0.33067 0.78814 0.42958 0.0
O225 O 0.47746 0.77502 0.35233 0.0
O226 O 0.41492 0.76842 0.36156 0.0
O227 O 0.53981 0.80052 0.45028 0.0
O228 O 0.48664 0.82648 0.43933 0.0
H229 H 0.49838 0.89874 0.4688 0.0
H230 H 0.5891 0.95556 0.41376 0.0
H231 H 0.58534 0.83871 0.40896 0.0
O232 O 0.35269 0.92009 0.95293 0.0
Tb233 Tb 0.29443 0.91422 0.94452 0.0
Eu234 Eu 0.28265 0.00566 0.93553 0.0
C235 C 0.36628 0.91374 0.99082 0.0
O236 O 0.34683 0.9234 0.02391 0.0
C237 C 0.23468 0.95384 0.99529 0.0
O238 O 0.25228 0.05556 0.91425 0.0
C239 C 0.33926 0.02199 0.98118 0.0
C240 C 0.23042 0.05331 0.88131 0.0
O241 O 0.23206 0.02414 0.85733 0.0
C242 C 0.27819 0.95397 0.85857 0.0
C243 C 0.37692 0.03492 0.97374 0.0
C244 C 0.40648 0.01756 0.99394 0.0
C245 C 0.44233 0.03054 0.98847 0.0
C246 C 0.44817 0.06065 0.96191 0.0
C247 C 0.41899 0.07832 0.9418 0.0
C248 C 0.38348 0.06539 0.94776 0.0
O249 O 0.26391 0.93347 0.99932 0.0
O250 O 0.23375 0.9804 0.96744 0.0
O251 O 0.30375 0.86164 0.9143 0.0
O252 O 0.27777 0.86301 0.97429 0.0
C253 C 0.2901 0.84199 0.94448 0.0
O254 O 0.29567 0.98325 0.87113 0.0
O255 O 0.26595 0.9304 0.88664 0.0
O256 O 0.31288 0.04517 0.97274 0.0
O257 O 0.33166 0.98858 0.96918 0.0
H258 H 0.4014 0.99456 0.0147 0.0
H259 H 0.47557 0.07089 0.95739 0.0
H260 H 0.36104 0.07926 0.93223 0.0
O261 O 0.59113 0.36401 0.91527 0.0
Tb262 Tb 0.59378 0.30484 0.91114 0.0
Eu263 Eu 0.50238 0.28633 0.9028 0.0
C264 C 0.59358 0.37958 0.95284 0.0
O265 O 0.58066 0.3619 0.98577 0.0
C266 C 0.55448 0.2547 0.97406 0.0
O267 O 0.45962 0.24323 0.8955 0.0
C268 C 0.47822 0.34562 0.93706 0.0
C269 C 0.4689 0.21356 0.87486 0.0
O270 O 0.50024 0.21322 0.8548 0.0
C271 C 0.55468 0.27958 0.82473 0.0
C272 C 0.46789 0.38343 0.92588 0.0
C273 C 0.4856 0.41259 0.94624 0.0
C274 C 0.47364 0.44853 0.93992 0.0
C275 C 0.44486 0.45526 0.9119 0.0
C276 C 0.42654 0.42671 0.8916 0.0
C277 C 0.43814 0.39072 0.89867 0.0
O278 O 0.57166 0.28594 0.9714 0.0
O279 O 0.53033 0.24599 0.9453 0.0
O280 O 0.64973 0.32237 0.90065 0.0
O281 O 0.64024 0.27374 0.93518 0.0
C282 C 0.66501 0.2959 0.92116 0.0
O283 O 0.52294 0.29254 0.8366 0.0
O284 O 0.58244 0.27668 0.85117 0.0
O285 O 0.45688 0.3194 0.9231 0.0
O286 O 0.51317 0.33723 0.93618 0.0
H287 H 0.50745 0.40718 0.96856 0.0
H288 H 0.43536 0.48303 0.90768 0.0
H289 H 0.42334 0.36856 0.88391 0.0
O290 O 0.16451 0.66078 0.90333 0.0
Tb291 Tb 0.21878 0.63764 0.90207 0.0
Eu292 Eu 0.21794 0.51426 0.89611 0.0
C293 C 0.14237 0.65184 0.93432 0.0
O294 O 0.15031 0.62328 0.95773 0.0
C295 C 0.25204 0.57068 0.9513 0.0
O296 O 0.26119 0.47738 0.86968 0.0
C297 C 0.16069 0.47884 0.92153 0.0
C298 C 0.29144 0.4912 0.85451 0.0
O299 O 0.29436 0.52675 0.8514 0.0
C300 C 0.22693 0.58082 0.83062 0.0
C301 C 0.12184 0.47186 0.91073 0.0
C302 C 0.09321 0.49153 0.93014 0.0
C303 C 0.05652 0.48167 0.92293 0.0
C304 C 0.04905 0.45184 0.89656 0.0
C305 C 0.07702 0.43161 0.87766 0.0
C306 C 0.11324 0.44206 0.88444 0.0
O307 O 0.22378 0.58502 0.93185 0.0
O308 O 0.25444 0.53529 0.94831 0.0
O309 O 0.24272 0.67108 0.95197 0.0
O310 O 0.25863 0.6795 0.88766 0.0
C311 C 0.26242 0.69089 0.9265 0.0
O312 O 0.20326 0.56187 0.85317 0.0
O313 O 0.23292 0.61527 0.84045 0.0
O314 O 0.18514 0.46543 0.89539 0.0
O315 O 0.16989 0.51081 0.93709 0.0
H316 H 0.09943 0.51388 0.95138 0.0
H317 H 0.0212 0.44245 0.89349 0.0
H318 H 0.13481 0.42577 0.87063 0.0
O319 O 0.84939 0.177 0.93946 0.0
Tb320 Tb 0.87279 0.23037 0.92827 0.0
Eu321 Eu 0.99292 0.23353 0.91812 0.0
C322 C 0.85076 0.16362 0.97815 0.0
O323 O 0.87167 0.17959 0.0064 0.0
C324 C 0.93712 0.27302 0.96875 0.0
O325 O 0.02828 0.26727 0.87567 0.0
C326 C 0.02854 0.18223 0.95717 0.0
C327 C 0.01363 0.29488 0.85539 0.0
O328 O 0.97799 0.29807 0.85533 0.0
C329 C 0.92686 0.23001 0.85064 0.0
C330 C 0.04381 0.14548 0.94887 0.0
C331 C 0.02778 0.11434 0.96729 0.0
C332 C 0.04345 0.07955 0.96178 0.0
C333 C 0.0748 0.07627 0.93679 0.0
C334 C 0.09151 0.10704 0.91918 0.0
C335 C 0.07614 0.14151 0.92536 0.0
O336 O 0.92426 0.24106 0.95781 0.0
O337 O 0.97163 0.27749 0.96115 0.0
O338 O 0.83323 0.26899 0.90375 0.0
O339 O 0.83492 0.25878 0.96991 0.0
C340 C 0.81798 0.27634 0.93986 0.0
O341 O 0.94982 0.21034 0.87362 0.0
O342 O 0.89321 0.23585 0.86395 0.0
O343 O 0.04426 0.20986 0.93804 0.0
O344 O 0.9929 0.18537 0.95893 0.0
H345 H 0.00388 0.11742 0.98711 0.0
H346 H 0.08719 0.04973 0.93224 0.0
H347 H 0.08988 0.16513 0.91238 0.0
O348 O 0.33457 0.62904 0.57818 0.0
Tb349 Tb 0.29101 0.599 0.60877 0.0
Eu350 Eu 0.277 0.48261 0.58255 0.0
C351 C 0.33061 0.66446 0.57349 0.0
O352 O 0.30023 0.67981 0.58614 0.0
C353 C 0.24772 0.54926 0.54282 0.0
O354 O 0.24457 0.43076 0.58755 0.0
C355 C 0.3436 0.47445 0.55575 0.0
C356 C 0.22556 0.42327 0.62178 0.0
O357 O 0.23159 0.44205 0.65651 0.0
C358 C 0.28461 0.5331 0.66905 0.0
C359 C 0.37963 0.45964 0.56749 0.0
C360 C 0.41126 0.47557 0.55029 0.0
C361 C 0.44579 0.4599 0.5575 0.0
C362 C 0.44823 0.42898 0.58334 0.0
C363 C 0.41695 0.41268 0.60039 0.0
C364 C 0.38265 0.428 0.59238 0.0
O365 O 0.27549 0.55518 0.56786 0.0
O366 O 0.24126 0.51477 0.53753 0.0
O367 O 0.27496 0.63614 0.65938 0.0
O368 O 0.23935 0.62813 0.6072 0.0
C369 C 0.24459 0.64691 0.6418 0.0
O370 O 0.2709 0.50365 0.65052 0.0
O371 O 0.30837 0.5543 0.6496 0.0
O372 O 0.31746 0.45073 0.54881 0.0
O373 O 0.33242 0.50373 0.57584 0.0
H374 H 0.40878 0.49918 0.52979 0.0
H375 H 0.47462 0.41649 0.58879 0.0
H376 H 0.35841 0.41476 0.6045 0.0
O377 O 0.90345 0.32949 0.56186 0.0
Tb378 Tb 0.90707 0.27319 0.5829 0.0
Eu379 Eu 1.00146 0.2577 0.5895 0.0
C380 C 0.89083 0.33484 0.52323 0.0
O381 O 0.89114 0.30713 0.49693 0.0
C382 C 0.94673 0.21522 0.53148 0.0
O383 O 0.05519 0.22908 0.59972 0.0
C384 C 0.00697 0.31878 0.54788 0.0
C385 C 0.05755 0.20497 0.63056 0.0
O386 O 0.0316 0.20431 0.65917 0.0
C387 C 0.95226 0.26131 0.67254 0.0
C388 C 0.02751 0.35316 0.55362 0.0
C389 C 0.01334 0.3867 0.53886 0.0
C390 C 0.03354 0.41932 0.54348 0.0
C391 C 0.0675 0.41768 0.56392 0.0
C392 C 0.08191 0.38452 0.5781 0.0
C393 C 0.06201 0.35239 0.57302 0.0
O394 O 0.93097 0.24704 0.52748 0.0
O395 O 0.9712 0.21067 0.56102 0.0
O396 O 0.85008 0.28639 0.59463 0.0
O397 O 0.86279 0.23509 0.56772 0.0
C398 C 0.83649 0.25637 0.57992 0.0
O399 O 0.98543 0.26507 0.65732 0.0
O400 O 0.92245 0.26059 0.64873 0.0
O401 O 0.0266 0.28968 0.53947 0.0
O402 O 0.98081 0.31229 0.57529 0.0
H403 H 0.98713 0.38715 0.52303 0.0
H404 H 0.08331 0.44232 0.56844 0.0
H405 H 0.07353 0.32683 0.58394 0.0
O406 O 0.17878 0.88081 0.58473 0.0
Tb407 Tb 0.23262 0.87143 0.61065 0.0
Eu408 Eu 0.23295 0.96355 0.58346 0.0
C409 C 0.17243 0.87282 0.54475 0.0
O410 O 0.19997 0.87215 0.51824 0.0
C411 C 0.28364 0.90189 0.54032 0.0
O412 O 0.27356 0.00976 0.57951 0.0
C413 C 0.16914 0.98623 0.55882 0.0
C414 C 0.30265 0.01013 0.60401 0.0
O415 O 0.30739 0.98356 0.6314 0.0
C416 C 0.23846 0.93309 0.68213 0.0
C417 C 0.13606 0.00801 0.5678 0.0
C418 C 0.10224 0.99484 0.55326 0.0
C419 C 0.07051 0.01629 0.55627 0.0
C420 C 0.07293 0.05073 0.57519 0.0
C421 C 0.10634 0.06438 0.58965 0.0
C422 C 0.13801 0.04311 0.58588 0.0
O423 O 0.282 0.88152 0.57454 0.0
O424 O 0.26001 0.9283 0.5336 0.0
O425 O 0.24175 0.82493 0.65327 0.0
O426 O 0.2206 0.81535 0.59183 0.0
C427 C 0.22968 0.80014 0.62745 0.0
O428 O 0.23997 0.96037 0.65484 0.0
O429 O 0.23266 0.89892 0.67133 0.0
O430 O 0.19957 0.00398 0.55164 0.0
O431 O 0.17398 0.95522 0.5791 0.0
H432 H 0.10102 0.96848 0.5378 0.0
H433 H 0.04871 0.06747 0.57818 0.0
H434 H 0.16395 0.0541 0.59616 0.0
O435 O 0.6125 0.15294 0.57113 0.0
Tb436 Tb 0.61205 0.21199 0.5699 0.0
Eu437 Eu 0.51608 0.21856 0.57585 0.0
C438 C 0.61192 0.1354 0.53477 0.0
O439 O 0.59786 0.15199 0.50162 0.0
C440 C 0.56789 0.26438 0.51556 0.0
O441 O 0.46906 0.25071 0.60157 0.0
C442 C 0.49375 0.16477 0.52909 0.0
C443 C 0.47625 0.27618 0.62958 0.0
O444 O 0.50968 0.27874 0.64409 0.0
C445 C 0.56682 0.21784 0.65627 0.0
C446 C 0.47834 0.12752 0.533 0.0
C447 C 0.49616 0.0982 0.51284 0.0
C448 C 0.48091 0.06303 0.51346 0.0
C449 C 0.44837 0.05729 0.53547 0.0
C450 C 0.43007 0.08595 0.55523 0.0
C451 C 0.44486 0.12118 0.55397 0.0
O452 O 0.5867 0.2341 0.5131 0.0
O453 O 0.54169 0.26704 0.54353 0.0
O454 O 0.65704 0.25039 0.57949 0.0
O455 O 0.66831 0.19866 0.55314 0.0
C456 C 0.68258 0.22922 0.56514 0.0
O457 O 0.53846 0.20163 0.63911 0.0
O458 O 0.59465 0.22904 0.63325 0.0
O459 O 0.47279 0.19206 0.54068 0.0
O460 O 0.52822 0.16937 0.5395 0.0
H461 H 0.52126 0.10298 0.49564 0.0
H462 H 0.43673 0.03015 0.53695 0.0
H463 H 0.43026 0.14335 0.56897 0.0
C464 C 0.78871 0.27496 0.06659 0.0
C465 C 0.76037 0.2996 0.05769 0.0
H466 H 0.80409 0.21881 0.07412 0.0
C467 C 0.72572 0.28631 0.04744 0.0
H468 H 0.81575 0.28468 0.07443 0.0
C469 C 0.71931 0.24889 0.04676 0.0
C470 C 0.74749 0.22426 0.05611 0.0
H471 H 0.70348 0.30479 0.04038 0.0
H472 H 0.69204 0.23927 0.03987 0.0
C473 C 0.78222 0.23745 0.06613 0.0
C474 C 0.23278 0.79815 0.08941 0.0
C475 C 0.20512 0.77175 0.08858 0.0
H476 H 0.29018 0.80853 0.08791 0.0
C477 C 0.21443 0.73474 0.08648 0.0
H478 H 0.2262 0.82691 0.09095 0.0
C479 C 0.25099 0.72428 0.08534 0.0
C480 C 0.27861 0.75073 0.08555 0.0
H481 H 0.19352 0.71395 0.08588 0.0
H482 H 0.25763 0.69555 0.0836 0.0
C483 C 0.26929 0.78771 0.08768 0.0
C484 C 0.78113 0.26979 0.43404 0.0
C485 C 0.74825 0.28176 0.41598 0.0
H486 H 0.8139 0.22388 0.45208 0.0
C487 C 0.72212 0.2559 0.40361 0.0
H488 H 0.8015 0.28921 0.44439 0.0
C489 C 0.72907 0.21867 0.40824 0.0
C490 C 0.76226 0.20663 0.42532 0.0
H491 H 0.69634 0.26443 0.39008 0.0
H492 H 0.70868 0.19931 0.39782 0.0
C493 C 0.78811 0.23248 0.43863 0.0
C494 C 0.22756 0.79528 0.43011 0.0
C495 C 0.21811 0.7582 0.4299 0.0
H496 H 0.27145 0.8342 0.42932 0.0
C497 C 0.24563 0.73174 0.43189 0.0
H498 H 0.20664 0.81609 0.42893 0.0
C499 C 0.28204 0.74194 0.43337 0.0
C500 C 0.29181 0.7788 0.43166 0.0
H501 H 0.23901 0.70298 0.43232 0.0
H502 H 0.30263 0.72077 0.43457 0.0
C503 C 0.2644 0.80556 0.43031 0.0
C504 C 0.30497 0.78242 0.91142 0.0
C505 C 0.2882 0.80212 0.94415 0.0
H506 H 0.31049 0.73066 0.88078 0.0
C507 C 0.26799 0.7836 0.97503 0.0
H508 H 0.32111 0.79615 0.88753 0.0
C509 C 0.26253 0.7461 0.97165 0.0
C510 C 0.27689 0.72691 0.93702 0.0
H511 H 0.25465 0.79842 1.00027 0.0
H512 H 0.24464 0.73278 0.99407 0.0
C513 C 0.29923 0.74501 0.90779 0.0
C514 C 0.72802 0.32097 0.91814 0.0
C515 C 0.70421 0.29238 0.92862 0.0
H516 H 0.7838 0.33844 0.91421 0.0
C517 C 0.71814 0.26018 0.94604 0.0
H518 H 0.71776 0.34605 0.90448 0.0
C519 C 0.75543 0.2564 0.95262 0.0
C520 C 0.77926 0.28465 0.94166 0.0
H521 H 0.70031 0.23768 0.95393 0.0
H522 H 0.76582 0.23066 0.96445 0.0
C523 C 0.76553 0.31693 0.9242 0.0
C524 C 0.24479 0.74567 0.67188 0.0
C525 C 0.22723 0.76081 0.63641 0.0
H526 H 0.26316 0.69674 0.70232 0.0
C527 C 0.20874 0.73777 0.60814 0.0
H528 H 0.25879 0.76296 0.69446 0.0
C529 C 0.21042 0.7 0.61321 0.0
C530 C 0.23121 0.68465 0.64619 0.0
H531 H 0.19438 0.74885 0.58096 0.0
H532 H 0.19803 0.68288 0.58922 0.0
C533 C 0.24688 0.70781 0.67667 0.0
C534 C 0.74715 0.2111 0.55158 0.0
C535 C 0.72191 0.2369 0.56651 0.0
H536 H 0.80356 0.197 0.54422 0.0
C537 C 0.73461 0.26926 0.5849 0.0
H538 H 0.73797 0.18595 0.5371 0.0
C539 C 0.77194 0.27539 0.58924 0.0
C540 C 0.79721 0.24931 0.57518 0.0
H541 H 0.71571 0.28958 0.5966 0.0
H542 H 0.781 0.30051 0.60385 0.0
C543 C 0.78458 0.21728 0.55585 0.0
C544 C 0.60998 0.20642 0.05867 0.0
C545 C 0.60101 0.16976 0.05075 0.0
H546 H 0.60255 0.26221 0.04032 0.0
C547 C 0.57284 0.16197 0.02203 0.0
H548 H 0.6318 0.21335 0.08037 0.0
C549 C 0.55578 0.19002 0.99945 0.0
C550 C 0.56704 0.22644 0.00448 0.0
H551 H 0.56536 0.13401 0.0153 0.0
H552 H 0.53538 0.18278 0.97606 0.0
C553 C 0.59338 0.23447 0.03548 0.0
C554 C 0.29531 0.59076 0.00813 0.0
C555 C 0.28367 0.59222 0.96569 0.0
H556 H 0.33121 0.61268 0.05555 0.0
C557 C 0.30314 0.61362 0.93678 0.0
H558 H 0.28115 0.57368 0.03077 0.0
C559 C 0.33192 0.6356 0.95069 0.0
C560 C 0.3421 0.63629 0.99378 0.0
H561 H 0.29544 0.61409 0.90358 0.0
H562 H 0.34521 0.65326 0.92793 0.0
C563 C 0.32422 0.61273 0.02215 0.0
C564 C 0.88984 0.35165 0.0234 0.0
C565 C 0.8696 0.36703 0.98991 0.0
H566 H 0.9267 0.30918 0.04281 0.0
C567 C 0.87337 0.3521 0.94898 0.0
H568 H 0.88744 0.36222 0.05535 0.0
C569 C 0.89548 0.32158 0.94207 0.0
C570 C 0.91392 0.30516 0.97599 0.0
H571 H 0.8582 0.36322 0.92245 0.0
H572 H 0.89768 0.31041 0.91037 0.0
C573 C 0.91189 0.32101 0.01642 0.0
C574 C 0.16665 0.94817 0.99644 0.0
C575 C 0.20046 0.94225 0.01644 0.0
H576 H 0.11023 0.93317 0.99286 0.0
C577 C 0.20143 0.92114 0.05363 0.0
H578 H 0.16492 0.96427 0.96769 0.0
C579 C 0.16976 0.90437 0.06888 0.0
C580 C 0.13673 0.90726 0.04636 0.0
H581 H 0.227 0.91625 0.06989 0.0
H582 H 0.17194 0.88681 0.09637 0.0
C583 C 0.13524 0.93042 0.01088 0.0
C584 C 0.59944 0.36159 0.50039 0.0
C585 C 0.62153 0.35841 0.46423 0.0
H586 H 0.56411 0.33447 0.54426 0.0
C587 C 0.62148 0.32534 0.44165 0.0
H588 H 0.59913 0.38667 0.5185 0.0
C589 C 0.60247 0.29509 0.45715 0.0
C590 C 0.58217 0.29764 0.49474 0.0
H591 H 0.63843 0.32188 0.41386 0.0
H592 H 0.60494 0.26928 0.44072 0.0
C593 C 0.57947 0.33165 0.51513 0.0
C594 C 0.16377 0.59731 0.49947 0.0
C595 C 0.17619 0.63332 0.49676 0.0
H596 H 0.17676 0.54231 0.51727 0.0
C597 C 0.21284 0.64094 0.5064 0.0
H598 H 0.13573 0.59076 0.49194 0.0
C599 C 0.23638 0.61336 0.51982 0.0
C600 C 0.22345 0.57785 0.52555 0.0
H601 H 0.22334 0.66844 0.50387 0.0
H602 H 0.26446 0.62007 0.52693 0.0
C603 C 0.18722 0.56975 0.51403 0.0
C604 C 0.91369 0.11923 0.51167 0.0
C605 C 0.89189 0.12404 0.4755 0.0
H606 H 0.94899 0.14426 0.55718 0.0
C607 C 0.89245 0.15788 0.45446 0.0
H608 H 0.9137 0.09348 0.52851 0.0
C609 C 0.91161 0.18731 0.47162 0.0
C610 C 0.93152 0.18312 0.50934 0.0
H611 H 0.87581 0.16253 0.42657 0.0
H612 H 0.90965 0.21369 0.45632 0.0
C613 C 0.93376 0.14838 0.52811 0.0
C614 C 0.34427 0.91341 0.44376 0.0
C615 C 0.37113 0.88668 0.45022 0.0
H616 H 0.29571 0.93889 0.46642 0.0
C617 C 0.36842 0.8639 0.48588 0.0
H618 H 0.34579 0.93159 0.41671 0.0
C619 C 0.33952 0.86807 0.51468 0.0
C620 C 0.31299 0.8954 0.50858 0.0
H621 H 0.38916 0.84373 0.49223 0.0
H622 H 0.33851 0.85044 0.54222 0.0
C623 C 0.31553 0.91761 0.47236 0.0
C624 C 0.41206 0.87893 0.0331 0.0
C625 C 0.39084 0.88212 0.99625 0.0
H626 H 0.44257 0.84349 0.07374 0.0
C627 C 0.38761 0.8518 0.96915 0.0
H628 H 0.41493 0.90182 0.05454 0.0
C629 C 0.40214 0.818 0.98091 0.0
C630 C 0.42145 0.8143 0.0191 0.0
H631 H 0.37156 0.85338 0.94042 0.0
H632 H 0.39712 0.79452 0.96092 0.0
C633 C 0.42774 0.84546 0.04408 0.0
C634 C 0.68697 0.42251 0.9509 0.0
C635 C 0.6874 0.44089 0.98995 0.0
H636 H 0.6559 0.39122 0.90653 0.0
C637 C 0.65454 0.44463 0.01246 0.0
H638 H 0.71178 0.41952 0.93266 0.0
C639 C 0.62283 0.42716 0.99839 0.0
C640 C 0.62301 0.40653 0.96084 0.0
H641 H 0.65394 0.45872 0.04265 0.0
H642 H 0.59872 0.42804 0.01815 0.0
C643 C 0.65486 0.40627 0.93598 0.0
C644 C 0.0887 0.66835 0.9791 0.0
C645 C 0.11601 0.67898 0.95055 0.0
H646 H 0.04913 0.6853 0.02474 0.0
C647 C 0.12162 0.71636 0.9431 0.0
H648 H 0.08378 0.63976 0.98546 0.0
C649 C 0.10231 0.74253 0.96626 0.0
C650 C 0.07655 0.73184 0.99673 0.0
H651 H 0.14266 0.72546 0.92151 0.0
H652 H 0.10866 0.77106 0.96156 0.0
C653 C 0.06891 0.69451 1.00164 0.0
C654 C 0.76156 0.11369 0.99371 0.0
C655 C 0.77056 0.08937 0.02645 0.0
H656 H 0.78043 0.15565 0.95169 0.0
C657 C 0.80656 0.08824 0.04156 0.0
H658 H 0.73403 0.11476 0.98135 0.0
C659 C 0.83288 0.11188 0.02517 0.0
C660 C 0.82399 0.13618 0.99234 0.0
H661 H 0.81418 0.0696 0.06673 0.0
H662 H 0.86017 0.11125 0.03826 0.0
C663 C 0.78818 0.13665 0.97643 0.0
C664 C 0.35523 0.72517 0.55251 0.0
C665 C 0.35927 0.68708 0.55395 0.0
H666 H 0.37666 0.77595 0.5308 0.0
C667 C 0.39036 0.67114 0.5359 0.0
H668 H 0.33172 0.73837 0.56648 0.0
C669 C 0.41619 0.69279 0.51532 0.0
C670 C 0.41141 0.73076 0.51252 0.0
H671 H 0.39433 0.6419 0.53677 0.0
H672 H 0.43936 0.67962 0.50058 0.0
C673 C 0.3811 0.74678 0.53221 0.0
C674 C 0.84002 0.41932 0.48765 0.0
C675 C 0.80361 0.40735 0.49103 0.0
H676 H 0.89675 0.40569 0.49579 0.0
C677 C 0.79674 0.37331 0.50964 0.0
H678 H 0.84628 0.44545 0.47346 0.0
C679 C 0.82549 0.35078 0.52189 0.0
C680 C 0.86177 0.36198 0.51685 0.0
H681 H 0.76918 0.36315 0.51279 0.0
H682 H 0.81929 0.32376 0.53347 0.0
C683 C 0.86894 0.39672 0.50046 0.0
C684 C 0.13138 0.82114 0.56215 0.0
C685 C 0.14059 0.84991 0.53469 0.0
H686 H 0.10276 0.77056 0.56946 0.0
C687 C 0.1237 0.85208 0.4948 0.0
H688 H 0.14447 0.81842 0.59282 0.0
C689 C 0.09877 0.82533 0.48215 0.0
C690 C 0.09164 0.79525 0.50851 0.0
H691 H 0.13084 0.87365 0.47287 0.0
H692 H 0.087 0.82684 0.45065 0.0
C693 C 0.10769 0.79364 0.54881 0.0
C694 C 0.66608 0.06422 0.47656 0.0
C695 C 0.70058 0.06855 0.4954 0.0
H696 H 0.61046 0.08213 0.47464 0.0
C697 C 0.7036 0.0897 0.53234 0.0
H698 H 0.66278 0.04795 0.44815 0.0
C699 C 0.67328 0.10829 0.5483 0.0
C700 C 0.63966 0.10696 0.52682 0.0
H701 H 0.72974 0.09327 0.54775 0.0
H702 H 0.67707 0.12608 0.57535 0.0
C703 C 0.63601 0.08364 0.4918 0.0
C704 C 0.75818 0.02817 0.26321 0.0
C705 C 0.77279 0.0572 0.287 0.0
H706 H 0.72977 0.0121 0.20648 0.0
C707 C 0.77416 0.09192 0.26845 0.0
H708 H 0.75726 1.00092 0.27622 0.0
C709 C 0.75918 0.0981 0.22845 0.0
C710 C 0.74181 0.06987 0.20604 0.0
H711 H 0.78566 0.1148 0.28555 0.0
H712 H 0.76001 0.12558 0.21595 0.0
C713 C 0.74234 0.03455 0.22328 0.0
C714 C 0.4037 0.73498 0.23384 0.0
C715 C 0.43445 0.72227 0.2118 0.0
H716 H 0.38281 0.75885 0.29074 0.0
C717 C 0.4685 0.72297 0.23234 0.0
H718 H 0.37708 0.73491 0.21896 0.0
C719 C 0.47196 0.73765 0.27311 0.0
C720 C 0.44132 0.75111 0.29476 0.0
H721 H 0.49284 0.7137 0.21623 0.0
H722 H 0.49873 0.73856 0.28752 0.0
C723 C 0.40704 0.74896 0.27493 0.0
C724 C 0.76346 0.48369 0.22003 0.0
C725 C 0.76658 0.45193 0.1953 0.0
H726 H 0.75091 0.5067 0.28075 0.0
C727 C 0.75968 0.41808 0.21464 0.0
H728 H 0.7683 0.51027 0.2062 0.0
C729 C 0.74989 0.416 0.25751 0.0
C730 C 0.7462 0.44777 0.28209 0.0
H731 H 0.76176 0.39304 0.19663 0.0
H732 H 0.74492 0.38942 0.27126 0.0
C733 C 0.75312 0.48166 0.26277 0.0
C734 C 0.02011 0.75838 0.24348 0.0
C735 C 0.0519 0.76935 0.2221 0.0
H736 H 0.99701 0.73511 0.29963 0.0
C737 C 0.0857 0.76409 0.24226 0.0
H738 H 0.99361 0.76149 0.22877 0.0
C739 C 0.08769 0.74879 0.28284 0.0
C740 C 0.05593 0.7381 0.30446 0.0
H741 H 0.11083 0.77187 0.22675 0.0
H742 H 0.11425 0.7458 0.29743 0.0
C743 C 0.02211 0.7428 0.28403 0.0
C744 C 0.2637 0.97246 0.74076 0.0
C745 C 0.24604 0.94034 0.72767 0.0
H746 H 0.28831 1.00185 0.79219 0.0
C747 C 0.23855 0.9134 0.75818 0.0
H748 H 0.27019 0.99363 0.71806 0.0
C749 C 0.24898 0.91805 0.80041 0.0
C750 C 0.26735 0.94971 0.81344 0.0
H751 H 0.22499 0.88831 0.74939 0.0
H752 H 0.24293 0.89648 0.82277 0.0
C753 C 0.2744 0.97702 0.78319 0.0
C754 C 0.59225 0.25982 0.76235 0.0
C755 C 0.55805 0.26329 0.78189 0.0
H756 H 0.62192 0.24272 0.70731 0.0
C757 C 0.52722 0.24928 0.76108 0.0
H758 H 0.61655 0.27005 0.77779 0.0
C759 C 0.53045 0.23244 0.72147 0.0
C760 C 0.56441 0.2303 0.70103 0.0
H761 H 0.50053 0.25101 0.77556 0.0
H762 H 0.506 0.22237 0.7062 0.0
C763 C 0.59534 0.24391 0.72212 0.0
C764 C 0.24454 0.52277 0.73286 0.0
C765 C 0.272 0.54298 0.71234 0.0
H766 H 0.20882 0.51858 0.78659 0.0
C767 C 0.28605 0.57393 0.73273 0.0
H768 H 0.2332 0.49863 0.71824 0.0
C769 C 0.27186 0.58544 0.77154 0.0
C770 C 0.24346 0.56614 0.79128 0.0
H771 H 0.30753 0.58987 0.71832 0.0
H772 H 0.28292 0.6099 0.7858 0.0
C773 C 0.23049 0.53417 0.77205 0.0
C774 C 0.97565 0.24141 0.74448 0.0
C775 C 0.94742 0.25533 0.71881 0.0
H776 H 0.99131 0.22163 0.80616 0.0
C777 C 0.91317 0.26142 0.73719 0.0
H778 H 1.00239 0.23636 0.7313 0.0
C779 C 0.90698 0.25336 0.77977 0.0
C780 C 0.9347 0.23842 0.80536 0.0
H781 H 0.89086 0.27235 0.71858 0.0
H782 H 0.88007 0.25861 0.7924 0.0
C783 C 0.96926 0.23272 0.78729 0.0
C784 C 0.47696 0.97536 0.01331 0.0
C785 C 0.47385 0.0134 0.01076 0.0
H786 H 0.50852 0.92989 0.03438 0.0
C787 C 0.50161 0.03503 0.02876 0.0
H788 H 0.4565 0.95791 0.99915 0.0
C789 C 0.53155 0.01898 0.04912 0.0
C790 C 0.53438 0.98092 0.05213 0.0
H791 H 0.4999 0.06448 0.02776 0.0
H792 H 0.55199 0.03635 0.06342 0.0
C793 C 0.50689 0.95935 0.03349 0.0
C794 C 0.46514 0.50418 0.98433 0.0
C795 C 0.48882 0.4793 0.96456 0.0
H796 H 0.45973 0.55356 0.01973 0.0
C797 C 0.52648 0.48527 0.9666 0.0
H798 H 0.43596 0.49984 0.98384 0.0
C799 C 0.5401 0.51633 0.98679 0.0
C800 C 0.51631 0.54175 0.00573 0.0
H801 H 0.54525 0.46659 0.95144 0.0
H802 H 0.56925 0.52083 0.98668 0.0
C803 C 0.47871 0.53505 0.00467 0.0
C804 C 0.02758 0.50755 0.98897 0.0
C805 C 0.02544 0.49938 0.94547 0.0
H806 H 0.9991 0.52529 0.04465 0.0
C807 C 0.99185 0.50442 0.92451 0.0
H808 H 0.05274 0.50347 0.0063 0.0
C809 C 0.96097 0.516 0.94665 0.0
C810 C 0.96296 0.52347 0.99022 0.0
H811 H 0.98928 0.49892 0.89087 0.0
H812 H 0.93563 0.51964 0.92951 0.0
C813 C 0.99672 0.51958 0.01104 0.0
C814 C 0.0519 0.02063 1.00192 0.0
C815 C 0.02845 0.04675 0.9835 0.0
H816 H 0.05654 0.97091 0.03749 0.0
C817 C 0.99072 0.04114 0.98588 0.0
H818 H 0.08116 0.02427 1.00116 0.0
C819 C 0.97676 0.01059 0.0067 0.0
C820 C 1.00014 0.98495 0.02591 0.0
H821 H 0.97194 0.06025 0.97141 0.0
H822 H 0.94748 0.00711 0.00795 0.0
C823 C 0.03789 0.99 0.02273 0.0
C824 C 0.4863 0.51165 0.53525 0.0
C825 C 0.47922 0.47415 0.53644 0.0
H826 H 0.52241 0.55401 0.51568 0.0
C827 C 0.50464 0.45013 0.51785 0.0
H828 H 0.46769 0.53079 0.5499 0.0
C829 C 0.53605 0.4634 0.49791 0.0
C830 C 0.54274 0.50101 0.49601 0.0
H831 H 0.49986 0.42101 0.51791 0.0
H832 H 0.55448 0.44429 0.48292 0.0
C833 C 0.51774 0.52488 0.51561 0.0
C834 C 0.03277 0.51452 0.49408 0.0
C835 C 0.99594 0.52435 0.49717 0.0
H836 H 0.07318 0.47346 0.5045 0.0
C837 C 0.97149 0.49933 0.51568 0.0
H838 H 0.05218 0.5328 0.47942 0.0
C839 C 0.98343 0.46523 0.53017 0.0
C840 C 0.02022 0.45518 0.52674 0.0
H841 H 0.94293 0.50615 0.51901 0.0
H842 H 0.96389 0.44697 0.54462 0.0
C843 C 0.0447 0.48035 0.50842 0.0
C844 C 0.97947 0.01631 0.49793 0.0
C845 C 0.96849 0.97984 0.50204 0.0
H846 H 0.02052 0.05616 0.51083 0.0
C847 C 0.9908 0.95576 0.52533 0.0
H848 H 0.9632 0.03549 0.47988 0.0
C849 C 0.02372 0.96751 0.54296 0.0
C850 C 0.03512 0.00376 0.5381 0.0
H851 H 0.98284 0.92762 0.52989 0.0
H852 H 0.04015 0.94823 0.56066 0.0
C853 C 0.01242 0.0281 0.51565 0.0
C854 C 0.49011 0.97477 0.45244 0.0
C855 C 0.52711 0.9666 0.45771 0.0
H856 H 0.44687 0.0123 0.46436 0.0
C857 C 0.54977 0.9921 0.4782 0.0
H858 H 0.47227 0.95607 0.43598 0.0
C859 C 0.53525 0.02441 0.49475 0.0
C860 C 0.49785 0.03174 0.49102 0.0
H861 H 0.57847 0.98648 0.48278 0.0
H862 H 0.55295 0.0428 0.51199 0.0
C863 C 0.47569 0.00704 0.46862 0.0
C864 C 0.52961 0.84084 0.17553 0.0
C865 C 0.54306 0.8096 0.15503 0.0
H866 H 0.53287 0.89888 0.18118 0.0
C867 C 0.57598 0.81195 0.13249 0.0
H868 H 0.50467 0.83982 0.1938 0.0
C869 C 0.59217 0.84582 0.12547 0.0
C870 C 0.57566 0.87767 0.14097 0.0
H871 H 0.58734 0.78828 0.11682 0.0
H872 H 0.61538 0.84738 0.10437 0.0
C873 C 0.54568 0.87469 0.16832 0.0
C874 C 0.6512 0.56307 0.13676 0.0
C875 C 0.68232 0.57329 0.11368 0.0
H876 H 0.59298 0.56534 0.1406 0.0
C877 C 0.67909 0.60073 0.08268 0.0
H878 H 0.65273 0.54235 0.16118 0.0
C879 C 0.64476 0.61425 0.0714 0.0
C880 C 0.61337 0.60044 0.09092 0.0
H881 H 0.70257 0.60945 0.06458 0.0
H882 H 0.64251 0.63276 0.04473 0.0
C883 C 0.61695 0.57629 0.12517 0.0
C884 C 0.91258 0.68644 0.0749 0.0
C885 C 0.93775 0.68742 0.1086 0.0
H886 H 0.88133 0.65268 0.03272 0.0
C887 C 0.94606 0.65479 0.13002 0.0
H888 H 0.9055 0.71107 0.05783 0.0
C889 C 0.9324 0.62156 0.11547 0.0
C890 C 0.90961 0.62035 0.07977 0.0
H891 H 0.96514 0.6545 0.15627 0.0
H892 H 0.94148 0.59655 0.13043 0.0
C893 C 0.89854 0.6531 0.06066 0.0
C894 C 0.86683 0.98958 0.15678 0.0
C895 C 0.83484 0.97206 0.14345 0.0
H896 H 0.92508 0.99005 0.15525 0.0
C897 C 0.83751 0.93751 0.12435 0.0
H898 H 0.86566 0.0159 0.17227 0.0
C899 C 0.87157 0.92289 0.11415 0.0
C900 C 0.90352 0.94244 0.12321 0.0
H901 H 0.81334 0.9231 0.11405 0.0
H902 H 0.87263 0.89797 0.09579 0.0
C903 C 0.90086 0.97476 0.14703 0.0
C904 C 0.60369 0.63221 0.42654 0.0
C905 C 0.59127 0.60026 0.40685 0.0
H906 H 0.59564 0.68958 0.43507 0.0
C907 C 0.56489 0.60283 0.37472 0.0
H908 H 0.62368 0.63076 0.45182 0.0
C909 C 0.54877 0.63632 0.36515 0.0
C910 C 0.55841 0.6678 0.38796 0.0
H911 H 0.55475 0.57845 0.35936 0.0
H912 H 0.5269 0.63694 0.34206 0.0
C913 C 0.58736 0.66578 0.4172 0.0
C914 C 0.86742 0.59752 0.43713 0.0
C915 C 0.89937 0.58733 0.41582 0.0
H916 H 0.8098 0.58986 0.4429 0.0
C917 C 0.89675 0.56638 0.37874 0.0
H918 H 0.86895 0.61331 0.46612 0.0
C919 C 0.86304 0.55301 0.36533 0.0
C920 C 0.83144 0.55982 0.38924 0.0
H921 H 0.92114 0.55799 0.36207 0.0
H922 H 0.86234 0.5349 0.33822 0.0
C923 C 0.83364 0.58386 0.42394 0.0
C924 C 0.92667 0.8759 0.38406 0.0
C925 C 0.90787 0.88075 0.4223 0.0
H926 H 0.95746 0.83948 0.34525 0.0
C927 C 0.90044 0.85038 0.4479 0.0
H928 H 0.93303 0.89913 0.36419 0.0
C929 C 0.91474 0.81617 0.43744 0.0
C930 C 0.93691 0.81206 0.40139 0.0
H931 H 0.8864 0.85376 0.47785 0.0
H932 H 0.91104 0.79385 0.45951 0.0
C933 C 0.94083 0.84176 0.37349 0.0
C934 C 0.63237 0.91705 0.35132 0.0
C935 C 0.627 0.89779 0.38919 0.0
H936 H 0.66962 0.94755 0.31348 0.0
C937 C 0.6572 0.88775 0.41387 0.0
H938 H 0.60931 0.92499 0.33189 0.0
C939 C 0.69179 0.90107 0.40377 0.0
C940 C 0.69632 0.92458 0.36892 0.0
H941 H 0.65348 0.873 0.44334 0.0
H942 H 0.714 0.896 0.42565 0.0
C943 C 0.6669 0.93006 0.34099 0.0
C944 C 0.408 0.14446 0.92783 0.0
C945 C 0.42598 0.11193 0.91726 0.0
H946 H 0.40734 0.2026 0.92222 0.0
C947 C 0.45397 0.11271 0.88703 0.0
H948 H 0.38634 0.14451 0.95114 0.0
C949 C 0.46581 0.1458 0.87023 0.0
C950 C 0.45019 0.17877 0.88384 0.0
H951 H 0.46792 0.08786 0.87804 0.0
H952 H 0.48881 0.14561 0.84876 0.0
C953 C 0.42009 0.17769 0.91134 0.0
C954 C 0.39012 0.46631 0.8429 0.0
C955 C 0.39209 0.43533 0.86909 0.0
H956 H 0.3562 0.50843 0.8174 0.0
C957 C 0.35963 0.41822 0.88157 0.0
H958 H 0.41477 0.47968 0.83225 0.0
C959 C 0.32601 0.43455 0.87279 0.0
C960 C 0.3245 0.46833 0.85172 0.0
H961 H 0.36028 0.39436 0.90179 0.0
H962 H 0.30166 0.42246 0.88606 0.0
C963 C 0.35661 0.48282 0.8345 0.0
C964 C 0.08667 0.36454 0.87033 0.0
C965 C 0.06791 0.39614 0.85771 0.0
H966 H 0.08441 0.30683 0.87822 0.0
C967 C 0.03588 0.39247 0.83356 0.0
H968 H 0.11149 0.36632 0.88881 0.0
C969 C 0.01995 0.35828 0.82812 0.0
C970 C 0.03607 0.32729 0.84637 0.0
H971 H 0.02136 0.41635 0.82241 0.0
H972 H 0.99343 0.35665 0.81314 0.0
C973 C 0.07097 0.3303 0.86442 0.0
C974 C 0.19292 0.1046 0.90968 0.0
C975 C 0.19722 0.07603 0.88041 0.0
H976 H 0.15511 0.13751 0.94446 0.0
C977 C 0.16689 0.06445 0.85669 0.0
H978 H 0.21586 0.11438 0.92808 0.0
C979 C 0.13219 0.07744 0.86643 0.0
C980 C 0.12751 0.10274 0.89927 0.0
H981 H 0.16931 0.04279 0.83353 0.0
H982 H 0.10876 0.06556 0.85074 0.0
C983 C 0.15821 0.11796 0.91897 0.0
C984 C 0.42138 0.31159 0.607 0.0
C985 C 0.45148 0.30763 0.63425 0.0
H986 H 0.3859 0.34921 0.5754 0.0
C987 C 0.46225 0.33735 0.65941 0.0
H988 H 0.41209 0.28904 0.58766 0.0
C989 C 0.44718 0.37171 0.65238 0.0
C990 C 0.42094 0.37662 0.62049 0.0
H991 H 0.48485 0.33496 0.68137 0.0
H992 H 0.4587 0.39502 0.66866 0.0
C993 C 0.40617 0.346 0.60015 0.0
C994 C 0.12647 0.40063 0.63439 0.0
C995 C 0.11918 0.38409 0.59525 0.0
H996 H 0.16665 0.42483 0.6745 0.0
C997 C 0.14814 0.37397 0.56882 0.0
H998 H 0.10433 0.40881 0.655 0.0
C999 C 0.18381 0.3836 0.5795 0.0
C1000 C 0.19088 0.40329 0.61686 0.0
H1001 H 0.14287 0.36141 0.53832 0.0
H1002 H 0.20539 0.37805 0.557 0.0
C1003 C 0.16216 0.40976 0.64542 0.0
C1004 C 0.10001 0.16604 0.58758 0.0
C1005 C 0.08127 0.17244 0.62578 0.0
H1006 H 0.12364 0.12586 0.54644 0.0
C1007 C 0.07941 0.1442 0.65596 0.0
H1008 H 0.10205 0.18716 0.56369 0.0
C1009 C 0.09183 0.10923 0.64599 0.0
C1010 C 0.10688 0.10204 0.60602 0.0
H1011 H 0.06544 0.14822 0.68584 0.0
H1012 H 0.08673 0.08714 0.66802 0.0
C1013 C 0.1126 0.13101 0.57773 0.0
C1014 C 0.33158 0.06067 0.56198 0.0
C1015 C 0.3322 0.03704 0.59714 0.0
H1016 H 0.36271 0.09604 0.52162 0.0
C1017 C 0.36329 0.03653 0.6233 0.0
H1018 H 0.30802 0.06185 0.54131 0.0
C1019 C 0.39429 0.05642 0.61224 0.0
C1020 C 0.3947 0.07745 0.57508 0.0
H1021 H 0.36458 0.01895 0.65087 0.0
H1022 H 0.41893 0.05303 0.63081 0.0
C1023 C 0.36268 0.08063 0.55096 0.0
loop_
_geom_bond_atom_site_label_1
_geom_bond_atom_site_label_2
_geom_bond_distance
_geom_bond_site_symmetry_2
_ccdc_geom_bond_type
O0 Tb1 2.292 . S
O0 C3 1.255 . S
Tb1 O0 2.292 . S
Tb1 O17 2.326 . S
Tb1 O19 2.500 . S
Tb1 O20 2.473 . S
Tb1 O23 2.324 . S
Eu2 O6 2.292 1_545 S
Eu2 C7 2.852 1_545 S
Eu2 O18 2.324 . S
Eu2 O22 2.326 . S
Eu2 O24 2.500 1_545 S
Eu2 O25 2.473 . S
C3 O0 1.255 . S
C3 O4 1.247 . S
O4 C3 1.247 . S
C5 O17 1.242 . S
C5 O18 1.258 . S
O6 Eu2 2.292 1_565 S
O6 C8 1.255 1_565 S
C7 Eu2 2.852 1_565 S
C7 C11 1.503 . S
C7 O24 1.273 . S
C7 O25 1.257 1_565 S
C8 O6 1.255 1_545 S
C8 O9 1.251 . S
O9 C8 1.251 . S
C10 O22 1.242 . S
C10 O23 1.258 . S
C11 C7 1.503 . S
C11 C12 1.370 1_565 S
C11 C16 1.392 . S
C12 C11 1.370 1_545 S
C12 C13 1.397 1_545 S
C12 H26 0.945 . S
C13 C12 1.397 1_565 S
C13 C14 1.389 . S
C14 C13 1.389 . S
C14 C15 1.399 . S
C14 H27 0.931 . S
C15 C14 1.399 . S
C15 C16 1.390 . S
C16 C11 1.392 . S
C16 C15 1.390 . S
C16 H28 0.929 . S
O17 Tb1 2.326 . S
O17 C5 1.242 . S
O18 Eu2 2.324 . S
O18 C5 1.258 . S
O19 Tb1 2.500 . S
O19 C21 1.273 . S
O20 Tb1 2.473 . S
O20 C21 1.257 . S
C21 O19 1.273 . S
C21 O20 1.257 . S
O22 Eu2 2.326 . S
O22 C10 1.242 . S
O23 Tb1 2.324 . S
O23 C10 1.258 . S
O24 Eu2 2.500 1_565 S
O24 C7 1.273 . S
O25 Eu2 2.473 . S
O25 C7 1.257 1_545 S
H26 C12 0.945 . S
H27 C14 0.931 . S
H28 C16 0.929 . S
O29 Tb30 2.292 . S
O29 C32 1.255 . S
Tb30 O29 2.292 . S
Tb30 O46 2.326 . S
Tb30 O48 2.500 . S
Tb30 O49 2.473 . S
Tb30 O52 2.324 . S
Eu31 O35 2.292 . S
Eu31 C36 2.852 . S
Eu31 O47 2.324 . S
Eu31 O51 2.326 . S
Eu31 O53 2.500 . S
Eu31 O54 2.473 . S
C32 O29 1.255 . S
C32 O33 1.247 . S
O33 C32 1.247 . S
C34 O46 1.242 . S
C34 O47 1.258 . S
O35 Eu31 2.292 . S
O35 C37 1.255 . S
C36 Eu31 2.852 . S
C36 C40 1.503 . S
C36 O53 1.273 . S
C36 O54 1.257 . S
C37 O35 1.255 . S
C37 O38 1.247 . S
O38 C37 1.247 . S
C39 O51 1.242 . S
C39 O52 1.258 . S
C40 C36 1.503 . S
C40 C41 1.379 . S
C40 C45 1.392 . S
C41 C40 1.379 . S
C41 C42 1.404 . S
C41 H55 0.929 . S
C42 C41 1.404 . S
C42 C43 1.389 . S
C43 C42 1.389 . S
C43 C44 1.399 . S
C43 H56 0.931 . S
C44 C43 1.399 . S
C44 C45 1.390 . S
C45 C40 1.392 . S
C45 C44 1.390 . S
C45 H57 0.929 . S
O46 Tb30 2.326 . S
O46 C34 1.242 . S
O47 Eu31 2.324 . S
O47 C34 1.258 . S
O48 Tb30 2.500 . S
O48 C50 1.273 . S
O49 Tb30 2.473 . S
O49 C50 1.257 . S
C50 O48 1.273 . S
C50 O49 1.257 . S
O51 Eu31 2.326 . S
O51 C39 1.242 . S
O52 Tb30 2.324 . S
O52 C39 1.258 . S
O53 Eu31 2.500 . S
O53 C36 1.273 . S
O54 Eu31 2.473 . S
O54 C36 1.257 . S
H55 C41 0.929 . S
H56 C43 0.931 . S
H57 C45 0.929 . S
O58 Tb59 2.292 . S
O58 C61 1.255 . S
Tb59 O58 2.292 . S
Tb59 O75 2.326 . S
Tb59 O77 2.500 . S
Tb59 O78 2.473 . S
Tb59 O81 2.324 . S
Eu60 O64 2.292 . S
Eu60 C65 2.852 . S
Eu60 O76 2.324 . S
Eu60 O80 2.326 . S
Eu60 O82 2.500 . S
Eu60 O83 2.473 . S
C61 O58 1.255 . S
C61 O62 1.247 . S
O62 C61 1.247 . S
C63 O75 1.242 . S
C63 O76 1.258 . S
O64 Eu60 2.292 . S
O64 C66 1.255 . S
C65 Eu60 2.852 . S
C65 C69 1.503 . S
C65 O82 1.273 . S
C65 O83 1.257 . S
C66 O64 1.255 . S
C66 O67 1.247 . S
O67 C66 1.247 . S
C68 O80 1.242 . S
C68 O81 1.258 . S
C69 C65 1.503 . S
C69 C70 1.379 . S
C69 C74 1.392 . S
C70 C69 1.379 . S
C70 C71 1.404 . S
C70 H84 0.929 . S
C71 C70 1.404 . S
C71 C72 1.389 . S
C72 C71 1.389 . S
C72 C73 1.399 . S
C72 H85 0.931 . S
C73 C72 1.399 . S
C73 C74 1.390 . S
C74 C69 1.392 . S
C74 C73 1.390 . S
C74 H86 0.929 . S
O75 Tb59 2.326 . S
O75 C63 1.242 . S
O76 Eu60 2.324 . S
O76 C63 1.258 . S
O77 Tb59 2.500 . S
O77 C79 1.273 . S
O78 Tb59 2.473 . S
O78 C79 1.257 . S
C79 O77 1.273 . S
C79 O78 1.257 . S
O80 Eu60 2.326 . S
O80 C68 1.242 . S
O81 Tb59 2.324 . S
O81 C68 1.258 . S
O82 Eu60 2.500 . S
O82 C65 1.273 . S
O83 Eu60 2.473 . S
O83 C65 1.257 . S
H84 C70 0.929 . S
H85 C72 0.931 . S
H86 C74 0.929 . S
O87 Tb88 2.292 . S
O87 C90 1.255 . S
Tb88 O87 2.292 . S
Tb88 O104 2.326 . S
Tb88 O106 2.500 . S
Tb88 O107 2.473 . S
Tb88 O110 2.324 . S
Eu89 O93 2.292 1_455 S
Eu89 C94 2.852 1_455 S
Eu89 O105 2.324 . S
Eu89 O109 2.326 . S
Eu89 O111 2.500 1_455 S
Eu89 O112 2.473 . S
C90 O87 1.255 . S
C90 O91 1.247 . S
O91 C90 1.247 . S
C92 O104 1.242 . S
C92 O105 1.258 . S
O93 Eu89 2.292 1_655 S
O93 C95 1.255 1_655 S
C94 Eu89 2.852 1_655 S
C94 C98 1.503 . S
C94 O111 1.273 . S
C94 O112 1.257 1_655 S
C95 O93 1.255 1_455 S
C95 O96 1.251 . S
O96 C95 1.251 . S
C97 O109 1.242 . S
C97 O110 1.258 . S
C98 C94 1.503 . S
C98 C99 1.370 1_655 S
C98 C103 1.392 . S
C99 C98 1.370 1_455 S
C99 C100 1.397 1_455 S
C99 H113 0.945 . S
C100 C99 1.397 1_655 S
C100 C101 1.389 . S
C101 C100 1.389 . S
C101 C102 1.399 . S
C101 H114 0.931 . S
C102 C101 1.399 . S
C102 C103 1.390 . S
C103 C98 1.392 . S
C103 C102 1.390 . S
C103 H115 0.929 . S
O104 Tb88 2.326 . S
O104 C92 1.242 . S
O105 Eu89 2.324 . S
O105 C92 1.258 . S
O106 Tb88 2.500 . S
O106 C108 1.273 . S
O107 Tb88 2.473 . S
O107 C108 1.257 . S
C108 O106 1.273 . S
C108 O107 1.257 . S
O109 Eu89 2.326 . S
O109 C97 1.242 . S
O110 Tb88 2.324 . S
O110 C97 1.258 . S
O111 Eu89 2.500 1_655 S
O111 C94 1.273 . S
O112 Eu89 2.473 . S
O112 C94 1.257 1_455 S
H113 C99 0.945 . S
H114 C101 0.931 . S
H115 C103 0.929 . S
O116 Tb117 2.292 . S
O116 C119 1.255 . S
Tb117 O116 2.292 . S
Tb117 O133 2.326 . S
Tb117 O135 2.500 . S
Tb117 O136 2.473 . S
Tb117 O139 2.324 . S
Eu118 O122 2.292 . S
Eu118 C123 2.852 . S
Eu118 O134 2.324 . S
Eu118 O138 2.326 . S
Eu118 O140 2.500 . S
Eu118 O141 2.473 . S
C119 O116 1.255 . S
C119 O120 1.247 . S
O120 C119 1.247 . S
C121 O133 1.242 . S
C121 O134 1.258 . S
O122 Eu118 2.292 . S
O122 C124 1.255 . S
C123 Eu118 2.852 . S
C123 C127 1.503 . S
C123 O140 1.273 . S
C123 O141 1.257 . S
C124 O122 1.255 . S
C124 O125 1.247 . S
O125 C124 1.247 . S
C126 O138 1.242 . S
C126 O139 1.258 . S
C127 C123 1.503 . S
C127 C128 1.379 . S
C127 C132 1.392 . S
C128 C127 1.379 . S
C128 C129 1.404 . S
C128 H142 0.929 . S
C129 C128 1.404 . S
C129 C130 1.389 . S
C130 C129 1.389 . S
C130 C131 1.399 . S
C130 H143 0.931 . S
C131 C130 1.399 . S
C131 C132 1.390 . S
C132 C127 1.392 . S
C132 C131 1.390 . S
C132 H144 0.929 . S
O133 Tb117 2.326 . S
O133 C121 1.242 . S
O134 Eu118 2.324 . S
O134 C121 1.258 . S
O135 Tb117 2.500 . S
O135 C137 1.273 . S
O136 Tb117 2.473 . S
O136 C137 1.257 . S
C137 O135 1.273 . S
C137 O136 1.257 . S
O138 Eu118 2.326 . S
O138 C126 1.242 . S
O139 Tb117 2.324 . S
O139 C126 1.258 . S
O140 Eu118 2.500 . S
O140 C123 1.273 . S
O141 Eu118 2.473 . S
O141 C123 1.257 . S
H142 C128 0.929 . S
H143 C130 0.931 . S
H144 C132 0.929 . S
O145 Tb146 2.292 . S
O145 C148 1.255 . S
Tb146 O145 2.292 . S
Tb146 O162 2.326 . S
Tb146 O164 2.500 . S
Tb146 O165 2.473 . S
Tb146 O168 2.324 . S
Eu147 O151 2.292 1_455 S
Eu147 C152 2.852 1_455 S
Eu147 O163 2.324 . S
Eu147 O167 2.326 . S
Eu147 O169 2.500 1_455 S
Eu147 O170 2.473 . S
C148 O145 1.255 . S
C148 O149 1.247 . S
O149 C148 1.247 . S
C150 O162 1.242 . S
C150 O163 1.258 . S
O151 Eu147 2.292 1_655 S
O151 C153 1.255 1_655 S
C152 Eu147 2.852 1_655 S
C152 C156 1.503 . S
C152 O169 1.273 . S
C152 O170 1.257 1_655 S
C153 O151 1.255 1_455 S
C153 O154 1.251 . S
O154 C153 1.251 . S
C155 O167 1.242 . S
C155 O168 1.258 . S
C156 C152 1.503 . S
C156 C157 1.370 1_655 S
C156 C161 1.392 . S
C157 C156 1.370 1_455 S
C157 C158 1.397 1_455 S
C157 H171 0.945 . S
C158 C157 1.397 1_655 S
C158 C159 1.389 . S
C159 C158 1.389 . S
C159 C160 1.399 . S
C159 H172 0.931 . S
C160 C159 1.399 . S
C160 C161 1.390 . S
C161 C156 1.392 . S
C161 C160 1.390 . S
C161 H173 0.929 . S
O162 Tb146 2.326 . S
O162 C150 1.242 . S
O163 Eu147 2.324 . S
O163 C150 1.258 . S
O164 Tb146 2.500 . S
O164 C166 1.273 . S
O165 Tb146 2.473 . S
O165 C166 1.257 . S
C166 O164 1.273 . S
C166 O165 1.257 . S
O167 Eu147 2.326 . S
O167 C155 1.242 . S
O168 Tb146 2.324 . S
O168 C155 1.258 . S
O169 Eu147 2.500 1_655 S
O169 C152 1.273 . S
O170 Eu147 2.473 . S
O170 C152 1.257 1_455 S
H171 C157 0.945 . S
H172 C159 0.931 . S
H173 C161 0.929 . S
O174 Tb175 2.292 . S
O174 C177 1.255 . S
Tb175 O174 2.292 . S
Tb175 O191 2.326 . S
Tb175 O193 2.500 . S
Tb175 O194 2.473 . S
Tb175 O197 2.324 . S
Eu176 O180 2.292 1_545 S
Eu176 C181 2.852 1_545 S
Eu176 O192 2.324 . S
Eu176 O196 2.326 . S
Eu176 O198 2.500 1_545 S
Eu176 O199 2.473 . S
C177 O174 1.255 . S
C177 O178 1.247 . S
O178 C177 1.247 . S
C179 O191 1.242 . S
C179 O192 1.258 . S
O180 Eu176 2.292 1_565 S
O180 C182 1.255 1_565 S
C181 Eu176 2.852 1_565 S
C181 C185 1.503 . S
C181 O198 1.273 . S
C181 O199 1.257 1_565 S
C182 O180 1.255 1_545 S
C182 O183 1.251 . S
O183 C182 1.251 . S
C184 O196 1.242 . S
C184 O197 1.258 . S
C185 C181 1.503 . S
C185 C186 1.370 1_565 S
C185 C190 1.392 . S
C186 C185 1.370 1_545 S
C186 C187 1.397 1_545 S
C186 H200 0.945 . S
C187 C186 1.397 1_565 S
C187 C188 1.389 . S
C188 C187 1.389 . S
C188 C189 1.399 . S
C188 H201 0.931 . S
C189 C188 1.399 . S
C189 C190 1.390 . S
C190 C185 1.392 . S
C190 C189 1.390 . S
C190 H202 0.929 . S
O191 Tb175 2.326 . S
O191 C179 1.242 . S
O192 Eu176 2.324 . S
O192 C179 1.258 . S
O193 Tb175 2.500 . S
O193 C195 1.273 . S
O194 Tb175 2.473 . S
O194 C195 1.257 . S
C195 O193 1.273 . S
C195 O194 1.257 . S
O196 Eu176 2.326 . S
O196 C184 1.242 . S
O197 Tb175 2.324 . S
O197 C184 1.258 . S
O198 Eu176 2.500 1_565 S
O198 C181 1.273 . S
O199 Eu176 2.473 . S
O199 C181 1.257 1_545 S
H200 C186 0.945 . S
H201 C188 0.931 . S
H202 C190 0.929 . S
O203 Tb204 2.292 . S
O203 C206 1.255 . S
Tb204 O203 2.292 . S
Tb204 O220 2.326 . S
Tb204 O222 2.500 . S
Tb204 O223 2.473 . S
Tb204 O226 2.324 . S
Eu205 O209 2.292 . S
Eu205 C210 2.852 . S
Eu205 O221 2.324 . S
Eu205 O225 2.326 . S
Eu205 O227 2.500 . S
Eu205 O228 2.473 . S
C206 O203 1.255 . S
C206 O207 1.247 . S
O207 C206 1.247 . S
C208 O220 1.242 . S
C208 O221 1.258 . S
O209 Eu205 2.292 . S
O209 C211 1.255 . S
C210 Eu205 2.852 . S
C210 C214 1.503 . S
C210 O227 1.273 . S
C210 O228 1.257 . S
C211 O209 1.255 . S
C211 O212 1.247 . S
O212 C211 1.247 . S
C213 O225 1.242 . S
C213 O226 1.258 . S
C214 C210 1.503 . S
C214 C215 1.379 . S
C214 C219 1.392 . S
C215 C214 1.379 . S
C215 C216 1.404 . S
C215 H229 0.929 . S
C216 C215 1.404 . S
C216 C217 1.389 . S
C217 C216 1.389 . S
C217 C218 1.399 . S
C217 H230 0.931 . S
C218 C217 1.399 . S
C218 C219 1.390 . S
C219 C214 1.392 . S
C219 C218 1.390 . S
C219 H231 0.929 . S
O220 Tb204 2.326 . S
O220 C208 1.242 . S
O221 Eu205 2.324 . S
O221 C208 1.258 . S
O222 Tb204 2.500 . S
O222 C224 1.273 . S
O223 Tb204 2.473 . S
O223 C224 1.257 . S
C224 O222 1.273 . S
C224 O223 1.257 . S
O225 Eu205 2.326 . S
O225 C213 1.242 . S
O226 Tb204 2.324 . S
O226 C213 1.258 . S
O227 Eu205 2.500 . S
O227 C210 1.273 . S
O228 Eu205 2.473 . S
O228 C210 1.257 . S
H229 C215 0.929 . S
H230 C217 0.931 . S
H231 C219 0.929 . S
O232 Tb233 2.292 . S
O232 C235 1.255 . S
Tb233 O232 2.292 . S
Tb233 O249 2.326 . S
Tb233 O251 2.500 . S
Tb233 O252 2.473 . S
Tb233 O255 2.324 . S
Eu234 O238 2.292 1_565 S
Eu234 C239 2.852 1_565 S
Eu234 O250 2.324 . S
Eu234 O254 2.326 . S
Eu234 O256 2.500 1_565 S
Eu234 O257 2.473 . S
C235 O232 1.255 . S
C235 O236 1.247 . S
O236 C235 1.247 . S
C237 O249 1.242 . S
C237 O250 1.258 . S
O238 Eu234 2.292 1_545 S
O238 C240 1.255 1_545 S
C239 Eu234 2.852 1_545 S
C239 C243 1.503 . S
C239 O256 1.273 . S
C239 O257 1.257 1_545 S
C240 O238 1.255 1_565 S
C240 O241 1.251 . S
O241 C240 1.251 . S
C242 O254 1.242 . S
C242 O255 1.258 . S
C243 C239 1.503 . S
C243 C244 1.370 1_545 S
C243 C248 1.392 . S
C244 C243 1.370 1_565 S
C244 C245 1.397 1_565 S
C244 H258 0.945 . S
C245 C244 1.397 1_545 S
C245 C246 1.389 . S
C246 C245 1.389 . S
C246 C247 1.399 . S
C246 H259 0.931 . S
C247 C246 1.399 . S
C247 C248 1.390 . S
C248 C243 1.392 . S
C248 C247 1.390 . S
C248 H260 0.929 . S
O249 Tb233 2.326 . S
O249 C237 1.242 . S
O250 Eu234 2.324 . S
O250 C237 1.258 . S
O251 Tb233 2.500 . S
O251 C253 1.273 . S
O252 Tb233 2.473 . S
O252 C253 1.257 . S
C253 O251 1.273 . S
C253 O252 1.257 . S
O254 Eu234 2.326 . S
O254 C242 1.242 . S
O255 Tb233 2.324 . S
O255 C242 1.258 . S
O256 Eu234 2.500 1_545 S
O256 C239 1.273 . S
O257 Eu234 2.473 . S
O257 C239 1.257 1_565 S
H258 C244 0.945 . S
H259 C246 0.931 . S
H260 C248 0.929 . S
O261 Tb262 2.292 . S
O261 C264 1.255 . S
Tb262 O261 2.292 . S
Tb262 O278 2.326 . S
Tb262 O280 2.500 . S
Tb262 O281 2.473 . S
Tb262 O284 2.324 . S
Eu263 O267 2.292 . S
Eu263 C268 2.852 . S
Eu263 O279 2.324 . S
Eu263 O283 2.326 . S
Eu263 O285 2.500 . S
Eu263 O286 2.473 . S
C264 O261 1.255 . S
C264 O265 1.247 . S
O265 C264 1.247 . S
C266 O278 1.242 . S
C266 O279 1.258 . S
O267 Eu263 2.292 . S
O267 C269 1.255 . S
C268 Eu263 2.852 . S
C268 C272 1.503 . S
C268 O285 1.273 . S
C268 O286 1.257 . S
C269 O267 1.255 . S
C269 O270 1.247 . S
O270 C269 1.247 . S
C271 O283 1.242 . S
C271 O284 1.258 . S
C272 C268 1.503 . S
C272 C273 1.379 . S
C272 C277 1.392 . S
C273 C272 1.379 . S
C273 C274 1.404 . S
C273 H287 0.929 . S
C274 C273 1.404 . S
C274 C275 1.389 . S
C275 C274 1.389 . S
C275 C276 1.399 . S
C275 H288 0.931 . S
C276 C275 1.399 . S
C276 C277 1.390 . S
C277 C272 1.392 . S
C277 C276 1.390 . S
C277 H289 0.929 . S
O278 Tb262 2.326 . S
O278 C266 1.242 . S
O279 Eu263 2.324 . S
O279 C266 1.258 . S
O280 Tb262 2.500 . S
O280 C282 1.273 . S
O281 Tb262 2.473 . S
O281 C282 1.257 . S
C282 O280 1.273 . S
C282 O281 1.257 . S
O283 Eu263 2.326 . S
O283 C271 1.242 . S
O284 Tb262 2.324 . S
O284 C271 1.258 . S
O285 Eu263 2.500 . S
O285 C268 1.273 . S
O286 Eu263 2.473 . S
O286 C268 1.257 . S
H287 C273 0.929 . S
H288 C275 0.931 . S
H289 C277 0.929 . S
O290 Tb291 2.292 . S
O290 C293 1.255 . S
Tb291 O290 2.292 . S
Tb291 O307 2.326 . S
Tb291 O309 2.500 . S
Tb291 O310 2.473 . S
Tb291 O313 2.324 . S
Eu292 O296 2.292 . S
Eu292 C297 2.852 . S
Eu292 O308 2.324 . S
Eu292 O312 2.326 . S
Eu292 O314 2.500 . S
Eu292 O315 2.473 . S
C293 O290 1.255 . S
C293 O294 1.247 . S
O294 C293 1.247 . S
C295 O307 1.242 . S
C295 O308 1.258 . S
O296 Eu292 2.292 . S
O296 C298 1.255 . S
C297 Eu292 2.852 . S
C297 C301 1.503 . S
C297 O314 1.273 . S
C297 O315 1.257 . S
C298 O296 1.255 . S
C298 O299 1.247 . S
O299 C298 1.247 . S
C300 O312 1.242 . S
C300 O313 1.258 . S
C301 C297 1.503 . S
C301 C302 1.379 . S
C301 C306 1.392 . S
C302 C301 1.379 . S
C302 C303 1.404 . S
C302 H316 0.929 . S
C303 C302 1.404 . S
C303 C304 1.389 . S
C304 C303 1.389 . S
C304 C305 1.399 . S
C304 H317 0.931 . S
C305 C304 1.399 . S
C305 C306 1.390 . S
C306 C301 1.392 . S
C306 C305 1.390 . S
C306 H318 0.929 . S
O307 Tb291 2.326 . S
O307 C295 1.242 . S
O308 Eu292 2.324 . S
O308 C295 1.258 . S
O309 Tb291 2.500 . S
O309 C311 1.273 . S
O310 Tb291 2.473 . S
O310 C311 1.257 . S
C311 O309 1.273 . S
C311 O310 1.257 . S
O312 Eu292 2.326 . S
O312 C300 1.242 . S
O313 Tb291 2.324 . S
O313 C300 1.258 . S
O314 Eu292 2.500 . S
O314 C297 1.273 . S
O315 Eu292 2.473 . S
O315 C297 1.257 . S
H316 C302 0.929 . S
H317 C304 0.931 . S
H318 C306 0.929 . S
O319 Tb320 2.292 . S
O319 C322 1.255 . S
Tb320 O319 2.292 . S
Tb320 O336 2.326 . S
Tb320 O338 2.500 . S
Tb320 O339 2.473 . S
Tb320 O342 2.324 . S
Eu321 O325 2.292 1_655 S
Eu321 C326 2.852 1_655 S
Eu321 O337 2.324 . S
Eu321 O341 2.326 . S
Eu321 O343 2.500 1_655 S
Eu321 O344 2.473 . S
C322 O319 1.255 . S
C322 O323 1.247 . S
O323 C322 1.247 . S
C324 O336 1.242 . S
C324 O337 1.258 . S
O325 Eu321 2.292 1_455 S
O325 C327 1.255 1_455 S
C326 Eu321 2.852 1_455 S
C326 C330 1.503 . S
C326 O343 1.273 . S
C326 O344 1.257 1_455 S
C327 O325 1.255 1_655 S
C327 O328 1.251 . S
O328 C327 1.251 . S
C329 O341 1.242 . S
C329 O342 1.258 . S
C330 C326 1.503 . S
C330 C331 1.370 1_455 S
C330 C335 1.392 . S
C331 C330 1.370 1_655 S
C331 C332 1.397 1_655 S
C331 H345 0.945 . S
C332 C331 1.397 1_455 S
C332 C333 1.389 . S
C333 C332 1.389 . S
C333 C334 1.399 . S
C333 H346 0.931 . S
C334 C333 1.399 . S
C334 C335 1.390 . S
C335 C330 1.392 . S
C335 C334 1.390 . S
C335 H347 0.929 . S
O336 Tb320 2.326 . S
O336 C324 1.242 . S
O337 Eu321 2.324 . S
O337 C324 1.258 . S
O338 Tb320 2.500 . S
O338 C340 1.273 . S
O339 Tb320 2.473 . S
O339 C340 1.257 . S
C340 O338 1.273 . S
C340 O339 1.257 . S
O341 Eu321 2.326 . S
O341 C329 1.242 . S
O342 Tb320 2.324 . S
O342 C329 1.258 . S
O343 Eu321 2.500 1_455 S
O343 C326 1.273 . S
O344 Eu321 2.473 . S
O344 C326 1.257 1_655 S
H345 C331 0.945 . S
H346 C333 0.931 . S
H347 C335 0.929 . S
O348 Tb349 2.292 . S
O348 C351 1.255 . S
Tb349 O348 2.292 . S
Tb349 O365 2.326 . S
Tb349 O367 2.500 . S
Tb349 O368 2.473 . S
Tb349 O371 2.324 . S
Eu350 O354 2.292 . S
Eu350 C355 2.852 . S
Eu350 O366 2.324 . S
Eu350 O370 2.326 . S
Eu350 O372 2.500 . S
Eu350 O373 2.473 . S
C351 O348 1.255 . S
C351 O352 1.247 . S
O352 C351 1.247 . S
C353 O365 1.242 . S
C353 O366 1.258 . S
O354 Eu350 2.292 . S
O354 C356 1.255 . S
C355 Eu350 2.852 . S
C355 C359 1.503 . S
C355 O372 1.273 . S
C355 O373 1.257 . S
C356 O354 1.255 . S
C356 O357 1.247 . S
O357 C356 1.247 . S
C358 O370 1.242 . S
C358 O371 1.258 . S
C359 C355 1.503 . S
C359 C360 1.379 . S
C359 C364 1.392 . S
C360 C359 1.379 . S
C360 C361 1.404 . S
C360 H374 0.929 . S
C361 C360 1.404 . S
C361 C362 1.389 . S
C362 C361 1.389 . S
C362 C363 1.399 . S
C362 H375 0.931 . S
C363 C362 1.399 . S
C363 C364 1.390 . S
C364 C359 1.392 . S
C364 C363 1.390 . S
C364 H376 0.929 . S
O365 Tb349 2.326 . S
O365 C353 1.242 . S
O366 Eu350 2.324 . S
O366 C353 1.258 . S
O367 Tb349 2.500 . S
O367 C369 1.273 . S
O368 Tb349 2.473 . S
O368 C369 1.257 . S
C369 O367 1.273 . S
C369 O368 1.257 . S
O370 Eu350 2.326 . S
O370 C358 1.242 . S
O371 Tb349 2.324 . S
O371 C358 1.258 . S
O372 Eu350 2.500 . S
O372 C355 1.273 . S
O373 Eu350 2.473 . S
O373 C355 1.257 . S
H374 C360 0.929 . S
H375 C362 0.931 . S
H376 C364 0.929 . S
O377 Tb378 2.292 . S
O377 C380 1.255 . S
Tb378 O377 2.292 . S
Tb378 O394 2.326 . S
Tb378 O396 2.500 . S
Tb378 O397 2.473 . S
Tb378 O400 2.324 . S
Eu379 O383 2.292 1_655 S
Eu379 C384 2.852 1_655 S
Eu379 O395 2.324 . S
Eu379 O399 2.326 . S
Eu379 O401 2.500 1_655 S
Eu379 O402 2.473 . S
C380 O377 1.255 . S
C380 O381 1.247 . S
O381 C380 1.247 . S
C382 O394 1.242 . S
C382 O395 1.258 . S
O383 Eu379 2.292 1_455 S
O383 C385 1.255 1_455 S
C384 Eu379 2.852 1_455 S
C384 C388 1.503 . S
C384 O401 1.273 . S
C384 O402 1.257 1_455 S
C385 O383 1.255 1_655 S
C385 O386 1.251 . S
O386 C385 1.251 . S
C387 O399 1.242 . S
C387 O400 1.258 . S
C388 C384 1.503 . S
C388 C389 1.370 1_455 S
C388 C393 1.392 . S
C389 C388 1.370 1_655 S
C389 C390 1.397 1_655 S
C389 H403 0.945 . S
C390 C389 1.397 1_455 S
C390 C391 1.389 . S
C391 C390 1.389 . S
C391 C392 1.399 . S
C391 H404 0.931 . S
C392 C391 1.399 . S
C392 C393 1.390 . S
C393 C388 1.392 . S
C393 C392 1.390 . S
C393 H405 0.929 . S
O394 Tb378 2.326 . S
O394 C382 1.242 . S
O395 Eu379 2.324 . S
O395 C382 1.258 . S
O396 Tb378 2.500 . S
O396 C398 1.273 . S
O397 Tb378 2.473 . S
O397 C398 1.257 . S
C398 O396 1.273 . S
C398 O397 1.257 . S
O399 Eu379 2.326 . S
O399 C387 1.242 . S
O400 Tb378 2.324 . S
O400 C387 1.258 . S
O401 Eu379 2.500 1_455 S
O401 C384 1.273 . S
O402 Eu379 2.473 . S
O402 C384 1.257 1_655 S
H403 C389 0.945 . S
H404 C391 0.931 . S
H405 C393 0.929 . S
O406 Tb407 2.292 . S
O406 C409 1.255 . S
Tb407 O406 2.292 . S
Tb407 O423 2.326 . S
Tb407 O425 2.500 . S
Tb407 O426 2.473 . S
Tb407 O429 2.324 . S
Eu408 O412 2.292 1_565 S
Eu408 C413 2.852 1_565 S
Eu408 O424 2.324 . S
Eu408 O428 2.326 . S
Eu408 O430 2.500 1_565 S
Eu408 O431 2.473 . S
C409 O406 1.255 . S
C409 O410 1.247 . S
O410 C409 1.247 . S
C411 O423 1.242 . S
C411 O424 1.258 . S
O412 Eu408 2.292 1_545 S
O412 C414 1.255 1_545 S
C413 Eu408 2.852 1_545 S
C413 C417 1.503 . S
C413 O430 1.273 . S
C413 O431 1.257 1_545 S
C414 O412 1.255 1_565 S
C414 O415 1.251 . S
O415 C414 1.251 . S
C416 O428 1.242 . S
C416 O429 1.258 . S
C417 C413 1.503 . S
C417 C418 1.370 1_545 S
C417 C422 1.392 . S
C418 C417 1.370 1_565 S
C418 C419 1.397 1_565 S
C418 H432 0.945 . S
C419 C418 1.397 1_545 S
C419 C420 1.389 . S
C420 C419 1.389 . S
C420 C421 1.399 . S
C420 H433 0.931 . S
C421 C420 1.399 . S
C421 C422 1.390 . S
C422 C417 1.392 . S
C422 C421 1.390 . S
C422 H434 0.929 . S
O423 Tb407 2.326 . S
O423 C411 1.242 . S
O424 Eu408 2.324 . S
O424 C411 1.258 . S
O425 Tb407 2.500 . S
O425 C427 1.273 . S
O426 Tb407 2.473 . S
O426 C427 1.257 . S
C427 O425 1.273 . S
C427 O426 1.257 . S
O428 Eu408 2.326 . S
O428 C416 1.242 . S
O429 Tb407 2.324 . S
O429 C416 1.258 . S
O430 Eu408 2.500 1_545 S
O430 C413 1.273 . S
O431 Eu408 2.473 . S
O431 C413 1.257 1_565 S
H432 C418 0.945 . S
H433 C420 0.931 . S
H434 C422 0.929 . S
O435 Tb436 2.292 . S
O435 C438 1.255 . S
Tb436 O435 2.292 . S
Tb436 O452 2.326 . S
Tb436 O454 2.500 . S
Tb436 O455 2.473 . S
Tb436 O458 2.324 . S
Eu437 O441 2.292 . S
Eu437 C442 2.852 . S
Eu437 O453 2.324 . S
Eu437 O457 2.326 . S
Eu437 O459 2.500 . S
Eu437 O460 2.473 . S
C438 O435 1.255 . S
C438 O439 1.247 . S
O439 C438 1.247 . S
C440 O452 1.242 . S
C440 O453 1.258 . S
O441 Eu437 2.292 . S
O441 C443 1.255 . S
C442 Eu437 2.852 . S
C442 C446 1.503 . S
C442 O459 1.273 . S
C442 O460 1.257 . S
C443 O441 1.255 . S
C443 O444 1.247 . S
O444 C443 1.247 . S
C445 O457 1.242 . S
C445 O458 1.258 . S
C446 C442 1.503 . S
C446 C447 1.379 . S
C446 C451 1.392 . S
C447 C446 1.379 . S
C447 C448 1.404 . S
C447 H461 0.929 . S
C448 C447 1.404 . S
C448 C449 1.389 . S
C449 C448 1.389 . S
C449 C450 1.399 . S
C449 H462 0.931 . S
C450 C449 1.399 . S
C450 C451 1.390 . S
C451 C446 1.392 . S
C451 C450 1.390 . S
C451 H463 0.929 . S
O452 Tb436 2.326 . S
O452 C440 1.242 . S
O453 Eu437 2.324 . S
O453 C440 1.258 . S
O454 Tb436 2.500 . S
O454 C456 1.273 . S
O455 Tb436 2.473 . S
O455 C456 1.257 . S
C456 O454 1.273 . S
C456 O455 1.257 . S
O457 Eu437 2.326 . S
O457 C445 1.242 . S
O458 Tb436 2.324 . S
O458 C445 1.258 . S
O459 Eu437 2.500 . S
O459 C442 1.273 . S
O460 Eu437 2.473 . S
O460 C442 1.257 . S
H461 C447 0.929 . S
H462 C449 0.931 . S
H463 C451 0.929 . S
C464 C465 1.387 . S
C464 H468 0.950 . S
C464 C473 1.390 . S
C465 C464 1.387 . S
C465 C467 1.387 . S
H466 C473 0.950 . S
C467 C465 1.387 . S
C467 C469 1.390 . S
C467 H471 0.950 . S
H468 C464 0.950 . S
C469 C467 1.390 . S
C469 C470 1.387 . S
C469 H472 0.950 . S
C470 C469 1.387 . S
C470 C473 1.387 . S
H471 C467 0.950 . S
H472 C469 0.950 . S
C473 C464 1.390 . S
C473 H466 0.950 . S
C473 C470 1.387 . S
C474 C475 1.387 . S
C474 H478 0.950 . S
C474 C483 1.390 . S
C475 C474 1.387 . S
C475 C477 1.387 . S
H476 C483 0.950 . S
C477 C475 1.387 . S
C477 C479 1.390 . S
C477 H481 0.950 . S
H478 C474 0.950 . S
C479 C477 1.390 . S
C479 C480 1.387 . S
C479 H482 0.950 . S
C480 C479 1.387 . S
C480 C483 1.387 . S
H481 C477 0.950 . S
H482 C479 0.950 . S
C483 C474 1.390 . S
C483 H476 0.950 . S
C483 C480 1.387 . S
C484 C485 1.387 . S
C484 H488 0.950 . S
C484 C493 1.390 . S
C485 C484 1.387 . S
C485 C487 1.387 . S
H486 C493 0.950 . S
C487 C485 1.387 . S
C487 C489 1.390 . S
C487 H491 0.950 . S
H488 C484 0.950 . S
C489 C487 1.390 . S
C489 C490 1.387 . S
C489 H492 0.950 . S
C490 C489 1.387 . S
C490 C493 1.387 . S
H491 C487 0.950 . S
H492 C489 0.950 . S
C493 C484 1.390 . S
C493 H486 0.950 . S
C493 C490 1.387 . S
C494 C495 1.387 . S
C494 H498 0.950 . S
C494 C503 1.390 . S
C495 C494 1.387 . S
C495 C497 1.387 . S
H496 C503 0.950 . S
C497 C495 1.387 . S
C497 C499 1.390 . S
C497 H501 0.950 . S
H498 C494 0.950 . S
C499 C497 1.390 . S
C499 C500 1.387 . S
C499 H502 0.950 . S
C500 C499 1.387 . S
C500 C503 1.387 . S
H501 C497 0.950 . S
H502 C499 0.950 . S
C503 C494 1.390 . S
C503 H496 0.950 . S
C503 C500 1.387 . S
C504 C505 1.387 . S
C504 H508 0.950 . S
C504 C513 1.390 . S
C505 C504 1.387 . S
C505 C507 1.387 . S
H506 C513 0.950 . S
C507 C505 1.387 . S
C507 C509 1.390 . S
C507 H511 0.950 . S
H508 C504 0.950 . S
C509 C507 1.390 . S
C509 C510 1.387 . S
C509 H512 0.950 . S
C510 C509 1.387 . S
C510 C513 1.387 . S
H511 C507 0.950 . S
H512 C509 0.950 . S
C513 C504 1.390 . S
C513 H506 0.950 . S
C513 C510 1.387 . S
C514 C515 1.387 . S
C514 H518 0.950 . S
C514 C523 1.390 . S
C515 C514 1.387 . S
C515 C517 1.387 . S
H516 C523 0.950 . S
C517 C515 1.387 . S
C517 C519 1.390 . S
C517 H521 0.950 . S
H518 C514 0.950 . S
C519 C517 1.390 . S
C519 C520 1.387 . S
C519 H522 0.950 . S
C520 C519 1.387 . S
C520 C523 1.387 . S
H521 C517 0.950 . S
H522 C519 0.950 . S
C523 C514 1.390 . S
C523 H516 0.950 . S
C523 C520 1.387 . S
C524 C525 1.387 . S
C524 H528 0.950 . S
C524 C533 1.390 . S
C525 C524 1.387 . S
C525 C527 1.387 . S
H526 C533 0.950 . S
C527 C525 1.387 . S
C527 C529 1.390 . S
C527 H531 0.950 . S
H528 C524 0.950 . S
C529 C527 1.390 . S
C529 C530 1.387 . S
C529 H532 0.950 . S
C530 C529 1.387 . S
C530 C533 1.387 . S
H531 C527 0.950 . S
H532 C529 0.950 . S
C533 C524 1.390 . S
C533 H526 0.950 . S
C533 C530 1.387 . S
C534 C535 1.387 . S
C534 H538 0.950 . S
C534 C543 1.390 . S
C535 C534 1.387 . S
C535 C537 1.387 . S
H536 C543 0.950 . S
C537 C535 1.387 . S
C537 C539 1.390 . S
C537 H541 0.950 . S
H538 C534 0.950 . S
C539 C537 1.390 . S
C539 C540 1.387 . S
C539 H542 0.950 . S
C540 C539 1.387 . S
C540 C543 1.387 . S
H541 C537 0.950 . S
H542 C539 0.950 . S
C543 C534 1.390 . S
C543 H536 0.950 . S
C543 C540 1.387 . S
C544 C545 1.387 . S
C544 H548 0.950 . S
C544 C553 1.390 . S
C545 C544 1.387 . S
C545 C547 1.387 . S
H546 C553 0.950 . S
C547 C545 1.387 . S
C547 C549 1.390 1_554 S
C547 H551 0.950 . S
H548 C544 0.950 . S
C549 C547 1.390 1_556 S
C549 C550 1.387 . S
C549 H552 0.950 . S
C550 C549 1.387 . S
C550 C553 1.387 1_556 S
H551 C547 0.950 . S
H552 C549 0.950 . S
C553 C544 1.390 . S
C553 H546 0.950 . S
C553 C550 1.387 1_554 S
C554 C555 1.387 1_554 S
C554 H558 0.950 . S
C554 C563 1.390 . S
C555 C554 1.387 1_556 S
C555 C557 1.387 . S
H556 C563 0.950 . S
C557 C555 1.387 . S
C557 C559 1.390 . S
C557 H561 0.950 . S
H558 C554 0.950 . S
C559 C557 1.390 . S
C559 C560 1.387 1_556 S
C559 H562 0.950 . S
C560 C559 1.387 1_554 S
C560 C563 1.387 . S
H561 C557 0.950 . S
H562 C559 0.950 . S
C563 C554 1.390 . S
C563 H556 0.950 . S
C563 C560 1.387 . S
C564 C565 1.387 . S
C564 H568 0.950 . S
C564 C573 1.390 . S
C565 C564 1.387 . S
C565 C567 1.387 . S
H566 C573 0.950 . S
C567 C565 1.387 . S
C567 C569 1.390 1_554 S
C567 H571 0.950 . S
H568 C564 0.950 . S
C569 C567 1.390 1_556 S
C569 C570 1.387 . S
C569 H572 0.950 . S
C570 C569 1.387 . S
C570 C573 1.387 1_556 S
H571 C567 0.950 . S
H572 C569 0.950 . S
C573 C564 1.390 . S
C573 H566 0.950 . S
C573 C570 1.387 1_554 S
C574 C575 1.387 . S
C574 H578 0.950 . S
C574 C583 1.390 1_556 S
C575 C574 1.387 . S
C575 C577 1.387 . S
H576 C583 0.950 . S
C577 C575 1.387 . S
C577 C579 1.390 1_556 S
C577 H581 0.950 . S
H578 C574 0.950 . S
C579 C577 1.390 1_554 S
C579 C580 1.387 . S
C579 H582 0.950 . S
C580 C579 1.387 . S
C580 C583 1.387 . S
H581 C577 0.950 . S
H582 C579 0.950 . S
C583 C574 1.390 1_554 S
C583 H576 0.950 . S
C583 C580 1.387 . S
C584 C585 1.387 . S
C584 H588 0.950 . S
C584 C593 1.390 . S
C585 C584 1.387 . S
C585 C587 1.387 . S
H586 C593 0.950 . S
C587 C585 1.387 . S
C587 C589 1.390 . S
C587 H591 0.950 . S
H588 C584 0.950 . S
C589 C587 1.390 . S
C589 C590 1.387 . S
C589 H592 0.950 . S
C590 C589 1.387 . S
C590 C593 1.387 . S
H591 C587 0.950 . S
H592 C589 0.950 . S
C593 C584 1.390 . S
C593 H586 0.950 . S
C593 C590 1.387 . S
C594 C595 1.387 . S
C594 H598 0.950 . S
C594 C603 1.390 . S
C595 C594 1.387 . S
C595 C597 1.387 . S
H596 C603 0.950 . S
C597 C595 1.387 . S
C597 C599 1.390 . S
C597 H601 0.950 . S
H598 C594 0.950 . S
C599 C597 1.390 . S
C599 C600 1.387 . S
C599 H602 0.950 . S
C600 C599 1.387 . S
C600 C603 1.387 . S
H601 C597 0.950 . S
H602 C599 0.950 . S
C603 C594 1.390 . S
C603 H596 0.950 . S
C603 C600 1.387 . S
C604 C605 1.387 . S
C604 H608 0.950 . S
C604 C613 1.390 . S
C605 C604 1.387 . S
C605 C607 1.387 . S
H606 C613 0.950 . S
C607 C605 1.387 . S
C607 C609 1.390 . S
C607 H611 0.950 . S
H608 C604 0.950 . S
C609 C607 1.390 . S
C609 C610 1.387 . S
C609 H612 0.950 . S
C610 C609 1.387 . S
C610 C613 1.387 . S
H611 C607 0.950 . S
H612 C609 0.950 . S
C613 C604 1.390 . S
C613 H606 0.950 . S
C613 C610 1.387 . S
C614 C615 1.387 . S
C614 H618 0.950 . S
C614 C623 1.390 . S
C615 C614 1.387 . S
C615 C617 1.387 . S
H616 C623 0.950 . S
C617 C615 1.387 . S
C617 C619 1.390 . S
C617 H621 0.950 . S
H618 C614 0.950 . S
C619 C617 1.390 . S
C619 C620 1.387 . S
C619 H622 0.950 . S
C620 C619 1.387 . S
C620 C623 1.387 . S
H621 C617 0.950 . S
H622 C619 0.950 . S
C623 C614 1.390 . S
C623 H616 0.950 . S
C623 C620 1.387 . S
C624 C625 1.387 . S
C624 H628 0.950 . S
C624 C633 1.390 1_556 S
C625 C624 1.387 . S
C625 C627 1.387 . S
H626 C633 0.950 . S
C627 C625 1.387 . S
C627 C629 1.390 1_556 S
C627 H631 0.950 . S
H628 C624 0.950 . S
C629 C627 1.390 1_554 S
C629 C630 1.387 . S
C629 H632 0.950 . S
C630 C629 1.387 . S
C630 C633 1.387 . S
H631 C627 0.950 . S
H632 C629 0.950 . S
C633 C624 1.390 1_554 S
C633 H626 0.950 . S
C633 C630 1.387 . S
C634 C635 1.387 . S
C634 H638 0.950 . S
C634 C643 1.390 1_554 S
C635 C634 1.387 . S
C635 C637 1.387 . S
H636 C643 0.950 . S
C637 C635 1.387 . S
C637 C639 1.390 1_554 S
C637 H641 0.950 . S
H638 C634 0.950 . S
C639 C637 1.390 1_556 S
C639 C640 1.387 . S
C639 H642 0.950 . S
C640 C639 1.387 . S
C640 C643 1.387 . S
H641 C637 0.950 . S
H642 C639 0.950 . S
C643 C634 1.390 1_556 S
C643 H636 0.950 . S
C643 C640 1.387 . S
C644 C645 1.387 . S
C644 H648 0.950 . S
C644 C653 1.390 1_556 S
C645 C644 1.387 . S
C645 C647 1.387 . S
H646 C653 0.950 . S
C647 C645 1.387 . S
C647 C649 1.390 1_556 S
C647 H651 0.950 . S
H648 C644 0.950 . S
C649 C647 1.390 1_554 S
C649 C650 1.387 . S
C649 H652 0.950 . S
C650 C649 1.387 . S
C650 C653 1.387 . S
H651 C647 0.950 . S
H652 C649 0.950 . S
C653 C644 1.390 1_554 S
C653 H646 0.950 . S
C653 C650 1.387 . S
C654 C655 1.387 1_556 S
C654 H658 0.950 . S
C654 C663 1.390 . S
C655 C654 1.387 1_554 S
C655 C657 1.387 . S
H656 C663 0.950 . S
C657 C655 1.387 . S
C657 C659 1.390 . S
C657 H661 0.950 . S
H658 C654 0.950 . S
C659 C657 1.390 . S
C659 C660 1.387 1_554 S
C659 H662 0.950 . S
C660 C659 1.387 1_556 S
C660 C663 1.387 . S
H661 C657 0.950 . S
H662 C659 0.950 . S
C663 C654 1.390 . S
C663 H656 0.950 . S
C663 C660 1.387 . S
C664 C665 1.387 . S
C664 H668 0.950 . S
C664 C673 1.390 . S
C665 C664 1.387 . S
C665 C667 1.387 . S
H666 C673 0.950 . S
C667 C665 1.387 . S
C667 C669 1.390 . S
C667 H671 0.950 . S
H668 C664 0.950 . S
C669 C667 1.390 . S
C669 C670 1.387 . S
C669 H672 0.950 . S
C670 C669 1.387 . S
C670 C673 1.387 . S
H671 C667 0.950 . S
H672 C669 0.950 . S
C673 C664 1.390 . S
C673 H666 0.950 . S
C673 C670 1.387 . S
C674 C675 1.387 . S
C674 H678 0.950 . S
C674 C683 1.390 . S
C675 C674 1.387 . S
C675 C677 1.387 . S
H676 C683 0.950 . S
C677 C675 1.387 . S
C677 C679 1.390 . S
C677 H681 0.950 . S
H678 C674 0.950 . S
C679 C677 1.390 . S
C679 C680 1.387 . S
C679 H682 0.950 . S
C680 C679 1.387 . S
C680 C683 1.387 . S
H681 C677 0.950 . S
H682 C679 0.950 . S
C683 C674 1.390 . S
C683 H676 0.950 . S
C683 C680 1.387 . S
C684 C685 1.387 . S
C684 H688 0.950 . S
C684 C693 1.390 . S
C685 C684 1.387 . S
C685 C687 1.387 . S
H686 C693 0.950 . S
C687 C685 1.387 . S
C687 C689 1.390 . S
C687 H691 0.950 . S
H688 C684 0.950 . S
C689 C687 1.390 . S
C689 C690 1.387 . S
C689 H692 0.950 . S
C690 C689 1.387 . S
C690 C693 1.387 . S
H691 C687 0.950 . S
H692 C689 0.950 . S
C693 C684 1.390 . S
C693 H686 0.950 . S
C693 C690 1.387 . S
C694 C695 1.387 . S
C694 H698 0.950 . S
C694 C703 1.390 . S
C695 C694 1.387 . S
C695 C697 1.387 . S
H696 C703 0.950 . S
C697 C695 1.387 . S
C697 C699 1.390 . S
C697 H701 0.950 . S
H698 C694 0.950 . S
C699 C697 1.390 . S
C699 C700 1.387 . S
C699 H702 0.950 . S
C700 C699 1.387 . S
C700 C703 1.387 . S
H701 C697 0.950 . S
H702 C699 0.950 . S
C703 C694 1.390 . S
C703 H696 0.950 . S
C703 C700 1.387 . S
C704 C705 1.387 . S
C704 H708 0.976 . S
C704 C713 1.390 . S
C705 C704 1.387 . S
C705 C707 1.387 . S
H706 C713 0.976 . S
C707 C705 1.387 . S
C707 C709 1.390 . S
C707 H711 0.950 . S
H708 C704 0.976 . S
C709 C707 1.390 . S
C709 C710 1.387 . S
C709 H712 0.950 . S
C710 C709 1.387 . S
C710 C713 1.387 . S
H711 C707 0.950 . S
H712 C709 0.950 . S
C713 C704 1.390 . S
C713 H706 0.976 . S
C713 C710 1.387 . S
C714 C715 1.387 . S
C714 H718 0.950 . S
C714 C723 1.390 . S
C715 C714 1.387 . S
C715 C717 1.387 . S
H716 C723 0.950 . S
C717 C715 1.387 . S
C717 C719 1.390 . S
C717 H721 0.950 . S
H718 C714 0.950 . S
C719 C717 1.390 . S
C719 C720 1.387 . S
C719 H722 0.950 . S
C720 C719 1.387 . S
C720 C723 1.387 . S
H721 C717 0.950 . S
H722 C719 0.950 . S
C723 C714 1.390 . S
C723 H716 0.950 . S
C723 C720 1.387 . S
C724 C725 1.387 . S
C724 H728 0.950 . S
C724 C733 1.390 . S
C725 C724 1.387 . S
C725 C727 1.387 . S
H726 C733 0.950 . S
C727 C725 1.387 . S
C727 C729 1.390 . S
C727 H731 0.950 . S
H728 C724 0.950 . S
C729 C727 1.390 . S
C729 C730 1.387 . S
C729 H732 0.950 . S
C730 C729 1.387 . S
C730 C733 1.387 . S
H731 C727 0.950 . S
H732 C729 0.950 . S
C733 C724 1.390 . S
C733 H726 0.950 . S
C733 C730 1.387 . S
C734 C735 1.387 . S
C734 H738 0.976 . S
C734 C743 1.390 . S
C735 C734 1.387 . S
C735 C737 1.387 . S
H736 C743 0.976 . S
C737 C735 1.387 . S
C737 C739 1.390 . S
C737 H741 0.950 . S
H738 C734 0.976 . S
C739 C737 1.390 . S
C739 C740 1.387 . S
C739 H742 0.950 . S
C740 C739 1.387 . S
C740 C743 1.387 . S
H741 C737 0.950 . S
H742 C739 0.950 . S
C743 C734 1.390 . S
C743 H736 0.976 . S
C743 C740 1.387 . S
C744 C745 1.387 . S
C744 H748 0.950 . S
C744 C753 1.390 . S
C745 C744 1.387 . S
C745 C747 1.387 . S
H746 C753 0.950 . S
C747 C745 1.387 . S
C747 C749 1.390 . S
C747 H751 0.950 . S
H748 C744 0.950 . S
C749 C747 1.390 . S
C749 C750 1.387 . S
C749 H752 0.950 . S
C750 C749 1.387 . S
C750 C753 1.387 . S
H751 C747 0.950 . S
H752 C749 0.950 . S
C753 C744 1.390 . S
C753 H746 0.950 . S
C753 C750 1.387 . S
C754 C755 1.387 . S
C754 H758 0.950 . S
C754 C763 1.390 . S
C755 C754 1.387 . S
C755 C757 1.387 . S
H756 C763 0.950 . S
C757 C755 1.387 . S
C757 C759 1.390 . S
C757 H761 0.950 . S
H758 C754 0.950 . S
C759 C757 1.390 . S
C759 C760 1.387 . S
C759 H762 0.950 . S
C760 C759 1.387 . S
C760 C763 1.387 . S
H761 C757 0.950 . S
H762 C759 0.950 . S
C763 C754 1.390 . S
C763 H756 0.950 . S
C763 C760 1.387 . S
C764 C765 1.387 . S
C764 H768 0.950 . S
C764 C773 1.390 . S
C765 C764 1.387 . S
C765 C767 1.387 . S
H766 C773 0.950 . S
C767 C765 1.387 . S
C767 C769 1.390 . S
C767 H771 0.950 . S
H768 C764 0.950 . S
C769 C767 1.390 . S
C769 C770 1.387 . S
C769 H772 0.950 . S
C770 C769 1.387 . S
C770 C773 1.387 . S
H771 C767 0.950 . S
H772 C769 0.950 . S
C773 C764 1.390 . S
C773 H766 0.950 . S
C773 C770 1.387 . S
C774 C775 1.387 . S
C774 H778 0.976 . S
C774 C783 1.390 . S
C775 C774 1.387 . S
C775 C777 1.387 . S
H776 C783 0.976 . S
C777 C775 1.387 . S
C777 C779 1.390 . S
C777 H781 0.950 . S
H778 C774 0.976 . S
C779 C777 1.390 . S
C779 C780 1.387 . S
C779 H782 0.950 . S
C780 C779 1.387 . S
C780 C783 1.387 . S
H781 C777 0.950 . S
H782 C779 0.950 . S
C783 C774 1.390 . S
C783 H776 0.976 . S
C783 C780 1.387 . S
C784 C785 1.387 1_565 S
C784 H788 0.950 . S
C784 C793 1.390 1_556 S
C785 C784 1.387 1_545 S
C785 C787 1.387 . S
H786 C793 0.950 . S
C787 C785 1.387 . S
C787 C789 1.390 1_556 S
C787 H791 0.950 . S
H788 C784 0.950 . S
C789 C787 1.390 1_554 S
C789 C790 1.387 1_545 S
C789 H792 0.950 . S
C790 C789 1.387 1_565 S
C790 C793 1.387 . S
H791 C787 0.950 . S
H792 C789 0.950 . S
C793 C784 1.390 1_554 S
C793 H786 0.950 . S
C793 C790 1.387 . S
C794 C795 1.387 . S
C794 H798 0.950 . S
C794 C803 1.390 1_556 S
C795 C794 1.387 . S
C795 C797 1.387 . S
H796 C803 0.950 . S
C797 C795 1.387 . S
C797 C799 1.390 1_556 S
C797 H801 0.950 . S
H798 C794 0.950 . S
C799 C797 1.390 1_554 S
C799 C800 1.387 . S
C799 H802 0.950 . S
C800 C799 1.387 . S
C800 C803 1.387 . S
H801 C797 0.950 . S
H802 C799 0.950 . S
C803 C794 1.390 1_554 S
C803 H796 0.950 . S
C803 C800 1.387 . S
C804 C805 1.387 1_554 S
C804 H808 0.950 . S
C804 C813 1.390 . S
C805 C804 1.387 1_556 S
C805 C807 1.387 1_455 S
H806 C813 0.950 . S
C807 C805 1.387 1_655 S
C807 C809 1.390 . S
C807 H811 0.950 . S
H808 C804 0.950 . S
C809 C807 1.390 . S
C809 C810 1.387 1_556 S
C809 H812 0.950 . S
C810 C809 1.387 1_554 S
C810 C813 1.387 1_655 S
H811 C807 0.950 . S
H812 C809 0.950 . S
C813 C804 1.390 . S
C813 H806 0.950 . S
C813 C810 1.387 1_455 S
C814 C815 1.387 . S
C814 H818 0.950 . S
C814 C823 1.390 1_546 S
C815 C814 1.387 . S
C815 C817 1.387 1_455 S
H816 C823 0.950 . S
C817 C815 1.387 1_655 S
C817 C819 1.390 1_546 S
C817 H821 0.950 . S
H818 C814 0.950 . S
C819 C817 1.390 1_564 S
C819 C820 1.387 . S
C819 H822 0.950 . S
C820 C819 1.387 . S
C820 C823 1.387 1_655 S
H821 C817 0.950 . S
H822 C819 0.950 . S
C823 C814 1.390 1_564 S
C823 H816 0.950 . S
C823 C820 1.387 1_455 S
C824 C825 1.387 . S
C824 H828 0.950 . S
C824 C833 1.390 . S
C825 C824 1.387 . S
C825 C827 1.387 . S
H826 C833 0.950 . S
C827 C825 1.387 . S
C827 C829 1.390 . S
C827 H831 0.950 . S
H828 C824 0.950 . S
C829 C827 1.390 . S
C829 C830 1.387 . S
C829 H832 0.950 . S
C830 C829 1.387 . S
C830 C833 1.387 . S
H831 C827 0.950 . S
H832 C829 0.950 . S
C833 C824 1.390 . S
C833 H826 0.950 . S
C833 C830 1.387 . S
C834 C835 1.387 1_455 S
C834 H838 0.950 . S
C834 C843 1.390 . S
C835 C834 1.387 1_655 S
C835 C837 1.387 . S
H836 C843 0.950 . S
C837 C835 1.387 . S
C837 C839 1.390 . S
C837 H841 0.950 . S
H838 C834 0.950 . S
C839 C837 1.390 . S
C839 C840 1.387 1_655 S
C839 H842 0.950 . S
C840 C839 1.387 1_455 S
C840 C843 1.387 . S
H841 C837 0.950 . S
H842 C839 0.950 . S
C843 C834 1.390 . S
C843 H836 0.950 . S
C843 C840 1.387 . S
C844 C845 1.387 1_545 S
C844 H848 0.950 . S
C844 C853 1.390 1_655 S
C845 C844 1.387 1_565 S
C845 C847 1.387 . S
H846 C853 0.950 . S
C847 C845 1.387 . S
C847 C849 1.390 1_655 S
C847 H851 0.950 . S
H848 C844 0.950 . S
C849 C847 1.390 1_455 S
C849 C850 1.387 1_565 S
C849 H852 0.950 . S
C850 C849 1.387 1_545 S
C850 C853 1.387 . S
H851 C847 0.950 . S
H852 C849 0.950 . S
C853 C844 1.390 1_455 S
C853 H846 0.950 . S
C853 C850 1.387 . S
C854 C855 1.387 . S
C854 H858 0.950 . S
C854 C863 1.390 1_565 S
C855 C854 1.387 . S
C855 C857 1.387 . S
H856 C863 0.950 . S
C857 C855 1.387 . S
C857 C859 1.390 1_565 S
C857 H861 0.950 . S
H858 C854 0.950 . S
C859 C857 1.390 1_545 S
C859 C860 1.387 . S
C859 H862 0.950 . S
C860 C859 1.387 . S
C860 C863 1.387 . S
H861 C857 0.950 . S
H862 C859 0.950 . S
C863 C854 1.390 1_545 S
C863 H856 0.950 . S
C863 C860 1.387 . S
C864 C865 1.387 . S
C864 H868 0.950 . S
C864 C873 1.390 . S
C865 C864 1.387 . S
C865 C867 1.387 . S
H866 C873 0.950 . S
C867 C865 1.387 . S
C867 C869 1.390 . S
C867 H871 0.950 . S
H868 C864 0.950 . S
C869 C867 1.390 . S
C869 C870 1.387 . S
C869 H872 0.950 . S
C870 C869 1.387 . S
C870 C873 1.387 . S
H871 C867 0.950 . S
H872 C869 0.950 . S
C873 C864 1.390 . S
C873 H866 0.950 . S
C873 C870 1.387 . S
C874 C875 1.387 . S
C874 H878 0.950 . S
C874 C883 1.390 . S
C875 C874 1.387 . S
C875 C877 1.387 . S
H876 C883 0.950 . S
C877 C875 1.387 . S
C877 C879 1.390 . S
C877 H881 0.950 . S
H878 C874 0.950 . S
C879 C877 1.390 . S
C879 C880 1.387 . S
C879 H882 0.950 . S
C880 C879 1.387 . S
C880 C883 1.387 . S
H881 C877 0.950 . S
H882 C879 0.950 . S
C883 C874 1.390 . S
C883 H876 0.950 . S
C883 C880 1.387 . S
C884 C885 1.387 . S
C884 H888 0.950 . S
C884 C893 1.390 . S
C885 C884 1.387 . S
C885 C887 1.387 . S
H886 C893 0.950 . S
C887 C885 1.387 . S
C887 C889 1.390 . S
C887 H891 0.950 . S
H888 C884 0.950 . S
C889 C887 1.390 . S
C889 C890 1.387 . S
C889 H892 0.950 . S
C890 C889 1.387 . S
C890 C893 1.387 . S
H891 C887 0.950 . S
H892 C889 0.950 . S
C893 C884 1.390 . S
C893 H886 0.950 . S
C893 C890 1.387 . S
C894 C895 1.387 . S
C894 H898 0.950 . S
C894 C903 1.390 . S
C895 C894 1.387 . S
C895 C897 1.387 . S
H896 C903 0.950 . S
C897 C895 1.387 . S
C897 C899 1.390 . S
C897 H901 0.923 1_565 S
H898 C894 0.950 . S
C899 C897 1.390 . S
C899 C900 1.387 . S
C899 H902 0.950 . S
C900 C899 1.387 . S
C900 C903 1.387 . S
H901 C897 0.923 1_545 S
H902 C899 0.950 . S
C903 C894 1.390 . S
C903 H896 0.950 . S
C903 C900 1.387 . S
C904 C905 1.387 . S
C904 H908 0.950 . S
C904 C913 1.390 . S
C905 C904 1.387 . S
C905 C907 1.387 . S
H906 C913 0.950 . S
C907 C905 1.387 . S
C907 C909 1.390 . S
C907 H911 0.950 . S
H908 C904 0.950 . S
C909 C907 1.390 . S
C909 C910 1.387 . S
C909 H912 0.950 . S
C910 C909 1.387 . S
C910 C913 1.387 . S
H911 C907 0.950 . S
H912 C909 0.950 . S
C913 C904 1.390 . S
C913 H906 0.950 . S
C913 C910 1.387 . S
C914 C915 1.387 . S
C914 H918 0.950 . S
C914 C923 1.390 . S
C915 C914 1.387 . S
C915 C917 1.387 . S
H916 C923 0.950 . S
C917 C915 1.387 . S
C917 C919 1.390 . S
C917 H921 0.950 . S
H918 C914 0.950 . S
C919 C917 1.390 . S
C919 C920 1.387 . S
C919 H922 0.950 . S
C920 C919 1.387 . S
C920 C923 1.387 . S
H921 C917 0.950 . S
H922 C919 0.950 . S
C923 C914 1.390 . S
C923 H916 0.950 . S
C923 C920 1.387 . S
C924 C925 1.387 . S
C924 H928 0.950 . S
C924 C933 1.390 . S
C925 C924 1.387 . S
C925 C927 1.387 . S
H926 C933 0.950 1_455 S
C927 C925 1.387 . S
C927 C929 1.390 . S
C927 H931 0.950 . S
H928 C924 0.950 . S
C929 C927 1.390 . S
C929 C930 1.387 . S
C929 H932 0.950 . S
C930 C929 1.387 . S
C930 C933 1.387 . S
H931 C927 0.950 . S
H932 C929 0.950 . S
C933 C924 1.390 . S
C933 H926 0.950 1_655 S
C933 C930 1.387 . S
C934 C935 1.387 . S
C934 H938 0.950 . S
C934 C943 1.390 . S
C935 C934 1.387 . S
C935 C937 1.387 . S
H936 C943 0.950 . S
C937 C935 1.387 . S
C937 C939 1.390 . S
C937 H941 0.950 . S
H938 C934 0.950 . S
C939 C937 1.390 . S
C939 C940 1.387 . S
C939 H942 0.923 1_565 S
C940 C939 1.387 . S
C940 C943 1.387 . S
H941 C937 0.950 . S
H942 C939 0.923 1_545 S
C943 C934 1.390 . S
C943 H936 0.950 . S
C943 C940 1.387 . S
C944 C945 1.387 . S
C944 H948 0.950 . S
C944 C953 1.390 . S
C945 C944 1.387 . S
C945 C947 1.387 . S
H946 C953 0.950 . S
C947 C945 1.387 . S
C947 C949 1.390 . S
C947 H951 0.950 . S
H948 C944 0.950 . S
C949 C947 1.390 . S
C949 C950 1.387 . S
C949 H952 0.950 . S
C950 C949 1.387 . S
C950 C953 1.387 . S
H951 C947 0.950 . S
H952 C949 0.950 . S
C953 C944 1.390 . S
C953 H946 0.950 . S
C953 C950 1.387 . S
C954 C955 1.387 . S
C954 H958 0.950 . S
C954 C963 1.390 . S
C955 C954 1.387 . S
C955 C957 1.387 . S
H956 C963 0.950 . S
C957 C955 1.387 . S
C957 C959 1.390 . S
C957 H961 0.950 . S
H958 C954 0.950 . S
C959 C957 1.390 . S
C959 C960 1.387 . S
C959 H962 0.950 . S
C960 C959 1.387 . S
C960 C963 1.387 . S
H961 C957 0.950 . S
H962 C959 0.950 . S
C963 C954 1.390 . S
C963 H956 0.950 . S
C963 C960 1.387 . S
C964 C965 1.387 . S
C964 H968 0.950 . S
C964 C973 1.390 . S
C965 C964 1.387 . S
C965 C967 1.387 . S
H966 C973 0.950 . S
C967 C965 1.387 . S
C967 C969 1.390 . S
C967 H971 0.950 . S
H968 C964 0.950 . S
C969 C967 1.390 . S
C969 C970 1.387 . S
C969 H972 0.950 1_455 S
C970 C969 1.387 . S
C970 C973 1.387 . S
H971 C967 0.950 . S
H972 C969 0.950 1_655 S
C973 C964 1.390 . S
C973 H966 0.950 . S
C973 C970 1.387 . S
C974 C975 1.387 . S
C974 H978 0.923 1_545 S
C974 C983 1.390 . S
C975 C974 1.387 . S
C975 C977 1.387 . S
H976 C983 0.950 . S
C977 C975 1.387 . S
C977 C979 1.390 . S
C977 H981 0.950 . S
H978 C974 0.923 1_565 S
C979 C977 1.390 . S
C979 C980 1.387 . S
C979 H982 0.950 . S
C980 C979 1.387 . S
C980 C983 1.387 . S
H981 C977 0.950 . S
H982 C979 0.950 . S
C983 C974 1.390 . S
C983 H976 0.950 . S
C983 C980 1.387 . S
C984 C985 1.387 . S
C984 H988 0.950 . S
C984 C993 1.390 . S
C985 C984 1.387 . S
C985 C987 1.387 . S
H986 C993 0.950 . S
C987 C985 1.387 . S
C987 C989 1.390 . S
C987 H991 0.950 . S
H988 C984 0.950 . S
C989 C987 1.390 . S
C989 C990 1.387 . S
C989 H992 0.950 . S
C990 C989 1.387 . S
C990 C993 1.387 . S
H991 C987 0.950 . S
H992 C989 0.950 . S
C993 C984 1.390 . S
C993 H986 0.950 . S
C993 C990 1.387 . S
C994 C995 1.387 . S
C994 H998 0.950 . S
C994 C1003 1.390 . S
C995 C994 1.387 . S
C995 C997 1.387 . S
H996 C1003 0.950 . S
C997 C995 1.387 . S
C997 C999 1.390 . S
C997 H1001 0.950 . S
H998 C994 0.950 . S
C999 C997 1.390 . S
C999 C1000 1.387 . S
C999 H1002 0.950 . S
C1000 C999 1.387 . S
C1000 C1003 1.387 . S
H1001 C997 0.950 . S
H1002 C999 0.950 . S
C1003 C994 1.390 . S
C1003 H996 0.950 . S
C1003 C1000 1.387 . S
C1004 C1005 1.387 . S
C1004 H1008 0.950 . S
C1004 C1013 1.390 . S
C1005 C1004 1.387 . S
C1005 C1007 1.387 . S
H1006 C1013 0.950 . S
C1007 C1005 1.387 . S
C1007 C1009 1.390 . S
C1007 H1011 0.950 1_455 S
H1008 C1004 0.950 . S
C1009 C1007 1.390 . S
C1009 C1010 1.387 . S
C1009 H1012 0.950 . S
C1010 C1009 1.387 . S
C1010 C1013 1.387 . S
H1011 C1007 0.950 1_655 S
H1012 C1009 0.950 . S
C1013 C1004 1.390 . S
C1013 H1006 0.950 . S
C1013 C1010 1.387 . S
C1014 C1015 1.387 . S
C1014 H1018 0.923 1_545 S
C1014 C1023 1.390 . S
C1015 C1014 1.387 . S
C1015 C1017 1.387 . S
H1016 C1023 0.950 . S
C1017 C1015 1.387 . S
C1017 C1019 1.390 . S
C1017 H1021 0.950 . S
H1018 C1014 0.923 1_565 S
C1019 C1017 1.390 . S
C1019 C1020 1.387 . S
C1019 H1022 0.950 . S
C1020 C1019 1.387 . S
C1020 C1023 1.387 . S
H1021 C1017 0.950 . S
H1022 C1019 0.950 . S
C1023 C1014 1.390 . S
C1023 H1016 0.950 . S
C1023 C1020 1.387 . S
C465 C79 1.348 . S
C470 C21 1.348 . S
C475 C108 1.354 . S
C480 C50 1.354 . S
C485 C137 1.348 . S
C490 C195 1.348 . S
C495 C166 1.351 . S
C500 C224 1.351 . S
C505 C253 1.354 . S
C510 C311 1.354 . S
C515 C282 1.354 . S
C520 C340 1.354 . S
C525 C427 1.354 . S
C530 C369 1.354 . S
C535 C456 1.348 . S
C540 C398 1.348 . S
C545 C3 1.311 . S
C550 C266 1.184 . S
C555 C295 1.187 . S
C560 C32 1.311 . S
C565 C61 1.311 . S
C570 C324 1.184 . S
C575 C237 1.188 . S
C580 C90 1.309 . S
C585 C119 1.309 . S
C590 C440 1.186 . S
C595 C148 1.309 . S
C600 C353 1.188 . S
C605 C177 1.309 . S
C610 C382 1.186 . S
C615 C206 1.309 . S
C620 C411 1.188 . S
C625 C235 1.310 . S
C630 C34 1.183 . S
C635 C63 1.188 . S
C640 C264 1.309 . S
C645 C293 1.310 . S
C650 C92 1.183 . S
C655 C5 1.183 . S
C660 C322 1.309 . S
C665 C351 1.309 . S
C670 C208 1.186 . S
C675 C121 1.183 . S
C680 C380 1.310 . S
C685 C409 1.309 . S
C690 C150 1.188 . S
C695 C179 1.187 . S
C700 C438 1.311 . S
C705 C184 1.549 . S
C710 C10 1.549 . S
C715 C39 1.545 . S
C720 C213 1.545 . S
C725 C68 1.549 . S
C730 C126 1.549 . S
C735 C97 1.549 . S
C740 C155 1.549 . S
C745 C416 1.549 . S
C750 C242 1.546 . S
C755 C271 1.549 . S
C760 C445 1.549 . S
C765 C358 1.545 . S
C770 C300 1.545 . S
C775 C387 1.545 . S
C780 C329 1.545 . S
C785 C245 2.352 . S
C790 C13 2.352 . S
C795 C274 2.354 . S
C800 C42 2.354 . S
C805 C303 2.352 . S
C810 C71 2.352 . S
C815 C332 2.353 . S
C820 C100 2.353 . S
C825 C361 2.352 . S
C830 C129 2.352 . S
C835 C158 2.353 . S
C840 C390 2.353 . S
C845 C187 2.354 . S
C850 C419 2.354 . S
C855 C216 2.353 . S
C860 C448 2.353 . S
C865 C37 1.812 . S
C870 C15 2.063 . S
C875 C66 1.814 . S
C880 C44 2.063 . S
C885 C95 1.813 1_655 S
C890 C73 2.062 . S
C895 C8 1.812 1_565 S
C900 C102 2.063 . S
C905 C131 2.062 . S
C910 C211 1.815 . S
C915 C160 2.062 . S
C920 C124 1.814 . S
C925 C189 2.063 . S
C930 C153 1.810 1_655 S
C935 C218 2.063 . S
C940 C182 1.812 1_565 S
C945 C247 2.063 . S
C950 C269 1.814 . S
C955 C276 2.062 . S
C960 C298 1.815 . S
C965 C305 2.063 . S
C970 C327 1.810 1_455 S
C975 C240 1.812 1_545 S
C980 C334 2.063 . S
C985 C443 1.812 . S
C990 C363 2.063 . S
C995 C392 2.062 . S
C1000 C356 1.814 . S
C1005 C385 1.810 1_455 S
C1010 C421 2.063 . S
C1015 C414 1.812 1_545 S
C1020 C450 2.063 . S
