# Generated by pormake.
# Topology lcs, (4)-cn, num edge types: 1
# Building blocks:
#     Node 0, Type 0, BuildingBlock: QUQFOY_clean_sbu_1, # of connection points: 4
#     Node 1, Type 0, BuildingBlock: QUQFOY_clean_sbu_1, # of connection points: 4
#     Node 2, Type 0, BuildingBlock: QUQFOY_clean_sbu_1, # of connection points: 4
#     Node 3, Type 0, BuildingBlock: QUQFOY_clean_sbu_1, # of connection points: 4
#     Node 4, Type 0, BuildingBlock: QUQFOY_clean_sbu_1, # of connection points: 4
#     Node 5, Type 0, BuildingBlock: QUQFOY_clean_sbu_1, # of connection points: 4
#     Node 6, Type 0, BuildingBlock: QUQFOY_clean_sbu_1, # of connection points: 4
#     Node 7, Type 0, BuildingBlock: QUQFOY_clean_sbu_1, # of connection points: 4
#     Node 8, Type 0, BuildingBlock: QUQFOY_clean_sbu_1, # of connection points: 4
#     Node 9, Type 0, BuildingBlock: QUQFOY_clean_sbu_1, # of connection points: 4
#     Node 10, Type 0, BuildingBlock: QUQFOY_clean_sbu_1, # of connection points: 4
#     Node 11, Type 0, BuildingBlock: QUQFOY_clean_sbu_1, # of connection points: 4
#     Node 12, Type 0, BuildingBlock: QUQFOY_clean_sbu_1, # of connection points: 4
#     Node 13, Type 0, BuildingBlock: QUQFOY_clean_sbu_1, # of connection points: 4
#     Node 14, Type 0, BuildingBlock: QUQFOY_clean_sbu_1, # of connection points: 4
#     Node 15, Type 0, BuildingBlock: QUQFOY_clean_sbu_1, # of connection points: 4
#     Node 16, Type 0, BuildingBlock: QUQFOY_clean_sbu_1, # of connection points: 4
#     Node 17, Type 0, BuildingBlock: QUQFOY_clean_sbu_1, # of connection points: 4
#     Node 18, Type 0, BuildingBlock: QUQFOY_clean_sbu_1, # of connection points: 4
#     Node 19, Type 0, BuildingBlock: QUQFOY_clean_sbu_1, # of connection points: 4
#     Node 20, Type 0, BuildingBlock: QUQFOY_clean_sbu_1, # of connection points: 4
#     Node 21, Type 0, BuildingBlock: QUQFOY_clean_sbu_1, # of connection points: 4
#     Node 22, Type 0, BuildingBlock: QUQFOY_clean_sbu_1, # of connection points: 4
#     Node 23, Type 0, BuildingBlock: QUQFOY_clean_sbu_1, # of connection points: 4
#     Edge 24, Type (0, 0), BuildingBlock: UVAHIK_clean_linker_0, # of connection points: 2
#     Edge 25, Type (0, 0), BuildingBlock: UVAHIK_clean_linker_0, # of connection points: 2
#     Edge 26, Type (0, 0), BuildingBlock: UVAHIK_clean_linker_0, # of connection points: 2
#     Edge 27, Type (0, 0), BuildingBlock: UVAHIK_clean_linker_0, # of connection points: 2
#     Edge 28, Type (0, 0), BuildingBlock: UVAHIK_clean_linker_0, # of connection points: 2
#     Edge 29, Type (0, 0), BuildingBlock: UVAHIK_clean_linker_0, # of connection points: 2
#     Edge 30, Type (0, 0), BuildingBlock: UVAHIK_clean_linker_0, # of connection points: 2
#     Edge 31, Type (0, 0), BuildingBlock: UVAHIK_clean_linker_0, # of connection points: 2
#     Edge 32, Type (0, 0), BuildingBlock: UVAHIK_clean_linker_0, # of connection points: 2
#     Edge 33, Type (0, 0), BuildingBlock: UVAHIK_clean_linker_0, # of connection points: 2
#     Edge 34, Type (0, 0), BuildingBlock: UVAHIK_clean_linker_0, # of connection points: 2
#     Edge 35, Type (0, 0), BuildingBlock: UVAHIK_clean_linker_0, # of connection points: 2
#     Edge 36, Type (0, 0), BuildingBlock: UVAHIK_clean_linker_0, # of connection points: 2
#     Edge 37, Type (0, 0), BuildingBlock: UVAHIK_clean_linker_0, # of connection points: 2
#     Edge 38, Type (0, 0), BuildingBlock: UVAHIK_clean_linker_0, # of connection points: 2
#     Edge 39, Type (0, 0), BuildingBlock: UVAHIK_clean_linker_0, # of connection points: 2
#     Edge 40, Type (0, 0), BuildingBlock: UVAHIK_clean_linker_0, # of connection points: 2
#     Edge 41, Type (0, 0), BuildingBlock: UVAHIK_clean_linker_0, # of connection points: 2
#     Edge 42, Type (0, 0), BuildingBlock: UVAHIK_clean_linker_0, # of connection points: 2
#     Edge 43, Type (0, 0), BuildingBlock: UVAHIK_clean_linker_0, # of connection points: 2
#     Edge 44, Type (0, 0), BuildingBlock: UVAHIK_clean_linker_0, # of connection points: 2
#     Edge 45, Type (0, 0), BuildingBlock: UVAHIK_clean_linker_0, # of connection points: 2
#     Edge 46, Type (0, 0), BuildingBlock: UVAHIK_clean_linker_0, # of connection points: 2
#     Edge 47, Type (0, 0), BuildingBlock: UVAHIK_clean_linker_0, # of connection points: 2
#     Edge 48, Type (0, 0), BuildingBlock: UVAHIK_clean_linker_0, # of connection points: 2
#     Edge 49, Type (0, 0), BuildingBlock: UVAHIK_clean_linker_0, # of connection points: 2
#     Edge 50, Type (0, 0), BuildingBlock: UVAHIK_clean_linker_0, # of connection points: 2
#     Edge 51, Type (0, 0), BuildingBlock: UVAHIK_clean_linker_0, # of connection points: 2
#     Edge 52, Type (0, 0), BuildingBlock: UVAHIK_clean_linker_0, # of connection points: 2
#     Edge 53, Type (0, 0), BuildingBlock: UVAHIK_clean_linker_0, # of connection points: 2
#     Edge 54, Type (0, 0), BuildingBlock: UVAHIK_clean_linker_0, # of connection points: 2
#     Edge 55, Type (0, 0), BuildingBlock: UVAHIK_clean_linker_0, # of connection points: 2
#     Edge 56, Type (0, 0), BuildingBlock: UVAHIK_clean_linker_0, # of connection points: 2
#     Edge 57, Type (0, 0), BuildingBlock: UVAHIK_clean_linker_0, # of connection points: 2
#     Edge 58, Type (0, 0), BuildingBlock: UVAHIK_clean_linker_0, # of connection points: 2
#     Edge 59, Type (0, 0), BuildingBlock: UVAHIK_clean_linker_0, # of connection points: 2
#     Edge 60, Type (0, 0), BuildingBlock: UVAHIK_clean_linker_0, # of connection points: 2
#     Edge 61, Type (0, 0), BuildingBlock: UVAHIK_clean_linker_0, # of connection points: 2
#     Edge 62, Type (0, 0), BuildingBlock: UVAHIK_clean_linker_0, # of connection points: 2
#     Edge 63, Type (0, 0), BuildingBlock: UVAHIK_clean_linker_0, # of connection points: 2
#     Edge 64, Type (0, 0), BuildingBlock: UVAHIK_clean_linker_0, # of connection points: 2
#     Edge 65, Type (0, 0), BuildingBlock: UVAHIK_clean_linker_0, # of connection points: 2
#     Edge 66, Type (0, 0), BuildingBlock: UVAHIK_clean_linker_0, # of connection points: 2
#     Edge 67, Type (0, 0), BuildingBlock: UVAHIK_clean_linker_0, # of connection points: 2
#     Edge 68, Type (0, 0), BuildingBlock: UVAHIK_clean_linker_0, # of connection points: 2
#     Edge 69, Type (0, 0), BuildingBlock: UVAHIK_clean_linker_0, # of connection points: 2
#     Edge 70, Type (0, 0), BuildingBlock: UVAHIK_clean_linker_0, # of connection points: 2
#     Edge 71, Type (0, 0), BuildingBlock: UVAHIK_clean_linker_0, # of connection points: 2
# Relax obj value: 0.052
# Max RMSD: 0.116
# Mean RMSD: 0.114
data_MOF--net-lcs--node1-QUQFOY_clean_sbu_1--edge1-UVAHIK_clean_linker_0
_symmetry_space_group_name_H-M    P1
_symmetry_Int_Tables_number       1
_symmetry_cell_setting            triclinic
loop_
_symmetry_equiv_pos_as_xyz
'x, y, z'
_cell_length_a     65.898966
_cell_length_b     65.886649
_cell_length_c     65.892019
_cell_angle_alpha  94.331298
_cell_angle_beta   94.311498
_cell_angle_gamma 94.313782
loop_
_atom_site_label
_atom_site_type_symbol
_atom_site_fract_x
_atom_site_fract_y
_atom_site_fract_z
_atom_type_partial_charge
O0 O 0.04542 0.26111 0.38607 0.0
Cd1 Cd 0.02052 0.26775 0.3675 0.0
Cd2 Cd 0.00209 0.26254 0.4019 0.0
O3 O 0.03148 0.26266 0.41548 0.0
O4 O 0.03236 0.28008 0.34387 0.0
O5 O 0.01398 0.2969 0.36519 0.0
C6 C 0.02454 0.29678 0.34943 0.0
C7 C 0.97694 0.28125 0.41582 0.0
C8 C 0.04697 0.2604 0.40535 0.0
C9 C 0.99107 0.23134 0.36624 0.0
O10 O 0.9907 0.23581 0.38529 0.0
O11 O 1.00093 0.24319 0.35544 0.0
O12 O 0.9833 0.26552 0.42409 0.0
O13 O 0.98576 0.28715 0.40016 0.0
O14 O 0.04119 0.72938 0.63114 0.0
Cd15 Cd 0.01961 0.74002 0.64961 0.0
Cd16 Cd 0.01098 0.76106 0.61481 0.0
O17 O 0.03336 0.74444 0.60309 0.0
O18 O 0.02115 0.72197 0.67255 0.0
O19 O 0.99319 0.72307 0.65207 0.0
C20 C 0.00245 0.7154 0.66733 0.0
C21 C 0.98086 0.76517 0.59498 0.0
C22 C 0.04429 0.73271 0.61282 0.0
C23 C 0.0248 0.78588 0.65462 0.0
O24 O 0.02038 0.7855 0.63549 0.0
O25 O 0.02471 0.76939 0.66348 0.0
O26 O 0.99813 0.77403 0.59126 0.0
O27 O 0.98078 0.75312 0.60957 0.0
O28 O 0.54525 0.76083 0.88609 0.0
Cd29 Cd 0.5204 0.76761 0.86751 0.0
Cd30 Cd 0.50185 0.76181 0.90172 0.0
O31 O 0.53118 0.76201 0.91544 0.0
O32 O 0.53238 0.78008 0.84402 0.0
O33 O 0.51392 0.79681 0.86531 0.0
C34 C 0.52455 0.79676 0.84961 0.0
C35 C 0.47657 0.78046 0.91551 0.0
C36 C 0.54672 0.75991 0.90535 0.0
C37 C 0.49112 0.73099 0.86575 0.0
O38 O 0.49072 0.73514 0.88485 0.0
O39 O 0.50086 0.74313 0.85514 0.0
O40 O 0.48287 0.76469 0.92376 0.0
O41 O 0.48549 0.7864 0.89991 0.0
O42 O 0.54127 0.22797 0.13046 0.0
Cd43 Cd 0.52056 0.23935 0.14955 0.0
Cd44 Cd 0.51111 0.25983 0.11466 0.0
O45 O 0.5325 0.24238 0.10227 0.0
O46 O 0.52213 0.22128 0.17248 0.0
O47 O 0.49389 0.22312 0.15261 0.0
C48 C 0.50325 0.21514 0.16761 0.0
C49 C 0.48069 0.26461 0.0956 0.0
C50 C 0.54365 0.23075 0.11187 0.0
C51 C 0.52705 0.28507 0.15371 0.0
O52 O 0.522 0.28434 0.13467 0.0
O53 O 0.52672 0.26883 0.16298 0.0
O54 O 0.49801 0.27289 0.09129 0.0
O55 O 0.48067 0.25281 0.1104 0.0
O56 O 0.03661 0.72407 0.13383 0.0
Cd57 Cd 0.02729 0.74672 0.1161 0.0
Cd58 Cd 0.00802 0.75658 0.15105 0.0
O59 O 0.02496 0.7345 0.16305 0.0
O60 O 0.04561 0.74559 0.09337 0.0
O61 O 0.04499 0.77288 0.11495 0.0
C62 C 0.05263 0.764 0.09945 0.0
C63 C 0.00479 0.78748 0.16999 0.0
C64 C 0.03475 0.72207 0.15265 0.0
C65 C 0.98179 0.74289 0.11192 0.0
O66 O 0.98287 0.74688 0.13117 0.0
O67 O 0.99791 0.7431 0.10248 0.0
O68 O 0.99587 0.77055 0.17458 0.0
O69 O 0.01643 0.78678 0.15506 0.0
O70 O 0.50701 0.72072 0.37893 0.0
Cd71 Cd 0.50059 0.74483 0.3985 0.0
Cd72 Cd 0.50602 0.76549 0.36487 0.0
O73 O 0.50745 0.73646 0.35057 0.0
O74 O 0.48881 0.73187 0.42181 0.0
O75 O 0.4715 0.75115 0.40186 0.0
C76 C 0.47203 0.73992 0.41712 0.0
C77 C 0.48679 0.79004 0.35046 0.0
C78 C 0.50886 0.7203 0.35985 0.0
C79 C 0.53647 0.77546 0.4015 0.0
O80 O 0.53168 0.77776 0.38282 0.0
O81 O 0.52536 0.76362 0.41121 0.0
O82 O 0.50323 0.78458 0.34292 0.0
O83 O 0.48057 0.78072 0.3657 0.0
O84 O 0.53682 0.22454 0.63426 0.0
Cd85 Cd 0.52721 0.24713 0.6166 0.0
Cd86 Cd 0.508 0.25678 0.6516 0.0
O87 O 0.52515 0.23481 0.66352 0.0
O88 O 0.54532 0.2462 0.5937 0.0
O89 O 0.54466 0.27343 0.61533 0.0
C90 C 0.55221 0.26466 0.59972 0.0
C91 C 0.50472 0.28771 0.67045 0.0
C92 C 0.53502 0.22248 0.65308 0.0
C93 C 0.48169 0.24294 0.61261 0.0
O94 O 0.48281 0.2469 0.63186 0.0
O95 O 0.49778 0.24328 0.60311 0.0
O96 O 0.49593 0.27076 0.67517 0.0
O97 O 0.51627 0.287 0.65545 0.0
O98 O 0.00634 0.22198 0.87999 0.0
Cd99 Cd 0.99998 0.2461 0.89958 0.0
Cd100 Cd 0.00544 0.26662 0.86592 0.0
O101 O 0.00674 0.23762 0.85156 0.0
O102 O 0.98826 0.23312 0.9229 0.0
O103 O 0.9709 0.25242 0.90302 0.0
C104 C 0.97147 0.24116 0.91825 0.0
C105 C 0.98655 0.29149 0.85168 0.0
C106 C 0.00816 0.22149 0.8609 0.0
C107 C 0.036 0.2765 0.90248 0.0
O108 O 0.03121 0.2787 0.88378 0.0
O109 O 0.02482 0.26482 0.91228 0.0
O110 O 0.00288 0.28584 0.84408 0.0
O111 O 0.98016 0.28211 0.86682 0.0
O112 O 0.38685 0.04594 0.262 0.0
Cd113 Cd 0.36714 0.02185 0.26819 0.0
Cd114 Cd 0.4009 1.00119 0.2625 0.0
O115 O 0.41523 0.03023 0.2613 0.0
O116 O 0.34383 0.03501 0.27975 0.0
O117 O 0.36341 0.01557 0.29724 0.0
C118 C 0.34828 0.02695 0.29657 0.0
C119 C 0.41542 0.97614 0.28098 0.0
C120 C 0.40593 0.0464 0.26008 0.0
C121 C 0.36421 0.9916 0.23199 0.0
O122 O 0.38289 0.98929 0.23676 0.0
O123 O 0.35445 0.00328 0.24322 0.0
O124 O 0.42283 0.982 0.26463 0.0
O125 O 0.40031 0.9854 0.28761 0.0
O126 O 0.23113 0.13441 0.5432 0.0
Cd127 Cd 0.24095 0.15205 0.52067 0.0
Cd128 Cd 0.25999 0.11698 0.51104 0.0
O129 O 0.24271 0.10511 0.53293 0.0
O130 O 0.22294 0.17503 0.52153 0.0
O131 O 0.22361 0.15337 0.49432 0.0
C132 C 0.21609 0.16902 0.50305 0.0
C133 C 0.26313 0.09811 0.48009 0.0
C134 C 0.23283 0.11556 0.54522 0.0
C135 C 0.28648 0.15583 0.52497 0.0
O136 O 0.28528 0.13658 0.52097 0.0
O137 O 0.27043 0.16539 0.52462 0.0
O138 O 0.27189 0.09332 0.49702 0.0
O139 O 0.25172 0.11323 0.48083 0.0
O140 O 0.13293 0.03523 0.72353 0.0
Cd141 Cd 0.11556 0.02597 0.74648 0.0
Cd142 Cd 0.15098 0.00697 0.75609 0.0
O143 O 0.16244 0.02417 0.73393 0.0
O144 O 0.09261 0.04402 0.74532 0.0
O145 O 0.11449 0.044 0.77245 0.0
C146 C 0.09882 0.05137 0.76359 0.0
C147 C 0.17085 0.00334 0.78634 0.0
C148 C 0.15179 0.03368 0.72148 0.0
C149 C 0.11186 0.98044 0.74304 0.0
O150 O 0.13116 0.98172 0.74661 0.0
O151 O 0.10225 0.99646 0.7434 0.0
O152 O 0.17498 0.99478 0.76907 0.0
O153 O 0.15582 0.01486 0.78636 0.0
O154 O 0.22196 0.88147 0.00594 0.0
Cd155 Cd 0.24603 0.90099 0.99937 0.0
Cd156 Cd 0.26683 0.86756 0.0051 0.0
O157 O 0.2379 0.85326 0.00693 0.0
O158 O 0.2332 0.92388 0.98663 0.0
O159 O 0.2529 0.90352 0.97034 0.0
C160 C 0.2416 0.91873 0.97016 0.0
C161 C 0.29127 0.8526 0.9861 0.0
C162 C 0.22167 0.86246 0.00814 0.0
C163 C 0.27668 0.90456 0.03521 0.0
O164 O 0.27918 0.88591 0.03047 0.0
O165 O 0.26464 0.91408 0.02412 0.0
O166 O 0.28589 0.84552 0.00278 0.0
O167 O 0.28197 0.86771 0.97955 0.0
O168 O 0.26129 0.38783 0.04548 0.0
Cd169 Cd 0.26784 0.36826 0.02143 0.0
Cd170 Cd 0.26225 0.40164 1.00058 0.0
O171 O 0.26054 0.41604 0.0295 0.0
O172 O 0.28054 0.34537 0.03427 0.0
O173 O 0.29686 0.3657 0.01458 0.0
C174 C 0.29701 0.3505 0.02589 0.0
C175 C 0.28138 0.4163 0.97609 0.0
C176 C 0.25924 0.40687 0.04574 0.0
C177 C 0.23205 0.36474 0.99074 0.0
O178 O 0.2368 0.38339 0.98826 0.0
O179 O 0.24312 0.3552 0.00278 0.0
O180 O 0.26478 0.42356 0.98143 0.0
O181 O 0.2878 0.40118 0.98548 0.0
O182 O 0.72664 0.13495 0.03721 0.0
Cd183 Cd 0.74833 0.11661 0.02659 0.0
Cd184 Cd 0.75683 0.15126 0.00577 0.0
O185 O 0.73433 0.16303 0.02216 0.0
O186 O 0.74688 0.09368 0.04465 0.0
O187 O 0.77475 0.1143 0.04359 0.0
C188 C 0.76555 0.09901 0.05126 0.0
C189 C 0.78756 0.17043 0.00266 0.0
C190 C 0.72343 0.15324 0.03386 0.0
C191 C 0.7432 0.11161 0.98074 0.0
O192 O 0.74756 0.13075 0.98116 0.0
O193 O 0.74331 0.10273 0.99722 0.0
O194 O 0.77067 0.17465 0.99336 0.0
O195 O 0.78688 0.15572 0.01458 0.0
O196 O 0.1336 0.54298 0.23219 0.0
Cd197 Cd 0.15111 0.52008 0.24132 0.0
Cd198 Cd 0.11566 0.51036 0.26046 0.0
O199 O 0.10414 0.53255 0.24335 0.0
O200 O 0.17413 0.52175 0.22337 0.0
O201 O 0.15258 0.49431 0.22305 0.0
C202 C 0.16818 0.50347 0.21584 0.0
C203 C 0.09571 0.48019 0.26428 0.0
C204 C 0.11475 0.54503 0.23381 0.0
C205 C 0.15486 0.52349 0.28686 0.0
O206 O 0.13557 0.51986 0.28563 0.0
O207 O 0.16444 0.52317 0.27082 0.0
O208 O 0.0917 0.4975 0.27283 0.0
O209 O 0.11065 0.48007 0.25265 0.0
O210 O 0.76138 0.88775 0.54545 0.0
Cd211 Cd 0.76775 0.86812 0.52138 0.0
Cd212 Cd 0.76212 0.90144 0.50056 0.0
O213 O 0.76073 0.91597 0.52947 0.0
O214 O 0.78062 0.84525 0.53411 0.0
O215 O 0.7967 0.86561 0.51426 0.0
C216 C 0.79699 0.85041 0.52556 0.0
C217 C 0.78091 0.91574 0.47564 0.0
C218 C 0.75944 0.90682 0.54573 0.0
C219 C 0.73177 0.86462 0.49097 0.0
O220 O 0.73652 0.88327 0.48852 0.0
O221 O 0.74293 0.85503 0.50288 0.0
O222 O 0.76447 0.92318 0.4812 0.0
O223 O 0.78744 0.90073 0.48512 0.0
O224 O 0.88229 0.00647 0.22139 0.0
Cd225 Cd 0.90113 0.99968 0.24604 0.0
Cd226 Cd 0.86667 0.00424 0.26494 0.0
O227 O 0.85304 0.0044 0.2356 0.0
O228 O 0.925 0.98831 0.23374 0.0
O229 O 0.90423 0.97038 0.25174 0.0
C230 C 0.91993 0.97124 0.24111 0.0
C231 C 0.85243 0.98514 0.28967 0.0
C232 C 0.86299 0.00697 0.22005 0.0
C233 C 0.90214 0.0356 0.27619 0.0
O234 O 0.88314 0.03091 0.27671 0.0
O235 O 0.91295 0.02405 0.26599 0.0
O236 O 0.84429 1.001 0.28347 0.0
O237 O 0.86825 0.97941 0.28101 0.0
O238 O 0.22681 0.63668 0.53776 0.0
Cd239 Cd 0.24795 0.61779 0.52691 0.0
Cd240 Cd 0.25692 0.65231 0.50587 0.0
O241 O 0.23487 0.66457 0.52255 0.0
O242 O 0.24618 0.5949 0.545 0.0
O243 O 0.27439 0.61495 0.54368 0.0
C244 C 0.26497 0.59985 0.55144 0.0
C245 C 0.28785 0.67097 0.50237 0.0
C246 C 0.22394 0.65505 0.53443 0.0
C247 C 0.24243 0.61275 0.48105 0.0
O248 O 0.24711 0.63183 0.48139 0.0
O249 O 0.24249 0.60393 0.49756 0.0
O250 O 0.27097 0.67544 0.49324 0.0
O251 O 0.28706 0.65631 0.51433 0.0
O252 O 0.38123 0.50642 0.72112 0.0
Cd253 Cd 0.40025 0.49978 0.74572 0.0
Cd254 Cd 0.36602 0.50506 0.76477 0.0
O255 O 0.35207 0.50469 0.73552 0.0
O256 O 0.42399 0.48834 0.73322 0.0
O257 O 0.40348 0.47053 0.75157 0.0
C258 C 0.41905 0.47134 0.74077 0.0
C259 C 0.35228 0.48659 0.7902 0.0
C260 C 0.36193 0.507 0.71986 0.0
C261 C 0.40172 0.53625 0.77524 0.0
O262 O 0.38267 0.53188 0.77578 0.0
O263 O 0.41239 0.52428 0.76536 0.0
O264 O 0.34401 0.50229 0.78378 0.0
O265 O 0.36789 0.48061 0.78133 0.0
O266 O 0.63348 0.04288 0.73207 0.0
Cd267 Cd 0.65097 0.01993 0.74109 0.0
Cd268 Cd 0.61555 0.01037 0.76046 0.0
O269 O 0.60406 0.03264 0.74341 0.0
O270 O 0.67397 0.02167 0.72313 0.0
O271 O 0.65245 0.99421 0.72275 0.0
C272 C 0.66804 0.00341 0.71556 0.0
C273 C 0.59556 0.98024 0.76436 0.0
C274 C 0.61467 0.04505 0.73381 0.0
C275 C 0.65493 0.02329 0.78666 0.0
O276 O 0.63563 0.01976 0.78554 0.0
O277 O 0.66441 0.02293 0.77056 0.0
O278 O 0.59164 0.99756 0.77295 0.0
O279 O 0.61043 0.9801 0.75264 0.0
O280 O 0.73145 0.63423 0.04319 0.0
Cd281 Cd 0.74106 0.6518 0.02051 0.0
Cd282 Cd 0.76023 0.61674 0.01097 0.0
O283 O 0.74317 0.60495 0.03307 0.0
O284 O 0.72295 0.67471 0.02138 0.0
O285 O 0.72357 0.65298 0.99422 0.0
C286 C 0.71603 0.66862 0.00295 0.0
C287 C 0.76337 0.59775 0.98008 0.0
C288 C 0.73329 0.61543 0.04535 0.0
C289 C 0.78659 0.65576 0.02459 0.0
O290 O 0.78545 0.63651 0.02068 0.0
O291 O 0.77051 0.66527 0.02427 0.0
O292 O 0.77223 0.59311 0.99702 0.0
O293 O 0.75183 0.61276 0.98078 0.0
O294 O 0.88572 0.54602 0.76101 0.0
Cd295 Cd 0.86688 0.5214 0.76787 0.0
Cd296 Cd 0.90136 0.50252 0.76351 0.0
O297 O 0.91499 0.53185 0.76327 0.0
O298 O 0.843 0.53369 0.77923 0.0
O299 O 0.86381 0.51577 0.79719 0.0
C300 C 0.84809 0.52638 0.79631 0.0
C301 C 0.91557 0.47781 0.78266 0.0
C302 C 0.90503 0.54738 0.76058 0.0
C303 C 0.86598 0.49113 0.73207 0.0
O304 O 0.88498 0.49067 0.73682 0.0
O305 O 0.85512 0.50134 0.74356 0.0
O306 O 0.92375 0.484 0.76682 0.0
O307 O 0.89974 0.48649 0.78836 0.0
O308 O 0.72268 0.38149 0.50705 0.0
Cd309 Cd 0.74744 0.40013 0.5002 0.0
Cd310 Cd 0.76598 0.36551 0.50504 0.0
O311 O 0.73659 0.35206 0.50536 0.0
O312 O 0.7352 0.42412 0.489 0.0
O313 O 0.75307 0.40339 0.4709 0.0
C314 C 0.7425 0.41913 0.47189 0.0
C315 C 0.79058 0.35129 0.48577 0.0
C316 C 0.72115 0.36221 0.50778 0.0
C317 C 0.7775 0.40108 0.53621 0.0
O318 O 0.77786 0.38204 0.53164 0.0
O319 O 0.76743 0.4119 0.52456 0.0
O320 O 0.78448 0.34313 0.50166 0.0
O321 O 0.78187 0.3671 0.4801 0.0
O322 O 0.63487 0.53477 0.22442 0.0
Cd323 Cd 0.61749 0.52494 0.24715 0.0
Cd324 Cd 0.6535 0.50785 0.25751 0.0
O325 O 0.66489 0.52545 0.23563 0.0
O326 O 0.59386 0.54213 0.24555 0.0
O327 O 0.61553 0.54298 0.27296 0.0
C328 C 0.59969 0.54979 0.26382 0.0
C329 C 0.67233 0.50516 0.28859 0.0
C330 C 0.65392 0.53423 0.22279 0.0
C331 C 0.6158 0.47956 0.24352 0.0
O332 O 0.63505 0.48182 0.24741 0.0
O333 O 0.60531 0.49498 0.24389 0.0
O334 O 0.67758 0.49679 0.27168 0.0
O335 O 0.6568 0.51603 0.28777 0.0
C336 C 0.09049 0.44187 0.26224 0.0
C337 C 0.08445 0.46105 0.2691 0.0
C338 C 0.08136 0.42396 0.26897 0.0
C339 C 0.05498 0.40653 0.31254 0.0
H340 H 0.04292 0.35598 0.27825 0.0
C341 C 0.02002 0.33365 0.34439 0.0
C342 C 0.02832 0.31532 0.33841 0.0
C343 C 0.02466 0.35137 0.33462 0.0
C344 C 0.04634 0.36994 0.28808 0.0
H345 H 0.06338 0.47637 0.28759 0.0
H346 H 0.04743 0.44523 0.29912 0.0
H347 H 0.05506 0.38693 0.26317 0.0
H348 H 0.04771 0.30113 0.3172 0.0
H349 H 0.05603 0.33197 0.30046 0.0
H350 H 0.04677 0.38958 0.33752 0.0
C351 C 0.05944 0.44402 0.28884 0.0
C352 C 0.05328 0.38767 0.27941 0.0
C353 C 0.06852 0.46187 0.28211 0.0
C354 C 0.041 0.31499 0.32218 0.0
C355 C 0.04568 0.33267 0.31246 0.0
C356 C 0.04812 0.38882 0.32121 0.0
C357 C 0.06605 0.42488 0.28272 0.0
C358 C 0.0578 0.40615 0.29158 0.0
C359 C 0.03775 0.35116 0.31868 0.0
C360 C 0.04386 0.37025 0.30913 0.0
H361 H 0.10274 0.44071 0.25224 0.0
H362 H 0.08689 0.40946 0.26406 0.0
H363 H 0.05864 0.42042 0.32243 0.0
H364 H 0.01013 0.3344 0.35679 0.0
H365 H 0.01804 0.36527 0.33961 0.0
C366 C 0.96248 0.78325 0.56802 0.0
C367 C 0.96171 0.77008 0.58382 0.0
C368 C 0.94461 0.79001 0.55904 0.0
C369 C 0.88822 0.78052 0.55317 0.0
H370 H 0.89004 0.83863 0.54668 0.0
C371 C 0.81556 0.82348 0.54215 0.0
C372 C 0.81562 0.83951 0.52923 0.0
C373 C 0.8333 0.81377 0.54659 0.0
C374 C 0.88931 0.82232 0.54804 0.0
H375 H 0.94144 0.753 0.60198 0.0
H376 H 0.91017 0.7649 0.58635 0.0
H377 H 0.92098 0.82351 0.55824 0.0
H378 H 0.83428 0.85758 0.51041 0.0
H379 H 0.86528 0.84047 0.51799 0.0
H380 H 0.85644 0.77941 0.5432 0.0
C381 C 0.92463 0.76989 0.58082 0.0
C382 C 0.90707 0.81363 0.5547 0.0
C383 C 0.94256 0.76311 0.58982 0.0
C384 C 0.83375 0.84534 0.52049 0.0
C385 C 0.85153 0.8356 0.52493 0.0
C386 C 0.87043 0.78921 0.54646 0.0
C387 C 0.9255 0.78379 0.56563 0.0
C388 C 0.90672 0.79266 0.55751 0.0
C389 C 0.85157 0.81982 0.5382 0.0
C390 C 0.87071 0.81026 0.54401 0.0
H391 H 0.97697 0.78882 0.56291 0.0
H392 H 0.94579 0.80039 0.54712 0.0
H393 H 0.88749 0.76427 0.55492 0.0
H394 H 0.80186 0.81861 0.54918 0.0
H395 H 0.83281 0.8019 0.55709 0.0
C396 C 0.3989 0.5712 0.79189 0.0
C397 C 0.41122 0.55586 0.78532 0.0
C398 C 0.4077 0.59016 0.80038 0.0
C399 C 0.45413 0.6159 0.82708 0.0
H400 H 0.43359 0.66505 0.80724 0.0
C401 C 0.47465 0.69593 0.86832 0.0
C402 C 0.48108 0.71142 0.85611 0.0
C403 C 0.46623 0.67699 0.85938 0.0
C404 C 0.43951 0.65145 0.81285 0.0
H405 H 0.44247 0.54828 0.78292 0.0
H406 H 0.45786 0.58142 0.79815 0.0
H407 H 0.41888 0.63155 0.79228 0.0
H408 H 0.48327 0.71931 0.82493 0.0
H409 H 0.46816 0.68622 0.80931 0.0
H410 H 0.47463 0.63579 0.84779 0.0
C411 C 0.44138 0.5787 0.79657 0.0
C412 C 0.43102 0.63232 0.80442 0.0
C413 C 0.43256 0.55978 0.78781 0.0
C414 C 0.47849 0.70769 0.83475 0.0
C415 C 0.4698 0.6888 0.8258 0.0
C416 C 0.46244 0.63502 0.8357 0.0
C417 C 0.42901 0.59412 0.80273 0.0
C418 C 0.43824 0.61437 0.81148 0.0
C419 C 0.46381 0.67321 0.83805 0.0
C420 C 0.45518 0.65297 0.82868 0.0
H421 H 0.3824 0.5687 0.79015 0.0
H422 H 0.39783 0.60173 0.80521 0.0
H423 H 0.45989 0.60229 0.83286 0.0
H424 H 0.47646 0.69827 0.88482 0.0
H425 H 0.46152 0.6653 0.86916 0.0
C426 C 0.57062 0.20595 0.11097 0.0
C427 C 0.5605 0.22143 0.1019 0.0
C428 C 0.58765 0.19833 0.1026 0.0
C429 C 0.62953 0.21299 0.07206 0.0
H430 H 0.63636 0.15495 0.06657 0.0
C431 C 0.69816 0.1799 0.03473 0.0
C432 C 0.70593 0.16257 0.04264 0.0
C433 C 0.68042 0.18744 0.04169 0.0
C434 C 0.63487 0.17124 0.06828 0.0
H435 H 0.56011 0.24076 0.07665 0.0
H436 H 0.59002 0.22752 0.06213 0.0
H437 H 0.60488 0.16684 0.07854 0.0
H438 H 0.7017 0.14013 0.06472 0.0
H439 H 0.67126 0.15364 0.07732 0.0
H440 H 0.65968 0.21748 0.06232 0.0
C441 C 0.58473 0.22134 0.07575 0.0
C442 C 0.61676 0.17801 0.07503 0.0
C443 C 0.56753 0.2288 0.08398 0.0
C444 C 0.69601 0.1534 0.05817 0.0
C445 C 0.67842 0.16106 0.06527 0.0
C446 C 0.64775 0.20623 0.0655 0.0
C447 C 0.59507 0.20617 0.08509 0.0
C448 C 0.61393 0.19895 0.07707 0.0
C449 C 0.67016 0.17794 0.05687 0.0
C450 C 0.6507 0.18525 0.06363 0.0
H451 H 0.56559 0.19992 0.12476 0.0
H452 H 0.59539 0.18673 0.1102 0.0
H453 H 0.62786 0.22924 0.07374 0.0
H454 H 0.70538 0.18725 0.02266 0.0
H455 H 0.67442 0.20034 0.03471 0.0
C456 C 0.11809 0.57933 0.21994 0.0
C457 C 0.1055 0.56279 0.22548 0.0
C458 C 0.10963 0.59661 0.21307 0.0
C459 C 0.06374 0.61421 0.18824 0.0
H460 H 0.08629 0.668 0.21087 0.0
C461 C 0.04892 0.6879 0.14964 0.0
C462 C 0.04307 0.70441 0.16208 0.0
C463 C 0.05573 0.67067 0.15824 0.0
C464 C 0.07977 0.65308 0.20452 0.0
H465 H 0.0741 0.55132 0.22778 0.0
H466 H 0.05928 0.58148 0.21527 0.0
H467 H 0.09953 0.63752 0.22431 0.0
H468 H 0.04016 0.71586 0.19338 0.0
H469 H 0.05257 0.68578 0.20846 0.0
H470 H 0.04428 0.62977 0.16815 0.0
C471 C 0.07572 0.58102 0.21645 0.0
C472 C 0.08742 0.63567 0.21209 0.0
C473 C 0.08421 0.5638 0.22364 0.0
C474 C 0.04455 0.70341 0.18338 0.0
C475 C 0.05167 0.68624 0.19202 0.0
C476 C 0.0563 0.63162 0.18046 0.0
C477 C 0.08838 0.59766 0.21129 0.0
C478 C 0.07958 0.61608 0.20393 0.0
C479 C 0.05712 0.66962 0.17949 0.0
C480 C 0.06434 0.65122 0.18844 0.0
H481 H 0.13455 0.5791 0.22123 0.0
H482 H 0.11972 0.60913 0.20896 0.0
H483 H 0.05749 0.59929 0.18162 0.0
H484 H 0.04792 0.68811 0.13318 0.0
H485 H 0.06006 0.65817 0.14826 0.0
C486 C 0.56622 0.80158 0.4025 0.0
C487 C 0.55573 0.78574 0.41159 0.0
C488 C 0.58511 0.81034 0.41126 0.0
C489 C 0.61941 0.8146 0.45917 0.0
H490 H 0.66085 0.82912 0.42282 0.0
C491 C 0.70393 0.83621 0.48745 0.0
C492 C 0.71257 0.85442 0.4807 0.0
C493 C 0.68498 0.82747 0.47878 0.0
C494 C 0.64938 0.82522 0.43313 0.0
H495 H 0.55672 0.76683 0.43714 0.0
H496 H 0.5899 0.78169 0.45212 0.0
H497 H 0.62711 0.81494 0.40855 0.0
H498 H 0.70841 0.87736 0.45912 0.0
H499 H 0.67547 0.86186 0.44378 0.0
H500 H 0.64198 0.82452 0.48373 0.0
C501 C 0.58337 0.7877 0.43847 0.0
C502 C 0.63 0.81721 0.42499 0.0
C503 C 0.56435 0.77911 0.42983 0.0
C504 C 0.70214 0.86335 0.46469 0.0
C505 C 0.68333 0.85446 0.45585 0.0
C506 C 0.63887 0.82238 0.4673 0.0
C507 C 0.59409 0.8033 0.42919 0.0
C508 C 0.61472 0.81188 0.43791 0.0
C509 C 0.67445 0.8366 0.463 0.0
C510 C 0.65401 0.82783 0.45435 0.0
H511 H 0.5599 0.80715 0.38852 0.0
H512 H 0.59269 0.82263 0.40393 0.0
H513 H 0.60796 0.81099 0.46959 0.0
H514 H 0.71156 0.82898 0.49978 0.0
H515 H 0.67852 0.81358 0.48443 0.0
C516 C 0.50826 0.32607 0.67477 0.0
C517 C 0.50026 0.30737 0.68098 0.0
C518 C 0.50207 0.34454 0.6832 0.0
C519 C 0.47509 0.36755 0.726 0.0
H520 H 0.4624 0.4074 0.68756 0.0
C521 C 0.42479 0.43431 0.74366 0.0
C522 C 0.43057 0.45324 0.73641 0.0
C523 C 0.43506 0.41706 0.73839 0.0
C524 C 0.46612 0.39657 0.69857 0.0
H525 H 0.48008 0.29345 0.70149 0.0
H526 H 0.46914 0.32547 0.7159 0.0
H527 H 0.47781 0.37663 0.67596 0.0
H528 H 0.45209 0.46901 0.71841 0.0
H529 H 0.46999 0.43905 0.70938 0.0
H530 H 0.46293 0.38741 0.74851 0.0
C531 C 0.48036 0.32599 0.70473 0.0
C532 C 0.47502 0.37893 0.69193 0.0
C533 C 0.48657 0.30758 0.69635 0.0
C534 C 0.44714 0.45464 0.72418 0.0
C535 C 0.45735 0.43743 0.7189 0.0
C536 C 0.46611 0.3852 0.73264 0.0
C537 C 0.48772 0.3447 0.69799 0.0
C538 C 0.4795 0.3641 0.70551 0.0
C539 C 0.45129 0.41838 0.72571 0.0
C540 C 0.46141 0.39987 0.71896 0.0
H541 H 0.51889 0.32645 0.66301 0.0
H542 H 0.50831 0.35868 0.6779 0.0
H543 H 0.47858 0.35659 0.73694 0.0
H544 H 0.41208 0.43272 0.7531 0.0
H545 H 0.42991 0.40257 0.74377 0.0
C546 C 0.95465 0.22464 0.94628 0.0
C547 C 0.95334 0.23688 0.92973 0.0
C548 C 0.93741 0.21942 0.95645 0.0
C549 C 0.88507 0.23317 0.96489 0.0
H550 H 0.87661 0.17653 0.97674 0.0
C551 C 0.80739 0.19639 0.98458 0.0
C552 C 0.80718 0.18116 0.99842 0.0
C553 C 0.82582 0.20492 0.97857 0.0
C554 C 0.87888 0.19249 0.9739 0.0
H555 H 0.93295 0.2537 0.91123 0.0
H556 H 0.90271 0.24443 0.92894 0.0
H557 H 0.90745 0.18816 0.96151 0.0
H558 H 0.82624 0.16363 0.01754 0.0
H559 H 0.85849 0.17875 0.00727 0.0
H560 H 0.85632 0.2374 0.97709 0.0
C561 C 0.91717 0.23901 0.93414 0.0
C562 C 0.89657 0.19916 0.96511 0.0
C563 C 0.93447 0.24424 0.92392 0.0
C564 C 0.82587 0.17527 0.00679 0.0
C565 C 0.84434 0.18383 1.00078 0.0
C566 C 0.86736 0.2265 0.97374 0.0
C567 C 0.9184 0.2263 0.95034 0.0
C568 C 0.89983 0.21954 0.96036 0.0
C569 C 0.84453 0.19846 0.98627 0.0
C570 C 0.86397 0.20603 0.97821 0.0
H571 H 0.96898 0.21881 0.95126 0.0
H572 H 0.93896 0.20989 0.96908 0.0
H573 H 0.88725 0.24903 0.96167 0.0
H574 H 0.79327 0.20129 0.97782 0.0
H575 H 0.82534 0.21598 0.96722 0.0
C576 C 0.28089 0.07192 0.4602 0.0
C577 C 0.26746 0.08752 0.46043 0.0
C578 C 0.287 0.06345 0.44178 0.0
C579 C 0.29278 0.07633 0.38898 0.0
H580 H 0.30379 0.01946 0.38022 0.0
C581 C 0.32046 0.04398 0.31326 0.0
C582 C 0.33673 0.03138 0.31462 0.0
C583 C 0.31025 0.04933 0.33045 0.0
C584 C 0.30092 0.0354 0.38251 0.0
H585 H 0.24918 0.10582 0.44138 0.0
H586 H 0.25959 0.09079 0.40914 0.0
H587 H 0.28824 0.0312 0.41104 0.0
H588 H 0.35467 0.01408 0.33503 0.0
H589 H 0.33686 0.02356 0.36516 0.0
H590 H 0.30562 0.08061 0.36061 0.0
C591 C 0.2657 0.08537 0.42327 0.0
C592 C 0.29199 0.04214 0.40016 0.0
C593 C 0.25961 0.09388 0.44174 0.0
C594 C 0.3422 0.02381 0.33348 0.0
C595 C 0.33193 0.02916 0.35071 0.0
C596 C 0.30163 0.06959 0.37134 0.0
C597 C 0.27981 0.07034 0.42309 0.0
C598 C 0.28796 0.06274 0.4037 0.0
C599 C 0.31601 0.04222 0.34944 0.0
C600 C 0.30595 0.04908 0.36795 0.0
H601 H 0.28726 0.06666 0.47432 0.0
H602 H 0.29803 0.05208 0.44228 0.0
H603 H 0.29029 0.09236 0.39136 0.0
H604 H 0.31575 0.04999 0.29895 0.0
H605 H 0.29784 0.05914 0.32886 0.0
C606 C 0.18232 0.04411 0.70282 0.0
C607 C 0.16102 0.04214 0.70377 0.0
C608 C 0.19081 0.05145 0.68567 0.0
C609 C 0.17924 0.05603 0.63105 0.0
H610 H 0.22227 0.10007 0.63728 0.0
C611 C 0.22266 0.08485 0.56373 0.0
C612 C 0.22423 0.10616 0.56276 0.0
C613 C 0.21532 0.07622 0.58081 0.0
C614 C 0.21028 0.08775 0.63534 0.0
H615 H 0.13197 0.0463 0.68743 0.0
H616 H 0.14681 0.05883 0.65751 0.0
H617 H 0.20894 0.08647 0.66763 0.0
H618 H 0.21929 0.13507 0.57897 0.0
H619 H 0.20677 0.12 0.60877 0.0
H620 H 0.18054 0.05735 0.59875 0.0
C621 C 0.15691 0.05472 0.67002 0.0
C622 C 0.20277 0.07989 0.65267 0.0
C623 C 0.14844 0.04769 0.68724 0.0
C624 C 0.21822 0.11861 0.57918 0.0
C625 C 0.2112 0.11 0.59633 0.0
C626 C 0.18696 0.06368 0.61371 0.0
C627 C 0.17816 0.05663 0.66904 0.0
C628 C 0.18698 0.06414 0.65069 0.0
C629 C 0.20974 0.08875 0.59736 0.0
C630 C 0.20236 0.0798 0.61569 0.0
H631 H 0.19243 0.03996 0.71529 0.0
H632 H 0.20726 0.05273 0.68526 0.0
H633 H 0.16717 0.04377 0.62912 0.0
H634 H 0.22715 0.07485 0.55135 0.0
H635 H 0.21438 0.05978 0.58126 0.0
C636 C 0.17577 0.0053 0.82466 0.0
C637 C 0.18206 0.99862 0.80554 0.0
C638 C 0.18486 0.99863 0.84262 0.0
C639 C 0.21186 0.95544 0.86014 0.0
H640 H 0.22261 0.98958 0.91092 0.0
C641 C 0.24652 0.92397 0.9334 0.0
C642 C 0.23774 0.92962 0.95156 0.0
C643 C 0.24191 0.93371 0.91565 0.0
C644 C 0.21955 0.9798 0.89689 0.0
H645 H 0.20355 0.98053 0.79037 0.0
H646 H 0.21946 0.96914 0.82159 0.0
H647 H 0.21062 0.00462 0.87991 0.0
H648 H 0.21751 0.95018 0.96539 0.0
H649 H 0.20927 0.96685 0.9345 0.0
H650 H 0.22031 0.93054 0.8771 0.0
C651 C 0.20727 0.97921 0.82272 0.0
C652 C 0.2127 0.98844 0.87912 0.0
C653 C 0.19822 0.98587 0.80483 0.0
C654 C 0.22458 0.94546 0.95168 0.0
C655 C 0.21996 0.95515 0.93396 0.0
C656 C 0.21864 0.9468 0.87789 0.0
C657 C 0.2004 0.98513 0.8418 0.0
C658 C 0.20863 0.97633 0.86056 0.0
C659 C 0.2284 0.94928 0.91566 0.0
C660 C 0.22241 0.95882 0.89654 0.0
H661 H 0.16334 0.01509 0.82574 0.0
H662 H 0.17912 0.00338 0.85705 0.0
H663 H 0.20854 0.94559 0.84619 0.0
H664 H 0.25678 0.91189 0.93283 0.0
H665 H 0.2489 0.92899 0.90189 0.0
C666 C 0.30292 0.90586 0.06488 0.0
C667 C 0.28693 0.91478 0.05442 0.0
C668 C 0.31159 0.91466 0.0838 0.0
C669 C 0.29949 0.94624 0.12836 0.0
H670 H 0.35813 0.95357 0.14096 0.0
C671 C 0.33608 0.98836 0.20389 0.0
C672 C 0.35422 0.98156 0.21257 0.0
C673 C 0.32764 0.98007 0.18468 0.0
C674 C 0.34171 0.95133 0.13783 0.0
H675 H 0.26773 0.94013 0.05546 0.0
H676 H 0.28279 0.95537 0.08866 0.0
H677 H 0.34431 0.93986 0.10691 0.0
H678 H 0.37728 0.96015 0.20832 0.0
H679 H 0.36221 0.9452 0.1752 0.0
H680 H 0.29677 0.95719 0.15933 0.0
C681 C 0.28856 0.94156 0.08216 0.0
C682 C 0.33383 0.94359 0.11828 0.0
C683 C 0.28006 0.93291 0.06311 0.0
C684 C 0.36338 0.96584 0.20196 0.0
C685 C 0.35481 0.95739 0.18288 0.0
C686 C 0.30736 0.95376 0.148 0.0
C687 C 0.30428 0.93242 0.09275 0.0
C688 C 0.31266 0.941 0.11335 0.0
C689 C 0.33702 0.96462 0.17383 0.0
C690 C 0.32858 0.95641 0.15299 0.0
H691 H 0.30858 0.89191 0.05859 0.0
H692 H 0.32363 0.90724 0.0917 0.0
H693 H 0.28309 0.94412 0.12502 0.0
H694 H 0.32873 1.00055 0.21162 0.0
H695 H 0.31408 0.98621 0.17812 0.0
C696 C 0.33379 0.34529 0.02108 0.0
C697 C 0.3156 0.33959 0.02977 0.0
C698 C 0.35153 0.33554 0.02571 0.0
C699 C 0.37018 0.28931 0.04782 0.0
H700 H 0.42088 0.32346 0.05919 0.0
C701 C 0.44237 0.26317 0.09111 0.0
C702 C 0.46148 0.26982 0.08477 0.0
C703 C 0.42443 0.27008 0.08226 0.0
C704 C 0.40693 0.31363 0.05578 0.0
H705 H 0.30169 0.31894 0.04986 0.0
H706 H 0.33256 0.30224 0.05812 0.0
H707 H 0.39 0.33861 0.0475 0.0
H708 H 0.47664 0.28817 0.06349 0.0
H709 H 0.44544 0.29999 0.04799 0.0
H710 H 0.38714 0.2644 0.05655 0.0
C711 C 0.33313 0.314 0.0475 0.0
C712 C 0.3892 0.32233 0.04904 0.0
C713 C 0.31543 0.3237 0.04286 0.0
C714 C 0.46219 0.28285 0.06885 0.0
C715 C 0.44431 0.28975 0.06004 0.0
C716 C 0.38793 0.28061 0.05463 0.0
C717 C 0.35147 0.3199 0.03915 0.0
C718 C 0.37056 0.31033 0.04513 0.0
C719 C 0.42525 0.28379 0.0669 0.0
C720 C 0.40649 0.2927 0.05881 0.0
H721 H 0.33441 0.35742 0.01088 0.0
H722 H 0.36532 0.34029 0.01879 0.0
H723 H 0.35616 0.27955 0.04466 0.0
H724 H 0.4413 0.25316 0.10336 0.0
H725 H 0.41001 0.2653 0.08799 0.0
C726 C 0.0086 0.82584 0.17456 0.0
C727 C 1.00042 0.80713 0.1806 0.0
C728 C 0.00251 0.84431 0.18308 0.0
C729 C 0.97552 0.86723 0.22592 0.0
H730 H 0.96334 0.9075 0.18777 0.0
C731 C 0.9255 0.93416 0.2438 0.0
C732 C 0.93143 0.95314 0.23672 0.0
C733 C 0.93573 0.91689 0.23847 0.0
C734 C 0.96692 0.89656 0.19871 0.0
H735 H 0.98003 0.79321 0.20092 0.0
H736 H 0.96927 0.82524 0.2155 0.0
H737 H 0.97857 0.87669 0.17602 0.0
H738 H 0.95316 0.96898 0.21901 0.0
H739 H 0.97098 0.93899 0.20988 0.0
H740 H 0.96338 0.88702 0.24851 0.0
C741 C 0.98055 0.82576 0.20438 0.0
C742 C 0.97572 0.87888 0.19197 0.0
C743 C 0.98665 0.80734 0.19591 0.0
C744 C 0.9481 0.95457 0.22464 0.0
C745 C 0.95827 0.93735 0.21929 0.0
C746 C 0.96663 0.88491 0.23265 0.0
C747 C 0.98809 0.84448 0.19781 0.0
C748 C 0.98001 0.86391 0.20544 0.0
C749 C 0.95206 0.91825 0.22592 0.0
C750 C 0.96212 0.89973 0.21909 0.0
H751 H 0.01928 0.82621 0.16286 0.0
H752 H 0.0089 0.85846 0.17791 0.0
H753 H 0.97887 0.85616 0.23679 0.0
H754 H 0.91271 0.93254 0.25312 0.0
H755 H 0.93046 0.90237 0.2437 0.0
C756 C 0.19951 0.68249 0.53586 0.0
C757 C 0.20689 0.66486 0.54355 0.0
C758 C 0.18225 0.69064 0.54331 0.0
C759 C 0.15084 0.6918 0.58714 0.0
H760 H 0.1073 0.70375 0.54799 0.0
C761 C 0.07185 0.70854 0.61258 0.0
C762 C 0.06171 0.72391 0.60337 0.0
C763 C 0.08936 0.70142 0.60477 0.0
C764 C 0.1194 0.70077 0.55915 0.0
H765 H 0.20232 0.64239 0.56556 0.0
H766 H 0.17244 0.65679 0.57872 0.0
H767 H 0.13901 0.69234 0.53594 0.0
H768 H 0.06184 0.74359 0.57842 0.0
H769 H 0.09265 0.73151 0.56505 0.0
H770 H 0.1315 0.70044 0.61038 0.0
C771 C 0.17995 0.66425 0.56689 0.0
C772 C 0.13756 0.69422 0.55223 0.0
C773 C 0.19702 0.65596 0.55928 0.0
C774 C 0.06921 0.73165 0.58583 0.0
C775 C 0.08688 0.72467 0.57812 0.0
C776 C 0.13278 0.69852 0.59407 0.0
C777 C 0.17221 0.68149 0.55879 0.0
C778 C 0.15339 0.68949 0.56615 0.0
C779 C 0.09734 0.70966 0.58767 0.0
C780 C 0.11672 0.7029 0.58017 0.0
H781 H 0.20672 0.68969 0.5237 0.0
H782 H 0.17672 0.70406 0.53693 0.0
H783 H 0.16289 0.68852 0.59823 0.0
H784 H 0.06638 0.70211 0.62601 0.0
H785 H 0.09669 0.6895 0.61224 0.0
C786 C 0.00399 0.68816 0.6917 0.0
C787 C 0.99229 0.69923 0.67836 0.0
C788 C 0.99473 0.67254 0.70185 0.0
C789 C 0.9464 0.65374 0.72022 0.0
H790 H 0.96951 0.60128 0.71807 0.0
C791 C 0.90416 0.58169 0.74675 0.0
C792 C 0.91557 0.56656 0.75485 0.0
C793 C 0.91386 0.59871 0.73903 0.0
C794 C 0.96304 0.61591 0.71922 0.0
H795 H 0.96164 0.70279 0.66547 0.0
H796 H 0.94537 0.67559 0.68358 0.0
H797 H 0.98553 0.62927 0.70129 0.0
H798 H 0.94625 0.558 0.76209 0.0
H799 H 0.96325 0.58808 0.74935 0.0
H800 H 0.92415 0.64064 0.73848 0.0
C801 C 0.96174 0.67903 0.68604 0.0
C802 C 0.97218 0.63192 0.70946 0.0
C803 C 0.97106 0.69451 0.67562 0.0
C804 C 0.93699 0.5693 0.75584 0.0
C805 C 0.94673 0.58649 0.74834 0.0
C806 C 0.9374 0.63782 0.73025 0.0
C807 C 0.97353 0.66779 0.69913 0.0
C808 C 0.96388 0.65094 0.70973 0.0
C809 C 0.93528 0.60122 0.73943 0.0
C810 C 0.9455 0.61861 0.72975 0.0
H811 H 0.02039 0.69139 0.69414 0.0
H812 H 0.00417 0.66424 0.71197 0.0
H813 H 0.93984 0.66834 0.7209 0.0
H814 H 0.88762 0.58005 0.74561 0.0
H815 H 0.90446 0.60948 0.73206 0.0
C816 C 0.19537 0.17652 0.47131 0.0
C817 C 0.19984 0.17964 0.49254 0.0
C818 C 0.17991 0.18663 0.4616 0.0
C819 C 0.14707 0.23002 0.47 0.0
H820 H 0.11387 0.20177 0.42386 0.0
C821 C 0.06922 0.25512 0.43698 0.0
C822 C 0.06634 0.25475 0.41558 0.0
C823 C 0.08659 0.24757 0.44633 0.0
C824 C 0.12314 0.20991 0.43664 0.0
H825 H 0.19143 0.19561 0.52027 0.0
H826 H 0.16407 0.21254 0.50358 0.0
H827 H 0.14175 0.18503 0.44012 0.0
H828 H 0.07985 0.2467 0.38729 0.0
H829 H 0.10988 0.23334 0.40361 0.0
H830 H 0.12777 0.25461 0.46681 0.0
C831 C 0.17285 0.20286 0.49421 0.0
C832 C 0.13922 0.20036 0.44592 0.0
C833 C 0.18848 0.193 0.50385 0.0
C834 C 0.08153 0.24725 0.40381 0.0
C835 C 0.09869 0.23946 0.41312 0.0
C836 C 0.13077 0.23943 0.46089 0.0
C837 C 0.16834 0.19987 0.47294 0.0
C838 C 0.15143 0.21027 0.46275 0.0
C839 C 0.10125 0.23925 0.43444 0.0
C840 C 0.11868 0.22948 0.44409 0.0
H841 H 0.20395 0.16641 0.46217 0.0
H842 H 0.17717 0.18418 0.44516 0.0
H843 H 0.15633 0.23835 0.48265 0.0
H844 H 0.05783 0.2608 0.4465 0.0
H845 H 0.08818 0.24754 0.46281 0.0
C846 C 0.58442 0.45549 0.2345 0.0
C847 C 0.60581 0.45885 0.23759 0.0
C848 C 0.57524 0.43612 0.22756 0.0
C849 C 0.58591 0.3904 0.197 0.0
H850 H 0.53855 0.36429 0.21901 0.0
C851 C 0.53812 0.3222 0.15382 0.0
C852 C 0.53422 0.30502 0.1648 0.0
C853 C 0.54607 0.34078 0.1639 0.0
C854 C 0.55182 0.37141 0.21281 0.0
H855 H 0.63424 0.44429 0.23642 0.0
H856 H 0.61821 0.41068 0.22414 0.0
H857 H 0.55426 0.39711 0.23517 0.0
H858 H 0.53497 0.29413 0.19509 0.0
H859 H 0.54873 0.3269 0.21277 0.0
H860 H 0.58343 0.36497 0.17454 0.0
C861 C 0.60859 0.42304 0.22702 0.0
C862 C 0.5607 0.39019 0.22194 0.0
C863 C 0.61774 0.4423 0.23412 0.0
C864 C 0.53788 0.30705 0.1862 0.0
C865 C 0.54565 0.32579 0.19632 0.0
C866 C 0.57691 0.37184 0.18775 0.0
C867 C 0.58728 0.41982 0.22338 0.0
C868 C 0.57785 0.39983 0.21411 0.0
C869 C 0.55013 0.34271 0.1852 0.0
C870 C 0.55976 0.36219 0.19551 0.0
H871 H 0.57479 0.46789 0.2371 0.0
H872 H 0.55878 0.43405 0.22477 0.0
H873 H 0.599 0.39758 0.19054 0.0
H874 H 0.53544 0.32123 0.13735 0.0
H875 H 0.54916 0.35367 0.15499 0.0
C876 C 0.3166 0.85383 0.95934 0.0
C877 C 0.30857 0.84444 0.97581 0.0
C878 C 0.3342 0.84719 0.9511 0.0
C879 C 0.36703 0.80363 0.94935 0.0
H880 H 0.40932 0.84424 0.93759 0.0
C881 C 0.44878 0.78266 0.93925 0.0
C882 C 0.45859 0.79021 0.92281 0.0
C883 C 0.43051 0.79006 0.94483 0.0
C884 C 0.39757 0.83271 0.9406 0.0
H885 H 0.3125 0.8204 0.99618 0.0
H886 H 0.34304 0.80899 0.98199 0.0
H887 H 0.37668 0.85505 0.94799 0.0
H888 H 0.45721 0.81205 0.89982 0.0
H889 H 0.42521 0.82507 0.90967 0.0
H890 H 0.38795 0.78132 0.94229 0.0
C891 C 0.33571 0.82132 0.97523 0.0
C892 C 0.37883 0.83889 0.9465 0.0
C893 C 0.3182 0.82795 0.98346 0.0
C894 C 0.45006 0.80593 0.91258 0.0
C895 C 0.43175 0.8134 0.91823 0.0
C896 C 0.38573 0.79748 0.94354 0.0
C897 C 0.3441 0.83097 0.95909 0.0
C898 C 0.36343 0.82443 0.95123 0.0
C899 C 0.42154 0.80523 0.93416 0.0
C900 C 0.40135 0.81195 0.93938 0.0
H901 H 0.30957 0.8666 0.95312 0.0
H902 H 0.3401 0.85481 0.93852 0.0
H903 H 0.35539 0.79203 0.95244 0.0
H904 H 0.45495 0.77063 0.94755 0.0
H905 H 0.42328 0.78372 0.95744 0.0
C906 C 0.91302 0.45154 0.8084 0.0
C907 C 0.92334 0.4603 0.79287 0.0
C908 C 0.91939 0.43375 0.81648 0.0
C909 C 0.9634 0.40154 0.81976 0.0
H910 H 0.92246 0.35819 0.82812 0.0
C911 C 0.98477 0.31974 0.82846 0.0
C912 C 0.97667 0.30938 0.8443 0.0
C913 C 0.97733 0.33803 0.82301 0.0
C914 C 0.93406 0.37023 0.82606 0.0
H915 H 0.94875 0.45746 0.77401 0.0
H916 H 0.95969 0.4266 0.78787 0.0
H917 H 0.91183 0.39103 0.81811 0.0
H918 H 0.95376 0.30975 0.86626 0.0
H919 H 0.94064 0.34177 0.85659 0.0
H920 H 0.98561 0.38069 0.82734 0.0
C921 C 0.94683 0.4335 0.79406 0.0
C922 C 0.92799 0.38908 0.82039 0.0
C923 C 0.94047 0.4512 0.78601 0.0
C924 C 0.96032 0.31733 0.85398 0.0
C925 C 0.9528 0.33566 0.84843 0.0
C926 C 0.96945 0.38272 0.82532 0.0
C927 C 0.93626 0.42439 0.80924 0.0
C928 C 0.94259 0.40488 0.81688 0.0
C929 C 0.96155 0.34645 0.83319 0.0
C930 C 0.95487 0.36673 0.82825 0.0
H931 H 0.89974 0.45815 0.81401 0.0
H932 H 0.91105 0.42729 0.82833 0.0
H933 H 0.97509 0.41347 0.81765 0.0
H934 H 0.99729 0.31403 0.82059 0.0
H935 H 0.98413 0.34572 0.81091 0.0
C936 C 0.32418 0.15619 0.53335 0.0
C937 C 0.3067 0.16698 0.53069 0.0
C938 C 0.34313 0.16649 0.53976 0.0
C939 C 0.36603 0.21458 0.56708 0.0
H940 H 0.41604 0.19504 0.54845 0.0
C941 C 0.45959 0.23378 0.57998 0.0
C942 C 0.4615 0.23725 0.60138 0.0
C943 C 0.44061 0.22749 0.56958 0.0
C944 C 0.40224 0.20092 0.55362 0.0
H945 H 0.29555 0.19717 0.53207 0.0
H946 H 0.32874 0.21521 0.54293 0.0
H947 H 0.38325 0.18004 0.53258 0.0
H948 H 0.44486 0.23715 0.62858 0.0
H949 H 0.412 0.22581 0.61056 0.0
H950 H 0.38502 0.23562 0.58797 0.0
C951 C 0.3277 0.19871 0.54043 0.0
C952 C 0.38342 0.19212 0.5447 0.0
C953 C 0.30869 0.18838 0.53411 0.0
C954 C 0.44395 0.23467 0.61209 0.0
C955 C 0.42504 0.2283 0.60172 0.0
C956 C 0.38485 0.22346 0.57592 0.0
C957 C 0.3451 0.18786 0.54354 0.0
C958 C 0.36508 0.19856 0.5516 0.0
C959 C 0.42314 0.22447 0.58036 0.0
C960 C 0.40318 0.21646 0.56959 0.0
H961 H 0.32321 0.13969 0.53092 0.0
H962 H 0.35611 0.15759 0.54231 0.0
H963 H 0.35223 0.21983 0.57289 0.0
H964 H 0.47278 0.23575 0.57124 0.0
H965 H 0.43964 0.22494 0.55309 0.0
C966 C 0.52163 0.68553 0.3602 0.0
C967 C 0.5146 0.70129 0.34897 0.0
C968 C 0.52912 0.66844 0.3504 0.0
C969 C 0.5498 0.6511 0.30158 0.0
H970 H 0.54555 0.59848 0.32433 0.0
C971 C 0.57564 0.57726 0.26152 0.0
C972 C 0.58879 0.5663 0.27355 0.0
C973 C 0.56572 0.59329 0.27039 0.0
C974 C 0.54692 0.61312 0.31789 0.0
H975 H 0.50914 0.711 0.31848 0.0
H976 H 0.52141 0.68074 0.30122 0.0
H977 H 0.52845 0.6267 0.33962 0.0
H978 H 0.6016 0.56334 0.30436 0.0
H979 H 0.58378 0.59116 0.31996 0.0
H980 H 0.56785 0.63714 0.27951 0.0
C981 C 0.52177 0.68188 0.31772 0.0
C982 C 0.53719 0.62937 0.32667 0.0
C983 C 0.51455 0.69918 0.32759 0.0
C984 C 0.59158 0.57152 0.2947 0.0
C985 C 0.58134 0.58736 0.30363 0.0
C986 C 0.55921 0.63474 0.2926 0.0
C987 C 0.5295 0.66642 0.32903 0.0
C988 C 0.5387 0.64869 0.31881 0.0
C989 C 0.56845 0.59849 0.29152 0.0
C990 C 0.55805 0.61567 0.3008 0.0
H991 H 0.52208 0.68668 0.37672 0.0
H992 H 0.53525 0.65717 0.35975 0.0
H993 H 0.5517 0.66576 0.29527 0.0
H994 H 0.57321 0.57366 0.24517 0.0
H995 H 0.55578 0.60155 0.26073 0.0
C996 C 0.08098 0.76271 0.07636 0.0
C997 C 0.06922 0.77427 0.08908 0.0
C998 C 0.09692 0.77214 0.06674 0.0
C999 C 0.13023 0.8207 0.06874 0.0
H1000 H 0.14317 0.79858 0.01542 0.0
C1001 C 0.18688 0.8629 0.02087 0.0
C1002 C 0.20279 0.85163 0.01421 0.0
C1003 C 0.17005 0.85323 0.02889 0.0
C1004 C 0.13976 0.80483 0.03035 0.0
H1005 H 0.0647 0.80485 0.10143 0.0
H1006 H 0.09195 0.8215 0.08401 0.0
H1007 H 0.11451 0.78273 0.03153 0.0
H1008 H 0.21299 0.82117 0.00996 0.0
H1009 H 0.18315 0.80417 0.02358 0.0
H1010 H 0.15519 0.84316 0.06714 0.0
C1011 C 0.08934 0.80503 0.08191 0.0
C1012 C 0.1234 0.79572 0.03968 0.0
C1013 C 0.07359 0.79553 0.09182 0.0
C1014 C 0.20102 0.83029 0.01497 0.0
C1015 C 0.18395 0.82056 0.02273 0.0
C1016 C 0.14635 0.82999 0.05925 0.0
C1017 C 0.10132 0.79345 0.06931 0.0
C1018 C 0.11845 0.80345 0.05908 0.0
C1019 C 0.16854 0.83202 0.03016 0.0
C1020 C 0.15131 0.82211 0.04001 0.0
H1021 H 0.07812 0.74626 0.07409 0.0
H1022 H 0.10599 0.76259 0.05757 0.0
H1023 H 0.12728 0.82688 0.08382 0.0
H1024 H 0.1877 0.87936 0.02055 0.0
H1025 H 0.15827 0.86238 0.03432 0.0
C1026 C 0.74679 0.90668 0.58056 0.0
C1027 C 0.75366 0.9178 0.56466 0.0
C1028 C 0.73918 0.91655 0.59753 0.0
C1029 C 0.7177 0.96514 0.61417 0.0
H1030 H 0.72232 0.9432 0.66717 0.0
C1031 C 0.6915 0.00571 0.68759 0.0
C1032 C 0.67866 0.99367 0.69885 0.0
C1033 C 0.70137 0.99679 0.67155 0.0
C1034 C 0.72084 0.9494 0.65241 0.0
H1035 H 0.75871 0.9482 0.55459 0.0
H1036 H 0.74621 0.9656 0.58465 0.0
H1037 H 0.73969 0.92784 0.63917 0.0
H1038 H 0.66631 0.96281 0.70229 0.0
H1039 H 0.68405 0.94712 0.67446 0.0
H1040 H 0.69926 0.98706 0.62778 0.0
C1041 C 0.74608 0.94911 0.5837 0.0
C1042 C 0.73073 0.94059 0.63631 0.0
C1043 C 0.75344 0.93917 0.56652 0.0
C1044 C 0.67608 0.97247 0.69387 0.0
C1045 C 0.68628 0.96349 0.67803 0.0
C1046 C 0.70812 0.97416 0.63039 0.0
C1047 C 0.73848 0.93789 0.59928 0.0
C1048 C 0.7291 0.94816 0.61686 0.0
C1049 C 0.69892 0.97561 0.66665 0.0
C1050 C 0.70942 0.96625 0.6496 0.0
H1051 H 0.74656 0.89018 0.5796 0.0
H1052 H 0.73317 0.90727 0.60892 0.0
H1053 H 0.7157 0.97122 0.5994 0.0
H1054 H 0.69376 0.0221 0.691 0.0
H1055 H 0.71112 0.00646 0.6631 0.0
C1056 C 0.82745 0.98178 0.31621 0.0
C1057 C 0.84461 0.97494 0.30717 0.0
C1058 C 0.82103 0.97372 0.33387 0.0
C1059 C 0.83972 0.94739 0.37834 0.0
H1060 H 0.78204 0.94022 0.38643 0.0
C1061 C 0.80724 0.91362 0.4499 0.0
C1062 C 0.79078 0.92317 0.45777 0.0
C1063 C 0.81481 0.91922 0.43161 0.0
C1064 C 0.79822 0.9423 0.38449 0.0
H1065 H 0.86821 0.95382 0.3094 0.0
H1066 H 0.85681 0.93947 0.3402 0.0
H1067 H 0.79269 0.95001 0.35373 0.0
H1068 H 0.76999 0.94669 0.453 0.0
H1069 H 0.78321 0.95649 0.42138 0.0
H1070 H 0.84514 0.93964 0.40924 0.0
C1071 C 0.84848 0.95132 0.33371 0.0
C1072 C 0.80434 0.94791 0.36572 0.0
C1073 C 0.85492 0.95941 0.31596 0.0
C1074 C 0.78259 0.93892 0.44736 0.0
C1075 C 0.79007 0.94444 0.42911 0.0
C1076 C 0.83357 0.94168 0.39715 0.0
C1077 C 0.83157 0.95854 0.34301 0.0
C1078 C 0.82516 0.95087 0.36248 0.0
C1079 C 0.80598 0.93439 0.42077 0.0
C1080 C 0.81274 0.93941 0.40054 0.0
H1081 H 0.81918 0.99379 0.30992 0.0
H1082 H 0.80814 0.97988 0.34072 0.0
H1083 H 0.85589 0.94973 0.37646 0.0
H1084 H 0.81388 0.90139 0.45753 0.0
H1085 H 0.82706 0.91116 0.42557 0.0
C1086 C 0.79694 0.09093 0.07226 0.0
C1087 C 0.77572 0.08808 0.0675 0.0
C1088 C 0.80627 0.08062 0.08783 0.0
C1089 C 0.79583 0.0575 0.13507 0.0
H1090 H 0.84392 0.02849 0.12662 0.0
C1091 C 0.83103 0.0116 0.19808 0.0
C1092 C 0.85245 0.0126 0.20083 0.0
C1093 C 0.8213 0.01898 0.18083 0.0
C1094 C 0.83065 0.03672 0.12937 0.0
H1095 H 0.74765 0.07226 0.07535 0.0
H1096 H 0.76389 0.05464 0.10265 0.0
H1097 H 0.82823 0.04585 0.09877 0.0
H1098 H 0.8804 0.02176 0.18731 0.0
H1099 H 0.86357 0.03513 0.15777 0.0
H1100 H 0.79849 0.0491 0.16578 0.0
C1101 C 0.77331 0.06474 0.09432 0.0
C1102 C 0.82166 0.04662 0.11336 0.0
C1103 C 0.76405 0.07477 0.07861 0.0
C1104 C 0.86387 0.02061 0.18566 0.0
C1105 C 0.85417 0.02822 0.16858 0.0
C1106 C 0.80497 0.04786 0.15117 0.0
C1107 C 0.7945 0.06756 0.09911 0.0
C1108 C 0.80416 0.0571 0.11606 0.0
C1109 C 0.83275 0.0278 0.16605 0.0
C1110 C 0.82253 0.03734 0.14857 0.0
H1111 H 0.80634 0.10107 0.06396 0.0
H1112 H 0.82264 0.08316 0.09131 0.0
H1113 H 0.78246 0.06566 0.13764 0.0
H1114 H 0.82177 0.00541 0.20941 0.0
H1115 H 0.80477 0.01796 0.17923 0.0
C1116 C 0.65559 0.03158 0.82441 0.0
C1117 C 0.66625 0.02851 0.80688 0.0
C1118 C 0.66607 0.03763 0.84334 0.0
C1119 C 0.69166 0.04222 0.88365 0.0
H1120 H 0.73648 0.08401 0.88477 0.0
C1121 C 0.73332 0.07848 0.95959 0.0
C1122 C 0.73739 0.09981 0.96085 0.0
C1123 C 0.727 0.06763 0.94082 0.0
C1124 C 0.72396 0.07238 0.88474 0.0
H1125 H 0.69638 0.02872 0.79567 0.0
H1126 H 0.71473 0.03893 0.82884 0.0
H1127 H 0.7205 0.06881 0.85213 0.0
H1128 H 0.73828 0.12641 0.94329 0.0
H1129 H 0.7269 0.10765 0.91086 0.0
H1130 H 0.6944 0.04661 0.91625 0.0
C1131 C 0.69821 0.03704 0.82785 0.0
C1132 C 0.71496 0.06344 0.866 0.0
C1133 C 0.68769 0.0311 0.80884 0.0
C1134 C 0.73534 0.10998 0.9429 0.0
C1135 C 0.72895 0.09918 0.92422 0.0
C1136 C 0.70058 0.05125 0.90239 0.0
C1137 C 0.6875 0.04063 0.84528 0.0
C1138 C 0.69843 0.04854 0.86521 0.0
C1139 C 0.72456 0.07789 0.92294 0.0
C1140 C 0.71656 0.06674 0.90315 0.0
H1141 H 0.63906 0.02978 0.82346 0.0
H1142 H 0.65729 0.04058 0.85634 0.0
H1143 H 0.67919 0.03053 0.88361 0.0
H1144 H 0.73485 0.07016 0.97312 0.0
H1145 H 0.72398 0.0512 0.94034 0.0
C1146 C 0.58128 0.74676 0.90382 0.0
C1147 C 0.56607 0.75421 0.91559 0.0
C1148 C 0.59843 0.73894 0.91314 0.0
C1149 C 0.63044 0.73881 0.96093 0.0
H1150 H 0.64152 0.68447 0.94006 0.0
C1151 C 0.6883 0.69247 0.0038 0.0
C1152 C 0.69969 0.67916 0.99247 0.0
C1153 C 0.67262 0.70228 0.99419 0.0
C1154 C 0.63895 0.69979 0.94589 0.0
H1155 H 0.55749 0.76013 0.9465 0.0
H1156 H 0.5878 0.74682 0.96281 0.0
H1157 H 0.61363 0.70121 0.92382 0.0
H1158 H 0.7038 0.66596 0.96209 0.0
H1159 H 0.67693 0.68366 0.94511 0.0
H1160 H 0.65599 0.73772 0.9827 0.0
C1161 C 0.58625 0.74692 0.94633 0.0
C1162 C 0.62287 0.70933 0.93661 0.0
C1163 C 0.5689 0.7545 0.93699 0.0
C1164 C 0.69519 0.67603 0.97124 0.0
C1165 C 0.67968 0.6861 0.96155 0.0
C1166 C 0.64675 0.72941 0.97004 0.0
C1167 C 0.60094 0.73865 0.93445 0.0
C1168 C 0.61837 0.72888 0.94411 0.0
C1169 C 0.66808 0.6993 0.97291 0.0
C1170 C 0.65115 0.70968 0.96275 0.0
H1171 H 0.57964 0.74628 0.88731 0.0
H1172 H 0.60964 0.73287 0.90364 0.0
H1173 H 0.62741 0.75397 0.96688 0.0
H1174 H 0.69127 0.69508 0.02022 0.0
H1175 H 0.66382 0.71192 0.00357 0.0
C1176 C 0.09137 0.07277 0.79491 0.0
C1177 C 0.08844 0.06804 0.77371 0.0
C1178 C 0.0815 0.08863 0.80426 0.0
C1179 C 0.03912 0.12249 0.79477 0.0
H1180 H 0.06696 0.15498 0.84158 0.0
C1181 C 0.01464 0.20053 0.82877 0.0
C1182 C 0.01407 0.2025 0.85013 0.0
C1183 C 0.02231 0.18337 0.8191 0.0
C1184 C 0.05897 0.14594 0.82858 0.0
H1185 H 0.07313 0.0764 0.74564 0.0
H1186 H 0.05667 0.10448 0.7617 0.0
H1187 H 0.08354 0.12687 0.82551 0.0
H1188 H 0.02062 0.18763 0.87795 0.0
H1189 H 0.03424 0.15805 0.86108 0.0
H1190 H 0.01486 0.14227 0.79758 0.0
C1191 C 0.06597 0.0956 0.77133 0.0
C1192 C 0.06839 0.12972 0.81941 0.0
C1193 C 0.07555 0.07955 0.76205 0.0
C1194 C 0.0208 0.18667 0.86148 0.0
C1195 C 0.02873 0.16975 0.85187 0.0
C1196 C 0.02985 0.13897 0.80374 0.0
C1197 C 0.06874 0.10038 0.79258 0.0
C1198 C 0.05859 0.11767 0.80241 0.0
C1199 C 0.02984 0.16806 0.83064 0.0
C1200 C 0.03964 0.15077 0.8208 0.0
H1201 H 0.10112 0.06408 0.80431 0.0
H1202 H 0.08375 0.09153 0.8207 0.0
H1203 H 0.03086 0.1134 0.78197 0.0
H1204 H 0.00957 0.21243 0.81959 0.0
H1205 H 0.02303 0.18242 0.80269 0.0
C1206 C 0.95053 0.30686 0.4131 0.0
C1207 C 0.95893 0.29096 0.42314 0.0
C1208 C 0.93215 0.31425 0.4187 0.0
C1209 C 0.88573 0.29766 0.44285 0.0
H1210 H 0.87677 0.35519 0.44907 0.0
C1211 C 0.81739 0.32659 0.48247 0.0
C1212 C 0.80805 0.34352 0.47546 0.0
C1213 C 0.83505 0.32027 0.4743 0.0
C1214 C 0.87889 0.33905 0.44706 0.0
H1215 H 0.955 0.27094 0.44749 0.0
H1216 H 0.9232 0.28384 0.45723 0.0
H1217 H 0.90958 0.34473 0.4388 0.0
H1218 H 0.8097 0.36679 0.45393 0.0
H1219 H 0.84047 0.35552 0.43939 0.0
H1220 H 0.85518 0.29186 0.45103 0.0
C1221 C 0.9306 0.29041 0.44484 0.0
C1222 C 0.89773 0.33307 0.44125 0.0
C1223 C 0.94894 0.28313 0.43934 0.0
C1224 C 0.81651 0.35367 0.45966 0.0
C1225 C 0.83425 0.34732 0.45146 0.0
C1226 C 0.86692 0.3036 0.44853 0.0
C1227 C 0.92176 0.30577 0.43435 0.0
C1228 C 0.90147 0.31231 0.43942 0.0
C1229 C 0.84386 0.33066 0.45884 0.0
C1230 C 0.86334 0.32438 0.45106 0.0
H1231 H 0.95782 0.3132 0.40053 0.0
H1232 H 0.92571 0.32607 0.4103 0.0
H1233 H 0.88795 0.28152 0.44112 0.0
H1234 H 0.81137 0.31845 0.49468 0.0
H1235 H 0.84215 0.30758 0.48062 0.0
C1236 C 0.56847 0.96196 0.78237 0.0
C1237 C 0.58432 0.96111 0.76925 0.0
C1238 C 0.55943 0.94411 0.78914 0.0
C1239 C 0.55318 0.88776 0.77969 0.0
H1240 H 0.54688 0.88964 0.83784 0.0
C1241 C 0.54104 0.81504 0.82242 0.0
C1242 C 0.52837 0.81534 0.83866 0.0
C1243 C 0.54571 0.83275 0.81273 0.0
C1244 C 0.54818 0.88889 0.82152 0.0
H1245 H 0.60247 0.94075 0.75226 0.0
H1246 H 0.58668 0.90952 0.76416 0.0
H1247 H 0.55871 0.92049 0.82272 0.0
H1248 H 0.51022 0.8344 0.85711 0.0
H1249 H 0.51814 0.86531 0.83999 0.0
H1250 H 0.54281 0.85608 0.77855 0.0
C1251 C 0.58119 0.92402 0.76912 0.0
C1252 C 0.555 0.90661 0.81284 0.0
C1253 C 0.59029 0.94192 0.76234 0.0
C1254 C 0.5201 0.83368 0.8447 0.0
C1255 C 0.52474 0.85142 0.83496 0.0
C1256 C 0.54628 0.87003 0.78837 0.0
C1257 C 0.56597 0.92497 0.78297 0.0
C1258 C 0.55775 0.90624 0.79185 0.0
C1259 C 0.5378 0.85123 0.81899 0.0
C1260 C 0.54387 0.87033 0.80944 0.0
H1261 H 0.56339 0.97647 0.78789 0.0
H1262 H 0.54749 0.94535 0.7995 0.0
H1263 H 0.55489 0.88703 0.76344 0.0
H1264 H 0.54772 0.80119 0.81739 0.0
H1265 H 0.55604 0.83206 0.80071 0.0
C1266 C 0.97902 0.20728 0.33561 0.0
C1267 C 0.9808 0.21174 0.35689 0.0
C1268 C 0.97013 0.18834 0.32699 0.0
C1269 C 0.93743 0.14297 0.33879 0.0
H1270 H 0.96069 0.11699 0.29216 0.0
C1271 C 0.8989 0.06971 0.29451 0.0
C1272 C 0.9114 0.05514 0.28667 0.0
C1273 C 0.90739 0.08866 0.30335 0.0
C1274 C 0.95415 0.12391 0.30533 0.0
H1275 H 0.97459 0.1998 0.38581 0.0
H1276 H 0.9596 0.16674 0.37087 0.0
H1277 H 0.97534 0.15032 0.30696 0.0
H1278 H 0.94271 0.04887 0.28243 0.0
H1279 H 0.95762 0.08175 0.2984 0.0
H1280 H 0.91673 0.11627 0.33765 0.0
C1281 C 0.96462 0.17797 0.36075 0.0
C1282 C 0.96235 0.1432 0.31362 0.0
C1283 C 0.97333 0.19693 0.36934 0.0
C1284 C 0.93265 0.0598 0.28824 0.0
C1285 C 0.94118 0.07872 0.29726 0.0
C1286 C 0.92935 0.12363 0.33061 0.0
C1287 C 0.96297 0.17339 0.33947 0.0
C1288 C 0.95408 0.15299 0.33044 0.0
C1289 C 0.92863 0.09346 0.30476 0.0
C1290 C 0.93756 0.11387 0.31374 0.0
H1291 H 0.98454 0.21839 0.32559 0.0
H1292 H 0.96879 0.18547 0.31053 0.0
H1293 H 0.9305 0.15013 0.35159 0.0
H1294 H 0.88245 0.06669 0.29343 0.0
H1295 H 0.89722 0.09972 0.30864 0.0
C1296 C 0.61813 0.07937 0.71999 0.0
C1297 C 0.60549 0.06287 0.72553 0.0
C1298 C 0.60974 0.0967 0.71315 0.0
C1299 C 0.56396 0.11453 0.68838 0.0
H1300 H 0.58667 0.16822 0.71112 0.0
C1301 C 0.54932 0.18838 0.64997 0.0
C1302 C 0.54344 0.20483 0.66246 0.0
C1303 C 0.55614 0.17111 0.65852 0.0
C1304 C 0.58011 0.15333 0.70474 0.0
H1305 H 0.57406 0.05153 0.72788 0.0
H1306 H 0.55936 0.08177 0.71541 0.0
H1307 H 0.59979 0.13766 0.7245 0.0
H1308 H 0.54052 0.21619 0.69378 0.0
H1309 H 0.55295 0.18607 0.70876 0.0
H1310 H 0.54458 0.1302 0.66832 0.0
C1311 C 0.57579 0.08124 0.71657 0.0
C1312 C 0.58769 0.13587 0.71228 0.0
C1313 C 0.58421 0.06397 0.72373 0.0
C1314 C 0.54493 0.20378 0.68375 0.0
C1315 C 0.55207 0.18658 0.69233 0.0
C1316 C 0.55659 0.13198 0.68063 0.0
C1317 C 0.58851 0.09784 0.71141 0.0
C1318 C 0.57978 0.11631 0.70407 0.0
C1319 C 0.55751 0.17 0.67976 0.0
C1320 C 0.56469 0.15155 0.68864 0.0
H1321 H 0.63459 0.07907 0.72125 0.0
H1322 H 0.61988 0.10918 0.70905 0.0
H1323 H 0.55766 0.09963 0.68173 0.0
H1324 H 0.54831 0.18864 0.63351 0.0
H1325 H 0.56047 0.15865 0.6485 0.0
C1326 C 0.20243 0.36343 0.96443 0.0
C1327 C 0.21286 0.35451 0.98045 0.0
C1328 C 0.18357 0.35457 0.95567 0.0
C1329 C 0.13906 0.32282 0.96751 0.0
H1330 H 0.12683 0.31525 0.90883 0.0
C1331 C 0.06403 0.28003 0.93068 0.0
C1332 C 0.05535 0.28668 0.91246 0.0
C1333 C 0.08314 0.28849 0.93917 0.0
C1334 C 0.12985 0.31755 0.92526 0.0
H1335 H 0.21182 0.32914 0.99961 0.0
H1336 H 0.17872 0.31381 0.9844 0.0
H1337 H 0.16074 0.32922 0.92282 0.0
H1338 H 0.05953 0.30798 0.8893 0.0
H1339 H 0.0925 0.32324 0.90447 0.0
H1340 H 0.10812 0.31168 0.97008 0.0
C1341 C 0.1852 0.32765 0.97868 0.0
C1342 C 0.14933 0.32545 0.93324 0.0
C1343 C 0.2042 0.33635 0.98727 0.0
C1344 C 0.06589 0.3024 0.90326 0.0
C1345 C 0.08488 0.31104 0.91188 0.0
C1346 C 0.1195 0.31515 0.95955 0.0
C1347 C 0.17465 0.33678 0.96292 0.0
C1348 C 0.15412 0.32811 0.95443 0.0
C1349 C 0.09391 0.30397 0.92977 0.0
C1350 C 0.11465 0.31239 0.93831 0.0
H1351 H 0.20872 0.3774 0.95881 0.0
H1352 H 0.17569 0.36197 0.9436 0.0
H1353 H 0.14229 0.325 0.98393 0.0
H1354 H 0.05635 0.26783 0.93806 0.0
H1355 H 0.08971 0.28246 0.9528 0.0
C1356 C 0.45511 0.7234 0.44508 0.0
C1357 C 0.45388 0.7357 0.42857 0.0
C1358 C 0.43784 0.71828 0.45527 0.0
C1359 C 0.38571 0.73254 0.46389 0.0
H1360 H 0.37675 0.67594 0.47575 0.0
C1361 C 0.30785 0.69661 0.48404 0.0
C1362 C 0.30754 0.68141 0.49792 0.0
C1363 C 0.32631 0.7049 0.47788 0.0
C1364 C 0.37916 0.69189 0.47291 0.0
H1365 H 0.43361 0.7527 0.41014 0.0
H1366 H 0.40334 0.74362 0.42788 0.0
H1367 H 0.40762 0.68727 0.46039 0.0
H1368 H 0.32649 0.66366 0.51691 0.0
H1369 H 0.35881 0.67836 0.50639 0.0
H1370 H 0.35708 0.73706 0.47623 0.0
C1371 C 0.41775 0.73808 0.43304 0.0
C1372 C 0.39687 0.69838 0.46404 0.0
C1373 C 0.43506 0.7432 0.4228 0.0
C1374 C 0.32619 0.67528 0.50615 0.0
C1375 C 0.3447 0.6836 0.49999 0.0
C1376 C 0.36799 0.72604 0.47282 0.0
C1377 C 0.41889 0.72533 0.44922 0.0
C1378 C 0.40031 0.71874 0.45929 0.0
C1379 C 0.34496 0.69822 0.48546 0.0
C1380 C 0.36442 0.70559 0.47729 0.0
H1381 H 0.46939 0.71746 0.45003 0.0
H1382 H 0.43934 0.70872 0.46788 0.0
H1383 H 0.38803 0.74839 0.46069 0.0
H1384 H 0.29376 0.70168 0.47739 0.0
H1385 H 0.32589 0.71594 0.46653 0.0
C1386 C 0.81996 0.54291 0.81299 0.0
C1387 C 0.83661 0.5308 0.81442 0.0
C1388 C 0.80981 0.54829 0.83022 0.0
C1389 C 0.80144 0.53498 0.88267 0.0
H1390 H 0.78959 0.59165 0.89087 0.0
C1391 C 0.78145 0.57177 0.96023 0.0
C1392 C 0.76773 0.58712 0.96044 0.0
C1393 C 0.78754 0.56328 0.94181 0.0
C1394 C 0.79242 0.57568 0.88868 0.0
H1395 H 0.85532 0.5144 0.83503 0.0
H1396 H 0.8376 0.52388 0.8652 0.0
H1397 H 0.80479 0.57985 0.86006 0.0
H1398 H 0.74893 0.60492 0.94135 0.0
H1399 H 0.75929 0.58983 0.90911 0.0
H1400 H 0.7892 0.53087 0.91142 0.0
C1401 C 0.83233 0.5291 0.85067 0.0
C1402 C 0.80121 0.56892 0.87101 0.0
C1403 C 0.84255 0.52374 0.83341 0.0
C1404 C 0.75958 0.59319 0.94173 0.0
C1405 C 0.76565 0.58464 0.92326 0.0
C1406 C 0.79257 0.54173 0.90034 0.0
C1407 C 0.81601 0.54167 0.84932 0.0
C1408 C 0.80597 0.54853 0.86785 0.0
C1409 C 0.78003 0.56987 0.92309 0.0
C1410 C 0.78811 0.56222 0.90366 0.0
H1411 H 0.8149 0.54854 0.79858 0.0
H1412 H 0.79711 0.55772 0.82858 0.0
H1413 H 0.80467 0.51912 0.88056 0.0
H1414 H 0.78805 0.56674 0.97436 0.0
H1415 H 0.79879 0.55213 0.94233 0.0
C1416 C 0.6503 0.54777 0.18835 0.0
C1417 C 0.66301 0.54285 0.20508 0.0
C1418 C 0.65864 0.55481 0.17107 0.0
C1419 C 0.70398 0.58089 0.1535 0.0
H1420 H 0.68234 0.55703 0.09985 0.0
C1421 C 0.71868 0.61867 0.0793 0.0
C1422 C 0.72487 0.60614 0.06305 0.0
C1423 C 0.71185 0.61021 0.09661 0.0
C1424 C 0.6886 0.56374 0.11473 0.0
H1425 H 0.69451 0.54187 0.21691 0.0
H1426 H 0.70911 0.55466 0.18676 0.0
H1427 H 0.66928 0.54365 0.13044 0.0
H1428 H 0.72835 0.5748 0.0521 0.0
H1429 H 0.71594 0.55998 0.08229 0.0
H1430 H 0.72303 0.60123 0.1378 0.0
C1431 C 0.69266 0.55286 0.18706 0.0
C1432 C 0.68105 0.5562 0.1322 0.0
C1433 C 0.68431 0.54552 0.20428 0.0
C1434 C 0.7237 0.58488 0.06435 0.0
C1435 C 0.71657 0.57638 0.08159 0.0
C1436 C 0.71132 0.58863 0.13603 0.0
C1437 C 0.67989 0.55737 0.17022 0.0
C1438 C 0.68857 0.56479 0.15175 0.0
C1439 C 0.7108 0.58901 0.09797 0.0
C1440 C 0.70361 0.58021 0.11648 0.0
H1441 H 0.63383 0.54584 0.1884 0.0
H1442 H 0.64845 0.5584 0.1584 0.0
H1443 H 0.70997 0.58785 0.16838 0.0
H1444 H 0.71944 0.63511 0.07886 0.0
H1445 H 0.70726 0.62028 0.10891 0.0
C1446 C 0.72579 0.44724 0.45538 0.0
C1447 C 0.73813 0.43076 0.45389 0.0
C1448 C 0.7205 0.45756 0.43825 0.0
C1449 C 0.73447 0.46702 0.38629 0.0
H1450 H 0.6776 0.47787 0.37733 0.0
C1451 C 0.6986 0.48764 0.30862 0.0
C1452 C 0.68283 0.50089 0.30832 0.0
C1453 C 0.70694 0.48147 0.32706 0.0
C1454 C 0.69361 0.47534 0.37974 0.0
H1455 H 0.75501 0.41255 0.4333 0.0
H1456 H 0.7457 0.43059 0.40329 0.0
H1457 H 0.68918 0.46236 0.40803 0.0
H1458 H 0.66415 0.51883 0.32727 0.0
H1459 H 0.679 0.50837 0.35955 0.0
H1460 H 0.73886 0.47989 0.35791 0.0
C1461 C 0.74023 0.43558 0.41779 0.0
C1462 C 0.70025 0.46637 0.39735 0.0
C1463 C 0.74549 0.42518 0.43495 0.0
C1464 C 0.67621 0.50854 0.32697 0.0
C1465 C 0.68462 0.50241 0.34546 0.0
C1466 C 0.72785 0.4761 0.3687 0.0
C1467 C 0.72744 0.45171 0.41919 0.0
C1468 C 0.72071 0.46194 0.40076 0.0
C1469 C 0.69979 0.48845 0.34571 0.0
C1470 C 0.70728 0.4802 0.3651 0.0
H1471 H 0.71993 0.45203 0.46974 0.0
H1472 H 0.71088 0.47011 0.43992 0.0
H1473 H 0.75038 0.46406 0.38862 0.0
H1474 H 0.70406 0.48143 0.29454 0.0
H1475 H 0.71841 0.47055 0.32659 0.0
C1476 C 0.83557 0.47892 0.70781 0.0
C1477 C 0.85681 0.48058 0.71253 0.0
C1478 C 0.82712 0.46985 0.68888 0.0
C1479 C 0.81431 0.46175 0.64367 0.0
H1480 H 0.83826 0.41568 0.61746 0.0
C1481 C 0.78969 0.43166 0.56026 0.0
C1482 C 0.78794 0.41038 0.55574 0.0
C1483 C 0.7986 0.44024 0.5792 0.0
C1484 C 0.83124 0.42842 0.62461 0.0
H1485 H 0.88583 0.47392 0.70109 0.0
H1486 H 0.8712 0.45862 0.66804 0.0
H1487 H 0.85185 0.42958 0.65138 0.0
H1488 H 0.7943 0.38144 0.56755 0.0
H1489 H 0.80932 0.39632 0.60062 0.0
H1490 H 0.79321 0.4601 0.61721 0.0
C1491 C 0.86097 0.46388 0.67906 0.0
C1492 C 0.83923 0.43658 0.644 0.0
C1493 C 0.86939 0.47277 0.69802 0.0
C1494 C 0.79552 0.39791 0.57047 0.0
C1495 C 0.80425 0.40646 0.58944 0.0
C1496 C 0.80621 0.45348 0.62435 0.0
C1497 C 0.83974 0.46239 0.6742 0.0
C1498 C 0.83091 0.45339 0.65376 0.0
C1499 C 0.80581 0.42773 0.5941 0.0
C1500 C 0.8146 0.43673 0.61456 0.0
H1501 H 0.82545 0.4847 0.7187 0.0
H1502 H 0.81068 0.46864 0.6858 0.0
H1503 H 0.80768 0.47487 0.65059 0.0
H1504 H 0.78409 0.4417 0.54921 0.0
H1505 H 0.79988 0.4567 0.58212 0.0
C1506 C 0.43798 0.06718 0.25309 0.0
C1507 C 0.4167 0.06544 0.25428 0.0
C1508 C 0.44759 0.08438 0.24544 0.0
C1509 C 0.43734 0.12269 0.20983 0.0
H1510 H 0.48574 0.15355 0.23636 0.0
C1511 C 0.4717 0.19522 0.1768 0.0
C1512 C 0.49304 0.199 0.17862 0.0
C1513 C 0.46229 0.17968 0.18706 0.0
C1514 C 0.47241 0.14494 0.22855 0.0
H1515 H 0.38898 0.0808 0.24891 0.0
H1516 H 0.40572 0.11047 0.23537 0.0
H1517 H 0.47013 0.12483 0.25258 0.0
H1518 H 0.52125 0.18935 0.19243 0.0
H1519 H 0.50503 0.16187 0.20957 0.0
H1520 H 0.43984 0.1421 0.18545 0.0
C1521 C 0.41493 0.09854 0.24034 0.0
C1522 C 0.46344 0.12854 0.23794 0.0
C1523 C 0.40539 0.08157 0.24823 0.0
C1524 C 0.50475 0.18694 0.19086 0.0
C1525 C 0.49539 0.17122 0.20084 0.0
C1526 C 0.44646 0.13885 0.20028 0.0
C1527 C 0.43606 0.09999 0.23856 0.0
C1528 C 0.44577 0.11732 0.2287 0.0
C1529 C 0.47402 0.16734 0.19911 0.0
C1530 C 0.46411 0.15027 0.2095 0.0
H1531 H 0.44715 0.05506 0.25762 0.0
H1532 H 0.46392 0.08511 0.24419 0.0
H1533 H 0.42386 0.11411 0.20224 0.0
H1534 H 0.46226 0.20435 0.16758 0.0
H1535 H 0.44578 0.17746 0.18562 0.0
C1536 C 0.03255 0.82374 0.65628 0.0
C1537 C 0.03061 0.80577 0.66643 0.0
C1538 C 0.03887 0.84244 0.6671 0.0
C1539 C 0.06716 0.86441 0.71501 0.0
H1540 H 0.04675 0.9145 0.69752 0.0
C1541 C 0.11152 0.94273 0.7347 0.0
C1542 C 0.10071 0.96014 0.73778 0.0
C1543 C 0.10118 0.92372 0.72865 0.0
C1544 C 0.05242 0.90068 0.70287 0.0
H1545 H 0.03328 0.79348 0.69606 0.0
H1546 H 0.04403 0.82628 0.71504 0.0
H1547 H 0.03102 0.88177 0.68232 0.0
H1548 H 0.07046 0.97108 0.73761 0.0
H1549 H 0.05237 0.93778 0.7274 0.0
H1550 H 0.08843 0.88333 0.73572 0.0
C1551 C 0.04098 0.8258 0.69862 0.0
C1552 C 0.04357 0.88189 0.69393 0.0
C1553 C 0.03473 0.80701 0.68776 0.0
C1554 C 0.07926 0.958 0.73521 0.0
C1555 C 0.0689 0.93892 0.72927 0.0
C1556 C 0.07593 0.88321 0.72405 0.0
C1557 C 0.04328 0.84371 0.68838 0.0
C1558 C 0.05114 0.86354 0.69954 0.0
C1559 C 0.07975 0.92159 0.72567 0.0
C1560 C 0.06898 0.90159 0.71775 0.0
H1561 H 0.02957 0.82336 0.63986 0.0
H1562 H 0.04082 0.85582 0.65864 0.0
H1563 H 0.07346 0.8506 0.71963 0.0
H1564 H 0.12805 0.94381 0.73649 0.0
H1565 H 0.11008 0.9108 0.72569 0.0
C1566 C 0.46036 0.81566 0.35261 0.0
C1567 C 0.47642 0.80748 0.34267 0.0
C1568 C 0.4521 0.83339 0.34632 0.0
C1569 C 0.44934 0.86638 0.30293 0.0
H1570 H 0.4392 0.90877 0.34419 0.0
C1571 C 0.43909 0.94825 0.28248 0.0
C1572 C 0.42302 0.95821 0.29061 0.0
C1573 C 0.44482 0.92995 0.2897 0.0
C1574 C 0.44175 0.897 0.33249 0.0
H1575 H 0.49606 0.81127 0.318 0.0
H1576 H 0.48185 0.84202 0.30718 0.0
H1577 H 0.44963 0.87597 0.35453 0.0
H1578 H 0.40087 0.95709 0.31331 0.0
H1579 H 0.41097 0.92504 0.32602 0.0
H1580 H 0.44178 0.88742 0.28092 0.0
C1581 C 0.47541 0.83472 0.31969 0.0
C1582 C 0.44767 0.87817 0.3384 0.0
C1583 C 0.48365 0.81709 0.32598 0.0
C1584 C 0.41334 0.94983 0.30674 0.0
C1585 C 0.41913 0.93147 0.31403 0.0
C1586 C 0.44351 0.88517 0.29705 0.0
C1587 C 0.45968 0.84326 0.3299 0.0
C1588 C 0.45182 0.86272 0.32369 0.0
C1589 C 0.43465 0.9211 0.30527 0.0
C1590 C 0.43993 0.90083 0.31175 0.0
H1591 H 0.45446 0.80865 0.36555 0.0
H1592 H 0.43984 0.83942 0.35437 0.0
H1593 H 0.45198 0.85471 0.29116 0.0
H1594 H 0.44698 0.9543 0.27013 0.0
H1595 H 0.45712 0.9226 0.28291 0.0
C1596 C 0.82433 0.65627 0.03282 0.0
C1597 C 0.8068 0.667 0.03019 0.0
C1598 C 0.84326 0.66664 0.03913 0.0
C1599 C 0.88349 0.69235 0.04392 0.0
H1600 H 0.88511 0.7359 0.08714 0.0
C1601 C 0.95972 0.73385 0.07925 0.0
C1602 C 0.9616 0.73733 0.10065 0.0
C1603 C 0.94074 0.72764 0.06882 0.0
C1604 C 0.88494 0.72373 0.07511 0.0
H1605 H 0.79556 0.69715 0.03155 0.0
H1606 H 0.82873 0.7153 0.04224 0.0
H1607 H 0.85232 0.72008 0.07211 0.0
H1608 H 0.9449 0.73732 0.12782 0.0
H1609 H 0.91204 0.72611 0.10975 0.0
H1610 H 0.91611 0.69527 0.04765 0.0
C1611 C 0.82773 0.6988 0.03978 0.0
C1612 C 0.86611 0.71483 0.06629 0.0
C1613 C 0.80874 0.68841 0.03355 0.0
C1614 C 0.94402 0.73484 0.11133 0.0
C1615 C 0.9251 0.72854 0.10093 0.0
C1616 C 0.90232 0.70116 0.05282 0.0
C1617 C 0.84519 0.68801 0.04285 0.0
C1618 C 0.86516 0.69878 0.05084 0.0
C1619 C 0.92323 0.7247 0.07957 0.0
C1620 C 0.90327 0.71671 0.06878 0.0
H1621 H 0.8234 0.63977 0.03042 0.0
H1622 H 0.85628 0.65779 0.04166 0.0
H1623 H 0.88332 0.68025 0.03182 0.0
H1624 H 0.97294 0.73575 0.07054 0.0
H1625 H 0.93979 0.72508 0.05234 0.0
C1626 C 0.57304 0.29635 0.59226 0.0
C1627 C 0.56852 0.27513 0.58913 0.0
C1628 C 0.58853 0.30604 0.58215 0.0
C1629 C 0.62128 0.29756 0.53871 0.0
H1630 H 0.65457 0.34368 0.56688 0.0
C1631 C 0.69896 0.33058 0.51323 0.0
C1632 C 0.70185 0.35199 0.51361 0.0
C1633 C 0.68165 0.32124 0.52089 0.0
C1634 C 0.64528 0.33091 0.55877 0.0
H1635 H 0.57688 0.24737 0.57317 0.0
H1636 H 0.60427 0.264 0.55624 0.0
H1637 H 0.62674 0.32744 0.58371 0.0
H1638 H 0.68842 0.38028 0.52182 0.0
H1639 H 0.65849 0.36396 0.53537 0.0
H1640 H 0.6405 0.30075 0.51406 0.0
C1641 C 0.59552 0.27339 0.56593 0.0
C1642 C 0.62923 0.32164 0.56836 0.0
C1643 C 0.57986 0.26379 0.57578 0.0
C1644 C 0.68673 0.36376 0.52126 0.0
C1645 C 0.66963 0.35445 0.52916 0.0
C1646 C 0.63755 0.30667 0.52925 0.0
C1647 C 0.60007 0.29467 0.5689 0.0
C1648 C 0.61697 0.30482 0.55848 0.0
C1649 C 0.66706 0.33313 0.52934 0.0
C1650 C 0.64968 0.32346 0.53918 0.0
H1651 H 0.56448 0.30552 0.60236 0.0
H1652 H 0.5913 0.32247 0.5846 0.0
H1653 H 0.61199 0.28493 0.53041 0.0
H1654 H 0.71029 0.32106 0.50744 0.0
H1655 H 0.68006 0.30475 0.5209 0.0
C1656 C 0.25316 0.43918 0.06656 0.0
C1657 C 0.25336 0.41781 0.06466 0.0
C1658 C 0.24579 0.44909 0.08374 0.0
C1659 C 0.23046 0.44047 0.13633 0.0
H1660 H 0.19916 0.4871 0.12799 0.0
C1661 C 0.1761 0.4725 0.19412 0.0
C1662 C 0.17876 0.4937 0.19912 0.0
C1663 C 0.18623 0.4635 0.17825 0.0
C1664 C 0.20796 0.47415 0.13054 0.0
H1665 H 0.2462 0.39015 0.07951 0.0
H1666 H 0.23278 0.40719 0.10885 0.0
H1667 H 0.21548 0.47124 0.09953 0.0
H1668 H 0.19393 0.52209 0.19126 0.0
H1669 H 0.21117 0.5064 0.1633 0.0
H1670 H 0.22213 0.44306 0.16722 0.0
C1671 C 0.23882 0.4165 0.09749 0.0
C1672 C 0.21748 0.46512 0.11428 0.0
C1673 C 0.24645 0.40665 0.08051 0.0
C1674 C 0.19162 0.5057 0.18784 0.0
C1675 C 0.20142 0.49676 0.17177 0.0
C1676 C 0.22064 0.4493 0.15249 0.0
C1677 C 0.23816 0.43785 0.09929 0.0
C1678 C 0.22882 0.4481 0.11691 0.0
C1679 C 0.19887 0.47558 0.16684 0.0
C1680 C 0.20928 0.4662 0.14974 0.0
H1681 H 0.25847 0.44824 0.05466 0.0
H1682 H 0.24595 0.46558 0.08473 0.0
H1683 H 0.23938 0.42769 0.13915 0.0
H1684 H 0.16631 0.46287 0.20256 0.0
H1685 H 0.18392 0.44713 0.17466 0.0
C1686 C 0.35524 0.46135 0.81694 0.0
C1687 C 0.345 0.47698 0.80827 0.0
C1688 C 0.34959 0.45403 0.83533 0.0
C1689 C 0.32432 0.47038 0.88123 0.0
H1690 H 0.31965 0.41293 0.89072 0.0
C1691 C 0.28421 0.44071 0.94897 0.0
C1692 C 0.29174 0.42425 0.95874 0.0
C1693 C 0.29249 0.44715 0.93141 0.0
C1694 C 0.32121 0.42906 0.88845 0.0
H1695 H 0.32023 0.49658 0.81173 0.0
H1696 H 0.31036 0.48377 0.84352 0.0
H1697 H 0.33012 0.42342 0.858 0.0
H1698 H 0.3143 0.40195 0.95795 0.0
H1699 H 0.32901 0.4134 0.92733 0.0
H1700 H 0.31542 0.47613 0.91153 0.0
C1701 C 0.32297 0.47738 0.83634 0.0
C1702 C 0.32715 0.43506 0.86966 0.0
C1703 C 0.32855 0.48461 0.818 0.0
C1704 C 0.30816 0.4147 0.9508 0.0
C1705 C 0.31647 0.42114 0.93316 0.0
C1706 C 0.31847 0.46442 0.89998 0.0
C1707 C 0.33365 0.46229 0.84545 0.0
C1708 C 0.32843 0.45577 0.86572 0.0
C1709 C 0.30858 0.43733 0.92312 0.0
C1710 C 0.31651 0.44367 0.90374 0.0
H1711 H 0.36801 0.45517 0.80985 0.0
H1712 H 0.35815 0.44242 0.84197 0.0
H1713 H 0.32562 0.48651 0.87887 0.0
H1714 H 0.27152 0.44838 0.95459 0.0
H1715 H 0.28581 0.45945 0.92398 0.0
C1716 C 0.29628 0.59116 0.57218 0.0
C1717 C 0.27502 0.58872 0.56759 0.0
C1718 C 0.3055 0.58069 0.58767 0.0
C1719 C 0.29497 0.55784 0.63503 0.0
H1720 H 0.34245 0.52798 0.62627 0.0
C1721 C 0.32992 0.51177 0.69803 0.0
C1722 C 0.35133 0.51252 0.70062 0.0
C1723 C 0.32017 0.51914 0.68078 0.0
C1724 C 0.32935 0.53644 0.6291 0.0
H1725 H 0.24677 0.57343 0.57567 0.0
H1726 H 0.26284 0.55551 0.60284 0.0
H1727 H 0.32688 0.54551 0.59847 0.0
H1728 H 0.37925 0.52116 0.68679 0.0
H1729 H 0.3624 0.53449 0.65724 0.0
H1730 H 0.2977 0.54951 0.66577 0.0
C1731 C 0.27236 0.56543 0.59443 0.0
C1732 C 0.32042 0.54644 0.61313 0.0
C1733 C 0.2632 0.57563 0.57879 0.0
C1734 C 0.36272 0.52022 0.68527 0.0
C1735 C 0.353 0.52781 0.66819 0.0
C1736 C 0.30404 0.5481 0.65109 0.0
C1737 C 0.29359 0.56785 0.59905 0.0
C1738 C 0.30315 0.55724 0.61594 0.0
C1739 C 0.3316 0.52768 0.66583 0.0
C1740 C 0.3214 0.53728 0.64838 0.0
H1741 H 0.30579 0.60112 0.5638 0.0
H1742 H 0.3219 0.58292 0.59102 0.0
H1743 H 0.28178 0.56625 0.63769 0.0
H1744 H 0.32069 0.50582 0.7095 0.0
H1745 H 0.30365 0.51834 0.67931 0.0
C1746 C 0.15525 0.53189 0.32457 0.0
C1747 C 0.16604 0.52884 0.30714 0.0
C1748 C 0.16559 0.53809 0.34355 0.0
C1749 C 0.19092 0.54304 0.384 0.0
H1750 H 0.23556 0.58503 0.3852 0.0
C1751 C 0.2323 0.57961 0.45999 0.0
C1752 C 0.23642 0.60093 0.46121 0.0
C1753 C 0.22594 0.56872 0.44125 0.0
C1754 C 0.22308 0.57335 0.38515 0.0
H1755 H 0.19627 0.52921 0.29614 0.0
H1756 H 0.21437 0.53966 0.32938 0.0
H1757 H 0.21982 0.56964 0.35255 0.0
H1758 H 0.23728 0.6275 0.44359 0.0
H1759 H 0.22583 0.60868 0.4112 0.0
H1760 H 0.19346 0.54756 0.4166 0.0
C1761 C 0.19785 0.53766 0.32828 0.0
C1762 C 0.21422 0.5643 0.3664 0.0
C1763 C 0.18748 0.53158 0.30923 0.0
C1764 C 0.23432 0.61107 0.44324 0.0
C1765 C 0.22789 0.60024 0.42458 0.0
C1766 C 0.19969 0.55218 0.40276 0.0
C1767 C 0.187 0.54125 0.34562 0.0
C1768 C 0.19777 0.54931 0.36558 0.0
C1769 C 0.22352 0.57895 0.42334 0.0
C1770 C 0.21561 0.56774 0.40355 0.0
H1771 H 0.13872 0.52998 0.32352 0.0
H1772 H 0.15669 0.54102 0.35646 0.0
H1773 H 0.1785 0.53129 0.38395 0.0
H1774 H 0.23386 0.57131 0.47353 0.0
H1775 H 0.22293 0.5523 0.4408 0.0
loop_
_geom_bond_atom_site_label_1
_geom_bond_atom_site_label_2
_geom_bond_distance
_geom_bond_site_symmetry_2
_ccdc_geom_bond_type
O0 Cd1 2.223 . S
O0 C8 1.315 . S
Cd1 O0 2.223 . S
Cd1 O4 2.297 . S
Cd1 O5 2.439 . S
Cd1 O11 2.240 1_455 S
Cd2 O3 2.240 1_655 S
Cd2 O10 2.223 . S
Cd2 O12 2.297 . S
Cd2 O13 2.439 . S
O3 Cd2 2.240 1_455 S
O3 C8 1.279 . S
O4 Cd1 2.297 . S
O4 C6 1.247 . S
O5 Cd1 2.439 . S
O5 C6 1.208 . S
C6 O4 1.247 . S
C6 O5 1.208 . S
C7 O12 1.247 . S
C7 O13 1.208 . S
C8 O0 1.315 . S
C8 O3 1.279 . S
C9 O10 1.315 . S
C9 O11 1.279 . S
O10 Cd2 2.223 . S
O10 C9 1.315 . S
O11 Cd1 2.240 1_655 S
O11 C9 1.279 . S
O12 Cd2 2.297 . S
O12 C7 1.247 . S
O13 Cd2 2.439 . S
O13 C7 1.208 . S
O14 Cd15 2.223 . S
O14 C22 1.315 . S
Cd15 O14 2.223 . S
Cd15 O18 2.297 . S
Cd15 O19 2.439 1_455 S
Cd15 O25 2.240 . S
Cd16 O17 2.240 . S
Cd16 O24 2.223 . S
Cd16 O26 2.297 1_455 S
Cd16 O27 2.439 1_455 S
O17 Cd16 2.240 . S
O17 C22 1.279 . S
O18 Cd15 2.297 . S
O18 C20 1.247 1_455 S
O19 Cd15 2.439 1_655 S
O19 C20 1.208 . S
C20 O18 1.247 1_655 S
C20 O19 1.208 . S
C21 O26 1.247 . S
C21 O27 1.208 . S
C22 O14 1.315 . S
C22 O17 1.279 . S
C23 O24 1.315 . S
C23 O25 1.279 . S
O24 Cd16 2.223 . S
O24 C23 1.315 . S
O25 Cd15 2.240 . S
O25 C23 1.279 . S
O26 Cd16 2.297 1_655 S
O26 C21 1.247 . S
O27 Cd16 2.439 1_655 S
O27 C21 1.208 . S
O28 Cd29 2.223 . S
O28 C36 1.315 . S
Cd29 O28 2.223 . S
Cd29 O32 2.297 . S
Cd29 O33 2.439 . S
Cd29 O39 2.240 . S
Cd30 O31 2.240 . S
Cd30 O38 2.223 . S
Cd30 O40 2.297 . S
Cd30 O41 2.439 . S
O31 Cd30 2.240 . S
O31 C36 1.279 . S
O32 Cd29 2.297 . S
O32 C34 1.247 . S
O33 Cd29 2.439 . S
O33 C34 1.208 . S
C34 O32 1.247 . S
C34 O33 1.208 . S
C35 O40 1.247 . S
C35 O41 1.208 . S
C36 O28 1.315 . S
C36 O31 1.279 . S
C37 O38 1.315 . S
C37 O39 1.279 . S
O38 Cd30 2.223 . S
O38 C37 1.315 . S
O39 Cd29 2.240 . S
O39 C37 1.279 . S
O40 Cd30 2.297 . S
O40 C35 1.247 . S
O41 Cd30 2.439 . S
O41 C35 1.208 . S
O42 Cd43 2.223 . S
O42 C50 1.315 . S
Cd43 O42 2.223 . S
Cd43 O46 2.297 . S
Cd43 O47 2.439 . S
Cd43 O53 2.240 . S
Cd44 O45 2.240 . S
Cd44 O52 2.223 . S
Cd44 O54 2.297 . S
Cd44 O55 2.439 . S
O45 Cd44 2.240 . S
O45 C50 1.279 . S
O46 Cd43 2.297 . S
O46 C48 1.247 . S
O47 Cd43 2.439 . S
O47 C48 1.208 . S
C48 O46 1.247 . S
C48 O47 1.208 . S
C49 O54 1.247 . S
C49 O55 1.208 . S
C50 O42 1.315 . S
C50 O45 1.279 . S
C51 O52 1.315 . S
C51 O53 1.279 . S
O52 Cd44 2.223 . S
O52 C51 1.315 . S
O53 Cd43 2.240 . S
O53 C51 1.279 . S
O54 Cd44 2.297 . S
O54 C49 1.247 . S
O55 Cd44 2.439 . S
O55 C49 1.208 . S
O56 Cd57 2.223 . S
O56 C64 1.315 . S
Cd57 O56 2.223 . S
Cd57 O60 2.297 . S
Cd57 O61 2.439 . S
Cd57 O67 2.240 1_455 S
Cd58 O59 2.240 . S
Cd58 O66 2.223 1_455 S
Cd58 O68 2.297 1_455 S
Cd58 O69 2.439 . S
O59 Cd58 2.240 . S
O59 C64 1.279 . S
O60 Cd57 2.297 . S
O60 C62 1.247 . S
O61 Cd57 2.439 . S
O61 C62 1.208 . S
C62 O60 1.247 . S
C62 O61 1.208 . S
C63 O68 1.247 . S
C63 O69 1.208 1_655 S
C64 O56 1.315 . S
C64 O59 1.279 . S
C65 O66 1.315 . S
C65 O67 1.279 . S
O66 Cd58 2.223 1_655 S
O66 C65 1.315 . S
O67 Cd57 2.240 1_655 S
O67 C65 1.279 . S
O68 Cd58 2.297 1_655 S
O68 C63 1.247 . S
O69 Cd58 2.439 . S
O69 C63 1.208 1_455 S
O70 Cd71 2.223 . S
O70 C78 1.315 . S
Cd71 O70 2.223 . S
Cd71 O74 2.297 . S
Cd71 O75 2.439 . S
Cd71 O81 2.240 . S
Cd72 O73 2.240 . S
Cd72 O80 2.223 . S
Cd72 O82 2.297 . S
Cd72 O83 2.439 . S
O73 Cd72 2.240 . S
O73 C78 1.279 . S
O74 Cd71 2.297 . S
O74 C76 1.247 . S
O75 Cd71 2.439 . S
O75 C76 1.208 . S
C76 O74 1.247 . S
C76 O75 1.208 . S
C77 O82 1.247 . S
C77 O83 1.208 . S
C78 O70 1.315 . S
C78 O73 1.279 . S
C79 O80 1.315 . S
C79 O81 1.279 . S
O80 Cd72 2.223 . S
O80 C79 1.315 . S
O81 Cd71 2.240 . S
O81 C79 1.279 . S
O82 Cd72 2.297 . S
O82 C77 1.247 . S
O83 Cd72 2.439 . S
O83 C77 1.208 . S
O84 Cd85 2.223 . S
O84 C92 1.315 . S
Cd85 O84 2.223 . S
Cd85 O88 2.297 . S
Cd85 O89 2.439 . S
Cd85 O95 2.240 . S
Cd86 O87 2.240 . S
Cd86 O94 2.223 . S
Cd86 O96 2.297 . S
Cd86 O97 2.439 . S
O87 Cd86 2.240 . S
O87 C92 1.279 . S
O88 Cd85 2.297 . S
O88 C90 1.247 . S
O89 Cd85 2.439 . S
O89 C90 1.208 . S
C90 O88 1.247 . S
C90 O89 1.208 . S
C91 O96 1.247 . S
C91 O97 1.208 . S
C92 O84 1.315 . S
C92 O87 1.279 . S
C93 O94 1.315 . S
C93 O95 1.279 . S
O94 Cd86 2.223 . S
O94 C93 1.315 . S
O95 Cd85 2.240 . S
O95 C93 1.279 . S
O96 Cd86 2.297 . S
O96 C91 1.247 . S
O97 Cd86 2.439 . S
O97 C91 1.208 . S
O98 Cd99 2.223 . S
O98 C106 1.315 . S
Cd99 O98 2.223 . S
Cd99 O102 2.297 1_455 S
Cd99 O103 2.439 1_455 S
Cd99 O109 2.240 . S
Cd100 O101 2.240 . S
Cd100 O108 2.223 . S
Cd100 O110 2.297 . S
Cd100 O111 2.439 1_455 S
O101 Cd100 2.240 . S
O101 C106 1.279 . S
O102 Cd99 2.297 1_655 S
O102 C104 1.247 . S
O103 Cd99 2.439 1_655 S
O103 C104 1.208 . S
C104 O102 1.247 . S
C104 O103 1.208 . S
C105 O110 1.247 1_655 S
C105 O111 1.208 . S
C106 O98 1.315 . S
C106 O101 1.279 . S
C107 O108 1.315 . S
C107 O109 1.279 . S
O108 Cd100 2.223 . S
O108 C107 1.315 . S
O109 Cd99 2.240 . S
O109 C107 1.279 . S
O110 Cd100 2.297 . S
O110 C105 1.247 1_455 S
O111 Cd100 2.439 1_655 S
O111 C105 1.208 . S
O112 Cd113 2.223 . S
O112 C120 1.315 . S
Cd113 O112 2.223 . S
Cd113 O116 2.297 . S
Cd113 O117 2.439 . S
Cd113 O123 2.240 1_545 S
Cd114 O115 2.240 1_565 S
Cd114 O122 2.223 . S
Cd114 O124 2.297 . S
Cd114 O125 2.439 . S
O115 Cd114 2.240 1_545 S
O115 C120 1.279 . S
O116 Cd113 2.297 . S
O116 C118 1.247 . S
O117 Cd113 2.439 . S
O117 C118 1.208 . S
C118 O116 1.247 . S
C118 O117 1.208 . S
C119 O124 1.247 . S
C119 O125 1.208 . S
C120 O112 1.315 . S
C120 O115 1.279 . S
C121 O122 1.315 . S
C121 O123 1.279 . S
O122 Cd114 2.223 . S
O122 C121 1.315 . S
O123 Cd113 2.240 1_565 S
O123 C121 1.279 . S
O124 Cd114 2.297 . S
O124 C119 1.247 . S
O125 Cd114 2.439 . S
O125 C119 1.208 . S
O126 Cd127 2.223 . S
O126 C134 1.315 . S
Cd127 O126 2.223 . S
Cd127 O130 2.297 . S
Cd127 O131 2.439 . S
Cd127 O137 2.240 . S
Cd128 O129 2.240 . S
Cd128 O136 2.223 . S
Cd128 O138 2.297 . S
Cd128 O139 2.439 . S
O129 Cd128 2.240 . S
O129 C134 1.279 . S
O130 Cd127 2.297 . S
O130 C132 1.247 . S
O131 Cd127 2.439 . S
O131 C132 1.208 . S
C132 O130 1.247 . S
C132 O131 1.208 . S
C133 O138 1.247 . S
C133 O139 1.208 . S
C134 O126 1.315 . S
C134 O129 1.279 . S
C135 O136 1.315 . S
C135 O137 1.279 . S
O136 Cd128 2.223 . S
O136 C135 1.315 . S
O137 Cd127 2.240 . S
O137 C135 1.279 . S
O138 Cd128 2.297 . S
O138 C133 1.247 . S
O139 Cd128 2.439 . S
O139 C133 1.208 . S
O140 Cd141 2.223 . S
O140 C148 1.315 . S
Cd141 O140 2.223 . S
Cd141 O144 2.297 . S
Cd141 O145 2.439 . S
Cd141 O151 2.240 1_545 S
Cd142 O143 2.240 . S
Cd142 O150 2.223 1_545 S
Cd142 O152 2.297 1_545 S
Cd142 O153 2.439 . S
O143 Cd142 2.240 . S
O143 C148 1.279 . S
O144 Cd141 2.297 . S
O144 C146 1.247 . S
O145 Cd141 2.439 . S
O145 C146 1.208 . S
C146 O144 1.247 . S
C146 O145 1.208 . S
C147 O152 1.247 . S
C147 O153 1.208 1_565 S
C148 O140 1.315 . S
C148 O143 1.279 . S
C149 O150 1.315 . S
C149 O151 1.279 . S
O150 Cd142 2.223 1_565 S
O150 C149 1.315 . S
O151 Cd141 2.240 1_565 S
O151 C149 1.279 . S
O152 Cd142 2.297 1_565 S
O152 C147 1.247 . S
O153 Cd142 2.439 . S
O153 C147 1.208 1_545 S
O154 Cd155 2.223 . S
O154 C162 1.315 . S
Cd155 O154 2.223 . S
Cd155 O158 2.297 1_554 S
Cd155 O159 2.439 1_554 S
Cd155 O165 2.240 . S
Cd156 O157 2.240 . S
Cd156 O164 2.223 . S
Cd156 O166 2.297 . S
Cd156 O167 2.439 1_554 S
O157 Cd156 2.240 . S
O157 C162 1.279 . S
O158 Cd155 2.297 1_556 S
O158 C160 1.247 . S
O159 Cd155 2.439 1_556 S
O159 C160 1.208 . S
C160 O158 1.247 . S
C160 O159 1.208 . S
C161 O166 1.247 1_556 S
C161 O167 1.208 . S
C162 O154 1.315 . S
C162 O157 1.279 . S
C163 O164 1.315 . S
C163 O165 1.279 . S
O164 Cd156 2.223 . S
O164 C163 1.315 . S
O165 Cd155 2.240 . S
O165 C163 1.279 . S
O166 Cd156 2.297 . S
O166 C161 1.247 1_554 S
O167 Cd156 2.439 1_556 S
O167 C161 1.208 . S
O168 Cd169 2.223 . S
O168 C176 1.315 . S
Cd169 O168 2.223 . S
Cd169 O172 2.297 . S
Cd169 O173 2.439 . S
Cd169 O179 2.240 1_554 S
Cd170 O171 2.240 1_556 S
Cd170 O178 2.223 . S
Cd170 O180 2.297 . S
Cd170 O181 2.439 . S
O171 Cd170 2.240 1_554 S
O171 C176 1.279 . S
O172 Cd169 2.297 . S
O172 C174 1.247 . S
O173 Cd169 2.439 . S
O173 C174 1.208 . S
C174 O172 1.247 . S
C174 O173 1.208 . S
C175 O180 1.247 . S
C175 O181 1.208 . S
C176 O168 1.315 . S
C176 O171 1.279 . S
C177 O178 1.315 . S
C177 O179 1.279 . S
O178 Cd170 2.223 . S
O178 C177 1.315 . S
O179 Cd169 2.240 1_556 S
O179 C177 1.279 . S
O180 Cd170 2.297 . S
O180 C175 1.247 . S
O181 Cd170 2.439 . S
O181 C175 1.208 . S
O182 Cd183 2.223 . S
O182 C190 1.315 . S
Cd183 O182 2.223 . S
Cd183 O186 2.297 . S
Cd183 O187 2.439 . S
Cd183 O193 2.240 1_554 S
Cd184 O185 2.240 . S
Cd184 O192 2.223 1_554 S
Cd184 O194 2.297 1_554 S
Cd184 O195 2.439 . S
O185 Cd184 2.240 . S
O185 C190 1.279 . S
O186 Cd183 2.297 . S
O186 C188 1.247 . S
O187 Cd183 2.439 . S
O187 C188 1.208 . S
C188 O186 1.247 . S
C188 O187 1.208 . S
C189 O194 1.247 . S
C189 O195 1.208 1_556 S
C190 O182 1.315 . S
C190 O185 1.279 . S
C191 O192 1.315 . S
C191 O193 1.279 . S
O192 Cd184 2.223 1_556 S
O192 C191 1.315 . S
O193 Cd183 2.240 1_556 S
O193 C191 1.279 . S
O194 Cd184 2.297 1_556 S
O194 C189 1.247 . S
O195 Cd184 2.439 . S
O195 C189 1.208 1_554 S
O196 Cd197 2.223 . S
O196 C204 1.315 . S
Cd197 O196 2.223 . S
Cd197 O200 2.297 . S
Cd197 O201 2.439 . S
Cd197 O207 2.240 . S
Cd198 O199 2.240 . S
Cd198 O206 2.223 . S
Cd198 O208 2.297 . S
Cd198 O209 2.439 . S
O199 Cd198 2.240 . S
O199 C204 1.279 . S
O200 Cd197 2.297 . S
O200 C202 1.247 . S
O201 Cd197 2.439 . S
O201 C202 1.208 . S
C202 O200 1.247 . S
C202 O201 1.208 . S
C203 O208 1.247 . S
C203 O209 1.208 . S
C204 O196 1.315 . S
C204 O199 1.279 . S
C205 O206 1.315 . S
C205 O207 1.279 . S
O206 Cd198 2.223 . S
O206 C205 1.315 . S
O207 Cd197 2.240 . S
O207 C205 1.279 . S
O208 Cd198 2.297 . S
O208 C203 1.247 . S
O209 Cd198 2.439 . S
O209 C203 1.208 . S
O210 Cd211 2.223 . S
O210 C218 1.315 . S
Cd211 O210 2.223 . S
Cd211 O214 2.297 . S
Cd211 O215 2.439 . S
Cd211 O221 2.240 . S
Cd212 O213 2.240 . S
Cd212 O220 2.223 . S
Cd212 O222 2.297 . S
Cd212 O223 2.439 . S
O213 Cd212 2.240 . S
O213 C218 1.279 . S
O214 Cd211 2.297 . S
O214 C216 1.247 . S
O215 Cd211 2.439 . S
O215 C216 1.208 . S
C216 O214 1.247 . S
C216 O215 1.208 . S
C217 O222 1.247 . S
C217 O223 1.208 . S
C218 O210 1.315 . S
C218 O213 1.279 . S
C219 O220 1.315 . S
C219 O221 1.279 . S
O220 Cd212 2.223 . S
O220 C219 1.315 . S
O221 Cd211 2.240 . S
O221 C219 1.279 . S
O222 Cd212 2.297 . S
O222 C217 1.247 . S
O223 Cd212 2.439 . S
O223 C217 1.208 . S
O224 Cd225 2.223 . S
O224 C232 1.315 . S
Cd225 O224 2.223 . S
Cd225 O228 2.297 1_545 S
Cd225 O229 2.439 1_545 S
Cd225 O235 2.240 . S
Cd226 O227 2.240 . S
Cd226 O234 2.223 . S
Cd226 O236 2.297 . S
Cd226 O237 2.439 1_545 S
O227 Cd226 2.240 . S
O227 C232 1.279 . S
O228 Cd225 2.297 1_565 S
O228 C230 1.247 . S
O229 Cd225 2.439 1_565 S
O229 C230 1.208 . S
C230 O228 1.247 . S
C230 O229 1.208 . S
C231 O236 1.247 1_565 S
C231 O237 1.208 . S
C232 O224 1.315 . S
C232 O227 1.279 . S
C233 O234 1.315 . S
C233 O235 1.279 . S
O234 Cd226 2.223 . S
O234 C233 1.315 . S
O235 Cd225 2.240 . S
O235 C233 1.279 . S
O236 Cd226 2.297 . S
O236 C231 1.247 1_545 S
O237 Cd226 2.439 1_565 S
O237 C231 1.208 . S
O238 Cd239 2.223 . S
O238 C246 1.315 . S
Cd239 O238 2.223 . S
Cd239 O242 2.297 . S
Cd239 O243 2.439 . S
Cd239 O249 2.240 . S
Cd240 O241 2.240 . S
Cd240 O248 2.223 . S
Cd240 O250 2.297 . S
Cd240 O251 2.439 . S
O241 Cd240 2.240 . S
O241 C246 1.279 . S
O242 Cd239 2.297 . S
O242 C244 1.247 . S
O243 Cd239 2.439 . S
O243 C244 1.208 . S
C244 O242 1.247 . S
C244 O243 1.208 . S
C245 O250 1.247 . S
C245 O251 1.208 . S
C246 O238 1.315 . S
C246 O241 1.279 . S
C247 O248 1.315 . S
C247 O249 1.279 . S
O248 Cd240 2.223 . S
O248 C247 1.315 . S
O249 Cd239 2.240 . S
O249 C247 1.279 . S
O250 Cd240 2.297 . S
O250 C245 1.247 . S
O251 Cd240 2.439 . S
O251 C245 1.208 . S
O252 Cd253 2.223 . S
O252 C260 1.315 . S
Cd253 O252 2.223 . S
Cd253 O256 2.297 . S
Cd253 O257 2.439 . S
Cd253 O263 2.240 . S
Cd254 O255 2.240 . S
Cd254 O262 2.223 . S
Cd254 O264 2.297 . S
Cd254 O265 2.439 . S
O255 Cd254 2.240 . S
O255 C260 1.279 . S
O256 Cd253 2.297 . S
O256 C258 1.247 . S
O257 Cd253 2.439 . S
O257 C258 1.208 . S
C258 O256 1.247 . S
C258 O257 1.208 . S
C259 O264 1.247 . S
C259 O265 1.208 . S
C260 O252 1.315 . S
C260 O255 1.279 . S
C261 O262 1.315 . S
C261 O263 1.279 . S
O262 Cd254 2.223 . S
O262 C261 1.315 . S
O263 Cd253 2.240 . S
O263 C261 1.279 . S
O264 Cd254 2.297 . S
O264 C259 1.247 . S
O265 Cd254 2.439 . S
O265 C259 1.208 . S
O266 Cd267 2.223 . S
O266 C274 1.315 . S
Cd267 O266 2.223 . S
Cd267 O270 2.297 . S
Cd267 O271 2.439 1_545 S
Cd267 O277 2.240 . S
Cd268 O269 2.240 . S
Cd268 O276 2.223 . S
Cd268 O278 2.297 1_545 S
Cd268 O279 2.439 1_545 S
O269 Cd268 2.240 . S
O269 C274 1.279 . S
O270 Cd267 2.297 . S
O270 C272 1.247 1_545 S
O271 Cd267 2.439 1_565 S
O271 C272 1.208 . S
C272 O270 1.247 1_565 S
C272 O271 1.208 . S
C273 O278 1.247 . S
C273 O279 1.208 . S
C274 O266 1.315 . S
C274 O269 1.279 . S
C275 O276 1.315 . S
C275 O277 1.279 . S
O276 Cd268 2.223 . S
O276 C275 1.315 . S
O277 Cd267 2.240 . S
O277 C275 1.279 . S
O278 Cd268 2.297 1_565 S
O278 C273 1.247 . S
O279 Cd268 2.439 1_565 S
O279 C273 1.208 . S
O280 Cd281 2.223 . S
O280 C288 1.315 . S
Cd281 O280 2.223 . S
Cd281 O284 2.297 . S
Cd281 O285 2.439 1_554 S
Cd281 O291 2.240 . S
Cd282 O283 2.240 . S
Cd282 O290 2.223 . S
Cd282 O292 2.297 1_554 S
Cd282 O293 2.439 1_554 S
O283 Cd282 2.240 . S
O283 C288 1.279 . S
O284 Cd281 2.297 . S
O284 C286 1.247 1_554 S
O285 Cd281 2.439 1_556 S
O285 C286 1.208 . S
C286 O284 1.247 1_556 S
C286 O285 1.208 . S
C287 O292 1.247 . S
C287 O293 1.208 . S
C288 O280 1.315 . S
C288 O283 1.279 . S
C289 O290 1.315 . S
C289 O291 1.279 . S
O290 Cd282 2.223 . S
O290 C289 1.315 . S
O291 Cd281 2.240 . S
O291 C289 1.279 . S
O292 Cd282 2.297 1_556 S
O292 C287 1.247 . S
O293 Cd282 2.439 1_556 S
O293 C287 1.208 . S
O294 Cd295 2.223 . S
O294 C302 1.315 . S
Cd295 O294 2.223 . S
Cd295 O298 2.297 . S
Cd295 O299 2.439 . S
Cd295 O305 2.240 . S
Cd296 O297 2.240 . S
Cd296 O304 2.223 . S
Cd296 O306 2.297 . S
Cd296 O307 2.439 . S
O297 Cd296 2.240 . S
O297 C302 1.279 . S
O298 Cd295 2.297 . S
O298 C300 1.247 . S
O299 Cd295 2.439 . S
O299 C300 1.208 . S
C300 O298 1.247 . S
C300 O299 1.208 . S
C301 O306 1.247 . S
C301 O307 1.208 . S
C302 O294 1.315 . S
C302 O297 1.279 . S
C303 O304 1.315 . S
C303 O305 1.279 . S
O304 Cd296 2.223 . S
O304 C303 1.315 . S
O305 Cd295 2.240 . S
O305 C303 1.279 . S
O306 Cd296 2.297 . S
O306 C301 1.247 . S
O307 Cd296 2.439 . S
O307 C301 1.208 . S
O308 Cd309 2.223 . S
O308 C316 1.315 . S
Cd309 O308 2.223 . S
Cd309 O312 2.297 . S
Cd309 O313 2.439 . S
Cd309 O319 2.240 . S
Cd310 O311 2.240 . S
Cd310 O318 2.223 . S
Cd310 O320 2.297 . S
Cd310 O321 2.439 . S
O311 Cd310 2.240 . S
O311 C316 1.279 . S
O312 Cd309 2.297 . S
O312 C314 1.247 . S
O313 Cd309 2.439 . S
O313 C314 1.208 . S
C314 O312 1.247 . S
C314 O313 1.208 . S
C315 O320 1.247 . S
C315 O321 1.208 . S
C316 O308 1.315 . S
C316 O311 1.279 . S
C317 O318 1.315 . S
C317 O319 1.279 . S
O318 Cd310 2.223 . S
O318 C317 1.315 . S
O319 Cd309 2.240 . S
O319 C317 1.279 . S
O320 Cd310 2.297 . S
O320 C315 1.247 . S
O321 Cd310 2.439 . S
O321 C315 1.208 . S
O322 Cd323 2.223 . S
O322 C330 1.315 . S
Cd323 O322 2.223 . S
Cd323 O326 2.297 . S
Cd323 O327 2.439 . S
Cd323 O333 2.240 . S
Cd324 O325 2.240 . S
Cd324 O332 2.223 . S
Cd324 O334 2.297 . S
Cd324 O335 2.439 . S
O325 Cd324 2.240 . S
O325 C330 1.279 . S
O326 Cd323 2.297 . S
O326 C328 1.247 . S
O327 Cd323 2.439 . S
O327 C328 1.208 . S
C328 O326 1.247 . S
C328 O327 1.208 . S
C329 O334 1.247 . S
C329 O335 1.208 . S
C330 O322 1.315 . S
C330 O325 1.279 . S
C331 O332 1.315 . S
C331 O333 1.279 . S
O332 Cd324 2.223 . S
O332 C331 1.315 . S
O333 Cd323 2.240 . S
O333 C331 1.279 . S
O334 Cd324 2.297 . S
O334 C329 1.247 . S
O335 Cd324 2.439 . S
O335 C329 1.208 . S
C336 C337 1.349 . S
C336 C338 1.327 . S
C336 H361 0.950 . S
C337 C336 1.349 . S
C337 C353 1.349 . S
C338 C336 1.327 . S
C338 C357 1.429 . S
C338 H362 0.950 . S
C339 C356 1.574 . S
C339 C358 1.368 . S
C339 H363 0.949 . S
H340 C344 0.949 . S
C341 C342 1.349 . S
C341 C343 1.327 . S
C341 H364 0.950 . S
C342 C341 1.349 . S
C342 C354 1.349 . S
C343 C341 1.327 . S
C343 C359 1.429 . S
C343 H365 0.950 . S
C344 H340 0.949 . S
C344 C352 1.574 . S
C344 C360 1.368 . S
H345 C353 0.950 . S
H346 C351 0.950 . S
H347 C352 0.949 . S
H348 C354 0.950 . S
H349 C355 0.950 . S
H350 C356 0.949 . S
C351 H346 0.950 . S
C351 C353 1.327 . S
C351 C357 1.429 . S
C352 C344 1.574 . S
C352 H347 0.949 . S
C352 C358 1.368 . S
C353 C337 1.349 . S
C353 H345 0.950 . S
C353 C351 1.327 . S
C354 C342 1.349 . S
C354 H348 0.950 . S
C354 C355 1.327 . S
C355 H349 0.950 . S
C355 C354 1.327 . S
C355 C359 1.429 . S
C356 C339 1.574 . S
C356 H350 0.949 . S
C356 C360 1.368 . S
C357 C338 1.429 . S
C357 C351 1.429 . S
C357 C358 1.523 . S
C358 C339 1.368 . S
C358 C352 1.368 . S
C358 C357 1.523 . S
C359 C343 1.429 . S
C359 C355 1.429 . S
C359 C360 1.523 . S
C360 C344 1.368 . S
C360 C356 1.368 . S
C360 C359 1.523 . S
H361 C336 0.950 . S
H362 C338 0.950 . S
H363 C339 0.949 . S
H364 C341 0.950 . S
H365 C343 0.950 . S
C366 C367 1.349 . S
C366 C368 1.327 . S
C366 H391 0.950 . S
C367 C366 1.349 . S
C367 C383 1.349 . S
C368 C366 1.327 . S
C368 C387 1.429 . S
C368 H392 0.950 . S
C369 C386 1.574 . S
C369 C388 1.368 . S
C369 H393 0.949 . S
H370 C374 0.949 . S
C371 C372 1.349 . S
C371 C373 1.327 . S
C371 H394 0.950 . S
C372 C371 1.349 . S
C372 C384 1.349 . S
C373 C371 1.327 . S
C373 C389 1.429 . S
C373 H395 0.950 . S
C374 H370 0.949 . S
C374 C382 1.574 . S
C374 C390 1.368 . S
H375 C383 0.950 . S
H376 C381 0.950 . S
H377 C382 0.949 . S
H378 C384 0.950 . S
H379 C385 0.950 . S
H380 C386 0.949 . S
C381 H376 0.950 . S
C381 C383 1.327 . S
C381 C387 1.429 . S
C382 C374 1.574 . S
C382 H377 0.949 . S
C382 C388 1.368 . S
C383 C367 1.349 . S
C383 H375 0.950 . S
C383 C381 1.327 . S
C384 C372 1.349 . S
C384 H378 0.950 . S
C384 C385 1.327 . S
C385 H379 0.950 . S
C385 C384 1.327 . S
C385 C389 1.429 . S
C386 C369 1.574 . S
C386 H380 0.949 . S
C386 C390 1.368 . S
C387 C368 1.429 . S
C387 C381 1.429 . S
C387 C388 1.523 . S
C388 C369 1.368 . S
C388 C382 1.368 . S
C388 C387 1.523 . S
C389 C373 1.429 . S
C389 C385 1.429 . S
C389 C390 1.523 . S
C390 C374 1.368 . S
C390 C386 1.368 . S
C390 C389 1.523 . S
H391 C366 0.950 . S
H392 C368 0.950 . S
H393 C369 0.949 . S
H394 C371 0.950 . S
H395 C373 0.950 . S
C396 C397 1.349 . S
C396 C398 1.327 . S
C396 H421 0.950 . S
C397 C396 1.349 . S
C397 C413 1.349 . S
C398 C396 1.327 . S
C398 C417 1.429 . S
C398 H422 0.950 . S
C399 C416 1.574 . S
C399 C418 1.368 . S
C399 H423 0.949 . S
H400 C404 0.949 . S
C401 C402 1.349 . S
C401 C403 1.327 . S
C401 H424 0.950 . S
C402 C401 1.349 . S
C402 C414 1.349 . S
C403 C401 1.327 . S
C403 C419 1.429 . S
C403 H425 0.950 . S
C404 H400 0.949 . S
C404 C412 1.574 . S
C404 C420 1.368 . S
H405 C413 0.950 . S
H406 C411 0.950 . S
H407 C412 0.949 . S
H408 C414 0.950 . S
H409 C415 0.950 . S
H410 C416 0.949 . S
C411 H406 0.950 . S
C411 C413 1.327 . S
C411 C417 1.429 . S
C412 C404 1.574 . S
C412 H407 0.949 . S
C412 C418 1.368 . S
C413 C397 1.349 . S
C413 H405 0.950 . S
C413 C411 1.327 . S
C414 C402 1.349 . S
C414 H408 0.950 . S
C414 C415 1.327 . S
C415 H409 0.950 . S
C415 C414 1.327 . S
C415 C419 1.429 . S
C416 C399 1.574 . S
C416 H410 0.949 . S
C416 C420 1.368 . S
C417 C398 1.429 . S
C417 C411 1.429 . S
C417 C418 1.523 . S
C418 C399 1.368 . S
C418 C412 1.368 . S
C418 C417 1.523 . S
C419 C403 1.429 . S
C419 C415 1.429 . S
C419 C420 1.523 . S
C420 C404 1.368 . S
C420 C416 1.368 . S
C420 C419 1.523 . S
H421 C396 0.950 . S
H422 C398 0.950 . S
H423 C399 0.949 . S
H424 C401 0.950 . S
H425 C403 0.950 . S
C426 C427 1.349 . S
C426 C428 1.327 . S
C426 H451 0.950 . S
C427 C426 1.349 . S
C427 C443 1.349 . S
C428 C426 1.327 . S
C428 C447 1.429 . S
C428 H452 0.950 . S
C429 C446 1.574 . S
C429 C448 1.368 . S
C429 H453 0.949 . S
H430 C434 0.949 . S
C431 C432 1.349 . S
C431 C433 1.327 . S
C431 H454 0.950 . S
C432 C431 1.349 . S
C432 C444 1.349 . S
C433 C431 1.327 . S
C433 C449 1.429 . S
C433 H455 0.950 . S
C434 H430 0.949 . S
C434 C442 1.574 . S
C434 C450 1.368 . S
H435 C443 0.950 . S
H436 C441 0.950 . S
H437 C442 0.949 . S
H438 C444 0.950 . S
H439 C445 0.950 . S
H440 C446 0.949 . S
C441 H436 0.950 . S
C441 C443 1.327 . S
C441 C447 1.429 . S
C442 C434 1.574 . S
C442 H437 0.949 . S
C442 C448 1.368 . S
C443 C427 1.349 . S
C443 H435 0.950 . S
C443 C441 1.327 . S
C444 C432 1.349 . S
C444 H438 0.950 . S
C444 C445 1.327 . S
C445 H439 0.950 . S
C445 C444 1.327 . S
C445 C449 1.429 . S
C446 C429 1.574 . S
C446 H440 0.949 . S
C446 C450 1.368 . S
C447 C428 1.429 . S
C447 C441 1.429 . S
C447 C448 1.523 . S
C448 C429 1.368 . S
C448 C442 1.368 . S
C448 C447 1.523 . S
C449 C433 1.429 . S
C449 C445 1.429 . S
C449 C450 1.523 . S
C450 C434 1.368 . S
C450 C446 1.368 . S
C450 C449 1.523 . S
H451 C426 0.950 . S
H452 C428 0.950 . S
H453 C429 0.949 . S
H454 C431 0.950 . S
H455 C433 0.950 . S
C456 C457 1.349 . S
C456 C458 1.327 . S
C456 H481 0.950 . S
C457 C456 1.349 . S
C457 C473 1.349 . S
C458 C456 1.327 . S
C458 C477 1.429 . S
C458 H482 0.950 . S
C459 C476 1.574 . S
C459 C478 1.368 . S
C459 H483 0.949 . S
H460 C464 0.949 . S
C461 C462 1.349 . S
C461 C463 1.327 . S
C461 H484 0.950 . S
C462 C461 1.349 . S
C462 C474 1.349 . S
C463 C461 1.327 . S
C463 C479 1.429 . S
C463 H485 0.950 . S
C464 H460 0.949 . S
C464 C472 1.574 . S
C464 C480 1.368 . S
H465 C473 0.950 . S
H466 C471 0.950 . S
H467 C472 0.949 . S
H468 C474 0.950 . S
H469 C475 0.950 . S
H470 C476 0.949 . S
C471 H466 0.950 . S
C471 C473 1.327 . S
C471 C477 1.429 . S
C472 C464 1.574 . S
C472 H467 0.949 . S
C472 C478 1.368 . S
C473 C457 1.349 . S
C473 H465 0.950 . S
C473 C471 1.327 . S
C474 C462 1.349 . S
C474 H468 0.950 . S
C474 C475 1.327 . S
C475 H469 0.950 . S
C475 C474 1.327 . S
C475 C479 1.429 . S
C476 C459 1.574 . S
C476 H470 0.949 . S
C476 C480 1.368 . S
C477 C458 1.429 . S
C477 C471 1.429 . S
C477 C478 1.523 . S
C478 C459 1.368 . S
C478 C472 1.368 . S
C478 C477 1.523 . S
C479 C463 1.429 . S
C479 C475 1.429 . S
C479 C480 1.523 . S
C480 C464 1.368 . S
C480 C476 1.368 . S
C480 C479 1.523 . S
H481 C456 0.950 . S
H482 C458 0.950 . S
H483 C459 0.949 . S
H484 C461 0.950 . S
H485 C463 0.950 . S
C486 C487 1.349 . S
C486 C488 1.327 . S
C486 H511 0.950 . S
C487 C486 1.349 . S
C487 C503 1.349 . S
C488 C486 1.327 . S
C488 C507 1.429 . S
C488 H512 0.950 . S
C489 C506 1.574 . S
C489 C508 1.368 . S
C489 H513 0.949 . S
H490 C494 0.949 . S
C491 C492 1.349 . S
C491 C493 1.327 . S
C491 H514 0.950 . S
C492 C491 1.349 . S
C492 C504 1.349 . S
C493 C491 1.327 . S
C493 C509 1.429 . S
C493 H515 0.950 . S
C494 H490 0.949 . S
C494 C502 1.574 . S
C494 C510 1.368 . S
H495 C503 0.950 . S
H496 C501 0.950 . S
H497 C502 0.949 . S
H498 C504 0.950 . S
H499 C505 0.950 . S
H500 C506 0.949 . S
C501 H496 0.950 . S
C501 C503 1.327 . S
C501 C507 1.429 . S
C502 C494 1.574 . S
C502 H497 0.949 . S
C502 C508 1.368 . S
C503 C487 1.349 . S
C503 H495 0.950 . S
C503 C501 1.327 . S
C504 C492 1.349 . S
C504 H498 0.950 . S
C504 C505 1.327 . S
C505 H499 0.950 . S
C505 C504 1.327 . S
C505 C509 1.429 . S
C506 C489 1.574 . S
C506 H500 0.949 . S
C506 C510 1.368 . S
C507 C488 1.429 . S
C507 C501 1.429 . S
C507 C508 1.523 . S
C508 C489 1.368 . S
C508 C502 1.368 . S
C508 C507 1.523 . S
C509 C493 1.429 . S
C509 C505 1.429 . S
C509 C510 1.523 . S
C510 C494 1.368 . S
C510 C506 1.368 . S
C510 C509 1.523 . S
H511 C486 0.950 . S
H512 C488 0.950 . S
H513 C489 0.949 . S
H514 C491 0.950 . S
H515 C493 0.950 . S
C516 C517 1.349 . S
C516 C518 1.327 . S
C516 H541 0.950 . S
C517 C516 1.349 . S
C517 C533 1.349 . S
C518 C516 1.327 . S
C518 C537 1.429 . S
C518 H542 0.950 . S
C519 C536 1.574 . S
C519 C538 1.368 . S
C519 H543 0.949 . S
H520 C524 0.949 . S
C521 C522 1.349 . S
C521 C523 1.327 . S
C521 H544 0.950 . S
C522 C521 1.349 . S
C522 C534 1.349 . S
C523 C521 1.327 . S
C523 C539 1.429 . S
C523 H545 0.950 . S
C524 H520 0.949 . S
C524 C532 1.574 . S
C524 C540 1.368 . S
H525 C533 0.950 . S
H526 C531 0.950 . S
H527 C532 0.949 . S
H528 C534 0.950 . S
H529 C535 0.950 . S
H530 C536 0.949 . S
C531 H526 0.950 . S
C531 C533 1.327 . S
C531 C537 1.429 . S
C532 C524 1.574 . S
C532 H527 0.949 . S
C532 C538 1.368 . S
C533 C517 1.349 . S
C533 H525 0.950 . S
C533 C531 1.327 . S
C534 C522 1.349 . S
C534 H528 0.950 . S
C534 C535 1.327 . S
C535 H529 0.950 . S
C535 C534 1.327 . S
C535 C539 1.429 . S
C536 C519 1.574 . S
C536 H530 0.949 . S
C536 C540 1.368 . S
C537 C518 1.429 . S
C537 C531 1.429 . S
C537 C538 1.523 . S
C538 C519 1.368 . S
C538 C532 1.368 . S
C538 C537 1.523 . S
C539 C523 1.429 . S
C539 C535 1.429 . S
C539 C540 1.523 . S
C540 C524 1.368 . S
C540 C536 1.368 . S
C540 C539 1.523 . S
H541 C516 0.950 . S
H542 C518 0.950 . S
H543 C519 0.949 . S
H544 C521 0.950 . S
H545 C523 0.950 . S
C546 C547 1.349 . S
C546 C548 1.327 . S
C546 H571 0.950 . S
C547 C546 1.349 . S
C547 C563 1.349 . S
C548 C546 1.327 . S
C548 C567 1.429 . S
C548 H572 0.950 . S
C549 C566 1.574 . S
C549 C568 1.368 . S
C549 H573 0.949 . S
H550 C554 0.949 . S
C551 C552 1.349 . S
C551 C553 1.327 . S
C551 H574 0.950 . S
C552 C551 1.349 . S
C552 C564 1.349 . S
C553 C551 1.327 . S
C553 C569 1.429 . S
C553 H575 0.950 . S
C554 H550 0.949 . S
C554 C562 1.574 . S
C554 C570 1.368 . S
H555 C563 0.950 . S
H556 C561 0.950 . S
H557 C562 0.949 . S
H558 C564 0.950 . S
H559 C565 0.950 . S
H560 C566 0.949 . S
C561 H556 0.950 . S
C561 C563 1.327 . S
C561 C567 1.429 . S
C562 C554 1.574 . S
C562 H557 0.949 . S
C562 C568 1.368 . S
C563 C547 1.349 . S
C563 H555 0.950 . S
C563 C561 1.327 . S
C564 C552 1.349 . S
C564 H558 0.950 . S
C564 C565 1.327 . S
C565 H559 0.950 . S
C565 C564 1.327 . S
C565 C569 1.429 . S
C566 C549 1.574 . S
C566 H560 0.949 . S
C566 C570 1.368 . S
C567 C548 1.429 . S
C567 C561 1.429 . S
C567 C568 1.523 . S
C568 C549 1.368 . S
C568 C562 1.368 . S
C568 C567 1.523 . S
C569 C553 1.429 . S
C569 C565 1.429 . S
C569 C570 1.523 . S
C570 C554 1.368 . S
C570 C566 1.368 . S
C570 C569 1.523 . S
H571 C546 0.950 . S
H572 C548 0.950 . S
H573 C549 0.949 . S
H574 C551 0.950 . S
H575 C553 0.950 . S
C576 C577 1.349 . S
C576 C578 1.327 . S
C576 H601 0.950 . S
C577 C576 1.349 . S
C577 C593 1.349 . S
C578 C576 1.327 . S
C578 C597 1.429 . S
C578 H602 0.950 . S
C579 C596 1.574 . S
C579 C598 1.368 . S
C579 H603 0.949 . S
H580 C584 0.949 . S
C581 C582 1.349 . S
C581 C583 1.327 . S
C581 H604 0.950 . S
C582 C581 1.349 . S
C582 C594 1.349 . S
C583 C581 1.327 . S
C583 C599 1.429 . S
C583 H605 0.950 . S
C584 H580 0.949 . S
C584 C592 1.574 . S
C584 C600 1.368 . S
H585 C593 0.950 . S
H586 C591 0.950 . S
H587 C592 0.949 . S
H588 C594 0.950 . S
H589 C595 0.950 . S
H590 C596 0.949 . S
C591 H586 0.950 . S
C591 C593 1.327 . S
C591 C597 1.429 . S
C592 C584 1.574 . S
C592 H587 0.949 . S
C592 C598 1.368 . S
C593 C577 1.349 . S
C593 H585 0.950 . S
C593 C591 1.327 . S
C594 C582 1.349 . S
C594 H588 0.950 . S
C594 C595 1.327 . S
C595 H589 0.950 . S
C595 C594 1.327 . S
C595 C599 1.429 . S
C596 C579 1.574 . S
C596 H590 0.949 . S
C596 C600 1.368 . S
C597 C578 1.429 . S
C597 C591 1.429 . S
C597 C598 1.523 . S
C598 C579 1.368 . S
C598 C592 1.368 . S
C598 C597 1.523 . S
C599 C583 1.429 . S
C599 C595 1.429 . S
C599 C600 1.523 . S
C600 C584 1.368 . S
C600 C596 1.368 . S
C600 C599 1.523 . S
H601 C576 0.950 . S
H602 C578 0.950 . S
H603 C579 0.949 . S
H604 C581 0.950 . S
H605 C583 0.950 . S
C606 C607 1.349 . S
C606 C608 1.327 . S
C606 H631 0.950 . S
C607 C606 1.349 . S
C607 C623 1.349 . S
C608 C606 1.327 . S
C608 C627 1.429 . S
C608 H632 0.950 . S
C609 C626 1.574 . S
C609 C628 1.368 . S
C609 H633 0.949 . S
H610 C614 0.949 . S
C611 C612 1.349 . S
C611 C613 1.327 . S
C611 H634 0.950 . S
C612 C611 1.349 . S
C612 C624 1.349 . S
C613 C611 1.327 . S
C613 C629 1.429 . S
C613 H635 0.950 . S
C614 H610 0.949 . S
C614 C622 1.574 . S
C614 C630 1.368 . S
H615 C623 0.950 . S
H616 C621 0.950 . S
H617 C622 0.949 . S
H618 C624 0.950 . S
H619 C625 0.950 . S
H620 C626 0.949 . S
C621 H616 0.950 . S
C621 C623 1.327 . S
C621 C627 1.429 . S
C622 C614 1.574 . S
C622 H617 0.949 . S
C622 C628 1.368 . S
C623 C607 1.349 . S
C623 H615 0.950 . S
C623 C621 1.327 . S
C624 C612 1.349 . S
C624 H618 0.950 . S
C624 C625 1.327 . S
C625 H619 0.950 . S
C625 C624 1.327 . S
C625 C629 1.429 . S
C626 C609 1.574 . S
C626 H620 0.949 . S
C626 C630 1.368 . S
C627 C608 1.429 . S
C627 C621 1.429 . S
C627 C628 1.523 . S
C628 C609 1.368 . S
C628 C622 1.368 . S
C628 C627 1.523 . S
C629 C613 1.429 . S
C629 C625 1.429 . S
C629 C630 1.523 . S
C630 C614 1.368 . S
C630 C626 1.368 . S
C630 C629 1.523 . S
H631 C606 0.950 . S
H632 C608 0.950 . S
H633 C609 0.949 . S
H634 C611 0.950 . S
H635 C613 0.950 . S
C636 C637 1.349 . S
C636 C638 1.327 . S
C636 H661 0.950 . S
C637 C636 1.349 . S
C637 C653 1.349 . S
C638 C636 1.327 . S
C638 C657 1.429 . S
C638 H662 0.950 . S
C639 C656 1.574 . S
C639 C658 1.368 . S
C639 H663 0.949 . S
H640 C644 0.949 . S
C641 C642 1.349 . S
C641 C643 1.327 . S
C641 H664 0.950 . S
C642 C641 1.349 . S
C642 C654 1.349 . S
C643 C641 1.327 . S
C643 C659 1.429 . S
C643 H665 0.950 . S
C644 H640 0.949 . S
C644 C652 1.574 . S
C644 C660 1.368 . S
H645 C653 0.950 . S
H646 C651 0.950 . S
H647 C652 0.949 . S
H648 C654 0.950 . S
H649 C655 0.950 . S
H650 C656 0.949 . S
C651 H646 0.950 . S
C651 C653 1.327 . S
C651 C657 1.429 . S
C652 C644 1.574 . S
C652 H647 0.949 . S
C652 C658 1.368 . S
C653 C637 1.349 . S
C653 H645 0.950 . S
C653 C651 1.327 . S
C654 C642 1.349 . S
C654 H648 0.950 . S
C654 C655 1.327 . S
C655 H649 0.950 . S
C655 C654 1.327 . S
C655 C659 1.429 . S
C656 C639 1.574 . S
C656 H650 0.949 . S
C656 C660 1.368 . S
C657 C638 1.429 . S
C657 C651 1.429 . S
C657 C658 1.523 . S
C658 C639 1.368 . S
C658 C652 1.368 . S
C658 C657 1.523 . S
C659 C643 1.429 . S
C659 C655 1.429 . S
C659 C660 1.523 . S
C660 C644 1.368 . S
C660 C656 1.368 . S
C660 C659 1.523 . S
H661 C636 0.950 . S
H662 C638 0.950 . S
H663 C639 0.949 . S
H664 C641 0.950 . S
H665 C643 0.950 . S
C666 C667 1.349 . S
C666 C668 1.327 . S
C666 H691 0.950 . S
C667 C666 1.349 . S
C667 C683 1.349 . S
C668 C666 1.327 . S
C668 C687 1.429 . S
C668 H692 0.950 . S
C669 C686 1.574 . S
C669 C688 1.368 . S
C669 H693 0.949 . S
H670 C674 0.949 . S
C671 C672 1.349 . S
C671 C673 1.327 . S
C671 H694 0.950 . S
C672 C671 1.349 . S
C672 C684 1.349 . S
C673 C671 1.327 . S
C673 C689 1.429 . S
C673 H695 0.950 . S
C674 H670 0.949 . S
C674 C682 1.574 . S
C674 C690 1.368 . S
H675 C683 0.950 . S
H676 C681 0.950 . S
H677 C682 0.949 . S
H678 C684 0.950 . S
H679 C685 0.950 . S
H680 C686 0.949 . S
C681 H676 0.950 . S
C681 C683 1.327 . S
C681 C687 1.429 . S
C682 C674 1.574 . S
C682 H677 0.949 . S
C682 C688 1.368 . S
C683 C667 1.349 . S
C683 H675 0.950 . S
C683 C681 1.327 . S
C684 C672 1.349 . S
C684 H678 0.950 . S
C684 C685 1.327 . S
C685 H679 0.950 . S
C685 C684 1.327 . S
C685 C689 1.429 . S
C686 C669 1.574 . S
C686 H680 0.949 . S
C686 C690 1.368 . S
C687 C668 1.429 . S
C687 C681 1.429 . S
C687 C688 1.523 . S
C688 C669 1.368 . S
C688 C682 1.368 . S
C688 C687 1.523 . S
C689 C673 1.429 . S
C689 C685 1.429 . S
C689 C690 1.523 . S
C690 C674 1.368 . S
C690 C686 1.368 . S
C690 C689 1.523 . S
H691 C666 0.950 . S
H692 C668 0.950 . S
H693 C669 0.949 . S
H694 C671 0.950 . S
H695 C673 0.950 . S
C696 C697 1.349 . S
C696 C698 1.327 . S
C696 H721 0.950 . S
C697 C696 1.349 . S
C697 C713 1.349 . S
C698 C696 1.327 . S
C698 C717 1.429 . S
C698 H722 0.950 . S
C699 C716 1.574 . S
C699 C718 1.368 . S
C699 H723 0.949 . S
H700 C704 0.949 . S
C701 C702 1.349 . S
C701 C703 1.327 . S
C701 H724 0.950 . S
C702 C701 1.349 . S
C702 C714 1.349 . S
C703 C701 1.327 . S
C703 C719 1.429 . S
C703 H725 0.950 . S
C704 H700 0.949 . S
C704 C712 1.574 . S
C704 C720 1.368 . S
H705 C713 0.950 . S
H706 C711 0.950 . S
H707 C712 0.949 . S
H708 C714 0.950 . S
H709 C715 0.950 . S
H710 C716 0.949 . S
C711 H706 0.950 . S
C711 C713 1.327 . S
C711 C717 1.429 . S
C712 C704 1.574 . S
C712 H707 0.949 . S
C712 C718 1.368 . S
C713 C697 1.349 . S
C713 H705 0.950 . S
C713 C711 1.327 . S
C714 C702 1.349 . S
C714 H708 0.950 . S
C714 C715 1.327 . S
C715 H709 0.950 . S
C715 C714 1.327 . S
C715 C719 1.429 . S
C716 C699 1.574 . S
C716 H710 0.949 . S
C716 C720 1.368 . S
C717 C698 1.429 . S
C717 C711 1.429 . S
C717 C718 1.523 . S
C718 C699 1.368 . S
C718 C712 1.368 . S
C718 C717 1.523 . S
C719 C703 1.429 . S
C719 C715 1.429 . S
C719 C720 1.523 . S
C720 C704 1.368 . S
C720 C716 1.368 . S
C720 C719 1.523 . S
H721 C696 0.950 . S
H722 C698 0.950 . S
H723 C699 0.949 . S
H724 C701 0.950 . S
H725 C703 0.950 . S
C726 C727 1.349 . S
C726 C728 1.327 . S
C726 H751 0.950 . S
C727 C726 1.349 . S
C727 C743 1.349 . S
C728 C726 1.327 . S
C728 C747 1.429 . S
C728 H752 0.950 . S
C729 C746 1.574 . S
C729 C748 1.368 . S
C729 H753 0.949 . S
H730 C734 0.949 . S
C731 C732 1.349 . S
C731 C733 1.327 . S
C731 H754 0.950 . S
C732 C731 1.349 . S
C732 C744 1.349 . S
C733 C731 1.327 . S
C733 C749 1.429 . S
C733 H755 0.950 . S
C734 H730 0.949 . S
C734 C742 1.574 . S
C734 C750 1.368 . S
H735 C743 0.950 . S
H736 C741 0.950 . S
H737 C742 0.949 . S
H738 C744 0.950 . S
H739 C745 0.950 . S
H740 C746 0.949 . S
C741 H736 0.950 . S
C741 C743 1.327 . S
C741 C747 1.429 . S
C742 C734 1.574 . S
C742 H737 0.949 . S
C742 C748 1.368 . S
C743 C727 1.349 . S
C743 H735 0.950 . S
C743 C741 1.327 . S
C744 C732 1.349 . S
C744 H738 0.950 . S
C744 C745 1.327 . S
C745 H739 0.950 . S
C745 C744 1.327 . S
C745 C749 1.429 . S
C746 C729 1.574 . S
C746 H740 0.949 . S
C746 C750 1.368 . S
C747 C728 1.429 . S
C747 C741 1.429 . S
C747 C748 1.523 . S
C748 C729 1.368 . S
C748 C742 1.368 . S
C748 C747 1.523 . S
C749 C733 1.429 . S
C749 C745 1.429 . S
C749 C750 1.523 . S
C750 C734 1.368 . S
C750 C746 1.368 . S
C750 C749 1.523 . S
H751 C726 0.950 . S
H752 C728 0.950 . S
H753 C729 0.949 . S
H754 C731 0.950 . S
H755 C733 0.950 . S
C756 C757 1.349 . S
C756 C758 1.327 . S
C756 H781 0.950 . S
C757 C756 1.349 . S
C757 C773 1.349 . S
C758 C756 1.327 . S
C758 C777 1.429 . S
C758 H782 0.950 . S
C759 C776 1.574 . S
C759 C778 1.368 . S
C759 H783 0.949 . S
H760 C764 0.949 . S
C761 C762 1.349 . S
C761 C763 1.327 . S
C761 H784 0.950 . S
C762 C761 1.349 . S
C762 C774 1.349 . S
C763 C761 1.327 . S
C763 C779 1.429 . S
C763 H785 0.950 . S
C764 H760 0.949 . S
C764 C772 1.574 . S
C764 C780 1.368 . S
H765 C773 0.950 . S
H766 C771 0.950 . S
H767 C772 0.949 . S
H768 C774 0.950 . S
H769 C775 0.950 . S
H770 C776 0.949 . S
C771 H766 0.950 . S
C771 C773 1.327 . S
C771 C777 1.429 . S
C772 C764 1.574 . S
C772 H767 0.949 . S
C772 C778 1.368 . S
C773 C757 1.349 . S
C773 H765 0.950 . S
C773 C771 1.327 . S
C774 C762 1.349 . S
C774 H768 0.950 . S
C774 C775 1.327 . S
C775 H769 0.950 . S
C775 C774 1.327 . S
C775 C779 1.429 . S
C776 C759 1.574 . S
C776 H770 0.949 . S
C776 C780 1.368 . S
C777 C758 1.429 . S
C777 C771 1.429 . S
C777 C778 1.523 . S
C778 C759 1.368 . S
C778 C772 1.368 . S
C778 C777 1.523 . S
C779 C763 1.429 . S
C779 C775 1.429 . S
C779 C780 1.523 . S
C780 C764 1.368 . S
C780 C776 1.368 . S
C780 C779 1.523 . S
H781 C756 0.950 . S
H782 C758 0.950 . S
H783 C759 0.949 . S
H784 C761 0.950 . S
H785 C763 0.950 . S
C786 C787 1.349 . S
C786 C788 1.327 . S
C786 H811 0.950 1_655 S
C787 C786 1.349 . S
C787 C803 1.349 . S
C788 C786 1.327 . S
C788 C807 1.429 . S
C788 H812 0.950 . S
C789 C806 1.574 . S
C789 C808 1.368 . S
C789 H813 0.949 . S
H790 C794 0.949 . S
C791 C792 1.349 . S
C791 C793 1.327 . S
C791 H814 0.950 . S
C792 C791 1.349 . S
C792 C804 1.349 . S
C793 C791 1.327 . S
C793 C809 1.429 . S
C793 H815 0.950 . S
C794 H790 0.949 . S
C794 C802 1.574 . S
C794 C810 1.368 . S
H795 C803 0.950 . S
H796 C801 0.950 . S
H797 C802 0.949 . S
H798 C804 0.950 . S
H799 C805 0.950 . S
H800 C806 0.949 . S
C801 H796 0.950 . S
C801 C803 1.327 . S
C801 C807 1.429 . S
C802 C794 1.574 . S
C802 H797 0.949 . S
C802 C808 1.368 . S
C803 C787 1.349 . S
C803 H795 0.950 . S
C803 C801 1.327 . S
C804 C792 1.349 . S
C804 H798 0.950 . S
C804 C805 1.327 . S
C805 H799 0.950 . S
C805 C804 1.327 . S
C805 C809 1.429 . S
C806 C789 1.574 . S
C806 H800 0.949 . S
C806 C810 1.368 . S
C807 C788 1.429 . S
C807 C801 1.429 . S
C807 C808 1.523 . S
C808 C789 1.368 . S
C808 C802 1.368 . S
C808 C807 1.523 . S
C809 C793 1.429 . S
C809 C805 1.429 . S
C809 C810 1.523 . S
C810 C794 1.368 . S
C810 C806 1.368 . S
C810 C809 1.523 . S
H811 C786 0.950 1_455 S
H812 C788 0.950 . S
H813 C789 0.949 . S
H814 C791 0.950 . S
H815 C793 0.950 . S
C816 C817 1.349 . S
C816 C818 1.327 . S
C816 H841 0.950 . S
C817 C816 1.349 . S
C817 C833 1.349 . S
C818 C816 1.327 . S
C818 C837 1.429 . S
C818 H842 0.950 . S
C819 C836 1.574 . S
C819 C838 1.368 . S
C819 H843 0.949 . S
H820 C824 0.949 . S
C821 C822 1.349 . S
C821 C823 1.327 . S
C821 H844 0.950 . S
C822 C821 1.349 . S
C822 C834 1.349 . S
C823 C821 1.327 . S
C823 C839 1.429 . S
C823 H845 0.950 . S
C824 H820 0.949 . S
C824 C832 1.574 . S
C824 C840 1.368 . S
H825 C833 0.950 . S
H826 C831 0.950 . S
H827 C832 0.949 . S
H828 C834 0.950 . S
H829 C835 0.950 . S
H830 C836 0.949 . S
C831 H826 0.950 . S
C831 C833 1.327 . S
C831 C837 1.429 . S
C832 C824 1.574 . S
C832 H827 0.949 . S
C832 C838 1.368 . S
C833 C817 1.349 . S
C833 H825 0.950 . S
C833 C831 1.327 . S
C834 C822 1.349 . S
C834 H828 0.950 . S
C834 C835 1.327 . S
C835 H829 0.950 . S
C835 C834 1.327 . S
C835 C839 1.429 . S
C836 C819 1.574 . S
C836 H830 0.949 . S
C836 C840 1.368 . S
C837 C818 1.429 . S
C837 C831 1.429 . S
C837 C838 1.523 . S
C838 C819 1.368 . S
C838 C832 1.368 . S
C838 C837 1.523 . S
C839 C823 1.429 . S
C839 C835 1.429 . S
C839 C840 1.523 . S
C840 C824 1.368 . S
C840 C836 1.368 . S
C840 C839 1.523 . S
H841 C816 0.950 . S
H842 C818 0.950 . S
H843 C819 0.949 . S
H844 C821 0.950 . S
H845 C823 0.950 . S
C846 C847 1.349 . S
C846 C848 1.327 . S
C846 H871 0.950 . S
C847 C846 1.349 . S
C847 C863 1.349 . S
C848 C846 1.327 . S
C848 C867 1.429 . S
C848 H872 0.950 . S
C849 C866 1.574 . S
C849 C868 1.368 . S
C849 H873 0.949 . S
H850 C854 0.949 . S
C851 C852 1.349 . S
C851 C853 1.327 . S
C851 H874 0.950 . S
C852 C851 1.349 . S
C852 C864 1.349 . S
C853 C851 1.327 . S
C853 C869 1.429 . S
C853 H875 0.950 . S
C854 H850 0.949 . S
C854 C862 1.574 . S
C854 C870 1.368 . S
H855 C863 0.950 . S
H856 C861 0.950 . S
H857 C862 0.949 . S
H858 C864 0.950 . S
H859 C865 0.950 . S
H860 C866 0.949 . S
C861 H856 0.950 . S
C861 C863 1.327 . S
C861 C867 1.429 . S
C862 C854 1.574 . S
C862 H857 0.949 . S
C862 C868 1.368 . S
C863 C847 1.349 . S
C863 H855 0.950 . S
C863 C861 1.327 . S
C864 C852 1.349 . S
C864 H858 0.950 . S
C864 C865 1.327 . S
C865 H859 0.950 . S
C865 C864 1.327 . S
C865 C869 1.429 . S
C866 C849 1.574 . S
C866 H860 0.949 . S
C866 C870 1.368 . S
C867 C848 1.429 . S
C867 C861 1.429 . S
C867 C868 1.523 . S
C868 C849 1.368 . S
C868 C862 1.368 . S
C868 C867 1.523 . S
C869 C853 1.429 . S
C869 C865 1.429 . S
C869 C870 1.523 . S
C870 C854 1.368 . S
C870 C866 1.368 . S
C870 C869 1.523 . S
H871 C846 0.950 . S
H872 C848 0.950 . S
H873 C849 0.949 . S
H874 C851 0.950 . S
H875 C853 0.950 . S
C876 C877 1.349 . S
C876 C878 1.327 . S
C876 H901 0.950 . S
C877 C876 1.349 . S
C877 C893 1.349 . S
C878 C876 1.327 . S
C878 C897 1.429 . S
C878 H902 0.950 . S
C879 C896 1.574 . S
C879 C898 1.368 . S
C879 H903 0.949 . S
H880 C884 0.949 . S
C881 C882 1.349 . S
C881 C883 1.327 . S
C881 H904 0.950 . S
C882 C881 1.349 . S
C882 C894 1.349 . S
C883 C881 1.327 . S
C883 C899 1.429 . S
C883 H905 0.950 . S
C884 H880 0.949 . S
C884 C892 1.574 . S
C884 C900 1.368 . S
H885 C893 0.950 . S
H886 C891 0.950 . S
H887 C892 0.949 . S
H888 C894 0.950 . S
H889 C895 0.950 . S
H890 C896 0.949 . S
C891 H886 0.950 . S
C891 C893 1.327 . S
C891 C897 1.429 . S
C892 C884 1.574 . S
C892 H887 0.949 . S
C892 C898 1.368 . S
C893 C877 1.349 . S
C893 H885 0.950 . S
C893 C891 1.327 . S
C894 C882 1.349 . S
C894 H888 0.950 . S
C894 C895 1.327 . S
C895 H889 0.950 . S
C895 C894 1.327 . S
C895 C899 1.429 . S
C896 C879 1.574 . S
C896 H890 0.949 . S
C896 C900 1.368 . S
C897 C878 1.429 . S
C897 C891 1.429 . S
C897 C898 1.523 . S
C898 C879 1.368 . S
C898 C892 1.368 . S
C898 C897 1.523 . S
C899 C883 1.429 . S
C899 C895 1.429 . S
C899 C900 1.523 . S
C900 C884 1.368 . S
C900 C896 1.368 . S
C900 C899 1.523 . S
H901 C876 0.950 . S
H902 C878 0.950 . S
H903 C879 0.949 . S
H904 C881 0.950 . S
H905 C883 0.950 . S
C906 C907 1.349 . S
C906 C908 1.327 . S
C906 H931 0.950 . S
C907 C906 1.349 . S
C907 C923 1.349 . S
C908 C906 1.327 . S
C908 C927 1.429 . S
C908 H932 0.950 . S
C909 C926 1.574 . S
C909 C928 1.368 . S
C909 H933 0.949 . S
H910 C914 0.949 . S
C911 C912 1.349 . S
C911 C913 1.327 . S
C911 H934 0.945 . S
C912 C911 1.349 . S
C912 C924 1.349 . S
C913 C911 1.327 . S
C913 C929 1.429 . S
C913 H935 0.950 . S
C914 H910 0.949 . S
C914 C922 1.574 . S
C914 C930 1.368 . S
H915 C923 0.950 . S
H916 C921 0.950 . S
H917 C922 0.949 . S
H918 C924 0.950 . S
H919 C925 0.950 . S
H920 C926 0.949 . S
C921 H916 0.950 . S
C921 C923 1.327 . S
C921 C927 1.429 . S
C922 C914 1.574 . S
C922 H917 0.949 . S
C922 C928 1.368 . S
C923 C907 1.349 . S
C923 H915 0.950 . S
C923 C921 1.327 . S
C924 C912 1.349 . S
C924 H918 0.950 . S
C924 C925 1.327 . S
C925 H919 0.950 . S
C925 C924 1.327 . S
C925 C929 1.429 . S
C926 C909 1.574 . S
C926 H920 0.949 . S
C926 C930 1.368 . S
C927 C908 1.429 . S
C927 C921 1.429 . S
C927 C928 1.523 . S
C928 C909 1.368 . S
C928 C922 1.368 . S
C928 C927 1.523 . S
C929 C913 1.429 . S
C929 C925 1.429 . S
C929 C930 1.523 . S
C930 C914 1.368 . S
C930 C926 1.368 . S
C930 C929 1.523 . S
H931 C906 0.950 . S
H932 C908 0.950 . S
H933 C909 0.949 . S
H934 C911 0.945 . S
H935 C913 0.950 . S
C936 C937 1.349 . S
C936 C938 1.327 . S
C936 H961 0.950 . S
C937 C936 1.349 . S
C937 C953 1.349 . S
C938 C936 1.327 . S
C938 C957 1.429 . S
C938 H962 0.950 . S
C939 C956 1.574 . S
C939 C958 1.368 . S
C939 H963 0.949 . S
H940 C944 0.949 . S
C941 C942 1.349 . S
C941 C943 1.327 . S
C941 H964 0.950 . S
C942 C941 1.349 . S
C942 C954 1.349 . S
C943 C941 1.327 . S
C943 C959 1.429 . S
C943 H965 0.950 . S
C944 H940 0.949 . S
C944 C952 1.574 . S
C944 C960 1.368 . S
H945 C953 0.950 . S
H946 C951 0.950 . S
H947 C952 0.949 . S
H948 C954 0.950 . S
H949 C955 0.950 . S
H950 C956 0.949 . S
C951 H946 0.950 . S
C951 C953 1.327 . S
C951 C957 1.429 . S
C952 C944 1.574 . S
C952 H947 0.949 . S
C952 C958 1.368 . S
C953 C937 1.349 . S
C953 H945 0.950 . S
C953 C951 1.327 . S
C954 C942 1.349 . S
C954 H948 0.950 . S
C954 C955 1.327 . S
C955 H949 0.950 . S
C955 C954 1.327 . S
C955 C959 1.429 . S
C956 C939 1.574 . S
C956 H950 0.949 . S
C956 C960 1.368 . S
C957 C938 1.429 . S
C957 C951 1.429 . S
C957 C958 1.523 . S
C958 C939 1.368 . S
C958 C952 1.368 . S
C958 C957 1.523 . S
C959 C943 1.429 . S
C959 C955 1.429 . S
C959 C960 1.523 . S
C960 C944 1.368 . S
C960 C956 1.368 . S
C960 C959 1.523 . S
H961 C936 0.950 . S
H962 C938 0.950 . S
H963 C939 0.949 . S
H964 C941 0.950 . S
H965 C943 0.950 . S
C966 C967 1.349 . S
C966 C968 1.327 . S
C966 H991 0.950 . S
C967 C966 1.349 . S
C967 C983 1.349 . S
C968 C966 1.327 . S
C968 C987 1.429 . S
C968 H992 0.950 . S
C969 C986 1.574 . S
C969 C988 1.368 . S
C969 H993 0.949 . S
H970 C974 0.949 . S
C971 C972 1.349 . S
C971 C973 1.327 . S
C971 H994 0.950 . S
C972 C971 1.349 . S
C972 C984 1.349 . S
C973 C971 1.327 . S
C973 C989 1.429 . S
C973 H995 0.950 . S
C974 H970 0.949 . S
C974 C982 1.574 . S
C974 C990 1.368 . S
H975 C983 0.950 . S
H976 C981 0.950 . S
H977 C982 0.949 . S
H978 C984 0.950 . S
H979 C985 0.950 . S
H980 C986 0.949 . S
C981 H976 0.950 . S
C981 C983 1.327 . S
C981 C987 1.429 . S
C982 C974 1.574 . S
C982 H977 0.949 . S
C982 C988 1.368 . S
C983 C967 1.349 . S
C983 H975 0.950 . S
C983 C981 1.327 . S
C984 C972 1.349 . S
C984 H978 0.950 . S
C984 C985 1.327 . S
C985 H979 0.950 . S
C985 C984 1.327 . S
C985 C989 1.429 . S
C986 C969 1.574 . S
C986 H980 0.949 . S
C986 C990 1.368 . S
C987 C968 1.429 . S
C987 C981 1.429 . S
C987 C988 1.523 . S
C988 C969 1.368 . S
C988 C982 1.368 . S
C988 C987 1.523 . S
C989 C973 1.429 . S
C989 C985 1.429 . S
C989 C990 1.523 . S
C990 C974 1.368 . S
C990 C986 1.368 . S
C990 C989 1.523 . S
H991 C966 0.950 . S
H992 C968 0.950 . S
H993 C969 0.949 . S
H994 C971 0.950 . S
H995 C973 0.950 . S
C996 C997 1.349 . S
C996 C998 1.327 . S
C996 H1021 0.950 . S
C997 C996 1.349 . S
C997 C1013 1.349 . S
C998 C996 1.327 . S
C998 C1017 1.429 . S
C998 H1022 0.950 . S
C999 C1016 1.574 . S
C999 C1018 1.368 . S
C999 H1023 0.949 . S
H1000 C1004 0.949 . S
C1001 C1002 1.349 . S
C1001 C1003 1.327 . S
C1001 H1024 0.950 . S
C1002 C1001 1.349 . S
C1002 C1014 1.349 . S
C1003 C1001 1.327 . S
C1003 C1019 1.429 . S
C1003 H1025 0.950 . S
C1004 H1000 0.949 . S
C1004 C1012 1.574 . S
C1004 C1020 1.368 . S
H1005 C1013 0.950 . S
H1006 C1011 0.950 . S
H1007 C1012 0.949 . S
H1008 C1014 0.950 . S
H1009 C1015 0.950 . S
H1010 C1016 0.949 . S
C1011 H1006 0.950 . S
C1011 C1013 1.327 . S
C1011 C1017 1.429 . S
C1012 C1004 1.574 . S
C1012 H1007 0.949 . S
C1012 C1018 1.368 . S
C1013 C997 1.349 . S
C1013 H1005 0.950 . S
C1013 C1011 1.327 . S
C1014 C1002 1.349 . S
C1014 H1008 0.950 . S
C1014 C1015 1.327 . S
C1015 H1009 0.950 . S
C1015 C1014 1.327 . S
C1015 C1019 1.429 . S
C1016 C999 1.574 . S
C1016 H1010 0.949 . S
C1016 C1020 1.368 . S
C1017 C998 1.429 . S
C1017 C1011 1.429 . S
C1017 C1018 1.523 . S
C1018 C999 1.368 . S
C1018 C1012 1.368 . S
C1018 C1017 1.523 . S
C1019 C1003 1.429 . S
C1019 C1015 1.429 . S
C1019 C1020 1.523 . S
C1020 C1004 1.368 . S
C1020 C1016 1.368 . S
C1020 C1019 1.523 . S
H1021 C996 0.950 . S
H1022 C998 0.950 . S
H1023 C999 0.949 . S
H1024 C1001 0.950 . S
H1025 C1003 0.950 . S
C1026 C1027 1.349 . S
C1026 C1028 1.327 . S
C1026 H1051 0.950 . S
C1027 C1026 1.349 . S
C1027 C1043 1.349 . S
C1028 C1026 1.327 . S
C1028 C1047 1.429 . S
C1028 H1052 0.950 . S
C1029 C1046 1.574 . S
C1029 C1048 1.368 . S
C1029 H1053 0.949 . S
H1030 C1034 0.949 . S
C1031 C1032 1.349 . S
C1031 C1033 1.327 . S
C1031 H1054 0.950 . S
C1032 C1031 1.349 . S
C1032 C1044 1.349 . S
C1033 C1031 1.327 . S
C1033 C1049 1.429 . S
C1033 H1055 0.950 . S
C1034 H1030 0.949 . S
C1034 C1042 1.574 . S
C1034 C1050 1.368 . S
H1035 C1043 0.950 . S
H1036 C1041 0.950 . S
H1037 C1042 0.949 . S
H1038 C1044 0.950 . S
H1039 C1045 0.950 . S
H1040 C1046 0.949 . S
C1041 H1036 0.950 . S
C1041 C1043 1.327 . S
C1041 C1047 1.429 . S
C1042 C1034 1.574 . S
C1042 H1037 0.949 . S
C1042 C1048 1.368 . S
C1043 C1027 1.349 . S
C1043 H1035 0.950 . S
C1043 C1041 1.327 . S
C1044 C1032 1.349 . S
C1044 H1038 0.950 . S
C1044 C1045 1.327 . S
C1045 H1039 0.950 . S
C1045 C1044 1.327 . S
C1045 C1049 1.429 . S
C1046 C1029 1.574 . S
C1046 H1040 0.949 . S
C1046 C1050 1.368 . S
C1047 C1028 1.429 . S
C1047 C1041 1.429 . S
C1047 C1048 1.523 . S
C1048 C1029 1.368 . S
C1048 C1042 1.368 . S
C1048 C1047 1.523 . S
C1049 C1033 1.429 . S
C1049 C1045 1.429 . S
C1049 C1050 1.523 . S
C1050 C1034 1.368 . S
C1050 C1046 1.368 . S
C1050 C1049 1.523 . S
H1051 C1026 0.950 . S
H1052 C1028 0.950 . S
H1053 C1029 0.949 . S
H1054 C1031 0.950 . S
H1055 C1033 0.950 . S
C1056 C1057 1.349 . S
C1056 C1058 1.327 . S
C1056 H1081 0.950 1_565 S
C1057 C1056 1.349 . S
C1057 C1073 1.349 . S
C1058 C1056 1.327 . S
C1058 C1077 1.429 . S
C1058 H1082 0.951 1_565 S
C1059 C1076 1.574 . S
C1059 C1078 1.368 . S
C1059 H1083 0.949 . S
H1060 C1064 0.949 . S
C1061 C1062 1.349 . S
C1061 C1063 1.327 . S
C1061 H1084 0.950 . S
C1062 C1061 1.349 . S
C1062 C1074 1.349 . S
C1063 C1061 1.327 . S
C1063 C1079 1.429 . S
C1063 H1085 0.950 . S
C1064 H1060 0.949 . S
C1064 C1072 1.574 . S
C1064 C1080 1.368 . S
H1065 C1073 0.950 . S
H1066 C1071 0.950 . S
H1067 C1072 0.949 . S
H1068 C1074 0.950 . S
H1069 C1075 0.950 . S
H1070 C1076 0.949 . S
C1071 H1066 0.950 . S
C1071 C1073 1.327 . S
C1071 C1077 1.429 . S
C1072 C1064 1.574 . S
C1072 H1067 0.949 . S
C1072 C1078 1.368 . S
C1073 C1057 1.349 . S
C1073 H1065 0.950 . S
C1073 C1071 1.327 . S
C1074 C1062 1.349 . S
C1074 H1068 0.950 . S
C1074 C1075 1.327 . S
C1075 H1069 0.950 . S
C1075 C1074 1.327 . S
C1075 C1079 1.429 . S
C1076 C1059 1.574 . S
C1076 H1070 0.949 . S
C1076 C1080 1.368 . S
C1077 C1058 1.429 . S
C1077 C1071 1.429 . S
C1077 C1078 1.523 . S
C1078 C1059 1.368 . S
C1078 C1072 1.368 . S
C1078 C1077 1.523 . S
C1079 C1063 1.429 . S
C1079 C1075 1.429 . S
C1079 C1080 1.523 . S
C1080 C1064 1.368 . S
C1080 C1076 1.368 . S
C1080 C1079 1.523 . S
H1081 C1056 0.950 1_545 S
H1082 C1058 0.951 1_545 S
H1083 C1059 0.949 . S
H1084 C1061 0.950 . S
H1085 C1063 0.950 . S
C1086 C1087 1.349 . S
C1086 C1088 1.327 . S
C1086 H1111 0.950 . S
C1087 C1086 1.349 . S
C1087 C1103 1.349 . S
C1088 C1086 1.327 . S
C1088 C1107 1.429 . S
C1088 H1112 0.950 . S
C1089 C1106 1.574 . S
C1089 C1108 1.368 . S
C1089 H1113 0.949 . S
H1090 C1094 0.949 . S
C1091 C1092 1.349 . S
C1091 C1093 1.327 . S
C1091 H1114 0.950 . S
C1092 C1091 1.349 . S
C1092 C1104 1.349 . S
C1093 C1091 1.327 . S
C1093 C1109 1.429 . S
C1093 H1115 0.950 . S
C1094 H1090 0.949 . S
C1094 C1102 1.574 . S
C1094 C1110 1.368 . S
H1095 C1103 0.950 . S
H1096 C1101 0.950 . S
H1097 C1102 0.949 . S
H1098 C1104 0.950 . S
H1099 C1105 0.950 . S
H1100 C1106 0.949 . S
C1101 H1096 0.950 . S
C1101 C1103 1.327 . S
C1101 C1107 1.429 . S
C1102 C1094 1.574 . S
C1102 H1097 0.949 . S
C1102 C1108 1.368 . S
C1103 C1087 1.349 . S
C1103 H1095 0.950 . S
C1103 C1101 1.327 . S
C1104 C1092 1.349 . S
C1104 H1098 0.950 . S
C1104 C1105 1.327 . S
C1105 H1099 0.950 . S
C1105 C1104 1.327 . S
C1105 C1109 1.429 . S
C1106 C1089 1.574 . S
C1106 H1100 0.949 . S
C1106 C1110 1.368 . S
C1107 C1088 1.429 . S
C1107 C1101 1.429 . S
C1107 C1108 1.523 . S
C1108 C1089 1.368 . S
C1108 C1102 1.368 . S
C1108 C1107 1.523 . S
C1109 C1093 1.429 . S
C1109 C1105 1.429 . S
C1109 C1110 1.523 . S
C1110 C1094 1.368 . S
C1110 C1106 1.368 . S
C1110 C1109 1.523 . S
H1111 C1086 0.950 . S
H1112 C1088 0.950 . S
H1113 C1089 0.949 . S
H1114 C1091 0.950 . S
H1115 C1093 0.950 . S
C1116 C1117 1.349 . S
C1116 C1118 1.327 . S
C1116 H1141 0.950 . S
C1117 C1116 1.349 . S
C1117 C1133 1.349 . S
C1118 C1116 1.327 . S
C1118 C1137 1.429 . S
C1118 H1142 0.950 . S
C1119 C1136 1.574 . S
C1119 C1138 1.368 . S
C1119 H1143 0.949 . S
H1120 C1124 0.949 . S
C1121 C1122 1.349 . S
C1121 C1123 1.327 . S
C1121 H1144 0.950 . S
C1122 C1121 1.349 . S
C1122 C1134 1.349 . S
C1123 C1121 1.327 . S
C1123 C1139 1.429 . S
C1123 H1145 0.950 . S
C1124 H1120 0.949 . S
C1124 C1132 1.574 . S
C1124 C1140 1.368 . S
H1125 C1133 0.950 . S
H1126 C1131 0.950 . S
H1127 C1132 0.949 . S
H1128 C1134 0.950 . S
H1129 C1135 0.950 . S
H1130 C1136 0.949 . S
C1131 H1126 0.950 . S
C1131 C1133 1.327 . S
C1131 C1137 1.429 . S
C1132 C1124 1.574 . S
C1132 H1127 0.949 . S
C1132 C1138 1.368 . S
C1133 C1117 1.349 . S
C1133 H1125 0.950 . S
C1133 C1131 1.327 . S
C1134 C1122 1.349 . S
C1134 H1128 0.950 . S
C1134 C1135 1.327 . S
C1135 H1129 0.950 . S
C1135 C1134 1.327 . S
C1135 C1139 1.429 . S
C1136 C1119 1.574 . S
C1136 H1130 0.949 . S
C1136 C1140 1.368 . S
C1137 C1118 1.429 . S
C1137 C1131 1.429 . S
C1137 C1138 1.523 . S
C1138 C1119 1.368 . S
C1138 C1132 1.368 . S
C1138 C1137 1.523 . S
C1139 C1123 1.429 . S
C1139 C1135 1.429 . S
C1139 C1140 1.523 . S
C1140 C1124 1.368 . S
C1140 C1136 1.368 . S
C1140 C1139 1.523 . S
H1141 C1116 0.950 . S
H1142 C1118 0.950 . S
H1143 C1119 0.949 . S
H1144 C1121 0.950 . S
H1145 C1123 0.950 . S
C1146 C1147 1.349 . S
C1146 C1148 1.327 . S
C1146 H1171 0.950 . S
C1147 C1146 1.349 . S
C1147 C1163 1.349 . S
C1148 C1146 1.327 . S
C1148 C1167 1.429 . S
C1148 H1172 0.950 . S
C1149 C1166 1.574 . S
C1149 C1168 1.368 . S
C1149 H1173 0.949 . S
H1150 C1154 0.949 . S
C1151 C1152 1.349 . S
C1151 C1153 1.327 . S
C1151 H1174 0.950 1_556 S
C1152 C1151 1.349 . S
C1152 C1164 1.349 . S
C1153 C1151 1.327 . S
C1153 C1169 1.429 . S
C1153 H1175 0.950 . S
C1154 H1150 0.949 . S
C1154 C1162 1.574 . S
C1154 C1170 1.368 . S
H1155 C1163 0.950 . S
H1156 C1161 0.950 . S
H1157 C1162 0.949 . S
H1158 C1164 0.950 . S
H1159 C1165 0.950 . S
H1160 C1166 0.949 . S
C1161 H1156 0.950 . S
C1161 C1163 1.327 . S
C1161 C1167 1.429 . S
C1162 C1154 1.574 . S
C1162 H1157 0.949 . S
C1162 C1168 1.368 . S
C1163 C1147 1.349 . S
C1163 H1155 0.950 . S
C1163 C1161 1.327 . S
C1164 C1152 1.349 . S
C1164 H1158 0.950 . S
C1164 C1165 1.327 . S
C1165 H1159 0.950 . S
C1165 C1164 1.327 . S
C1165 C1169 1.429 . S
C1166 C1149 1.574 . S
C1166 H1160 0.949 . S
C1166 C1170 1.368 . S
C1167 C1148 1.429 . S
C1167 C1161 1.429 . S
C1167 C1168 1.523 . S
C1168 C1149 1.368 . S
C1168 C1162 1.368 . S
C1168 C1167 1.523 . S
C1169 C1153 1.429 . S
C1169 C1165 1.429 . S
C1169 C1170 1.523 . S
C1170 C1154 1.368 . S
C1170 C1166 1.368 . S
C1170 C1169 1.523 . S
H1171 C1146 0.950 . S
H1172 C1148 0.950 . S
H1173 C1149 0.949 . S
H1174 C1151 0.950 1_554 S
H1175 C1153 0.950 . S
C1176 C1177 1.349 . S
C1176 C1178 1.327 . S
C1176 H1201 0.950 . S
C1177 C1176 1.349 . S
C1177 C1193 1.349 . S
C1178 C1176 1.327 . S
C1178 C1197 1.429 . S
C1178 H1202 0.950 . S
C1179 C1196 1.574 . S
C1179 C1198 1.368 . S
C1179 H1203 0.949 . S
H1180 C1184 0.949 . S
C1181 C1182 1.349 . S
C1181 C1183 1.327 . S
C1181 H1204 0.950 . S
C1182 C1181 1.349 . S
C1182 C1194 1.349 . S
C1183 C1181 1.327 . S
C1183 C1199 1.429 . S
C1183 H1205 0.950 . S
C1184 H1180 0.949 . S
C1184 C1192 1.574 . S
C1184 C1200 1.368 . S
H1185 C1193 0.950 . S
H1186 C1191 0.950 . S
H1187 C1192 0.949 . S
H1188 C1194 0.950 . S
H1189 C1195 0.950 . S
H1190 C1196 0.949 . S
C1191 H1186 0.950 . S
C1191 C1193 1.327 . S
C1191 C1197 1.429 . S
C1192 C1184 1.574 . S
C1192 H1187 0.949 . S
C1192 C1198 1.368 . S
C1193 C1177 1.349 . S
C1193 H1185 0.950 . S
C1193 C1191 1.327 . S
C1194 C1182 1.349 . S
C1194 H1188 0.950 . S
C1194 C1195 1.327 . S
C1195 H1189 0.950 . S
C1195 C1194 1.327 . S
C1195 C1199 1.429 . S
C1196 C1179 1.574 . S
C1196 H1190 0.949 . S
C1196 C1200 1.368 . S
C1197 C1178 1.429 . S
C1197 C1191 1.429 . S
C1197 C1198 1.523 . S
C1198 C1179 1.368 . S
C1198 C1192 1.368 . S
C1198 C1197 1.523 . S
C1199 C1183 1.429 . S
C1199 C1195 1.429 . S
C1199 C1200 1.523 . S
C1200 C1184 1.368 . S
C1200 C1196 1.368 . S
C1200 C1199 1.523 . S
H1201 C1176 0.950 . S
H1202 C1178 0.950 . S
H1203 C1179 0.949 . S
H1204 C1181 0.950 . S
H1205 C1183 0.950 . S
C1206 C1207 1.349 . S
C1206 C1208 1.327 . S
C1206 H1231 0.950 . S
C1207 C1206 1.349 . S
C1207 C1223 1.349 . S
C1208 C1206 1.327 . S
C1208 C1227 1.429 . S
C1208 H1232 0.950 . S
C1209 C1226 1.574 . S
C1209 C1228 1.368 . S
C1209 H1233 0.949 . S
H1210 C1214 0.949 . S
C1211 C1212 1.349 . S
C1211 C1213 1.327 . S
C1211 H1234 0.950 . S
C1212 C1211 1.349 . S
C1212 C1224 1.349 . S
C1213 C1211 1.327 . S
C1213 C1229 1.429 . S
C1213 H1235 0.950 . S
C1214 H1210 0.949 . S
C1214 C1222 1.574 . S
C1214 C1230 1.368 . S
H1215 C1223 0.950 . S
H1216 C1221 0.950 . S
H1217 C1222 0.949 . S
H1218 C1224 0.950 . S
H1219 C1225 0.950 . S
H1220 C1226 0.949 . S
C1221 H1216 0.950 . S
C1221 C1223 1.327 . S
C1221 C1227 1.429 . S
C1222 C1214 1.574 . S
C1222 H1217 0.949 . S
C1222 C1228 1.368 . S
C1223 C1207 1.349 . S
C1223 H1215 0.950 . S
C1223 C1221 1.327 . S
C1224 C1212 1.349 . S
C1224 H1218 0.950 . S
C1224 C1225 1.327 . S
C1225 H1219 0.950 . S
C1225 C1224 1.327 . S
C1225 C1229 1.429 . S
C1226 C1209 1.574 . S
C1226 H1220 0.949 . S
C1226 C1230 1.368 . S
C1227 C1208 1.429 . S
C1227 C1221 1.429 . S
C1227 C1228 1.523 . S
C1228 C1209 1.368 . S
C1228 C1222 1.368 . S
C1228 C1227 1.523 . S
C1229 C1213 1.429 . S
C1229 C1225 1.429 . S
C1229 C1230 1.523 . S
C1230 C1214 1.368 . S
C1230 C1226 1.368 . S
C1230 C1229 1.523 . S
H1231 C1206 0.950 . S
H1232 C1208 0.950 . S
H1233 C1209 0.949 . S
H1234 C1211 0.950 . S
H1235 C1213 0.950 . S
C1236 C1237 1.349 . S
C1236 C1238 1.327 . S
C1236 H1261 0.950 . S
C1237 C1236 1.349 . S
C1237 C1253 1.349 . S
C1238 C1236 1.327 . S
C1238 C1257 1.429 . S
C1238 H1262 0.950 . S
C1239 C1256 1.574 . S
C1239 C1258 1.368 . S
C1239 H1263 0.949 . S
H1240 C1244 0.949 . S
C1241 C1242 1.349 . S
C1241 C1243 1.327 . S
C1241 H1264 0.950 . S
C1242 C1241 1.349 . S
C1242 C1254 1.349 . S
C1243 C1241 1.327 . S
C1243 C1259 1.429 . S
C1243 H1265 0.950 . S
C1244 H1240 0.949 . S
C1244 C1252 1.574 . S
C1244 C1260 1.368 . S
H1245 C1253 0.950 . S
H1246 C1251 0.950 . S
H1247 C1252 0.949 . S
H1248 C1254 0.950 . S
H1249 C1255 0.950 . S
H1250 C1256 0.949 . S
C1251 H1246 0.950 . S
C1251 C1253 1.327 . S
C1251 C1257 1.429 . S
C1252 C1244 1.574 . S
C1252 H1247 0.949 . S
C1252 C1258 1.368 . S
C1253 C1237 1.349 . S
C1253 H1245 0.950 . S
C1253 C1251 1.327 . S
C1254 C1242 1.349 . S
C1254 H1248 0.950 . S
C1254 C1255 1.327 . S
C1255 H1249 0.950 . S
C1255 C1254 1.327 . S
C1255 C1259 1.429 . S
C1256 C1239 1.574 . S
C1256 H1250 0.949 . S
C1256 C1260 1.368 . S
C1257 C1238 1.429 . S
C1257 C1251 1.429 . S
C1257 C1258 1.523 . S
C1258 C1239 1.368 . S
C1258 C1252 1.368 . S
C1258 C1257 1.523 . S
C1259 C1243 1.429 . S
C1259 C1255 1.429 . S
C1259 C1260 1.523 . S
C1260 C1244 1.368 . S
C1260 C1256 1.368 . S
C1260 C1259 1.523 . S
H1261 C1236 0.950 . S
H1262 C1238 0.950 . S
H1263 C1239 0.949 . S
H1264 C1241 0.950 . S
H1265 C1243 0.950 . S
C1266 C1267 1.349 . S
C1266 C1268 1.327 . S
C1266 H1291 0.950 . S
C1267 C1266 1.349 . S
C1267 C1283 1.349 . S
C1268 C1266 1.327 . S
C1268 C1287 1.429 . S
C1268 H1292 0.950 . S
C1269 C1286 1.574 . S
C1269 C1288 1.368 . S
C1269 H1293 0.949 . S
H1270 C1274 0.949 . S
C1271 C1272 1.349 . S
C1271 C1273 1.327 . S
C1271 H1294 0.950 . S
C1272 C1271 1.349 . S
C1272 C1284 1.349 . S
C1273 C1271 1.327 . S
C1273 C1289 1.429 . S
C1273 H1295 0.950 . S
C1274 H1270 0.949 . S
C1274 C1282 1.574 . S
C1274 C1290 1.368 . S
H1275 C1283 0.950 . S
H1276 C1281 0.950 . S
H1277 C1282 0.949 . S
H1278 C1284 0.950 . S
H1279 C1285 0.950 . S
H1280 C1286 0.949 . S
C1281 H1276 0.950 . S
C1281 C1283 1.327 . S
C1281 C1287 1.429 . S
C1282 C1274 1.574 . S
C1282 H1277 0.949 . S
C1282 C1288 1.368 . S
C1283 C1267 1.349 . S
C1283 H1275 0.950 . S
C1283 C1281 1.327 . S
C1284 C1272 1.349 . S
C1284 H1278 0.950 . S
C1284 C1285 1.327 . S
C1285 H1279 0.950 . S
C1285 C1284 1.327 . S
C1285 C1289 1.429 . S
C1286 C1269 1.574 . S
C1286 H1280 0.949 . S
C1286 C1290 1.368 . S
C1287 C1268 1.429 . S
C1287 C1281 1.429 . S
C1287 C1288 1.523 . S
C1288 C1269 1.368 . S
C1288 C1282 1.368 . S
C1288 C1287 1.523 . S
C1289 C1273 1.429 . S
C1289 C1285 1.429 . S
C1289 C1290 1.523 . S
C1290 C1274 1.368 . S
C1290 C1286 1.368 . S
C1290 C1289 1.523 . S
H1291 C1266 0.950 . S
H1292 C1268 0.950 . S
H1293 C1269 0.949 . S
H1294 C1271 0.950 . S
H1295 C1273 0.950 . S
C1296 C1297 1.349 . S
C1296 C1298 1.327 . S
C1296 H1321 0.950 . S
C1297 C1296 1.349 . S
C1297 C1313 1.349 . S
C1298 C1296 1.327 . S
C1298 C1317 1.429 . S
C1298 H1322 0.950 . S
C1299 C1316 1.574 . S
C1299 C1318 1.368 . S
C1299 H1323 0.949 . S
H1300 C1304 0.949 . S
C1301 C1302 1.349 . S
C1301 C1303 1.327 . S
C1301 H1324 0.950 . S
C1302 C1301 1.349 . S
C1302 C1314 1.349 . S
C1303 C1301 1.327 . S
C1303 C1319 1.429 . S
C1303 H1325 0.950 . S
C1304 H1300 0.949 . S
C1304 C1312 1.574 . S
C1304 C1320 1.368 . S
H1305 C1313 0.950 . S
H1306 C1311 0.950 . S
H1307 C1312 0.949 . S
H1308 C1314 0.950 . S
H1309 C1315 0.950 . S
H1310 C1316 0.949 . S
C1311 H1306 0.950 . S
C1311 C1313 1.327 . S
C1311 C1317 1.429 . S
C1312 C1304 1.574 . S
C1312 H1307 0.949 . S
C1312 C1318 1.368 . S
C1313 C1297 1.349 . S
C1313 H1305 0.950 . S
C1313 C1311 1.327 . S
C1314 C1302 1.349 . S
C1314 H1308 0.950 . S
C1314 C1315 1.327 . S
C1315 H1309 0.950 . S
C1315 C1314 1.327 . S
C1315 C1319 1.429 . S
C1316 C1299 1.574 . S
C1316 H1310 0.949 . S
C1316 C1320 1.368 . S
C1317 C1298 1.429 . S
C1317 C1311 1.429 . S
C1317 C1318 1.523 . S
C1318 C1299 1.368 . S
C1318 C1312 1.368 . S
C1318 C1317 1.523 . S
C1319 C1303 1.429 . S
C1319 C1315 1.429 . S
C1319 C1320 1.523 . S
C1320 C1304 1.368 . S
C1320 C1316 1.368 . S
C1320 C1319 1.523 . S
H1321 C1296 0.950 . S
H1322 C1298 0.950 . S
H1323 C1299 0.949 . S
H1324 C1301 0.950 . S
H1325 C1303 0.950 . S
C1326 C1327 1.349 . S
C1326 C1328 1.327 . S
C1326 H1351 0.950 . S
C1327 C1326 1.349 . S
C1327 C1343 1.349 . S
C1328 C1326 1.327 . S
C1328 C1347 1.429 . S
C1328 H1352 0.950 . S
C1329 C1346 1.574 . S
C1329 C1348 1.368 . S
C1329 H1353 0.949 . S
H1330 C1334 0.949 . S
C1331 C1332 1.349 . S
C1331 C1333 1.327 . S
C1331 H1354 0.950 . S
C1332 C1331 1.349 . S
C1332 C1344 1.349 . S
C1333 C1331 1.327 . S
C1333 C1349 1.429 . S
C1333 H1355 0.950 . S
C1334 H1330 0.949 . S
C1334 C1342 1.574 . S
C1334 C1350 1.368 . S
H1335 C1343 0.950 1_554 S
H1336 C1341 0.950 . S
H1337 C1342 0.949 . S
H1338 C1344 0.950 . S
H1339 C1345 0.950 . S
H1340 C1346 0.949 . S
C1341 H1336 0.950 . S
C1341 C1343 1.327 . S
C1341 C1347 1.429 . S
C1342 C1334 1.574 . S
C1342 H1337 0.949 . S
C1342 C1348 1.368 . S
C1343 C1327 1.349 . S
C1343 H1335 0.950 1_556 S
C1343 C1341 1.327 . S
C1344 C1332 1.349 . S
C1344 H1338 0.950 . S
C1344 C1345 1.327 . S
C1345 H1339 0.950 . S
C1345 C1344 1.327 . S
C1345 C1349 1.429 . S
C1346 C1329 1.574 . S
C1346 H1340 0.949 . S
C1346 C1350 1.368 . S
C1347 C1328 1.429 . S
C1347 C1341 1.429 . S
C1347 C1348 1.523 . S
C1348 C1329 1.368 . S
C1348 C1342 1.368 . S
C1348 C1347 1.523 . S
C1349 C1333 1.429 . S
C1349 C1345 1.429 . S
C1349 C1350 1.523 . S
C1350 C1334 1.368 . S
C1350 C1346 1.368 . S
C1350 C1349 1.523 . S
H1351 C1326 0.950 . S
H1352 C1328 0.950 . S
H1353 C1329 0.949 . S
H1354 C1331 0.950 . S
H1355 C1333 0.950 . S
C1356 C1357 1.349 . S
C1356 C1358 1.327 . S
C1356 H1381 0.950 . S
C1357 C1356 1.349 . S
C1357 C1373 1.349 . S
C1358 C1356 1.327 . S
C1358 C1377 1.429 . S
C1358 H1382 0.950 . S
C1359 C1376 1.574 . S
C1359 C1378 1.368 . S
C1359 H1383 0.949 . S
H1360 C1364 0.949 . S
C1361 C1362 1.349 . S
C1361 C1363 1.327 . S
C1361 H1384 0.950 . S
C1362 C1361 1.349 . S
C1362 C1374 1.349 . S
C1363 C1361 1.327 . S
C1363 C1379 1.429 . S
C1363 H1385 0.950 . S
C1364 H1360 0.949 . S
C1364 C1372 1.574 . S
C1364 C1380 1.368 . S
H1365 C1373 0.950 . S
H1366 C1371 0.950 . S
H1367 C1372 0.949 . S
H1368 C1374 0.950 . S
H1369 C1375 0.950 . S
H1370 C1376 0.949 . S
C1371 H1366 0.950 . S
C1371 C1373 1.327 . S
C1371 C1377 1.429 . S
C1372 C1364 1.574 . S
C1372 H1367 0.949 . S
C1372 C1378 1.368 . S
C1373 C1357 1.349 . S
C1373 H1365 0.950 . S
C1373 C1371 1.327 . S
C1374 C1362 1.349 . S
C1374 H1368 0.950 . S
C1374 C1375 1.327 . S
C1375 H1369 0.950 . S
C1375 C1374 1.327 . S
C1375 C1379 1.429 . S
C1376 C1359 1.574 . S
C1376 H1370 0.949 . S
C1376 C1380 1.368 . S
C1377 C1358 1.429 . S
C1377 C1371 1.429 . S
C1377 C1378 1.523 . S
C1378 C1359 1.368 . S
C1378 C1372 1.368 . S
C1378 C1377 1.523 . S
C1379 C1363 1.429 . S
C1379 C1375 1.429 . S
C1379 C1380 1.523 . S
C1380 C1364 1.368 . S
C1380 C1376 1.368 . S
C1380 C1379 1.523 . S
H1381 C1356 0.950 . S
H1382 C1358 0.950 . S
H1383 C1359 0.949 . S
H1384 C1361 0.950 . S
H1385 C1363 0.950 . S
C1386 C1387 1.349 . S
C1386 C1388 1.327 . S
C1386 H1411 0.950 . S
C1387 C1386 1.349 . S
C1387 C1403 1.349 . S
C1388 C1386 1.327 . S
C1388 C1407 1.429 . S
C1388 H1412 0.950 . S
C1389 C1406 1.574 . S
C1389 C1408 1.368 . S
C1389 H1413 0.949 . S
H1390 C1394 0.949 . S
C1391 C1392 1.349 . S
C1391 C1393 1.327 . S
C1391 H1414 0.950 . S
C1392 C1391 1.349 . S
C1392 C1404 1.349 . S
C1393 C1391 1.327 . S
C1393 C1409 1.429 . S
C1393 H1415 0.950 . S
C1394 H1390 0.949 . S
C1394 C1402 1.574 . S
C1394 C1410 1.368 . S
H1395 C1403 0.950 . S
H1396 C1401 0.950 . S
H1397 C1402 0.949 . S
H1398 C1404 0.950 . S
H1399 C1405 0.950 . S
H1400 C1406 0.949 . S
C1401 H1396 0.950 . S
C1401 C1403 1.327 . S
C1401 C1407 1.429 . S
C1402 C1394 1.574 . S
C1402 H1397 0.949 . S
C1402 C1408 1.368 . S
C1403 C1387 1.349 . S
C1403 H1395 0.950 . S
C1403 C1401 1.327 . S
C1404 C1392 1.349 . S
C1404 H1398 0.950 . S
C1404 C1405 1.327 . S
C1405 H1399 0.950 . S
C1405 C1404 1.327 . S
C1405 C1409 1.429 . S
C1406 C1389 1.574 . S
C1406 H1400 0.949 . S
C1406 C1410 1.368 . S
C1407 C1388 1.429 . S
C1407 C1401 1.429 . S
C1407 C1408 1.523 . S
C1408 C1389 1.368 . S
C1408 C1402 1.368 . S
C1408 C1407 1.523 . S
C1409 C1393 1.429 . S
C1409 C1405 1.429 . S
C1409 C1410 1.523 . S
C1410 C1394 1.368 . S
C1410 C1406 1.368 . S
C1410 C1409 1.523 . S
H1411 C1386 0.950 . S
H1412 C1388 0.950 . S
H1413 C1389 0.949 . S
H1414 C1391 0.950 . S
H1415 C1393 0.950 . S
C1416 C1417 1.349 . S
C1416 C1418 1.327 . S
C1416 H1441 0.950 . S
C1417 C1416 1.349 . S
C1417 C1433 1.349 . S
C1418 C1416 1.327 . S
C1418 C1437 1.429 . S
C1418 H1442 0.950 . S
C1419 C1436 1.574 . S
C1419 C1438 1.368 . S
C1419 H1443 0.949 . S
H1420 C1424 0.949 . S
C1421 C1422 1.349 . S
C1421 C1423 1.327 . S
C1421 H1444 0.950 . S
C1422 C1421 1.349 . S
C1422 C1434 1.349 . S
C1423 C1421 1.327 . S
C1423 C1439 1.429 . S
C1423 H1445 0.950 . S
C1424 H1420 0.949 . S
C1424 C1432 1.574 . S
C1424 C1440 1.368 . S
H1425 C1433 0.950 . S
H1426 C1431 0.950 . S
H1427 C1432 0.949 . S
H1428 C1434 0.950 . S
H1429 C1435 0.950 . S
H1430 C1436 0.949 . S
C1431 H1426 0.950 . S
C1431 C1433 1.327 . S
C1431 C1437 1.429 . S
C1432 C1424 1.574 . S
C1432 H1427 0.949 . S
C1432 C1438 1.368 . S
C1433 C1417 1.349 . S
C1433 H1425 0.950 . S
C1433 C1431 1.327 . S
C1434 C1422 1.349 . S
C1434 H1428 0.950 . S
C1434 C1435 1.327 . S
C1435 H1429 0.950 . S
C1435 C1434 1.327 . S
C1435 C1439 1.429 . S
C1436 C1419 1.574 . S
C1436 H1430 0.949 . S
C1436 C1440 1.368 . S
C1437 C1418 1.429 . S
C1437 C1431 1.429 . S
C1437 C1438 1.523 . S
C1438 C1419 1.368 . S
C1438 C1432 1.368 . S
C1438 C1437 1.523 . S
C1439 C1423 1.429 . S
C1439 C1435 1.429 . S
C1439 C1440 1.523 . S
C1440 C1424 1.368 . S
C1440 C1436 1.368 . S
C1440 C1439 1.523 . S
H1441 C1416 0.950 . S
H1442 C1418 0.950 . S
H1443 C1419 0.949 . S
H1444 C1421 0.950 . S
H1445 C1423 0.950 . S
C1446 C1447 1.349 . S
C1446 C1448 1.327 . S
C1446 H1471 0.950 . S
C1447 C1446 1.349 . S
C1447 C1463 1.349 . S
C1448 C1446 1.327 . S
C1448 C1467 1.429 . S
C1448 H1472 0.950 . S
C1449 C1466 1.574 . S
C1449 C1468 1.368 . S
C1449 H1473 0.949 . S
H1450 C1454 0.949 . S
C1451 C1452 1.349 . S
C1451 C1453 1.327 . S
C1451 H1474 0.950 . S
C1452 C1451 1.349 . S
C1452 C1464 1.349 . S
C1453 C1451 1.327 . S
C1453 C1469 1.429 . S
C1453 H1475 0.950 . S
C1454 H1450 0.949 . S
C1454 C1462 1.574 . S
C1454 C1470 1.368 . S
H1455 C1463 0.950 . S
H1456 C1461 0.950 . S
H1457 C1462 0.949 . S
H1458 C1464 0.950 . S
H1459 C1465 0.950 . S
H1460 C1466 0.949 . S
C1461 H1456 0.950 . S
C1461 C1463 1.327 . S
C1461 C1467 1.429 . S
C1462 C1454 1.574 . S
C1462 H1457 0.949 . S
C1462 C1468 1.368 . S
C1463 C1447 1.349 . S
C1463 H1455 0.950 . S
C1463 C1461 1.327 . S
C1464 C1452 1.349 . S
C1464 H1458 0.950 . S
C1464 C1465 1.327 . S
C1465 H1459 0.950 . S
C1465 C1464 1.327 . S
C1465 C1469 1.429 . S
C1466 C1449 1.574 . S
C1466 H1460 0.949 . S
C1466 C1470 1.368 . S
C1467 C1448 1.429 . S
C1467 C1461 1.429 . S
C1467 C1468 1.523 . S
C1468 C1449 1.368 . S
C1468 C1462 1.368 . S
C1468 C1467 1.523 . S
C1469 C1453 1.429 . S
C1469 C1465 1.429 . S
C1469 C1470 1.523 . S
C1470 C1454 1.368 . S
C1470 C1466 1.368 . S
C1470 C1469 1.523 . S
H1471 C1446 0.950 . S
H1472 C1448 0.950 . S
H1473 C1449 0.949 . S
H1474 C1451 0.950 . S
H1475 C1453 0.950 . S
C1476 C1477 1.349 . S
C1476 C1478 1.327 . S
C1476 H1501 0.950 . S
C1477 C1476 1.349 . S
C1477 C1493 1.349 . S
C1478 C1476 1.327 . S
C1478 C1497 1.429 . S
C1478 H1502 0.950 . S
C1479 C1496 1.574 . S
C1479 C1498 1.368 . S
C1479 H1503 0.949 . S
H1480 C1484 0.949 . S
C1481 C1482 1.349 . S
C1481 C1483 1.327 . S
C1481 H1504 0.950 . S
C1482 C1481 1.349 . S
C1482 C1494 1.349 . S
C1483 C1481 1.327 . S
C1483 C1499 1.429 . S
C1483 H1505 0.950 . S
C1484 H1480 0.949 . S
C1484 C1492 1.574 . S
C1484 C1500 1.368 . S
H1485 C1493 0.950 . S
H1486 C1491 0.950 . S
H1487 C1492 0.949 . S
H1488 C1494 0.950 . S
H1489 C1495 0.950 . S
H1490 C1496 0.949 . S
C1491 H1486 0.950 . S
C1491 C1493 1.327 . S
C1491 C1497 1.429 . S
C1492 C1484 1.574 . S
C1492 H1487 0.949 . S
C1492 C1498 1.368 . S
C1493 C1477 1.349 . S
C1493 H1485 0.950 . S
C1493 C1491 1.327 . S
C1494 C1482 1.349 . S
C1494 H1488 0.950 . S
C1494 C1495 1.327 . S
C1495 H1489 0.950 . S
C1495 C1494 1.327 . S
C1495 C1499 1.429 . S
C1496 C1479 1.574 . S
C1496 H1490 0.949 . S
C1496 C1500 1.368 . S
C1497 C1478 1.429 . S
C1497 C1491 1.429 . S
C1497 C1498 1.523 . S
C1498 C1479 1.368 . S
C1498 C1492 1.368 . S
C1498 C1497 1.523 . S
C1499 C1483 1.429 . S
C1499 C1495 1.429 . S
C1499 C1500 1.523 . S
C1500 C1484 1.368 . S
C1500 C1496 1.368 . S
C1500 C1499 1.523 . S
H1501 C1476 0.950 . S
H1502 C1478 0.950 . S
H1503 C1479 0.949 . S
H1504 C1481 0.950 . S
H1505 C1483 0.950 . S
C1506 C1507 1.349 . S
C1506 C1508 1.327 . S
C1506 H1531 0.950 . S
C1507 C1506 1.349 . S
C1507 C1523 1.349 . S
C1508 C1506 1.327 . S
C1508 C1527 1.429 . S
C1508 H1532 0.950 . S
C1509 C1526 1.574 . S
C1509 C1528 1.368 . S
C1509 H1533 0.949 . S
H1510 C1514 0.949 . S
C1511 C1512 1.349 . S
C1511 C1513 1.327 . S
C1511 H1534 0.950 . S
C1512 C1511 1.349 . S
C1512 C1524 1.349 . S
C1513 C1511 1.327 . S
C1513 C1529 1.429 . S
C1513 H1535 0.950 . S
C1514 H1510 0.949 . S
C1514 C1522 1.574 . S
C1514 C1530 1.368 . S
H1515 C1523 0.950 . S
H1516 C1521 0.950 . S
H1517 C1522 0.949 . S
H1518 C1524 0.950 . S
H1519 C1525 0.950 . S
H1520 C1526 0.949 . S
C1521 H1516 0.950 . S
C1521 C1523 1.327 . S
C1521 C1527 1.429 . S
C1522 C1514 1.574 . S
C1522 H1517 0.949 . S
C1522 C1528 1.368 . S
C1523 C1507 1.349 . S
C1523 H1515 0.950 . S
C1523 C1521 1.327 . S
C1524 C1512 1.349 . S
C1524 H1518 0.950 . S
C1524 C1525 1.327 . S
C1525 H1519 0.950 . S
C1525 C1524 1.327 . S
C1525 C1529 1.429 . S
C1526 C1509 1.574 . S
C1526 H1520 0.949 . S
C1526 C1530 1.368 . S
C1527 C1508 1.429 . S
C1527 C1521 1.429 . S
C1527 C1528 1.523 . S
C1528 C1509 1.368 . S
C1528 C1522 1.368 . S
C1528 C1527 1.523 . S
C1529 C1513 1.429 . S
C1529 C1525 1.429 . S
C1529 C1530 1.523 . S
C1530 C1514 1.368 . S
C1530 C1526 1.368 . S
C1530 C1529 1.523 . S
H1531 C1506 0.950 . S
H1532 C1508 0.950 . S
H1533 C1509 0.949 . S
H1534 C1511 0.950 . S
H1535 C1513 0.950 . S
C1536 C1537 1.349 . S
C1536 C1538 1.327 . S
C1536 H1561 0.950 . S
C1537 C1536 1.349 . S
C1537 C1553 1.349 . S
C1538 C1536 1.327 . S
C1538 C1557 1.429 . S
C1538 H1562 0.950 . S
C1539 C1556 1.574 . S
C1539 C1558 1.368 . S
C1539 H1563 0.949 . S
H1540 C1544 0.949 . S
C1541 C1542 1.349 . S
C1541 C1543 1.327 . S
C1541 H1564 0.950 . S
C1542 C1541 1.349 . S
C1542 C1554 1.349 . S
C1543 C1541 1.327 . S
C1543 C1559 1.429 . S
C1543 H1565 0.950 . S
C1544 H1540 0.949 . S
C1544 C1552 1.574 . S
C1544 C1560 1.368 . S
H1545 C1553 0.950 . S
H1546 C1551 0.950 . S
H1547 C1552 0.949 . S
H1548 C1554 0.950 . S
H1549 C1555 0.950 . S
H1550 C1556 0.949 . S
C1551 H1546 0.950 . S
C1551 C1553 1.327 . S
C1551 C1557 1.429 . S
C1552 C1544 1.574 . S
C1552 H1547 0.949 . S
C1552 C1558 1.368 . S
C1553 C1537 1.349 . S
C1553 H1545 0.950 . S
C1553 C1551 1.327 . S
C1554 C1542 1.349 . S
C1554 H1548 0.950 . S
C1554 C1555 1.327 . S
C1555 H1549 0.950 . S
C1555 C1554 1.327 . S
C1555 C1559 1.429 . S
C1556 C1539 1.574 . S
C1556 H1550 0.949 . S
C1556 C1560 1.368 . S
C1557 C1538 1.429 . S
C1557 C1551 1.429 . S
C1557 C1558 1.523 . S
C1558 C1539 1.368 . S
C1558 C1552 1.368 . S
C1558 C1557 1.523 . S
C1559 C1543 1.429 . S
C1559 C1555 1.429 . S
C1559 C1560 1.523 . S
C1560 C1544 1.368 . S
C1560 C1556 1.368 . S
C1560 C1559 1.523 . S
H1561 C1536 0.950 . S
H1562 C1538 0.950 . S
H1563 C1539 0.949 . S
H1564 C1541 0.950 . S
H1565 C1543 0.950 . S
C1566 C1567 1.349 . S
C1566 C1568 1.327 . S
C1566 H1591 0.950 . S
C1567 C1566 1.349 . S
C1567 C1583 1.349 . S
C1568 C1566 1.327 . S
C1568 C1587 1.429 . S
C1568 H1592 0.950 . S
C1569 C1586 1.574 . S
C1569 C1588 1.368 . S
C1569 H1593 0.949 . S
H1570 C1574 0.949 . S
C1571 C1572 1.349 . S
C1571 C1573 1.327 . S
C1571 H1594 0.950 . S
C1572 C1571 1.349 . S
C1572 C1584 1.349 . S
C1573 C1571 1.327 . S
C1573 C1589 1.429 . S
C1573 H1595 0.950 . S
C1574 H1570 0.949 . S
C1574 C1582 1.574 . S
C1574 C1590 1.368 . S
H1575 C1583 0.950 . S
H1576 C1581 0.950 . S
H1577 C1582 0.949 . S
H1578 C1584 0.950 . S
H1579 C1585 0.950 . S
H1580 C1586 0.949 . S
C1581 H1576 0.950 . S
C1581 C1583 1.327 . S
C1581 C1587 1.429 . S
C1582 C1574 1.574 . S
C1582 H1577 0.949 . S
C1582 C1588 1.368 . S
C1583 C1567 1.349 . S
C1583 H1575 0.950 . S
C1583 C1581 1.327 . S
C1584 C1572 1.349 . S
C1584 H1578 0.950 . S
C1584 C1585 1.327 . S
C1585 H1579 0.950 . S
C1585 C1584 1.327 . S
C1585 C1589 1.429 . S
C1586 C1569 1.574 . S
C1586 H1580 0.949 . S
C1586 C1590 1.368 . S
C1587 C1568 1.429 . S
C1587 C1581 1.429 . S
C1587 C1588 1.523 . S
C1588 C1569 1.368 . S
C1588 C1582 1.368 . S
C1588 C1587 1.523 . S
C1589 C1573 1.429 . S
C1589 C1585 1.429 . S
C1589 C1590 1.523 . S
C1590 C1574 1.368 . S
C1590 C1586 1.368 . S
C1590 C1589 1.523 . S
H1591 C1566 0.950 . S
H1592 C1568 0.950 . S
H1593 C1569 0.949 . S
H1594 C1571 0.950 . S
H1595 C1573 0.950 . S
C1596 C1597 1.349 . S
C1596 C1598 1.327 . S
C1596 H1621 0.950 . S
C1597 C1596 1.349 . S
C1597 C1613 1.349 . S
C1598 C1596 1.327 . S
C1598 C1617 1.429 . S
C1598 H1622 0.950 . S
C1599 C1616 1.574 . S
C1599 C1618 1.368 . S
C1599 H1623 0.949 . S
H1600 C1604 0.949 . S
C1601 C1602 1.349 . S
C1601 C1603 1.327 . S
C1601 H1624 0.950 . S
C1602 C1601 1.349 . S
C1602 C1614 1.349 . S
C1603 C1601 1.327 . S
C1603 C1619 1.429 . S
C1603 H1625 0.950 . S
C1604 H1600 0.949 . S
C1604 C1612 1.574 . S
C1604 C1620 1.368 . S
H1605 C1613 0.950 . S
H1606 C1611 0.950 . S
H1607 C1612 0.949 . S
H1608 C1614 0.950 . S
H1609 C1615 0.950 . S
H1610 C1616 0.949 . S
C1611 H1606 0.950 . S
C1611 C1613 1.327 . S
C1611 C1617 1.429 . S
C1612 C1604 1.574 . S
C1612 H1607 0.949 . S
C1612 C1618 1.368 . S
C1613 C1597 1.349 . S
C1613 H1605 0.950 . S
C1613 C1611 1.327 . S
C1614 C1602 1.349 . S
C1614 H1608 0.950 . S
C1614 C1615 1.327 . S
C1615 H1609 0.950 . S
C1615 C1614 1.327 . S
C1615 C1619 1.429 . S
C1616 C1599 1.574 . S
C1616 H1610 0.949 . S
C1616 C1620 1.368 . S
C1617 C1598 1.429 . S
C1617 C1611 1.429 . S
C1617 C1618 1.523 . S
C1618 C1599 1.368 . S
C1618 C1612 1.368 . S
C1618 C1617 1.523 . S
C1619 C1603 1.429 . S
C1619 C1615 1.429 . S
C1619 C1620 1.523 . S
C1620 C1604 1.368 . S
C1620 C1616 1.368 . S
C1620 C1619 1.523 . S
H1621 C1596 0.950 . S
H1622 C1598 0.950 . S
H1623 C1599 0.949 . S
H1624 C1601 0.950 . S
H1625 C1603 0.950 . S
C1626 C1627 1.349 . S
C1626 C1628 1.327 . S
C1626 H1651 0.950 . S
C1627 C1626 1.349 . S
C1627 C1643 1.349 . S
C1628 C1626 1.327 . S
C1628 C1647 1.429 . S
C1628 H1652 0.950 . S
C1629 C1646 1.574 . S
C1629 C1648 1.368 . S
C1629 H1653 0.949 . S
H1630 C1634 0.949 . S
C1631 C1632 1.349 . S
C1631 C1633 1.327 . S
C1631 H1654 0.950 . S
C1632 C1631 1.349 . S
C1632 C1644 1.349 . S
C1633 C1631 1.327 . S
C1633 C1649 1.429 . S
C1633 H1655 0.950 . S
C1634 H1630 0.949 . S
C1634 C1642 1.574 . S
C1634 C1650 1.368 . S
H1635 C1643 0.950 . S
H1636 C1641 0.950 . S
H1637 C1642 0.949 . S
H1638 C1644 0.950 . S
H1639 C1645 0.950 . S
H1640 C1646 0.949 . S
C1641 H1636 0.950 . S
C1641 C1643 1.327 . S
C1641 C1647 1.429 . S
C1642 C1634 1.574 . S
C1642 H1637 0.949 . S
C1642 C1648 1.368 . S
C1643 C1627 1.349 . S
C1643 H1635 0.950 . S
C1643 C1641 1.327 . S
C1644 C1632 1.349 . S
C1644 H1638 0.950 . S
C1644 C1645 1.327 . S
C1645 H1639 0.950 . S
C1645 C1644 1.327 . S
C1645 C1649 1.429 . S
C1646 C1629 1.574 . S
C1646 H1640 0.949 . S
C1646 C1650 1.368 . S
C1647 C1628 1.429 . S
C1647 C1641 1.429 . S
C1647 C1648 1.523 . S
C1648 C1629 1.368 . S
C1648 C1642 1.368 . S
C1648 C1647 1.523 . S
C1649 C1633 1.429 . S
C1649 C1645 1.429 . S
C1649 C1650 1.523 . S
C1650 C1634 1.368 . S
C1650 C1646 1.368 . S
C1650 C1649 1.523 . S
H1651 C1626 0.950 . S
H1652 C1628 0.950 . S
H1653 C1629 0.949 . S
H1654 C1631 0.950 . S
H1655 C1633 0.950 . S
C1656 C1657 1.349 . S
C1656 C1658 1.327 . S
C1656 H1681 0.950 . S
C1657 C1656 1.349 . S
C1657 C1673 1.349 . S
C1658 C1656 1.327 . S
C1658 C1677 1.429 . S
C1658 H1682 0.950 . S
C1659 C1676 1.574 . S
C1659 C1678 1.368 . S
C1659 H1683 0.949 . S
H1660 C1664 0.949 . S
C1661 C1662 1.349 . S
C1661 C1663 1.327 . S
C1661 H1684 0.950 . S
C1662 C1661 1.349 . S
C1662 C1674 1.349 . S
C1663 C1661 1.327 . S
C1663 C1679 1.429 . S
C1663 H1685 0.950 . S
C1664 H1660 0.949 . S
C1664 C1672 1.574 . S
C1664 C1680 1.368 . S
H1665 C1673 0.950 . S
H1666 C1671 0.950 . S
H1667 C1672 0.949 . S
H1668 C1674 0.950 . S
H1669 C1675 0.950 . S
H1670 C1676 0.949 . S
C1671 H1666 0.950 . S
C1671 C1673 1.327 . S
C1671 C1677 1.429 . S
C1672 C1664 1.574 . S
C1672 H1667 0.949 . S
C1672 C1678 1.368 . S
C1673 C1657 1.349 . S
C1673 H1665 0.950 . S
C1673 C1671 1.327 . S
C1674 C1662 1.349 . S
C1674 H1668 0.950 . S
C1674 C1675 1.327 . S
C1675 H1669 0.950 . S
C1675 C1674 1.327 . S
C1675 C1679 1.429 . S
C1676 C1659 1.574 . S
C1676 H1670 0.949 . S
C1676 C1680 1.368 . S
C1677 C1658 1.429 . S
C1677 C1671 1.429 . S
C1677 C1678 1.523 . S
C1678 C1659 1.368 . S
C1678 C1672 1.368 . S
C1678 C1677 1.523 . S
C1679 C1663 1.429 . S
C1679 C1675 1.429 . S
C1679 C1680 1.523 . S
C1680 C1664 1.368 . S
C1680 C1676 1.368 . S
C1680 C1679 1.523 . S
H1681 C1656 0.950 . S
H1682 C1658 0.950 . S
H1683 C1659 0.949 . S
H1684 C1661 0.950 . S
H1685 C1663 0.950 . S
C1686 C1687 1.349 . S
C1686 C1688 1.327 . S
C1686 H1711 0.950 . S
C1687 C1686 1.349 . S
C1687 C1703 1.349 . S
C1688 C1686 1.327 . S
C1688 C1707 1.429 . S
C1688 H1712 0.950 . S
C1689 C1706 1.574 . S
C1689 C1708 1.368 . S
C1689 H1713 0.949 . S
H1690 C1694 0.949 . S
C1691 C1692 1.349 . S
C1691 C1693 1.327 . S
C1691 H1714 0.950 . S
C1692 C1691 1.349 . S
C1692 C1704 1.349 . S
C1693 C1691 1.327 . S
C1693 C1709 1.429 . S
C1693 H1715 0.950 . S
C1694 H1690 0.949 . S
C1694 C1702 1.574 . S
C1694 C1710 1.368 . S
H1695 C1703 0.950 . S
H1696 C1701 0.950 . S
H1697 C1702 0.949 . S
H1698 C1704 0.950 . S
H1699 C1705 0.950 . S
H1700 C1706 0.949 . S
C1701 H1696 0.950 . S
C1701 C1703 1.327 . S
C1701 C1707 1.429 . S
C1702 C1694 1.574 . S
C1702 H1697 0.949 . S
C1702 C1708 1.368 . S
C1703 C1687 1.349 . S
C1703 H1695 0.950 . S
C1703 C1701 1.327 . S
C1704 C1692 1.349 . S
C1704 H1698 0.950 . S
C1704 C1705 1.327 . S
C1705 H1699 0.950 . S
C1705 C1704 1.327 . S
C1705 C1709 1.429 . S
C1706 C1689 1.574 . S
C1706 H1700 0.949 . S
C1706 C1710 1.368 . S
C1707 C1688 1.429 . S
C1707 C1701 1.429 . S
C1707 C1708 1.523 . S
C1708 C1689 1.368 . S
C1708 C1702 1.368 . S
C1708 C1707 1.523 . S
C1709 C1693 1.429 . S
C1709 C1705 1.429 . S
C1709 C1710 1.523 . S
C1710 C1694 1.368 . S
C1710 C1706 1.368 . S
C1710 C1709 1.523 . S
H1711 C1686 0.950 . S
H1712 C1688 0.950 . S
H1713 C1689 0.949 . S
H1714 C1691 0.950 . S
H1715 C1693 0.950 . S
C1716 C1717 1.349 . S
C1716 C1718 1.327 . S
C1716 H1741 0.950 . S
C1717 C1716 1.349 . S
C1717 C1733 1.349 . S
C1718 C1716 1.327 . S
C1718 C1737 1.429 . S
C1718 H1742 0.950 . S
C1719 C1736 1.574 . S
C1719 C1738 1.368 . S
C1719 H1743 0.949 . S
H1720 C1724 0.949 . S
C1721 C1722 1.349 . S
C1721 C1723 1.327 . S
C1721 H1744 0.950 . S
C1722 C1721 1.349 . S
C1722 C1734 1.349 . S
C1723 C1721 1.327 . S
C1723 C1739 1.429 . S
C1723 H1745 0.950 . S
C1724 H1720 0.949 . S
C1724 C1732 1.574 . S
C1724 C1740 1.368 . S
H1725 C1733 0.950 . S
H1726 C1731 0.950 . S
H1727 C1732 0.949 . S
H1728 C1734 0.950 . S
H1729 C1735 0.950 . S
H1730 C1736 0.949 . S
C1731 H1726 0.950 . S
C1731 C1733 1.327 . S
C1731 C1737 1.429 . S
C1732 C1724 1.574 . S
C1732 H1727 0.949 . S
C1732 C1738 1.368 . S
C1733 C1717 1.349 . S
C1733 H1725 0.950 . S
C1733 C1731 1.327 . S
C1734 C1722 1.349 . S
C1734 H1728 0.950 . S
C1734 C1735 1.327 . S
C1735 H1729 0.950 . S
C1735 C1734 1.327 . S
C1735 C1739 1.429 . S
C1736 C1719 1.574 . S
C1736 H1730 0.949 . S
C1736 C1740 1.368 . S
C1737 C1718 1.429 . S
C1737 C1731 1.429 . S
C1737 C1738 1.523 . S
C1738 C1719 1.368 . S
C1738 C1732 1.368 . S
C1738 C1737 1.523 . S
C1739 C1723 1.429 . S
C1739 C1735 1.429 . S
C1739 C1740 1.523 . S
C1740 C1724 1.368 . S
C1740 C1736 1.368 . S
C1740 C1739 1.523 . S
H1741 C1716 0.950 . S
H1742 C1718 0.950 . S
H1743 C1719 0.949 . S
H1744 C1721 0.950 . S
H1745 C1723 0.950 . S
C1746 C1747 1.349 . S
C1746 C1748 1.327 . S
C1746 H1771 0.950 . S
C1747 C1746 1.349 . S
C1747 C1763 1.349 . S
C1748 C1746 1.327 . S
C1748 C1767 1.429 . S
C1748 H1772 0.950 . S
C1749 C1766 1.574 . S
C1749 C1768 1.368 . S
C1749 H1773 0.949 . S
H1750 C1754 0.949 . S
C1751 C1752 1.349 . S
C1751 C1753 1.327 . S
C1751 H1774 0.950 . S
C1752 C1751 1.349 . S
C1752 C1764 1.349 . S
C1753 C1751 1.327 . S
C1753 C1769 1.429 . S
C1753 H1775 0.950 . S
C1754 H1750 0.949 . S
C1754 C1762 1.574 . S
C1754 C1770 1.368 . S
H1755 C1763 0.950 . S
H1756 C1761 0.950 . S
H1757 C1762 0.949 . S
H1758 C1764 0.950 . S
H1759 C1765 0.950 . S
H1760 C1766 0.949 . S
C1761 H1756 0.950 . S
C1761 C1763 1.327 . S
C1761 C1767 1.429 . S
C1762 C1754 1.574 . S
C1762 H1757 0.949 . S
C1762 C1768 1.368 . S
C1763 C1747 1.349 . S
C1763 H1755 0.950 . S
C1763 C1761 1.327 . S
C1764 C1752 1.349 . S
C1764 H1758 0.950 . S
C1764 C1765 1.327 . S
C1765 H1759 0.950 . S
C1765 C1764 1.327 . S
C1765 C1769 1.429 . S
C1766 C1749 1.574 . S
C1766 H1760 0.949 . S
C1766 C1770 1.368 . S
C1767 C1748 1.429 . S
C1767 C1761 1.429 . S
C1767 C1768 1.523 . S
C1768 C1749 1.368 . S
C1768 C1762 1.368 . S
C1768 C1767 1.523 . S
C1769 C1753 1.429 . S
C1769 C1765 1.429 . S
C1769 C1770 1.523 . S
C1770 C1754 1.368 . S
C1770 C1766 1.368 . S
C1770 C1769 1.523 . S
H1771 C1746 0.950 . S
H1772 C1748 0.950 . S
H1773 C1749 0.949 . S
H1774 C1751 0.950 . S
H1775 C1753 0.950 . S
C337 C203 1.453 . S
C342 C6 1.441 . S
C367 C21 1.453 . S
C372 C216 1.441 . S
C397 C261 1.711 . S
C402 C37 1.711 . S
C427 C50 2.194 . S
C432 C190 2.194 . S
C457 C204 2.194 . S
C462 C64 2.194 . S
C487 C79 1.711 . S
C492 C219 1.711 . S
C517 C91 1.453 . S
C522 C258 1.441 . S
C547 C104 1.441 . S
C552 C189 1.453 . S
C577 C133 1.453 . S
C582 C118 1.441 . S
C607 C148 2.194 . S
C612 C134 2.194 . S
C637 C147 1.453 . S
C642 C160 1.441 . S
C667 C163 1.711 . S
C672 C121 1.711 . S
C697 C174 1.441 . S
C702 C49 1.453 . S
C727 C63 1.453 . S
C732 C230 1.441 . S
C757 C246 2.194 . S
C762 C22 2.194 . S
C787 C20 1.582 . S
C792 C302 1.601 . S
C817 C132 1.582 . S
C822 C8 1.601 . S
C847 C331 1.796 . S
C852 C51 1.796 . S
C877 C161 0.815 . S
C882 C35 0.815 . S
C907 C301 0.815 . S
C912 C105 0.815 . S
C937 C135 1.796 . S
C942 C93 1.796 . S
C967 C78 1.601 . S
C972 C328 1.582 . S
C997 C62 1.582 . S
C1002 C162 1.601 . S
C1027 C218 1.601 . S
C1032 C272 1.582 . S
C1057 C231 0.815 . S
C1062 C217 0.815 . S
C1087 C188 1.582 . S
C1092 C232 1.601 . S
C1117 C275 1.796 . S
C1122 C191 1.796 . S
C1147 C36 1.601 . S
C1152 C286 1.582 . S
C1177 C146 1.582 . S
C1182 C106 1.601 . S
C1207 C7 0.815 . S
C1212 C315 0.815 . S
C1237 C273 1.453 . S
C1242 C34 1.441 . S
C1267 C9 1.711 . S
C1272 C233 1.711 . S
C1297 C274 2.194 . S
C1302 C92 2.194 . S
C1327 C177 1.711 . S
C1332 C107 1.711 . S
C1357 C76 1.441 . S
C1362 C245 1.453 . S
C1387 C300 1.441 . S
C1392 C287 1.453 . S
C1417 C330 2.194 . S
C1422 C288 2.194 . S
C1447 C314 1.441 . S
C1452 C329 1.453 . S
C1477 C303 1.711 . S
C1482 C317 1.711 . S
C1507 C120 1.601 . S
C1512 C48 1.582 . S
C1537 C23 1.796 . S
C1542 C149 1.796 . S
C1567 C77 0.815 . S
C1572 C119 0.815 . S
C1597 C289 1.796 . S
C1602 C65 1.796 . S
C1627 C90 1.582 . S
C1632 C316 1.601 . S
C1657 C176 1.601 . S
C1662 C202 1.582 . S
C1687 C259 0.815 . S
C1692 C175 0.815 . S
C1717 C244 1.582 . S
C1722 C260 1.601 . S
C1747 C205 1.796 . S
C1752 C247 1.796 . S
