# Generated by pormake.
# Topology vbm, (6)-cn, num edge types: 1
# Building blocks:
#     Node 0, Type 0, BuildingBlock: HISSIN_clean_sbu_0, # of connection points: 6
#     Node 1, Type 0, BuildingBlock: HISSIN_clean_sbu_0, # of connection points: 6
#     Node 2, Type 0, BuildingBlock: HISSIN_clean_sbu_0, # of connection points: 6
#     Node 3, Type 0, BuildingBlock: HISSIN_clean_sbu_0, # of connection points: 6
#     Node 4, Type 0, BuildingBlock: HISSIN_clean_sbu_0, # of connection points: 6
#     Node 5, Type 0, BuildingBlock: HISSIN_clean_sbu_0, # of connection points: 6
#     Node 6, Type 0, BuildingBlock: HISSIN_clean_sbu_0, # of connection points: 6
#     Node 7, Type 0, BuildingBlock: HISSIN_clean_sbu_0, # of connection points: 6
#     Node 8, Type 0, BuildingBlock: HISSIN_clean_sbu_0, # of connection points: 6
#     Node 9, Type 0, BuildingBlock: HISSIN_clean_sbu_0, # of connection points: 6
#     Node 10, Type 0, BuildingBlock: HISSIN_clean_sbu_0, # of connection points: 6
#     Node 11, Type 0, BuildingBlock: HISSIN_clean_sbu_0, # of connection points: 6
#     Node 12, Type 0, BuildingBlock: HISSIN_clean_sbu_0, # of connection points: 6
#     Node 13, Type 0, BuildingBlock: HISSIN_clean_sbu_0, # of connection points: 6
#     Node 14, Type 0, BuildingBlock: HISSIN_clean_sbu_0, # of connection points: 6
#     Node 15, Type 0, BuildingBlock: HISSIN_clean_sbu_0, # of connection points: 6
#     Edge 16, Type (0, 0), BuildingBlock: AJUNOK_clean_linker_0, # of connection points: 2
#     Edge 17, Type (0, 0), BuildingBlock: AJUNOK_clean_linker_0, # of connection points: 2
#     Edge 18, Type (0, 0), BuildingBlock: AJUNOK_clean_linker_0, # of connection points: 2
#     Edge 19, Type (0, 0), BuildingBlock: AJUNOK_clean_linker_0, # of connection points: 2
#     Edge 20, Type (0, 0), BuildingBlock: AJUNOK_clean_linker_0, # of connection points: 2
#     Edge 21, Type (0, 0), BuildingBlock: AJUNOK_clean_linker_0, # of connection points: 2
#     Edge 22, Type (0, 0), BuildingBlock: AJUNOK_clean_linker_0, # of connection points: 2
#     Edge 23, Type (0, 0), BuildingBlock: AJUNOK_clean_linker_0, # of connection points: 2
#     Edge 24, Type (0, 0), BuildingBlock: AJUNOK_clean_linker_0, # of connection points: 2
#     Edge 25, Type (0, 0), BuildingBlock: AJUNOK_clean_linker_0, # of connection points: 2
#     Edge 26, Type (0, 0), BuildingBlock: AJUNOK_clean_linker_0, # of connection points: 2
#     Edge 27, Type (0, 0), BuildingBlock: AJUNOK_clean_linker_0, # of connection points: 2
#     Edge 28, Type (0, 0), BuildingBlock: AJUNOK_clean_linker_0, # of connection points: 2
#     Edge 29, Type (0, 0), BuildingBlock: AJUNOK_clean_linker_0, # of connection points: 2
#     Edge 30, Type (0, 0), BuildingBlock: AJUNOK_clean_linker_0, # of connection points: 2
#     Edge 31, Type (0, 0), BuildingBlock: AJUNOK_clean_linker_0, # of connection points: 2
#     Edge 32, Type (0, 0), BuildingBlock: AJUNOK_clean_linker_0, # of connection points: 2
#     Edge 33, Type (0, 0), BuildingBlock: AJUNOK_clean_linker_0, # of connection points: 2
#     Edge 34, Type (0, 0), BuildingBlock: AJUNOK_clean_linker_0, # of connection points: 2
#     Edge 35, Type (0, 0), BuildingBlock: AJUNOK_clean_linker_0, # of connection points: 2
#     Edge 36, Type (0, 0), BuildingBlock: AJUNOK_clean_linker_0, # of connection points: 2
#     Edge 37, Type (0, 0), BuildingBlock: AJUNOK_clean_linker_0, # of connection points: 2
#     Edge 38, Type (0, 0), BuildingBlock: AJUNOK_clean_linker_0, # of connection points: 2
#     Edge 39, Type (0, 0), BuildingBlock: AJUNOK_clean_linker_0, # of connection points: 2
#     Edge 40, Type (0, 0), BuildingBlock: AJUNOK_clean_linker_0, # of connection points: 2
#     Edge 41, Type (0, 0), BuildingBlock: AJUNOK_clean_linker_0, # of connection points: 2
#     Edge 42, Type (0, 0), BuildingBlock: AJUNOK_clean_linker_0, # of connection points: 2
#     Edge 43, Type (0, 0), BuildingBlock: AJUNOK_clean_linker_0, # of connection points: 2
#     Edge 44, Type (0, 0), BuildingBlock: AJUNOK_clean_linker_0, # of connection points: 2
#     Edge 45, Type (0, 0), BuildingBlock: AJUNOK_clean_linker_0, # of connection points: 2
#     Edge 46, Type (0, 0), BuildingBlock: AJUNOK_clean_linker_0, # of connection points: 2
#     Edge 47, Type (0, 0), BuildingBlock: AJUNOK_clean_linker_0, # of connection points: 2
#     Edge 48, Type (0, 0), BuildingBlock: AJUNOK_clean_linker_0, # of connection points: 2
#     Edge 49, Type (0, 0), BuildingBlock: AJUNOK_clean_linker_0, # of connection points: 2
#     Edge 50, Type (0, 0), BuildingBlock: AJUNOK_clean_linker_0, # of connection points: 2
#     Edge 51, Type (0, 0), BuildingBlock: AJUNOK_clean_linker_0, # of connection points: 2
#     Edge 52, Type (0, 0), BuildingBlock: AJUNOK_clean_linker_0, # of connection points: 2
#     Edge 53, Type (0, 0), BuildingBlock: AJUNOK_clean_linker_0, # of connection points: 2
#     Edge 54, Type (0, 0), BuildingBlock: AJUNOK_clean_linker_0, # of connection points: 2
#     Edge 55, Type (0, 0), BuildingBlock: AJUNOK_clean_linker_0, # of connection points: 2
#     Edge 56, Type (0, 0), BuildingBlock: AJUNOK_clean_linker_0, # of connection points: 2
#     Edge 57, Type (0, 0), BuildingBlock: AJUNOK_clean_linker_0, # of connection points: 2
#     Edge 58, Type (0, 0), BuildingBlock: AJUNOK_clean_linker_0, # of connection points: 2
#     Edge 59, Type (0, 0), BuildingBlock: AJUNOK_clean_linker_0, # of connection points: 2
#     Edge 60, Type (0, 0), BuildingBlock: AJUNOK_clean_linker_0, # of connection points: 2
#     Edge 61, Type (0, 0), BuildingBlock: AJUNOK_clean_linker_0, # of connection points: 2
#     Edge 62, Type (0, 0), BuildingBlock: AJUNOK_clean_linker_0, # of connection points: 2
#     Edge 63, Type (0, 0), BuildingBlock: AJUNOK_clean_linker_0, # of connection points: 2
# Relax obj value: 0.061
# Max RMSD: 0.149
# Mean RMSD: 0.149
data_MOF--net-vbm--node1-HISSIN_clean_sbu_0--edge1-AJUNOK_clean_linker_0
_symmetry_space_group_name_H-M    P1
_symmetry_Int_Tables_number       1
_symmetry_cell_setting            triclinic
loop_
_symmetry_equiv_pos_as_xyz
'x, y, z'
_cell_length_a     39.51584
_cell_length_b     21.268041
_cell_length_c     42.360057
_cell_angle_alpha  89.63773
_cell_angle_beta   90.654746
_cell_angle_gamma 89.848065
loop_
_atom_site_label
_atom_site_type_symbol
_atom_site_fract_x
_atom_site_fract_y
_atom_site_fract_z
_atom_type_partial_charge
Eu0 Eu 0.14572 0.0875 0.12584 0.0
Eu1 Eu 0.10881 0.22063 0.14686 0.0
C2 C 0.1276 0.11253 0.19736 0.0
C3 C 0.16764 0.91315 0.11911 0.0
C4 C 0.14051 0.89577 0.13837 0.0
C5 C 0.18084 0.80272 0.1113 0.0
C6 C 0.13328 0.83219 0.14369 0.0
C7 C 0.18801 0.86631 0.10595 0.0
C8 C 0.15303 0.78494 0.12977 0.0
C9 C 0.1738 0.97969 0.11138 0.0
O10 O 0.16467 0.23148 0.15317 0.0
O11 O 0.18263 0.16531 0.1146 0.0
C12 C 0.18708 0.21524 0.13226 0.0
O13 O 0.11918 0.12591 0.08284 0.0
O14 O 0.10455 0.29627 0.18123 0.0
O15 O 0.07466 0.29989 0.13815 0.0
O16 O 0.12097 0.23083 0.09459 0.0
C17 C 0.11744 0.18503 0.07407 0.0
O18 O 0.09259 0.06165 0.13988 0.0
O19 O 0.06627 0.15731 0.13259 0.0
O20 O 0.10377 0.15236 0.18829 0.0
O21 O 0.15036 1.00725 0.09438 0.0
O22 O 0.18439 1.01527 0.13438 0.0
O23 O 0.15223 0.09797 0.1783 0.0
C24 C 0.09513 0.3959 0.15815 0.0
C25 C 0.12297 0.40983 0.13908 0.0
C26 C 0.08751 0.50753 0.16784 0.0
C27 C 0.13306 0.47221 0.13445 0.0
C28 C 0.07754 0.44506 0.17257 0.0
C29 C 0.11525 0.52188 0.14855 0.0
C30 C 0.0846 0.33028 0.16324 0.0
C31 C 0.06505 0.09594 0.13584 0.0
H32 H 0.1246 0.93139 0.14881 0.0
H33 H 0.19695 0.76742 0.10085 0.0
H34 H 0.11172 0.81996 0.15803 0.0
H35 H 0.20918 0.87891 0.09118 0.0
H36 H 0.13686 0.37239 0.12777 0.0
H37 H 0.07323 0.54472 0.17894 0.0
H38 H 0.15497 0.48152 0.12003 0.0
H39 H 0.05601 0.43515 0.1874 0.0
Eu40 Eu 0.8502 0.99979 0.12679 0.0
Eu41 Eu 0.88606 0.86505 0.14961 0.0
C42 C 0.86594 0.97389 0.19866 0.0
C43 C 0.83292 0.17626 0.1205 0.0
C44 C 0.84972 0.19022 0.14897 0.0
C45 C 0.83223 0.28743 0.10703 0.0
C46 C 0.85782 0.25251 0.15637 0.0
C47 C 0.82403 0.22524 0.09973 0.0
C48 C 0.84959 0.30174 0.13525 0.0
C49 C 0.82631 0.11082 0.11126 0.0
O50 O 0.83025 0.84857 0.15087 0.0
O51 O 0.80947 0.92728 0.11829 0.0
C52 C 0.80641 0.87268 0.13274 0.0
O53 O 0.86448 0.95174 0.08198 0.0
O54 O 0.88933 0.79078 0.18545 0.0
O55 O 0.92277 0.78893 0.14533 0.0
O56 O 0.87305 0.84872 0.09778 0.0
C57 C 0.86842 0.89183 0.07562 0.0
O58 O 0.90461 1.02005 0.14058 0.0
O59 O 0.92755 0.92374 0.13019 0.0
O60 O 0.89036 0.9354 0.19023 0.0
O61 O 0.8508 0.08296 0.09643 0.0
O62 O 0.81256 0.07425 0.13235 0.0
O63 O 0.84175 0.98865 0.17864 0.0
C64 C 0.90339 0.6914 0.16502 0.0
C65 C 0.88686 0.67144 0.13735 0.0
C66 C 0.90315 0.58375 0.18465 0.0
C67 C 0.87864 0.60805 0.13332 0.0
C68 C 0.91142 0.64719 0.18864 0.0
C69 C 0.88674 0.56351 0.1569 0.0
C70 C 0.91151 0.75826 0.16981 0.0
C71 C 0.93094 0.98398 0.13501 0.0
H72 H 0.85691 0.15291 0.16528 0.0
H73 H 0.82569 0.32423 0.09023 0.0
H74 H 0.87057 0.26214 0.17858 0.0
H75 H 0.81126 0.21527 0.07755 0.0
H76 H 0.88024 0.70489 0.11887 0.0
H77 H 0.90917 0.55067 0.20345 0.0
H78 H 0.86614 0.59372 0.11165 0.0
H79 H 0.9239 0.66183 0.21028 0.0
Eu80 Eu 0.14484 0.99708 0.38764 0.0
Eu81 Eu 0.10797 0.8635 0.36628 0.0
C82 C 0.12782 0.97102 0.31598 0.0
C83 C 0.16437 0.17204 0.39416 0.0
C84 C 0.14181 0.18754 0.36945 0.0
C85 C 0.17123 0.28309 0.40553 0.0
C86 C 0.13398 0.25054 0.36285 0.0
C87 C 0.17916 0.22015 0.41201 0.0
C88 C 0.14849 0.29894 0.38095 0.0
C89 C 0.17119 0.106 0.40263 0.0
O90 O 0.16388 0.84699 0.36432 0.0
O91 O 0.18345 0.92166 0.39906 0.0
C92 C 0.1871 0.86871 0.38364 0.0
O93 O 0.11962 0.95735 0.43049 0.0
O94 O 0.1033 0.78877 0.33136 0.0
O95 O 0.07262 0.78621 0.37339 0.0
O96 O 0.12 0.8523 0.41866 0.0
C97 C 0.11772 0.89821 0.43921 0.0
O98 O 0.0918 1.0222 0.37167 0.0
O99 O 0.06585 0.92745 0.38075 0.0
O100 O 0.10386 0.93185 0.32462 0.0
O101 O 0.14773 0.07816 0.41885 0.0
O102 O 0.18282 0.07016 0.38035 0.0
O103 O 0.15236 0.98548 0.33558 0.0
C104 C 0.09163 0.68918 0.35321 0.0
C105 C 0.11324 0.67077 0.37813 0.0
C106 C 0.08849 0.5804 0.33617 0.0
C107 C 0.12246 0.60762 0.38201 0.0
C108 C 0.07929 0.64362 0.3323 0.0
C109 C 0.11042 0.56174 0.36093 0.0
C110 C 0.0825 0.75578 0.34845 0.0
C111 C 0.06437 0.98849 0.37618 0.0
H112 H 0.12988 0.15088 0.35563 0.0
H113 H 0.18281 0.31947 0.41978 0.0
H114 H 0.11595 0.26134 0.34413 0.0
H115 H 0.19649 0.20898 0.43126 0.0
H116 H 0.12302 0.70531 0.39452 0.0
H117 H 0.07815 0.54604 0.31998 0.0
H118 H 0.13932 0.59468 0.40132 0.0
H119 H 0.06252 0.65696 0.31297 0.0
Eu120 Eu 0.85071 0.09137 0.39137 0.0
Eu121 Eu 0.88364 0.22422 0.36547 0.0
C122 C 0.86703 0.11076 0.31795 0.0
C123 C 0.82937 0.91769 0.40101 0.0
C124 C 0.85092 0.90115 0.37628 0.0
C125 C 0.81866 0.80685 0.411 0.0
C126 C 0.85645 0.83782 0.36908 0.0
C127 C 0.81314 0.87022 0.41819 0.0
C128 C 0.84049 0.78989 0.38643 0.0
C129 C 0.82494 0.98401 0.4099 0.0
O130 O 0.82808 0.22457 0.35597 0.0
O131 O 0.81209 0.16904 0.39928 0.0
C132 C 0.80578 0.21187 0.37751 0.0
O133 O 0.87655 0.13598 0.43278 0.0
O134 O 0.88346 0.30009 0.33042 0.0
O135 O 0.91674 0.30547 0.37118 0.0
O136 O 0.87064 0.23871 0.41738 0.0
C137 C 0.87604 0.19594 0.43949 0.0
O138 O 0.90391 0.06692 0.37645 0.0
O139 O 0.92831 0.16494 0.37906 0.0
O140 O 0.88943 0.15447 0.32509 0.0
O141 O 0.8511 1.01039 0.42326 0.0
O142 O 0.81064 1.02076 0.38886 0.0
O143 O 0.84456 0.09209 0.33854 0.0
C144 C 0.89332 0.40055 0.35185 0.0
C145 C 0.86912 0.41485 0.37476 0.0
C146 C 0.89741 0.5117 0.33883 0.0
C147 C 0.85932 0.4773 0.37983 0.0
C148 C 0.90726 0.4493 0.33384 0.0
C149 C 0.87335 0.52651 0.3619 0.0
C150 C 0.90423 0.33516 0.34665 0.0
C151 C 0.93076 0.10356 0.37738 0.0
H152 H 0.86377 0.93722 0.36283 0.0
H153 H 0.80654 0.77111 0.42523 0.0
H154 H 0.87332 0.82628 0.34998 0.0
H155 H 0.79663 0.88213 0.43752 0.0
H156 H 0.85807 0.37775 0.38891 0.0
H157 H 0.90856 0.54846 0.32454 0.0
H158 H 0.84127 0.48714 0.39821 0.0
H159 H 0.92587 0.43914 0.31598 0.0
Eu160 Eu 0.8857 0.8579 0.86741 0.0
Eu161 Eu 0.85107 0.9939 0.88964 0.0
C162 C 0.87073 0.88708 0.94057 0.0
C163 C 0.90098 0.68328 0.85543 0.0
C164 C 0.88618 0.66391 0.88385 0.0
C165 C 0.89585 0.57672 0.8356 0.0
C166 C 0.87643 0.60136 0.88814 0.0
C167 C 0.90577 0.63928 0.83138 0.0
C168 C 0.88088 0.55721 0.86398 0.0
C169 C 0.91044 0.74944 0.85023 0.0
O170 O 0.90506 1.01498 0.87625 0.0
O171 O 0.92818 0.91744 0.8851 0.0
C172 C 0.93147 0.97804 0.8807 0.0
O173 O 0.88988 0.92447 0.82506 0.0
O174 O 0.85226 0.07499 0.92086 0.0
O175 O 0.81159 0.06582 0.88648 0.0
O176 O 0.84872 0.99722 0.83681 0.0
C177 C 0.87027 0.97252 0.81709 0.0
O178 O 0.83002 0.84412 0.86268 0.0
O179 O 0.81028 0.92037 0.89613 0.0
O180 O 0.8713 0.94708 0.93341 0.0
O181 O 0.88952 0.78253 0.83279 0.0
O182 O 0.92118 0.7804 0.87487 0.0
O183 O 0.87062 0.84332 0.91871 0.0
C184 C 0.83035 0.16839 0.89898 0.0
C185 C 0.84456 0.18592 0.87003 0.0
C186 C 0.82847 0.27815 0.91423 0.0
C187 C 0.85076 0.2493 0.86323 0.0
C188 C 0.82211 0.21487 0.9209 0.0
C189 C 0.84304 0.29595 0.88541 0.0
C190 C 0.82604 0.10183 0.90751 0.0
C191 C 0.80651 0.86733 0.88071 0.0
H192 H 0.88194 0.6972 0.90267 0.0
H193 H 0.90025 0.54346 0.81682 0.0
H194 H 0.86493 0.58765 0.91023 0.0
H195 H 0.91712 0.65338 0.80928 0.0
H196 H 0.85149 0.15051 0.85301 0.0
H197 H 0.82227 0.31323 0.93169 0.0
H198 H 0.86253 0.26164 0.84108 0.0
H199 H 0.81133 0.20209 0.94345 0.0
Eu200 Eu 0.10943 0.21346 0.86538 0.0
Eu201 Eu 0.14599 0.08057 0.88951 0.0
C202 C 0.11846 0.18161 0.93891 0.0
C203 C 0.09557 0.38934 0.85337 0.0
C204 C 0.09956 0.41232 0.88426 0.0
C205 C 0.11142 0.49232 0.83294 0.0
C206 C 0.10918 0.47476 0.88939 0.0
C207 C 0.10155 0.43 0.8278 0.0
C208 C 0.11542 0.51533 0.8638 0.0
C209 C 0.0859 0.32317 0.8474 0.0
O210 O 0.09302 0.05556 0.8737 0.0
O211 O 0.06695 0.15113 0.88026 0.0
C212 C 0.06558 0.08981 0.87746 0.0
O213 O 0.10546 0.14445 0.82436 0.0
O214 O 0.14792 1.00039 0.92198 0.0
O215 O 0.18453 1.0074 0.88458 0.0
O216 O 0.15311 0.08833 0.83718 0.0
C217 C 0.12945 0.10429 0.81673 0.0
O218 O 0.16517 0.22469 0.8606 0.0
O219 O 0.18425 0.15732 0.89932 0.0
O220 O 0.12021 0.12207 0.93136 0.0
O221 O 0.10693 0.29009 0.8307 0.0
O222 O 0.07387 0.29109 0.87111 0.0
O223 O 0.12192 0.22631 0.91759 0.0
C224 C 0.16577 0.90493 0.89937 0.0
C225 C 0.16247 0.8837 0.86811 0.0
C226 C 0.15492 0.79855 0.91814 0.0
C227 C 0.15561 0.82029 0.86197 0.0
C228 C 0.16206 0.86172 0.92426 0.0
C229 C 0.15167 0.77713 0.88694 0.0
C230 C 0.17185 0.9719 0.90671 0.0
C231 C 0.18798 0.20766 0.88153 0.0
H232 H 0.09547 0.38206 0.90451 0.0
H233 H 0.11549 0.52279 0.81276 0.0
H234 H 0.11222 0.49112 0.91342 0.0
H235 H 0.09862 0.41346 0.80379 0.0
H236 H 0.1648 0.91611 0.84842 0.0
H237 H 0.15204 0.7663 0.93782 0.0
H238 H 0.15268 0.80525 0.83771 0.0
H239 H 0.16437 0.87703 0.94854 0.0
Eu240 Eu 0.8834 0.22018 0.64815 0.0
Eu241 Eu 0.85127 0.08722 0.62138 0.0
C242 C 0.87587 0.19347 0.57404 0.0
C243 C 0.89248 0.39663 0.66119 0.0
C244 C 0.86118 0.40978 0.64653 0.0
C245 C 0.90365 0.50866 0.66447 0.0
C246 C 0.85123 0.4721 0.6408 0.0
C247 C 0.91355 0.44639 0.67022 0.0
C248 C 0.87252 0.52223 0.64946 0.0
C249 C 0.90361 0.33135 0.66669 0.0
O250 O 0.90527 0.06352 0.63499 0.0
O251 O 0.92857 0.16261 0.63535 0.0
C252 C 0.9317 0.1012 0.63515 0.0
O253 O 0.89032 0.15136 0.68916 0.0
O254 O 0.85049 1.00916 0.58831 0.0
O255 O 0.81126 1.0164 0.62335 0.0
O256 O 0.85074 0.07751 0.67424 0.0
C257 C 0.87191 0.10103 0.69513 0.0
O258 O 0.82826 0.21778 0.65814 0.0
O259 O 0.81215 0.1649 0.61426 0.0
O260 O 0.87716 0.13339 0.58075 0.0
O261 O 0.88316 0.29576 0.68276 0.0
O262 O 0.91592 0.30229 0.64236 0.0
O263 O 0.86957 0.23525 0.59605 0.0
C264 C 0.83002 0.91462 0.61001 0.0
C265 C 0.85926 0.89488 0.62642 0.0
C266 C 0.81085 0.80619 0.60808 0.0
C267 C 0.86445 0.83115 0.63329 0.0
C268 C 0.80571 0.87001 0.60116 0.0
C269 C 0.84051 0.78597 0.62385 0.0
C270 C 0.82499 0.98139 0.60177 0.0
C271 C 0.80578 0.20632 0.63625 0.0
H272 H 0.84452 0.37186 0.63947 0.0
H273 H 0.92063 0.54624 0.67128 0.0
H274 H 0.82684 0.48108 0.62973 0.0
H275 H 0.93781 0.43706 0.68151 0.0
H276 H 0.87827 0.92869 0.6336 0.0
H277 H 0.79159 0.7727 0.60114 0.0
H278 H 0.88755 0.81704 0.64543 0.0
H279 H 0.78284 0.88448 0.58873 0.0
Eu280 Eu 0.10887 0.85983 0.64784 0.0
Eu281 Eu 0.14606 0.99239 0.62606 0.0
C282 C 0.11708 0.89629 0.57501 0.0
C283 C 0.09311 0.68412 0.65764 0.0
C284 C 0.11325 0.66835 0.63175 0.0
C285 C 0.09073 0.5735 0.67234 0.0
C286 C 0.1222 0.60564 0.62629 0.0
C287 C 0.08194 0.63629 0.67787 0.0
C288 C 0.11093 0.55732 0.64644 0.0
C289 C 0.08424 0.75021 0.66404 0.0
O290 O 0.09333 1.0195 0.64094 0.0
O291 O 0.06646 0.92472 0.63409 0.0
C292 C 0.06558 0.98607 0.63723 0.0
O293 O 0.10522 0.92716 0.68948 0.0
O294 O 0.15103 0.07169 0.59345 0.0
O295 O 0.18368 0.06582 0.63456 0.0
O296 O 0.15377 0.98012 0.67829 0.0
C297 C 0.12969 0.96569 0.69801 0.0
O298 O 0.1648 0.8481 0.65363 0.0
O299 O 0.18292 0.91405 0.61471 0.0
O300 O 0.11811 0.95513 0.58391 0.0
O301 O 0.10576 0.78151 0.6814 0.0
O302 O 0.07317 0.78329 0.64001 0.0
O303 O 0.1209 0.85015 0.5956 0.0
C304 C 0.16609 0.16706 0.61751 0.0
C305 C 0.14285 0.1838 0.64087 0.0
C306 C 0.1729 0.27761 0.60413 0.0
C307 C 0.13462 0.24709 0.64576 0.0
C308 C 0.18124 0.21438 0.59938 0.0
C309 C 0.14923 0.29459 0.62714 0.0
C310 C 0.17342 0.10052 0.61083 0.0
C311 C 0.1869 0.86308 0.63213 0.0
H312 H 0.12244 0.70467 0.616 0.0
H313 H 0.08149 0.53749 0.68822 0.0
H314 H 0.13854 0.59522 0.60664 0.0
H315 H 0.06643 0.64752 0.69801 0.0
H316 H 0.13073 0.14787 0.655 0.0
H317 H 0.18493 0.31329 0.58979 0.0
H318 H 0.11625 0.25884 0.66358 0.0
H319 H 0.19924 0.20235 0.58126 0.0
Eu320 Eu 0.64173 0.59528 0.12082 0.0
Eu321 Eu 0.60572 0.72978 0.14246 0.0
C322 C 0.62199 0.61749 0.19354 0.0
C323 C 0.66121 0.42192 0.11125 0.0
C324 C 0.6363 0.40671 0.13332 0.0
C325 C 0.66985 0.31065 0.10143 0.0
C326 C 0.62796 0.34392 0.13922 0.0
C327 C 0.67818 0.37358 0.09556 0.0
C328 C 0.64426 0.29522 0.12295 0.0
C329 C 0.66815 0.48806 0.10342 0.0
O330 O 0.66128 0.74267 0.14912 0.0
O331 O 0.68058 0.67175 0.11299 0.0
C332 C 0.68472 0.72254 0.13014 0.0
O333 O 0.61389 0.63537 0.07896 0.0
O334 O 0.60078 0.80679 0.17595 0.0
O335 O 0.57108 0.80777 0.13271 0.0
O336 O 0.61938 0.7395 0.09046 0.0
C337 C 0.61452 0.69426 0.06988 0.0
O338 O 0.58901 0.56987 0.13564 0.0
O339 O 0.5627 0.66584 0.12975 0.0
O340 O 0.60239 0.66556 0.18568 0.0
O341 O 0.6441 0.51712 0.08787 0.0
O342 O 0.68061 0.52246 0.12612 0.0
O343 O 0.64327 0.59205 0.17377 0.0
C344 C 0.58968 0.90536 0.15244 0.0
C345 C 0.61554 0.92156 0.13148 0.0
C346 C 0.58147 1.01593 0.1642 0.0
C347 C 0.6242 0.98469 0.12678 0.0
C348 C 0.57283 0.95284 0.16885 0.0
C349 C 0.60704 1.03262 0.1429 0.0
C350 C 0.58041 0.83922 0.15766 0.0
C351 C 0.56149 0.60445 0.13296 0.0
H352 H 0.623 0.44354 0.14562 0.0
H353 H 0.68281 0.2741 0.08855 0.0
H354 H 0.60865 0.33345 0.15639 0.0
H355 H 0.69741 0.38453 0.07837 0.0
H356 H 0.62893 0.88539 0.1187 0.0
H357 H 0.56836 0.05165 0.1775 0.0
H358 H 0.64399 0.99611 0.11024 0.0
H359 H 0.55304 0.94109 0.18535 0.0
Eu360 Eu 0.34763 0.50201 0.12439 0.0
Eu361 Eu 0.38434 0.36679 0.14453 0.0
C362 C 0.36367 0.47075 0.19573 0.0
C363 C 0.32705 0.67764 0.11706 0.0
C364 C 0.34635 0.69433 0.14371 0.0
C365 C 0.32186 0.78801 0.1027 0.0
C366 C 0.35336 0.7576 0.14981 0.0
C367 C 0.31474 0.7248 0.09671 0.0
C368 C 0.34128 0.80515 0.1293 0.0
C369 C 0.32112 0.61133 0.10921 0.0
O370 O 0.32868 0.35085 0.14774 0.0
O371 O 0.30831 0.42776 0.114 0.0
C372 C 0.30502 0.37405 0.12917 0.0
O373 O 0.36945 0.46082 0.08072 0.0
O374 O 0.38998 0.29058 0.17902 0.0
O375 O 0.42014 0.29042 0.13663 0.0
O376 O 0.36938 0.35565 0.09278 0.0
C377 C 0.36898 0.40186 0.07195 0.0
O378 O 0.40122 0.52493 0.13975 0.0
O379 O 0.42536 0.43008 0.12782 0.0
O380 O 0.38826 0.43326 0.18667 0.0
O381 O 0.34493 0.58405 0.09327 0.0
O382 O 0.30967 0.57526 0.13167 0.0
O383 O 0.33948 0.487 0.17602 0.0
C384 C 0.40116 0.1924 0.15604 0.0
C385 C 0.38204 0.17512 0.12935 0.0
C386 C 0.40021 0.08391 0.17432 0.0
C387 C 0.37203 0.11266 0.12521 0.0
C388 C 0.41027 0.14639 0.17842 0.0
C389 C 0.38068 0.06656 0.14784 0.0
C390 C 0.41052 0.25849 0.16135 0.0
C391 C 0.42803 0.49004 0.13408 0.0
H392 H 0.35632 0.65842 0.15955 0.0
H393 H 0.31291 0.82329 0.08603 0.0
H394 H 0.36836 0.76936 0.17049 0.0
H395 H 0.30014 0.71265 0.07583 0.0
H396 H 0.37476 0.20995 0.11176 0.0
H397 H 0.40723 0.04929 0.1921 0.0
H398 H 0.35772 0.10026 0.10421 0.0
H399 H 0.4249 0.15892 0.19923 0.0
Eu400 Eu 0.6464 0.50254 0.38756 0.0
Eu401 Eu 0.6123 0.36932 0.36229 0.0
C402 C 0.62395 0.48702 0.31488 0.0
C403 C 0.66694 0.67581 0.39552 0.0
C404 C 0.64126 0.69125 0.37366 0.0
C405 C 0.67876 0.78702 0.40235 0.0
C406 C 0.63402 0.7542 0.36654 0.0
C407 C 0.68598 0.72395 0.40947 0.0
C408 C 0.65223 0.80282 0.38129 0.0
C409 C 0.67267 0.60991 0.40495 0.0
O410 O 0.66745 0.36897 0.35177 0.0
O411 O 0.68594 0.42549 0.39384 0.0
C412 C 0.69077 0.38127 0.37286 0.0
O413 O 0.62761 0.45347 0.43079 0.0
O414 O 0.61068 0.29488 0.32699 0.0
O415 O 0.57887 0.28864 0.36807 0.0
O416 O 0.62886 0.35141 0.4133 0.0
C417 C 0.62803 0.3928 0.43629 0.0
O418 O 0.59158 0.52514 0.3762 0.0
O419 O 0.56875 0.42618 0.37948 0.0
O420 O 0.60373 0.44008 0.32237 0.0
O421 O 0.64743 0.58292 0.41919 0.0
O422 O 0.68616 0.57345 0.38383 0.0
O423 O 0.64735 0.50706 0.33458 0.0
C424 C 0.60018 0.19377 0.34779 0.0
C425 C 0.62765 0.17768 0.36758 0.0
C426 C 0.59063 0.08299 0.33751 0.0
C427 C 0.63633 0.11446 0.37254 0.0
C428 C 0.58194 0.14613 0.33261 0.0
C429 C 0.61762 0.06636 0.35788 0.0
C430 C 0.59005 0.25985 0.34318 0.0
C431 C 0.56532 0.48743 0.3785 0.0
H432 H 0.62641 0.65461 0.36252 0.0
H433 H 0.69324 0.82348 0.41401 0.0
H434 H 0.61396 0.76488 0.34969 0.0
H435 H 0.70594 0.71281 0.42636 0.0
H436 H 0.64211 0.21398 0.37941 0.0
H437 H 0.57625 0.04711 0.32529 0.0
H438 H 0.65725 0.10311 0.38834 0.0
H439 H 0.56084 0.15776 0.31707 0.0
Eu440 Eu 0.35044 0.58713 0.38728 0.0
Eu441 Eu 0.38445 0.72028 0.3617 0.0
C442 C 0.36442 0.60885 0.31435 0.0
C443 C 0.33078 0.41239 0.39588 0.0
C444 C 0.35391 0.39659 0.37229 0.0
C445 C 0.31967 0.30126 0.40453 0.0
C446 C 0.36001 0.33347 0.36498 0.0
C447 C 0.31361 0.36439 0.41182 0.0
C448 C 0.343 0.28501 0.38105 0.0
C449 C 0.32558 0.47844 0.40494 0.0
O450 O 0.32814 0.72924 0.35792 0.0
O451 O 0.31257 0.66376 0.39815 0.0
C452 C 0.30679 0.71291 0.37988 0.0
O453 O 0.37666 0.63108 0.42875 0.0
O454 O 0.38532 0.79501 0.32607 0.0
O455 O 0.41871 0.79999 0.36681 0.0
O456 O 0.37343 0.73474 0.41374 0.0
C457 C 0.37781 0.69107 0.43552 0.0
O458 O 0.40319 0.56325 0.37146 0.0
O459 O 0.42833 0.65983 0.37693 0.0
O460 O 0.38821 0.64981 0.3215 0.0
O461 O 0.3513 0.50547 0.4187 0.0
O462 O 0.31116 0.51507 0.38393 0.0
O463 O 0.34138 0.59359 0.33499 0.0
C464 C 0.39604 0.89541 0.34721 0.0
C465 C 0.37115 0.91015 0.36939 0.0
C466 C 0.40144 1.00658 0.33465 0.0
C467 C 0.36151 0.97275 0.37421 0.0
C468 C 0.41105 0.94397 0.32984 0.0
C469 C 0.37652 1.02174 0.35685 0.0
C470 C 0.40645 0.82968 0.34216 0.0
C471 C 0.43033 0.59836 0.37493 0.0
H472 H 0.36751 0.43307 0.35979 0.0
H473 H 0.30673 0.26512 0.41783 0.0
H474 H 0.37808 0.32251 0.34677 0.0
H475 H 0.29589 0.37571 0.43029 0.0
H476 H 0.35938 0.87324 0.38314 0.0
H477 H 0.41339 0.04321 0.32085 0.0
H478 H 0.34277 0.98288 0.39194 0.0
H479 H 0.43026 0.93348 0.31259 0.0
Eu480 Eu 0.38597 0.35935 0.86408 0.0
Eu481 Eu 0.34835 0.49461 0.88309 0.0
C482 C 0.37225 0.39733 0.9356 0.0
C483 C 0.40303 0.18452 0.8564 0.0
C484 C 0.37596 0.1703 0.87633 0.0
C485 C 0.41055 0.07311 0.84627 0.0
C486 C 0.3661 0.10787 0.8811 0.0
C487 C 0.42027 0.13564 0.84142 0.0
C488 C 0.3834 0.05852 0.86623 0.0
C489 C 0.41266 0.25025 0.85051 0.0
O490 O 0.40126 0.51996 0.86863 0.0
O491 O 0.42781 0.42518 0.87779 0.0
C492 C 0.42888 0.4862 0.87297 0.0
O493 O 0.38924 0.4225 0.8204 0.0
O494 O 0.34454 0.57304 0.91572 0.0
O495 O 0.30996 0.56785 0.87594 0.0
O496 O 0.3458 0.49185 0.83035 0.0
C497 C 0.36841 0.46801 0.81145 0.0
O498 O 0.33041 0.34339 0.8581 0.0
O499 O 0.3098 0.41822 0.89174 0.0
O500 O 0.3751 0.45531 0.92555 0.0
O501 O 0.39278 0.28168 0.83131 0.0
O502 O 0.42115 0.28293 0.87532 0.0
O503 O 0.37025 0.35062 0.91551 0.0
C504 C 0.32771 0.66855 0.8924 0.0
C505 C 0.35471 0.6858 0.87301 0.0
C506 C 0.31595 0.77895 0.90182 0.0
C507 C 0.36254 0.74922 0.86828 0.0
C508 C 0.30814 0.71544 0.9065 0.0
C509 C 0.34358 0.79646 0.88306 0.0
C510 C 0.32106 0.60193 0.89934 0.0
C511 C 0.30653 0.36521 0.87622 0.0
H512 H 0.36235 0.20758 0.88805 0.0
H513 H 0.42441 1.03609 0.8346 0.0
H514 H 0.34466 0.09832 0.89607 0.0
H515 H 0.44119 0.14583 0.8259 0.0
H516 H 0.37009 0.65007 0.86209 0.0
H517 H 0.30049 0.81437 0.91298 0.0
H518 H 0.38396 0.76131 0.85373 0.0
H519 H 0.28714 0.70292 0.92149 0.0
Eu520 Eu 0.60778 0.72309 0.86035 0.0
Eu521 Eu 0.64201 0.58912 0.88494 0.0
C522 C 0.61549 0.69126 0.93417 0.0
C523 C 0.59303 0.89812 0.84639 0.0
C524 C 0.61737 0.91445 0.86928 0.0
C525 C 0.58558 1.00869 0.83329 0.0
C526 C 0.62564 0.97761 0.87426 0.0
C527 C 0.57735 0.94554 0.82833 0.0
C528 C 0.60958 1.02549 0.85652 0.0
C529 C 0.58391 0.83193 0.84119 0.0
O530 O 0.58911 0.56552 0.868 0.0
O531 O 0.5647 0.6623 0.87499 0.0
C532 C 0.56218 0.60146 0.87108 0.0
O533 O 0.60417 0.65422 0.8192 0.0
O534 O 0.64254 0.50823 0.91685 0.0
O535 O 0.68049 0.51561 0.88074 0.0
O536 O 0.65101 0.59702 0.83291 0.0
C537 C 0.62798 0.61345 0.81197 0.0
O538 O 0.66375 0.73425 0.85751 0.0
O539 O 0.68056 0.66471 0.89615 0.0
O540 O 0.6161 0.63169 0.92646 0.0
O541 O 0.60547 0.79865 0.82521 0.0
O542 O 0.57259 0.80141 0.86568 0.0
O543 O 0.61941 0.73585 0.91281 0.0
C544 C 0.6604 0.41422 0.89353 0.0
C545 C 0.63689 0.40013 0.86954 0.0
C546 C 0.66853 0.30245 0.90326 0.0
C547 C 0.62902 0.33755 0.86264 0.0
C548 C 0.67639 0.36508 0.91014 0.0
C549 C 0.64438 0.28803 0.87976 0.0
C550 C 0.66706 0.47988 0.90233 0.0
C551 C 0.68577 0.71523 0.87879 0.0
H552 H 0.62979 0.87836 0.88342 0.0
H553 H 0.57334 0.04439 0.81879 0.0
H554 H 0.64419 0.98911 0.89232 0.0
H555 H 0.55871 0.93372 0.81038 0.0
H556 H 0.62433 0.43756 0.85643 0.0
H557 H 0.68073 0.26532 0.91685 0.0
H558 H 0.61086 0.3279 0.84396 0.0
H559 H 0.69453 0.37515 0.92879 0.0
Eu560 Eu 0.38368 0.71731 0.64338 0.0
Eu561 Eu 0.3518 0.58244 0.61695 0.0
C562 C 0.3773 0.68944 0.56952 0.0
C563 C 0.39441 0.89204 0.65812 0.0
C564 C 0.36897 0.90687 0.63587 0.0
C565 C 0.3996 1.00277 0.67075 0.0
C566 C 0.35907 0.96941 0.63094 0.0
C567 C 0.40952 0.94025 0.67562 0.0
C568 C 0.37432 1.0181 0.64831 0.0
C569 C 0.40537 0.82656 0.66303 0.0
O570 O 0.40554 0.56052 0.63224 0.0
O571 O 0.42813 0.65976 0.62865 0.0
C572 C 0.43172 0.59856 0.63047 0.0
O573 O 0.3887 0.64753 0.6842 0.0
O574 O 0.35377 0.50208 0.58531 0.0
O575 O 0.31195 0.5114 0.61746 0.0
O576 O 0.34753 0.57704 0.66958 0.0
C577 C 0.36894 0.59927 0.69054 0.0
O578 O 0.32771 0.72565 0.6469 0.0
O579 O 0.3118 0.6572 0.60788 0.0
O580 O 0.37736 0.6293 0.5763 0.0
O581 O 0.38485 0.79098 0.67905 0.0
O582 O 0.41716 0.79803 0.63829 0.0
O583 O 0.37176 0.7322 0.59116 0.0
C584 C 0.33147 0.40905 0.60665 0.0
C585 C 0.35393 0.39235 0.6312 0.0
C586 C 0.31916 0.29856 0.59816 0.0
C587 C 0.35916 0.32907 0.63903 0.0
C588 C 0.31395 0.36191 0.59033 0.0
C589 C 0.34197 0.28146 0.62249 0.0
C590 C 0.32717 0.47525 0.59727 0.0
C591 C 0.30587 0.706 0.62588 0.0
H592 H 0.35707 0.8701 0.62211 0.0
H593 H 0.4117 1.03923 0.68457 0.0
H594 H 0.34002 0.97977 0.61305 0.0
H595 H 0.42912 0.92957 0.69295 0.0
H596 H 0.36772 0.42823 0.644 0.0
H597 H 0.30605 0.26293 0.58461 0.0
H598 H 0.3768 0.31729 0.65794 0.0
H599 H 0.29666 0.37405 0.5712 0.0
Eu600 Eu 0.61106 0.36667 0.64383 0.0
Eu601 Eu 0.64794 0.49925 0.62056 0.0
C602 C 0.62854 0.39236 0.57037 0.0
C603 C 0.59766 0.1915 0.65692 0.0
C604 C 0.62532 0.17714 0.63772 0.0
C605 C 0.5891 0.07971 0.66624 0.0
C606 C 0.63463 0.11447 0.63261 0.0
C607 C 0.57975 0.14243 0.67128 0.0
C608 C 0.61642 0.06498 0.64657 0.0
C609 C 0.5873 0.25735 0.66182 0.0
O610 O 0.594 0.52352 0.63267 0.0
O611 O 0.56862 0.42754 0.62609 0.0
C612 C 0.56681 0.48886 0.62855 0.0
O613 O 0.60494 0.43716 0.68387 0.0
O614 O 0.64977 0.58082 0.58924 0.0
O615 O 0.68668 0.57163 0.62707 0.0
O616 O 0.65317 0.49216 0.67331 0.0
C617 C 0.62875 0.47698 0.69257 0.0
O618 O 0.66661 0.36007 0.65394 0.0
O619 O 0.68674 0.42182 0.61406 0.0
O620 O 0.63011 0.45276 0.57614 0.0
O621 O 0.60769 0.29138 0.67902 0.0
O622 O 0.57664 0.2877 0.63676 0.0
O623 O 0.62703 0.34992 0.59308 0.0
C624 C 0.66787 0.67425 0.61339 0.0
C625 C 0.64162 0.6904 0.63391 0.0
C626 C 0.67965 0.78532 0.60536 0.0
C627 C 0.63414 0.75367 0.63979 0.0
C628 C 0.68706 0.72207 0.59946 0.0
C629 C 0.65271 0.80189 0.62515 0.0
C630 C 0.6741 0.6081 0.60497 0.0
C631 C 0.6905 0.37497 0.63417 0.0
H632 H 0.63963 0.21445 0.62661 0.0
H633 H 0.57459 0.04264 0.6773 0.0
H634 H 0.65621 0.10473 0.61786 0.0
H635 H 0.55838 0.15261 0.68624 0.0
H636 H 0.62654 0.65406 0.64491 0.0
H637 H 0.69492 0.82131 0.59432 0.0
H638 H 0.61327 0.7649 0.65513 0.0
H639 H 0.70749 0.71052 0.58364 0.0
C640 C 0.21539 0.31908 0.13877 0.0
C641 C 0.21694 0.2562 0.12837 0.0
C642 C 0.24351 0.35879 0.13703 0.0
C643 C 0.27423 0.33658 0.12533 0.0
H644 H 0.19244 0.33769 0.14887 0.0
H645 H 0.24165 0.40608 0.14625 0.0
S646 S 0.29148 0.17808 0.09336 0.0
N647 N 0.25149 0.17526 0.1042 0.0
N648 N 0.3047 0.24971 0.10182 0.0
C649 C 0.27604 0.27476 0.11401 0.0
C650 C 0.24726 0.23457 0.11524 0.0
C651 C 0.74353 0.86294 0.13209 0.0
C652 C 0.77545 0.83523 0.12851 0.0
C653 C 0.71423 0.82591 0.13207 0.0
C654 C 0.71589 0.76026 0.12772 0.0
H655 H 0.74129 0.91299 0.13624 0.0
H656 H 0.69012 0.84885 0.13584 0.0
S657 S 0.79346 0.66649 0.11433 0.0
N658 N 0.80714 0.73928 0.11869 0.0
N659 N 0.75191 0.67 0.11777 0.0
C660 C 0.74756 0.73261 0.12253 0.0
C661 C 0.77742 0.77007 0.12321 0.0
C662 C 0.27735 0.81624 0.37376 0.0
C663 C 0.27655 0.75305 0.38415 0.0
C664 C 0.24876 0.85506 0.37552 0.0
C665 C 0.21829 0.83171 0.38729 0.0
H666 H 0.30013 0.83579 0.3637 0.0
H667 H 0.25008 0.90265 0.36632 0.0
S668 S 0.20313 0.67224 0.41975 0.0
N669 N 0.24308 0.67076 0.4087 0.0
N670 N 0.18901 0.74357 0.41115 0.0
C671 C 0.21728 0.76965 0.39873 0.0
C672 C 0.24655 0.73034 0.39747 0.0
C673 C 0.76286 0.27906 0.4046 0.0
C674 C 0.77453 0.24981 0.37708 0.0
C675 C 0.7365 0.32372 0.40309 0.0
C676 C 0.72086 0.33976 0.37408 0.0
H677 H 0.77487 0.26892 0.42719 0.0
H678 H 0.72799 0.34497 0.42478 0.0
S679 S 0.74212 0.27514 0.29549 0.0
N680 N 0.76842 0.23931 0.32027 0.0
N681 N 0.71903 0.32232 0.31736 0.0
C682 C 0.73222 0.31008 0.34656 0.0
C683 C 0.759 0.26531 0.34809 0.0
C684 C 0.7147 0.81913 0.87744 0.0
C685 C 0.71648 0.75373 0.88313 0.0
C686 C 0.74376 0.85674 0.87842 0.0
C687 C 0.77559 0.82985 0.8844 0.0
H688 H 0.69071 0.84134 0.87164 0.0
H689 H 0.74149 0.90646 0.87303 0.0
S690 S 0.79374 0.66248 0.90326 0.0
N691 N 0.75239 0.66488 0.89726 0.0
N692 N 0.80727 0.73524 0.89817 0.0
C693 C 0.77763 0.76512 0.89126 0.0
C694 C 0.74797 0.72709 0.89093 0.0
C695 C 0.2791 0.26013 0.88045 0.0
C696 C 0.27607 0.32622 0.88035 0.0
C697 C 0.25059 0.22139 0.88287 0.0
C698 C 0.21811 0.24764 0.88444 0.0
H699 H 0.30369 0.23811 0.87834 0.0
H700 H 0.25385 0.17082 0.882 0.0
S701 S 0.19646 0.4175 0.88621 0.0
N702 N 0.23813 0.41592 0.88356 0.0
N703 N 0.18433 0.34324 0.88699 0.0
C704 C 0.21475 0.31353 0.88511 0.0
C705 C 0.24381 0.35288 0.88338 0.0
C706 C 0.7354 0.31394 0.60628 0.0
C707 C 0.72118 0.33541 0.63456 0.0
C708 C 0.76186 0.26949 0.60672 0.0
C709 C 0.7751 0.24607 0.63547 0.0
H710 H 0.72547 0.33036 0.58374 0.0
H711 H 0.77254 0.2546 0.58454 0.0
S712 S 0.74684 0.28848 0.71585 0.0
N713 N 0.72233 0.33033 0.69187 0.0
N714 N 0.77206 0.24788 0.69277 0.0
C715 C 0.76114 0.26767 0.6638 0.0
C716 C 0.73418 0.3121 0.66332 0.0
C717 C 0.24647 0.84353 0.61479 0.0
C718 C 0.21626 0.82067 0.62773 0.0
C719 C 0.27517 0.8048 0.61279 0.0
C720 C 0.27422 0.74162 0.62273 0.0
H721 H 0.24841 0.89221 0.60737 0.0
H722 H 0.29853 0.82478 0.60416 0.0
S723 S 0.20129 0.65755 0.65658 0.0
N724 N 0.18709 0.72946 0.64957 0.0
N725 N 0.24099 0.65714 0.64488 0.0
C726 C 0.24402 0.71736 0.63439 0.0
C727 C 0.215 0.75682 0.63709 0.0
C728 C 0.15671 1.0219 0.27039 0.0
C729 C 0.12635 1.00456 0.28508 0.0
C730 C 0.15667 0.05769 0.24246 0.0
C731 C 0.12631 0.07921 0.22835 0.0
H732 H 0.18083 1.00741 0.28049 0.0
H733 H 0.18079 0.06881 0.2319 0.0
S734 S 0.03981 0.04863 0.25796 0.0
N735 N 0.06497 1.0125 0.28373 0.0
N736 N 0.0649 0.08074 0.23143 0.0
C737 C 0.0957 0.06301 0.243 0.0
C738 C 0.09572 1.02536 0.27124 0.0
C739 C 0.89734 0.06045 0.27232 0.0
C740 C 0.86697 0.07906 0.28673 0.0
C741 C 0.89705 1.0242 0.24447 0.0
C742 C 0.86638 1.00627 0.22979 0.0
H743 H 0.92145 0.07267 0.28304 0.0
H744 H 0.92097 1.01129 0.23404 0.0
S745 S 0.78003 0.04424 0.25787 0.0
N746 N 0.80556 0.07706 0.28406 0.0
N747 N 0.80495 1.01047 0.23192 0.0
C748 C 0.83596 1.02522 0.24393 0.0
C749 C 0.83628 0.06115 0.27231 0.0
C750 C 0.87368 0.10161 0.75443 0.0
C751 C 0.87495 0.06799 0.72605 0.0
C752 C 0.8726 0.07005 0.7837 0.0
C753 C 0.8737 1.0038 0.78578 0.0
H754 H 0.87218 0.15248 0.75397 0.0
H755 H 0.87074 0.09784 0.80493 0.0
S756 S 0.87976 0.89433 0.71837 0.0
N757 N 0.87868 0.96488 0.70181 0.0
N758 N 0.87793 0.90602 0.75684 0.0
C759 C 0.87651 0.96982 0.75764 0.0
C760 C 0.87674 1.00182 0.72779 0.0
C761 C 0.09891 0.05342 0.77086 0.0
C762 C 0.12939 0.07203 0.78563 0.0
C763 C 0.09899 1.01671 0.74319 0.0
C764 C 0.12954 0.99816 0.72907 0.0
H765 H 0.07487 0.06607 0.78113 0.0
H766 H 0.07499 1.00397 0.73243 0.0
S767 S 0.21613 1.03546 0.75824 0.0
N768 N 0.19082 0.06917 0.78387 0.0
N769 N 0.19098 1.00152 0.7321 0.0
C770 C 0.16007 1.01694 0.74358 0.0
C771 C 0.15999 0.05346 0.77176 0.0
C772 C 0.6297 0.58443 0.28157 0.0
C773 C 0.62031 0.52049 0.284 0.0
C774 C 0.62853 0.61689 0.25251 0.0
C775 C 0.6185 0.58632 0.22471 0.0
H776 H 0.63835 0.60962 0.30228 0.0
H777 H 0.63673 0.66543 0.25161 0.0
S778 S 0.59005 0.42081 0.21801 0.0
N779 N 0.59914 0.42915 0.25592 0.0
N780 N 0.59779 0.48965 0.20136 0.0
C781 C 0.60833 0.52308 0.22683 0.0
C782 C 0.60893 0.49032 0.25646 0.0
C783 C 0.39461 0.56 0.26835 0.0
C784 C 0.36419 0.57516 0.28366 0.0
C785 C 0.39463 0.52334 0.2407 0.0
C786 C 0.36418 0.50145 0.22715 0.0
H787 H 0.4186 0.57568 0.27808 0.0
H788 H 0.41851 0.51366 0.22937 0.0
S789 S 0.27779 0.52797 0.25797 0.0
N790 N 0.30292 0.5647 0.28314 0.0
N791 N 0.30296 0.49715 0.23133 0.0
C792 C 0.33371 0.51628 0.24228 0.0
C793 C 0.33371 0.55273 0.27046 0.0
C794 C 0.36494 0.46831 0.7523 0.0
C795 C 0.37248 0.49964 0.78053 0.0
C796 C 0.3642 0.50099 0.72331 0.0
C797 C 0.37157 0.56592 0.72146 0.0
H798 H 0.35836 0.41889 0.75275 0.0
H799 H 0.35757 0.47517 0.70217 0.0
S800 S 0.3947 0.66815 0.78885 0.0
N801 N 0.38846 0.59829 0.80499 0.0
N802 N 0.38801 0.65923 0.75057 0.0
C803 C 0.38039 0.59701 0.7495 0.0
C804 C 0.38053 0.564 0.77901 0.0
C805 C 0.59784 0.56736 0.7645 0.0
C806 C 0.62821 0.58096 0.78086 0.0
C807 C 0.5978 0.53128 0.73661 0.0
C808 C 0.62819 0.50843 0.72384 0.0
H809 H 0.57388 0.58362 0.77362 0.0
H810 H 0.57396 0.52255 0.72457 0.0
S811 S 0.71446 0.53088 0.7574 0.0
N812 N 0.68941 0.56812 0.78201 0.0
N813 N 0.6893 0.50173 0.72982 0.0
C814 C 0.65861 0.52194 0.73993 0.0
C815 C 0.65864 0.55777 0.76834 0.0
C816 C 0.13357 0.23717 0.98957 0.0
C817 C 0.11241 0.19595 0.97256 0.0
C818 C 0.13331 0.238 0.02292 0.0
C819 C 0.11187 0.19764 0.03997 0.0
H820 H 0.15209 0.26528 0.97723 0.0
H821 H 0.15164 0.26673 0.03536 0.0
S822 S 0.04748 0.09009 0.00616 0.0
N823 N 0.06638 0.12074 0.97512 0.0
N824 N 0.06591 0.12227 0.03725 0.0
C825 C 0.08869 0.16062 0.02301 0.0
C826 C 0.08895 0.15978 0.98941 0.0
C827 C 0.84099 0.90449 0.99058 0.0
C828 C 0.86629 0.87178 0.97439 0.0
C829 C 0.84051 0.9059 0.02353 0.0
C830 C 0.86538 0.87478 0.04182 0.0
H831 H 0.82246 0.93243 0.9776 0.0
H832 H 0.82152 0.93469 0.0348 0.0
S833 S 0.93507 0.7766 0.01099 0.0
N834 N 0.91517 0.8027 0.97892 0.0
N835 N 0.91429 0.80529 0.04139 0.0
C836 C 0.88932 0.83761 0.02609 0.0
C837 C 0.88979 0.83618 0.99219 0.0
C838 C 0.09298 0.92893 0.49028 0.0
C839 C 0.11254 0.88579 0.47328 0.0
C840 C 0.09277 0.92837 0.52324 0.0
C841 C 0.11216 0.8847 0.54078 0.0
H842 H 0.07883 0.96554 0.478 0.0
H843 H 0.07847 0.9646 0.53511 0.0
S844 S 0.16517 0.75751 0.50771 0.0
N845 N 0.14966 0.79458 0.4763 0.0
N846 N 0.14935 0.79358 0.53873 0.0
C847 C 0.12992 0.83815 0.52421 0.0
C848 C 0.1301 0.83869 0.49031 0.0
C849 C 0.85619 0.24501 0.52328 0.0
C850 C 0.88105 0.21142 0.54059 0.0
C851 C 0.85625 0.24564 0.4899 0.0
C852 C 0.88118 0.21271 0.4731 0.0
H853 H 0.83514 0.26636 0.53544 0.0
H854 H 0.83525 0.26745 0.4773 0.0
S855 S 0.95468 0.12694 0.5076 0.0
N856 N 0.93339 0.1517 0.53847 0.0
N857 N 0.93347 0.1528 0.47629 0.0
C858 C 0.90763 0.18394 0.4903 0.0
C859 C 0.90757 0.18333 0.52393 0.0
C860 C 0.5887 0.66648 0.01828 0.0
C861 C 0.60994 0.70686 0.03558 0.0
C862 C 0.58891 0.66579 0.9853 0.0
C863 C 0.61036 0.70547 0.96803 0.0
H864 H 0.57291 0.63266 0.0304 0.0
H865 H 0.5733 0.63144 0.97324 0.0
S866 S 0.66862 0.82445 1.00173 0.0
N867 N 0.65113 0.79137 0.03296 0.0
N868 N 0.65152 0.79005 0.97052 0.0
C869 C 0.62994 0.74954 0.98479 0.0
C870 C 0.62973 0.75024 0.01871 0.0
C871 C 0.35102 0.43665 0.98625 0.0
C872 C 0.3678 0.38858 0.97003 0.0
C873 C 0.35017 0.43766 0.01907 0.0
C874 C 0.36615 0.39077 0.03747 0.0
H875 H 0.33916 0.4753 0.97347 0.0
H876 H 0.33764 0.47708 0.03011 0.0
S877 S 0.4098 0.24971 0.00667 0.0
N878 N 0.3979 0.28901 0.97458 0.0
N879 N 0.39641 0.29104 0.03706 0.0
C880 C 0.38097 0.33966 0.02174 0.0
C881 C 0.38178 0.33855 0.98781 0.0
C882 C 0.60383 0.35039 0.48655 0.0
C883 C 0.63172 0.3734 0.46967 0.0
C884 C 0.60392 0.35046 0.51988 0.0
C885 C 0.63186 0.37376 0.53703 0.0
H886 H 0.58093 0.33701 0.47402 0.0
H887 H 0.58111 0.33701 0.53213 0.0
S888 S 0.71225 0.43226 0.50378 0.0
N889 N 0.68887 0.41444 0.47255 0.0
N890 N 0.68904 0.41468 0.53477 0.0
C891 C 0.66065 0.39239 0.52033 0.0
C892 C 0.66058 0.39219 0.4867 0.0
C893 C 0.35965 0.743 0.51891 0.0
C894 C 0.38328 0.70661 0.53622 0.0
C895 C 0.35977 0.74332 0.48559 0.0
C896 C 0.38353 0.70725 0.46898 0.0
H897 H 0.33934 0.76684 0.531 0.0
H898 H 0.33957 0.76744 0.47291 0.0
S899 S 0.45417 0.61387 0.5036 0.0
N900 N 0.43369 0.64125 0.5344 0.0
N901 N 0.43383 0.64169 0.47222 0.0
C902 C 0.40903 0.67576 0.48617 0.0
C903 C 0.40894 0.67551 0.51974 0.0
C904 C 0.96965 0.07648 0.13403 0.0
C905 C 0.9654 1.011 0.1353 0.0
C906 C 0.00194 0.10322 0.13418 0.0
C907 C 0.03135 0.06561 0.13581 0.0
H908 H 0.9479 0.10753 0.13267 0.0
H909 H 0.00368 0.154 0.13305 0.0
S910 S 0.03409 0.89125 0.14059 0.0
N911 N 0.99342 0.90882 0.13896 0.0
N912 N 0.05402 0.95924 0.13921 0.0
C913 C 0.02748 0.99997 0.13736 0.0
C914 C 0.99456 0.97265 0.1371 0.0
C915 C 0.96965 1.01177 0.38436 0.0
C916 C 0.96492 0.07521 0.37604 0.0
C917 C 0.00187 0.98435 0.38424 0.0
C918 C 0.03067 1.01917 0.37563 0.0
H919 H 0.9484 0.98315 0.39152 0.0
H920 H 0.00411 0.93544 0.39126 0.0
S921 S 0.03153 0.18612 0.34943 0.0
N922 N 0.9915 0.17159 0.35734 0.0
N923 N 0.052 0.11993 0.35703 0.0
C924 C 0.0262 0.08243 0.36661 0.0
C925 C 0.99337 0.11046 0.36683 0.0
C926 C 0.00256 0.09711 0.87932 0.0
C927 C 0.03191 0.05946 0.87804 0.0
C928 C 0.9703 0.0704 0.88019 0.0
C929 C 0.966 1.00488 0.87999 0.0
H930 H 0.00433 0.14792 0.87961 0.0
H931 H 0.94862 0.10157 0.88117 0.0
S932 S 0.0346 0.88496 0.87648 0.0
N933 N 0.05454 0.95299 0.87644 0.0
N934 N 0.99397 0.90256 0.87803 0.0
C935 C 0.99512 0.96645 0.87867 0.0
C936 C 0.02803 0.99377 0.87769 0.0
C937 C 0.97031 1.00802 0.63665 0.0
C938 C 0.96624 0.07368 0.63576 0.0
C939 C 0.00247 0.9805 0.63726 0.0
C940 C 0.03203 1.01738 0.63707 0.0
H941 H 0.9485 0.97726 0.63689 0.0
H942 H 0.004 0.92966 0.63793 0.0
S943 S 0.03561 0.19179 0.63472 0.0
N944 N 0.99483 0.17527 0.63466 0.0
N945 N 0.05521 0.12324 0.63584 0.0
C946 C 0.02846 0.08317 0.63628 0.0
C947 C 0.99562 0.11135 0.6356 0.0
C948 C 0.46609 0.58365 0.13313 0.0
C949 C 0.46222 0.51812 0.1348 0.0
C950 C 0.49826 0.61098 0.13263 0.0
C951 C 0.52787 0.57387 0.13395 0.0
H952 H 0.44413 0.6142 0.13172 0.0
H953 H 0.49978 0.66174 0.13106 0.0
S954 S 0.53152 0.39963 0.14035 0.0
N955 N 0.49077 0.41656 0.1392 0.0
N956 N 0.55106 0.46786 0.13799 0.0
C957 C 0.52434 0.50818 0.13619 0.0
C958 C 0.49158 0.48035 0.13668 0.0
C959 C 0.49348 0.60631 0.3756 0.0
C960 C 0.46427 0.5685 0.37606 0.0
C961 C 0.52593 0.57978 0.37671 0.0
C962 C 0.53059 0.51427 0.37842 0.0
H963 H 0.49143 0.65705 0.37419 0.0
H964 H 0.54749 0.6111 0.37604 0.0
S965 S 0.46227 0.39413 0.38114 0.0
N966 N 0.44209 0.462 0.37895 0.0
N967 N 0.50288 0.41194 0.38106 0.0
C968 C 0.50153 0.47577 0.37921 0.0
C969 C 0.46847 0.5029 0.37799 0.0
C970 C 0.49212 0.48033 0.87449 0.0
C971 C 0.46245 0.51704 0.87188 0.0
C972 C 0.52423 0.50782 0.87372 0.0
C973 C 0.52801 0.57318 0.87045 0.0
H974 H 0.49069 0.42975 0.87726 0.0
H975 H 0.54621 0.47754 0.87617 0.0
S976 S 0.45852 0.69048 0.86134 0.0
N977 N 0.4391 0.62237 0.86507 0.0
N978 N 0.4993 0.674 0.86335 0.0
C979 C 0.4986 0.6105 0.86732 0.0
C980 C 0.46588 0.58247 0.8681 0.0
C981 C 0.47124 0.50738 0.62532 0.0
C982 C 0.46641 0.57203 0.63024 0.0
C983 C 0.50375 0.48128 0.62447 0.0
C984 C 0.53284 0.51867 0.62864 0.0
H985 H 0.44977 0.47651 0.62185 0.0
H986 H 0.50594 0.43116 0.62058 0.0
S987 S 0.53409 0.69078 0.64307 0.0
N988 N 0.49359 0.67306 0.63987 0.0
N989 N 0.55457 0.62394 0.63823 0.0
C990 C 0.5284 0.58349 0.63366 0.0
C991 C 0.49526 0.61015 0.63449 0.0
C992 C 0.1375 0.69325 0.16438 0.0
C993 C 0.14414 0.71741 0.13407 0.0
C994 C 0.12839 0.63006 0.16887 0.0
C995 C 0.12547 0.58852 0.14322 0.0
H996 H 0.13961 0.72334 0.18485 0.0
H997 H 0.12383 0.61347 0.19268 0.0
S998 S 0.13757 0.62964 0.05882 0.0
N999 N 0.14557 0.69556 0.07785 0.0
N1000 N 0.12834 0.57711 0.08624 0.0
C1001 C 0.13174 0.61227 0.11276 0.0
C1002 C 0.14108 0.67655 0.1082 0.0
C1003 C 0.83576 0.41687 0.13776 0.0
C1004 C 0.85941 0.36785 0.14215 0.0
C1005 C 0.84474 0.47981 0.14281 0.0
C1006 C 0.8777 0.49626 0.15252 0.0
H1007 H 0.81004 0.40648 0.13041 0.0
H1008 H 0.82566 0.51592 0.1392 0.0
S1009 S 0.94964 0.38636 0.16556 0.0
N1010 N 0.91764 0.34051 0.1556 0.0
N1011 N 0.93439 0.45872 0.1653 0.0
C1012 C 0.9016 0.44783 0.15702 0.0
C1013 C 0.8925 0.38371 0.1518 0.0
C1014 C 0.12824 0.40342 0.40024 0.0
C1015 C 0.13907 0.36576 0.37509 0.0
C1016 C 0.119 0.46651 0.39542 0.0
C1017 C 0.12033 0.49455 0.36526 0.0
H1018 H 0.12648 0.38371 0.42381 0.0
H1019 H 0.11035 0.49333 0.41545 0.0
S1020 S 0.1496 0.41751 0.29202 0.0
N1021 N 0.15215 0.3617 0.31924 0.0
N1022 N 0.13517 0.48047 0.31017 0.0
C1023 C 0.13158 0.45759 0.33997 0.0
C1024 C 0.14085 0.39322 0.34488 0.0
C1025 C 0.88949 0.63915 0.37071 0.0
C1026 C 0.86398 0.59336 0.36787 0.0
C1027 C 0.88161 0.70235 0.37652 0.0
C1028 C 0.84788 0.72252 0.37976 0.0
H1029 H 0.91588 0.62589 0.3689 0.0
H1030 H 0.9022 0.73555 0.37899 0.0
S1031 S 0.77146 0.62244 0.37211 0.0
N1032 N 0.8034 0.57333 0.36723 0.0
N1033 N 0.78862 0.69209 0.37823 0.0
C1034 C 0.82206 0.67744 0.37664 0.0
C1035 C 0.83009 0.61297 0.37069 0.0
C1036 C 0.87087 0.39609 0.90192 0.0
C1037 C 0.85181 0.36272 0.87937 0.0
C1038 C 0.88009 0.45884 0.89672 0.0
C1039 C 0.87054 0.49073 0.8688 0.0
H1040 H 0.87918 0.37318 0.92358 0.0
H1041 H 0.89523 0.48233 0.91455 0.0
S1042 S 0.81807 0.42597 0.80352 0.0
N1043 N 0.82221 0.36694 0.82881 0.0
N1044 N 0.83926 0.48523 0.8191 0.0
C1045 C 0.851 0.45819 0.84625 0.0
C1046 C 0.84171 0.39414 0.85152 0.0
C1047 C 0.1067 0.61927 0.89022 0.0
C1048 C 0.12545 0.5818 0.86941 0.0
C1049 C 0.1154 0.68222 0.89575 0.0
C1050 C 0.14316 0.71022 0.88067 0.0
H1051 H 0.08485 0.6 0.90204 0.0
H1052 H 0.09999 0.70947 0.91168 0.0
S1053 S 0.20227 0.63098 0.82628 0.0
N1054 N 0.17429 0.57626 0.83516 0.0
N1055 N 0.19051 0.69466 0.84545 0.0
C1056 C 0.16241 0.67309 0.86016 0.0
C1057 C 0.1536 0.60892 0.85457 0.0
C1058 C 0.8581 0.69784 0.66024 0.0
C1059 C 0.84693 0.71798 0.63015 0.0
C1060 C 0.8658 0.63445 0.66639 0.0
C1061 C 0.86265 0.58863 0.6427 0.0
H1062 H 0.86091 0.73139 0.67923 0.0
H1063 H 0.87431 0.62119 0.68991 0.0
S1064 S 0.83612 0.61731 0.55952 0.0
N1065 N 0.83412 0.68721 0.57615 0.0
N1066 N 0.84856 0.5682 0.58771 0.0
C1067 C 0.85139 0.60807 0.61254 0.0
C1068 C 0.84355 0.67263 0.60628 0.0
C1069 C 0.14076 0.38886 0.66165 0.0
C1070 C 0.13946 0.36163 0.63148 0.0
C1071 C 0.13163 0.452 0.66623 0.0
C1072 C 0.12057 0.49036 0.64086 0.0
H1073 H 0.14931 0.36131 0.68183 0.0
H1074 H 0.13361 0.47111 0.68982 0.0
S1075 S 0.10988 0.43972 0.55761 0.0
N1076 N 0.12476 0.37675 0.57612 0.0
N1077 N 0.10702 0.49487 0.58472 0.0
C1078 C 0.11866 0.46325 0.61064 0.0
C1079 C 0.12821 0.3991 0.60597 0.0
C1080 C 0.65004 0.11891 0.13842 0.0
C1081 C 0.61595 0.0998 0.13761 0.0
C1082 C 0.65901 0.18208 0.13368 0.0
C1083 C 0.63422 0.22856 0.12797 0.0
H1084 H 0.66994 0.08489 0.14316 0.0
H1085 H 0.68552 0.19475 0.13487 0.0
S1086 S 0.54166 0.20227 0.12073 0.0
N1087 N 0.55749 0.13198 0.12881 0.0
N1088 N 0.57432 0.25048 0.11994 0.0
C1089 C 0.6001 0.20993 0.12663 0.0
C1090 C 0.59098 0.14568 0.13143 0.0
C1091 C 0.38404 0.8884 0.142 0.0
C1092 C 0.35031 0.87211 0.13486 0.0
C1093 C 0.39355 0.95124 0.14638 0.0
C1094 C 0.36975 1.00031 0.14366 0.0
H1095 H 0.40342 0.85237 0.14365 0.0
H1096 H 0.4199 0.9616 0.15138 0.0
S1097 S 0.27768 0.98267 0.128 0.0
N1098 N 0.29265 0.91012 0.12718 0.0
N1099 N 0.31063 1.02825 0.13515 0.0
C1100 C 0.33584 0.98472 0.13705 0.0
C1101 C 0.3261 0.92069 0.13271 0.0
C1102 C 0.65969 0.97766 0.36231 0.0
C1103 C 0.626 0.99903 0.36406 0.0
C1104 C 0.66802 0.91425 0.3679 0.0
C1105 C 0.64298 0.86981 0.3754 0.0
H1106 H 0.67972 1.01004 0.35618 0.0
H1107 H 0.69421 0.89975 0.36596 0.0
S1108 S 0.55155 0.9028 0.38599 0.0
N1109 N 0.56783 0.97137 0.37592 0.0
N1110 N 0.58345 0.85251 0.38631 0.0
C1111 C 0.60931 0.89082 0.37779 0.0
C1112 C 0.60085 0.95527 0.37215 0.0
C1113 C 0.39253 0.13419 0.36663 0.0
C1114 C 0.36708 0.08867 0.36247 0.0
C1115 C 0.38449 0.19738 0.37237 0.0
C1116 C 0.35065 0.21778 0.37419 0.0
H1117 H 0.41897 0.12068 0.36596 0.0
H1118 H 0.40501 0.23035 0.37595 0.0
S1119 S 0.27446 0.11847 0.36247 0.0
N1120 N 0.30654 0.06918 0.35891 0.0
N1121 N 0.29144 0.18786 0.36967 0.0
C1122 C 0.32491 0.17298 0.36961 0.0
C1123 C 0.33311 0.10855 0.36377 0.0
C1124 C 0.35915 0.88884 0.84911 0.0
C1125 C 0.35312 0.86367 0.87932 0.0
C1126 C 0.36883 0.9518 0.84509 0.0
C1127 C 0.37296 0.99199 0.87114 0.0
H1128 H 0.35609 0.85975 0.82837 0.0
H1129 H 0.37281 0.96931 0.82135 0.0
S1130 S 0.36293 0.94763 0.95538 0.0
N1131 N 0.35362 0.88291 0.93582 0.0
N1132 N 0.37196 1.00103 0.92831 0.0
C1133 C 0.36737 0.96718 0.9015 0.0
C1134 C 0.35744 0.90313 0.90558 0.0
C1135 C 0.66019 0.17547 0.86968 0.0
C1136 C 0.63492 0.22148 0.87354 0.0
C1137 C 0.65182 0.11232 0.86416 0.0
C1138 C 0.61785 0.09273 0.86231 0.0
H1139 H 0.68667 0.18847 0.87063 0.0
H1140 H 0.67211 0.07867 0.861 0.0
S1141 S 0.54222 0.19367 0.87348 0.0
N1142 N 0.57454 0.24232 0.87689 0.0
N1143 N 0.55884 0.12387 0.86653 0.0
C1144 C 0.59236 0.13812 0.86653 0.0
C1145 C 0.60087 0.20236 0.87214 0.0
C1146 C 0.39072 0.12996 0.63804 0.0
C1147 C 0.36506 0.08501 0.64222 0.0
C1148 C 0.38296 0.19322 0.63189 0.0
C1149 C 0.34921 0.21416 0.62963 0.0
H1150 H 0.4171 0.11597 0.63903 0.0
H1151 H 0.4036 0.22584 0.62836 0.0
S1152 S 0.27259 0.11639 0.6409 0.0
N1153 N 0.30445 0.06649 0.64517 0.0
N1154 N 0.28987 0.18549 0.6335 0.0
C1155 C 0.32325 0.16993 0.6341 0.0
C1156 C 0.33117 0.1054 0.64041 0.0
C1157 C 0.63829 0.89216 0.66078 0.0
C1158 C 0.64361 0.86922 0.63011 0.0
C1159 C 0.62954 0.95536 0.66591 0.0
C1160 C 0.62577 0.99814 0.64059 0.0
H1161 H 0.64127 0.86117 0.68101 0.0
H1162 H 0.62607 0.97103 0.68995 0.0
S1163 S 0.63372 0.96048 0.55558 0.0
N1164 N 0.64235 0.89354 0.57395 0.0
N1165 N 0.62602 1.01201 0.58361 0.0
C1166 C 0.6305 0.97557 0.6098 0.0
C1167 C 0.63938 0.91128 0.60457 0.0
loop_
_geom_bond_atom_site_label_1
_geom_bond_atom_site_label_2
_geom_bond_distance
_geom_bond_site_symmetry_2
_ccdc_geom_bond_type
Eu0 C9 2.828 1_545 S
Eu0 O11 2.392 . S
Eu0 O13 2.418 . S
Eu0 O18 2.373 . S
Eu0 O21 2.488 1_545 S
Eu0 O22 2.471 1_545 S
Eu0 O23 2.349 . S
Eu1 O10 2.373 . S
Eu1 O14 2.488 . S
Eu1 O15 2.471 . S
Eu1 O16 2.349 . S
Eu1 O19 2.392 . S
Eu1 O20 2.418 . S
Eu1 C30 2.828 . S
C2 O20 1.244 . S
C2 O23 1.265 . S
C3 C4 1.379 . S
C3 C7 1.373 . S
C3 C9 1.505 . S
C4 C3 1.379 . S
C4 C6 1.369 . S
C4 H32 0.930 . S
C5 C7 1.383 . S
C5 C8 1.382 . S
C5 H33 0.930 . S
C6 C4 1.369 . S
C6 C8 1.392 . S
C6 H34 0.930 . S
C7 C3 1.373 . S
C7 C5 1.383 . S
C7 H35 0.931 . S
C8 C5 1.382 . S
C8 C6 1.392 . S
C9 Eu0 2.828 1_565 S
C9 C3 1.505 . S
C9 O21 1.249 . S
C9 O22 1.244 . S
O10 Eu1 2.373 . S
O10 C12 1.258 . S
O11 Eu0 2.392 . S
O11 C12 1.242 . S
C12 O10 1.258 . S
C12 O11 1.242 . S
O13 Eu0 2.418 . S
O13 C17 1.244 . S
O14 Eu1 2.488 . S
O14 C30 1.249 . S
O15 Eu1 2.471 . S
O15 C30 1.244 . S
O16 Eu1 2.349 . S
O16 C17 1.265 . S
C17 O13 1.244 . S
C17 O16 1.265 . S
O18 Eu0 2.373 . S
O18 C31 1.258 . S
O19 Eu1 2.392 . S
O19 C31 1.242 . S
O20 Eu1 2.418 . S
O20 C2 1.244 . S
O21 Eu0 2.488 1_565 S
O21 C9 1.249 . S
O22 Eu0 2.471 1_565 S
O22 C9 1.244 . S
O23 Eu0 2.349 . S
O23 C2 1.265 . S
C24 C25 1.379 . S
C24 C28 1.373 . S
C24 C30 1.505 . S
C25 C24 1.379 . S
C25 C27 1.369 . S
C25 H36 0.930 . S
C26 C28 1.383 . S
C26 C29 1.382 . S
C26 H37 0.930 . S
C27 C25 1.369 . S
C27 C29 1.392 . S
C27 H38 0.930 . S
C28 C24 1.373 . S
C28 C26 1.383 . S
C28 H39 0.931 . S
C29 C26 1.382 . S
C29 C27 1.392 . S
C30 Eu1 2.828 . S
C30 O14 1.249 . S
C30 O15 1.244 . S
C30 C24 1.505 . S
C31 O18 1.258 . S
C31 O19 1.242 . S
H32 C4 0.930 . S
H33 C5 0.930 . S
H34 C6 0.930 . S
H35 C7 0.931 . S
H36 C25 0.930 . S
H37 C26 0.930 . S
H38 C27 0.930 . S
H39 C28 0.931 . S
Eu40 C49 2.828 1_565 S
Eu40 O51 2.392 . S
Eu40 O53 2.418 . S
Eu40 O58 2.373 . S
Eu40 O61 2.488 1_565 S
Eu40 O62 2.471 1_565 S
Eu40 O63 2.349 . S
Eu41 O50 2.373 . S
Eu41 O54 2.488 . S
Eu41 O55 2.471 . S
Eu41 O56 2.349 . S
Eu41 O59 2.392 . S
Eu41 O60 2.418 . S
Eu41 C70 2.828 . S
C42 O60 1.244 . S
C42 O63 1.265 . S
C43 C44 1.379 . S
C43 C47 1.373 . S
C43 C49 1.505 . S
C44 C43 1.379 . S
C44 C46 1.369 . S
C44 H72 0.930 . S
C45 C47 1.383 . S
C45 C48 1.382 . S
C45 H73 0.930 . S
C46 C44 1.369 . S
C46 C48 1.392 . S
C46 H74 0.930 . S
C47 C43 1.373 . S
C47 C45 1.383 . S
C47 H75 0.931 . S
C48 C45 1.382 . S
C48 C46 1.392 . S
C49 Eu40 2.828 1_545 S
C49 C43 1.505 . S
C49 O61 1.249 . S
C49 O62 1.244 . S
O50 Eu41 2.373 . S
O50 C52 1.258 . S
O51 Eu40 2.392 . S
O51 C52 1.242 . S
C52 O50 1.258 . S
C52 O51 1.242 . S
O53 Eu40 2.418 . S
O53 C57 1.244 . S
O54 Eu41 2.488 . S
O54 C70 1.249 . S
O55 Eu41 2.471 . S
O55 C70 1.244 . S
O56 Eu41 2.349 . S
O56 C57 1.265 . S
C57 O53 1.244 . S
C57 O56 1.265 . S
O58 Eu40 2.373 . S
O58 C71 1.258 . S
O59 Eu41 2.392 . S
O59 C71 1.242 . S
O60 Eu41 2.418 . S
O60 C42 1.244 . S
O61 Eu40 2.488 1_545 S
O61 C49 1.249 . S
O62 Eu40 2.471 1_545 S
O62 C49 1.244 . S
O63 Eu40 2.349 . S
O63 C42 1.265 . S
C64 C65 1.379 . S
C64 C68 1.373 . S
C64 C70 1.505 . S
C65 C64 1.379 . S
C65 C67 1.369 . S
C65 H76 0.930 . S
C66 C68 1.383 . S
C66 C69 1.382 . S
C66 H77 0.930 . S
C67 C65 1.369 . S
C67 C69 1.392 . S
C67 H78 0.930 . S
C68 C64 1.373 . S
C68 C66 1.383 . S
C68 H79 0.931 . S
C69 C66 1.382 . S
C69 C67 1.392 . S
C70 Eu41 2.828 . S
C70 O54 1.249 . S
C70 O55 1.244 . S
C70 C64 1.505 . S
C71 O58 1.258 . S
C71 O59 1.242 . S
H72 C44 0.930 . S
H73 C45 0.930 . S
H74 C46 0.930 . S
H75 C47 0.931 . S
H76 C65 0.930 . S
H77 C66 0.930 . S
H78 C67 0.930 . S
H79 C68 0.931 . S
Eu80 C89 2.828 1_565 S
Eu80 O91 2.392 . S
Eu80 O93 2.418 . S
Eu80 O98 2.373 . S
Eu80 O101 2.488 1_565 S
Eu80 O102 2.471 1_565 S
Eu80 O103 2.349 . S
Eu81 O90 2.373 . S
Eu81 O94 2.488 . S
Eu81 O95 2.471 . S
Eu81 O96 2.349 . S
Eu81 O99 2.392 . S
Eu81 O100 2.418 . S
Eu81 C110 2.828 . S
C82 O100 1.244 . S
C82 O103 1.265 . S
C83 C84 1.379 . S
C83 C87 1.373 . S
C83 C89 1.505 . S
C84 C83 1.379 . S
C84 C86 1.369 . S
C84 H112 0.930 . S
C85 C87 1.383 . S
C85 C88 1.382 . S
C85 H113 0.930 . S
C86 C84 1.369 . S
C86 C88 1.392 . S
C86 H114 0.930 . S
C87 C83 1.373 . S
C87 C85 1.383 . S
C87 H115 0.931 . S
C88 C85 1.382 . S
C88 C86 1.392 . S
C89 Eu80 2.828 1_545 S
C89 C83 1.505 . S
C89 O101 1.249 . S
C89 O102 1.244 . S
O90 Eu81 2.373 . S
O90 C92 1.258 . S
O91 Eu80 2.392 . S
O91 C92 1.242 . S
C92 O90 1.258 . S
C92 O91 1.242 . S
O93 Eu80 2.418 . S
O93 C97 1.244 . S
O94 Eu81 2.488 . S
O94 C110 1.249 . S
O95 Eu81 2.471 . S
O95 C110 1.244 . S
O96 Eu81 2.349 . S
O96 C97 1.265 . S
C97 O93 1.244 . S
C97 O96 1.265 . S
O98 Eu80 2.373 . S
O98 C111 1.258 . S
O99 Eu81 2.392 . S
O99 C111 1.242 . S
O100 Eu81 2.418 . S
O100 C82 1.244 . S
O101 Eu80 2.488 1_545 S
O101 C89 1.249 . S
O102 Eu80 2.471 1_545 S
O102 C89 1.244 . S
O103 Eu80 2.349 . S
O103 C82 1.265 . S
C104 C105 1.379 . S
C104 C108 1.373 . S
C104 C110 1.505 . S
C105 C104 1.379 . S
C105 C107 1.369 . S
C105 H116 0.930 . S
C106 C108 1.383 . S
C106 C109 1.382 . S
C106 H117 0.930 . S
C107 C105 1.369 . S
C107 C109 1.392 . S
C107 H118 0.930 . S
C108 C104 1.373 . S
C108 C106 1.383 . S
C108 H119 0.931 . S
C109 C106 1.382 . S
C109 C107 1.392 . S
C110 Eu81 2.828 . S
C110 O94 1.249 . S
C110 O95 1.244 . S
C110 C104 1.505 . S
C111 O98 1.258 . S
C111 O99 1.242 . S
H112 C84 0.930 . S
H113 C85 0.930 . S
H114 C86 0.930 . S
H115 C87 0.931 . S
H116 C105 0.930 . S
H117 C106 0.930 . S
H118 C107 0.930 . S
H119 C108 0.931 . S
Eu120 C129 2.828 1_545 S
Eu120 O131 2.392 . S
Eu120 O133 2.418 . S
Eu120 O138 2.373 . S
Eu120 O141 2.488 1_545 S
Eu120 O142 2.471 1_545 S
Eu120 O143 2.349 . S
Eu121 O130 2.373 . S
Eu121 O134 2.488 . S
Eu121 O135 2.471 . S
Eu121 O136 2.349 . S
Eu121 O139 2.392 . S
Eu121 O140 2.418 . S
Eu121 C150 2.828 . S
C122 O140 1.244 . S
C122 O143 1.265 . S
C123 C124 1.379 . S
C123 C127 1.373 . S
C123 C129 1.505 . S
C124 C123 1.379 . S
C124 C126 1.369 . S
C124 H152 0.930 . S
C125 C127 1.383 . S
C125 C128 1.382 . S
C125 H153 0.930 . S
C126 C124 1.369 . S
C126 C128 1.392 . S
C126 H154 0.930 . S
C127 C123 1.373 . S
C127 C125 1.383 . S
C127 H155 0.931 . S
C128 C125 1.382 . S
C128 C126 1.392 . S
C129 Eu120 2.828 1_565 S
C129 C123 1.505 . S
C129 O141 1.249 . S
C129 O142 1.244 . S
O130 Eu121 2.373 . S
O130 C132 1.258 . S
O131 Eu120 2.392 . S
O131 C132 1.242 . S
C132 O130 1.258 . S
C132 O131 1.242 . S
O133 Eu120 2.418 . S
O133 C137 1.244 . S
O134 Eu121 2.488 . S
O134 C150 1.249 . S
O135 Eu121 2.471 . S
O135 C150 1.244 . S
O136 Eu121 2.349 . S
O136 C137 1.265 . S
C137 O133 1.244 . S
C137 O136 1.265 . S
O138 Eu120 2.373 . S
O138 C151 1.258 . S
O139 Eu121 2.392 . S
O139 C151 1.242 . S
O140 Eu121 2.418 . S
O140 C122 1.244 . S
O141 Eu120 2.488 1_565 S
O141 C129 1.249 . S
O142 Eu120 2.471 1_565 S
O142 C129 1.244 . S
O143 Eu120 2.349 . S
O143 C122 1.265 . S
C144 C145 1.379 . S
C144 C148 1.373 . S
C144 C150 1.505 . S
C145 C144 1.379 . S
C145 C147 1.369 . S
C145 H156 0.930 . S
C146 C148 1.383 . S
C146 C149 1.382 . S
C146 H157 0.930 . S
C147 C145 1.369 . S
C147 C149 1.392 . S
C147 H158 0.930 . S
C148 C144 1.373 . S
C148 C146 1.383 . S
C148 H159 0.931 . S
C149 C146 1.382 . S
C149 C147 1.392 . S
C150 Eu121 2.828 . S
C150 O134 1.249 . S
C150 O135 1.244 . S
C150 C144 1.505 . S
C151 O138 1.258 . S
C151 O139 1.242 . S
H152 C124 0.930 . S
H153 C125 0.930 . S
H154 C126 0.930 . S
H155 C127 0.931 . S
H156 C145 0.930 . S
H157 C146 0.930 . S
H158 C147 0.930 . S
H159 C148 0.931 . S
Eu160 C169 2.828 . S
Eu160 O171 2.392 . S
Eu160 O173 2.418 . S
Eu160 O178 2.373 . S
Eu160 O181 2.488 . S
Eu160 O182 2.471 . S
Eu160 O183 2.349 . S
Eu161 O170 2.373 . S
Eu161 O174 2.488 1_565 S
Eu161 O175 2.471 1_565 S
Eu161 O176 2.349 . S
Eu161 O179 2.392 . S
Eu161 O180 2.418 . S
Eu161 C190 2.828 1_565 S
C162 O180 1.244 . S
C162 O183 1.265 . S
C163 C164 1.379 . S
C163 C167 1.373 . S
C163 C169 1.505 . S
C164 C163 1.379 . S
C164 C166 1.369 . S
C164 H192 0.930 . S
C165 C167 1.383 . S
C165 C168 1.382 . S
C165 H193 0.930 . S
C166 C164 1.369 . S
C166 C168 1.392 . S
C166 H194 0.930 . S
C167 C163 1.373 . S
C167 C165 1.383 . S
C167 H195 0.931 . S
C168 C165 1.382 . S
C168 C166 1.392 . S
C169 Eu160 2.828 . S
C169 C163 1.505 . S
C169 O181 1.249 . S
C169 O182 1.244 . S
O170 Eu161 2.373 . S
O170 C172 1.258 . S
O171 Eu160 2.392 . S
O171 C172 1.242 . S
C172 O170 1.258 . S
C172 O171 1.242 . S
O173 Eu160 2.418 . S
O173 C177 1.244 . S
O174 Eu161 2.488 1_545 S
O174 C190 1.249 . S
O175 Eu161 2.471 1_545 S
O175 C190 1.244 . S
O176 Eu161 2.349 . S
O176 C177 1.265 . S
C177 O173 1.244 . S
C177 O176 1.265 . S
O178 Eu160 2.373 . S
O178 C191 1.258 . S
O179 Eu161 2.392 . S
O179 C191 1.242 . S
O180 Eu161 2.418 . S
O180 C162 1.244 . S
O181 Eu160 2.488 . S
O181 C169 1.249 . S
O182 Eu160 2.471 . S
O182 C169 1.244 . S
O183 Eu160 2.349 . S
O183 C162 1.265 . S
C184 C185 1.379 . S
C184 C188 1.373 . S
C184 C190 1.505 . S
C185 C184 1.379 . S
C185 C187 1.369 . S
C185 H196 0.930 . S
C186 C188 1.383 . S
C186 C189 1.382 . S
C186 H197 0.930 . S
C187 C185 1.369 . S
C187 C189 1.392 . S
C187 H198 0.930 . S
C188 C184 1.373 . S
C188 C186 1.383 . S
C188 H199 0.931 . S
C189 C186 1.382 . S
C189 C187 1.392 . S
C190 Eu161 2.828 1_545 S
C190 O174 1.249 . S
C190 O175 1.244 . S
C190 C184 1.505 . S
C191 O178 1.258 . S
C191 O179 1.242 . S
H192 C164 0.930 . S
H193 C165 0.930 . S
H194 C166 0.930 . S
H195 C167 0.931 . S
H196 C185 0.930 . S
H197 C186 0.930 . S
H198 C187 0.930 . S
H199 C188 0.931 . S
Eu200 C209 2.828 . S
Eu200 O211 2.392 . S
Eu200 O213 2.418 . S
Eu200 O218 2.373 . S
Eu200 O221 2.488 . S
Eu200 O222 2.471 . S
Eu200 O223 2.349 . S
Eu201 O210 2.373 . S
Eu201 O214 2.488 1_545 S
Eu201 O215 2.471 1_545 S
Eu201 O216 2.349 . S
Eu201 O219 2.392 . S
Eu201 O220 2.418 . S
Eu201 C230 2.828 1_545 S
C202 O220 1.244 . S
C202 O223 1.265 . S
C203 C204 1.379 . S
C203 C207 1.373 . S
C203 C209 1.505 . S
C204 C203 1.379 . S
C204 C206 1.369 . S
C204 H232 0.930 . S
C205 C207 1.383 . S
C205 C208 1.382 . S
C205 H233 0.930 . S
C206 C204 1.369 . S
C206 C208 1.392 . S
C206 H234 0.930 . S
C207 C203 1.373 . S
C207 C205 1.383 . S
C207 H235 0.931 . S
C208 C205 1.382 . S
C208 C206 1.392 . S
C209 Eu200 2.828 . S
C209 C203 1.505 . S
C209 O221 1.249 . S
C209 O222 1.244 . S
O210 Eu201 2.373 . S
O210 C212 1.258 . S
O211 Eu200 2.392 . S
O211 C212 1.242 . S
C212 O210 1.258 . S
C212 O211 1.242 . S
O213 Eu200 2.418 . S
O213 C217 1.244 . S
O214 Eu201 2.488 1_565 S
O214 C230 1.249 . S
O215 Eu201 2.471 1_565 S
O215 C230 1.244 . S
O216 Eu201 2.349 . S
O216 C217 1.265 . S
C217 O213 1.244 . S
C217 O216 1.265 . S
O218 Eu200 2.373 . S
O218 C231 1.258 . S
O219 Eu201 2.392 . S
O219 C231 1.242 . S
O220 Eu201 2.418 . S
O220 C202 1.244 . S
O221 Eu200 2.488 . S
O221 C209 1.249 . S
O222 Eu200 2.471 . S
O222 C209 1.244 . S
O223 Eu200 2.349 . S
O223 C202 1.265 . S
C224 C225 1.379 . S
C224 C228 1.373 . S
C224 C230 1.505 . S
C225 C224 1.379 . S
C225 C227 1.369 . S
C225 H236 0.930 . S
C226 C228 1.383 . S
C226 C229 1.382 . S
C226 H237 0.930 . S
C227 C225 1.369 . S
C227 C229 1.392 . S
C227 H238 0.930 . S
C228 C224 1.373 . S
C228 C226 1.383 . S
C228 H239 0.931 . S
C229 C226 1.382 . S
C229 C227 1.392 . S
C230 Eu201 2.828 1_565 S
C230 O214 1.249 . S
C230 O215 1.244 . S
C230 C224 1.505 . S
C231 O218 1.258 . S
C231 O219 1.242 . S
H232 C204 0.930 . S
H233 C205 0.930 . S
H234 C206 0.930 . S
H235 C207 0.931 . S
H236 C225 0.930 . S
H237 C226 0.930 . S
H238 C227 0.930 . S
H239 C228 0.931 . S
Eu240 C249 2.828 . S
Eu240 O251 2.392 . S
Eu240 O253 2.418 . S
Eu240 O258 2.373 . S
Eu240 O261 2.488 . S
Eu240 O262 2.471 . S
Eu240 O263 2.349 . S
Eu241 O250 2.373 . S
Eu241 O254 2.488 1_545 S
Eu241 O255 2.471 1_545 S
Eu241 O256 2.349 . S
Eu241 O259 2.392 . S
Eu241 O260 2.418 . S
Eu241 C270 2.828 1_545 S
C242 O260 1.244 . S
C242 O263 1.265 . S
C243 C244 1.379 . S
C243 C247 1.373 . S
C243 C249 1.505 . S
C244 C243 1.379 . S
C244 C246 1.369 . S
C244 H272 0.930 . S
C245 C247 1.383 . S
C245 C248 1.382 . S
C245 H273 0.930 . S
C246 C244 1.369 . S
C246 C248 1.392 . S
C246 H274 0.930 . S
C247 C243 1.373 . S
C247 C245 1.383 . S
C247 H275 0.931 . S
C248 C245 1.382 . S
C248 C246 1.392 . S
C249 Eu240 2.828 . S
C249 C243 1.505 . S
C249 O261 1.249 . S
C249 O262 1.244 . S
O250 Eu241 2.373 . S
O250 C252 1.258 . S
O251 Eu240 2.392 . S
O251 C252 1.242 . S
C252 O250 1.258 . S
C252 O251 1.242 . S
O253 Eu240 2.418 . S
O253 C257 1.244 . S
O254 Eu241 2.488 1_565 S
O254 C270 1.249 . S
O255 Eu241 2.471 1_565 S
O255 C270 1.244 . S
O256 Eu241 2.349 . S
O256 C257 1.265 . S
C257 O253 1.244 . S
C257 O256 1.265 . S
O258 Eu240 2.373 . S
O258 C271 1.258 . S
O259 Eu241 2.392 . S
O259 C271 1.242 . S
O260 Eu241 2.418 . S
O260 C242 1.244 . S
O261 Eu240 2.488 . S
O261 C249 1.249 . S
O262 Eu240 2.471 . S
O262 C249 1.244 . S
O263 Eu240 2.349 . S
O263 C242 1.265 . S
C264 C265 1.379 . S
C264 C268 1.373 . S
C264 C270 1.505 . S
C265 C264 1.379 . S
C265 C267 1.369 . S
C265 H276 0.930 . S
C266 C268 1.383 . S
C266 C269 1.382 . S
C266 H277 0.930 . S
C267 C265 1.369 . S
C267 C269 1.392 . S
C267 H278 0.930 . S
C268 C264 1.373 . S
C268 C266 1.383 . S
C268 H279 0.931 . S
C269 C266 1.382 . S
C269 C267 1.392 . S
C270 Eu241 2.828 1_565 S
C270 O254 1.249 . S
C270 O255 1.244 . S
C270 C264 1.505 . S
C271 O258 1.258 . S
C271 O259 1.242 . S
H272 C244 0.930 . S
H273 C245 0.930 . S
H274 C246 0.930 . S
H275 C247 0.931 . S
H276 C265 0.930 . S
H277 C266 0.930 . S
H278 C267 0.930 . S
H279 C268 0.931 . S
Eu280 C289 2.828 . S
Eu280 O291 2.392 . S
Eu280 O293 2.418 . S
Eu280 O298 2.373 . S
Eu280 O301 2.488 . S
Eu280 O302 2.471 . S
Eu280 O303 2.349 . S
Eu281 O290 2.373 . S
Eu281 O294 2.488 1_565 S
Eu281 O295 2.471 1_565 S
Eu281 O296 2.349 . S
Eu281 O299 2.392 . S
Eu281 O300 2.418 . S
Eu281 C310 2.828 1_565 S
C282 O300 1.244 . S
C282 O303 1.265 . S
C283 C284 1.379 . S
C283 C287 1.373 . S
C283 C289 1.505 . S
C284 C283 1.379 . S
C284 C286 1.369 . S
C284 H312 0.930 . S
C285 C287 1.383 . S
C285 C288 1.382 . S
C285 H313 0.930 . S
C286 C284 1.369 . S
C286 C288 1.392 . S
C286 H314 0.930 . S
C287 C283 1.373 . S
C287 C285 1.383 . S
C287 H315 0.931 . S
C288 C285 1.382 . S
C288 C286 1.392 . S
C289 Eu280 2.828 . S
C289 C283 1.505 . S
C289 O301 1.249 . S
C289 O302 1.244 . S
O290 Eu281 2.373 . S
O290 C292 1.258 . S
O291 Eu280 2.392 . S
O291 C292 1.242 . S
C292 O290 1.258 . S
C292 O291 1.242 . S
O293 Eu280 2.418 . S
O293 C297 1.244 . S
O294 Eu281 2.488 1_545 S
O294 C310 1.249 . S
O295 Eu281 2.471 1_545 S
O295 C310 1.244 . S
O296 Eu281 2.349 . S
O296 C297 1.265 . S
C297 O293 1.244 . S
C297 O296 1.265 . S
O298 Eu280 2.373 . S
O298 C311 1.258 . S
O299 Eu281 2.392 . S
O299 C311 1.242 . S
O300 Eu281 2.418 . S
O300 C282 1.244 . S
O301 Eu280 2.488 . S
O301 C289 1.249 . S
O302 Eu280 2.471 . S
O302 C289 1.244 . S
O303 Eu280 2.349 . S
O303 C282 1.265 . S
C304 C305 1.379 . S
C304 C308 1.373 . S
C304 C310 1.505 . S
C305 C304 1.379 . S
C305 C307 1.369 . S
C305 H316 0.930 . S
C306 C308 1.383 . S
C306 C309 1.382 . S
C306 H317 0.930 . S
C307 C305 1.369 . S
C307 C309 1.392 . S
C307 H318 0.930 . S
C308 C304 1.373 . S
C308 C306 1.383 . S
C308 H319 0.931 . S
C309 C306 1.382 . S
C309 C307 1.392 . S
C310 Eu281 2.828 1_545 S
C310 O294 1.249 . S
C310 O295 1.244 . S
C310 C304 1.505 . S
C311 O298 1.258 . S
C311 O299 1.242 . S
H312 C284 0.930 . S
H313 C285 0.930 . S
H314 C286 0.930 . S
H315 C287 0.931 . S
H316 C305 0.930 . S
H317 C306 0.930 . S
H318 C307 0.930 . S
H319 C308 0.931 . S
Eu320 C329 2.828 . S
Eu320 O331 2.392 . S
Eu320 O333 2.418 . S
Eu320 O338 2.373 . S
Eu320 O341 2.488 . S
Eu320 O342 2.471 . S
Eu320 O343 2.349 . S
Eu321 O330 2.373 . S
Eu321 O334 2.488 . S
Eu321 O335 2.471 . S
Eu321 O336 2.349 . S
Eu321 O339 2.392 . S
Eu321 O340 2.418 . S
Eu321 C350 2.828 . S
C322 O340 1.244 . S
C322 O343 1.265 . S
C323 C324 1.379 . S
C323 C327 1.373 . S
C323 C329 1.505 . S
C324 C323 1.379 . S
C324 C326 1.369 . S
C324 H352 0.930 . S
C325 C327 1.383 . S
C325 C328 1.382 . S
C325 H353 0.930 . S
C326 C324 1.369 . S
C326 C328 1.392 . S
C326 H354 0.930 . S
C327 C323 1.373 . S
C327 C325 1.383 . S
C327 H355 0.931 . S
C328 C325 1.382 . S
C328 C326 1.392 . S
C329 Eu320 2.828 . S
C329 C323 1.505 . S
C329 O341 1.249 . S
C329 O342 1.244 . S
O330 Eu321 2.373 . S
O330 C332 1.258 . S
O331 Eu320 2.392 . S
O331 C332 1.242 . S
C332 O330 1.258 . S
C332 O331 1.242 . S
O333 Eu320 2.418 . S
O333 C337 1.244 . S
O334 Eu321 2.488 . S
O334 C350 1.249 . S
O335 Eu321 2.471 . S
O335 C350 1.244 . S
O336 Eu321 2.349 . S
O336 C337 1.265 . S
C337 O333 1.244 . S
C337 O336 1.265 . S
O338 Eu320 2.373 . S
O338 C351 1.258 . S
O339 Eu321 2.392 . S
O339 C351 1.242 . S
O340 Eu321 2.418 . S
O340 C322 1.244 . S
O341 Eu320 2.488 . S
O341 C329 1.249 . S
O342 Eu320 2.471 . S
O342 C329 1.244 . S
O343 Eu320 2.349 . S
O343 C322 1.265 . S
C344 C345 1.379 . S
C344 C348 1.373 . S
C344 C350 1.505 . S
C345 C344 1.379 . S
C345 C347 1.369 . S
C345 H356 0.930 . S
C346 C348 1.383 . S
C346 C349 1.382 . S
C346 H357 0.930 . S
C347 C345 1.369 . S
C347 C349 1.392 . S
C347 H358 0.930 . S
C348 C344 1.373 . S
C348 C346 1.383 . S
C348 H359 0.931 . S
C349 C346 1.382 . S
C349 C347 1.392 . S
C350 Eu321 2.828 . S
C350 O334 1.249 . S
C350 O335 1.244 . S
C350 C344 1.505 . S
C351 O338 1.258 . S
C351 O339 1.242 . S
H352 C324 0.930 . S
H353 C325 0.930 . S
H354 C326 0.930 . S
H355 C327 0.931 . S
H356 C345 0.930 . S
H357 C346 0.930 . S
H358 C347 0.930 . S
H359 C348 0.931 . S
Eu360 C369 2.828 . S
Eu360 O371 2.392 . S
Eu360 O373 2.418 . S
Eu360 O378 2.373 . S
Eu360 O381 2.488 . S
Eu360 O382 2.471 . S
Eu360 O383 2.349 . S
Eu361 O370 2.373 . S
Eu361 O374 2.488 . S
Eu361 O375 2.471 . S
Eu361 O376 2.349 . S
Eu361 O379 2.392 . S
Eu361 O380 2.418 . S
Eu361 C390 2.828 . S
C362 O380 1.244 . S
C362 O383 1.265 . S
C363 C364 1.379 . S
C363 C367 1.373 . S
C363 C369 1.505 . S
C364 C363 1.379 . S
C364 C366 1.369 . S
C364 H392 0.930 . S
C365 C367 1.383 . S
C365 C368 1.382 . S
C365 H393 0.930 . S
C366 C364 1.369 . S
C366 C368 1.392 . S
C366 H394 0.930 . S
C367 C363 1.373 . S
C367 C365 1.383 . S
C367 H395 0.931 . S
C368 C365 1.382 . S
C368 C366 1.392 . S
C369 Eu360 2.828 . S
C369 C363 1.505 . S
C369 O381 1.249 . S
C369 O382 1.244 . S
O370 Eu361 2.373 . S
O370 C372 1.258 . S
O371 Eu360 2.392 . S
O371 C372 1.242 . S
C372 O370 1.258 . S
C372 O371 1.242 . S
O373 Eu360 2.418 . S
O373 C377 1.244 . S
O374 Eu361 2.488 . S
O374 C390 1.249 . S
O375 Eu361 2.471 . S
O375 C390 1.244 . S
O376 Eu361 2.349 . S
O376 C377 1.265 . S
C377 O373 1.244 . S
C377 O376 1.265 . S
O378 Eu360 2.373 . S
O378 C391 1.258 . S
O379 Eu361 2.392 . S
O379 C391 1.242 . S
O380 Eu361 2.418 . S
O380 C362 1.244 . S
O381 Eu360 2.488 . S
O381 C369 1.249 . S
O382 Eu360 2.471 . S
O382 C369 1.244 . S
O383 Eu360 2.349 . S
O383 C362 1.265 . S
C384 C385 1.379 . S
C384 C388 1.373 . S
C384 C390 1.505 . S
C385 C384 1.379 . S
C385 C387 1.369 . S
C385 H396 0.930 . S
C386 C388 1.383 . S
C386 C389 1.382 . S
C386 H397 0.930 . S
C387 C385 1.369 . S
C387 C389 1.392 . S
C387 H398 0.930 . S
C388 C384 1.373 . S
C388 C386 1.383 . S
C388 H399 0.931 . S
C389 C386 1.382 . S
C389 C387 1.392 . S
C390 Eu361 2.828 . S
C390 O374 1.249 . S
C390 O375 1.244 . S
C390 C384 1.505 . S
C391 O378 1.258 . S
C391 O379 1.242 . S
H392 C364 0.930 . S
H393 C365 0.930 . S
H394 C366 0.930 . S
H395 C367 0.931 . S
H396 C385 0.930 . S
H397 C386 0.930 . S
H398 C387 0.930 . S
H399 C388 0.931 . S
Eu400 C409 2.828 . S
Eu400 O411 2.392 . S
Eu400 O413 2.418 . S
Eu400 O418 2.373 . S
Eu400 O421 2.488 . S
Eu400 O422 2.471 . S
Eu400 O423 2.349 . S
Eu401 O410 2.373 . S
Eu401 O414 2.488 . S
Eu401 O415 2.471 . S
Eu401 O416 2.349 . S
Eu401 O419 2.392 . S
Eu401 O420 2.418 . S
Eu401 C430 2.828 . S
C402 O420 1.244 . S
C402 O423 1.265 . S
C403 C404 1.379 . S
C403 C407 1.373 . S
C403 C409 1.505 . S
C404 C403 1.379 . S
C404 C406 1.369 . S
C404 H432 0.930 . S
C405 C407 1.383 . S
C405 C408 1.382 . S
C405 H433 0.930 . S
C406 C404 1.369 . S
C406 C408 1.392 . S
C406 H434 0.930 . S
C407 C403 1.373 . S
C407 C405 1.383 . S
C407 H435 0.931 . S
C408 C405 1.382 . S
C408 C406 1.392 . S
C409 Eu400 2.828 . S
C409 C403 1.505 . S
C409 O421 1.249 . S
C409 O422 1.244 . S
O410 Eu401 2.373 . S
O410 C412 1.258 . S
O411 Eu400 2.392 . S
O411 C412 1.242 . S
C412 O410 1.258 . S
C412 O411 1.242 . S
O413 Eu400 2.418 . S
O413 C417 1.244 . S
O414 Eu401 2.488 . S
O414 C430 1.249 . S
O415 Eu401 2.471 . S
O415 C430 1.244 . S
O416 Eu401 2.349 . S
O416 C417 1.265 . S
C417 O413 1.244 . S
C417 O416 1.265 . S
O418 Eu400 2.373 . S
O418 C431 1.258 . S
O419 Eu401 2.392 . S
O419 C431 1.242 . S
O420 Eu401 2.418 . S
O420 C402 1.244 . S
O421 Eu400 2.488 . S
O421 C409 1.249 . S
O422 Eu400 2.471 . S
O422 C409 1.244 . S
O423 Eu400 2.349 . S
O423 C402 1.265 . S
C424 C425 1.379 . S
C424 C428 1.373 . S
C424 C430 1.505 . S
C425 C424 1.379 . S
C425 C427 1.369 . S
C425 H436 0.930 . S
C426 C428 1.383 . S
C426 C429 1.382 . S
C426 H437 0.930 . S
C427 C425 1.369 . S
C427 C429 1.392 . S
C427 H438 0.930 . S
C428 C424 1.373 . S
C428 C426 1.383 . S
C428 H439 0.931 . S
C429 C426 1.382 . S
C429 C427 1.392 . S
C430 Eu401 2.828 . S
C430 O414 1.249 . S
C430 O415 1.244 . S
C430 C424 1.505 . S
C431 O418 1.258 . S
C431 O419 1.242 . S
H432 C404 0.930 . S
H433 C405 0.930 . S
H434 C406 0.930 . S
H435 C407 0.931 . S
H436 C425 0.930 . S
H437 C426 0.930 . S
H438 C427 0.930 . S
H439 C428 0.931 . S
Eu440 C449 2.828 . S
Eu440 O451 2.392 . S
Eu440 O453 2.418 . S
Eu440 O458 2.373 . S
Eu440 O461 2.488 . S
Eu440 O462 2.471 . S
Eu440 O463 2.349 . S
Eu441 O450 2.373 . S
Eu441 O454 2.488 . S
Eu441 O455 2.471 . S
Eu441 O456 2.349 . S
Eu441 O459 2.392 . S
Eu441 O460 2.418 . S
Eu441 C470 2.828 . S
C442 O460 1.244 . S
C442 O463 1.265 . S
C443 C444 1.379 . S
C443 C447 1.373 . S
C443 C449 1.505 . S
C444 C443 1.379 . S
C444 C446 1.369 . S
C444 H472 0.930 . S
C445 C447 1.383 . S
C445 C448 1.382 . S
C445 H473 0.930 . S
C446 C444 1.369 . S
C446 C448 1.392 . S
C446 H474 0.930 . S
C447 C443 1.373 . S
C447 C445 1.383 . S
C447 H475 0.931 . S
C448 C445 1.382 . S
C448 C446 1.392 . S
C449 Eu440 2.828 . S
C449 C443 1.505 . S
C449 O461 1.249 . S
C449 O462 1.244 . S
O450 Eu441 2.373 . S
O450 C452 1.258 . S
O451 Eu440 2.392 . S
O451 C452 1.242 . S
C452 O450 1.258 . S
C452 O451 1.242 . S
O453 Eu440 2.418 . S
O453 C457 1.244 . S
O454 Eu441 2.488 . S
O454 C470 1.249 . S
O455 Eu441 2.471 . S
O455 C470 1.244 . S
O456 Eu441 2.349 . S
O456 C457 1.265 . S
C457 O453 1.244 . S
C457 O456 1.265 . S
O458 Eu440 2.373 . S
O458 C471 1.258 . S
O459 Eu441 2.392 . S
O459 C471 1.242 . S
O460 Eu441 2.418 . S
O460 C442 1.244 . S
O461 Eu440 2.488 . S
O461 C449 1.249 . S
O462 Eu440 2.471 . S
O462 C449 1.244 . S
O463 Eu440 2.349 . S
O463 C442 1.265 . S
C464 C465 1.379 . S
C464 C468 1.373 . S
C464 C470 1.505 . S
C465 C464 1.379 . S
C465 C467 1.369 . S
C465 H476 0.930 . S
C466 C468 1.383 . S
C466 C469 1.382 . S
C466 H477 0.930 . S
C467 C465 1.369 . S
C467 C469 1.392 . S
C467 H478 0.930 . S
C468 C464 1.373 . S
C468 C466 1.383 . S
C468 H479 0.931 . S
C469 C466 1.382 . S
C469 C467 1.392 . S
C470 Eu441 2.828 . S
C470 O454 1.249 . S
C470 O455 1.244 . S
C470 C464 1.505 . S
C471 O458 1.258 . S
C471 O459 1.242 . S
H472 C444 0.930 . S
H473 C445 0.930 . S
H474 C446 0.930 . S
H475 C447 0.931 . S
H476 C465 0.930 . S
H477 C466 0.930 . S
H478 C467 0.930 . S
H479 C468 0.931 . S
Eu480 C489 2.828 . S
Eu480 O491 2.392 . S
Eu480 O493 2.418 . S
Eu480 O498 2.373 . S
Eu480 O501 2.488 . S
Eu480 O502 2.471 . S
Eu480 O503 2.349 . S
Eu481 O490 2.373 . S
Eu481 O494 2.488 . S
Eu481 O495 2.471 . S
Eu481 O496 2.349 . S
Eu481 O499 2.392 . S
Eu481 O500 2.418 . S
Eu481 C510 2.828 . S
C482 O500 1.244 . S
C482 O503 1.265 . S
C483 C484 1.379 . S
C483 C487 1.373 . S
C483 C489 1.505 . S
C484 C483 1.379 . S
C484 C486 1.369 . S
C484 H512 0.930 . S
C485 C487 1.383 . S
C485 C488 1.382 . S
C485 H513 0.930 . S
C486 C484 1.369 . S
C486 C488 1.392 . S
C486 H514 0.930 . S
C487 C483 1.373 . S
C487 C485 1.383 . S
C487 H515 0.931 . S
C488 C485 1.382 . S
C488 C486 1.392 . S
C489 Eu480 2.828 . S
C489 C483 1.505 . S
C489 O501 1.249 . S
C489 O502 1.244 . S
O490 Eu481 2.373 . S
O490 C492 1.258 . S
O491 Eu480 2.392 . S
O491 C492 1.242 . S
C492 O490 1.258 . S
C492 O491 1.242 . S
O493 Eu480 2.418 . S
O493 C497 1.244 . S
O494 Eu481 2.488 . S
O494 C510 1.249 . S
O495 Eu481 2.471 . S
O495 C510 1.244 . S
O496 Eu481 2.349 . S
O496 C497 1.265 . S
C497 O493 1.244 . S
C497 O496 1.265 . S
O498 Eu480 2.373 . S
O498 C511 1.258 . S
O499 Eu481 2.392 . S
O499 C511 1.242 . S
O500 Eu481 2.418 . S
O500 C482 1.244 . S
O501 Eu480 2.488 . S
O501 C489 1.249 . S
O502 Eu480 2.471 . S
O502 C489 1.244 . S
O503 Eu480 2.349 . S
O503 C482 1.265 . S
C504 C505 1.379 . S
C504 C508 1.373 . S
C504 C510 1.505 . S
C505 C504 1.379 . S
C505 C507 1.369 . S
C505 H516 0.930 . S
C506 C508 1.383 . S
C506 C509 1.382 . S
C506 H517 0.930 . S
C507 C505 1.369 . S
C507 C509 1.392 . S
C507 H518 0.930 . S
C508 C504 1.373 . S
C508 C506 1.383 . S
C508 H519 0.931 . S
C509 C506 1.382 . S
C509 C507 1.392 . S
C510 Eu481 2.828 . S
C510 O494 1.249 . S
C510 O495 1.244 . S
C510 C504 1.505 . S
C511 O498 1.258 . S
C511 O499 1.242 . S
H512 C484 0.930 . S
H513 C485 0.930 . S
H514 C486 0.930 . S
H515 C487 0.931 . S
H516 C505 0.930 . S
H517 C506 0.930 . S
H518 C507 0.930 . S
H519 C508 0.931 . S
Eu520 C529 2.828 . S
Eu520 O531 2.392 . S
Eu520 O533 2.418 . S
Eu520 O538 2.373 . S
Eu520 O541 2.488 . S
Eu520 O542 2.471 . S
Eu520 O543 2.349 . S
Eu521 O530 2.373 . S
Eu521 O534 2.488 . S
Eu521 O535 2.471 . S
Eu521 O536 2.349 . S
Eu521 O539 2.392 . S
Eu521 O540 2.418 . S
Eu521 C550 2.828 . S
C522 O540 1.244 . S
C522 O543 1.265 . S
C523 C524 1.379 . S
C523 C527 1.373 . S
C523 C529 1.505 . S
C524 C523 1.379 . S
C524 C526 1.369 . S
C524 H552 0.930 . S
C525 C527 1.383 . S
C525 C528 1.382 . S
C525 H553 0.930 . S
C526 C524 1.369 . S
C526 C528 1.392 . S
C526 H554 0.930 . S
C527 C523 1.373 . S
C527 C525 1.383 . S
C527 H555 0.931 . S
C528 C525 1.382 . S
C528 C526 1.392 . S
C529 Eu520 2.828 . S
C529 C523 1.505 . S
C529 O541 1.249 . S
C529 O542 1.244 . S
O530 Eu521 2.373 . S
O530 C532 1.258 . S
O531 Eu520 2.392 . S
O531 C532 1.242 . S
C532 O530 1.258 . S
C532 O531 1.242 . S
O533 Eu520 2.418 . S
O533 C537 1.244 . S
O534 Eu521 2.488 . S
O534 C550 1.249 . S
O535 Eu521 2.471 . S
O535 C550 1.244 . S
O536 Eu521 2.349 . S
O536 C537 1.265 . S
C537 O533 1.244 . S
C537 O536 1.265 . S
O538 Eu520 2.373 . S
O538 C551 1.258 . S
O539 Eu521 2.392 . S
O539 C551 1.242 . S
O540 Eu521 2.418 . S
O540 C522 1.244 . S
O541 Eu520 2.488 . S
O541 C529 1.249 . S
O542 Eu520 2.471 . S
O542 C529 1.244 . S
O543 Eu520 2.349 . S
O543 C522 1.265 . S
C544 C545 1.379 . S
C544 C548 1.373 . S
C544 C550 1.505 . S
C545 C544 1.379 . S
C545 C547 1.369 . S
C545 H556 0.930 . S
C546 C548 1.383 . S
C546 C549 1.382 . S
C546 H557 0.930 . S
C547 C545 1.369 . S
C547 C549 1.392 . S
C547 H558 0.930 . S
C548 C544 1.373 . S
C548 C546 1.383 . S
C548 H559 0.931 . S
C549 C546 1.382 . S
C549 C547 1.392 . S
C550 Eu521 2.828 . S
C550 O534 1.249 . S
C550 O535 1.244 . S
C550 C544 1.505 . S
C551 O538 1.258 . S
C551 O539 1.242 . S
H552 C524 0.930 . S
H553 C525 0.930 . S
H554 C526 0.930 . S
H555 C527 0.931 . S
H556 C545 0.930 . S
H557 C546 0.930 . S
H558 C547 0.930 . S
H559 C548 0.931 . S
Eu560 C569 2.828 . S
Eu560 O571 2.392 . S
Eu560 O573 2.418 . S
Eu560 O578 2.373 . S
Eu560 O581 2.488 . S
Eu560 O582 2.471 . S
Eu560 O583 2.349 . S
Eu561 O570 2.373 . S
Eu561 O574 2.488 . S
Eu561 O575 2.471 . S
Eu561 O576 2.349 . S
Eu561 O579 2.392 . S
Eu561 O580 2.418 . S
Eu561 C590 2.828 . S
C562 O580 1.244 . S
C562 O583 1.265 . S
C563 C564 1.379 . S
C563 C567 1.373 . S
C563 C569 1.505 . S
C564 C563 1.379 . S
C564 C566 1.369 . S
C564 H592 0.930 . S
C565 C567 1.383 . S
C565 C568 1.382 . S
C565 H593 0.930 . S
C566 C564 1.369 . S
C566 C568 1.392 . S
C566 H594 0.930 . S
C567 C563 1.373 . S
C567 C565 1.383 . S
C567 H595 0.931 . S
C568 C565 1.382 . S
C568 C566 1.392 . S
C569 Eu560 2.828 . S
C569 C563 1.505 . S
C569 O581 1.249 . S
C569 O582 1.244 . S
O570 Eu561 2.373 . S
O570 C572 1.258 . S
O571 Eu560 2.392 . S
O571 C572 1.242 . S
C572 O570 1.258 . S
C572 O571 1.242 . S
O573 Eu560 2.418 . S
O573 C577 1.244 . S
O574 Eu561 2.488 . S
O574 C590 1.249 . S
O575 Eu561 2.471 . S
O575 C590 1.244 . S
O576 Eu561 2.349 . S
O576 C577 1.265 . S
C577 O573 1.244 . S
C577 O576 1.265 . S
O578 Eu560 2.373 . S
O578 C591 1.258 . S
O579 Eu561 2.392 . S
O579 C591 1.242 . S
O580 Eu561 2.418 . S
O580 C562 1.244 . S
O581 Eu560 2.488 . S
O581 C569 1.249 . S
O582 Eu560 2.471 . S
O582 C569 1.244 . S
O583 Eu560 2.349 . S
O583 C562 1.265 . S
C584 C585 1.379 . S
C584 C588 1.373 . S
C584 C590 1.505 . S
C585 C584 1.379 . S
C585 C587 1.369 . S
C585 H596 0.930 . S
C586 C588 1.383 . S
C586 C589 1.382 . S
C586 H597 0.930 . S
C587 C585 1.369 . S
C587 C589 1.392 . S
C587 H598 0.930 . S
C588 C584 1.373 . S
C588 C586 1.383 . S
C588 H599 0.931 . S
C589 C586 1.382 . S
C589 C587 1.392 . S
C590 Eu561 2.828 . S
C590 O574 1.249 . S
C590 O575 1.244 . S
C590 C584 1.505 . S
C591 O578 1.258 . S
C591 O579 1.242 . S
H592 C564 0.930 . S
H593 C565 0.930 . S
H594 C566 0.930 . S
H595 C567 0.931 . S
H596 C585 0.930 . S
H597 C586 0.930 . S
H598 C587 0.930 . S
H599 C588 0.931 . S
Eu600 C609 2.828 . S
Eu600 O611 2.392 . S
Eu600 O613 2.418 . S
Eu600 O618 2.373 . S
Eu600 O621 2.488 . S
Eu600 O622 2.471 . S
Eu600 O623 2.349 . S
Eu601 O610 2.373 . S
Eu601 O614 2.488 . S
Eu601 O615 2.471 . S
Eu601 O616 2.349 . S
Eu601 O619 2.392 . S
Eu601 O620 2.418 . S
Eu601 C630 2.828 . S
C602 O620 1.244 . S
C602 O623 1.265 . S
C603 C604 1.379 . S
C603 C607 1.373 . S
C603 C609 1.505 . S
C604 C603 1.379 . S
C604 C606 1.369 . S
C604 H632 0.930 . S
C605 C607 1.383 . S
C605 C608 1.382 . S
C605 H633 0.930 . S
C606 C604 1.369 . S
C606 C608 1.392 . S
C606 H634 0.930 . S
C607 C603 1.373 . S
C607 C605 1.383 . S
C607 H635 0.931 . S
C608 C605 1.382 . S
C608 C606 1.392 . S
C609 Eu600 2.828 . S
C609 C603 1.505 . S
C609 O621 1.249 . S
C609 O622 1.244 . S
O610 Eu601 2.373 . S
O610 C612 1.258 . S
O611 Eu600 2.392 . S
O611 C612 1.242 . S
C612 O610 1.258 . S
C612 O611 1.242 . S
O613 Eu600 2.418 . S
O613 C617 1.244 . S
O614 Eu601 2.488 . S
O614 C630 1.249 . S
O615 Eu601 2.471 . S
O615 C630 1.244 . S
O616 Eu601 2.349 . S
O616 C617 1.265 . S
C617 O613 1.244 . S
C617 O616 1.265 . S
O618 Eu600 2.373 . S
O618 C631 1.258 . S
O619 Eu601 2.392 . S
O619 C631 1.242 . S
O620 Eu601 2.418 . S
O620 C602 1.244 . S
O621 Eu600 2.488 . S
O621 C609 1.249 . S
O622 Eu600 2.471 . S
O622 C609 1.244 . S
O623 Eu600 2.349 . S
O623 C602 1.265 . S
C624 C625 1.379 . S
C624 C628 1.373 . S
C624 C630 1.505 . S
C625 C624 1.379 . S
C625 C627 1.369 . S
C625 H636 0.930 . S
C626 C628 1.383 . S
C626 C629 1.382 . S
C626 H637 0.930 . S
C627 C625 1.369 . S
C627 C629 1.392 . S
C627 H638 0.930 . S
C628 C624 1.373 . S
C628 C626 1.383 . S
C628 H639 0.931 . S
C629 C626 1.382 . S
C629 C627 1.392 . S
C630 Eu601 2.828 . S
C630 O614 1.249 . S
C630 O615 1.244 . S
C630 C624 1.505 . S
C631 O618 1.258 . S
C631 O619 1.242 . S
H632 C604 0.930 . S
H633 C605 0.930 . S
H634 C606 0.930 . S
H635 C607 0.931 . S
H636 C625 0.930 . S
H637 C626 0.930 . S
H638 C627 0.930 . S
H639 C628 0.931 . S
C640 C641 1.369 . S
C640 C642 1.419 . S
C640 H644 0.930 . S
C641 C640 1.369 . S
C641 C650 1.429 . S
C642 C640 1.419 . S
C642 C643 1.363 . S
C642 H645 0.929 . S
C643 C642 1.363 . S
C643 C649 1.428 . S
H644 C640 0.930 . S
H645 C642 0.929 . S
S646 N647 1.613 . S
S646 N648 1.610 . S
N647 S646 1.613 . S
N647 C650 1.350 . S
N648 S646 1.610 . S
N648 C649 1.351 . S
C649 C643 1.428 . S
C649 N648 1.351 . S
C649 C650 1.434 . S
C650 C641 1.429 . S
C650 N647 1.350 . S
C650 C649 1.434 . S
C651 C652 1.369 . S
C651 C653 1.419 . S
C651 H655 0.930 . S
C652 C651 1.369 . S
C652 C661 1.429 . S
C653 C651 1.419 . S
C653 C654 1.363 . S
C653 H656 0.929 . S
C654 C653 1.363 . S
C654 C660 1.428 . S
H655 C651 0.930 . S
H656 C653 0.929 . S
S657 N658 1.613 . S
S657 N659 1.610 . S
N658 S657 1.613 . S
N658 C661 1.350 . S
N659 S657 1.610 . S
N659 C660 1.351 . S
C660 C654 1.428 . S
C660 N659 1.351 . S
C660 C661 1.434 . S
C661 C652 1.429 . S
C661 N658 1.350 . S
C661 C660 1.434 . S
C662 C663 1.369 . S
C662 C664 1.419 . S
C662 H666 0.930 . S
C663 C662 1.369 . S
C663 C672 1.429 . S
C664 C662 1.419 . S
C664 C665 1.363 . S
C664 H667 0.929 . S
C665 C664 1.363 . S
C665 C671 1.428 . S
H666 C662 0.930 . S
H667 C664 0.929 . S
S668 N669 1.613 . S
S668 N670 1.610 . S
N669 S668 1.613 . S
N669 C672 1.350 . S
N670 S668 1.610 . S
N670 C671 1.351 . S
C671 C665 1.428 . S
C671 N670 1.351 . S
C671 C672 1.434 . S
C672 C663 1.429 . S
C672 N669 1.350 . S
C672 C671 1.434 . S
C673 C674 1.369 . S
C673 C675 1.419 . S
C673 H677 0.930 . S
C674 C673 1.369 . S
C674 C683 1.429 . S
C675 C673 1.419 . S
C675 C676 1.363 . S
C675 H678 0.929 . S
C676 C675 1.363 . S
C676 C682 1.428 . S
H677 C673 0.930 . S
H678 C675 0.929 . S
S679 N680 1.613 . S
S679 N681 1.610 . S
N680 S679 1.613 . S
N680 C683 1.350 . S
N681 S679 1.610 . S
N681 C682 1.351 . S
C682 C676 1.428 . S
C682 N681 1.351 . S
C682 C683 1.434 . S
C683 C674 1.429 . S
C683 N680 1.350 . S
C683 C682 1.434 . S
C684 C685 1.369 . S
C684 C686 1.419 . S
C684 H688 0.930 . S
C685 C684 1.369 . S
C685 C694 1.429 . S
C686 C684 1.419 . S
C686 C687 1.363 . S
C686 H689 0.929 . S
C687 C686 1.363 . S
C687 C693 1.428 . S
H688 C684 0.930 . S
H689 C686 0.929 . S
S690 N691 1.613 . S
S690 N692 1.610 . S
N691 S690 1.613 . S
N691 C694 1.350 . S
N692 S690 1.610 . S
N692 C693 1.351 . S
C693 C687 1.428 . S
C693 N692 1.351 . S
C693 C694 1.434 . S
C694 C685 1.429 . S
C694 N691 1.350 . S
C694 C693 1.434 . S
C695 C696 1.369 . S
C695 C697 1.419 . S
C695 H699 0.930 . S
C696 C695 1.369 . S
C696 C705 1.429 . S
C697 C695 1.419 . S
C697 C698 1.363 . S
C697 H700 0.929 . S
C698 C697 1.363 . S
C698 C704 1.428 . S
H699 C695 0.930 . S
H700 C697 0.929 . S
S701 N702 1.613 . S
S701 N703 1.610 . S
N702 S701 1.613 . S
N702 C705 1.350 . S
N703 S701 1.610 . S
N703 C704 1.351 . S
C704 C698 1.428 . S
C704 N703 1.351 . S
C704 C705 1.434 . S
C705 C696 1.429 . S
C705 N702 1.350 . S
C705 C704 1.434 . S
C706 C707 1.369 . S
C706 C708 1.419 . S
C706 H710 0.930 . S
C707 C706 1.369 . S
C707 C716 1.429 . S
C708 C706 1.419 . S
C708 C709 1.363 . S
C708 H711 0.929 . S
C709 C708 1.363 . S
C709 C715 1.428 . S
H710 C706 0.930 . S
H711 C708 0.929 . S
S712 N713 1.613 . S
S712 N714 1.610 . S
N713 S712 1.613 . S
N713 C716 1.350 . S
N714 S712 1.610 . S
N714 C715 1.351 . S
C715 C709 1.428 . S
C715 N714 1.351 . S
C715 C716 1.434 . S
C716 C707 1.429 . S
C716 N713 1.350 . S
C716 C715 1.434 . S
C717 C718 1.369 . S
C717 C719 1.419 . S
C717 H721 0.930 . S
C718 C717 1.369 . S
C718 C727 1.429 . S
C719 C717 1.419 . S
C719 C720 1.363 . S
C719 H722 0.929 . S
C720 C719 1.363 . S
C720 C726 1.428 . S
H721 C717 0.930 . S
H722 C719 0.929 . S
S723 N724 1.613 . S
S723 N725 1.610 . S
N724 S723 1.613 . S
N724 C727 1.350 . S
N725 S723 1.610 . S
N725 C726 1.351 . S
C726 C720 1.428 . S
C726 N725 1.351 . S
C726 C727 1.434 . S
C727 C718 1.429 . S
C727 N724 1.350 . S
C727 C726 1.434 . S
C728 C729 1.369 . S
C728 C730 1.419 1_565 S
C728 H732 0.930 . S
C729 C728 1.369 . S
C729 C738 1.429 . S
C730 C728 1.419 1_545 S
C730 C731 1.363 . S
C730 H733 0.929 . S
C731 C730 1.363 . S
C731 C737 1.428 . S
H732 C728 0.930 . S
H733 C730 0.929 . S
S734 N735 1.613 . S
S734 N736 1.610 1_565 S
N735 S734 1.613 . S
N735 C738 1.350 . S
N736 S734 1.610 1_545 S
N736 C737 1.351 . S
C737 C731 1.428 . S
C737 N736 1.351 . S
C737 C738 1.434 1_545 S
C738 C729 1.429 . S
C738 N735 1.350 . S
C738 C737 1.434 1_565 S
C739 C740 1.369 1_565 S
C739 C741 1.419 . S
C739 H743 0.930 . S
C740 C739 1.369 1_545 S
C740 C749 1.429 . S
C741 C739 1.419 . S
C741 C742 1.363 . S
C741 H744 0.929 . S
C742 C741 1.363 . S
C742 C748 1.428 1_565 S
H743 C739 0.930 . S
H744 C741 0.929 . S
S745 N746 1.613 . S
S745 N747 1.610 . S
N746 S745 1.613 . S
N746 C749 1.350 . S
N747 S745 1.610 . S
N747 C748 1.351 . S
C748 C742 1.428 1_545 S
C748 N747 1.351 . S
C748 C749 1.434 . S
C749 C740 1.429 . S
C749 N746 1.350 . S
C749 C748 1.434 . S
C750 C751 1.369 . S
C750 C752 1.419 . S
C750 H754 0.930 . S
C751 C750 1.369 . S
C751 C760 1.429 1_545 S
C752 C750 1.419 . S
C752 C753 1.363 1_545 S
C752 H755 0.929 . S
C753 C752 1.363 1_565 S
C753 C759 1.428 . S
H754 C750 0.930 . S
H755 C752 0.929 . S
S756 N757 1.613 . S
S756 N758 1.610 . S
N757 S756 1.613 . S
N757 C760 1.350 . S
N758 S756 1.610 . S
N758 C759 1.351 . S
C759 C753 1.428 . S
C759 N758 1.351 . S
C759 C760 1.434 . S
C760 C751 1.429 1_565 S
C760 N757 1.350 . S
C760 C759 1.434 . S
C761 C762 1.369 1_565 S
C761 C763 1.419 . S
C761 H765 0.930 . S
C762 C761 1.369 1_545 S
C762 C771 1.429 . S
C763 C761 1.419 . S
C763 C764 1.363 . S
C763 H766 0.929 . S
C764 C763 1.363 . S
C764 C770 1.428 1_565 S
H765 C761 0.930 . S
H766 C763 0.929 . S
S767 N768 1.613 . S
S767 N769 1.610 . S
N768 S767 1.613 . S
N768 C771 1.350 . S
N769 S767 1.610 . S
N769 C770 1.351 . S
C770 C764 1.428 1_545 S
C770 N769 1.351 . S
C770 C771 1.434 . S
C771 C762 1.429 . S
C771 N768 1.350 . S
C771 C770 1.434 . S
C772 C773 1.369 . S
C772 C774 1.419 . S
C772 H776 0.930 . S
C773 C772 1.369 . S
C773 C782 1.429 . S
C774 C772 1.419 . S
C774 C775 1.363 . S
C774 H777 0.929 . S
C775 C774 1.363 . S
C775 C781 1.428 . S
H776 C772 0.930 . S
H777 C774 0.929 . S
S778 N779 1.613 . S
S778 N780 1.610 . S
N779 S778 1.613 . S
N779 C782 1.350 . S
N780 S778 1.610 . S
N780 C781 1.351 . S
C781 C775 1.428 . S
C781 N780 1.351 . S
C781 C782 1.434 . S
C782 C773 1.429 . S
C782 N779 1.350 . S
C782 C781 1.434 . S
C783 C784 1.369 . S
C783 C785 1.419 . S
C783 H787 0.930 . S
C784 C783 1.369 . S
C784 C793 1.429 . S
C785 C783 1.419 . S
C785 C786 1.363 . S
C785 H788 0.929 . S
C786 C785 1.363 . S
C786 C792 1.428 . S
H787 C783 0.930 . S
H788 C785 0.929 . S
S789 N790 1.613 . S
S789 N791 1.610 . S
N790 S789 1.613 . S
N790 C793 1.350 . S
N791 S789 1.610 . S
N791 C792 1.351 . S
C792 C786 1.428 . S
C792 N791 1.351 . S
C792 C793 1.434 . S
C793 C784 1.429 . S
C793 N790 1.350 . S
C793 C792 1.434 . S
C794 C795 1.369 . S
C794 C796 1.419 . S
C794 H798 0.930 . S
C795 C794 1.369 . S
C795 C804 1.429 . S
C796 C794 1.419 . S
C796 C797 1.363 . S
C796 H799 0.929 . S
C797 C796 1.363 . S
C797 C803 1.428 . S
H798 C794 0.930 . S
H799 C796 0.929 . S
S800 N801 1.613 . S
S800 N802 1.610 . S
N801 S800 1.613 . S
N801 C804 1.350 . S
N802 S800 1.610 . S
N802 C803 1.351 . S
C803 C797 1.428 . S
C803 N802 1.351 . S
C803 C804 1.434 . S
C804 C795 1.429 . S
C804 N801 1.350 . S
C804 C803 1.434 . S
C805 C806 1.369 . S
C805 C807 1.419 . S
C805 H809 0.930 . S
C806 C805 1.369 . S
C806 C815 1.429 . S
C807 C805 1.419 . S
C807 C808 1.363 . S
C807 H810 0.929 . S
C808 C807 1.363 . S
C808 C814 1.428 . S
H809 C805 0.930 . S
H810 C807 0.929 . S
S811 N812 1.613 . S
S811 N813 1.610 . S
N812 S811 1.613 . S
N812 C815 1.350 . S
N813 S811 1.610 . S
N813 C814 1.351 . S
C814 C808 1.428 . S
C814 N813 1.351 . S
C814 C815 1.434 . S
C815 C806 1.429 . S
C815 N812 1.350 . S
C815 C814 1.434 . S
C816 C817 1.369 . S
C816 C818 1.419 1_556 S
C816 H820 0.930 . S
C817 C816 1.369 . S
C817 C826 1.429 . S
C818 C816 1.419 1_554 S
C818 C819 1.363 . S
C818 H821 0.929 . S
C819 C818 1.363 . S
C819 C825 1.428 . S
H820 C816 0.930 . S
H821 C818 0.929 . S
S822 N823 1.616 1_564 S
S822 N824 1.608 1_565 S
N823 S822 1.616 1_546 S
N823 C826 1.350 . S
N824 S822 1.608 1_545 S
N824 C825 1.351 . S
C825 C819 1.428 . S
C825 N824 1.351 . S
C825 C826 1.434 1_554 S
C826 C817 1.429 . S
C826 N823 1.350 . S
C826 C825 1.434 1_556 S
C827 C828 1.369 . S
C827 C829 1.419 1_556 S
C827 H831 0.930 . S
C828 C827 1.369 . S
C828 C837 1.429 . S
C829 C827 1.419 1_554 S
C829 C830 1.363 . S
C829 H832 0.929 . S
C830 C829 1.363 . S
C830 C836 1.428 . S
H831 C827 0.930 . S
H832 C829 0.929 . S
S833 N834 1.616 1_554 S
S833 N835 1.608 . S
N834 S833 1.616 1_556 S
N834 C837 1.350 . S
N835 S833 1.608 . S
N835 C836 1.351 . S
C836 C830 1.428 . S
C836 N835 1.351 . S
C836 C837 1.434 1_554 S
C837 C828 1.429 . S
C837 N834 1.350 . S
C837 C836 1.434 1_556 S
C838 C839 1.369 . S
C838 C840 1.419 . S
C838 H842 0.930 . S
C839 C838 1.369 . S
C839 C848 1.429 . S
C840 C838 1.419 . S
C840 C841 1.363 . S
C840 H843 0.929 . S
C841 C840 1.363 . S
C841 C847 1.428 . S
H842 C838 0.930 . S
H843 C840 0.929 . S
S844 N845 1.613 . S
S844 N846 1.610 . S
N845 S844 1.613 . S
N845 C848 1.350 . S
N846 S844 1.610 . S
N846 C847 1.351 . S
C847 C841 1.428 . S
C847 N846 1.351 . S
C847 C848 1.434 . S
C848 C839 1.429 . S
C848 N845 1.350 . S
C848 C847 1.434 . S
C849 C850 1.369 . S
C849 C851 1.419 . S
C849 H853 0.930 . S
C850 C849 1.369 . S
C850 C859 1.429 . S
C851 C849 1.419 . S
C851 C852 1.363 . S
C851 H854 0.929 . S
C852 C851 1.363 . S
C852 C858 1.428 . S
H853 C849 0.930 . S
H854 C851 0.929 . S
S855 N856 1.613 1_565 S
S855 N857 1.610 1_565 S
N856 S855 1.613 1_545 S
N856 C859 1.350 . S
N857 S855 1.610 1_545 S
N857 C858 1.351 . S
C858 C852 1.428 . S
C858 N857 1.351 . S
C858 C859 1.434 . S
C859 C850 1.429 . S
C859 N856 1.350 . S
C859 C858 1.434 . S
C860 C861 1.369 . S
C860 C862 1.419 1_554 S
C860 H864 0.930 . S
C861 C860 1.369 . S
C861 C870 1.429 . S
C862 C860 1.419 1_556 S
C862 C863 1.363 . S
C862 H865 0.929 . S
C863 C862 1.363 . S
C863 C869 1.428 . S
H864 C860 0.930 . S
H865 C862 0.929 . S
S866 N867 1.616 1_556 S
S866 N868 1.608 . S
N867 S866 1.616 1_554 S
N867 C870 1.350 . S
N868 S866 1.608 . S
N868 C869 1.351 . S
C869 C863 1.428 . S
C869 N868 1.351 . S
C869 C870 1.434 1_556 S
C870 C861 1.429 . S
C870 N867 1.350 . S
C870 C869 1.434 1_554 S
C871 C872 1.369 . S
C871 C873 1.419 1_556 S
C871 H875 0.930 . S
C872 C871 1.369 . S
C872 C881 1.429 . S
C873 C871 1.419 1_554 S
C873 C874 1.363 . S
C873 H876 0.929 . S
C874 C873 1.363 . S
C874 C880 1.428 . S
H875 C871 0.930 . S
H876 C873 0.929 . S
S877 N878 1.616 1_554 S
S877 N879 1.608 . S
N878 S877 1.616 1_556 S
N878 C881 1.350 . S
N879 S877 1.608 . S
N879 C880 1.351 . S
C880 C874 1.428 . S
C880 N879 1.351 . S
C880 C881 1.434 1_554 S
C881 C872 1.429 . S
C881 N878 1.350 . S
C881 C880 1.434 1_556 S
C882 C883 1.369 . S
C882 C884 1.419 . S
C882 H886 0.930 . S
C883 C882 1.369 . S
C883 C892 1.429 . S
C884 C882 1.419 . S
C884 C885 1.363 . S
C884 H887 0.929 . S
C885 C884 1.363 . S
C885 C891 1.428 . S
H886 C882 0.930 . S
H887 C884 0.929 . S
S888 N889 1.613 . S
S888 N890 1.610 . S
N889 S888 1.613 . S
N889 C892 1.350 . S
N890 S888 1.610 . S
N890 C891 1.351 . S
C891 C885 1.428 . S
C891 N890 1.351 . S
C891 C892 1.434 . S
C892 C883 1.429 . S
C892 N889 1.350 . S
C892 C891 1.434 . S
C893 C894 1.369 . S
C893 C895 1.419 . S
C893 H897 0.930 . S
C894 C893 1.369 . S
C894 C903 1.429 . S
C895 C893 1.419 . S
C895 C896 1.363 . S
C895 H898 0.929 . S
C896 C895 1.363 . S
C896 C902 1.428 . S
H897 C893 0.930 . S
H898 C895 0.929 . S
S899 N900 1.613 . S
S899 N901 1.610 . S
N900 S899 1.613 . S
N900 C903 1.350 . S
N901 S899 1.610 . S
N901 C902 1.351 . S
C902 C896 1.428 . S
C902 N901 1.351 . S
C902 C903 1.434 . S
C903 C894 1.429 . S
C903 N900 1.350 . S
C903 C902 1.434 . S
C904 C905 1.369 1_545 S
C904 C906 1.419 1_655 S
C904 H908 0.930 . S
C905 C904 1.369 1_565 S
C905 C914 1.429 . S
C906 C904 1.419 1_455 S
C906 C907 1.363 . S
C906 H909 0.929 . S
C907 C906 1.363 . S
C907 C913 1.428 1_545 S
H908 C904 0.930 . S
H909 C906 0.929 . S
S910 N911 1.613 1_455 S
S910 N912 1.610 . S
N911 S910 1.613 1_655 S
N911 C914 1.350 . S
N912 S910 1.610 . S
N912 C913 1.351 . S
C913 C907 1.428 1_565 S
C913 N912 1.351 . S
C913 C914 1.434 1_455 S
C914 C905 1.429 . S
C914 N911 1.350 . S
C914 C913 1.434 1_655 S
C915 C916 1.369 1_565 S
C915 C917 1.419 1_655 S
C915 H919 0.930 . S
C916 C915 1.369 1_545 S
C916 C925 1.429 . S
C917 C915 1.419 1_455 S
C917 C918 1.363 . S
C917 H920 0.929 . S
C918 C917 1.363 . S
C918 C924 1.428 1_565 S
H919 C915 0.930 . S
H920 C917 0.929 . S
S921 N922 1.613 1_455 S
S921 N923 1.610 . S
N922 S921 1.613 1_655 S
N922 C925 1.350 . S
N923 S921 1.610 . S
N923 C924 1.351 . S
C924 C918 1.428 1_545 S
C924 N923 1.351 . S
C924 C925 1.434 1_455 S
C925 C916 1.429 . S
C925 N922 1.350 . S
C925 C924 1.434 1_655 S
C926 C927 1.369 . S
C926 C928 1.419 1_455 S
C926 H930 0.930 . S
C927 C926 1.369 . S
C927 C936 1.429 1_545 S
C928 C926 1.419 1_655 S
C928 C929 1.363 1_545 S
C928 H931 0.929 . S
C929 C928 1.363 1_565 S
C929 C935 1.428 . S
H930 C926 0.930 . S
H931 C928 0.929 . S
S932 N933 1.613 . S
S932 N934 1.610 1_455 S
N933 S932 1.613 . S
N933 C936 1.350 . S
N934 S932 1.610 1_655 S
N934 C935 1.351 . S
C935 C929 1.428 . S
C935 N934 1.351 . S
C935 C936 1.434 1_655 S
C936 C927 1.429 1_565 S
C936 N933 1.350 . S
C936 C935 1.434 1_455 S
C937 C938 1.369 1_565 S
C937 C939 1.419 1_655 S
C937 H941 0.930 . S
C938 C937 1.369 1_545 S
C938 C947 1.429 . S
C939 C937 1.419 1_455 S
C939 C940 1.363 . S
C939 H942 0.929 . S
C940 C939 1.363 . S
C940 C946 1.428 1_565 S
H941 C937 0.930 . S
H942 C939 0.929 . S
S943 N944 1.613 1_455 S
S943 N945 1.610 . S
N944 S943 1.613 1_655 S
N944 C947 1.350 . S
N945 S943 1.610 . S
N945 C946 1.351 . S
C946 C940 1.428 1_545 S
C946 N945 1.351 . S
C946 C947 1.434 1_455 S
C947 C938 1.429 . S
C947 N944 1.350 . S
C947 C946 1.434 1_655 S
C948 C949 1.369 . S
C948 C950 1.419 . S
C948 H952 0.930 . S
C949 C948 1.369 . S
C949 C958 1.429 . S
C950 C948 1.419 . S
C950 C951 1.363 . S
C950 H953 0.929 . S
C951 C950 1.363 . S
C951 C957 1.428 . S
H952 C948 0.930 . S
H953 C950 0.929 . S
S954 N955 1.613 . S
S954 N956 1.610 . S
N955 S954 1.613 . S
N955 C958 1.350 . S
N956 S954 1.610 . S
N956 C957 1.351 . S
C957 C951 1.428 . S
C957 N956 1.351 . S
C957 C958 1.434 . S
C958 C949 1.429 . S
C958 N955 1.350 . S
C958 C957 1.434 . S
C959 C960 1.369 . S
C959 C961 1.419 . S
C959 H963 0.930 . S
C960 C959 1.369 . S
C960 C969 1.429 . S
C961 C959 1.419 . S
C961 C962 1.363 . S
C961 H964 0.929 . S
C962 C961 1.363 . S
C962 C968 1.428 . S
H963 C959 0.930 . S
H964 C961 0.929 . S
S965 N966 1.613 . S
S965 N967 1.610 . S
N966 S965 1.613 . S
N966 C969 1.350 . S
N967 S965 1.610 . S
N967 C968 1.351 . S
C968 C962 1.428 . S
C968 N967 1.351 . S
C968 C969 1.434 . S
C969 C960 1.429 . S
C969 N966 1.350 . S
C969 C968 1.434 . S
C970 C971 1.369 . S
C970 C972 1.419 . S
C970 H974 0.930 . S
C971 C970 1.369 . S
C971 C980 1.429 . S
C972 C970 1.419 . S
C972 C973 1.363 . S
C972 H975 0.929 . S
C973 C972 1.363 . S
C973 C979 1.428 . S
H974 C970 0.930 . S
H975 C972 0.929 . S
S976 N977 1.613 . S
S976 N978 1.610 . S
N977 S976 1.613 . S
N977 C980 1.350 . S
N978 S976 1.610 . S
N978 C979 1.351 . S
C979 C973 1.428 . S
C979 N978 1.351 . S
C979 C980 1.434 . S
C980 C971 1.429 . S
C980 N977 1.350 . S
C980 C979 1.434 . S
C981 C982 1.369 . S
C981 C983 1.419 . S
C981 H985 0.930 . S
C982 C981 1.369 . S
C982 C991 1.429 . S
C983 C981 1.419 . S
C983 C984 1.363 . S
C983 H986 0.929 . S
C984 C983 1.363 . S
C984 C990 1.428 . S
H985 C981 0.930 . S
H986 C983 0.929 . S
S987 N988 1.613 . S
S987 N989 1.610 . S
N988 S987 1.613 . S
N988 C991 1.350 . S
N989 S987 1.610 . S
N989 C990 1.351 . S
C990 C984 1.428 . S
C990 N989 1.351 . S
C990 C991 1.434 . S
C991 C982 1.429 . S
C991 N988 1.350 . S
C991 C990 1.434 . S
C992 C993 1.369 . S
C992 C994 1.419 . S
C992 H996 0.930 . S
C993 C992 1.369 . S
C993 C1002 1.429 . S
C994 C992 1.419 . S
C994 C995 1.363 . S
C994 H997 0.929 . S
C995 C994 1.363 . S
C995 C1001 1.428 . S
H996 C992 0.930 . S
H997 C994 0.929 . S
S998 N999 1.613 . S
S998 N1000 1.610 . S
N999 S998 1.613 . S
N999 C1002 1.350 . S
N1000 S998 1.610 . S
N1000 C1001 1.351 . S
C1001 C995 1.428 . S
C1001 N1000 1.351 . S
C1001 C1002 1.434 . S
C1002 C993 1.429 . S
C1002 N999 1.350 . S
C1002 C1001 1.434 . S
C1003 C1004 1.369 . S
C1003 C1005 1.419 . S
C1003 H1007 0.930 . S
C1004 C1003 1.369 . S
C1004 C1013 1.429 . S
C1005 C1003 1.419 . S
C1005 C1006 1.363 . S
C1005 H1008 0.929 . S
C1006 C1005 1.363 . S
C1006 C1012 1.428 . S
H1007 C1003 0.930 . S
H1008 C1005 0.929 . S
S1009 N1010 1.613 . S
S1009 N1011 1.610 . S
N1010 S1009 1.613 . S
N1010 C1013 1.350 . S
N1011 S1009 1.610 . S
N1011 C1012 1.351 . S
C1012 C1006 1.428 . S
C1012 N1011 1.351 . S
C1012 C1013 1.434 . S
C1013 C1004 1.429 . S
C1013 N1010 1.350 . S
C1013 C1012 1.434 . S
C1014 C1015 1.369 . S
C1014 C1016 1.419 . S
C1014 H1018 0.930 . S
C1015 C1014 1.369 . S
C1015 C1024 1.429 . S
C1016 C1014 1.419 . S
C1016 C1017 1.363 . S
C1016 H1019 0.929 . S
C1017 C1016 1.363 . S
C1017 C1023 1.428 . S
H1018 C1014 0.930 . S
H1019 C1016 0.929 . S
S1020 N1021 1.613 . S
S1020 N1022 1.610 . S
N1021 S1020 1.613 . S
N1021 C1024 1.350 . S
N1022 S1020 1.610 . S
N1022 C1023 1.351 . S
C1023 C1017 1.428 . S
C1023 N1022 1.351 . S
C1023 C1024 1.434 . S
C1024 C1015 1.429 . S
C1024 N1021 1.350 . S
C1024 C1023 1.434 . S
C1025 C1026 1.369 . S
C1025 C1027 1.419 . S
C1025 H1029 0.930 . S
C1026 C1025 1.369 . S
C1026 C1035 1.429 . S
C1027 C1025 1.419 . S
C1027 C1028 1.363 . S
C1027 H1030 0.929 . S
C1028 C1027 1.363 . S
C1028 C1034 1.428 . S
H1029 C1025 0.930 . S
H1030 C1027 0.929 . S
S1031 N1032 1.613 . S
S1031 N1033 1.610 . S
N1032 S1031 1.613 . S
N1032 C1035 1.350 . S
N1033 S1031 1.610 . S
N1033 C1034 1.351 . S
C1034 C1028 1.428 . S
C1034 N1033 1.351 . S
C1034 C1035 1.434 . S
C1035 C1026 1.429 . S
C1035 N1032 1.350 . S
C1035 C1034 1.434 . S
C1036 C1037 1.369 . S
C1036 C1038 1.419 . S
C1036 H1040 0.930 . S
C1037 C1036 1.369 . S
C1037 C1046 1.429 . S
C1038 C1036 1.419 . S
C1038 C1039 1.363 . S
C1038 H1041 0.929 . S
C1039 C1038 1.363 . S
C1039 C1045 1.428 . S
H1040 C1036 0.930 . S
H1041 C1038 0.929 . S
S1042 N1043 1.613 . S
S1042 N1044 1.610 . S
N1043 S1042 1.613 . S
N1043 C1046 1.350 . S
N1044 S1042 1.610 . S
N1044 C1045 1.351 . S
C1045 C1039 1.428 . S
C1045 N1044 1.351 . S
C1045 C1046 1.434 . S
C1046 C1037 1.429 . S
C1046 N1043 1.350 . S
C1046 C1045 1.434 . S
C1047 C1048 1.369 . S
C1047 C1049 1.419 . S
C1047 H1051 0.930 . S
C1048 C1047 1.369 . S
C1048 C1057 1.429 . S
C1049 C1047 1.419 . S
C1049 C1050 1.363 . S
C1049 H1052 0.929 . S
C1050 C1049 1.363 . S
C1050 C1056 1.428 . S
H1051 C1047 0.930 . S
H1052 C1049 0.929 . S
S1053 N1054 1.613 . S
S1053 N1055 1.610 . S
N1054 S1053 1.613 . S
N1054 C1057 1.350 . S
N1055 S1053 1.610 . S
N1055 C1056 1.351 . S
C1056 C1050 1.428 . S
C1056 N1055 1.351 . S
C1056 C1057 1.434 . S
C1057 C1048 1.429 . S
C1057 N1054 1.350 . S
C1057 C1056 1.434 . S
C1058 C1059 1.369 . S
C1058 C1060 1.419 . S
C1058 H1062 0.930 . S
C1059 C1058 1.369 . S
C1059 C1068 1.429 . S
C1060 C1058 1.419 . S
C1060 C1061 1.363 . S
C1060 H1063 0.929 . S
C1061 C1060 1.363 . S
C1061 C1067 1.428 . S
H1062 C1058 0.930 . S
H1063 C1060 0.929 . S
S1064 N1065 1.613 . S
S1064 N1066 1.610 . S
N1065 S1064 1.613 . S
N1065 C1068 1.350 . S
N1066 S1064 1.610 . S
N1066 C1067 1.351 . S
C1067 C1061 1.428 . S
C1067 N1066 1.351 . S
C1067 C1068 1.434 . S
C1068 C1059 1.429 . S
C1068 N1065 1.350 . S
C1068 C1067 1.434 . S
C1069 C1070 1.369 . S
C1069 C1071 1.419 . S
C1069 H1073 0.930 . S
C1070 C1069 1.369 . S
C1070 C1079 1.429 . S
C1071 C1069 1.419 . S
C1071 C1072 1.363 . S
C1071 H1074 0.929 . S
C1072 C1071 1.363 . S
C1072 C1078 1.428 . S
H1073 C1069 0.930 . S
H1074 C1071 0.929 . S
S1075 N1076 1.613 . S
S1075 N1077 1.610 . S
N1076 S1075 1.613 . S
N1076 C1079 1.350 . S
N1077 S1075 1.610 . S
N1077 C1078 1.351 . S
C1078 C1072 1.428 . S
C1078 N1077 1.351 . S
C1078 C1079 1.434 . S
C1079 C1070 1.429 . S
C1079 N1076 1.350 . S
C1079 C1078 1.434 . S
C1080 C1081 1.369 . S
C1080 C1082 1.419 . S
C1080 H1084 0.930 . S
C1081 C1080 1.369 . S
C1081 C1090 1.429 . S
C1082 C1080 1.419 . S
C1082 C1083 1.363 . S
C1082 H1085 0.929 . S
C1083 C1082 1.363 . S
C1083 C1089 1.428 . S
H1084 C1080 0.930 . S
H1085 C1082 0.929 . S
S1086 N1087 1.613 . S
S1086 N1088 1.610 . S
N1087 S1086 1.613 . S
N1087 C1090 1.350 . S
N1088 S1086 1.610 . S
N1088 C1089 1.351 . S
C1089 C1083 1.428 . S
C1089 N1088 1.351 . S
C1089 C1090 1.434 . S
C1090 C1081 1.429 . S
C1090 N1087 1.350 . S
C1090 C1089 1.434 . S
C1091 C1092 1.369 . S
C1091 C1093 1.419 . S
C1091 H1095 0.930 . S
C1092 C1091 1.369 . S
C1092 C1101 1.429 . S
C1093 C1091 1.419 . S
C1093 C1094 1.363 . S
C1093 H1096 0.929 . S
C1094 C1093 1.363 . S
C1094 C1100 1.428 . S
H1095 C1091 0.930 . S
H1096 C1093 0.929 . S
S1097 N1098 1.613 . S
S1097 N1099 1.610 . S
N1098 S1097 1.613 . S
N1098 C1101 1.350 . S
N1099 S1097 1.610 . S
N1099 C1100 1.351 . S
C1100 C1094 1.428 . S
C1100 N1099 1.351 . S
C1100 C1101 1.434 . S
C1101 C1092 1.429 . S
C1101 N1098 1.350 . S
C1101 C1100 1.434 . S
C1102 C1103 1.369 . S
C1102 C1104 1.419 . S
C1102 H1106 0.930 . S
C1103 C1102 1.369 . S
C1103 C1112 1.429 . S
C1104 C1102 1.419 . S
C1104 C1105 1.363 . S
C1104 H1107 0.929 . S
C1105 C1104 1.363 . S
C1105 C1111 1.428 . S
H1106 C1102 0.930 . S
H1107 C1104 0.929 . S
S1108 N1109 1.613 . S
S1108 N1110 1.610 . S
N1109 S1108 1.613 . S
N1109 C1112 1.350 . S
N1110 S1108 1.610 . S
N1110 C1111 1.351 . S
C1111 C1105 1.428 . S
C1111 N1110 1.351 . S
C1111 C1112 1.434 . S
C1112 C1103 1.429 . S
C1112 N1109 1.350 . S
C1112 C1111 1.434 . S
C1113 C1114 1.369 . S
C1113 C1115 1.419 . S
C1113 H1117 0.930 . S
C1114 C1113 1.369 . S
C1114 C1123 1.429 . S
C1115 C1113 1.419 . S
C1115 C1116 1.363 . S
C1115 H1118 0.929 . S
C1116 C1115 1.363 . S
C1116 C1122 1.428 . S
H1117 C1113 0.930 . S
H1118 C1115 0.929 . S
S1119 N1120 1.613 . S
S1119 N1121 1.610 . S
N1120 S1119 1.613 . S
N1120 C1123 1.350 . S
N1121 S1119 1.610 . S
N1121 C1122 1.351 . S
C1122 C1116 1.428 . S
C1122 N1121 1.351 . S
C1122 C1123 1.434 . S
C1123 C1114 1.429 . S
C1123 N1120 1.350 . S
C1123 C1122 1.434 . S
C1124 C1125 1.369 . S
C1124 C1126 1.419 . S
C1124 H1128 0.930 . S
C1125 C1124 1.369 . S
C1125 C1134 1.429 . S
C1126 C1124 1.419 . S
C1126 C1127 1.363 . S
C1126 H1129 0.929 . S
C1127 C1126 1.363 . S
C1127 C1133 1.428 . S
H1128 C1124 0.930 . S
H1129 C1126 0.929 . S
S1130 N1131 1.613 . S
S1130 N1132 1.610 . S
N1131 S1130 1.613 . S
N1131 C1134 1.350 . S
N1132 S1130 1.610 . S
N1132 C1133 1.351 . S
C1133 C1127 1.428 . S
C1133 N1132 1.351 . S
C1133 C1134 1.434 . S
C1134 C1125 1.429 . S
C1134 N1131 1.350 . S
C1134 C1133 1.434 . S
C1135 C1136 1.369 . S
C1135 C1137 1.419 . S
C1135 H1139 0.930 . S
C1136 C1135 1.369 . S
C1136 C1145 1.429 . S
C1137 C1135 1.419 . S
C1137 C1138 1.363 . S
C1137 H1140 0.929 . S
C1138 C1137 1.363 . S
C1138 C1144 1.428 . S
H1139 C1135 0.930 . S
H1140 C1137 0.929 . S
S1141 N1142 1.613 . S
S1141 N1143 1.610 . S
N1142 S1141 1.613 . S
N1142 C1145 1.350 . S
N1143 S1141 1.610 . S
N1143 C1144 1.351 . S
C1144 C1138 1.428 . S
C1144 N1143 1.351 . S
C1144 C1145 1.434 . S
C1145 C1136 1.429 . S
C1145 N1142 1.350 . S
C1145 C1144 1.434 . S
C1146 C1147 1.369 . S
C1146 C1148 1.419 . S
C1146 H1150 0.930 . S
C1147 C1146 1.369 . S
C1147 C1156 1.429 . S
C1148 C1146 1.419 . S
C1148 C1149 1.363 . S
C1148 H1151 0.929 . S
C1149 C1148 1.363 . S
C1149 C1155 1.428 . S
H1150 C1146 0.930 . S
H1151 C1148 0.929 . S
S1152 N1153 1.613 . S
S1152 N1154 1.610 . S
N1153 S1152 1.613 . S
N1153 C1156 1.350 . S
N1154 S1152 1.610 . S
N1154 C1155 1.351 . S
C1155 C1149 1.428 . S
C1155 N1154 1.351 . S
C1155 C1156 1.434 . S
C1156 C1147 1.429 . S
C1156 N1153 1.350 . S
C1156 C1155 1.434 . S
C1157 C1158 1.369 . S
C1157 C1159 1.419 . S
C1157 H1161 0.930 . S
C1158 C1157 1.369 . S
C1158 C1167 1.429 . S
C1159 C1157 1.419 . S
C1159 C1160 1.363 . S
C1159 H1162 0.929 . S
C1160 C1159 1.363 . S
C1160 C1166 1.428 . S
H1161 C1157 0.930 . S
H1162 C1159 0.929 . S
S1163 N1164 1.613 . S
S1163 N1165 1.610 . S
N1164 S1163 1.613 . S
N1164 C1167 1.350 . S
N1165 S1163 1.610 . S
N1165 C1166 1.351 . S
C1166 C1160 1.428 . S
C1166 N1165 1.351 . S
C1166 C1167 1.434 . S
C1167 C1158 1.429 . S
C1167 N1164 1.350 . S
C1167 C1166 1.434 . S
C641 C12 1.606 . S
C643 C372 1.603 . S
C652 C52 1.602 . S
C654 C332 1.606 . S
C663 C452 1.606 . S
C665 C92 1.603 . S
C674 C132 1.603 . S
C676 C412 1.606 . S
C685 C551 1.605 . S
C687 C191 1.603 . S
C696 C511 1.606 . S
C698 C231 1.603 . S
C707 C631 1.606 . S
C709 C271 1.604 . S
C718 C311 1.604 . S
C720 C591 1.605 . S
C729 C82 1.779 . S
C731 C2 1.778 . S
C740 C122 1.782 . S
C742 C42 1.780 . S
C751 C257 1.780 . S
C753 C177 1.781 . S
C762 C217 1.781 . S
C764 C297 1.779 . S
C773 C402 1.781 . S
C775 C322 1.779 . S
C784 C442 1.782 . S
C786 C362 1.781 . S
C795 C497 1.780 . S
C797 C577 1.781 . S
C806 C537 1.782 . S
C808 C617 1.781 . S
C817 C202 1.539 . S
C819 C17 1.539 . S
C828 C162 1.544 . S
C830 C57 1.543 . S
C839 C97 1.541 . S
C841 C282 1.541 . S
C850 C242 1.536 . S
C852 C137 1.537 . S
C861 C337 1.542 . S
C863 C522 1.542 . S
C872 C482 1.544 . S
C874 C377 1.543 . S
C883 C417 1.539 . S
C885 C602 1.539 . S
C894 C562 1.541 . S
C896 C457 1.541 . S
C905 C71 1.633 . S
C907 C31 1.639 . S
C916 C151 1.635 . S
C918 C111 1.638 . S
C927 C212 1.638 . S
C929 C172 1.635 . S
C938 C252 1.633 . S
C940 C292 1.640 . S
C949 C391 1.635 . S
C951 C351 1.638 . S
C960 C471 1.640 . S
C962 C431 1.635 . S
C971 C492 1.641 . S
C973 C532 1.634 . S
C982 C572 1.633 . S
C984 C612 1.639 . S
C993 C8 1.466 . S
C995 C29 1.464 . S
C1004 C48 1.466 . S
C1006 C69 1.464 . S
C1015 C88 1.462 . S
C1017 C109 1.466 . S
C1026 C149 1.468 . S
C1028 C128 1.462 . S
C1037 C189 1.463 . S
C1039 C168 1.466 . S
C1048 C208 1.468 . S
C1050 C229 1.462 . S
C1059 C269 1.463 . S
C1061 C248 1.466 . S
C1070 C309 1.465 . S
C1072 C288 1.464 . S
C1081 C349 1.461 1_545 S
C1083 C328 1.468 . S
C1092 C368 1.465 . S
C1094 C389 1.465 1_565 S
C1103 C429 1.461 1_565 S
C1105 C408 1.468 . S
C1114 C469 1.468 1_545 S
C1116 C448 1.462 . S
C1125 C509 1.463 . S
C1127 C488 1.466 1_565 S
C1136 C549 1.468 . S
C1138 C528 1.462 1_545 S
C1147 C568 1.466 1_545 S
C1149 C589 1.463 . S
C1158 C629 1.467 . S
C1160 C608 1.463 1_565 S
