# Generated by pormake.
# Topology som, (6)-cn, num edge types: 1
# Building blocks:
#     Node 0, Type 0, BuildingBlock: BETFEN_clean_sbu_0, # of connection points: 6
#     Node 1, Type 0, BuildingBlock: BETFEN_clean_sbu_0, # of connection points: 6
#     Node 2, Type 0, BuildingBlock: BETFEN_clean_sbu_0, # of connection points: 6
#     Node 3, Type 0, BuildingBlock: BETFEN_clean_sbu_0, # of connection points: 6
#     Node 4, Type 0, BuildingBlock: BETFEN_clean_sbu_0, # of connection points: 6
#     Node 5, Type 0, BuildingBlock: BETFEN_clean_sbu_0, # of connection points: 6
#     Node 6, Type 0, BuildingBlock: BETFEN_clean_sbu_0, # of connection points: 6
#     Node 7, Type 0, BuildingBlock: BETFEN_clean_sbu_0, # of connection points: 6
#     Node 8, Type 0, BuildingBlock: BETFEN_clean_sbu_0, # of connection points: 6
#     Node 9, Type 0, BuildingBlock: BETFEN_clean_sbu_0, # of connection points: 6
#     Node 10, Type 0, BuildingBlock: BETFEN_clean_sbu_0, # of connection points: 6
#     Node 11, Type 0, BuildingBlock: BETFEN_clean_sbu_0, # of connection points: 6
#     Node 12, Type 0, BuildingBlock: BETFEN_clean_sbu_0, # of connection points: 6
#     Node 13, Type 0, BuildingBlock: BETFEN_clean_sbu_0, # of connection points: 6
#     Node 14, Type 0, BuildingBlock: BETFEN_clean_sbu_0, # of connection points: 6
#     Node 15, Type 0, BuildingBlock: BETFEN_clean_sbu_0, # of connection points: 6
#     Node 16, Type 0, BuildingBlock: BETFEN_clean_sbu_0, # of connection points: 6
#     Node 17, Type 0, BuildingBlock: BETFEN_clean_sbu_0, # of connection points: 6
#     Node 18, Type 0, BuildingBlock: BETFEN_clean_sbu_0, # of connection points: 6
#     Node 19, Type 0, BuildingBlock: BETFEN_clean_sbu_0, # of connection points: 6
#     Node 20, Type 0, BuildingBlock: BETFEN_clean_sbu_0, # of connection points: 6
#     Node 21, Type 0, BuildingBlock: BETFEN_clean_sbu_0, # of connection points: 6
#     Node 22, Type 0, BuildingBlock: BETFEN_clean_sbu_0, # of connection points: 6
#     Node 23, Type 0, BuildingBlock: BETFEN_clean_sbu_0, # of connection points: 6
#     Node 24, Type 0, BuildingBlock: BETFEN_clean_sbu_0, # of connection points: 6
#     Node 25, Type 0, BuildingBlock: BETFEN_clean_sbu_0, # of connection points: 6
#     Node 26, Type 0, BuildingBlock: BETFEN_clean_sbu_0, # of connection points: 6
#     Node 27, Type 0, BuildingBlock: BETFEN_clean_sbu_0, # of connection points: 6
#     Node 28, Type 0, BuildingBlock: BETFEN_clean_sbu_0, # of connection points: 6
#     Node 29, Type 0, BuildingBlock: BETFEN_clean_sbu_0, # of connection points: 6
#     Node 30, Type 0, BuildingBlock: BETFEN_clean_sbu_0, # of connection points: 6
#     Node 31, Type 0, BuildingBlock: BETFEN_clean_sbu_0, # of connection points: 6
#     Edge 32, Type (0, 0), BuildingBlock: KIFKEQ_clean_linker_1, # of connection points: 2
#     Edge 33, Type (0, 0), BuildingBlock: KIFKEQ_clean_linker_1, # of connection points: 2
#     Edge 34, Type (0, 0), BuildingBlock: KIFKEQ_clean_linker_1, # of connection points: 2
#     Edge 35, Type (0, 0), BuildingBlock: KIFKEQ_clean_linker_1, # of connection points: 2
#     Edge 36, Type (0, 0), BuildingBlock: KIFKEQ_clean_linker_1, # of connection points: 2
#     Edge 37, Type (0, 0), BuildingBlock: KIFKEQ_clean_linker_1, # of connection points: 2
#     Edge 38, Type (0, 0), BuildingBlock: KIFKEQ_clean_linker_1, # of connection points: 2
#     Edge 39, Type (0, 0), BuildingBlock: KIFKEQ_clean_linker_1, # of connection points: 2
#     Edge 40, Type (0, 0), BuildingBlock: KIFKEQ_clean_linker_1, # of connection points: 2
#     Edge 41, Type (0, 0), BuildingBlock: KIFKEQ_clean_linker_1, # of connection points: 2
#     Edge 42, Type (0, 0), BuildingBlock: KIFKEQ_clean_linker_1, # of connection points: 2
#     Edge 43, Type (0, 0), BuildingBlock: KIFKEQ_clean_linker_1, # of connection points: 2
#     Edge 44, Type (0, 0), BuildingBlock: KIFKEQ_clean_linker_1, # of connection points: 2
#     Edge 45, Type (0, 0), BuildingBlock: KIFKEQ_clean_linker_1, # of connection points: 2
#     Edge 46, Type (0, 0), BuildingBlock: KIFKEQ_clean_linker_1, # of connection points: 2
#     Edge 47, Type (0, 0), BuildingBlock: KIFKEQ_clean_linker_1, # of connection points: 2
#     Edge 48, Type (0, 0), BuildingBlock: KIFKEQ_clean_linker_1, # of connection points: 2
#     Edge 49, Type (0, 0), BuildingBlock: KIFKEQ_clean_linker_1, # of connection points: 2
#     Edge 50, Type (0, 0), BuildingBlock: KIFKEQ_clean_linker_1, # of connection points: 2
#     Edge 51, Type (0, 0), BuildingBlock: KIFKEQ_clean_linker_1, # of connection points: 2
#     Edge 52, Type (0, 0), BuildingBlock: KIFKEQ_clean_linker_1, # of connection points: 2
#     Edge 53, Type (0, 0), BuildingBlock: KIFKEQ_clean_linker_1, # of connection points: 2
#     Edge 54, Type (0, 0), BuildingBlock: KIFKEQ_clean_linker_1, # of connection points: 2
#     Edge 55, Type (0, 0), BuildingBlock: KIFKEQ_clean_linker_1, # of connection points: 2
#     Edge 56, Type (0, 0), BuildingBlock: KIFKEQ_clean_linker_1, # of connection points: 2
#     Edge 57, Type (0, 0), BuildingBlock: KIFKEQ_clean_linker_1, # of connection points: 2
#     Edge 58, Type (0, 0), BuildingBlock: KIFKEQ_clean_linker_1, # of connection points: 2
#     Edge 59, Type (0, 0), BuildingBlock: KIFKEQ_clean_linker_1, # of connection points: 2
#     Edge 60, Type (0, 0), BuildingBlock: KIFKEQ_clean_linker_1, # of connection points: 2
#     Edge 61, Type (0, 0), BuildingBlock: KIFKEQ_clean_linker_1, # of connection points: 2
#     Edge 62, Type (0, 0), BuildingBlock: KIFKEQ_clean_linker_1, # of connection points: 2
#     Edge 63, Type (0, 0), BuildingBlock: KIFKEQ_clean_linker_1, # of connection points: 2
#     Edge 64, Type (0, 0), BuildingBlock: KIFKEQ_clean_linker_1, # of connection points: 2
#     Edge 65, Type (0, 0), BuildingBlock: KIFKEQ_clean_linker_1, # of connection points: 2
#     Edge 66, Type (0, 0), BuildingBlock: KIFKEQ_clean_linker_1, # of connection points: 2
#     Edge 67, Type (0, 0), BuildingBlock: KIFKEQ_clean_linker_1, # of connection points: 2
#     Edge 68, Type (0, 0), BuildingBlock: KIFKEQ_clean_linker_1, # of connection points: 2
#     Edge 69, Type (0, 0), BuildingBlock: KIFKEQ_clean_linker_1, # of connection points: 2
#     Edge 70, Type (0, 0), BuildingBlock: KIFKEQ_clean_linker_1, # of connection points: 2
#     Edge 71, Type (0, 0), BuildingBlock: KIFKEQ_clean_linker_1, # of connection points: 2
#     Edge 72, Type (0, 0), BuildingBlock: KIFKEQ_clean_linker_1, # of connection points: 2
#     Edge 73, Type (0, 0), BuildingBlock: KIFKEQ_clean_linker_1, # of connection points: 2
#     Edge 74, Type (0, 0), BuildingBlock: KIFKEQ_clean_linker_1, # of connection points: 2
#     Edge 75, Type (0, 0), BuildingBlock: KIFKEQ_clean_linker_1, # of connection points: 2
#     Edge 76, Type (0, 0), BuildingBlock: KIFKEQ_clean_linker_1, # of connection points: 2
#     Edge 77, Type (0, 0), BuildingBlock: KIFKEQ_clean_linker_1, # of connection points: 2
#     Edge 78, Type (0, 0), BuildingBlock: KIFKEQ_clean_linker_1, # of connection points: 2
#     Edge 79, Type (0, 0), BuildingBlock: KIFKEQ_clean_linker_1, # of connection points: 2
#     Edge 80, Type (0, 0), BuildingBlock: KIFKEQ_clean_linker_1, # of connection points: 2
#     Edge 81, Type (0, 0), BuildingBlock: KIFKEQ_clean_linker_1, # of connection points: 2
#     Edge 82, Type (0, 0), BuildingBlock: KIFKEQ_clean_linker_1, # of connection points: 2
#     Edge 83, Type (0, 0), BuildingBlock: KIFKEQ_clean_linker_1, # of connection points: 2
#     Edge 84, Type (0, 0), BuildingBlock: KIFKEQ_clean_linker_1, # of connection points: 2
#     Edge 85, Type (0, 0), BuildingBlock: KIFKEQ_clean_linker_1, # of connection points: 2
#     Edge 86, Type (0, 0), BuildingBlock: KIFKEQ_clean_linker_1, # of connection points: 2
#     Edge 87, Type (0, 0), BuildingBlock: KIFKEQ_clean_linker_1, # of connection points: 2
#     Edge 88, Type (0, 0), BuildingBlock: KIFKEQ_clean_linker_1, # of connection points: 2
#     Edge 89, Type (0, 0), BuildingBlock: KIFKEQ_clean_linker_1, # of connection points: 2
#     Edge 90, Type (0, 0), BuildingBlock: KIFKEQ_clean_linker_1, # of connection points: 2
#     Edge 91, Type (0, 0), BuildingBlock: KIFKEQ_clean_linker_1, # of connection points: 2
#     Edge 92, Type (0, 0), BuildingBlock: KIFKEQ_clean_linker_1, # of connection points: 2
#     Edge 93, Type (0, 0), BuildingBlock: KIFKEQ_clean_linker_1, # of connection points: 2
#     Edge 94, Type (0, 0), BuildingBlock: KIFKEQ_clean_linker_1, # of connection points: 2
#     Edge 95, Type (0, 0), BuildingBlock: KIFKEQ_clean_linker_1, # of connection points: 2
#     Edge 96, Type (0, 0), BuildingBlock: KIFKEQ_clean_linker_1, # of connection points: 2
#     Edge 97, Type (0, 0), BuildingBlock: KIFKEQ_clean_linker_1, # of connection points: 2
#     Edge 98, Type (0, 0), BuildingBlock: KIFKEQ_clean_linker_1, # of connection points: 2
#     Edge 99, Type (0, 0), BuildingBlock: KIFKEQ_clean_linker_1, # of connection points: 2
#     Edge 100, Type (0, 0), BuildingBlock: KIFKEQ_clean_linker_1, # of connection points: 2
#     Edge 101, Type (0, 0), BuildingBlock: KIFKEQ_clean_linker_1, # of connection points: 2
#     Edge 102, Type (0, 0), BuildingBlock: KIFKEQ_clean_linker_1, # of connection points: 2
#     Edge 103, Type (0, 0), BuildingBlock: KIFKEQ_clean_linker_1, # of connection points: 2
#     Edge 104, Type (0, 0), BuildingBlock: KIFKEQ_clean_linker_1, # of connection points: 2
#     Edge 105, Type (0, 0), BuildingBlock: KIFKEQ_clean_linker_1, # of connection points: 2
#     Edge 106, Type (0, 0), BuildingBlock: KIFKEQ_clean_linker_1, # of connection points: 2
#     Edge 107, Type (0, 0), BuildingBlock: KIFKEQ_clean_linker_1, # of connection points: 2
#     Edge 108, Type (0, 0), BuildingBlock: KIFKEQ_clean_linker_1, # of connection points: 2
#     Edge 109, Type (0, 0), BuildingBlock: KIFKEQ_clean_linker_1, # of connection points: 2
#     Edge 110, Type (0, 0), BuildingBlock: KIFKEQ_clean_linker_1, # of connection points: 2
#     Edge 111, Type (0, 0), BuildingBlock: KIFKEQ_clean_linker_1, # of connection points: 2
#     Edge 112, Type (0, 0), BuildingBlock: KIFKEQ_clean_linker_1, # of connection points: 2
#     Edge 113, Type (0, 0), BuildingBlock: KIFKEQ_clean_linker_1, # of connection points: 2
#     Edge 114, Type (0, 0), BuildingBlock: KIFKEQ_clean_linker_1, # of connection points: 2
#     Edge 115, Type (0, 0), BuildingBlock: KIFKEQ_clean_linker_1, # of connection points: 2
#     Edge 116, Type (0, 0), BuildingBlock: KIFKEQ_clean_linker_1, # of connection points: 2
#     Edge 117, Type (0, 0), BuildingBlock: KIFKEQ_clean_linker_1, # of connection points: 2
#     Edge 118, Type (0, 0), BuildingBlock: KIFKEQ_clean_linker_1, # of connection points: 2
#     Edge 119, Type (0, 0), BuildingBlock: KIFKEQ_clean_linker_1, # of connection points: 2
#     Edge 120, Type (0, 0), BuildingBlock: KIFKEQ_clean_linker_1, # of connection points: 2
#     Edge 121, Type (0, 0), BuildingBlock: KIFKEQ_clean_linker_1, # of connection points: 2
#     Edge 122, Type (0, 0), BuildingBlock: KIFKEQ_clean_linker_1, # of connection points: 2
#     Edge 123, Type (0, 0), BuildingBlock: KIFKEQ_clean_linker_1, # of connection points: 2
#     Edge 124, Type (0, 0), BuildingBlock: KIFKEQ_clean_linker_1, # of connection points: 2
#     Edge 125, Type (0, 0), BuildingBlock: KIFKEQ_clean_linker_1, # of connection points: 2
#     Edge 126, Type (0, 0), BuildingBlock: KIFKEQ_clean_linker_1, # of connection points: 2
#     Edge 127, Type (0, 0), BuildingBlock: KIFKEQ_clean_linker_1, # of connection points: 2
# Relax obj value: 0.064
# Max RMSD: 0.128
# Mean RMSD: 0.128
data_MOF--net-som--node1-BETFEN_clean_sbu_0--edge1-KIFKEQ_clean_linker_1
_symmetry_space_group_name_H-M    P1
_symmetry_Int_Tables_number       1
_symmetry_cell_setting            triclinic
loop_
_symmetry_equiv_pos_as_xyz
'x, y, z'
_cell_length_a     26.386218
_cell_length_b     56.939966
_cell_length_c     114.03824
_cell_angle_alpha  89.984597
_cell_angle_beta   89.97162
_cell_angle_gamma 90.041035
loop_
_atom_site_label
_atom_site_type_symbol
_atom_site_fract_x
_atom_site_fract_y
_atom_site_fract_z
_atom_type_partial_charge
Pr0 Pr 0.98644 0.50213 0.0834 0.0
Pr1 Pr 0.09595 0.47697 0.08379 0.0
C2 C 0.88955 0.51674 0.08062 0.0
C3 C 0.83582 0.50921 0.08047 0.0
C4 C 0.81839 0.49017 0.08719 0.0
C5 C 0.76655 0.48453 0.08747 0.0
C6 C 0.73105 0.49781 0.08102 0.0
C7 C 0.74911 0.51658 0.07413 0.0
C8 C 0.80079 0.52218 0.07387 0.0
C9 C 0.04035 0.50218 0.10459 0.0
C10 C 0.99249 0.44391 0.08632 0.0
C11 C 0.188 0.46367 0.09173 0.0
C12 C 0.24316 0.46688 0.08997 0.0
C13 C 0.2638 0.47303 0.07904 0.0
C14 C 0.31638 0.47612 0.07775 0.0
C15 C 0.34931 0.47325 0.08738 0.0
C16 C 0.32816 0.46704 0.0983 0.0
C17 C 0.2758 0.46393 0.09956 0.0
C18 C 0.06535 0.48194 0.06035 0.0
C19 C 0.08351 0.53471 0.07793 0.0
O20 O 0.91844 0.51039 0.07184 0.0
O21 O 0.9131 0.51657 0.09071 0.0
O22 O 0.03588 0.48503 0.09767 0.0
O23 O 1.01627 0.52052 0.10066 0.0
O24 O 0.04261 0.44449 0.08727 0.0
O25 O 0.9649 0.46271 0.08417 0.0
O26 O 0.16293 0.48159 0.096 0.0
O27 O 0.16262 0.45187 0.08378 0.0
O28 O 0.04074 0.48841 0.06931 0.0
O29 O 0.10759 0.47203 0.06349 0.0
O30 O 0.03524 0.53155 0.07549 0.0
O31 O 0.11207 0.51791 0.08258 0.0
H32 H 0.84473 0.47984 0.09234 0.0
H33 H 0.7543 0.46976 0.09274 0.0
H34 H 0.72312 0.52744 0.06918 0.0
H35 H 0.81332 0.53702 0.06867 0.0
H36 H 0.2393 0.47557 0.07152 0.0
H37 H 0.33112 0.48115 0.06924 0.0
H38 H 0.35215 0.46431 0.10587 0.0
H39 H 0.26072 0.45916 0.10808 0.0
Pr40 Pr 0.30091 0.73679 0.08108 0.0
Pr41 Pr 0.1899 0.75978 0.08129 0.0
C42 C 0.39937 0.72401 0.07984 0.0
C43 C 0.45194 0.73185 0.0776 0.0
C44 C 0.4693 0.75396 0.08133 0.0
C45 C 0.52096 0.75962 0.08066 0.0
C46 C 0.55631 0.74331 0.07625 0.0
C47 C 0.53826 0.7216 0.07206 0.0
C48 C 0.48669 0.71596 0.07275 0.0
C49 C 0.24753 0.73685 0.10242 0.0
C50 C 0.28964 0.79452 0.08107 0.0
C51 C 0.09775 0.77322 0.08905 0.0
C52 C 0.04293 0.77086 0.08683 0.0
C53 C 0.02422 0.76065 0.0765 0.0
C54 C 0.97179 0.75802 0.07483 0.0
C55 C 0.93723 0.76543 0.08351 0.0
C56 C 0.9565 0.77582 0.09379 0.0
C57 C 1.00872 0.77846 0.09542 0.0
C58 C 0.22029 0.75463 0.05786 0.0
C59 C 0.20694 0.70175 0.07665 0.0
O60 O 0.36822 0.72188 0.07095 0.0
O61 O 0.37753 0.73175 0.08938 0.0
O62 O 0.25022 0.75366 0.09525 0.0
O63 O 0.27359 0.71899 0.09871 0.0
O64 O 0.24204 0.79267 0.08465 0.0
O65 O 0.31658 0.77628 0.07769 0.0
O66 O 0.12124 0.75446 0.09288 0.0
O67 O 0.12451 0.78556 0.08155 0.0
O68 O 0.24576 0.74888 0.0668 0.0
O69 O 0.17728 0.76379 0.06099 0.0
O70 O 0.25507 0.70541 0.0742 0.0
O71 O 0.17694 0.71855 0.08081 0.0
H72 H 0.4432 0.76658 0.08507 0.0
H73 H 0.53332 0.77664 0.08379 0.0
H74 H 0.56427 0.70851 0.06872 0.0
H75 H 0.47421 0.69874 0.0699 0.0
H76 H 0.05012 0.75454 0.06979 0.0
H77 H 0.95839 0.74974 0.06687 0.0
H78 H 0.93118 0.78209 0.10058 0.0
H79 H 1.02245 0.78639 0.10345 0.0
Pr80 Pr 0.97893 0.73154 0.19768 0.0
Pr81 Pr 0.08147 0.75555 0.19913 0.0
C82 C 0.88135 0.7169 0.19906 0.0
C83 C 0.82726 0.72428 0.19886 0.0
C84 C 0.79681 0.71848 0.18917 0.0
C85 C 0.74473 0.72322 0.18921 0.0
C86 C 0.7215 0.73377 0.199 0.0
C87 C 0.75216 0.73992 0.20863 0.0
C88 C 0.80437 0.73523 0.20857 0.0
C89 C 0.03225 0.73409 0.17639 0.0
C90 C 0.98311 0.78933 0.19649 0.0
C91 C 0.17848 0.7699 0.1961 0.0
C92 C 0.23267 0.76382 0.19778 0.0
C93 C 0.26511 0.78024 0.20307 0.0
C94 C 0.31729 0.77601 0.20384 0.0
C95 C 0.33847 0.75524 0.19928 0.0
C96 C 0.30569 0.73856 0.19419 0.0
C97 C 0.25339 0.74278 0.19346 0.0
C98 C 0.03319 0.75219 0.22089 0.0
C99 C 0.07276 0.69672 0.20177 0.0
O100 O 0.9089 0.72212 0.20824 0.0
O101 O 0.90687 0.7178 0.18924 0.0
O102 O 0.02775 0.75065 0.18368 0.0
O103 O 1.00779 0.71555 0.17986 0.0
O104 O 0.03163 0.78786 0.19374 0.0
O105 O 0.95759 0.7708 0.20001 0.0
O106 O 0.15275 0.7583 0.18819 0.0
O107 O 0.15159 0.77526 0.20536 0.0
O108 O 0.03455 0.73589 0.21331 0.0
O109 O 0.05718 0.77076 0.21726 0.0
O110 O 0.0235 0.69873 0.20304 0.0
O111 O 0.10217 0.71501 0.19947 0.0
H112 H 0.81308 0.70971 0.18163 0.0
H113 H 0.7224 0.71791 0.18171 0.0
H114 H 0.73579 0.74832 0.21626 0.0
H115 H 0.82654 0.73983 0.21622 0.0
H116 H 0.25021 0.79669 0.20638 0.0
H117 H 0.34125 0.7894 0.20768 0.0
H118 H 0.32046 0.72222 0.19074 0.0
H119 H 0.22937 0.72974 0.18934 0.0
Pr120 Pr 0.30454 0.49851 0.20082 0.0
Pr121 Pr 0.19649 0.47454 0.20152 0.0
C122 C 0.40312 0.51143 0.20053 0.0
C123 C 0.45594 0.50459 0.20322 0.0
C124 C 0.49104 0.52211 0.20618 0.0
C125 C 0.54259 0.51678 0.20733 0.0
C126 C 0.56035 0.49375 0.20552 0.0
C127 C 0.52471 0.47604 0.20293 0.0
C128 C 0.47303 0.48139 0.20179 0.0
C129 C 0.24807 0.49867 0.17995 0.0
C130 C 0.29643 0.44084 0.20202 0.0
C131 C 0.10261 0.46135 0.19478 0.0
C132 C 0.04798 0.46506 0.1975 0.0
C133 C 1.01953 0.44721 0.20291 0.0
C134 C 0.96728 0.44987 0.20475 0.0
C135 C 0.94199 0.47043 0.20116 0.0
C136 C 0.97068 0.48838 0.19585 0.0
C137 C 0.02288 0.48574 0.19403 0.0
C138 C 0.22797 0.4802 0.22484 0.0
C139 C 0.21113 0.53273 0.20611 0.0
O140 O 0.37259 0.51664 0.20921 0.0
O141 O 0.38065 0.50042 0.1919 0.0
O142 O 0.25333 0.48137 0.18676 0.0
O143 O 0.27195 0.51694 0.18391 0.0
O144 O 0.24913 0.44191 0.19822 0.0
O145 O 0.32164 0.45962 0.20535 0.0
O146 O 0.12752 0.47886 0.19002 0.0
O147 O 0.12995 0.44917 0.20223 0.0
O148 O 0.25317 0.48627 0.21588 0.0
O149 O 0.18558 0.47036 0.2218 0.0
O150 O 0.25987 0.52982 0.20801 0.0
O151 O 0.18122 0.51549 0.20243 0.0
H152 H 0.4788 0.54015 0.20722 0.0
H153 H 0.56878 0.53095 0.2092 0.0
H154 H 0.53682 0.45805 0.20165 0.0
H155 H 0.44666 0.46753 0.19951 0.0
H156 H 0.03757 0.43099 0.2056 0.0
H157 H 0.94672 0.43578 0.209 0.0
H158 H 0.9526 0.50431 0.19278 0.0
H159 H 0.04332 0.49979 0.18971 0.0
Pr160 Pr 0.94489 0.50831 0.95084 0.0
Pr161 Pr 0.05591 0.48467 0.95126 0.0
C162 C 0.85304 0.52196 0.94297 0.0
C163 C 0.79806 0.51948 0.94506 0.0
C164 C 0.77885 0.50947 0.9554 0.0
C165 C 0.72634 0.50678 0.95694 0.0
C166 C 0.69213 0.51393 0.94813 0.0
C167 C 0.71189 0.52408 0.93784 0.0
C168 C 0.7642 0.52679 0.93633 0.0
C169 C 0.97434 0.50252 0.97433 0.0
C170 C 0.96044 0.4505 0.95562 0.0
C171 C 0.15353 0.47079 0.95332 0.0
C172 C 0.20658 0.47869 0.95475 0.0
C173 C 0.22343 0.50036 0.95033 0.0
C174 C 0.27513 0.50616 0.9506 0.0
C175 C 0.31102 0.49042 0.95531 0.0
C176 C 0.29348 0.46908 0.96007 0.0
C177 C 0.24191 0.46331 0.95978 0.0
C178 C 1.00304 0.48496 0.92986 0.0
C179 C 0.04651 0.54255 0.95007 0.0
O180 O 0.87681 0.50335 0.93904 0.0
O181 O 0.87946 0.53408 0.95061 0.0
O182 O 1.00003 0.49693 0.96539 0.0
O183 O 0.93131 0.5116 0.97115 0.0
O184 O 1.00836 0.454 0.95831 0.0
O185 O 0.93127 0.46725 0.95116 0.0
O186 O 0.12283 0.4724 0.96232 0.0
O187 O 0.13157 0.4754 0.94331 0.0
O188 O 1.00591 0.50172 0.93705 0.0
O189 O 0.02894 0.46701 0.93355 0.0
O190 O 0.99762 0.54101 0.94748 0.0
O191 O 0.07392 0.5242 0.95308 0.0
H192 H 0.80444 0.50357 0.96222 0.0
H193 H 0.71261 0.49868 0.96492 0.0
H194 H 0.68688 0.53013 0.93095 0.0
H195 H 0.77828 0.53455 0.92828 0.0
H196 H 0.19682 0.51255 0.94643 0.0
H197 H 0.28704 0.52289 0.94702 0.0
H198 H 0.31983 0.45638 0.96363 0.0
H199 H 0.2298 0.44643 0.96316 0.0
Pr200 Pr 0.85332 0.22607 0.94934 0.0
Pr201 Pr 0.74259 0.24962 0.9493 0.0
C202 C 0.9457 0.21231 0.94186 0.0
C203 C 1.0004 0.21471 0.94431 0.0
C204 C 1.01829 0.22337 0.95506 0.0
C205 C 0.07056 0.22586 0.95702 0.0
C206 C 0.1059 0.21974 0.94825 0.0
C207 C 0.08744 0.21109 0.9375 0.0
C208 C 0.03534 0.20862 0.93557 0.0
C209 C 0.8221 0.23166 0.97271 0.0
C210 C 0.83733 0.28387 0.95426 0.0
C211 C 0.64437 0.26288 0.95047 0.0
C212 C 0.59147 0.25544 0.95274 0.0
C213 C 0.57187 0.23434 0.94822 0.0
C214 C 0.51992 0.22932 0.94908 0.0
C215 C 0.48645 0.2453 0.95448 0.0
C216 C 0.50679 0.2659 0.95943 0.0
C217 C 0.55861 0.27091 0.95855 0.0
C218 C 0.79716 0.24956 0.92812 0.0
C219 C 0.75221 0.19192 0.94912 0.0
O220 O 0.92248 0.231 0.93785 0.0
O221 O 0.91836 0.20012 0.94931 0.0
O222 O 0.79708 0.23731 0.96368 0.0
O223 O 0.8654 0.22262 0.9697 0.0
O224 O 0.789 0.28041 0.95655 0.0
O225 O 0.86707 0.26714 0.94996 0.0
O226 O 0.67555 0.26501 0.95934 0.0
O227 O 0.66612 0.25496 0.94094 0.0
O228 O 0.79369 0.2327 0.93524 0.0
O229 O 0.77111 0.26748 0.93178 0.0
O230 O 0.80048 0.19342 0.94598 0.0
O231 O 0.72562 0.21033 0.95238 0.0
H232 H 0.99188 0.22825 0.96191 0.0
H233 H 0.08328 0.23238 0.96543 0.0
H234 H 0.11323 0.2066 0.93046 0.0
H235 H 1.02227 0.20208 0.92717 0.0
H236 H 0.59637 0.22207 0.94368 0.0
H237 H 0.50575 0.21335 0.9451 0.0
H238 H 0.4825 0.27841 0.96386 0.0
H239 H 0.57281 0.28729 0.9621 0.0
Pr240 Pr 0.9418 0.22591 0.83134 0.0
Pr241 Pr 0.05309 0.2486 0.83085 0.0
C242 C 0.84985 0.21215 0.83914 0.0
C243 C 0.79506 0.21451 0.83686 0.0
C244 C 0.77661 0.22659 0.82702 0.0
C245 C 0.7242 0.22918 0.82531 0.0
C246 C 0.68936 0.21984 0.83346 0.0
C247 C 0.70837 0.20758 0.84324 0.0
C248 C 0.76058 0.20498 0.84491 0.0
C249 C 0.9704 0.23195 0.80779 0.0
C250 C 0.95892 0.28398 0.82723 0.0
C251 C 0.15148 0.26152 0.82939 0.0
C252 C 0.20413 0.25391 0.82709 0.0
C253 C 0.22108 0.23133 0.83013 0.0
C254 C 0.27277 0.22571 0.82947 0.0
C255 C 0.30857 0.24255 0.82577 0.0
C256 C 0.29092 0.26482 0.82228 0.0
C257 C 0.23933 0.2704 0.82295 0.0
C258 C 1.00098 0.24838 0.85237 0.0
C259 C 0.04128 0.19091 0.83067 0.0
O260 O 0.87333 0.2309 0.84301 0.0
O261 O 0.87666 0.19994 0.83162 0.0
O262 O 0.99672 0.2372 0.81668 0.0
O263 O 0.92714 0.2232 0.81104 0.0
O264 O 1.00675 0.28033 0.82445 0.0
O265 O 0.92929 0.2671 0.83144 0.0
O266 O 0.12001 0.26351 0.82055 0.0
O267 O 0.13008 0.25367 0.83897 0.0
O268 O 1.00307 0.23164 0.84515 0.0
O269 O 0.02717 0.26619 0.84863 0.0
O270 O 0.99382 0.19281 0.83434 0.0
O271 O 0.06831 0.20914 0.82729 0.0
H272 H 0.80271 0.23418 0.82073 0.0
H273 H 0.71102 0.23891 0.81775 0.0
H274 H 0.68284 0.19982 0.84959 0.0
H275 H 0.77409 0.19559 0.85256 0.0
H276 H 0.1946 0.21827 0.83334 0.0
H277 H 0.28478 0.20827 0.83205 0.0
H278 H 0.31721 0.27834 0.81951 0.0
H279 H 0.22716 0.28798 0.82065 0.0
Pr280 Pr 0.8545 0.50945 0.83307 0.0
Pr281 Pr 0.74356 0.48706 0.83309 0.0
C282 C 0.94704 0.5231 0.84049 0.0
C283 C 1.00153 0.52069 0.83788 0.0
C284 C 1.01866 0.51003 0.82751 0.0
C285 C 0.07079 0.5075 0.8254 0.0
C286 C 0.10671 0.51557 0.83363 0.0
C287 C 0.08901 0.52625 0.84398 0.0
C288 C 0.03704 0.52876 0.84607 0.0
C289 C 0.82454 0.50358 0.80962 0.0
C290 C 0.83685 0.45149 0.82879 0.0
C291 C 0.64488 0.47451 0.83226 0.0
C292 C 0.59212 0.48138 0.82949 0.0
C293 C 0.57215 0.50316 0.83299 0.0
C294 C 0.52016 0.50778 0.83188 0.0
C295 C 0.48703 0.4907 0.82726 0.0
C296 C 0.50773 0.46936 0.82329 0.0
C297 C 0.55962 0.46476 0.82441 0.0
C298 C 0.79736 0.48692 0.8544 0.0
C299 C 0.75566 0.5446 0.83231 0.0
O300 O 0.92386 0.50433 0.84444 0.0
O301 O 0.91957 0.53542 0.83315 0.0
O302 O 0.79852 0.49831 0.81857 0.0
O303 O 0.86801 0.51225 0.81275 0.0
O304 O 0.78873 0.45526 0.82637 0.0
O305 O 0.86706 0.46825 0.8329 0.0
O306 O 0.67647 0.47025 0.82364 0.0
O307 O 0.66626 0.48442 0.84135 0.0
O308 O 0.79473 0.50377 0.84725 0.0
O309 O 0.77088 0.46919 0.85069 0.0
O310 O 0.8029 0.54267 0.8361 0.0
O311 O 0.72879 0.52633 0.82893 0.0
H312 H 0.99176 0.50363 0.82109 0.0
H313 H 0.08292 0.4994 0.81729 0.0
H314 H 0.11531 0.53229 0.85062 0.0
H315 H 0.02453 0.53687 0.85417 0.0
H316 H 0.59636 0.51631 0.83697 0.0
H317 H 0.50566 0.52436 0.8351 0.0
H318 H 0.48365 0.45597 0.81948 0.0
H319 H 0.5741 0.44783 0.82167 0.0
Pr320 Pr 0.99706 -0.00227 0.58142 0.0
Pr321 Pr 0.10627 0.97494 0.58134 0.0
C322 C 0.89842 0.01043 0.58101 0.0
C323 C 0.84587 0.00282 0.57855 0.0
C324 C 0.81142 0.01907 0.57388 0.0
C325 C 0.75989 0.0135 0.57295 0.0
C326 C 0.74157 0.99153 0.57672 0.0
C327 C 0.77658 0.97493 0.58099 0.0
C328 C 0.82821 0.9805 0.58188 0.0
C329 C 0.05077 -0.00246 0.60266 0.0
C330 C 1.00739 0.94019 0.58037 0.0
C331 C 0.19939 0.9616 0.58843 0.0
C332 C 0.254 0.96475 0.58568 0.0
C333 C 0.28347 0.94522 0.58253 0.0
C334 C 0.33571 0.94751 0.58063 0.0
C335 C 0.35995 0.9694 0.58192 0.0
C336 C 0.33017 0.98903 0.58493 0.0
C337 C 0.27789 0.98675 0.58677 0.0
C338 C 0.07733 0.98083 0.55785 0.0
C339 C 0.09002 0.03289 0.57683 0.0
O340 O 0.92915 0.01424 0.57218 0.0
O341 O 0.92082 0.00113 0.59012 0.0
O342 O 0.04695 0.9805 0.59566 0.0
O343 O 0.0273 0.01589 0.59865 0.0
O344 O 0.05453 0.94178 0.58423 0.0
O345 O 0.98115 0.95868 0.57707 0.0
O346 O 0.17498 0.97956 0.5929 0.0
O347 O 0.17197 0.94917 0.58111 0.0
O348 O 0.05093 0.98637 0.5667 0.0
O349 O 0.12032 0.97189 0.5611 0.0
O350 O 0.04199 0.02918 0.57435 0.0
O351 O 0.11974 0.01612 0.58108 0.0
H352 H 0.82411 0.03645 0.57134 0.0
H353 H 0.73409 0.0268 0.56972 0.0
H354 H 0.76396 0.95773 0.58381 0.0
H355 H 0.85403 0.96759 0.58548 0.0
H356 H 0.26616 0.92805 0.58166 0.0
H357 H 0.35709 0.93206 0.57816 0.0
H358 H 0.3474 0.00611 0.58616 0.0
H359 H 0.25642 0.00218 0.58925 0.0
Pr360 Pr 0.30721 0.23423 0.58127 0.0
Pr361 Pr 0.19564 0.25807 0.58194 0.0
C362 C 0.40363 0.22011 0.57745 0.0
C363 C 0.45747 0.22725 0.57749 0.0
C364 C 0.47573 0.24511 0.58486 0.0
C365 C 0.52775 0.25031 0.58521 0.0
C366 C 0.56243 0.2377 0.57821 0.0
C367 C 0.54348 0.22026 0.57064 0.0
C368 C 0.49166 0.21511 0.5703 0.0
C369 C 0.25521 0.23402 0.60275 0.0
C370 C 0.29812 0.29223 0.58443 0.0
C371 C 0.10384 0.27145 0.58993 0.0
C372 C 0.04882 0.26883 0.58792 0.0
C373 C 0.02878 0.26459 0.57671 0.0
C374 C 0.97627 0.26211 0.57514 0.0
C375 C 0.94282 0.2638 0.58476 0.0
C376 C 0.9634 0.26795 0.59596 0.0
C377 C 1.01573 0.27043 0.5975 0.0
C378 C 0.22501 0.25207 0.55845 0.0
C379 C 0.21077 0.20038 0.57692 0.0
O380 O 0.37451 0.22849 0.56916 0.0
O381 O 0.38072 0.21824 0.58759 0.0
O382 O 0.25708 0.25085 0.59556 0.0
O383 O 0.28246 0.21641 0.59911 0.0
O384 O 0.24797 0.29106 0.58517 0.0
O385 O 0.32701 0.27376 0.58243 0.0
O386 O 0.12792 0.25294 0.59388 0.0
O387 O 0.13008 0.28371 0.5823 0.0
O388 O 0.25043 0.24661 0.56744 0.0
O389 O 0.1819 0.26116 0.56158 0.0
O390 O 0.25837 0.20412 0.57398 0.0
O391 O 0.18186 0.21699 0.58162 0.0
H392 H 0.44996 0.25473 0.59048 0.0
H393 H 0.54094 0.26375 0.59119 0.0
H394 H 0.56876 0.2105 0.56497 0.0
H395 H 0.47833 0.20134 0.56451 0.0
H396 H 0.05366 0.2632 0.56918 0.0
H397 H 0.96187 0.25913 0.56638 0.0
H398 H 0.93913 0.26892 0.6036 0.0
H399 H 0.03045 0.27353 0.60624 0.0
Pr400 Pr 0.98629 0.23318 0.69814 0.0
Pr401 Pr 0.09626 0.25749 0.69864 0.0
C402 C 0.88826 0.2195 0.69925 0.0
C403 C 0.83515 0.22685 0.70133 0.0
C404 C 0.81579 0.24797 0.69677 0.0
C405 C 0.76383 0.25301 0.69754 0.0
C406 C 0.73008 0.23703 0.70287 0.0
C407 C 0.75014 0.21637 0.70782 0.0
C408 C 0.80198 0.21135 0.70704 0.0
C409 C 0.04215 0.2334 0.67717 0.0
C410 C 0.99444 0.29127 0.69766 0.0
C411 C 0.18895 0.27134 0.69133 0.0
C412 C 0.24373 0.26885 0.69368 0.0
C413 C 0.26195 0.25975 0.70432 0.0
C414 C 0.31429 0.25709 0.70614 0.0
C415 C 0.34938 0.26346 0.69735 0.0
C416 C 0.33057 0.27255 0.68672 0.0
C417 C 0.27842 0.2752 0.68493 0.0
C418 C 0.06352 0.25208 0.72187 0.0
C419 C 0.08166 0.19924 0.70314 0.0
O420 O 0.91911 0.21802 0.70823 0.0
O421 O 0.91026 0.22698 0.68967 0.0
O422 O 0.03815 0.2503 0.68426 0.0
O423 O 1.01571 0.21548 0.6807 0.0
O424 O 0.0435 0.29013 0.6952 0.0
O425 O 0.96758 0.27259 0.70045 0.0
O426 O 0.1656 0.2528 0.68719 0.0
O427 O 0.16172 0.2833 0.69887 0.0
O428 O 0.03909 0.24596 0.71281 0.0
O429 O 0.10634 0.26174 0.71895 0.0
O430 O 0.0327 0.20195 0.70488 0.0
O431 O 0.11185 0.21657 0.69968 0.0
H432 H 0.84054 0.26025 0.6923 0.0
H433 H 0.74988 0.26901 0.69357 0.0
H434 H 0.72564 0.20386 0.7122 0.0
H435 H 0.81598 0.19496 0.71061 0.0
H436 H 0.23575 0.25465 0.71118 0.0
H437 H 0.32726 0.25023 0.71447 0.0
H438 H 0.35612 0.27724 0.67967 0.0
H439 H 0.26511 0.28205 0.67662 0.0
Pr440 Pr 0.30793 -0.00147 0.69976 0.0
Pr441 Pr 0.19785 0.97565 0.7 0.0
C442 C 0.40677 0.01093 0.70019 0.0
C443 C 0.45962 0.00399 0.70289 0.0
C444 C 0.47982 0.98245 0.69908 0.0
C445 C 0.53181 0.97782 0.70018 0.0
C446 C 0.56478 -0.00538 0.7051 0.0
C447 C 0.54387 0.0157 0.70937 0.0
C448 C 0.49197 0.02032 0.70825 0.0
C449 C 0.254 -0.00212 0.67856 0.0
C450 C 0.29676 0.94101 0.70115 0.0
C451 C 0.10544 0.96178 0.69259 0.0
C452 C 0.05082 0.96451 0.69503 0.0
C453 C 0.03324 0.97443 0.70554 0.0
C454 C 0.98103 0.97708 0.70752 0.0
C455 C 0.94544 0.96986 0.69902 0.0
C456 C 0.96359 0.95997 0.68851 0.0
C457 C 1.01564 0.95735 0.68655 0.0
C458 C 0.22757 0.98207 0.72339 0.0
C459 C 0.21457 0.03385 0.70397 0.0
O460 O 0.37566 0.01561 0.70885 0.0
O461 O 0.38477 0.00078 0.69124 0.0
O462 O 0.25744 0.98107 0.6857 0.0
O463 O 0.27854 0.01614 0.68231 0.0
O464 O 0.24969 0.94256 0.69725 0.0
O465 O 0.32305 0.95952 0.70442 0.0
O466 O 0.12909 0.98017 0.68836 0.0
O467 O 0.13244 0.94988 0.7002 0.0
O468 O 0.25367 0.98736 0.71446 0.0
O469 O 0.18441 0.97303 0.72029 0.0
O470 O 0.26315 0.03066 0.70605 0.0
O471 O 0.1841 0.01673 0.70038 0.0
H472 H 0.45578 0.96952 0.69488 0.0
H473 H 0.54643 0.96147 0.69671 0.0
H474 H 0.56778 0.02887 0.71342 0.0
H475 H 0.47736 0.03706 0.71124 0.0
H476 H 0.05985 0.98014 0.71219 0.0
H477 H 0.96855 0.98456 0.71576 0.0
H478 H 0.93759 0.9546 0.68167 0.0
H479 H 0.02847 0.94981 0.67835 0.0
Pr480 Pr 0.955 0.00748 0.44868 0.0
Pr481 Pr 0.0654 0.98359 0.44824 0.0
C482 C 0.86243 0.02118 0.4413 0.0
C483 C 0.80772 0.01879 0.44373 0.0
C484 C 0.78972 0.00925 0.45429 0.0
C485 C 0.73741 0.00667 0.45619 0.0
C486 C 0.70217 0.01358 0.44755 0.0
C487 C 0.72076 0.02314 0.437 0.0
C488 C 0.77289 0.0257 0.43513 0.0
C489 C 0.9875 0.00228 0.47192 0.0
C490 C 0.97051 0.94933 0.45327 0.0
C491 C 0.16349 0.97014 0.4493 0.0
C492 C 0.21653 0.97741 0.4515 0.0
C493 C 0.23596 -0.00124 0.44723 0.0
C494 C 0.28794 0.00374 0.44808 0.0
C495 C 0.32158 0.98746 0.45318 0.0
C496 C 0.30142 0.96656 0.45786 0.0
C497 C 0.24958 0.9616 0.45701 0.0
C498 C 1.00967 0.98397 0.42725 0.0
C499 C 0.05634 0.04153 0.44777 0.0
O500 O 0.88563 0.0025 0.43729 0.0
O501 O 0.88976 0.03335 0.44875 0.0
O502 O 1.01216 -0.00377 0.46288 0.0
O503 O 0.94465 0.01185 0.46897 0.0
O504 O 1.01943 0.95221 0.45497 0.0
O505 O 0.94005 0.96651 0.44977 0.0
O506 O 0.13248 0.9682 0.45823 0.0
O507 O 0.14168 0.97805 0.43978 0.0
O508 O 1.01372 0.00071 0.43441 0.0
O509 O 0.03607 0.96601 0.43072 0.0
O510 O 1.00758 0.04009 0.44507 0.0
O511 O 0.08331 0.02305 0.4508 0.0
H512 H 0.81606 0.00373 0.46103 0.0
H513 H 0.7246 -0.00056 0.46446 0.0
H514 H 0.69506 0.02825 0.43006 0.0
H515 H 0.78606 0.03291 0.42688 0.0
H516 H 0.21128 0.01128 0.44293 0.0
H517 H 0.30199 0.01995 0.44431 0.0
H518 H 0.32586 0.95381 0.46206 0.0
H519 H 0.2355 0.94502 0.46036 0.0
Pr520 Pr 0.84968 0.72629 0.44879 0.0
Pr521 Pr 0.74045 0.75123 0.44837 0.0
C522 C 0.94274 0.71272 0.44171 0.0
C523 C 0.99747 0.71587 0.4442 0.0
C524 C 0.02953 0.69623 0.44417 0.0
C525 C 0.08195 0.69886 0.44561 0.0
C526 C 0.10371 0.72127 0.44706 0.0
C527 C 0.07124 0.74091 0.44734 0.0
C528 C 1.01874 0.73825 0.44594 0.0
C529 C 0.81652 0.73128 0.47202 0.0
C530 C 0.83657 0.78424 0.454 0.0
C531 C 0.64325 0.76581 0.45018 0.0
C532 C 0.58987 0.75793 0.45092 0.0
C533 C 0.55574 0.77067 0.45788 0.0
C534 C 0.50412 0.76495 0.45801 0.0
C535 C 0.48532 0.74633 0.45115 0.0
C536 C 0.51991 0.73321 0.44438 0.0
C537 C 0.57165 0.73893 0.44428 0.0
C538 C 0.79747 0.75161 0.42761 0.0
C539 C 0.74715 0.69301 0.44609 0.0
O540 O 0.91839 0.73067 0.43722 0.0
O541 O 0.91568 0.7006 0.44923 0.0
O542 O 0.7926 0.73773 0.46295 0.0
O543 O 0.8591 0.72143 0.46911 0.0
O544 O 0.78775 0.78145 0.45588 0.0
O545 O 0.86628 0.76708 0.45016 0.0
O546 O 0.67245 0.76244 0.45931 0.0
O547 O 0.66675 0.7629 0.44017 0.0
O548 O 0.79186 0.73434 0.43442 0.0
O549 O 0.77275 0.76985 0.43141 0.0
O550 O 0.79718 0.69374 0.44511 0.0
O551 O 0.71929 0.71175 0.44818 0.0
H552 H 1.01406 0.67879 0.44285 0.0
H553 H 0.10545 0.68328 0.44556 0.0
H554 H 0.08645 0.75847 0.44831 0.0
H555 H 0.99496 0.75375 0.44599 0.0
H556 H 0.56886 0.78548 0.46302 0.0
H557 H 0.47871 0.77562 0.46323 0.0
H558 H 0.50696 0.71856 0.43912 0.0
H559 H 0.59724 0.72874 0.43887 0.0
Pr560 Pr 0.95464 0.72825 0.3314 0.0
Pr561 Pr 0.05715 0.75174 0.33083 0.0
C562 C 0.85806 0.71539 0.33634 0.0
C563 C 0.80365 0.72156 0.33494 0.0
C564 C 0.77924 0.72069 0.32398 0.0
C565 C 0.7269 0.72474 0.32309 0.0
C566 C 0.6977 0.72977 0.33313 0.0
C567 C 0.72246 0.73095 0.34404 0.0
C568 C 0.77464 0.72684 0.34493 0.0
C569 C 0.9959 0.72926 0.3088 0.0
C570 C 0.96412 0.7864 0.3269 0.0
C571 C 0.15435 0.76613 0.32808 0.0
C572 C 0.20868 0.75975 0.32935 0.0
C573 C 0.23993 0.77352 0.33656 0.0
C574 C 0.2922 0.76944 0.33711 0.0
C575 C 0.31482 0.75155 0.33039 0.0
C576 C 0.28324 0.73737 0.32337 0.0
C577 C 0.2308 0.74143 0.32284 0.0
C578 C 1.00897 0.75106 0.35284 0.0
C579 C 0.05293 0.69437 0.33392 0.0
O580 O 0.88557 0.72847 0.34329 0.0
O581 O 0.88315 0.70776 0.3272 0.0
O582 O 0.99808 0.74616 0.31602 0.0
O583 O 0.97127 0.71153 0.31316 0.0
O584 O 1.01206 0.78341 0.32426 0.0
O585 O 0.93552 0.76892 0.33076 0.0
O586 O 0.12788 0.75616 0.31976 0.0
O587 O 0.12809 0.76989 0.33762 0.0
O588 O 1.01275 0.73385 0.34595 0.0
O589 O 0.03051 0.76959 0.34846 0.0
O590 O 1.00508 0.69637 0.33716 0.0
O591 O 0.07786 0.7123 0.32954 0.0
H592 H 0.80036 0.71659 0.3161 0.0
H593 H 0.70932 0.72396 0.31452 0.0
H594 H 0.70128 0.73441 0.35199 0.0
H595 H 0.79222 0.72732 0.35351 0.0
H596 H 0.22402 0.78781 0.34164 0.0
H597 H 0.31494 0.78046 0.34279 0.0
H598 H 0.29918 0.72355 0.318 0.0
H599 H 0.20784 0.73054 0.31715 0.0
Pr600 Pr 0.84964 0.00949 0.33232 0.0
Pr601 Pr 0.73832 0.98621 0.33238 0.0
C602 C 0.94199 0.02309 0.33986 0.0
C603 C 0.9967 0.02073 0.33744 0.0
C604 C 1.01494 0.01424 0.32634 0.0
C605 C 0.06724 0.01191 0.32439 0.0
C606 C 0.10221 0.01602 0.33352 0.0
C607 C 0.08341 0.02244 0.34462 0.0
C608 C 0.03129 0.02476 0.34654 0.0
C609 C 0.81861 0.00382 0.30897 0.0
C610 C 0.83271 0.95154 0.3279 0.0
C611 C 0.64005 0.97322 0.33097 0.0
C612 C 0.58734 0.98098 0.32878 0.0
C613 C 0.56737 0.00127 0.33407 0.0
C614 C 0.51553 0.0064 0.3332 0.0
C615 C 0.48253 0.99138 0.32702 0.0
C616 C 0.50326 0.97167 0.32131 0.0
C617 C 0.55499 0.96653 0.32221 0.0
C618 C 0.79289 0.98607 0.35354 0.0
C619 C 0.74912 0.04396 0.33284 0.0
O620 O 0.91868 0.00436 0.34381 0.0
O621 O 0.91478 0.03539 0.33244 0.0
O622 O 0.79323 -0.00173 0.31798 0.0
O623 O 0.86193 0.01282 0.312 0.0
O624 O 0.78414 0.95468 0.32583 0.0
O625 O 0.86327 0.9685 0.33161 0.0
O626 O 0.67132 0.97159 0.32207 0.0
O627 O 0.66177 0.98041 0.34064 0.0
O628 O 0.78986 0.00291 0.3464 0.0
O629 O 0.76593 0.96836 0.34997 0.0
O630 O 0.79757 0.04227 0.33576 0.0
O631 O 0.72182 0.02567 0.32969 0.0
H632 H 0.98881 0.01097 0.3192 0.0
H633 H 0.08027 0.00714 0.31571 0.0
H634 H 0.10894 0.02532 0.35191 0.0
H635 H 1.01792 0.02959 0.3552 0.0
H636 H 0.59145 0.01275 0.3392 0.0
H637 H 0.50103 0.02164 0.33778 0.0
H638 H 0.47934 0.95995 0.31628 0.0
H639 H 0.56948 0.95079 0.31805 0.0
Pr640 Pr 0.48599 0.50221 0.58363 0.0
Pr641 Pr 0.59646 0.47772 0.58384 0.0
C642 C 0.38927 0.51606 0.58014 0.0
C643 C 0.33525 0.50938 0.58145 0.0
C644 C 0.30275 0.52425 0.58775 0.0
C645 C 0.25078 0.51959 0.58837 0.0
C646 C 0.2298 0.49998 0.58262 0.0
C647 C 0.26264 0.48475 0.57653 0.0
C648 C 0.3148 0.48941 0.57594 0.0
C649 C 0.53865 0.50182 0.60499 0.0
C650 C 0.49376 0.44398 0.58659 0.0
C651 C 0.68839 0.46448 0.59174 0.0
C652 C 0.74348 0.46795 0.58998 0.0
C653 C 0.76668 0.4653 0.57896 0.0
C654 C 0.81914 0.46853 0.57771 0.0
C655 C 0.84933 0.47461 0.58743 0.0
C656 C 0.82581 0.47721 0.59843 0.0
C657 C 0.77358 0.47387 0.59968 0.0
C658 C 0.566 0.48371 0.56047 0.0
C659 C 0.58263 0.53551 0.5787 0.0
O660 O 0.4164 0.50534 0.57215 0.0
O661 O 0.41474 0.52094 0.58968 0.0
O662 O 0.53617 0.48508 0.59775 0.0
O663 O 0.51143 0.51954 0.60149 0.0
O664 O 0.54401 0.44476 0.58682 0.0
O665 O 0.46516 0.46278 0.58524 0.0
O666 O 0.66314 0.48228 0.59607 0.0
O667 O 0.66294 0.45254 0.58384 0.0
O668 O 0.54122 0.48959 0.5695 0.0
O669 O 0.60851 0.47388 0.56349 0.0
O670 O 0.53439 0.53231 0.57624 0.0
O671 O 0.61206 0.51861 0.5829 0.0
H672 H 0.31749 0.53978 0.59206 0.0
H673 H 0.22698 0.53146 0.59334 0.0
H674 H 0.24788 0.46959 0.57193 0.0
H675 H 0.33887 0.47762 0.57099 0.0
H676 H 0.74435 0.46081 0.57131 0.0
H677 H 0.83595 0.46661 0.56909 0.0
H678 H 0.8479 0.48153 0.60613 0.0
H679 H 0.75663 0.47587 0.60828 0.0
Pr680 Pr 0.80538 0.73709 0.58138 0.0
Pr681 Pr 0.69537 0.75984 0.58127 0.0
C682 C 0.90423 0.72478 0.58084 0.0
C683 C 0.95704 0.73193 0.5782 0.0
C684 C 0.97743 0.75311 0.58244 0.0
C685 C 0.02942 0.75781 0.58138 0.0
C686 C 0.06222 0.74143 0.57607 0.0
C687 C 0.04112 0.72074 0.57138 0.0
C688 C 0.98922 0.71605 0.57246 0.0
C689 C 0.75185 0.73765 0.60266 0.0
C690 C 0.79428 0.7946 0.58013 0.0
C691 C 0.60304 0.77362 0.58876 0.0
C692 C 0.54838 0.77091 0.58636 0.0
C693 C 0.5306 0.76204 0.57564 0.0
C694 C 0.47836 0.75947 0.57367 0.0
C695 C 0.44295 0.76572 0.5824 0.0
C696 C 0.46129 0.77453 0.59312 0.0
C697 C 0.51336 0.77708 0.59507 0.0
C698 C 0.72466 0.75353 0.55783 0.0
C699 C 0.71216 0.70162 0.57736 0.0
O700 O 0.87315 0.72038 0.57215 0.0
O701 O 0.88216 0.73456 0.58989 0.0
O702 O 0.75514 0.75449 0.59552 0.0
O703 O 0.77629 0.71941 0.59885 0.0
O704 O 0.74721 0.79299 0.58405 0.0
O705 O 0.82054 0.77613 0.57682 0.0
O706 O 0.62668 0.75521 0.59295 0.0
O707 O 0.63003 0.78559 0.58116 0.0
O708 O 0.75094 0.74822 0.56673 0.0
O709 O 0.68157 0.76254 0.561 0.0
O710 O 0.76063 0.70488 0.57518 0.0
O711 O 0.68169 0.71872 0.58096 0.0
H712 H 0.95356 0.7657 0.58693 0.0
H713 H 0.04418 0.77385 0.58517 0.0
H714 H 0.06489 0.70792 0.56703 0.0
H715 H 0.97447 0.69957 0.56914 0.0
H716 H 0.55707 0.75711 0.5688 0.0
H717 H 0.46572 0.75282 0.56527 0.0
H718 H 0.43542 0.77912 0.60013 0.0
H719 H 0.52635 0.78379 0.60343 0.0
Pr720 Pr 0.49693 0.73735 0.70016 0.0
Pr721 Pr 0.60625 0.76012 0.70046 0.0
C722 C 0.39823 0.7247 0.70041 0.0
C723 C 0.34574 0.73221 0.70298 0.0
C724 C 0.31122 0.71575 0.70745 0.0
C725 C 0.25974 0.72131 0.70849 0.0
C726 C 0.24156 0.74349 0.70503 0.0
C727 C 0.27665 0.76029 0.70096 0.0
C728 C 0.32823 0.75473 0.69996 0.0
C729 C 0.55149 0.7375 0.67902 0.0
C730 C 0.50756 0.79487 0.70129 0.0
C731 C 0.69966 0.77345 0.69353 0.0
C732 C 0.7542 0.77025 0.69634 0.0
C733 C 0.78345 0.78965 0.69982 0.0
C734 C 0.83564 0.78736 0.70175 0.0
C735 C 0.86007 0.7656 0.70016 0.0
C736 C 0.83051 0.74611 0.69683 0.0
C737 C 0.77827 0.74838 0.69495 0.0
C738 C 0.57607 0.75429 0.72388 0.0
C739 C 0.58965 0.70224 0.70509 0.0
O740 O 0.4289 0.72043 0.70919 0.0
O741 O 0.42071 0.73446 0.69141 0.0
O742 O 0.54751 0.75454 0.68601 0.0
O743 O 0.52771 0.71917 0.68298 0.0
O744 O 0.55478 0.79326 0.69748 0.0
O745 O 0.48115 0.77639 0.70456 0.0
O746 O 0.67528 0.75554 0.689 0.0
O747 O 0.6721 0.78583 0.70085 0.0
O748 O 0.55016 0.74876 0.71497 0.0
O749 O 0.61929 0.76321 0.72075 0.0
O750 O 0.54144 0.70593 0.70738 0.0
O751 O 0.61965 0.71897 0.70087 0.0
H752 H 0.32379 0.69823 0.70974 0.0
H753 H 0.23387 0.70786 0.71155 0.0
H754 H 0.26413 0.77765 0.6984 0.0
H755 H 0.35412 0.7678 0.69652 0.0
H756 H 0.766 0.80673 0.70091 0.0
H757 H 0.85685 0.8027 0.70447 0.0
H758 H 0.8479 0.72914 0.69536 0.0
H759 H 0.75701 0.73306 0.69222 0.0
Pr760 Pr 0.80777 0.50171 0.70032 0.0
Pr761 Pr 0.69767 0.47738 0.70056 0.0
C762 C 0.90561 0.51567 0.7016 0.0
C763 C 0.95883 0.50839 0.70354 0.0
C764 C 0.97783 0.48704 0.69918 0.0
C765 C 0.02982 0.48198 0.69987 0.0
C766 C 0.06391 0.49818 0.7049 0.0
C767 C 0.0442 0.51911 0.70963 0.0
C768 C 0.99235 0.52414 0.70894 0.0
C769 C 0.7522 0.50191 0.67931 0.0
C770 C 0.79968 0.44369 0.6993 0.0
C771 C 0.60497 0.46369 0.69319 0.0
C772 C 0.55021 0.46603 0.69561 0.0
C773 C 0.53212 0.47592 0.70608 0.0
C774 C 0.47979 0.47856 0.70793 0.0
C775 C 0.44457 0.47137 0.69934 0.0
C776 C 0.46325 0.46144 0.68889 0.0
C777 C 0.5154 0.45881 0.68706 0.0
C778 C 0.73016 0.48238 0.72386 0.0
C779 C 0.7123 0.53532 0.70566 0.0
O780 O 0.87479 0.51645 0.7106 0.0
O781 O 0.8837 0.50866 0.69192 0.0
O782 O 0.75622 0.48488 0.68632 0.0
O783 O 0.77826 0.51984 0.68298 0.0
O784 O 0.75071 0.44498 0.69676 0.0
O785 O 0.82651 0.46222 0.70236 0.0
O786 O 0.62818 0.48243 0.68922 0.0
O787 O 0.63234 0.45147 0.7006 0.0
O788 O 0.75449 0.4886 0.71481 0.0
O789 O 0.68735 0.47278 0.7209 0.0
O790 O 0.76084 0.53216 0.70779 0.0
O791 O 0.68278 0.51838 0.70147 0.0
H792 H 0.95276 0.47458 0.69495 0.0
H793 H 0.04351 0.46575 0.69607 0.0
H794 H 0.06898 0.53181 0.71377 0.0
H795 H 0.9786 0.54071 0.71236 0.0
H796 H 0.55843 0.48169 0.71278 0.0
H797 H 0.46694 0.48607 0.71613 0.0
H798 H 0.4376 0.45609 0.68197 0.0
H799 H 0.52861 0.45133 0.67887 0.0
Pr800 Pr 0.44485 0.50911 0.45093 0.0
Pr801 Pr 0.55484 0.4848 0.45194 0.0
C802 C 0.35275 0.52144 0.44274 0.0
C803 C 0.29759 0.51752 0.4446 0.0
C804 C 0.27087 0.52886 0.45365 0.0
C805 C 0.21839 0.52571 0.45488 0.0
C806 C 0.19139 0.51115 0.4471 0.0
C807 C 0.21825 0.49984 0.43806 0.0
C808 C 0.27055 0.50306 0.43681 0.0
C809 C 0.473 0.50401 0.47456 0.0
C810 C 0.45863 0.45202 0.45727 0.0
C811 C 0.65126 0.4709 0.45582 0.0
C812 C 0.7053 0.47681 0.45402 0.0
C813 C 0.73954 0.45867 0.45154 0.0
C814 C 0.7915 0.46323 0.45066 0.0
C815 C 0.81058 0.48609 0.45228 0.0
C816 C 0.77593 0.50442 0.45446 0.0
C817 C 0.72378 0.49982 0.45533 0.0
C818 C 0.5031 0.48393 0.43046 0.0
C819 C 0.54737 0.54272 0.4478 0.0
O820 O 0.37903 0.50379 0.43855 0.0
O821 O 0.37781 0.53401 0.45046 0.0
O822 O 0.49869 0.49796 0.46571 0.0
O823 O 0.43037 0.51328 0.47123 0.0
O824 O 0.50567 0.45618 0.46048 0.0
O825 O 0.43059 0.46811 0.45191 0.0
O826 O 0.62528 0.4838 0.46319 0.0
O827 O 0.62496 0.46413 0.4467 0.0
O828 O 0.50631 0.5012 0.43734 0.0
O829 O 0.52811 0.46598 0.43451 0.0
O830 O 0.49713 0.54197 0.44759 0.0
O831 O 0.57587 0.52402 0.44953 0.0
H832 H 0.29035 0.54028 0.45976 0.0
H833 H 0.19903 0.53454 0.462 0.0
H834 H 0.19868 0.48882 0.43178 0.0
H835 H 0.2898 0.49437 0.42962 0.0
H836 H 0.72615 0.4408 0.45047 0.0
H837 H 0.81675 0.44875 0.44873 0.0
H838 H 0.78918 0.52221 0.45582 0.0
H839 H 0.69809 0.51416 0.45723 0.0
Pr840 Pr 0.35178 0.2277 0.44928 0.0
Pr841 Pr 0.24209 0.25242 0.44962 0.0
C842 C 0.44403 0.21455 0.44138 0.0
C843 C 0.49913 0.21731 0.4433 0.0
C844 C 0.51909 0.22474 0.4541 0.0
C845 C 0.57167 0.22753 0.45552 0.0
C846 C 0.60524 0.22307 0.44615 0.0
C847 C 0.58473 0.21553 0.43538 0.0
C848 C 0.53238 0.21273 0.434 0.0
C849 C 0.3198 0.23155 0.47268 0.0
C850 C 0.33806 0.28511 0.45575 0.0
C851 C 0.14449 0.26654 0.45137 0.0
C852 C 0.0913 0.25848 0.45242 0.0
C853 C 0.07404 0.238 0.44681 0.0
C854 C 1.02235 0.23215 0.44695 0.0
C855 C 0.98681 0.24661 0.4527 0.0
C856 C 1.00472 0.2667 0.4586 0.0
C857 C 0.05629 0.27254 0.45844 0.0
C858 C 0.29765 0.25369 0.42864 0.0
C859 C 0.24935 0.19429 0.44744 0.0
O860 O 0.41961 0.2329 0.43738 0.0
O861 O 0.41807 0.20239 0.4491 0.0
O862 O 0.29562 0.23828 0.46372 0.0
O863 O 0.3624 0.22192 0.46957 0.0
O864 O 0.28957 0.28178 0.4579 0.0
O865 O 0.36728 0.26859 0.45107 0.0
O866 O 0.17426 0.26431 0.46048 0.0
O867 O 0.16753 0.26269 0.44139 0.0
O868 O 0.29247 0.23615 0.43528 0.0
O869 O 0.27368 0.27183 0.43279 0.0
O870 O 0.29874 0.19541 0.44535 0.0
O871 O 0.22231 0.21284 0.45035 0.0
H872 H 0.49406 0.22852 0.46139 0.0
H873 H 0.58593 0.2336 0.46389 0.0
H874 H 0.60921 0.21156 0.42803 0.0
H875 H 0.51779 0.20696 0.42559 0.0
H876 H 0.10033 0.22679 0.44213 0.0
H877 H 1.01018 0.21636 0.44246 0.0
H878 H 0.97864 0.27843 0.46301 0.0
H879 H 0.06867 0.28849 0.46277 0.0
Pr880 Pr 0.45022 0.22814 0.33243 0.0
Pr881 Pr 0.55997 0.25327 0.33218 0.0
C882 C 0.35783 0.21492 0.3402 0.0
C883 C 0.30279 0.21784 0.33816 0.0
C884 C 0.28244 0.22064 0.32687 0.0
C885 C 0.22993 0.22324 0.3253 0.0
C886 C 0.19672 0.22309 0.335 0.0
C887 C 0.21759 0.22044 0.34629 0.0
C888 C 0.26991 0.21785 0.34783 0.0
C889 C 0.48224 0.23266 0.30906 0.0
C890 C 0.46371 0.28587 0.32659 0.0
C891 C 0.65744 0.26742 0.33017 0.0
C892 C 0.71076 0.25943 0.3292 0.0
C893 C 0.7305 0.24176 0.3365 0.0
C894 C 0.7824 0.23638 0.33628 0.0
C895 C 0.81575 0.24856 0.32876 0.0
C896 C 0.79532 0.26565 0.32118 0.0
C897 C 0.74354 0.27103 0.32143 0.0
C898 C 0.50448 0.25409 0.35316 0.0
C899 C 0.55307 0.19516 0.3346 0.0
O900 O 0.38234 0.23314 0.34434 0.0
O901 O 0.38404 0.20276 0.33252 0.0
O902 O 0.50629 0.23924 0.31807 0.0
O903 O 0.4398 0.22276 0.31211 0.0
O904 O 0.51228 0.28298 0.32443 0.0
O905 O 0.43429 0.26894 0.33082 0.0
O906 O 0.62759 0.26462 0.3211 0.0
O907 O 0.63444 0.26428 0.34022 0.0
O908 O 0.50954 0.23668 0.34643 0.0
O909 O 0.52891 0.27225 0.34916 0.0
O910 O 0.50345 0.196 0.3364 0.0
O911 O 0.58007 0.2138 0.33179 0.0
H912 H 0.30706 0.22077 0.31927 0.0
H913 H 0.21533 0.22504 0.31648 0.0
H914 H 0.19355 0.22068 0.35398 0.0
H915 H 0.28479 0.21587 0.35663 0.0
H916 H 0.7061 0.2325 0.34258 0.0
H917 H 0.79661 0.22324 0.3423 0.0
H918 H 0.81944 0.27507 0.3151 0.0
H919 H 0.72925 0.2847 0.31571 0.0
Pr920 Pr 0.34744 0.50844 0.33424 0.0
Pr921 Pr 0.23773 0.48456 0.33444 0.0
C922 C 0.44 0.52183 0.34179 0.0
C923 C 0.49482 0.5192 0.33951 0.0
C924 C 0.51336 0.51125 0.32868 0.0
C925 C 0.56574 0.50868 0.32687 0.0
C926 C 0.60055 0.514 0.33588 0.0
C927 C 0.58143 0.5219 0.34671 0.0
C928 C 0.52924 0.52444 0.34849 0.0
C929 C 0.3162 0.50345 0.31087 0.0
C930 C 0.33212 0.4507 0.32893 0.0
C931 C 0.1397 0.47087 0.33339 0.0
C932 C 0.08651 0.47831 0.33152 0.0
C933 C 0.06693 0.49891 0.33658 0.0
C934 C 1.01495 0.50396 0.33588 0.0
C935 C 0.98142 0.4885 0.33012 0.0
C936 C 1.00171 0.46839 0.32469 0.0
C937 C 0.05356 0.46336 0.3254 0.0
C938 C 0.2938 0.48381 0.35536 0.0
C939 C 0.24633 0.54247 0.33548 0.0
O940 O 0.41613 0.50335 0.34585 0.0
O941 O 0.41326 0.53401 0.33423 0.0
O942 O 0.29088 0.49735 0.31981 0.0
O943 O 0.35912 0.51274 0.31398 0.0
O944 O 0.28337 0.45374 0.32712 0.0
O945 O 0.36246 0.46758 0.33282 0.0
O946 O 0.1702 0.46991 0.32433 0.0
O947 O 0.16208 0.47782 0.34303 0.0
O948 O 0.2889 0.50111 0.34856 0.0
O949 O 0.26919 0.46568 0.35142 0.0
O950 O 0.29535 0.54111 0.33788 0.0
O951 O 0.21926 0.52401 0.33246 0.0
H952 H 0.48739 0.50702 0.32163 0.0
H953 H 0.57896 0.50275 0.31839 0.0
H954 H 0.60677 0.52575 0.35393 0.0
H955 H 0.51569 0.53043 0.35695 0.0
H956 H 0.0915 0.51076 0.34137 0.0
H957 H 1.00082 0.51952 0.34024 0.0
H958 H 0.9774 0.45632 0.31998 0.0
H959 H 0.06774 0.44738 0.32142 0.0
Pr960 Pr 0.48258 0.00052 0.08306 0.0
Pr961 Pr 0.59321 0.97785 0.08276 0.0
C962 C 0.38379 0.01287 0.08249 0.0
C963 C 0.33126 0.00566 0.07977 0.0
C964 C 0.31427 0.9826 0.08174 0.0
C965 C 0.26262 0.9771 0.08076 0.0
C966 C 0.22692 -0.00547 0.07779 0.0
C967 C 0.24464 0.01734 0.07535 0.0
C968 C 0.29618 0.02282 0.07634 0.0
C969 C 0.53692 0.00021 0.10425 0.0
C970 C 0.49415 0.94298 0.08213 0.0
C971 C 0.68558 0.96415 0.09024 0.0
C972 C 0.74032 0.96634 0.08789 0.0
C973 C 0.75891 0.98 0.07858 0.0
C974 C 0.81136 0.98252 0.07689 0.0
C975 C 0.84605 0.97153 0.08452 0.0
C976 C 0.82689 0.95764 0.09373 0.0
C977 C 0.77465 0.95511 0.09539 0.0
C978 C 0.56229 0.98329 0.05941 0.0
C979 C 0.57564 0.03602 0.0786 0.0
O980 O 0.41501 0.01732 0.07382 0.0
O981 O 0.40558 0.00282 0.09149 0.0
O982 O 0.53403 0.9835 0.09704 0.0
O983 O 0.5105 0.01805 0.10068 0.0
O984 O 0.54141 0.94477 0.08591 0.0
O985 O 0.4675 0.96133 0.07879 0.0
O986 O 0.66247 0.98297 0.09413 0.0
O987 O 0.65838 0.95191 0.08281 0.0
O988 O 0.53659 0.98892 0.06836 0.0
O989 O 0.60535 0.97412 0.06249 0.0
O990 O 0.52707 0.03262 0.07662 0.0
O991 O 0.60656 0.01903 0.08212 0.0
H992 H 0.34065 0.96902 0.08438 0.0
H993 H 0.25055 0.95926 0.08251 0.0
H994 H 0.21841 0.0313 0.07318 0.0
H995 H 0.3084 0.04075 0.07487 0.0
H996 H 0.73292 0.98891 0.07273 0.0
H997 H 0.8247 -0.00649 0.06978 0.0
H998 H 0.85231 0.94861 0.09966 0.0
H999 H 0.76101 0.94448 0.10262 0.0
Pr1000 Pr 0.80359 0.23671 0.08006 0.0
Pr1001 Pr 0.68524 0.2613 0.08091 0.0
C1002 C 0.89568 0.22334 0.0725 0.0
C1003 C 0.95037 0.22821 0.07425 0.0
C1004 C 0.97692 0.21922 0.08395 0.0
C1005 C 0.02903 0.22323 0.08516 0.0
C1006 C 0.05581 0.23626 0.07669 0.0
C1007 C 0.02903 0.24535 0.06704 0.0
C1008 C 0.97708 0.24127 0.06581 0.0
C1009 C 0.76198 0.24141 0.10283 0.0
C1010 C 0.79082 0.29424 0.08458 0.0
C1011 C 0.59369 0.2759 0.08831 0.0
C1012 C 0.53923 0.2712 0.08634 0.0
C1013 C 0.50651 0.28988 0.08371 0.0
C1014 C 0.45447 0.28598 0.08235 0.0
C1015 C 0.43406 0.26332 0.08371 0.0
C1016 C 0.46698 0.24457 0.08622 0.0
C1017 C 0.51904 0.24844 0.08749 0.0
C1018 C 0.72024 0.25496 0.05783 0.0
C1019 C 0.70175 0.20291 0.07753 0.0
O1020 O 0.86887 0.23982 0.06738 0.0
O1021 O 0.87101 0.21222 0.08084 0.0
O1022 O 0.74549 0.24825 0.09313 0.0
O1023 O 0.80625 0.2318 0.10109 0.0
O1024 O 0.74049 0.29294 0.08528 0.0
O1025 O 0.82057 0.27632 0.08197 0.0
O1026 O 0.61993 0.25947 0.09358 0.0
O1027 O 0.61872 0.28654 0.0799 0.0
O1028 O 0.7427 0.24961 0.06724 0.0
O1029 O 0.67661 0.26438 0.06034 0.0
O1030 O 0.75098 0.20542 0.07568 0.0
O1031 O 0.67047 0.22041 0.08026 0.0
H1032 H 0.95766 0.20887 0.09056 0.0
H1033 H 0.0485 0.21569 0.09262 0.0
H1034 H 0.04816 0.25574 0.06042 0.0
H1035 H 0.9578 0.24828 0.05819 0.0
H1036 H 0.52114 0.30758 0.08284 0.0
H1037 H 0.43005 0.30081 0.08052 0.0
H1038 H 0.45251 0.22687 0.08716 0.0
H1039 H 0.54334 0.23363 0.08946 0.0
Pr1040 Pr 0.50098 0.24012 0.19924 0.0
Pr1041 Pr 0.612 0.2615 0.20035 0.0
C1042 C 0.40174 0.22868 0.19916 0.0
C1043 C 0.34924 0.23478 0.20255 0.0
C1044 C 0.32899 0.25723 0.20047 0.0
C1045 C 0.27709 0.26146 0.20207 0.0
C1046 C 0.24439 0.24331 0.20573 0.0
C1047 C 0.2654 0.22119 0.20831 0.0
C1048 C 0.31718 0.21699 0.20672 0.0
C1049 C 0.55672 0.24086 0.1782 0.0
C1050 C 0.51461 0.29705 0.20169 0.0
C1051 C 0.70525 0.27543 0.19358 0.0
C1052 C 0.75946 0.2732 0.19643 0.0
C1053 C 0.77604 0.26036 0.2062 0.0
C1054 C 0.82804 0.25788 0.20845 0.0
C1055 C 0.86432 0.26818 0.20096 0.0
C1056 C 0.84714 0.28113 0.19122 0.0
C1057 C 0.7953 0.28359 0.18899 0.0
C1058 C 0.57981 0.2546 0.22353 0.0
C1059 C 0.59179 0.20342 0.20347 0.0
O1060 O 0.43313 0.22117 0.20724 0.0
O1061 O 0.42349 0.24139 0.19102 0.0
O1062 O 0.55439 0.25727 0.18561 0.0
O1063 O 0.52868 0.22331 0.18145 0.0
O1064 O 0.56142 0.29513 0.19765 0.0
O1065 O 0.48775 0.27867 0.20488 0.0
O1066 O 0.68281 0.25662 0.18946 0.0
O1067 O 0.67691 0.28754 0.20083 0.0
O1068 O 0.55405 0.24993 0.21445 0.0
O1069 O 0.62376 0.26315 0.22068 0.0
O1070 O 0.5433 0.20721 0.20536 0.0
O1071 O 0.62372 0.22027 0.20025 0.0
H1072 H 0.35286 0.27129 0.19723 0.0
H1073 H 0.26227 0.27866 0.19993 0.0
H1074 H 0.24161 0.20693 0.21136 0.0
H1075 H 0.33189 0.19953 0.20835 0.0
H1076 H 0.74883 0.25217 0.21203 0.0
H1077 H 0.8398 0.24798 0.21609 0.0
H1078 H 0.87377 0.28895 0.18513 0.0
H1079 H 0.78318 0.29342 0.18136 0.0
Pr1080 Pr 0.80397 0.00062 0.19976 0.0
Pr1081 Pr 0.69285 0.97744 0.19991 0.0
C1082 C 0.90185 0.01406 0.20144 0.0
C1083 C 0.95476 0.00669 0.20361 0.0
C1084 C 0.97508 0.98626 0.19855 0.0
C1085 C 0.02711 0.9815 0.19938 0.0
C1086 C 0.05984 -0.0029 0.20527 0.0
C1087 C 0.03875 0.01694 0.21078 0.0
C1088 C 0.98686 0.02168 0.20994 0.0
C1089 C 0.74978 0.00053 0.17858 0.0
C1090 C 0.79335 0.94273 0.19889 0.0
C1091 C 0.60023 0.96419 0.19243 0.0
C1092 C 0.54544 0.96727 0.19463 0.0
C1093 C 0.52528 0.96834 0.20603 0.0
C1094 C 0.473 0.97138 0.20773 0.0
C1095 C 0.44003 0.97356 0.19807 0.0
C1096 C 0.46061 0.97241 0.1867 0.0
C1097 C 0.51266 0.96929 0.18501 0.0
C1098 C 0.72442 0.98276 0.22324 0.0
C1099 C 0.70978 0.03555 0.2041 0.0
O1100 O 0.87039 0.01503 0.21032 0.0
O1101 O 0.88061 0.00713 0.19167 0.0
O1102 O 0.7525 0.98377 0.18578 0.0
O1103 O 0.77665 0.0183 0.18212 0.0
O1104 O 0.74448 0.94451 0.19635 0.0
O1105 O 0.82112 0.96099 0.2019 0.0
O1106 O 0.62455 0.98237 0.18818 0.0
O1107 O 0.62676 0.95204 0.20005 0.0
O1108 O 0.7495 0.9885 0.21422 0.0
O1109 O 0.68135 0.97347 0.22023 0.0
O1110 O 0.75818 0.03219 0.20627 0.0
O1111 O 0.67907 0.01855 0.20049 0.0
H1112 H 0.95111 0.97438 0.19362 0.0
H1113 H 0.04195 0.96613 0.19497 0.0
H1114 H 0.06253 0.02909 0.21559 0.0
H1115 H 0.97204 0.03753 0.21392 0.0
H1116 H 0.54988 0.96697 0.21359 0.0
H1117 H 0.45852 0.97243 0.2166 0.0
H1118 H 0.43638 0.97367 0.17906 0.0
H1119 H 0.52739 0.96846 0.17615 0.0
Pr1120 Pr 0.44572 0.00963 0.94974 0.0
Pr1121 Pr 0.55492 0.98421 0.95053 0.0
C1122 C 0.35332 0.02296 0.94207 0.0
C1123 C 0.29841 0.01976 0.94445 0.0
C1124 C 0.26595 0.03925 0.94407 0.0
C1125 C 0.2135 0.03652 0.94552 0.0
C1126 C 0.19205 0.01415 0.94736 0.0
C1127 C 0.2249 -0.00534 0.94795 0.0
C1128 C 0.27741 -0.00257 0.94653 0.0
C1129 C 0.47441 0.00417 0.9733 0.0
C1130 C 0.45744 0.95192 0.95546 0.0
C1131 C 0.65186 0.96957 0.95318 0.0
C1132 C 0.70543 0.97739 0.95349 0.0
C1133 C 0.7401 0.96512 0.96052 0.0
C1134 C 0.79177 0.97079 0.96031 0.0
C1135 C 0.81016 0.98889 0.95304 0.0
C1136 C 0.77503 0.00152 0.94618 0.0
C1137 C 0.72321 -0.00415 0.94642 0.0
C1138 C 0.50193 0.98409 0.92921 0.0
C1139 C 0.54953 0.04235 0.94784 0.0
O1140 O 0.37814 0.00488 0.93784 0.0
O1141 O 0.37984 0.03542 0.94955 0.0
O1142 O 0.49973 -0.0021 0.96442 0.0
O1143 O 0.43223 0.0139 0.97002 0.0
O1144 O 0.50532 0.95498 0.9583 0.0
O1145 O 0.42976 0.96875 0.95058 0.0
O1146 O 0.62263 0.97504 0.96205 0.0
O1147 O 0.62848 0.97041 0.94307 0.0
O1148 O 0.50654 0.00132 0.93606 0.0
O1149 O 0.52538 0.96571 0.93327 0.0
O1150 O 0.49979 0.04179 0.94615 0.0
O1151 O 0.57613 0.02355 0.95054 0.0
H1152 H 0.28115 0.05665 0.94249 0.0
H1153 H 0.18978 0.05201 0.94522 0.0
H1154 H 0.20999 0.97712 0.94922 0.0
H1155 H 0.30145 0.98202 0.94686 0.0
H1156 H 0.72733 0.95073 0.96599 0.0
H1157 H 0.81753 0.96047 0.96561 0.0
H1158 H 0.78757 0.01578 0.9406 0.0
H1159 H 0.69721 0.00566 0.94094 0.0
Pr1160 Pr 0.34304 0.72858 0.94856 0.0
Pr1161 Pr 0.23199 0.75289 0.94908 0.0
C1162 C 0.43475 0.71516 0.94051 0.0
C1163 C 0.48984 0.71802 0.94237 0.0
C1164 C 0.51027 0.72341 0.95342 0.0
C1165 C 0.56281 0.72626 0.9548 0.0
C1166 C 0.59586 0.72392 0.94514 0.0
C1167 C 0.57491 0.71848 0.93412 0.0
C1168 C 0.52258 0.71559 0.93276 0.0
C1169 C 0.31362 0.73472 0.972 0.0
C1170 C 0.32844 0.78633 0.95378 0.0
C1171 C 0.13485 0.76702 0.95185 0.0
C1172 C 0.08154 0.75902 0.95235 0.0
C1173 C 0.06424 0.73983 0.94572 0.0
C1174 C 1.01253 0.73403 0.94555 0.0
C1175 C 0.97708 0.74727 0.95203 0.0
C1176 C 0.99502 0.76606 0.9589 0.0
C1177 C 0.0466 0.77185 0.95904 0.0
C1178 C 0.28476 0.75225 0.92768 0.0
C1179 C 0.24034 0.69473 0.94735 0.0
O1180 O 0.41027 0.73347 0.93647 0.0
O1181 O 0.40897 0.70311 0.94831 0.0
O1182 O 0.28822 0.74032 0.96303 0.0
O1183 O 0.35654 0.7254 0.96889 0.0
O1184 O 0.28042 0.78294 0.95641 0.0
O1185 O 0.35736 0.76962 0.94917 0.0
O1186 O 0.1645 0.7619 0.96069 0.0
O1187 O 0.15778 0.76596 0.94169 0.0
O1188 O 0.28167 0.73561 0.93493 0.0
O1189 O 0.2588 0.7703 0.93128 0.0
O1190 O 0.29002 0.69577 0.94557 0.0
O1191 O 0.21265 0.71339 0.9497 0.0
H1192 H 0.48564 0.72553 0.96094 0.0
H1193 H 0.57745 0.7307 0.96339 0.0
H1194 H 0.59904 0.71618 0.92652 0.0
H1195 H 0.50759 0.71144 0.92416 0.0
H1196 H 0.09054 0.72959 0.94052 0.0
H1197 H 1.00029 0.71924 0.94029 0.0
H1198 H 0.96898 0.77684 0.96388 0.0
H1199 H 0.05906 0.78679 0.96417 0.0
Pr1200 Pr 0.44961 0.7271 0.83286 0.0
Pr1201 Pr 0.5602 0.75036 0.83335 0.0
C1202 C 0.35685 0.71333 0.8401 0.0
C1203 C 0.30233 0.71568 0.83751 0.0
C1204 C 0.28505 0.72668 0.82725 0.0
C1205 C 0.23289 0.72929 0.82521 0.0
C1206 C 0.19707 0.72095 0.83341 0.0
C1207 C 0.21493 0.70991 0.84365 0.0
C1208 C 0.26693 0.70732 0.84566 0.0
C1209 C 0.48185 0.73272 0.80959 0.0
C1210 C 0.46629 0.78538 0.82865 0.0
C1211 C 0.65886 0.76298 0.83284 0.0
C1212 C 0.71168 0.75615 0.83009 0.0
C1213 C 0.73148 0.73424 0.83344 0.0
C1214 C 0.78344 0.72956 0.8323 0.0
C1215 C 0.81674 0.74672 0.82781 0.0
C1216 C 0.79623 0.76823 0.82399 0.0
C1217 C 0.74437 0.77287 0.82514 0.0
C1218 C 0.50449 0.75015 0.85438 0.0
C1219 C 0.5494 0.69265 0.83251 0.0
O1220 O 0.37984 0.73209 0.84411 0.0
O1221 O 0.3845 0.70112 0.83274 0.0
O1222 O 0.50678 0.73843 0.81864 0.0
O1223 O 0.43879 0.72332 0.81253 0.0
O1224 O 0.51516 0.78232 0.82688 0.0
O1225 O 0.43553 0.76818 0.83204 0.0
O1226 O 0.62761 0.76756 0.8242 0.0
O1227 O 0.6371 0.75276 0.84181 0.0
O1228 O 0.50815 0.73337 0.84722 0.0
O1229 O 0.53128 0.76795 0.85088 0.0
O1230 O 0.50187 0.69424 0.83616 0.0
O1231 O 0.57591 0.71112 0.82923 0.0
H1232 H 0.31187 0.73333 0.82086 0.0
H1233 H 0.22063 0.73768 0.81718 0.0
H1234 H 0.18874 0.70365 0.85027 0.0
H1235 H 0.27955 0.69896 0.85369 0.0
H1236 H 0.70713 0.72101 0.83731 0.0
H1237 H 0.79779 0.71287 0.8354 0.0
H1238 H 0.82042 0.78168 0.82028 0.0
H1239 H 0.73003 0.78991 0.82251 0.0
Pr1240 Pr 0.34956 0.00945 0.83261 0.0
Pr1241 Pr 0.23996 0.98574 0.83277 0.0
C1242 C 0.44194 0.02335 0.84011 0.0
C1243 C 0.49679 0.02097 0.83781 0.0
C1244 C 0.51547 0.00622 0.82894 0.0
C1245 C 0.56796 0.00356 0.82732 0.0
C1246 C 0.6027 0.0155 0.83459 0.0
C1247 C 0.58345 0.03047 0.84335 0.0
C1248 C 0.53116 0.03314 0.84493 0.0
C1249 C 0.31883 0.004 0.80923 0.0
C1250 C 0.33426 0.95121 0.82802 0.0
C1251 C 0.14136 0.97281 0.83243 0.0
C1252 C 0.08848 0.9799 0.82994 0.0
C1253 C 0.0717 0.00305 0.83168 0.0
C1254 C 1.01997 0.00855 0.83081 0.0
C1255 C 0.98391 0.99101 0.82821 0.0
C1256 C 1.00138 0.96804 0.82606 0.0
C1257 C 0.05299 0.96259 0.82692 0.0
C1258 C 0.29504 0.98572 0.85384 0.0
C1259 C 0.24945 0.04353 0.83202 0.0
O1260 O 0.41849 0.00472 0.84414 0.0
O1261 O 0.41492 0.03539 0.83256 0.0
O1262 O 0.29349 -0.00194 0.81817 0.0
O1263 O 0.36149 0.01357 0.81232 0.0
O1264 O 0.28553 0.9542 0.82604 0.0
O1265 O 0.3644 0.9684 0.83168 0.0
O1266 O 0.17217 0.96888 0.82362 0.0
O1267 O 0.16351 0.98264 0.84144 0.0
O1268 O 0.2905 0.00284 0.84691 0.0
O1269 O 0.27074 0.9675 0.84995 0.0
O1270 O 0.2968 0.04216 0.83579 0.0
O1271 O 0.22356 0.02493 0.82867 0.0
H1272 H 0.48951 -0.00343 0.82337 0.0
H1273 H 0.5813 0.99174 0.82055 0.0
H1274 H 0.60885 0.04025 0.84899 0.0
H1275 H 0.51752 0.04462 0.85182 0.0
H1276 H 0.09838 0.01675 0.83402 0.0
H1277 H 1.00818 0.0265 0.83234 0.0
H1278 H 0.97496 0.95398 0.82418 0.0
H1279 H 0.06499 0.94457 0.82564 0.0
H1280 H 0.89472 0.43882 0.09317 0.0
H1281 H 0.02636 0.39887 0.08275 0.0
H1282 H 0.84486 0.40308 0.09415 0.0
H1283 H 0.97577 0.3629 0.0833 0.0
H1284 H 0.88424 0.29994 0.09389 0.0
H1285 H 0.93304 0.33592 0.09563 0.0
H1286 H 0.80683 0.3752 0.0815 0.0
H1287 H 0.75716 0.339 0.08019 0.0
C1288 C 0.91304 0.42233 0.09106 0.0
C1289 C 0.96446 0.42164 0.0878 0.0
C1290 C 0.88425 0.40183 0.09155 0.0
C1291 C 0.90596 0.38009 0.08868 0.0
C1292 C 0.95787 0.37931 0.08571 0.0
C1293 C 0.98694 0.39989 0.08535 0.0
C1294 C 0.8667 0.31632 0.09126 0.0
C1295 C 0.81699 0.31669 0.08682 0.0
C1296 C 0.89489 0.33693 0.09217 0.0
C1297 C 0.87433 0.35845 0.08854 0.0
C1298 C 0.8238 0.35896 0.08448 0.0
C1299 C 0.79525 0.33826 0.08371 0.0
H1300 H 0.42935 0.92823 0.06542 0.0
H1301 H 0.49915 0.90676 0.09794 0.0
H1302 H 0.37793 0.89256 0.06538 0.0
H1303 H 0.44622 0.87106 0.09802 0.0
H1304 H 0.28373 0.83009 0.09722 0.0
H1305 H 0.3367 0.86575 0.09783 0.0
H1306 H 0.40705 0.84554 0.0652 0.0
H1307 H 0.35558 0.80989 0.06473 0.0
C1308 C 0.43389 0.91575 0.07251 0.0
C1309 C 0.46838 0.92007 0.08164 0.0
C1310 C 0.40437 0.89546 0.0725 0.0
C1311 C 0.40791 0.87937 0.08176 0.0
C1312 C 0.44269 0.88346 0.09086 0.0
C1313 C 0.47327 0.90361 0.09074 0.0
C1314 C 0.31008 0.83351 0.09014 0.0
C1315 C 0.31553 0.81742 0.0809 0.0
C1316 C 0.34067 0.85364 0.09056 0.0
C1317 C 0.37604 0.85808 0.08161 0.0
C1318 C 0.38016 0.84236 0.07221 0.0
C1319 C 0.35061 0.82209 0.07193 0.0
H1320 H 0.89054 0.93308 0.20524 0.0
H1321 H 0.75667 0.90074 0.19044 0.0
H1322 H 0.93591 0.89636 0.20353 0.0
H1323 H 0.80305 0.86375 0.1885 0.0
H1324 H 0.88362 0.79691 0.20144 0.0
H1325 H 0.83758 0.83363 0.20114 0.0
H1326 H 0.97238 0.86969 0.18931 0.0
H1327 H 1.01941 0.83269 0.18987 0.0
C1328 C 0.87069 0.91815 0.20156 0.0
C1329 C 0.81971 0.91987 0.19802 0.0
C1330 C 0.89708 0.8971 0.20047 0.0
C1331 C 0.87332 0.87718 0.19579 0.0
C1332 C 0.82232 0.87879 0.19223 0.0
C1333 C 0.79572 0.89995 0.19334 0.0
C1334 C 0.9037 0.8126 0.19873 0.0
C1335 C 0.95549 0.81187 0.19576 0.0
C1336 C 0.87696 0.83366 0.19846 0.0
C1337 C 0.90121 0.85458 0.1952 0.0
C1338 C 0.95278 0.85387 0.192 0.0
C1339 C 0.9797 0.83269 0.19228 0.0
H1340 H 0.29577 0.40484 0.18606 0.0
H1341 H 0.36117 0.42713 0.21893 0.0
H1342 H 0.35297 0.37066 0.18586 0.0
H1343 H 0.41708 0.39303 0.21883 0.0
H1344 H 0.45549 0.31245 0.21931 0.0
H1345 H 0.40061 0.34696 0.21938 0.0
H1346 H 0.45748 0.36674 0.18528 0.0
H1347 H 0.51367 0.3322 0.18533 0.0
C1348 C 0.32154 0.40213 0.19332 0.0
C1349 C 0.32399 0.41842 0.20254 0.0
C1350 C 0.35461 0.38287 0.19313 0.0
C1351 C 0.38958 0.37948 0.20228 0.0
C1352 C 0.39054 0.39533 0.21168 0.0
C1353 C 0.35843 0.41473 0.21174 0.0
C1354 C 0.45702 0.32445 0.21194 0.0
C1355 C 0.48905 0.31992 0.20237 0.0
C1356 C 0.42549 0.34405 0.21195 0.0
C1357 C 0.42455 0.35924 0.20228 0.0
C1358 C 0.45733 0.35506 0.19278 0.0
C1359 C 0.48987 0.33561 0.19288 0.0
H1360 H 0.14085 0.55251 0.95822 0.0
H1361 H 1.01422 0.58362 0.93984 0.0
H1362 H 0.1881 0.58873 0.95631 0.0
H1363 H 0.06255 0.62005 0.93769 0.0
H1364 H 0.13913 0.68777 0.95027 0.0
H1365 H 0.09278 0.65128 0.95003 0.0
H1366 H 0.23092 0.61363 0.94226 0.0
H1367 H 0.27844 0.65056 0.9428 0.0
C1368 C 0.12305 0.56708 0.95371 0.0
C1369 C 0.07353 0.5652 0.94921 0.0
C1370 C 0.15054 0.58779 0.95251 0.0
C1371 C 0.12936 0.6072 0.94676 0.0
C1372 C 0.07978 0.60542 0.94225 0.0
C1373 C 0.05203 0.58461 0.9435 0.0
C1374 C 0.16003 0.67181 0.94847 0.0
C1375 C 0.21286 0.67212 0.94665 0.0
C1376 C 0.13307 0.65084 0.94822 0.0
C1377 C 0.15803 0.62956 0.9461 0.0
C1378 C 0.21071 0.62978 0.94404 0.0
C1379 C 0.23792 0.6509 0.94431 0.0
H1380 H 0.6618 0.18175 0.95926 0.0
H1381 H 0.77946 0.15134 0.93766 0.0
H1382 H 0.61224 0.14617 0.95753 0.0
H1383 H 0.72878 0.1155 0.93574 0.0
H1384 H 0.65192 0.0475 0.94841 0.0
H1385 H 0.70074 0.08331 0.94786 0.0
H1386 H 0.56309 0.12349 0.94359 0.0
H1387 H 0.51322 0.08725 0.94448 0.0
C1388 C 0.67713 0.16745 0.95409 0.0
C1389 C 0.72473 0.16935 0.94859 0.0
C1390 C 0.64829 0.14712 0.953 0.0
C1391 C 0.66618 0.12814 0.94638 0.0
C1392 C 0.71407 0.12985 0.94096 0.0
C1393 C 0.74319 0.15029 0.94209 0.0
C1394 C 0.63166 0.06389 0.94732 0.0
C1395 C 0.57835 0.0645 0.94665 0.0
C1396 C 0.65999 0.08447 0.94688 0.0
C1397 C 0.6359 0.10624 0.94571 0.0
C1398 C 0.58268 0.10692 0.94466 0.0
C1399 C 0.55411 0.08621 0.94511 0.0
H1400 H 0.10572 0.17521 0.81409 0.0
H1401 H 0.03695 0.1557 0.84704 0.0
H1402 H 0.15784 0.13979 0.8146 0.0
H1403 H 0.09059 0.12029 0.84769 0.0
H1404 H 0.25312 0.07997 0.84774 0.0
H1405 H 0.19907 0.11528 0.84771 0.0
H1406 H 0.13149 0.09288 0.81513 0.0
H1407 H 0.18402 0.0576 0.81529 0.0
C1408 C 0.10149 0.16318 0.82139 0.0
C1409 C 0.0671 0.168 0.83048 0.0
C1410 C 0.13144 0.14304 0.8217 0.0
C1411 C 0.12846 0.1276 0.83124 0.0
C1412 C 0.09371 0.13217 0.84031 0.0
C1413 C 0.06271 0.15215 0.83986 0.0
C1414 C 0.22713 0.08284 0.84053 0.0
C1415 C 0.2228 0.06622 0.83149 0.0
C1416 C 0.19591 0.10277 0.84059 0.0
C1417 C 0.16101 0.10652 0.83146 0.0
C1418 C 0.158 0.09027 0.82227 0.0
C1419 C 0.18816 0.0702 0.82235 0.0
H1420 H 0.5445 0.65646 0.84837 0.0
H1421 H 0.61516 0.67804 0.81595 0.0
H1422 H 0.59801 0.62099 0.8486 0.0
H1423 H 0.66715 0.64257 0.81604 0.0
H1424 H 0.69195 0.56007 0.81552 0.0
H1425 H 0.64024 0.59564 0.81572 0.0
H1426 H 0.70647 0.61574 0.84882 0.0
H1427 H 0.7597 0.58018 0.84848 0.0
C1428 C 0.5707 0.65338 0.84122 0.0
C1429 C 0.57563 0.66983 0.83211 0.0
C1430 C 0.60161 0.63335 0.84142 0.0
C1431 C 0.63681 0.62932 0.83239 0.0
C1432 C 0.6404 0.64539 0.82312 0.0
C1433 C 0.61055 0.66557 0.82305 0.0
C1434 C 0.69603 0.57226 0.82276 0.0
C1435 C 0.73003 0.56756 0.83194 0.0
C1436 C 0.66633 0.59249 0.82289 0.0
C1437 C 0.66913 0.60815 0.83234 0.0
C1438 C 0.70348 0.6037 0.8415 0.0
C1439 C 0.73425 0.58362 0.84123 0.0
H1440 H 0.94478 0.92547 0.56325 0.0
H1441 H 1.0088 0.9045 0.59647 0.0
H1442 H 0.89085 0.89062 0.56324 0.0
H1443 H 0.9535 0.8696 0.59658 0.0
H1444 H 0.79248 0.83017 0.59628 0.0
H1445 H 0.84781 0.86504 0.59651 0.0
H1446 H 0.91126 0.84431 0.5632 0.0
H1447 H 0.85729 0.80946 0.56308 0.0
C1448 C 0.94764 0.9132 0.57049 0.0
C1449 C 0.98111 0.91746 0.57982 0.0
C1450 C 0.91668 0.89339 0.5705 0.0
C1451 C 0.9178 0.8777 0.57996 0.0
C1452 C 0.95179 0.88167 0.58925 0.0
C1453 C 0.98376 0.90134 0.58911 0.0
C1454 C 0.8177 0.83338 0.58895 0.0
C1455 C 0.82056 0.81734 0.57963 0.0
C1456 C 0.84969 0.85304 0.58916 0.0
C1457 C 0.88392 0.85708 0.57992 0.0
C1458 C 0.88525 0.84148 0.57042 0.0
C1459 C 0.85427 0.82167 0.57034 0.0
H1460 H 0.39449 0.29837 0.59201 0.0
H1461 H 0.26231 0.33689 0.58068 0.0
H1462 H 0.4419 0.33468 0.59366 0.0
H1463 H 0.31061 0.37349 0.58186 0.0
H1464 H 0.39729 0.43716 0.59415 0.0
H1465 H 0.34947 0.40075 0.59466 0.0
H1466 H 0.48052 0.36329 0.58168 0.0
H1467 H 0.52908 0.39981 0.58162 0.0
C1468 C 0.37556 0.31467 0.58982 0.0
C1469 C 0.3247 0.31479 0.58613 0.0
C1470 C 0.40296 0.33551 0.59069 0.0
C1471 C 0.38045 0.35704 0.58776 0.0
C1472 C 0.32909 0.35724 0.58432 0.0
C1473 C 0.30135 0.33631 0.5836 0.0
C1474 C 0.41608 0.4211 0.59149 0.0
C1475 C 0.46697 0.42133 0.5878 0.0
C1476 C 0.38845 0.40024 0.59169 0.0
C1477 C 0.4108 0.37907 0.58809 0.0
C1478 C 0.46216 0.37921 0.58465 0.0
C1479 C 0.49008 0.40012 0.58459 0.0
H1480 H 0.03033 0.33493 0.69124 0.0
H1481 H 0.8952 0.29881 0.70298 0.0
H1482 H 0.9825 0.37173 0.69052 0.0
H1483 H 0.84848 0.33526 0.70251 0.0
H1484 H 0.76503 0.40104 0.69116 0.0
H1485 H 0.81307 0.36444 0.68958 0.0
H1486 H 0.94456 0.39894 0.70419 0.0
H1487 H 0.89759 0.43528 0.70553 0.0
C1488 C 0.99067 0.33482 0.69369 0.0
C1489 C 0.96686 0.31391 0.6972 0.0
C1490 C 0.96325 0.35587 0.6933 0.0
C1491 C 0.91156 0.3564 0.69643 0.0
C1492 C 0.88788 0.33545 0.69984 0.0
C1493 C 0.91507 0.31452 0.70022 0.0
C1494 C 0.80415 0.40076 0.69403 0.0
C1495 C 0.82723 0.42109 0.6985 0.0
C1496 C 0.83171 0.37982 0.69313 0.0
C1497 C 0.88279 0.37881 0.69672 0.0
C1498 C 0.9057 0.39918 0.70114 0.0
C1499 C 0.87836 0.42001 0.70201 0.0
H1500 H 0.5104 0.83065 0.68525 0.0
H1501 H 0.44401 0.8096 0.71824 0.0
H1502 H 0.45575 0.86572 0.68506 0.0
H1503 H 0.39079 0.84467 0.71817 0.0
H1504 H 0.36021 0.92639 0.71815 0.0
H1505 H 0.41354 0.89136 0.71814 0.0
H1506 H 0.34892 0.87012 0.68504 0.0
H1507 H 0.29419 0.90516 0.68518 0.0
C1508 C 0.48497 0.83381 0.69254 0.0
C1509 C 0.48145 0.81763 0.70179 0.0
C1510 C 0.4534 0.85359 0.69236 0.0
C1511 C 0.41897 0.8576 0.70155 0.0
C1512 C 0.41696 0.84185 0.71098 0.0
C1513 C 0.4475 0.82192 0.71103 0.0
C1514 C 0.35681 0.91404 0.71096 0.0
C1515 C 0.32294 0.91827 0.70171 0.0
C1516 C 0.38742 0.89413 0.71094 0.0
C1517 C 0.38555 0.87834 0.70153 0.0
C1518 C 0.35119 0.88229 0.69232 0.0
C1519 C 0.31956 0.90204 0.69248 0.0
H1520 H 1.02238 0.08371 0.43898 0.0
H1521 H 0.15259 0.05061 0.45502 0.0
H1522 H 0.07006 0.12046 0.43752 0.0
H1523 H 0.19919 0.08711 0.45381 0.0
H1524 H 0.28655 0.15076 0.44134 0.0
H1525 H 0.23916 0.11387 0.44022 0.0
H1526 H 0.10251 0.15026 0.45049 0.0
H1527 H 0.14883 0.18681 0.45132 0.0
C1528 C 0.06089 0.08429 0.44225 0.0
C1529 C 0.08348 0.06424 0.44714 0.0
C1530 C 0.08824 0.1053 0.44142 0.0
C1531 C 0.13857 0.10666 0.4455 0.0
C1532 C 0.16095 0.08658 0.45037 0.0
C1533 C 0.13384 0.06566 0.45116 0.0
C1534 C 0.24639 0.15085 0.4433 0.0
C1535 C 0.22174 0.17174 0.44648 0.0
C1536 C 0.21923 0.12974 0.44269 0.0
C1537 C 0.167 0.12915 0.44527 0.0
C1538 C 0.14242 0.15012 0.44827 0.0
C1539 C 0.16934 0.1711 0.44885 0.0
H1540 H 0.78187 0.64838 0.45022 0.0
H1541 H 0.64993 0.68725 0.43902 0.0
H1542 H 0.73223 0.61215 0.44988 0.0
H1543 H 0.60105 0.65119 0.43821 0.0
H1544 H 0.51352 0.58742 0.4521 0.0
H1545 H 0.5629 0.62366 0.45094 0.0
H1546 H 0.69118 0.58444 0.43777 0.0
H1547 H 0.64269 0.54839 0.4394 0.0
C1548 C 0.74258 0.64909 0.44749 0.0
C1549 C 0.71969 0.67061 0.44475 0.0
C1550 C 0.71407 0.62836 0.44726 0.0
C1551 C 0.66237 0.62876 0.44411 0.0
C1552 C 0.64028 0.65026 0.44095 0.0
C1553 C 0.66849 0.67092 0.44134 0.0
C1554 C 0.55208 0.58668 0.44886 0.0
C1555 C 0.57433 0.56511 0.44594 0.0
C1556 C 0.58044 0.60741 0.44816 0.0
C1557 C 0.63132 0.60696 0.44435 0.0
C1558 C 0.65266 0.58541 0.44101 0.0
C1559 C 0.62464 0.56475 0.44187 0.0
H1560 H 0.28379 0.58576 0.34188 0.0
H1561 H 0.14631 0.5502 0.33123 0.0
H1562 H 0.2366 0.62266 0.34318 0.0
H1563 H 0.10021 0.58675 0.33228 0.0
H1564 H 1.01962 0.65284 0.34358 0.0
H1565 H 0.06778 0.61633 0.3456 0.0
H1566 H 0.1974 0.64946 0.32934 0.0
H1567 H 0.15037 0.68568 0.32756 0.0
C1568 C 0.24374 0.58579 0.33981 0.0
C1569 C 0.21907 0.56506 0.33637 0.0
C1570 C 0.21671 0.60688 0.34055 0.0
C1571 C 0.16461 0.60757 0.33786 0.0
C1572 C 0.14001 0.58676 0.33461 0.0
C1573 C 0.16682 0.5658 0.33388 0.0
C1574 C 0.05842 0.65228 0.34049 0.0
C1575 C 0.08092 0.6721 0.33535 0.0
C1576 C 0.086 0.63143 0.34164 0.0
C1577 C 0.13646 0.63006 0.33765 0.0
C1578 C 0.15899 0.65002 0.33269 0.0
C1579 C 0.13163 0.67076 0.33156 0.0
H1580 H 0.77896 0.08439 0.34405 0.0
H1581 H 0.65787 0.05461 0.32327 0.0
H1582 H 0.73005 0.12066 0.34611 0.0
H1583 H 0.61006 0.09066 0.32511 0.0
H1584 H 0.51516 0.1507 0.33836 0.0
H1585 H 0.56341 0.11405 0.33917 0.0
H1586 H 0.70244 0.15288 0.33399 0.0
H1587 H 0.65519 0.18914 0.33353 0.0
C1588 C 0.74229 0.08567 0.33984 0.0
C1589 C 0.72237 0.06666 0.33351 0.0
C1590 C 0.7142 0.10636 0.34104 0.0
C1591 C 0.66591 0.10841 0.33587 0.0
C1592 C 0.6465 0.08947 0.32944 0.0
C1593 C 0.6743 0.06886 0.32828 0.0
C1594 C 0.55602 0.15137 0.33751 0.0
C1595 C 0.58109 0.17282 0.33575 0.0
C1596 C 0.58365 0.13041 0.33792 0.0
C1597 C 0.63676 0.13059 0.33659 0.0
C1598 C 0.66174 0.15212 0.33519 0.0
C1599 C 0.63433 0.17295 0.3348 0.0
H1600 H 0.08827 0.53862 0.11554 0.0
H1601 H 0.06096 0.46426 0.11839 0.0
H1602 H 0.13924 0.53752 0.13329 0.0
H1603 H 0.10778 0.46315 0.13673 0.0
H1604 H 0.22729 0.46196 0.16524 0.0
H1605 H 0.17971 0.46273 0.14697 0.0
H1606 H 0.14576 0.53625 0.15274 0.0
H1607 H 0.19739 0.53558 0.17036 0.0
C1608 C 0.09258 0.52206 0.12011 0.0
C1609 C 0.07059 0.50156 0.11558 0.0
C1610 C 0.12154 0.52137 0.13044 0.0
C1611 C 0.12806 0.50024 0.13679 0.0
C1612 C 0.10527 0.47976 0.13218 0.0
C1613 C 0.07773 0.48036 0.12165 0.0
C1614 C 0.20967 0.47825 0.16252 0.0
C1615 C 0.21639 0.49873 0.16918 0.0
C1616 C 0.18176 0.47874 0.15203 0.0
C1617 C 0.15822 0.49961 0.14807 0.0
C1618 C 0.16408 0.51992 0.15506 0.0
C1619 C 0.19338 0.51956 0.16532 0.0
H1620 H 0.23426 0.70111 0.11808 0.0
H1621 H 0.19001 0.77275 0.11131 0.0
H1622 H 0.18295 0.70094 0.13589 0.0
H1623 H 0.13742 0.7725 0.12898 0.0
H1624 H 0.08803 0.77107 0.16783 0.0
H1625 H 0.14035 0.77206 0.15011 0.0
H1626 H 0.09704 0.70052 0.1424 0.0
H1627 H 0.04602 0.69945 0.16022 0.0
C1628 C 0.21337 0.71682 0.12038 0.0
C1629 C 0.21618 0.73692 0.11326 0.0
C1630 C 0.18358 0.71669 0.13057 0.0
C1631 C 0.15563 0.73668 0.13393 0.0
C1632 C 0.15875 0.75686 0.1268 0.0
C1633 C 0.18867 0.75697 0.11661 0.0
C1634 C 0.08973 0.75558 0.16233 0.0
C1635 C 0.06293 0.73516 0.16545 0.0
C1636 C 0.11953 0.75617 0.15212 0.0
C1637 C 0.12327 0.73634 0.14476 0.0
C1638 C 0.09596 0.71601 0.14789 0.0
C1639 C 0.0663 0.71544 0.15809 0.0
H1640 H 0.80823 0.45125 0.87018 0.0
H1641 H 0.8552 0.5226 0.86352 0.0
H1642 H 0.85715 0.45102 0.88832 0.0
H1643 H 0.9053 0.52229 0.88157 0.0
H1644 H 0.94794 0.52147 0.92077 0.0
H1645 H 0.89834 0.52214 0.90266 0.0
H1646 H 0.94202 0.45038 0.89567 0.0
H1647 H 0.99048 0.44964 0.9139 0.0
C1648 C 0.82923 0.46688 0.87257 0.0
C1649 C 0.82776 0.48694 0.86539 0.0
C1650 C 0.85764 0.46671 0.88296 0.0
C1651 C 0.8855 0.48662 0.88649 0.0
C1652 C 0.88393 0.50672 0.87927 0.0
C1653 C 0.85544 0.50687 0.86887 0.0
C1654 C 0.94684 0.50583 0.91536 0.0
C1655 C 0.97307 0.48548 0.9188 0.0
C1656 C 0.91865 0.50625 0.90492 0.0
C1657 C 0.91595 0.48632 0.89762 0.0
C1658 C 0.94243 0.46599 0.9011 0.0
C1659 C 0.97056 0.46558 0.91153 0.0
H1660 H 0.99065 0.28388 0.86825 0.0
H1661 H 0.94393 0.21251 0.86159 0.0
H1662 H 0.94247 0.28389 0.88652 0.0
H1663 H 0.89457 0.2126 0.87976 0.0
H1664 H 0.85276 0.21319 0.91902 0.0
H1665 H 0.90218 0.21266 0.90087 0.0
H1666 H 0.85768 0.28434 0.89394 0.0
H1667 H 0.80942 0.28493 0.9122 0.0
C1668 C 0.96987 0.2682 0.87067 0.0
C1669 C 0.97114 0.24821 0.86346 0.0
C1670 C 0.94189 0.26823 0.88113 0.0
C1671 C 0.9143 0.24826 0.88468 0.0
C1672 C 0.91575 0.22821 0.87744 0.0
C1673 C 0.9438 0.22819 0.86696 0.0
C1674 C 0.85367 0.22883 0.91362 0.0
C1675 C 0.82723 0.24912 0.91707 0.0
C1676 C 0.88175 0.2285 0.90315 0.0
C1677 C 0.88413 0.24846 0.89585 0.0
C1678 C 0.8575 0.26873 0.89936 0.0
C1679 C 0.82949 0.26905 0.90982 0.0
H1680 H 0.069 0.96033 0.61715 0.0
H1681 H 0.10103 0.034 0.61283 0.0
H1682 H 0.11503 0.96017 0.63563 0.0
H1683 H 0.15125 0.03375 0.63068 0.0
H1684 H 0.2063 0.03454 0.66795 0.0
H1685 H 0.1559 0.03419 0.65014 0.0
H1686 H 0.18634 0.95985 0.64613 0.0
H1687 H 0.23257 0.96021 0.66458 0.0
C1688 C 0.08672 0.97644 0.62011 0.0
C1689 C 0.08108 -0.00279 0.61362 0.0
C1690 C 0.11375 0.97639 0.63071 0.0
C1691 C 0.13747 -0.00302 0.63495 0.0
C1692 C 0.13267 0.01761 0.62813 0.0
C1693 C 0.10419 0.01778 0.61775 0.0
C1694 C 0.20181 0.01814 0.66325 0.0
C1695 C 0.22339 -0.00258 0.66764 0.0
C1696 C 0.17324 0.01789 0.65288 0.0
C1697 C 0.1668 -0.00297 0.64634 0.0
C1698 C 0.18893 0.97629 0.65083 0.0
C1699 C 0.21607 0.97644 0.66143 0.0
H1700 H 0.19803 0.26986 0.61175 0.0
H1701 H 0.24305 0.19834 0.61858 0.0
H1702 H 0.14661 0.26979 0.62957 0.0
H1703 H 0.19286 0.19837 0.63658 0.0
H1704 H 0.05674 0.19775 0.66151 0.0
H1705 H 0.10764 0.19804 0.64364 0.0
H1706 H 0.15107 0.26988 0.65057 0.0
H1707 H 0.0989 0.26968 0.6683 0.0
C1708 C 0.1971 0.25413 0.6171 0.0
C1709 C 0.22451 0.23408 0.61371 0.0
C1710 C 0.16787 0.25413 0.62738 0.0
C1711 C 0.16535 0.23407 0.63461 0.0
C1712 C 0.1931 0.21405 0.63121 0.0
C1713 C 0.22224 0.21406 0.6209 0.0
C1714 C 0.07712 0.21361 0.65921 0.0
C1715 C 0.07373 0.23368 0.66634 0.0
C1716 C 0.10668 0.21375 0.64898 0.0
C1717 C 0.1338 0.23397 0.64558 0.0
C1718 C 0.13032 0.25406 0.65276 0.0
C1719 C 0.10065 0.25392 0.66299 0.0
H1720 H 0.9531 0.02046 0.41867 0.0
H1721 H 0.99475 0.94868 0.41139 0.0
H1722 H 0.90045 0.02111 0.40104 0.0
H1723 H 0.94335 0.94943 0.3936 0.0
H1724 H 0.85111 0.02182 0.36237 0.0
H1725 H 0.90388 0.02143 0.37999 0.0
H1726 H 0.85762 0.94995 0.38692 0.0
H1727 H 0.80616 0.95024 0.36915 0.0
C1728 C 0.95115 0.00484 0.41327 0.0
C1729 C 0.978 0.98449 0.41646 0.0
C1730 C 0.92121 0.00524 0.4031 0.0
C1731 C 0.91742 0.98532 0.39581 0.0
C1732 C 0.94457 0.96501 0.39903 0.0
C1733 C 0.97439 0.96461 0.40921 0.0
C1734 C 0.85236 0.00602 0.36766 0.0
C1735 C 0.82455 0.98604 0.36433 0.0
C1736 C 0.88236 0.00583 0.37782 0.0
C1737 C 0.88526 0.98565 0.38496 0.0
C1738 C 0.85714 0.96571 0.3816 0.0
C1739 C 0.82726 0.9659 0.37143 0.0
H1740 H 0.9593 0.78774 0.36294 0.0
H1741 H 0.99027 0.71404 0.36749 0.0
H1742 H 0.90761 0.78767 0.38056 0.0
H1743 H 0.94254 0.71407 0.38577 0.0
H1744 H 0.82024 0.71416 0.41365 0.0
H1745 H 0.86932 0.71386 0.3956 0.0
H1746 H 0.90019 0.78807 0.40002 0.0
H1747 H 0.84706 0.78839 0.41744 0.0
C1748 C 0.9557 0.77156 0.36788 0.0
C1749 C 0.9789 0.75092 0.36385 0.0
C1750 C 0.92629 0.77149 0.37813 0.0
C1751 C 0.92047 0.75089 0.38491 0.0
C1752 C 0.94455 0.73027 0.38084 0.0
C1753 C 0.9726 0.73022 0.37037 0.0
C1754 C 0.83743 0.73039 0.41068 0.0
C1755 C 0.82946 0.75133 0.4169 0.0
C1756 C 0.86624 0.73025 0.40032 0.0
C1757 C 0.88943 0.75096 0.39607 0.0
C1758 C 0.88221 0.7718 0.4026 0.0
C1759 C 0.85202 0.77203 0.41273 0.0
H1760 H 0.5952 0.46567 0.61398 0.0
H1761 H 0.55177 0.5374 0.62077 0.0
H1762 H 0.64705 0.46562 0.63173 0.0
H1763 H 0.60219 0.53724 0.63871 0.0
H1764 H 0.69549 0.46573 0.6704 0.0
H1765 H 0.64338 0.46559 0.65269 0.0
H1766 H 0.68712 0.53741 0.64576 0.0
H1767 H 0.7379 0.53764 0.66365 0.0
C1768 C 0.59657 0.48141 0.6193 0.0
C1769 C 0.56952 0.50157 0.61592 0.0
C1770 C 0.62604 0.48135 0.62955 0.0
C1771 C 0.6291 0.50144 0.63675 0.0
C1772 C 0.60162 0.52154 0.63336 0.0
C1773 C 0.57231 0.5216 0.62309 0.0
C1774 C 0.69383 0.4815 0.6651 0.0
C1775 C 0.72075 0.50172 0.66847 0.0
C1776 C 0.66419 0.48138 0.65488 0.0
C1777 C 0.66079 0.50149 0.6477 0.0
C1778 C 0.68798 0.52169 0.6511 0.0
C1779 C 0.71748 0.5218 0.66134 0.0
H1780 H 0.73116 0.77525 0.61674 0.0
H1781 H 0.70428 0.70096 0.6133 0.0
H1782 H 0.6857 0.7755 0.63531 0.0
H1783 H 0.65463 0.70122 0.63123 0.0
H1784 H 0.60117 0.70111 0.66865 0.0
H1785 H 0.65072 0.70149 0.6507 0.0
H1786 H 0.61494 0.77515 0.64601 0.0
H1787 H 0.56962 0.77485 0.6646 0.0
C1788 C 0.71468 0.75901 0.61991 0.0
C1789 C 0.72162 0.73807 0.61364 0.0
C1790 C 0.68799 0.7591 0.63057 0.0
C1791 C 0.66592 0.73834 0.63508 0.0
C1792 C 0.67195 0.71752 0.62848 0.0
C1793 C 0.70009 0.71734 0.61804 0.0
C1794 C 0.6043 0.71737 0.66377 0.0
C1795 C 0.58151 0.73793 0.66801 0.0
C1796 C 0.63238 0.71762 0.65333 0.0
C1797 C 0.63709 0.73831 0.64655 0.0
C1798 C 0.61372 0.75888 0.65089 0.0
C1799 C 0.5871 0.75875 0.66156 0.0
H1800 H 0.31514 0.52094 0.36963 0.0
H1801 H 0.343 0.4469 0.3655 0.0
H1802 H 0.36294 0.52096 0.38784 0.0
H1803 H 0.39506 0.44696 0.38308 0.0
H1804 H 0.45493 0.44685 0.42016 0.0
H1805 H 0.40327 0.44689 0.4025 0.0
H1806 H 0.43513 0.52097 0.39784 0.0
H1807 H 0.48247 0.52096 0.41611 0.0
C1808 C 0.33233 0.5047 0.37257 0.0
C1809 C 0.32504 0.4839 0.36619 0.0
C1810 C 0.36044 0.50467 0.38301 0.0
C1811 C 0.38372 0.48394 0.38721 0.0
C1812 C 0.37707 0.46324 0.38055 0.0
C1813 C 0.3475 0.46316 0.37032 0.0
C1814 C 0.45054 0.46311 0.41533 0.0
C1815 C 0.47273 0.48388 0.4195 0.0
C1816 C 0.42117 0.46319 0.40506 0.0
C1817 C 0.41449 0.48392 0.39841 0.0
C1818 C 0.43764 0.50465 0.40265 0.0
C1819 C 0.46551 0.50468 0.41312 0.0
H1820 H 0.34659 0.29067 0.41843 0.0
H1821 H 0.31783 0.2167 0.41422 0.0
H1822 H 0.39772 0.29068 0.40068 0.0
H1823 H 0.36474 0.21676 0.39588 0.0
H1824 H 0.48397 0.21691 0.36747 0.0
H1825 H 0.43698 0.21679 0.3858 0.0
H1826 H 0.40437 0.29078 0.38118 0.0
H1827 H 0.45559 0.29094 0.36344 0.0
C1828 C 0.35068 0.27445 0.41356 0.0
C1829 C 0.32825 0.2537 0.41771 0.0
C1830 C 0.3797 0.27441 0.40324 0.0
C1831 C 0.38583 0.25374 0.39652 0.0
C1832 C 0.36259 0.23302 0.40074 0.0
C1833 C 0.335 0.23295 0.41127 0.0
C1834 C 0.46684 0.23313 0.37046 0.0
C1835 C 0.47374 0.25395 0.36407 0.0
C1836 C 0.43922 0.2331 0.38098 0.0
C1837 C 0.41607 0.25379 0.38525 0.0
C1838 C 0.42232 0.27453 0.37858 0.0
C1839 C 0.45139 0.27466 0.36826 0.0
H1840 H 0.73656 0.03606 0.16277 0.0
H1841 H 0.6929 0.96437 0.16972 0.0
H1842 H 0.6861 0.03575 0.14483 0.0
H1843 H 0.64129 0.96414 0.15192 0.0
H1844 H 0.59465 0.96425 0.11303 0.0
H1845 H 0.64642 0.96419 0.13081 0.0
H1846 H 0.6003 0.03555 0.13798 0.0
H1847 H 0.54968 0.03569 0.12008 0.0
C1848 C 0.71598 0.02025 0.16048 0.0
C1849 C 0.71874 0.00026 0.16769 0.0
C1850 C 0.68671 0.02009 0.15022 0.0
C1851 C 0.65931 -7e-05 0.14686 0.0
C1852 C 0.66227 0.9799 0.15409 0.0
C1853 C 0.69161 0.98007 0.16436 0.0
C1854 C 0.59567 0.97992 0.11841 0.0
C1855 C 0.56811 -1e-05 0.11512 0.0
C1856 C 0.62512 0.97986 0.12866 0.0
C1857 C 0.62776 -0.00012 0.13591 0.0
C1858 C 0.59996 0.01991 0.13258 0.0
C1859 C 0.57058 0.01996 0.12234 0.0
H1860 H 0.79611 0.25251 0.1248 0.0
H1861 H 0.66366 0.22901 0.10613 0.0
H1862 H 0.74741 0.25278 0.1432 0.0
H1863 H 0.61461 0.22963 0.12433 0.0
H1864 H 0.56044 0.20758 0.16105 0.0
H1865 H 0.61091 0.20768 0.14309 0.0
H1866 H 0.67478 0.27476 0.15273 0.0
H1867 H 0.62363 0.27475 0.1707 0.0
C1868 C 0.75647 0.24755 0.12464 0.0
C1869 C 0.73319 0.24134 0.11401 0.0
C1870 C 0.72849 0.24784 0.13514 0.0
C1871 C 0.67691 0.24138 0.13526 0.0
C1872 C 0.65415 0.23472 0.1246 0.0
C1873 C 0.68195 0.23475 0.11412 0.0
C1874 C 0.58518 0.22238 0.15934 0.0
C1875 C 0.58796 0.24115 0.16732 0.0
C1876 C 0.61402 0.22248 0.14901 0.0
C1877 C 0.64692 0.24125 0.14642 0.0
C1878 C 0.65018 0.25993 0.15448 0.0
C1879 C 0.62073 0.25998 0.16476 0.0
H1880 H 0.3171 0.02292 0.86808 0.0
H1881 H 0.34367 0.94876 0.86395 0.0
H1882 H 0.36445 0.02266 0.88639 0.0
H1883 H 0.3951 0.94854 0.88161 0.0
H1884 H 0.45184 0.94767 0.91886 0.0
H1885 H 0.4009 0.94834 0.9011 0.0
H1886 H 0.43666 0.02205 0.89654 0.0
H1887 H 0.48342 0.02147 0.91491 0.0
C1888 C 0.33391 0.0066 0.87104 0.0
C1889 C 0.32636 0.98584 0.86465 0.0
C1890 C 0.36169 0.0064 0.88153 0.0
C1891 C 0.38424 0.98554 0.88577 0.0
C1892 C 0.37752 0.9649 0.87906 0.0
C1893 C 0.34834 0.965 0.86878 0.0
C1894 C 0.44845 0.964 0.91403 0.0
C1895 C 0.47162 0.98449 0.91825 0.0
C1896 C 0.41954 0.96442 0.90371 0.0
C1897 C 0.41429 0.98523 0.89705 0.0
C1898 C 0.43821 0.00571 0.90135 0.0
C1899 C 0.46569 0.0054 0.91188 0.0
H1900 H 0.44527 0.71442 0.86295 0.0
H1901 H 0.49047 0.78586 0.86999 0.0
H1902 H 0.39122 0.71483 0.88038 0.0
H1903 H 0.43782 0.78615 0.88757 0.0
H1904 H 0.30039 0.78768 0.91189 0.0
H1905 H 0.35211 0.78691 0.89413 0.0
H1906 H 0.39303 0.71488 0.90136 0.0
H1907 H 0.33997 0.71555 0.91892 0.0
C1908 C 0.44381 0.73019 0.86825 0.0
C1909 C 0.47206 0.75013 0.86506 0.0
C1910 C 0.41305 0.73039 0.87831 0.0
C1911 C 0.40988 0.75054 0.88547 0.0
C1912 C 0.43846 0.77043 0.88224 0.0
C1913 C 0.46904 0.77022 0.87218 0.0
C1914 C 0.32033 0.77167 0.90966 0.0
C1915 C 0.31615 0.75171 0.91684 0.0
C1916 C 0.35036 0.77125 0.8995 0.0
C1917 C 0.37715 0.75085 0.89624 0.0
C1918 C 0.3726 0.73083 0.90344 0.0
C1919 C 0.34242 0.73125 0.91358 0.0
H1920 H 0.11177 0.68505 0.08171 0.0
H1921 H 0.25907 0.66329 0.06907 0.0
H1922 H 0.08335 0.64421 0.08117 0.0
H1923 H 0.23047 0.62277 0.0685 0.0
H1924 H 0.17716 0.55152 0.08428 0.0
H1925 H 0.20672 0.59217 0.08317 0.0
H1926 H 0.06606 0.61244 0.0667 0.0
H1927 H 0.03638 0.57215 0.06781 0.0
C1928 C 0.13789 0.67166 0.07871 0.0
C1929 C 0.1877 0.67747 0.07548 0.0
C1930 C 0.1216 0.64829 0.07838 0.0
C1931 C 0.15489 0.63033 0.07486 0.0
C1932 C 0.20428 0.6362 0.07141 0.0
C1933 C 0.22046 0.6595 0.07168 0.0
C1934 C 0.15283 0.5646 0.0803 0.0
C1935 C 0.10432 0.55858 0.07622 0.0
C1936 C 0.16974 0.58785 0.07966 0.0
C1937 C 0.13838 0.60548 0.07496 0.0
C1938 C 0.09062 0.59931 0.07056 0.0
C1939 C 0.07384 0.57614 0.07115 0.0
H1940 H 0.02827 0.65589 0.19567 0.0
H1941 H 0.1658 0.68451 0.21036 0.0
H1942 H 0.06184 0.61649 0.19758 0.0
H1943 H 0.19871 0.64477 0.21306 0.0
H1944 H 0.26387 0.57322 0.20357 0.0
H1945 H 0.23117 0.61289 0.20301 0.0
H1946 H 0.0807 0.58648 0.21051 0.0
H1947 H 0.11344 0.54642 0.21027 0.0
C1948 C 0.06561 0.65364 0.19946 0.0
C1949 C 0.09459 0.67313 0.20287 0.0
C1950 C 0.0847 0.631 0.20068 0.0
C1951 C 0.13284 0.62728 0.2056 0.0
C1952 C 0.16178 0.64692 0.20907 0.0
C1953 C 0.14303 0.66969 0.20757 0.0
C1954 C 0.22383 0.5759 0.2052 0.0
C1955 C 0.19106 0.55676 0.20693 0.0
C1956 C 0.20508 0.59874 0.20495 0.0
C1957 C 0.15319 0.60304 0.20667 0.0
C1958 C 0.1207 0.58385 0.20886 0.0
C1959 C 0.13938 0.56089 0.20883 0.0
H1960 H 0.93194 0.30064 0.94881 0.0
H1961 H 0.78719 0.32155 0.96328 0.0
H1962 H 0.96101 0.34131 0.95002 0.0
H1963 H 0.81646 0.36188 0.96452 0.0
H1964 H 0.86655 0.43392 0.94949 0.0
H1965 H 0.83763 0.39319 0.95002 0.0
H1966 H 0.98074 0.37198 0.96502 0.0
H1967 H 1.0099 0.41241 0.96446 0.0
C1968 C 0.90657 0.3138 0.95235 0.0
C1969 C 0.85719 0.30787 0.95586 0.0
C1970 C 0.92322 0.33704 0.95307 0.0
C1971 C 0.89072 0.3547 0.95728 0.0
C1972 C 0.84193 0.34866 0.96107 0.0
C1973 C 0.82538 0.32549 0.9604 0.0
C1974 C 0.89163 0.42061 0.95301 0.0
C1975 C 0.94058 0.42641 0.95686 0.0
C1976 C 0.87506 0.39733 0.95332 0.0
C1977 C 0.90721 0.37948 0.95747 0.0
C1978 C 0.95556 0.38536 0.96161 0.0
C1979 C 0.97203 0.40858 0.96134 0.0
H1980 H 0.78549 0.41332 0.82054 0.0
H1981 H 0.93142 0.43459 0.83419 0.0
H1982 H 0.8145 0.37292 0.81948 0.0
H1983 H 0.96019 0.39388 0.83322 0.0
H1984 H 1.00909 0.32255 0.819 0.0
H1985 H 0.98005 0.36302 0.81873 0.0
H1986 H 0.83643 0.34132 0.83335 0.0
H1987 H 0.86518 0.30058 0.83353 0.0
C1988 C 0.82386 0.40944 0.8233 0.0
C1989 C 0.85612 0.42724 0.8275 0.0
C1990 C 0.8403 0.3862 0.82275 0.0
C1991 C 0.88943 0.3802 0.82634 0.0
C1992 C 0.92217 0.39803 0.8303 0.0
C1993 C 0.90567 0.42133 0.83089 0.0
C1994 C 0.97115 0.3263 0.82211 0.0
C1995 C 0.93948 0.30828 0.82633 0.0
C1996 C 0.95472 0.34956 0.82202 0.0
C1997 C 0.90617 0.35537 0.8261 0.0
C1998 C 0.87397 0.33733 0.83007 0.0
C1999 C 0.89047 0.314 0.83019 0.0
H2000 H 0.18445 0.0498 0.58238 0.0
H2001 H 0.0387 0.07104 0.56863 0.0
H2002 H 0.21277 0.09065 0.58173 0.0
H2003 H 0.06719 0.11156 0.56795 0.0
H2004 H 0.11734 0.18333 0.58325 0.0
H2005 H 0.08885 0.14251 0.58256 0.0
H2006 H 0.2316 0.12205 0.56711 0.0
H2007 H 0.26028 0.16253 0.56782 0.0
C2008 C 0.15868 0.06307 0.57912 0.0
C2009 C 0.1093 0.05714 0.57561 0.0
C2010 C 0.17489 0.08644 0.57873 0.0
C2011 C 0.14195 0.10426 0.57486 0.0
C2012 C 0.09306 0.09824 0.57113 0.0
C2013 C 0.07695 0.07495 0.57147 0.0
C2014 C 0.14243 0.17016 0.57961 0.0
C2015 C 0.19112 0.17621 0.57565 0.0
C2016 C 0.12611 0.14681 0.5792 0.0
C2017 C 0.15826 0.12912 0.57487 0.0
C2018 C 0.20639 0.13526 0.57067 0.0
C2019 C 0.22259 0.15854 0.57102 0.0
H2020 H 0.17698 0.1857 0.70977 0.0
H2021 H 0.03154 0.15885 0.69877 0.0
H2022 H 0.20881 0.14555 0.71146 0.0
H2023 H 0.06367 0.11911 0.69963 0.0
H2024 H 0.11907 0.04791 0.70998 0.0
H2025 H 0.08776 0.08814 0.71129 0.0
H2026 H 0.2348 0.11393 0.70036 0.0
H2027 H 0.26641 0.074 0.69989 0.0
C2028 C 0.15207 0.17118 0.70764 0.0
C2029 C 0.10187 0.17529 0.70421 0.0
C2030 C 0.17023 0.14818 0.70853 0.0
C2031 C 0.13885 0.12892 0.70569 0.0
C2032 C 0.08867 0.13328 0.7022 0.0
C2033 C 0.07029 0.15615 0.7016 0.0
C2034 C 0.14453 0.06229 0.70796 0.0
C2035 C 0.19503 0.05794 0.70487 0.0
C2036 C 0.12667 0.08535 0.70863 0.0
C2037 C 0.15864 0.10445 0.70588 0.0
C2038 C 0.20926 0.09988 0.7028 0.0
C2039 C 0.22735 0.07692 0.70243 0.0
H2040 H 0.7853 0.8247 0.45073 0.0
H2041 H 0.93311 0.79771 0.45974 0.0
H2042 H 0.81756 0.86441 0.4514 0.0
H2043 H 0.96526 0.83785 0.46126 0.0
H2044 H 1.02037 0.90905 0.44859 0.0
H2045 H 0.98852 0.86923 0.44971 0.0
H2046 H 0.84489 0.89552 0.46256 0.0
H2047 H 0.87628 0.93569 0.46059 0.0
C2048 C 0.82463 0.82735 0.45311 0.0
C2049 C 0.85682 0.80817 0.45519 0.0
C2050 C 0.84311 0.85021 0.4536 0.0
C2051 C 0.89407 0.85453 0.45643 0.0
C2052 C 0.92602 0.83525 0.45882 0.0
C2053 C 0.9077 0.81224 0.45804 0.0
C2054 C 0.982 0.90627 0.45169 0.0
C2055 C 0.95061 0.92536 0.45448 0.0
C2056 C 0.96382 0.88337 0.45245 0.0
C2057 C 0.91408 0.87896 0.45627 0.0
C2058 C 0.88306 0.89819 0.45934 0.0
C2059 C 0.90095 0.92121 0.45829 0.0
H2060 H 1.01557 0.82647 0.33075 0.0
H2061 H 0.86745 0.8 0.32159 0.0
H2062 H 0.9837 0.86628 0.33038 0.0
H2063 H 0.83568 0.84023 0.32035 0.0
H2064 H 0.78197 0.91166 0.33288 0.0
H2065 H 0.81311 0.87168 0.332 0.0
H2066 H 0.95713 0.89722 0.31894 0.0
H2067 H 0.9265 0.93752 0.32068 0.0
C2068 C 0.97622 0.8293 0.32843 0.0
C2069 C 0.94382 0.81029 0.32619 0.0
C2070 C 0.95799 0.85218 0.32811 0.0
C2071 C 0.90713 0.85663 0.32526 0.0
C2072 C 0.87487 0.83749 0.3228 0.0
C2073 C 0.89294 0.81446 0.32343 0.0
C2074 C 0.82027 0.90865 0.32979 0.0
C2075 C 0.85205 0.92753 0.32687 0.0
C2076 C 0.83803 0.8857 0.32918 0.0
C2077 C 0.88765 0.88107 0.32536 0.0
C2078 C 0.91904 0.90009 0.32216 0.0
C2079 C 0.9016 0.92316 0.32308 0.0
H2080 H 0.53068 0.57567 0.58222 0.0
H2081 H 0.67873 0.54945 0.57289 0.0
H2082 H 0.56188 0.61559 0.58135 0.0
H2083 H 0.70976 0.58973 0.57114 0.0
H2084 H 0.76394 0.66195 0.58229 0.0
H2085 H 0.73316 0.62186 0.58204 0.0
H2086 H 0.58713 0.64648 0.56985 0.0
H2087 H 0.61751 0.68691 0.57098 0.0
C2088 C 0.56985 0.57855 0.57974 0.0
C2089 C 0.6024 0.55955 0.57761 0.0
C2090 C 0.58772 0.60152 0.57914 0.0
C2091 C 0.6384 0.60611 0.5761 0.0
C2092 C 0.67076 0.58696 0.57373 0.0
C2093 C 0.65307 0.56387 0.57465 0.0
C2094 C 0.72527 0.65873 0.57952 0.0
C2095 C 0.69295 0.67744 0.57667 0.0
C2096 C 0.70766 0.63568 0.57928 0.0
C2097 C 0.65758 0.63071 0.57588 0.0
C2098 C 0.6256 0.64955 0.57276 0.0
C2099 C 0.64293 0.67273 0.57332 0.0
H2100 H 0.61803 0.55184 0.69976 0.0
H2101 H 0.7612 0.57327 0.71484 0.0
H2102 H 0.5889 0.59253 0.70046 0.0
H2103 H 0.73187 0.61365 0.71558 0.0
H2104 H 0.68427 0.68532 0.69978 0.0
H2105 H 0.71282 0.64457 0.70085 0.0
H2106 H 0.56712 0.6239 0.71473 0.0
H2107 H 0.53836 0.66432 0.71361 0.0
C2108 C 0.643 0.56511 0.70335 0.0
C2109 C 0.69202 0.55931 0.70715 0.0
C2110 C 0.62632 0.58839 0.70377 0.0
C2111 C 0.65839 0.60625 0.70797 0.0
C2112 C 0.70672 0.60031 0.71211 0.0
C2113 C 0.72331 0.57711 0.71173 0.0
C2114 C 0.65851 0.67212 0.70315 0.0
C2115 C 0.609 0.67808 0.70654 0.0
C2116 C 0.67487 0.64881 0.70379 0.0
C2117 C 0.64198 0.63108 0.7078 0.0
C2118 C 0.59297 0.63714 0.71143 0.0
C2119 C 0.57669 0.66038 0.71084 0.0
H2120 H 0.36506 0.43477 0.45133 0.0
H2121 H 0.50888 0.41447 0.46646 0.0
H2122 H 0.33723 0.39386 0.45211 0.0
H2123 H 0.48089 0.37384 0.4672 0.0
H2124 H 0.43271 0.30216 0.45042 0.0
H2125 H 0.46145 0.3429 0.45193 0.0
H2126 H 0.3176 0.36256 0.46707 0.0
H2127 H 0.28879 0.32218 0.46563 0.0
C2128 C 0.39046 0.4217 0.45494 0.0
C2129 C 0.4392 0.42789 0.45878 0.0
C2130 C 0.37452 0.39831 0.4554 0.0
C2131 C 0.40717 0.38074 0.45964 0.0
C2132 C 0.45532 0.38701 0.46375 0.0
C2133 C 0.47109 0.41035 0.46338 0.0
C2134 C 0.4075 0.31511 0.45421 0.0
C2135 C 0.35836 0.30893 0.4578 0.0
C2136 C 0.42395 0.33839 0.45508 0.0
C2137 C 0.39142 0.35584 0.4595 0.0
C2138 C 0.34306 0.34951 0.46346 0.0
C2139 C 0.32677 0.32631 0.46266 0.0
H2140 H 0.51595 0.32611 0.32955 0.0
H2141 H 0.36699 0.29949 0.3212 0.0
H2142 H 0.48417 0.36586 0.32913 0.0
H2143 H 0.33523 0.33972 0.31993 0.0
H2144 H 0.28266 0.41046 0.33374 0.0
H2145 H 0.31389 0.37064 0.33202 0.0
H2146 H 0.4558 0.39721 0.31824 0.0
H2147 H 0.42514 0.43735 0.32083 0.0
C2148 C 0.47646 0.32887 0.32735 0.0
C2149 C 0.44378 0.3098 0.32542 0.0
C2150 C 0.45826 0.35174 0.327 0.0
C2151 C 0.40709 0.35616 0.32446 0.0
C2152 C 0.37467 0.337 0.32215 0.0
C2153 C 0.39274 0.31397 0.3228 0.0
C2154 C 0.32052 0.40772 0.33031 0.0
C2155 C 0.35173 0.42683 0.32745 0.0
C2156 C 0.3383 0.38485 0.32921 0.0
C2157 C 0.38736 0.38055 0.32494 0.0
C2158 C 0.41816 0.39982 0.32179 0.0
C2159 C 0.40072 0.4228 0.3232 0.0
H2160 H 0.67146 0.05088 0.07312 0.0
H2161 H 0.52188 0.07585 0.08206 0.0
H2162 H 0.7011 0.09141 0.07163 0.0
H2163 H 0.55171 0.11605 0.08135 0.0
H2164 H 0.60731 0.18789 0.07086 0.0
H2165 H 0.57736 0.14731 0.06985 0.0
H2166 H 0.72209 0.12333 0.08309 0.0
H2167 H 0.75242 0.16344 0.08335 0.0
C2168 C 0.64513 0.06506 0.07485 0.0
C2169 C 0.59448 0.06028 0.07765 0.0
C2170 C 0.66203 0.0883 0.07407 0.0
C2171 C 0.62886 0.10716 0.0764 0.0
C2172 C 0.57816 0.10216 0.07922 0.0
C2173 C 0.5611 0.07904 0.07973 0.0
C2174 C 0.63252 0.17383 0.07348 0.0
C2175 C 0.68216 0.17872 0.07709 0.0
C2176 C 0.61544 0.15058 0.07297 0.0
C2177 C 0.64733 0.13187 0.07635 0.0
C2178 C 0.6968 0.13704 0.0801 0.0
C2179 C 0.71411 0.16012 0.08035 0.0
H2180 H 0.68524 0.18753 0.21007 0.0
H2181 H 0.5376 0.16438 0.19856 0.0
H2182 H 0.71262 0.14669 0.21157 0.0
H2183 H 0.56541 0.12386 0.19924 0.0
H2184 H 0.61449 0.05111 0.20969 0.0
H2185 H 0.58618 0.09193 0.21081 0.0
H2186 H 0.73554 0.11511 0.20012 0.0
H2187 H 0.76402 0.07477 0.1998 0.0
C2188 C 0.65893 0.17367 0.20775 0.0
C2189 C 0.60943 0.17901 0.20424 0.0
C2190 C 0.67452 0.15026 0.20854 0.0
C2191 C 0.64127 0.13182 0.2055 0.0
C2192 C 0.59178 0.1374 0.20193 0.0
C2193 C 0.57592 0.16069 0.20143 0.0
C2194 C 0.64106 0.06506 0.20767 0.0
C2195 C 0.69138 0.05987 0.20475 0.0
C2196 C 0.62494 0.08844 0.20824 0.0
C2197 C 0.65859 0.10697 0.20558 0.0
C2198 C 0.70882 0.10152 0.20255 0.0
C2199 C 0.7251 0.0783 0.20227 0.0
H2200 H 0.42378 0.80257 0.94858 0.0
H2201 H 0.27877 0.82434 0.9626 0.0
H2202 H 0.454 0.84305 0.94998 0.0
H2203 H 0.30916 0.86446 0.964 0.0
H2204 H 0.36326 0.93619 0.94903 0.0
H2205 H 0.33266 0.89571 0.94949 0.0
H2206 H 0.4733 0.87343 0.96532 0.0
H2207 H 0.5041 0.91362 0.96486 0.0
C2208 C 0.39857 0.81587 0.95205 0.0
C2209 C 0.34884 0.81023 0.95541 0.0
C2210 C 0.41589 0.839 0.95288 0.0
C2211 C 0.38367 0.85684 0.95702 0.0
C2212 C 0.33445 0.8511 0.96062 0.0
C2213 C 0.31726 0.82804 0.95986 0.0
C2214 C 0.3874 0.92271 0.95273 0.0
C2215 C 0.43619 0.92811 0.95683 0.0
C2216 C 0.36988 0.89957 0.95301 0.0
C2217 C 0.40093 0.88148 0.95735 0.0
C2218 C 0.449 0.887 0.96176 0.0
C2219 C 0.4664 0.91008 0.96155 0.0
H2220 H 0.37145 0.79941 0.82197 0.0
H2221 H 0.51723 0.82561 0.8331 0.0
H2222 H 0.34034 0.83964 0.82033 0.0
H2223 H 0.48573 0.86552 0.8323 0.0
H2224 H 0.4304 0.93724 0.82228 0.0
H2225 H 0.46194 0.89701 0.82098 0.0
H2226 H 0.31431 0.87107 0.83138 0.0
H2227 H 0.28258 0.91092 0.83183 0.0
C2228 C 0.3966 0.81381 0.82416 0.0
C2229 C 0.44666 0.80947 0.82761 0.0
C2230 C 0.37883 0.83689 0.82329 0.0
C2231 C 0.41041 0.85604 0.8262 0.0
C2232 C 0.46052 0.85146 0.8297 0.0
C2233 C 0.47855 0.82849 0.83026 0.0
C2234 C 0.40486 0.92282 0.82417 0.0
C2235 C 0.35412 0.92713 0.82708 0.0
C2236 C 0.42286 0.89975 0.82352 0.0
C2237 C 0.39077 0.88058 0.82609 0.0
C2238 C 0.33999 0.88514 0.82903 0.0
C2239 C 0.3218 0.90808 0.82939 0.0
H2240 H 0.67513 0.48466 0.1003 0.0
H2241 H 0.66019 0.49952 0.06332 0.0
H2242 H 0.58409 0.47791 0.10159 0.0
H2243 H 0.56886 0.49374 0.06472 0.0
H2244 H 0.41153 0.46003 0.06914 0.0
H2245 H 0.5032 0.46491 0.06747 0.0
H2246 H 0.50594 0.49937 0.1012 0.0
H2247 H 0.41459 0.49443 0.10287 0.0
C2248 C 0.65257 0.48635 0.09241 0.0
C2249 C 0.67536 0.4927 0.0817 0.0
C2250 C 0.60008 0.48278 0.09319 0.0
C2251 C 0.5687 0.48543 0.08328 0.0
C2252 C 0.59161 0.49136 0.07253 0.0
C2253 C 0.64411 0.49495 0.07175 0.0
C2254 C 0.4316 0.46883 0.07615 0.0
C2255 C 0.40539 0.47672 0.08616 0.0
C2256 C 0.48432 0.47163 0.07521 0.0
C2257 C 0.51237 0.48243 0.08423 0.0
C2258 C 0.48602 0.49051 0.09417 0.0
C2259 C 0.43341 0.4877 0.09513 0.0
H2260 H 0.61011 0.76473 0.0938 0.0
H2261 H 0.62897 0.73275 0.05974 0.0
H2262 H 0.70128 0.77079 0.09509 0.0
H2263 H 0.7206 0.73806 0.06123 0.0
H2264 H 0.87984 0.77165 0.06359 0.0
H2265 H 0.78815 0.7673 0.06143 0.0
H2266 H 0.77657 0.74738 0.09787 0.0
H2267 H 0.86783 0.75169 0.10003 0.0
C2268 C 0.6336 0.75918 0.08652 0.0
C2269 C 0.61196 0.74824 0.07666 0.0
C2270 C 0.68609 0.76237 0.08734 0.0
C2271 C 0.71854 0.75473 0.07831 0.0
C2272 C 0.69685 0.74429 0.06832 0.0
C2273 C 0.64428 0.74104 0.06752 0.0
C2274 C 0.85778 0.76614 0.07111 0.0
C2275 C 0.88137 0.76219 0.08201 0.0
C2276 C 0.80514 0.76366 0.06988 0.0
C2277 C 0.77473 0.75717 0.0795 0.0
C2278 C 0.7985 0.75292 0.09033 0.0
C2279 C 0.85098 0.75538 0.09157 0.0
H2280 H 0.65963 0.74876 0.18112 0.0
H2281 H 0.65583 0.7273 0.21743 0.0
H2282 H 0.56785 0.75363 0.18133 0.0
H2283 H 0.56402 0.73214 0.21765 0.0
H2284 H 0.40567 0.76569 0.21696 0.0
H2285 H 0.49759 0.76123 0.21692 0.0
H2286 H 0.4905 0.73108 0.18222 0.0
H2287 H 0.39883 0.73634 0.18208 0.0
C2288 C 0.63924 0.74494 0.18914 0.0
C2289 C 0.66539 0.73761 0.19925 0.0
C2290 C 0.58647 0.7477 0.18926 0.0
C2291 C 0.55822 0.7432 0.19949 0.0
C2292 C 0.58442 0.73609 0.20964 0.0
C2293 C 0.63723 0.73334 0.20952 0.0
C2294 C 0.4237 0.75824 0.20928 0.0
C2295 C 0.39459 0.75143 0.19951 0.0
C2296 C 0.47649 0.75545 0.20931 0.0
C2297 C 0.50176 0.74583 0.19956 0.0
C2298 C 0.47258 0.73883 0.18983 0.0
C2299 C 0.41979 0.74156 0.18981 0.0
H2300 H 0.86819 0.43671 0.19845 0.0
H2301 H 0.88807 0.50994 0.20721 0.0
H2302 H 0.77672 0.44109 0.20041 0.0
H2303 H 0.79654 0.51456 0.20864 0.0
H2304 H 0.63234 0.51108 0.22067 0.0
H2305 H 0.72369 0.50469 0.22026 0.0
H2306 H 0.70608 0.45863 0.19045 0.0
H2307 H 0.61482 0.46497 0.19089 0.0
C2308 C 0.85319 0.45373 0.20086 0.0
C2309 C 0.88586 0.47297 0.20266 0.0
C2310 C 0.80052 0.45632 0.20184 0.0
C2311 C 0.77891 0.47821 0.20465 0.0
C2312 C 0.81162 0.49736 0.20659 0.0
C2313 C 0.86426 0.49478 0.20562 0.0
C2314 C 0.64792 0.49961 0.21401 0.0
C2315 C 0.61596 0.4886 0.20579 0.0
C2316 C 0.70044 0.49597 0.21376 0.0
C2317 C 0.7226 0.48122 0.20528 0.0
C2318 C 0.69051 0.46984 0.19722 0.0
C2319 C 0.63799 0.47347 0.19747 0.0
H2320 H 0.63383 0.52053 0.96789 0.0
H2321 H 0.62332 0.49981 0.93155 0.0
H2322 H 0.54217 0.516 0.96994 0.0
H2323 H 0.53205 0.49524 0.93359 0.0
H2324 H 0.36456 0.51106 0.9374 0.0
H2325 H 0.4556 0.51761 0.93605 0.0
H2326 H 0.47536 0.48694 0.97039 0.0
H2327 H 0.38397 0.48127 0.97194 0.0
C2328 C 0.6121 0.51481 0.96036 0.0
C2329 C 0.63616 0.51067 0.94954 0.0
C2330 C 0.55944 0.51222 0.96153 0.0
C2331 C 0.52939 0.50539 0.95191 0.0
C2332 C 0.55361 0.50102 0.94113 0.0
C2333 C 0.60614 0.50362 0.93997 0.0
C2334 C 0.38812 0.50607 0.94476 0.0
C2335 C 0.36662 0.49559 0.95478 0.0
C2336 C 0.44057 0.50953 0.94392 0.0
C2337 C 0.47317 0.50263 0.95307 0.0
C2338 C 0.45159 0.49263 0.9632 0.0
C2339 C 0.39909 0.48914 0.96403 0.0
H2340 H 0.41065 0.27747 0.95102 0.0
H2341 H 0.43489 0.20366 0.95767 0.0
H2342 H 0.31966 0.27084 0.9503 0.0
H2343 H 0.3435 0.197 0.95695 0.0
H2344 H 0.183 0.19051 0.94123 0.0
H2345 H 0.27401 0.19646 0.94323 0.0
H2346 H 0.24668 0.26112 0.96198 0.0
H2347 H 0.15562 0.25566 0.95955 0.0
C2348 C 0.39661 0.25985 0.95251 0.0
C2349 C 0.43042 0.24113 0.95444 0.0
C2350 C 0.34421 0.25604 0.95209 0.0
C2351 C 0.32393 0.23337 0.95358 0.0
C2352 C 0.35767 0.21464 0.9556 0.0
C2353 C 0.41018 0.21846 0.95602 0.0
C2354 C 0.19632 0.20609 0.94572 0.0
C2355 C 0.16168 0.22268 0.95015 0.0
C2356 C 0.24866 0.20935 0.947 0.0
C2357 C 0.26798 0.22931 0.95274 0.0
C2358 C 0.23334 0.24568 0.95737 0.0
C2359 C 0.18096 0.24241 0.9561 0.0
H2360 H 0.61854 0.2298 0.85032 0.0
H2361 H 0.63333 0.21727 0.81313 0.0
H2362 H 0.52738 0.23423 0.84805 0.0
H2363 H 0.54175 0.22167 0.81085 0.0
H2364 H 0.38253 0.2558 0.81005 0.0
H2365 H 0.47396 0.25031 0.81168 0.0
H2366 H 0.45219 0.21185 0.84394 0.0
H2367 H 0.36115 0.21815 0.84256 0.0
C2368 C 0.60232 0.22775 0.84166 0.0
C2369 C 0.63348 0.22303 0.83192 0.0
C2370 C 0.54987 0.23027 0.84035 0.0
C2371 C 0.52688 0.22815 0.82927 0.0
C2372 C 0.55807 0.22367 0.8195 0.0
C2373 C 0.61067 0.22115 0.82081 0.0
C2374 C 0.39723 0.24623 0.81751 0.0
C2375 C 0.36421 0.23752 0.82619 0.0
C2376 C 0.44974 0.24287 0.81839 0.0
C2377 C 0.47073 0.23075 0.82798 0.0
C2378 C 0.43759 0.22159 0.83651 0.0
C2379 C 0.38515 0.22492 0.83564 0.0
H2380 H 0.1836 0.5465 0.83869 0.0
H2381 H 0.15626 0.47777 0.82397 0.0
H2382 H 0.27455 0.5406 0.83659 0.0
H2383 H 0.24721 0.47228 0.82139 0.0
H2384 H 0.41219 0.45901 0.8325 0.0
H2385 H 0.32112 0.46533 0.83317 0.0
H2386 H 0.34303 0.53753 0.8227 0.0
H2387 H 0.43452 0.53119 0.82205 0.0
C2388 C 0.19692 0.53014 0.83496 0.0
C2389 C 0.16234 0.51255 0.83159 0.0
C2390 C 0.24921 0.52687 0.83362 0.0
C2391 C 0.2685 0.50592 0.82884 0.0
C2392 C 0.23389 0.48852 0.82524 0.0
C2393 C 0.18157 0.49179 0.82659 0.0
C2394 C 0.39768 0.47616 0.83016 0.0
C2395 C 0.43096 0.49456 0.82719 0.0
C2396 C 0.34525 0.47979 0.83055 0.0
C2397 C 0.32443 0.50194 0.82798 0.0
C2398 C 0.35764 0.52032 0.8249 0.0
C2399 C 0.41019 0.51668 0.82452 0.0
H2400 H 0.43402 0.93823 0.5886 0.0
H2401 H 0.4137 0.00574 0.57196 0.0
H2402 H 0.52542 0.94213 0.58653 0.0
H2403 H 0.50527 0.01018 0.57045 0.0
H2404 H 0.67087 0.00252 0.55989 0.0
H2405 H 0.57941 -0.00371 0.56059 0.0
H2406 H 0.59475 0.96356 0.59459 0.0
H2407 H 0.68603 0.96956 0.59381 0.0
C2408 C 0.44892 0.95388 0.58444 0.0
C2409 C 0.41612 0.97166 0.58045 0.0
C2410 C 0.50157 0.95626 0.5834 0.0
C2411 C 0.52307 0.97653 0.57837 0.0
C2412 C 0.49027 -0.0058 0.57426 0.0
C2413 C 0.4376 0.99179 0.57528 0.0
C2414 C 0.6547 -0.00602 0.56751 0.0
C2415 C 0.68597 0.98653 0.57679 0.0
C2416 C 0.60215 0.99046 0.56794 0.0
C2417 C 0.57936 0.97947 0.57767 0.0
C2418 C 0.6108 0.97173 0.58686 0.0
C2419 C 0.66333 0.97517 0.58641 0.0
H2420 H 0.63938 0.20542 0.5781 0.0
H2421 H 0.61212 0.28008 0.58012 0.0
H2422 H 0.73022 0.21236 0.57923 0.0
H2423 H 0.70334 0.28707 0.5812 0.0
H2424 H 0.86633 0.28825 0.59563 0.0
H2425 H 0.77521 0.28225 0.59397 0.0
H2426 H 0.80076 0.22766 0.56835 0.0
H2427 H 0.892 0.23296 0.5704 0.0
C2428 C 0.65275 0.22337 0.57865 0.0
C2429 C 0.6182 0.24218 0.57896 0.0
C2430 C 0.70502 0.22736 0.57928 0.0
C2431 C 0.72442 0.2503 0.58025 0.0
C2432 C 0.68988 0.26914 0.58061 0.0
C2433 C 0.63748 0.26514 0.57999 0.0
C2434 C 0.85261 0.27483 0.5897 0.0
C2435 C 0.88681 0.26099 0.58322 0.0
C2436 C 0.80017 0.27158 0.58864 0.0
C2437 C 0.78035 0.25441 0.58105 0.0
C2438 C 0.81452 0.24084 0.57441 0.0
C2439 C 0.86698 0.24408 0.57548 0.0
H2440 H 0.67899 0.27873 0.70616 0.0
H2441 H 0.65384 0.20504 0.69932 0.0
H2442 H 0.58767 0.28554 0.70557 0.0
H2443 H 0.56289 0.21183 0.69871 0.0
H2444 H 0.39918 0.2271 0.70829 0.0
H2445 H 0.49027 0.2214 0.71047 0.0
H2446 H 0.51762 0.28651 0.69208 0.0
H2447 H 0.42662 0.29271 0.69035 0.0
C2448 C 0.65409 0.26398 0.70448 0.0
C2449 C 0.67407 0.24131 0.70283 0.0
C2450 C 0.6016 0.26789 0.70414 0.0
C2451 C 0.56759 0.24924 0.70211 0.0
C2452 C 0.58763 0.22657 0.70052 0.0
C2453 C 0.64001 0.22267 0.70087 0.0
C2454 C 0.42454 0.2404 0.70486 0.0
C2455 C 0.40524 0.26034 0.6991 0.0
C2456 C 0.47694 0.23698 0.70599 0.0
C2457 C 0.51162 0.2534 0.70139 0.0
C2458 C 0.49228 0.27355 0.69582 0.0
C2459 C 0.43992 0.27697 0.6947 0.0
H2460 H 0.86848 0.93959 0.69309 0.0
H2461 H 0.89572 0.00693 0.70934 0.0
H2462 H 0.77749 0.94546 0.69512 0.0
H2463 H 0.80467 0.01237 0.71182 0.0
H2464 H 0.63994 0.02671 0.70066 0.0
H2465 H 0.73104 0.0204 0.70005 0.0
H2466 H 0.70862 0.94741 0.70899 0.0
H2467 H 0.61715 0.95375 0.70961 0.0
C2468 C 0.85514 0.95564 0.69713 0.0
C2469 C 0.88971 0.97285 0.70097 0.0
C2470 C 0.80281 0.95888 0.69844 0.0
C2471 C 0.78345 0.97943 0.70362 0.0
C2472 C 0.81804 -0.00355 0.70765 0.0
C2473 C 0.87041 -0.0068 0.70636 0.0
C2474 C 0.65433 0.00937 0.70269 0.0
C2475 C 0.62089 0.99076 0.70522 0.0
C2476 C 0.70679 0.00574 0.70233 0.0
C2477 C 0.72749 0.98338 0.70447 0.0
C2478 C 0.69412 0.9648 0.70712 0.0
C2479 C 0.64157 0.96843 0.70748 0.0
H2480 H 0.65227 0.97676 0.45808 0.0
H2481 H 0.62519 0.04339 0.44111 0.0
H2482 H 0.56118 0.97111 0.46033 0.0
H2483 H 0.53416 0.03728 0.4429 0.0
H2484 H 0.373 0.02888 0.45707 0.0
H2485 H 0.46438 0.03562 0.45649 0.0
H2486 H 0.48839 0.96234 0.44848 0.0
H2487 H 0.39741 0.95562 0.44907 0.0
C2488 C 0.62699 0.99029 0.45489 0.0
C2489 C 0.64636 0.0105 0.44937 0.0
C2490 C 0.57459 0.98691 0.45605 0.0
C2491 C 0.54001 0.00365 0.45174 0.0
C2492 C 0.55944 0.02408 0.44642 0.0
C2493 C 0.6118 0.02745 0.44526 0.0
C2494 C 0.39776 0.01422 0.45514 0.0
C2495 C 0.37758 0.99168 0.45316 0.0
C2496 C 0.45026 0.01809 0.45481 0.0
C2497 C 0.48405 -0.00047 0.45246 0.0
C2498 C 0.46381 0.97699 0.45054 0.0
C2499 C 0.41143 0.97313 0.45088 0.0
H2500 H 0.41722 0.74646 0.4694 0.0
H2501 H 0.42708 0.73486 0.43206 0.0
H2502 H 0.32597 0.73981 0.46865 0.0
H2503 H 0.33587 0.72839 0.43127 0.0
H2504 H 0.17803 0.69719 0.43522 0.0
H2505 H 0.2695 0.7019 0.43661 0.0
H2506 H 0.24896 0.75754 0.46191 0.0
H2507 H 0.15747 0.75203 0.46094 0.0
C2508 C 0.39993 0.74259 0.46101 0.0
C2509 C 0.42972 0.74122 0.45079 0.0
C2510 C 0.34746 0.73882 0.46057 0.0
C2511 C 0.3232 0.73361 0.44989 0.0
C2512 C 0.35312 0.73199 0.43969 0.0
C2513 C 0.4056 0.7357 0.44014 0.0
C2514 C 0.19291 0.7102 0.44122 0.0
C2515 C 0.16 0.72417 0.44799 0.0
C2516 C 0.24556 0.71314 0.4419 0.0
C2517 C 0.26696 0.73017 0.44935 0.0
C2518 C 0.23408 0.74406 0.45617 0.0
C2519 C 0.1814 0.7411 0.4555 0.0
H2520 H 0.38886 0.78543 0.33099 0.0
H2521 H 0.36895 0.71016 0.32991 0.0
H2522 H 0.48038 0.78028 0.33139 0.0
H2523 H 0.46081 0.70503 0.33024 0.0
H2524 H 0.62894 0.70555 0.31962 0.0
H2525 H 0.53723 0.71087 0.31862 0.0
H2526 H 0.54724 0.76668 0.34415 0.0
H2527 H 0.63894 0.76191 0.34485 0.0
C2528 C 0.40389 0.76774 0.33096 0.0
C2529 C 0.37115 0.74822 0.3305 0.0
C2530 C 0.45657 0.76479 0.33117 0.0
C2531 C 0.47825 0.74223 0.33089 0.0
C2532 C 0.4456 0.72268 0.33032 0.0
C2533 C 0.3928 0.72563 0.33013 0.0
C2534 C 0.61168 0.71916 0.32492 0.0
C2535 C 0.64159 0.73331 0.33231 0.0
C2536 C 0.55892 0.72202 0.32445 0.0
C2537 C 0.53457 0.73918 0.33132 0.0
C2538 C 0.56456 0.75343 0.33864 0.0
C2539 C 0.61724 0.75053 0.33914 0.0
H2540 H 0.15194 0.9824 0.3206 0.0
H2541 H 0.17918 0.04359 0.34208 0.0
H2542 H 0.24308 0.97729 0.31809 0.0
H2543 H 0.27022 0.03792 0.33996 0.0
H2544 H 0.43132 0.03343 0.32545 0.0
H2545 H 0.33995 0.03998 0.32623 0.0
H2546 H 0.31547 0.96527 0.32954 0.0
H2547 H 0.40648 0.95873 0.32878 0.0
C2548 C 0.17728 -0.00514 0.32474 0.0
C2549 C 0.15798 0.01336 0.33159 0.0
C2550 C 0.22966 0.99177 0.32341 0.0
C2551 C 0.26423 0.00711 0.32887 0.0
C2552 C 0.24489 0.02587 0.33553 0.0
C2553 C 0.19255 0.02895 0.33687 0.0
C2554 C 0.40648 0.01839 0.32638 0.0
C2555 C 0.42654 -0.00447 0.32702 0.0
C2556 C 0.354 0.02216 0.32683 0.0
C2557 C 0.32012 0.00316 0.32794 0.0
C2558 C 0.34019 0.98031 0.32846 0.0
C2559 C 0.39258 0.97655 0.32802 0.0
H2560 H 0.17839 0.45801 0.5845 0.0
H2561 H 0.154 0.5327 0.581 0.0
H2562 H 0.0868 0.45177 0.58514 0.0
H2563 H 0.06283 0.52646 0.58175 0.0
H2564 H 0.90727 0.50919 0.59733 0.0
H2565 H 0.99862 0.51472 0.59594 0.0
H2566 H 1.00929 0.45442 0.57311 0.0
H2567 H 0.91772 0.44849 0.57477 0.0
C2568 C 0.1536 0.47308 0.58377 0.0
C2569 C 0.17382 0.49589 0.5828 0.0
C2570 C 0.10103 0.4695 0.58414 0.0
C2571 C 0.06736 0.48862 0.58358 0.0
C2572 C 0.08759 0.51136 0.58244 0.0
C2573 C 0.14001 0.51494 0.58203 0.0
C2574 C 0.92908 0.497 0.59207 0.0
C2575 C 0.90507 0.47834 0.58619 0.0
C2576 C 0.98146 0.50032 0.59117 0.0
C2577 C 1.01142 0.48504 0.5844 0.0
C2578 C 0.98746 0.46639 0.57849 0.0
C2579 C 0.93489 0.46315 0.57933 0.0
H2580 H 0.39311 0.72966 0.57123 0.0
H2581 H 0.36608 0.79526 0.58918 0.0
H2582 H 0.30201 0.72441 0.5687 0.0
H2583 H 0.27506 0.78953 0.58708 0.0
H2584 H 0.1147 0.78267 0.57244 0.0
H2585 H 0.20618 0.78894 0.57315 0.0
H2586 H 0.22845 0.71521 0.58037 0.0
H2587 H 0.13732 0.70896 0.57968 0.0
C2588 C 0.36783 0.74305 0.57458 0.0
C2589 C 0.3872 0.76285 0.58045 0.0
C2590 C 0.31545 0.7399 0.57325 0.0
C2591 C 0.28091 0.75647 0.57773 0.0
C2592 C 0.30034 0.77649 0.58341 0.0
C2593 C 0.35268 0.77963 0.58475 0.0
C2594 C 0.13908 0.7678 0.57421 0.0
C2595 C 0.11834 0.74529 0.57597 0.0
C2596 C 0.19164 0.7714 0.57463 0.0
C2597 C 0.22495 0.75259 0.57682 0.0
C2598 C 0.20421 0.73006 0.57845 0.0
C2599 C 0.15174 0.72646 0.57804 0.0
H2600 H 0.93404 0.79729 0.69399 0.0
H2601 H 0.91384 0.72882 0.70965 0.0
H2602 H 0.02545 0.79342 0.69603 0.0
H2603 H 1.00541 0.72444 0.71112 0.0
H2604 H 0.17094 0.73164 0.72175 0.0
H2605 H 0.07949 0.73789 0.72118 0.0
H2606 H 0.09477 0.77248 0.68764 0.0
H2607 H 0.18604 0.76644 0.68829 0.0
C2608 C 0.94896 0.78144 0.69793 0.0
C2609 C 0.91621 0.76338 0.70165 0.0
C2610 C 1.00161 0.77908 0.69895 0.0
C2611 C 0.02314 0.75856 0.70369 0.0
C2612 C 0.99039 0.74061 0.70754 0.0
C2613 C 0.93771 0.743 0.70655 0.0
C2614 C 0.15476 0.74059 0.71426 0.0
C2615 C 0.186 0.74853 0.70507 0.0
C2616 C 0.10222 0.74413 0.71391 0.0
C2617 C 0.07943 0.75564 0.70434 0.0
C2618 C 0.11085 0.76389 0.69525 0.0
C2619 C 0.16335 0.76043 0.69562 0.0
H2620 H 0.11496 0.45666 0.70873 0.0
H2621 H 0.14007 0.52984 0.70062 0.0
H2622 H 0.20627 0.44977 0.70813 0.0
H2623 H 0.23098 0.52298 0.69998 0.0
H2624 H 0.39477 0.50851 0.70961 0.0
H2625 H 0.30372 0.51431 0.71177 0.0
H2626 H 0.27631 0.4478 0.69469 0.0
H2627 H 0.3673 0.44152 0.69301 0.0
C2628 C 0.13986 0.47127 0.70676 0.0
C2629 C 0.11988 0.49384 0.70477 0.0
C2630 C 0.19234 0.46732 0.70641 0.0
C2631 C 0.22634 0.48581 0.70403 0.0
C2632 C 0.20628 0.50837 0.70207 0.0
C2633 C 0.15392 0.51232 0.70244 0.0
C2634 C 0.36942 0.49493 0.70647 0.0
C2635 C 0.38871 0.47457 0.70109 0.0
C2636 C 0.31702 0.4984 0.70758 0.0
C2637 C 0.28232 0.48162 0.70334 0.0
C2638 C 0.30165 0.46105 0.69816 0.0
C2639 C 0.35402 0.45758 0.69706 0.0
H2640 H 0.88655 0.4586 0.46121 0.0
H2641 H 0.86151 0.52374 0.44268 0.0
H2642 H 0.97764 0.46501 0.46026 0.0
H2643 H 0.95298 0.53021 0.44179 0.0
H2644 H 0.11899 0.5443 0.45223 0.0
H2645 H 0.02741 0.5388 0.45389 0.0
H2646 H 0.04542 0.46513 0.44592 0.0
H2647 H 0.13685 0.47048 0.44462 0.0
C2648 C 0.90042 0.47421 0.45683 0.0
C2649 C 0.86644 0.49053 0.45193 0.0
C2650 C 0.9528 0.4779 0.4563 0.0
C2651 C 0.97284 0.49806 0.45088 0.0
C2652 C 0.93892 0.51461 0.44614 0.0
C2653 C 0.8864 0.51089 0.44665 0.0
C2654 C 0.10345 0.52688 0.45096 0.0
C2655 C 0.13544 0.50784 0.44829 0.0
C2656 C 0.05084 0.52378 0.45178 0.0
C2657 C 0.02888 0.50152 0.45003 0.0
C2658 C 0.06094 0.48248 0.44744 0.0
C2659 C 0.11343 0.48559 0.44657 0.0
H2660 H 0.93173 0.23031 0.43397 0.0
H2661 H 0.9153 0.25148 0.47013 0.0
H2662 H 0.84065 0.22377 0.43271 0.0
H2663 H 0.82384 0.24579 0.46874 0.0
H2664 H 0.66573 0.21206 0.46506 0.0
H2665 H 0.75746 0.21664 0.46688 0.0
H2666 H 0.7635 0.24623 0.43204 0.0
H2667 H 0.67215 0.24167 0.43022 0.0
C2668 C 0.90882 0.23341 0.44169 0.0
C2669 C 0.93117 0.24147 0.45215 0.0
C2670 C 0.85633 0.22995 0.44092 0.0
C2671 C 0.82453 0.23443 0.45059 0.0
C2672 C 0.84698 0.24201 0.46113 0.0
C2673 C 0.89951 0.24551 0.46189 0.0
C2674 C 0.68654 0.21974 0.45782 0.0
C2675 C 0.66129 0.22637 0.44746 0.0
C2676 C 0.73927 0.22235 0.45886 0.0
C2677 C 0.76822 0.23167 0.44958 0.0
C2678 C 0.74282 0.23852 0.43928 0.0
C2679 C 0.69023 0.23591 0.43824 0.0
H2680 H 0.1458 0.25196 0.31965 0.0
H2681 H 0.12014 0.20048 0.34683 0.0
H2682 H 0.0545 0.25711 0.31752 0.0
H2683 H 0.02904 0.20632 0.34504 0.0
H2684 H 0.86588 0.20643 0.33141 0.0
H2685 H 0.9571 0.19963 0.33241 0.0
H2686 H 0.98385 0.27393 0.32796 0.0
H2687 H 0.89294 0.28073 0.327 0.0
C2688 C 0.12078 0.24164 0.32514 0.0
C2689 C 0.14066 0.22585 0.33344 0.0
C2690 C 0.06829 0.2448 0.32401 0.0
C2691 C 0.03411 0.23223 0.33114 0.0
C2692 C 0.05399 0.21617 0.33931 0.0
C2693 C 0.10643 0.21303 0.34045 0.0
C2694 C 0.89116 0.22135 0.33071 0.0
C2695 C 0.87171 0.24414 0.32909 0.0
C2696 C 0.94361 0.21744 0.33128 0.0
C2697 C 0.97813 0.23621 0.33025 0.0
C2698 C 0.95865 0.25896 0.32857 0.0
C2699 C 0.90629 0.26287 0.32801 0.0
H2700 H 0.90525 0.45612 0.33276 0.0
H2701 H 0.93024 0.53044 0.32783 0.0
H2702 H 0.81426 0.46276 0.33342 0.0
H2703 H 0.83887 0.53711 0.32848 0.0
H2704 H 0.67748 0.54249 0.34375 0.0
H2705 H 0.76855 0.53656 0.34195 0.0
H2706 H 0.74191 0.47352 0.32181 0.0
H2707 H 0.65073 0.47891 0.32404 0.0
C2708 C 0.89138 0.47388 0.33164 0.0
C2709 C 0.9254 0.49272 0.3302 0.0
C2710 C 0.83898 0.47769 0.33202 0.0
C2711 C 0.81889 0.50048 0.33099 0.0
C2712 C 0.85286 0.51934 0.32948 0.0
C2713 C 0.90536 0.51552 0.3291 0.0
C2714 C 0.69095 0.52726 0.33899 0.0
C2715 C 0.65645 0.5111 0.33412 0.0
C2716 C 0.74335 0.52401 0.33783 0.0
C2717 C 0.76289 0.50451 0.33175 0.0
C2718 C 0.7284 0.48858 0.32669 0.0
C2719 C 0.67596 0.49183 0.32785 0.0
H2720 H 0.90186 0.97225 0.06412 0.0
H2721 H 0.91708 0.97827 0.1017 0.0
H2722 H 0.99355 0.97668 0.06197 0.0
H2723 H 1.0083 0.98275 0.09957 0.0
H2724 H 0.17404 0.96724 0.09339 0.0
H2725 H 0.08294 0.96085 0.09446 0.0
H2726 H 0.06183 0.00491 0.06402 0.0
H2727 H 0.15334 0.01052 0.06265 0.0
C2728 C 0.92465 0.9747 0.07192 0.0
C2729 C 0.90195 0.97474 0.08309 0.0
C2730 C 0.97729 0.97724 0.07069 0.0
C2731 C 1.00858 0.9799 0.0806 0.0
C2732 C 0.9857 0.98021 0.09175 0.0
C2733 C 0.93323 0.97766 0.09297 0.0
C2734 C 0.15018 0.97523 0.08678 0.0
C2735 C 0.17131 0.98943 0.07794 0.0
C2736 C 0.09771 0.97183 0.0875 0.0
C2737 C 0.06475 0.98254 0.0794 0.0
C2738 C 0.08593 -0.00374 0.07038 0.0
C2739 C 0.13847 -0.00032 0.06966 0.0
H2740 H 0.12739 0.2356 0.05925 0.0
H2741 H 0.11065 0.24561 0.09662 0.0
H2742 H 0.21827 0.24233 0.06097 0.0
H2743 H 0.20182 0.25198 0.09833 0.0
H2744 H 0.37345 0.23667 0.09792 0.0
H2745 H 0.28231 0.22996 0.09623 0.0
H2746 H 0.27781 0.2746 0.06562 0.0
H2747 H 0.36915 0.28092 0.06718 0.0
C2748 C 0.14295 0.23943 0.06782 0.0
C2749 C 0.1115 0.24014 0.07779 0.0
C2750 C 0.19512 0.24325 0.0688 0.0
C2751 C 0.21727 0.24772 0.07978 0.0
C2752 C 0.186 0.24829 0.08977 0.0
C2753 C 0.13373 0.24459 0.08878 0.0
C2754 C 0.35305 0.2449 0.09078 0.0
C2755 C 0.37854 0.25928 0.08267 0.0
C2756 C 0.30077 0.24125 0.08988 0.0
C2757 C 0.27281 0.25176 0.0808 0.0
C2758 C 0.29833 0.26609 0.07266 0.0
C2759 C 0.35056 0.26988 0.07361 0.0
H2760 H 0.9142 0.22856 0.20839 0.0
H2761 H 0.9405 0.3006 0.19817 0.0
H2762 H 1.00516 0.22285 0.21077 0.0
H2763 H 0.03151 0.29459 0.20003 0.0
H2764 H 0.19176 0.28193 0.21365 0.0
H2765 H 0.10015 0.28813 0.21358 0.0
H2766 H 0.07875 0.21924 0.19852 0.0
H2767 H 0.16988 0.21304 0.19863 0.0
C2768 C 0.93928 0.24325 0.20674 0.0
C2769 C 0.91981 0.26502 0.20303 0.0
C2770 C 0.9916 0.23989 0.20796 0.0
C2771 C 0.02592 0.25819 0.20551 0.0
C2772 C 1.00636 0.28013 0.20209 0.0
C2773 C 0.95407 0.28349 0.20087 0.0
C2774 C 0.16748 0.26812 0.21032 0.0
C2775 C 0.18836 0.24695 0.20619 0.0
C2776 C 0.1149 0.27168 0.21027 0.0
C2777 C 0.08184 0.25418 0.20606 0.0
C2778 C 0.10279 0.23295 0.20204 0.0
C2779 C 0.15523 0.22939 0.2021 0.0
H2780 H 0.37649 0.95213 0.21394 0.0
H2781 H 0.37759 0.00331 0.18599 0.0
H2782 H 0.2852 0.95786 0.21634 0.0
H2783 H 0.2865 0.00847 0.18813 0.0
H2784 H 0.13379 0.03037 0.20248 0.0
H2785 H 0.22508 0.02483 0.20157 0.0
H2786 H 0.20493 0.95011 0.20612 0.0
H2787 H 0.11326 0.95575 0.20747 0.0
C2788 C 0.35734 0.96466 0.20834 0.0
C2789 C 0.38447 0.97722 0.19975 0.0
C2790 C 0.3049 0.96776 0.20963 0.0
C2791 C 0.27837 0.98363 0.20243 0.0
C2792 C 0.30566 -0.0037 0.19392 0.0
C2793 C 0.35791 -0.00686 0.1926 0.0
C2794 C 0.14871 0.01277 0.20349 0.0
C2795 C 0.11594 -0.00648 0.20509 0.0
C2796 C 0.20117 0.00956 0.20281 0.0
C2797 C 0.2225 0.987 0.2037 0.0
C2798 C 0.18989 0.96775 0.20549 0.0
C2799 C 0.13725 0.97096 0.20614 0.0
H2800 H 0.86723 -0.0005 0.93357 0.0
H2801 H 0.87975 0.98963 0.971 0.0
H2802 H 0.95838 0.00597 0.93234 0.0
H2803 H 0.97089 -0.00376 0.9698 0.0
H2804 H 0.13901 0.98399 0.96176 0.0
H2805 H 0.04762 0.97839 0.96305 0.0
H2806 H 0.02542 0.03255 0.93704 0.0
H2807 H 0.11681 0.03736 0.93534 0.0
C2808 C 0.88926 -0.00097 0.94158 0.0
C2809 C 0.86584 -0.00602 0.95238 0.0
C2810 C 0.94174 0.00274 0.94087 0.0
C2811 C 0.97244 0.00158 0.95096 0.0
C2812 C 0.94887 -0.00316 0.96179 0.0
C2813 C 0.89641 -0.00691 0.96249 0.0
C2814 C 0.11475 -0.00543 0.95622 0.0
C2815 C 0.13573 0.01113 0.94843 0.0
C2816 C 0.0621 0.99156 0.95708 0.0
C2817 C 0.02872 0.00502 0.95017 0.0
C2818 C 0.04969 0.02165 0.94242 0.0
C2819 C 0.10232 0.02464 0.94155 0.0
H2820 H 0.90627 0.74834 0.96974 0.0
H2821 H 0.92152 0.73495 0.93263 0.0
H2822 H 0.81483 0.74275 0.96823 0.0
H2823 H 0.83042 0.72849 0.93121 0.0
H2824 H 0.66144 0.74614 0.93011 0.0
H2825 H 0.75282 0.75072 0.93193 0.0
H2826 H 0.74918 0.71376 0.96499 0.0
H2827 H 0.65748 0.70918 0.96317 0.0
C2828 C 0.89021 0.74411 0.96126 0.0
C2829 C 0.9215 0.74221 0.9513 0.0
C2830 C 0.83771 0.74066 0.96042 0.0
C2831 C 0.81496 0.73526 0.94959 0.0
C2832 C 0.84638 0.73295 0.93967 0.0
C2833 C 0.89886 0.73635 0.94051 0.0
C2834 C 0.68008 0.73879 0.93773 0.0
C2835 C 0.65186 0.72718 0.94647 0.0
C2836 C 0.73266 0.7414 0.93877 0.0
C2837 C 0.7587 0.73249 0.94857 0.0
C2838 C 0.73046 0.72108 0.95738 0.0
C2839 C 0.67776 0.71847 0.95634 0.0
H2840 H 0.12006 0.68998 0.83836 0.0
H2841 H 0.14753 0.75913 0.82411 0.0
H2842 H 0.0291 0.69611 0.83646 0.0
H2843 H 0.05655 0.76485 0.82174 0.0
H2844 H 0.892 0.77809 0.8332 0.0
H2845 H 0.98303 0.77157 0.83369 0.0
H2846 H 0.96021 0.69973 0.82274 0.0
H2847 H 0.86877 0.70627 0.82227 0.0
C2848 C 0.10677 0.70648 0.83478 0.0
C2849 C 0.1414 0.72411 0.83147 0.0
C2850 C 0.05447 0.70988 0.83355 0.0
C2851 C 0.0352 0.73102 0.82898 0.0
C2852 C 0.06985 0.74846 0.82544 0.0
C2853 C 0.12219 0.74506 0.82667 0.0
C2854 C 0.9063 0.76098 0.83071 0.0
C2855 C 0.87277 0.74274 0.82766 0.0
C2856 C 0.95871 0.75723 0.831 0.0
C2857 C 0.97927 0.73512 0.82824 0.0
C2858 C 0.94581 0.7169 0.82509 0.0
C2859 C 0.89329 0.72065 0.82481 0.0
H2860 H 0.67404 0.01116 0.85192 0.0
H2861 H 0.65852 0.01214 0.81423 0.0
H2862 H 0.7652 0.00628 0.84991 0.0
H2863 H 0.75013 0.00738 0.8122 0.0
H2864 H 0.90951 0.9738 0.81359 0.0
H2865 H 0.81819 0.97977 0.81492 0.0
H2866 H 0.84061 0.02664 0.84424 0.0
H2867 H 0.93157 0.01985 0.84324 0.0
C2868 C 0.69011 0.01059 0.84318 0.0
C2869 C 0.65869 0.01218 0.83324 0.0
C2870 C 0.7426 0.00782 0.84202 0.0
C2871 C 0.76544 0.00658 0.83088 0.0
C2872 C 0.734 0.00799 0.82092 0.0
C2873 C 0.68136 0.01072 0.82209 0.0
C2874 C 0.89501 0.98531 0.82036 0.0
C2875 C 0.92824 -0.00378 0.82834 0.0
C2876 C 0.84251 0.98895 0.82104 0.0
C2877 C 0.82166 0.00359 0.82974 0.0
C2878 C 0.85501 0.01494 0.83754 0.0
C2879 C 0.90746 0.0113 0.83686 0.0
H2880 H 0.10552 0.45976 0.04153 0.0
H2881 H 0.99139 0.51051 0.05099 0.0
H2882 H 0.08397 0.46423 0.02095 0.0
H2883 H 0.97113 0.51607 0.03023 0.0
H2884 H 0.91249 0.50526 0.99322 0.0
H2885 H 0.93314 0.50002 1.01378 0.0
H2886 H 0.08982 0.4878 1.00444 0.0
H2887 H 0.06798 0.4919 0.98368 0.0
C2888 C 0.07586 0.47203 0.03917 0.0
C2889 C 0.04999 0.48471 0.0479 0.0
C2890 C 0.0638 0.4748 0.02731 0.0
C2891 C 0.02592 0.49065 0.02374 0.0
C2892 C 0.99997 0.50338 0.03254 0.0
C2893 C 1.01162 0.50032 0.04447 0.0
C2894 C 0.95138 0.50137 0.99555 0.0
C2895 C 0.98861 0.49895 0.9868 0.0
C2896 C 0.96341 0.49857 1.00741 0.0
C2897 C 1.01333 0.49361 1.01096 0.0
C2898 C 0.05073 0.49123 1.00215 0.0
C2899 C 0.03842 0.4937 0.99021 0.0
H2900 H 0.21939 0.74434 0.98126 0.0
H2901 H 0.3756 0.73334 0.99087 0.0
H2902 H 0.19705 0.74838 1.00198 0.0
H2903 H 0.35442 0.73861 1.01141 0.0
H2904 H 0.29656 0.72738 0.04858 0.0
H2905 H 0.31754 0.72211 0.02785 0.0
H2906 H 0.20077 0.77198 0.01846 0.0
H2907 H 0.17846 0.77605 0.03901 0.0
C2908 C 0.24899 0.74309 0.9878 0.0
C2909 C 0.29914 0.73847 0.98444 0.0
C2910 C 0.23639 0.74552 0.99972 0.0
C2911 C 0.27384 0.74378 1.00855 0.0
C2912 C 0.32414 0.73953 1.00503 0.0
C2913 C 0.33645 0.73673 0.99319 0.0
C2914 C 0.27559 0.73718 0.04204 0.0
C2915 C 0.23589 0.75208 0.04542 0.0
C2916 C 0.28768 0.7343 0.03012 0.0
C2917 C 0.26086 0.74657 0.02131 0.0
C2918 C 0.22166 0.76176 0.02483 0.0
C2919 C 0.20914 0.7643 0.03668 0.0
H2920 H 0.96306 0.70008 0.29146 0.0
H2921 H 0.04504 0.76469 0.29705 0.0
H2922 H 0.96889 0.70556 0.27039 0.0
H2923 H 0.05356 0.76969 0.27586 0.0
H2924 H 1.01959 0.78534 0.23774 0.0
H2925 H 1.01056 0.77967 0.25881 0.0
H2926 H 1.01926 0.70447 0.25383 0.0
H2927 H 0.02555 0.71034 0.23269 0.0
C2928 C 0.98308 0.71534 0.28817 0.0
C2929 C 1.00345 0.732 0.29595 0.0
C2930 C 0.98674 0.71843 0.27602 0.0
C2931 C 1.01162 0.73813 0.27125 0.0
C2932 C 0.03309 0.75454 0.2791 0.0
C2933 C 0.02873 0.7516 0.29128 0.0
C2934 C 1.01893 0.7676 0.24116 0.0
C2935 C 0.02313 0.7483 0.23355 0.0
C2936 C 1.01439 0.7643 0.25329 0.0
C2937 C 1.01473 0.74158 0.2582 0.0
C2938 C 1.01811 0.72225 0.25048 0.0
C2939 C 1.02184 0.72557 0.23832 0.0
H2940 H 0.3014 0.50922 0.2341 0.0
H2941 H 0.18777 0.45831 0.24377 0.0
H2942 H 0.32078 0.51556 0.25484 0.0
H2943 H 0.20856 0.46349 0.26434 0.0
H2944 H 0.22297 0.49203 0.30145 0.0
H2945 H 0.20181 0.4873 0.28068 0.0
H2946 H 0.35832 0.50052 0.27149 0.0
H2947 H 0.37821 0.50645 0.29203 0.0
C2948 C 0.28112 0.49915 0.24066 0.0
C2949 C 0.24309 0.4833 0.23729 0.0
C2950 C 0.29227 0.50266 0.25259 0.0
C2951 C 0.26621 0.49011 0.26145 0.0
C2952 C 0.22877 0.47396 0.25794 0.0
C2953 C 0.21716 0.47077 0.24607 0.0
C2954 C 0.25261 0.49396 0.29495 0.0
C2955 C 0.30214 0.49969 0.29839 0.0
C2956 C 0.24071 0.49111 0.28301 0.0
C2957 C 0.27828 0.49354 0.27423 0.0
C2958 C 0.32791 0.49902 0.27782 0.0
C2959 C 0.3395 0.50221 0.28968 0.0
H2960 H 0.88207 0.22843 0.99193 0.0
H2961 H 0.7281 0.24296 0.98155 0.0
H2962 H 0.85962 0.23429 1.01238 0.0
H2963 H 0.70445 0.24767 1.00216 0.0
H2964 H 0.68547 0.27729 0.0386 0.0
H2965 H 0.7102 0.27206 0.01829 0.0
H2966 H 0.81904 0.2194 0.02888 0.0
H2967 H 0.7955 0.22572 0.04944 0.0
C2968 C 0.84313 0.2327 0.99405 0.0
C2969 C 0.80685 0.23531 0.98511 0.0
C2970 C 0.83008 0.23586 1.00584 0.0
C2971 C 0.78008 0.24143 1.00909 0.0
C2972 C 0.74361 0.24385 1.00009 0.0
C2973 C 0.75694 0.24101 0.98824 0.0
C2974 C 0.71499 0.26469 0.0366 0.0
C2975 C 0.73866 0.25196 0.04563 0.0
C2976 C 0.72885 0.26147 0.02489 0.0
C2977 C 0.76632 0.24507 0.02176 0.0
C2978 C 0.79045 0.23243 0.03086 0.0
C2979 C 0.777 0.23596 0.04267 0.0
H2980 H 0.06428 0.24179 0.79841 0.0
H2981 H 0.90827 0.22959 0.78893 0.0
H2982 H 0.08623 0.24571 0.77765 0.0
H2983 H 0.92913 0.23466 0.76834 0.0
H2984 H 0.98794 0.22401 0.73106 0.0
H2985 H 0.96679 0.2185 0.7518 0.0
H2986 H 0.08096 0.26962 0.76128 0.0
H2987 H 0.10332 0.27403 0.74077 0.0
C2988 C 0.03463 0.24021 0.79189 0.0
C2989 C 0.98463 0.23536 0.79531 0.0
C2990 C 0.04701 0.24258 0.77995 0.0
C2991 C 1.00951 0.24052 0.77115 0.0
C2992 C 0.95942 0.23589 0.7747 0.0
C2993 C 0.9473 0.2332 0.78658 0.0
C2994 C 1.00826 0.23404 0.73762 0.0
C2995 C 0.0473 0.24939 0.73428 0.0
C2996 C 0.99611 0.23101 0.74954 0.0
C2997 C 1.02227 0.24352 0.75838 0.0
C2998 C 0.06066 0.25918 0.75489 0.0
C2999 C 0.07319 0.26192 0.74305 0.0
H3000 H 0.88613 0.50576 0.79065 0.0
H3001 H 0.73039 0.4936 0.80042 0.0
H3002 H 0.8648 0.50039 0.77012 0.0
H3003 H 0.70794 0.48938 0.7797 0.0
H3004 H 0.69025 0.46069 0.74285 0.0
H3005 H 0.71275 0.46536 0.76335 0.0
H3006 H 0.82685 0.51636 0.75361 0.0
H3007 H 0.80559 0.51057 0.73292 0.0
C3008 C 0.84705 0.50211 0.78837 0.0
C3009 C 0.80994 0.50005 0.79717 0.0
C3010 C 0.83465 0.49924 0.77653 0.0
C3011 C 0.78449 0.49454 0.77307 0.0
C3012 C 0.7472 0.49257 0.78193 0.0
C3013 C 0.75986 0.49512 0.79384 0.0
C3014 C 0.7204 0.47281 0.74508 0.0
C3015 C 0.74628 0.48521 0.73625 0.0
C3016 C 0.73301 0.4757 0.75691 0.0
C3017 C 0.77147 0.4914 0.76032 0.0
C3018 C 0.79752 0.50381 0.75142 0.0
C3019 C 0.78531 0.50062 0.73952 0.0
H3020 H 0.13995 0.97823 0.53908 0.0
H3021 H 0.98401 0.99123 0.54837 0.0
H3022 H 0.11994 0.98367 0.51848 0.0
H3023 H 0.96286 -0.00447 0.52759 0.0
H3024 H 0.94798 0.02441 0.49078 0.0
H3025 H 0.96955 0.01966 0.51132 0.0
H3026 H 0.08233 0.96791 0.50186 0.0
H3027 H 0.06205 0.97378 0.48111 0.0
C3028 C 0.10111 0.98208 0.53669 0.0
C3029 C 0.06355 0.98437 0.54536 0.0
C3030 C 0.08947 0.985 0.52481 0.0
C3031 C 0.03965 0.98997 0.5212 0.0
C3032 C 1.00191 0.99213 0.52994 0.0
C3033 C 1.01381 0.98954 0.54188 0.0
C3034 C 0.97766 0.01211 0.49308 0.0
C3035 C 1.00342 -0.0005 0.48432 0.0
C3036 C 0.98971 0.00917 0.50492 0.0
C3037 C 0.02745 -0.00679 0.50843 0.0
C3038 C 0.05352 0.98064 0.49959 0.0
C3039 C 0.04188 0.98389 0.48767 0.0
H3040 H 0.2449 0.25969 0.48188 0.0
H3041 H 0.35952 0.20936 0.49157 0.0
H3042 H 0.22352 0.2651 0.50258 0.0
H3043 H 0.33686 0.21368 0.5121 0.0
H3044 H 0.31906 0.24173 0.54928 0.0
H3045 H 0.34168 0.23745 0.52858 0.0
H3046 H 0.18507 0.24884 0.51895 0.0
H3047 H 0.1636 0.25425 0.53948 0.0
C3048 C 0.26499 0.24955 0.48843 0.0
C3049 C 0.30383 0.23412 0.4851 0.0
C3050 C 0.25269 0.25253 0.50033 0.0
C3051 C 0.27846 0.23987 0.50918 0.0
C3052 C 0.31679 0.22417 0.5057 0.0
C3053 C 0.3295 0.22149 0.49386 0.0
C3054 C 0.28967 0.24329 0.5427 0.0
C3055 C 0.23965 0.24836 0.54601 0.0
C3056 C 0.30243 0.24072 0.5308 0.0
C3057 C 0.26529 0.24282 0.52193 0.0
C3058 C 0.21513 0.2476 0.52537 0.0
C3059 C 0.20264 0.25049 0.53721 0.0
H3060 H 0.2433 0.97615 0.80004 0.0
H3061 H 0.36062 0.02518 0.79029 0.0
H3062 H 0.22292 0.97025 0.77932 0.0
H3063 H 0.33894 0.02043 0.76974 0.0
H3064 H 0.32165 0.99183 0.73269 0.0
H3065 H 0.34353 -0.00372 0.75343 0.0
H3066 H 0.18604 0.98636 0.76277 0.0
H3067 H 0.16528 0.98072 0.74224 0.0
C3068 C 0.26423 0.98589 0.79347 0.0
C3069 C 0.30353 0.00109 0.79679 0.0
C3070 C 0.2525 0.98264 0.78156 0.0
C3071 C 0.27929 -0.00519 0.77269 0.0
C3072 C 0.31809 0.01029 0.77616 0.0
C3073 C 0.33024 0.01322 0.788 0.0
C3074 C 0.29192 0.99061 0.73922 0.0
C3075 C 0.24184 0.98587 0.73584 0.0
C3076 C 0.30426 -0.00672 0.75114 0.0
C3077 C 0.26663 0.99165 0.75994 0.0
C3078 C 0.21645 0.98722 0.75641 0.0
C3079 C 0.20437 0.9842 0.74456 0.0
H3080 H 0.74246 0.76022 0.4811 0.0
H3081 H 0.85502 0.70902 0.49096 0.0
H3082 H 0.7217 0.76624 0.50182 0.0
H3083 H 0.83302 0.71398 0.51148 0.0
H3084 H 0.81813 0.74278 0.54848 0.0
H3085 H 0.83979 0.73827 0.52773 0.0
H3086 H 0.68317 0.75057 0.5184 0.0
H3087 H 0.66263 0.75618 0.53896 0.0
C3088 C 0.7622 0.75002 0.48769 0.0
C3089 C 0.80036 0.73419 0.4844 0.0
C3090 C 0.75029 0.75336 0.4996 0.0
C3091 C 0.7758 0.74069 0.50848 0.0
C3092 C 0.81327 0.72453 0.50504 0.0
C3093 C 0.82558 0.72148 0.49321 0.0
C3094 C 0.78853 0.74451 0.54195 0.0
C3095 C 0.73877 0.74986 0.54536 0.0
C3096 C 0.80074 0.7418 0.53003 0.0
C3097 C 0.76328 0.74403 0.52123 0.0
C3098 C 0.71343 0.74918 0.52477 0.0
C3099 C 0.70149 0.7522 0.53663 0.0
H3100 H 0.80041 0.0105 0.23235 0.0
H3101 H 0.68338 0.9614 0.24219 0.0
H3102 H 0.82143 0.01621 0.25305 0.0
H3103 H 0.7057 0.96594 0.26271 0.0
H3104 H 0.72419 -0.00599 0.29982 0.0
H3105 H 0.70163 0.9898 0.27911 0.0
H3106 H 0.85873 8e-05 0.26952 0.0
H3107 H 0.88013 0.00549 0.29002 0.0
C3108 C 0.77971 0.0007 0.23894 0.0
C3109 C 0.74028 0.98554 0.23564 0.0
C3110 C 0.79179 0.00384 0.25084 0.0
C3111 C 0.76525 0.9916 0.25973 0.0
C3112 C 0.72635 0.97615 0.25629 0.0
C3113 C 0.71384 0.97334 0.24445 0.0
C3114 C 0.75367 -0.00464 0.29324 0.0
C3115 C 0.80383 0.00014 0.29655 0.0
C3116 C 0.74095 0.99283 0.28134 0.0
C3117 C 0.77828 -0.00537 0.27247 0.0
C3118 C 0.82854 -0.0009 0.27593 0.0
C3119 C 0.84098 0.00199 0.28776 0.0
H3120 H 0.60529 0.46155 0.54156 0.0
H3121 H 0.49144 0.51222 0.5513 0.0
H3122 H 0.58275 0.46594 0.52106 0.0
H3123 H 0.47028 0.5178 0.53058 0.0
H3124 H 0.4112 0.50742 0.49348 0.0
H3125 H 0.43201 0.50225 0.51407 0.0
H3126 H 0.58835 0.48936 0.50463 0.0
H3127 H 0.5663 0.49329 0.48391 0.0
C3128 C 0.57551 0.47382 0.53928 0.0
C3129 C 0.55005 0.48651 0.54806 0.0
C3130 C 0.56287 0.47655 0.52745 0.0
C3131 C 0.52487 0.49241 0.52397 0.0
C3132 C 0.49923 0.50512 0.53282 0.0
C3133 C 0.51141 0.50206 0.54473 0.0
C3134 C 0.45003 0.50339 0.49581 0.0
C3135 C 0.48711 0.50069 0.48706 0.0
C3136 C 0.46215 0.50063 0.50768 0.0
C3137 C 0.51203 0.49545 0.51121 0.0
C3138 C 0.54927 0.4929 0.50237 0.0
C3139 C 0.53685 0.49529 0.49045 0.0
H3140 H 0.44154 0.7113 0.7906 0.0
H3141 H 0.55777 0.76067 0.80058 0.0
H3142 H 0.46413 0.71602 0.7701 0.0
H3143 H 0.57904 0.76657 0.77989 0.0
H3144 H 0.63785 0.75625 0.74281 0.0
H3145 H 0.61662 0.75073 0.76334 0.0
H3146 H 0.45958 0.74013 0.75382 0.0
H3147 H 0.48195 0.74443 0.73311 0.0
C3148 C 0.47188 0.72334 0.78837 0.0
C3149 C 0.49798 0.73558 0.79721 0.0
C3150 C 0.48454 0.72626 0.77656 0.0
C3151 C 0.52324 0.74186 0.77316 0.0
C3152 C 0.54953 0.75411 0.78207 0.0
C3153 C 0.5373 0.75085 0.79396 0.0
C3154 C 0.59876 0.75265 0.7451 0.0
C3155 C 0.56157 0.75071 0.73633 0.0
C3156 C 0.58642 0.7497 0.75694 0.0
C3157 C 0.53622 0.74507 0.76042 0.0
C3158 C 0.49886 0.74325 0.75158 0.0
C3159 C 0.51148 0.74584 0.73967 0.0
H3160 H 0.55805 0.26061 0.30006 0.0
H3161 H 0.44145 0.21151 0.28998 0.0
H3162 H 0.57972 0.26647 0.27941 0.0
H3163 H 0.46428 0.21632 0.26948 0.0
H3164 H 0.48464 0.24519 0.23243 0.0
H3165 H 0.46102 0.24069 0.25309 0.0
H3166 H 0.61791 0.24986 0.26307 0.0
H3167 H 0.64047 0.25544 0.24264 0.0
C3168 C 0.53755 0.25085 0.29343 0.0
C3169 C 0.49815 0.2356 0.29665 0.0
C3170 C 0.55 0.25408 0.28156 0.0
C3171 C 0.5238 0.24189 0.27262 0.0
C3172 C 0.48476 0.22644 0.27597 0.0
C3173 C 0.47195 0.22347 0.28779 0.0
C3174 C 0.51386 0.24623 0.23908 0.0
C3175 C 0.56432 0.25073 0.2359 0.0
C3176 C 0.50051 0.24354 0.25095 0.0
C3177 C 0.53747 0.24498 0.25991 0.0
C3178 C 0.58801 0.24916 0.25658 0.0
C3179 C 0.60111 0.25215 0.24479 0.0
H3180 H 0.60293 0.96113 0.04067 0.0
H3181 H 0.48774 0.01145 0.05001 0.0
H3182 H 0.58177 0.96552 0.02008 0.0
H3183 H 0.46802 0.01705 0.02922 0.0
H3184 H 0.41161 0.00699 0.99201 0.0
H3185 H 0.43113 0.00149 1.01261 0.0
H3186 H 0.58815 0.98895 1.00366 0.0
H3187 H 0.56735 -0.00681 0.98286 0.0
C3188 C 0.57313 0.97331 0.03828 0.0
C3189 C 0.54689 0.98591 0.04696 0.0
C3190 C 0.5613 0.97604 0.02641 0.0
C3191 C 0.52337 0.99182 0.02279 0.0
C3192 C 0.49693 0.00442 0.03156 0.0
C3193 C 0.50827 0.00135 0.04351 0.0
C3194 C 0.45033 0.00296 0.99444 0.0
C3195 C 0.48796 0.00047 0.9858 0.0
C3196 C 0.4617 1e-05 1.00633 0.0
C3197 C 0.51139 -0.00512 1.00999 0.0
C3198 C 0.54919 0.99247 1.00127 0.0
C3199 C 0.5375 -0.00497 0.98932 0.0
loop_
_geom_bond_atom_site_label_1
_geom_bond_atom_site_label_2
_geom_bond_distance
_geom_bond_site_symmetry_2
_ccdc_geom_bond_type
Pr0 C2 2.880 . S
Pr0 O20 2.562 . S
Pr0 O21 2.490 . S
Pr0 O22 2.695 1_655 S
Pr0 O23 2.512 . S
Pr0 O25 2.437 . S
Pr0 O28 2.436 1_655 S
Pr0 O30 2.438 1_655 S
Pr1 C11 2.880 . S
Pr1 O22 2.436 . S
Pr1 O24 2.438 . S
Pr1 O26 2.562 . S
Pr1 O27 2.490 . S
Pr1 O28 2.695 . S
Pr1 O29 2.512 . S
Pr1 O31 2.437 . S
C2 Pr0 2.880 . S
C2 C3 1.491 . S
C2 O20 1.254 . S
C2 O21 1.225 . S
C3 C2 1.491 . S
C3 C4 1.392 . S
C3 C8 1.356 . S
C4 C3 1.392 . S
C4 C5 1.368 . S
C4 H32 0.929 . S
C5 C4 1.368 . S
C5 C6 1.386 . S
C5 H33 0.929 . S
C6 C5 1.386 . S
C6 C7 1.373 . S
C7 C6 1.373 . S
C7 C8 1.409 . S
C7 H34 0.931 . S
C8 C3 1.356 . S
C8 C7 1.409 . S
C8 H35 0.930 . S
C9 O22 1.270 . S
C9 O23 1.248 1_455 S
C10 O24 1.267 1_655 S
C10 O25 1.278 . S
C11 Pr1 2.880 . S
C11 C12 1.491 . S
C11 O26 1.254 . S
C11 O27 1.225 . S
C12 C11 1.491 . S
C12 C13 1.392 . S
C12 C17 1.356 . S
C13 C12 1.392 . S
C13 C14 1.368 . S
C13 H36 0.929 . S
C14 C13 1.368 . S
C14 C15 1.386 . S
C14 H37 0.929 . S
C15 C14 1.386 . S
C15 C16 1.373 . S
C16 C15 1.373 . S
C16 C17 1.409 . S
C16 H38 0.931 . S
C17 C12 1.356 . S
C17 C16 1.409 . S
C17 H39 0.930 . S
C18 O28 1.270 . S
C18 O29 1.248 . S
C19 O30 1.267 . S
C19 O31 1.278 . S
O20 Pr0 2.562 . S
O20 C2 1.254 . S
O21 Pr0 2.490 . S
O21 C2 1.225 . S
O22 Pr0 2.695 1_455 S
O22 Pr1 2.436 . S
O22 C9 1.270 . S
O23 Pr0 2.512 . S
O23 C9 1.248 1_655 S
O24 Pr1 2.438 . S
O24 C10 1.267 1_455 S
O25 Pr0 2.437 . S
O25 C10 1.278 . S
O26 Pr1 2.562 . S
O26 C11 1.254 . S
O27 Pr1 2.490 . S
O27 C11 1.225 . S
O28 Pr0 2.436 1_455 S
O28 Pr1 2.695 . S
O28 C18 1.270 . S
O29 Pr1 2.512 . S
O29 C18 1.248 . S
O30 Pr0 2.438 1_455 S
O30 C19 1.267 . S
O31 Pr1 2.437 . S
O31 C19 1.278 . S
H32 C4 0.929 . S
H33 C5 0.929 . S
H34 C7 0.931 . S
H35 C8 0.930 . S
H36 C13 0.929 . S
H37 C14 0.929 . S
H38 C16 0.931 . S
H39 C17 0.930 . S
Pr40 C42 2.880 . S
Pr40 O60 2.562 . S
Pr40 O61 2.490 . S
Pr40 O62 2.695 . S
Pr40 O63 2.512 . S
Pr40 O65 2.437 . S
Pr40 O68 2.436 . S
Pr40 O70 2.438 . S
Pr41 C51 2.880 . S
Pr41 O62 2.436 . S
Pr41 O64 2.438 . S
Pr41 O66 2.562 . S
Pr41 O67 2.490 . S
Pr41 O68 2.695 . S
Pr41 O69 2.512 . S
Pr41 O71 2.437 . S
C42 Pr40 2.880 . S
C42 C43 1.491 . S
C42 O60 1.254 . S
C42 O61 1.225 . S
C43 C42 1.491 . S
C43 C44 1.392 . S
C43 C48 1.356 . S
C44 C43 1.392 . S
C44 C45 1.368 . S
C44 H72 0.929 . S
C45 C44 1.368 . S
C45 C46 1.386 . S
C45 H73 0.929 . S
C46 C45 1.386 . S
C46 C47 1.373 . S
C47 C46 1.373 . S
C47 C48 1.409 . S
C47 H74 0.931 . S
C48 C43 1.356 . S
C48 C47 1.409 . S
C48 H75 0.930 . S
C49 O62 1.270 . S
C49 O63 1.248 . S
C50 O64 1.267 . S
C50 O65 1.278 . S
C51 Pr41 2.880 . S
C51 C52 1.491 . S
C51 O66 1.254 . S
C51 O67 1.225 . S
C52 C51 1.491 . S
C52 C53 1.392 1_455 S
C52 C57 1.356 1_455 S
C53 C52 1.392 1_655 S
C53 C54 1.368 . S
C53 H76 0.929 . S
C54 C53 1.368 . S
C54 C55 1.386 . S
C54 H77 0.929 . S
C55 C54 1.386 . S
C55 C56 1.373 . S
C56 C55 1.373 . S
C56 C57 1.409 . S
C56 H78 0.931 . S
C57 C52 1.356 1_655 S
C57 C56 1.409 . S
C57 H79 0.930 . S
C58 O68 1.270 . S
C58 O69 1.248 . S
C59 O70 1.267 . S
C59 O71 1.278 . S
O60 Pr40 2.562 . S
O60 C42 1.254 . S
O61 Pr40 2.490 . S
O61 C42 1.225 . S
O62 Pr40 2.695 . S
O62 Pr41 2.436 . S
O62 C49 1.270 . S
O63 Pr40 2.512 . S
O63 C49 1.248 . S
O64 Pr41 2.438 . S
O64 C50 1.267 . S
O65 Pr40 2.437 . S
O65 C50 1.278 . S
O66 Pr41 2.562 . S
O66 C51 1.254 . S
O67 Pr41 2.490 . S
O67 C51 1.225 . S
O68 Pr40 2.436 . S
O68 Pr41 2.695 . S
O68 C58 1.270 . S
O69 Pr41 2.512 . S
O69 C58 1.248 . S
O70 Pr40 2.438 . S
O70 C59 1.267 . S
O71 Pr41 2.437 . S
O71 C59 1.278 . S
H72 C44 0.929 . S
H73 C45 0.929 . S
H74 C47 0.931 . S
H75 C48 0.930 . S
H76 C53 0.929 . S
H77 C54 0.929 . S
H78 C56 0.931 . S
H79 C57 0.930 . S
Pr80 C82 2.880 . S
Pr80 O100 2.562 . S
Pr80 O101 2.490 . S
Pr80 O102 2.695 1_655 S
Pr80 O103 2.512 . S
Pr80 O105 2.437 . S
Pr80 O108 2.436 1_655 S
Pr80 O110 2.438 1_655 S
Pr81 C91 2.880 . S
Pr81 O102 2.436 . S
Pr81 O104 2.438 . S
Pr81 O106 2.562 . S
Pr81 O107 2.490 . S
Pr81 O108 2.695 . S
Pr81 O109 2.512 . S
Pr81 O111 2.437 . S
C82 Pr80 2.880 . S
C82 C83 1.491 . S
C82 O100 1.254 . S
C82 O101 1.225 . S
C83 C82 1.491 . S
C83 C84 1.392 . S
C83 C88 1.356 . S
C84 C83 1.392 . S
C84 C85 1.368 . S
C84 H112 0.929 . S
C85 C84 1.368 . S
C85 C86 1.386 . S
C85 H113 0.929 . S
C86 C85 1.386 . S
C86 C87 1.373 . S
C87 C86 1.373 . S
C87 C88 1.409 . S
C87 H114 0.931 . S
C88 C83 1.356 . S
C88 C87 1.409 . S
C88 H115 0.930 . S
C89 O102 1.270 . S
C89 O103 1.248 1_455 S
C90 O104 1.267 1_655 S
C90 O105 1.278 . S
C91 Pr81 2.880 . S
C91 C92 1.491 . S
C91 O106 1.254 . S
C91 O107 1.225 . S
C92 C91 1.491 . S
C92 C93 1.392 . S
C92 C97 1.356 . S
C93 C92 1.392 . S
C93 C94 1.368 . S
C93 H116 0.929 . S
C94 C93 1.368 . S
C94 C95 1.386 . S
C94 H117 0.929 . S
C95 C94 1.386 . S
C95 C96 1.373 . S
C96 C95 1.373 . S
C96 C97 1.409 . S
C96 H118 0.931 . S
C97 C92 1.356 . S
C97 C96 1.409 . S
C97 H119 0.930 . S
C98 O108 1.270 . S
C98 O109 1.248 . S
C99 O110 1.267 . S
C99 O111 1.278 . S
O100 Pr80 2.562 . S
O100 C82 1.254 . S
O101 Pr80 2.490 . S
O101 C82 1.225 . S
O102 Pr80 2.695 1_455 S
O102 Pr81 2.436 . S
O102 C89 1.270 . S
O103 Pr80 2.512 . S
O103 C89 1.248 1_655 S
O104 Pr81 2.438 . S
O104 C90 1.267 1_455 S
O105 Pr80 2.437 . S
O105 C90 1.278 . S
O106 Pr81 2.562 . S
O106 C91 1.254 . S
O107 Pr81 2.490 . S
O107 C91 1.225 . S
O108 Pr80 2.436 1_455 S
O108 Pr81 2.695 . S
O108 C98 1.270 . S
O109 Pr81 2.512 . S
O109 C98 1.248 . S
O110 Pr80 2.438 1_455 S
O110 C99 1.267 . S
O111 Pr81 2.437 . S
O111 C99 1.278 . S
H112 C84 0.929 . S
H113 C85 0.929 . S
H114 C87 0.931 . S
H115 C88 0.930 . S
H116 C93 0.929 . S
H117 C94 0.929 . S
H118 C96 0.931 . S
H119 C97 0.930 . S
Pr120 C122 2.880 . S
Pr120 O140 2.562 . S
Pr120 O141 2.490 . S
Pr120 O142 2.695 . S
Pr120 O143 2.512 . S
Pr120 O145 2.437 . S
Pr120 O148 2.436 . S
Pr120 O150 2.438 . S
Pr121 C131 2.880 . S
Pr121 O142 2.436 . S
Pr121 O144 2.438 . S
Pr121 O146 2.562 . S
Pr121 O147 2.490 . S
Pr121 O148 2.695 . S
Pr121 O149 2.512 . S
Pr121 O151 2.437 . S
C122 Pr120 2.880 . S
C122 C123 1.491 . S
C122 O140 1.254 . S
C122 O141 1.225 . S
C123 C122 1.491 . S
C123 C124 1.392 . S
C123 C128 1.356 . S
C124 C123 1.392 . S
C124 C125 1.368 . S
C124 H152 0.929 . S
C125 C124 1.368 . S
C125 C126 1.386 . S
C125 H153 0.929 . S
C126 C125 1.386 . S
C126 C127 1.373 . S
C127 C126 1.373 . S
C127 C128 1.409 . S
C127 H154 0.931 . S
C128 C123 1.356 . S
C128 C127 1.409 . S
C128 H155 0.930 . S
C129 O142 1.270 . S
C129 O143 1.248 . S
C130 O144 1.267 . S
C130 O145 1.278 . S
C131 Pr121 2.880 . S
C131 C132 1.491 . S
C131 O146 1.254 . S
C131 O147 1.225 . S
C132 C131 1.491 . S
C132 C133 1.392 1_455 S
C132 C137 1.356 1_455 S
C133 C132 1.392 1_655 S
C133 C134 1.368 . S
C133 H156 0.929 . S
C134 C133 1.368 . S
C134 C135 1.386 . S
C134 H157 0.929 . S
C135 C134 1.386 . S
C135 C136 1.373 . S
C136 C135 1.373 . S
C136 C137 1.409 . S
C136 H158 0.931 . S
C137 C132 1.356 1_655 S
C137 C136 1.409 . S
C137 H159 0.930 . S
C138 O148 1.270 . S
C138 O149 1.248 . S
C139 O150 1.267 . S
C139 O151 1.278 . S
O140 Pr120 2.562 . S
O140 C122 1.254 . S
O141 Pr120 2.490 . S
O141 C122 1.225 . S
O142 Pr120 2.695 . S
O142 Pr121 2.436 . S
O142 C129 1.270 . S
O143 Pr120 2.512 . S
O143 C129 1.248 . S
O144 Pr121 2.438 . S
O144 C130 1.267 . S
O145 Pr120 2.437 . S
O145 C130 1.278 . S
O146 Pr121 2.562 . S
O146 C131 1.254 . S
O147 Pr121 2.490 . S
O147 C131 1.225 . S
O148 Pr120 2.436 . S
O148 Pr121 2.695 . S
O148 C138 1.270 . S
O149 Pr121 2.512 . S
O149 C138 1.248 . S
O150 Pr120 2.438 . S
O150 C139 1.267 . S
O151 Pr121 2.437 . S
O151 C139 1.278 . S
H152 C124 0.929 . S
H153 C125 0.929 . S
H154 C127 0.931 . S
H155 C128 0.930 . S
H156 C133 0.929 . S
H157 C134 0.929 . S
H158 C136 0.931 . S
H159 C137 0.930 . S
Pr160 C162 2.880 . S
Pr160 O180 2.562 . S
Pr160 O181 2.490 . S
Pr160 O182 2.695 . S
Pr160 O183 2.512 . S
Pr160 O185 2.437 . S
Pr160 O188 2.436 . S
Pr160 O190 2.438 . S
Pr161 C171 2.880 . S
Pr161 O182 2.436 1_455 S
Pr161 O184 2.438 1_455 S
Pr161 O186 2.562 . S
Pr161 O187 2.490 . S
Pr161 O188 2.695 1_455 S
Pr161 O189 2.512 . S
Pr161 O191 2.437 . S
C162 Pr160 2.880 . S
C162 C163 1.491 . S
C162 O180 1.254 . S
C162 O181 1.225 . S
C163 C162 1.491 . S
C163 C164 1.392 . S
C163 C168 1.356 . S
C164 C163 1.392 . S
C164 C165 1.368 . S
C164 H192 0.929 . S
C165 C164 1.368 . S
C165 C166 1.386 . S
C165 H193 0.929 . S
C166 C165 1.386 . S
C166 C167 1.373 . S
C167 C166 1.373 . S
C167 C168 1.409 . S
C167 H194 0.931 . S
C168 C163 1.356 . S
C168 C167 1.409 . S
C168 H195 0.930 . S
C169 O182 1.270 . S
C169 O183 1.248 . S
C170 O184 1.267 . S
C170 O185 1.278 . S
C171 Pr161 2.880 . S
C171 C172 1.491 . S
C171 O186 1.254 . S
C171 O187 1.225 . S
C172 C171 1.491 . S
C172 C173 1.392 . S
C172 C177 1.356 . S
C173 C172 1.392 . S
C173 C174 1.368 . S
C173 H196 0.929 . S
C174 C173 1.368 . S
C174 C175 1.386 . S
C174 H197 0.929 . S
C175 C174 1.386 . S
C175 C176 1.373 . S
C176 C175 1.373 . S
C176 C177 1.409 . S
C176 H198 0.931 . S
C177 C172 1.356 . S
C177 C176 1.409 . S
C177 H199 0.930 . S
C178 O188 1.270 . S
C178 O189 1.248 1_655 S
C179 O190 1.267 1_455 S
C179 O191 1.278 . S
O180 Pr160 2.562 . S
O180 C162 1.254 . S
O181 Pr160 2.490 . S
O181 C162 1.225 . S
O182 Pr160 2.695 . S
O182 Pr161 2.436 1_655 S
O182 C169 1.270 . S
O183 Pr160 2.512 . S
O183 C169 1.248 . S
O184 Pr161 2.438 1_655 S
O184 C170 1.267 . S
O185 Pr160 2.437 . S
O185 C170 1.278 . S
O186 Pr161 2.562 . S
O186 C171 1.254 . S
O187 Pr161 2.490 . S
O187 C171 1.225 . S
O188 Pr160 2.436 . S
O188 Pr161 2.695 1_655 S
O188 C178 1.270 . S
O189 Pr161 2.512 . S
O189 C178 1.248 1_455 S
O190 Pr160 2.438 . S
O190 C179 1.267 1_655 S
O191 Pr161 2.437 . S
O191 C179 1.278 . S
H192 C164 0.929 . S
H193 C165 0.929 . S
H194 C167 0.931 . S
H195 C168 0.930 . S
H196 C173 0.929 . S
H197 C174 0.929 . S
H198 C176 0.931 . S
H199 C177 0.930 . S
Pr200 C202 2.880 . S
Pr200 O220 2.562 . S
Pr200 O221 2.490 . S
Pr200 O222 2.695 . S
Pr200 O223 2.512 . S
Pr200 O225 2.437 . S
Pr200 O228 2.436 . S
Pr200 O230 2.438 . S
Pr201 C211 2.880 . S
Pr201 O222 2.436 . S
Pr201 O224 2.438 . S
Pr201 O226 2.562 . S
Pr201 O227 2.490 . S
Pr201 O228 2.695 . S
Pr201 O229 2.512 . S
Pr201 O231 2.437 . S
C202 Pr200 2.880 . S
C202 C203 1.491 . S
C202 O220 1.254 . S
C202 O221 1.225 . S
C203 C202 1.491 . S
C203 C204 1.392 1_655 S
C203 C208 1.356 1_655 S
C204 C203 1.392 1_455 S
C204 C205 1.368 . S
C204 H232 0.929 . S
C205 C204 1.368 . S
C205 C206 1.386 . S
C205 H233 0.929 . S
C206 C205 1.386 . S
C206 C207 1.373 . S
C207 C206 1.373 . S
C207 C208 1.409 . S
C207 H234 0.931 . S
C208 C203 1.356 1_455 S
C208 C207 1.409 . S
C208 H235 0.930 . S
C209 O222 1.270 . S
C209 O223 1.248 . S
C210 O224 1.267 . S
C210 O225 1.278 . S
C211 Pr201 2.880 . S
C211 C212 1.491 . S
C211 O226 1.254 . S
C211 O227 1.225 . S
C212 C211 1.491 . S
C212 C213 1.392 . S
C212 C217 1.356 . S
C213 C212 1.392 . S
C213 C214 1.368 . S
C213 H236 0.929 . S
C214 C213 1.368 . S
C214 C215 1.386 . S
C214 H237 0.929 . S
C215 C214 1.386 . S
C215 C216 1.373 . S
C216 C215 1.373 . S
C216 C217 1.409 . S
C216 H238 0.931 . S
C217 C212 1.356 . S
C217 C216 1.409 . S
C217 H239 0.930 . S
C218 O228 1.270 . S
C218 O229 1.248 . S
C219 O230 1.267 . S
C219 O231 1.278 . S
O220 Pr200 2.562 . S
O220 C202 1.254 . S
O221 Pr200 2.490 . S
O221 C202 1.225 . S
O222 Pr200 2.695 . S
O222 Pr201 2.436 . S
O222 C209 1.270 . S
O223 Pr200 2.512 . S
O223 C209 1.248 . S
O224 Pr201 2.438 . S
O224 C210 1.267 . S
O225 Pr200 2.437 . S
O225 C210 1.278 . S
O226 Pr201 2.562 . S
O226 C211 1.254 . S
O227 Pr201 2.490 . S
O227 C211 1.225 . S
O228 Pr200 2.436 . S
O228 Pr201 2.695 . S
O228 C218 1.270 . S
O229 Pr201 2.512 . S
O229 C218 1.248 . S
O230 Pr200 2.438 . S
O230 C219 1.267 . S
O231 Pr201 2.437 . S
O231 C219 1.278 . S
H232 C204 0.929 . S
H233 C205 0.929 . S
H234 C207 0.931 . S
H235 C208 0.930 . S
H236 C213 0.929 . S
H237 C214 0.929 . S
H238 C216 0.931 . S
H239 C217 0.930 . S
Pr240 C242 2.880 . S
Pr240 O260 2.562 . S
Pr240 O261 2.490 . S
Pr240 O262 2.695 . S
Pr240 O263 2.512 . S
Pr240 O265 2.437 . S
Pr240 O268 2.436 . S
Pr240 O270 2.438 . S
Pr241 C251 2.880 . S
Pr241 O262 2.436 1_455 S
Pr241 O264 2.438 1_455 S
Pr241 O266 2.562 . S
Pr241 O267 2.490 . S
Pr241 O268 2.695 1_455 S
Pr241 O269 2.512 . S
Pr241 O271 2.437 . S
C242 Pr240 2.880 . S
C242 C243 1.491 . S
C242 O260 1.254 . S
C242 O261 1.225 . S
C243 C242 1.491 . S
C243 C244 1.392 . S
C243 C248 1.356 . S
C244 C243 1.392 . S
C244 C245 1.368 . S
C244 H272 0.929 . S
C245 C244 1.368 . S
C245 C246 1.386 . S
C245 H273 0.929 . S
C246 C245 1.386 . S
C246 C247 1.373 . S
C247 C246 1.373 . S
C247 C248 1.409 . S
C247 H274 0.931 . S
C248 C243 1.356 . S
C248 C247 1.409 . S
C248 H275 0.930 . S
C249 O262 1.270 . S
C249 O263 1.248 . S
C250 O264 1.267 . S
C250 O265 1.278 . S
C251 Pr241 2.880 . S
C251 C252 1.491 . S
C251 O266 1.254 . S
C251 O267 1.225 . S
C252 C251 1.491 . S
C252 C253 1.392 . S
C252 C257 1.356 . S
C253 C252 1.392 . S
C253 C254 1.368 . S
C253 H276 0.929 . S
C254 C253 1.368 . S
C254 C255 1.386 . S
C254 H277 0.929 . S
C255 C254 1.386 . S
C255 C256 1.373 . S
C256 C255 1.373 . S
C256 C257 1.409 . S
C256 H278 0.931 . S
C257 C252 1.356 . S
C257 C256 1.409 . S
C257 H279 0.930 . S
C258 O268 1.270 . S
C258 O269 1.248 1_655 S
C259 O270 1.267 1_455 S
C259 O271 1.278 . S
O260 Pr240 2.562 . S
O260 C242 1.254 . S
O261 Pr240 2.490 . S
O261 C242 1.225 . S
O262 Pr240 2.695 . S
O262 Pr241 2.436 1_655 S
O262 C249 1.270 . S
O263 Pr240 2.512 . S
O263 C249 1.248 . S
O264 Pr241 2.438 1_655 S
O264 C250 1.267 . S
O265 Pr240 2.437 . S
O265 C250 1.278 . S
O266 Pr241 2.562 . S
O266 C251 1.254 . S
O267 Pr241 2.490 . S
O267 C251 1.225 . S
O268 Pr240 2.436 . S
O268 Pr241 2.695 1_655 S
O268 C258 1.270 . S
O269 Pr241 2.512 . S
O269 C258 1.248 1_455 S
O270 Pr240 2.438 . S
O270 C259 1.267 1_655 S
O271 Pr241 2.437 . S
O271 C259 1.278 . S
H272 C244 0.929 . S
H273 C245 0.929 . S
H274 C247 0.931 . S
H275 C248 0.930 . S
H276 C253 0.929 . S
H277 C254 0.929 . S
H278 C256 0.931 . S
H279 C257 0.930 . S
Pr280 C282 2.880 . S
Pr280 O300 2.562 . S
Pr280 O301 2.490 . S
Pr280 O302 2.695 . S
Pr280 O303 2.512 . S
Pr280 O305 2.437 . S
Pr280 O308 2.436 . S
Pr280 O310 2.438 . S
Pr281 C291 2.880 . S
Pr281 O302 2.436 . S
Pr281 O304 2.438 . S
Pr281 O306 2.562 . S
Pr281 O307 2.490 . S
Pr281 O308 2.695 . S
Pr281 O309 2.512 . S
Pr281 O311 2.437 . S
C282 Pr280 2.880 . S
C282 C283 1.491 . S
C282 O300 1.254 . S
C282 O301 1.225 . S
C283 C282 1.491 . S
C283 C284 1.392 1_655 S
C283 C288 1.356 1_655 S
C284 C283 1.392 1_455 S
C284 C285 1.368 . S
C284 H312 0.929 . S
C285 C284 1.368 . S
C285 C286 1.386 . S
C285 H313 0.929 . S
C286 C285 1.386 . S
C286 C287 1.373 . S
C287 C286 1.373 . S
C287 C288 1.409 . S
C287 H314 0.931 . S
C288 C283 1.356 1_455 S
C288 C287 1.409 . S
C288 H315 0.930 . S
C289 O302 1.270 . S
C289 O303 1.248 . S
C290 O304 1.267 . S
C290 O305 1.278 . S
C291 Pr281 2.880 . S
C291 C292 1.491 . S
C291 O306 1.254 . S
C291 O307 1.225 . S
C292 C291 1.491 . S
C292 C293 1.392 . S
C292 C297 1.356 . S
C293 C292 1.392 . S
C293 C294 1.368 . S
C293 H316 0.929 . S
C294 C293 1.368 . S
C294 C295 1.386 . S
C294 H317 0.929 . S
C295 C294 1.386 . S
C295 C296 1.373 . S
C296 C295 1.373 . S
C296 C297 1.409 . S
C296 H318 0.931 . S
C297 C292 1.356 . S
C297 C296 1.409 . S
C297 H319 0.930 . S
C298 O308 1.270 . S
C298 O309 1.248 . S
C299 O310 1.267 . S
C299 O311 1.278 . S
O300 Pr280 2.562 . S
O300 C282 1.254 . S
O301 Pr280 2.490 . S
O301 C282 1.225 . S
O302 Pr280 2.695 . S
O302 Pr281 2.436 . S
O302 C289 1.270 . S
O303 Pr280 2.512 . S
O303 C289 1.248 . S
O304 Pr281 2.438 . S
O304 C290 1.267 . S
O305 Pr280 2.437 . S
O305 C290 1.278 . S
O306 Pr281 2.562 . S
O306 C291 1.254 . S
O307 Pr281 2.490 . S
O307 C291 1.225 . S
O308 Pr280 2.436 . S
O308 Pr281 2.695 . S
O308 C298 1.270 . S
O309 Pr281 2.512 . S
O309 C298 1.248 . S
O310 Pr280 2.438 . S
O310 C299 1.267 . S
O311 Pr281 2.437 . S
O311 C299 1.278 . S
H312 C284 0.929 . S
H313 C285 0.929 . S
H314 C287 0.931 . S
H315 C288 0.930 . S
H316 C293 0.929 . S
H317 C294 0.929 . S
H318 C296 0.931 . S
H319 C297 0.930 . S
Pr320 C322 2.871 1_545 S
Pr320 O340 2.562 1_545 S
Pr320 O341 2.490 . S
Pr320 O342 2.695 1_645 S
Pr320 O343 2.512 . S
Pr320 O345 2.437 1_545 S
Pr320 O348 2.436 1_645 S
Pr320 O350 2.438 1_655 S
Pr321 C331 2.880 . S
Pr321 O342 2.436 . S
Pr321 O344 2.438 . S
Pr321 O346 2.562 . S
Pr321 O347 2.490 . S
Pr321 O348 2.695 . S
Pr321 O349 2.512 . S
Pr321 O351 2.437 1_565 S
C322 Pr320 2.871 1_565 S
C322 C323 1.501 . S
C322 O340 1.258 . S
C322 O341 1.211 1_565 S
C323 C322 1.501 . S
C323 C324 1.392 . S
C323 C328 1.356 . S
C324 C323 1.392 . S
C324 C325 1.368 . S
C324 H352 0.929 1_565 S
C325 C324 1.368 . S
C325 C326 1.386 . S
C325 H353 0.929 . S
C326 C325 1.386 . S
C326 C327 1.373 . S
C327 C326 1.373 . S
C327 C328 1.409 . S
C327 H354 0.931 . S
C328 C323 1.356 . S
C328 C327 1.409 . S
C328 H355 0.930 . S
C329 O342 1.270 . S
C329 O343 1.248 1_465 S
C330 O344 1.267 1_655 S
C330 O345 1.278 . S
C331 Pr321 2.880 . S
C331 C332 1.491 . S
C331 O346 1.254 . S
C331 O347 1.225 . S
C332 C331 1.491 . S
C332 C333 1.392 . S
C332 C337 1.356 1_565 S
C333 C332 1.392 . S
C333 C334 1.368 . S
C333 H356 0.929 . S
C334 C333 1.368 . S
C334 C335 1.386 1_565 S
C334 H357 0.929 . S
C335 C334 1.386 1_545 S
C335 C336 1.373 . S
C336 C335 1.373 . S
C336 C337 1.409 . S
C336 H358 0.931 . S
C337 C332 1.356 1_545 S
C337 C336 1.409 . S
C337 H359 0.930 . S
C338 O348 1.270 . S
C338 O349 1.248 . S
C339 O350 1.267 . S
C339 O351 1.278 . S
O340 Pr320 2.562 1_565 S
O340 C322 1.258 . S
O341 Pr320 2.490 . S
O341 C322 1.211 1_545 S
O342 Pr320 2.695 1_465 S
O342 Pr321 2.436 . S
O342 C329 1.270 . S
O343 Pr320 2.512 . S
O343 C329 1.248 1_645 S
O344 Pr321 2.438 . S
O344 C330 1.267 1_455 S
O345 Pr320 2.437 1_565 S
O345 C330 1.278 . S
O346 Pr321 2.562 . S
O346 C331 1.254 . S
O347 Pr321 2.490 . S
O347 C331 1.225 . S
O348 Pr320 2.436 1_465 S
O348 Pr321 2.695 . S
O348 C338 1.270 . S
O349 Pr321 2.512 . S
O349 C338 1.248 . S
O350 Pr320 2.438 1_455 S
O350 C339 1.267 . S
O351 Pr321 2.437 1_545 S
O351 C339 1.278 . S
H352 C324 0.929 1_545 S
H353 C325 0.929 . S
H354 C327 0.931 . S
H355 C328 0.930 . S
H356 C333 0.929 . S
H357 C334 0.929 . S
H358 C336 0.931 . S
H359 C337 0.930 . S
Pr360 C362 2.880 . S
Pr360 O380 2.562 . S
Pr360 O381 2.490 . S
Pr360 O382 2.695 . S
Pr360 O383 2.512 . S
Pr360 O385 2.437 . S
Pr360 O388 2.436 . S
Pr360 O390 2.438 . S
Pr361 C371 2.880 . S
Pr361 O382 2.436 . S
Pr361 O384 2.438 . S
Pr361 O386 2.562 . S
Pr361 O387 2.490 . S
Pr361 O388 2.695 . S
Pr361 O389 2.512 . S
Pr361 O391 2.437 . S
C362 Pr360 2.880 . S
C362 C363 1.491 . S
C362 O380 1.254 . S
C362 O381 1.225 . S
C363 C362 1.491 . S
C363 C364 1.392 . S
C363 C368 1.356 . S
C364 C363 1.392 . S
C364 C365 1.368 . S
C364 H392 0.929 . S
C365 C364 1.368 . S
C365 C366 1.386 . S
C365 H393 0.929 . S
C366 C365 1.386 . S
C366 C367 1.373 . S
C367 C366 1.373 . S
C367 C368 1.409 . S
C367 H394 0.931 . S
C368 C363 1.356 . S
C368 C367 1.409 . S
C368 H395 0.930 . S
C369 O382 1.270 . S
C369 O383 1.248 . S
C370 O384 1.267 . S
C370 O385 1.278 . S
C371 Pr361 2.880 . S
C371 C372 1.491 . S
C371 O386 1.254 . S
C371 O387 1.225 . S
C372 C371 1.491 . S
C372 C373 1.392 1_455 S
C372 C377 1.356 1_455 S
C373 C372 1.392 1_655 S
C373 C374 1.368 . S
C373 H396 0.929 . S
C374 C373 1.368 . S
C374 C375 1.386 . S
C374 H397 0.929 . S
C375 C374 1.386 . S
C375 C376 1.373 . S
C376 C375 1.373 . S
C376 C377 1.409 . S
C376 H398 0.931 . S
C377 C372 1.356 1_655 S
C377 C376 1.409 . S
C377 H399 0.930 . S
C378 O388 1.270 . S
C378 O389 1.248 . S
C379 O390 1.267 . S
C379 O391 1.278 . S
O380 Pr360 2.562 . S
O380 C362 1.254 . S
O381 Pr360 2.490 . S
O381 C362 1.225 . S
O382 Pr360 2.695 . S
O382 Pr361 2.436 . S
O382 C369 1.270 . S
O383 Pr360 2.512 . S
O383 C369 1.248 . S
O384 Pr361 2.438 . S
O384 C370 1.267 . S
O385 Pr360 2.437 . S
O385 C370 1.278 . S
O386 Pr361 2.562 . S
O386 C371 1.254 . S
O387 Pr361 2.490 . S
O387 C371 1.225 . S
O388 Pr360 2.436 . S
O388 Pr361 2.695 . S
O388 C378 1.270 . S
O389 Pr361 2.512 . S
O389 C378 1.248 . S
O390 Pr360 2.438 . S
O390 C379 1.267 . S
O391 Pr361 2.437 . S
O391 C379 1.278 . S
H392 C364 0.929 . S
H393 C365 0.929 . S
H394 C367 0.931 . S
H395 C368 0.930 . S
H396 C373 0.929 . S
H397 C374 0.929 . S
H398 C376 0.931 . S
H399 C377 0.930 . S
Pr400 C402 2.880 . S
Pr400 O420 2.562 . S
Pr400 O421 2.490 . S
Pr400 O422 2.695 1_655 S
Pr400 O423 2.512 . S
Pr400 O425 2.437 . S
Pr400 O428 2.436 1_655 S
Pr400 O430 2.438 1_655 S
Pr401 C411 2.880 . S
Pr401 O422 2.436 . S
Pr401 O424 2.438 . S
Pr401 O426 2.562 . S
Pr401 O427 2.490 . S
Pr401 O428 2.695 . S
Pr401 O429 2.512 . S
Pr401 O431 2.437 . S
C402 Pr400 2.880 . S
C402 C403 1.491 . S
C402 O420 1.254 . S
C402 O421 1.225 . S
C403 C402 1.491 . S
C403 C404 1.392 . S
C403 C408 1.356 . S
C404 C403 1.392 . S
C404 C405 1.368 . S
C404 H432 0.929 . S
C405 C404 1.368 . S
C405 C406 1.386 . S
C405 H433 0.929 . S
C406 C405 1.386 . S
C406 C407 1.373 . S
C407 C406 1.373 . S
C407 C408 1.409 . S
C407 H434 0.931 . S
C408 C403 1.356 . S
C408 C407 1.409 . S
C408 H435 0.930 . S
C409 O422 1.270 . S
C409 O423 1.248 1_455 S
C410 O424 1.267 1_655 S
C410 O425 1.278 . S
C411 Pr401 2.880 . S
C411 C412 1.491 . S
C411 O426 1.254 . S
C411 O427 1.225 . S
C412 C411 1.491 . S
C412 C413 1.392 . S
C412 C417 1.356 . S
C413 C412 1.392 . S
C413 C414 1.368 . S
C413 H436 0.929 . S
C414 C413 1.368 . S
C414 C415 1.386 . S
C414 H437 0.929 . S
C415 C414 1.386 . S
C415 C416 1.373 . S
C416 C415 1.373 . S
C416 C417 1.409 . S
C416 H438 0.931 . S
C417 C412 1.356 . S
C417 C416 1.409 . S
C417 H439 0.930 . S
C418 O428 1.270 . S
C418 O429 1.248 . S
C419 O430 1.267 . S
C419 O431 1.278 . S
O420 Pr400 2.562 . S
O420 C402 1.254 . S
O421 Pr400 2.490 . S
O421 C402 1.225 . S
O422 Pr400 2.695 1_455 S
O422 Pr401 2.436 . S
O422 C409 1.270 . S
O423 Pr400 2.512 . S
O423 C409 1.248 1_655 S
O424 Pr401 2.438 . S
O424 C410 1.267 1_455 S
O425 Pr400 2.437 . S
O425 C410 1.278 . S
O426 Pr401 2.562 . S
O426 C411 1.254 . S
O427 Pr401 2.490 . S
O427 C411 1.225 . S
O428 Pr400 2.436 1_455 S
O428 Pr401 2.695 . S
O428 C418 1.270 . S
O429 Pr401 2.512 . S
O429 C418 1.248 . S
O430 Pr400 2.438 1_455 S
O430 C419 1.267 . S
O431 Pr401 2.437 . S
O431 C419 1.278 . S
H432 C404 0.929 . S
H433 C405 0.929 . S
H434 C407 0.931 . S
H435 C408 0.930 . S
H436 C413 0.929 . S
H437 C414 0.929 . S
H438 C416 0.931 . S
H439 C417 0.930 . S
Pr440 C442 2.871 1_545 S
Pr440 O460 2.562 1_545 S
Pr440 O461 2.490 . S
Pr440 O462 2.695 1_545 S
Pr440 O463 2.512 . S
Pr440 O465 2.437 1_545 S
Pr440 O468 2.436 1_545 S
Pr440 O470 2.438 . S
Pr441 C451 2.880 . S
Pr441 O462 2.436 . S
Pr441 O464 2.438 . S
Pr441 O466 2.562 . S
Pr441 O467 2.490 . S
Pr441 O468 2.695 . S
Pr441 O469 2.512 . S
Pr441 O471 2.437 1_565 S
C442 Pr440 2.871 1_565 S
C442 C443 1.501 . S
C442 O460 1.258 . S
C442 O461 1.211 1_565 S
C443 C442 1.501 . S
C443 C444 1.392 . S
C443 C448 1.356 . S
C444 C443 1.392 . S
C444 C445 1.368 . S
C444 H472 0.929 1_565 S
C445 C444 1.368 . S
C445 C446 1.386 . S
C445 H473 0.929 . S
C446 C445 1.386 . S
C446 C447 1.373 . S
C447 C446 1.373 . S
C447 C448 1.409 . S
C447 H474 0.931 . S
C448 C443 1.356 . S
C448 C447 1.409 . S
C448 H475 0.930 . S
C449 O462 1.270 . S
C449 O463 1.248 1_565 S
C450 O464 1.267 . S
C450 O465 1.278 . S
C451 Pr441 2.880 . S
C451 C452 1.491 . S
C451 O466 1.254 . S
C451 O467 1.225 . S
C452 C451 1.491 . S
C452 C453 1.392 1_455 S
C452 C457 1.356 1_465 S
C453 C452 1.392 1_655 S
C453 C454 1.368 . S
C453 H476 0.929 . S
C454 C453 1.368 . S
C454 C455 1.386 1_565 S
C454 H477 0.929 . S
C455 C454 1.386 1_545 S
C455 C456 1.373 . S
C456 C455 1.373 . S
C456 C457 1.409 . S
C456 H478 0.931 . S
C457 C452 1.356 1_645 S
C457 C456 1.409 . S
C457 H479 0.930 . S
C458 O468 1.270 . S
C458 O469 1.248 . S
C459 O470 1.267 . S
C459 O471 1.278 . S
O460 Pr440 2.562 1_565 S
O460 C442 1.258 . S
O461 Pr440 2.490 . S
O461 C442 1.211 1_545 S
O462 Pr440 2.695 1_565 S
O462 Pr441 2.436 . S
O462 C449 1.270 . S
O463 Pr440 2.512 . S
O463 C449 1.248 1_545 S
O464 Pr441 2.438 . S
O464 C450 1.267 . S
O465 Pr440 2.437 1_565 S
O465 C450 1.278 . S
O466 Pr441 2.562 . S
O466 C451 1.254 . S
O467 Pr441 2.490 . S
O467 C451 1.225 . S
O468 Pr440 2.436 1_565 S
O468 Pr441 2.695 . S
O468 C458 1.270 . S
O469 Pr441 2.512 . S
O469 C458 1.248 . S
O470 Pr440 2.438 . S
O470 C459 1.267 . S
O471 Pr441 2.437 1_545 S
O471 C459 1.278 . S
H472 C444 0.929 1_545 S
H473 C445 0.929 . S
H474 C447 0.931 . S
H475 C448 0.930 . S
H476 C453 0.929 . S
H477 C454 0.929 . S
H478 C456 0.931 . S
H479 C457 0.930 . S
Pr480 C482 2.880 . S
Pr480 O500 2.562 . S
Pr480 O501 2.490 . S
Pr480 O502 2.695 . S
Pr480 O503 2.512 . S
Pr480 O505 2.437 1_545 S
Pr480 O508 2.436 . S
Pr480 O510 2.438 . S
Pr481 C491 2.871 1_565 S
Pr481 O502 2.436 1_465 S
Pr481 O504 2.438 1_455 S
Pr481 O506 2.562 1_565 S
Pr481 O507 2.490 . S
Pr481 O508 2.695 1_465 S
Pr481 O509 2.512 . S
Pr481 O511 2.437 1_565 S
C482 Pr480 2.880 . S
C482 C483 1.491 . S
C482 O500 1.254 . S
C482 O501 1.225 . S
C483 C482 1.491 . S
C483 C484 1.392 . S
C483 C488 1.356 1_545 S
C484 C483 1.392 . S
C484 C485 1.368 . S
C484 H512 0.929 . S
C485 C484 1.368 . S
C485 C486 1.386 1_545 S
C485 H513 0.929 . S
C486 C485 1.386 1_565 S
C486 C487 1.373 . S
C487 C486 1.373 . S
C487 C488 1.409 . S
C487 H514 0.931 . S
C488 C483 1.356 1_565 S
C488 C487 1.409 . S
C488 H515 0.930 . S
C489 O502 1.270 . S
C489 O503 1.248 . S
C490 O504 1.267 . S
C490 O505 1.278 . S
C491 Pr481 2.871 1_545 S
C491 C492 1.501 . S
C491 O506 1.258 . S
C491 O507 1.211 1_545 S
C492 C491 1.501 . S
C492 C493 1.392 . S
C492 C497 1.356 . S
C493 C492 1.392 . S
C493 C494 1.368 . S
C493 H516 0.929 1_545 S
C494 C493 1.368 . S
C494 C495 1.386 . S
C494 H517 0.929 . S
C495 C494 1.386 . S
C495 C496 1.373 . S
C496 C495 1.373 . S
C496 C497 1.409 . S
C496 H518 0.931 . S
C497 C492 1.356 . S
C497 C496 1.409 . S
C497 H519 0.930 . S
C498 O508 1.270 . S
C498 O509 1.248 1_645 S
C499 O510 1.267 1_455 S
C499 O511 1.278 . S
O500 Pr480 2.562 . S
O500 C482 1.254 . S
O501 Pr480 2.490 . S
O501 C482 1.225 . S
O502 Pr480 2.695 . S
O502 Pr481 2.436 1_645 S
O502 C489 1.270 . S
O503 Pr480 2.512 . S
O503 C489 1.248 . S
O504 Pr481 2.438 1_655 S
O504 C490 1.267 . S
O505 Pr480 2.437 1_565 S
O505 C490 1.278 . S
O506 Pr481 2.562 1_545 S
O506 C491 1.258 . S
O507 Pr481 2.490 . S
O507 C491 1.211 1_565 S
O508 Pr480 2.436 . S
O508 Pr481 2.695 1_645 S
O508 C498 1.270 . S
O509 Pr481 2.512 . S
O509 C498 1.248 1_465 S
O510 Pr480 2.438 . S
O510 C499 1.267 1_655 S
O511 Pr481 2.437 1_545 S
O511 C499 1.278 . S
H512 C484 0.929 . S
H513 C485 0.929 . S
H514 C487 0.931 . S
H515 C488 0.930 . S
H516 C493 0.929 1_565 S
H517 C494 0.929 . S
H518 C496 0.931 . S
H519 C497 0.930 . S
Pr520 C522 2.880 . S
Pr520 O540 2.562 . S
Pr520 O541 2.490 . S
Pr520 O542 2.695 . S
Pr520 O543 2.512 . S
Pr520 O545 2.437 . S
Pr520 O548 2.436 . S
Pr520 O550 2.438 . S
Pr521 C531 2.880 . S
Pr521 O542 2.436 . S
Pr521 O544 2.438 . S
Pr521 O546 2.562 . S
Pr521 O547 2.490 . S
Pr521 O548 2.695 . S
Pr521 O549 2.512 . S
Pr521 O551 2.437 . S
C522 Pr520 2.880 . S
C522 C523 1.491 . S
C522 O540 1.254 . S
C522 O541 1.225 . S
C523 C522 1.491 . S
C523 C524 1.392 1_655 S
C523 C528 1.356 1_655 S
C524 C523 1.392 1_455 S
C524 C525 1.368 . S
C524 H552 0.929 . S
C525 C524 1.368 . S
C525 C526 1.386 . S
C525 H553 0.929 . S
C526 C525 1.386 . S
C526 C527 1.373 . S
C527 C526 1.373 . S
C527 C528 1.409 . S
C527 H554 0.931 . S
C528 C523 1.356 1_455 S
C528 C527 1.409 . S
C528 H555 0.930 . S
C529 O542 1.270 . S
C529 O543 1.248 . S
C530 O544 1.267 . S
C530 O545 1.278 . S
C531 Pr521 2.880 . S
C531 C532 1.491 . S
C531 O546 1.254 . S
C531 O547 1.225 . S
C532 C531 1.491 . S
C532 C533 1.392 . S
C532 C537 1.356 . S
C533 C532 1.392 . S
C533 C534 1.368 . S
C533 H556 0.929 . S
C534 C533 1.368 . S
C534 C535 1.386 . S
C534 H557 0.929 . S
C535 C534 1.386 . S
C535 C536 1.373 . S
C536 C535 1.373 . S
C536 C537 1.409 . S
C536 H558 0.931 . S
C537 C532 1.356 . S
C537 C536 1.409 . S
C537 H559 0.930 . S
C538 O548 1.270 . S
C538 O549 1.248 . S
C539 O550 1.267 . S
C539 O551 1.278 . S
O540 Pr520 2.562 . S
O540 C522 1.254 . S
O541 Pr520 2.490 . S
O541 C522 1.225 . S
O542 Pr520 2.695 . S
O542 Pr521 2.436 . S
O542 C529 1.270 . S
O543 Pr520 2.512 . S
O543 C529 1.248 . S
O544 Pr521 2.438 . S
O544 C530 1.267 . S
O545 Pr520 2.437 . S
O545 C530 1.278 . S
O546 Pr521 2.562 . S
O546 C531 1.254 . S
O547 Pr521 2.490 . S
O547 C531 1.225 . S
O548 Pr520 2.436 . S
O548 Pr521 2.695 . S
O548 C538 1.270 . S
O549 Pr521 2.512 . S
O549 C538 1.248 . S
O550 Pr520 2.438 . S
O550 C539 1.267 . S
O551 Pr521 2.437 . S
O551 C539 1.278 . S
H552 C524 0.929 . S
H553 C525 0.929 . S
H554 C527 0.931 . S
H555 C528 0.930 . S
H556 C533 0.929 . S
H557 C534 0.929 . S
H558 C536 0.931 . S
H559 C537 0.930 . S
Pr560 C562 2.880 . S
Pr560 O580 2.562 . S
Pr560 O581 2.490 . S
Pr560 O582 2.695 . S
Pr560 O583 2.512 . S
Pr560 O585 2.437 . S
Pr560 O588 2.436 . S
Pr560 O590 2.438 . S
Pr561 C571 2.880 . S
Pr561 O582 2.436 1_455 S
Pr561 O584 2.438 1_455 S
Pr561 O586 2.562 . S
Pr561 O587 2.490 . S
Pr561 O588 2.695 1_455 S
Pr561 O589 2.512 . S
Pr561 O591 2.437 . S
C562 Pr560 2.880 . S
C562 C563 1.491 . S
C562 O580 1.254 . S
C562 O581 1.225 . S
C563 C562 1.491 . S
C563 C564 1.392 . S
C563 C568 1.356 . S
C564 C563 1.392 . S
C564 C565 1.368 . S
C564 H592 0.929 . S
C565 C564 1.368 . S
C565 C566 1.386 . S
C565 H593 0.929 . S
C566 C565 1.386 . S
C566 C567 1.373 . S
C567 C566 1.373 . S
C567 C568 1.409 . S
C567 H594 0.931 . S
C568 C563 1.356 . S
C568 C567 1.409 . S
C568 H595 0.930 . S
C569 O582 1.270 . S
C569 O583 1.248 . S
C570 O584 1.267 . S
C570 O585 1.278 . S
C571 Pr561 2.880 . S
C571 C572 1.491 . S
C571 O586 1.254 . S
C571 O587 1.225 . S
C572 C571 1.491 . S
C572 C573 1.392 . S
C572 C577 1.356 . S
C573 C572 1.392 . S
C573 C574 1.368 . S
C573 H596 0.929 . S
C574 C573 1.368 . S
C574 C575 1.386 . S
C574 H597 0.929 . S
C575 C574 1.386 . S
C575 C576 1.373 . S
C576 C575 1.373 . S
C576 C577 1.409 . S
C576 H598 0.931 . S
C577 C572 1.356 . S
C577 C576 1.409 . S
C577 H599 0.930 . S
C578 O588 1.270 . S
C578 O589 1.248 1_655 S
C579 O590 1.267 1_455 S
C579 O591 1.278 . S
O580 Pr560 2.562 . S
O580 C562 1.254 . S
O581 Pr560 2.490 . S
O581 C562 1.225 . S
O582 Pr560 2.695 . S
O582 Pr561 2.436 1_655 S
O582 C569 1.270 . S
O583 Pr560 2.512 . S
O583 C569 1.248 . S
O584 Pr561 2.438 1_655 S
O584 C570 1.267 . S
O585 Pr560 2.437 . S
O585 C570 1.278 . S
O586 Pr561 2.562 . S
O586 C571 1.254 . S
O587 Pr561 2.490 . S
O587 C571 1.225 . S
O588 Pr560 2.436 . S
O588 Pr561 2.695 1_655 S
O588 C578 1.270 . S
O589 Pr561 2.512 . S
O589 C578 1.248 1_455 S
O590 Pr560 2.438 . S
O590 C579 1.267 1_655 S
O591 Pr561 2.437 . S
O591 C579 1.278 . S
H592 C564 0.929 . S
H593 C565 0.929 . S
H594 C567 0.931 . S
H595 C568 0.930 . S
H596 C573 0.929 . S
H597 C574 0.929 . S
H598 C576 0.931 . S
H599 C577 0.930 . S
Pr600 C602 2.880 . S
Pr600 O620 2.562 . S
Pr600 O621 2.490 . S
Pr600 O622 2.695 . S
Pr600 O623 2.512 . S
Pr600 O625 2.437 1_545 S
Pr600 O628 2.436 . S
Pr600 O630 2.438 . S
Pr601 C611 2.871 1_565 S
Pr601 O622 2.436 1_565 S
Pr601 O624 2.438 . S
Pr601 O626 2.562 1_565 S
Pr601 O627 2.490 . S
Pr601 O628 2.695 1_565 S
Pr601 O629 2.512 . S
Pr601 O631 2.437 1_565 S
C602 Pr600 2.880 . S
C602 C603 1.491 . S
C602 O620 1.254 . S
C602 O621 1.225 . S
C603 C602 1.491 . S
C603 C604 1.392 1_655 S
C603 C608 1.356 1_645 S
C604 C603 1.392 1_455 S
C604 C605 1.368 . S
C604 H632 0.929 . S
C605 C604 1.368 . S
C605 C606 1.386 1_545 S
C605 H633 0.929 . S
C606 C605 1.386 1_565 S
C606 C607 1.373 . S
C607 C606 1.373 . S
C607 C608 1.409 . S
C607 H634 0.931 . S
C608 C603 1.356 1_465 S
C608 C607 1.409 . S
C608 H635 0.930 . S
C609 O622 1.270 . S
C609 O623 1.248 . S
C610 O624 1.267 . S
C610 O625 1.278 . S
C611 Pr601 2.871 1_545 S
C611 C612 1.501 . S
C611 O626 1.258 . S
C611 O627 1.211 1_545 S
C612 C611 1.501 . S
C612 C613 1.392 . S
C612 C617 1.356 . S
C613 C612 1.392 . S
C613 C614 1.368 . S
C613 H636 0.929 1_545 S
C614 C613 1.368 . S
C614 C615 1.386 . S
C614 H637 0.929 . S
C615 C614 1.386 . S
C615 C616 1.373 . S
C616 C615 1.373 . S
C616 C617 1.409 . S
C616 H638 0.931 . S
C617 C612 1.356 . S
C617 C616 1.409 . S
C617 H639 0.930 . S
C618 O628 1.270 . S
C618 O629 1.248 1_545 S
C619 O630 1.267 . S
C619 O631 1.278 . S
O620 Pr600 2.562 . S
O620 C602 1.254 . S
O621 Pr600 2.490 . S
O621 C602 1.225 . S
O622 Pr600 2.695 . S
O622 Pr601 2.436 1_545 S
O622 C609 1.270 . S
O623 Pr600 2.512 . S
O623 C609 1.248 . S
O624 Pr601 2.438 . S
O624 C610 1.267 . S
O625 Pr600 2.437 1_565 S
O625 C610 1.278 . S
O626 Pr601 2.562 1_545 S
O626 C611 1.258 . S
O627 Pr601 2.490 . S
O627 C611 1.211 1_565 S
O628 Pr600 2.436 . S
O628 Pr601 2.695 1_545 S
O628 C618 1.270 . S
O629 Pr601 2.512 . S
O629 C618 1.248 1_565 S
O630 Pr600 2.438 . S
O630 C619 1.267 . S
O631 Pr601 2.437 1_545 S
O631 C619 1.278 . S
H632 C604 0.929 . S
H633 C605 0.929 . S
H634 C607 0.931 . S
H635 C608 0.930 . S
H636 C613 0.929 1_565 S
H637 C614 0.929 . S
H638 C616 0.931 . S
H639 C617 0.930 . S
Pr640 C642 2.880 . S
Pr640 O660 2.562 . S
Pr640 O661 2.490 . S
Pr640 O662 2.695 . S
Pr640 O663 2.512 . S
Pr640 O665 2.437 . S
Pr640 O668 2.436 . S
Pr640 O670 2.438 . S
Pr641 C651 2.880 . S
Pr641 O662 2.436 . S
Pr641 O664 2.438 . S
Pr641 O666 2.562 . S
Pr641 O667 2.490 . S
Pr641 O668 2.695 . S
Pr641 O669 2.512 . S
Pr641 O671 2.437 . S
C642 Pr640 2.880 . S
C642 C643 1.491 . S
C642 O660 1.254 . S
C642 O661 1.225 . S
C643 C642 1.491 . S
C643 C644 1.392 . S
C643 C648 1.356 . S
C644 C643 1.392 . S
C644 C645 1.368 . S
C644 H672 0.929 . S
C645 C644 1.368 . S
C645 C646 1.386 . S
C645 H673 0.929 . S
C646 C645 1.386 . S
C646 C647 1.373 . S
C647 C646 1.373 . S
C647 C648 1.409 . S
C647 H674 0.931 . S
C648 C643 1.356 . S
C648 C647 1.409 . S
C648 H675 0.930 . S
C649 O662 1.270 . S
C649 O663 1.248 . S
C650 O664 1.267 . S
C650 O665 1.278 . S
C651 Pr641 2.880 . S
C651 C652 1.491 . S
C651 O666 1.254 . S
C651 O667 1.225 . S
C652 C651 1.491 . S
C652 C653 1.392 . S
C652 C657 1.356 . S
C653 C652 1.392 . S
C653 C654 1.368 . S
C653 H676 0.929 . S
C654 C653 1.368 . S
C654 C655 1.386 . S
C654 H677 0.929 . S
C655 C654 1.386 . S
C655 C656 1.373 . S
C656 C655 1.373 . S
C656 C657 1.409 . S
C656 H678 0.931 . S
C657 C652 1.356 . S
C657 C656 1.409 . S
C657 H679 0.930 . S
C658 O668 1.270 . S
C658 O669 1.248 . S
C659 O670 1.267 . S
C659 O671 1.278 . S
O660 Pr640 2.562 . S
O660 C642 1.254 . S
O661 Pr640 2.490 . S
O661 C642 1.225 . S
O662 Pr640 2.695 . S
O662 Pr641 2.436 . S
O662 C649 1.270 . S
O663 Pr640 2.512 . S
O663 C649 1.248 . S
O664 Pr641 2.438 . S
O664 C650 1.267 . S
O665 Pr640 2.437 . S
O665 C650 1.278 . S
O666 Pr641 2.562 . S
O666 C651 1.254 . S
O667 Pr641 2.490 . S
O667 C651 1.225 . S
O668 Pr640 2.436 . S
O668 Pr641 2.695 . S
O668 C658 1.270 . S
O669 Pr641 2.512 . S
O669 C658 1.248 . S
O670 Pr640 2.438 . S
O670 C659 1.267 . S
O671 Pr641 2.437 . S
O671 C659 1.278 . S
H672 C644 0.929 . S
H673 C645 0.929 . S
H674 C647 0.931 . S
H675 C648 0.930 . S
H676 C653 0.929 . S
H677 C654 0.929 . S
H678 C656 0.931 . S
H679 C657 0.930 . S
Pr680 C682 2.880 . S
Pr680 O700 2.562 . S
Pr680 O701 2.490 . S
Pr680 O702 2.695 . S
Pr680 O703 2.512 . S
Pr680 O705 2.437 . S
Pr680 O708 2.436 . S
Pr680 O710 2.438 . S
Pr681 C691 2.880 . S
Pr681 O702 2.436 . S
Pr681 O704 2.438 . S
Pr681 O706 2.562 . S
Pr681 O707 2.490 . S
Pr681 O708 2.695 . S
Pr681 O709 2.512 . S
Pr681 O711 2.437 . S
C682 Pr680 2.880 . S
C682 C683 1.491 . S
C682 O700 1.254 . S
C682 O701 1.225 . S
C683 C682 1.491 . S
C683 C684 1.392 . S
C683 C688 1.356 . S
C684 C683 1.392 . S
C684 C685 1.368 1_655 S
C684 H712 0.929 . S
C685 C684 1.368 1_455 S
C685 C686 1.386 . S
C685 H713 0.929 . S
C686 C685 1.386 . S
C686 C687 1.373 . S
C687 C686 1.373 . S
C687 C688 1.409 1_455 S
C687 H714 0.931 . S
C688 C683 1.356 . S
C688 C687 1.409 1_655 S
C688 H715 0.930 . S
C689 O702 1.270 . S
C689 O703 1.248 . S
C690 O704 1.267 . S
C690 O705 1.278 . S
C691 Pr681 2.880 . S
C691 C692 1.491 . S
C691 O706 1.254 . S
C691 O707 1.225 . S
C692 C691 1.491 . S
C692 C693 1.392 . S
C692 C697 1.356 . S
C693 C692 1.392 . S
C693 C694 1.368 . S
C693 H716 0.929 . S
C694 C693 1.368 . S
C694 C695 1.386 . S
C694 H717 0.929 . S
C695 C694 1.386 . S
C695 C696 1.373 . S
C696 C695 1.373 . S
C696 C697 1.409 . S
C696 H718 0.931 . S
C697 C692 1.356 . S
C697 C696 1.409 . S
C697 H719 0.930 . S
C698 O708 1.270 . S
C698 O709 1.248 . S
C699 O710 1.267 . S
C699 O711 1.278 . S
O700 Pr680 2.562 . S
O700 C682 1.254 . S
O701 Pr680 2.490 . S
O701 C682 1.225 . S
O702 Pr680 2.695 . S
O702 Pr681 2.436 . S
O702 C689 1.270 . S
O703 Pr680 2.512 . S
O703 C689 1.248 . S
O704 Pr681 2.438 . S
O704 C690 1.267 . S
O705 Pr680 2.437 . S
O705 C690 1.278 . S
O706 Pr681 2.562 . S
O706 C691 1.254 . S
O707 Pr681 2.490 . S
O707 C691 1.225 . S
O708 Pr680 2.436 . S
O708 Pr681 2.695 . S
O708 C698 1.270 . S
O709 Pr681 2.512 . S
O709 C698 1.248 . S
O710 Pr680 2.438 . S
O710 C699 1.267 . S
O711 Pr681 2.437 . S
O711 C699 1.278 . S
H712 C684 0.929 . S
H713 C685 0.929 . S
H714 C687 0.931 . S
H715 C688 0.930 . S
H716 C693 0.929 . S
H717 C694 0.929 . S
H718 C696 0.931 . S
H719 C697 0.930 . S
Pr720 C722 2.880 . S
Pr720 O740 2.562 . S
Pr720 O741 2.490 . S
Pr720 O742 2.695 . S
Pr720 O743 2.512 . S
Pr720 O745 2.437 . S
Pr720 O748 2.436 . S
Pr720 O750 2.438 . S
Pr721 C731 2.880 . S
Pr721 O742 2.436 . S
Pr721 O744 2.438 . S
Pr721 O746 2.562 . S
Pr721 O747 2.490 . S
Pr721 O748 2.695 . S
Pr721 O749 2.512 . S
Pr721 O751 2.437 . S
C722 Pr720 2.880 . S
C722 C723 1.491 . S
C722 O740 1.254 . S
C722 O741 1.225 . S
C723 C722 1.491 . S
C723 C724 1.392 . S
C723 C728 1.356 . S
C724 C723 1.392 . S
C724 C725 1.368 . S
C724 H752 0.929 . S
C725 C724 1.368 . S
C725 C726 1.386 . S
C725 H753 0.929 . S
C726 C725 1.386 . S
C726 C727 1.373 . S
C727 C726 1.373 . S
C727 C728 1.409 . S
C727 H754 0.931 . S
C728 C723 1.356 . S
C728 C727 1.409 . S
C728 H755 0.930 . S
C729 O742 1.270 . S
C729 O743 1.248 . S
C730 O744 1.267 . S
C730 O745 1.278 . S
C731 Pr721 2.880 . S
C731 C732 1.491 . S
C731 O746 1.254 . S
C731 O747 1.225 . S
C732 C731 1.491 . S
C732 C733 1.392 . S
C732 C737 1.356 . S
C733 C732 1.392 . S
C733 C734 1.368 . S
C733 H756 0.929 . S
C734 C733 1.368 . S
C734 C735 1.386 . S
C734 H757 0.929 . S
C735 C734 1.386 . S
C735 C736 1.373 . S
C736 C735 1.373 . S
C736 C737 1.409 . S
C736 H758 0.931 . S
C737 C732 1.356 . S
C737 C736 1.409 . S
C737 H759 0.930 . S
C738 O748 1.270 . S
C738 O749 1.248 . S
C739 O750 1.267 . S
C739 O751 1.278 . S
O740 Pr720 2.562 . S
O740 C722 1.254 . S
O741 Pr720 2.490 . S
O741 C722 1.225 . S
O742 Pr720 2.695 . S
O742 Pr721 2.436 . S
O742 C729 1.270 . S
O743 Pr720 2.512 . S
O743 C729 1.248 . S
O744 Pr721 2.438 . S
O744 C730 1.267 . S
O745 Pr720 2.437 . S
O745 C730 1.278 . S
O746 Pr721 2.562 . S
O746 C731 1.254 . S
O747 Pr721 2.490 . S
O747 C731 1.225 . S
O748 Pr720 2.436 . S
O748 Pr721 2.695 . S
O748 C738 1.270 . S
O749 Pr721 2.512 . S
O749 C738 1.248 . S
O750 Pr720 2.438 . S
O750 C739 1.267 . S
O751 Pr721 2.437 . S
O751 C739 1.278 . S
H752 C724 0.929 . S
H753 C725 0.929 . S
H754 C727 0.931 . S
H755 C728 0.930 . S
H756 C733 0.929 . S
H757 C734 0.929 . S
H758 C736 0.931 . S
H759 C737 0.930 . S
Pr760 C762 2.880 . S
Pr760 O780 2.562 . S
Pr760 O781 2.490 . S
Pr760 O782 2.695 . S
Pr760 O783 2.512 . S
Pr760 O785 2.437 . S
Pr760 O788 2.436 . S
Pr760 O790 2.438 . S
Pr761 C771 2.880 . S
Pr761 O782 2.436 . S
Pr761 O784 2.438 . S
Pr761 O786 2.562 . S
Pr761 O787 2.490 . S
Pr761 O788 2.695 . S
Pr761 O789 2.512 . S
Pr761 O791 2.437 . S
C762 Pr760 2.880 . S
C762 C763 1.491 . S
C762 O780 1.254 . S
C762 O781 1.225 . S
C763 C762 1.491 . S
C763 C764 1.392 . S
C763 C768 1.356 . S
C764 C763 1.392 . S
C764 C765 1.368 1_655 S
C764 H792 0.929 . S
C765 C764 1.368 1_455 S
C765 C766 1.386 . S
C765 H793 0.929 . S
C766 C765 1.386 . S
C766 C767 1.373 . S
C767 C766 1.373 . S
C767 C768 1.409 1_455 S
C767 H794 0.931 . S
C768 C763 1.356 . S
C768 C767 1.409 1_655 S
C768 H795 0.930 . S
C769 O782 1.270 . S
C769 O783 1.248 . S
C770 O784 1.267 . S
C770 O785 1.278 . S
C771 Pr761 2.880 . S
C771 C772 1.491 . S
C771 O786 1.254 . S
C771 O787 1.225 . S
C772 C771 1.491 . S
C772 C773 1.392 . S
C772 C777 1.356 . S
C773 C772 1.392 . S
C773 C774 1.368 . S
C773 H796 0.929 . S
C774 C773 1.368 . S
C774 C775 1.386 . S
C774 H797 0.929 . S
C775 C774 1.386 . S
C775 C776 1.373 . S
C776 C775 1.373 . S
C776 C777 1.409 . S
C776 H798 0.931 . S
C777 C772 1.356 . S
C777 C776 1.409 . S
C777 H799 0.930 . S
C778 O788 1.270 . S
C778 O789 1.248 . S
C779 O790 1.267 . S
C779 O791 1.278 . S
O780 Pr760 2.562 . S
O780 C762 1.254 . S
O781 Pr760 2.490 . S
O781 C762 1.225 . S
O782 Pr760 2.695 . S
O782 Pr761 2.436 . S
O782 C769 1.270 . S
O783 Pr760 2.512 . S
O783 C769 1.248 . S
O784 Pr761 2.438 . S
O784 C770 1.267 . S
O785 Pr760 2.437 . S
O785 C770 1.278 . S
O786 Pr761 2.562 . S
O786 C771 1.254 . S
O787 Pr761 2.490 . S
O787 C771 1.225 . S
O788 Pr760 2.436 . S
O788 Pr761 2.695 . S
O788 C778 1.270 . S
O789 Pr761 2.512 . S
O789 C778 1.248 . S
O790 Pr760 2.438 . S
O790 C779 1.267 . S
O791 Pr761 2.437 . S
O791 C779 1.278 . S
H792 C764 0.929 . S
H793 C765 0.929 . S
H794 C767 0.931 . S
H795 C768 0.930 . S
H796 C773 0.929 . S
H797 C774 0.929 . S
H798 C776 0.931 . S
H799 C777 0.930 . S
Pr800 C802 2.880 . S
Pr800 O820 2.562 . S
Pr800 O821 2.490 . S
Pr800 O822 2.695 . S
Pr800 O823 2.512 . S
Pr800 O825 2.437 . S
Pr800 O828 2.436 . S
Pr800 O830 2.438 . S
Pr801 C811 2.880 . S
Pr801 O822 2.436 . S
Pr801 O824 2.438 . S
Pr801 O826 2.562 . S
Pr801 O827 2.490 . S
Pr801 O828 2.695 . S
Pr801 O829 2.512 . S
Pr801 O831 2.437 . S
C802 Pr800 2.880 . S
C802 C803 1.491 . S
C802 O820 1.254 . S
C802 O821 1.225 . S
C803 C802 1.491 . S
C803 C804 1.392 . S
C803 C808 1.356 . S
C804 C803 1.392 . S
C804 C805 1.368 . S
C804 H832 0.929 . S
C805 C804 1.368 . S
C805 C806 1.386 . S
C805 H833 0.929 . S
C806 C805 1.386 . S
C806 C807 1.373 . S
C807 C806 1.373 . S
C807 C808 1.409 . S
C807 H834 0.931 . S
C808 C803 1.356 . S
C808 C807 1.409 . S
C808 H835 0.930 . S
C809 O822 1.270 . S
C809 O823 1.248 . S
C810 O824 1.267 . S
C810 O825 1.278 . S
C811 Pr801 2.880 . S
C811 C812 1.491 . S
C811 O826 1.254 . S
C811 O827 1.225 . S
C812 C811 1.491 . S
C812 C813 1.392 . S
C812 C817 1.356 . S
C813 C812 1.392 . S
C813 C814 1.368 . S
C813 H836 0.929 . S
C814 C813 1.368 . S
C814 C815 1.386 . S
C814 H837 0.929 . S
C815 C814 1.386 . S
C815 C816 1.373 . S
C816 C815 1.373 . S
C816 C817 1.409 . S
C816 H838 0.931 . S
C817 C812 1.356 . S
C817 C816 1.409 . S
C817 H839 0.930 . S
C818 O828 1.270 . S
C818 O829 1.248 . S
C819 O830 1.267 . S
C819 O831 1.278 . S
O820 Pr800 2.562 . S
O820 C802 1.254 . S
O821 Pr800 2.490 . S
O821 C802 1.225 . S
O822 Pr800 2.695 . S
O822 Pr801 2.436 . S
O822 C809 1.270 . S
O823 Pr800 2.512 . S
O823 C809 1.248 . S
O824 Pr801 2.438 . S
O824 C810 1.267 . S
O825 Pr800 2.437 . S
O825 C810 1.278 . S
O826 Pr801 2.562 . S
O826 C811 1.254 . S
O827 Pr801 2.490 . S
O827 C811 1.225 . S
O828 Pr800 2.436 . S
O828 Pr801 2.695 . S
O828 C818 1.270 . S
O829 Pr801 2.512 . S
O829 C818 1.248 . S
O830 Pr800 2.438 . S
O830 C819 1.267 . S
O831 Pr801 2.437 . S
O831 C819 1.278 . S
H832 C804 0.929 . S
H833 C805 0.929 . S
H834 C807 0.931 . S
H835 C808 0.930 . S
H836 C813 0.929 . S
H837 C814 0.929 . S
H838 C816 0.931 . S
H839 C817 0.930 . S
Pr840 C842 2.880 . S
Pr840 O860 2.562 . S
Pr840 O861 2.490 . S
Pr840 O862 2.695 . S
Pr840 O863 2.512 . S
Pr840 O865 2.437 . S
Pr840 O868 2.436 . S
Pr840 O870 2.438 . S
Pr841 C851 2.880 . S
Pr841 O862 2.436 . S
Pr841 O864 2.438 . S
Pr841 O866 2.562 . S
Pr841 O867 2.490 . S
Pr841 O868 2.695 . S
Pr841 O869 2.512 . S
Pr841 O871 2.437 . S
C842 Pr840 2.880 . S
C842 C843 1.491 . S
C842 O860 1.254 . S
C842 O861 1.225 . S
C843 C842 1.491 . S
C843 C844 1.392 . S
C843 C848 1.356 . S
C844 C843 1.392 . S
C844 C845 1.368 . S
C844 H872 0.929 . S
C845 C844 1.368 . S
C845 C846 1.386 . S
C845 H873 0.929 . S
C846 C845 1.386 . S
C846 C847 1.373 . S
C847 C846 1.373 . S
C847 C848 1.409 . S
C847 H874 0.931 . S
C848 C843 1.356 . S
C848 C847 1.409 . S
C848 H875 0.930 . S
C849 O862 1.270 . S
C849 O863 1.248 . S
C850 O864 1.267 . S
C850 O865 1.278 . S
C851 Pr841 2.880 . S
C851 C852 1.491 . S
C851 O866 1.254 . S
C851 O867 1.225 . S
C852 C851 1.491 . S
C852 C853 1.392 . S
C852 C857 1.356 . S
C853 C852 1.392 . S
C853 C854 1.368 1_455 S
C853 H876 0.929 . S
C854 C853 1.368 1_655 S
C854 C855 1.386 . S
C854 H877 0.929 . S
C855 C854 1.386 . S
C855 C856 1.373 . S
C856 C855 1.373 . S
C856 C857 1.409 1_655 S
C856 H878 0.931 . S
C857 C852 1.356 . S
C857 C856 1.409 1_455 S
C857 H879 0.930 . S
C858 O868 1.270 . S
C858 O869 1.248 . S
C859 O870 1.267 . S
C859 O871 1.278 . S
O860 Pr840 2.562 . S
O860 C842 1.254 . S
O861 Pr840 2.490 . S
O861 C842 1.225 . S
O862 Pr840 2.695 . S
O862 Pr841 2.436 . S
O862 C849 1.270 . S
O863 Pr840 2.512 . S
O863 C849 1.248 . S
O864 Pr841 2.438 . S
O864 C850 1.267 . S
O865 Pr840 2.437 . S
O865 C850 1.278 . S
O866 Pr841 2.562 . S
O866 C851 1.254 . S
O867 Pr841 2.490 . S
O867 C851 1.225 . S
O868 Pr840 2.436 . S
O868 Pr841 2.695 . S
O868 C858 1.270 . S
O869 Pr841 2.512 . S
O869 C858 1.248 . S
O870 Pr840 2.438 . S
O870 C859 1.267 . S
O871 Pr841 2.437 . S
O871 C859 1.278 . S
H872 C844 0.929 . S
H873 C845 0.929 . S
H874 C847 0.931 . S
H875 C848 0.930 . S
H876 C853 0.929 . S
H877 C854 0.929 . S
H878 C856 0.931 . S
H879 C857 0.930 . S
Pr880 C882 2.880 . S
Pr880 O900 2.562 . S
Pr880 O901 2.490 . S
Pr880 O902 2.695 . S
Pr880 O903 2.512 . S
Pr880 O905 2.437 . S
Pr880 O908 2.436 . S
Pr880 O910 2.438 . S
Pr881 C891 2.880 . S
Pr881 O902 2.436 . S
Pr881 O904 2.438 . S
Pr881 O906 2.562 . S
Pr881 O907 2.490 . S
Pr881 O908 2.695 . S
Pr881 O909 2.512 . S
Pr881 O911 2.437 . S
C882 Pr880 2.880 . S
C882 C883 1.491 . S
C882 O900 1.254 . S
C882 O901 1.225 . S
C883 C882 1.491 . S
C883 C884 1.392 . S
C883 C888 1.356 . S
C884 C883 1.392 . S
C884 C885 1.368 . S
C884 H912 0.929 . S
C885 C884 1.368 . S
C885 C886 1.386 . S
C885 H913 0.929 . S
C886 C885 1.386 . S
C886 C887 1.373 . S
C887 C886 1.373 . S
C887 C888 1.409 . S
C887 H914 0.931 . S
C888 C883 1.356 . S
C888 C887 1.409 . S
C888 H915 0.930 . S
C889 O902 1.270 . S
C889 O903 1.248 . S
C890 O904 1.267 . S
C890 O905 1.278 . S
C891 Pr881 2.880 . S
C891 C892 1.491 . S
C891 O906 1.254 . S
C891 O907 1.225 . S
C892 C891 1.491 . S
C892 C893 1.392 . S
C892 C897 1.356 . S
C893 C892 1.392 . S
C893 C894 1.368 . S
C893 H916 0.929 . S
C894 C893 1.368 . S
C894 C895 1.386 . S
C894 H917 0.929 . S
C895 C894 1.386 . S
C895 C896 1.373 . S
C896 C895 1.373 . S
C896 C897 1.409 . S
C896 H918 0.931 . S
C897 C892 1.356 . S
C897 C896 1.409 . S
C897 H919 0.930 . S
C898 O908 1.270 . S
C898 O909 1.248 . S
C899 O910 1.267 . S
C899 O911 1.278 . S
O900 Pr880 2.562 . S
O900 C882 1.254 . S
O901 Pr880 2.490 . S
O901 C882 1.225 . S
O902 Pr880 2.695 . S
O902 Pr881 2.436 . S
O902 C889 1.270 . S
O903 Pr880 2.512 . S
O903 C889 1.248 . S
O904 Pr881 2.438 . S
O904 C890 1.267 . S
O905 Pr880 2.437 . S
O905 C890 1.278 . S
O906 Pr881 2.562 . S
O906 C891 1.254 . S
O907 Pr881 2.490 . S
O907 C891 1.225 . S
O908 Pr880 2.436 . S
O908 Pr881 2.695 . S
O908 C898 1.270 . S
O909 Pr881 2.512 . S
O909 C898 1.248 . S
O910 Pr880 2.438 . S
O910 C899 1.267 . S
O911 Pr881 2.437 . S
O911 C899 1.278 . S
H912 C884 0.929 . S
H913 C885 0.929 . S
H914 C887 0.931 . S
H915 C888 0.930 . S
H916 C893 0.929 . S
H917 C894 0.929 . S
H918 C896 0.931 . S
H919 C897 0.930 . S
Pr920 C922 2.880 . S
Pr920 O940 2.562 . S
Pr920 O941 2.490 . S
Pr920 O942 2.695 . S
Pr920 O943 2.512 . S
Pr920 O945 2.437 . S
Pr920 O948 2.436 . S
Pr920 O950 2.438 . S
Pr921 C931 2.880 . S
Pr921 O942 2.436 . S
Pr921 O944 2.438 . S
Pr921 O946 2.562 . S
Pr921 O947 2.490 . S
Pr921 O948 2.695 . S
Pr921 O949 2.512 . S
Pr921 O951 2.437 . S
C922 Pr920 2.880 . S
C922 C923 1.491 . S
C922 O940 1.254 . S
C922 O941 1.225 . S
C923 C922 1.491 . S
C923 C924 1.392 . S
C923 C928 1.356 . S
C924 C923 1.392 . S
C924 C925 1.368 . S
C924 H952 0.929 . S
C925 C924 1.368 . S
C925 C926 1.386 . S
C925 H953 0.929 . S
C926 C925 1.386 . S
C926 C927 1.373 . S
C927 C926 1.373 . S
C927 C928 1.409 . S
C927 H954 0.931 . S
C928 C923 1.356 . S
C928 C927 1.409 . S
C928 H955 0.930 . S
C929 O942 1.270 . S
C929 O943 1.248 . S
C930 O944 1.267 . S
C930 O945 1.278 . S
C931 Pr921 2.880 . S
C931 C932 1.491 . S
C931 O946 1.254 . S
C931 O947 1.225 . S
C932 C931 1.491 . S
C932 C933 1.392 . S
C932 C937 1.356 . S
C933 C932 1.392 . S
C933 C934 1.368 1_455 S
C933 H956 0.929 . S
C934 C933 1.368 1_655 S
C934 C935 1.386 . S
C934 H957 0.929 . S
C935 C934 1.386 . S
C935 C936 1.373 . S
C936 C935 1.373 . S
C936 C937 1.409 1_655 S
C936 H958 0.931 . S
C937 C932 1.356 . S
C937 C936 1.409 1_455 S
C937 H959 0.930 . S
C938 O948 1.270 . S
C938 O949 1.248 . S
C939 O950 1.267 . S
C939 O951 1.278 . S
O940 Pr920 2.562 . S
O940 C922 1.254 . S
O941 Pr920 2.490 . S
O941 C922 1.225 . S
O942 Pr920 2.695 . S
O942 Pr921 2.436 . S
O942 C929 1.270 . S
O943 Pr920 2.512 . S
O943 C929 1.248 . S
O944 Pr921 2.438 . S
O944 C930 1.267 . S
O945 Pr920 2.437 . S
O945 C930 1.278 . S
O946 Pr921 2.562 . S
O946 C931 1.254 . S
O947 Pr921 2.490 . S
O947 C931 1.225 . S
O948 Pr920 2.436 . S
O948 Pr921 2.695 . S
O948 C938 1.270 . S
O949 Pr921 2.512 . S
O949 C938 1.248 . S
O950 Pr920 2.438 . S
O950 C939 1.267 . S
O951 Pr921 2.437 . S
O951 C939 1.278 . S
H952 C924 0.929 . S
H953 C925 0.929 . S
H954 C927 0.931 . S
H955 C928 0.930 . S
H956 C933 0.929 . S
H957 C934 0.929 . S
H958 C936 0.931 . S
H959 C937 0.930 . S
Pr960 C962 2.871 1_545 S
Pr960 O980 2.562 1_545 S
Pr960 O981 2.490 . S
Pr960 O982 2.695 1_545 S
Pr960 O983 2.512 . S
Pr960 O985 2.437 1_545 S
Pr960 O988 2.436 1_545 S
Pr960 O990 2.438 . S
Pr961 C971 2.880 . S
Pr961 O982 2.436 . S
Pr961 O984 2.438 . S
Pr961 O986 2.562 . S
Pr961 O987 2.490 . S
Pr961 O988 2.695 . S
Pr961 O989 2.512 . S
Pr961 O991 2.437 1_565 S
C962 Pr960 2.871 1_565 S
C962 C963 1.501 . S
C962 O980 1.258 . S
C962 O981 1.211 1_565 S
C963 C962 1.501 . S
C963 C964 1.392 . S
C963 C968 1.356 . S
C964 C963 1.392 . S
C964 C965 1.368 . S
C964 H992 0.929 1_565 S
C965 C964 1.368 . S
C965 C966 1.386 . S
C965 H993 0.929 . S
C966 C965 1.386 . S
C966 C967 1.373 . S
C967 C966 1.373 . S
C967 C968 1.409 . S
C967 H994 0.931 . S
C968 C963 1.356 . S
C968 C967 1.409 . S
C968 H995 0.930 . S
C969 O982 1.270 . S
C969 O983 1.248 1_565 S
C970 O984 1.267 . S
C970 O985 1.278 . S
C971 Pr961 2.880 . S
C971 C972 1.491 . S
C971 O986 1.254 . S
C971 O987 1.225 . S
C972 C971 1.491 . S
C972 C973 1.392 . S
C972 C977 1.356 1_565 S
C973 C972 1.392 . S
C973 C974 1.368 . S
C973 H996 0.929 . S
C974 C973 1.368 . S
C974 C975 1.386 1_565 S
C974 H997 0.929 . S
C975 C974 1.386 1_545 S
C975 C976 1.373 . S
C976 C975 1.373 . S
C976 C977 1.409 . S
C976 H998 0.931 . S
C977 C972 1.356 1_545 S
C977 C976 1.409 . S
C977 H999 0.930 . S
C978 O988 1.270 . S
C978 O989 1.248 . S
C979 O990 1.267 . S
C979 O991 1.278 . S
O980 Pr960 2.562 1_565 S
O980 C962 1.258 . S
O981 Pr960 2.490 . S
O981 C962 1.211 1_545 S
O982 Pr960 2.695 1_565 S
O982 Pr961 2.436 . S
O982 C969 1.270 . S
O983 Pr960 2.512 . S
O983 C969 1.248 1_545 S
O984 Pr961 2.438 . S
O984 C970 1.267 . S
O985 Pr960 2.437 1_565 S
O985 C970 1.278 . S
O986 Pr961 2.562 . S
O986 C971 1.254 . S
O987 Pr961 2.490 . S
O987 C971 1.225 . S
O988 Pr960 2.436 1_565 S
O988 Pr961 2.695 . S
O988 C978 1.270 . S
O989 Pr961 2.512 . S
O989 C978 1.248 . S
O990 Pr960 2.438 . S
O990 C979 1.267 . S
O991 Pr961 2.437 1_545 S
O991 C979 1.278 . S
H992 C964 0.929 1_545 S
H993 C965 0.929 . S
H994 C967 0.931 . S
H995 C968 0.930 . S
H996 C973 0.929 . S
H997 C974 0.929 . S
H998 C976 0.931 . S
H999 C977 0.930 . S
Pr1000 C1002 2.880 . S
Pr1000 O1020 2.562 . S
Pr1000 O1021 2.490 . S
Pr1000 O1022 2.695 . S
Pr1000 O1023 2.512 . S
Pr1000 O1025 2.437 . S
Pr1000 O1028 2.436 . S
Pr1000 O1030 2.438 . S
Pr1001 C1011 2.880 . S
Pr1001 O1022 2.436 . S
Pr1001 O1024 2.438 . S
Pr1001 O1026 2.562 . S
Pr1001 O1027 2.490 . S
Pr1001 O1028 2.695 . S
Pr1001 O1029 2.512 . S
Pr1001 O1031 2.437 . S
C1002 Pr1000 2.880 . S
C1002 C1003 1.491 . S
C1002 O1020 1.254 . S
C1002 O1021 1.225 . S
C1003 C1002 1.491 . S
C1003 C1004 1.392 . S
C1003 C1008 1.356 . S
C1004 C1003 1.392 . S
C1004 C1005 1.368 1_655 S
C1004 H1032 0.929 . S
C1005 C1004 1.368 1_455 S
C1005 C1006 1.386 . S
C1005 H1033 0.929 . S
C1006 C1005 1.386 . S
C1006 C1007 1.373 . S
C1007 C1006 1.373 . S
C1007 C1008 1.409 1_455 S
C1007 H1034 0.931 . S
C1008 C1003 1.356 . S
C1008 C1007 1.409 1_655 S
C1008 H1035 0.930 . S
C1009 O1022 1.270 . S
C1009 O1023 1.248 . S
C1010 O1024 1.267 . S
C1010 O1025 1.278 . S
C1011 Pr1001 2.880 . S
C1011 C1012 1.491 . S
C1011 O1026 1.254 . S
C1011 O1027 1.225 . S
C1012 C1011 1.491 . S
C1012 C1013 1.392 . S
C1012 C1017 1.356 . S
C1013 C1012 1.392 . S
C1013 C1014 1.368 . S
C1013 H1036 0.929 . S
C1014 C1013 1.368 . S
C1014 C1015 1.386 . S
C1014 H1037 0.929 . S
C1015 C1014 1.386 . S
C1015 C1016 1.373 . S
C1016 C1015 1.373 . S
C1016 C1017 1.409 . S
C1016 H1038 0.931 . S
C1017 C1012 1.356 . S
C1017 C1016 1.409 . S
C1017 H1039 0.930 . S
C1018 O1028 1.270 . S
C1018 O1029 1.248 . S
C1019 O1030 1.267 . S
C1019 O1031 1.278 . S
O1020 Pr1000 2.562 . S
O1020 C1002 1.254 . S
O1021 Pr1000 2.490 . S
O1021 C1002 1.225 . S
O1022 Pr1000 2.695 . S
O1022 Pr1001 2.436 . S
O1022 C1009 1.270 . S
O1023 Pr1000 2.512 . S
O1023 C1009 1.248 . S
O1024 Pr1001 2.438 . S
O1024 C1010 1.267 . S
O1025 Pr1000 2.437 . S
O1025 C1010 1.278 . S
O1026 Pr1001 2.562 . S
O1026 C1011 1.254 . S
O1027 Pr1001 2.490 . S
O1027 C1011 1.225 . S
O1028 Pr1000 2.436 . S
O1028 Pr1001 2.695 . S
O1028 C1018 1.270 . S
O1029 Pr1001 2.512 . S
O1029 C1018 1.248 . S
O1030 Pr1000 2.438 . S
O1030 C1019 1.267 . S
O1031 Pr1001 2.437 . S
O1031 C1019 1.278 . S
H1032 C1004 0.929 . S
H1033 C1005 0.929 . S
H1034 C1007 0.931 . S
H1035 C1008 0.930 . S
H1036 C1013 0.929 . S
H1037 C1014 0.929 . S
H1038 C1016 0.931 . S
H1039 C1017 0.930 . S
Pr1040 C1042 2.880 . S
Pr1040 O1060 2.562 . S
Pr1040 O1061 2.490 . S
Pr1040 O1062 2.695 . S
Pr1040 O1063 2.512 . S
Pr1040 O1065 2.437 . S
Pr1040 O1068 2.436 . S
Pr1040 O1070 2.438 . S
Pr1041 C1051 2.880 . S
Pr1041 O1062 2.436 . S
Pr1041 O1064 2.438 . S
Pr1041 O1066 2.562 . S
Pr1041 O1067 2.490 . S
Pr1041 O1068 2.695 . S
Pr1041 O1069 2.512 . S
Pr1041 O1071 2.437 . S
C1042 Pr1040 2.880 . S
C1042 C1043 1.491 . S
C1042 O1060 1.254 . S
C1042 O1061 1.225 . S
C1043 C1042 1.491 . S
C1043 C1044 1.392 . S
C1043 C1048 1.356 . S
C1044 C1043 1.392 . S
C1044 C1045 1.368 . S
C1044 H1072 0.929 . S
C1045 C1044 1.368 . S
C1045 C1046 1.386 . S
C1045 H1073 0.929 . S
C1046 C1045 1.386 . S
C1046 C1047 1.373 . S
C1047 C1046 1.373 . S
C1047 C1048 1.409 . S
C1047 H1074 0.931 . S
C1048 C1043 1.356 . S
C1048 C1047 1.409 . S
C1048 H1075 0.930 . S
C1049 O1062 1.270 . S
C1049 O1063 1.248 . S
C1050 O1064 1.267 . S
C1050 O1065 1.278 . S
C1051 Pr1041 2.880 . S
C1051 C1052 1.491 . S
C1051 O1066 1.254 . S
C1051 O1067 1.225 . S
C1052 C1051 1.491 . S
C1052 C1053 1.392 . S
C1052 C1057 1.356 . S
C1053 C1052 1.392 . S
C1053 C1054 1.368 . S
C1053 H1076 0.929 . S
C1054 C1053 1.368 . S
C1054 C1055 1.386 . S
C1054 H1077 0.929 . S
C1055 C1054 1.386 . S
C1055 C1056 1.373 . S
C1056 C1055 1.373 . S
C1056 C1057 1.409 . S
C1056 H1078 0.931 . S
C1057 C1052 1.356 . S
C1057 C1056 1.409 . S
C1057 H1079 0.930 . S
C1058 O1068 1.270 . S
C1058 O1069 1.248 . S
C1059 O1070 1.267 . S
C1059 O1071 1.278 . S
O1060 Pr1040 2.562 . S
O1060 C1042 1.254 . S
O1061 Pr1040 2.490 . S
O1061 C1042 1.225 . S
O1062 Pr1040 2.695 . S
O1062 Pr1041 2.436 . S
O1062 C1049 1.270 . S
O1063 Pr1040 2.512 . S
O1063 C1049 1.248 . S
O1064 Pr1041 2.438 . S
O1064 C1050 1.267 . S
O1065 Pr1040 2.437 . S
O1065 C1050 1.278 . S
O1066 Pr1041 2.562 . S
O1066 C1051 1.254 . S
O1067 Pr1041 2.490 . S
O1067 C1051 1.225 . S
O1068 Pr1040 2.436 . S
O1068 Pr1041 2.695 . S
O1068 C1058 1.270 . S
O1069 Pr1041 2.512 . S
O1069 C1058 1.248 . S
O1070 Pr1040 2.438 . S
O1070 C1059 1.267 . S
O1071 Pr1041 2.437 . S
O1071 C1059 1.278 . S
H1072 C1044 0.929 . S
H1073 C1045 0.929 . S
H1074 C1047 0.931 . S
H1075 C1048 0.930 . S
H1076 C1053 0.929 . S
H1077 C1054 0.929 . S
H1078 C1056 0.931 . S
H1079 C1057 0.930 . S
Pr1080 C1082 2.871 1_545 S
Pr1080 O1100 2.562 1_545 S
Pr1080 O1101 2.490 . S
Pr1080 O1102 2.695 1_545 S
Pr1080 O1103 2.512 . S
Pr1080 O1105 2.437 1_545 S
Pr1080 O1108 2.436 1_545 S
Pr1080 O1110 2.438 . S
Pr1081 C1091 2.880 . S
Pr1081 O1102 2.436 . S
Pr1081 O1104 2.438 . S
Pr1081 O1106 2.562 . S
Pr1081 O1107 2.490 . S
Pr1081 O1108 2.695 . S
Pr1081 O1109 2.512 . S
Pr1081 O1111 2.437 1_565 S
C1082 Pr1080 2.871 1_565 S
C1082 C1083 1.501 . S
C1082 O1100 1.258 . S
C1082 O1101 1.211 1_565 S
C1083 C1082 1.501 . S
C1083 C1084 1.392 . S
C1083 C1088 1.356 . S
C1084 C1083 1.392 . S
C1084 C1085 1.368 1_655 S
C1084 H1112 0.929 1_565 S
C1085 C1084 1.368 1_455 S
C1085 C1086 1.386 . S
C1085 H1113 0.929 . S
C1086 C1085 1.386 . S
C1086 C1087 1.373 . S
C1087 C1086 1.373 . S
C1087 C1088 1.409 1_455 S
C1087 H1114 0.931 . S
C1088 C1083 1.356 . S
C1088 C1087 1.409 1_655 S
C1088 H1115 0.930 . S
C1089 O1102 1.270 . S
C1089 O1103 1.248 1_565 S
C1090 O1104 1.267 . S
C1090 O1105 1.278 . S
C1091 Pr1081 2.880 . S
C1091 C1092 1.491 . S
C1091 O1106 1.254 . S
C1091 O1107 1.225 . S
C1092 C1091 1.491 . S
C1092 C1093 1.392 . S
C1092 C1097 1.356 1_565 S
C1093 C1092 1.392 . S
C1093 C1094 1.368 . S
C1093 H1116 0.929 . S
C1094 C1093 1.368 . S
C1094 C1095 1.386 1_565 S
C1094 H1117 0.929 . S
C1095 C1094 1.386 1_545 S
C1095 C1096 1.373 . S
C1096 C1095 1.373 . S
C1096 C1097 1.409 . S
C1096 H1118 0.931 . S
C1097 C1092 1.356 1_545 S
C1097 C1096 1.409 . S
C1097 H1119 0.930 . S
C1098 O1108 1.270 . S
C1098 O1109 1.248 . S
C1099 O1110 1.267 . S
C1099 O1111 1.278 . S
O1100 Pr1080 2.562 1_565 S
O1100 C1082 1.258 . S
O1101 Pr1080 2.490 . S
O1101 C1082 1.211 1_545 S
O1102 Pr1080 2.695 1_565 S
O1102 Pr1081 2.436 . S
O1102 C1089 1.270 . S
O1103 Pr1080 2.512 . S
O1103 C1089 1.248 1_545 S
O1104 Pr1081 2.438 . S
O1104 C1090 1.267 . S
O1105 Pr1080 2.437 1_565 S
O1105 C1090 1.278 . S
O1106 Pr1081 2.562 . S
O1106 C1091 1.254 . S
O1107 Pr1081 2.490 . S
O1107 C1091 1.225 . S
O1108 Pr1080 2.436 1_565 S
O1108 Pr1081 2.695 . S
O1108 C1098 1.270 . S
O1109 Pr1081 2.512 . S
O1109 C1098 1.248 . S
O1110 Pr1080 2.438 . S
O1110 C1099 1.267 . S
O1111 Pr1081 2.437 1_545 S
O1111 C1099 1.278 . S
H1112 C1084 0.929 1_545 S
H1113 C1085 0.929 . S
H1114 C1087 0.931 . S
H1115 C1088 0.930 . S
H1116 C1093 0.929 . S
H1117 C1094 0.929 . S
H1118 C1096 0.931 . S
H1119 C1097 0.930 . S
Pr1120 C1122 2.880 . S
Pr1120 O1140 2.562 . S
Pr1120 O1141 2.490 . S
Pr1120 O1142 2.695 . S
Pr1120 O1143 2.512 . S
Pr1120 O1145 2.437 1_545 S
Pr1120 O1148 2.436 . S
Pr1120 O1150 2.438 . S
Pr1121 C1131 2.871 1_565 S
Pr1121 O1142 2.436 1_565 S
Pr1121 O1144 2.438 . S
Pr1121 O1146 2.562 1_565 S
Pr1121 O1147 2.490 . S
Pr1121 O1148 2.695 1_565 S
Pr1121 O1149 2.512 . S
Pr1121 O1151 2.437 1_565 S
C1122 Pr1120 2.880 . S
C1122 C1123 1.491 . S
C1122 O1140 1.254 . S
C1122 O1141 1.225 . S
C1123 C1122 1.491 . S
C1123 C1124 1.392 . S
C1123 C1128 1.356 1_545 S
C1124 C1123 1.392 . S
C1124 C1125 1.368 . S
C1124 H1152 0.929 . S
C1125 C1124 1.368 . S
C1125 C1126 1.386 1_545 S
C1125 H1153 0.929 . S
C1126 C1125 1.386 1_565 S
C1126 C1127 1.373 . S
C1127 C1126 1.373 . S
C1127 C1128 1.409 . S
C1127 H1154 0.931 . S
C1128 C1123 1.356 1_565 S
C1128 C1127 1.409 . S
C1128 H1155 0.930 . S
C1129 O1142 1.270 . S
C1129 O1143 1.248 . S
C1130 O1144 1.267 . S
C1130 O1145 1.278 . S
C1131 Pr1121 2.871 1_545 S
C1131 C1132 1.501 . S
C1131 O1146 1.258 . S
C1131 O1147 1.211 1_545 S
C1132 C1131 1.501 . S
C1132 C1133 1.392 . S
C1132 C1137 1.356 . S
C1133 C1132 1.392 . S
C1133 C1134 1.368 . S
C1133 H1156 0.929 1_545 S
C1134 C1133 1.368 . S
C1134 C1135 1.386 . S
C1134 H1157 0.929 . S
C1135 C1134 1.386 . S
C1135 C1136 1.373 . S
C1136 C1135 1.373 . S
C1136 C1137 1.409 . S
C1136 H1158 0.931 . S
C1137 C1132 1.356 . S
C1137 C1136 1.409 . S
C1137 H1159 0.930 . S
C1138 O1148 1.270 . S
C1138 O1149 1.248 1_545 S
C1139 O1150 1.267 . S
C1139 O1151 1.278 . S
O1140 Pr1120 2.562 . S
O1140 C1122 1.254 . S
O1141 Pr1120 2.490 . S
O1141 C1122 1.225 . S
O1142 Pr1120 2.695 . S
O1142 Pr1121 2.436 1_545 S
O1142 C1129 1.270 . S
O1143 Pr1120 2.512 . S
O1143 C1129 1.248 . S
O1144 Pr1121 2.438 . S
O1144 C1130 1.267 . S
O1145 Pr1120 2.437 1_565 S
O1145 C1130 1.278 . S
O1146 Pr1121 2.562 1_545 S
O1146 C1131 1.258 . S
O1147 Pr1121 2.490 . S
O1147 C1131 1.211 1_565 S
O1148 Pr1120 2.436 . S
O1148 Pr1121 2.695 1_545 S
O1148 C1138 1.270 . S
O1149 Pr1121 2.512 . S
O1149 C1138 1.248 1_565 S
O1150 Pr1120 2.438 . S
O1150 C1139 1.267 . S
O1151 Pr1121 2.437 1_545 S
O1151 C1139 1.278 . S
H1152 C1124 0.929 . S
H1153 C1125 0.929 . S
H1154 C1127 0.931 . S
H1155 C1128 0.930 . S
H1156 C1133 0.929 1_565 S
H1157 C1134 0.929 . S
H1158 C1136 0.931 . S
H1159 C1137 0.930 . S
Pr1160 C1162 2.880 . S
Pr1160 O1180 2.562 . S
Pr1160 O1181 2.490 . S
Pr1160 O1182 2.695 . S
Pr1160 O1183 2.512 . S
Pr1160 O1185 2.437 . S
Pr1160 O1188 2.436 . S
Pr1160 O1190 2.438 . S
Pr1161 C1171 2.880 . S
Pr1161 O1182 2.436 . S
Pr1161 O1184 2.438 . S
Pr1161 O1186 2.562 . S
Pr1161 O1187 2.490 . S
Pr1161 O1188 2.695 . S
Pr1161 O1189 2.512 . S
Pr1161 O1191 2.437 . S
C1162 Pr1160 2.880 . S
C1162 C1163 1.491 . S
C1162 O1180 1.254 . S
C1162 O1181 1.225 . S
C1163 C1162 1.491 . S
C1163 C1164 1.392 . S
C1163 C1168 1.356 . S
C1164 C1163 1.392 . S
C1164 C1165 1.368 . S
C1164 H1192 0.929 . S
C1165 C1164 1.368 . S
C1165 C1166 1.386 . S
C1165 H1193 0.929 . S
C1166 C1165 1.386 . S
C1166 C1167 1.373 . S
C1167 C1166 1.373 . S
C1167 C1168 1.409 . S
C1167 H1194 0.931 . S
C1168 C1163 1.356 . S
C1168 C1167 1.409 . S
C1168 H1195 0.930 . S
C1169 O1182 1.270 . S
C1169 O1183 1.248 . S
C1170 O1184 1.267 . S
C1170 O1185 1.278 . S
C1171 Pr1161 2.880 . S
C1171 C1172 1.491 . S
C1171 O1186 1.254 . S
C1171 O1187 1.225 . S
C1172 C1171 1.491 . S
C1172 C1173 1.392 . S
C1172 C1177 1.356 . S
C1173 C1172 1.392 . S
C1173 C1174 1.368 1_455 S
C1173 H1196 0.929 . S
C1174 C1173 1.368 1_655 S
C1174 C1175 1.386 . S
C1174 H1197 0.929 . S
C1175 C1174 1.386 . S
C1175 C1176 1.373 . S
C1176 C1175 1.373 . S
C1176 C1177 1.409 1_655 S
C1176 H1198 0.931 . S
C1177 C1172 1.356 . S
C1177 C1176 1.409 1_455 S
C1177 H1199 0.930 . S
C1178 O1188 1.270 . S
C1178 O1189 1.248 . S
C1179 O1190 1.267 . S
C1179 O1191 1.278 . S
O1180 Pr1160 2.562 . S
O1180 C1162 1.254 . S
O1181 Pr1160 2.490 . S
O1181 C1162 1.225 . S
O1182 Pr1160 2.695 . S
O1182 Pr1161 2.436 . S
O1182 C1169 1.270 . S
O1183 Pr1160 2.512 . S
O1183 C1169 1.248 . S
O1184 Pr1161 2.438 . S
O1184 C1170 1.267 . S
O1185 Pr1160 2.437 . S
O1185 C1170 1.278 . S
O1186 Pr1161 2.562 . S
O1186 C1171 1.254 . S
O1187 Pr1161 2.490 . S
O1187 C1171 1.225 . S
O1188 Pr1160 2.436 . S
O1188 Pr1161 2.695 . S
O1188 C1178 1.270 . S
O1189 Pr1161 2.512 . S
O1189 C1178 1.248 . S
O1190 Pr1160 2.438 . S
O1190 C1179 1.267 . S
O1191 Pr1161 2.437 . S
O1191 C1179 1.278 . S
H1192 C1164 0.929 . S
H1193 C1165 0.929 . S
H1194 C1167 0.931 . S
H1195 C1168 0.930 . S
H1196 C1173 0.929 . S
H1197 C1174 0.929 . S
H1198 C1176 0.931 . S
H1199 C1177 0.930 . S
Pr1200 C1202 2.880 . S
Pr1200 O1220 2.562 . S
Pr1200 O1221 2.490 . S
Pr1200 O1222 2.695 . S
Pr1200 O1223 2.512 . S
Pr1200 O1225 2.437 . S
Pr1200 O1228 2.436 . S
Pr1200 O1230 2.438 . S
Pr1201 C1211 2.880 . S
Pr1201 O1222 2.436 . S
Pr1201 O1224 2.438 . S
Pr1201 O1226 2.562 . S
Pr1201 O1227 2.490 . S
Pr1201 O1228 2.695 . S
Pr1201 O1229 2.512 . S
Pr1201 O1231 2.437 . S
C1202 Pr1200 2.880 . S
C1202 C1203 1.491 . S
C1202 O1220 1.254 . S
C1202 O1221 1.225 . S
C1203 C1202 1.491 . S
C1203 C1204 1.392 . S
C1203 C1208 1.356 . S
C1204 C1203 1.392 . S
C1204 C1205 1.368 . S
C1204 H1232 0.929 . S
C1205 C1204 1.368 . S
C1205 C1206 1.386 . S
C1205 H1233 0.929 . S
C1206 C1205 1.386 . S
C1206 C1207 1.373 . S
C1207 C1206 1.373 . S
C1207 C1208 1.409 . S
C1207 H1234 0.931 . S
C1208 C1203 1.356 . S
C1208 C1207 1.409 . S
C1208 H1235 0.930 . S
C1209 O1222 1.270 . S
C1209 O1223 1.248 . S
C1210 O1224 1.267 . S
C1210 O1225 1.278 . S
C1211 Pr1201 2.880 . S
C1211 C1212 1.491 . S
C1211 O1226 1.254 . S
C1211 O1227 1.225 . S
C1212 C1211 1.491 . S
C1212 C1213 1.392 . S
C1212 C1217 1.356 . S
C1213 C1212 1.392 . S
C1213 C1214 1.368 . S
C1213 H1236 0.929 . S
C1214 C1213 1.368 . S
C1214 C1215 1.386 . S
C1214 H1237 0.929 . S
C1215 C1214 1.386 . S
C1215 C1216 1.373 . S
C1216 C1215 1.373 . S
C1216 C1217 1.409 . S
C1216 H1238 0.931 . S
C1217 C1212 1.356 . S
C1217 C1216 1.409 . S
C1217 H1239 0.930 . S
C1218 O1228 1.270 . S
C1218 O1229 1.248 . S
C1219 O1230 1.267 . S
C1219 O1231 1.278 . S
O1220 Pr1200 2.562 . S
O1220 C1202 1.254 . S
O1221 Pr1200 2.490 . S
O1221 C1202 1.225 . S
O1222 Pr1200 2.695 . S
O1222 Pr1201 2.436 . S
O1222 C1209 1.270 . S
O1223 Pr1200 2.512 . S
O1223 C1209 1.248 . S
O1224 Pr1201 2.438 . S
O1224 C1210 1.267 . S
O1225 Pr1200 2.437 . S
O1225 C1210 1.278 . S
O1226 Pr1201 2.562 . S
O1226 C1211 1.254 . S
O1227 Pr1201 2.490 . S
O1227 C1211 1.225 . S
O1228 Pr1200 2.436 . S
O1228 Pr1201 2.695 . S
O1228 C1218 1.270 . S
O1229 Pr1201 2.512 . S
O1229 C1218 1.248 . S
O1230 Pr1200 2.438 . S
O1230 C1219 1.267 . S
O1231 Pr1201 2.437 . S
O1231 C1219 1.278 . S
H1232 C1204 0.929 . S
H1233 C1205 0.929 . S
H1234 C1207 0.931 . S
H1235 C1208 0.930 . S
H1236 C1213 0.929 . S
H1237 C1214 0.929 . S
H1238 C1216 0.931 . S
H1239 C1217 0.930 . S
Pr1240 C1242 2.880 . S
Pr1240 O1260 2.562 . S
Pr1240 O1261 2.490 . S
Pr1240 O1262 2.695 . S
Pr1240 O1263 2.512 . S
Pr1240 O1265 2.437 1_545 S
Pr1240 O1268 2.436 . S
Pr1240 O1270 2.438 . S
Pr1241 C1251 2.871 1_565 S
Pr1241 O1262 2.436 1_565 S
Pr1241 O1264 2.438 . S
Pr1241 O1266 2.562 1_565 S
Pr1241 O1267 2.490 . S
Pr1241 O1268 2.695 1_565 S
Pr1241 O1269 2.512 . S
Pr1241 O1271 2.437 1_565 S
C1242 Pr1240 2.880 . S
C1242 C1243 1.491 . S
C1242 O1260 1.254 . S
C1242 O1261 1.225 . S
C1243 C1242 1.491 . S
C1243 C1244 1.392 . S
C1243 C1248 1.356 1_545 S
C1244 C1243 1.392 . S
C1244 C1245 1.368 . S
C1244 H1272 0.929 . S
C1245 C1244 1.368 . S
C1245 C1246 1.386 1_545 S
C1245 H1273 0.929 . S
C1246 C1245 1.386 1_565 S
C1246 C1247 1.373 . S
C1247 C1246 1.373 . S
C1247 C1248 1.409 . S
C1247 H1274 0.931 . S
C1248 C1243 1.356 1_565 S
C1248 C1247 1.409 . S
C1248 H1275 0.930 . S
C1249 O1262 1.270 . S
C1249 O1263 1.248 . S
C1250 O1264 1.267 . S
C1250 O1265 1.278 . S
C1251 Pr1241 2.871 1_545 S
C1251 C1252 1.501 . S
C1251 O1266 1.258 . S
C1251 O1267 1.211 1_545 S
C1252 C1251 1.501 . S
C1252 C1253 1.392 . S
C1252 C1257 1.356 . S
C1253 C1252 1.392 . S
C1253 C1254 1.368 1_455 S
C1253 H1276 0.929 1_545 S
C1254 C1253 1.368 1_655 S
C1254 C1255 1.386 . S
C1254 H1277 0.929 . S
C1255 C1254 1.386 . S
C1255 C1256 1.373 . S
C1256 C1255 1.373 . S
C1256 C1257 1.409 1_655 S
C1256 H1278 0.931 . S
C1257 C1252 1.356 . S
C1257 C1256 1.409 1_455 S
C1257 H1279 0.930 . S
C1258 O1268 1.270 . S
C1258 O1269 1.248 1_545 S
C1259 O1270 1.267 . S
C1259 O1271 1.278 . S
O1260 Pr1240 2.562 . S
O1260 C1242 1.254 . S
O1261 Pr1240 2.490 . S
O1261 C1242 1.225 . S
O1262 Pr1240 2.695 . S
O1262 Pr1241 2.436 1_545 S
O1262 C1249 1.270 . S
O1263 Pr1240 2.512 . S
O1263 C1249 1.248 . S
O1264 Pr1241 2.438 . S
O1264 C1250 1.267 . S
O1265 Pr1240 2.437 1_565 S
O1265 C1250 1.278 . S
O1266 Pr1241 2.562 1_545 S
O1266 C1251 1.258 . S
O1267 Pr1241 2.490 . S
O1267 C1251 1.211 1_565 S
O1268 Pr1240 2.436 . S
O1268 Pr1241 2.695 1_545 S
O1268 C1258 1.270 . S
O1269 Pr1241 2.512 . S
O1269 C1258 1.248 1_565 S
O1270 Pr1240 2.438 . S
O1270 C1259 1.267 . S
O1271 Pr1241 2.437 1_545 S
O1271 C1259 1.278 . S
H1272 C1244 0.929 . S
H1273 C1245 0.929 . S
H1274 C1247 0.931 . S
H1275 C1248 0.930 . S
H1276 C1253 0.929 1_565 S
H1277 C1254 0.929 . S
H1278 C1256 0.931 . S
H1279 C1257 0.930 . S
H1280 C1288 0.950 . S
H1281 C1293 0.950 . S
H1282 C1290 0.950 . S
H1283 C1292 0.950 . S
H1284 C1294 0.950 . S
H1285 C1296 0.950 . S
H1286 C1298 0.950 . S
H1287 C1299 0.950 . S
C1288 H1280 0.950 . S
C1288 C1289 1.386 . S
C1288 C1290 1.391 . S
C1289 C1288 1.386 . S
C1289 C1293 1.393 . S
C1290 H1282 0.950 . S
C1290 C1288 1.391 . S
C1290 C1291 1.400 . S
C1291 C1290 1.400 . S
C1291 C1292 1.398 . S
C1291 C1297 1.491 . S
C1292 H1283 0.950 . S
C1292 C1291 1.398 . S
C1292 C1293 1.391 . S
C1293 H1281 0.950 . S
C1293 C1289 1.393 . S
C1293 C1292 1.391 . S
C1294 H1284 0.950 . S
C1294 C1295 1.386 . S
C1294 C1296 1.391 . S
C1295 C1294 1.386 . S
C1295 C1299 1.393 . S
C1296 H1285 0.950 . S
C1296 C1294 1.391 . S
C1296 C1297 1.400 . S
C1297 C1291 1.491 . S
C1297 C1296 1.400 . S
C1297 C1298 1.398 . S
C1298 H1286 0.950 . S
C1298 C1297 1.398 . S
C1298 C1299 1.391 . S
C1299 H1287 0.950 . S
C1299 C1295 1.393 . S
C1299 C1298 1.391 . S
H1300 C1308 0.950 . S
H1301 C1313 0.950 . S
H1302 C1310 0.950 . S
H1303 C1312 0.950 . S
H1304 C1314 0.950 . S
H1305 C1316 0.950 . S
H1306 C1318 0.950 . S
H1307 C1319 0.950 . S
C1308 H1300 0.950 . S
C1308 C1309 1.386 . S
C1308 C1310 1.391 . S
C1309 C1308 1.386 . S
C1309 C1313 1.393 . S
C1310 H1302 0.950 . S
C1310 C1308 1.391 . S
C1310 C1311 1.400 . S
C1311 C1310 1.400 . S
C1311 C1312 1.398 . S
C1311 C1317 1.491 . S
C1312 H1303 0.950 . S
C1312 C1311 1.398 . S
C1312 C1313 1.391 . S
C1313 H1301 0.950 . S
C1313 C1309 1.393 . S
C1313 C1312 1.391 . S
C1314 H1304 0.950 . S
C1314 C1315 1.386 . S
C1314 C1316 1.391 . S
C1315 C1314 1.386 . S
C1315 C1319 1.393 . S
C1316 H1305 0.950 . S
C1316 C1314 1.391 . S
C1316 C1317 1.400 . S
C1317 C1311 1.491 . S
C1317 C1316 1.400 . S
C1317 C1318 1.398 . S
C1318 H1306 0.950 . S
C1318 C1317 1.398 . S
C1318 C1319 1.391 . S
C1319 H1307 0.950 . S
C1319 C1315 1.393 . S
C1319 C1318 1.391 . S
H1320 C1328 0.950 . S
H1321 C1333 0.950 . S
H1322 C1330 0.950 . S
H1323 C1332 0.950 . S
H1324 C1334 0.950 . S
H1325 C1336 0.950 . S
H1326 C1338 0.950 . S
H1327 C1339 0.950 . S
C1328 H1320 0.950 . S
C1328 C1329 1.386 . S
C1328 C1330 1.391 . S
C1329 C1328 1.386 . S
C1329 C1333 1.393 . S
C1330 H1322 0.950 . S
C1330 C1328 1.391 . S
C1330 C1331 1.400 . S
C1331 C1330 1.400 . S
C1331 C1332 1.398 . S
C1331 C1337 1.491 . S
C1332 H1323 0.950 . S
C1332 C1331 1.398 . S
C1332 C1333 1.391 . S
C1333 H1321 0.950 . S
C1333 C1329 1.393 . S
C1333 C1332 1.391 . S
C1334 H1324 0.950 . S
C1334 C1335 1.386 . S
C1334 C1336 1.391 . S
C1335 C1334 1.386 . S
C1335 C1339 1.393 . S
C1336 H1325 0.950 . S
C1336 C1334 1.391 . S
C1336 C1337 1.400 . S
C1337 C1331 1.491 . S
C1337 C1336 1.400 . S
C1337 C1338 1.398 . S
C1338 H1326 0.950 . S
C1338 C1337 1.398 . S
C1338 C1339 1.391 . S
C1339 H1327 0.950 . S
C1339 C1335 1.393 . S
C1339 C1338 1.391 . S
H1340 C1348 0.950 . S
H1341 C1353 0.950 . S
H1342 C1350 0.950 . S
H1343 C1352 0.950 . S
H1344 C1354 0.950 . S
H1345 C1356 0.950 . S
H1346 C1358 0.950 . S
H1347 C1359 0.950 . S
C1348 H1340 0.950 . S
C1348 C1349 1.386 . S
C1348 C1350 1.391 . S
C1349 C1348 1.386 . S
C1349 C1353 1.393 . S
C1350 H1342 0.950 . S
C1350 C1348 1.391 . S
C1350 C1351 1.400 . S
C1351 C1350 1.400 . S
C1351 C1352 1.398 . S
C1351 C1357 1.491 . S
C1352 H1343 0.950 . S
C1352 C1351 1.398 . S
C1352 C1353 1.391 . S
C1353 H1341 0.950 . S
C1353 C1349 1.393 . S
C1353 C1352 1.391 . S
C1354 H1344 0.950 . S
C1354 C1355 1.386 . S
C1354 C1356 1.391 . S
C1355 C1354 1.386 . S
C1355 C1359 1.393 . S
C1356 H1345 0.950 . S
C1356 C1354 1.391 . S
C1356 C1357 1.400 . S
C1357 C1351 1.491 . S
C1357 C1356 1.400 . S
C1357 C1358 1.398 . S
C1358 H1346 0.950 . S
C1358 C1357 1.398 . S
C1358 C1359 1.391 . S
C1359 H1347 0.950 . S
C1359 C1355 1.393 . S
C1359 C1358 1.391 . S
H1360 C1368 0.950 . S
H1361 C1373 0.950 1_655 S
H1362 C1370 0.950 . S
H1363 C1372 0.950 . S
H1364 C1374 0.950 . S
H1365 C1376 0.950 . S
H1366 C1378 0.950 . S
H1367 C1379 0.950 . S
C1368 H1360 0.950 . S
C1368 C1369 1.386 . S
C1368 C1370 1.391 . S
C1369 C1368 1.386 . S
C1369 C1373 1.393 . S
C1370 H1362 0.950 . S
C1370 C1368 1.391 . S
C1370 C1371 1.400 . S
C1371 C1370 1.400 . S
C1371 C1372 1.398 . S
C1371 C1377 1.491 . S
C1372 H1363 0.950 . S
C1372 C1371 1.398 . S
C1372 C1373 1.391 . S
C1373 H1361 0.950 1_455 S
C1373 C1369 1.393 . S
C1373 C1372 1.391 . S
C1374 H1364 0.950 . S
C1374 C1375 1.386 . S
C1374 C1376 1.391 . S
C1375 C1374 1.386 . S
C1375 C1379 1.393 . S
C1376 H1365 0.950 . S
C1376 C1374 1.391 . S
C1376 C1377 1.400 . S
C1377 C1371 1.491 . S
C1377 C1376 1.400 . S
C1377 C1378 1.398 . S
C1378 H1366 0.950 . S
C1378 C1377 1.398 . S
C1378 C1379 1.391 . S
C1379 H1367 0.950 . S
C1379 C1375 1.393 . S
C1379 C1378 1.391 . S
H1380 C1388 0.950 . S
H1381 C1393 0.950 . S
H1382 C1390 0.950 . S
H1383 C1392 0.950 . S
H1384 C1394 0.950 . S
H1385 C1396 0.950 . S
H1386 C1398 0.950 . S
H1387 C1399 0.950 . S
C1388 H1380 0.950 . S
C1388 C1389 1.386 . S
C1388 C1390 1.391 . S
C1389 C1388 1.386 . S
C1389 C1393 1.393 . S
C1390 H1382 0.950 . S
C1390 C1388 1.391 . S
C1390 C1391 1.400 . S
C1391 C1390 1.400 . S
C1391 C1392 1.398 . S
C1391 C1397 1.491 . S
C1392 H1383 0.950 . S
C1392 C1391 1.398 . S
C1392 C1393 1.391 . S
C1393 H1381 0.950 . S
C1393 C1389 1.393 . S
C1393 C1392 1.391 . S
C1394 H1384 0.950 . S
C1394 C1395 1.386 . S
C1394 C1396 1.391 . S
C1395 C1394 1.386 . S
C1395 C1399 1.393 . S
C1396 H1385 0.950 . S
C1396 C1394 1.391 . S
C1396 C1397 1.400 . S
C1397 C1391 1.491 . S
C1397 C1396 1.400 . S
C1397 C1398 1.398 . S
C1398 H1386 0.950 . S
C1398 C1397 1.398 . S
C1398 C1399 1.391 . S
C1399 H1387 0.950 . S
C1399 C1395 1.393 . S
C1399 C1398 1.391 . S
H1400 C1408 0.950 . S
H1401 C1413 0.950 . S
H1402 C1410 0.950 . S
H1403 C1412 0.950 . S
H1404 C1414 0.950 . S
H1405 C1416 0.950 . S
H1406 C1418 0.950 . S
H1407 C1419 0.950 . S
C1408 H1400 0.950 . S
C1408 C1409 1.386 . S
C1408 C1410 1.391 . S
C1409 C1408 1.386 . S
C1409 C1413 1.393 . S
C1410 H1402 0.950 . S
C1410 C1408 1.391 . S
C1410 C1411 1.400 . S
C1411 C1410 1.400 . S
C1411 C1412 1.398 . S
C1411 C1417 1.491 . S
C1412 H1403 0.950 . S
C1412 C1411 1.398 . S
C1412 C1413 1.391 . S
C1413 H1401 0.950 . S
C1413 C1409 1.393 . S
C1413 C1412 1.391 . S
C1414 H1404 0.950 . S
C1414 C1415 1.386 . S
C1414 C1416 1.391 . S
C1415 C1414 1.386 . S
C1415 C1419 1.393 . S
C1416 H1405 0.950 . S
C1416 C1414 1.391 . S
C1416 C1417 1.400 . S
C1417 C1411 1.491 . S
C1417 C1416 1.400 . S
C1417 C1418 1.398 . S
C1418 H1406 0.950 . S
C1418 C1417 1.398 . S
C1418 C1419 1.391 . S
C1419 H1407 0.950 . S
C1419 C1415 1.393 . S
C1419 C1418 1.391 . S
H1420 C1428 0.950 . S
H1421 C1433 0.950 . S
H1422 C1430 0.950 . S
H1423 C1432 0.950 . S
H1424 C1434 0.950 . S
H1425 C1436 0.950 . S
H1426 C1438 0.950 . S
H1427 C1439 0.950 . S
C1428 H1420 0.950 . S
C1428 C1429 1.386 . S
C1428 C1430 1.391 . S
C1429 C1428 1.386 . S
C1429 C1433 1.393 . S
C1430 H1422 0.950 . S
C1430 C1428 1.391 . S
C1430 C1431 1.400 . S
C1431 C1430 1.400 . S
C1431 C1432 1.398 . S
C1431 C1437 1.491 . S
C1432 H1423 0.950 . S
C1432 C1431 1.398 . S
C1432 C1433 1.391 . S
C1433 H1421 0.950 . S
C1433 C1429 1.393 . S
C1433 C1432 1.391 . S
C1434 H1424 0.950 . S
C1434 C1435 1.386 . S
C1434 C1436 1.391 . S
C1435 C1434 1.386 . S
C1435 C1439 1.393 . S
C1436 H1425 0.950 . S
C1436 C1434 1.391 . S
C1436 C1437 1.400 . S
C1437 C1431 1.491 . S
C1437 C1436 1.400 . S
C1437 C1438 1.398 . S
C1438 H1426 0.950 . S
C1438 C1437 1.398 . S
C1438 C1439 1.391 . S
C1439 H1427 0.950 . S
C1439 C1435 1.393 . S
C1439 C1438 1.391 . S
H1440 C1448 0.950 . S
H1441 C1453 0.950 1_455 S
H1442 C1450 0.950 . S
H1443 C1452 0.950 . S
H1444 C1454 0.950 . S
H1445 C1456 0.950 . S
H1446 C1458 0.950 . S
H1447 C1459 0.950 . S
C1448 H1440 0.950 . S
C1448 C1449 1.386 . S
C1448 C1450 1.391 . S
C1449 C1448 1.386 . S
C1449 C1453 1.393 . S
C1450 H1442 0.950 . S
C1450 C1448 1.391 . S
C1450 C1451 1.400 . S
C1451 C1450 1.400 . S
C1451 C1452 1.398 . S
C1451 C1457 1.491 . S
C1452 H1443 0.950 . S
C1452 C1451 1.398 . S
C1452 C1453 1.391 . S
C1453 H1441 0.950 1_655 S
C1453 C1449 1.393 . S
C1453 C1452 1.391 . S
C1454 H1444 0.950 . S
C1454 C1455 1.386 . S
C1454 C1456 1.391 . S
C1455 C1454 1.386 . S
C1455 C1459 1.393 . S
C1456 H1445 0.950 . S
C1456 C1454 1.391 . S
C1456 C1457 1.400 . S
C1457 C1451 1.491 . S
C1457 C1456 1.400 . S
C1457 C1458 1.398 . S
C1458 H1446 0.950 . S
C1458 C1457 1.398 . S
C1458 C1459 1.391 . S
C1459 H1447 0.950 . S
C1459 C1455 1.393 . S
C1459 C1458 1.391 . S
H1460 C1468 0.950 . S
H1461 C1473 0.950 . S
H1462 C1470 0.950 . S
H1463 C1472 0.950 . S
H1464 C1474 0.950 . S
H1465 C1476 0.950 . S
H1466 C1478 0.950 . S
H1467 C1479 0.950 . S
C1468 H1460 0.950 . S
C1468 C1469 1.386 . S
C1468 C1470 1.391 . S
C1469 C1468 1.386 . S
C1469 C1473 1.393 . S
C1470 H1462 0.950 . S
C1470 C1468 1.391 . S
C1470 C1471 1.400 . S
C1471 C1470 1.400 . S
C1471 C1472 1.398 . S
C1471 C1477 1.491 . S
C1472 H1463 0.950 . S
C1472 C1471 1.398 . S
C1472 C1473 1.391 . S
C1473 H1461 0.950 . S
C1473 C1469 1.393 . S
C1473 C1472 1.391 . S
C1474 H1464 0.950 . S
C1474 C1475 1.386 . S
C1474 C1476 1.391 . S
C1475 C1474 1.386 . S
C1475 C1479 1.393 . S
C1476 H1465 0.950 . S
C1476 C1474 1.391 . S
C1476 C1477 1.400 . S
C1477 C1471 1.491 . S
C1477 C1476 1.400 . S
C1477 C1478 1.398 . S
C1478 H1466 0.950 . S
C1478 C1477 1.398 . S
C1478 C1479 1.391 . S
C1479 H1467 0.950 . S
C1479 C1475 1.393 . S
C1479 C1478 1.391 . S
H1480 C1488 0.950 1_455 S
H1481 C1493 0.950 . S
H1482 C1490 0.950 . S
H1483 C1492 0.950 . S
H1484 C1494 0.950 . S
H1485 C1496 0.950 . S
H1486 C1498 0.950 . S
H1487 C1499 0.950 . S
C1488 H1480 0.950 1_655 S
C1488 C1489 1.386 . S
C1488 C1490 1.391 . S
C1489 C1488 1.386 . S
C1489 C1493 1.393 . S
C1490 H1482 0.950 . S
C1490 C1488 1.391 . S
C1490 C1491 1.400 . S
C1491 C1490 1.400 . S
C1491 C1492 1.398 . S
C1491 C1497 1.491 . S
C1492 H1483 0.950 . S
C1492 C1491 1.398 . S
C1492 C1493 1.391 . S
C1493 H1481 0.950 . S
C1493 C1489 1.393 . S
C1493 C1492 1.391 . S
C1494 H1484 0.950 . S
C1494 C1495 1.386 . S
C1494 C1496 1.391 . S
C1495 C1494 1.386 . S
C1495 C1499 1.393 . S
C1496 H1485 0.950 . S
C1496 C1494 1.391 . S
C1496 C1497 1.400 . S
C1497 C1491 1.491 . S
C1497 C1496 1.400 . S
C1497 C1498 1.398 . S
C1498 H1486 0.950 . S
C1498 C1497 1.398 . S
C1498 C1499 1.391 . S
C1499 H1487 0.950 . S
C1499 C1495 1.393 . S
C1499 C1498 1.391 . S
H1500 C1508 0.950 . S
H1501 C1513 0.950 . S
H1502 C1510 0.950 . S
H1503 C1512 0.950 . S
H1504 C1514 0.950 . S
H1505 C1516 0.950 . S
H1506 C1518 0.950 . S
H1507 C1519 0.950 . S
C1508 H1500 0.950 . S
C1508 C1509 1.386 . S
C1508 C1510 1.391 . S
C1509 C1508 1.386 . S
C1509 C1513 1.393 . S
C1510 H1502 0.950 . S
C1510 C1508 1.391 . S
C1510 C1511 1.400 . S
C1511 C1510 1.400 . S
C1511 C1512 1.398 . S
C1511 C1517 1.491 . S
C1512 H1503 0.950 . S
C1512 C1511 1.398 . S
C1512 C1513 1.391 . S
C1513 H1501 0.950 . S
C1513 C1509 1.393 . S
C1513 C1512 1.391 . S
C1514 H1504 0.950 . S
C1514 C1515 1.386 . S
C1514 C1516 1.391 . S
C1515 C1514 1.386 . S
C1515 C1519 1.393 . S
C1516 H1505 0.950 . S
C1516 C1514 1.391 . S
C1516 C1517 1.400 . S
C1517 C1511 1.491 . S
C1517 C1516 1.400 . S
C1517 C1518 1.398 . S
C1518 H1506 0.950 . S
C1518 C1517 1.398 . S
C1518 C1519 1.391 . S
C1519 H1507 0.950 . S
C1519 C1515 1.393 . S
C1519 C1518 1.391 . S
H1520 C1528 0.950 1_655 S
H1521 C1533 0.950 . S
H1522 C1530 0.950 . S
H1523 C1532 0.950 . S
H1524 C1534 0.950 . S
H1525 C1536 0.950 . S
H1526 C1538 0.950 . S
H1527 C1539 0.950 . S
C1528 H1520 0.950 1_455 S
C1528 C1529 1.386 . S
C1528 C1530 1.391 . S
C1529 C1528 1.386 . S
C1529 C1533 1.393 . S
C1530 H1522 0.950 . S
C1530 C1528 1.391 . S
C1530 C1531 1.400 . S
C1531 C1530 1.400 . S
C1531 C1532 1.398 . S
C1531 C1537 1.491 . S
C1532 H1523 0.950 . S
C1532 C1531 1.398 . S
C1532 C1533 1.391 . S
C1533 H1521 0.950 . S
C1533 C1529 1.393 . S
C1533 C1532 1.391 . S
C1534 H1524 0.950 . S
C1534 C1535 1.386 . S
C1534 C1536 1.391 . S
C1535 C1534 1.386 . S
C1535 C1539 1.393 . S
C1536 H1525 0.950 . S
C1536 C1534 1.391 . S
C1536 C1537 1.400 . S
C1537 C1531 1.491 . S
C1537 C1536 1.400 . S
C1537 C1538 1.398 . S
C1538 H1526 0.950 . S
C1538 C1537 1.398 . S
C1538 C1539 1.391 . S
C1539 H1527 0.950 . S
C1539 C1535 1.393 . S
C1539 C1538 1.391 . S
H1540 C1548 0.950 . S
H1541 C1553 0.950 . S
H1542 C1550 0.950 . S
H1543 C1552 0.950 . S
H1544 C1554 0.950 . S
H1545 C1556 0.950 . S
H1546 C1558 0.950 . S
H1547 C1559 0.950 . S
C1548 H1540 0.950 . S
C1548 C1549 1.386 . S
C1548 C1550 1.391 . S
C1549 C1548 1.386 . S
C1549 C1553 1.393 . S
C1550 H1542 0.950 . S
C1550 C1548 1.391 . S
C1550 C1551 1.400 . S
C1551 C1550 1.400 . S
C1551 C1552 1.398 . S
C1551 C1557 1.491 . S
C1552 H1543 0.950 . S
C1552 C1551 1.398 . S
C1552 C1553 1.391 . S
C1553 H1541 0.950 . S
C1553 C1549 1.393 . S
C1553 C1552 1.391 . S
C1554 H1544 0.950 . S
C1554 C1555 1.386 . S
C1554 C1556 1.391 . S
C1555 C1554 1.386 . S
C1555 C1559 1.393 . S
C1556 H1545 0.950 . S
C1556 C1554 1.391 . S
C1556 C1557 1.400 . S
C1557 C1551 1.491 . S
C1557 C1556 1.400 . S
C1557 C1558 1.398 . S
C1558 H1546 0.950 . S
C1558 C1557 1.398 . S
C1558 C1559 1.391 . S
C1559 H1547 0.950 . S
C1559 C1555 1.393 . S
C1559 C1558 1.391 . S
H1560 C1568 0.950 . S
H1561 C1573 0.950 . S
H1562 C1570 0.950 . S
H1563 C1572 0.950 . S
H1564 C1574 0.950 . S
H1565 C1576 0.950 . S
H1566 C1578 0.950 . S
H1567 C1579 0.950 . S
C1568 H1560 0.950 . S
C1568 C1569 1.386 . S
C1568 C1570 1.391 . S
C1569 C1568 1.386 . S
C1569 C1573 1.393 . S
C1570 H1562 0.950 . S
C1570 C1568 1.391 . S
C1570 C1571 1.400 . S
C1571 C1570 1.400 . S
C1571 C1572 1.398 . S
C1571 C1577 1.491 . S
C1572 H1563 0.950 . S
C1572 C1571 1.398 . S
C1572 C1573 1.391 . S
C1573 H1561 0.950 . S
C1573 C1569 1.393 . S
C1573 C1572 1.391 . S
C1574 H1564 0.950 . S
C1574 C1575 1.386 . S
C1574 C1576 1.391 . S
C1575 C1574 1.386 . S
C1575 C1579 1.393 . S
C1576 H1565 0.950 . S
C1576 C1574 1.391 . S
C1576 C1577 1.400 . S
C1577 C1571 1.491 . S
C1577 C1576 1.400 . S
C1577 C1578 1.398 . S
C1578 H1566 0.950 . S
C1578 C1577 1.398 . S
C1578 C1579 1.391 . S
C1579 H1567 0.950 . S
C1579 C1575 1.393 . S
C1579 C1578 1.391 . S
H1580 C1588 0.950 . S
H1581 C1593 0.950 . S
H1582 C1590 0.950 . S
H1583 C1592 0.950 . S
H1584 C1594 0.950 . S
H1585 C1596 0.950 . S
H1586 C1598 0.950 . S
H1587 C1599 0.950 . S
C1588 H1580 0.950 . S
C1588 C1589 1.386 . S
C1588 C1590 1.391 . S
C1589 C1588 1.386 . S
C1589 C1593 1.393 . S
C1590 H1582 0.950 . S
C1590 C1588 1.391 . S
C1590 C1591 1.400 . S
C1591 C1590 1.400 . S
C1591 C1592 1.398 . S
C1591 C1597 1.491 . S
C1592 H1583 0.950 . S
C1592 C1591 1.398 . S
C1592 C1593 1.391 . S
C1593 H1581 0.950 . S
C1593 C1589 1.393 . S
C1593 C1592 1.391 . S
C1594 H1584 0.950 . S
C1594 C1595 1.386 . S
C1594 C1596 1.391 . S
C1595 C1594 1.386 . S
C1595 C1599 1.393 . S
C1596 H1585 0.950 . S
C1596 C1594 1.391 . S
C1596 C1597 1.400 . S
C1597 C1591 1.491 . S
C1597 C1596 1.400 . S
C1597 C1598 1.398 . S
C1598 H1586 0.950 . S
C1598 C1597 1.398 . S
C1598 C1599 1.391 . S
C1599 H1587 0.950 . S
C1599 C1595 1.393 . S
C1599 C1598 1.391 . S
H1600 C1608 0.950 . S
H1601 C1613 0.950 . S
H1602 C1610 0.950 . S
H1603 C1612 0.950 . S
H1604 C1614 0.950 . S
H1605 C1616 0.950 . S
H1606 C1618 0.950 . S
H1607 C1619 0.950 . S
C1608 H1600 0.950 . S
C1608 C1609 1.386 . S
C1608 C1610 1.391 . S
C1609 C1608 1.386 . S
C1609 C1613 1.393 . S
C1610 H1602 0.950 . S
C1610 C1608 1.391 . S
C1610 C1611 1.400 . S
C1611 C1610 1.400 . S
C1611 C1612 1.398 . S
C1611 C1617 1.491 . S
C1612 H1603 0.950 . S
C1612 C1611 1.398 . S
C1612 C1613 1.391 . S
C1613 H1601 0.950 . S
C1613 C1609 1.393 . S
C1613 C1612 1.391 . S
C1614 H1604 0.950 . S
C1614 C1615 1.386 . S
C1614 C1616 1.391 . S
C1615 C1614 1.386 . S
C1615 C1619 1.393 . S
C1616 H1605 0.950 . S
C1616 C1614 1.391 . S
C1616 C1617 1.400 . S
C1617 C1611 1.491 . S
C1617 C1616 1.400 . S
C1617 C1618 1.398 . S
C1618 H1606 0.950 . S
C1618 C1617 1.398 . S
C1618 C1619 1.391 . S
C1619 H1607 0.950 . S
C1619 C1615 1.393 . S
C1619 C1618 1.391 . S
H1620 C1628 0.950 . S
H1621 C1633 0.950 . S
H1622 C1630 0.950 . S
H1623 C1632 0.950 . S
H1624 C1634 0.950 . S
H1625 C1636 0.950 . S
H1626 C1638 0.950 . S
H1627 C1639 0.950 . S
C1628 H1620 0.950 . S
C1628 C1629 1.386 . S
C1628 C1630 1.391 . S
C1629 C1628 1.386 . S
C1629 C1633 1.393 . S
C1630 H1622 0.950 . S
C1630 C1628 1.391 . S
C1630 C1631 1.400 . S
C1631 C1630 1.400 . S
C1631 C1632 1.398 . S
C1631 C1637 1.491 . S
C1632 H1623 0.950 . S
C1632 C1631 1.398 . S
C1632 C1633 1.391 . S
C1633 H1621 0.950 . S
C1633 C1629 1.393 . S
C1633 C1632 1.391 . S
C1634 H1624 0.950 . S
C1634 C1635 1.386 . S
C1634 C1636 1.391 . S
C1635 C1634 1.386 . S
C1635 C1639 1.393 . S
C1636 H1625 0.950 . S
C1636 C1634 1.391 . S
C1636 C1637 1.400 . S
C1637 C1631 1.491 . S
C1637 C1636 1.400 . S
C1637 C1638 1.398 . S
C1638 H1626 0.950 . S
C1638 C1637 1.398 . S
C1638 C1639 1.391 . S
C1639 H1627 0.950 . S
C1639 C1635 1.393 . S
C1639 C1638 1.391 . S
H1640 C1648 0.950 . S
H1641 C1653 0.950 . S
H1642 C1650 0.950 . S
H1643 C1652 0.950 . S
H1644 C1654 0.950 . S
H1645 C1656 0.950 . S
H1646 C1658 0.950 . S
H1647 C1659 0.950 . S
C1648 H1640 0.950 . S
C1648 C1649 1.386 . S
C1648 C1650 1.391 . S
C1649 C1648 1.386 . S
C1649 C1653 1.393 . S
C1650 H1642 0.950 . S
C1650 C1648 1.391 . S
C1650 C1651 1.400 . S
C1651 C1650 1.400 . S
C1651 C1652 1.398 . S
C1651 C1657 1.491 . S
C1652 H1643 0.950 . S
C1652 C1651 1.398 . S
C1652 C1653 1.391 . S
C1653 H1641 0.950 . S
C1653 C1649 1.393 . S
C1653 C1652 1.391 . S
C1654 H1644 0.950 . S
C1654 C1655 1.386 . S
C1654 C1656 1.391 . S
C1655 C1654 1.386 . S
C1655 C1659 1.393 . S
C1656 H1645 0.950 . S
C1656 C1654 1.391 . S
C1656 C1657 1.400 . S
C1657 C1651 1.491 . S
C1657 C1656 1.400 . S
C1657 C1658 1.398 . S
C1658 H1646 0.950 . S
C1658 C1657 1.398 . S
C1658 C1659 1.391 . S
C1659 H1647 0.950 . S
C1659 C1655 1.393 . S
C1659 C1658 1.391 . S
H1660 C1668 0.950 . S
H1661 C1673 0.950 . S
H1662 C1670 0.950 . S
H1663 C1672 0.950 . S
H1664 C1674 0.950 . S
H1665 C1676 0.950 . S
H1666 C1678 0.950 . S
H1667 C1679 0.950 . S
C1668 H1660 0.950 . S
C1668 C1669 1.386 . S
C1668 C1670 1.391 . S
C1669 C1668 1.386 . S
C1669 C1673 1.393 . S
C1670 H1662 0.950 . S
C1670 C1668 1.391 . S
C1670 C1671 1.400 . S
C1671 C1670 1.400 . S
C1671 C1672 1.398 . S
C1671 C1677 1.491 . S
C1672 H1663 0.950 . S
C1672 C1671 1.398 . S
C1672 C1673 1.391 . S
C1673 H1661 0.950 . S
C1673 C1669 1.393 . S
C1673 C1672 1.391 . S
C1674 H1664 0.950 . S
C1674 C1675 1.386 . S
C1674 C1676 1.391 . S
C1675 C1674 1.386 . S
C1675 C1679 1.393 . S
C1676 H1665 0.950 . S
C1676 C1674 1.391 . S
C1676 C1677 1.400 . S
C1677 C1671 1.491 . S
C1677 C1676 1.400 . S
C1677 C1678 1.398 . S
C1678 H1666 0.950 . S
C1678 C1677 1.398 . S
C1678 C1679 1.391 . S
C1679 H1667 0.950 . S
C1679 C1675 1.393 . S
C1679 C1678 1.391 . S
H1680 C1688 0.950 . S
H1681 C1693 0.950 . S
H1682 C1690 0.950 . S
H1683 C1692 0.950 . S
H1684 C1694 0.945 1_545 S
H1685 C1696 0.949 . S
H1686 C1698 0.950 . S
H1687 C1699 0.950 . S
C1688 H1680 0.950 . S
C1688 C1689 1.386 . S
C1688 C1690 1.391 . S
C1689 C1688 1.386 . S
C1689 C1693 1.393 . S
C1690 H1682 0.950 . S
C1690 C1688 1.391 . S
C1690 C1691 1.400 . S
C1691 C1690 1.400 . S
C1691 C1692 1.398 . S
C1691 C1697 1.491 . S
C1692 H1683 0.950 . S
C1692 C1691 1.398 . S
C1692 C1693 1.391 . S
C1693 H1681 0.950 . S
C1693 C1689 1.393 . S
C1693 C1692 1.391 . S
C1694 H1684 0.945 1_565 S
C1694 C1695 1.386 . S
C1694 C1696 1.391 . S
C1695 C1694 1.386 . S
C1695 C1699 1.393 . S
C1696 H1685 0.949 . S
C1696 C1694 1.391 . S
C1696 C1697 1.400 . S
C1697 C1691 1.491 . S
C1697 C1696 1.400 . S
C1697 C1698 1.398 . S
C1698 H1686 0.950 . S
C1698 C1697 1.398 . S
C1698 C1699 1.391 . S
C1699 H1687 0.950 . S
C1699 C1695 1.393 . S
C1699 C1698 1.391 . S
H1700 C1708 0.950 . S
H1701 C1713 0.950 . S
H1702 C1710 0.950 . S
H1703 C1712 0.950 . S
H1704 C1714 0.950 . S
H1705 C1716 0.950 . S
H1706 C1718 0.950 . S
H1707 C1719 0.950 . S
C1708 H1700 0.950 . S
C1708 C1709 1.386 . S
C1708 C1710 1.391 . S
C1709 C1708 1.386 . S
C1709 C1713 1.393 . S
C1710 H1702 0.950 . S
C1710 C1708 1.391 . S
C1710 C1711 1.400 . S
C1711 C1710 1.400 . S
C1711 C1712 1.398 . S
C1711 C1717 1.491 . S
C1712 H1703 0.950 . S
C1712 C1711 1.398 . S
C1712 C1713 1.391 . S
C1713 H1701 0.950 . S
C1713 C1709 1.393 . S
C1713 C1712 1.391 . S
C1714 H1704 0.950 . S
C1714 C1715 1.386 . S
C1714 C1716 1.391 . S
C1715 C1714 1.386 . S
C1715 C1719 1.393 . S
C1716 H1705 0.950 . S
C1716 C1714 1.391 . S
C1716 C1717 1.400 . S
C1717 C1711 1.491 . S
C1717 C1716 1.400 . S
C1717 C1718 1.398 . S
C1718 H1706 0.950 . S
C1718 C1717 1.398 . S
C1718 C1719 1.391 . S
C1719 H1707 0.950 . S
C1719 C1715 1.393 . S
C1719 C1718 1.391 . S
H1720 C1728 0.950 . S
H1721 C1733 0.950 . S
H1722 C1730 0.950 . S
H1723 C1732 0.950 . S
H1724 C1734 0.950 . S
H1725 C1736 0.950 . S
H1726 C1738 0.950 . S
H1727 C1739 0.950 . S
C1728 H1720 0.950 . S
C1728 C1729 1.386 . S
C1728 C1730 1.391 . S
C1729 C1728 1.386 . S
C1729 C1733 1.393 . S
C1730 H1722 0.950 . S
C1730 C1728 1.391 . S
C1730 C1731 1.400 . S
C1731 C1730 1.400 . S
C1731 C1732 1.398 . S
C1731 C1737 1.491 . S
C1732 H1723 0.950 . S
C1732 C1731 1.398 . S
C1732 C1733 1.391 . S
C1733 H1721 0.950 . S
C1733 C1729 1.393 . S
C1733 C1732 1.391 . S
C1734 H1724 0.950 . S
C1734 C1735 1.386 . S
C1734 C1736 1.391 . S
C1735 C1734 1.386 . S
C1735 C1739 1.393 . S
C1736 H1725 0.950 . S
C1736 C1734 1.391 . S
C1736 C1737 1.400 . S
C1737 C1731 1.491 . S
C1737 C1736 1.400 . S
C1737 C1738 1.398 . S
C1738 H1726 0.950 . S
C1738 C1737 1.398 . S
C1738 C1739 1.391 . S
C1739 H1727 0.950 . S
C1739 C1735 1.393 . S
C1739 C1738 1.391 . S
H1740 C1748 0.950 . S
H1741 C1753 0.950 . S
H1742 C1750 0.950 . S
H1743 C1752 0.950 . S
H1744 C1754 0.950 . S
H1745 C1756 0.950 . S
H1746 C1758 0.950 . S
H1747 C1759 0.950 . S
C1748 H1740 0.950 . S
C1748 C1749 1.386 . S
C1748 C1750 1.391 . S
C1749 C1748 1.386 . S
C1749 C1753 1.393 . S
C1750 H1742 0.950 . S
C1750 C1748 1.391 . S
C1750 C1751 1.400 . S
C1751 C1750 1.400 . S
C1751 C1752 1.398 . S
C1751 C1757 1.491 . S
C1752 H1743 0.950 . S
C1752 C1751 1.398 . S
C1752 C1753 1.391 . S
C1753 H1741 0.950 . S
C1753 C1749 1.393 . S
C1753 C1752 1.391 . S
C1754 H1744 0.950 . S
C1754 C1755 1.386 . S
C1754 C1756 1.391 . S
C1755 C1754 1.386 . S
C1755 C1759 1.393 . S
C1756 H1745 0.950 . S
C1756 C1754 1.391 . S
C1756 C1757 1.400 . S
C1757 C1751 1.491 . S
C1757 C1756 1.400 . S
C1757 C1758 1.398 . S
C1758 H1746 0.950 . S
C1758 C1757 1.398 . S
C1758 C1759 1.391 . S
C1759 H1747 0.950 . S
C1759 C1755 1.393 . S
C1759 C1758 1.391 . S
H1760 C1768 0.950 . S
H1761 C1773 0.950 . S
H1762 C1770 0.950 . S
H1763 C1772 0.950 . S
H1764 C1774 0.950 . S
H1765 C1776 0.950 . S
H1766 C1778 0.950 . S
H1767 C1779 0.950 . S
C1768 H1760 0.950 . S
C1768 C1769 1.386 . S
C1768 C1770 1.391 . S
C1769 C1768 1.386 . S
C1769 C1773 1.393 . S
C1770 H1762 0.950 . S
C1770 C1768 1.391 . S
C1770 C1771 1.400 . S
C1771 C1770 1.400 . S
C1771 C1772 1.398 . S
C1771 C1777 1.491 . S
C1772 H1763 0.950 . S
C1772 C1771 1.398 . S
C1772 C1773 1.391 . S
C1773 H1761 0.950 . S
C1773 C1769 1.393 . S
C1773 C1772 1.391 . S
C1774 H1764 0.950 . S
C1774 C1775 1.386 . S
C1774 C1776 1.391 . S
C1775 C1774 1.386 . S
C1775 C1779 1.393 . S
C1776 H1765 0.950 . S
C1776 C1774 1.391 . S
C1776 C1777 1.400 . S
C1777 C1771 1.491 . S
C1777 C1776 1.400 . S
C1777 C1778 1.398 . S
C1778 H1766 0.950 . S
C1778 C1777 1.398 . S
C1778 C1779 1.391 . S
C1779 H1767 0.950 . S
C1779 C1775 1.393 . S
C1779 C1778 1.391 . S
H1780 C1788 0.950 . S
H1781 C1793 0.950 . S
H1782 C1790 0.950 . S
H1783 C1792 0.950 . S
H1784 C1794 0.950 . S
H1785 C1796 0.950 . S
H1786 C1798 0.950 . S
H1787 C1799 0.950 . S
C1788 H1780 0.950 . S
C1788 C1789 1.386 . S
C1788 C1790 1.391 . S
C1789 C1788 1.386 . S
C1789 C1793 1.393 . S
C1790 H1782 0.950 . S
C1790 C1788 1.391 . S
C1790 C1791 1.400 . S
C1791 C1790 1.400 . S
C1791 C1792 1.398 . S
C1791 C1797 1.491 . S
C1792 H1783 0.950 . S
C1792 C1791 1.398 . S
C1792 C1793 1.391 . S
C1793 H1781 0.950 . S
C1793 C1789 1.393 . S
C1793 C1792 1.391 . S
C1794 H1784 0.950 . S
C1794 C1795 1.386 . S
C1794 C1796 1.391 . S
C1795 C1794 1.386 . S
C1795 C1799 1.393 . S
C1796 H1785 0.950 . S
C1796 C1794 1.391 . S
C1796 C1797 1.400 . S
C1797 C1791 1.491 . S
C1797 C1796 1.400 . S
C1797 C1798 1.398 . S
C1798 H1786 0.950 . S
C1798 C1797 1.398 . S
C1798 C1799 1.391 . S
C1799 H1787 0.950 . S
C1799 C1795 1.393 . S
C1799 C1798 1.391 . S
H1800 C1808 0.950 . S
H1801 C1813 0.950 . S
H1802 C1810 0.950 . S
H1803 C1812 0.950 . S
H1804 C1814 0.950 . S
H1805 C1816 0.950 . S
H1806 C1818 0.950 . S
H1807 C1819 0.950 . S
C1808 H1800 0.950 . S
C1808 C1809 1.386 . S
C1808 C1810 1.391 . S
C1809 C1808 1.386 . S
C1809 C1813 1.393 . S
C1810 H1802 0.950 . S
C1810 C1808 1.391 . S
C1810 C1811 1.400 . S
C1811 C1810 1.400 . S
C1811 C1812 1.398 . S
C1811 C1817 1.491 . S
C1812 H1803 0.950 . S
C1812 C1811 1.398 . S
C1812 C1813 1.391 . S
C1813 H1801 0.950 . S
C1813 C1809 1.393 . S
C1813 C1812 1.391 . S
C1814 H1804 0.950 . S
C1814 C1815 1.386 . S
C1814 C1816 1.391 . S
C1815 C1814 1.386 . S
C1815 C1819 1.393 . S
C1816 H1805 0.950 . S
C1816 C1814 1.391 . S
C1816 C1817 1.400 . S
C1817 C1811 1.491 . S
C1817 C1816 1.400 . S
C1817 C1818 1.398 . S
C1818 H1806 0.950 . S
C1818 C1817 1.398 . S
C1818 C1819 1.391 . S
C1819 H1807 0.950 . S
C1819 C1815 1.393 . S
C1819 C1818 1.391 . S
H1820 C1828 0.950 . S
H1821 C1833 0.950 . S
H1822 C1830 0.950 . S
H1823 C1832 0.950 . S
H1824 C1834 0.950 . S
H1825 C1836 0.950 . S
H1826 C1838 0.950 . S
H1827 C1839 0.950 . S
C1828 H1820 0.950 . S
C1828 C1829 1.386 . S
C1828 C1830 1.391 . S
C1829 C1828 1.386 . S
C1829 C1833 1.393 . S
C1830 H1822 0.950 . S
C1830 C1828 1.391 . S
C1830 C1831 1.400 . S
C1831 C1830 1.400 . S
C1831 C1832 1.398 . S
C1831 C1837 1.491 . S
C1832 H1823 0.950 . S
C1832 C1831 1.398 . S
C1832 C1833 1.391 . S
C1833 H1821 0.950 . S
C1833 C1829 1.393 . S
C1833 C1832 1.391 . S
C1834 H1824 0.950 . S
C1834 C1835 1.386 . S
C1834 C1836 1.391 . S
C1835 C1834 1.386 . S
C1835 C1839 1.393 . S
C1836 H1825 0.950 . S
C1836 C1834 1.391 . S
C1836 C1837 1.400 . S
C1837 C1831 1.491 . S
C1837 C1836 1.400 . S
C1837 C1838 1.398 . S
C1838 H1826 0.950 . S
C1838 C1837 1.398 . S
C1838 C1839 1.391 . S
C1839 H1827 0.950 . S
C1839 C1835 1.393 . S
C1839 C1838 1.391 . S
H1840 C1848 0.950 . S
H1841 C1853 0.950 . S
H1842 C1850 0.950 . S
H1843 C1852 0.950 . S
H1844 C1854 0.950 . S
H1845 C1856 0.950 . S
H1846 C1858 0.950 . S
H1847 C1859 0.950 . S
C1848 H1840 0.950 . S
C1848 C1849 1.386 1_545 S
C1848 C1850 1.391 . S
C1849 C1848 1.386 1_565 S
C1849 C1853 1.393 . S
C1850 H1842 0.950 . S
C1850 C1848 1.391 . S
C1850 C1851 1.400 1_545 S
C1851 C1850 1.400 1_565 S
C1851 C1852 1.398 . S
C1851 C1857 1.491 . S
C1852 H1843 0.950 . S
C1852 C1851 1.398 . S
C1852 C1853 1.391 . S
C1853 H1841 0.950 . S
C1853 C1849 1.393 . S
C1853 C1852 1.391 . S
C1854 H1844 0.950 . S
C1854 C1855 1.386 . S
C1854 C1856 1.391 . S
C1855 C1854 1.386 . S
C1855 C1859 1.393 1_565 S
C1856 H1845 0.950 . S
C1856 C1854 1.391 . S
C1856 C1857 1.400 . S
C1857 C1851 1.491 . S
C1857 C1856 1.400 . S
C1857 C1858 1.398 1_565 S
C1858 H1846 0.950 . S
C1858 C1857 1.398 1_545 S
C1858 C1859 1.391 . S
C1859 H1847 0.950 . S
C1859 C1855 1.393 1_545 S
C1859 C1858 1.391 . S
H1860 C1868 0.950 . S
H1861 C1873 0.950 . S
H1862 C1870 0.950 . S
H1863 C1872 0.950 . S
H1864 C1874 0.950 . S
H1865 C1876 0.950 . S
H1866 C1878 0.950 . S
H1867 C1879 0.950 . S
C1868 H1860 0.950 . S
C1868 C1869 1.386 . S
C1868 C1870 1.391 . S
C1869 C1868 1.386 . S
C1869 C1873 1.393 . S
C1870 H1862 0.950 . S
C1870 C1868 1.391 . S
C1870 C1871 1.400 . S
C1871 C1870 1.400 . S
C1871 C1872 1.398 . S
C1871 C1877 1.491 . S
C1872 H1863 0.950 . S
C1872 C1871 1.398 . S
C1872 C1873 1.391 . S
C1873 H1861 0.950 . S
C1873 C1869 1.393 . S
C1873 C1872 1.391 . S
C1874 H1864 0.950 . S
C1874 C1875 1.386 . S
C1874 C1876 1.391 . S
C1875 C1874 1.386 . S
C1875 C1879 1.393 . S
C1876 H1865 0.950 . S
C1876 C1874 1.391 . S
C1876 C1877 1.400 . S
C1877 C1871 1.491 . S
C1877 C1876 1.400 . S
C1877 C1878 1.398 . S
C1878 H1866 0.950 . S
C1878 C1877 1.398 . S
C1878 C1879 1.391 . S
C1879 H1867 0.950 . S
C1879 C1875 1.393 . S
C1879 C1878 1.391 . S
H1880 C1888 0.950 . S
H1881 C1893 0.950 . S
H1882 C1890 0.950 . S
H1883 C1892 0.950 . S
H1884 C1894 0.950 . S
H1885 C1896 0.950 . S
H1886 C1898 0.950 . S
H1887 C1899 0.950 . S
C1888 H1880 0.950 . S
C1888 C1889 1.386 . S
C1888 C1890 1.391 . S
C1889 C1888 1.386 . S
C1889 C1893 1.393 1_545 S
C1890 H1882 0.950 . S
C1890 C1888 1.391 . S
C1890 C1891 1.400 . S
C1891 C1890 1.400 . S
C1891 C1892 1.398 1_545 S
C1891 C1897 1.491 . S
C1892 H1883 0.950 . S
C1892 C1891 1.398 1_565 S
C1892 C1893 1.391 . S
C1893 H1881 0.950 . S
C1893 C1889 1.393 1_565 S
C1893 C1892 1.391 . S
C1894 H1884 0.950 . S
C1894 C1895 1.386 1_565 S
C1894 C1896 1.391 . S
C1895 C1894 1.386 1_545 S
C1895 C1899 1.393 . S
C1896 H1885 0.950 . S
C1896 C1894 1.391 . S
C1896 C1897 1.400 1_565 S
C1897 C1891 1.491 . S
C1897 C1896 1.400 1_545 S
C1897 C1898 1.398 . S
C1898 H1886 0.950 . S
C1898 C1897 1.398 . S
C1898 C1899 1.391 . S
C1899 H1887 0.950 . S
C1899 C1895 1.393 . S
C1899 C1898 1.391 . S
H1900 C1908 0.950 . S
H1901 C1913 0.950 . S
H1902 C1910 0.950 . S
H1903 C1912 0.950 . S
H1904 C1914 0.950 . S
H1905 C1916 0.950 . S
H1906 C1918 0.950 . S
H1907 C1919 0.950 . S
C1908 H1900 0.950 . S
C1908 C1909 1.386 . S
C1908 C1910 1.391 . S
C1909 C1908 1.386 . S
C1909 C1913 1.393 . S
C1910 H1902 0.950 . S
C1910 C1908 1.391 . S
C1910 C1911 1.400 . S
C1911 C1910 1.400 . S
C1911 C1912 1.398 . S
C1911 C1917 1.491 . S
C1912 H1903 0.950 . S
C1912 C1911 1.398 . S
C1912 C1913 1.391 . S
C1913 H1901 0.950 . S
C1913 C1909 1.393 . S
C1913 C1912 1.391 . S
C1914 H1904 0.950 . S
C1914 C1915 1.386 . S
C1914 C1916 1.391 . S
C1915 C1914 1.386 . S
C1915 C1919 1.393 . S
C1916 H1905 0.950 . S
C1916 C1914 1.391 . S
C1916 C1917 1.400 . S
C1917 C1911 1.491 . S
C1917 C1916 1.400 . S
C1917 C1918 1.398 . S
C1918 H1906 0.950 . S
C1918 C1917 1.398 . S
C1918 C1919 1.391 . S
C1919 H1907 0.950 . S
C1919 C1915 1.393 . S
C1919 C1918 1.391 . S
H1920 C1928 0.950 . S
H1921 C1933 0.950 . S
H1922 C1930 0.950 . S
H1923 C1932 0.950 . S
H1924 C1934 0.950 . S
H1925 C1936 0.950 . S
H1926 C1938 0.950 . S
H1927 C1939 0.950 . S
C1928 H1920 0.950 . S
C1928 C1929 1.386 . S
C1928 C1930 1.391 . S
C1929 C1928 1.386 . S
C1929 C1933 1.393 . S
C1930 H1922 0.950 . S
C1930 C1928 1.391 . S
C1930 C1931 1.400 . S
C1931 C1930 1.400 . S
C1931 C1932 1.398 . S
C1931 C1937 1.491 . S
C1932 H1923 0.950 . S
C1932 C1931 1.398 . S
C1932 C1933 1.391 . S
C1933 H1921 0.950 . S
C1933 C1929 1.393 . S
C1933 C1932 1.391 . S
C1934 H1924 0.950 . S
C1934 C1935 1.386 . S
C1934 C1936 1.391 . S
C1935 C1934 1.386 . S
C1935 C1939 1.393 . S
C1936 H1925 0.950 . S
C1936 C1934 1.391 . S
C1936 C1937 1.400 . S
C1937 C1931 1.491 . S
C1937 C1936 1.400 . S
C1937 C1938 1.398 . S
C1938 H1926 0.950 . S
C1938 C1937 1.398 . S
C1938 C1939 1.391 . S
C1939 H1927 0.950 . S
C1939 C1935 1.393 . S
C1939 C1938 1.391 . S
H1940 C1948 0.950 . S
H1941 C1953 0.950 . S
H1942 C1950 0.950 . S
H1943 C1952 0.950 . S
H1944 C1954 0.950 . S
H1945 C1956 0.950 . S
H1946 C1958 0.950 . S
H1947 C1959 0.950 . S
C1948 H1940 0.950 . S
C1948 C1949 1.386 . S
C1948 C1950 1.391 . S
C1949 C1948 1.386 . S
C1949 C1953 1.393 . S
C1950 H1942 0.950 . S
C1950 C1948 1.391 . S
C1950 C1951 1.400 . S
C1951 C1950 1.400 . S
C1951 C1952 1.398 . S
C1951 C1957 1.491 . S
C1952 H1943 0.950 . S
C1952 C1951 1.398 . S
C1952 C1953 1.391 . S
C1953 H1941 0.950 . S
C1953 C1949 1.393 . S
C1953 C1952 1.391 . S
C1954 H1944 0.950 . S
C1954 C1955 1.386 . S
C1954 C1956 1.391 . S
C1955 C1954 1.386 . S
C1955 C1959 1.393 . S
C1956 H1945 0.950 . S
C1956 C1954 1.391 . S
C1956 C1957 1.400 . S
C1957 C1951 1.491 . S
C1957 C1956 1.400 . S
C1957 C1958 1.398 . S
C1958 H1946 0.950 . S
C1958 C1957 1.398 . S
C1958 C1959 1.391 . S
C1959 H1947 0.950 . S
C1959 C1955 1.393 . S
C1959 C1958 1.391 . S
H1960 C1968 0.950 . S
H1961 C1973 0.950 . S
H1962 C1970 0.950 . S
H1963 C1972 0.950 . S
H1964 C1974 0.950 . S
H1965 C1976 0.950 . S
H1966 C1978 0.950 . S
H1967 C1979 0.950 . S
C1968 H1960 0.950 . S
C1968 C1969 1.386 . S
C1968 C1970 1.391 . S
C1969 C1968 1.386 . S
C1969 C1973 1.393 . S
C1970 H1962 0.950 . S
C1970 C1968 1.391 . S
C1970 C1971 1.400 . S
C1971 C1970 1.400 . S
C1971 C1972 1.398 . S
C1971 C1977 1.491 . S
C1972 H1963 0.950 . S
C1972 C1971 1.398 . S
C1972 C1973 1.391 . S
C1973 H1961 0.950 . S
C1973 C1969 1.393 . S
C1973 C1972 1.391 . S
C1974 H1964 0.950 . S
C1974 C1975 1.386 . S
C1974 C1976 1.391 . S
C1975 C1974 1.386 . S
C1975 C1979 1.393 . S
C1976 H1965 0.950 . S
C1976 C1974 1.391 . S
C1976 C1977 1.400 . S
C1977 C1971 1.491 . S
C1977 C1976 1.400 . S
C1977 C1978 1.398 . S
C1978 H1966 0.950 . S
C1978 C1977 1.398 . S
C1978 C1979 1.391 . S
C1979 H1967 0.950 . S
C1979 C1975 1.393 . S
C1979 C1978 1.391 . S
H1980 C1988 0.950 . S
H1981 C1993 0.950 . S
H1982 C1990 0.950 . S
H1983 C1992 0.950 . S
H1984 C1994 0.950 . S
H1985 C1996 0.950 . S
H1986 C1998 0.950 . S
H1987 C1999 0.950 . S
C1988 H1980 0.950 . S
C1988 C1989 1.386 . S
C1988 C1990 1.391 . S
C1989 C1988 1.386 . S
C1989 C1993 1.393 . S
C1990 H1982 0.950 . S
C1990 C1988 1.391 . S
C1990 C1991 1.400 . S
C1991 C1990 1.400 . S
C1991 C1992 1.398 . S
C1991 C1997 1.491 . S
C1992 H1983 0.950 . S
C1992 C1991 1.398 . S
C1992 C1993 1.391 . S
C1993 H1981 0.950 . S
C1993 C1989 1.393 . S
C1993 C1992 1.391 . S
C1994 H1984 0.950 . S
C1994 C1995 1.386 . S
C1994 C1996 1.391 . S
C1995 C1994 1.386 . S
C1995 C1999 1.393 . S
C1996 H1985 0.950 . S
C1996 C1994 1.391 . S
C1996 C1997 1.400 . S
C1997 C1991 1.491 . S
C1997 C1996 1.400 . S
C1997 C1998 1.398 . S
C1998 H1986 0.950 . S
C1998 C1997 1.398 . S
C1998 C1999 1.391 . S
C1999 H1987 0.950 . S
C1999 C1995 1.393 . S
C1999 C1998 1.391 . S
H2000 C2008 0.950 . S
H2001 C2013 0.950 . S
H2002 C2010 0.950 . S
H2003 C2012 0.950 . S
H2004 C2014 0.950 . S
H2005 C2016 0.950 . S
H2006 C2018 0.950 . S
H2007 C2019 0.950 . S
C2008 H2000 0.950 . S
C2008 C2009 1.386 . S
C2008 C2010 1.391 . S
C2009 C2008 1.386 . S
C2009 C2013 1.393 . S
C2010 H2002 0.950 . S
C2010 C2008 1.391 . S
C2010 C2011 1.400 . S
C2011 C2010 1.400 . S
C2011 C2012 1.398 . S
C2011 C2017 1.491 . S
C2012 H2003 0.950 . S
C2012 C2011 1.398 . S
C2012 C2013 1.391 . S
C2013 H2001 0.950 . S
C2013 C2009 1.393 . S
C2013 C2012 1.391 . S
C2014 H2004 0.950 . S
C2014 C2015 1.386 . S
C2014 C2016 1.391 . S
C2015 C2014 1.386 . S
C2015 C2019 1.393 . S
C2016 H2005 0.950 . S
C2016 C2014 1.391 . S
C2016 C2017 1.400 . S
C2017 C2011 1.491 . S
C2017 C2016 1.400 . S
C2017 C2018 1.398 . S
C2018 H2006 0.950 . S
C2018 C2017 1.398 . S
C2018 C2019 1.391 . S
C2019 H2007 0.950 . S
C2019 C2015 1.393 . S
C2019 C2018 1.391 . S
H2020 C2028 0.950 . S
H2021 C2033 0.950 . S
H2022 C2030 0.950 . S
H2023 C2032 0.950 . S
H2024 C2034 0.950 . S
H2025 C2036 0.950 . S
H2026 C2038 0.950 . S
H2027 C2039 0.950 . S
C2028 H2020 0.950 . S
C2028 C2029 1.386 . S
C2028 C2030 1.391 . S
C2029 C2028 1.386 . S
C2029 C2033 1.393 . S
C2030 H2022 0.950 . S
C2030 C2028 1.391 . S
C2030 C2031 1.400 . S
C2031 C2030 1.400 . S
C2031 C2032 1.398 . S
C2031 C2037 1.491 . S
C2032 H2023 0.950 . S
C2032 C2031 1.398 . S
C2032 C2033 1.391 . S
C2033 H2021 0.950 . S
C2033 C2029 1.393 . S
C2033 C2032 1.391 . S
C2034 H2024 0.950 . S
C2034 C2035 1.386 . S
C2034 C2036 1.391 . S
C2035 C2034 1.386 . S
C2035 C2039 1.393 . S
C2036 H2025 0.950 . S
C2036 C2034 1.391 . S
C2036 C2037 1.400 . S
C2037 C2031 1.491 . S
C2037 C2036 1.400 . S
C2037 C2038 1.398 . S
C2038 H2026 0.950 . S
C2038 C2037 1.398 . S
C2038 C2039 1.391 . S
C2039 H2027 0.950 . S
C2039 C2035 1.393 . S
C2039 C2038 1.391 . S
H2040 C2048 0.950 . S
H2041 C2053 0.950 . S
H2042 C2050 0.950 . S
H2043 C2052 0.950 . S
H2044 C2054 0.950 . S
H2045 C2056 0.950 . S
H2046 C2058 0.950 . S
H2047 C2059 0.950 . S
C2048 H2040 0.950 . S
C2048 C2049 1.386 . S
C2048 C2050 1.391 . S
C2049 C2048 1.386 . S
C2049 C2053 1.393 . S
C2050 H2042 0.950 . S
C2050 C2048 1.391 . S
C2050 C2051 1.400 . S
C2051 C2050 1.400 . S
C2051 C2052 1.398 . S
C2051 C2057 1.491 . S
C2052 H2043 0.950 . S
C2052 C2051 1.398 . S
C2052 C2053 1.391 . S
C2053 H2041 0.950 . S
C2053 C2049 1.393 . S
C2053 C2052 1.391 . S
C2054 H2044 0.950 . S
C2054 C2055 1.386 . S
C2054 C2056 1.391 . S
C2055 C2054 1.386 . S
C2055 C2059 1.393 . S
C2056 H2045 0.950 . S
C2056 C2054 1.391 . S
C2056 C2057 1.400 . S
C2057 C2051 1.491 . S
C2057 C2056 1.400 . S
C2057 C2058 1.398 . S
C2058 H2046 0.950 . S
C2058 C2057 1.398 . S
C2058 C2059 1.391 . S
C2059 H2047 0.950 . S
C2059 C2055 1.393 . S
C2059 C2058 1.391 . S
H2060 C2068 0.950 . S
H2061 C2073 0.950 . S
H2062 C2070 0.950 . S
H2063 C2072 0.950 . S
H2064 C2074 0.950 . S
H2065 C2076 0.950 . S
H2066 C2078 0.950 . S
H2067 C2079 0.950 . S
C2068 H2060 0.950 . S
C2068 C2069 1.386 . S
C2068 C2070 1.391 . S
C2069 C2068 1.386 . S
C2069 C2073 1.393 . S
C2070 H2062 0.950 . S
C2070 C2068 1.391 . S
C2070 C2071 1.400 . S
C2071 C2070 1.400 . S
C2071 C2072 1.398 . S
C2071 C2077 1.491 . S
C2072 H2063 0.950 . S
C2072 C2071 1.398 . S
C2072 C2073 1.391 . S
C2073 H2061 0.950 . S
C2073 C2069 1.393 . S
C2073 C2072 1.391 . S
C2074 H2064 0.950 . S
C2074 C2075 1.386 . S
C2074 C2076 1.391 . S
C2075 C2074 1.386 . S
C2075 C2079 1.393 . S
C2076 H2065 0.950 . S
C2076 C2074 1.391 . S
C2076 C2077 1.400 . S
C2077 C2071 1.491 . S
C2077 C2076 1.400 . S
C2077 C2078 1.398 . S
C2078 H2066 0.950 . S
C2078 C2077 1.398 . S
C2078 C2079 1.391 . S
C2079 H2067 0.950 . S
C2079 C2075 1.393 . S
C2079 C2078 1.391 . S
H2080 C2088 0.950 . S
H2081 C2093 0.950 . S
H2082 C2090 0.950 . S
H2083 C2092 0.950 . S
H2084 C2094 0.950 . S
H2085 C2096 0.950 . S
H2086 C2098 0.950 . S
H2087 C2099 0.950 . S
C2088 H2080 0.950 . S
C2088 C2089 1.386 . S
C2088 C2090 1.391 . S
C2089 C2088 1.386 . S
C2089 C2093 1.393 . S
C2090 H2082 0.950 . S
C2090 C2088 1.391 . S
C2090 C2091 1.400 . S
C2091 C2090 1.400 . S
C2091 C2092 1.398 . S
C2091 C2097 1.491 . S
C2092 H2083 0.950 . S
C2092 C2091 1.398 . S
C2092 C2093 1.391 . S
C2093 H2081 0.950 . S
C2093 C2089 1.393 . S
C2093 C2092 1.391 . S
C2094 H2084 0.950 . S
C2094 C2095 1.386 . S
C2094 C2096 1.391 . S
C2095 C2094 1.386 . S
C2095 C2099 1.393 . S
C2096 H2085 0.950 . S
C2096 C2094 1.391 . S
C2096 C2097 1.400 . S
C2097 C2091 1.491 . S
C2097 C2096 1.400 . S
C2097 C2098 1.398 . S
C2098 H2086 0.950 . S
C2098 C2097 1.398 . S
C2098 C2099 1.391 . S
C2099 H2087 0.950 . S
C2099 C2095 1.393 . S
C2099 C2098 1.391 . S
H2100 C2108 0.950 . S
H2101 C2113 0.950 . S
H2102 C2110 0.950 . S
H2103 C2112 0.950 . S
H2104 C2114 0.950 . S
H2105 C2116 0.950 . S
H2106 C2118 0.950 . S
H2107 C2119 0.950 . S
C2108 H2100 0.950 . S
C2108 C2109 1.386 . S
C2108 C2110 1.391 . S
C2109 C2108 1.386 . S
C2109 C2113 1.393 . S
C2110 H2102 0.950 . S
C2110 C2108 1.391 . S
C2110 C2111 1.400 . S
C2111 C2110 1.400 . S
C2111 C2112 1.398 . S
C2111 C2117 1.491 . S
C2112 H2103 0.950 . S
C2112 C2111 1.398 . S
C2112 C2113 1.391 . S
C2113 H2101 0.950 . S
C2113 C2109 1.393 . S
C2113 C2112 1.391 . S
C2114 H2104 0.950 . S
C2114 C2115 1.386 . S
C2114 C2116 1.391 . S
C2115 C2114 1.386 . S
C2115 C2119 1.393 . S
C2116 H2105 0.950 . S
C2116 C2114 1.391 . S
C2116 C2117 1.400 . S
C2117 C2111 1.491 . S
C2117 C2116 1.400 . S
C2117 C2118 1.398 . S
C2118 H2106 0.950 . S
C2118 C2117 1.398 . S
C2118 C2119 1.391 . S
C2119 H2107 0.950 . S
C2119 C2115 1.393 . S
C2119 C2118 1.391 . S
H2120 C2128 0.950 . S
H2121 C2133 0.950 . S
H2122 C2130 0.950 . S
H2123 C2132 0.950 . S
H2124 C2134 0.950 . S
H2125 C2136 0.950 . S
H2126 C2138 0.950 . S
H2127 C2139 0.950 . S
C2128 H2120 0.950 . S
C2128 C2129 1.386 . S
C2128 C2130 1.391 . S
C2129 C2128 1.386 . S
C2129 C2133 1.393 . S
C2130 H2122 0.950 . S
C2130 C2128 1.391 . S
C2130 C2131 1.400 . S
C2131 C2130 1.400 . S
C2131 C2132 1.398 . S
C2131 C2137 1.491 . S
C2132 H2123 0.950 . S
C2132 C2131 1.398 . S
C2132 C2133 1.391 . S
C2133 H2121 0.950 . S
C2133 C2129 1.393 . S
C2133 C2132 1.391 . S
C2134 H2124 0.950 . S
C2134 C2135 1.386 . S
C2134 C2136 1.391 . S
C2135 C2134 1.386 . S
C2135 C2139 1.393 . S
C2136 H2125 0.950 . S
C2136 C2134 1.391 . S
C2136 C2137 1.400 . S
C2137 C2131 1.491 . S
C2137 C2136 1.400 . S
C2137 C2138 1.398 . S
C2138 H2126 0.950 . S
C2138 C2137 1.398 . S
C2138 C2139 1.391 . S
C2139 H2127 0.950 . S
C2139 C2135 1.393 . S
C2139 C2138 1.391 . S
H2140 C2148 0.950 . S
H2141 C2153 0.950 . S
H2142 C2150 0.950 . S
H2143 C2152 0.950 . S
H2144 C2154 0.950 . S
H2145 C2156 0.950 . S
H2146 C2158 0.950 . S
H2147 C2159 0.950 . S
C2148 H2140 0.950 . S
C2148 C2149 1.386 . S
C2148 C2150 1.391 . S
C2149 C2148 1.386 . S
C2149 C2153 1.393 . S
C2150 H2142 0.950 . S
C2150 C2148 1.391 . S
C2150 C2151 1.400 . S
C2151 C2150 1.400 . S
C2151 C2152 1.398 . S
C2151 C2157 1.491 . S
C2152 H2143 0.950 . S
C2152 C2151 1.398 . S
C2152 C2153 1.391 . S
C2153 H2141 0.950 . S
C2153 C2149 1.393 . S
C2153 C2152 1.391 . S
C2154 H2144 0.950 . S
C2154 C2155 1.386 . S
C2154 C2156 1.391 . S
C2155 C2154 1.386 . S
C2155 C2159 1.393 . S
C2156 H2145 0.950 . S
C2156 C2154 1.391 . S
C2156 C2157 1.400 . S
C2157 C2151 1.491 . S
C2157 C2156 1.400 . S
C2157 C2158 1.398 . S
C2158 H2146 0.950 . S
C2158 C2157 1.398 . S
C2158 C2159 1.391 . S
C2159 H2147 0.950 . S
C2159 C2155 1.393 . S
C2159 C2158 1.391 . S
H2160 C2168 0.950 . S
H2161 C2173 0.950 . S
H2162 C2170 0.950 . S
H2163 C2172 0.950 . S
H2164 C2174 0.950 . S
H2165 C2176 0.950 . S
H2166 C2178 0.950 . S
H2167 C2179 0.950 . S
C2168 H2160 0.950 . S
C2168 C2169 1.386 . S
C2168 C2170 1.391 . S
C2169 C2168 1.386 . S
C2169 C2173 1.393 . S
C2170 H2162 0.950 . S
C2170 C2168 1.391 . S
C2170 C2171 1.400 . S
C2171 C2170 1.400 . S
C2171 C2172 1.398 . S
C2171 C2177 1.491 . S
C2172 H2163 0.950 . S
C2172 C2171 1.398 . S
C2172 C2173 1.391 . S
C2173 H2161 0.950 . S
C2173 C2169 1.393 . S
C2173 C2172 1.391 . S
C2174 H2164 0.950 . S
C2174 C2175 1.386 . S
C2174 C2176 1.391 . S
C2175 C2174 1.386 . S
C2175 C2179 1.393 . S
C2176 H2165 0.950 . S
C2176 C2174 1.391 . S
C2176 C2177 1.400 . S
C2177 C2171 1.491 . S
C2177 C2176 1.400 . S
C2177 C2178 1.398 . S
C2178 H2166 0.950 . S
C2178 C2177 1.398 . S
C2178 C2179 1.391 . S
C2179 H2167 0.950 . S
C2179 C2175 1.393 . S
C2179 C2178 1.391 . S
H2180 C2188 0.950 . S
H2181 C2193 0.950 . S
H2182 C2190 0.950 . S
H2183 C2192 0.950 . S
H2184 C2194 0.950 . S
H2185 C2196 0.950 . S
H2186 C2198 0.950 . S
H2187 C2199 0.950 . S
C2188 H2180 0.950 . S
C2188 C2189 1.386 . S
C2188 C2190 1.391 . S
C2189 C2188 1.386 . S
C2189 C2193 1.393 . S
C2190 H2182 0.950 . S
C2190 C2188 1.391 . S
C2190 C2191 1.400 . S
C2191 C2190 1.400 . S
C2191 C2192 1.398 . S
C2191 C2197 1.491 . S
C2192 H2183 0.950 . S
C2192 C2191 1.398 . S
C2192 C2193 1.391 . S
C2193 H2181 0.950 . S
C2193 C2189 1.393 . S
C2193 C2192 1.391 . S
C2194 H2184 0.950 . S
C2194 C2195 1.386 . S
C2194 C2196 1.391 . S
C2195 C2194 1.386 . S
C2195 C2199 1.393 . S
C2196 H2185 0.950 . S
C2196 C2194 1.391 . S
C2196 C2197 1.400 . S
C2197 C2191 1.491 . S
C2197 C2196 1.400 . S
C2197 C2198 1.398 . S
C2198 H2186 0.950 . S
C2198 C2197 1.398 . S
C2198 C2199 1.391 . S
C2199 H2187 0.950 . S
C2199 C2195 1.393 . S
C2199 C2198 1.391 . S
H2200 C2208 0.950 . S
H2201 C2213 0.950 . S
H2202 C2210 0.950 . S
H2203 C2212 0.950 . S
H2204 C2214 0.950 . S
H2205 C2216 0.950 . S
H2206 C2218 0.950 . S
H2207 C2219 0.950 . S
C2208 H2200 0.950 . S
C2208 C2209 1.386 . S
C2208 C2210 1.391 . S
C2209 C2208 1.386 . S
C2209 C2213 1.393 . S
C2210 H2202 0.950 . S
C2210 C2208 1.391 . S
C2210 C2211 1.400 . S
C2211 C2210 1.400 . S
C2211 C2212 1.398 . S
C2211 C2217 1.491 . S
C2212 H2203 0.950 . S
C2212 C2211 1.398 . S
C2212 C2213 1.391 . S
C2213 H2201 0.950 . S
C2213 C2209 1.393 . S
C2213 C2212 1.391 . S
C2214 H2204 0.950 . S
C2214 C2215 1.386 . S
C2214 C2216 1.391 . S
C2215 C2214 1.386 . S
C2215 C2219 1.393 . S
C2216 H2205 0.950 . S
C2216 C2214 1.391 . S
C2216 C2217 1.400 . S
C2217 C2211 1.491 . S
C2217 C2216 1.400 . S
C2217 C2218 1.398 . S
C2218 H2206 0.950 . S
C2218 C2217 1.398 . S
C2218 C2219 1.391 . S
C2219 H2207 0.950 . S
C2219 C2215 1.393 . S
C2219 C2218 1.391 . S
H2220 C2228 0.950 . S
H2221 C2233 0.950 . S
H2222 C2230 0.950 . S
H2223 C2232 0.950 . S
H2224 C2234 0.950 . S
H2225 C2236 0.950 . S
H2226 C2238 0.950 . S
H2227 C2239 0.950 . S
C2228 H2220 0.950 . S
C2228 C2229 1.386 . S
C2228 C2230 1.391 . S
C2229 C2228 1.386 . S
C2229 C2233 1.393 . S
C2230 H2222 0.950 . S
C2230 C2228 1.391 . S
C2230 C2231 1.400 . S
C2231 C2230 1.400 . S
C2231 C2232 1.398 . S
C2231 C2237 1.491 . S
C2232 H2223 0.950 . S
C2232 C2231 1.398 . S
C2232 C2233 1.391 . S
C2233 H2221 0.950 . S
C2233 C2229 1.393 . S
C2233 C2232 1.391 . S
C2234 H2224 0.950 . S
C2234 C2235 1.386 . S
C2234 C2236 1.391 . S
C2235 C2234 1.386 . S
C2235 C2239 1.393 . S
C2236 H2225 0.950 . S
C2236 C2234 1.391 . S
C2236 C2237 1.400 . S
C2237 C2231 1.491 . S
C2237 C2236 1.400 . S
C2237 C2238 1.398 . S
C2238 H2226 0.950 . S
C2238 C2237 1.398 . S
C2238 C2239 1.391 . S
C2239 H2227 0.950 . S
C2239 C2235 1.393 . S
C2239 C2238 1.391 . S
H2240 C2248 0.950 . S
H2241 C2253 0.950 . S
H2242 C2250 0.950 . S
H2243 C2252 0.950 . S
H2244 C2254 0.950 . S
H2245 C2256 0.950 . S
H2246 C2258 0.950 . S
H2247 C2259 0.950 . S
C2248 H2240 0.950 . S
C2248 C2249 1.386 . S
C2248 C2250 1.391 . S
C2249 C2248 1.386 . S
C2249 C2253 1.393 . S
C2250 H2242 0.950 . S
C2250 C2248 1.391 . S
C2250 C2251 1.400 . S
C2251 C2250 1.400 . S
C2251 C2252 1.398 . S
C2251 C2257 1.491 . S
C2252 H2243 0.950 . S
C2252 C2251 1.398 . S
C2252 C2253 1.391 . S
C2253 H2241 0.950 . S
C2253 C2249 1.393 . S
C2253 C2252 1.391 . S
C2254 H2244 0.950 . S
C2254 C2255 1.386 . S
C2254 C2256 1.391 . S
C2255 C2254 1.386 . S
C2255 C2259 1.393 . S
C2256 H2245 0.950 . S
C2256 C2254 1.391 . S
C2256 C2257 1.400 . S
C2257 C2251 1.491 . S
C2257 C2256 1.400 . S
C2257 C2258 1.398 . S
C2258 H2246 0.950 . S
C2258 C2257 1.398 . S
C2258 C2259 1.391 . S
C2259 H2247 0.950 . S
C2259 C2255 1.393 . S
C2259 C2258 1.391 . S
H2260 C2268 0.950 . S
H2261 C2273 0.950 . S
H2262 C2270 0.950 . S
H2263 C2272 0.950 . S
H2264 C2274 0.950 . S
H2265 C2276 0.950 . S
H2266 C2278 0.950 . S
H2267 C2279 0.950 . S
C2268 H2260 0.950 . S
C2268 C2269 1.386 . S
C2268 C2270 1.391 . S
C2269 C2268 1.386 . S
C2269 C2273 1.393 . S
C2270 H2262 0.950 . S
C2270 C2268 1.391 . S
C2270 C2271 1.400 . S
C2271 C2270 1.400 . S
C2271 C2272 1.398 . S
C2271 C2277 1.491 . S
C2272 H2263 0.950 . S
C2272 C2271 1.398 . S
C2272 C2273 1.391 . S
C2273 H2261 0.950 . S
C2273 C2269 1.393 . S
C2273 C2272 1.391 . S
C2274 H2264 0.950 . S
C2274 C2275 1.386 . S
C2274 C2276 1.391 . S
C2275 C2274 1.386 . S
C2275 C2279 1.393 . S
C2276 H2265 0.950 . S
C2276 C2274 1.391 . S
C2276 C2277 1.400 . S
C2277 C2271 1.491 . S
C2277 C2276 1.400 . S
C2277 C2278 1.398 . S
C2278 H2266 0.950 . S
C2278 C2277 1.398 . S
C2278 C2279 1.391 . S
C2279 H2267 0.950 . S
C2279 C2275 1.393 . S
C2279 C2278 1.391 . S
H2280 C2288 0.950 . S
H2281 C2293 0.950 . S
H2282 C2290 0.950 . S
H2283 C2292 0.950 . S
H2284 C2294 0.950 . S
H2285 C2296 0.950 . S
H2286 C2298 0.950 . S
H2287 C2299 0.950 . S
C2288 H2280 0.950 . S
C2288 C2289 1.386 . S
C2288 C2290 1.391 . S
C2289 C2288 1.386 . S
C2289 C2293 1.393 . S
C2290 H2282 0.950 . S
C2290 C2288 1.391 . S
C2290 C2291 1.400 . S
C2291 C2290 1.400 . S
C2291 C2292 1.398 . S
C2291 C2297 1.491 . S
C2292 H2283 0.950 . S
C2292 C2291 1.398 . S
C2292 C2293 1.391 . S
C2293 H2281 0.950 . S
C2293 C2289 1.393 . S
C2293 C2292 1.391 . S
C2294 H2284 0.950 . S
C2294 C2295 1.386 . S
C2294 C2296 1.391 . S
C2295 C2294 1.386 . S
C2295 C2299 1.393 . S
C2296 H2285 0.950 . S
C2296 C2294 1.391 . S
C2296 C2297 1.400 . S
C2297 C2291 1.491 . S
C2297 C2296 1.400 . S
C2297 C2298 1.398 . S
C2298 H2286 0.950 . S
C2298 C2297 1.398 . S
C2298 C2299 1.391 . S
C2299 H2287 0.950 . S
C2299 C2295 1.393 . S
C2299 C2298 1.391 . S
H2300 C2308 0.950 . S
H2301 C2313 0.950 . S
H2302 C2310 0.950 . S
H2303 C2312 0.950 . S
H2304 C2314 0.950 . S
H2305 C2316 0.950 . S
H2306 C2318 0.950 . S
H2307 C2319 0.950 . S
C2308 H2300 0.950 . S
C2308 C2309 1.386 . S
C2308 C2310 1.391 . S
C2309 C2308 1.386 . S
C2309 C2313 1.393 . S
C2310 H2302 0.950 . S
C2310 C2308 1.391 . S
C2310 C2311 1.400 . S
C2311 C2310 1.400 . S
C2311 C2312 1.398 . S
C2311 C2317 1.491 . S
C2312 H2303 0.950 . S
C2312 C2311 1.398 . S
C2312 C2313 1.391 . S
C2313 H2301 0.950 . S
C2313 C2309 1.393 . S
C2313 C2312 1.391 . S
C2314 H2304 0.950 . S
C2314 C2315 1.386 . S
C2314 C2316 1.391 . S
C2315 C2314 1.386 . S
C2315 C2319 1.393 . S
C2316 H2305 0.950 . S
C2316 C2314 1.391 . S
C2316 C2317 1.400 . S
C2317 C2311 1.491 . S
C2317 C2316 1.400 . S
C2317 C2318 1.398 . S
C2318 H2306 0.950 . S
C2318 C2317 1.398 . S
C2318 C2319 1.391 . S
C2319 H2307 0.950 . S
C2319 C2315 1.393 . S
C2319 C2318 1.391 . S
H2320 C2328 0.950 . S
H2321 C2333 0.950 . S
H2322 C2330 0.950 . S
H2323 C2332 0.950 . S
H2324 C2334 0.950 . S
H2325 C2336 0.950 . S
H2326 C2338 0.950 . S
H2327 C2339 0.950 . S
C2328 H2320 0.950 . S
C2328 C2329 1.386 . S
C2328 C2330 1.391 . S
C2329 C2328 1.386 . S
C2329 C2333 1.393 . S
C2330 H2322 0.950 . S
C2330 C2328 1.391 . S
C2330 C2331 1.400 . S
C2331 C2330 1.400 . S
C2331 C2332 1.398 . S
C2331 C2337 1.491 . S
C2332 H2323 0.950 . S
C2332 C2331 1.398 . S
C2332 C2333 1.391 . S
C2333 H2321 0.950 . S
C2333 C2329 1.393 . S
C2333 C2332 1.391 . S
C2334 H2324 0.950 . S
C2334 C2335 1.386 . S
C2334 C2336 1.391 . S
C2335 C2334 1.386 . S
C2335 C2339 1.393 . S
C2336 H2325 0.950 . S
C2336 C2334 1.391 . S
C2336 C2337 1.400 . S
C2337 C2331 1.491 . S
C2337 C2336 1.400 . S
C2337 C2338 1.398 . S
C2338 H2326 0.950 . S
C2338 C2337 1.398 . S
C2338 C2339 1.391 . S
C2339 H2327 0.950 . S
C2339 C2335 1.393 . S
C2339 C2338 1.391 . S
H2340 C2348 0.950 . S
H2341 C2353 0.950 . S
H2342 C2350 0.950 . S
H2343 C2352 0.950 . S
H2344 C2354 0.950 . S
H2345 C2356 0.950 . S
H2346 C2358 0.950 . S
H2347 C2359 0.950 . S
C2348 H2340 0.950 . S
C2348 C2349 1.386 . S
C2348 C2350 1.391 . S
C2349 C2348 1.386 . S
C2349 C2353 1.393 . S
C2350 H2342 0.950 . S
C2350 C2348 1.391 . S
C2350 C2351 1.400 . S
C2351 C2350 1.400 . S
C2351 C2352 1.398 . S
C2351 C2357 1.491 . S
C2352 H2343 0.950 . S
C2352 C2351 1.398 . S
C2352 C2353 1.391 . S
C2353 H2341 0.950 . S
C2353 C2349 1.393 . S
C2353 C2352 1.391 . S
C2354 H2344 0.950 . S
C2354 C2355 1.386 . S
C2354 C2356 1.391 . S
C2355 C2354 1.386 . S
C2355 C2359 1.393 . S
C2356 H2345 0.950 . S
C2356 C2354 1.391 . S
C2356 C2357 1.400 . S
C2357 C2351 1.491 . S
C2357 C2356 1.400 . S
C2357 C2358 1.398 . S
C2358 H2346 0.950 . S
C2358 C2357 1.398 . S
C2358 C2359 1.391 . S
C2359 H2347 0.950 . S
C2359 C2355 1.393 . S
C2359 C2358 1.391 . S
H2360 C2368 0.950 . S
H2361 C2373 0.950 . S
H2362 C2370 0.950 . S
H2363 C2372 0.950 . S
H2364 C2374 0.950 . S
H2365 C2376 0.950 . S
H2366 C2378 0.950 . S
H2367 C2379 0.950 . S
C2368 H2360 0.950 . S
C2368 C2369 1.386 . S
C2368 C2370 1.391 . S
C2369 C2368 1.386 . S
C2369 C2373 1.393 . S
C2370 H2362 0.950 . S
C2370 C2368 1.391 . S
C2370 C2371 1.400 . S
C2371 C2370 1.400 . S
C2371 C2372 1.398 . S
C2371 C2377 1.491 . S
C2372 H2363 0.950 . S
C2372 C2371 1.398 . S
C2372 C2373 1.391 . S
C2373 H2361 0.950 . S
C2373 C2369 1.393 . S
C2373 C2372 1.391 . S
C2374 H2364 0.950 . S
C2374 C2375 1.386 . S
C2374 C2376 1.391 . S
C2375 C2374 1.386 . S
C2375 C2379 1.393 . S
C2376 H2365 0.950 . S
C2376 C2374 1.391 . S
C2376 C2377 1.400 . S
C2377 C2371 1.491 . S
C2377 C2376 1.400 . S
C2377 C2378 1.398 . S
C2378 H2366 0.950 . S
C2378 C2377 1.398 . S
C2378 C2379 1.391 . S
C2379 H2367 0.950 . S
C2379 C2375 1.393 . S
C2379 C2378 1.391 . S
H2380 C2388 0.950 . S
H2381 C2393 0.950 . S
H2382 C2390 0.950 . S
H2383 C2392 0.950 . S
H2384 C2394 0.950 . S
H2385 C2396 0.950 . S
H2386 C2398 0.950 . S
H2387 C2399 0.950 . S
C2388 H2380 0.950 . S
C2388 C2389 1.386 . S
C2388 C2390 1.391 . S
C2389 C2388 1.386 . S
C2389 C2393 1.393 . S
C2390 H2382 0.950 . S
C2390 C2388 1.391 . S
C2390 C2391 1.400 . S
C2391 C2390 1.400 . S
C2391 C2392 1.398 . S
C2391 C2397 1.491 . S
C2392 H2383 0.950 . S
C2392 C2391 1.398 . S
C2392 C2393 1.391 . S
C2393 H2381 0.950 . S
C2393 C2389 1.393 . S
C2393 C2392 1.391 . S
C2394 H2384 0.950 . S
C2394 C2395 1.386 . S
C2394 C2396 1.391 . S
C2395 C2394 1.386 . S
C2395 C2399 1.393 . S
C2396 H2385 0.950 . S
C2396 C2394 1.391 . S
C2396 C2397 1.400 . S
C2397 C2391 1.491 . S
C2397 C2396 1.400 . S
C2397 C2398 1.398 . S
C2398 H2386 0.950 . S
C2398 C2397 1.398 . S
C2398 C2399 1.391 . S
C2399 H2387 0.950 . S
C2399 C2395 1.393 . S
C2399 C2398 1.391 . S
H2400 C2408 0.950 . S
H2401 C2413 0.950 . S
H2402 C2410 0.950 . S
H2403 C2412 0.950 . S
H2404 C2414 0.950 . S
H2405 C2416 0.950 . S
H2406 C2418 0.950 . S
H2407 C2419 0.950 . S
C2408 H2400 0.950 . S
C2408 C2409 1.386 1_565 S
C2408 C2410 1.391 . S
C2409 C2408 1.386 1_545 S
C2409 C2413 1.393 . S
C2410 H2402 0.950 . S
C2410 C2408 1.391 . S
C2410 C2411 1.400 . S
C2411 C2410 1.400 . S
C2411 C2412 1.398 1_565 S
C2411 C2417 1.491 . S
C2412 H2403 0.950 . S
C2412 C2411 1.398 1_545 S
C2412 C2413 1.391 . S
C2413 H2401 0.950 . S
C2413 C2409 1.393 . S
C2413 C2412 1.391 . S
C2414 H2404 0.950 . S
C2414 C2415 1.386 1_545 S
C2414 C2416 1.391 . S
C2415 C2414 1.386 1_565 S
C2415 C2419 1.393 . S
C2416 H2405 0.950 . S
C2416 C2414 1.391 . S
C2416 C2417 1.400 1_545 S
C2417 C2411 1.491 . S
C2417 C2416 1.400 1_565 S
C2417 C2418 1.398 . S
C2418 H2406 0.950 . S
C2418 C2417 1.398 . S
C2418 C2419 1.391 . S
C2419 H2407 0.950 . S
C2419 C2415 1.393 . S
C2419 C2418 1.391 . S
H2420 C2428 0.950 . S
H2421 C2433 0.950 . S
H2422 C2430 0.950 . S
H2423 C2432 0.950 . S
H2424 C2434 0.950 . S
H2425 C2436 0.950 . S
H2426 C2438 0.950 . S
H2427 C2439 0.950 . S
C2428 H2420 0.950 . S
C2428 C2429 1.386 . S
C2428 C2430 1.391 . S
C2429 C2428 1.386 . S
C2429 C2433 1.393 . S
C2430 H2422 0.950 . S
C2430 C2428 1.391 . S
C2430 C2431 1.400 . S
C2431 C2430 1.400 . S
C2431 C2432 1.398 . S
C2431 C2437 1.491 . S
C2432 H2423 0.950 . S
C2432 C2431 1.398 . S
C2432 C2433 1.391 . S
C2433 H2421 0.950 . S
C2433 C2429 1.393 . S
C2433 C2432 1.391 . S
C2434 H2424 0.950 . S
C2434 C2435 1.386 . S
C2434 C2436 1.391 . S
C2435 C2434 1.386 . S
C2435 C2439 1.393 . S
C2436 H2425 0.950 . S
C2436 C2434 1.391 . S
C2436 C2437 1.400 . S
C2437 C2431 1.491 . S
C2437 C2436 1.400 . S
C2437 C2438 1.398 . S
C2438 H2426 0.950 . S
C2438 C2437 1.398 . S
C2438 C2439 1.391 . S
C2439 H2427 0.950 . S
C2439 C2435 1.393 . S
C2439 C2438 1.391 . S
H2440 C2448 0.950 . S
H2441 C2453 0.950 . S
H2442 C2450 0.950 . S
H2443 C2452 0.950 . S
H2444 C2454 0.950 . S
H2445 C2456 0.950 . S
H2446 C2458 0.950 . S
H2447 C2459 0.950 . S
C2448 H2440 0.950 . S
C2448 C2449 1.386 . S
C2448 C2450 1.391 . S
C2449 C2448 1.386 . S
C2449 C2453 1.393 . S
C2450 H2442 0.950 . S
C2450 C2448 1.391 . S
C2450 C2451 1.400 . S
C2451 C2450 1.400 . S
C2451 C2452 1.398 . S
C2451 C2457 1.491 . S
C2452 H2443 0.950 . S
C2452 C2451 1.398 . S
C2452 C2453 1.391 . S
C2453 H2441 0.950 . S
C2453 C2449 1.393 . S
C2453 C2452 1.391 . S
C2454 H2444 0.950 . S
C2454 C2455 1.386 . S
C2454 C2456 1.391 . S
C2455 C2454 1.386 . S
C2455 C2459 1.393 . S
C2456 H2445 0.950 . S
C2456 C2454 1.391 . S
C2456 C2457 1.400 . S
C2457 C2451 1.491 . S
C2457 C2456 1.400 . S
C2457 C2458 1.398 . S
C2458 H2446 0.950 . S
C2458 C2457 1.398 . S
C2458 C2459 1.391 . S
C2459 H2447 0.950 . S
C2459 C2455 1.393 . S
C2459 C2458 1.391 . S
H2460 C2468 0.950 . S
H2461 C2473 0.950 . S
H2462 C2470 0.954 . S
H2463 C2472 0.950 . S
H2464 C2474 0.950 . S
H2465 C2476 0.950 . S
H2466 C2478 0.950 . S
H2467 C2479 0.950 . S
C2468 H2460 0.950 . S
C2468 C2469 1.386 . S
C2468 C2470 1.384 1_545 S
C2469 C2468 1.386 . S
C2469 C2473 1.393 . S
C2470 H2462 0.954 . S
C2470 C2468 1.384 1_565 S
C2470 C2471 1.407 . S
C2471 C2470 1.407 . S
C2471 C2472 1.398 . S
C2471 C2477 1.491 . S
C2472 H2463 0.950 . S
C2472 C2471 1.398 . S
C2472 C2473 1.391 1_565 S
C2473 H2461 0.950 . S
C2473 C2469 1.393 . S
C2473 C2472 1.391 1_545 S
C2474 H2464 0.950 . S
C2474 C2475 1.386 . S
C2474 C2476 1.391 . S
C2475 C2474 1.386 . S
C2475 C2479 1.393 . S
C2476 H2465 0.950 . S
C2476 C2474 1.391 . S
C2476 C2477 1.400 . S
C2477 C2471 1.491 . S
C2477 C2476 1.400 . S
C2477 C2478 1.398 . S
C2478 H2466 0.950 . S
C2478 C2477 1.398 . S
C2478 C2479 1.391 . S
C2479 H2467 0.950 . S
C2479 C2475 1.393 . S
C2479 C2478 1.391 . S
H2480 C2488 0.950 . S
H2481 C2493 0.950 . S
H2482 C2490 0.950 . S
H2483 C2492 0.950 . S
H2484 C2494 0.950 . S
H2485 C2496 0.950 . S
H2486 C2498 0.950 . S
H2487 C2499 0.950 . S
C2488 H2480 0.950 . S
C2488 C2489 1.386 . S
C2488 C2490 1.391 1_565 S
C2489 C2488 1.386 . S
C2489 C2493 1.393 . S
C2490 H2482 0.950 . S
C2490 C2488 1.391 1_545 S
C2490 C2491 1.400 . S
C2491 C2490 1.400 . S
C2491 C2492 1.398 . S
C2491 C2497 1.491 . S
C2492 H2483 0.950 . S
C2492 C2491 1.398 . S
C2492 C2493 1.391 1_545 S
C2493 H2481 0.950 . S
C2493 C2489 1.393 . S
C2493 C2492 1.391 1_565 S
C2494 H2484 0.950 . S
C2494 C2495 1.386 . S
C2494 C2496 1.391 . S
C2495 C2494 1.386 . S
C2495 C2499 1.393 . S
C2496 H2485 0.950 . S
C2496 C2494 1.391 . S
C2496 C2497 1.400 . S
C2497 C2491 1.491 . S
C2497 C2496 1.400 . S
C2497 C2498 1.398 . S
C2498 H2486 0.950 . S
C2498 C2497 1.398 . S
C2498 C2499 1.391 . S
C2499 H2487 0.950 . S
C2499 C2495 1.393 . S
C2499 C2498 1.391 . S
H2500 C2508 0.950 . S
H2501 C2513 0.950 . S
H2502 C2510 0.950 . S
H2503 C2512 0.950 . S
H2504 C2514 0.950 . S
H2505 C2516 0.950 . S
H2506 C2518 0.950 . S
H2507 C2519 0.950 . S
C2508 H2500 0.950 . S
C2508 C2509 1.386 . S
C2508 C2510 1.391 . S
C2509 C2508 1.386 . S
C2509 C2513 1.393 . S
C2510 H2502 0.950 . S
C2510 C2508 1.391 . S
C2510 C2511 1.400 . S
C2511 C2510 1.400 . S
C2511 C2512 1.398 . S
C2511 C2517 1.491 . S
C2512 H2503 0.950 . S
C2512 C2511 1.398 . S
C2512 C2513 1.391 . S
C2513 H2501 0.950 . S
C2513 C2509 1.393 . S
C2513 C2512 1.391 . S
C2514 H2504 0.950 . S
C2514 C2515 1.386 . S
C2514 C2516 1.391 . S
C2515 C2514 1.386 . S
C2515 C2519 1.393 . S
C2516 H2505 0.950 . S
C2516 C2514 1.391 . S
C2516 C2517 1.400 . S
C2517 C2511 1.491 . S
C2517 C2516 1.400 . S
C2517 C2518 1.398 . S
C2518 H2506 0.950 . S
C2518 C2517 1.398 . S
C2518 C2519 1.391 . S
C2519 H2507 0.950 . S
C2519 C2515 1.393 . S
C2519 C2518 1.391 . S
H2520 C2528 0.950 . S
H2521 C2533 0.950 . S
H2522 C2530 0.950 . S
H2523 C2532 0.950 . S
H2524 C2534 0.950 . S
H2525 C2536 0.950 . S
H2526 C2538 0.950 . S
H2527 C2539 0.950 . S
C2528 H2520 0.950 . S
C2528 C2529 1.386 . S
C2528 C2530 1.391 . S
C2529 C2528 1.386 . S
C2529 C2533 1.393 . S
C2530 H2522 0.950 . S
C2530 C2528 1.391 . S
C2530 C2531 1.400 . S
C2531 C2530 1.400 . S
C2531 C2532 1.398 . S
C2531 C2537 1.491 . S
C2532 H2523 0.950 . S
C2532 C2531 1.398 . S
C2532 C2533 1.391 . S
C2533 H2521 0.950 . S
C2533 C2529 1.393 . S
C2533 C2532 1.391 . S
C2534 H2524 0.950 . S
C2534 C2535 1.386 . S
C2534 C2536 1.391 . S
C2535 C2534 1.386 . S
C2535 C2539 1.393 . S
C2536 H2525 0.950 . S
C2536 C2534 1.391 . S
C2536 C2537 1.400 . S
C2537 C2531 1.491 . S
C2537 C2536 1.400 . S
C2537 C2538 1.398 . S
C2538 H2526 0.950 . S
C2538 C2537 1.398 . S
C2538 C2539 1.391 . S
C2539 H2527 0.950 . S
C2539 C2535 1.393 . S
C2539 C2538 1.391 . S
H2540 C2548 0.950 . S
H2541 C2553 0.950 . S
H2542 C2550 0.950 . S
H2543 C2552 0.950 . S
H2544 C2554 0.950 . S
H2545 C2556 0.950 . S
H2546 C2558 0.950 . S
H2547 C2559 0.950 . S
C2548 H2540 0.950 . S
C2548 C2549 1.386 . S
C2548 C2550 1.395 . S
C2549 C2548 1.386 . S
C2549 C2553 1.394 . S
C2550 H2542 0.950 . S
C2550 C2548 1.395 . S
C2550 C2551 1.396 1_565 S
C2551 C2550 1.396 1_545 S
C2551 C2552 1.398 . S
C2551 C2557 1.491 . S
C2552 H2543 0.950 . S
C2552 C2551 1.398 . S
C2552 C2553 1.389 1_545 S
C2553 H2541 0.950 . S
C2553 C2549 1.394 . S
C2553 C2552 1.389 1_565 S
C2554 H2544 0.950 . S
C2554 C2555 1.386 . S
C2554 C2556 1.391 . S
C2555 C2554 1.386 . S
C2555 C2559 1.393 . S
C2556 H2545 0.950 . S
C2556 C2554 1.391 . S
C2556 C2557 1.400 . S
C2557 C2551 1.491 . S
C2557 C2556 1.400 . S
C2557 C2558 1.398 . S
C2558 H2546 0.950 . S
C2558 C2557 1.398 . S
C2558 C2559 1.391 . S
C2559 H2547 0.950 . S
C2559 C2555 1.393 . S
C2559 C2558 1.391 . S
H2560 C2568 0.950 . S
H2561 C2573 0.950 . S
H2562 C2570 0.950 . S
H2563 C2572 0.950 . S
H2564 C2574 0.950 . S
H2565 C2576 0.950 1_455 S
H2566 C2578 0.950 . S
H2567 C2579 0.950 . S
C2568 H2560 0.950 . S
C2568 C2569 1.386 . S
C2568 C2570 1.391 . S
C2569 C2568 1.386 . S
C2569 C2573 1.393 . S
C2570 H2562 0.950 . S
C2570 C2568 1.391 . S
C2570 C2571 1.400 . S
C2571 C2570 1.400 . S
C2571 C2572 1.398 . S
C2571 C2577 1.491 . S
C2572 H2563 0.950 . S
C2572 C2571 1.398 . S
C2572 C2573 1.391 . S
C2573 H2561 0.950 . S
C2573 C2569 1.393 . S
C2573 C2572 1.391 . S
C2574 H2564 0.950 . S
C2574 C2575 1.386 . S
C2574 C2576 1.391 . S
C2575 C2574 1.386 . S
C2575 C2579 1.393 . S
C2576 H2565 0.950 1_655 S
C2576 C2574 1.391 . S
C2576 C2577 1.400 1_655 S
C2577 C2571 1.491 . S
C2577 C2576 1.400 1_455 S
C2577 C2578 1.398 1_455 S
C2578 H2566 0.950 . S
C2578 C2577 1.398 1_655 S
C2578 C2579 1.391 . S
C2579 H2567 0.950 . S
C2579 C2575 1.393 . S
C2579 C2578 1.391 . S
H2580 C2588 0.950 . S
H2581 C2593 0.950 . S
H2582 C2590 0.950 . S
H2583 C2592 0.950 . S
H2584 C2594 0.950 . S
H2585 C2596 0.950 . S
H2586 C2598 0.950 . S
H2587 C2599 0.950 . S
C2588 H2580 0.950 . S
C2588 C2589 1.386 . S
C2588 C2590 1.391 . S
C2589 C2588 1.386 . S
C2589 C2593 1.393 . S
C2590 H2582 0.950 . S
C2590 C2588 1.391 . S
C2590 C2591 1.400 . S
C2591 C2590 1.400 . S
C2591 C2592 1.398 . S
C2591 C2597 1.491 . S
C2592 H2583 0.950 . S
C2592 C2591 1.398 . S
C2592 C2593 1.391 . S
C2593 H2581 0.950 . S
C2593 C2589 1.393 . S
C2593 C2592 1.391 . S
C2594 H2584 0.950 . S
C2594 C2595 1.386 . S
C2594 C2596 1.391 . S
C2595 C2594 1.386 . S
C2595 C2599 1.393 . S
C2596 H2585 0.950 . S
C2596 C2594 1.391 . S
C2596 C2597 1.400 . S
C2597 C2591 1.491 . S
C2597 C2596 1.400 . S
C2597 C2598 1.398 . S
C2598 H2586 0.950 . S
C2598 C2597 1.398 . S
C2598 C2599 1.391 . S
C2599 H2587 0.950 . S
C2599 C2595 1.393 . S
C2599 C2598 1.391 . S
H2600 C2608 0.950 . S
H2601 C2613 0.950 . S
H2602 C2610 0.950 . S
H2603 C2612 0.950 1_455 S
H2604 C2614 0.950 . S
H2605 C2616 0.950 . S
H2606 C2618 0.950 . S
H2607 C2619 0.950 . S
C2608 H2600 0.950 . S
C2608 C2609 1.386 . S
C2608 C2610 1.391 . S
C2609 C2608 1.386 . S
C2609 C2613 1.393 . S
C2610 H2602 0.950 . S
C2610 C2608 1.391 . S
C2610 C2611 1.400 1_655 S
C2611 C2610 1.400 1_455 S
C2611 C2612 1.398 1_455 S
C2611 C2617 1.491 . S
C2612 H2603 0.950 1_655 S
C2612 C2611 1.398 1_655 S
C2612 C2613 1.391 . S
C2613 H2601 0.950 . S
C2613 C2609 1.393 . S
C2613 C2612 1.391 . S
C2614 H2604 0.950 . S
C2614 C2615 1.386 . S
C2614 C2616 1.391 . S
C2615 C2614 1.386 . S
C2615 C2619 1.393 . S
C2616 H2605 0.950 . S
C2616 C2614 1.391 . S
C2616 C2617 1.400 . S
C2617 C2611 1.491 . S
C2617 C2616 1.400 . S
C2617 C2618 1.398 . S
C2618 H2606 0.950 . S
C2618 C2617 1.398 . S
C2618 C2619 1.391 . S
C2619 H2607 0.950 . S
C2619 C2615 1.393 . S
C2619 C2618 1.391 . S
H2620 C2628 0.950 . S
H2621 C2633 0.950 . S
H2622 C2630 0.950 . S
H2623 C2632 0.950 . S
H2624 C2634 0.950 . S
H2625 C2636 0.950 . S
H2626 C2638 0.950 . S
H2627 C2639 0.950 . S
C2628 H2620 0.950 . S
C2628 C2629 1.386 . S
C2628 C2630 1.391 . S
C2629 C2628 1.386 . S
C2629 C2633 1.393 . S
C2630 H2622 0.950 . S
C2630 C2628 1.391 . S
C2630 C2631 1.400 . S
C2631 C2630 1.400 . S
C2631 C2632 1.398 . S
C2631 C2637 1.491 . S
C2632 H2623 0.950 . S
C2632 C2631 1.398 . S
C2632 C2633 1.391 . S
C2633 H2621 0.950 . S
C2633 C2629 1.393 . S
C2633 C2632 1.391 . S
C2634 H2624 0.950 . S
C2634 C2635 1.386 . S
C2634 C2636 1.391 . S
C2635 C2634 1.386 . S
C2635 C2639 1.393 . S
C2636 H2625 0.950 . S
C2636 C2634 1.391 . S
C2636 C2637 1.400 . S
C2637 C2631 1.491 . S
C2637 C2636 1.400 . S
C2637 C2638 1.398 . S
C2638 H2626 0.950 . S
C2638 C2637 1.398 . S
C2638 C2639 1.391 . S
C2639 H2627 0.950 . S
C2639 C2635 1.393 . S
C2639 C2638 1.391 . S
H2640 C2648 0.950 . S
H2641 C2653 0.950 . S
H2642 C2650 0.950 . S
H2643 C2652 0.950 . S
H2644 C2654 0.950 . S
H2645 C2656 0.950 . S
H2646 C2658 0.950 1_655 S
H2647 C2659 0.950 . S
C2648 H2640 0.950 . S
C2648 C2649 1.386 . S
C2648 C2650 1.391 . S
C2649 C2648 1.386 . S
C2649 C2653 1.393 . S
C2650 H2642 0.950 . S
C2650 C2648 1.391 . S
C2650 C2651 1.400 . S
C2651 C2650 1.400 . S
C2651 C2652 1.398 . S
C2651 C2657 1.491 . S
C2652 H2643 0.950 . S
C2652 C2651 1.398 . S
C2652 C2653 1.391 . S
C2653 H2641 0.950 . S
C2653 C2649 1.393 . S
C2653 C2652 1.391 . S
C2654 H2644 0.950 . S
C2654 C2655 1.386 . S
C2654 C2656 1.391 . S
C2655 C2654 1.386 . S
C2655 C2659 1.393 . S
C2656 H2645 0.950 . S
C2656 C2654 1.391 . S
C2656 C2657 1.400 1_455 S
C2657 C2651 1.491 . S
C2657 C2656 1.400 1_655 S
C2657 C2658 1.398 1_655 S
C2658 H2646 0.950 1_455 S
C2658 C2657 1.398 1_455 S
C2658 C2659 1.391 . S
C2659 H2647 0.950 . S
C2659 C2655 1.393 . S
C2659 C2658 1.391 . S
H2660 C2668 0.950 . S
H2661 C2673 0.950 . S
H2662 C2670 0.950 . S
H2663 C2672 0.950 . S
H2664 C2674 0.950 . S
H2665 C2676 0.950 . S
H2666 C2678 0.950 . S
H2667 C2679 0.950 . S
C2668 H2660 0.950 . S
C2668 C2669 1.386 . S
C2668 C2670 1.391 . S
C2669 C2668 1.386 . S
C2669 C2673 1.393 . S
C2670 H2662 0.950 . S
C2670 C2668 1.391 . S
C2670 C2671 1.400 . S
C2671 C2670 1.400 . S
C2671 C2672 1.398 . S
C2671 C2677 1.491 . S
C2672 H2663 0.950 . S
C2672 C2671 1.398 . S
C2672 C2673 1.391 . S
C2673 H2661 0.950 . S
C2673 C2669 1.393 . S
C2673 C2672 1.391 . S
C2674 H2664 0.950 . S
C2674 C2675 1.386 . S
C2674 C2676 1.391 . S
C2675 C2674 1.386 . S
C2675 C2679 1.393 . S
C2676 H2665 0.950 . S
C2676 C2674 1.391 . S
C2676 C2677 1.400 . S
C2677 C2671 1.491 . S
C2677 C2676 1.400 . S
C2677 C2678 1.398 . S
C2678 H2666 0.950 . S
C2678 C2677 1.398 . S
C2678 C2679 1.391 . S
C2679 H2667 0.950 . S
C2679 C2675 1.393 . S
C2679 C2678 1.391 . S
H2680 C2688 0.950 . S
H2681 C2693 0.950 . S
H2682 C2690 0.950 1_655 S
H2683 C2692 0.950 . S
H2684 C2694 0.950 . S
H2685 C2696 0.950 . S
H2686 C2698 0.950 . S
H2687 C2699 0.950 . S
C2688 H2680 0.950 . S
C2688 C2689 1.386 . S
C2688 C2690 1.391 . S
C2689 C2688 1.386 . S
C2689 C2693 1.393 . S
C2690 H2682 0.950 1_455 S
C2690 C2688 1.391 . S
C2690 C2691 1.400 1_455 S
C2691 C2690 1.400 1_655 S
C2691 C2692 1.398 1_655 S
C2691 C2697 1.491 . S
C2692 H2683 0.950 . S
C2692 C2691 1.398 1_455 S
C2692 C2693 1.391 . S
C2693 H2681 0.950 . S
C2693 C2689 1.393 . S
C2693 C2692 1.391 . S
C2694 H2684 0.950 . S
C2694 C2695 1.386 . S
C2694 C2696 1.391 . S
C2695 C2694 1.386 . S
C2695 C2699 1.393 . S
C2696 H2685 0.950 . S
C2696 C2694 1.391 . S
C2696 C2697 1.400 . S
C2697 C2691 1.491 . S
C2697 C2696 1.400 . S
C2697 C2698 1.398 . S
C2698 H2686 0.950 . S
C2698 C2697 1.398 . S
C2698 C2699 1.391 . S
C2699 H2687 0.950 . S
C2699 C2695 1.393 . S
C2699 C2698 1.391 . S
H2700 C2708 0.950 . S
H2701 C2713 0.950 . S
H2702 C2710 0.950 . S
H2703 C2712 0.950 . S
H2704 C2714 0.950 . S
H2705 C2716 0.950 . S
H2706 C2718 0.950 . S
H2707 C2719 0.950 . S
C2708 H2700 0.950 . S
C2708 C2709 1.386 . S
C2708 C2710 1.391 . S
C2709 C2708 1.386 . S
C2709 C2713 1.393 . S
C2710 H2702 0.950 . S
C2710 C2708 1.391 . S
C2710 C2711 1.400 . S
C2711 C2710 1.400 . S
C2711 C2712 1.398 . S
C2711 C2717 1.491 . S
C2712 H2703 0.950 . S
C2712 C2711 1.398 . S
C2712 C2713 1.391 . S
C2713 H2701 0.950 . S
C2713 C2709 1.393 . S
C2713 C2712 1.391 . S
C2714 H2704 0.950 . S
C2714 C2715 1.386 . S
C2714 C2716 1.391 . S
C2715 C2714 1.386 . S
C2715 C2719 1.393 . S
C2716 H2705 0.950 . S
C2716 C2714 1.391 . S
C2716 C2717 1.400 . S
C2717 C2711 1.491 . S
C2717 C2716 1.400 . S
C2717 C2718 1.398 . S
C2718 H2706 0.950 . S
C2718 C2717 1.398 . S
C2718 C2719 1.391 . S
C2719 H2707 0.950 . S
C2719 C2715 1.393 . S
C2719 C2718 1.391 . S
H2720 C2728 0.950 . S
H2721 C2733 0.950 . S
H2722 C2730 0.950 . S
H2723 C2732 0.950 1_455 S
H2724 C2734 0.950 . S
H2725 C2736 0.950 . S
H2726 C2738 0.950 . S
H2727 C2739 0.950 . S
C2728 H2720 0.950 . S
C2728 C2729 1.386 1_565 S
C2728 C2730 1.391 . S
C2729 C2728 1.386 1_545 S
C2729 C2733 1.393 . S
C2730 H2722 0.950 . S
C2730 C2728 1.391 . S
C2730 C2731 1.400 1_655 S
C2731 C2730 1.400 1_455 S
C2731 C2732 1.398 1_465 S
C2731 C2737 1.491 . S
C2732 H2723 0.950 1_655 S
C2732 C2731 1.398 1_645 S
C2732 C2733 1.391 . S
C2733 H2721 0.950 . S
C2733 C2729 1.393 . S
C2733 C2732 1.391 . S
C2734 H2724 0.950 . S
C2734 C2735 1.386 1_545 S
C2734 C2736 1.391 . S
C2735 C2734 1.386 1_565 S
C2735 C2739 1.393 . S
C2736 H2725 0.950 . S
C2736 C2734 1.391 . S
C2736 C2737 1.400 1_545 S
C2737 C2731 1.491 . S
C2737 C2736 1.400 1_565 S
C2737 C2738 1.398 . S
C2738 H2726 0.950 . S
C2738 C2737 1.398 . S
C2738 C2739 1.391 . S
C2739 H2727 0.950 . S
C2739 C2735 1.393 . S
C2739 C2738 1.391 . S
H2740 C2748 0.950 . S
H2741 C2753 0.950 . S
H2742 C2750 0.950 . S
H2743 C2752 0.950 . S
H2744 C2754 0.950 . S
H2745 C2756 0.950 . S
H2746 C2758 0.950 . S
H2747 C2759 0.950 . S
C2748 H2740 0.950 . S
C2748 C2749 1.386 . S
C2748 C2750 1.391 . S
C2749 C2748 1.386 . S
C2749 C2753 1.393 . S
C2750 H2742 0.950 . S
C2750 C2748 1.391 . S
C2750 C2751 1.400 . S
C2751 C2750 1.400 . S
C2751 C2752 1.398 . S
C2751 C2757 1.491 . S
C2752 H2743 0.950 . S
C2752 C2751 1.398 . S
C2752 C2753 1.391 . S
C2753 H2741 0.950 . S
C2753 C2749 1.393 . S
C2753 C2752 1.391 . S
C2754 H2744 0.950 . S
C2754 C2755 1.386 . S
C2754 C2756 1.391 . S
C2755 C2754 1.386 . S
C2755 C2759 1.393 . S
C2756 H2745 0.950 . S
C2756 C2754 1.391 . S
C2756 C2757 1.400 . S
C2757 C2751 1.491 . S
C2757 C2756 1.400 . S
C2757 C2758 1.398 . S
C2758 H2746 0.950 . S
C2758 C2757 1.398 . S
C2758 C2759 1.391 . S
C2759 H2747 0.950 . S
C2759 C2755 1.393 . S
C2759 C2758 1.391 . S
H2760 C2768 0.950 . S
H2761 C2773 0.950 . S
H2762 C2770 0.950 1_455 S
H2763 C2772 0.950 . S
H2764 C2774 0.950 . S
H2765 C2776 0.950 . S
H2766 C2778 0.950 . S
H2767 C2779 0.950 . S
C2768 H2760 0.950 . S
C2768 C2769 1.386 . S
C2768 C2770 1.391 . S
C2769 C2768 1.386 . S
C2769 C2773 1.393 . S
C2770 H2762 0.950 1_655 S
C2770 C2768 1.391 . S
C2770 C2771 1.400 1_655 S
C2771 C2770 1.400 1_455 S
C2771 C2772 1.398 1_455 S
C2771 C2777 1.491 . S
C2772 H2763 0.950 . S
C2772 C2771 1.398 1_655 S
C2772 C2773 1.391 . S
C2773 H2761 0.950 . S
C2773 C2769 1.393 . S
C2773 C2772 1.391 . S
C2774 H2764 0.950 . S
C2774 C2775 1.386 . S
C2774 C2776 1.391 . S
C2775 C2774 1.386 . S
C2775 C2779 1.393 . S
C2776 H2765 0.950 . S
C2776 C2774 1.391 . S
C2776 C2777 1.400 . S
C2777 C2771 1.491 . S
C2777 C2776 1.400 . S
C2777 C2778 1.398 . S
C2778 H2766 0.950 . S
C2778 C2777 1.398 . S
C2778 C2779 1.391 . S
C2779 H2767 0.950 . S
C2779 C2775 1.393 . S
C2779 C2778 1.391 . S
H2780 C2788 0.950 . S
H2781 C2793 0.950 . S
H2782 C2790 0.950 . S
H2783 C2792 0.950 . S
H2784 C2794 0.950 . S
H2785 C2796 0.950 . S
H2786 C2798 0.950 . S
H2787 C2799 0.950 . S
C2788 H2780 0.950 . S
C2788 C2789 1.386 1_565 S
C2788 C2790 1.391 . S
C2789 C2788 1.386 1_545 S
C2789 C2793 1.393 . S
C2790 H2782 0.950 . S
C2790 C2788 1.391 . S
C2790 C2791 1.400 . S
C2791 C2790 1.400 . S
C2791 C2792 1.398 1_565 S
C2791 C2797 1.491 . S
C2792 H2783 0.950 . S
C2792 C2791 1.398 1_545 S
C2792 C2793 1.391 . S
C2793 H2781 0.950 . S
C2793 C2789 1.393 . S
C2793 C2792 1.391 . S
C2794 H2784 0.950 . S
C2794 C2795 1.386 1_545 S
C2794 C2796 1.391 . S
C2795 C2794 1.386 1_565 S
C2795 C2799 1.393 . S
C2796 H2785 0.950 . S
C2796 C2794 1.391 . S
C2796 C2797 1.400 1_545 S
C2797 C2791 1.491 . S
C2797 C2796 1.400 1_565 S
C2797 C2798 1.398 . S
C2798 H2786 0.950 . S
C2798 C2797 1.398 . S
C2798 C2799 1.391 . S
C2799 H2787 0.950 . S
C2799 C2795 1.393 . S
C2799 C2798 1.391 . S
H2800 C2808 0.950 . S
H2801 C2813 0.950 . S
H2802 C2810 0.950 . S
H2803 C2812 0.950 . S
H2804 C2814 0.950 . S
H2805 C2816 0.950 1_655 S
H2806 C2818 0.950 . S
H2807 C2819 0.950 . S
C2808 H2800 0.950 . S
C2808 C2809 1.386 . S
C2808 C2810 1.391 . S
C2809 C2808 1.386 . S
C2809 C2813 1.393 1_545 S
C2810 H2802 0.950 . S
C2810 C2808 1.391 . S
C2810 C2811 1.400 . S
C2811 C2810 1.400 . S
C2811 C2812 1.398 1_545 S
C2811 C2817 1.491 . S
C2812 H2803 0.950 . S
C2812 C2811 1.398 1_565 S
C2812 C2813 1.391 . S
C2813 H2801 0.950 . S
C2813 C2809 1.393 1_565 S
C2813 C2812 1.391 . S
C2814 H2804 0.950 . S
C2814 C2815 1.386 . S
C2814 C2816 1.391 . S
C2815 C2814 1.386 . S
C2815 C2819 1.393 1_565 S
C2816 H2805 0.950 1_455 S
C2816 C2814 1.391 . S
C2816 C2817 1.400 1_465 S
C2817 C2811 1.491 . S
C2817 C2816 1.400 1_645 S
C2817 C2818 1.398 1_655 S
C2818 H2806 0.950 . S
C2818 C2817 1.398 1_455 S
C2818 C2819 1.391 . S
C2819 H2807 0.950 . S
C2819 C2815 1.393 1_545 S
C2819 C2818 1.391 . S
H2820 C2828 0.950 . S
H2821 C2833 0.950 . S
H2822 C2830 0.950 . S
H2823 C2832 0.950 . S
H2824 C2834 0.950 . S
H2825 C2836 0.950 . S
H2826 C2838 0.950 . S
H2827 C2839 0.950 . S
C2828 H2820 0.950 . S
C2828 C2829 1.386 . S
C2828 C2830 1.391 . S
C2829 C2828 1.386 . S
C2829 C2833 1.393 . S
C2830 H2822 0.950 . S
C2830 C2828 1.391 . S
C2830 C2831 1.400 . S
C2831 C2830 1.400 . S
C2831 C2832 1.398 . S
C2831 C2837 1.491 . S
C2832 H2823 0.950 . S
C2832 C2831 1.398 . S
C2832 C2833 1.391 . S
C2833 H2821 0.950 . S
C2833 C2829 1.393 . S
C2833 C2832 1.391 . S
C2834 H2824 0.950 . S
C2834 C2835 1.386 . S
C2834 C2836 1.391 . S
C2835 C2834 1.386 . S
C2835 C2839 1.393 . S
C2836 H2825 0.950 . S
C2836 C2834 1.391 . S
C2836 C2837 1.400 . S
C2837 C2831 1.491 . S
C2837 C2836 1.400 . S
C2837 C2838 1.398 . S
C2838 H2826 0.950 . S
C2838 C2837 1.398 . S
C2838 C2839 1.391 . S
C2839 H2827 0.950 . S
C2839 C2835 1.393 . S
C2839 C2838 1.391 . S
H2840 C2848 0.950 . S
H2841 C2853 0.950 . S
H2842 C2850 0.950 . S
H2843 C2852 0.950 1_655 S
H2844 C2854 0.950 . S
H2845 C2856 0.950 . S
H2846 C2858 0.950 . S
H2847 C2859 0.950 . S
C2848 H2840 0.950 . S
C2848 C2849 1.386 . S
C2848 C2850 1.391 . S
C2849 C2848 1.386 . S
C2849 C2853 1.393 . S
C2850 H2842 0.950 . S
C2850 C2848 1.391 . S
C2850 C2851 1.400 1_455 S
C2851 C2850 1.400 1_655 S
C2851 C2852 1.398 1_655 S
C2851 C2857 1.491 . S
C2852 H2843 0.950 1_455 S
C2852 C2851 1.398 1_455 S
C2852 C2853 1.391 . S
C2853 H2841 0.950 . S
C2853 C2849 1.393 . S
C2853 C2852 1.391 . S
C2854 H2844 0.950 . S
C2854 C2855 1.386 . S
C2854 C2856 1.391 . S
C2855 C2854 1.386 . S
C2855 C2859 1.393 . S
C2856 H2845 0.950 . S
C2856 C2854 1.391 . S
C2856 C2857 1.400 . S
C2857 C2851 1.491 . S
C2857 C2856 1.400 . S
C2857 C2858 1.398 . S
C2858 H2846 0.950 . S
C2858 C2857 1.398 . S
C2858 C2859 1.391 . S
C2859 H2847 0.950 . S
C2859 C2855 1.393 . S
C2859 C2858 1.391 . S
H2860 C2868 0.950 . S
H2861 C2873 0.950 . S
H2862 C2870 0.950 . S
H2863 C2872 0.950 . S
H2864 C2874 0.950 . S
H2865 C2876 0.950 . S
H2866 C2878 0.956 . S
H2867 C2879 0.950 1_565 S
C2868 H2860 0.950 . S
C2868 C2869 1.386 . S
C2868 C2870 1.391 . S
C2869 C2868 1.386 . S
C2869 C2873 1.393 1_565 S
C2870 H2862 0.950 . S
C2870 C2868 1.391 . S
C2870 C2871 1.400 1_565 S
C2871 C2870 1.400 1_545 S
C2871 C2872 1.398 . S
C2871 C2877 1.491 . S
C2872 H2863 0.950 . S
C2872 C2871 1.398 . S
C2872 C2873 1.391 . S
C2873 H2861 0.950 . S
C2873 C2869 1.393 1_545 S
C2873 C2872 1.391 . S
C2874 H2864 0.950 . S
C2874 C2875 1.386 . S
C2874 C2876 1.391 . S
C2875 C2874 1.386 . S
C2875 C2879 1.393 . S
C2876 H2865 0.950 . S
C2876 C2874 1.391 . S
C2876 C2877 1.400 . S
C2877 C2871 1.491 . S
C2877 C2876 1.400 . S
C2877 C2878 1.395 1_545 S
C2878 H2866 0.956 . S
C2878 C2877 1.395 1_565 S
C2878 C2879 1.389 1_565 S
C2879 H2867 0.950 1_545 S
C2879 C2875 1.393 . S
C2879 C2878 1.389 1_545 S
H2880 C2888 0.950 . S
H2881 C2893 0.950 . S
H2882 C2890 0.950 . S
H2883 C2892 0.950 . S
H2884 C2894 0.950 . S
H2885 C2896 0.950 . S
H2886 C2898 0.950 . S
H2887 C2899 0.950 . S
C2888 H2880 0.950 . S
C2888 C2889 1.386 . S
C2888 C2890 1.391 . S
C2889 C2888 1.386 . S
C2889 C2893 1.393 1_455 S
C2890 H2882 0.950 . S
C2890 C2888 1.391 . S
C2890 C2891 1.400 . S
C2891 C2890 1.400 . S
C2891 C2892 1.398 1_455 S
C2891 C2897 1.491 1_454 S
C2892 H2883 0.950 . S
C2892 C2891 1.398 1_655 S
C2892 C2893 1.391 . S
C2893 H2881 0.950 . S
C2893 C2889 1.393 1_655 S
C2893 C2892 1.391 . S
C2894 H2884 0.950 . S
C2894 C2895 1.386 . S
C2894 C2896 1.391 . S
C2895 C2894 1.386 . S
C2895 C2899 1.393 1_655 S
C2896 H2885 0.950 . S
C2896 C2894 1.391 . S
C2896 C2897 1.400 . S
C2897 C2891 1.491 1_656 S
C2897 C2896 1.400 . S
C2897 C2898 1.398 1_655 S
C2898 H2886 0.950 . S
C2898 C2897 1.398 1_455 S
C2898 C2899 1.391 . S
C2899 H2887 0.950 . S
C2899 C2895 1.393 1_455 S
C2899 C2898 1.391 . S
H2900 C2908 0.950 . S
H2901 C2913 0.950 . S
H2902 C2910 0.950 . S
H2903 C2912 0.950 . S
H2904 C2914 0.950 . S
H2905 C2916 0.950 . S
H2906 C2918 0.950 . S
H2907 C2919 0.950 . S
C2908 H2900 0.950 . S
C2908 C2909 1.386 . S
C2908 C2910 1.391 . S
C2909 C2908 1.386 . S
C2909 C2913 1.393 . S
C2910 H2902 0.950 . S
C2910 C2908 1.391 . S
C2910 C2911 1.400 . S
C2911 C2910 1.400 . S
C2911 C2912 1.398 . S
C2911 C2917 1.491 1_556 S
C2912 H2903 0.950 . S
C2912 C2911 1.398 . S
C2912 C2913 1.391 . S
C2913 H2901 0.950 . S
C2913 C2909 1.393 . S
C2913 C2912 1.391 . S
C2914 H2904 0.950 . S
C2914 C2915 1.386 . S
C2914 C2916 1.391 . S
C2915 C2914 1.386 . S
C2915 C2919 1.393 . S
C2916 H2905 0.950 . S
C2916 C2914 1.391 . S
C2916 C2917 1.400 . S
C2917 C2911 1.491 1_554 S
C2917 C2916 1.400 . S
C2917 C2918 1.398 . S
C2918 H2906 0.950 . S
C2918 C2917 1.398 . S
C2918 C2919 1.391 . S
C2919 H2907 0.950 . S
C2919 C2915 1.393 . S
C2919 C2918 1.391 . S
H2920 C2928 0.950 . S
H2921 C2933 0.950 . S
H2922 C2930 0.950 . S
H2923 C2932 0.950 . S
H2924 C2934 0.950 . S
H2925 C2936 0.950 . S
H2926 C2938 0.950 . S
H2927 C2939 0.950 . S
C2928 H2920 0.950 . S
C2928 C2929 1.386 . S
C2928 C2930 1.391 . S
C2929 C2928 1.386 . S
C2929 C2933 1.393 1_655 S
C2930 H2922 0.950 . S
C2930 C2928 1.391 . S
C2930 C2931 1.400 . S
C2931 C2930 1.400 . S
C2931 C2932 1.398 1_655 S
C2931 C2937 1.491 1_655 S
C2932 H2923 0.950 . S
C2932 C2931 1.398 1_455 S
C2932 C2933 1.391 . S
C2933 H2921 0.950 . S
C2933 C2929 1.393 1_455 S
C2933 C2932 1.391 . S
C2934 H2924 0.950 . S
C2934 C2935 1.386 . S
C2934 C2936 1.391 . S
C2935 C2934 1.386 . S
C2935 C2939 1.393 1_455 S
C2936 H2925 0.950 . S
C2936 C2934 1.391 . S
C2936 C2937 1.400 . S
C2937 C2931 1.491 1_455 S
C2937 C2936 1.400 . S
C2937 C2938 1.398 1_455 S
C2938 H2926 0.950 . S
C2938 C2937 1.398 1_655 S
C2938 C2939 1.391 . S
C2939 H2927 0.950 . S
C2939 C2935 1.393 1_655 S
C2939 C2938 1.391 . S
H2940 C2948 0.950 . S
H2941 C2953 0.950 . S
H2942 C2950 0.950 . S
H2943 C2952 0.950 . S
H2944 C2954 0.950 . S
H2945 C2956 0.950 . S
H2946 C2958 0.950 . S
H2947 C2959 0.950 . S
C2948 H2940 0.950 . S
C2948 C2949 1.386 . S
C2948 C2950 1.391 . S
C2949 C2948 1.386 . S
C2949 C2953 1.393 . S
C2950 H2942 0.950 . S
C2950 C2948 1.391 . S
C2950 C2951 1.400 . S
C2951 C2950 1.400 . S
C2951 C2952 1.398 . S
C2951 C2957 1.491 . S
C2952 H2943 0.950 . S
C2952 C2951 1.398 . S
C2952 C2953 1.391 . S
C2953 H2941 0.950 . S
C2953 C2949 1.393 . S
C2953 C2952 1.391 . S
C2954 H2944 0.950 . S
C2954 C2955 1.386 . S
C2954 C2956 1.391 . S
C2955 C2954 1.386 . S
C2955 C2959 1.393 . S
C2956 H2945 0.950 . S
C2956 C2954 1.391 . S
C2956 C2957 1.400 . S
C2957 C2951 1.491 . S
C2957 C2956 1.400 . S
C2957 C2958 1.398 . S
C2958 H2946 0.950 . S
C2958 C2957 1.398 . S
C2958 C2959 1.391 . S
C2959 H2947 0.950 . S
C2959 C2955 1.393 . S
C2959 C2958 1.391 . S
H2960 C2968 0.950 . S
H2961 C2973 0.950 . S
H2962 C2970 0.950 . S
H2963 C2972 0.950 . S
H2964 C2974 0.950 . S
H2965 C2976 0.950 . S
H2966 C2978 0.950 . S
H2967 C2979 0.950 . S
C2968 H2960 0.950 . S
C2968 C2969 1.386 . S
C2968 C2970 1.391 . S
C2969 C2968 1.386 . S
C2969 C2973 1.393 . S
C2970 H2962 0.950 . S
C2970 C2968 1.391 . S
C2970 C2971 1.400 . S
C2971 C2970 1.400 . S
C2971 C2972 1.398 . S
C2971 C2977 1.491 1_556 S
C2972 H2963 0.950 . S
C2972 C2971 1.398 . S
C2972 C2973 1.391 . S
C2973 H2961 0.950 . S
C2973 C2969 1.393 . S
C2973 C2972 1.391 . S
C2974 H2964 0.950 . S
C2974 C2975 1.386 . S
C2974 C2976 1.391 . S
C2975 C2974 1.386 . S
C2975 C2979 1.393 . S
C2976 H2965 0.950 . S
C2976 C2974 1.391 . S
C2976 C2977 1.400 . S
C2977 C2971 1.491 1_554 S
C2977 C2976 1.400 . S
C2977 C2978 1.398 . S
C2978 H2966 0.950 . S
C2978 C2977 1.398 . S
C2978 C2979 1.391 . S
C2979 H2967 0.950 . S
C2979 C2975 1.393 . S
C2979 C2978 1.391 . S
H2980 C2988 0.950 . S
H2981 C2993 0.950 . S
H2982 C2990 0.950 . S
H2983 C2992 0.950 . S
H2984 C2994 0.950 . S
H2985 C2996 0.950 . S
H2986 C2998 0.950 . S
H2987 C2999 0.950 . S
C2988 H2980 0.950 . S
C2988 C2989 1.386 1_455 S
C2988 C2990 1.391 . S
C2989 C2988 1.386 1_655 S
C2989 C2993 1.393 . S
C2990 H2982 0.950 . S
C2990 C2988 1.391 . S
C2990 C2991 1.400 1_455 S
C2991 C2990 1.400 1_655 S
C2991 C2992 1.398 . S
C2991 C2997 1.491 1_655 S
C2992 H2983 0.950 . S
C2992 C2991 1.398 . S
C2992 C2993 1.391 . S
C2993 H2981 0.950 . S
C2993 C2989 1.393 . S
C2993 C2992 1.391 . S
C2994 H2984 0.950 . S
C2994 C2995 1.386 1_655 S
C2994 C2996 1.391 . S
C2995 C2994 1.386 1_455 S
C2995 C2999 1.393 . S
C2996 H2985 0.950 . S
C2996 C2994 1.391 . S
C2996 C2997 1.400 1_655 S
C2997 C2991 1.491 1_455 S
C2997 C2996 1.400 1_455 S
C2997 C2998 1.398 . S
C2998 H2986 0.950 . S
C2998 C2997 1.398 . S
C2998 C2999 1.391 . S
C2999 H2987 0.950 . S
C2999 C2995 1.393 . S
C2999 C2998 1.391 . S
H3000 C3008 0.950 . S
H3001 C3013 0.950 . S
H3002 C3010 0.950 . S
H3003 C3012 0.950 . S
H3004 C3014 0.950 . S
H3005 C3016 0.950 . S
H3006 C3018 0.950 . S
H3007 C3019 0.950 . S
C3008 H3000 0.950 . S
C3008 C3009 1.386 . S
C3008 C3010 1.391 . S
C3009 C3008 1.386 . S
C3009 C3013 1.393 . S
C3010 H3002 0.950 . S
C3010 C3008 1.391 . S
C3010 C3011 1.400 . S
C3011 C3010 1.400 . S
C3011 C3012 1.398 . S
C3011 C3017 1.491 . S
C3012 H3003 0.950 . S
C3012 C3011 1.398 . S
C3012 C3013 1.391 . S
C3013 H3001 0.950 . S
C3013 C3009 1.393 . S
C3013 C3012 1.391 . S
C3014 H3004 0.950 . S
C3014 C3015 1.386 . S
C3014 C3016 1.391 . S
C3015 C3014 1.386 . S
C3015 C3019 1.393 . S
C3016 H3005 0.950 . S
C3016 C3014 1.391 . S
C3016 C3017 1.400 . S
C3017 C3011 1.491 . S
C3017 C3016 1.400 . S
C3017 C3018 1.398 . S
C3018 H3006 0.950 . S
C3018 C3017 1.398 . S
C3018 C3019 1.391 . S
C3019 H3007 0.950 . S
C3019 C3015 1.393 . S
C3019 C3018 1.391 . S
H3020 C3028 0.950 . S
H3021 C3033 0.950 . S
H3022 C3030 0.950 . S
H3023 C3032 0.950 . S
H3024 C3034 0.950 . S
H3025 C3036 0.950 . S
H3026 C3038 0.950 . S
H3027 C3039 0.950 . S
C3028 H3020 0.950 . S
C3028 C3029 1.386 1_545 S
C3028 C3030 1.391 . S
C3029 C3028 1.386 1_565 S
C3029 C3033 1.393 1_455 S
C3030 H3022 0.950 . S
C3030 C3028 1.391 . S
C3030 C3031 1.400 1_545 S
C3031 C3030 1.400 1_565 S
C3031 C3032 1.398 1_455 S
C3031 C3037 1.491 1_465 S
C3032 H3023 0.950 . S
C3032 C3031 1.398 1_655 S
C3032 C3033 1.391 . S
C3033 H3021 0.950 . S
C3033 C3029 1.393 1_655 S
C3033 C3032 1.391 . S
C3034 H3024 0.950 . S
C3034 C3035 1.386 1_565 S
C3034 C3036 1.391 . S
C3035 C3034 1.386 1_545 S
C3035 C3039 1.393 1_655 S
C3036 H3025 0.950 . S
C3036 C3034 1.391 . S
C3036 C3037 1.400 1_565 S
C3037 C3031 1.491 1_645 S
C3037 C3036 1.400 1_545 S
C3037 C3038 1.398 1_655 S
C3038 H3026 0.950 . S
C3038 C3037 1.398 1_455 S
C3038 C3039 1.391 . S
C3039 H3027 0.950 . S
C3039 C3035 1.393 1_455 S
C3039 C3038 1.391 . S
H3040 C3048 0.950 . S
H3041 C3053 0.950 . S
H3042 C3050 0.950 . S
H3043 C3052 0.950 . S
H3044 C3054 0.950 . S
H3045 C3056 0.950 . S
H3046 C3058 0.950 . S
H3047 C3059 0.950 . S
C3048 H3040 0.950 . S
C3048 C3049 1.386 . S
C3048 C3050 1.391 . S
C3049 C3048 1.386 . S
C3049 C3053 1.393 . S
C3050 H3042 0.950 . S
C3050 C3048 1.391 . S
C3050 C3051 1.400 . S
C3051 C3050 1.400 . S
C3051 C3052 1.398 . S
C3051 C3057 1.491 . S
C3052 H3043 0.950 . S
C3052 C3051 1.398 . S
C3052 C3053 1.391 . S
C3053 H3041 0.950 . S
C3053 C3049 1.393 . S
C3053 C3052 1.391 . S
C3054 H3044 0.950 . S
C3054 C3055 1.386 . S
C3054 C3056 1.391 . S
C3055 C3054 1.386 . S
C3055 C3059 1.393 . S
C3056 H3045 0.950 . S
C3056 C3054 1.391 . S
C3056 C3057 1.400 . S
C3057 C3051 1.491 . S
C3057 C3056 1.400 . S
C3057 C3058 1.398 . S
C3058 H3046 0.950 . S
C3058 C3057 1.398 . S
C3058 C3059 1.391 . S
C3059 H3047 0.950 . S
C3059 C3055 1.393 . S
C3059 C3058 1.391 . S
H3060 C3068 0.950 . S
H3061 C3073 0.950 . S
H3062 C3070 0.950 . S
H3063 C3072 0.950 . S
H3064 C3074 0.950 . S
H3065 C3076 0.950 . S
H3066 C3078 0.950 . S
H3067 C3079 0.950 . S
C3068 H3060 0.950 . S
C3068 C3069 1.386 . S
C3068 C3070 1.391 . S
C3069 C3068 1.386 . S
C3069 C3073 1.393 1_545 S
C3070 H3062 0.950 . S
C3070 C3068 1.391 . S
C3070 C3071 1.400 . S
C3071 C3070 1.400 . S
C3071 C3072 1.398 1_545 S
C3071 C3077 1.491 1_545 S
C3072 H3063 0.950 . S
C3072 C3071 1.398 1_565 S
C3072 C3073 1.391 . S
C3073 H3061 0.950 . S
C3073 C3069 1.393 1_565 S
C3073 C3072 1.391 . S
C3074 H3064 0.950 . S
C3074 C3075 1.386 . S
C3074 C3076 1.391 . S
C3075 C3074 1.386 . S
C3075 C3079 1.393 1_565 S
C3076 H3065 0.950 . S
C3076 C3074 1.391 . S
C3076 C3077 1.400 . S
C3077 C3071 1.491 1_565 S
C3077 C3076 1.400 . S
C3077 C3078 1.398 1_565 S
C3078 H3066 0.950 . S
C3078 C3077 1.398 1_545 S
C3078 C3079 1.391 . S
C3079 H3067 0.950 . S
C3079 C3075 1.393 1_545 S
C3079 C3078 1.391 . S
H3080 C3088 0.950 . S
H3081 C3093 0.950 . S
H3082 C3090 0.950 . S
H3083 C3092 0.950 . S
H3084 C3094 0.950 . S
H3085 C3096 0.950 . S
H3086 C3098 0.950 . S
H3087 C3099 0.950 . S
C3088 H3080 0.950 . S
C3088 C3089 1.386 . S
C3088 C3090 1.391 . S
C3089 C3088 1.386 . S
C3089 C3093 1.393 . S
C3090 H3082 0.950 . S
C3090 C3088 1.391 . S
C3090 C3091 1.400 . S
C3091 C3090 1.400 . S
C3091 C3092 1.398 . S
C3091 C3097 1.491 . S
C3092 H3083 0.950 . S
C3092 C3091 1.398 . S
C3092 C3093 1.391 . S
C3093 H3081 0.950 . S
C3093 C3089 1.393 . S
C3093 C3092 1.391 . S
C3094 H3084 0.950 . S
C3094 C3095 1.386 . S
C3094 C3096 1.391 . S
C3095 C3094 1.386 . S
C3095 C3099 1.393 . S
C3096 H3085 0.950 . S
C3096 C3094 1.391 . S
C3096 C3097 1.400 . S
C3097 C3091 1.491 . S
C3097 C3096 1.400 . S
C3097 C3098 1.398 . S
C3098 H3086 0.950 . S
C3098 C3097 1.398 . S
C3098 C3099 1.391 . S
C3099 H3087 0.950 . S
C3099 C3095 1.393 . S
C3099 C3098 1.391 . S
H3100 C3108 0.950 . S
H3101 C3113 0.950 . S
H3102 C3110 0.950 . S
H3103 C3112 0.950 . S
H3104 C3114 0.950 . S
H3105 C3116 0.950 . S
H3106 C3118 0.950 . S
H3107 C3119 0.950 . S
C3108 H3100 0.950 . S
C3108 C3109 1.386 1_545 S
C3108 C3110 1.391 . S
C3109 C3108 1.386 1_565 S
C3109 C3113 1.393 . S
C3110 H3102 0.950 . S
C3110 C3108 1.391 . S
C3110 C3111 1.399 1_545 S
C3111 C3110 1.399 1_565 S
C3111 C3112 1.400 . S
C3111 C3117 1.490 1_565 S
C3112 H3103 0.950 . S
C3112 C3111 1.400 . S
C3112 C3113 1.391 . S
C3113 H3101 0.950 . S
C3113 C3109 1.393 . S
C3113 C3112 1.391 . S
C3114 H3104 0.950 . S
C3114 C3115 1.386 1_565 S
C3114 C3116 1.391 . S
C3115 C3114 1.386 1_545 S
C3115 C3119 1.393 . S
C3116 H3105 0.950 . S
C3116 C3114 1.391 . S
C3116 C3117 1.399 1_565 S
C3117 C3111 1.490 1_545 S
C3117 C3116 1.399 1_545 S
C3117 C3118 1.400 . S
C3118 H3106 0.950 . S
C3118 C3117 1.400 . S
C3118 C3119 1.391 . S
C3119 H3107 0.950 . S
C3119 C3115 1.393 . S
C3119 C3118 1.391 . S
H3120 C3128 0.950 . S
H3121 C3133 0.950 . S
H3122 C3130 0.950 . S
H3123 C3132 0.950 . S
H3124 C3134 0.950 . S
H3125 C3136 0.950 . S
H3126 C3138 0.950 . S
H3127 C3139 0.950 . S
C3128 H3120 0.950 . S
C3128 C3129 1.386 . S
C3128 C3130 1.391 . S
C3129 C3128 1.386 . S
C3129 C3133 1.393 . S
C3130 H3122 0.950 . S
C3130 C3128 1.391 . S
C3130 C3131 1.400 . S
C3131 C3130 1.400 . S
C3131 C3132 1.398 . S
C3131 C3137 1.491 . S
C3132 H3123 0.950 . S
C3132 C3131 1.398 . S
C3132 C3133 1.391 . S
C3133 H3121 0.950 . S
C3133 C3129 1.393 . S
C3133 C3132 1.391 . S
C3134 H3124 0.950 . S
C3134 C3135 1.386 . S
C3134 C3136 1.391 . S
C3135 C3134 1.386 . S
C3135 C3139 1.393 . S
C3136 H3125 0.950 . S
C3136 C3134 1.391 . S
C3136 C3137 1.400 . S
C3137 C3131 1.491 . S
C3137 C3136 1.400 . S
C3137 C3138 1.398 . S
C3138 H3126 0.950 . S
C3138 C3137 1.398 . S
C3138 C3139 1.391 . S
C3139 H3127 0.950 . S
C3139 C3135 1.393 . S
C3139 C3138 1.391 . S
H3140 C3148 0.950 . S
H3141 C3153 0.950 . S
H3142 C3150 0.950 . S
H3143 C3152 0.950 . S
H3144 C3154 0.950 . S
H3145 C3156 0.950 . S
H3146 C3158 0.950 . S
H3147 C3159 0.950 . S
C3148 H3140 0.950 . S
C3148 C3149 1.386 . S
C3148 C3150 1.391 . S
C3149 C3148 1.386 . S
C3149 C3153 1.393 . S
C3150 H3142 0.950 . S
C3150 C3148 1.391 . S
C3150 C3151 1.400 . S
C3151 C3150 1.400 . S
C3151 C3152 1.398 . S
C3151 C3157 1.491 . S
C3152 H3143 0.950 . S
C3152 C3151 1.398 . S
C3152 C3153 1.391 . S
C3153 H3141 0.950 . S
C3153 C3149 1.393 . S
C3153 C3152 1.391 . S
C3154 H3144 0.950 . S
C3154 C3155 1.386 . S
C3154 C3156 1.391 . S
C3155 C3154 1.386 . S
C3155 C3159 1.393 . S
C3156 H3145 0.950 . S
C3156 C3154 1.391 . S
C3156 C3157 1.400 . S
C3157 C3151 1.491 . S
C3157 C3156 1.400 . S
C3157 C3158 1.398 . S
C3158 H3146 0.950 . S
C3158 C3157 1.398 . S
C3158 C3159 1.391 . S
C3159 H3147 0.950 . S
C3159 C3155 1.393 . S
C3159 C3158 1.391 . S
H3160 C3168 0.950 . S
H3161 C3173 0.950 . S
H3162 C3170 0.950 . S
H3163 C3172 0.950 . S
H3164 C3174 0.950 . S
H3165 C3176 0.950 . S
H3166 C3178 0.950 . S
H3167 C3179 0.950 . S
C3168 H3160 0.950 . S
C3168 C3169 1.386 . S
C3168 C3170 1.391 . S
C3169 C3168 1.386 . S
C3169 C3173 1.393 . S
C3170 H3162 0.950 . S
C3170 C3168 1.391 . S
C3170 C3171 1.400 . S
C3171 C3170 1.400 . S
C3171 C3172 1.398 . S
C3171 C3177 1.491 . S
C3172 H3163 0.950 . S
C3172 C3171 1.398 . S
C3172 C3173 1.391 . S
C3173 H3161 0.950 . S
C3173 C3169 1.393 . S
C3173 C3172 1.391 . S
C3174 H3164 0.950 . S
C3174 C3175 1.386 . S
C3174 C3176 1.391 . S
C3175 C3174 1.386 . S
C3175 C3179 1.393 . S
C3176 H3165 0.950 . S
C3176 C3174 1.391 . S
C3176 C3177 1.400 . S
C3177 C3171 1.491 . S
C3177 C3176 1.400 . S
C3177 C3178 1.398 . S
C3178 H3166 0.950 . S
C3178 C3177 1.398 . S
C3178 C3179 1.391 . S
C3179 H3167 0.950 . S
C3179 C3175 1.393 . S
C3179 C3178 1.391 . S
H3180 C3188 0.950 . S
H3181 C3193 0.950 . S
H3182 C3190 0.950 . S
H3183 C3192 0.950 . S
H3184 C3194 0.950 . S
H3185 C3196 0.950 . S
H3186 C3198 0.950 . S
H3187 C3199 0.950 . S
C3188 H3180 0.950 . S
C3188 C3189 1.386 1_545 S
C3188 C3190 1.391 . S
C3189 C3188 1.386 1_565 S
C3189 C3193 1.393 . S
C3190 H3182 0.950 . S
C3190 C3188 1.391 . S
C3190 C3191 1.400 1_545 S
C3191 C3190 1.400 1_565 S
C3191 C3192 1.398 . S
C3191 C3197 1.491 1_564 S
C3192 H3183 0.950 . S
C3192 C3191 1.398 . S
C3192 C3193 1.391 . S
C3193 H3181 0.950 . S
C3193 C3189 1.393 . S
C3193 C3192 1.391 . S
C3194 H3184 0.950 . S
C3194 C3195 1.386 1_565 S
C3194 C3196 1.391 . S
C3195 C3194 1.386 1_545 S
C3195 C3199 1.393 . S
C3196 H3185 0.950 . S
C3196 C3194 1.391 . S
C3196 C3197 1.400 1_565 S
C3197 C3191 1.491 1_546 S
C3197 C3196 1.400 1_545 S
C3197 C3198 1.398 . S
C3198 H3186 0.950 . S
C3198 C3197 1.398 . S
C3198 C3199 1.391 . S
C3199 H3187 0.950 . S
C3199 C3195 1.393 . S
C3199 C3198 1.391 . S
C1289 C10 1.628 . S
C1295 C1010 1.624 . S
C1309 C970 1.623 . S
C1315 C50 1.630 . S
C1329 C1090 1.628 . S
C1335 C90 1.623 . S
C1349 C130 1.631 . S
C1355 C1050 1.624 . S
C1369 C179 1.623 . S
C1375 C1179 1.631 . S
C1389 C219 1.627 . S
C1395 C1139 1.630 . S
C1409 C259 1.630 . S
C1415 C1259 1.627 . S
C1429 C1219 1.624 . S
C1435 C299 1.627 . S
C1449 C330 1.630 . S
C1455 C690 1.623 . S
C1469 C370 1.627 . S
C1475 C650 1.624 . S
C1489 C410 1.623 . S
C1495 C770 1.631 . S
C1509 C730 1.631 . S
C1515 C450 1.624 . S
C1529 C499 1.631 . S
C1535 C859 1.623 . S
C1549 C539 1.623 . S
C1555 C819 1.628 . S
C1569 C939 1.628 . S
C1575 C579 1.629 . S
C1589 C619 1.627 . S
C1595 C899 1.624 . S
C1609 C9 1.618 . S
C1615 C129 1.606 . S
C1629 C49 1.608 . S
C1635 C89 1.611 . S
C1649 C298 1.613 . S
C1655 C178 1.618 . S
C1669 C258 1.618 . S
C1675 C218 1.612 . S
C1689 C329 1.619 . S
C1695 C449 1.608 . S
C1709 C369 1.616 . S
C1715 C409 1.615 . S
C1729 C498 1.618 . S
C1735 C618 1.606 . S
C1749 C578 1.619 . S
C1755 C538 1.607 . S
C1769 C649 1.606 . S
C1775 C769 1.618 . S
C1789 C689 1.609 . S
C1795 C729 1.619 . S
C1809 C938 1.617 . S
C1815 C818 1.606 . S
C1829 C858 1.609 . S
C1835 C898 1.619 . S
C1849 C1089 1.612 . S
C1855 C969 1.608 . S
C1869 C1009 1.620 . S
C1875 C1049 1.609 . S
C1889 C1258 1.615 . S
C1895 C1138 1.606 . S
C1909 C1218 1.608 . S
C1915 C1178 1.612 . S
C1929 C59 1.512 . S
C1935 C19 1.521 . S
C1949 C99 1.514 . S
C1955 C139 1.507 . S
C1969 C210 1.529 . S
C1975 C170 1.527 . S
C1989 C290 1.525 . S
C1995 C250 1.529 . S
C2009 C339 1.526 . S
C2015 C379 1.529 . S
C2029 C419 1.512 . S
C2035 C459 1.520 . S
C2049 C530 1.515 . S
C2055 C490 1.523 . S
C2069 C570 1.519 . S
C2075 C610 1.526 . S
C2089 C659 1.524 . S
C2095 C699 1.516 . S
C2109 C779 1.505 . S
C2115 C739 1.507 . S
C2129 C810 1.511 . S
C2135 C850 1.505 . S
C2149 C890 1.510 . S
C2155 C930 1.519 . S
C2169 C979 1.508 . S
C2175 C1019 1.516 . S
C2189 C1059 1.514 . S
C2195 C1099 1.523 . S
C2209 C1170 1.506 . S
C2215 C1130 1.505 . S
C2229 C1210 1.513 . S
C2235 C1250 1.506 . S
C2249 C6 1.665 . S
C2255 C15 1.665 . S
C2269 C46 1.667 . S
C2275 C55 1.667 . S
C2289 C86 1.665 . S
C2295 C95 1.665 . S
C2309 C135 1.679 . S
C2315 C126 1.679 . S
C2329 C166 1.665 . S
C2335 C175 1.665 . S
C2349 C215 1.664 . S
C2355 C206 1.664 . S
C2369 C246 1.678 . S
C2375 C255 1.678 . S
C2389 C286 1.677 . S
C2395 C295 1.677 . S
C2409 C335 1.674 . S
C2415 C326 1.674 . S
C2429 C366 1.677 . S
C2435 C375 1.677 . S
C2449 C406 1.667 . S
C2455 C415 1.667 . S
C2469 C455 1.665 . S
C2475 C446 1.665 . S
C2489 C486 1.664 . S
C2495 C495 1.664 . S
C2509 C535 1.678 . S
C2515 C526 1.678 . S
C2529 C575 1.678 . S
C2535 C566 1.678 . S
C2549 C606 1.664 . S
C2555 C615 1.664 . S
C2569 C646 1.678 . S
C2575 C655 1.678 . S
C2589 C695 1.678 . S
C2595 C686 1.678 . S
C2609 C735 1.674 . S
C2615 C726 1.674 . S
C2629 C766 1.667 . S
C2635 C775 1.667 . S
C2649 C815 1.679 . S
C2655 C806 1.679 . S
C2669 C855 1.679 . S
C2675 C846 1.679 . S
C2689 C886 1.668 . S
C2695 C895 1.668 . S
C2709 C935 1.670 . S
C2715 C926 1.670 . S
C2729 C975 1.679 . S
C2735 C966 1.679 . S
C2749 C1006 1.676 . S
C2755 C1015 1.676 . S
C2769 C1055 1.672 . S
C2775 C1046 1.672 . S
C2789 C1095 1.672 . S
C2795 C1086 1.672 . S
C2809 C1135 1.667 . S
C2815 C1126 1.667 . S
C2829 C1175 1.663 . S
C2835 C1166 1.663 . S
C2849 C1206 1.677 . S
C2855 C1215 1.677 . S
C2869 C1246 1.679 . S
C2875 C1255 1.679 . S
C2889 C18 1.464 . S
C2895 C169 1.464 . S
C2909 C1169 1.477 . S
C2915 C58 1.477 . S
C2929 C569 1.484 . S
C2935 C98 1.484 . S
C2949 C138 1.487 . S
C2955 C929 1.487 . S
C2969 C209 1.478 . S
C2975 C1018 1.478 . S
C2989 C249 1.464 . S
C2995 C418 1.464 . S
C3009 C289 1.471 . S
C3015 C778 1.471 . S
C3029 C338 1.467 . S
C3035 C489 1.467 . S
C3049 C849 1.468 . S
C3055 C378 1.468 . S
C3069 C1249 1.466 . S
C3075 C458 1.466 . S
C3089 C529 1.490 . S
C3095 C698 1.490 . S
C3109 C1098 1.478 . S
C3115 C609 1.478 . S
C3129 C658 1.473 . S
C3135 C809 1.473 . S
C3149 C1209 1.490 . S
C3155 C738 1.490 . S
C3169 C889 1.464 . S
C3175 C1058 1.464 . S
C3189 C978 1.468 . S
C3195 C1129 1.468 . S
