# Generated by pormake.
# Topology wjq, (5)-cn, num edge types: 1
# Building blocks:
#     Node 0, Type 0, BuildingBlock: XOMCOT_clean_sbu_1, # of connection points: 5
#     Node 1, Type 0, BuildingBlock: XOMCOT_clean_sbu_1, # of connection points: 5
#     Node 2, Type 0, BuildingBlock: XOMCOT_clean_sbu_1, # of connection points: 5
#     Node 3, Type 0, BuildingBlock: XOMCOT_clean_sbu_1, # of connection points: 5
#     Node 4, Type 0, BuildingBlock: XOMCOT_clean_sbu_1, # of connection points: 5
#     Node 5, Type 0, BuildingBlock: XOMCOT_clean_sbu_1, # of connection points: 5
#     Node 6, Type 0, BuildingBlock: XOMCOT_clean_sbu_1, # of connection points: 5
#     Node 7, Type 0, BuildingBlock: XOMCOT_clean_sbu_1, # of connection points: 5
#     Node 8, Type 0, BuildingBlock: XOMCOT_clean_sbu_1, # of connection points: 5
#     Node 9, Type 0, BuildingBlock: XOMCOT_clean_sbu_1, # of connection points: 5
#     Node 10, Type 0, BuildingBlock: XOMCOT_clean_sbu_1, # of connection points: 5
#     Node 11, Type 0, BuildingBlock: XOMCOT_clean_sbu_1, # of connection points: 5
#     Edge 12, Type (0, 0), BuildingBlock: XIVTED_clean_linker_0, # of connection points: 2
#     Edge 13, Type (0, 0), BuildingBlock: XIVTED_clean_linker_0, # of connection points: 2
#     Edge 14, Type (0, 0), BuildingBlock: XIVTED_clean_linker_0, # of connection points: 2
#     Edge 15, Type (0, 0), BuildingBlock: XIVTED_clean_linker_0, # of connection points: 2
#     Edge 16, Type (0, 0), BuildingBlock: XIVTED_clean_linker_0, # of connection points: 2
#     Edge 17, Type (0, 0), BuildingBlock: XIVTED_clean_linker_0, # of connection points: 2
#     Edge 18, Type (0, 0), BuildingBlock: XIVTED_clean_linker_0, # of connection points: 2
#     Edge 19, Type (0, 0), BuildingBlock: XIVTED_clean_linker_0, # of connection points: 2
#     Edge 20, Type (0, 0), BuildingBlock: XIVTED_clean_linker_0, # of connection points: 2
#     Edge 21, Type (0, 0), BuildingBlock: XIVTED_clean_linker_0, # of connection points: 2
#     Edge 22, Type (0, 0), BuildingBlock: XIVTED_clean_linker_0, # of connection points: 2
#     Edge 23, Type (0, 0), BuildingBlock: XIVTED_clean_linker_0, # of connection points: 2
#     Edge 24, Type (0, 0), BuildingBlock: XIVTED_clean_linker_0, # of connection points: 2
#     Edge 25, Type (0, 0), BuildingBlock: XIVTED_clean_linker_0, # of connection points: 2
#     Edge 26, Type (0, 0), BuildingBlock: XIVTED_clean_linker_0, # of connection points: 2
#     Edge 27, Type (0, 0), BuildingBlock: XIVTED_clean_linker_0, # of connection points: 2
#     Edge 28, Type (0, 0), BuildingBlock: XIVTED_clean_linker_0, # of connection points: 2
#     Edge 29, Type (0, 0), BuildingBlock: XIVTED_clean_linker_0, # of connection points: 2
#     Edge 30, Type (0, 0), BuildingBlock: XIVTED_clean_linker_0, # of connection points: 2
#     Edge 31, Type (0, 0), BuildingBlock: XIVTED_clean_linker_0, # of connection points: 2
#     Edge 32, Type (0, 0), BuildingBlock: XIVTED_clean_linker_0, # of connection points: 2
#     Edge 33, Type (0, 0), BuildingBlock: XIVTED_clean_linker_0, # of connection points: 2
#     Edge 34, Type (0, 0), BuildingBlock: XIVTED_clean_linker_0, # of connection points: 2
#     Edge 35, Type (0, 0), BuildingBlock: XIVTED_clean_linker_0, # of connection points: 2
#     Edge 36, Type (0, 0), BuildingBlock: XIVTED_clean_linker_0, # of connection points: 2
#     Edge 37, Type (0, 0), BuildingBlock: XIVTED_clean_linker_0, # of connection points: 2
#     Edge 38, Type (0, 0), BuildingBlock: XIVTED_clean_linker_0, # of connection points: 2
#     Edge 39, Type (0, 0), BuildingBlock: XIVTED_clean_linker_0, # of connection points: 2
#     Edge 40, Type (0, 0), BuildingBlock: XIVTED_clean_linker_0, # of connection points: 2
#     Edge 41, Type (0, 0), BuildingBlock: XIVTED_clean_linker_0, # of connection points: 2
# Relax obj value: 0.554
# Max RMSD: 0.290
# Mean RMSD: 0.290
data_MOF--net-wjq--node1-XOMCOT_clean_sbu_1--edge1-XIVTED_clean_linker_0
_symmetry_space_group_name_H-M    P1
_symmetry_Int_Tables_number       1
_symmetry_cell_setting            triclinic
loop_
_symmetry_equiv_pos_as_xyz
'x, y, z'
_cell_length_a     27.620573
_cell_length_b     27.632653
_cell_length_c     90.306872
_cell_angle_alpha  90.15677
_cell_angle_beta   89.900977
_cell_angle_gamma 119.98719
loop_
_atom_site_label
_atom_site_type_symbol
_atom_site_fract_x
_atom_site_fract_y
_atom_site_fract_z
_atom_type_partial_charge
C0 C 0.30077 0.1764 0.04242 0.0
C1 C 0.28981 0.19147 0.02882 0.0
N2 N 0.24059 0.1905 0.02968 0.0
N3 N 0.25879 0.16619 0.05182 0.0
C4 C 0.22279 0.17515 0.04374 0.0
H5 H 0.33715 0.17337 0.04531 0.0
Co6 Co 0.25434 0.14691 0.07185 0.0
C7 C 0.13927 0.11776 0.07921 0.0
O8 O 0.15796 0.15585 0.08971 0.0
N9 N 0.24879 0.12691 0.09188 0.0
C10 C 0.22115 0.07571 0.11238 0.0
C11 C 0.21124 0.07666 0.09753 0.0
C12 C 0.28111 0.15574 0.10352 0.0
N13 N 0.26511 0.12551 0.11609 0.0
O14 O 0.2659 0.21891 0.07705 0.0
H15 H 0.17906 0.04246 0.09119 0.0
H16 H 0.31679 0.19739 0.10281 0.0
O17 O 0.1738 0.11211 0.07106 0.0
C18 C 0.31926 0.24777 0.07746 0.0
O19 O 0.34782 0.22228 0.0748 0.0
N20 N 0.25109 0.0807 0.06671 0.0
C21 C 0.27106 0.99846 0.0559 0.0
C22 C 0.22186 0.99876 0.05206 0.0
C23 C 0.2128 0.04084 0.05753 0.0
C24 C 0.29691 0.07864 0.07137 0.0
C25 C 0.30741 0.03736 0.06623 0.0
H26 H 0.17766 0.04391 0.0535 0.0
H27 H 0.32734 0.11137 0.07843 0.0
H28 H 0.18485 0.17188 0.04817 0.0
H29 H 0.31583 0.20192 0.01905 0.0
H30 H 0.19778 0.0411 0.11985 0.0
H31 H 0.19345 0.97025 0.0438 0.0
H32 H 0.34589 0.03864 0.06935 0.0
C33 C 0.15242 0.29098 0.3759 0.0
C34 C 0.13023 0.28139 0.36181 0.0
N35 N 0.07658 0.23976 0.36245 0.0
N36 N 0.11314 0.25512 0.38537 0.0
C37 C 0.06731 0.22494 0.37688 0.0
H38 H 0.19476 0.32141 0.37901 0.0
Co39 Co 0.12059 0.24625 0.40567 0.0
C40 C 0.02955 0.13054 0.41004 0.0
O41 O 1.00656 0.1473 0.42007 0.0
N42 N 0.12751 0.23591 0.42589 0.0
C43 C 0.14161 0.20143 0.44658 0.0
C44 C 0.13367 0.19416 0.43159 0.0
C45 C 0.13257 0.26847 0.43765 0.0
N46 N 0.141 0.24825 0.45039 0.0
O47 O 0.05978 0.25871 0.40945 0.0
H48 H 0.1342 0.16133 0.42517 0.0
H49 H 0.13099 0.30667 0.4369 0.0
O50 O 0.07353 0.16633 0.40333 0.0
C51 C 0.08421 0.31192 0.41046 0.0
O52 O 0.139 0.34049 0.40928 0.0
N53 N 0.18406 0.24179 0.40207 0.0
C54 C 0.28855 0.26232 0.39318 0.0
C55 C 0.24003 0.21396 0.38837 0.0
C56 C 0.18773 0.20459 0.39288 0.0
C57 C 0.23075 0.28619 0.40782 0.0
C58 C 0.28363 0.29696 0.40365 0.0
H59 H 0.15062 0.17055 0.38801 0.0
H60 H 0.22687 0.31573 0.41489 0.0
H61 H 0.02818 0.19164 0.38116 0.0
H62 H 0.15193 0.30349 0.35188 0.0
H63 H 0.1495 0.17542 0.45398 0.0
H64 H 0.24207 0.18689 0.37999 0.0
H65 H 0.32007 0.33474 0.40751 0.0
C66 C 0.68736 0.03168 0.70852 0.0
C67 C 0.68129 1.00081 0.69595 0.0
N68 N 0.72663 0.99489 0.69458 0.0
N69 N 0.7364 0.04542 0.71506 0.0
C70 C 0.75935 0.02212 0.70635 0.0
H71 H 0.65902 0.04545 0.71228 0.0
Co72 Co 0.76752 0.09662 0.73066 0.0
C73 C 0.86785 0.09153 0.74056 0.0
O74 O 0.89308 0.1451 0.74373 0.0
N75 N 0.79866 0.14901 0.74642 0.0
C76 C 0.83692 0.22614 0.76024 0.0
C77 C 0.82288 0.20533 0.7461 0.0
C78 C 0.79811 0.13681 0.76094 0.0
N79 N 0.82113 0.18294 0.76957 0.0
O80 O 0.71003 0.04481 0.74375 0.0
H81 H 0.82964 0.23035 0.73635 0.0
H82 H 0.78143 0.09475 0.7651 0.0
O83 O 0.81804 0.0672 0.7353 0.0
C84 C 0.67808 0.06561 0.74542 0.0
O85 O 0.69126 0.11256 0.73861 0.0
N86 N 0.81601 0.14874 0.71723 0.0
C87 C 0.86776 0.23354 0.69662 0.0
C88 C 0.89439 0.20468 0.70168 0.0
C89 C 0.86711 0.16123 0.71185 0.0
C90 C 0.78881 0.17462 0.7118 0.0
C91 C 0.81406 0.21752 0.70161 0.0
H92 H 0.88671 0.13754 0.715 0.0
H93 H 0.74731 0.16245 0.7157 0.0
H94 H 0.80066 0.02783 0.70806 0.0
H95 H 0.64671 0.9849 0.68823 0.0
H96 H 0.85592 0.26964 0.76343 0.0
H97 H 0.9351 0.2146 0.69749 0.0
H98 H 0.79192 0.23824 0.69777 0.0
C99 C 0.62204 0.70307 0.03018 0.0
C100 C 0.65301 0.70064 0.01856 0.0
N101 N 0.70751 0.72968 0.02227 0.0
N102 N 0.65652 0.73345 0.04127 0.0
C103 C 0.70848 0.74893 0.03616 0.0
H104 H 0.57716 0.68517 0.03035 0.0
Co105 Co 0.63091 0.75277 0.05832 0.0
C106 C 0.73107 0.83832 0.07416 0.0
O107 O 0.70266 0.86377 0.07703 0.0
N108 N 0.60328 0.77066 0.0756 0.0
C109 C 0.56231 0.79912 0.09196 0.0
C110 C 0.56746 0.79029 0.07721 0.0
C111 C 0.61684 0.76531 0.08967 0.0
N112 N 0.59399 0.78401 0.09979 0.0
O113 O 0.61298 0.68321 0.06733 0.0
H114 H 0.5464 0.7986 0.0684 0.0
H115 H 0.64599 0.75126 0.09235 0.0
O116 O 0.70807 0.79255 0.06667 0.0
C117 C 0.56015 0.65404 0.06534 0.0
O118 O 0.53552 0.67636 0.05782 0.0
N119 N 0.64128 0.81636 0.04849 0.0
C120 C 0.64111 0.89898 0.03115 0.0
C121 C 0.69159 0.90429 0.03614 0.0
C122 C 0.69089 0.86161 0.04444 0.0
C123 C 0.59231 0.80911 0.04289 0.0
C124 C 0.59101 0.85041 0.03445 0.0
H125 H 0.73025 0.86423 0.04696 0.0
H126 H 0.55385 0.77043 0.04487 0.0
H127 H 0.7464 0.77579 0.04217 0.0
H128 H 0.63657 0.67943 0.00812 0.0
H129 H 0.53773 0.81618 0.09653 0.0
H130 H 0.73142 0.93965 0.03295 0.0
H131 H 0.55144 0.84385 0.03025 0.0
C132 C 0.92822 0.62042 0.35617 0.0
C133 C 0.96408 0.65302 0.34515 0.0
N134 N 0.99573 0.70543 0.35039 0.0
N135 N 0.93685 0.65178 0.36838 0.0
C136 C 0.97859 0.7034 0.36457 0.0
H137 H 0.89677 0.57676 0.35523 0.0
Co138 Co 0.89245 0.62463 0.38545 0.0
C139 C 0.90321 0.7234 0.4012 0.0
O140 O 0.84927 0.69365 0.40383 0.0
N141 N 0.84798 0.59607 0.40282 0.0
C142 C 0.78073 0.55801 0.41983 0.0
C143 C 0.7928 0.56045 0.40497 0.0
C144 C 0.86865 0.61195 0.41666 0.0
N145 N 0.82852 0.59119 0.42716 0.0
O146 O 0.94592 0.6088 0.39424 0.0
H147 H 0.76222 0.5385 0.39646 0.0
H148 H 0.91203 0.64212 0.41884 0.0
O149 O 0.92765 0.70165 0.3939 0.0
C150 C 0.92444 0.5567 0.39141 0.0
O151 O 0.87879 0.5325 0.38332 0.0
N152 N 0.83755 0.63295 0.37581 0.0
C153 C 0.75477 0.63163 0.35819 0.0
C154 C 0.80017 0.6824 0.36294 0.0
C155 C 0.84217 0.68222 0.37135 0.0
C156 C 0.79522 0.58348 0.37059 0.0
C157 C 0.75271 0.58167 0.36195 0.0
H158 H 0.87934 0.72164 0.37356 0.0
H159 H 0.79531 0.54513 0.37282 0.0
H160 H 0.99484 0.73924 0.37184 0.0
H161 H 0.96642 0.63905 0.33411 0.0
H162 H 0.73963 0.53484 0.42478 0.0
H163 H 0.80502 0.72199 0.35936 0.0
H164 H 0.71966 0.54192 0.35784 0.0
C165 C 0.25098 0.92656 0.70362 0.0
C166 C 0.26132 0.963 0.69211 0.0
N167 N 0.23534 0.99236 0.69497 0.0
N168 N 0.21861 0.93259 0.71377 0.0
C169 C 0.20986 0.97313 0.70822 0.0
H170 H 0.26559 0.89694 0.70447 0.0
Co171 Co 0.19175 0.88854 0.73084 0.0
C172 C 0.09834 0.90209 0.74159 0.0
O173 O 0.07181 0.84841 0.7446 0.0
N174 N 0.16567 0.84439 0.74828 0.0
C175 C 0.13265 0.77833 0.76564 0.0
C176 C 0.13969 0.78858 0.75069 0.0
C177 C 0.17388 0.86672 0.76203 0.0
N178 N 0.15452 0.82764 0.77273 0.0
O179 O 0.25696 0.94181 0.74154 0.0
H180 H 0.12689 0.75652 0.74237 0.0
H181 H 0.19369 0.91115 0.76414 0.0
O182 O 0.14795 0.92505 0.73619 0.0
C183 C 0.28626 0.9177 0.74152 0.0
O184 O 0.2671 0.87038 0.73425 0.0
N185 N 0.13422 0.8338 0.71956 0.0
C186 C 0.06949 0.75144 0.69912 0.0
C187 C 0.05791 0.79434 0.70245 0.0
C188 C 0.09175 0.8361 0.71252 0.0
C189 C 0.14658 0.79321 0.71607 0.0
C190 C 0.1139 0.75074 0.70625 0.0
H191 H 0.0858 0.87159 0.71386 0.0
H192 H 0.18299 0.79432 0.7208 0.0
H193 H 0.18417 0.98734 0.7136 0.0
H194 H 0.28644 0.96766 0.68244 0.0
H195 H 0.11444 0.73778 0.77089 0.0
H196 H 0.02569 0.79787 0.69656 0.0
H197 H 0.12496 0.71913 0.70372 0.0
C198 C 0.74926 0.71136 0.59656 0.0
C199 C 0.73635 0.72915 0.60944 0.0
N200 N 0.76785 0.78521 0.61015 0.0
N201 N 0.78905 0.75584 0.58917 0.0
C202 C 0.7993 0.80051 0.59768 0.0
H203 H 0.73198 0.66847 0.59298 0.0
Co204 Co 0.82356 0.74821 0.57218 0.0
C205 C 0.92336 0.8603 0.56711 0.0
O206 O 0.95101 0.835 0.56335 0.0
N207 N 0.85862 0.73877 0.55475 0.0
C208 C 0.90966 0.71705 0.53987 0.0
C209 C 0.89882 0.72422 0.55422 0.0
C210 C 0.84619 0.74017 0.54026 0.0
N211 N 0.87624 0.72653 0.53106 0.0
O212 O 0.76452 0.74636 0.56067 0.0
H213 H 0.9201 0.71919 0.56357 0.0
H214 H 0.81475 0.74964 0.53646 0.0
O215 O 0.87158 0.83107 0.57073 0.0
C216 C 0.73133 0.69499 0.55738 0.0
O217 O 0.74943 0.65946 0.55899 0.0
N218 N 0.87249 0.74026 0.58437 0.0
C219 C 0.91941 0.70249 0.6051 0.0
C220 C 0.9391 0.75994 0.60358 0.0
C221 C 0.91393 0.77809 0.59331 0.0
C222 C 0.8527 0.6844 0.5859 0.0
C223 C 0.87603 0.66456 0.59607 0.0
H224 H 0.92556 0.8216 0.59324 0.0
H225 H 0.81763 0.65501 0.57928 0.0
H226 H 0.83083 0.8431 0.59518 0.0
H227 H 0.70641 0.70285 0.61773 0.0
H228 H 0.93825 0.70333 0.53625 0.0
H229 H 0.97095 0.79004 0.61093 0.0
H230 H 0.85907 0.61993 0.59723 0.0
C231 C 0.08048 0.74603 0.94796 0.0
C232 C 0.04306 0.73387 0.95936 0.0
N233 N 0.01645 0.76304 0.95734 0.0
N234 N 0.07795 0.78294 0.93874 0.0
C235 C 0.0382 0.79228 0.94468 0.0
H236 H 0.10882 0.72998 0.94662 0.0
Co237 Co 0.12649 0.8151 0.92262 0.0
C238 C 0.12747 0.91955 0.91617 0.0
O239 O 0.18218 0.94332 0.91542 0.0
N240 N 0.17504 0.84702 0.90609 0.0
C241 C 0.24344 0.88141 0.88929 0.0
C242 C 0.23082 0.86959 0.90407 0.0
C243 C 0.15534 0.84663 0.89238 0.0
N244 N 0.19561 0.86628 0.88197 0.0
O245 O 0.0719 0.75841 0.90976 0.0
H246 H 0.26101 0.87613 0.91252 0.0
H247 H 0.11162 0.83115 0.89002 0.0
O248 O 0.09819 0.86727 0.91916 0.0
C249 C 0.09224 0.72602 0.90822 0.0
O250 O 0.13764 0.73758 0.91564 0.0
N251 N 0.18136 0.86252 0.93582 0.0
C252 C 0.25077 0.89699 0.9604 0.0
C253 C 0.2151 0.91855 0.95774 0.0
C254 C 0.17944 0.89964 0.94548 0.0
C255 C 0.21682 0.84247 0.93824 0.0
C256 C 0.25251 0.85976 0.9503 0.0
H257 H 0.1475 0.91109 0.94453 0.0
H258 H 0.21483 0.80975 0.93127 0.0
H259 H 0.02673 0.82135 0.94014 0.0
H260 H 0.03603 0.70566 0.96845 0.0
H261 H 0.28419 0.89731 0.88426 0.0
H262 H 0.21123 0.94567 0.96576 0.0
H263 H 0.27842 0.8412 0.95227 0.0
C264 C 0.38063 0.09243 0.28652 0.0
C265 C 0.35177 0.05294 0.29721 0.0
N266 N 0.29709 0.02539 0.2936 0.0
N267 N 0.34459 0.0902 0.27615 0.0
C268 C 0.29394 0.04867 0.28071 0.0
H269 H 0.42505 0.12188 0.28647 0.0
Co270 Co 0.36568 0.14063 0.26033 0.0
C271 C 0.2634 0.14102 0.25145 0.0
O272 O 0.29409 0.19578 0.25117 0.0
N273 N 0.38712 0.19088 0.24411 0.0
C274 C 0.42347 0.25984 0.2275 0.0
C275 C 0.42102 0.24666 0.24231 0.0
C276 C 0.36965 0.17171 0.23027 0.0
N277 N 0.39149 0.21224 0.22 0.0
O278 O 0.37301 0.08833 0.24766 0.0
H279 H 0.44339 0.27652 0.25096 0.0
H280 H 0.34082 0.12826 0.22774 0.0
O281 O 0.28605 0.11185 0.25499 0.0
C282 C 0.42605 0.10876 0.24787 0.0
O283 O 0.45581 0.15076 0.25686 0.0
N284 N 0.36792 0.19362 0.27344 0.0
C285 C 0.39359 0.26141 0.29826 0.0
C286 C 0.33762 0.22437 0.29448 0.0
C287 C 0.32556 0.18961 0.28213 0.0
C288 C 0.42223 0.23036 0.27692 0.0
C289 C 0.43603 0.26532 0.28911 0.0
H290 H 0.28299 0.15674 0.28036 0.0
H291 H 0.45552 0.22993 0.27076 0.0
H292 H 0.25523 0.03692 0.27498 0.0
H293 H 0.36983 0.04518 0.30691 0.0
H294 H 0.44797 0.30083 0.2226 0.0
H295 H 0.30393 0.21876 0.30175 0.0
H296 H 0.47962 0.29232 0.29196 0.0
C297 C 0.27267 0.38586 0.62614 0.0
C298 C 0.27306 0.35428 0.63782 0.0
N299 N 0.25747 0.30248 0.63284 0.0
N300 N 0.25704 0.35452 0.61373 0.0
C301 C 0.24832 0.30388 0.61814 0.0
H302 H 0.28191 0.42873 0.62674 0.0
Co303 Co 0.24565 0.3798 0.59546 0.0
C304 C 0.1564 0.27752 0.58085 0.0
O305 O 0.13371 0.30744 0.57682 0.0
N306 N 0.23556 0.40584 0.57699 0.0
C307 C 0.2181 0.44561 0.55785 0.0
C308 C 0.22342 0.44579 0.573 0.0
C309 C 0.24022 0.38437 0.56397 0.0
N310 N 0.22788 0.40621 0.55223 0.0
O311 O 0.31604 0.39155 0.58819 0.0
H312 H 0.2175 0.47305 0.58039 0.0
H313 H 0.25048 0.35143 0.56317 0.0
O314 O 0.20263 0.30098 0.58812 0.0
C315 C 0.34829 0.44262 0.59189 0.0
O316 O 0.32732 0.46696 0.60013 0.0
N317 N 0.18192 0.37681 0.60337 0.0
C318 C 0.0996 0.38919 0.6176 0.0
C319 C 0.09226 0.33581 0.61501 0.0
C320 C 0.13481 0.33056 0.60827 0.0
C321 C 0.19092 0.42879 0.6067 0.0
C322 C 0.14983 0.43609 0.61347 0.0
H323 H 0.13066 0.28966 0.60762 0.0
H324 H 0.23115 0.46502 0.60445 0.0
H325 H 0.23374 0.26819 0.61084 0.0
H326 H 0.28391 0.36857 0.64914 0.0
H327 H 0.20528 0.47058 0.55155 0.0
H328 H 0.05551 0.29863 0.619 0.0
H329 H 0.15808 0.47793 0.61594 0.0
C330 C 0.03132 0.3394 0.93544 0.0
C331 C 0.06715 0.34344 0.94661 0.0
N332 N 0.05773 0.29175 0.94967 0.0
N333 N 0.99977 0.28544 0.93135 0.0
C334 C 0.01676 0.25744 0.94027 0.0
H335 H 0.02828 0.37369 0.93072 0.0
Co336 Co 0.94371 0.25556 0.91684 0.0
C337 C 0.9515 0.15943 0.90369 0.0
O338 O 0.89937 0.13532 0.89918 0.0
N339 N 0.88725 0.22549 0.90216 0.0
C340 C 0.80706 0.18694 0.88966 0.0
C341 C 0.83102 0.19972 0.90352 0.0
C342 C 0.89622 0.22863 0.88738 0.0
N343 N 0.84831 0.20537 0.87954 0.0
O344 O 0.99091 0.31494 0.90343 0.0
H345 H 0.80846 0.19097 0.91385 0.0
H346 H 0.93737 0.24653 0.88247 0.0
O347 O 0.97312 0.20668 0.91039 0.0
C348 C 0.96835 0.3457 0.90371 0.0
O349 O 0.92551 0.33145 0.91256 0.0
N350 N 0.89548 0.20468 0.9306 0.0
C351 C 0.8139 0.14704 0.95176 0.0
C352 C 0.83853 0.12057 0.94407 0.0
C353 C 0.8799 0.15042 0.93354 0.0
C354 C 0.87342 0.2313 0.93842 0.0
C355 C 0.83228 0.20325 0.94896 0.0
H356 H 0.89913 0.12976 0.92807 0.0
H357 H 0.88716 0.27463 0.93617 0.0
H358 H 0.9996 0.21266 0.93983 0.0
H359 H 0.09694 0.38136 0.95225 0.0
H360 H 0.76281 0.16665 0.88722 0.0
H361 H 0.82659 0.07755 0.94635 0.0
H362 H 0.81452 0.22522 0.95471 0.0
C363 C 0.7359 0.0332 0.26354 0.0
C364 C 0.76341 0.06677 0.27551 0.0
N365 N 0.81048 0.06464 0.27792 0.0
N366 N 0.76544 0.00999 0.25836 0.0
C367 C 0.81071 0.03004 0.26733 0.0
H368 H 0.69599 0.02488 0.2592 0.0
Co369 Co 0.74326 0.95518 0.2436 0.0
C370 C 0.85062 0.96661 0.23167 0.0
O371 O 0.82408 0.91662 0.22569 0.0
N372 N 0.72008 0.89888 0.2287 0.0
C373 C 0.68009 0.81687 0.21697 0.0
C374 C 0.6939 0.8428 0.23053 0.0
C375 C 0.72108 0.90561 0.21382 0.0
N376 N 0.69691 0.85641 0.20646 0.0
O377 O 0.73269 1.00303 0.2301 0.0
H378 H 0.68362 0.82128 0.24102 0.0
H379 H 0.73879 0.94591 0.20847 0.0
O380 O 0.82299 0.98598 0.23841 0.0
C381 C 0.67937 0.98058 0.22949 0.0
O382 O 0.64867 0.93397 0.23682 0.0
N383 N 0.74414 0.90703 0.25753 0.0
C384 C 0.71459 0.82356 0.27839 0.0
C385 C 0.76667 0.84701 0.27119 0.0
C386 C 0.78099 0.88932 0.26075 0.0
C387 C 0.69459 0.8861 0.26485 0.0
C388 C 0.67871 0.84407 0.2752 0.0
H389 H 0.82092 0.90684 0.25533 0.0
H390 H 0.66627 0.90113 0.26221 0.0
H391 H 0.84182 0.01725 0.26657 0.0
H392 H 0.74935 0.09029 0.28205 0.0
H393 H 0.65709 0.77222 0.21503 0.0
H394 H 0.79607 0.83304 0.27367 0.0
H395 H 0.63811 0.82703 0.28043 0.0
H396 H 0.44792 0.59954 0.06889 0.0
H397 H 0.42582 0.3078 0.08724 0.0
H398 H 0.59148 0.57911 0.07537 0.0
H399 H 0.28521 0.32556 0.07428 0.0
H400 H 0.48454 0.409 0.08788 0.0
H401 H 0.3869 0.50248 0.07564 0.0
C402 C 0.46676 0.57464 0.07183 0.0
C403 C 0.52499 0.59719 0.07129 0.0
C404 C 0.44076 0.39095 0.08507 0.0
C405 C 0.45477 0.48548 0.07906 0.0
C406 C 0.40707 0.33312 0.0847 0.0
C407 C 0.35071 0.30832 0.08045 0.0
C408 C 0.41811 0.42444 0.08109 0.0
C409 C 0.32849 0.34305 0.07754 0.0
C410 C 0.43169 0.51914 0.07572 0.0
C411 C 0.54685 0.56323 0.07552 0.0
N412 N 0.36253 0.39955 0.07772 0.0
N413 N 0.51158 0.50869 0.07906 0.0
H414 H 0.97364 0.27623 0.4044 0.0
H415 H 0.02515 0.58872 0.40546 0.0
H416 H 0.12695 0.41954 0.41918 0.0
H417 H 0.8725 0.44377 0.39094 0.0
H418 H 0.05988 0.52648 0.41343 0.0
H419 H 0.93125 0.33565 0.40259 0.0
C420 C 0.99795 0.31986 0.40752 0.0
C421 C 0.05399 0.34317 0.41172 0.0
C422 C 0.01859 0.50845 0.40859 0.0
C423 C 1.00649 0.41154 0.4095 0.0
C424 C 0.99891 0.544 0.40405 0.0
C425 C 0.94635 0.52157 0.39732 0.0
C426 C 0.98527 0.45031 0.40639 0.0
C427 C 0.91376 0.46319 0.39584 0.0
C428 C 0.974 0.35393 0.40641 0.0
C429 C 0.08379 0.40005 0.41564 0.0
N430 N 0.93386 0.42977 0.40023 0.0
N431 N 0.05993 0.43241 0.41427 0.0
H432 H 0.60203 0.95324 0.74739 0.0
H433 H 0.36361 0.02654 0.74918 0.0
H434 H 0.63101 0.11566 0.76057 0.0
H435 H 0.33152 0.85706 0.75139 0.0
H436 H 0.46053 0.05949 0.75689 0.0
H437 H 0.50225 0.91443 0.75267 0.0
C438 C 0.58769 0.9802 0.75194 0.0
C439 C 0.62428 0.03771 0.7533 0.0
C440 C 0.43182 0.01499 0.75599 0.0
C441 C 0.51068 0.99458 0.75882 0.0
C442 C 0.37657 0.99635 0.75163 0.0
C443 C 0.34015 0.93926 0.74928 0.0
C444 C 0.45031 0.97613 0.75785 0.0
C445 C 0.35885 0.90168 0.75266 0.0
C446 C 0.53069 0.95832 0.75482 0.0
C447 C 0.60364 0.07111 0.75911 0.0
N448 N 0.41283 0.92077 0.75648 0.0
N449 N 0.54802 0.0494 0.7613 0.0
H450 H 0.65701 0.60493 0.54153 0.0
H451 H 0.42809 0.54091 0.60309 0.0
H452 H 0.66719 0.7257 0.5735 0.0
H453 H 0.39703 0.42792 0.5666 0.0
H454 H 0.51526 0.60883 0.59168 0.0
H455 H 0.55961 0.54247 0.54865 0.0
C456 C 0.63791 0.61924 0.54962 0.0
C457 C 0.67017 0.67051 0.55696 0.0
C458 C 0.48965 0.56932 0.58609 0.0
C459 C 0.55967 0.59834 0.5656 0.0
C460 C 0.43991 0.53008 0.59269 0.0
C461 C 0.4051 0.47843 0.58581 0.0
C462 C 0.50558 0.55715 0.57248 0.0
C463 C 0.42291 0.46692 0.57237 0.0
C464 C 0.58257 0.58321 0.55383 0.0
C465 C 0.64376 0.68681 0.56748 0.0
N466 N 0.4721 0.50608 0.56612 0.0
N467 N 0.59039 0.65028 0.57171 0.0
H468 H 0.07657 0.42744 0.89756 0.0
H469 H 0.98181 0.64568 0.90424 0.0
H470 H 0.90447 0.3827 0.89128 0.0
H471 H 0.14968 0.69215 0.89121 0.0
H472 H 0.95033 0.55001 0.89569 0.0
H473 H 0.10478 0.52449 0.89134 0.0
C474 C 0.04501 0.43765 0.8943 0.0
C475 C 0.98824 0.39757 0.89518 0.0
C476 C 0.9938 0.58159 0.89427 0.0
C477 C 0.01953 0.50802 0.88859 0.0
C478 C 0.01151 0.63625 0.89903 0.0
C479 C 0.0684 0.67622 0.89865 0.0
C480 C 0.03361 0.56728 0.88938 0.0
C481 C 0.10548 0.6619 0.89194 0.0
C482 C 0.0609 0.49308 0.89087 0.0
C483 C 0.94876 0.41293 0.891 0.0
N484 N 0.0878 0.6083 0.88793 0.0
N485 N 0.96497 0.46716 0.88827 0.0
H486 H 0.71093 0.09198 0.2293 0.0
H487 H 0.39566 1.00335 0.23709 0.0
H488 H 0.57864 0.92911 0.21612 0.0
H489 H 0.52756 0.17553 0.23605 0.0
H490 H 0.45991 0.9766 0.22566 0.0
H491 H 0.6452 0.12698 0.22767 0.0
C492 C 0.66874 0.06427 0.22544 0.0
C493 C 0.64988 0.00756 0.22303 0.0
C494 C 0.47433 0.0204 0.22762 0.0
C495 C 0.57391 0.04622 0.22177 0.0
C496 C 0.43751 0.03551 0.23409 0.0
C497 C 0.45683 0.09142 0.23782 0.0
C498 C 0.53054 0.06158 0.22505 0.0
C499 C 0.51149 0.13165 0.2337 0.0
C500 C 0.63087 0.08393 0.22469 0.0
C501 C 0.59448 0.97309 0.21828 0.0
N502 N 0.5467 0.11591 0.22782 0.0
N503 N 0.55803 0.9925 0.21819 0.0
H504 H 0.23481 0.81557 0.97967 0.0
H505 H 0.37301 0.04023 0.04299 0.0
H506 H 0.32528 0.99443 0.97406 0.0
H507 H 0.21303 0.88912 0.04663 0.0
H508 H 0.39115 1.00465 0.02022 0.0
H509 H 0.26277 0.82805 0.00577 0.0
C510 C 0.26218 0.85738 0.98386 0.0
C511 C 0.27726 0.90428 0.97493 0.0
C512 C 0.35321 0.97832 0.02637 0.0
C513 C 0.30968 0.91841 0.0044 0.0
C514 C 0.34281 0.99833 0.03942 0.0
C515 C 0.29056 0.96812 0.04641 0.0
C516 C 0.31112 0.92801 0.0204 0.0
C517 C 0.25312 0.9142 0.04128 0.0
C518 C 0.27813 0.86431 -0.00134 0.0
C519 C 0.31231 0.95749 0.98075 0.0
N520 N 0.2635 0.89628 0.0283 0.0
N521 N 0.3269 0.96322 -0.00475 0.0
H522 H 0.34223 0.20634 0.38417 0.0
H523 H 0.35985 0.32902 0.31124 0.0
H524 H 0.35028 0.36609 0.38152 0.0
H525 H 0.45814 0.24977 0.31884 0.0
H526 H 0.36806 0.35342 0.33754 0.0
H527 H 0.40037 0.23006 0.36198 0.0
C528 C 0.35821 0.24729 0.37927 0.0
C529 C 0.34019 0.28358 0.38437 0.0
C530 C 0.38951 0.33238 0.33337 0.0
C531 C 0.40473 0.31017 0.35893 0.0
C532 C 0.38433 0.31814 0.31842 0.0
C533 C 0.40773 0.28691 0.31306 0.0
C534 C 0.41635 0.31322 0.34297 0.0
C535 C 0.43932 0.27376 0.32268 0.0
C536 C 0.39142 0.26093 0.36663 0.0
C537 C 0.36252 0.33648 0.37779 0.0
N538 N 0.44138 0.28555 0.33732 0.0
N539 N 0.39199 0.34744 0.36503 0.0
H540 H 0.1218 0.45678 0.64164 0.0
H541 H 0.82153 0.24505 0.6712 0.0
H542 H 0.98584 0.33442 0.615 0.0
H543 H 0.97358 0.32283 0.69687 0.0
H544 H 0.87048 0.31061 0.65106 0.0
H545 H 0.0556 0.44281 0.66133 0.0
C546 C 0.07769 0.4286 0.63969 0.0
C547 C 0.05918 0.39517 0.62693 0.0
C548 C 0.89263 0.31424 0.66127 0.0
C549 C 0.98404 0.37841 0.64942 0.0
C550 C 0.86491 0.27684 0.67271 0.0
C551 C 0.8943 0.27785 0.68547 0.0
C552 C 0.94991 0.35253 0.66265 0.0
C553 C 0.95015 0.31985 0.68698 0.0
C554 C 0.04003 0.4205 0.65096 0.0
C555 C 1.0017 0.35956 0.62493 0.0
N556 N 0.97652 0.35512 0.67557 0.0
N557 N 0.96609 0.35098 0.63626 0.0
H558 H 0.58683 0.87942 0.00475 0.0
H559 H 0.80627 0.18483 0.97912 0.0
H560 H 0.69875 0.01243 0.0339 0.0
H561 H 0.72378 0.04154 0.9502 0.0
H562 H 0.74152 0.13084 -0.00111 0.0
H563 H 0.60959 0.94751 0.98497 0.0
C564 C 0.61478 0.92326 0.00712 0.0
C565 C 0.64223 0.94048 0.02079 0.0
C566 C 0.73693 0.11157 0.98813 0.0
C567 C 0.66912 0.01786 -0.00174 0.0
C568 C 0.77381 0.14229 0.97685 0.0
C569 C 0.77102 0.117 0.96315 0.0
C570 C 0.69742 0.05518 0.98569 0.0
C571 C 0.72824 0.06191 0.96078 0.0
C572 C 0.628 0.96199 -0.00418 0.0
C573 C 0.67798 0.99758 0.02334 0.0
N574 N 0.69352 0.03246 0.97204 0.0
N575 N 0.69136 0.03428 0.01204 0.0
H576 H 0.66205 0.81302 0.3048 0.0
H577 H 0.72701 0.58034 0.33131 0.0
H578 H 0.72754 0.73171 0.27698 0.0
H579 H 0.69614 0.68653 0.3602 0.0
H580 H 0.69031 0.6086 0.31054 0.0
H581 H 0.6403 0.74255 0.32373 0.0
C582 C 0.67108 0.7798 0.30257 0.0
C583 C 0.69775 0.77878 0.28943 0.0
C584 C 0.68993 0.62436 0.32151 0.0
C585 C 0.67354 0.69853 0.31113 0.0
C586 C 0.71039 0.6079 0.33337 0.0
C587 C 0.71581 0.63252 0.34731 0.0
C588 C 0.67544 0.66583 0.32371 0.0
C589 C 0.69375 0.66786 0.34947 0.0
C590 C 0.65858 0.73957 0.31339 0.0
C591 C 0.70854 0.73489 0.28715 0.0
N592 N 0.67562 0.68457 0.33768 0.0
N593 N 0.69713 0.69686 0.29802 0.0
H594 H 0.11934 0.72499 0.67702 0.0
H595 H 0.85489 0.62705 0.62593 0.0
H596 H 0.95797 0.69372 0.69226 0.0
H597 H 0.0264 0.73211 0.61244 0.0
H598 H 0.88724 0.60916 0.64941 0.0
H599 H 0.07796 0.68319 0.65323 0.0
C600 C 0.07475 0.70753 0.67555 0.0
C601 C 0.04207 0.71391 0.68646 0.0
C602 C 0.91764 0.63462 0.64109 0.0
C603 C 0.99516 0.66694 0.6593 0.0
C604 C 0.89936 0.64484 0.62775 0.0
C605 C 0.93834 0.68197 0.6175 0.0
C606 C 0.97508 0.6616 0.64404 0.0
C607 C 0.99533 0.70415 0.62028 0.0
C608 C 0.05133 0.68388 0.66196 0.0
C609 C 0.9847 0.69081 0.68394 0.0
N610 N 0.01213 0.69422 0.63345 0.0
N611 N 0.9631 0.6692 0.67046 0.0
H612 H 0.0866 0.03175 0.05927 0.0
H613 H 0.7845 0.91669 0.09538 0.0
H614 H 0.05449 0.1059 0.09744 0.0
H615 H 0.8162 0.83362 0.05932 0.0
H616 H 0.88433 0.98281 0.09713 0.0
H617 H 0.98876 0.95769 0.05936 0.0
C618 C 0.05903 0.03266 0.06766 0.0
C619 C 0.07902 0.07529 0.07838 0.0
C620 C 0.86972 0.94985 0.08892 0.0
C621 C 0.96669 0.99014 0.07858 0.0
C622 C 0.81267 0.91184 0.08796 0.0
C623 C 0.79188 0.86983 0.07709 0.0
C624 C 0.90658 0.94639 0.07883 0.0
C625 C 0.83033 0.86534 0.06784 0.0
C626 C 1.00313 0.99011 0.06773 0.0
C627 C 0.04107 0.07415 0.08892 0.0
N628 N 0.88585 0.90369 0.06879 0.0
N629 N 0.98684 0.03232 0.08874 0.0
H630 H 0.06595 0.08121 0.38991 0.0
H631 H 0.87555 0.77396 0.42263 0.0
H632 H 0.952 0.04258 0.42657 0.0
H633 H 0.99213 0.81052 0.38678 0.0
H634 H 0.90771 0.87329 0.42509 0.0
H635 H 0.0418 0.98335 0.38889 0.0
C636 C 0.03571 0.0522 0.39772 0.0
C637 C 0.01112 0.07038 0.40838 0.0
C638 C 0.92677 0.85986 0.41676 0.0
C639 C 0.98346 0.95801 0.4073 0.0
C640 C 0.90862 0.8031 0.4154 0.0
C641 C 0.93102 0.7839 0.40443 0.0
C642 C 0.9674 0.898 0.40699 0.0
C643 C 0.97391 0.82351 0.39543 0.0
C644 C 0.02209 0.99627 0.39715 0.0
C645 C 0.97191 0.0306 0.41813 0.0
N646 N 0.9903 0.87873 0.39679 0.0
N647 N 0.95942 0.97641 0.41737 0.0
H648 H 0.83069 0.97901 0.73763 0.0
H649 H 0.13667 0.01465 0.73764 0.0
H650 H 0.9804 0.13801 0.74467 0.0
H651 H 0.98674 0.85791 0.74662 0.0
H652 H 0.08038 0.06097 0.7376 0.0
H653 H 0.88758 0.93352 0.7382 0.0
C654 C 0.87538 1.00431 0.73933 0.0
C655 C 0.90065 0.06236 0.74119 0.0
C656 C 0.06003 0.01646 0.73965 0.0
C657 C 0.96606 0.01079 0.74165 0.0
C658 C 0.09213 0.99006 0.73967 0.0
C659 C 0.06656 0.93235 0.7422 0.0
C660 C 1.00189 0.98475 0.74192 0.0
C661 C 0.0085 0.90252 0.74469 0.0
C662 C 0.90783 0.97837 0.73967 0.0
C663 C 0.95892 0.09309 0.74329 0.0
N664 N 0.97819 0.92893 0.7444 0.0
N665 N 0.98961 0.06703 0.74338 0.0
H666 H 0.88449 0.93436 0.57144 0.0
H667 H 0.18966 0.19929 0.58482 0.0
H668 H 0.03657 0.92705 0.56779 0.0
H669 H 0.04731 0.21495 0.57235 0.0
H670 H 0.132 0.09751 0.58176 0.0
H671 H 0.94143 0.03623 0.57496 0.0
C672 C 0.92964 0.95402 0.57136 0.0
C673 C 0.95561 0.92199 0.56918 0.0
C674 C 0.11355 0.1234 0.57967 0.0
C675 C 0.02089 0.03807 0.57344 0.0
C676 C 0.14648 0.18146 0.58141 0.0
C677 C 0.12358 0.21591 0.57874 0.0
C678 C 0.05708 0.09953 0.57546 0.0
C679 C 0.06708 0.19028 0.57442 0.0
C680 C 0.96212 0.01209 0.57336 0.0
C681 C 0.01446 0.94984 0.56928 0.0
N682 N 0.03581 0.13382 0.573 0.0
N683 N 0.04493 0.00596 0.57143 0.0
H684 H 0.17962 0.03323 0.91671 0.0
H685 H 0.90943 0.05105 0.89476 0.0
H686 H 0.01669 0.8871 0.91127 0.0
H687 H 0.05713 0.18978 0.91379 0.0
H688 H 0.95161 0.9924 0.89775 0.0
H689 H 0.13839 0.09234 0.91303 0.0
C690 C 0.13507 0.01344 0.91472 0.0
C691 C 0.10155 0.95493 0.91427 0.0
C692 C 0.97486 0.0357 0.90123 0.0
C693 C 0.05413 0.0229 0.90993 0.0
C694 C 0.95101 0.06949 0.89944 0.0
C695 C 0.97973 0.12567 0.90404 0.0
C696 C 0.02817 0.05816 0.90753 0.0
C697 C 0.03344 0.14685 0.91006 0.0
C698 C 0.11159 0.04738 0.91266 0.0
C699 C 0.04406 0.93193 0.91174 0.0
N700 N 0.05591 0.11309 0.91162 0.0
N701 N 0.0222 0.966 0.90957 0.0
H702 H 0.2011 0.1924 0.2512 0.0
H703 H 0.91934 0.92598 0.22374 0.0
H704 H 0.18658 0.03071 0.2451 0.0
H705 H 0.92297 0.06967 0.24388 0.0
H706 H 0.01919 0.96738 0.22863 0.0
H707 H 0.10166 0.15133 0.24598 0.0
C708 C 0.17704 0.14815 0.24874 0.0
C709 C 0.20247 0.11498 0.24856 0.0
C710 C 0.99819 0.98991 0.23194 0.0
C711 C 0.08799 0.06769 0.24244 0.0
C712 C 0.94112 0.96654 0.22906 0.0
C713 C 0.9124 0.99437 0.23337 0.0
C714 C 0.02729 0.04194 0.23904 0.0
C715 C 0.9432 0.04669 0.24031 0.0
C716 C 0.12009 0.12474 0.2458 0.0
C717 C 0.1688 0.05784 0.24538 0.0
N718 N 0.99894 0.06879 0.24289 0.0
N719 N 0.11334 0.03606 0.24235 0.0
H720 H 0.16509 0.35236 0.95905 0.0
H721 H 0.12898 0.14553 0.02522 0.0
H722 H 0.01238 0.19655 0.96604 0.0
H723 H 0.28982 0.26621 0.00761 0.0
H724 H 0.0837 0.16915 0.00538 0.0
H725 H 0.20994 0.32705 0.97854 0.0
C726 C 0.14097 0.31287 0.96472 0.0
C727 C 0.0849 0.27652 0.9609 0.0
C728 C 0.1289 0.19034 0.00585 0.0
C729 C 0.13588 0.24735 0.98332 0.0
C730 C 0.15474 0.17716 0.01722 0.0
C731 C 0.2133 0.20393 0.01807 0.0
C732 C 0.16181 0.23131 -0.00461 0.0
C733 C 0.24463 0.24418 0.0073 0.0
C734 C 0.16666 0.2983 0.97579 0.0
C735 C 0.0558 0.22556 0.96852 0.0
N736 N 0.21856 0.25691 -0.00351 0.0
N737 N 0.08146 0.21267 0.97944 0.0
H738 H 0.96338 0.19095 0.36332 0.0
H739 H 0.92111 0.09689 0.27805 0.0
H740 H 0.10098 0.23153 0.33366 0.0
H741 H 0.79014 0.0914 0.30534 0.0
H742 H 0.98681 0.14005 0.29867 0.0
H743 H 0.89843 0.1481 0.34262 0.0
C744 C 0.97996 0.19068 0.35247 0.0
C745 C 0.03782 0.21497 0.35026 0.0
C746 C 0.9437 0.12952 0.30012 0.0
C747 C 0.96352 0.16589 0.32643 0.0
C748 C 0.9061 0.10459 0.28838 0.0
C749 C 0.84994 0.09058 0.28992 0.0
C750 C 0.92498 0.13998 0.3136 0.0
C751 C 0.83308 0.10209 0.30354 0.0
C752 C 0.94285 0.16648 0.34062 0.0
C753 C 0.05683 0.21391 0.33587 0.0
N754 N 0.87027 0.12581 0.31484 0.0
N755 N 0.01984 0.18959 0.32454 0.0
H756 H 0.77537 0.88678 0.60827 0.0
H757 H 0.77633 0.93156 0.69593 0.0
H758 H 0.76236 0.76325 0.63948 0.0
H759 H 0.70496 0.99847 0.66548 0.0
H760 H 0.79191 0.88307 0.67512 0.0
H761 H 0.77007 0.94221 0.62899 0.0
C762 C 0.77205 0.87174 0.61949 0.0
C763 C 0.76888 0.82026 0.62218 0.0
C764 C 0.77308 0.90861 0.67302 0.0
C765 C 0.76354 0.88343 0.64587 0.0
C766 C 0.76446 0.9364 0.68485 0.0
C767 C 0.73889 0.9686 0.68243 0.0
C768 C 0.75726 0.9142 0.65861 0.0
C769 C 0.72409 0.97342 0.66785 0.0
C770 C 0.76871 0.9031 0.63128 0.0
C771 C 0.76427 0.80241 0.63694 0.0
N772 N 0.73369 0.94676 0.65649 0.0
N773 N 0.76198 0.83398 0.64822 0.0
H774 H 0.71317 0.73688 -0.00773 0.0
H775 H 1.00741 0.74793 0.98714 0.0
H776 H 0.80907 0.7456 0.03082 0.0
H777 H 0.93004 0.77901 0.94975 0.0
H778 H 0.93407 0.74383 0.00321 0.0
H779 H 0.79044 0.74908 0.9765 0.0
C780 C 0.75045 0.74121 -0.00256 0.0
C781 C 0.7543 0.7397 0.01294 0.0
C782 C 0.93319 0.7518 0.9915 0.0
C783 C 0.84348 0.75388 -0.00516 0.0
C784 C 0.97491 0.75379 0.98229 0.0
C785 C 0.97477 0.76343 0.96701 0.0
C786 C 0.89032 0.75882 0.98544 0.0
C787 C 0.93202 0.77173 0.96144 0.0
C788 C 0.79479 0.74857 0.9884 0.0
C789 C 0.80427 0.74667 0.01896 0.0
N790 N 0.89132 0.76874 0.9706 0.0
N791 N 0.84663 0.75293 0.00991 0.0
H792 H 0.29329 0.00854 0.32335 0.0
H793 H 1.00034 0.72214 0.32062 0.0
H794 H 0.19729 0.94157 0.28335 0.0
H795 H 0.08627 0.79905 0.36132 0.0
H796 H 0.07231 0.80143 0.30684 0.0
H797 H 0.2187 0.9321 0.33737 0.0
C798 C 0.25664 0.97768 0.31748 0.0
C799 C 0.25198 0.98148 0.30207 0.0
C800 C 0.07546 0.80113 0.31879 0.0
C801 C 0.16573 0.89348 0.31819 0.0
C802 C 0.03446 0.75554 0.3267 0.0
C803 C 0.03727 0.7534 0.34221 0.0
C804 C 0.12017 0.84519 0.32638 0.0
C805 C 0.08209 0.79882 0.34942 0.0
C806 C 0.21379 0.93412 0.32554 0.0
C807 C 0.20273 0.94064 0.29518 0.0
N808 N 0.12186 0.84257 0.34145 0.0
N809 N 0.16181 0.89827 0.30326 0.0
H810 H 0.25157 1.00477 0.66512 0.0
H811 H 0.23477 0.28581 0.66232 0.0
H812 H 0.21798 0.07746 0.70334 0.0
H813 H 0.26341 0.2113 0.62369 0.0
H814 H 0.22691 0.20902 0.67731 0.0
H815 H 0.25447 0.07868 0.64975 0.0
C816 C 0.245 0.03631 0.67034 0.0
C817 C 0.23492 0.03481 0.68565 0.0
C818 C 0.23484 0.2093 0.66556 0.0
C819 C 0.23771 0.11983 0.66793 0.0
C820 C 0.23972 0.25349 0.65696 0.0
C821 C 0.25039 0.25564 0.64167 0.0
C822 C 0.24076 0.16655 0.65892 0.0
C823 C 0.25497 0.21149 0.63538 0.0
C824 C 0.24635 0.07845 0.66149 0.0
C825 C 0.22556 0.07647 0.69162 0.0
N826 N 0.25044 0.16902 0.64403 0.0
N827 N 0.22745 0.11729 0.68278 0.0
H828 H 0.31625 0.22969 0.12802 0.0
H829 H 0.37561 0.12245 0.20426 0.0
H830 H 0.27223 0.0592 0.13684 0.0
H831 H 0.38869 0.28396 0.19993 0.0
H832 H 0.3515 0.10441 0.17816 0.0
H833 H 0.35598 0.25577 0.15301 0.0
C834 C 0.31539 0.19792 0.13518 0.0
C835 C 0.29053 0.14212 0.13045 0.0
C836 C 0.35973 0.14392 0.18286 0.0
C837 C 0.33568 0.17147 0.15887 0.0
C838 C 0.37327 0.15412 0.19778 0.0
C839 C 0.38296 0.20429 0.2043 0.0
C840 C 0.35574 0.18413 0.17434 0.0
C841 C 0.38125 0.24468 0.19529 0.0
C842 C 0.33778 0.21273 0.14942 0.0
C843 C 0.29009 0.10244 0.14015 0.0
N844 N 0.36725 0.23351 0.18074 0.0
N845 N 0.31226 0.11788 0.15389 0.0
H846 H 0.1842 0.35815 0.45749 0.0
H847 H 0.19229 0.29964 0.54378 0.0
H848 H 0.1208 0.1944 0.47661 0.0
H849 H 0.23718 0.46262 0.52679 0.0
H850 H 0.1702 0.2621 0.51883 0.0
H851 H 0.2057 0.39861 0.48242 0.0
C852 C 0.17431 0.33064 0.46691 0.0
C853 C 0.15101 0.27277 0.46494 0.0
C854 C 0.18503 0.30615 0.52049 0.0
C855 C 0.17623 0.31882 0.4934 0.0
C856 C 0.19831 0.32781 0.53476 0.0
C857 C 0.21723 0.38457 0.53736 0.0
C858 C 0.19065 0.34137 0.50865 0.0
C859 C 0.22257 0.41861 0.52524 0.0
C860 C 0.18693 0.35382 0.48112 0.0
C861 C 0.13971 0.23926 0.47755 0.0
N862 N 0.20944 0.3965 0.51137 0.0
N863 N 0.1526 0.26279 0.49121 0.0
H864 H 0.76257 0.1252 0.86347 0.0
H865 H 0.90059 0.26748 0.78595 0.0
H866 H 0.92183 0.27668 0.85934 0.0
H867 H 0.75286 0.10494 0.78947 0.0
H868 H 0.90672 0.27314 0.81292 0.0
H869 H 0.75548 0.11877 0.83643 0.0
C870 C 0.79588 0.15722 0.85688 0.0
C871 C 0.84295 0.20142 0.86367 0.0
C872 C 0.87301 0.23612 0.80781 0.0
C873 C 0.83534 0.19422 0.83277 0.0
C874 C 0.86935 0.23302 0.79241 0.0
C875 C 0.82612 0.18571 0.78545 0.0
C876 C 0.83291 0.19173 0.81636 0.0
C877 C 0.78721 0.1419 0.79438 0.0
C878 C 0.79201 0.15335 0.84146 0.0
C879 C 0.88521 0.24147 0.85459 0.0
N880 N 0.79139 0.14607 0.80938 0.0
N881 N 0.88035 0.23696 0.83962 0.0
H882 H 0.68817 0.77 0.19012 0.0
H883 H 0.59386 0.86426 0.11714 0.0
H884 H 0.67929 0.92113 0.18714 0.0
H885 H 0.62576 0.72655 0.11794 0.0
H886 H 0.62075 0.88284 0.14312 0.0
H887 H 0.66259 0.75135 0.16396 0.0
C888 C 0.68093 0.79931 0.18394 0.0
C889 C 0.68581 0.84716 0.19082 0.0
C890 C 0.62184 0.8485 0.13764 0.0
C891 C 0.6564 0.82607 0.16089 0.0
C892 C 0.60591 0.83748 0.12281 0.0
C893 C 0.60728 0.79355 0.11534 0.0
C894 C 0.63907 0.81524 0.14512 0.0
C895 C 0.62446 0.76105 0.12323 0.0
C896 C 0.66651 0.78875 0.169 0.0
C897 C 0.67663 0.8841 0.18225 0.0
N898 N 0.63957 0.77246 0.13771 0.0
N899 N 0.66204 0.87259 0.16776 0.0
H900 H 0.92184 0.6323 0.44413 0.0
H901 H 0.78049 0.68615 0.51499 0.0
H902 H 0.74968 0.59296 0.44496 0.0
H903 H 0.95594 0.73994 0.51147 0.0
H904 H 0.76774 0.65369 0.48922 0.0
H905 H 0.93416 0.67119 0.46899 0.0
C906 C 0.88657 0.63176 0.44953 0.0
C907 C 0.8347 0.60937 0.44237 0.0
C908 C 0.80911 0.67305 0.49406 0.0
C909 C 0.84844 0.65387 0.47097 0.0
C910 C 0.81646 0.69208 0.50871 0.0
C911 C 0.86928 0.71535 0.51539 0.0
C912 C 0.85491 0.67733 0.48611 0.0
C913 C 0.91436 0.7214 0.50681 0.0
C914 C 0.89362 0.65401 0.46375 0.0
C915 C 0.79024 0.60908 0.45007 0.0
N916 N 0.90608 0.70215 0.49268 0.0
N917 N 0.79816 0.6311 0.46394 0.0
H918 H 0.23629 0.9165 0.78751 0.0
H919 H 0.10396 0.79171 0.86671 0.0
H920 H 0.0839 0.75958 0.79386 0.0
H921 H 0.26909 0.93435 0.86117 0.0
H922 H 0.09204 0.7854 0.83997 0.0
H923 H 0.24516 0.92951 0.81437 0.0
C924 C 0.20441 0.88507 0.79455 0.0
C925 C 0.15927 0.83682 0.78847 0.0
C926 C 0.13084 0.81828 0.84458 0.0
C927 C 0.16941 0.85118 0.81915 0.0
C928 C 0.1375 0.82225 0.85988 0.0
C929 C 0.18757 0.86386 0.86619 0.0
C930 C 0.1745 0.85619 0.83546 0.0
C931 C 0.23005 0.90142 0.85673 0.0
C932 C 0.20971 0.89232 0.80987 0.0
C933 C 0.11964 0.79701 0.7981 0.0
N934 N 0.22257 0.89671 0.84181 0.0
N935 N 0.12563 0.80508 0.81297 0.0
loop_
_geom_bond_atom_site_label_1
_geom_bond_atom_site_label_2
_geom_bond_distance
_geom_bond_site_symmetry_2
_ccdc_geom_bond_type
C0 C1 1.351 . S
C0 N3 1.368 . S
C0 H5 0.931 . S
C1 C0 1.351 . S
C1 N2 1.373 . S
C1 H29 0.930 . S
N2 C1 1.373 . S
N2 C4 1.340 . S
N3 C0 1.368 . S
N3 C4 1.321 . S
N3 Co6 2.135 . S
C4 N2 1.340 . S
C4 N3 1.321 . S
C4 H28 0.930 . S
H5 C0 0.931 . S
Co6 N3 2.135 . S
Co6 N9 2.121 . S
Co6 O14 2.055 . S
Co6 O17 2.039 . S
Co6 N20 2.140 . S
C7 O8 1.227 . S
C7 O17 1.265 . S
O8 C7 1.227 . S
N9 Co6 2.121 . S
N9 C11 1.375 . S
N9 C12 1.313 . S
C10 C11 1.338 . S
C10 N13 1.377 . S
C10 H30 0.930 . S
C11 N9 1.375 . S
C11 C10 1.338 . S
C11 H15 0.931 . S
C12 N9 1.313 . S
C12 N13 1.344 . S
C12 H16 0.930 . S
N13 C10 1.377 . S
N13 C12 1.344 . S
O14 Co6 2.055 . S
O14 C18 1.253 . S
H15 C11 0.931 . S
H16 C12 0.930 . S
O17 Co6 2.039 . S
O17 C7 1.265 . S
C18 O14 1.253 . S
C18 O19 1.227 . S
O19 C18 1.227 . S
N20 Co6 2.140 . S
N20 C23 1.346 . S
N20 C24 1.345 . S
C21 C22 1.387 . S
C21 C25 1.391 . S
C22 C21 1.387 . S
C22 C23 1.369 . S
C22 H31 0.929 . S
C23 N20 1.346 . S
C23 C22 1.369 . S
C23 H26 0.928 . S
C24 N20 1.345 . S
C24 C25 1.371 . S
C24 H27 0.931 . S
C25 C21 1.391 . S
C25 C24 1.371 . S
C25 H32 0.930 . S
H26 C23 0.928 . S
H27 C24 0.931 . S
H28 C4 0.930 . S
H29 C1 0.930 . S
H30 C10 0.930 . S
H31 C22 0.929 . S
H32 C25 0.930 . S
C33 C34 1.351 . S
C33 N36 1.368 . S
C33 H38 0.931 . S
C34 C33 1.351 . S
C34 N35 1.373 . S
C34 H62 0.930 . S
N35 C34 1.373 . S
N35 C37 1.340 . S
N36 C33 1.368 . S
N36 C37 1.321 . S
N36 Co39 2.135 . S
C37 N35 1.340 . S
C37 N36 1.321 . S
C37 H61 0.930 . S
H38 C33 0.931 . S
Co39 N36 2.135 . S
Co39 N42 2.121 . S
Co39 O47 2.055 . S
Co39 O50 2.039 . S
Co39 N53 2.140 . S
C40 O41 1.227 . S
C40 O50 1.265 . S
O41 C40 1.227 . S
N42 Co39 2.121 . S
N42 C44 1.375 . S
N42 C45 1.313 . S
C43 C44 1.338 . S
C43 N46 1.377 . S
C43 H63 0.930 . S
C44 N42 1.375 . S
C44 C43 1.338 . S
C44 H48 0.931 . S
C45 N42 1.313 . S
C45 N46 1.344 . S
C45 H49 0.930 . S
N46 C43 1.377 . S
N46 C45 1.344 . S
O47 Co39 2.055 . S
O47 C51 1.253 . S
H48 C44 0.931 . S
H49 C45 0.930 . S
O50 Co39 2.039 . S
O50 C40 1.265 . S
C51 O47 1.253 . S
C51 O52 1.227 . S
O52 C51 1.227 . S
N53 Co39 2.140 . S
N53 C56 1.346 . S
N53 C57 1.345 . S
C54 C55 1.387 . S
C54 C58 1.391 . S
C55 C54 1.387 . S
C55 C56 1.369 . S
C55 H64 0.929 . S
C56 N53 1.346 . S
C56 C55 1.369 . S
C56 H59 0.928 . S
C57 N53 1.345 . S
C57 C58 1.371 . S
C57 H60 0.931 . S
C58 C54 1.391 . S
C58 C57 1.371 . S
C58 H65 0.930 . S
H59 C56 0.928 . S
H60 C57 0.931 . S
H61 C37 0.930 . S
H62 C34 0.930 . S
H63 C43 0.930 . S
H64 C55 0.929 . S
H65 C58 0.930 . S
C66 C67 1.351 . S
C66 N69 1.368 . S
C66 H71 0.931 . S
C67 C66 1.351 . S
C67 N68 1.373 . S
C67 H95 0.930 . S
N68 C67 1.373 . S
N68 C70 1.340 . S
N69 C66 1.368 . S
N69 C70 1.321 . S
N69 Co72 2.135 . S
C70 N68 1.340 . S
C70 N69 1.321 . S
C70 H94 0.930 . S
H71 C66 0.931 . S
Co72 N69 2.135 . S
Co72 N75 2.121 . S
Co72 O80 2.055 . S
Co72 O83 2.039 . S
Co72 N86 2.140 . S
C73 O74 1.227 . S
C73 O83 1.265 . S
O74 C73 1.227 . S
N75 Co72 2.121 . S
N75 C77 1.375 . S
N75 C78 1.313 . S
C76 C77 1.338 . S
C76 N79 1.377 . S
C76 H96 0.930 . S
C77 N75 1.375 . S
C77 C76 1.338 . S
C77 H81 0.931 . S
C78 N75 1.313 . S
C78 N79 1.344 . S
C78 H82 0.930 . S
N79 C76 1.377 . S
N79 C78 1.344 . S
O80 Co72 2.055 . S
O80 C84 1.253 . S
H81 C77 0.931 . S
H82 C78 0.930 . S
O83 Co72 2.039 . S
O83 C73 1.265 . S
C84 O80 1.253 . S
C84 O85 1.227 . S
O85 C84 1.227 . S
N86 Co72 2.140 . S
N86 C89 1.346 . S
N86 C90 1.345 . S
C87 C88 1.387 . S
C87 C91 1.391 . S
C88 C87 1.387 . S
C88 C89 1.369 . S
C88 H97 0.929 . S
C89 N86 1.346 . S
C89 C88 1.369 . S
C89 H92 0.928 . S
C90 N86 1.345 . S
C90 C91 1.371 . S
C90 H93 0.931 . S
C91 C87 1.391 . S
C91 C90 1.371 . S
C91 H98 0.930 . S
H92 C89 0.928 . S
H93 C90 0.931 . S
H94 C70 0.930 . S
H95 C67 0.930 . S
H96 C76 0.930 . S
H97 C88 0.929 . S
H98 C91 0.930 . S
C99 C100 1.351 . S
C99 N102 1.368 . S
C99 H104 0.931 . S
C100 C99 1.351 . S
C100 N101 1.373 . S
C100 H128 0.930 . S
N101 C100 1.373 . S
N101 C103 1.340 . S
N102 C99 1.368 . S
N102 C103 1.321 . S
N102 Co105 2.135 . S
C103 N101 1.340 . S
C103 N102 1.321 . S
C103 H127 0.930 . S
H104 C99 0.931 . S
Co105 N102 2.135 . S
Co105 N108 2.121 . S
Co105 O113 2.055 . S
Co105 O116 2.039 . S
Co105 N119 2.140 . S
C106 O107 1.227 . S
C106 O116 1.265 . S
O107 C106 1.227 . S
N108 Co105 2.121 . S
N108 C110 1.375 . S
N108 C111 1.313 . S
C109 C110 1.338 . S
C109 N112 1.377 . S
C109 H129 0.930 . S
C110 N108 1.375 . S
C110 C109 1.338 . S
C110 H114 0.931 . S
C111 N108 1.313 . S
C111 N112 1.344 . S
C111 H115 0.930 . S
N112 C109 1.377 . S
N112 C111 1.344 . S
O113 Co105 2.055 . S
O113 C117 1.253 . S
H114 C110 0.931 . S
H115 C111 0.930 . S
O116 Co105 2.039 . S
O116 C106 1.265 . S
C117 O113 1.253 . S
C117 O118 1.227 . S
O118 C117 1.227 . S
N119 Co105 2.140 . S
N119 C122 1.346 . S
N119 C123 1.345 . S
C120 C121 1.387 . S
C120 C124 1.391 . S
C121 C120 1.387 . S
C121 C122 1.369 . S
C121 H130 0.929 . S
C122 N119 1.346 . S
C122 C121 1.369 . S
C122 H125 0.928 . S
C123 N119 1.345 . S
C123 C124 1.371 . S
C123 H126 0.931 . S
C124 C120 1.391 . S
C124 C123 1.371 . S
C124 H131 0.930 . S
H125 C122 0.928 . S
H126 C123 0.931 . S
H127 C103 0.930 . S
H128 C100 0.930 . S
H129 C109 0.930 . S
H130 C121 0.929 . S
H131 C124 0.930 . S
C132 C133 1.351 . S
C132 N135 1.368 . S
C132 H137 0.931 . S
C133 C132 1.351 . S
C133 N134 1.373 . S
C133 H161 0.930 . S
N134 C133 1.373 . S
N134 C136 1.340 . S
N135 C132 1.368 . S
N135 C136 1.321 . S
N135 Co138 2.135 . S
C136 N134 1.340 . S
C136 N135 1.321 . S
C136 H160 0.930 . S
H137 C132 0.931 . S
Co138 N135 2.135 . S
Co138 N141 2.121 . S
Co138 O146 2.055 . S
Co138 O149 2.039 . S
Co138 N152 2.140 . S
C139 O140 1.227 . S
C139 O149 1.265 . S
O140 C139 1.227 . S
N141 Co138 2.121 . S
N141 C143 1.375 . S
N141 C144 1.313 . S
C142 C143 1.338 . S
C142 N145 1.377 . S
C142 H162 0.930 . S
C143 N141 1.375 . S
C143 C142 1.338 . S
C143 H147 0.931 . S
C144 N141 1.313 . S
C144 N145 1.344 . S
C144 H148 0.930 . S
N145 C142 1.377 . S
N145 C144 1.344 . S
O146 Co138 2.055 . S
O146 C150 1.253 . S
H147 C143 0.931 . S
H148 C144 0.930 . S
O149 Co138 2.039 . S
O149 C139 1.265 . S
C150 O146 1.253 . S
C150 O151 1.227 . S
O151 C150 1.227 . S
N152 Co138 2.140 . S
N152 C155 1.346 . S
N152 C156 1.345 . S
C153 C154 1.387 . S
C153 C157 1.391 . S
C154 C153 1.387 . S
C154 C155 1.369 . S
C154 H163 0.929 . S
C155 N152 1.346 . S
C155 C154 1.369 . S
C155 H158 0.928 . S
C156 N152 1.345 . S
C156 C157 1.371 . S
C156 H159 0.931 . S
C157 C153 1.391 . S
C157 C156 1.371 . S
C157 H164 0.930 . S
H158 C155 0.928 . S
H159 C156 0.931 . S
H160 C136 0.930 . S
H161 C133 0.930 . S
H162 C142 0.930 . S
H163 C154 0.929 . S
H164 C157 0.930 . S
C165 C166 1.351 . S
C165 N168 1.368 . S
C165 H170 0.931 . S
C166 C165 1.351 . S
C166 N167 1.373 . S
C166 H194 0.930 . S
N167 C166 1.373 . S
N167 C169 1.340 . S
N168 C165 1.368 . S
N168 C169 1.321 . S
N168 Co171 2.135 . S
C169 N167 1.340 . S
C169 N168 1.321 . S
C169 H193 0.930 . S
H170 C165 0.931 . S
Co171 N168 2.135 . S
Co171 N174 2.121 . S
Co171 O179 2.055 . S
Co171 O182 2.039 . S
Co171 N185 2.140 . S
C172 O173 1.227 . S
C172 O182 1.265 . S
O173 C172 1.227 . S
N174 Co171 2.121 . S
N174 C176 1.375 . S
N174 C177 1.313 . S
C175 C176 1.338 . S
C175 N178 1.377 . S
C175 H195 0.930 . S
C176 N174 1.375 . S
C176 C175 1.338 . S
C176 H180 0.931 . S
C177 N174 1.313 . S
C177 N178 1.344 . S
C177 H181 0.930 . S
N178 C175 1.377 . S
N178 C177 1.344 . S
O179 Co171 2.055 . S
O179 C183 1.253 . S
H180 C176 0.931 . S
H181 C177 0.930 . S
O182 Co171 2.039 . S
O182 C172 1.265 . S
C183 O179 1.253 . S
C183 O184 1.227 . S
O184 C183 1.227 . S
N185 Co171 2.140 . S
N185 C188 1.346 . S
N185 C189 1.345 . S
C186 C187 1.387 . S
C186 C190 1.391 . S
C187 C186 1.387 . S
C187 C188 1.369 . S
C187 H196 0.929 . S
C188 N185 1.346 . S
C188 C187 1.369 . S
C188 H191 0.928 . S
C189 N185 1.345 . S
C189 C190 1.371 . S
C189 H192 0.931 . S
C190 C186 1.391 . S
C190 C189 1.371 . S
C190 H197 0.930 . S
H191 C188 0.928 . S
H192 C189 0.931 . S
H193 C169 0.930 . S
H194 C166 0.930 . S
H195 C175 0.930 . S
H196 C187 0.929 . S
H197 C190 0.930 . S
C198 C199 1.351 . S
C198 N201 1.368 . S
C198 H203 0.931 . S
C199 C198 1.351 . S
C199 N200 1.373 . S
C199 H227 0.930 . S
N200 C199 1.373 . S
N200 C202 1.340 . S
N201 C198 1.368 . S
N201 C202 1.321 . S
N201 Co204 2.135 . S
C202 N200 1.340 . S
C202 N201 1.321 . S
C202 H226 0.930 . S
H203 C198 0.931 . S
Co204 N201 2.135 . S
Co204 N207 2.121 . S
Co204 O212 2.055 . S
Co204 O215 2.039 . S
Co204 N218 2.140 . S
C205 O206 1.227 . S
C205 O215 1.265 . S
O206 C205 1.227 . S
N207 Co204 2.121 . S
N207 C209 1.375 . S
N207 C210 1.313 . S
C208 C209 1.338 . S
C208 N211 1.377 . S
C208 H228 0.930 . S
C209 N207 1.375 . S
C209 C208 1.338 . S
C209 H213 0.931 . S
C210 N207 1.313 . S
C210 N211 1.344 . S
C210 H214 0.930 . S
N211 C208 1.377 . S
N211 C210 1.344 . S
O212 Co204 2.055 . S
O212 C216 1.253 . S
H213 C209 0.931 . S
H214 C210 0.930 . S
O215 Co204 2.039 . S
O215 C205 1.265 . S
C216 O212 1.253 . S
C216 O217 1.227 . S
O217 C216 1.227 . S
N218 Co204 2.140 . S
N218 C221 1.346 . S
N218 C222 1.345 . S
C219 C220 1.387 . S
C219 C223 1.391 . S
C220 C219 1.387 . S
C220 C221 1.369 . S
C220 H229 0.929 . S
C221 N218 1.346 . S
C221 C220 1.369 . S
C221 H224 0.928 . S
C222 N218 1.345 . S
C222 C223 1.371 . S
C222 H225 0.931 . S
C223 C219 1.391 . S
C223 C222 1.371 . S
C223 H230 0.930 . S
H224 C221 0.928 . S
H225 C222 0.931 . S
H226 C202 0.930 . S
H227 C199 0.930 . S
H228 C208 0.930 . S
H229 C220 0.929 . S
H230 C223 0.930 . S
C231 C232 1.351 . S
C231 N234 1.368 . S
C231 H236 0.931 . S
C232 C231 1.351 . S
C232 N233 1.373 . S
C232 H260 0.930 . S
N233 C232 1.373 . S
N233 C235 1.340 . S
N234 C231 1.368 . S
N234 C235 1.321 . S
N234 Co237 2.135 . S
C235 N233 1.340 . S
C235 N234 1.321 . S
C235 H259 0.930 . S
H236 C231 0.931 . S
Co237 N234 2.135 . S
Co237 N240 2.121 . S
Co237 O245 2.055 . S
Co237 O248 2.039 . S
Co237 N251 2.140 . S
C238 O239 1.227 . S
C238 O248 1.265 . S
O239 C238 1.227 . S
N240 Co237 2.121 . S
N240 C242 1.375 . S
N240 C243 1.313 . S
C241 C242 1.338 . S
C241 N244 1.377 . S
C241 H261 0.930 . S
C242 N240 1.375 . S
C242 C241 1.338 . S
C242 H246 0.931 . S
C243 N240 1.313 . S
C243 N244 1.344 . S
C243 H247 0.930 . S
N244 C241 1.377 . S
N244 C243 1.344 . S
O245 Co237 2.055 . S
O245 C249 1.253 . S
H246 C242 0.931 . S
H247 C243 0.930 . S
O248 Co237 2.039 . S
O248 C238 1.265 . S
C249 O245 1.253 . S
C249 O250 1.227 . S
O250 C249 1.227 . S
N251 Co237 2.140 . S
N251 C254 1.346 . S
N251 C255 1.345 . S
C252 C253 1.387 . S
C252 C256 1.391 . S
C253 C252 1.387 . S
C253 C254 1.369 . S
C253 H262 0.929 . S
C254 N251 1.346 . S
C254 C253 1.369 . S
C254 H257 0.928 . S
C255 N251 1.345 . S
C255 C256 1.371 . S
C255 H258 0.931 . S
C256 C252 1.391 . S
C256 C255 1.371 . S
C256 H263 0.930 . S
H257 C254 0.928 . S
H258 C255 0.931 . S
H259 C235 0.930 . S
H260 C232 0.930 . S
H261 C241 0.930 . S
H262 C253 0.929 . S
H263 C256 0.930 . S
C264 C265 1.351 . S
C264 N267 1.368 . S
C264 H269 0.931 . S
C265 C264 1.351 . S
C265 N266 1.373 . S
C265 H293 0.930 . S
N266 C265 1.373 . S
N266 C268 1.340 . S
N267 C264 1.368 . S
N267 C268 1.321 . S
N267 Co270 2.135 . S
C268 N266 1.340 . S
C268 N267 1.321 . S
C268 H292 0.930 . S
H269 C264 0.931 . S
Co270 N267 2.135 . S
Co270 N273 2.121 . S
Co270 O278 2.055 . S
Co270 O281 2.039 . S
Co270 N284 2.140 . S
C271 O272 1.227 . S
C271 O281 1.265 . S
O272 C271 1.227 . S
N273 Co270 2.121 . S
N273 C275 1.375 . S
N273 C276 1.313 . S
C274 C275 1.338 . S
C274 N277 1.377 . S
C274 H294 0.930 . S
C275 N273 1.375 . S
C275 C274 1.338 . S
C275 H279 0.931 . S
C276 N273 1.313 . S
C276 N277 1.344 . S
C276 H280 0.930 . S
N277 C274 1.377 . S
N277 C276 1.344 . S
O278 Co270 2.055 . S
O278 C282 1.253 . S
H279 C275 0.931 . S
H280 C276 0.930 . S
O281 Co270 2.039 . S
O281 C271 1.265 . S
C282 O278 1.253 . S
C282 O283 1.227 . S
O283 C282 1.227 . S
N284 Co270 2.140 . S
N284 C287 1.346 . S
N284 C288 1.345 . S
C285 C286 1.387 . S
C285 C289 1.391 . S
C286 C285 1.387 . S
C286 C287 1.369 . S
C286 H295 0.929 . S
C287 N284 1.346 . S
C287 C286 1.369 . S
C287 H290 0.928 . S
C288 N284 1.345 . S
C288 C289 1.371 . S
C288 H291 0.931 . S
C289 C285 1.391 . S
C289 C288 1.371 . S
C289 H296 0.930 . S
H290 C287 0.928 . S
H291 C288 0.931 . S
H292 C268 0.930 . S
H293 C265 0.930 . S
H294 C274 0.930 . S
H295 C286 0.929 . S
H296 C289 0.930 . S
C297 C298 1.351 . S
C297 N300 1.368 . S
C297 H302 0.931 . S
C298 C297 1.351 . S
C298 N299 1.373 . S
C298 H326 0.930 . S
N299 C298 1.373 . S
N299 C301 1.340 . S
N300 C297 1.368 . S
N300 C301 1.321 . S
N300 Co303 2.135 . S
C301 N299 1.340 . S
C301 N300 1.321 . S
C301 H325 0.930 . S
H302 C297 0.931 . S
Co303 N300 2.135 . S
Co303 N306 2.121 . S
Co303 O311 2.055 . S
Co303 O314 2.039 . S
Co303 N317 2.140 . S
C304 O305 1.227 . S
C304 O314 1.265 . S
O305 C304 1.227 . S
N306 Co303 2.121 . S
N306 C308 1.375 . S
N306 C309 1.313 . S
C307 C308 1.338 . S
C307 N310 1.377 . S
C307 H327 0.930 . S
C308 N306 1.375 . S
C308 C307 1.338 . S
C308 H312 0.931 . S
C309 N306 1.313 . S
C309 N310 1.344 . S
C309 H313 0.930 . S
N310 C307 1.377 . S
N310 C309 1.344 . S
O311 Co303 2.055 . S
O311 C315 1.253 . S
H312 C308 0.931 . S
H313 C309 0.930 . S
O314 Co303 2.039 . S
O314 C304 1.265 . S
C315 O311 1.253 . S
C315 O316 1.227 . S
O316 C315 1.227 . S
N317 Co303 2.140 . S
N317 C320 1.346 . S
N317 C321 1.345 . S
C318 C319 1.387 . S
C318 C322 1.391 . S
C319 C318 1.387 . S
C319 C320 1.369 . S
C319 H328 0.929 . S
C320 N317 1.346 . S
C320 C319 1.369 . S
C320 H323 0.928 . S
C321 N317 1.345 . S
C321 C322 1.371 . S
C321 H324 0.931 . S
C322 C318 1.391 . S
C322 C321 1.371 . S
C322 H329 0.930 . S
H323 C320 0.928 . S
H324 C321 0.931 . S
H325 C301 0.930 . S
H326 C298 0.930 . S
H327 C307 0.930 . S
H328 C319 0.929 . S
H329 C322 0.930 . S
C330 C331 1.351 . S
C330 N333 1.368 . S
C330 H335 0.931 . S
C331 C330 1.351 . S
C331 N332 1.373 . S
C331 H359 0.930 . S
N332 C331 1.373 . S
N332 C334 1.340 . S
N333 C330 1.368 . S
N333 C334 1.321 . S
N333 Co336 2.135 . S
C334 N332 1.340 . S
C334 N333 1.321 . S
C334 H358 0.930 . S
H335 C330 0.931 . S
Co336 N333 2.135 . S
Co336 N339 2.121 . S
Co336 O344 2.055 . S
Co336 O347 2.039 . S
Co336 N350 2.140 . S
C337 O338 1.227 . S
C337 O347 1.265 . S
O338 C337 1.227 . S
N339 Co336 2.121 . S
N339 C341 1.375 . S
N339 C342 1.313 . S
C340 C341 1.338 . S
C340 N343 1.377 . S
C340 H360 0.930 . S
C341 N339 1.375 . S
C341 C340 1.338 . S
C341 H345 0.931 . S
C342 N339 1.313 . S
C342 N343 1.344 . S
C342 H346 0.930 . S
N343 C340 1.377 . S
N343 C342 1.344 . S
O344 Co336 2.055 . S
O344 C348 1.253 . S
H345 C341 0.931 . S
H346 C342 0.930 . S
O347 Co336 2.039 . S
O347 C337 1.265 . S
C348 O344 1.253 . S
C348 O349 1.227 . S
O349 C348 1.227 . S
N350 Co336 2.140 . S
N350 C353 1.346 . S
N350 C354 1.345 . S
C351 C352 1.387 . S
C351 C355 1.391 . S
C352 C351 1.387 . S
C352 C353 1.369 . S
C352 H361 0.929 . S
C353 N350 1.346 . S
C353 C352 1.369 . S
C353 H356 0.928 . S
C354 N350 1.345 . S
C354 C355 1.371 . S
C354 H357 0.931 . S
C355 C351 1.391 . S
C355 C354 1.371 . S
C355 H362 0.930 . S
H356 C353 0.928 . S
H357 C354 0.931 . S
H358 C334 0.930 . S
H359 C331 0.930 . S
H360 C340 0.930 . S
H361 C352 0.929 . S
H362 C355 0.930 . S
C363 C364 1.351 . S
C363 N366 1.368 . S
C363 H368 0.931 . S
C364 C363 1.351 . S
C364 N365 1.373 . S
C364 H392 0.930 . S
N365 C364 1.373 . S
N365 C367 1.340 . S
N366 C363 1.368 . S
N366 C367 1.321 . S
N366 Co369 2.135 . S
C367 N365 1.340 . S
C367 N366 1.321 . S
C367 H391 0.930 . S
H368 C363 0.931 . S
Co369 N366 2.135 . S
Co369 N372 2.121 . S
Co369 O377 2.055 . S
Co369 O380 2.039 . S
Co369 N383 2.140 . S
C370 O371 1.227 . S
C370 O380 1.265 . S
O371 C370 1.227 . S
N372 Co369 2.121 . S
N372 C374 1.375 . S
N372 C375 1.313 . S
C373 C374 1.338 . S
C373 N376 1.377 . S
C373 H393 0.930 . S
C374 N372 1.375 . S
C374 C373 1.338 . S
C374 H378 0.931 . S
C375 N372 1.313 . S
C375 N376 1.344 . S
C375 H379 0.930 . S
N376 C373 1.377 . S
N376 C375 1.344 . S
O377 Co369 2.055 . S
O377 C381 1.253 . S
H378 C374 0.931 . S
H379 C375 0.930 . S
O380 Co369 2.039 . S
O380 C370 1.265 . S
C381 O377 1.253 . S
C381 O382 1.227 . S
O382 C381 1.227 . S
N383 Co369 2.140 . S
N383 C386 1.346 . S
N383 C387 1.345 . S
C384 C385 1.387 . S
C384 C388 1.391 . S
C385 C384 1.387 . S
C385 C386 1.369 . S
C385 H394 0.929 . S
C386 N383 1.346 . S
C386 C385 1.369 . S
C386 H389 0.928 . S
C387 N383 1.345 . S
C387 C388 1.371 . S
C387 H390 0.931 . S
C388 C384 1.391 . S
C388 C387 1.371 . S
C388 H395 0.930 . S
H389 C386 0.928 . S
H390 C387 0.931 . S
H391 C367 0.930 . S
H392 C364 0.930 . S
H393 C373 0.930 . S
H394 C385 0.929 . S
H395 C388 0.930 . S
H396 C402 0.930 . S
H397 C406 0.930 . S
H398 C411 0.929 . S
H399 C409 0.929 . S
H400 C404 0.929 . S
H401 C410 0.929 . S
C402 H396 0.930 . S
C402 C403 1.367 . S
C402 C410 1.378 . S
C403 C402 1.367 . S
C403 C411 1.433 . S
C404 H400 0.929 . S
C404 C406 1.378 . S
C404 C408 1.350 . S
C405 C408 1.463 . S
C405 C410 1.350 . S
C405 N413 1.427 . S
C406 H397 0.930 . S
C406 C404 1.378 . S
C406 C407 1.367 . S
C407 C406 1.367 . S
C407 C409 1.433 . S
C408 C404 1.350 . S
C408 C405 1.463 . S
C408 N412 1.427 . S
C409 H399 0.929 . S
C409 C407 1.433 . S
C409 N412 1.384 . S
C410 H401 0.929 . S
C410 C402 1.378 . S
C410 C405 1.350 . S
C411 H398 0.929 . S
C411 C403 1.433 . S
C411 N413 1.384 . S
N412 C408 1.427 . S
N412 C409 1.384 . S
N413 C405 1.427 . S
N413 C411 1.384 . S
H414 C420 0.930 1_655 S
H415 C424 0.930 1_455 S
H416 C429 0.929 . S
H417 C427 0.929 . S
H418 C422 0.929 . S
H419 C428 0.929 . S
C420 H414 0.930 1_455 S
C420 C421 1.367 . S
C420 C428 1.378 1_455 S
C421 C420 1.367 . S
C421 C429 1.433 . S
C422 H418 0.929 . S
C422 C424 1.378 1_455 S
C422 C426 1.350 1_455 S
C423 C426 1.463 1_455 S
C423 C428 1.350 1_455 S
C423 N431 1.427 . S
C424 H415 0.930 1_655 S
C424 C422 1.378 1_655 S
C424 C425 1.367 . S
C425 C424 1.367 . S
C425 C427 1.433 . S
C426 C422 1.350 1_655 S
C426 C423 1.463 1_655 S
C426 N430 1.427 . S
C427 H417 0.929 . S
C427 C425 1.433 . S
C427 N430 1.384 . S
C428 H419 0.929 . S
C428 C420 1.378 1_655 S
C428 C423 1.350 1_655 S
C429 H416 0.929 . S
C429 C421 1.433 . S
C429 N431 1.384 . S
N430 C426 1.427 . S
N430 C427 1.384 . S
N431 C423 1.427 . S
N431 C429 1.384 . S
H432 C438 0.930 . S
H433 C442 0.930 . S
H434 C447 0.929 . S
H435 C445 0.929 . S
H436 C440 0.929 . S
H437 C446 0.929 . S
C438 H432 0.930 . S
C438 C439 1.367 . S
C438 C446 1.378 . S
C439 C438 1.367 . S
C439 C447 1.433 . S
C440 H436 0.929 . S
C440 C442 1.378 . S
C440 C444 1.350 . S
C441 C444 1.463 1_545 S
C441 C446 1.350 . S
C441 N449 1.427 . S
C442 H433 0.930 . S
C442 C440 1.378 . S
C442 C443 1.367 . S
C443 C442 1.367 . S
C443 C445 1.433 . S
C444 C440 1.350 . S
C444 C441 1.463 1_565 S
C444 N448 1.427 . S
C445 H435 0.929 . S
C445 C443 1.433 . S
C445 N448 1.384 . S
C446 H437 0.929 . S
C446 C438 1.378 . S
C446 C441 1.350 . S
C447 H434 0.929 . S
C447 C439 1.433 . S
C447 N449 1.384 . S
N448 C444 1.427 . S
N448 C445 1.384 . S
N449 C441 1.427 . S
N449 C447 1.384 . S
H450 C456 0.930 . S
H451 C460 0.930 . S
H452 C465 0.929 . S
H453 C463 0.929 . S
H454 C458 0.929 . S
H455 C464 0.929 . S
C456 H450 0.930 . S
C456 C457 1.367 . S
C456 C464 1.378 . S
C457 C456 1.367 . S
C457 C465 1.433 . S
C458 H454 0.929 . S
C458 C460 1.378 . S
C458 C462 1.350 . S
C459 C462 1.463 . S
C459 C464 1.350 . S
C459 N467 1.427 . S
C460 H451 0.930 . S
C460 C458 1.378 . S
C460 C461 1.367 . S
C461 C460 1.367 . S
C461 C463 1.433 . S
C462 C458 1.350 . S
C462 C459 1.463 . S
C462 N466 1.427 . S
C463 H453 0.929 . S
C463 C461 1.433 . S
C463 N466 1.384 . S
C464 H455 0.929 . S
C464 C456 1.378 . S
C464 C459 1.350 . S
C465 H452 0.929 . S
C465 C457 1.433 . S
C465 N467 1.384 . S
N466 C462 1.427 . S
N466 C463 1.384 . S
N467 C459 1.427 . S
N467 C465 1.384 . S
H468 C474 0.930 1_455 S
H469 C478 0.930 1_655 S
H470 C483 0.929 . S
H471 C481 0.929 . S
H472 C476 0.929 . S
H473 C482 0.929 . S
C474 H468 0.930 1_655 S
C474 C475 1.367 . S
C474 C482 1.378 1_655 S
C475 C474 1.367 . S
C475 C483 1.433 . S
C476 H472 0.929 . S
C476 C478 1.378 1_655 S
C476 C480 1.350 1_655 S
C477 C480 1.463 1_655 S
C477 C482 1.350 1_655 S
C477 N485 1.427 . S
C478 H469 0.930 1_455 S
C478 C476 1.378 1_455 S
C478 C479 1.367 . S
C479 C478 1.367 . S
C479 C481 1.433 . S
C480 C476 1.350 1_455 S
C480 C477 1.463 1_455 S
C480 N484 1.427 . S
C481 H471 0.929 . S
C481 C479 1.433 . S
C481 N484 1.384 . S
C482 H473 0.929 . S
C482 C474 1.378 1_455 S
C482 C477 1.350 1_455 S
C483 H470 0.929 . S
C483 C475 1.433 . S
C483 N485 1.384 . S
N484 C480 1.427 . S
N484 C481 1.384 . S
N485 C477 1.427 . S
N485 C483 1.384 . S
H486 C492 0.930 . S
H487 C496 0.930 . S
H488 C501 0.929 . S
H489 C499 0.929 . S
H490 C494 0.929 . S
H491 C500 0.929 . S
C492 H486 0.930 . S
C492 C493 1.367 . S
C492 C500 1.378 . S
C493 C492 1.367 . S
C493 C501 1.433 . S
C494 H490 0.929 . S
C494 C496 1.378 . S
C494 C498 1.350 . S
C495 C498 1.463 1_565 S
C495 C500 1.350 . S
C495 N503 1.427 1_565 S
C496 H487 0.930 . S
C496 C494 1.378 . S
C496 C497 1.367 . S
C497 C496 1.367 . S
C497 C499 1.433 . S
C498 C494 1.350 . S
C498 C495 1.463 1_545 S
C498 N502 1.427 1_545 S
C499 H489 0.929 . S
C499 C497 1.433 . S
C499 N502 1.384 1_545 S
C500 H491 0.929 . S
C500 C492 1.378 . S
C500 C495 1.350 . S
C501 H488 0.929 . S
C501 C493 1.433 . S
C501 N503 1.384 1_565 S
N502 C498 1.427 1_565 S
N502 C499 1.384 1_565 S
N503 C495 1.427 1_545 S
N503 C501 1.384 1_545 S
H504 C510 0.930 . S
H505 C514 0.930 . S
H506 C519 0.929 . S
H507 C517 0.929 . S
H508 C512 0.929 . S
H509 C518 0.929 . S
C510 H504 0.930 . S
C510 C511 1.367 . S
C510 C518 1.378 . S
C511 C510 1.367 . S
C511 C519 1.433 . S
C512 H508 0.929 . S
C512 C514 1.378 . S
C512 C516 1.350 . S
C513 C516 1.463 1_566 S
C513 C518 1.350 . S
C513 N521 1.427 . S
C514 H505 0.930 . S
C514 C512 1.378 . S
C514 C515 1.367 . S
C515 C514 1.367 . S
C515 C517 1.433 . S
C516 C512 1.350 . S
C516 C513 1.463 1_544 S
C516 N520 1.427 . S
C517 H507 0.929 . S
C517 C515 1.433 . S
C517 N520 1.384 . S
C518 H509 0.929 . S
C518 C510 1.378 . S
C518 C513 1.350 . S
C519 H506 0.929 . S
C519 C511 1.433 . S
C519 N521 1.384 . S
N520 C516 1.427 . S
N520 C517 1.384 . S
N521 C513 1.427 . S
N521 C519 1.384 . S
H522 C528 0.930 . S
H523 C532 0.930 . S
H524 C537 0.929 . S
H525 C535 0.929 . S
H526 C530 0.929 . S
H527 C536 0.929 . S
C528 H522 0.930 . S
C528 C529 1.367 . S
C528 C536 1.378 . S
C529 C528 1.367 . S
C529 C537 1.433 . S
C530 H526 0.929 . S
C530 C532 1.378 . S
C530 C534 1.350 . S
C531 C534 1.463 . S
C531 C536 1.350 . S
C531 N539 1.427 . S
C532 H523 0.930 . S
C532 C530 1.378 . S
C532 C533 1.367 . S
C533 C532 1.367 . S
C533 C535 1.433 . S
C534 C530 1.350 . S
C534 C531 1.463 . S
C534 N538 1.427 . S
C535 H525 0.929 . S
C535 C533 1.433 . S
C535 N538 1.384 . S
C536 H527 0.929 . S
C536 C528 1.378 . S
C536 C531 1.350 . S
C537 H524 0.929 . S
C537 C529 1.433 . S
C537 N539 1.384 . S
N538 C534 1.427 . S
N538 C535 1.384 . S
N539 C531 1.427 . S
N539 C537 1.384 . S
H540 C546 0.930 . S
H541 C550 0.930 . S
H542 C555 0.929 . S
H543 C553 0.929 . S
H544 C548 0.929 . S
H545 C554 0.929 . S
C546 H540 0.930 . S
C546 C547 1.367 . S
C546 C554 1.378 . S
C547 C546 1.367 . S
C547 C555 1.433 . S
C548 H544 0.929 . S
C548 C550 1.378 . S
C548 C552 1.350 . S
C549 C552 1.463 1_455 S
C549 C554 1.350 . S
C549 N557 1.427 1_455 S
C550 H541 0.930 . S
C550 C548 1.378 . S
C550 C551 1.367 . S
C551 C550 1.367 . S
C551 C553 1.433 . S
C552 C548 1.350 . S
C552 C549 1.463 1_655 S
C552 N556 1.427 1_655 S
C553 H543 0.929 . S
C553 C551 1.433 . S
C553 N556 1.384 1_655 S
C554 H545 0.929 . S
C554 C546 1.378 . S
C554 C549 1.350 . S
C555 H542 0.929 . S
C555 C547 1.433 . S
C555 N557 1.384 1_455 S
N556 C552 1.427 1_455 S
N556 C553 1.384 1_455 S
N557 C549 1.427 1_655 S
N557 C555 1.384 1_655 S
H558 C564 0.930 . S
H559 C568 0.930 . S
H560 C573 0.929 . S
H561 C571 0.929 . S
H562 C566 0.929 . S
H563 C572 0.929 . S
C564 H558 0.930 . S
C564 C565 1.367 . S
C564 C572 1.378 . S
C565 C564 1.367 . S
C565 C573 1.433 . S
C566 H562 0.929 . S
C566 C568 1.378 . S
C566 C570 1.350 . S
C567 C570 1.463 1_564 S
C567 C572 1.350 . S
C567 N575 1.427 . S
C568 H559 0.930 . S
C568 C566 1.378 . S
C568 C569 1.367 . S
C569 C568 1.367 . S
C569 C571 1.433 . S
C570 C566 1.350 . S
C570 C567 1.463 1_546 S
C570 N574 1.427 1_545 S
C571 H561 0.929 . S
C571 C569 1.433 . S
C571 N574 1.384 1_545 S
C572 H563 0.929 . S
C572 C564 1.378 . S
C572 C567 1.350 . S
C573 H560 0.929 . S
C573 C565 1.433 . S
C573 N575 1.383 . S
N574 C570 1.427 1_565 S
N574 C571 1.384 1_565 S
N575 C567 1.427 . S
N575 C573 1.383 . S
H576 C582 0.930 . S
H577 C586 0.930 . S
H578 C591 0.929 . S
H579 C589 0.929 . S
H580 C584 0.929 . S
H581 C590 0.929 . S
C582 H576 0.930 . S
C582 C583 1.367 . S
C582 C590 1.378 . S
C583 C582 1.367 . S
C583 C591 1.433 . S
C584 H580 0.929 . S
C584 C586 1.378 . S
C584 C588 1.350 . S
C585 C588 1.463 . S
C585 C590 1.350 . S
C585 N593 1.427 . S
C586 H577 0.930 . S
C586 C584 1.378 . S
C586 C587 1.367 . S
C587 C586 1.367 . S
C587 C589 1.433 . S
C588 C584 1.350 . S
C588 C585 1.463 . S
C588 N592 1.427 . S
C589 H579 0.929 . S
C589 C587 1.433 . S
C589 N592 1.384 . S
C590 H581 0.929 . S
C590 C582 1.378 . S
C590 C585 1.350 . S
C591 H578 0.929 . S
C591 C583 1.433 . S
C591 N593 1.384 . S
N592 C588 1.427 . S
N592 C589 1.384 . S
N593 C585 1.427 . S
N593 C591 1.384 . S
H594 C600 0.930 . S
H595 C604 0.930 . S
H596 C609 0.929 1_655 S
H597 C607 0.929 1_455 S
H598 C602 0.929 . S
H599 C608 0.929 . S
C600 H594 0.930 . S
C600 C601 1.367 . S
C600 C608 1.378 . S
C601 C600 1.367 . S
C601 C609 1.433 . S
C602 H598 0.929 . S
C602 C604 1.378 . S
C602 C606 1.350 . S
C603 C606 1.463 1_455 S
C603 C608 1.350 . S
C603 N611 1.427 1_455 S
C604 H595 0.930 . S
C604 C602 1.378 . S
C604 C605 1.367 . S
C605 C604 1.367 . S
C605 C607 1.433 . S
C606 C602 1.350 . S
C606 C603 1.463 1_655 S
C606 N610 1.427 1_655 S
C607 H597 0.929 1_655 S
C607 C605 1.433 . S
C607 N610 1.384 1_655 S
C608 H599 0.929 . S
C608 C600 1.378 . S
C608 C603 1.350 . S
C609 H596 0.929 1_455 S
C609 C601 1.433 . S
C609 N611 1.384 1_455 S
N610 C606 1.427 1_455 S
N610 C607 1.384 1_455 S
N611 C603 1.427 1_655 S
N611 C609 1.384 1_655 S
H612 C618 0.930 . S
H613 C622 0.930 . S
H614 C627 0.929 . S
H615 C625 0.929 . S
H616 C620 0.929 . S
H617 C626 0.929 . S
C618 H612 0.930 . S
C618 C619 1.367 . S
C618 C626 1.378 . S
C619 C618 1.367 . S
C619 C627 1.433 . S
C620 H616 0.929 . S
C620 C622 1.378 . S
C620 C624 1.350 . S
C621 C624 1.463 1_445 S
C621 C626 1.350 . S
C621 N629 1.427 . S
C622 H613 0.930 . S
C622 C620 1.378 . S
C622 C623 1.367 . S
C623 C622 1.367 . S
C623 C625 1.433 . S
C624 C620 1.350 . S
C624 C621 1.463 1_665 S
C624 N628 1.427 . S
C625 H615 0.929 . S
C625 C623 1.433 . S
C625 N628 1.384 . S
C626 H617 0.929 . S
C626 C618 1.378 . S
C626 C621 1.350 . S
C627 H614 0.929 . S
C627 C619 1.433 . S
C627 N629 1.384 . S
N628 C624 1.427 . S
N628 C625 1.384 . S
N629 C621 1.427 . S
N629 C627 1.384 . S
H630 C636 0.930 . S
H631 C640 0.930 . S
H632 C645 0.929 . S
H633 C643 0.929 . S
H634 C638 0.929 1_455 S
H635 C644 0.929 1_655 S
C636 H630 0.930 . S
C636 C637 1.367 . S
C636 C644 1.378 . S
C637 C636 1.367 . S
C637 C645 1.433 . S
C638 H634 0.929 1_655 S
C638 C640 1.378 . S
C638 C642 1.350 . S
C639 C642 1.463 1_445 S
C639 C644 1.350 . S
C639 N647 1.427 . S
C640 H631 0.930 . S
C640 C638 1.378 . S
C640 C641 1.367 . S
C641 C640 1.367 . S
C641 C643 1.433 . S
C642 C638 1.350 . S
C642 C639 1.463 1_665 S
C642 N646 1.427 . S
C643 H633 0.929 . S
C643 C641 1.433 . S
C643 N646 1.384 . S
C644 H635 0.929 1_455 S
C644 C636 1.378 . S
C644 C639 1.350 . S
C645 H632 0.929 . S
C645 C637 1.433 . S
C645 N647 1.384 . S
N646 C642 1.427 . S
N646 C643 1.384 . S
N647 C639 1.427 . S
N647 C645 1.384 . S
H648 C654 0.930 1_565 S
H649 C658 0.930 1_545 S
H650 C663 0.929 . S
H651 C661 0.929 . S
H652 C656 0.929 . S
H653 C662 0.929 . S
C654 H648 0.930 1_545 S
C654 C655 1.367 . S
C654 C662 1.378 1_545 S
C655 C654 1.367 . S
C655 C663 1.433 . S
C656 H652 0.929 . S
C656 C658 1.378 1_545 S
C656 C660 1.350 1_545 S
C657 C660 1.463 1_645 S
C657 C662 1.350 1_545 S
C657 N665 1.427 . S
C658 H649 0.930 1_565 S
C658 C656 1.378 1_565 S
C658 C659 1.367 . S
C659 C658 1.367 . S
C659 C661 1.433 . S
C660 C656 1.350 1_565 S
C660 C657 1.463 1_465 S
C660 N664 1.427 . S
C661 H651 0.929 . S
C661 C659 1.433 . S
C661 N664 1.384 . S
C662 H653 0.929 . S
C662 C654 1.378 1_565 S
C662 C657 1.350 1_565 S
C663 H650 0.929 . S
C663 C655 1.433 . S
C663 N665 1.384 . S
N664 C660 1.427 . S
N664 C661 1.384 . S
N665 C657 1.427 . S
N665 C663 1.384 . S
H666 C672 0.930 . S
H667 C676 0.930 . S
H668 C681 0.929 . S
H669 C679 0.929 . S
H670 C674 0.929 . S
H671 C680 0.929 . S
C672 H666 0.930 . S
C672 C673 1.367 . S
C672 C680 1.378 . S
C673 C672 1.367 . S
C673 C681 1.433 . S
C674 H670 0.929 . S
C674 C676 1.378 . S
C674 C678 1.350 . S
C675 C678 1.463 1_665 S
C675 C680 1.350 . S
C675 N683 1.427 . S
C676 H667 0.930 . S
C676 C674 1.378 . S
C676 C677 1.367 . S
C677 C676 1.367 . S
C677 C679 1.433 . S
C678 C674 1.350 . S
C678 C675 1.463 1_445 S
C678 N682 1.427 . S
C679 H669 0.929 . S
C679 C677 1.433 . S
C679 N682 1.384 . S
C680 H671 0.929 . S
C680 C672 1.378 . S
C680 C675 1.350 . S
C681 H668 0.929 . S
C681 C673 1.433 . S
C681 N683 1.384 . S
N682 C678 1.427 . S
N682 C679 1.384 . S
N683 C675 1.427 . S
N683 C681 1.384 . S
H684 C690 0.930 . S
H685 C694 0.930 . S
H686 C699 0.929 . S
H687 C697 0.929 . S
H688 C692 0.944 . S
H689 C698 0.944 . S
C690 H684 0.930 . S
C690 C691 1.367 . S
C690 C698 1.359 1_565 S
C691 C690 1.367 . S
C691 C699 1.433 1_455 S
C692 H688 0.944 . S
C692 C694 1.359 1_565 S
C692 C696 1.354 1_565 S
C693 C696 1.463 1_465 S
C693 C698 1.354 1_565 S
C693 N701 1.427 1_455 S
C694 H685 0.930 . S
C694 C692 1.359 1_545 S
C694 C695 1.367 . S
C695 C694 1.367 . S
C695 C697 1.433 1_655 S
C696 C692 1.354 1_545 S
C696 C693 1.463 1_645 S
C696 N700 1.427 1_655 S
C697 H687 0.929 . S
C697 C695 1.433 1_455 S
C697 N700 1.384 . S
C698 H689 0.944 . S
C698 C690 1.359 1_545 S
C698 C693 1.354 1_545 S
C699 H686 0.929 . S
C699 C691 1.433 1_655 S
C699 N701 1.384 . S
N700 C696 1.427 1_455 S
N700 C697 1.384 . S
N701 C693 1.427 1_655 S
N701 C699 1.384 . S
H702 C708 0.930 . S
H703 C712 0.930 . S
H704 C717 0.929 . S
H705 C715 0.929 . S
H706 C710 0.929 . S
H707 C716 0.929 . S
C708 H702 0.930 . S
C708 C709 1.367 . S
C708 C716 1.378 . S
C709 C708 1.367 . S
C709 C717 1.433 1_545 S
C710 H706 0.929 . S
C710 C712 1.378 . S
C710 C714 1.350 . S
C711 C714 1.463 1_445 S
C711 C716 1.350 . S
C711 N719 1.427 1_545 S
C712 H703 0.930 . S
C712 C710 1.378 . S
C712 C713 1.367 . S
C713 C712 1.367 . S
C713 C715 1.433 1_565 S
C714 C710 1.350 . S
C714 C711 1.463 1_665 S
C714 N718 1.427 1_565 S
C715 H705 0.929 . S
C715 C713 1.433 1_545 S
C715 N718 1.384 . S
C716 H707 0.929 . S
C716 C708 1.378 . S
C716 C711 1.350 . S
C717 H704 0.929 . S
C717 C709 1.433 1_565 S
C717 N719 1.384 . S
N718 C714 1.427 1_545 S
N718 C715 1.384 . S
N719 C711 1.427 1_565 S
N719 C717 1.384 . S
H720 C726 0.930 . S
H721 C730 0.930 . S
H722 C735 0.929 1_655 S
H723 C733 0.929 . S
H724 C728 0.916 1_556 S
H725 C734 0.916 1_554 S
C726 H720 0.930 . S
C726 C727 1.367 . S
C726 C734 1.378 . S
C727 C726 1.367 . S
C727 C735 1.433 . S
C728 H724 0.916 1_554 S
C728 C730 1.378 . S
C728 C732 1.350 . S
C729 C732 1.463 1_556 S
C729 C734 1.350 . S
C729 N737 1.427 . S
C730 H721 0.930 . S
C730 C728 1.378 . S
C730 C731 1.367 . S
C731 C730 1.367 . S
C731 C733 1.433 . S
C732 C728 1.350 . S
C732 C729 1.463 1_554 S
C732 N736 1.427 . S
C733 H723 0.929 . S
C733 C731 1.433 . S
C733 N736 1.384 . S
C734 H725 0.916 1_556 S
C734 C726 1.378 . S
C734 C729 1.350 . S
C735 H722 0.929 1_455 S
C735 C727 1.433 . S
C735 N737 1.384 . S
N736 C732 1.427 . S
N736 C733 1.384 . S
N737 C729 1.427 . S
N737 C735 1.384 . S
H738 C744 0.930 . S
H739 C748 0.921 1_565 S
H740 C753 0.929 . S
H741 C751 0.929 . S
H742 C746 0.929 . S
H743 C752 0.929 . S
C744 H738 0.930 . S
C744 C745 1.367 . S
C744 C752 1.378 . S
C745 C744 1.367 . S
C745 C753 1.433 1_655 S
C746 H742 0.929 . S
C746 C748 1.378 . S
C746 C750 1.350 . S
C747 C750 1.463 . S
C747 C752 1.350 . S
C747 N755 1.427 . S
C748 H739 0.921 1_545 S
C748 C746 1.378 . S
C748 C749 1.367 . S
C749 C748 1.367 . S
C749 C751 1.433 . S
C750 C746 1.350 . S
C750 C747 1.463 . S
C750 N754 1.427 . S
C751 H741 0.929 . S
C751 C749 1.433 . S
C751 N754 1.384 . S
C752 H743 0.929 . S
C752 C744 1.378 . S
C752 C747 1.350 . S
C753 H740 0.929 . S
C753 C745 1.433 1_455 S
C753 N755 1.384 1_455 S
N754 C750 1.427 . S
N754 C751 1.384 . S
N755 C747 1.427 . S
N755 C753 1.384 1_655 S
H756 C762 0.930 . S
H757 C766 0.930 . S
H758 C771 0.929 . S
H759 C769 0.929 . S
H760 C764 0.929 . S
H761 C770 0.929 . S
C762 H756 0.930 . S
C762 C763 1.367 . S
C762 C770 1.378 . S
C763 C762 1.367 . S
C763 C771 1.433 . S
C764 H760 0.929 . S
C764 C766 1.378 . S
C764 C768 1.350 . S
C765 C768 1.463 . S
C765 C770 1.350 . S
C765 N773 1.427 . S
C766 H757 0.930 . S
C766 C764 1.378 . S
C766 C767 1.367 . S
C767 C766 1.367 . S
C767 C769 1.433 1_565 S
C768 C764 1.350 . S
C768 C765 1.463 . S
C768 N772 1.427 . S
C769 H759 0.929 . S
C769 C767 1.433 1_545 S
C769 N772 1.384 1_545 S
C770 H761 0.929 . S
C770 C762 1.378 . S
C770 C765 1.350 . S
C771 H758 0.929 . S
C771 C763 1.433 . S
C771 N773 1.384 . S
N772 C768 1.427 . S
N772 C769 1.384 1_565 S
N773 C765 1.427 . S
N773 C771 1.384 . S
H774 C780 0.930 . S
H775 C784 0.930 . S
H776 C789 0.929 . S
H777 C787 0.929 . S
H778 C782 0.929 1_554 S
H779 C788 0.929 1_556 S
C780 H774 0.930 . S
C780 C781 1.367 . S
C780 C788 1.378 . S
C781 C780 1.367 . S
C781 C789 1.433 . S
C782 H778 0.929 1_556 S
C782 C784 1.378 1_655 S
C782 C786 1.350 . S
C783 C786 1.463 1_554 S
C783 C788 1.350 . S
C783 N791 1.427 . S
C784 H775 0.930 . S
C784 C782 1.378 1_455 S
C784 C785 1.367 1_455 S
C785 C784 1.367 1_655 S
C785 C787 1.433 . S
C786 C782 1.350 . S
C786 C783 1.463 1_556 S
C786 N790 1.427 . S
C787 H777 0.929 . S
C787 C785 1.433 . S
C787 N790 1.384 . S
C788 H779 0.929 1_554 S
C788 C780 1.378 . S
C788 C783 1.350 . S
C789 H776 0.929 . S
C789 C781 1.433 . S
C789 N791 1.384 . S
N790 C786 1.427 . S
N790 C787 1.384 . S
N791 C783 1.427 . S
N791 C789 1.384 . S
H792 C798 0.930 . S
H793 C802 0.930 . S
H794 C807 0.929 . S
H795 C805 0.929 . S
H796 C800 0.929 . S
H797 C806 0.929 . S
C798 H792 0.930 . S
C798 C799 1.367 1_545 S
C798 C806 1.378 1_545 S
C799 C798 1.367 1_565 S
C799 C807 1.433 . S
C800 H796 0.929 . S
C800 C802 1.378 . S
C800 C804 1.350 . S
C801 C804 1.463 . S
C801 C806 1.350 . S
C801 N809 1.427 . S
C802 H793 0.930 . S
C802 C800 1.378 . S
C802 C803 1.367 . S
C803 C802 1.367 . S
C803 C805 1.433 . S
C804 C800 1.350 . S
C804 C801 1.463 . S
C804 N808 1.427 . S
C805 H795 0.929 . S
C805 C803 1.433 . S
C805 N808 1.384 . S
C806 H797 0.929 . S
C806 C798 1.378 1_565 S
C806 C801 1.350 . S
C807 H794 0.929 . S
C807 C799 1.433 . S
C807 N809 1.384 . S
N808 C804 1.427 . S
N808 C805 1.384 . S
N809 C801 1.427 . S
N809 C807 1.384 . S
H810 C816 0.930 . S
H811 C820 0.930 . S
H812 C825 0.929 . S
H813 C823 0.929 . S
H814 C818 0.929 . S
H815 C824 0.929 . S
C816 H810 0.930 . S
C816 C817 1.367 1_565 S
C816 C824 1.378 1_565 S
C817 C816 1.367 1_545 S
C817 C825 1.433 . S
C818 H814 0.929 . S
C818 C820 1.378 . S
C818 C822 1.350 . S
C819 C822 1.463 . S
C819 C824 1.350 . S
C819 N827 1.427 . S
C820 H811 0.930 . S
C820 C818 1.378 . S
C820 C821 1.367 . S
C821 C820 1.367 . S
C821 C823 1.433 . S
C822 C818 1.350 . S
C822 C819 1.463 . S
C822 N826 1.427 . S
C823 H813 0.929 . S
C823 C821 1.433 . S
C823 N826 1.384 . S
C824 H815 0.929 . S
C824 C816 1.378 1_545 S
C824 C819 1.350 . S
C825 H812 0.929 . S
C825 C817 1.433 . S
C825 N827 1.384 . S
N826 C822 1.427 . S
N826 C823 1.384 . S
N827 C819 1.427 . S
N827 C825 1.384 . S
H828 C834 0.930 . S
H829 C838 0.930 . S
H830 C843 0.929 . S
H831 C841 0.929 . S
H832 C836 0.929 . S
H833 C842 0.929 . S
C834 H828 0.930 . S
C834 C835 1.367 . S
C834 C842 1.378 . S
C835 C834 1.367 . S
C835 C843 1.433 . S
C836 H832 0.929 . S
C836 C838 1.378 . S
C836 C840 1.350 . S
C837 C840 1.463 . S
C837 C842 1.350 . S
C837 N845 1.427 . S
C838 H829 0.930 . S
C838 C836 1.378 . S
C838 C839 1.367 . S
C839 C838 1.367 . S
C839 C841 1.433 . S
C840 C836 1.350 . S
C840 C837 1.463 . S
C840 N844 1.427 . S
C841 H831 0.929 . S
C841 C839 1.433 . S
C841 N844 1.384 . S
C842 H833 0.929 . S
C842 C834 1.378 . S
C842 C837 1.350 . S
C843 H830 0.929 . S
C843 C835 1.433 . S
C843 N845 1.384 . S
N844 C840 1.427 . S
N844 C841 1.384 . S
N845 C837 1.427 . S
N845 C843 1.384 . S
H846 C852 0.930 . S
H847 C856 0.930 . S
H848 C861 0.929 . S
H849 C859 0.929 . S
H850 C854 0.929 . S
H851 C860 0.929 . S
C852 H846 0.930 . S
C852 C853 1.367 . S
C852 C860 1.378 . S
C853 C852 1.367 . S
C853 C861 1.433 . S
C854 H850 0.929 . S
C854 C856 1.378 . S
C854 C858 1.350 . S
C855 C858 1.463 . S
C855 C860 1.350 . S
C855 N863 1.427 . S
C856 H847 0.930 . S
C856 C854 1.378 . S
C856 C857 1.367 . S
C857 C856 1.367 . S
C857 C859 1.433 . S
C858 C854 1.350 . S
C858 C855 1.463 . S
C858 N862 1.427 . S
C859 H849 0.929 . S
C859 C857 1.433 . S
C859 N862 1.384 . S
C860 H851 0.929 . S
C860 C852 1.378 . S
C860 C855 1.350 . S
C861 H848 0.929 . S
C861 C853 1.433 . S
C861 N863 1.384 . S
N862 C858 1.427 . S
N862 C859 1.384 . S
N863 C855 1.427 . S
N863 C861 1.384 . S
H864 C870 0.930 . S
H865 C874 0.930 . S
H866 C879 0.929 . S
H867 C877 0.929 . S
H868 C872 0.929 . S
H869 C878 0.929 . S
C870 H864 0.930 . S
C870 C871 1.367 . S
C870 C878 1.378 . S
C871 C870 1.367 . S
C871 C879 1.433 . S
C872 H868 0.929 . S
C872 C874 1.378 . S
C872 C876 1.350 . S
C873 C876 1.463 . S
C873 C878 1.350 . S
C873 N881 1.427 . S
C874 H865 0.930 . S
C874 C872 1.378 . S
C874 C875 1.367 . S
C875 C874 1.367 . S
C875 C877 1.433 . S
C876 C872 1.350 . S
C876 C873 1.463 . S
C876 N880 1.427 . S
C877 H867 0.929 . S
C877 C875 1.433 . S
C877 N880 1.384 . S
C878 H869 0.929 . S
C878 C870 1.378 . S
C878 C873 1.350 . S
C879 H866 0.929 . S
C879 C871 1.433 . S
C879 N881 1.384 . S
N880 C876 1.427 . S
N880 C877 1.384 . S
N881 C873 1.427 . S
N881 C879 1.384 . S
H882 C888 0.930 . S
H883 C892 0.930 . S
H884 C897 0.929 . S
H885 C895 0.929 . S
H886 C890 0.929 . S
H887 C896 0.929 . S
C888 H882 0.930 . S
C888 C889 1.367 . S
C888 C896 1.378 . S
C889 C888 1.367 . S
C889 C897 1.433 . S
C890 H886 0.929 . S
C890 C892 1.378 . S
C890 C894 1.350 . S
C891 C894 1.463 . S
C891 C896 1.350 . S
C891 N899 1.427 . S
C892 H883 0.930 . S
C892 C890 1.378 . S
C892 C893 1.367 . S
C893 C892 1.367 . S
C893 C895 1.433 . S
C894 C890 1.350 . S
C894 C891 1.463 . S
C894 N898 1.427 . S
C895 H885 0.929 . S
C895 C893 1.433 . S
C895 N898 1.384 . S
C896 H887 0.929 . S
C896 C888 1.378 . S
C896 C891 1.350 . S
C897 H884 0.929 . S
C897 C889 1.433 . S
C897 N899 1.384 . S
N898 C894 1.427 . S
N898 C895 1.384 . S
N899 C891 1.427 . S
N899 C897 1.384 . S
H900 C906 0.930 . S
H901 C910 0.930 . S
H902 C915 0.929 . S
H903 C913 0.929 . S
H904 C908 0.929 . S
H905 C914 0.929 . S
C906 H900 0.930 . S
C906 C907 1.367 . S
C906 C914 1.378 . S
C907 C906 1.367 . S
C907 C915 1.433 . S
C908 H904 0.929 . S
C908 C910 1.378 . S
C908 C912 1.350 . S
C909 C912 1.463 . S
C909 C914 1.350 . S
C909 N917 1.427 . S
C910 H901 0.930 . S
C910 C908 1.378 . S
C910 C911 1.367 . S
C911 C910 1.367 . S
C911 C913 1.433 . S
C912 C908 1.350 . S
C912 C909 1.463 . S
C912 N916 1.427 . S
C913 H903 0.929 . S
C913 C911 1.433 . S
C913 N916 1.384 . S
C914 H905 0.929 . S
C914 C906 1.378 . S
C914 C909 1.350 . S
C915 H902 0.929 . S
C915 C907 1.433 . S
C915 N917 1.384 . S
N916 C912 1.427 . S
N916 C913 1.384 . S
N917 C909 1.427 . S
N917 C915 1.384 . S
H918 C924 0.930 . S
H919 C928 0.930 . S
H920 C933 0.929 . S
H921 C931 0.929 . S
H922 C926 0.929 . S
H923 C932 0.929 . S
C924 H918 0.930 . S
C924 C925 1.367 . S
C924 C932 1.378 . S
C925 C924 1.367 . S
C925 C933 1.433 . S
C926 H922 0.929 . S
C926 C928 1.378 . S
C926 C930 1.350 . S
C927 C930 1.463 . S
C927 C932 1.350 . S
C927 N935 1.427 . S
C928 H919 0.930 . S
C928 C926 1.378 . S
C928 C929 1.367 . S
C929 C928 1.367 . S
C929 C931 1.433 . S
C930 C926 1.350 . S
C930 C927 1.463 . S
C930 N934 1.427 . S
C931 H921 0.929 . S
C931 C929 1.433 . S
C931 N934 1.384 . S
C932 H923 0.929 . S
C932 C924 1.378 . S
C932 C927 1.350 . S
C933 H920 0.929 . S
C933 C925 1.433 . S
C933 N935 1.384 . S
N934 C930 1.427 . S
N934 C931 1.384 . S
N935 C927 1.427 . S
N935 C933 1.384 . S
C403 C117 1.520 . S
C407 C18 1.517 . S
C421 C51 1.518 . S
C425 C150 1.518 . S
C439 C84 1.521 . S
C443 C183 1.516 . S
C457 C216 1.520 . S
C461 C315 1.516 . S
C475 C348 1.518 . S
C479 C249 1.516 . S
C493 C381 1.519 . S
C497 C282 1.522 . S
C511 C252 0.782 . S
C515 C21 0.747 . S
C529 C54 0.784 . S
C533 C285 0.758 . S
C547 C318 0.776 . S
C551 C87 0.747 . S
C565 C120 0.777 . S
C569 C351 0.747 . S
C583 C384 0.756 . S
C587 C153 0.761 . S
C601 C186 0.762 . S
C605 C219 0.755 . S
C619 C7 1.105 . S
C623 C106 1.122 . S
C637 C40 1.108 . S
C641 C139 1.124 . S
C655 C73 1.123 . S
C659 C172 1.112 . S
C673 C205 1.123 . S
C677 C304 1.109 . S
C691 C238 1.111 . S
C695 C337 1.111 . S
C709 C271 1.115 . S
C713 C370 1.108 . S
C727 N332 0.822 1_455 S
C731 N2 0.835 . S
C745 N35 0.818 1_655 S
C749 N365 0.829 1_545 S
C763 N200 0.827 . S
C767 N68 0.818 1_565 S
C781 N101 0.825 . S
C785 N233 0.836 1_655 S
C799 N266 0.836 1_565 S
C803 N134 0.826 1_455 S
C817 N167 0.836 1_545 S
C821 N299 0.826 . S
C835 N13 1.768 . S
C839 N277 1.770 . S
C853 N46 1.775 . S
C857 N310 1.764 . S
C871 N343 1.774 . S
C875 N79 1.774 . S
C889 N376 1.780 . S
C893 N112 1.764 . S
C907 N145 1.779 . S
C911 N211 1.763 . S
C925 N178 1.770 . S
C929 N244 1.769 . S
