# Generated by pormake.
# Topology sst, (4)-cn, num edge types: 1
# Building blocks:
#     Node 0, Type 0, BuildingBlock: KOZSID_clean_sbu_0, # of connection points: 4
#     Node 1, Type 0, BuildingBlock: KOZSID_clean_sbu_0, # of connection points: 4
#     Node 2, Type 0, BuildingBlock: KOZSID_clean_sbu_0, # of connection points: 4
#     Node 3, Type 0, BuildingBlock: KOZSID_clean_sbu_0, # of connection points: 4
#     Node 4, Type 0, BuildingBlock: KOZSID_clean_sbu_0, # of connection points: 4
#     Node 5, Type 0, BuildingBlock: KOZSID_clean_sbu_0, # of connection points: 4
#     Node 6, Type 0, BuildingBlock: KOZSID_clean_sbu_0, # of connection points: 4
#     Node 7, Type 0, BuildingBlock: KOZSID_clean_sbu_0, # of connection points: 4
#     Node 8, Type 0, BuildingBlock: KOZSID_clean_sbu_0, # of connection points: 4
#     Node 9, Type 0, BuildingBlock: KOZSID_clean_sbu_0, # of connection points: 4
#     Node 10, Type 0, BuildingBlock: KOZSID_clean_sbu_0, # of connection points: 4
#     Node 11, Type 0, BuildingBlock: KOZSID_clean_sbu_0, # of connection points: 4
#     Node 12, Type 0, BuildingBlock: KOZSID_clean_sbu_0, # of connection points: 4
#     Node 13, Type 0, BuildingBlock: KOZSID_clean_sbu_0, # of connection points: 4
#     Node 14, Type 0, BuildingBlock: KOZSID_clean_sbu_0, # of connection points: 4
#     Node 15, Type 0, BuildingBlock: KOZSID_clean_sbu_0, # of connection points: 4
#     Node 16, Type 0, BuildingBlock: KOZSID_clean_sbu_0, # of connection points: 4
#     Node 17, Type 0, BuildingBlock: KOZSID_clean_sbu_0, # of connection points: 4
#     Node 18, Type 0, BuildingBlock: KOZSID_clean_sbu_0, # of connection points: 4
#     Node 19, Type 0, BuildingBlock: KOZSID_clean_sbu_0, # of connection points: 4
#     Node 20, Type 0, BuildingBlock: KOZSID_clean_sbu_0, # of connection points: 4
#     Node 21, Type 0, BuildingBlock: KOZSID_clean_sbu_0, # of connection points: 4
#     Node 22, Type 0, BuildingBlock: KOZSID_clean_sbu_0, # of connection points: 4
#     Node 23, Type 0, BuildingBlock: KOZSID_clean_sbu_0, # of connection points: 4
#     Node 24, Type 0, BuildingBlock: KOZSID_clean_sbu_0, # of connection points: 4
#     Node 25, Type 0, BuildingBlock: KOZSID_clean_sbu_0, # of connection points: 4
#     Node 26, Type 0, BuildingBlock: KOZSID_clean_sbu_0, # of connection points: 4
#     Node 27, Type 0, BuildingBlock: KOZSID_clean_sbu_0, # of connection points: 4
#     Node 28, Type 0, BuildingBlock: KOZSID_clean_sbu_0, # of connection points: 4
#     Node 29, Type 0, BuildingBlock: KOZSID_clean_sbu_0, # of connection points: 4
#     Node 30, Type 0, BuildingBlock: KOZSID_clean_sbu_0, # of connection points: 4
#     Node 31, Type 0, BuildingBlock: KOZSID_clean_sbu_0, # of connection points: 4
#     Node 32, Type 0, BuildingBlock: KOZSID_clean_sbu_0, # of connection points: 4
#     Node 33, Type 0, BuildingBlock: KOZSID_clean_sbu_0, # of connection points: 4
#     Node 34, Type 0, BuildingBlock: KOZSID_clean_sbu_0, # of connection points: 4
#     Node 35, Type 0, BuildingBlock: KOZSID_clean_sbu_0, # of connection points: 4
#     Node 36, Type 0, BuildingBlock: KOZSID_clean_sbu_0, # of connection points: 4
#     Node 37, Type 0, BuildingBlock: KOZSID_clean_sbu_0, # of connection points: 4
#     Node 38, Type 0, BuildingBlock: KOZSID_clean_sbu_0, # of connection points: 4
#     Node 39, Type 0, BuildingBlock: KOZSID_clean_sbu_0, # of connection points: 4
#     Node 40, Type 0, BuildingBlock: KOZSID_clean_sbu_0, # of connection points: 4
#     Node 41, Type 0, BuildingBlock: KOZSID_clean_sbu_0, # of connection points: 4
#     Node 42, Type 0, BuildingBlock: KOZSID_clean_sbu_0, # of connection points: 4
#     Node 43, Type 0, BuildingBlock: KOZSID_clean_sbu_0, # of connection points: 4
#     Node 44, Type 0, BuildingBlock: KOZSID_clean_sbu_0, # of connection points: 4
#     Node 45, Type 0, BuildingBlock: KOZSID_clean_sbu_0, # of connection points: 4
#     Node 46, Type 0, BuildingBlock: KOZSID_clean_sbu_0, # of connection points: 4
#     Node 47, Type 0, BuildingBlock: KOZSID_clean_sbu_0, # of connection points: 4
#     Edge 48, Type (0, 0), BuildingBlock: UVAHIK_clean_linker_0, # of connection points: 2
#     Edge 49, Type (0, 0), BuildingBlock: UVAHIK_clean_linker_0, # of connection points: 2
#     Edge 50, Type (0, 0), BuildingBlock: UVAHIK_clean_linker_0, # of connection points: 2
#     Edge 51, Type (0, 0), BuildingBlock: UVAHIK_clean_linker_0, # of connection points: 2
#     Edge 52, Type (0, 0), BuildingBlock: UVAHIK_clean_linker_0, # of connection points: 2
#     Edge 53, Type (0, 0), BuildingBlock: UVAHIK_clean_linker_0, # of connection points: 2
#     Edge 54, Type (0, 0), BuildingBlock: UVAHIK_clean_linker_0, # of connection points: 2
#     Edge 55, Type (0, 0), BuildingBlock: UVAHIK_clean_linker_0, # of connection points: 2
#     Edge 56, Type (0, 0), BuildingBlock: UVAHIK_clean_linker_0, # of connection points: 2
#     Edge 57, Type (0, 0), BuildingBlock: UVAHIK_clean_linker_0, # of connection points: 2
#     Edge 58, Type (0, 0), BuildingBlock: UVAHIK_clean_linker_0, # of connection points: 2
#     Edge 59, Type (0, 0), BuildingBlock: UVAHIK_clean_linker_0, # of connection points: 2
#     Edge 60, Type (0, 0), BuildingBlock: UVAHIK_clean_linker_0, # of connection points: 2
#     Edge 61, Type (0, 0), BuildingBlock: UVAHIK_clean_linker_0, # of connection points: 2
#     Edge 62, Type (0, 0), BuildingBlock: UVAHIK_clean_linker_0, # of connection points: 2
#     Edge 63, Type (0, 0), BuildingBlock: UVAHIK_clean_linker_0, # of connection points: 2
#     Edge 64, Type (0, 0), BuildingBlock: UVAHIK_clean_linker_0, # of connection points: 2
#     Edge 65, Type (0, 0), BuildingBlock: UVAHIK_clean_linker_0, # of connection points: 2
#     Edge 66, Type (0, 0), BuildingBlock: UVAHIK_clean_linker_0, # of connection points: 2
#     Edge 67, Type (0, 0), BuildingBlock: UVAHIK_clean_linker_0, # of connection points: 2
#     Edge 68, Type (0, 0), BuildingBlock: UVAHIK_clean_linker_0, # of connection points: 2
#     Edge 69, Type (0, 0), BuildingBlock: UVAHIK_clean_linker_0, # of connection points: 2
#     Edge 70, Type (0, 0), BuildingBlock: UVAHIK_clean_linker_0, # of connection points: 2
#     Edge 71, Type (0, 0), BuildingBlock: UVAHIK_clean_linker_0, # of connection points: 2
#     Edge 72, Type (0, 0), BuildingBlock: UVAHIK_clean_linker_0, # of connection points: 2
#     Edge 73, Type (0, 0), BuildingBlock: UVAHIK_clean_linker_0, # of connection points: 2
#     Edge 74, Type (0, 0), BuildingBlock: UVAHIK_clean_linker_0, # of connection points: 2
#     Edge 75, Type (0, 0), BuildingBlock: UVAHIK_clean_linker_0, # of connection points: 2
#     Edge 76, Type (0, 0), BuildingBlock: UVAHIK_clean_linker_0, # of connection points: 2
#     Edge 77, Type (0, 0), BuildingBlock: UVAHIK_clean_linker_0, # of connection points: 2
#     Edge 78, Type (0, 0), BuildingBlock: UVAHIK_clean_linker_0, # of connection points: 2
#     Edge 79, Type (0, 0), BuildingBlock: UVAHIK_clean_linker_0, # of connection points: 2
#     Edge 80, Type (0, 0), BuildingBlock: UVAHIK_clean_linker_0, # of connection points: 2
#     Edge 81, Type (0, 0), BuildingBlock: UVAHIK_clean_linker_0, # of connection points: 2
#     Edge 82, Type (0, 0), BuildingBlock: UVAHIK_clean_linker_0, # of connection points: 2
#     Edge 83, Type (0, 0), BuildingBlock: UVAHIK_clean_linker_0, # of connection points: 2
#     Edge 84, Type (0, 0), BuildingBlock: UVAHIK_clean_linker_0, # of connection points: 2
#     Edge 85, Type (0, 0), BuildingBlock: UVAHIK_clean_linker_0, # of connection points: 2
#     Edge 86, Type (0, 0), BuildingBlock: UVAHIK_clean_linker_0, # of connection points: 2
#     Edge 87, Type (0, 0), BuildingBlock: UVAHIK_clean_linker_0, # of connection points: 2
#     Edge 88, Type (0, 0), BuildingBlock: UVAHIK_clean_linker_0, # of connection points: 2
#     Edge 89, Type (0, 0), BuildingBlock: UVAHIK_clean_linker_0, # of connection points: 2
#     Edge 90, Type (0, 0), BuildingBlock: UVAHIK_clean_linker_0, # of connection points: 2
#     Edge 91, Type (0, 0), BuildingBlock: UVAHIK_clean_linker_0, # of connection points: 2
#     Edge 92, Type (0, 0), BuildingBlock: UVAHIK_clean_linker_0, # of connection points: 2
#     Edge 93, Type (0, 0), BuildingBlock: UVAHIK_clean_linker_0, # of connection points: 2
#     Edge 94, Type (0, 0), BuildingBlock: UVAHIK_clean_linker_0, # of connection points: 2
#     Edge 95, Type (0, 0), BuildingBlock: UVAHIK_clean_linker_0, # of connection points: 2
#     Edge 96, Type (0, 0), BuildingBlock: UVAHIK_clean_linker_0, # of connection points: 2
#     Edge 97, Type (0, 0), BuildingBlock: UVAHIK_clean_linker_0, # of connection points: 2
#     Edge 98, Type (0, 0), BuildingBlock: UVAHIK_clean_linker_0, # of connection points: 2
#     Edge 99, Type (0, 0), BuildingBlock: UVAHIK_clean_linker_0, # of connection points: 2
#     Edge 100, Type (0, 0), BuildingBlock: UVAHIK_clean_linker_0, # of connection points: 2
#     Edge 101, Type (0, 0), BuildingBlock: UVAHIK_clean_linker_0, # of connection points: 2
#     Edge 102, Type (0, 0), BuildingBlock: UVAHIK_clean_linker_0, # of connection points: 2
#     Edge 103, Type (0, 0), BuildingBlock: UVAHIK_clean_linker_0, # of connection points: 2
#     Edge 104, Type (0, 0), BuildingBlock: UVAHIK_clean_linker_0, # of connection points: 2
#     Edge 105, Type (0, 0), BuildingBlock: UVAHIK_clean_linker_0, # of connection points: 2
#     Edge 106, Type (0, 0), BuildingBlock: UVAHIK_clean_linker_0, # of connection points: 2
#     Edge 107, Type (0, 0), BuildingBlock: UVAHIK_clean_linker_0, # of connection points: 2
#     Edge 108, Type (0, 0), BuildingBlock: UVAHIK_clean_linker_0, # of connection points: 2
#     Edge 109, Type (0, 0), BuildingBlock: UVAHIK_clean_linker_0, # of connection points: 2
#     Edge 110, Type (0, 0), BuildingBlock: UVAHIK_clean_linker_0, # of connection points: 2
#     Edge 111, Type (0, 0), BuildingBlock: UVAHIK_clean_linker_0, # of connection points: 2
#     Edge 112, Type (0, 0), BuildingBlock: UVAHIK_clean_linker_0, # of connection points: 2
#     Edge 113, Type (0, 0), BuildingBlock: UVAHIK_clean_linker_0, # of connection points: 2
#     Edge 114, Type (0, 0), BuildingBlock: UVAHIK_clean_linker_0, # of connection points: 2
#     Edge 115, Type (0, 0), BuildingBlock: UVAHIK_clean_linker_0, # of connection points: 2
#     Edge 116, Type (0, 0), BuildingBlock: UVAHIK_clean_linker_0, # of connection points: 2
#     Edge 117, Type (0, 0), BuildingBlock: UVAHIK_clean_linker_0, # of connection points: 2
#     Edge 118, Type (0, 0), BuildingBlock: UVAHIK_clean_linker_0, # of connection points: 2
#     Edge 119, Type (0, 0), BuildingBlock: UVAHIK_clean_linker_0, # of connection points: 2
#     Edge 120, Type (0, 0), BuildingBlock: UVAHIK_clean_linker_0, # of connection points: 2
#     Edge 121, Type (0, 0), BuildingBlock: UVAHIK_clean_linker_0, # of connection points: 2
#     Edge 122, Type (0, 0), BuildingBlock: UVAHIK_clean_linker_0, # of connection points: 2
#     Edge 123, Type (0, 0), BuildingBlock: UVAHIK_clean_linker_0, # of connection points: 2
#     Edge 124, Type (0, 0), BuildingBlock: UVAHIK_clean_linker_0, # of connection points: 2
#     Edge 125, Type (0, 0), BuildingBlock: UVAHIK_clean_linker_0, # of connection points: 2
#     Edge 126, Type (0, 0), BuildingBlock: UVAHIK_clean_linker_0, # of connection points: 2
#     Edge 127, Type (0, 0), BuildingBlock: UVAHIK_clean_linker_0, # of connection points: 2
#     Edge 128, Type (0, 0), BuildingBlock: UVAHIK_clean_linker_0, # of connection points: 2
#     Edge 129, Type (0, 0), BuildingBlock: UVAHIK_clean_linker_0, # of connection points: 2
#     Edge 130, Type (0, 0), BuildingBlock: UVAHIK_clean_linker_0, # of connection points: 2
#     Edge 131, Type (0, 0), BuildingBlock: UVAHIK_clean_linker_0, # of connection points: 2
#     Edge 132, Type (0, 0), BuildingBlock: UVAHIK_clean_linker_0, # of connection points: 2
#     Edge 133, Type (0, 0), BuildingBlock: UVAHIK_clean_linker_0, # of connection points: 2
#     Edge 134, Type (0, 0), BuildingBlock: UVAHIK_clean_linker_0, # of connection points: 2
#     Edge 135, Type (0, 0), BuildingBlock: UVAHIK_clean_linker_0, # of connection points: 2
#     Edge 136, Type (0, 0), BuildingBlock: UVAHIK_clean_linker_0, # of connection points: 2
#     Edge 137, Type (0, 0), BuildingBlock: UVAHIK_clean_linker_0, # of connection points: 2
#     Edge 138, Type (0, 0), BuildingBlock: UVAHIK_clean_linker_0, # of connection points: 2
#     Edge 139, Type (0, 0), BuildingBlock: UVAHIK_clean_linker_0, # of connection points: 2
#     Edge 140, Type (0, 0), BuildingBlock: UVAHIK_clean_linker_0, # of connection points: 2
#     Edge 141, Type (0, 0), BuildingBlock: UVAHIK_clean_linker_0, # of connection points: 2
#     Edge 142, Type (0, 0), BuildingBlock: UVAHIK_clean_linker_0, # of connection points: 2
#     Edge 143, Type (0, 0), BuildingBlock: UVAHIK_clean_linker_0, # of connection points: 2
# Relax obj value: 0.000
# Max RMSD: 0.023
# Mean RMSD: 0.014
data_MOF--net-sst--node1-KOZSID_clean_sbu_0--edge1-UVAHIK_clean_linker_0
_symmetry_space_group_name_H-M    P1
_symmetry_Int_Tables_number       1
_symmetry_cell_setting            triclinic
loop_
_symmetry_equiv_pos_as_xyz
'x, y, z'
_cell_length_a     84.429568
_cell_length_b     96.404289
_cell_length_c     90.633139
_cell_angle_alpha  106.25075
_cell_angle_beta   108.14089
_cell_angle_gamma 107.14309
loop_
_atom_site_label
_atom_site_type_symbol
_atom_site_fract_x
_atom_site_fract_y
_atom_site_fract_z
_atom_type_partial_charge
C0 C 0.08365 0.11601 0.36116 0.0
C1 C 0.06813 0.10828 0.34575 0.0
C2 C 0.07411 0.10572 0.3333 0.0
C3 C 0.09284 0.11199 0.34181 0.0
N4 N 0.09919 0.11816 0.35895 0.0
Co5 Co 0.12544 0.12893 0.37629 0.0
N6 N 0.13431 0.12642 0.35801 0.0
C7 C 0.124 0.11983 0.34098 0.0
C8 C 0.13406 0.11953 0.33169 0.0
C9 C 0.15185 0.12607 0.34346 0.0
C10 C 0.15156 0.12995 0.3593 0.0
N11 N 0.15171 0.13976 0.39363 0.0
C12 C 0.16727 0.14197 0.39143 0.0
C13 C 0.18278 0.14962 0.40686 0.0
C14 C 0.17677 0.15219 0.41929 0.0
C15 C 0.15804 0.14596 0.41077 0.0
N16 N 0.11652 0.13137 0.39456 0.0
C17 C 0.12685 0.13792 0.41159 0.0
C18 C 0.1168 0.13832 0.42089 0.0
C19 C 0.09901 0.13187 0.40913 0.0
C20 C 0.09927 0.12787 0.39328 0.0
N21 N 0.12491 0.10801 0.3758 0.0
C22 C 0.12485 0.0785 0.37517 0.0
C23 C 0.13228 0.09174 0.39055 0.0
C24 C 0.13218 0.10622 0.39057 0.0
C25 C 0.11741 0.08032 0.3601 0.0
C26 C 0.11757 0.09502 0.36071 0.0
N27 N 0.12599 0.14985 0.37678 0.0
C28 C 0.13336 0.17749 0.39256 0.0
C29 C 0.12658 0.17954 0.37752 0.0
C30 C 0.11943 0.16639 0.3621 0.0
C31 C 0.11921 0.15181 0.36203 0.0
C32 C 0.13297 0.16273 0.3919 0.0
H33 H 0.11346 0.14229 0.34986 0.0
H34 H 0.13832 0.16202 0.40382 0.0
H35 H 0.13812 0.1158 0.40272 0.0
H36 H 0.11181 0.0956 0.34877 0.0
C37 C 0.10486 0.11318 0.33409 0.0
C38 C 0.08299 0.12187 0.37748 0.0
C39 C 0.16789 0.1361 0.37508 0.0
C40 C 0.146 0.14467 0.41847 0.0
H41 H 0.05399 0.10519 0.34375 0.0
H42 H 0.06583 0.10038 0.31968 0.0
H43 H 0.12902 0.1147 0.31798 0.0
H44 H 0.16369 0.12748 0.34072 0.0
H45 H 0.19692 0.15265 0.40891 0.0
H46 H 0.18503 0.15748 0.43291 0.0
H47 H 0.12187 0.14323 0.4346 0.0
H48 H 0.08725 0.13068 0.41194 0.0
H49 H 0.13799 0.09095 0.40261 0.0
H50 H 0.1117 0.07051 0.34783 0.0
H51 H 0.13876 0.18717 0.40486 0.0
H52 H 0.11419 0.16733 0.35006 0.0
C53 C 0.83307 0.1148 0.35571 0.0
C54 C 0.81868 0.10763 0.33957 0.0
C55 C 0.82632 0.10624 0.32831 0.0
C56 C 0.84485 0.11265 0.33818 0.0
N57 N 0.84951 0.11783 0.35508 0.0
Co58 Co 0.87491 0.12887 0.37406 0.0
N59 N 0.88621 0.1275 0.35752 0.0
C60 C 0.87732 0.12086 0.34033 0.0
C61 C 0.88875 0.12098 0.33241 0.0
C62 C 0.90598 0.12785 0.3453 0.0
C63 C 0.90402 0.13159 0.36039 0.0
N64 N 0.90029 0.1403 0.39305 0.0
C65 C 0.91674 0.14347 0.39246 0.0
C66 C 0.93119 0.1517 0.4086 0.0
C67 C 0.92355 0.15354 0.41985 0.0
C68 C 0.90498 0.14641 0.40995 0.0
N69 N 0.86366 0.12984 0.39061 0.0
C70 C 0.87254 0.13578 0.40777 0.0
C71 C 0.86104 0.13474 0.41566 0.0
C72 C 0.8438 0.12789 0.40279 0.0
C73 C 0.84583 0.12523 0.38776 0.0
N74 N 0.87479 0.10807 0.37357 0.0
C75 C 0.87501 0.07864 0.37295 0.0
C76 C 0.88242 0.09188 0.38833 0.0
C77 C 0.88217 0.10632 0.38835 0.0
C78 C 0.86749 0.08043 0.35788 0.0
C79 C 0.86754 0.0951 0.35848 0.0
N80 N 0.87505 0.1497 0.37457 0.0
C81 C 0.87853 0.17622 0.38994 0.0
C82 C 0.8747 0.17908 0.37523 0.0
C83 C 0.87107 0.16701 0.36018 0.0
C84 C 0.87117 0.15251 0.36011 0.0
C85 C 0.87875 0.16164 0.38936 0.0
H86 H 0.86796 0.14373 0.34815 0.0
H87 H 0.88195 0.16032 0.40107 0.0
H88 H 0.88805 0.11591 0.40051 0.0
H89 H 0.86172 0.09568 0.34654 0.0
C90 C 0.8582 0.11425 0.332 0.0
C91 C 0.83053 0.11923 0.37125 0.0
C92 C 0.91931 0.13812 0.37705 0.0
C93 C 0.89166 0.14369 0.41615 0.0
H94 H 0.80419 0.10407 0.33628 0.0
H95 H 0.81925 0.10141 0.31457 0.0
H96 H 0.88498 0.1163 0.31888 0.0
H97 H 0.91851 0.12957 0.34374 0.0
H98 H 0.9457 0.15554 0.41188 0.0
H99 H 0.93066 0.15885 0.4336 0.0
H100 H 0.86478 0.13899 0.42919 0.0
H101 H 0.83118 0.12555 0.4043 0.0
H102 H 0.88821 0.0911 0.40039 0.0
H103 H 0.8618 0.07061 0.34561 0.0
H104 H 0.8816 0.18529 0.40195 0.0
H105 H 0.86783 0.16862 0.34841 0.0
C106 C 0.83378 0.86521 0.35995 0.0
C107 C 0.81842 0.85633 0.34444 0.0
C108 C 0.82471 0.85353 0.33224 0.0
C109 C 0.84345 0.86071 0.34098 0.0
N110 N 0.84953 0.86778 0.35805 0.0
Co111 Co 0.87567 0.87937 0.37561 0.0
N112 N 0.8849 0.8764 0.35758 0.0
C113 C 0.87477 0.86948 0.34051 0.0
C114 C 0.88505 0.86908 0.33142 0.0
C115 C 0.90279 0.87597 0.34339 0.0
C116 C 0.90226 0.88012 0.35912 0.0
N117 N 0.90185 0.89071 0.39318 0.0
C118 C 0.91756 0.89282 0.39126 0.0
C119 C 0.93291 0.90073 0.40681 0.0
C120 C 0.92667 0.90357 0.41904 0.0
C121 C 0.90797 0.89722 0.41029 0.0
N122 N 0.86642 0.88261 0.39365 0.0
C123 C 0.87663 0.8902 0.4107 0.0
C124 C 0.86649 0.89136 0.41982 0.0
C125 C 0.84873 0.8843 0.4079 0.0
C126 C 0.84906 0.87908 0.39211 0.0
N127 N 0.87559 0.85889 0.37635 0.0
C128 C 0.87589 0.82991 0.37743 0.0
C129 C 0.88165 0.8432 0.39232 0.0
C130 C 0.88146 0.85743 0.39151 0.0
C131 C 0.86999 0.83145 0.36198 0.0
C132 C 0.8699 0.84587 0.36173 0.0
N133 N 0.87576 0.89985 0.37487 0.0
C134 C 0.88367 0.92786 0.38933 0.0
C135 C 0.87553 0.92887 0.3739 0.0
C136 C 0.86747 0.91504 0.35896 0.0
C137 C 0.86772 0.9008 0.35972 0.0
C138 C 0.88364 0.9134 0.38951 0.0
H139 H 0.86128 0.89073 0.34788 0.0
H140 H 0.89001 0.91349 0.4017 0.0
H141 H 0.88613 0.86708 0.40333 0.0
H142 H 0.86527 0.8462 0.34954 0.0
C143 C 0.85564 0.8621 0.33345 0.0
C144 C 0.83267 0.87162 0.37601 0.0
C145 C 0.91848 0.88668 0.37509 0.0
C146 C 0.89577 0.89668 0.41776 0.0
H147 H 0.80415 0.85262 0.34216 0.0
H148 H 0.81659 0.84739 0.3186 0.0
H149 H 0.88018 0.86387 0.31774 0.0
H150 H 0.91476 0.87738 0.34087 0.0
H151 H 0.94712 0.9038 0.40911 0.0
H152 H 0.93478 0.90924 0.43269 0.0
H153 H 0.87146 0.89705 0.43348 0.0
H154 H 0.83698 0.88347 0.41062 0.0
H155 H 0.88612 0.84265 0.40463 0.0
H156 H 0.86567 0.82165 0.35006 0.0
H157 H 0.88984 0.93813 0.40131 0.0
H158 H 0.86116 0.91518 0.34664 0.0
C159 C 0.08418 0.86488 0.36127 0.0
C160 C 0.0689 0.85644 0.34567 0.0
C161 C 0.0753 0.85377 0.33355 0.0
C162 C 0.09403 0.86071 0.3424 0.0
N163 N 0.09999 0.86748 0.35948 0.0
Co164 Co 0.12608 0.87927 0.3772 0.0
N165 N 0.13548 0.87669 0.35929 0.0
C166 C 0.12546 0.86974 0.3422 0.0
C167 C 0.13586 0.86966 0.33322 0.0
C168 C 0.15357 0.87677 0.34528 0.0
C169 C 0.1529 0.88073 0.36096 0.0
N170 N 0.1522 0.89091 0.39492 0.0
C171 C 0.16799 0.89334 0.39311 0.0
C172 C 0.18328 0.9014 0.40871 0.0
C173 C 0.1769 0.904 0.42086 0.0
C174 C 0.15817 0.89737 0.41202 0.0
N175 N 0.11667 0.88202 0.3951 0.0
C176 C 0.12668 0.88925 0.41219 0.0
C177 C 0.11627 0.8897 0.42114 0.0
C178 C 0.09856 0.88256 0.40905 0.0
C179 C 0.09924 0.8782 0.3934 0.0
N180 N 0.12643 0.85887 0.37779 0.0
C181 C 0.12763 0.8301 0.37872 0.0
C182 C 0.13359 0.84338 0.39368 0.0
C183 C 0.13293 0.85749 0.39294 0.0
C184 C 0.12101 0.83151 0.36327 0.0
C185 C 0.1205 0.84584 0.3631 0.0
N186 N 0.12576 0.89969 0.37661 0.0
C187 C 0.13285 0.92746 0.39128 0.0
C188 C 0.12521 0.92868 0.37588 0.0
C189 C 0.11775 0.91505 0.36084 0.0
C190 C 0.11815 0.90083 0.3615 0.0
C191 C 0.13298 0.91302 0.39136 0.0
H192 H 0.11219 0.89091 0.34959 0.0
H193 H 0.13893 0.91293 0.40352 0.0
H194 H 0.1378 0.86713 0.40481 0.0
H195 H 0.11538 0.84611 0.35091 0.0
C196 C 0.10633 0.86229 0.335 0.0
C197 C 0.08306 0.87122 0.37731 0.0
C198 C 0.16907 0.88738 0.37699 0.0
C199 C 0.14584 0.89624 0.41941 0.0
H200 H 0.05462 0.85299 0.34325 0.0
H201 H 0.06729 0.84798 0.31988 0.0
H202 H 0.1311 0.86456 0.31955 0.0
H203 H 0.16562 0.87846 0.34284 0.0
H204 H 0.19753 0.90471 0.41107 0.0
H205 H 0.18492 0.90963 0.43453 0.0
H206 H 0.12102 0.89496 0.43481 0.0
H207 H 0.0865 0.88105 0.41144 0.0
H208 H 0.13859 0.8429 0.40599 0.0
H209 H 0.11646 0.82169 0.3513 0.0
H210 H 0.13852 0.93757 0.40332 0.0
H211 H 0.11183 0.91537 0.34855 0.0
C212 C 0.08136 0.86597 0.60803 0.0
C213 C 0.06652 0.85775 0.59213 0.0
C214 C 0.0736 0.85557 0.58048 0.0
C215 C 0.09225 0.8625 0.58991 0.0
N216 N 0.09752 0.86879 0.60691 0.0
Co217 Co 0.12323 0.8802 0.62535 0.0
N218 N 0.13373 0.87869 0.60819 0.0
C219 C 0.12428 0.87221 0.59104 0.0
C220 C 0.13519 0.87245 0.58259 0.0
C221 C 0.15266 0.87935 0.59504 0.0
C222 C 0.15141 0.88303 0.61048 0.0
N223 N 0.14893 0.89136 0.64379 0.0
C224 C 0.16514 0.89448 0.64267 0.0
C225 C 0.17992 0.90237 0.65862 0.0
C226 C 0.17279 0.90396 0.67026 0.0
C227 C 0.15415 0.89705 0.66079 0.0
N228 N 0.11272 0.88197 0.64249 0.0
C229 C 0.12208 0.88868 0.65964 0.0
C230 C 0.1111 0.88874 0.66803 0.0
C231 C 0.09367 0.88192 0.6555 0.0
C232 C 0.09507 0.87803 0.64014 0.0
N233 N 0.12317 0.85943 0.62506 0.0
C234 C 0.12362 0.83014 0.62468 0.0
C235 C 0.12834 0.84263 0.63985 0.0
C236 C 0.12817 0.85708 0.63977 0.0
C237 C 0.11865 0.83253 0.6097 0.0
C238 C 0.11839 0.84707 0.61016 0.0
N239 N 0.12329 0.90094 0.62563 0.0
C240 C 0.13036 0.92856 0.64111 0.0
C241 C 0.12301 0.93029 0.62597 0.0
C242 C 0.11578 0.91701 0.61065 0.0
C243 C 0.11605 0.90261 0.61077 0.0
C244 C 0.13034 0.91393 0.64066 0.0
H245 H 0.1103 0.89298 0.59867 0.0
H246 H 0.13602 0.91342 0.65264 0.0
H247 H 0.13226 0.8662 0.65181 0.0
H248 H 0.1143 0.84801 0.59827 0.0
C249 C 0.10514 0.86464 0.58321 0.0
C250 C 0.07943 0.8716 0.62374 0.0
C251 C 0.16722 0.88966 0.62689 0.0
C252 C 0.14123 0.89549 0.66749 0.0
H253 H 0.05211 0.85413 0.58928 0.0
H254 H 0.06608 0.85011 0.56676 0.0
H255 H 0.13091 0.86762 0.56897 0.0
H256 H 0.16482 0.88098 0.59285 0.0
H257 H 0.19437 0.90634 0.66153 0.0
H258 H 0.18027 0.9093 0.68399 0.0
H259 H 0.11531 0.89359 0.68163 0.0
H260 H 0.08137 0.88036 0.65747 0.0
H261 H 0.13248 0.84139 0.65181 0.0
H262 H 0.11471 0.82313 0.5976 0.0
H263 H 0.13589 0.93839 0.65334 0.0
H264 H 0.11012 0.91774 0.59854 0.0
C265 C 0.08085 0.11621 0.60666 0.0
C266 C 0.0661 0.10851 0.5907 0.0
C267 C 0.07322 0.1061 0.5791 0.0
C268 C 0.09182 0.11249 0.58861 0.0
N269 N 0.09701 0.11859 0.6056 0.0
Co270 Co 0.12271 0.12993 0.62412 0.0
N271 N 0.13325 0.12735 0.60704 0.0
C272 C 0.12392 0.12015 0.58987 0.0
C273 C 0.13496 0.11977 0.58157 0.0
C274 C 0.15239 0.12692 0.59418 0.0
C275 C 0.15091 0.13124 0.60948 0.0
N276 N 0.1484 0.14157 0.64262 0.0
C277 C 0.16462 0.14436 0.64159 0.0
C278 C 0.17939 0.15278 0.65753 0.0
C279 C 0.17222 0.15524 0.6691 0.0
C280 C 0.15358 0.14822 0.65959 0.0
N281 N 0.11218 0.1322 0.6412 0.0
C282 C 0.12148 0.13879 0.65836 0.0
C283 C 0.11041 0.13869 0.66667 0.0
C284 C 0.093 0.13182 0.65408 0.0
C285 C 0.09452 0.12819 0.63878 0.0
N286 N 0.1225 0.10936 0.62464 0.0
C287 C 0.12263 0.08022 0.6253 0.0
C288 C 0.13008 0.09383 0.64036 0.0
C289 C 0.12988 0.10812 0.63974 0.0
C290 C 0.11513 0.08151 0.60992 0.0
C291 C 0.11521 0.09603 0.60988 0.0
N292 N 0.12293 0.15051 0.6236 0.0
C293 C 0.12762 0.17767 0.63803 0.0
C294 C 0.12292 0.1796 0.62277 0.0
C295 C 0.11817 0.1667 0.60793 0.0
C296 C 0.11814 0.15238 0.6086 0.0
C297 C 0.12764 0.1632 0.63818 0.0
H298 H 0.1141 0.14297 0.59679 0.0
H299 H 0.13153 0.16258 0.65025 0.0
H300 H 0.13582 0.11801 0.65167 0.0
H301 H 0.10938 0.09617 0.59772 0.0
C302 C 0.10477 0.11349 0.58195 0.0
C303 C 0.07894 0.1219 0.62239 0.0
C304 C 0.1666 0.13836 0.62596 0.0
C305 C 0.14063 0.14635 0.66626 0.0
H306 H 0.05172 0.1053 0.58773 0.0
H307 H 0.06578 0.10072 0.56538 0.0
H308 H 0.13081 0.11464 0.56799 0.0
H309 H 0.16478 0.12853 0.59236 0.0
H310 H 0.19381 0.15636 0.66051 0.0
H311 H 0.17968 0.16094 0.68282 0.0
H312 H 0.11454 0.14357 0.68026 0.0
H313 H 0.0806 0.1301 0.65591 0.0
H314 H 0.13587 0.09345 0.65264 0.0
H315 H 0.10944 0.07142 0.59787 0.0
H316 H 0.13155 0.18738 0.6499 0.0
H317 H 0.11418 0.16754 0.59574 0.0
C318 C 0.83039 0.11594 0.60667 0.0
C319 C 0.81512 0.10781 0.59106 0.0
C320 C 0.82152 0.10515 0.57893 0.0
C321 C 0.84024 0.1118 0.58779 0.0
N322 N 0.8462 0.11834 0.60489 0.0
Co323 Co 0.8723 0.13 0.62263 0.0
N324 N 0.88173 0.12726 0.60474 0.0
C325 C 0.87174 0.12007 0.58765 0.0
C326 C 0.88216 0.11971 0.57871 0.0
C327 C 0.89987 0.12685 0.5908 0.0
C328 C 0.89916 0.13113 0.60646 0.0
N329 N 0.89839 0.14177 0.64037 0.0
C330 C 0.91421 0.1443 0.63859 0.0
C331 C 0.92948 0.15265 0.65421 0.0
C332 C 0.92306 0.15534 0.66632 0.0
C333 C 0.90434 0.14848 0.65745 0.0
N334 N 0.86287 0.13264 0.64052 0.0
C335 C 0.87286 0.13963 0.6576 0.0
C336 C 0.86245 0.13984 0.66656 0.0
C337 C 0.84475 0.13277 0.65448 0.0
C338 C 0.84545 0.12871 0.63881 0.0
N339 N 0.87261 0.10959 0.62325 0.0
C340 C 0.87339 0.08069 0.62405 0.0
C341 C 0.88052 0.09424 0.63908 0.0
C342 C 0.88003 0.10843 0.63839 0.0
C343 C 0.86589 0.0819 0.60862 0.0
C344 C 0.86562 0.0963 0.60852 0.0
N345 N 0.87197 0.1504 0.62201 0.0
C346 C 0.87768 0.17784 0.63655 0.0
C347 C 0.87083 0.17919 0.62109 0.0
C348 C 0.86461 0.16583 0.60611 0.0
C349 C 0.86525 0.15171 0.60686 0.0
C350 C 0.87815 0.1635 0.63671 0.0
H351 H 0.86018 0.14201 0.59498 0.0
H352 H 0.88344 0.16328 0.64891 0.0
H353 H 0.88587 0.11832 0.65029 0.0
H354 H 0.8597 0.09637 0.59634 0.0
C355 C 0.85258 0.113 0.58042 0.0
C356 C 0.8293 0.12204 0.62275 0.0
C357 C 0.91533 0.13801 0.62255 0.0
C358 C 0.89201 0.14699 0.66483 0.0
H359 H 0.80086 0.10453 0.58866 0.0
H360 H 0.81352 0.09949 0.56526 0.0
H361 H 0.87743 0.11448 0.56504 0.0
H362 H 0.91193 0.12841 0.58842 0.0
H363 H 0.94376 0.15604 0.65664 0.0
H364 H 0.93106 0.16108 0.67999 0.0
H365 H 0.86719 0.14499 0.68023 0.0
H366 H 0.83269 0.13117 0.65689 0.0
H367 H 0.88673 0.09401 0.65137 0.0
H368 H 0.85999 0.0717 0.59662 0.0
H369 H 0.88244 0.18773 0.64853 0.0
H370 H 0.85941 0.16626 0.59379 0.0
C371 C 0.83089 0.86712 0.60784 0.0
C372 C 0.81555 0.85951 0.59229 0.0
C373 C 0.82181 0.85708 0.58004 0.0
C374 C 0.84052 0.86335 0.58877 0.0
N375 N 0.8466 0.86944 0.60589 0.0
Co376 Co 0.87276 0.88032 0.6235 0.0
N377 N 0.88204 0.87802 0.60548 0.0
C378 C 0.87193 0.87148 0.58842 0.0
C379 C 0.8822 0.87116 0.57933 0.0
C380 C 0.89991 0.87767 0.59127 0.0
C381 C 0.8994 0.88162 0.60701 0.0
N382 N 0.89888 0.89116 0.64111 0.0
C383 C 0.91457 0.89347 0.63915 0.0
C384 C 0.92994 0.90126 0.65468 0.0
C385 C 0.9237 0.90369 0.66695 0.0
C386 C 0.90498 0.8973 0.65823 0.0
N387 N 0.86351 0.88266 0.64152 0.0
C388 C 0.8736 0.88918 0.65858 0.0
C389 C 0.86332 0.88931 0.66767 0.0
C390 C 0.8456 0.8827 0.65572 0.0
C391 C 0.84617 0.87897 0.63999 0.0
N392 N 0.87222 0.8594 0.62302 0.0
C393 C 0.87162 0.82971 0.62229 0.0
C394 C 0.87876 0.84286 0.63771 0.0
C395 C 0.87897 0.85744 0.63777 0.0
C396 C 0.86487 0.83176 0.60725 0.0
C397 C 0.86526 0.84653 0.6079 0.0
N398 N 0.87328 0.90123 0.62397 0.0
C399 C 0.88061 0.92889 0.63964 0.0
C400 C 0.87359 0.93079 0.62456 0.0
C401 C 0.86637 0.91759 0.60918 0.0
C402 C 0.86633 0.90308 0.60918 0.0
C403 C 0.88033 0.91416 0.63906 0.0
H404 H 0.86047 0.89352 0.59704 0.0
H405 H 0.88589 0.91354 0.651 0.0
H406 H 0.88468 0.86696 0.64994 0.0
H407 H 0.85995 0.84724 0.59598 0.0
C408 C 0.85277 0.86471 0.5813 0.0
C409 C 0.82998 0.8728 0.62408 0.0
C410 C 0.91553 0.88771 0.62296 0.0
C411 C 0.89276 0.89595 0.66571 0.0
H412 H 0.80135 0.85642 0.59004 0.0
H413 H 0.81373 0.85185 0.56639 0.0
H414 H 0.87734 0.86629 0.56564 0.0
H415 H 0.9118 0.87895 0.58865 0.0
H416 H 0.94415 0.90448 0.65688 0.0
H417 H 0.93181 0.90904 0.6806 0.0
H418 H 0.86816 0.89405 0.68135 0.0
H419 H 0.83364 0.88115 0.65827 0.0
H420 H 0.88398 0.84192 0.64975 0.0
H421 H 0.85948 0.82208 0.59495 0.0
H422 H 0.88653 0.93877 0.6519 0.0
H423 H 0.86049 0.91835 0.59713 0.0
C424 C 0.38383 0.13702 0.15318 0.0
C425 C 0.40083 0.14375 0.16704 0.0
C426 C 0.41376 0.14704 0.161 0.0
C427 C 0.40402 0.14206 0.14387 0.0
N428 N 0.3856 0.13593 0.13857 0.0
Co429 Co 0.36632 0.12623 0.11449 0.0
N430 N 0.38541 0.1297 0.10549 0.0
C431 C 0.40383 0.13606 0.11458 0.0
C432 C 0.41341 0.1372 0.10491 0.0
C433 C 0.40035 0.13144 0.08868 0.0
C434 C 0.38351 0.12716 0.08944 0.0
N435 N 0.34704 0.11654 0.09041 0.0
C436 C 0.34883 0.11527 0.07579 0.0
C437 C 0.33189 0.10828 0.06184 0.0
C438 C 0.31892 0.10515 0.06787 0.0
C439 C 0.32862 0.11042 0.08507 0.0
N440 N 0.34722 0.12272 0.12346 0.0
C441 C 0.3288 0.11637 0.11436 0.0
C442 C 0.31922 0.11543 0.12404 0.0
C443 C 0.33226 0.12128 0.14029 0.0
C444 C 0.34911 0.12536 0.13954 0.0
N445 N 0.36701 0.14754 0.11656 0.0
C446 C 0.368 0.17759 0.11838 0.0
C447 C 0.35134 0.16437 0.11184 0.0
C448 C 0.35116 0.14962 0.11103 0.0
C449 C 0.38417 0.17548 0.12415 0.0
C450 C 0.38336 0.16054 0.12318 0.0
N451 N 0.36564 0.10492 0.11244 0.0
C452 C 0.34852 0.07697 0.10485 0.0
C453 C 0.36471 0.07504 0.1112 0.0
C454 C 0.38136 0.08831 0.11793 0.0
C455 C 0.38151 0.10296 0.11839 0.0
C456 C 0.34929 0.09186 0.10557 0.0
H457 H 0.39465 0.11256 0.12382 0.0
H458 H 0.33646 0.09252 0.10061 0.0
H459 H 0.33801 0.14007 0.10579 0.0
H460 H 0.39618 0.15977 0.12772 0.0
C461 C 0.41175 0.14173 0.13229 0.0
C462 C 0.36642 0.13103 0.15433 0.0
C463 C 0.3662 0.12135 0.07467 0.0
C464 C 0.32088 0.11073 0.09664 0.0
H465 H 0.4037 0.14567 0.18011 0.0
H466 H 0.4285 0.15192 0.16816 0.0
H467 H 0.42815 0.14205 0.10921 0.0
H468 H 0.40293 0.13077 0.07758 0.0
H469 H 0.32917 0.10604 0.04872 0.0
H470 H 0.30418 0.1001 0.06064 0.0
H471 H 0.30448 0.11073 0.11974 0.0
H472 H 0.32964 0.12216 0.15139 0.0
H473 H 0.3384 0.16536 0.10746 0.0
H474 H 0.39746 0.18525 0.12914 0.0
H475 H 0.33524 0.06703 0.09923 0.0
H476 H 0.39432 0.08754 0.1232 0.0
C477 C 0.92154 0.40266 0.15234 0.0
C478 C 0.93621 0.41754 0.1614 0.0
C479 C 0.92892 0.42838 0.16397 0.0
C480 C 0.9103 0.41954 0.15636 0.0
N481 N 0.90526 0.40368 0.14927 0.0
Co482 Co 0.87965 0.38646 0.13658 0.0
N483 N 0.86885 0.4025 0.13819 0.0
C484 C 0.87813 0.41854 0.14542 0.0
C485 C 0.86706 0.42645 0.14492 0.0
C486 C 0.84964 0.41481 0.13699 0.0
C487 C 0.85109 0.40036 0.133 0.0
N488 N 0.85406 0.36921 0.12426 0.0
C489 C 0.83772 0.37023 0.12053 0.0
C490 C 0.8231 0.3553 0.11195 0.0
C491 C 0.83047 0.34444 0.11057 0.0
C492 C 0.84907 0.3533 0.11826 0.0
N493 N 0.89045 0.37043 0.13452 0.0
C494 C 0.88131 0.35439 0.12714 0.0
C495 C 0.8925 0.34659 0.12704 0.0
C496 C 0.90983 0.35835 0.13448 0.0
C497 C 0.90813 0.37267 0.13868 0.0
N498 N 0.87968 0.38634 0.15852 0.0
C499 C 0.87886 0.3859 0.18934 0.0
C500 C 0.87515 0.37205 0.17603 0.0
C501 C 0.87546 0.37251 0.16087 0.0
C502 C 0.88313 0.40003 0.18694 0.0
C503 C 0.88361 0.4 0.17165 0.0
N504 N 0.87961 0.38655 0.11471 0.0
C505 C 0.87271 0.37228 0.08531 0.0
C506 C 0.88015 0.3865 0.08375 0.0
C507 C 0.88726 0.40078 0.09796 0.0
C508 C 0.8869 0.40053 0.11321 0.0
C509 C 0.87256 0.37258 0.10073 0.0
H510 H 0.89269 0.41179 0.12365 0.0
H511 H 0.86667 0.36133 0.10104 0.0
H512 H 0.87218 0.36146 0.15125 0.0
H513 H 0.88706 0.41117 0.17077 0.0
C514 C 0.89726 0.42582 0.15393 0.0
C515 C 0.9236 0.38802 0.14579 0.0
C516 C 0.83534 0.38499 0.12522 0.0
C517 C 0.86216 0.34703 0.11987 0.0
H518 H 0.95065 0.4203 0.16525 0.0
H519 H 0.93626 0.44122 0.16999 0.0
H520 H 0.87118 0.43918 0.15024 0.0
H521 H 0.83735 0.41684 0.13488 0.0
H522 H 0.8086 0.35255 0.10732 0.0
H523 H 0.82315 0.33161 0.10473 0.0
H524 H 0.8885 0.33388 0.12179 0.0
H525 H 0.92229 0.35663 0.13628 0.0
H526 H 0.87214 0.36081 0.17725 0.0
H527 H 0.88587 0.41109 0.19669 0.0
H528 H 0.86678 0.36091 0.07459 0.0
H529 H 0.89334 0.41211 0.09743 0.0
C530 C 0.63883 0.88935 0.1542 0.0
C531 C 0.65546 0.89707 0.16859 0.0
C532 C 0.66888 0.90025 0.16308 0.0
C533 C 0.65971 0.89435 0.14573 0.0
N534 N 0.64122 0.88781 0.13981 0.0
Co535 Co 0.6226 0.87736 0.11543 0.0
N536 N 0.64237 0.88111 0.10725 0.0
C537 C 0.66073 0.88808 0.11688 0.0
C538 C 0.67083 0.88942 0.10768 0.0
C539 C 0.65818 0.88319 0.09119 0.0
C540 C 0.64105 0.87843 0.09133 0.0
N541 N 0.604 0.8668 0.09102 0.0
C542 C 0.60638 0.8654 0.07663 0.0
C543 C 0.58974 0.85769 0.06225 0.0
C544 C 0.57634 0.85423 0.06775 0.0
C545 C 0.58552 0.86003 0.08509 0.0
N546 N 0.60283 0.87375 0.12362 0.0
C547 C 0.58448 0.86679 0.11395 0.0
C548 C 0.57435 0.86556 0.12314 0.0
C549 C 0.58696 0.87194 0.13966 0.0
C550 C 0.60413 0.87675 0.13958 0.0
N551 N 0.62256 0.89822 0.11636 0.0
C552 C 0.62256 0.92757 0.11651 0.0
C553 C 0.60614 0.91398 0.10938 0.0
C554 C 0.60645 0.89957 0.10944 0.0
C555 C 0.63897 0.92622 0.12374 0.0
C556 C 0.63865 0.91159 0.12355 0.0
N557 N 0.62265 0.85649 0.11452 0.0
C558 C 0.60626 0.82876 0.10829 0.0
C559 C 0.62269 0.82729 0.115 0.0
C560 C 0.6391 0.84066 0.12118 0.0
C561 C 0.63877 0.85498 0.12083 0.0
C562 C 0.60655 0.84329 0.10811 0.0
H563 H 0.65175 0.86469 0.12586 0.0
H564 H 0.59355 0.84358 0.10293 0.0
H565 H 0.59348 0.88967 0.10365 0.0
H566 H 0.65163 0.91139 0.12922 0.0
C567 C 0.66807 0.89409 0.13462 0.0
C568 C 0.6212 0.8832 0.15484 0.0
C569 C 0.624 0.87207 0.07612 0.0
C570 C 0.57717 0.8605 0.09621 0.0
H571 H 0.65766 0.89985 0.18169 0.0
H572 H 0.68357 0.90585 0.17077 0.0
H573 H 0.68562 0.89472 0.11244 0.0
H574 H 0.6612 0.88254 0.08031 0.0
H575 H 0.58747 0.85522 0.04918 0.0
H576 H 0.56165 0.84868 0.06008 0.0
H577 H 0.55956 0.8602 0.11834 0.0
H578 H 0.58384 0.87258 0.15047 0.0
H579 H 0.59305 0.91432 0.10344 0.0
H580 H 0.65206 0.93645 0.12966 0.0
H581 H 0.59314 0.81885 0.10348 0.0
H582 H 0.65224 0.84012 0.12623 0.0
C583 C 0.16831 0.64694 0.14734 0.0
C584 C 0.18303 0.66177 0.15521 0.0
C585 C 0.17594 0.67278 0.15763 0.0
C586 C 0.15738 0.66408 0.15109 0.0
N587 N 0.15221 0.64816 0.1449 0.0
Co588 Co 0.12656 0.63103 0.13338 0.0
N589 N 0.11596 0.64718 0.13527 0.0
C590 C 0.12523 0.6632 0.14209 0.0
C591 C 0.11417 0.67114 0.14201 0.0
C592 C 0.09681 0.65952 0.13495 0.0
C593 C 0.09833 0.64512 0.13111 0.0
N594 N 0.10093 0.61388 0.1218 0.0
C595 C 0.08478 0.61508 0.11894 0.0
C596 C 0.07002 0.60026 0.11076 0.0
C597 C 0.07715 0.58925 0.10863 0.0
C598 C 0.09575 0.59795 0.11558 0.0
N599 N 0.13713 0.61487 0.13153 0.0
C600 C 0.12791 0.59886 0.12503 0.0
C601 C 0.13902 0.59095 0.1252 0.0
C602 C 0.15633 0.60258 0.13192 0.0
C603 C 0.15472 0.61693 0.13541 0.0
N604 N 0.12764 0.6317 0.15581 0.0
C605 C 0.12939 0.63249 0.18765 0.0
C606 C 0.12219 0.61806 0.17365 0.0
C607 C 0.12143 0.61794 0.15801 0.0
C608 C 0.13549 0.64654 0.18539 0.0
C609 C 0.1345 0.64587 0.1695 0.0
N610 N 0.1255 0.63034 0.11098 0.0
C611 C 0.11877 0.61534 0.08179 0.0
C612 C 0.1248 0.62929 0.07935 0.0
C613 C 0.13113 0.64379 0.09302 0.0
C614 C 0.13138 0.64404 0.10858 0.0
C615 C 0.11924 0.61613 0.09754 0.0
H616 H 0.13652 0.65546 0.11852 0.0
H617 H 0.1145 0.60506 0.09853 0.0
H618 H 0.11568 0.60654 0.1479 0.0
H619 H 0.1394 0.65699 0.16864 0.0
C620 C 0.14439 0.67046 0.14937 0.0
C621 C 0.17008 0.63207 0.1413 0.0
C622 C 0.08283 0.6299 0.12462 0.0
C623 C 0.10874 0.59156 0.11757 0.0
H624 H 0.19735 0.66436 0.1584 0.0
H625 H 0.18335 0.68559 0.16294 0.0
H626 H 0.11829 0.68387 0.14695 0.0
H627 H 0.08447 0.66144 0.13323 0.0
H628 H 0.05564 0.59772 0.10711 0.0
H629 H 0.06971 0.57644 0.10316 0.0
H630 H 0.13494 0.57823 0.12042 0.0
H631 H 0.16869 0.60072 0.13359 0.0
H632 H 0.11694 0.60683 0.17465 0.0
H633 H 0.14129 0.65804 0.19589 0.0
H634 H 0.11349 0.60378 0.07153 0.0
H635 H 0.13617 0.65496 0.09185 0.0
C636 C 0.39209 0.8926 0.92259 0.0
C637 C 0.40886 0.89988 0.93679 0.0
C638 C 0.42209 0.90336 0.93111 0.0
C639 C 0.4127 0.89799 0.91384 0.0
N640 N 0.39424 0.89147 0.90814 0.0
Co641 Co 0.37536 0.88155 0.88388 0.0
N642 N 0.39487 0.88542 0.87541 0.0
C643 C 0.41325 0.89204 0.88483 0.0
C644 C 0.42316 0.8931 0.87545 0.0
C645 C 0.41037 0.88702 0.85905 0.0
C646 C 0.39333 0.8827 0.85942 0.0
N647 N 0.35647 0.87168 0.85962 0.0
C648 C 0.35859 0.87062 0.84517 0.0
C649 C 0.34176 0.86373 0.83107 0.0
C650 C 0.32857 0.8603 0.83679 0.0
C651 C 0.33801 0.86536 0.85398 0.0
N652 N 0.35586 0.87763 0.89236 0.0
C653 C 0.33747 0.87094 0.88296 0.0
C654 C 0.32757 0.86948 0.89232 0.0
C655 C 0.34038 0.87538 0.90868 0.0
C656 C 0.3574 0.88004 0.9083 0.0
N657 N 0.3756 0.90269 0.88569 0.0
C658 C 0.37592 0.93228 0.88637 0.0
C659 C 0.35942 0.91894 0.87996 0.0
C660 C 0.35958 0.90443 0.87976 0.0
C661 C 0.39227 0.9306 0.89277 0.0
C662 C 0.3918 0.91586 0.89235 0.0
N663 N 0.37512 0.86041 0.88203 0.0
C664 C 0.35843 0.83232 0.8741 0.0
C665 C 0.37477 0.83057 0.88032 0.0
C666 C 0.39128 0.84405 0.88727 0.0
C667 C 0.39114 0.85869 0.88804 0.0
C668 C 0.35892 0.84718 0.87501 0.0
H669 H 0.40419 0.86845 0.89363 0.0
H670 H 0.34599 0.84767 0.87009 0.0
H671 H 0.34653 0.89477 0.87459 0.0
H672 H 0.40474 0.91538 0.89727 0.0
C673 C 0.42082 0.89782 0.90256 0.0
C674 C 0.37457 0.8861 0.92331 0.0
C675 C 0.37619 0.8767 0.84435 0.0
C676 C 0.32991 0.86537 0.86527 0.0
H677 H 0.41131 0.90207 0.94985 0.0
H678 H 0.43681 0.90867 0.9386 0.0
H679 H 0.43793 0.89801 0.88002 0.0
H680 H 0.41327 0.88614 0.84808 0.0
H681 H 0.33915 0.86176 0.81803 0.0
H682 H 0.31386 0.85523 0.82938 0.0
H683 H 0.3128 0.86438 0.88774 0.0
H684 H 0.33753 0.87589 0.91962 0.0
H685 H 0.34636 0.91965 0.87516 0.0
H686 H 0.40544 0.94051 0.89776 0.0
H687 H 0.34524 0.82235 0.86879 0.0
H688 H 0.40436 0.84334 0.89201 0.0
C689 C 0.16416 0.39722 0.88108 0.0
C690 C 0.17831 0.41232 0.88839 0.0
C691 C 0.17045 0.42282 0.88987 0.0
C692 C 0.15203 0.41358 0.88334 0.0
N693 N 0.14765 0.3978 0.87803 0.0
Co694 Co 0.1224 0.38003 0.86641 0.0
N695 N 0.11077 0.39547 0.86793 0.0
C696 C 0.11944 0.41155 0.87511 0.0
C697 C 0.10784 0.41893 0.87508 0.0
C698 C 0.09073 0.40686 0.86772 0.0
C699 C 0.09293 0.39276 0.8636 0.0
N700 N 0.09718 0.36226 0.85424 0.0
C701 C 0.08062 0.36278 0.85076 0.0
C702 C 0.06635 0.34767 0.84189 0.0
C703 C 0.07422 0.33719 0.83997 0.0
C704 C 0.09274 0.34647 0.84767 0.0
N705 N 0.13399 0.36461 0.86548 0.0
C706 C 0.12536 0.34858 0.85935 0.0
C707 C 0.13705 0.34122 0.86064 0.0
C708 C 0.15417 0.35325 0.86785 0.0
C709 C 0.15186 0.36728 0.87042 0.0
N710 N 0.12308 0.38061 0.88868 0.0
C711 C 0.12355 0.38152 0.92019 0.0
C712 C 0.11587 0.36705 0.9061 0.0
C713 C 0.11575 0.36687 0.89059 0.0
C714 C 0.13101 0.39551 0.91823 0.0
C715 C 0.13065 0.39479 0.90253 0.0
N716 N 0.12173 0.37947 0.84413 0.0
C717 C 0.11896 0.36535 0.81612 0.0
C718 C 0.12195 0.37904 0.8129 0.0
C719 C 0.12463 0.39288 0.82557 0.0
C720 C 0.12462 0.39287 0.84096 0.0
C721 C 0.11876 0.36579 0.83161 0.0
H722 H 0.12706 0.4039 0.85008 0.0
H723 H 0.11633 0.35493 0.83318 0.0
H724 H 0.10956 0.35547 0.88031 0.0
H725 H 0.13658 0.40588 0.90192 0.0
C726 C 0.13852 0.41934 0.88185 0.0
C727 C 0.16692 0.38268 0.87648 0.0
C728 C 0.07782 0.37716 0.85647 0.0
C729 C 0.10626 0.34072 0.85075 0.0
H730 H 0.19278 0.41541 0.89198 0.0
H731 H 0.17731 0.43565 0.89484 0.0
H732 H 0.11142 0.43158 0.88008 0.0
H733 H 0.07812 0.40829 0.86589 0.0
H734 H 0.05181 0.34458 0.83772 0.0
H735 H 0.06729 0.32433 0.83427 0.0
H736 H 0.13351 0.32859 0.85625 0.0
H737 H 0.16688 0.35185 0.87041 0.0
H738 H 0.10971 0.35588 0.90692 0.0
H739 H 0.13734 0.40702 0.92884 0.0
H740 H 0.11704 0.35433 0.80687 0.0
H741 H 0.12661 0.40376 0.82368 0.0
C742 C 0.64986 0.1456 0.92502 0.0
C743 C 0.66665 0.15357 0.93925 0.0
C744 C 0.67982 0.15705 0.93349 0.0
C745 C 0.67038 0.15103 0.91616 0.0
N746 N 0.65194 0.14405 0.91048 0.0
Co747 Co 0.63304 0.13328 0.88618 0.0
N748 N 0.65252 0.13693 0.87763 0.0
C749 C 0.67091 0.14383 0.88707 0.0
C750 C 0.68079 0.14508 0.87768 0.0
C751 C 0.66798 0.13878 0.86125 0.0
C752 C 0.65093 0.134 0.86159 0.0
N753 N 0.61413 0.12278 0.86191 0.0
C754 C 0.61623 0.12142 0.84742 0.0
C755 C 0.59946 0.11373 0.83319 0.0
C756 C 0.58625 0.1104 0.83891 0.0
C757 C 0.59567 0.11619 0.85623 0.0
N758 N 0.61357 0.12936 0.8947 0.0
C759 C 0.59517 0.12209 0.88525 0.0
C760 C 0.58532 0.12066 0.89466 0.0
C761 C 0.59818 0.12713 0.91109 0.0
C762 C 0.61519 0.13212 0.91072 0.0
N763 N 0.63266 0.15405 0.88709 0.0
C764 C 0.63197 0.18309 0.88659 0.0
C765 C 0.61579 0.16981 0.88136 0.0
C766 C 0.61644 0.15556 0.88166 0.0
C767 C 0.64854 0.1816 0.89239 0.0
C768 C 0.64858 0.16717 0.89263 0.0
N769 N 0.63342 0.1125 0.88525 0.0
C770 C 0.61733 0.08443 0.87781 0.0
C771 C 0.63381 0.0833 0.88534 0.0
C772 C 0.65012 0.09703 0.89261 0.0
C773 C 0.64961 0.11135 0.89242 0.0
C774 C 0.61745 0.09898 0.87787 0.0
H775 H 0.6625 0.12137 0.89834 0.0
H776 H 0.60442 0.09899 0.87197 0.0
H777 H 0.60359 0.14591 0.87729 0.0
H778 H 0.66166 0.16687 0.89715 0.0
C779 C 0.67847 0.15038 0.90483 0.0
C780 C 0.63244 0.13883 0.92583 0.0
C781 C 0.6337 0.12773 0.84655 0.0
C782 C 0.58758 0.1162 0.86752 0.0
H783 H 0.66918 0.15617 0.95239 0.0
H784 H 0.69454 0.16275 0.94099 0.0
H785 H 0.69556 0.1505 0.88229 0.0
H786 H 0.6709 0.13824 0.85035 0.0
H787 H 0.59705 0.11107 0.82005 0.0
H788 H 0.57153 0.10477 0.8314 0.0
H789 H 0.57055 0.11522 0.89008 0.0
H790 H 0.59539 0.12784 0.92209 0.0
H791 H 0.60258 0.17035 0.87709 0.0
H792 H 0.6615 0.19141 0.89643 0.0
H793 H 0.60432 0.07409 0.87175 0.0
H794 H 0.66326 0.09686 0.89876 0.0
C795 C 0.9106 0.63445 0.87815 0.0
C796 C 0.92648 0.64849 0.88691 0.0
C797 C 0.92107 0.66057 0.89024 0.0
C798 C 0.9023 0.65323 0.88338 0.0
N799 N 0.89539 0.63716 0.87613 0.0
Co800 Co 0.86889 0.6217 0.86416 0.0
N801 N 0.86078 0.63949 0.86736 0.0
C802 C 0.87163 0.6553 0.87495 0.0
C803 C 0.86216 0.66461 0.87587 0.0
C804 C 0.84419 0.65415 0.86866 0.0
C805 C 0.84372 0.63898 0.86363 0.0
N806 N 0.84241 0.60624 0.85224 0.0
C807 C 0.82714 0.60894 0.84983 0.0
C808 C 0.81129 0.59486 0.84096 0.0
C809 C 0.81678 0.58279 0.83804 0.0
C810 C 0.83556 0.59017 0.84517 0.0
N811 N 0.87702 0.60393 0.86091 0.0
C812 C 0.86624 0.58812 0.85342 0.0
C813 C 0.8758 0.57887 0.85249 0.0
C814 C 0.89374 0.58938 0.85953 0.0
C815 C 0.89405 0.60449 0.86439 0.0
N816 N 0.86926 0.62171 0.88621 0.0
C817 C 0.8691 0.62191 0.91736 0.0
C818 C 0.86167 0.60761 0.9031 0.0
C819 C 0.86184 0.60779 0.88777 0.0
C820 C 0.87667 0.63608 0.91576 0.0
C821 C 0.87664 0.63571 0.90026 0.0
N822 N 0.86852 0.62171 0.84214 0.0
C823 C 0.86034 0.60761 0.81231 0.0
C824 C 0.86832 0.62187 0.811 0.0
C825 C 0.87644 0.63602 0.82556 0.0
C826 C 0.87639 0.63567 0.84083 0.0
C827 C 0.86062 0.60781 0.82788 0.0
H828 H 0.88281 0.64687 0.85141 0.0
H829 H 0.85445 0.59655 0.82806 0.0
H830 H 0.85575 0.59651 0.87735 0.0
H831 H 0.88264 0.64693 0.89998 0.0
C832 C 0.89075 0.66107 0.88231 0.0
C833 C 0.91061 0.61894 0.87106 0.0
C834 C 0.82697 0.62449 0.85647 0.0
C835 C 0.84713 0.58234 0.8462 0.0
H836 H 0.94047 0.64983 0.8901 0.0
H837 H 0.92974 0.67322 0.89638 0.0
H838 H 0.86771 0.67746 0.88168 0.0
H839 H 0.83286 0.65745 0.86776 0.0
H840 H 0.79725 0.59347 0.83735 0.0
H841 H 0.80813 0.57014 0.83183 0.0
H842 H 0.87032 0.56601 0.84679 0.0
H843 H 0.90523 0.58628 0.8605 0.0
H844 H 0.85547 0.59632 0.90366 0.0
H845 H 0.88283 0.64746 0.92651 0.0
H846 H 0.85408 0.59631 0.80145 0.0
H847 H 0.88261 0.6474 0.82516 0.0
C848 C 0.1716 0.40203 0.1509 0.0
C849 C 0.18701 0.41645 0.15988 0.0
C850 C 0.1808 0.42806 0.16252 0.0
C851 C 0.16206 0.4201 0.15513 0.0
N852 N 0.15591 0.40408 0.14814 0.0
Co853 Co 0.12973 0.3879 0.13604 0.0
N854 N 0.12058 0.40501 0.13886 0.0
C855 C 0.13073 0.42093 0.14609 0.0
C856 C 0.12051 0.42963 0.14646 0.0
C857 C 0.10278 0.41863 0.13928 0.0
C858 C 0.10327 0.40382 0.13499 0.0
N859 N 0.10352 0.37172 0.12401 0.0
C860 C 0.08787 0.37378 0.12164 0.0
C861 C 0.07248 0.35936 0.11321 0.0
C862 C 0.07864 0.34773 0.11033 0.0
C863 C 0.09735 0.35569 0.11716 0.0
N864 N 0.1389 0.37077 0.13316 0.0
C865 C 0.12866 0.35485 0.12555 0.0
C866 C 0.13876 0.34609 0.12479 0.0
C867 C 0.15651 0.35703 0.13214 0.0
C868 C 0.15623 0.37194 0.1371 0.0
N869 N 0.13019 0.38784 0.15807 0.0
C870 C 0.13053 0.38762 0.18922 0.0
C871 C 0.12341 0.37344 0.17491 0.0
C872 C 0.12338 0.37381 0.15963 0.0
C873 C 0.13747 0.40193 0.18766 0.0
C874 C 0.13713 0.40177 0.17209 0.0
N875 N 0.12929 0.38795 0.11399 0.0
C876 C 0.12179 0.37364 0.08441 0.0
C877 C 0.12938 0.38782 0.08285 0.0
C878 C 0.13684 0.4021 0.09714 0.0
C879 C 0.13668 0.40189 0.11246 0.0
C880 C 0.12187 0.37397 0.09992 0.0
H881 H 0.14275 0.41315 0.1229 0.0
H882 H 0.11589 0.36274 0.10018 0.0
H883 H 0.11775 0.36259 0.14925 0.0
H884 H 0.14246 0.41306 0.1717 0.0
C885 C 0.14988 0.42734 0.15365 0.0
C886 C 0.17259 0.38681 0.14452 0.0
C887 C 0.08707 0.38905 0.12817 0.0
C888 C 0.10951 0.34846 0.11829 0.0
H889 H 0.20124 0.41836 0.16375 0.0
H890 H 0.18895 0.4408 0.1687 0.0
H891 H 0.12541 0.44245 0.15184 0.0
H892 H 0.09086 0.42118 0.13778 0.0
H893 H 0.0583 0.35741 0.10991 0.0
H894 H 0.07051 0.335 0.10444 0.0
H895 H 0.13376 0.33327 0.11907 0.0
H896 H 0.16821 0.35425 0.13325 0.0
H897 H 0.11808 0.36202 0.17552 0.0
H898 H 0.14292 0.41325 0.19833 0.0
H899 H 0.11559 0.36226 0.07364 0.0
H900 H 0.14306 0.41341 0.09662 0.0
C901 C 0.16055 0.63959 0.87955 0.0
C902 C 0.17498 0.65462 0.88802 0.0
C903 C 0.16736 0.6653 0.88949 0.0
C904 C 0.1488 0.65622 0.88193 0.0
N905 N 0.1441 0.64037 0.87595 0.0
Co906 Co 0.11866 0.62287 0.86364 0.0
N907 N 0.10744 0.63861 0.86564 0.0
C908 C 0.11638 0.65467 0.8732 0.0
C909 C 0.105 0.66227 0.87336 0.0
C910 C 0.08775 0.65035 0.86574 0.0
C911 C 0.08965 0.63614 0.86128 0.0
N912 N 0.09324 0.60539 0.85092 0.0
C913 C 0.07682 0.60615 0.84763 0.0
C914 C 0.06232 0.59119 0.83834 0.0
C915 C 0.06988 0.58053 0.83593 0.0
C916 C 0.08846 0.58957 0.84381 0.0
N917 N 0.12985 0.60711 0.86212 0.0
C918 C 0.12083 0.59104 0.855 0.0
C919 C 0.13213 0.58335 0.85554 0.0
C920 C 0.14943 0.59517 0.86338 0.0
C921 C 0.14769 0.60949 0.86727 0.0
N922 N 0.11877 0.62267 0.88551 0.0
C923 C 0.11837 0.62256 0.91646 0.0
C924 C 0.11129 0.60832 0.90221 0.0
C925 C 0.11158 0.60865 0.88696 0.0
C926 C 0.12572 0.63682 0.91495 0.0
C927 C 0.12582 0.63661 0.89953 0.0
N928 N 0.11857 0.62308 0.84173 0.0
C929 C 0.11566 0.60963 0.81348 0.0
C930 C 0.11948 0.62373 0.81101 0.0
C931 C 0.12265 0.63744 0.82419 0.0
C932 C 0.12231 0.63689 0.83931 0.0
C933 C 0.11512 0.60955 0.82871 0.0
H934 H 0.12518 0.64784 0.84885 0.0
H935 H 0.11203 0.5984 0.82966 0.0
H936 H 0.1058 0.59742 0.87649 0.0
H937 H 0.13165 0.64789 0.89928 0.0
C938 C 0.13551 0.66225 0.88041 0.0
C939 C 0.16321 0.62498 0.8748 0.0
C940 C 0.07433 0.62062 0.85386 0.0
C941 C 0.10172 0.58353 0.84636 0.0
H942 H 0.18952 0.65756 0.89252 0.0
H943 H 0.17448 0.67815 0.89528 0.0
H944 H 0.10882 0.67495 0.87875 0.0
H945 H 0.07525 0.65196 0.86401 0.0
H946 H 0.04781 0.5883 0.83416 0.0
H947 H 0.06272 0.56768 0.82977 0.0
H948 H 0.12823 0.57066 0.85026 0.0
H949 H 0.16183 0.59332 0.86544 0.0
H950 H 0.10529 0.59696 0.90271 0.0
H951 H 0.13162 0.64816 0.92571 0.0
H952 H 0.11333 0.59869 0.80383 0.0
H953 H 0.12529 0.64863 0.82291 0.0
C954 C 0.39205 0.14372 0.9231 0.0
C955 C 0.40868 0.1513 0.93749 0.0
C956 C 0.42211 0.15474 0.93202 0.0
C957 C 0.41297 0.14904 0.91469 0.0
N958 N 0.39448 0.14237 0.90874 0.0
Co959 Co 0.37592 0.13182 0.88431 0.0
N960 N 0.39574 0.13552 0.87618 0.0
C961 C 0.41409 0.14262 0.88588 0.0
C962 C 0.42425 0.144 0.87674 0.0
C963 C 0.41166 0.13759 0.86021 0.0
C964 C 0.39447 0.1326 0.86023 0.0
N965 N 0.35736 0.12127 0.85992 0.0
C966 C 0.35978 0.1197 0.84554 0.0
C967 C 0.34317 0.11179 0.83111 0.0
C968 C 0.32973 0.10853 0.83659 0.0
C969 C 0.33886 0.11455 0.85395 0.0
N970 N 0.35611 0.1281 0.89243 0.0
C971 C 0.33775 0.12119 0.88276 0.0
C972 C 0.32762 0.11999 0.89195 0.0
C973 C 0.34023 0.12627 0.90846 0.0
C974 C 0.35738 0.13088 0.90835 0.0
N975 N 0.37582 0.15266 0.88516 0.0
C976 C 0.37574 0.18184 0.88461 0.0
C977 C 0.35934 0.16837 0.87815 0.0
C978 C 0.35969 0.15406 0.87853 0.0
C979 C 0.39218 0.18046 0.89163 0.0
C980 C 0.3919 0.16595 0.89185 0.0
N981 N 0.37602 0.11098 0.88344 0.0
C982 C 0.35971 0.08309 0.87662 0.0
C983 C 0.37618 0.08167 0.88339 0.0
C984 C 0.39257 0.09519 0.89 0.0
C985 C 0.39218 0.10956 0.88991 0.0
C986 C 0.35995 0.09768 0.87674 0.0
H987 H 0.40514 0.11938 0.89524 0.0
H988 H 0.34693 0.09794 0.87149 0.0
H989 H 0.34672 0.14427 0.87324 0.0
H990 H 0.40491 0.16574 0.89731 0.0
C991 C 0.42136 0.14875 0.90362 0.0
C992 C 0.37439 0.13716 0.92358 0.0
C993 C 0.3774 0.12603 0.84495 0.0
C994 C 0.33046 0.11496 0.86502 0.0
H995 H 0.41093 0.15371 0.95054 0.0
H996 H 0.43679 0.16023 0.93971 0.0
H997 H 0.43904 0.14945 0.88157 0.0
H998 H 0.41482 0.13704 0.84943 0.0
H999 H 0.34101 0.10896 0.81801 0.0
H1000 H 0.31505 0.10283 0.82886 0.0
H1001 H 0.31282 0.11474 0.88716 0.0
H1002 H 0.33716 0.12702 0.91932 0.0
H1003 H 0.34619 0.16883 0.87287 0.0
H1004 H 0.4053 0.19044 0.89665 0.0
H1005 H 0.34661 0.07305 0.87151 0.0
H1006 H 0.40572 0.09471 0.89514 0.0
C1007 C 0.914 0.39282 0.88062 0.0
C1008 C 0.92928 0.4073 0.88879 0.0
C1009 C 0.92295 0.41883 0.89156 0.0
C1010 C 0.90428 0.41074 0.88496 0.0
N1011 N 0.8983 0.39473 0.87841 0.0
Co1012 Co 0.87224 0.37834 0.86692 0.0
N1013 N 0.86275 0.39527 0.86948 0.0
C1014 C 0.87278 0.41122 0.87674 0.0
C1015 C 0.8625 0.41982 0.87734 0.0
C1016 C 0.84484 0.40874 0.87025 0.0
C1017 C 0.84535 0.39393 0.8656 0.0
N1018 N 0.8462 0.36195 0.85532 0.0
C1019 C 0.83039 0.36382 0.8525 0.0
C1020 C 0.81514 0.34929 0.84386 0.0
C1021 C 0.82156 0.33781 0.8415 0.0
C1022 C 0.84027 0.34594 0.84869 0.0
N1023 N 0.88173 0.36144 0.86443 0.0
C1024 C 0.87178 0.3455 0.85757 0.0
C1025 C 0.88216 0.33695 0.85724 0.0
C1026 C 0.89978 0.34805 0.86406 0.0
C1027 C 0.8991 0.36279 0.86818 0.0
N1028 N 0.87324 0.37882 0.88928 0.0
C1029 C 0.87393 0.37963 0.92084 0.0
C1030 C 0.86652 0.36518 0.90679 0.0
C1031 C 0.86628 0.36505 0.89126 0.0
C1032 C 0.88107 0.39365 0.91883 0.0
C1033 C 0.88062 0.39298 0.90312 0.0
N1034 N 0.87121 0.37789 0.84458 0.0
C1035 C 0.86338 0.36326 0.81496 0.0
C1036 C 0.8696 0.37739 0.81287 0.0
C1037 C 0.87683 0.39175 0.82698 0.0
C1038 C 0.87752 0.39173 0.84255 0.0
C1039 C 0.8643 0.36378 0.83079 0.0
H1040 H 0.88328 0.40308 0.85278 0.0
H1041 H 0.85932 0.35261 0.83154 0.0
H1042 H 0.86025 0.35366 0.88102 0.0
H1043 H 0.88629 0.4041 0.90252 0.0
C1044 C 0.89194 0.4178 0.88378 0.0
C1045 C 0.91504 0.37763 0.87442 0.0
C1046 C 0.82917 0.37898 0.85849 0.0
C1047 C 0.85263 0.3389 0.85026 0.0
H1048 H 0.94346 0.40929 0.89203 0.0
H1049 H 0.93095 0.43158 0.89723 0.0
H1050 H 0.86732 0.43263 0.88277 0.0
H1051 H 0.83303 0.41138 0.86909 0.0
H1052 H 0.80086 0.34723 0.84001 0.0
H1053 H 0.81357 0.32505 0.8356 0.0
H1054 H 0.87741 0.32414 0.85207 0.0
H1055 H 0.9117 0.34555 0.86534 0.0
H1056 H 0.86063 0.35399 0.90766 0.0
H1057 H 0.88721 0.40515 0.9294 0.0
H1058 H 0.85753 0.35181 0.80438 0.0
H1059 H 0.88215 0.40303 0.8261 0.0
C1060 C 0.64908 0.89367 0.924 0.0
C1061 C 0.66577 0.90058 0.93824 0.0
C1062 C 0.67911 0.9039 0.93266 0.0
C1063 C 0.66986 0.89881 0.91543 0.0
N1064 N 0.65138 0.89263 0.90964 0.0
Co1065 Co 0.63267 0.88306 0.88536 0.0
N1066 N 0.65232 0.88706 0.87705 0.0
C1067 C 0.67069 0.89383 0.8866 0.0
C1068 C 0.68073 0.89567 0.87742 0.0
C1069 C 0.66805 0.88997 0.86104 0.0
C1070 C 0.65093 0.88489 0.86118 0.0
N1071 N 0.61394 0.87334 0.86108 0.0
C1072 C 0.61624 0.87237 0.84673 0.0
C1073 C 0.59957 0.86486 0.83241 0.0
C1074 C 0.58622 0.86126 0.83794 0.0
C1075 C 0.59546 0.86668 0.85523 0.0
N1076 N 0.61301 0.87922 0.89366 0.0
C1077 C 0.59465 0.87276 0.88415 0.0
C1078 C 0.58463 0.87144 0.89343 0.0
C1079 C 0.59731 0.8772 0.90982 0.0
C1080 C 0.6144 0.88167 0.90957 0.0
N1081 N 0.63313 0.90429 0.88737 0.0
C1082 C 0.63383 0.93409 0.88856 0.0
C1083 C 0.61725 0.92059 0.88105 0.0
C1084 C 0.61721 0.90597 0.88062 0.0
C1085 C 0.65004 0.93243 0.89572 0.0
C1086 C 0.64938 0.91758 0.89503 0.0
N1087 N 0.63219 0.8618 0.88331 0.0
C1088 C 0.61527 0.83386 0.8759 0.0
C1089 C 0.6315 0.83184 0.88154 0.0
C1090 C 0.64809 0.8451 0.88792 0.0
C1091 C 0.64812 0.85981 0.88871 0.0
C1092 C 0.61592 0.84876 0.87684 0.0
H1093 H 0.66122 0.8694 0.89381 0.0
H1094 H 0.60305 0.84944 0.87241 0.0
H1095 H 0.60413 0.89616 0.87453 0.0
H1096 H 0.66222 0.91714 0.90068 0.0
C1097 C 0.6781 0.89906 0.90427 0.0
C1098 C 0.63144 0.88753 0.92464 0.0
C1099 C 0.63381 0.87895 0.84612 0.0
C1100 C 0.58721 0.86693 0.86642 0.0
H1101 H 0.66807 0.9027 0.95126 0.0
H1102 H 0.69381 0.90906 0.94022 0.0
H1103 H 0.69552 0.90096 0.88215 0.0
H1104 H 0.67111 0.88993 0.85029 0.0
H1105 H 0.5973 0.86259 0.81936 0.0
H1106 H 0.57152 0.85581 0.83033 0.0
H1107 H 0.56984 0.86643 0.88875 0.0
H1108 H 0.59434 0.87774 0.92071 0.0
H1109 H 0.6043 0.92117 0.87515 0.0
H1110 H 0.66324 0.94256 0.90194 0.0
H1111 H 0.60203 0.82407 0.87105 0.0
H1112 H 0.66107 0.84416 0.89221 0.0
C1113 C 0.91852 0.64448 0.14833 0.0
C1114 C 0.93382 0.65895 0.15664 0.0
C1115 C 0.92751 0.67049 0.15928 0.0
C1116 C 0.90881 0.66242 0.15247 0.0
N1117 N 0.9028 0.64641 0.14589 0.0
Co1118 Co 0.87671 0.63006 0.13411 0.0
N1119 N 0.86727 0.64701 0.13651 0.0
C1120 C 0.87736 0.66296 0.14396 0.0
C1121 C 0.86711 0.6716 0.14441 0.0
C1122 C 0.8494 0.66056 0.13696 0.0
C1123 C 0.84986 0.64571 0.13225 0.0
N1124 N 0.85062 0.61369 0.1222 0.0
C1125 C 0.8348 0.61558 0.11897 0.0
C1126 C 0.81953 0.60105 0.11014 0.0
C1127 C 0.82596 0.58956 0.10804 0.0
C1128 C 0.84468 0.59767 0.11558 0.0
N1129 N 0.88616 0.61312 0.1318 0.0
C1130 C 0.87619 0.59719 0.12491 0.0
C1131 C 0.88658 0.58863 0.12478 0.0
C1132 C 0.90423 0.59973 0.13178 0.0
C1133 C 0.90354 0.61446 0.13578 0.0
N1134 N 0.87732 0.63044 0.15633 0.0
C1135 C 0.87817 0.63082 0.18782 0.0
C1136 C 0.87049 0.6165 0.17355 0.0
C1137 C 0.87017 0.61658 0.15809 0.0
C1138 C 0.8853 0.64496 0.18602 0.0
C1139 C 0.88476 0.64451 0.17032 0.0
N1140 N 0.87611 0.62966 0.1119 0.0
C1141 C 0.86921 0.6149 0.0826 0.0
C1142 C 0.8758 0.62896 0.08049 0.0
C1143 C 0.88252 0.64339 0.09438 0.0
C1144 C 0.88257 0.64347 0.10985 0.0
C1145 C 0.86949 0.61552 0.09825 0.0
H1146 H 0.88801 0.65484 0.11999 0.0
H1147 H 0.86429 0.60438 0.09898 0.0
H1148 H 0.86397 0.60527 0.14775 0.0
H1149 H 0.89047 0.65569 0.16984 0.0
C1150 C 0.89651 0.6695 0.15118 0.0
C1151 C 0.91954 0.62929 0.1422 0.0
C1152 C 0.83353 0.63077 0.12457 0.0
C1153 C 0.85702 0.5906 0.11735 0.0
H1154 H 0.94802 0.66092 0.16005 0.0
H1155 H 0.93554 0.68324 0.16503 0.0
H1156 H 0.87197 0.68441 0.14991 0.0
H1157 H 0.83759 0.66323 0.13557 0.0
H1158 H 0.80523 0.59898 0.1059 0.0
H1159 H 0.81795 0.5768 0.10204 0.0
H1160 H 0.88182 0.57582 0.11963 0.0
H1161 H 0.91621 0.59726 0.13331 0.0
H1162 H 0.8645 0.60521 0.17422 0.0
H1163 H 0.89154 0.65637 0.19675 0.0
H1164 H 0.86362 0.6034 0.07216 0.0
H1165 H 0.88799 0.65462 0.09345 0.0
C1166 C 0.38299 0.88798 0.15281 0.0
C1167 C 0.39994 0.8951 0.1668 0.0
C1168 C 0.41295 0.89828 0.16084 0.0
C1169 C 0.40329 0.89284 0.14362 0.0
N1170 N 0.38486 0.88655 0.13819 0.0
Co1171 Co 0.36571 0.87598 0.11398 0.0
N1172 N 0.38495 0.8796 0.10517 0.0
C1173 C 0.40338 0.88671 0.11443 0.0
C1174 C 0.41305 0.88792 0.10485 0.0
C1175 C 0.40004 0.88146 0.08849 0.0
C1176 C 0.38313 0.87671 0.08909 0.0
N1177 N 0.34658 0.86517 0.08977 0.0
C1178 C 0.34846 0.8635 0.07513 0.0
C1179 C 0.33158 0.85559 0.06101 0.0
C1180 C 0.31855 0.85227 0.06695 0.0
C1181 C 0.32816 0.85834 0.08427 0.0
N1182 N 0.34647 0.87258 0.12279 0.0
C1183 C 0.32805 0.8659 0.11352 0.0
C1184 C 0.31836 0.86526 0.12313 0.0
C1185 C 0.33133 0.87171 0.13951 0.0
C1186 C 0.34826 0.87581 0.13891 0.0
N1187 N 0.3655 0.89679 0.11486 0.0
C1188 C 0.36527 0.92605 0.11485 0.0
C1189 C 0.34892 0.91239 0.1077 0.0
C1190 C 0.34935 0.89804 0.10784 0.0
C1191 C 0.38173 0.92482 0.12218 0.0
C1192 C 0.38154 0.91023 0.12209 0.0
N1193 N 0.36591 0.85516 0.11311 0.0
C1194 C 0.34981 0.82762 0.10772 0.0
C1195 C 0.36631 0.82606 0.1136 0.0
C1196 C 0.38258 0.83927 0.11892 0.0
C1197 C 0.38208 0.85355 0.11858 0.0
C1198 C 0.34992 0.84211 0.10754 0.0
H1199 H 0.39497 0.86313 0.12294 0.0
H1200 H 0.33689 0.8425 0.10303 0.0
H1201 H 0.33642 0.88809 0.102 0.0
H1202 H 0.39454 0.91011 0.12786 0.0
C1203 C 0.41116 0.89263 0.13215 0.0
C1204 C 0.36553 0.88202 0.1539 0.0
C1205 C 0.36579 0.87014 0.07412 0.0
C1206 C 0.32027 0.85923 0.09576 0.0
H1207 H 0.40275 0.8974 0.17994 0.0
H1208 H 0.42769 0.90347 0.16812 0.0
H1209 H 0.4278 0.8932 0.10927 0.0
H1210 H 0.40267 0.88062 0.07739 0.0
H1211 H 0.3289 0.85292 0.04783 0.0
H1212 H 0.3038 0.84668 0.05958 0.0
H1213 H 0.3036 0.86026 0.11871 0.0
H1214 H 0.32863 0.87292 0.15062 0.0
H1215 H 0.3358 0.91264 0.10167 0.0
H1216 H 0.39478 0.93509 0.12812 0.0
H1217 H 0.33681 0.81782 0.10359 0.0
H1218 H 0.39574 0.83864 0.12328 0.0
C1219 C 0.6379 0.13766 0.15469 0.0
C1220 C 0.6543 0.14485 0.16929 0.0
C1221 C 0.66804 0.14852 0.16424 0.0
C1222 C 0.65928 0.14342 0.14695 0.0
N1223 N 0.64075 0.13695 0.14065 0.0
Co1224 Co 0.62264 0.12741 0.11614 0.0
N1225 N 0.64286 0.132 0.10861 0.0
C1226 C 0.66114 0.13912 0.11861 0.0
C1227 C 0.67164 0.14116 0.10985 0.0
C1228 C 0.65935 0.13523 0.09327 0.0
C1229 C 0.642 0.12994 0.09291 0.0
N1230 N 0.60453 0.11754 0.09158 0.0
C1231 C 0.60735 0.11658 0.07747 0.0
C1232 C 0.59092 0.10906 0.06286 0.0
C1233 C 0.57722 0.10524 0.06793 0.0
C1234 C 0.58601 0.11063 0.08526 0.0
N1235 N 0.60242 0.12315 0.12371 0.0
C1236 C 0.58416 0.11657 0.11375 0.0
C1237 C 0.57363 0.11486 0.12253 0.0
C1238 C 0.58587 0.12054 0.13908 0.0
C1239 C 0.60324 0.12544 0.13944 0.0
N1240 N 0.62274 0.14853 0.11805 0.0
C1241 C 0.62307 0.17842 0.11992 0.0
C1242 C 0.6068 0.1645 0.11069 0.0
C1243 C 0.60692 0.14987 0.11006 0.0
C1244 C 0.63915 0.17704 0.12832 0.0
C1245 C 0.6387 0.16215 0.12713 0.0
N1246 N 0.62253 0.10632 0.11426 0.0
C1247 C 0.60597 0.07835 0.10692 0.0
C1248 C 0.62235 0.07674 0.11343 0.0
C1249 C 0.63883 0.09017 0.12005 0.0
C1250 C 0.6386 0.10467 0.12028 0.0
C1251 C 0.60637 0.09309 0.10746 0.0
H1252 H 0.65162 0.11443 0.12562 0.0
H1253 H 0.59341 0.09349 0.10241 0.0
H1254 H 0.59404 0.13981 0.10287 0.0
H1255 H 0.65148 0.16198 0.13363 0.0
C1256 C 0.66804 0.14418 0.13624 0.0
C1257 C 0.62002 0.13128 0.1548 0.0
C1258 C 0.62519 0.12352 0.07743 0.0
C1259 C 0.57727 0.11076 0.09605 0.0
H1260 H 0.65613 0.147 0.18221 0.0
H1261 H 0.68267 0.154 0.17219 0.0
H1262 H 0.68646 0.14658 0.11495 0.0
H1263 H 0.66274 0.13505 0.08266 0.0
H1264 H 0.58898 0.10696 0.04993 0.0
H1265 H 0.56259 0.09972 0.06 0.0
H1266 H 0.55881 0.10957 0.11742 0.0
H1267 H 0.58236 0.12063 0.1496 0.0
H1268 H 0.59396 0.16474 0.1037 0.0
H1269 H 0.65211 0.18742 0.13593 0.0
H1270 H 0.59281 0.06827 0.10135 0.0
H1271 H 0.65192 0.08964 0.1254 0.0
C1272 C 0.58331 0.61587 0.86035 0.0
C1273 C 0.56777 0.6083 0.84496 0.0
C1274 C 0.57371 0.60563 0.83249 0.0
C1275 C 0.59243 0.61168 0.84098 0.0
N1276 N 0.59882 0.6178 0.85812 0.0
Co1277 Co 0.62508 0.62847 0.87541 0.0
N1278 N 0.63396 0.62583 0.85711 0.0
C1279 C 0.62352 0.61879 0.84007 0.0
C1280 C 0.63342 0.618 0.83068 0.0
C1281 C 0.65125 0.62477 0.84237 0.0
C1282 C 0.65122 0.62944 0.85833 0.0
N1283 N 0.65135 0.63937 0.89273 0.0
C1284 C 0.66696 0.64206 0.89054 0.0
C1285 C 0.68247 0.65028 0.90599 0.0
C1286 C 0.67642 0.65255 0.9184 0.0
C1287 C 0.65767 0.64572 0.90987 0.0
N1288 N 0.61618 0.63089 0.8937 0.0
C1289 C 0.6265 0.63724 0.91071 0.0
C1290 C 0.61647 0.63759 0.92003 0.0
C1291 C 0.59869 0.6313 0.9083 0.0
C1292 C 0.59894 0.62746 0.89245 0.0
N1293 N 0.62451 0.60754 0.87498 0.0
C1294 C 0.62433 0.578 0.87441 0.0
C1295 C 0.63249 0.59144 0.88974 0.0
C1296 C 0.63244 0.60593 0.88973 0.0
C1297 C 0.61621 0.57964 0.85937 0.0
C1298 C 0.61645 0.59435 0.85994 0.0
N1299 N 0.62567 0.64938 0.87586 0.0
C1300 C 0.63256 0.67689 0.89158 0.0
C1301 C 0.62637 0.67907 0.87655 0.0
C1302 C 0.61973 0.66604 0.86115 0.0
C1303 C 0.61947 0.65144 0.8611 0.0
C1304 C 0.63213 0.66212 0.89096 0.0
H1305 H 0.61417 0.642 0.84894 0.0
H1306 H 0.63701 0.66131 0.90287 0.0
H1307 H 0.63895 0.61565 0.90184 0.0
H1308 H 0.61013 0.59475 0.84802 0.0
C1309 C 0.60441 0.61246 0.83325 0.0
C1310 C 0.5827 0.6217 0.8767 0.0
C1311 C 0.66779 0.6365 0.87422 0.0
C1312 C 0.64565 0.6442 0.91758 0.0
H1313 H 0.55366 0.60535 0.84299 0.0
H1314 H 0.56541 0.60029 0.81888 0.0
H1315 H 0.62825 0.61277 0.81697 0.0
H1316 H 0.66286 0.62576 0.83937 0.0
H1317 H 0.69668 0.65397 0.90806 0.0
H1318 H 0.6847 0.65818 0.93203 0.0
H1319 H 0.62155 0.64244 0.93374 0.0
H1320 H 0.58694 0.63015 0.91112 0.0
H1321 H 0.63876 0.5908 0.90178 0.0
H1322 H 0.60992 0.56967 0.84712 0.0
H1323 H 0.63753 0.68648 0.90386 0.0
H1324 H 0.61496 0.66709 0.84912 0.0
C1325 C 0.33307 0.61497 0.85811 0.0
C1326 C 0.31804 0.60683 0.84232 0.0
C1327 C 0.32482 0.60492 0.83043 0.0
C1328 C 0.3435 0.61187 0.83959 0.0
N1329 N 0.34909 0.61791 0.85665 0.0
Co1330 Co 0.37498 0.62907 0.87474 0.0
N1331 N 0.38498 0.62715 0.85722 0.0
C1332 C 0.3753 0.6206 0.8401 0.0
C1333 C 0.38599 0.62057 0.83142 0.0
C1334 C 0.40356 0.62728 0.8437 0.0
C1335 C 0.40252 0.63104 0.85921 0.0
N1336 N 0.40089 0.64025 0.89283 0.0
C1337 C 0.41686 0.64284 0.89134 0.0
C1338 C 0.43193 0.65078 0.90709 0.0
C1339 C 0.42521 0.65302 0.91902 0.0
C1340 C 0.40653 0.64638 0.90988 0.0
N1341 N 0.365 0.63098 0.89227 0.0
C1342 C 0.37476 0.63768 0.9094 0.0
C1343 C 0.36417 0.6379 0.91815 0.0
C1344 C 0.34659 0.6311 0.90594 0.0
C1345 C 0.34745 0.627 0.89033 0.0
N1346 N 0.37481 0.6083 0.87441 0.0
C1347 C 0.37501 0.57891 0.87398 0.0
C1348 C 0.38172 0.59202 0.88932 0.0
C1349 C 0.3815 0.60645 0.88924 0.0
C1350 C 0.36822 0.58082 0.85886 0.0
C1351 C 0.36825 0.59546 0.85936 0.0
N1352 N 0.37515 0.64986 0.87506 0.0
C1353 C 0.38145 0.67725 0.89062 0.0
C1354 C 0.37493 0.67927 0.87552 0.0
C1355 C 0.3685 0.66624 0.86019 0.0
C1356 C 0.36868 0.65179 0.86025 0.0
C1357 C 0.38149 0.66264 0.8901 0.0
H1358 H 0.36348 0.64236 0.84813 0.0
H1359 H 0.38661 0.66196 0.90206 0.0
H1360 H 0.38685 0.61594 0.90136 0.0
H1361 H 0.36301 0.59611 0.8474 0.0
C1362 C 0.35614 0.61356 0.83256 0.0
C1363 C 0.33141 0.62026 0.87406 0.0
C1364 C 0.41838 0.63726 0.8754 0.0
C1365 C 0.39392 0.64474 0.91692 0.0
H1366 H 0.30367 0.60296 0.83969 0.0
H1367 H 0.31707 0.59942 0.81673 0.0
H1368 H 0.38151 0.61576 0.81777 0.0
H1369 H 0.4157 0.62881 0.84146 0.0
H1370 H 0.44625 0.65422 0.90966 0.0
H1371 H 0.43298 0.6584 0.93271 0.0
H1372 H 0.36874 0.64291 0.93181 0.0
H1373 H 0.33461 0.6298 0.90839 0.0
H1374 H 0.38693 0.59114 0.9014 0.0
H1375 H 0.36311 0.57112 0.84663 0.0
H1376 H 0.3863 0.68684 0.90286 0.0
H1377 H 0.36351 0.66717 0.84811 0.0
C1378 C 0.4036 0.38094 0.86093 0.0
C1379 C 0.40506 0.37698 0.84562 0.0
C1380 C 0.38762 0.37001 0.83304 0.0
C1381 C 0.37659 0.37016 0.84138 0.0
N1382 N 0.38595 0.37703 0.85854 0.0
Co1383 Co 0.37549 0.37944 0.87568 0.0
N1384 N 0.34977 0.36785 0.85722 0.0
C1385 C 0.34451 0.36131 0.84023 0.0
C1386 C 0.32587 0.35455 0.83078 0.0
C1387 C 0.31879 0.35713 0.8424 0.0
C1388 C 0.3336 0.36534 0.85832 0.0
N1389 N 0.36503 0.38194 0.89282 0.0
C1390 C 0.34739 0.37811 0.89043 0.0
C1391 C 0.34593 0.38222 0.90574 0.0
C1392 C 0.36336 0.3892 0.91832 0.0
C1393 C 0.37438 0.38892 0.90999 0.0
N1394 N 0.40121 0.39095 0.89415 0.0
C1395 C 0.40646 0.39731 0.91115 0.0
C1396 C 0.42509 0.40399 0.92061 0.0
C1397 C 0.43217 0.40154 0.90899 0.0
C1398 C 0.41737 0.3935 0.89306 0.0
N1399 N 0.37561 0.39996 0.8751 0.0
C1400 C 0.37536 0.42902 0.87436 0.0
C1401 C 0.38214 0.42759 0.88977 0.0
C1402 C 0.38214 0.41312 0.88984 0.0
C1403 C 0.36866 0.41559 0.85931 0.0
C1404 C 0.36891 0.40133 0.85997 0.0
N1405 N 0.37536 0.35891 0.87626 0.0
C1406 C 0.38161 0.34317 0.89212 0.0
C1407 C 0.37574 0.32991 0.87717 0.0
C1408 C 0.36967 0.33147 0.86175 0.0
C1409 C 0.36956 0.34591 0.86159 0.0
C1410 C 0.38136 0.3574 0.89138 0.0
H1411 H 0.36484 0.34628 0.84942 0.0
H1412 H 0.38612 0.36701 0.90325 0.0
H1413 H 0.38738 0.41285 0.90201 0.0
H1414 H 0.36357 0.39157 0.84806 0.0
C1415 C 0.35743 0.36287 0.83351 0.0
C1416 C 0.41924 0.38755 0.87735 0.0
C1417 C 0.33176 0.37145 0.874 0.0
C1418 C 0.39354 0.39596 0.91787 0.0
H1419 H 0.41744 0.3786 0.84377 0.0
H1420 H 0.38345 0.36497 0.81945 0.0
H1421 H 0.31837 0.34894 0.81706 0.0
H1422 H 0.3044 0.35377 0.83948 0.0
H1423 H 0.33356 0.38067 0.90759 0.0
H1424 H 0.36753 0.39429 0.93191 0.0
H1425 H 0.43258 0.40953 0.93434 0.0
H1426 H 0.44657 0.4049 0.91193 0.0
H1427 H 0.38722 0.43755 0.90179 0.0
H1428 H 0.36343 0.41609 0.84703 0.0
H1429 H 0.38621 0.34259 0.9044 0.0
H1430 H 0.36523 0.32166 0.84979 0.0
C1431 C 0.64966 0.37851 0.85768 0.0
C1432 C 0.64866 0.3731 0.84136 0.0
C1433 C 0.63053 0.36599 0.83037 0.0
C1434 C 0.6215 0.36733 0.84053 0.0
N1435 N 0.63277 0.37503 0.85738 0.0
Co1436 Co 0.62535 0.37881 0.87664 0.0
N1437 N 0.59864 0.3673 0.86042 0.0
C1438 C 0.59133 0.36015 0.84324 0.0
C1439 C 0.57254 0.35367 0.83556 0.0
C1440 C 0.56751 0.35707 0.84858 0.0
C1441 C 0.58362 0.36544 0.86351 0.0
N1442 N 0.61795 0.3826 0.8959 0.0
C1443 C 0.60106 0.37929 0.89553 0.0
C1444 C 0.60186 0.38417 0.91177 0.0
C1445 C 0.61998 0.39112 0.92285 0.0
C1446 C 0.62913 0.39004 0.91277 0.0
N1447 N 0.65204 0.3903 0.89287 0.0
C1448 C 0.65934 0.39745 0.91006 0.0
C1449 C 0.67814 0.40438 0.91773 0.0
C1450 C 0.68319 0.4013 0.90469 0.0
C1451 C 0.66709 0.39254 0.88977 0.0
N1452 N 0.62505 0.39914 0.8758 0.0
C1453 C 0.62457 0.42806 0.87476 0.0
C1454 C 0.6327 0.42709 0.89021 0.0
C1455 C 0.63279 0.41268 0.89043 0.0
C1456 C 0.61657 0.41422 0.85983 0.0
C1457 C 0.61695 0.40003 0.86063 0.0
N1458 N 0.62569 0.35847 0.87751 0.0
C1459 C 0.63442 0.34358 0.89364 0.0
C1460 C 0.6267 0.32977 0.87878 0.0
C1461 C 0.61846 0.33057 0.86326 0.0
C1462 C 0.61804 0.34488 0.86292 0.0
C1463 C 0.63384 0.35767 0.89272 0.0
H1464 H 0.61146 0.34464 0.8507 0.0
H1465 H 0.6402 0.36777 0.9045 0.0
H1466 H 0.63913 0.4128 0.90263 0.0
H1467 H 0.61061 0.38994 0.84881 0.0
C1468 C 0.60247 0.3606 0.83465 0.0
C1469 C 0.66685 0.38608 0.87307 0.0
C1470 C 0.58402 0.37228 0.88019 0.0
C1471 C 0.64819 0.39685 0.91869 0.0
H1472 H 0.65979 0.37381 0.83768 0.0
H1473 H 0.6246 0.3601 0.81664 0.0
H1474 H 0.56359 0.34764 0.82207 0.0
H1475 H 0.55358 0.35411 0.84718 0.0
H1476 H 0.59051 0.38314 0.91521 0.0
H1477 H 0.62581 0.39672 0.9366 0.0
H1478 H 0.6871 0.41064 0.93121 0.0
H1479 H 0.69715 0.40484 0.90601 0.0
H1480 H 0.6388 0.43736 0.90217 0.0
H1481 H 0.61023 0.41435 0.8475 0.0
H1482 H 0.64118 0.34362 0.90597 0.0
H1483 H 0.61212 0.32014 0.85139 0.0
C1484 C 0.64954 0.38121 0.10806 0.0
C1485 C 0.64967 0.3763 0.09216 0.0
C1486 C 0.63185 0.36929 0.0804 0.0
C1487 C 0.62186 0.37017 0.08969 0.0
N1488 N 0.63222 0.37754 0.10672 0.0
Co1489 Co 0.6232 0.38018 0.12493 0.0
N1490 N 0.59696 0.36924 0.10753 0.0
C1491 C 0.59066 0.36316 0.09039 0.0
C1492 C 0.57194 0.35697 0.08182 0.0
C1493 C 0.56591 0.35954 0.09422 0.0
C1494 C 0.58139 0.36719 0.10967 0.0
N1495 N 0.61418 0.38244 0.14311 0.0
C1496 C 0.59688 0.37878 0.14177 0.0
C1497 C 0.59653 0.38245 0.15757 0.0
C1498 C 0.61431 0.38885 0.16936 0.0
C1499 C 0.62444 0.38872 0.16011 0.0
N1500 N 0.64943 0.39154 0.14233 0.0
C1501 C 0.65565 0.39813 0.15946 0.0
C1502 C 0.67441 0.40536 0.16807 0.0
C1503 C 0.68055 0.4031 0.15573 0.0
C1504 C 0.66511 0.39446 0.14025 0.0
N1505 N 0.62334 0.40088 0.12511 0.0
C1506 C 0.62308 0.4302 0.12536 0.0
C1507 C 0.62946 0.42824 0.14051 0.0
C1508 C 0.62942 0.41363 0.14009 0.0
C1509 C 0.61682 0.41716 0.11007 0.0
C1510 C 0.6171 0.40277 0.11024 0.0
N1511 N 0.62307 0.35944 0.12477 0.0
C1512 C 0.63284 0.34392 0.13953 0.0
C1513 C 0.62346 0.33009 0.12444 0.0
C1514 C 0.61383 0.33128 0.10954 0.0
C1515 C 0.61393 0.34591 0.10996 0.0
C1516 C 0.63236 0.35827 0.13943 0.0
H1517 H 0.60652 0.34593 0.09811 0.0
H1518 H 0.63973 0.36826 0.15138 0.0
H1519 H 0.63435 0.41294 0.15208 0.0
H1520 H 0.61209 0.39331 0.09816 0.0
C1521 C 0.60273 0.3638 0.08277 0.0
C1522 C 0.66607 0.38854 0.12403 0.0
C1523 C 0.58067 0.37296 0.12597 0.0
C1524 C 0.64357 0.39614 0.16707 0.0
H1525 H 0.66135 0.37732 0.08927 0.0
H1526 H 0.62675 0.36385 0.0667 0.0
H1527 H 0.56371 0.35154 0.06819 0.0
H1528 H 0.55176 0.35646 0.09217 0.0
H1529 H 0.58473 0.38113 0.16033 0.0
H1530 H 0.61932 0.39369 0.18306 0.0
H1531 H 0.68262 0.41115 0.1817 0.0
H1532 H 0.69479 0.40698 0.15787 0.0
H1533 H 0.6347 0.438 0.15272 0.0
H1534 H 0.61145 0.41792 0.09795 0.0
H1535 H 0.64079 0.34382 0.15143 0.0
H1536 H 0.60603 0.32095 0.09752 0.0
C1537 C 0.58063 0.61615 0.10754 0.0
C1538 C 0.56553 0.60833 0.0918 0.0
C1539 C 0.57214 0.60562 0.07985 0.0
C1540 C 0.59081 0.61196 0.08893 0.0
N1541 N 0.59653 0.61832 0.10599 0.0
Co1542 Co 0.62252 0.62969 0.12397 0.0
N1543 N 0.63235 0.62676 0.10634 0.0
C1544 C 0.62248 0.61922 0.08924 0.0
C1545 C 0.63297 0.61827 0.08045 0.0
C1546 C 0.6506 0.62543 0.09264 0.0
C1547 C 0.64986 0.63049 0.10826 0.0
N1548 N 0.64847 0.64134 0.14194 0.0
C1549 C 0.66445 0.64415 0.14042 0.0
C1550 C 0.67955 0.65299 0.15612 0.0
C1551 C 0.67286 0.65553 0.16805 0.0
C1552 C 0.65416 0.64824 0.15898 0.0
N1553 N 0.61273 0.63236 0.1416 0.0
C1554 C 0.6225 0.63912 0.15871 0.0
C1555 C 0.61188 0.6393 0.16746 0.0
C1556 C 0.59427 0.63244 0.15522 0.0
C1557 C 0.59524 0.62854 0.13968 0.0
N1558 N 0.62243 0.6092 0.12464 0.0
C1559 C 0.62293 0.58025 0.12549 0.0
C1560 C 0.63066 0.59395 0.14049 0.0
C1561 C 0.63029 0.60817 0.13978 0.0
C1562 C 0.61487 0.5813 0.11008 0.0
C1563 C 0.61475 0.59572 0.10995 0.0
N1564 N 0.62263 0.65018 0.1233 0.0
C1565 C 0.62798 0.67753 0.1377 0.0
C1566 C 0.62232 0.67915 0.12229 0.0
C1567 C 0.61682 0.66596 0.10739 0.0
C1568 C 0.61704 0.65174 0.10818 0.0
C1569 C 0.62805 0.6631 0.13792 0.0
H1570 H 0.6126 0.64217 0.09636 0.0
H1571 H 0.63244 0.66268 0.15008 0.0
H1572 H 0.63659 0.61819 0.15165 0.0
H1573 H 0.60839 0.59565 0.09778 0.0
C1574 C 0.60333 0.61266 0.08182 0.0
C1575 C 0.5793 0.62214 0.12353 0.0
C1576 C 0.66601 0.63802 0.12455 0.0
C1577 C 0.64164 0.6466 0.16614 0.0
H1578 H 0.55124 0.60524 0.08921 0.0
H1579 H 0.56432 0.60006 0.06616 0.0
H1580 H 0.62832 0.61268 0.06682 0.0
H1581 H 0.66255 0.62644 0.09022 0.0
H1582 H 0.69391 0.65686 0.1587 0.0
H1583 H 0.6807 0.66158 0.18173 0.0
H1584 H 0.61643 0.64437 0.18111 0.0
H1585 H 0.58212 0.63091 0.15745 0.0
H1586 H 0.63728 0.59383 0.15276 0.0
H1587 H 0.60846 0.57097 0.09811 0.0
H1588 H 0.63211 0.68728 0.1496 0.0
H1589 H 0.61255 0.6666 0.09512 0.0
C1590 C 0.33011 0.61575 0.10604 0.0
C1591 C 0.31494 0.60769 0.09036 0.0
C1592 C 0.3215 0.60514 0.07833 0.0
C1593 C 0.3402 0.6118 0.08732 0.0
N1594 N 0.346 0.61823 0.1044 0.0
Co1595 Co 0.37203 0.62988 0.1223 0.0
N1596 N 0.38169 0.62724 0.10458 0.0
C1597 C 0.37184 0.62006 0.08747 0.0
C1598 C 0.38239 0.61972 0.07866 0.0
C1599 C 0.40004 0.62686 0.09086 0.0
C1600 C 0.39918 0.63111 0.10644 0.0
N1601 N 0.39805 0.64167 0.1402 0.0
C1602 C 0.41395 0.64428 0.13857 0.0
C1603 C 0.42912 0.65267 0.15426 0.0
C1604 C 0.42255 0.65529 0.16626 0.0
C1605 C 0.40384 0.64836 0.15726 0.0
N1606 N 0.36239 0.63238 0.14003 0.0
C1607 C 0.37224 0.6393 0.15714 0.0
C1608 C 0.3617 0.63936 0.16597 0.0
C1609 C 0.34404 0.63227 0.15379 0.0
C1610 C 0.3449 0.62834 0.13819 0.0
N1611 N 0.37232 0.60946 0.12289 0.0
C1612 C 0.37284 0.58047 0.12364 0.0
C1613 C 0.38018 0.59406 0.13868 0.0
C1614 C 0.37979 0.60829 0.13801 0.0
C1615 C 0.36532 0.5817 0.10823 0.0
C1616 C 0.36522 0.59615 0.10815 0.0
N1617 N 0.37172 0.65029 0.12171 0.0
C1618 C 0.37713 0.67764 0.13625 0.0
C1619 C 0.37051 0.67905 0.1208 0.0
C1620 C 0.36458 0.66579 0.10583 0.0
C1621 C 0.36526 0.65168 0.10657 0.0
C1622 C 0.37763 0.66331 0.13641 0.0
H1623 H 0.36042 0.64205 0.0947 0.0
H1624 H 0.38272 0.66302 0.14859 0.0
H1625 H 0.38563 0.61817 0.14992 0.0
H1626 H 0.35939 0.59626 0.09597 0.0
C1627 C 0.35267 0.61302 0.08009 0.0
C1628 C 0.32885 0.6217 0.12206 0.0
C1629 C 0.41524 0.63802 0.12261 0.0
C1630 C 0.39139 0.64675 0.1645 0.0
H1631 H 0.30065 0.60437 0.08786 0.0
H1632 H 0.3136 0.59954 0.06465 0.0
H1633 H 0.37778 0.61452 0.06501 0.0
H1634 H 0.41218 0.62844 0.0886 0.0
H1635 H 0.44343 0.65611 0.15681 0.0
H1636 H 0.43044 0.66102 0.17994 0.0
H1637 H 0.36631 0.64444 0.17963 0.0
H1638 H 0.33192 0.63057 0.15609 0.0
H1639 H 0.386 0.59372 0.15097 0.0
H1640 H 0.35974 0.57161 0.0962 0.0
H1641 H 0.38166 0.68746 0.14822 0.0
H1642 H 0.35958 0.66629 0.09353 0.0
C1643 C 0.33136 0.36731 0.1099 0.0
C1644 C 0.31565 0.35911 0.09462 0.0
C1645 C 0.32136 0.35656 0.08199 0.0
C1646 C 0.34014 0.36323 0.09024 0.0
N1647 N 0.34678 0.36972 0.10741 0.0
Co1648 Co 0.37318 0.38066 0.12439 0.0
N1649 N 0.38162 0.37797 0.10578 0.0
C1650 C 0.37102 0.37138 0.08881 0.0
C1651 C 0.38078 0.37082 0.07924 0.0
C1652 C 0.39867 0.37721 0.09076 0.0
C1653 C 0.39875 0.38133 0.10674 0.0
N1654 N 0.39958 0.39145 0.14136 0.0
C1655 C 0.41493 0.39342 0.13884 0.0
C1656 C 0.43067 0.40123 0.15408 0.0
C1657 C 0.42503 0.40401 0.16674 0.0
C1658 C 0.40628 0.39779 0.15852 0.0
N1659 N 0.36477 0.38349 0.14301 0.0
C1660 C 0.37546 0.39054 0.15999 0.0
C1661 C 0.36585 0.39144 0.16964 0.0
C1662 C 0.34793 0.38476 0.15817 0.0
C1663 C 0.34763 0.38002 0.14209 0.0
N1664 N 0.37275 0.35982 0.12407 0.0
C1665 C 0.37233 0.33022 0.12355 0.0
C1666 C 0.37931 0.3434 0.13892 0.0
C1667 C 0.37945 0.35794 0.13889 0.0
C1668 C 0.36565 0.33222 0.10846 0.0
C1669 C 0.36594 0.34693 0.10901 0.0
N1670 N 0.37359 0.4015 0.12467 0.0
C1671 C 0.38159 0.42937 0.14012 0.0
C1672 C 0.37353 0.43092 0.12501 0.0
C1673 C 0.36554 0.41745 0.10973 0.0
C1674 C 0.3657 0.40303 0.10985 0.0
C1675 C 0.38148 0.41471 0.13966 0.0
H1676 H 0.3593 0.39327 0.09778 0.0
H1677 H 0.38776 0.41437 0.15163 0.0
H1678 H 0.38506 0.3675 0.15102 0.0
H1679 H 0.36065 0.34758 0.09706 0.0
C1680 C 0.35189 0.36451 0.08223 0.0
C1681 C 0.33091 0.37316 0.12637 0.0
C1682 C 0.41522 0.38732 0.12237 0.0
C1683 C 0.39457 0.39699 0.16653 0.0
H1684 H 0.30153 0.35564 0.0928 0.0
H1685 H 0.31286 0.35089 0.0684 0.0
H1686 H 0.37546 0.36578 0.0655 0.0
H1687 H 0.41028 0.37827 0.08773 0.0
H1688 H 0.44473 0.40424 0.15583 0.0
H1689 H 0.43355 0.40951 0.18032 0.0
H1690 H 0.37126 0.39676 0.18337 0.0
H1691 H 0.3365 0.38391 0.16142 0.0
H1692 H 0.38447 0.3425 0.15099 0.0
H1693 H 0.3604 0.32254 0.09619 0.0
H1694 H 0.38774 0.43936 0.15234 0.0
H1695 H 0.35934 0.41802 0.09763 0.0
C1696 C 0.88263 0.63701 0.65316 0.0
C1697 C 0.89941 0.64452 0.66736 0.0
C1698 C 0.91261 0.64796 0.66163 0.0
C1699 C 0.90317 0.64244 0.64435 0.0
N1700 N 0.88472 0.63586 0.63869 0.0
Co1701 Co 0.86577 0.62607 0.6145 0.0
N1702 N 0.8852 0.62969 0.60589 0.0
C1703 C 0.90359 0.63617 0.61526 0.0
C1704 C 0.91346 0.63751 0.60587 0.0
C1705 C 0.90065 0.63169 0.58952 0.0
C1706 C 0.88362 0.6271 0.5899 0.0
N1707 N 0.84683 0.61647 0.59032 0.0
C1708 C 0.84893 0.61535 0.57586 0.0
C1709 C 0.83214 0.60822 0.5617 0.0
C1710 C 0.81894 0.60499 0.56745 0.0
C1711 C 0.82837 0.61027 0.5847 0.0
N1712 N 0.84634 0.62227 0.62309 0.0
C1713 C 0.82794 0.6155 0.61371 0.0
C1714 C 0.81808 0.61384 0.62308 0.0
C1715 C 0.83092 0.61967 0.63941 0.0
C1716 C 0.84794 0.62462 0.63905 0.0
N1717 N 0.86629 0.64733 0.61649 0.0
C1718 C 0.86697 0.67726 0.61811 0.0
C1719 C 0.8504 0.66405 0.61197 0.0
C1720 C 0.85037 0.64936 0.61125 0.0
C1721 C 0.8832 0.67519 0.62359 0.0
C1722 C 0.88255 0.66032 0.62274 0.0
N1723 N 0.86526 0.60484 0.61253 0.0
C1724 C 0.84832 0.57674 0.60439 0.0
C1725 C 0.86455 0.57504 0.61138 0.0
C1726 C 0.88114 0.5885 0.61871 0.0
C1727 C 0.88118 0.60311 0.61913 0.0
C1728 C 0.84899 0.59158 0.60505 0.0
H1729 H 0.89427 0.61289 0.62507 0.0
H1730 H 0.83614 0.59205 0.59954 0.0
H1731 H 0.83728 0.63981 0.60631 0.0
H1732 H 0.89541 0.65961 0.62706 0.0
C1733 C 0.91122 0.64209 0.633 0.0
C1734 C 0.86517 0.63064 0.65401 0.0
C1735 C 0.86644 0.62128 0.57495 0.0
C1736 C 0.82032 0.61014 0.59602 0.0
H1737 H 0.90185 0.64692 0.68046 0.0
H1738 H 0.92733 0.65339 0.66911 0.0
H1739 H 0.92823 0.64261 0.61044 0.0
H1740 H 0.90358 0.63132 0.57865 0.0
H1741 H 0.82972 0.60584 0.54861 0.0
H1742 H 0.80422 0.59972 0.56 0.0
H1743 H 0.80331 0.60862 0.6185 0.0
H1744 H 0.82805 0.6199 0.65029 0.0
H1745 H 0.83743 0.66501 0.60782 0.0
H1746 H 0.89642 0.68494 0.62825 0.0
H1747 H 0.83511 0.56663 0.5983 0.0
H1748 H 0.8941 0.58789 0.62447 0.0
C1749 C 0.42154 0.90254 0.65179 0.0
C1750 C 0.43633 0.91734 0.66101 0.0
C1751 C 0.42919 0.92829 0.66371 0.0
C1752 C 0.41055 0.91957 0.65607 0.0
N1753 N 0.40535 0.90369 0.64881 0.0
Co1754 Co 0.37968 0.8866 0.63638 0.0
N1755 N 0.36909 0.90278 0.63838 0.0
C1756 C 0.37849 0.91881 0.64551 0.0
C1757 C 0.36755 0.92684 0.64533 0.0
C1758 C 0.3501 0.91529 0.63773 0.0
C1759 C 0.3514 0.90077 0.6336 0.0
N1760 N 0.35401 0.86948 0.62441 0.0
C1761 C 0.33778 0.87065 0.62118 0.0
C1762 C 0.32307 0.85577 0.61279 0.0
C1763 C 0.33028 0.84481 0.61101 0.0
C1764 C 0.34889 0.85357 0.61831 0.0
N1765 N 0.39029 0.87043 0.63387 0.0
C1766 C 0.38097 0.8544 0.62623 0.0
C1767 C 0.39197 0.84647 0.62572 0.0
C1768 C 0.40937 0.85812 0.6332 0.0
C1769 C 0.40792 0.87253 0.63792 0.0
N1770 N 0.38016 0.88644 0.65841 0.0
C1771 C 0.37969 0.88588 0.68928 0.0
C1772 C 0.37616 0.8721 0.67597 0.0
C1773 C 0.37629 0.87262 0.66078 0.0
C1774 C 0.38368 0.9 0.68688 0.0
C1775 C 0.384 0.90004 0.67157 0.0
N1776 N 0.37917 0.88673 0.61439 0.0
C1777 C 0.37092 0.87254 0.58461 0.0
C1778 C 0.37855 0.88676 0.58312 0.0
C1779 C 0.3866 0.90099 0.5976 0.0
C1780 C 0.38675 0.9007 0.61298 0.0
C1781 C 0.37137 0.8728 0.6002 0.0
H1782 H 0.39306 0.91193 0.62356 0.0
H1783 H 0.3654 0.86154 0.60046 0.0
H1784 H 0.37313 0.86162 0.65115 0.0
H1785 H 0.38723 0.91122 0.67067 0.0
C1786 C 0.39762 0.92597 0.65386 0.0
C1787 C 0.42353 0.88786 0.64533 0.0
C1788 C 0.33561 0.88548 0.62618 0.0
C1789 C 0.36184 0.84718 0.61939 0.0
H1790 H 0.45075 0.91994 0.66495 0.0
H1791 H 0.43666 0.94111 0.66991 0.0
H1792 H 0.3718 0.93958 0.65071 0.0
H1793 H 0.33792 0.91744 0.63598 0.0
H1794 H 0.30862 0.85313 0.60853 0.0
H1795 H 0.32285 0.83199 0.60517 0.0
H1796 H 0.38781 0.83374 0.62024 0.0
H1797 H 0.42168 0.85621 0.6347 0.0
H1798 H 0.37338 0.86088 0.6772 0.0
H1799 H 0.38629 0.91101 0.69664 0.0
H1800 H 0.36481 0.86118 0.57384 0.0
H1801 H 0.39255 0.91234 0.59706 0.0
C1802 C 0.14006 0.38926 0.65429 0.0
C1803 C 0.15701 0.39595 0.66821 0.0
C1804 C 0.17 0.39884 0.66219 0.0
C1805 C 0.16034 0.39365 0.645 0.0
N1806 N 0.14192 0.38782 0.63966 0.0
Co1807 Co 0.12275 0.37754 0.61549 0.0
N1808 N 0.14194 0.38095 0.60659 0.0
C1809 C 0.16036 0.3881 0.61584 0.0
C1810 C 0.17004 0.38956 0.6063 0.0
C1811 C 0.15703 0.3832 0.58995 0.0
C1812 C 0.1401 0.37815 0.5905 0.0
N1813 N 0.10358 0.36686 0.59133 0.0
C1814 C 0.10543 0.36508 0.57667 0.0
C1815 C 0.08857 0.35695 0.56255 0.0
C1816 C 0.07555 0.35373 0.56852 0.0
C1817 C 0.08517 0.35998 0.58586 0.0
N1818 N 0.10356 0.37456 0.62438 0.0
C1819 C 0.08516 0.36824 0.61515 0.0
C1820 C 0.07551 0.36796 0.62481 0.0
C1821 C 0.08848 0.37428 0.64118 0.0
C1822 C 0.10536 0.37794 0.64052 0.0
N1823 N 0.12296 0.3985 0.6165 0.0
C1824 C 0.12326 0.42801 0.61689 0.0
C1825 C 0.10684 0.4143 0.60897 0.0
C1826 C 0.107 0.39983 0.60893 0.0
C1827 C 0.13953 0.42668 0.62474 0.0
C1828 C 0.13907 0.41196 0.62442 0.0
N1829 N 0.12252 0.35656 0.61451 0.0
C1830 C 0.10617 0.32945 0.61032 0.0
C1831 C 0.12243 0.32738 0.61511 0.0
C1832 C 0.13868 0.34007 0.61926 0.0
C1833 C 0.13843 0.35443 0.61895 0.0
C1834 C 0.1065 0.34395 0.60998 0.0
H1835 H 0.15134 0.36369 0.62256 0.0
H1836 H 0.09362 0.34468 0.60613 0.0
H1837 H 0.09402 0.38986 0.60253 0.0
H1838 H 0.15194 0.41177 0.63062 0.0
C1839 C 0.16815 0.39363 0.63353 0.0
C1840 C 0.12259 0.38379 0.65545 0.0
C1841 C 0.12272 0.37155 0.57555 0.0
C1842 C 0.07733 0.36128 0.59738 0.0
H1843 H 0.1598 0.3982 0.68133 0.0
H1844 H 0.18473 0.40376 0.66942 0.0
H1845 H 0.18479 0.39492 0.61074 0.0
H1846 H 0.15973 0.38267 0.57894 0.0
H1847 H 0.08596 0.35406 0.54934 0.0
H1848 H 0.0608 0.34808 0.56116 0.0
H1849 H 0.06076 0.36321 0.62043 0.0
H1850 H 0.0858 0.37565 0.65231 0.0
H1851 H 0.09387 0.41461 0.6025 0.0
H1852 H 0.15261 0.43698 0.63127 0.0
H1853 H 0.09318 0.31988 0.60672 0.0
H1854 H 0.15165 0.33907 0.62315 0.0
C1855 C 0.66862 0.14757 0.64759 0.0
C1856 C 0.68327 0.16244 0.65539 0.0
C1857 C 0.6761 0.17339 0.65785 0.0
C1858 C 0.65758 0.16463 0.65139 0.0
N1859 N 0.65249 0.14872 0.64522 0.0
Co1860 Co 0.62689 0.1315 0.63384 0.0
N1861 N 0.6162 0.14758 0.63586 0.0
C1862 C 0.62537 0.1636 0.64256 0.0
C1863 C 0.61424 0.17147 0.64249 0.0
C1864 C 0.59693 0.15979 0.63558 0.0
C1865 C 0.59857 0.14545 0.63188 0.0
N1866 N 0.6013 0.11428 0.62239 0.0
C1867 C 0.5851 0.1154 0.61966 0.0
C1868 C 0.57045 0.10053 0.6117 0.0
C1869 C 0.57767 0.08959 0.6095 0.0
C1870 C 0.59622 0.09836 0.61623 0.0
N1871 N 0.63758 0.11543 0.63187 0.0
C1872 C 0.62845 0.09941 0.62539 0.0
C1873 C 0.63961 0.09157 0.62547 0.0
C1874 C 0.65687 0.10324 0.63212 0.0
C1875 C 0.65518 0.11756 0.63566 0.0
N1876 N 0.62822 0.13217 0.65634 0.0
C1877 C 0.63012 0.13298 0.68823 0.0
C1878 C 0.62304 0.11855 0.67425 0.0
C1879 C 0.6222 0.11842 0.6586 0.0
C1880 C 0.63606 0.14702 0.68592 0.0
C1881 C 0.635 0.14635 0.67001 0.0
N1882 N 0.62559 0.13081 0.61136 0.0
C1883 C 0.61857 0.11578 0.5821 0.0
C1884 C 0.6245 0.12972 0.57961 0.0
C1885 C 0.63096 0.14423 0.59331 0.0
C1886 C 0.63137 0.1445 0.60893 0.0
C1887 C 0.61923 0.11659 0.59791 0.0
H1888 H 0.63649 0.15593 0.61885 0.0
H1889 H 0.61467 0.10554 0.59895 0.0
H1890 H 0.61654 0.10702 0.64851 0.0
H1891 H 0.63976 0.15746 0.6691 0.0
C1892 C 0.64452 0.17093 0.64973 0.0
C1893 C 0.67047 0.13275 0.64154 0.0
C1894 C 0.58314 0.13022 0.62546 0.0
C1895 C 0.60929 0.09205 0.61809 0.0
H1896 H 0.69759 0.16509 0.65852 0.0
H1897 H 0.68344 0.1862 0.66311 0.0
H1898 H 0.61827 0.18419 0.64733 0.0
H1899 H 0.58453 0.16161 0.63383 0.0
H1900 H 0.55608 0.09785 0.60829 0.0
H1901 H 0.57032 0.07677 0.60416 0.0
H1902 H 0.6356 0.07885 0.62071 0.0
H1903 H 0.66925 0.10144 0.63372 0.0
H1904 H 0.61793 0.10732 0.67529 0.0
H1905 H 0.64177 0.15852 0.69639 0.0
H1906 H 0.6137 0.10424 0.57196 0.0
H1907 H 0.63553 0.15537 0.59198 0.0
C1908 C 0.89266 0.39237 0.42298 0.0
C1909 C 0.90949 0.39948 0.43707 0.0
C1910 C 0.92262 0.40279 0.43124 0.0
C1911 C 0.91309 0.39753 0.41401 0.0
N1912 N 0.89465 0.39125 0.40847 0.0
Co1913 Co 0.87557 0.3815 0.38431 0.0
N1914 N 0.89489 0.38535 0.3756 0.0
C1915 C 0.9133 0.39203 0.3849 0.0
C1916 C 0.92306 0.39321 0.37539 0.0
C1917 C 0.91013 0.38718 0.35906 0.0
C1918 C 0.89317 0.38276 0.35958 0.0
N1919 N 0.85649 0.37161 0.36013 0.0
C1920 C 0.85843 0.37051 0.34559 0.0
C1921 C 0.8415 0.3635 0.33158 0.0
C1922 C 0.82845 0.36002 0.33746 0.0
C1923 C 0.83805 0.36518 0.35464 0.0
N1924 N 0.85627 0.37778 0.39304 0.0
C1925 C 0.83786 0.37128 0.3838 0.0
C1926 C 0.82812 0.36997 0.39332 0.0
C1927 C 0.84106 0.3758 0.40962 0.0
C1928 C 0.85799 0.3803 0.40905 0.0
N1929 N 0.87592 0.40269 0.38623 0.0
C1930 C 0.87645 0.4324 0.38717 0.0
C1931 C 0.85989 0.41896 0.38014 0.0
C1932 C 0.85995 0.4044 0.37983 0.0
C1933 C 0.89273 0.43073 0.39399 0.0
C1934 C 0.89216 0.41594 0.39343 0.0
N1935 N 0.87523 0.3603 0.38235 0.0
C1936 C 0.85848 0.33237 0.37515 0.0
C1937 C 0.87477 0.33042 0.38049 0.0
C1938 C 0.89129 0.34365 0.38666 0.0
C1939 C 0.89121 0.35835 0.38755 0.0
C1940 C 0.85901 0.34724 0.37608 0.0
H1941 H 0.90427 0.36797 0.39265 0.0
H1942 H 0.84611 0.34788 0.3717 0.0
H1943 H 0.84687 0.39464 0.37414 0.0
H1944 H 0.90505 0.41549 0.39879 0.0
C1945 C 0.92104 0.39754 0.40261 0.0
C1946 C 0.87522 0.38618 0.42391 0.0
C1947 C 0.87591 0.37674 0.34462 0.0
C1948 C 0.83013 0.36546 0.36608 0.0
H1949 H 0.91199 0.40171 0.45016 0.0
H1950 H 0.93734 0.40802 0.43863 0.0
H1951 H 0.93782 0.39813 0.37984 0.0
H1952 H 0.9129 0.38639 0.34803 0.0
H1953 H 0.83873 0.3615 0.31851 0.0
H1954 H 0.81372 0.35492 0.33016 0.0
H1955 H 0.81337 0.36494 0.38887 0.0
H1956 H 0.83835 0.37633 0.42063 0.0
H1957 H 0.84688 0.41954 0.37452 0.0
H1958 H 0.90593 0.44083 0.39985 0.0
H1959 H 0.84532 0.32242 0.37008 0.0
H1960 H 0.90429 0.34277 0.39111 0.0
C1961 C 0.66373 0.89432 0.38125 0.0
C1962 C 0.67886 0.90894 0.39013 0.0
C1963 C 0.67223 0.9203 0.39211 0.0
C1964 C 0.65353 0.91201 0.38447 0.0
N1965 N 0.64778 0.89602 0.37788 0.0
Co1966 Co 0.6218 0.87945 0.3659 0.0
N1967 N 0.61205 0.89619 0.36811 0.0
C1968 C 0.62185 0.91215 0.37498 0.0
C1969 C 0.61129 0.92056 0.37501 0.0
C1970 C 0.5937 0.90932 0.36798 0.0
C1971 C 0.5946 0.89467 0.36404 0.0
N1972 N 0.59581 0.8629 0.35408 0.0
C1973 C 0.57998 0.86464 0.35158 0.0
C1974 C 0.56481 0.85008 0.34325 0.0
C1975 C 0.57132 0.83867 0.34067 0.0
C1976 C 0.59 0.84691 0.34752 0.0
N1977 N 0.63153 0.86269 0.36357 0.0
C1978 C 0.62162 0.84672 0.35608 0.0
C1979 C 0.63205 0.83824 0.35572 0.0
C1980 C 0.6497 0.84942 0.36328 0.0
C1981 C 0.64903 0.86418 0.36796 0.0
N1982 N 0.62242 0.87979 0.38809 0.0
C1983 C 0.6232 0.88041 0.41961 0.0
C1984 C 0.61644 0.86599 0.40568 0.0
C1985 C 0.61619 0.86596 0.39017 0.0
C1986 C 0.62944 0.89448 0.41744 0.0
C1987 C 0.62891 0.8939 0.40173 0.0
N1988 N 0.62119 0.87913 0.34369 0.0
C1989 C 0.6133 0.86467 0.31401 0.0
C1990 C 0.62041 0.87884 0.31225 0.0
C1991 C 0.62801 0.89314 0.32652 0.0
C1992 C 0.62829 0.89301 0.34195 0.0
C1993 C 0.61381 0.86508 0.3297 0.0
H1994 H 0.63441 0.90431 0.3523 0.0
H1995 H 0.60814 0.85388 0.33015 0.0
H1996 H 0.61089 0.8546 0.38004 0.0
H1997 H 0.63375 0.90505 0.40093 0.0
C1998 C 0.64102 0.91891 0.38261 0.0
C1999 C 0.66524 0.87923 0.37578 0.0
C2000 C 0.57872 0.87974 0.35761 0.0
C2001 C 0.60247 0.84 0.34884 0.0
H2002 H 0.69321 0.91115 0.39448 0.0
H2003 H 0.68009 0.93307 0.39813 0.0
H2004 H 0.61589 0.93335 0.38013 0.0
H2005 H 0.58165 0.91167 0.3664 0.0
H2006 H 0.55056 0.84797 0.33977 0.0
H2007 H 0.56343 0.8259 0.33491 0.0
H2008 H 0.62736 0.82544 0.35024 0.0
H2009 H 0.66163 0.8469 0.36479 0.0
H2010 H 0.61158 0.85476 0.40675 0.0
H2011 H 0.63451 0.90595 0.42776 0.0
H2012 H 0.60712 0.85327 0.30328 0.0
H2013 H 0.63398 0.90444 0.32588 0.0
C2014 C 0.14914 0.64543 0.42458 0.0
C2015 C 0.16586 0.65321 0.43888 0.0
C2016 C 0.17914 0.65668 0.43325 0.0
C2017 C 0.16984 0.65081 0.41592 0.0
N2018 N 0.15137 0.64397 0.41012 0.0
Co2019 Co 0.13262 0.63325 0.38576 0.0
N2020 N 0.15225 0.63699 0.37739 0.0
C2021 C 0.17062 0.64404 0.38695 0.0
C2022 C 0.18062 0.64542 0.37767 0.0
C2023 C 0.16789 0.63907 0.3612 0.0
C2024 C 0.15079 0.63412 0.3614 0.0
N2025 N 0.11386 0.62265 0.36143 0.0
C2026 C 0.1161 0.62123 0.34699 0.0
C2027 C 0.09941 0.61334 0.33265 0.0
C2028 C 0.0861 0.60995 0.33826 0.0
C2029 C 0.09539 0.61589 0.3556 0.0
N2030 N 0.11299 0.6294 0.39409 0.0
C2031 C 0.09461 0.62228 0.38454 0.0
C2032 C 0.08463 0.621 0.39386 0.0
C2033 C 0.09738 0.62745 0.41033 0.0
C2034 C 0.11446 0.63224 0.41007 0.0
N2035 N 0.13227 0.65401 0.38658 0.0
C2036 C 0.13173 0.68307 0.38605 0.0
C2037 C 0.11545 0.66961 0.38 0.0
C2038 C 0.11603 0.65536 0.38036 0.0
C2039 C 0.1483 0.68176 0.39266 0.0
C2040 C 0.14825 0.6673 0.39286 0.0
N2041 N 0.13297 0.61249 0.38492 0.0
C2042 C 0.11687 0.58452 0.37793 0.0
C2043 C 0.13339 0.58332 0.38509 0.0
C2044 C 0.14971 0.59695 0.39195 0.0
C2045 C 0.14919 0.61126 0.39173 0.0
C2046 C 0.11698 0.59906 0.37795 0.0
H2047 H 0.16209 0.6212 0.39733 0.0
H2048 H 0.10392 0.59914 0.37235 0.0
H2049 H 0.10313 0.64556 0.3754 0.0
H2050 H 0.16133 0.66712 0.39797 0.0
C2051 C 0.17805 0.65038 0.4047 0.0
C2052 C 0.1316 0.63876 0.42525 0.0
C2053 C 0.13362 0.62771 0.34626 0.0
C2054 C 0.08715 0.61613 0.3668 0.0
H2055 H 0.16827 0.65573 0.45198 0.0
H2056 H 0.19385 0.66229 0.44084 0.0
H2057 H 0.1954 0.65091 0.38237 0.0
H2058 H 0.1709 0.63857 0.35034 0.0
H2059 H 0.0971 0.61063 0.31954 0.0
H2060 H 0.07139 0.60423 0.33064 0.0
H2061 H 0.06985 0.61564 0.38919 0.0
H2062 H 0.09447 0.62823 0.42128 0.0
H2063 H 0.10223 0.67002 0.37506 0.0
H2064 H 0.16132 0.69175 0.39735 0.0
H2065 H 0.10385 0.57426 0.37219 0.0
H2066 H 0.16288 0.59671 0.39781 0.0
C2067 C 0.41012 0.13646 0.377 0.0
C2068 C 0.42507 0.15112 0.38463 0.0
C2069 C 0.41835 0.16239 0.38723 0.0
C2070 C 0.39978 0.15398 0.38107 0.0
N2071 N 0.39425 0.13802 0.37498 0.0
Co2072 Co 0.36845 0.12126 0.36386 0.0
N2073 N 0.35845 0.13781 0.36691 0.0
C2074 C 0.3681 0.15381 0.37438 0.0
C2075 C 0.35744 0.16205 0.37523 0.0
C2076 C 0.33995 0.15064 0.36818 0.0
C2077 C 0.34101 0.13606 0.36343 0.0
N2078 N 0.3426 0.1045 0.35222 0.0
C2079 C 0.32664 0.10601 0.34974 0.0
C2080 C 0.31162 0.09134 0.34106 0.0
C2081 C 0.31837 0.08012 0.33812 0.0
C2082 C 0.33703 0.08856 0.34513 0.0
N2083 N 0.3785 0.10473 0.36139 0.0
C2084 C 0.36888 0.08876 0.35478 0.0
C2085 C 0.37959 0.0805 0.35466 0.0
C2086 C 0.39708 0.09185 0.36143 0.0
C2087 C 0.39598 0.10643 0.36528 0.0
N2088 N 0.36989 0.12154 0.38624 0.0
C2089 C 0.37107 0.12209 0.41786 0.0
C2090 C 0.3626 0.10775 0.40345 0.0
C2091 C 0.36217 0.10774 0.38791 0.0
C2092 C 0.379 0.13613 0.41615 0.0
C2093 C 0.37829 0.13558 0.4004 0.0
N2094 N 0.36699 0.12099 0.34146 0.0
C2095 C 0.3619 0.10686 0.31255 0.0
C2096 C 0.36533 0.1208 0.30989 0.0
C2097 C 0.36964 0.13483 0.32323 0.0
C2098 C 0.3706 0.13469 0.33883 0.0
C2099 C 0.36259 0.10718 0.32826 0.0
H2100 H 0.37439 0.14586 0.34856 0.0
H2101 H 0.35954 0.0961 0.32939 0.0
H2102 H 0.35545 0.09644 0.37742 0.0
H2103 H 0.38449 0.14671 0.39998 0.0
C2104 C 0.38718 0.16071 0.38058 0.0
C2105 C 0.41163 0.12142 0.37126 0.0
C2106 C 0.3252 0.12094 0.35635 0.0
C2107 C 0.34972 0.08186 0.34699 0.0
H2108 H 0.4393 0.15339 0.38771 0.0
H2109 H 0.42603 0.17517 0.39268 0.0
H2110 H 0.36188 0.17482 0.38058 0.0
H2111 H 0.32781 0.15277 0.36693 0.0
H2112 H 0.29733 0.08899 0.33767 0.0
H2113 H 0.31066 0.06733 0.33221 0.0
H2114 H 0.37514 0.06773 0.34957 0.0
H2115 H 0.40916 0.0896 0.3628 0.0
H2116 H 0.35645 0.09652 0.40415 0.0
H2117 H 0.38549 0.14758 0.42686 0.0
H2118 H 0.35842 0.09571 0.30246 0.0
H2119 H 0.3726 0.14594 0.32172 0.0
C2120 C 0.67179 0.90244 0.65001 0.0
C2121 C 0.68704 0.91694 0.65817 0.0
C2122 C 0.68068 0.92845 0.66083 0.0
C2123 C 0.662 0.92034 0.65416 0.0
N2124 N 0.65605 0.90433 0.64762 0.0
Co2125 Co 0.62999 0.88793 0.63604 0.0
N2126 N 0.62051 0.90484 0.63872 0.0
C2127 C 0.63049 0.92079 0.64585 0.0
C2128 C 0.62012 0.92934 0.64638 0.0
C2129 C 0.60249 0.91821 0.63942 0.0
C2130 C 0.60315 0.90347 0.635 0.0
N2131 N 0.60395 0.87152 0.6244 0.0
C2132 C 0.58822 0.87341 0.62204 0.0
C2133 C 0.57293 0.85892 0.61359 0.0
C2134 C 0.57928 0.84741 0.61079 0.0
C2135 C 0.59797 0.85551 0.61763 0.0
N2136 N 0.63944 0.87101 0.63342 0.0
C2137 C 0.6295 0.85506 0.62642 0.0
C2138 C 0.63992 0.84654 0.62619 0.0
C2139 C 0.65756 0.85768 0.63324 0.0
C2140 C 0.65682 0.8724 0.63733 0.0
N2141 N 0.631 0.88826 0.65834 0.0
C2142 C 0.63257 0.88851 0.68997 0.0
C2143 C 0.62481 0.87422 0.67565 0.0
C2144 C 0.62413 0.87437 0.66012 0.0
C2145 C 0.63933 0.9027 0.68813 0.0
C2146 C 0.63843 0.90231 0.67234 0.0
N2147 N 0.629 0.88758 0.61372 0.0
C2148 C 0.62149 0.87286 0.58423 0.0
C2149 C 0.628 0.88692 0.58211 0.0
C2150 C 0.63508 0.90134 0.59613 0.0
C2151 C 0.63544 0.9014 0.61167 0.0
C2152 C 0.62211 0.87345 0.59997 0.0
H2153 H 0.64104 0.91276 0.62184 0.0
H2154 H 0.61705 0.8623 0.60069 0.0
H2155 H 0.61792 0.86307 0.64974 0.0
H2156 H 0.64386 0.91352 0.67179 0.0
C2157 C 0.64964 0.92738 0.65293 0.0
C2158 C 0.67283 0.88725 0.64388 0.0
C2159 C 0.58716 0.88857 0.62843 0.0
C2160 C 0.61032 0.84844 0.61907 0.0
H2161 H 0.70124 0.91896 0.66147 0.0
H2162 H 0.68866 0.9412 0.6665 0.0
H2163 H 0.62487 0.94214 0.65171 0.0
H2164 H 0.59056 0.9207 0.63819 0.0
H2165 H 0.55872 0.85691 0.61022 0.0
H2166 H 0.57127 0.83466 0.60498 0.0
H2167 H 0.6352 0.83374 0.62103 0.0
H2168 H 0.66957 0.85527 0.63478 0.0
H2169 H 0.61905 0.8629 0.67633 0.0
H2170 H 0.64558 0.91409 0.69889 0.0
H2171 H 0.61616 0.86137 0.57385 0.0
H2172 H 0.64014 0.91258 0.59511 0.0
C2173 C 0.66102 0.13884 0.379 0.0
C2174 C 0.67578 0.15367 0.38744 0.0
C2175 C 0.66863 0.16467 0.38961 0.0
C2176 C 0.65001 0.15595 0.38239 0.0
N2177 N 0.64482 0.14002 0.37592 0.0
Co2178 Co 0.61913 0.12289 0.36383 0.0
N2179 N 0.60855 0.13907 0.36592 0.0
C2180 C 0.61786 0.1551 0.373 0.0
C2181 C 0.60681 0.16304 0.37294 0.0
C2182 C 0.58941 0.15141 0.36558 0.0
C2183 C 0.59089 0.137 0.36155 0.0
N2184 N 0.59347 0.10576 0.35179 0.0
C2185 C 0.5773 0.10694 0.34884 0.0
C2186 C 0.56252 0.09212 0.34029 0.0
C2187 C 0.56965 0.08112 0.33801 0.0
C2188 C 0.58826 0.08984 0.34524 0.0
N2189 N 0.62969 0.10671 0.36172 0.0
C2190 C 0.62038 0.09067 0.35458 0.0
C2191 C 0.63143 0.08273 0.35476 0.0
C2192 C 0.64884 0.09436 0.36226 0.0
C2193 C 0.64735 0.10877 0.3662 0.0
N2194 N 0.61974 0.12301 0.38597 0.0
C2195 C 0.62042 0.12332 0.41738 0.0
C2196 C 0.6138 0.10899 0.40338 0.0
C2197 C 0.61359 0.10911 0.38793 0.0
C2198 C 0.62661 0.13747 0.41533 0.0
C2199 C 0.62614 0.13704 0.39968 0.0
N2200 N 0.61852 0.12279 0.34171 0.0
C2201 C 0.61148 0.10856 0.31221 0.0
C2202 C 0.61768 0.12281 0.31036 0.0
C2203 C 0.62444 0.13704 0.3245 0.0
C2204 C 0.62475 0.13676 0.33989 0.0
C2205 C 0.61202 0.10882 0.32786 0.0
H2206 H 0.63017 0.14802 0.35013 0.0
H2207 H 0.60709 0.09756 0.32843 0.0
H2208 H 0.60837 0.0978 0.37777 0.0
H2209 H 0.63095 0.14824 0.399 0.0
C2210 C 0.63703 0.16235 0.3806 0.0
C2211 C 0.66301 0.12402 0.37342 0.0
C2212 C 0.57531 0.12173 0.35464 0.0
C2213 C 0.60122 0.08343 0.34699 0.0
H2214 H 0.69019 0.15626 0.39131 0.0
H2215 H 0.67608 0.17749 0.39535 0.0
H2216 H 0.61095 0.17578 0.37809 0.0
H2217 H 0.57708 0.15335 0.3638 0.0
H2218 H 0.54812 0.08956 0.33645 0.0
H2219 H 0.56218 0.0683 0.3322 0.0
H2220 H 0.6273 0.06999 0.34965 0.0
H2221 H 0.66123 0.09246 0.36428 0.0
H2222 H 0.60901 0.0977 0.40436 0.0
H2223 H 0.63157 0.14888 0.4257 0.0
H2224 H 0.60598 0.0972 0.30159 0.0
H2225 H 0.62973 0.14842 0.32381 0.0
C2226 C 0.89159 0.64336 0.42307 0.0
C2227 C 0.9081 0.65122 0.43758 0.0
C2228 C 0.92165 0.65475 0.43227 0.0
C2229 C 0.91266 0.64891 0.41491 0.0
N2230 N 0.89416 0.64207 0.4088 0.0
Co2231 Co 0.87576 0.63158 0.38434 0.0
N2232 N 0.89573 0.63534 0.37639 0.0
C2233 C 0.91406 0.64237 0.3862 0.0
C2234 C 0.92434 0.64375 0.37717 0.0
C2235 C 0.91186 0.63741 0.3606 0.0
C2236 C 0.89461 0.63248 0.36049 0.0
N2237 N 0.85736 0.62115 0.35988 0.0
C2238 C 0.85993 0.61972 0.34559 0.0
C2239 C 0.84339 0.61192 0.33109 0.0
C2240 C 0.82985 0.60858 0.33643 0.0
C2241 C 0.83885 0.61446 0.35379 0.0
N2242 N 0.8558 0.62776 0.39228 0.0
C2243 C 0.83747 0.62069 0.38248 0.0
C2244 C 0.8272 0.61918 0.3915 0.0
C2245 C 0.83968 0.62543 0.40805 0.0
C2246 C 0.85692 0.63045 0.40816 0.0
N2247 N 0.87569 0.65245 0.38523 0.0
C2248 C 0.87561 0.68164 0.38471 0.0
C2249 C 0.8592 0.66818 0.37826 0.0
C2250 C 0.85956 0.65387 0.37864 0.0
C2251 C 0.89205 0.68026 0.39171 0.0
C2252 C 0.89177 0.66573 0.39189 0.0
N2253 N 0.87584 0.61072 0.38342 0.0
C2254 C 0.85952 0.5827 0.3761 0.0
C2255 C 0.87595 0.58139 0.38334 0.0
C2256 C 0.89233 0.59501 0.39045 0.0
C2257 C 0.89197 0.60939 0.39035 0.0
C2258 C 0.85978 0.59732 0.37624 0.0
H2259 H 0.90492 0.61932 0.39613 0.0
H2260 H 0.84678 0.59748 0.37055 0.0
H2261 H 0.84658 0.64409 0.3734 0.0
H2262 H 0.90478 0.66551 0.39729 0.0
C2263 C 0.92119 0.64859 0.40394 0.0
C2264 C 0.8739 0.63677 0.42346 0.0
C2265 C 0.87764 0.62605 0.34515 0.0
C2266 C 0.83033 0.61465 0.36476 0.0
H2267 H 0.91013 0.65379 0.45062 0.0
H2268 H 0.93631 0.66044 0.44009 0.0
H2269 H 0.93914 0.64919 0.38209 0.0
H2270 H 0.91513 0.6369 0.34988 0.0
H2271 H 0.84135 0.60921 0.31803 0.0
H2272 H 0.81519 0.60291 0.32862 0.0
H2273 H 0.81239 0.6137 0.38658 0.0
H2274 H 0.83642 0.62583 0.41876 0.0
H2275 H 0.84606 0.66865 0.37298 0.0
H2276 H 0.90517 0.69024 0.39674 0.0
H2277 H 0.84644 0.57246 0.37019 0.0
H2278 H 0.90544 0.5947 0.3964 0.0
C2279 C 0.41351 0.8951 0.38053 0.0
C2280 C 0.42789 0.91007 0.38798 0.0
C2281 C 0.42035 0.9208 0.38979 0.0
C2282 C 0.40189 0.91179 0.38338 0.0
N2283 N 0.39719 0.89595 0.37787 0.0
Co2284 Co 0.37184 0.87844 0.36668 0.0
N2285 N 0.36066 0.89419 0.36876 0.0
C2286 C 0.36956 0.91025 0.3758 0.0
C2287 C 0.35819 0.91785 0.37608 0.0
C2288 C 0.34103 0.90594 0.36913 0.0
C2289 C 0.34298 0.89174 0.36499 0.0
N2290 N 0.34644 0.86093 0.35495 0.0
C2291 C 0.33008 0.86173 0.3521 0.0
C2292 C 0.31561 0.84674 0.34358 0.0
C2293 C 0.32313 0.83605 0.34114 0.0
C2294 C 0.34168 0.84509 0.34827 0.0
N2295 N 0.38305 0.86272 0.3652 0.0
C2296 C 0.37415 0.84669 0.35892 0.0
C2297 C 0.38557 0.83908 0.35954 0.0
C2298 C 0.40277 0.85092 0.36647 0.0
C2299 C 0.40082 0.86513 0.36967 0.0
N2300 N 0.37312 0.87908 0.38912 0.0
C2301 C 0.37432 0.88011 0.42086 0.0
C2302 C 0.36633 0.86562 0.40673 0.0
C2303 C 0.3659 0.86537 0.39112 0.0
C2304 C 0.38171 0.89406 0.41881 0.0
C2305 C 0.38097 0.89328 0.40299 0.0
N2306 N 0.37055 0.87781 0.34421 0.0
C2307 C 0.36653 0.86351 0.31573 0.0
C2308 C 0.36957 0.87724 0.31258 0.0
C2309 C 0.37299 0.89122 0.32557 0.0
C2310 C 0.37359 0.89127 0.34113 0.0
C2311 C 0.36693 0.86403 0.33142 0.0
H2312 H 0.37658 0.90239 0.35047 0.0
H2313 H 0.36439 0.85313 0.33291 0.0
H2314 H 0.35961 0.85395 0.38085 0.0
H2315 H 0.38672 0.90435 0.40228 0.0
C2316 C 0.38863 0.91783 0.38225 0.0
C2317 C 0.41596 0.88044 0.37561 0.0
C2318 C 0.32779 0.8763 0.35831 0.0
C2319 C 0.35501 0.8391 0.3508 0.0
H2320 H 0.44231 0.9129 0.39146 0.0
H2321 H 0.42744 0.93363 0.39493 0.0
H2322 H 0.36197 0.93053 0.38105 0.0
H2323 H 0.32851 0.90751 0.36756 0.0
H2324 H 0.30117 0.84385 0.34 0.0
H2325 H 0.31601 0.8232 0.33553 0.0
H2326 H 0.38177 0.8264 0.35485 0.0
H2327 H 0.41525 0.84923 0.3684 0.0
H2328 H 0.36059 0.85446 0.40772 0.0
H2329 H 0.3878 0.90561 0.4293 0.0
H2330 H 0.36406 0.85239 0.30625 0.0
H2331 H 0.37507 0.90215 0.32377 0.0
C2332 C 0.14873 0.39382 0.42403 0.0
C2333 C 0.16539 0.40096 0.43833 0.0
C2334 C 0.17877 0.40429 0.43279 0.0
C2335 C 0.16955 0.39904 0.41552 0.0
N2336 N 0.15107 0.39278 0.40969 0.0
Co2337 Co 0.13239 0.38319 0.3854 0.0
N2338 N 0.15208 0.3871 0.37712 0.0
C2339 C 0.17045 0.3939 0.3867 0.0
C2340 C 0.18051 0.39566 0.37753 0.0
C2341 C 0.16786 0.38986 0.36112 0.0
C2342 C 0.15072 0.38482 0.36124 0.0
N2343 N 0.1137 0.37343 0.36111 0.0
C2344 C 0.11603 0.37232 0.34676 0.0
C2345 C 0.09937 0.36477 0.33241 0.0
C2346 C 0.086 0.36126 0.33793 0.0
C2347 C 0.09522 0.36678 0.35524 0.0
N2348 N 0.1127 0.37945 0.39369 0.0
C2349 C 0.09434 0.37291 0.38413 0.0
C2350 C 0.08427 0.37149 0.39334 0.0
C2351 C 0.0969 0.3773 0.40975 0.0
C2352 C 0.11405 0.38197 0.40961 0.0
N2353 N 0.13288 0.40441 0.38733 0.0
C2354 C 0.13359 0.43419 0.38845 0.0
C2355 C 0.117 0.42072 0.38104 0.0
C2356 C 0.11696 0.40611 0.38063 0.0
C2357 C 0.14981 0.43252 0.39553 0.0
C2358 C 0.14915 0.41768 0.39488 0.0
N2359 N 0.13189 0.36195 0.38346 0.0
C2360 C 0.11498 0.33403 0.37613 0.0
C2361 C 0.13122 0.33202 0.38182 0.0
C2362 C 0.14781 0.34528 0.38819 0.0
C2363 C 0.14782 0.35997 0.38892 0.0
C2364 C 0.11562 0.3489 0.37699 0.0
H2365 H 0.16092 0.36957 0.39403 0.0
H2366 H 0.10275 0.34957 0.3725 0.0
H2367 H 0.10388 0.39631 0.37461 0.0
H2368 H 0.16199 0.41724 0.40048 0.0
C2369 C 0.17783 0.39924 0.40439 0.0
C2370 C 0.13109 0.38779 0.42469 0.0
C2371 C 0.13362 0.3788 0.34615 0.0
C2372 C 0.08694 0.36704 0.3664 0.0
H2373 H 0.16761 0.40328 0.45137 0.0
H2374 H 0.19346 0.40959 0.4404 0.0
H2375 H 0.19531 0.40095 0.38228 0.0
H2376 H 0.17093 0.38974 0.35037 0.0
H2377 H 0.09712 0.36238 0.31936 0.0
H2378 H 0.0713 0.35578 0.3303 0.0
H2379 H 0.06948 0.36634 0.3886 0.0
H2380 H 0.09379 0.37761 0.42052 0.0
H2381 H 0.10405 0.42132 0.37522 0.0
H2382 H 0.16301 0.44264 0.40166 0.0
H2383 H 0.10175 0.32424 0.37128 0.0
H2384 H 0.1608 0.34437 0.39252 0.0
C2385 C 0.41804 0.14483 0.64835 0.0
C2386 C 0.43305 0.15951 0.65664 0.0
C2387 C 0.42629 0.17076 0.65905 0.0
C2388 C 0.40764 0.16235 0.6521 0.0
N2389 N 0.40207 0.14637 0.6456 0.0
Co2390 Co 0.37617 0.12961 0.63371 0.0
N2391 N 0.36618 0.14617 0.63583 0.0
C2392 C 0.37583 0.16216 0.64278 0.0
C2393 C 0.3651 0.17042 0.64253 0.0
C2394 C 0.34755 0.15906 0.63517 0.0
C2395 C 0.34864 0.14448 0.63141 0.0
N2396 N 0.35028 0.11285 0.62189 0.0
C2397 C 0.33427 0.11439 0.61889 0.0
C2398 C 0.31928 0.09971 0.61072 0.0
C2399 C 0.32606 0.08846 0.60863 0.0
C2400 C 0.34472 0.09687 0.61563 0.0
N2401 N 0.38618 0.11306 0.63153 0.0
C2402 C 0.37656 0.09707 0.62459 0.0
C2403 C 0.3873 0.08883 0.62459 0.0
C2404 C 0.40482 0.10021 0.6317 0.0
C2405 C 0.40369 0.11477 0.63559 0.0
N2406 N 0.3769 0.13003 0.65597 0.0
C2407 C 0.37789 0.13049 0.68751 0.0
C2408 C 0.37105 0.11614 0.67349 0.0
C2409 C 0.37066 0.11619 0.65801 0.0
C2410 C 0.38409 0.14462 0.68543 0.0
C2411 C 0.38348 0.14413 0.66969 0.0
N2412 N 0.37546 0.12918 0.61147 0.0
C2413 C 0.3679 0.11436 0.58199 0.0
C2414 C 0.37478 0.1284 0.57993 0.0
C2415 C 0.38206 0.14285 0.59396 0.0
C2416 C 0.38224 0.14296 0.60947 0.0
C2417 C 0.3684 0.11502 0.59772 0.0
H2418 H 0.38797 0.15435 0.61965 0.0
H2419 H 0.36308 0.10389 0.59844 0.0
H2420 H 0.36515 0.10485 0.64787 0.0
H2421 H 0.38843 0.1553 0.66896 0.0
C2422 C 0.39498 0.16907 0.65031 0.0
C2423 C 0.41951 0.12981 0.64228 0.0
C2424 C 0.33271 0.12944 0.62435 0.0
C2425 C 0.35739 0.09013 0.61728 0.0
H2426 H 0.44736 0.16187 0.66015 0.0
H2427 H 0.434 0.18355 0.66466 0.0
H2428 H 0.36955 0.18319 0.64748 0.0
H2429 H 0.33534 0.16124 0.63312 0.0
H2430 H 0.30495 0.09739 0.607 0.0
H2431 H 0.31835 0.07568 0.60307 0.0
H2432 H 0.38288 0.07606 0.61959 0.0
H2433 H 0.41702 0.09807 0.63347 0.0
H2434 H 0.36576 0.10485 0.67436 0.0
H2435 H 0.38964 0.15606 0.69595 0.0
H2436 H 0.36238 0.10286 0.57158 0.0
H2437 H 0.38741 0.15406 0.59296 0.0
C2438 C 0.88231 0.38811 0.65315 0.0
C2439 C 0.89901 0.39592 0.66747 0.0
C2440 C 0.91231 0.39928 0.66185 0.0
C2441 C 0.90301 0.3934 0.64451 0.0
N2442 N 0.88453 0.38671 0.63871 0.0
Co2443 Co 0.86576 0.37612 0.61439 0.0
N2444 N 0.88537 0.38001 0.60604 0.0
C2445 C 0.90375 0.38727 0.61557 0.0
C2446 C 0.91371 0.38869 0.60625 0.0
C2447 C 0.90093 0.3822 0.58978 0.0
C2448 C 0.88388 0.3772 0.59005 0.0
N2449 N 0.84699 0.36534 0.59004 0.0
C2450 C 0.84922 0.36378 0.57557 0.0
C2451 C 0.83252 0.35578 0.56125 0.0
C2452 C 0.81924 0.35232 0.56687 0.0
C2453 C 0.82853 0.35838 0.58423 0.0
N2454 N 0.84614 0.37241 0.62277 0.0
C2455 C 0.82776 0.3654 0.61322 0.0
C2456 C 0.81778 0.3641 0.62252 0.0
C2457 C 0.83052 0.37047 0.63899 0.0
C2458 C 0.84761 0.37534 0.63877 0.0
N2459 N 0.86536 0.39686 0.6152 0.0
C2460 C 0.8649 0.42601 0.61497 0.0
C2461 C 0.84861 0.41231 0.60788 0.0
C2462 C 0.84915 0.39801 0.60813 0.0
C2463 C 0.88141 0.42489 0.6224 0.0
C2464 C 0.88133 0.41036 0.62241 0.0
N2465 N 0.86615 0.35537 0.61358 0.0
C2466 C 0.8502 0.32769 0.60778 0.0
C2467 C 0.86677 0.32632 0.61407 0.0
C2468 C 0.88302 0.33973 0.61984 0.0
C2469 C 0.8824 0.35398 0.61951 0.0
C2470 C 0.8502 0.34214 0.60759 0.0
H2471 H 0.89528 0.36373 0.62424 0.0
H2472 H 0.83711 0.34236 0.60272 0.0
H2473 H 0.83626 0.38801 0.60234 0.0
H2474 H 0.89438 0.41035 0.62823 0.0
C2475 C 0.91123 0.3933 0.63331 0.0
C2476 C 0.86478 0.38172 0.65391 0.0
C2477 C 0.8667 0.3705 0.57488 0.0
C2478 C 0.82032 0.35892 0.59546 0.0
H2479 H 0.90133 0.39862 0.68059 0.0
H2480 H 0.92702 0.40499 0.66945 0.0
H2481 H 0.92848 0.39417 0.61092 0.0
H2482 H 0.90382 0.38152 0.57883 0.0
H2483 H 0.83018 0.35311 0.54813 0.0
H2484 H 0.80453 0.34657 0.55927 0.0
H2485 H 0.803 0.35864 0.61783 0.0
H2486 H 0.82752 0.37102 0.64986 0.0
H2487 H 0.83544 0.41248 0.60181 0.0
H2488 H 0.89441 0.43521 0.62832 0.0
H2489 H 0.8372 0.31776 0.60332 0.0
H2490 H 0.89624 0.33928 0.62453 0.0
C2491 C 0.14051 0.63919 0.65486 0.0
C2492 C 0.15748 0.64641 0.66884 0.0
C2493 C 0.17046 0.64988 0.66288 0.0
C2494 C 0.16078 0.64453 0.64568 0.0
N2495 N 0.14234 0.63797 0.64026 0.0
Co2496 Co 0.12317 0.62793 0.6161 0.0
N2497 N 0.14238 0.63156 0.60726 0.0
C2498 C 0.16079 0.63795 0.61643 0.0
C2499 C 0.17045 0.63906 0.60683 0.0
C2500 C 0.15746 0.63323 0.59055 0.0
C2501 C 0.14058 0.62896 0.59122 0.0
N2502 N 0.10401 0.61813 0.59197 0.0
C2503 C 0.1059 0.61702 0.57741 0.0
C2504 C 0.08901 0.61007 0.56341 0.0
C2505 C 0.07596 0.60679 0.56933 0.0
C2506 C 0.08558 0.61195 0.58653 0.0
N2507 N 0.10396 0.62404 0.62491 0.0
C2508 C 0.08553 0.61721 0.61567 0.0
C2509 C 0.07584 0.61598 0.62523 0.0
C2510 C 0.08884 0.62211 0.64155 0.0
C2511 C 0.10577 0.62666 0.64097 0.0
N2512 N 0.12343 0.64909 0.61799 0.0
C2513 C 0.12376 0.67892 0.61976 0.0
C2514 C 0.10732 0.66578 0.61413 0.0
C2515 C 0.10746 0.6511 0.61325 0.0
C2516 C 0.14004 0.6769 0.62462 0.0
C2517 C 0.13958 0.66206 0.62375 0.0
N2518 N 0.12292 0.60677 0.61426 0.0
C2519 C 0.10622 0.57861 0.60608 0.0
C2520 C 0.1225 0.57707 0.61329 0.0
C2521 C 0.13901 0.59064 0.62075 0.0
C2522 C 0.1389 0.60519 0.62105 0.0
C2523 C 0.10673 0.59341 0.60668 0.0
H2524 H 0.15195 0.61503 0.62706 0.0
H2525 H 0.09384 0.59377 0.60103 0.0
H2526 H 0.09443 0.64154 0.60856 0.0
H2527 H 0.15248 0.66137 0.62776 0.0
C2528 C 0.1686 0.64402 0.63416 0.0
C2529 C 0.12309 0.63287 0.65591 0.0
C2530 C 0.12332 0.62317 0.5764 0.0
C2531 C 0.07773 0.61181 0.59798 0.0
H2532 H 0.16032 0.64853 0.68195 0.0
H2533 H 0.1852 0.65507 0.67014 0.0
H2534 H 0.1852 0.644 0.61121 0.0
H2535 H 0.16012 0.63255 0.57949 0.0
H2536 H 0.08636 0.60793 0.55032 0.0
H2537 H 0.06122 0.60164 0.56203 0.0
H2538 H 0.06109 0.61099 0.62083 0.0
H2539 H 0.08614 0.62292 0.65261 0.0
H2540 H 0.09432 0.66672 0.61006 0.0
H2541 H 0.15315 0.68678 0.62926 0.0
H2542 H 0.09306 0.56843 0.59988 0.0
H2543 H 0.15202 0.59018 0.6267 0.0
C2544 C 0.10986 0.94431 0.36371 0.0
C2545 C 0.12508 0.94402 0.37554 0.0
C2546 C 0.10975 0.95874 0.36347 0.0
C2547 C 0.13178 1.00203 0.39028 0.0
H2548 H 0.11229 0.0054 0.34728 0.0
C2549 C 0.14005 0.06244 0.38652 0.0
C2550 C 0.1249 0.06297 0.37489 0.0
C2551 C 0.14001 0.0479 0.38643 0.0
C2552 C 0.1176 1.00462 0.3594 0.0
H2553 H 0.15228 0.95879 0.39618 0.0
H2554 H 0.15204 0.9839 0.39581 0.0
H2555 H 0.11227 0.98013 0.34745 0.0
H2556 H 0.09775 0.0485 0.35408 0.0
H2557 H 0.09772 0.02315 0.35389 0.0
H2558 H 0.13711 0.0265 0.40224 0.0
C2559 C 0.14006 0.97297 0.38688 0.0
C2560 C 0.11758 0.99012 0.35949 0.0
C2561 C 0.14019 0.95855 0.38709 0.0
C2562 C 0.10977 0.04855 0.36307 0.0
C2563 C 0.10974 0.034 0.36296 0.0
C2564 C 0.13179 0.01651 0.39018 0.0
C2565 C 0.12484 0.97326 0.37508 0.0
C2566 C 0.12471 0.98865 0.37494 0.0
C2567 C 0.12483 0.03349 0.37468 0.0
C2568 C 0.12473 0.01801 0.37475 0.0
H2569 H 0.09787 0.93339 0.35479 0.0
H2570 H 0.09769 0.95853 0.35438 0.0
H2571 H 0.13709 1.00126 0.40241 0.0
H2572 H 0.15208 0.07327 0.3956 0.0
H2573 H 0.152 0.04794 0.39545 0.0
C2574 C 0.06289 0.13625 0.37489 0.0
C2575 C 0.06642 0.12378 0.37798 0.0
C2576 C 0.04725 0.13816 0.37525 0.0
C2577 C 0.01264 0.1277 0.39165 0.0
H2578 H 0.98428 0.13808 0.35709 0.0
C2579 C 0.94095 0.12535 0.38203 0.0
C2580 C 0.93688 0.13739 0.37832 0.0
C2581 C 0.95721 0.12418 0.38264 0.0
C2582 C 0.99219 0.13539 0.36696 0.0
H2583 H 0.05671 0.1034 0.38364 0.0
H2584 H 0.0291 0.10659 0.38417 0.0
H2585 H 0.01169 0.13481 0.35663 0.0
H2586 H 0.94636 0.15789 0.37278 0.0
H2587 H 0.97504 0.15601 0.37398 0.0
H2588 H 0.99308 0.12822 0.40193 0.0
C2589 C 0.0385 0.11505 0.38173 0.0
C2590 C 0.00787 0.1335 0.36669 0.0
C2591 C 0.05416 0.11315 0.38135 0.0
C2592 C 0.94933 0.14847 0.37555 0.0
C2593 C 0.9656 0.14731 0.37615 0.0
C2594 C 0.99695 0.1296 0.39193 0.0
C2595 C 0.03488 0.12758 0.37868 0.0
C2596 C 0.01825 0.12961 0.37901 0.0
C2597 C 0.96964 0.13508 0.37958 0.0
C2598 C 0.98655 0.13344 0.37956 0.0
H2599 H 0.07229 0.14453 0.37227 0.0
H2600 H 0.04495 0.14803 0.37305 0.0
H2601 H 0.02052 0.12494 0.40147 0.0
H2602 H 0.9314 0.11671 0.38417 0.0
H2603 H 0.95983 0.11453 0.38512 0.0
C2604 C 0.86005 0.94452 0.36189 0.0
C2605 C 0.87546 0.94421 0.37344 0.0
C2606 C 0.85996 0.95894 0.36161 0.0
C2607 C 0.88255 1.0023 0.38808 0.0
H2608 H 0.86201 0.00539 0.34508 0.0
C2609 C 0.89037 0.06261 0.38419 0.0
C2610 C 0.87512 0.06312 0.37267 0.0
C2611 C 0.89038 0.04808 0.38409 0.0
C2612 C 0.86761 0.0047 0.35721 0.0
H2613 H 0.90302 0.95893 0.3935 0.0
H2614 H 0.9028 0.98402 0.39307 0.0
H2615 H 0.86201 0.98013 0.34526 0.0
H2616 H 0.84784 0.04864 0.35209 0.0
H2617 H 0.84786 0.02331 0.35193 0.0
H2618 H 0.88811 0.02683 0.40005 0.0
C2619 C 0.89067 0.97312 0.38439 0.0
C2620 C 0.86761 0.9902 0.35731 0.0
C2621 C 0.89078 0.95871 0.38465 0.0
C2622 C 0.85993 0.0487 0.36098 0.0
C2623 C 0.85994 0.03416 0.36089 0.0
C2624 C 0.88253 0.01678 0.38798 0.0
C2625 C 0.87525 0.97343 0.3729 0.0
C2626 C 0.87512 0.98883 0.37275 0.0
C2627 C 0.87515 0.03366 0.37248 0.0
C2628 C 0.87509 0.01819 0.37255 0.0
H2629 H 0.8479 0.93363 0.35326 0.0
H2630 H 0.84776 0.95876 0.35275 0.0
H2631 H 0.88816 1.00161 0.40021 0.0
H2632 H 0.90244 0.07346 0.39317 0.0
H2633 H 0.90246 0.04815 0.393 0.0
C2634 C 0.93618 0.87041 0.37187 0.0
C2635 C 0.93531 0.88517 0.37488 0.0
C2636 C 0.95211 0.86888 0.37191 0.0
C2637 C 0.00167 0.89232 0.3878 0.0
H2638 H 0.99851 0.85515 0.3541 0.0
C2639 C 0.06517 0.8874 0.37994 0.0
C2640 C 0.06611 0.87269 0.37719 0.0
C2641 C 0.04916 0.88891 0.37967 0.0
C2642 C -0.0004 0.86551 0.36371 0.0
H2643 H 0.9498 0.90981 0.38001 0.0
H2644 H 0.97781 0.90719 0.37996 0.0
H2645 H 0.97048 0.8579 0.3533 0.0
H2646 H 0.05164 0.8481 0.37224 0.0
H2647 H 0.02348 0.85068 0.37186 0.0
H2648 H 0.03078 0.89994 0.39821 0.0
C2649 C 0.96635 0.89685 0.37781 0.0
C2650 C 0.98356 0.86709 0.36324 0.0
C2651 C 0.95038 0.89836 0.37776 0.0
C2652 C 0.051 0.85951 0.37429 0.0
C2653 C 0.03496 0.861 0.374 0.0
C2654 C 0.0177 0.89075 0.38826 0.0
C2655 C 0.9674 0.8821 0.37494 0.0
C2656 C 0.98442 0.88051 0.37529 0.0
C2657 C 0.03387 0.87572 0.37665 0.0
C2658 C 0.01683 0.87733 0.37622 0.0
H2659 H 0.92459 0.86013 0.36965 0.0
H2660 H 0.95258 0.85741 0.36987 0.0
H2661 H 0.00276 0.90267 0.39743 0.0
H2662 H 0.07678 0.89766 0.38216 0.0
H2663 H 0.04866 0.90035 0.38155 0.0
C2664 C 0.13797 0.96025 0.63799 0.0
C2665 C 0.12292 0.94579 0.62613 0.0
C2666 C 0.13794 0.97478 0.63805 0.0
C2667 C 0.1158 0.99224 0.61079 0.0
H2668 H 0.13533 0.02857 0.65356 0.0
C2669 C 0.10756 0.05032 0.61399 0.0
C2670 C 0.12267 0.06483 0.62561 0.0
C2671 C 0.10763 0.03588 0.61417 0.0
C2672 C 0.13001 0.0186 0.6415 0.0
H2673 H 0.09583 0.9354 0.60527 0.0
H2674 H 0.09579 0.96069 0.60536 0.0
H2675 H 0.13533 1.0033 0.65368 0.0
H2676 H 0.14983 0.0754 0.64641 0.0
H2677 H 0.14992 0.05021 0.64675 0.0
H2678 H 0.11049 0.00752 0.59861 0.0
C2679 C 0.10778 0.96079 0.61444 0.0
C2680 C 0.13001 1.00409 0.64157 0.0
C2681 C 0.1078 0.94626 0.61439 0.0
C2682 C 0.13783 0.06449 0.63745 0.0
C2683 C 0.13789 0.05004 0.63764 0.0
C2684 C 0.1158 0.00673 0.61072 0.0
C2685 C 0.12286 0.97524 0.62625 0.0
C2686 C 0.12289 0.99071 0.62621 0.0
C2687 C 0.1228 0.03553 0.62598 0.0
C2688 C 0.12289 0.02011 0.62608 0.0
H2689 H 0.14997 0.96034 0.64705 0.0
H2690 H 0.14991 0.98564 0.64716 0.0
H2691 H 0.1105 0.98227 0.59872 0.0
H2692 H 0.09551 0.05012 0.60489 0.0
H2693 H 0.09565 0.02497 0.60518 0.0
C2694 C 0.94748 0.14977 0.62577 0.0
C2695 C 0.93225 0.13653 0.62258 0.0
C2696 C 0.96336 0.14818 0.62565 0.0
C2697 C 0.98745 0.12219 0.62961 0.0
H2698 H 0.0134 0.14326 0.60799 0.0
C2699 C 0.04648 0.10995 0.61827 0.0
C2700 C 0.06184 0.12328 0.62185 0.0
C2701 C 0.0305 0.11147 0.61815 0.0
C2702 C 0.0064 0.13743 0.61422 0.0
H2703 H 0.92118 0.11133 0.61657 0.0
H2704 H 0.94889 0.10842 0.61615 0.0
H2705 H 0.98581 0.14626 0.60834 0.0
H2706 H 0.07301 0.14854 0.62819 0.0
H2707 H 0.04507 0.15132 0.6281 0.0
H2708 H 0.00804 0.11336 0.63547 0.0
C2709 C 0.94878 0.12006 0.61902 0.0
C2710 C 0.99062 0.13916 0.61443 0.0
C2711 C 0.93293 0.12167 0.61916 0.0
C2712 C 0.06115 0.13813 0.62531 0.0
C2713 C 0.04519 0.13967 0.62516 0.0
C2714 C 0.00322 0.12045 0.62937 0.0
C2715 C 0.96417 0.1333 0.62228 0.0
C2716 C 0.98098 0.13156 0.62213 0.0
C2717 C 0.02971 0.12636 0.62161 0.0
C2718 C 0.01286 0.12806 0.62169 0.0
H2719 H 0.94707 0.1613 0.62838 0.0
H2720 H 0.97506 0.15862 0.62837 0.0
H2721 H 0.98048 0.11638 0.63586 0.0
H2722 H 0.0469 0.09842 0.61562 0.0
H2723 H 0.01872 0.10099 0.6152 0.0
C2724 C 0.87782 0.05582 0.61266 0.0
C2725 C 0.87376 0.06543 0.62445 0.0
C2726 C 0.87795 0.04141 0.61289 0.0
C2727 C 0.8812 0.01924 0.64038 0.0
H2728 H 0.86046 0.98266 0.59756 0.0
C2729 C 0.86981 0.95587 0.63676 0.0
C2730 C 0.87379 0.94637 0.62481 0.0
C2731 C 0.86986 0.97043 0.63688 0.0
C2732 C 0.8665 0.9928 0.60964 0.0
H2733 H 0.8665 0.06728 0.64565 0.0
H2734 H 0.86669 0.04213 0.64602 0.0
H2735 H 0.86052 0.00794 0.5975 0.0
H2736 H 0.88134 0.94498 0.60382 0.0
H2737 H 0.88143 0.97032 0.60402 0.0
H2738 H 0.88715 1.00408 0.65251 0.0
C2739 C 0.87005 0.04586 0.63675 0.0
C2740 C 0.86654 0.00731 0.6096 0.0
C2741 C 0.86994 0.06029 0.63653 0.0
C2742 C 0.8779 0.95184 0.61302 0.0
C2743 C 0.87795 0.96639 0.61313 0.0
C2744 C 0.88115 0.00472 0.64042 0.0
C2745 C 0.87401 0.0362 0.62489 0.0
C2746 C 0.87392 0.02074 0.62497 0.0
C2747 C 0.8739 0.97587 0.62504 0.0
C2748 C 0.87383 0.99132 0.62504 0.0
H2749 H 0.88114 0.05954 0.60337 0.0
H2750 H 0.88137 0.03442 0.60376 0.0
H2751 H 0.88723 0.02938 0.65246 0.0
H2752 H 0.86632 0.95192 0.64586 0.0
H2753 H 0.86641 0.9773 0.64606 0.0
C2754 C 0.05817 0.88479 0.61932 0.0
C2755 C 0.06215 0.87271 0.62302 0.0
C2756 C 0.04207 0.88616 0.61893 0.0
C2757 C 0.00719 0.87533 0.63485 0.0
H2758 H 0.97867 0.88523 0.5999 0.0
C2759 C 0.93605 0.87375 0.62612 0.0
C2760 C 0.93229 0.88603 0.62274 0.0
C2761 C 0.95188 0.87206 0.62604 0.0
C2762 C 0.9866 0.88264 0.60984 0.0
H2763 H 0.0527 0.85239 0.62884 0.0
H2764 H 0.02429 0.85464 0.62805 0.0
H2765 H 0.00622 0.88207 0.59965 0.0
H2766 H 0.94181 0.90632 0.6169 0.0
H2767 H 0.96973 0.90351 0.61685 0.0
H2768 H 0.9876 0.87593 0.64507 0.0
C2769 C 0.03368 0.86321 0.62571 0.0
C2770 C 0.00236 0.88081 0.60969 0.0
C2771 C 0.0498 0.86185 0.62608 0.0
C2772 C 0.94452 0.89671 0.6194 0.0
C2773 C 0.96037 0.89503 0.6193 0.0
C2774 C 0.99144 0.87716 0.635 0.0
C2775 C 0.02969 0.87543 0.62221 0.0
C2776 C 0.01282 0.87715 0.6222 0.0
C2777 C 0.9642 0.88268 0.62262 0.0
C2778 C 0.98098 0.88083 0.6225 0.0
H2779 H 0.06764 0.89326 0.61693 0.0
H2780 H 0.03948 0.8958 0.61639 0.0
H2781 H 0.01513 0.87277 0.64483 0.0
H2782 H 0.92668 0.86543 0.62873 0.0
H2783 H 0.95434 0.86232 0.62844 0.0
C2784 C 0.37157 0.13778 0.05833 0.0
C2785 C 0.36641 0.1228 0.05888 0.0
C2786 C 0.37223 0.13934 0.04364 0.0
C2787 C 0.3551 0.11645 0.99745 0.0
H2788 H 0.39563 0.1519 0.00183 0.0
C2789 C 0.36842 0.12069 0.93978 0.0
C2790 C 0.37363 0.13567 0.93921 0.0
C2791 C 0.3674 0.11913 0.95436 0.0
C2792 C 0.38411 0.14203 0.00039 0.0
H2793 H 0.35805 0.09772 0.04492 0.0
H2794 H 0.35928 0.10035 0.01912 0.0
H2795 H 0.39407 0.14908 0.02731 0.0
H2796 H 0.38157 0.16071 0.95298 0.0
H2797 H 0.37977 0.15806 0.97861 0.0
H2798 H 0.34518 0.10939 0.97052 0.0
C2799 C 0.36255 0.11089 0.02989 0.0
C2800 C 0.38321 0.14042 0.015 0.0
C2801 C 0.36192 0.10936 0.04461 0.0
C2802 C 0.3777 0.14908 0.95332 0.0
C2803 C 0.37673 0.14754 0.96794 0.0
C2804 C 0.35601 0.11806 0.98284 0.0
C2805 C 0.36777 0.12591 0.02925 0.0
C2806 C 0.3687 0.12761 0.0137 0.0
C2807 C 0.37156 0.13254 0.96862 0.0
C2808 C 0.37053 0.13087 0.98415 0.0
H2809 H 0.37509 0.14828 0.06928 0.0
H2810 H 0.37607 0.15104 0.0435 0.0
H2811 H 0.3436 0.10658 0.99601 0.0
H2812 H 0.3652 0.11022 0.92895 0.0
H2813 H 0.36358 0.10744 0.95455 0.0
C2814 C 0.87021 0.39154 0.9473 0.0
C2815 C 0.87426 0.38015 0.93748 0.0
C2816 C 0.87089 0.39227 0.96311 0.0
C2817 C 0.86991 0.36864 0.98893 0.0
H2818 H 0.8914 0.40987 0.0266 0.0
C2819 C 0.88461 0.37511 0.05762 0.0
C2820 C 0.88034 0.38635 0.06737 0.0
C2821 C 0.88417 0.37456 0.04192 0.0
C2822 C 0.88518 0.39827 0.01617 0.0
H2823 H 0.88227 0.36065 0.93664 0.0
H2824 H 0.8835 0.36194 0.96426 0.0
H2825 H 0.88978 0.40835 0.99882 0.0
H2826 H 0.87231 0.40585 0.06828 0.0
H2827 H 0.87151 0.40488 0.04085 0.0
H2828 H 0.86529 0.35856 0.00627 0.0
C2829 C 0.87954 0.37016 0.95961 0.0
C2830 C 0.88425 0.39739 0.00024 0.0
C2831 C 0.87885 0.36942 0.94378 0.0
C2832 C 0.87589 0.39718 0.06117 0.0
C2833 C 0.87543 0.39662 0.04545 0.0
C2834 C 0.87084 0.36951 0.00485 0.0
C2835 C 0.87564 0.38164 0.96949 0.0
C2836 C 0.8766 0.38256 0.98643 0.0
C2837 C 0.87944 0.38523 0.03559 0.0
C2838 C 0.8785 0.38434 0.01867 0.0
H2839 H 0.86633 0.3998 0.94267 0.0
H2840 H 0.86748 0.40106 0.97025 0.0
H2841 H 0.86367 0.35703 0.9785 0.0
H2842 H 0.88842 0.36679 0.06217 0.0
H2843 H 0.88768 0.36584 0.0348 0.0
C2844 C 0.62628 0.87123 0.94116 0.0
C2845 C 0.63075 0.88609 0.9403 0.0
C2846 C 0.62558 0.86974 0.95587 0.0
C2847 C 0.62054 0.88952 0.99428 0.0
H2848 H 0.64104 0.86303 0.01129 0.0
C2849 C 0.62899 0.88843 0.05961 0.0
C2850 C 0.62463 0.87356 0.06045 0.0
C2851 C 0.62976 0.88998 0.04494 0.0
C2852 C 0.63506 0.87033 0.0066 0.0
H2853 H 0.63787 0.911 0.95372 0.0
H2854 H 0.6368 0.90853 0.97964 0.0
H2855 H 0.64235 0.86576 0.9857 0.0
H2856 H 0.61782 0.84871 0.04705 0.0
H2857 H 0.61893 0.85128 0.0212 0.0
H2858 H 0.61322 0.89408 0.01517 0.0
C2859 C 0.63369 0.89798 0.96896 0.0
C2860 C 0.63582 0.8719 0.99194 0.0
C2861 C 0.63441 0.89945 0.95424 0.0
C2862 C 0.62115 0.86026 0.04654 0.0
C2863 C 0.62192 0.86179 0.03186 0.0
C2864 C 0.61977 0.88795 0.00894 0.0
C2865 C 0.62929 0.8831 0.96995 0.0
C2866 C 0.62856 0.88151 0.9856 0.0
C2867 C 0.62621 0.87667 0.03088 0.0
C2868 C 0.62702 0.87833 0.01527 0.0
H2869 H 0.62333 0.86078 0.93043 0.0
H2870 H 0.62191 0.85809 0.95613 0.0
H2871 H 0.61457 0.89682 0.98959 0.0
H2872 H 0.63183 0.89883 0.07032 0.0
H2873 H 0.63336 0.90164 0.0447 0.0
C2874 C 0.11373 0.63368 0.94253 0.0
C2875 C 0.11823 0.62263 0.93282 0.0
C2876 C 0.1142 0.63416 0.95821 0.0
C2877 C 0.11401 0.61054 0.98412 0.0
H2878 H 0.13429 0.65175 0.02151 0.0
C2879 C 0.12925 0.61776 0.05322 0.0
C2880 C 0.1244 0.62868 0.06266 0.0
C2881 C 0.12857 0.61698 0.03739 0.0
C2882 C 0.12842 0.64015 0.01116 0.0
H2883 H 0.12669 0.60337 0.93195 0.0
H2884 H 0.12762 0.60426 0.9594 0.0
H2885 H 0.13272 0.65028 0.99378 0.0
H2886 H 0.11489 0.64728 0.06277 0.0
H2887 H 0.11377 0.64597 0.03518 0.0
H2888 H 0.1098 0.60043 0.00156 0.0
C2889 C 0.12348 0.61241 0.95477 0.0
C2890 C 0.12749 0.6393 0.99525 0.0
C2891 C 0.12295 0.6119 0.93904 0.0
C2892 C 0.11898 0.63889 0.05595 0.0
C2893 C 0.11832 0.63813 0.04013 0.0
C2894 C 0.11498 0.61139 5e-05 0.0
C2895 C 0.11923 0.62363 0.96459 0.0
C2896 C 0.12024 0.62449 0.98152 0.0
C2897 C 0.12305 0.62713 0.03064 0.0
C2898 C 0.12216 0.62621 0.01374 0.0
H2899 H 0.10972 0.64192 0.93794 0.0
H2900 H 0.1105 0.64274 0.96528 0.0
H2901 H 0.10811 0.59894 0.97377 0.0
H2902 H 0.1338 0.60991 0.05815 0.0
H2903 H 0.13259 0.60855 0.03053 0.0
C2904 C 0.36191 0.85811 0.04419 0.0
C2905 C 0.3659 0.87151 0.05827 0.0
C2906 C 0.36267 0.85962 0.0295 0.0
C2907 C 0.38319 0.88922 0.01468 0.0
H2908 H 0.34577 0.85793 0.97005 0.0
C2909 C 0.37808 0.89796 0.95312 0.0
C2910 C 0.37406 0.88459 0.939 0.0
C2911 C 0.37714 0.89637 0.96772 0.0
C2912 C 0.35644 0.86668 0.98242 0.0
H2913 H 0.37386 0.8969 0.06837 0.0
H2914 H 0.37509 0.89962 0.04264 0.0
H2915 H 0.34389 0.85507 0.99543 0.0
H2916 H 0.36586 0.85917 0.92872 0.0
H2917 H 0.36434 0.8563 0.95432 0.0
H2918 H 0.39576 0.90082 0.00168 0.0
C2919 C 0.3715 0.88797 0.04291 0.0
C2920 C 0.35536 0.86503 0.99696 0.0
C2921 C 0.37069 0.88643 0.05755 0.0
C2922 C 0.36903 0.86961 0.93957 0.0
C2923 C 0.36806 0.86799 0.95414 0.0
C2924 C 0.38428 0.89086 0.00015 0.0
C2925 C 0.36756 0.87459 0.02872 0.0
C2926 C 0.36871 0.87629 0.01325 0.0
C2927 C 0.37208 0.88135 0.96839 0.0
C2928 C 0.37092 0.87961 0.98384 0.0
H2929 H 0.35837 0.84653 0.04465 0.0
H2930 H 0.35979 0.84913 0.01888 0.0
H2931 H 0.39386 0.89796 0.02705 0.0
H2932 H 0.38182 0.90958 0.95278 0.0
H2933 H 0.38007 0.90685 0.97838 0.0
C2934 C 0.1202 0.39366 0.94681 0.0
C2935 C 0.12385 0.38205 0.93683 0.0
C2936 C 0.12078 0.39434 0.96259 0.0
C2937 C 0.11869 0.37029 0.98792 0.0
H2938 H 0.14125 0.41136 0.02604 0.0
C2939 C 0.13327 0.37619 0.05643 0.0
C2940 C 0.12943 0.38765 0.06642 0.0
C2941 C 0.1328 0.37569 0.04074 0.0
C2942 C 0.13473 0.39981 0.01549 0.0
H2943 H 0.13113 0.36212 0.93569 0.0
H2944 H 0.13217 0.36331 0.96322 0.0
H2945 H 0.13979 0.41001 0.99835 0.0
H2946 H 0.12211 0.40757 0.06773 0.0
H2947 H 0.12129 0.40669 0.04032 0.0
H2948 H 0.11364 0.36009 0.00505 0.0
C2949 C 0.12859 0.37175 0.95873 0.0
C2950 C 0.13388 0.39903 0.99961 0.0
C2951 C 0.12799 0.37107 0.94295 0.0
C2952 C 0.12535 0.39872 0.06044 0.0
C2953 C 0.12488 0.39821 0.04473 0.0
C2954 C 0.11955 0.37107 0.0038 0.0
C2955 C 0.12504 0.38343 0.96876 0.0
C2956 C 0.12586 0.38426 0.98564 0.0
C2957 C 0.12849 0.38663 0.03465 0.0
C2958 C 0.12759 0.38584 0.01777 0.0
H2959 H 0.11667 0.40213 0.94234 0.0
H2960 H 0.11767 0.4033 0.96986 0.0
H2961 H 0.11217 0.35874 0.97737 0.0
H2962 H 0.13679 0.36767 0.06081 0.0
H2963 H 0.13599 0.36681 0.03344 0.0
C2964 C 0.62274 0.11185 0.04798 0.0
C2965 C 0.62624 0.12513 0.06193 0.0
C2966 C 0.62366 0.11345 0.03337 0.0
C2967 C 0.62192 0.13983 0.0107 0.0
H2968 H 0.64405 0.11729 0.98718 0.0
C2969 C 0.63597 0.15096 0.95563 0.0
C2970 C 0.6322 0.13754 0.94168 0.0
C2971 C 0.63547 0.14959 0.97045 0.0
C2972 C 0.63765 0.12353 0.9935 0.0
H2973 H 0.63368 0.15044 0.07195 0.0
H2974 H 0.63554 0.15338 0.04648 0.0
H2975 H 0.64277 0.11458 0.01279 0.0
H2976 H 0.62474 0.11223 0.93191 0.0
H2977 H 0.62365 0.1097 0.95775 0.0
H2978 H 0.61678 0.14875 0.9914 0.0
C2979 C 0.63178 0.14168 0.04663 0.0
C2980 C 0.63691 0.12198 0.00818 0.0
C2981 C 0.63084 0.14006 0.06122 0.0
C2982 C 0.62782 0.12273 0.94265 0.0
C2983 C 0.6273 0.12133 0.95744 0.0
C2984 C 0.62266 0.14138 0.99603 0.0
C2985 C 0.62816 0.12838 0.03251 0.0
C2986 C 0.62902 0.13009 0.01694 0.0
C2987 C 0.63113 0.13475 0.97153 0.0
C2988 C 0.63051 0.13323 0.98724 0.0
H2989 H 0.61919 0.10025 0.04838 0.0
H2990 H 0.6206 0.10295 0.02267 0.0
H2991 H 0.61549 0.14605 0.017 0.0
H2992 H 0.63931 0.16248 0.95502 0.0
H2993 H 0.63866 0.16018 0.98112 0.0
C2994 C 0.87346 0.61127 0.93997 0.0
C2995 C 0.86905 0.62213 0.9338 0.0
C2996 C 0.87402 0.61188 0.95573 0.0
C2997 C 0.8787 0.63909 0.9964 0.0
H2998 H 0.86024 0.60029 0.00262 0.0
C2999 C 0.87058 0.63901 0.0574 0.0
C3000 C 0.87555 0.62849 0.06387 0.0
C3001 C 0.8699 0.63828 0.04158 0.0
C3002 C 0.86563 0.61123 0.00114 0.0
H3003 H 0.86116 0.6418 0.93909 0.0
H3004 H 0.86202 0.6428 0.96651 0.0
H3005 H 0.85847 0.59872 0.97479 0.0
H3006 H 0.88419 0.60926 0.05895 0.0
H3007 H 0.88298 0.60798 0.03136 0.0
H3008 H 0.88581 0.6516 0.02273 0.0
C3009 C 0.86544 0.63403 0.95935 0.0
C3010 C 0.86462 0.61033 0.98519 0.0
C3011 C 0.86493 0.63345 0.94362 0.0
C3012 C 0.87999 0.61734 0.05421 0.0
C3013 C 0.8793 0.61661 0.03839 0.0
C3014 C 0.87968 0.63998 0.01234 0.0
C3015 C 0.87013 0.62333 0.96566 0.0
C3016 C 0.87114 0.62425 0.98262 0.0
C3017 C 0.87417 0.62702 0.03185 0.0
C3018 C 0.87316 0.62607 0.0149 0.0
H3019 H 0.87691 0.60253 0.93279 0.0
H3020 H 0.87791 0.60359 0.9603 0.0
H3021 H 0.88414 0.65004 0.99495 0.0
H3022 H 0.86683 0.64759 0.0644 0.0
H3023 H 0.86567 0.64633 0.03681 0.0
C3024 C 0.05497 0.38661 0.11581 0.0
C3025 C 0.07043 0.38957 0.12995 0.0
C3026 C 0.03919 0.38684 0.11757 0.0
C3027 C 0.02294 0.40169 0.1495 0.0
H3028 H 0.97552 0.3685 0.11531 0.0
C3029 C 0.95631 0.39201 0.15846 0.0
C3030 C 0.94069 0.3887 0.14427 0.0
C3031 C 0.97232 0.3924 0.15679 0.0
C3032 C 0.98865 0.37795 0.12487 0.0
H3033 H 0.082 0.39527 0.15691 0.0
H3034 H 0.05433 0.39558 0.16007 0.0
H3035 H 0.00325 0.36884 0.11216 0.0
H3036 H 0.92911 0.38313 0.11734 0.0
H3037 H 0.95715 0.3839 0.11434 0.0
H3038 H 0.00831 0.41076 0.16223 0.0
C3039 C 0.05436 0.39323 0.14768 0.0
C3040 C 0.00452 0.37815 0.12305 0.0
C3041 C 0.07011 0.39298 0.14589 0.0
C3042 C 0.94113 0.38571 0.1284 0.0
C3043 C 0.95709 0.38607 0.12671 0.0
C3044 C 0.00705 0.40149 0.15131 0.0
C3045 C 0.03869 0.39009 0.13352 0.0
C3046 C 0.02183 0.39002 0.13535 0.0
C3047 C 0.97286 0.38939 0.14088 0.0
C3048 C 0.98974 0.38962 0.13901 0.0
H3049 H 0.05512 0.38406 0.10344 0.0
H3050 H 0.02742 0.38459 0.10648 0.0
H3051 H 0.03607 0.41111 0.15907 0.0
H3052 H 0.95607 0.39422 0.17076 0.0
H3053 H 0.98417 0.39479 0.16789 0.0
C3054 C 0.05255 0.61531 0.86691 0.0
C3055 C 0.05676 0.61945 0.85453 0.0
C3056 C 0.03614 0.61444 0.86788 0.0
C3057 C 0.00062 0.62917 0.85623 0.0
H3058 H 0.97258 0.59557 0.8655 0.0
C3059 C 0.93 0.62136 0.85534 0.0
C3060 C 0.92675 0.61801 0.86847 0.0
C3061 C 0.94545 0.62093 0.85301 0.0
C3062 C 0.98035 0.60511 0.86306 0.0
H3063 H 0.04738 0.62558 0.83321 0.0
H3064 H 0.01843 0.62398 0.83474 0.0
H3065 H 0.00026 0.59573 0.86229 0.0
H3066 H 0.93672 0.61172 0.88954 0.0
H3067 H 0.96399 0.61106 0.88562 0.0
H3068 H 0.98081 0.63861 0.85712 0.0
C3069 C 0.02788 0.62163 0.84387 0.0
C3070 C 0.99619 0.60519 0.86121 0.0
C3071 C 0.04431 0.62248 0.84292 0.0
C3072 C 0.93904 0.61421 0.87927 0.0
C3073 C 0.95451 0.61377 0.87695 0.0
C3074 C 0.98479 0.62908 0.85808 0.0
C3075 C 0.02367 0.61768 0.85643 0.0
C3076 C 0.00653 0.61726 0.85784 0.0
C3077 C 0.95791 0.61718 0.86383 0.0
C3078 C 0.97453 0.61709 0.86158 0.0
H3079 H 0.06209 0.61293 0.87595 0.0
H3080 H 0.0334 0.61155 0.87781 0.0
H3081 H 0.00845 0.63877 0.85391 0.0
H3082 H 0.92058 0.62432 0.84692 0.0
H3083 H 0.94757 0.62342 0.84267 0.0
C3084 C 0.36307 0.94808 0.87224 0.0
C3085 C 0.37604 0.94773 0.88618 0.0
C3086 C 0.3632 0.96255 0.87198 0.0
C3087 C 0.37976 0.00492 0.90009 0.0
H3088 H 0.37079 0.01075 0.8581 0.0
C3089 C 0.38922 0.06604 0.8977 0.0
C3090 C 0.37627 0.0663 0.88367 0.0
C3091 C 0.38929 0.05163 0.898 0.0
C3092 C 0.37311 0.00927 0.86989 0.0
H3093 H 0.39923 0.96243 0.91085 0.0
H3094 H 0.39968 0.98766 0.91022 0.0
H3095 H 0.37076 0.98562 0.85866 0.0
H3096 H 0.35333 0.05146 0.85886 0.0
H3097 H 0.35316 0.02635 0.85959 0.0
H3098 H 0.38208 0.02855 0.91132 0.0
C3099 C 0.38927 0.97672 0.89957 0.0
C3100 C 0.3731 0.99484 0.87021 0.0
C3101 C 0.38915 0.96224 0.89983 0.0
C3102 C 0.36338 0.05174 0.86996 0.0
C3103 C 0.36343 0.03732 0.87028 0.0
C3104 C 0.37976 0.01934 0.89977 0.0
C3105 C 0.3763 0.97706 0.88563 0.0
C3106 C 0.37641 0.99247 0.88531 0.0
C3107 C 0.37638 0.03707 0.88431 0.0
C3108 C 0.37642 0.02171 0.88466 0.0
H3109 H 0.35292 0.93717 0.8614 0.0
H3110 H 0.35288 0.96234 0.86112 0.0
H3111 H 0.38209 1.00342 0.91188 0.0
H3112 H 0.39922 0.07699 0.90858 0.0
H3113 H 0.39959 0.05192 0.90894 0.0
C3114 C 0.04752 0.37846 0.84519 0.0
C3115 C 0.06022 0.37592 0.85712 0.0
C3116 C 0.03125 0.37791 0.84635 0.0
C3117 C 0.00057 0.36348 0.86545 0.0
H3118 H 0.98529 0.39658 0.85975 0.0
C3119 C 0.94424 0.3742 0.88372 0.0
C3120 C 0.93159 0.37725 0.87234 0.0
C3121 C 0.95976 0.37371 0.88152 0.0
C3122 C 0.98926 0.38715 0.86119 0.0
H3123 H 0.06618 0.37053 0.8793 0.0
H3124 H 0.03778 0.36969 0.88152 0.0
H3125 H 0.01245 0.39584 0.85604 0.0
H3126 H 0.92489 0.38234 0.84998 0.0
H3127 H 0.95199 0.3814 0.84597 0.0
H3128 H 0.97742 0.35486 0.8707 0.0
C3129 C 0.04018 0.37195 0.87118 0.0
C3130 C 0.0048 0.38672 0.85904 0.0
C3131 C 0.05642 0.3725 0.87 0.0
C3132 C 0.93461 0.37997 0.85886 0.0
C3133 C 0.9501 0.37951 0.85665 0.0
C3134 C 0.98503 0.36392 0.86761 0.0
C3135 C 0.02749 0.37478 0.85945 0.0
C3136 C 0.01065 0.37491 0.8612 0.0
C3137 C 0.96283 0.37634 0.86794 0.0
C3138 C 0.97925 0.37579 0.86555 0.0
H3139 H 0.05029 0.38101 0.83512 0.0
H3140 H 0.02162 0.37992 0.837 0.0
H3141 H 0.0046 0.35411 0.86697 0.0
H3142 H 0.94209 0.37218 0.89425 0.0
H3143 H 0.96944 0.37147 0.89055 0.0
C3144 C 0.64748 0.06325 0.88316 0.0
C3145 C 0.63397 0.06799 0.88575 0.0
C3146 C 0.64761 0.04888 0.88358 0.0
C3147 C 0.6178 0.00984 0.87964 0.0
H3148 H 0.66396 0.00778 0.90157 0.0
C3149 C 0.62089 0.95462 0.89153 0.0
C3150 C 0.63419 0.94968 0.8887 0.0
C3151 C 0.62102 0.96911 0.89133 0.0
C3152 C 0.65096 0.0081 0.89523 0.0
H3153 H 0.61021 0.0614 0.89118 0.0
H3154 H 0.61044 0.03639 0.89191 0.0
H3155 H 0.66388 0.03286 0.90086 0.0
H3156 H 0.65796 0.95613 0.88328 0.0
H3157 H 0.65819 0.9814 0.88296 0.0
H3158 H 0.60488 0.98508 0.87401 0.0
C3159 C 0.62076 0.04365 0.88925 0.0
C3160 C 0.65091 0.02249 0.89482 0.0
C3161 C 0.62062 0.05801 0.88882 0.0
C3162 C 0.64769 0.95967 0.88578 0.0
C3163 C 0.64781 0.97416 0.88558 0.0
C3164 C 0.61784 0.99545 0.88006 0.0
C3165 C 0.63424 0.03889 0.88662 0.0
C3166 C 0.63432 0.02355 0.88703 0.0
C3167 C 0.63444 0.97905 0.8883 0.0
C3168 C 0.63442 0.99439 0.88787 0.0
H3169 H 0.65781 0.07053 0.88052 0.0
H3170 H 0.65803 0.04549 0.88125 0.0
H3171 H 0.60479 0.01014 0.87328 0.0
H3172 H 0.61047 0.94737 0.89409 0.0
H3173 H 0.6107 0.97262 0.89375 0.0
C3174 C 0.05245 0.63114 0.11383 0.0
C3175 C 0.06584 0.62955 0.12615 0.0
C3176 C 0.03647 0.63088 0.11546 0.0
C3177 C 0.01789 0.63723 0.1473 0.0
H3178 H 0.97071 0.61362 0.10793 0.0
C3179 C 0.94942 0.62715 0.15262 0.0
C3180 C 0.93619 0.62893 0.14036 0.0
C3181 C 0.96525 0.62705 0.15088 0.0
C3182 C 0.98381 0.62039 0.11901 0.0
H3183 H 0.0734 0.6263 0.14961 0.0
H3184 H 0.04536 0.62572 0.15251 0.0
H3185 H 0.99843 0.6138 0.1048 0.0
H3186 H 0.92872 0.63211 0.11686 0.0
H3187 H 0.9565 0.63205 0.11376 0.0
H3188 H 0.00327 0.64384 0.1615 0.0
C3189 C 0.04721 0.62737 0.14172 0.0
C3190 C -0.00033 0.6205 0.11721 0.0
C3191 C 0.06314 0.62761 0.14005 0.0
C3192 C 0.93885 0.63064 0.12636 0.0
C3193 C 0.95464 0.63051 0.12458 0.0
C3194 C 0.00203 0.63712 0.1491 0.0
C3195 C 0.03372 0.62905 0.12946 0.0
C3196 C 0.01687 0.62893 0.13134 0.0
C3197 C 0.96801 0.62873 0.13683 0.0
C3198 C 0.98483 0.62871 0.13496 0.0
H3199 H 0.05442 0.63264 0.10303 0.0
H3200 H 0.0264 0.63235 0.10592 0.0
H3201 H 0.03099 0.64402 0.15837 0.0
H3202 H 0.94748 0.62585 0.16351 0.0
H3203 H 0.97523 0.6255 0.16042 0.0
C3204 C 0.35119 0.0497 0.11456 0.0
C3205 C 0.36429 0.05941 0.11102 0.0
C3206 C 0.35104 0.0352 0.11476 0.0
C3207 C 0.36756 0.00467 0.0999 0.0
H3208 H 0.35838 0.99243 0.13474 0.0
C3209 C 0.37828 0.95128 0.11117 0.0
C3210 C 0.36514 0.94139 0.1145 0.0
C3211 C 0.37803 0.96558 0.11064 0.0
C3212 C 0.36077 0.99557 0.12481 0.0
H3213 H 0.38731 0.06122 0.1046 0.0
H3214 H 0.38732 0.03616 0.10533 0.0
H3215 H 0.35811 0.01741 0.13389 0.0
H3216 H 0.34155 0.93896 0.12012 0.0
H3217 H 0.34095 0.96378 0.11895 0.0
H3218 H 0.3703 0.98286 0.09088 0.0
C3219 C 0.37701 0.03967 0.10778 0.0
C3220 C 0.3606 0.00991 0.12431 0.0
C3221 C 0.37715 0.05416 0.10757 0.0
C3222 C 0.35177 0.9462 0.11735 0.0
C3223 C 0.35155 0.96053 0.11687 0.0
C3224 C 0.36776 0.99035 0.10042 0.0
C3225 C 0.36399 0.03001 0.11142 0.0
C3226 C 0.36401 0.01466 0.11186 0.0
C3227 C 0.36466 0.97039 0.11348 0.0
C3228 C 0.36438 0.98562 0.11289 0.0
H3229 H 0.3412 0.05342 0.11747 0.0
H3230 H 0.34068 0.028 0.11742 0.0
H3231 H 0.36994 0.00781 0.08997 0.0
H3232 H 0.38865 0.94787 0.10872 0.0
H3233 H 0.38845 0.97296 0.10817 0.0
C3234 C 0.60921 0.05152 0.11708 0.0
C3235 C 0.62224 0.06127 0.11352 0.0
C3236 C 0.6092 0.03708 0.11734 0.0
C3237 C 0.6258 0.00671 0.10245 0.0
H3238 H 0.61642 0.9942 0.13708 0.0
C3239 C 0.6358 0.95284 0.11301 0.0
C3240 C 0.62257 0.94297 0.11628 0.0
C3241 C 0.63574 0.96725 0.11266 0.0
C3242 C 0.61887 0.99743 0.12721 0.0
H3243 H 0.64538 0.06328 0.10725 0.0
H3244 H 0.64563 0.03831 0.10811 0.0
H3245 H 0.61636 0.0193 0.13647 0.0
H3246 H 0.59902 0.94066 0.12194 0.0
H3247 H 0.59873 0.96563 0.12105 0.0
H3248 H 0.62836 0.98484 0.09322 0.0
C3249 C 0.63526 0.04174 0.1105 0.0
C3250 C 0.61882 0.01183 0.12685 0.0
C3251 C 0.63525 0.05618 0.11021 0.0
C3252 C 0.6093 0.94788 0.11922 0.0
C3253 C 0.60927 0.9623 0.1189 0.0
C3254 C 0.62587 0.99231 0.10282 0.0
C3255 C 0.62224 0.03201 0.11408 0.0
C3256 C 0.62229 0.01666 0.11446 0.0
C3257 C 0.62247 0.97216 0.1156 0.0
C3258 C 0.6224 0.98749 0.1152 0.0
H3259 H 0.59912 0.05513 0.1199 0.0
H3260 H 0.59884 0.02982 0.11996 0.0
H3261 H 0.62823 0.00991 0.09256 0.0
H3262 H 0.64609 0.94936 0.11049 0.0
H3263 H 0.64623 0.97461 0.11025 0.0
C3264 C 0.609 0.44371 0.86289 0.0
C3265 C 0.62448 0.44338 0.87429 0.0
C3266 C 0.60889 0.45814 0.86267 0.0
C3267 C 0.63186 0.50153 0.88918 0.0
H3268 H 0.61045 0.50462 0.84633 0.0
C3269 C 0.63976 0.56185 0.88526 0.0
C3270 C 0.62432 0.56246 0.87413 0.0
C3271 C 0.6397 0.54728 0.88511 0.0
C3272 C 0.6163 0.50392 0.85841 0.0
H3273 H 0.65217 0.45804 0.89413 0.0
H3274 H 0.65195 0.48315 0.89377 0.0
H3275 H 0.61044 0.47931 0.84634 0.0
H3276 H 0.59663 0.54811 0.8542 0.0
H3277 H 0.59656 0.52273 0.85392 0.0
H3278 H 0.63773 0.52613 0.90126 0.0
C3279 C 0.63976 0.47227 0.88518 0.0
C3280 C 0.61629 0.4894 0.85842 0.0
C3281 C 0.63988 0.45785 0.88539 0.0
C3282 C 0.60886 0.5481 0.86278 0.0
C3283 C 0.60882 0.53353 0.86262 0.0
C3284 C 0.63187 0.51604 0.88917 0.0
C3285 C 0.62425 0.47262 0.87386 0.0
C3286 C 0.62411 0.48803 0.87381 0.0
C3287 C 0.62422 0.53293 0.87382 0.0
C3288 C 0.62412 0.51744 0.87379 0.0
H3289 H 0.5968 0.43283 0.85433 0.0
H3290 H 0.59662 0.45798 0.85394 0.0
H3291 H 0.63771 0.50085 0.90128 0.0
H3292 H 0.65203 0.57263 0.89396 0.0
H3293 H 0.65192 0.54726 0.89371 0.0
C3294 C 0.56267 0.63616 0.87432 0.0
C3295 C 0.56615 0.62361 0.87726 0.0
C3296 C 0.54686 0.63788 0.8744 0.0
C3297 C 0.51124 0.62645 0.88948 0.0
H3298 H 0.48355 0.63712 0.85481 0.0
C3299 C 0.4393 0.62369 0.87896 0.0
C3300 C 0.43547 0.63599 0.8757 0.0
C3301 C 0.45544 0.6224 0.87938 0.0
C3302 C 0.49125 0.63433 0.86469 0.0
H3303 H 0.5562 0.60294 0.88239 0.0
H3304 H 0.5283 0.6058 0.88244 0.0
H3305 H 0.51142 0.63435 0.8551 0.0
H3306 H 0.44516 0.65671 0.87056 0.0
H3307 H 0.47365 0.6546 0.87139 0.0
H3308 H 0.49104 0.6264 0.89905 0.0
C3309 C 0.53787 0.61447 0.88034 0.0
C3310 C 0.5072 0.63273 0.86486 0.0
C3311 C 0.55371 0.61276 0.88025 0.0
C3312 C 0.44794 0.64708 0.87297 0.0
C3313 C 0.46411 0.64581 0.87338 0.0
C3314 C 0.49528 0.62805 0.88932 0.0
C3315 C 0.53426 0.62703 0.87737 0.0
C3316 C 0.51735 0.62876 0.87724 0.0
C3317 C 0.46802 0.63344 0.87658 0.0
C3318 C 0.48511 0.63198 0.8769 0.0
H3319 H 0.57221 0.64461 0.87197 0.0
H3320 H 0.54457 0.64778 0.87228 0.0
H3321 H 0.51892 0.62362 0.89933 0.0
H3322 H 0.42973 0.61505 0.8811 0.0
H3323 H 0.45795 0.61264 0.88166 0.0
C3324 C 0.39011 0.45892 0.88604 0.0
C3325 C 0.37531 0.44438 0.87402 0.0
C3326 C 0.39002 0.47336 0.88586 0.0
C3327 C 0.36856 0.49076 0.85817 0.0
H3328 H 0.38623 0.52654 0.90095 0.0
C3329 C 0.36027 0.54895 0.86153 0.0
C3330 C 0.37508 0.56341 0.87376 0.0
C3331 C 0.36028 0.53441 0.8614 0.0
C3332 C 0.38145 0.51673 0.8889 0.0
H3333 H 0.34868 0.43372 0.85246 0.0
H3334 H 0.34855 0.45889 0.85213 0.0
H3335 H 0.38622 0.50127 0.901 0.0
H3336 H 0.40173 0.5738 0.89524 0.0
H3337 H 0.40172 0.54847 0.89504 0.0
H3338 H 0.36378 0.50624 0.84607 0.0
C3339 C 0.36036 0.45911 0.86156 0.0
C3340 C 0.38144 0.50223 0.88893 0.0
C3341 C 0.36044 0.44466 0.86175 0.0
C3342 C 0.38994 0.56293 0.88582 0.0
C3343 C 0.38994 0.54839 0.8857 0.0
C3344 C 0.36857 0.50528 0.85814 0.0
C3345 C 0.37513 0.47365 0.87364 0.0
C3346 C 0.37502 0.48906 0.87357 0.0
C3347 C 0.3751 0.53394 0.87352 0.0
C3348 C 0.37504 0.51846 0.87351 0.0
H3349 H 0.40194 0.45917 0.89548 0.0
H3350 H 0.40177 0.48431 0.89517 0.0
H3351 H 0.36376 0.48094 0.84612 0.0
H3352 H 0.34848 0.54886 0.8522 0.0
H3353 H 0.34851 0.52353 0.85199 0.0
C3354 C 0.45167 0.39934 0.88133 0.0
C3355 C 0.43638 0.38613 0.87806 0.0
C3356 C 0.46785 0.39788 0.88208 0.0
C3357 C 0.48533 0.36809 0.86846 0.0
H3358 H 0.53235 0.40114 0.90358 0.0
C3359 C 0.55278 0.36081 0.87908 0.0
C3360 C 0.56758 0.37393 0.88142 0.0
C3361 C 0.53693 0.36231 0.87941 0.0
C3362 C 0.51932 0.39187 0.89362 0.0
H3363 H 0.42552 0.36112 0.87293 0.0
H3364 H 0.45386 0.35848 0.87438 0.0
H3365 H 0.50416 0.40378 0.90241 0.0
H3366 H 0.57799 0.39889 0.88628 0.0
H3367 H 0.55021 0.4016 0.8868 0.0
H3368 H 0.50047 0.3562 0.85964 0.0
C3369 C 0.45342 0.36993 0.87619 0.0
C3370 C 0.5032 0.3934 0.89293 0.0
C3371 C 0.43728 0.37142 0.87545 0.0
C3372 C 0.56662 0.38866 0.88448 0.0
C3373 C 0.5508 0.39019 0.88485 0.0
C3374 C 0.50145 0.36656 0.86916 0.0
C3375 C 0.46889 0.38315 0.87953 0.0
C3376 C 0.48603 0.38153 0.88032 0.0
C3377 C 0.53572 0.37699 0.88215 0.0
C3378 C 0.51861 0.37845 0.88172 0.0
H3379 H 0.45107 0.41076 0.88329 0.0
H3380 H 0.47945 0.40822 0.88445 0.0
H3381 H 0.47233 0.35886 0.85843 0.0
H3382 H 0.55343 0.34938 0.87679 0.0
H3383 H 0.52562 0.35199 0.87752 0.0
C3384 C 0.62684 0.55518 0.11378 0.0
C3385 C 0.62329 0.565 0.12588 0.0
C3386 C 0.62703 0.54079 0.11402 0.0
C3387 C 0.61027 0.51031 0.12938 0.0
H3388 H 0.64754 0.49786 0.12136 0.0
C3389 C 0.61876 0.45504 0.13732 0.0
C3390 C 0.62303 0.4457 0.12551 0.0
C3391 C 0.61889 0.46965 0.13756 0.0
C3392 C 0.63688 0.50105 0.12341 0.0
H3393 H 0.61707 0.56727 0.14769 0.0
H3394 H 0.61763 0.54224 0.14824 0.0
H3395 H 0.64766 0.5232 0.12146 0.0
H3396 H 0.63092 0.44458 0.10473 0.0
H3397 H 0.6306 0.46976 0.10482 0.0
H3398 H 0.59939 0.48812 0.13119 0.0
C3399 C 0.62013 0.54564 0.13847 0.0
C3400 C 0.63698 0.5156 0.1235 0.0
C3401 C 0.62 0.56007 0.13827 0.0
C3402 C 0.62735 0.45134 0.11389 0.0
C3403 C 0.62742 0.46591 0.11409 0.0
C3404 C 0.61013 0.49572 0.12924 0.0
C3405 C 0.62363 0.53582 0.12634 0.0
C3406 C 0.62365 0.5204 0.12645 0.0
C3407 C 0.62323 0.47529 0.12596 0.0
C3408 C 0.62343 0.49088 0.12622 0.0
H3409 H 0.62963 0.55869 0.10417 0.0
H3410 H 0.62961 0.53345 0.10439 0.0
H3411 H 0.59965 0.51354 0.13146 0.0
H3412 H 0.61514 0.45102 0.14633 0.0
H3413 H 0.61578 0.47661 0.147 0.0
C3414 C 0.56171 0.6385 0.12689 0.0
C3415 C 0.56236 0.62364 0.12342 0.0
C3416 C 0.5458 0.64009 0.12686 0.0
C3417 C 0.4961 0.61697 0.11068 0.0
H3418 H 0.49982 0.65356 0.14563 0.0
C3419 C 0.43301 0.62178 0.11956 0.0
C3420 C 0.43224 0.63659 0.12283 0.0
C3421 C 0.44894 0.62023 0.11964 0.0
C3422 C 0.49858 0.64337 0.13568 0.0
H3423 H 0.54747 0.59883 0.11745 0.0
H3424 H 0.51951 0.60153 0.11752 0.0
H3425 H 0.52764 0.65069 0.14588 0.0
H3426 H 0.44698 0.66135 0.12852 0.0
H3427 H 0.47503 0.65872 0.12859 0.0
H3428 H 0.46703 0.60965 0.10049 0.0
C3429 C 0.53112 0.61192 0.12 0.0
C3430 C 0.5145 0.64172 0.13583 0.0
C3431 C 0.54705 0.61036 0.12003 0.0
C3432 C 0.44748 0.64986 0.12609 0.0
C3433 C 0.46346 0.64834 0.1262 0.0
C3434 C 0.48018 0.61862 0.11054 0.0
C3435 C 0.53033 0.62681 0.12341 0.0
C3436 C 0.51342 0.62851 0.12332 0.0
C3437 C 0.46434 0.6335 0.12296 0.0
C3438 C 0.48126 0.63183 0.12305 0.0
H3439 H 0.57348 0.64884 0.12952 0.0
H3440 H 0.54554 0.65166 0.12932 0.0
H3441 H 0.49484 0.60679 0.10072 0.0
H3442 H 0.42129 0.61144 0.11703 0.0
H3443 H 0.44929 0.6087 0.11731 0.0
C3444 C 0.35807 0.44689 0.11376 0.0
C3445 C 0.37344 0.44641 0.12516 0.0
C3446 C 0.35805 0.46139 0.11375 0.0
C3447 C 0.38074 0.50471 0.14035 0.0
H3448 H 0.36056 0.50775 0.09726 0.0
C3449 C 0.38821 0.56487 0.13581 0.0
C3450 C 0.37297 0.56513 0.124 0.0
C3451 C 0.38833 0.55045 0.13607 0.0
C3452 C 0.36605 0.50707 0.10942 0.0
H3453 H 0.40092 0.46094 0.14541 0.0
H3454 H 0.40082 0.48621 0.14546 0.0
H3455 H 0.36058 0.48255 0.09754 0.0
H3456 H 0.34574 0.55037 0.10343 0.0
H3457 H 0.34595 0.52528 0.10388 0.0
H3458 H 0.38618 0.52923 0.15223 0.0
C3459 C 0.38869 0.47535 0.13665 0.0
C3460 C 0.36607 0.49261 0.10957 0.0
C3461 C 0.38874 0.46084 0.13663 0.0
C3462 C 0.35783 0.55061 0.1125 0.0
C3463 C 0.35795 0.5362 0.11276 0.0
C3464 C 0.3807 0.51918 0.1402 0.0
C3465 C 0.37337 0.47581 0.12517 0.0
C3466 C 0.37339 0.49123 0.12504 0.0
C3467 C 0.37321 0.53593 0.12453 0.0
C3468 C 0.37334 0.52054 0.12473 0.0
H3469 H 0.34591 0.43605 0.10496 0.0
H3470 H 0.34591 0.46132 0.10493 0.0
H3471 H 0.38625 0.50401 0.1525 0.0
H3472 H 0.40022 0.5758 0.14469 0.0
H3473 H 0.40042 0.55068 0.14514 0.0
C3474 C 0.56011 0.3869 0.12289 0.0
C3475 C 0.56399 0.3747 0.12638 0.0
C3476 C 0.54397 0.38823 0.12243 0.0
C3477 C 0.50775 0.37644 0.1367 0.0
H3478 H 0.47988 0.38558 0.10062 0.0
C3479 C 0.43549 0.37311 0.12511 0.0
C3480 C 0.4317 0.38536 0.12167 0.0
C3481 C 0.4515 0.37162 0.12537 0.0
C3482 C 0.48761 0.38318 0.11087 0.0
H3483 H 0.55443 0.35427 0.13199 0.0
H3484 H 0.52599 0.35648 0.13115 0.0
H3485 H 0.50831 0.38342 0.10194 0.0
H3486 H 0.44123 0.40568 0.11588 0.0
H3487 H 0.46947 0.40319 0.1164 0.0
H3488 H 0.48707 0.37623 0.14564 0.0
C3489 C 0.53549 0.36517 0.12901 0.0
C3490 C 0.50389 0.38195 0.11163 0.0
C3491 C 0.55165 0.36384 0.12946 0.0
C3492 C 0.44396 0.39607 0.11839 0.0
C3493 C 0.46 0.39459 0.11865 0.0
C3494 C 0.49148 0.37768 0.13594 0.0
C3495 C 0.53144 0.37733 0.1254 0.0
C3496 C 0.51413 0.37858 0.12457 0.0
C3497 C 0.46399 0.3824 0.12225 0.0
C3498 C 0.48124 0.38106 0.12301 0.0
H3499 H 0.56955 0.39533 0.12044 0.0
H3500 H 0.54135 0.39784 0.11983 0.0
H3501 H 0.51549 0.37406 0.14696 0.0
H3502 H 0.4261 0.36478 0.12771 0.0
H3503 H 0.45406 0.36198 0.12796 0.0
C3504 C 0.87729 0.62357 0.44361 0.0
C3505 C 0.87323 0.63531 0.43913 0.0
C3506 C 0.87651 0.622 0.45826 0.0
C3507 C 0.85645 0.63185 0.48849 0.0
H3508 H 0.89362 0.62327 0.51744 0.0
C3509 C 0.86277 0.63425 0.55458 0.0
C3510 C 0.86678 0.6225 0.55909 0.0
C3511 C 0.86331 0.63564 0.53979 0.0
C3512 C 0.88301 0.62547 0.50939 0.0
H3513 H 0.86549 0.65477 0.44625 0.0
H3514 H 0.86425 0.65219 0.47206 0.0
H3515 H 0.89528 0.62625 0.49206 0.0
H3516 H 0.87413 0.60281 0.55185 0.0
H3517 H 0.87502 0.60511 0.52582 0.0
H3518 H 0.8442 0.63111 0.50586 0.0
C3519 C 0.86775 0.64402 0.46418 0.0
C3520 C 0.88397 0.62719 0.49484 0.0
C3521 C 0.86855 0.64558 0.44951 0.0
C3522 C 0.87113 0.61202 0.54857 0.0
C3523 C 0.87172 0.61341 0.53378 0.0
C3524 C 0.8555 0.63014 0.50305 0.0
C3525 C 0.87169 0.63218 0.46871 0.0
C3526 C 0.8707 0.63041 0.48422 0.0
C3527 C 0.86788 0.62528 0.52925 0.0
C3528 C 0.86878 0.62694 0.51368 0.0
H3529 H 0.88092 0.61555 0.43568 0.0
H3530 H 0.8794 0.61264 0.46126 0.0
H3531 H 0.84584 0.63406 0.48044 0.0
H3532 H 0.85938 0.64243 0.5626 0.0
H3533 H 0.86048 0.64501 0.53677 0.0
C3534 C 0.36238 0.87619 0.5513 0.0
C3535 C 0.37808 0.88666 0.56656 0.0
C3536 C 0.36203 0.87578 0.53568 0.0
C3537 C 0.39248 0.88592 0.51502 0.0
H3538 H 0.34854 0.88156 0.47993 0.0
C3539 C 0.39059 0.89149 0.45274 0.0
C3540 C 0.37488 0.88074 0.43759 0.0
C3541 C 0.39105 0.89228 0.4685 0.0
C3542 C 0.36085 0.8826 0.48953 0.0
H3543 H 0.40575 0.90494 0.57733 0.0
H3544 H 0.40501 0.90443 0.55004 0.0
H3545 H 0.34924 0.88313 0.50745 0.0
H3546 H 0.3473 0.86242 0.42717 0.0
H3547 H 0.34823 0.8636 0.45467 0.0
H3548 H 0.40408 0.88538 0.49708 0.0
C3549 C 0.39303 0.89641 0.55018 0.0
C3550 C 0.36125 0.88352 0.50531 0.0
C3551 C 0.39338 0.89683 0.56583 0.0
C3552 C 0.35968 0.87073 0.43858 0.0
C3553 C 0.36013 0.87154 0.45436 0.0
C3554 C 0.39208 0.88502 0.49924 0.0
C3555 C 0.37737 0.88583 0.53491 0.0
C3556 C 0.37706 0.88515 0.51823 0.0
C3557 C 0.3758 0.88235 0.4695 0.0
C3558 C 0.37624 0.88332 0.48629 0.0
H3559 H 0.35028 0.86833 0.55143 0.0
H3560 H 0.34982 0.86738 0.52416 0.0
H3561 H 0.40477 0.88693 0.5246 0.0
H3562 H 0.40261 0.89924 0.45242 0.0
H3563 H 0.40327 0.90084 0.47993 0.0
C3564 C 0.13432 0.37451 0.44477 0.0
C3565 C 0.13048 0.38637 0.44039 0.0
C3566 C 0.13344 0.3729 0.45938 0.0
C3567 C 0.11312 0.38263 0.48934 0.0
H3568 H 0.14989 0.37374 0.51836 0.0
C3569 C 0.11843 0.38425 0.55498 0.0
C3570 C 0.12261 0.37257 0.55952 0.0
C3571 C 0.11904 0.38572 0.54024 0.0
C3572 C 0.13938 0.37603 0.51028 0.0
H3573 H 0.12311 0.40604 0.44768 0.0
H3574 H 0.12165 0.40336 0.4734 0.0
H3575 H 0.15201 0.37702 0.49323 0.0
H3576 H 0.13027 0.35307 0.55236 0.0
H3577 H 0.13117 0.35545 0.52638 0.0
H3578 H 0.10049 0.38163 0.50639 0.0
C3579 C 0.12506 0.39514 0.46547 0.0
C3580 C 0.14061 0.37793 0.49589 0.0
C3581 C 0.12598 0.39675 0.45086 0.0
C3582 C 0.1271 0.36219 0.54904 0.0
C3583 C 0.12771 0.36365 0.53429 0.0
C3584 C 0.11188 0.38072 0.50373 0.0
C3585 C 0.12872 0.38315 0.46987 0.0
C3586 C 0.12749 0.38125 0.48525 0.0
C3587 C 0.12382 0.37551 0.52978 0.0
C3588 C 0.125 0.37739 0.51437 0.0
H3589 H 0.1378 0.3664 0.43678 0.0
H3590 H 0.13614 0.36344 0.4623 0.0
H3591 H 0.10263 0.38494 0.48127 0.0
H3592 H 0.11498 0.39237 0.56301 0.0
H3593 H 0.11616 0.39508 0.53725 0.0
C3594 C 0.63852 0.14006 0.56198 0.0
C3595 C 0.62398 0.12908 0.56288 0.0
C3596 C 0.63812 0.13929 0.54623 0.0
C3597 C 0.60643 0.12358 0.50081 0.0
H3598 H 0.65073 0.12972 0.49406 0.0
C3599 C 0.6063 0.11248 0.4347 0.0
C3600 C 0.6209 0.12357 0.434 0.0
C3601 C 0.60666 0.11293 0.45036 0.0
C3602 C 0.63828 0.12814 0.49579 0.0
H3603 H 0.59749 0.10884 0.54789 0.0
H3604 H 0.59695 0.10735 0.52043 0.0
H3605 H 0.65138 0.13111 0.52153 0.0
H3606 H 0.6475 0.14364 0.44924 0.0
H3607 H 0.64796 0.14462 0.47652 0.0
H3608 H 0.59335 0.12065 0.47509 0.0
C3609 C 0.60859 0.11663 0.53191 0.0
C3610 C 0.63866 0.12895 0.51154 0.0
C3611 C 0.609 0.11738 0.54765 0.0
C3612 C 0.63593 0.13504 0.44932 0.0
C3613 C 0.6363 0.13548 0.46497 0.0
C3614 C 0.60606 0.12279 0.48506 0.0
C3615 C 0.62315 0.12756 0.53101 0.0
C3616 C 0.62275 0.12669 0.51425 0.0
C3617 C 0.62165 0.12446 0.46568 0.0
C3618 C 0.62199 0.12508 0.48237 0.0
H3619 H 0.65034 0.14912 0.57346 0.0
H3620 H 0.64947 0.148 0.54599 0.0
H3621 H 0.594 0.12202 0.50255 0.0
H3622 H 0.59444 0.10358 0.42314 0.0
H3623 H 0.59524 0.10416 0.45046 0.0
C3624 C 0.87265 0.37037 0.44129 0.0
C3625 C 0.87489 0.38477 0.43967 0.0
C3626 C 0.87186 0.36881 0.45594 0.0
C3627 C 0.86196 0.38625 0.49192 0.0
H3628 H 0.88716 0.36397 0.51236 0.0
C3629 C 0.86938 0.3862 0.55741 0.0
C3630 C 0.86706 0.37181 0.55909 0.0
C3631 C 0.87016 0.38767 0.54272 0.0
C3632 C 0.87987 0.37006 0.50669 0.0
H3633 H 0.87809 0.40882 0.45168 0.0
H3634 H 0.87685 0.40623 0.4775 0.0
H3635 H 0.88914 0.36691 0.48704 0.0
H3636 H 0.86378 0.34772 0.54716 0.0
H3637 H 0.865 0.35017 0.52127 0.0
H3638 H 0.85269 0.3894 0.51157 0.0
C3639 C 0.87553 0.39608 0.46746 0.0
C3640 C 0.88102 0.37176 0.49219 0.0
C3641 C 0.87637 0.39763 0.45281 0.0
C3642 C 0.86554 0.3589 0.54598 0.0
C3643 C 0.86636 0.36036 0.53129 0.0
C3644 C 0.86081 0.38455 0.50642 0.0
C3645 C 0.87322 0.38163 0.46918 0.0
C3646 C 0.87208 0.37988 0.48464 0.0
C3647 C 0.8687 0.37479 0.5295 0.0
C3648 C 0.86977 0.37645 0.51398 0.0
H3649 H 0.8714 0.36032 0.43116 0.0
H3650 H 0.86984 0.35747 0.45676 0.0
H3651 H 0.85466 0.39234 0.48626 0.0
H3652 H 0.87068 0.3963 0.56751 0.0
H3653 H 0.87221 0.399 0.54185 0.0
C3654 C 0.61219 0.87514 0.55017 0.0
C3655 C 0.62743 0.88649 0.56541 0.0
C3656 C 0.61174 0.8745 0.53445 0.0
C3657 C 0.63235 0.8984 0.51431 0.0
H3658 H 0.61385 0.85733 0.47726 0.0
C3659 C 0.63894 0.89226 0.45155 0.0
C3660 C 0.62377 0.88083 0.4363 0.0
C3661 C 0.63939 0.89288 0.46727 0.0
C3662 C 0.61886 0.86889 0.48741 0.0
H3663 H 0.65421 0.90601 0.57602 0.0
H3664 H 0.65341 0.90493 0.54856 0.0
H3665 H 0.61464 0.85865 0.50476 0.0
H3666 H 0.59712 0.86114 0.42567 0.0
H3667 H 0.59792 0.86221 0.45312 0.0
H3668 H 0.63655 0.90864 0.49696 0.0
C3669 C 0.6417 0.89664 0.5488 0.0
C3670 C 0.61932 0.86965 0.50318 0.0
C3671 C 0.64216 0.89727 0.56454 0.0
C3672 C 0.60912 0.86995 0.43716 0.0
C3673 C 0.60958 0.87057 0.4529 0.0
C3674 C 0.63188 0.89764 0.49854 0.0
C3675 C 0.62651 0.88521 0.53357 0.0
C3676 C 0.62607 0.88442 0.51681 0.0
C3677 C 0.6247 0.88208 0.46814 0.0
C3678 C 0.62514 0.88287 0.4849 0.0
H3679 H 0.60048 0.86683 0.55038 0.0
H3680 H 0.5997 0.86573 0.52297 0.0
H3681 H 0.63737 0.90996 0.52447 0.0
H3682 H 0.65059 0.90065 0.45134 0.0
H3683 H 0.65139 0.90172 0.47875 0.0
C3684 C 0.11918 0.61121 0.54638 0.0
C3685 C 0.12365 0.62464 0.56065 0.0
C3686 C 0.11993 0.61275 0.5317 0.0
C3687 C 0.14076 0.6423 0.51688 0.0
H3688 H 0.10282 0.61124 0.47238 0.0
C3689 C 0.13519 0.65081 0.45508 0.0
C3690 C 0.1311 0.63737 0.44099 0.0
C3691 C 0.13432 0.64933 0.46975 0.0
C3692 C 0.11362 0.61992 0.48471 0.0
H3693 H 0.13242 0.65013 0.57109 0.0
H3694 H 0.13358 0.65293 0.54536 0.0
H3695 H 0.10113 0.60847 0.49785 0.0
H3696 H 0.12281 0.61194 0.43084 0.0
H3697 H 0.12137 0.60926 0.45653 0.0
H3698 H 0.15324 0.65376 0.50373 0.0
C3699 C 0.12967 0.64122 0.54548 0.0
C3700 C 0.11266 0.61833 0.4993 0.0
C3701 C 0.12891 0.63964 0.56013 0.0
C3702 C 0.12604 0.62243 0.44166 0.0
C3703 C 0.12512 0.62092 0.45629 0.0
C3704 C 0.14171 0.6439 0.50228 0.0
C3705 C 0.12523 0.62779 0.53109 0.0
C3706 C 0.12622 0.62949 0.51556 0.0
C3707 C 0.12923 0.63435 0.4705 0.0
C3708 C 0.12817 0.63272 0.48603 0.0
H3709 H 0.11525 0.59956 0.54667 0.0
H3710 H 0.11667 0.60221 0.52094 0.0
H3711 H 0.15159 0.65097 0.5292 0.0
H3712 H 0.13895 0.66241 0.45467 0.0
H3713 H 0.13734 0.65986 0.48039 0.0
C3714 C 0.38943 0.1383 0.56247 0.0
C3715 C 0.37436 0.12791 0.56328 0.0
C3716 C 0.38911 0.13765 0.54677 0.0
C3717 C 0.36572 0.11111 0.50088 0.0
H3718 H 0.38577 0.15015 0.49555 0.0
C3719 C 0.35624 0.11244 0.43537 0.0
C3720 C 0.37155 0.12246 0.43452 0.0
C3721 C 0.35662 0.113 0.45106 0.0
C3722 C 0.38029 0.13913 0.49688 0.0
H3723 H 0.34695 0.10894 0.54822 0.0
H3724 H 0.34634 0.10786 0.52086 0.0
H3725 H 0.38632 0.15143 0.52296 0.0
H3726 H 0.39944 0.14068 0.44954 0.0
H3727 H 0.40004 0.14171 0.4769 0.0
H3728 H 0.3596 0.09883 0.47475 0.0
C3729 C 0.35856 0.11631 0.53234 0.0
C3730 C 0.38062 0.13986 0.5126 0.0
C3731 C 0.35891 0.11694 0.54803 0.0
C3732 C 0.38729 0.13299 0.44974 0.0
C3733 C 0.38764 0.13358 0.46543 0.0
C3734 C 0.36535 0.11038 0.48515 0.0
C3735 C 0.37368 0.12663 0.53151 0.0
C3736 C 0.37334 0.12586 0.51479 0.0
C3737 C 0.3723 0.12363 0.46627 0.0
C3738 C 0.37265 0.12438 0.48298 0.0
H3739 H 0.40165 0.14674 0.57397 0.0
H3740 H 0.40109 0.14562 0.54658 0.0
H3741 H 0.36026 0.10008 0.5022 0.0
H3742 H 0.3438 0.10437 0.42392 0.0
H3743 H 0.34449 0.10533 0.4513 0.0
C3744 C 0.4533 0.88555 0.65598 0.0
C3745 C 0.44088 0.88861 0.64439 0.0
C3746 C 0.46952 0.88602 0.65478 0.0
C3747 C 0.5008 0.90149 0.63668 0.0
H3748 H 0.51599 0.86813 0.64143 0.0
C3749 C 0.55802 0.89209 0.61912 0.0
C3750 C 0.5705 0.88879 0.63037 0.0
C3751 C 0.54233 0.8923 0.6211 0.0
C3752 C 0.51204 0.87762 0.64026 0.0
H3753 H 0.43535 0.89475 0.62271 0.0
H3754 H 0.46367 0.89543 0.6204 0.0
H3755 H 0.4885 0.86836 0.64475 0.0
H3756 H 0.57673 0.88302 0.65229 0.0
H3757 H 0.54931 0.88348 0.65592 0.0
H3758 H 0.5243 0.9107 0.63209 0.0
C3759 C 0.46108 0.89283 0.63052 0.0
C3760 C 0.49631 0.87777 0.64218 0.0
C3761 C 0.44488 0.89236 0.63174 0.0
C3762 C 0.56715 0.88558 0.64352 0.0
C3763 C 0.55147 0.88577 0.6455 0.0
C3764 C 0.51652 0.90134 0.63474 0.0
C3765 C 0.47354 0.88959 0.64198 0.0
C3766 C 0.4905 0.88968 0.64036 0.0
C3767 C 0.53891 0.88916 0.63433 0.0
C3768 C 0.52227 0.88938 0.63647 0.0
H3769 H 0.45038 0.88275 0.66589 0.0
H3770 H 0.47897 0.88368 0.66393 0.0
H3771 H 0.49681 0.91096 0.63545 0.0
H3772 H 0.56043 0.89448 0.60884 0.0
H3773 H 0.53277 0.89473 0.61217 0.0
C3774 C 0.44117 0.1186 0.38101 0.0
C3775 C 0.42835 0.1213 0.36939 0.0
C3776 C 0.45687 0.11838 0.37904 0.0
C3777 C 0.48649 0.13207 0.35891 0.0
H3778 H 0.50263 0.09962 0.36546 0.0
C3779 C 0.54541 0.1238 0.34368 0.0
C3780 C 0.55804 0.12123 0.35564 0.0
C3781 C 0.52919 0.12342 0.34485 0.0
C3782 C 0.49838 0.10885 0.36374 0.0
H3783 H 0.42153 0.12603 0.3468 0.0
H3784 H 0.44897 0.12559 0.3432 0.0
H3785 H 0.47512 0.09992 0.36873 0.0
H3786 H 0.56397 0.11609 0.37798 0.0
H3787 H 0.53568 0.11557 0.38023 0.0
H3788 H 0.5098 0.14105 0.35401 0.0
C3789 C 0.44706 0.12375 0.3539 0.0
C3790 C 0.48265 0.10902 0.36563 0.0
C3791 C 0.43138 0.12394 0.35587 0.0
C3792 C 0.55428 0.1181 0.36866 0.0
C3793 C 0.53809 0.11771 0.36985 0.0
C3794 C 0.50223 0.1319 0.35704 0.0
C3795 C 0.45996 0.12094 0.36544 0.0
C3796 C 0.47657 0.12067 0.36329 0.0
C3797 C 0.5254 0.12042 0.35799 0.0
C3798 C 0.50839 0.12033 0.3595 0.0
H3799 H 0.43901 0.11665 0.39157 0.0
H3800 H 0.46668 0.1164 0.38826 0.0
H3801 H 0.48227 0.14132 0.35725 0.0
H3802 H 0.54814 0.12612 0.33349 0.0
H3803 H 0.51956 0.12535 0.3354 0.0
C3804 C 0.86279 0.55611 0.38689 0.0
C3805 C 0.876 0.56601 0.38362 0.0
C3806 C 0.86291 0.54174 0.3873 0.0
C3807 C 0.89302 0.52049 0.39247 0.0
H3808 H 0.84703 0.48321 0.37256 0.0
C3809 C 0.88991 0.45775 0.38381 0.0
C3810 C 0.8767 0.44794 0.38715 0.0
C3811 C 0.88994 0.47218 0.38348 0.0
C3812 C 0.85999 0.49354 0.37836 0.0
H3813 H 0.89953 0.56833 0.37793 0.0
H3814 H 0.89972 0.54327 0.37861 0.0
H3815 H 0.84681 0.5082 0.37168 0.0
H3816 H 0.85336 0.44587 0.39311 0.0
H3817 H 0.85339 0.471 0.39252 0.0
H3818 H 0.90619 0.50582 0.39912 0.0
C3819 C 0.88943 0.54675 0.38114 0.0
C3820 C 0.85987 0.50789 0.37785 0.0
C3821 C 0.88932 0.56113 0.38074 0.0
C3822 C 0.86356 0.45298 0.39023 0.0
C3823 C 0.86358 0.46741 0.38988 0.0
C3824 C 0.89314 0.50614 0.39296 0.0
C3825 C 0.87624 0.53687 0.38444 0.0
C3826 C 0.87638 0.52156 0.38491 0.0
C3827 C 0.87673 0.47718 0.38646 0.0
C3828 C 0.87663 0.49248 0.38593 0.0
H3829 H 0.85251 0.5596 0.38945 0.0
H3830 H 0.85272 0.53456 0.39015 0.0
H3831 H 0.90599 0.53082 0.39827 0.0
H3832 H 0.90005 0.45413 0.38111 0.0
H3833 H 0.90011 0.47929 0.38056 0.0
C3834 C 0.43612 0.88333 0.36065 0.0
C3835 C 0.43309 0.88095 0.37427 0.0
C3836 C 0.45206 0.88348 0.35903 0.0
C3837 C 0.48822 0.86966 0.37185 0.0
H3838 H 0.51449 0.90068 0.35864 0.0
C3839 C 0.55893 0.87753 0.37295 0.0
C3840 C 0.56197 0.87991 0.35934 0.0
C3841 C 0.54316 0.87767 0.37475 0.0
C3842 C 0.50718 0.89183 0.36214 0.0
H3843 H 0.44403 0.87718 0.39702 0.0
H3844 H 0.47215 0.87753 0.39432 0.0
H3845 H 0.48715 0.90121 0.36215 0.0
H3846 H 0.55125 0.88408 0.33682 0.0
H3847 H 0.5234 0.88421 0.3398 0.0
H3848 H 0.5082 0.86025 0.3718 0.0
C3849 C 0.46215 0.87906 0.38477 0.0
C3850 C 0.49155 0.89215 0.36418 0.0
C3851 C 0.4462 0.87893 0.38639 0.0
C3852 C 0.54908 0.88233 0.34745 0.0
C3853 C 0.53327 0.88248 0.34923 0.0
C3854 C 0.50384 0.86934 0.3698 0.0
C3855 C 0.4652 0.88127 0.37102 0.0
C3856 C 0.48191 0.88107 0.36906 0.0
C3857 C 0.53017 0.88017 0.36293 0.0
C3858 C 0.51349 0.88043 0.36494 0.0
H3859 H 0.42604 0.88488 0.35119 0.0
H3860 H 0.45393 0.88503 0.34821 0.0
H3861 H 0.4809 0.86081 0.37535 0.0
H3862 H 0.56883 0.87564 0.38221 0.0
H3863 H 0.54127 0.87605 0.38554 0.0
C3864 C 0.14682 0.5631 0.38252 0.0
C3865 C 0.13357 0.56802 0.38553 0.0
C3866 C 0.14698 0.54875 0.38298 0.0
C3867 C 0.11747 0.50999 0.37981 0.0
H3868 H 0.16374 0.50774 0.40087 0.0
C3869 C 0.12082 0.45482 0.39166 0.0
C3870 C 0.13395 0.44978 0.38859 0.0
C3871 C 0.12094 0.46932 0.39147 0.0
C3872 C 0.1507 0.50811 0.39477 0.0
H3873 H 0.11033 0.56176 0.39172 0.0
H3874 H 0.11061 0.53676 0.39248 0.0
H3875 H 0.16361 0.53281 0.40012 0.0
H3876 H 0.15742 0.45603 0.38272 0.0
H3877 H 0.15763 0.48128 0.38236 0.0
H3878 H 0.10455 0.4853 0.37444 0.0
C3879 C 0.12069 0.54388 0.38949 0.0
C3880 C 0.15063 0.52249 0.39434 0.0
C3881 C 0.12053 0.55822 0.38904 0.0
C3882 C 0.14728 0.45965 0.38541 0.0
C3883 C 0.14739 0.47414 0.3852 0.0
C3884 C 0.11754 0.49561 0.38024 0.0
C3885 C 0.13391 0.53894 0.38645 0.0
C3886 C 0.13401 0.52362 0.38687 0.0
C3887 C 0.13419 0.47914 0.38817 0.0
C3888 C 0.13415 0.49448 0.38774 0.0
H3889 H 0.15691 0.57023 0.37955 0.0
H3890 H 0.15719 0.54522 0.38033 0.0
H3891 H 0.10443 0.51035 0.37371 0.0
H3892 H 0.11053 0.44765 0.39442 0.0
H3893 H 0.11076 0.47291 0.3941 0.0
C3894 C 0.45203 0.13337 0.65512 0.0
C3895 C 0.4364 0.12973 0.64076 0.0
C3896 C 0.46794 0.1333 0.65353 0.0
C3897 C 0.48418 0.11742 0.62207 0.0
H3898 H 0.53147 0.15147 0.65529 0.0
C3899 C 0.5504 0.12609 0.61272 0.0
C3900 C 0.56618 0.12993 0.62704 0.0
C3901 C 0.53447 0.12598 0.61439 0.0
C3902 C 0.51838 0.14179 0.64602 0.0
H3903 H 0.42466 0.12308 0.61361 0.0
H3904 H 0.45254 0.12304 0.61074 0.0
H3905 H 0.50373 0.15132 0.65834 0.0
H3906 H 0.57814 0.13674 0.65422 0.0
H3907 H 0.55023 0.13643 0.65724 0.0
H3908 H 0.49882 0.10789 0.60974 0.0
C3909 C 0.45256 0.1258 0.62318 0.0
C3910 C 0.5025 0.1417 0.64777 0.0
C3911 C 0.43669 0.1259 0.6248 0.0
C3912 C 0.56599 0.13375 0.64306 0.0
C3913 C 0.5501 0.13365 0.64475 0.0
C3914 C 0.50005 0.1175 0.62032 0.0
C3915 C 0.46837 0.12953 0.63753 0.0
C3916 C 0.48524 0.12952 0.6358 0.0
C3917 C 0.53417 0.12977 0.63044 0.0
C3918 C 0.51731 0.12969 0.63227 0.0
H3919 H 0.4519 0.13625 0.66751 0.0
H3920 H 0.47984 0.13603 0.66477 0.0
H3921 H 0.47108 0.10775 0.61278 0.0
H3922 H 0.55045 0.12323 0.6003 0.0
H3923 H 0.52249 0.12315 0.60318 0.0
C3924 C 0.87791 0.45119 0.61122 0.0
C3925 C 0.8647 0.44129 0.6145 0.0
C3926 C 0.87773 0.46552 0.61074 0.0
C3927 C 0.8476 0.48672 0.60542 0.0
H3928 H 0.89362 0.52405 0.62569 0.0
C3929 C 0.85083 0.54954 0.61436 0.0
C3930 C 0.86419 0.55945 0.61124 0.0
C3931 C 0.85073 0.53506 0.61457 0.0
C3932 C 0.88065 0.5137 0.61979 0.0
H3933 H 0.84106 0.43888 0.62003 0.0
H3934 H 0.84076 0.46388 0.6192 0.0
H3935 H 0.89377 0.49903 0.62649 0.0
H3936 H 0.88768 0.56162 0.6055 0.0
H3937 H 0.88749 0.53639 0.60586 0.0
H3938 H 0.83448 0.50142 0.59874 0.0
C3939 C 0.85111 0.46043 0.61676 0.0
C3940 C 0.88074 0.49934 0.62025 0.0
C3941 C 0.85128 0.44609 0.61724 0.0
C3942 C 0.87737 0.55443 0.60822 0.0
C3943 C 0.87727 0.53995 0.60844 0.0
C3944 C 0.84751 0.5011 0.60496 0.0
C3945 C 0.86434 0.47034 0.61351 0.0
C3946 C 0.86422 0.48565 0.61306 0.0
C3947 C 0.86398 0.5301 0.61167 0.0
C3948 C 0.86404 0.51477 0.61213 0.0
H3949 H 0.88824 0.44774 0.60876 0.0
H3950 H 0.88794 0.47271 0.60792 0.0
H3951 H 0.83463 0.47638 0.59952 0.0
H3952 H 0.84065 0.55313 0.617 0.0
H3953 H 0.84046 0.52789 0.61735 0.0
C3954 C 0.10868 0.55136 0.61591 0.0
C3955 C 0.1223 0.56152 0.61326 0.0
C3956 C 0.10871 0.53693 0.61622 0.0
C3957 C 0.12719 0.50745 0.60315 0.0
H3958 H 0.11513 0.49398 0.63626 0.0
C3959 C 0.13717 0.4538 0.61446 0.0
C3960 C 0.12338 0.4435 0.61682 0.0
C3961 C 0.13708 0.46819 0.61408 0.0
C3962 C 0.11834 0.49747 0.6268 0.0
H3963 H 0.14649 0.56422 0.60857 0.0
H3964 H 0.14679 0.5393 0.60951 0.0
H3965 H 0.11477 0.51892 0.63534 0.0
H3966 H 0.09881 0.4405 0.6209 0.0
H3967 H 0.09848 0.46543 0.61995 0.0
H3968 H 0.13081 0.48601 0.59465 0.0
C3969 C 0.13594 0.54239 0.61116 0.0
C3970 C 0.11812 0.51179 0.62627 0.0
C3971 C 0.1359 0.55681 0.61084 0.0
C3972 C 0.10955 0.44803 0.61888 0.0
C3973 C 0.10947 0.46243 0.61853 0.0
C3974 C 0.12744 0.49315 0.6037 0.0
C3975 C 0.12237 0.53227 0.6139 0.0
C3976 C 0.12254 0.51697 0.61443 0.0
C3977 C 0.12321 0.47269 0.61608 0.0
C3978 C 0.12302 0.48796 0.61554 0.0
H3979 H 0.09811 0.55465 0.61802 0.0
H3980 H 0.09792 0.52937 0.61817 0.0
H3981 H 0.13039 0.51092 0.59368 0.0
H3982 H 0.14793 0.45063 0.61265 0.0
H3983 H 0.14799 0.47586 0.61235 0.0
C3984 C 0.11259 0.19611 0.36574 0.0
C3985 C 0.127 0.19525 0.37793 0.0
C3986 C 0.11306 0.21084 0.36609 0.0
C3987 C 0.1338 0.25341 0.39458 0.0
H3988 H 0.12049 0.25948 0.35264 0.0
C3989 C 0.14427 0.31537 0.39435 0.0
C3990 C 0.13086 0.31629 0.38125 0.0
C3991 C 0.14385 0.30063 0.39388 0.0
C3992 C 0.12401 0.25796 0.36445 0.0
H3993 H 0.15336 0.20938 0.39993 0.0
H3994 H 0.15398 0.235 0.40068 0.0
H3995 H 0.11942 0.23375 0.35196 0.0
H3996 H 0.10658 0.30223 0.35723 0.0
H3997 H 0.10549 0.2766 0.35671 0.0
H3998 H 0.13815 0.2775 0.40708 0.0
C3999 C 0.14224 0.22425 0.39094 0.0
C4000 C 0.12343 0.24319 0.36405 0.0
C4001 C 0.14185 0.20953 0.39052 0.0
C4002 C 0.11702 0.30204 0.36766 0.0
C4003 C 0.11654 0.28729 0.36724 0.0
C4004 C 0.13425 0.26814 0.39498 0.0
C4005 C 0.12787 0.22508 0.37871 0.0
C4006 C 0.12836 0.24076 0.37912 0.0
C4007 C 0.12995 0.28638 0.38035 0.0
C4008 C 0.12941 0.27064 0.37992 0.0
H4009 H 0.10078 0.18541 0.35603 0.0
H4010 H 0.10165 0.21107 0.35663 0.0
H4011 H 0.13743 0.25185 0.40638 0.0
H4012 H 0.15501 0.32606 0.40514 0.0
H4013 H 0.15455 0.30045 0.4041 0.0
C4014 C 0.81123 0.13397 0.37439 0.0
C4015 C 0.81292 0.11951 0.37051 0.0
C4016 C 0.79488 0.13448 0.37435 0.0
C4017 C 0.75392 0.11285 0.37856 0.0
H4018 H 0.73399 0.1384 0.35906 0.0
C4019 C 0.68322 0.12276 0.35863 0.0
C4020 C 0.68059 0.12435 0.37342 0.0
C4021 C 0.69951 0.12242 0.35828 0.0
C4022 C 0.73934 0.13115 0.36447 0.0
H4023 H 0.79932 0.09429 0.36355 0.0
H4024 H 0.77046 0.09508 0.36334 0.0
H4025 H 0.76187 0.1368 0.35777 0.0
H4026 H 0.69244 0.12691 0.3994 0.0
H4027 H 0.72119 0.12645 0.39893 0.0
H4028 H 0.73125 0.10704 0.38507 0.0
C4029 C 0.78176 0.10603 0.36653 0.0
C4030 C 0.75538 0.13035 0.36387 0.0
C4031 C 0.79813 0.10553 0.36653 0.0
C4032 C 0.69437 0.1257 0.38791 0.0
C4033 C 0.71067 0.12532 0.38757 0.0
C4034 C 0.73791 0.1137 0.37922 0.0
C4035 C 0.78001 0.12053 0.3705 0.0
C4036 C 0.76283 0.12119 0.37091 0.0
C4037 C 0.71337 0.12361 0.37271 0.0
C4038 C 0.73046 0.12286 0.37218 0.0
H4039 H 0.82264 0.14486 0.37759 0.0
H4040 H 0.79402 0.14585 0.37767 0.0
H4041 H 0.75944 0.10583 0.38424 0.0
H4042 H 0.67258 0.12161 0.34732 0.0
H4043 H 0.70111 0.12091 0.3466 0.0
C4044 C 0.86205 0.79991 0.36525 0.0
C4045 C 0.876 0.8146 0.378 0.0
C4046 C 0.8621 0.78557 0.36583 0.0
C4047 C 0.89246 0.76841 0.3858 0.0
H4048 H 0.8463 0.73321 0.37183 0.0
C4049 C 0.88865 0.71163 0.39736 0.0
C4050 C 0.87558 0.69692 0.38398 0.0
C4051 C 0.88875 0.72594 0.39655 0.0
C4052 C 0.8593 0.74287 0.37563 0.0
H4053 H 0.90113 0.82555 0.40127 0.0
H4054 H 0.90085 0.80063 0.4026 0.0
H4055 H 0.84642 0.75818 0.37064 0.0
H4056 H 0.8525 0.68588 0.3591 0.0
H4057 H 0.85254 0.71081 0.35782 0.0
H4058 H 0.90532 0.75311 0.39099 0.0
C4059 C 0.89 0.80017 0.39197 0.0
C4060 C 0.85937 0.7572 0.37491 0.0
C4061 C 0.89001 0.81451 0.39134 0.0
C4062 C 0.86256 0.69693 0.36979 0.0
C4063 C 0.8626 0.71124 0.36903 0.0
C4064 C 0.89239 0.75411 0.38662 0.0
C4065 C 0.87603 0.78549 0.37923 0.0
C4066 C 0.87596 0.77018 0.37997 0.0
C4067 C 0.87572 0.72592 0.38238 0.0
C4068 C 0.8758 0.74116 0.38153 0.0
H4069 H 0.85091 0.79945 0.35487 0.0
H4070 H 0.85124 0.77452 0.35567 0.0
H4071 H 0.90547 0.77801 0.38952 0.0
H4072 H 0.8987 0.71212 0.40861 0.0
H4073 H 0.89887 0.73704 0.40716 0.0
C4074 C 0.18723 0.87166 0.37316 0.0
C4075 C 0.18608 0.88634 0.37675 0.0
C4076 C 0.20269 0.87025 0.37166 0.0
C4077 C 0.24031 0.88896 0.36178 0.0
H4078 H 0.26193 0.86399 0.38077 0.0
C4079 C 0.31003 0.87795 0.37554 0.0
C4080 C 0.3107 0.87558 0.35982 0.0
C4081 C 0.29444 0.87848 0.37747 0.0
C4082 C 0.25607 0.87105 0.37545 0.0
H4083 H 0.19978 0.91106 0.38173 0.0
H4084 H 0.22711 0.90873 0.37929 0.0
H4085 H 0.23601 0.86723 0.38538 0.0
H4086 H 0.29601 0.87172 0.33375 0.0
H4087 H 0.26845 0.8725 0.33699 0.0
H4088 H 0.26053 0.893 0.35208 0.0
C4089 C 0.21605 0.89828 0.3775 0.0
C4090 C 0.24116 0.8728 0.37798 0.0
C4091 C 0.20058 0.89967 0.37903 0.0
C4092 C 0.29559 0.87351 0.34594 0.0
C4093 C 0.27998 0.87407 0.34786 0.0
C4094 C 0.25517 0.88718 0.35921 0.0
C4095 C 0.21718 0.88351 0.37364 0.0
C4096 C 0.23316 0.88181 0.3712 0.0
C4097 C 0.27933 0.87673 0.3637 0.0
C4098 C 0.26323 0.87822 0.36604 0.0
H4099 H 0.176 0.86124 0.37123 0.0
H4100 H 0.20307 0.85869 0.36849 0.0
H4101 H 0.23427 0.89581 0.35622 0.0
H4102 H 0.32172 0.87968 0.38638 0.0
H4103 H 0.29442 0.88073 0.38986 0.0
C4104 C 0.13195 0.80728 0.61527 0.0
C4105 C 0.1239 0.81472 0.62444 0.0
C4106 C 0.13215 0.79275 0.61497 0.0
C4107 C 0.12587 0.76586 0.63743 0.0
H4108 H 0.12076 0.73485 0.59628 0.0
C4109 C 0.11323 0.70069 0.62713 0.0
C4110 C 0.1239 0.69456 0.62046 0.0
C4111 C 0.11338 0.71541 0.62779 0.0
C4112 C 0.12234 0.74344 0.6079 0.0
H4113 H 0.10952 0.81265 0.64032 0.0
H4114 H 0.10936 0.7871 0.63945 0.0
H4115 H 0.12048 0.76023 0.597 0.0
H4116 H 0.14287 0.69899 0.60904 0.0
H4117 H 0.14303 0.72466 0.61009 0.0
H4118 H 0.12729 0.7488 0.64814 0.0
C4119 C 0.11601 0.79265 0.63284 0.0
C4120 C 0.12226 0.75805 0.60837 0.0
C4121 C 0.11602 0.80729 0.6333 0.0
C4122 C 0.13463 0.70345 0.61438 0.0
C4123 C 0.1346 0.71808 0.61485 0.0
C4124 C 0.12573 0.75117 0.63689 0.0
C4125 C 0.1241 0.78516 0.62368 0.0
C4126 C 0.12408 0.76951 0.62316 0.0
C4127 C 0.12401 0.72424 0.6216 0.0
C4128 C 0.12403 0.73982 0.62214 0.0
H4129 H 0.13835 0.81283 0.6085 0.0
H4130 H 0.13886 0.78758 0.60807 0.0
H4131 H 0.12765 0.77444 0.64916 0.0
H4132 H 0.10491 0.69417 0.63202 0.0
H4133 H 0.10498 0.71979 0.63295 0.0
C4134 C 0.18609 0.12352 0.62479 0.0
C4135 C 0.1841 0.13776 0.62679 0.0
C4136 C 0.20231 0.12263 0.6249 0.0
C4137 C 0.2419 0.14155 0.6174 0.0
H4138 H 0.26359 0.11941 0.64136 0.0
C4139 C 0.30094 0.12679 0.60942 0.0
C4140 C 0.31529 0.12958 0.62439 0.0
C4141 C 0.28479 0.12758 0.60972 0.0
C4142 C 0.25774 0.1257 0.63468 0.0
H4143 H 0.19703 0.1622 0.6305 0.0
H4144 H 0.22567 0.16078 0.63083 0.0
H4145 H 0.23597 0.12177 0.64251 0.0
H4146 H 0.32446 0.13537 0.65132 0.0
H4147 H 0.29619 0.13684 0.65196 0.0
H4148 H 0.26382 0.14567 0.60977 0.0
C4149 C 0.2147 0.15027 0.62905 0.0
C4150 C 0.24185 0.12693 0.63522 0.0
C4151 C 0.19846 0.15115 0.62898 0.0
C4152 C 0.31338 0.13309 0.63964 0.0
C4153 C 0.29724 0.13385 0.63996 0.0
C4154 C 0.25776 0.14028 0.61683 0.0
C4155 C 0.21675 0.13597 0.62694 0.0
C4156 C 0.23377 0.13487 0.62658 0.0
C4157 C 0.2828 0.13117 0.62502 0.0
C4158 C 0.26585 0.13235 0.62547 0.0
H4159 H 0.175 0.11307 0.62299 0.0
H4160 H 0.20341 0.11141 0.62303 0.0
H4161 H 0.23587 0.1476 0.61048 0.0
H4162 H 0.30232 0.12411 0.59757 0.0
H4163 H 0.27382 0.12529 0.59799 0.0
C4164 C 0.85539 0.19417 0.60777 0.0
C4165 C 0.87019 0.19435 0.62057 0.0
C4166 C 0.85491 0.20838 0.60713 0.0
C4167 C 0.87361 0.25136 0.6334 0.0
H4168 H 0.85938 0.25468 0.58997 0.0
C4169 C 0.88089 0.31125 0.62849 0.0
C4170 C 0.86713 0.31112 0.61476 0.0
C4171 C 0.8812 0.29702 0.6292 0.0
C4172 C 0.86314 0.25392 0.60218 0.0
H4173 H 0.89619 0.20977 0.64267 0.0
H4174 H 0.8952 0.23452 0.64165 0.0
H4175 H 0.85984 0.22989 0.59126 0.0
H4176 H 0.84296 0.29574 0.59092 0.0
H4177 H 0.84314 0.27098 0.59245 0.0
H4178 H 0.87673 0.2753 0.64433 0.0
C4179 C 0.88389 0.22335 0.6322 0.0
C4180 C 0.86344 0.23969 0.60292 0.0
C4181 C 0.88442 0.20914 0.63279 0.0
C4182 C 0.85365 0.29635 0.60179 0.0
C4183 C 0.85391 0.28211 0.60255 0.0
C4184 C 0.87321 0.26556 0.63266 0.0
C4185 C 0.86916 0.22314 0.61932 0.0
C4186 C 0.86871 0.23825 0.61854 0.0
C4187 C 0.8677 0.28224 0.61625 0.0
C4188 C 0.86801 0.26706 0.61704 0.0
H4189 H 0.84401 0.18305 0.59833 0.0
H4190 H 0.84323 0.20781 0.59719 0.0
H4191 H 0.8775 0.25057 0.64561 0.0
H4192 H 0.89136 0.32237 0.63884 0.0
H4193 H 0.89217 0.29763 0.63985 0.0
C4194 C 0.70397 0.88763 0.65558 0.0
C4195 C 0.68945 0.88678 0.64208 0.0
C4196 C 0.71929 0.88644 0.65349 0.0
C4197 C 0.74352 0.87295 0.64146 0.0
H4198 H 0.76456 0.89461 0.6174 0.0
C4199 C 0.79824 0.86064 0.62163 0.0
C4200 C 0.81314 0.87405 0.62462 0.0
C4201 C 0.78284 0.86214 0.62324 0.0
C4202 C 0.75888 0.88855 0.62421 0.0
H4203 H 0.67914 0.88415 0.61597 0.0
H4204 H 0.70592 0.88199 0.61216 0.0
H4205 H 0.73873 0.89804 0.62201 0.0
H4206 H 0.82402 0.89941 0.63154 0.0
H4207 H 0.79711 0.90215 0.63446 0.0
H4208 H 0.76385 0.86367 0.64391 0.0
C4209 C 0.70567 0.88375 0.62441 0.0
C4210 C 0.74401 0.8904 0.62672 0.0
C4211 C 0.69037 0.88491 0.62652 0.0
C4212 C 0.81249 0.88894 0.62906 0.0
C4213 C 0.79712 0.89046 0.63065 0.0
C4214 C 0.75837 0.87107 0.63892 0.0
C4215 C 0.72024 0.8844 0.63784 0.0
C4216 C 0.73619 0.88263 0.63538 0.0
C4217 C 0.78219 0.8771 0.62789 0.0
C4218 C 0.7662 0.87886 0.63028 0.0
H4219 H 0.70336 0.88906 0.66766 0.0
H4220 H 0.7304 0.88716 0.6641 0.0
H4221 H 0.73765 0.86667 0.64802 0.0
H4222 H 0.79865 0.84909 0.61826 0.0
H4223 H 0.77145 0.85162 0.62085 0.0
C4224 C 0.37334 0.14348 0.1852 0.0
C4225 C 0.36612 0.12979 0.17023 0.0
C4226 C 0.3731 0.14221 0.20011 0.0
C4227 C 0.36645 0.1129 0.21975 0.0
H4228 H 0.36148 0.14574 0.25175 0.0
C4229 C 0.3748 0.11479 0.28614 0.0
C4230 C 0.36449 0.12084 0.29337 0.0
C4231 C 0.37469 0.11556 0.27093 0.0
C4232 C 0.3626 0.1363 0.24288 0.0
H4233 H 0.35242 0.10409 0.15874 0.0
H4234 H 0.35106 0.10177 0.18449 0.0
H4235 H 0.36109 0.14745 0.2255 0.0
H4236 H 0.34551 0.1319 0.29024 0.0
H4237 H 0.34455 0.1326 0.26332 0.0
H4238 H 0.36695 0.10131 0.23672 0.0
C4239 C 0.35764 0.11351 0.18506 0.0
C4240 C 0.36273 0.13745 0.22789 0.0
C4241 C 0.35823 0.1148 0.17025 0.0
C4242 C 0.35373 0.12732 0.28496 0.0
C4243 C 0.35332 0.12782 0.2696 0.0
C4244 C 0.36599 0.11161 0.23461 0.0
C4245 C 0.36518 0.1272 0.20026 0.0
C4246 C 0.36477 0.12582 0.21614 0.0
C4247 C 0.36398 0.12214 0.26246 0.0
C4248 C 0.36415 0.12333 0.24644 0.0
H4249 H 0.37933 0.15516 0.18537 0.0
H4250 H 0.37932 0.15302 0.21156 0.0
H4251 H 0.36832 0.10381 0.2112 0.0
H4252 H 0.38334 0.10986 0.2925 0.0
H4253 H 0.38334 0.11132 0.26605 0.0
C4254 C 0.86932 0.36416 0.31385 0.0
C4255 C 0.87629 0.37792 0.32872 0.0
C4256 C 0.86946 0.36538 0.29888 0.0
C4257 C 0.89357 0.39026 0.28261 0.0
H4258 H 0.84789 0.36985 0.24171 0.0
C4259 C 0.89033 0.39854 0.22122 0.0
C4260 C 0.87825 0.38556 0.20551 0.0
C4261 C 0.88986 0.39807 0.23637 0.0
C4262 C 0.86084 0.37541 0.2529 0.0
H4263 H 0.88938 0.40366 0.33996 0.0
H4264 H 0.89023 0.40581 0.31383 0.0
H4265 H 0.84789 0.3677 0.26788 0.0
H4266 H 0.8559 0.36199 0.19357 0.0
H4267 H 0.85589 0.36078 0.21988 0.0
H4268 H 0.90676 0.39745 0.26768 0.0
C4269 C 0.88438 0.39413 0.3137 0.0
C4270 C 0.86078 0.37424 0.2679 0.0
C4271 C 0.88387 0.39291 0.32857 0.0
C4272 C 0.86568 0.37212 0.20539 0.0
C4273 C 0.86543 0.37154 0.22054 0.0
C4274 C 0.89372 0.39118 0.26753 0.0
C4275 C 0.87701 0.38038 0.2987 0.0
C4276 C 0.87713 0.38166 0.28287 0.0
C4277 C 0.87751 0.38451 0.23626 0.0
C4278 C 0.87735 0.38376 0.25244 0.0
H4279 H 0.86367 0.35249 0.31381 0.0
H4280 H 0.86387 0.35462 0.28749 0.0
H4281 H 0.90637 0.39598 0.29401 0.0
H4282 H 0.90037 0.40904 0.22191 0.0
H4283 H 0.89919 0.40842 0.24814 0.0
C4284 C 0.62507 0.87119 0.17605 0.0
C4285 C 0.62071 0.88248 0.17081 0.0
C4286 C 0.62477 0.87049 0.19116 0.0
C4287 C 0.60589 0.88227 0.22192 0.0
H4288 H 0.64441 0.87571 0.25193 0.0
C4289 C 0.61553 0.8899 0.29005 0.0
C4290 C 0.61992 0.87876 0.2957 0.0
C4291 C 0.61531 0.89001 0.2746 0.0
C4292 C 0.63343 0.87736 0.24359 0.0
H4293 H 0.61288 0.90201 0.17701 0.0
H4294 H 0.61246 0.90096 0.2036 0.0
H4295 H 0.64473 0.87668 0.22543 0.0
H4296 H 0.62759 0.85903 0.28956 0.0
H4297 H 0.62694 0.85908 0.26246 0.0
H4298 H 0.59464 0.88302 0.24013 0.0
C4299 C 0.61582 0.89246 0.19597 0.0
C4300 C 0.63362 0.87792 0.2284 0.0
C4301 C 0.61614 0.89314 0.18085 0.0
C4302 C 0.624 0.86768 0.2855 0.0
C4303 C 0.62382 0.86781 0.27006 0.0
C4304 C 0.60572 0.88172 0.23711 0.0
C4305 C 0.62014 0.88112 0.2013 0.0
C4306 C 0.61987 0.88041 0.2174 0.0
C4307 C 0.6195 0.879 0.26445 0.0
C4308 C 0.61951 0.8793 0.24815 0.0
H4309 H 0.62863 0.86287 0.1684 0.0
H4310 H 0.62795 0.86151 0.19479 0.0
H4311 H 0.59494 0.88395 0.2136 0.0
H4312 H 0.61214 0.89849 0.29751 0.0
H4313 H 0.6121 0.89888 0.27073 0.0
C4314 C 0.12621 0.64364 0.21467 0.0
C4315 C 0.13056 0.63281 0.20446 0.0
C4316 C 0.12703 0.64369 0.23034 0.0
C4317 C 0.14722 0.63079 0.26361 0.0
H4318 H 0.10819 0.63457 0.276 0.0
C4319 C 0.13861 0.61847 0.32007 0.0
C4320 C 0.13386 0.62878 0.33033 0.0
C4321 C 0.13859 0.61941 0.30495 0.0
C4322 C 0.11931 0.6337 0.27283 0.0
H4323 H 0.13953 0.61377 0.20289 0.0
H4324 H 0.14064 0.61366 0.23002 0.0
H4325 H 0.10761 0.63561 0.24927 0.0
H4326 H 0.12527 0.648 0.33311 0.0
H4327 H 0.12532 0.64981 0.3067 0.0
H4328 H 0.15886 0.6288 0.28713 0.0
C4329 C 0.13674 0.62221 0.226 0.0
C4330 C 0.11898 0.6343 0.25751 0.0
C4331 C 0.13589 0.62214 0.21035 0.0
C4332 C 0.12899 0.63998 0.3253 0.0
C4333 C 0.12893 0.64092 0.31018 0.0
C4334 C 0.14754 0.63019 0.27892 0.0
C4335 C 0.13227 0.63295 0.23617 0.0
C4336 C 0.13289 0.63278 0.25268 0.0
C4337 C 0.13373 0.63065 0.29982 0.0
C4338 C 0.13355 0.63156 0.28368 0.0
H4339 H 0.12191 0.65192 0.21044 0.0
H4340 H 0.12367 0.65222 0.23793 0.0
H4341 H 0.1583 0.62984 0.2604 0.0
H4342 H 0.14225 0.60966 0.32374 0.0
H4343 H 0.14209 0.61118 0.29715 0.0
C4344 C 0.38448 0.89278 0.82833 0.0
C4345 C 0.37678 0.87782 0.8285 0.0
C4346 C 0.38511 0.89395 0.81349 0.0
C4347 C 0.36165 0.87386 0.76768 0.0
H4348 H 0.40762 0.89737 0.76762 0.0
C4349 C 0.36674 0.8719 0.7053 0.0
C4350 C 0.37915 0.88544 0.70544 0.0
C4351 C 0.36652 0.87126 0.72043 0.0
C4352 C 0.39459 0.891 0.76743 0.0
H4353 H 0.36413 0.85237 0.81366 0.0
H4354 H 0.36458 0.8544 0.78737 0.0
H4355 H 0.40717 0.89589 0.79394 0.0
H4356 H 0.40102 0.90904 0.72186 0.0
H4357 H 0.39986 0.9083 0.74806 0.0
H4358 H 0.34883 0.86939 0.74146 0.0
C4359 C 0.37015 0.86519 0.79874 0.0
C4360 C 0.3944 0.89008 0.7825 0.0
C4361 C 0.36987 0.86402 0.81368 0.0
C4362 C 0.3911 0.89846 0.72115 0.0
C4363 C 0.39065 0.89793 0.73628 0.0
C4364 C 0.36175 0.87502 0.75269 0.0
C4365 C 0.37778 0.88016 0.79853 0.0
C4366 C 0.37796 0.88139 0.78269 0.0
C4367 C 0.37845 0.88427 0.73615 0.0
C4368 C 0.37825 0.88349 0.7523 0.0
H4369 H 0.38994 0.90356 0.83969 0.0
H4370 H 0.39101 0.90561 0.81359 0.0
H4371 H 0.34877 0.86725 0.76761 0.0
H4372 H 0.35707 0.86173 0.69347 0.0
H4373 H 0.3571 0.86042 0.71976 0.0
C4374 C 0.13407 0.39252 0.79613 0.0
C4375 C 0.12231 0.37896 0.79653 0.0
C4376 C 0.13406 0.39268 0.78077 0.0
C4377 C 0.10599 0.37135 0.73387 0.0
H4378 H 0.15109 0.39564 0.73294 0.0
C4379 C 0.11435 0.36833 0.67203 0.0
C4380 C 0.12218 0.3831 0.6715 0.0
C4381 C 0.11406 0.36757 0.68712 0.0
C4382 C 0.13839 0.38888 0.73307 0.0
H4383 H 0.10139 0.35483 0.78086 0.0
H4384 H 0.10211 0.35481 0.75427 0.0
H4385 H 0.1516 0.39429 0.75953 0.0
H4386 H 0.13539 0.40861 0.68595 0.0
H4387 H 0.13542 0.40729 0.71262 0.0
H4388 H 0.093 0.36559 0.70718 0.0
C4389 C 0.11099 0.36553 0.7658 0.0
C4390 C 0.13862 0.38815 0.74831 0.0
C4391 C 0.1108 0.36545 0.78114 0.0
C4392 C 0.12952 0.39711 0.6862 0.0
C4393 C 0.12953 0.39634 0.70137 0.0
C4394 C 0.10584 0.37187 0.71857 0.0
C4395 C 0.12252 0.37919 0.76537 0.0
C4396 C 0.12239 0.37949 0.74897 0.0
C4397 C 0.12182 0.38156 0.70196 0.0
C4398 C 0.12201 0.38075 0.71808 0.0
H4399 H 0.1434 0.40307 0.80771 0.0
H4400 H 0.14296 0.40352 0.78101 0.0
H4401 H 0.09315 0.3648 0.73389 0.0
H4402 H 0.10857 0.3574 0.66078 0.0
H4403 H 0.10809 0.35603 0.68728 0.0
C4404 C 0.63671 0.12268 0.71097 0.0
C4405 C 0.63129 0.1333 0.70504 0.0
C4406 C 0.63748 0.12271 0.72659 0.0
C4407 C 0.61937 0.13457 0.75789 0.0
H4408 H 0.65913 0.12902 0.78761 0.0
C4409 C 0.62905 0.14001 0.82558 0.0
C4410 C 0.63387 0.12877 0.83058 0.0
C4411 C 0.62903 0.14099 0.81049 0.0
C4412 C 0.64784 0.13042 0.77938 0.0
H4413 H 0.62243 0.15229 0.71093 0.0
H4414 H 0.62409 0.15252 0.73837 0.0
H4415 H 0.65878 0.13022 0.761 0.0
H4416 H 0.6422 0.10962 0.82393 0.0
H4417 H 0.64213 0.11122 0.79739 0.0
H4418 H 0.60841 0.13472 0.77626 0.0
C4419 C 0.62756 0.14406 0.73083 0.0
C4420 C 0.64764 0.13111 0.76413 0.0
C4421 C 0.62681 0.14405 0.71519 0.0
C4422 C 0.63859 0.11845 0.82029 0.0
C4423 C 0.63862 0.11944 0.8052 0.0
C4424 C 0.61958 0.13389 0.77316 0.0
C4425 C 0.63286 0.13335 0.73669 0.0
C4426 C 0.63336 0.13311 0.75316 0.0
C4427 C 0.63383 0.13073 0.80012 0.0
C4428 C 0.63377 0.13173 0.78404 0.0
H4429 H 0.64045 0.11438 0.70356 0.0
H4430 H 0.64143 0.11419 0.73063 0.0
H4431 H 0.60803 0.13588 0.74962 0.0
H4432 H 0.62536 0.14805 0.83342 0.0
H4433 H 0.62547 0.14991 0.80704 0.0
C4434 C 0.85235 0.61209 0.7792 0.0
C4435 C 0.86809 0.62205 0.79458 0.0
C4436 C 0.85195 0.61267 0.76385 0.0
C4437 C 0.87431 0.63905 0.74677 0.0
H4438 H 0.85161 0.60042 0.70558 0.0
C4439 C 0.86115 0.6401 0.68071 0.0
C4440 C 0.86499 0.62939 0.66989 0.0
C4441 C 0.86129 0.63902 0.69581 0.0
C4442 C 0.8581 0.61131 0.717 0.0
H4443 H 0.89599 0.64006 0.80579 0.0
H4444 H 0.89529 0.64108 0.77904 0.0
H4445 H 0.85275 0.59872 0.73223 0.0
H4446 H 0.8721 0.6093 0.66608 0.0
H4447 H 0.8725 0.60739 0.69257 0.0
H4448 H 0.87991 0.65162 0.73162 0.0
C4449 C 0.88312 0.63303 0.77888 0.0
C4450 C 0.85858 0.61034 0.73223 0.0
C4451 C 0.88352 0.63244 0.79422 0.0
C4452 C 0.869 0.6176 0.67429 0.0
C4453 C 0.86912 0.61648 0.68937 0.0
C4454 C 0.87378 0.64001 0.73154 0.0
C4455 C 0.86729 0.62323 0.76353 0.0
C4456 C 0.86673 0.6242 0.74731 0.0
C4457 C 0.8653 0.6272 0.70033 0.0
C4458 C 0.86569 0.62616 0.71648 0.0
H4459 H 0.84015 0.6041 0.77906 0.0
H4460 H 0.83947 0.6051 0.75228 0.0
H4461 H 0.8805 0.64996 0.75812 0.0
H4462 H 0.85805 0.64929 0.67747 0.0
H4463 H 0.8581 0.64734 0.70388 0.0
C4464 C 0.19568 0.39219 0.13278 0.0
C4465 C 0.18971 0.38655 0.14362 0.0
C4466 C 0.21134 0.39134 0.13123 0.0
C4467 C 0.25236 0.38445 0.15152 0.0
H4468 H 0.25173 0.37411 0.10672 0.0
C4469 C 0.30457 0.36455 0.13387 0.0
C4470 C 0.31383 0.37373 0.1271 0.0
C4471 C 0.28926 0.36606 0.1357 0.0
C4472 C 0.25207 0.37706 0.11929 0.0
H4473 H 0.19549 0.3762 0.16186 0.0
H4474 H 0.22241 0.37395 0.15865 0.0
H4475 H 0.22559 0.37726 0.11081 0.0
H4476 H 0.31414 0.39102 0.11615 0.0
H4477 H 0.28688 0.39331 0.11882 0.0
H4478 H 0.27866 0.38366 0.15976 0.0
C4479 C 0.21533 0.37934 0.15154 0.0
C4480 C 0.23719 0.37899 0.12171 0.0
C4481 C 0.19985 0.38046 0.15329 0.0
C4482 C 0.30715 0.38389 0.12145 0.0
C4483 C 0.29164 0.38518 0.12297 0.0
C4484 C 0.26709 0.38224 0.14903 0.0
C4485 C 0.22118 0.38462 0.14035 0.0
C4486 C 0.23715 0.38276 0.13787 0.0
C4487 C 0.28278 0.37648 0.13038 0.0
C4488 C 0.26706 0.37856 0.13291 0.0
H4489 H 0.18809 0.3971 0.12536 0.0
H4490 H 0.21566 0.3959 0.12283 0.0
H4491 H 0.253 0.38765 0.16421 0.0
H4492 H 0.30946 0.35652 0.13811 0.0
H4493 H 0.28249 0.35911 0.14126 0.0
C4494 C 0.18829 0.63135 0.86545 0.0
C4495 C 0.18137 0.62583 0.87589 0.0
C4496 C 0.20492 0.6314 0.86572 0.0
C4497 C 0.24653 0.62734 0.8905 0.0
H4498 H 0.25067 0.61714 0.84769 0.0
C4499 C 0.30377 0.61075 0.87966 0.0
C4500 C 0.31377 0.62034 0.87368 0.0
C4501 C 0.28758 0.61146 0.87996 0.0
C4502 C 0.24967 0.62005 0.85972 0.0
H4503 H 0.18638 0.61655 0.89517 0.0
H4504 H 0.21503 0.61583 0.89513 0.0
H4505 H 0.22261 0.61859 0.84855 0.0
H4506 H 0.31459 0.63763 0.86268 0.0
H4507 H 0.28582 0.63848 0.86263 0.0
H4508 H 0.27344 0.62817 0.90141 0.0
C4509 C 0.20797 0.62049 0.88699 0.0
C4510 C 0.23368 0.62102 0.86029 0.0
C4511 C 0.1915 0.62074 0.88694 0.0
C4512 C 0.30705 0.6302 0.8674 0.0
C4513 C 0.29068 0.63067 0.86737 0.0
C4514 C 0.26237 0.62607 0.88984 0.0
C4515 C 0.21481 0.62568 0.87625 0.0
C4516 C 0.23192 0.62475 0.87571 0.0
C4517 C 0.28096 0.62147 0.87386 0.0
C4518 C 0.26407 0.62248 0.87446 0.0
H4519 H 0.18069 0.63545 0.85695 0.0
H4520 H 0.20995 0.63588 0.8576 0.0
H4521 H 0.24586 0.63053 0.90266 0.0
H4522 H 0.30865 0.60291 0.88433 0.0
H4523 H 0.28017 0.60415 0.88486 0.0
C4524 C 0.38889 0.21183 0.89715 0.0
C4525 C 0.3757 0.19711 0.88386 0.0
C4526 C 0.38898 0.22613 0.89633 0.0
C4527 C 0.3716 0.24305 0.86585 0.0
H4528 H 0.38361 0.27851 0.90687 0.0
C4529 C 0.36184 0.29992 0.8651 0.0
C4530 C 0.37594 0.31462 0.87769 0.0
C4531 C 0.36194 0.2856 0.86571 0.0
C4532 C 0.3804 0.26877 0.89533 0.0
H4533 H 0.35235 0.18605 0.85916 0.0
H4534 H 0.3521 0.2109 0.85803 0.0
H4535 H 0.38333 0.25356 0.90825 0.0
H4536 H 0.40146 0.32563 0.90059 0.0
H4537 H 0.40146 0.30067 0.90176 0.0
H4538 H 0.36842 0.25826 0.85293 0.0
C4539 C 0.36259 0.21141 0.86899 0.0
C4540 C 0.38027 0.25445 0.89611 0.0
C4541 C 0.36257 0.19711 0.86976 0.0
C4542 C 0.39018 0.31458 0.89086 0.0
C4543 C 0.39021 0.30026 0.89152 0.0
C4544 C 0.37161 0.25734 0.86506 0.0
C4545 C 0.37582 0.22613 0.88224 0.0
C4546 C 0.3759 0.24139 0.88139 0.0
C4547 C 0.37608 0.2856 0.87897 0.0
C4548 C 0.37604 0.27038 0.87979 0.0
H4549 H 0.3991 0.21234 0.9083 0.0
H4550 H 0.39953 0.2372 0.90669 0.0
H4551 H 0.36848 0.23337 0.8543 0.0
H4552 H 0.3505 0.29946 0.85491 0.0
H4553 H 0.35073 0.27451 0.85597 0.0
C4554 C 0.80606 0.37365 0.87021 0.0
C4555 C 0.81195 0.37913 0.85924 0.0
C4556 C 0.79009 0.37406 0.87134 0.0
C4557 C 0.74791 0.37863 0.84933 0.0
H4558 H 0.74731 0.38914 0.89367 0.0
C4559 C 0.69222 0.39474 0.86436 0.0
C4560 C 0.68388 0.38585 0.87189 0.0
C4561 C 0.70788 0.39396 0.86273 0.0
C4562 C 0.7473 0.38613 0.88121 0.0
H4563 H 0.80581 0.38886 0.84047 0.0
H4564 H 0.77825 0.3903 0.84291 0.0
H4565 H 0.77453 0.38759 0.89071 0.0
H4566 H 0.6854 0.36965 0.88412 0.0
H4567 H 0.71321 0.36862 0.88172 0.0
H4568 H 0.72078 0.37769 0.84005 0.0
C4569 C 0.78567 0.38539 0.85044 0.0
C4570 C 0.76282 0.38513 0.87946 0.0
C4571 C 0.80151 0.38473 0.84913 0.0
C4572 C 0.69167 0.37656 0.87824 0.0
C4573 C 0.70751 0.37599 0.87688 0.0
C4574 C 0.7325 0.37989 0.85116 0.0
C4575 C 0.77983 0.38015 0.86166 0.0
C4576 C 0.76329 0.38128 0.86348 0.0
C4577 C 0.71562 0.38456 0.86896 0.0
C4578 C 0.73205 0.38357 0.86709 0.0
H4579 H 0.8139 0.36913 0.87798 0.0
H4580 H 0.7858 0.36957 0.8798 0.0
H4581 H 0.74763 0.37538 0.83678 0.0
H4582 H 0.68646 0.40211 0.85957 0.0
H4583 H 0.71404 0.40078 0.85673 0.0
C4584 C 0.64152 0.70905 0.88981 0.0
C4585 C 0.62687 0.69479 0.87696 0.0
C4586 C 0.64197 0.7238 0.89027 0.0
C4587 C 0.62368 0.74296 0.86335 0.0
H4588 H 0.63788 0.777 0.9064 0.0
C4589 C 0.6173 0.80187 0.86721 0.0
C4590 C 0.63111 0.81608 0.88087 0.0
C4591 C 0.61678 0.78709 0.86671 0.0
C4592 C 0.63412 0.76771 0.89429 0.0
H4593 H 0.60104 0.685 0.85463 0.0
H4594 H 0.60197 0.71071 0.85534 0.0
H4595 H 0.63704 0.75129 0.90556 0.0
H4596 H 0.65517 0.82575 0.90481 0.0
H4597 H 0.65461 0.80008 0.90366 0.0
H4598 H 0.62096 0.75938 0.85207 0.0
C4599 C 0.61321 0.71045 0.86497 0.0
C4600 C 0.6336 0.75295 0.89382 0.0
C4601 C 0.6127 0.69569 0.86455 0.0
C4602 C 0.64445 0.8151 0.89397 0.0
C4603 C 0.64398 0.80033 0.89343 0.0
C4604 C 0.6243 0.75775 0.86383 0.0
C4605 C 0.62783 0.72468 0.87785 0.0
C4606 C 0.62836 0.74039 0.87834 0.0
C4607 C 0.63011 0.78611 0.87982 0.0
C4608 C 0.62951 0.77034 0.8793 0.0
H4609 H 0.65285 0.70886 0.89941 0.0
H4610 H 0.65357 0.73453 0.90023 0.0
H4611 H 0.61983 0.7336 0.85125 0.0
H4612 H 0.60691 0.80212 0.85678 0.0
H4613 H 0.60576 0.77642 0.85611 0.0
C4614 C 0.80649 0.63686 0.1133 0.0
C4615 C 0.81585 0.63098 0.12391 0.0
C4616 C 0.79025 0.63765 0.11331 0.0
C4617 C 0.75147 0.62002 0.12171 0.0
H4618 H 0.74779 0.6604 0.12991 0.0
C4619 C 0.69062 0.62852 0.13212 0.0
C4620 C 0.6837 0.63792 0.12516 0.0
C4621 C 0.70703 0.628 0.13235 0.0
C4622 C 0.74844 0.64897 0.12734 0.0
H4623 H 0.81556 0.62081 0.14234 0.0
H4624 H 0.78675 0.62175 0.14202 0.0
H4625 H 0.77548 0.6583 0.12865 0.0
H4626 H 0.68843 0.65447 0.11344 0.0
H4627 H 0.71676 0.65309 0.11308 0.0
H4628 H 0.72433 0.61047 0.11985 0.0
C4629 C 0.79209 0.62594 0.1339 0.0
C4630 C 0.76433 0.64781 0.12669 0.0
C4631 C 0.8085 0.62541 0.1341 0.0
C4632 C 0.69354 0.64705 0.11873 0.0
C4633 C 0.70982 0.64635 0.1187 0.0
C4634 C 0.73546 0.6211 0.12208 0.0
C4635 C 0.78296 0.63224 0.12365 0.0
C4636 C 0.76599 0.63335 0.12394 0.0
C4637 C 0.71672 0.63673 0.12542 0.0
C4638 C 0.73377 0.63561 0.12499 0.0
H4639 H 0.81191 0.64104 0.10522 0.0
H4640 H 0.78331 0.64241 0.10518 0.0
H4641 H 0.7524 0.6087 0.11942 0.0
H4642 H 0.68324 0.62152 0.13729 0.0
H4643 H 0.71212 0.62077 0.13801 0.0
C4644 C 0.35509 0.69398 0.10736 0.0
C4645 C 0.36981 0.6942 0.12027 0.0
C4646 C 0.35455 0.70817 0.10671 0.0
C4647 C 0.373 0.75114 0.13305 0.0
H4648 H 0.35883 0.75446 0.08961 0.0
C4649 C 0.38045 0.81099 0.12797 0.0
C4650 C 0.36659 0.81086 0.11433 0.0
C4651 C 0.38072 0.79676 0.12872 0.0
C4652 C 0.36258 0.75369 0.10182 0.0
H4653 H 0.3956 0.70966 0.14258 0.0
H4654 H 0.39454 0.73438 0.14153 0.0
H4655 H 0.35938 0.72969 0.09093 0.0
H4656 H 0.34219 0.7955 0.09068 0.0
H4657 H 0.34236 0.77072 0.09222 0.0
H4658 H 0.37607 0.77508 0.14395 0.0
C4659 C 0.38332 0.7232 0.13199 0.0
C4660 C 0.36292 0.73948 0.10257 0.0
C4661 C 0.38391 0.70901 0.13261 0.0
C4662 C 0.35297 0.79609 0.10147 0.0
C4663 C 0.3532 0.78185 0.10224 0.0
C4664 C 0.37258 0.76533 0.13229 0.0
C4665 C 0.36867 0.72295 0.119 0.0
C4666 C 0.36817 0.73804 0.1182 0.0
C4667 C 0.36709 0.78199 0.11587 0.0
C4668 C 0.3674 0.76682 0.11667 0.0
H4669 H 0.34381 0.68283 0.09783 0.0
H4670 H 0.34293 0.70756 0.09668 0.0
H4671 H 0.37686 0.75036 0.14526 0.0
H4672 H 0.39103 0.82212 0.13823 0.0
H4673 H 0.39175 0.79736 0.13931 0.0
C4674 C 0.62344 0.30357 0.11005 0.0
C4675 C 0.62373 0.3146 0.12422 0.0
C4676 C 0.62343 0.28898 0.10972 0.0
C4677 C 0.61502 0.26152 0.13121 0.0
H4678 H 0.63944 0.24243 0.10755 0.0
C4679 C 0.60823 0.19767 0.12056 0.0
C4680 C 0.62331 0.19417 0.12067 0.0
C4681 C 0.60836 0.21233 0.12102 0.0
C4682 C 0.63275 0.24764 0.11443 0.0
H4683 H 0.6242 0.31869 0.14919 0.0
H4684 H 0.62522 0.29375 0.14901 0.0
H4685 H 0.64029 0.26815 0.10896 0.0
H4686 H 0.65036 0.20359 0.12127 0.0
H4687 H 0.65101 0.22933 0.12307 0.0
H4688 H 0.60828 0.24139 0.13742 0.0
C4689 C 0.62449 0.29616 0.1379 0.0
C4690 C 0.63296 0.26234 0.11498 0.0
C4691 C 0.62422 0.31066 0.13813 0.0
C4692 C 0.63858 0.20585 0.12143 0.0
C4693 C 0.63882 0.22059 0.12215 0.0
C4694 C 0.61505 0.24693 0.13088 0.0
C4695 C 0.624 0.28506 0.12366 0.0
C4696 C 0.62402 0.26947 0.1233 0.0
C4697 C 0.62368 0.22404 0.12187 0.0
C4698 C 0.62384 0.23972 0.12241 0.0
H4699 H 0.62337 0.30621 0.09919 0.0
H4700 H 0.62277 0.28072 0.0984 0.0
H4701 H 0.60774 0.26644 0.13754 0.0
H4702 H 0.5963 0.18914 0.12024 0.0
H4703 H 0.5963 0.21437 0.12052 0.0
C4704 C 0.85378 0.69388 0.60568 0.0
C4705 C 0.86734 0.69298 0.61867 0.0
C4706 C 0.85421 0.70862 0.60613 0.0
C4707 C 0.87441 0.75137 0.63542 0.0
H4708 H 0.86038 0.75728 0.5934 0.0
C4709 C 0.88566 0.81315 0.63402 0.0
C4710 C 0.8712 0.81401 0.62189 0.0
C4711 C 0.8852 0.79842 0.63367 0.0
C4712 C 0.86418 0.75578 0.60523 0.0
H4713 H 0.89189 0.70707 0.64247 0.0
H4714 H 0.89298 0.73269 0.64294 0.0
H4715 H 0.85965 0.73163 0.59272 0.0
H4716 H 0.84476 0.79989 0.59999 0.0
H4717 H 0.84413 0.77427 0.59925 0.0
H4718 H 0.87916 0.77562 0.64792 0.0
C4719 C 0.88181 0.72199 0.63252 0.0
C4720 C 0.86372 0.74105 0.60485 0.0
C4721 C 0.88133 0.70725 0.63212 0.0
C4722 C 0.8563 0.79973 0.60936 0.0
C4723 C 0.85591 0.78501 0.60895 0.0
C4724 C 0.87498 0.76613 0.63581 0.0
C4725 C 0.86826 0.72289 0.61953 0.0
C4726 C 0.86879 0.73862 0.61994 0.0
C4727 C 0.87033 0.78418 0.62111 0.0
C4728 C 0.86984 0.7685 0.62071 0.0
H4729 H 0.84292 0.68319 0.59499 0.0
H4730 H 0.84339 0.7088 0.596 0.0
H4731 H 0.87811 0.74991 0.64727 0.0
H4732 H 0.89751 0.82385 0.64368 0.0
H4733 H 0.89665 0.79819 0.64308 0.0
C4734 C 0.19164 0.87982 0.63349 0.0
C4735 C 0.18503 0.88985 0.62753 0.0
C4736 C 0.20812 0.87952 0.63366 0.0
C4737 C 0.25001 0.90182 0.62994 0.0
H4738 H 0.25384 0.8614 0.61988 0.0
C4739 C 0.30774 0.89041 0.61448 0.0
C4740 C 0.31764 0.88502 0.62533 0.0
C4741 C 0.29136 0.89083 0.61452 0.0
C4742 C 0.25291 0.87274 0.62274 0.0
H4743 H 0.1904 0.90778 0.61758 0.0
H4744 H 0.21875 0.90676 0.61697 0.0
H4745 H 0.22569 0.86279 0.62056 0.0
H4746 H 0.31811 0.87521 0.64414 0.0
H4747 H 0.28899 0.87538 0.64377 0.0
H4748 H 0.27711 0.91153 0.63147 0.0
C4749 C 0.21157 0.89935 0.62191 0.0
C4750 C 0.23688 0.87361 0.62328 0.0
C4751 C 0.19526 0.89985 0.62207 0.0
C4752 C 0.31063 0.87945 0.63572 0.0
C4753 C 0.29407 0.87954 0.6355 0.0
C4754 C 0.2659 0.90086 0.62907 0.0
C4755 C 0.21816 0.8891 0.62761 0.0
C4756 C 0.23524 0.88819 0.62699 0.0
C4757 C 0.28447 0.88546 0.62509 0.0
C4758 C 0.26748 0.88634 0.62555 0.0
H4759 H 0.18397 0.87213 0.63792 0.0
H4760 H 0.21295 0.87179 0.63855 0.0
H4761 H 0.24945 0.9133 0.63316 0.0
H4762 H 0.31289 0.89459 0.60625 0.0
H4763 H 0.28405 0.8953 0.60629 0.0
C4764 C 0.13261 0.30518 0.60944 0.0
C4765 C 0.12245 0.31219 0.61595 0.0
C4766 C 0.13263 0.2909 0.61027 0.0
C4767 C 0.10693 0.25621 0.61694 0.0
H4768 H 0.15132 0.24943 0.62458 0.0
C4769 C 0.11529 0.2031 0.63125 0.0
C4770 C 0.123 0.19493 0.62229 0.0
C4771 C 0.11519 0.21742 0.63061 0.0
C4772 C 0.13877 0.2511 0.62231 0.0
H4773 H 0.10463 0.30985 0.62876 0.0
H4774 H 0.10496 0.28518 0.63057 0.0
H4775 H 0.15129 0.27437 0.62339 0.0
H4776 H 0.13691 0.19552 0.60586 0.0
H4777 H 0.13682 0.22056 0.60481 0.0
H4778 H 0.09457 0.23299 0.61618 0.0
C4779 C 0.11255 0.29043 0.62438 0.0
C4780 C 0.13871 0.26539 0.62156 0.0
C4781 C 0.11238 0.30463 0.6234 0.0
C4782 C 0.13074 0.20147 0.61279 0.0
C4783 C 0.13083 0.21587 0.61231 0.0
C4784 C 0.10705 0.24198 0.61786 0.0
C4785 C 0.12264 0.28333 0.6178 0.0
C4786 C 0.12276 0.26814 0.61879 0.0
C4787 C 0.123 0.22399 0.62116 0.0
C4788 C 0.12295 0.23923 0.62048 0.0
H4789 H 0.14033 0.31062 0.60344 0.0
H4790 H 0.1403 0.2857 0.60476 0.0
H4791 H 0.09428 0.25771 0.61448 0.0
H4792 H 0.10911 0.19831 0.63858 0.0
H4793 H 0.10917 0.22345 0.63766 0.0
C4794 C 0.70325 0.13682 0.65322 0.0
C4795 C 0.68707 0.13288 0.63926 0.0
C4796 C 0.71864 0.13626 0.65082 0.0
C4797 C 0.73176 0.11746 0.61815 0.0
H4798 H 0.78061 0.14998 0.64974 0.0
C4799 C 0.79757 0.10985 0.62028 0.0
C4800 C 0.8123 0.12319 0.6229 0.0
C4801 C 0.78196 0.11127 0.62141 0.0
C4802 C 0.76704 0.14089 0.64072 0.0
H4803 H 0.67391 0.12537 0.61202 0.0
H4804 H 0.70089 0.12448 0.60771 0.0
H4805 H 0.75405 0.1525 0.65345 0.0
H4806 H 0.82261 0.14832 0.62853 0.0
H4807 H 0.79519 0.15086 0.63036 0.0
H4808 H 0.74475 0.10592 0.60533 0.0
C4809 C 0.70173 0.12787 0.62047 0.0
C4810 C 0.75186 0.14224 0.64296 0.0
C4811 C 0.68638 0.12845 0.6229 0.0
C4812 C 0.81127 0.13792 0.62647 0.0
C4813 C 0.79569 0.13936 0.62761 0.0
C4814 C 0.74695 0.1161 0.61593 0.0
C4815 C 0.71799 0.13167 0.63439 0.0
C4816 C 0.73407 0.1305 0.63175 0.0
C4817 C 0.78093 0.12608 0.62524 0.0
C4818 C 0.76475 0.12775 0.62724 0.0
H4819 H 0.70388 0.14013 0.66591 0.0
H4820 H 0.7309 0.13906 0.66175 0.0
H4821 H 0.71823 0.10815 0.6094 0.0
H4822 H 0.79831 0.09844 0.61765 0.0
H4823 H 0.77091 0.10087 0.61973 0.0
C4824 C 0.88576 0.30889 0.37369 0.0
C4825 C 0.87457 0.31475 0.37974 0.0
C4826 C 0.88559 0.29416 0.37301 0.0
C4827 C 0.87511 0.26551 0.39194 0.0
H4828 H 0.87232 0.23539 0.35148 0.0
C4829 C 0.86557 0.20153 0.384 0.0
C4830 C 0.87451 0.19455 0.37559 0.0
C4831 C 0.86538 0.21609 0.38434 0.0
C4832 C 0.87339 0.24372 0.363 0.0
H4833 H 0.8546 0.30982 0.39005 0.0
H4834 H 0.85435 0.28412 0.38894 0.0
H4835 H 0.87265 0.26102 0.35253 0.0
H4836 H 0.89049 0.19747 0.36116 0.0
H4837 H 0.89063 0.22303 0.36212 0.0
H4838 H 0.87626 0.24846 0.40261 0.0
C4839 C 0.86324 0.29092 0.38469 0.0
C4840 C 0.8735 0.25841 0.36355 0.0
C4841 C 0.86326 0.30557 0.38518 0.0
C4842 C 0.8833 0.20246 0.36757 0.0
C4843 C 0.8833 0.21711 0.36808 0.0
C4844 C 0.8752 0.25089 0.39147 0.0
C4845 C 0.87437 0.28504 0.37857 0.0
C4846 C 0.87432 0.26945 0.37801 0.0
C4847 C 0.87431 0.22413 0.37645 0.0
C4848 C 0.87429 0.23976 0.37697 0.0
H4849 H 0.89453 0.31563 0.36929 0.0
H4850 H 0.89442 0.29 0.36835 0.0
H4851 H 0.876 0.27385 0.40335 0.0
H4852 H 0.85846 0.19561 0.3901 0.0
H4853 H 0.858 0.22091 0.39062 0.0
C4854 C 0.80825 0.88137 0.36875 0.0
C4855 C 0.8152 0.87201 0.37577 0.0
C4856 C 0.79193 0.88201 0.36866 0.0
C4857 C 0.7635 0.87812 0.39138 0.0
H4858 H 0.72436 0.87084 0.34976 0.0
C4859 C 0.69247 0.8735 0.38741 0.0
C4860 C 0.68305 0.87922 0.37667 0.0
C4861 C 0.70881 0.87282 0.38755 0.0
C4862 C 0.73526 0.87319 0.36157 0.0
H4863 H 0.81061 0.85567 0.38779 0.0
H4864 H 0.78216 0.85712 0.3881 0.0
H4865 H 0.75245 0.86914 0.34931 0.0
H4866 H 0.68338 0.88937 0.35824 0.0
H4867 H 0.71236 0.8889 0.35896 0.0
H4868 H 0.7467 0.88266 0.40383 0.0
C4869 C 0.78936 0.86396 0.3827 0.0
C4870 C 0.75127 0.8721 0.36125 0.0
C4871 C 0.80553 0.86311 0.38252 0.0
C4872 C 0.69044 0.88478 0.36651 0.0
C4873 C 0.70691 0.88435 0.36682 0.0
C4874 C 0.7476 0.87946 0.39178 0.0
C4875 C 0.78246 0.87344 0.37579 0.0
C4876 C 0.76549 0.87451 0.37613 0.0
C4877 C 0.71617 0.87814 0.37716 0.0
C4878 C 0.73324 0.87696 0.37686 0.0
H4879 H 0.81555 0.88827 0.36344 0.0
H4880 H 0.78689 0.88945 0.36333 0.0
H4881 H 0.77441 0.88021 0.40306 0.0
H4882 H 0.68697 0.86926 0.39542 0.0
H4883 H 0.71541 0.86779 0.39552 0.0
C4884 C 0.14469 0.71305 0.39844 0.0
C4885 C 0.13142 0.69827 0.38532 0.0
C4886 C 0.14445 0.72728 0.39766 0.0
C4887 C 0.12576 0.7439 0.36736 0.0
H4888 H 0.13807 0.77931 0.40857 0.0
C4889 C 0.11426 0.80014 0.36687 0.0
C4890 C 0.12831 0.81495 0.37926 0.0
C4891 C 0.11483 0.78594 0.36749 0.0
C4892 C 0.13477 0.76958 0.39697 0.0
H4893 H 0.10759 0.68703 0.36093 0.0
H4894 H 0.10681 0.71175 0.35986 0.0
H4895 H 0.13855 0.75453 0.40991 0.0
H4896 H 0.1542 0.8263 0.40182 0.0
H4897 H 0.15501 0.80157 0.40302 0.0
H4898 H 0.12174 0.75894 0.35442 0.0
C4899 C 0.1176 0.71237 0.37066 0.0
C4900 C 0.13508 0.75536 0.39774 0.0
C4901 C 0.11789 0.69814 0.3714 0.0
C4902 C 0.14296 0.81516 0.39225 0.0
C4903 C 0.14346 0.80097 0.39293 0.0
C4904 C 0.12534 0.75808 0.36659 0.0
C4905 C 0.13089 0.72714 0.38376 0.0
C4906 C 0.13059 0.74232 0.38295 0.0
C4907 C 0.12939 0.78619 0.38057 0.0
C4908 C 0.12986 0.7711 0.38138 0.0
H4909 H 0.1552 0.71365 0.40945 0.0
H4910 H 0.15506 0.73841 0.40789 0.0
H4911 H 0.12254 0.73424 0.35575 0.0
H4912 H 0.10262 0.79948 0.35683 0.0
H4913 H 0.10366 0.77476 0.3579 0.0
C4914 C 0.30716 0.12297 0.37327 0.0
C4915 C 0.30823 0.12086 0.35775 0.0
C4916 C 0.29167 0.12397 0.37509 0.0
C4917 C 0.25367 0.13426 0.35712 0.0
H4918 H 0.23273 0.11362 0.38193 0.0
C4919 C 0.19943 0.14775 0.37691 0.0
C4920 C 0.18453 0.13455 0.37432 0.0
C4921 C 0.21467 0.14597 0.3752 0.0
C4922 C 0.23837 0.11938 0.3749 0.0
H4923 H 0.29437 0.11798 0.3319 0.0
H4924 H 0.267 0.11958 0.33493 0.0
H4925 H 0.25853 0.10989 0.37753 0.0
H4926 H 0.1735 0.1093 0.36799 0.0
H4927 H 0.20015 0.10607 0.3649 0.0
H4928 H 0.23337 0.14359 0.35428 0.0
C4929 C 0.27813 0.12059 0.34575 0.0
C4930 C 0.25323 0.11735 0.37251 0.0
C4931 C 0.29363 0.11956 0.34395 0.0
C4932 C 0.18502 0.11961 0.37015 0.0
C4933 C 0.20025 0.11781 0.36846 0.0
C4934 C 0.23885 0.13632 0.35955 0.0
C4935 C 0.27707 0.12294 0.36139 0.0
C4936 C 0.26103 0.12478 0.3636 0.0
C4937 C 0.21518 0.13095 0.37085 0.0
C4938 C 0.23106 0.12892 0.36847 0.0
H4939 H 0.31845 0.12411 0.38406 0.0
H4940 H 0.29134 0.12598 0.38734 0.0
H4941 H 0.25954 0.14027 0.35037 0.0
H4942 H 0.19914 0.15935 0.38007 0.0
H4943 H 0.22607 0.15633 0.3773 0.0
C4944 C 0.62971 0.89945 0.7172 0.0
C4945 C 0.63362 0.8885 0.70664 0.0
C4946 C 0.63029 0.89912 0.73269 0.0
C4947 C 0.64904 0.88462 0.7649 0.0
H4948 H 0.61015 0.88876 0.77732 0.0
C4949 C 0.63877 0.87025 0.81984 0.0
C4950 C 0.6342 0.88047 0.83041 0.0
C4951 C 0.63908 0.87173 0.80501 0.0
C4952 C 0.62124 0.88778 0.77415 0.0
H4953 H 0.64164 0.86887 0.70428 0.0
H4954 H 0.64236 0.86813 0.73111 0.0
H4955 H 0.61026 0.89072 0.7511 0.0
H4956 H 0.62625 0.90009 0.83402 0.0
H4957 H 0.6269 0.90284 0.80812 0.0
H4958 H 0.65998 0.8816 0.78789 0.0
C4959 C 0.63896 0.87705 0.7275 0.0
C4960 C 0.62131 0.88891 0.75912 0.0
C4961 C 0.63834 0.87735 0.71202 0.0
C4962 C 0.62982 0.89211 0.82596 0.0
C4963 C 0.6301 0.8936 0.81113 0.0
C4964 C 0.64898 0.88349 0.77992 0.0
C4965 C 0.63487 0.88788 0.73799 0.0
C4966 C 0.63515 0.88725 0.75427 0.0
C4967 C 0.63476 0.88343 0.80048 0.0
C4968 C 0.63502 0.88496 0.78468 0.0
H4969 H 0.62589 0.90812 0.71337 0.0
H4970 H 0.62723 0.90773 0.74056 0.0
H4971 H 0.66007 0.88354 0.76167 0.0
H4972 H 0.64205 0.86112 0.82306 0.0
H4973 H 0.64245 0.86356 0.79696 0.0
C4974 C 0.13246 0.63784 0.79509 0.0
C4975 C 0.12018 0.62419 0.79491 0.0
C4976 C 0.13282 0.63849 0.77999 0.0
C4977 C 0.10522 0.61845 0.73291 0.0
H4978 H 0.151 0.64279 0.73308 0.0
C4979 C 0.1155 0.61681 0.67216 0.0
C4980 C 0.12286 0.63177 0.67187 0.0
C4981 C 0.11501 0.61566 0.68705 0.0
C4982 C 0.13812 0.63601 0.73291 0.0
H4983 H 0.09869 0.60042 0.77845 0.0
H4984 H 0.10009 0.6012 0.75234 0.0
H4985 H 0.1508 0.6407 0.75921 0.0
H4986 H 0.13512 0.65722 0.68659 0.0
H4987 H 0.13492 0.65522 0.71296 0.0
H4988 H 0.09279 0.61336 0.70635 0.0
C4989 C 0.10909 0.61163 0.76412 0.0
C4990 C 0.13794 0.63487 0.74789 0.0
C4991 C 0.10851 0.61109 0.7792 0.0
C4992 C 0.12964 0.64557 0.68665 0.0
C4993 C 0.12951 0.64443 0.70165 0.0
C4994 C 0.10549 0.61935 0.71787 0.0
C4995 C 0.12115 0.62539 0.76427 0.0
C4996 C 0.12145 0.62618 0.74815 0.0
C4997 C 0.12214 0.62946 0.70195 0.0
C4998 C 0.12191 0.62824 0.71778 0.0
H4999 H 0.14193 0.64808 0.80691 0.0
H5000 H 0.14212 0.64939 0.78068 0.0
H5001 H 0.09219 0.61191 0.73262 0.0
H5002 H 0.11014 0.60603 0.66084 0.0
H5003 H 0.10931 0.60399 0.68701 0.0
C5004 C 0.37307 0.13776 0.82349 0.0
C5005 C 0.37787 0.12674 0.82896 0.0
C5006 C 0.37331 0.13841 0.80835 0.0
C5007 C 0.37173 0.11448 0.76777 0.0
H5008 H 0.3909 0.15528 0.76551 0.0
C5009 C 0.3837 0.11991 0.71006 0.0
C5010 C 0.37852 0.13061 0.70411 0.0
C5011 C 0.38386 0.1197 0.72544 0.0
C5012 C 0.38532 0.1438 0.76589 0.0
H5013 H 0.38653 0.10769 0.82319 0.0
H5014 H 0.3872 0.10887 0.79672 0.0
H5015 H 0.39072 0.15436 0.79209 0.0
H5016 H 0.36944 0.14949 0.70969 0.0
H5017 H 0.36974 0.14913 0.7366 0.0
H5018 H 0.36632 0.10391 0.74159 0.0
C5019 C 0.38308 0.11693 0.80397 0.0
C5020 C 0.38522 0.14326 0.78111 0.0
C5021 C 0.38283 0.1163 0.81912 0.0
C5022 C 0.37371 0.14124 0.71402 0.0
C5023 C 0.37388 0.14102 0.72943 0.0
C5024 C 0.37184 0.11501 0.75256 0.0
C5025 C 0.37831 0.12799 0.79841 0.0
C5026 C 0.37844 0.12859 0.78224 0.0
C5027 C 0.37885 0.13019 0.73527 0.0
C5028 C 0.37867 0.12968 0.75145 0.0
H5029 H 0.36911 0.14584 0.83094 0.0
H5030 H 0.36931 0.1469 0.80431 0.0
H5031 H 0.36612 0.10298 0.76812 0.0
H5032 H 0.38779 0.11177 0.70288 0.0
H5033 H 0.38809 0.11141 0.72973 0.0
C5034 C 0.86931 0.3695 0.67492 0.0
C5035 C 0.86453 0.38073 0.66986 0.0
C5036 C 0.86945 0.36868 0.6901 0.0
C5037 C 0.85136 0.37994 0.72168 0.0
H5038 H 0.89119 0.37423 0.75107 0.0
C5039 C 0.86334 0.38799 0.79035 0.0
C5040 C 0.86852 0.3772 0.79612 0.0
C5041 C 0.86248 0.38797 0.77471 0.0
C5042 C 0.87984 0.37563 0.74291 0.0
H5043 H 0.85638 0.4 0.67647 0.0
H5044 H 0.8567 0.3987 0.70318 0.0
H5045 H 0.8904 0.3751 0.72423 0.0
H5046 H 0.87694 0.35795 0.78995 0.0
H5047 H 0.87514 0.35775 0.76248 0.0
H5048 H 0.84084 0.38053 0.74039 0.0
C5049 C 0.86006 0.39035 0.69534 0.0
C5050 C 0.8794 0.37613 0.72753 0.0
C5051 C 0.85994 0.39117 0.68016 0.0
C5052 C 0.87274 0.36633 0.78581 0.0
C5053 C 0.87191 0.36633 0.77016 0.0
C5054 C 0.8518 0.37944 0.73706 0.0
C5055 C 0.86485 0.37911 0.70051 0.0
C5056 C 0.86518 0.37835 0.71676 0.0
C5057 C 0.86679 0.37717 0.76443 0.0
C5058 C 0.86609 0.37734 0.74789 0.0
H5059 H 0.8729 0.36137 0.66708 0.0
H5060 H 0.873 0.35977 0.69361 0.0
H5061 H 0.84006 0.3814 0.71355 0.0
H5062 H 0.85979 0.3964 0.79789 0.0
H5063 H 0.85868 0.39659 0.77077 0.0
C5064 C 0.62192 0.11238 0.2838 0.0
C5065 C 0.61713 0.12292 0.29384 0.0
C5066 C 0.62173 0.11275 0.26844 0.0
C5067 C 0.6028 0.12645 0.23548 0.0
H5068 H 0.64269 0.12311 0.22435 0.0
C5069 C 0.61406 0.14008 0.18048 0.0
C5070 C 0.61898 0.12983 0.17036 0.0
C5071 C 0.61344 0.13884 0.19531 0.0
C5072 C 0.63134 0.12387 0.22718 0.0
H5073 H 0.60804 0.1419 0.2954 0.0
H5074 H 0.60807 0.14275 0.26882 0.0
H5075 H 0.6422 0.1215 0.25059 0.0
H5076 H 0.62723 0.1104 0.16754 0.0
H5077 H 0.62609 0.1081 0.19347 0.0
H5078 H 0.59201 0.12892 0.21211 0.0
C5079 C 0.61181 0.1341 0.27273 0.0
C5080 C 0.63105 0.12294 0.24221 0.0
C5081 C 0.61201 0.13374 0.28808 0.0
C5082 C 0.62337 0.11838 0.17524 0.0
C5083 C 0.62281 0.11715 0.19008 0.0
C5084 C 0.6031 0.1274 0.22046 0.0
C5085 C 0.61672 0.12365 0.26275 0.0
C5086 C 0.61681 0.12427 0.24657 0.0
C5087 C 0.61785 0.12738 0.2003 0.0
C5088 C 0.6174 0.12617 0.21616 0.0
H5089 H 0.62609 0.104 0.28795 0.0
H5090 H 0.62541 0.10442 0.26097 0.0
H5091 H 0.59147 0.12726 0.23832 0.0
H5092 H 0.61079 0.14909 0.17694 0.0
H5093 H 0.60981 0.14704 0.20303 0.0
C5094 C 0.87383 0.63825 0.3241 0.0
C5095 C 0.87829 0.62697 0.32929 0.0
C5096 C 0.87418 0.63907 0.30904 0.0
C5097 C 0.89321 0.62762 0.2783 0.0
H5098 H 0.85446 0.63396 0.24829 0.0
C5099 C 0.88321 0.61983 0.21007 0.0
C5100 C 0.87874 0.63093 0.2044 0.0
C5101 C 0.88353 0.61977 0.22555 0.0
C5102 C 0.8655 0.63237 0.25663 0.0
H5103 H 0.88635 0.60759 0.32307 0.0
H5104 H 0.88686 0.60886 0.29658 0.0
H5105 H 0.85423 0.63295 0.27482 0.0
H5106 H 0.87104 0.65064 0.21054 0.0
H5107 H 0.87183 0.65066 0.2377 0.0
H5108 H 0.90441 0.62695 0.26006 0.0
C5109 C 0.88339 0.61726 0.30421 0.0
C5110 C 0.86537 0.63179 0.27184 0.0
C5111 C 0.88302 0.61646 0.31927 0.0
C5112 C 0.87469 0.64202 0.21462 0.0
C5113 C 0.87495 0.64193 0.23009 0.0
C5114 C 0.89332 0.62818 0.26309 0.0
C5115 C 0.87895 0.62857 0.29891 0.0
C5116 C 0.8792 0.62936 0.28283 0.0
C5117 C 0.87936 0.63078 0.23572 0.0
C5118 C 0.87944 0.63051 0.25206 0.0
H5119 H 0.87013 0.64644 0.33173 0.0
H5120 H 0.8709 0.64803 0.30544 0.0
H5121 H 0.90423 0.62599 0.28662 0.0
H5122 H 0.88659 0.61124 0.20259 0.0
H5123 H 0.8868 0.61093 0.22944 0.0
C5124 C 0.37216 0.89525 0.18457 0.0
C5125 C 0.36523 0.88127 0.16997 0.0
C5126 C 0.37225 0.89446 0.19975 0.0
C5127 C 0.36789 0.86641 0.22102 0.0
H5128 H 0.36225 0.8992 0.25247 0.0
C5129 C 0.35707 0.86358 0.28065 0.0
C5130 C 0.36916 0.87708 0.29596 0.0
C5131 C 0.35644 0.86365 0.26506 0.0
C5132 C 0.3639 0.89001 0.2438 0.0
H5133 H 0.35231 0.85557 0.15938 0.0
H5134 H 0.35156 0.85407 0.18562 0.0
H5135 H 0.3606 0.90004 0.22543 0.0
H5136 H 0.39051 0.90104 0.30671 0.0
H5137 H 0.38875 0.9013 0.27946 0.0
H5138 H 0.37057 0.85617 0.23936 0.0
C5139 C 0.35764 0.86568 0.18568 0.0
C5140 C 0.36308 0.89051 0.22834 0.0
C5141 C 0.35788 0.86649 0.17059 0.0
C5142 C 0.38068 0.89057 0.29523 0.0
C5143 C 0.37979 0.89072 0.27964 0.0
C5144 C 0.36836 0.86576 0.23636 0.0
C5145 C 0.36499 0.87965 0.20053 0.0
C5146 C 0.36525 0.87881 0.21679 0.0
C5147 C 0.36764 0.87729 0.26443 0.0
C5148 C 0.36655 0.87764 0.24794 0.0
H5149 H 0.37775 0.90677 0.18426 0.0
H5150 H 0.37829 0.90548 0.21092 0.0
H5151 H 0.36996 0.85734 0.21265 0.0
H5152 H 0.34778 0.85306 0.28061 0.0
H5153 H 0.34687 0.85318 0.25346 0.0
C5154 C 0.12939 0.39158 0.32564 0.0
C5155 C 0.13401 0.38014 0.33036 0.0
C5156 C 0.12935 0.39271 0.3106 0.0
C5157 C 0.1262 0.36951 0.26896 0.0
H5158 H 0.14498 0.41083 0.26768 0.0
C5159 C 0.11579 0.37642 0.20592 0.0
C5160 C 0.13081 0.38741 0.20563 0.0
C5161 C 0.11625 0.37584 0.22127 0.0
C5162 C 0.1398 0.3992 0.26786 0.0
H5163 H 0.14211 0.3609 0.32337 0.0
H5164 H 0.14229 0.36293 0.29705 0.0
H5165 H 0.14623 0.4092 0.29438 0.0
H5166 H 0.15809 0.40645 0.22128 0.0
H5167 H 0.1589 0.40544 0.2481 0.0
H5168 H 0.12005 0.35951 0.24253 0.0
C5169 C 0.13853 0.37094 0.30483 0.0
C5170 C 0.14033 0.39827 0.28311 0.0
C5171 C 0.13857 0.36983 0.31989 0.0
C5172 C 0.1462 0.39798 0.22109 0.0
C5173 C 0.14667 0.39739 0.23645 0.0
C5174 C 0.12564 0.37045 0.25372 0.0
C5175 C 0.13388 0.38238 0.29999 0.0
C5176 C 0.13352 0.38341 0.28384 0.0
C5177 C 0.13175 0.38624 0.23671 0.0
C5178 C 0.1324 0.3853 0.25297 0.0
H5179 H 0.12573 0.39956 0.33357 0.0
H5180 H 0.12546 0.4015 0.30713 0.0
H5181 H 0.12066 0.35788 0.26904 0.0
H5182 H 0.10358 0.36831 0.19427 0.0
H5183 H 0.10438 0.36731 0.22106 0.0
C5184 C 0.69219 0.62651 0.87961 0.0
C5185 C 0.68517 0.63643 0.87382 0.0
C5186 C 0.70801 0.62571 0.87844 0.0
C5187 C 0.74761 0.64617 0.87073 0.0
H5188 H 0.74939 0.60492 0.85905 0.0
C5189 C 0.80041 0.63189 0.84855 0.0
C5190 C 0.8103 0.62544 0.85793 0.0
C5191 C 0.78514 0.6333 0.85055 0.0
C5192 C 0.74906 0.6165 0.86238 0.0
H5193 H 0.68921 0.65369 0.86286 0.0
H5194 H 0.71644 0.65184 0.86003 0.0
H5195 H 0.72294 0.60765 0.8628 0.0
H5196 H 0.81184 0.61482 0.87615 0.0
H5197 H 0.78469 0.61684 0.87931 0.0
H5198 H 0.77355 0.65479 0.86969 0.0
C5199 C 0.71007 0.64489 0.86582 0.0
C5200 C 0.734 0.61813 0.86466 0.0
C5201 C 0.69441 0.64588 0.86727 0.0
C5202 C 0.80438 0.61989 0.86887 0.0
C5203 C 0.78892 0.62103 0.87064 0.0
C5204 C 0.76252 0.64446 0.86816 0.0
C5205 C 0.71697 0.63466 0.87122 0.0
C5206 C 0.73311 0.633 0.86894 0.0
C5207 C 0.77932 0.62791 0.86165 0.0
C5208 C 0.76338 0.62963 0.86403 0.0
H5209 H 0.68528 0.61924 0.88485 0.0
H5210 H 0.71316 0.61801 0.88313 0.0
H5211 H 0.74758 0.65785 0.8743 0.0
H5212 H 0.80467 0.63601 0.83987 0.0
H5213 H 0.77779 0.63848 0.84336 0.0
C5214 C 0.6907 0.37892 0.13058 0.0
C5215 C 0.68352 0.38836 0.12394 0.0
C5216 C 0.707 0.37849 0.13039 0.0
C5217 C 0.74787 0.40006 0.12501 0.0
H5218 H 0.75305 0.36031 0.11755 0.0
C5219 C 0.80747 0.38962 0.11255 0.0
C5220 C 0.81714 0.38437 0.12374 0.0
C5221 C 0.79079 0.3898 0.11193 0.0
C5222 C 0.75176 0.37148 0.11968 0.0
H5223 H 0.68766 0.40502 0.11227 0.0
H5224 H 0.71578 0.40378 0.11113 0.0
H5225 H 0.72461 0.36143 0.11768 0.0
H5226 H 0.81695 0.37464 0.14253 0.0
H5227 H 0.78739 0.37447 0.14107 0.0
H5228 H 0.77494 0.40989 0.12652 0.0
C5229 C 0.70913 0.39694 0.11684 0.0
C5230 C 0.73555 0.37218 0.11988 0.0
C5231 C 0.69296 0.39756 0.11731 0.0
C5232 C 0.80965 0.37875 0.13384 0.0
C5233 C 0.79282 0.37864 0.13298 0.0
C5234 C 0.76396 0.39926 0.12451 0.0
C5235 C 0.71634 0.38735 0.12333 0.0
C5236 C 0.73345 0.38653 0.12271 0.0
C5237 C 0.78339 0.38436 0.12219 0.0
C5238 C 0.76607 0.385 0.12198 0.0
H5239 H 0.68364 0.37186 0.1359 0.0
H5240 H 0.71233 0.37128 0.13588 0.0
H5241 H 0.74693 0.41137 0.12752 0.0
H5242 H 0.813 0.39384 0.10455 0.0
H5243 H 0.78365 0.39413 0.10341 0.0
C5244 C 0.60814 0.69448 0.10839 0.0
C5245 C 0.62219 0.69444 0.12173 0.0
C5246 C 0.60814 0.70881 0.10774 0.0
C5247 C 0.62653 0.7517 0.13437 0.0
H5248 H 0.61524 0.75566 0.09128 0.0
C5249 C 0.63589 0.812 0.12977 0.0
C5250 C 0.62271 0.81202 0.11572 0.0
C5251 C 0.63583 0.79769 0.13052 0.0
C5252 C 0.61819 0.75471 0.10339 0.0
H5253 H 0.64736 0.70957 0.14477 0.0
H5254 H 0.64723 0.73453 0.1437 0.0
H5255 H 0.61493 0.73068 0.09261 0.0
H5256 H 0.59923 0.79685 0.09133 0.0
H5257 H 0.59879 0.77194 0.09287 0.0
H5258 H 0.62962 0.77565 0.14514 0.0
C5259 C 0.63611 0.72345 0.13384 0.0
C5260 C 0.61803 0.74038 0.10414 0.0
C5261 C 0.63616 0.70912 0.13446 0.0
C5262 C 0.60947 0.79732 0.10244 0.0
C5263 C 0.60937 0.78301 0.10323 0.0
C5264 C 0.62659 0.76601 0.1336 0.0
C5265 C 0.62214 0.72347 0.12044 0.0
C5266 C 0.62222 0.7387 0.11964 0.0
C5267 C 0.62255 0.78299 0.11727 0.0
C5268 C 0.62244 0.76772 0.1181 0.0
H5269 H 0.59696 0.68344 0.09854 0.0
H5270 H 0.59703 0.70841 0.09738 0.0
H5271 H 0.62957 0.75073 0.14647 0.0
H5272 H 0.64616 0.82306 0.14034 0.0
H5273 H 0.64633 0.79817 0.14145 0.0
C5274 C 0.18587 0.62768 0.12257 0.0
C5275 C 0.18662 0.63212 0.13896 0.0
C5276 C 0.20118 0.62704 0.12009 0.0
C5277 C 0.25131 0.64139 0.14246 0.0
H5278 H 0.24414 0.60521 0.10465 0.0
C5279 C 0.31066 0.63742 0.12574 0.0
C5280 C 0.31176 0.62272 0.1221 0.0
C5281 C 0.29504 0.63876 0.1269 0.0
C5282 C 0.24636 0.61534 0.1153 0.0
H5283 H 0.20347 0.6393 0.16557 0.0
H5284 H 0.23042 0.63814 0.16131 0.0
H5285 H 0.21765 0.60734 0.10886 0.0
H5286 H 0.29787 0.59792 0.11673 0.0
H5287 H 0.27041 0.60019 0.11884 0.0
H5288 H 0.28004 0.64919 0.14916 0.0
C5289 C 0.21815 0.63538 0.15041 0.0
C5290 C 0.23119 0.61666 0.11761 0.0
C5291 C 0.20281 0.63599 0.15287 0.0
C5292 C 0.29707 0.60931 0.1194 0.0
C5293 C 0.28143 0.61063 0.12056 0.0
C5294 C 0.26647 0.64009 0.14014 0.0
C5295 C 0.21745 0.6308 0.13397 0.0
C5296 C 0.23352 0.62965 0.13127 0.0
C5297 C 0.28034 0.62541 0.12449 0.0
C5298 C 0.26416 0.62701 0.12659 0.0
H5299 H 0.1734 0.62464 0.11172 0.0
H5300 H 0.2003 0.62366 0.10731 0.0
H5301 H 0.25351 0.65161 0.15301 0.0
H5302 H 0.32197 0.64787 0.12787 0.0
H5303 H 0.2945 0.65025 0.12972 0.0
C5304 C 0.35524 0.19441 0.10594 0.0
C5305 C 0.3685 0.19338 0.11907 0.0
C5306 C 0.35569 0.20919 0.10657 0.0
C5307 C 0.38662 0.25186 0.12582 0.0
H5308 H 0.34146 0.25762 0.11406 0.0
C5309 C 0.3863 0.31372 0.13551 0.0
C5310 C 0.37196 0.31455 0.1232 0.0
C5311 C 0.38592 0.29901 0.13514 0.0
C5312 C 0.35418 0.25619 0.11717 0.0
H5313 H 0.39254 0.20728 0.1433 0.0
H5314 H 0.39345 0.23304 0.14424 0.0
H5315 H 0.34073 0.23189 0.11299 0.0
H5316 H 0.34583 0.30034 0.10095 0.0
H5317 H 0.3455 0.2748 0.09996 0.0
H5318 H 0.40007 0.27606 0.12976 0.0
C5319 C 0.38279 0.22237 0.13338 0.0
C5320 C 0.35375 0.24142 0.11659 0.0
C5321 C 0.38227 0.20757 0.13281 0.0
C5322 C 0.35725 0.30023 0.11052 0.0
C5323 C 0.35693 0.28553 0.11009 0.0
C5324 C 0.38704 0.26661 0.12629 0.0
C5325 C 0.36948 0.22335 0.12028 0.0
C5326 C 0.36996 0.23908 0.12092 0.0
C5327 C 0.37123 0.2847 0.12242 0.0
C5328 C 0.37082 0.26899 0.12197 0.0
H5329 H 0.34463 0.18379 0.09499 0.0
H5330 H 0.34539 0.20955 0.09615 0.0
H5331 H 0.39932 0.25039 0.12901 0.0
H5332 H 0.39797 0.32445 0.14535 0.0
H5333 H 0.39708 0.29889 0.14498 0.0
C5334 C 0.29972 0.35967 0.87094 0.0
C5335 C 0.31458 0.37274 0.8733 0.0
C5336 C 0.28375 0.36117 0.87089 0.0
C5337 C 0.26701 0.39115 0.88565 0.0
H5338 H 0.2192 0.35739 0.85323 0.0
C5339 C 0.1999 0.38815 0.8913 0.0
C5340 C 0.18448 0.38323 0.87616 0.0
C5341 C 0.21606 0.38758 0.89077 0.0
C5342 C 0.23245 0.36698 0.86227 0.0
H5343 H 0.32483 0.3975 0.87738 0.0
H5344 H 0.29679 0.40019 0.8771 0.0
H5345 H 0.24679 0.35489 0.85225 0.0
H5346 H 0.17351 0.37404 0.84873 0.0
H5347 H 0.20185 0.37315 0.84772 0.0
H5348 H 0.25263 0.40333 0.89554 0.0
C5349 C 0.29744 0.38884 0.87549 0.0
C5350 C 0.24825 0.36546 0.86183 0.0
C5351 C 0.31338 0.38731 0.87554 0.0
C5352 C 0.18538 0.37791 0.86052 0.0
C5353 C 0.2015 0.37731 0.85997 0.0
C5354 C 0.2512 0.39266 0.88611 0.0
C5355 C 0.28248 0.3758 0.87324 0.0
C5356 C 0.26569 0.37751 0.87354 0.0
C5357 C 0.21696 0.38198 0.87508 0.0
C5358 C 0.23376 0.38058 0.87444 0.0
H5359 H 0.30057 0.34838 0.86932 0.0
H5360 H 0.27254 0.35098 0.86935 0.0
H5361 H 0.28027 0.40057 0.89495 0.0
H5362 H 0.19929 0.39214 0.90345 0.0
H5363 H 0.22768 0.39109 0.90261 0.0
C5364 C 0.61722 0.19808 0.87256 0.0
C5365 C 0.63155 0.19827 0.88584 0.0
C5366 C 0.6168 0.21227 0.87182 0.0
C5367 C 0.63639 0.25573 0.89836 0.0
H5368 H 0.6178 0.25773 0.8545 0.0
C5369 C 0.62356 0.3098 0.89173 0.0
C5370 C 0.62728 0.31469 0.87948 0.0
C5371 C 0.62412 0.29563 0.89243 0.0
C5372 C 0.62323 0.25747 0.86688 0.0
H5373 H 0.65666 0.21377 0.90885 0.0
H5374 H 0.65633 0.23841 0.90717 0.0
H5375 H 0.61929 0.23329 0.85588 0.0
H5376 H 0.63481 0.30864 0.85855 0.0
H5377 H 0.63614 0.2841 0.85994 0.0
H5378 H 0.64095 0.28008 0.90939 0.0
C5379 C 0.64517 0.22728 0.89748 0.0
C5380 C 0.62383 0.24333 0.86767 0.0
C5381 C 0.64551 0.21308 0.89831 0.0
C5382 C 0.63163 0.3051 0.86798 0.0
C5383 C 0.63235 0.29099 0.86877 0.0
C5384 C 0.63593 0.2699 0.89758 0.0
C5385 C 0.63079 0.22708 0.88424 0.0
C5386 C 0.63035 0.24223 0.88341 0.0
C5387 C 0.62858 0.28604 0.881 0.0
C5388 C 0.62927 0.27096 0.88183 0.0
H5389 H 0.60635 0.18694 0.86257 0.0
H5390 H 0.60535 0.21159 0.86155 0.0
H5391 H 0.64129 0.25533 0.91072 0.0
H5392 H 0.61991 0.31681 0.90062 0.0
H5393 H 0.62079 0.2921 0.90181 0.0
C5394 C 0.38914 0.70925 0.88864 0.0
C5395 C 0.37481 0.69479 0.87581 0.0
C5396 C 0.38895 0.72381 0.88903 0.0
C5397 C 0.36963 0.74245 0.86206 0.0
H5398 H 0.3821 0.77579 0.90498 0.0
C5399 C 0.36127 0.80062 0.86579 0.0
C5400 C 0.37462 0.81488 0.87968 0.0
C5401 C 0.36111 0.78593 0.86525 0.0
C5402 C 0.37882 0.76671 0.89292 0.0
H5403 H 0.34893 0.68445 0.8534 0.0
H5404 H 0.3488 0.70986 0.85395 0.0
H5405 H 0.38234 0.75036 0.90413 0.0
H5406 H 0.3982 0.82471 0.90403 0.0
H5407 H 0.39834 0.79924 0.9028 0.0
H5408 H 0.36638 0.75881 0.85085 0.0
C5409 C 0.36025 0.70988 0.86364 0.0
C5410 C 0.37892 0.75211 0.89244 0.0
C5411 C 0.36036 0.69531 0.86331 0.0
C5412 C 0.38784 0.81403 0.893 0.0
C5413 C 0.38776 0.79936 0.89242 0.0
C5414 C 0.36967 0.75709 0.86255 0.0
C5415 C 0.37451 0.7243 0.87654 0.0
C5416 C 0.37433 0.7398 0.87701 0.0
C5417 C 0.37437 0.78509 0.87855 0.0
C5418 C 0.37426 0.76944 0.87799 0.0
H5419 H 0.40067 0.70936 0.89829 0.0
H5420 H 0.40028 0.73471 0.899 0.0
H5421 H 0.36626 0.73327 0.85001 0.0
H5422 H 0.35099 0.80078 0.85519 0.0
H5423 H 0.35045 0.77521 0.85446 0.0
loop_
_geom_bond_atom_site_label_1
_geom_bond_atom_site_label_2
_geom_bond_distance
_geom_bond_site_symmetry_2
_ccdc_geom_bond_type
C0 C1 1.443 . S
C0 N4 1.376 . S
C0 C38 1.389 . S
C1 C0 1.443 . S
C1 C2 1.340 . S
C1 H41 0.951 . S
C2 C1 1.340 . S
C2 C3 1.439 . S
C2 H42 0.950 . S
C3 C2 1.439 . S
C3 N4 1.374 . S
C3 C37 1.395 . S
N4 C0 1.376 . S
N4 C3 1.374 . S
N4 Co5 2.008 . S
Co5 N4 2.008 . S
Co5 N6 1.995 . S
Co5 N11 2.008 . S
Co5 N16 1.995 . S
Co5 N21 2.282 . S
Co5 N27 2.282 . S
N6 Co5 1.995 . S
N6 C7 1.376 . S
N6 C10 1.383 . S
C7 N6 1.376 . S
C7 C8 1.446 . S
C7 C37 1.391 . S
C8 C7 1.446 . S
C8 C9 1.339 . S
C8 H43 0.949 . S
C9 C8 1.339 . S
C9 C10 1.439 . S
C9 H44 0.950 . S
C10 N6 1.383 . S
C10 C9 1.439 . S
C10 C39 1.392 . S
N11 Co5 2.008 . S
N11 C12 1.376 . S
N11 C15 1.374 . S
C12 N11 1.376 . S
C12 C13 1.443 . S
C12 C39 1.389 . S
C13 C12 1.443 . S
C13 C14 1.340 . S
C13 H45 0.951 . S
C14 C13 1.340 . S
C14 C15 1.439 . S
C14 H46 0.950 . S
C15 N11 1.374 . S
C15 C14 1.439 . S
C15 C40 1.395 . S
N16 Co5 1.995 . S
N16 C17 1.376 . S
N16 C20 1.383 . S
C17 N16 1.376 . S
C17 C18 1.446 . S
C17 C40 1.391 . S
C18 C17 1.446 . S
C18 C19 1.339 . S
C18 H47 0.949 . S
C19 C18 1.339 . S
C19 C20 1.439 . S
C19 H48 0.950 . S
C20 N16 1.383 . S
C20 C19 1.439 . S
C20 C38 1.392 . S
N21 Co5 2.282 . S
N21 C24 1.332 . S
N21 C26 1.332 . S
C22 C23 1.386 . S
C22 C25 1.388 . S
C23 C22 1.386 . S
C23 C24 1.382 . S
C23 H49 0.950 . S
C24 N21 1.332 . S
C24 C23 1.382 . S
C24 H35 0.952 . S
C25 C22 1.388 . S
C25 C26 1.382 . S
C25 H50 0.950 . S
C26 N21 1.332 . S
C26 C25 1.382 . S
C26 H36 0.948 . S
N27 Co5 2.282 . S
N27 C31 1.332 . S
N27 C32 1.332 . S
C28 C29 1.388 . S
C28 C32 1.382 . S
C28 H51 0.950 . S
C29 C28 1.388 . S
C29 C30 1.386 . S
C30 C29 1.386 . S
C30 C31 1.382 . S
C30 H52 0.950 . S
C31 N27 1.332 . S
C31 C30 1.382 . S
C31 H33 0.952 . S
C32 N27 1.332 . S
C32 C28 1.382 . S
C32 H34 0.948 . S
H33 C31 0.952 . S
H34 C32 0.948 . S
H35 C24 0.952 . S
H36 C26 0.948 . S
C37 C3 1.395 . S
C37 C7 1.391 . S
C38 C0 1.389 . S
C38 C20 1.392 . S
C39 C10 1.392 . S
C39 C12 1.389 . S
C40 C15 1.395 . S
C40 C17 1.391 . S
H41 C1 0.951 . S
H42 C2 0.950 . S
H43 C8 0.949 . S
H44 C9 0.950 . S
H45 C13 0.951 . S
H46 C14 0.950 . S
H47 C18 0.949 . S
H48 C19 0.950 . S
H49 C23 0.950 . S
H50 C25 0.950 . S
H51 C28 0.950 . S
H52 C30 0.950 . S
C53 C54 1.443 . S
C53 N57 1.376 . S
C53 C91 1.389 . S
C54 C53 1.443 . S
C54 C55 1.340 . S
C54 H94 0.951 . S
C55 C54 1.340 . S
C55 C56 1.439 . S
C55 H95 0.950 . S
C56 C55 1.439 . S
C56 N57 1.374 . S
C56 C90 1.395 . S
N57 C53 1.376 . S
N57 C56 1.374 . S
N57 Co58 2.008 . S
Co58 N57 2.008 . S
Co58 N59 1.995 . S
Co58 N64 2.008 . S
Co58 N69 1.995 . S
Co58 N74 2.282 . S
Co58 N80 2.282 . S
N59 Co58 1.995 . S
N59 C60 1.376 . S
N59 C63 1.383 . S
C60 N59 1.376 . S
C60 C61 1.446 . S
C60 C90 1.391 . S
C61 C60 1.446 . S
C61 C62 1.339 . S
C61 H96 0.949 . S
C62 C61 1.339 . S
C62 C63 1.439 . S
C62 H97 0.950 . S
C63 N59 1.383 . S
C63 C62 1.439 . S
C63 C92 1.392 . S
N64 Co58 2.008 . S
N64 C65 1.376 . S
N64 C68 1.374 . S
C65 N64 1.376 . S
C65 C66 1.443 . S
C65 C92 1.389 . S
C66 C65 1.443 . S
C66 C67 1.340 . S
C66 H98 0.951 . S
C67 C66 1.340 . S
C67 C68 1.439 . S
C67 H99 0.950 . S
C68 N64 1.374 . S
C68 C67 1.439 . S
C68 C93 1.395 . S
N69 Co58 1.995 . S
N69 C70 1.376 . S
N69 C73 1.383 . S
C70 N69 1.376 . S
C70 C71 1.446 . S
C70 C93 1.391 . S
C71 C70 1.446 . S
C71 C72 1.339 . S
C71 H100 0.949 . S
C72 C71 1.339 . S
C72 C73 1.439 . S
C72 H101 0.950 . S
C73 N69 1.383 . S
C73 C72 1.439 . S
C73 C91 1.392 . S
N74 Co58 2.282 . S
N74 C77 1.332 . S
N74 C79 1.332 . S
C75 C76 1.386 . S
C75 C78 1.388 . S
C76 C75 1.386 . S
C76 C77 1.382 . S
C76 H102 0.950 . S
C77 N74 1.332 . S
C77 C76 1.382 . S
C77 H88 0.952 . S
C78 C75 1.388 . S
C78 C79 1.382 . S
C78 H103 0.950 . S
C79 N74 1.332 . S
C79 C78 1.382 . S
C79 H89 0.948 . S
N80 Co58 2.282 . S
N80 C84 1.332 . S
N80 C85 1.332 . S
C81 C82 1.388 . S
C81 C85 1.382 . S
C81 H104 0.950 . S
C82 C81 1.388 . S
C82 C83 1.386 . S
C83 C82 1.386 . S
C83 C84 1.382 . S
C83 H105 0.950 . S
C84 N80 1.332 . S
C84 C83 1.382 . S
C84 H86 0.952 . S
C85 N80 1.332 . S
C85 C81 1.382 . S
C85 H87 0.948 . S
H86 C84 0.952 . S
H87 C85 0.948 . S
H88 C77 0.952 . S
H89 C79 0.948 . S
C90 C56 1.395 . S
C90 C60 1.391 . S
C91 C53 1.389 . S
C91 C73 1.392 . S
C92 C63 1.392 . S
C92 C65 1.389 . S
C93 C68 1.395 . S
C93 C70 1.391 . S
H94 C54 0.951 . S
H95 C55 0.950 . S
H96 C61 0.949 . S
H97 C62 0.950 . S
H98 C66 0.951 . S
H99 C67 0.950 . S
H100 C71 0.949 . S
H101 C72 0.950 . S
H102 C76 0.950 . S
H103 C78 0.950 . S
H104 C81 0.950 . S
H105 C83 0.950 . S
C106 C107 1.443 . S
C106 N110 1.376 . S
C106 C144 1.389 . S
C107 C106 1.443 . S
C107 C108 1.340 . S
C107 H147 0.951 . S
C108 C107 1.340 . S
C108 C109 1.439 . S
C108 H148 0.950 . S
C109 C108 1.439 . S
C109 N110 1.374 . S
C109 C143 1.395 . S
N110 C106 1.376 . S
N110 C109 1.374 . S
N110 Co111 2.008 . S
Co111 N110 2.008 . S
Co111 N112 1.995 . S
Co111 N117 2.008 . S
Co111 N122 1.995 . S
Co111 N127 2.282 . S
Co111 N133 2.282 . S
N112 Co111 1.995 . S
N112 C113 1.376 . S
N112 C116 1.383 . S
C113 N112 1.376 . S
C113 C114 1.446 . S
C113 C143 1.391 . S
C114 C113 1.446 . S
C114 C115 1.339 . S
C114 H149 0.949 . S
C115 C114 1.339 . S
C115 C116 1.439 . S
C115 H150 0.950 . S
C116 N112 1.383 . S
C116 C115 1.439 . S
C116 C145 1.392 . S
N117 Co111 2.008 . S
N117 C118 1.376 . S
N117 C121 1.374 . S
C118 N117 1.376 . S
C118 C119 1.443 . S
C118 C145 1.389 . S
C119 C118 1.443 . S
C119 C120 1.340 . S
C119 H151 0.951 . S
C120 C119 1.340 . S
C120 C121 1.439 . S
C120 H152 0.950 . S
C121 N117 1.374 . S
C121 C120 1.439 . S
C121 C146 1.395 . S
N122 Co111 1.995 . S
N122 C123 1.376 . S
N122 C126 1.383 . S
C123 N122 1.376 . S
C123 C124 1.446 . S
C123 C146 1.391 . S
C124 C123 1.446 . S
C124 C125 1.339 . S
C124 H153 0.949 . S
C125 C124 1.339 . S
C125 C126 1.439 . S
C125 H154 0.950 . S
C126 N122 1.383 . S
C126 C125 1.439 . S
C126 C144 1.392 . S
N127 Co111 2.282 . S
N127 C130 1.332 . S
N127 C132 1.332 . S
C128 C129 1.386 . S
C128 C131 1.388 . S
C129 C128 1.386 . S
C129 C130 1.382 . S
C129 H155 0.950 . S
C130 N127 1.332 . S
C130 C129 1.382 . S
C130 H141 0.952 . S
C131 C128 1.388 . S
C131 C132 1.382 . S
C131 H156 0.950 . S
C132 N127 1.332 . S
C132 C131 1.382 . S
C132 H142 0.948 . S
N133 Co111 2.282 . S
N133 C137 1.332 . S
N133 C138 1.332 . S
C134 C135 1.388 . S
C134 C138 1.382 . S
C134 H157 0.950 . S
C135 C134 1.388 . S
C135 C136 1.386 . S
C136 C135 1.386 . S
C136 C137 1.382 . S
C136 H158 0.950 . S
C137 N133 1.332 . S
C137 C136 1.382 . S
C137 H139 0.952 . S
C138 N133 1.332 . S
C138 C134 1.382 . S
C138 H140 0.948 . S
H139 C137 0.952 . S
H140 C138 0.948 . S
H141 C130 0.952 . S
H142 C132 0.948 . S
C143 C109 1.395 . S
C143 C113 1.391 . S
C144 C106 1.389 . S
C144 C126 1.392 . S
C145 C116 1.392 . S
C145 C118 1.389 . S
C146 C121 1.395 . S
C146 C123 1.391 . S
H147 C107 0.951 . S
H148 C108 0.950 . S
H149 C114 0.949 . S
H150 C115 0.950 . S
H151 C119 0.951 . S
H152 C120 0.950 . S
H153 C124 0.949 . S
H154 C125 0.950 . S
H155 C129 0.950 . S
H156 C131 0.950 . S
H157 C134 0.950 . S
H158 C136 0.950 . S
C159 C160 1.443 . S
C159 N163 1.376 . S
C159 C197 1.389 . S
C160 C159 1.443 . S
C160 C161 1.340 . S
C160 H200 0.951 . S
C161 C160 1.340 . S
C161 C162 1.439 . S
C161 H201 0.950 . S
C162 C161 1.439 . S
C162 N163 1.374 . S
C162 C196 1.395 . S
N163 C159 1.376 . S
N163 C162 1.374 . S
N163 Co164 2.008 . S
Co164 N163 2.008 . S
Co164 N165 1.995 . S
Co164 N170 2.008 . S
Co164 N175 1.995 . S
Co164 N180 2.282 . S
Co164 N186 2.282 . S
N165 Co164 1.995 . S
N165 C166 1.376 . S
N165 C169 1.383 . S
C166 N165 1.376 . S
C166 C167 1.446 . S
C166 C196 1.391 . S
C167 C166 1.446 . S
C167 C168 1.339 . S
C167 H202 0.949 . S
C168 C167 1.339 . S
C168 C169 1.439 . S
C168 H203 0.950 . S
C169 N165 1.383 . S
C169 C168 1.439 . S
C169 C198 1.392 . S
N170 Co164 2.008 . S
N170 C171 1.376 . S
N170 C174 1.374 . S
C171 N170 1.376 . S
C171 C172 1.443 . S
C171 C198 1.389 . S
C172 C171 1.443 . S
C172 C173 1.340 . S
C172 H204 0.951 . S
C173 C172 1.340 . S
C173 C174 1.439 . S
C173 H205 0.950 . S
C174 N170 1.374 . S
C174 C173 1.439 . S
C174 C199 1.395 . S
N175 Co164 1.995 . S
N175 C176 1.376 . S
N175 C179 1.383 . S
C176 N175 1.376 . S
C176 C177 1.446 . S
C176 C199 1.391 . S
C177 C176 1.446 . S
C177 C178 1.339 . S
C177 H206 0.949 . S
C178 C177 1.339 . S
C178 C179 1.439 . S
C178 H207 0.950 . S
C179 N175 1.383 . S
C179 C178 1.439 . S
C179 C197 1.392 . S
N180 Co164 2.282 . S
N180 C183 1.332 . S
N180 C185 1.332 . S
C181 C182 1.386 . S
C181 C184 1.388 . S
C182 C181 1.386 . S
C182 C183 1.382 . S
C182 H208 0.950 . S
C183 N180 1.332 . S
C183 C182 1.382 . S
C183 H194 0.952 . S
C184 C181 1.388 . S
C184 C185 1.382 . S
C184 H209 0.950 . S
C185 N180 1.332 . S
C185 C184 1.382 . S
C185 H195 0.948 . S
N186 Co164 2.282 . S
N186 C190 1.332 . S
N186 C191 1.332 . S
C187 C188 1.388 . S
C187 C191 1.382 . S
C187 H210 0.950 . S
C188 C187 1.388 . S
C188 C189 1.386 . S
C189 C188 1.386 . S
C189 C190 1.382 . S
C189 H211 0.950 . S
C190 N186 1.332 . S
C190 C189 1.382 . S
C190 H192 0.952 . S
C191 N186 1.332 . S
C191 C187 1.382 . S
C191 H193 0.948 . S
H192 C190 0.952 . S
H193 C191 0.948 . S
H194 C183 0.952 . S
H195 C185 0.948 . S
C196 C162 1.395 . S
C196 C166 1.391 . S
C197 C159 1.389 . S
C197 C179 1.392 . S
C198 C169 1.392 . S
C198 C171 1.389 . S
C199 C174 1.395 . S
C199 C176 1.391 . S
H200 C160 0.951 . S
H201 C161 0.950 . S
H202 C167 0.949 . S
H203 C168 0.950 . S
H204 C172 0.951 . S
H205 C173 0.950 . S
H206 C177 0.949 . S
H207 C178 0.950 . S
H208 C182 0.950 . S
H209 C184 0.950 . S
H210 C187 0.950 . S
H211 C189 0.950 . S
C212 C213 1.443 . S
C212 N216 1.376 . S
C212 C250 1.389 . S
C213 C212 1.443 . S
C213 C214 1.340 . S
C213 H253 0.951 . S
C214 C213 1.340 . S
C214 C215 1.439 . S
C214 H254 0.950 . S
C215 C214 1.439 . S
C215 N216 1.374 . S
C215 C249 1.395 . S
N216 C212 1.376 . S
N216 C215 1.374 . S
N216 Co217 2.008 . S
Co217 N216 2.008 . S
Co217 N218 1.995 . S
Co217 N223 2.008 . S
Co217 N228 1.995 . S
Co217 N233 2.282 . S
Co217 N239 2.282 . S
N218 Co217 1.995 . S
N218 C219 1.376 . S
N218 C222 1.383 . S
C219 N218 1.376 . S
C219 C220 1.446 . S
C219 C249 1.391 . S
C220 C219 1.446 . S
C220 C221 1.339 . S
C220 H255 0.949 . S
C221 C220 1.339 . S
C221 C222 1.439 . S
C221 H256 0.950 . S
C222 N218 1.383 . S
C222 C221 1.439 . S
C222 C251 1.392 . S
N223 Co217 2.008 . S
N223 C224 1.376 . S
N223 C227 1.374 . S
C224 N223 1.376 . S
C224 C225 1.443 . S
C224 C251 1.389 . S
C225 C224 1.443 . S
C225 C226 1.340 . S
C225 H257 0.951 . S
C226 C225 1.340 . S
C226 C227 1.439 . S
C226 H258 0.950 . S
C227 N223 1.374 . S
C227 C226 1.439 . S
C227 C252 1.395 . S
N228 Co217 1.995 . S
N228 C229 1.376 . S
N228 C232 1.383 . S
C229 N228 1.376 . S
C229 C230 1.446 . S
C229 C252 1.391 . S
C230 C229 1.446 . S
C230 C231 1.339 . S
C230 H259 0.949 . S
C231 C230 1.339 . S
C231 C232 1.439 . S
C231 H260 0.950 . S
C232 N228 1.383 . S
C232 C231 1.439 . S
C232 C250 1.392 . S
N233 Co217 2.282 . S
N233 C236 1.332 . S
N233 C238 1.332 . S
C234 C235 1.386 . S
C234 C237 1.388 . S
C235 C234 1.386 . S
C235 C236 1.382 . S
C235 H261 0.950 . S
C236 N233 1.332 . S
C236 C235 1.382 . S
C236 H247 0.952 . S
C237 C234 1.388 . S
C237 C238 1.382 . S
C237 H262 0.950 . S
C238 N233 1.332 . S
C238 C237 1.382 . S
C238 H248 0.948 . S
N239 Co217 2.282 . S
N239 C243 1.332 . S
N239 C244 1.332 . S
C240 C241 1.388 . S
C240 C244 1.382 . S
C240 H263 0.950 . S
C241 C240 1.388 . S
C241 C242 1.386 . S
C242 C241 1.386 . S
C242 C243 1.382 . S
C242 H264 0.950 . S
C243 N239 1.332 . S
C243 C242 1.382 . S
C243 H245 0.952 . S
C244 N239 1.332 . S
C244 C240 1.382 . S
C244 H246 0.948 . S
H245 C243 0.952 . S
H246 C244 0.948 . S
H247 C236 0.952 . S
H248 C238 0.948 . S
C249 C215 1.395 . S
C249 C219 1.391 . S
C250 C212 1.389 . S
C250 C232 1.392 . S
C251 C222 1.392 . S
C251 C224 1.389 . S
C252 C227 1.395 . S
C252 C229 1.391 . S
H253 C213 0.951 . S
H254 C214 0.950 . S
H255 C220 0.949 . S
H256 C221 0.950 . S
H257 C225 0.951 . S
H258 C226 0.950 . S
H259 C230 0.949 . S
H260 C231 0.950 . S
H261 C235 0.950 . S
H262 C237 0.950 . S
H263 C240 0.950 . S
H264 C242 0.950 . S
C265 C266 1.443 . S
C265 N269 1.376 . S
C265 C303 1.389 . S
C266 C265 1.443 . S
C266 C267 1.340 . S
C266 H306 0.951 . S
C267 C266 1.340 . S
C267 C268 1.439 . S
C267 H307 0.950 . S
C268 C267 1.439 . S
C268 N269 1.374 . S
C268 C302 1.395 . S
N269 C265 1.376 . S
N269 C268 1.374 . S
N269 Co270 2.008 . S
Co270 N269 2.008 . S
Co270 N271 1.995 . S
Co270 N276 2.008 . S
Co270 N281 1.995 . S
Co270 N286 2.282 . S
Co270 N292 2.282 . S
N271 Co270 1.995 . S
N271 C272 1.376 . S
N271 C275 1.383 . S
C272 N271 1.376 . S
C272 C273 1.446 . S
C272 C302 1.391 . S
C273 C272 1.446 . S
C273 C274 1.339 . S
C273 H308 0.949 . S
C274 C273 1.339 . S
C274 C275 1.439 . S
C274 H309 0.950 . S
C275 N271 1.383 . S
C275 C274 1.439 . S
C275 C304 1.392 . S
N276 Co270 2.008 . S
N276 C277 1.376 . S
N276 C280 1.374 . S
C277 N276 1.376 . S
C277 C278 1.443 . S
C277 C304 1.389 . S
C278 C277 1.443 . S
C278 C279 1.340 . S
C278 H310 0.951 . S
C279 C278 1.340 . S
C279 C280 1.439 . S
C279 H311 0.950 . S
C280 N276 1.374 . S
C280 C279 1.439 . S
C280 C305 1.395 . S
N281 Co270 1.995 . S
N281 C282 1.376 . S
N281 C285 1.383 . S
C282 N281 1.376 . S
C282 C283 1.446 . S
C282 C305 1.391 . S
C283 C282 1.446 . S
C283 C284 1.339 . S
C283 H312 0.949 . S
C284 C283 1.339 . S
C284 C285 1.439 . S
C284 H313 0.950 . S
C285 N281 1.383 . S
C285 C284 1.439 . S
C285 C303 1.392 . S
N286 Co270 2.282 . S
N286 C289 1.332 . S
N286 C291 1.332 . S
C287 C288 1.386 . S
C287 C290 1.388 . S
C288 C287 1.386 . S
C288 C289 1.382 . S
C288 H314 0.950 . S
C289 N286 1.332 . S
C289 C288 1.382 . S
C289 H300 0.952 . S
C290 C287 1.388 . S
C290 C291 1.382 . S
C290 H315 0.950 . S
C291 N286 1.332 . S
C291 C290 1.382 . S
C291 H301 0.948 . S
N292 Co270 2.282 . S
N292 C296 1.332 . S
N292 C297 1.332 . S
C293 C294 1.388 . S
C293 C297 1.382 . S
C293 H316 0.950 . S
C294 C293 1.388 . S
C294 C295 1.386 . S
C295 C294 1.386 . S
C295 C296 1.382 . S
C295 H317 0.950 . S
C296 N292 1.332 . S
C296 C295 1.382 . S
C296 H298 0.952 . S
C297 N292 1.332 . S
C297 C293 1.382 . S
C297 H299 0.948 . S
H298 C296 0.952 . S
H299 C297 0.948 . S
H300 C289 0.952 . S
H301 C291 0.948 . S
C302 C268 1.395 . S
C302 C272 1.391 . S
C303 C265 1.389 . S
C303 C285 1.392 . S
C304 C275 1.392 . S
C304 C277 1.389 . S
C305 C280 1.395 . S
C305 C282 1.391 . S
H306 C266 0.951 . S
H307 C267 0.950 . S
H308 C273 0.949 . S
H309 C274 0.950 . S
H310 C278 0.951 . S
H311 C279 0.950 . S
H312 C283 0.949 . S
H313 C284 0.950 . S
H314 C288 0.950 . S
H315 C290 0.950 . S
H316 C293 0.950 . S
H317 C295 0.950 . S
C318 C319 1.443 . S
C318 N322 1.376 . S
C318 C356 1.389 . S
C319 C318 1.443 . S
C319 C320 1.340 . S
C319 H359 0.951 . S
C320 C319 1.340 . S
C320 C321 1.439 . S
C320 H360 0.950 . S
C321 C320 1.439 . S
C321 N322 1.374 . S
C321 C355 1.395 . S
N322 C318 1.376 . S
N322 C321 1.374 . S
N322 Co323 2.008 . S
Co323 N322 2.008 . S
Co323 N324 1.995 . S
Co323 N329 2.008 . S
Co323 N334 1.995 . S
Co323 N339 2.282 . S
Co323 N345 2.282 . S
N324 Co323 1.995 . S
N324 C325 1.376 . S
N324 C328 1.383 . S
C325 N324 1.376 . S
C325 C326 1.446 . S
C325 C355 1.391 . S
C326 C325 1.446 . S
C326 C327 1.339 . S
C326 H361 0.949 . S
C327 C326 1.339 . S
C327 C328 1.439 . S
C327 H362 0.950 . S
C328 N324 1.383 . S
C328 C327 1.439 . S
C328 C357 1.392 . S
N329 Co323 2.008 . S
N329 C330 1.376 . S
N329 C333 1.374 . S
C330 N329 1.376 . S
C330 C331 1.443 . S
C330 C357 1.389 . S
C331 C330 1.443 . S
C331 C332 1.340 . S
C331 H363 0.951 . S
C332 C331 1.340 . S
C332 C333 1.439 . S
C332 H364 0.950 . S
C333 N329 1.374 . S
C333 C332 1.439 . S
C333 C358 1.395 . S
N334 Co323 1.995 . S
N334 C335 1.376 . S
N334 C338 1.383 . S
C335 N334 1.376 . S
C335 C336 1.446 . S
C335 C358 1.391 . S
C336 C335 1.446 . S
C336 C337 1.339 . S
C336 H365 0.949 . S
C337 C336 1.339 . S
C337 C338 1.439 . S
C337 H366 0.950 . S
C338 N334 1.383 . S
C338 C337 1.439 . S
C338 C356 1.392 . S
N339 Co323 2.282 . S
N339 C342 1.332 . S
N339 C344 1.332 . S
C340 C341 1.386 . S
C340 C343 1.388 . S
C341 C340 1.386 . S
C341 C342 1.382 . S
C341 H367 0.950 . S
C342 N339 1.332 . S
C342 C341 1.382 . S
C342 H353 0.952 . S
C343 C340 1.388 . S
C343 C344 1.382 . S
C343 H368 0.950 . S
C344 N339 1.332 . S
C344 C343 1.382 . S
C344 H354 0.948 . S
N345 Co323 2.282 . S
N345 C349 1.332 . S
N345 C350 1.332 . S
C346 C347 1.388 . S
C346 C350 1.382 . S
C346 H369 0.950 . S
C347 C346 1.388 . S
C347 C348 1.386 . S
C348 C347 1.386 . S
C348 C349 1.382 . S
C348 H370 0.950 . S
C349 N345 1.332 . S
C349 C348 1.382 . S
C349 H351 0.952 . S
C350 N345 1.332 . S
C350 C346 1.382 . S
C350 H352 0.948 . S
H351 C349 0.952 . S
H352 C350 0.948 . S
H353 C342 0.952 . S
H354 C344 0.948 . S
C355 C321 1.395 . S
C355 C325 1.391 . S
C356 C318 1.389 . S
C356 C338 1.392 . S
C357 C328 1.392 . S
C357 C330 1.389 . S
C358 C333 1.395 . S
C358 C335 1.391 . S
H359 C319 0.951 . S
H360 C320 0.950 . S
H361 C326 0.949 . S
H362 C327 0.950 . S
H363 C331 0.951 . S
H364 C332 0.950 . S
H365 C336 0.949 . S
H366 C337 0.950 . S
H367 C341 0.950 . S
H368 C343 0.950 . S
H369 C346 0.950 . S
H370 C348 0.950 . S
C371 C372 1.443 . S
C371 N375 1.376 . S
C371 C409 1.389 . S
C372 C371 1.443 . S
C372 C373 1.340 . S
C372 H412 0.951 . S
C373 C372 1.340 . S
C373 C374 1.439 . S
C373 H413 0.950 . S
C374 C373 1.439 . S
C374 N375 1.374 . S
C374 C408 1.395 . S
N375 C371 1.376 . S
N375 C374 1.374 . S
N375 Co376 2.008 . S
Co376 N375 2.008 . S
Co376 N377 1.995 . S
Co376 N382 2.008 . S
Co376 N387 1.995 . S
Co376 N392 2.282 . S
Co376 N398 2.282 . S
N377 Co376 1.995 . S
N377 C378 1.376 . S
N377 C381 1.383 . S
C378 N377 1.376 . S
C378 C379 1.446 . S
C378 C408 1.391 . S
C379 C378 1.446 . S
C379 C380 1.339 . S
C379 H414 0.949 . S
C380 C379 1.339 . S
C380 C381 1.439 . S
C380 H415 0.950 . S
C381 N377 1.383 . S
C381 C380 1.439 . S
C381 C410 1.392 . S
N382 Co376 2.008 . S
N382 C383 1.376 . S
N382 C386 1.374 . S
C383 N382 1.376 . S
C383 C384 1.443 . S
C383 C410 1.389 . S
C384 C383 1.443 . S
C384 C385 1.340 . S
C384 H416 0.951 . S
C385 C384 1.340 . S
C385 C386 1.439 . S
C385 H417 0.950 . S
C386 N382 1.374 . S
C386 C385 1.439 . S
C386 C411 1.395 . S
N387 Co376 1.995 . S
N387 C388 1.376 . S
N387 C391 1.383 . S
C388 N387 1.376 . S
C388 C389 1.446 . S
C388 C411 1.391 . S
C389 C388 1.446 . S
C389 C390 1.339 . S
C389 H418 0.949 . S
C390 C389 1.339 . S
C390 C391 1.439 . S
C390 H419 0.950 . S
C391 N387 1.383 . S
C391 C390 1.439 . S
C391 C409 1.392 . S
N392 Co376 2.282 . S
N392 C395 1.332 . S
N392 C397 1.332 . S
C393 C394 1.386 . S
C393 C396 1.388 . S
C394 C393 1.386 . S
C394 C395 1.382 . S
C394 H420 0.950 . S
C395 N392 1.332 . S
C395 C394 1.382 . S
C395 H406 0.952 . S
C396 C393 1.388 . S
C396 C397 1.382 . S
C396 H421 0.950 . S
C397 N392 1.332 . S
C397 C396 1.382 . S
C397 H407 0.948 . S
N398 Co376 2.282 . S
N398 C402 1.332 . S
N398 C403 1.332 . S
C399 C400 1.388 . S
C399 C403 1.382 . S
C399 H422 0.950 . S
C400 C399 1.388 . S
C400 C401 1.386 . S
C401 C400 1.386 . S
C401 C402 1.382 . S
C401 H423 0.950 . S
C402 N398 1.332 . S
C402 C401 1.382 . S
C402 H404 0.952 . S
C403 N398 1.332 . S
C403 C399 1.382 . S
C403 H405 0.948 . S
H404 C402 0.952 . S
H405 C403 0.948 . S
H406 C395 0.952 . S
H407 C397 0.948 . S
C408 C374 1.395 . S
C408 C378 1.391 . S
C409 C371 1.389 . S
C409 C391 1.392 . S
C410 C381 1.392 . S
C410 C383 1.389 . S
C411 C386 1.395 . S
C411 C388 1.391 . S
H412 C372 0.951 . S
H413 C373 0.950 . S
H414 C379 0.949 . S
H415 C380 0.950 . S
H416 C384 0.951 . S
H417 C385 0.950 . S
H418 C389 0.949 . S
H419 C390 0.950 . S
H420 C394 0.950 . S
H421 C396 0.950 . S
H422 C399 0.950 . S
H423 C401 0.950 . S
C424 C425 1.443 . S
C424 N428 1.376 . S
C424 C462 1.389 . S
C425 C424 1.443 . S
C425 C426 1.340 . S
C425 H465 0.951 . S
C426 C425 1.340 . S
C426 C427 1.439 . S
C426 H466 0.950 . S
C427 C426 1.439 . S
C427 N428 1.374 . S
C427 C461 1.395 . S
N428 C424 1.376 . S
N428 C427 1.374 . S
N428 Co429 2.008 . S
Co429 N428 2.008 . S
Co429 N430 1.995 . S
Co429 N435 2.008 . S
Co429 N440 1.995 . S
Co429 N445 2.282 . S
Co429 N451 2.282 . S
N430 Co429 1.995 . S
N430 C431 1.376 . S
N430 C434 1.383 . S
C431 N430 1.376 . S
C431 C432 1.446 . S
C431 C461 1.391 . S
C432 C431 1.446 . S
C432 C433 1.339 . S
C432 H467 0.949 . S
C433 C432 1.339 . S
C433 C434 1.439 . S
C433 H468 0.950 . S
C434 N430 1.383 . S
C434 C433 1.439 . S
C434 C463 1.392 . S
N435 Co429 2.008 . S
N435 C436 1.376 . S
N435 C439 1.374 . S
C436 N435 1.376 . S
C436 C437 1.443 . S
C436 C463 1.389 . S
C437 C436 1.443 . S
C437 C438 1.340 . S
C437 H469 0.951 . S
C438 C437 1.340 . S
C438 C439 1.439 . S
C438 H470 0.950 . S
C439 N435 1.374 . S
C439 C438 1.439 . S
C439 C464 1.395 . S
N440 Co429 1.995 . S
N440 C441 1.376 . S
N440 C444 1.383 . S
C441 N440 1.376 . S
C441 C442 1.446 . S
C441 C464 1.391 . S
C442 C441 1.446 . S
C442 C443 1.339 . S
C442 H471 0.949 . S
C443 C442 1.339 . S
C443 C444 1.439 . S
C443 H472 0.950 . S
C444 N440 1.383 . S
C444 C443 1.439 . S
C444 C462 1.392 . S
N445 Co429 2.282 . S
N445 C448 1.332 . S
N445 C450 1.332 . S
C446 C447 1.386 . S
C446 C449 1.388 . S
C447 C446 1.386 . S
C447 C448 1.382 . S
C447 H473 0.950 . S
C448 N445 1.332 . S
C448 C447 1.382 . S
C448 H459 0.952 . S
C449 C446 1.388 . S
C449 C450 1.382 . S
C449 H474 0.950 . S
C450 N445 1.332 . S
C450 C449 1.382 . S
C450 H460 0.948 . S
N451 Co429 2.282 . S
N451 C455 1.332 . S
N451 C456 1.332 . S
C452 C453 1.388 . S
C452 C456 1.382 . S
C452 H475 0.950 . S
C453 C452 1.388 . S
C453 C454 1.386 . S
C454 C453 1.386 . S
C454 C455 1.382 . S
C454 H476 0.950 . S
C455 N451 1.332 . S
C455 C454 1.382 . S
C455 H457 0.952 . S
C456 N451 1.332 . S
C456 C452 1.382 . S
C456 H458 0.948 . S
H457 C455 0.952 . S
H458 C456 0.948 . S
H459 C448 0.952 . S
H460 C450 0.948 . S
C461 C427 1.395 . S
C461 C431 1.391 . S
C462 C424 1.389 . S
C462 C444 1.392 . S
C463 C434 1.392 . S
C463 C436 1.389 . S
C464 C439 1.395 . S
C464 C441 1.391 . S
H465 C425 0.951 . S
H466 C426 0.950 . S
H467 C432 0.949 . S
H468 C433 0.950 . S
H469 C437 0.951 . S
H470 C438 0.950 . S
H471 C442 0.949 . S
H472 C443 0.950 . S
H473 C447 0.950 . S
H474 C449 0.950 . S
H475 C452 0.950 . S
H476 C454 0.950 . S
C477 C478 1.443 . S
C477 N481 1.376 . S
C477 C515 1.389 . S
C478 C477 1.443 . S
C478 C479 1.340 . S
C478 H518 0.951 . S
C479 C478 1.340 . S
C479 C480 1.439 . S
C479 H519 0.950 . S
C480 C479 1.439 . S
C480 N481 1.374 . S
C480 C514 1.395 . S
N481 C477 1.376 . S
N481 C480 1.374 . S
N481 Co482 2.008 . S
Co482 N481 2.008 . S
Co482 N483 1.995 . S
Co482 N488 2.008 . S
Co482 N493 1.995 . S
Co482 N498 2.282 . S
Co482 N504 2.282 . S
N483 Co482 1.995 . S
N483 C484 1.376 . S
N483 C487 1.383 . S
C484 N483 1.376 . S
C484 C485 1.446 . S
C484 C514 1.391 . S
C485 C484 1.446 . S
C485 C486 1.339 . S
C485 H520 0.949 . S
C486 C485 1.339 . S
C486 C487 1.439 . S
C486 H521 0.950 . S
C487 N483 1.383 . S
C487 C486 1.439 . S
C487 C516 1.392 . S
N488 Co482 2.008 . S
N488 C489 1.376 . S
N488 C492 1.374 . S
C489 N488 1.376 . S
C489 C490 1.443 . S
C489 C516 1.389 . S
C490 C489 1.443 . S
C490 C491 1.340 . S
C490 H522 0.951 . S
C491 C490 1.340 . S
C491 C492 1.439 . S
C491 H523 0.950 . S
C492 N488 1.374 . S
C492 C491 1.439 . S
C492 C517 1.395 . S
N493 Co482 1.995 . S
N493 C494 1.376 . S
N493 C497 1.383 . S
C494 N493 1.376 . S
C494 C495 1.446 . S
C494 C517 1.391 . S
C495 C494 1.446 . S
C495 C496 1.339 . S
C495 H524 0.949 . S
C496 C495 1.339 . S
C496 C497 1.439 . S
C496 H525 0.950 . S
C497 N493 1.383 . S
C497 C496 1.439 . S
C497 C515 1.392 . S
N498 Co482 2.282 . S
N498 C501 1.332 . S
N498 C503 1.332 . S
C499 C500 1.386 . S
C499 C502 1.388 . S
C500 C499 1.386 . S
C500 C501 1.382 . S
C500 H526 0.950 . S
C501 N498 1.332 . S
C501 C500 1.382 . S
C501 H512 0.952 . S
C502 C499 1.388 . S
C502 C503 1.382 . S
C502 H527 0.950 . S
C503 N498 1.332 . S
C503 C502 1.382 . S
C503 H513 0.948 . S
N504 Co482 2.282 . S
N504 C508 1.332 . S
N504 C509 1.332 . S
C505 C506 1.388 . S
C505 C509 1.382 . S
C505 H528 0.950 . S
C506 C505 1.388 . S
C506 C507 1.386 . S
C507 C506 1.386 . S
C507 C508 1.382 . S
C507 H529 0.950 . S
C508 N504 1.332 . S
C508 C507 1.382 . S
C508 H510 0.952 . S
C509 N504 1.332 . S
C509 C505 1.382 . S
C509 H511 0.948 . S
H510 C508 0.952 . S
H511 C509 0.948 . S
H512 C501 0.952 . S
H513 C503 0.948 . S
C514 C480 1.395 . S
C514 C484 1.391 . S
C515 C477 1.389 . S
C515 C497 1.392 . S
C516 C487 1.392 . S
C516 C489 1.389 . S
C517 C492 1.395 . S
C517 C494 1.391 . S
H518 C478 0.951 . S
H519 C479 0.950 . S
H520 C485 0.949 . S
H521 C486 0.950 . S
H522 C490 0.951 . S
H523 C491 0.950 . S
H524 C495 0.949 . S
H525 C496 0.950 . S
H526 C500 0.950 . S
H527 C502 0.950 . S
H528 C505 0.950 . S
H529 C507 0.950 . S
C530 C531 1.443 . S
C530 N534 1.376 . S
C530 C568 1.389 . S
C531 C530 1.443 . S
C531 C532 1.340 . S
C531 H571 0.951 . S
C532 C531 1.340 . S
C532 C533 1.439 . S
C532 H572 0.950 . S
C533 C532 1.439 . S
C533 N534 1.374 . S
C533 C567 1.395 . S
N534 C530 1.376 . S
N534 C533 1.374 . S
N534 Co535 2.008 . S
Co535 N534 2.008 . S
Co535 N536 1.995 . S
Co535 N541 2.008 . S
Co535 N546 1.995 . S
Co535 N551 2.282 . S
Co535 N557 2.282 . S
N536 Co535 1.995 . S
N536 C537 1.376 . S
N536 C540 1.383 . S
C537 N536 1.376 . S
C537 C538 1.446 . S
C537 C567 1.391 . S
C538 C537 1.446 . S
C538 C539 1.339 . S
C538 H573 0.949 . S
C539 C538 1.339 . S
C539 C540 1.439 . S
C539 H574 0.950 . S
C540 N536 1.383 . S
C540 C539 1.439 . S
C540 C569 1.392 . S
N541 Co535 2.008 . S
N541 C542 1.376 . S
N541 C545 1.374 . S
C542 N541 1.376 . S
C542 C543 1.443 . S
C542 C569 1.389 . S
C543 C542 1.443 . S
C543 C544 1.340 . S
C543 H575 0.951 . S
C544 C543 1.340 . S
C544 C545 1.439 . S
C544 H576 0.950 . S
C545 N541 1.374 . S
C545 C544 1.439 . S
C545 C570 1.395 . S
N546 Co535 1.995 . S
N546 C547 1.376 . S
N546 C550 1.383 . S
C547 N546 1.376 . S
C547 C548 1.446 . S
C547 C570 1.391 . S
C548 C547 1.446 . S
C548 C549 1.339 . S
C548 H577 0.949 . S
C549 C548 1.339 . S
C549 C550 1.439 . S
C549 H578 0.950 . S
C550 N546 1.383 . S
C550 C549 1.439 . S
C550 C568 1.392 . S
N551 Co535 2.282 . S
N551 C554 1.332 . S
N551 C556 1.332 . S
C552 C553 1.386 . S
C552 C555 1.388 . S
C553 C552 1.386 . S
C553 C554 1.382 . S
C553 H579 0.950 . S
C554 N551 1.332 . S
C554 C553 1.382 . S
C554 H565 0.952 . S
C555 C552 1.388 . S
C555 C556 1.382 . S
C555 H580 0.950 . S
C556 N551 1.332 . S
C556 C555 1.382 . S
C556 H566 0.948 . S
N557 Co535 2.282 . S
N557 C561 1.332 . S
N557 C562 1.332 . S
C558 C559 1.388 . S
C558 C562 1.382 . S
C558 H581 0.950 . S
C559 C558 1.388 . S
C559 C560 1.386 . S
C560 C559 1.386 . S
C560 C561 1.382 . S
C560 H582 0.950 . S
C561 N557 1.332 . S
C561 C560 1.382 . S
C561 H563 0.952 . S
C562 N557 1.332 . S
C562 C558 1.382 . S
C562 H564 0.948 . S
H563 C561 0.952 . S
H564 C562 0.948 . S
H565 C554 0.952 . S
H566 C556 0.948 . S
C567 C533 1.395 . S
C567 C537 1.391 . S
C568 C530 1.389 . S
C568 C550 1.392 . S
C569 C540 1.392 . S
C569 C542 1.389 . S
C570 C545 1.395 . S
C570 C547 1.391 . S
H571 C531 0.951 . S
H572 C532 0.950 . S
H573 C538 0.949 . S
H574 C539 0.950 . S
H575 C543 0.951 . S
H576 C544 0.950 . S
H577 C548 0.949 . S
H578 C549 0.950 . S
H579 C553 0.950 . S
H580 C555 0.950 . S
H581 C558 0.950 . S
H582 C560 0.950 . S
C583 C584 1.443 . S
C583 N587 1.376 . S
C583 C621 1.389 . S
C584 C583 1.443 . S
C584 C585 1.340 . S
C584 H624 0.951 . S
C585 C584 1.340 . S
C585 C586 1.439 . S
C585 H625 0.950 . S
C586 C585 1.439 . S
C586 N587 1.374 . S
C586 C620 1.395 . S
N587 C583 1.376 . S
N587 C586 1.374 . S
N587 Co588 2.008 . S
Co588 N587 2.008 . S
Co588 N589 1.995 . S
Co588 N594 2.008 . S
Co588 N599 1.995 . S
Co588 N604 2.282 . S
Co588 N610 2.282 . S
N589 Co588 1.995 . S
N589 C590 1.376 . S
N589 C593 1.383 . S
C590 N589 1.376 . S
C590 C591 1.446 . S
C590 C620 1.391 . S
C591 C590 1.446 . S
C591 C592 1.339 . S
C591 H626 0.949 . S
C592 C591 1.339 . S
C592 C593 1.439 . S
C592 H627 0.950 . S
C593 N589 1.383 . S
C593 C592 1.439 . S
C593 C622 1.392 . S
N594 Co588 2.008 . S
N594 C595 1.376 . S
N594 C598 1.374 . S
C595 N594 1.376 . S
C595 C596 1.443 . S
C595 C622 1.389 . S
C596 C595 1.443 . S
C596 C597 1.340 . S
C596 H628 0.951 . S
C597 C596 1.340 . S
C597 C598 1.439 . S
C597 H629 0.950 . S
C598 N594 1.374 . S
C598 C597 1.439 . S
C598 C623 1.395 . S
N599 Co588 1.995 . S
N599 C600 1.376 . S
N599 C603 1.383 . S
C600 N599 1.376 . S
C600 C601 1.446 . S
C600 C623 1.391 . S
C601 C600 1.446 . S
C601 C602 1.339 . S
C601 H630 0.949 . S
C602 C601 1.339 . S
C602 C603 1.439 . S
C602 H631 0.950 . S
C603 N599 1.383 . S
C603 C602 1.439 . S
C603 C621 1.392 . S
N604 Co588 2.282 . S
N604 C607 1.332 . S
N604 C609 1.332 . S
C605 C606 1.386 . S
C605 C608 1.388 . S
C606 C605 1.386 . S
C606 C607 1.382 . S
C606 H632 0.950 . S
C607 N604 1.332 . S
C607 C606 1.382 . S
C607 H618 0.952 . S
C608 C605 1.388 . S
C608 C609 1.382 . S
C608 H633 0.950 . S
C609 N604 1.332 . S
C609 C608 1.382 . S
C609 H619 0.948 . S
N610 Co588 2.282 . S
N610 C614 1.332 . S
N610 C615 1.332 . S
C611 C612 1.388 . S
C611 C615 1.382 . S
C611 H634 0.950 . S
C612 C611 1.388 . S
C612 C613 1.386 . S
C613 C612 1.386 . S
C613 C614 1.382 . S
C613 H635 0.950 . S
C614 N610 1.332 . S
C614 C613 1.382 . S
C614 H616 0.952 . S
C615 N610 1.332 . S
C615 C611 1.382 . S
C615 H617 0.948 . S
H616 C614 0.952 . S
H617 C615 0.948 . S
H618 C607 0.952 . S
H619 C609 0.948 . S
C620 C586 1.395 . S
C620 C590 1.391 . S
C621 C583 1.389 . S
C621 C603 1.392 . S
C622 C593 1.392 . S
C622 C595 1.389 . S
C623 C598 1.395 . S
C623 C600 1.391 . S
H624 C584 0.951 . S
H625 C585 0.950 . S
H626 C591 0.949 . S
H627 C592 0.950 . S
H628 C596 0.951 . S
H629 C597 0.950 . S
H630 C601 0.949 . S
H631 C602 0.950 . S
H632 C606 0.950 . S
H633 C608 0.950 . S
H634 C611 0.950 . S
H635 C613 0.950 . S
C636 C637 1.443 . S
C636 N640 1.376 . S
C636 C674 1.389 . S
C637 C636 1.443 . S
C637 C638 1.340 . S
C637 H677 0.951 . S
C638 C637 1.340 . S
C638 C639 1.439 . S
C638 H678 0.950 . S
C639 C638 1.439 . S
C639 N640 1.374 . S
C639 C673 1.395 . S
N640 C636 1.376 . S
N640 C639 1.374 . S
N640 Co641 2.008 . S
Co641 N640 2.008 . S
Co641 N642 1.995 . S
Co641 N647 2.008 . S
Co641 N652 1.995 . S
Co641 N657 2.282 . S
Co641 N663 2.282 . S
N642 Co641 1.995 . S
N642 C643 1.376 . S
N642 C646 1.383 . S
C643 N642 1.376 . S
C643 C644 1.446 . S
C643 C673 1.391 . S
C644 C643 1.446 . S
C644 C645 1.339 . S
C644 H679 0.949 . S
C645 C644 1.339 . S
C645 C646 1.439 . S
C645 H680 0.950 . S
C646 N642 1.383 . S
C646 C645 1.439 . S
C646 C675 1.392 . S
N647 Co641 2.008 . S
N647 C648 1.376 . S
N647 C651 1.374 . S
C648 N647 1.376 . S
C648 C649 1.443 . S
C648 C675 1.389 . S
C649 C648 1.443 . S
C649 C650 1.340 . S
C649 H681 0.951 . S
C650 C649 1.340 . S
C650 C651 1.439 . S
C650 H682 0.950 . S
C651 N647 1.374 . S
C651 C650 1.439 . S
C651 C676 1.395 . S
N652 Co641 1.995 . S
N652 C653 1.376 . S
N652 C656 1.383 . S
C653 N652 1.376 . S
C653 C654 1.446 . S
C653 C676 1.391 . S
C654 C653 1.446 . S
C654 C655 1.339 . S
C654 H683 0.949 . S
C655 C654 1.339 . S
C655 C656 1.439 . S
C655 H684 0.950 . S
C656 N652 1.383 . S
C656 C655 1.439 . S
C656 C674 1.392 . S
N657 Co641 2.282 . S
N657 C660 1.332 . S
N657 C662 1.332 . S
C658 C659 1.386 . S
C658 C661 1.388 . S
C659 C658 1.386 . S
C659 C660 1.382 . S
C659 H685 0.950 . S
C660 N657 1.332 . S
C660 C659 1.382 . S
C660 H671 0.952 . S
C661 C658 1.388 . S
C661 C662 1.382 . S
C661 H686 0.950 . S
C662 N657 1.332 . S
C662 C661 1.382 . S
C662 H672 0.948 . S
N663 Co641 2.282 . S
N663 C667 1.332 . S
N663 C668 1.332 . S
C664 C665 1.388 . S
C664 C668 1.382 . S
C664 H687 0.950 . S
C665 C664 1.388 . S
C665 C666 1.386 . S
C666 C665 1.386 . S
C666 C667 1.382 . S
C666 H688 0.950 . S
C667 N663 1.332 . S
C667 C666 1.382 . S
C667 H669 0.952 . S
C668 N663 1.332 . S
C668 C664 1.382 . S
C668 H670 0.948 . S
H669 C667 0.952 . S
H670 C668 0.948 . S
H671 C660 0.952 . S
H672 C662 0.948 . S
C673 C639 1.395 . S
C673 C643 1.391 . S
C674 C636 1.389 . S
C674 C656 1.392 . S
C675 C646 1.392 . S
C675 C648 1.389 . S
C676 C651 1.395 . S
C676 C653 1.391 . S
H677 C637 0.951 . S
H678 C638 0.950 . S
H679 C644 0.949 . S
H680 C645 0.950 . S
H681 C649 0.951 . S
H682 C650 0.950 . S
H683 C654 0.949 . S
H684 C655 0.950 . S
H685 C659 0.950 . S
H686 C661 0.950 . S
H687 C664 0.950 . S
H688 C666 0.950 . S
C689 C690 1.443 . S
C689 N693 1.376 . S
C689 C727 1.389 . S
C690 C689 1.443 . S
C690 C691 1.340 . S
C690 H730 0.951 . S
C691 C690 1.340 . S
C691 C692 1.439 . S
C691 H731 0.950 . S
C692 C691 1.439 . S
C692 N693 1.374 . S
C692 C726 1.395 . S
N693 C689 1.376 . S
N693 C692 1.374 . S
N693 Co694 2.008 . S
Co694 N693 2.008 . S
Co694 N695 1.995 . S
Co694 N700 2.008 . S
Co694 N705 1.995 . S
Co694 N710 2.282 . S
Co694 N716 2.282 . S
N695 Co694 1.995 . S
N695 C696 1.376 . S
N695 C699 1.383 . S
C696 N695 1.376 . S
C696 C697 1.446 . S
C696 C726 1.391 . S
C697 C696 1.446 . S
C697 C698 1.339 . S
C697 H732 0.949 . S
C698 C697 1.339 . S
C698 C699 1.439 . S
C698 H733 0.950 . S
C699 N695 1.383 . S
C699 C698 1.439 . S
C699 C728 1.392 . S
N700 Co694 2.008 . S
N700 C701 1.376 . S
N700 C704 1.374 . S
C701 N700 1.376 . S
C701 C702 1.443 . S
C701 C728 1.389 . S
C702 C701 1.443 . S
C702 C703 1.340 . S
C702 H734 0.951 . S
C703 C702 1.340 . S
C703 C704 1.439 . S
C703 H735 0.950 . S
C704 N700 1.374 . S
C704 C703 1.439 . S
C704 C729 1.395 . S
N705 Co694 1.995 . S
N705 C706 1.376 . S
N705 C709 1.383 . S
C706 N705 1.376 . S
C706 C707 1.446 . S
C706 C729 1.391 . S
C707 C706 1.446 . S
C707 C708 1.339 . S
C707 H736 0.949 . S
C708 C707 1.339 . S
C708 C709 1.439 . S
C708 H737 0.950 . S
C709 N705 1.383 . S
C709 C708 1.439 . S
C709 C727 1.392 . S
N710 Co694 2.282 . S
N710 C713 1.332 . S
N710 C715 1.332 . S
C711 C712 1.386 . S
C711 C714 1.388 . S
C712 C711 1.386 . S
C712 C713 1.382 . S
C712 H738 0.950 . S
C713 N710 1.332 . S
C713 C712 1.382 . S
C713 H724 0.952 . S
C714 C711 1.388 . S
C714 C715 1.382 . S
C714 H739 0.950 . S
C715 N710 1.332 . S
C715 C714 1.382 . S
C715 H725 0.948 . S
N716 Co694 2.282 . S
N716 C720 1.332 . S
N716 C721 1.332 . S
C717 C718 1.388 . S
C717 C721 1.382 . S
C717 H740 0.950 . S
C718 C717 1.388 . S
C718 C719 1.386 . S
C719 C718 1.386 . S
C719 C720 1.382 . S
C719 H741 0.950 . S
C720 N716 1.332 . S
C720 C719 1.382 . S
C720 H722 0.952 . S
C721 N716 1.332 . S
C721 C717 1.382 . S
C721 H723 0.948 . S
H722 C720 0.952 . S
H723 C721 0.948 . S
H724 C713 0.952 . S
H725 C715 0.948 . S
C726 C692 1.395 . S
C726 C696 1.391 . S
C727 C689 1.389 . S
C727 C709 1.392 . S
C728 C699 1.392 . S
C728 C701 1.389 . S
C729 C704 1.395 . S
C729 C706 1.391 . S
H730 C690 0.951 . S
H731 C691 0.950 . S
H732 C697 0.949 . S
H733 C698 0.950 . S
H734 C702 0.951 . S
H735 C703 0.950 . S
H736 C707 0.949 . S
H737 C708 0.950 . S
H738 C712 0.950 . S
H739 C714 0.950 . S
H740 C717 0.950 . S
H741 C719 0.950 . S
C742 C743 1.443 . S
C742 N746 1.376 . S
C742 C780 1.389 . S
C743 C742 1.443 . S
C743 C744 1.340 . S
C743 H783 0.951 . S
C744 C743 1.340 . S
C744 C745 1.439 . S
C744 H784 0.950 . S
C745 C744 1.439 . S
C745 N746 1.374 . S
C745 C779 1.395 . S
N746 C742 1.376 . S
N746 C745 1.374 . S
N746 Co747 2.008 . S
Co747 N746 2.008 . S
Co747 N748 1.995 . S
Co747 N753 2.008 . S
Co747 N758 1.995 . S
Co747 N763 2.282 . S
Co747 N769 2.282 . S
N748 Co747 1.995 . S
N748 C749 1.376 . S
N748 C752 1.383 . S
C749 N748 1.376 . S
C749 C750 1.446 . S
C749 C779 1.391 . S
C750 C749 1.446 . S
C750 C751 1.339 . S
C750 H785 0.949 . S
C751 C750 1.339 . S
C751 C752 1.439 . S
C751 H786 0.950 . S
C752 N748 1.383 . S
C752 C751 1.439 . S
C752 C781 1.392 . S
N753 Co747 2.008 . S
N753 C754 1.376 . S
N753 C757 1.374 . S
C754 N753 1.376 . S
C754 C755 1.443 . S
C754 C781 1.389 . S
C755 C754 1.443 . S
C755 C756 1.340 . S
C755 H787 0.951 . S
C756 C755 1.340 . S
C756 C757 1.439 . S
C756 H788 0.950 . S
C757 N753 1.374 . S
C757 C756 1.439 . S
C757 C782 1.395 . S
N758 Co747 1.995 . S
N758 C759 1.376 . S
N758 C762 1.383 . S
C759 N758 1.376 . S
C759 C760 1.446 . S
C759 C782 1.391 . S
C760 C759 1.446 . S
C760 C761 1.339 . S
C760 H789 0.949 . S
C761 C760 1.339 . S
C761 C762 1.439 . S
C761 H790 0.950 . S
C762 N758 1.383 . S
C762 C761 1.439 . S
C762 C780 1.392 . S
N763 Co747 2.282 . S
N763 C766 1.332 . S
N763 C768 1.332 . S
C764 C765 1.386 . S
C764 C767 1.388 . S
C765 C764 1.386 . S
C765 C766 1.382 . S
C765 H791 0.950 . S
C766 N763 1.332 . S
C766 C765 1.382 . S
C766 H777 0.952 . S
C767 C764 1.388 . S
C767 C768 1.382 . S
C767 H792 0.950 . S
C768 N763 1.332 . S
C768 C767 1.382 . S
C768 H778 0.948 . S
N769 Co747 2.282 . S
N769 C773 1.332 . S
N769 C774 1.332 . S
C770 C771 1.388 . S
C770 C774 1.382 . S
C770 H793 0.950 . S
C771 C770 1.388 . S
C771 C772 1.386 . S
C772 C771 1.386 . S
C772 C773 1.382 . S
C772 H794 0.950 . S
C773 N769 1.332 . S
C773 C772 1.382 . S
C773 H775 0.952 . S
C774 N769 1.332 . S
C774 C770 1.382 . S
C774 H776 0.948 . S
H775 C773 0.952 . S
H776 C774 0.948 . S
H777 C766 0.952 . S
H778 C768 0.948 . S
C779 C745 1.395 . S
C779 C749 1.391 . S
C780 C742 1.389 . S
C780 C762 1.392 . S
C781 C752 1.392 . S
C781 C754 1.389 . S
C782 C757 1.395 . S
C782 C759 1.391 . S
H783 C743 0.951 . S
H784 C744 0.950 . S
H785 C750 0.949 . S
H786 C751 0.950 . S
H787 C755 0.951 . S
H788 C756 0.950 . S
H789 C760 0.949 . S
H790 C761 0.950 . S
H791 C765 0.950 . S
H792 C767 0.950 . S
H793 C770 0.950 . S
H794 C772 0.950 . S
C795 C796 1.443 . S
C795 N799 1.376 . S
C795 C833 1.389 . S
C796 C795 1.443 . S
C796 C797 1.340 . S
C796 H836 0.951 . S
C797 C796 1.340 . S
C797 C798 1.439 . S
C797 H837 0.950 . S
C798 C797 1.439 . S
C798 N799 1.374 . S
C798 C832 1.395 . S
N799 C795 1.376 . S
N799 C798 1.374 . S
N799 Co800 2.008 . S
Co800 N799 2.008 . S
Co800 N801 1.995 . S
Co800 N806 2.008 . S
Co800 N811 1.995 . S
Co800 N816 2.282 . S
Co800 N822 2.282 . S
N801 Co800 1.995 . S
N801 C802 1.376 . S
N801 C805 1.383 . S
C802 N801 1.376 . S
C802 C803 1.446 . S
C802 C832 1.391 . S
C803 C802 1.446 . S
C803 C804 1.339 . S
C803 H838 0.949 . S
C804 C803 1.339 . S
C804 C805 1.439 . S
C804 H839 0.950 . S
C805 N801 1.383 . S
C805 C804 1.439 . S
C805 C834 1.392 . S
N806 Co800 2.008 . S
N806 C807 1.376 . S
N806 C810 1.374 . S
C807 N806 1.376 . S
C807 C808 1.443 . S
C807 C834 1.389 . S
C808 C807 1.443 . S
C808 C809 1.340 . S
C808 H840 0.951 . S
C809 C808 1.340 . S
C809 C810 1.439 . S
C809 H841 0.950 . S
C810 N806 1.374 . S
C810 C809 1.439 . S
C810 C835 1.395 . S
N811 Co800 1.995 . S
N811 C812 1.376 . S
N811 C815 1.383 . S
C812 N811 1.376 . S
C812 C813 1.446 . S
C812 C835 1.391 . S
C813 C812 1.446 . S
C813 C814 1.339 . S
C813 H842 0.949 . S
C814 C813 1.339 . S
C814 C815 1.439 . S
C814 H843 0.950 . S
C815 N811 1.383 . S
C815 C814 1.439 . S
C815 C833 1.392 . S
N816 Co800 2.282 . S
N816 C819 1.332 . S
N816 C821 1.332 . S
C817 C818 1.386 . S
C817 C820 1.388 . S
C818 C817 1.386 . S
C818 C819 1.382 . S
C818 H844 0.950 . S
C819 N816 1.332 . S
C819 C818 1.382 . S
C819 H830 0.952 . S
C820 C817 1.388 . S
C820 C821 1.382 . S
C820 H845 0.950 . S
C821 N816 1.332 . S
C821 C820 1.382 . S
C821 H831 0.948 . S
N822 Co800 2.282 . S
N822 C826 1.332 . S
N822 C827 1.332 . S
C823 C824 1.388 . S
C823 C827 1.382 . S
C823 H846 0.950 . S
C824 C823 1.388 . S
C824 C825 1.386 . S
C825 C824 1.386 . S
C825 C826 1.382 . S
C825 H847 0.950 . S
C826 N822 1.332 . S
C826 C825 1.382 . S
C826 H828 0.952 . S
C827 N822 1.332 . S
C827 C823 1.382 . S
C827 H829 0.948 . S
H828 C826 0.952 . S
H829 C827 0.948 . S
H830 C819 0.952 . S
H831 C821 0.948 . S
C832 C798 1.395 . S
C832 C802 1.391 . S
C833 C795 1.389 . S
C833 C815 1.392 . S
C834 C805 1.392 . S
C834 C807 1.389 . S
C835 C810 1.395 . S
C835 C812 1.391 . S
H836 C796 0.951 . S
H837 C797 0.950 . S
H838 C803 0.949 . S
H839 C804 0.950 . S
H840 C808 0.951 . S
H841 C809 0.950 . S
H842 C813 0.949 . S
H843 C814 0.950 . S
H844 C818 0.950 . S
H845 C820 0.950 . S
H846 C823 0.950 . S
H847 C825 0.950 . S
C848 C849 1.443 . S
C848 N852 1.376 . S
C848 C886 1.389 . S
C849 C848 1.443 . S
C849 C850 1.340 . S
C849 H889 0.951 . S
C850 C849 1.340 . S
C850 C851 1.439 . S
C850 H890 0.950 . S
C851 C850 1.439 . S
C851 N852 1.374 . S
C851 C885 1.395 . S
N852 C848 1.376 . S
N852 C851 1.374 . S
N852 Co853 2.008 . S
Co853 N852 2.008 . S
Co853 N854 1.995 . S
Co853 N859 2.008 . S
Co853 N864 1.995 . S
Co853 N869 2.282 . S
Co853 N875 2.282 . S
N854 Co853 1.995 . S
N854 C855 1.376 . S
N854 C858 1.383 . S
C855 N854 1.376 . S
C855 C856 1.446 . S
C855 C885 1.391 . S
C856 C855 1.446 . S
C856 C857 1.339 . S
C856 H891 0.949 . S
C857 C856 1.339 . S
C857 C858 1.439 . S
C857 H892 0.950 . S
C858 N854 1.383 . S
C858 C857 1.439 . S
C858 C887 1.392 . S
N859 Co853 2.008 . S
N859 C860 1.376 . S
N859 C863 1.374 . S
C860 N859 1.376 . S
C860 C861 1.443 . S
C860 C887 1.389 . S
C861 C860 1.443 . S
C861 C862 1.340 . S
C861 H893 0.951 . S
C862 C861 1.340 . S
C862 C863 1.439 . S
C862 H894 0.950 . S
C863 N859 1.374 . S
C863 C862 1.439 . S
C863 C888 1.395 . S
N864 Co853 1.995 . S
N864 C865 1.376 . S
N864 C868 1.383 . S
C865 N864 1.376 . S
C865 C866 1.446 . S
C865 C888 1.391 . S
C866 C865 1.446 . S
C866 C867 1.339 . S
C866 H895 0.949 . S
C867 C866 1.339 . S
C867 C868 1.439 . S
C867 H896 0.950 . S
C868 N864 1.383 . S
C868 C867 1.439 . S
C868 C886 1.392 . S
N869 Co853 2.282 . S
N869 C872 1.332 . S
N869 C874 1.332 . S
C870 C871 1.386 . S
C870 C873 1.388 . S
C871 C870 1.386 . S
C871 C872 1.382 . S
C871 H897 0.950 . S
C872 N869 1.332 . S
C872 C871 1.382 . S
C872 H883 0.952 . S
C873 C870 1.388 . S
C873 C874 1.382 . S
C873 H898 0.950 . S
C874 N869 1.332 . S
C874 C873 1.382 . S
C874 H884 0.948 . S
N875 Co853 2.282 . S
N875 C879 1.332 . S
N875 C880 1.332 . S
C876 C877 1.388 . S
C876 C880 1.382 . S
C876 H899 0.950 . S
C877 C876 1.388 . S
C877 C878 1.386 . S
C878 C877 1.386 . S
C878 C879 1.382 . S
C878 H900 0.950 . S
C879 N875 1.332 . S
C879 C878 1.382 . S
C879 H881 0.952 . S
C880 N875 1.332 . S
C880 C876 1.382 . S
C880 H882 0.948 . S
H881 C879 0.952 . S
H882 C880 0.948 . S
H883 C872 0.952 . S
H884 C874 0.948 . S
C885 C851 1.395 . S
C885 C855 1.391 . S
C886 C848 1.389 . S
C886 C868 1.392 . S
C887 C858 1.392 . S
C887 C860 1.389 . S
C888 C863 1.395 . S
C888 C865 1.391 . S
H889 C849 0.951 . S
H890 C850 0.950 . S
H891 C856 0.949 . S
H892 C857 0.950 . S
H893 C861 0.951 . S
H894 C862 0.950 . S
H895 C866 0.949 . S
H896 C867 0.950 . S
H897 C871 0.950 . S
H898 C873 0.950 . S
H899 C876 0.950 . S
H900 C878 0.950 . S
C901 C902 1.443 . S
C901 N905 1.376 . S
C901 C939 1.389 . S
C902 C901 1.443 . S
C902 C903 1.340 . S
C902 H942 0.951 . S
C903 C902 1.340 . S
C903 C904 1.439 . S
C903 H943 0.950 . S
C904 C903 1.439 . S
C904 N905 1.374 . S
C904 C938 1.395 . S
N905 C901 1.376 . S
N905 C904 1.374 . S
N905 Co906 2.008 . S
Co906 N905 2.008 . S
Co906 N907 1.995 . S
Co906 N912 2.008 . S
Co906 N917 1.995 . S
Co906 N922 2.282 . S
Co906 N928 2.282 . S
N907 Co906 1.995 . S
N907 C908 1.376 . S
N907 C911 1.383 . S
C908 N907 1.376 . S
C908 C909 1.446 . S
C908 C938 1.391 . S
C909 C908 1.446 . S
C909 C910 1.339 . S
C909 H944 0.949 . S
C910 C909 1.339 . S
C910 C911 1.439 . S
C910 H945 0.950 . S
C911 N907 1.383 . S
C911 C910 1.439 . S
C911 C940 1.392 . S
N912 Co906 2.008 . S
N912 C913 1.376 . S
N912 C916 1.374 . S
C913 N912 1.376 . S
C913 C914 1.443 . S
C913 C940 1.389 . S
C914 C913 1.443 . S
C914 C915 1.340 . S
C914 H946 0.951 . S
C915 C914 1.340 . S
C915 C916 1.439 . S
C915 H947 0.950 . S
C916 N912 1.374 . S
C916 C915 1.439 . S
C916 C941 1.395 . S
N917 Co906 1.995 . S
N917 C918 1.376 . S
N917 C921 1.383 . S
C918 N917 1.376 . S
C918 C919 1.446 . S
C918 C941 1.391 . S
C919 C918 1.446 . S
C919 C920 1.339 . S
C919 H948 0.949 . S
C920 C919 1.339 . S
C920 C921 1.439 . S
C920 H949 0.950 . S
C921 N917 1.383 . S
C921 C920 1.439 . S
C921 C939 1.392 . S
N922 Co906 2.282 . S
N922 C925 1.332 . S
N922 C927 1.332 . S
C923 C924 1.386 . S
C923 C926 1.388 . S
C924 C923 1.386 . S
C924 C925 1.382 . S
C924 H950 0.950 . S
C925 N922 1.332 . S
C925 C924 1.382 . S
C925 H936 0.952 . S
C926 C923 1.388 . S
C926 C927 1.382 . S
C926 H951 0.950 . S
C927 N922 1.332 . S
C927 C926 1.382 . S
C927 H937 0.948 . S
N928 Co906 2.282 . S
N928 C932 1.332 . S
N928 C933 1.332 . S
C929 C930 1.388 . S
C929 C933 1.382 . S
C929 H952 0.950 . S
C930 C929 1.388 . S
C930 C931 1.386 . S
C931 C930 1.386 . S
C931 C932 1.382 . S
C931 H953 0.950 . S
C932 N928 1.332 . S
C932 C931 1.382 . S
C932 H934 0.952 . S
C933 N928 1.332 . S
C933 C929 1.382 . S
C933 H935 0.948 . S
H934 C932 0.952 . S
H935 C933 0.948 . S
H936 C925 0.952 . S
H937 C927 0.948 . S
C938 C904 1.395 . S
C938 C908 1.391 . S
C939 C901 1.389 . S
C939 C921 1.392 . S
C940 C911 1.392 . S
C940 C913 1.389 . S
C941 C916 1.395 . S
C941 C918 1.391 . S
H942 C902 0.951 . S
H943 C903 0.950 . S
H944 C909 0.949 . S
H945 C910 0.950 . S
H946 C914 0.951 . S
H947 C915 0.950 . S
H948 C919 0.949 . S
H949 C920 0.950 . S
H950 C924 0.950 . S
H951 C926 0.950 . S
H952 C929 0.950 . S
H953 C931 0.950 . S
C954 C955 1.443 . S
C954 N958 1.376 . S
C954 C992 1.389 . S
C955 C954 1.443 . S
C955 C956 1.340 . S
C955 H995 0.951 . S
C956 C955 1.340 . S
C956 C957 1.439 . S
C956 H996 0.950 . S
C957 C956 1.439 . S
C957 N958 1.374 . S
C957 C991 1.395 . S
N958 C954 1.376 . S
N958 C957 1.374 . S
N958 Co959 2.008 . S
Co959 N958 2.008 . S
Co959 N960 1.995 . S
Co959 N965 2.008 . S
Co959 N970 1.995 . S
Co959 N975 2.282 . S
Co959 N981 2.282 . S
N960 Co959 1.995 . S
N960 C961 1.376 . S
N960 C964 1.383 . S
C961 N960 1.376 . S
C961 C962 1.446 . S
C961 C991 1.391 . S
C962 C961 1.446 . S
C962 C963 1.339 . S
C962 H997 0.949 . S
C963 C962 1.339 . S
C963 C964 1.439 . S
C963 H998 0.950 . S
C964 N960 1.383 . S
C964 C963 1.439 . S
C964 C993 1.392 . S
N965 Co959 2.008 . S
N965 C966 1.376 . S
N965 C969 1.374 . S
C966 N965 1.376 . S
C966 C967 1.443 . S
C966 C993 1.389 . S
C967 C966 1.443 . S
C967 C968 1.340 . S
C967 H999 0.951 . S
C968 C967 1.340 . S
C968 C969 1.439 . S
C968 H1000 0.950 . S
C969 N965 1.374 . S
C969 C968 1.439 . S
C969 C994 1.395 . S
N970 Co959 1.995 . S
N970 C971 1.376 . S
N970 C974 1.383 . S
C971 N970 1.376 . S
C971 C972 1.446 . S
C971 C994 1.391 . S
C972 C971 1.446 . S
C972 C973 1.339 . S
C972 H1001 0.949 . S
C973 C972 1.339 . S
C973 C974 1.439 . S
C973 H1002 0.950 . S
C974 N970 1.383 . S
C974 C973 1.439 . S
C974 C992 1.392 . S
N975 Co959 2.282 . S
N975 C978 1.332 . S
N975 C980 1.332 . S
C976 C977 1.386 . S
C976 C979 1.388 . S
C977 C976 1.386 . S
C977 C978 1.382 . S
C977 H1003 0.950 . S
C978 N975 1.332 . S
C978 C977 1.382 . S
C978 H989 0.952 . S
C979 C976 1.388 . S
C979 C980 1.382 . S
C979 H1004 0.950 . S
C980 N975 1.332 . S
C980 C979 1.382 . S
C980 H990 0.948 . S
N981 Co959 2.282 . S
N981 C985 1.332 . S
N981 C986 1.332 . S
C982 C983 1.388 . S
C982 C986 1.382 . S
C982 H1005 0.950 . S
C983 C982 1.388 . S
C983 C984 1.386 . S
C984 C983 1.386 . S
C984 C985 1.382 . S
C984 H1006 0.950 . S
C985 N981 1.332 . S
C985 C984 1.382 . S
C985 H987 0.952 . S
C986 N981 1.332 . S
C986 C982 1.382 . S
C986 H988 0.948 . S
H987 C985 0.952 . S
H988 C986 0.948 . S
H989 C978 0.952 . S
H990 C980 0.948 . S
C991 C957 1.395 . S
C991 C961 1.391 . S
C992 C954 1.389 . S
C992 C974 1.392 . S
C993 C964 1.392 . S
C993 C966 1.389 . S
C994 C969 1.395 . S
C994 C971 1.391 . S
H995 C955 0.951 . S
H996 C956 0.950 . S
H997 C962 0.949 . S
H998 C963 0.950 . S
H999 C967 0.951 . S
H1000 C968 0.950 . S
H1001 C972 0.949 . S
H1002 C973 0.950 . S
H1003 C977 0.950 . S
H1004 C979 0.950 . S
H1005 C982 0.950 . S
H1006 C984 0.950 . S
C1007 C1008 1.443 . S
C1007 N1011 1.376 . S
C1007 C1045 1.389 . S
C1008 C1007 1.443 . S
C1008 C1009 1.340 . S
C1008 H1048 0.951 . S
C1009 C1008 1.340 . S
C1009 C1010 1.439 . S
C1009 H1049 0.950 . S
C1010 C1009 1.439 . S
C1010 N1011 1.374 . S
C1010 C1044 1.395 . S
N1011 C1007 1.376 . S
N1011 C1010 1.374 . S
N1011 Co1012 2.008 . S
Co1012 N1011 2.008 . S
Co1012 N1013 1.995 . S
Co1012 N1018 2.008 . S
Co1012 N1023 1.995 . S
Co1012 N1028 2.282 . S
Co1012 N1034 2.282 . S
N1013 Co1012 1.995 . S
N1013 C1014 1.376 . S
N1013 C1017 1.383 . S
C1014 N1013 1.376 . S
C1014 C1015 1.446 . S
C1014 C1044 1.391 . S
C1015 C1014 1.446 . S
C1015 C1016 1.339 . S
C1015 H1050 0.949 . S
C1016 C1015 1.339 . S
C1016 C1017 1.439 . S
C1016 H1051 0.950 . S
C1017 N1013 1.383 . S
C1017 C1016 1.439 . S
C1017 C1046 1.392 . S
N1018 Co1012 2.008 . S
N1018 C1019 1.376 . S
N1018 C1022 1.374 . S
C1019 N1018 1.376 . S
C1019 C1020 1.443 . S
C1019 C1046 1.389 . S
C1020 C1019 1.443 . S
C1020 C1021 1.340 . S
C1020 H1052 0.951 . S
C1021 C1020 1.340 . S
C1021 C1022 1.439 . S
C1021 H1053 0.950 . S
C1022 N1018 1.374 . S
C1022 C1021 1.439 . S
C1022 C1047 1.395 . S
N1023 Co1012 1.995 . S
N1023 C1024 1.376 . S
N1023 C1027 1.383 . S
C1024 N1023 1.376 . S
C1024 C1025 1.446 . S
C1024 C1047 1.391 . S
C1025 C1024 1.446 . S
C1025 C1026 1.339 . S
C1025 H1054 0.949 . S
C1026 C1025 1.339 . S
C1026 C1027 1.439 . S
C1026 H1055 0.950 . S
C1027 N1023 1.383 . S
C1027 C1026 1.439 . S
C1027 C1045 1.392 . S
N1028 Co1012 2.282 . S
N1028 C1031 1.332 . S
N1028 C1033 1.332 . S
C1029 C1030 1.386 . S
C1029 C1032 1.388 . S
C1030 C1029 1.386 . S
C1030 C1031 1.382 . S
C1030 H1056 0.950 . S
C1031 N1028 1.332 . S
C1031 C1030 1.382 . S
C1031 H1042 0.952 . S
C1032 C1029 1.388 . S
C1032 C1033 1.382 . S
C1032 H1057 0.950 . S
C1033 N1028 1.332 . S
C1033 C1032 1.382 . S
C1033 H1043 0.948 . S
N1034 Co1012 2.282 . S
N1034 C1038 1.332 . S
N1034 C1039 1.332 . S
C1035 C1036 1.388 . S
C1035 C1039 1.382 . S
C1035 H1058 0.950 . S
C1036 C1035 1.388 . S
C1036 C1037 1.386 . S
C1037 C1036 1.386 . S
C1037 C1038 1.382 . S
C1037 H1059 0.950 . S
C1038 N1034 1.332 . S
C1038 C1037 1.382 . S
C1038 H1040 0.952 . S
C1039 N1034 1.332 . S
C1039 C1035 1.382 . S
C1039 H1041 0.948 . S
H1040 C1038 0.952 . S
H1041 C1039 0.948 . S
H1042 C1031 0.952 . S
H1043 C1033 0.948 . S
C1044 C1010 1.395 . S
C1044 C1014 1.391 . S
C1045 C1007 1.389 . S
C1045 C1027 1.392 . S
C1046 C1017 1.392 . S
C1046 C1019 1.389 . S
C1047 C1022 1.395 . S
C1047 C1024 1.391 . S
H1048 C1008 0.951 . S
H1049 C1009 0.950 . S
H1050 C1015 0.949 . S
H1051 C1016 0.950 . S
H1052 C1020 0.951 . S
H1053 C1021 0.950 . S
H1054 C1025 0.949 . S
H1055 C1026 0.950 . S
H1056 C1030 0.950 . S
H1057 C1032 0.950 . S
H1058 C1035 0.950 . S
H1059 C1037 0.950 . S
C1060 C1061 1.443 . S
C1060 N1064 1.376 . S
C1060 C1098 1.389 . S
C1061 C1060 1.443 . S
C1061 C1062 1.340 . S
C1061 H1101 0.951 . S
C1062 C1061 1.340 . S
C1062 C1063 1.439 . S
C1062 H1102 0.950 . S
C1063 C1062 1.439 . S
C1063 N1064 1.374 . S
C1063 C1097 1.395 . S
N1064 C1060 1.376 . S
N1064 C1063 1.374 . S
N1064 Co1065 2.008 . S
Co1065 N1064 2.008 . S
Co1065 N1066 1.995 . S
Co1065 N1071 2.008 . S
Co1065 N1076 1.995 . S
Co1065 N1081 2.282 . S
Co1065 N1087 2.282 . S
N1066 Co1065 1.995 . S
N1066 C1067 1.376 . S
N1066 C1070 1.383 . S
C1067 N1066 1.376 . S
C1067 C1068 1.446 . S
C1067 C1097 1.391 . S
C1068 C1067 1.446 . S
C1068 C1069 1.339 . S
C1068 H1103 0.949 . S
C1069 C1068 1.339 . S
C1069 C1070 1.439 . S
C1069 H1104 0.950 . S
C1070 N1066 1.383 . S
C1070 C1069 1.439 . S
C1070 C1099 1.392 . S
N1071 Co1065 2.008 . S
N1071 C1072 1.376 . S
N1071 C1075 1.374 . S
C1072 N1071 1.376 . S
C1072 C1073 1.443 . S
C1072 C1099 1.389 . S
C1073 C1072 1.443 . S
C1073 C1074 1.340 . S
C1073 H1105 0.951 . S
C1074 C1073 1.340 . S
C1074 C1075 1.439 . S
C1074 H1106 0.950 . S
C1075 N1071 1.374 . S
C1075 C1074 1.439 . S
C1075 C1100 1.395 . S
N1076 Co1065 1.995 . S
N1076 C1077 1.376 . S
N1076 C1080 1.383 . S
C1077 N1076 1.376 . S
C1077 C1078 1.446 . S
C1077 C1100 1.391 . S
C1078 C1077 1.446 . S
C1078 C1079 1.339 . S
C1078 H1107 0.949 . S
C1079 C1078 1.339 . S
C1079 C1080 1.439 . S
C1079 H1108 0.950 . S
C1080 N1076 1.383 . S
C1080 C1079 1.439 . S
C1080 C1098 1.392 . S
N1081 Co1065 2.282 . S
N1081 C1084 1.332 . S
N1081 C1086 1.332 . S
C1082 C1083 1.386 . S
C1082 C1085 1.388 . S
C1083 C1082 1.386 . S
C1083 C1084 1.382 . S
C1083 H1109 0.950 . S
C1084 N1081 1.332 . S
C1084 C1083 1.382 . S
C1084 H1095 0.952 . S
C1085 C1082 1.388 . S
C1085 C1086 1.382 . S
C1085 H1110 0.950 . S
C1086 N1081 1.332 . S
C1086 C1085 1.382 . S
C1086 H1096 0.948 . S
N1087 Co1065 2.282 . S
N1087 C1091 1.332 . S
N1087 C1092 1.332 . S
C1088 C1089 1.388 . S
C1088 C1092 1.382 . S
C1088 H1111 0.950 . S
C1089 C1088 1.388 . S
C1089 C1090 1.386 . S
C1090 C1089 1.386 . S
C1090 C1091 1.382 . S
C1090 H1112 0.950 . S
C1091 N1087 1.332 . S
C1091 C1090 1.382 . S
C1091 H1093 0.952 . S
C1092 N1087 1.332 . S
C1092 C1088 1.382 . S
C1092 H1094 0.948 . S
H1093 C1091 0.952 . S
H1094 C1092 0.948 . S
H1095 C1084 0.952 . S
H1096 C1086 0.948 . S
C1097 C1063 1.395 . S
C1097 C1067 1.391 . S
C1098 C1060 1.389 . S
C1098 C1080 1.392 . S
C1099 C1070 1.392 . S
C1099 C1072 1.389 . S
C1100 C1075 1.395 . S
C1100 C1077 1.391 . S
H1101 C1061 0.951 . S
H1102 C1062 0.950 . S
H1103 C1068 0.949 . S
H1104 C1069 0.950 . S
H1105 C1073 0.951 . S
H1106 C1074 0.950 . S
H1107 C1078 0.949 . S
H1108 C1079 0.950 . S
H1109 C1083 0.950 . S
H1110 C1085 0.950 . S
H1111 C1088 0.950 . S
H1112 C1090 0.950 . S
C1113 C1114 1.443 . S
C1113 N1117 1.376 . S
C1113 C1151 1.389 . S
C1114 C1113 1.443 . S
C1114 C1115 1.340 . S
C1114 H1154 0.951 . S
C1115 C1114 1.340 . S
C1115 C1116 1.439 . S
C1115 H1155 0.950 . S
C1116 C1115 1.439 . S
C1116 N1117 1.374 . S
C1116 C1150 1.395 . S
N1117 C1113 1.376 . S
N1117 C1116 1.374 . S
N1117 Co1118 2.008 . S
Co1118 N1117 2.008 . S
Co1118 N1119 1.995 . S
Co1118 N1124 2.008 . S
Co1118 N1129 1.995 . S
Co1118 N1134 2.282 . S
Co1118 N1140 2.282 . S
N1119 Co1118 1.995 . S
N1119 C1120 1.376 . S
N1119 C1123 1.383 . S
C1120 N1119 1.376 . S
C1120 C1121 1.446 . S
C1120 C1150 1.391 . S
C1121 C1120 1.446 . S
C1121 C1122 1.339 . S
C1121 H1156 0.949 . S
C1122 C1121 1.339 . S
C1122 C1123 1.439 . S
C1122 H1157 0.950 . S
C1123 N1119 1.383 . S
C1123 C1122 1.439 . S
C1123 C1152 1.392 . S
N1124 Co1118 2.008 . S
N1124 C1125 1.376 . S
N1124 C1128 1.374 . S
C1125 N1124 1.376 . S
C1125 C1126 1.443 . S
C1125 C1152 1.389 . S
C1126 C1125 1.443 . S
C1126 C1127 1.340 . S
C1126 H1158 0.951 . S
C1127 C1126 1.340 . S
C1127 C1128 1.439 . S
C1127 H1159 0.950 . S
C1128 N1124 1.374 . S
C1128 C1127 1.439 . S
C1128 C1153 1.395 . S
N1129 Co1118 1.995 . S
N1129 C1130 1.376 . S
N1129 C1133 1.383 . S
C1130 N1129 1.376 . S
C1130 C1131 1.446 . S
C1130 C1153 1.391 . S
C1131 C1130 1.446 . S
C1131 C1132 1.339 . S
C1131 H1160 0.949 . S
C1132 C1131 1.339 . S
C1132 C1133 1.439 . S
C1132 H1161 0.950 . S
C1133 N1129 1.383 . S
C1133 C1132 1.439 . S
C1133 C1151 1.392 . S
N1134 Co1118 2.282 . S
N1134 C1137 1.332 . S
N1134 C1139 1.332 . S
C1135 C1136 1.386 . S
C1135 C1138 1.388 . S
C1136 C1135 1.386 . S
C1136 C1137 1.382 . S
C1136 H1162 0.950 . S
C1137 N1134 1.332 . S
C1137 C1136 1.382 . S
C1137 H1148 0.952 . S
C1138 C1135 1.388 . S
C1138 C1139 1.382 . S
C1138 H1163 0.950 . S
C1139 N1134 1.332 . S
C1139 C1138 1.382 . S
C1139 H1149 0.948 . S
N1140 Co1118 2.282 . S
N1140 C1144 1.332 . S
N1140 C1145 1.332 . S
C1141 C1142 1.388 . S
C1141 C1145 1.382 . S
C1141 H1164 0.950 . S
C1142 C1141 1.388 . S
C1142 C1143 1.386 . S
C1143 C1142 1.386 . S
C1143 C1144 1.382 . S
C1143 H1165 0.950 . S
C1144 N1140 1.332 . S
C1144 C1143 1.382 . S
C1144 H1146 0.952 . S
C1145 N1140 1.332 . S
C1145 C1141 1.382 . S
C1145 H1147 0.948 . S
H1146 C1144 0.952 . S
H1147 C1145 0.948 . S
H1148 C1137 0.952 . S
H1149 C1139 0.948 . S
C1150 C1116 1.395 . S
C1150 C1120 1.391 . S
C1151 C1113 1.389 . S
C1151 C1133 1.392 . S
C1152 C1123 1.392 . S
C1152 C1125 1.389 . S
C1153 C1128 1.395 . S
C1153 C1130 1.391 . S
H1154 C1114 0.951 . S
H1155 C1115 0.950 . S
H1156 C1121 0.949 . S
H1157 C1122 0.950 . S
H1158 C1126 0.951 . S
H1159 C1127 0.950 . S
H1160 C1131 0.949 . S
H1161 C1132 0.950 . S
H1162 C1136 0.950 . S
H1163 C1138 0.950 . S
H1164 C1141 0.950 . S
H1165 C1143 0.950 . S
C1166 C1167 1.443 . S
C1166 N1170 1.376 . S
C1166 C1204 1.389 . S
C1167 C1166 1.443 . S
C1167 C1168 1.340 . S
C1167 H1207 0.951 . S
C1168 C1167 1.340 . S
C1168 C1169 1.439 . S
C1168 H1208 0.950 . S
C1169 C1168 1.439 . S
C1169 N1170 1.374 . S
C1169 C1203 1.395 . S
N1170 C1166 1.376 . S
N1170 C1169 1.374 . S
N1170 Co1171 2.008 . S
Co1171 N1170 2.008 . S
Co1171 N1172 1.995 . S
Co1171 N1177 2.008 . S
Co1171 N1182 1.995 . S
Co1171 N1187 2.282 . S
Co1171 N1193 2.282 . S
N1172 Co1171 1.995 . S
N1172 C1173 1.376 . S
N1172 C1176 1.383 . S
C1173 N1172 1.376 . S
C1173 C1174 1.446 . S
C1173 C1203 1.391 . S
C1174 C1173 1.446 . S
C1174 C1175 1.339 . S
C1174 H1209 0.949 . S
C1175 C1174 1.339 . S
C1175 C1176 1.439 . S
C1175 H1210 0.950 . S
C1176 N1172 1.383 . S
C1176 C1175 1.439 . S
C1176 C1205 1.392 . S
N1177 Co1171 2.008 . S
N1177 C1178 1.376 . S
N1177 C1181 1.374 . S
C1178 N1177 1.376 . S
C1178 C1179 1.443 . S
C1178 C1205 1.389 . S
C1179 C1178 1.443 . S
C1179 C1180 1.340 . S
C1179 H1211 0.951 . S
C1180 C1179 1.340 . S
C1180 C1181 1.439 . S
C1180 H1212 0.950 . S
C1181 N1177 1.374 . S
C1181 C1180 1.439 . S
C1181 C1206 1.395 . S
N1182 Co1171 1.995 . S
N1182 C1183 1.376 . S
N1182 C1186 1.383 . S
C1183 N1182 1.376 . S
C1183 C1184 1.446 . S
C1183 C1206 1.391 . S
C1184 C1183 1.446 . S
C1184 C1185 1.339 . S
C1184 H1213 0.949 . S
C1185 C1184 1.339 . S
C1185 C1186 1.439 . S
C1185 H1214 0.950 . S
C1186 N1182 1.383 . S
C1186 C1185 1.439 . S
C1186 C1204 1.392 . S
N1187 Co1171 2.282 . S
N1187 C1190 1.332 . S
N1187 C1192 1.332 . S
C1188 C1189 1.386 . S
C1188 C1191 1.388 . S
C1189 C1188 1.386 . S
C1189 C1190 1.382 . S
C1189 H1215 0.950 . S
C1190 N1187 1.332 . S
C1190 C1189 1.382 . S
C1190 H1201 0.952 . S
C1191 C1188 1.388 . S
C1191 C1192 1.382 . S
C1191 H1216 0.950 . S
C1192 N1187 1.332 . S
C1192 C1191 1.382 . S
C1192 H1202 0.948 . S
N1193 Co1171 2.282 . S
N1193 C1197 1.332 . S
N1193 C1198 1.332 . S
C1194 C1195 1.388 . S
C1194 C1198 1.382 . S
C1194 H1217 0.950 . S
C1195 C1194 1.388 . S
C1195 C1196 1.386 . S
C1196 C1195 1.386 . S
C1196 C1197 1.382 . S
C1196 H1218 0.950 . S
C1197 N1193 1.332 . S
C1197 C1196 1.382 . S
C1197 H1199 0.952 . S
C1198 N1193 1.332 . S
C1198 C1194 1.382 . S
C1198 H1200 0.948 . S
H1199 C1197 0.952 . S
H1200 C1198 0.948 . S
H1201 C1190 0.952 . S
H1202 C1192 0.948 . S
C1203 C1169 1.395 . S
C1203 C1173 1.391 . S
C1204 C1166 1.389 . S
C1204 C1186 1.392 . S
C1205 C1176 1.392 . S
C1205 C1178 1.389 . S
C1206 C1181 1.395 . S
C1206 C1183 1.391 . S
H1207 C1167 0.951 . S
H1208 C1168 0.950 . S
H1209 C1174 0.949 . S
H1210 C1175 0.950 . S
H1211 C1179 0.951 . S
H1212 C1180 0.950 . S
H1213 C1184 0.949 . S
H1214 C1185 0.950 . S
H1215 C1189 0.950 . S
H1216 C1191 0.950 . S
H1217 C1194 0.950 . S
H1218 C1196 0.950 . S
C1219 C1220 1.443 . S
C1219 N1223 1.376 . S
C1219 C1257 1.389 . S
C1220 C1219 1.443 . S
C1220 C1221 1.340 . S
C1220 H1260 0.951 . S
C1221 C1220 1.340 . S
C1221 C1222 1.439 . S
C1221 H1261 0.950 . S
C1222 C1221 1.439 . S
C1222 N1223 1.374 . S
C1222 C1256 1.395 . S
N1223 C1219 1.376 . S
N1223 C1222 1.374 . S
N1223 Co1224 2.008 . S
Co1224 N1223 2.008 . S
Co1224 N1225 1.995 . S
Co1224 N1230 2.008 . S
Co1224 N1235 1.995 . S
Co1224 N1240 2.282 . S
Co1224 N1246 2.282 . S
N1225 Co1224 1.995 . S
N1225 C1226 1.376 . S
N1225 C1229 1.383 . S
C1226 N1225 1.376 . S
C1226 C1227 1.446 . S
C1226 C1256 1.391 . S
C1227 C1226 1.446 . S
C1227 C1228 1.339 . S
C1227 H1262 0.949 . S
C1228 C1227 1.339 . S
C1228 C1229 1.439 . S
C1228 H1263 0.950 . S
C1229 N1225 1.383 . S
C1229 C1228 1.439 . S
C1229 C1258 1.392 . S
N1230 Co1224 2.008 . S
N1230 C1231 1.376 . S
N1230 C1234 1.374 . S
C1231 N1230 1.376 . S
C1231 C1232 1.443 . S
C1231 C1258 1.389 . S
C1232 C1231 1.443 . S
C1232 C1233 1.340 . S
C1232 H1264 0.951 . S
C1233 C1232 1.340 . S
C1233 C1234 1.439 . S
C1233 H1265 0.950 . S
C1234 N1230 1.374 . S
C1234 C1233 1.439 . S
C1234 C1259 1.395 . S
N1235 Co1224 1.995 . S
N1235 C1236 1.376 . S
N1235 C1239 1.383 . S
C1236 N1235 1.376 . S
C1236 C1237 1.446 . S
C1236 C1259 1.391 . S
C1237 C1236 1.446 . S
C1237 C1238 1.339 . S
C1237 H1266 0.949 . S
C1238 C1237 1.339 . S
C1238 C1239 1.439 . S
C1238 H1267 0.950 . S
C1239 N1235 1.383 . S
C1239 C1238 1.439 . S
C1239 C1257 1.392 . S
N1240 Co1224 2.282 . S
N1240 C1243 1.332 . S
N1240 C1245 1.332 . S
C1241 C1242 1.386 . S
C1241 C1244 1.388 . S
C1242 C1241 1.386 . S
C1242 C1243 1.382 . S
C1242 H1268 0.950 . S
C1243 N1240 1.332 . S
C1243 C1242 1.382 . S
C1243 H1254 0.952 . S
C1244 C1241 1.388 . S
C1244 C1245 1.382 . S
C1244 H1269 0.950 . S
C1245 N1240 1.332 . S
C1245 C1244 1.382 . S
C1245 H1255 0.948 . S
N1246 Co1224 2.282 . S
N1246 C1250 1.332 . S
N1246 C1251 1.332 . S
C1247 C1248 1.388 . S
C1247 C1251 1.382 . S
C1247 H1270 0.950 . S
C1248 C1247 1.388 . S
C1248 C1249 1.386 . S
C1249 C1248 1.386 . S
C1249 C1250 1.382 . S
C1249 H1271 0.950 . S
C1250 N1246 1.332 . S
C1250 C1249 1.382 . S
C1250 H1252 0.952 . S
C1251 N1246 1.332 . S
C1251 C1247 1.382 . S
C1251 H1253 0.948 . S
H1252 C1250 0.952 . S
H1253 C1251 0.948 . S
H1254 C1243 0.952 . S
H1255 C1245 0.948 . S
C1256 C1222 1.395 . S
C1256 C1226 1.391 . S
C1257 C1219 1.389 . S
C1257 C1239 1.392 . S
C1258 C1229 1.392 . S
C1258 C1231 1.389 . S
C1259 C1234 1.395 . S
C1259 C1236 1.391 . S
H1260 C1220 0.951 . S
H1261 C1221 0.950 . S
H1262 C1227 0.949 . S
H1263 C1228 0.950 . S
H1264 C1232 0.951 . S
H1265 C1233 0.950 . S
H1266 C1237 0.949 . S
H1267 C1238 0.950 . S
H1268 C1242 0.950 . S
H1269 C1244 0.950 . S
H1270 C1247 0.950 . S
H1271 C1249 0.950 . S
C1272 C1273 1.443 . S
C1272 N1276 1.376 . S
C1272 C1310 1.389 . S
C1273 C1272 1.443 . S
C1273 C1274 1.340 . S
C1273 H1313 0.951 . S
C1274 C1273 1.340 . S
C1274 C1275 1.439 . S
C1274 H1314 0.950 . S
C1275 C1274 1.439 . S
C1275 N1276 1.374 . S
C1275 C1309 1.395 . S
N1276 C1272 1.376 . S
N1276 C1275 1.374 . S
N1276 Co1277 2.008 . S
Co1277 N1276 2.008 . S
Co1277 N1278 1.995 . S
Co1277 N1283 2.008 . S
Co1277 N1288 1.995 . S
Co1277 N1293 2.282 . S
Co1277 N1299 2.282 . S
N1278 Co1277 1.995 . S
N1278 C1279 1.376 . S
N1278 C1282 1.383 . S
C1279 N1278 1.376 . S
C1279 C1280 1.446 . S
C1279 C1309 1.391 . S
C1280 C1279 1.446 . S
C1280 C1281 1.339 . S
C1280 H1315 0.949 . S
C1281 C1280 1.339 . S
C1281 C1282 1.439 . S
C1281 H1316 0.950 . S
C1282 N1278 1.383 . S
C1282 C1281 1.439 . S
C1282 C1311 1.392 . S
N1283 Co1277 2.008 . S
N1283 C1284 1.376 . S
N1283 C1287 1.374 . S
C1284 N1283 1.376 . S
C1284 C1285 1.443 . S
C1284 C1311 1.389 . S
C1285 C1284 1.443 . S
C1285 C1286 1.340 . S
C1285 H1317 0.951 . S
C1286 C1285 1.340 . S
C1286 C1287 1.439 . S
C1286 H1318 0.950 . S
C1287 N1283 1.374 . S
C1287 C1286 1.439 . S
C1287 C1312 1.395 . S
N1288 Co1277 1.995 . S
N1288 C1289 1.376 . S
N1288 C1292 1.383 . S
C1289 N1288 1.376 . S
C1289 C1290 1.446 . S
C1289 C1312 1.391 . S
C1290 C1289 1.446 . S
C1290 C1291 1.339 . S
C1290 H1319 0.949 . S
C1291 C1290 1.339 . S
C1291 C1292 1.439 . S
C1291 H1320 0.950 . S
C1292 N1288 1.383 . S
C1292 C1291 1.439 . S
C1292 C1310 1.392 . S
N1293 Co1277 2.282 . S
N1293 C1296 1.332 . S
N1293 C1298 1.332 . S
C1294 C1295 1.386 . S
C1294 C1297 1.388 . S
C1295 C1294 1.386 . S
C1295 C1296 1.382 . S
C1295 H1321 0.950 . S
C1296 N1293 1.332 . S
C1296 C1295 1.382 . S
C1296 H1307 0.952 . S
C1297 C1294 1.388 . S
C1297 C1298 1.382 . S
C1297 H1322 0.950 . S
C1298 N1293 1.332 . S
C1298 C1297 1.382 . S
C1298 H1308 0.948 . S
N1299 Co1277 2.282 . S
N1299 C1303 1.332 . S
N1299 C1304 1.332 . S
C1300 C1301 1.388 . S
C1300 C1304 1.382 . S
C1300 H1323 0.950 . S
C1301 C1300 1.388 . S
C1301 C1302 1.386 . S
C1302 C1301 1.386 . S
C1302 C1303 1.382 . S
C1302 H1324 0.950 . S
C1303 N1299 1.332 . S
C1303 C1302 1.382 . S
C1303 H1305 0.952 . S
C1304 N1299 1.332 . S
C1304 C1300 1.382 . S
C1304 H1306 0.948 . S
H1305 C1303 0.952 . S
H1306 C1304 0.948 . S
H1307 C1296 0.952 . S
H1308 C1298 0.948 . S
C1309 C1275 1.395 . S
C1309 C1279 1.391 . S
C1310 C1272 1.389 . S
C1310 C1292 1.392 . S
C1311 C1282 1.392 . S
C1311 C1284 1.389 . S
C1312 C1287 1.395 . S
C1312 C1289 1.391 . S
H1313 C1273 0.951 . S
H1314 C1274 0.950 . S
H1315 C1280 0.949 . S
H1316 C1281 0.950 . S
H1317 C1285 0.951 . S
H1318 C1286 0.950 . S
H1319 C1290 0.949 . S
H1320 C1291 0.950 . S
H1321 C1295 0.950 . S
H1322 C1297 0.950 . S
H1323 C1300 0.950 . S
H1324 C1302 0.950 . S
C1325 C1326 1.443 . S
C1325 N1329 1.376 . S
C1325 C1363 1.389 . S
C1326 C1325 1.443 . S
C1326 C1327 1.340 . S
C1326 H1366 0.951 . S
C1327 C1326 1.340 . S
C1327 C1328 1.439 . S
C1327 H1367 0.950 . S
C1328 C1327 1.439 . S
C1328 N1329 1.374 . S
C1328 C1362 1.395 . S
N1329 C1325 1.376 . S
N1329 C1328 1.374 . S
N1329 Co1330 2.008 . S
Co1330 N1329 2.008 . S
Co1330 N1331 1.995 . S
Co1330 N1336 2.008 . S
Co1330 N1341 1.995 . S
Co1330 N1346 2.282 . S
Co1330 N1352 2.282 . S
N1331 Co1330 1.995 . S
N1331 C1332 1.376 . S
N1331 C1335 1.383 . S
C1332 N1331 1.376 . S
C1332 C1333 1.446 . S
C1332 C1362 1.391 . S
C1333 C1332 1.446 . S
C1333 C1334 1.339 . S
C1333 H1368 0.949 . S
C1334 C1333 1.339 . S
C1334 C1335 1.439 . S
C1334 H1369 0.950 . S
C1335 N1331 1.383 . S
C1335 C1334 1.439 . S
C1335 C1364 1.392 . S
N1336 Co1330 2.008 . S
N1336 C1337 1.376 . S
N1336 C1340 1.374 . S
C1337 N1336 1.376 . S
C1337 C1338 1.443 . S
C1337 C1364 1.389 . S
C1338 C1337 1.443 . S
C1338 C1339 1.340 . S
C1338 H1370 0.951 . S
C1339 C1338 1.340 . S
C1339 C1340 1.439 . S
C1339 H1371 0.950 . S
C1340 N1336 1.374 . S
C1340 C1339 1.439 . S
C1340 C1365 1.395 . S
N1341 Co1330 1.995 . S
N1341 C1342 1.376 . S
N1341 C1345 1.383 . S
C1342 N1341 1.376 . S
C1342 C1343 1.446 . S
C1342 C1365 1.391 . S
C1343 C1342 1.446 . S
C1343 C1344 1.339 . S
C1343 H1372 0.949 . S
C1344 C1343 1.339 . S
C1344 C1345 1.439 . S
C1344 H1373 0.950 . S
C1345 N1341 1.383 . S
C1345 C1344 1.439 . S
C1345 C1363 1.392 . S
N1346 Co1330 2.282 . S
N1346 C1349 1.332 . S
N1346 C1351 1.332 . S
C1347 C1348 1.386 . S
C1347 C1350 1.388 . S
C1348 C1347 1.386 . S
C1348 C1349 1.382 . S
C1348 H1374 0.950 . S
C1349 N1346 1.332 . S
C1349 C1348 1.382 . S
C1349 H1360 0.952 . S
C1350 C1347 1.388 . S
C1350 C1351 1.382 . S
C1350 H1375 0.950 . S
C1351 N1346 1.332 . S
C1351 C1350 1.382 . S
C1351 H1361 0.948 . S
N1352 Co1330 2.282 . S
N1352 C1356 1.332 . S
N1352 C1357 1.332 . S
C1353 C1354 1.388 . S
C1353 C1357 1.382 . S
C1353 H1376 0.950 . S
C1354 C1353 1.388 . S
C1354 C1355 1.386 . S
C1355 C1354 1.386 . S
C1355 C1356 1.382 . S
C1355 H1377 0.950 . S
C1356 N1352 1.332 . S
C1356 C1355 1.382 . S
C1356 H1358 0.952 . S
C1357 N1352 1.332 . S
C1357 C1353 1.382 . S
C1357 H1359 0.948 . S
H1358 C1356 0.952 . S
H1359 C1357 0.948 . S
H1360 C1349 0.952 . S
H1361 C1351 0.948 . S
C1362 C1328 1.395 . S
C1362 C1332 1.391 . S
C1363 C1325 1.389 . S
C1363 C1345 1.392 . S
C1364 C1335 1.392 . S
C1364 C1337 1.389 . S
C1365 C1340 1.395 . S
C1365 C1342 1.391 . S
H1366 C1326 0.951 . S
H1367 C1327 0.950 . S
H1368 C1333 0.949 . S
H1369 C1334 0.950 . S
H1370 C1338 0.951 . S
H1371 C1339 0.950 . S
H1372 C1343 0.949 . S
H1373 C1344 0.950 . S
H1374 C1348 0.950 . S
H1375 C1350 0.950 . S
H1376 C1353 0.950 . S
H1377 C1355 0.950 . S
C1378 C1379 1.443 . S
C1378 N1382 1.376 . S
C1378 C1416 1.389 . S
C1379 C1378 1.443 . S
C1379 C1380 1.340 . S
C1379 H1419 0.951 . S
C1380 C1379 1.340 . S
C1380 C1381 1.439 . S
C1380 H1420 0.950 . S
C1381 C1380 1.439 . S
C1381 N1382 1.374 . S
C1381 C1415 1.395 . S
N1382 C1378 1.376 . S
N1382 C1381 1.374 . S
N1382 Co1383 2.008 . S
Co1383 N1382 2.008 . S
Co1383 N1384 1.995 . S
Co1383 N1389 2.008 . S
Co1383 N1394 1.995 . S
Co1383 N1399 2.282 . S
Co1383 N1405 2.282 . S
N1384 Co1383 1.995 . S
N1384 C1385 1.376 . S
N1384 C1388 1.383 . S
C1385 N1384 1.376 . S
C1385 C1386 1.446 . S
C1385 C1415 1.391 . S
C1386 C1385 1.446 . S
C1386 C1387 1.339 . S
C1386 H1421 0.949 . S
C1387 C1386 1.339 . S
C1387 C1388 1.439 . S
C1387 H1422 0.950 . S
C1388 N1384 1.383 . S
C1388 C1387 1.439 . S
C1388 C1417 1.392 . S
N1389 Co1383 2.008 . S
N1389 C1390 1.376 . S
N1389 C1393 1.374 . S
C1390 N1389 1.376 . S
C1390 C1391 1.443 . S
C1390 C1417 1.389 . S
C1391 C1390 1.443 . S
C1391 C1392 1.340 . S
C1391 H1423 0.951 . S
C1392 C1391 1.340 . S
C1392 C1393 1.439 . S
C1392 H1424 0.950 . S
C1393 N1389 1.374 . S
C1393 C1392 1.439 . S
C1393 C1418 1.395 . S
N1394 Co1383 1.995 . S
N1394 C1395 1.376 . S
N1394 C1398 1.383 . S
C1395 N1394 1.376 . S
C1395 C1396 1.446 . S
C1395 C1418 1.391 . S
C1396 C1395 1.446 . S
C1396 C1397 1.339 . S
C1396 H1425 0.949 . S
C1397 C1396 1.339 . S
C1397 C1398 1.439 . S
C1397 H1426 0.950 . S
C1398 N1394 1.383 . S
C1398 C1397 1.439 . S
C1398 C1416 1.392 . S
N1399 Co1383 2.282 . S
N1399 C1402 1.332 . S
N1399 C1404 1.332 . S
C1400 C1401 1.386 . S
C1400 C1403 1.388 . S
C1401 C1400 1.386 . S
C1401 C1402 1.382 . S
C1401 H1427 0.950 . S
C1402 N1399 1.332 . S
C1402 C1401 1.382 . S
C1402 H1413 0.952 . S
C1403 C1400 1.388 . S
C1403 C1404 1.382 . S
C1403 H1428 0.950 . S
C1404 N1399 1.332 . S
C1404 C1403 1.382 . S
C1404 H1414 0.948 . S
N1405 Co1383 2.282 . S
N1405 C1409 1.332 . S
N1405 C1410 1.332 . S
C1406 C1407 1.388 . S
C1406 C1410 1.382 . S
C1406 H1429 0.950 . S
C1407 C1406 1.388 . S
C1407 C1408 1.386 . S
C1408 C1407 1.386 . S
C1408 C1409 1.382 . S
C1408 H1430 0.950 . S
C1409 N1405 1.332 . S
C1409 C1408 1.382 . S
C1409 H1411 0.952 . S
C1410 N1405 1.332 . S
C1410 C1406 1.382 . S
C1410 H1412 0.948 . S
H1411 C1409 0.952 . S
H1412 C1410 0.948 . S
H1413 C1402 0.952 . S
H1414 C1404 0.948 . S
C1415 C1381 1.395 . S
C1415 C1385 1.391 . S
C1416 C1378 1.389 . S
C1416 C1398 1.392 . S
C1417 C1388 1.392 . S
C1417 C1390 1.389 . S
C1418 C1393 1.395 . S
C1418 C1395 1.391 . S
H1419 C1379 0.951 . S
H1420 C1380 0.950 . S
H1421 C1386 0.949 . S
H1422 C1387 0.950 . S
H1423 C1391 0.951 . S
H1424 C1392 0.950 . S
H1425 C1396 0.949 . S
H1426 C1397 0.950 . S
H1427 C1401 0.950 . S
H1428 C1403 0.950 . S
H1429 C1406 0.950 . S
H1430 C1408 0.950 . S
C1431 C1432 1.443 . S
C1431 N1435 1.376 . S
C1431 C1469 1.389 . S
C1432 C1431 1.443 . S
C1432 C1433 1.340 . S
C1432 H1472 0.951 . S
C1433 C1432 1.340 . S
C1433 C1434 1.439 . S
C1433 H1473 0.950 . S
C1434 C1433 1.439 . S
C1434 N1435 1.374 . S
C1434 C1468 1.395 . S
N1435 C1431 1.376 . S
N1435 C1434 1.374 . S
N1435 Co1436 2.008 . S
Co1436 N1435 2.008 . S
Co1436 N1437 1.995 . S
Co1436 N1442 2.008 . S
Co1436 N1447 1.995 . S
Co1436 N1452 2.282 . S
Co1436 N1458 2.282 . S
N1437 Co1436 1.995 . S
N1437 C1438 1.376 . S
N1437 C1441 1.383 . S
C1438 N1437 1.376 . S
C1438 C1439 1.446 . S
C1438 C1468 1.391 . S
C1439 C1438 1.446 . S
C1439 C1440 1.339 . S
C1439 H1474 0.949 . S
C1440 C1439 1.339 . S
C1440 C1441 1.439 . S
C1440 H1475 0.950 . S
C1441 N1437 1.383 . S
C1441 C1440 1.439 . S
C1441 C1470 1.392 . S
N1442 Co1436 2.008 . S
N1442 C1443 1.376 . S
N1442 C1446 1.374 . S
C1443 N1442 1.376 . S
C1443 C1444 1.443 . S
C1443 C1470 1.389 . S
C1444 C1443 1.443 . S
C1444 C1445 1.340 . S
C1444 H1476 0.951 . S
C1445 C1444 1.340 . S
C1445 C1446 1.439 . S
C1445 H1477 0.950 . S
C1446 N1442 1.374 . S
C1446 C1445 1.439 . S
C1446 C1471 1.395 . S
N1447 Co1436 1.995 . S
N1447 C1448 1.376 . S
N1447 C1451 1.383 . S
C1448 N1447 1.376 . S
C1448 C1449 1.446 . S
C1448 C1471 1.391 . S
C1449 C1448 1.446 . S
C1449 C1450 1.339 . S
C1449 H1478 0.949 . S
C1450 C1449 1.339 . S
C1450 C1451 1.439 . S
C1450 H1479 0.950 . S
C1451 N1447 1.383 . S
C1451 C1450 1.439 . S
C1451 C1469 1.392 . S
N1452 Co1436 2.282 . S
N1452 C1455 1.332 . S
N1452 C1457 1.332 . S
C1453 C1454 1.386 . S
C1453 C1456 1.388 . S
C1454 C1453 1.386 . S
C1454 C1455 1.382 . S
C1454 H1480 0.950 . S
C1455 N1452 1.332 . S
C1455 C1454 1.382 . S
C1455 H1466 0.952 . S
C1456 C1453 1.388 . S
C1456 C1457 1.382 . S
C1456 H1481 0.950 . S
C1457 N1452 1.332 . S
C1457 C1456 1.382 . S
C1457 H1467 0.948 . S
N1458 Co1436 2.282 . S
N1458 C1462 1.332 . S
N1458 C1463 1.332 . S
C1459 C1460 1.388 . S
C1459 C1463 1.382 . S
C1459 H1482 0.950 . S
C1460 C1459 1.388 . S
C1460 C1461 1.386 . S
C1461 C1460 1.386 . S
C1461 C1462 1.382 . S
C1461 H1483 0.950 . S
C1462 N1458 1.332 . S
C1462 C1461 1.382 . S
C1462 H1464 0.952 . S
C1463 N1458 1.332 . S
C1463 C1459 1.382 . S
C1463 H1465 0.948 . S
H1464 C1462 0.952 . S
H1465 C1463 0.948 . S
H1466 C1455 0.952 . S
H1467 C1457 0.948 . S
C1468 C1434 1.395 . S
C1468 C1438 1.391 . S
C1469 C1431 1.389 . S
C1469 C1451 1.392 . S
C1470 C1441 1.392 . S
C1470 C1443 1.389 . S
C1471 C1446 1.395 . S
C1471 C1448 1.391 . S
H1472 C1432 0.951 . S
H1473 C1433 0.950 . S
H1474 C1439 0.949 . S
H1475 C1440 0.950 . S
H1476 C1444 0.951 . S
H1477 C1445 0.950 . S
H1478 C1449 0.949 . S
H1479 C1450 0.950 . S
H1480 C1454 0.950 . S
H1481 C1456 0.950 . S
H1482 C1459 0.950 . S
H1483 C1461 0.950 . S
C1484 C1485 1.443 . S
C1484 N1488 1.376 . S
C1484 C1522 1.389 . S
C1485 C1484 1.443 . S
C1485 C1486 1.340 . S
C1485 H1525 0.951 . S
C1486 C1485 1.340 . S
C1486 C1487 1.439 . S
C1486 H1526 0.950 . S
C1487 C1486 1.439 . S
C1487 N1488 1.374 . S
C1487 C1521 1.395 . S
N1488 C1484 1.376 . S
N1488 C1487 1.374 . S
N1488 Co1489 2.008 . S
Co1489 N1488 2.008 . S
Co1489 N1490 1.995 . S
Co1489 N1495 2.008 . S
Co1489 N1500 1.995 . S
Co1489 N1505 2.282 . S
Co1489 N1511 2.282 . S
N1490 Co1489 1.995 . S
N1490 C1491 1.376 . S
N1490 C1494 1.383 . S
C1491 N1490 1.376 . S
C1491 C1492 1.446 . S
C1491 C1521 1.391 . S
C1492 C1491 1.446 . S
C1492 C1493 1.339 . S
C1492 H1527 0.949 . S
C1493 C1492 1.339 . S
C1493 C1494 1.439 . S
C1493 H1528 0.950 . S
C1494 N1490 1.383 . S
C1494 C1493 1.439 . S
C1494 C1523 1.392 . S
N1495 Co1489 2.008 . S
N1495 C1496 1.376 . S
N1495 C1499 1.374 . S
C1496 N1495 1.376 . S
C1496 C1497 1.443 . S
C1496 C1523 1.389 . S
C1497 C1496 1.443 . S
C1497 C1498 1.340 . S
C1497 H1529 0.951 . S
C1498 C1497 1.340 . S
C1498 C1499 1.439 . S
C1498 H1530 0.950 . S
C1499 N1495 1.374 . S
C1499 C1498 1.439 . S
C1499 C1524 1.395 . S
N1500 Co1489 1.995 . S
N1500 C1501 1.376 . S
N1500 C1504 1.383 . S
C1501 N1500 1.376 . S
C1501 C1502 1.446 . S
C1501 C1524 1.391 . S
C1502 C1501 1.446 . S
C1502 C1503 1.339 . S
C1502 H1531 0.949 . S
C1503 C1502 1.339 . S
C1503 C1504 1.439 . S
C1503 H1532 0.950 . S
C1504 N1500 1.383 . S
C1504 C1503 1.439 . S
C1504 C1522 1.392 . S
N1505 Co1489 2.282 . S
N1505 C1508 1.332 . S
N1505 C1510 1.332 . S
C1506 C1507 1.386 . S
C1506 C1509 1.388 . S
C1507 C1506 1.386 . S
C1507 C1508 1.382 . S
C1507 H1533 0.950 . S
C1508 N1505 1.332 . S
C1508 C1507 1.382 . S
C1508 H1519 0.952 . S
C1509 C1506 1.388 . S
C1509 C1510 1.382 . S
C1509 H1534 0.950 . S
C1510 N1505 1.332 . S
C1510 C1509 1.382 . S
C1510 H1520 0.948 . S
N1511 Co1489 2.282 . S
N1511 C1515 1.332 . S
N1511 C1516 1.332 . S
C1512 C1513 1.388 . S
C1512 C1516 1.382 . S
C1512 H1535 0.950 . S
C1513 C1512 1.388 . S
C1513 C1514 1.386 . S
C1514 C1513 1.386 . S
C1514 C1515 1.382 . S
C1514 H1536 0.950 . S
C1515 N1511 1.332 . S
C1515 C1514 1.382 . S
C1515 H1517 0.952 . S
C1516 N1511 1.332 . S
C1516 C1512 1.382 . S
C1516 H1518 0.948 . S
H1517 C1515 0.952 . S
H1518 C1516 0.948 . S
H1519 C1508 0.952 . S
H1520 C1510 0.948 . S
C1521 C1487 1.395 . S
C1521 C1491 1.391 . S
C1522 C1484 1.389 . S
C1522 C1504 1.392 . S
C1523 C1494 1.392 . S
C1523 C1496 1.389 . S
C1524 C1499 1.395 . S
C1524 C1501 1.391 . S
H1525 C1485 0.951 . S
H1526 C1486 0.950 . S
H1527 C1492 0.949 . S
H1528 C1493 0.950 . S
H1529 C1497 0.951 . S
H1530 C1498 0.950 . S
H1531 C1502 0.949 . S
H1532 C1503 0.950 . S
H1533 C1507 0.950 . S
H1534 C1509 0.950 . S
H1535 C1512 0.950 . S
H1536 C1514 0.950 . S
C1537 C1538 1.443 . S
C1537 N1541 1.376 . S
C1537 C1575 1.389 . S
C1538 C1537 1.443 . S
C1538 C1539 1.340 . S
C1538 H1578 0.951 . S
C1539 C1538 1.340 . S
C1539 C1540 1.439 . S
C1539 H1579 0.950 . S
C1540 C1539 1.439 . S
C1540 N1541 1.374 . S
C1540 C1574 1.395 . S
N1541 C1537 1.376 . S
N1541 C1540 1.374 . S
N1541 Co1542 2.008 . S
Co1542 N1541 2.008 . S
Co1542 N1543 1.995 . S
Co1542 N1548 2.008 . S
Co1542 N1553 1.995 . S
Co1542 N1558 2.282 . S
Co1542 N1564 2.282 . S
N1543 Co1542 1.995 . S
N1543 C1544 1.376 . S
N1543 C1547 1.383 . S
C1544 N1543 1.376 . S
C1544 C1545 1.446 . S
C1544 C1574 1.391 . S
C1545 C1544 1.446 . S
C1545 C1546 1.339 . S
C1545 H1580 0.949 . S
C1546 C1545 1.339 . S
C1546 C1547 1.439 . S
C1546 H1581 0.950 . S
C1547 N1543 1.383 . S
C1547 C1546 1.439 . S
C1547 C1576 1.392 . S
N1548 Co1542 2.008 . S
N1548 C1549 1.376 . S
N1548 C1552 1.374 . S
C1549 N1548 1.376 . S
C1549 C1550 1.443 . S
C1549 C1576 1.389 . S
C1550 C1549 1.443 . S
C1550 C1551 1.340 . S
C1550 H1582 0.951 . S
C1551 C1550 1.340 . S
C1551 C1552 1.439 . S
C1551 H1583 0.950 . S
C1552 N1548 1.374 . S
C1552 C1551 1.439 . S
C1552 C1577 1.395 . S
N1553 Co1542 1.995 . S
N1553 C1554 1.376 . S
N1553 C1557 1.383 . S
C1554 N1553 1.376 . S
C1554 C1555 1.446 . S
C1554 C1577 1.391 . S
C1555 C1554 1.446 . S
C1555 C1556 1.339 . S
C1555 H1584 0.949 . S
C1556 C1555 1.339 . S
C1556 C1557 1.439 . S
C1556 H1585 0.950 . S
C1557 N1553 1.383 . S
C1557 C1556 1.439 . S
C1557 C1575 1.392 . S
N1558 Co1542 2.282 . S
N1558 C1561 1.332 . S
N1558 C1563 1.332 . S
C1559 C1560 1.386 . S
C1559 C1562 1.388 . S
C1560 C1559 1.386 . S
C1560 C1561 1.382 . S
C1560 H1586 0.950 . S
C1561 N1558 1.332 . S
C1561 C1560 1.382 . S
C1561 H1572 0.952 . S
C1562 C1559 1.388 . S
C1562 C1563 1.382 . S
C1562 H1587 0.950 . S
C1563 N1558 1.332 . S
C1563 C1562 1.382 . S
C1563 H1573 0.948 . S
N1564 Co1542 2.282 . S
N1564 C1568 1.332 . S
N1564 C1569 1.332 . S
C1565 C1566 1.388 . S
C1565 C1569 1.382 . S
C1565 H1588 0.950 . S
C1566 C1565 1.388 . S
C1566 C1567 1.386 . S
C1567 C1566 1.386 . S
C1567 C1568 1.382 . S
C1567 H1589 0.950 . S
C1568 N1564 1.332 . S
C1568 C1567 1.382 . S
C1568 H1570 0.952 . S
C1569 N1564 1.332 . S
C1569 C1565 1.382 . S
C1569 H1571 0.948 . S
H1570 C1568 0.952 . S
H1571 C1569 0.948 . S
H1572 C1561 0.952 . S
H1573 C1563 0.948 . S
C1574 C1540 1.395 . S
C1574 C1544 1.391 . S
C1575 C1537 1.389 . S
C1575 C1557 1.392 . S
C1576 C1547 1.392 . S
C1576 C1549 1.389 . S
C1577 C1552 1.395 . S
C1577 C1554 1.391 . S
H1578 C1538 0.951 . S
H1579 C1539 0.950 . S
H1580 C1545 0.949 . S
H1581 C1546 0.950 . S
H1582 C1550 0.951 . S
H1583 C1551 0.950 . S
H1584 C1555 0.949 . S
H1585 C1556 0.950 . S
H1586 C1560 0.950 . S
H1587 C1562 0.950 . S
H1588 C1565 0.950 . S
H1589 C1567 0.950 . S
C1590 C1591 1.443 . S
C1590 N1594 1.376 . S
C1590 C1628 1.389 . S
C1591 C1590 1.443 . S
C1591 C1592 1.340 . S
C1591 H1631 0.951 . S
C1592 C1591 1.340 . S
C1592 C1593 1.439 . S
C1592 H1632 0.950 . S
C1593 C1592 1.439 . S
C1593 N1594 1.374 . S
C1593 C1627 1.395 . S
N1594 C1590 1.376 . S
N1594 C1593 1.374 . S
N1594 Co1595 2.008 . S
Co1595 N1594 2.008 . S
Co1595 N1596 1.995 . S
Co1595 N1601 2.008 . S
Co1595 N1606 1.995 . S
Co1595 N1611 2.282 . S
Co1595 N1617 2.282 . S
N1596 Co1595 1.995 . S
N1596 C1597 1.376 . S
N1596 C1600 1.383 . S
C1597 N1596 1.376 . S
C1597 C1598 1.446 . S
C1597 C1627 1.391 . S
C1598 C1597 1.446 . S
C1598 C1599 1.339 . S
C1598 H1633 0.949 . S
C1599 C1598 1.339 . S
C1599 C1600 1.439 . S
C1599 H1634 0.950 . S
C1600 N1596 1.383 . S
C1600 C1599 1.439 . S
C1600 C1629 1.392 . S
N1601 Co1595 2.008 . S
N1601 C1602 1.376 . S
N1601 C1605 1.374 . S
C1602 N1601 1.376 . S
C1602 C1603 1.443 . S
C1602 C1629 1.389 . S
C1603 C1602 1.443 . S
C1603 C1604 1.340 . S
C1603 H1635 0.951 . S
C1604 C1603 1.340 . S
C1604 C1605 1.439 . S
C1604 H1636 0.950 . S
C1605 N1601 1.374 . S
C1605 C1604 1.439 . S
C1605 C1630 1.395 . S
N1606 Co1595 1.995 . S
N1606 C1607 1.376 . S
N1606 C1610 1.383 . S
C1607 N1606 1.376 . S
C1607 C1608 1.446 . S
C1607 C1630 1.391 . S
C1608 C1607 1.446 . S
C1608 C1609 1.339 . S
C1608 H1637 0.949 . S
C1609 C1608 1.339 . S
C1609 C1610 1.439 . S
C1609 H1638 0.950 . S
C1610 N1606 1.383 . S
C1610 C1609 1.439 . S
C1610 C1628 1.392 . S
N1611 Co1595 2.282 . S
N1611 C1614 1.332 . S
N1611 C1616 1.332 . S
C1612 C1613 1.386 . S
C1612 C1615 1.388 . S
C1613 C1612 1.386 . S
C1613 C1614 1.382 . S
C1613 H1639 0.950 . S
C1614 N1611 1.332 . S
C1614 C1613 1.382 . S
C1614 H1625 0.952 . S
C1615 C1612 1.388 . S
C1615 C1616 1.382 . S
C1615 H1640 0.950 . S
C1616 N1611 1.332 . S
C1616 C1615 1.382 . S
C1616 H1626 0.948 . S
N1617 Co1595 2.282 . S
N1617 C1621 1.332 . S
N1617 C1622 1.332 . S
C1618 C1619 1.388 . S
C1618 C1622 1.382 . S
C1618 H1641 0.950 . S
C1619 C1618 1.388 . S
C1619 C1620 1.386 . S
C1620 C1619 1.386 . S
C1620 C1621 1.382 . S
C1620 H1642 0.950 . S
C1621 N1617 1.332 . S
C1621 C1620 1.382 . S
C1621 H1623 0.952 . S
C1622 N1617 1.332 . S
C1622 C1618 1.382 . S
C1622 H1624 0.948 . S
H1623 C1621 0.952 . S
H1624 C1622 0.948 . S
H1625 C1614 0.952 . S
H1626 C1616 0.948 . S
C1627 C1593 1.395 . S
C1627 C1597 1.391 . S
C1628 C1590 1.389 . S
C1628 C1610 1.392 . S
C1629 C1600 1.392 . S
C1629 C1602 1.389 . S
C1630 C1605 1.395 . S
C1630 C1607 1.391 . S
H1631 C1591 0.951 . S
H1632 C1592 0.950 . S
H1633 C1598 0.949 . S
H1634 C1599 0.950 . S
H1635 C1603 0.951 . S
H1636 C1604 0.950 . S
H1637 C1608 0.949 . S
H1638 C1609 0.950 . S
H1639 C1613 0.950 . S
H1640 C1615 0.950 . S
H1641 C1618 0.950 . S
H1642 C1620 0.950 . S
C1643 C1644 1.443 . S
C1643 N1647 1.376 . S
C1643 C1681 1.389 . S
C1644 C1643 1.443 . S
C1644 C1645 1.340 . S
C1644 H1684 0.951 . S
C1645 C1644 1.340 . S
C1645 C1646 1.439 . S
C1645 H1685 0.950 . S
C1646 C1645 1.439 . S
C1646 N1647 1.374 . S
C1646 C1680 1.395 . S
N1647 C1643 1.376 . S
N1647 C1646 1.374 . S
N1647 Co1648 2.008 . S
Co1648 N1647 2.008 . S
Co1648 N1649 1.995 . S
Co1648 N1654 2.008 . S
Co1648 N1659 1.995 . S
Co1648 N1664 2.282 . S
Co1648 N1670 2.282 . S
N1649 Co1648 1.995 . S
N1649 C1650 1.376 . S
N1649 C1653 1.383 . S
C1650 N1649 1.376 . S
C1650 C1651 1.446 . S
C1650 C1680 1.391 . S
C1651 C1650 1.446 . S
C1651 C1652 1.339 . S
C1651 H1686 0.949 . S
C1652 C1651 1.339 . S
C1652 C1653 1.439 . S
C1652 H1687 0.950 . S
C1653 N1649 1.383 . S
C1653 C1652 1.439 . S
C1653 C1682 1.392 . S
N1654 Co1648 2.008 . S
N1654 C1655 1.376 . S
N1654 C1658 1.374 . S
C1655 N1654 1.376 . S
C1655 C1656 1.443 . S
C1655 C1682 1.389 . S
C1656 C1655 1.443 . S
C1656 C1657 1.340 . S
C1656 H1688 0.951 . S
C1657 C1656 1.340 . S
C1657 C1658 1.439 . S
C1657 H1689 0.950 . S
C1658 N1654 1.374 . S
C1658 C1657 1.439 . S
C1658 C1683 1.395 . S
N1659 Co1648 1.995 . S
N1659 C1660 1.376 . S
N1659 C1663 1.383 . S
C1660 N1659 1.376 . S
C1660 C1661 1.446 . S
C1660 C1683 1.391 . S
C1661 C1660 1.446 . S
C1661 C1662 1.339 . S
C1661 H1690 0.949 . S
C1662 C1661 1.339 . S
C1662 C1663 1.439 . S
C1662 H1691 0.950 . S
C1663 N1659 1.383 . S
C1663 C1662 1.439 . S
C1663 C1681 1.392 . S
N1664 Co1648 2.282 . S
N1664 C1667 1.332 . S
N1664 C1669 1.332 . S
C1665 C1666 1.386 . S
C1665 C1668 1.388 . S
C1666 C1665 1.386 . S
C1666 C1667 1.382 . S
C1666 H1692 0.950 . S
C1667 N1664 1.332 . S
C1667 C1666 1.382 . S
C1667 H1678 0.952 . S
C1668 C1665 1.388 . S
C1668 C1669 1.382 . S
C1668 H1693 0.950 . S
C1669 N1664 1.332 . S
C1669 C1668 1.382 . S
C1669 H1679 0.948 . S
N1670 Co1648 2.282 . S
N1670 C1674 1.332 . S
N1670 C1675 1.332 . S
C1671 C1672 1.388 . S
C1671 C1675 1.382 . S
C1671 H1694 0.950 . S
C1672 C1671 1.388 . S
C1672 C1673 1.386 . S
C1673 C1672 1.386 . S
C1673 C1674 1.382 . S
C1673 H1695 0.950 . S
C1674 N1670 1.332 . S
C1674 C1673 1.382 . S
C1674 H1676 0.952 . S
C1675 N1670 1.332 . S
C1675 C1671 1.382 . S
C1675 H1677 0.948 . S
H1676 C1674 0.952 . S
H1677 C1675 0.948 . S
H1678 C1667 0.952 . S
H1679 C1669 0.948 . S
C1680 C1646 1.395 . S
C1680 C1650 1.391 . S
C1681 C1643 1.389 . S
C1681 C1663 1.392 . S
C1682 C1653 1.392 . S
C1682 C1655 1.389 . S
C1683 C1658 1.395 . S
C1683 C1660 1.391 . S
H1684 C1644 0.951 . S
H1685 C1645 0.950 . S
H1686 C1651 0.949 . S
H1687 C1652 0.950 . S
H1688 C1656 0.951 . S
H1689 C1657 0.950 . S
H1690 C1661 0.949 . S
H1691 C1662 0.950 . S
H1692 C1666 0.950 . S
H1693 C1668 0.950 . S
H1694 C1671 0.950 . S
H1695 C1673 0.950 . S
C1696 C1697 1.443 . S
C1696 N1700 1.376 . S
C1696 C1734 1.389 . S
C1697 C1696 1.443 . S
C1697 C1698 1.340 . S
C1697 H1737 0.951 . S
C1698 C1697 1.340 . S
C1698 C1699 1.439 . S
C1698 H1738 0.950 . S
C1699 C1698 1.439 . S
C1699 N1700 1.374 . S
C1699 C1733 1.395 . S
N1700 C1696 1.376 . S
N1700 C1699 1.374 . S
N1700 Co1701 2.008 . S
Co1701 N1700 2.008 . S
Co1701 N1702 1.995 . S
Co1701 N1707 2.008 . S
Co1701 N1712 1.995 . S
Co1701 N1717 2.282 . S
Co1701 N1723 2.282 . S
N1702 Co1701 1.995 . S
N1702 C1703 1.376 . S
N1702 C1706 1.383 . S
C1703 N1702 1.376 . S
C1703 C1704 1.446 . S
C1703 C1733 1.391 . S
C1704 C1703 1.446 . S
C1704 C1705 1.339 . S
C1704 H1739 0.949 . S
C1705 C1704 1.339 . S
C1705 C1706 1.439 . S
C1705 H1740 0.950 . S
C1706 N1702 1.383 . S
C1706 C1705 1.439 . S
C1706 C1735 1.392 . S
N1707 Co1701 2.008 . S
N1707 C1708 1.376 . S
N1707 C1711 1.374 . S
C1708 N1707 1.376 . S
C1708 C1709 1.443 . S
C1708 C1735 1.389 . S
C1709 C1708 1.443 . S
C1709 C1710 1.340 . S
C1709 H1741 0.951 . S
C1710 C1709 1.340 . S
C1710 C1711 1.439 . S
C1710 H1742 0.950 . S
C1711 N1707 1.374 . S
C1711 C1710 1.439 . S
C1711 C1736 1.395 . S
N1712 Co1701 1.995 . S
N1712 C1713 1.376 . S
N1712 C1716 1.383 . S
C1713 N1712 1.376 . S
C1713 C1714 1.446 . S
C1713 C1736 1.391 . S
C1714 C1713 1.446 . S
C1714 C1715 1.339 . S
C1714 H1743 0.949 . S
C1715 C1714 1.339 . S
C1715 C1716 1.439 . S
C1715 H1744 0.950 . S
C1716 N1712 1.383 . S
C1716 C1715 1.439 . S
C1716 C1734 1.392 . S
N1717 Co1701 2.282 . S
N1717 C1720 1.332 . S
N1717 C1722 1.332 . S
C1718 C1719 1.386 . S
C1718 C1721 1.388 . S
C1719 C1718 1.386 . S
C1719 C1720 1.382 . S
C1719 H1745 0.950 . S
C1720 N1717 1.332 . S
C1720 C1719 1.382 . S
C1720 H1731 0.952 . S
C1721 C1718 1.388 . S
C1721 C1722 1.382 . S
C1721 H1746 0.950 . S
C1722 N1717 1.332 . S
C1722 C1721 1.382 . S
C1722 H1732 0.948 . S
N1723 Co1701 2.282 . S
N1723 C1727 1.332 . S
N1723 C1728 1.332 . S
C1724 C1725 1.388 . S
C1724 C1728 1.382 . S
C1724 H1747 0.950 . S
C1725 C1724 1.388 . S
C1725 C1726 1.386 . S
C1726 C1725 1.386 . S
C1726 C1727 1.382 . S
C1726 H1748 0.950 . S
C1727 N1723 1.332 . S
C1727 C1726 1.382 . S
C1727 H1729 0.952 . S
C1728 N1723 1.332 . S
C1728 C1724 1.382 . S
C1728 H1730 0.948 . S
H1729 C1727 0.952 . S
H1730 C1728 0.948 . S
H1731 C1720 0.952 . S
H1732 C1722 0.948 . S
C1733 C1699 1.395 . S
C1733 C1703 1.391 . S
C1734 C1696 1.389 . S
C1734 C1716 1.392 . S
C1735 C1706 1.392 . S
C1735 C1708 1.389 . S
C1736 C1711 1.395 . S
C1736 C1713 1.391 . S
H1737 C1697 0.951 . S
H1738 C1698 0.950 . S
H1739 C1704 0.949 . S
H1740 C1705 0.950 . S
H1741 C1709 0.951 . S
H1742 C1710 0.950 . S
H1743 C1714 0.949 . S
H1744 C1715 0.950 . S
H1745 C1719 0.950 . S
H1746 C1721 0.950 . S
H1747 C1724 0.950 . S
H1748 C1726 0.950 . S
C1749 C1750 1.443 . S
C1749 N1753 1.376 . S
C1749 C1787 1.389 . S
C1750 C1749 1.443 . S
C1750 C1751 1.340 . S
C1750 H1790 0.951 . S
C1751 C1750 1.340 . S
C1751 C1752 1.439 . S
C1751 H1791 0.950 . S
C1752 C1751 1.439 . S
C1752 N1753 1.374 . S
C1752 C1786 1.395 . S
N1753 C1749 1.376 . S
N1753 C1752 1.374 . S
N1753 Co1754 2.008 . S
Co1754 N1753 2.008 . S
Co1754 N1755 1.995 . S
Co1754 N1760 2.008 . S
Co1754 N1765 1.995 . S
Co1754 N1770 2.282 . S
Co1754 N1776 2.282 . S
N1755 Co1754 1.995 . S
N1755 C1756 1.376 . S
N1755 C1759 1.383 . S
C1756 N1755 1.376 . S
C1756 C1757 1.446 . S
C1756 C1786 1.391 . S
C1757 C1756 1.446 . S
C1757 C1758 1.339 . S
C1757 H1792 0.949 . S
C1758 C1757 1.339 . S
C1758 C1759 1.439 . S
C1758 H1793 0.950 . S
C1759 N1755 1.383 . S
C1759 C1758 1.439 . S
C1759 C1788 1.392 . S
N1760 Co1754 2.008 . S
N1760 C1761 1.376 . S
N1760 C1764 1.374 . S
C1761 N1760 1.376 . S
C1761 C1762 1.443 . S
C1761 C1788 1.389 . S
C1762 C1761 1.443 . S
C1762 C1763 1.340 . S
C1762 H1794 0.951 . S
C1763 C1762 1.340 . S
C1763 C1764 1.439 . S
C1763 H1795 0.950 . S
C1764 N1760 1.374 . S
C1764 C1763 1.439 . S
C1764 C1789 1.395 . S
N1765 Co1754 1.995 . S
N1765 C1766 1.376 . S
N1765 C1769 1.383 . S
C1766 N1765 1.376 . S
C1766 C1767 1.446 . S
C1766 C1789 1.391 . S
C1767 C1766 1.446 . S
C1767 C1768 1.339 . S
C1767 H1796 0.949 . S
C1768 C1767 1.339 . S
C1768 C1769 1.439 . S
C1768 H1797 0.950 . S
C1769 N1765 1.383 . S
C1769 C1768 1.439 . S
C1769 C1787 1.392 . S
N1770 Co1754 2.282 . S
N1770 C1773 1.332 . S
N1770 C1775 1.332 . S
C1771 C1772 1.386 . S
C1771 C1774 1.388 . S
C1772 C1771 1.386 . S
C1772 C1773 1.382 . S
C1772 H1798 0.950 . S
C1773 N1770 1.332 . S
C1773 C1772 1.382 . S
C1773 H1784 0.952 . S
C1774 C1771 1.388 . S
C1774 C1775 1.382 . S
C1774 H1799 0.950 . S
C1775 N1770 1.332 . S
C1775 C1774 1.382 . S
C1775 H1785 0.948 . S
N1776 Co1754 2.282 . S
N1776 C1780 1.332 . S
N1776 C1781 1.332 . S
C1777 C1778 1.388 . S
C1777 C1781 1.382 . S
C1777 H1800 0.950 . S
C1778 C1777 1.388 . S
C1778 C1779 1.386 . S
C1779 C1778 1.386 . S
C1779 C1780 1.382 . S
C1779 H1801 0.950 . S
C1780 N1776 1.332 . S
C1780 C1779 1.382 . S
C1780 H1782 0.952 . S
C1781 N1776 1.332 . S
C1781 C1777 1.382 . S
C1781 H1783 0.948 . S
H1782 C1780 0.952 . S
H1783 C1781 0.948 . S
H1784 C1773 0.952 . S
H1785 C1775 0.948 . S
C1786 C1752 1.395 . S
C1786 C1756 1.391 . S
C1787 C1749 1.389 . S
C1787 C1769 1.392 . S
C1788 C1759 1.392 . S
C1788 C1761 1.389 . S
C1789 C1764 1.395 . S
C1789 C1766 1.391 . S
H1790 C1750 0.951 . S
H1791 C1751 0.950 . S
H1792 C1757 0.949 . S
H1793 C1758 0.950 . S
H1794 C1762 0.951 . S
H1795 C1763 0.950 . S
H1796 C1767 0.949 . S
H1797 C1768 0.950 . S
H1798 C1772 0.950 . S
H1799 C1774 0.950 . S
H1800 C1777 0.950 . S
H1801 C1779 0.950 . S
C1802 C1803 1.443 . S
C1802 N1806 1.376 . S
C1802 C1840 1.389 . S
C1803 C1802 1.443 . S
C1803 C1804 1.340 . S
C1803 H1843 0.951 . S
C1804 C1803 1.340 . S
C1804 C1805 1.439 . S
C1804 H1844 0.950 . S
C1805 C1804 1.439 . S
C1805 N1806 1.374 . S
C1805 C1839 1.395 . S
N1806 C1802 1.376 . S
N1806 C1805 1.374 . S
N1806 Co1807 2.008 . S
Co1807 N1806 2.008 . S
Co1807 N1808 1.995 . S
Co1807 N1813 2.008 . S
Co1807 N1818 1.995 . S
Co1807 N1823 2.282 . S
Co1807 N1829 2.282 . S
N1808 Co1807 1.995 . S
N1808 C1809 1.376 . S
N1808 C1812 1.383 . S
C1809 N1808 1.376 . S
C1809 C1810 1.446 . S
C1809 C1839 1.391 . S
C1810 C1809 1.446 . S
C1810 C1811 1.339 . S
C1810 H1845 0.949 . S
C1811 C1810 1.339 . S
C1811 C1812 1.439 . S
C1811 H1846 0.950 . S
C1812 N1808 1.383 . S
C1812 C1811 1.439 . S
C1812 C1841 1.392 . S
N1813 Co1807 2.008 . S
N1813 C1814 1.376 . S
N1813 C1817 1.374 . S
C1814 N1813 1.376 . S
C1814 C1815 1.443 . S
C1814 C1841 1.389 . S
C1815 C1814 1.443 . S
C1815 C1816 1.340 . S
C1815 H1847 0.951 . S
C1816 C1815 1.340 . S
C1816 C1817 1.439 . S
C1816 H1848 0.950 . S
C1817 N1813 1.374 . S
C1817 C1816 1.439 . S
C1817 C1842 1.395 . S
N1818 Co1807 1.995 . S
N1818 C1819 1.376 . S
N1818 C1822 1.383 . S
C1819 N1818 1.376 . S
C1819 C1820 1.446 . S
C1819 C1842 1.391 . S
C1820 C1819 1.446 . S
C1820 C1821 1.339 . S
C1820 H1849 0.949 . S
C1821 C1820 1.339 . S
C1821 C1822 1.439 . S
C1821 H1850 0.950 . S
C1822 N1818 1.383 . S
C1822 C1821 1.439 . S
C1822 C1840 1.392 . S
N1823 Co1807 2.282 . S
N1823 C1826 1.332 . S
N1823 C1828 1.332 . S
C1824 C1825 1.386 . S
C1824 C1827 1.388 . S
C1825 C1824 1.386 . S
C1825 C1826 1.382 . S
C1825 H1851 0.950 . S
C1826 N1823 1.332 . S
C1826 C1825 1.382 . S
C1826 H1837 0.952 . S
C1827 C1824 1.388 . S
C1827 C1828 1.382 . S
C1827 H1852 0.950 . S
C1828 N1823 1.332 . S
C1828 C1827 1.382 . S
C1828 H1838 0.948 . S
N1829 Co1807 2.282 . S
N1829 C1833 1.332 . S
N1829 C1834 1.332 . S
C1830 C1831 1.388 . S
C1830 C1834 1.382 . S
C1830 H1853 0.950 . S
C1831 C1830 1.388 . S
C1831 C1832 1.386 . S
C1832 C1831 1.386 . S
C1832 C1833 1.382 . S
C1832 H1854 0.950 . S
C1833 N1829 1.332 . S
C1833 C1832 1.382 . S
C1833 H1835 0.952 . S
C1834 N1829 1.332 . S
C1834 C1830 1.382 . S
C1834 H1836 0.948 . S
H1835 C1833 0.952 . S
H1836 C1834 0.948 . S
H1837 C1826 0.952 . S
H1838 C1828 0.948 . S
C1839 C1805 1.395 . S
C1839 C1809 1.391 . S
C1840 C1802 1.389 . S
C1840 C1822 1.392 . S
C1841 C1812 1.392 . S
C1841 C1814 1.389 . S
C1842 C1817 1.395 . S
C1842 C1819 1.391 . S
H1843 C1803 0.951 . S
H1844 C1804 0.950 . S
H1845 C1810 0.949 . S
H1846 C1811 0.950 . S
H1847 C1815 0.951 . S
H1848 C1816 0.950 . S
H1849 C1820 0.949 . S
H1850 C1821 0.950 . S
H1851 C1825 0.950 . S
H1852 C1827 0.950 . S
H1853 C1830 0.950 . S
H1854 C1832 0.950 . S
C1855 C1856 1.443 . S
C1855 N1859 1.376 . S
C1855 C1893 1.389 . S
C1856 C1855 1.443 . S
C1856 C1857 1.340 . S
C1856 H1896 0.951 . S
C1857 C1856 1.340 . S
C1857 C1858 1.439 . S
C1857 H1897 0.950 . S
C1858 C1857 1.439 . S
C1858 N1859 1.374 . S
C1858 C1892 1.395 . S
N1859 C1855 1.376 . S
N1859 C1858 1.374 . S
N1859 Co1860 2.008 . S
Co1860 N1859 2.008 . S
Co1860 N1861 1.995 . S
Co1860 N1866 2.008 . S
Co1860 N1871 1.995 . S
Co1860 N1876 2.282 . S
Co1860 N1882 2.282 . S
N1861 Co1860 1.995 . S
N1861 C1862 1.376 . S
N1861 C1865 1.383 . S
C1862 N1861 1.376 . S
C1862 C1863 1.446 . S
C1862 C1892 1.391 . S
C1863 C1862 1.446 . S
C1863 C1864 1.339 . S
C1863 H1898 0.949 . S
C1864 C1863 1.339 . S
C1864 C1865 1.439 . S
C1864 H1899 0.950 . S
C1865 N1861 1.383 . S
C1865 C1864 1.439 . S
C1865 C1894 1.392 . S
N1866 Co1860 2.008 . S
N1866 C1867 1.376 . S
N1866 C1870 1.374 . S
C1867 N1866 1.376 . S
C1867 C1868 1.443 . S
C1867 C1894 1.389 . S
C1868 C1867 1.443 . S
C1868 C1869 1.340 . S
C1868 H1900 0.951 . S
C1869 C1868 1.340 . S
C1869 C1870 1.439 . S
C1869 H1901 0.950 . S
C1870 N1866 1.374 . S
C1870 C1869 1.439 . S
C1870 C1895 1.395 . S
N1871 Co1860 1.995 . S
N1871 C1872 1.376 . S
N1871 C1875 1.383 . S
C1872 N1871 1.376 . S
C1872 C1873 1.446 . S
C1872 C1895 1.391 . S
C1873 C1872 1.446 . S
C1873 C1874 1.339 . S
C1873 H1902 0.949 . S
C1874 C1873 1.339 . S
C1874 C1875 1.439 . S
C1874 H1903 0.950 . S
C1875 N1871 1.383 . S
C1875 C1874 1.439 . S
C1875 C1893 1.392 . S
N1876 Co1860 2.282 . S
N1876 C1879 1.332 . S
N1876 C1881 1.332 . S
C1877 C1878 1.386 . S
C1877 C1880 1.388 . S
C1878 C1877 1.386 . S
C1878 C1879 1.382 . S
C1878 H1904 0.950 . S
C1879 N1876 1.332 . S
C1879 C1878 1.382 . S
C1879 H1890 0.952 . S
C1880 C1877 1.388 . S
C1880 C1881 1.382 . S
C1880 H1905 0.950 . S
C1881 N1876 1.332 . S
C1881 C1880 1.382 . S
C1881 H1891 0.948 . S
N1882 Co1860 2.282 . S
N1882 C1886 1.332 . S
N1882 C1887 1.332 . S
C1883 C1884 1.388 . S
C1883 C1887 1.382 . S
C1883 H1906 0.950 . S
C1884 C1883 1.388 . S
C1884 C1885 1.386 . S
C1885 C1884 1.386 . S
C1885 C1886 1.382 . S
C1885 H1907 0.950 . S
C1886 N1882 1.332 . S
C1886 C1885 1.382 . S
C1886 H1888 0.952 . S
C1887 N1882 1.332 . S
C1887 C1883 1.382 . S
C1887 H1889 0.948 . S
H1888 C1886 0.952 . S
H1889 C1887 0.948 . S
H1890 C1879 0.952 . S
H1891 C1881 0.948 . S
C1892 C1858 1.395 . S
C1892 C1862 1.391 . S
C1893 C1855 1.389 . S
C1893 C1875 1.392 . S
C1894 C1865 1.392 . S
C1894 C1867 1.389 . S
C1895 C1870 1.395 . S
C1895 C1872 1.391 . S
H1896 C1856 0.951 . S
H1897 C1857 0.950 . S
H1898 C1863 0.949 . S
H1899 C1864 0.950 . S
H1900 C1868 0.951 . S
H1901 C1869 0.950 . S
H1902 C1873 0.949 . S
H1903 C1874 0.950 . S
H1904 C1878 0.950 . S
H1905 C1880 0.950 . S
H1906 C1883 0.950 . S
H1907 C1885 0.950 . S
C1908 C1909 1.443 . S
C1908 N1912 1.376 . S
C1908 C1946 1.389 . S
C1909 C1908 1.443 . S
C1909 C1910 1.340 . S
C1909 H1949 0.951 . S
C1910 C1909 1.340 . S
C1910 C1911 1.439 . S
C1910 H1950 0.950 . S
C1911 C1910 1.439 . S
C1911 N1912 1.374 . S
C1911 C1945 1.395 . S
N1912 C1908 1.376 . S
N1912 C1911 1.374 . S
N1912 Co1913 2.008 . S
Co1913 N1912 2.008 . S
Co1913 N1914 1.995 . S
Co1913 N1919 2.008 . S
Co1913 N1924 1.995 . S
Co1913 N1929 2.282 . S
Co1913 N1935 2.282 . S
N1914 Co1913 1.995 . S
N1914 C1915 1.376 . S
N1914 C1918 1.383 . S
C1915 N1914 1.376 . S
C1915 C1916 1.446 . S
C1915 C1945 1.391 . S
C1916 C1915 1.446 . S
C1916 C1917 1.339 . S
C1916 H1951 0.949 . S
C1917 C1916 1.339 . S
C1917 C1918 1.439 . S
C1917 H1952 0.950 . S
C1918 N1914 1.383 . S
C1918 C1917 1.439 . S
C1918 C1947 1.392 . S
N1919 Co1913 2.008 . S
N1919 C1920 1.376 . S
N1919 C1923 1.374 . S
C1920 N1919 1.376 . S
C1920 C1921 1.443 . S
C1920 C1947 1.389 . S
C1921 C1920 1.443 . S
C1921 C1922 1.340 . S
C1921 H1953 0.951 . S
C1922 C1921 1.340 . S
C1922 C1923 1.439 . S
C1922 H1954 0.950 . S
C1923 N1919 1.374 . S
C1923 C1922 1.439 . S
C1923 C1948 1.395 . S
N1924 Co1913 1.995 . S
N1924 C1925 1.376 . S
N1924 C1928 1.383 . S
C1925 N1924 1.376 . S
C1925 C1926 1.446 . S
C1925 C1948 1.391 . S
C1926 C1925 1.446 . S
C1926 C1927 1.339 . S
C1926 H1955 0.949 . S
C1927 C1926 1.339 . S
C1927 C1928 1.439 . S
C1927 H1956 0.950 . S
C1928 N1924 1.383 . S
C1928 C1927 1.439 . S
C1928 C1946 1.392 . S
N1929 Co1913 2.282 . S
N1929 C1932 1.332 . S
N1929 C1934 1.332 . S
C1930 C1931 1.386 . S
C1930 C1933 1.388 . S
C1931 C1930 1.386 . S
C1931 C1932 1.382 . S
C1931 H1957 0.950 . S
C1932 N1929 1.332 . S
C1932 C1931 1.382 . S
C1932 H1943 0.952 . S
C1933 C1930 1.388 . S
C1933 C1934 1.382 . S
C1933 H1958 0.950 . S
C1934 N1929 1.332 . S
C1934 C1933 1.382 . S
C1934 H1944 0.948 . S
N1935 Co1913 2.282 . S
N1935 C1939 1.332 . S
N1935 C1940 1.332 . S
C1936 C1937 1.388 . S
C1936 C1940 1.382 . S
C1936 H1959 0.950 . S
C1937 C1936 1.388 . S
C1937 C1938 1.386 . S
C1938 C1937 1.386 . S
C1938 C1939 1.382 . S
C1938 H1960 0.950 . S
C1939 N1935 1.332 . S
C1939 C1938 1.382 . S
C1939 H1941 0.952 . S
C1940 N1935 1.332 . S
C1940 C1936 1.382 . S
C1940 H1942 0.948 . S
H1941 C1939 0.952 . S
H1942 C1940 0.948 . S
H1943 C1932 0.952 . S
H1944 C1934 0.948 . S
C1945 C1911 1.395 . S
C1945 C1915 1.391 . S
C1946 C1908 1.389 . S
C1946 C1928 1.392 . S
C1947 C1918 1.392 . S
C1947 C1920 1.389 . S
C1948 C1923 1.395 . S
C1948 C1925 1.391 . S
H1949 C1909 0.951 . S
H1950 C1910 0.950 . S
H1951 C1916 0.949 . S
H1952 C1917 0.950 . S
H1953 C1921 0.951 . S
H1954 C1922 0.950 . S
H1955 C1926 0.949 . S
H1956 C1927 0.950 . S
H1957 C1931 0.950 . S
H1958 C1933 0.950 . S
H1959 C1936 0.950 . S
H1960 C1938 0.950 . S
C1961 C1962 1.443 . S
C1961 N1965 1.376 . S
C1961 C1999 1.389 . S
C1962 C1961 1.443 . S
C1962 C1963 1.340 . S
C1962 H2002 0.951 . S
C1963 C1962 1.340 . S
C1963 C1964 1.439 . S
C1963 H2003 0.950 . S
C1964 C1963 1.439 . S
C1964 N1965 1.374 . S
C1964 C1998 1.395 . S
N1965 C1961 1.376 . S
N1965 C1964 1.374 . S
N1965 Co1966 2.008 . S
Co1966 N1965 2.008 . S
Co1966 N1967 1.995 . S
Co1966 N1972 2.008 . S
Co1966 N1977 1.995 . S
Co1966 N1982 2.282 . S
Co1966 N1988 2.282 . S
N1967 Co1966 1.995 . S
N1967 C1968 1.376 . S
N1967 C1971 1.383 . S
C1968 N1967 1.376 . S
C1968 C1969 1.446 . S
C1968 C1998 1.391 . S
C1969 C1968 1.446 . S
C1969 C1970 1.339 . S
C1969 H2004 0.949 . S
C1970 C1969 1.339 . S
C1970 C1971 1.439 . S
C1970 H2005 0.950 . S
C1971 N1967 1.383 . S
C1971 C1970 1.439 . S
C1971 C2000 1.392 . S
N1972 Co1966 2.008 . S
N1972 C1973 1.376 . S
N1972 C1976 1.374 . S
C1973 N1972 1.376 . S
C1973 C1974 1.443 . S
C1973 C2000 1.389 . S
C1974 C1973 1.443 . S
C1974 C1975 1.340 . S
C1974 H2006 0.951 . S
C1975 C1974 1.340 . S
C1975 C1976 1.439 . S
C1975 H2007 0.950 . S
C1976 N1972 1.374 . S
C1976 C1975 1.439 . S
C1976 C2001 1.395 . S
N1977 Co1966 1.995 . S
N1977 C1978 1.376 . S
N1977 C1981 1.383 . S
C1978 N1977 1.376 . S
C1978 C1979 1.446 . S
C1978 C2001 1.391 . S
C1979 C1978 1.446 . S
C1979 C1980 1.339 . S
C1979 H2008 0.949 . S
C1980 C1979 1.339 . S
C1980 C1981 1.439 . S
C1980 H2009 0.950 . S
C1981 N1977 1.383 . S
C1981 C1980 1.439 . S
C1981 C1999 1.392 . S
N1982 Co1966 2.282 . S
N1982 C1985 1.332 . S
N1982 C1987 1.332 . S
C1983 C1984 1.386 . S
C1983 C1986 1.388 . S
C1984 C1983 1.386 . S
C1984 C1985 1.382 . S
C1984 H2010 0.950 . S
C1985 N1982 1.332 . S
C1985 C1984 1.382 . S
C1985 H1996 0.952 . S
C1986 C1983 1.388 . S
C1986 C1987 1.382 . S
C1986 H2011 0.950 . S
C1987 N1982 1.332 . S
C1987 C1986 1.382 . S
C1987 H1997 0.948 . S
N1988 Co1966 2.282 . S
N1988 C1992 1.332 . S
N1988 C1993 1.332 . S
C1989 C1990 1.388 . S
C1989 C1993 1.382 . S
C1989 H2012 0.950 . S
C1990 C1989 1.388 . S
C1990 C1991 1.386 . S
C1991 C1990 1.386 . S
C1991 C1992 1.382 . S
C1991 H2013 0.950 . S
C1992 N1988 1.332 . S
C1992 C1991 1.382 . S
C1992 H1994 0.952 . S
C1993 N1988 1.332 . S
C1993 C1989 1.382 . S
C1993 H1995 0.948 . S
H1994 C1992 0.952 . S
H1995 C1993 0.948 . S
H1996 C1985 0.952 . S
H1997 C1987 0.948 . S
C1998 C1964 1.395 . S
C1998 C1968 1.391 . S
C1999 C1961 1.389 . S
C1999 C1981 1.392 . S
C2000 C1971 1.392 . S
C2000 C1973 1.389 . S
C2001 C1976 1.395 . S
C2001 C1978 1.391 . S
H2002 C1962 0.951 . S
H2003 C1963 0.950 . S
H2004 C1969 0.949 . S
H2005 C1970 0.950 . S
H2006 C1974 0.951 . S
H2007 C1975 0.950 . S
H2008 C1979 0.949 . S
H2009 C1980 0.950 . S
H2010 C1984 0.950 . S
H2011 C1986 0.950 . S
H2012 C1989 0.950 . S
H2013 C1991 0.950 . S
C2014 C2015 1.443 . S
C2014 N2018 1.376 . S
C2014 C2052 1.389 . S
C2015 C2014 1.443 . S
C2015 C2016 1.340 . S
C2015 H2055 0.951 . S
C2016 C2015 1.340 . S
C2016 C2017 1.439 . S
C2016 H2056 0.950 . S
C2017 C2016 1.439 . S
C2017 N2018 1.374 . S
C2017 C2051 1.395 . S
N2018 C2014 1.376 . S
N2018 C2017 1.374 . S
N2018 Co2019 2.008 . S
Co2019 N2018 2.008 . S
Co2019 N2020 1.995 . S
Co2019 N2025 2.008 . S
Co2019 N2030 1.995 . S
Co2019 N2035 2.282 . S
Co2019 N2041 2.282 . S
N2020 Co2019 1.995 . S
N2020 C2021 1.376 . S
N2020 C2024 1.383 . S
C2021 N2020 1.376 . S
C2021 C2022 1.446 . S
C2021 C2051 1.391 . S
C2022 C2021 1.446 . S
C2022 C2023 1.339 . S
C2022 H2057 0.949 . S
C2023 C2022 1.339 . S
C2023 C2024 1.439 . S
C2023 H2058 0.950 . S
C2024 N2020 1.383 . S
C2024 C2023 1.439 . S
C2024 C2053 1.392 . S
N2025 Co2019 2.008 . S
N2025 C2026 1.376 . S
N2025 C2029 1.374 . S
C2026 N2025 1.376 . S
C2026 C2027 1.443 . S
C2026 C2053 1.389 . S
C2027 C2026 1.443 . S
C2027 C2028 1.340 . S
C2027 H2059 0.951 . S
C2028 C2027 1.340 . S
C2028 C2029 1.439 . S
C2028 H2060 0.950 . S
C2029 N2025 1.374 . S
C2029 C2028 1.439 . S
C2029 C2054 1.395 . S
N2030 Co2019 1.995 . S
N2030 C2031 1.376 . S
N2030 C2034 1.383 . S
C2031 N2030 1.376 . S
C2031 C2032 1.446 . S
C2031 C2054 1.391 . S
C2032 C2031 1.446 . S
C2032 C2033 1.339 . S
C2032 H2061 0.949 . S
C2033 C2032 1.339 . S
C2033 C2034 1.439 . S
C2033 H2062 0.950 . S
C2034 N2030 1.383 . S
C2034 C2033 1.439 . S
C2034 C2052 1.392 . S
N2035 Co2019 2.282 . S
N2035 C2038 1.332 . S
N2035 C2040 1.332 . S
C2036 C2037 1.386 . S
C2036 C2039 1.388 . S
C2037 C2036 1.386 . S
C2037 C2038 1.382 . S
C2037 H2063 0.950 . S
C2038 N2035 1.332 . S
C2038 C2037 1.382 . S
C2038 H2049 0.952 . S
C2039 C2036 1.388 . S
C2039 C2040 1.382 . S
C2039 H2064 0.950 . S
C2040 N2035 1.332 . S
C2040 C2039 1.382 . S
C2040 H2050 0.948 . S
N2041 Co2019 2.282 . S
N2041 C2045 1.332 . S
N2041 C2046 1.332 . S
C2042 C2043 1.388 . S
C2042 C2046 1.382 . S
C2042 H2065 0.950 . S
C2043 C2042 1.388 . S
C2043 C2044 1.386 . S
C2044 C2043 1.386 . S
C2044 C2045 1.382 . S
C2044 H2066 0.950 . S
C2045 N2041 1.332 . S
C2045 C2044 1.382 . S
C2045 H2047 0.952 . S
C2046 N2041 1.332 . S
C2046 C2042 1.382 . S
C2046 H2048 0.948 . S
H2047 C2045 0.952 . S
H2048 C2046 0.948 . S
H2049 C2038 0.952 . S
H2050 C2040 0.948 . S
C2051 C2017 1.395 . S
C2051 C2021 1.391 . S
C2052 C2014 1.389 . S
C2052 C2034 1.392 . S
C2053 C2024 1.392 . S
C2053 C2026 1.389 . S
C2054 C2029 1.395 . S
C2054 C2031 1.391 . S
H2055 C2015 0.951 . S
H2056 C2016 0.950 . S
H2057 C2022 0.949 . S
H2058 C2023 0.950 . S
H2059 C2027 0.951 . S
H2060 C2028 0.950 . S
H2061 C2032 0.949 . S
H2062 C2033 0.950 . S
H2063 C2037 0.950 . S
H2064 C2039 0.950 . S
H2065 C2042 0.950 . S
H2066 C2044 0.950 . S
C2067 C2068 1.443 . S
C2067 N2071 1.376 . S
C2067 C2105 1.389 . S
C2068 C2067 1.443 . S
C2068 C2069 1.340 . S
C2068 H2108 0.951 . S
C2069 C2068 1.340 . S
C2069 C2070 1.439 . S
C2069 H2109 0.950 . S
C2070 C2069 1.439 . S
C2070 N2071 1.374 . S
C2070 C2104 1.395 . S
N2071 C2067 1.376 . S
N2071 C2070 1.374 . S
N2071 Co2072 2.008 . S
Co2072 N2071 2.008 . S
Co2072 N2073 1.995 . S
Co2072 N2078 2.008 . S
Co2072 N2083 1.995 . S
Co2072 N2088 2.282 . S
Co2072 N2094 2.282 . S
N2073 Co2072 1.995 . S
N2073 C2074 1.376 . S
N2073 C2077 1.383 . S
C2074 N2073 1.376 . S
C2074 C2075 1.446 . S
C2074 C2104 1.391 . S
C2075 C2074 1.446 . S
C2075 C2076 1.339 . S
C2075 H2110 0.949 . S
C2076 C2075 1.339 . S
C2076 C2077 1.439 . S
C2076 H2111 0.950 . S
C2077 N2073 1.383 . S
C2077 C2076 1.439 . S
C2077 C2106 1.392 . S
N2078 Co2072 2.008 . S
N2078 C2079 1.376 . S
N2078 C2082 1.374 . S
C2079 N2078 1.376 . S
C2079 C2080 1.443 . S
C2079 C2106 1.389 . S
C2080 C2079 1.443 . S
C2080 C2081 1.340 . S
C2080 H2112 0.951 . S
C2081 C2080 1.340 . S
C2081 C2082 1.439 . S
C2081 H2113 0.950 . S
C2082 N2078 1.374 . S
C2082 C2081 1.439 . S
C2082 C2107 1.395 . S
N2083 Co2072 1.995 . S
N2083 C2084 1.376 . S
N2083 C2087 1.383 . S
C2084 N2083 1.376 . S
C2084 C2085 1.446 . S
C2084 C2107 1.391 . S
C2085 C2084 1.446 . S
C2085 C2086 1.339 . S
C2085 H2114 0.949 . S
C2086 C2085 1.339 . S
C2086 C2087 1.439 . S
C2086 H2115 0.950 . S
C2087 N2083 1.383 . S
C2087 C2086 1.439 . S
C2087 C2105 1.392 . S
N2088 Co2072 2.282 . S
N2088 C2091 1.332 . S
N2088 C2093 1.332 . S
C2089 C2090 1.386 . S
C2089 C2092 1.388 . S
C2090 C2089 1.386 . S
C2090 C2091 1.382 . S
C2090 H2116 0.950 . S
C2091 N2088 1.332 . S
C2091 C2090 1.382 . S
C2091 H2102 0.952 . S
C2092 C2089 1.388 . S
C2092 C2093 1.382 . S
C2092 H2117 0.950 . S
C2093 N2088 1.332 . S
C2093 C2092 1.382 . S
C2093 H2103 0.948 . S
N2094 Co2072 2.282 . S
N2094 C2098 1.332 . S
N2094 C2099 1.332 . S
C2095 C2096 1.388 . S
C2095 C2099 1.382 . S
C2095 H2118 0.950 . S
C2096 C2095 1.388 . S
C2096 C2097 1.386 . S
C2097 C2096 1.386 . S
C2097 C2098 1.382 . S
C2097 H2119 0.950 . S
C2098 N2094 1.332 . S
C2098 C2097 1.382 . S
C2098 H2100 0.952 . S
C2099 N2094 1.332 . S
C2099 C2095 1.382 . S
C2099 H2101 0.948 . S
H2100 C2098 0.952 . S
H2101 C2099 0.948 . S
H2102 C2091 0.952 . S
H2103 C2093 0.948 . S
C2104 C2070 1.395 . S
C2104 C2074 1.391 . S
C2105 C2067 1.389 . S
C2105 C2087 1.392 . S
C2106 C2077 1.392 . S
C2106 C2079 1.389 . S
C2107 C2082 1.395 . S
C2107 C2084 1.391 . S
H2108 C2068 0.951 . S
H2109 C2069 0.950 . S
H2110 C2075 0.949 . S
H2111 C2076 0.950 . S
H2112 C2080 0.951 . S
H2113 C2081 0.950 . S
H2114 C2085 0.949 . S
H2115 C2086 0.950 . S
H2116 C2090 0.950 . S
H2117 C2092 0.950 . S
H2118 C2095 0.950 . S
H2119 C2097 0.950 . S
C2120 C2121 1.443 . S
C2120 N2124 1.376 . S
C2120 C2158 1.389 . S
C2121 C2120 1.443 . S
C2121 C2122 1.340 . S
C2121 H2161 0.951 . S
C2122 C2121 1.340 . S
C2122 C2123 1.439 . S
C2122 H2162 0.950 . S
C2123 C2122 1.439 . S
C2123 N2124 1.374 . S
C2123 C2157 1.395 . S
N2124 C2120 1.376 . S
N2124 C2123 1.374 . S
N2124 Co2125 2.008 . S
Co2125 N2124 2.008 . S
Co2125 N2126 1.995 . S
Co2125 N2131 2.008 . S
Co2125 N2136 1.995 . S
Co2125 N2141 2.282 . S
Co2125 N2147 2.282 . S
N2126 Co2125 1.995 . S
N2126 C2127 1.376 . S
N2126 C2130 1.383 . S
C2127 N2126 1.376 . S
C2127 C2128 1.446 . S
C2127 C2157 1.391 . S
C2128 C2127 1.446 . S
C2128 C2129 1.339 . S
C2128 H2163 0.949 . S
C2129 C2128 1.339 . S
C2129 C2130 1.439 . S
C2129 H2164 0.950 . S
C2130 N2126 1.383 . S
C2130 C2129 1.439 . S
C2130 C2159 1.392 . S
N2131 Co2125 2.008 . S
N2131 C2132 1.376 . S
N2131 C2135 1.374 . S
C2132 N2131 1.376 . S
C2132 C2133 1.443 . S
C2132 C2159 1.389 . S
C2133 C2132 1.443 . S
C2133 C2134 1.340 . S
C2133 H2165 0.951 . S
C2134 C2133 1.340 . S
C2134 C2135 1.439 . S
C2134 H2166 0.950 . S
C2135 N2131 1.374 . S
C2135 C2134 1.439 . S
C2135 C2160 1.395 . S
N2136 Co2125 1.995 . S
N2136 C2137 1.376 . S
N2136 C2140 1.383 . S
C2137 N2136 1.376 . S
C2137 C2138 1.446 . S
C2137 C2160 1.391 . S
C2138 C2137 1.446 . S
C2138 C2139 1.339 . S
C2138 H2167 0.949 . S
C2139 C2138 1.339 . S
C2139 C2140 1.439 . S
C2139 H2168 0.950 . S
C2140 N2136 1.383 . S
C2140 C2139 1.439 . S
C2140 C2158 1.392 . S
N2141 Co2125 2.282 . S
N2141 C2144 1.332 . S
N2141 C2146 1.332 . S
C2142 C2143 1.386 . S
C2142 C2145 1.388 . S
C2143 C2142 1.386 . S
C2143 C2144 1.382 . S
C2143 H2169 0.950 . S
C2144 N2141 1.332 . S
C2144 C2143 1.382 . S
C2144 H2155 0.952 . S
C2145 C2142 1.388 . S
C2145 C2146 1.382 . S
C2145 H2170 0.950 . S
C2146 N2141 1.332 . S
C2146 C2145 1.382 . S
C2146 H2156 0.948 . S
N2147 Co2125 2.282 . S
N2147 C2151 1.332 . S
N2147 C2152 1.332 . S
C2148 C2149 1.388 . S
C2148 C2152 1.382 . S
C2148 H2171 0.950 . S
C2149 C2148 1.388 . S
C2149 C2150 1.386 . S
C2150 C2149 1.386 . S
C2150 C2151 1.382 . S
C2150 H2172 0.950 . S
C2151 N2147 1.332 . S
C2151 C2150 1.382 . S
C2151 H2153 0.952 . S
C2152 N2147 1.332 . S
C2152 C2148 1.382 . S
C2152 H2154 0.948 . S
H2153 C2151 0.952 . S
H2154 C2152 0.948 . S
H2155 C2144 0.952 . S
H2156 C2146 0.948 . S
C2157 C2123 1.395 . S
C2157 C2127 1.391 . S
C2158 C2120 1.389 . S
C2158 C2140 1.392 . S
C2159 C2130 1.392 . S
C2159 C2132 1.389 . S
C2160 C2135 1.395 . S
C2160 C2137 1.391 . S
H2161 C2121 0.951 . S
H2162 C2122 0.950 . S
H2163 C2128 0.949 . S
H2164 C2129 0.950 . S
H2165 C2133 0.951 . S
H2166 C2134 0.950 . S
H2167 C2138 0.949 . S
H2168 C2139 0.950 . S
H2169 C2143 0.950 . S
H2170 C2145 0.950 . S
H2171 C2148 0.950 . S
H2172 C2150 0.950 . S
C2173 C2174 1.443 . S
C2173 N2177 1.376 . S
C2173 C2211 1.389 . S
C2174 C2173 1.443 . S
C2174 C2175 1.340 . S
C2174 H2214 0.951 . S
C2175 C2174 1.340 . S
C2175 C2176 1.439 . S
C2175 H2215 0.950 . S
C2176 C2175 1.439 . S
C2176 N2177 1.374 . S
C2176 C2210 1.395 . S
N2177 C2173 1.376 . S
N2177 C2176 1.374 . S
N2177 Co2178 2.008 . S
Co2178 N2177 2.008 . S
Co2178 N2179 1.995 . S
Co2178 N2184 2.008 . S
Co2178 N2189 1.995 . S
Co2178 N2194 2.282 . S
Co2178 N2200 2.282 . S
N2179 Co2178 1.995 . S
N2179 C2180 1.376 . S
N2179 C2183 1.383 . S
C2180 N2179 1.376 . S
C2180 C2181 1.446 . S
C2180 C2210 1.391 . S
C2181 C2180 1.446 . S
C2181 C2182 1.339 . S
C2181 H2216 0.949 . S
C2182 C2181 1.339 . S
C2182 C2183 1.439 . S
C2182 H2217 0.950 . S
C2183 N2179 1.383 . S
C2183 C2182 1.439 . S
C2183 C2212 1.392 . S
N2184 Co2178 2.008 . S
N2184 C2185 1.376 . S
N2184 C2188 1.374 . S
C2185 N2184 1.376 . S
C2185 C2186 1.443 . S
C2185 C2212 1.389 . S
C2186 C2185 1.443 . S
C2186 C2187 1.340 . S
C2186 H2218 0.951 . S
C2187 C2186 1.340 . S
C2187 C2188 1.439 . S
C2187 H2219 0.950 . S
C2188 N2184 1.374 . S
C2188 C2187 1.439 . S
C2188 C2213 1.395 . S
N2189 Co2178 1.995 . S
N2189 C2190 1.376 . S
N2189 C2193 1.383 . S
C2190 N2189 1.376 . S
C2190 C2191 1.446 . S
C2190 C2213 1.391 . S
C2191 C2190 1.446 . S
C2191 C2192 1.339 . S
C2191 H2220 0.949 . S
C2192 C2191 1.339 . S
C2192 C2193 1.439 . S
C2192 H2221 0.950 . S
C2193 N2189 1.383 . S
C2193 C2192 1.439 . S
C2193 C2211 1.392 . S
N2194 Co2178 2.282 . S
N2194 C2197 1.332 . S
N2194 C2199 1.332 . S
C2195 C2196 1.386 . S
C2195 C2198 1.388 . S
C2196 C2195 1.386 . S
C2196 C2197 1.382 . S
C2196 H2222 0.950 . S
C2197 N2194 1.332 . S
C2197 C2196 1.382 . S
C2197 H2208 0.952 . S
C2198 C2195 1.388 . S
C2198 C2199 1.382 . S
C2198 H2223 0.950 . S
C2199 N2194 1.332 . S
C2199 C2198 1.382 . S
C2199 H2209 0.948 . S
N2200 Co2178 2.282 . S
N2200 C2204 1.332 . S
N2200 C2205 1.332 . S
C2201 C2202 1.388 . S
C2201 C2205 1.382 . S
C2201 H2224 0.950 . S
C2202 C2201 1.388 . S
C2202 C2203 1.386 . S
C2203 C2202 1.386 . S
C2203 C2204 1.382 . S
C2203 H2225 0.950 . S
C2204 N2200 1.332 . S
C2204 C2203 1.382 . S
C2204 H2206 0.952 . S
C2205 N2200 1.332 . S
C2205 C2201 1.382 . S
C2205 H2207 0.948 . S
H2206 C2204 0.952 . S
H2207 C2205 0.948 . S
H2208 C2197 0.952 . S
H2209 C2199 0.948 . S
C2210 C2176 1.395 . S
C2210 C2180 1.391 . S
C2211 C2173 1.389 . S
C2211 C2193 1.392 . S
C2212 C2183 1.392 . S
C2212 C2185 1.389 . S
C2213 C2188 1.395 . S
C2213 C2190 1.391 . S
H2214 C2174 0.951 . S
H2215 C2175 0.950 . S
H2216 C2181 0.949 . S
H2217 C2182 0.950 . S
H2218 C2186 0.951 . S
H2219 C2187 0.950 . S
H2220 C2191 0.949 . S
H2221 C2192 0.950 . S
H2222 C2196 0.950 . S
H2223 C2198 0.950 . S
H2224 C2201 0.950 . S
H2225 C2203 0.950 . S
C2226 C2227 1.443 . S
C2226 N2230 1.376 . S
C2226 C2264 1.389 . S
C2227 C2226 1.443 . S
C2227 C2228 1.340 . S
C2227 H2267 0.951 . S
C2228 C2227 1.340 . S
C2228 C2229 1.439 . S
C2228 H2268 0.950 . S
C2229 C2228 1.439 . S
C2229 N2230 1.374 . S
C2229 C2263 1.395 . S
N2230 C2226 1.376 . S
N2230 C2229 1.374 . S
N2230 Co2231 2.008 . S
Co2231 N2230 2.008 . S
Co2231 N2232 1.995 . S
Co2231 N2237 2.008 . S
Co2231 N2242 1.995 . S
Co2231 N2247 2.282 . S
Co2231 N2253 2.282 . S
N2232 Co2231 1.995 . S
N2232 C2233 1.376 . S
N2232 C2236 1.383 . S
C2233 N2232 1.376 . S
C2233 C2234 1.446 . S
C2233 C2263 1.391 . S
C2234 C2233 1.446 . S
C2234 C2235 1.339 . S
C2234 H2269 0.949 . S
C2235 C2234 1.339 . S
C2235 C2236 1.439 . S
C2235 H2270 0.950 . S
C2236 N2232 1.383 . S
C2236 C2235 1.439 . S
C2236 C2265 1.392 . S
N2237 Co2231 2.008 . S
N2237 C2238 1.376 . S
N2237 C2241 1.374 . S
C2238 N2237 1.376 . S
C2238 C2239 1.443 . S
C2238 C2265 1.389 . S
C2239 C2238 1.443 . S
C2239 C2240 1.340 . S
C2239 H2271 0.951 . S
C2240 C2239 1.340 . S
C2240 C2241 1.439 . S
C2240 H2272 0.950 . S
C2241 N2237 1.374 . S
C2241 C2240 1.439 . S
C2241 C2266 1.395 . S
N2242 Co2231 1.995 . S
N2242 C2243 1.376 . S
N2242 C2246 1.383 . S
C2243 N2242 1.376 . S
C2243 C2244 1.446 . S
C2243 C2266 1.391 . S
C2244 C2243 1.446 . S
C2244 C2245 1.339 . S
C2244 H2273 0.949 . S
C2245 C2244 1.339 . S
C2245 C2246 1.439 . S
C2245 H2274 0.950 . S
C2246 N2242 1.383 . S
C2246 C2245 1.439 . S
C2246 C2264 1.392 . S
N2247 Co2231 2.282 . S
N2247 C2250 1.332 . S
N2247 C2252 1.332 . S
C2248 C2249 1.386 . S
C2248 C2251 1.388 . S
C2249 C2248 1.386 . S
C2249 C2250 1.382 . S
C2249 H2275 0.950 . S
C2250 N2247 1.332 . S
C2250 C2249 1.382 . S
C2250 H2261 0.952 . S
C2251 C2248 1.388 . S
C2251 C2252 1.382 . S
C2251 H2276 0.950 . S
C2252 N2247 1.332 . S
C2252 C2251 1.382 . S
C2252 H2262 0.948 . S
N2253 Co2231 2.282 . S
N2253 C2257 1.332 . S
N2253 C2258 1.332 . S
C2254 C2255 1.388 . S
C2254 C2258 1.382 . S
C2254 H2277 0.950 . S
C2255 C2254 1.388 . S
C2255 C2256 1.386 . S
C2256 C2255 1.386 . S
C2256 C2257 1.382 . S
C2256 H2278 0.950 . S
C2257 N2253 1.332 . S
C2257 C2256 1.382 . S
C2257 H2259 0.952 . S
C2258 N2253 1.332 . S
C2258 C2254 1.382 . S
C2258 H2260 0.948 . S
H2259 C2257 0.952 . S
H2260 C2258 0.948 . S
H2261 C2250 0.952 . S
H2262 C2252 0.948 . S
C2263 C2229 1.395 . S
C2263 C2233 1.391 . S
C2264 C2226 1.389 . S
C2264 C2246 1.392 . S
C2265 C2236 1.392 . S
C2265 C2238 1.389 . S
C2266 C2241 1.395 . S
C2266 C2243 1.391 . S
H2267 C2227 0.951 . S
H2268 C2228 0.950 . S
H2269 C2234 0.949 . S
H2270 C2235 0.950 . S
H2271 C2239 0.951 . S
H2272 C2240 0.950 . S
H2273 C2244 0.949 . S
H2274 C2245 0.950 . S
H2275 C2249 0.950 . S
H2276 C2251 0.950 . S
H2277 C2254 0.950 . S
H2278 C2256 0.950 . S
C2279 C2280 1.443 . S
C2279 N2283 1.376 . S
C2279 C2317 1.389 . S
C2280 C2279 1.443 . S
C2280 C2281 1.340 . S
C2280 H2320 0.951 . S
C2281 C2280 1.340 . S
C2281 C2282 1.439 . S
C2281 H2321 0.950 . S
C2282 C2281 1.439 . S
C2282 N2283 1.374 . S
C2282 C2316 1.395 . S
N2283 C2279 1.376 . S
N2283 C2282 1.374 . S
N2283 Co2284 2.008 . S
Co2284 N2283 2.008 . S
Co2284 N2285 1.995 . S
Co2284 N2290 2.008 . S
Co2284 N2295 1.995 . S
Co2284 N2300 2.282 . S
Co2284 N2306 2.282 . S
N2285 Co2284 1.995 . S
N2285 C2286 1.376 . S
N2285 C2289 1.383 . S
C2286 N2285 1.376 . S
C2286 C2287 1.446 . S
C2286 C2316 1.391 . S
C2287 C2286 1.446 . S
C2287 C2288 1.339 . S
C2287 H2322 0.949 . S
C2288 C2287 1.339 . S
C2288 C2289 1.439 . S
C2288 H2323 0.950 . S
C2289 N2285 1.383 . S
C2289 C2288 1.439 . S
C2289 C2318 1.392 . S
N2290 Co2284 2.008 . S
N2290 C2291 1.376 . S
N2290 C2294 1.374 . S
C2291 N2290 1.376 . S
C2291 C2292 1.443 . S
C2291 C2318 1.389 . S
C2292 C2291 1.443 . S
C2292 C2293 1.340 . S
C2292 H2324 0.951 . S
C2293 C2292 1.340 . S
C2293 C2294 1.439 . S
C2293 H2325 0.950 . S
C2294 N2290 1.374 . S
C2294 C2293 1.439 . S
C2294 C2319 1.395 . S
N2295 Co2284 1.995 . S
N2295 C2296 1.376 . S
N2295 C2299 1.383 . S
C2296 N2295 1.376 . S
C2296 C2297 1.446 . S
C2296 C2319 1.391 . S
C2297 C2296 1.446 . S
C2297 C2298 1.339 . S
C2297 H2326 0.949 . S
C2298 C2297 1.339 . S
C2298 C2299 1.439 . S
C2298 H2327 0.950 . S
C2299 N2295 1.383 . S
C2299 C2298 1.439 . S
C2299 C2317 1.392 . S
N2300 Co2284 2.282 . S
N2300 C2303 1.332 . S
N2300 C2305 1.332 . S
C2301 C2302 1.386 . S
C2301 C2304 1.388 . S
C2302 C2301 1.386 . S
C2302 C2303 1.382 . S
C2302 H2328 0.950 . S
C2303 N2300 1.332 . S
C2303 C2302 1.382 . S
C2303 H2314 0.952 . S
C2304 C2301 1.388 . S
C2304 C2305 1.382 . S
C2304 H2329 0.950 . S
C2305 N2300 1.332 . S
C2305 C2304 1.382 . S
C2305 H2315 0.948 . S
N2306 Co2284 2.282 . S
N2306 C2310 1.332 . S
N2306 C2311 1.332 . S
C2307 C2308 1.388 . S
C2307 C2311 1.382 . S
C2307 H2330 0.950 . S
C2308 C2307 1.388 . S
C2308 C2309 1.386 . S
C2309 C2308 1.386 . S
C2309 C2310 1.382 . S
C2309 H2331 0.950 . S
C2310 N2306 1.332 . S
C2310 C2309 1.382 . S
C2310 H2312 0.952 . S
C2311 N2306 1.332 . S
C2311 C2307 1.382 . S
C2311 H2313 0.948 . S
H2312 C2310 0.952 . S
H2313 C2311 0.948 . S
H2314 C2303 0.952 . S
H2315 C2305 0.948 . S
C2316 C2282 1.395 . S
C2316 C2286 1.391 . S
C2317 C2279 1.389 . S
C2317 C2299 1.392 . S
C2318 C2289 1.392 . S
C2318 C2291 1.389 . S
C2319 C2294 1.395 . S
C2319 C2296 1.391 . S
H2320 C2280 0.951 . S
H2321 C2281 0.950 . S
H2322 C2287 0.949 . S
H2323 C2288 0.950 . S
H2324 C2292 0.951 . S
H2325 C2293 0.950 . S
H2326 C2297 0.949 . S
H2327 C2298 0.950 . S
H2328 C2302 0.950 . S
H2329 C2304 0.950 . S
H2330 C2307 0.950 . S
H2331 C2309 0.950 . S
C2332 C2333 1.443 . S
C2332 N2336 1.376 . S
C2332 C2370 1.389 . S
C2333 C2332 1.443 . S
C2333 C2334 1.340 . S
C2333 H2373 0.951 . S
C2334 C2333 1.340 . S
C2334 C2335 1.439 . S
C2334 H2374 0.950 . S
C2335 C2334 1.439 . S
C2335 N2336 1.374 . S
C2335 C2369 1.395 . S
N2336 C2332 1.376 . S
N2336 C2335 1.374 . S
N2336 Co2337 2.008 . S
Co2337 N2336 2.008 . S
Co2337 N2338 1.995 . S
Co2337 N2343 2.008 . S
Co2337 N2348 1.995 . S
Co2337 N2353 2.282 . S
Co2337 N2359 2.282 . S
N2338 Co2337 1.995 . S
N2338 C2339 1.376 . S
N2338 C2342 1.383 . S
C2339 N2338 1.376 . S
C2339 C2340 1.446 . S
C2339 C2369 1.391 . S
C2340 C2339 1.446 . S
C2340 C2341 1.339 . S
C2340 H2375 0.949 . S
C2341 C2340 1.339 . S
C2341 C2342 1.439 . S
C2341 H2376 0.950 . S
C2342 N2338 1.383 . S
C2342 C2341 1.439 . S
C2342 C2371 1.392 . S
N2343 Co2337 2.008 . S
N2343 C2344 1.376 . S
N2343 C2347 1.374 . S
C2344 N2343 1.376 . S
C2344 C2345 1.443 . S
C2344 C2371 1.389 . S
C2345 C2344 1.443 . S
C2345 C2346 1.340 . S
C2345 H2377 0.951 . S
C2346 C2345 1.340 . S
C2346 C2347 1.439 . S
C2346 H2378 0.950 . S
C2347 N2343 1.374 . S
C2347 C2346 1.439 . S
C2347 C2372 1.395 . S
N2348 Co2337 1.995 . S
N2348 C2349 1.376 . S
N2348 C2352 1.383 . S
C2349 N2348 1.376 . S
C2349 C2350 1.446 . S
C2349 C2372 1.391 . S
C2350 C2349 1.446 . S
C2350 C2351 1.339 . S
C2350 H2379 0.949 . S
C2351 C2350 1.339 . S
C2351 C2352 1.439 . S
C2351 H2380 0.950 . S
C2352 N2348 1.383 . S
C2352 C2351 1.439 . S
C2352 C2370 1.392 . S
N2353 Co2337 2.282 . S
N2353 C2356 1.332 . S
N2353 C2358 1.332 . S
C2354 C2355 1.386 . S
C2354 C2357 1.388 . S
C2355 C2354 1.386 . S
C2355 C2356 1.382 . S
C2355 H2381 0.950 . S
C2356 N2353 1.332 . S
C2356 C2355 1.382 . S
C2356 H2367 0.952 . S
C2357 C2354 1.388 . S
C2357 C2358 1.382 . S
C2357 H2382 0.950 . S
C2358 N2353 1.332 . S
C2358 C2357 1.382 . S
C2358 H2368 0.948 . S
N2359 Co2337 2.282 . S
N2359 C2363 1.332 . S
N2359 C2364 1.332 . S
C2360 C2361 1.388 . S
C2360 C2364 1.382 . S
C2360 H2383 0.950 . S
C2361 C2360 1.388 . S
C2361 C2362 1.386 . S
C2362 C2361 1.386 . S
C2362 C2363 1.382 . S
C2362 H2384 0.950 . S
C2363 N2359 1.332 . S
C2363 C2362 1.382 . S
C2363 H2365 0.952 . S
C2364 N2359 1.332 . S
C2364 C2360 1.382 . S
C2364 H2366 0.948 . S
H2365 C2363 0.952 . S
H2366 C2364 0.948 . S
H2367 C2356 0.952 . S
H2368 C2358 0.948 . S
C2369 C2335 1.395 . S
C2369 C2339 1.391 . S
C2370 C2332 1.389 . S
C2370 C2352 1.392 . S
C2371 C2342 1.392 . S
C2371 C2344 1.389 . S
C2372 C2347 1.395 . S
C2372 C2349 1.391 . S
H2373 C2333 0.951 . S
H2374 C2334 0.950 . S
H2375 C2340 0.949 . S
H2376 C2341 0.950 . S
H2377 C2345 0.951 . S
H2378 C2346 0.950 . S
H2379 C2350 0.949 . S
H2380 C2351 0.950 . S
H2381 C2355 0.950 . S
H2382 C2357 0.950 . S
H2383 C2360 0.950 . S
H2384 C2362 0.950 . S
C2385 C2386 1.443 . S
C2385 N2389 1.376 . S
C2385 C2423 1.389 . S
C2386 C2385 1.443 . S
C2386 C2387 1.340 . S
C2386 H2426 0.951 . S
C2387 C2386 1.340 . S
C2387 C2388 1.439 . S
C2387 H2427 0.950 . S
C2388 C2387 1.439 . S
C2388 N2389 1.374 . S
C2388 C2422 1.395 . S
N2389 C2385 1.376 . S
N2389 C2388 1.374 . S
N2389 Co2390 2.008 . S
Co2390 N2389 2.008 . S
Co2390 N2391 1.995 . S
Co2390 N2396 2.008 . S
Co2390 N2401 1.995 . S
Co2390 N2406 2.282 . S
Co2390 N2412 2.282 . S
N2391 Co2390 1.995 . S
N2391 C2392 1.376 . S
N2391 C2395 1.383 . S
C2392 N2391 1.376 . S
C2392 C2393 1.446 . S
C2392 C2422 1.391 . S
C2393 C2392 1.446 . S
C2393 C2394 1.339 . S
C2393 H2428 0.949 . S
C2394 C2393 1.339 . S
C2394 C2395 1.439 . S
C2394 H2429 0.950 . S
C2395 N2391 1.383 . S
C2395 C2394 1.439 . S
C2395 C2424 1.392 . S
N2396 Co2390 2.008 . S
N2396 C2397 1.376 . S
N2396 C2400 1.374 . S
C2397 N2396 1.376 . S
C2397 C2398 1.443 . S
C2397 C2424 1.389 . S
C2398 C2397 1.443 . S
C2398 C2399 1.340 . S
C2398 H2430 0.951 . S
C2399 C2398 1.340 . S
C2399 C2400 1.439 . S
C2399 H2431 0.950 . S
C2400 N2396 1.374 . S
C2400 C2399 1.439 . S
C2400 C2425 1.395 . S
N2401 Co2390 1.995 . S
N2401 C2402 1.376 . S
N2401 C2405 1.383 . S
C2402 N2401 1.376 . S
C2402 C2403 1.446 . S
C2402 C2425 1.391 . S
C2403 C2402 1.446 . S
C2403 C2404 1.339 . S
C2403 H2432 0.949 . S
C2404 C2403 1.339 . S
C2404 C2405 1.439 . S
C2404 H2433 0.950 . S
C2405 N2401 1.383 . S
C2405 C2404 1.439 . S
C2405 C2423 1.392 . S
N2406 Co2390 2.282 . S
N2406 C2409 1.332 . S
N2406 C2411 1.332 . S
C2407 C2408 1.386 . S
C2407 C2410 1.388 . S
C2408 C2407 1.386 . S
C2408 C2409 1.382 . S
C2408 H2434 0.950 . S
C2409 N2406 1.332 . S
C2409 C2408 1.382 . S
C2409 H2420 0.952 . S
C2410 C2407 1.388 . S
C2410 C2411 1.382 . S
C2410 H2435 0.950 . S
C2411 N2406 1.332 . S
C2411 C2410 1.382 . S
C2411 H2421 0.948 . S
N2412 Co2390 2.282 . S
N2412 C2416 1.332 . S
N2412 C2417 1.332 . S
C2413 C2414 1.388 . S
C2413 C2417 1.382 . S
C2413 H2436 0.950 . S
C2414 C2413 1.388 . S
C2414 C2415 1.386 . S
C2415 C2414 1.386 . S
C2415 C2416 1.382 . S
C2415 H2437 0.950 . S
C2416 N2412 1.332 . S
C2416 C2415 1.382 . S
C2416 H2418 0.952 . S
C2417 N2412 1.332 . S
C2417 C2413 1.382 . S
C2417 H2419 0.948 . S
H2418 C2416 0.952 . S
H2419 C2417 0.948 . S
H2420 C2409 0.952 . S
H2421 C2411 0.948 . S
C2422 C2388 1.395 . S
C2422 C2392 1.391 . S
C2423 C2385 1.389 . S
C2423 C2405 1.392 . S
C2424 C2395 1.392 . S
C2424 C2397 1.389 . S
C2425 C2400 1.395 . S
C2425 C2402 1.391 . S
H2426 C2386 0.951 . S
H2427 C2387 0.950 . S
H2428 C2393 0.949 . S
H2429 C2394 0.950 . S
H2430 C2398 0.951 . S
H2431 C2399 0.950 . S
H2432 C2403 0.949 . S
H2433 C2404 0.950 . S
H2434 C2408 0.950 . S
H2435 C2410 0.950 . S
H2436 C2413 0.950 . S
H2437 C2415 0.950 . S
C2438 C2439 1.443 . S
C2438 N2442 1.376 . S
C2438 C2476 1.389 . S
C2439 C2438 1.443 . S
C2439 C2440 1.340 . S
C2439 H2479 0.951 . S
C2440 C2439 1.340 . S
C2440 C2441 1.439 . S
C2440 H2480 0.950 . S
C2441 C2440 1.439 . S
C2441 N2442 1.374 . S
C2441 C2475 1.395 . S
N2442 C2438 1.376 . S
N2442 C2441 1.374 . S
N2442 Co2443 2.008 . S
Co2443 N2442 2.008 . S
Co2443 N2444 1.995 . S
Co2443 N2449 2.008 . S
Co2443 N2454 1.995 . S
Co2443 N2459 2.282 . S
Co2443 N2465 2.282 . S
N2444 Co2443 1.995 . S
N2444 C2445 1.376 . S
N2444 C2448 1.383 . S
C2445 N2444 1.376 . S
C2445 C2446 1.446 . S
C2445 C2475 1.391 . S
C2446 C2445 1.446 . S
C2446 C2447 1.339 . S
C2446 H2481 0.949 . S
C2447 C2446 1.339 . S
C2447 C2448 1.439 . S
C2447 H2482 0.950 . S
C2448 N2444 1.383 . S
C2448 C2447 1.439 . S
C2448 C2477 1.392 . S
N2449 Co2443 2.008 . S
N2449 C2450 1.376 . S
N2449 C2453 1.374 . S
C2450 N2449 1.376 . S
C2450 C2451 1.443 . S
C2450 C2477 1.389 . S
C2451 C2450 1.443 . S
C2451 C2452 1.340 . S
C2451 H2483 0.951 . S
C2452 C2451 1.340 . S
C2452 C2453 1.439 . S
C2452 H2484 0.950 . S
C2453 N2449 1.374 . S
C2453 C2452 1.439 . S
C2453 C2478 1.395 . S
N2454 Co2443 1.995 . S
N2454 C2455 1.376 . S
N2454 C2458 1.383 . S
C2455 N2454 1.376 . S
C2455 C2456 1.446 . S
C2455 C2478 1.391 . S
C2456 C2455 1.446 . S
C2456 C2457 1.339 . S
C2456 H2485 0.949 . S
C2457 C2456 1.339 . S
C2457 C2458 1.439 . S
C2457 H2486 0.950 . S
C2458 N2454 1.383 . S
C2458 C2457 1.439 . S
C2458 C2476 1.392 . S
N2459 Co2443 2.282 . S
N2459 C2462 1.332 . S
N2459 C2464 1.332 . S
C2460 C2461 1.386 . S
C2460 C2463 1.388 . S
C2461 C2460 1.386 . S
C2461 C2462 1.382 . S
C2461 H2487 0.950 . S
C2462 N2459 1.332 . S
C2462 C2461 1.382 . S
C2462 H2473 0.952 . S
C2463 C2460 1.388 . S
C2463 C2464 1.382 . S
C2463 H2488 0.950 . S
C2464 N2459 1.332 . S
C2464 C2463 1.382 . S
C2464 H2474 0.948 . S
N2465 Co2443 2.282 . S
N2465 C2469 1.332 . S
N2465 C2470 1.332 . S
C2466 C2467 1.388 . S
C2466 C2470 1.382 . S
C2466 H2489 0.950 . S
C2467 C2466 1.388 . S
C2467 C2468 1.386 . S
C2468 C2467 1.386 . S
C2468 C2469 1.382 . S
C2468 H2490 0.950 . S
C2469 N2465 1.332 . S
C2469 C2468 1.382 . S
C2469 H2471 0.952 . S
C2470 N2465 1.332 . S
C2470 C2466 1.382 . S
C2470 H2472 0.948 . S
H2471 C2469 0.952 . S
H2472 C2470 0.948 . S
H2473 C2462 0.952 . S
H2474 C2464 0.948 . S
C2475 C2441 1.395 . S
C2475 C2445 1.391 . S
C2476 C2438 1.389 . S
C2476 C2458 1.392 . S
C2477 C2448 1.392 . S
C2477 C2450 1.389 . S
C2478 C2453 1.395 . S
C2478 C2455 1.391 . S
H2479 C2439 0.951 . S
H2480 C2440 0.950 . S
H2481 C2446 0.949 . S
H2482 C2447 0.950 . S
H2483 C2451 0.951 . S
H2484 C2452 0.950 . S
H2485 C2456 0.949 . S
H2486 C2457 0.950 . S
H2487 C2461 0.950 . S
H2488 C2463 0.950 . S
H2489 C2466 0.950 . S
H2490 C2468 0.950 . S
C2491 C2492 1.443 . S
C2491 N2495 1.376 . S
C2491 C2529 1.389 . S
C2492 C2491 1.443 . S
C2492 C2493 1.340 . S
C2492 H2532 0.951 . S
C2493 C2492 1.340 . S
C2493 C2494 1.439 . S
C2493 H2533 0.950 . S
C2494 C2493 1.439 . S
C2494 N2495 1.374 . S
C2494 C2528 1.395 . S
N2495 C2491 1.376 . S
N2495 C2494 1.374 . S
N2495 Co2496 2.008 . S
Co2496 N2495 2.008 . S
Co2496 N2497 1.995 . S
Co2496 N2502 2.008 . S
Co2496 N2507 1.995 . S
Co2496 N2512 2.282 . S
Co2496 N2518 2.282 . S
N2497 Co2496 1.995 . S
N2497 C2498 1.376 . S
N2497 C2501 1.383 . S
C2498 N2497 1.376 . S
C2498 C2499 1.446 . S
C2498 C2528 1.391 . S
C2499 C2498 1.446 . S
C2499 C2500 1.339 . S
C2499 H2534 0.949 . S
C2500 C2499 1.339 . S
C2500 C2501 1.439 . S
C2500 H2535 0.950 . S
C2501 N2497 1.383 . S
C2501 C2500 1.439 . S
C2501 C2530 1.392 . S
N2502 Co2496 2.008 . S
N2502 C2503 1.376 . S
N2502 C2506 1.374 . S
C2503 N2502 1.376 . S
C2503 C2504 1.443 . S
C2503 C2530 1.389 . S
C2504 C2503 1.443 . S
C2504 C2505 1.340 . S
C2504 H2536 0.951 . S
C2505 C2504 1.340 . S
C2505 C2506 1.439 . S
C2505 H2537 0.950 . S
C2506 N2502 1.374 . S
C2506 C2505 1.439 . S
C2506 C2531 1.395 . S
N2507 Co2496 1.995 . S
N2507 C2508 1.376 . S
N2507 C2511 1.383 . S
C2508 N2507 1.376 . S
C2508 C2509 1.446 . S
C2508 C2531 1.391 . S
C2509 C2508 1.446 . S
C2509 C2510 1.339 . S
C2509 H2538 0.949 . S
C2510 C2509 1.339 . S
C2510 C2511 1.439 . S
C2510 H2539 0.950 . S
C2511 N2507 1.383 . S
C2511 C2510 1.439 . S
C2511 C2529 1.392 . S
N2512 Co2496 2.282 . S
N2512 C2515 1.332 . S
N2512 C2517 1.332 . S
C2513 C2514 1.386 . S
C2513 C2516 1.388 . S
C2514 C2513 1.386 . S
C2514 C2515 1.382 . S
C2514 H2540 0.950 . S
C2515 N2512 1.332 . S
C2515 C2514 1.382 . S
C2515 H2526 0.952 . S
C2516 C2513 1.388 . S
C2516 C2517 1.382 . S
C2516 H2541 0.950 . S
C2517 N2512 1.332 . S
C2517 C2516 1.382 . S
C2517 H2527 0.948 . S
N2518 Co2496 2.282 . S
N2518 C2522 1.332 . S
N2518 C2523 1.332 . S
C2519 C2520 1.388 . S
C2519 C2523 1.382 . S
C2519 H2542 0.950 . S
C2520 C2519 1.388 . S
C2520 C2521 1.386 . S
C2521 C2520 1.386 . S
C2521 C2522 1.382 . S
C2521 H2543 0.950 . S
C2522 N2518 1.332 . S
C2522 C2521 1.382 . S
C2522 H2524 0.952 . S
C2523 N2518 1.332 . S
C2523 C2519 1.382 . S
C2523 H2525 0.948 . S
H2524 C2522 0.952 . S
H2525 C2523 0.948 . S
H2526 C2515 0.952 . S
H2527 C2517 0.948 . S
C2528 C2494 1.395 . S
C2528 C2498 1.391 . S
C2529 C2491 1.389 . S
C2529 C2511 1.392 . S
C2530 C2501 1.392 . S
C2530 C2503 1.389 . S
C2531 C2506 1.395 . S
C2531 C2508 1.391 . S
H2532 C2492 0.951 . S
H2533 C2493 0.950 . S
H2534 C2499 0.949 . S
H2535 C2500 0.950 . S
H2536 C2504 0.951 . S
H2537 C2505 0.950 . S
H2538 C2509 0.949 . S
H2539 C2510 0.950 . S
H2540 C2514 0.950 . S
H2541 C2516 0.950 . S
H2542 C2519 0.950 . S
H2543 C2521 0.950 . S
C2544 C2545 1.349 . S
C2544 C2546 1.327 . S
C2544 H2569 0.950 . S
C2545 C2544 1.349 . S
C2545 C2561 1.349 . S
C2546 C2544 1.327 . S
C2546 C2565 1.429 . S
C2546 H2570 0.950 . S
C2547 C2564 1.574 1_565 S
C2547 C2566 1.368 . S
C2547 H2571 0.949 . S
H2548 C2552 0.949 1_545 S
C2549 C2550 1.349 . S
C2549 C2551 1.327 . S
C2549 H2572 0.950 . S
C2550 C2549 1.349 . S
C2550 C2562 1.349 . S
C2551 C2549 1.327 . S
C2551 C2567 1.429 . S
C2551 H2573 0.950 . S
C2552 H2548 0.949 1_565 S
C2552 C2560 1.574 . S
C2552 C2568 1.368 1_565 S
H2553 C2561 0.950 . S
H2554 C2559 0.950 . S
H2555 C2560 0.949 . S
H2556 C2562 0.950 . S
H2557 C2563 0.950 . S
H2558 C2564 0.949 . S
C2559 H2554 0.950 . S
C2559 C2561 1.327 . S
C2559 C2565 1.429 . S
C2560 C2552 1.574 . S
C2560 H2555 0.949 . S
C2560 C2566 1.368 . S
C2561 C2545 1.349 . S
C2561 H2553 0.950 . S
C2561 C2559 1.327 . S
C2562 C2550 1.349 . S
C2562 H2556 0.950 . S
C2562 C2563 1.327 . S
C2563 H2557 0.950 . S
C2563 C2562 1.327 . S
C2563 C2567 1.429 . S
C2564 C2547 1.574 1_545 S
C2564 H2558 0.949 . S
C2564 C2568 1.368 . S
C2565 C2546 1.429 . S
C2565 C2559 1.429 . S
C2565 C2566 1.523 . S
C2566 C2547 1.368 . S
C2566 C2560 1.368 . S
C2566 C2565 1.523 . S
C2567 C2551 1.429 . S
C2567 C2563 1.429 . S
C2567 C2568 1.523 . S
C2568 C2552 1.368 1_545 S
C2568 C2564 1.368 . S
C2568 C2567 1.523 . S
H2569 C2544 0.950 . S
H2570 C2546 0.950 . S
H2571 C2547 0.949 . S
H2572 C2549 0.950 . S
H2573 C2551 0.950 . S
C2574 C2575 1.349 . S
C2574 C2576 1.327 . S
C2574 H2599 0.950 . S
C2575 C2574 1.349 . S
C2575 C2591 1.349 . S
C2576 C2574 1.327 . S
C2576 C2595 1.429 . S
C2576 H2600 0.950 . S
C2577 C2594 1.574 1_455 S
C2577 C2596 1.368 . S
C2577 H2601 0.949 . S
H2578 C2582 0.949 . S
C2579 C2580 1.349 . S
C2579 C2581 1.327 . S
C2579 H2602 0.950 . S
C2580 C2579 1.349 . S
C2580 C2592 1.349 . S
C2581 C2579 1.327 . S
C2581 C2597 1.429 . S
C2581 H2603 0.950 . S
C2582 H2578 0.949 . S
C2582 C2590 1.574 1_655 S
C2582 C2598 1.368 . S
H2583 C2591 0.950 . S
H2584 C2589 0.950 . S
H2585 C2590 0.949 . S
H2586 C2592 0.950 . S
H2587 C2593 0.950 . S
H2588 C2594 0.949 . S
C2589 H2584 0.950 . S
C2589 C2591 1.327 . S
C2589 C2595 1.429 . S
C2590 C2582 1.574 1_455 S
C2590 H2585 0.949 . S
C2590 C2596 1.368 . S
C2591 C2575 1.349 . S
C2591 H2583 0.950 . S
C2591 C2589 1.327 . S
C2592 C2580 1.349 . S
C2592 H2586 0.950 . S
C2592 C2593 1.327 . S
C2593 H2587 0.950 . S
C2593 C2592 1.327 . S
C2593 C2597 1.429 . S
C2594 C2577 1.574 1_655 S
C2594 H2588 0.949 . S
C2594 C2598 1.368 . S
C2595 C2576 1.429 . S
C2595 C2589 1.429 . S
C2595 C2596 1.523 . S
C2596 C2577 1.368 . S
C2596 C2590 1.368 . S
C2596 C2595 1.523 . S
C2597 C2581 1.429 . S
C2597 C2593 1.429 . S
C2597 C2598 1.523 . S
C2598 C2582 1.368 . S
C2598 C2594 1.368 . S
C2598 C2597 1.523 . S
H2599 C2574 0.950 . S
H2600 C2576 0.950 . S
H2601 C2577 0.949 . S
H2602 C2579 0.950 . S
H2603 C2581 0.950 . S
C2604 C2605 1.349 . S
C2604 C2606 1.327 . S
C2604 H2629 0.950 . S
C2605 C2604 1.349 . S
C2605 C2621 1.349 . S
C2606 C2604 1.327 . S
C2606 C2625 1.429 . S
C2606 H2630 0.950 . S
C2607 C2624 1.574 1_565 S
C2607 C2626 1.368 . S
C2607 H2631 0.949 . S
H2608 C2612 0.950 . S
C2609 C2610 1.349 . S
C2609 C2611 1.327 . S
C2609 H2632 0.950 . S
C2610 C2609 1.349 . S
C2610 C2622 1.349 . S
C2611 C2609 1.327 . S
C2611 C2627 1.429 . S
C2611 H2633 0.950 . S
C2612 H2608 0.950 . S
C2612 C2620 1.574 . S
C2612 C2628 1.368 1_565 S
H2613 C2621 0.950 . S
H2614 C2619 0.950 . S
H2615 C2620 0.949 . S
H2616 C2622 0.950 . S
H2617 C2623 0.950 . S
H2618 C2624 0.949 . S
C2619 H2614 0.950 . S
C2619 C2621 1.327 . S
C2619 C2625 1.429 . S
C2620 C2612 1.574 . S
C2620 H2615 0.949 . S
C2620 C2626 1.368 . S
C2621 C2605 1.349 . S
C2621 H2613 0.950 . S
C2621 C2619 1.327 . S
C2622 C2610 1.349 . S
C2622 H2616 0.950 . S
C2622 C2623 1.327 . S
C2623 H2617 0.950 . S
C2623 C2622 1.327 . S
C2623 C2627 1.429 . S
C2624 C2607 1.574 1_545 S
C2624 H2618 0.949 . S
C2624 C2628 1.368 . S
C2625 C2606 1.429 . S
C2625 C2619 1.429 . S
C2625 C2626 1.523 . S
C2626 C2607 1.368 . S
C2626 C2620 1.368 . S
C2626 C2625 1.523 . S
C2627 C2611 1.429 . S
C2627 C2623 1.429 . S
C2627 C2628 1.523 . S
C2628 C2612 1.368 1_545 S
C2628 C2624 1.368 . S
C2628 C2627 1.523 . S
H2629 C2604 0.950 . S
H2630 C2606 0.950 . S
H2631 C2607 0.949 . S
H2632 C2609 0.950 . S
H2633 C2611 0.950 . S
C2634 C2635 1.349 . S
C2634 C2636 1.327 . S
C2634 H2659 0.950 . S
C2635 C2634 1.349 . S
C2635 C2651 1.349 . S
C2636 C2634 1.327 . S
C2636 C2655 1.429 . S
C2636 H2660 0.950 . S
C2637 C2654 1.574 1_655 S
C2637 C2656 1.368 . S
C2637 H2661 0.949 . S
H2638 C2642 0.949 . S
C2639 C2640 1.349 . S
C2639 C2641 1.327 . S
C2639 H2662 0.950 . S
C2640 C2639 1.349 . S
C2640 C2652 1.349 . S
C2641 C2639 1.327 . S
C2641 C2657 1.429 . S
C2641 H2663 0.950 . S
C2642 H2638 0.949 . S
C2642 C2650 1.574 1_455 S
C2642 C2658 1.368 . S
H2643 C2651 0.950 . S
H2644 C2649 0.950 . S
H2645 C2650 0.949 . S
H2646 C2652 0.950 . S
H2647 C2653 0.950 . S
H2648 C2654 0.949 . S
C2649 H2644 0.950 . S
C2649 C2651 1.327 . S
C2649 C2655 1.429 . S
C2650 C2642 1.574 1_655 S
C2650 H2645 0.949 . S
C2650 C2656 1.368 . S
C2651 C2635 1.349 . S
C2651 H2643 0.950 . S
C2651 C2649 1.327 . S
C2652 C2640 1.349 . S
C2652 H2646 0.950 . S
C2652 C2653 1.327 . S
C2653 H2647 0.950 . S
C2653 C2652 1.327 . S
C2653 C2657 1.429 . S
C2654 C2637 1.574 1_455 S
C2654 H2648 0.949 . S
C2654 C2658 1.368 . S
C2655 C2636 1.429 . S
C2655 C2649 1.429 . S
C2655 C2656 1.523 . S
C2656 C2637 1.368 . S
C2656 C2650 1.368 . S
C2656 C2655 1.523 . S
C2657 C2641 1.429 . S
C2657 C2653 1.429 . S
C2657 C2658 1.523 . S
C2658 C2642 1.368 . S
C2658 C2654 1.368 . S
C2658 C2657 1.523 . S
H2659 C2634 0.950 . S
H2660 C2636 0.950 . S
H2661 C2637 0.949 . S
H2662 C2639 0.950 . S
H2663 C2641 0.950 . S
C2664 C2665 1.349 . S
C2664 C2666 1.327 . S
C2664 H2689 0.950 . S
C2665 C2664 1.349 . S
C2665 C2681 1.349 . S
C2666 C2664 1.327 . S
C2666 C2685 1.429 . S
C2666 H2690 0.950 . S
C2667 C2684 1.574 1_565 S
C2667 C2686 1.368 . S
C2667 H2691 0.949 . S
H2668 C2672 0.949 . S
C2669 C2670 1.349 . S
C2669 C2671 1.327 . S
C2669 H2692 0.950 . S
C2670 C2669 1.349 . S
C2670 C2682 1.349 . S
C2671 C2669 1.327 . S
C2671 C2687 1.429 . S
C2671 H2693 0.950 . S
C2672 H2668 0.949 . S
C2672 C2680 1.574 . S
C2672 C2688 1.368 . S
H2673 C2681 0.950 . S
H2674 C2679 0.950 . S
H2675 C2680 0.950 . S
H2676 C2682 0.950 . S
H2677 C2683 0.950 . S
H2678 C2684 0.949 . S
C2679 H2674 0.950 . S
C2679 C2681 1.327 . S
C2679 C2685 1.429 . S
C2680 C2672 1.574 . S
C2680 H2675 0.950 . S
C2680 C2686 1.368 1_545 S
C2681 C2665 1.349 . S
C2681 H2673 0.950 . S
C2681 C2679 1.327 . S
C2682 C2670 1.349 . S
C2682 H2676 0.950 . S
C2682 C2683 1.327 . S
C2683 H2677 0.950 . S
C2683 C2682 1.327 . S
C2683 C2687 1.429 . S
C2684 C2667 1.574 1_545 S
C2684 H2678 0.949 . S
C2684 C2688 1.368 . S
C2685 C2666 1.429 . S
C2685 C2679 1.429 . S
C2685 C2686 1.523 . S
C2686 C2667 1.368 . S
C2686 C2680 1.368 1_565 S
C2686 C2685 1.523 . S
C2687 C2671 1.429 . S
C2687 C2683 1.429 . S
C2687 C2688 1.523 . S
C2688 C2672 1.368 . S
C2688 C2684 1.368 . S
C2688 C2687 1.523 . S
H2689 C2664 0.950 . S
H2690 C2666 0.950 . S
H2691 C2667 0.949 . S
H2692 C2669 0.950 . S
H2693 C2671 0.950 . S
C2694 C2695 1.349 . S
C2694 C2696 1.327 . S
C2694 H2719 0.950 . S
C2695 C2694 1.349 . S
C2695 C2711 1.349 . S
C2696 C2694 1.327 . S
C2696 C2715 1.429 . S
C2696 H2720 0.950 . S
C2697 C2714 1.574 1_655 S
C2697 C2716 1.368 . S
C2697 H2721 0.949 . S
H2698 C2702 0.949 . S
C2699 C2700 1.349 . S
C2699 C2701 1.327 . S
C2699 H2722 0.950 . S
C2700 C2699 1.349 . S
C2700 C2712 1.349 . S
C2701 C2699 1.327 . S
C2701 C2717 1.429 . S
C2701 H2723 0.950 . S
C2702 H2698 0.949 . S
C2702 C2710 1.574 1_455 S
C2702 C2718 1.368 . S
H2703 C2711 0.950 . S
H2704 C2709 0.950 . S
H2705 C2710 0.949 . S
H2706 C2712 0.950 . S
H2707 C2713 0.950 . S
H2708 C2714 0.949 . S
C2709 H2704 0.950 . S
C2709 C2711 1.327 . S
C2709 C2715 1.429 . S
C2710 C2702 1.574 1_655 S
C2710 H2705 0.949 . S
C2710 C2716 1.368 . S
C2711 C2695 1.349 . S
C2711 H2703 0.950 . S
C2711 C2709 1.327 . S
C2712 C2700 1.349 . S
C2712 H2706 0.950 . S
C2712 C2713 1.327 . S
C2713 H2707 0.950 . S
C2713 C2712 1.327 . S
C2713 C2717 1.429 . S
C2714 C2697 1.574 1_455 S
C2714 H2708 0.949 . S
C2714 C2718 1.368 . S
C2715 C2696 1.429 . S
C2715 C2709 1.429 . S
C2715 C2716 1.523 . S
C2716 C2697 1.368 . S
C2716 C2710 1.368 . S
C2716 C2715 1.523 . S
C2717 C2701 1.429 . S
C2717 C2713 1.429 . S
C2717 C2718 1.523 . S
C2718 C2702 1.368 . S
C2718 C2714 1.368 . S
C2718 C2717 1.523 . S
H2719 C2694 0.950 . S
H2720 C2696 0.950 . S
H2721 C2697 0.949 . S
H2722 C2699 0.950 . S
H2723 C2701 0.950 . S
C2724 C2725 1.349 . S
C2724 C2726 1.327 . S
C2724 H2749 0.950 . S
C2725 C2724 1.349 . S
C2725 C2741 1.349 . S
C2726 C2724 1.327 . S
C2726 C2745 1.429 . S
C2726 H2750 0.950 . S
C2727 C2744 1.574 1_545 S
C2727 C2746 1.368 . S
C2727 H2751 0.949 . S
H2728 C2732 0.949 . S
C2729 C2730 1.349 . S
C2729 C2731 1.327 . S
C2729 H2752 0.950 . S
C2730 C2729 1.349 . S
C2730 C2742 1.349 . S
C2731 C2729 1.327 . S
C2731 C2747 1.429 . S
C2731 H2753 0.950 . S
C2732 H2728 0.949 . S
C2732 C2740 1.574 1_565 S
C2732 C2748 1.368 . S
H2733 C2741 0.950 . S
H2734 C2739 0.950 . S
H2735 C2740 0.949 . S
H2736 C2742 0.950 . S
H2737 C2743 0.950 . S
H2738 C2744 0.949 . S
C2739 H2734 0.950 . S
C2739 C2741 1.327 . S
C2739 C2745 1.429 . S
C2740 C2732 1.574 1_545 S
C2740 H2735 0.949 . S
C2740 C2746 1.368 . S
C2741 C2725 1.349 . S
C2741 H2733 0.950 . S
C2741 C2739 1.327 . S
C2742 C2730 1.349 . S
C2742 H2736 0.950 . S
C2742 C2743 1.327 . S
C2743 H2737 0.950 . S
C2743 C2742 1.327 . S
C2743 C2747 1.429 . S
C2744 C2727 1.574 1_565 S
C2744 H2738 0.949 . S
C2744 C2748 1.368 . S
C2745 C2726 1.429 . S
C2745 C2739 1.429 . S
C2745 C2746 1.523 . S
C2746 C2727 1.368 . S
C2746 C2740 1.368 . S
C2746 C2745 1.523 . S
C2747 C2731 1.429 . S
C2747 C2743 1.429 . S
C2747 C2748 1.523 . S
C2748 C2732 1.368 . S
C2748 C2744 1.368 . S
C2748 C2747 1.523 . S
H2749 C2724 0.950 . S
H2750 C2726 0.950 . S
H2751 C2727 0.949 . S
H2752 C2729 0.950 . S
H2753 C2731 0.950 . S
C2754 C2755 1.349 . S
C2754 C2756 1.327 . S
C2754 H2779 0.950 . S
C2755 C2754 1.349 . S
C2755 C2771 1.349 . S
C2756 C2754 1.327 . S
C2756 C2775 1.429 . S
C2756 H2780 0.950 . S
C2757 C2774 1.574 1_455 S
C2757 C2776 1.368 . S
C2757 H2781 0.949 . S
H2758 C2762 0.949 . S
C2759 C2760 1.349 . S
C2759 C2761 1.327 . S
C2759 H2782 0.950 . S
C2760 C2759 1.349 . S
C2760 C2772 1.349 . S
C2761 C2759 1.327 . S
C2761 C2777 1.429 . S
C2761 H2783 0.950 . S
C2762 H2758 0.949 . S
C2762 C2770 1.574 1_655 S
C2762 C2778 1.368 . S
H2763 C2771 0.950 . S
H2764 C2769 0.950 . S
H2765 C2770 0.949 . S
H2766 C2772 0.950 . S
H2767 C2773 0.950 . S
H2768 C2774 0.949 . S
C2769 H2764 0.950 . S
C2769 C2771 1.327 . S
C2769 C2775 1.429 . S
C2770 C2762 1.574 1_455 S
C2770 H2765 0.949 . S
C2770 C2776 1.368 . S
C2771 C2755 1.349 . S
C2771 H2763 0.950 . S
C2771 C2769 1.327 . S
C2772 C2760 1.349 . S
C2772 H2766 0.950 . S
C2772 C2773 1.327 . S
C2773 H2767 0.950 . S
C2773 C2772 1.327 . S
C2773 C2777 1.429 . S
C2774 C2757 1.574 1_655 S
C2774 H2768 0.949 . S
C2774 C2778 1.368 . S
C2775 C2756 1.429 . S
C2775 C2769 1.429 . S
C2775 C2776 1.523 . S
C2776 C2757 1.368 . S
C2776 C2770 1.368 . S
C2776 C2775 1.523 . S
C2777 C2761 1.429 . S
C2777 C2773 1.429 . S
C2777 C2778 1.523 . S
C2778 C2762 1.368 . S
C2778 C2774 1.368 . S
C2778 C2777 1.523 . S
H2779 C2754 0.950 . S
H2780 C2756 0.950 . S
H2781 C2757 0.949 . S
H2782 C2759 0.950 . S
H2783 C2761 0.950 . S
C2784 C2785 1.349 . S
C2784 C2786 1.327 . S
C2784 H2809 0.950 . S
C2785 C2784 1.349 . S
C2785 C2801 1.349 . S
C2786 C2784 1.327 . S
C2786 C2805 1.429 . S
C2786 H2810 0.950 . S
C2787 C2804 1.574 . S
C2787 C2806 1.368 1_556 S
C2787 H2811 0.949 . S
H2788 C2792 0.949 . S
C2789 C2790 1.349 . S
C2789 C2791 1.327 . S
C2789 H2812 0.950 . S
C2790 C2789 1.349 . S
C2790 C2802 1.349 . S
C2791 C2789 1.327 . S
C2791 C2807 1.429 . S
C2791 H2813 0.950 . S
C2792 H2788 0.949 . S
C2792 C2800 1.574 1_556 S
C2792 C2808 1.368 . S
H2793 C2801 0.950 . S
H2794 C2799 0.950 . S
H2795 C2800 0.949 . S
H2796 C2802 0.950 . S
H2797 C2803 0.950 . S
H2798 C2804 0.949 . S
C2799 H2794 0.950 . S
C2799 C2801 1.327 . S
C2799 C2805 1.429 . S
C2800 C2792 1.574 1_554 S
C2800 H2795 0.949 . S
C2800 C2806 1.368 . S
C2801 C2785 1.349 . S
C2801 H2793 0.950 . S
C2801 C2799 1.327 . S
C2802 C2790 1.349 . S
C2802 H2796 0.950 . S
C2802 C2803 1.327 . S
C2803 H2797 0.950 . S
C2803 C2802 1.327 . S
C2803 C2807 1.429 . S
C2804 C2787 1.574 . S
C2804 H2798 0.949 . S
C2804 C2808 1.368 . S
C2805 C2786 1.429 . S
C2805 C2799 1.429 . S
C2805 C2806 1.523 . S
C2806 C2787 1.368 1_554 S
C2806 C2800 1.368 . S
C2806 C2805 1.523 . S
C2807 C2791 1.429 . S
C2807 C2803 1.429 . S
C2807 C2808 1.523 . S
C2808 C2792 1.368 . S
C2808 C2804 1.368 . S
C2808 C2807 1.523 . S
H2809 C2784 0.950 . S
H2810 C2786 0.950 . S
H2811 C2787 0.949 . S
H2812 C2789 0.950 . S
H2813 C2791 0.950 . S
C2814 C2815 1.349 . S
C2814 C2816 1.327 . S
C2814 H2839 0.950 . S
C2815 C2814 1.349 . S
C2815 C2831 1.349 . S
C2816 C2814 1.327 . S
C2816 C2835 1.429 . S
C2816 H2840 0.950 . S
C2817 C2834 1.574 1_556 S
C2817 C2836 1.368 . S
C2817 H2841 0.949 . S
H2818 C2822 0.949 . S
C2819 C2820 1.349 . S
C2819 C2821 1.327 . S
C2819 H2842 0.950 . S
C2820 C2819 1.349 . S
C2820 C2832 1.349 . S
C2821 C2819 1.327 . S
C2821 C2837 1.429 . S
C2821 H2843 0.950 . S
C2822 H2818 0.949 . S
C2822 C2830 1.574 1_554 S
C2822 C2838 1.368 . S
H2823 C2831 0.950 . S
H2824 C2829 0.950 . S
H2825 C2830 0.949 . S
H2826 C2832 0.950 . S
H2827 C2833 0.950 . S
H2828 C2834 0.949 . S
C2829 H2824 0.950 . S
C2829 C2831 1.327 . S
C2829 C2835 1.429 . S
C2830 C2822 1.574 1_556 S
C2830 H2825 0.949 . S
C2830 C2836 1.368 . S
C2831 C2815 1.349 . S
C2831 H2823 0.950 . S
C2831 C2829 1.327 . S
C2832 C2820 1.349 . S
C2832 H2826 0.950 . S
C2832 C2833 1.327 . S
C2833 H2827 0.950 . S
C2833 C2832 1.327 . S
C2833 C2837 1.429 . S
C2834 C2817 1.574 1_554 S
C2834 H2828 0.949 . S
C2834 C2838 1.368 . S
C2835 C2816 1.429 . S
C2835 C2829 1.429 . S
C2835 C2836 1.523 . S
C2836 C2817 1.368 . S
C2836 C2830 1.368 . S
C2836 C2835 1.523 . S
C2837 C2821 1.429 . S
C2837 C2833 1.429 . S
C2837 C2838 1.523 . S
C2838 C2822 1.368 . S
C2838 C2834 1.368 . S
C2838 C2837 1.523 . S
H2839 C2814 0.950 . S
H2840 C2816 0.950 . S
H2841 C2817 0.949 . S
H2842 C2819 0.950 . S
H2843 C2821 0.950 . S
C2844 C2845 1.349 . S
C2844 C2846 1.327 . S
C2844 H2869 0.950 . S
C2845 C2844 1.349 . S
C2845 C2861 1.349 . S
C2846 C2844 1.327 . S
C2846 C2865 1.429 . S
C2846 H2870 0.950 . S
C2847 C2864 1.574 1_556 S
C2847 C2866 1.368 . S
C2847 H2871 0.949 . S
H2848 C2852 0.949 . S
C2849 C2850 1.349 . S
C2849 C2851 1.327 . S
C2849 H2872 0.950 . S
C2850 C2849 1.349 . S
C2850 C2862 1.349 . S
C2851 C2849 1.327 . S
C2851 C2867 1.429 . S
C2851 H2873 0.950 . S
C2852 H2848 0.949 . S
C2852 C2860 1.574 1_554 S
C2852 C2868 1.368 . S
H2853 C2861 0.950 . S
H2854 C2859 0.950 . S
H2855 C2860 0.949 . S
H2856 C2862 0.950 . S
H2857 C2863 0.950 . S
H2858 C2864 0.949 . S
C2859 H2854 0.950 . S
C2859 C2861 1.327 . S
C2859 C2865 1.429 . S
C2860 C2852 1.574 1_556 S
C2860 H2855 0.949 . S
C2860 C2866 1.368 . S
C2861 C2845 1.349 . S
C2861 H2853 0.950 . S
C2861 C2859 1.327 . S
C2862 C2850 1.349 . S
C2862 H2856 0.950 . S
C2862 C2863 1.327 . S
C2863 H2857 0.950 . S
C2863 C2862 1.327 . S
C2863 C2867 1.429 . S
C2864 C2847 1.574 1_554 S
C2864 H2858 0.949 . S
C2864 C2868 1.368 . S
C2865 C2846 1.429 . S
C2865 C2859 1.429 . S
C2865 C2866 1.523 . S
C2866 C2847 1.368 . S
C2866 C2860 1.368 . S
C2866 C2865 1.523 . S
C2867 C2851 1.429 . S
C2867 C2863 1.429 . S
C2867 C2868 1.523 . S
C2868 C2852 1.368 . S
C2868 C2864 1.368 . S
C2868 C2867 1.523 . S
H2869 C2844 0.950 . S
H2870 C2846 0.950 . S
H2871 C2847 0.949 . S
H2872 C2849 0.950 . S
H2873 C2851 0.950 . S
C2874 C2875 1.349 . S
C2874 C2876 1.327 . S
C2874 H2899 0.950 . S
C2875 C2874 1.349 . S
C2875 C2891 1.349 . S
C2876 C2874 1.327 . S
C2876 C2895 1.429 . S
C2876 H2900 0.950 . S
C2877 C2894 1.574 1_556 S
C2877 C2896 1.368 . S
C2877 H2901 0.949 . S
H2878 C2882 0.949 . S
C2879 C2880 1.349 . S
C2879 C2881 1.327 . S
C2879 H2902 0.950 . S
C2880 C2879 1.349 . S
C2880 C2892 1.349 . S
C2881 C2879 1.327 . S
C2881 C2897 1.429 . S
C2881 H2903 0.950 . S
C2882 H2878 0.949 . S
C2882 C2890 1.574 1_554 S
C2882 C2898 1.368 . S
H2883 C2891 0.950 . S
H2884 C2889 0.950 . S
H2885 C2890 0.949 . S
H2886 C2892 0.950 . S
H2887 C2893 0.950 . S
H2888 C2894 0.949 . S
C2889 H2884 0.950 . S
C2889 C2891 1.327 . S
C2889 C2895 1.429 . S
C2890 C2882 1.574 1_556 S
C2890 H2885 0.949 . S
C2890 C2896 1.368 . S
C2891 C2875 1.349 . S
C2891 H2883 0.950 . S
C2891 C2889 1.327 . S
C2892 C2880 1.349 . S
C2892 H2886 0.950 . S
C2892 C2893 1.327 . S
C2893 H2887 0.950 . S
C2893 C2892 1.327 . S
C2893 C2897 1.429 . S
C2894 C2877 1.574 1_554 S
C2894 H2888 0.949 . S
C2894 C2898 1.368 . S
C2895 C2876 1.429 . S
C2895 C2889 1.429 . S
C2895 C2896 1.523 . S
C2896 C2877 1.368 . S
C2896 C2890 1.368 . S
C2896 C2895 1.523 . S
C2897 C2881 1.429 . S
C2897 C2893 1.429 . S
C2897 C2898 1.523 . S
C2898 C2882 1.368 . S
C2898 C2894 1.368 . S
C2898 C2897 1.523 . S
H2899 C2874 0.950 . S
H2900 C2876 0.950 . S
H2901 C2877 0.949 . S
H2902 C2879 0.950 . S
H2903 C2881 0.950 . S
C2904 C2905 1.349 . S
C2904 C2906 1.327 . S
C2904 H2929 0.950 . S
C2905 C2904 1.349 . S
C2905 C2921 1.349 . S
C2906 C2904 1.327 . S
C2906 C2925 1.429 . S
C2906 H2930 0.950 . S
C2907 C2924 1.574 1_554 S
C2907 C2926 1.368 . S
C2907 H2931 0.949 . S
H2908 C2912 0.949 . S
C2909 C2910 1.349 . S
C2909 C2911 1.327 . S
C2909 H2932 0.950 . S
C2910 C2909 1.349 . S
C2910 C2922 1.349 . S
C2911 C2909 1.327 . S
C2911 C2927 1.429 . S
C2911 H2933 0.950 . S
C2912 H2908 0.949 . S
C2912 C2920 1.574 . S
C2912 C2928 1.368 . S
H2913 C2921 0.950 . S
H2914 C2919 0.950 . S
H2915 C2920 0.949 . S
H2916 C2922 0.950 . S
H2917 C2923 0.950 . S
H2918 C2924 0.949 . S
C2919 H2914 0.950 . S
C2919 C2921 1.327 . S
C2919 C2925 1.429 . S
C2920 C2912 1.574 . S
C2920 H2915 0.949 . S
C2920 C2926 1.368 1_556 S
C2921 C2905 1.349 . S
C2921 H2913 0.950 . S
C2921 C2919 1.327 . S
C2922 C2910 1.349 . S
C2922 H2916 0.950 . S
C2922 C2923 1.327 . S
C2923 H2917 0.950 . S
C2923 C2922 1.327 . S
C2923 C2927 1.429 . S
C2924 C2907 1.574 1_556 S
C2924 H2918 0.949 . S
C2924 C2928 1.368 . S
C2925 C2906 1.429 . S
C2925 C2919 1.429 . S
C2925 C2926 1.523 . S
C2926 C2907 1.368 . S
C2926 C2920 1.368 1_554 S
C2926 C2925 1.523 . S
C2927 C2911 1.429 . S
C2927 C2923 1.429 . S
C2927 C2928 1.523 . S
C2928 C2912 1.368 . S
C2928 C2924 1.368 . S
C2928 C2927 1.523 . S
H2929 C2904 0.950 . S
H2930 C2906 0.950 . S
H2931 C2907 0.949 . S
H2932 C2909 0.950 . S
H2933 C2911 0.950 . S
C2934 C2935 1.349 . S
C2934 C2936 1.327 . S
C2934 H2959 0.950 . S
C2935 C2934 1.349 . S
C2935 C2951 1.349 . S
C2936 C2934 1.327 . S
C2936 C2955 1.429 . S
C2936 H2960 0.950 . S
C2937 C2954 1.574 1_556 S
C2937 C2956 1.368 . S
C2937 H2961 0.949 . S
H2938 C2942 0.949 . S
C2939 C2940 1.349 . S
C2939 C2941 1.327 . S
C2939 H2962 0.950 . S
C2940 C2939 1.349 . S
C2940 C2952 1.349 . S
C2941 C2939 1.327 . S
C2941 C2957 1.429 . S
C2941 H2963 0.950 . S
C2942 H2938 0.949 . S
C2942 C2950 1.574 1_554 S
C2942 C2958 1.368 . S
H2943 C2951 0.950 . S
H2944 C2949 0.950 . S
H2945 C2950 0.949 . S
H2946 C2952 0.950 . S
H2947 C2953 0.950 . S
H2948 C2954 0.949 . S
C2949 H2944 0.950 . S
C2949 C2951 1.327 . S
C2949 C2955 1.429 . S
C2950 C2942 1.574 1_556 S
C2950 H2945 0.949 . S
C2950 C2956 1.368 . S
C2951 C2935 1.349 . S
C2951 H2943 0.950 . S
C2951 C2949 1.327 . S
C2952 C2940 1.349 . S
C2952 H2946 0.950 . S
C2952 C2953 1.327 . S
C2953 H2947 0.950 . S
C2953 C2952 1.327 . S
C2953 C2957 1.429 . S
C2954 C2937 1.574 1_554 S
C2954 H2948 0.949 . S
C2954 C2958 1.368 . S
C2955 C2936 1.429 . S
C2955 C2949 1.429 . S
C2955 C2956 1.523 . S
C2956 C2937 1.368 . S
C2956 C2950 1.368 . S
C2956 C2955 1.523 . S
C2957 C2941 1.429 . S
C2957 C2953 1.429 . S
C2957 C2958 1.523 . S
C2958 C2942 1.368 . S
C2958 C2954 1.368 . S
C2958 C2957 1.523 . S
H2959 C2934 0.950 . S
H2960 C2936 0.950 . S
H2961 C2937 0.949 . S
H2962 C2939 0.950 . S
H2963 C2941 0.950 . S
C2964 C2965 1.349 . S
C2964 C2966 1.327 . S
C2964 H2989 0.950 . S
C2965 C2964 1.349 . S
C2965 C2981 1.349 . S
C2966 C2964 1.327 . S
C2966 C2985 1.429 . S
C2966 H2990 0.950 . S
C2967 C2984 1.574 1_554 S
C2967 C2986 1.368 . S
C2967 H2991 0.949 . S
H2968 C2972 0.949 . S
C2969 C2970 1.349 . S
C2969 C2971 1.327 . S
C2969 H2992 0.950 . S
C2970 C2969 1.349 . S
C2970 C2982 1.349 . S
C2971 C2969 1.327 . S
C2971 C2987 1.429 . S
C2971 H2993 0.950 . S
C2972 H2968 0.949 . S
C2972 C2980 1.574 1_556 S
C2972 C2988 1.368 . S
H2973 C2981 0.950 . S
H2974 C2979 0.950 . S
H2975 C2980 0.949 . S
H2976 C2982 0.950 . S
H2977 C2983 0.950 . S
H2978 C2984 0.949 . S
C2979 H2974 0.950 . S
C2979 C2981 1.327 . S
C2979 C2985 1.429 . S
C2980 C2972 1.574 1_554 S
C2980 H2975 0.949 . S
C2980 C2986 1.368 . S
C2981 C2965 1.349 . S
C2981 H2973 0.950 . S
C2981 C2979 1.327 . S
C2982 C2970 1.349 . S
C2982 H2976 0.950 . S
C2982 C2983 1.327 . S
C2983 H2977 0.950 . S
C2983 C2982 1.327 . S
C2983 C2987 1.429 . S
C2984 C2967 1.574 1_556 S
C2984 H2978 0.949 . S
C2984 C2988 1.368 . S
C2985 C2966 1.429 . S
C2985 C2979 1.429 . S
C2985 C2986 1.523 . S
C2986 C2967 1.368 . S
C2986 C2980 1.368 . S
C2986 C2985 1.523 . S
C2987 C2971 1.429 . S
C2987 C2983 1.429 . S
C2987 C2988 1.523 . S
C2988 C2972 1.368 . S
C2988 C2984 1.368 . S
C2988 C2987 1.523 . S
H2989 C2964 0.950 . S
H2990 C2966 0.950 . S
H2991 C2967 0.949 . S
H2992 C2969 0.950 . S
H2993 C2971 0.950 . S
C2994 C2995 1.349 . S
C2994 C2996 1.327 . S
C2994 H3019 0.950 . S
C2995 C2994 1.349 . S
C2995 C3011 1.349 . S
C2996 C2994 1.327 . S
C2996 C3015 1.429 . S
C2996 H3020 0.950 . S
C2997 C3014 1.574 1_556 S
C2997 C3016 1.368 . S
C2997 H3021 0.949 . S
H2998 C3002 0.949 . S
C2999 C3000 1.349 . S
C2999 C3001 1.327 . S
C2999 H3022 0.950 . S
C3000 C2999 1.349 . S
C3000 C3012 1.349 . S
C3001 C2999 1.327 . S
C3001 C3017 1.429 . S
C3001 H3023 0.950 . S
C3002 H2998 0.949 . S
C3002 C3010 1.574 1_554 S
C3002 C3018 1.368 . S
H3003 C3011 0.950 . S
H3004 C3009 0.950 . S
H3005 C3010 0.949 . S
H3006 C3012 0.950 . S
H3007 C3013 0.950 . S
H3008 C3014 0.949 . S
C3009 H3004 0.950 . S
C3009 C3011 1.327 . S
C3009 C3015 1.429 . S
C3010 C3002 1.574 1_556 S
C3010 H3005 0.949 . S
C3010 C3016 1.368 . S
C3011 C2995 1.349 . S
C3011 H3003 0.950 . S
C3011 C3009 1.327 . S
C3012 C3000 1.349 . S
C3012 H3006 0.950 . S
C3012 C3013 1.327 . S
C3013 H3007 0.950 . S
C3013 C3012 1.327 . S
C3013 C3017 1.429 . S
C3014 C2997 1.574 1_554 S
C3014 H3008 0.949 . S
C3014 C3018 1.368 . S
C3015 C2996 1.429 . S
C3015 C3009 1.429 . S
C3015 C3016 1.523 . S
C3016 C2997 1.368 . S
C3016 C3010 1.368 . S
C3016 C3015 1.523 . S
C3017 C3001 1.429 . S
C3017 C3013 1.429 . S
C3017 C3018 1.523 . S
C3018 C3002 1.368 . S
C3018 C3014 1.368 . S
C3018 C3017 1.523 . S
H3019 C2994 0.950 . S
H3020 C2996 0.950 . S
H3021 C2997 0.949 . S
H3022 C2999 0.950 . S
H3023 C3001 0.950 . S
C3024 C3025 1.349 . S
C3024 C3026 1.327 . S
C3024 H3049 0.950 . S
C3025 C3024 1.349 . S
C3025 C3041 1.349 . S
C3026 C3024 1.327 . S
C3026 C3045 1.429 . S
C3026 H3050 0.950 . S
C3027 C3044 1.574 . S
C3027 C3046 1.368 . S
C3027 H3051 0.949 . S
H3028 C3032 0.949 . S
C3029 C3030 1.349 . S
C3029 C3031 1.327 . S
C3029 H3052 0.950 . S
C3030 C3029 1.349 . S
C3030 C3042 1.349 . S
C3031 C3029 1.327 . S
C3031 C3047 1.429 . S
C3031 H3053 0.950 . S
C3032 H3028 0.949 . S
C3032 C3040 1.574 1_655 S
C3032 C3048 1.368 . S
H3033 C3041 0.950 . S
H3034 C3039 0.950 . S
H3035 C3040 0.949 . S
H3036 C3042 0.950 . S
H3037 C3043 0.950 . S
H3038 C3044 0.949 . S
C3039 H3034 0.950 . S
C3039 C3041 1.327 . S
C3039 C3045 1.429 . S
C3040 C3032 1.574 1_455 S
C3040 H3035 0.949 . S
C3040 C3046 1.368 . S
C3041 C3025 1.349 . S
C3041 H3033 0.950 . S
C3041 C3039 1.327 . S
C3042 C3030 1.349 . S
C3042 H3036 0.950 . S
C3042 C3043 1.327 . S
C3043 H3037 0.950 . S
C3043 C3042 1.327 . S
C3043 C3047 1.429 . S
C3044 C3027 1.574 . S
C3044 H3038 0.949 . S
C3044 C3048 1.368 1_455 S
C3045 C3026 1.429 . S
C3045 C3039 1.429 . S
C3045 C3046 1.523 . S
C3046 C3027 1.368 . S
C3046 C3040 1.368 . S
C3046 C3045 1.523 . S
C3047 C3031 1.429 . S
C3047 C3043 1.429 . S
C3047 C3048 1.523 . S
C3048 C3032 1.368 . S
C3048 C3044 1.368 1_655 S
C3048 C3047 1.523 . S
H3049 C3024 0.950 . S
H3050 C3026 0.950 . S
H3051 C3027 0.949 . S
H3052 C3029 0.950 . S
H3053 C3031 0.950 . S
C3054 C3055 1.349 . S
C3054 C3056 1.327 . S
C3054 H3079 0.950 . S
C3055 C3054 1.349 . S
C3055 C3071 1.349 . S
C3056 C3054 1.327 . S
C3056 C3075 1.429 . S
C3056 H3080 0.950 . S
C3057 C3074 1.574 1_455 S
C3057 C3076 1.368 . S
C3057 H3081 0.949 . S
H3058 C3062 0.949 . S
C3059 C3060 1.349 . S
C3059 C3061 1.327 . S
C3059 H3082 0.950 . S
C3060 C3059 1.349 . S
C3060 C3072 1.349 . S
C3061 C3059 1.327 . S
C3061 C3077 1.429 . S
C3061 H3083 0.950 . S
C3062 H3058 0.949 . S
C3062 C3070 1.631 . S
C3062 C3078 1.368 . S
H3063 C3071 0.950 . S
H3064 C3069 0.950 . S
H3065 C3070 0.919 1_455 S
H3066 C3072 0.950 . S
H3067 C3073 0.950 . S
H3068 C3074 0.949 . S
C3069 H3064 0.950 . S
C3069 C3071 1.327 . S
C3069 C3075 1.429 . S
C3070 C3062 1.631 . S
C3070 H3065 0.919 1_655 S
C3070 C3076 1.347 1_655 S
C3071 C3055 1.349 . S
C3071 H3063 0.950 . S
C3071 C3069 1.327 . S
C3072 C3060 1.349 . S
C3072 H3066 0.950 . S
C3072 C3073 1.327 . S
C3073 H3067 0.950 . S
C3073 C3072 1.327 . S
C3073 C3077 1.429 . S
C3074 C3057 1.574 1_655 S
C3074 H3068 0.949 . S
C3074 C3078 1.368 . S
C3075 C3056 1.429 . S
C3075 C3069 1.429 . S
C3075 C3076 1.523 . S
C3076 C3057 1.368 . S
C3076 C3070 1.347 1_455 S
C3076 C3075 1.523 . S
C3077 C3061 1.429 . S
C3077 C3073 1.429 . S
C3077 C3078 1.523 . S
C3078 C3062 1.368 . S
C3078 C3074 1.368 . S
C3078 C3077 1.523 . S
H3079 C3054 0.950 . S
H3080 C3056 0.950 . S
H3081 C3057 0.949 . S
H3082 C3059 0.950 . S
H3083 C3061 0.950 . S
C3084 C3085 1.349 . S
C3084 C3086 1.327 . S
C3084 H3109 0.950 . S
C3085 C3084 1.349 . S
C3085 C3101 1.349 . S
C3086 C3084 1.327 . S
C3086 C3105 1.429 . S
C3086 H3110 0.950 . S
C3087 C3104 1.574 . S
C3087 C3106 1.368 1_545 S
C3087 H3111 0.977 . S
H3088 C3092 0.949 . S
C3089 C3090 1.349 . S
C3089 C3091 1.327 . S
C3089 H3112 0.950 . S
C3090 C3089 1.349 . S
C3090 C3102 1.349 . S
C3091 C3089 1.327 . S
C3091 C3107 1.429 . S
C3091 H3113 0.950 . S
C3092 H3088 0.949 . S
C3092 C3100 1.574 1_545 S
C3092 C3108 1.368 . S
H3093 C3101 0.950 . S
H3094 C3099 0.950 . S
H3095 C3100 0.949 . S
H3096 C3102 0.950 . S
H3097 C3103 0.950 . S
H3098 C3104 0.949 . S
C3099 H3094 0.950 . S
C3099 C3101 1.327 . S
C3099 C3105 1.429 . S
C3100 C3092 1.574 1_565 S
C3100 H3095 0.949 . S
C3100 C3106 1.368 . S
C3101 C3085 1.349 . S
C3101 H3093 0.950 . S
C3101 C3099 1.327 . S
C3102 C3090 1.349 . S
C3102 H3096 0.950 . S
C3102 C3103 1.327 . S
C3103 H3097 0.950 . S
C3103 C3102 1.327 . S
C3103 C3107 1.429 . S
C3104 C3087 1.574 . S
C3104 H3098 0.949 . S
C3104 C3108 1.368 . S
C3105 C3086 1.429 . S
C3105 C3099 1.429 . S
C3105 C3106 1.523 . S
C3106 C3087 1.368 1_565 S
C3106 C3100 1.368 . S
C3106 C3105 1.523 . S
C3107 C3091 1.429 . S
C3107 C3103 1.429 . S
C3107 C3108 1.523 . S
C3108 C3092 1.368 . S
C3108 C3104 1.368 . S
C3108 C3107 1.523 . S
H3109 C3084 0.950 . S
H3110 C3086 0.950 . S
H3111 C3087 0.977 . S
H3112 C3089 0.950 . S
H3113 C3091 0.950 . S
C3114 C3115 1.349 . S
C3114 C3116 1.327 . S
C3114 H3139 0.950 . S
C3115 C3114 1.349 . S
C3115 C3131 1.349 . S
C3116 C3114 1.327 . S
C3116 C3135 1.429 . S
C3116 H3140 0.950 . S
C3117 C3134 1.574 1_455 S
C3117 C3136 1.368 . S
C3117 H3141 0.949 . S
H3118 C3122 0.949 . S
C3119 C3120 1.349 . S
C3119 C3121 1.327 . S
C3119 H3142 0.950 . S
C3120 C3119 1.349 . S
C3120 C3132 1.349 . S
C3121 C3119 1.327 . S
C3121 C3137 1.429 . S
C3121 H3143 0.950 . S
C3122 H3118 0.949 . S
C3122 C3130 1.574 1_655 S
C3122 C3138 1.368 . S
H3123 C3131 0.950 . S
H3124 C3129 0.950 . S
H3125 C3130 0.949 . S
H3126 C3132 0.950 . S
H3127 C3133 0.950 . S
H3128 C3134 0.949 . S
C3129 H3124 0.950 . S
C3129 C3131 1.327 . S
C3129 C3135 1.429 . S
C3130 C3122 1.574 1_455 S
C3130 H3125 0.949 . S
C3130 C3136 1.368 . S
C3131 C3115 1.349 . S
C3131 H3123 0.950 . S
C3131 C3129 1.327 . S
C3132 C3120 1.349 . S
C3132 H3126 0.950 . S
C3132 C3133 1.327 . S
C3133 H3127 0.950 . S
C3133 C3132 1.327 . S
C3133 C3137 1.429 . S
C3134 C3117 1.574 1_655 S
C3134 H3128 0.949 . S
C3134 C3138 1.368 . S
C3135 C3116 1.429 . S
C3135 C3129 1.429 . S
C3135 C3136 1.523 . S
C3136 C3117 1.368 . S
C3136 C3130 1.368 . S
C3136 C3135 1.523 . S
C3137 C3121 1.429 . S
C3137 C3133 1.429 . S
C3137 C3138 1.523 . S
C3138 C3122 1.368 . S
C3138 C3134 1.368 . S
C3138 C3137 1.523 . S
H3139 C3114 0.950 . S
H3140 C3116 0.950 . S
H3141 C3117 0.949 . S
H3142 C3119 0.950 . S
H3143 C3121 0.950 . S
C3144 C3145 1.349 . S
C3144 C3146 1.327 . S
C3144 H3169 0.950 . S
C3145 C3144 1.349 . S
C3145 C3161 1.349 . S
C3146 C3144 1.327 . S
C3146 C3165 1.429 . S
C3146 H3170 0.950 . S
C3147 C3164 1.574 1_545 S
C3147 C3166 1.368 . S
C3147 H3171 0.949 . S
H3148 C3152 0.918 1_565 S
C3149 C3150 1.349 . S
C3149 C3151 1.327 . S
C3149 H3172 0.950 . S
C3150 C3149 1.349 . S
C3150 C3162 1.349 . S
C3151 C3149 1.327 . S
C3151 C3167 1.429 . S
C3151 H3173 0.950 . S
C3152 H3148 0.918 1_545 S
C3152 C3160 1.574 . S
C3152 C3168 1.368 1_545 S
H3153 C3161 0.950 . S
H3154 C3159 0.950 . S
H3155 C3160 0.949 . S
H3156 C3162 0.950 . S
H3157 C3163 0.950 . S
H3158 C3164 0.949 . S
C3159 H3154 0.950 . S
C3159 C3161 1.327 . S
C3159 C3165 1.429 . S
C3160 C3152 1.574 . S
C3160 H3155 0.949 . S
C3160 C3166 1.368 . S
C3161 C3145 1.349 . S
C3161 H3153 0.950 . S
C3161 C3159 1.327 . S
C3162 C3150 1.349 . S
C3162 H3156 0.950 . S
C3162 C3163 1.327 . S
C3163 H3157 0.950 . S
C3163 C3162 1.327 . S
C3163 C3167 1.429 . S
C3164 C3147 1.574 1_565 S
C3164 H3158 0.949 . S
C3164 C3168 1.368 . S
C3165 C3146 1.429 . S
C3165 C3159 1.429 . S
C3165 C3166 1.523 . S
C3166 C3147 1.368 . S
C3166 C3160 1.368 . S
C3166 C3165 1.523 . S
C3167 C3151 1.429 . S
C3167 C3163 1.429 . S
C3167 C3168 1.523 . S
C3168 C3152 1.368 1_565 S
C3168 C3164 1.368 . S
C3168 C3167 1.523 . S
H3169 C3144 0.950 . S
H3170 C3146 0.950 . S
H3171 C3147 0.949 . S
H3172 C3149 0.950 . S
H3173 C3151 0.950 . S
C3174 C3175 1.349 . S
C3174 C3176 1.327 . S
C3174 H3199 0.950 . S
C3175 C3174 1.349 . S
C3175 C3191 1.349 . S
C3176 C3174 1.327 . S
C3176 C3195 1.429 . S
C3176 H3200 0.950 . S
C3177 C3194 1.554 1_455 S
C3177 C3196 1.368 . S
C3177 H3201 0.949 . S
H3178 C3182 0.949 . S
C3179 C3180 1.349 . S
C3179 C3181 1.327 . S
C3179 H3202 0.950 . S
C3180 C3179 1.349 . S
C3180 C3192 1.349 . S
C3181 C3179 1.327 . S
C3181 C3197 1.429 . S
C3181 H3203 0.950 . S
C3182 H3178 0.949 . S
C3182 C3190 1.574 1_655 S
C3182 C3198 1.368 . S
H3183 C3191 0.950 . S
H3184 C3189 0.950 . S
H3185 C3190 0.949 . S
H3186 C3192 0.950 . S
H3187 C3193 0.950 . S
H3188 C3194 0.960 . S
C3189 H3184 0.950 . S
C3189 C3191 1.327 . S
C3189 C3195 1.429 . S
C3190 C3182 1.574 1_455 S
C3190 H3185 0.949 . S
C3190 C3196 1.368 . S
C3191 C3175 1.349 . S
C3191 H3183 0.950 . S
C3191 C3189 1.327 . S
C3192 C3180 1.349 . S
C3192 H3186 0.950 . S
C3192 C3193 1.327 . S
C3193 H3187 0.950 . S
C3193 C3192 1.327 . S
C3193 C3197 1.429 . S
C3194 C3177 1.554 1_655 S
C3194 H3188 0.960 . S
C3194 C3198 1.376 . S
C3195 C3176 1.429 . S
C3195 C3189 1.429 . S
C3195 C3196 1.523 . S
C3196 C3177 1.368 . S
C3196 C3190 1.368 . S
C3196 C3195 1.523 . S
C3197 C3181 1.429 . S
C3197 C3193 1.429 . S
C3197 C3198 1.523 . S
C3198 C3182 1.368 . S
C3198 C3194 1.376 . S
C3198 C3197 1.523 . S
H3199 C3174 0.950 . S
H3200 C3176 0.950 . S
H3201 C3177 0.949 . S
H3202 C3179 0.950 . S
H3203 C3181 0.950 . S
C3204 C3205 1.349 . S
C3204 C3206 1.327 . S
C3204 H3229 0.950 . S
C3205 C3204 1.349 . S
C3205 C3221 1.349 . S
C3206 C3204 1.327 . S
C3206 C3225 1.429 . S
C3206 H3230 0.950 . S
C3207 C3224 1.504 1_545 S
C3207 C3226 1.397 . S
C3207 H3231 0.989 . S
H3208 C3212 0.949 . S
C3209 C3210 1.349 . S
C3209 C3211 1.327 . S
C3209 H3232 0.950 . S
C3210 C3209 1.349 . S
C3210 C3222 1.349 . S
C3211 C3209 1.327 . S
C3211 C3227 1.429 . S
C3211 H3233 0.950 . S
C3212 H3208 0.949 . S
C3212 C3220 1.574 1_565 S
C3212 C3228 1.368 . S
H3213 C3221 0.950 . S
H3214 C3219 0.950 . S
H3215 C3220 0.949 . S
H3216 C3222 0.950 . S
H3217 C3223 0.950 . S
H3218 C3224 0.949 . S
C3219 H3214 0.950 . S
C3219 C3221 1.327 . S
C3219 C3225 1.429 . S
C3220 C3212 1.574 1_545 S
C3220 H3215 0.949 . S
C3220 C3226 1.368 . S
C3221 C3205 1.349 . S
C3221 H3213 0.950 . S
C3221 C3219 1.327 . S
C3222 C3210 1.349 . S
C3222 H3216 0.950 . S
C3222 C3223 1.327 . S
C3223 H3217 0.950 . S
C3223 C3222 1.327 . S
C3223 C3227 1.429 . S
C3224 C3207 1.504 1_565 S
C3224 H3218 0.949 . S
C3224 C3228 1.368 . S
C3225 C3206 1.429 . S
C3225 C3219 1.429 . S
C3225 C3226 1.523 . S
C3226 C3207 1.397 . S
C3226 C3220 1.368 . S
C3226 C3225 1.523 . S
C3227 C3211 1.429 . S
C3227 C3223 1.429 . S
C3227 C3228 1.523 . S
C3228 C3212 1.368 . S
C3228 C3224 1.368 . S
C3228 C3227 1.523 . S
H3229 C3204 0.950 . S
H3230 C3206 0.950 . S
H3231 C3207 0.989 . S
H3232 C3209 0.950 . S
H3233 C3211 0.950 . S
C3234 C3235 1.349 . S
C3234 C3236 1.327 . S
C3234 H3259 0.950 . S
C3235 C3234 1.349 . S
C3235 C3251 1.349 . S
C3236 C3234 1.327 . S
C3236 C3255 1.429 . S
C3236 H3260 0.950 . S
C3237 C3254 1.574 1_545 S
C3237 C3256 1.368 . S
C3237 H3261 0.949 . S
H3238 C3242 0.949 . S
C3239 C3240 1.349 . S
C3239 C3241 1.327 . S
C3239 H3262 0.950 . S
C3240 C3239 1.349 . S
C3240 C3252 1.349 . S
C3241 C3239 1.327 . S
C3241 C3257 1.429 . S
C3241 H3263 0.950 . S
C3242 H3238 0.949 . S
C3242 C3250 1.574 1_565 S
C3242 C3258 1.368 . S
H3243 C3251 0.950 . S
H3244 C3249 0.950 . S
H3245 C3250 0.949 . S
H3246 C3252 0.950 . S
H3247 C3253 0.950 . S
H3248 C3254 0.949 . S
C3249 H3244 0.950 . S
C3249 C3251 1.327 . S
C3249 C3255 1.429 . S
C3250 C3242 1.574 1_545 S
C3250 H3245 0.949 . S
C3250 C3256 1.368 . S
C3251 C3235 1.349 . S
C3251 H3243 0.950 . S
C3251 C3249 1.327 . S
C3252 C3240 1.349 . S
C3252 H3246 0.950 . S
C3252 C3253 1.327 . S
C3253 H3247 0.950 . S
C3253 C3252 1.327 . S
C3253 C3257 1.429 . S
C3254 C3237 1.574 1_565 S
C3254 H3248 0.949 . S
C3254 C3258 1.368 . S
C3255 C3236 1.429 . S
C3255 C3249 1.429 . S
C3255 C3256 1.523 . S
C3256 C3237 1.368 . S
C3256 C3250 1.368 . S
C3256 C3255 1.523 . S
C3257 C3241 1.429 . S
C3257 C3253 1.429 . S
C3257 C3258 1.523 . S
C3258 C3242 1.368 . S
C3258 C3254 1.368 . S
C3258 C3257 1.523 . S
H3259 C3234 0.950 . S
H3260 C3236 0.950 . S
H3261 C3237 0.949 . S
H3262 C3239 0.950 . S
H3263 C3241 0.950 . S
C3264 C3265 1.349 . S
C3264 C3266 1.327 . S
C3264 H3289 0.950 . S
C3265 C3264 1.349 . S
C3265 C3281 1.349 . S
C3266 C3264 1.327 . S
C3266 C3285 1.429 . S
C3266 H3290 0.950 . S
C3267 C3284 1.574 . S
C3267 C3286 1.368 . S
C3267 H3291 0.949 . S
H3268 C3272 0.949 . S
C3269 C3270 1.349 . S
C3269 C3271 1.327 . S
C3269 H3292 0.950 . S
C3270 C3269 1.349 . S
C3270 C3282 1.349 . S
C3271 C3269 1.327 . S
C3271 C3287 1.429 . S
C3271 H3293 0.950 . S
C3272 H3268 0.949 . S
C3272 C3280 1.574 . S
C3272 C3288 1.368 . S
H3273 C3281 0.950 . S
H3274 C3279 0.950 . S
H3275 C3280 0.949 . S
H3276 C3282 0.950 . S
H3277 C3283 0.950 . S
H3278 C3284 0.949 . S
C3279 H3274 0.950 . S
C3279 C3281 1.327 . S
C3279 C3285 1.429 . S
C3280 C3272 1.574 . S
C3280 H3275 0.949 . S
C3280 C3286 1.368 . S
C3281 C3265 1.349 . S
C3281 H3273 0.950 . S
C3281 C3279 1.327 . S
C3282 C3270 1.349 . S
C3282 H3276 0.950 . S
C3282 C3283 1.327 . S
C3283 H3277 0.950 . S
C3283 C3282 1.327 . S
C3283 C3287 1.429 . S
C3284 C3267 1.574 . S
C3284 H3278 0.949 . S
C3284 C3288 1.368 . S
C3285 C3266 1.429 . S
C3285 C3279 1.429 . S
C3285 C3286 1.523 . S
C3286 C3267 1.368 . S
C3286 C3280 1.368 . S
C3286 C3285 1.523 . S
C3287 C3271 1.429 . S
C3287 C3283 1.429 . S
C3287 C3288 1.523 . S
C3288 C3272 1.368 . S
C3288 C3284 1.368 . S
C3288 C3287 1.523 . S
H3289 C3264 0.950 . S
H3290 C3266 0.950 . S
H3291 C3267 0.949 . S
H3292 C3269 0.950 . S
H3293 C3271 0.950 . S
C3294 C3295 1.349 . S
C3294 C3296 1.327 . S
C3294 H3319 0.950 . S
C3295 C3294 1.349 . S
C3295 C3311 1.349 . S
C3296 C3294 1.327 . S
C3296 C3315 1.429 . S
C3296 H3320 0.950 . S
C3297 C3314 1.574 . S
C3297 C3316 1.368 . S
C3297 H3321 0.949 . S
H3298 C3302 0.949 . S
C3299 C3300 1.349 . S
C3299 C3301 1.327 . S
C3299 H3322 0.950 . S
C3300 C3299 1.349 . S
C3300 C3312 1.349 . S
C3301 C3299 1.327 . S
C3301 C3317 1.429 . S
C3301 H3323 0.950 . S
C3302 H3298 0.949 . S
C3302 C3310 1.574 . S
C3302 C3318 1.368 . S
H3303 C3311 0.950 . S
H3304 C3309 0.950 . S
H3305 C3310 0.949 . S
H3306 C3312 0.950 . S
H3307 C3313 0.950 . S
H3308 C3314 0.949 . S
C3309 H3304 0.950 . S
C3309 C3311 1.327 . S
C3309 C3315 1.429 . S
C3310 C3302 1.574 . S
C3310 H3305 0.949 . S
C3310 C3316 1.368 . S
C3311 C3295 1.349 . S
C3311 H3303 0.950 . S
C3311 C3309 1.327 . S
C3312 C3300 1.349 . S
C3312 H3306 0.950 . S
C3312 C3313 1.327 . S
C3313 H3307 0.950 . S
C3313 C3312 1.327 . S
C3313 C3317 1.429 . S
C3314 C3297 1.574 . S
C3314 H3308 0.949 . S
C3314 C3318 1.368 . S
C3315 C3296 1.429 . S
C3315 C3309 1.429 . S
C3315 C3316 1.523 . S
C3316 C3297 1.368 . S
C3316 C3310 1.368 . S
C3316 C3315 1.523 . S
C3317 C3301 1.429 . S
C3317 C3313 1.429 . S
C3317 C3318 1.523 . S
C3318 C3302 1.368 . S
C3318 C3314 1.368 . S
C3318 C3317 1.523 . S
H3319 C3294 0.950 . S
H3320 C3296 0.950 . S
H3321 C3297 0.949 . S
H3322 C3299 0.950 . S
H3323 C3301 0.950 . S
C3324 C3325 1.349 . S
C3324 C3326 1.327 . S
C3324 H3349 0.950 . S
C3325 C3324 1.349 . S
C3325 C3341 1.349 . S
C3326 C3324 1.327 . S
C3326 C3345 1.429 . S
C3326 H3350 0.950 . S
C3327 C3344 1.574 . S
C3327 C3346 1.368 . S
C3327 H3351 0.949 . S
H3328 C3332 0.949 . S
C3329 C3330 1.349 . S
C3329 C3331 1.327 . S
C3329 H3352 0.950 . S
C3330 C3329 1.349 . S
C3330 C3342 1.349 . S
C3331 C3329 1.327 . S
C3331 C3347 1.429 . S
C3331 H3353 0.950 . S
C3332 H3328 0.949 . S
C3332 C3340 1.574 . S
C3332 C3348 1.368 . S
H3333 C3341 0.950 . S
H3334 C3339 0.950 . S
H3335 C3340 0.949 . S
H3336 C3342 0.950 . S
H3337 C3343 0.950 . S
H3338 C3344 0.949 . S
C3339 H3334 0.950 . S
C3339 C3341 1.327 . S
C3339 C3345 1.429 . S
C3340 C3332 1.574 . S
C3340 H3335 0.949 . S
C3340 C3346 1.368 . S
C3341 C3325 1.349 . S
C3341 H3333 0.950 . S
C3341 C3339 1.327 . S
C3342 C3330 1.349 . S
C3342 H3336 0.950 . S
C3342 C3343 1.327 . S
C3343 H3337 0.950 . S
C3343 C3342 1.327 . S
C3343 C3347 1.429 . S
C3344 C3327 1.574 . S
C3344 H3338 0.949 . S
C3344 C3348 1.368 . S
C3345 C3326 1.429 . S
C3345 C3339 1.429 . S
C3345 C3346 1.523 . S
C3346 C3327 1.368 . S
C3346 C3340 1.368 . S
C3346 C3345 1.523 . S
C3347 C3331 1.429 . S
C3347 C3343 1.429 . S
C3347 C3348 1.523 . S
C3348 C3332 1.368 . S
C3348 C3344 1.368 . S
C3348 C3347 1.523 . S
H3349 C3324 0.950 . S
H3350 C3326 0.950 . S
H3351 C3327 0.949 . S
H3352 C3329 0.950 . S
H3353 C3331 0.950 . S
C3354 C3355 1.349 . S
C3354 C3356 1.327 . S
C3354 H3379 0.950 . S
C3355 C3354 1.349 . S
C3355 C3371 1.349 . S
C3356 C3354 1.327 . S
C3356 C3375 1.429 . S
C3356 H3380 0.950 . S
C3357 C3374 1.574 . S
C3357 C3376 1.368 . S
C3357 H3381 0.949 . S
H3358 C3362 0.949 . S
C3359 C3360 1.349 . S
C3359 C3361 1.327 . S
C3359 H3382 0.950 . S
C3360 C3359 1.349 . S
C3360 C3372 1.349 . S
C3361 C3359 1.327 . S
C3361 C3377 1.429 . S
C3361 H3383 0.950 . S
C3362 H3358 0.949 . S
C3362 C3370 1.574 . S
C3362 C3378 1.368 . S
H3363 C3371 0.950 . S
H3364 C3369 0.950 . S
H3365 C3370 0.949 . S
H3366 C3372 0.950 . S
H3367 C3373 0.950 . S
H3368 C3374 0.949 . S
C3369 H3364 0.950 . S
C3369 C3371 1.327 . S
C3369 C3375 1.429 . S
C3370 C3362 1.574 . S
C3370 H3365 0.949 . S
C3370 C3376 1.368 . S
C3371 C3355 1.349 . S
C3371 H3363 0.950 . S
C3371 C3369 1.327 . S
C3372 C3360 1.349 . S
C3372 H3366 0.950 . S
C3372 C3373 1.327 . S
C3373 H3367 0.950 . S
C3373 C3372 1.327 . S
C3373 C3377 1.429 . S
C3374 C3357 1.574 . S
C3374 H3368 0.949 . S
C3374 C3378 1.368 . S
C3375 C3356 1.429 . S
C3375 C3369 1.429 . S
C3375 C3376 1.523 . S
C3376 C3357 1.368 . S
C3376 C3370 1.368 . S
C3376 C3375 1.523 . S
C3377 C3361 1.429 . S
C3377 C3373 1.429 . S
C3377 C3378 1.523 . S
C3378 C3362 1.368 . S
C3378 C3374 1.368 . S
C3378 C3377 1.523 . S
H3379 C3354 0.950 . S
H3380 C3356 0.950 . S
H3381 C3357 0.949 . S
H3382 C3359 0.950 . S
H3383 C3361 0.950 . S
C3384 C3385 1.349 . S
C3384 C3386 1.327 . S
C3384 H3409 0.950 . S
C3385 C3384 1.349 . S
C3385 C3401 1.349 . S
C3386 C3384 1.327 . S
C3386 C3405 1.429 . S
C3386 H3410 0.950 . S
C3387 C3404 1.574 . S
C3387 C3406 1.368 . S
C3387 H3411 0.949 . S
H3388 C3392 0.949 . S
C3389 C3390 1.349 . S
C3389 C3391 1.327 . S
C3389 H3412 0.950 . S
C3390 C3389 1.349 . S
C3390 C3402 1.349 . S
C3391 C3389 1.327 . S
C3391 C3407 1.429 . S
C3391 H3413 0.950 . S
C3392 H3388 0.949 . S
C3392 C3400 1.574 . S
C3392 C3408 1.368 . S
H3393 C3401 0.950 . S
H3394 C3399 0.950 . S
H3395 C3400 0.949 . S
H3396 C3402 0.950 . S
H3397 C3403 0.950 . S
H3398 C3404 0.949 . S
C3399 H3394 0.950 . S
C3399 C3401 1.327 . S
C3399 C3405 1.429 . S
C3400 C3392 1.574 . S
C3400 H3395 0.949 . S
C3400 C3406 1.368 . S
C3401 C3385 1.349 . S
C3401 H3393 0.950 . S
C3401 C3399 1.327 . S
C3402 C3390 1.349 . S
C3402 H3396 0.950 . S
C3402 C3403 1.327 . S
C3403 H3397 0.950 . S
C3403 C3402 1.327 . S
C3403 C3407 1.429 . S
C3404 C3387 1.574 . S
C3404 H3398 0.949 . S
C3404 C3408 1.368 . S
C3405 C3386 1.429 . S
C3405 C3399 1.429 . S
C3405 C3406 1.523 . S
C3406 C3387 1.368 . S
C3406 C3400 1.368 . S
C3406 C3405 1.523 . S
C3407 C3391 1.429 . S
C3407 C3403 1.429 . S
C3407 C3408 1.523 . S
C3408 C3392 1.368 . S
C3408 C3404 1.368 . S
C3408 C3407 1.523 . S
H3409 C3384 0.950 . S
H3410 C3386 0.950 . S
H3411 C3387 0.949 . S
H3412 C3389 0.950 . S
H3413 C3391 0.950 . S
C3414 C3415 1.349 . S
C3414 C3416 1.327 . S
C3414 H3439 0.950 . S
C3415 C3414 1.349 . S
C3415 C3431 1.349 . S
C3416 C3414 1.327 . S
C3416 C3435 1.429 . S
C3416 H3440 0.950 . S
C3417 C3434 1.574 . S
C3417 C3436 1.368 . S
C3417 H3441 0.949 . S
H3418 C3422 0.949 . S
C3419 C3420 1.349 . S
C3419 C3421 1.327 . S
C3419 H3442 0.950 . S
C3420 C3419 1.349 . S
C3420 C3432 1.349 . S
C3421 C3419 1.327 . S
C3421 C3437 1.429 . S
C3421 H3443 0.950 . S
C3422 H3418 0.949 . S
C3422 C3430 1.574 . S
C3422 C3438 1.368 . S
H3423 C3431 0.950 . S
H3424 C3429 0.950 . S
H3425 C3430 0.949 . S
H3426 C3432 0.950 . S
H3427 C3433 0.950 . S
H3428 C3434 0.949 . S
C3429 H3424 0.950 . S
C3429 C3431 1.327 . S
C3429 C3435 1.429 . S
C3430 C3422 1.574 . S
C3430 H3425 0.949 . S
C3430 C3436 1.368 . S
C3431 C3415 1.349 . S
C3431 H3423 0.950 . S
C3431 C3429 1.327 . S
C3432 C3420 1.349 . S
C3432 H3426 0.950 . S
C3432 C3433 1.327 . S
C3433 H3427 0.950 . S
C3433 C3432 1.327 . S
C3433 C3437 1.429 . S
C3434 C3417 1.574 . S
C3434 H3428 0.949 . S
C3434 C3438 1.368 . S
C3435 C3416 1.429 . S
C3435 C3429 1.429 . S
C3435 C3436 1.523 . S
C3436 C3417 1.368 . S
C3436 C3430 1.368 . S
C3436 C3435 1.523 . S
C3437 C3421 1.429 . S
C3437 C3433 1.429 . S
C3437 C3438 1.523 . S
C3438 C3422 1.368 . S
C3438 C3434 1.368 . S
C3438 C3437 1.523 . S
H3439 C3414 0.950 . S
H3440 C3416 0.950 . S
H3441 C3417 0.949 . S
H3442 C3419 0.950 . S
H3443 C3421 0.950 . S
C3444 C3445 1.349 . S
C3444 C3446 1.327 . S
C3444 H3469 0.950 . S
C3445 C3444 1.349 . S
C3445 C3461 1.349 . S
C3446 C3444 1.327 . S
C3446 C3465 1.429 . S
C3446 H3470 0.950 . S
C3447 C3464 1.574 . S
C3447 C3466 1.368 . S
C3447 H3471 0.949 . S
H3448 C3452 0.949 . S
C3449 C3450 1.349 . S
C3449 C3451 1.327 . S
C3449 H3472 0.950 . S
C3450 C3449 1.349 . S
C3450 C3462 1.349 . S
C3451 C3449 1.327 . S
C3451 C3467 1.429 . S
C3451 H3473 0.950 . S
C3452 H3448 0.949 . S
C3452 C3460 1.574 . S
C3452 C3468 1.368 . S
H3453 C3461 0.950 . S
H3454 C3459 0.950 . S
H3455 C3460 0.949 . S
H3456 C3462 0.950 . S
H3457 C3463 0.950 . S
H3458 C3464 0.949 . S
C3459 H3454 0.950 . S
C3459 C3461 1.327 . S
C3459 C3465 1.429 . S
C3460 C3452 1.574 . S
C3460 H3455 0.949 . S
C3460 C3466 1.368 . S
C3461 C3445 1.349 . S
C3461 H3453 0.950 . S
C3461 C3459 1.327 . S
C3462 C3450 1.349 . S
C3462 H3456 0.950 . S
C3462 C3463 1.327 . S
C3463 H3457 0.950 . S
C3463 C3462 1.327 . S
C3463 C3467 1.429 . S
C3464 C3447 1.574 . S
C3464 H3458 0.949 . S
C3464 C3468 1.368 . S
C3465 C3446 1.429 . S
C3465 C3459 1.429 . S
C3465 C3466 1.523 . S
C3466 C3447 1.368 . S
C3466 C3460 1.368 . S
C3466 C3465 1.523 . S
C3467 C3451 1.429 . S
C3467 C3463 1.429 . S
C3467 C3468 1.523 . S
C3468 C3452 1.368 . S
C3468 C3464 1.368 . S
C3468 C3467 1.523 . S
H3469 C3444 0.950 . S
H3470 C3446 0.950 . S
H3471 C3447 0.949 . S
H3472 C3449 0.950 . S
H3473 C3451 0.950 . S
C3474 C3475 1.349 . S
C3474 C3476 1.327 . S
C3474 H3499 0.950 . S
C3475 C3474 1.349 . S
C3475 C3491 1.349 . S
C3476 C3474 1.327 . S
C3476 C3495 1.429 . S
C3476 H3500 0.950 . S
C3477 C3494 1.574 . S
C3477 C3496 1.368 . S
C3477 H3501 0.949 . S
H3478 C3482 0.949 . S
C3479 C3480 1.349 . S
C3479 C3481 1.327 . S
C3479 H3502 0.950 . S
C3480 C3479 1.349 . S
C3480 C3492 1.349 . S
C3481 C3479 1.327 . S
C3481 C3497 1.429 . S
C3481 H3503 0.950 . S
C3482 H3478 0.949 . S
C3482 C3490 1.574 . S
C3482 C3498 1.368 . S
H3483 C3491 0.950 . S
H3484 C3489 0.950 . S
H3485 C3490 0.949 . S
H3486 C3492 0.950 . S
H3487 C3493 0.950 . S
H3488 C3494 0.949 . S
C3489 H3484 0.950 . S
C3489 C3491 1.327 . S
C3489 C3495 1.429 . S
C3490 C3482 1.574 . S
C3490 H3485 0.949 . S
C3490 C3496 1.368 . S
C3491 C3475 1.349 . S
C3491 H3483 0.950 . S
C3491 C3489 1.327 . S
C3492 C3480 1.349 . S
C3492 H3486 0.950 . S
C3492 C3493 1.327 . S
C3493 H3487 0.950 . S
C3493 C3492 1.327 . S
C3493 C3497 1.429 . S
C3494 C3477 1.574 . S
C3494 H3488 0.949 . S
C3494 C3498 1.368 . S
C3495 C3476 1.429 . S
C3495 C3489 1.429 . S
C3495 C3496 1.523 . S
C3496 C3477 1.368 . S
C3496 C3490 1.368 . S
C3496 C3495 1.523 . S
C3497 C3481 1.429 . S
C3497 C3493 1.429 . S
C3497 C3498 1.523 . S
C3498 C3482 1.368 . S
C3498 C3494 1.368 . S
C3498 C3497 1.523 . S
H3499 C3474 0.950 . S
H3500 C3476 0.950 . S
H3501 C3477 0.949 . S
H3502 C3479 0.950 . S
H3503 C3481 0.950 . S
C3504 C3505 1.349 . S
C3504 C3506 1.327 . S
C3504 H3529 0.950 . S
C3505 C3504 1.349 . S
C3505 C3521 1.349 . S
C3506 C3504 1.327 . S
C3506 C3525 1.429 . S
C3506 H3530 0.950 . S
C3507 C3524 1.574 . S
C3507 C3526 1.368 . S
C3507 H3531 0.949 . S
H3508 C3512 0.949 . S
C3509 C3510 1.349 . S
C3509 C3511 1.327 . S
C3509 H3532 0.950 . S
C3510 C3509 1.349 . S
C3510 C3522 1.349 . S
C3511 C3509 1.327 . S
C3511 C3527 1.429 . S
C3511 H3533 0.950 . S
C3512 H3508 0.949 . S
C3512 C3520 1.574 . S
C3512 C3528 1.368 . S
H3513 C3521 0.950 . S
H3514 C3519 0.950 . S
H3515 C3520 0.949 . S
H3516 C3522 0.950 . S
H3517 C3523 0.950 . S
H3518 C3524 0.949 . S
C3519 H3514 0.950 . S
C3519 C3521 1.327 . S
C3519 C3525 1.429 . S
C3520 C3512 1.574 . S
C3520 H3515 0.949 . S
C3520 C3526 1.368 . S
C3521 C3505 1.349 . S
C3521 H3513 0.950 . S
C3521 C3519 1.327 . S
C3522 C3510 1.349 . S
C3522 H3516 0.950 . S
C3522 C3523 1.327 . S
C3523 H3517 0.950 . S
C3523 C3522 1.327 . S
C3523 C3527 1.429 . S
C3524 C3507 1.574 . S
C3524 H3518 0.949 . S
C3524 C3528 1.368 . S
C3525 C3506 1.429 . S
C3525 C3519 1.429 . S
C3525 C3526 1.523 . S
C3526 C3507 1.368 . S
C3526 C3520 1.368 . S
C3526 C3525 1.523 . S
C3527 C3511 1.429 . S
C3527 C3523 1.429 . S
C3527 C3528 1.523 . S
C3528 C3512 1.368 . S
C3528 C3524 1.368 . S
C3528 C3527 1.523 . S
H3529 C3504 0.950 . S
H3530 C3506 0.950 . S
H3531 C3507 0.949 . S
H3532 C3509 0.950 . S
H3533 C3511 0.950 . S
C3534 C3535 1.349 . S
C3534 C3536 1.327 . S
C3534 H3559 0.950 . S
C3535 C3534 1.349 . S
C3535 C3551 1.349 . S
C3536 C3534 1.327 . S
C3536 C3555 1.429 . S
C3536 H3560 0.950 . S
C3537 C3554 1.574 . S
C3537 C3556 1.368 . S
C3537 H3561 0.949 . S
H3538 C3542 0.949 . S
C3539 C3540 1.349 . S
C3539 C3541 1.327 . S
C3539 H3562 0.950 . S
C3540 C3539 1.349 . S
C3540 C3552 1.349 . S
C3541 C3539 1.327 . S
C3541 C3557 1.429 . S
C3541 H3563 0.950 . S
C3542 H3538 0.949 . S
C3542 C3550 1.574 . S
C3542 C3558 1.368 . S
H3543 C3551 0.950 . S
H3544 C3549 0.950 . S
H3545 C3550 0.949 . S
H3546 C3552 0.950 . S
H3547 C3553 0.950 . S
H3548 C3554 0.949 . S
C3549 H3544 0.950 . S
C3549 C3551 1.327 . S
C3549 C3555 1.429 . S
C3550 C3542 1.574 . S
C3550 H3545 0.949 . S
C3550 C3556 1.368 . S
C3551 C3535 1.349 . S
C3551 H3543 0.950 . S
C3551 C3549 1.327 . S
C3552 C3540 1.349 . S
C3552 H3546 0.950 . S
C3552 C3553 1.327 . S
C3553 H3547 0.950 . S
C3553 C3552 1.327 . S
C3553 C3557 1.429 . S
C3554 C3537 1.574 . S
C3554 H3548 0.949 . S
C3554 C3558 1.368 . S
C3555 C3536 1.429 . S
C3555 C3549 1.429 . S
C3555 C3556 1.523 . S
C3556 C3537 1.368 . S
C3556 C3550 1.368 . S
C3556 C3555 1.523 . S
C3557 C3541 1.429 . S
C3557 C3553 1.429 . S
C3557 C3558 1.523 . S
C3558 C3542 1.368 . S
C3558 C3554 1.368 . S
C3558 C3557 1.523 . S
H3559 C3534 0.950 . S
H3560 C3536 0.950 . S
H3561 C3537 0.949 . S
H3562 C3539 0.950 . S
H3563 C3541 0.950 . S
C3564 C3565 1.349 . S
C3564 C3566 1.327 . S
C3564 H3589 0.950 . S
C3565 C3564 1.349 . S
C3565 C3581 1.349 . S
C3566 C3564 1.327 . S
C3566 C3585 1.429 . S
C3566 H3590 0.950 . S
C3567 C3584 1.574 . S
C3567 C3586 1.368 . S
C3567 H3591 0.949 . S
H3568 C3572 0.949 . S
C3569 C3570 1.349 . S
C3569 C3571 1.327 . S
C3569 H3592 0.950 . S
C3570 C3569 1.349 . S
C3570 C3582 1.349 . S
C3571 C3569 1.327 . S
C3571 C3587 1.429 . S
C3571 H3593 0.950 . S
C3572 H3568 0.949 . S
C3572 C3580 1.574 . S
C3572 C3588 1.368 . S
H3573 C3581 0.950 . S
H3574 C3579 0.950 . S
H3575 C3580 0.949 . S
H3576 C3582 0.950 . S
H3577 C3583 0.950 . S
H3578 C3584 0.949 . S
C3579 H3574 0.950 . S
C3579 C3581 1.327 . S
C3579 C3585 1.429 . S
C3580 C3572 1.574 . S
C3580 H3575 0.949 . S
C3580 C3586 1.368 . S
C3581 C3565 1.349 . S
C3581 H3573 0.950 . S
C3581 C3579 1.327 . S
C3582 C3570 1.349 . S
C3582 H3576 0.950 . S
C3582 C3583 1.327 . S
C3583 H3577 0.950 . S
C3583 C3582 1.327 . S
C3583 C3587 1.429 . S
C3584 C3567 1.574 . S
C3584 H3578 0.949 . S
C3584 C3588 1.368 . S
C3585 C3566 1.429 . S
C3585 C3579 1.429 . S
C3585 C3586 1.523 . S
C3586 C3567 1.368 . S
C3586 C3580 1.368 . S
C3586 C3585 1.523 . S
C3587 C3571 1.429 . S
C3587 C3583 1.429 . S
C3587 C3588 1.523 . S
C3588 C3572 1.368 . S
C3588 C3584 1.368 . S
C3588 C3587 1.523 . S
H3589 C3564 0.950 . S
H3590 C3566 0.950 . S
H3591 C3567 0.949 . S
H3592 C3569 0.950 . S
H3593 C3571 0.950 . S
C3594 C3595 1.349 . S
C3594 C3596 1.327 . S
C3594 H3619 0.950 . S
C3595 C3594 1.349 . S
C3595 C3611 1.349 . S
C3596 C3594 1.327 . S
C3596 C3615 1.429 . S
C3596 H3620 0.950 . S
C3597 C3614 1.574 . S
C3597 C3616 1.368 . S
C3597 H3621 0.949 . S
H3598 C3602 0.949 . S
C3599 C3600 1.349 . S
C3599 C3601 1.327 . S
C3599 H3622 0.950 . S
C3600 C3599 1.349 . S
C3600 C3612 1.349 . S
C3601 C3599 1.327 . S
C3601 C3617 1.429 . S
C3601 H3623 0.950 . S
C3602 H3598 0.949 . S
C3602 C3610 1.574 . S
C3602 C3618 1.368 . S
H3603 C3611 0.950 . S
H3604 C3609 0.950 . S
H3605 C3610 0.949 . S
H3606 C3612 0.950 . S
H3607 C3613 0.950 . S
H3608 C3614 0.949 . S
C3609 H3604 0.950 . S
C3609 C3611 1.327 . S
C3609 C3615 1.429 . S
C3610 C3602 1.574 . S
C3610 H3605 0.949 . S
C3610 C3616 1.368 . S
C3611 C3595 1.349 . S
C3611 H3603 0.950 . S
C3611 C3609 1.327 . S
C3612 C3600 1.349 . S
C3612 H3606 0.950 . S
C3612 C3613 1.327 . S
C3613 H3607 0.950 . S
C3613 C3612 1.327 . S
C3613 C3617 1.429 . S
C3614 C3597 1.574 . S
C3614 H3608 0.949 . S
C3614 C3618 1.368 . S
C3615 C3596 1.429 . S
C3615 C3609 1.429 . S
C3615 C3616 1.523 . S
C3616 C3597 1.368 . S
C3616 C3610 1.368 . S
C3616 C3615 1.523 . S
C3617 C3601 1.429 . S
C3617 C3613 1.429 . S
C3617 C3618 1.523 . S
C3618 C3602 1.368 . S
C3618 C3614 1.368 . S
C3618 C3617 1.523 . S
H3619 C3594 0.950 . S
H3620 C3596 0.950 . S
H3621 C3597 0.949 . S
H3622 C3599 0.950 . S
H3623 C3601 0.950 . S
C3624 C3625 1.349 . S
C3624 C3626 1.327 . S
C3624 H3649 0.950 . S
C3625 C3624 1.349 . S
C3625 C3641 1.349 . S
C3626 C3624 1.327 . S
C3626 C3645 1.429 . S
C3626 H3650 0.950 . S
C3627 C3644 1.574 . S
C3627 C3646 1.368 . S
C3627 H3651 0.949 . S
H3628 C3632 0.949 . S
C3629 C3630 1.349 . S
C3629 C3631 1.327 . S
C3629 H3652 0.950 . S
C3630 C3629 1.349 . S
C3630 C3642 1.349 . S
C3631 C3629 1.327 . S
C3631 C3647 1.429 . S
C3631 H3653 0.950 . S
C3632 H3628 0.949 . S
C3632 C3640 1.574 . S
C3632 C3648 1.368 . S
H3633 C3641 0.950 . S
H3634 C3639 0.950 . S
H3635 C3640 0.949 . S
H3636 C3642 0.950 . S
H3637 C3643 0.950 . S
H3638 C3644 0.949 . S
C3639 H3634 0.950 . S
C3639 C3641 1.327 . S
C3639 C3645 1.429 . S
C3640 C3632 1.574 . S
C3640 H3635 0.949 . S
C3640 C3646 1.368 . S
C3641 C3625 1.349 . S
C3641 H3633 0.950 . S
C3641 C3639 1.327 . S
C3642 C3630 1.349 . S
C3642 H3636 0.950 . S
C3642 C3643 1.327 . S
C3643 H3637 0.950 . S
C3643 C3642 1.327 . S
C3643 C3647 1.429 . S
C3644 C3627 1.574 . S
C3644 H3638 0.949 . S
C3644 C3648 1.368 . S
C3645 C3626 1.429 . S
C3645 C3639 1.429 . S
C3645 C3646 1.523 . S
C3646 C3627 1.368 . S
C3646 C3640 1.368 . S
C3646 C3645 1.523 . S
C3647 C3631 1.429 . S
C3647 C3643 1.429 . S
C3647 C3648 1.523 . S
C3648 C3632 1.368 . S
C3648 C3644 1.368 . S
C3648 C3647 1.523 . S
H3649 C3624 0.950 . S
H3650 C3626 0.950 . S
H3651 C3627 0.949 . S
H3652 C3629 0.950 . S
H3653 C3631 0.950 . S
C3654 C3655 1.349 . S
C3654 C3656 1.327 . S
C3654 H3679 0.950 . S
C3655 C3654 1.349 . S
C3655 C3671 1.349 . S
C3656 C3654 1.327 . S
C3656 C3675 1.429 . S
C3656 H3680 0.950 . S
C3657 C3674 1.574 . S
C3657 C3676 1.368 . S
C3657 H3681 0.949 . S
H3658 C3662 0.949 . S
C3659 C3660 1.349 . S
C3659 C3661 1.327 . S
C3659 H3682 0.950 . S
C3660 C3659 1.349 . S
C3660 C3672 1.349 . S
C3661 C3659 1.327 . S
C3661 C3677 1.429 . S
C3661 H3683 0.950 . S
C3662 H3658 0.949 . S
C3662 C3670 1.574 . S
C3662 C3678 1.368 . S
H3663 C3671 0.950 . S
H3664 C3669 0.950 . S
H3665 C3670 0.949 . S
H3666 C3672 0.950 . S
H3667 C3673 0.950 . S
H3668 C3674 0.949 . S
C3669 H3664 0.950 . S
C3669 C3671 1.327 . S
C3669 C3675 1.429 . S
C3670 C3662 1.574 . S
C3670 H3665 0.949 . S
C3670 C3676 1.368 . S
C3671 C3655 1.349 . S
C3671 H3663 0.950 . S
C3671 C3669 1.327 . S
C3672 C3660 1.349 . S
C3672 H3666 0.950 . S
C3672 C3673 1.327 . S
C3673 H3667 0.950 . S
C3673 C3672 1.327 . S
C3673 C3677 1.429 . S
C3674 C3657 1.574 . S
C3674 H3668 0.949 . S
C3674 C3678 1.368 . S
C3675 C3656 1.429 . S
C3675 C3669 1.429 . S
C3675 C3676 1.523 . S
C3676 C3657 1.368 . S
C3676 C3670 1.368 . S
C3676 C3675 1.523 . S
C3677 C3661 1.429 . S
C3677 C3673 1.429 . S
C3677 C3678 1.523 . S
C3678 C3662 1.368 . S
C3678 C3674 1.368 . S
C3678 C3677 1.523 . S
H3679 C3654 0.950 . S
H3680 C3656 0.950 . S
H3681 C3657 0.949 . S
H3682 C3659 0.950 . S
H3683 C3661 0.950 . S
C3684 C3685 1.349 . S
C3684 C3686 1.327 . S
C3684 H3709 0.950 . S
C3685 C3684 1.349 . S
C3685 C3701 1.349 . S
C3686 C3684 1.327 . S
C3686 C3705 1.429 . S
C3686 H3710 0.950 . S
C3687 C3704 1.574 . S
C3687 C3706 1.368 . S
C3687 H3711 0.949 . S
H3688 C3692 0.949 . S
C3689 C3690 1.349 . S
C3689 C3691 1.327 . S
C3689 H3712 0.950 . S
C3690 C3689 1.349 . S
C3690 C3702 1.349 . S
C3691 C3689 1.327 . S
C3691 C3707 1.429 . S
C3691 H3713 0.950 . S
C3692 H3688 0.949 . S
C3692 C3700 1.574 . S
C3692 C3708 1.368 . S
H3693 C3701 0.950 . S
H3694 C3699 0.950 . S
H3695 C3700 0.949 . S
H3696 C3702 0.950 . S
H3697 C3703 0.950 . S
H3698 C3704 0.949 . S
C3699 H3694 0.950 . S
C3699 C3701 1.327 . S
C3699 C3705 1.429 . S
C3700 C3692 1.574 . S
C3700 H3695 0.949 . S
C3700 C3706 1.368 . S
C3701 C3685 1.349 . S
C3701 H3693 0.950 . S
C3701 C3699 1.327 . S
C3702 C3690 1.349 . S
C3702 H3696 0.950 . S
C3702 C3703 1.327 . S
C3703 H3697 0.950 . S
C3703 C3702 1.327 . S
C3703 C3707 1.429 . S
C3704 C3687 1.574 . S
C3704 H3698 0.949 . S
C3704 C3708 1.368 . S
C3705 C3686 1.429 . S
C3705 C3699 1.429 . S
C3705 C3706 1.523 . S
C3706 C3687 1.368 . S
C3706 C3700 1.368 . S
C3706 C3705 1.523 . S
C3707 C3691 1.429 . S
C3707 C3703 1.429 . S
C3707 C3708 1.523 . S
C3708 C3692 1.368 . S
C3708 C3704 1.368 . S
C3708 C3707 1.523 . S
H3709 C3684 0.950 . S
H3710 C3686 0.950 . S
H3711 C3687 0.949 . S
H3712 C3689 0.950 . S
H3713 C3691 0.950 . S
C3714 C3715 1.349 . S
C3714 C3716 1.327 . S
C3714 H3739 0.950 . S
C3715 C3714 1.349 . S
C3715 C3731 1.349 . S
C3716 C3714 1.327 . S
C3716 C3735 1.429 . S
C3716 H3740 0.950 . S
C3717 C3734 1.574 . S
C3717 C3736 1.368 . S
C3717 H3741 0.949 . S
H3718 C3722 0.949 . S
C3719 C3720 1.349 . S
C3719 C3721 1.327 . S
C3719 H3742 0.950 . S
C3720 C3719 1.349 . S
C3720 C3732 1.349 . S
C3721 C3719 1.327 . S
C3721 C3737 1.429 . S
C3721 H3743 0.950 . S
C3722 H3718 0.949 . S
C3722 C3730 1.574 . S
C3722 C3738 1.368 . S
H3723 C3731 0.950 . S
H3724 C3729 0.950 . S
H3725 C3730 0.949 . S
H3726 C3732 0.950 . S
H3727 C3733 0.950 . S
H3728 C3734 0.949 . S
C3729 H3724 0.950 . S
C3729 C3731 1.327 . S
C3729 C3735 1.429 . S
C3730 C3722 1.574 . S
C3730 H3725 0.949 . S
C3730 C3736 1.368 . S
C3731 C3715 1.349 . S
C3731 H3723 0.950 . S
C3731 C3729 1.327 . S
C3732 C3720 1.349 . S
C3732 H3726 0.950 . S
C3732 C3733 1.327 . S
C3733 H3727 0.950 . S
C3733 C3732 1.327 . S
C3733 C3737 1.429 . S
C3734 C3717 1.574 . S
C3734 H3728 0.949 . S
C3734 C3738 1.368 . S
C3735 C3716 1.429 . S
C3735 C3729 1.429 . S
C3735 C3736 1.523 . S
C3736 C3717 1.368 . S
C3736 C3730 1.368 . S
C3736 C3735 1.523 . S
C3737 C3721 1.429 . S
C3737 C3733 1.429 . S
C3737 C3738 1.523 . S
C3738 C3722 1.368 . S
C3738 C3734 1.368 . S
C3738 C3737 1.523 . S
H3739 C3714 0.950 . S
H3740 C3716 0.950 . S
H3741 C3717 0.949 . S
H3742 C3719 0.950 . S
H3743 C3721 0.950 . S
C3744 C3745 1.349 . S
C3744 C3746 1.327 . S
C3744 H3769 0.950 . S
C3745 C3744 1.349 . S
C3745 C3761 1.349 . S
C3746 C3744 1.327 . S
C3746 C3765 1.429 . S
C3746 H3770 0.950 . S
C3747 C3764 1.574 . S
C3747 C3766 1.368 . S
C3747 H3771 0.949 . S
H3748 C3752 0.949 . S
C3749 C3750 1.349 . S
C3749 C3751 1.327 . S
C3749 H3772 0.950 . S
C3750 C3749 1.349 . S
C3750 C3762 1.349 . S
C3751 C3749 1.327 . S
C3751 C3767 1.429 . S
C3751 H3773 0.950 . S
C3752 H3748 0.949 . S
C3752 C3760 1.574 . S
C3752 C3768 1.368 . S
H3753 C3761 0.950 . S
H3754 C3759 0.950 . S
H3755 C3760 0.949 . S
H3756 C3762 0.950 . S
H3757 C3763 0.950 . S
H3758 C3764 0.949 . S
C3759 H3754 0.950 . S
C3759 C3761 1.327 . S
C3759 C3765 1.429 . S
C3760 C3752 1.574 . S
C3760 H3755 0.949 . S
C3760 C3766 1.368 . S
C3761 C3745 1.349 . S
C3761 H3753 0.950 . S
C3761 C3759 1.327 . S
C3762 C3750 1.349 . S
C3762 H3756 0.950 . S
C3762 C3763 1.327 . S
C3763 H3757 0.950 . S
C3763 C3762 1.327 . S
C3763 C3767 1.429 . S
C3764 C3747 1.574 . S
C3764 H3758 0.949 . S
C3764 C3768 1.368 . S
C3765 C3746 1.429 . S
C3765 C3759 1.429 . S
C3765 C3766 1.523 . S
C3766 C3747 1.368 . S
C3766 C3760 1.368 . S
C3766 C3765 1.523 . S
C3767 C3751 1.429 . S
C3767 C3763 1.429 . S
C3767 C3768 1.523 . S
C3768 C3752 1.368 . S
C3768 C3764 1.368 . S
C3768 C3767 1.523 . S
H3769 C3744 0.950 . S
H3770 C3746 0.950 . S
H3771 C3747 0.949 . S
H3772 C3749 0.950 . S
H3773 C3751 0.950 . S
C3774 C3775 1.349 . S
C3774 C3776 1.327 . S
C3774 H3799 0.950 . S
C3775 C3774 1.349 . S
C3775 C3791 1.349 . S
C3776 C3774 1.327 . S
C3776 C3795 1.429 . S
C3776 H3800 0.950 . S
C3777 C3794 1.574 . S
C3777 C3796 1.368 . S
C3777 H3801 0.949 . S
H3778 C3782 0.949 . S
C3779 C3780 1.349 . S
C3779 C3781 1.327 . S
C3779 H3802 0.950 . S
C3780 C3779 1.349 . S
C3780 C3792 1.349 . S
C3781 C3779 1.327 . S
C3781 C3797 1.429 . S
C3781 H3803 0.950 . S
C3782 H3778 0.949 . S
C3782 C3790 1.574 . S
C3782 C3798 1.368 . S
H3783 C3791 0.950 . S
H3784 C3789 0.950 . S
H3785 C3790 0.949 . S
H3786 C3792 0.950 . S
H3787 C3793 0.950 . S
H3788 C3794 0.949 . S
C3789 H3784 0.950 . S
C3789 C3791 1.327 . S
C3789 C3795 1.429 . S
C3790 C3782 1.574 . S
C3790 H3785 0.949 . S
C3790 C3796 1.368 . S
C3791 C3775 1.349 . S
C3791 H3783 0.950 . S
C3791 C3789 1.327 . S
C3792 C3780 1.349 . S
C3792 H3786 0.950 . S
C3792 C3793 1.327 . S
C3793 H3787 0.950 . S
C3793 C3792 1.327 . S
C3793 C3797 1.429 . S
C3794 C3777 1.574 . S
C3794 H3788 0.949 . S
C3794 C3798 1.368 . S
C3795 C3776 1.429 . S
C3795 C3789 1.429 . S
C3795 C3796 1.523 . S
C3796 C3777 1.368 . S
C3796 C3790 1.368 . S
C3796 C3795 1.523 . S
C3797 C3781 1.429 . S
C3797 C3793 1.429 . S
C3797 C3798 1.523 . S
C3798 C3782 1.368 . S
C3798 C3794 1.368 . S
C3798 C3797 1.523 . S
H3799 C3774 0.950 . S
H3800 C3776 0.950 . S
H3801 C3777 0.949 . S
H3802 C3779 0.950 . S
H3803 C3781 0.950 . S
C3804 C3805 1.349 . S
C3804 C3806 1.327 . S
C3804 H3829 0.950 . S
C3805 C3804 1.349 . S
C3805 C3821 1.349 . S
C3806 C3804 1.327 . S
C3806 C3825 1.429 . S
C3806 H3830 0.950 . S
C3807 C3824 1.574 . S
C3807 C3826 1.368 . S
C3807 H3831 0.949 . S
H3808 C3812 0.949 . S
C3809 C3810 1.349 . S
C3809 C3811 1.327 . S
C3809 H3832 0.950 . S
C3810 C3809 1.349 . S
C3810 C3822 1.349 . S
C3811 C3809 1.327 . S
C3811 C3827 1.429 . S
C3811 H3833 0.950 . S
C3812 H3808 0.949 . S
C3812 C3820 1.574 . S
C3812 C3828 1.368 . S
H3813 C3821 0.950 . S
H3814 C3819 0.950 . S
H3815 C3820 0.949 . S
H3816 C3822 0.950 . S
H3817 C3823 0.950 . S
H3818 C3824 0.949 . S
C3819 H3814 0.950 . S
C3819 C3821 1.327 . S
C3819 C3825 1.429 . S
C3820 C3812 1.574 . S
C3820 H3815 0.949 . S
C3820 C3826 1.368 . S
C3821 C3805 1.349 . S
C3821 H3813 0.950 . S
C3821 C3819 1.327 . S
C3822 C3810 1.349 . S
C3822 H3816 0.950 . S
C3822 C3823 1.327 . S
C3823 H3817 0.950 . S
C3823 C3822 1.327 . S
C3823 C3827 1.429 . S
C3824 C3807 1.574 . S
C3824 H3818 0.949 . S
C3824 C3828 1.368 . S
C3825 C3806 1.429 . S
C3825 C3819 1.429 . S
C3825 C3826 1.523 . S
C3826 C3807 1.368 . S
C3826 C3820 1.368 . S
C3826 C3825 1.523 . S
C3827 C3811 1.429 . S
C3827 C3823 1.429 . S
C3827 C3828 1.523 . S
C3828 C3812 1.368 . S
C3828 C3824 1.368 . S
C3828 C3827 1.523 . S
H3829 C3804 0.950 . S
H3830 C3806 0.950 . S
H3831 C3807 0.949 . S
H3832 C3809 0.950 . S
H3833 C3811 0.950 . S
C3834 C3835 1.349 . S
C3834 C3836 1.327 . S
C3834 H3859 0.950 . S
C3835 C3834 1.349 . S
C3835 C3851 1.349 . S
C3836 C3834 1.327 . S
C3836 C3855 1.429 . S
C3836 H3860 0.950 . S
C3837 C3854 1.574 . S
C3837 C3856 1.368 . S
C3837 H3861 0.949 . S
H3838 C3842 0.949 . S
C3839 C3840 1.349 . S
C3839 C3841 1.327 . S
C3839 H3862 0.950 . S
C3840 C3839 1.349 . S
C3840 C3852 1.349 . S
C3841 C3839 1.327 . S
C3841 C3857 1.429 . S
C3841 H3863 0.950 . S
C3842 H3838 0.949 . S
C3842 C3850 1.574 . S
C3842 C3858 1.368 . S
H3843 C3851 0.950 . S
H3844 C3849 0.950 . S
H3845 C3850 0.949 . S
H3846 C3852 0.950 . S
H3847 C3853 0.950 . S
H3848 C3854 0.949 . S
C3849 H3844 0.950 . S
C3849 C3851 1.327 . S
C3849 C3855 1.429 . S
C3850 C3842 1.574 . S
C3850 H3845 0.949 . S
C3850 C3856 1.368 . S
C3851 C3835 1.349 . S
C3851 H3843 0.950 . S
C3851 C3849 1.327 . S
C3852 C3840 1.349 . S
C3852 H3846 0.950 . S
C3852 C3853 1.327 . S
C3853 H3847 0.950 . S
C3853 C3852 1.327 . S
C3853 C3857 1.429 . S
C3854 C3837 1.574 . S
C3854 H3848 0.949 . S
C3854 C3858 1.368 . S
C3855 C3836 1.429 . S
C3855 C3849 1.429 . S
C3855 C3856 1.523 . S
C3856 C3837 1.368 . S
C3856 C3850 1.368 . S
C3856 C3855 1.523 . S
C3857 C3841 1.429 . S
C3857 C3853 1.429 . S
C3857 C3858 1.523 . S
C3858 C3842 1.368 . S
C3858 C3854 1.368 . S
C3858 C3857 1.523 . S
H3859 C3834 0.950 . S
H3860 C3836 0.950 . S
H3861 C3837 0.949 . S
H3862 C3839 0.950 . S
H3863 C3841 0.950 . S
C3864 C3865 1.349 . S
C3864 C3866 1.327 . S
C3864 H3889 0.950 . S
C3865 C3864 1.349 . S
C3865 C3881 1.349 . S
C3866 C3864 1.327 . S
C3866 C3885 1.429 . S
C3866 H3890 0.950 . S
C3867 C3884 1.574 . S
C3867 C3886 1.368 . S
C3867 H3891 0.949 . S
H3868 C3872 0.949 . S
C3869 C3870 1.349 . S
C3869 C3871 1.327 . S
C3869 H3892 0.950 . S
C3870 C3869 1.349 . S
C3870 C3882 1.349 . S
C3871 C3869 1.327 . S
C3871 C3887 1.429 . S
C3871 H3893 0.950 . S
C3872 H3868 0.949 . S
C3872 C3880 1.574 . S
C3872 C3888 1.368 . S
H3873 C3881 0.950 . S
H3874 C3879 0.950 . S
H3875 C3880 0.949 . S
H3876 C3882 0.950 . S
H3877 C3883 0.950 . S
H3878 C3884 0.949 . S
C3879 H3874 0.950 . S
C3879 C3881 1.327 . S
C3879 C3885 1.429 . S
C3880 C3872 1.574 . S
C3880 H3875 0.949 . S
C3880 C3886 1.368 . S
C3881 C3865 1.349 . S
C3881 H3873 0.950 . S
C3881 C3879 1.327 . S
C3882 C3870 1.349 . S
C3882 H3876 0.950 . S
C3882 C3883 1.327 . S
C3883 H3877 0.950 . S
C3883 C3882 1.327 . S
C3883 C3887 1.429 . S
C3884 C3867 1.574 . S
C3884 H3878 0.949 . S
C3884 C3888 1.368 . S
C3885 C3866 1.429 . S
C3885 C3879 1.429 . S
C3885 C3886 1.523 . S
C3886 C3867 1.368 . S
C3886 C3880 1.368 . S
C3886 C3885 1.523 . S
C3887 C3871 1.429 . S
C3887 C3883 1.429 . S
C3887 C3888 1.523 . S
C3888 C3872 1.368 . S
C3888 C3884 1.368 . S
C3888 C3887 1.523 . S
H3889 C3864 0.950 . S
H3890 C3866 0.950 . S
H3891 C3867 0.949 . S
H3892 C3869 0.950 . S
H3893 C3871 0.950 . S
C3894 C3895 1.349 . S
C3894 C3896 1.327 . S
C3894 H3919 0.950 . S
C3895 C3894 1.349 . S
C3895 C3911 1.349 . S
C3896 C3894 1.327 . S
C3896 C3915 1.429 . S
C3896 H3920 0.950 . S
C3897 C3914 1.574 . S
C3897 C3916 1.368 . S
C3897 H3921 0.949 . S
H3898 C3902 0.949 . S
C3899 C3900 1.349 . S
C3899 C3901 1.327 . S
C3899 H3922 0.950 . S
C3900 C3899 1.349 . S
C3900 C3912 1.349 . S
C3901 C3899 1.327 . S
C3901 C3917 1.429 . S
C3901 H3923 0.950 . S
C3902 H3898 0.949 . S
C3902 C3910 1.574 . S
C3902 C3918 1.368 . S
H3903 C3911 0.950 . S
H3904 C3909 0.950 . S
H3905 C3910 0.949 . S
H3906 C3912 0.950 . S
H3907 C3913 0.950 . S
H3908 C3914 0.949 . S
C3909 H3904 0.950 . S
C3909 C3911 1.327 . S
C3909 C3915 1.429 . S
C3910 C3902 1.574 . S
C3910 H3905 0.949 . S
C3910 C3916 1.368 . S
C3911 C3895 1.349 . S
C3911 H3903 0.950 . S
C3911 C3909 1.327 . S
C3912 C3900 1.349 . S
C3912 H3906 0.950 . S
C3912 C3913 1.327 . S
C3913 H3907 0.950 . S
C3913 C3912 1.327 . S
C3913 C3917 1.429 . S
C3914 C3897 1.574 . S
C3914 H3908 0.949 . S
C3914 C3918 1.368 . S
C3915 C3896 1.429 . S
C3915 C3909 1.429 . S
C3915 C3916 1.523 . S
C3916 C3897 1.368 . S
C3916 C3910 1.368 . S
C3916 C3915 1.523 . S
C3917 C3901 1.429 . S
C3917 C3913 1.429 . S
C3917 C3918 1.523 . S
C3918 C3902 1.368 . S
C3918 C3914 1.368 . S
C3918 C3917 1.523 . S
H3919 C3894 0.950 . S
H3920 C3896 0.950 . S
H3921 C3897 0.949 . S
H3922 C3899 0.950 . S
H3923 C3901 0.950 . S
C3924 C3925 1.349 . S
C3924 C3926 1.327 . S
C3924 H3949 0.950 . S
C3925 C3924 1.349 . S
C3925 C3941 1.349 . S
C3926 C3924 1.327 . S
C3926 C3945 1.429 . S
C3926 H3950 0.950 . S
C3927 C3944 1.574 . S
C3927 C3946 1.368 . S
C3927 H3951 0.949 . S
H3928 C3932 0.949 . S
C3929 C3930 1.349 . S
C3929 C3931 1.327 . S
C3929 H3952 0.950 . S
C3930 C3929 1.349 . S
C3930 C3942 1.349 . S
C3931 C3929 1.327 . S
C3931 C3947 1.429 . S
C3931 H3953 0.950 . S
C3932 H3928 0.949 . S
C3932 C3940 1.574 . S
C3932 C3948 1.368 . S
H3933 C3941 0.950 . S
H3934 C3939 0.950 . S
H3935 C3940 0.949 . S
H3936 C3942 0.950 . S
H3937 C3943 0.950 . S
H3938 C3944 0.949 . S
C3939 H3934 0.950 . S
C3939 C3941 1.327 . S
C3939 C3945 1.429 . S
C3940 C3932 1.574 . S
C3940 H3935 0.949 . S
C3940 C3946 1.368 . S
C3941 C3925 1.349 . S
C3941 H3933 0.950 . S
C3941 C3939 1.327 . S
C3942 C3930 1.349 . S
C3942 H3936 0.950 . S
C3942 C3943 1.327 . S
C3943 H3937 0.950 . S
C3943 C3942 1.327 . S
C3943 C3947 1.429 . S
C3944 C3927 1.574 . S
C3944 H3938 0.949 . S
C3944 C3948 1.368 . S
C3945 C3926 1.429 . S
C3945 C3939 1.429 . S
C3945 C3946 1.523 . S
C3946 C3927 1.368 . S
C3946 C3940 1.368 . S
C3946 C3945 1.523 . S
C3947 C3931 1.429 . S
C3947 C3943 1.429 . S
C3947 C3948 1.523 . S
C3948 C3932 1.368 . S
C3948 C3944 1.368 . S
C3948 C3947 1.523 . S
H3949 C3924 0.950 . S
H3950 C3926 0.950 . S
H3951 C3927 0.949 . S
H3952 C3929 0.950 . S
H3953 C3931 0.950 . S
C3954 C3955 1.349 . S
C3954 C3956 1.327 . S
C3954 H3979 0.950 . S
C3955 C3954 1.349 . S
C3955 C3971 1.349 . S
C3956 C3954 1.327 . S
C3956 C3975 1.429 . S
C3956 H3980 0.950 . S
C3957 C3974 1.574 . S
C3957 C3976 1.368 . S
C3957 H3981 0.949 . S
H3958 C3962 0.949 . S
C3959 C3960 1.349 . S
C3959 C3961 1.327 . S
C3959 H3982 0.950 . S
C3960 C3959 1.349 . S
C3960 C3972 1.349 . S
C3961 C3959 1.327 . S
C3961 C3977 1.429 . S
C3961 H3983 0.950 . S
C3962 H3958 0.949 . S
C3962 C3970 1.574 . S
C3962 C3978 1.368 . S
H3963 C3971 0.950 . S
H3964 C3969 0.950 . S
H3965 C3970 0.949 . S
H3966 C3972 0.950 . S
H3967 C3973 0.950 . S
H3968 C3974 0.949 . S
C3969 H3964 0.950 . S
C3969 C3971 1.327 . S
C3969 C3975 1.429 . S
C3970 C3962 1.574 . S
C3970 H3965 0.949 . S
C3970 C3976 1.368 . S
C3971 C3955 1.349 . S
C3971 H3963 0.950 . S
C3971 C3969 1.327 . S
C3972 C3960 1.349 . S
C3972 H3966 0.950 . S
C3972 C3973 1.327 . S
C3973 H3967 0.950 . S
C3973 C3972 1.327 . S
C3973 C3977 1.429 . S
C3974 C3957 1.574 . S
C3974 H3968 0.949 . S
C3974 C3978 1.368 . S
C3975 C3956 1.429 . S
C3975 C3969 1.429 . S
C3975 C3976 1.523 . S
C3976 C3957 1.368 . S
C3976 C3970 1.368 . S
C3976 C3975 1.523 . S
C3977 C3961 1.429 . S
C3977 C3973 1.429 . S
C3977 C3978 1.523 . S
C3978 C3962 1.368 . S
C3978 C3974 1.368 . S
C3978 C3977 1.523 . S
H3979 C3954 0.950 . S
H3980 C3956 0.950 . S
H3981 C3957 0.949 . S
H3982 C3959 0.950 . S
H3983 C3961 0.950 . S
C3984 C3985 1.349 . S
C3984 C3986 1.327 . S
C3984 H4009 0.950 . S
C3985 C3984 1.349 . S
C3985 C4001 1.349 . S
C3986 C3984 1.327 . S
C3986 C4005 1.429 . S
C3986 H4010 0.950 . S
C3987 C4004 1.574 . S
C3987 C4006 1.368 . S
C3987 H4011 0.949 . S
H3988 C3992 0.949 . S
C3989 C3990 1.349 . S
C3989 C3991 1.327 . S
C3989 H4012 0.950 . S
C3990 C3989 1.349 . S
C3990 C4002 1.349 . S
C3991 C3989 1.327 . S
C3991 C4007 1.429 . S
C3991 H4013 0.950 . S
C3992 H3988 0.949 . S
C3992 C4000 1.574 . S
C3992 C4008 1.368 . S
H3993 C4001 0.950 . S
H3994 C3999 0.950 . S
H3995 C4000 0.949 . S
H3996 C4002 0.950 . S
H3997 C4003 0.950 . S
H3998 C4004 0.949 . S
C3999 H3994 0.950 . S
C3999 C4001 1.327 . S
C3999 C4005 1.429 . S
C4000 C3992 1.574 . S
C4000 H3995 0.949 . S
C4000 C4006 1.368 . S
C4001 C3985 1.349 . S
C4001 H3993 0.950 . S
C4001 C3999 1.327 . S
C4002 C3990 1.349 . S
C4002 H3996 0.950 . S
C4002 C4003 1.327 . S
C4003 H3997 0.950 . S
C4003 C4002 1.327 . S
C4003 C4007 1.429 . S
C4004 C3987 1.574 . S
C4004 H3998 0.949 . S
C4004 C4008 1.368 . S
C4005 C3986 1.429 . S
C4005 C3999 1.429 . S
C4005 C4006 1.523 . S
C4006 C3987 1.368 . S
C4006 C4000 1.368 . S
C4006 C4005 1.523 . S
C4007 C3991 1.429 . S
C4007 C4003 1.429 . S
C4007 C4008 1.523 . S
C4008 C3992 1.368 . S
C4008 C4004 1.368 . S
C4008 C4007 1.523 . S
H4009 C3984 0.950 . S
H4010 C3986 0.950 . S
H4011 C3987 0.949 . S
H4012 C3989 0.950 . S
H4013 C3991 0.950 . S
C4014 C4015 1.349 . S
C4014 C4016 1.327 . S
C4014 H4039 0.950 . S
C4015 C4014 1.349 . S
C4015 C4031 1.349 . S
C4016 C4014 1.327 . S
C4016 C4035 1.429 . S
C4016 H4040 0.950 . S
C4017 C4034 1.574 . S
C4017 C4036 1.368 . S
C4017 H4041 0.949 . S
H4018 C4022 0.949 . S
C4019 C4020 1.349 . S
C4019 C4021 1.327 . S
C4019 H4042 0.950 . S
C4020 C4019 1.349 . S
C4020 C4032 1.349 . S
C4021 C4019 1.327 . S
C4021 C4037 1.429 . S
C4021 H4043 0.950 . S
C4022 H4018 0.949 . S
C4022 C4030 1.574 . S
C4022 C4038 1.368 . S
H4023 C4031 0.950 . S
H4024 C4029 0.950 . S
H4025 C4030 0.949 . S
H4026 C4032 0.950 . S
H4027 C4033 0.950 . S
H4028 C4034 0.949 . S
C4029 H4024 0.950 . S
C4029 C4031 1.327 . S
C4029 C4035 1.429 . S
C4030 C4022 1.574 . S
C4030 H4025 0.949 . S
C4030 C4036 1.368 . S
C4031 C4015 1.349 . S
C4031 H4023 0.950 . S
C4031 C4029 1.327 . S
C4032 C4020 1.349 . S
C4032 H4026 0.950 . S
C4032 C4033 1.327 . S
C4033 H4027 0.950 . S
C4033 C4032 1.327 . S
C4033 C4037 1.429 . S
C4034 C4017 1.574 . S
C4034 H4028 0.949 . S
C4034 C4038 1.368 . S
C4035 C4016 1.429 . S
C4035 C4029 1.429 . S
C4035 C4036 1.523 . S
C4036 C4017 1.368 . S
C4036 C4030 1.368 . S
C4036 C4035 1.523 . S
C4037 C4021 1.429 . S
C4037 C4033 1.429 . S
C4037 C4038 1.523 . S
C4038 C4022 1.368 . S
C4038 C4034 1.368 . S
C4038 C4037 1.523 . S
H4039 C4014 0.950 . S
H4040 C4016 0.950 . S
H4041 C4017 0.949 . S
H4042 C4019 0.950 . S
H4043 C4021 0.950 . S
C4044 C4045 1.349 . S
C4044 C4046 1.327 . S
C4044 H4069 0.950 . S
C4045 C4044 1.349 . S
C4045 C4061 1.349 . S
C4046 C4044 1.327 . S
C4046 C4065 1.429 . S
C4046 H4070 0.950 . S
C4047 C4064 1.574 . S
C4047 C4066 1.368 . S
C4047 H4071 0.949 . S
H4048 C4052 0.949 . S
C4049 C4050 1.349 . S
C4049 C4051 1.327 . S
C4049 H4072 0.950 . S
C4050 C4049 1.349 . S
C4050 C4062 1.349 . S
C4051 C4049 1.327 . S
C4051 C4067 1.429 . S
C4051 H4073 0.950 . S
C4052 H4048 0.949 . S
C4052 C4060 1.574 . S
C4052 C4068 1.368 . S
H4053 C4061 0.950 . S
H4054 C4059 0.950 . S
H4055 C4060 0.949 . S
H4056 C4062 0.950 . S
H4057 C4063 0.950 . S
H4058 C4064 0.949 . S
C4059 H4054 0.950 . S
C4059 C4061 1.327 . S
C4059 C4065 1.429 . S
C4060 C4052 1.574 . S
C4060 H4055 0.949 . S
C4060 C4066 1.368 . S
C4061 C4045 1.349 . S
C4061 H4053 0.950 . S
C4061 C4059 1.327 . S
C4062 C4050 1.349 . S
C4062 H4056 0.950 . S
C4062 C4063 1.327 . S
C4063 H4057 0.950 . S
C4063 C4062 1.327 . S
C4063 C4067 1.429 . S
C4064 C4047 1.574 . S
C4064 H4058 0.949 . S
C4064 C4068 1.368 . S
C4065 C4046 1.429 . S
C4065 C4059 1.429 . S
C4065 C4066 1.523 . S
C4066 C4047 1.368 . S
C4066 C4060 1.368 . S
C4066 C4065 1.523 . S
C4067 C4051 1.429 . S
C4067 C4063 1.429 . S
C4067 C4068 1.523 . S
C4068 C4052 1.368 . S
C4068 C4064 1.368 . S
C4068 C4067 1.523 . S
H4069 C4044 0.950 . S
H4070 C4046 0.950 . S
H4071 C4047 0.949 . S
H4072 C4049 0.950 . S
H4073 C4051 0.950 . S
C4074 C4075 1.349 . S
C4074 C4076 1.327 . S
C4074 H4099 0.950 . S
C4075 C4074 1.349 . S
C4075 C4091 1.349 . S
C4076 C4074 1.327 . S
C4076 C4095 1.429 . S
C4076 H4100 0.950 . S
C4077 C4094 1.574 . S
C4077 C4096 1.368 . S
C4077 H4101 0.949 . S
H4078 C4082 0.949 . S
C4079 C4080 1.349 . S
C4079 C4081 1.327 . S
C4079 H4102 0.950 . S
C4080 C4079 1.349 . S
C4080 C4092 1.349 . S
C4081 C4079 1.327 . S
C4081 C4097 1.429 . S
C4081 H4103 0.950 . S
C4082 H4078 0.949 . S
C4082 C4090 1.574 . S
C4082 C4098 1.368 . S
H4083 C4091 0.950 . S
H4084 C4089 0.950 . S
H4085 C4090 0.949 . S
H4086 C4092 0.950 . S
H4087 C4093 0.950 . S
H4088 C4094 0.949 . S
C4089 H4084 0.950 . S
C4089 C4091 1.327 . S
C4089 C4095 1.429 . S
C4090 C4082 1.574 . S
C4090 H4085 0.949 . S
C4090 C4096 1.368 . S
C4091 C4075 1.349 . S
C4091 H4083 0.950 . S
C4091 C4089 1.327 . S
C4092 C4080 1.349 . S
C4092 H4086 0.950 . S
C4092 C4093 1.327 . S
C4093 H4087 0.950 . S
C4093 C4092 1.327 . S
C4093 C4097 1.429 . S
C4094 C4077 1.574 . S
C4094 H4088 0.949 . S
C4094 C4098 1.368 . S
C4095 C4076 1.429 . S
C4095 C4089 1.429 . S
C4095 C4096 1.523 . S
C4096 C4077 1.368 . S
C4096 C4090 1.368 . S
C4096 C4095 1.523 . S
C4097 C4081 1.429 . S
C4097 C4093 1.429 . S
C4097 C4098 1.523 . S
C4098 C4082 1.368 . S
C4098 C4094 1.368 . S
C4098 C4097 1.523 . S
H4099 C4074 0.950 . S
H4100 C4076 0.950 . S
H4101 C4077 0.949 . S
H4102 C4079 0.950 . S
H4103 C4081 0.950 . S
C4104 C4105 1.349 . S
C4104 C4106 1.327 . S
C4104 H4129 0.950 . S
C4105 C4104 1.349 . S
C4105 C4121 1.349 . S
C4106 C4104 1.327 . S
C4106 C4125 1.429 . S
C4106 H4130 0.950 . S
C4107 C4124 1.574 . S
C4107 C4126 1.368 . S
C4107 H4131 0.949 . S
H4108 C4112 0.949 . S
C4109 C4110 1.349 . S
C4109 C4111 1.327 . S
C4109 H4132 0.950 . S
C4110 C4109 1.349 . S
C4110 C4122 1.349 . S
C4111 C4109 1.327 . S
C4111 C4127 1.429 . S
C4111 H4133 0.950 . S
C4112 H4108 0.949 . S
C4112 C4120 1.574 . S
C4112 C4128 1.368 . S
H4113 C4121 0.950 . S
H4114 C4119 0.950 . S
H4115 C4120 0.949 . S
H4116 C4122 0.950 . S
H4117 C4123 0.950 . S
H4118 C4124 0.949 . S
C4119 H4114 0.950 . S
C4119 C4121 1.327 . S
C4119 C4125 1.429 . S
C4120 C4112 1.574 . S
C4120 H4115 0.949 . S
C4120 C4126 1.368 . S
C4121 C4105 1.349 . S
C4121 H4113 0.950 . S
C4121 C4119 1.327 . S
C4122 C4110 1.349 . S
C4122 H4116 0.950 . S
C4122 C4123 1.327 . S
C4123 H4117 0.950 . S
C4123 C4122 1.327 . S
C4123 C4127 1.429 . S
C4124 C4107 1.574 . S
C4124 H4118 0.949 . S
C4124 C4128 1.368 . S
C4125 C4106 1.429 . S
C4125 C4119 1.429 . S
C4125 C4126 1.523 . S
C4126 C4107 1.368 . S
C4126 C4120 1.368 . S
C4126 C4125 1.523 . S
C4127 C4111 1.429 . S
C4127 C4123 1.429 . S
C4127 C4128 1.523 . S
C4128 C4112 1.368 . S
C4128 C4124 1.368 . S
C4128 C4127 1.523 . S
H4129 C4104 0.950 . S
H4130 C4106 0.950 . S
H4131 C4107 0.949 . S
H4132 C4109 0.950 . S
H4133 C4111 0.950 . S
C4134 C4135 1.349 . S
C4134 C4136 1.327 . S
C4134 H4159 0.950 . S
C4135 C4134 1.349 . S
C4135 C4151 1.349 . S
C4136 C4134 1.327 . S
C4136 C4155 1.429 . S
C4136 H4160 0.950 . S
C4137 C4154 1.574 . S
C4137 C4156 1.368 . S
C4137 H4161 0.949 . S
H4138 C4142 0.949 . S
C4139 C4140 1.349 . S
C4139 C4141 1.327 . S
C4139 H4162 0.950 . S
C4140 C4139 1.349 . S
C4140 C4152 1.349 . S
C4141 C4139 1.327 . S
C4141 C4157 1.429 . S
C4141 H4163 0.950 . S
C4142 H4138 0.949 . S
C4142 C4150 1.574 . S
C4142 C4158 1.368 . S
H4143 C4151 0.950 . S
H4144 C4149 0.950 . S
H4145 C4150 0.949 . S
H4146 C4152 0.950 . S
H4147 C4153 0.950 . S
H4148 C4154 0.949 . S
C4149 H4144 0.950 . S
C4149 C4151 1.327 . S
C4149 C4155 1.429 . S
C4150 C4142 1.574 . S
C4150 H4145 0.949 . S
C4150 C4156 1.368 . S
C4151 C4135 1.349 . S
C4151 H4143 0.950 . S
C4151 C4149 1.327 . S
C4152 C4140 1.349 . S
C4152 H4146 0.950 . S
C4152 C4153 1.327 . S
C4153 H4147 0.950 . S
C4153 C4152 1.327 . S
C4153 C4157 1.429 . S
C4154 C4137 1.574 . S
C4154 H4148 0.949 . S
C4154 C4158 1.368 . S
C4155 C4136 1.429 . S
C4155 C4149 1.429 . S
C4155 C4156 1.523 . S
C4156 C4137 1.368 . S
C4156 C4150 1.368 . S
C4156 C4155 1.523 . S
C4157 C4141 1.429 . S
C4157 C4153 1.429 . S
C4157 C4158 1.523 . S
C4158 C4142 1.368 . S
C4158 C4154 1.368 . S
C4158 C4157 1.523 . S
H4159 C4134 0.950 . S
H4160 C4136 0.950 . S
H4161 C4137 0.949 . S
H4162 C4139 0.950 . S
H4163 C4141 0.950 . S
C4164 C4165 1.349 . S
C4164 C4166 1.327 . S
C4164 H4189 0.950 . S
C4165 C4164 1.349 . S
C4165 C4181 1.349 . S
C4166 C4164 1.327 . S
C4166 C4185 1.429 . S
C4166 H4190 0.950 . S
C4167 C4184 1.574 . S
C4167 C4186 1.368 . S
C4167 H4191 0.949 . S
H4168 C4172 0.949 . S
C4169 C4170 1.349 . S
C4169 C4171 1.327 . S
C4169 H4192 0.950 . S
C4170 C4169 1.349 . S
C4170 C4182 1.349 . S
C4171 C4169 1.327 . S
C4171 C4187 1.429 . S
C4171 H4193 0.950 . S
C4172 H4168 0.949 . S
C4172 C4180 1.574 . S
C4172 C4188 1.368 . S
H4173 C4181 0.950 . S
H4174 C4179 0.950 . S
H4175 C4180 0.949 . S
H4176 C4182 0.950 . S
H4177 C4183 0.950 . S
H4178 C4184 0.949 . S
C4179 H4174 0.950 . S
C4179 C4181 1.327 . S
C4179 C4185 1.429 . S
C4180 C4172 1.574 . S
C4180 H4175 0.949 . S
C4180 C4186 1.368 . S
C4181 C4165 1.349 . S
C4181 H4173 0.950 . S
C4181 C4179 1.327 . S
C4182 C4170 1.349 . S
C4182 H4176 0.950 . S
C4182 C4183 1.327 . S
C4183 H4177 0.950 . S
C4183 C4182 1.327 . S
C4183 C4187 1.429 . S
C4184 C4167 1.574 . S
C4184 H4178 0.949 . S
C4184 C4188 1.368 . S
C4185 C4166 1.429 . S
C4185 C4179 1.429 . S
C4185 C4186 1.523 . S
C4186 C4167 1.368 . S
C4186 C4180 1.368 . S
C4186 C4185 1.523 . S
C4187 C4171 1.429 . S
C4187 C4183 1.429 . S
C4187 C4188 1.523 . S
C4188 C4172 1.368 . S
C4188 C4184 1.368 . S
C4188 C4187 1.523 . S
H4189 C4164 0.950 . S
H4190 C4166 0.950 . S
H4191 C4167 0.949 . S
H4192 C4169 0.950 . S
H4193 C4171 0.950 . S
C4194 C4195 1.349 . S
C4194 C4196 1.327 . S
C4194 H4219 0.950 . S
C4195 C4194 1.349 . S
C4195 C4211 1.349 . S
C4196 C4194 1.327 . S
C4196 C4215 1.429 . S
C4196 H4220 0.950 . S
C4197 C4214 1.574 . S
C4197 C4216 1.368 . S
C4197 H4221 0.949 . S
H4198 C4202 0.949 . S
C4199 C4200 1.349 . S
C4199 C4201 1.327 . S
C4199 H4222 0.950 . S
C4200 C4199 1.349 . S
C4200 C4212 1.349 . S
C4201 C4199 1.327 . S
C4201 C4217 1.429 . S
C4201 H4223 0.950 . S
C4202 H4198 0.949 . S
C4202 C4210 1.574 . S
C4202 C4218 1.368 . S
H4203 C4211 0.950 . S
H4204 C4209 0.950 . S
H4205 C4210 0.949 . S
H4206 C4212 0.950 . S
H4207 C4213 0.950 . S
H4208 C4214 0.949 . S
C4209 H4204 0.950 . S
C4209 C4211 1.327 . S
C4209 C4215 1.429 . S
C4210 C4202 1.574 . S
C4210 H4205 0.949 . S
C4210 C4216 1.368 . S
C4211 C4195 1.349 . S
C4211 H4203 0.950 . S
C4211 C4209 1.327 . S
C4212 C4200 1.349 . S
C4212 H4206 0.950 . S
C4212 C4213 1.327 . S
C4213 H4207 0.950 . S
C4213 C4212 1.327 . S
C4213 C4217 1.429 . S
C4214 C4197 1.574 . S
C4214 H4208 0.949 . S
C4214 C4218 1.368 . S
C4215 C4196 1.429 . S
C4215 C4209 1.429 . S
C4215 C4216 1.523 . S
C4216 C4197 1.368 . S
C4216 C4210 1.368 . S
C4216 C4215 1.523 . S
C4217 C4201 1.429 . S
C4217 C4213 1.429 . S
C4217 C4218 1.523 . S
C4218 C4202 1.368 . S
C4218 C4214 1.368 . S
C4218 C4217 1.523 . S
H4219 C4194 0.950 . S
H4220 C4196 0.950 . S
H4221 C4197 0.949 . S
H4222 C4199 0.950 . S
H4223 C4201 0.950 . S
C4224 C4225 1.349 . S
C4224 C4226 1.327 . S
C4224 H4249 0.950 . S
C4225 C4224 1.349 . S
C4225 C4241 1.349 . S
C4226 C4224 1.327 . S
C4226 C4245 1.429 . S
C4226 H4250 0.950 . S
C4227 C4244 1.574 . S
C4227 C4246 1.368 . S
C4227 H4251 0.949 . S
H4228 C4232 0.949 . S
C4229 C4230 1.349 . S
C4229 C4231 1.327 . S
C4229 H4252 0.950 . S
C4230 C4229 1.349 . S
C4230 C4242 1.349 . S
C4231 C4229 1.327 . S
C4231 C4247 1.429 . S
C4231 H4253 0.950 . S
C4232 H4228 0.949 . S
C4232 C4240 1.574 . S
C4232 C4248 1.368 . S
H4233 C4241 0.950 . S
H4234 C4239 0.950 . S
H4235 C4240 0.949 . S
H4236 C4242 0.950 . S
H4237 C4243 0.950 . S
H4238 C4244 0.949 . S
C4239 H4234 0.950 . S
C4239 C4241 1.327 . S
C4239 C4245 1.429 . S
C4240 C4232 1.574 . S
C4240 H4235 0.949 . S
C4240 C4246 1.368 . S
C4241 C4225 1.349 . S
C4241 H4233 0.950 . S
C4241 C4239 1.327 . S
C4242 C4230 1.349 . S
C4242 H4236 0.950 . S
C4242 C4243 1.327 . S
C4243 H4237 0.950 . S
C4243 C4242 1.327 . S
C4243 C4247 1.429 . S
C4244 C4227 1.574 . S
C4244 H4238 0.949 . S
C4244 C4248 1.368 . S
C4245 C4226 1.429 . S
C4245 C4239 1.429 . S
C4245 C4246 1.523 . S
C4246 C4227 1.368 . S
C4246 C4240 1.368 . S
C4246 C4245 1.523 . S
C4247 C4231 1.429 . S
C4247 C4243 1.429 . S
C4247 C4248 1.523 . S
C4248 C4232 1.368 . S
C4248 C4244 1.368 . S
C4248 C4247 1.523 . S
H4249 C4224 0.950 . S
H4250 C4226 0.950 . S
H4251 C4227 0.949 . S
H4252 C4229 0.950 . S
H4253 C4231 0.950 . S
C4254 C4255 1.349 . S
C4254 C4256 1.327 . S
C4254 H4279 0.950 . S
C4255 C4254 1.349 . S
C4255 C4271 1.349 . S
C4256 C4254 1.327 . S
C4256 C4275 1.429 . S
C4256 H4280 0.950 . S
C4257 C4274 1.574 . S
C4257 C4276 1.368 . S
C4257 H4281 0.949 . S
H4258 C4262 0.949 . S
C4259 C4260 1.349 . S
C4259 C4261 1.327 . S
C4259 H4282 0.950 . S
C4260 C4259 1.349 . S
C4260 C4272 1.349 . S
C4261 C4259 1.327 . S
C4261 C4277 1.429 . S
C4261 H4283 0.950 . S
C4262 H4258 0.949 . S
C4262 C4270 1.574 . S
C4262 C4278 1.368 . S
H4263 C4271 0.950 . S
H4264 C4269 0.950 . S
H4265 C4270 0.949 . S
H4266 C4272 0.950 . S
H4267 C4273 0.950 . S
H4268 C4274 0.949 . S
C4269 H4264 0.950 . S
C4269 C4271 1.327 . S
C4269 C4275 1.429 . S
C4270 C4262 1.574 . S
C4270 H4265 0.949 . S
C4270 C4276 1.368 . S
C4271 C4255 1.349 . S
C4271 H4263 0.950 . S
C4271 C4269 1.327 . S
C4272 C4260 1.349 . S
C4272 H4266 0.950 . S
C4272 C4273 1.327 . S
C4273 H4267 0.950 . S
C4273 C4272 1.327 . S
C4273 C4277 1.429 . S
C4274 C4257 1.574 . S
C4274 H4268 0.949 . S
C4274 C4278 1.368 . S
C4275 C4256 1.429 . S
C4275 C4269 1.429 . S
C4275 C4276 1.523 . S
C4276 C4257 1.368 . S
C4276 C4270 1.368 . S
C4276 C4275 1.523 . S
C4277 C4261 1.429 . S
C4277 C4273 1.429 . S
C4277 C4278 1.523 . S
C4278 C4262 1.368 . S
C4278 C4274 1.368 . S
C4278 C4277 1.523 . S
H4279 C4254 0.950 . S
H4280 C4256 0.950 . S
H4281 C4257 0.949 . S
H4282 C4259 0.950 . S
H4283 C4261 0.950 . S
C4284 C4285 1.349 . S
C4284 C4286 1.327 . S
C4284 H4309 0.950 . S
C4285 C4284 1.349 . S
C4285 C4301 1.349 . S
C4286 C4284 1.327 . S
C4286 C4305 1.429 . S
C4286 H4310 0.950 . S
C4287 C4304 1.574 . S
C4287 C4306 1.368 . S
C4287 H4311 0.949 . S
H4288 C4292 0.949 . S
C4289 C4290 1.349 . S
C4289 C4291 1.327 . S
C4289 H4312 0.950 . S
C4290 C4289 1.349 . S
C4290 C4302 1.349 . S
C4291 C4289 1.327 . S
C4291 C4307 1.429 . S
C4291 H4313 0.950 . S
C4292 H4288 0.949 . S
C4292 C4300 1.574 . S
C4292 C4308 1.368 . S
H4293 C4301 0.950 . S
H4294 C4299 0.950 . S
H4295 C4300 0.949 . S
H4296 C4302 0.950 . S
H4297 C4303 0.950 . S
H4298 C4304 0.949 . S
C4299 H4294 0.950 . S
C4299 C4301 1.327 . S
C4299 C4305 1.429 . S
C4300 C4292 1.574 . S
C4300 H4295 0.949 . S
C4300 C4306 1.368 . S
C4301 C4285 1.349 . S
C4301 H4293 0.950 . S
C4301 C4299 1.327 . S
C4302 C4290 1.349 . S
C4302 H4296 0.950 . S
C4302 C4303 1.327 . S
C4303 H4297 0.950 . S
C4303 C4302 1.327 . S
C4303 C4307 1.429 . S
C4304 C4287 1.574 . S
C4304 H4298 0.949 . S
C4304 C4308 1.368 . S
C4305 C4286 1.429 . S
C4305 C4299 1.429 . S
C4305 C4306 1.523 . S
C4306 C4287 1.368 . S
C4306 C4300 1.368 . S
C4306 C4305 1.523 . S
C4307 C4291 1.429 . S
C4307 C4303 1.429 . S
C4307 C4308 1.523 . S
C4308 C4292 1.368 . S
C4308 C4304 1.368 . S
C4308 C4307 1.523 . S
H4309 C4284 0.950 . S
H4310 C4286 0.950 . S
H4311 C4287 0.949 . S
H4312 C4289 0.950 . S
H4313 C4291 0.950 . S
C4314 C4315 1.349 . S
C4314 C4316 1.327 . S
C4314 H4339 0.950 . S
C4315 C4314 1.349 . S
C4315 C4331 1.349 . S
C4316 C4314 1.327 . S
C4316 C4335 1.429 . S
C4316 H4340 0.950 . S
C4317 C4334 1.574 . S
C4317 C4336 1.368 . S
C4317 H4341 0.949 . S
H4318 C4322 0.949 . S
C4319 C4320 1.349 . S
C4319 C4321 1.327 . S
C4319 H4342 0.950 . S
C4320 C4319 1.349 . S
C4320 C4332 1.349 . S
C4321 C4319 1.327 . S
C4321 C4337 1.429 . S
C4321 H4343 0.950 . S
C4322 H4318 0.949 . S
C4322 C4330 1.574 . S
C4322 C4338 1.368 . S
H4323 C4331 0.950 . S
H4324 C4329 0.950 . S
H4325 C4330 0.949 . S
H4326 C4332 0.950 . S
H4327 C4333 0.950 . S
H4328 C4334 0.949 . S
C4329 H4324 0.950 . S
C4329 C4331 1.327 . S
C4329 C4335 1.429 . S
C4330 C4322 1.574 . S
C4330 H4325 0.949 . S
C4330 C4336 1.368 . S
C4331 C4315 1.349 . S
C4331 H4323 0.950 . S
C4331 C4329 1.327 . S
C4332 C4320 1.349 . S
C4332 H4326 0.950 . S
C4332 C4333 1.327 . S
C4333 H4327 0.950 . S
C4333 C4332 1.327 . S
C4333 C4337 1.429 . S
C4334 C4317 1.574 . S
C4334 H4328 0.949 . S
C4334 C4338 1.368 . S
C4335 C4316 1.429 . S
C4335 C4329 1.429 . S
C4335 C4336 1.523 . S
C4336 C4317 1.368 . S
C4336 C4330 1.368 . S
C4336 C4335 1.523 . S
C4337 C4321 1.429 . S
C4337 C4333 1.429 . S
C4337 C4338 1.523 . S
C4338 C4322 1.368 . S
C4338 C4334 1.368 . S
C4338 C4337 1.523 . S
H4339 C4314 0.950 . S
H4340 C4316 0.950 . S
H4341 C4317 0.949 . S
H4342 C4319 0.950 . S
H4343 C4321 0.950 . S
C4344 C4345 1.349 . S
C4344 C4346 1.327 . S
C4344 H4369 0.950 . S
C4345 C4344 1.349 . S
C4345 C4361 1.349 . S
C4346 C4344 1.327 . S
C4346 C4365 1.429 . S
C4346 H4370 0.950 . S
C4347 C4364 1.574 . S
C4347 C4366 1.368 . S
C4347 H4371 0.949 . S
H4348 C4352 0.949 . S
C4349 C4350 1.349 . S
C4349 C4351 1.327 . S
C4349 H4372 0.950 . S
C4350 C4349 1.349 . S
C4350 C4362 1.349 . S
C4351 C4349 1.327 . S
C4351 C4367 1.429 . S
C4351 H4373 0.950 . S
C4352 H4348 0.949 . S
C4352 C4360 1.574 . S
C4352 C4368 1.368 . S
H4353 C4361 0.950 . S
H4354 C4359 0.950 . S
H4355 C4360 0.949 . S
H4356 C4362 0.950 . S
H4357 C4363 0.950 . S
H4358 C4364 0.949 . S
C4359 H4354 0.950 . S
C4359 C4361 1.327 . S
C4359 C4365 1.429 . S
C4360 C4352 1.574 . S
C4360 H4355 0.949 . S
C4360 C4366 1.368 . S
C4361 C4345 1.349 . S
C4361 H4353 0.950 . S
C4361 C4359 1.327 . S
C4362 C4350 1.349 . S
C4362 H4356 0.950 . S
C4362 C4363 1.327 . S
C4363 H4357 0.950 . S
C4363 C4362 1.327 . S
C4363 C4367 1.429 . S
C4364 C4347 1.574 . S
C4364 H4358 0.949 . S
C4364 C4368 1.368 . S
C4365 C4346 1.429 . S
C4365 C4359 1.429 . S
C4365 C4366 1.523 . S
C4366 C4347 1.368 . S
C4366 C4360 1.368 . S
C4366 C4365 1.523 . S
C4367 C4351 1.429 . S
C4367 C4363 1.429 . S
C4367 C4368 1.523 . S
C4368 C4352 1.368 . S
C4368 C4364 1.368 . S
C4368 C4367 1.523 . S
H4369 C4344 0.950 . S
H4370 C4346 0.950 . S
H4371 C4347 0.949 . S
H4372 C4349 0.950 . S
H4373 C4351 0.950 . S
C4374 C4375 1.349 . S
C4374 C4376 1.327 . S
C4374 H4399 0.950 . S
C4375 C4374 1.349 . S
C4375 C4391 1.349 . S
C4376 C4374 1.327 . S
C4376 C4395 1.429 . S
C4376 H4400 0.950 . S
C4377 C4394 1.574 . S
C4377 C4396 1.368 . S
C4377 H4401 0.949 . S
H4378 C4382 0.949 . S
C4379 C4380 1.349 . S
C4379 C4381 1.327 . S
C4379 H4402 0.950 . S
C4380 C4379 1.349 . S
C4380 C4392 1.349 . S
C4381 C4379 1.327 . S
C4381 C4397 1.429 . S
C4381 H4403 0.950 . S
C4382 H4378 0.949 . S
C4382 C4390 1.574 . S
C4382 C4398 1.368 . S
H4383 C4391 0.950 . S
H4384 C4389 0.950 . S
H4385 C4390 0.949 . S
H4386 C4392 0.950 . S
H4387 C4393 0.950 . S
H4388 C4394 0.949 . S
C4389 H4384 0.950 . S
C4389 C4391 1.327 . S
C4389 C4395 1.429 . S
C4390 C4382 1.574 . S
C4390 H4385 0.949 . S
C4390 C4396 1.368 . S
C4391 C4375 1.349 . S
C4391 H4383 0.950 . S
C4391 C4389 1.327 . S
C4392 C4380 1.349 . S
C4392 H4386 0.950 . S
C4392 C4393 1.327 . S
C4393 H4387 0.950 . S
C4393 C4392 1.327 . S
C4393 C4397 1.429 . S
C4394 C4377 1.574 . S
C4394 H4388 0.949 . S
C4394 C4398 1.368 . S
C4395 C4376 1.429 . S
C4395 C4389 1.429 . S
C4395 C4396 1.523 . S
C4396 C4377 1.368 . S
C4396 C4390 1.368 . S
C4396 C4395 1.523 . S
C4397 C4381 1.429 . S
C4397 C4393 1.429 . S
C4397 C4398 1.523 . S
C4398 C4382 1.368 . S
C4398 C4394 1.368 . S
C4398 C4397 1.523 . S
H4399 C4374 0.950 . S
H4400 C4376 0.950 . S
H4401 C4377 0.949 . S
H4402 C4379 0.950 . S
H4403 C4381 0.950 . S
C4404 C4405 1.349 . S
C4404 C4406 1.327 . S
C4404 H4429 0.950 . S
C4405 C4404 1.349 . S
C4405 C4421 1.349 . S
C4406 C4404 1.327 . S
C4406 C4425 1.429 . S
C4406 H4430 0.950 . S
C4407 C4424 1.574 . S
C4407 C4426 1.368 . S
C4407 H4431 0.949 . S
H4408 C4412 0.949 . S
C4409 C4410 1.349 . S
C4409 C4411 1.327 . S
C4409 H4432 0.950 . S
C4410 C4409 1.349 . S
C4410 C4422 1.349 . S
C4411 C4409 1.327 . S
C4411 C4427 1.429 . S
C4411 H4433 0.950 . S
C4412 H4408 0.949 . S
C4412 C4420 1.574 . S
C4412 C4428 1.368 . S
H4413 C4421 0.950 . S
H4414 C4419 0.950 . S
H4415 C4420 0.949 . S
H4416 C4422 0.950 . S
H4417 C4423 0.950 . S
H4418 C4424 0.949 . S
C4419 H4414 0.950 . S
C4419 C4421 1.327 . S
C4419 C4425 1.429 . S
C4420 C4412 1.574 . S
C4420 H4415 0.949 . S
C4420 C4426 1.368 . S
C4421 C4405 1.349 . S
C4421 H4413 0.950 . S
C4421 C4419 1.327 . S
C4422 C4410 1.349 . S
C4422 H4416 0.950 . S
C4422 C4423 1.327 . S
C4423 H4417 0.950 . S
C4423 C4422 1.327 . S
C4423 C4427 1.429 . S
C4424 C4407 1.574 . S
C4424 H4418 0.949 . S
C4424 C4428 1.368 . S
C4425 C4406 1.429 . S
C4425 C4419 1.429 . S
C4425 C4426 1.523 . S
C4426 C4407 1.368 . S
C4426 C4420 1.368 . S
C4426 C4425 1.523 . S
C4427 C4411 1.429 . S
C4427 C4423 1.429 . S
C4427 C4428 1.523 . S
C4428 C4412 1.368 . S
C4428 C4424 1.368 . S
C4428 C4427 1.523 . S
H4429 C4404 0.950 . S
H4430 C4406 0.950 . S
H4431 C4407 0.949 . S
H4432 C4409 0.950 . S
H4433 C4411 0.950 . S
C4434 C4435 1.349 . S
C4434 C4436 1.327 . S
C4434 H4459 0.950 . S
C4435 C4434 1.349 . S
C4435 C4451 1.349 . S
C4436 C4434 1.327 . S
C4436 C4455 1.429 . S
C4436 H4460 0.950 . S
C4437 C4454 1.574 . S
C4437 C4456 1.368 . S
C4437 H4461 0.949 . S
H4438 C4442 0.949 . S
C4439 C4440 1.349 . S
C4439 C4441 1.327 . S
C4439 H4462 0.950 . S
C4440 C4439 1.349 . S
C4440 C4452 1.349 . S
C4441 C4439 1.327 . S
C4441 C4457 1.429 . S
C4441 H4463 0.950 . S
C4442 H4438 0.949 . S
C4442 C4450 1.574 . S
C4442 C4458 1.368 . S
H4443 C4451 0.950 . S
H4444 C4449 0.950 . S
H4445 C4450 0.949 . S
H4446 C4452 0.950 . S
H4447 C4453 0.950 . S
H4448 C4454 0.949 . S
C4449 H4444 0.950 . S
C4449 C4451 1.327 . S
C4449 C4455 1.429 . S
C4450 C4442 1.574 . S
C4450 H4445 0.949 . S
C4450 C4456 1.368 . S
C4451 C4435 1.349 . S
C4451 H4443 0.950 . S
C4451 C4449 1.327 . S
C4452 C4440 1.349 . S
C4452 H4446 0.950 . S
C4452 C4453 1.327 . S
C4453 H4447 0.950 . S
C4453 C4452 1.327 . S
C4453 C4457 1.429 . S
C4454 C4437 1.574 . S
C4454 H4448 0.949 . S
C4454 C4458 1.368 . S
C4455 C4436 1.429 . S
C4455 C4449 1.429 . S
C4455 C4456 1.523 . S
C4456 C4437 1.368 . S
C4456 C4450 1.368 . S
C4456 C4455 1.523 . S
C4457 C4441 1.429 . S
C4457 C4453 1.429 . S
C4457 C4458 1.523 . S
C4458 C4442 1.368 . S
C4458 C4454 1.368 . S
C4458 C4457 1.523 . S
H4459 C4434 0.950 . S
H4460 C4436 0.950 . S
H4461 C4437 0.949 . S
H4462 C4439 0.950 . S
H4463 C4441 0.950 . S
C4464 C4465 1.349 . S
C4464 C4466 1.327 . S
C4464 H4489 0.950 . S
C4465 C4464 1.349 . S
C4465 C4481 1.349 . S
C4466 C4464 1.327 . S
C4466 C4485 1.429 . S
C4466 H4490 0.950 . S
C4467 C4484 1.574 . S
C4467 C4486 1.368 . S
C4467 H4491 0.949 . S
H4468 C4472 0.949 . S
C4469 C4470 1.349 . S
C4469 C4471 1.327 . S
C4469 H4492 0.950 . S
C4470 C4469 1.349 . S
C4470 C4482 1.349 . S
C4471 C4469 1.327 . S
C4471 C4487 1.429 . S
C4471 H4493 0.950 . S
C4472 H4468 0.949 . S
C4472 C4480 1.574 . S
C4472 C4488 1.368 . S
H4473 C4481 0.950 . S
H4474 C4479 0.950 . S
H4475 C4480 0.949 . S
H4476 C4482 0.950 . S
H4477 C4483 0.950 . S
H4478 C4484 0.949 . S
C4479 H4474 0.950 . S
C4479 C4481 1.327 . S
C4479 C4485 1.429 . S
C4480 C4472 1.574 . S
C4480 H4475 0.949 . S
C4480 C4486 1.368 . S
C4481 C4465 1.349 . S
C4481 H4473 0.950 . S
C4481 C4479 1.327 . S
C4482 C4470 1.349 . S
C4482 H4476 0.950 . S
C4482 C4483 1.327 . S
C4483 H4477 0.950 . S
C4483 C4482 1.327 . S
C4483 C4487 1.429 . S
C4484 C4467 1.574 . S
C4484 H4478 0.949 . S
C4484 C4488 1.368 . S
C4485 C4466 1.429 . S
C4485 C4479 1.429 . S
C4485 C4486 1.523 . S
C4486 C4467 1.368 . S
C4486 C4480 1.368 . S
C4486 C4485 1.523 . S
C4487 C4471 1.429 . S
C4487 C4483 1.429 . S
C4487 C4488 1.523 . S
C4488 C4472 1.368 . S
C4488 C4484 1.368 . S
C4488 C4487 1.523 . S
H4489 C4464 0.950 . S
H4490 C4466 0.950 . S
H4491 C4467 0.949 . S
H4492 C4469 0.950 . S
H4493 C4471 0.950 . S
C4494 C4495 1.349 . S
C4494 C4496 1.327 . S
C4494 H4519 0.950 . S
C4495 C4494 1.349 . S
C4495 C4511 1.349 . S
C4496 C4494 1.327 . S
C4496 C4515 1.429 . S
C4496 H4520 0.950 . S
C4497 C4514 1.574 . S
C4497 C4516 1.368 . S
C4497 H4521 0.949 . S
H4498 C4502 0.949 . S
C4499 C4500 1.349 . S
C4499 C4501 1.327 . S
C4499 H4522 0.950 . S
C4500 C4499 1.349 . S
C4500 C4512 1.349 . S
C4501 C4499 1.327 . S
C4501 C4517 1.429 . S
C4501 H4523 0.950 . S
C4502 H4498 0.949 . S
C4502 C4510 1.574 . S
C4502 C4518 1.368 . S
H4503 C4511 0.950 . S
H4504 C4509 0.950 . S
H4505 C4510 0.949 . S
H4506 C4512 0.950 . S
H4507 C4513 0.950 . S
H4508 C4514 0.949 . S
C4509 H4504 0.950 . S
C4509 C4511 1.327 . S
C4509 C4515 1.429 . S
C4510 C4502 1.574 . S
C4510 H4505 0.949 . S
C4510 C4516 1.368 . S
C4511 C4495 1.349 . S
C4511 H4503 0.950 . S
C4511 C4509 1.327 . S
C4512 C4500 1.349 . S
C4512 H4506 0.950 . S
C4512 C4513 1.327 . S
C4513 H4507 0.950 . S
C4513 C4512 1.327 . S
C4513 C4517 1.429 . S
C4514 C4497 1.574 . S
C4514 H4508 0.949 . S
C4514 C4518 1.368 . S
C4515 C4496 1.429 . S
C4515 C4509 1.429 . S
C4515 C4516 1.523 . S
C4516 C4497 1.368 . S
C4516 C4510 1.368 . S
C4516 C4515 1.523 . S
C4517 C4501 1.429 . S
C4517 C4513 1.429 . S
C4517 C4518 1.523 . S
C4518 C4502 1.368 . S
C4518 C4514 1.368 . S
C4518 C4517 1.523 . S
H4519 C4494 0.950 . S
H4520 C4496 0.950 . S
H4521 C4497 0.949 . S
H4522 C4499 0.950 . S
H4523 C4501 0.950 . S
C4524 C4525 1.349 . S
C4524 C4526 1.327 . S
C4524 H4549 0.950 . S
C4525 C4524 1.349 . S
C4525 C4541 1.349 . S
C4526 C4524 1.327 . S
C4526 C4545 1.429 . S
C4526 H4550 0.950 . S
C4527 C4544 1.574 . S
C4527 C4546 1.368 . S
C4527 H4551 0.949 . S
H4528 C4532 0.949 . S
C4529 C4530 1.349 . S
C4529 C4531 1.327 . S
C4529 H4552 0.950 . S
C4530 C4529 1.349 . S
C4530 C4542 1.349 . S
C4531 C4529 1.327 . S
C4531 C4547 1.429 . S
C4531 H4553 0.950 . S
C4532 H4528 0.949 . S
C4532 C4540 1.574 . S
C4532 C4548 1.368 . S
H4533 C4541 0.950 . S
H4534 C4539 0.950 . S
H4535 C4540 0.949 . S
H4536 C4542 0.950 . S
H4537 C4543 0.950 . S
H4538 C4544 0.949 . S
C4539 H4534 0.950 . S
C4539 C4541 1.327 . S
C4539 C4545 1.429 . S
C4540 C4532 1.574 . S
C4540 H4535 0.949 . S
C4540 C4546 1.368 . S
C4541 C4525 1.349 . S
C4541 H4533 0.950 . S
C4541 C4539 1.327 . S
C4542 C4530 1.349 . S
C4542 H4536 0.950 . S
C4542 C4543 1.327 . S
C4543 H4537 0.950 . S
C4543 C4542 1.327 . S
C4543 C4547 1.429 . S
C4544 C4527 1.574 . S
C4544 H4538 0.949 . S
C4544 C4548 1.368 . S
C4545 C4526 1.429 . S
C4545 C4539 1.429 . S
C4545 C4546 1.523 . S
C4546 C4527 1.368 . S
C4546 C4540 1.368 . S
C4546 C4545 1.523 . S
C4547 C4531 1.429 . S
C4547 C4543 1.429 . S
C4547 C4548 1.523 . S
C4548 C4532 1.368 . S
C4548 C4544 1.368 . S
C4548 C4547 1.523 . S
H4549 C4524 0.950 . S
H4550 C4526 0.950 . S
H4551 C4527 0.949 . S
H4552 C4529 0.950 . S
H4553 C4531 0.950 . S
C4554 C4555 1.349 . S
C4554 C4556 1.327 . S
C4554 H4579 0.950 . S
C4555 C4554 1.349 . S
C4555 C4571 1.349 . S
C4556 C4554 1.327 . S
C4556 C4575 1.429 . S
C4556 H4580 0.950 . S
C4557 C4574 1.574 . S
C4557 C4576 1.368 . S
C4557 H4581 0.949 . S
H4558 C4562 0.949 . S
C4559 C4560 1.349 . S
C4559 C4561 1.327 . S
C4559 H4582 0.950 . S
C4560 C4559 1.349 . S
C4560 C4572 1.349 . S
C4561 C4559 1.327 . S
C4561 C4577 1.429 . S
C4561 H4583 0.950 . S
C4562 H4558 0.949 . S
C4562 C4570 1.574 . S
C4562 C4578 1.368 . S
H4563 C4571 0.950 . S
H4564 C4569 0.950 . S
H4565 C4570 0.949 . S
H4566 C4572 0.950 . S
H4567 C4573 0.950 . S
H4568 C4574 0.949 . S
C4569 H4564 0.950 . S
C4569 C4571 1.327 . S
C4569 C4575 1.429 . S
C4570 C4562 1.574 . S
C4570 H4565 0.949 . S
C4570 C4576 1.368 . S
C4571 C4555 1.349 . S
C4571 H4563 0.950 . S
C4571 C4569 1.327 . S
C4572 C4560 1.349 . S
C4572 H4566 0.950 . S
C4572 C4573 1.327 . S
C4573 H4567 0.950 . S
C4573 C4572 1.327 . S
C4573 C4577 1.429 . S
C4574 C4557 1.574 . S
C4574 H4568 0.949 . S
C4574 C4578 1.368 . S
C4575 C4556 1.429 . S
C4575 C4569 1.429 . S
C4575 C4576 1.523 . S
C4576 C4557 1.368 . S
C4576 C4570 1.368 . S
C4576 C4575 1.523 . S
C4577 C4561 1.429 . S
C4577 C4573 1.429 . S
C4577 C4578 1.523 . S
C4578 C4562 1.368 . S
C4578 C4574 1.368 . S
C4578 C4577 1.523 . S
H4579 C4554 0.950 . S
H4580 C4556 0.950 . S
H4581 C4557 0.949 . S
H4582 C4559 0.950 . S
H4583 C4561 0.950 . S
C4584 C4585 1.349 . S
C4584 C4586 1.327 . S
C4584 H4609 0.950 . S
C4585 C4584 1.349 . S
C4585 C4601 1.349 . S
C4586 C4584 1.327 . S
C4586 C4605 1.429 . S
C4586 H4610 0.950 . S
C4587 C4604 1.574 . S
C4587 C4606 1.368 . S
C4587 H4611 0.949 . S
H4588 C4592 0.949 . S
C4589 C4590 1.349 . S
C4589 C4591 1.327 . S
C4589 H4612 0.950 . S
C4590 C4589 1.349 . S
C4590 C4602 1.349 . S
C4591 C4589 1.327 . S
C4591 C4607 1.429 . S
C4591 H4613 0.950 . S
C4592 H4588 0.949 . S
C4592 C4600 1.574 . S
C4592 C4608 1.368 . S
H4593 C4601 0.950 . S
H4594 C4599 0.950 . S
H4595 C4600 0.949 . S
H4596 C4602 0.950 . S
H4597 C4603 0.950 . S
H4598 C4604 0.949 . S
C4599 H4594 0.950 . S
C4599 C4601 1.327 . S
C4599 C4605 1.429 . S
C4600 C4592 1.574 . S
C4600 H4595 0.949 . S
C4600 C4606 1.368 . S
C4601 C4585 1.349 . S
C4601 H4593 0.950 . S
C4601 C4599 1.327 . S
C4602 C4590 1.349 . S
C4602 H4596 0.950 . S
C4602 C4603 1.327 . S
C4603 H4597 0.950 . S
C4603 C4602 1.327 . S
C4603 C4607 1.429 . S
C4604 C4587 1.574 . S
C4604 H4598 0.949 . S
C4604 C4608 1.368 . S
C4605 C4586 1.429 . S
C4605 C4599 1.429 . S
C4605 C4606 1.523 . S
C4606 C4587 1.368 . S
C4606 C4600 1.368 . S
C4606 C4605 1.523 . S
C4607 C4591 1.429 . S
C4607 C4603 1.429 . S
C4607 C4608 1.523 . S
C4608 C4592 1.368 . S
C4608 C4604 1.368 . S
C4608 C4607 1.523 . S
H4609 C4584 0.950 . S
H4610 C4586 0.950 . S
H4611 C4587 0.949 . S
H4612 C4589 0.950 . S
H4613 C4591 0.950 . S
C4614 C4615 1.349 . S
C4614 C4616 1.327 . S
C4614 H4639 0.950 . S
C4615 C4614 1.349 . S
C4615 C4631 1.349 . S
C4616 C4614 1.327 . S
C4616 C4635 1.429 . S
C4616 H4640 0.950 . S
C4617 C4634 1.574 . S
C4617 C4636 1.368 . S
C4617 H4641 0.949 . S
H4618 C4622 0.949 . S
C4619 C4620 1.349 . S
C4619 C4621 1.327 . S
C4619 H4642 0.950 . S
C4620 C4619 1.349 . S
C4620 C4632 1.349 . S
C4621 C4619 1.327 . S
C4621 C4637 1.429 . S
C4621 H4643 0.950 . S
C4622 H4618 0.949 . S
C4622 C4630 1.574 . S
C4622 C4638 1.368 . S
H4623 C4631 0.950 . S
H4624 C4629 0.950 . S
H4625 C4630 0.949 . S
H4626 C4632 0.950 . S
H4627 C4633 0.950 . S
H4628 C4634 0.949 . S
C4629 H4624 0.950 . S
C4629 C4631 1.327 . S
C4629 C4635 1.429 . S
C4630 C4622 1.574 . S
C4630 H4625 0.949 . S
C4630 C4636 1.368 . S
C4631 C4615 1.349 . S
C4631 H4623 0.950 . S
C4631 C4629 1.327 . S
C4632 C4620 1.349 . S
C4632 H4626 0.950 . S
C4632 C4633 1.327 . S
C4633 H4627 0.950 . S
C4633 C4632 1.327 . S
C4633 C4637 1.429 . S
C4634 C4617 1.574 . S
C4634 H4628 0.949 . S
C4634 C4638 1.368 . S
C4635 C4616 1.429 . S
C4635 C4629 1.429 . S
C4635 C4636 1.523 . S
C4636 C4617 1.368 . S
C4636 C4630 1.368 . S
C4636 C4635 1.523 . S
C4637 C4621 1.429 . S
C4637 C4633 1.429 . S
C4637 C4638 1.523 . S
C4638 C4622 1.368 . S
C4638 C4634 1.368 . S
C4638 C4637 1.523 . S
H4639 C4614 0.950 . S
H4640 C4616 0.950 . S
H4641 C4617 0.949 . S
H4642 C4619 0.950 . S
H4643 C4621 0.950 . S
C4644 C4645 1.349 . S
C4644 C4646 1.327 . S
C4644 H4669 0.950 . S
C4645 C4644 1.349 . S
C4645 C4661 1.349 . S
C4646 C4644 1.327 . S
C4646 C4665 1.429 . S
C4646 H4670 0.950 . S
C4647 C4664 1.574 . S
C4647 C4666 1.368 . S
C4647 H4671 0.949 . S
H4648 C4652 0.949 . S
C4649 C4650 1.349 . S
C4649 C4651 1.327 . S
C4649 H4672 0.950 . S
C4650 C4649 1.349 . S
C4650 C4662 1.349 . S
C4651 C4649 1.327 . S
C4651 C4667 1.429 . S
C4651 H4673 0.950 . S
C4652 H4648 0.949 . S
C4652 C4660 1.574 . S
C4652 C4668 1.368 . S
H4653 C4661 0.950 . S
H4654 C4659 0.950 . S
H4655 C4660 0.949 . S
H4656 C4662 0.950 . S
H4657 C4663 0.950 . S
H4658 C4664 0.949 . S
C4659 H4654 0.950 . S
C4659 C4661 1.327 . S
C4659 C4665 1.429 . S
C4660 C4652 1.574 . S
C4660 H4655 0.949 . S
C4660 C4666 1.368 . S
C4661 C4645 1.349 . S
C4661 H4653 0.950 . S
C4661 C4659 1.327 . S
C4662 C4650 1.349 . S
C4662 H4656 0.950 . S
C4662 C4663 1.327 . S
C4663 H4657 0.950 . S
C4663 C4662 1.327 . S
C4663 C4667 1.429 . S
C4664 C4647 1.574 . S
C4664 H4658 0.949 . S
C4664 C4668 1.368 . S
C4665 C4646 1.429 . S
C4665 C4659 1.429 . S
C4665 C4666 1.523 . S
C4666 C4647 1.368 . S
C4666 C4660 1.368 . S
C4666 C4665 1.523 . S
C4667 C4651 1.429 . S
C4667 C4663 1.429 . S
C4667 C4668 1.523 . S
C4668 C4652 1.368 . S
C4668 C4664 1.368 . S
C4668 C4667 1.523 . S
H4669 C4644 0.950 . S
H4670 C4646 0.950 . S
H4671 C4647 0.949 . S
H4672 C4649 0.950 . S
H4673 C4651 0.950 . S
C4674 C4675 1.349 . S
C4674 C4676 1.327 . S
C4674 H4699 0.950 . S
C4675 C4674 1.349 . S
C4675 C4691 1.349 . S
C4676 C4674 1.327 . S
C4676 C4695 1.429 . S
C4676 H4700 0.950 . S
C4677 C4694 1.574 . S
C4677 C4696 1.368 . S
C4677 H4701 0.949 . S
H4678 C4682 0.949 . S
C4679 C4680 1.349 . S
C4679 C4681 1.327 . S
C4679 H4702 0.950 . S
C4680 C4679 1.349 . S
C4680 C4692 1.349 . S
C4681 C4679 1.327 . S
C4681 C4697 1.429 . S
C4681 H4703 0.950 . S
C4682 H4678 0.949 . S
C4682 C4690 1.574 . S
C4682 C4698 1.368 . S
H4683 C4691 0.950 . S
H4684 C4689 0.950 . S
H4685 C4690 0.949 . S
H4686 C4692 0.950 . S
H4687 C4693 0.950 . S
H4688 C4694 0.949 . S
C4689 H4684 0.950 . S
C4689 C4691 1.327 . S
C4689 C4695 1.429 . S
C4690 C4682 1.574 . S
C4690 H4685 0.949 . S
C4690 C4696 1.368 . S
C4691 C4675 1.349 . S
C4691 H4683 0.950 . S
C4691 C4689 1.327 . S
C4692 C4680 1.349 . S
C4692 H4686 0.950 . S
C4692 C4693 1.327 . S
C4693 H4687 0.950 . S
C4693 C4692 1.327 . S
C4693 C4697 1.429 . S
C4694 C4677 1.574 . S
C4694 H4688 0.949 . S
C4694 C4698 1.368 . S
C4695 C4676 1.429 . S
C4695 C4689 1.429 . S
C4695 C4696 1.523 . S
C4696 C4677 1.368 . S
C4696 C4690 1.368 . S
C4696 C4695 1.523 . S
C4697 C4681 1.429 . S
C4697 C4693 1.429 . S
C4697 C4698 1.523 . S
C4698 C4682 1.368 . S
C4698 C4694 1.368 . S
C4698 C4697 1.523 . S
H4699 C4674 0.950 . S
H4700 C4676 0.950 . S
H4701 C4677 0.949 . S
H4702 C4679 0.950 . S
H4703 C4681 0.950 . S
C4704 C4705 1.349 . S
C4704 C4706 1.327 . S
C4704 H4729 0.950 . S
C4705 C4704 1.349 . S
C4705 C4721 1.349 . S
C4706 C4704 1.327 . S
C4706 C4725 1.429 . S
C4706 H4730 0.950 . S
C4707 C4724 1.574 . S
C4707 C4726 1.368 . S
C4707 H4731 0.949 . S
H4708 C4712 0.949 . S
C4709 C4710 1.349 . S
C4709 C4711 1.327 . S
C4709 H4732 0.950 . S
C4710 C4709 1.349 . S
C4710 C4722 1.349 . S
C4711 C4709 1.327 . S
C4711 C4727 1.429 . S
C4711 H4733 0.950 . S
C4712 H4708 0.949 . S
C4712 C4720 1.574 . S
C4712 C4728 1.368 . S
H4713 C4721 0.950 . S
H4714 C4719 0.950 . S
H4715 C4720 0.949 . S
H4716 C4722 0.950 . S
H4717 C4723 0.950 . S
H4718 C4724 0.949 . S
C4719 H4714 0.950 . S
C4719 C4721 1.327 . S
C4719 C4725 1.429 . S
C4720 C4712 1.574 . S
C4720 H4715 0.949 . S
C4720 C4726 1.368 . S
C4721 C4705 1.349 . S
C4721 H4713 0.950 . S
C4721 C4719 1.327 . S
C4722 C4710 1.349 . S
C4722 H4716 0.950 . S
C4722 C4723 1.327 . S
C4723 H4717 0.950 . S
C4723 C4722 1.327 . S
C4723 C4727 1.429 . S
C4724 C4707 1.574 . S
C4724 H4718 0.949 . S
C4724 C4728 1.368 . S
C4725 C4706 1.429 . S
C4725 C4719 1.429 . S
C4725 C4726 1.523 . S
C4726 C4707 1.368 . S
C4726 C4720 1.368 . S
C4726 C4725 1.523 . S
C4727 C4711 1.429 . S
C4727 C4723 1.429 . S
C4727 C4728 1.523 . S
C4728 C4712 1.368 . S
C4728 C4724 1.368 . S
C4728 C4727 1.523 . S
H4729 C4704 0.950 . S
H4730 C4706 0.950 . S
H4731 C4707 0.949 . S
H4732 C4709 0.950 . S
H4733 C4711 0.950 . S
C4734 C4735 1.349 . S
C4734 C4736 1.327 . S
C4734 H4759 0.950 . S
C4735 C4734 1.349 . S
C4735 C4751 1.349 . S
C4736 C4734 1.327 . S
C4736 C4755 1.429 . S
C4736 H4760 0.950 . S
C4737 C4754 1.574 . S
C4737 C4756 1.368 . S
C4737 H4761 0.949 . S
H4738 C4742 0.949 . S
C4739 C4740 1.349 . S
C4739 C4741 1.327 . S
C4739 H4762 0.950 . S
C4740 C4739 1.349 . S
C4740 C4752 1.349 . S
C4741 C4739 1.327 . S
C4741 C4757 1.429 . S
C4741 H4763 0.950 . S
C4742 H4738 0.949 . S
C4742 C4750 1.574 . S
C4742 C4758 1.368 . S
H4743 C4751 0.950 . S
H4744 C4749 0.950 . S
H4745 C4750 0.949 . S
H4746 C4752 0.950 . S
H4747 C4753 0.950 . S
H4748 C4754 0.949 . S
C4749 H4744 0.950 . S
C4749 C4751 1.327 . S
C4749 C4755 1.429 . S
C4750 C4742 1.574 . S
C4750 H4745 0.949 . S
C4750 C4756 1.368 . S
C4751 C4735 1.349 . S
C4751 H4743 0.950 . S
C4751 C4749 1.327 . S
C4752 C4740 1.349 . S
C4752 H4746 0.950 . S
C4752 C4753 1.327 . S
C4753 H4747 0.950 . S
C4753 C4752 1.327 . S
C4753 C4757 1.429 . S
C4754 C4737 1.574 . S
C4754 H4748 0.949 . S
C4754 C4758 1.368 . S
C4755 C4736 1.429 . S
C4755 C4749 1.429 . S
C4755 C4756 1.523 . S
C4756 C4737 1.368 . S
C4756 C4750 1.368 . S
C4756 C4755 1.523 . S
C4757 C4741 1.429 . S
C4757 C4753 1.429 . S
C4757 C4758 1.523 . S
C4758 C4742 1.368 . S
C4758 C4754 1.368 . S
C4758 C4757 1.523 . S
H4759 C4734 0.950 . S
H4760 C4736 0.950 . S
H4761 C4737 0.949 . S
H4762 C4739 0.950 . S
H4763 C4741 0.950 . S
C4764 C4765 1.349 . S
C4764 C4766 1.327 . S
C4764 H4789 0.950 . S
C4765 C4764 1.349 . S
C4765 C4781 1.349 . S
C4766 C4764 1.327 . S
C4766 C4785 1.429 . S
C4766 H4790 0.950 . S
C4767 C4784 1.574 . S
C4767 C4786 1.368 . S
C4767 H4791 0.949 . S
H4768 C4772 0.949 . S
C4769 C4770 1.349 . S
C4769 C4771 1.327 . S
C4769 H4792 0.950 . S
C4770 C4769 1.349 . S
C4770 C4782 1.349 . S
C4771 C4769 1.327 . S
C4771 C4787 1.429 . S
C4771 H4793 0.950 . S
C4772 H4768 0.949 . S
C4772 C4780 1.574 . S
C4772 C4788 1.368 . S
H4773 C4781 0.950 . S
H4774 C4779 0.950 . S
H4775 C4780 0.949 . S
H4776 C4782 0.950 . S
H4777 C4783 0.950 . S
H4778 C4784 0.949 . S
C4779 H4774 0.950 . S
C4779 C4781 1.327 . S
C4779 C4785 1.429 . S
C4780 C4772 1.574 . S
C4780 H4775 0.949 . S
C4780 C4786 1.368 . S
C4781 C4765 1.349 . S
C4781 H4773 0.950 . S
C4781 C4779 1.327 . S
C4782 C4770 1.349 . S
C4782 H4776 0.950 . S
C4782 C4783 1.327 . S
C4783 H4777 0.950 . S
C4783 C4782 1.327 . S
C4783 C4787 1.429 . S
C4784 C4767 1.574 . S
C4784 H4778 0.949 . S
C4784 C4788 1.368 . S
C4785 C4766 1.429 . S
C4785 C4779 1.429 . S
C4785 C4786 1.523 . S
C4786 C4767 1.368 . S
C4786 C4780 1.368 . S
C4786 C4785 1.523 . S
C4787 C4771 1.429 . S
C4787 C4783 1.429 . S
C4787 C4788 1.523 . S
C4788 C4772 1.368 . S
C4788 C4784 1.368 . S
C4788 C4787 1.523 . S
H4789 C4764 0.950 . S
H4790 C4766 0.950 . S
H4791 C4767 0.949 . S
H4792 C4769 0.950 . S
H4793 C4771 0.950 . S
C4794 C4795 1.349 . S
C4794 C4796 1.327 . S
C4794 H4819 0.950 . S
C4795 C4794 1.349 . S
C4795 C4811 1.349 . S
C4796 C4794 1.327 . S
C4796 C4815 1.429 . S
C4796 H4820 0.950 . S
C4797 C4814 1.574 . S
C4797 C4816 1.368 . S
C4797 H4821 0.949 . S
H4798 C4802 0.949 . S
C4799 C4800 1.349 . S
C4799 C4801 1.327 . S
C4799 H4822 0.950 . S
C4800 C4799 1.349 . S
C4800 C4812 1.349 . S
C4801 C4799 1.327 . S
C4801 C4817 1.429 . S
C4801 H4823 0.950 . S
C4802 H4798 0.949 . S
C4802 C4810 1.574 . S
C4802 C4818 1.368 . S
H4803 C4811 0.950 . S
H4804 C4809 0.950 . S
H4805 C4810 0.949 . S
H4806 C4812 0.950 . S
H4807 C4813 0.950 . S
H4808 C4814 0.949 . S
C4809 H4804 0.950 . S
C4809 C4811 1.327 . S
C4809 C4815 1.429 . S
C4810 C4802 1.574 . S
C4810 H4805 0.949 . S
C4810 C4816 1.368 . S
C4811 C4795 1.349 . S
C4811 H4803 0.950 . S
C4811 C4809 1.327 . S
C4812 C4800 1.349 . S
C4812 H4806 0.950 . S
C4812 C4813 1.327 . S
C4813 H4807 0.950 . S
C4813 C4812 1.327 . S
C4813 C4817 1.429 . S
C4814 C4797 1.574 . S
C4814 H4808 0.949 . S
C4814 C4818 1.368 . S
C4815 C4796 1.429 . S
C4815 C4809 1.429 . S
C4815 C4816 1.523 . S
C4816 C4797 1.368 . S
C4816 C4810 1.368 . S
C4816 C4815 1.523 . S
C4817 C4801 1.429 . S
C4817 C4813 1.429 . S
C4817 C4818 1.523 . S
C4818 C4802 1.368 . S
C4818 C4814 1.368 . S
C4818 C4817 1.523 . S
H4819 C4794 0.950 . S
H4820 C4796 0.950 . S
H4821 C4797 0.949 . S
H4822 C4799 0.950 . S
H4823 C4801 0.950 . S
C4824 C4825 1.349 . S
C4824 C4826 1.327 . S
C4824 H4849 0.950 . S
C4825 C4824 1.349 . S
C4825 C4841 1.349 . S
C4826 C4824 1.327 . S
C4826 C4845 1.429 . S
C4826 H4850 0.950 . S
C4827 C4844 1.574 . S
C4827 C4846 1.368 . S
C4827 H4851 0.949 . S
H4828 C4832 0.949 . S
C4829 C4830 1.349 . S
C4829 C4831 1.327 . S
C4829 H4852 0.950 . S
C4830 C4829 1.349 . S
C4830 C4842 1.349 . S
C4831 C4829 1.327 . S
C4831 C4847 1.429 . S
C4831 H4853 0.950 . S
C4832 H4828 0.949 . S
C4832 C4840 1.574 . S
C4832 C4848 1.368 . S
H4833 C4841 0.950 . S
H4834 C4839 0.950 . S
H4835 C4840 0.949 . S
H4836 C4842 0.950 . S
H4837 C4843 0.950 . S
H4838 C4844 0.949 . S
C4839 H4834 0.950 . S
C4839 C4841 1.327 . S
C4839 C4845 1.429 . S
C4840 C4832 1.574 . S
C4840 H4835 0.949 . S
C4840 C4846 1.368 . S
C4841 C4825 1.349 . S
C4841 H4833 0.950 . S
C4841 C4839 1.327 . S
C4842 C4830 1.349 . S
C4842 H4836 0.950 . S
C4842 C4843 1.327 . S
C4843 H4837 0.950 . S
C4843 C4842 1.327 . S
C4843 C4847 1.429 . S
C4844 C4827 1.574 . S
C4844 H4838 0.949 . S
C4844 C4848 1.368 . S
C4845 C4826 1.429 . S
C4845 C4839 1.429 . S
C4845 C4846 1.523 . S
C4846 C4827 1.368 . S
C4846 C4840 1.368 . S
C4846 C4845 1.523 . S
C4847 C4831 1.429 . S
C4847 C4843 1.429 . S
C4847 C4848 1.523 . S
C4848 C4832 1.368 . S
C4848 C4844 1.368 . S
C4848 C4847 1.523 . S
H4849 C4824 0.950 . S
H4850 C4826 0.950 . S
H4851 C4827 0.949 . S
H4852 C4829 0.950 . S
H4853 C4831 0.950 . S
C4854 C4855 1.349 . S
C4854 C4856 1.327 . S
C4854 H4879 0.950 . S
C4855 C4854 1.349 . S
C4855 C4871 1.349 . S
C4856 C4854 1.327 . S
C4856 C4875 1.429 . S
C4856 H4880 0.950 . S
C4857 C4874 1.574 . S
C4857 C4876 1.368 . S
C4857 H4881 0.949 . S
H4858 C4862 0.949 . S
C4859 C4860 1.349 . S
C4859 C4861 1.327 . S
C4859 H4882 0.950 . S
C4860 C4859 1.349 . S
C4860 C4872 1.349 . S
C4861 C4859 1.327 . S
C4861 C4877 1.429 . S
C4861 H4883 0.950 . S
C4862 H4858 0.949 . S
C4862 C4870 1.574 . S
C4862 C4878 1.368 . S
H4863 C4871 0.950 . S
H4864 C4869 0.950 . S
H4865 C4870 0.949 . S
H4866 C4872 0.950 . S
H4867 C4873 0.950 . S
H4868 C4874 0.949 . S
C4869 H4864 0.950 . S
C4869 C4871 1.327 . S
C4869 C4875 1.429 . S
C4870 C4862 1.574 . S
C4870 H4865 0.949 . S
C4870 C4876 1.368 . S
C4871 C4855 1.349 . S
C4871 H4863 0.950 . S
C4871 C4869 1.327 . S
C4872 C4860 1.349 . S
C4872 H4866 0.950 . S
C4872 C4873 1.327 . S
C4873 H4867 0.950 . S
C4873 C4872 1.327 . S
C4873 C4877 1.429 . S
C4874 C4857 1.574 . S
C4874 H4868 0.949 . S
C4874 C4878 1.368 . S
C4875 C4856 1.429 . S
C4875 C4869 1.429 . S
C4875 C4876 1.523 . S
C4876 C4857 1.368 . S
C4876 C4870 1.368 . S
C4876 C4875 1.523 . S
C4877 C4861 1.429 . S
C4877 C4873 1.429 . S
C4877 C4878 1.523 . S
C4878 C4862 1.368 . S
C4878 C4874 1.368 . S
C4878 C4877 1.523 . S
H4879 C4854 0.950 . S
H4880 C4856 0.950 . S
H4881 C4857 0.949 . S
H4882 C4859 0.950 . S
H4883 C4861 0.950 . S
C4884 C4885 1.349 . S
C4884 C4886 1.327 . S
C4884 H4909 0.950 . S
C4885 C4884 1.349 . S
C4885 C4901 1.349 . S
C4886 C4884 1.327 . S
C4886 C4905 1.429 . S
C4886 H4910 0.950 . S
C4887 C4904 1.574 . S
C4887 C4906 1.368 . S
C4887 H4911 0.949 . S
H4888 C4892 0.949 . S
C4889 C4890 1.349 . S
C4889 C4891 1.327 . S
C4889 H4912 0.950 . S
C4890 C4889 1.349 . S
C4890 C4902 1.349 . S
C4891 C4889 1.327 . S
C4891 C4907 1.429 . S
C4891 H4913 0.950 . S
C4892 H4888 0.949 . S
C4892 C4900 1.574 . S
C4892 C4908 1.368 . S
H4893 C4901 0.950 . S
H4894 C4899 0.950 . S
H4895 C4900 0.949 . S
H4896 C4902 0.950 . S
H4897 C4903 0.950 . S
H4898 C4904 0.949 . S
C4899 H4894 0.950 . S
C4899 C4901 1.327 . S
C4899 C4905 1.429 . S
C4900 C4892 1.574 . S
C4900 H4895 0.949 . S
C4900 C4906 1.368 . S
C4901 C4885 1.349 . S
C4901 H4893 0.950 . S
C4901 C4899 1.327 . S
C4902 C4890 1.349 . S
C4902 H4896 0.950 . S
C4902 C4903 1.327 . S
C4903 H4897 0.950 . S
C4903 C4902 1.327 . S
C4903 C4907 1.429 . S
C4904 C4887 1.574 . S
C4904 H4898 0.949 . S
C4904 C4908 1.368 . S
C4905 C4886 1.429 . S
C4905 C4899 1.429 . S
C4905 C4906 1.523 . S
C4906 C4887 1.368 . S
C4906 C4900 1.368 . S
C4906 C4905 1.523 . S
C4907 C4891 1.429 . S
C4907 C4903 1.429 . S
C4907 C4908 1.523 . S
C4908 C4892 1.368 . S
C4908 C4904 1.368 . S
C4908 C4907 1.523 . S
H4909 C4884 0.950 . S
H4910 C4886 0.950 . S
H4911 C4887 0.949 . S
H4912 C4889 0.950 . S
H4913 C4891 0.950 . S
C4914 C4915 1.349 . S
C4914 C4916 1.327 . S
C4914 H4939 0.950 . S
C4915 C4914 1.349 . S
C4915 C4931 1.349 . S
C4916 C4914 1.327 . S
C4916 C4935 1.429 . S
C4916 H4940 0.950 . S
C4917 C4934 1.574 . S
C4917 C4936 1.368 . S
C4917 H4941 0.949 . S
H4918 C4922 0.949 . S
C4919 C4920 1.349 . S
C4919 C4921 1.327 . S
C4919 H4942 0.950 . S
C4920 C4919 1.349 . S
C4920 C4932 1.349 . S
C4921 C4919 1.327 . S
C4921 C4937 1.429 . S
C4921 H4943 0.950 . S
C4922 H4918 0.949 . S
C4922 C4930 1.574 . S
C4922 C4938 1.368 . S
H4923 C4931 0.950 . S
H4924 C4929 0.950 . S
H4925 C4930 0.949 . S
H4926 C4932 0.950 . S
H4927 C4933 0.950 . S
H4928 C4934 0.949 . S
C4929 H4924 0.950 . S
C4929 C4931 1.327 . S
C4929 C4935 1.429 . S
C4930 C4922 1.574 . S
C4930 H4925 0.949 . S
C4930 C4936 1.368 . S
C4931 C4915 1.349 . S
C4931 H4923 0.950 . S
C4931 C4929 1.327 . S
C4932 C4920 1.349 . S
C4932 H4926 0.950 . S
C4932 C4933 1.327 . S
C4933 H4927 0.950 . S
C4933 C4932 1.327 . S
C4933 C4937 1.429 . S
C4934 C4917 1.574 . S
C4934 H4928 0.949 . S
C4934 C4938 1.368 . S
C4935 C4916 1.429 . S
C4935 C4929 1.429 . S
C4935 C4936 1.523 . S
C4936 C4917 1.368 . S
C4936 C4930 1.368 . S
C4936 C4935 1.523 . S
C4937 C4921 1.429 . S
C4937 C4933 1.429 . S
C4937 C4938 1.523 . S
C4938 C4922 1.368 . S
C4938 C4934 1.368 . S
C4938 C4937 1.523 . S
H4939 C4914 0.950 . S
H4940 C4916 0.950 . S
H4941 C4917 0.949 . S
H4942 C4919 0.950 . S
H4943 C4921 0.950 . S
C4944 C4945 1.349 . S
C4944 C4946 1.327 . S
C4944 H4969 0.950 . S
C4945 C4944 1.349 . S
C4945 C4961 1.349 . S
C4946 C4944 1.327 . S
C4946 C4965 1.429 . S
C4946 H4970 0.950 . S
C4947 C4964 1.574 . S
C4947 C4966 1.368 . S
C4947 H4971 0.949 . S
H4948 C4952 0.949 . S
C4949 C4950 1.349 . S
C4949 C4951 1.327 . S
C4949 H4972 0.950 . S
C4950 C4949 1.349 . S
C4950 C4962 1.349 . S
C4951 C4949 1.327 . S
C4951 C4967 1.429 . S
C4951 H4973 0.950 . S
C4952 H4948 0.949 . S
C4952 C4960 1.574 . S
C4952 C4968 1.368 . S
H4953 C4961 0.950 . S
H4954 C4959 0.950 . S
H4955 C4960 0.949 . S
H4956 C4962 0.950 . S
H4957 C4963 0.950 . S
H4958 C4964 0.949 . S
C4959 H4954 0.950 . S
C4959 C4961 1.327 . S
C4959 C4965 1.429 . S
C4960 C4952 1.574 . S
C4960 H4955 0.949 . S
C4960 C4966 1.368 . S
C4961 C4945 1.349 . S
C4961 H4953 0.950 . S
C4961 C4959 1.327 . S
C4962 C4950 1.349 . S
C4962 H4956 0.950 . S
C4962 C4963 1.327 . S
C4963 H4957 0.950 . S
C4963 C4962 1.327 . S
C4963 C4967 1.429 . S
C4964 C4947 1.574 . S
C4964 H4958 0.949 . S
C4964 C4968 1.368 . S
C4965 C4946 1.429 . S
C4965 C4959 1.429 . S
C4965 C4966 1.523 . S
C4966 C4947 1.368 . S
C4966 C4960 1.368 . S
C4966 C4965 1.523 . S
C4967 C4951 1.429 . S
C4967 C4963 1.429 . S
C4967 C4968 1.523 . S
C4968 C4952 1.368 . S
C4968 C4964 1.368 . S
C4968 C4967 1.523 . S
H4969 C4944 0.950 . S
H4970 C4946 0.950 . S
H4971 C4947 0.949 . S
H4972 C4949 0.950 . S
H4973 C4951 0.950 . S
C4974 C4975 1.349 . S
C4974 C4976 1.327 . S
C4974 H4999 0.950 . S
C4975 C4974 1.349 . S
C4975 C4991 1.349 . S
C4976 C4974 1.327 . S
C4976 C4995 1.429 . S
C4976 H5000 0.950 . S
C4977 C4994 1.574 . S
C4977 C4996 1.368 . S
C4977 H5001 0.949 . S
H4978 C4982 0.949 . S
C4979 C4980 1.349 . S
C4979 C4981 1.327 . S
C4979 H5002 0.950 . S
C4980 C4979 1.349 . S
C4980 C4992 1.349 . S
C4981 C4979 1.327 . S
C4981 C4997 1.429 . S
C4981 H5003 0.950 . S
C4982 H4978 0.949 . S
C4982 C4990 1.574 . S
C4982 C4998 1.368 . S
H4983 C4991 0.950 . S
H4984 C4989 0.950 . S
H4985 C4990 0.949 . S
H4986 C4992 0.950 . S
H4987 C4993 0.950 . S
H4988 C4994 0.949 . S
C4989 H4984 0.950 . S
C4989 C4991 1.327 . S
C4989 C4995 1.429 . S
C4990 C4982 1.574 . S
C4990 H4985 0.949 . S
C4990 C4996 1.368 . S
C4991 C4975 1.349 . S
C4991 H4983 0.950 . S
C4991 C4989 1.327 . S
C4992 C4980 1.349 . S
C4992 H4986 0.950 . S
C4992 C4993 1.327 . S
C4993 H4987 0.950 . S
C4993 C4992 1.327 . S
C4993 C4997 1.429 . S
C4994 C4977 1.574 . S
C4994 H4988 0.949 . S
C4994 C4998 1.368 . S
C4995 C4976 1.429 . S
C4995 C4989 1.429 . S
C4995 C4996 1.523 . S
C4996 C4977 1.368 . S
C4996 C4990 1.368 . S
C4996 C4995 1.523 . S
C4997 C4981 1.429 . S
C4997 C4993 1.429 . S
C4997 C4998 1.523 . S
C4998 C4982 1.368 . S
C4998 C4994 1.368 . S
C4998 C4997 1.523 . S
H4999 C4974 0.950 . S
H5000 C4976 0.950 . S
H5001 C4977 0.949 . S
H5002 C4979 0.950 . S
H5003 C4981 0.950 . S
C5004 C5005 1.349 . S
C5004 C5006 1.327 . S
C5004 H5029 0.950 . S
C5005 C5004 1.349 . S
C5005 C5021 1.349 . S
C5006 C5004 1.327 . S
C5006 C5025 1.429 . S
C5006 H5030 0.950 . S
C5007 C5024 1.574 . S
C5007 C5026 1.368 . S
C5007 H5031 0.949 . S
H5008 C5012 0.949 . S
C5009 C5010 1.349 . S
C5009 C5011 1.327 . S
C5009 H5032 0.950 . S
C5010 C5009 1.349 . S
C5010 C5022 1.349 . S
C5011 C5009 1.327 . S
C5011 C5027 1.429 . S
C5011 H5033 0.950 . S
C5012 H5008 0.949 . S
C5012 C5020 1.574 . S
C5012 C5028 1.368 . S
H5013 C5021 0.950 . S
H5014 C5019 0.950 . S
H5015 C5020 0.949 . S
H5016 C5022 0.950 . S
H5017 C5023 0.950 . S
H5018 C5024 0.949 . S
C5019 H5014 0.950 . S
C5019 C5021 1.327 . S
C5019 C5025 1.429 . S
C5020 C5012 1.574 . S
C5020 H5015 0.949 . S
C5020 C5026 1.368 . S
C5021 C5005 1.349 . S
C5021 H5013 0.950 . S
C5021 C5019 1.327 . S
C5022 C5010 1.349 . S
C5022 H5016 0.950 . S
C5022 C5023 1.327 . S
C5023 H5017 0.950 . S
C5023 C5022 1.327 . S
C5023 C5027 1.429 . S
C5024 C5007 1.574 . S
C5024 H5018 0.949 . S
C5024 C5028 1.368 . S
C5025 C5006 1.429 . S
C5025 C5019 1.429 . S
C5025 C5026 1.523 . S
C5026 C5007 1.368 . S
C5026 C5020 1.368 . S
C5026 C5025 1.523 . S
C5027 C5011 1.429 . S
C5027 C5023 1.429 . S
C5027 C5028 1.523 . S
C5028 C5012 1.368 . S
C5028 C5024 1.368 . S
C5028 C5027 1.523 . S
H5029 C5004 0.950 . S
H5030 C5006 0.950 . S
H5031 C5007 0.949 . S
H5032 C5009 0.950 . S
H5033 C5011 0.950 . S
C5034 C5035 1.349 . S
C5034 C5036 1.327 . S
C5034 H5059 0.950 . S
C5035 C5034 1.349 . S
C5035 C5051 1.349 . S
C5036 C5034 1.327 . S
C5036 C5055 1.429 . S
C5036 H5060 0.950 . S
C5037 C5054 1.574 . S
C5037 C5056 1.368 . S
C5037 H5061 0.949 . S
H5038 C5042 0.949 . S
C5039 C5040 1.349 . S
C5039 C5041 1.327 . S
C5039 H5062 0.950 . S
C5040 C5039 1.349 . S
C5040 C5052 1.349 . S
C5041 C5039 1.327 . S
C5041 C5057 1.429 . S
C5041 H5063 0.950 . S
C5042 H5038 0.949 . S
C5042 C5050 1.574 . S
C5042 C5058 1.368 . S
H5043 C5051 0.950 . S
H5044 C5049 0.950 . S
H5045 C5050 0.949 . S
H5046 C5052 0.950 . S
H5047 C5053 0.950 . S
H5048 C5054 0.949 . S
C5049 H5044 0.950 . S
C5049 C5051 1.327 . S
C5049 C5055 1.429 . S
C5050 C5042 1.574 . S
C5050 H5045 0.949 . S
C5050 C5056 1.368 . S
C5051 C5035 1.349 . S
C5051 H5043 0.950 . S
C5051 C5049 1.327 . S
C5052 C5040 1.349 . S
C5052 H5046 0.950 . S
C5052 C5053 1.327 . S
C5053 H5047 0.950 . S
C5053 C5052 1.327 . S
C5053 C5057 1.429 . S
C5054 C5037 1.574 . S
C5054 H5048 0.949 . S
C5054 C5058 1.368 . S
C5055 C5036 1.429 . S
C5055 C5049 1.429 . S
C5055 C5056 1.523 . S
C5056 C5037 1.368 . S
C5056 C5050 1.368 . S
C5056 C5055 1.523 . S
C5057 C5041 1.429 . S
C5057 C5053 1.429 . S
C5057 C5058 1.523 . S
C5058 C5042 1.368 . S
C5058 C5054 1.368 . S
C5058 C5057 1.523 . S
H5059 C5034 0.950 . S
H5060 C5036 0.950 . S
H5061 C5037 0.949 . S
H5062 C5039 0.950 . S
H5063 C5041 0.950 . S
C5064 C5065 1.349 . S
C5064 C5066 1.327 . S
C5064 H5089 0.950 . S
C5065 C5064 1.349 . S
C5065 C5081 1.349 . S
C5066 C5064 1.327 . S
C5066 C5085 1.429 . S
C5066 H5090 0.950 . S
C5067 C5084 1.574 . S
C5067 C5086 1.368 . S
C5067 H5091 0.949 . S
H5068 C5072 0.949 . S
C5069 C5070 1.349 . S
C5069 C5071 1.327 . S
C5069 H5092 0.950 . S
C5070 C5069 1.349 . S
C5070 C5082 1.349 . S
C5071 C5069 1.327 . S
C5071 C5087 1.429 . S
C5071 H5093 0.950 . S
C5072 H5068 0.949 . S
C5072 C5080 1.574 . S
C5072 C5088 1.368 . S
H5073 C5081 0.950 . S
H5074 C5079 0.950 . S
H5075 C5080 0.949 . S
H5076 C5082 0.950 . S
H5077 C5083 0.950 . S
H5078 C5084 0.949 . S
C5079 H5074 0.950 . S
C5079 C5081 1.327 . S
C5079 C5085 1.429 . S
C5080 C5072 1.574 . S
C5080 H5075 0.949 . S
C5080 C5086 1.368 . S
C5081 C5065 1.349 . S
C5081 H5073 0.950 . S
C5081 C5079 1.327 . S
C5082 C5070 1.349 . S
C5082 H5076 0.950 . S
C5082 C5083 1.327 . S
C5083 H5077 0.950 . S
C5083 C5082 1.327 . S
C5083 C5087 1.429 . S
C5084 C5067 1.574 . S
C5084 H5078 0.949 . S
C5084 C5088 1.368 . S
C5085 C5066 1.429 . S
C5085 C5079 1.429 . S
C5085 C5086 1.523 . S
C5086 C5067 1.368 . S
C5086 C5080 1.368 . S
C5086 C5085 1.523 . S
C5087 C5071 1.429 . S
C5087 C5083 1.429 . S
C5087 C5088 1.523 . S
C5088 C5072 1.368 . S
C5088 C5084 1.368 . S
C5088 C5087 1.523 . S
H5089 C5064 0.950 . S
H5090 C5066 0.950 . S
H5091 C5067 0.949 . S
H5092 C5069 0.950 . S
H5093 C5071 0.950 . S
C5094 C5095 1.349 . S
C5094 C5096 1.327 . S
C5094 H5119 0.950 . S
C5095 C5094 1.349 . S
C5095 C5111 1.349 . S
C5096 C5094 1.327 . S
C5096 C5115 1.429 . S
C5096 H5120 0.950 . S
C5097 C5114 1.574 . S
C5097 C5116 1.368 . S
C5097 H5121 0.949 . S
H5098 C5102 0.949 . S
C5099 C5100 1.349 . S
C5099 C5101 1.327 . S
C5099 H5122 0.950 . S
C5100 C5099 1.349 . S
C5100 C5112 1.349 . S
C5101 C5099 1.327 . S
C5101 C5117 1.429 . S
C5101 H5123 0.950 . S
C5102 H5098 0.949 . S
C5102 C5110 1.574 . S
C5102 C5118 1.368 . S
H5103 C5111 0.950 . S
H5104 C5109 0.950 . S
H5105 C5110 0.949 . S
H5106 C5112 0.950 . S
H5107 C5113 0.950 . S
H5108 C5114 0.949 . S
C5109 H5104 0.950 . S
C5109 C5111 1.327 . S
C5109 C5115 1.429 . S
C5110 C5102 1.574 . S
C5110 H5105 0.949 . S
C5110 C5116 1.368 . S
C5111 C5095 1.349 . S
C5111 H5103 0.950 . S
C5111 C5109 1.327 . S
C5112 C5100 1.349 . S
C5112 H5106 0.950 . S
C5112 C5113 1.327 . S
C5113 H5107 0.950 . S
C5113 C5112 1.327 . S
C5113 C5117 1.429 . S
C5114 C5097 1.574 . S
C5114 H5108 0.949 . S
C5114 C5118 1.368 . S
C5115 C5096 1.429 . S
C5115 C5109 1.429 . S
C5115 C5116 1.523 . S
C5116 C5097 1.368 . S
C5116 C5110 1.368 . S
C5116 C5115 1.523 . S
C5117 C5101 1.429 . S
C5117 C5113 1.429 . S
C5117 C5118 1.523 . S
C5118 C5102 1.368 . S
C5118 C5114 1.368 . S
C5118 C5117 1.523 . S
H5119 C5094 0.950 . S
H5120 C5096 0.950 . S
H5121 C5097 0.949 . S
H5122 C5099 0.950 . S
H5123 C5101 0.950 . S
C5124 C5125 1.349 . S
C5124 C5126 1.327 . S
C5124 H5149 0.950 . S
C5125 C5124 1.349 . S
C5125 C5141 1.349 . S
C5126 C5124 1.327 . S
C5126 C5145 1.429 . S
C5126 H5150 0.950 . S
C5127 C5144 1.574 . S
C5127 C5146 1.368 . S
C5127 H5151 0.949 . S
H5128 C5132 0.949 . S
C5129 C5130 1.349 . S
C5129 C5131 1.327 . S
C5129 H5152 0.950 . S
C5130 C5129 1.349 . S
C5130 C5142 1.349 . S
C5131 C5129 1.327 . S
C5131 C5147 1.429 . S
C5131 H5153 0.950 . S
C5132 H5128 0.949 . S
C5132 C5140 1.574 . S
C5132 C5148 1.368 . S
H5133 C5141 0.950 . S
H5134 C5139 0.950 . S
H5135 C5140 0.949 . S
H5136 C5142 0.950 . S
H5137 C5143 0.950 . S
H5138 C5144 0.949 . S
C5139 H5134 0.950 . S
C5139 C5141 1.327 . S
C5139 C5145 1.429 . S
C5140 C5132 1.574 . S
C5140 H5135 0.949 . S
C5140 C5146 1.368 . S
C5141 C5125 1.349 . S
C5141 H5133 0.950 . S
C5141 C5139 1.327 . S
C5142 C5130 1.349 . S
C5142 H5136 0.950 . S
C5142 C5143 1.327 . S
C5143 H5137 0.950 . S
C5143 C5142 1.327 . S
C5143 C5147 1.429 . S
C5144 C5127 1.574 . S
C5144 H5138 0.949 . S
C5144 C5148 1.368 . S
C5145 C5126 1.429 . S
C5145 C5139 1.429 . S
C5145 C5146 1.523 . S
C5146 C5127 1.368 . S
C5146 C5140 1.368 . S
C5146 C5145 1.523 . S
C5147 C5131 1.429 . S
C5147 C5143 1.429 . S
C5147 C5148 1.523 . S
C5148 C5132 1.368 . S
C5148 C5144 1.368 . S
C5148 C5147 1.523 . S
H5149 C5124 0.950 . S
H5150 C5126 0.950 . S
H5151 C5127 0.949 . S
H5152 C5129 0.950 . S
H5153 C5131 0.950 . S
C5154 C5155 1.349 . S
C5154 C5156 1.327 . S
C5154 H5179 0.950 . S
C5155 C5154 1.349 . S
C5155 C5171 1.349 . S
C5156 C5154 1.327 . S
C5156 C5175 1.429 . S
C5156 H5180 0.950 . S
C5157 C5174 1.574 . S
C5157 C5176 1.368 . S
C5157 H5181 0.949 . S
H5158 C5162 0.949 . S
C5159 C5160 1.349 . S
C5159 C5161 1.327 . S
C5159 H5182 0.950 . S
C5160 C5159 1.349 . S
C5160 C5172 1.349 . S
C5161 C5159 1.327 . S
C5161 C5177 1.429 . S
C5161 H5183 0.950 . S
C5162 H5158 0.949 . S
C5162 C5170 1.574 . S
C5162 C5178 1.368 . S
H5163 C5171 0.950 . S
H5164 C5169 0.950 . S
H5165 C5170 0.949 . S
H5166 C5172 0.950 . S
H5167 C5173 0.950 . S
H5168 C5174 0.949 . S
C5169 H5164 0.950 . S
C5169 C5171 1.327 . S
C5169 C5175 1.429 . S
C5170 C5162 1.574 . S
C5170 H5165 0.949 . S
C5170 C5176 1.368 . S
C5171 C5155 1.349 . S
C5171 H5163 0.950 . S
C5171 C5169 1.327 . S
C5172 C5160 1.349 . S
C5172 H5166 0.950 . S
C5172 C5173 1.327 . S
C5173 H5167 0.950 . S
C5173 C5172 1.327 . S
C5173 C5177 1.429 . S
C5174 C5157 1.574 . S
C5174 H5168 0.949 . S
C5174 C5178 1.368 . S
C5175 C5156 1.429 . S
C5175 C5169 1.429 . S
C5175 C5176 1.523 . S
C5176 C5157 1.368 . S
C5176 C5170 1.368 . S
C5176 C5175 1.523 . S
C5177 C5161 1.429 . S
C5177 C5173 1.429 . S
C5177 C5178 1.523 . S
C5178 C5162 1.368 . S
C5178 C5174 1.368 . S
C5178 C5177 1.523 . S
H5179 C5154 0.950 . S
H5180 C5156 0.950 . S
H5181 C5157 0.949 . S
H5182 C5159 0.950 . S
H5183 C5161 0.950 . S
C5184 C5185 1.349 . S
C5184 C5186 1.327 . S
C5184 H5209 0.950 . S
C5185 C5184 1.349 . S
C5185 C5201 1.349 . S
C5186 C5184 1.327 . S
C5186 C5205 1.429 . S
C5186 H5210 0.950 . S
C5187 C5204 1.574 . S
C5187 C5206 1.368 . S
C5187 H5211 0.949 . S
H5188 C5192 0.949 . S
C5189 C5190 1.349 . S
C5189 C5191 1.327 . S
C5189 H5212 0.950 . S
C5190 C5189 1.349 . S
C5190 C5202 1.349 . S
C5191 C5189 1.327 . S
C5191 C5207 1.429 . S
C5191 H5213 0.950 . S
C5192 H5188 0.949 . S
C5192 C5200 1.574 . S
C5192 C5208 1.368 . S
H5193 C5201 0.950 . S
H5194 C5199 0.950 . S
H5195 C5200 0.949 . S
H5196 C5202 0.950 . S
H5197 C5203 0.950 . S
H5198 C5204 0.949 . S
C5199 H5194 0.950 . S
C5199 C5201 1.327 . S
C5199 C5205 1.429 . S
C5200 C5192 1.574 . S
C5200 H5195 0.949 . S
C5200 C5206 1.368 . S
C5201 C5185 1.349 . S
C5201 H5193 0.950 . S
C5201 C5199 1.327 . S
C5202 C5190 1.349 . S
C5202 H5196 0.950 . S
C5202 C5203 1.327 . S
C5203 H5197 0.950 . S
C5203 C5202 1.327 . S
C5203 C5207 1.429 . S
C5204 C5187 1.574 . S
C5204 H5198 0.949 . S
C5204 C5208 1.368 . S
C5205 C5186 1.429 . S
C5205 C5199 1.429 . S
C5205 C5206 1.523 . S
C5206 C5187 1.368 . S
C5206 C5200 1.368 . S
C5206 C5205 1.523 . S
C5207 C5191 1.429 . S
C5207 C5203 1.429 . S
C5207 C5208 1.523 . S
C5208 C5192 1.368 . S
C5208 C5204 1.368 . S
C5208 C5207 1.523 . S
H5209 C5184 0.950 . S
H5210 C5186 0.950 . S
H5211 C5187 0.949 . S
H5212 C5189 0.950 . S
H5213 C5191 0.950 . S
C5214 C5215 1.349 . S
C5214 C5216 1.327 . S
C5214 H5239 0.950 . S
C5215 C5214 1.349 . S
C5215 C5231 1.349 . S
C5216 C5214 1.327 . S
C5216 C5235 1.429 . S
C5216 H5240 0.950 . S
C5217 C5234 1.574 . S
C5217 C5236 1.368 . S
C5217 H5241 0.949 . S
H5218 C5222 0.949 . S
C5219 C5220 1.349 . S
C5219 C5221 1.327 . S
C5219 H5242 0.950 . S
C5220 C5219 1.349 . S
C5220 C5232 1.349 . S
C5221 C5219 1.327 . S
C5221 C5237 1.429 . S
C5221 H5243 0.950 . S
C5222 H5218 0.949 . S
C5222 C5230 1.574 . S
C5222 C5238 1.368 . S
H5223 C5231 0.950 . S
H5224 C5229 0.950 . S
H5225 C5230 0.949 . S
H5226 C5232 0.950 . S
H5227 C5233 0.950 . S
H5228 C5234 0.949 . S
C5229 H5224 0.950 . S
C5229 C5231 1.327 . S
C5229 C5235 1.429 . S
C5230 C5222 1.574 . S
C5230 H5225 0.949 . S
C5230 C5236 1.368 . S
C5231 C5215 1.349 . S
C5231 H5223 0.950 . S
C5231 C5229 1.327 . S
C5232 C5220 1.349 . S
C5232 H5226 0.950 . S
C5232 C5233 1.327 . S
C5233 H5227 0.950 . S
C5233 C5232 1.327 . S
C5233 C5237 1.429 . S
C5234 C5217 1.574 . S
C5234 H5228 0.949 . S
C5234 C5238 1.368 . S
C5235 C5216 1.429 . S
C5235 C5229 1.429 . S
C5235 C5236 1.523 . S
C5236 C5217 1.368 . S
C5236 C5230 1.368 . S
C5236 C5235 1.523 . S
C5237 C5221 1.429 . S
C5237 C5233 1.429 . S
C5237 C5238 1.523 . S
C5238 C5222 1.368 . S
C5238 C5234 1.368 . S
C5238 C5237 1.523 . S
H5239 C5214 0.950 . S
H5240 C5216 0.950 . S
H5241 C5217 0.949 . S
H5242 C5219 0.950 . S
H5243 C5221 0.950 . S
C5244 C5245 1.349 . S
C5244 C5246 1.327 . S
C5244 H5269 0.950 . S
C5245 C5244 1.349 . S
C5245 C5261 1.349 . S
C5246 C5244 1.327 . S
C5246 C5265 1.429 . S
C5246 H5270 0.950 . S
C5247 C5264 1.574 . S
C5247 C5266 1.368 . S
C5247 H5271 0.949 . S
H5248 C5252 0.949 . S
C5249 C5250 1.349 . S
C5249 C5251 1.327 . S
C5249 H5272 0.950 . S
C5250 C5249 1.349 . S
C5250 C5262 1.349 . S
C5251 C5249 1.327 . S
C5251 C5267 1.429 . S
C5251 H5273 0.950 . S
C5252 H5248 0.949 . S
C5252 C5260 1.574 . S
C5252 C5268 1.368 . S
H5253 C5261 0.950 . S
H5254 C5259 0.950 . S
H5255 C5260 0.949 . S
H5256 C5262 0.950 . S
H5257 C5263 0.950 . S
H5258 C5264 0.949 . S
C5259 H5254 0.950 . S
C5259 C5261 1.327 . S
C5259 C5265 1.429 . S
C5260 C5252 1.574 . S
C5260 H5255 0.949 . S
C5260 C5266 1.368 . S
C5261 C5245 1.349 . S
C5261 H5253 0.950 . S
C5261 C5259 1.327 . S
C5262 C5250 1.349 . S
C5262 H5256 0.950 . S
C5262 C5263 1.327 . S
C5263 H5257 0.950 . S
C5263 C5262 1.327 . S
C5263 C5267 1.429 . S
C5264 C5247 1.574 . S
C5264 H5258 0.949 . S
C5264 C5268 1.368 . S
C5265 C5246 1.429 . S
C5265 C5259 1.429 . S
C5265 C5266 1.523 . S
C5266 C5247 1.368 . S
C5266 C5260 1.368 . S
C5266 C5265 1.523 . S
C5267 C5251 1.429 . S
C5267 C5263 1.429 . S
C5267 C5268 1.523 . S
C5268 C5252 1.368 . S
C5268 C5264 1.368 . S
C5268 C5267 1.523 . S
H5269 C5244 0.950 . S
H5270 C5246 0.950 . S
H5271 C5247 0.949 . S
H5272 C5249 0.950 . S
H5273 C5251 0.950 . S
C5274 C5275 1.349 . S
C5274 C5276 1.327 . S
C5274 H5299 0.950 . S
C5275 C5274 1.349 . S
C5275 C5291 1.349 . S
C5276 C5274 1.327 . S
C5276 C5295 1.429 . S
C5276 H5300 0.950 . S
C5277 C5294 1.574 . S
C5277 C5296 1.368 . S
C5277 H5301 0.949 . S
H5278 C5282 0.949 . S
C5279 C5280 1.349 . S
C5279 C5281 1.327 . S
C5279 H5302 0.950 . S
C5280 C5279 1.349 . S
C5280 C5292 1.349 . S
C5281 C5279 1.327 . S
C5281 C5297 1.429 . S
C5281 H5303 0.950 . S
C5282 H5278 0.949 . S
C5282 C5290 1.574 . S
C5282 C5298 1.368 . S
H5283 C5291 0.950 . S
H5284 C5289 0.950 . S
H5285 C5290 0.949 . S
H5286 C5292 0.950 . S
H5287 C5293 0.950 . S
H5288 C5294 0.949 . S
C5289 H5284 0.950 . S
C5289 C5291 1.327 . S
C5289 C5295 1.429 . S
C5290 C5282 1.574 . S
C5290 H5285 0.949 . S
C5290 C5296 1.368 . S
C5291 C5275 1.349 . S
C5291 H5283 0.950 . S
C5291 C5289 1.327 . S
C5292 C5280 1.349 . S
C5292 H5286 0.950 . S
C5292 C5293 1.327 . S
C5293 H5287 0.950 . S
C5293 C5292 1.327 . S
C5293 C5297 1.429 . S
C5294 C5277 1.574 . S
C5294 H5288 0.949 . S
C5294 C5298 1.368 . S
C5295 C5276 1.429 . S
C5295 C5289 1.429 . S
C5295 C5296 1.523 . S
C5296 C5277 1.368 . S
C5296 C5290 1.368 . S
C5296 C5295 1.523 . S
C5297 C5281 1.429 . S
C5297 C5293 1.429 . S
C5297 C5298 1.523 . S
C5298 C5282 1.368 . S
C5298 C5294 1.368 . S
C5298 C5297 1.523 . S
H5299 C5274 0.950 . S
H5300 C5276 0.950 . S
H5301 C5277 0.949 . S
H5302 C5279 0.950 . S
H5303 C5281 0.950 . S
C5304 C5305 1.349 . S
C5304 C5306 1.327 . S
C5304 H5329 0.950 . S
C5305 C5304 1.349 . S
C5305 C5321 1.349 . S
C5306 C5304 1.327 . S
C5306 C5325 1.429 . S
C5306 H5330 0.950 . S
C5307 C5324 1.574 . S
C5307 C5326 1.368 . S
C5307 H5331 0.949 . S
H5308 C5312 0.949 . S
C5309 C5310 1.349 . S
C5309 C5311 1.327 . S
C5309 H5332 0.950 . S
C5310 C5309 1.349 . S
C5310 C5322 1.349 . S
C5311 C5309 1.327 . S
C5311 C5327 1.429 . S
C5311 H5333 0.950 . S
C5312 H5308 0.949 . S
C5312 C5320 1.574 . S
C5312 C5328 1.368 . S
H5313 C5321 0.950 . S
H5314 C5319 0.950 . S
H5315 C5320 0.949 . S
H5316 C5322 0.950 . S
H5317 C5323 0.950 . S
H5318 C5324 0.949 . S
C5319 H5314 0.950 . S
C5319 C5321 1.327 . S
C5319 C5325 1.429 . S
C5320 C5312 1.574 . S
C5320 H5315 0.949 . S
C5320 C5326 1.368 . S
C5321 C5305 1.349 . S
C5321 H5313 0.950 . S
C5321 C5319 1.327 . S
C5322 C5310 1.349 . S
C5322 H5316 0.950 . S
C5322 C5323 1.327 . S
C5323 H5317 0.950 . S
C5323 C5322 1.327 . S
C5323 C5327 1.429 . S
C5324 C5307 1.574 . S
C5324 H5318 0.949 . S
C5324 C5328 1.368 . S
C5325 C5306 1.429 . S
C5325 C5319 1.429 . S
C5325 C5326 1.523 . S
C5326 C5307 1.368 . S
C5326 C5320 1.368 . S
C5326 C5325 1.523 . S
C5327 C5311 1.429 . S
C5327 C5323 1.429 . S
C5327 C5328 1.523 . S
C5328 C5312 1.368 . S
C5328 C5324 1.368 . S
C5328 C5327 1.523 . S
H5329 C5304 0.950 . S
H5330 C5306 0.950 . S
H5331 C5307 0.949 . S
H5332 C5309 0.950 . S
H5333 C5311 0.950 . S
C5334 C5335 1.349 . S
C5334 C5336 1.327 . S
C5334 H5359 0.950 . S
C5335 C5334 1.349 . S
C5335 C5351 1.349 . S
C5336 C5334 1.327 . S
C5336 C5355 1.429 . S
C5336 H5360 0.950 . S
C5337 C5354 1.574 . S
C5337 C5356 1.368 . S
C5337 H5361 0.949 . S
H5338 C5342 0.949 . S
C5339 C5340 1.349 . S
C5339 C5341 1.327 . S
C5339 H5362 0.950 . S
C5340 C5339 1.349 . S
C5340 C5352 1.349 . S
C5341 C5339 1.327 . S
C5341 C5357 1.429 . S
C5341 H5363 0.950 . S
C5342 H5338 0.949 . S
C5342 C5350 1.574 . S
C5342 C5358 1.368 . S
H5343 C5351 0.950 . S
H5344 C5349 0.950 . S
H5345 C5350 0.949 . S
H5346 C5352 0.950 . S
H5347 C5353 0.950 . S
H5348 C5354 0.949 . S
C5349 H5344 0.950 . S
C5349 C5351 1.327 . S
C5349 C5355 1.429 . S
C5350 C5342 1.574 . S
C5350 H5345 0.949 . S
C5350 C5356 1.368 . S
C5351 C5335 1.349 . S
C5351 H5343 0.950 . S
C5351 C5349 1.327 . S
C5352 C5340 1.349 . S
C5352 H5346 0.950 . S
C5352 C5353 1.327 . S
C5353 H5347 0.950 . S
C5353 C5352 1.327 . S
C5353 C5357 1.429 . S
C5354 C5337 1.574 . S
C5354 H5348 0.949 . S
C5354 C5358 1.368 . S
C5355 C5336 1.429 . S
C5355 C5349 1.429 . S
C5355 C5356 1.523 . S
C5356 C5337 1.368 . S
C5356 C5350 1.368 . S
C5356 C5355 1.523 . S
C5357 C5341 1.429 . S
C5357 C5353 1.429 . S
C5357 C5358 1.523 . S
C5358 C5342 1.368 . S
C5358 C5354 1.368 . S
C5358 C5357 1.523 . S
H5359 C5334 0.950 . S
H5360 C5336 0.950 . S
H5361 C5337 0.949 . S
H5362 C5339 0.950 . S
H5363 C5341 0.950 . S
C5364 C5365 1.349 . S
C5364 C5366 1.327 . S
C5364 H5389 0.950 . S
C5365 C5364 1.349 . S
C5365 C5381 1.349 . S
C5366 C5364 1.327 . S
C5366 C5385 1.429 . S
C5366 H5390 0.950 . S
C5367 C5384 1.574 . S
C5367 C5386 1.368 . S
C5367 H5391 0.949 . S
H5368 C5372 0.949 . S
C5369 C5370 1.349 . S
C5369 C5371 1.327 . S
C5369 H5392 0.950 . S
C5370 C5369 1.349 . S
C5370 C5382 1.349 . S
C5371 C5369 1.327 . S
C5371 C5387 1.429 . S
C5371 H5393 0.950 . S
C5372 H5368 0.949 . S
C5372 C5380 1.574 . S
C5372 C5388 1.368 . S
H5373 C5381 0.950 . S
H5374 C5379 0.950 . S
H5375 C5380 0.949 . S
H5376 C5382 0.950 . S
H5377 C5383 0.950 . S
H5378 C5384 0.949 . S
C5379 H5374 0.950 . S
C5379 C5381 1.327 . S
C5379 C5385 1.429 . S
C5380 C5372 1.574 . S
C5380 H5375 0.949 . S
C5380 C5386 1.368 . S
C5381 C5365 1.349 . S
C5381 H5373 0.950 . S
C5381 C5379 1.327 . S
C5382 C5370 1.349 . S
C5382 H5376 0.950 . S
C5382 C5383 1.327 . S
C5383 H5377 0.950 . S
C5383 C5382 1.327 . S
C5383 C5387 1.429 . S
C5384 C5367 1.574 . S
C5384 H5378 0.949 . S
C5384 C5388 1.368 . S
C5385 C5366 1.429 . S
C5385 C5379 1.429 . S
C5385 C5386 1.523 . S
C5386 C5367 1.368 . S
C5386 C5380 1.368 . S
C5386 C5385 1.523 . S
C5387 C5371 1.429 . S
C5387 C5383 1.429 . S
C5387 C5388 1.523 . S
C5388 C5372 1.368 . S
C5388 C5384 1.368 . S
C5388 C5387 1.523 . S
H5389 C5364 0.950 . S
H5390 C5366 0.950 . S
H5391 C5367 0.949 . S
H5392 C5369 0.950 . S
H5393 C5371 0.950 . S
C5394 C5395 1.349 . S
C5394 C5396 1.327 . S
C5394 H5419 0.950 . S
C5395 C5394 1.349 . S
C5395 C5411 1.349 . S
C5396 C5394 1.327 . S
C5396 C5415 1.429 . S
C5396 H5420 0.950 . S
C5397 C5414 1.574 . S
C5397 C5416 1.368 . S
C5397 H5421 0.949 . S
H5398 C5402 0.949 . S
C5399 C5400 1.349 . S
C5399 C5401 1.327 . S
C5399 H5422 0.950 . S
C5400 C5399 1.349 . S
C5400 C5412 1.349 . S
C5401 C5399 1.327 . S
C5401 C5417 1.429 . S
C5401 H5423 0.950 . S
C5402 H5398 0.949 . S
C5402 C5410 1.574 . S
C5402 C5418 1.368 . S
H5403 C5411 0.950 . S
H5404 C5409 0.950 . S
H5405 C5410 0.949 . S
H5406 C5412 0.950 . S
H5407 C5413 0.950 . S
H5408 C5414 0.949 . S
C5409 H5404 0.950 . S
C5409 C5411 1.327 . S
C5409 C5415 1.429 . S
C5410 C5402 1.574 . S
C5410 H5405 0.949 . S
C5410 C5416 1.368 . S
C5411 C5395 1.349 . S
C5411 H5403 0.950 . S
C5411 C5409 1.327 . S
C5412 C5400 1.349 . S
C5412 H5406 0.950 . S
C5412 C5413 1.327 . S
C5413 H5407 0.950 . S
C5413 C5412 1.327 . S
C5413 C5417 1.429 . S
C5414 C5397 1.574 . S
C5414 H5408 0.949 . S
C5414 C5418 1.368 . S
C5415 C5396 1.429 . S
C5415 C5409 1.429 . S
C5415 C5416 1.523 . S
C5416 C5397 1.368 . S
C5416 C5410 1.368 . S
C5416 C5415 1.523 . S
C5417 C5401 1.429 . S
C5417 C5413 1.429 . S
C5417 C5418 1.523 . S
C5418 C5402 1.368 . S
C5418 C5414 1.368 . S
C5418 C5417 1.523 . S
H5419 C5394 0.950 . S
H5420 C5396 0.950 . S
H5421 C5397 0.949 . S
H5422 C5399 0.950 . S
H5423 C5401 0.950 . S
C2545 C188 1.489 . S
C2550 C22 1.489 . S
C2575 C38 1.510 . S
C2580 C92 1.511 . S
C2605 C135 1.488 . S
C2610 C75 1.488 . S
C2635 C145 1.511 . S
C2640 C197 1.511 . S
C2665 C241 1.488 . S
C2670 C287 1.488 . S
C2695 C357 1.511 . S
C2700 C303 1.511 . S
C2725 C340 1.489 . S
C2730 C400 1.489 . S
C2755 C250 1.511 . S
C2760 C410 1.510 . S
C2785 C463 1.573 . S
C2790 C992 1.574 . S
C2815 C1029 1.446 . S
C2820 C506 1.445 . S
C2845 C1098 1.573 . S
C2850 C569 1.574 . S
C2875 C923 1.445 . S
C2880 C612 1.446 . S
C2905 C1205 1.574 . S
C2910 C674 1.574 . S
C2935 C711 1.446 . S
C2940 C877 1.446 . S
C2965 C1258 1.574 . S
C2970 C780 1.575 . S
C2995 C817 1.446 . S
C3000 C1142 1.446 . S
C3025 C887 1.491 . S
C3030 C515 1.492 . S
C3055 C940 1.492 . S
C3060 C833 1.492 . S
C3085 C658 1.514 . S
C3090 C983 1.513 . S
C3115 C728 1.489 . S
C3120 C1045 1.489 . S
C3145 C771 1.517 . S
C3150 C1082 1.518 . S
C3175 C622 1.489 . S
C3180 C1151 1.489 . S
C3205 C453 1.518 . S
C3210 C1188 1.517 . S
C3235 C1248 1.514 . S
C3240 C552 1.514 . S
C3265 C1453 1.489 . S
C3270 C1294 1.489 . S
C3295 C1310 1.510 . S
C3300 C1364 1.511 . S
C3325 C1400 1.488 . S
C3330 C1347 1.488 . S
C3355 C1416 1.511 . S
C3360 C1470 1.511 . S
C3385 C1559 1.488 . S
C3390 C1506 1.488 . S
C3415 C1575 1.511 . S
C3420 C1629 1.511 . S
C3445 C1672 1.489 . S
C3450 C1612 1.488 . S
C3475 C1523 1.510 . S
C3480 C1682 1.510 . S
C3505 C2264 1.573 . S
C3510 C1735 1.573 . S
C3535 C1778 1.445 . S
C3540 C2301 1.446 . S
C3565 C2370 1.573 . S
C3570 C1841 1.574 . S
C3595 C1884 1.446 . S
C3600 C2195 1.445 . S
C3625 C1946 1.574 . S
C3630 C2477 1.575 . S
C3655 C2149 1.446 . S
C3660 C1983 1.446 . S
C3685 C2530 1.574 . S
C3690 C2052 1.575 . S
C3715 C2414 1.446 . S
C3720 C2089 1.446 . S
C3745 C1787 1.492 . S
C3750 C2159 1.491 . S
C3775 C2105 1.492 . S
C3780 C2212 1.492 . S
C3805 C2255 1.513 . S
C3810 C1930 1.513 . S
C3835 C2317 1.489 . S
C3840 C2000 1.489 . S
C3865 C2043 1.517 . S
C3870 C2354 1.518 . S
C3895 C2423 1.489 . S
C3900 C1894 1.489 . S
C3925 C2460 1.517 . S
C3930 C1725 1.518 . S
C3955 C2520 1.514 . S
C3960 C1824 1.513 . S
C3985 C29 1.509 . S
C3990 C2361 1.508 . S
C4015 C91 1.501 . S
C4020 C2211 1.501 . S
C4045 C128 1.501 . S
C4050 C2248 1.501 . S
C4075 C198 1.503 . S
C4080 C2318 1.504 . S
C4105 C234 1.504 . S
C4110 C2513 1.503 . S
C4135 C304 1.499 . S
C4140 C2424 1.498 . S
C4165 C347 1.505 . S
C4170 C2467 1.505 . S
C4195 C2158 1.508 . S
C4200 C409 1.508 . S
C4225 C462 1.501 . S
C4230 C2096 1.502 . S
C4255 C1947 1.503 . S
C4260 C499 1.503 . S
C4285 C568 1.500 . S
C4290 C1990 1.500 . S
C4315 C605 1.502 . S
C4320 C2053 1.501 . S
C4345 C675 1.503 . S
C4350 C1771 1.503 . S
C4375 C718 1.500 . S
C4380 C1840 1.500 . S
C4405 C1877 1.502 . S
C4410 C781 1.501 . S
C4435 C824 1.502 . S
C4440 C1734 1.501 . S
C4465 C886 1.508 . S
C4470 C1681 1.508 . S
C4495 C939 1.501 . S
C4500 C1363 1.501 . S
C4525 C976 1.501 . S
C4530 C1407 1.500 . S
C4555 C1046 1.504 . S
C4560 C1469 1.503 . S
C4585 C1301 1.509 . S
C4590 C1089 1.508 . S
C4615 C1152 1.498 . S
C4620 C1576 1.499 . S
C4645 C1619 1.505 . S
C4650 C1195 1.506 . S
C4675 C1513 1.504 . S
C4680 C1241 1.503 . S
C4705 C1718 1.508 . S
C4710 C393 1.508 . S
C4735 C251 1.501 . S
C4740 C1788 1.501 . S
C4765 C1831 1.501 . S
C4770 C294 1.500 . S
C4795 C1893 1.504 . S
C4800 C356 1.503 . S
C4825 C1937 1.503 . S
C4830 C82 1.504 . S
C4855 C144 1.499 . S
C4860 C1999 1.498 . S
C4885 C2036 1.506 . S
C4890 C181 1.505 . S
C4915 C2106 1.508 . S
C4920 C39 1.508 . S
C4945 C2142 1.501 . S
C4950 C1099 1.501 . S
C4975 C930 1.503 . S
C4980 C2529 1.503 . S
C5005 C993 1.500 . S
C5010 C2407 1.500 . S
C5035 C2476 1.501 . S
C5040 C1036 1.501 . S
C5065 C2202 1.503 . S
C5070 C1257 1.503 . S
C5095 C2265 1.500 . S
C5100 C1135 1.500 . S
C5125 C1204 1.501 . S
C5130 C2308 1.502 . S
C5155 C2371 1.501 . S
C5160 C870 1.501 . S
C5185 C1311 1.508 . S
C5190 C834 1.508 . S
C5215 C1522 1.502 . S
C5220 C516 1.501 . S
C5245 C1566 1.500 . S
C5250 C559 1.501 . S
C5275 C621 1.504 . S
C5280 C1628 1.503 . S
C5305 C446 1.508 . S
C5310 C1665 1.509 . S
C5335 C1417 1.499 . S
C5340 C727 1.498 . S
C5365 C764 1.506 . S
C5370 C1460 1.505 . S
C5395 C1354 1.504 . S
C5400 C665 1.503 . S
