# Generated by pormake.
# Topology mok, (4)-cn, num edge types: 1
# Building blocks:
#     Node 0, Type 0, BuildingBlock: QUQFOY_clean_sbu_1, # of connection points: 4
#     Node 1, Type 0, BuildingBlock: QUQFOY_clean_sbu_1, # of connection points: 4
#     Node 2, Type 0, BuildingBlock: QUQFOY_clean_sbu_1, # of connection points: 4
#     Node 3, Type 0, BuildingBlock: QUQFOY_clean_sbu_1, # of connection points: 4
#     Node 4, Type 0, BuildingBlock: QUQFOY_clean_sbu_1, # of connection points: 4
#     Node 5, Type 0, BuildingBlock: QUQFOY_clean_sbu_1, # of connection points: 4
#     Node 6, Type 0, BuildingBlock: QUQFOY_clean_sbu_1, # of connection points: 4
#     Node 7, Type 0, BuildingBlock: QUQFOY_clean_sbu_1, # of connection points: 4
#     Edge 8, Type (0, 0), BuildingBlock: KIFKEQ_clean_linker_1, # of connection points: 2
#     Edge 9, Type (0, 0), BuildingBlock: KIFKEQ_clean_linker_1, # of connection points: 2
#     Edge 10, Type (0, 0), BuildingBlock: KIFKEQ_clean_linker_1, # of connection points: 2
#     Edge 11, Type (0, 0), BuildingBlock: KIFKEQ_clean_linker_1, # of connection points: 2
#     Edge 12, Type (0, 0), BuildingBlock: KIFKEQ_clean_linker_1, # of connection points: 2
#     Edge 13, Type (0, 0), BuildingBlock: KIFKEQ_clean_linker_1, # of connection points: 2
#     Edge 14, Type (0, 0), BuildingBlock: KIFKEQ_clean_linker_1, # of connection points: 2
#     Edge 15, Type (0, 0), BuildingBlock: KIFKEQ_clean_linker_1, # of connection points: 2
#     Edge 16, Type (0, 0), BuildingBlock: KIFKEQ_clean_linker_1, # of connection points: 2
#     Edge 17, Type (0, 0), BuildingBlock: KIFKEQ_clean_linker_1, # of connection points: 2
#     Edge 18, Type (0, 0), BuildingBlock: KIFKEQ_clean_linker_1, # of connection points: 2
#     Edge 19, Type (0, 0), BuildingBlock: KIFKEQ_clean_linker_1, # of connection points: 2
#     Edge 20, Type (0, 0), BuildingBlock: KIFKEQ_clean_linker_1, # of connection points: 2
#     Edge 21, Type (0, 0), BuildingBlock: KIFKEQ_clean_linker_1, # of connection points: 2
#     Edge 22, Type (0, 0), BuildingBlock: KIFKEQ_clean_linker_1, # of connection points: 2
#     Edge 23, Type (0, 0), BuildingBlock: KIFKEQ_clean_linker_1, # of connection points: 2
# Relax obj value: 0.035
# Max RMSD: 0.075
# Mean RMSD: 0.075
data_MOF--net-mok--node1-QUQFOY_clean_sbu_1--edge1-KIFKEQ_clean_linker_1
_symmetry_space_group_name_H-M    P1
_symmetry_Int_Tables_number       1
_symmetry_cell_setting            triclinic
loop_
_symmetry_equiv_pos_as_xyz
'x, y, z'
_cell_length_a     55.483971
_cell_length_b     16.030381
_cell_length_c     28.9053
_cell_angle_alpha  89.957965
_cell_angle_beta   89.988588
_cell_angle_gamma 89.97093
loop_
_atom_site_label
_atom_site_type_symbol
_atom_site_fract_x
_atom_site_fract_y
_atom_site_fract_z
_atom_type_partial_charge
O0 O 0.62051 0.31543 1.00077 0.0
Cd1 Cd 0.62708 0.24864 0.06078 0.0
Cd2 Cd 0.63352 0.40254 0.09303 0.0
O3 O 0.61947 0.44186 0.03068 0.0
O4 O 0.61164 0.13792 0.04902 0.0
O5 O 0.59884 0.22563 0.10265 0.0
C6 C 0.59595 0.15669 0.08028 0.0
C7 C 0.61783 0.4396 0.16492 0.0
C8 C 0.61703 0.39342 0.99619 0.0
C9 C 0.67722 0.29282 0.0889 0.0
O10 O 0.66912 0.36674 0.09233 0.0
O11 O 0.66295 0.23244 0.08047 0.0
O12 O 0.63018 0.49203 0.14063 0.0
O13 O 0.61348 0.36721 0.14722 0.0
O14 O 0.41244 0.69157 1.00073 0.0
Cd15 Cd 0.40697 0.75777 0.06088 0.0
Cd16 Cd 0.40248 0.60449 0.09491 0.0
O17 O 0.41647 0.56667 0.03165 0.0
O18 O 0.4225 0.86843 0.04937 0.0
O19 O 0.43555 0.77898 0.10201 0.0
C20 C 0.43837 0.84851 0.08011 0.0
C21 C 0.41838 0.5656 0.16657 0.0
C22 C 0.41714 0.61438 0.99645 0.0
C23 C 0.35776 0.7114 0.09189 0.0
O24 O 0.36655 0.63851 0.09624 0.0
O25 O 0.3714 0.77246 0.08142 0.0
O26 O 0.40622 0.51352 0.14177 0.0
O27 O 0.4226 0.63853 0.14939 0.0
O28 O 0.62065 0.69397 0.66683 0.0
Cd29 Cd 0.6272 0.75888 0.60649 0.0
Cd30 Cd 0.63332 0.60379 0.57277 0.0
O31 O 0.62046 0.56723 0.63692 0.0
O32 O 0.61092 0.87001 0.61271 0.0
O33 O 0.59894 0.77221 0.56392 0.0
C34 C 0.59551 0.84455 0.58236 0.0
C35 C 0.61699 0.56039 0.5024 0.0
C36 C 0.61772 0.61571 0.67139 0.0
C37 C 0.67701 0.71473 0.5749 0.0
O38 O 0.66874 0.64145 0.56956 0.0
O39 O 0.66304 0.77405 0.58683 0.0
O40 O 0.62995 0.51058 0.52719 0.0
O41 O 0.61226 0.63334 0.51893 0.0
O42 O 0.41175 0.30097 0.66892 0.0
Cd43 Cd 0.40681 0.23974 0.60704 0.0
Cd44 Cd 0.40273 0.39585 0.57517 0.0
O45 O 0.41685 0.42686 0.63954 0.0
O46 O 0.42301 0.1281 0.61175 0.0
O47 O 0.43593 0.23004 0.56649 0.0
C48 C 0.43899 0.15613 0.5832 0.0
C49 C 0.41877 0.43951 0.50434 0.0
C50 C 0.41697 0.37761 0.67417 0.0
C51 C 0.35793 0.28987 0.5751 0.0
O52 O 0.36676 0.36296 0.57278 0.0
O53 O 0.37149 0.22792 0.58439 0.0
O54 O 0.40679 0.49034 0.53027 0.0
O55 O 0.42274 0.36536 0.51997 0.0
O56 O 0.12081 0.80833 0.99808 0.0
Cd57 Cd 0.12712 0.74245 0.0582 0.0
Cd58 Cd 0.13298 0.89679 0.0929 0.0
O59 O 0.12026 0.93443 0.02878 0.0
O60 O 0.11085 0.63143 0.05143 0.0
O61 O 0.09875 0.72871 0.10045 0.0
C62 C 0.09538 0.65657 0.08176 0.0
C63 C 0.11658 0.93888 0.16355 0.0
C64 C 0.11779 0.88663 0.99394 0.0
C65 C 0.17681 0.78641 0.09038 0.0
O66 O 0.16845 0.85953 0.09601 0.0
O67 O 0.16292 0.72713 0.07815 0.0
O68 O 0.12944 0.98927 0.13894 0.0
O69 O 0.11196 0.86612 0.14667 0.0
O70 O 0.91171 0.19723 0.99792 0.0
Cd71 Cd 0.90702 0.25753 0.06044 0.0
Cd72 Cd 0.90258 0.10153 0.08976 0.0
O73 O 0.91823 0.07187 0.02684 0.0
O74 O 0.9229 0.36978 0.0555 0.0
O75 O 0.93659 0.26773 0.0998 0.0
C76 C 0.93927 0.34191 0.08327 0.0
C77 C 0.91767 0.06189 0.16192 0.0
C78 C 0.91781 0.12136 0.99238 0.0
C79 C 0.85793 0.2059 0.08944 0.0
O80 O 0.86651 0.13238 0.08838 0.0
O81 O 0.87182 0.26856 0.08458 0.0
O82 O 0.90661 0.00892 0.13581 0.0
O83 O 0.92113 0.13606 0.14591 0.0
O84 O 0.12095 0.19427 0.66602 0.0
Cd85 Cd 0.12728 0.26019 0.60594 0.0
Cd86 Cd 0.13327 0.1058 0.57117 0.0
O87 O 0.12061 0.06814 0.63534 0.0
O88 O 0.11092 0.37113 0.6126 0.0
O89 O 0.09894 0.27368 0.56361 0.0
C90 C 0.0955 0.34584 0.58225 0.0
C91 C 0.11683 0.06345 0.50062 0.0
C92 C 0.11803 0.11593 0.67017 0.0
C93 C 0.17701 0.21655 0.57368 0.0
O94 O 0.1687 0.14343 0.56789 0.0
O95 O 0.16308 0.27567 0.58609 0.0
O96 O 0.12979 0.01323 0.52517 0.0
O97 O 0.11215 0.13619 0.5175 0.0
O98 O 0.91233 0.80745 0.66619 0.0
Cd99 Cd 0.90705 0.74358 0.60522 0.0
Cd100 Cd 0.90239 0.89819 0.57184 0.0
O101 O 0.91668 0.93256 0.63543 0.0
O102 O 0.92333 0.63227 0.61123 0.0
O103 O 0.93598 0.73207 0.56428 0.0
C104 C 0.93916 0.65899 0.58201 0.0
C105 C 0.91801 0.93943 0.50034 0.0
C106 C 0.91726 0.88451 0.67054 0.0
C107 C 0.85785 0.79133 0.57383 0.0
O108 O 0.8665 0.86453 0.57048 0.0
O109 O 0.87159 0.7301 0.58358 0.0
O110 O 0.90605 0.99095 0.52586 0.0
O111 O 0.92221 0.86595 0.51672 0.0
H112 H 0.83342 0.34503 0.11828 0.0
H113 H 0.82271 0.09297 0.07009 0.0
H114 H 0.78991 0.36413 0.1232 0.0
H115 H 0.77938 0.11314 0.0721 0.0
H116 H 0.70111 0.14754 0.10983 0.0
H117 H 0.74458 0.12624 0.11522 0.0
H118 H 0.7561 0.38494 0.07858 0.0
H119 H 0.7129 0.4067 0.07613 0.0
C120 C 0.82174 0.29388 0.10849 0.0
C121 C 0.83152 0.21757 0.09383 0.0
C122 C 0.79673 0.30488 0.11093 0.0
C123 C 0.78084 0.24042 0.09775 0.0
C124 C 0.79079 0.16388 0.08344 0.0
C125 C 0.81576 0.1524 0.08194 0.0
C126 C 0.71301 0.19978 0.10327 0.0
C127 C 0.70356 0.27877 0.09269 0.0
C128 C 0.73799 0.18761 0.10602 0.0
C129 C 0.75414 0.25379 0.09729 0.0
C130 C 0.74448 0.33271 0.08666 0.0
C131 C 0.71959 0.34516 0.08485 0.0
H132 H 0.20297 0.6462 0.06881 0.0
H133 H 0.21034 0.89522 0.12416 0.0
H134 H 0.24663 0.62861 0.07214 0.0
H135 H 0.25379 0.87689 0.12855 0.0
H136 H 0.32415 0.59693 0.11954 0.0
H137 H 0.28059 0.61367 0.12322 0.0
H138 H 0.28775 0.86908 0.07739 0.0
H139 H 0.33141 0.85298 0.07481 0.0
C140 C 0.21385 0.69676 0.08226 0.0
C141 C 0.20311 0.77225 0.09595 0.0
C142 C 0.2389 0.6866 0.08435 0.0
C143 C 0.25381 0.75157 0.10035 0.0
C144 C 0.24296 0.82613 0.11521 0.0
C145 C 0.21797 0.83639 0.11297 0.0
C146 C 0.31648 0.65693 0.11055 0.0
C147 C 0.33134 0.72362 0.0968 0.0
C148 C 0.29143 0.6663 0.11236 0.0
C149 C 0.28057 0.74255 0.10038 0.0
C150 C 0.29548 0.80972 0.08744 0.0
C151 C 0.32055 0.80043 0.08576 0.0
H152 H 0.83166 0.64917 0.59002 0.0
H153 H 0.82416 0.90581 0.54649 0.0
H154 H 0.78803 0.63266 0.58726 0.0
H155 H 0.78062 0.88867 0.54255 0.0
H156 H 0.70304 0.85499 0.5967 0.0
H157 H 0.74667 0.87293 0.59336 0.0
H158 H 0.75405 0.6251 0.53637 0.0
H159 H 0.71062 0.60639 0.54085 0.0
C160 C 0.82075 0.70176 0.57927 0.0
C161 C 0.83146 0.77886 0.56866 0.0
C162 C 0.79569 0.69224 0.57748 0.0
C163 C 0.78072 0.75946 0.56483 0.0
C164 C 0.79151 0.83598 0.55321 0.0
C165 C 0.81654 0.84559 0.55516 0.0
C166 C 0.71396 0.80461 0.58312 0.0
C167 C 0.70329 0.72911 0.56931 0.0
C168 C 0.739 0.81497 0.58102 0.0
C169 C 0.75396 0.75023 0.56485 0.0
C170 C 0.74318 0.67568 0.54985 0.0
C171 C 0.71821 0.6652 0.55214 0.0
H172 H 0.21051 0.10912 0.53834 0.0
H173 H 0.20317 0.35575 0.59692 0.0
H174 H 0.25396 0.12734 0.53425 0.0
H175 H 0.24683 0.37314 0.59398 0.0
H176 H 0.32455 0.40618 0.54865 0.0
H177 H 0.28099 0.39014 0.54388 0.0
H178 H 0.28779 0.13224 0.5855 0.0
H179 H 0.33143 0.14769 0.58908 0.0
C180 C 0.21815 0.16741 0.5503 0.0
C181 C 0.2033 0.23088 0.56815 0.0
C182 C 0.24314 0.1776 0.54823 0.0
C183 C 0.25401 0.25139 0.56415 0.0
C184 C 0.2391 0.31578 0.58094 0.0
C185 C 0.21404 0.30572 0.58281 0.0
C186 C 0.31679 0.34579 0.55645 0.0
C187 C 0.33155 0.27822 0.56934 0.0
C188 C 0.29175 0.3368 0.55402 0.0
C189 C 0.28078 0.26006 0.56455 0.0
C190 C 0.29559 0.19203 0.57656 0.0
C191 C 0.32066 0.20094 0.57882 0.0
H192 H 0.59714 0.33581 0.22883 0.0
H193 H 0.62309 0.58773 0.21035 0.0
H194 H 0.59105 0.36301 0.31115 0.0
H195 H 0.61728 0.61445 0.29247 0.0
H196 H 0.62449 0.41232 0.45786 0.0
H197 H 0.61918 0.38341 0.3758 0.0
H198 H 0.58845 0.62855 0.35628 0.0
H199 H 0.59404 0.658 0.43842 0.0
C200 C 0.60118 0.39737 0.24215 0.0
C201 C 0.61079 0.45942 0.21311 0.0
C202 C 0.59782 0.41277 0.28936 0.0
C203 C 0.60384 0.49068 0.30846 0.0
C204 C 0.61223 0.55401 0.27886 0.0
C205 C 0.6157 0.53852 0.23177 0.0
C206 C 0.61618 0.45952 0.43628 0.0
C207 C 0.60993 0.53778 0.4546 0.0
C208 C 0.61301 0.44277 0.38921 0.0
C209 C 0.60358 0.50398 0.35938 0.0
C210 C 0.59608 0.58055 0.37824 0.0
C211 C 0.59916 0.5972 0.42536 0.0
H212 H 0.41282 0.41677 0.21134 0.0
H213 H 0.43883 0.66815 0.23135 0.0
H214 H 0.41814 0.3887 0.29344 0.0
H215 H 0.44447 0.63957 0.31367 0.0
H216 H 0.441 0.342 0.43945 0.0
H217 H 0.44646 0.37261 0.35742 0.0
H218 H 0.4166 0.61861 0.37834 0.0
H219 H 0.41146 0.58854 0.46037 0.0
C220 C 0.42013 0.46558 0.23309 0.0
C221 C 0.4252 0.54491 0.21481 0.0
C222 C 0.42331 0.44932 0.28021 0.0
C223 C 0.43159 0.51207 0.31026 0.0
C224 C 0.43776 0.59024 0.29157 0.0
C225 C 0.43467 0.60641 0.24433 0.0
C226 C 0.43601 0.40319 0.42673 0.0
C227 C 0.42559 0.46258 0.45642 0.0
C228 C 0.43902 0.42052 0.37963 0.0
C229 C 0.43174 0.49772 0.36117 0.0
C230 C 0.42259 0.55876 0.39141 0.0
C231 C 0.41953 0.54136 0.43847 0.0
H232 H 0.41178 0.69397 0.91374 0.0
H233 H 0.43263 0.45706 0.97285 0.0
H234 H 0.41515 0.63579 0.83673 0.0
H235 H 0.4371 0.3993 0.89519 0.0
H236 H 0.40904 0.29829 0.7563 0.0
H237 H 0.41255 0.35494 0.83378 0.0
H238 H 0.43982 0.58608 0.77709 0.0
H239 H 0.43521 0.53025 0.69912 0.0
C240 C 0.41754 0.6297 0.9103 0.0
C241 C 0.42174 0.58001 0.94961 0.0
C242 C 0.41967 0.59636 0.86589 0.0
C243 C 0.42634 0.51254 0.8594 0.0
C244 C 0.43147 0.46365 0.89874 0.0
C245 C 0.42907 0.49686 0.94333 0.0
C246 C 0.416 0.36099 0.7603 0.0
C247 C 0.42162 0.41001 0.7214 0.0
C248 C 0.4182 0.39341 0.80495 0.0
C249 C 0.42636 0.47547 0.81201 0.0
C250 C 0.43298 0.52327 0.77308 0.0
C251 C 0.43048 0.49113 0.72831 0.0
H252 H 0.60033 0.31022 0.92026 0.0
H253 H 0.62267 0.55422 0.96669 0.0
H254 H 0.59599 0.36337 0.84177 0.0
H255 H 0.61949 0.60664 0.88798 0.0
H256 H 0.60002 0.69789 0.74684 0.0
H257 H 0.59526 0.64451 0.82518 0.0
H258 H 0.62068 0.40289 0.77988 0.0
H259 H 0.62427 0.45549 0.70126 0.0
C260 C 0.60424 0.37536 0.9137 0.0
C261 C 0.61197 0.42791 0.94966 0.0
C262 C 0.60193 0.40577 0.86857 0.0
C263 C 0.60765 0.48921 0.85813 0.0
C264 C 0.61458 0.54237 0.89456 0.0
C265 C 0.61654 0.51222 0.93981 0.0
C266 C 0.60429 0.63306 0.75357 0.0
C267 C 0.61265 0.58103 0.71788 0.0
C268 C 0.60173 0.60252 0.79861 0.0
C269 C 0.60783 0.51948 0.80927 0.0
C270 C 0.61545 0.46682 0.77311 0.0
C271 C 0.61766 0.49707 0.72792 0.0
H272 H 0.09473 0.8389 0.22783 0.0
H273 H 0.12291 0.08761 0.20804 0.0
H274 H 0.08898 0.86797 0.31001 0.0
H275 H 0.1174 0.11622 0.29009 0.0
H276 H 0.12334 0.91481 0.45609 0.0
H277 H 0.1177 0.88607 0.37409 0.0
H278 H 0.08879 0.13378 0.35439 0.0
H279 H 0.09466 0.16299 0.43652 0.0
C280 C 0.09931 0.90025 0.24082 0.0
C281 C 0.10948 0.96073 0.21145 0.0
C282 C 0.09614 0.91669 0.28797 0.0
C283 C 0.10292 0.99412 0.3067 0.0
C284 C 0.11179 0.05616 0.27677 0.0
C285 C 0.11507 0.0396 0.2297 0.0
C286 C 0.11536 0.96267 0.43449 0.0
C287 C 0.10967 0.04145 0.45278 0.0
C288 C 0.112 0.94603 0.38746 0.0
C289 C 0.10297 0.0079 0.3576 0.0
C290 C 0.09608 0.08521 0.37638 0.0
C291 C 0.09933 0.10173 0.4235 0.0
H292 H 0.91092 0.08762 0.45555 0.0
H293 H 0.93947 0.83941 0.43564 0.0
H294 H 0.91581 0.11591 0.37331 0.0
H295 H 0.94469 0.86824 0.35331 0.0
H296 H 0.93835 0.16335 0.22673 0.0
H297 H 0.94383 0.13477 0.30899 0.0
H298 H 0.91646 0.88515 0.28901 0.0
H299 H 0.91132 0.91323 0.20677 0.0
C300 C 0.91871 0.03965 0.4338 0.0
C301 C 0.9246 0.96103 0.45211 0.0
C302 C 0.92163 0.05602 0.38662 0.0
C303 C 0.93047 0.99408 0.35661 0.0
C304 C 0.9375 0.91685 0.37537 0.0
C305 C 0.93465 0.90056 0.42262 0.0
C306 C 0.93389 0.10188 0.23974 0.0
C307 C 0.92421 0.04075 0.21024 0.0
C308 C 0.9369 0.0857 0.28695 0.0
C309 C 0.93039 0.00796 0.30569 0.0
C310 C 0.92188 0.94547 0.2757 0.0
C311 C 0.91881 0.9617 0.22852 0.0
H312 H 0.91219 0.80503 0.75343 0.0
H313 H 0.93299 0.04147 0.69373 0.0
H314 H 0.91593 0.8636 0.83036 0.0
H315 H 0.93775 0.09959 0.7712 0.0
H316 H 0.90956 0.20078 0.91032 0.0
H317 H 0.91302 0.14399 0.8328 0.0
H318 H 0.94123 0.91401 0.88931 0.0
H319 H 0.93675 0.96994 0.96726 0.0
C320 C 0.91801 0.86924 0.75671 0.0
C321 C 0.92209 0.91873 0.7173 0.0
C322 C 0.92035 0.9028 0.80104 0.0
C323 C 0.92708 0.98662 0.80727 0.0
C324 C 0.93209 0.03526 0.76781 0.0
C325 C 0.92951 0.00182 0.72334 0.0
C326 C 0.91674 0.13836 0.90626 0.0
C327 C 0.92265 0.08961 0.9451 0.0
C328 C 0.91889 0.10587 0.86161 0.0
C329 C 0.92726 0.02402 0.85454 0.0
C330 C 0.93422 0.97664 0.89337 0.0
C331 C 0.93181 0.00886 0.93812 0.0
H332 H 0.12412 0.04772 0.9653 0.0
H333 H 0.10098 0.80557 0.91738 0.0
H334 H 0.12105 0.10189 0.88691 0.0
H335 H 0.09676 0.86047 0.83924 0.0
H336 H 0.10099 0.19686 0.74661 0.0
H337 H 0.09664 0.14193 0.82471 0.0
H338 H 0.1213 0.90073 0.77725 0.0
H339 H 0.1245 0.95492 0.69888 0.0
C340 C 0.11787 0.0065 0.93816 0.0
C341 C 0.113 0.92219 0.94751 0.0
C342 C 0.11597 0.03765 0.89309 0.0
C343 C 0.10881 0.98554 0.85635 0.0
C344 C 0.10288 0.90208 0.86628 0.0
C345 C 0.10512 0.87067 0.91121 0.0
C346 C 0.10518 0.13179 0.75281 0.0
C347 C 0.1132 0.08034 0.71657 0.0
C348 C 0.10286 0.10037 0.79772 0.0
C349 C 0.10886 0.01696 0.8077 0.0
C350 C 0.11616 0.96492 0.77102 0.0
C351 C 0.11814 0.99609 0.72597 0.0
H352 H 0.45571 0.96889 0.02265 0.0
H353 H 0.47108 0.84221 0.15133 0.0
H354 H 0.49448 0.0403 0.02723 0.0
H355 H 0.50979 0.91605 0.15629 0.0
H356 H 0.56346 0.16104 0.15195 0.0
H357 H 0.52476 0.08697 0.1568 0.0
H358 H 0.53979 0.96584 0.02679 0.0
H359 H 0.57853 0.03746 0.0223 0.0
C360 C 0.46713 0.95746 0.05237 0.0
C361 C 0.46034 0.8997 0.08658 0.0
C362 C 0.48937 0.99803 0.0548 0.0
C363 C 0.50508 0.98307 0.09193 0.0
C364 C 0.49791 0.92849 0.12735 0.0
C365 C 0.47581 0.88639 0.12446 0.0
C366 C 0.55867 0.11746 0.12485 0.0
C367 C 0.57405 0.10512 0.08673 0.0
C368 C 0.53658 0.07524 0.12767 0.0
C369 C 0.52933 0.02152 0.09195 0.0
C370 C 0.54497 0.00746 0.05459 0.0
C371 C 0.56718 0.04814 0.05222 0.0
H372 H 0.55453 0.79119 0.53919 0.0
H373 H 0.58639 0.00765 0.60375 0.0
H374 H 0.51627 0.86585 0.53192 0.0
H375 H 0.54821 0.08237 0.59595 0.0
H376 H 0.4804 0.21248 0.54277 0.0
H377 H 0.51869 0.13828 0.53498 0.0
H378 H 0.48621 0.91732 0.59328 0.0
H379 H 0.44797 0.99157 0.6016 0.0
C380 C 0.55351 0.85518 0.55105 0.0
C381 C 0.57347 0.89344 0.57222 0.0
C382 C 0.53156 0.89765 0.54711 0.0
C383 C 0.52924 0.97973 0.56353 0.0
C384 C 0.54952 0.01934 0.58269 0.0
C385 C 0.57135 0.97645 0.5873 0.0
C386 C 0.48131 0.14769 0.5533 0.0
C387 C 0.46117 0.10797 0.57301 0.0
C388 C 0.50327 0.10544 0.54904 0.0
C389 C 0.50545 0.0222 0.56367 0.0
C390 C 0.48502 0.98129 0.58139 0.0
C391 C 0.46315 0.02391 0.58632 0.0
H392 H 0.08639 0.49362 0.05985 0.0
H393 H 0.05434 0.70919 0.12512 0.0
H394 H 0.04834 0.41827 0.06786 0.0
H395 H 1.01621 0.6339 0.1326 0.0
H396 H 0.94778 0.5067 0.06459 0.0
H397 H 0.98592 0.58183 0.07194 0.0
H398 H 0.01928 0.36151 0.12923 0.0
H399 H 0.98112 0.28645 0.12241 0.0
C400 C 0.07134 0.52452 0.07647 0.0
C401 C 0.07337 0.60743 0.09173 0.0
C402 C 0.04958 0.48126 0.08119 0.0
C403 C 0.02929 0.5204 0.10066 0.0
C404 C 0.03151 0.60245 0.11716 0.0
C405 C 0.05339 0.64529 0.11311 0.0
C406 C 0.96314 0.47468 0.07943 0.0
C407 C 0.96143 0.39056 0.09277 0.0
C408 C 0.98495 0.51779 0.08379 0.0
C409 C 1.00559 0.47734 0.10095 0.0
C410 C 1.0037 0.39401 0.11557 0.0
C411 C 0.98181 0.35127 0.11188 0.0
H412 H 0.08647 0.50911 0.60344 0.0
H413 H 0.05441 0.29238 0.53953 0.0
H414 H 0.04833 0.58412 0.59552 0.0
H415 H 1.01619 0.36729 0.53221 0.0
H416 H 0.94804 0.49489 0.6017 0.0
H417 H 0.98623 0.42009 0.59383 0.0
H418 H 0.01883 0.63934 0.53383 0.0
H419 H 0.98059 0.71404 0.54111 0.0
C420 C 0.07139 0.47789 0.58713 0.0
C421 C 0.07345 0.39476 0.57223 0.0
C422 C 0.04958 0.52094 0.58246 0.0
C423 C 0.02927 0.48135 0.56344 0.0
C424 C 0.03151 0.39909 0.54727 0.0
C425 C 0.05344 0.35647 0.55124 0.0
C426 C 0.96324 0.52672 0.58615 0.0
C427 C 0.9613 0.61044 0.57217 0.0
C428 C 0.98507 0.48379 0.58149 0.0
C429 C 1.00552 0.52408 0.56341 0.0
C430 C 1.0034 0.60699 0.54817 0.0
C431 C 0.98146 0.64951 0.55213 0.0
loop_
_geom_bond_atom_site_label_1
_geom_bond_atom_site_label_2
_geom_bond_distance
_geom_bond_site_symmetry_2
_ccdc_geom_bond_type
O0 Cd1 2.223 1_556 S
O0 C8 1.315 . S
Cd1 O0 2.223 1_554 S
Cd1 O4 2.297 1_554 S
Cd1 O5 2.439 . S
Cd1 O11 2.240 . S
Cd2 O3 2.240 . S
Cd2 O10 2.223 . S
Cd2 O12 2.297 . S
Cd2 O13 2.439 . S
O3 Cd2 2.240 . S
O3 C8 1.279 1_554 S
O4 Cd1 2.297 1_556 S
O4 C6 1.247 1_556 S
O5 Cd1 2.439 . S
O5 C6 1.208 . S
C6 O4 1.247 1_554 S
C6 O5 1.208 . S
C7 O12 1.247 . S
C7 O13 1.208 . S
C8 O0 1.315 . S
C8 O3 1.279 1_556 S
C9 O10 1.315 . S
C9 O11 1.279 . S
O10 Cd2 2.223 . S
O10 C9 1.315 . S
O11 Cd1 2.240 . S
O11 C9 1.279 . S
O12 Cd2 2.297 . S
O12 C7 1.247 . S
O13 Cd2 2.439 . S
O13 C7 1.208 . S
O14 Cd15 2.223 1_556 S
O14 C22 1.315 . S
Cd15 O14 2.223 1_554 S
Cd15 O18 2.297 1_554 S
Cd15 O19 2.439 . S
Cd15 O25 2.240 . S
Cd16 O17 2.240 . S
Cd16 O24 2.223 . S
Cd16 O26 2.297 . S
Cd16 O27 2.439 . S
O17 Cd16 2.240 . S
O17 C22 1.279 1_554 S
O18 Cd15 2.297 1_556 S
O18 C20 1.247 1_556 S
O19 Cd15 2.439 . S
O19 C20 1.208 . S
C20 O18 1.247 1_554 S
C20 O19 1.208 . S
C21 O26 1.247 . S
C21 O27 1.208 . S
C22 O14 1.315 . S
C22 O17 1.279 1_556 S
C23 O24 1.315 . S
C23 O25 1.279 . S
O24 Cd16 2.223 . S
O24 C23 1.315 . S
O25 Cd15 2.240 . S
O25 C23 1.279 . S
O26 Cd16 2.297 . S
O26 C21 1.247 . S
O27 Cd16 2.439 . S
O27 C21 1.208 . S
O28 Cd29 2.223 . S
O28 C36 1.315 . S
Cd29 O28 2.223 . S
Cd29 O32 2.297 . S
Cd29 O33 2.439 . S
Cd29 O39 2.240 . S
Cd30 O31 2.240 . S
Cd30 O38 2.223 . S
Cd30 O40 2.297 . S
Cd30 O41 2.439 . S
O31 Cd30 2.240 . S
O31 C36 1.279 . S
O32 Cd29 2.297 . S
O32 C34 1.247 . S
O33 Cd29 2.439 . S
O33 C34 1.208 . S
C34 O32 1.247 . S
C34 O33 1.208 . S
C35 O40 1.247 . S
C35 O41 1.208 . S
C36 O28 1.315 . S
C36 O31 1.279 . S
C37 O38 1.315 . S
C37 O39 1.279 . S
O38 Cd30 2.223 . S
O38 C37 1.315 . S
O39 Cd29 2.240 . S
O39 C37 1.279 . S
O40 Cd30 2.297 . S
O40 C35 1.247 . S
O41 Cd30 2.439 . S
O41 C35 1.208 . S
O42 Cd43 2.223 . S
O42 C50 1.315 . S
Cd43 O42 2.223 . S
Cd43 O46 2.297 . S
Cd43 O47 2.439 . S
Cd43 O53 2.240 . S
Cd44 O45 2.240 . S
Cd44 O52 2.223 . S
Cd44 O54 2.297 . S
Cd44 O55 2.439 . S
O45 Cd44 2.240 . S
O45 C50 1.279 . S
O46 Cd43 2.297 . S
O46 C48 1.247 . S
O47 Cd43 2.439 . S
O47 C48 1.208 . S
C48 O46 1.247 . S
C48 O47 1.208 . S
C49 O54 1.247 . S
C49 O55 1.208 . S
C50 O42 1.315 . S
C50 O45 1.279 . S
C51 O52 1.315 . S
C51 O53 1.279 . S
O52 Cd44 2.223 . S
O52 C51 1.315 . S
O53 Cd43 2.240 . S
O53 C51 1.279 . S
O54 Cd44 2.297 . S
O54 C49 1.247 . S
O55 Cd44 2.439 . S
O55 C49 1.208 . S
O56 Cd57 2.223 1_556 S
O56 C64 1.315 . S
Cd57 O56 2.223 1_554 S
Cd57 O60 2.297 1_554 S
Cd57 O61 2.439 . S
Cd57 O67 2.240 . S
Cd58 O59 2.240 . S
Cd58 O66 2.223 . S
Cd58 O68 2.297 . S
Cd58 O69 2.439 . S
O59 Cd58 2.240 . S
O59 C64 1.279 1_554 S
O60 Cd57 2.297 1_556 S
O60 C62 1.247 1_556 S
O61 Cd57 2.439 . S
O61 C62 1.208 . S
C62 O60 1.247 1_554 S
C62 O61 1.208 . S
C63 O68 1.247 . S
C63 O69 1.208 . S
C64 O56 1.315 . S
C64 O59 1.279 1_556 S
C65 O66 1.315 . S
C65 O67 1.279 . S
O66 Cd58 2.223 . S
O66 C65 1.315 . S
O67 Cd57 2.240 . S
O67 C65 1.279 . S
O68 Cd58 2.297 . S
O68 C63 1.247 . S
O69 Cd58 2.439 . S
O69 C63 1.208 . S
O70 Cd71 2.223 1_556 S
O70 C78 1.315 . S
Cd71 O70 2.223 1_554 S
Cd71 O74 2.297 1_554 S
Cd71 O75 2.439 . S
Cd71 O81 2.240 . S
Cd72 O73 2.240 . S
Cd72 O80 2.223 . S
Cd72 O82 2.297 . S
Cd72 O83 2.439 . S
O73 Cd72 2.240 . S
O73 C78 1.279 1_554 S
O74 Cd71 2.297 1_556 S
O74 C76 1.247 1_556 S
O75 Cd71 2.439 . S
O75 C76 1.208 . S
C76 O74 1.247 1_554 S
C76 O75 1.208 . S
C77 O82 1.247 . S
C77 O83 1.208 . S
C78 O70 1.315 . S
C78 O73 1.279 1_556 S
C79 O80 1.315 . S
C79 O81 1.279 . S
O80 Cd72 2.223 . S
O80 C79 1.315 . S
O81 Cd71 2.240 . S
O81 C79 1.279 . S
O82 Cd72 2.297 . S
O82 C77 1.247 . S
O83 Cd72 2.439 . S
O83 C77 1.208 . S
O84 Cd85 2.223 . S
O84 C92 1.315 . S
Cd85 O84 2.223 . S
Cd85 O88 2.297 . S
Cd85 O89 2.439 . S
Cd85 O95 2.240 . S
Cd86 O87 2.240 . S
Cd86 O94 2.223 . S
Cd86 O96 2.297 . S
Cd86 O97 2.439 . S
O87 Cd86 2.240 . S
O87 C92 1.279 . S
O88 Cd85 2.297 . S
O88 C90 1.247 . S
O89 Cd85 2.439 . S
O89 C90 1.208 . S
C90 O88 1.247 . S
C90 O89 1.208 . S
C91 O96 1.247 . S
C91 O97 1.208 . S
C92 O84 1.315 . S
C92 O87 1.279 . S
C93 O94 1.315 . S
C93 O95 1.279 . S
O94 Cd86 2.223 . S
O94 C93 1.315 . S
O95 Cd85 2.240 . S
O95 C93 1.279 . S
O96 Cd86 2.297 . S
O96 C91 1.247 . S
O97 Cd86 2.439 . S
O97 C91 1.208 . S
O98 Cd99 2.223 . S
O98 C106 1.315 . S
Cd99 O98 2.223 . S
Cd99 O102 2.297 . S
Cd99 O103 2.439 . S
Cd99 O109 2.240 . S
Cd100 O101 2.240 . S
Cd100 O108 2.223 . S
Cd100 O110 2.297 . S
Cd100 O111 2.439 . S
O101 Cd100 2.240 . S
O101 C106 1.279 . S
O102 Cd99 2.297 . S
O102 C104 1.247 . S
O103 Cd99 2.439 . S
O103 C104 1.208 . S
C104 O102 1.247 . S
C104 O103 1.208 . S
C105 O110 1.247 . S
C105 O111 1.208 . S
C106 O98 1.315 . S
C106 O101 1.279 . S
C107 O108 1.315 . S
C107 O109 1.279 . S
O108 Cd100 2.223 . S
O108 C107 1.315 . S
O109 Cd99 2.240 . S
O109 C107 1.279 . S
O110 Cd100 2.297 . S
O110 C105 1.247 . S
O111 Cd100 2.439 . S
O111 C105 1.208 . S
H112 C120 0.950 1_556 S
H113 C125 0.950 . S
H114 C122 0.950 1_556 S
H115 C124 0.950 . S
H116 C126 0.950 . S
H117 C128 0.950 . S
H118 C130 0.950 1_556 S
H119 C131 0.950 1_556 S
C120 H112 0.950 1_554 S
C120 C121 1.386 . S
C120 C122 1.391 . S
C121 C120 1.386 . S
C121 C125 1.393 . S
C122 H114 0.950 1_554 S
C122 C120 1.391 . S
C122 C123 1.400 . S
C123 C122 1.400 . S
C123 C124 1.398 . S
C123 C129 1.491 . S
C124 H115 0.950 . S
C124 C123 1.398 . S
C124 C125 1.391 . S
C125 H113 0.950 . S
C125 C121 1.393 . S
C125 C124 1.391 . S
C126 H116 0.950 . S
C126 C127 1.386 . S
C126 C128 1.391 . S
C127 C126 1.386 . S
C127 C131 1.393 . S
C128 H117 0.950 . S
C128 C126 1.391 . S
C128 C129 1.400 . S
C129 C123 1.491 . S
C129 C128 1.400 . S
C129 C130 1.398 . S
C130 H118 0.950 1_554 S
C130 C129 1.398 . S
C130 C131 1.391 . S
C131 H119 0.950 1_554 S
C131 C127 1.393 . S
C131 C130 1.391 . S
H132 C140 0.946 1_556 S
H133 C145 0.950 . S
H134 C142 0.947 1_556 S
H135 C144 0.950 . S
H136 C146 0.950 . S
H137 C148 0.950 . S
H138 C150 0.948 1_556 S
H139 C151 0.950 . S
C140 H132 0.946 1_554 S
C140 C141 1.389 . S
C140 C142 1.391 . S
C141 C140 1.389 . S
C141 C145 1.393 . S
C142 H134 0.947 1_554 S
C142 C140 1.391 . S
C142 C143 1.402 . S
C143 C142 1.402 . S
C143 C144 1.398 . S
C143 C149 1.491 . S
C144 H135 0.950 . S
C144 C143 1.398 . S
C144 C145 1.391 . S
C145 H133 0.950 . S
C145 C141 1.393 . S
C145 C144 1.391 . S
C146 H136 0.950 . S
C146 C147 1.386 . S
C146 C148 1.391 . S
C147 C146 1.386 . S
C147 C151 1.392 1_554 S
C148 H137 0.950 . S
C148 C146 1.391 . S
C148 C149 1.400 . S
C149 C143 1.491 . S
C149 C148 1.400 . S
C149 C150 1.400 . S
C150 H138 0.948 1_554 S
C150 C149 1.400 . S
C150 C151 1.391 1_554 S
C151 H139 0.950 . S
C151 C147 1.392 1_556 S
C151 C150 1.391 1_556 S
H152 C160 0.950 . S
H153 C165 0.950 . S
H154 C162 0.950 . S
H155 C164 0.950 . S
H156 C166 0.950 . S
H157 C168 0.950 . S
H158 C170 0.950 . S
H159 C171 0.950 . S
C160 H152 0.950 . S
C160 C161 1.386 . S
C160 C162 1.391 . S
C161 C160 1.386 . S
C161 C165 1.393 . S
C162 H154 0.950 . S
C162 C160 1.391 . S
C162 C163 1.400 . S
C163 C162 1.400 . S
C163 C164 1.398 . S
C163 C169 1.491 . S
C164 H155 0.950 . S
C164 C163 1.398 . S
C164 C165 1.391 . S
C165 H153 0.950 . S
C165 C161 1.393 . S
C165 C164 1.391 . S
C166 H156 0.950 . S
C166 C167 1.386 . S
C166 C168 1.391 . S
C167 C166 1.386 . S
C167 C171 1.393 . S
C168 H157 0.950 . S
C168 C166 1.391 . S
C168 C169 1.400 . S
C169 C163 1.491 . S
C169 C168 1.400 . S
C169 C170 1.398 . S
C170 H158 0.950 . S
C170 C169 1.398 . S
C170 C171 1.391 . S
C171 H159 0.950 . S
C171 C167 1.393 . S
C171 C170 1.391 . S
H172 C180 0.950 . S
H173 C185 0.950 . S
H174 C182 0.950 . S
H175 C184 0.950 . S
H176 C186 0.950 . S
H177 C188 0.950 . S
H178 C190 0.950 . S
H179 C191 0.950 . S
C180 H172 0.950 . S
C180 C181 1.386 . S
C180 C182 1.391 . S
C181 C180 1.386 . S
C181 C185 1.393 . S
C182 H174 0.950 . S
C182 C180 1.391 . S
C182 C183 1.400 . S
C183 C182 1.400 . S
C183 C184 1.398 . S
C183 C189 1.491 . S
C184 H175 0.950 . S
C184 C183 1.398 . S
C184 C185 1.391 . S
C185 H173 0.950 . S
C185 C181 1.393 . S
C185 C184 1.391 . S
C186 H176 0.950 . S
C186 C187 1.386 . S
C186 C188 1.391 . S
C187 C186 1.386 . S
C187 C191 1.393 . S
C188 H177 0.950 . S
C188 C186 1.391 . S
C188 C189 1.400 . S
C189 C183 1.491 . S
C189 C188 1.400 . S
C189 C190 1.398 . S
C190 H178 0.950 . S
C190 C189 1.398 . S
C190 C191 1.391 . S
C191 H179 0.950 . S
C191 C187 1.393 . S
C191 C190 1.391 . S
H192 C200 0.950 . S
H193 C205 0.950 . S
H194 C202 0.950 . S
H195 C204 0.950 . S
H196 C206 0.950 . S
H197 C208 0.950 . S
H198 C210 0.950 . S
H199 C211 0.950 . S
C200 H192 0.950 . S
C200 C201 1.386 . S
C200 C202 1.391 . S
C201 C200 1.386 . S
C201 C205 1.393 . S
C202 H194 0.950 . S
C202 C200 1.391 . S
C202 C203 1.400 . S
C203 C202 1.400 . S
C203 C204 1.398 . S
C203 C209 1.491 . S
C204 H195 0.950 . S
C204 C203 1.398 . S
C204 C205 1.391 . S
C205 H193 0.950 . S
C205 C201 1.393 . S
C205 C204 1.391 . S
C206 H196 0.950 . S
C206 C207 1.386 . S
C206 C208 1.391 . S
C207 C206 1.386 . S
C207 C211 1.393 . S
C208 H197 0.950 . S
C208 C206 1.391 . S
C208 C209 1.400 . S
C209 C203 1.491 . S
C209 C208 1.400 . S
C209 C210 1.398 . S
C210 H198 0.950 . S
C210 C209 1.398 . S
C210 C211 1.391 . S
C211 H199 0.950 . S
C211 C207 1.393 . S
C211 C210 1.391 . S
H212 C220 0.950 . S
H213 C225 0.950 . S
H214 C222 0.950 . S
H215 C224 0.950 . S
H216 C226 0.950 . S
H217 C228 0.950 . S
H218 C230 0.950 . S
H219 C231 0.950 . S
C220 H212 0.950 . S
C220 C221 1.386 . S
C220 C222 1.391 . S
C221 C220 1.386 . S
C221 C225 1.393 . S
C222 H214 0.950 . S
C222 C220 1.391 . S
C222 C223 1.400 . S
C223 C222 1.400 . S
C223 C224 1.398 . S
C223 C229 1.491 . S
C224 H215 0.950 . S
C224 C223 1.398 . S
C224 C225 1.391 . S
C225 H213 0.950 . S
C225 C221 1.393 . S
C225 C224 1.391 . S
C226 H216 0.950 . S
C226 C227 1.386 . S
C226 C228 1.391 . S
C227 C226 1.386 . S
C227 C231 1.393 . S
C228 H217 0.950 . S
C228 C226 1.391 . S
C228 C229 1.400 . S
C229 C223 1.491 . S
C229 C228 1.400 . S
C229 C230 1.398 . S
C230 H218 0.950 . S
C230 C229 1.398 . S
C230 C231 1.391 . S
C231 H219 0.950 . S
C231 C227 1.393 . S
C231 C230 1.391 . S
H232 C240 0.950 . S
H233 C245 0.950 . S
H234 C242 0.950 . S
H235 C244 0.950 . S
H236 C246 0.950 . S
H237 C248 0.950 . S
H238 C250 0.950 . S
H239 C251 0.950 . S
C240 H232 0.950 . S
C240 C241 1.386 . S
C240 C242 1.391 . S
C241 C240 1.386 . S
C241 C245 1.393 . S
C242 H234 0.950 . S
C242 C240 1.391 . S
C242 C243 1.400 . S
C243 C242 1.400 . S
C243 C244 1.398 . S
C243 C249 1.491 . S
C244 H235 0.950 . S
C244 C243 1.398 . S
C244 C245 1.391 . S
C245 H233 0.950 . S
C245 C241 1.393 . S
C245 C244 1.391 . S
C246 H236 0.950 . S
C246 C247 1.386 . S
C246 C248 1.391 . S
C247 C246 1.386 . S
C247 C251 1.393 . S
C248 H237 0.950 . S
C248 C246 1.391 . S
C248 C249 1.400 . S
C249 C243 1.491 . S
C249 C248 1.400 . S
C249 C250 1.398 . S
C250 H238 0.950 . S
C250 C249 1.398 . S
C250 C251 1.391 . S
C251 H239 0.950 . S
C251 C247 1.393 . S
C251 C250 1.391 . S
H252 C260 0.950 . S
H253 C265 0.950 . S
H254 C262 0.950 . S
H255 C264 0.950 . S
H256 C266 0.950 . S
H257 C268 0.950 . S
H258 C270 0.950 . S
H259 C271 0.950 . S
C260 H252 0.950 . S
C260 C261 1.386 . S
C260 C262 1.391 . S
C261 C260 1.386 . S
C261 C265 1.393 . S
C262 H254 0.950 . S
C262 C260 1.391 . S
C262 C263 1.400 . S
C263 C262 1.400 . S
C263 C264 1.398 . S
C263 C269 1.491 . S
C264 H255 0.950 . S
C264 C263 1.398 . S
C264 C265 1.391 . S
C265 H253 0.950 . S
C265 C261 1.393 . S
C265 C264 1.391 . S
C266 H256 0.950 . S
C266 C267 1.386 . S
C266 C268 1.391 . S
C267 C266 1.386 . S
C267 C271 1.393 . S
C268 H257 0.950 . S
C268 C266 1.391 . S
C268 C269 1.400 . S
C269 C263 1.491 . S
C269 C268 1.400 . S
C269 C270 1.398 . S
C270 H258 0.950 . S
C270 C269 1.398 . S
C270 C271 1.391 . S
C271 H259 0.950 . S
C271 C267 1.393 . S
C271 C270 1.391 . S
H272 C280 0.950 . S
H273 C285 0.950 . S
H274 C282 0.950 . S
H275 C284 0.950 . S
H276 C286 0.950 . S
H277 C288 0.950 . S
H278 C290 0.950 . S
H279 C291 0.950 . S
C280 H272 0.950 . S
C280 C281 1.386 . S
C280 C282 1.391 1_565 S
C281 C280 1.386 . S
C281 C285 1.393 . S
C282 H274 0.950 . S
C282 C280 1.391 1_545 S
C282 C283 1.400 1_545 S
C283 C282 1.400 1_565 S
C283 C284 1.398 . S
C283 C289 1.491 1_565 S
C284 H275 0.950 . S
C284 C283 1.398 . S
C284 C285 1.391 . S
C285 H273 0.950 . S
C285 C281 1.393 . S
C285 C284 1.391 . S
C286 H276 0.950 . S
C286 C287 1.386 . S
C286 C288 1.391 1_545 S
C287 C286 1.386 . S
C287 C291 1.393 . S
C288 H277 0.950 . S
C288 C286 1.391 1_565 S
C288 C289 1.400 1_565 S
C289 C283 1.491 1_545 S
C289 C288 1.400 1_545 S
C289 C290 1.398 . S
C290 H278 0.950 . S
C290 C289 1.398 . S
C290 C291 1.391 . S
C291 H279 0.950 . S
C291 C287 1.393 . S
C291 C290 1.391 . S
H292 C300 0.950 1_545 S
H293 C305 0.950 . S
H294 C302 0.950 . S
H295 C304 0.950 . S
H296 C306 0.950 1_565 S
H297 C308 0.950 . S
H298 C310 0.950 . S
H299 C311 0.950 . S
C300 H292 0.950 1_565 S
C300 C301 1.386 . S
C300 C302 1.391 1_565 S
C301 C300 1.386 . S
C301 C305 1.393 . S
C302 H294 0.950 . S
C302 C300 1.391 1_545 S
C302 C303 1.400 1_545 S
C303 C302 1.400 1_565 S
C303 C304 1.398 . S
C303 C309 1.491 1_565 S
C304 H295 0.950 . S
C304 C303 1.398 . S
C304 C305 1.391 . S
C305 H293 0.950 . S
C305 C301 1.393 . S
C305 C304 1.391 . S
C306 H296 0.950 1_545 S
C306 C307 1.386 . S
C306 C308 1.391 1_545 S
C307 C306 1.386 . S
C307 C311 1.393 . S
C308 H297 0.950 . S
C308 C306 1.391 1_565 S
C308 C309 1.400 1_565 S
C309 C303 1.491 1_545 S
C309 C308 1.400 1_545 S
C309 C310 1.398 . S
C310 H298 0.950 . S
C310 C309 1.398 . S
C310 C311 1.391 . S
C311 H299 0.950 . S
C311 C307 1.393 . S
C311 C310 1.391 . S
H312 C320 0.950 . S
H313 C325 0.950 . S
H314 C322 0.950 . S
H315 C324 0.950 . S
H316 C326 0.950 . S
H317 C328 0.950 . S
H318 C330 0.950 . S
H319 C331 0.950 . S
C320 H312 0.950 . S
C320 C321 1.386 . S
C320 C322 1.391 . S
C321 C320 1.386 . S
C321 C325 1.393 . S
C322 H314 0.950 . S
C322 C320 1.391 . S
C322 C323 1.400 . S
C323 C322 1.400 . S
C323 C324 1.398 1_565 S
C323 C329 1.491 1_565 S
C324 H315 0.950 . S
C324 C323 1.398 1_545 S
C324 C325 1.391 1_545 S
C325 H313 0.950 . S
C325 C321 1.393 . S
C325 C324 1.391 1_565 S
C326 H316 0.950 . S
C326 C327 1.386 . S
C326 C328 1.391 . S
C327 C326 1.386 . S
C327 C331 1.393 . S
C328 H317 0.950 . S
C328 C326 1.391 . S
C328 C329 1.400 . S
C329 C323 1.491 1_545 S
C329 C328 1.400 . S
C329 C330 1.398 1_545 S
C330 H318 0.950 . S
C330 C329 1.398 1_565 S
C330 C331 1.391 1_565 S
C331 H319 0.950 . S
C331 C327 1.393 . S
C331 C330 1.391 1_545 S
H332 C340 0.950 . S
H333 C345 0.950 . S
H334 C342 0.950 . S
H335 C344 0.950 . S
H336 C346 0.950 . S
H337 C348 0.950 . S
H338 C350 0.950 . S
H339 C351 0.950 . S
C340 H332 0.950 . S
C340 C341 1.386 . S
C340 C342 1.391 . S
C341 C340 1.386 . S
C341 C345 1.393 . S
C342 H334 0.950 . S
C342 C340 1.391 . S
C342 C343 1.400 . S
C343 C342 1.400 . S
C343 C344 1.398 . S
C343 C349 1.491 1_565 S
C344 H335 0.950 . S
C344 C343 1.398 . S
C344 C345 1.391 . S
C345 H333 0.950 . S
C345 C341 1.393 . S
C345 C344 1.391 . S
C346 H336 0.950 . S
C346 C347 1.386 . S
C346 C348 1.391 . S
C347 C346 1.386 . S
C347 C351 1.393 . S
C348 H337 0.950 . S
C348 C346 1.391 . S
C348 C349 1.400 . S
C349 C343 1.491 1_545 S
C349 C348 1.400 . S
C349 C350 1.398 . S
C350 H338 0.950 . S
C350 C349 1.398 . S
C350 C351 1.391 . S
C351 H339 0.950 . S
C351 C347 1.393 . S
C351 C350 1.391 . S
H352 C360 0.950 . S
H353 C365 0.950 . S
H354 C362 0.950 . S
H355 C364 0.950 . S
H356 C366 0.950 . S
H357 C368 0.950 . S
H358 C370 0.950 . S
H359 C371 0.950 . S
C360 H352 0.950 . S
C360 C361 1.386 1_556 S
C360 C362 1.391 . S
C361 C360 1.386 1_554 S
C361 C365 1.393 . S
C362 H354 0.950 . S
C362 C360 1.391 . S
C362 C363 1.400 1_556 S
C363 C362 1.400 1_554 S
C363 C364 1.398 . S
C363 C369 1.491 1_565 S
C364 H355 0.950 . S
C364 C363 1.398 . S
C364 C365 1.391 . S
C365 H353 0.950 . S
C365 C361 1.393 . S
C365 C364 1.391 . S
C366 H356 0.950 . S
C366 C367 1.386 . S
C366 C368 1.391 . S
C367 C366 1.386 . S
C367 C371 1.393 1_554 S
C368 H357 0.950 . S
C368 C366 1.391 . S
C368 C369 1.400 . S
C369 C363 1.491 1_545 S
C369 C368 1.400 . S
C369 C370 1.398 1_554 S
C370 H358 0.950 . S
C370 C369 1.398 1_556 S
C370 C371 1.391 . S
C371 H359 0.950 . S
C371 C367 1.393 1_556 S
C371 C370 1.391 . S
H372 C380 0.950 . S
H373 C385 0.950 . S
H374 C382 0.950 . S
H375 C384 0.950 1_545 S
H376 C386 0.950 . S
H377 C388 0.950 . S
H378 C390 0.950 1_565 S
H379 C391 0.950 . S
C380 H372 0.950 . S
C380 C381 1.386 . S
C380 C382 1.391 . S
C381 C380 1.386 . S
C381 C385 1.393 . S
C382 H374 0.950 . S
C382 C380 1.391 . S
C382 C383 1.400 . S
C383 C382 1.400 . S
C383 C384 1.398 . S
C383 C389 1.491 1_565 S
C384 H375 0.950 1_565 S
C384 C383 1.398 . S
C384 C385 1.391 . S
C385 H373 0.950 . S
C385 C381 1.393 . S
C385 C384 1.391 . S
C386 H376 0.950 . S
C386 C387 1.386 . S
C386 C388 1.391 . S
C387 C386 1.386 . S
C387 C391 1.393 . S
C388 H377 0.950 . S
C388 C386 1.391 . S
C388 C389 1.400 . S
C389 C383 1.491 1_545 S
C389 C388 1.400 . S
C389 C390 1.398 . S
C390 H378 0.950 1_545 S
C390 C389 1.398 . S
C390 C391 1.391 . S
C391 H379 0.950 . S
C391 C387 1.393 . S
C391 C390 1.391 . S
H392 C400 0.950 . S
H393 C405 0.955 . S
H394 C402 0.950 . S
H395 C404 0.950 1_655 S
H396 C406 0.950 1_556 S
H397 C408 0.950 1_556 S
H398 C410 0.950 1_455 S
H399 C411 0.950 . S
C400 H392 0.950 . S
C400 C401 1.386 . S
C400 C402 1.391 . S
C401 C400 1.386 . S
C401 C405 1.393 . S
C402 H394 0.950 . S
C402 C400 1.391 . S
C402 C403 1.400 . S
C403 C402 1.400 . S
C403 C404 1.398 . S
C403 C409 1.491 1_455 S
C404 H395 0.950 1_455 S
C404 C403 1.398 . S
C404 C405 1.391 . S
C405 H393 0.955 . S
C405 C401 1.393 . S
C405 C404 1.391 . S
C406 H396 0.950 1_554 S
C406 C407 1.386 . S
C406 C408 1.391 . S
C407 C406 1.386 . S
C407 C411 1.393 . S
C408 H397 0.950 1_554 S
C408 C406 1.391 . S
C408 C409 1.400 . S
C409 C403 1.491 1_655 S
C409 C408 1.400 . S
C409 C410 1.398 . S
C410 H398 0.950 1_655 S
C410 C409 1.398 . S
C410 C411 1.391 . S
C411 H399 0.950 . S
C411 C407 1.393 . S
C411 C410 1.391 . S
H412 C420 0.950 . S
H413 C425 0.950 . S
H414 C422 0.950 . S
H415 C424 0.950 1_655 S
H416 C426 0.950 . S
H417 C428 0.950 . S
H418 C430 0.950 1_455 S
H419 C431 0.950 . S
C420 H412 0.950 . S
C420 C421 1.386 . S
C420 C422 1.391 . S
C421 C420 1.386 . S
C421 C425 1.393 . S
C422 H414 0.950 . S
C422 C420 1.391 . S
C422 C423 1.400 . S
C423 C422 1.400 . S
C423 C424 1.398 . S
C423 C429 1.491 1_455 S
C424 H415 0.950 1_455 S
C424 C423 1.398 . S
C424 C425 1.391 . S
C425 H413 0.950 . S
C425 C421 1.393 . S
C425 C424 1.391 . S
C426 H416 0.950 . S
C426 C427 1.386 . S
C426 C428 1.391 . S
C427 C426 1.386 . S
C427 C431 1.393 . S
C428 H417 0.950 . S
C428 C426 1.391 . S
C428 C429 1.400 . S
C429 C423 1.491 1_655 S
C429 C428 1.400 . S
C429 C430 1.398 . S
C430 H418 0.950 1_655 S
C430 C429 1.398 . S
C430 C431 1.391 . S
C431 H419 0.950 . S
C431 C427 1.393 . S
C431 C430 1.391 . S
C121 C79 1.486 . S
C127 C9 1.480 . S
C141 C65 1.481 . S
C147 C23 1.482 . S
C161 C107 1.490 . S
C167 C37 1.481 . S
C181 C93 1.495 . S
C187 C51 1.497 . S
C201 C7 1.520 . S
C207 C35 1.523 . S
C221 C21 1.509 . S
C227 C49 1.511 . S
C241 C22 1.534 . S
C247 C50 1.536 . S
C261 C8 1.539 . S
C267 C36 1.542 . S
C281 C63 1.523 . S
C287 C91 1.521 . S
C301 C105 1.513 . S
C307 C77 1.509 . S
C321 C106 1.543 . S
C327 C78 1.545 . S
C341 C64 1.534 . S
C347 C92 1.534 . S
C361 C20 1.508 . S
C367 C6 1.509 . S
C381 C34 1.518 . S
C387 C48 1.522 . S
C401 C62 1.523 . S
C407 C76 1.519 . S
C421 C90 1.522 . S
C427 C104 1.518 . S
