# Generated by pormake.
# Topology wjf, (4)-cn, num edge types: 1
# Building blocks:
#     Node 0, Type 0, BuildingBlock: AZAVOO_clean_sbu_0, # of connection points: 4
#     Node 1, Type 0, BuildingBlock: AZAVOO_clean_sbu_0, # of connection points: 4
#     Node 2, Type 0, BuildingBlock: AZAVOO_clean_sbu_0, # of connection points: 4
#     Node 3, Type 0, BuildingBlock: AZAVOO_clean_sbu_0, # of connection points: 4
#     Node 4, Type 0, BuildingBlock: AZAVOO_clean_sbu_0, # of connection points: 4
#     Node 5, Type 0, BuildingBlock: AZAVOO_clean_sbu_0, # of connection points: 4
#     Node 6, Type 0, BuildingBlock: AZAVOO_clean_sbu_0, # of connection points: 4
#     Node 7, Type 0, BuildingBlock: AZAVOO_clean_sbu_0, # of connection points: 4
#     Node 8, Type 0, BuildingBlock: AZAVOO_clean_sbu_0, # of connection points: 4
#     Node 9, Type 0, BuildingBlock: AZAVOO_clean_sbu_0, # of connection points: 4
#     Node 10, Type 0, BuildingBlock: AZAVOO_clean_sbu_0, # of connection points: 4
#     Node 11, Type 0, BuildingBlock: AZAVOO_clean_sbu_0, # of connection points: 4
#     Edge 12, Type (0, 0), BuildingBlock: XUDNAN_clean_linker_2, # of connection points: 2
#     Edge 13, Type (0, 0), BuildingBlock: XUDNAN_clean_linker_2, # of connection points: 2
#     Edge 14, Type (0, 0), BuildingBlock: XUDNAN_clean_linker_2, # of connection points: 2
#     Edge 15, Type (0, 0), BuildingBlock: XUDNAN_clean_linker_2, # of connection points: 2
#     Edge 16, Type (0, 0), BuildingBlock: XUDNAN_clean_linker_2, # of connection points: 2
#     Edge 17, Type (0, 0), BuildingBlock: XUDNAN_clean_linker_2, # of connection points: 2
#     Edge 18, Type (0, 0), BuildingBlock: XUDNAN_clean_linker_2, # of connection points: 2
#     Edge 19, Type (0, 0), BuildingBlock: XUDNAN_clean_linker_2, # of connection points: 2
#     Edge 20, Type (0, 0), BuildingBlock: XUDNAN_clean_linker_2, # of connection points: 2
#     Edge 21, Type (0, 0), BuildingBlock: XUDNAN_clean_linker_2, # of connection points: 2
#     Edge 22, Type (0, 0), BuildingBlock: XUDNAN_clean_linker_2, # of connection points: 2
#     Edge 23, Type (0, 0), BuildingBlock: XUDNAN_clean_linker_2, # of connection points: 2
#     Edge 24, Type (0, 0), BuildingBlock: XUDNAN_clean_linker_2, # of connection points: 2
#     Edge 25, Type (0, 0), BuildingBlock: XUDNAN_clean_linker_2, # of connection points: 2
#     Edge 26, Type (0, 0), BuildingBlock: XUDNAN_clean_linker_2, # of connection points: 2
#     Edge 27, Type (0, 0), BuildingBlock: XUDNAN_clean_linker_2, # of connection points: 2
#     Edge 28, Type (0, 0), BuildingBlock: XUDNAN_clean_linker_2, # of connection points: 2
#     Edge 29, Type (0, 0), BuildingBlock: XUDNAN_clean_linker_2, # of connection points: 2
#     Edge 30, Type (0, 0), BuildingBlock: XUDNAN_clean_linker_2, # of connection points: 2
#     Edge 31, Type (0, 0), BuildingBlock: XUDNAN_clean_linker_2, # of connection points: 2
#     Edge 32, Type (0, 0), BuildingBlock: XUDNAN_clean_linker_2, # of connection points: 2
#     Edge 33, Type (0, 0), BuildingBlock: XUDNAN_clean_linker_2, # of connection points: 2
#     Edge 34, Type (0, 0), BuildingBlock: XUDNAN_clean_linker_2, # of connection points: 2
#     Edge 35, Type (0, 0), BuildingBlock: XUDNAN_clean_linker_2, # of connection points: 2
# Relax obj value: 0.276
# Max RMSD: 0.291
# Mean RMSD: 0.281
data_MOF--net-wjf--node1-AZAVOO_clean_sbu_0--edge1-XUDNAN_clean_linker_2
_symmetry_space_group_name_H-M    P1
_symmetry_Int_Tables_number       1
_symmetry_cell_setting            triclinic
loop_
_symmetry_equiv_pos_as_xyz
'x, y, z'
_cell_length_a     50.01895
_cell_length_b     51.573104
_cell_length_c     26.128556
_cell_angle_alpha  90.039009
_cell_angle_beta   89.817986
_cell_angle_gamma 118.90474
loop_
_atom_site_label
_atom_site_type_symbol
_atom_site_fract_x
_atom_site_fract_y
_atom_site_fract_z
_atom_type_partial_charge
Mg0 Mg 0.32652 0.36581 0.09947 0.0
O1 O 0.32688 0.341 0.02701 0.0
O2 O 0.36147 0.32591 0.03788 0.0
Mg3 Mg 0.38301 0.34073 0.11669 0.0
C4 C 0.34145 0.32803 0.01075 0.0
C5 C 0.28412 0.39047 0.08038 0.0
O6 O 0.30845 0.41166 0.10249 0.0
O7 O 0.30059 0.32316 0.14607 0.0
O8 O 0.3376 0.31123 0.15735 0.0
O9 O 0.3639 0.40711 0.06494 0.0
O10 O 0.37162 0.37693 0.11541 0.0
C11 C 0.3104 0.30653 0.16522 0.0
C12 C 0.38272 0.40018 0.08697 0.0
O13 O 0.283 0.3656 0.07314 0.0
Mg14 Mg 0.94635 0.32795 0.44229 0.0
O15 O 0.95518 0.3148 0.36333 0.0
O16 O 0.00548 0.33487 0.35151 0.0
Mg17 Mg 0.02892 0.36171 0.42288 0.0
C18 C 0.9781 0.31917 0.33589 0.0
C19 C 0.87673 0.3019 0.44314 0.0
O20 O 0.88506 0.32722 0.46646 0.0
O21 O 0.95876 0.29575 0.48096 0.0
O22 O 0.00956 0.31978 0.47309 0.0
O23 O 0.94712 0.36743 0.40926 0.0
O24 O 0.98834 0.36685 0.43878 0.0
C25 C 0.98491 0.29812 0.49025 0.0
C26 C 0.9764 0.38088 0.41563 0.0
O27 O 0.89671 0.29419 0.43251 0.0
Mg28 Mg 0.60146 0.93422 0.72834 0.0
O29 O 0.56767 0.95138 0.71817 0.0
O30 O 0.5361 0.92843 0.65354 0.0
Mg31 Mg 0.55083 0.89607 0.62054 0.0
C32 C 0.54537 0.94732 0.68976 0.0
C33 C 0.62506 0.98632 0.80254 0.0
O34 O 0.62996 -0.00053 0.7578 0.0
O35 O 0.56517 0.89164 0.76409 0.0
O36 O 0.53904 0.8683 0.69415 0.0
O37 O 0.63336 0.96702 0.67279 0.0
O38 O 0.59753 0.92211 0.65126 0.0
C39 C 0.54475 0.86847 0.74189 0.0
C40 C 0.61928 0.94753 0.63748 0.0
O41 O 0.61381 0.95833 0.80432 0.0
Mg42 Mg 0.65362 0.56727 0.15593 0.0
O43 O 0.64484 0.59529 0.09788 0.0
O44 O 0.60112 0.59496 0.11691 0.0
Mg45 Mg 0.58233 0.567 0.18957 0.0
C46 C 0.62451 0.60275 0.08833 0.0
C47 C 0.70741 0.56677 0.10226 0.0
O48 O 0.68701 0.53865 0.10668 0.0
O49 O 0.6682 0.60284 0.21864 0.0
O50 O 0.62317 0.59996 0.23732 0.0
O51 O 0.62593 0.52887 0.10525 0.0
O52 O 0.60664 0.54219 0.17016 0.0
C53 C 0.65184 0.61092 0.24489 0.0
C54 C 0.60232 0.5256 0.13079 0.0
O55 O 0.70172 0.586 0.12252 0.0
Mg56 Mg 0.08539 0.64597 0.36103 0.0
O57 O 0.05682 0.64422 0.29174 0.0
O58 O 0.00804 0.61112 0.30681 0.0
Mg59 Mg 0.00613 0.5894 0.38375 0.0
C60 C 0.02884 0.63065 0.27853 0.0
C61 C 0.14982 0.68804 0.32581 0.0
O62 O 0.15279 0.66685 0.34849 0.0
O63 O 0.06607 0.67026 0.40994 0.0
O64 O 0.01877 0.63318 0.42426 0.0
O65 O 0.09398 0.61142 0.32664 0.0
O66 O 0.055 0.60185 0.37799 0.0
C67 C 0.03965 0.65994 0.43062 0.0
C68 C 0.06933 0.59217 0.34941 0.0
O69 O 0.12423 0.68762 0.3276 0.0
Mg70 Mg 0.38641 0.08095 0.74809 0.0
O71 O 0.4201 0.06414 0.72949 0.0
O72 O 0.42522 0.06215 0.64494 0.0
Mg73 Mg 0.39656 0.08092 0.60895 0.0
C74 C 0.43142 0.05802 0.69053 0.0
C75 C 0.39468 0.05858 0.85023 0.0
O76 O 0.3865 0.03599 0.81912 0.0
O77 O 0.4232 0.1283 0.73161 0.0
O78 O 0.42576 0.12607 0.64637 0.0
O79 O 0.34748 0.03496 0.73877 0.0
O80 O 0.36681 0.06817 0.67672 0.0
C81 C 0.43387 0.14057 0.68832 0.0
C82 C 0.34818 0.04157 0.69087 0.0
O83 O 0.39854 0.08302 0.83211 0.0
Mg84 Mg 0.59562 0.67271 0.62688 0.0
O85 O 0.61235 0.6639 0.70363 0.0
O86 O 0.61801 0.62344 0.70047 0.0
Mg87 Mg 0.62154 0.61813 0.61429 0.0
C88 C 0.61705 0.64429 0.72549 0.0
C89 C 0.56862 0.71024 0.66369 0.0
O90 O 0.547 0.68965 0.6357 0.0
O91 O 0.64266 0.69973 0.58907 0.0
O92 O 0.65437 0.66751 0.61973 0.0
O93 O 0.55023 0.63669 0.64639 0.0
O94 O 0.5837 0.62915 0.60176 0.0
C95 C 0.65832 0.68639 0.58539 0.0
C96 C 0.55725 0.61851 0.62369 0.0
O97 O 0.59475 0.71178 0.66475 0.0
Mg98 Mg 0.92803 0.58516 0.83201 0.0
O99 O 0.95724 0.61075 0.89966 0.0
O100 O 0.0029 0.61326 0.89549 0.0
Mg101 Mg 0.00361 0.59084 0.82002 0.0
C102 C 0.98354 0.61865 0.91835 0.0
C103 C 0.86749 0.57865 0.87013 0.0
O104 O 0.86145 0.55133 0.86061 0.0
O105 O 0.95339 0.62479 0.77819 0.0
O106 O -0.00179 0.62533 0.77171 0.0
O107 O 0.91442 0.54392 0.87694 0.0
O108 O 0.95344 0.56279 0.82285 0.0
C109 C 0.98036 0.63558 0.75958 0.0
C110 C 0.93768 0.54317 0.8568 0.0
O111 O 0.89372 0.59969 0.8583 0.0
Mg112 Mg 0.32198 0.93083 0.27517 0.0
O113 O 0.37314 0.95063 0.28666 0.0
O114 O 0.38332 0.93003 0.3533 0.0
Mg115 Mg 0.33678 0.89612 0.38598 0.0
C116 C 0.39209 0.94833 0.31612 0.0
C117 C 0.34952 0.98224 0.19971 0.0
O118 O 0.35746 -0.00441 0.24427 0.0
O119 O 0.31878 0.8888 0.24202 0.0
O120 O 0.32369 0.86755 0.31329 0.0
O121 O 0.32025 0.96324 0.32893 0.0
O122 O 0.31373 0.91938 0.35241 0.0
C123 C 0.31825 0.8668 0.26534 0.0
C124 C 0.31568 0.94433 0.365 0.0
O125 O 0.33322 0.95419 0.19837 0.0
Mg126 Mg 0.41372 0.35147 0.54228 0.0
O127 O 0.38934 0.34126 0.61948 0.0
O128 O 0.35947 0.36214 0.62513 0.0
Mg129 Mg 0.3655 0.38692 0.54953 0.0
C130 C 0.37035 0.3464 0.644 0.0
C131 C 0.44337 0.32262 0.60338 0.0
O132 O 0.44791 0.34579 0.63063 0.0
O133 O 0.36934 0.31805 0.50409 0.0
O134 O 0.34315 0.34298 0.50459 0.0
O135 O 0.45237 0.39249 0.57178 0.0
O136 O 0.41105 0.3907 0.5378 0.0
C137 C 0.34589 0.32042 0.49182 0.0
C138 C 0.43693 0.4058 0.5605 0.0
O139 O 0.42887 0.31755 0.56133 0.0
Mg140 Mg 0.04357 0.37403 0.89009 0.0
O141 O 0.01467 0.34559 0.95637 0.0
O142 O 0.96548 0.3303 0.94059 0.0
Mg143 Mg 0.96302 0.34856 0.86204 0.0
C144 C 0.98659 0.33138 0.96927 0.0
C145 C 0.10759 0.39833 0.93199 0.0
O146 O 0.10496 0.42175 0.92021 0.0
O147 O 0.03002 0.3329 0.84108 0.0
O148 O 0.98155 0.32032 0.82374 0.0
O149 O 0.04458 0.41341 0.92745 0.0
O150 O 0.00995 0.38543 0.87047 0.0
C151 C 0.00466 0.31618 0.81896 0.0
C152 C 0.02019 0.40738 0.90182 0.0
O153 O 0.08522 0.37282 0.92302 0.0
Mg154 Mg 0.68389 0.08469 0.25362 0.0
O155 O 0.63346 0.06905 0.27209 0.0
O156 O 0.62654 0.06671 0.35673 0.0
Mg157 Mg 0.67367 0.0848 0.39269 0.0
C158 C 0.61615 0.06295 0.31127 0.0
C159 C 0.65356 0.06315 0.15122 0.0
O160 O 0.63854 0.04064 0.18229 0.0
O161 O 0.69647 0.13258 0.27039 0.0
O162 O 0.69018 0.13021 0.35551 0.0
O163 O 0.67538 0.03817 0.2628 0.0
O164 O 0.69013 0.07139 0.32491 0.0
C165 C 0.69736 0.14471 0.31349 0.0
C166 C 0.68148 0.04466 0.31068 0.0
O167 O 0.67436 0.08734 0.1695 0.0
H168 H 0.27574 0.31474 0.23607 0.0
H169 H 0.31109 0.25602 0.19387 0.0
H170 H 0.30613 0.23913 0.28296 0.0
H171 H 0.31813 0.34484 0.32659 0.0
H172 H 0.29332 0.34892 0.37229 0.0
H173 H 0.2838 0.34501 0.306 0.0
H174 H 0.23134 0.29953 0.32504 0.0
H175 H 0.24043 0.30361 0.39234 0.0
H176 H 0.22926 0.26875 0.36089 0.0
H177 H 0.31848 0.24467 0.37348 0.0
H178 H 0.34326 0.26951 0.45364 0.0
H179 H 0.30053 0.32503 0.44215 0.0
C180 C 0.28017 0.29669 0.24515 0.0
C181 C 0.29376 0.28667 0.20836 0.0
C182 C 0.30041 0.26382 0.22152 0.0
C183 C 0.29767 0.25411 0.27228 0.0
C184 C 0.28796 0.26727 0.30934 0.0
C185 C 0.27828 0.28746 0.29616 0.0
C186 C 0.27585 0.30353 0.34313 0.0
C187 C 0.29389 0.33753 0.33656 0.0
C188 C 0.24222 0.29322 0.35612 0.0
C189 C 0.29006 0.29264 0.38299 0.0
C190 C 0.29541 0.2706 0.36351 0.0
C191 C 0.31338 0.26108 0.38982 0.0
C192 C 0.32759 0.27548 0.43539 0.0
C193 C 0.324 0.29939 0.45407 0.0
C194 C 0.30341 0.30659 0.42917 0.0
H195 H 0.94135 0.2639 0.55951 0.0
H196 H 0.03527 0.29313 0.51645 0.0
H197 H 0.0457 0.28174 0.60279 0.0
H198 H 0.95328 0.29987 0.65776 0.0
H199 H 0.92361 0.27441 0.70005 0.0
H200 H 0.91877 0.26947 0.63256 0.0
H201 H 0.91045 0.21612 0.64053 0.0
H202 H 0.91489 0.22075 0.70898 0.0
H203 H 0.93831 0.20946 0.67295 0.0
H204 H 0.05177 0.28813 0.69485 0.0
H205 H 0.05195 0.30963 0.77884 0.0
H206 H 0.95436 0.27617 0.76747 0.0
C207 C 0.96355 0.26607 0.56744 0.0
C208 C 0.98756 0.27981 0.5316 0.0
C209 C 0.01649 0.28278 0.54337 0.0
C210 C 0.02261 0.27621 0.59254 0.0
C211 C -0.00055 0.26624 0.62932 0.0
C212 C 0.97004 0.26019 0.61687 0.0
C213 C 0.95122 0.25642 0.66468 0.0
C214 C 0.93593 0.27627 0.66365 0.0
C215 C 0.92731 0.22374 0.67223 0.0
C216 C 0.97588 0.26617 0.70505 0.0
C217 C 0.00309 0.27001 0.68444 0.0
C218 C 0.03039 0.28419 0.71188 0.0
C219 C 0.03032 0.29649 0.75974 0.0
C220 C 0.00319 0.29491 0.77937 0.0
C221 C 0.97541 0.27763 0.75336 0.0
H222 H 0.60574 0.96565 0.89944 0.0
H223 H 0.65832 0.04651 0.81245 0.0
H224 H 0.66861 0.07582 0.89186 0.0
H225 H 0.57155 -0.004 0.98745 0.0
H226 H 0.57327 0.97488 0.04106 0.0
H227 H 0.56931 0.96044 0.97708 0.0
H228 H 0.61765 0.95478 0.98959 0.0
H229 H 0.62162 0.96898 0.05363 0.0
H230 H 0.65288 0.98647 0.00893 0.0
H231 H 0.6756 0.09592 0.9818 0.0
H232 H 0.67865 0.10502 0.07516 0.0
H233 H 0.61963 0.01099 0.10138 0.0
C234 C 0.6194 0.98952 0.89704 0.0
C235 C 0.63135 0.00382 0.84991 0.0
C236 C 0.64893 0.03511 0.84827 0.0
C237 C 0.65484 0.05195 0.89309 0.0
C238 C 0.64266 0.03714 0.93899 0.0
C239 C 0.6252 0.00664 0.94119 0.0
C240 C 0.61522 -0.00398 0.99532 0.0
C241 C 0.58026 0.98095 0.00051 0.0
C242 C 0.6276 0.97536 0.01288 0.0
C243 C 0.63041 0.02525 0.02342 0.0
C244 C 0.64603 0.04876 0.99036 0.0
C245 C 0.66316 0.07773 0.00804 0.0
C246 C 0.66476 0.08269 0.06104 0.0
C247 C 0.64926 0.05875 0.09546 0.0
C248 C 0.63145 0.02983 0.07609 0.0
H249 H 0.62958 0.64355 0.293 0.0
H250 H 0.70252 0.621 0.30047 0.0
H251 H 0.71686 0.6443 0.38592 0.0
H252 H 0.6702 0.71544 0.36571 0.0
H253 H 0.63514 0.70891 0.39635 0.0
H254 H 0.63438 0.69527 0.33252 0.0
H255 H 0.59546 0.6423 0.36248 0.0
H256 H 0.59634 0.65564 0.42632 0.0
H257 H 0.60502 0.62598 0.41551 0.0
H258 H 0.71619 0.66082 0.4769 0.0
H259 H 0.70389 0.67369 0.56193 0.0
H260 H 0.63327 0.68783 0.49302 0.0
C261 C 0.64923 0.64437 0.31183 0.0
C262 C 0.66498 0.6305 0.28997 0.0
C263 C 0.69035 0.63178 0.31613 0.0
C264 C 0.69857 0.64488 0.36482 0.0
C265 C 0.68162 0.65715 0.38629 0.0
C266 C 0.65789 0.65759 0.36004 0.0
C267 C 0.64164 0.66991 0.39287 0.0
C268 C 0.64559 0.69913 0.37053 0.0
C269 C 0.60762 0.64709 0.39969 0.0
C270 C 0.65898 0.6751 0.44252 0.0
C271 C 0.68207 0.66775 0.43801 0.0
C272 C 0.69881 0.6675 0.48044 0.0
C273 C 0.69163 0.67473 0.52858 0.0
C274 C 0.66812 0.68237 0.53384 0.0
C275 C 0.65204 0.68304 0.48996 0.0
H276 H 0.03719 0.66693 0.71754 0.0
H277 H 0.94396 0.65004 0.70092 0.0
H278 H 0.95604 0.67141 0.61428 0.0
H279 H 0.07432 0.73574 0.62521 0.0
H280 H 0.1005 0.72356 0.60259 0.0
H281 H 0.08825 0.71786 0.66859 0.0
H282 H 0.07016 0.66183 0.65905 0.0
H283 H 0.08214 0.66729 0.59359 0.0
H284 H 0.04313 0.6411 0.60955 0.0
H285 H 0.97191 0.67727 0.52415 0.0
H286 H 0.99046 0.66853 0.44189 0.0
H287 H 0.07459 0.68413 0.51383 0.0
C288 C 0.01973 0.66909 0.69659 0.0
C289 C 0.98961 0.65666 0.71597 0.0
C290 C 0.96727 0.65957 0.68721 0.0
C291 C 0.97399 0.67177 0.63778 0.0
C292 C 0.00331 0.68159 0.61803 0.0
C293 C 0.02613 0.68111 0.64716 0.0
C294 C 0.05389 0.6877 0.61467 0.0
C295 C 0.08083 0.71803 0.62859 0.0
C296 C 0.06278 0.663 0.61948 0.0
C297 C 0.04183 0.68846 0.56187 0.0
C298 C 0.01303 0.68604 0.56477 0.0
C299 C 0.99491 0.6805 0.5213 0.0
C300 C 0.00562 0.67564 0.47457 0.0
C301 C 0.03428 0.67656 0.47152 0.0
C302 C 0.05327 0.68477 0.51495 0.0
H303 H 0.34715 0.96131 0.10265 0.0
H304 H 0.37689 0.04245 0.18939 0.0
H305 H 0.39537 0.07159 0.10968 0.0
H306 H 0.4107 0.99098 0.0124 0.0
H307 H 0.38717 0.96995 0.95947 0.0
H308 H 0.37737 0.95562 0.02367 0.0
H309 H 0.32349 0.95055 0.01328 0.0
H310 H 0.33305 0.96465 0.94904 0.0
H311 H 0.32005 0.98245 0.99453 0.0
H312 H 0.4077 0.09155 0.01962 0.0
H313 H 0.41268 0.10055 0.92618 0.0
H314 H 0.37655 0.00634 0.90005 0.0
C315 C 0.3576 0.98521 0.10493 0.0
C316 C 0.36049 -0.00038 0.1521 0.0
C317 C 0.37445 0.03094 0.15356 0.0
C318 C 0.38509 0.0477 0.10856 0.0
C319 C 0.38189 0.03277 0.06264 0.0
C320 C 0.3686 0.00225 0.06057 0.0
C321 C 0.36722 0.99151 0.00634 0.0
C322 C 0.38679 0.97611 0.00013 0.0
C323 C 0.33398 0.9711 0.98984 0.0
C324 C 0.38111 0.02071 0.97805 0.0
C325 C 0.38961 0.0443 0.01111 0.0
C326 C 0.40146 0.07329 0.99336 0.0
C327 C 0.4042 0.07819 0.94031 0.0
C328 C 0.39513 0.05418 0.90591 0.0
C329 C 0.38402 0.02522 0.92531 0.0
H330 H 0.12518 0.35593 0.95023 0.0
H331 H 0.15387 0.4494 0.96988 0.0
H332 H 0.20099 0.45672 0.01164 0.0
H333 H 0.15523 0.34591 0.07031 0.0
H334 H 0.16773 0.32127 0.0438 0.0
H335 H 0.13553 0.32282 0.01634 0.0
H336 H 0.162 0.3346 0.92752 0.0
H337 H 0.19425 0.33304 0.95468 0.0
H338 H 0.19983 0.36572 0.92079 0.0
H339 H 0.24466 0.45447 0.05095 0.0
H340 H 0.28406 0.44319 0.08301 0.0
H341 H 0.22872 0.35137 0.03683 0.0
C342 C 0.14135 0.37789 0.96349 0.0
C343 C 0.13579 0.40209 0.95682 0.0
C344 C 0.1576 0.43052 0.9744 0.0
C345 C 0.18444 0.43492 -0.00166 0.0
C346 C 0.18927 0.41071 0.00427 0.0
C347 C 0.16851 0.38277 0.98723 0.0
C348 C 0.17991 0.3608 0.99743 0.0
C349 C 0.15831 0.33625 0.03416 0.0
C350 C 0.18426 0.34778 0.9471 0.0
C351 C 0.21032 0.38088 0.02265 0.0
C352 C 0.21504 0.4095 0.02644 0.0
C353 C 0.2413 0.43215 0.04822 0.0
C354 C 0.26354 0.42547 0.06638 0.0
C355 C 0.25955 0.3964 0.06242 0.0
C356 C 0.23246 0.3738 0.04038 0.0
H357 H 0.85973 0.26756 0.35791 0.0
H358 H 0.82399 0.29831 0.48123 0.0
H359 H 0.77176 0.26859 0.44653 0.0
H360 H 0.80427 0.2647 0.25792 0.0
H361 H 0.80252 0.23212 0.22924 0.0
H362 H 0.83726 0.25927 0.25931 0.0
H363 H 0.83721 0.21872 0.31811 0.0
H364 H 0.80311 0.19158 0.28737 0.0
H365 H 0.80372 0.1959 0.35591 0.0
H366 H 0.72377 0.22845 0.40894 0.0
H367 H 0.68472 0.18052 0.37411 0.0
H368 H 0.7515 0.17988 0.26925 0.0
C369 C 0.84091 0.26829 0.37726 0.0
C370 C 0.84564 0.28484 0.42251 0.0
C371 C 0.82067 0.2856 0.44656 0.0
C372 C 0.79105 0.26905 0.42683 0.0
C373 C 0.78709 0.25272 0.38218 0.0
C374 C 0.81146 0.25253 0.35741 0.0
C375 C 0.80104 0.23118 0.31293 0.0
C376 C 0.81192 0.24782 0.26182 0.0
C377 C 0.81188 0.20798 0.31901 0.0
C378 C 0.76677 0.2176 0.31882 0.0
C379 C 0.75913 0.23076 0.35833 0.0
C380 C 0.72928 0.21867 0.37674 0.0
C381 C 0.70716 0.19154 0.35656 0.0
C382 C 0.71505 0.17707 0.31817 0.0
C383 C 0.74465 0.19123 0.29691 0.0
H384 H 0.50024 0.81459 0.70986 0.0
H385 H 0.56956 0.85665 0.82622 0.0
H386 H 0.57469 0.8119 0.83274 0.0
H387 H 0.4726 0.7314 0.75577 0.0
H388 H 0.4677 0.72044 0.68946 0.0
H389 H 0.45904 0.74885 0.71076 0.0
H390 H 0.49545 0.78365 0.64109 0.0
H391 H 0.50549 0.75631 0.62103 0.0
H392 H 0.53498 0.79229 0.641 0.0
H393 H 0.58828 0.77489 0.80099 0.0
H394 H 0.59983 0.74181 0.7481 0.0
H395 H 0.52181 0.72237 0.65223 0.0
C396 C 0.51495 0.81355 0.73918 0.0
C397 C 0.53513 0.83935 0.76625 0.0
C398 C 0.55404 0.83731 0.8045 0.0
C399 C 0.55726 0.81188 0.8083 0.0
C400 C 0.54057 0.78843 0.775 0.0
C401 C 0.51859 0.78838 0.74278 0.0
C402 C 0.50787 0.76334 0.70426 0.0
C403 C 0.47485 0.73959 0.71578 0.0
C404 C 0.5112 0.77462 0.64864 0.0
C405 C 0.52993 0.7519 0.71557 0.0
C406 C 0.54805 0.76605 0.75736 0.0
C407 C 0.57336 0.7627 0.76968 0.0
C408 C 0.58008 0.74428 0.73892 0.0
C409 C 0.5616 0.72953 0.69627 0.0
C410 C 0.53595 0.733 0.68522 0.0
H411 H 0.72206 0.53024 0.04785 0.0
H412 H 0.75433 0.62301 0.08224 0.0
H413 H 0.79828 0.63686 0.02372 0.0
H414 H 0.7953 0.53396 0.04071 0.0
H415 H 0.78434 0.50771 0.98892 0.0
H416 H 0.75603 0.50569 0.0338 0.0
H417 H 0.724 0.50903 0.95877 0.0
H418 H 0.7524 0.51138 0.91368 0.0
H419 H 0.74126 0.5398 0.91488 0.0
H420 H 0.83913 0.64005 0.96087 0.0
H421 H 0.87355 0.63216 0.90224 0.0
H422 H 0.8126 0.53729 0.9089 0.0
C423 C 0.7384 0.55351 0.04345 0.0
C424 C 0.7348 0.57554 0.06982 0.0
C425 C 0.75669 0.60572 0.06259 0.0
C426 C 0.78165 0.6138 0.0293 0.0
C427 C 0.78425 0.59143 0.00344 0.0
C428 C 0.76318 0.5619 0.01035 0.0
C429 C 0.7709 0.54198 0.97835 0.0
C430 C 0.77702 0.52111 0.01249 0.0
C431 C 0.74564 0.52453 0.9391 0.0
C432 C 0.79977 0.56484 0.95245 0.0
C433 C 0.80718 0.59327 0.96719 0.0
C434 C 0.83343 0.61787 0.94896 0.0
C435 C 0.85279 0.61319 0.91555 0.0
C436 C 0.84574 0.58412 0.90074 0.0
C437 C 0.81861 0.55981 0.91905 0.0
H438 H 0.21046 0.7094 0.34274 0.0
H439 H 0.14654 0.71844 0.24274 0.0
H440 H 0.18953 0.75823 0.19527 0.0
H441 H 0.25488 0.78163 0.3621 0.0
H442 H 0.29078 0.78139 0.36514 0.0
H443 H 0.25605 0.74844 0.38011 0.0
H444 H 0.26923 0.7201 0.31114 0.0
H445 H 0.30383 0.75355 0.29517 0.0
H446 H 0.27629 0.7334 0.24607 0.0
H447 H 0.23731 0.80184 0.1692 0.0
H448 H 0.28195 0.85088 0.18022 0.0
H449 H 0.31599 0.81571 0.29864 0.0
C450 C 0.20568 0.7192 0.30979 0.0
C451 C 0.17538 0.71087 0.29604 0.0
C452 C 0.16971 0.72463 0.25383 0.0
C453 C 0.194 0.74688 0.22613 0.0
C454 C 0.22379 0.75512 0.2412 0.0
C455 C 0.22968 0.74188 0.28252 0.0
C456 C 0.26294 0.7587 0.29786 0.0
C457 C 0.26633 0.76812 0.35459 0.0
C458 C 0.27902 0.74034 0.28688 0.0
C459 C 0.2742 0.78495 0.26187 0.0
C460 C 0.25173 0.78158 0.22751 0.0
C461 C 0.25526 0.80455 0.19525 0.0
C462 C 0.28093 0.83244 0.20161 0.0
C463 C 0.30212 0.83722 0.24117 0.0
C464 C 0.30012 0.8126 0.26813 0.0
H465 H 0.44917 0.17381 0.60157 0.0
H466 H 0.4554 0.18108 0.76708 0.0
H467 H 0.46976 0.23394 0.76034 0.0
H468 H 0.50815 0.25424 0.56932 0.0
H469 H 0.48439 0.25418 0.51756 0.0
H470 H 0.48538 0.22068 0.53386 0.0
H471 H 0.42652 0.19348 0.54378 0.0
H472 H 0.42529 0.22681 0.52894 0.0
H473 H 0.40904 0.20765 0.58817 0.0
H474 H 0.47114 0.28132 0.73762 0.0
H475 H 0.45987 0.31907 0.70143 0.0
H476 H 0.44857 0.27926 0.55124 0.0
C477 C 0.45495 0.18676 0.63639 0.0
C478 C 0.45114 0.17326 0.68488 0.0
C479 C 0.45832 0.19095 0.72948 0.0
C480 C 0.46656 0.22104 0.72597 0.0
C481 C 0.46766 0.23304 0.67765 0.0
C482 C 0.46243 0.21649 0.63352 0.0
C483 C 0.45919 0.23245 0.5873 0.0
C484 C 0.48588 0.2409 0.5498 0.0
C485 C 0.42817 0.214 0.56056 0.0
C486 C 0.46111 0.25956 0.61283 0.0
C487 C 0.46712 0.26005 0.66459 0.0
C488 C 0.46718 0.28154 0.69697 0.0
C489 C 0.46058 0.3028 0.67607 0.0
C490 C 0.45331 0.30198 0.62352 0.0
C491 C 0.45419 0.28044 0.59147 0.0
H492 H 0.33968 0.3607 0.71647 0.0
H493 H 0.38208 0.30552 0.69087 0.0
H494 H 0.37149 0.28855 0.78038 0.0
H495 H 0.37082 0.38576 0.8356 0.0
H496 H 0.3379 0.38619 0.8629 0.0
H497 H 0.34431 0.39032 0.79498 0.0
H498 H 0.29054 0.34561 0.77963 0.0
H499 H 0.28403 0.34127 0.84776 0.0
H500 H 0.28029 0.31055 0.80965 0.0
H501 H 0.36262 0.28257 0.87439 0.0
H502 H 0.35774 0.28951 0.96672 0.0
H503 H 0.32054 0.34799 0.93167 0.0
C504 C 0.34604 0.34447 0.7293 0.0
C505 C 0.36155 0.33434 0.69648 0.0
C506 C 0.3701 0.31359 0.71517 0.0
C507 C 0.36401 0.30364 0.76592 0.0
C508 C 0.34919 0.31447 0.79752 0.0
C509 C 0.34023 0.33438 0.77995 0.0
C510 C 0.32757 0.34494 0.82304 0.0
C511 C 0.34628 0.37879 0.8295 0.0
C512 C 0.29358 0.33499 0.8145 0.0
C513 C 0.33193 0.32877 0.86787 0.0
C514 C 0.34395 0.31092 0.85218 0.0
C515 C 0.35264 0.29599 0.8871 0.0
C516 C 0.34983 0.3001 0.93947 0.0
C517 C 0.3385 0.31905 0.95641 0.0
C518 C 0.32857 0.33278 0.91997 0.0
H519 H 0.02114 0.33013 0.26195 0.0
H520 H 0.92315 0.28563 0.28787 0.0
H521 H 0.91461 0.27636 0.19527 0.0
H522 H 0.02127 0.36885 0.15858 0.0
H523 H 0.05124 0.36662 0.12371 0.0
H524 H 0.04987 0.36386 0.19224 0.0
H525 H 0.04903 0.31328 0.18683 0.0
H526 H 0.05068 0.31601 0.11798 0.0
H527 H 0.02036 0.28393 0.14867 0.0
H528 H 0.91673 0.28033 0.09984 0.0
H529 H 0.92942 0.29617 0.00983 0.0
H530 H 0.02596 0.33766 0.04652 0.0
C531 C -0.00214 0.3175 0.24849 0.0
C532 C 0.97285 0.3086 0.28228 0.0
C533 C 0.94274 0.29262 0.26283 0.0
C534 C 0.93763 0.28714 0.21023 0.0
C535 C 0.96285 0.29742 0.1777 0.0
C536 C 0.9924 0.31192 0.19619 0.0
C537 C 0.01551 0.32394 0.15309 0.0
C538 C 0.03562 0.35781 0.15717 0.0
C539 C 0.03504 0.30835 0.15156 0.0
C540 C 0.99433 0.31538 0.1076 0.0
C541 C 0.96406 0.29961 0.1224 0.0
C542 C 0.94035 0.29202 0.0876 0.0
C543 C 0.94779 0.30124 0.03658 0.0
C544 C 0.9787 0.31805 0.02099 0.0
C545 C 0.00212 0.32443 0.05689 0.0
H546 H 0.66475 -0.00121 0.5983 0.0
H547 H 0.59241 0.91193 0.55416 0.0
H548 H 0.60547 0.92483 0.46315 0.0
H549 H 0.65308 0.03844 0.50299 0.0
H550 H 0.69295 0.06443 0.49353 0.0
H551 H 0.67983 0.04679 0.55464 0.0
H552 H 0.71909 0.0275 0.55022 0.0
H553 H 0.73211 0.04492 0.48865 0.0
H554 H 0.71895 0.00584 0.49593 0.0
H555 H 0.62284 0.94961 0.37688 0.0
H556 H 0.64187 0.98482 0.30404 0.0
H557 H 0.70402 0.05378 0.40631 0.0
C558 C 0.65186 0.98231 0.5696 0.0
C559 C 0.62741 0.95451 0.58319 0.0
C560 C 0.61107 0.93354 0.54452 0.0
C561 C 0.6185 0.94054 0.49276 0.0
C562 C 0.64262 0.96835 0.48062 0.0
C563 C 0.65913 0.98881 0.51806 0.0
C564 C 0.68247 0.0179 0.49534 0.0
C565 C 0.67671 0.04337 0.51263 0.0
C566 C 0.71509 0.02441 0.50831 0.0
C567 C 0.6757 0.01107 0.43925 0.0
C568 C 0.65299 0.98229 0.4312 0.0
C569 C 0.64108 0.97202 0.38257 0.0
C570 C 0.65204 0.99206 0.34146 0.0
C571 C 0.67433 0.02188 0.34987 0.0
C572 C 0.68701 0.03103 0.39889 0.0
H573 H 0.64065 0.61668 0.78611 0.0
H574 H 0.59879 0.67332 0.79278 0.0
H575 H 0.59984 0.67223 0.88705 0.0
H576 H 0.60117 0.57083 0.89012 0.0
H577 H 0.63318 0.56751 0.91384 0.0
H578 H 0.63088 0.57426 0.84688 0.0
H579 H 0.68417 0.62102 0.85126 0.0
H580 H 0.68658 0.61441 0.91838 0.0
H581 H 0.69089 0.64952 0.89741 0.0
H582 H 0.6001 0.66039 0.98037 0.0
H583 H 0.60271 0.64103 0.0659 0.0
H584 H 0.64771 0.59533 -0.00134 0.0
C585 C 0.632 0.6291 0.80739 0.0
C586 C 0.61961 0.64504 0.782 0.0
C587 C 0.60856 0.66105 0.8113 0.0
C588 C 0.60902 0.66057 0.86492 0.0
C589 C 0.6211 0.64441 0.88876 0.0
C590 C 0.63275 0.62927 0.86097 0.0
C591 C 0.64377 0.61302 0.89595 0.0
C592 C 0.62619 0.57942 0.88611 0.0
C593 C 0.67842 0.62524 0.89041 0.0
C594 C 0.63575 0.62075 0.94762 0.0
C595 C 0.62263 0.63883 0.94271 0.0
C596 C 0.61095 0.64677 0.98485 0.0
C597 C 0.61248 0.63569 0.03319 0.0
C598 C 0.62597 0.61726 0.03894 0.0
C599 C 0.63813 0.61014 0.99563 0.0
H600 H 0.06095 0.64057 0.18971 0.0
H601 H 0.977 0.63245 0.25283 0.0
H602 H 0.96068 0.63789 0.16608 0.0
H603 H 0.07025 0.69161 0.08067 0.0
H604 H 0.0832 0.67242 0.03812 0.0
H605 H 0.0912 0.67417 0.10566 0.0
H606 H 0.06546 0.61687 0.10923 0.0
H607 H 0.05749 0.61498 0.04193 0.0
H608 H 0.02679 0.59514 0.08678 0.0
H609 H 0.95108 0.63878 0.07311 0.0
H610 H 0.94576 0.62926 0.98054 0.0
H611 H 0.03465 0.63352 0.97678 0.0
C612 C 0.0396 0.64091 0.18527 0.0
C613 C 0.02039 0.63662 0.22773 0.0
C614 C 0.99207 0.63598 0.2206 0.0
C615 C 0.98276 0.63927 0.17162 0.0
C616 C 0.00195 0.64289 0.13025 0.0
C617 C 0.02968 0.64347 0.13649 0.0
C618 C 0.04386 0.64316 0.08532 0.0
C619 C 0.07391 0.67207 0.07696 0.0
C620 C 0.04865 0.61591 0.08056 0.0
C621 C 0.01922 0.64115 0.04939 0.0
C622 C 0.99571 0.64193 0.07607 0.0
C623 C 0.9695 0.63849 0.05171 0.0
C624 C 0.96671 0.63305 -0.00102 0.0
C625 C 0.98976 0.63053 0.9712 0.0
C626 C 0.01676 0.6356 0.99668 0.0
H627 H 0.32152 -0.00402 0.40296 0.0
H628 H 0.30545 0.90871 0.4488 0.0
H629 H 0.30422 0.92168 0.53938 0.0
H630 H 0.37189 0.03492 0.49971 0.0
H631 H 0.35861 0.06151 0.50797 0.0
H632 H 0.3545 0.0438 0.44708 0.0
H633 H 0.2962 0.02563 0.44939 0.0
H634 H 0.30018 0.04312 0.51075 0.0
H635 H 0.27382 0.00419 0.50324 0.0
H636 H 0.31072 0.94636 0.62518 0.0
H637 H 0.32666 0.98152 0.69792 0.0
H638 H 0.33591 0.05118 0.5946 0.0
C639 C 0.3173 0.97942 0.43195 0.0
C640 C 0.31382 0.95146 0.41896 0.0
C641 C 0.30848 0.93043 0.45799 0.0
C642 C 0.30743 0.93746 0.5095 0.0
C643 C 0.31129 0.96542 0.52108 0.0
C644 C 0.316 0.98599 0.48331 0.0
C645 C 0.32203 0.01528 0.50566 0.0
C646 C 0.35362 0.04033 0.48914 0.0
C647 C 0.29652 0.02246 0.49141 0.0
C648 C 0.32114 0.00835 0.56192 0.0
C649 C 0.31448 0.97938 0.57033 0.0
C650 C 0.31535 0.96892 0.61922 0.0
C651 C 0.3243 0.98894 0.66027 0.0
C652 C 0.33246 0.01893 0.65158 0.0
C653 C 0.32966 0.0283 0.60224 0.0
H654 H 0.42517 0.41366 0.16058 0.0
H655 H 0.41458 0.42844 0.00046 0.0
H656 H 0.47081 0.45989 0.99231 0.0
H657 H 0.48175 0.48783 0.18517 0.0
H658 H 0.50218 0.47783 0.23078 0.0
H659 H 0.46179 0.45426 0.22209 0.0
H660 H 0.47095 0.40987 0.20246 0.0
H661 H 0.51141 0.43334 0.21102 0.0
H662 H 0.49714 0.4131 0.15215 0.0
H663 H 0.52859 0.48916 0.00253 0.0
H664 H 0.58204 0.51903 0.03238 0.0
H665 H 0.55296 0.48903 0.18769 0.0
C666 C 0.4348 0.42321 0.12365 0.0
C667 C 0.41591 0.41843 0.08088 0.0
C668 C 0.42895 0.43185 0.03348 0.0
C669 C 0.46075 0.44956 0.02853 0.0
C670 C 0.47885 0.45398 0.07168 0.0
C671 C 0.46622 0.44157 0.11852 0.0
C672 C 0.4901 0.45174 0.1601 0.0
C673 C 0.48356 0.46894 0.20199 0.0
C674 C 0.49254 0.42544 0.18275 0.0
C675 C 0.51825 0.47185 0.12947 0.0
C676 C 0.51148 0.47241 0.07832 0.0
C677 C 0.53409 0.48899 0.0425 0.0
C678 C 0.56431 0.50573 0.05965 0.0
C679 C 0.57127 0.50619 0.11218 0.0
C680 C 0.54801 0.48904 0.14736 0.0
H681 H 0.01261 0.54606 0.37045 0.0
H682 H 0.10361 0.56639 0.32136 0.0
H683 H 0.08893 0.51334 0.32729 0.0
H684 H 0.00242 0.49392 0.46162 0.0
H685 H 0.96256 0.46957 0.44871 0.0
H686 H 0.97914 0.5085 0.43517 0.0
H687 H 0.96135 0.49694 0.34083 0.0
H688 H 0.94434 0.45788 0.35422 0.0
H689 H 0.97186 0.47395 0.30315 0.0
H690 H 0.06639 0.45934 0.35095 0.0
H691 H 0.0357 0.40755 0.38081 0.0
H692 H 0.95894 0.42278 0.40904 0.0
C693 C 0.02927 0.53935 0.35992 0.0
C694 C 0.05922 0.56028 0.34557 0.0
C695 C 0.08042 0.5506 0.33213 0.0
C696 C 0.07234 0.52056 0.33552 0.0
C697 C 0.04282 0.50056 0.35134 0.0
C698 C 0.02143 0.50949 0.36225 0.0
C699 C 0.99161 0.4839 0.38021 0.0
C700 C 0.98348 0.48931 0.43465 0.0
C701 C 0.96577 0.47781 0.34233 0.0
C702 C -0.00012 0.45936 0.37941 0.0
C703 C 0.02951 0.46933 0.36279 0.0
C704 C 0.04295 0.4511 0.363 0.0
C705 C 0.0255 0.42185 0.38042 0.0
C706 C 0.99499 0.41128 0.39675 0.0
C707 C 0.98206 0.43022 0.39576 0.0
H708 H 0.50921 0.95834 0.62383 0.0
H709 H 0.54794 0.97782 0.77666 0.0
H710 H 0.52386 0.00898 0.79252 0.0
H711 H 0.51966 0.0315 0.59848 0.0
H712 H 0.48447 0.01826 0.56345 0.0
H713 H 0.50432 -0.00301 0.564 0.0
H714 H 0.45562 0.95133 0.59796 0.0
H715 H 0.43557 0.97241 0.59729 0.0
H716 H 0.4375 0.95465 0.65549 0.0
H717 H 0.49439 0.03655 0.7932 0.0
H718 H 0.46265 0.06036 0.7775 0.0
H719 H 0.44496 0.02517 0.62285 0.0
C720 C 0.51248 0.96903 0.66071 0.0
C721 C 0.53031 0.96549 0.69911 0.0
C722 C 0.53438 0.98019 0.74665 0.0
C723 C 0.52079 -0.00206 0.75607 0.0
C724 C 0.50348 0.00106 0.71738 0.0
C725 C 0.49941 0.9872 0.67054 0.0
C726 C 0.48005 -0.00535 0.63533 0.0
C727 C 0.49822 0.01135 0.5875 0.0
C728 C 0.45043 0.96659 0.62068 0.0
C729 C 0.47365 0.01461 0.66997 0.0
C730 C 0.48729 0.01789 0.71717 0.0
C731 C 0.48377 0.03437 0.75627 0.0
C732 C 0.46567 0.04776 0.747 0.0
C733 C 0.45153 0.04482 0.69885 0.0
C734 C 0.45583 0.02818 0.65979 0.0
H735 H 0.56744 0.57189 0.60205 0.0
H736 H 0.49596 0.5939 0.63789 0.0
H737 H 0.45711 0.54156 0.62694 0.0
H738 H 0.52775 0.51841 0.50658 0.0
H739 H 0.542 0.49374 0.52545 0.0
H740 H 0.56439 0.53287 0.5374 0.0
H741 H 0.56678 0.52253 0.63389 0.0
H742 H 0.54453 0.48333 0.6222 0.0
H743 H 0.5318 0.50076 0.6689 0.0
H744 H 0.42584 0.48776 0.60541 0.0
H745 H 0.40464 0.43485 0.58311 0.0
H746 H 0.49651 0.44744 0.56702 0.0
C747 C 0.54365 0.56563 0.60799 0.0
C748 C 0.53467 0.58687 0.62071 0.0
C749 C 0.50333 0.57788 0.62839 0.0
C750 C 0.48108 0.54826 0.62209 0.0
C751 C 0.49062 0.52788 0.60895 0.0
C752 C 0.52116 0.53605 0.6028 0.0
C753 C 0.52528 0.5097 0.58913 0.0
C754 C 0.54076 0.51395 0.53651 0.0
C755 C 0.54315 0.50373 0.63104 0.0
C756 C 0.49227 0.48562 0.58767 0.0
C757 C 0.47261 0.49658 0.59881 0.0
C758 C 0.44098 0.47878 0.59725 0.0
C759 C 0.42913 0.44884 0.58426 0.0
C760 C 0.44896 0.43715 0.57375 0.0
C761 C 0.48086 0.45579 0.57569 0.0
H762 H 0.95625 0.51138 0.79819 0.0
H763 H 0.94073 0.52748 0.95544 0.0
H764 H 0.9593 0.49332 0.98527 0.0
H765 H 0.92988 0.43262 0.81589 0.0
H766 H 0.9573 0.4323 0.77131 0.0
H767 H 0.9433 0.45831 0.76303 0.0
H768 H -0.00114 0.50173 0.76349 0.0
H769 H 0.01302 0.47588 0.77176 0.0
H770 H 0.02339 0.50573 0.81674 0.0
H771 H 0.98428 0.46089 0.99714 0.0
H772 H 0.00765 0.42811 0.98992 0.0
H773 H 0.00039 0.42877 0.82482 0.0
C774 C 0.95672 0.50758 0.83887 0.0
C775 C 0.94737 0.52202 0.87472 0.0
C776 C 0.94782 0.51642 0.92759 0.0
C777 C 0.95838 0.49719 0.94477 0.0
C778 C 0.96757 0.48326 0.90838 0.0
C779 C 0.96622 0.48778 0.85649 0.0
C780 C 0.97642 0.46946 0.82511 0.0
C781 C 0.95015 0.44683 0.79188 0.0
C782 C 0.0046 0.48939 0.79236 0.0
C783 C 0.98434 0.45435 0.86738 0.0
C784 C 0.97951 0.46287 0.9152 0.0
C785 C 0.98754 0.45358 0.95995 0.0
C786 C 0.00081 0.43509 0.95557 0.0
C787 C 0.00513 0.42563 0.90694 0.0
C788 C 0.99653 0.43516 0.86248 0.0
H789 H 0.57053 0.02992 0.37968 0.0
H790 H 0.58644 0.06512 0.22499 0.0
H791 H 0.53077 0.04071 0.21057 0.0
H792 H 0.50884 0.95933 0.34805 0.0
H793 H 0.4877 0.95546 0.40615 0.0
H794 H 0.52869 0.97742 0.40587 0.0
H795 H 0.5246 0.02253 0.44014 0.0
H796 H 0.48359 0.00065 0.44082 0.0
H797 H 0.50173 0.03513 0.40604 0.0
H798 H 0.47371 0.01213 0.21246 0.0
H799 H 0.41887 0.97968 0.22916 0.0
H800 H 0.44 0.96101 0.38137 0.0
C801 C 0.5623 0.03288 0.34303 0.0
C802 C 0.58282 0.04967 0.30359 0.0
C803 C 0.57115 0.05245 0.2558 0.0
C804 C 0.53958 0.03872 0.24727 0.0
C805 C 0.52002 0.02209 0.28676 0.0
C806 C 0.53088 0.01899 0.33364 0.0
C807 C 0.505 -0.00136 0.36872 0.0
C808 C 0.50773 0.97108 0.38301 0.0
C809 C 0.50365 0.01524 0.41676 0.0
C810 C 0.47788 0.99071 0.33413 0.0
C811 C 0.48707 0.0047 0.28723 0.0
C812 C 0.46622 0.00102 0.249 0.0
C813 C 0.4351 0.98253 0.25891 0.0
C814 C 0.42511 0.96766 0.30651 0.0
C815 C 0.44691 0.97186 0.34449 0.0
loop_
_geom_bond_atom_site_label_1
_geom_bond_atom_site_label_2
_geom_bond_distance
_geom_bond_site_symmetry_2
_ccdc_geom_bond_type
Mg0 O1 2.028 . S
Mg0 O7 1.986 . S
Mg0 O9 2.114 . S
Mg0 O10 2.251 . S
Mg0 O13 2.010 . S
O1 Mg0 2.028 . S
O1 C4 1.250 1_554 S
O2 Mg3 2.028 . S
O2 C4 1.248 1_554 S
Mg3 O2 2.028 . S
Mg3 O8 2.032 . S
Mg3 O10 2.079 . S
C4 O1 1.250 1_556 S
C4 O2 1.248 1_556 S
C5 O6 1.264 . S
C5 O13 1.249 . S
O6 C5 1.264 . S
O7 Mg0 1.986 . S
O7 C11 1.246 . S
O8 Mg3 2.032 . S
O8 C11 1.259 . S
O9 Mg0 2.114 . S
O9 C12 1.252 . S
O10 Mg0 2.251 . S
O10 Mg3 2.079 . S
O10 C12 1.273 . S
C11 O7 1.246 . S
C11 O8 1.259 . S
C12 O9 1.252 . S
C12 O10 1.273 . S
O13 Mg0 2.010 . S
O13 C5 1.249 . S
Mg14 O15 2.028 . S
Mg14 O21 1.986 . S
Mg14 O23 2.114 . S
Mg14 O24 2.251 . S
Mg14 O27 2.010 . S
O15 Mg14 2.028 . S
O15 C18 1.250 . S
O16 Mg17 2.028 . S
O16 C18 1.248 1_455 S
Mg17 O16 2.028 . S
Mg17 O22 2.032 . S
Mg17 O24 2.079 1_455 S
C18 O15 1.250 . S
C18 O16 1.248 1_655 S
C19 O20 1.264 . S
C19 O27 1.249 . S
O20 C19 1.264 . S
O21 Mg14 1.986 . S
O21 C25 1.246 . S
O22 Mg17 2.032 . S
O22 C25 1.259 1_455 S
O23 Mg14 2.114 . S
O23 C26 1.252 . S
O24 Mg14 2.251 . S
O24 Mg17 2.079 1_655 S
O24 C26 1.273 . S
C25 O21 1.246 . S
C25 O22 1.259 1_655 S
C26 O23 1.252 . S
C26 O24 1.273 . S
O27 Mg14 2.010 . S
O27 C19 1.249 . S
Mg28 O29 2.028 . S
Mg28 O35 1.986 . S
Mg28 O37 2.114 . S
Mg28 O38 2.251 . S
Mg28 O41 2.010 . S
O29 Mg28 2.028 . S
O29 C32 1.250 . S
O30 Mg31 2.028 . S
O30 C32 1.248 . S
Mg31 O30 2.028 . S
Mg31 O36 2.032 . S
Mg31 O38 2.079 . S
C32 O29 1.250 . S
C32 O30 1.248 . S
C33 O34 1.264 . S
C33 O41 1.249 . S
O34 C33 1.264 . S
O35 Mg28 1.986 . S
O35 C39 1.246 . S
O36 Mg31 2.032 . S
O36 C39 1.259 . S
O37 Mg28 2.114 . S
O37 C40 1.252 . S
O38 Mg28 2.251 . S
O38 Mg31 2.079 . S
O38 C40 1.273 . S
C39 O35 1.246 . S
C39 O36 1.259 . S
C40 O37 1.252 . S
C40 O38 1.273 . S
O41 Mg28 2.010 . S
O41 C33 1.249 . S
Mg42 O43 2.028 . S
Mg42 O49 1.986 . S
Mg42 O51 2.114 . S
Mg42 O52 2.251 . S
Mg42 O55 2.010 . S
O43 Mg42 2.028 . S
O43 C46 1.250 1_554 S
O44 Mg45 2.028 . S
O44 C46 1.248 1_554 S
Mg45 O44 2.028 . S
Mg45 O50 2.032 . S
Mg45 O52 2.079 . S
C46 O43 1.250 1_556 S
C46 O44 1.248 1_556 S
C47 O48 1.264 . S
C47 O55 1.249 . S
O48 C47 1.264 . S
O49 Mg42 1.986 . S
O49 C53 1.246 . S
O50 Mg45 2.032 . S
O50 C53 1.259 . S
O51 Mg42 2.114 . S
O51 C54 1.252 . S
O52 Mg42 2.251 . S
O52 Mg45 2.079 . S
O52 C54 1.273 . S
C53 O49 1.246 . S
C53 O50 1.259 . S
C54 O51 1.252 . S
C54 O52 1.273 . S
O55 Mg42 2.010 . S
O55 C47 1.249 . S
Mg56 O57 2.028 . S
Mg56 O63 1.986 . S
Mg56 O65 2.114 . S
Mg56 O66 2.251 . S
Mg56 O69 2.010 . S
O57 Mg56 2.028 . S
O57 C60 1.250 . S
O58 Mg59 2.028 . S
O58 C60 1.248 1_655 S
Mg59 O58 2.028 . S
Mg59 O64 2.032 . S
Mg59 O66 2.079 1_655 S
C60 O57 1.250 . S
C60 O58 1.248 1_455 S
C61 O62 1.264 . S
C61 O69 1.249 . S
O62 C61 1.264 . S
O63 Mg56 1.986 . S
O63 C67 1.246 . S
O64 Mg59 2.032 . S
O64 C67 1.259 1_655 S
O65 Mg56 2.114 . S
O65 C68 1.252 . S
O66 Mg56 2.251 . S
O66 Mg59 2.079 1_455 S
O66 C68 1.273 . S
C67 O63 1.246 . S
C67 O64 1.259 1_455 S
C68 O65 1.252 . S
C68 O66 1.273 . S
O69 Mg56 2.010 . S
O69 C61 1.249 . S
Mg70 O71 2.028 . S
Mg70 O77 1.986 . S
Mg70 O79 2.114 . S
Mg70 O80 2.251 . S
Mg70 O83 2.010 . S
O71 Mg70 2.028 . S
O71 C74 1.250 . S
O72 Mg73 2.028 . S
O72 C74 1.248 . S
Mg73 O72 2.028 . S
Mg73 O78 2.032 . S
Mg73 O80 2.079 . S
C74 O71 1.250 . S
C74 O72 1.248 . S
C75 O76 1.264 . S
C75 O83 1.249 . S
O76 C75 1.264 . S
O77 Mg70 1.986 . S
O77 C81 1.246 . S
O78 Mg73 2.032 . S
O78 C81 1.259 . S
O79 Mg70 2.114 . S
O79 C82 1.252 . S
O80 Mg70 2.251 . S
O80 Mg73 2.079 . S
O80 C82 1.273 . S
C81 O77 1.246 . S
C81 O78 1.259 . S
C82 O79 1.252 . S
C82 O80 1.273 . S
O83 Mg70 2.010 . S
O83 C75 1.249 . S
Mg84 O85 2.028 . S
Mg84 O91 1.986 . S
Mg84 O93 2.114 . S
Mg84 O94 2.251 . S
Mg84 O97 2.010 . S
O85 Mg84 2.028 . S
O85 C88 1.250 . S
O86 Mg87 2.028 . S
O86 C88 1.248 . S
Mg87 O86 2.028 . S
Mg87 O92 2.032 . S
Mg87 O94 2.079 . S
C88 O85 1.250 . S
C88 O86 1.248 . S
C89 O90 1.264 . S
C89 O97 1.249 . S
O90 C89 1.264 . S
O91 Mg84 1.986 . S
O91 C95 1.246 . S
O92 Mg87 2.032 . S
O92 C95 1.259 . S
O93 Mg84 2.114 . S
O93 C96 1.252 . S
O94 Mg84 2.251 . S
O94 Mg87 2.079 . S
O94 C96 1.273 . S
C95 O91 1.246 . S
C95 O92 1.259 . S
C96 O93 1.252 . S
C96 O94 1.273 . S
O97 Mg84 2.010 . S
O97 C89 1.249 . S
Mg98 O99 2.028 . S
Mg98 O105 1.986 . S
Mg98 O107 2.114 . S
Mg98 O108 2.251 . S
Mg98 O111 2.010 . S
O99 Mg98 2.028 . S
O99 C102 1.250 1_556 S
O100 Mg101 2.028 . S
O100 C102 1.248 1_456 S
Mg101 O100 2.028 . S
Mg101 O106 2.032 . S
Mg101 O108 2.079 1_455 S
C102 O99 1.250 1_554 S
C102 O100 1.248 1_654 S
C103 O104 1.264 . S
C103 O111 1.249 . S
O104 C103 1.264 . S
O105 Mg98 1.986 . S
O105 C109 1.246 . S
O106 Mg101 2.032 . S
O106 C109 1.259 1_455 S
O107 Mg98 2.114 . S
O107 C110 1.252 . S
O108 Mg98 2.251 . S
O108 Mg101 2.079 1_655 S
O108 C110 1.273 . S
C109 O105 1.246 . S
C109 O106 1.259 1_655 S
C110 O107 1.252 . S
C110 O108 1.273 . S
O111 Mg98 2.010 . S
O111 C103 1.249 . S
Mg112 O113 2.028 . S
Mg112 O119 1.986 . S
Mg112 O121 2.114 . S
Mg112 O122 2.251 . S
Mg112 O125 2.010 . S
O113 Mg112 2.028 . S
O113 C116 1.250 . S
O114 Mg115 2.028 . S
O114 C116 1.248 . S
Mg115 O114 2.028 . S
Mg115 O120 2.032 . S
Mg115 O122 2.079 . S
C116 O113 1.250 . S
C116 O114 1.248 . S
C117 O118 1.264 . S
C117 O125 1.249 . S
O118 C117 1.264 . S
O119 Mg112 1.986 . S
O119 C123 1.246 . S
O120 Mg115 2.032 . S
O120 C123 1.259 . S
O121 Mg112 2.114 . S
O121 C124 1.252 . S
O122 Mg112 2.251 . S
O122 Mg115 2.079 . S
O122 C124 1.273 . S
C123 O119 1.246 . S
C123 O120 1.259 . S
C124 O121 1.252 . S
C124 O122 1.273 . S
O125 Mg112 2.010 . S
O125 C117 1.249 . S
Mg126 O127 2.028 . S
Mg126 O133 1.986 . S
Mg126 O135 2.114 . S
Mg126 O136 2.251 . S
Mg126 O139 2.010 . S
O127 Mg126 2.028 . S
O127 C130 1.250 . S
O128 Mg129 2.028 . S
O128 C130 1.248 . S
Mg129 O128 2.028 . S
Mg129 O134 2.032 . S
Mg129 O136 2.079 . S
C130 O127 1.250 . S
C130 O128 1.248 . S
C131 O132 1.264 . S
C131 O139 1.249 . S
O132 C131 1.264 . S
O133 Mg126 1.986 . S
O133 C137 1.246 . S
O134 Mg129 2.032 . S
O134 C137 1.259 . S
O135 Mg126 2.114 . S
O135 C138 1.252 . S
O136 Mg126 2.251 . S
O136 Mg129 2.079 . S
O136 C138 1.273 . S
C137 O133 1.246 . S
C137 O134 1.259 . S
C138 O135 1.252 . S
C138 O136 1.273 . S
O139 Mg126 2.010 . S
O139 C131 1.249 . S
Mg140 O141 2.028 . S
Mg140 O147 1.986 . S
Mg140 O149 2.114 . S
Mg140 O150 2.251 . S
Mg140 O153 2.010 . S
O141 Mg140 2.028 . S
O141 C144 1.250 1_556 S
O142 Mg143 2.028 . S
O142 C144 1.248 1_656 S
Mg143 O142 2.028 . S
Mg143 O148 2.032 . S
Mg143 O150 2.079 1_655 S
C144 O141 1.250 1_554 S
C144 O142 1.248 1_454 S
C145 O146 1.264 . S
C145 O153 1.249 . S
O146 C145 1.264 . S
O147 Mg140 1.986 . S
O147 C151 1.246 . S
O148 Mg143 2.032 . S
O148 C151 1.259 1_655 S
O149 Mg140 2.114 . S
O149 C152 1.252 . S
O150 Mg140 2.251 . S
O150 Mg143 2.079 1_455 S
O150 C152 1.273 . S
C151 O147 1.246 . S
C151 O148 1.259 1_455 S
C152 O149 1.252 . S
C152 O150 1.273 . S
O153 Mg140 2.010 . S
O153 C145 1.249 . S
Mg154 O155 2.028 . S
Mg154 O161 1.986 . S
Mg154 O163 2.114 . S
Mg154 O164 2.251 . S
Mg154 O167 2.010 . S
O155 Mg154 2.028 . S
O155 C158 1.250 . S
O156 Mg157 2.028 . S
O156 C158 1.248 . S
Mg157 O156 2.028 . S
Mg157 O162 2.032 . S
Mg157 O164 2.079 . S
C158 O155 1.250 . S
C158 O156 1.248 . S
C159 O160 1.264 . S
C159 O167 1.249 . S
O160 C159 1.264 . S
O161 Mg154 1.986 . S
O161 C165 1.246 . S
O162 Mg157 2.032 . S
O162 C165 1.259 . S
O163 Mg154 2.114 . S
O163 C166 1.252 . S
O164 Mg154 2.251 . S
O164 Mg157 2.079 . S
O164 C166 1.273 . S
C165 O161 1.246 . S
C165 O162 1.259 . S
C166 O163 1.252 . S
C166 O164 1.273 . S
O167 Mg154 2.010 . S
O167 C159 1.249 . S
H168 C180 0.930 . S
H169 C182 0.930 . S
H170 C183 0.930 . S
H171 C187 0.959 . S
H172 C187 0.959 . S
H173 C187 0.961 . S
H174 C188 0.960 . S
H175 C188 0.961 . S
H176 C188 0.959 . S
H177 C191 0.929 . S
H178 C192 0.931 . S
H179 C194 0.930 . S
C180 H168 0.930 . S
C180 C181 1.399 . S
C180 C185 1.399 . S
C181 C180 1.399 . S
C181 C182 1.376 . S
C182 H169 0.930 . S
C182 C181 1.376 . S
C182 C183 1.388 . S
C183 H170 0.930 . S
C183 C182 1.388 . S
C183 C184 1.390 . S
C184 C183 1.390 . S
C184 C185 1.394 . S
C184 C190 1.465 . S
C185 C180 1.399 . S
C185 C184 1.394 . S
C185 C186 1.516 . S
C186 C185 1.516 . S
C186 C187 1.502 . S
C186 C188 1.561 . S
C186 C189 1.526 . S
C187 H171 0.959 . S
C187 H172 0.959 . S
C187 H173 0.961 . S
C187 C186 1.502 . S
C188 H174 0.960 . S
C188 H175 0.961 . S
C188 H176 0.959 . S
C188 C186 1.561 . S
C189 C186 1.526 . S
C189 C190 1.396 . S
C189 C194 1.390 . S
C190 C184 1.465 . S
C190 C189 1.396 . S
C190 C191 1.399 . S
C191 H177 0.929 . S
C191 C190 1.399 . S
C191 C192 1.385 . S
C192 H178 0.931 . S
C192 C191 1.385 . S
C192 C193 1.389 . S
C193 C192 1.389 . S
C193 C194 1.387 . S
C194 H179 0.930 . S
C194 C189 1.390 . S
C194 C193 1.387 . S
H195 C207 0.930 . S
H196 C209 0.930 . S
H197 C210 0.930 . S
H198 C214 0.959 . S
H199 C214 0.959 . S
H200 C214 0.961 . S
H201 C215 0.960 . S
H202 C215 0.961 . S
H203 C215 0.959 . S
H204 C218 0.929 . S
H205 C219 0.931 . S
H206 C221 0.930 . S
C207 H195 0.930 . S
C207 C208 1.399 . S
C207 C212 1.399 . S
C208 C207 1.399 . S
C208 C209 1.376 1_655 S
C209 H196 0.930 . S
C209 C208 1.376 1_455 S
C209 C210 1.388 . S
C210 H197 0.930 . S
C210 C209 1.388 . S
C210 C211 1.390 . S
C211 C210 1.390 . S
C211 C212 1.394 1_455 S
C211 C217 1.465 . S
C212 C207 1.399 . S
C212 C211 1.394 1_655 S
C212 C213 1.516 . S
C213 C212 1.516 . S
C213 C214 1.502 . S
C213 C215 1.561 . S
C213 C216 1.526 . S
C214 H198 0.959 . S
C214 H199 0.959 . S
C214 H200 0.961 . S
C214 C213 1.502 . S
C215 H201 0.960 . S
C215 H202 0.961 . S
C215 H203 0.959 . S
C215 C213 1.561 . S
C216 C213 1.526 . S
C216 C217 1.396 1_655 S
C216 C221 1.390 . S
C217 C211 1.465 . S
C217 C216 1.396 1_455 S
C217 C218 1.399 . S
C218 H204 0.929 . S
C218 C217 1.399 . S
C218 C219 1.385 . S
C219 H205 0.931 . S
C219 C218 1.385 . S
C219 C220 1.405 . S
C220 C219 1.405 . S
C220 C221 1.374 1_455 S
C221 H206 0.930 . S
C221 C216 1.390 . S
C221 C220 1.374 1_655 S
H222 C234 0.930 . S
H223 C236 0.930 . S
H224 C237 0.930 . S
H225 C241 0.959 . S
H226 C241 0.959 . S
H227 C241 0.961 1_556 S
H228 C242 0.960 1_556 S
H229 C242 0.961 . S
H230 C242 0.959 . S
H231 C245 0.929 . S
H232 C246 0.931 . S
H233 C248 0.930 . S
C234 H222 0.930 . S
C234 C235 1.399 . S
C234 C239 1.399 . S
C235 C234 1.399 . S
C235 C236 1.376 1_565 S
C236 H223 0.930 . S
C236 C235 1.376 1_545 S
C236 C237 1.388 . S
C237 H224 0.930 . S
C237 C236 1.388 . S
C237 C238 1.390 . S
C238 C237 1.390 . S
C238 C239 1.394 1_545 S
C238 C244 1.465 1_556 S
C239 C234 1.399 . S
C239 C238 1.394 1_565 S
C239 C240 1.516 1_556 S
C240 C239 1.516 1_554 S
C240 C241 1.502 . S
C240 C242 1.561 . S
C240 C243 1.526 . S
C241 H225 0.959 . S
C241 H226 0.959 . S
C241 H227 0.961 1_554 S
C241 C240 1.502 . S
C242 H228 0.960 1_554 S
C242 H229 0.961 . S
C242 H230 0.959 . S
C242 C240 1.561 . S
C243 C240 1.526 . S
C243 C244 1.396 1_565 S
C243 C248 1.390 . S
C244 C238 1.465 1_554 S
C244 C243 1.396 1_545 S
C244 C245 1.399 . S
C245 H231 0.929 . S
C245 C244 1.399 . S
C245 C246 1.385 . S
C246 H232 0.931 . S
C246 C245 1.385 . S
C246 C247 1.389 . S
C247 C246 1.389 . S
C247 C248 1.387 1_545 S
C248 H233 0.930 . S
C248 C243 1.390 . S
C248 C247 1.387 1_565 S
H249 C261 0.930 . S
H250 C263 0.930 . S
H251 C264 0.930 . S
H252 C268 0.959 . S
H253 C268 0.959 . S
H254 C268 0.961 . S
H255 C269 0.960 . S
H256 C269 0.961 . S
H257 C269 0.959 . S
H258 C272 0.929 . S
H259 C273 0.931 . S
H260 C275 0.930 . S
C261 H249 0.930 . S
C261 C262 1.399 . S
C261 C266 1.399 . S
C262 C261 1.399 . S
C262 C263 1.376 . S
C263 H250 0.930 . S
C263 C262 1.376 . S
C263 C264 1.388 . S
C264 H251 0.930 . S
C264 C263 1.388 . S
C264 C265 1.390 . S
C265 C264 1.390 . S
C265 C266 1.394 . S
C265 C271 1.465 . S
C266 C261 1.399 . S
C266 C265 1.394 . S
C266 C267 1.516 . S
C267 C266 1.516 . S
C267 C268 1.502 . S
C267 C269 1.561 . S
C267 C270 1.526 . S
C268 H252 0.959 . S
C268 H253 0.959 . S
C268 H254 0.961 . S
C268 C267 1.502 . S
C269 H255 0.960 . S
C269 H256 0.961 . S
C269 H257 0.959 . S
C269 C267 1.561 . S
C270 C267 1.526 . S
C270 C271 1.396 . S
C270 C275 1.390 . S
C271 C265 1.465 . S
C271 C270 1.396 . S
C271 C272 1.399 . S
C272 H258 0.929 . S
C272 C271 1.399 . S
C272 C273 1.385 . S
C273 H259 0.931 . S
C273 C272 1.385 . S
C273 C274 1.389 . S
C274 C273 1.389 . S
C274 C275 1.387 . S
C275 H260 0.930 . S
C275 C270 1.390 . S
C275 C274 1.387 . S
H276 C288 0.930 . S
H277 C290 0.930 . S
H278 C291 0.930 . S
H279 C295 0.959 . S
H280 C295 0.959 . S
H281 C295 0.961 . S
H282 C296 0.960 . S
H283 C296 0.961 . S
H284 C296 0.959 . S
H285 C299 0.929 . S
H286 C300 0.928 1_655 S
H287 C302 0.930 . S
C288 H276 0.930 . S
C288 C289 1.388 1_455 S
C288 C293 1.399 . S
C289 C288 1.388 1_655 S
C289 C290 1.390 . S
C290 H277 0.930 . S
C290 C289 1.390 . S
C290 C291 1.388 . S
C291 H278 0.930 . S
C291 C290 1.388 . S
C291 C292 1.414 . S
C292 C291 1.414 . S
C292 C293 1.368 1_655 S
C292 C298 1.462 1_655 S
C293 C288 1.399 . S
C293 C292 1.368 1_455 S
C293 C294 1.516 . S
C294 C293 1.516 . S
C294 C295 1.502 . S
C294 C296 1.561 1_455 S
C294 C297 1.526 . S
C295 H279 0.959 . S
C295 H280 0.959 . S
C295 H281 0.961 . S
C295 C294 1.502 . S
C296 H282 0.960 . S
C296 H283 0.961 . S
C296 H284 0.959 . S
C296 C294 1.561 1_655 S
C297 C294 1.526 . S
C297 C298 1.396 . S
C297 C302 1.390 . S
C298 C292 1.462 1_455 S
C298 C297 1.396 . S
C298 C299 1.399 1_455 S
C299 H285 0.929 . S
C299 C298 1.399 1_655 S
C299 C300 1.385 1_655 S
C300 H286 0.928 1_455 S
C300 C299 1.385 1_455 S
C300 C301 1.389 . S
C301 C300 1.389 . S
C301 C302 1.387 . S
C302 H287 0.930 . S
C302 C297 1.390 . S
C302 C301 1.387 . S
H303 C315 0.930 . S
H304 C317 0.930 . S
H305 C318 0.930 . S
H306 C322 0.959 . S
H307 C322 0.959 . S
H308 C322 0.961 1_554 S
H309 C323 0.960 1_554 S
H310 C323 0.961 . S
H311 C323 0.959 . S
H312 C326 0.929 . S
H313 C327 0.931 . S
H314 C329 0.930 . S
C315 H303 0.930 . S
C315 C316 1.399 . S
C315 C320 1.399 . S
C316 C315 1.399 . S
C316 C317 1.376 1_565 S
C317 H304 0.930 . S
C317 C316 1.376 1_545 S
C317 C318 1.388 . S
C318 H305 0.930 . S
C318 C317 1.388 . S
C318 C319 1.390 . S
C319 C318 1.390 . S
C319 C320 1.394 1_545 S
C319 C325 1.465 1_554 S
C320 C315 1.399 . S
C320 C319 1.394 1_565 S
C320 C321 1.516 1_554 S
C321 C320 1.516 1_556 S
C321 C322 1.502 . S
C321 C323 1.561 . S
C321 C324 1.526 . S
C322 H306 0.959 . S
C322 H307 0.959 . S
C322 H308 0.961 1_556 S
C322 C321 1.502 . S
C323 H309 0.960 1_556 S
C323 H310 0.961 . S
C323 H311 0.959 . S
C323 C321 1.561 . S
C324 C321 1.526 . S
C324 C325 1.396 1_565 S
C324 C329 1.390 . S
C325 C319 1.465 1_556 S
C325 C324 1.396 1_545 S
C325 C326 1.399 . S
C326 H312 0.929 . S
C326 C325 1.399 . S
C326 C327 1.385 . S
C327 H313 0.931 . S
C327 C326 1.385 . S
C327 C328 1.389 . S
C328 C327 1.389 . S
C328 C329 1.387 1_545 S
C329 H314 0.930 . S
C329 C324 1.390 . S
C329 C328 1.387 1_565 S
H330 C342 0.930 . S
H331 C344 0.930 . S
H332 C345 0.930 . S
H333 C349 0.959 . S
H334 C349 0.959 . S
H335 C349 0.961 . S
H336 C350 0.960 . S
H337 C350 0.961 . S
H338 C350 0.959 . S
H339 C353 0.929 . S
H340 C354 0.931 . S
H341 C356 0.930 . S
C342 H330 0.930 . S
C342 C343 1.399 . S
C342 C347 1.399 . S
C343 C342 1.399 . S
C343 C344 1.376 . S
C344 H331 0.930 . S
C344 C343 1.376 . S
C344 C345 1.388 . S
C345 H332 0.930 . S
C345 C344 1.388 . S
C345 C346 1.390 . S
C346 C345 1.390 . S
C346 C347 1.394 . S
C346 C352 1.465 . S
C347 C342 1.399 . S
C347 C346 1.394 . S
C347 C348 1.516 1_556 S
C348 C347 1.516 1_554 S
C348 C349 1.502 . S
C348 C350 1.561 1_554 S
C348 C351 1.526 . S
C349 H333 0.959 . S
C349 H334 0.959 . S
C349 H335 0.961 . S
C349 C348 1.502 . S
C350 H336 0.960 . S
C350 H337 0.961 . S
C350 H338 0.959 . S
C350 C348 1.561 1_556 S
C351 C348 1.526 . S
C351 C352 1.396 1_554 S
C351 C356 1.390 . S
C352 C346 1.465 . S
C352 C351 1.396 1_556 S
C352 C353 1.399 . S
C353 H339 0.929 . S
C353 C352 1.399 . S
C353 C354 1.385 1_556 S
C354 H340 0.931 . S
C354 C353 1.385 1_554 S
C354 C355 1.389 . S
C355 C354 1.389 . S
C355 C356 1.387 . S
C356 H341 0.930 . S
C356 C351 1.390 . S
C356 C355 1.387 . S
H357 C369 0.930 . S
H358 C371 0.930 . S
H359 C372 0.930 . S
H360 C376 0.959 . S
H361 C376 0.959 . S
H362 C376 0.961 . S
H363 C377 0.960 . S
H364 C377 0.961 . S
H365 C377 0.959 . S
H366 C380 0.929 . S
H367 C381 0.931 . S
H368 C383 0.930 . S
C369 H357 0.930 . S
C369 C370 1.399 . S
C369 C374 1.399 . S
C370 C369 1.399 . S
C370 C371 1.376 . S
C371 H358 0.930 . S
C371 C370 1.376 . S
C371 C372 1.388 . S
C372 H359 0.930 . S
C372 C371 1.388 . S
C372 C373 1.390 . S
C373 C372 1.390 . S
C373 C374 1.394 . S
C373 C379 1.465 . S
C374 C369 1.399 . S
C374 C373 1.394 . S
C374 C375 1.516 . S
C375 C374 1.516 . S
C375 C376 1.502 . S
C375 C377 1.561 . S
C375 C378 1.526 . S
C376 H360 0.959 . S
C376 H361 0.959 . S
C376 H362 0.961 . S
C376 C375 1.502 . S
C377 H363 0.960 . S
C377 H364 0.961 . S
C377 H365 0.959 . S
C377 C375 1.561 . S
C378 C375 1.526 . S
C378 C379 1.396 . S
C378 C383 1.390 . S
C379 C373 1.465 . S
C379 C378 1.396 . S
C379 C380 1.399 . S
C380 H366 0.929 . S
C380 C379 1.399 . S
C380 C381 1.385 . S
C381 H367 0.931 . S
C381 C380 1.385 . S
C381 C382 1.389 . S
C382 C381 1.389 . S
C382 C383 1.387 . S
C383 H368 0.930 . S
C383 C378 1.390 . S
C383 C382 1.387 . S
H384 C396 0.930 . S
H385 C398 0.930 . S
H386 C399 0.930 . S
H387 C403 0.959 . S
H388 C403 0.959 . S
H389 C403 0.961 . S
H390 C404 0.960 . S
H391 C404 0.961 . S
H392 C404 0.959 . S
H393 C407 0.929 . S
H394 C408 0.931 . S
H395 C410 0.930 . S
C396 H384 0.930 . S
C396 C397 1.399 . S
C396 C401 1.399 . S
C397 C396 1.399 . S
C397 C398 1.376 . S
C398 H385 0.930 . S
C398 C397 1.376 . S
C398 C399 1.388 . S
C399 H386 0.930 . S
C399 C398 1.388 . S
C399 C400 1.390 . S
C400 C399 1.390 . S
C400 C401 1.394 . S
C400 C406 1.465 . S
C401 C396 1.399 . S
C401 C400 1.394 . S
C401 C402 1.516 . S
C402 C401 1.516 . S
C402 C403 1.502 . S
C402 C404 1.561 . S
C402 C405 1.526 . S
C403 H387 0.959 . S
C403 H388 0.959 . S
C403 H389 0.961 . S
C403 C402 1.502 . S
C404 H390 0.960 . S
C404 H391 0.961 . S
C404 H392 0.959 . S
C404 C402 1.561 . S
C405 C402 1.526 . S
C405 C406 1.396 . S
C405 C410 1.390 . S
C406 C400 1.465 . S
C406 C405 1.396 . S
C406 C407 1.399 . S
C407 H393 0.929 . S
C407 C406 1.399 . S
C407 C408 1.385 . S
C408 H394 0.931 . S
C408 C407 1.385 . S
C408 C409 1.389 . S
C409 C408 1.389 . S
C409 C410 1.387 . S
C410 H395 0.930 . S
C410 C405 1.390 . S
C410 C409 1.387 . S
H411 C423 0.930 . S
H412 C425 0.930 . S
H413 C426 0.930 . S
H414 C430 0.959 . S
H415 C430 0.959 . S
H416 C430 0.961 . S
H417 C431 0.960 . S
H418 C431 0.961 . S
H419 C431 0.959 . S
H420 C434 0.929 . S
H421 C435 0.931 . S
H422 C437 0.930 . S
C423 H411 0.930 . S
C423 C424 1.399 . S
C423 C428 1.399 . S
C424 C423 1.399 . S
C424 C425 1.376 . S
C425 H412 0.930 . S
C425 C424 1.376 . S
C425 C426 1.388 . S
C426 H413 0.930 . S
C426 C425 1.388 . S
C426 C427 1.390 . S
C427 C426 1.390 . S
C427 C428 1.394 . S
C427 C433 1.465 1_554 S
C428 C423 1.399 . S
C428 C427 1.394 . S
C428 C429 1.516 1_554 S
C429 C428 1.516 1_556 S
C429 C430 1.502 1_556 S
C429 C431 1.561 . S
C429 C432 1.526 . S
C430 H414 0.959 . S
C430 H415 0.959 . S
C430 H416 0.961 . S
C430 C429 1.502 1_554 S
C431 H417 0.960 . S
C431 H418 0.961 . S
C431 H419 0.959 . S
C431 C429 1.561 . S
C432 C429 1.526 . S
C432 C433 1.396 . S
C432 C437 1.390 . S
C433 C427 1.465 1_556 S
C433 C432 1.396 . S
C433 C434 1.399 . S
C434 H420 0.929 . S
C434 C433 1.399 . S
C434 C435 1.385 . S
C435 H421 0.931 . S
C435 C434 1.385 . S
C435 C436 1.389 . S
C436 C435 1.389 . S
C436 C437 1.387 . S
C437 H422 0.930 . S
C437 C432 1.390 . S
C437 C436 1.387 . S
H438 C450 0.930 . S
H439 C452 0.930 . S
H440 C453 0.930 . S
H441 C457 0.959 . S
H442 C457 0.959 . S
H443 C457 0.961 . S
H444 C458 0.960 . S
H445 C458 0.961 . S
H446 C458 0.959 . S
H447 C461 0.929 . S
H448 C462 0.931 . S
H449 C464 0.930 . S
C450 H438 0.930 . S
C450 C451 1.399 . S
C450 C455 1.399 . S
C451 C450 1.399 . S
C451 C452 1.376 . S
C452 H439 0.930 . S
C452 C451 1.376 . S
C452 C453 1.388 . S
C453 H440 0.930 . S
C453 C452 1.388 . S
C453 C454 1.390 . S
C454 C453 1.390 . S
C454 C455 1.394 . S
C454 C460 1.465 . S
C455 C450 1.399 . S
C455 C454 1.394 . S
C455 C456 1.516 . S
C456 C455 1.516 . S
C456 C457 1.502 . S
C456 C458 1.561 . S
C456 C459 1.526 . S
C457 H441 0.959 . S
C457 H442 0.959 . S
C457 H443 0.961 . S
C457 C456 1.502 . S
C458 H444 0.960 . S
C458 H445 0.961 . S
C458 H446 0.959 . S
C458 C456 1.561 . S
C459 C456 1.526 . S
C459 C460 1.396 . S
C459 C464 1.390 . S
C460 C454 1.465 . S
C460 C459 1.396 . S
C460 C461 1.399 . S
C461 H447 0.929 . S
C461 C460 1.399 . S
C461 C462 1.385 . S
C462 H448 0.931 . S
C462 C461 1.385 . S
C462 C463 1.389 . S
C463 C462 1.389 . S
C463 C464 1.387 . S
C464 H449 0.930 . S
C464 C459 1.390 . S
C464 C463 1.387 . S
H465 C477 0.930 . S
H466 C479 0.930 . S
H467 C480 0.930 . S
H468 C484 0.959 . S
H469 C484 0.959 . S
H470 C484 0.961 . S
H471 C485 0.960 . S
H472 C485 0.961 . S
H473 C485 0.959 . S
H474 C488 0.929 . S
H475 C489 0.931 . S
H476 C491 0.930 . S
C477 H465 0.930 . S
C477 C478 1.399 . S
C477 C482 1.399 . S
C478 C477 1.399 . S
C478 C479 1.376 . S
C479 H466 0.930 . S
C479 C478 1.376 . S
C479 C480 1.388 . S
C480 H467 0.930 . S
C480 C479 1.388 . S
C480 C481 1.390 . S
C481 C480 1.390 . S
C481 C482 1.394 . S
C481 C487 1.465 . S
C482 C477 1.399 . S
C482 C481 1.394 . S
C482 C483 1.516 . S
C483 C482 1.516 . S
C483 C484 1.502 . S
C483 C485 1.561 . S
C483 C486 1.526 . S
C484 H468 0.959 . S
C484 H469 0.959 . S
C484 H470 0.961 . S
C484 C483 1.502 . S
C485 H471 0.960 . S
C485 H472 0.961 . S
C485 H473 0.959 . S
C485 C483 1.561 . S
C486 C483 1.526 . S
C486 C487 1.396 . S
C486 C491 1.390 . S
C487 C481 1.465 . S
C487 C486 1.396 . S
C487 C488 1.399 . S
C488 H474 0.929 . S
C488 C487 1.399 . S
C488 C489 1.385 . S
C489 H475 0.931 . S
C489 C488 1.385 . S
C489 C490 1.389 . S
C490 C489 1.389 . S
C490 C491 1.387 . S
C491 H476 0.930 . S
C491 C486 1.390 . S
C491 C490 1.387 . S
H492 C504 0.930 . S
H493 C506 0.930 . S
H494 C507 0.930 . S
H495 C511 0.959 . S
H496 C511 0.959 . S
H497 C511 0.961 . S
H498 C512 0.960 . S
H499 C512 0.961 . S
H500 C512 0.959 . S
H501 C515 0.929 . S
H502 C516 0.931 . S
H503 C518 0.930 . S
C504 H492 0.930 . S
C504 C505 1.399 . S
C504 C509 1.399 . S
C505 C504 1.399 . S
C505 C506 1.376 . S
C506 H493 0.930 . S
C506 C505 1.376 . S
C506 C507 1.388 . S
C507 H494 0.930 . S
C507 C506 1.388 . S
C507 C508 1.390 . S
C508 C507 1.390 . S
C508 C509 1.394 . S
C508 C514 1.465 . S
C509 C504 1.399 . S
C509 C508 1.394 . S
C509 C510 1.516 . S
C510 C509 1.516 . S
C510 C511 1.502 . S
C510 C512 1.561 . S
C510 C513 1.526 . S
C511 H495 0.959 . S
C511 H496 0.959 . S
C511 H497 0.961 . S
C511 C510 1.502 . S
C512 H498 0.960 . S
C512 H499 0.961 . S
C512 H500 0.959 . S
C512 C510 1.561 . S
C513 C510 1.526 . S
C513 C514 1.396 . S
C513 C518 1.390 . S
C514 C508 1.465 . S
C514 C513 1.396 . S
C514 C515 1.399 . S
C515 H501 0.929 . S
C515 C514 1.399 . S
C515 C516 1.385 . S
C516 H502 0.931 . S
C516 C515 1.385 . S
C516 C517 1.389 . S
C517 C516 1.389 . S
C517 C518 1.387 . S
C518 H503 0.930 . S
C518 C513 1.390 . S
C518 C517 1.387 . S
H519 C531 0.930 . S
H520 C533 0.930 . S
H521 C534 0.930 . S
H522 C538 0.959 . S
H523 C538 0.959 . S
H524 C538 0.961 . S
H525 C539 0.960 . S
H526 C539 0.961 . S
H527 C539 0.959 . S
H528 C542 0.929 . S
H529 C543 0.931 1_455 S
H530 C545 0.930 . S
C531 H519 0.930 . S
C531 C532 1.399 . S
C531 C536 1.399 . S
C532 C531 1.399 . S
C532 C533 1.376 . S
C533 H520 0.930 . S
C533 C532 1.376 . S
C533 C534 1.388 . S
C534 H521 0.930 . S
C534 C533 1.388 . S
C534 C535 1.390 . S
C535 C534 1.390 . S
C535 C536 1.394 . S
C535 C541 1.465 . S
C536 C531 1.399 . S
C536 C535 1.394 . S
C536 C537 1.516 . S
C537 C536 1.516 . S
C537 C538 1.502 1_655 S
C537 C539 1.561 . S
C537 C540 1.526 . S
C538 H522 0.959 . S
C538 H523 0.959 . S
C538 H524 0.961 . S
C538 C537 1.502 1_455 S
C539 H525 0.960 . S
C539 H526 0.961 . S
C539 H527 0.959 . S
C539 C537 1.561 . S
C540 C537 1.526 . S
C540 C541 1.396 . S
C540 C545 1.390 . S
C541 C535 1.465 . S
C541 C540 1.396 . S
C541 C542 1.399 . S
C542 H528 0.929 . S
C542 C541 1.399 . S
C542 C543 1.385 . S
C543 H529 0.931 1_655 S
C543 C542 1.385 . S
C543 C544 1.389 . S
C544 C543 1.389 . S
C544 C545 1.387 . S
C545 H530 0.930 . S
C545 C540 1.390 . S
C545 C544 1.387 . S
H546 C558 0.930 . S
H547 C560 0.930 . S
H548 C561 0.930 . S
H549 C565 0.959 . S
H550 C565 0.959 . S
H551 C565 0.961 . S
H552 C566 0.960 . S
H553 C566 0.961 . S
H554 C566 0.959 . S
H555 C569 0.929 . S
H556 C570 0.931 . S
H557 C572 0.930 . S
C558 H546 0.930 . S
C558 C559 1.399 1_545 S
C558 C563 1.399 . S
C559 C558 1.399 1_565 S
C559 C560 1.376 . S
C560 H547 0.930 . S
C560 C559 1.376 . S
C560 C561 1.388 . S
C561 H548 0.930 . S
C561 C560 1.388 . S
C561 C562 1.390 . S
C562 C561 1.390 . S
C562 C563 1.394 1_565 S
C562 C568 1.465 . S
C563 C558 1.399 . S
C563 C562 1.394 1_545 S
C563 C564 1.516 . S
C564 C563 1.516 . S
C564 C565 1.502 . S
C564 C566 1.561 . S
C564 C567 1.526 . S
C565 H549 0.959 . S
C565 H550 0.959 . S
C565 H551 0.961 . S
C565 C564 1.502 . S
C566 H552 0.960 . S
C566 H553 0.961 . S
C566 H554 0.959 . S
C566 C564 1.561 . S
C567 C564 1.526 . S
C567 C568 1.396 1_545 S
C567 C572 1.390 . S
C568 C562 1.465 . S
C568 C567 1.396 1_565 S
C568 C569 1.399 . S
C569 H555 0.929 . S
C569 C568 1.399 . S
C569 C570 1.385 . S
C570 H556 0.931 . S
C570 C569 1.385 . S
C570 C571 1.389 1_565 S
C571 C570 1.389 1_545 S
C571 C572 1.387 . S
C572 H557 0.930 . S
C572 C567 1.390 . S
C572 C571 1.387 . S
H573 C585 0.930 . S
H574 C587 0.930 . S
H575 C588 0.930 . S
H576 C592 0.959 . S
H577 C592 0.959 . S
H578 C592 0.961 . S
H579 C593 0.960 . S
H580 C593 0.961 . S
H581 C593 0.959 . S
H582 C596 0.929 . S
H583 C597 0.931 . S
H584 C599 0.930 . S
C585 H573 0.930 . S
C585 C586 1.399 . S
C585 C590 1.399 . S
C586 C585 1.399 . S
C586 C587 1.376 . S
C587 H574 0.930 . S
C587 C586 1.376 . S
C587 C588 1.388 . S
C588 H575 0.930 . S
C588 C587 1.388 . S
C588 C589 1.390 . S
C589 C588 1.390 . S
C589 C590 1.394 . S
C589 C595 1.465 . S
C590 C585 1.399 . S
C590 C589 1.394 . S
C590 C591 1.516 . S
C591 C590 1.516 . S
C591 C592 1.502 . S
C591 C593 1.561 . S
C591 C594 1.526 . S
C592 H576 0.959 . S
C592 H577 0.959 . S
C592 H578 0.961 . S
C592 C591 1.502 . S
C593 H579 0.960 . S
C593 H580 0.961 . S
C593 H581 0.959 . S
C593 C591 1.561 . S
C594 C591 1.526 . S
C594 C595 1.396 . S
C594 C599 1.390 . S
C595 C589 1.465 . S
C595 C594 1.396 . S
C595 C596 1.399 . S
C596 H582 0.929 . S
C596 C595 1.399 . S
C596 C597 1.385 . S
C597 H583 0.931 . S
C597 C596 1.385 . S
C597 C598 1.389 . S
C598 C597 1.389 . S
C598 C599 1.387 . S
C599 H584 0.930 . S
C599 C594 1.390 . S
C599 C598 1.387 . S
H600 C612 0.930 . S
H601 C614 0.930 . S
H602 C615 0.930 . S
H603 C619 0.959 . S
H604 C619 0.959 . S
H605 C619 0.961 . S
H606 C620 0.960 . S
H607 C620 0.961 . S
H608 C620 0.997 . S
H609 C623 0.929 . S
H610 C624 0.931 . S
H611 C626 0.930 . S
C612 H600 0.930 . S
C612 C613 1.399 . S
C612 C617 1.399 . S
C613 C612 1.399 . S
C613 C614 1.376 1_455 S
C614 H601 0.930 . S
C614 C613 1.376 1_655 S
C614 C615 1.388 . S
C615 H602 0.930 . S
C615 C614 1.388 . S
C615 C616 1.390 . S
C616 C615 1.390 . S
C616 C617 1.394 1_655 S
C616 C622 1.465 . S
C617 C612 1.399 . S
C617 C616 1.394 1_455 S
C617 C618 1.516 . S
C618 C617 1.516 . S
C618 C619 1.502 . S
C618 C620 1.561 . S
C618 C621 1.526 . S
C619 H603 0.959 . S
C619 H604 0.959 . S
C619 H605 0.961 . S
C619 C618 1.502 . S
C620 H606 0.960 . S
C620 H607 0.961 . S
C620 H608 0.997 . S
C620 C618 1.561 . S
C621 C618 1.526 . S
C621 C622 1.396 1_455 S
C621 C626 1.390 . S
C622 C616 1.465 . S
C622 C621 1.396 1_655 S
C622 C623 1.399 . S
C623 H609 0.929 . S
C623 C622 1.399 . S
C623 C624 1.385 . S
C624 H610 0.931 . S
C624 C623 1.385 . S
C624 C625 1.389 . S
C625 C624 1.389 . S
C625 C626 1.387 1_655 S
C626 H611 0.930 . S
C626 C621 1.390 . S
C626 C625 1.387 1_455 S
H627 C639 0.930 . S
H628 C641 0.930 . S
H629 C642 0.930 . S
H630 C646 0.959 . S
H631 C646 0.959 . S
H632 C646 0.961 . S
H633 C647 0.960 . S
H634 C647 0.961 . S
H635 C647 0.959 . S
H636 C650 0.929 . S
H637 C651 0.931 . S
H638 C653 0.930 . S
C639 H627 0.930 . S
C639 C640 1.399 1_545 S
C639 C644 1.399 . S
C640 C639 1.399 1_565 S
C640 C641 1.376 . S
C641 H628 0.930 . S
C641 C640 1.376 . S
C641 C642 1.388 . S
C642 H629 0.930 . S
C642 C641 1.388 . S
C642 C643 1.390 . S
C643 C642 1.390 . S
C643 C644 1.394 1_565 S
C643 C649 1.465 . S
C644 C639 1.399 . S
C644 C643 1.394 1_545 S
C644 C645 1.516 . S
C645 C644 1.516 . S
C645 C646 1.502 . S
C645 C647 1.561 . S
C645 C648 1.526 . S
C646 H630 0.959 . S
C646 H631 0.959 . S
C646 H632 0.961 . S
C646 C645 1.502 . S
C647 H633 0.960 . S
C647 H634 0.961 . S
C647 H635 0.959 . S
C647 C645 1.561 . S
C648 C645 1.526 . S
C648 C649 1.396 1_545 S
C648 C653 1.390 . S
C649 C643 1.465 . S
C649 C648 1.396 1_565 S
C649 C650 1.399 . S
C650 H636 0.929 . S
C650 C649 1.399 . S
C650 C651 1.385 . S
C651 H637 0.931 . S
C651 C650 1.385 . S
C651 C652 1.389 1_565 S
C652 C651 1.389 1_545 S
C652 C653 1.387 . S
C653 H638 0.930 . S
C653 C648 1.390 . S
C653 C652 1.387 . S
H654 C666 0.930 . S
H655 C668 0.930 1_556 S
H656 C669 0.930 . S
H657 C673 0.959 . S
H658 C673 0.959 . S
H659 C673 0.961 . S
H660 C674 0.960 . S
H661 C674 0.961 . S
H662 C674 0.959 . S
H663 C677 0.929 . S
H664 C678 0.931 1_556 S
H665 C680 0.930 . S
C666 H654 0.930 . S
C666 C667 1.399 . S
C666 C671 1.399 . S
C667 C666 1.399 . S
C667 C668 1.376 . S
C668 H655 0.930 1_554 S
C668 C667 1.376 . S
C668 C669 1.388 1_554 S
C669 H656 0.930 . S
C669 C668 1.388 1_556 S
C669 C670 1.390 1_556 S
C670 C669 1.390 1_554 S
C670 C671 1.394 . S
C670 C676 1.465 . S
C671 C666 1.399 . S
C671 C670 1.394 . S
C671 C672 1.516 . S
C672 C671 1.516 . S
C672 C673 1.502 . S
C672 C674 1.561 . S
C672 C675 1.526 . S
C673 H657 0.959 . S
C673 H658 0.959 . S
C673 H659 0.961 . S
C673 C672 1.502 . S
C674 H660 0.960 . S
C674 H661 0.961 . S
C674 H662 0.959 . S
C674 C672 1.561 . S
C675 C672 1.526 . S
C675 C676 1.396 . S
C675 C680 1.390 . S
C676 C670 1.465 . S
C676 C675 1.396 . S
C676 C677 1.399 1_554 S
C677 H663 0.929 . S
C677 C676 1.399 1_556 S
C677 C678 1.385 1_556 S
C678 H664 0.931 1_554 S
C678 C677 1.385 1_554 S
C678 C679 1.389 . S
C679 C678 1.389 . S
C679 C680 1.387 . S
C680 H665 0.930 . S
C680 C675 1.390 . S
C680 C679 1.387 . S
H681 C693 0.930 . S
H682 C695 0.930 . S
H683 C696 0.930 . S
H684 C700 0.959 . S
H685 C700 0.959 . S
H686 C700 0.961 . S
H687 C701 0.960 . S
H688 C701 0.961 1_655 S
H689 C701 0.959 . S
H690 C704 0.928 . S
H691 C705 0.931 . S
H692 C707 0.930 . S
C693 H681 0.930 . S
C693 C694 1.399 . S
C693 C698 1.399 . S
C694 C693 1.399 . S
C694 C695 1.376 . S
C695 H682 0.930 . S
C695 C694 1.376 . S
C695 C696 1.388 . S
C696 H683 0.930 . S
C696 C695 1.388 . S
C696 C697 1.390 . S
C697 C696 1.390 . S
C697 C698 1.394 . S
C697 C703 1.466 . S
C698 C693 1.399 . S
C698 C697 1.394 . S
C698 C699 1.516 1_455 S
C699 C698 1.516 1_655 S
C699 C700 1.502 . S
C699 C701 1.561 1_655 S
C699 C702 1.526 . S
C700 H684 0.959 . S
C700 H685 0.959 . S
C700 H686 0.961 . S
C700 C699 1.502 . S
C701 H687 0.960 . S
C701 H688 0.961 1_455 S
C701 H689 0.959 . S
C701 C699 1.561 1_455 S
C702 C699 1.526 . S
C702 C703 1.389 1_655 S
C702 C707 1.390 . S
C703 C697 1.466 . S
C703 C702 1.389 1_455 S
C703 C704 1.405 . S
C704 H690 0.928 . S
C704 C703 1.405 . S
C704 C705 1.386 1_455 S
C705 H691 0.931 . S
C705 C704 1.386 1_655 S
C705 C706 1.389 . S
C706 C705 1.389 . S
C706 C707 1.387 . S
C707 H692 0.930 . S
C707 C702 1.390 . S
C707 C706 1.387 . S
H708 C720 0.930 . S
H709 C722 0.930 . S
H710 C723 0.930 . S
H711 C727 0.959 . S
H712 C727 0.959 . S
H713 C727 0.961 . S
H714 C728 0.960 . S
H715 C728 0.961 1_545 S
H716 C728 0.959 . S
H717 C731 0.929 1_565 S
H718 C732 0.931 . S
H719 C734 0.930 . S
C720 H708 0.930 . S
C720 C721 1.399 . S
C720 C725 1.399 . S
C721 C720 1.399 . S
C721 C722 1.376 . S
C722 H709 0.930 . S
C722 C721 1.376 . S
C722 C723 1.388 . S
C723 H710 0.930 . S
C723 C722 1.388 . S
C723 C724 1.390 . S
C724 C723 1.390 . S
C724 C725 1.394 . S
C724 C730 1.442 1_565 S
C725 C720 1.399 . S
C725 C724 1.394 . S
C725 C726 1.516 1_565 S
C726 C725 1.516 1_545 S
C726 C727 1.502 . S
C726 C728 1.561 1_545 S
C726 C729 1.526 . S
C727 H711 0.959 . S
C727 H712 0.959 . S
C727 H713 0.961 . S
C727 C726 1.502 . S
C728 H714 0.960 . S
C728 H715 0.961 1_565 S
C728 H716 0.959 . S
C728 C726 1.561 1_565 S
C729 C726 1.526 . S
C729 C730 1.409 . S
C729 C734 1.390 . S
C730 C724 1.442 1_545 S
C730 C729 1.409 . S
C730 C731 1.410 . S
C731 H717 0.929 1_545 S
C731 C730 1.410 . S
C731 C732 1.385 . S
C732 H718 0.931 . S
C732 C731 1.385 . S
C732 C733 1.389 . S
C733 C732 1.389 . S
C733 C734 1.387 . S
C734 H719 0.930 . S
C734 C729 1.390 . S
C734 C733 1.387 . S
H735 C747 0.930 . S
H736 C749 0.930 . S
H737 C750 0.930 . S
H738 C754 0.959 . S
H739 C754 0.959 . S
H740 C754 0.961 . S
H741 C755 0.960 . S
H742 C755 0.961 . S
H743 C755 0.959 . S
H744 C758 0.929 . S
H745 C759 0.931 . S
H746 C761 0.930 . S
C747 H735 0.930 . S
C747 C748 1.399 . S
C747 C752 1.399 . S
C748 C747 1.399 . S
C748 C749 1.376 . S
C749 H736 0.930 . S
C749 C748 1.376 . S
C749 C750 1.388 . S
C750 H737 0.930 . S
C750 C749 1.388 . S
C750 C751 1.390 . S
C751 C750 1.390 . S
C751 C752 1.394 . S
C751 C757 1.465 . S
C752 C747 1.399 . S
C752 C751 1.394 . S
C752 C753 1.516 . S
C753 C752 1.516 . S
C753 C754 1.502 . S
C753 C755 1.561 . S
C753 C756 1.526 . S
C754 H738 0.959 . S
C754 H739 0.959 . S
C754 H740 0.961 . S
C754 C753 1.502 . S
C755 H741 0.960 . S
C755 H742 0.961 . S
C755 H743 0.959 . S
C755 C753 1.561 . S
C756 C753 1.526 . S
C756 C757 1.396 . S
C756 C761 1.390 . S
C757 C751 1.465 . S
C757 C756 1.396 . S
C757 C758 1.399 . S
C758 H744 0.929 . S
C758 C757 1.399 . S
C758 C759 1.385 . S
C759 H745 0.931 . S
C759 C758 1.385 . S
C759 C760 1.389 . S
C760 C759 1.389 . S
C760 C761 1.387 . S
C761 H746 0.930 . S
C761 C756 1.390 . S
C761 C760 1.387 . S
H762 C774 0.930 . S
H763 C776 0.930 1_554 S
H764 C777 0.912 1_455 S
H765 C781 0.959 . S
H766 C781 0.959 . S
H767 C781 0.961 . S
H768 C782 0.960 . S
H769 C782 0.961 . S
H770 C782 0.959 . S
H771 C785 0.929 . S
H772 C786 0.931 1_554 S
H773 C788 0.930 . S
C774 H762 0.930 . S
C774 C775 1.399 . S
C774 C779 1.399 . S
C775 C774 1.399 . S
C775 C776 1.376 . S
C776 H763 0.930 1_556 S
C776 C775 1.376 . S
C776 C777 1.425 1_556 S
C777 H764 0.912 1_655 S
C777 C776 1.425 1_554 S
C777 C778 1.364 1_654 S
C778 C777 1.364 1_456 S
C778 C779 1.383 1_455 S
C778 C784 1.486 . S
C779 C774 1.399 . S
C779 C778 1.383 1_655 S
C779 C780 1.516 . S
C780 C779 1.516 . S
C780 C781 1.502 . S
C780 C782 1.561 1_655 S
C780 C783 1.526 1_655 S
C781 H765 0.959 . S
C781 H766 0.959 . S
C781 H767 0.961 . S
C781 C780 1.502 . S
C782 H768 0.960 . S
C782 H769 0.961 . S
C782 H770 0.959 . S
C782 C780 1.561 1_455 S
C783 C780 1.526 1_455 S
C783 C784 1.396 . S
C783 C788 1.390 . S
C784 C778 1.486 . S
C784 C783 1.396 . S
C784 C785 1.399 1_556 S
C785 H771 0.929 . S
C785 C784 1.399 1_554 S
C785 C786 1.385 1_554 S
C786 H772 0.931 1_556 S
C786 C785 1.385 1_556 S
C786 C787 1.389 . S
C787 C786 1.389 . S
C787 C788 1.387 . S
C788 H773 0.930 . S
C788 C783 1.390 . S
C788 C787 1.387 . S
H789 C801 0.930 . S
H790 C803 0.930 . S
H791 C804 0.930 . S
H792 C808 0.959 . S
H793 C808 0.959 . S
H794 C808 0.961 . S
H795 C809 0.960 . S
H796 C809 0.966 . S
H797 C809 0.959 . S
H798 C812 0.929 1_545 S
H799 C813 0.931 . S
H800 C815 0.930 . S
C801 H789 0.930 . S
C801 C802 1.399 . S
C801 C806 1.399 . S
C802 C801 1.399 . S
C802 C803 1.376 . S
C803 H790 0.930 . S
C803 C802 1.376 . S
C803 C804 1.388 . S
C804 H791 0.930 . S
C804 C803 1.388 . S
C804 C805 1.390 . S
C805 C804 1.390 . S
C805 C806 1.394 . S
C805 C811 1.465 1_545 S
C806 C801 1.399 . S
C806 C805 1.394 . S
C806 C807 1.516 1_545 S
C807 C806 1.516 1_565 S
C807 C808 1.502 . S
C807 C809 1.561 1_565 S
C807 C810 1.526 . S
C808 H792 0.959 . S
C808 H793 0.959 . S
C808 H794 0.961 . S
C808 C807 1.502 . S
C809 H795 0.960 . S
C809 H796 0.966 . S
C809 H797 0.959 . S
C809 C807 1.561 1_545 S
C810 C807 1.526 . S
C810 C811 1.396 . S
C810 C815 1.390 . S
C811 C805 1.465 1_565 S
C811 C810 1.396 . S
C811 C812 1.399 . S
C812 H798 0.929 1_565 S
C812 C811 1.399 . S
C812 C813 1.385 . S
C813 H799 0.931 . S
C813 C812 1.385 . S
C813 C814 1.389 . S
C814 C813 1.389 . S
C814 C815 1.387 . S
C815 H800 0.930 . S
C815 C810 1.390 . S
C815 C814 1.387 . S
C181 C11 1.455 . S
C193 C137 1.456 . S
C208 C25 1.483 . S
C220 C151 1.459 . S
C235 C33 0.951 . S
C247 C159 0.949 . S
C262 C53 1.511 . S
C274 C95 1.521 . S
C289 C109 1.502 . S
C301 C67 1.519 . S
C316 C117 0.953 . S
C328 C75 0.951 . S
C343 C145 1.072 . S
C355 C5 1.130 . S
C370 C19 1.068 . S
C382 C165 1.256 . S
C397 C39 1.273 . S
C409 C89 1.208 . S
C424 C47 1.222 . S
C436 C103 1.185 . S
C451 C61 1.176 . S
C463 C123 1.286 . S
C478 C81 1.286 . S
C490 C131 1.179 . S
C505 C130 0.755 . S
C517 C4 0.750 . S
C532 C18 0.755 . S
C544 C144 0.750 1_655 S
C559 C40 0.506 . S
C571 C166 0.650 . S
C586 C88 0.755 . S
C598 C46 0.750 . S
C613 C60 0.848 . S
C625 C102 0.851 . S
C640 C124 0.556 . S
C652 C82 0.666 . S
C667 C12 1.327 . S
C679 C54 1.364 . S
C694 C68 1.412 . S
C706 C26 1.362 . S
C721 C32 1.365 . S
C733 C74 1.336 . S
C748 C96 1.397 . S
C760 C138 1.377 . S
C775 C110 1.330 . S
C787 C152 1.361 . S
C802 C158 1.366 . S
C814 C116 1.341 . S
