# Generated by pormake.
# Topology sml, (6)-cn, num edge types: 1
# Building blocks:
#     Node 0, Type 0, BuildingBlock: PAMTUU_clean_sbu_0, # of connection points: 6
#     Node 1, Type 0, BuildingBlock: PAMTUU_clean_sbu_0, # of connection points: 6
#     Node 2, Type 0, BuildingBlock: PAMTUU_clean_sbu_0, # of connection points: 6
#     Node 3, Type 0, BuildingBlock: PAMTUU_clean_sbu_0, # of connection points: 6
#     Node 4, Type 0, BuildingBlock: PAMTUU_clean_sbu_0, # of connection points: 6
#     Node 5, Type 0, BuildingBlock: PAMTUU_clean_sbu_0, # of connection points: 6
#     Edge 6, Type (0, 0), BuildingBlock: CIFDUS_clean_linker_0, # of connection points: 2
#     Edge 7, Type (0, 0), BuildingBlock: CIFDUS_clean_linker_0, # of connection points: 2
#     Edge 8, Type (0, 0), BuildingBlock: CIFDUS_clean_linker_0, # of connection points: 2
#     Edge 9, Type (0, 0), BuildingBlock: CIFDUS_clean_linker_0, # of connection points: 2
#     Edge 10, Type (0, 0), BuildingBlock: CIFDUS_clean_linker_0, # of connection points: 2
#     Edge 11, Type (0, 0), BuildingBlock: CIFDUS_clean_linker_0, # of connection points: 2
#     Edge 12, Type (0, 0), BuildingBlock: CIFDUS_clean_linker_0, # of connection points: 2
#     Edge 13, Type (0, 0), BuildingBlock: CIFDUS_clean_linker_0, # of connection points: 2
#     Edge 14, Type (0, 0), BuildingBlock: CIFDUS_clean_linker_0, # of connection points: 2
#     Edge 15, Type (0, 0), BuildingBlock: CIFDUS_clean_linker_0, # of connection points: 2
#     Edge 16, Type (0, 0), BuildingBlock: CIFDUS_clean_linker_0, # of connection points: 2
#     Edge 17, Type (0, 0), BuildingBlock: CIFDUS_clean_linker_0, # of connection points: 2
#     Edge 18, Type (0, 0), BuildingBlock: CIFDUS_clean_linker_0, # of connection points: 2
#     Edge 19, Type (0, 0), BuildingBlock: CIFDUS_clean_linker_0, # of connection points: 2
#     Edge 20, Type (0, 0), BuildingBlock: CIFDUS_clean_linker_0, # of connection points: 2
#     Edge 21, Type (0, 0), BuildingBlock: CIFDUS_clean_linker_0, # of connection points: 2
#     Edge 22, Type (0, 0), BuildingBlock: CIFDUS_clean_linker_0, # of connection points: 2
#     Edge 23, Type (0, 0), BuildingBlock: CIFDUS_clean_linker_0, # of connection points: 2
# Relax obj value: 0.222
# Max RMSD: 0.250
# Mean RMSD: 0.250
data_MOF--net-sml--node1-PAMTUU_clean_sbu_0--edge1-CIFDUS_clean_linker_0
_symmetry_space_group_name_H-M    P1
_symmetry_Int_Tables_number       1
_symmetry_cell_setting            triclinic
loop_
_symmetry_equiv_pos_as_xyz
'x, y, z'
_cell_length_a     28.438893
_cell_length_b     28.527967
_cell_length_c     22.527402
_cell_angle_alpha  90.183436
_cell_angle_beta   90.321586
_cell_angle_gamma 119.70256
loop_
_atom_site_label
_atom_site_type_symbol
_atom_site_fract_x
_atom_site_fract_y
_atom_site_fract_z
_atom_type_partial_charge
Tb0 Tb 0.2165 0.40911 0.06211 0.0
Tb1 Tb 0.13468 0.40169 0.95043 0.0
C2 C 0.26067 0.47491 0.94323 0.0
C3 C 0.25258 0.41212 0.21976 0.0
C4 C 0.22197 0.40265 0.34075 0.0
C5 C 0.2725 0.4087 0.3244 0.0
C6 C 0.28759 0.41339 0.26456 0.0
C7 C 0.20227 0.40626 0.23573 0.0
C8 C 0.18712 0.40161 0.29545 0.0
C9 C 0.26853 0.41729 0.15663 0.0
O10 O 0.16295 0.43724 0.09233 0.0
O11 O 0.15185 0.47176 1.00592 0.0
O12 O 0.08203 0.35594 1.02312 0.0
O13 O 0.14095 0.33386 0.0688 0.0
O14 O 0.11438 0.44293 0.88731 0.0
O15 O 0.0712 0.35609 0.88994 0.0
O16 O 0.15646 0.33949 0.9353 0.0
O17 O 0.23435 0.36821 0.99214 0.0
O18 O 0.2661 0.47522 1.00147 0.0
O19 O 0.21558 0.44128 0.916 0.0
C20 C 0.1545 0.4723 0.06423 0.0
O21 O 0.24415 0.3733 0.12461 0.0
O22 O 0.27065 0.45831 0.12878 0.0
C23 C 0.09223 0.32717 0.06127 0.0
C24 C 0.09206 0.39723 0.79541 0.0
C25 C 0.11712 0.40054 0.67311 0.0
C26 C 0.06805 0.39695 0.69139 0.0
C27 C 0.05574 0.39542 0.7519 0.0
C28 C 0.14049 0.39983 0.77748 0.0
C29 C 0.15296 0.40155 0.71718 0.0
C30 C 0.0808 0.39863 0.85929 0.0
C31 C 0.20115 0.33873 0.94914 0.0
H32 H 0.30075 0.41042 0.35793 0.0
H33 H 0.3267 0.41813 0.25331 0.0
H34 H 0.17454 0.40505 0.2019 0.0
H35 H 0.14767 0.3963 0.30599 0.0
H36 H 0.039 0.39525 0.65894 0.0
H37 H 0.01808 0.39331 0.76468 0.0
H38 H 0.16917 0.40141 0.81027 0.0
H39 H 0.1914 0.40507 0.70526 0.0
Tb40 Tb 0.7972 0.19133 0.39081 0.0
Tb41 Tb 0.71208 0.12957 0.27857 0.0
C42 C 0.78098 0.25504 0.2867 0.0
C43 C 0.83502 0.20961 0.54678 0.0
C44 C 0.79477 0.17628 0.66265 0.0
C45 C 0.8379 0.22881 0.65238 0.0
C46 C 0.85774 0.24532 0.59491 0.0
C47 C 0.7928 0.15688 0.55698 0.0
C48 C 0.77306 0.14032 0.61427 0.0
C49 C 0.85097 0.22861 0.48549 0.0
O50 O 0.7162 0.15433 0.42564 0.0
O51 O 0.66946 0.15333 0.34198 0.0
O52 O 0.69256 0.07048 0.34814 0.0
O53 O 0.77923 0.10809 0.3825 0.0
O54 O 0.65518 0.1261 0.21632 0.0
O55 O 0.68032 0.06603 0.21604 0.0
O56 O 0.78941 0.13503 0.25835 0.0
O57 O 0.84911 0.20842 0.31481 0.0
O58 O 0.78684 0.25287 0.34442 0.0
O59 O 0.76303 0.21248 0.25236 0.0
C60 C 0.67442 0.15374 0.40024 0.0
O61 O 0.8571 0.196 0.4497 0.0
O62 O 0.82272 0.24788 0.46064 0.0
C63 C 0.72993 0.06714 0.37908 0.0
C64 C 0.6733 0.10015 0.12352 0.0
C65 C 0.71358 0.12248 1.00637 0.0
C66 C 0.67032 0.07125 1.0211 0.0
C67 C 0.65047 0.06017 0.07929 0.0
C68 C 0.71553 0.15161 0.10847 0.0
C69 C 0.73539 0.16265 0.05069 0.0
C70 C 0.65653 0.08765 0.18609 0.0
C71 C 0.83809 0.17605 0.26881 0.0
H72 H 0.85516 0.25779 0.68842 0.0
H73 H 0.88978 0.28641 0.58784 0.0
H74 H 0.77427 0.1288 0.52036 0.0
H75 H 0.74049 0.09942 0.62059 0.0
H76 H 0.6529 0.03938 0.98807 0.0
H77 H 0.61802 0.02019 0.09001 0.0
H78 H 0.73402 0.18323 0.14166 0.0
H79 H 0.76809 0.20277 0.04081 0.0
Tb80 Tb 0.57624 0.83748 0.78526 0.0
Tb81 Tb 0.58587 0.76799 0.67201 0.0
C82 C 0.50479 0.81134 0.66897 0.0
C83 C 0.5785 0.87325 0.93991 0.0
C84 C 0.596 0.85186 0.05777 0.0
C85 C 0.59144 0.89771 0.04453 0.0
C86 C 0.58273 0.90831 0.98594 0.0
C87 C 0.58281 0.8275 0.9531 0.0
C88 C 0.59127 0.81679 1.01128 0.0
C89 C 0.57012 0.88369 0.87792 0.0
O90 O 0.54721 0.75628 0.81542 0.0
O91 O 0.51865 0.71056 0.72694 0.0
O92 O 0.62955 0.75609 0.74302 0.0
O93 O 0.64941 0.83169 0.79898 0.0
O94 O 0.54759 0.71061 0.60404 0.0
O95 O 0.63462 0.75455 0.61237 0.0
O96 O 0.64935 0.85212 0.66633 0.0
O97 O 0.6091 0.89402 0.71311 0.0
O98 O 0.50523 0.81418 0.72751 0.0
O99 O 0.54139 0.80564 0.64021 0.0
C100 C 0.51718 0.712 0.78532 0.0
O101 O 0.6131 0.90321 0.84462 0.0
O102 O 0.52822 0.84409 0.85146 0.0
C103 C 0.65706 0.79104 0.78516 0.0
C104 C 0.59707 0.7442 0.51696 0.0
C105 C 0.59578 0.78053 0.40107 0.0
C106 C 0.59309 0.73041 0.41026 0.0
C107 C 0.59353 0.71229 0.46791 0.0
C108 C 0.60113 0.79473 0.50782 0.0
C109 C 0.6005 0.81274 0.45052 0.0
C110 C 0.5934 0.72447 0.57789 0.0
C111 C 0.64177 0.89367 0.67257 0.0
H112 H 0.59512 0.92557 0.07935 0.0
H113 H 0.57935 0.94374 0.97659 0.0
H114 H 0.5794 0.79978 0.91832 0.0
H115 H 0.59328 0.7805 1.01989 0.0
H116 H 0.58903 0.70455 0.37298 0.0
H117 H 0.59008 0.67307 0.47419 0.0
H118 H 0.60387 0.81994 0.54516 0.0
H119 H 0.60344 0.85182 0.44494 0.0
Tb120 Tb 0.70533 0.56784 0.1335 0.0
Tb121 Tb 0.78422 0.56719 1.02438 0.0
C122 C 0.65689 0.50181 1.01671 0.0
C123 C 0.67041 0.56325 0.28827 0.0
C124 C 0.70586 0.56236 0.40567 0.0
C125 C 0.66353 0.57353 0.39464 0.0
C126 C 0.64609 0.57415 0.33633 0.0
C127 C 0.71177 0.55106 0.29931 0.0
C128 C 0.72919 0.55045 0.35721 0.0
C129 C 0.65635 0.56834 0.22636 0.0
O130 O 0.71225 0.49568 0.14081 0.0
O131 O 0.79324 0.52 0.09481 0.0
O132 O 0.83873 0.63004 0.08569 0.0
O133 O 0.78623 0.59884 0.16909 0.0
O134 O 0.80327 0.52377 0.96243 0.0
O135 O 0.84265 0.61051 0.95965 0.0
O136 O 0.74489 0.61143 0.99554 0.0
O137 O 0.729 0.64115 0.08351 0.0
O138 O 0.65036 0.5309 0.05796 0.0
O139 O 0.70263 0.50172 1.01002 0.0
C140 C 0.75524 0.4905 0.13314 0.0
O141 O 0.69202 0.61192 0.19973 0.0
O142 O 0.64082 0.52583 0.19264 0.0
C143 C 0.83297 0.62922 0.1436 0.0
C144 C 0.81407 0.56376 0.86854 0.0
C145 C 0.77518 0.55528 0.7507 0.0
C146 C 0.81931 0.54723 0.7633 0.0
C147 C 0.8385 0.55132 0.8218 0.0
C148 C 0.77044 0.57215 0.8559 0.0
C149 C 0.75129 0.56809 0.79787 0.0
C150 C 0.83232 0.56668 0.93073 0.0
C151 C 0.73695 0.64596 1.02608 0.0
H152 H 0.64503 0.58338 0.43089 0.0
H153 H 0.61451 0.58424 0.32872 0.0
H154 H 0.73145 0.54302 0.26291 0.0
H155 H 0.76127 0.54092 0.36394 0.0
H156 H 0.83839 0.53684 0.72814 0.0
H157 H 0.87203 0.54437 0.83055 0.0
H158 H 0.75072 0.58152 0.89107 0.0
H159 H 0.71788 0.57543 0.78999 0.0
Tb160 Tb 0.17034 0.74502 0.41947 0.0
Tb161 Tb 0.24663 0.81831 0.30641 0.0
C162 C 0.18567 0.69258 0.3033 0.0
C163 C 0.13141 0.70942 0.57454 0.0
C164 C 0.15326 0.73814 0.69593 0.0
C165 C 0.1062 0.69044 0.67826 0.0
C166 C 0.09544 0.67619 0.61807 0.0
C167 C 0.17813 0.75715 0.59188 0.0
C168 C 0.18903 0.77137 0.65188 0.0
C169 C 0.121 0.69429 0.51122 0.0
O170 O 0.2519 0.79153 0.45233 0.0
O171 O 0.29791 0.80173 0.3661 0.0
O172 O 0.26028 0.87702 0.3751 0.0
O173 O 0.18489 0.82671 0.43309 0.0
O174 O 0.30455 0.82806 0.24303 0.0
O175 O 0.27157 0.88175 0.2453 0.0
O176 O 0.16602 0.80715 0.29097 0.0
O177 O 0.11328 0.73301 0.34932 0.0
O178 O 0.18438 0.69121 0.36173 0.0
O179 O 0.19799 0.73674 0.27435 0.0
C180 C 0.29572 0.80072 0.42452 0.0
O181 O 0.106 0.72261 0.47899 0.0
O182 O 0.15822 0.68794 0.48486 0.0
C183 C 0.22694 0.87284 0.41756 0.0
C184 C 0.28658 0.85506 0.15138 0.0
C185 C 0.26282 0.8314 1.02919 0.0
C186 C 0.31152 0.87684 0.04797 0.0
C187 C 0.32331 0.88844 0.10852 0.0
C188 C 0.23756 0.81032 0.13302 0.0
C189 C 0.22585 0.79849 0.07262 0.0
C190 C 0.29998 0.86559 0.21508 0.0
C191 C 0.11885 0.76642 0.30635 0.0
H192 H 0.07808 0.66365 0.71101 0.0
H193 H 0.05925 0.63911 0.60556 0.0
H194 H 0.20629 0.78339 0.55892 0.0
H195 H 0.2252 0.80872 0.66368 0.0
H196 H 0.34058 0.90358 1.01589 0.0
H197 H 0.36128 0.92324 0.12184 0.0
H198 H 0.20862 0.78406 0.16548 0.0
H199 H 0.18834 0.7628 0.0601 0.0
Tb200 Tb 0.42759 0.16137 0.76996 0.0
Tb201 Tb 0.41576 0.2298 0.65713 0.0
C202 C 0.49154 0.17973 0.6515 0.0
C203 C 0.43102 0.12982 0.92466 0.0
C204 C 0.41495 0.15324 0.04206 0.0
C205 C 0.41838 0.10663 1.02925 0.0
C206 C 0.42619 0.09492 0.97081 0.0
C207 C 0.42802 0.1764 0.93756 0.0
C208 C 0.42012 0.18804 0.99549 0.0
C209 C 0.43748 0.11777 0.86266 0.0
O210 O 0.45636 0.24309 0.80036 0.0
O211 O 0.48384 0.28734 0.71197 0.0
O212 O 0.37129 0.24089 0.7282 0.0
O213 O 0.35589 0.16812 0.78642 0.0
O214 O 0.4564 0.28801 0.59165 0.0
O215 O 0.36926 0.24593 0.59626 0.0
O216 O 0.35042 0.14689 0.6477 0.0
O217 O 0.38312 0.10077 0.7025 0.0
O218 O 0.4947 0.17975 0.70979 0.0
O219 O 0.45461 0.18651 0.62452 0.0
C220 C 0.48471 0.2873 0.77027 0.0
O221 O 0.39339 0.09716 0.83043 0.0
O222 O 0.47827 0.1567 0.83496 0.0
C223 C 0.34669 0.20756 0.77215 0.0
C224 C 0.40885 0.25808 0.50217 0.0
C225 C 0.41373 0.22553 0.38518 0.0
C226 C 0.41483 0.27473 0.39608 0.0
C227 C 0.41268 0.29103 0.45433 0.0
C228 C 0.40622 0.20842 0.49114 0.0
C229 C 0.40868 0.19229 0.43335 0.0
C230 C 0.41146 0.27614 0.5639 0.0
C231 C 0.35025 0.10218 0.66221 0.0
H232 H 0.41418 0.07886 0.06421 0.0
H233 H 0.42809 0.05859 0.96165 0.0
H234 H 0.4316 0.20388 0.90274 0.0
H235 H 0.41859 0.22468 1.00385 0.0
H236 H 0.41901 0.3013 0.35977 0.0
H237 H 0.41512 0.32968 0.46207 0.0
H238 H 0.40339 0.18254 0.52748 0.0
H239 H 0.40697 0.15386 0.42641 0.0
H240 H 0.2802 0.24656 0.7434 0.0
H241 H 0.34132 0.19723 0.89188 0.0
H242 H 0.30029 0.23228 0.96111 0.0
H243 H 0.25328 0.28405 0.97897 0.0
H244 H 0.18589 0.32645 0.83034 0.0
H245 H 0.22255 0.28674 0.7616 0.0
C246 C 0.28365 0.24278 0.79093 0.0
C247 C 0.31403 0.22001 0.81269 0.0
C248 C 0.25914 0.26209 0.83037 0.0
C249 C 0.31798 0.21465 0.87423 0.0
C250 C 0.29481 0.23495 0.91383 0.0
C251 C 0.24621 0.2839 0.93157 0.0
C252 C 0.21764 0.30855 0.90953 0.0
C253 C 0.26633 0.25987 0.89236 0.0
C254 C 0.20789 0.30765 0.84821 0.0
C255 C 0.22897 0.28515 0.80886 0.0
H256 H -0.01671 0.26809 0.04364 0.0
H257 H 0.10883 0.30977 0.17532 0.0
H258 H 0.04119 0.26399 0.25162 0.0
H259 H 0.94615 0.21872 0.28263 0.0
H260 H 0.82018 0.16942 0.15024 0.0
H261 H 0.88778 0.21059 0.07237 0.0
C262 C -0.00442 0.26642 0.0889 0.0
C263 C 0.05069 0.2929 0.10415 0.0
C264 C 0.95643 0.23866 0.13239 0.0
C265 C 0.06648 0.2899 0.16265 0.0
C266 C 0.02788 0.26382 0.20639 0.0
C267 C 0.93375 0.21622 0.23655 0.0
C268 C 0.87867 0.1917 0.22196 0.0
C269 C 0.97276 0.23904 0.19201 0.0
C270 C 0.86261 0.18809 0.16224 0.0
C271 C 0.90119 0.21191 0.1178 0.0
H272 H 0.6662 0.05498 0.47065 0.0
H273 H 0.76169 -0.00788 0.39266 0.0
H274 H 0.74502 0.93378 0.47919 0.0
H275 H 0.70508 0.90325 0.5779 0.0
H276 H 0.61655 0.97355 0.65848 0.0
H277 H 0.63095 0.02861 0.57091 0.0
C278 C 0.68263 0.02787 0.47238 0.0
C279 C 0.71387 0.02641 0.42535 0.0
C280 C 0.67553 -0.00274 0.5233 0.0
C281 C 0.73652 -0.00737 0.42829 0.0
C282 C 0.72755 0.95998 0.47788 0.0
C283 C 0.68955 0.93112 0.5767 0.0
C284 C 0.65952 0.93395 0.62464 0.0
C285 C 0.69775 0.96261 0.52603 0.0
C286 C 0.63984 0.97046 0.62232 0.0
C287 C 0.64746 0.00156 0.57196 0.0
H288 H 0.66457 0.79847 0.90498 0.0
H289 H 0.72247 0.75228 0.75148 0.0
H290 H 0.75968 0.70932 0.81523 0.0
H291 H 0.7635 0.67389 0.91185 0.0
H292 H 0.69748 0.71125 0.0653 0.0
H293 H 0.67627 0.76945 1.00445 0.0
C294 C 0.68673 0.78035 0.88585 0.0
C295 C 0.69089 0.77833 0.82386 0.0
C296 C 0.70555 0.75338 0.92261 0.0
C297 C 0.71896 0.7542 0.7992 0.0
C298 C 0.73985 0.72937 0.83554 0.0
C299 C 0.74475 0.69494 0.93231 0.0
C300 C 0.73094 0.68723 0.99272 0.0
C301 C 0.73128 0.72678 0.89694 0.0
C302 C 0.70798 0.716 1.01871 0.0
C303 C 0.69571 0.74917 0.98393 0.0
H304 H 0.0145 0.71124 0.34023 0.0
H305 H 0.11567 0.79263 0.19036 0.0
H306 H 0.03549 0.75987 0.12649 0.0
H307 H 0.93695 0.70144 0.1119 0.0
H308 H 0.83713 0.62128 0.2636 0.0
H309 H 0.9164 0.66041 0.32781 0.0
C310 C 0.01895 0.7223 0.29372 0.0
C311 C 0.07076 0.75384 0.26992 0.0
C312 C 0.97292 0.70318 0.25738 0.0
C313 C 0.07605 0.7685 0.20977 0.0
C314 C 0.03027 0.74946 0.17314 0.0
C315 C 0.93253 0.69293 0.15905 0.0
C316 C 0.88116 0.65787 0.18251 0.0
C317 C 0.97853 0.71572 0.19621 0.0
C318 C 0.8761 0.6478 0.24396 0.0
C319 C 0.92148 0.67011 0.28095 0.0
H320 H 0.32545 0.09774 0.54593 0.0
H321 H 0.3016 -0.0026 0.69823 0.0
H322 H 0.25408 0.9164 0.63582 0.0
H323 H 0.22695 0.87518 0.53668 0.0
H324 H 0.26347 0.97646 0.38285 0.0
H325 H 0.29863 0.05666 0.44695 0.0
C326 C 0.30929 0.05814 0.56554 0.0
C327 C 0.31671 0.05333 0.62647 0.0
C328 C 0.28468 0.01223 0.52896 0.0
C329 C 0.29622 0.00187 0.65134 0.0
C330 C 0.26922 0.95571 0.61571 0.0
C331 C 0.24166 0.91475 0.51744 0.0
C332 C 0.24209 0.92024 0.45548 0.0
C333 C 0.26423 0.96052 0.5543 0.0
C334 C 0.26252 0.97163 0.43059 0.0
C335 C 0.28267 0.01729 0.46715 0.0
H336 H 0.16924 0.35497 0.61473 0.0
H337 H 0.0982 0.45625 0.58581 0.0
H338 H 0.12319 0.46501 0.48134 0.0
H339 H 0.16741 0.44609 0.39821 0.0
H340 H 0.23909 0.34544 0.42748 0.0
H341 H 0.21306 0.33575 0.53166 0.0
C342 C 0.15952 0.37934 0.58582 0.0
C343 C 0.13162 0.40476 0.60867 0.0
C344 C 0.17462 0.38481 0.52562 0.0
C345 C 0.11878 0.43541 0.56976 0.0
C346 C 0.13347 0.44084 0.50988 0.0
C347 C 0.17695 0.42159 0.42716 0.0
C348 C 0.20548 0.39673 0.40458 0.0
C349 C 0.16153 0.41585 0.48728 0.0
C350 C 0.21802 0.36582 0.44342 0.0
C351 C 0.20277 0.35991 0.5031 0.0
H352 H 0.65968 0.09355 0.89981 0.0
H353 H 0.82036 0.17779 0.97626 0.0
H354 H 0.85949 0.20133 0.87738 0.0
H355 H 0.84838 0.19918 0.76909 0.0
H356 H 0.68779 0.11572 0.69226 0.0
H357 H 0.64868 0.08976 0.79097 0.0
C358 C 0.70327 0.11656 0.89479 0.0
C359 C 0.73691 0.13423 0.94556 0.0
C360 C 0.72566 0.13004 0.8376 0.0
C361 C 0.79337 0.16445 0.93812 0.0
C362 C 0.81587 0.17774 0.88151 0.0
C363 C 0.8048 0.17561 0.7739 0.0
C364 C 0.77124 0.15957 0.72309 0.0
C365 C 0.78242 0.16117 0.83094 0.0
C366 C 0.71481 0.12818 0.73035 0.0
C367 C 0.69229 0.11354 0.78691 0.0
H368 H 0.64746 0.77646 0.30142 0.0
H369 H 0.53511 0.82517 0.36469 0.0
H370 H 0.52711 0.85385 0.26495 0.0
H371 H 0.54923 0.8618 0.15889 0.0
H372 H 0.66264 0.81428 0.09585 0.0
H373 H 0.67233 0.78773 0.19596 0.0
C374 C 0.62107 0.79314 0.29324 0.0
C375 C 0.59188 0.79857 0.34037 0.0
C376 C 0.6166 0.80953 0.23573 0.0
C377 C 0.55843 0.82101 0.3293 0.0
C378 C 0.55363 0.83721 0.27221 0.0
C379 C 0.57668 0.84641 0.16717 0.0
C380 C 0.60476 0.83965 0.11969 0.0
C381 C 0.58232 0.83143 0.22501 0.0
C382 C 0.63971 0.819 0.13127 0.0
C383 C 0.64552 0.80402 0.18862 0.0
H384 H 0.8324 0.59116 0.64771 0.0
H385 H 0.66922 0.50865 0.71461 0.0
H386 H 0.63354 0.50405 0.61486 0.0
H387 H 0.64833 0.52376 0.5081 0.0
H388 H 0.8115 0.60651 0.44123 0.0
H389 H 0.84714 0.60982 0.54085 0.0
C390 C 0.78901 0.57159 0.64042 0.0
C391 C 0.75373 0.55044 0.68896 0.0
C392 C 0.76858 0.56908 0.58268 0.0
C393 C 0.69755 0.5259 0.67847 0.0
C394 C 0.67698 0.52307 0.62126 0.0
C395 C 0.6917 0.54286 0.51539 0.0
C396 C 0.72705 0.56467 0.46701 0.0
C397 C 0.71209 0.54483 0.57302 0.0
C398 C 0.78318 0.58868 0.47735 0.0
C399 C 0.8037 0.59086 0.53445 0.0
H400 H 0.2505 0.77973 0.75384 0.0
H401 H 0.08242 0.73068 0.78213 0.0
H402 H 0.10138 0.75539 0.887 0.0
H403 H 0.16579 0.79183 0.97058 0.0
H404 H 0.33363 0.83946 0.94247 0.0
H405 H 0.31485 0.81592 0.83749 0.0
C406 C 0.21806 0.77487 0.78279 0.0
C407 C 0.16506 0.75329 0.75993 0.0
C408 C 0.22927 0.78933 0.84312 0.0
C409 C 0.12344 0.74651 0.79851 0.0
C410 C 0.13432 0.76096 0.85849 0.0
C411 C 0.19825 0.79666 0.9417 0.0
C412 C 0.25114 0.81762 0.96477 0.0
C413 C 0.18706 0.78234 0.88132 0.0
C414 C 0.29272 0.82433 0.92609 0.0
C415 C 0.28195 0.81045 0.86599 0.0
H416 H 0.36231 0.22924 0.28443 0.0
H417 H 0.47815 0.18536 0.34923 0.0
H418 H 0.48711 0.15693 0.24966 0.0
H419 H 0.46358 0.1464 0.14352 0.0
H420 H 0.34756 0.19009 0.07848 0.0
H421 H 0.33756 0.2172 0.1784 0.0
C422 C 0.38972 0.21376 0.27658 0.0
C423 C 0.41937 0.20926 0.32416 0.0
C424 C 0.3947 0.19749 0.21911 0.0
C425 C 0.45433 0.18855 0.31349 0.0
C426 C 0.45965 0.1725 0.2565 0.0
C427 C 0.43559 0.16118 0.15137 0.0
C428 C 0.40654 0.16636 0.10358 0.0
C429 C 0.43003 0.17675 0.20896 0.0
C430 C 0.37096 0.18632 0.11439 0.0
C431 C 0.36507 0.20171 0.17154 0.0
H432 H 0.14999 0.47694 0.18427 0.0
H433 H 0.1536 0.56303 1.02543 0.0
H434 H 0.16055 0.63748 0.08631 0.0
H435 H 0.17198 0.68024 0.18376 0.0
H436 H 0.17112 0.5952 0.34249 0.0
H437 H 0.15671 0.51771 0.28195 0.0
C438 C 0.15194 0.51175 0.1627 0.0
C439 C 0.15178 0.51454 0.10015 0.0
C440 C 0.15684 0.55462 0.19789 0.0
C441 C 0.15367 0.55979 0.07332 0.0
C442 C 0.15792 0.60246 0.10814 0.0
C443 C 0.16852 0.64478 0.20541 0.0
C444 C 0.17327 0.64386 0.26777 0.0
C445 C 0.16064 0.60069 0.17037 0.0
C446 C 0.16788 0.59716 0.29474 0.0
C447 C 0.15969 0.55288 0.2601 0.0
H448 H 0.67314 0.15321 0.52107 0.0
H449 H 0.58189 0.1547 0.36764 0.0
H450 H 0.51651 0.16049 0.43279 0.0
H451 H 0.48788 0.16931 0.53177 0.0
H452 H 0.57939 0.16986 0.68577 0.0
H453 H 0.64247 0.15905 0.62114 0.0
C454 C 0.6389 0.15463 0.50161 0.0
C455 C 0.63268 0.15384 0.43929 0.0
C456 C 0.60184 0.15864 0.53923 0.0
C457 C 0.58782 0.15538 0.41524 0.0
C458 C 0.5505 0.15885 0.45245 0.0
C459 C 0.52152 0.16705 0.5516 0.0
C460 C 0.52906 0.17087 0.61375 0.0
C461 C 0.55757 0.16122 0.51434 0.0
C462 C 0.57269 0.16726 0.6382 0.0
C463 C 0.60876 0.16112 0.60125 0.0
H464 H 0.36473 0.54789 0.97661 0.0
H465 H 0.25881 0.48635 0.82339 0.0
H466 H 0.33052 0.54965 0.75989 0.0
H467 H 0.42142 0.62747 0.748 0.0
H468 H 0.52717 0.69091 0.90074 0.0
H469 H 0.4582 0.62178 0.96337 0.0
C470 C 0.35745 0.54817 0.92935 0.0
C471 C 0.30615 0.51259 0.90532 0.0
C472 C 0.39905 0.58512 0.89252 0.0
C473 C 0.29768 0.51332 0.84365 0.0
C474 C 0.33879 0.54959 0.80691 0.0
C475 C 0.42969 0.62539 0.7947 0.0
C476 C 0.47902 0.66438 0.81968 0.0
C477 C 0.3894 0.58623 0.8309 0.0
C478 C 0.48913 0.66153 0.88047 0.0
C479 C 0.44968 0.62212 0.91646 0.0
H480 H 0.74194 0.31986 0.31906 0.0
H481 H 0.84122 0.30024 0.18887 0.0
H482 H 0.84643 0.37539 0.13123 0.0
H483 H 0.81543 0.44122 0.11355 0.0
H484 H 0.70644 0.45149 0.23873 0.0
H485 H 0.71229 0.38605 0.30235 0.0
C486 C 0.76577 0.33314 0.27885 0.0
C487 C 0.79188 0.30564 0.25845 0.0
C488 C 0.76607 0.37423 0.2445 0.0
C489 C 0.82135 0.32166 0.20544 0.0
C490 C 0.82398 0.36424 0.17236 0.0
C491 C 0.79337 0.42936 0.15495 0.0
C492 C 0.76068 0.45135 0.17126 0.0
C493 C 0.79531 0.38996 0.19067 0.0
C494 C 0.73192 0.43526 0.2249 0.0
C495 C 0.73522 0.39777 0.26153 0.0
H496 H 0.30373 0.80743 0.54477 0.0
H497 H 0.39302 0.81239 0.38805 0.0
H498 H 0.4668 0.81944 0.45086 0.0
H499 H 0.50314 0.81934 0.54924 0.0
H500 H 0.41278 0.81146 0.70614 0.0
H501 H 0.34167 0.8107 0.64347 0.0
C502 C 0.33929 0.81016 0.524 0.0
C503 C 0.34252 0.80886 0.4615 0.0
C504 C 0.38107 0.81355 0.56031 0.0
C505 C 0.38932 0.81311 0.43583 0.0
C506 C 0.43143 0.81703 0.47175 0.0
C507 C 0.46802 0.81756 0.57014 0.0
C508 C 0.46309 0.81491 0.63258 0.0
C509 C 0.42729 0.81649 0.53394 0.0
C510 C 0.41756 0.81337 0.6584 0.0
C511 C 0.37689 0.81279 0.62254 0.0
H512 H 0.66661 0.49225 0.90007 0.0
H513 H 0.54959 0.43317 0.04073 0.0
H514 H 0.48324 0.36302 0.97374 0.0
H515 H 0.46347 0.31282 0.87884 0.0
H516 H 0.58109 0.37379 0.73828 0.0
H517 H 0.64284 0.44962 0.80182 0.0
C518 C 0.62618 0.4647 0.91564 0.0
C519 C 0.6129 0.46732 0.97514 0.0
C520 C 0.5889 0.42479 0.87715 0.0
C521 C 0.56043 0.43187 0.99497 0.0
C522 C 0.52283 0.39162 0.95684 0.0
C523 C 0.50236 0.3432 0.86186 0.0
C524 C 0.51826 0.33744 0.80434 0.0
C525 C 0.53733 0.38676 0.89843 0.0
C526 C 0.56815 0.3774 0.78237 0.0
C527 C 0.60341 0.4206 0.81868 0.0
loop_
_geom_bond_atom_site_label_1
_geom_bond_atom_site_label_2
_geom_bond_distance
_geom_bond_site_symmetry_2
_ccdc_geom_bond_type
Tb0 C9 2.764 . S
Tb0 O10 2.325 . S
Tb0 O13 2.303 . S
Tb0 O17 2.322 1_554 S
Tb0 O18 2.349 . S
Tb0 O21 2.415 . S
Tb0 O22 2.399 . S
Tb1 O11 2.322 1_556 S
Tb1 O12 2.349 . S
Tb1 O14 2.415 . S
Tb1 O15 2.399 . S
Tb1 O16 2.325 . S
Tb1 O19 2.303 . S
Tb1 C30 2.764 . S
C2 O18 1.261 1_556 S
C2 O19 1.257 . S
C3 C6 1.358 . S
C3 C7 1.332 . S
C3 C9 1.504 . S
C4 C5 1.373 . S
C4 C8 1.308 . S
C5 C4 1.373 . S
C5 C6 1.429 . S
C5 H32 0.932 . S
C6 C3 1.358 . S
C6 C5 1.429 . S
C6 H33 0.930 . S
C7 C3 1.332 . S
C7 C8 1.394 . S
C7 H34 0.932 . S
C8 C4 1.308 . S
C8 C7 1.394 . S
C8 H35 0.929 . S
C9 Tb0 2.764 . S
C9 C3 1.504 . S
C9 O21 1.239 . S
C9 O22 1.263 . S
O10 Tb0 2.325 . S
O10 C20 1.236 . S
O11 Tb1 2.322 1_554 S
O11 C20 1.257 . S
O12 Tb1 2.349 . S
O12 C23 1.261 1_556 S
O13 Tb0 2.303 . S
O13 C23 1.257 . S
O14 Tb1 2.415 . S
O14 C30 1.239 . S
O15 Tb1 2.399 . S
O15 C30 1.263 . S
O16 Tb1 2.325 . S
O16 C31 1.236 . S
O17 Tb0 2.322 1_556 S
O17 C31 1.257 . S
O18 Tb0 2.349 . S
O18 C2 1.261 1_554 S
O19 Tb1 2.303 . S
O19 C2 1.257 . S
C20 O10 1.236 . S
C20 O11 1.257 . S
O21 Tb0 2.415 . S
O21 C9 1.239 . S
O22 Tb0 2.399 . S
O22 C9 1.263 . S
C23 O12 1.261 1_554 S
C23 O13 1.257 . S
C24 C27 1.358 . S
C24 C28 1.332 . S
C24 C30 1.504 . S
C25 C26 1.373 . S
C25 C29 1.308 . S
C26 C25 1.373 . S
C26 C27 1.429 . S
C26 H36 0.932 . S
C27 C24 1.358 . S
C27 C26 1.429 . S
C27 H37 0.930 . S
C28 C24 1.332 . S
C28 C29 1.394 . S
C28 H38 0.932 . S
C29 C25 1.308 . S
C29 C28 1.394 . S
C29 H39 0.929 . S
C30 Tb1 2.764 . S
C30 O14 1.239 . S
C30 O15 1.263 . S
C30 C24 1.504 . S
C31 O16 1.236 . S
C31 O17 1.257 . S
H32 C5 0.932 . S
H33 C6 0.930 . S
H34 C7 0.932 . S
H35 C8 0.929 . S
H36 C26 0.932 . S
H37 C27 0.930 . S
H38 C28 0.932 . S
H39 C29 0.929 . S
Tb40 C49 2.764 . S
Tb40 O50 2.325 . S
Tb40 O53 2.303 . S
Tb40 O57 2.322 . S
Tb40 O58 2.349 . S
Tb40 O61 2.415 . S
Tb40 O62 2.399 . S
Tb41 O51 2.322 . S
Tb41 O52 2.349 . S
Tb41 O54 2.415 . S
Tb41 O55 2.399 . S
Tb41 O56 2.325 . S
Tb41 O59 2.303 . S
Tb41 C70 2.764 . S
C42 O58 1.261 . S
C42 O59 1.257 . S
C43 C46 1.358 . S
C43 C47 1.332 . S
C43 C49 1.504 . S
C44 C45 1.373 . S
C44 C48 1.308 . S
C45 C44 1.373 . S
C45 C46 1.429 . S
C45 H72 0.932 . S
C46 C43 1.358 . S
C46 C45 1.429 . S
C46 H73 0.930 . S
C47 C43 1.332 . S
C47 C48 1.394 . S
C47 H74 0.932 . S
C48 C44 1.308 . S
C48 C47 1.394 . S
C48 H75 0.929 . S
C49 Tb40 2.764 . S
C49 C43 1.504 . S
C49 O61 1.239 . S
C49 O62 1.263 . S
O50 Tb40 2.325 . S
O50 C60 1.236 . S
O51 Tb41 2.322 . S
O51 C60 1.257 . S
O52 Tb41 2.349 . S
O52 C63 1.261 . S
O53 Tb40 2.303 . S
O53 C63 1.257 . S
O54 Tb41 2.415 . S
O54 C70 1.239 . S
O55 Tb41 2.399 . S
O55 C70 1.263 . S
O56 Tb41 2.325 . S
O56 C71 1.236 . S
O57 Tb40 2.322 . S
O57 C71 1.257 . S
O58 Tb40 2.349 . S
O58 C42 1.261 . S
O59 Tb41 2.303 . S
O59 C42 1.257 . S
C60 O50 1.236 . S
C60 O51 1.257 . S
O61 Tb40 2.415 . S
O61 C49 1.239 . S
O62 Tb40 2.399 . S
O62 C49 1.263 . S
C63 O52 1.261 . S
C63 O53 1.257 . S
C64 C67 1.358 . S
C64 C68 1.332 . S
C64 C70 1.504 . S
C65 C66 1.373 1_556 S
C65 C69 1.308 1_556 S
C66 C65 1.373 1_554 S
C66 C67 1.429 . S
C66 H76 0.932 . S
C67 C64 1.358 . S
C67 C66 1.429 . S
C67 H77 0.930 . S
C68 C64 1.332 . S
C68 C69 1.394 . S
C68 H78 0.932 . S
C69 C65 1.308 1_554 S
C69 C68 1.394 . S
C69 H79 0.929 1_554 S
C70 Tb41 2.764 . S
C70 O54 1.239 . S
C70 O55 1.263 . S
C70 C64 1.504 . S
C71 O56 1.236 . S
C71 O57 1.257 . S
H72 C45 0.932 . S
H73 C46 0.930 . S
H74 C47 0.932 . S
H75 C48 0.929 . S
H76 C66 0.932 . S
H77 C67 0.930 . S
H78 C68 0.932 . S
H79 C69 0.929 1_556 S
Tb80 C89 2.764 . S
Tb80 O90 2.325 . S
Tb80 O93 2.303 . S
Tb80 O97 2.322 . S
Tb80 O98 2.349 . S
Tb80 O101 2.415 . S
Tb80 O102 2.399 . S
Tb81 O91 2.322 . S
Tb81 O92 2.349 . S
Tb81 O94 2.415 . S
Tb81 O95 2.399 . S
Tb81 O96 2.325 . S
Tb81 O99 2.303 . S
Tb81 C110 2.764 . S
C82 O98 1.261 . S
C82 O99 1.257 . S
C83 C86 1.358 . S
C83 C87 1.332 . S
C83 C89 1.504 . S
C84 C85 1.373 1_554 S
C84 C88 1.308 . S
C85 C84 1.373 1_556 S
C85 C86 1.429 . S
C85 H112 0.932 1_556 S
C86 C83 1.358 . S
C86 C85 1.429 . S
C86 H113 0.930 . S
C87 C83 1.332 . S
C87 C88 1.394 1_556 S
C87 H114 0.932 . S
C88 C84 1.308 . S
C88 C87 1.394 1_554 S
C88 H115 0.929 . S
C89 Tb80 2.764 . S
C89 C83 1.504 . S
C89 O101 1.239 . S
C89 O102 1.263 . S
O90 Tb80 2.325 . S
O90 C100 1.236 . S
O91 Tb81 2.322 . S
O91 C100 1.257 . S
O92 Tb81 2.349 . S
O92 C103 1.261 . S
O93 Tb80 2.303 . S
O93 C103 1.257 . S
O94 Tb81 2.415 . S
O94 C110 1.239 . S
O95 Tb81 2.399 . S
O95 C110 1.263 . S
O96 Tb81 2.325 . S
O96 C111 1.236 . S
O97 Tb80 2.322 . S
O97 C111 1.257 . S
O98 Tb80 2.349 . S
O98 C82 1.261 . S
O99 Tb81 2.303 . S
O99 C82 1.257 . S
C100 O90 1.236 . S
C100 O91 1.257 . S
O101 Tb80 2.415 . S
O101 C89 1.239 . S
O102 Tb80 2.399 . S
O102 C89 1.263 . S
C103 O92 1.261 . S
C103 O93 1.257 . S
C104 C107 1.358 . S
C104 C108 1.332 . S
C104 C110 1.504 . S
C105 C106 1.373 . S
C105 C109 1.308 . S
C106 C105 1.373 . S
C106 C107 1.429 . S
C106 H116 0.932 . S
C107 C104 1.358 . S
C107 C106 1.429 . S
C107 H117 0.930 . S
C108 C104 1.332 . S
C108 C109 1.394 . S
C108 H118 0.932 . S
C109 C105 1.308 . S
C109 C108 1.394 . S
C109 H119 0.929 . S
C110 Tb81 2.764 . S
C110 O94 1.239 . S
C110 O95 1.263 . S
C110 C104 1.504 . S
C111 O96 1.236 . S
C111 O97 1.257 . S
H112 C85 0.932 1_554 S
H113 C86 0.930 . S
H114 C87 0.932 . S
H115 C88 0.929 . S
H116 C106 0.932 . S
H117 C107 0.930 . S
H118 C108 0.932 . S
H119 C109 0.929 . S
Tb120 C129 2.764 . S
Tb120 O130 2.325 . S
Tb120 O133 2.303 . S
Tb120 O137 2.322 1_554 S
Tb120 O138 2.349 . S
Tb120 O141 2.415 . S
Tb120 O142 2.399 . S
Tb121 O131 2.322 1_556 S
Tb121 O132 2.349 . S
Tb121 O134 2.415 . S
Tb121 O135 2.399 . S
Tb121 O136 2.325 . S
Tb121 O139 2.303 . S
Tb121 C150 2.764 . S
C122 O138 1.261 1_556 S
C122 O139 1.257 . S
C123 C126 1.358 . S
C123 C127 1.332 . S
C123 C129 1.504 . S
C124 C125 1.373 . S
C124 C128 1.308 . S
C125 C124 1.373 . S
C125 C126 1.429 . S
C125 H152 0.932 . S
C126 C123 1.358 . S
C126 C125 1.429 . S
C126 H153 0.930 . S
C127 C123 1.332 . S
C127 C128 1.394 . S
C127 H154 0.932 . S
C128 C124 1.308 . S
C128 C127 1.394 . S
C128 H155 0.929 . S
C129 Tb120 2.764 . S
C129 C123 1.504 . S
C129 O141 1.239 . S
C129 O142 1.263 . S
O130 Tb120 2.325 . S
O130 C140 1.236 . S
O131 Tb121 2.322 1_554 S
O131 C140 1.257 . S
O132 Tb121 2.349 . S
O132 C143 1.261 1_556 S
O133 Tb120 2.303 . S
O133 C143 1.257 . S
O134 Tb121 2.415 . S
O134 C150 1.239 . S
O135 Tb121 2.399 . S
O135 C150 1.263 . S
O136 Tb121 2.325 . S
O136 C151 1.236 . S
O137 Tb120 2.322 1_556 S
O137 C151 1.257 . S
O138 Tb120 2.349 . S
O138 C122 1.261 1_554 S
O139 Tb121 2.303 . S
O139 C122 1.257 . S
C140 O130 1.236 . S
C140 O131 1.257 . S
O141 Tb120 2.415 . S
O141 C129 1.239 . S
O142 Tb120 2.399 . S
O142 C129 1.263 . S
C143 O132 1.261 1_554 S
C143 O133 1.257 . S
C144 C147 1.358 . S
C144 C148 1.332 . S
C144 C150 1.504 . S
C145 C146 1.373 . S
C145 C149 1.308 . S
C146 C145 1.373 . S
C146 C147 1.429 . S
C146 H156 0.932 . S
C147 C144 1.358 . S
C147 C146 1.429 . S
C147 H157 0.930 . S
C148 C144 1.332 . S
C148 C149 1.394 . S
C148 H158 0.932 . S
C149 C145 1.308 . S
C149 C148 1.394 . S
C149 H159 0.929 . S
C150 Tb121 2.764 . S
C150 O134 1.239 . S
C150 O135 1.263 . S
C150 C144 1.504 . S
C151 O136 1.236 . S
C151 O137 1.257 . S
H152 C125 0.932 . S
H153 C126 0.930 . S
H154 C127 0.932 . S
H155 C128 0.929 . S
H156 C146 0.932 . S
H157 C147 0.930 . S
H158 C148 0.932 . S
H159 C149 0.929 . S
Tb160 C169 2.764 . S
Tb160 O170 2.325 . S
Tb160 O173 2.303 . S
Tb160 O177 2.322 . S
Tb160 O178 2.349 . S
Tb160 O181 2.415 . S
Tb160 O182 2.399 . S
Tb161 O171 2.322 . S
Tb161 O172 2.349 . S
Tb161 O174 2.415 . S
Tb161 O175 2.399 . S
Tb161 O176 2.325 . S
Tb161 O179 2.303 . S
Tb161 C190 2.764 . S
C162 O178 1.261 . S
C162 O179 1.257 . S
C163 C166 1.358 . S
C163 C167 1.332 . S
C163 C169 1.504 . S
C164 C165 1.373 . S
C164 C168 1.308 . S
C165 C164 1.373 . S
C165 C166 1.429 . S
C165 H192 0.932 . S
C166 C163 1.358 . S
C166 C165 1.429 . S
C166 H193 0.930 . S
C167 C163 1.332 . S
C167 C168 1.394 . S
C167 H194 0.932 . S
C168 C164 1.308 . S
C168 C167 1.394 . S
C168 H195 0.929 . S
C169 Tb160 2.764 . S
C169 C163 1.504 . S
C169 O181 1.239 . S
C169 O182 1.263 . S
O170 Tb160 2.325 . S
O170 C180 1.236 . S
O171 Tb161 2.322 . S
O171 C180 1.257 . S
O172 Tb161 2.349 . S
O172 C183 1.261 . S
O173 Tb160 2.303 . S
O173 C183 1.257 . S
O174 Tb161 2.415 . S
O174 C190 1.239 . S
O175 Tb161 2.399 . S
O175 C190 1.263 . S
O176 Tb161 2.325 . S
O176 C191 1.236 . S
O177 Tb160 2.322 . S
O177 C191 1.257 . S
O178 Tb160 2.349 . S
O178 C162 1.261 . S
O179 Tb161 2.303 . S
O179 C162 1.257 . S
C180 O170 1.236 . S
C180 O171 1.257 . S
O181 Tb160 2.415 . S
O181 C169 1.239 . S
O182 Tb160 2.399 . S
O182 C169 1.263 . S
C183 O172 1.261 . S
C183 O173 1.257 . S
C184 C187 1.358 . S
C184 C188 1.332 . S
C184 C190 1.504 . S
C185 C186 1.373 1_556 S
C185 C189 1.308 1_556 S
C186 C185 1.373 1_554 S
C186 C187 1.429 . S
C186 H196 0.932 . S
C187 C184 1.358 . S
C187 C186 1.429 . S
C187 H197 0.930 . S
C188 C184 1.332 . S
C188 C189 1.394 . S
C188 H198 0.932 . S
C189 C185 1.308 1_554 S
C189 C188 1.394 . S
C189 H199 0.929 1_554 S
C190 Tb161 2.764 . S
C190 O174 1.239 . S
C190 O175 1.263 . S
C190 C184 1.504 . S
C191 O176 1.236 . S
C191 O177 1.257 . S
H192 C165 0.932 . S
H193 C166 0.930 . S
H194 C167 0.932 . S
H195 C168 0.929 . S
H196 C186 0.932 . S
H197 C187 0.930 . S
H198 C188 0.932 . S
H199 C189 0.929 1_556 S
Tb200 C209 2.764 . S
Tb200 O210 2.325 . S
Tb200 O213 2.303 . S
Tb200 O217 2.322 . S
Tb200 O218 2.349 . S
Tb200 O221 2.415 . S
Tb200 O222 2.399 . S
Tb201 O211 2.322 . S
Tb201 O212 2.349 . S
Tb201 O214 2.415 . S
Tb201 O215 2.399 . S
Tb201 O216 2.325 . S
Tb201 O219 2.303 . S
Tb201 C230 2.764 . S
C202 O218 1.261 . S
C202 O219 1.257 . S
C203 C206 1.358 . S
C203 C207 1.332 . S
C203 C209 1.504 . S
C204 C205 1.373 1_554 S
C204 C208 1.308 . S
C205 C204 1.373 1_556 S
C205 C206 1.429 . S
C205 H232 0.932 1_556 S
C206 C203 1.358 . S
C206 C205 1.429 . S
C206 H233 0.930 . S
C207 C203 1.332 . S
C207 C208 1.394 1_556 S
C207 H234 0.932 . S
C208 C204 1.308 . S
C208 C207 1.394 1_554 S
C208 H235 0.929 . S
C209 Tb200 2.764 . S
C209 C203 1.504 . S
C209 O221 1.239 . S
C209 O222 1.263 . S
O210 Tb200 2.325 . S
O210 C220 1.236 . S
O211 Tb201 2.322 . S
O211 C220 1.257 . S
O212 Tb201 2.349 . S
O212 C223 1.261 . S
O213 Tb200 2.303 . S
O213 C223 1.257 . S
O214 Tb201 2.415 . S
O214 C230 1.239 . S
O215 Tb201 2.399 . S
O215 C230 1.263 . S
O216 Tb201 2.325 . S
O216 C231 1.236 . S
O217 Tb200 2.322 . S
O217 C231 1.257 . S
O218 Tb200 2.349 . S
O218 C202 1.261 . S
O219 Tb201 2.303 . S
O219 C202 1.257 . S
C220 O210 1.236 . S
C220 O211 1.257 . S
O221 Tb200 2.415 . S
O221 C209 1.239 . S
O222 Tb200 2.399 . S
O222 C209 1.263 . S
C223 O212 1.261 . S
C223 O213 1.257 . S
C224 C227 1.358 . S
C224 C228 1.332 . S
C224 C230 1.504 . S
C225 C226 1.373 . S
C225 C229 1.308 . S
C226 C225 1.373 . S
C226 C227 1.429 . S
C226 H236 0.932 . S
C227 C224 1.358 . S
C227 C226 1.429 . S
C227 H237 0.930 . S
C228 C224 1.332 . S
C228 C229 1.394 . S
C228 H238 0.932 . S
C229 C225 1.308 . S
C229 C228 1.394 . S
C229 H239 0.929 . S
C230 Tb201 2.764 . S
C230 O214 1.239 . S
C230 O215 1.263 . S
C230 C224 1.504 . S
C231 O216 1.236 . S
C231 O217 1.257 . S
H232 C205 0.932 1_554 S
H233 C206 0.930 . S
H234 C207 0.932 . S
H235 C208 0.929 . S
H236 C226 0.932 . S
H237 C227 0.930 . S
H238 C228 0.932 . S
H239 C229 0.929 . S
H240 C246 0.930 . S
H241 C249 0.930 . S
H242 C250 0.930 . S
H243 C251 0.930 . S
H244 C254 0.930 . S
H245 C255 0.930 . S
C246 H240 0.930 . S
C246 C247 1.355 . S
C246 C248 1.415 . S
C247 C246 1.355 . S
C247 C249 1.419 . S
C248 C246 1.415 . S
C248 C253 1.425 . S
C248 C255 1.409 . S
C249 H241 0.930 . S
C249 C247 1.419 . S
C249 C250 1.362 . S
C250 H242 0.930 . S
C250 C249 1.362 . S
C250 C253 1.409 . S
C251 H243 0.930 . S
C251 C252 1.355 . S
C251 C253 1.415 . S
C252 C251 1.355 . S
C252 C254 1.419 . S
C253 C248 1.425 . S
C253 C250 1.409 . S
C253 C251 1.415 . S
C254 H244 0.930 . S
C254 C252 1.419 . S
C254 C255 1.362 . S
C255 H245 0.930 . S
C255 C248 1.409 . S
C255 C254 1.362 . S
H256 C262 0.930 1_655 S
H257 C265 0.930 . S
H258 C266 0.930 . S
H259 C267 0.930 . S
H260 C270 0.930 . S
H261 C271 0.930 . S
C262 H256 0.930 1_455 S
C262 C263 1.355 . S
C262 C264 1.415 1_455 S
C263 C262 1.355 . S
C263 C265 1.419 . S
C264 C262 1.415 1_655 S
C264 C269 1.425 1_655 S
C264 C271 1.409 . S
C265 H257 0.930 . S
C265 C263 1.419 . S
C265 C266 1.362 . S
C266 H258 0.930 . S
C266 C265 1.362 . S
C266 C269 1.409 . S
C267 H259 0.930 . S
C267 C268 1.355 . S
C267 C269 1.415 1_655 S
C268 C267 1.355 . S
C268 C270 1.419 . S
C269 C264 1.425 1_455 S
C269 C266 1.409 . S
C269 C267 1.415 1_455 S
C270 H260 0.930 . S
C270 C268 1.419 . S
C270 C271 1.362 . S
C271 H261 0.930 . S
C271 C264 1.409 . S
C271 C270 1.362 . S
H272 C278 0.930 . S
H273 C281 0.930 . S
H274 C282 0.930 . S
H275 C283 0.930 . S
H276 C286 0.930 . S
H277 C287 0.930 . S
C278 H272 0.930 . S
C278 C279 1.355 . S
C278 C280 1.415 1_545 S
C279 C278 1.355 . S
C279 C281 1.419 . S
C280 C278 1.415 1_565 S
C280 C285 1.423 . S
C280 C287 1.409 . S
C281 H273 0.930 . S
C281 C279 1.419 . S
C281 C282 1.362 . S
C282 H274 0.930 . S
C282 C281 1.362 . S
C282 C285 1.407 1_545 S
C283 H275 0.930 . S
C283 C284 1.355 . S
C283 C285 1.419 . S
C284 C283 1.355 . S
C284 C286 1.419 . S
C285 C280 1.423 . S
C285 C282 1.407 1_565 S
C285 C283 1.419 . S
C286 H276 0.930 . S
C286 C284 1.419 . S
C286 C287 1.362 . S
C287 H277 0.930 . S
C287 C280 1.409 . S
C287 C286 1.362 . S
H288 C294 0.930 . S
H289 C297 0.930 . S
H290 C298 0.930 . S
H291 C299 0.930 . S
H292 C302 0.930 . S
H293 C303 0.930 . S
C294 H288 0.930 . S
C294 C295 1.355 . S
C294 C296 1.415 . S
C295 C294 1.355 . S
C295 C297 1.419 . S
C296 C294 1.415 . S
C296 C301 1.425 . S
C296 C303 1.409 . S
C297 H289 0.930 . S
C297 C295 1.419 . S
C297 C298 1.362 . S
C298 H290 0.930 . S
C298 C297 1.362 . S
C298 C301 1.409 . S
C299 H291 0.930 . S
C299 C300 1.355 . S
C299 C301 1.415 . S
C300 C299 1.355 . S
C300 C302 1.419 . S
C301 C296 1.425 . S
C301 C298 1.409 . S
C301 C299 1.415 . S
C302 H292 0.930 . S
C302 C300 1.419 . S
C302 C303 1.362 . S
C303 H293 0.930 . S
C303 C296 1.409 . S
C303 C302 1.362 . S
H304 C310 0.930 . S
H305 C313 0.930 . S
H306 C314 0.930 . S
H307 C315 0.930 1_455 S
H308 C318 0.930 . S
H309 C319 0.930 . S
C310 H304 0.930 . S
C310 C311 1.355 . S
C310 C312 1.415 1_455 S
C311 C310 1.355 . S
C311 C313 1.419 . S
C312 C310 1.415 1_655 S
C312 C317 1.425 1_655 S
C312 C319 1.409 . S
C313 H305 0.930 . S
C313 C311 1.419 . S
C313 C314 1.362 . S
C314 H306 0.930 . S
C314 C313 1.362 . S
C314 C317 1.409 . S
C315 H307 0.930 1_655 S
C315 C316 1.355 . S
C315 C317 1.415 1_655 S
C316 C315 1.355 . S
C316 C318 1.419 . S
C317 C312 1.425 1_455 S
C317 C314 1.409 . S
C317 C315 1.415 1_455 S
C318 H308 0.930 . S
C318 C316 1.419 . S
C318 C319 1.362 . S
C319 H309 0.930 . S
C319 C312 1.409 . S
C319 C318 1.362 . S
H320 C326 0.930 . S
H321 C329 0.930 . S
H322 C330 0.930 . S
H323 C331 0.930 . S
H324 C334 0.930 . S
H325 C335 0.930 . S
C326 H320 0.930 . S
C326 C327 1.355 . S
C326 C328 1.415 . S
C327 C326 1.355 . S
C327 C329 1.419 . S
C328 C326 1.415 . S
C328 C333 1.425 1_545 S
C328 C335 1.409 . S
C329 H321 0.930 . S
C329 C327 1.419 . S
C329 C330 1.362 1_545 S
C330 H322 0.930 . S
C330 C329 1.362 1_565 S
C330 C333 1.409 . S
C331 H323 0.930 . S
C331 C332 1.355 . S
C331 C333 1.415 . S
C332 C331 1.355 . S
C332 C334 1.419 . S
C333 C328 1.425 1_565 S
C333 C330 1.409 . S
C333 C331 1.415 . S
C334 H324 0.930 . S
C334 C332 1.419 . S
C334 C335 1.362 1_565 S
C335 H325 0.930 . S
C335 C328 1.409 . S
C335 C334 1.362 1_545 S
H336 C342 0.930 . S
H337 C345 0.930 . S
H338 C346 0.930 . S
H339 C347 0.930 . S
H340 C350 0.930 . S
H341 C351 0.930 . S
C342 H336 0.930 . S
C342 C343 1.355 . S
C342 C344 1.415 . S
C343 C342 1.355 . S
C343 C345 1.419 . S
C344 C342 1.415 . S
C344 C349 1.425 . S
C344 C351 1.409 . S
C345 H337 0.930 . S
C345 C343 1.419 . S
C345 C346 1.362 . S
C346 H338 0.930 . S
C346 C345 1.362 . S
C346 C349 1.409 . S
C347 H339 0.930 . S
C347 C348 1.355 . S
C347 C349 1.415 . S
C348 C347 1.355 . S
C348 C350 1.419 . S
C349 C344 1.425 . S
C349 C346 1.409 . S
C349 C347 1.415 . S
C350 H340 0.930 . S
C350 C348 1.419 . S
C350 C351 1.362 . S
C351 H341 0.930 . S
C351 C344 1.409 . S
C351 C350 1.362 . S
H352 C358 0.930 . S
H353 C361 0.930 . S
H354 C362 0.930 . S
H355 C363 0.930 . S
H356 C366 0.930 . S
H357 C367 0.930 . S
C358 H352 0.930 . S
C358 C359 1.355 . S
C358 C360 1.415 . S
C359 C358 1.355 . S
C359 C361 1.419 . S
C360 C358 1.415 . S
C360 C365 1.425 . S
C360 C367 1.409 . S
C361 H353 0.930 . S
C361 C359 1.419 . S
C361 C362 1.362 . S
C362 H354 0.930 . S
C362 C361 1.362 . S
C362 C365 1.409 . S
C363 H355 0.930 . S
C363 C364 1.355 . S
C363 C365 1.415 . S
C364 C363 1.355 . S
C364 C366 1.419 . S
C365 C360 1.425 . S
C365 C362 1.409 . S
C365 C363 1.415 . S
C366 H356 0.930 . S
C366 C364 1.419 . S
C366 C367 1.362 . S
C367 H357 0.930 . S
C367 C360 1.409 . S
C367 C366 1.362 . S
H368 C374 0.930 . S
H369 C377 0.930 . S
H370 C378 0.930 . S
H371 C379 0.930 . S
H372 C382 0.930 . S
H373 C383 0.930 . S
C374 H368 0.930 . S
C374 C375 1.355 . S
C374 C376 1.415 . S
C375 C374 1.355 . S
C375 C377 1.419 . S
C376 C374 1.415 . S
C376 C381 1.425 . S
C376 C383 1.409 . S
C377 H369 0.930 . S
C377 C375 1.419 . S
C377 C378 1.362 . S
C378 H370 0.930 . S
C378 C377 1.362 . S
C378 C381 1.409 . S
C379 H371 0.930 . S
C379 C380 1.355 . S
C379 C381 1.415 . S
C380 C379 1.355 . S
C380 C382 1.419 . S
C381 C376 1.425 . S
C381 C378 1.409 . S
C381 C379 1.415 . S
C382 H372 0.930 . S
C382 C380 1.419 . S
C382 C383 1.362 . S
C383 H373 0.930 . S
C383 C376 1.409 . S
C383 C382 1.362 . S
H384 C390 0.930 . S
H385 C393 0.930 . S
H386 C394 0.930 . S
H387 C395 0.930 . S
H388 C398 0.930 . S
H389 C399 0.930 . S
C390 H384 0.930 . S
C390 C391 1.355 . S
C390 C392 1.415 . S
C391 C390 1.355 . S
C391 C393 1.419 . S
C392 C390 1.415 . S
C392 C397 1.425 . S
C392 C399 1.409 . S
C393 H385 0.930 . S
C393 C391 1.419 . S
C393 C394 1.362 . S
C394 H386 0.930 . S
C394 C393 1.362 . S
C394 C397 1.409 . S
C395 H387 0.930 . S
C395 C396 1.355 . S
C395 C397 1.415 . S
C396 C395 1.355 . S
C396 C398 1.419 . S
C397 C392 1.425 . S
C397 C394 1.409 . S
C397 C395 1.415 . S
C398 H388 0.930 . S
C398 C396 1.419 . S
C398 C399 1.362 . S
C399 H389 0.930 . S
C399 C392 1.409 . S
C399 C398 1.362 . S
H400 C406 0.930 . S
H401 C409 0.930 . S
H402 C410 0.930 . S
H403 C411 0.930 . S
H404 C414 0.930 . S
H405 C415 0.930 . S
C406 H400 0.930 . S
C406 C407 1.355 . S
C406 C408 1.415 . S
C407 C406 1.355 . S
C407 C409 1.419 . S
C408 C406 1.415 . S
C408 C413 1.425 . S
C408 C415 1.409 . S
C409 H401 0.930 . S
C409 C407 1.419 . S
C409 C410 1.362 . S
C410 H402 0.930 . S
C410 C409 1.362 . S
C410 C413 1.409 . S
C411 H403 0.930 . S
C411 C412 1.355 . S
C411 C413 1.415 . S
C412 C411 1.355 . S
C412 C414 1.419 . S
C413 C408 1.425 . S
C413 C410 1.409 . S
C413 C411 1.415 . S
C414 H404 0.930 . S
C414 C412 1.419 . S
C414 C415 1.362 . S
C415 H405 0.930 . S
C415 C408 1.409 . S
C415 C414 1.362 . S
H416 C422 0.930 . S
H417 C425 0.930 . S
H418 C426 0.930 . S
H419 C427 0.930 . S
H420 C430 0.930 . S
H421 C431 0.930 . S
C422 H416 0.930 . S
C422 C423 1.355 . S
C422 C424 1.415 . S
C423 C422 1.355 . S
C423 C425 1.419 . S
C424 C422 1.415 . S
C424 C429 1.425 . S
C424 C431 1.409 . S
C425 H417 0.930 . S
C425 C423 1.419 . S
C425 C426 1.362 . S
C426 H418 0.930 . S
C426 C425 1.362 . S
C426 C429 1.409 . S
C427 H419 0.930 . S
C427 C428 1.355 . S
C427 C429 1.415 . S
C428 C427 1.355 . S
C428 C430 1.419 . S
C429 C424 1.425 . S
C429 C426 1.409 . S
C429 C427 1.415 . S
C430 H420 0.930 . S
C430 C428 1.419 . S
C430 C431 1.362 . S
C431 H421 0.930 . S
C431 C424 1.409 . S
C431 C430 1.362 . S
H432 C438 0.930 . S
H433 C441 0.930 . S
H434 C442 0.930 . S
H435 C443 0.930 . S
H436 C446 0.930 . S
H437 C447 0.930 . S
C438 H432 0.930 . S
C438 C439 1.355 . S
C438 C440 1.415 . S
C439 C438 1.355 . S
C439 C441 1.419 . S
C440 C438 1.415 . S
C440 C445 1.425 . S
C440 C447 1.409 . S
C441 H433 0.930 . S
C441 C439 1.419 . S
C441 C442 1.362 . S
C442 H434 0.930 . S
C442 C441 1.362 . S
C442 C445 1.409 . S
C443 H435 0.930 . S
C443 C444 1.355 . S
C443 C445 1.415 . S
C444 C443 1.355 . S
C444 C446 1.419 . S
C445 C440 1.425 . S
C445 C442 1.409 . S
C445 C443 1.415 . S
C446 H436 0.930 . S
C446 C444 1.419 . S
C446 C447 1.362 . S
C447 H437 0.930 . S
C447 C440 1.409 . S
C447 C446 1.362 . S
H448 C454 0.930 . S
H449 C457 0.930 . S
H450 C458 0.930 . S
H451 C459 0.930 . S
H452 C462 0.930 . S
H453 C463 0.930 . S
C454 H448 0.930 . S
C454 C455 1.355 . S
C454 C456 1.415 . S
C455 C454 1.355 . S
C455 C457 1.419 . S
C456 C454 1.415 . S
C456 C461 1.425 . S
C456 C463 1.409 . S
C457 H449 0.930 . S
C457 C455 1.419 . S
C457 C458 1.362 . S
C458 H450 0.930 . S
C458 C457 1.362 . S
C458 C461 1.409 . S
C459 H451 0.930 . S
C459 C460 1.355 . S
C459 C461 1.415 . S
C460 C459 1.355 . S
C460 C462 1.419 . S
C461 C456 1.425 . S
C461 C458 1.409 . S
C461 C459 1.415 . S
C462 H452 0.930 . S
C462 C460 1.419 . S
C462 C463 1.362 . S
C463 H453 0.930 . S
C463 C456 1.409 . S
C463 C462 1.362 . S
H464 C470 0.930 . S
H465 C473 0.930 . S
H466 C474 0.930 . S
H467 C475 0.930 . S
H468 C478 0.930 . S
H469 C479 0.930 . S
C470 H464 0.930 . S
C470 C471 1.355 . S
C470 C472 1.415 . S
C471 C470 1.355 . S
C471 C473 1.419 . S
C472 C470 1.415 . S
C472 C477 1.425 . S
C472 C479 1.409 . S
C473 H465 0.930 . S
C473 C471 1.419 . S
C473 C474 1.362 . S
C474 H466 0.930 . S
C474 C473 1.362 . S
C474 C477 1.409 . S
C475 H467 0.930 . S
C475 C476 1.355 . S
C475 C477 1.415 . S
C476 C475 1.355 . S
C476 C478 1.419 . S
C477 C472 1.425 . S
C477 C474 1.409 . S
C477 C475 1.415 . S
C478 H468 0.930 . S
C478 C476 1.419 . S
C478 C479 1.362 . S
C479 H469 0.930 . S
C479 C472 1.409 . S
C479 C478 1.362 . S
H480 C486 0.930 . S
H481 C489 0.930 . S
H482 C490 0.930 . S
H483 C491 0.930 . S
H484 C494 0.930 . S
H485 C495 0.930 . S
C486 H480 0.930 . S
C486 C487 1.355 . S
C486 C488 1.415 . S
C487 C486 1.355 . S
C487 C489 1.419 . S
C488 C486 1.415 . S
C488 C493 1.425 . S
C488 C495 1.409 . S
C489 H481 0.930 . S
C489 C487 1.419 . S
C489 C490 1.362 . S
C490 H482 0.930 . S
C490 C489 1.362 . S
C490 C493 1.409 . S
C491 H483 0.930 . S
C491 C492 1.355 . S
C491 C493 1.415 . S
C492 C491 1.355 . S
C492 C494 1.419 . S
C493 C488 1.425 . S
C493 C490 1.409 . S
C493 C491 1.415 . S
C494 H484 0.930 . S
C494 C492 1.419 . S
C494 C495 1.362 . S
C495 H485 0.930 . S
C495 C488 1.409 . S
C495 C494 1.362 . S
H496 C502 0.930 . S
H497 C505 0.930 . S
H498 C506 0.930 . S
H499 C507 0.930 . S
H500 C510 0.930 . S
H501 C511 0.930 . S
C502 H496 0.930 . S
C502 C503 1.355 . S
C502 C504 1.415 . S
C503 C502 1.355 . S
C503 C505 1.419 . S
C504 C502 1.415 . S
C504 C509 1.425 . S
C504 C511 1.409 . S
C505 H497 0.930 . S
C505 C503 1.419 . S
C505 C506 1.362 . S
C506 H498 0.930 . S
C506 C505 1.362 . S
C506 C509 1.409 . S
C507 H499 0.930 . S
C507 C508 1.355 . S
C507 C509 1.415 . S
C508 C507 1.355 . S
C508 C510 1.419 . S
C509 C504 1.425 . S
C509 C506 1.409 . S
C509 C507 1.415 . S
C510 H500 0.930 . S
C510 C508 1.419 . S
C510 C511 1.362 . S
C511 H501 0.930 . S
C511 C504 1.409 . S
C511 C510 1.362 . S
H512 C518 0.930 . S
H513 C521 0.930 . S
H514 C522 0.930 . S
H515 C523 0.930 . S
H516 C526 0.930 . S
H517 C527 0.930 . S
C518 H512 0.930 . S
C518 C519 1.355 . S
C518 C520 1.415 . S
C519 C518 1.355 . S
C519 C521 1.419 . S
C520 C518 1.415 . S
C520 C525 1.425 . S
C520 C527 1.409 . S
C521 H513 0.930 . S
C521 C519 1.419 . S
C521 C522 1.362 . S
C522 H514 0.930 . S
C522 C521 1.362 . S
C522 C525 1.409 . S
C523 H515 0.930 . S
C523 C524 1.355 . S
C523 C525 1.415 . S
C524 C523 1.355 . S
C524 C526 1.419 . S
C525 C520 1.425 . S
C525 C522 1.409 . S
C525 C523 1.415 . S
C526 H516 0.930 . S
C526 C524 1.419 . S
C526 C527 1.362 . S
C527 H517 0.930 . S
C527 C520 1.409 . S
C527 C526 1.362 . S
C247 C223 1.428 . S
C252 C31 1.444 . S
C263 C23 1.432 . S
C268 C71 1.442 . S
C279 C63 1.457 . S
C284 C111 1.434 . S
C295 C103 1.455 . S
C300 C151 1.452 . S
C311 C191 1.434 . S
C316 C143 1.455 . S
C327 C231 1.467 . S
C332 C183 1.417 . S
C343 C25 1.674 . S
C348 C4 1.674 . S
C359 C65 1.648 . S
C364 C44 1.648 . S
C375 C105 1.635 . S
C380 C84 1.635 . S
C391 C145 1.635 . S
C396 C124 1.635 . S
C407 C164 1.686 . S
C412 C185 1.686 . S
C423 C225 1.635 . S
C428 C204 1.635 . S
C439 C20 1.664 . S
C444 C162 1.687 . S
C455 C60 1.689 . S
C460 C202 1.686 . S
C471 C2 1.689 . S
C476 C100 1.677 . S
C487 C42 1.690 . S
C492 C140 1.664 . S
C503 C180 1.683 . S
C508 C82 1.686 . S
C519 C122 1.688 . S
C524 C220 1.657 . S
