# Generated by pormake.
# Topology ato, (4)-cn, num edge types: 1
# Building blocks:
#     Node 0, Type 0, BuildingBlock: NAHDIM_clean_sbu_0, # of connection points: 4
#     Node 1, Type 0, BuildingBlock: NAHDIM_clean_sbu_0, # of connection points: 4
#     Node 2, Type 0, BuildingBlock: NAHDIM_clean_sbu_0, # of connection points: 4
#     Node 3, Type 0, BuildingBlock: NAHDIM_clean_sbu_0, # of connection points: 4
#     Node 4, Type 0, BuildingBlock: NAHDIM_clean_sbu_0, # of connection points: 4
#     Node 5, Type 0, BuildingBlock: NAHDIM_clean_sbu_0, # of connection points: 4
#     Node 6, Type 0, BuildingBlock: NAHDIM_clean_sbu_0, # of connection points: 4
#     Node 7, Type 0, BuildingBlock: NAHDIM_clean_sbu_0, # of connection points: 4
#     Node 8, Type 0, BuildingBlock: NAHDIM_clean_sbu_0, # of connection points: 4
#     Node 9, Type 0, BuildingBlock: NAHDIM_clean_sbu_0, # of connection points: 4
#     Node 10, Type 0, BuildingBlock: NAHDIM_clean_sbu_0, # of connection points: 4
#     Node 11, Type 0, BuildingBlock: NAHDIM_clean_sbu_0, # of connection points: 4
#     Node 12, Type 0, BuildingBlock: NAHDIM_clean_sbu_0, # of connection points: 4
#     Node 13, Type 0, BuildingBlock: NAHDIM_clean_sbu_0, # of connection points: 4
#     Node 14, Type 0, BuildingBlock: NAHDIM_clean_sbu_0, # of connection points: 4
#     Node 15, Type 0, BuildingBlock: NAHDIM_clean_sbu_0, # of connection points: 4
#     Node 16, Type 0, BuildingBlock: NAHDIM_clean_sbu_0, # of connection points: 4
#     Node 17, Type 0, BuildingBlock: NAHDIM_clean_sbu_0, # of connection points: 4
#     Node 18, Type 0, BuildingBlock: NAHDIM_clean_sbu_0, # of connection points: 4
#     Node 19, Type 0, BuildingBlock: NAHDIM_clean_sbu_0, # of connection points: 4
#     Node 20, Type 0, BuildingBlock: NAHDIM_clean_sbu_0, # of connection points: 4
#     Node 21, Type 0, BuildingBlock: NAHDIM_clean_sbu_0, # of connection points: 4
#     Node 22, Type 0, BuildingBlock: NAHDIM_clean_sbu_0, # of connection points: 4
#     Node 23, Type 0, BuildingBlock: NAHDIM_clean_sbu_0, # of connection points: 4
#     Node 24, Type 0, BuildingBlock: NAHDIM_clean_sbu_0, # of connection points: 4
#     Node 25, Type 0, BuildingBlock: NAHDIM_clean_sbu_0, # of connection points: 4
#     Node 26, Type 0, BuildingBlock: NAHDIM_clean_sbu_0, # of connection points: 4
#     Node 27, Type 0, BuildingBlock: NAHDIM_clean_sbu_0, # of connection points: 4
#     Node 28, Type 0, BuildingBlock: NAHDIM_clean_sbu_0, # of connection points: 4
#     Node 29, Type 0, BuildingBlock: NAHDIM_clean_sbu_0, # of connection points: 4
#     Node 30, Type 0, BuildingBlock: NAHDIM_clean_sbu_0, # of connection points: 4
#     Node 31, Type 0, BuildingBlock: NAHDIM_clean_sbu_0, # of connection points: 4
#     Node 32, Type 0, BuildingBlock: NAHDIM_clean_sbu_0, # of connection points: 4
#     Node 33, Type 0, BuildingBlock: NAHDIM_clean_sbu_0, # of connection points: 4
#     Node 34, Type 0, BuildingBlock: NAHDIM_clean_sbu_0, # of connection points: 4
#     Node 35, Type 0, BuildingBlock: NAHDIM_clean_sbu_0, # of connection points: 4
#     Edge 36, Type (0, 0), BuildingBlock: ZUJKAS_clean_linker_0, # of connection points: 2
#     Edge 37, Type (0, 0), BuildingBlock: ZUJKAS_clean_linker_0, # of connection points: 2
#     Edge 38, Type (0, 0), BuildingBlock: ZUJKAS_clean_linker_0, # of connection points: 2
#     Edge 39, Type (0, 0), BuildingBlock: ZUJKAS_clean_linker_0, # of connection points: 2
#     Edge 40, Type (0, 0), BuildingBlock: ZUJKAS_clean_linker_0, # of connection points: 2
#     Edge 41, Type (0, 0), BuildingBlock: ZUJKAS_clean_linker_0, # of connection points: 2
#     Edge 42, Type (0, 0), BuildingBlock: ZUJKAS_clean_linker_0, # of connection points: 2
#     Edge 43, Type (0, 0), BuildingBlock: ZUJKAS_clean_linker_0, # of connection points: 2
#     Edge 44, Type (0, 0), BuildingBlock: ZUJKAS_clean_linker_0, # of connection points: 2
#     Edge 45, Type (0, 0), BuildingBlock: ZUJKAS_clean_linker_0, # of connection points: 2
#     Edge 46, Type (0, 0), BuildingBlock: ZUJKAS_clean_linker_0, # of connection points: 2
#     Edge 47, Type (0, 0), BuildingBlock: ZUJKAS_clean_linker_0, # of connection points: 2
#     Edge 48, Type (0, 0), BuildingBlock: ZUJKAS_clean_linker_0, # of connection points: 2
#     Edge 49, Type (0, 0), BuildingBlock: ZUJKAS_clean_linker_0, # of connection points: 2
#     Edge 50, Type (0, 0), BuildingBlock: ZUJKAS_clean_linker_0, # of connection points: 2
#     Edge 51, Type (0, 0), BuildingBlock: ZUJKAS_clean_linker_0, # of connection points: 2
#     Edge 52, Type (0, 0), BuildingBlock: ZUJKAS_clean_linker_0, # of connection points: 2
#     Edge 53, Type (0, 0), BuildingBlock: ZUJKAS_clean_linker_0, # of connection points: 2
#     Edge 54, Type (0, 0), BuildingBlock: ZUJKAS_clean_linker_0, # of connection points: 2
#     Edge 55, Type (0, 0), BuildingBlock: ZUJKAS_clean_linker_0, # of connection points: 2
#     Edge 56, Type (0, 0), BuildingBlock: ZUJKAS_clean_linker_0, # of connection points: 2
#     Edge 57, Type (0, 0), BuildingBlock: ZUJKAS_clean_linker_0, # of connection points: 2
#     Edge 58, Type (0, 0), BuildingBlock: ZUJKAS_clean_linker_0, # of connection points: 2
#     Edge 59, Type (0, 0), BuildingBlock: ZUJKAS_clean_linker_0, # of connection points: 2
#     Edge 60, Type (0, 0), BuildingBlock: ZUJKAS_clean_linker_0, # of connection points: 2
#     Edge 61, Type (0, 0), BuildingBlock: ZUJKAS_clean_linker_0, # of connection points: 2
#     Edge 62, Type (0, 0), BuildingBlock: ZUJKAS_clean_linker_0, # of connection points: 2
#     Edge 63, Type (0, 0), BuildingBlock: ZUJKAS_clean_linker_0, # of connection points: 2
#     Edge 64, Type (0, 0), BuildingBlock: ZUJKAS_clean_linker_0, # of connection points: 2
#     Edge 65, Type (0, 0), BuildingBlock: ZUJKAS_clean_linker_0, # of connection points: 2
#     Edge 66, Type (0, 0), BuildingBlock: ZUJKAS_clean_linker_0, # of connection points: 2
#     Edge 67, Type (0, 0), BuildingBlock: ZUJKAS_clean_linker_0, # of connection points: 2
#     Edge 68, Type (0, 0), BuildingBlock: ZUJKAS_clean_linker_0, # of connection points: 2
#     Edge 69, Type (0, 0), BuildingBlock: ZUJKAS_clean_linker_0, # of connection points: 2
#     Edge 70, Type (0, 0), BuildingBlock: ZUJKAS_clean_linker_0, # of connection points: 2
#     Edge 71, Type (0, 0), BuildingBlock: ZUJKAS_clean_linker_0, # of connection points: 2
#     Edge 72, Type (0, 0), BuildingBlock: ZUJKAS_clean_linker_0, # of connection points: 2
#     Edge 73, Type (0, 0), BuildingBlock: ZUJKAS_clean_linker_0, # of connection points: 2
#     Edge 74, Type (0, 0), BuildingBlock: ZUJKAS_clean_linker_0, # of connection points: 2
#     Edge 75, Type (0, 0), BuildingBlock: ZUJKAS_clean_linker_0, # of connection points: 2
#     Edge 76, Type (0, 0), BuildingBlock: ZUJKAS_clean_linker_0, # of connection points: 2
#     Edge 77, Type (0, 0), BuildingBlock: ZUJKAS_clean_linker_0, # of connection points: 2
#     Edge 78, Type (0, 0), BuildingBlock: ZUJKAS_clean_linker_0, # of connection points: 2
#     Edge 79, Type (0, 0), BuildingBlock: ZUJKAS_clean_linker_0, # of connection points: 2
#     Edge 80, Type (0, 0), BuildingBlock: ZUJKAS_clean_linker_0, # of connection points: 2
#     Edge 81, Type (0, 0), BuildingBlock: ZUJKAS_clean_linker_0, # of connection points: 2
#     Edge 82, Type (0, 0), BuildingBlock: ZUJKAS_clean_linker_0, # of connection points: 2
#     Edge 83, Type (0, 0), BuildingBlock: ZUJKAS_clean_linker_0, # of connection points: 2
#     Edge 84, Type (0, 0), BuildingBlock: ZUJKAS_clean_linker_0, # of connection points: 2
#     Edge 85, Type (0, 0), BuildingBlock: ZUJKAS_clean_linker_0, # of connection points: 2
#     Edge 86, Type (0, 0), BuildingBlock: ZUJKAS_clean_linker_0, # of connection points: 2
#     Edge 87, Type (0, 0), BuildingBlock: ZUJKAS_clean_linker_0, # of connection points: 2
#     Edge 88, Type (0, 0), BuildingBlock: ZUJKAS_clean_linker_0, # of connection points: 2
#     Edge 89, Type (0, 0), BuildingBlock: ZUJKAS_clean_linker_0, # of connection points: 2
#     Edge 90, Type (0, 0), BuildingBlock: ZUJKAS_clean_linker_0, # of connection points: 2
#     Edge 91, Type (0, 0), BuildingBlock: ZUJKAS_clean_linker_0, # of connection points: 2
#     Edge 92, Type (0, 0), BuildingBlock: ZUJKAS_clean_linker_0, # of connection points: 2
#     Edge 93, Type (0, 0), BuildingBlock: ZUJKAS_clean_linker_0, # of connection points: 2
#     Edge 94, Type (0, 0), BuildingBlock: ZUJKAS_clean_linker_0, # of connection points: 2
#     Edge 95, Type (0, 0), BuildingBlock: ZUJKAS_clean_linker_0, # of connection points: 2
#     Edge 96, Type (0, 0), BuildingBlock: ZUJKAS_clean_linker_0, # of connection points: 2
#     Edge 97, Type (0, 0), BuildingBlock: ZUJKAS_clean_linker_0, # of connection points: 2
#     Edge 98, Type (0, 0), BuildingBlock: ZUJKAS_clean_linker_0, # of connection points: 2
#     Edge 99, Type (0, 0), BuildingBlock: ZUJKAS_clean_linker_0, # of connection points: 2
#     Edge 100, Type (0, 0), BuildingBlock: ZUJKAS_clean_linker_0, # of connection points: 2
#     Edge 101, Type (0, 0), BuildingBlock: ZUJKAS_clean_linker_0, # of connection points: 2
#     Edge 102, Type (0, 0), BuildingBlock: ZUJKAS_clean_linker_0, # of connection points: 2
#     Edge 103, Type (0, 0), BuildingBlock: ZUJKAS_clean_linker_0, # of connection points: 2
#     Edge 104, Type (0, 0), BuildingBlock: ZUJKAS_clean_linker_0, # of connection points: 2
#     Edge 105, Type (0, 0), BuildingBlock: ZUJKAS_clean_linker_0, # of connection points: 2
#     Edge 106, Type (0, 0), BuildingBlock: ZUJKAS_clean_linker_0, # of connection points: 2
#     Edge 107, Type (0, 0), BuildingBlock: ZUJKAS_clean_linker_0, # of connection points: 2
# Relax obj value: 0.060
# Max RMSD: 0.066
# Mean RMSD: 0.066
data_MOF--net-ato--node1-NAHDIM_clean_sbu_0--edge1-ZUJKAS_clean_linker_0
_symmetry_space_group_name_H-M    P1
_symmetry_Int_Tables_number       1
_symmetry_cell_setting            triclinic
loop_
_symmetry_equiv_pos_as_xyz
'x, y, z'
_cell_length_a     130.78637
_cell_length_b     130.79604
_cell_length_c     31.460398
_cell_angle_alpha  90.003384
_cell_angle_beta   89.999548
_cell_angle_gamma 119.99093
loop_
_atom_site_label
_atom_site_type_symbol
_atom_site_fract_x
_atom_site_fract_y
_atom_site_fract_z
_atom_type_partial_charge
C0 C 0.23578 0.03628 0.31644 0.0
O1 O 0.22812 0.03771 0.29397 0.0
O2 O 0.24564 0.0633 0.25677 0.0
Zn3 Zn 0.25048 0.05097 0.25091 0.0
O4 O 0.24163 0.04003 0.20298 0.0
C5 C 0.27397 0.06987 0.23116 0.0
O6 O 0.26884 0.07627 0.2343 0.0
O7 O 0.24649 0.04139 0.30445 0.0
C8 C 0.24277 0.04379 0.16508 0.0
O9 O 0.24982 0.05507 0.15737 0.0
C10 C 0.23625 0.06246 0.2415 0.0
O11 O 0.22871 0.05278 0.22141 0.0
O12 O 0.26793 0.05881 0.23785 0.0
C13 C 0.96303 0.19949 0.30908 0.0
O14 O 0.96228 0.19062 0.28691 0.0
O15 O 0.93687 0.18227 0.24401 0.0
Zn16 Zn 0.94892 0.19947 0.24074 0.0
O17 O 0.96046 0.20207 0.19394 0.0
C18 C 0.93084 0.20588 0.24676 0.0
O19 O 0.92643 0.19733 0.27499 0.0
O20 O 0.95777 0.2048 0.29569 0.0
C21 C 0.96118 0.20797 0.16087 0.0
O22 O 0.95416 0.2124 0.1569 0.0
C23 C 0.93108 0.17714 0.21071 0.0
O24 O 0.93337 0.18322 0.17527 0.0
O25 O 0.94055 0.20852 0.22876 0.0
C26 C 0.80385 0.7641 0.31414 0.0
O27 O 0.81306 0.77197 0.29268 0.0
O28 O 0.82043 0.75567 0.24628 0.0
Zn29 Zn 0.80308 0.75015 0.24418 0.0
O30 O 0.79948 0.75841 0.19798 0.0
C31 C 0.79687 0.72929 0.19812 0.0
O32 O 0.80553 0.73707 0.17431 0.0
O33 O 0.79796 0.75365 0.29974 0.0
C34 C 0.7888 0.75578 0.19325 0.0
O35 O 0.78074 0.74795 0.2188 0.0
C36 C 0.82813 0.76442 0.2251 0.0
O37 O 0.82479 0.77031 0.20038 0.0
O38 O 0.7941 0.73278 0.2316 0.0
C39 C 0.03435 0.23637 0.68637 0.0
O40 O 0.0314 0.22895 0.71828 0.0
O41 O 0.06547 0.24608 0.73919 0.0
Zn42 Zn 0.05308 0.2508 0.74336 0.0
O43 O 0.04227 0.24263 0.79257 0.0
C44 C 0.06983 0.27291 0.77908 0.0
O45 O 0.07342 0.26612 0.79648 0.0
O46 O 0.04352 0.24651 0.68955 0.0
C47 C 0.0456 0.24016 0.82707 0.0
O48 O 0.05667 0.24287 0.83141 0.0
C49 C 0.06333 0.23548 0.73858 0.0
O50 O 0.05234 0.22679 0.73989 0.0
O51 O 0.06109 0.26833 0.75377 0.0
C52 C 0.76505 0.80057 0.68126 0.0
O53 O 0.77237 0.81022 0.70194 0.0
O54 O 0.75442 0.81696 0.7408 0.0
Zn55 Zn 0.74938 0.79974 0.74591 0.0
O56 O 0.75653 0.79679 0.79753 0.0
C57 C 0.72583 0.79507 0.76426 0.0
O58 O 0.73141 0.8065 0.7711 0.0
O59 O 0.75447 0.79448 0.69417 0.0
C60 C 0.75373 0.79852 0.8344 0.0
O61 O 0.74643 0.80263 0.83811 0.0
C62 C 0.76315 0.82525 0.76021 0.0
O63 O 0.76981 0.82278 0.78443 0.0
O64 O 0.73167 0.7902 0.75226 0.0
C65 C 0.19311 0.96019 0.68059 0.0
O66 O 0.18351 0.95869 0.69957 0.0
O67 O 0.17698 0.93476 0.75235 0.0
Zn68 Zn 0.19391 0.94779 0.75398 0.0
O69 O 0.1963 0.95981 0.79801 0.0
C70 C 0.20225 0.93132 0.75113 0.0
O71 O 0.19412 0.92659 0.72147 0.0
O72 O 0.19901 0.95597 0.69762 0.0
C73 C 0.19445 0.95702 0.83704 0.0
O74 O 0.19056 0.946 0.84819 0.0
C75 C 0.16823 0.93576 0.76418 0.0
O76 O 0.16999 0.94601 0.7778 0.0
O77 O 0.20394 0.94071 0.76939 0.0
C78 C 0.76507 0.96133 0.68632 0.0
O79 O 0.77259 0.95934 0.70729 0.0
O80 O 0.75416 0.93424 0.74766 0.0
Zn81 Zn 0.74989 0.94695 0.75264 0.0
O82 O 0.75807 0.95749 0.80237 0.0
C83 C 0.72836 0.93555 0.79907 0.0
O84 O 0.73578 0.93708 0.82987 0.0
O85 O 0.75451 0.95675 0.69961 0.0
C86 C 0.75613 0.9659 0.80995 0.0
O87 O 0.74912 0.96754 0.78444 0.0
C88 C 0.76238 0.93414 0.76892 0.0
O89 O 0.76871 0.94286 0.79516 0.0
O90 O 0.73236 0.93917 0.76193 0.0
C91 C 0.03272 0.79493 0.69471 0.0
O92 O 0.02871 0.79745 0.72906 0.0
O93 O 0.06396 0.81629 0.75141 0.0
Zn94 Zn 0.05164 0.79911 0.75109 0.0
O95 O 0.04068 0.79532 0.80067 0.0
C96 C 0.07021 0.79328 0.746 0.0
O97 O 0.07593 0.80356 0.72681 0.0
O98 O 0.04249 0.79506 0.69638 0.0
C99 C 0.04423 0.8004 0.83642 0.0
O100 O 0.05535 0.80858 0.84105 0.0
C101 C 0.06176 0.82467 0.75498 0.0
O102 O 0.05076 0.82224 0.75848 0.0
O103 O 0.05963 0.78948 0.75791 0.0
C104 C 0.20002 0.23359 0.69335 0.0
O105 O 0.19552 0.22609 0.72502 0.0
O106 O 0.17967 0.24413 0.75004 0.0
Zn107 Zn 0.19663 0.24823 0.75213 0.0
O108 O 0.19909 0.23959 0.79992 0.0
C109 C 0.2041 0.27285 0.74543 0.0
O110 O 0.19504 0.26879 0.71944 0.0
O111 O 0.20132 0.24384 0.6973 0.0
C112 C 0.19411 0.23812 0.83583 0.0
O113 O 0.18704 0.24239 0.84233 0.0
C114 C 0.17097 0.23367 0.74805 0.0
O115 O 0.17291 0.22474 0.7469 0.0
O116 O 0.20667 0.26564 0.76276 0.0
C117 C 0.96472 0.76475 0.30944 0.0
O118 O 0.96765 0.77249 0.27858 0.0
O119 O 0.93518 0.7566 0.25249 0.0
Zn120 Zn 0.94673 0.75077 0.25003 0.0
O121 O 0.95814 0.75849 0.20194 0.0
C122 C 0.93327 0.72965 0.20325 0.0
O123 O 0.93478 0.73745 0.17396 0.0
O124 O 0.95577 0.75452 0.30478 0.0
C125 C 0.96429 0.75405 0.18926 0.0
O126 O 0.96299 0.74447 0.20784 0.0
C127 C 0.93675 0.76592 0.23406 0.0
O128 O 0.94653 0.77239 0.21258 0.0
O129 O 0.93767 0.73325 0.23995 0.0
C130 C 0.23439 0.19696 0.31553 0.0
O131 O 0.22618 0.18845 0.2924 0.0
O132 O 0.24445 0.17978 0.25195 0.0
Zn133 Zn 0.24842 0.19668 0.24766 0.0
O134 O 0.23877 0.19862 0.2024 0.0
C135 C 0.27318 0.20536 0.25439 0.0
O136 O 0.26962 0.19797 0.28657 0.0
O137 O 0.24504 0.20195 0.30296 0.0
C138 C 0.24051 0.19761 0.16332 0.0
O139 O 0.2487 0.19507 0.15249 0.0
C140 C 0.23499 0.17106 0.23795 0.0
O141 O 0.22701 0.17289 0.21977 0.0
O142 O 0.26559 0.20653 0.23301 0.0
C143 C 0.80196 0.03782 0.32232 0.0
O144 O 0.81162 0.04014 0.30167 0.0
O145 O 0.81754 0.06417 0.2582 0.0
Zn146 Zn 0.8006 0.05124 0.25409 0.0
O147 O 0.79837 0.04043 0.20544 0.0
C148 C 0.7934 0.06496 0.20854 0.0
O149 O 0.80219 0.06605 0.18501 0.0
O150 O 0.79558 0.04185 0.30807 0.0
C151 C 0.7879 0.03277 0.19508 0.0
O152 O 0.77905 0.03202 0.21731 0.0
C153 C 0.82564 0.0647 0.23438 0.0
O154 O 0.82308 0.05625 0.20663 0.0
O155 O 0.79075 0.05875 0.24215 0.0
C156 C 0.89879 0.37078 0.65683 0.0
O157 O 0.8921 0.37464 0.64049 0.0
O158 O 0.90827 0.39492 0.58587 0.0
Zn159 Zn 0.91285 0.38237 0.58377 0.0
O160 O 0.90488 0.37133 0.53505 0.0
C161 C 0.93447 0.3947 0.53872 0.0
O162 O 0.92709 0.39373 0.5085 0.0
O163 O 0.90832 0.37312 0.63809 0.0
C164 C 0.90763 0.36351 0.52671 0.0
O165 O 0.91537 0.3627 0.55095 0.0
C166 C 0.90309 0.39682 0.55527 0.0
O167 O 0.90034 0.39022 0.52103 0.0
O168 O 0.93039 0.39035 0.5751 0.0
C169 C 0.62563 0.52696 0.65894 0.0
O170 O 0.62371 0.51754 0.63752 0.0
O171 O 0.60001 0.51176 0.591 0.0
Zn172 Zn 0.61262 0.52887 0.58981 0.0
O173 O 0.62396 0.53207 0.5419 0.0
C174 C 0.59954 0.53733 0.54551 0.0
O175 O 0.59942 0.52984 0.51741 0.0
O176 O 0.62149 0.53326 0.64489 0.0
C177 C 0.63425 0.54105 0.54333 0.0
O178 O 0.63735 0.54805 0.5766 0.0
C179 C 0.59987 0.504 0.56631 0.0
O180 O 0.60844 0.50707 0.53864 0.0
O181 O 0.60486 0.5386 0.5806 0.0
C182 C 0.46744 0.08595 0.66521 0.0
O183 O 0.47645 0.08412 0.66587 0.0
O184 O 0.48425 0.0865 0.57435 0.0
Zn185 Zn 0.46701 0.08141 0.57445 0.0
O186 O 0.46348 0.08993 0.52878 0.0
C187 C 0.4574 0.05995 0.52665 0.0
O188 O 0.46306 0.06741 0.49572 0.0
O189 O 0.46221 0.08512 0.63028 0.0
C190 C 0.47011 0.09468 0.49676 0.0
O191 O 0.47978 0.09406 0.49262 0.0
C192 C 0.49239 0.0969 0.58321 0.0
O193 O 0.4896 0.10493 0.59353 0.0
O194 O 0.45772 0.06392 0.56379 0.0
C195 C 0.70095 0.5664 0.0259 0.0
O196 O 0.70345 0.55927 0.04703 0.0
O197 O 0.72839 0.57829 0.08522 0.0
Zn198 Zn 0.71553 0.58237 0.09033 0.0
O199 O 0.70564 0.57464 0.14184 0.0
C200 C 0.73231 0.60702 0.0772 0.0
O201 O 0.73671 0.6028 0.04926 0.0
O202 O 0.70525 0.577 0.03843 0.0
C203 C 0.70984 0.57869 0.17838 0.0
O204 O 0.72064 0.58769 0.18143 0.0
C205 C 0.72801 0.56934 0.10268 0.0
O206 O 0.71868 0.56208 0.125 0.0
O207 O 0.72307 0.59992 0.0976 0.0
C208 C 0.43317 0.13033 0.02176 0.0
O209 O 0.44062 0.1361 0.05263 0.0
O210 O 0.42336 0.15194 0.06605 0.0
Zn211 Zn 0.41827 0.13484 0.0747 0.0
O212 O 0.42652 0.13309 0.1255 0.0
C213 C 0.39509 0.13045 0.0974 0.0
O214 O 0.40082 0.14197 0.10243 0.0
O215 O 0.42275 0.1287 0.02366 0.0
C216 C 0.42383 0.13404 0.1635 0.0
O217 O 0.41528 0.13633 0.17063 0.0
C218 C 0.4333 0.16028 0.07849 0.0
O219 O 0.44079 0.15776 0.09683 0.0
O220 O 0.4007 0.12539 0.08489 0.0
C221 C 0.86039 0.29452 0.02133 0.0
O222 O 0.85199 0.29375 0.04636 0.0
O223 O 0.84244 0.26612 0.076 0.0
Zn224 Zn 0.85966 0.27814 0.08164 0.0
O225 O 0.86251 0.28834 0.13283 0.0
C226 C 0.86577 0.26273 0.12172 0.0
O227 O 0.85692 0.26133 0.1456 0.0
O228 O 0.86521 0.2884 0.02981 0.0
C229 C 0.87312 0.29578 0.14236 0.0
O230 O 0.88167 0.29664 0.11795 0.0
C231 C 0.83449 0.26625 0.09888 0.0
O232 O 0.83749 0.27469 0.12703 0.0
O233 O 0.86877 0.26968 0.09008 0.0
C234 C 0.43005 0.29509 0.02014 0.0
O235 O 0.43813 0.2966 0.04816 0.0
O236 O 0.42111 0.26545 0.07212 0.0
Zn237 Zn 0.41565 0.27721 0.07912 0.0
O238 O 0.42358 0.28778 0.12903 0.0
C239 C 0.39462 0.2623 0.12367 0.0
O240 O 0.40238 0.26162 0.14826 0.0
O241 O 0.41942 0.28707 0.02644 0.0
C242 C 0.42007 0.29488 0.13963 0.0
O243 O 0.41162 0.29501 0.11746 0.0
C244 C 0.43088 0.26706 0.08658 0.0
O245 O 0.43789 0.27686 0.10707 0.0
O246 O 0.3982 0.26855 0.0902 0.0
C247 C 0.69606 0.12927 0.02959 0.0
O248 O 0.69429 0.13503 0.06021 0.0
O249 O 0.72702 0.14858 0.08327 0.0
Zn250 Zn 0.71388 0.13177 0.08729 0.0
O251 O 0.70326 0.13001 0.13595 0.0
C252 C 0.72995 0.12299 0.07805 0.0
O253 O 0.73439 0.13111 0.04829 0.0
O254 O 0.7043 0.12686 0.03354 0.0
C255 C 0.70723 0.1333 0.1733 0.0
O256 O 0.71861 0.13805 0.18028 0.0
C257 C 0.7256 0.15738 0.08977 0.0
O258 O 0.71502 0.15559 0.09884 0.0
O259 O 0.72092 0.12147 0.09847 0.0
C260 C 0.86292 0.56774 0.01334 0.0
O261 O 0.85442 0.55989 0.03748 0.0
O262 O 0.84537 0.57815 0.07231 0.0
Zn263 Zn 0.86254 0.58296 0.07685 0.0
O264 O 0.86539 0.57485 0.12582 0.0
C265 C 0.8675 0.60559 0.1075 0.0
O266 O 0.85669 0.59924 0.12208 0.0
O267 O 0.86784 0.57858 0.02348 0.0
C268 C 0.86171 0.57474 0.16329 0.0
O269 O 0.85552 0.57994 0.1709 0.0
C270 C 0.83682 0.56861 0.08668 0.0
O271 O 0.83893 0.56084 0.10505 0.0
O272 O 0.87201 0.60055 0.08626 0.0
C273 C 0.61743 0.0897 0.67211 0.0
O274 O 0.60905 0.09242 0.66983 0.0
O275 O 0.59884 0.08743 0.58772 0.0
Zn276 Zn 0.61095 0.08228 0.58444 0.0
O277 O 0.62306 0.09155 0.53992 0.0
C278 C 0.59354 0.06032 0.54718 0.0
O279 O 0.58894 0.0668 0.53539 0.0
O280 O 0.6195 0.08508 0.6401 0.0
C281 C 0.62033 0.09201 0.50152 0.0
O282 O 0.60916 0.08643 0.49032 0.0
C283 C 0.60093 0.0978 0.57916 0.0
O284 O 0.61162 0.10588 0.56765 0.0
O285 O 0.60297 0.06503 0.56909 0.0
C286 C 0.90083 0.52936 0.64892 0.0
O287 O 0.89333 0.51933 0.63067 0.0
O288 O 0.90928 0.51333 0.58019 0.0
Zn289 Zn 0.91448 0.53064 0.57665 0.0
O290 O 0.9059 0.53391 0.53034 0.0
C291 C 0.93697 0.53518 0.54484 0.0
O292 O 0.93055 0.5243 0.53103 0.0
O293 O 0.91083 0.53584 0.63172 0.0
C294 C 0.9086 0.53439 0.49132 0.0
O295 O 0.91716 0.53244 0.48026 0.0
C296 C 0.9019 0.50547 0.55517 0.0
O297 O 0.89691 0.50846 0.52521 0.0
O298 O 0.93202 0.53986 0.56563 0.0
C299 C 0.46507 0.36665 0.6435 0.0
O300 O 0.47329 0.36676 0.61912 0.0
O301 O 0.48326 0.3941 0.58435 0.0
Zn302 Zn 0.46597 0.38219 0.57906 0.0
O303 O 0.46292 0.37108 0.53034 0.0
C304 C 0.46208 0.401 0.55231 0.0
O305 O 0.47339 0.40607 0.54345 0.0
O306 O 0.46043 0.37279 0.63285 0.0
C307 C 0.46389 0.37461 0.49214 0.0
O308 O 0.46726 0.38573 0.4847 0.0
C309 C 0.49147 0.39392 0.56335 0.0
O310 O 0.48889 0.38519 0.5369 0.0
O311 O 0.45692 0.39073 0.56864 0.0
C312 C 0.56601 0.69722 0.96259 0.0
O313 O 0.55863 0.69406 0.93042 0.0
O314 O 0.57625 0.72861 0.90844 0.0
Zn315 Zn 0.58057 0.7159 0.90533 0.0
O316 O 0.57261 0.70512 0.85578 0.0
C317 C 0.60226 0.73085 0.86471 0.0
O318 O 0.59507 0.73284 0.84155 0.0
O319 O 0.57609 0.70644 0.95937 0.0
C320 C 0.56775 0.7075 0.82536 0.0
O321 O 0.56759 0.71746 0.82583 0.0
C322 C 0.56627 0.72707 0.92007 0.0
O323 O 0.55794 0.7165 0.93155 0.0
O324 O 0.59806 0.72367 0.89566 0.0
C325 C 0.29663 0.86729 0.96847 0.0
O326 O 0.29954 0.86344 0.9346 0.0
O327 O 0.26474 0.84537 0.91855 0.0
Zn328 Zn 0.2771 0.86251 0.91523 0.0
O329 O 0.28767 0.86541 0.86503 0.0
C330 C 0.26149 0.86869 0.87667 0.0
O331 O 0.2592 0.85924 0.85471 0.0
O332 O 0.28709 0.86765 0.96823 0.0
C333 C 0.28511 0.85869 0.83288 0.0
O334 O 0.27475 0.84902 0.83084 0.0
C335 C 0.267 0.83712 0.92535 0.0
O336 O 0.27797 0.83974 0.93161 0.0
O337 O 0.26906 0.87204 0.90643 0.0
C338 C 0.13252 0.43362 0.973 0.0
O339 O 0.13842 0.44119 0.94259 0.0
O340 O 0.15363 0.4235 0.92561 0.0
Zn341 Zn 0.13656 0.41869 0.91843 0.0
O342 O 0.13456 0.42693 0.86811 0.0
C343 C 0.13199 0.39577 0.89205 0.0
O344 O 0.14332 0.40178 0.8833 0.0
O345 O 0.13067 0.42314 0.97021 0.0
C346 C 0.13747 0.42579 0.83066 0.0
O347 O 0.14214 0.41906 0.82414 0.0
C348 C 0.1622 0.43362 0.91611 0.0
O349 O 0.16005 0.44181 0.90199 0.0
O350 O 0.12704 0.40112 0.90821 0.0
C351 C 0.37486 0.90613 0.32763 0.0
O352 O 0.38509 0.90653 0.32601 0.0
O353 O 0.39302 0.9072 0.41245 0.0
Zn354 Zn 0.38082 0.91227 0.41648 0.0
O355 O 0.36934 0.90368 0.46381 0.0
C356 C 0.39874 0.93509 0.44641 0.0
O357 O 0.4034 0.9289 0.46086 0.0
O358 O 0.37147 0.90838 0.36245 0.0
C359 C 0.37076 0.90771 0.5014 0.0
O360 O 0.38017 0.91786 0.51044 0.0
C361 C 0.39482 0.90161 0.4418 0.0
O362 O 0.38824 0.89855 0.47613 0.0
O363 O 0.38902 0.92986 0.42628 0.0
C364 C 0.08774 0.46768 0.32931 0.0
O365 O 0.08735 0.47752 0.33026 0.0
O366 O 0.0862 0.48306 0.42009 0.0
Zn367 Zn 0.08146 0.46591 0.41899 0.0
O368 O 0.09024 0.46254 0.46394 0.0
C369 C 0.05929 0.45963 0.45751 0.0
O370 O 0.06594 0.46959 0.47774 0.0
O371 O 0.08538 0.46146 0.36277 0.0
C372 C 0.09269 0.46751 0.50014 0.0
O373 O 0.08941 0.47526 0.50913 0.0
C374 C 0.09684 0.49142 0.41874 0.0
O375 O 0.10539 0.48892 0.41589 0.0
O376 O 0.06401 0.45613 0.43012 0.0
C377 C 0.52949 0.62755 0.34392 0.0
O378 O 0.52144 0.62776 0.36824 0.0
O379 O 0.51178 0.59925 0.40505 0.0
Zn380 Zn 0.52868 0.61216 0.40946 0.0
O381 O 0.5305 0.62323 0.45662 0.0
C382 C 0.53673 0.59895 0.45623 0.0
O383 O 0.52844 0.59802 0.48216 0.0
O384 O 0.53394 0.62126 0.35493 0.0
C385 C 0.5408 0.63082 0.46888 0.0
O386 O 0.54998 0.63115 0.45048 0.0
C387 C 0.50319 0.60032 0.41841 0.0
O388 O 0.50528 0.61038 0.4352 0.0
O389 O 0.53863 0.6048 0.42204 0.0
C390 C 0.09828 0.62969 0.36097 0.0
O391 O 0.10561 0.63323 0.39333 0.0
O392 O 0.08818 0.59887 0.42024 0.0
Zn393 Zn 0.08374 0.61151 0.42003 0.0
O394 O 0.09176 0.62299 0.46791 0.0
C395 C 0.06186 0.59912 0.46417 0.0
O396 O 0.06903 0.59982 0.49471 0.0
O397 O 0.08828 0.62038 0.36465 0.0
C398 C 0.09609 0.62079 0.50045 0.0
O399 O 0.09538 0.61045 0.50402 0.0
C400 C 0.09854 0.60063 0.41426 0.0
O401 O 0.10722 0.61138 0.4068 0.0
O402 O 0.06616 0.60365 0.42819 0.0
C403 C 0.36317 0.4629 0.36233 0.0
O404 O 0.36159 0.46881 0.39289 0.0
O405 O 0.39451 0.48292 0.41187 0.0
Zn406 Zn 0.38164 0.46606 0.41789 0.0
O407 O 0.37144 0.46446 0.46777 0.0
C408 C 0.39931 0.4591 0.41545 0.0
O409 O 0.405 0.46878 0.39274 0.0
O410 O 0.37156 0.46068 0.36543 0.0
C411 C 0.37573 0.4679 0.50466 0.0
O412 O 0.38717 0.47271 0.51034 0.0
C413 C 0.39342 0.49177 0.42143 0.0
O414 O 0.38321 0.49007 0.43525 0.0
O415 O 0.38899 0.45598 0.42874 0.0
C416 C 0.52745 0.9026 0.34093 0.0
O417 O 0.51616 0.8975 0.35017 0.0
O418 O 0.51281 0.90994 0.41815 0.0
Zn419 Zn 0.52996 0.91447 0.42077 0.0
O420 O 0.53279 0.90592 0.4682 0.0
C421 C 0.53665 0.939 0.41542 0.0
O422 O 0.5272 0.93476 0.39127 0.0
O423 O 0.53494 0.91028 0.36617 0.0
C424 C 0.53529 0.91027 0.50539 0.0
O425 O 0.53581 0.9204 0.51283 0.0
C426 C 0.50535 0.90418 0.44712 0.0
O427 O 0.50874 0.90071 0.48078 0.0
O428 O 0.53972 0.93196 0.43092 0.0
C429 C 0.28466 0.42124 0.00486 0.0
O430 O 0.27506 0.42207 0.00392 0.0
O431 O 0.26761 0.42083 0.9175 0.0
Zn432 Zn 0.27997 0.41603 0.91478 0.0
O433 O 0.2923 0.42581 0.87162 0.0
C434 C 0.26336 0.39458 0.87327 0.0
O435 O 0.25925 0.40136 0.85998 0.0
O436 O 0.28811 0.41854 0.97112 0.0
C437 C 0.28974 0.42773 0.83463 0.0
O438 O 0.27861 0.4233 0.82398 0.0
C439 C 0.26974 0.43141 0.91494 0.0
O440 O 0.2807 0.44002 0.91079 0.0
O441 O 0.27229 0.39891 0.89775 0.0
C442 C 0.56603 0.86463 0.97738 0.0
O443 O 0.55911 0.86067 0.94393 0.0
O444 O 0.57696 0.84452 0.92024 0.0
Zn445 Zn 0.58146 0.86164 0.92117 0.0
O446 O 0.57411 0.86556 0.87237 0.0
C447 C 0.60348 0.87187 0.87851 0.0
O448 O 0.59637 0.86595 0.84702 0.0
O449 O 0.57625 0.86572 0.97563 0.0
C450 C 0.56924 0.85902 0.84025 0.0
O451 O 0.56873 0.84875 0.83748 0.0
C452 C 0.56682 0.836 0.92982 0.0
O453 O 0.55844 0.83818 0.94132 0.0
O454 O 0.59911 0.87143 0.91501 0.0
C455 C 0.13434 0.70066 0.98294 0.0
O456 O 0.14327 0.70142 0.96122 0.0
O457 O 0.15283 0.72759 0.9247 0.0
Zn458 Zn 0.13563 0.7157 0.91643 0.0
O459 O 0.13351 0.70446 0.86919 0.0
C460 C 0.13203 0.73426 0.88465 0.0
O461 O 0.14342 0.73923 0.87733 0.0
O462 O 0.12934 0.70627 0.96996 0.0
C463 C 0.13411 0.70736 0.83034 0.0
O464 O 0.13634 0.71804 0.8206 0.0
C465 C 0.16121 0.72678 0.90767 0.0
O466 O 0.15878 0.71762 0.88369 0.0
O467 O 0.12669 0.72412 0.90198 0.0
H468 H 0.21388 0.96713 0.63863 0.0
H469 H 0.22156 0.98016 0.57684 0.0
H470 H 0.18978 0.98241 0.57205 0.0
H471 H 0.18213 0.96958 0.63427 0.0
H472 H 0.21271 0.97785 0.49549 0.0
H473 H 0.21557 0.01696 0.57581 0.0
H474 H 0.2133 0.00406 0.6046 0.0
H475 H 0.20114 0.00412 0.57817 0.0
C476 C 0.20851 0.97037 0.62439 0.0
C477 C 0.19744 0.96741 0.64158 0.0
C478 C 0.21291 0.97782 0.58911 0.0
C479 C 0.20634 0.98243 0.57047 0.0
C480 C 0.19512 0.97917 0.58666 0.0
H481 H 0.2141 0.02594 0.35402 0.0
H482 H 0.20742 0.01286 0.4158 0.0
C483 C 0.19073 0.97178 0.62204 0.0
C484 C 0.2112 0.99064 0.53403 0.0
H485 H 0.21843 0.0183 0.50085 0.0
C486 C 0.21405 0.98673 0.49672 0.0
C487 C 0.21298 0.00223 0.5359 0.0
C488 C 0.2107 0.00715 0.57589 0.0
C489 C 0.21834 0.99401 0.46074 0.0
C490 C 0.21989 0.00549 0.46241 0.0
C491 C 0.21717 0.00946 0.4998 0.0
C492 C 0.22408 0.01345 0.42528 0.0
C493 C 0.22092 0.9893 0.42085 0.0
C494 C 0.23571 0.0182 0.41067 0.0
C495 C 0.23959 0.02574 0.37549 0.0
C496 C 0.23187 0.02859 0.35438 0.0
C497 C 0.22025 0.02388 0.36946 0.0
C498 C 0.21642 0.01642 0.40474 0.0
H499 H 0.21733 0.9796 0.4224 0.0
H500 H 0.21714 0.99132 0.39264 0.0
H501 H 0.23062 0.99364 0.41629 0.0
H502 H 0.24178 0.0161 0.42656 0.0
H503 H 0.2486 0.02924 0.36467 0.0
H504 H 0.03754 0.24976 0.6154 0.0
H505 H 0.02523 0.24405 0.55149 0.0
H506 H 0.00251 0.20959 0.60511 0.0
H507 H 0.01463 0.21525 0.66928 0.0
H508 H 0.02007 0.22565 0.49542 0.0
H509 H 0.97931 0.22046 0.57011 0.0
H510 H 0.99351 0.22796 0.59614 0.0
H511 H 0.98504 0.2121 0.59572 0.0
C512 C 0.0299 0.24098 0.61367 0.0
C513 C 0.02703 0.23297 0.64751 0.0
C514 C 0.02289 0.23774 0.57715 0.0
C515 C 0.01287 0.22647 0.57393 0.0
C516 C 0.01006 0.21842 0.60739 0.0
H517 H 0.975 0.18978 0.34695 0.0
H518 H 0.98719 0.19662 0.41097 0.0
C519 C 0.01705 0.22165 0.64393 0.0
C520 C 0.00553 0.22301 0.53507 0.0
H521 H 0.97748 0.21319 0.49947 0.0
C522 C 0.01077 0.22299 0.49621 0.0
C523 C 0.99344 0.21969 0.53621 0.0
C524 C 0.9875 0.22015 0.57669 0.0
C525 C 0.00418 0.21946 0.45849 0.0
C526 C 0.99199 0.21568 0.45993 0.0
C527 C 0.98681 0.21597 0.49861 0.0
C528 C 0.98447 0.21143 0.42156 0.0
C529 C 0.01035 0.21993 0.41738 0.0
C530 C 0.97862 0.2173 0.40709 0.0
C531 C 0.97157 0.21336 0.37072 0.0
C532 C 0.97021 0.20346 0.34828 0.0
C533 C 0.97593 0.19749 0.36332 0.0
C534 C 0.98295 0.20142 0.39974 0.0
H535 H 0.02005 0.2259 0.41979 0.0
H536 H 0.00871 0.21096 0.40959 0.0
H537 H 0.00695 0.22297 0.39077 0.0
H538 H 0.97962 0.22501 0.4237 0.0
H539 H 0.96726 0.21814 0.36003 0.0
H540 H 0.81538 0.78518 0.35596 0.0
H541 H 0.80902 0.79101 0.42005 0.0
H542 H 0.77756 0.75675 0.42497 0.0
H543 H 0.78395 0.75075 0.36136 0.0
H544 H 0.78892 0.79231 0.43091 0.0
H545 H 0.78992 0.76063 0.54581 0.0
H546 H 0.79685 0.76338 0.49423 0.0
H547 H 0.78117 0.75374 0.49941 0.0
C548 C 0.80715 0.77885 0.37086 0.0
C549 C 0.80019 0.76749 0.35367 0.0
C550 C 0.80354 0.7822 0.40746 0.0
C551 C 0.79291 0.77426 0.42758 0.0
C552 C 0.78592 0.76292 0.4105 0.0
H553 H 0.75283 0.78008 0.636 0.0
H554 H 0.75966 0.77385 0.57404 0.0
C555 C 0.78956 0.75953 0.374 0.0
C556 C 0.78889 0.77806 0.4653 0.0
H557 H 0.78086 0.77152 0.56938 0.0
C558 C 0.78723 0.78781 0.46127 0.0
C559 C 0.78668 0.77215 0.50481 0.0
C560 C 0.78885 0.76196 0.51158 0.0
C561 C 0.78322 0.79172 0.49555 0.0
C562 C 0.78094 0.78577 0.5349 0.0
C563 C 0.7826 0.77601 0.53901 0.0
C564 C 0.77688 0.78958 0.57227 0.0
C565 C 0.78126 0.80205 0.48932 0.0
C566 C 0.78437 0.80044 0.59185 0.0
C567 C 0.78052 0.80402 0.6273 0.0
C568 C 0.76911 0.79679 0.6437 0.0
C569 C 0.76165 0.78588 0.62404 0.0
C570 C 0.76553 0.78229 0.58873 0.0
H571 H 0.78109 0.80409 0.45513 0.0
H572 H 0.77284 0.80028 0.50425 0.0
H573 H 0.78854 0.80998 0.50481 0.0
H574 H 0.79321 0.80612 0.57984 0.0
H575 H 0.78649 0.81246 0.64177 0.0
H576 H 0.75233 0.96886 0.64033 0.0
H577 H 0.75887 0.98191 0.57835 0.0
H578 H 0.79297 0.98439 0.58479 0.0
H579 H 0.78653 0.97132 0.64673 0.0
H580 H 0.77923 0.00563 0.57471 0.0
H581 H 0.78177 0.97469 0.45959 0.0
H582 H 0.77343 0.96974 0.50842 0.0
H583 H 0.78922 0.97648 0.50942 0.0
C584 C 0.7612 0.97213 0.62846 0.0
C585 C 0.76891 0.96903 0.64837 0.0
C586 C 0.76492 0.97959 0.59312 0.0
C587 C 0.77634 0.98399 0.57687 0.0
C588 C 0.78406 0.98093 0.59659 0.0
H589 H 0.81427 0.02899 0.36344 0.0
H590 H 0.80825 0.01637 0.42648 0.0
C591 C 0.78037 0.97351 0.63205 0.0
C592 C 0.78028 0.99202 0.53987 0.0
H593 H 0.78882 0.99427 0.43624 0.0
C594 C 0.78131 0.00316 0.54436 0.0
C595 C 0.78301 0.98874 0.50053 0.0
C596 C 0.78173 0.97673 0.49385 0.0
C597 C 0.78517 0.01123 0.51053 0.0
C598 C 0.7878 0.00792 0.471 0.0
C599 C 0.7868 0.99678 0.46661 0.0
C600 C 0.79154 0.01585 0.43361 0.0
C601 C 0.78664 0.0233 0.51774 0.0
C602 C 0.7841 0.01967 0.4166 0.0
C603 C 0.78754 0.02693 0.38072 0.0
C604 C 0.79843 0.03039 0.36094 0.0
C605 C 0.80584 0.0265 0.37795 0.0
C606 C 0.80241 0.01928 0.41394 0.0
H607 H 0.78749 0.02557 0.55208 0.0
H608 H 0.79452 0.03021 0.50081 0.0
H609 H 0.77875 0.02341 0.5054 0.0
H610 H 0.77555 0.0169 0.43072 0.0
H611 H 0.78159 0.0297 0.36821 0.0
H612 H 0.0395 0.79158 0.61609 0.0
H613 H 0.02827 0.78688 0.54981 0.0
H614 H -0.0007 0.78658 0.61653 0.0
H615 H 0.01056 0.79154 0.68271 0.0
H616 H 0.0071 0.76772 0.52955 0.0
H617 H 0.00428 0.80854 0.5179 0.0
H618 H 0.01413 0.8071 0.55436 0.0
H619 H -0.00125 0.80087 0.56732 0.0
C620 C 0.03076 0.79057 0.61664 0.0
C621 C 0.02594 0.792 0.65461 0.0
C622 C 0.02436 0.78788 0.57875 0.0
C623 C 0.01304 0.78658 0.57814 0.0
C624 C 0.00814 0.78783 0.6161 0.0
H625 H 0.95989 0.75176 0.38243 0.0
H626 H 0.97174 0.75703 0.44733 0.0
C627 C 0.01456 0.79059 0.65394 0.0
C628 C 0.00624 0.78362 0.53799 0.0
H629 H 0.99209 0.79291 0.47062 0.0
C630 C 0.00386 0.77325 0.51651 0.0
C631 C 0.00218 0.79094 0.52079 0.0
C632 C 0.00506 0.80254 0.54103 0.0
C633 C 0.99733 0.76989 0.47862 0.0
C634 C 0.99286 0.77697 0.46236 0.0
C635 C 0.99542 0.78744 0.48344 0.0
C636 C 0.98563 0.77376 0.4232 0.0
C637 C 0.99548 0.75891 0.45601 0.0
C638 C 0.98933 0.78157 0.38861 0.0
C639 C 0.98251 0.77865 0.3517 0.0
C640 C 0.97185 0.76786 0.34873 0.0
C641 C 0.96811 0.7601 0.3836 0.0
C642 C 0.9749 0.76306 0.42061 0.0
H643 H 0.00214 0.75646 0.46571 0.0
H644 H 0.98662 0.75144 0.46423 0.0
H645 H 0.99592 0.76011 0.42099 0.0
H646 H 0.99755 0.78989 0.39007 0.0
H647 H 0.98563 0.78483 0.32543 0.0
H648 H 0.2126 0.18771 0.35204 0.0
H649 H 0.20727 0.1946 0.41597 0.0
H650 H 0.24352 0.22211 0.43138 0.0
H651 H 0.24899 0.21518 0.3678 0.0
H652 H 0.23327 0.21019 0.50615 0.0
H653 H 0.2047 0.22441 0.42566 0.0
H654 H 0.20067 0.20938 0.41479 0.0
H655 H 0.21471 0.22118 0.39697 0.0
C656 C 0.21945 0.19523 0.36898 0.0
C657 C 0.23121 0.20094 0.35473 0.0
C658 C 0.21637 0.1992 0.40534 0.0
C659 C 0.22496 0.20899 0.42786 0.0
C660 C 0.23674 0.21458 0.4142 0.0
H661 H 0.21056 0.24723 0.62321 0.0
H662 H 0.21713 0.24161 0.559 0.0
C663 C 0.23985 0.21061 0.37789 0.0
C664 C 0.2217 0.21325 0.46619 0.0
H665 H 0.20394 0.22368 0.50131 0.0
C666 C 0.2269 0.2132 0.50511 0.0
C667 C 0.21353 0.21734 0.46453 0.0
C668 C 0.20816 0.21821 0.42319 0.0
C669 C 0.22393 0.21685 0.54273 0.0
C670 C 0.21538 0.22045 0.54134 0.0
C671 C 0.2104 0.22079 0.50226 0.0
C672 C 0.21142 0.22382 0.58019 0.0
C673 C 0.23005 0.21693 0.58351 0.0
C674 C 0.20587 0.2156 0.61298 0.0
C675 C 0.20213 0.21877 0.64968 0.0
C676 C 0.20379 0.2302 0.65408 0.0
C677 C 0.20918 0.23836 0.62083 0.0
C678 C 0.21294 0.23518 0.58415 0.0
H679 H 0.23848 0.21709 0.57731 0.0
H680 H 0.2319 0.22468 0.60344 0.0
H681 H 0.22424 0.20882 0.60186 0.0
H682 H 0.20438 0.20671 0.61009 0.0
H683 H 0.19794 0.21226 0.67457 0.0
H684 H 0.87988 0.36556 0.70789 0.0
H685 H 0.87364 0.35324 0.77174 0.0
H686 H 0.90289 0.34703 0.75723 0.0
H687 H 0.90934 0.35951 0.69393 0.0
H688 H 0.86702 0.32984 0.77853 0.0
H689 H 0.90588 0.35693 0.88095 0.0
H690 H 0.90311 0.36253 0.83249 0.0
H691 H 0.90966 0.35328 0.83056 0.0
C692 C 0.88504 0.36164 0.71846 0.0
C693 C 0.89514 0.36355 0.69595 0.0
C694 C 0.88146 0.35461 0.75493 0.0
C695 C 0.88791 0.34938 0.76957 0.0
C696 C 0.89795 0.35122 0.74707 0.0
H697 H 0.8784 0.29921 0.96623 0.0
H698 H 0.8848 0.31253 0.90497 0.0
C699 C 0.90158 0.35829 0.71073 0.0
C700 C 0.88384 0.34158 0.80732 0.0
H701 H 0.89238 0.33751 0.90544 0.0
C702 C 0.87253 0.33155 0.80642 0.0
C703 C 0.89106 0.34386 0.84362 0.0
C704 C 0.90306 0.35479 0.84726 0.0
C705 C 0.86832 0.32359 0.84053 0.0
C706 C 0.87559 0.3258 0.87655 0.0
C707 C 0.88687 0.33584 0.8776 0.0
C708 C 0.87164 0.31775 0.91349 0.0
C709 C 0.85625 0.31273 0.83744 0.0
C710 C 0.8622 0.3164 0.93866 0.0
C711 C 0.85853 0.30883 0.97369 0.0
C712 C 0.86426 0.30249 0.98415 0.0
C713 C 0.87377 0.30393 0.95893 0.0
C714 C 0.87746 0.31154 0.924 0.0
H715 H 0.85286 0.31103 0.80429 0.0
H716 H 0.85644 0.30483 0.84933 0.0
H717 H 0.84996 0.31398 0.85742 0.0
H718 H 0.85772 0.32127 0.93135 0.0
H719 H 0.8512 0.30796 0.99255 0.0
H720 H 0.6332 0.54711 0.70552 0.0
H721 H 0.64589 0.55325 0.76831 0.0
H722 H 0.64707 0.5209 0.76382 0.0
H723 H 0.63456 0.51477 0.70047 0.0
H724 H 0.64238 0.54256 0.84668 0.0
H725 H 0.6819 0.54595 0.7674 0.0
H726 H 0.66945 0.54464 0.73802 0.0
H727 H 0.66879 0.53181 0.76172 0.0
C728 C 0.63615 0.54129 0.71785 0.0
C729 C 0.63293 0.53048 0.69786 0.0
C730 C 0.64341 0.54482 0.75373 0.0
C731 C 0.64758 0.53762 0.77023 0.0
C732 C 0.64417 0.52671 0.75097 0.0
H733 H 0.69157 0.54479 0.9878 0.0
H734 H 0.67834 0.5376 0.92633 0.0
C735 C 0.63696 0.52319 0.71493 0.0
C736 C 0.65541 0.54153 0.80789 0.0
H737 H 0.68284 0.54828 0.8423 0.0
C738 C 0.65124 0.54384 0.84572 0.0
C739 C 0.66696 0.5432 0.80645 0.0
C740 C 0.67211 0.54138 0.76614 0.0
C741 C 0.65828 0.54767 0.88236 0.0
C742 C 0.66981 0.54934 0.88086 0.0
C743 C 0.67397 0.54696 0.8432 0.0
C744 C 0.67778 0.55372 0.91799 0.0
C745 C 0.6533 0.54977 0.92254 0.0
C746 C 0.68193 0.56521 0.93314 0.0
C747 C 0.68952 0.56937 0.9681 0.0
C748 C 0.69307 0.56209 0.98847 0.0
C749 C 0.68896 0.5506 0.97292 0.0
C750 C 0.68142 0.54648 0.93782 0.0
H751 H 0.64353 0.54561 0.92114 0.0
H752 H 0.6557 0.54626 0.95062 0.0
H753 H 0.65707 0.5594 0.92716 0.0
H754 H 0.67935 0.57099 0.91776 0.0
H755 H 0.69255 0.57827 0.97921 0.0
H756 H 0.47875 0.09225 0.74208 0.0
H757 H 0.4729 0.09904 0.80531 0.0
H758 H 0.44198 0.09451 0.73956 0.0
H759 H 0.44772 0.08775 0.67632 0.0
H760 H 0.4687 0.1192 0.80577 0.0
H761 H 0.42967 0.07692 0.85596 0.0
H762 H 0.44112 0.07752 0.82205 0.0
H763 H 0.43022 0.0806 0.80061 0.0
C764 C 0.47065 0.09259 0.74122 0.0
C765 C 0.46369 0.08946 0.70421 0.0
C766 C 0.46734 0.09648 0.7773 0.0
C767 C 0.45696 0.09714 0.77707 0.0
C768 C 0.44994 0.0939 0.74044 0.0
H769 H 0.42076 0.11975 0.94938 0.0
H770 H 0.42695 0.11193 0.89022 0.0
C771 C 0.45327 0.09009 0.70431 0.0
C772 C 0.45374 0.1018 0.81431 0.0
H773 H 0.4326 0.0943 0.89043 0.0
C774 C 0.46087 0.11377 0.82459 0.0
C775 C 0.44347 0.09466 0.83835 0.0
C776 C 0.43569 0.08168 0.82904 0.0
C777 C 0.45783 0.11889 0.85782 0.0
C778 C 0.44754 0.11176 0.88195 0.0
C779 C 0.44047 0.09975 0.87184 0.0
C780 C 0.4439 0.11659 0.91768 0.0
C781 C 0.46546 0.13197 0.86588 0.0
C782 C 0.45134 0.12168 0.95284 0.0
C783 C 0.44788 0.12623 0.9865 0.0
C784 C 0.43684 0.12562 0.98583 0.0
C785 C 0.42933 0.12037 0.9508 0.0
C786 C 0.43284 0.11589 0.91702 0.0
H787 H 0.47097 0.13665 0.83778 0.0
H788 H 0.46001 0.136 0.87422 0.0
H789 H 0.47149 0.13337 0.89286 0.0
H790 H 0.4598 0.12206 0.95443 0.0
H791 H 0.45382 0.13012 0.01319 0.0
H792 H 0.47321 0.35256 0.67494 0.0
H793 H 0.46667 0.3404 0.73909 0.0
H794 H 0.44163 0.35197 0.76424 0.0
H795 H 0.44819 0.36428 0.70035 0.0
H796 H 0.45495 0.35279 0.83548 0.0
H797 H 0.43525 0.30938 0.75405 0.0
H798 H 0.45027 0.31948 0.73923 0.0
H799 H 0.43891 0.32288 0.72641 0.0
C800 C 0.46629 0.35251 0.69404 0.0
C801 C 0.46118 0.35935 0.68244 0.0
C802 C 0.46253 0.34551 0.73055 0.0
C803 C 0.45355 0.34516 0.75596 0.0
C804 C 0.44853 0.35208 0.74484 0.0
H805 H 0.41554 0.29418 0.95579 0.0
H806 H 0.42101 0.30664 0.89236 0.0
C807 C 0.45228 0.35909 0.70833 0.0
C808 C 0.44955 0.33774 0.7946 0.0
H809 H 0.43726 0.30928 0.82915 0.0
C810 C 0.45103 0.34327 0.83415 0.0
C811 C 0.44431 0.32532 0.7926 0.0
C812 C 0.44197 0.31888 0.75079 0.0
C813 C 0.44764 0.33671 0.87197 0.0
C814 C 0.4428 0.32434 0.87007 0.0
C815 C 0.44108 0.31879 0.83045 0.0
C816 C 0.43951 0.31699 0.90885 0.0
C817 C 0.44916 0.34306 0.91357 0.0
C818 C 0.44814 0.31862 0.93883 0.0
C819 C 0.44505 0.31152 0.97508 0.0
C820 C 0.43328 0.30263 0.98184 0.0
C821 C 0.42468 0.30097 0.95157 0.0
C822 C 0.42778 0.30807 0.91531 0.0
H823 H 0.45006 0.35189 0.90876 0.0
H824 H 0.44157 0.33783 0.93508 0.0
H825 H 0.45728 0.34435 0.92954 0.0
H826 H 0.45728 0.32531 0.93397 0.0
H827 H 0.4519 0.31299 0.99767 0.0
H828 H 0.69693 0.11679 0.96111 0.0
H829 H 0.6837 0.10994 0.89956 0.0
H830 H 0.6643 0.1257 0.9517 0.0
H831 H 0.67752 0.13269 0.01294 0.0
H832 H 0.65902 0.09493 0.89962 0.0
H833 H 0.67168 0.13869 0.83015 0.0
H834 H 0.68055 0.13669 0.86963 0.0
H835 H 0.66763 0.13727 0.88527 0.0
C836 C 0.6899 0.11887 0.95933 0.0
C837 C 0.68831 0.12533 0.99182 0.0
C838 C 0.68235 0.11494 0.92421 0.0
C839 C 0.67314 0.11746 0.92089 0.0
C840 C 0.6715 0.12386 0.9533 0.0
H841 H 0.61646 0.101 0.74378 0.0
H842 H 0.62973 0.10707 0.80506 0.0
C843 C 0.67904 0.1278 0.98837 0.0
C844 C 0.66499 0.1131 0.88421 0.0
H845 H 0.65458 0.12217 0.80156 0.0
C846 C 0.65809 0.10087 0.87796 0.0
C847 C 0.66382 0.12089 0.85616 0.0
C848 C 0.67138 0.13412 0.86029 0.0
C849 C 0.64981 0.0962 0.84485 0.0
C850 C 0.64856 0.104 0.81707 0.0
C851 C 0.65553 0.11623 0.82315 0.0
C852 C 0.64016 0.09969 0.78114 0.0
C853 C 0.64229 0.08298 0.84043 0.0
C854 C 0.64166 0.09352 0.74753 0.0
C855 C 0.6341 0.09003 0.71248 0.0
C856 C 0.62495 0.09272 0.71039 0.0
C857 C 0.62339 0.09877 0.74444 0.0
C858 C 0.63097 0.10227 0.77943 0.0
H859 H 0.6423 0.07833 0.86996 0.0
H860 H 0.63303 0.0804 0.83248 0.0
H861 H 0.64581 0.07994 0.81427 0.0
H862 H 0.64883 0.09163 0.74796 0.0
H863 H 0.63557 0.08542 0.68673 0.0
H864 H 0.88086 0.51697 0.69657 0.0
H865 H 0.87494 0.52381 0.75933 0.0
H866 H 0.90715 0.55738 0.75208 0.0
H867 H 0.91318 0.55065 0.68931 0.0
H868 H 0.88845 0.53331 0.83936 0.0
H869 H 0.87938 0.56493 0.75191 0.0
H870 H 0.88002 0.55297 0.72571 0.0
H871 H 0.89339 0.5659 0.74186 0.0
C872 C 0.8867 0.5258 0.70834 0.0
C873 C 0.89746 0.53329 0.68784 0.0
C874 C 0.88331 0.52967 0.74419 0.0
C875 C 0.89056 0.54112 0.75987 0.0
C876 C 0.90138 0.54856 0.74001 0.0
H877 H 0.88184 0.5813 0.96203 0.0
H878 H 0.88882 0.57478 0.90135 0.0
C879 C 0.90482 0.54468 0.7043 0.0
C880 C 0.88675 0.54529 0.79698 0.0
H881 H 0.87764 0.56454 0.82661 0.0
C882 C 0.88607 0.54013 0.8367 0.0
C883 C 0.88372 0.55421 0.79318 0.0
C884 C 0.88406 0.55981 0.75088 0.0
C885 C 0.88254 0.54376 0.87306 0.0
C886 C 0.87933 0.55258 0.86919 0.0
C887 C 0.88009 0.55778 0.82943 0.0
C888 C 0.87506 0.55647 0.90594 0.0
C889 C 0.8825 0.5383 0.91535 0.0
C890 C 0.8649 0.54838 0.92813 0.0
C891 C 0.86093 0.55206 0.96291 0.0
C892 C 0.86697 0.56394 0.9758 0.0
C893 C 0.877 0.57208 0.95293 0.0
C894 C 0.88101 0.56837 0.91828 0.0
H895 H 0.88832 0.53437 0.91495 0.0
H896 H 0.88543 0.54492 0.94132 0.0
H897 H 0.8734 0.53114 0.92259 0.0
H898 H 0.86001 0.53921 0.91843 0.0
H899 H 0.85311 0.54558 0.97962 0.0
H900 H 0.5472 0.63049 0.29021 0.0
H901 H 0.55405 0.64268 0.22615 0.0
H902 H 0.5276 0.65277 0.24434 0.0
H903 H 0.52083 0.64079 0.30886 0.0
H904 H 0.54197 0.64112 0.15291 0.0
H905 H 0.55769 0.68452 0.23058 0.0
H906 H 0.55419 0.67134 0.26013 0.0
H907 H 0.5426 0.67395 0.24261 0.0
C908 C 0.54286 0.63533 0.28067 0.0
C909 C 0.53351 0.63473 0.30474 0.0
C910 C 0.54678 0.64228 0.24407 0.0
C911 C 0.54146 0.64877 0.23095 0.0
C912 C 0.53201 0.64805 0.25449 0.0
H913 H 0.54463 0.67803 0.98159 0.0
H914 H 0.53899 0.66627 0.04663 0.0
C915 C 0.5281 0.64113 0.2912 0.0
C916 C 0.54561 0.65608 0.19201 0.0
H917 H 0.55647 0.68415 0.155 0.0
C918 C 0.5452 0.65054 0.15335 0.0
C919 C 0.54998 0.66839 0.19285 0.0
C920 C 0.55127 0.67494 0.23382 0.0
C921 C 0.5488 0.65695 0.11525 0.0
C922 C 0.5527 0.66917 0.11582 0.0
C923 C 0.55336 0.67476 0.15463 0.0
C924 C 0.55612 0.67632 0.07649 0.0
C925 C 0.54856 0.6506 0.07486 0.0
C926 C 0.56752 0.68608 0.07225 0.0
C927 C 0.57074 0.69291 0.03527 0.0
C928 C 0.5626 0.6901 0.00194 0.0
C929 C 0.55114 0.68038 0.00652 0.0
C930 C 0.54792 0.6736 0.04356 0.0
H931 H 0.5486 0.64228 0.0816 0.0
H932 H 0.54037 0.64829 0.05699 0.0
H933 H 0.55623 0.65627 0.05425 0.0
H934 H 0.57395 0.68837 0.09745 0.0
H935 H 0.57963 0.70035 0.03277 0.0
H936 H 0.35353 0.90507 0.32026 0.0
H937 H 0.34034 0.89858 0.25883 0.0
H938 H 0.36533 0.89291 0.18819 0.0
H939 H 0.37859 0.89931 0.24962 0.0
H940 H 0.34495 0.90791 0.17443 0.0
H941 H 0.33399 0.86103 0.18017 0.0
H942 H 0.34068 0.87103 0.22433 0.0
H943 H 0.34949 0.87172 0.17945 0.0
C944 C 0.35625 0.90245 0.29168 0.0
C945 C 0.36709 0.90264 0.2899 0.0
C946 C 0.3487 0.89876 0.25663 0.0
C947 C 0.35181 0.89512 0.21931 0.0
C948 C 0.3627 0.8955 0.21705 0.0
H949 H 0.31782 0.86821 0.97721 0.0
H950 H 0.33111 0.87526 0.03827 0.0
C951 C 0.37029 0.89922 0.25208 0.0
C952 C 0.34363 0.89096 0.18273 0.0
H953 H 0.32673 0.86676 0.12134 0.0
C954 C 0.34092 0.89891 0.16282 0.0
C955 C 0.33841 0.87921 0.16788 0.0
C956 C 0.34068 0.87019 0.1892 0.0
C957 C 0.33329 0.89548 0.12775 0.0
C958 C 0.32807 0.88372 0.11288 0.0
C959 C 0.33076 0.87576 0.13289 0.0
C960 C 0.31994 0.87952 0.07611 0.0
C961 C 0.33109 0.90452 0.10632 0.0
C962 C 0.30918 0.87946 0.07745 0.0
C963 C 0.30155 0.87545 0.04253 0.0
C964 C 0.30454 0.87137 0.00584 0.0
C965 C 0.31525 0.87131 0.00493 0.0
C966 C 0.32287 0.87533 0.03978 0.0
H967 H 0.33794 0.91368 0.11478 0.0
H968 H 0.3309 0.90356 0.07122 0.0
H969 H 0.3224 0.9032 0.11666 0.0
H970 H 0.30665 0.88244 0.10559 0.0
H971 H 0.29333 0.87555 0.04432 0.0
H972 H 0.08789 0.44715 0.31541 0.0
H973 H 0.09516 0.44172 0.25274 0.0
H974 H 0.10344 0.47461 0.19273 0.0
H975 H 0.09621 0.48018 0.25541 0.0
H976 H 0.08764 0.44019 0.16442 0.0
H977 H 0.13489 0.47352 0.19144 0.0
H978 H 0.12388 0.46905 0.23273 0.0
H979 H 0.12467 0.47893 0.1916 0.0
C980 C 0.09122 0.45323 0.28887 0.0
C981 C 0.09154 0.46414 0.29047 0.0
C982 C 0.09535 0.4501 0.2531 0.0
C983 C 0.09995 0.45783 0.21849 0.0
C984 C 0.10005 0.46861 0.21948 0.0
H985 H 0.13367 0.45484 0.98507 0.0
H986 H 0.12538 0.4606 0.04379 0.0
C987 C 0.09587 0.47174 0.2552 0.0
C988 C 0.10473 0.45462 0.18157 0.0
H989 H 0.13035 0.46191 0.12942 0.0
C990 C 0.09697 0.44493 0.15665 0.0
C991 C 0.1169 0.46085 0.17171 0.0
C992 C 0.12563 0.47112 0.19835 0.0
C993 C 0.10106 0.44134 0.12169 0.0
C994 C 0.11327 0.44746 0.11214 0.0
C995 C 0.12101 0.45723 0.13691 0.0
C996 C 0.11821 0.44388 0.07666 0.0
C997 C 0.09225 0.43116 0.09488 0.0
C998 C 0.11708 0.43263 0.07608 0.0
C999 C 0.12177 0.42929 0.04249 0.0
C1000 C 0.12778 0.43719 0.00912 0.0
C1001 C 0.12908 0.44853 0.01023 0.0
C1002 C 0.12435 0.45184 0.04374 0.0
H1003 H 0.08315 0.4296 0.09914 0.0
H1004 H 0.09459 0.43274 0.06065 0.0
H1005 H 0.09226 0.423 0.10453 0.0
H1006 H 0.11262 0.42645 0.10172 0.0
H1007 H 0.12069 0.42052 0.04272 0.0
H1008 H 0.11908 0.64967 0.34264 0.0
H1009 H 0.12429 0.66145 0.2777 0.0
H1010 H 0.09008 0.63748 0.2248 0.0
H1011 H 0.08482 0.62551 0.28947 0.0
H1012 H 0.10846 0.64326 0.16843 0.0
H1013 H 0.11205 0.68346 0.24199 0.0
H1014 H 0.12094 0.67838 0.26774 0.0
H1015 H 0.10512 0.66933 0.26853 0.0
C1016 C 0.11265 0.64689 0.31724 0.0
C1017 C 0.10151 0.63668 0.3213 0.0
C1018 C 0.11562 0.65369 0.28027 0.0
C1019 C 0.10749 0.65045 0.24684 0.0
C1020 C 0.09644 0.64016 0.25043 0.0
H1021 H 0.11525 0.69598 0.03235 0.0
H1022 H 0.10812 0.68335 0.09541 0.0
C1023 C 0.09346 0.63334 0.28739 0.0
C1024 C 0.11062 0.65768 0.20773 0.0
H1025 H 0.11952 0.68549 0.1715 0.0
C1026 C 0.11081 0.65247 0.16899 0.0
C1027 C 0.1135 0.66964 0.20855 0.0
C1028 C 0.11279 0.67552 0.24885 0.0
C1029 C 0.11413 0.659 0.13112 0.0
C1030 C 0.11754 0.67111 0.13229 0.0
C1031 C 0.11702 0.67623 0.17082 0.0
C1032 C 0.12181 0.67865 0.09396 0.0
C1033 C 0.11386 0.65286 0.09018 0.0
C1034 C 0.13195 0.68031 0.0727 0.0
C1035 C 0.13602 0.68748 0.03665 0.0
C1036 C 0.13008 0.6932 0.02144 0.0
C1037 C 0.12001 0.69167 0.04321 0.0
C1038 C 0.11593 0.68447 0.07922 0.0
H1039 H 0.10796 0.64315 0.09261 0.0
H1040 H 0.11084 0.65618 0.06327 0.0
H1041 H 0.12289 0.65458 0.0829 0.0
H1042 H 0.13678 0.67613 0.08416 0.0
H1043 H 0.14385 0.68854 0.02082 0.0
H1044 H 0.36446 0.45128 0.29197 0.0
H1045 H 0.35078 0.44393 0.23179 0.0
H1046 H 0.32974 0.45706 0.28997 0.0
H1047 H 0.34344 0.46462 0.3498 0.0
H1048 H 0.32678 0.42759 0.23214 0.0
H1049 H 0.33513 0.47088 0.1706 0.0
H1050 H 0.34474 0.46955 0.20864 0.0
H1051 H 0.33114 0.46853 0.22579 0.0
C1052 C 0.35696 0.45267 0.29183 0.0
C1053 C 0.35507 0.45859 0.32554 0.0
C1054 C 0.34915 0.44845 0.25748 0.0
C1055 C 0.33936 0.45011 0.25619 0.0
C1056 C 0.33739 0.45592 0.28993 0.0
H1057 H 0.28144 0.42999 0.07949 0.0
H1058 H 0.29428 0.43625 0.14208 0.0
C1059 C 0.34521 0.46018 0.32419 0.0
C1060 C 0.33102 0.4455 0.22005 0.0
H1061 H 0.31894 0.4538 0.14053 0.0
C1062 C 0.3251 0.43331 0.21197 0.0
C1063 C 0.32886 0.45301 0.19388 0.0
C1064 C 0.33538 0.46623 0.19982 0.0
C1065 C 0.31691 0.4284 0.17869 0.0
C1066 C 0.31471 0.43591 0.15271 0.0
C1067 C 0.32062 0.44808 0.16079 0.0
C1068 C 0.30656 0.43138 0.11611 0.0
C1069 C 0.31053 0.41522 0.17194 0.0
C1070 C 0.30925 0.42656 0.08097 0.0
C1071 C 0.30197 0.423 0.04517 0.0
C1072 C 0.29189 0.42424 0.04389 0.0
C1073 C 0.28912 0.42889 0.07951 0.0
C1074 C 0.29644 0.43249 0.11525 0.0
H1075 H 0.3111 0.41048 0.20035 0.0
H1076 H 0.30109 0.41183 0.16428 0.0
H1077 H 0.3146 0.41315 0.14476 0.0
H1078 H 0.31713 0.42581 0.08082 0.0
H1079 H 0.30436 0.41948 0.01823 0.0
H1080 H 0.55011 0.90921 0.31831 0.0
H1081 H 0.55663 0.90276 0.25612 0.0
H1082 H 0.52052 0.88157 0.21494 0.0
H1083 H 0.51386 0.88792 0.27707 0.0
H1084 H 0.54819 0.87761 0.2337 0.0
H1085 H 0.53952 0.90278 0.11009 0.0
H1086 H 0.5414 0.90689 0.16559 0.0
H1087 H 0.52784 0.89452 0.14751 0.0
C1088 C 0.54354 0.90323 0.29591 0.0
C1089 C 0.53146 0.89908 0.30258 0.0
C1090 C 0.5473 0.89955 0.2605 0.0
C1091 C 0.53905 0.89178 0.23098 0.0
C1092 C 0.527 0.88768 0.23727 0.0
H1093 H 0.54401 0.86099 0.99426 0.0
H1094 H 0.53752 0.86717 0.0571 0.0
C1095 C 0.52323 0.89129 0.27282 0.0
C1096 C 0.54304 0.88769 0.19415 0.0
H1097 H 0.54546 0.88943 0.08616 0.0
C1098 C 0.54764 0.8802 0.2014 0.0
C1099 C 0.54222 0.89108 0.15224 0.0
C1100 C 0.53756 0.89932 0.14312 0.0
C1101 C 0.55131 0.87581 0.16754 0.0
C1102 C 0.5506 0.87928 0.12554 0.0
C1103 C 0.54599 0.8868 0.1184 0.0
C1104 C 0.55452 0.87518 0.08839 0.0
C1105 C 0.55561 0.86728 0.17702 0.0
C1106 C 0.56625 0.87767 0.08511 0.0
C1107 C 0.56997 0.87407 0.04936 0.0
C1108 C 0.56206 0.86806 0.01601 0.0
C1109 C 0.55032 0.86561 0.01938 0.0
C1110 C 0.5466 0.86914 0.05525 0.0
H1111 H 0.55247 0.863 0.20852 0.0
H1112 H 0.55261 0.8603 0.15233 0.0
H1113 H 0.5654 0.87215 0.17755 0.0
H1114 H 0.57259 0.88257 0.10987 0.0
H1115 H 0.57909 0.87617 0.04754 0.0
H1116 H 0.20307 0.98059 0.82415 0.0
H1117 H 0.20976 0.9961 0.87796 0.0
H1118 H 0.19964 0.97002 0.97703 0.0
H1119 H 0.19283 0.95439 0.92347 0.0
H1120 H 0.19334 0.98819 0.99133 0.0
H1121 H 0.24047 0.00619 0.9469 0.0
H1122 H 0.23066 0.00461 0.90419 0.0
H1123 H 0.229 0.99171 0.93067 0.0
C1124 C 0.20218 0.97812 0.85738 0.0
C1125 C 0.19754 0.96627 0.86956 0.0
C1126 C 0.20603 0.98701 0.88803 0.0
C1127 C 0.20535 0.98419 0.9313 0.0
C1128 C 0.20028 0.97234 0.94369 0.0
H1129 H 0.22804 0.01997 0.17068 0.0
H1130 H 0.21823 0.00607 0.11268 0.0
C1131 C 0.19642 0.96344 0.91305 0.0
C1132 C 0.21036 0.99363 0.96363 0.0
H1133 H 0.23643 0.01626 0.00037 0.0
C1134 C 0.20275 0.99437 0.99332 0.0
C1135 C 0.22263 0.00166 0.96588 0.0
C1136 C 0.23121 0.00101 0.93548 0.0
C1137 C 0.20713 0.00297 0.02542 0.0
C1138 C 0.21943 0.01085 0.02821 0.0
C1139 C 0.227 0.01023 0.99802 0.0
C1140 C 0.22476 0.01941 0.06343 0.0
C1141 C 0.19854 0.0036 0.05582 0.0
C1142 C 0.23187 0.0315 0.05487 0.0
C1143 C 0.2376 0.03948 0.08796 0.0
C1144 C 0.23637 0.03547 0.13013 0.0
C1145 C 0.22914 0.02336 0.13858 0.0
C1146 C 0.22344 0.0154 0.1055 0.0
H1147 H 0.18953 -0.00043 0.04196 0.0
H1148 H 0.19799 0.99865 0.08518 0.0
H1149 H 0.20145 0.01288 0.06475 0.0
H1150 H 0.23307 0.03474 0.02252 0.0
H1151 H 0.24311 0.04876 0.08041 0.0
H1152 H 0.96627 0.22175 0.09017 0.0
H1153 H 0.98118 0.22561 0.03607 0.0
H1154 H 0.99103 0.20295 0.10212 0.0
H1155 H 0.97611 0.199 0.15659 0.0
H1156 H 0.00653 0.23521 0.05333 0.0
H1157 H 0.98452 0.19113 0.97472 0.0
H1158 H 0.97648 0.19625 0.0066 0.0
H1159 H 0.98569 0.19149 0.03179 0.0
C1160 C 0.97155 0.21753 0.09317 0.0
C1161 C 0.97 0.21006 0.12766 0.0
C1162 C 0.98007 0.21976 0.06227 0.0
C1163 C 0.9871 0.21449 0.0651 0.0
C1164 C 0.98557 0.20699 0.09928 0.0
H1165 H 0.05037 0.23694 0.90916 0.0
H1166 H 0.03659 0.2298 0.96922 0.0
C1167 C 0.97708 0.20478 0.13038 0.0
C1168 C 0.99625 0.21716 0.03266 0.0
H1169 H 0.00299 0.20548 0.94743 0.0
C1170 C 0.00584 0.22871 0.03037 0.0
C1171 C 0.99522 0.20863 0.00283 0.0
C1172 C 0.9849 0.19618 0.00367 0.0
C1173 C 0.01439 0.23202 -0.00158 0.0
C1174 C 0.01331 0.22351 0.96829 0.0
C1175 C 0.0038 0.21192 0.97092 0.0
C1176 C 0.02146 0.2268 0.93185 0.0
C1177 C 0.02429 0.24467 0.99613 0.0
C1178 C 0.01739 0.22716 0.891 0.0
C1179 C 0.0252 0.23125 0.85676 0.0
C1180 C 0.03722 0.23498 0.86278 0.0
C1181 C 0.04118 0.23417 0.90354 0.0
C1182 C 0.03334 0.23013 0.93787 0.0
H1183 H 0.02285 0.25051 0.01796 0.0
H1184 H 0.03272 0.24512 0.00497 0.0
H1185 H 0.02524 0.2481 0.96322 0.0
H1186 H 0.00822 0.2246 0.88585 0.0
H1187 H 0.02185 0.23168 0.82571 0.0
H1188 H 0.76846 0.78935 0.83748 0.0
H1189 H 0.77473 0.78298 0.90043 0.0
H1190 H 0.75519 0.79396 0.98039 0.0
H1191 H 0.74892 0.80046 0.91763 0.0
H1192 H 0.77843 0.80066 0.01027 0.0
H1193 H 0.75205 0.75306 0.96903 0.0
H1194 H 0.76177 0.76231 0.92775 0.0
H1195 H 0.74963 0.76413 0.94433 0.0
C1196 C 0.76553 0.79047 0.86844 0.0
C1197 C 0.75811 0.79533 0.87255 0.0
C1198 C 0.76909 0.78678 0.90433 0.0
C1199 C 0.76526 0.78784 0.94486 0.0
C1200 C 0.75817 0.79302 0.94926 0.0
H1201 H 0.76666 0.7513 0.17262 0.0
H1202 H 0.761 0.75971 0.11395 0.0
C1203 C 0.7546 0.79671 0.91338 0.0
C1204 C 0.76848 0.78334 0.9826 0.0
H1205 H 0.76522 0.75811 0.02725 0.0
C1206 C 0.77553 0.79136 0.01414 0.0
C1207 C 0.76453 0.77119 0.98765 0.0
C1208 C 0.75649 0.76213 0.95563 0.0
C1209 C 0.77895 0.78755 0.05036 0.0
C1210 C 0.77529 0.77544 0.05473 0.0
C1211 C 0.76806 0.76741 0.02357 0.0
C1212 C 0.77886 0.77088 0.0914 0.0
C1213 C 0.78631 0.79647 0.08388 0.0
C1214 C 0.79077 0.77436 0.09795 0.0
C1215 C 0.79403 0.76957 0.1314 0.0
C1216 C 0.78542 0.76116 0.15873 0.0
C1217 C 0.7735 0.75776 0.15219 0.0
C1218 C 0.77025 0.76255 0.1187 0.0
H1219 H 0.78592 0.80473 0.08091 0.0
H1220 H 0.78334 0.79279 0.11626 0.0
H1221 H 0.79565 0.79875 0.0803 0.0
H1222 H 0.79751 0.78062 0.07671 0.0
H1223 H 0.80329 0.77235 0.13551 0.0
H1224 H 0.75282 0.98386 0.83714 0.0
H1225 H 0.76014 0.99531 0.90258 0.0
H1226 H 0.778 0.97618 0.93496 0.0
H1227 H 0.77058 0.96454 0.86978 0.0
H1228 H 0.76463 0.97729 0.00085 0.0
H1229 H 0.79336 0.0217 0.93219 0.0
H1230 H 0.77863 0.01452 0.91114 0.0
H1231 H 0.78798 0.00833 0.90145 0.0
C1232 C 0.7584 0.98216 0.85794 0.0
C1233 C 0.76113 0.9733 0.84825 0.0
C1234 C 0.76263 0.98876 0.8952 0.0
C1235 C 0.76974 0.9867 0.92325 0.0
C1236 C 0.77257 0.97794 0.91355 0.0
H1237 H 0.80421 0.03238 0.14166 0.0
H1238 H 0.80043 0.02059 0.07707 0.0
C1239 C 0.76833 0.97131 0.87629 0.0
C1240 C 0.77366 0.99324 0.96385 0.0
H1241 H 0.78833 0.02101 0.00568 0.0
C1242 C 0.76992 0.98684 0.00197 0.0
C1243 C 0.78068 0.00568 0.96517 0.0
C1244 C 0.7855 0.01296 0.92531 0.0
C1245 C 0.77266 0.99259 0.04144 0.0
C1246 C 0.77914 0.00506 0.04264 0.0
C1247 C 0.78325 0.01144 0.0046 0.0
C1248 C 0.78141 0.0117 0.0829 0.0
C1249 C 0.76859 0.98526 0.08145 0.0
C1250 C 0.77196 0.01061 0.10743 0.0
C1251 C 0.77408 0.01729 0.14435 0.0
C1252 C 0.7857 0.02527 0.1572 0.0
C1253 C 0.79516 0.02629 0.13267 0.0
C1254 C 0.79302 0.01958 0.09575 0.0
H1255 H 0.7669 0.97616 0.07587 0.0
H1256 H 0.77522 0.98936 0.10726 0.0
H1257 H 0.76022 0.98461 0.09237 0.0
H1258 H 0.76293 0.00475 0.09755 0.0
H1259 H 0.7666 0.01634 0.16239 0.0
H1260 H 0.04809 0.81071 0.9149 0.0
H1261 H 0.03466 0.80399 0.97585 0.0
H1262 H 0.00858 0.77488 0.90158 0.0
H1263 H 0.02177 0.7817 0.84028 0.0
H1264 H -0.00115 0.78531 0.94771 0.0
H1265 H 0.02783 0.77594 0.04983 0.0
H1266 H 0.03468 0.79089 0.03116 0.0
H1267 H 0.03052 0.77905 0.9938 0.0
C1268 C 0.03948 0.8029 0.91154 0.0
C1269 C 0.03602 0.79668 0.87288 0.0
C1270 C 0.03185 0.79903 0.94646 0.0
C1271 C 0.02072 0.7888 0.94346 0.0
C1272 C 0.01715 0.78276 0.90462 0.0
H1273 H 0.97591 0.74486 0.14586 0.0
H1274 H 0.98951 0.75371 0.08617 0.0
C1275 C 0.02472 0.78667 0.86963 0.0
C1276 C 0.01275 0.7843 0.98068 0.0
H1277 H 0.01053 0.77393 0.08176 0.0
C1278 C 0.0014 0.78283 0.97707 0.0
C1279 C 0.01606 0.78092 0.01868 0.0
C1280 C 0.02789 0.78166 0.02361 0.0
C1281 C 0.99322 0.77803 0.01041 0.0
C1282 C 0.99662 0.77491 0.04878 0.0
C1283 C 0.00799 0.77642 0.05242 0.0
C1284 C 0.98839 0.76967 0.08502 0.0
C1285 C 0.98092 0.77601 0.00369 0.0
C1286 C 0.98336 0.77577 0.10447 0.0
C1287 C 0.97549 0.77068 0.1383 0.0
C1288 C 0.97267 0.75948 0.1537 0.0
C1289 C 0.97791 0.7535 0.13472 0.0
C1290 C 0.98568 0.75855 0.10064 0.0
H1291 H 0.97882 0.77583 0.96938 0.0
H1292 H 0.9742 0.76758 0.01838 0.0
H1293 H 0.98022 0.78332 0.0187 0.0
H1294 H 0.98556 0.78449 0.0936 0.0
H1295 H 0.97168 0.77556 0.15257 0.0
H1296 H 0.24337 0.19826 0.07704 0.0
H1297 H 0.23312 0.2034 0.02349 0.0
H1298 H 0.21213 0.207 0.12171 0.0
H1299 H 0.22241 0.20203 0.17553 0.0
H1300 H 0.20863 0.19299 0.00373 0.0
H1301 H 0.22795 0.23922 0.0613 0.0
H1302 H 0.23362 0.22975 0.07723 0.0
H1303 H 0.22032 0.22799 0.10074 0.0
C1304 C 0.23653 0.20009 0.08725 0.0
C1305 C 0.23379 0.19987 0.13056 0.0
C1306 C 0.23068 0.203 0.05662 0.0
C1307 C 0.22202 0.20575 0.06882 0.0
C1308 C 0.21895 0.20511 0.11181 0.0
H1309 H 0.18625 0.23464 0.91813 0.0
H1310 H 0.1915 0.2255 0.9757 0.0
C1311 C 0.22481 0.20224 0.14247 0.0
C1312 C 0.21647 0.20965 0.0366 0.0
H1313 H 0.21437 0.23347 0.00478 0.0
C1314 C 0.20984 0.20182 0.00397 0.0
C1315 C 0.21805 0.22117 0.03722 0.0
C1316 C 0.22545 0.23008 0.07075 0.0
C1317 C 0.20476 0.20523 0.97167 0.0
C1318 C 0.20656 0.21683 0.97179 0.0
C1319 C 0.21297 0.22456 0.00495 0.0
C1320 C 0.20257 0.22142 0.93643 0.0
C1321 C 0.19751 0.1964 0.93777 0.0
C1322 C 0.20709 0.22216 0.89544 0.0
C1323 C 0.20414 0.22738 0.86261 0.0
C1324 C 0.19667 0.23204 0.87024 0.0
C1325 C 0.19201 0.23113 0.91123 0.0
C1326 C 0.19499 0.22591 0.94412 0.0
H1327 H 0.19405 0.18718 0.94891 0.0
H1328 H 0.18996 0.19748 0.92777 0.0
H1329 H 0.20315 0.19779 0.90955 0.0
H1330 H 0.21317 0.21899 0.88907 0.0
H1331 H 0.2079 0.22794 0.83142 0.0
H1332 H 0.89194 0.36343 0.46909 0.0
H1333 H 0.88449 0.35143 0.40475 0.0
H1334 H 0.90487 0.33465 0.43374 0.0
H1335 H 0.91226 0.34649 0.4984 0.0
H1336 H 0.8979 0.35113 0.3368 0.0
H1337 H 0.87199 0.30665 0.40883 0.0
H1338 H 0.87685 0.32006 0.43891 0.0
H1339 H 0.88693 0.31482 0.42769 0.0
C1340 C 0.89475 0.3571 0.46203 0.0
C1341 C 0.90267 0.35589 0.4889 0.0
C1342 C 0.89049 0.35027 0.42525 0.0
C1343 C 0.89402 0.34206 0.41483 0.0
C1344 C 0.90186 0.34077 0.4417 0.0
H1345 H 0.89483 0.31214 0.1723 0.0
H1346 H 0.89935 0.32361 0.23785 0.0
C1347 C 0.90612 0.34759 0.4785 0.0
C1348 C 0.89 0.3353 0.37472 0.0
H1349 H 0.87583 0.30734 0.33441 0.0
C1350 C 0.89299 0.34156 0.33623 0.0
C1351 C 0.88348 0.32283 0.37418 0.0
C1352 C 0.87951 0.31568 0.41461 0.0
C1353 C 0.88992 0.33565 0.29707 0.0
C1354 C 0.88387 0.32318 0.29652 0.0
C1355 C 0.88057 0.31692 0.335 0.0
C1356 C 0.88109 0.31644 0.25634 0.0
C1357 C 0.89315 0.34281 0.25664 0.0
C1358 C 0.86933 0.30846 0.24547 0.0
C1359 C 0.86671 0.30184 0.20813 0.0
C1360 C 0.87583 0.30304 0.18119 0.0
C1361 C 0.8876 0.31105 0.19223 0.0
C1362 C 0.8902 0.31766 0.22956 0.0
H1363 H 0.89478 0.35188 0.26245 0.0
H1364 H 0.90136 0.34355 0.24343 0.0
H1365 H 0.88607 0.3385 0.23243 0.0
H1366 H 0.86218 0.30736 0.26592 0.0
H1367 H 0.85755 0.29572 0.20058 0.0
H1368 H 0.68788 0.55915 0.18372 0.0
H1369 H 0.67527 0.55161 0.24656 0.0
H1370 H 0.70231 0.57953 0.32226 0.0
H1371 H 0.71509 0.58702 0.25977 0.0
H1372 H 0.69185 0.55763 0.36229 0.0
H1373 H 0.65805 0.56739 0.29841 0.0
H1374 H 0.66111 0.55819 0.26457 0.0
H1375 H 0.67245 0.57317 0.27462 0.0
C1376 C 0.69117 0.56368 0.21376 0.0
C1377 C 0.70244 0.57375 0.21671 0.0
C1378 C 0.68393 0.55938 0.24957 0.0
C1379 C 0.68778 0.56516 0.2888 0.0
C1380 C 0.69916 0.575 0.29216 0.0
H1381 H 0.65704 0.55915 0.53724 0.0
H1382 H 0.67024 0.56436 0.476 0.0
C1383 C 0.70644 0.57927 0.25642 0.0
C1384 C 0.67989 0.56106 0.32625 0.0
H1385 H 0.65351 0.55681 0.36324 0.0
C1386 C 0.68348 0.55746 0.36259 0.0
C1387 C 0.66899 0.5609 0.32646 0.0
C1388 C 0.66495 0.56522 0.28911 0.0
C1389 C 0.67636 0.55355 0.39907 0.0
C1390 C 0.66547 0.55337 0.39919 0.0
C1391 C 0.66186 0.55692 0.36283 0.0
C1392 C 0.65776 0.5498 0.43706 0.0
C1393 C 0.68046 0.5495 0.437 0.0
C1394 C 0.64636 0.53997 0.43516 0.0
C1395 C 0.63878 0.53698 0.47001 0.0
C1396 C 0.64246 0.54387 0.50721 0.0
C1397 C 0.65395 0.55366 0.50909 0.0
C1398 C 0.66153 0.55661 0.47425 0.0
H1399 H 0.68754 0.54753 0.42837 0.0
H1400 H 0.68404 0.55659 0.46135 0.0
H1401 H 0.673 0.5415 0.45147 0.0
H1402 H 0.64329 0.53466 0.40656 0.0
H1403 H 0.62998 0.52939 0.46752 0.0
H1404 H 0.41815 0.13178 0.24801 0.0
H1405 H 0.42755 0.12697 0.3058 0.0
H1406 H 0.45281 0.12707 0.21737 0.0
H1407 H 0.44335 0.13163 0.15933 0.0
H1408 H 0.44237 0.10725 0.26581 0.0
H1409 H 0.45848 0.14685 0.36835 0.0
H1410 H 0.44305 0.14002 0.35598 0.0
H1411 H 0.4538 0.14652 0.31414 0.0
C1412 C 0.4258 0.13092 0.24097 0.0
C1413 C 0.42998 0.13204 0.19911 0.0
C1414 C 0.4312 0.12825 0.27407 0.0
C1415 C 0.44097 0.12682 0.26593 0.0
C1416 C 0.44531 0.12819 0.22432 0.0
H1417 H 0.48093 0.10366 0.42047 0.0
H1418 H 0.4745 0.11216 0.3643 0.0
C1419 C 0.43988 0.13078 0.19121 0.0
C1420 C 0.44612 0.12301 0.30004 0.0
H1421 H 0.45867 0.13019 0.39865 0.0
C1422 C 0.44604 0.11232 0.29467 0.0
C1423 C 0.45087 0.12965 0.33766 0.0
C1424 C 0.45168 0.14145 0.34431 0.0
C1425 C 0.45036 0.10794 0.32633 0.0
C1426 C 0.45496 0.11449 0.36413 0.0
C1427 C 0.45512 0.12522 0.3695 0.0
C1428 C 0.4593 0.11011 0.39892 0.0
C1429 C 0.44968 0.09619 0.31966 0.0
C1430 C 0.453 0.10642 0.43717 0.0
C1431 C 0.45661 0.10155 0.46923 0.0
C1432 C 0.46665 0.10037 0.46363 0.0
C1433 C 0.47314 0.1044 0.42568 0.0
C1434 C 0.46948 0.10923 0.39355 0.0
H1435 H 0.44392 0.09126 0.29237 0.0
H1436 H 0.45867 0.09767 0.31325 0.0
H1437 H 0.44628 0.09064 0.34865 0.0
H1438 H 0.44513 0.10707 0.44181 0.0
H1439 H 0.45146 0.09859 0.49819 0.0
H1440 H 0.43797 0.29717 0.19114 0.0
H1441 H 0.44625 0.31003 0.25325 0.0
H1442 H 0.42231 0.32327 0.23376 0.0
H1443 H 0.41391 0.31041 0.17196 0.0
H1444 H 0.45698 0.33494 0.25754 0.0
H1445 H 0.41701 0.31251 0.35896 0.0
H1446 H 0.41896 0.30577 0.31187 0.0
H1447 H 0.41434 0.31657 0.30735 0.0
C1448 C 0.43444 0.3028 0.20013 0.0
C1449 C 0.42524 0.30274 0.17676 0.0
C1450 C 0.43919 0.31014 0.23556 0.0
C1451 C 0.43476 0.31745 0.24835 0.0
C1452 C 0.42569 0.31752 0.2248 0.0
H1453 H 0.46388 0.37903 0.40729 0.0
H1454 H 0.45766 0.36485 0.34891 0.0
C1455 C 0.42095 0.31021 0.18937 0.0
C1456 C 0.43973 0.32518 0.2859 0.0
H1457 H 0.43225 0.33134 0.38251 0.0
C1458 C 0.45162 0.33411 0.28506 0.0
C1459 C 0.43274 0.32394 0.32192 0.0
C1460 C 0.42008 0.31411 0.32542 0.0
C1461 C 0.45662 0.34212 0.31882 0.0
C1462 C 0.44946 0.34124 0.35392 0.0
C1463 C 0.43768 0.33205 0.35536 0.0
C1464 C 0.45389 0.34992 0.38902 0.0
C1465 C 0.4695 0.35144 0.31667 0.0
C1466 C 0.45367 0.34619 0.43097 0.0
C1467 C 0.45713 0.35425 0.46447 0.0
C1468 C 0.46081 0.36619 0.45657 0.0
C1469 C 0.46115 0.36992 0.41443 0.0
C1470 C 0.45767 0.36184 0.38098 0.0
H1471 H 0.47444 0.34888 0.29443 0.0
H1472 H 0.4703 0.35981 0.30501 0.0
H1473 H 0.4737 0.35309 0.34852 0.0
H1474 H 0.45071 0.33701 0.4378 0.0
H1475 H 0.45677 0.3511 0.49657 0.0
H1476 H 0.68343 0.12439 0.1684 0.0
H1477 H 0.66959 0.11983 0.22698 0.0
H1478 H 0.69836 0.133 0.31661 0.0
H1479 H 0.71233 0.13752 0.25808 0.0
H1480 H 0.67962 0.11041 0.33527 0.0
H1481 H 0.6633 0.14148 0.30343 0.0
H1482 H 0.66264 0.13283 0.25808 0.0
H1483 H 0.67674 0.14326 0.2803 0.0
C1484 C 0.68685 0.12644 0.20052 0.0
C1485 C 0.69898 0.13129 0.20862 0.0
C1486 C 0.67893 0.12391 0.23393 0.0
C1487 C 0.68298 0.12625 0.276 0.0
C1488 C 0.69509 0.13123 0.28424 0.0
H1489 H 0.64408 0.10529 0.51522 0.0
H1490 H 0.65968 0.11455 0.46194 0.0
C1491 C 0.70305 0.1338 0.2508 0.0
C1492 C 0.67444 0.12257 0.31143 0.0
H1493 H 0.652 0.12577 0.35209 0.0
C1494 C 0.67368 0.11386 0.33936 0.0
C1495 C 0.66667 0.12707 0.31636 0.0
C1496 C 0.66742 0.13676 0.2882 0.0
C1497 C 0.66507 0.10922 0.37131 0.0
C1498 C 0.65718 0.11359 0.37587 0.0
C1499 C 0.65807 0.12244 0.34841 0.0
C1500 C 0.64774 0.1088 0.40828 0.0
C1501 C 0.66421 0.09937 0.39889 0.0
C1502 C 0.63585 0.10288 0.39575 0.0
C1503 C 0.6269 0.09764 0.42613 0.0
C1504 C 0.62971 0.09825 0.46953 0.0
C1505 C 0.64163 0.10455 0.48201 0.0
C1506 C 0.65056 0.10982 0.45164 0.0
H1507 H 0.66903 0.09519 0.38489 0.0
H1508 H 0.66815 0.103 0.43044 0.0
H1509 H 0.65486 0.09246 0.40382 0.0
H1510 H 0.63352 0.10206 0.36238 0.0
H1511 H 0.61781 0.0929 0.4155 0.0
H1512 H 0.91195 0.53583 0.40531 0.0
H1513 H 0.90208 0.5415 0.35203 0.0
H1514 H 0.88117 0.54519 0.45028 0.0
H1515 H 0.89102 0.53961 0.50391 0.0
H1516 H 0.87704 0.53083 0.33409 0.0
H1517 H 0.89752 0.57754 0.38779 0.0
H1518 H 0.90326 0.56806 0.40294 0.0
H1519 H 0.89022 0.56646 0.42805 0.0
C1520 C 0.90524 0.53783 0.41562 0.0
C1521 C 0.90233 0.53735 0.45887 0.0
C1522 C 0.8996 0.54104 0.38514 0.0
C1523 C 0.89102 0.54389 0.3974 0.0
C1524 C 0.8879 0.54318 0.44036 0.0
H1525 H 0.85536 0.57288 0.24706 0.0
H1526 H 0.86117 0.56433 0.30496 0.0
C1527 C 0.89351 0.53995 0.47089 0.0
C1528 C 0.88548 0.54776 0.36513 0.0
H1529 H 0.8839 0.57172 0.33141 0.0
C1530 C 0.87849 0.53975 0.3335 0.0
C1531 C 0.88736 0.55939 0.36475 0.0
C1532 C 0.89506 0.56842 0.39745 0.0
C1533 C 0.87335 0.54309 0.3012 0.0
C1534 C 0.87549 0.55481 0.30018 0.0
C1535 C 0.88227 0.56274 0.33236 0.0
C1536 C 0.87131 0.55923 0.26482 0.0
C1537 C 0.86563 0.53402 0.26866 0.0
C1538 C 0.87513 0.55923 0.22319 0.0
C1539 C 0.87183 0.56407 0.19009 0.0
C1540 C 0.86472 0.56913 0.19811 0.0
C1541 C 0.86083 0.56905 0.23984 0.0
C1542 C 0.86413 0.56417 0.27294 0.0
H1543 H 0.86199 0.52489 0.28101 0.0
H1544 H 0.85819 0.5353 0.25886 0.0
H1545 H 0.87099 0.53491 0.24008 0.0
H1546 H 0.88091 0.55572 0.21641 0.0
H1547 H 0.87502 0.56404 0.15836 0.0
H1548 H 0.52383 0.63373 0.50864 0.0
H1549 H 0.52656 0.64737 0.56647 0.0
H1550 H 0.56399 0.66001 0.56608 0.0
H1551 H 0.5614 0.6466 0.50775 0.0
H1552 H 0.53506 0.64825 0.64579 0.0
H1553 H 0.5632 0.69058 0.5629 0.0
H1554 H 0.55514 0.67672 0.53493 0.0
H1555 H 0.56909 0.68081 0.55964 0.0
C1556 C 0.53266 0.63948 0.52066 0.0
C1557 C 0.54242 0.63913 0.50352 0.0
C1558 C 0.5342 0.64726 0.55367 0.0
C1559 C 0.5455 0.65484 0.57002 0.0
C1560 C 0.55523 0.65445 0.55317 0.0
H1561 H 0.56774 0.68684 0.81334 0.0
H1562 H 0.56088 0.67401 0.75121 0.0
C1563 C 0.55372 0.64672 0.52003 0.0
C1564 C 0.54708 0.66275 0.60614 0.0
H1565 H 0.56304 0.69137 0.63915 0.0
C1566 C 0.54106 0.6577 0.64421 0.0
C1567 C 0.55473 0.6751 0.60377 0.0
C1568 C 0.56081 0.68114 0.56296 0.0
C1569 C 0.54293 0.66461 0.6806 0.0
C1570 C 0.55121 0.67683 0.67901 0.0
C1571 C 0.55679 0.68197 0.64042 0.0
C1572 C 0.55472 0.68433 0.71751 0.0
C1573 C 0.53606 0.65874 0.72042 0.0
C1574 C 0.55373 0.69453 0.71885 0.0
C1575 C 0.55776 0.70198 0.75425 0.0
C1576 C 0.56291 0.69937 0.78877 0.0
C1577 C 0.56377 0.68908 0.78741 0.0
C1578 C 0.55977 0.68168 0.75203 0.0
H1579 H 0.52763 0.65057 0.71289 0.0
H1580 H 0.54138 0.65621 0.74076 0.0
H1581 H 0.53406 0.66476 0.73885 0.0
H1582 H 0.54993 0.69676 0.69234 0.0
H1583 H 0.55699 0.70984 0.7543 0.0
H1584 H 0.28212 0.84752 0.75634 0.0
H1585 H 0.29642 0.85342 0.69807 0.0
H1586 H 0.32172 0.8831 0.7721 0.0
H1587 H 0.30762 0.87726 0.83038 0.0
H1588 H 0.30691 0.87526 0.65485 0.0
H1589 H 0.34072 0.86773 0.73155 0.0
H1590 H 0.32582 0.86134 0.75149 0.0
H1591 H 0.33653 0.87644 0.76328 0.0
C1592 C 0.29076 0.85524 0.76033 0.0
C1593 C 0.29374 0.86192 0.79797 0.0
C1594 C 0.29891 0.85859 0.72705 0.0
C1595 C 0.31017 0.86858 0.73115 0.0
C1596 C 0.31316 0.87522 0.76871 0.0
H1597 H 0.37088 0.91404 0.58422 0.0
H1598 H 0.35574 0.90341 0.6381 0.0
C1599 C 0.30504 0.87191 0.80186 0.0
C1600 C 0.31862 0.87257 0.69539 0.0
H1601 H 0.34684 0.88002 0.66956 0.0
C1602 C 0.31558 0.87613 0.65769 0.0
C1603 C 0.3299 0.8737 0.69941 0.0
C1604 C 0.33342 0.86949 0.73846 0.0
C1605 C 0.32376 0.88134 0.62455 0.0
C1606 C 0.33517 0.88282 0.62915 0.0
C1607 C 0.33808 0.87891 0.6663 0.0
C1608 C 0.34441 0.88893 0.59661 0.0
C1609 C 0.3203 0.88568 0.5857 0.0
C1610 C 0.34311 0.88419 0.5557 0.0
C1611 C 0.35172 0.89024 0.52479 0.0
C1612 C 0.36182 0.90112 0.53441 0.0
C1613 C 0.3632 0.90571 0.57574 0.0
C1614 C 0.35457 0.89965 0.60658 0.0
H1615 H 0.31209 0.88606 0.59093 0.0
H1616 H 0.32747 0.8946 0.5764 0.0
H1617 H 0.31874 0.87959 0.55878 0.0
H1618 H 0.33541 0.87582 0.54766 0.0
H1619 H 0.35044 0.88643 0.49332 0.0
H1620 H 0.13942 0.42268 0.74565 0.0
H1621 H 0.1339 0.43111 0.68645 0.0
H1622 H 0.12428 0.45 0.77516 0.0
H1623 H 0.12978 0.44169 0.83444 0.0
H1624 H 0.11068 0.42791 0.67624 0.0
H1625 H 0.14504 0.47527 0.686 0.0
H1626 H 0.14681 0.46371 0.71005 0.0
H1627 H 0.13784 0.46876 0.73544 0.0
C1628 C 0.13628 0.42875 0.75254 0.0
C1629 C 0.135 0.43149 0.79471 0.0
C1630 C 0.13313 0.43354 0.71871 0.0
C1631 C 0.12882 0.44127 0.72654 0.0
C1632 C 0.12778 0.44422 0.76851 0.0
H1633 H 0.09667 0.47402 0.58382 0.0
H1634 H 0.10595 0.46772 0.63739 0.0
C1635 C 0.13086 0.43939 0.80232 0.0
C1636 C 0.12451 0.44551 0.69113 0.0
H1637 H 0.12846 0.47046 0.64176 0.0
C1638 C 0.11463 0.43719 0.66831 0.0
C1639 C 0.12965 0.45764 0.68131 0.0
C1640 C 0.14049 0.46688 0.7042 0.0
C1641 C 0.1095 0.4407 0.63657 0.0
C1642 C 0.1146 0.45284 0.62682 0.0
C1643 C 0.12459 0.46116 0.64934 0.0
C1644 C 0.10953 0.45708 0.59389 0.0
C1645 C 0.09844 0.43141 0.61485 0.0
C1646 C 0.10872 0.45337 0.55158 0.0
C1647 C 0.10336 0.45687 0.52103 0.0
C1648 C 0.09883 0.46426 0.53216 0.0
C1649 C 0.10003 0.46829 0.57428 0.0
C1650 C 0.10534 0.46472 0.6049 0.0
H1651 H 0.094 0.42308 0.63344 0.0
H1652 H 0.09208 0.43458 0.60986 0.0
H1653 H 0.10078 0.42937 0.58332 0.0
H1654 H 0.11216 0.44769 0.54226 0.0
H1655 H 0.1027 0.45372 0.48874 0.0
H1656 H 0.13108 0.68523 0.83945 0.0
H1657 H 0.12659 0.67052 0.78386 0.0
H1658 H 0.12732 0.69487 0.68981 0.0
H1659 H 0.13204 0.70972 0.74498 0.0
H1660 H 0.10723 0.66064 0.73278 0.0
H1661 H 0.14771 0.68337 0.63447 0.0
H1662 H 0.14689 0.68815 0.68757 0.0
H1663 H 0.14092 0.69218 0.6433 0.0
C1664 C 0.13041 0.68751 0.80687 0.0
C1665 C 0.13193 0.69865 0.79659 0.0
C1666 C 0.12785 0.67909 0.77517 0.0
C1667 C 0.1268 0.68167 0.73266 0.0
C1668 C 0.12838 0.6928 0.72227 0.0
H1669 H 0.10042 0.64348 0.49991 0.0
H1670 H 0.10849 0.65791 0.55752 0.0
C1671 C 0.131 0.70125 0.7539 0.0
C1672 C 0.12328 0.67246 0.69961 0.0
H1673 H 0.13107 0.66674 0.6027 0.0
C1674 C 0.11251 0.6619 0.70459 0.0
C1675 C 0.1302 0.67414 0.6629 0.0
C1676 C 0.14213 0.68503 0.65686 0.0
C1677 C 0.10827 0.65314 0.67311 0.0
C1678 C 0.11505 0.65497 0.63598 0.0
C1679 C 0.12591 0.66541 0.63128 0.0
C1680 C 0.11072 0.64634 0.60084 0.0
C1681 C 0.09639 0.64217 0.67908 0.0
C1682 C 0.1095 0.63513 0.60608 0.0
C1683 C 0.1049 0.62685 0.5732 0.0
C1684 C 0.10145 0.62967 0.53464 0.0
C1685 C 0.10293 0.64101 0.5293 0.0
C1686 C 0.10757 0.64928 0.56209 0.0
H1687 H 0.09138 0.64305 0.70598 0.0
H1688 H 0.09101 0.64016 0.64971 0.0
H1689 H 0.09769 0.63456 0.68569 0.0
H1690 H 0.11202 0.63278 0.63569 0.0
H1691 H 0.10391 0.61821 0.57824 0.0
H1692 H 0.31354 0.43949 0.84853 0.0
H1693 H 0.32924 0.44921 0.79588 0.0
H1694 H 0.30318 0.4403 0.69736 0.0
H1695 H 0.28741 0.43076 0.74991 0.0
H1696 H 0.33273 0.43832 0.72862 0.0
H1697 H 0.32622 0.47472 0.67146 0.0
H1698 H 0.31956 0.46668 0.7198 0.0
H1699 H 0.31299 0.46058 0.66905 0.0
C1700 C 0.31114 0.43973 0.81574 0.0
C1701 C 0.29923 0.43433 0.80335 0.0
C1702 C 0.32013 0.4453 0.78574 0.0
C1703 C 0.31738 0.44561 0.74284 0.0
C1704 C 0.3055 0.44042 0.73047 0.0
H1705 H 0.35187 0.45878 0.5025 0.0
H1706 H 0.33855 0.45455 0.56267 0.0
C1707 C 0.2965 0.43489 0.7605 0.0
C1708 C 0.32688 0.45045 0.71056 0.0
H1709 H 0.33828 0.4699 0.62801 0.0
C1710 C 0.33407 0.44535 0.707 0.0
C1711 C 0.32857 0.4596 0.68242 0.0
C1712 C 0.3215 0.4658 0.68607 0.0
C1713 C 0.34262 0.44883 0.67498 0.0
C1714 C 0.3441 0.45776 0.64617 0.0
C1715 C 0.3371 0.46306 0.65024 0.0
C1716 C 0.35238 0.46118 0.61004 0.0
C1717 C 0.34968 0.44261 0.67116 0.0
C1718 C 0.36459 0.46653 0.61684 0.0
C1719 C 0.37225 0.46894 0.58251 0.0
C1720 C 0.36779 0.46605 0.54088 0.0
C1721 C 0.35558 0.46104 0.53419 0.0
C1722 C 0.34795 0.45865 0.56848 0.0
H1723 H 0.34591 0.43445 0.69071 0.0
H1724 H 0.35009 0.44026 0.63754 0.0
H1725 H 0.35884 0.44861 0.68215 0.0
H1726 H 0.36816 0.46868 0.64874 0.0
H1727 H 0.38162 0.47287 0.58867 0.0
H1728 H 0.5601 0.84844 0.76352 0.0
H1729 H 0.55372 0.85628 0.70485 0.0
H1730 H 0.56171 0.88696 0.78006 0.0
H1731 H 0.56821 0.87932 0.83847 0.0
H1732 H 0.53608 0.863 0.70272 0.0
H1733 H 0.58078 0.90083 0.67033 0.0
H1734 H 0.57837 0.88834 0.7022 0.0
H1735 H 0.57626 0.89978 0.72479 0.0
C1736 C 0.56048 0.85684 0.76758 0.0
C1737 C 0.56477 0.86331 0.80548 0.0
C1738 C 0.55682 0.8613 0.73408 0.0
C1739 C 0.55746 0.87229 0.73796 0.0
C1740 C 0.5614 0.87858 0.77618 0.0
H1741 H 0.54212 0.91775 0.58692 0.0
H1742 H 0.5469 0.90781 0.64277 0.0
C1743 C 0.56506 0.87416 0.80957 0.0
C1744 C 0.55407 0.87728 0.70213 0.0
H1745 H 0.5647 0.90124 0.63667 0.0
C1746 C 0.54233 0.8713 0.68795 0.0
C1747 C 0.5623 0.8881 0.68298 0.0
C1748 C 0.57516 0.8946 0.69552 0.0
C1749 C 0.53849 0.87608 0.65595 0.0
C1750 C 0.54667 0.88702 0.63751 0.0
C1751 C 0.55845 0.89289 0.65118 0.0
C1752 C 0.5432 0.89265 0.60418 0.0
C1753 C 0.52568 0.86958 0.64293 0.0
C1754 C 0.53959 0.88741 0.56403 0.0
C1755 C 0.53688 0.89307 0.53201 0.0
C1756 C 0.53778 0.90409 0.53963 0.0
C1757 C 0.54132 0.90926 0.58004 0.0
C1758 C 0.54406 0.90361 0.61198 0.0
H1759 H 0.52008 0.86265 0.66627 0.0
H1760 H 0.52227 0.8758 0.6394 0.0
H1761 H 0.52481 0.86527 0.61172 0.0
H1762 H 0.53908 0.87904 0.55725 0.0
H1763 H 0.5342 0.88886 0.50119 0.0
H1764 H 0.38045 0.1387 0.12106 0.0
H1765 H 0.35971 0.12719 0.14192 0.0
H1766 H 0.36023 0.09493 0.1194 0.0
H1767 H 0.38104 0.10637 0.09859 0.0
H1768 H 0.34017 0.1094 0.09275 0.0
H1769 H 0.34782 0.09196 0.24352 0.0
H1770 H 0.35947 0.10455 0.21625 0.0
H1771 H 0.35437 0.08993 0.19633 0.0
C1772 C 0.37617 0.12916 0.12047 0.0
C1773 C 0.38241 0.12345 0.10834 0.0
C1774 C 0.36432 0.1226 0.13237 0.0
C1775 C 0.35852 0.11024 0.13268 0.0
C1776 C 0.36463 0.10448 0.11995 0.0
H1777 H 0.28684 0.05905 0.21356 0.0
H1778 H 0.30725 0.06836 0.188 0.0
C1779 C 0.37649 0.11104 0.10787 0.0
C1780 C 0.34603 0.10342 0.14622 0.0
H1781 H 0.32806 0.08565 0.22529 0.0
C1782 C 0.33749 0.10417 0.12165 0.0
C1783 C 0.34261 0.09658 0.18381 0.0
C1784 C 0.35152 0.09572 0.2118 0.0
C1785 C 0.32558 0.09828 0.13376 0.0
C1786 C 0.32219 0.0917 0.17197 0.0
C1787 C 0.3307 0.09074 0.19609 0.0
C1788 C 0.30993 0.08607 0.18813 0.0
C1789 C 0.31672 0.09909 0.10531 0.0
C1790 C 0.30478 0.09299 0.19757 0.0
C1791 C 0.29315 0.08772 0.21203 0.0
C1792 C 0.28647 0.07543 0.21776 0.0
C1793 C 0.29175 0.06854 0.20938 0.0
C1794 C 0.30339 0.07383 0.19476 0.0
H1795 H 0.32002 0.10141 0.07217 0.0
H1796 H 0.30819 0.09064 0.10489 0.0
H1797 H 0.31506 0.10611 0.11739 0.0
H1798 H 0.30977 0.10249 0.19369 0.0
H1799 H 0.2894 0.0933 0.21852 0.0
H1800 H 0.86092 0.2467 0.18511 0.0
H1801 H 0.87223 0.23717 0.20499 0.0
H1802 H 0.8968 0.25534 0.10323 0.0
H1803 H 0.88558 0.265 0.08315 0.0
H1804 H 0.87806 0.22267 0.15344 0.0
H1805 H 0.91775 0.26336 0.21105 0.0
H1806 H 0.90366 0.26252 0.20333 0.0
H1807 H 0.91284 0.26418 0.15843 0.0
C1808 C 0.86872 0.24868 0.16689 0.0
C1809 C 0.87239 0.25665 0.13267 0.0
C1810 C 0.87516 0.24321 0.1783 0.0
C1811 C 0.88541 0.24569 0.15593 0.0
C1812 C 0.889 0.25348 0.1213 0.0
H1813 H 0.93681 0.22276 0.18555 0.0
H1814 H 0.92561 0.2322 0.16311 0.0
C1815 C 0.88255 0.25893 0.10975 0.0
C1816 C 0.8923 0.24004 0.16884 0.0
H1817 H 0.91889 0.24589 0.20939 0.0
C1818 C 0.88698 0.22773 0.16575 0.0
C1819 C 0.90392 0.24669 0.18478 0.0
C1820 C 0.90989 0.25991 0.19 0.0
C1821 C 0.89306 0.22187 0.17771 0.0
C1822 C 0.90466 0.22851 0.19404 0.0
C1823 C 0.90999 0.24084 0.19693 0.0
C1824 C 0.91144 0.22284 0.2082 0.0
C1825 C 0.8871 0.20867 0.17194 0.0
C1826 C 0.90727 0.2146 0.24152 0.0
C1827 C 0.91363 0.20916 0.25438 0.0
C1828 C 0.92432 0.21195 0.23437 0.0
C1829 C 0.92859 0.2204 0.2016 0.0
C1830 C 0.92221 0.22581 0.18871 0.0
H1831 H 0.87969 0.20541 0.14888 0.0
H1832 H 0.89347 0.20599 0.16076 0.0
H1833 H 0.88345 0.20428 0.20289 0.0
H1834 H 0.8991 0.21239 0.25763 0.0
H1835 H 0.91013 0.20275 0.27988 0.0
H1836 H 0.75228 0.62467 0.03996 0.0
H1837 H 0.76314 0.64556 0.05984 0.0
H1838 H 0.73727 0.63915 0.15664 0.0
H1839 H 0.72639 0.61826 0.13727 0.0
H1840 H 0.75494 0.66242 0.06333 0.0
H1841 H 0.76936 0.65485 0.22065 0.0
H1842 H 0.76388 0.64386 0.17904 0.0
H1843 H 0.75377 0.64624 0.2104 0.0
C1844 C 0.74887 0.6277 0.06537 0.0
C1845 C 0.73851 0.61979 0.08721 0.0
C1846 C 0.75509 0.63964 0.07665 0.0
C1847 C 0.75109 0.64382 0.1101 0.0
C1848 C 0.7406 0.63603 0.13121 0.0
H1849 H 0.77731 0.71128 0.23605 0.0
H1850 H 0.76614 0.69063 0.2135 0.0
C1851 C 0.73436 0.62411 0.11992 0.0
C1852 C 0.75792 0.65635 0.12312 0.0
H1853 H 0.77352 0.6743 0.20578 0.0
C1854 C 0.75905 0.66505 0.09438 0.0
C1855 C 0.76323 0.65969 0.16369 0.0
C1856 C 0.76261 0.6507 0.1952 0.0
C1857 C 0.76519 0.67705 0.10548 0.0
C1858 C 0.77052 0.68041 0.14606 0.0
C1859 C 0.76941 0.67169 0.17473 0.0
C1860 C 0.77732 0.69293 0.15946 0.0
C1861 C 0.76565 0.68599 0.07406 0.0
C1862 C 0.78742 0.70101 0.13693 0.0
C1863 C 0.7938 0.71281 0.14962 0.0
C1864 C 0.79026 0.71673 0.18536 0.0
C1865 C 0.78026 0.70856 0.20834 0.0
C1866 C 0.77386 0.69676 0.19551 0.0
H1867 H 0.75855 0.68183 0.04982 0.0
H1868 H 0.76482 0.69307 0.0904 0.0
H1869 H 0.77425 0.69013 0.05722 0.0
H1870 H 0.79041 0.69817 0.10964 0.0
H1871 H 0.80151 0.71886 0.13141 0.0
H1872 H 0.06442 0.28946 0.75061 0.0
H1873 H 0.0742 0.31042 0.7696 0.0
H1874 H 0.09839 0.30603 0.85029 0.0
H1875 H 0.08863 0.28511 0.83198 0.0
H1876 H 0.08855 0.31853 0.88865 0.0
H1877 H 0.10693 0.33632 0.72875 0.0
H1878 H 0.09129 0.32622 0.73027 0.0
H1879 H 0.10133 0.32106 0.74291 0.0
C1880 C 0.07185 0.29297 0.77227 0.0
C1881 C 0.07578 0.28563 0.78966 0.0
C1882 C 0.07745 0.30495 0.78295 0.0
C1883 C 0.08709 0.30978 0.81097 0.0
C1884 C 0.09097 0.30247 0.82853 0.0
H1885 H 0.14005 0.38197 0.85768 0.0
H1886 H 0.12862 0.36108 0.83909 0.0
C1887 C 0.0854 0.29051 0.81792 0.0
C1888 C 0.0931 0.32244 0.82256 0.0
H1889 H 0.10969 0.35021 0.78207 0.0
C1890 C 0.09314 0.32547 0.86538 0.0
C1891 C 0.09917 0.33144 0.79212 0.0
C1892 C 0.0998 0.32865 0.74597 0.0
C1893 C 0.09915 0.3373 0.87866 0.0
C1894 C 0.10511 0.3463 0.84814 0.0
C1895 C 0.10503 0.34327 0.8053 0.0
C1896 C 0.11192 0.35892 0.86021 0.0
C1897 C 0.09934 0.34004 0.92535 0.0
C1898 C 0.10628 0.36463 0.87812 0.0
C1899 C 0.1128 0.37659 0.88893 0.0
C1900 C 0.12506 0.38304 0.88176 0.0
C1901 C 0.13064 0.37727 0.86371 0.0
C1902 C 0.12412 0.36533 0.85297 0.0
H1903 H 0.09664 0.33211 0.94547 0.0
H1904 H 0.10828 0.34704 0.93529 0.0
H1905 H 0.0931 0.3433 0.93136 0.0
H1906 H 0.09683 0.35988 0.8833 0.0
H1907 H 0.10823 0.3808 0.90254 0.0
H1908 H 0.71087 0.80285 0.78869 0.0
H1909 H 0.68991 0.79098 0.80592 0.0
H1910 H 0.69085 0.75921 0.7774 0.0
H1911 H 0.71183 0.77103 0.75947 0.0
H1912 H 0.67142 0.75945 0.74274 0.0
H1913 H 0.67645 0.77124 0.91377 0.0
H1914 H 0.68281 0.78383 0.87913 0.0
H1915 H 0.68882 0.77411 0.8803 0.0
C1916 C 0.70664 0.79334 0.78601 0.0
C1917 C 0.71304 0.78788 0.77294 0.0
C1918 C 0.69467 0.78657 0.79614 0.0
C1919 C 0.68891 0.77422 0.79374 0.0
C1920 C 0.69518 0.76873 0.77976 0.0
H1921 H 0.6194 0.72794 0.90342 0.0
H1922 H 0.64042 0.73773 0.8855 0.0
C1923 C 0.70715 0.77551 0.76952 0.0
C1924 C 0.67629 0.76705 0.80533 0.0
H1925 H 0.65683 0.76148 0.88633 0.0
C1926 C 0.66822 0.75982 0.7742 0.0
C1927 C 0.67218 0.76741 0.8466 0.0
C1928 C 0.68052 0.77447 0.88203 0.0
C1929 C 0.65609 0.75322 0.78287 0.0
C1930 C 0.65193 0.75404 0.82353 0.0
C1931 C 0.66003 0.76097 0.85505 0.0
C1932 C 0.63918 0.74797 0.8338 0.0
C1933 C 0.64785 0.74537 0.74852 0.0
C1934 C 0.63157 0.75061 0.81104 0.0
C1935 C 0.61958 0.74503 0.82109 0.0
C1936 C 0.61498 0.73678 0.85441 0.0
C1937 C 0.62266 0.73424 0.87753 0.0
C1938 C 0.63466 0.73982 0.86735 0.0
H1939 H 0.65259 0.7431 0.72435 0.0
H1940 H 0.64058 0.73707 0.76209 0.0
H1941 H 0.64389 0.75008 0.7321 0.0
H1942 H 0.63493 0.75708 0.7857 0.0
H1943 H 0.61393 0.74724 0.80284 0.0
H1944 H 0.2007 0.91119 0.71892 0.0
H1945 H 0.21143 0.90134 0.74236 0.0
H1946 H 0.22988 0.92856 0.83602 0.0
H1947 H 0.21912 0.93843 0.81315 0.0
H1948 H 0.23618 0.91043 0.74491 0.0
H1949 H 0.21583 0.89771 0.90542 0.0
H1950 H 0.20965 0.90236 0.86341 0.0
H1951 H 0.22232 0.9131 0.89243 0.0
C1952 C 0.20703 0.91509 0.74452 0.0
C1953 C 0.20901 0.92556 0.76431 0.0
C1954 C 0.21315 0.90945 0.75784 0.0
C1955 C 0.2213 0.91414 0.7913 0.0
C1956 C 0.22346 0.92469 0.81066 0.0
H1957 H 0.2646 0.88905 0.91361 0.0
H1958 H 0.25531 0.90059 0.89301 0.0
C1959 C 0.21735 0.93035 0.79736 0.0
C1960 C 0.22763 0.90801 0.80553 0.0
H1961 H 0.23104 0.89353 0.88978 0.0
C1962 C 0.23506 0.90673 0.77657 0.0
C1963 C 0.22618 0.90326 0.84692 0.0
C1964 C 0.21799 0.90407 0.87883 0.0
C1965 C 0.24113 0.90082 0.78793 0.0
C1966 C 0.23952 0.89589 0.82907 0.0
C1967 C 0.23223 0.89733 0.85827 0.0
C1968 C 0.24504 0.88887 0.84189 0.0
C1969 C 0.24929 0.90001 0.75593 0.0
C1970 C 0.24216 0.87837 0.82047 0.0
C1971 C 0.24743 0.87177 0.8321 0.0
C1972 C 0.25564 0.87553 0.86558 0.0
C1973 C 0.25834 0.88594 0.88759 0.0
C1974 C 0.25305 0.89254 0.8759 0.0
H1975 H 0.25202 0.90688 0.73087 0.0
H1976 H 0.25733 0.90096 0.77161 0.0
H1977 H 0.24465 0.89125 0.74021 0.0
H1978 H 0.2358 0.87526 0.79474 0.0
H1979 H 0.24509 0.86376 0.81466 0.0
H1980 H 0.71724 0.92887 0.87596 0.0
H1981 H 0.69598 0.9184 0.88975 0.0
H1982 H 0.68918 0.91804 0.75553 0.0
H1983 H 0.71044 0.92854 0.74129 0.0
H1984 H 0.67866 0.92571 0.86273 0.0
H1985 H 0.67006 0.8826 0.79719 0.0
H1986 H 0.68458 0.89396 0.81378 0.0
H1987 H 0.67854 0.89538 0.76438 0.0
C1988 C 0.71123 0.92657 0.84933 0.0
C1989 C 0.71552 0.92948 0.80749 0.0
C1990 C 0.6991 0.92062 0.85732 0.0
C1991 C 0.69107 0.91738 0.82361 0.0
C1992 C 0.69529 0.92038 0.78188 0.0
H1993 H 0.61511 0.87669 0.80273 0.0
H1994 H 0.63637 0.8882 0.79044 0.0
C1995 C 0.70742 0.9264 0.77385 0.0
C1996 C 0.67825 0.9108 0.83212 0.0
H1997 H 0.65348 0.88396 0.81852 0.0
C1998 C 0.67312 0.91657 0.85322 0.0
C1999 C 0.67112 0.89891 0.81952 0.0
C2000 C 0.67631 0.89227 0.79771 0.0
C2001 C 0.66094 0.91081 0.86137 0.0
C2002 C 0.6538 0.89887 0.84897 0.0
C2003 C 0.65898 0.89311 0.82799 0.0
C2004 C 0.64091 0.8922 0.85686 0.0
C2005 C 0.65581 0.91764 0.88212 0.0
C2006 C 0.6364 0.89055 0.89837 0.0
C2007 C 0.62423 0.88404 0.9055 0.0
C2008 C 0.61636 0.87892 0.87127 0.0
C2009 C 0.62092 0.88051 0.8298 0.0
C2010 C 0.63307 0.88708 0.8227 0.0
H2011 H 0.66174 0.92732 0.87871 0.0
H2012 H 0.64707 0.91523 0.86827 0.0
H2013 H 0.6546 0.91557 0.91657 0.0
H2014 H 0.6423 0.89418 0.9253 0.0
H2015 H 0.62099 0.8829 0.93784 0.0
H2016 H 0.06097 0.77194 0.78624 0.0
H2017 H 0.07142 0.76171 0.80866 0.0
H2018 H 0.10353 0.78925 0.75267 0.0
H2019 H 0.0932 0.79961 0.73037 0.0
H2020 H 0.08433 0.75357 0.75947 0.0
H2021 H 0.11252 0.7877 0.87764 0.0
H2022 H 0.09945 0.78691 0.85504 0.0
H2023 H 0.11291 0.79314 0.82487 0.0
C2024 C 0.07025 0.77581 0.7785 0.0
C2025 C 0.07628 0.78665 0.75679 0.0
C2026 C 0.07619 0.76994 0.79133 0.0
C2027 C 0.08827 0.77484 0.78291 0.0
C2028 C 0.09424 0.78545 0.76013 0.0
H2029 H 0.14075 0.7554 0.84367 0.0
H2030 H 0.12984 0.76488 0.81866 0.0
C2031 C 0.08831 0.79132 0.74722 0.0
C2032 C 0.09464 0.76888 0.79841 0.0
H2033 H 0.11667 0.77229 0.86532 0.0
C2034 C 0.09138 0.75762 0.7827 0.0
C2035 C 0.10381 0.77422 0.82877 0.0
C2036 C 0.10735 0.78612 0.84793 0.0
C2037 C 0.09722 0.75163 0.79593 0.0
C2038 C 0.1064 0.75698 0.82627 0.0
C2039 C 0.10963 0.76823 0.84205 0.0
C2040 C 0.1129 0.75113 0.84167 0.0
C2041 C 0.09372 0.73977 0.77659 0.0
C2042 C 0.10702 0.74035 0.86351 0.0
C2043 C 0.11323 0.73488 0.87782 0.0
C2044 C 0.12545 0.74016 0.87079 0.0
C2045 C 0.13134 0.75107 0.84955 0.0
C2046 C 0.12512 0.75651 0.83522 0.0
H2047 H 0.08872 0.7383 0.7465 0.0
H2048 H 0.1016 0.73891 0.77004 0.0
H2049 H 0.08798 0.7327 0.79922 0.0
H2050 H 0.09763 0.73618 0.86962 0.0
H2051 H 0.10844 0.72651 0.89427 0.0
H2052 H 0.22336 0.28411 0.79749 0.0
H2053 H 0.23377 0.30492 0.81829 0.0
H2054 H 0.21056 0.31114 0.73883 0.0
H2055 H 0.20003 0.29033 0.71803 0.0
H2056 H 0.2453 0.32563 0.76597 0.0
H2057 H 0.20782 0.32316 0.8577 0.0
H2058 H 0.20846 0.31019 0.8423 0.0
H2059 H 0.20435 0.31772 0.80414 0.0
C2060 C 0.22048 0.2899 0.78433 0.0
C2061 C 0.21081 0.28555 0.75631 0.0
C2062 C 0.22645 0.30178 0.79623 0.0
C2063 C 0.2228 0.30949 0.78057 0.0
C2064 C 0.21336 0.30526 0.75181 0.0
H2065 H 0.24445 0.38292 0.82026 0.0
H2066 H 0.23507 0.36235 0.79729 0.0
C2067 C 0.2074 0.29338 0.73981 0.0
C2068 C 0.22885 0.32195 0.79451 0.0
H2069 H 0.22447 0.34216 0.84788 0.0
C2070 C 0.24079 0.32926 0.78402 0.0
C2071 C 0.2229 0.32661 0.81807 0.0
C2072 C 0.2102 0.31901 0.8316 0.0
C2073 C 0.24689 0.34122 0.79572 0.0
C2074 C 0.24093 0.34588 0.81919 0.0
C2075 C 0.229 0.33855 0.82982 0.0
C2076 C 0.24684 0.35839 0.83273 0.0
C2077 C 0.25957 0.34882 0.78199 0.0
C2078 C 0.2565 0.36294 0.86064 0.0
C2079 C 0.26191 0.37471 0.87382 0.0
C2080 C 0.25768 0.38211 0.85952 0.0
C2081 C 0.24794 0.37748 0.83183 0.0
C2082 C 0.24256 0.36572 0.81866 0.0
H2083 H 0.26189 0.34472 0.75555 0.0
H2084 H 0.26133 0.35768 0.7717 0.0
H2085 H 0.26546 0.35002 0.80923 0.0
H2086 H 0.25979 0.35735 0.87255 0.0
H2087 H 0.26935 0.37799 0.89533 0.0
H2088 H 0.92485 0.71928 0.12607 0.0
H2089 H 0.9138 0.69821 0.10977 0.0
H2090 H 0.91533 0.69006 0.24164 0.0
H2091 H 0.92664 0.71115 0.25813 0.0
H2092 H 0.9205 0.67682 0.188 0.0
H2093 H 0.87933 0.67561 0.13679 0.0
H2094 H 0.89216 0.68619 0.10817 0.0
H2095 H 0.89103 0.68808 0.16429 0.0
C2096 C 0.92282 0.71301 0.15167 0.0
C2097 C 0.92657 0.71689 0.19346 0.0
C2098 C 0.91644 0.70097 0.14231 0.0
C2099 C 0.91356 0.69257 0.17463 0.0
C2100 C 0.91741 0.6964 0.21628 0.0
H2101 H 0.86122 0.61835 0.15889 0.0
H2102 H 0.87269 0.63938 0.17546 0.0
C2103 C 0.92386 0.70845 0.22565 0.0
C2104 C 0.9067 0.67979 0.16487 0.0
H2105 H 0.88059 0.65838 0.12339 0.0
C2106 C 0.91175 0.67277 0.174 0.0
C2107 C 0.89524 0.67451 0.14713 0.0
C2108 C 0.88906 0.68145 0.13889 0.0
C2109 C 0.90571 0.66061 0.16537 0.0
C2110 C 0.89441 0.65541 0.14625 0.0
C2111 C 0.8893 0.66241 0.13761 0.0
C2112 C 0.88758 0.64266 0.13599 0.0
C2113 C 0.91136 0.65342 0.17766 0.0
C2114 C 0.89209 0.63755 0.10786 0.0
C2115 C 0.88558 0.6255 0.09851 0.0
C2116 C 0.87439 0.61838 0.11674 0.0
C2117 C 0.86982 0.62358 0.14432 0.0
C2118 C 0.87636 0.6356 0.15383 0.0
H2119 H 0.91836 0.658 0.202 0.0
H2120 H 0.90471 0.64465 0.19026 0.0
H2121 H 0.91551 0.65202 0.14916 0.0
H2122 H 0.90062 0.6429 0.09295 0.0
H2123 H 0.88931 0.62178 0.07689 0.0
H2124 H 0.38423 0.24805 0.19234 0.0
H2125 H 0.36347 0.23842 0.21332 0.0
H2126 H 0.35577 0.25338 0.10421 0.0
H2127 H 0.37649 0.26292 0.08258 0.0
H2128 H 0.35024 0.24917 0.2326 0.0
H2129 H 0.33085 0.21836 0.09628 0.0
H2130 H 0.34644 0.22591 0.10814 0.0
H2131 H 0.34006 0.23356 0.08153 0.0
C2132 C 0.37811 0.24923 0.17259 0.0
C2133 C 0.382 0.25622 0.13569 0.0
C2134 C 0.36626 0.24373 0.18469 0.0
C2135 C 0.35807 0.24507 0.16003 0.0
C2136 C 0.36191 0.25205 0.12321 0.0
H2137 H 0.28323 0.22033 0.18701 0.0
H2138 H 0.30395 0.23041 0.16517 0.0
C2139 C 0.37376 0.25754 0.11103 0.0
C2140 C 0.34559 0.23947 0.17373 0.0
H2141 H 0.31742 0.21961 0.14366 0.0
C2142 C 0.34306 0.24267 0.21326 0.0
C2143 C 0.33626 0.23103 0.14833 0.0
C2144 C 0.33851 0.22691 0.10637 0.0
C2145 C 0.33141 0.23775 0.22789 0.0
C2146 C 0.32209 0.2293 0.20254 0.0
C2147 C 0.32461 0.22613 0.16293 0.0
C2148 C 0.30965 0.2235 0.21675 0.0
C2149 C 0.32915 0.24179 0.27001 0.0
C2150 C 0.30601 0.21624 0.25288 0.0
C2151 C 0.29418 0.21047 0.26548 0.0
C2152 C 0.28578 0.21182 0.24201 0.0
C2153 C 0.28948 0.21914 0.20587 0.0
C2154 C 0.30131 0.22488 0.19328 0.0
H2155 H 0.3368 0.25032 0.28029 0.0
H2156 H 0.32121 0.24279 0.26832 0.0
H2157 H 0.32757 0.23509 0.29464 0.0
H2158 H 0.31228 0.2149 0.27098 0.0
H2159 H 0.29162 0.20486 0.29333 0.0
H2160 H 0.74952 0.12423 0.04158 0.0
H2161 H 0.75972 0.11367 0.06301 0.0
H2162 H 0.73409 0.09612 0.16244 0.0
H2163 H 0.72374 0.10649 0.14093 0.0
H2164 H 0.76975 0.11471 0.14196 0.0
H2165 H 0.73514 0.06878 0.10393 0.0
H2166 H 0.73475 0.0815 0.08376 0.0
H2167 H 0.73018 0.07657 0.13736 0.0
C2168 C 0.74598 0.11803 0.06772 0.0
C2169 C 0.7358 0.11618 0.08947 0.0
C2170 C 0.75183 0.11202 0.07994 0.0
C2171 C 0.74758 0.10401 0.11394 0.0
C2172 C 0.73738 0.10208 0.13555 0.0
H2173 H 0.77384 0.06342 0.24669 0.0
H2174 H 0.76278 0.0731 0.22451 0.0
C2175 C 0.73151 0.10807 0.12333 0.0
C2176 C 0.75414 0.09812 0.12813 0.0
H2177 H 0.75168 0.07113 0.14336 0.0
C2178 C 0.76583 0.10519 0.14206 0.0
C2179 C 0.74897 0.08569 0.1284 0.0
C2180 C 0.73661 0.07768 0.11222 0.0
C2181 C 0.77244 0.10015 0.15677 0.0
C2182 C 0.76728 0.08773 0.15698 0.0
C2183 C 0.75558 0.08065 0.14324 0.0
C2184 C 0.77398 0.08194 0.17047 0.0
C2185 C 0.78485 0.10815 0.17261 0.0
C2186 C 0.78383 0.08363 0.1471 0.0
C2187 C 0.79014 0.07812 0.15959 0.0
C2188 C 0.78669 0.07079 0.19566 0.0
C2189 C 0.77675 0.06905 0.21888 0.0
C2190 C 0.77042 0.07455 0.20624 0.0
H2191 H 0.78645 0.11714 0.18006 0.0
H2192 H 0.78665 0.10443 0.20152 0.0
H2193 H 0.79122 0.10899 0.14766 0.0
H2194 H 0.78659 0.08915 0.11899 0.0
H2195 H 0.79772 0.07961 0.1409 0.0
H2196 H 0.04678 0.46438 0.5159 0.0
H2197 H 0.02564 0.45287 0.53085 0.0
H2198 H 0.02165 0.42773 0.43425 0.0
H2199 H 0.04283 0.43909 0.41946 0.0
H2200 H 0.00705 0.44735 0.47631 0.0
H2201 H 0.0054 0.40673 0.53726 0.0
H2202 H 0.01906 0.42052 0.53112 0.0
H2203 H 0.01207 0.41127 0.48572 0.0
C2204 C 0.04143 0.45637 0.49794 0.0
C2205 C 0.0465 0.45262 0.46659 0.0
C2206 C 0.02935 0.44981 0.50653 0.0
C2207 C 0.02212 0.43937 0.48408 0.0
C2208 C 0.02712 0.43564 0.45255 0.0
H2209 H 0.94584 0.40423 0.46384 0.0
H2210 H 0.9671 0.41498 0.45079 0.0
C2211 C 0.03922 0.44218 0.44397 0.0
C2212 C 0.00929 0.43261 0.49282 0.0
H2213 H 0.98698 0.40569 0.52484 0.0
C2214 C 0.00266 0.43825 0.48703 0.0
C2215 C 0.00362 0.42079 0.50731 0.0
C2216 C 0.01041 0.41448 0.51614 0.0
C2217 C 0.99047 0.43234 0.49477 0.0
C2218 C 0.98474 0.4204 0.50791 0.0
C2219 C 0.99139 0.41481 0.51435 0.0
C2220 C 0.97185 0.41361 0.51556 0.0
C2221 C 0.98387 0.43899 0.48949 0.0
C2222 C 0.96748 0.40897 0.55601 0.0
C2223 C 0.95532 0.40273 0.56353 0.0
C2224 C 0.94733 0.40101 0.53064 0.0
C2225 C 0.95175 0.40548 0.48995 0.0
C2226 C 0.9639 0.41168 0.48246 0.0
H2227 H 0.98992 0.4487 0.4903 0.0
H2228 H 0.9793 0.43671 0.45828 0.0
H2229 H 0.97711 0.43656 0.51475 0.0
H2230 H 0.97348 0.41031 0.58191 0.0
H2231 H 0.9522 0.39937 0.5952 0.0
H2232 H 0.5874 0.53652 0.47379 0.0
H2233 H 0.57726 0.54755 0.45897 0.0
H2234 H 0.5876 0.56426 0.58186 0.0
H2235 H 0.5979 0.55336 0.59686 0.0
H2236 H 0.55874 0.54716 0.50483 0.0
H2237 H 0.598 0.5922 0.49975 0.0
H2238 H 0.59912 0.57901 0.49675 0.0
H2239 H 0.59676 0.58399 0.54711 0.0
C2240 C 0.58758 0.54258 0.49762 0.0
C2241 C 0.59349 0.54409 0.53646 0.0
C2242 C 0.58177 0.54887 0.48909 0.0
C2243 C 0.58181 0.55682 0.51909 0.0
C2244 C 0.58766 0.55832 0.55797 0.0
H2245 H 0.53441 0.5853 0.5254 0.0
H2246 H 0.5454 0.57515 0.54098 0.0
C2247 C 0.59348 0.55204 0.56656 0.0
C2248 C 0.57544 0.56327 0.51007 0.0
H2249 H 0.57924 0.59089 0.49765 0.0
C2250 C 0.56321 0.55672 0.5032 0.0
C2251 C 0.58134 0.57573 0.50752 0.0
C2252 C 0.59455 0.58317 0.51278 0.0
C2253 C 0.55668 0.56231 0.4943 0.0
C2254 C 0.56253 0.57478 0.49285 0.0
C2255 C 0.57478 0.58133 0.49919 0.0
C2256 C 0.55609 0.58117 0.48406 0.0
C2257 C 0.54361 0.55483 0.48581 0.0
C2258 C 0.55869 0.58816 0.44745 0.0
C2259 C 0.55246 0.59401 0.43851 0.0
C2260 C 0.54356 0.59302 0.4662 0.0
C2261 C 0.54115 0.58619 0.50329 0.0
C2262 C 0.54738 0.58034 0.51216 0.0
H2263 H 0.54106 0.54556 0.47808 0.0
H2264 H 0.53865 0.55472 0.51458 0.0
H2265 H 0.54089 0.55851 0.45914 0.0
H2266 H 0.56543 0.58895 0.42549 0.0
H2267 H 0.55456 0.59924 0.40976 0.0
H2268 H 0.44656 0.04206 0.58458 0.0
H2269 H 0.43654 0.02081 0.57096 0.0
H2270 H 0.44346 0.0275 0.43682 0.0
H2271 H 0.45369 0.04875 0.45017 0.0
H2272 H 0.41711 0.00679 0.52167 0.0
H2273 H 0.45648 0.00567 0.46234 0.0
H2274 H 0.45752 0.01831 0.48944 0.0
H2275 H 0.45352 0.01583 0.43415 0.0
C2276 C 0.44597 0.03902 0.55218 0.0
C2277 C 0.451 0.04709 0.51848 0.0
C2278 C 0.44023 0.02688 0.54447 0.0
C2279 C 0.43944 0.0226 0.50299 0.0
C2280 C 0.44422 0.03063 0.46919 0.0
H2281 H 0.3924 0.95081 0.41666 0.0
H2282 H 0.40213 0.97202 0.43068 0.0
C2283 C 0.45 0.04277 0.47687 0.0
C2284 C 0.43354 0.00973 0.49508 0.0
H2285 H 0.43797 0.98811 0.45401 0.0
C2286 C 0.42167 0.00268 0.50699 0.0
C2287 C 0.43957 0.00439 0.47647 0.0
C2288 C 0.4525 0.01141 0.46522 0.0
C2289 C 0.4156 0.99043 0.50024 0.0
C2290 C 0.42151 0.98516 0.48027 0.0
C2291 C 0.43343 0.99219 0.4689 0.0
C2292 C 0.41559 0.97233 0.47158 0.0
C2293 C 0.40299 0.98324 0.51531 0.0
C2294 C 0.42012 0.96553 0.48896 0.0
C2295 C 0.41467 0.95344 0.48063 0.0
C2296 C 0.40458 0.94793 0.4547 0.0
C2297 C 0.40011 0.95478 0.43701 0.0
C2298 C 0.40561 0.96689 0.4452 0.0
H2299 H 0.40087 0.98801 0.53982 0.0
H2300 H 0.39696 0.98142 0.48798 0.0
H2301 H 0.40123 0.97466 0.52873 0.0
H2302 H 0.42785 0.96958 0.50923 0.0
H2303 H 0.41834 0.94843 0.49472 0.0
H2304 H 0.57387 0.04795 0.49806 0.0
H2305 H 0.56478 0.02734 0.47565 0.0
H2306 H 0.59148 0.02377 0.54344 0.0
H2307 H 0.60061 0.04437 0.56637 0.0
H2308 H 0.57547 0.0166 0.42827 0.0
H2309 H 0.56008 0.99594 0.58717 0.0
H2310 H 0.56439 0.01114 0.57667 0.0
H2311 H 0.57544 0.00697 0.58404 0.0
C2312 C 0.57779 0.04278 0.50843 0.0
C2313 C 0.58794 0.04779 0.53417 0.0
C2314 C 0.57259 0.03101 0.4955 0.0
C2315 C 0.57738 0.02402 0.5083 0.0
C2316 C 0.58754 0.02898 0.53383 0.0
H2317 H 0.55649 0.95054 0.46454 0.0
H2318 H 0.56689 0.97137 0.48504 0.0
C2319 C 0.59277 0.04077 0.54674 0.0
C2320 C 0.57187 0.0116 0.49413 0.0
H2321 H 0.55774 0.98318 0.5301 0.0
C2322 C 0.57157 0.00928 0.45047 0.0
C2323 C 0.56685 0.0021 0.52326 0.0
C2324 C 0.56659 0.0041 0.57039 0.0
C2325 C 0.56646 0.99767 0.4351 0.0
C2326 C 0.56133 0.98816 0.4642 0.0
C2327 C 0.56171 0.9905 0.5079 0.0
C2328 C 0.55533 0.9757 0.45001 0.0
C2329 C 0.56678 0.99571 0.38797 0.0
C2330 C 0.54536 0.97124 0.42361 0.0
C2331 C 0.53941 0.95936 0.41171 0.0
C2332 C 0.54328 0.9517 0.42632 0.0
C2333 C 0.5533 0.95621 0.45265 0.0
C2334 C 0.55925 0.9681 0.46445 0.0
H2335 H 0.57376 0.00372 0.3718 0.0
H2336 H 0.56833 0.98824 0.38158 0.0
H2337 H 0.55816 0.99355 0.37376 0.0
H2338 H 0.54204 0.97691 0.41286 0.0
H2339 H 0.53168 0.95616 0.39163 0.0
H2340 H 0.95333 0.55686 0.57569 0.0
H2341 H 0.97448 0.56791 0.56014 0.0
H2342 H 0.9706 0.54004 0.47656 0.0
H2343 H 0.94953 0.52881 0.49272 0.0
H2344 H 0.98922 0.54718 0.52912 0.0
H2345 H 0.99058 0.5861 0.45329 0.0
H2346 H 0.98432 0.58317 0.50568 0.0
H2347 H 0.97693 0.57263 0.46381 0.0
C2348 C 0.95697 0.55311 0.55388 0.0
C2349 C 0.94975 0.54197 0.53536 0.0
C2350 C 0.96905 0.55947 0.54479 0.0
C2351 C 0.97407 0.5549 0.51659 0.0
C2352 C 0.96689 0.54376 0.49825 0.0
H2353 H 0.04437 0.59391 0.40591 0.0
H2354 H 0.02302 0.58297 0.41802 0.0
C2355 C 0.95484 0.53736 0.50754 0.0
C2356 C 0.9869 0.5615 0.5073 0.0
H2357 H 0.00914 0.58778 0.47004 0.0
C2358 C 0.99357 0.55604 0.51601 0.0
C2359 C 0.99251 0.57298 0.4896 0.0
C2360 C 0.9857 0.57903 0.47712 0.0
C2361 C 0.00575 0.56183 0.50824 0.0
C2362 C 0.01146 0.5735 0.49227 0.0
C2363 C 0.00476 0.57888 0.48276 0.0
C2364 C 0.02438 0.58027 0.48518 0.0
C2365 C 0.01236 0.55531 0.51657 0.0
C2366 C 0.0322 0.58255 0.51907 0.0
C2367 C 0.04438 0.58872 0.51223 0.0
C2368 C 0.04897 0.59286 0.47142 0.0
C2369 C 0.04111 0.59082 0.4377 0.0
C2370 C 0.02892 0.58458 0.44455 0.0
H2371 H 0.00633 0.54559 0.51677 0.0
H2372 H 0.01931 0.55749 0.49226 0.0
H2373 H 0.01666 0.5579 0.54819 0.0
H2374 H 0.02889 0.57955 0.55088 0.0
H2375 H 0.05019 0.59024 0.53897 0.0
H2376 H 0.42198 0.46453 0.39876 0.0
H2377 H 0.43197 0.45399 0.42287 0.0
H2378 H 0.40004 0.42808 0.48491 0.0
H2379 H 0.38993 0.43852 0.46086 0.0
H2380 H 0.43448 0.44912 0.51056 0.0
H2381 H 0.41068 0.40836 0.41297 0.0
H2382 H 0.41074 0.42184 0.39995 0.0
H2383 H 0.40156 0.41259 0.44224 0.0
C2384 C 0.41704 0.45653 0.41718 0.0
C2385 C 0.40516 0.45235 0.42785 0.0
C2386 C 0.42277 0.45054 0.43097 0.0
C2387 C 0.4167 0.44023 0.45531 0.0
C2388 C 0.40481 0.43594 0.46562 0.0
H2389 H 0.43863 0.39318 0.56629 0.0
H2390 H 0.42749 0.40285 0.54536 0.0
C2391 C 0.39908 0.44194 0.45197 0.0
C2392 C 0.42299 0.43425 0.47142 0.0
H2393 H 0.42412 0.4088 0.4642 0.0
C2394 C 0.43224 0.44031 0.50043 0.0
C2395 C 0.41995 0.42274 0.45832 0.0
C2396 C 0.41025 0.41599 0.42641 0.0
C2397 C 0.43855 0.43513 0.51691 0.0
C2398 C 0.43566 0.42369 0.50325 0.0
C2399 C 0.4263 0.41757 0.47461 0.0
C2400 C 0.44248 0.41805 0.51725 0.0
C2401 C 0.44812 0.44188 0.54927 0.0
C2402 C 0.45457 0.42336 0.50812 0.0
C2403 C 0.46096 0.4179 0.52016 0.0
C2404 C 0.45535 0.40695 0.54119 0.0
C2405 C 0.44322 0.40163 0.55025 0.0
C2406 C 0.43684 0.40712 0.53827 0.0
H2407 H 0.44689 0.44875 0.56539 0.0
H2408 H 0.44834 0.43588 0.57375 0.0
H2409 H 0.4568 0.44638 0.53297 0.0
H2410 H 0.45904 0.43166 0.49107 0.0
H2411 H 0.47027 0.4222 0.51242 0.0
H2412 H 0.21791 0.06437 0.20816 0.0
H2413 H 0.2158 0.08197 0.20716 0.0
H2414 H 0.24806 0.10111 0.27878 0.0
H2415 H 0.25032 0.08369 0.27978 0.0
H2416 H 0.21536 0.09657 0.27706 0.0
H2417 H 0.25346 0.12057 0.168 0.0
H2418 H 0.24613 0.10478 0.17536 0.0
H2419 H 0.25657 0.11449 0.2141 0.0
C2420 C 0.22451 0.0723 0.22395 0.0
C2421 C 0.23434 0.07267 0.24369 0.0
C2422 C 0.22328 0.08233 0.22337 0.0
C2423 C 0.23187 0.09284 0.24232 0.0
C2424 C 0.24144 0.0931 0.2634 0.0
H2425 H 0.24969 0.16448 0.27474 0.0
H2426 H 0.24764 0.1449 0.27556 0.0
C2427 C 0.24269 0.08312 0.26402 0.0
C2428 C 0.23114 0.10372 0.23911 0.0
H2429 H 0.24611 0.13191 0.20136 0.0
C2430 C 0.22198 0.10428 0.26018 0.0
C2431 C 0.23978 0.11369 0.21678 0.0
C2432 C 0.24949 0.11337 0.19192 0.0
C2433 C 0.22156 0.1148 0.2611 0.0
C2434 C 0.23043 0.12488 0.23994 0.0
C2435 C 0.23937 0.12417 0.21779 0.0
C2436 C 0.23102 0.13645 0.24176 0.0
C2437 C 0.2119 0.11521 0.28595 0.0
C2438 C 0.22229 0.13814 0.22261 0.0
C2439 C 0.22342 0.14936 0.22207 0.0
C2440 C 0.23334 0.15904 0.24047 0.0
C2441 C 0.24195 0.15723 0.2602 0.0
C2442 C 0.24081 0.14604 0.26073 0.0
H2443 H 0.20709 0.1074 0.30697 0.0
H2444 H 0.21559 0.12333 0.30568 0.0
H2445 H 0.20545 0.11539 0.2635 0.0
H2446 H 0.21476 0.13087 0.2072 0.0
H2447 H 0.21666 0.15048 0.20652 0.0
H2448 H 0.84445 0.0698 0.18276 0.0
H2449 H 0.86348 0.08815 0.18045 0.0
H2450 H 0.85281 0.10178 0.28581 0.0
H2451 H 0.83374 0.08356 0.28809 0.0
H2452 H 0.86092 0.11675 0.2158 0.0
H2453 H 0.89225 0.10152 0.26027 0.0
H2454 H 0.88222 0.09332 0.21802 0.0
H2455 H 0.87658 0.09287 0.27049 0.0
C2456 C 0.84621 0.07663 0.20583 0.0
C2457 C 0.83756 0.07525 0.23549 0.0
C2458 C 0.85712 0.08708 0.20461 0.0
C2459 C 0.85957 0.09626 0.23321 0.0
C2460 C 0.85108 0.09477 0.26355 0.0
H2461 H 0.92377 0.16232 0.27933 0.0
H2462 H 0.90671 0.14236 0.28345 0.0
C2463 C 0.84019 0.08435 0.26479 0.0
C2464 C 0.87057 0.10777 0.22945 0.0
H2465 H 0.90062 0.12124 0.23512 0.0
C2466 C 0.8696 0.11774 0.2201 0.0
C2467 C 0.88185 0.10901 0.23533 0.0
C2468 C 0.88334 0.09864 0.24695 0.0
C2469 C 0.87964 0.12894 0.2162 0.0
C2470 C 0.89093 0.13016 0.22117 0.0
C2471 C 0.89192 0.12022 0.23092 0.0
C2472 C 0.90177 0.14179 0.21751 0.0
C2473 C 0.87806 0.13943 0.20755 0.0
C2474 C 0.90476 0.14791 0.17879 0.0
C2475 C 0.91447 0.15932 0.17631 0.0
C2476 C 0.92137 0.16476 0.21253 0.0
C2477 C 0.91859 0.1584 0.25091 0.0
C2478 C 0.90888 0.14699 0.25333 0.0
H2479 H 0.86888 0.13741 0.21394 0.0
H2480 H 0.8842 0.14711 0.2273 0.0
H2481 H 0.88007 0.142 0.17365 0.0
H2482 H 0.89945 0.14395 0.15067 0.0
H2483 H 0.91642 0.16394 0.14621 0.0
H2484 H 0.91609 0.75489 0.27839 0.0
H2485 H 0.89986 0.75902 0.27632 0.0
H2486 H 0.91968 0.78801 0.19032 0.0
H2487 H 0.93602 0.7839 0.19187 0.0
H2488 H 0.89955 0.78047 0.29566 0.0
H2489 H 0.88821 0.76604 0.12707 0.0
H2490 H 0.89757 0.76247 0.15836 0.0
H2491 H 0.90319 0.77718 0.13851 0.0
C2492 C 0.91706 0.76219 0.25916 0.0
C2493 C 0.92731 0.769 0.23498 0.0
C2494 C 0.90778 0.76455 0.25814 0.0
C2495 C 0.90855 0.77373 0.23283 0.0
C2496 C 0.91889 0.7808 0.20963 0.0
H2497 H 0.84676 0.78148 0.17978 0.0
H2498 H 0.8674 0.78619 0.18229 0.0
C2499 C 0.92822 0.77845 0.21068 0.0
C2500 C 0.89823 0.77544 0.22985 0.0
H2501 H 0.87545 0.77056 0.16426 0.0
C2502 C 0.89435 0.77848 0.2668 0.0
C2503 C 0.89155 0.7729 0.19204 0.0
C2504 C 0.89525 0.7694 0.15168 0.0
C2505 C 0.8837 0.77861 0.26737 0.0
C2506 C 0.87668 0.7754 0.23025 0.0
C2507 C 0.88086 0.77299 0.19268 0.0
C2508 C 0.86446 0.77328 0.23081 0.0
C2509 C 0.87995 0.78195 0.30794 0.0
C2510 C 0.856 0.76441 0.25702 0.0
C2511 C 0.84424 0.76167 0.25558 0.0
C2512 C 0.8407 0.76771 0.22767 0.0
C2513 C 0.84921 0.77668 0.20168 0.0
C2514 C 0.861 0.7794 0.20308 0.0
H2515 H 0.88768 0.78774 0.32813 0.0
H2516 H 0.87492 0.78655 0.30125 0.0
H2517 H 0.87418 0.77383 0.32637 0.0
H2518 H 0.85843 0.75939 0.2779 0.0
H2519 H 0.83791 0.7547 0.27595 0.0
H2520 H 0.08684 0.25154 0.74179 0.0
H2521 H 0.10325 0.2477 0.74444 0.0
H2522 H 0.07886 0.21025 0.73855 0.0
H2523 H 0.06225 0.21398 0.73578 0.0
H2524 H 0.10574 0.23272 0.80954 0.0
H2525 H 0.10441 0.21776 0.64256 0.0
H2526 H 0.09788 0.22658 0.6575 0.0
H2527 H 0.09088 0.21135 0.67269 0.0
C2528 C 0.08492 0.24247 0.74078 0.0
C2529 C 0.07323 0.23306 0.73855 0.0
C2530 C 0.09432 0.24031 0.74236 0.0
C2531 C 0.09223 0.22871 0.74148 0.0
C2532 C 0.08061 0.21926 0.73886 0.0
H2533 H 0.1502 0.21266 0.74009 0.0
H2534 H 0.13009 0.20961 0.74096 0.0
C2535 C 0.07116 0.22142 0.73741 0.0
C2536 C 0.10235 0.2267 0.74466 0.0
H2537 H 0.12022 0.2202 0.68538 0.0
C2538 C 0.10883 0.22982 0.78262 0.0
C2539 C 0.10625 0.22282 0.70955 0.0
C2540 C 0.09957 0.21946 0.66808 0.0
C2541 C 0.11941 0.22963 0.7859 0.0
C2542 C 0.12369 0.22644 0.75 0.0
C2543 C 0.11689 0.22269 0.71274 0.0
C2544 C 0.13572 0.2281 0.74937 0.0
C2545 C 0.12606 0.23312 0.82743 0.0
C2546 C 0.14547 0.2395 0.75307 0.0
C2547 C 0.1569 0.24128 0.75245 0.0
C2548 C 0.1588 0.23167 0.748 0.0
C2549 C 0.14901 0.22023 0.74376 0.0
C2550 C 0.13753 0.21847 0.74421 0.0
H2551 H 0.12013 0.2319 0.85459 0.0
H2552 H 0.13049 0.22789 0.83342 0.0
H2553 H 0.13294 0.24259 0.82611 0.0
H2554 H 0.14423 0.24706 0.75628 0.0
H2555 H 0.16423 0.25021 0.7556 0.0
H2556 H 0.75143 0.83324 0.71107 0.0
H2557 H 0.75346 0.85283 0.71172 0.0
H2558 H 0.78107 0.86428 0.80562 0.0
H2559 H 0.77921 0.8447 0.80484 0.0
H2560 H 0.74984 0.86298 0.78434 0.0
H2561 H 0.79485 0.89131 0.71792 0.0
H2562 H 0.78683 0.87546 0.71163 0.0
H2563 H 0.79379 0.88191 0.76141 0.0
C2564 C 0.75805 0.83995 0.73148 0.0
C2565 C 0.76514 0.8374 0.75801 0.0
C2566 C 0.7592 0.85114 0.73178 0.0
C2567 C 0.76747 0.86001 0.75845 0.0
C2568 C 0.77477 0.85761 0.78426 0.0
H2569 H 0.77784 0.93003 0.81442 0.0
H2570 H 0.7797 0.91229 0.8127 0.0
C2571 C 0.77365 0.8464 0.78392 0.0
C2572 C 0.76774 0.87142 0.76143 0.0
H2573 H 0.78482 0.90101 0.74293 0.0
C2574 C 0.75748 0.8713 0.77526 0.0
C2575 C 0.77778 0.88225 0.74997 0.0
C2576 C 0.78893 0.8828 0.73408 0.0
C2577 C 0.75694 0.8817 0.77764 0.0
C2578 C 0.76686 0.89249 0.76516 0.0
C2579 C 0.77723 0.89269 0.75227 0.0
C2580 C 0.7664 0.90355 0.76412 0.0
C2581 C 0.74576 0.88107 0.79372 0.0
C2582 C 0.75854 0.90458 0.7366 0.0
C2583 C 0.75743 0.91464 0.73754 0.0
C2584 C 0.76423 0.9239 0.76591 0.0
C2585 C 0.77244 0.92303 0.79235 0.0
C2586 C 0.77353 0.91293 0.79139 0.0
H2587 H 0.74025 0.87287 0.81217 0.0
H2588 H 0.7478 0.88879 0.81414 0.0
H2589 H 0.74047 0.88114 0.76625 0.0
H2590 H 0.75311 0.89749 0.71481 0.0
H2591 H 0.7511 0.91506 0.71647 0.0
H2592 H 0.1472 0.93471 0.78243 0.0
H2593 H 0.12751 0.91702 0.78459 0.0
H2594 H 0.14257 0.89557 0.74825 0.0
H2595 H 0.16217 0.91306 0.74584 0.0
H2596 H 0.11553 0.89899 0.71433 0.0
H2597 H 0.12375 0.8813 0.86285 0.0
H2598 H 0.1322 0.89671 0.84825 0.0
H2599 H 0.13525 0.88613 0.82364 0.0
C2600 C 0.14631 0.92622 0.77481 0.0
C2601 C 0.15625 0.92528 0.76416 0.0
C2602 C 0.13507 0.91616 0.77602 0.0
C2603 C 0.13367 0.90503 0.76705 0.0
C2604 C 0.14353 0.90409 0.75574 0.0
H2605 H 0.08523 0.83236 0.74637 0.0
H2606 H 0.10163 0.85256 0.75078 0.0
C2607 C 0.15471 0.91411 0.75426 0.0
C2608 C 0.12197 0.89426 0.76952 0.0
H2609 H 0.10723 0.86787 0.82115 0.0
C2610 C 0.11357 0.89224 0.73804 0.0
C2611 C 0.11952 0.88556 0.80064 0.0
C2612 C 0.1281 0.88753 0.83604 0.0
C2613 C 0.10301 0.88136 0.7354 0.0
C2614 C 0.10081 0.87244 0.76542 0.0
C2615 C 0.10898 0.87472 0.79807 0.0
C2616 C 0.09063 0.86034 0.76157 0.0
C2617 C 0.09458 0.87926 0.6993 0.0
C2618 C 0.07899 0.85803 0.76617 0.0
C2619 C 0.06954 0.84643 0.76355 0.0
C2620 C 0.07162 0.837 0.75654 0.0
C2621 C 0.0833 0.8394 0.75182 0.0
C2622 C 0.0927 0.85095 0.75438 0.0
H2623 H 0.09853 0.88632 0.67485 0.0
H2624 H 0.09184 0.87063 0.68384 0.0
H2625 H 0.08654 0.879 0.71195 0.0
H2626 H 0.07724 0.86515 0.77239 0.0
H2627 H 0.06064 0.84486 0.76751 0.0
H2628 H 0.8932 0.40409 0.49419 0.0
H2629 H 0.8912 0.42173 0.49555 0.0
H2630 H 0.90605 0.4299 0.62167 0.0
H2631 H 0.90816 0.41237 0.62067 0.0
H2632 H 0.87937 0.42936 0.55737 0.0
H2633 H 0.92794 0.45926 0.54707 0.0
H2634 H 0.9209 0.44376 0.534 0.0
H2635 H 0.92308 0.44839 0.58861 0.0
C2636 C 0.89597 0.40959 0.52236 0.0
C2637 C 0.90096 0.4069 0.55715 0.0
C2638 C 0.89478 0.41964 0.52307 0.0
C2639 C 0.89862 0.42715 0.55847 0.0
C2640 C 0.90319 0.42426 0.59385 0.0
H2641 H 0.90916 0.49602 0.61742 0.0
H2642 H 0.90711 0.47642 0.61894 0.0
C2643 C 0.90437 0.41423 0.59321 0.0
C2644 C 0.89836 0.43831 0.55784 0.0
H2645 H 0.91633 0.46819 0.55887 0.0
C2646 C 0.88742 0.43787 0.55755 0.0
C2647 C 0.90891 0.44935 0.55792 0.0
C2648 C 0.92089 0.45029 0.55655 0.0
C2649 C 0.88676 0.44826 0.55853 0.0
C2650 C 0.89733 0.45931 0.55901 0.0
C2651 C 0.90825 0.4597 0.55878 0.0
C2652 C 0.89739 0.47065 0.55986 0.0
C2653 C 0.87479 0.44733 0.5601 0.0
C2654 C 0.89249 0.47386 0.5263 0.0
C2655 C 0.8936 0.48506 0.52544 0.0
C2656 C 0.89975 0.49327 0.55786 0.0
C2657 C 0.90441 0.48992 0.59188 0.0
C2658 C 0.90324 0.47872 0.59283 0.0
H2659 H 0.86783 0.43844 0.57079 0.0
H2660 H 0.87487 0.45407 0.58176 0.0
H2661 H 0.87241 0.44885 0.52781 0.0
H2662 H 0.88816 0.46786 0.50008 0.0
H2663 H 0.88996 0.4874 0.49868 0.0
H2664 H 0.49993 0.41229 0.61926 0.0
H2665 H 0.51937 0.43003 0.61931 0.0
H2666 H 0.52991 0.41652 0.51323 0.0
H2667 H 0.51046 0.39857 0.51325 0.0
H2668 H 0.54757 0.42773 0.57776 0.0
H2669 H 0.52856 0.45532 0.52641 0.0
H2670 H 0.52175 0.44674 0.57323 0.0
H2671 H 0.52044 0.43941 0.52347 0.0
C2672 C 0.5064 0.41302 0.59611 0.0
C2673 C 0.50361 0.40408 0.56592 0.0
C2674 C 0.51749 0.42319 0.59612 0.0
C2675 C 0.52596 0.42466 0.56572 0.0
C2676 C 0.52343 0.41555 0.53675 0.0
H2677 H 0.59571 0.48556 0.51402 0.0
H2678 H 0.57827 0.46577 0.51321 0.0
C2679 C 0.51233 0.40532 0.53682 0.0
C2680 C 0.53724 0.43595 0.56337 0.0
H2681 H 0.54853 0.46553 0.5495 0.0
C2682 C 0.54783 0.436 0.57125 0.0
C2683 C 0.53751 0.44668 0.5545 0.0
C2684 C 0.52647 0.44707 0.5435 0.0
C2685 C 0.55868 0.44663 0.5722 0.0
C2686 C 0.55888 0.45738 0.5646 0.0
C2687 C 0.54832 0.45726 0.55567 0.0
C2688 C 0.56986 0.46895 0.56681 0.0
C2689 C 0.56979 0.44634 0.58262 0.0
C2690 C 0.57085 0.47727 0.59702 0.0
C2691 C 0.58072 0.48857 0.59742 0.0
C2692 C 0.58979 0.49179 0.56741 0.0
C2693 C 0.58889 0.48335 0.53763 0.0
C2694 C 0.57897 0.47202 0.53726 0.0
H2695 H 0.56784 0.43769 0.59609 0.0
H2696 H 0.57504 0.44789 0.55317 0.0
H2697 H 0.57531 0.45341 0.60563 0.0
H2698 H 0.56387 0.47507 0.61999 0.0
H2699 H 0.58115 0.49484 0.62085 0.0
H2700 H 0.57856 0.08359 0.60834 0.0
H2701 H 0.56231 0.08769 0.60956 0.0
H2702 H 0.58504 0.12227 0.5569 0.0
H2703 H 0.60146 0.11824 0.55538 0.0
H2704 H 0.56122 0.10728 0.65018 0.0
H2705 H 0.55607 0.1055 0.47393 0.0
H2706 H 0.56405 0.09943 0.50068 0.0
H2707 H 0.5705 0.11512 0.49575 0.0
C2708 C 0.58016 0.0921 0.59712 0.0
C2709 C 0.59129 0.10057 0.58149 0.0
C2710 C 0.57086 0.09443 0.598 0.0
C2711 C 0.57248 0.10524 0.58308 0.0
C2712 C 0.58362 0.11383 0.56823 0.0
H2713 H 0.51207 0.11752 0.60736 0.0
H2714 H 0.53263 0.12184 0.60676 0.0
C2715 C 0.59298 0.11152 0.56748 0.0
C2716 C 0.56228 0.10715 0.58195 0.0
H2717 H 0.54172 0.10686 0.5144 0.0
C2718 C 0.55705 0.10743 0.62056 0.0
C2719 C 0.55689 0.10726 0.54315 0.0
C2720 C 0.56207 0.10676 0.50089 0.0
C2721 C 0.54626 0.1073 0.62142 0.0
C2722 C 0.54065 0.10695 0.58263 0.0
C2723 C 0.54613 0.10719 0.54401 0.0
C2724 C 0.52844 0.10479 0.58153 0.0
C2725 C 0.5406 0.10685 0.66369 0.0
C2726 C 0.51938 0.09387 0.56693 0.0
C2727 C 0.5077 0.09137 0.56729 0.0
C2728 C 0.50485 0.09979 0.58205 0.0
C2729 C 0.51398 0.11084 0.59593 0.0
C2730 C 0.52571 0.11332 0.59571 0.0
H2731 H 0.54549 0.10585 0.69073 0.0
H2732 H 0.54033 0.11512 0.66833 0.0
H2733 H 0.53136 0.09938 0.66427 0.0
H2734 H 0.52134 0.08719 0.55589 0.0
H2735 H 0.5009 0.0828 0.55618 0.0
H2736 H 0.74869 0.58308 0.06063 0.0
H2737 H 0.76603 0.58068 0.05802 0.0
H2738 H 0.74802 0.54922 0.13456 0.0
H2739 H 0.73052 0.55148 0.13722 0.0
H2740 H 0.77843 0.58004 0.13249 0.0
H2741 H 0.76199 0.53962 0.03289 0.0
H2742 H 0.75498 0.54852 0.03321 0.0
H2743 H 0.75294 0.53893 0.07711 0.0
C2744 C 0.74835 0.57557 0.07662 0.0
C2745 C 0.73823 0.56748 0.09923 0.0
C2746 C 0.75826 0.57423 0.07505 0.0
C2747 C 0.75824 0.56473 0.09579 0.0
C2748 C 0.74812 0.55651 0.11783 0.0
H2749 H 0.81672 0.55055 0.12211 0.0
H2750 H 0.79716 0.54878 0.12552 0.0
C2751 C 0.73817 0.55786 0.11949 0.0
C2752 C 0.76913 0.56397 0.09635 0.0
H2753 H 0.78149 0.54809 0.05901 0.0
C2754 C 0.7791 0.57304 0.11656 0.0
C2755 C 0.76989 0.55475 0.0759 0.0
C2756 C 0.75942 0.54491 0.05326 0.0
C2757 C 0.78991 0.57325 0.11632 0.0
C2758 C 0.7908 0.56427 0.09455 0.0
C2759 C 0.78075 0.55498 0.07545 0.0
C2760 C 0.80227 0.56476 0.08984 0.0
C2761 C 0.80029 0.58309 0.13934 0.0
C2762 C 0.81146 0.57413 0.06761 0.0
C2763 C 0.8226 0.5752 0.06567 0.0
C2764 C 0.82474 0.56684 0.08573 0.0
C2765 C 0.81537 0.55716 0.10648 0.0
C2766 C 0.8042 0.55612 0.10846 0.0
H2767 H 0.79741 0.58729 0.16365 0.0
H2768 H 0.80569 0.57981 0.15513 0.0
H2769 H 0.80598 0.58999 0.11608 0.0
H2770 H 0.81006 0.58076 0.05237 0.0
H2771 H 0.82958 0.5827 0.04909 0.0
H2772 H 0.4529 0.18023 0.10729 0.0
H2773 H 0.45656 0.20053 0.10526 0.0
H2774 H 0.4235 0.18855 0.03993 0.0
H2775 H 0.4198 0.16832 0.04144 0.0
H2776 H 0.44321 0.20981 0.00631 0.0
H2777 H 0.4378 0.21136 0.18155 0.0
H2778 H 0.44843 0.20745 0.16324 0.0
H2779 H 0.433 0.19767 0.15349 0.0
C2780 C 0.44645 0.18194 0.09221 0.0
C2781 C 0.43601 0.17266 0.07482 0.0
C2782 C 0.44854 0.19352 0.09122 0.0
C2783 C 0.44023 0.19597 0.0729 0.0
C2784 C 0.43001 0.1868 0.05428 0.0
H2785 H 0.41873 0.24634 0.04305 0.0
H2786 H 0.42329 0.23046 0.03781 0.0
C2787 C 0.4279 0.17525 0.05529 0.0
C2788 C 0.44179 0.20796 0.0744 0.0
H2789 H 0.44031 0.22762 0.1418 0.0
C2790 C 0.44273 0.2138 0.03594 0.0
C2791 C 0.44124 0.21314 0.11316 0.0
C2792 C 0.43999 0.2071 0.15529 0.0
C2793 C 0.44274 0.22452 0.03511 0.0
C2794 C 0.44154 0.22937 0.07368 0.0
C2795 C 0.44121 0.22384 0.11229 0.0
C2796 C 0.43942 0.23947 0.07447 0.0
C2797 C 0.44381 0.23045 0.9929 0.0
C2798 C 0.44689 0.24973 0.09746 0.0
C2799 C 0.44426 0.25884 0.10076 0.0
C2800 C 0.43406 0.25775 0.08149 0.0
C2801 C 0.42667 0.24748 0.05819 0.0
C2802 C 0.42932 0.23843 0.05484 0.0
H2803 H 0.44843 0.22791 0.96913 0.0
H2804 H 0.43485 0.22763 0.98046 0.0
H2805 H 0.44866 0.24021 0.99615 0.0
H2806 H 0.45466 0.25063 0.11319 0.0
H2807 H 0.45011 0.26663 0.11901 0.0
H2808 H 0.7258 0.17831 0.09943 0.0
H2809 H 0.74309 0.19824 0.10052 0.0
H2810 H 0.76584 0.18366 0.07965 0.0
H2811 H 0.74871 0.16378 0.07848 0.0
H2812 H 0.77177 0.20032 0.15126 0.0
H2813 H 0.76517 0.21692 0.99641 0.0
H2814 H 0.75276 0.20981 0.03201 0.0
H2815 H 0.75855 0.20134 0.00784 0.0
C2816 C 0.73448 0.17936 0.09482 0.0
C2817 C 0.73589 0.16947 0.08888 0.0
C2818 C 0.74432 0.19074 0.09531 0.0
C2819 C 0.75568 0.19237 0.08992 0.0
C2820 C 0.75711 0.18254 0.08377 0.0
H2821 H 0.82524 0.24823 0.04123 0.0
H2822 H 0.80528 0.23118 0.03997 0.0
C2823 C 0.74731 0.1712 0.08307 0.0
C2824 C 0.76622 0.20425 0.0921 0.0
H2825 H 0.78204 0.22982 0.03614 0.0
C2826 C 0.77398 0.20685 0.12639 0.0
C2827 C 0.76902 0.21264 0.05939 0.0
C2828 C 0.76101 0.2101 0.02159 0.0
C2829 C 0.78466 0.21757 0.12844 0.0
C2830 C 0.78756 0.22591 0.09544 0.0
C2831 C 0.7797 0.22341 0.06149 0.0
C2832 C 0.79917 0.23683 0.09411 0.0
C2833 C 0.79298 0.21973 0.16499 0.0
C2834 C 0.80221 0.24575 0.12444 0.0
C2835 C 0.81362 0.25553 0.12528 0.0
C2836 C 0.82215 0.25649 0.09583 0.0
C2837 C 0.81891 0.24772 0.06454 0.0
C2838 C 0.8075 0.238 0.06364 0.0
H2839 H 0.79022 0.21165 0.18429 0.0
H2840 H 0.80208 0.22293 0.15307 0.0
H2841 H 0.79322 0.22665 0.18604 0.0
H2842 H 0.79583 0.24502 0.14797 0.0
H2843 H 0.81582 0.26215 0.14966 0.0
H2844 H 0.54637 0.72738 0.94561 0.0
H2845 H 0.54307 0.74428 0.94494 0.0
H2846 H 0.57801 0.76631 0.89397 0.0
H2847 H 0.58136 0.74959 0.89418 0.0
H2848 H 0.55656 0.76624 0.98715 0.0
H2849 H 0.55683 0.77213 0.81281 0.0
H2850 H 0.55476 0.75868 0.83692 0.0
H2851 H 0.56935 0.77124 0.83126 0.0
C2852 C 0.55332 0.73582 0.93406 0.0
C2853 C 0.56411 0.73714 0.91982 0.0
C2854 C 0.55142 0.74544 0.93369 0.0
C2855 C 0.56022 0.75646 0.91869 0.0
C2856 C 0.57101 0.7578 0.90478 0.0
H2857 H 0.58206 0.82866 0.90476 0.0
H2858 H 0.57853 0.80851 0.90235 0.0
C2859 C 0.57293 0.74824 0.90521 0.0
C2860 C 0.55849 0.76679 0.9191 0.0
H2861 H 0.56043 0.78883 0.85561 0.0
C2862 C 0.55716 0.77108 0.95838 0.0
C2863 C 0.55922 0.77302 0.88144 0.0
C2864 C 0.56 0.76847 0.83817 0.0
C2865 C 0.55733 0.78188 0.96124 0.0
C2866 C 0.55872 0.78841 0.92376 0.0
C2867 C 0.55944 0.78382 0.8843 0.0
C2868 C 0.56054 0.8005 0.92506 0.0
C2869 C 0.55669 0.78654 0.00444 0.0
C2870 C 0.55153 0.80263 0.93832 0.0
C2871 C 0.55352 0.81418 0.93979 0.0
C2872 C 0.56455 0.82374 0.92793 0.0
C2873 C 0.57348 0.82151 0.91425 0.0
C2874 C 0.57148 0.81 0.91275 0.0
H2875 H 0.55743 0.78125 0.03066 0.0
H2876 H 0.56382 0.79586 0.00803 0.0
H2877 H 0.54811 0.78627 0.00771 0.0
H2878 H 0.54298 0.79537 0.9474 0.0
H2879 H 0.54645 0.8156 0.9503 0.0
H2880 H 0.18106 0.72932 0.86854 0.0
H2881 H 0.20117 0.74616 0.87362 0.0
H2882 H 0.18922 0.76298 0.96285 0.0
H2883 H 0.16919 0.74623 0.95828 0.0
H2884 H 0.20755 0.76918 0.8519 0.0
H2885 H 0.2192 0.76695 0.01944 0.0
H2886 H 0.20722 0.75456 0.99239 0.0
H2887 H 0.20511 0.76608 0.01429 0.0
C2888 C 0.18275 0.73653 0.88973 0.0
C2889 C 0.17352 0.73645 0.91296 0.0
C2890 C 0.19424 0.74612 0.89259 0.0
C2891 C 0.1967 0.75571 0.91908 0.0
C2892 C 0.18756 0.75554 0.94295 0.0
H2893 H 0.24382 0.82892 0.90685 0.0
H2894 H 0.22789 0.80844 0.90377 0.0
C2895 C 0.17609 0.746 0.94001 0.0
C2896 C 0.20851 0.76643 0.91896 0.0
H2897 H 0.23032 0.78587 0.98484 0.0
C2898 C 0.21264 0.77273 0.8808 0.0
C2899 C 0.21521 0.77096 0.95657 0.0
C2900 C 0.21152 0.76422 0.99791 0.0
C2901 C 0.22294 0.78381 0.87979 0.0
C2902 C 0.22915 0.78872 0.91803 0.0
C2903 C 0.22544 0.78211 0.95568 0.0
C2904 C 0.23894 0.80106 0.92007 0.0
C2905 C 0.22695 0.79029 0.83802 0.0
C2906 C 0.25037 0.80368 0.93133 0.0
C2907 C 0.25954 0.81542 0.93322 0.0
C2908 C 0.25735 0.82469 0.92433 0.0
C2909 C 0.24582 0.822 0.91376 0.0
C2910 C 0.23671 0.8103 0.91172 0.0
H2911 H 0.22339 0.78413 0.8106 0.0
H2912 H 0.22369 0.79663 0.83545 0.0
H2913 H 0.23673 0.79532 0.83585 0.0
H2914 H 0.25221 0.79664 0.93822 0.0
H2915 H 0.26832 0.81721 0.94158 0.0
H2916 H 0.18281 0.45408 0.89805 0.0
H2917 H 0.20283 0.45687 0.89621 0.0
H2918 H 0.18911 0.42079 0.93569 0.0
H2919 H 0.16919 0.41788 0.93782 0.0
H2920 H 0.21558 0.45077 0.96829 0.0
H2921 H 0.2072 0.4263 0.81598 0.0
H2922 H 0.19894 0.43334 0.83216 0.0
H2923 H 0.19577 0.41953 0.85545 0.0
C2924 C 0.18408 0.44677 0.90668 0.0
C2925 C 0.1744 0.43574 0.91783 0.0
C2926 C 0.1955 0.4484 0.90565 0.0
C2927 C 0.19735 0.439 0.91547 0.0
C2928 C 0.18779 0.42811 0.92775 0.0
H2929 H 0.24637 0.41549 0.92486 0.0
H2930 H 0.22989 0.41921 0.92393 0.0
C2931 C 0.17642 0.42648 0.92898 0.0
C2932 C 0.20916 0.44024 0.91159 0.0
H2933 H 0.22407 0.42955 0.8554 0.0
C2934 C 0.21759 0.44634 0.94327 0.0
C2935 C 0.21165 0.43445 0.87878 0.0
C2936 C 0.20297 0.4281 0.84338 0.0
C2937 C 0.22826 0.44619 0.94432 0.0
C2938 C 0.2305 0.43991 0.91256 0.0
C2939 C 0.22228 0.43432 0.87978 0.0
C2940 C 0.24074 0.43806 0.91469 0.0
C2941 C 0.23675 0.45219 0.98052 0.0
C2942 C 0.25233 0.44746 0.90985 0.0
C2943 C 0.26183 0.44537 0.91043 0.0
C2944 C 0.25986 0.43384 0.91565 0.0
C2945 C 0.24822 0.42448 0.92074 0.0
C2946 C 0.23878 0.42658 0.92019 0.0
H2947 H 0.23287 0.45511 0.0059 0.0
H2948 H 0.2395 0.44616 0.99467 0.0
H2949 H 0.24479 0.46006 0.96829 0.0
H2950 H 0.25399 0.45636 0.90496 0.0
H2951 H 0.27069 0.45276 0.90628 0.0
H2952 H 0.40291 0.89246 0.50272 0.0
H2953 H 0.42097 0.89123 0.50057 0.0
H2954 H 0.42775 0.90499 0.37279 0.0
H2955 H 0.40983 0.90641 0.37474 0.0
H2956 H 0.42894 0.87962 0.44364 0.0
H2957 H 0.45737 0.92845 0.43989 0.0
H2958 H 0.44189 0.92122 0.45342 0.0
H2959 H 0.44638 0.92242 0.39879 0.0
C2960 C 0.40818 0.89513 0.47401 0.0
C2961 C 0.40502 0.89968 0.43908 0.0
C2962 C 0.41848 0.8944 0.47285 0.0
C2963 C 0.42577 0.89821 0.43682 0.0
C2964 C 0.42234 0.90222 0.40119 0.0
H2965 H 0.49539 0.90948 0.38066 0.0
H2966 H 0.47558 0.90692 0.37696 0.0
C2967 C 0.41208 0.90299 0.40233 0.0
C2968 C 0.4372 0.89849 0.43715 0.0
H2969 H 0.46693 0.91729 0.43199 0.0
C2970 C 0.43727 0.88784 0.44114 0.0
C2971 C 0.44801 0.90925 0.43408 0.0
C2972 C 0.44848 0.921 0.43168 0.0
C2973 C 0.44791 0.88765 0.44132 0.0
C2974 C 0.45871 0.89841 0.4381 0.0
C2975 C 0.45862 0.90905 0.4342 0.0
C2976 C 0.47028 0.89896 0.43922 0.0
C2977 C 0.4475 0.87593 0.44418 0.0
C2978 C 0.47384 0.89529 0.47545 0.0
C2979 C 0.48515 0.89673 0.47767 0.0
C2980 C 0.49313 0.90195 0.44382 0.0
C2981 C 0.48946 0.90545 0.40731 0.0
C2982 C 0.47815 0.90398 0.4051 0.0
H2983 H 0.43869 0.86849 0.43518 0.0
H2984 H 0.45428 0.87579 0.42336 0.0
H2985 H 0.44932 0.87449 0.47741 0.0
H2986 H 0.46798 0.89163 0.5025 0.0
H2987 H 0.48773 0.89399 0.5063 0.0
H2988 H 0.08262 0.57771 0.43286 0.0
H2989 H 0.08608 0.5611 0.43756 0.0
H2990 H 0.1228 0.58402 0.40677 0.0
H2991 H 0.11941 0.60082 0.40161 0.0
H2992 H 0.11157 0.56264 0.3598 0.0
H2993 H 0.10347 0.55434 0.53234 0.0
H2994 H 0.09188 0.55542 0.50601 0.0
H2995 H 0.10652 0.56808 0.50787 0.0
C2996 C 0.09146 0.57928 0.4272 0.0
C2997 C 0.10076 0.59061 0.41698 0.0
C2998 C 0.09344 0.56977 0.43021 0.0
C2999 C 0.10474 0.57139 0.42332 0.0
C3000 C 0.11404 0.58264 0.41261 0.0
H3001 H 0.11839 0.51164 0.41162 0.0
H3002 H 0.12242 0.53209 0.41408 0.0
C3003 C 0.11208 0.5922 0.40967 0.0
C3004 C 0.10656 0.56112 0.42567 0.0
H3005 H 0.10152 0.53809 0.49008 0.0
C3006 C 0.10964 0.55738 0.38846 0.0
C3007 C 0.1041 0.55436 0.46324 0.0
C3008 C 0.10143 0.55832 0.50475 0.0
C3009 C 0.1095 0.54658 0.38708 0.0
C3010 C 0.1063 0.53947 0.42398 0.0
C3011 C 0.10389 0.54355 0.46179 0.0
C3012 C 0.10415 0.52726 0.42289 0.0
C3013 C 0.11206 0.5425 0.34566 0.0
C3014 C 0.09258 0.51786 0.42759 0.0
C3015 C 0.09025 0.50624 0.42621 0.0
C3016 C 0.09947 0.50379 0.42034 0.0
C3017 C 0.1111 0.51325 0.41606 0.0
C3018 C 0.11342 0.52492 0.41732 0.0
H3019 H 0.11307 0.54844 0.31879 0.0
H3020 H 0.12037 0.54221 0.34873 0.0
H3021 H 0.10487 0.53344 0.33797 0.0
H3022 H 0.08532 0.51953 0.43198 0.0
H3023 H 0.0812 0.49918 0.42977 0.0
H3024 H 0.49624 0.57812 0.38962 0.0
H3025 H 0.47642 0.56092 0.39082 0.0
H3026 H 0.46285 0.58198 0.44557 0.0
H3027 H 0.48272 0.59934 0.4444 0.0
H3028 H 0.4625 0.55182 0.46799 0.0
H3029 H 0.44029 0.56409 0.34331 0.0
H3030 H 0.45616 0.5708 0.34623 0.0
H3031 H 0.44849 0.57487 0.38372 0.0
C3032 C 0.48905 0.57915 0.40158 0.0
C3033 C 0.49106 0.5901 0.41699 0.0
C3034 C 0.47773 0.56931 0.40224 0.0
C3035 C 0.4682 0.57023 0.41799 0.0
C3036 C 0.47009 0.58116 0.43279 0.0
H3037 H 0.39485 0.5127 0.44417 0.0
H3038 H 0.41258 0.53233 0.44523 0.0
C3039 C 0.48145 0.59104 0.43225 0.0
C3040 C 0.45645 0.55953 0.42093 0.0
H3041 H 0.42886 0.54571 0.37723 0.0
C3042 C 0.45511 0.5505 0.44836 0.0
C3043 C 0.44684 0.55794 0.39556 0.0
C3044 C 0.44795 0.56738 0.36529 0.0
C3045 C 0.44447 0.53976 0.45044 0.0
C3046 C 0.43501 0.53795 0.42375 0.0
C3047 C 0.43618 0.54714 0.39745 0.0
C3048 C 0.42415 0.52631 0.42103 0.0
C3049 C 0.44346 0.5304 0.48097 0.0
C3050 C 0.42478 0.51655 0.40605 0.0
C3051 C 0.41474 0.50538 0.40541 0.0
C3052 C 0.40383 0.50377 0.41956 0.0
C3053 C 0.40313 0.51365 0.43324 0.0
C3054 C 0.41323 0.52485 0.43385 0.0
H3055 H 0.45007 0.53424 0.50696 0.0
H3056 H 0.4345 0.52555 0.49523 0.0
H3057 H 0.44506 0.52395 0.46353 0.0
H3058 H 0.43311 0.51756 0.3953 0.0
H3059 H 0.41558 0.49799 0.39436 0.0
loop_
_geom_bond_atom_site_label_1
_geom_bond_atom_site_label_2
_geom_bond_distance
_geom_bond_site_symmetry_2
_ccdc_geom_bond_type
C0 O1 1.160 . S
C0 O7 1.185 . S
O1 C0 1.160 . S
O2 Zn3 1.899 . S
O2 C10 1.284 . S
Zn3 O2 1.899 . S
Zn3 O4 2.032 . S
Zn3 O7 2.086 . S
Zn3 O12 1.977 . S
O4 Zn3 2.032 . S
O4 C8 1.278 . S
C5 O6 1.203 . S
C5 O12 1.267 . S
O6 C5 1.203 . S
O7 C0 1.185 . S
O7 Zn3 2.086 . S
C8 O4 1.278 . S
C8 O9 1.211 . S
O9 C8 1.211 . S
C10 O2 1.284 . S
C10 O11 1.273 . S
O11 C10 1.273 . S
O12 Zn3 1.977 . S
O12 C5 1.267 . S
C13 O14 1.160 . S
C13 O20 1.185 . S
O14 C13 1.160 . S
O15 Zn16 1.899 . S
O15 C23 1.284 . S
Zn16 O15 1.899 . S
Zn16 O17 2.032 . S
Zn16 O20 2.086 . S
Zn16 O25 1.977 . S
O17 Zn16 2.032 . S
O17 C21 1.278 . S
C18 O19 1.203 . S
C18 O25 1.267 . S
O19 C18 1.203 . S
O20 C13 1.185 . S
O20 Zn16 2.086 . S
C21 O17 1.278 . S
C21 O22 1.211 . S
O22 C21 1.211 . S
C23 O15 1.284 . S
C23 O24 1.273 . S
O24 C23 1.273 . S
O25 Zn16 1.977 . S
O25 C18 1.267 . S
C26 O27 1.160 . S
C26 O33 1.185 . S
O27 C26 1.160 . S
O28 Zn29 1.899 . S
O28 C36 1.284 . S
Zn29 O28 1.899 . S
Zn29 O30 2.032 . S
Zn29 O33 2.086 . S
Zn29 O38 1.977 . S
O30 Zn29 2.032 . S
O30 C34 1.278 . S
C31 O32 1.203 . S
C31 O38 1.267 . S
O32 C31 1.203 . S
O33 C26 1.185 . S
O33 Zn29 2.086 . S
C34 O30 1.278 . S
C34 O35 1.211 . S
O35 C34 1.211 . S
C36 O28 1.284 . S
C36 O37 1.273 . S
O37 C36 1.273 . S
O38 Zn29 1.977 . S
O38 C31 1.267 . S
C39 O40 1.160 . S
C39 O46 1.185 . S
O40 C39 1.160 . S
O41 Zn42 1.899 . S
O41 C49 1.284 . S
Zn42 O41 1.899 . S
Zn42 O43 2.032 . S
Zn42 O46 2.086 . S
Zn42 O51 1.977 . S
O43 Zn42 2.032 . S
O43 C47 1.278 . S
C44 O45 1.203 . S
C44 O51 1.267 . S
O45 C44 1.203 . S
O46 C39 1.185 . S
O46 Zn42 2.086 . S
C47 O43 1.278 . S
C47 O48 1.211 . S
O48 C47 1.211 . S
C49 O41 1.284 . S
C49 O50 1.273 . S
O50 C49 1.273 . S
O51 Zn42 1.977 . S
O51 C44 1.267 . S
C52 O53 1.160 . S
C52 O59 1.185 . S
O53 C52 1.160 . S
O54 Zn55 1.899 . S
O54 C62 1.284 . S
Zn55 O54 1.899 . S
Zn55 O56 2.032 . S
Zn55 O59 2.086 . S
Zn55 O64 1.977 . S
O56 Zn55 2.032 . S
O56 C60 1.278 . S
C57 O58 1.203 . S
C57 O64 1.267 . S
O58 C57 1.203 . S
O59 C52 1.185 . S
O59 Zn55 2.086 . S
C60 O56 1.278 . S
C60 O61 1.211 . S
O61 C60 1.211 . S
C62 O54 1.284 . S
C62 O63 1.273 . S
O63 C62 1.273 . S
O64 Zn55 1.977 . S
O64 C57 1.267 . S
C65 O66 1.160 . S
C65 O72 1.185 . S
O66 C65 1.160 . S
O67 Zn68 1.899 . S
O67 C75 1.284 . S
Zn68 O67 1.899 . S
Zn68 O69 2.032 . S
Zn68 O72 2.086 . S
Zn68 O77 1.977 . S
O69 Zn68 2.032 . S
O69 C73 1.278 . S
C70 O71 1.203 . S
C70 O77 1.267 . S
O71 C70 1.203 . S
O72 C65 1.185 . S
O72 Zn68 2.086 . S
C73 O69 1.278 . S
C73 O74 1.211 . S
O74 C73 1.211 . S
C75 O67 1.284 . S
C75 O76 1.273 . S
O76 C75 1.273 . S
O77 Zn68 1.977 . S
O77 C70 1.267 . S
C78 O79 1.160 . S
C78 O85 1.185 . S
O79 C78 1.160 . S
O80 Zn81 1.899 . S
O80 C88 1.284 . S
Zn81 O80 1.899 . S
Zn81 O82 2.032 . S
Zn81 O85 2.086 . S
Zn81 O90 1.977 . S
O82 Zn81 2.032 . S
O82 C86 1.278 . S
C83 O84 1.203 . S
C83 O90 1.267 . S
O84 C83 1.203 . S
O85 C78 1.185 . S
O85 Zn81 2.086 . S
C86 O82 1.278 . S
C86 O87 1.211 . S
O87 C86 1.211 . S
C88 O80 1.284 . S
C88 O89 1.273 . S
O89 C88 1.273 . S
O90 Zn81 1.977 . S
O90 C83 1.267 . S
C91 O92 1.160 . S
C91 O98 1.185 . S
O92 C91 1.160 . S
O93 Zn94 1.899 . S
O93 C101 1.284 . S
Zn94 O93 1.899 . S
Zn94 O95 2.032 . S
Zn94 O98 2.086 . S
Zn94 O103 1.977 . S
O95 Zn94 2.032 . S
O95 C99 1.278 . S
C96 O97 1.203 . S
C96 O103 1.267 . S
O97 C96 1.203 . S
O98 C91 1.185 . S
O98 Zn94 2.086 . S
C99 O95 1.278 . S
C99 O100 1.211 . S
O100 C99 1.211 . S
C101 O93 1.284 . S
C101 O102 1.273 . S
O102 C101 1.273 . S
O103 Zn94 1.977 . S
O103 C96 1.267 . S
C104 O105 1.160 . S
C104 O111 1.185 . S
O105 C104 1.160 . S
O106 Zn107 1.899 . S
O106 C114 1.284 . S
Zn107 O106 1.899 . S
Zn107 O108 2.032 . S
Zn107 O111 2.086 . S
Zn107 O116 1.977 . S
O108 Zn107 2.032 . S
O108 C112 1.278 . S
C109 O110 1.203 . S
C109 O116 1.267 . S
O110 C109 1.203 . S
O111 C104 1.185 . S
O111 Zn107 2.086 . S
C112 O108 1.278 . S
C112 O113 1.211 . S
O113 C112 1.211 . S
C114 O106 1.284 . S
C114 O115 1.273 . S
O115 C114 1.273 . S
O116 Zn107 1.977 . S
O116 C109 1.267 . S
C117 O118 1.160 . S
C117 O124 1.185 . S
O118 C117 1.160 . S
O119 Zn120 1.899 . S
O119 C127 1.284 . S
Zn120 O119 1.899 . S
Zn120 O121 2.032 . S
Zn120 O124 2.086 . S
Zn120 O129 1.977 . S
O121 Zn120 2.032 . S
O121 C125 1.278 . S
C122 O123 1.203 . S
C122 O129 1.267 . S
O123 C122 1.203 . S
O124 C117 1.185 . S
O124 Zn120 2.086 . S
C125 O121 1.278 . S
C125 O126 1.211 . S
O126 C125 1.211 . S
C127 O119 1.284 . S
C127 O128 1.273 . S
O128 C127 1.273 . S
O129 Zn120 1.977 . S
O129 C122 1.267 . S
C130 O131 1.160 . S
C130 O137 1.185 . S
O131 C130 1.160 . S
O132 Zn133 1.899 . S
O132 C140 1.284 . S
Zn133 O132 1.899 . S
Zn133 O134 2.032 . S
Zn133 O137 2.086 . S
Zn133 O142 1.977 . S
O134 Zn133 2.032 . S
O134 C138 1.278 . S
C135 O136 1.203 . S
C135 O142 1.267 . S
O136 C135 1.203 . S
O137 C130 1.185 . S
O137 Zn133 2.086 . S
C138 O134 1.278 . S
C138 O139 1.211 . S
O139 C138 1.211 . S
C140 O132 1.284 . S
C140 O141 1.273 . S
O141 C140 1.273 . S
O142 Zn133 1.977 . S
O142 C135 1.267 . S
C143 O144 1.160 . S
C143 O150 1.185 . S
O144 C143 1.160 . S
O145 Zn146 1.899 . S
O145 C153 1.284 . S
Zn146 O145 1.899 . S
Zn146 O147 2.032 . S
Zn146 O150 2.086 . S
Zn146 O155 1.977 . S
O147 Zn146 2.032 . S
O147 C151 1.278 . S
C148 O149 1.203 . S
C148 O155 1.267 . S
O149 C148 1.203 . S
O150 C143 1.185 . S
O150 Zn146 2.086 . S
C151 O147 1.278 . S
C151 O152 1.211 . S
O152 C151 1.211 . S
C153 O145 1.284 . S
C153 O154 1.273 . S
O154 C153 1.273 . S
O155 Zn146 1.977 . S
O155 C148 1.267 . S
C156 O157 1.160 . S
C156 O163 1.185 . S
O157 C156 1.160 . S
O158 Zn159 1.899 . S
O158 C166 1.284 . S
Zn159 O158 1.899 . S
Zn159 O160 2.032 . S
Zn159 O163 2.086 . S
Zn159 O168 1.977 . S
O160 Zn159 2.032 . S
O160 C164 1.278 . S
C161 O162 1.203 . S
C161 O168 1.267 . S
O162 C161 1.203 . S
O163 C156 1.185 . S
O163 Zn159 2.086 . S
C164 O160 1.278 . S
C164 O165 1.211 . S
O165 C164 1.211 . S
C166 O158 1.284 . S
C166 O167 1.273 . S
O167 C166 1.273 . S
O168 Zn159 1.977 . S
O168 C161 1.267 . S
C169 O170 1.160 . S
C169 O176 1.185 . S
O170 C169 1.160 . S
O171 Zn172 1.899 . S
O171 C179 1.284 . S
Zn172 O171 1.899 . S
Zn172 O173 2.032 . S
Zn172 O176 2.086 . S
Zn172 O181 1.977 . S
O173 Zn172 2.032 . S
O173 C177 1.278 . S
C174 O175 1.203 . S
C174 O181 1.267 . S
O175 C174 1.203 . S
O176 C169 1.185 . S
O176 Zn172 2.086 . S
C177 O173 1.278 . S
C177 O178 1.211 . S
O178 C177 1.211 . S
C179 O171 1.284 . S
C179 O180 1.273 . S
O180 C179 1.273 . S
O181 Zn172 1.977 . S
O181 C174 1.267 . S
C182 O183 1.160 . S
C182 O189 1.185 . S
O183 C182 1.160 . S
O184 Zn185 1.899 . S
O184 C192 1.284 . S
Zn185 O184 1.899 . S
Zn185 O186 2.032 . S
Zn185 O189 2.086 . S
Zn185 O194 1.977 . S
O186 Zn185 2.032 . S
O186 C190 1.278 . S
C187 O188 1.203 . S
C187 O194 1.267 . S
O188 C187 1.203 . S
O189 C182 1.185 . S
O189 Zn185 2.086 . S
C190 O186 1.278 . S
C190 O191 1.211 . S
O191 C190 1.211 . S
C192 O184 1.284 . S
C192 O193 1.273 . S
O193 C192 1.273 . S
O194 Zn185 1.977 . S
O194 C187 1.267 . S
C195 O196 1.160 . S
C195 O202 1.185 . S
O196 C195 1.160 . S
O197 Zn198 1.899 . S
O197 C205 1.284 . S
Zn198 O197 1.899 . S
Zn198 O199 2.032 . S
Zn198 O202 2.086 . S
Zn198 O207 1.977 . S
O199 Zn198 2.032 . S
O199 C203 1.278 . S
C200 O201 1.203 . S
C200 O207 1.267 . S
O201 C200 1.203 . S
O202 C195 1.185 . S
O202 Zn198 2.086 . S
C203 O199 1.278 . S
C203 O204 1.211 . S
O204 C203 1.211 . S
C205 O197 1.284 . S
C205 O206 1.273 . S
O206 C205 1.273 . S
O207 Zn198 1.977 . S
O207 C200 1.267 . S
C208 O209 1.160 . S
C208 O215 1.185 . S
O209 C208 1.160 . S
O210 Zn211 1.899 . S
O210 C218 1.284 . S
Zn211 O210 1.899 . S
Zn211 O212 2.032 . S
Zn211 O215 2.086 . S
Zn211 O220 1.977 . S
O212 Zn211 2.032 . S
O212 C216 1.278 . S
C213 O214 1.203 . S
C213 O220 1.267 . S
O214 C213 1.203 . S
O215 C208 1.185 . S
O215 Zn211 2.086 . S
C216 O212 1.278 . S
C216 O217 1.211 . S
O217 C216 1.211 . S
C218 O210 1.284 . S
C218 O219 1.273 . S
O219 C218 1.273 . S
O220 Zn211 1.977 . S
O220 C213 1.267 . S
C221 O222 1.160 . S
C221 O228 1.185 . S
O222 C221 1.160 . S
O223 Zn224 1.899 . S
O223 C231 1.284 . S
Zn224 O223 1.899 . S
Zn224 O225 2.032 . S
Zn224 O228 2.086 . S
Zn224 O233 1.977 . S
O225 Zn224 2.032 . S
O225 C229 1.278 . S
C226 O227 1.203 . S
C226 O233 1.267 . S
O227 C226 1.203 . S
O228 C221 1.185 . S
O228 Zn224 2.086 . S
C229 O225 1.278 . S
C229 O230 1.211 . S
O230 C229 1.211 . S
C231 O223 1.284 . S
C231 O232 1.273 . S
O232 C231 1.273 . S
O233 Zn224 1.977 . S
O233 C226 1.267 . S
C234 O235 1.160 . S
C234 O241 1.185 . S
O235 C234 1.160 . S
O236 Zn237 1.899 . S
O236 C244 1.284 . S
Zn237 O236 1.899 . S
Zn237 O238 2.032 . S
Zn237 O241 2.086 . S
Zn237 O246 1.977 . S
O238 Zn237 2.032 . S
O238 C242 1.278 . S
C239 O240 1.203 . S
C239 O246 1.267 . S
O240 C239 1.203 . S
O241 C234 1.185 . S
O241 Zn237 2.086 . S
C242 O238 1.278 . S
C242 O243 1.211 . S
O243 C242 1.211 . S
C244 O236 1.284 . S
C244 O245 1.273 . S
O245 C244 1.273 . S
O246 Zn237 1.977 . S
O246 C239 1.267 . S
C247 O248 1.160 . S
C247 O254 1.185 . S
O248 C247 1.160 . S
O249 Zn250 1.899 . S
O249 C257 1.284 . S
Zn250 O249 1.899 . S
Zn250 O251 2.032 . S
Zn250 O254 2.086 . S
Zn250 O259 1.977 . S
O251 Zn250 2.032 . S
O251 C255 1.278 . S
C252 O253 1.203 . S
C252 O259 1.267 . S
O253 C252 1.203 . S
O254 C247 1.185 . S
O254 Zn250 2.086 . S
C255 O251 1.278 . S
C255 O256 1.211 . S
O256 C255 1.211 . S
C257 O249 1.284 . S
C257 O258 1.273 . S
O258 C257 1.273 . S
O259 Zn250 1.977 . S
O259 C252 1.267 . S
C260 O261 1.160 . S
C260 O267 1.185 . S
O261 C260 1.160 . S
O262 Zn263 1.899 . S
O262 C270 1.284 . S
Zn263 O262 1.899 . S
Zn263 O264 2.032 . S
Zn263 O267 2.086 . S
Zn263 O272 1.977 . S
O264 Zn263 2.032 . S
O264 C268 1.278 . S
C265 O266 1.203 . S
C265 O272 1.267 . S
O266 C265 1.203 . S
O267 C260 1.185 . S
O267 Zn263 2.086 . S
C268 O264 1.278 . S
C268 O269 1.211 . S
O269 C268 1.211 . S
C270 O262 1.284 . S
C270 O271 1.273 . S
O271 C270 1.273 . S
O272 Zn263 1.977 . S
O272 C265 1.267 . S
C273 O274 1.160 . S
C273 O280 1.185 . S
O274 C273 1.160 . S
O275 Zn276 1.899 . S
O275 C283 1.284 . S
Zn276 O275 1.899 . S
Zn276 O277 2.032 . S
Zn276 O280 2.086 . S
Zn276 O285 1.977 . S
O277 Zn276 2.032 . S
O277 C281 1.278 . S
C278 O279 1.203 . S
C278 O285 1.267 . S
O279 C278 1.203 . S
O280 C273 1.185 . S
O280 Zn276 2.086 . S
C281 O277 1.278 . S
C281 O282 1.211 . S
O282 C281 1.211 . S
C283 O275 1.284 . S
C283 O284 1.273 . S
O284 C283 1.273 . S
O285 Zn276 1.977 . S
O285 C278 1.267 . S
C286 O287 1.160 . S
C286 O293 1.185 . S
O287 C286 1.160 . S
O288 Zn289 1.899 . S
O288 C296 1.284 . S
Zn289 O288 1.899 . S
Zn289 O290 2.032 . S
Zn289 O293 2.086 . S
Zn289 O298 1.977 . S
O290 Zn289 2.032 . S
O290 C294 1.278 . S
C291 O292 1.203 . S
C291 O298 1.267 . S
O292 C291 1.203 . S
O293 C286 1.185 . S
O293 Zn289 2.086 . S
C294 O290 1.278 . S
C294 O295 1.211 . S
O295 C294 1.211 . S
C296 O288 1.284 . S
C296 O297 1.273 . S
O297 C296 1.273 . S
O298 Zn289 1.977 . S
O298 C291 1.267 . S
C299 O300 1.160 . S
C299 O306 1.185 . S
O300 C299 1.160 . S
O301 Zn302 1.899 . S
O301 C309 1.284 . S
Zn302 O301 1.899 . S
Zn302 O303 2.032 . S
Zn302 O306 2.086 . S
Zn302 O311 1.977 . S
O303 Zn302 2.032 . S
O303 C307 1.278 . S
C304 O305 1.203 . S
C304 O311 1.267 . S
O305 C304 1.203 . S
O306 C299 1.185 . S
O306 Zn302 2.086 . S
C307 O303 1.278 . S
C307 O308 1.211 . S
O308 C307 1.211 . S
C309 O301 1.284 . S
C309 O310 1.273 . S
O310 C309 1.273 . S
O311 Zn302 1.977 . S
O311 C304 1.267 . S
C312 O313 1.160 . S
C312 O319 1.185 . S
O313 C312 1.160 . S
O314 Zn315 1.899 . S
O314 C322 1.284 . S
Zn315 O314 1.899 . S
Zn315 O316 2.032 . S
Zn315 O319 2.086 . S
Zn315 O324 1.977 . S
O316 Zn315 2.032 . S
O316 C320 1.278 . S
C317 O318 1.203 . S
C317 O324 1.267 . S
O318 C317 1.203 . S
O319 C312 1.185 . S
O319 Zn315 2.086 . S
C320 O316 1.278 . S
C320 O321 1.211 . S
O321 C320 1.211 . S
C322 O314 1.284 . S
C322 O323 1.273 . S
O323 C322 1.273 . S
O324 Zn315 1.977 . S
O324 C317 1.267 . S
C325 O326 1.160 . S
C325 O332 1.185 . S
O326 C325 1.160 . S
O327 Zn328 1.899 . S
O327 C335 1.284 . S
Zn328 O327 1.899 . S
Zn328 O329 2.032 . S
Zn328 O332 2.086 . S
Zn328 O337 1.977 . S
O329 Zn328 2.032 . S
O329 C333 1.278 . S
C330 O331 1.203 . S
C330 O337 1.267 . S
O331 C330 1.203 . S
O332 C325 1.185 . S
O332 Zn328 2.086 . S
C333 O329 1.278 . S
C333 O334 1.211 . S
O334 C333 1.211 . S
C335 O327 1.284 . S
C335 O336 1.273 . S
O336 C335 1.273 . S
O337 Zn328 1.977 . S
O337 C330 1.267 . S
C338 O339 1.160 . S
C338 O345 1.185 . S
O339 C338 1.160 . S
O340 Zn341 1.899 . S
O340 C348 1.284 . S
Zn341 O340 1.899 . S
Zn341 O342 2.032 . S
Zn341 O345 2.086 . S
Zn341 O350 1.977 . S
O342 Zn341 2.032 . S
O342 C346 1.278 . S
C343 O344 1.203 . S
C343 O350 1.267 . S
O344 C343 1.203 . S
O345 C338 1.185 . S
O345 Zn341 2.086 . S
C346 O342 1.278 . S
C346 O347 1.211 . S
O347 C346 1.211 . S
C348 O340 1.284 . S
C348 O349 1.273 . S
O349 C348 1.273 . S
O350 Zn341 1.977 . S
O350 C343 1.267 . S
C351 O352 1.160 . S
C351 O358 1.185 . S
O352 C351 1.160 . S
O353 Zn354 1.899 . S
O353 C361 1.284 . S
Zn354 O353 1.899 . S
Zn354 O355 2.032 . S
Zn354 O358 2.086 . S
Zn354 O363 1.977 . S
O355 Zn354 2.032 . S
O355 C359 1.278 . S
C356 O357 1.203 . S
C356 O363 1.267 . S
O357 C356 1.203 . S
O358 C351 1.185 . S
O358 Zn354 2.086 . S
C359 O355 1.278 . S
C359 O360 1.211 . S
O360 C359 1.211 . S
C361 O353 1.284 . S
C361 O362 1.273 . S
O362 C361 1.273 . S
O363 Zn354 1.977 . S
O363 C356 1.267 . S
C364 O365 1.160 . S
C364 O371 1.185 . S
O365 C364 1.160 . S
O366 Zn367 1.899 . S
O366 C374 1.284 . S
Zn367 O366 1.899 . S
Zn367 O368 2.032 . S
Zn367 O371 2.086 . S
Zn367 O376 1.977 . S
O368 Zn367 2.032 . S
O368 C372 1.278 . S
C369 O370 1.203 . S
C369 O376 1.267 . S
O370 C369 1.203 . S
O371 C364 1.185 . S
O371 Zn367 2.086 . S
C372 O368 1.278 . S
C372 O373 1.211 . S
O373 C372 1.211 . S
C374 O366 1.284 . S
C374 O375 1.273 . S
O375 C374 1.273 . S
O376 Zn367 1.977 . S
O376 C369 1.267 . S
C377 O378 1.160 . S
C377 O384 1.185 . S
O378 C377 1.160 . S
O379 Zn380 1.899 . S
O379 C387 1.284 . S
Zn380 O379 1.899 . S
Zn380 O381 2.032 . S
Zn380 O384 2.086 . S
Zn380 O389 1.977 . S
O381 Zn380 2.032 . S
O381 C385 1.278 . S
C382 O383 1.203 . S
C382 O389 1.267 . S
O383 C382 1.203 . S
O384 C377 1.185 . S
O384 Zn380 2.086 . S
C385 O381 1.278 . S
C385 O386 1.211 . S
O386 C385 1.211 . S
C387 O379 1.284 . S
C387 O388 1.273 . S
O388 C387 1.273 . S
O389 Zn380 1.977 . S
O389 C382 1.267 . S
C390 O391 1.160 . S
C390 O397 1.185 . S
O391 C390 1.160 . S
O392 Zn393 1.899 . S
O392 C400 1.284 . S
Zn393 O392 1.899 . S
Zn393 O394 2.032 . S
Zn393 O397 2.086 . S
Zn393 O402 1.977 . S
O394 Zn393 2.032 . S
O394 C398 1.278 . S
C395 O396 1.203 . S
C395 O402 1.267 . S
O396 C395 1.203 . S
O397 C390 1.185 . S
O397 Zn393 2.086 . S
C398 O394 1.278 . S
C398 O399 1.211 . S
O399 C398 1.211 . S
C400 O392 1.284 . S
C400 O401 1.273 . S
O401 C400 1.273 . S
O402 Zn393 1.977 . S
O402 C395 1.267 . S
C403 O404 1.160 . S
C403 O410 1.185 . S
O404 C403 1.160 . S
O405 Zn406 1.899 . S
O405 C413 1.284 . S
Zn406 O405 1.899 . S
Zn406 O407 2.032 . S
Zn406 O410 2.086 . S
Zn406 O415 1.977 . S
O407 Zn406 2.032 . S
O407 C411 1.278 . S
C408 O409 1.203 . S
C408 O415 1.267 . S
O409 C408 1.203 . S
O410 C403 1.185 . S
O410 Zn406 2.086 . S
C411 O407 1.278 . S
C411 O412 1.211 . S
O412 C411 1.211 . S
C413 O405 1.284 . S
C413 O414 1.273 . S
O414 C413 1.273 . S
O415 Zn406 1.977 . S
O415 C408 1.267 . S
C416 O417 1.160 . S
C416 O423 1.185 . S
O417 C416 1.160 . S
O418 Zn419 1.899 . S
O418 C426 1.284 . S
Zn419 O418 1.899 . S
Zn419 O420 2.032 . S
Zn419 O423 2.086 . S
Zn419 O428 1.977 . S
O420 Zn419 2.032 . S
O420 C424 1.278 . S
C421 O422 1.203 . S
C421 O428 1.267 . S
O422 C421 1.203 . S
O423 C416 1.185 . S
O423 Zn419 2.086 . S
C424 O420 1.278 . S
C424 O425 1.211 . S
O425 C424 1.211 . S
C426 O418 1.284 . S
C426 O427 1.273 . S
O427 C426 1.273 . S
O428 Zn419 1.977 . S
O428 C421 1.267 . S
C429 O430 1.160 . S
C429 O436 1.185 . S
O430 C429 1.160 . S
O431 Zn432 1.899 . S
O431 C439 1.284 . S
Zn432 O431 1.899 . S
Zn432 O433 2.032 . S
Zn432 O436 2.086 . S
Zn432 O441 1.977 . S
O433 Zn432 2.032 . S
O433 C437 1.278 . S
C434 O435 1.203 . S
C434 O441 1.267 . S
O435 C434 1.203 . S
O436 C429 1.185 . S
O436 Zn432 2.086 . S
C437 O433 1.278 . S
C437 O438 1.211 . S
O438 C437 1.211 . S
C439 O431 1.284 . S
C439 O440 1.273 . S
O440 C439 1.273 . S
O441 Zn432 1.977 . S
O441 C434 1.267 . S
C442 O443 1.160 . S
C442 O449 1.185 . S
O443 C442 1.160 . S
O444 Zn445 1.899 . S
O444 C452 1.284 . S
Zn445 O444 1.899 . S
Zn445 O446 2.032 . S
Zn445 O449 2.086 . S
Zn445 O454 1.977 . S
O446 Zn445 2.032 . S
O446 C450 1.278 . S
C447 O448 1.203 . S
C447 O454 1.267 . S
O448 C447 1.203 . S
O449 C442 1.185 . S
O449 Zn445 2.086 . S
C450 O446 1.278 . S
C450 O451 1.211 . S
O451 C450 1.211 . S
C452 O444 1.284 . S
C452 O453 1.273 . S
O453 C452 1.273 . S
O454 Zn445 1.977 . S
O454 C447 1.267 . S
C455 O456 1.160 . S
C455 O462 1.185 . S
O456 C455 1.160 . S
O457 Zn458 1.899 . S
O457 C465 1.284 . S
Zn458 O457 1.899 . S
Zn458 O459 2.032 . S
Zn458 O462 2.086 . S
Zn458 O467 1.977 . S
O459 Zn458 2.032 . S
O459 C463 1.278 . S
C460 O461 1.203 . S
C460 O467 1.267 . S
O461 C460 1.203 . S
O462 C455 1.185 . S
O462 Zn458 2.086 . S
C463 O459 1.278 . S
C463 O464 1.211 . S
O464 C463 1.211 . S
C465 O457 1.284 . S
C465 O466 1.273 . S
O466 C465 1.273 . S
O467 Zn458 1.977 . S
O467 C460 1.267 . S
H468 C476 0.929 . S
H469 C478 0.930 . S
H470 C480 0.930 . S
H471 C483 0.929 . S
H472 C486 0.930 . S
H473 C488 0.960 . S
H474 C488 0.960 . S
H475 C488 0.960 . S
C476 H468 0.929 . S
C476 C477 1.377 . S
C476 C478 1.384 . S
C477 C476 1.377 . S
C477 C483 1.390 . S
C478 H469 0.930 . S
C478 C476 1.384 . S
C478 C479 1.372 . S
C479 C478 1.372 . S
C479 C480 1.400 . S
C479 C484 1.490 . S
C480 H470 0.930 . S
C480 C479 1.400 . S
C480 C483 1.386 . S
H481 C497 0.930 . S
H482 C498 0.931 . S
C483 H471 0.929 . S
C483 C477 1.390 . S
C483 C480 1.386 . S
C484 C479 1.490 . S
C484 C486 1.395 . S
C484 C487 1.403 1_565 S
H485 C491 0.930 . S
C486 H472 0.930 . S
C486 C484 1.395 . S
C486 C489 1.403 . S
C487 C484 1.403 1_545 S
C487 C488 1.524 . S
C487 C491 1.400 . S
C488 H473 0.960 . S
C488 H474 0.960 . S
C488 H475 0.960 . S
C488 C487 1.524 . S
C489 C486 1.403 . S
C489 C490 1.392 1_565 S
C489 C493 1.495 . S
C490 C489 1.392 1_545 S
C490 C491 1.385 . S
C490 C492 1.478 . S
C491 H485 0.930 . S
C491 C487 1.400 . S
C491 C490 1.385 . S
C492 C490 1.478 . S
C492 C494 1.381 . S
C492 C498 1.383 . S
C493 C489 1.495 . S
C493 H499 0.959 . S
C493 H500 0.961 . S
C493 H501 0.960 . S
C494 C492 1.381 . S
C494 C495 1.394 . S
C494 H502 0.930 . S
C495 C494 1.394 . S
C495 C496 1.383 . S
C495 H503 0.929 . S
C496 C495 1.383 . S
C496 C497 1.377 . S
C497 H481 0.930 . S
C497 C496 1.377 . S
C497 C498 1.379 . S
C498 H482 0.931 . S
C498 C492 1.383 . S
C498 C497 1.379 . S
H499 C493 0.959 . S
H500 C493 0.961 . S
H501 C493 0.960 . S
H502 C494 0.930 . S
H503 C495 0.929 . S
H504 C512 0.929 . S
H505 C514 0.930 . S
H506 C516 0.930 . S
H507 C519 0.929 . S
H508 C522 0.930 . S
H509 C524 0.960 . S
H510 C524 0.960 . S
H511 C524 0.960 . S
C512 H504 0.929 . S
C512 C513 1.377 . S
C512 C514 1.384 . S
C513 C512 1.377 . S
C513 C519 1.390 . S
C514 H505 0.930 . S
C514 C512 1.384 . S
C514 C515 1.372 . S
C515 C514 1.372 . S
C515 C516 1.400 . S
C515 C520 1.490 . S
C516 H506 0.930 . S
C516 C515 1.400 . S
C516 C519 1.386 . S
H517 C533 0.930 . S
H518 C534 0.931 . S
C519 H507 0.929 . S
C519 C513 1.390 . S
C519 C516 1.386 . S
C520 C515 1.490 . S
C520 C522 1.395 . S
C520 C523 1.403 1_455 S
H521 C527 0.930 . S
C522 H508 0.930 . S
C522 C520 1.395 . S
C522 C525 1.403 . S
C523 C520 1.403 1_655 S
C523 C524 1.524 . S
C523 C527 1.400 . S
C524 H509 0.960 . S
C524 H510 0.960 . S
C524 H511 0.960 . S
C524 C523 1.524 . S
C525 C522 1.403 . S
C525 C526 1.392 1_455 S
C525 C529 1.495 . S
C526 C525 1.392 1_655 S
C526 C527 1.385 . S
C526 C528 1.478 . S
C527 H521 0.930 . S
C527 C523 1.400 . S
C527 C526 1.385 . S
C528 C526 1.478 . S
C528 C530 1.381 . S
C528 C534 1.383 . S
C529 C525 1.495 . S
C529 H535 0.959 . S
C529 H536 0.961 . S
C529 H537 0.960 . S
C530 C528 1.381 . S
C530 C531 1.394 . S
C530 H538 0.930 . S
C531 C530 1.394 . S
C531 C532 1.383 . S
C531 H539 0.929 . S
C532 C531 1.383 . S
C532 C533 1.377 . S
C533 H517 0.930 . S
C533 C532 1.377 . S
C533 C534 1.379 . S
C534 H518 0.931 . S
C534 C528 1.383 . S
C534 C533 1.379 . S
H535 C529 0.959 . S
H536 C529 0.961 . S
H537 C529 0.960 . S
H538 C530 0.930 . S
H539 C531 0.929 . S
H540 C548 0.929 . S
H541 C550 0.930 . S
H542 C552 0.930 . S
H543 C555 0.929 . S
H544 C558 0.930 . S
H545 C560 0.960 . S
H546 C560 0.960 . S
H547 C560 0.960 . S
C548 H540 0.929 . S
C548 C549 1.377 . S
C548 C550 1.384 . S
C549 C548 1.377 . S
C549 C555 1.390 . S
C550 H541 0.930 . S
C550 C548 1.384 . S
C550 C551 1.372 . S
C551 C550 1.372 . S
C551 C552 1.400 . S
C551 C556 1.490 . S
C552 H542 0.930 . S
C552 C551 1.400 . S
C552 C555 1.386 . S
H553 C569 0.930 . S
H554 C570 0.931 . S
C555 H543 0.929 . S
C555 C549 1.390 . S
C555 C552 1.386 . S
C556 C551 1.490 . S
C556 C558 1.395 . S
C556 C559 1.403 . S
H557 C563 0.930 . S
C558 H544 0.930 . S
C558 C556 1.395 . S
C558 C561 1.403 . S
C559 C556 1.403 . S
C559 C560 1.524 . S
C559 C563 1.400 . S
C560 H545 0.960 . S
C560 H546 0.960 . S
C560 H547 0.960 . S
C560 C559 1.524 . S
C561 C558 1.403 . S
C561 C562 1.392 . S
C561 C565 1.495 . S
C562 C561 1.392 . S
C562 C563 1.385 . S
C562 C564 1.478 . S
C563 H557 0.930 . S
C563 C559 1.400 . S
C563 C562 1.385 . S
C564 C562 1.478 . S
C564 C566 1.381 . S
C564 C570 1.383 . S
C565 C561 1.495 . S
C565 H571 0.959 . S
C565 H572 0.961 . S
C565 H573 0.960 . S
C566 C564 1.381 . S
C566 C567 1.394 . S
C566 H574 0.930 . S
C567 C566 1.394 . S
C567 C568 1.383 . S
C567 H575 0.929 . S
C568 C567 1.383 . S
C568 C569 1.377 . S
C569 H553 0.930 . S
C569 C568 1.377 . S
C569 C570 1.379 . S
C570 H554 0.931 . S
C570 C564 1.383 . S
C570 C569 1.379 . S
H571 C565 0.959 . S
H572 C565 0.961 . S
H573 C565 0.960 . S
H574 C566 0.930 . S
H575 C567 0.929 . S
H576 C584 0.929 . S
H577 C586 0.930 . S
H578 C588 0.930 . S
H579 C591 0.929 . S
H580 C594 0.930 . S
H581 C596 0.960 . S
H582 C596 0.960 . S
H583 C596 0.960 . S
C584 H576 0.929 . S
C584 C585 1.377 . S
C584 C586 1.384 . S
C585 C584 1.377 . S
C585 C591 1.390 . S
C586 H577 0.930 . S
C586 C584 1.384 . S
C586 C587 1.372 . S
C587 C586 1.372 . S
C587 C588 1.400 . S
C587 C592 1.490 . S
C588 H578 0.930 . S
C588 C587 1.400 . S
C588 C591 1.386 . S
H589 C605 0.930 . S
H590 C606 0.931 . S
C591 H579 0.929 . S
C591 C585 1.390 . S
C591 C588 1.386 . S
C592 C587 1.490 . S
C592 C594 1.395 1_565 S
C592 C595 1.403 . S
H593 C599 0.930 . S
C594 H580 0.930 . S
C594 C592 1.395 1_545 S
C594 C597 1.403 . S
C595 C592 1.403 . S
C595 C596 1.524 . S
C595 C599 1.400 . S
C596 H581 0.960 . S
C596 H582 0.960 . S
C596 H583 0.960 . S
C596 C595 1.524 . S
C597 C594 1.403 . S
C597 C598 1.392 . S
C597 C601 1.495 . S
C598 C597 1.392 . S
C598 C599 1.385 1_545 S
C598 C600 1.478 . S
C599 H593 0.930 . S
C599 C595 1.400 . S
C599 C598 1.385 1_565 S
C600 C598 1.478 . S
C600 C602 1.381 . S
C600 C606 1.383 . S
C601 C597 1.495 . S
C601 H607 0.959 . S
C601 H608 0.961 . S
C601 H609 0.960 . S
C602 C600 1.381 . S
C602 C603 1.394 . S
C602 H610 0.930 . S
C603 C602 1.394 . S
C603 C604 1.383 . S
C603 H611 0.929 . S
C604 C603 1.383 . S
C604 C605 1.377 . S
C605 H589 0.930 . S
C605 C604 1.377 . S
C605 C606 1.379 . S
C606 H590 0.931 . S
C606 C600 1.383 . S
C606 C605 1.379 . S
H607 C601 0.959 . S
H608 C601 0.961 . S
H609 C601 0.960 . S
H610 C602 0.930 . S
H611 C603 0.929 . S
H612 C620 0.929 . S
H613 C622 0.930 . S
H614 C624 0.930 . S
H615 C627 0.929 . S
H616 C630 0.930 . S
H617 C632 0.960 1_655 S
H618 C632 0.960 . S
H619 C632 0.979 . S
C620 H612 0.929 . S
C620 C621 1.377 . S
C620 C622 1.384 . S
C621 C620 1.377 . S
C621 C627 1.390 . S
C622 H613 0.930 . S
C622 C620 1.384 . S
C622 C623 1.372 . S
C623 C622 1.372 . S
C623 C624 1.400 . S
C623 C628 1.490 . S
C624 H614 0.930 . S
C624 C623 1.400 . S
C624 C627 1.386 . S
H625 C641 0.930 . S
H626 C642 0.931 . S
C627 H615 0.929 . S
C627 C621 1.390 . S
C627 C624 1.386 . S
C628 C623 1.490 . S
C628 C630 1.395 . S
C628 C631 1.403 . S
H629 C635 0.930 . S
C630 H616 0.930 . S
C630 C628 1.395 . S
C630 C633 1.375 1_455 S
C631 C628 1.403 . S
C631 C632 1.524 . S
C631 C635 1.400 1_455 S
C632 H617 0.960 1_455 S
C632 H618 0.960 . S
C632 H619 0.979 . S
C632 C631 1.524 . S
C633 C630 1.375 1_655 S
C633 C634 1.447 . S
C633 C637 1.472 . S
C634 C633 1.447 . S
C634 C635 1.385 . S
C634 C636 1.478 . S
C635 H629 0.930 . S
C635 C631 1.400 1_655 S
C635 C634 1.385 . S
C636 C634 1.478 . S
C636 C638 1.381 . S
C636 C642 1.383 . S
C637 C633 1.472 . S
C637 H643 0.959 1_655 S
C637 H644 0.961 . S
C637 H645 0.960 1_655 S
C638 C636 1.381 . S
C638 C639 1.394 . S
C638 H646 0.930 . S
C639 C638 1.394 . S
C639 C640 1.383 . S
C639 H647 0.929 . S
C640 C639 1.383 . S
C640 C641 1.377 . S
C641 H625 0.930 . S
C641 C640 1.377 . S
C641 C642 1.379 . S
C642 H626 0.931 . S
C642 C636 1.383 . S
C642 C641 1.379 . S
H643 C637 0.959 1_455 S
H644 C637 0.961 . S
H645 C637 0.960 1_455 S
H646 C638 0.930 . S
H647 C639 0.929 . S
H648 C656 0.929 . S
H649 C658 0.930 . S
H650 C660 0.930 . S
H651 C663 0.929 . S
H652 C666 0.930 . S
H653 C668 0.960 . S
H654 C668 0.960 . S
H655 C668 0.960 . S
C656 H648 0.929 . S
C656 C657 1.377 . S
C656 C658 1.384 . S
C657 C656 1.377 . S
C657 C663 1.390 . S
C658 H649 0.930 . S
C658 C656 1.384 . S
C658 C659 1.372 . S
C659 C658 1.372 . S
C659 C660 1.400 . S
C659 C664 1.490 . S
C660 H650 0.930 . S
C660 C659 1.400 . S
C660 C663 1.386 . S
H661 C677 0.930 . S
H662 C678 0.931 . S
C663 H651 0.929 . S
C663 C657 1.390 . S
C663 C660 1.386 . S
C664 C659 1.490 . S
C664 C666 1.395 . S
C664 C667 1.403 . S
H665 C671 0.930 . S
C666 H652 0.930 . S
C666 C664 1.395 . S
C666 C669 1.403 . S
C667 C664 1.403 . S
C667 C668 1.524 . S
C667 C671 1.400 . S
C668 H653 0.960 . S
C668 H654 0.960 . S
C668 H655 0.960 . S
C668 C667 1.524 . S
C669 C666 1.403 . S
C669 C670 1.392 . S
C669 C673 1.495 . S
C670 C669 1.392 . S
C670 C671 1.385 . S
C670 C672 1.478 . S
C671 H665 0.930 . S
C671 C667 1.400 . S
C671 C670 1.385 . S
C672 C670 1.478 . S
C672 C674 1.381 . S
C672 C678 1.383 . S
C673 C669 1.495 . S
C673 H679 0.959 . S
C673 H680 0.961 . S
C673 H681 0.960 . S
C674 C672 1.381 . S
C674 C675 1.394 . S
C674 H682 0.930 . S
C675 C674 1.394 . S
C675 C676 1.383 . S
C675 H683 0.929 . S
C676 C675 1.383 . S
C676 C677 1.377 . S
C677 H661 0.930 . S
C677 C676 1.377 . S
C677 C678 1.379 . S
C678 H662 0.931 . S
C678 C672 1.383 . S
C678 C677 1.379 . S
H679 C673 0.959 . S
H680 C673 0.961 . S
H681 C673 0.960 . S
H682 C674 0.930 . S
H683 C675 0.929 . S
H684 C692 0.929 . S
H685 C694 0.930 . S
H686 C696 0.930 . S
H687 C699 0.929 . S
H688 C702 0.930 . S
H689 C704 0.960 . S
H690 C704 0.960 . S
H691 C704 0.960 . S
C692 H684 0.929 . S
C692 C693 1.377 . S
C692 C694 1.384 . S
C693 C692 1.377 . S
C693 C699 1.390 . S
C694 H685 0.930 . S
C694 C692 1.384 . S
C694 C695 1.372 . S
C695 C694 1.372 . S
C695 C696 1.400 . S
C695 C700 1.490 . S
C696 H686 0.930 . S
C696 C695 1.400 . S
C696 C699 1.386 . S
H697 C713 0.930 . S
H698 C714 0.931 . S
C699 H687 0.929 . S
C699 C693 1.390 . S
C699 C696 1.386 . S
C700 C695 1.490 . S
C700 C702 1.395 . S
C700 C703 1.403 . S
H701 C707 0.930 . S
C702 H688 0.930 . S
C702 C700 1.395 . S
C702 C705 1.403 . S
C703 C700 1.403 . S
C703 C704 1.524 . S
C703 C707 1.400 . S
C704 H689 0.960 . S
C704 H690 0.960 . S
C704 H691 0.960 . S
C704 C703 1.524 . S
C705 C702 1.403 . S
C705 C706 1.392 . S
C705 C709 1.495 . S
C706 C705 1.392 . S
C706 C707 1.385 . S
C706 C708 1.478 . S
C707 H701 0.930 . S
C707 C703 1.400 . S
C707 C706 1.385 . S
C708 C706 1.478 . S
C708 C710 1.381 . S
C708 C714 1.383 . S
C709 C705 1.495 . S
C709 H715 0.959 . S
C709 H716 0.961 . S
C709 H717 0.960 . S
C710 C708 1.381 . S
C710 C711 1.394 . S
C710 H718 0.930 . S
C711 C710 1.394 . S
C711 C712 1.383 . S
C711 H719 0.929 1_556 S
C712 C711 1.383 . S
C712 C713 1.377 . S
C713 H697 0.930 . S
C713 C712 1.377 . S
C713 C714 1.379 . S
C714 H698 0.931 . S
C714 C708 1.383 . S
C714 C713 1.379 . S
H715 C709 0.959 . S
H716 C709 0.961 . S
H717 C709 0.960 . S
H718 C710 0.930 . S
H719 C711 0.929 1_554 S
H720 C728 0.929 . S
H721 C730 0.930 . S
H722 C732 0.930 . S
H723 C735 0.929 . S
H724 C738 0.930 . S
H725 C740 0.960 . S
H726 C740 0.960 . S
H727 C740 0.960 . S
C728 H720 0.929 . S
C728 C729 1.377 . S
C728 C730 1.384 . S
C729 C728 1.377 . S
C729 C735 1.390 . S
C730 H721 0.930 . S
C730 C728 1.384 . S
C730 C731 1.372 . S
C731 C730 1.372 . S
C731 C732 1.400 . S
C731 C736 1.490 . S
C732 H722 0.930 . S
C732 C731 1.400 . S
C732 C735 1.386 . S
H733 C749 0.930 . S
H734 C750 0.931 . S
C735 H723 0.929 . S
C735 C729 1.390 . S
C735 C732 1.386 . S
C736 C731 1.490 . S
C736 C738 1.395 . S
C736 C739 1.403 . S
H737 C743 0.930 . S
C738 H724 0.930 . S
C738 C736 1.395 . S
C738 C741 1.403 . S
C739 C736 1.403 . S
C739 C740 1.524 . S
C739 C743 1.400 . S
C740 H725 0.960 . S
C740 H726 0.960 . S
C740 H727 0.960 . S
C740 C739 1.524 . S
C741 C738 1.403 . S
C741 C742 1.392 . S
C741 C745 1.495 . S
C742 C741 1.392 . S
C742 C743 1.385 . S
C742 C744 1.478 . S
C743 H737 0.930 . S
C743 C739 1.400 . S
C743 C742 1.385 . S
C744 C742 1.478 . S
C744 C746 1.381 . S
C744 C750 1.383 . S
C745 C741 1.495 . S
C745 H751 0.959 . S
C745 H752 0.961 . S
C745 H753 0.960 . S
C746 C744 1.381 . S
C746 C747 1.394 . S
C746 H754 0.930 . S
C747 C746 1.394 . S
C747 C748 1.383 . S
C747 H755 0.929 . S
C748 C747 1.383 . S
C748 C749 1.377 . S
C749 H733 0.930 . S
C749 C748 1.377 . S
C749 C750 1.379 . S
C750 H734 0.931 . S
C750 C744 1.383 . S
C750 C749 1.379 . S
H751 C745 0.959 . S
H752 C745 0.961 . S
H753 C745 0.960 . S
H754 C746 0.930 . S
H755 C747 0.929 . S
H756 C764 0.929 . S
H757 C766 0.930 . S
H758 C768 0.930 . S
H759 C771 0.929 . S
H760 C774 0.930 . S
H761 C776 0.960 . S
H762 C776 0.960 . S
H763 C776 0.960 . S
C764 H756 0.929 . S
C764 C765 1.377 . S
C764 C766 1.384 . S
C765 C764 1.377 . S
C765 C771 1.390 . S
C766 H757 0.930 . S
C766 C764 1.384 . S
C766 C767 1.372 . S
C767 C766 1.372 . S
C767 C768 1.400 . S
C767 C772 1.490 . S
C768 H758 0.930 . S
C768 C767 1.400 . S
C768 C771 1.386 . S
H769 C785 0.930 . S
H770 C786 0.931 . S
C771 H759 0.929 . S
C771 C765 1.390 . S
C771 C768 1.386 . S
C772 C767 1.490 . S
C772 C774 1.395 . S
C772 C775 1.403 . S
H773 C779 0.930 . S
C774 H760 0.930 . S
C774 C772 1.395 . S
C774 C777 1.403 . S
C775 C772 1.403 . S
C775 C776 1.524 . S
C775 C779 1.400 . S
C776 H761 0.960 . S
C776 H762 0.960 . S
C776 H763 0.960 . S
C776 C775 1.524 . S
C777 C774 1.403 . S
C777 C778 1.392 . S
C777 C781 1.495 . S
C778 C777 1.392 . S
C778 C779 1.385 . S
C778 C780 1.478 . S
C779 H773 0.930 . S
C779 C775 1.400 . S
C779 C778 1.385 . S
C780 C778 1.478 . S
C780 C782 1.381 . S
C780 C786 1.383 . S
C781 C777 1.495 . S
C781 H787 0.959 . S
C781 H788 0.961 . S
C781 H789 0.960 . S
C782 C780 1.381 . S
C782 C783 1.394 . S
C782 H790 0.930 . S
C783 C782 1.394 . S
C783 C784 1.383 . S
C783 H791 0.929 1_556 S
C784 C783 1.383 . S
C784 C785 1.377 . S
C785 H769 0.930 . S
C785 C784 1.377 . S
C785 C786 1.379 . S
C786 H770 0.931 . S
C786 C780 1.383 . S
C786 C785 1.379 . S
H787 C781 0.959 . S
H788 C781 0.961 . S
H789 C781 0.960 . S
H790 C782 0.930 . S
H791 C783 0.929 1_554 S
H792 C800 0.929 . S
H793 C802 0.930 . S
H794 C804 0.930 . S
H795 C807 0.929 . S
H796 C810 0.930 . S
H797 C812 0.960 . S
H798 C812 0.960 . S
H799 C812 0.960 . S
C800 H792 0.929 . S
C800 C801 1.377 . S
C800 C802 1.384 . S
C801 C800 1.377 . S
C801 C807 1.390 . S
C802 H793 0.930 . S
C802 C800 1.384 . S
C802 C803 1.372 . S
C803 C802 1.372 . S
C803 C804 1.400 . S
C803 C808 1.490 . S
C804 H794 0.930 . S
C804 C803 1.400 . S
C804 C807 1.386 . S
H805 C821 0.930 . S
H806 C822 0.931 . S
C807 H795 0.929 . S
C807 C801 1.390 . S
C807 C804 1.386 . S
C808 C803 1.490 . S
C808 C810 1.395 . S
C808 C811 1.403 . S
H809 C815 0.930 . S
C810 H796 0.930 . S
C810 C808 1.395 . S
C810 C813 1.403 . S
C811 C808 1.403 . S
C811 C812 1.524 . S
C811 C815 1.400 . S
C812 H797 0.960 . S
C812 H798 0.960 . S
C812 H799 0.960 . S
C812 C811 1.524 . S
C813 C810 1.403 . S
C813 C814 1.392 . S
C813 C817 1.495 . S
C814 C813 1.392 . S
C814 C815 1.385 . S
C814 C816 1.478 . S
C815 H809 0.930 . S
C815 C811 1.400 . S
C815 C814 1.385 . S
C816 C814 1.478 . S
C816 C818 1.381 . S
C816 C822 1.383 . S
C817 C813 1.495 . S
C817 H823 0.959 . S
C817 H824 0.961 . S
C817 H825 0.960 . S
C818 C816 1.381 . S
C818 C819 1.394 . S
C818 H826 0.930 . S
C819 C818 1.394 . S
C819 C820 1.383 . S
C819 H827 0.929 1_556 S
C820 C819 1.383 . S
C820 C821 1.377 . S
C821 H805 0.930 . S
C821 C820 1.377 . S
C821 C822 1.379 . S
C822 H806 0.931 . S
C822 C816 1.383 . S
C822 C821 1.379 . S
H823 C817 0.959 . S
H824 C817 0.961 . S
H825 C817 0.960 . S
H826 C818 0.930 . S
H827 C819 0.929 1_554 S
H828 C836 0.929 . S
H829 C838 0.930 . S
H830 C840 0.930 . S
H831 C843 0.929 1_554 S
H832 C846 0.930 . S
H833 C848 0.960 . S
H834 C848 0.960 . S
H835 C848 0.960 . S
C836 H828 0.929 . S
C836 C837 1.377 . S
C836 C838 1.384 . S
C837 C836 1.377 . S
C837 C843 1.390 . S
C838 H829 0.930 . S
C838 C836 1.384 . S
C838 C839 1.372 . S
C839 C838 1.372 . S
C839 C840 1.400 . S
C839 C844 1.490 . S
C840 H830 0.930 . S
C840 C839 1.400 . S
C840 C843 1.386 . S
H841 C857 0.930 . S
H842 C858 0.931 . S
C843 H831 0.929 1_556 S
C843 C837 1.390 . S
C843 C840 1.386 . S
C844 C839 1.490 . S
C844 C846 1.395 . S
C844 C847 1.403 . S
H845 C851 0.930 . S
C846 H832 0.930 . S
C846 C844 1.395 . S
C846 C849 1.403 . S
C847 C844 1.403 . S
C847 C848 1.524 . S
C847 C851 1.400 . S
C848 H833 0.960 . S
C848 H834 0.960 . S
C848 H835 0.960 . S
C848 C847 1.524 . S
C849 C846 1.403 . S
C849 C850 1.392 . S
C849 C853 1.495 . S
C850 C849 1.392 . S
C850 C851 1.385 . S
C850 C852 1.478 . S
C851 H845 0.930 . S
C851 C847 1.400 . S
C851 C850 1.385 . S
C852 C850 1.478 . S
C852 C854 1.381 . S
C852 C858 1.383 . S
C853 C849 1.495 . S
C853 H859 0.959 . S
C853 H860 0.961 . S
C853 H861 0.960 . S
C854 C852 1.381 . S
C854 C855 1.394 . S
C854 H862 0.930 . S
C855 C854 1.394 . S
C855 C856 1.383 . S
C855 H863 0.929 . S
C856 C855 1.383 . S
C856 C857 1.377 . S
C857 H841 0.930 . S
C857 C856 1.377 . S
C857 C858 1.379 . S
C858 H842 0.931 . S
C858 C852 1.383 . S
C858 C857 1.379 . S
H859 C853 0.959 . S
H860 C853 0.961 . S
H861 C853 0.960 . S
H862 C854 0.930 . S
H863 C855 0.929 . S
H864 C872 0.929 . S
H865 C874 0.930 . S
H866 C876 0.930 . S
H867 C879 0.929 . S
H868 C882 0.930 . S
H869 C884 0.960 . S
H870 C884 0.960 . S
H871 C884 0.960 . S
C872 H864 0.929 . S
C872 C873 1.377 . S
C872 C874 1.384 . S
C873 C872 1.377 . S
C873 C879 1.390 . S
C874 H865 0.930 . S
C874 C872 1.384 . S
C874 C875 1.372 . S
C875 C874 1.372 . S
C875 C876 1.400 . S
C875 C880 1.490 . S
C876 H866 0.930 . S
C876 C875 1.400 . S
C876 C879 1.386 . S
H877 C893 0.930 . S
H878 C894 0.931 . S
C879 H867 0.929 . S
C879 C873 1.390 . S
C879 C876 1.386 . S
C880 C875 1.490 . S
C880 C882 1.395 . S
C880 C883 1.403 . S
H881 C887 0.930 . S
C882 H868 0.930 . S
C882 C880 1.395 . S
C882 C885 1.403 . S
C883 C880 1.403 . S
C883 C884 1.524 . S
C883 C887 1.400 . S
C884 H869 0.960 . S
C884 H870 0.960 . S
C884 H871 0.960 . S
C884 C883 1.524 . S
C885 C882 1.403 . S
C885 C886 1.392 . S
C885 C889 1.495 . S
C886 C885 1.392 . S
C886 C887 1.385 . S
C886 C888 1.478 . S
C887 H881 0.930 . S
C887 C883 1.400 . S
C887 C886 1.385 . S
C888 C886 1.478 . S
C888 C890 1.381 . S
C888 C894 1.383 . S
C889 C885 1.495 . S
C889 H895 0.959 . S
C889 H896 0.961 . S
C889 H897 0.960 . S
C890 C888 1.381 . S
C890 C891 1.394 . S
C890 H898 0.930 . S
C891 C890 1.394 . S
C891 C892 1.383 . S
C891 H899 0.929 . S
C892 C891 1.383 . S
C892 C893 1.377 . S
C893 H877 0.930 . S
C893 C892 1.377 . S
C893 C894 1.379 . S
C894 H878 0.931 . S
C894 C888 1.383 . S
C894 C893 1.379 . S
H895 C889 0.959 . S
H896 C889 0.961 . S
H897 C889 0.960 . S
H898 C890 0.930 . S
H899 C891 0.929 . S
H900 C908 0.929 . S
H901 C910 0.930 . S
H902 C912 0.930 . S
H903 C915 0.929 . S
H904 C918 0.930 . S
H905 C920 0.960 . S
H906 C920 0.960 . S
H907 C920 0.960 . S
C908 H900 0.929 . S
C908 C909 1.377 . S
C908 C910 1.384 . S
C909 C908 1.377 . S
C909 C915 1.390 . S
C910 H901 0.930 . S
C910 C908 1.384 . S
C910 C911 1.372 . S
C911 C910 1.372 . S
C911 C912 1.400 . S
C911 C916 1.490 . S
C912 H902 0.930 . S
C912 C911 1.400 . S
C912 C915 1.386 . S
H913 C929 0.930 . S
H914 C930 0.931 . S
C915 H903 0.929 . S
C915 C909 1.390 . S
C915 C912 1.386 . S
C916 C911 1.490 . S
C916 C918 1.395 . S
C916 C919 1.403 . S
H917 C923 0.930 . S
C918 H904 0.930 . S
C918 C916 1.395 . S
C918 C921 1.403 . S
C919 C916 1.403 . S
C919 C920 1.524 . S
C919 C923 1.400 . S
C920 H905 0.960 . S
C920 H906 0.960 . S
C920 H907 0.960 . S
C920 C919 1.524 . S
C921 C918 1.403 . S
C921 C922 1.392 . S
C921 C925 1.495 . S
C922 C921 1.392 . S
C922 C923 1.385 . S
C922 C924 1.478 . S
C923 H917 0.930 . S
C923 C919 1.400 . S
C923 C922 1.385 . S
C924 C922 1.478 . S
C924 C926 1.381 . S
C924 C930 1.383 . S
C925 C921 1.495 . S
C925 H931 0.959 . S
C925 H932 0.961 . S
C925 H933 0.960 . S
C926 C924 1.381 . S
C926 C927 1.394 . S
C926 H934 0.930 . S
C927 C926 1.394 . S
C927 C928 1.383 . S
C927 H935 0.929 . S
C928 C927 1.383 . S
C928 C929 1.377 . S
C929 H913 0.930 . S
C929 C928 1.377 . S
C929 C930 1.379 . S
C930 H914 0.931 . S
C930 C924 1.383 . S
C930 C929 1.379 . S
H931 C925 0.959 . S
H932 C925 0.961 . S
H933 C925 0.960 . S
H934 C926 0.930 . S
H935 C927 0.929 . S
H936 C944 0.929 . S
H937 C946 0.930 . S
H938 C948 0.930 . S
H939 C951 0.929 . S
H940 C954 0.930 . S
H941 C956 0.960 . S
H942 C956 0.960 . S
H943 C956 0.960 . S
C944 H936 0.929 . S
C944 C945 1.377 . S
C944 C946 1.384 . S
C945 C944 1.377 . S
C945 C951 1.390 . S
C946 H937 0.930 . S
C946 C944 1.384 . S
C946 C947 1.372 . S
C947 C946 1.372 . S
C947 C948 1.400 . S
C947 C952 1.490 . S
C948 H938 0.930 . S
C948 C947 1.400 . S
C948 C951 1.386 . S
H949 C965 0.930 1_556 S
H950 C966 0.931 . S
C951 H939 0.929 . S
C951 C945 1.390 . S
C951 C948 1.386 . S
C952 C947 1.490 . S
C952 C954 1.395 . S
C952 C955 1.403 . S
H953 C959 0.930 . S
C954 H940 0.930 . S
C954 C952 1.395 . S
C954 C957 1.403 . S
C955 C952 1.403 . S
C955 C956 1.524 . S
C955 C959 1.400 . S
C956 H941 0.960 . S
C956 H942 0.960 . S
C956 H943 0.960 . S
C956 C955 1.524 . S
C957 C954 1.403 . S
C957 C958 1.392 . S
C957 C961 1.495 . S
C958 C957 1.392 . S
C958 C959 1.385 . S
C958 C960 1.478 . S
C959 H953 0.930 . S
C959 C955 1.400 . S
C959 C958 1.385 . S
C960 C958 1.478 . S
C960 C962 1.381 . S
C960 C966 1.383 . S
C961 C957 1.495 . S
C961 H967 0.959 . S
C961 H968 0.961 . S
C961 H969 0.960 . S
C962 C960 1.381 . S
C962 C963 1.394 . S
C962 H970 0.930 . S
C963 C962 1.394 . S
C963 C964 1.383 . S
C963 H971 0.929 . S
C964 C963 1.383 . S
C964 C965 1.377 . S
C965 H949 0.930 1_554 S
C965 C964 1.377 . S
C965 C966 1.379 . S
C966 H950 0.931 . S
C966 C960 1.383 . S
C966 C965 1.379 . S
H967 C961 0.959 . S
H968 C961 0.961 . S
H969 C961 0.960 . S
H970 C962 0.930 . S
H971 C963 0.929 . S
H972 C980 0.929 . S
H973 C982 0.930 . S
H974 C984 0.930 . S
H975 C987 0.929 . S
H976 C990 0.930 . S
H977 C992 0.960 . S
H978 C992 0.960 . S
H979 C992 0.960 . S
C980 H972 0.929 . S
C980 C981 1.377 . S
C980 C982 1.384 . S
C981 C980 1.377 . S
C981 C987 1.390 . S
C982 H973 0.930 . S
C982 C980 1.384 . S
C982 C983 1.372 . S
C983 C982 1.372 . S
C983 C984 1.400 . S
C983 C988 1.490 . S
C984 H974 0.930 . S
C984 C983 1.400 . S
C984 C987 1.386 . S
H985 C1001 0.930 1_556 S
H986 C1002 0.931 . S
C987 H975 0.929 . S
C987 C981 1.390 . S
C987 C984 1.386 . S
C988 C983 1.490 . S
C988 C990 1.395 . S
C988 C991 1.403 . S
H989 C995 0.930 . S
C990 H976 0.930 . S
C990 C988 1.395 . S
C990 C993 1.403 . S
C991 C988 1.403 . S
C991 C992 1.524 . S
C991 C995 1.400 . S
C992 H977 0.960 . S
C992 H978 0.960 . S
C992 H979 0.960 . S
C992 C991 1.524 . S
C993 C990 1.403 . S
C993 C994 1.392 . S
C993 C997 1.495 . S
C994 C993 1.392 . S
C994 C995 1.385 . S
C994 C996 1.478 . S
C995 H989 0.930 . S
C995 C991 1.400 . S
C995 C994 1.385 . S
C996 C994 1.478 . S
C996 C998 1.381 . S
C996 C1002 1.383 . S
C997 C993 1.495 . S
C997 H1003 0.959 . S
C997 H1004 0.961 . S
C997 H1005 0.960 . S
C998 C996 1.381 . S
C998 C999 1.394 . S
C998 H1006 0.930 . S
C999 C998 1.394 . S
C999 C1000 1.383 . S
C999 H1007 0.929 . S
C1000 C999 1.383 . S
C1000 C1001 1.377 . S
C1001 H985 0.930 1_554 S
C1001 C1000 1.377 . S
C1001 C1002 1.379 . S
C1002 H986 0.931 . S
C1002 C996 1.383 . S
C1002 C1001 1.379 . S
H1003 C997 0.959 . S
H1004 C997 0.961 . S
H1005 C997 0.960 . S
H1006 C998 0.930 . S
H1007 C999 0.929 . S
H1008 C1016 0.929 . S
H1009 C1018 0.930 . S
H1010 C1020 0.930 . S
H1011 C1023 0.929 . S
H1012 C1026 0.930 . S
H1013 C1028 0.960 . S
H1014 C1028 0.960 . S
H1015 C1028 0.960 . S
C1016 H1008 0.929 . S
C1016 C1017 1.377 . S
C1016 C1018 1.384 . S
C1017 C1016 1.377 . S
C1017 C1023 1.390 . S
C1018 H1009 0.930 . S
C1018 C1016 1.384 . S
C1018 C1019 1.372 . S
C1019 C1018 1.372 . S
C1019 C1020 1.400 . S
C1019 C1024 1.490 . S
C1020 H1010 0.930 . S
C1020 C1019 1.400 . S
C1020 C1023 1.386 . S
H1021 C1037 0.930 . S
H1022 C1038 0.931 . S
C1023 H1011 0.929 . S
C1023 C1017 1.390 . S
C1023 C1020 1.386 . S
C1024 C1019 1.490 . S
C1024 C1026 1.395 . S
C1024 C1027 1.403 . S
H1025 C1031 0.930 . S
C1026 H1012 0.930 . S
C1026 C1024 1.395 . S
C1026 C1029 1.403 . S
C1027 C1024 1.403 . S
C1027 C1028 1.524 . S
C1027 C1031 1.400 . S
C1028 H1013 0.960 . S
C1028 H1014 0.960 . S
C1028 H1015 0.960 . S
C1028 C1027 1.524 . S
C1029 C1026 1.403 . S
C1029 C1030 1.392 . S
C1029 C1033 1.495 . S
C1030 C1029 1.392 . S
C1030 C1031 1.385 . S
C1030 C1032 1.478 . S
C1031 H1025 0.930 . S
C1031 C1027 1.400 . S
C1031 C1030 1.385 . S
C1032 C1030 1.478 . S
C1032 C1034 1.381 . S
C1032 C1038 1.383 . S
C1033 C1029 1.495 . S
C1033 H1039 0.959 . S
C1033 H1040 0.961 . S
C1033 H1041 0.960 . S
C1034 C1032 1.381 . S
C1034 C1035 1.394 . S
C1034 H1042 0.930 . S
C1035 C1034 1.394 . S
C1035 C1036 1.383 . S
C1035 H1043 0.929 . S
C1036 C1035 1.383 . S
C1036 C1037 1.377 . S
C1037 H1021 0.930 . S
C1037 C1036 1.377 . S
C1037 C1038 1.379 . S
C1038 H1022 0.931 . S
C1038 C1032 1.383 . S
C1038 C1037 1.379 . S
H1039 C1033 0.959 . S
H1040 C1033 0.961 . S
H1041 C1033 0.960 . S
H1042 C1034 0.930 . S
H1043 C1035 0.929 . S
H1044 C1052 0.929 . S
H1045 C1054 0.930 . S
H1046 C1056 0.930 . S
H1047 C1059 0.929 . S
H1048 C1062 0.930 . S
H1049 C1064 0.960 . S
H1050 C1064 0.960 . S
H1051 C1064 0.960 . S
C1052 H1044 0.929 . S
C1052 C1053 1.377 . S
C1052 C1054 1.384 . S
C1053 C1052 1.377 . S
C1053 C1059 1.390 . S
C1054 H1045 0.930 . S
C1054 C1052 1.384 . S
C1054 C1055 1.372 . S
C1055 C1054 1.372 . S
C1055 C1056 1.400 . S
C1055 C1060 1.490 . S
C1056 H1046 0.930 . S
C1056 C1055 1.400 . S
C1056 C1059 1.386 . S
H1057 C1073 0.930 . S
H1058 C1074 0.931 . S
C1059 H1047 0.929 . S
C1059 C1053 1.390 . S
C1059 C1056 1.386 . S
C1060 C1055 1.490 . S
C1060 C1062 1.395 . S
C1060 C1063 1.403 . S
H1061 C1067 0.930 . S
C1062 H1048 0.930 . S
C1062 C1060 1.395 . S
C1062 C1065 1.403 . S
C1063 C1060 1.403 . S
C1063 C1064 1.524 . S
C1063 C1067 1.400 . S
C1064 H1049 0.960 . S
C1064 H1050 0.960 . S
C1064 H1051 0.960 . S
C1064 C1063 1.524 . S
C1065 C1062 1.403 . S
C1065 C1066 1.392 . S
C1065 C1069 1.495 . S
C1066 C1065 1.392 . S
C1066 C1067 1.385 . S
C1066 C1068 1.478 . S
C1067 H1061 0.930 . S
C1067 C1063 1.400 . S
C1067 C1066 1.385 . S
C1068 C1066 1.478 . S
C1068 C1070 1.381 . S
C1068 C1074 1.383 . S
C1069 C1065 1.495 . S
C1069 H1075 0.959 . S
C1069 H1076 0.961 . S
C1069 H1077 0.960 . S
C1070 C1068 1.381 . S
C1070 C1071 1.394 . S
C1070 H1078 0.930 . S
C1071 C1070 1.394 . S
C1071 C1072 1.383 . S
C1071 H1079 0.929 1_554 S
C1072 C1071 1.383 . S
C1072 C1073 1.377 . S
C1073 H1057 0.930 . S
C1073 C1072 1.377 . S
C1073 C1074 1.379 . S
C1074 H1058 0.931 . S
C1074 C1068 1.383 . S
C1074 C1073 1.379 . S
H1075 C1069 0.959 . S
H1076 C1069 0.961 . S
H1077 C1069 0.960 . S
H1078 C1070 0.930 . S
H1079 C1071 0.929 1_556 S
H1080 C1088 0.929 . S
H1081 C1090 0.930 . S
H1082 C1092 0.930 . S
H1083 C1095 0.929 . S
H1084 C1098 0.930 . S
H1085 C1100 0.960 . S
H1086 C1100 0.960 . S
H1087 C1100 0.960 . S
C1088 H1080 0.929 . S
C1088 C1089 1.377 . S
C1088 C1090 1.384 . S
C1089 C1088 1.377 . S
C1089 C1095 1.390 . S
C1090 H1081 0.930 . S
C1090 C1088 1.384 . S
C1090 C1091 1.372 . S
C1091 C1090 1.372 . S
C1091 C1092 1.400 . S
C1091 C1096 1.490 . S
C1092 H1082 0.930 . S
C1092 C1091 1.400 . S
C1092 C1095 1.386 . S
H1093 C1109 0.930 1_556 S
H1094 C1110 0.931 . S
C1095 H1083 0.929 . S
C1095 C1089 1.390 . S
C1095 C1092 1.386 . S
C1096 C1091 1.490 . S
C1096 C1098 1.395 . S
C1096 C1099 1.403 . S
H1097 C1103 0.930 . S
C1098 H1084 0.930 . S
C1098 C1096 1.395 . S
C1098 C1101 1.403 . S
C1099 C1096 1.403 . S
C1099 C1100 1.524 . S
C1099 C1103 1.400 . S
C1100 H1085 0.960 . S
C1100 H1086 0.960 . S
C1100 H1087 0.960 . S
C1100 C1099 1.524 . S
C1101 C1098 1.403 . S
C1101 C1102 1.392 . S
C1101 C1105 1.495 . S
C1102 C1101 1.392 . S
C1102 C1103 1.385 . S
C1102 C1104 1.478 . S
C1103 H1097 0.930 . S
C1103 C1099 1.400 . S
C1103 C1102 1.385 . S
C1104 C1102 1.478 . S
C1104 C1106 1.381 . S
C1104 C1110 1.383 . S
C1105 C1101 1.495 . S
C1105 H1111 0.959 . S
C1105 H1112 0.961 . S
C1105 H1113 0.960 . S
C1106 C1104 1.381 . S
C1106 C1107 1.394 . S
C1106 H1114 0.930 . S
C1107 C1106 1.394 . S
C1107 C1108 1.383 . S
C1107 H1115 0.929 . S
C1108 C1107 1.383 . S
C1108 C1109 1.377 . S
C1109 H1093 0.930 1_554 S
C1109 C1108 1.377 . S
C1109 C1110 1.379 . S
C1110 H1094 0.931 . S
C1110 C1104 1.383 . S
C1110 C1109 1.379 . S
H1111 C1105 0.959 . S
H1112 C1105 0.961 . S
H1113 C1105 0.960 . S
H1114 C1106 0.930 . S
H1115 C1107 0.929 . S
H1116 C1124 0.929 . S
H1117 C1126 0.930 . S
H1118 C1128 0.930 . S
H1119 C1131 0.929 . S
H1120 C1134 0.930 . S
H1121 C1136 0.960 . S
H1122 C1136 0.960 . S
H1123 C1136 0.960 1_565 S
C1124 H1116 0.929 . S
C1124 C1125 1.377 . S
C1124 C1126 1.384 . S
C1125 C1124 1.377 . S
C1125 C1131 1.390 . S
C1126 H1117 0.930 . S
C1126 C1124 1.384 . S
C1126 C1127 1.372 . S
C1127 C1126 1.372 . S
C1127 C1128 1.400 . S
C1127 C1132 1.490 . S
C1128 H1118 0.930 . S
C1128 C1127 1.400 . S
C1128 C1131 1.386 . S
H1129 C1145 0.930 . S
H1130 C1146 0.931 . S
C1131 H1119 0.929 . S
C1131 C1125 1.390 . S
C1131 C1128 1.386 . S
C1132 C1127 1.490 . S
C1132 C1134 1.395 . S
C1132 C1135 1.389 1_565 S
H1133 C1139 0.930 . S
C1134 H1120 0.930 . S
C1134 C1132 1.395 . S
C1134 C1137 1.453 1_556 S
C1135 C1132 1.389 1_545 S
C1135 C1136 1.502 . S
C1135 C1139 1.444 1_556 S
C1136 H1121 0.960 . S
C1136 H1122 0.960 . S
C1136 H1123 0.960 1_545 S
C1136 C1135 1.502 . S
C1137 C1134 1.453 1_554 S
C1137 C1138 1.379 1_565 S
C1137 C1141 1.469 . S
C1138 C1137 1.379 1_545 S
C1138 C1139 1.385 . S
C1138 C1140 1.478 . S
C1139 H1133 0.930 . S
C1139 C1135 1.444 1_554 S
C1139 C1138 1.385 . S
C1140 C1138 1.478 . S
C1140 C1142 1.381 . S
C1140 C1146 1.383 . S
C1141 C1137 1.469 . S
C1141 H1147 0.959 . S
C1141 H1148 0.961 . S
C1141 H1149 0.960 1_565 S
C1142 C1140 1.381 . S
C1142 C1143 1.394 . S
C1142 H1150 0.930 . S
C1143 C1142 1.394 . S
C1143 C1144 1.383 . S
C1143 H1151 0.929 . S
C1144 C1143 1.383 . S
C1144 C1145 1.377 . S
C1145 H1129 0.930 . S
C1145 C1144 1.377 . S
C1145 C1146 1.379 . S
C1146 H1130 0.931 . S
C1146 C1140 1.383 . S
C1146 C1145 1.379 . S
H1147 C1141 0.959 . S
H1148 C1141 0.961 . S
H1149 C1141 0.960 1_545 S
H1150 C1142 0.930 . S
H1151 C1143 0.929 . S
H1152 C1160 0.929 . S
H1153 C1162 0.930 . S
H1154 C1164 0.930 . S
H1155 C1167 0.929 . S
H1156 C1170 0.936 . S
H1157 C1172 0.952 1_556 S
H1158 C1172 0.959 1_556 S
H1159 C1172 0.969 . S
C1160 H1152 0.929 . S
C1160 C1161 1.377 . S
C1160 C1162 1.384 . S
C1161 C1160 1.377 . S
C1161 C1167 1.390 . S
C1162 H1153 0.930 . S
C1162 C1160 1.384 . S
C1162 C1163 1.372 . S
C1163 C1162 1.372 . S
C1163 C1164 1.400 . S
C1163 C1168 1.490 . S
C1164 H1154 0.930 . S
C1164 C1163 1.400 . S
C1164 C1167 1.386 . S
H1165 C1181 0.930 . S
H1166 C1182 0.931 . S
C1167 H1155 0.929 . S
C1167 C1161 1.390 . S
C1167 C1164 1.386 . S
C1168 C1163 1.490 . S
C1168 C1170 1.379 1_655 S
C1168 C1171 1.403 . S
H1169 C1175 0.935 . S
C1170 H1156 0.936 . S
C1170 C1168 1.379 1_455 S
C1170 C1173 1.448 1_554 S
C1171 C1168 1.403 . S
C1171 C1172 1.524 . S
C1171 C1175 1.395 1_654 S
C1172 H1157 0.952 1_554 S
C1172 H1158 0.959 1_554 S
C1172 H1159 0.969 . S
C1172 C1171 1.524 . S
C1173 C1170 1.448 1_556 S
C1173 C1174 1.392 . S
C1173 C1177 1.495 . S
C1174 C1173 1.392 . S
C1174 C1175 1.387 . S
C1174 C1176 1.478 . S
C1175 H1169 0.935 . S
C1175 C1171 1.395 1_456 S
C1175 C1174 1.387 . S
C1176 C1174 1.478 . S
C1176 C1178 1.381 . S
C1176 C1182 1.383 . S
C1177 C1173 1.495 . S
C1177 H1183 0.959 1_556 S
C1177 H1184 0.962 . S
C1177 H1185 0.960 . S
C1178 C1176 1.381 . S
C1178 C1179 1.394 . S
C1178 H1186 0.930 . S
C1179 C1178 1.394 . S
C1179 C1180 1.383 . S
C1179 H1187 0.929 . S
C1180 C1179 1.383 . S
C1180 C1181 1.377 . S
C1181 H1165 0.930 . S
C1181 C1180 1.377 . S
C1181 C1182 1.379 . S
C1182 H1166 0.931 . S
C1182 C1176 1.383 . S
C1182 C1181 1.379 . S
H1183 C1177 0.959 1_554 S
H1184 C1177 0.962 . S
H1185 C1177 0.960 . S
H1186 C1178 0.930 . S
H1187 C1179 0.929 . S
H1188 C1196 0.929 . S
H1189 C1198 0.930 . S
H1190 C1200 0.930 . S
H1191 C1203 0.929 . S
H1192 C1206 0.930 . S
H1193 C1208 0.960 . S
H1194 C1208 0.960 . S
H1195 C1208 0.960 . S
C1196 H1188 0.929 . S
C1196 C1197 1.377 . S
C1196 C1198 1.384 . S
C1197 C1196 1.377 . S
C1197 C1203 1.390 . S
C1198 H1189 0.930 . S
C1198 C1196 1.384 . S
C1198 C1199 1.372 . S
C1199 C1198 1.372 . S
C1199 C1200 1.400 . S
C1199 C1204 1.490 . S
C1200 H1190 0.930 . S
C1200 C1199 1.400 . S
C1200 C1203 1.386 . S
H1201 C1217 0.930 . S
H1202 C1218 0.931 . S
C1203 H1191 0.929 . S
C1203 C1197 1.390 . S
C1203 C1200 1.386 . S
C1204 C1199 1.490 . S
C1204 C1206 1.395 1_556 S
C1204 C1207 1.403 . S
H1205 C1211 0.930 . S
C1206 H1192 0.930 . S
C1206 C1204 1.395 1_554 S
C1206 C1209 1.403 . S
C1207 C1204 1.403 . S
C1207 C1208 1.524 . S
C1207 C1211 1.400 1_556 S
C1208 H1193 0.960 . S
C1208 H1194 0.960 . S
C1208 H1195 0.960 . S
C1208 C1207 1.524 . S
C1209 C1206 1.403 . S
C1209 C1210 1.392 . S
C1209 C1213 1.495 . S
C1210 C1209 1.392 . S
C1210 C1211 1.385 . S
C1210 C1212 1.478 . S
C1211 H1205 0.930 . S
C1211 C1207 1.400 1_554 S
C1211 C1210 1.385 . S
C1212 C1210 1.478 . S
C1212 C1214 1.381 . S
C1212 C1218 1.383 . S
C1213 C1209 1.495 . S
C1213 H1219 0.959 . S
C1213 H1220 0.961 . S
C1213 H1221 0.960 . S
C1214 C1212 1.381 . S
C1214 C1215 1.394 . S
C1214 H1222 0.930 . S
C1215 C1214 1.394 . S
C1215 C1216 1.383 . S
C1215 H1223 0.929 . S
C1216 C1215 1.383 . S
C1216 C1217 1.377 . S
C1217 H1201 0.930 . S
C1217 C1216 1.377 . S
C1217 C1218 1.379 . S
C1218 H1202 0.931 . S
C1218 C1212 1.383 . S
C1218 C1217 1.379 . S
H1219 C1213 0.959 . S
H1220 C1213 0.961 . S
H1221 C1213 0.960 . S
H1222 C1214 0.930 . S
H1223 C1215 0.929 . S
H1224 C1232 0.929 . S
H1225 C1234 0.930 . S
H1226 C1236 0.930 . S
H1227 C1239 0.929 . S
H1228 C1242 0.930 . S
H1229 C1244 0.960 . S
H1230 C1244 0.960 . S
H1231 C1244 0.960 . S
C1232 H1224 0.929 . S
C1232 C1233 1.377 . S
C1232 C1234 1.384 . S
C1233 C1232 1.377 . S
C1233 C1239 1.390 . S
C1234 H1225 0.930 . S
C1234 C1232 1.384 . S
C1234 C1235 1.372 . S
C1235 C1234 1.372 . S
C1235 C1236 1.400 . S
C1235 C1240 1.490 . S
C1236 H1226 0.930 . S
C1236 C1235 1.400 . S
C1236 C1239 1.386 . S
H1237 C1253 0.930 . S
H1238 C1254 0.931 . S
C1239 H1227 0.929 . S
C1239 C1233 1.390 . S
C1239 C1236 1.386 . S
C1240 C1235 1.490 . S
C1240 C1242 1.395 1_556 S
C1240 C1243 1.403 1_565 S
H1241 C1247 0.931 . S
C1242 H1228 0.930 . S
C1242 C1240 1.395 1_554 S
C1242 C1245 1.403 . S
C1243 C1240 1.403 1_545 S
C1243 C1244 1.524 . S
C1243 C1247 1.400 1_556 S
C1244 H1229 0.960 . S
C1244 H1230 0.960 . S
C1244 H1231 0.960 . S
C1244 C1243 1.524 . S
C1245 C1242 1.403 . S
C1245 C1246 1.392 1_565 S
C1245 C1249 1.495 . S
C1246 C1245 1.392 1_545 S
C1246 C1247 1.385 . S
C1246 C1248 1.478 . S
C1247 H1241 0.931 . S
C1247 C1243 1.400 1_554 S
C1247 C1246 1.385 . S
C1248 C1246 1.478 . S
C1248 C1250 1.381 . S
C1248 C1254 1.383 . S
C1249 C1245 1.495 . S
C1249 H1255 0.959 . S
C1249 H1256 0.961 . S
C1249 H1257 0.960 . S
C1250 C1248 1.381 . S
C1250 C1251 1.394 . S
C1250 H1258 0.930 . S
C1251 C1250 1.394 . S
C1251 C1252 1.383 . S
C1251 H1259 0.929 . S
C1252 C1251 1.383 . S
C1252 C1253 1.377 . S
C1253 H1237 0.930 . S
C1253 C1252 1.377 . S
C1253 C1254 1.379 . S
C1254 H1238 0.931 . S
C1254 C1248 1.383 . S
C1254 C1253 1.379 . S
H1255 C1249 0.959 . S
H1256 C1249 0.961 . S
H1257 C1249 0.960 . S
H1258 C1250 0.930 . S
H1259 C1251 0.929 . S
H1260 C1268 0.929 . S
H1261 C1270 0.930 . S
H1262 C1272 0.930 . S
H1263 C1275 0.929 . S
H1264 C1278 0.933 . S
H1265 C1280 0.960 1_554 S
H1266 C1280 0.960 . S
H1267 C1280 0.960 . S
C1268 H1260 0.929 . S
C1268 C1269 1.377 . S
C1268 C1270 1.384 . S
C1269 C1268 1.377 . S
C1269 C1275 1.390 . S
C1270 H1261 0.930 . S
C1270 C1268 1.384 . S
C1270 C1271 1.372 . S
C1271 C1270 1.372 . S
C1271 C1272 1.400 . S
C1271 C1276 1.490 . S
C1272 H1262 0.930 . S
C1272 C1271 1.400 . S
C1272 C1275 1.386 . S
H1273 C1289 0.930 . S
H1274 C1290 0.931 . S
C1275 H1263 0.929 . S
C1275 C1269 1.390 . S
C1275 C1272 1.386 . S
C1276 C1271 1.490 . S
C1276 C1278 1.360 1_455 S
C1276 C1279 1.403 . S
H1277 C1283 0.934 . S
C1278 H1264 0.933 . S
C1278 C1276 1.360 1_655 S
C1278 C1281 1.426 1_556 S
C1279 C1276 1.403 . S
C1279 C1280 1.524 . S
C1279 C1283 1.377 1_456 S
C1280 H1265 0.960 1_556 S
C1280 H1266 0.960 . S
C1280 H1267 0.960 . S
C1280 C1279 1.524 . S
C1281 C1278 1.426 1_554 S
C1281 C1282 1.392 . S
C1281 C1285 1.495 . S
C1282 C1281 1.392 . S
C1282 C1283 1.421 . S
C1282 C1284 1.478 . S
C1283 H1277 0.934 . S
C1283 C1279 1.377 1_654 S
C1283 C1282 1.421 . S
C1284 C1282 1.478 . S
C1284 C1286 1.381 . S
C1284 C1290 1.383 . S
C1285 C1281 1.495 . S
C1285 H1291 0.959 1_554 S
C1285 H1292 0.961 . S
C1285 H1293 0.960 . S
C1286 C1284 1.381 . S
C1286 C1287 1.394 . S
C1286 H1294 0.930 . S
C1287 C1286 1.394 . S
C1287 C1288 1.383 . S
C1287 H1295 0.929 . S
C1288 C1287 1.383 . S
C1288 C1289 1.377 . S
C1289 H1273 0.930 . S
C1289 C1288 1.377 . S
C1289 C1290 1.379 . S
C1290 H1274 0.931 . S
C1290 C1284 1.383 . S
C1290 C1289 1.379 . S
H1291 C1285 0.959 1_556 S
H1292 C1285 0.961 . S
H1293 C1285 0.960 . S
H1294 C1286 0.930 . S
H1295 C1287 0.929 . S
H1296 C1304 0.929 . S
H1297 C1306 0.930 . S
H1298 C1308 0.930 . S
H1299 C1311 0.929 . S
H1300 C1314 0.930 . S
H1301 C1316 0.960 . S
H1302 C1316 0.960 . S
H1303 C1316 0.960 . S
C1304 H1296 0.929 . S
C1304 C1305 1.377 . S
C1304 C1306 1.384 . S
C1305 C1304 1.377 . S
C1305 C1311 1.390 . S
C1306 H1297 0.930 . S
C1306 C1304 1.384 . S
C1306 C1307 1.372 . S
C1307 C1306 1.372 . S
C1307 C1308 1.400 . S
C1307 C1312 1.490 . S
C1308 H1298 0.930 . S
C1308 C1307 1.400 . S
C1308 C1311 1.386 . S
H1309 C1325 0.930 . S
H1310 C1326 0.931 . S
C1311 H1299 0.929 . S
C1311 C1305 1.390 . S
C1311 C1308 1.386 . S
C1312 C1307 1.490 . S
C1312 C1314 1.395 1_554 S
C1312 C1315 1.403 . S
H1313 C1319 0.929 1_554 S
C1314 H1300 0.930 . S
C1314 C1312 1.395 1_556 S
C1314 C1317 1.403 . S
C1315 C1312 1.403 . S
C1315 C1316 1.524 . S
C1315 C1319 1.386 1_554 S
C1316 H1301 0.960 . S
C1316 H1302 0.960 . S
C1316 H1303 0.960 . S
C1316 C1315 1.524 . S
C1317 C1314 1.403 . S
C1317 C1318 1.392 . S
C1317 C1321 1.495 . S
C1318 C1317 1.392 . S
C1318 C1319 1.400 . S
C1318 C1320 1.478 . S
C1319 H1313 0.929 1_556 S
C1319 C1315 1.386 1_556 S
C1319 C1318 1.400 . S
C1320 C1318 1.478 . S
C1320 C1322 1.381 . S
C1320 C1326 1.383 . S
C1321 C1317 1.495 . S
C1321 H1327 0.959 . S
C1321 H1328 0.961 . S
C1321 H1329 0.960 . S
C1322 C1320 1.381 . S
C1322 C1323 1.394 . S
C1322 H1330 0.930 . S
C1323 C1322 1.394 . S
C1323 C1324 1.383 . S
C1323 H1331 0.929 . S
C1324 C1323 1.383 . S
C1324 C1325 1.377 . S
C1325 H1309 0.930 . S
C1325 C1324 1.377 . S
C1325 C1326 1.379 . S
C1326 H1310 0.931 . S
C1326 C1320 1.383 . S
C1326 C1325 1.379 . S
H1327 C1321 0.959 . S
H1328 C1321 0.961 . S
H1329 C1321 0.960 . S
H1330 C1322 0.930 . S
H1331 C1323 0.929 . S
H1332 C1340 0.929 . S
H1333 C1342 0.930 . S
H1334 C1344 0.930 . S
H1335 C1347 0.929 . S
H1336 C1350 0.930 . S
H1337 C1352 0.960 . S
H1338 C1352 0.960 . S
H1339 C1352 0.960 . S
C1340 H1332 0.929 . S
C1340 C1341 1.377 . S
C1340 C1342 1.384 . S
C1341 C1340 1.377 . S
C1341 C1347 1.390 . S
C1342 H1333 0.930 . S
C1342 C1340 1.384 . S
C1342 C1343 1.372 . S
C1343 C1342 1.372 . S
C1343 C1344 1.400 . S
C1343 C1348 1.490 . S
C1344 H1334 0.930 . S
C1344 C1343 1.400 . S
C1344 C1347 1.386 . S
H1345 C1361 0.930 . S
H1346 C1362 0.931 . S
C1347 H1335 0.929 . S
C1347 C1341 1.390 . S
C1347 C1344 1.386 . S
C1348 C1343 1.490 . S
C1348 C1350 1.395 . S
C1348 C1351 1.403 . S
H1349 C1355 0.930 . S
C1350 H1336 0.930 . S
C1350 C1348 1.395 . S
C1350 C1353 1.403 . S
C1351 C1348 1.403 . S
C1351 C1352 1.524 . S
C1351 C1355 1.400 . S
C1352 H1337 0.960 . S
C1352 H1338 0.960 . S
C1352 H1339 0.960 . S
C1352 C1351 1.524 . S
C1353 C1350 1.403 . S
C1353 C1354 1.392 . S
C1353 C1357 1.495 . S
C1354 C1353 1.392 . S
C1354 C1355 1.385 . S
C1354 C1356 1.478 . S
C1355 H1349 0.930 . S
C1355 C1351 1.400 . S
C1355 C1354 1.385 . S
C1356 C1354 1.478 . S
C1356 C1358 1.381 . S
C1356 C1362 1.383 . S
C1357 C1353 1.495 . S
C1357 H1363 0.959 . S
C1357 H1364 0.961 . S
C1357 H1365 0.960 . S
C1358 C1356 1.381 . S
C1358 C1359 1.394 . S
C1358 H1366 0.930 . S
C1359 C1358 1.394 . S
C1359 C1360 1.383 . S
C1359 H1367 0.929 . S
C1360 C1359 1.383 . S
C1360 C1361 1.377 . S
C1361 H1345 0.930 . S
C1361 C1360 1.377 . S
C1361 C1362 1.379 . S
C1362 H1346 0.931 . S
C1362 C1356 1.383 . S
C1362 C1361 1.379 . S
H1363 C1357 0.959 . S
H1364 C1357 0.961 . S
H1365 C1357 0.960 . S
H1366 C1358 0.930 . S
H1367 C1359 0.929 . S
H1368 C1376 0.929 . S
H1369 C1378 0.930 . S
H1370 C1380 0.930 . S
H1371 C1383 0.929 . S
H1372 C1386 0.930 . S
H1373 C1388 0.960 . S
H1374 C1388 0.960 . S
H1375 C1388 0.960 . S
C1376 H1368 0.929 . S
C1376 C1377 1.377 . S
C1376 C1378 1.384 . S
C1377 C1376 1.377 . S
C1377 C1383 1.390 . S
C1378 H1369 0.930 . S
C1378 C1376 1.384 . S
C1378 C1379 1.372 . S
C1379 C1378 1.372 . S
C1379 C1380 1.400 . S
C1379 C1384 1.490 . S
C1380 H1370 0.930 . S
C1380 C1379 1.400 . S
C1380 C1383 1.386 . S
H1381 C1397 0.930 . S
H1382 C1398 0.931 . S
C1383 H1371 0.929 . S
C1383 C1377 1.390 . S
C1383 C1380 1.386 . S
C1384 C1379 1.490 . S
C1384 C1386 1.395 . S
C1384 C1387 1.403 . S
H1385 C1391 0.930 . S
C1386 H1372 0.930 . S
C1386 C1384 1.395 . S
C1386 C1389 1.403 . S
C1387 C1384 1.403 . S
C1387 C1388 1.524 . S
C1387 C1391 1.400 . S
C1388 H1373 0.960 . S
C1388 H1374 0.960 . S
C1388 H1375 0.960 . S
C1388 C1387 1.524 . S
C1389 C1386 1.403 . S
C1389 C1390 1.392 . S
C1389 C1393 1.495 . S
C1390 C1389 1.392 . S
C1390 C1391 1.385 . S
C1390 C1392 1.478 . S
C1391 H1385 0.930 . S
C1391 C1387 1.400 . S
C1391 C1390 1.385 . S
C1392 C1390 1.478 . S
C1392 C1394 1.381 . S
C1392 C1398 1.383 . S
C1393 C1389 1.495 . S
C1393 H1399 0.959 . S
C1393 H1400 0.961 . S
C1393 H1401 0.960 . S
C1394 C1392 1.381 . S
C1394 C1395 1.394 . S
C1394 H1402 0.930 . S
C1395 C1394 1.394 . S
C1395 C1396 1.383 . S
C1395 H1403 0.929 . S
C1396 C1395 1.383 . S
C1396 C1397 1.377 . S
C1397 H1381 0.930 . S
C1397 C1396 1.377 . S
C1397 C1398 1.379 . S
C1398 H1382 0.931 . S
C1398 C1392 1.383 . S
C1398 C1397 1.379 . S
H1399 C1393 0.959 . S
H1400 C1393 0.961 . S
H1401 C1393 0.960 . S
H1402 C1394 0.930 . S
H1403 C1395 0.929 . S
H1404 C1412 0.929 . S
H1405 C1414 0.930 . S
H1406 C1416 0.930 . S
H1407 C1419 0.929 . S
H1408 C1422 0.930 . S
H1409 C1424 0.960 . S
H1410 C1424 0.960 . S
H1411 C1424 0.960 . S
C1412 H1404 0.929 . S
C1412 C1413 1.377 . S
C1412 C1414 1.384 . S
C1413 C1412 1.377 . S
C1413 C1419 1.390 . S
C1414 H1405 0.930 . S
C1414 C1412 1.384 . S
C1414 C1415 1.372 . S
C1415 C1414 1.372 . S
C1415 C1416 1.400 . S
C1415 C1420 1.490 . S
C1416 H1406 0.930 . S
C1416 C1415 1.400 . S
C1416 C1419 1.386 . S
H1417 C1433 0.930 . S
H1418 C1434 0.931 . S
C1419 H1407 0.929 . S
C1419 C1413 1.390 . S
C1419 C1416 1.386 . S
C1420 C1415 1.490 . S
C1420 C1422 1.395 . S
C1420 C1423 1.403 . S
H1421 C1427 0.930 . S
C1422 H1408 0.930 . S
C1422 C1420 1.395 . S
C1422 C1425 1.403 . S
C1423 C1420 1.403 . S
C1423 C1424 1.524 . S
C1423 C1427 1.400 . S
C1424 H1409 0.960 . S
C1424 H1410 0.960 . S
C1424 H1411 0.960 . S
C1424 C1423 1.524 . S
C1425 C1422 1.403 . S
C1425 C1426 1.392 . S
C1425 C1429 1.495 . S
C1426 C1425 1.392 . S
C1426 C1427 1.385 . S
C1426 C1428 1.478 . S
C1427 H1421 0.930 . S
C1427 C1423 1.400 . S
C1427 C1426 1.385 . S
C1428 C1426 1.478 . S
C1428 C1430 1.381 . S
C1428 C1434 1.383 . S
C1429 C1425 1.495 . S
C1429 H1435 0.959 . S
C1429 H1436 0.961 . S
C1429 H1437 0.960 . S
C1430 C1428 1.381 . S
C1430 C1431 1.394 . S
C1430 H1438 0.930 . S
C1431 C1430 1.394 . S
C1431 C1432 1.383 . S
C1431 H1439 0.929 . S
C1432 C1431 1.383 . S
C1432 C1433 1.377 . S
C1433 H1417 0.930 . S
C1433 C1432 1.377 . S
C1433 C1434 1.379 . S
C1434 H1418 0.931 . S
C1434 C1428 1.383 . S
C1434 C1433 1.379 . S
H1435 C1429 0.959 . S
H1436 C1429 0.961 . S
H1437 C1429 0.960 . S
H1438 C1430 0.930 . S
H1439 C1431 0.929 . S
H1440 C1448 0.929 . S
H1441 C1450 0.930 . S
H1442 C1452 0.930 . S
H1443 C1455 0.929 . S
H1444 C1458 0.930 . S
H1445 C1460 0.960 . S
H1446 C1460 0.960 . S
H1447 C1460 0.960 . S
C1448 H1440 0.929 . S
C1448 C1449 1.377 . S
C1448 C1450 1.384 . S
C1449 C1448 1.377 . S
C1449 C1455 1.390 . S
C1450 H1441 0.930 . S
C1450 C1448 1.384 . S
C1450 C1451 1.372 . S
C1451 C1450 1.372 . S
C1451 C1452 1.400 . S
C1451 C1456 1.490 . S
C1452 H1442 0.930 . S
C1452 C1451 1.400 . S
C1452 C1455 1.386 . S
H1453 C1469 0.930 . S
H1454 C1470 0.931 . S
C1455 H1443 0.929 . S
C1455 C1449 1.390 . S
C1455 C1452 1.386 . S
C1456 C1451 1.490 . S
C1456 C1458 1.395 . S
C1456 C1459 1.403 . S
H1457 C1463 0.930 . S
C1458 H1444 0.930 . S
C1458 C1456 1.395 . S
C1458 C1461 1.403 . S
C1459 C1456 1.403 . S
C1459 C1460 1.524 . S
C1459 C1463 1.400 . S
C1460 H1445 0.960 . S
C1460 H1446 0.960 . S
C1460 H1447 0.960 . S
C1460 C1459 1.524 . S
C1461 C1458 1.403 . S
C1461 C1462 1.392 . S
C1461 C1465 1.495 . S
C1462 C1461 1.392 . S
C1462 C1463 1.385 . S
C1462 C1464 1.478 . S
C1463 H1457 0.930 . S
C1463 C1459 1.400 . S
C1463 C1462 1.385 . S
C1464 C1462 1.478 . S
C1464 C1466 1.381 . S
C1464 C1470 1.383 . S
C1465 C1461 1.495 . S
C1465 H1471 0.959 . S
C1465 H1472 0.961 . S
C1465 H1473 0.960 . S
C1466 C1464 1.381 . S
C1466 C1467 1.394 . S
C1466 H1474 0.930 . S
C1467 C1466 1.394 . S
C1467 C1468 1.383 . S
C1467 H1475 0.929 . S
C1468 C1467 1.383 . S
C1468 C1469 1.377 . S
C1469 H1453 0.930 . S
C1469 C1468 1.377 . S
C1469 C1470 1.379 . S
C1470 H1454 0.931 . S
C1470 C1464 1.383 . S
C1470 C1469 1.379 . S
H1471 C1465 0.959 . S
H1472 C1465 0.961 . S
H1473 C1465 0.960 . S
H1474 C1466 0.930 . S
H1475 C1467 0.929 . S
H1476 C1484 0.929 . S
H1477 C1486 0.930 . S
H1478 C1488 0.930 . S
H1479 C1491 0.929 . S
H1480 C1494 0.930 . S
H1481 C1496 0.960 . S
H1482 C1496 0.960 . S
H1483 C1496 0.960 . S
C1484 H1476 0.929 . S
C1484 C1485 1.377 . S
C1484 C1486 1.384 . S
C1485 C1484 1.377 . S
C1485 C1491 1.390 . S
C1486 H1477 0.930 . S
C1486 C1484 1.384 . S
C1486 C1487 1.372 . S
C1487 C1486 1.372 . S
C1487 C1488 1.400 . S
C1487 C1492 1.490 . S
C1488 H1478 0.930 . S
C1488 C1487 1.400 . S
C1488 C1491 1.386 . S
H1489 C1505 0.930 . S
H1490 C1506 0.931 . S
C1491 H1479 0.929 . S
C1491 C1485 1.390 . S
C1491 C1488 1.386 . S
C1492 C1487 1.490 . S
C1492 C1494 1.395 . S
C1492 C1495 1.403 . S
H1493 C1499 0.930 . S
C1494 H1480 0.930 . S
C1494 C1492 1.395 . S
C1494 C1497 1.403 . S
C1495 C1492 1.403 . S
C1495 C1496 1.524 . S
C1495 C1499 1.400 . S
C1496 H1481 0.960 . S
C1496 H1482 0.960 . S
C1496 H1483 0.960 . S
C1496 C1495 1.524 . S
C1497 C1494 1.403 . S
C1497 C1498 1.392 . S
C1497 C1501 1.495 . S
C1498 C1497 1.392 . S
C1498 C1499 1.385 . S
C1498 C1500 1.478 . S
C1499 H1493 0.930 . S
C1499 C1495 1.400 . S
C1499 C1498 1.385 . S
C1500 C1498 1.478 . S
C1500 C1502 1.381 . S
C1500 C1506 1.383 . S
C1501 C1497 1.495 . S
C1501 H1507 0.959 . S
C1501 H1508 0.961 . S
C1501 H1509 0.960 . S
C1502 C1500 1.381 . S
C1502 C1503 1.394 . S
C1502 H1510 0.930 . S
C1503 C1502 1.394 . S
C1503 C1504 1.383 . S
C1503 H1511 0.929 . S
C1504 C1503 1.383 . S
C1504 C1505 1.377 . S
C1505 H1489 0.930 . S
C1505 C1504 1.377 . S
C1505 C1506 1.379 . S
C1506 H1490 0.931 . S
C1506 C1500 1.383 . S
C1506 C1505 1.379 . S
H1507 C1501 0.959 . S
H1508 C1501 0.961 . S
H1509 C1501 0.960 . S
H1510 C1502 0.930 . S
H1511 C1503 0.929 . S
H1512 C1520 0.929 . S
H1513 C1522 0.930 . S
H1514 C1524 0.930 . S
H1515 C1527 0.929 . S
H1516 C1530 0.930 . S
H1517 C1532 0.960 . S
H1518 C1532 0.960 . S
H1519 C1532 0.960 . S
C1520 H1512 0.929 . S
C1520 C1521 1.377 . S
C1520 C1522 1.384 . S
C1521 C1520 1.377 . S
C1521 C1527 1.390 . S
C1522 H1513 0.930 . S
C1522 C1520 1.384 . S
C1522 C1523 1.372 . S
C1523 C1522 1.372 . S
C1523 C1524 1.400 . S
C1523 C1528 1.490 . S
C1524 H1514 0.930 . S
C1524 C1523 1.400 . S
C1524 C1527 1.386 . S
H1525 C1541 0.930 . S
H1526 C1542 0.931 . S
C1527 H1515 0.929 . S
C1527 C1521 1.390 . S
C1527 C1524 1.386 . S
C1528 C1523 1.490 . S
C1528 C1530 1.395 . S
C1528 C1531 1.403 . S
H1529 C1535 0.930 . S
C1530 H1516 0.930 . S
C1530 C1528 1.395 . S
C1530 C1533 1.403 . S
C1531 C1528 1.403 . S
C1531 C1532 1.524 . S
C1531 C1535 1.400 . S
C1532 H1517 0.960 . S
C1532 H1518 0.960 . S
C1532 H1519 0.960 . S
C1532 C1531 1.524 . S
C1533 C1530 1.403 . S
C1533 C1534 1.392 . S
C1533 C1537 1.495 . S
C1534 C1533 1.392 . S
C1534 C1535 1.385 . S
C1534 C1536 1.478 . S
C1535 H1529 0.930 . S
C1535 C1531 1.400 . S
C1535 C1534 1.385 . S
C1536 C1534 1.478 . S
C1536 C1538 1.381 . S
C1536 C1542 1.383 . S
C1537 C1533 1.495 . S
C1537 H1543 0.959 . S
C1537 H1544 0.961 . S
C1537 H1545 0.960 . S
C1538 C1536 1.381 . S
C1538 C1539 1.394 . S
C1538 H1546 0.930 . S
C1539 C1538 1.394 . S
C1539 C1540 1.383 . S
C1539 H1547 0.929 . S
C1540 C1539 1.383 . S
C1540 C1541 1.377 . S
C1541 H1525 0.930 . S
C1541 C1540 1.377 . S
C1541 C1542 1.379 . S
C1542 H1526 0.931 . S
C1542 C1536 1.383 . S
C1542 C1541 1.379 . S
H1543 C1537 0.959 . S
H1544 C1537 0.961 . S
H1545 C1537 0.960 . S
H1546 C1538 0.930 . S
H1547 C1539 0.929 . S
H1548 C1556 0.929 . S
H1549 C1558 0.930 . S
H1550 C1560 0.930 . S
H1551 C1563 0.929 . S
H1552 C1566 0.930 . S
H1553 C1568 0.960 . S
H1554 C1568 0.960 . S
H1555 C1568 0.960 . S
C1556 H1548 0.929 . S
C1556 C1557 1.377 . S
C1556 C1558 1.384 . S
C1557 C1556 1.377 . S
C1557 C1563 1.390 . S
C1558 H1549 0.930 . S
C1558 C1556 1.384 . S
C1558 C1559 1.372 . S
C1559 C1558 1.372 . S
C1559 C1560 1.400 . S
C1559 C1564 1.490 . S
C1560 H1550 0.930 . S
C1560 C1559 1.400 . S
C1560 C1563 1.386 . S
H1561 C1577 0.930 . S
H1562 C1578 0.931 . S
C1563 H1551 0.929 . S
C1563 C1557 1.390 . S
C1563 C1560 1.386 . S
C1564 C1559 1.490 . S
C1564 C1566 1.395 . S
C1564 C1567 1.403 . S
H1565 C1571 0.930 . S
C1566 H1552 0.930 . S
C1566 C1564 1.395 . S
C1566 C1569 1.403 . S
C1567 C1564 1.403 . S
C1567 C1568 1.524 . S
C1567 C1571 1.400 . S
C1568 H1553 0.960 . S
C1568 H1554 0.960 . S
C1568 H1555 0.960 . S
C1568 C1567 1.524 . S
C1569 C1566 1.403 . S
C1569 C1570 1.392 . S
C1569 C1573 1.495 . S
C1570 C1569 1.392 . S
C1570 C1571 1.385 . S
C1570 C1572 1.478 . S
C1571 H1565 0.930 . S
C1571 C1567 1.400 . S
C1571 C1570 1.385 . S
C1572 C1570 1.478 . S
C1572 C1574 1.381 . S
C1572 C1578 1.383 . S
C1573 C1569 1.495 . S
C1573 H1579 0.959 . S
C1573 H1580 0.961 . S
C1573 H1581 0.960 . S
C1574 C1572 1.381 . S
C1574 C1575 1.394 . S
C1574 H1582 0.930 . S
C1575 C1574 1.394 . S
C1575 C1576 1.383 . S
C1575 H1583 0.929 . S
C1576 C1575 1.383 . S
C1576 C1577 1.377 . S
C1577 H1561 0.930 . S
C1577 C1576 1.377 . S
C1577 C1578 1.379 . S
C1578 H1562 0.931 . S
C1578 C1572 1.383 . S
C1578 C1577 1.379 . S
H1579 C1573 0.959 . S
H1580 C1573 0.961 . S
H1581 C1573 0.960 . S
H1582 C1574 0.930 . S
H1583 C1575 0.929 . S
H1584 C1592 0.929 . S
H1585 C1594 0.930 . S
H1586 C1596 0.930 . S
H1587 C1599 0.929 . S
H1588 C1602 0.930 . S
H1589 C1604 0.960 . S
H1590 C1604 0.960 . S
H1591 C1604 0.960 . S
C1592 H1584 0.929 . S
C1592 C1593 1.377 . S
C1592 C1594 1.384 . S
C1593 C1592 1.377 . S
C1593 C1599 1.390 . S
C1594 H1585 0.930 . S
C1594 C1592 1.384 . S
C1594 C1595 1.372 . S
C1595 C1594 1.372 . S
C1595 C1596 1.400 . S
C1595 C1600 1.490 . S
C1596 H1586 0.930 . S
C1596 C1595 1.400 . S
C1596 C1599 1.386 . S
H1597 C1613 0.930 . S
H1598 C1614 0.931 . S
C1599 H1587 0.929 . S
C1599 C1593 1.390 . S
C1599 C1596 1.386 . S
C1600 C1595 1.490 . S
C1600 C1602 1.395 . S
C1600 C1603 1.403 . S
H1601 C1607 0.930 . S
C1602 H1588 0.930 . S
C1602 C1600 1.395 . S
C1602 C1605 1.403 . S
C1603 C1600 1.403 . S
C1603 C1604 1.524 . S
C1603 C1607 1.400 . S
C1604 H1589 0.960 . S
C1604 H1590 0.960 . S
C1604 H1591 0.960 . S
C1604 C1603 1.524 . S
C1605 C1602 1.403 . S
C1605 C1606 1.392 . S
C1605 C1609 1.495 . S
C1606 C1605 1.392 . S
C1606 C1607 1.385 . S
C1606 C1608 1.478 . S
C1607 H1601 0.930 . S
C1607 C1603 1.400 . S
C1607 C1606 1.385 . S
C1608 C1606 1.478 . S
C1608 C1610 1.381 . S
C1608 C1614 1.383 . S
C1609 C1605 1.495 . S
C1609 H1615 0.959 . S
C1609 H1616 0.961 . S
C1609 H1617 0.960 . S
C1610 C1608 1.381 . S
C1610 C1611 1.394 . S
C1610 H1618 0.930 . S
C1611 C1610 1.394 . S
C1611 C1612 1.383 . S
C1611 H1619 0.929 . S
C1612 C1611 1.383 . S
C1612 C1613 1.377 . S
C1613 H1597 0.930 . S
C1613 C1612 1.377 . S
C1613 C1614 1.379 . S
C1614 H1598 0.931 . S
C1614 C1608 1.383 . S
C1614 C1613 1.379 . S
H1615 C1609 0.959 . S
H1616 C1609 0.961 . S
H1617 C1609 0.960 . S
H1618 C1610 0.930 . S
H1619 C1611 0.929 . S
H1620 C1628 0.929 . S
H1621 C1630 0.930 . S
H1622 C1632 0.930 . S
H1623 C1635 0.929 . S
H1624 C1638 0.930 . S
H1625 C1640 0.960 . S
H1626 C1640 0.960 . S
H1627 C1640 0.960 . S
C1628 H1620 0.929 . S
C1628 C1629 1.377 . S
C1628 C1630 1.384 . S
C1629 C1628 1.377 . S
C1629 C1635 1.390 . S
C1630 H1621 0.930 . S
C1630 C1628 1.384 . S
C1630 C1631 1.372 . S
C1631 C1630 1.372 . S
C1631 C1632 1.400 . S
C1631 C1636 1.490 . S
C1632 H1622 0.930 . S
C1632 C1631 1.400 . S
C1632 C1635 1.386 . S
H1633 C1649 0.930 . S
H1634 C1650 0.931 . S
C1635 H1623 0.929 . S
C1635 C1629 1.390 . S
C1635 C1632 1.386 . S
C1636 C1631 1.490 . S
C1636 C1638 1.395 . S
C1636 C1639 1.403 . S
H1637 C1643 0.930 . S
C1638 H1624 0.930 . S
C1638 C1636 1.395 . S
C1638 C1641 1.403 . S
C1639 C1636 1.403 . S
C1639 C1640 1.524 . S
C1639 C1643 1.400 . S
C1640 H1625 0.960 . S
C1640 H1626 0.960 . S
C1640 H1627 0.960 . S
C1640 C1639 1.524 . S
C1641 C1638 1.403 . S
C1641 C1642 1.392 . S
C1641 C1645 1.495 . S
C1642 C1641 1.392 . S
C1642 C1643 1.385 . S
C1642 C1644 1.478 . S
C1643 H1637 0.930 . S
C1643 C1639 1.400 . S
C1643 C1642 1.385 . S
C1644 C1642 1.478 . S
C1644 C1646 1.381 . S
C1644 C1650 1.383 . S
C1645 C1641 1.495 . S
C1645 H1651 0.959 . S
C1645 H1652 0.961 . S
C1645 H1653 0.960 . S
C1646 C1644 1.381 . S
C1646 C1647 1.394 . S
C1646 H1654 0.930 . S
C1647 C1646 1.394 . S
C1647 C1648 1.383 . S
C1647 H1655 0.929 . S
C1648 C1647 1.383 . S
C1648 C1649 1.377 . S
C1649 H1633 0.930 . S
C1649 C1648 1.377 . S
C1649 C1650 1.379 . S
C1650 H1634 0.931 . S
C1650 C1644 1.383 . S
C1650 C1649 1.379 . S
H1651 C1645 0.959 . S
H1652 C1645 0.961 . S
H1653 C1645 0.960 . S
H1654 C1646 0.930 . S
H1655 C1647 0.929 . S
H1656 C1664 0.929 . S
H1657 C1666 0.930 . S
H1658 C1668 0.930 . S
H1659 C1671 0.929 . S
H1660 C1674 0.930 . S
H1661 C1676 0.960 . S
H1662 C1676 0.960 . S
H1663 C1676 0.960 . S
C1664 H1656 0.929 . S
C1664 C1665 1.377 . S
C1664 C1666 1.384 . S
C1665 C1664 1.377 . S
C1665 C1671 1.390 . S
C1666 H1657 0.930 . S
C1666 C1664 1.384 . S
C1666 C1667 1.372 . S
C1667 C1666 1.372 . S
C1667 C1668 1.400 . S
C1667 C1672 1.490 . S
C1668 H1658 0.930 . S
C1668 C1667 1.400 . S
C1668 C1671 1.386 . S
H1669 C1685 0.930 . S
H1670 C1686 0.931 . S
C1671 H1659 0.929 . S
C1671 C1665 1.390 . S
C1671 C1668 1.386 . S
C1672 C1667 1.490 . S
C1672 C1674 1.395 . S
C1672 C1675 1.403 . S
H1673 C1679 0.930 . S
C1674 H1660 0.930 . S
C1674 C1672 1.395 . S
C1674 C1677 1.403 . S
C1675 C1672 1.403 . S
C1675 C1676 1.524 . S
C1675 C1679 1.400 . S
C1676 H1661 0.960 . S
C1676 H1662 0.960 . S
C1676 H1663 0.960 . S
C1676 C1675 1.524 . S
C1677 C1674 1.403 . S
C1677 C1678 1.392 . S
C1677 C1681 1.495 . S
C1678 C1677 1.392 . S
C1678 C1679 1.385 . S
C1678 C1680 1.478 . S
C1679 H1673 0.930 . S
C1679 C1675 1.400 . S
C1679 C1678 1.385 . S
C1680 C1678 1.478 . S
C1680 C1682 1.381 . S
C1680 C1686 1.383 . S
C1681 C1677 1.495 . S
C1681 H1687 0.959 . S
C1681 H1688 0.961 . S
C1681 H1689 0.960 . S
C1682 C1680 1.381 . S
C1682 C1683 1.394 . S
C1682 H1690 0.930 . S
C1683 C1682 1.394 . S
C1683 C1684 1.383 . S
C1683 H1691 0.929 . S
C1684 C1683 1.383 . S
C1684 C1685 1.377 . S
C1685 H1669 0.930 . S
C1685 C1684 1.377 . S
C1685 C1686 1.379 . S
C1686 H1670 0.931 . S
C1686 C1680 1.383 . S
C1686 C1685 1.379 . S
H1687 C1681 0.959 . S
H1688 C1681 0.961 . S
H1689 C1681 0.960 . S
H1690 C1682 0.930 . S
H1691 C1683 0.929 . S
H1692 C1700 0.929 . S
H1693 C1702 0.930 . S
H1694 C1704 0.930 . S
H1695 C1707 0.929 . S
H1696 C1710 0.930 . S
H1697 C1712 0.960 . S
H1698 C1712 0.960 . S
H1699 C1712 0.960 . S
C1700 H1692 0.929 . S
C1700 C1701 1.377 . S
C1700 C1702 1.384 . S
C1701 C1700 1.377 . S
C1701 C1707 1.390 . S
C1702 H1693 0.930 . S
C1702 C1700 1.384 . S
C1702 C1703 1.372 . S
C1703 C1702 1.372 . S
C1703 C1704 1.400 . S
C1703 C1708 1.490 . S
C1704 H1694 0.930 . S
C1704 C1703 1.400 . S
C1704 C1707 1.386 . S
H1705 C1721 0.930 . S
H1706 C1722 0.931 . S
C1707 H1695 0.929 . S
C1707 C1701 1.390 . S
C1707 C1704 1.386 . S
C1708 C1703 1.490 . S
C1708 C1710 1.395 . S
C1708 C1711 1.403 . S
H1709 C1715 0.930 . S
C1710 H1696 0.930 . S
C1710 C1708 1.395 . S
C1710 C1713 1.403 . S
C1711 C1708 1.403 . S
C1711 C1712 1.524 . S
C1711 C1715 1.400 . S
C1712 H1697 0.960 . S
C1712 H1698 0.960 . S
C1712 H1699 0.960 . S
C1712 C1711 1.524 . S
C1713 C1710 1.403 . S
C1713 C1714 1.392 . S
C1713 C1717 1.495 . S
C1714 C1713 1.392 . S
C1714 C1715 1.385 . S
C1714 C1716 1.478 . S
C1715 H1709 0.930 . S
C1715 C1711 1.400 . S
C1715 C1714 1.385 . S
C1716 C1714 1.478 . S
C1716 C1718 1.381 . S
C1716 C1722 1.383 . S
C1717 C1713 1.495 . S
C1717 H1723 0.959 . S
C1717 H1724 0.961 . S
C1717 H1725 0.960 . S
C1718 C1716 1.381 . S
C1718 C1719 1.394 . S
C1718 H1726 0.930 . S
C1719 C1718 1.394 . S
C1719 C1720 1.383 . S
C1719 H1727 0.929 . S
C1720 C1719 1.383 . S
C1720 C1721 1.377 . S
C1721 H1705 0.930 . S
C1721 C1720 1.377 . S
C1721 C1722 1.379 . S
C1722 H1706 0.931 . S
C1722 C1716 1.383 . S
C1722 C1721 1.379 . S
H1723 C1717 0.959 . S
H1724 C1717 0.961 . S
H1725 C1717 0.960 . S
H1726 C1718 0.930 . S
H1727 C1719 0.929 . S
H1728 C1736 0.929 . S
H1729 C1738 0.930 . S
H1730 C1740 0.930 . S
H1731 C1743 0.929 . S
H1732 C1746 0.930 . S
H1733 C1748 0.960 . S
H1734 C1748 0.960 . S
H1735 C1748 0.960 . S
C1736 H1728 0.929 . S
C1736 C1737 1.377 . S
C1736 C1738 1.384 . S
C1737 C1736 1.377 . S
C1737 C1743 1.390 . S
C1738 H1729 0.930 . S
C1738 C1736 1.384 . S
C1738 C1739 1.372 . S
C1739 C1738 1.372 . S
C1739 C1740 1.400 . S
C1739 C1744 1.490 . S
C1740 H1730 0.930 . S
C1740 C1739 1.400 . S
C1740 C1743 1.386 . S
H1741 C1757 0.930 . S
H1742 C1758 0.931 . S
C1743 H1731 0.929 . S
C1743 C1737 1.390 . S
C1743 C1740 1.386 . S
C1744 C1739 1.490 . S
C1744 C1746 1.395 . S
C1744 C1747 1.403 . S
H1745 C1751 0.930 . S
C1746 H1732 0.930 . S
C1746 C1744 1.395 . S
C1746 C1749 1.403 . S
C1747 C1744 1.403 . S
C1747 C1748 1.524 . S
C1747 C1751 1.400 . S
C1748 H1733 0.960 . S
C1748 H1734 0.960 . S
C1748 H1735 0.960 . S
C1748 C1747 1.524 . S
C1749 C1746 1.403 . S
C1749 C1750 1.392 . S
C1749 C1753 1.495 . S
C1750 C1749 1.392 . S
C1750 C1751 1.385 . S
C1750 C1752 1.478 . S
C1751 H1745 0.930 . S
C1751 C1747 1.400 . S
C1751 C1750 1.385 . S
C1752 C1750 1.478 . S
C1752 C1754 1.381 . S
C1752 C1758 1.383 . S
C1753 C1749 1.495 . S
C1753 H1759 0.959 . S
C1753 H1760 0.961 . S
C1753 H1761 0.960 . S
C1754 C1752 1.381 . S
C1754 C1755 1.394 . S
C1754 H1762 0.930 . S
C1755 C1754 1.394 . S
C1755 C1756 1.383 . S
C1755 H1763 0.929 . S
C1756 C1755 1.383 . S
C1756 C1757 1.377 . S
C1757 H1741 0.930 . S
C1757 C1756 1.377 . S
C1757 C1758 1.379 . S
C1758 H1742 0.931 . S
C1758 C1752 1.383 . S
C1758 C1757 1.379 . S
H1759 C1753 0.959 . S
H1760 C1753 0.961 . S
H1761 C1753 0.960 . S
H1762 C1754 0.930 . S
H1763 C1755 0.929 . S
H1764 C1772 0.929 . S
H1765 C1774 0.930 . S
H1766 C1776 0.930 . S
H1767 C1779 0.929 . S
H1768 C1782 0.930 . S
H1769 C1784 0.960 . S
H1770 C1784 0.960 . S
H1771 C1784 0.960 . S
C1772 H1764 0.929 . S
C1772 C1773 1.377 . S
C1772 C1774 1.384 . S
C1773 C1772 1.377 . S
C1773 C1779 1.390 . S
C1774 H1765 0.930 . S
C1774 C1772 1.384 . S
C1774 C1775 1.372 . S
C1775 C1774 1.372 . S
C1775 C1776 1.400 . S
C1775 C1780 1.490 . S
C1776 H1766 0.930 . S
C1776 C1775 1.400 . S
C1776 C1779 1.386 . S
H1777 C1793 0.930 . S
H1778 C1794 0.931 . S
C1779 H1767 0.929 . S
C1779 C1773 1.390 . S
C1779 C1776 1.386 . S
C1780 C1775 1.490 . S
C1780 C1782 1.395 . S
C1780 C1783 1.403 . S
H1781 C1787 0.930 . S
C1782 H1768 0.930 . S
C1782 C1780 1.395 . S
C1782 C1785 1.403 . S
C1783 C1780 1.403 . S
C1783 C1784 1.524 . S
C1783 C1787 1.400 . S
C1784 H1769 0.960 . S
C1784 H1770 0.960 . S
C1784 H1771 0.960 . S
C1784 C1783 1.524 . S
C1785 C1782 1.403 . S
C1785 C1786 1.392 . S
C1785 C1789 1.495 . S
C1786 C1785 1.392 . S
C1786 C1787 1.385 . S
C1786 C1788 1.478 . S
C1787 H1781 0.930 . S
C1787 C1783 1.400 . S
C1787 C1786 1.385 . S
C1788 C1786 1.478 . S
C1788 C1790 1.381 . S
C1788 C1794 1.383 . S
C1789 C1785 1.495 . S
C1789 H1795 0.959 . S
C1789 H1796 0.961 . S
C1789 H1797 0.960 . S
C1790 C1788 1.381 . S
C1790 C1791 1.394 . S
C1790 H1798 0.930 . S
C1791 C1790 1.394 . S
C1791 C1792 1.383 . S
C1791 H1799 0.929 . S
C1792 C1791 1.383 . S
C1792 C1793 1.377 . S
C1793 H1777 0.930 . S
C1793 C1792 1.377 . S
C1793 C1794 1.379 . S
C1794 H1778 0.931 . S
C1794 C1788 1.383 . S
C1794 C1793 1.379 . S
H1795 C1789 0.959 . S
H1796 C1789 0.961 . S
H1797 C1789 0.960 . S
H1798 C1790 0.930 . S
H1799 C1791 0.929 . S
H1800 C1808 0.929 . S
H1801 C1810 0.930 . S
H1802 C1812 0.930 . S
H1803 C1815 0.929 . S
H1804 C1818 0.930 . S
H1805 C1820 0.960 . S
H1806 C1820 0.960 . S
H1807 C1820 0.960 . S
C1808 H1800 0.929 . S
C1808 C1809 1.377 . S
C1808 C1810 1.384 . S
C1809 C1808 1.377 . S
C1809 C1815 1.390 . S
C1810 H1801 0.930 . S
C1810 C1808 1.384 . S
C1810 C1811 1.372 . S
C1811 C1810 1.372 . S
C1811 C1812 1.400 . S
C1811 C1816 1.490 . S
C1812 H1802 0.930 . S
C1812 C1811 1.400 . S
C1812 C1815 1.386 . S
H1813 C1829 0.930 . S
H1814 C1830 0.931 . S
C1815 H1803 0.929 . S
C1815 C1809 1.390 . S
C1815 C1812 1.386 . S
C1816 C1811 1.490 . S
C1816 C1818 1.395 . S
C1816 C1819 1.403 . S
H1817 C1823 0.930 . S
C1818 H1804 0.930 . S
C1818 C1816 1.395 . S
C1818 C1821 1.403 . S
C1819 C1816 1.403 . S
C1819 C1820 1.524 . S
C1819 C1823 1.400 . S
C1820 H1805 0.960 . S
C1820 H1806 0.960 . S
C1820 H1807 0.960 . S
C1820 C1819 1.524 . S
C1821 C1818 1.403 . S
C1821 C1822 1.392 . S
C1821 C1825 1.495 . S
C1822 C1821 1.392 . S
C1822 C1823 1.385 . S
C1822 C1824 1.478 . S
C1823 H1817 0.930 . S
C1823 C1819 1.400 . S
C1823 C1822 1.385 . S
C1824 C1822 1.478 . S
C1824 C1826 1.381 . S
C1824 C1830 1.383 . S
C1825 C1821 1.495 . S
C1825 H1831 0.959 . S
C1825 H1832 0.961 . S
C1825 H1833 0.960 . S
C1826 C1824 1.381 . S
C1826 C1827 1.394 . S
C1826 H1834 0.930 . S
C1827 C1826 1.394 . S
C1827 C1828 1.383 . S
C1827 H1835 0.929 . S
C1828 C1827 1.383 . S
C1828 C1829 1.377 . S
C1829 H1813 0.930 . S
C1829 C1828 1.377 . S
C1829 C1830 1.379 . S
C1830 H1814 0.931 . S
C1830 C1824 1.383 . S
C1830 C1829 1.379 . S
H1831 C1825 0.959 . S
H1832 C1825 0.961 . S
H1833 C1825 0.960 . S
H1834 C1826 0.930 . S
H1835 C1827 0.929 . S
H1836 C1844 0.929 . S
H1837 C1846 0.930 . S
H1838 C1848 0.930 . S
H1839 C1851 0.929 . S
H1840 C1854 0.930 . S
H1841 C1856 0.960 . S
H1842 C1856 0.960 . S
H1843 C1856 0.960 . S
C1844 H1836 0.929 . S
C1844 C1845 1.377 . S
C1844 C1846 1.384 . S
C1845 C1844 1.377 . S
C1845 C1851 1.390 . S
C1846 H1837 0.930 . S
C1846 C1844 1.384 . S
C1846 C1847 1.372 . S
C1847 C1846 1.372 . S
C1847 C1848 1.400 . S
C1847 C1852 1.490 . S
C1848 H1838 0.930 . S
C1848 C1847 1.400 . S
C1848 C1851 1.386 . S
H1849 C1865 0.930 . S
H1850 C1866 0.931 . S
C1851 H1839 0.929 . S
C1851 C1845 1.390 . S
C1851 C1848 1.386 . S
C1852 C1847 1.490 . S
C1852 C1854 1.395 . S
C1852 C1855 1.403 . S
H1853 C1859 0.930 . S
C1854 H1840 0.930 . S
C1854 C1852 1.395 . S
C1854 C1857 1.403 . S
C1855 C1852 1.403 . S
C1855 C1856 1.524 . S
C1855 C1859 1.400 . S
C1856 H1841 0.960 . S
C1856 H1842 0.960 . S
C1856 H1843 0.960 . S
C1856 C1855 1.524 . S
C1857 C1854 1.403 . S
C1857 C1858 1.392 . S
C1857 C1861 1.495 . S
C1858 C1857 1.392 . S
C1858 C1859 1.385 . S
C1858 C1860 1.478 . S
C1859 H1853 0.930 . S
C1859 C1855 1.400 . S
C1859 C1858 1.385 . S
C1860 C1858 1.478 . S
C1860 C1862 1.381 . S
C1860 C1866 1.383 . S
C1861 C1857 1.495 . S
C1861 H1867 0.959 . S
C1861 H1868 0.961 . S
C1861 H1869 0.960 . S
C1862 C1860 1.381 . S
C1862 C1863 1.394 . S
C1862 H1870 0.930 . S
C1863 C1862 1.394 . S
C1863 C1864 1.383 . S
C1863 H1871 0.929 . S
C1864 C1863 1.383 . S
C1864 C1865 1.377 . S
C1865 H1849 0.930 . S
C1865 C1864 1.377 . S
C1865 C1866 1.379 . S
C1866 H1850 0.931 . S
C1866 C1860 1.383 . S
C1866 C1865 1.379 . S
H1867 C1861 0.959 . S
H1868 C1861 0.961 . S
H1869 C1861 0.960 . S
H1870 C1862 0.930 . S
H1871 C1863 0.929 . S
H1872 C1880 0.929 . S
H1873 C1882 0.930 . S
H1874 C1884 0.930 . S
H1875 C1887 0.929 . S
H1876 C1890 0.930 . S
H1877 C1892 0.960 . S
H1878 C1892 0.960 . S
H1879 C1892 0.960 . S
C1880 H1872 0.929 . S
C1880 C1881 1.377 . S
C1880 C1882 1.384 . S
C1881 C1880 1.377 . S
C1881 C1887 1.390 . S
C1882 H1873 0.930 . S
C1882 C1880 1.384 . S
C1882 C1883 1.372 . S
C1883 C1882 1.372 . S
C1883 C1884 1.400 . S
C1883 C1888 1.490 . S
C1884 H1874 0.930 . S
C1884 C1883 1.400 . S
C1884 C1887 1.386 . S
H1885 C1901 0.930 . S
H1886 C1902 0.931 . S
C1887 H1875 0.929 . S
C1887 C1881 1.390 . S
C1887 C1884 1.386 . S
C1888 C1883 1.490 . S
C1888 C1890 1.395 . S
C1888 C1891 1.403 . S
H1889 C1895 0.930 . S
C1890 H1876 0.930 . S
C1890 C1888 1.395 . S
C1890 C1893 1.403 . S
C1891 C1888 1.403 . S
C1891 C1892 1.524 . S
C1891 C1895 1.400 . S
C1892 H1877 0.960 . S
C1892 H1878 0.960 . S
C1892 H1879 0.960 . S
C1892 C1891 1.524 . S
C1893 C1890 1.403 . S
C1893 C1894 1.392 . S
C1893 C1897 1.495 . S
C1894 C1893 1.392 . S
C1894 C1895 1.385 . S
C1894 C1896 1.478 . S
C1895 H1889 0.930 . S
C1895 C1891 1.400 . S
C1895 C1894 1.385 . S
C1896 C1894 1.478 . S
C1896 C1898 1.381 . S
C1896 C1902 1.383 . S
C1897 C1893 1.495 . S
C1897 H1903 0.959 . S
C1897 H1904 0.961 . S
C1897 H1905 0.960 . S
C1898 C1896 1.381 . S
C1898 C1899 1.394 . S
C1898 H1906 0.930 . S
C1899 C1898 1.394 . S
C1899 C1900 1.383 . S
C1899 H1907 0.929 . S
C1900 C1899 1.383 . S
C1900 C1901 1.377 . S
C1901 H1885 0.930 . S
C1901 C1900 1.377 . S
C1901 C1902 1.379 . S
C1902 H1886 0.931 . S
C1902 C1896 1.383 . S
C1902 C1901 1.379 . S
H1903 C1897 0.959 . S
H1904 C1897 0.961 . S
H1905 C1897 0.960 . S
H1906 C1898 0.930 . S
H1907 C1899 0.929 . S
H1908 C1916 0.929 . S
H1909 C1918 0.930 . S
H1910 C1920 0.930 . S
H1911 C1923 0.929 . S
H1912 C1926 0.930 . S
H1913 C1928 0.960 . S
H1914 C1928 0.960 . S
H1915 C1928 0.960 . S
C1916 H1908 0.929 . S
C1916 C1917 1.377 . S
C1916 C1918 1.384 . S
C1917 C1916 1.377 . S
C1917 C1923 1.390 . S
C1918 H1909 0.930 . S
C1918 C1916 1.384 . S
C1918 C1919 1.372 . S
C1919 C1918 1.372 . S
C1919 C1920 1.400 . S
C1919 C1924 1.490 . S
C1920 H1910 0.930 . S
C1920 C1919 1.400 . S
C1920 C1923 1.386 . S
H1921 C1937 0.930 . S
H1922 C1938 0.931 . S
C1923 H1911 0.929 . S
C1923 C1917 1.390 . S
C1923 C1920 1.386 . S
C1924 C1919 1.490 . S
C1924 C1926 1.395 . S
C1924 C1927 1.403 . S
H1925 C1931 0.930 . S
C1926 H1912 0.930 . S
C1926 C1924 1.395 . S
C1926 C1929 1.403 . S
C1927 C1924 1.403 . S
C1927 C1928 1.524 . S
C1927 C1931 1.400 . S
C1928 H1913 0.960 . S
C1928 H1914 0.960 . S
C1928 H1915 0.960 . S
C1928 C1927 1.524 . S
C1929 C1926 1.403 . S
C1929 C1930 1.392 . S
C1929 C1933 1.495 . S
C1930 C1929 1.392 . S
C1930 C1931 1.385 . S
C1930 C1932 1.478 . S
C1931 H1925 0.930 . S
C1931 C1927 1.400 . S
C1931 C1930 1.385 . S
C1932 C1930 1.478 . S
C1932 C1934 1.381 . S
C1932 C1938 1.383 . S
C1933 C1929 1.495 . S
C1933 H1939 0.959 . S
C1933 H1940 0.961 . S
C1933 H1941 0.960 . S
C1934 C1932 1.381 . S
C1934 C1935 1.394 . S
C1934 H1942 0.930 . S
C1935 C1934 1.394 . S
C1935 C1936 1.383 . S
C1935 H1943 0.929 . S
C1936 C1935 1.383 . S
C1936 C1937 1.377 . S
C1937 H1921 0.930 . S
C1937 C1936 1.377 . S
C1937 C1938 1.379 . S
C1938 H1922 0.931 . S
C1938 C1932 1.383 . S
C1938 C1937 1.379 . S
H1939 C1933 0.959 . S
H1940 C1933 0.961 . S
H1941 C1933 0.960 . S
H1942 C1934 0.930 . S
H1943 C1935 0.929 . S
H1944 C1952 0.929 . S
H1945 C1954 0.930 . S
H1946 C1956 0.930 . S
H1947 C1959 0.929 . S
H1948 C1962 0.930 . S
H1949 C1964 0.960 . S
H1950 C1964 0.960 . S
H1951 C1964 0.960 . S
C1952 H1944 0.929 . S
C1952 C1953 1.377 . S
C1952 C1954 1.384 . S
C1953 C1952 1.377 . S
C1953 C1959 1.390 . S
C1954 H1945 0.930 . S
C1954 C1952 1.384 . S
C1954 C1955 1.372 . S
C1955 C1954 1.372 . S
C1955 C1956 1.400 . S
C1955 C1960 1.490 . S
C1956 H1946 0.930 . S
C1956 C1955 1.400 . S
C1956 C1959 1.386 . S
H1957 C1973 0.930 . S
H1958 C1974 0.931 . S
C1959 H1947 0.929 . S
C1959 C1953 1.390 . S
C1959 C1956 1.386 . S
C1960 C1955 1.490 . S
C1960 C1962 1.395 . S
C1960 C1963 1.403 . S
H1961 C1967 0.930 . S
C1962 H1948 0.930 . S
C1962 C1960 1.395 . S
C1962 C1965 1.403 . S
C1963 C1960 1.403 . S
C1963 C1964 1.524 . S
C1963 C1967 1.400 . S
C1964 H1949 0.960 . S
C1964 H1950 0.960 . S
C1964 H1951 0.960 . S
C1964 C1963 1.524 . S
C1965 C1962 1.403 . S
C1965 C1966 1.392 . S
C1965 C1969 1.495 . S
C1966 C1965 1.392 . S
C1966 C1967 1.385 . S
C1966 C1968 1.478 . S
C1967 H1961 0.930 . S
C1967 C1963 1.400 . S
C1967 C1966 1.385 . S
C1968 C1966 1.478 . S
C1968 C1970 1.381 . S
C1968 C1974 1.383 . S
C1969 C1965 1.495 . S
C1969 H1975 0.959 . S
C1969 H1976 0.961 . S
C1969 H1977 0.960 . S
C1970 C1968 1.381 . S
C1970 C1971 1.394 . S
C1970 H1978 0.930 . S
C1971 C1970 1.394 . S
C1971 C1972 1.383 . S
C1971 H1979 0.929 . S
C1972 C1971 1.383 . S
C1972 C1973 1.377 . S
C1973 H1957 0.930 . S
C1973 C1972 1.377 . S
C1973 C1974 1.379 . S
C1974 H1958 0.931 . S
C1974 C1968 1.383 . S
C1974 C1973 1.379 . S
H1975 C1969 0.959 . S
H1976 C1969 0.961 . S
H1977 C1969 0.960 . S
H1978 C1970 0.930 . S
H1979 C1971 0.929 . S
H1980 C1988 0.929 . S
H1981 C1990 0.930 . S
H1982 C1992 0.930 . S
H1983 C1995 0.929 . S
H1984 C1998 0.930 . S
H1985 C2000 0.960 . S
H1986 C2000 0.960 . S
H1987 C2000 0.960 . S
C1988 H1980 0.929 . S
C1988 C1989 1.377 . S
C1988 C1990 1.384 . S
C1989 C1988 1.377 . S
C1989 C1995 1.390 . S
C1990 H1981 0.930 . S
C1990 C1988 1.384 . S
C1990 C1991 1.372 . S
C1991 C1990 1.372 . S
C1991 C1992 1.400 . S
C1991 C1996 1.490 . S
C1992 H1982 0.930 . S
C1992 C1991 1.400 . S
C1992 C1995 1.386 . S
H1993 C2009 0.930 . S
H1994 C2010 0.931 . S
C1995 H1983 0.929 . S
C1995 C1989 1.390 . S
C1995 C1992 1.386 . S
C1996 C1991 1.490 . S
C1996 C1998 1.395 . S
C1996 C1999 1.403 . S
H1997 C2003 0.930 . S
C1998 H1984 0.930 . S
C1998 C1996 1.395 . S
C1998 C2001 1.403 . S
C1999 C1996 1.403 . S
C1999 C2000 1.524 . S
C1999 C2003 1.400 . S
C2000 H1985 0.960 . S
C2000 H1986 0.960 . S
C2000 H1987 0.960 . S
C2000 C1999 1.524 . S
C2001 C1998 1.403 . S
C2001 C2002 1.392 . S
C2001 C2005 1.495 . S
C2002 C2001 1.392 . S
C2002 C2003 1.385 . S
C2002 C2004 1.478 . S
C2003 H1997 0.930 . S
C2003 C1999 1.400 . S
C2003 C2002 1.385 . S
C2004 C2002 1.478 . S
C2004 C2006 1.381 . S
C2004 C2010 1.383 . S
C2005 C2001 1.495 . S
C2005 H2011 0.959 . S
C2005 H2012 0.961 . S
C2005 H2013 0.960 . S
C2006 C2004 1.381 . S
C2006 C2007 1.394 . S
C2006 H2014 0.930 . S
C2007 C2006 1.394 . S
C2007 C2008 1.383 . S
C2007 H2015 0.929 . S
C2008 C2007 1.383 . S
C2008 C2009 1.377 . S
C2009 H1993 0.930 . S
C2009 C2008 1.377 . S
C2009 C2010 1.379 . S
C2010 H1994 0.931 . S
C2010 C2004 1.383 . S
C2010 C2009 1.379 . S
H2011 C2005 0.959 . S
H2012 C2005 0.961 . S
H2013 C2005 0.960 . S
H2014 C2006 0.930 . S
H2015 C2007 0.929 . S
H2016 C2024 0.929 . S
H2017 C2026 0.930 . S
H2018 C2028 0.930 . S
H2019 C2031 0.929 . S
H2020 C2034 0.930 . S
H2021 C2036 0.960 . S
H2022 C2036 0.960 . S
H2023 C2036 0.960 . S
C2024 H2016 0.929 . S
C2024 C2025 1.377 . S
C2024 C2026 1.384 . S
C2025 C2024 1.377 . S
C2025 C2031 1.390 . S
C2026 H2017 0.930 . S
C2026 C2024 1.384 . S
C2026 C2027 1.372 . S
C2027 C2026 1.372 . S
C2027 C2028 1.400 . S
C2027 C2032 1.490 . S
C2028 H2018 0.930 . S
C2028 C2027 1.400 . S
C2028 C2031 1.386 . S
H2029 C2045 0.930 . S
H2030 C2046 0.931 . S
C2031 H2019 0.929 . S
C2031 C2025 1.390 . S
C2031 C2028 1.386 . S
C2032 C2027 1.490 . S
C2032 C2034 1.395 . S
C2032 C2035 1.403 . S
H2033 C2039 0.930 . S
C2034 H2020 0.930 . S
C2034 C2032 1.395 . S
C2034 C2037 1.403 . S
C2035 C2032 1.403 . S
C2035 C2036 1.524 . S
C2035 C2039 1.400 . S
C2036 H2021 0.960 . S
C2036 H2022 0.960 . S
C2036 H2023 0.960 . S
C2036 C2035 1.524 . S
C2037 C2034 1.403 . S
C2037 C2038 1.392 . S
C2037 C2041 1.495 . S
C2038 C2037 1.392 . S
C2038 C2039 1.385 . S
C2038 C2040 1.478 . S
C2039 H2033 0.930 . S
C2039 C2035 1.400 . S
C2039 C2038 1.385 . S
C2040 C2038 1.478 . S
C2040 C2042 1.381 . S
C2040 C2046 1.383 . S
C2041 C2037 1.495 . S
C2041 H2047 0.959 . S
C2041 H2048 0.961 . S
C2041 H2049 0.960 . S
C2042 C2040 1.381 . S
C2042 C2043 1.394 . S
C2042 H2050 0.930 . S
C2043 C2042 1.394 . S
C2043 C2044 1.383 . S
C2043 H2051 0.929 . S
C2044 C2043 1.383 . S
C2044 C2045 1.377 . S
C2045 H2029 0.930 . S
C2045 C2044 1.377 . S
C2045 C2046 1.379 . S
C2046 H2030 0.931 . S
C2046 C2040 1.383 . S
C2046 C2045 1.379 . S
H2047 C2041 0.959 . S
H2048 C2041 0.961 . S
H2049 C2041 0.960 . S
H2050 C2042 0.930 . S
H2051 C2043 0.929 . S
H2052 C2060 0.929 . S
H2053 C2062 0.930 . S
H2054 C2064 0.930 . S
H2055 C2067 0.929 . S
H2056 C2070 0.930 . S
H2057 C2072 0.960 . S
H2058 C2072 0.960 . S
H2059 C2072 0.960 . S
C2060 H2052 0.929 . S
C2060 C2061 1.377 . S
C2060 C2062 1.384 . S
C2061 C2060 1.377 . S
C2061 C2067 1.390 . S
C2062 H2053 0.930 . S
C2062 C2060 1.384 . S
C2062 C2063 1.372 . S
C2063 C2062 1.372 . S
C2063 C2064 1.400 . S
C2063 C2068 1.490 . S
C2064 H2054 0.930 . S
C2064 C2063 1.400 . S
C2064 C2067 1.386 . S
H2065 C2081 0.930 . S
H2066 C2082 0.931 . S
C2067 H2055 0.929 . S
C2067 C2061 1.390 . S
C2067 C2064 1.386 . S
C2068 C2063 1.490 . S
C2068 C2070 1.395 . S
C2068 C2071 1.403 . S
H2069 C2075 0.930 . S
C2070 H2056 0.930 . S
C2070 C2068 1.395 . S
C2070 C2073 1.403 . S
C2071 C2068 1.403 . S
C2071 C2072 1.524 . S
C2071 C2075 1.400 . S
C2072 H2057 0.960 . S
C2072 H2058 0.960 . S
C2072 H2059 0.960 . S
C2072 C2071 1.524 . S
C2073 C2070 1.403 . S
C2073 C2074 1.392 . S
C2073 C2077 1.495 . S
C2074 C2073 1.392 . S
C2074 C2075 1.385 . S
C2074 C2076 1.478 . S
C2075 H2069 0.930 . S
C2075 C2071 1.400 . S
C2075 C2074 1.385 . S
C2076 C2074 1.478 . S
C2076 C2078 1.381 . S
C2076 C2082 1.383 . S
C2077 C2073 1.495 . S
C2077 H2083 0.959 . S
C2077 H2084 0.961 . S
C2077 H2085 0.960 . S
C2078 C2076 1.381 . S
C2078 C2079 1.394 . S
C2078 H2086 0.930 . S
C2079 C2078 1.394 . S
C2079 C2080 1.383 . S
C2079 H2087 0.929 . S
C2080 C2079 1.383 . S
C2080 C2081 1.377 . S
C2081 H2065 0.930 . S
C2081 C2080 1.377 . S
C2081 C2082 1.379 . S
C2082 H2066 0.931 . S
C2082 C2076 1.383 . S
C2082 C2081 1.379 . S
H2083 C2077 0.959 . S
H2084 C2077 0.961 . S
H2085 C2077 0.960 . S
H2086 C2078 0.930 . S
H2087 C2079 0.929 . S
H2088 C2096 0.929 . S
H2089 C2098 0.930 . S
H2090 C2100 0.930 . S
H2091 C2103 0.929 . S
H2092 C2106 0.930 . S
H2093 C2108 0.960 . S
H2094 C2108 0.960 . S
H2095 C2108 0.960 . S
C2096 H2088 0.929 . S
C2096 C2097 1.377 . S
C2096 C2098 1.384 . S
C2097 C2096 1.377 . S
C2097 C2103 1.390 . S
C2098 H2089 0.930 . S
C2098 C2096 1.384 . S
C2098 C2099 1.372 . S
C2099 C2098 1.372 . S
C2099 C2100 1.400 . S
C2099 C2104 1.490 . S
C2100 H2090 0.930 . S
C2100 C2099 1.400 . S
C2100 C2103 1.386 . S
H2101 C2117 0.930 . S
H2102 C2118 0.931 . S
C2103 H2091 0.929 . S
C2103 C2097 1.390 . S
C2103 C2100 1.386 . S
C2104 C2099 1.490 . S
C2104 C2106 1.395 . S
C2104 C2107 1.403 . S
H2105 C2111 0.930 . S
C2106 H2092 0.930 . S
C2106 C2104 1.395 . S
C2106 C2109 1.403 . S
C2107 C2104 1.403 . S
C2107 C2108 1.524 . S
C2107 C2111 1.400 . S
C2108 H2093 0.960 . S
C2108 H2094 0.960 . S
C2108 H2095 0.960 . S
C2108 C2107 1.524 . S
C2109 C2106 1.403 . S
C2109 C2110 1.392 . S
C2109 C2113 1.495 . S
C2110 C2109 1.392 . S
C2110 C2111 1.385 . S
C2110 C2112 1.478 . S
C2111 H2105 0.930 . S
C2111 C2107 1.400 . S
C2111 C2110 1.385 . S
C2112 C2110 1.478 . S
C2112 C2114 1.381 . S
C2112 C2118 1.383 . S
C2113 C2109 1.495 . S
C2113 H2119 0.959 . S
C2113 H2120 0.961 . S
C2113 H2121 0.960 . S
C2114 C2112 1.381 . S
C2114 C2115 1.394 . S
C2114 H2122 0.930 . S
C2115 C2114 1.394 . S
C2115 C2116 1.383 . S
C2115 H2123 0.929 . S
C2116 C2115 1.383 . S
C2116 C2117 1.377 . S
C2117 H2101 0.930 . S
C2117 C2116 1.377 . S
C2117 C2118 1.379 . S
C2118 H2102 0.931 . S
C2118 C2112 1.383 . S
C2118 C2117 1.379 . S
H2119 C2113 0.959 . S
H2120 C2113 0.961 . S
H2121 C2113 0.960 . S
H2122 C2114 0.930 . S
H2123 C2115 0.929 . S
H2124 C2132 0.929 . S
H2125 C2134 0.930 . S
H2126 C2136 0.930 . S
H2127 C2139 0.929 . S
H2128 C2142 0.930 . S
H2129 C2144 0.960 . S
H2130 C2144 0.960 . S
H2131 C2144 0.960 . S
C2132 H2124 0.929 . S
C2132 C2133 1.377 . S
C2132 C2134 1.384 . S
C2133 C2132 1.377 . S
C2133 C2139 1.390 . S
C2134 H2125 0.930 . S
C2134 C2132 1.384 . S
C2134 C2135 1.372 . S
C2135 C2134 1.372 . S
C2135 C2136 1.400 . S
C2135 C2140 1.490 . S
C2136 H2126 0.930 . S
C2136 C2135 1.400 . S
C2136 C2139 1.386 . S
H2137 C2153 0.930 . S
H2138 C2154 0.931 . S
C2139 H2127 0.929 . S
C2139 C2133 1.390 . S
C2139 C2136 1.386 . S
C2140 C2135 1.490 . S
C2140 C2142 1.395 . S
C2140 C2143 1.403 . S
H2141 C2147 0.930 . S
C2142 H2128 0.930 . S
C2142 C2140 1.395 . S
C2142 C2145 1.403 . S
C2143 C2140 1.403 . S
C2143 C2144 1.524 . S
C2143 C2147 1.400 . S
C2144 H2129 0.960 . S
C2144 H2130 0.960 . S
C2144 H2131 0.960 . S
C2144 C2143 1.524 . S
C2145 C2142 1.403 . S
C2145 C2146 1.392 . S
C2145 C2149 1.495 . S
C2146 C2145 1.392 . S
C2146 C2147 1.385 . S
C2146 C2148 1.478 . S
C2147 H2141 0.930 . S
C2147 C2143 1.400 . S
C2147 C2146 1.385 . S
C2148 C2146 1.478 . S
C2148 C2150 1.381 . S
C2148 C2154 1.383 . S
C2149 C2145 1.495 . S
C2149 H2155 0.959 . S
C2149 H2156 0.961 . S
C2149 H2157 0.960 . S
C2150 C2148 1.381 . S
C2150 C2151 1.394 . S
C2150 H2158 0.930 . S
C2151 C2150 1.394 . S
C2151 C2152 1.383 . S
C2151 H2159 0.929 . S
C2152 C2151 1.383 . S
C2152 C2153 1.377 . S
C2153 H2137 0.930 . S
C2153 C2152 1.377 . S
C2153 C2154 1.379 . S
C2154 H2138 0.931 . S
C2154 C2148 1.383 . S
C2154 C2153 1.379 . S
H2155 C2149 0.959 . S
H2156 C2149 0.961 . S
H2157 C2149 0.960 . S
H2158 C2150 0.930 . S
H2159 C2151 0.929 . S
H2160 C2168 0.929 . S
H2161 C2170 0.930 . S
H2162 C2172 0.930 . S
H2163 C2175 0.929 . S
H2164 C2178 0.930 . S
H2165 C2180 0.960 . S
H2166 C2180 0.960 . S
H2167 C2180 0.960 . S
C2168 H2160 0.929 . S
C2168 C2169 1.377 . S
C2168 C2170 1.384 . S
C2169 C2168 1.377 . S
C2169 C2175 1.390 . S
C2170 H2161 0.930 . S
C2170 C2168 1.384 . S
C2170 C2171 1.372 . S
C2171 C2170 1.372 . S
C2171 C2172 1.400 . S
C2171 C2176 1.490 . S
C2172 H2162 0.930 . S
C2172 C2171 1.400 . S
C2172 C2175 1.386 . S
H2173 C2189 0.930 . S
H2174 C2190 0.931 . S
C2175 H2163 0.929 . S
C2175 C2169 1.390 . S
C2175 C2172 1.386 . S
C2176 C2171 1.490 . S
C2176 C2178 1.395 . S
C2176 C2179 1.403 . S
H2177 C2183 0.930 . S
C2178 H2164 0.930 . S
C2178 C2176 1.395 . S
C2178 C2181 1.403 . S
C2179 C2176 1.403 . S
C2179 C2180 1.524 . S
C2179 C2183 1.400 . S
C2180 H2165 0.960 . S
C2180 H2166 0.960 . S
C2180 H2167 0.960 . S
C2180 C2179 1.524 . S
C2181 C2178 1.403 . S
C2181 C2182 1.392 . S
C2181 C2185 1.495 . S
C2182 C2181 1.392 . S
C2182 C2183 1.385 . S
C2182 C2184 1.478 . S
C2183 H2177 0.930 . S
C2183 C2179 1.400 . S
C2183 C2182 1.385 . S
C2184 C2182 1.478 . S
C2184 C2186 1.381 . S
C2184 C2190 1.383 . S
C2185 C2181 1.495 . S
C2185 H2191 0.959 . S
C2185 H2192 0.961 . S
C2185 H2193 0.960 . S
C2186 C2184 1.381 . S
C2186 C2187 1.394 . S
C2186 H2194 0.930 . S
C2187 C2186 1.394 . S
C2187 C2188 1.383 . S
C2187 H2195 0.929 . S
C2188 C2187 1.383 . S
C2188 C2189 1.377 . S
C2189 H2173 0.930 . S
C2189 C2188 1.377 . S
C2189 C2190 1.379 . S
C2190 H2174 0.931 . S
C2190 C2184 1.383 . S
C2190 C2189 1.379 . S
H2191 C2185 0.959 . S
H2192 C2185 0.961 . S
H2193 C2185 0.960 . S
H2194 C2186 0.930 . S
H2195 C2187 0.929 . S
H2196 C2204 0.929 . S
H2197 C2206 0.930 . S
H2198 C2208 0.930 . S
H2199 C2211 0.929 . S
H2200 C2214 0.930 . S
H2201 C2216 0.960 . S
H2202 C2216 0.960 . S
H2203 C2216 0.960 . S
C2204 H2196 0.929 . S
C2204 C2205 1.377 . S
C2204 C2206 1.384 . S
C2205 C2204 1.377 . S
C2205 C2211 1.390 . S
C2206 H2197 0.930 . S
C2206 C2204 1.384 . S
C2206 C2207 1.372 . S
C2207 C2206 1.372 . S
C2207 C2208 1.400 . S
C2207 C2212 1.490 . S
C2208 H2198 0.930 . S
C2208 C2207 1.400 . S
C2208 C2211 1.386 . S
H2209 C2225 0.930 . S
H2210 C2226 0.931 . S
C2211 H2199 0.929 . S
C2211 C2205 1.390 . S
C2211 C2208 1.386 . S
C2212 C2207 1.490 . S
C2212 C2214 1.395 . S
C2212 C2215 1.403 . S
H2213 C2219 0.930 . S
C2214 H2200 0.930 . S
C2214 C2212 1.395 . S
C2214 C2217 1.403 1_455 S
C2215 C2212 1.403 . S
C2215 C2216 1.524 . S
C2215 C2219 1.400 1_455 S
C2216 H2201 0.960 . S
C2216 H2202 0.960 . S
C2216 H2203 0.960 . S
C2216 C2215 1.524 . S
C2217 C2214 1.403 1_655 S
C2217 C2218 1.392 . S
C2217 C2221 1.495 . S
C2218 C2217 1.392 . S
C2218 C2219 1.385 . S
C2218 C2220 1.478 . S
C2219 H2213 0.930 . S
C2219 C2215 1.400 1_655 S
C2219 C2218 1.385 . S
C2220 C2218 1.478 . S
C2220 C2222 1.381 . S
C2220 C2226 1.383 . S
C2221 C2217 1.495 . S
C2221 H2227 0.959 . S
C2221 H2228 0.961 . S
C2221 H2229 0.960 . S
C2222 C2220 1.381 . S
C2222 C2223 1.394 . S
C2222 H2230 0.930 . S
C2223 C2222 1.394 . S
C2223 C2224 1.383 . S
C2223 H2231 0.929 . S
C2224 C2223 1.383 . S
C2224 C2225 1.377 . S
C2225 H2209 0.930 . S
C2225 C2224 1.377 . S
C2225 C2226 1.379 . S
C2226 H2210 0.931 . S
C2226 C2220 1.383 . S
C2226 C2225 1.379 . S
H2227 C2221 0.959 . S
H2228 C2221 0.961 . S
H2229 C2221 0.960 . S
H2230 C2222 0.930 . S
H2231 C2223 0.929 . S
H2232 C2240 0.929 . S
H2233 C2242 0.930 . S
H2234 C2244 0.930 . S
H2235 C2247 0.929 . S
H2236 C2250 0.930 . S
H2237 C2252 0.960 . S
H2238 C2252 0.960 . S
H2239 C2252 0.960 . S
C2240 H2232 0.929 . S
C2240 C2241 1.377 . S
C2240 C2242 1.384 . S
C2241 C2240 1.377 . S
C2241 C2247 1.390 . S
C2242 H2233 0.930 . S
C2242 C2240 1.384 . S
C2242 C2243 1.372 . S
C2243 C2242 1.372 . S
C2243 C2244 1.400 . S
C2243 C2248 1.490 . S
C2244 H2234 0.930 . S
C2244 C2243 1.400 . S
C2244 C2247 1.386 . S
H2245 C2261 0.930 . S
H2246 C2262 0.931 . S
C2247 H2235 0.929 . S
C2247 C2241 1.390 . S
C2247 C2244 1.386 . S
C2248 C2243 1.490 . S
C2248 C2250 1.395 . S
C2248 C2251 1.403 . S
H2249 C2255 0.930 . S
C2250 H2236 0.930 . S
C2250 C2248 1.395 . S
C2250 C2253 1.403 . S
C2251 C2248 1.403 . S
C2251 C2252 1.524 . S
C2251 C2255 1.400 . S
C2252 H2237 0.960 . S
C2252 H2238 0.960 . S
C2252 H2239 0.960 . S
C2252 C2251 1.524 . S
C2253 C2250 1.403 . S
C2253 C2254 1.392 . S
C2253 C2257 1.495 . S
C2254 C2253 1.392 . S
C2254 C2255 1.385 . S
C2254 C2256 1.478 . S
C2255 H2249 0.930 . S
C2255 C2251 1.400 . S
C2255 C2254 1.385 . S
C2256 C2254 1.478 . S
C2256 C2258 1.381 . S
C2256 C2262 1.383 . S
C2257 C2253 1.495 . S
C2257 H2263 0.959 . S
C2257 H2264 0.961 . S
C2257 H2265 0.960 . S
C2258 C2256 1.381 . S
C2258 C2259 1.394 . S
C2258 H2266 0.930 . S
C2259 C2258 1.394 . S
C2259 C2260 1.383 . S
C2259 H2267 0.929 . S
C2260 C2259 1.383 . S
C2260 C2261 1.377 . S
C2261 H2245 0.930 . S
C2261 C2260 1.377 . S
C2261 C2262 1.379 . S
C2262 H2246 0.931 . S
C2262 C2256 1.383 . S
C2262 C2261 1.379 . S
H2263 C2257 0.959 . S
H2264 C2257 0.961 . S
H2265 C2257 0.960 . S
H2266 C2258 0.930 . S
H2267 C2259 0.929 . S
H2268 C2276 0.929 . S
H2269 C2278 0.930 . S
H2270 C2280 0.930 . S
H2271 C2283 0.929 . S
H2272 C2286 0.930 . S
H2273 C2288 0.960 . S
H2274 C2288 0.960 . S
H2275 C2288 0.960 . S
C2276 H2268 0.929 . S
C2276 C2277 1.377 . S
C2276 C2278 1.384 . S
C2277 C2276 1.377 . S
C2277 C2283 1.390 . S
C2278 H2269 0.930 . S
C2278 C2276 1.384 . S
C2278 C2279 1.372 . S
C2279 C2278 1.372 . S
C2279 C2280 1.400 . S
C2279 C2284 1.490 . S
C2280 H2270 0.930 . S
C2280 C2279 1.400 . S
C2280 C2283 1.386 . S
H2281 C2297 0.930 . S
H2282 C2298 0.931 . S
C2283 H2271 0.929 . S
C2283 C2277 1.390 . S
C2283 C2280 1.386 . S
C2284 C2279 1.490 . S
C2284 C2286 1.395 . S
C2284 C2287 1.403 . S
H2285 C2291 0.930 . S
C2286 H2272 0.930 . S
C2286 C2284 1.395 . S
C2286 C2289 1.403 1_545 S
C2287 C2284 1.403 . S
C2287 C2288 1.524 . S
C2287 C2291 1.400 1_545 S
C2288 H2273 0.960 . S
C2288 H2274 0.960 . S
C2288 H2275 0.960 . S
C2288 C2287 1.524 . S
C2289 C2286 1.403 1_565 S
C2289 C2290 1.392 . S
C2289 C2293 1.495 . S
C2290 C2289 1.392 . S
C2290 C2291 1.385 . S
C2290 C2292 1.478 . S
C2291 H2285 0.930 . S
C2291 C2287 1.400 1_565 S
C2291 C2290 1.385 . S
C2292 C2290 1.478 . S
C2292 C2294 1.381 . S
C2292 C2298 1.383 . S
C2293 C2289 1.495 . S
C2293 H2299 0.959 . S
C2293 H2300 0.961 . S
C2293 H2301 0.960 . S
C2294 C2292 1.381 . S
C2294 C2295 1.394 . S
C2294 H2302 0.930 . S
C2295 C2294 1.394 . S
C2295 C2296 1.383 . S
C2295 H2303 0.929 . S
C2296 C2295 1.383 . S
C2296 C2297 1.377 . S
C2297 H2281 0.930 . S
C2297 C2296 1.377 . S
C2297 C2298 1.379 . S
C2298 H2282 0.931 . S
C2298 C2292 1.383 . S
C2298 C2297 1.379 . S
H2299 C2293 0.959 . S
H2300 C2293 0.961 . S
H2301 C2293 0.960 . S
H2302 C2294 0.930 . S
H2303 C2295 0.929 . S
H2304 C2312 0.929 . S
H2305 C2314 0.930 . S
H2306 C2316 0.930 . S
H2307 C2319 0.929 . S
H2308 C2322 0.930 . S
H2309 C2324 0.960 1_565 S
H2310 C2324 0.960 . S
H2311 C2324 0.960 . S
C2312 H2304 0.929 . S
C2312 C2313 1.377 . S
C2312 C2314 1.384 . S
C2313 C2312 1.377 . S
C2313 C2319 1.390 . S
C2314 H2305 0.930 . S
C2314 C2312 1.384 . S
C2314 C2315 1.372 . S
C2315 C2314 1.372 . S
C2315 C2316 1.400 . S
C2315 C2320 1.490 . S
C2316 H2306 0.930 . S
C2316 C2315 1.400 . S
C2316 C2319 1.386 . S
H2317 C2333 0.930 . S
H2318 C2334 0.931 . S
C2319 H2307 0.929 . S
C2319 C2313 1.390 . S
C2319 C2316 1.386 . S
C2320 C2315 1.490 . S
C2320 C2322 1.395 . S
C2320 C2323 1.403 . S
H2321 C2327 0.930 . S
C2322 H2308 0.930 . S
C2322 C2320 1.395 . S
C2322 C2325 1.403 1_545 S
C2323 C2320 1.403 . S
C2323 C2324 1.524 . S
C2323 C2327 1.400 1_545 S
C2324 H2309 0.960 1_545 S
C2324 H2310 0.960 . S
C2324 H2311 0.960 . S
C2324 C2323 1.524 . S
C2325 C2322 1.403 1_565 S
C2325 C2326 1.392 . S
C2325 C2329 1.495 . S
C2326 C2325 1.392 . S
C2326 C2327 1.385 . S
C2326 C2328 1.478 . S
C2327 H2321 0.930 . S
C2327 C2323 1.400 1_565 S
C2327 C2326 1.385 . S
C2328 C2326 1.478 . S
C2328 C2330 1.381 . S
C2328 C2334 1.383 . S
C2329 C2325 1.495 . S
C2329 H2335 0.959 1_565 S
C2329 H2336 0.961 . S
C2329 H2337 0.960 . S
C2330 C2328 1.381 . S
C2330 C2331 1.394 . S
C2330 H2338 0.930 . S
C2331 C2330 1.394 . S
C2331 C2332 1.383 . S
C2331 H2339 0.929 . S
C2332 C2331 1.383 . S
C2332 C2333 1.377 . S
C2333 H2317 0.930 . S
C2333 C2332 1.377 . S
C2333 C2334 1.379 . S
C2334 H2318 0.931 . S
C2334 C2328 1.383 . S
C2334 C2333 1.379 . S
H2335 C2329 0.959 1_545 S
H2336 C2329 0.961 . S
H2337 C2329 0.960 . S
H2338 C2330 0.930 . S
H2339 C2331 0.929 . S
H2340 C2348 0.929 . S
H2341 C2350 0.930 . S
H2342 C2352 0.930 . S
H2343 C2355 0.929 . S
H2344 C2358 0.930 . S
H2345 C2360 0.960 . S
H2346 C2360 0.960 . S
H2347 C2360 0.960 . S
C2348 H2340 0.929 . S
C2348 C2349 1.377 . S
C2348 C2350 1.384 . S
C2349 C2348 1.377 . S
C2349 C2355 1.390 . S
C2350 H2341 0.930 . S
C2350 C2348 1.384 . S
C2350 C2351 1.372 . S
C2351 C2350 1.372 . S
C2351 C2352 1.400 . S
C2351 C2356 1.490 . S
C2352 H2342 0.930 . S
C2352 C2351 1.400 . S
C2352 C2355 1.386 . S
H2353 C2369 0.930 . S
H2354 C2370 0.931 . S
C2355 H2343 0.929 . S
C2355 C2349 1.390 . S
C2355 C2352 1.386 . S
C2356 C2351 1.490 . S
C2356 C2358 1.395 . S
C2356 C2359 1.403 . S
H2357 C2363 0.930 . S
C2358 H2344 0.930 . S
C2358 C2356 1.395 . S
C2358 C2361 1.403 1_655 S
C2359 C2356 1.403 . S
C2359 C2360 1.524 . S
C2359 C2363 1.400 1_655 S
C2360 H2345 0.960 . S
C2360 H2346 0.960 . S
C2360 H2347 0.960 . S
C2360 C2359 1.524 . S
C2361 C2358 1.403 1_455 S
C2361 C2362 1.392 . S
C2361 C2365 1.495 . S
C2362 C2361 1.392 . S
C2362 C2363 1.385 . S
C2362 C2364 1.478 . S
C2363 H2357 0.930 . S
C2363 C2359 1.400 1_455 S
C2363 C2362 1.385 . S
C2364 C2362 1.478 . S
C2364 C2366 1.381 . S
C2364 C2370 1.383 . S
C2365 C2361 1.495 . S
C2365 H2371 0.959 . S
C2365 H2372 0.961 . S
C2365 H2373 0.960 . S
C2366 C2364 1.381 . S
C2366 C2367 1.394 . S
C2366 H2374 0.930 . S
C2367 C2366 1.394 . S
C2367 C2368 1.383 . S
C2367 H2375 0.929 . S
C2368 C2367 1.383 . S
C2368 C2369 1.377 . S
C2369 H2353 0.930 . S
C2369 C2368 1.377 . S
C2369 C2370 1.379 . S
C2370 H2354 0.931 . S
C2370 C2364 1.383 . S
C2370 C2369 1.379 . S
H2371 C2365 0.959 . S
H2372 C2365 0.961 . S
H2373 C2365 0.960 . S
H2374 C2366 0.930 . S
H2375 C2367 0.929 . S
H2376 C2384 0.929 . S
H2377 C2386 0.930 . S
H2378 C2388 0.930 . S
H2379 C2391 0.929 . S
H2380 C2394 0.930 . S
H2381 C2396 0.960 . S
H2382 C2396 0.960 . S
H2383 C2396 0.960 . S
C2384 H2376 0.929 . S
C2384 C2385 1.377 . S
C2384 C2386 1.384 . S
C2385 C2384 1.377 . S
C2385 C2391 1.390 . S
C2386 H2377 0.930 . S
C2386 C2384 1.384 . S
C2386 C2387 1.372 . S
C2387 C2386 1.372 . S
C2387 C2388 1.400 . S
C2387 C2392 1.490 . S
C2388 H2378 0.930 . S
C2388 C2387 1.400 . S
C2388 C2391 1.386 . S
H2389 C2405 0.930 . S
H2390 C2406 0.931 . S
C2391 H2379 0.929 . S
C2391 C2385 1.390 . S
C2391 C2388 1.386 . S
C2392 C2387 1.490 . S
C2392 C2394 1.395 . S
C2392 C2395 1.403 . S
H2393 C2399 0.930 . S
C2394 H2380 0.930 . S
C2394 C2392 1.395 . S
C2394 C2397 1.403 . S
C2395 C2392 1.403 . S
C2395 C2396 1.524 . S
C2395 C2399 1.400 . S
C2396 H2381 0.960 . S
C2396 H2382 0.960 . S
C2396 H2383 0.960 . S
C2396 C2395 1.524 . S
C2397 C2394 1.403 . S
C2397 C2398 1.392 . S
C2397 C2401 1.495 . S
C2398 C2397 1.392 . S
C2398 C2399 1.385 . S
C2398 C2400 1.478 . S
C2399 H2393 0.930 . S
C2399 C2395 1.400 . S
C2399 C2398 1.385 . S
C2400 C2398 1.478 . S
C2400 C2402 1.381 . S
C2400 C2406 1.383 . S
C2401 C2397 1.495 . S
C2401 H2407 0.959 . S
C2401 H2408 0.961 . S
C2401 H2409 0.960 . S
C2402 C2400 1.381 . S
C2402 C2403 1.394 . S
C2402 H2410 0.930 . S
C2403 C2402 1.394 . S
C2403 C2404 1.383 . S
C2403 H2411 0.929 . S
C2404 C2403 1.383 . S
C2404 C2405 1.377 . S
C2405 H2389 0.930 . S
C2405 C2404 1.377 . S
C2405 C2406 1.379 . S
C2406 H2390 0.931 . S
C2406 C2400 1.383 . S
C2406 C2405 1.379 . S
H2407 C2401 0.959 . S
H2408 C2401 0.961 . S
H2409 C2401 0.960 . S
H2410 C2402 0.930 . S
H2411 C2403 0.929 . S
H2412 C2420 0.929 . S
H2413 C2422 0.930 . S
H2414 C2424 0.930 . S
H2415 C2427 0.929 . S
H2416 C2430 0.930 . S
H2417 C2432 0.960 . S
H2418 C2432 0.960 . S
H2419 C2432 0.960 . S
C2420 H2412 0.929 . S
C2420 C2421 1.377 . S
C2420 C2422 1.384 . S
C2421 C2420 1.377 . S
C2421 C2427 1.390 . S
C2422 H2413 0.930 . S
C2422 C2420 1.384 . S
C2422 C2423 1.372 . S
C2423 C2422 1.372 . S
C2423 C2424 1.400 . S
C2423 C2428 1.490 . S
C2424 H2414 0.930 . S
C2424 C2423 1.400 . S
C2424 C2427 1.386 . S
H2425 C2441 0.930 . S
H2426 C2442 0.931 . S
C2427 H2415 0.929 . S
C2427 C2421 1.390 . S
C2427 C2424 1.386 . S
C2428 C2423 1.490 . S
C2428 C2430 1.395 . S
C2428 C2431 1.403 . S
H2429 C2435 0.930 . S
C2430 H2416 0.930 . S
C2430 C2428 1.395 . S
C2430 C2433 1.403 . S
C2431 C2428 1.403 . S
C2431 C2432 1.524 . S
C2431 C2435 1.400 . S
C2432 H2417 0.960 . S
C2432 H2418 0.960 . S
C2432 H2419 0.960 . S
C2432 C2431 1.524 . S
C2433 C2430 1.403 . S
C2433 C2434 1.392 . S
C2433 C2437 1.495 . S
C2434 C2433 1.392 . S
C2434 C2435 1.385 . S
C2434 C2436 1.478 . S
C2435 H2429 0.930 . S
C2435 C2431 1.400 . S
C2435 C2434 1.385 . S
C2436 C2434 1.478 . S
C2436 C2438 1.381 . S
C2436 C2442 1.383 . S
C2437 C2433 1.495 . S
C2437 H2443 0.959 . S
C2437 H2444 0.961 . S
C2437 H2445 0.960 . S
C2438 C2436 1.381 . S
C2438 C2439 1.394 . S
C2438 H2446 0.930 . S
C2439 C2438 1.394 . S
C2439 C2440 1.383 . S
C2439 H2447 0.929 . S
C2440 C2439 1.383 . S
C2440 C2441 1.377 . S
C2441 H2425 0.930 . S
C2441 C2440 1.377 . S
C2441 C2442 1.379 . S
C2442 H2426 0.931 . S
C2442 C2436 1.383 . S
C2442 C2441 1.379 . S
H2443 C2437 0.959 . S
H2444 C2437 0.961 . S
H2445 C2437 0.960 . S
H2446 C2438 0.930 . S
H2447 C2439 0.929 . S
H2448 C2456 0.929 . S
H2449 C2458 0.930 . S
H2450 C2460 0.930 . S
H2451 C2463 0.929 . S
H2452 C2466 0.930 . S
H2453 C2468 0.960 . S
H2454 C2468 0.960 . S
H2455 C2468 0.960 . S
C2456 H2448 0.929 . S
C2456 C2457 1.377 . S
C2456 C2458 1.384 . S
C2457 C2456 1.377 . S
C2457 C2463 1.390 . S
C2458 H2449 0.930 . S
C2458 C2456 1.384 . S
C2458 C2459 1.372 . S
C2459 C2458 1.372 . S
C2459 C2460 1.400 . S
C2459 C2464 1.490 . S
C2460 H2450 0.930 . S
C2460 C2459 1.400 . S
C2460 C2463 1.386 . S
H2461 C2477 0.930 . S
H2462 C2478 0.931 . S
C2463 H2451 0.929 . S
C2463 C2457 1.390 . S
C2463 C2460 1.386 . S
C2464 C2459 1.490 . S
C2464 C2466 1.395 . S
C2464 C2467 1.403 . S
H2465 C2471 0.930 . S
C2466 H2452 0.930 . S
C2466 C2464 1.395 . S
C2466 C2469 1.403 . S
C2467 C2464 1.403 . S
C2467 C2468 1.524 . S
C2467 C2471 1.400 . S
C2468 H2453 0.960 . S
C2468 H2454 0.960 . S
C2468 H2455 0.960 . S
C2468 C2467 1.524 . S
C2469 C2466 1.403 . S
C2469 C2470 1.392 . S
C2469 C2473 1.495 . S
C2470 C2469 1.392 . S
C2470 C2471 1.385 . S
C2470 C2472 1.478 . S
C2471 H2465 0.930 . S
C2471 C2467 1.400 . S
C2471 C2470 1.385 . S
C2472 C2470 1.478 . S
C2472 C2474 1.381 . S
C2472 C2478 1.383 . S
C2473 C2469 1.495 . S
C2473 H2479 0.959 . S
C2473 H2480 0.961 . S
C2473 H2481 0.960 . S
C2474 C2472 1.381 . S
C2474 C2475 1.394 . S
C2474 H2482 0.930 . S
C2475 C2474 1.394 . S
C2475 C2476 1.383 . S
C2475 H2483 0.929 . S
C2476 C2475 1.383 . S
C2476 C2477 1.377 . S
C2477 H2461 0.930 . S
C2477 C2476 1.377 . S
C2477 C2478 1.379 . S
C2478 H2462 0.931 . S
C2478 C2472 1.383 . S
C2478 C2477 1.379 . S
H2479 C2473 0.959 . S
H2480 C2473 0.961 . S
H2481 C2473 0.960 . S
H2482 C2474 0.930 . S
H2483 C2475 0.929 . S
H2484 C2492 0.929 . S
H2485 C2494 0.930 . S
H2486 C2496 0.930 . S
H2487 C2499 0.929 . S
H2488 C2502 0.930 . S
H2489 C2504 0.960 . S
H2490 C2504 0.960 . S
H2491 C2504 0.960 . S
C2492 H2484 0.929 . S
C2492 C2493 1.377 . S
C2492 C2494 1.384 . S
C2493 C2492 1.377 . S
C2493 C2499 1.390 . S
C2494 H2485 0.930 . S
C2494 C2492 1.384 . S
C2494 C2495 1.372 . S
C2495 C2494 1.372 . S
C2495 C2496 1.400 . S
C2495 C2500 1.490 . S
C2496 H2486 0.930 . S
C2496 C2495 1.400 . S
C2496 C2499 1.386 . S
H2497 C2513 0.930 . S
H2498 C2514 0.931 . S
C2499 H2487 0.929 . S
C2499 C2493 1.390 . S
C2499 C2496 1.386 . S
C2500 C2495 1.490 . S
C2500 C2502 1.395 . S
C2500 C2503 1.403 . S
H2501 C2507 0.930 . S
C2502 H2488 0.930 . S
C2502 C2500 1.395 . S
C2502 C2505 1.403 . S
C2503 C2500 1.403 . S
C2503 C2504 1.524 . S
C2503 C2507 1.400 . S
C2504 H2489 0.960 . S
C2504 H2490 0.960 . S
C2504 H2491 0.960 . S
C2504 C2503 1.524 . S
C2505 C2502 1.403 . S
C2505 C2506 1.392 . S
C2505 C2509 1.495 . S
C2506 C2505 1.392 . S
C2506 C2507 1.385 . S
C2506 C2508 1.478 . S
C2507 H2501 0.930 . S
C2507 C2503 1.400 . S
C2507 C2506 1.385 . S
C2508 C2506 1.478 . S
C2508 C2510 1.381 . S
C2508 C2514 1.383 . S
C2509 C2505 1.495 . S
C2509 H2515 0.959 . S
C2509 H2516 0.961 . S
C2509 H2517 0.960 . S
C2510 C2508 1.381 . S
C2510 C2511 1.394 . S
C2510 H2518 0.930 . S
C2511 C2510 1.394 . S
C2511 C2512 1.383 . S
C2511 H2519 0.929 . S
C2512 C2511 1.383 . S
C2512 C2513 1.377 . S
C2513 H2497 0.930 . S
C2513 C2512 1.377 . S
C2513 C2514 1.379 . S
C2514 H2498 0.931 . S
C2514 C2508 1.383 . S
C2514 C2513 1.379 . S
H2515 C2509 0.959 . S
H2516 C2509 0.961 . S
H2517 C2509 0.960 . S
H2518 C2510 0.930 . S
H2519 C2511 0.929 . S
H2520 C2528 0.929 . S
H2521 C2530 0.930 . S
H2522 C2532 0.930 . S
H2523 C2535 0.929 . S
H2524 C2538 0.930 . S
H2525 C2540 0.960 . S
H2526 C2540 0.960 . S
H2527 C2540 0.960 . S
C2528 H2520 0.929 . S
C2528 C2529 1.377 . S
C2528 C2530 1.384 . S
C2529 C2528 1.377 . S
C2529 C2535 1.390 . S
C2530 H2521 0.930 . S
C2530 C2528 1.384 . S
C2530 C2531 1.372 . S
C2531 C2530 1.372 . S
C2531 C2532 1.400 . S
C2531 C2536 1.490 . S
C2532 H2522 0.930 . S
C2532 C2531 1.400 . S
C2532 C2535 1.386 . S
H2533 C2549 0.930 . S
H2534 C2550 0.931 . S
C2535 H2523 0.929 . S
C2535 C2529 1.390 . S
C2535 C2532 1.386 . S
C2536 C2531 1.490 . S
C2536 C2538 1.395 . S
C2536 C2539 1.403 . S
H2537 C2543 0.930 . S
C2538 H2524 0.930 . S
C2538 C2536 1.395 . S
C2538 C2541 1.403 . S
C2539 C2536 1.403 . S
C2539 C2540 1.524 . S
C2539 C2543 1.400 . S
C2540 H2525 0.960 . S
C2540 H2526 0.960 . S
C2540 H2527 0.960 . S
C2540 C2539 1.524 . S
C2541 C2538 1.403 . S
C2541 C2542 1.392 . S
C2541 C2545 1.495 . S
C2542 C2541 1.392 . S
C2542 C2543 1.385 . S
C2542 C2544 1.478 . S
C2543 H2537 0.930 . S
C2543 C2539 1.400 . S
C2543 C2542 1.385 . S
C2544 C2542 1.478 . S
C2544 C2546 1.381 . S
C2544 C2550 1.383 . S
C2545 C2541 1.495 . S
C2545 H2551 0.959 . S
C2545 H2552 0.961 . S
C2545 H2553 0.960 . S
C2546 C2544 1.381 . S
C2546 C2547 1.394 . S
C2546 H2554 0.930 . S
C2547 C2546 1.394 . S
C2547 C2548 1.383 . S
C2547 H2555 0.929 . S
C2548 C2547 1.383 . S
C2548 C2549 1.377 . S
C2549 H2533 0.930 . S
C2549 C2548 1.377 . S
C2549 C2550 1.379 . S
C2550 H2534 0.931 . S
C2550 C2544 1.383 . S
C2550 C2549 1.379 . S
H2551 C2545 0.959 . S
H2552 C2545 0.961 . S
H2553 C2545 0.960 . S
H2554 C2546 0.930 . S
H2555 C2547 0.929 . S
H2556 C2564 0.929 . S
H2557 C2566 0.930 . S
H2558 C2568 0.930 . S
H2559 C2571 0.929 . S
H2560 C2574 0.930 . S
H2561 C2576 0.960 . S
H2562 C2576 0.960 . S
H2563 C2576 0.960 . S
C2564 H2556 0.929 . S
C2564 C2565 1.377 . S
C2564 C2566 1.384 . S
C2565 C2564 1.377 . S
C2565 C2571 1.390 . S
C2566 H2557 0.930 . S
C2566 C2564 1.384 . S
C2566 C2567 1.372 . S
C2567 C2566 1.372 . S
C2567 C2568 1.400 . S
C2567 C2572 1.490 . S
C2568 H2558 0.930 . S
C2568 C2567 1.400 . S
C2568 C2571 1.386 . S
H2569 C2585 0.930 . S
H2570 C2586 0.931 . S
C2571 H2559 0.929 . S
C2571 C2565 1.390 . S
C2571 C2568 1.386 . S
C2572 C2567 1.490 . S
C2572 C2574 1.395 . S
C2572 C2575 1.403 . S
H2573 C2579 0.930 . S
C2574 H2560 0.930 . S
C2574 C2572 1.395 . S
C2574 C2577 1.403 . S
C2575 C2572 1.403 . S
C2575 C2576 1.524 . S
C2575 C2579 1.400 . S
C2576 H2561 0.960 . S
C2576 H2562 0.960 . S
C2576 H2563 0.960 . S
C2576 C2575 1.524 . S
C2577 C2574 1.403 . S
C2577 C2578 1.392 . S
C2577 C2581 1.495 . S
C2578 C2577 1.392 . S
C2578 C2579 1.385 . S
C2578 C2580 1.478 . S
C2579 H2573 0.930 . S
C2579 C2575 1.400 . S
C2579 C2578 1.385 . S
C2580 C2578 1.478 . S
C2580 C2582 1.381 . S
C2580 C2586 1.383 . S
C2581 C2577 1.495 . S
C2581 H2587 0.959 . S
C2581 H2588 0.961 . S
C2581 H2589 0.960 . S
C2582 C2580 1.381 . S
C2582 C2583 1.394 . S
C2582 H2590 0.930 . S
C2583 C2582 1.394 . S
C2583 C2584 1.383 . S
C2583 H2591 0.929 . S
C2584 C2583 1.383 . S
C2584 C2585 1.377 . S
C2585 H2569 0.930 . S
C2585 C2584 1.377 . S
C2585 C2586 1.379 . S
C2586 H2570 0.931 . S
C2586 C2580 1.383 . S
C2586 C2585 1.379 . S
H2587 C2581 0.959 . S
H2588 C2581 0.961 . S
H2589 C2581 0.960 . S
H2590 C2582 0.930 . S
H2591 C2583 0.929 . S
H2592 C2600 0.929 . S
H2593 C2602 0.930 . S
H2594 C2604 0.930 . S
H2595 C2607 0.929 . S
H2596 C2610 0.930 . S
H2597 C2612 0.960 . S
H2598 C2612 0.960 . S
H2599 C2612 0.960 . S
C2600 H2592 0.929 . S
C2600 C2601 1.377 . S
C2600 C2602 1.384 . S
C2601 C2600 1.377 . S
C2601 C2607 1.390 . S
C2602 H2593 0.930 . S
C2602 C2600 1.384 . S
C2602 C2603 1.372 . S
C2603 C2602 1.372 . S
C2603 C2604 1.400 . S
C2603 C2608 1.490 . S
C2604 H2594 0.930 . S
C2604 C2603 1.400 . S
C2604 C2607 1.386 . S
H2605 C2621 0.930 . S
H2606 C2622 0.931 . S
C2607 H2595 0.929 . S
C2607 C2601 1.390 . S
C2607 C2604 1.386 . S
C2608 C2603 1.490 . S
C2608 C2610 1.395 . S
C2608 C2611 1.403 . S
H2609 C2615 0.930 . S
C2610 H2596 0.930 . S
C2610 C2608 1.395 . S
C2610 C2613 1.403 . S
C2611 C2608 1.403 . S
C2611 C2612 1.524 . S
C2611 C2615 1.400 . S
C2612 H2597 0.960 . S
C2612 H2598 0.960 . S
C2612 H2599 0.960 . S
C2612 C2611 1.524 . S
C2613 C2610 1.403 . S
C2613 C2614 1.392 . S
C2613 C2617 1.495 . S
C2614 C2613 1.392 . S
C2614 C2615 1.385 . S
C2614 C2616 1.478 . S
C2615 H2609 0.930 . S
C2615 C2611 1.400 . S
C2615 C2614 1.385 . S
C2616 C2614 1.478 . S
C2616 C2618 1.381 . S
C2616 C2622 1.383 . S
C2617 C2613 1.495 . S
C2617 H2623 0.959 . S
C2617 H2624 0.961 . S
C2617 H2625 0.960 . S
C2618 C2616 1.381 . S
C2618 C2619 1.394 . S
C2618 H2626 0.930 . S
C2619 C2618 1.394 . S
C2619 C2620 1.383 . S
C2619 H2627 0.929 . S
C2620 C2619 1.383 . S
C2620 C2621 1.377 . S
C2621 H2605 0.930 . S
C2621 C2620 1.377 . S
C2621 C2622 1.379 . S
C2622 H2606 0.931 . S
C2622 C2616 1.383 . S
C2622 C2621 1.379 . S
H2623 C2617 0.959 . S
H2624 C2617 0.961 . S
H2625 C2617 0.960 . S
H2626 C2618 0.930 . S
H2627 C2619 0.929 . S
H2628 C2636 0.929 . S
H2629 C2638 0.930 . S
H2630 C2640 0.930 . S
H2631 C2643 0.929 . S
H2632 C2646 0.930 . S
H2633 C2648 0.960 . S
H2634 C2648 0.960 . S
H2635 C2648 0.960 . S
C2636 H2628 0.929 . S
C2636 C2637 1.377 . S
C2636 C2638 1.384 . S
C2637 C2636 1.377 . S
C2637 C2643 1.390 . S
C2638 H2629 0.930 . S
C2638 C2636 1.384 . S
C2638 C2639 1.372 . S
C2639 C2638 1.372 . S
C2639 C2640 1.400 . S
C2639 C2644 1.490 . S
C2640 H2630 0.930 . S
C2640 C2639 1.400 . S
C2640 C2643 1.386 . S
H2641 C2657 0.930 . S
H2642 C2658 0.931 . S
C2643 H2631 0.929 . S
C2643 C2637 1.390 . S
C2643 C2640 1.386 . S
C2644 C2639 1.490 . S
C2644 C2646 1.395 . S
C2644 C2647 1.403 . S
H2645 C2651 0.930 . S
C2646 H2632 0.930 . S
C2646 C2644 1.395 . S
C2646 C2649 1.403 . S
C2647 C2644 1.403 . S
C2647 C2648 1.524 . S
C2647 C2651 1.400 . S
C2648 H2633 0.960 . S
C2648 H2634 0.960 . S
C2648 H2635 0.960 . S
C2648 C2647 1.524 . S
C2649 C2646 1.403 . S
C2649 C2650 1.392 . S
C2649 C2653 1.495 . S
C2650 C2649 1.392 . S
C2650 C2651 1.385 . S
C2650 C2652 1.478 . S
C2651 H2645 0.930 . S
C2651 C2647 1.400 . S
C2651 C2650 1.385 . S
C2652 C2650 1.478 . S
C2652 C2654 1.381 . S
C2652 C2658 1.383 . S
C2653 C2649 1.495 . S
C2653 H2659 0.959 . S
C2653 H2660 0.961 . S
C2653 H2661 0.960 . S
C2654 C2652 1.381 . S
C2654 C2655 1.394 . S
C2654 H2662 0.930 . S
C2655 C2654 1.394 . S
C2655 C2656 1.383 . S
C2655 H2663 0.929 . S
C2656 C2655 1.383 . S
C2656 C2657 1.377 . S
C2657 H2641 0.930 . S
C2657 C2656 1.377 . S
C2657 C2658 1.379 . S
C2658 H2642 0.931 . S
C2658 C2652 1.383 . S
C2658 C2657 1.379 . S
H2659 C2653 0.959 . S
H2660 C2653 0.961 . S
H2661 C2653 0.960 . S
H2662 C2654 0.930 . S
H2663 C2655 0.929 . S
H2664 C2672 0.929 . S
H2665 C2674 0.930 . S
H2666 C2676 0.930 . S
H2667 C2679 0.929 . S
H2668 C2682 0.930 . S
H2669 C2684 0.960 . S
H2670 C2684 0.960 . S
H2671 C2684 0.960 . S
C2672 H2664 0.929 . S
C2672 C2673 1.377 . S
C2672 C2674 1.384 . S
C2673 C2672 1.377 . S
C2673 C2679 1.390 . S
C2674 H2665 0.930 . S
C2674 C2672 1.384 . S
C2674 C2675 1.372 . S
C2675 C2674 1.372 . S
C2675 C2676 1.400 . S
C2675 C2680 1.490 . S
C2676 H2666 0.930 . S
C2676 C2675 1.400 . S
C2676 C2679 1.386 . S
H2677 C2693 0.930 . S
H2678 C2694 0.931 . S
C2679 H2667 0.929 . S
C2679 C2673 1.390 . S
C2679 C2676 1.386 . S
C2680 C2675 1.490 . S
C2680 C2682 1.395 . S
C2680 C2683 1.403 . S
H2681 C2687 0.930 . S
C2682 H2668 0.930 . S
C2682 C2680 1.395 . S
C2682 C2685 1.403 . S
C2683 C2680 1.403 . S
C2683 C2684 1.524 . S
C2683 C2687 1.400 . S
C2684 H2669 0.960 . S
C2684 H2670 0.960 . S
C2684 H2671 0.960 . S
C2684 C2683 1.524 . S
C2685 C2682 1.403 . S
C2685 C2686 1.392 . S
C2685 C2689 1.495 . S
C2686 C2685 1.392 . S
C2686 C2687 1.385 . S
C2686 C2688 1.478 . S
C2687 H2681 0.930 . S
C2687 C2683 1.400 . S
C2687 C2686 1.385 . S
C2688 C2686 1.478 . S
C2688 C2690 1.381 . S
C2688 C2694 1.383 . S
C2689 C2685 1.495 . S
C2689 H2695 0.959 . S
C2689 H2696 0.961 . S
C2689 H2697 0.960 . S
C2690 C2688 1.381 . S
C2690 C2691 1.394 . S
C2690 H2698 0.930 . S
C2691 C2690 1.394 . S
C2691 C2692 1.383 . S
C2691 H2699 0.929 . S
C2692 C2691 1.383 . S
C2692 C2693 1.377 . S
C2693 H2677 0.930 . S
C2693 C2692 1.377 . S
C2693 C2694 1.379 . S
C2694 H2678 0.931 . S
C2694 C2688 1.383 . S
C2694 C2693 1.379 . S
H2695 C2689 0.959 . S
H2696 C2689 0.961 . S
H2697 C2689 0.960 . S
H2698 C2690 0.930 . S
H2699 C2691 0.929 . S
H2700 C2708 0.929 . S
H2701 C2710 0.930 . S
H2702 C2712 0.930 . S
H2703 C2715 0.929 . S
H2704 C2718 0.930 . S
H2705 C2720 0.960 . S
H2706 C2720 0.960 . S
H2707 C2720 0.960 . S
C2708 H2700 0.929 . S
C2708 C2709 1.377 . S
C2708 C2710 1.384 . S
C2709 C2708 1.377 . S
C2709 C2715 1.390 . S
C2710 H2701 0.930 . S
C2710 C2708 1.384 . S
C2710 C2711 1.372 . S
C2711 C2710 1.372 . S
C2711 C2712 1.400 . S
C2711 C2716 1.490 . S
C2712 H2702 0.930 . S
C2712 C2711 1.400 . S
C2712 C2715 1.386 . S
H2713 C2729 0.930 . S
H2714 C2730 0.931 . S
C2715 H2703 0.929 . S
C2715 C2709 1.390 . S
C2715 C2712 1.386 . S
C2716 C2711 1.490 . S
C2716 C2718 1.395 . S
C2716 C2719 1.403 . S
H2717 C2723 0.930 . S
C2718 H2704 0.930 . S
C2718 C2716 1.395 . S
C2718 C2721 1.403 . S
C2719 C2716 1.403 . S
C2719 C2720 1.524 . S
C2719 C2723 1.400 . S
C2720 H2705 0.960 . S
C2720 H2706 0.960 . S
C2720 H2707 0.960 . S
C2720 C2719 1.524 . S
C2721 C2718 1.403 . S
C2721 C2722 1.392 . S
C2721 C2725 1.495 . S
C2722 C2721 1.392 . S
C2722 C2723 1.385 . S
C2722 C2724 1.478 . S
C2723 H2717 0.930 . S
C2723 C2719 1.400 . S
C2723 C2722 1.385 . S
C2724 C2722 1.478 . S
C2724 C2726 1.381 . S
C2724 C2730 1.383 . S
C2725 C2721 1.495 . S
C2725 H2731 0.959 . S
C2725 H2732 0.961 . S
C2725 H2733 0.960 . S
C2726 C2724 1.381 . S
C2726 C2727 1.394 . S
C2726 H2734 0.930 . S
C2727 C2726 1.394 . S
C2727 C2728 1.383 . S
C2727 H2735 0.929 . S
C2728 C2727 1.383 . S
C2728 C2729 1.377 . S
C2729 H2713 0.930 . S
C2729 C2728 1.377 . S
C2729 C2730 1.379 . S
C2730 H2714 0.931 . S
C2730 C2724 1.383 . S
C2730 C2729 1.379 . S
H2731 C2725 0.959 . S
H2732 C2725 0.961 . S
H2733 C2725 0.960 . S
H2734 C2726 0.930 . S
H2735 C2727 0.929 . S
H2736 C2744 0.929 . S
H2737 C2746 0.930 . S
H2738 C2748 0.930 . S
H2739 C2751 0.929 . S
H2740 C2754 0.930 . S
H2741 C2756 0.960 . S
H2742 C2756 0.960 . S
H2743 C2756 0.960 . S
C2744 H2736 0.929 . S
C2744 C2745 1.377 . S
C2744 C2746 1.384 . S
C2745 C2744 1.377 . S
C2745 C2751 1.390 . S
C2746 H2737 0.930 . S
C2746 C2744 1.384 . S
C2746 C2747 1.372 . S
C2747 C2746 1.372 . S
C2747 C2748 1.400 . S
C2747 C2752 1.490 . S
C2748 H2738 0.930 . S
C2748 C2747 1.400 . S
C2748 C2751 1.386 . S
H2749 C2765 0.930 . S
H2750 C2766 0.931 . S
C2751 H2739 0.929 . S
C2751 C2745 1.390 . S
C2751 C2748 1.386 . S
C2752 C2747 1.490 . S
C2752 C2754 1.395 . S
C2752 C2755 1.403 . S
H2753 C2759 0.930 . S
C2754 H2740 0.930 . S
C2754 C2752 1.395 . S
C2754 C2757 1.403 . S
C2755 C2752 1.403 . S
C2755 C2756 1.524 . S
C2755 C2759 1.400 . S
C2756 H2741 0.960 . S
C2756 H2742 0.960 . S
C2756 H2743 0.960 . S
C2756 C2755 1.524 . S
C2757 C2754 1.403 . S
C2757 C2758 1.392 . S
C2757 C2761 1.495 . S
C2758 C2757 1.392 . S
C2758 C2759 1.385 . S
C2758 C2760 1.478 . S
C2759 H2753 0.930 . S
C2759 C2755 1.400 . S
C2759 C2758 1.385 . S
C2760 C2758 1.478 . S
C2760 C2762 1.381 . S
C2760 C2766 1.383 . S
C2761 C2757 1.495 . S
C2761 H2767 0.959 . S
C2761 H2768 0.961 . S
C2761 H2769 0.960 . S
C2762 C2760 1.381 . S
C2762 C2763 1.394 . S
C2762 H2770 0.930 . S
C2763 C2762 1.394 . S
C2763 C2764 1.383 . S
C2763 H2771 0.929 . S
C2764 C2763 1.383 . S
C2764 C2765 1.377 . S
C2765 H2749 0.930 . S
C2765 C2764 1.377 . S
C2765 C2766 1.379 . S
C2766 H2750 0.931 . S
C2766 C2760 1.383 . S
C2766 C2765 1.379 . S
H2767 C2761 0.959 . S
H2768 C2761 0.961 . S
H2769 C2761 0.960 . S
H2770 C2762 0.930 . S
H2771 C2763 0.929 . S
H2772 C2780 0.929 . S
H2773 C2782 0.930 . S
H2774 C2784 0.930 . S
H2775 C2787 0.929 . S
H2776 C2790 0.930 . S
H2777 C2792 0.960 . S
H2778 C2792 0.960 . S
H2779 C2792 0.960 . S
C2780 H2772 0.929 . S
C2780 C2781 1.377 . S
C2780 C2782 1.384 . S
C2781 C2780 1.377 . S
C2781 C2787 1.390 . S
C2782 H2773 0.930 . S
C2782 C2780 1.384 . S
C2782 C2783 1.372 . S
C2783 C2782 1.372 . S
C2783 C2784 1.400 . S
C2783 C2788 1.490 . S
C2784 H2774 0.930 . S
C2784 C2783 1.400 . S
C2784 C2787 1.386 . S
H2785 C2801 0.930 . S
H2786 C2802 0.931 . S
C2787 H2775 0.929 . S
C2787 C2781 1.390 . S
C2787 C2784 1.386 . S
C2788 C2783 1.490 . S
C2788 C2790 1.395 . S
C2788 C2791 1.403 . S
H2789 C2795 0.930 . S
C2790 H2776 0.930 . S
C2790 C2788 1.395 . S
C2790 C2793 1.403 . S
C2791 C2788 1.403 . S
C2791 C2792 1.524 . S
C2791 C2795 1.400 . S
C2792 H2777 0.960 . S
C2792 H2778 0.960 . S
C2792 H2779 0.960 . S
C2792 C2791 1.524 . S
C2793 C2790 1.403 . S
C2793 C2794 1.392 . S
C2793 C2797 1.495 . S
C2794 C2793 1.392 . S
C2794 C2795 1.385 . S
C2794 C2796 1.478 . S
C2795 H2789 0.930 . S
C2795 C2791 1.400 . S
C2795 C2794 1.385 . S
C2796 C2794 1.478 . S
C2796 C2798 1.381 . S
C2796 C2802 1.383 . S
C2797 C2793 1.495 . S
C2797 H2803 0.959 1_554 S
C2797 H2804 0.961 . S
C2797 H2805 0.960 . S
C2798 C2796 1.381 . S
C2798 C2799 1.394 . S
C2798 H2806 0.930 . S
C2799 C2798 1.394 . S
C2799 C2800 1.383 . S
C2799 H2807 0.929 . S
C2800 C2799 1.383 . S
C2800 C2801 1.377 . S
C2801 H2785 0.930 . S
C2801 C2800 1.377 . S
C2801 C2802 1.379 . S
C2802 H2786 0.931 . S
C2802 C2796 1.383 . S
C2802 C2801 1.379 . S
H2803 C2797 0.959 1_556 S
H2804 C2797 0.961 . S
H2805 C2797 0.960 . S
H2806 C2798 0.930 . S
H2807 C2799 0.929 . S
H2808 C2816 0.929 . S
H2809 C2818 0.930 . S
H2810 C2820 0.930 . S
H2811 C2823 0.929 . S
H2812 C2826 0.930 . S
H2813 C2828 0.960 . S
H2814 C2828 0.960 . S
H2815 C2828 0.960 . S
C2816 H2808 0.929 . S
C2816 C2817 1.377 . S
C2816 C2818 1.384 . S
C2817 C2816 1.377 . S
C2817 C2823 1.390 . S
C2818 H2809 0.930 . S
C2818 C2816 1.384 . S
C2818 C2819 1.372 . S
C2819 C2818 1.372 . S
C2819 C2820 1.400 . S
C2819 C2824 1.490 . S
C2820 H2810 0.930 . S
C2820 C2819 1.400 . S
C2820 C2823 1.386 . S
H2821 C2837 0.930 . S
H2822 C2838 0.931 . S
C2823 H2811 0.929 . S
C2823 C2817 1.390 . S
C2823 C2820 1.386 . S
C2824 C2819 1.490 . S
C2824 C2826 1.395 . S
C2824 C2827 1.403 . S
H2825 C2831 0.930 . S
C2826 H2812 0.930 . S
C2826 C2824 1.395 . S
C2826 C2829 1.403 . S
C2827 C2824 1.403 . S
C2827 C2828 1.524 . S
C2827 C2831 1.400 . S
C2828 H2813 0.960 . S
C2828 H2814 0.960 . S
C2828 H2815 0.960 . S
C2828 C2827 1.524 . S
C2829 C2826 1.403 . S
C2829 C2830 1.392 . S
C2829 C2833 1.495 . S
C2830 C2829 1.392 . S
C2830 C2831 1.385 . S
C2830 C2832 1.478 . S
C2831 H2825 0.930 . S
C2831 C2827 1.400 . S
C2831 C2830 1.385 . S
C2832 C2830 1.478 . S
C2832 C2834 1.381 . S
C2832 C2838 1.383 . S
C2833 C2829 1.495 . S
C2833 H2839 0.959 . S
C2833 H2840 0.961 . S
C2833 H2841 0.960 . S
C2834 C2832 1.381 . S
C2834 C2835 1.394 . S
C2834 H2842 0.930 . S
C2835 C2834 1.394 . S
C2835 C2836 1.383 . S
C2835 H2843 0.929 . S
C2836 C2835 1.383 . S
C2836 C2837 1.377 . S
C2837 H2821 0.930 . S
C2837 C2836 1.377 . S
C2837 C2838 1.379 . S
C2838 H2822 0.931 . S
C2838 C2832 1.383 . S
C2838 C2837 1.379 . S
H2839 C2833 0.959 . S
H2840 C2833 0.961 . S
H2841 C2833 0.960 . S
H2842 C2834 0.930 . S
H2843 C2835 0.929 . S
H2844 C2852 0.929 . S
H2845 C2854 0.930 . S
H2846 C2856 0.930 . S
H2847 C2859 0.929 . S
H2848 C2862 0.930 . S
H2849 C2864 0.960 . S
H2850 C2864 0.960 . S
H2851 C2864 0.960 . S
C2852 H2844 0.929 . S
C2852 C2853 1.377 . S
C2852 C2854 1.384 . S
C2853 C2852 1.377 . S
C2853 C2859 1.390 . S
C2854 H2845 0.930 . S
C2854 C2852 1.384 . S
C2854 C2855 1.372 . S
C2855 C2854 1.372 . S
C2855 C2856 1.400 . S
C2855 C2860 1.490 . S
C2856 H2846 0.930 . S
C2856 C2855 1.400 . S
C2856 C2859 1.386 . S
H2857 C2873 0.930 . S
H2858 C2874 0.931 . S
C2859 H2847 0.929 . S
C2859 C2853 1.390 . S
C2859 C2856 1.386 . S
C2860 C2855 1.490 . S
C2860 C2862 1.395 . S
C2860 C2863 1.403 . S
H2861 C2867 0.930 . S
C2862 H2848 0.930 . S
C2862 C2860 1.395 . S
C2862 C2865 1.403 . S
C2863 C2860 1.403 . S
C2863 C2864 1.524 . S
C2863 C2867 1.400 . S
C2864 H2849 0.960 . S
C2864 H2850 0.960 . S
C2864 H2851 0.960 . S
C2864 C2863 1.524 . S
C2865 C2862 1.403 . S
C2865 C2866 1.392 . S
C2865 C2869 1.495 . S
C2866 C2865 1.392 . S
C2866 C2867 1.385 . S
C2866 C2868 1.478 . S
C2867 H2861 0.930 . S
C2867 C2863 1.400 . S
C2867 C2866 1.385 . S
C2868 C2866 1.478 . S
C2868 C2870 1.381 . S
C2868 C2874 1.383 . S
C2869 C2865 1.495 . S
C2869 H2875 0.959 1_556 S
C2869 H2876 0.961 . S
C2869 H2877 0.960 . S
C2870 C2868 1.381 . S
C2870 C2871 1.394 . S
C2870 H2878 0.930 . S
C2871 C2870 1.394 . S
C2871 C2872 1.383 . S
C2871 H2879 0.929 . S
C2872 C2871 1.383 . S
C2872 C2873 1.377 . S
C2873 H2857 0.930 . S
C2873 C2872 1.377 . S
C2873 C2874 1.379 . S
C2874 H2858 0.931 . S
C2874 C2868 1.383 . S
C2874 C2873 1.379 . S
H2875 C2869 0.959 1_554 S
H2876 C2869 0.961 . S
H2877 C2869 0.960 . S
H2878 C2870 0.930 . S
H2879 C2871 0.929 . S
H2880 C2888 0.929 . S
H2881 C2890 0.930 . S
H2882 C2892 0.930 . S
H2883 C2895 0.929 . S
H2884 C2898 0.930 . S
H2885 C2900 0.960 . S
H2886 C2900 0.960 . S
H2887 C2900 0.960 . S
C2888 H2880 0.929 . S
C2888 C2889 1.377 . S
C2888 C2890 1.384 . S
C2889 C2888 1.377 . S
C2889 C2895 1.390 . S
C2890 H2881 0.930 . S
C2890 C2888 1.384 . S
C2890 C2891 1.372 . S
C2891 C2890 1.372 . S
C2891 C2892 1.400 . S
C2891 C2896 1.490 . S
C2892 H2882 0.930 . S
C2892 C2891 1.400 . S
C2892 C2895 1.386 . S
H2893 C2909 0.930 . S
H2894 C2910 0.931 . S
C2895 H2883 0.929 . S
C2895 C2889 1.390 . S
C2895 C2892 1.386 . S
C2896 C2891 1.490 . S
C2896 C2898 1.395 . S
C2896 C2899 1.403 . S
H2897 C2903 0.930 . S
C2898 H2884 0.930 . S
C2898 C2896 1.395 . S
C2898 C2901 1.403 . S
C2899 C2896 1.403 . S
C2899 C2900 1.524 . S
C2899 C2903 1.400 . S
C2900 H2885 0.960 . S
C2900 H2886 0.960 . S
C2900 H2887 0.960 . S
C2900 C2899 1.524 . S
C2901 C2898 1.403 . S
C2901 C2902 1.392 . S
C2901 C2905 1.495 . S
C2902 C2901 1.392 . S
C2902 C2903 1.385 . S
C2902 C2904 1.478 . S
C2903 H2897 0.930 . S
C2903 C2899 1.400 . S
C2903 C2902 1.385 . S
C2904 C2902 1.478 . S
C2904 C2906 1.381 . S
C2904 C2910 1.383 . S
C2905 C2901 1.495 . S
C2905 H2911 0.959 . S
C2905 H2912 0.961 . S
C2905 H2913 0.960 . S
C2906 C2904 1.381 . S
C2906 C2907 1.394 . S
C2906 H2914 0.930 . S
C2907 C2906 1.394 . S
C2907 C2908 1.383 . S
C2907 H2915 0.929 . S
C2908 C2907 1.383 . S
C2908 C2909 1.377 . S
C2909 H2893 0.930 . S
C2909 C2908 1.377 . S
C2909 C2910 1.379 . S
C2910 H2894 0.931 . S
C2910 C2904 1.383 . S
C2910 C2909 1.379 . S
H2911 C2905 0.959 . S
H2912 C2905 0.961 . S
H2913 C2905 0.960 . S
H2914 C2906 0.930 . S
H2915 C2907 0.929 . S
H2916 C2924 0.929 . S
H2917 C2926 0.930 . S
H2918 C2928 0.930 . S
H2919 C2931 0.929 . S
H2920 C2934 0.930 . S
H2921 C2936 0.960 . S
H2922 C2936 0.960 . S
H2923 C2936 0.960 . S
C2924 H2916 0.929 . S
C2924 C2925 1.377 . S
C2924 C2926 1.384 . S
C2925 C2924 1.377 . S
C2925 C2931 1.390 . S
C2926 H2917 0.930 . S
C2926 C2924 1.384 . S
C2926 C2927 1.372 . S
C2927 C2926 1.372 . S
C2927 C2928 1.400 . S
C2927 C2932 1.490 . S
C2928 H2918 0.930 . S
C2928 C2927 1.400 . S
C2928 C2931 1.386 . S
H2929 C2945 0.930 . S
H2930 C2946 0.931 . S
C2931 H2919 0.929 . S
C2931 C2925 1.390 . S
C2931 C2928 1.386 . S
C2932 C2927 1.490 . S
C2932 C2934 1.395 . S
C2932 C2935 1.403 . S
H2933 C2939 0.930 . S
C2934 H2920 0.930 . S
C2934 C2932 1.395 . S
C2934 C2937 1.403 . S
C2935 C2932 1.403 . S
C2935 C2936 1.524 . S
C2935 C2939 1.400 . S
C2936 H2921 0.960 . S
C2936 H2922 0.960 . S
C2936 H2923 0.960 . S
C2936 C2935 1.524 . S
C2937 C2934 1.403 . S
C2937 C2938 1.392 . S
C2937 C2941 1.495 . S
C2938 C2937 1.392 . S
C2938 C2939 1.385 . S
C2938 C2940 1.478 . S
C2939 H2933 0.930 . S
C2939 C2935 1.400 . S
C2939 C2938 1.385 . S
C2940 C2938 1.478 . S
C2940 C2942 1.381 . S
C2940 C2946 1.383 . S
C2941 C2937 1.495 . S
C2941 H2947 0.959 1_556 S
C2941 H2948 0.961 . S
C2941 H2949 0.960 . S
C2942 C2940 1.381 . S
C2942 C2943 1.394 . S
C2942 H2950 0.930 . S
C2943 C2942 1.394 . S
C2943 C2944 1.383 . S
C2943 H2951 0.929 . S
C2944 C2943 1.383 . S
C2944 C2945 1.377 . S
C2945 H2929 0.930 . S
C2945 C2944 1.377 . S
C2945 C2946 1.379 . S
C2946 H2930 0.931 . S
C2946 C2940 1.383 . S
C2946 C2945 1.379 . S
H2947 C2941 0.959 1_554 S
H2948 C2941 0.961 . S
H2949 C2941 0.960 . S
H2950 C2942 0.930 . S
H2951 C2943 0.929 . S
H2952 C2960 0.929 . S
H2953 C2962 0.930 . S
H2954 C2964 0.930 . S
H2955 C2967 0.929 . S
H2956 C2970 0.930 . S
H2957 C2972 0.960 . S
H2958 C2972 0.960 . S
H2959 C2972 0.960 . S
C2960 H2952 0.929 . S
C2960 C2961 1.377 . S
C2960 C2962 1.384 . S
C2961 C2960 1.377 . S
C2961 C2967 1.390 . S
C2962 H2953 0.930 . S
C2962 C2960 1.384 . S
C2962 C2963 1.372 . S
C2963 C2962 1.372 . S
C2963 C2964 1.400 . S
C2963 C2968 1.490 . S
C2964 H2954 0.930 . S
C2964 C2963 1.400 . S
C2964 C2967 1.386 . S
H2965 C2981 0.930 . S
H2966 C2982 0.931 . S
C2967 H2955 0.929 . S
C2967 C2961 1.390 . S
C2967 C2964 1.386 . S
C2968 C2963 1.490 . S
C2968 C2970 1.395 . S
C2968 C2971 1.403 . S
H2969 C2975 0.930 . S
C2970 H2956 0.930 . S
C2970 C2968 1.395 . S
C2970 C2973 1.403 . S
C2971 C2968 1.403 . S
C2971 C2972 1.524 . S
C2971 C2975 1.400 . S
C2972 H2957 0.960 . S
C2972 H2958 0.960 . S
C2972 H2959 0.960 . S
C2972 C2971 1.524 . S
C2973 C2970 1.403 . S
C2973 C2974 1.392 . S
C2973 C2977 1.495 . S
C2974 C2973 1.392 . S
C2974 C2975 1.385 . S
C2974 C2976 1.478 . S
C2975 H2969 0.930 . S
C2975 C2971 1.400 . S
C2975 C2974 1.385 . S
C2976 C2974 1.478 . S
C2976 C2978 1.381 . S
C2976 C2982 1.383 . S
C2977 C2973 1.495 . S
C2977 H2983 0.959 . S
C2977 H2984 0.961 . S
C2977 H2985 0.960 . S
C2978 C2976 1.381 . S
C2978 C2979 1.394 . S
C2978 H2986 0.930 . S
C2979 C2978 1.394 . S
C2979 C2980 1.383 . S
C2979 H2987 0.929 . S
C2980 C2979 1.383 . S
C2980 C2981 1.377 . S
C2981 H2965 0.930 . S
C2981 C2980 1.377 . S
C2981 C2982 1.379 . S
C2982 H2966 0.931 . S
C2982 C2976 1.383 . S
C2982 C2981 1.379 . S
H2983 C2977 0.959 . S
H2984 C2977 0.961 . S
H2985 C2977 0.960 . S
H2986 C2978 0.930 . S
H2987 C2979 0.929 . S
H2988 C2996 0.929 . S
H2989 C2998 0.930 . S
H2990 C3000 0.930 . S
H2991 C3003 0.929 . S
H2992 C3006 0.930 . S
H2993 C3008 0.960 . S
H2994 C3008 0.960 . S
H2995 C3008 0.960 . S
C2996 H2988 0.929 . S
C2996 C2997 1.377 . S
C2996 C2998 1.384 . S
C2997 C2996 1.377 . S
C2997 C3003 1.390 . S
C2998 H2989 0.930 . S
C2998 C2996 1.384 . S
C2998 C2999 1.372 . S
C2999 C2998 1.372 . S
C2999 C3000 1.400 . S
C2999 C3004 1.490 . S
C3000 H2990 0.930 . S
C3000 C2999 1.400 . S
C3000 C3003 1.386 . S
H3001 C3017 0.930 . S
H3002 C3018 0.931 . S
C3003 H2991 0.929 . S
C3003 C2997 1.390 . S
C3003 C3000 1.386 . S
C3004 C2999 1.490 . S
C3004 C3006 1.395 . S
C3004 C3007 1.403 . S
H3005 C3011 0.930 . S
C3006 H2992 0.930 . S
C3006 C3004 1.395 . S
C3006 C3009 1.403 . S
C3007 C3004 1.403 . S
C3007 C3008 1.524 . S
C3007 C3011 1.400 . S
C3008 H2993 0.960 . S
C3008 H2994 0.960 . S
C3008 H2995 0.960 . S
C3008 C3007 1.524 . S
C3009 C3006 1.403 . S
C3009 C3010 1.392 . S
C3009 C3013 1.495 . S
C3010 C3009 1.392 . S
C3010 C3011 1.385 . S
C3010 C3012 1.478 . S
C3011 H3005 0.930 . S
C3011 C3007 1.400 . S
C3011 C3010 1.385 . S
C3012 C3010 1.478 . S
C3012 C3014 1.381 . S
C3012 C3018 1.383 . S
C3013 C3009 1.495 . S
C3013 H3019 0.959 . S
C3013 H3020 0.961 . S
C3013 H3021 0.960 . S
C3014 C3012 1.381 . S
C3014 C3015 1.394 . S
C3014 H3022 0.930 . S
C3015 C3014 1.394 . S
C3015 C3016 1.383 . S
C3015 H3023 0.929 . S
C3016 C3015 1.383 . S
C3016 C3017 1.377 . S
C3017 H3001 0.930 . S
C3017 C3016 1.377 . S
C3017 C3018 1.379 . S
C3018 H3002 0.931 . S
C3018 C3012 1.383 . S
C3018 C3017 1.379 . S
H3019 C3013 0.959 . S
H3020 C3013 0.961 . S
H3021 C3013 0.960 . S
H3022 C3014 0.930 . S
H3023 C3015 0.929 . S
H3024 C3032 0.929 . S
H3025 C3034 0.930 . S
H3026 C3036 0.930 . S
H3027 C3039 0.929 . S
H3028 C3042 0.930 . S
H3029 C3044 0.960 . S
H3030 C3044 0.960 . S
H3031 C3044 0.960 . S
C3032 H3024 0.929 . S
C3032 C3033 1.377 . S
C3032 C3034 1.384 . S
C3033 C3032 1.377 . S
C3033 C3039 1.390 . S
C3034 H3025 0.930 . S
C3034 C3032 1.384 . S
C3034 C3035 1.372 . S
C3035 C3034 1.372 . S
C3035 C3036 1.400 . S
C3035 C3040 1.490 . S
C3036 H3026 0.930 . S
C3036 C3035 1.400 . S
C3036 C3039 1.386 . S
H3037 C3053 0.930 . S
H3038 C3054 0.931 . S
C3039 H3027 0.929 . S
C3039 C3033 1.390 . S
C3039 C3036 1.386 . S
C3040 C3035 1.490 . S
C3040 C3042 1.395 . S
C3040 C3043 1.403 . S
H3041 C3047 0.930 . S
C3042 H3028 0.930 . S
C3042 C3040 1.395 . S
C3042 C3045 1.403 . S
C3043 C3040 1.403 . S
C3043 C3044 1.524 . S
C3043 C3047 1.400 . S
C3044 H3029 0.960 . S
C3044 H3030 0.960 . S
C3044 H3031 0.960 . S
C3044 C3043 1.524 . S
C3045 C3042 1.403 . S
C3045 C3046 1.392 . S
C3045 C3049 1.495 . S
C3046 C3045 1.392 . S
C3046 C3047 1.385 . S
C3046 C3048 1.478 . S
C3047 H3041 0.930 . S
C3047 C3043 1.400 . S
C3047 C3046 1.385 . S
C3048 C3046 1.478 . S
C3048 C3050 1.381 . S
C3048 C3054 1.383 . S
C3049 C3045 1.495 . S
C3049 H3055 0.959 . S
C3049 H3056 0.961 . S
C3049 H3057 0.960 . S
C3050 C3048 1.381 . S
C3050 C3051 1.394 . S
C3050 H3058 0.930 . S
C3051 C3050 1.394 . S
C3051 C3052 1.383 . S
C3051 H3059 0.929 . S
C3052 C3051 1.383 . S
C3052 C3053 1.377 . S
C3053 H3037 0.930 . S
C3053 C3052 1.377 . S
C3053 C3054 1.379 . S
C3054 H3038 0.931 . S
C3054 C3048 1.383 . S
C3054 C3053 1.379 . S
H3055 C3049 0.959 . S
H3056 C3049 0.961 . S
H3057 C3049 0.960 . S
H3058 C3050 0.930 . S
H3059 C3051 0.929 . S
C477 C65 1.560 . S
C496 C0 1.566 . S
C513 C39 1.559 . S
C532 C13 1.563 . S
C549 C26 1.554 . S
C568 C52 1.539 . S
C585 C78 1.556 . S
C604 C143 1.547 . S
C621 C91 1.554 . S
C640 C117 1.564 . S
C657 C130 1.556 . S
C676 C104 1.566 . S
C693 C156 1.555 . S
C712 C221 1.542 1_556 S
C729 C169 1.560 . S
C748 C195 1.569 1_556 S
C765 C182 1.556 . S
C784 C208 1.545 1_556 S
C801 C299 1.555 . S
C820 C234 1.568 1_556 S
C837 C247 1.554 1_556 S
C856 C273 1.563 . S
C873 C286 1.556 . S
C892 C260 1.566 1_556 S
C909 C377 1.560 . S
C928 C312 1.568 1_554 S
C945 C351 1.558 . S
C964 C325 1.562 1_554 S
C981 C364 1.559 . S
C1000 C338 1.567 1_554 S
C1017 C390 1.559 . S
C1036 C455 1.554 1_554 S
C1053 C403 1.554 . S
C1072 C429 1.562 1_554 S
C1089 C416 1.559 . S
C1108 C442 1.538 1_554 S
C1125 C73 1.095 . S
C1144 C8 1.124 . S
C1161 C21 1.086 . S
C1180 C47 1.053 . S
C1197 C60 1.097 . S
C1216 C34 1.117 . S
C1233 C86 1.089 . S
C1252 C151 1.097 . S
C1269 C99 1.088 . S
C1288 C125 1.102 . S
C1305 C138 1.086 . S
C1324 C112 1.108 . S
C1341 C164 1.098 . S
C1360 C229 1.110 . S
C1377 C203 1.097 . S
C1396 C177 1.117 . S
C1413 C216 1.085 . S
C1432 C190 1.055 . S
C1449 C242 1.093 . S
C1468 C307 1.079 . S
C1485 C255 1.093 . S
C1504 C281 1.079 . S
C1521 C294 1.084 . S
C1540 C268 1.120 . S
C1557 C385 1.096 . S
C1576 C320 1.122 . S
C1593 C333 1.096 . S
C1612 C359 1.082 . S
C1629 C346 1.087 . S
C1648 C372 1.053 . S
C1665 C463 1.095 . S
C1684 C398 1.066 . S
C1701 C437 1.094 . S
C1720 C411 1.072 . S
C1737 C450 1.083 . S
C1756 C424 1.124 . S
C1773 C213 1.601 . S
C1792 C5 1.583 . S
C1809 C226 1.601 . S
C1828 C18 1.582 . S
C1845 C200 1.601 . S
C1864 C31 1.588 . S
C1881 C44 1.608 . S
C1900 C343 1.617 . S
C1917 C57 1.601 . S
C1936 C317 1.588 . S
C1953 C70 1.602 . S
C1972 C330 1.605 . S
C1989 C83 1.601 . S
C2008 C447 1.620 . S
C2025 C96 1.603 . S
C2044 C460 1.609 . S
C2061 C109 1.603 . S
C2080 C434 1.605 . S
C2097 C122 1.601 . S
C2116 C265 1.618 . S
C2133 C239 1.601 . S
C2152 C135 1.619 . S
C2169 C252 1.606 . S
C2188 C148 1.596 . S
C2205 C369 1.605 . S
C2224 C161 1.588 . S
C2241 C174 1.605 . S
C2260 C382 1.588 . S
C2277 C187 1.604 . S
C2296 C356 1.613 . S
C2313 C278 1.603 . S
C2332 C421 1.613 . S
C2349 C291 1.608 . S
C2368 C395 1.585 . S
C2385 C408 1.607 . S
C2404 C304 1.590 . S
C2421 C10 1.218 . S
C2440 C140 1.216 . S
C2457 C153 1.218 . S
C2476 C23 1.218 . S
C2493 C127 1.221 . S
C2512 C36 1.228 . S
C2529 C49 1.221 . S
C2548 C114 1.205 . S
C2565 C62 1.223 . S
C2584 C88 1.216 . S
C2601 C75 1.219 . S
C2620 C101 1.233 . S
C2637 C166 1.219 . S
C2656 C296 1.211 . S
C2673 C309 1.224 . S
C2692 C179 1.215 . S
C2709 C283 1.220 . S
C2728 C192 1.232 . S
C2745 C205 1.222 . S
C2764 C270 1.226 . S
C2781 C218 1.220 . S
C2800 C244 1.232 . S
C2817 C257 1.220 . S
C2836 C231 1.208 . S
C2853 C322 1.220 . S
C2872 C452 1.232 . S
C2889 C465 1.220 . S
C2908 C335 1.208 . S
C2925 C348 1.220 . S
C2944 C439 1.232 . S
C2961 C361 1.220 . S
C2980 C426 1.210 . S
C2997 C400 1.222 . S
C3016 C374 1.224 . S
C3033 C387 1.224 . S
C3052 C413 1.208 . S
