# Generated by pormake.
# Topology uka, (4)-cn, num edge types: 1
# Building blocks:
#     Node 0, Type 0, BuildingBlock: TATPOV_clean_sbu_0, # of connection points: 4
#     Node 1, Type 0, BuildingBlock: TATPOV_clean_sbu_0, # of connection points: 4
#     Node 2, Type 0, BuildingBlock: TATPOV_clean_sbu_0, # of connection points: 4
#     Node 3, Type 0, BuildingBlock: TATPOV_clean_sbu_0, # of connection points: 4
#     Node 4, Type 0, BuildingBlock: TATPOV_clean_sbu_0, # of connection points: 4
#     Node 5, Type 0, BuildingBlock: TATPOV_clean_sbu_0, # of connection points: 4
#     Node 6, Type 0, BuildingBlock: TATPOV_clean_sbu_0, # of connection points: 4
#     Node 7, Type 0, BuildingBlock: TATPOV_clean_sbu_0, # of connection points: 4
#     Node 8, Type 0, BuildingBlock: TATPOV_clean_sbu_0, # of connection points: 4
#     Node 9, Type 0, BuildingBlock: TATPOV_clean_sbu_0, # of connection points: 4
#     Node 10, Type 0, BuildingBlock: TATPOV_clean_sbu_0, # of connection points: 4
#     Node 11, Type 0, BuildingBlock: TATPOV_clean_sbu_0, # of connection points: 4
#     Node 12, Type 0, BuildingBlock: TATPOV_clean_sbu_0, # of connection points: 4
#     Node 13, Type 0, BuildingBlock: TATPOV_clean_sbu_0, # of connection points: 4
#     Node 14, Type 0, BuildingBlock: TATPOV_clean_sbu_0, # of connection points: 4
#     Node 15, Type 0, BuildingBlock: TATPOV_clean_sbu_0, # of connection points: 4
#     Node 16, Type 0, BuildingBlock: TATPOV_clean_sbu_0, # of connection points: 4
#     Node 17, Type 0, BuildingBlock: TATPOV_clean_sbu_0, # of connection points: 4
#     Node 18, Type 0, BuildingBlock: TATPOV_clean_sbu_0, # of connection points: 4
#     Node 19, Type 0, BuildingBlock: TATPOV_clean_sbu_0, # of connection points: 4
#     Node 20, Type 0, BuildingBlock: TATPOV_clean_sbu_0, # of connection points: 4
#     Node 21, Type 0, BuildingBlock: TATPOV_clean_sbu_0, # of connection points: 4
#     Node 22, Type 0, BuildingBlock: TATPOV_clean_sbu_0, # of connection points: 4
#     Node 23, Type 0, BuildingBlock: TATPOV_clean_sbu_0, # of connection points: 4
#     Node 24, Type 0, BuildingBlock: TATPOV_clean_sbu_0, # of connection points: 4
#     Node 25, Type 0, BuildingBlock: TATPOV_clean_sbu_0, # of connection points: 4
#     Node 26, Type 0, BuildingBlock: TATPOV_clean_sbu_0, # of connection points: 4
#     Node 27, Type 0, BuildingBlock: TATPOV_clean_sbu_0, # of connection points: 4
#     Node 28, Type 0, BuildingBlock: TATPOV_clean_sbu_0, # of connection points: 4
#     Node 29, Type 0, BuildingBlock: TATPOV_clean_sbu_0, # of connection points: 4
#     Node 30, Type 0, BuildingBlock: TATPOV_clean_sbu_0, # of connection points: 4
#     Node 31, Type 0, BuildingBlock: TATPOV_clean_sbu_0, # of connection points: 4
#     Edge 32, Type (0, 0), None
#     Edge 33, Type (0, 0), None
#     Edge 34, Type (0, 0), None
#     Edge 35, Type (0, 0), None
#     Edge 36, Type (0, 0), None
#     Edge 37, Type (0, 0), None
#     Edge 38, Type (0, 0), None
#     Edge 39, Type (0, 0), None
#     Edge 40, Type (0, 0), None
#     Edge 41, Type (0, 0), None
#     Edge 42, Type (0, 0), None
#     Edge 43, Type (0, 0), None
#     Edge 44, Type (0, 0), None
#     Edge 45, Type (0, 0), None
#     Edge 46, Type (0, 0), None
#     Edge 47, Type (0, 0), None
#     Edge 48, Type (0, 0), None
#     Edge 49, Type (0, 0), None
#     Edge 50, Type (0, 0), None
#     Edge 51, Type (0, 0), None
#     Edge 52, Type (0, 0), None
#     Edge 53, Type (0, 0), None
#     Edge 54, Type (0, 0), None
#     Edge 55, Type (0, 0), None
#     Edge 56, Type (0, 0), None
#     Edge 57, Type (0, 0), None
#     Edge 58, Type (0, 0), None
#     Edge 59, Type (0, 0), None
#     Edge 60, Type (0, 0), None
#     Edge 61, Type (0, 0), None
#     Edge 62, Type (0, 0), None
#     Edge 63, Type (0, 0), None
#     Edge 64, Type (0, 0), None
#     Edge 65, Type (0, 0), None
#     Edge 66, Type (0, 0), None
#     Edge 67, Type (0, 0), None
#     Edge 68, Type (0, 0), None
#     Edge 69, Type (0, 0), None
#     Edge 70, Type (0, 0), None
#     Edge 71, Type (0, 0), None
#     Edge 72, Type (0, 0), None
#     Edge 73, Type (0, 0), None
#     Edge 74, Type (0, 0), None
#     Edge 75, Type (0, 0), None
#     Edge 76, Type (0, 0), None
#     Edge 77, Type (0, 0), None
#     Edge 78, Type (0, 0), None
#     Edge 79, Type (0, 0), None
#     Edge 80, Type (0, 0), None
#     Edge 81, Type (0, 0), None
#     Edge 82, Type (0, 0), None
#     Edge 83, Type (0, 0), None
#     Edge 84, Type (0, 0), None
#     Edge 85, Type (0, 0), None
#     Edge 86, Type (0, 0), None
#     Edge 87, Type (0, 0), None
#     Edge 88, Type (0, 0), None
#     Edge 89, Type (0, 0), None
#     Edge 90, Type (0, 0), None
#     Edge 91, Type (0, 0), None
#     Edge 92, Type (0, 0), None
#     Edge 93, Type (0, 0), None
#     Edge 94, Type (0, 0), None
#     Edge 95, Type (0, 0), None
# Relax obj value: 0.161
# Max RMSD: 0.210
# Mean RMSD: 0.210
data_MOF--net-uka--node1-TATPOV_clean_sbu_0--edge1-none
_symmetry_space_group_name_H-M    P1
_symmetry_Int_Tables_number       1
_symmetry_cell_setting            triclinic
loop_
_symmetry_equiv_pos_as_xyz
'x, y, z'
_cell_length_a     27.925407
_cell_length_b     27.924859
_cell_length_c     20.425615
_cell_angle_alpha  90.0
_cell_angle_beta   90.000002
_cell_angle_gamma 90.0
loop_
_atom_site_label
_atom_site_type_symbol
_atom_site_fract_x
_atom_site_fract_y
_atom_site_fract_z
_atom_type_partial_charge
Zn0 Zn 0.02645 0.26313 0.25234 0.0
Zn1 Zn 0.10191 0.21853 0.22687 0.0
O2 O 0.07682 0.15358 0.24951 0.0
O3 O 0.01906 0.19497 0.29521 0.0
O4 O 0.17072 0.2078 0.20263 0.0
O5 O -0.00163 0.2801 0.1674 0.0
O6 O 0.06767 0.24704 0.14194 0.0
C7 C 0.04127 0.15548 0.28808 0.0
C8 C 0.08477 0.2892 0.3367 0.0
O9 O 0.09945 0.24784 0.32115 0.0
O10 O 0.07098 0.31488 0.28983 0.0
C11 C 0.20414 0.23399 0.22466 0.0
O12 O 0.19399 0.26993 0.26372 0.0
C13 C 0.02917 0.26899 0.12504 0.0
Zn14 Zn 0.94483 0.77646 0.50237 0.0
Zn15 Zn -0.01055 0.8519 0.4769 0.0
O16 O 0.05438 0.82681 0.49956 0.0
O17 O 0.01299 0.76905 0.54526 0.0
O18 O 0.00018 0.92071 0.45265 0.0
O19 O 0.92787 0.74836 0.41745 0.0
O20 O 0.96094 0.81765 0.39198 0.0
C21 C 0.05248 0.79125 0.53813 0.0
C22 C 0.91876 0.83478 0.58672 0.0
O23 O 0.96012 0.84946 0.57118 0.0
O24 O 0.89308 0.82099 0.53985 0.0
C25 C 0.97398 0.95413 0.47465 0.0
O26 O 0.93802 0.94399 0.51367 0.0
C27 C 0.93899 0.77915 0.37508 0.0
Zn28 Zn 0.43153 0.69483 0.75233 0.0
Zn29 Zn 0.35607 0.73944 0.72687 0.0
O30 O 0.38116 0.80438 0.74951 0.0
O31 O 0.43892 0.76299 0.79521 0.0
O32 O 0.28726 0.75016 0.70263 0.0
O33 O 0.45961 0.67787 0.6674 0.0
O34 O 0.39031 0.71092 0.64194 0.0
C35 C 0.41672 0.80248 0.78808 0.0
C36 C 0.37322 0.66876 0.83669 0.0
O37 O 0.35853 0.71012 0.82115 0.0
O38 O 0.387 0.64309 0.78983 0.0
C39 C 0.25384 0.72397 0.72466 0.0
O40 O 0.26399 0.68803 0.76372 0.0
C41 C 0.42881 0.68897 0.62504 0.0
Zn42 Zn 0.51315 0.18151 0.00237 0.0
Zn43 Zn 0.46853 0.10606 -0.0231 0.0
O44 O 0.4036 0.13116 -0.00044 0.0
O45 O 0.44499 0.18891 0.04526 0.0
O46 O 0.4578 0.03725 0.95265 0.0
O47 O 0.53011 0.2096 0.91745 0.0
O48 O 0.49704 0.14032 0.89198 0.0
C49 C 0.4055 0.16671 0.03814 0.0
C50 C 0.53922 0.12319 0.08672 0.0
O51 O 0.49786 0.10851 0.07119 0.0
O52 O 0.5649 0.13697 0.03985 0.0
C53 C 0.484 0.00383 -0.02535 0.0
O54 O 0.51996 0.01398 0.01367 0.0
C55 C 0.51899 0.17881 0.87508 0.0
Zn56 Zn 0.02645 0.69483 0.17885 0.0
Zn57 Zn 0.10191 0.73944 0.20432 0.0
O58 O 0.07682 0.80438 0.18167 0.0
O59 O 0.01906 0.76299 0.13598 0.0
O60 O 0.17072 0.75016 0.22856 0.0
O61 O -0.00163 0.67787 0.26378 0.0
O62 O 0.06767 0.71092 0.28924 0.0
C63 C 0.04127 0.80248 0.14311 0.0
C64 C 0.08477 0.66876 0.09449 0.0
O65 O 0.09945 0.71012 0.11003 0.0
O66 O 0.07098 0.64309 0.14135 0.0
C67 C 0.20414 0.72397 0.20652 0.0
O68 O 0.19399 0.68803 0.16747 0.0
C69 C 0.02917 0.68897 0.30614 0.0
Zn70 Zn 0.51315 0.77646 0.42881 0.0
Zn71 Zn 0.46853 0.8519 0.45428 0.0
O72 O 0.4036 0.82681 0.43162 0.0
O73 O 0.44499 0.76905 0.38592 0.0
O74 O 0.4578 0.92071 0.47853 0.0
O75 O 0.53011 0.74836 0.51373 0.0
O76 O 0.49704 0.81765 0.53921 0.0
C77 C 0.4055 0.79125 0.39305 0.0
C78 C 0.53922 0.83478 0.34446 0.0
O79 O 0.49786 0.84946 0.36 0.0
O80 O 0.5649 0.82099 0.39133 0.0
C81 C 0.484 0.95413 0.45653 0.0
O82 O 0.51996 0.94399 0.41751 0.0
C83 C 0.51899 0.77915 0.5561 0.0
Zn84 Zn 0.43153 0.26313 0.67885 0.0
Zn85 Zn 0.35607 0.21853 0.70432 0.0
O86 O 0.38116 0.15358 0.68167 0.0
O87 O 0.43892 0.19497 0.63598 0.0
O88 O 0.28726 0.2078 0.72856 0.0
O89 O 0.45961 0.2801 0.76378 0.0
O90 O 0.39031 0.24704 0.78924 0.0
C91 C 0.41672 0.15548 0.64311 0.0
C92 C 0.37322 0.2892 0.59449 0.0
O93 O 0.35853 0.24784 0.61003 0.0
O94 O 0.387 0.31488 0.64135 0.0
C95 C 0.25384 0.23399 0.70652 0.0
O96 O 0.26399 0.26993 0.66747 0.0
C97 C 0.42881 0.26899 0.80615 0.0
Zn98 Zn 0.94483 0.18151 0.92881 0.0
Zn99 Zn -0.01055 0.10606 0.95428 0.0
O100 O 0.05438 0.13116 0.93162 0.0
O101 O 0.01299 0.18891 0.88592 0.0
O102 O 0.00018 0.03725 -0.02147 0.0
O103 O 0.92787 0.2096 0.01373 0.0
O104 O 0.96094 0.14032 0.03921 0.0
C105 C 0.05248 0.16671 0.89305 0.0
C106 C 0.91876 0.12319 0.84446 0.0
O107 O 0.96012 0.10851 0.86 0.0
O108 O 0.89308 0.13697 0.89133 0.0
C109 C 0.97398 0.00383 0.95653 0.0
O110 O 0.93802 0.01398 0.91751 0.0
C111 C 0.93899 0.17881 0.0561 0.0
Zn112 Zn 0.93151 0.69479 0.67884 0.0
Zn113 Zn 0.85605 0.73943 0.70432 0.0
O114 O 0.88113 0.80437 0.68167 0.0
O115 O 0.93893 0.76297 0.63602 0.0
O116 O 0.78724 0.75015 0.72856 0.0
O117 O 0.95958 0.67782 0.76378 0.0
O118 O 0.89031 0.71092 0.78924 0.0
C119 C 0.91673 0.80246 0.64317 0.0
C120 C 0.87319 0.66876 0.59447 0.0
O121 O 0.85851 0.71012 0.61003 0.0
O122 O 0.88696 0.64307 0.64133 0.0
C123 C 0.75382 0.72396 0.70652 0.0
O124 O 0.76396 0.68802 0.66747 0.0
C125 C 0.92879 0.68896 0.80614 0.0
Zn126 Zn 0.01319 0.18151 0.4288 0.0
Zn127 Zn 0.96854 0.10606 0.45428 0.0
O128 O 0.90361 0.13116 0.43162 0.0
O129 O 0.94503 0.1889 0.38591 0.0
O130 O 0.9578 0.03726 0.47853 0.0
O131 O 0.03012 0.2096 0.51374 0.0
O132 O -0.00295 0.14031 0.5392 0.0
C133 C 0.90553 0.16671 0.39304 0.0
C134 C 0.03926 0.12315 0.34452 0.0
O135 O -0.00212 0.10849 0.36 0.0
O136 O 0.06496 0.137 0.39132 0.0
C137 C -0.016 0.00383 0.45654 0.0
O138 O 0.01996 0.01398 0.41752 0.0
C139 C 0.019 0.17881 0.5561 0.0
Zn140 Zn 0.52647 0.26317 0.17884 0.0
Zn141 Zn 0.60193 0.21853 0.20432 0.0
O142 O 0.57685 0.15359 0.18167 0.0
O143 O 0.51905 0.19499 0.13602 0.0
O144 O 0.67075 0.20781 0.22856 0.0
O145 O 0.4984 0.28014 0.26378 0.0
O146 O 0.56767 0.24704 0.28924 0.0
C147 C 0.54125 0.15551 0.14317 0.0
C148 C 0.58479 0.2892 0.09447 0.0
O149 O 0.59947 0.24784 0.11003 0.0
O150 O 0.57102 0.31489 0.14133 0.0
C151 C 0.70416 0.234 0.20653 0.0
O152 O 0.69402 0.26994 0.16747 0.0
C153 C 0.52919 0.269 0.30614 0.0
Zn154 Zn 0.44479 0.77646 0.9288 0.0
Zn155 Zn 0.48944 0.8519 0.95428 0.0
O156 O 0.55437 0.8268 0.93162 0.0
O157 O 0.51295 0.76906 0.88591 0.0
O158 O 0.50018 0.92071 -0.02147 0.0
O159 O 0.42786 0.74836 0.01373 0.0
O160 O 0.46093 0.81765 0.0392 0.0
C161 C 0.55245 0.79125 0.89304 0.0
C162 C 0.41872 0.83481 0.84452 0.0
O163 O 0.4601 0.84947 0.86 0.0
O164 O 0.39302 0.82096 0.89132 0.0
C165 C 0.47398 0.95413 0.95654 0.0
O166 O 0.43802 0.94399 0.91752 0.0
C167 C 0.43898 0.77916 0.0561 0.0
Zn168 Zn 0.93151 0.26317 0.75234 0.0
Zn169 Zn 0.85605 0.21853 0.72687 0.0
O170 O 0.88113 0.15359 0.74951 0.0
O171 O 0.93893 0.19499 0.79517 0.0
O172 O 0.78724 0.20781 0.70262 0.0
O173 O 0.95958 0.28014 0.66741 0.0
O174 O 0.89031 0.24704 0.64194 0.0
C175 C 0.91673 0.15551 0.78802 0.0
C176 C 0.87319 0.2892 0.83671 0.0
O177 O 0.85851 0.24784 0.82115 0.0
O178 O 0.88696 0.31489 0.78985 0.0
C179 C 0.75382 0.234 0.72466 0.0
O180 O 0.76396 0.26994 0.76372 0.0
C181 C 0.92879 0.269 0.62504 0.0
Zn182 Zn 0.44479 0.18151 0.50238 0.0
Zn183 Zn 0.48944 0.10606 0.47691 0.0
O184 O 0.55437 0.13116 0.49957 0.0
O185 O 0.51295 0.1889 0.54528 0.0
O186 O 0.50018 0.03726 0.45265 0.0
O187 O 0.42786 0.2096 0.41745 0.0
O188 O 0.46093 0.14031 0.39198 0.0
C189 C 0.55245 0.16671 0.53815 0.0
C190 C 0.41872 0.12315 0.58667 0.0
O191 O 0.4601 0.10849 0.57118 0.0
O192 O 0.39302 0.137 0.53986 0.0
C193 C 0.47398 0.00383 0.47464 0.0
O194 O 0.43802 0.01398 0.51366 0.0
C195 C 0.43898 0.17881 0.37508 0.0
Zn196 Zn 0.52647 0.6948 0.25234 0.0
Zn197 Zn 0.60193 0.73943 0.22687 0.0
O198 O 0.57685 0.80437 0.24951 0.0
O199 O 0.51905 0.76297 0.29517 0.0
O200 O 0.67075 0.75015 0.20262 0.0
O201 O 0.4984 0.67782 0.16741 0.0
O202 O 0.56767 0.71092 0.14194 0.0
C203 C 0.54125 0.80246 0.28802 0.0
C204 C 0.58479 0.66876 0.33671 0.0
O205 O 0.59947 0.71012 0.32115 0.0
O206 O 0.57102 0.64307 0.28985 0.0
C207 C 0.70416 0.72396 0.22466 0.0
O208 O 0.69402 0.68802 0.26372 0.0
C209 C 0.52919 0.68896 0.12504 0.0
Zn210 Zn 0.01319 0.77646 0.00238 0.0
Zn211 Zn 0.96854 0.8519 -0.02309 0.0
O212 O 0.90361 0.8268 -0.00043 0.0
O213 O 0.94503 0.76906 0.04528 0.0
O214 O 0.9578 0.92071 0.95265 0.0
O215 O 0.03012 0.74836 0.91745 0.0
O216 O -0.00295 0.81765 0.89198 0.0
C217 C 0.90553 0.79125 0.03815 0.0
C218 C 0.03926 0.83481 0.08666 0.0
O219 O -0.00212 0.84947 0.07118 0.0
O220 O 0.06496 0.82096 0.03986 0.0
C221 C -0.016 0.95413 -0.02536 0.0
O222 O 0.01996 0.94399 0.01366 0.0
C223 C 0.019 0.77916 0.87508 0.0
Zn224 Zn 0.52643 0.76316 0.75232 0.0
Zn225 Zn 0.60188 0.71852 0.72685 0.0
O226 O 0.57679 0.65359 0.7495 0.0
O227 O 0.51905 0.69499 0.79522 0.0
O228 O 0.67069 0.70779 0.7026 0.0
O229 O 0.49835 0.7801 0.66738 0.0
O230 O 0.56764 0.74704 0.64192 0.0
C231 C 0.54124 0.6555 0.78808 0.0
C232 C 0.58478 0.78924 0.8366 0.0
O233 O 0.59944 0.74786 0.82112 0.0
O234 O 0.57094 0.81494 0.78979 0.0
C235 C 0.70411 0.73398 0.72463 0.0
O236 O 0.69397 0.76992 0.76368 0.0
C237 C 0.52914 0.76899 0.62502 0.0
Zn238 Zn 0.44481 0.27643 0.00237 0.0
Zn239 Zn 0.48944 0.3519 -0.02312 0.0
O240 O 0.55438 0.32681 -0.00048 0.0
O241 O 0.51298 0.26902 0.0452 0.0
O242 O 0.50017 0.42071 0.95263 0.0
O243 O 0.42783 0.24836 0.91743 0.0
O244 O 0.46093 0.31764 0.89196 0.0
C245 C 0.55247 0.29122 0.03803 0.0
C246 C 0.41878 0.33476 0.08672 0.0
O247 O 0.46014 0.34943 0.07117 0.0
O248 O 0.39309 0.32099 0.03986 0.0
C249 C 0.47398 0.45413 -0.02535 0.0
O250 O 0.43804 0.44399 0.01371 0.0
C251 C 0.43896 0.27915 0.87506 0.0
Zn252 Zn 0.93155 0.19481 0.25232 0.0
Zn253 Zn 0.8561 0.23944 0.22685 0.0
O254 O 0.88119 0.30438 0.2495 0.0
O255 O 0.93893 0.26297 0.29522 0.0
O256 O 0.78729 0.25018 0.2026 0.0
O257 O 0.95963 0.17787 0.16739 0.0
O258 O 0.89034 0.21093 0.14192 0.0
C259 C 0.91674 0.30247 0.28808 0.0
C260 C 0.8732 0.16873 0.3366 0.0
O261 O 0.85854 0.21011 0.32112 0.0
O262 O 0.88704 0.14302 0.28979 0.0
C263 C 0.75387 0.22399 0.22463 0.0
O264 O 0.76401 0.18805 0.26368 0.0
C265 C 0.92884 0.18898 0.12502 0.0
Zn266 Zn 0.01317 0.68154 0.50237 0.0
Zn267 Zn 0.96854 0.60607 0.47688 0.0
O268 O 0.9036 0.63116 0.49952 0.0
O269 O 0.945 0.68895 0.5452 0.0
O270 O 0.95781 0.53726 0.45263 0.0
O271 O 0.03015 0.7096 0.41743 0.0
O272 O -0.00295 0.64032 0.39196 0.0
C273 C 0.90551 0.66674 0.53803 0.0
C274 C 0.0392 0.6232 0.58672 0.0
O275 O -0.00216 0.60853 0.57117 0.0
O276 O 0.06489 0.63698 0.53986 0.0
C277 C -0.016 0.50383 0.47465 0.0
O278 O 0.01994 0.51398 0.51371 0.0
C279 C 0.01902 0.67881 0.37506 0.0
Zn280 Zn 0.52643 0.19481 0.67886 0.0
Zn281 Zn 0.60188 0.23944 0.70434 0.0
O282 O 0.57679 0.30438 0.68169 0.0
O283 O 0.51905 0.26297 0.63597 0.0
O284 O 0.67069 0.25018 0.72858 0.0
O285 O 0.49835 0.17787 0.7638 0.0
O286 O 0.56764 0.21093 0.78926 0.0
C287 C 0.54124 0.30247 0.6431 0.0
C288 C 0.58478 0.16873 0.59459 0.0
O289 O 0.59944 0.21011 0.61006 0.0
O290 O 0.57094 0.14302 0.64139 0.0
C291 C 0.70411 0.22399 0.70655 0.0
O292 O 0.69397 0.18805 0.6675 0.0
C293 C 0.52914 0.18898 0.80616 0.0
Zn294 Zn 0.01317 0.27643 0.92882 0.0
Zn295 Zn 0.96854 0.3519 0.95431 0.0
O296 O 0.9036 0.32681 0.93167 0.0
O297 O 0.945 0.26902 0.88599 0.0
O298 O 0.95781 0.42071 -0.02144 0.0
O299 O 0.03015 0.24836 0.01375 0.0
O300 O -0.00295 0.31764 0.03922 0.0
C301 C 0.90551 0.29122 0.89315 0.0
C302 C 0.0392 0.33476 0.84446 0.0
O303 O -0.00216 0.34943 0.86002 0.0
O304 O 0.06489 0.32099 0.89132 0.0
C305 C -0.016 0.45413 0.95653 0.0
O306 O 0.01994 0.44399 0.91747 0.0
C307 C 0.01902 0.27915 0.05612 0.0
Zn308 Zn 0.93155 0.76316 0.17886 0.0
Zn309 Zn 0.8561 0.71852 0.20434 0.0
O310 O 0.88119 0.65359 0.18169 0.0
O311 O 0.93893 0.69499 0.13597 0.0
O312 O 0.78729 0.70779 0.22858 0.0
O313 O 0.95963 0.7801 0.2638 0.0
O314 O 0.89034 0.74704 0.28926 0.0
C315 C 0.91674 0.6555 0.1431 0.0
C316 C 0.8732 0.78924 0.09459 0.0
O317 O 0.85854 0.74786 0.11006 0.0
O318 O 0.88704 0.81494 0.14139 0.0
C319 C 0.75387 0.73398 0.20655 0.0
O320 O 0.76401 0.76992 0.1675 0.0
C321 C 0.92884 0.76899 0.30616 0.0
Zn322 Zn 0.44481 0.68154 0.42882 0.0
Zn323 Zn 0.48945 0.60607 0.45431 0.0
O324 O 0.55438 0.63116 0.43167 0.0
O325 O 0.51298 0.68895 0.38599 0.0
O326 O 0.50017 0.53726 0.47856 0.0
O327 O 0.42783 0.7096 0.51375 0.0
O328 O 0.46093 0.64032 0.53922 0.0
C329 C 0.55247 0.66674 0.39315 0.0
C330 C 0.41878 0.6232 0.34446 0.0
O331 O 0.46014 0.60853 0.36002 0.0
O332 O 0.39309 0.63698 0.39132 0.0
C333 C 0.47398 0.50383 0.45653 0.0
O334 O 0.43804 0.51398 0.41748 0.0
C335 C 0.43896 0.67881 0.55612 0.0
Zn336 Zn 0.43153 0.19477 0.17886 0.0
Zn337 Zn 0.35608 0.23944 0.20434 0.0
O338 O 0.38117 0.30437 0.18169 0.0
O339 O 0.43894 0.26294 0.13601 0.0
O340 O 0.28727 0.25017 0.22859 0.0
O341 O 0.4596 0.17782 0.2638 0.0
O342 O 0.39033 0.21093 0.28926 0.0
C343 C 0.41675 0.30244 0.14316 0.0
C344 C 0.37317 0.16872 0.09457 0.0
O345 O 0.35852 0.21011 0.11006 0.0
O346 O 0.38701 0.14301 0.14137 0.0
C347 C 0.25385 0.22398 0.20656 0.0
O348 O 0.26399 0.18804 0.1675 0.0
C349 C 0.42882 0.18896 0.30616 0.0
Zn350 Zn 0.51321 0.68154 0.92881 0.0
Zn351 Zn 0.46854 0.60607 0.9543 0.0
O352 O 0.40361 0.63116 0.93166 0.0
O353 O 0.44503 0.68894 0.88598 0.0
O354 O 0.45781 0.53726 -0.02144 0.0
O355 O 0.53016 0.7096 0.01376 0.0
O356 O 0.49706 0.64032 0.03922 0.0
C357 C 0.40554 0.66674 0.89314 0.0
C358 C 0.53924 0.62317 0.84452 0.0
O359 O 0.49786 0.60852 0.86002 0.0
O360 O 0.56496 0.63701 0.89131 0.0
C361 C 0.484 0.50383 0.95654 0.0
O362 O 0.51994 0.51397 0.91748 0.0
C363 C 0.51903 0.67881 0.05612 0.0
Zn364 Zn 0.02645 0.76319 0.67886 0.0
Zn365 Zn 0.10191 0.71853 0.70434 0.0
O366 O 0.07681 0.65359 0.68169 0.0
O367 O 0.01904 0.69502 0.63601 0.0
O368 O 0.17072 0.7078 0.72859 0.0
O369 O -0.00162 0.78014 0.7638 0.0
O370 O 0.06765 0.74704 0.78926 0.0
C371 C 0.04123 0.65552 0.64316 0.0
C372 C 0.08481 0.78924 0.59457 0.0
O373 O 0.09946 0.74786 0.61006 0.0
O374 O 0.07098 0.81495 0.64137 0.0
C375 C 0.20414 0.73399 0.70656 0.0
O376 O 0.19399 0.76993 0.6675 0.0
C377 C 0.02916 0.769 0.80616 0.0
Zn378 Zn 0.94477 0.27642 0.42881 0.0
Zn379 Zn -0.01056 0.3519 0.4543 0.0
O380 O 0.05437 0.3268 0.43166 0.0
O381 O 0.01295 0.26903 0.38598 0.0
O382 O 0.00017 0.42071 0.47856 0.0
O383 O 0.92782 0.24837 0.51376 0.0
O384 O 0.96092 0.31764 0.53922 0.0
C385 C 0.05244 0.29122 0.39314 0.0
C386 C 0.91874 0.3348 0.34452 0.0
O387 O 0.96012 0.34945 0.36002 0.0
O388 O 0.89302 0.32096 0.39131 0.0
C389 C 0.97398 0.45413 0.45654 0.0
O390 O 0.93804 0.44399 0.41748 0.0
C391 C 0.93895 0.27916 0.55612 0.0
Zn392 Zn 0.43153 0.76319 0.25233 0.0
Zn393 Zn 0.35608 0.71853 0.22685 0.0
O394 O 0.38117 0.65359 0.2495 0.0
O395 O 0.43894 0.69502 0.29518 0.0
O396 O 0.28727 0.7078 0.2026 0.0
O397 O 0.4596 0.78014 0.16739 0.0
O398 O 0.39033 0.74704 0.14192 0.0
C399 C 0.41675 0.65552 0.28802 0.0
C400 C 0.37317 0.78924 0.33661 0.0
O401 O 0.35853 0.74786 0.32113 0.0
O402 O 0.38701 0.81495 0.28981 0.0
C403 C 0.25385 0.73399 0.22463 0.0
O404 O 0.26399 0.76993 0.26368 0.0
C405 C 0.42882 0.769 0.12502 0.0
Zn406 Zn 0.94477 0.68154 0.00237 0.0
Zn407 Zn -0.01056 0.60607 -0.02312 0.0
O408 O 0.05437 0.63116 -0.00048 0.0
O409 O 0.01295 0.68894 0.04521 0.0
O410 O 0.00017 0.53726 0.95262 0.0
O411 O 0.92782 0.7096 0.91743 0.0
O412 O 0.96092 0.64032 0.89197 0.0
C413 C 0.05244 0.66674 0.03804 0.0
C414 C 0.91874 0.62317 0.08666 0.0
O415 O 0.96012 0.60852 0.07117 0.0
O416 O 0.89302 0.63701 0.03987 0.0
C417 C 0.97398 0.50383 -0.02535 0.0
O418 O 0.93804 0.51397 0.0137 0.0
C419 C 0.93895 0.67881 0.87506 0.0
Zn420 Zn 0.02645 0.19477 0.75233 0.0
Zn421 Zn 0.10191 0.23944 0.72685 0.0
O422 O 0.07681 0.30437 0.7495 0.0
O423 O 0.01904 0.26294 0.79518 0.0
O424 O 0.17072 0.25017 0.7026 0.0
O425 O -0.00162 0.17782 0.66739 0.0
O426 O 0.06765 0.21093 0.64192 0.0
C427 C 0.04123 0.30244 0.78802 0.0
C428 C 0.08481 0.16872 0.83661 0.0
O429 O 0.09946 0.21011 0.82113 0.0
O430 O 0.07097 0.14301 0.78981 0.0
C431 C 0.20414 0.22398 0.72463 0.0
O432 O 0.19399 0.18804 0.76368 0.0
C433 C 0.02916 0.18896 0.62502 0.0
Zn434 Zn 0.51321 0.27642 0.50237 0.0
Zn435 Zn 0.46854 0.3519 0.47688 0.0
O436 O 0.40361 0.3268 0.49952 0.0
O437 O 0.44503 0.26903 0.54521 0.0
O438 O 0.45781 0.42071 0.45262 0.0
O439 O 0.53016 0.24837 0.41743 0.0
O440 O 0.49706 0.31764 0.39197 0.0
C441 C 0.40554 0.29122 0.53804 0.0
C442 C 0.53924 0.3348 0.58666 0.0
O443 O 0.49786 0.34945 0.57117 0.0
O444 O 0.56496 0.32096 0.53987 0.0
C445 C 0.484 0.45413 0.47465 0.0
O446 O 0.51994 0.44399 0.5137 0.0
C447 C 0.51903 0.27916 0.37506 0.0
loop_
_geom_bond_atom_site_label_1
_geom_bond_atom_site_label_2
_geom_bond_distance
_geom_bond_site_symmetry_2
_ccdc_geom_bond_type
Zn0 O3 2.031 . S
Zn0 O5 2.049 . S
Zn0 O10 2.067 . S
Zn1 O2 1.962 . S
Zn1 O4 1.986 . S
Zn1 O6 1.996 . S
Zn1 O9 1.943 . S
O2 Zn1 1.962 . S
O2 C7 1.254 . S
O3 Zn0 2.031 . S
O3 C7 1.269 . S
O4 Zn1 1.986 . S
O4 C11 1.262 . S
O5 Zn0 2.049 . S
O5 C13 1.260 . S
O6 Zn1 1.996 . S
O6 C13 1.257 . S
C7 O2 1.254 . S
C7 O3 1.269 . S
C8 O9 1.249 . S
C8 O10 1.270 . S
O9 Zn1 1.943 . S
O9 C8 1.249 . S
O10 Zn0 2.067 . S
O10 C8 1.270 . S
C11 O4 1.262 . S
C11 O12 1.232 . S
O12 C11 1.232 . S
C13 O5 1.260 . S
C13 O6 1.257 . S
Zn14 O17 2.031 1_655 S
Zn14 O19 2.049 . S
Zn14 O24 2.067 . S
Zn15 O16 1.962 . S
Zn15 O18 1.986 1_455 S
Zn15 O20 1.996 1_455 S
Zn15 O23 1.943 1_455 S
O16 Zn15 1.962 . S
O16 C21 1.254 . S
O17 Zn14 2.031 1_455 S
O17 C21 1.269 . S
O18 Zn15 1.986 1_655 S
O18 C25 1.262 . S
O19 Zn14 2.049 . S
O19 C27 1.260 . S
O20 Zn15 1.996 1_655 S
O20 C27 1.257 . S
C21 O16 1.254 . S
C21 O17 1.269 . S
C22 O23 1.249 . S
C22 O24 1.270 . S
O23 Zn15 1.943 1_655 S
O23 C22 1.249 . S
O24 Zn14 2.067 . S
O24 C22 1.270 . S
C25 O18 1.262 . S
C25 O26 1.232 1_655 S
O26 C25 1.232 1_455 S
C27 O19 1.260 . S
C27 O20 1.257 . S
Zn28 O31 2.031 . S
Zn28 O33 2.049 . S
Zn28 O38 2.067 . S
Zn29 O30 1.962 . S
Zn29 O32 1.986 . S
Zn29 O34 1.996 . S
Zn29 O37 1.943 . S
O30 Zn29 1.962 . S
O30 C35 1.254 . S
O31 Zn28 2.031 . S
O31 C35 1.269 . S
O32 Zn29 1.986 . S
O32 C39 1.262 . S
O33 Zn28 2.049 . S
O33 C41 1.260 . S
O34 Zn29 1.996 . S
O34 C41 1.257 . S
C35 O30 1.254 . S
C35 O31 1.269 . S
C36 O37 1.249 . S
C36 O38 1.270 . S
O37 Zn29 1.943 . S
O37 C36 1.249 . S
O38 Zn28 2.067 . S
O38 C36 1.270 . S
C39 O32 1.262 . S
C39 O40 1.232 . S
O40 C39 1.232 . S
C41 O33 1.260 . S
C41 O34 1.257 . S
Zn42 O45 2.031 . S
Zn42 O47 2.049 1_554 S
Zn42 O52 2.067 . S
Zn43 O44 1.962 . S
Zn43 O46 1.986 1_554 S
Zn43 O48 1.996 1_554 S
Zn43 O51 1.943 . S
O44 Zn43 1.962 . S
O44 C49 1.254 . S
O45 Zn42 2.031 . S
O45 C49 1.269 . S
O46 Zn43 1.986 1_556 S
O46 C53 1.262 1_556 S
O47 Zn42 2.049 1_556 S
O47 C55 1.260 . S
O48 Zn43 1.996 1_556 S
O48 C55 1.257 . S
C49 O44 1.254 . S
C49 O45 1.269 . S
C50 O51 1.249 . S
C50 O52 1.270 . S
O51 Zn43 1.943 . S
O51 C50 1.249 . S
O52 Zn42 2.067 . S
O52 C50 1.270 . S
C53 O46 1.262 1_554 S
C53 O54 1.232 . S
O54 C53 1.232 . S
C55 O47 1.260 . S
C55 O48 1.257 . S
Zn56 O59 2.031 . S
Zn56 O61 2.049 . S
Zn56 O66 2.067 . S
Zn57 O58 1.962 . S
Zn57 O60 1.986 . S
Zn57 O62 1.996 . S
Zn57 O65 1.943 . S
O58 Zn57 1.962 . S
O58 C63 1.254 . S
O59 Zn56 2.031 . S
O59 C63 1.269 . S
O60 Zn57 1.986 . S
O60 C67 1.262 . S
O61 Zn56 2.049 . S
O61 C69 1.260 . S
O62 Zn57 1.996 . S
O62 C69 1.257 . S
C63 O58 1.254 . S
C63 O59 1.269 . S
C64 O65 1.249 . S
C64 O66 1.270 . S
O65 Zn57 1.943 . S
O65 C64 1.249 . S
O66 Zn56 2.067 . S
O66 C64 1.270 . S
C67 O60 1.262 . S
C67 O68 1.232 . S
O68 C67 1.232 . S
C69 O61 1.260 . S
C69 O62 1.257 . S
Zn70 O73 2.031 . S
Zn70 O75 2.049 . S
Zn70 O80 2.067 . S
Zn71 O72 1.962 . S
Zn71 O74 1.986 . S
Zn71 O76 1.996 . S
Zn71 O79 1.943 . S
O72 Zn71 1.962 . S
O72 C77 1.254 . S
O73 Zn70 2.031 . S
O73 C77 1.269 . S
O74 Zn71 1.986 . S
O74 C81 1.262 . S
O75 Zn70 2.049 . S
O75 C83 1.260 . S
O76 Zn71 1.996 . S
O76 C83 1.257 . S
C77 O72 1.254 . S
C77 O73 1.269 . S
C78 O79 1.249 . S
C78 O80 1.270 . S
O79 Zn71 1.943 . S
O79 C78 1.249 . S
O80 Zn70 2.067 . S
O80 C78 1.270 . S
C81 O74 1.262 . S
C81 O82 1.232 . S
O82 C81 1.232 . S
C83 O75 1.260 . S
C83 O76 1.257 . S
Zn84 O87 2.031 . S
Zn84 O89 2.049 . S
Zn84 O94 2.067 . S
Zn85 O86 1.962 . S
Zn85 O88 1.986 . S
Zn85 O90 1.996 . S
Zn85 O93 1.943 . S
O86 Zn85 1.962 . S
O86 C91 1.254 . S
O87 Zn84 2.031 . S
O87 C91 1.269 . S
O88 Zn85 1.986 . S
O88 C95 1.262 . S
O89 Zn84 2.049 . S
O89 C97 1.260 . S
O90 Zn85 1.996 . S
O90 C97 1.257 . S
C91 O86 1.254 . S
C91 O87 1.269 . S
C92 O93 1.249 . S
C92 O94 1.270 . S
O93 Zn85 1.943 . S
O93 C92 1.249 . S
O94 Zn84 2.067 . S
O94 C92 1.270 . S
C95 O88 1.262 . S
C95 O96 1.232 . S
O96 C95 1.232 . S
C97 O89 1.260 . S
C97 O90 1.257 . S
Zn98 O101 2.031 1_655 S
Zn98 O103 2.049 1_556 S
Zn98 O108 2.067 . S
Zn99 O100 1.961 . S
Zn99 O102 1.986 1_456 S
Zn99 O104 1.996 1_456 S
Zn99 O107 1.943 1_455 S
O100 Zn99 1.961 . S
O100 C105 1.254 . S
O101 Zn98 2.031 1_455 S
O101 C105 1.269 . S
O102 Zn99 1.986 1_654 S
O102 C109 1.262 1_554 S
O103 Zn98 2.049 1_554 S
O103 C111 1.260 . S
O104 Zn99 1.996 1_654 S
O104 C111 1.257 . S
C105 O100 1.254 . S
C105 O101 1.269 . S
C106 O107 1.249 . S
C106 O108 1.270 . S
O107 Zn99 1.943 1_655 S
O107 C106 1.249 . S
O108 Zn98 2.067 . S
O108 C106 1.270 . S
C109 O102 1.262 1_556 S
C109 O110 1.232 1_655 S
O110 C109 1.232 1_455 S
C111 O103 1.260 . S
C111 O104 1.257 . S
Zn112 O115 2.031 . S
Zn112 O117 2.049 . S
Zn112 O122 2.067 . S
Zn113 O114 1.962 . S
Zn113 O116 1.986 . S
Zn113 O118 1.996 . S
Zn113 O121 1.943 . S
O114 Zn113 1.962 . S
O114 C119 1.254 . S
O115 Zn112 2.031 . S
O115 C119 1.269 . S
O116 Zn113 1.986 . S
O116 C123 1.262 . S
O117 Zn112 2.049 . S
O117 C125 1.260 . S
O118 Zn113 1.996 . S
O118 C125 1.257 . S
C119 O114 1.254 . S
C119 O115 1.269 . S
C120 O121 1.249 . S
C120 O122 1.270 . S
O121 Zn113 1.943 . S
O121 C120 1.249 . S
O122 Zn112 2.067 . S
O122 C120 1.270 . S
C123 O116 1.262 . S
C123 O124 1.232 . S
O124 C123 1.232 . S
C125 O117 1.260 . S
C125 O118 1.257 . S
Zn126 O129 2.031 1_455 S
Zn126 O131 2.049 . S
Zn126 O136 2.067 . S
Zn127 O128 1.962 . S
Zn127 O130 1.986 1_655 S
Zn127 O132 1.996 1_655 S
Zn127 O135 1.943 1_655 S
O128 Zn127 1.962 . S
O128 C133 1.254 . S
O129 Zn126 2.031 1_655 S
O129 C133 1.269 . S
O130 Zn127 1.986 1_455 S
O130 C137 1.262 . S
O131 Zn126 2.049 . S
O131 C139 1.260 . S
O132 Zn127 1.996 1_455 S
O132 C139 1.257 . S
C133 O128 1.254 . S
C133 O129 1.269 . S
C134 O135 1.249 . S
C134 O136 1.270 . S
O135 Zn127 1.943 1_455 S
O135 C134 1.249 . S
O136 Zn126 2.067 . S
O136 C134 1.270 . S
C137 O130 1.262 . S
C137 O138 1.232 1_455 S
O138 C137 1.232 1_655 S
C139 O131 1.260 . S
C139 O132 1.257 . S
Zn140 O143 2.031 . S
Zn140 O145 2.049 . S
Zn140 O150 2.067 . S
Zn141 O142 1.962 . S
Zn141 O144 1.986 . S
Zn141 O146 1.996 . S
Zn141 O149 1.943 . S
O142 Zn141 1.962 . S
O142 C147 1.254 . S
O143 Zn140 2.031 . S
O143 C147 1.269 . S
O144 Zn141 1.986 . S
O144 C151 1.262 . S
O145 Zn140 2.049 . S
O145 C153 1.260 . S
O146 Zn141 1.996 . S
O146 C153 1.257 . S
C147 O142 1.254 . S
C147 O143 1.269 . S
C148 O149 1.249 . S
C148 O150 1.270 . S
O149 Zn141 1.943 . S
O149 C148 1.249 . S
O150 Zn140 2.067 . S
O150 C148 1.270 . S
C151 O144 1.262 . S
C151 O152 1.232 . S
O152 C151 1.232 . S
C153 O145 1.260 . S
C153 O146 1.257 . S
Zn154 O157 2.031 . S
Zn154 O159 2.049 1_556 S
Zn154 O164 2.067 . S
Zn155 O156 1.962 . S
Zn155 O158 1.986 1_556 S
Zn155 O160 1.996 1_556 S
Zn155 O163 1.943 . S
O156 Zn155 1.962 . S
O156 C161 1.254 . S
O157 Zn154 2.031 . S
O157 C161 1.269 . S
O158 Zn155 1.986 1_554 S
O158 C165 1.262 1_554 S
O159 Zn154 2.049 1_554 S
O159 C167 1.260 . S
O160 Zn155 1.996 1_554 S
O160 C167 1.257 . S
C161 O156 1.254 . S
C161 O157 1.269 . S
C162 O163 1.249 . S
C162 O164 1.270 . S
O163 Zn155 1.943 . S
O163 C162 1.249 . S
O164 Zn154 2.067 . S
O164 C162 1.270 . S
C165 O158 1.262 1_556 S
C165 O166 1.232 . S
O166 C165 1.232 . S
C167 O159 1.260 . S
C167 O160 1.257 . S
Zn168 O171 2.031 . S
Zn168 O173 2.049 . S
Zn168 O178 2.067 . S
Zn169 O170 1.962 . S
Zn169 O172 1.986 . S
Zn169 O174 1.996 . S
Zn169 O177 1.943 . S
O170 Zn169 1.962 . S
O170 C175 1.254 . S
O171 Zn168 2.031 . S
O171 C175 1.269 . S
O172 Zn169 1.986 . S
O172 C179 1.262 . S
O173 Zn168 2.049 . S
O173 C181 1.260 . S
O174 Zn169 1.996 . S
O174 C181 1.257 . S
C175 O170 1.254 . S
C175 O171 1.269 . S
C176 O177 1.249 . S
C176 O178 1.270 . S
O177 Zn169 1.943 . S
O177 C176 1.249 . S
O178 Zn168 2.067 . S
O178 C176 1.270 . S
C179 O172 1.262 . S
C179 O180 1.232 . S
O180 C179 1.232 . S
C181 O173 1.260 . S
C181 O174 1.257 . S
Zn182 O185 2.031 . S
Zn182 O187 2.049 . S
Zn182 O192 2.067 . S
Zn183 O184 1.962 . S
Zn183 O186 1.986 . S
Zn183 O188 1.996 . S
Zn183 O191 1.943 . S
O184 Zn183 1.962 . S
O184 C189 1.254 . S
O185 Zn182 2.031 . S
O185 C189 1.269 . S
O186 Zn183 1.986 . S
O186 C193 1.262 . S
O187 Zn182 2.049 . S
O187 C195 1.260 . S
O188 Zn183 1.996 . S
O188 C195 1.257 . S
C189 O184 1.254 . S
C189 O185 1.269 . S
C190 O191 1.249 . S
C190 O192 1.270 . S
O191 Zn183 1.943 . S
O191 C190 1.249 . S
O192 Zn182 2.067 . S
O192 C190 1.270 . S
C193 O186 1.262 . S
C193 O194 1.232 . S
O194 C193 1.232 . S
C195 O187 1.260 . S
C195 O188 1.257 . S
Zn196 O199 2.031 . S
Zn196 O201 2.049 . S
Zn196 O206 2.067 . S
Zn197 O198 1.962 . S
Zn197 O200 1.986 . S
Zn197 O202 1.996 . S
Zn197 O205 1.943 . S
O198 Zn197 1.962 . S
O198 C203 1.254 . S
O199 Zn196 2.031 . S
O199 C203 1.269 . S
O200 Zn197 1.986 . S
O200 C207 1.262 . S
O201 Zn196 2.049 . S
O201 C209 1.260 . S
O202 Zn197 1.996 . S
O202 C209 1.257 . S
C203 O198 1.254 . S
C203 O199 1.269 . S
C204 O205 1.249 . S
C204 O206 1.270 . S
O205 Zn197 1.943 . S
O205 C204 1.249 . S
O206 Zn196 2.067 . S
O206 C204 1.270 . S
C207 O200 1.262 . S
C207 O208 1.232 . S
O208 C207 1.232 . S
C209 O201 1.260 . S
C209 O202 1.257 . S
Zn210 O213 2.031 1_455 S
Zn210 O215 2.049 1_554 S
Zn210 O220 2.067 . S
Zn211 O212 1.961 . S
Zn211 O214 1.986 1_654 S
Zn211 O216 1.996 1_654 S
Zn211 O219 1.943 1_655 S
O212 Zn211 1.961 . S
O212 C217 1.254 . S
O213 Zn210 2.031 1_655 S
O213 C217 1.269 . S
O214 Zn211 1.986 1_456 S
O214 C221 1.262 1_556 S
O215 Zn210 2.049 1_556 S
O215 C223 1.260 . S
O216 Zn211 1.996 1_456 S
O216 C223 1.257 . S
C217 O212 1.254 . S
C217 O213 1.269 . S
C218 O219 1.249 . S
C218 O220 1.270 . S
O219 Zn211 1.943 1_455 S
O219 C218 1.249 . S
O220 Zn210 2.067 . S
O220 C218 1.270 . S
C221 O214 1.262 1_554 S
C221 O222 1.232 1_455 S
O222 C221 1.232 1_655 S
C223 O215 1.260 . S
C223 O216 1.257 . S
Zn224 O227 2.031 . S
Zn224 O229 2.049 . S
Zn224 O234 2.067 . S
Zn225 O226 1.962 . S
Zn225 O228 1.986 . S
Zn225 O230 1.996 . S
Zn225 O233 1.943 . S
O226 Zn225 1.962 . S
O226 C231 1.254 . S
O227 Zn224 2.031 . S
O227 C231 1.269 . S
O228 Zn225 1.986 . S
O228 C235 1.262 . S
O229 Zn224 2.049 . S
O229 C237 1.260 . S
O230 Zn225 1.996 . S
O230 C237 1.257 . S
C231 O226 1.254 . S
C231 O227 1.269 . S
C232 O233 1.249 . S
C232 O234 1.270 . S
O233 Zn225 1.943 . S
O233 C232 1.249 . S
O234 Zn224 2.067 . S
O234 C232 1.270 . S
C235 O228 1.262 . S
C235 O236 1.232 . S
O236 C235 1.232 . S
C237 O229 1.260 . S
C237 O230 1.257 . S
Zn238 O241 2.031 . S
Zn238 O243 2.049 1_554 S
Zn238 O248 2.067 . S
Zn239 O240 1.962 . S
Zn239 O242 1.986 1_554 S
Zn239 O244 1.996 1_554 S
Zn239 O247 1.943 . S
O240 Zn239 1.962 . S
O240 C245 1.254 . S
O241 Zn238 2.031 . S
O241 C245 1.269 . S
O242 Zn239 1.986 1_556 S
O242 C249 1.262 1_556 S
O243 Zn238 2.049 1_556 S
O243 C251 1.260 . S
O244 Zn239 1.996 1_556 S
O244 C251 1.257 . S
C245 O240 1.254 . S
C245 O241 1.269 . S
C246 O247 1.249 . S
C246 O248 1.270 . S
O247 Zn239 1.943 . S
O247 C246 1.249 . S
O248 Zn238 2.067 . S
O248 C246 1.270 . S
C249 O242 1.262 1_554 S
C249 O250 1.232 . S
O250 C249 1.232 . S
C251 O243 1.260 . S
C251 O244 1.257 . S
Zn252 O255 2.031 . S
Zn252 O257 2.049 . S
Zn252 O262 2.067 . S
Zn253 O254 1.962 . S
Zn253 O256 1.986 . S
Zn253 O258 1.996 . S
Zn253 O261 1.943 . S
O254 Zn253 1.962 . S
O254 C259 1.254 . S
O255 Zn252 2.031 . S
O255 C259 1.269 . S
O256 Zn253 1.986 . S
O256 C263 1.262 . S
O257 Zn252 2.049 . S
O257 C265 1.260 . S
O258 Zn253 1.996 . S
O258 C265 1.257 . S
C259 O254 1.254 . S
C259 O255 1.269 . S
C260 O261 1.249 . S
C260 O262 1.270 . S
O261 Zn253 1.943 . S
O261 C260 1.249 . S
O262 Zn252 2.067 . S
O262 C260 1.270 . S
C263 O256 1.262 . S
C263 O264 1.232 . S
O264 C263 1.232 . S
C265 O257 1.260 . S
C265 O258 1.257 . S
Zn266 O269 2.031 1_455 S
Zn266 O271 2.049 . S
Zn266 O276 2.067 . S
Zn267 O268 1.962 . S
Zn267 O270 1.986 1_655 S
Zn267 O272 1.996 1_655 S
Zn267 O275 1.943 1_655 S
O268 Zn267 1.962 . S
O268 C273 1.254 . S
O269 Zn266 2.031 1_655 S
O269 C273 1.269 . S
O270 Zn267 1.986 1_455 S
O270 C277 1.262 . S
O271 Zn266 2.049 . S
O271 C279 1.260 . S
O272 Zn267 1.996 1_455 S
O272 C279 1.257 . S
C273 O268 1.254 . S
C273 O269 1.269 . S
C274 O275 1.249 . S
C274 O276 1.270 . S
O275 Zn267 1.943 1_455 S
O275 C274 1.249 . S
O276 Zn266 2.067 . S
O276 C274 1.270 . S
C277 O270 1.262 . S
C277 O278 1.232 1_455 S
O278 C277 1.232 1_655 S
C279 O271 1.260 . S
C279 O272 1.257 . S
Zn280 O283 2.031 . S
Zn280 O285 2.049 . S
Zn280 O290 2.067 . S
Zn281 O282 1.962 . S
Zn281 O284 1.986 . S
Zn281 O286 1.996 . S
Zn281 O289 1.943 . S
O282 Zn281 1.962 . S
O282 C287 1.254 . S
O283 Zn280 2.031 . S
O283 C287 1.269 . S
O284 Zn281 1.986 . S
O284 C291 1.262 . S
O285 Zn280 2.049 . S
O285 C293 1.260 . S
O286 Zn281 1.996 . S
O286 C293 1.257 . S
C287 O282 1.254 . S
C287 O283 1.269 . S
C288 O289 1.249 . S
C288 O290 1.270 . S
O289 Zn281 1.943 . S
O289 C288 1.249 . S
O290 Zn280 2.067 . S
O290 C288 1.270 . S
C291 O284 1.262 . S
C291 O292 1.232 . S
O292 C291 1.232 . S
C293 O285 1.260 . S
C293 O286 1.257 . S
Zn294 O297 2.031 1_455 S
Zn294 O299 2.049 1_556 S
Zn294 O304 2.067 . S
Zn295 O296 1.961 . S
Zn295 O298 1.986 1_656 S
Zn295 O300 1.996 1_656 S
Zn295 O303 1.943 1_655 S
O296 Zn295 1.961 . S
O296 C301 1.254 . S
O297 Zn294 2.031 1_655 S
O297 C301 1.269 . S
O298 Zn295 1.986 1_454 S
O298 C305 1.262 1_554 S
O299 Zn294 2.049 1_554 S
O299 C307 1.260 . S
O300 Zn295 1.996 1_454 S
O300 C307 1.257 . S
C301 O296 1.254 . S
C301 O297 1.269 . S
C302 O303 1.249 . S
C302 O304 1.270 . S
O303 Zn295 1.943 1_455 S
O303 C302 1.249 . S
O304 Zn294 2.067 . S
O304 C302 1.270 . S
C305 O298 1.262 1_556 S
C305 O306 1.232 1_455 S
O306 C305 1.232 1_655 S
C307 O299 1.260 . S
C307 O300 1.257 . S
Zn308 O311 2.031 . S
Zn308 O313 2.049 . S
Zn308 O318 2.067 . S
Zn309 O310 1.962 . S
Zn309 O312 1.986 . S
Zn309 O314 1.996 . S
Zn309 O317 1.943 . S
O310 Zn309 1.962 . S
O310 C315 1.254 . S
O311 Zn308 2.031 . S
O311 C315 1.269 . S
O312 Zn309 1.986 . S
O312 C319 1.262 . S
O313 Zn308 2.049 . S
O313 C321 1.260 . S
O314 Zn309 1.996 . S
O314 C321 1.257 . S
C315 O310 1.254 . S
C315 O311 1.269 . S
C316 O317 1.249 . S
C316 O318 1.270 . S
O317 Zn309 1.943 . S
O317 C316 1.249 . S
O318 Zn308 2.067 . S
O318 C316 1.270 . S
C319 O312 1.262 . S
C319 O320 1.232 . S
O320 C319 1.232 . S
C321 O313 1.260 . S
C321 O314 1.257 . S
Zn322 O325 2.031 . S
Zn322 O327 2.049 . S
Zn322 O332 2.067 . S
Zn323 O324 1.962 . S
Zn323 O326 1.986 . S
Zn323 O328 1.996 . S
Zn323 O331 1.943 . S
O324 Zn323 1.962 . S
O324 C329 1.254 . S
O325 Zn322 2.031 . S
O325 C329 1.269 . S
O326 Zn323 1.986 . S
O326 C333 1.262 . S
O327 Zn322 2.049 . S
O327 C335 1.260 . S
O328 Zn323 1.996 . S
O328 C335 1.257 . S
C329 O324 1.254 . S
C329 O325 1.269 . S
C330 O331 1.249 . S
C330 O332 1.270 . S
O331 Zn323 1.943 . S
O331 C330 1.249 . S
O332 Zn322 2.067 . S
O332 C330 1.270 . S
C333 O326 1.262 . S
C333 O334 1.232 . S
O334 C333 1.232 . S
C335 O327 1.260 . S
C335 O328 1.257 . S
Zn336 O339 2.031 . S
Zn336 O341 2.049 . S
Zn336 O346 2.067 . S
Zn337 O338 1.962 . S
Zn337 O340 1.986 . S
Zn337 O342 1.996 . S
Zn337 O345 1.943 . S
O338 Zn337 1.962 . S
O338 C343 1.254 . S
O339 Zn336 2.031 . S
O339 C343 1.269 . S
O340 Zn337 1.986 . S
O340 C347 1.262 . S
O341 Zn336 2.049 . S
O341 C349 1.260 . S
O342 Zn337 1.996 . S
O342 C349 1.257 . S
C343 O338 1.254 . S
C343 O339 1.269 . S
C344 O345 1.249 . S
C344 O346 1.270 . S
O345 Zn337 1.943 . S
O345 C344 1.249 . S
O346 Zn336 2.067 . S
O346 C344 1.270 . S
C347 O340 1.262 . S
C347 O348 1.232 . S
O348 C347 1.232 . S
C349 O341 1.260 . S
C349 O342 1.257 . S
Zn350 O353 2.031 . S
Zn350 O355 2.049 1_556 S
Zn350 O360 2.067 . S
Zn351 O352 1.962 . S
Zn351 O354 1.986 1_556 S
Zn351 O356 1.996 1_556 S
Zn351 O359 1.943 . S
O352 Zn351 1.962 . S
O352 C357 1.254 . S
O353 Zn350 2.031 . S
O353 C357 1.269 . S
O354 Zn351 1.986 1_554 S
O354 C361 1.262 1_554 S
O355 Zn350 2.049 1_554 S
O355 C363 1.260 . S
O356 Zn351 1.996 1_554 S
O356 C363 1.257 . S
C357 O352 1.254 . S
C357 O353 1.269 . S
C358 O359 1.249 . S
C358 O360 1.270 . S
O359 Zn351 1.943 . S
O359 C358 1.249 . S
O360 Zn350 2.067 . S
O360 C358 1.270 . S
C361 O354 1.262 1_556 S
C361 O362 1.232 . S
O362 C361 1.232 . S
C363 O355 1.260 . S
C363 O356 1.257 . S
Zn364 O367 2.031 . S
Zn364 O369 2.049 . S
Zn364 O374 2.067 . S
Zn365 O366 1.962 . S
Zn365 O368 1.986 . S
Zn365 O370 1.996 . S
Zn365 O373 1.943 . S
O366 Zn365 1.962 . S
O366 C371 1.254 . S
O367 Zn364 2.031 . S
O367 C371 1.269 . S
O368 Zn365 1.986 . S
O368 C375 1.262 . S
O369 Zn364 2.049 . S
O369 C377 1.260 . S
O370 Zn365 1.996 . S
O370 C377 1.257 . S
C371 O366 1.254 . S
C371 O367 1.269 . S
C372 O373 1.249 . S
C372 O374 1.270 . S
O373 Zn365 1.943 . S
O373 C372 1.249 . S
O374 Zn364 2.067 . S
O374 C372 1.270 . S
C375 O368 1.262 . S
C375 O376 1.232 . S
O376 C375 1.232 . S
C377 O369 1.260 . S
C377 O370 1.257 . S
Zn378 O381 2.031 1_655 S
Zn378 O383 2.049 . S
Zn378 O388 2.067 . S
Zn379 O380 1.962 . S
Zn379 O382 1.986 1_455 S
Zn379 O384 1.996 1_455 S
Zn379 O387 1.943 1_455 S
O380 Zn379 1.962 . S
O380 C385 1.254 . S
O381 Zn378 2.031 1_455 S
O381 C385 1.269 . S
O382 Zn379 1.986 1_655 S
O382 C389 1.262 . S
O383 Zn378 2.049 . S
O383 C391 1.260 . S
O384 Zn379 1.996 1_655 S
O384 C391 1.257 . S
C385 O380 1.254 . S
C385 O381 1.269 . S
C386 O387 1.249 . S
C386 O388 1.270 . S
O387 Zn379 1.943 1_655 S
O387 C386 1.249 . S
O388 Zn378 2.067 . S
O388 C386 1.270 . S
C389 O382 1.262 . S
C389 O390 1.232 1_655 S
O390 C389 1.232 1_455 S
C391 O383 1.260 . S
C391 O384 1.257 . S
Zn392 O395 2.031 . S
Zn392 O397 2.049 . S
Zn392 O402 2.067 . S
Zn393 O394 1.962 . S
Zn393 O396 1.986 . S
Zn393 O398 1.996 . S
Zn393 O401 1.943 . S
O394 Zn393 1.962 . S
O394 C399 1.254 . S
O395 Zn392 2.031 . S
O395 C399 1.269 . S
O396 Zn393 1.986 . S
O396 C403 1.262 . S
O397 Zn392 2.049 . S
O397 C405 1.260 . S
O398 Zn393 1.996 . S
O398 C405 1.257 . S
C399 O394 1.254 . S
C399 O395 1.269 . S
C400 O401 1.249 . S
C400 O402 1.270 . S
O401 Zn393 1.943 . S
O401 C400 1.249 . S
O402 Zn392 2.067 . S
O402 C400 1.270 . S
C403 O396 1.262 . S
C403 O404 1.232 . S
O404 C403 1.232 . S
C405 O397 1.260 . S
C405 O398 1.257 . S
Zn406 O409 2.031 1_655 S
Zn406 O411 2.049 1_554 S
Zn406 O416 2.067 . S
Zn407 O408 1.961 . S
Zn407 O410 1.986 1_454 S
Zn407 O412 1.996 1_454 S
Zn407 O415 1.943 1_455 S
O408 Zn407 1.961 . S
O408 C413 1.254 . S
O409 Zn406 2.031 1_455 S
O409 C413 1.269 . S
O410 Zn407 1.986 1_656 S
O410 C417 1.262 1_556 S
O411 Zn406 2.049 1_556 S
O411 C419 1.260 . S
O412 Zn407 1.996 1_656 S
O412 C419 1.257 . S
C413 O408 1.254 . S
C413 O409 1.269 . S
C414 O415 1.249 . S
C414 O416 1.270 . S
O415 Zn407 1.943 1_655 S
O415 C414 1.249 . S
O416 Zn406 2.067 . S
O416 C414 1.270 . S
C417 O410 1.262 1_554 S
C417 O418 1.232 1_655 S
O418 C417 1.232 1_455 S
C419 O411 1.260 . S
C419 O412 1.257 . S
Zn420 O423 2.031 . S
Zn420 O425 2.049 . S
Zn420 O430 2.067 . S
Zn421 O422 1.962 . S
Zn421 O424 1.986 . S
Zn421 O426 1.996 . S
Zn421 O429 1.943 . S
O422 Zn421 1.962 . S
O422 C427 1.254 . S
O423 Zn420 2.031 . S
O423 C427 1.269 . S
O424 Zn421 1.986 . S
O424 C431 1.262 . S
O425 Zn420 2.049 . S
O425 C433 1.260 . S
O426 Zn421 1.996 . S
O426 C433 1.257 . S
C427 O422 1.254 . S
C427 O423 1.269 . S
C428 O429 1.249 . S
C428 O430 1.270 . S
O429 Zn421 1.943 . S
O429 C428 1.249 . S
O430 Zn420 2.067 . S
O430 C428 1.270 . S
C431 O424 1.262 . S
C431 O432 1.232 . S
O432 C431 1.232 . S
C433 O425 1.260 . S
C433 O426 1.257 . S
Zn434 O437 2.031 . S
Zn434 O439 2.049 . S
Zn434 O444 2.067 . S
Zn435 O436 1.962 . S
Zn435 O438 1.986 . S
Zn435 O440 1.996 . S
Zn435 O443 1.943 . S
O436 Zn435 1.962 . S
O436 C441 1.254 . S
O437 Zn434 2.031 . S
O437 C441 1.269 . S
O438 Zn435 1.986 . S
O438 C445 1.262 . S
O439 Zn434 2.049 . S
O439 C447 1.260 . S
O440 Zn435 1.996 . S
O440 C447 1.257 . S
C441 O436 1.254 . S
C441 O437 1.269 . S
C442 O443 1.249 . S
C442 O444 1.270 . S
O443 Zn435 1.943 . S
O443 C442 1.249 . S
O444 Zn434 2.067 . S
O444 C442 1.270 . S
C445 O438 1.262 . S
C445 O446 1.232 . S
O446 C445 1.232 . S
C447 O439 1.260 . S
C447 O440 1.257 . S
C134 C7 1.403 . S
C21 C372 1.403 . S
C162 C35 1.403 . S
C344 C49 1.403 . S
C63 C218 1.403 . S
C400 C77 1.403 . S
C91 C190 1.403 . S
C428 C105 1.403 . S
C22 C119 1.403 . S
C133 C260 1.403 . S
C50 C147 1.403 . S
C161 C232 1.403 . S
C175 C106 1.403 . S
C288 C189 1.403 . S
C203 C78 1.403 . S
C316 C217 1.403 . S
C358 C231 1.403 . S
C148 C245 1.403 . S
C259 C386 1.403 . S
C120 C273 1.403 . S
C442 C287 1.403 . S
C301 C176 1.403 . S
C414 C315 1.403 . S
C204 C329 1.403 . S
C246 C343 1.403 . S
C357 C36 1.403 . S
C371 C274 1.403 . S
C385 C8 1.403 . S
C330 C399 1.403 . S
C413 C64 1.403 . S
C427 C302 1.403 . S
C441 C92 1.403 . S
C347 C11 1.373 . S
C25 C137 1.373 1_665 S
C39 C375 1.373 . S
C53 C165 1.373 1_544 S
C67 C403 1.373 . S
C81 C193 1.373 1_565 S
C431 C95 1.373 . S
C109 C221 1.373 1_646 S
C123 C235 1.373 . S
C151 C263 1.373 . S
C291 C179 1.373 . S
C319 C207 1.373 . S
C249 C361 1.373 1_554 S
C389 C277 1.373 1_655 S
C305 C417 1.373 1_456 S
C445 C333 1.373 . S
C307 C13 1.200 . S
C321 C27 1.200 . S
C41 C335 1.200 . S
C293 C55 1.200 . S
C279 C69 1.200 . S
C237 C83 1.200 . S
C97 C251 1.200 . S
C265 C111 1.200 . S
C419 C125 1.200 . S
C433 C139 1.200 . S
C447 C153 1.200 . S
C167 C405 1.200 . S
C391 C181 1.200 . S
C349 C195 1.200 . S
C363 C209 1.200 . S
C377 C223 1.200 . S
