# Generated by pormake.
# Topology vby, (6)-cn, num edge types: 1
# Building blocks:
#     Node 0, Type 0, BuildingBlock: LEVNOQ01_clean_sbu_1, # of connection points: 6
#     Node 1, Type 0, BuildingBlock: LEVNOQ01_clean_sbu_1, # of connection points: 6
#     Node 2, Type 0, BuildingBlock: LEVNOQ01_clean_sbu_1, # of connection points: 6
#     Node 3, Type 0, BuildingBlock: LEVNOQ01_clean_sbu_1, # of connection points: 6
#     Node 4, Type 0, BuildingBlock: LEVNOQ01_clean_sbu_1, # of connection points: 6
#     Node 5, Type 0, BuildingBlock: LEVNOQ01_clean_sbu_1, # of connection points: 6
#     Node 6, Type 0, BuildingBlock: LEVNOQ01_clean_sbu_1, # of connection points: 6
#     Node 7, Type 0, BuildingBlock: LEVNOQ01_clean_sbu_1, # of connection points: 6
#     Edge 8, Type (0, 0), BuildingBlock: CIFDUS_clean_linker_0, # of connection points: 2
#     Edge 9, Type (0, 0), BuildingBlock: CIFDUS_clean_linker_0, # of connection points: 2
#     Edge 10, Type (0, 0), BuildingBlock: CIFDUS_clean_linker_0, # of connection points: 2
#     Edge 11, Type (0, 0), BuildingBlock: CIFDUS_clean_linker_0, # of connection points: 2
#     Edge 12, Type (0, 0), BuildingBlock: CIFDUS_clean_linker_0, # of connection points: 2
#     Edge 13, Type (0, 0), BuildingBlock: CIFDUS_clean_linker_0, # of connection points: 2
#     Edge 14, Type (0, 0), BuildingBlock: CIFDUS_clean_linker_0, # of connection points: 2
#     Edge 15, Type (0, 0), BuildingBlock: CIFDUS_clean_linker_0, # of connection points: 2
#     Edge 16, Type (0, 0), BuildingBlock: CIFDUS_clean_linker_0, # of connection points: 2
#     Edge 17, Type (0, 0), BuildingBlock: CIFDUS_clean_linker_0, # of connection points: 2
#     Edge 18, Type (0, 0), BuildingBlock: CIFDUS_clean_linker_0, # of connection points: 2
#     Edge 19, Type (0, 0), BuildingBlock: CIFDUS_clean_linker_0, # of connection points: 2
#     Edge 20, Type (0, 0), BuildingBlock: CIFDUS_clean_linker_0, # of connection points: 2
#     Edge 21, Type (0, 0), BuildingBlock: CIFDUS_clean_linker_0, # of connection points: 2
#     Edge 22, Type (0, 0), BuildingBlock: CIFDUS_clean_linker_0, # of connection points: 2
#     Edge 23, Type (0, 0), BuildingBlock: CIFDUS_clean_linker_0, # of connection points: 2
#     Edge 24, Type (0, 0), BuildingBlock: CIFDUS_clean_linker_0, # of connection points: 2
#     Edge 25, Type (0, 0), BuildingBlock: CIFDUS_clean_linker_0, # of connection points: 2
#     Edge 26, Type (0, 0), BuildingBlock: CIFDUS_clean_linker_0, # of connection points: 2
#     Edge 27, Type (0, 0), BuildingBlock: CIFDUS_clean_linker_0, # of connection points: 2
#     Edge 28, Type (0, 0), BuildingBlock: CIFDUS_clean_linker_0, # of connection points: 2
#     Edge 29, Type (0, 0), BuildingBlock: CIFDUS_clean_linker_0, # of connection points: 2
#     Edge 30, Type (0, 0), BuildingBlock: CIFDUS_clean_linker_0, # of connection points: 2
#     Edge 31, Type (0, 0), BuildingBlock: CIFDUS_clean_linker_0, # of connection points: 2
# Relax obj value: 0.085
# Max RMSD: 0.124
# Mean RMSD: 0.124
data_MOF--net-vby--node1-LEVNOQ01_clean_sbu_1--edge1-CIFDUS_clean_linker_0
_symmetry_space_group_name_H-M    P1
_symmetry_Int_Tables_number       1
_symmetry_cell_setting            triclinic
loop_
_symmetry_equiv_pos_as_xyz
'x, y, z'
_cell_length_a     14.03789
_cell_length_b     54.175389
_cell_length_c     27.371665
_cell_angle_alpha  90.019494
_cell_angle_beta   90.030403
_cell_angle_gamma 90.015034
loop_
_atom_site_label
_atom_site_type_symbol
_atom_site_fract_x
_atom_site_fract_y
_atom_site_fract_z
_atom_type_partial_charge
O0 O 0.89521 0.36322 0.91828 0.0
Mg1 Mg 0.00464 0.38881 0.92557 0.0
O2 O 0.93485 0.36219 -0.00417 0.0
Mg3 Mg 0.10368 0.37052 -0.00086 0.0
O4 O 0.13302 0.37224 0.9137 0.0
O5 O 0.06406 0.3989 0.86182 0.0
O6 O 0.2675 0.37588 0.00765 0.0
O7 O 0.12996 0.32894 0.9768 0.0
Mg8 Mg 0.14017 0.33814 0.06135 0.0
O9 O 0.0827 0.37051 0.08593 0.0
O10 O 0.28664 0.3389 0.03965 0.0
O11 O 0.04946 0.31008 0.03296 0.0
O12 O 0.14036 0.34036 0.13443 0.0
C13 C 0.01753 0.42721 0.00045 0.0
C14 C 0.87457 0.35769 0.96173 0.0
C15 C 0.12614 0.38191 0.87031 0.0
C16 C 0.32192 0.3584 0.02173 0.0
C17 C 0.09156 0.30922 -0.00767 0.0
C18 C 0.10195 0.36181 0.12919 0.0
O19 O 0.96803 0.42068 0.96435 0.0
O20 O 0.08274 0.41293 0.01614 0.0
O21 O 0.10019 0.59377 0.00225 0.0
Mg22 Mg 0.97106 0.59575 0.96038 0.0
O23 O 0.06366 0.63073 0.02758 0.0
Mg24 Mg 0.90835 0.62482 0.01146 0.0
O25 O 0.94015 0.6272 0.92408 0.0
O26 O 0.02244 0.59545 0.89219 0.0
O27 O 0.74856 0.62091 -0.00287 0.0
O28 O 0.89224 0.66725 -0.00315 0.0
Mg29 Mg 0.80885 0.65817 0.09386 0.0
O30 O 0.87973 0.62608 0.09204 0.0
O31 O 0.69189 0.65007 0.04706 0.0
O32 O 0.90717 0.68507 0.06859 0.0
O33 O 0.82382 0.64022 0.16162 0.0
C34 C 0.87588 0.56487 0.01025 0.0
C35 C 0.12502 0.61384 0.02221 0.0
C36 C 0.98703 0.61725 0.88797 0.0
C37 C 0.67989 0.63399 0.01358 0.0
C38 C 0.90586 0.6866 0.02247 0.0
C39 C 0.8711 0.62352 0.13849 0.0
O40 O 0.86041 0.56929 0.9659 0.0
O41 O 0.91553 0.58176 0.0353 0.0
O42 O 0.11089 0.68559 0.41541 0.0
Mg43 Mg 0.19357 0.65416 0.39734 0.0
O44 O 0.11568 0.66929 0.48852 0.0
Mg45 Mg 0.09296 0.62717 0.48258 0.0
O46 O 0.11725 0.6226 0.40041 0.0
O47 O 0.18201 0.63613 0.33135 0.0
O48 O 0.06255 0.58518 0.48267 0.0
O49 O 0.93437 0.63328 0.44949 0.0
Mg50 Mg 0.96934 0.63017 0.52945 0.0
O51 O 0.0837 0.63064 0.57279 0.0
O52 O 0.91843 0.59443 0.50738 0.0
O53 O 0.90836 0.66292 0.49964 0.0
O54 O 0.9324 0.63391 0.59904 0.0
C55 C 0.32671 0.63338 0.47702 0.0
C56 C 0.10965 0.6882 0.46135 0.0
C57 C 0.13083 0.61996 0.35395 0.0
C58 C 0.97684 0.57858 0.49111 0.0
C59 C 0.8796 0.65043 0.46387 0.0
C60 C 0.02232 0.6338 0.60807 0.0
O61 O 0.31444 0.64731 0.44026 0.0
O62 O 0.25724 0.62229 0.4983 0.0
O63 O 0.0809 0.39826 0.52668 0.0
Mg64 Mg 0.93524 0.39788 0.55194 0.0
O65 O 0.05137 0.36331 0.48969 0.0
Mg66 Mg 0.89744 0.37417 0.49915 0.0
O67 O 0.91095 0.36593 0.58763 0.0
O68 O 0.95967 0.40073 0.62398 0.0
O69 O 0.73999 0.38547 0.50927 0.0
O70 O 0.85204 0.33215 0.51218 0.0
Mg71 Mg 0.83171 0.35089 0.43483 0.0
O72 O 0.89558 0.38217 0.41237 0.0
O73 O 0.69575 0.35305 0.46713 0.0
O74 O 0.91572 0.31893 0.44557 0.0
O75 O 0.80766 0.3578 0.36353 0.0
C76 C 0.89586 0.43405 0.49708 0.0
C77 C 0.11071 0.37951 0.50362 0.0
C78 C 0.94459 0.37736 0.62572 0.0
C79 C 0.67441 0.37128 0.49377 0.0
C80 C 0.87399 0.31394 0.48512 0.0
C81 C 0.8603 0.37703 0.36958 0.0
O82 O 0.84928 0.42974 0.53557 0.0
O83 O 0.93815 0.41598 0.47731 0.0
O84 O 0.39362 0.89123 0.94413 0.0
Mg85 Mg 0.53822 0.88962 0.91902 0.0
O86 O 0.43061 0.85725 0.98136 0.0
Mg87 Mg 0.58685 0.86906 0.98535 0.0
O88 O 0.618 0.85959 0.90028 0.0
O89 O 0.51986 0.87985 0.84947 0.0
O90 O 0.74593 0.87959 -0.00738 0.0
O91 O 0.62708 0.82703 0.983 0.0
Mg92 Mg 0.65012 0.84672 0.07454 0.0
O93 O 0.55068 0.87416 0.06791 0.0
O94 O 0.79049 0.85695 0.05584 0.0
O95 O 0.60521 0.8109 0.05536 0.0
O96 O 0.60413 0.85952 0.13962 0.0
C97 C 0.58461 0.92978 0.96056 0.0
C98 C 0.36754 0.87242 0.9677 0.0
C99 C 0.58134 0.86272 0.85712 0.0
C100 C 0.81067 0.87153 0.02116 0.0
C101 C 0.62028 0.80811 0.01029 0.0
C102 C 0.54746 0.87371 0.11534 0.0
O103 O 0.61567 0.92247 0.91997 0.0
O104 O 0.55279 0.91347 0.99013 0.0
O105 O 0.58016 0.09999 0.97261 0.0
Mg106 Mg 0.4467 0.10291 0.93611 0.0
O107 O 0.54357 0.13484 0.00756 0.0
Mg108 Mg 0.3867 0.12688 -0.00272 0.0
O109 O 0.39349 0.13562 0.91122 0.0
O110 O 0.49064 0.1109 0.86827 0.0
O111 O 0.22834 0.1203 0.98937 0.0
O112 O 0.36119 0.16914 0.98629 0.0
Mg113 Mg 0.32022 0.15473 0.07036 0.0
O114 O 0.38405 0.12129 0.08186 0.0
O115 O 0.18589 0.15187 0.03547 0.0
O116 O 0.40696 0.18599 0.05436 0.0
O117 O 0.31427 0.14347 0.1411 0.0
C118 C 0.38008 0.06562 0.98015 0.0
C119 C 0.60499 0.11858 -0.00269 0.0
C120 C 0.44251 0.131 0.87206 0.0
C121 C 0.1644 0.13456 0.00623 0.0
C122 C 0.38575 0.18832 0.00981 0.0
C123 C 0.36197 0.12429 0.12752 0.0
O124 O 0.359 0.07145 0.93688 0.0
O125 O 0.40692 0.08283 0.00883 0.0
O126 O 0.57918 0.18819 0.43189 0.0
Mg127 Mg 0.66239 0.15917 0.40302 0.0
O128 O 0.60471 0.17036 0.5024 0.0
Mg129 Mg 0.58487 0.12806 0.48943 0.0
O130 O 0.58604 0.12769 0.40679 0.0
O131 O 0.63002 0.14382 0.33588 0.0
O132 O 0.57011 0.0851 0.47208 0.0
O133 O 0.42765 0.13391 0.48332 0.0
Mg134 Mg 0.52716 0.09842 0.55159 0.0
O135 O 0.5827 0.13133 0.57568 0.0
O136 O 0.62273 0.06884 0.53968 0.0
O137 O 0.39387 0.09757 0.51368 0.0
O138 O 0.49008 0.10606 0.62057 0.0
C139 C 0.81132 0.13468 0.47025 0.0
C140 C 0.58993 0.18988 0.47765 0.0
C141 C 0.5851 0.12692 0.35975 0.0
C142 C 0.60155 0.06636 0.49512 0.0
C143 C 0.36823 0.11681 0.49108 0.0
C144 C 0.53648 0.12643 0.61563 0.0
O145 O 0.79415 0.15055 0.43709 0.0
O146 O 0.74479 0.1233 0.49247 0.0
O147 O 0.55819 0.90261 0.50927 0.0
Mg148 Mg 0.41841 0.90381 0.54127 0.0
O149 O 0.52262 0.86639 0.47908 0.0
Mg150 Mg 0.36816 0.87717 0.4881 0.0
O151 O 0.38491 0.8719 0.5757 0.0
O152 O 0.45378 0.90448 0.61234 0.0
O153 O 0.21217 0.88787 0.49831 0.0
O154 O 0.32656 0.83552 0.50666 0.0
Mg155 Mg 0.30345 0.85067 0.42663 0.0
O156 O 0.35919 0.88227 0.40111 0.0
O157 O 0.1689 0.85349 0.46221 0.0
O158 O 0.40056 0.82182 0.44373 0.0
O159 O 0.28182 0.85481 0.35409 0.0
C160 C 0.36459 0.9372 0.48258 0.0
C161 C 0.5846 0.88262 0.48939 0.0
C162 C 0.42761 0.8817 0.61319 0.0
C163 C 0.14751 0.87249 0.48685 0.0
C164 C 0.35523 0.81704 0.48227 0.0
C165 C 0.32775 0.87531 0.35853 0.0
O166 O 0.32682 0.93429 0.524 0.0
O167 O 0.40383 0.91852 0.46326 0.0
H168 H 0.43498 0.33487 0.95747 0.0
H169 H 0.44088 0.38506 0.07939 0.0
H170 H 0.61573 0.38585 0.07687 0.0
H171 H 0.76616 0.37425 0.03647 0.0
H172 H 0.75865 0.3274 0.90924 0.0
H173 H 0.58584 0.32281 0.91759 0.0
C174 C 0.47504 0.34612 0.98307 0.0
C175 C 0.42612 0.36033 0.01784 0.0
C176 C 0.57509 0.34678 0.98073 0.0
C177 C 0.47772 0.3745 0.05159 0.0
C178 C 0.57742 0.37475 0.0504 0.0
C179 C 0.72676 0.36258 0.01135 0.0
C180 C 0.77487 0.35096 0.97268 0.0
C181 C 0.62688 0.36116 0.01482 0.0
C182 C 0.72299 0.33635 0.93956 0.0
C183 C 0.6242 0.33391 0.94406 0.0
H184 H 0.27707 0.58581 -0.00443 0.0
H185 H 0.20013 0.65583 0.06028 0.0
H186 H 0.36384 0.67 0.05282 0.0
H187 H 0.52707 0.66272 0.02842 0.0
H188 H 0.61057 0.59174 0.97094 0.0
H189 H 0.44394 0.57828 0.97184 0.0
C190 C 0.29648 0.60401 0.0088 0.0
C191 C 0.22648 0.61979 0.02819 0.0
C192 C 0.39075 0.61216 0.00407 0.0
C193 C 0.25265 0.64331 0.0452 0.0
C194 C 0.34592 0.65157 0.04039 0.0
C195 C 0.50891 0.64432 0.01573 0.0
C196 C 0.5809 0.62806 0.0006 0.0
C197 C 0.41498 0.63625 0.01942 0.0
C198 C 0.5562 0.60458 0.98287 0.0
C199 C 0.46132 0.59675 0.98422 0.0
H200 H 0.73907 0.66411 0.5262 0.0
H201 H 0.78815 0.62799 0.38779 0.0
H202 H 0.62216 0.61416 0.38628 0.0
H203 H 0.46332 0.6131 0.42347 0.0
H204 H 0.41239 0.65016 0.56011 0.0
H205 H 0.58152 0.66148 0.5651 0.0
C206 C 0.71322 0.6536 0.49518 0.0
C207 C 0.77583 0.64732 0.45679 0.0
C208 C 0.61893 0.64496 0.4955 0.0
C209 C 0.74121 0.63335 0.41738 0.0
C210 C 0.64687 0.62509 0.41694 0.0
C211 C 0.49041 0.62281 0.45528 0.0
C212 C 0.42646 0.63039 0.49186 0.0
C213 C 0.58569 0.63052 0.45609 0.0
C214 C 0.46103 0.64349 0.53236 0.0
C215 C 0.55704 0.65053 0.53441 0.0
H216 H 0.52795 0.35359 0.4418 0.0
H217 H 0.59369 0.40035 0.56506 0.0
H218 H 0.42283 0.40754 0.57823 0.0
H219 H 0.25568 0.39974 0.55487 0.0
H220 H 0.19372 0.35236 0.43198 0.0
H221 H 0.36395 0.34629 0.41807 0.0
C222 C 0.50522 0.3653 0.47178 0.0
C223 C 0.57298 0.37631 0.50271 0.0
C224 C 0.40813 0.36928 0.47887 0.0
C225 C 0.54252 0.39172 0.54083 0.0
C226 C 0.44515 0.39578 0.54832 0.0
C227 C 0.27973 0.38821 0.5249 0.0
C228 C 0.2129 0.37643 0.49449 0.0
C229 C 0.37746 0.38459 0.51755 0.0
C230 C 0.24424 0.3614 0.45602 0.0
C231 C 0.34126 0.35797 0.44805 0.0
H232 H 0.96152 0.84368 0.04659 0.0
H233 H 0.88557 0.91115 0.97245 0.0
H234 H 0.0527 0.9176 0.94986 0.0
H235 H 0.21848 0.90287 0.94813 0.0
H236 H 0.2912 0.83438 0.01979 0.0
H237 H 0.12631 0.82934 0.04593 0.0
C238 C 0.98162 0.85996 0.02595 0.0
C239 C 0.9116 0.87692 0.01107 0.0
C240 C 0.07675 0.86313 0.01205 0.0
C241 C 0.93841 0.89779 0.98399 0.0
C242 C 0.03371 0.90143 0.97103 0.0
C243 C 0.19818 0.8868 0.96932 0.0
C244 C 0.26692 0.86896 0.98173 0.0
C245 C 0.10315 0.88397 0.98414 0.0
C246 C 0.23963 0.84831 0.00947 0.0
C247 C 0.14546 0.84546 0.02463 0.0
H248 H 0.01394 0.15535 0.05126 0.0
H249 H 0.08909 0.10249 0.93947 0.0
H250 H 0.92118 0.09161 0.92956 0.0
H251 H 0.75467 0.09693 0.95337 0.0
H252 H 0.68014 0.15003 0.06468 0.0
H253 H 0.84826 0.16054 0.07527 0.0
C254 C -0.00624 0.14155 0.02445 0.0
C255 C 0.06356 0.12963 -0.00373 0.0
C256 C 0.89803 0.13515 0.0196 0.0
C257 C 0.03638 0.11182 0.96171 0.0
C258 C 0.9407 0.10552 0.95623 0.0
C259 C 0.77535 0.1106 0.98035 0.0
C260 C 0.70576 0.12278 0.00815 0.0
C261 C 0.87127 0.11689 0.98537 0.0
C262 C 0.73297 0.14054 0.04277 0.0
C263 C 0.82869 0.14662 0.04863 0.0
H264 H 0.21478 0.09526 0.53213 0.0
H265 H 0.29995 0.14676 0.41998 0.0
H266 H 0.13352 0.15667 0.40363 0.0
H267 H 0.96646 0.15248 0.42439 0.0
H268 H 0.87935 0.10228 0.53866 0.0
H269 H 0.04529 0.09042 0.55188 0.0
C270 C 0.19656 0.1084 0.50372 0.0
C271 C 0.26866 0.12038 0.4774 0.0
C272 C 0.10122 0.11457 0.49564 0.0
C273 C 0.24502 0.13747 0.44083 0.0
C274 C 0.15022 0.1432 0.43164 0.0
C275 C 0.98344 0.13897 0.45231 0.0
C276 C 0.91091 0.1283 0.48053 0.0
C277 C 0.07813 0.13225 0.45955 0.0
C278 C 0.93418 0.1108 0.5165 0.0
C279 C 0.0288 0.10393 0.52392 0.0
H280 H 0.73166 0.91309 0.51102 0.0
H281 H 0.66659 0.83982 0.45816 0.0
H282 H 0.8357 0.8295 0.45848 0.0
H283 H 0.00054 0.84138 0.47257 0.0
H284 H 0.06773 0.91491 0.52304 0.0
H285 H 0.89773 0.92476 0.52671 0.0
C286 C 0.75447 0.89491 0.49924 0.0
C287 C 0.68681 0.87727 0.48439 0.0
C288 C 0.85151 0.88904 0.49993 0.0
C289 C 0.71736 0.85379 0.46937 0.0
C290 C 0.81386 0.8478 0.46994 0.0
C291 C 0.9782 0.85957 0.48461 0.0
C292 C 0.04644 0.87752 0.49684 0.0
C293 C 0.88127 0.86528 0.4852 0.0
C294 C 0.01639 0.90081 0.51327 0.0
C295 C 0.91941 0.90651 0.51494 0.0
H296 H 0.01728 0.5395 0.05503 0.0
H297 H 0.73258 0.53234 -0.0024 0.0
H298 H 0.74736 0.48743 -0.0018 0.0
H299 H 0.85114 0.45149 -0.00044 0.0
H300 H 0.14145 0.45804 0.04944 0.0
H301 H 0.11477 0.50185 0.06822 0.0
C302 C 0.95742 0.52797 0.04457 0.0
C303 C 0.87386 0.53901 0.02633 0.0
C304 C 0.96853 0.50217 0.04255 0.0
C305 C 0.79717 0.5241 0.01193 0.0
C306 C 0.80606 0.49848 0.01181 0.0
C307 C 0.90832 0.4624 0.01527 0.0
C308 C -0.00113 0.4518 0.02193 0.0
C309 C 0.89307 0.48748 0.0245 0.0
C310 C 0.07147 0.46591 0.0435 0.0
C311 C 0.05624 0.49096 0.05397 0.0
H312 H 0.78113 0.47422 0.49979 0.0
H313 H 0.06624 0.45077 0.46444 0.0
H314 H 0.11673 0.49372 0.45583 0.0
H315 H 0.08316 0.53806 0.46685 0.0
H316 H 0.79572 0.56119 0.49952 0.0
H317 H 0.74264 0.51847 0.49938 0.0
C318 C 0.85373 0.47861 0.48932 0.0
C319 C 0.91998 0.45954 0.48316 0.0
C320 C 0.88213 0.50331 0.48418 0.0
C321 C 0.01381 0.46525 0.46913 0.0
C322 C 0.04294 0.4898 0.46454 0.0
C323 C 0.00882 0.53375 0.47342 0.0
C324 C 0.94435 0.55278 0.48454 0.0
C325 C 0.97829 0.50902 0.4733 0.0
C326 C 0.84767 0.5469 0.49204 0.0
C327 C 0.81691 0.52243 0.49191 0.0
H328 H 0.46542 0.95331 0.02558 0.0
H329 H 0.66917 0.96661 0.91025 0.0
H330 H 0.62413 0.00983 0.9077 0.0
H331 H 0.51795 0.04297 0.93225 0.0
H332 H 0.31634 0.03197 0.04862 0.0
H333 H 0.36944 0.98876 0.05718 0.0
C334 C 0.50133 0.96582 0.00077 0.0
C335 C 0.5698 0.95661 0.96775 0.0
C336 C 0.4744 0.99092 -0.00086 0.0
C337 C 0.61566 0.97308 0.93574 0.0
C338 C 0.58973 0.99783 0.93405 0.0
C339 C 0.48582 0.03106 0.95957 0.0
C340 C 0.41215 0.04017 0.98898 0.0
C341 C 0.51745 0.00673 0.96446 0.0
C342 C 0.37235 0.02502 0.02515 0.0
C343 C 0.40286 0.00042 0.02999 0.0
H344 H 0.43255 0.0506 0.46272 0.0
H345 H 0.72001 0.02656 0.49074 0.0
H346 H 0.67194 0.98348 0.47807 0.0
H347 H 0.54345 0.9529 0.47313 0.0
H348 H 0.2518 0.97691 0.46154 0.0
H349 H 0.30505 0.01989 0.45278 0.0
C350 C 0.48496 0.0359 0.46457 0.0
C351 C 0.57971 0.0415 0.47704 0.0
C352 C 0.4552 0.01127 0.4608 0.0
C353 C 0.64698 0.02249 0.48073 0.0
C354 C 0.61926 0.99795 0.47383 0.0
C355 C 0.49196 0.96755 0.46738 0.0
C356 C 0.39418 0.96203 0.4676 0.0
C357 C 0.52291 0.99212 0.46589 0.0
C358 C 0.32739 0.98096 0.46125 0.0
C359 C 0.35792 0.00543 0.45652 0.0
H360 H 0.27605 0.299 0.97856 0.0
H361 H -0.00358 0.26615 0.9749 0.0
H362 H 0.06818 0.22493 0.96991 0.0
H363 H 0.20868 0.19863 0.98126 0.0
H364 H 0.48509 0.23164 0.00196 0.0
H365 H 0.41748 0.27266 0.98547 0.0
C366 C 0.23099 0.28282 0.97527 0.0
C367 C 0.13126 0.28541 0.97671 0.0
C368 C 0.27269 0.25933 0.97645 0.0
C369 C 0.07327 0.26443 0.97344 0.0
C370 C 0.11437 0.24096 0.97105 0.0
C371 C 0.25429 0.21481 0.98101 0.0
C372 C 0.35149 0.21237 -0.00754 0.0
C373 C 0.21372 0.23821 0.97475 0.0
C374 C 0.41012 0.23329 -0.00689 0.0
C375 C 0.37136 0.25662 0.98383 0.0
H376 H 0.80518 0.79772 0.00984 0.0
H377 H 0.53016 0.76654 0.97743 0.0
H378 H 0.60318 0.72569 0.96603 0.0
H379 H 0.74046 0.69824 0.97981 0.0
H380 H 0.00961 0.72899 0.02481 0.0
H381 H 0.94565 0.77081 0.0154 0.0
C382 C 0.76203 0.78199 -0.00094 0.0
C383 C 0.66305 0.7848 -0.00571 0.0
C384 C 0.80396 0.75861 -0.00503 0.0
C385 C 0.60665 0.76456 0.98104 0.0
C386 C 0.64842 0.7413 0.97474 0.0
C387 C 0.78589 0.71419 0.9856 0.0
C388 C 0.8798 0.71077 0.00225 0.0
C389 C 0.7464 0.73797 0.98349 0.0
C390 C 0.93763 0.73137 0.01128 0.0
C391 C 0.90063 0.75519 0.00647 0.0
H392 H 0.08168 0.73234 0.41853 0.0
H393 H 0.18659 0.69901 0.55104 0.0
H394 H 0.26641 0.73752 0.57332 0.0
H395 H 0.32982 0.77855 0.54705 0.0
H396 H 0.2297 0.80931 0.41098 0.0
H397 H 0.12503 0.77434 0.39852 0.0
C398 C 0.1202 0.73367 0.45282 0.0
C399 C 0.1305 0.71275 0.48222 0.0
C400 C 0.16893 0.75541 0.46435 0.0
C401 C 0.17856 0.71486 0.52727 0.0
C402 C 0.22525 0.73681 0.53984 0.0
C403 C 0.28448 0.77749 0.51502 0.0
C404 C 0.28934 0.79602 0.47927 0.0
C405 C 0.22521 0.75681 0.50729 0.0
C406 C 0.22889 0.79489 0.43837 0.0
C407 C 0.16851 0.77497 0.43125 0.0
H408 H 0.84558 0.27651 0.55205 0.0
H409 H 0.74507 0.30651 0.4154 0.0
H410 H 0.62792 0.27376 0.40837 0.0
H411 H 0.56851 0.23413 0.43446 0.0
H412 H 0.67871 0.20017 0.56527 0.0
H413 H 0.77327 0.23716 0.58252 0.0
C414 C 0.79792 0.27568 0.52091 0.0
C415 C 0.80563 0.29337 0.48356 0.0
C416 C 0.73159 0.25622 0.51628 0.0
C417 C 0.74225 0.29259 0.44382 0.0
C418 C 0.67453 0.27404 0.43997 0.0
C419 C 0.61172 0.23495 0.46732 0.0
C420 C 0.61859 0.21418 0.49764 0.0
C421 C 0.67049 0.25539 0.47512 0.0
C422 C 0.67293 0.21582 0.54082 0.0
C423 C 0.72823 0.23685 0.55036 0.0
H424 H 0.93669 0.38496 0.15169 0.0
H425 H 0.21876 0.36971 0.20587 0.0
H426 H 0.17184 0.38278 0.28776 0.0
H427 H 0.04125 0.38686 0.34613 0.0
H428 H 0.75342 0.39405 0.29376 0.0
H429 H 0.81083 0.39719 0.20962 0.0
C430 C -0.01177 0.38538 0.18123 0.0
C431 C 0.08008 0.37603 0.17347 0.0
C432 C 0.95886 0.39135 0.22888 0.0
C433 C 0.147 0.37651 0.21162 0.0
C434 C 0.12018 0.38394 0.25838 0.0
C435 C -0.00817 0.39029 0.31638 0.0
C436 C 0.89369 0.38985 0.32556 0.0
C437 C 0.02476 0.38973 0.26803 0.0
C438 C 0.82952 0.39414 0.28709 0.0
C439 C 0.86229 0.39559 0.23899 0.0
H440 H 0.81225 0.6005 0.22058 0.0
H441 H 0.04515 0.60385 0.11851 0.0
H442 H 0.15658 0.59202 0.18272 0.0
H443 H 0.18865 0.59848 0.27007 0.0
H444 H 0.95592 0.59996 0.37254 0.0
H445 H 0.84371 0.59078 0.30694 0.0
C446 C 0.8868 0.59739 0.21207 0.0
C447 C 0.92205 0.60432 0.16603 0.0
C448 C 0.95071 0.59197 0.24987 0.0
C449 C 0.01732 0.59931 0.15427 0.0
C450 C 0.08122 0.59282 0.19122 0.0
C451 C 0.11384 0.59555 0.27825 0.0
C452 C 0.07906 0.6014 0.32501 0.0
C453 C 0.04954 0.59183 0.23984 0.0
C454 C 0.98346 0.59646 0.33624 0.0
C455 C 0.91911 0.59149 0.29854 0.0
H456 H 0.13054 0.61144 0.82342 0.0
H457 H 0.86972 0.65185 0.84703 0.0
H458 H 0.87058 0.66519 0.76157 0.0
H459 H 0.92759 0.65814 0.67824 0.0
H460 H 0.1822 0.61542 0.65319 0.0
H461 H 0.20394 0.61079 0.74168 0.0
C462 C 0.07466 0.62349 0.80996 0.0
C463 C -0.00176 0.63001 0.84075 0.0
C464 C 0.07454 0.63048 0.76068 0.0
C465 C 0.92822 0.6463 0.82368 0.0
C466 C 0.92858 0.65381 0.77484 0.0
C467 C -0.01116 0.64816 0.6922 0.0
C468 C 0.05159 0.63639 0.65952 0.0
C469 C -0.00148 0.64488 0.74263 0.0
C470 C 0.13234 0.62428 0.67777 0.0
C471 C 0.14418 0.62149 0.72827 0.0
H472 H 0.12312 0.38174 0.65585 0.0
H473 H 0.86204 0.34328 0.68821 0.0
H474 H 0.92571 0.33159 0.76872 0.0
H475 H 0.03331 0.34335 0.83561 0.0
H476 H 0.27304 0.3906 0.80645 0.0
H477 H 0.24615 0.38622 0.71856 0.0
C478 C 0.08123 0.37023 0.68019 0.0
C479 C -0.01274 0.36393 0.66717 0.0
C480 C 0.11604 0.36504 0.72698 0.0
C481 C 0.934 0.34857 0.69796 0.0
C482 C 0.97045 0.34203 0.74395 0.0
C483 C 0.08265 0.35152 0.80969 0.0
C484 C 0.15385 0.36762 0.8271 0.0
C485 C 0.0585 0.35165 0.75991 0.0
C486 C 0.21767 0.3782 0.79379 0.0
C487 C 0.20056 0.37619 0.7436 0.0
H488 H 0.57581 0.90686 0.18636 0.0
H489 H 0.35567 0.8683 0.10785 0.0
H490 H 0.25031 0.87114 0.17885 0.0
H491 H 0.24483 0.87268 0.2689 0.0
H492 H 0.47178 0.90867 0.34805 0.0
H493 H 0.54929 0.91946 0.2713 0.0
C494 C 0.50285 0.90032 0.18413 0.0
C495 C 0.47381 0.8869 0.14292 0.0
C496 C 0.44518 0.90088 0.22584 0.0
C497 C 0.37933 0.8786 0.13959 0.0
C498 C 0.31979 0.87984 0.18051 0.0
C499 C 0.30978 0.88354 0.26923 0.0
C500 C 0.35498 0.88892 0.31394 0.0
C501 C 0.35547 0.88901 0.22494 0.0
C502 C 0.43695 0.90377 0.31407 0.0
C503 C 0.48158 0.90986 0.27015 0.0
H504 H 0.28271 0.11202 0.21434 0.0
H505 H 0.53145 0.10002 0.1251 0.0
H506 H 0.62402 0.08933 0.19748 0.0
H507 H 0.64421 0.09936 0.28428 0.0
H508 H 0.39896 0.11488 0.37326 0.0
H509 H 0.29383 0.10693 0.30378 0.0
C510 C 0.35613 0.10604 0.21072 0.0
C511 C 0.40192 0.10792 0.16521 0.0
C512 C 0.40964 0.10086 0.25272 0.0
C513 C 0.49564 0.09929 0.16014 0.0
C514 C 0.5488 0.09335 0.2016 0.0
C515 C 0.56741 0.09961 0.28889 0.0
C516 C 0.52869 0.10881 0.33246 0.0
C517 C 0.50854 0.09643 0.24811 0.0
C518 C 0.42976 0.10842 0.33932 0.0
C519 C 0.36986 0.10425 0.29934 0.0
H520 H 0.59544 0.14974 0.8274 0.0
H521 H 0.28901 0.1485 0.82169 0.0
H522 H 0.29374 0.15614 0.7336 0.0
H523 H 0.38545 0.14677 0.6592 0.0
H524 H 0.6916 0.14316 0.66532 0.0
H525 H 0.68815 0.15455 0.75188 0.0
C526 C 0.52988 0.15241 0.80702 0.0
C527 C 0.44215 0.14766 0.82986 0.0
C528 C 0.53382 0.1552 0.75625 0.0
C529 C 0.35719 0.15167 0.80424 0.0
C530 C 0.36014 0.15569 0.75381 0.0
C531 C 0.45133 0.14965 0.6792 0.0
C532 C 0.53843 0.14338 0.65724 0.0
C533 C 0.44799 0.15495 0.72921 0.0
C534 C 0.62393 0.14756 0.68225 0.0
C535 C 0.62168 0.15382 0.73176 0.0
H536 H 0.60016 0.88323 0.65453 0.0
H537 H 0.33213 0.84453 0.66099 0.0
H538 H 0.38283 0.82406 0.7368 0.0
H539 H 0.48364 0.8272 0.81029 0.0
H540 H 0.74439 0.86864 0.80525 0.0
H541 H 0.72132 0.87637 0.71823 0.0
C542 C 0.55333 0.87006 0.67231 0.0
C543 C 0.46072 0.86623 0.65405 0.0
C544 C 0.5829 0.85859 0.71554 0.0
C545 C 0.40234 0.84831 0.67562 0.0
C546 C 0.43165 0.83655 0.71867 0.0
C547 C 0.53822 0.83657 0.78923 0.0
C548 C 0.61216 0.84875 0.81417 0.0
C549 C 0.51926 0.84278 0.74041 0.0
C550 C 0.68503 0.85982 0.78685 0.0
C551 C 0.67019 0.86492 0.73737 0.0
loop_
_geom_bond_atom_site_label_1
_geom_bond_atom_site_label_2
_geom_bond_distance
_geom_bond_site_symmetry_2
_ccdc_geom_bond_type
O0 Mg1 1.990 . S
O0 C14 1.253 . S
Mg1 O0 1.990 . S
Mg1 O4 2.180 1_655 S
Mg1 O5 2.117 . S
Mg1 O19 2.030 . S
O2 Mg3 2.072 1_655 S
O2 C14 1.260 1_554 S
Mg3 O2 2.072 1_455 S
Mg3 O4 2.098 1_554 S
Mg3 O6 2.079 1_554 S
Mg3 O7 2.072 1_554 S
Mg3 O9 2.099 . S
Mg3 O20 2.079 . S
O4 Mg1 2.180 1_455 S
O4 Mg3 2.098 1_556 S
O4 C15 1.279 . S
O5 Mg1 2.117 . S
O5 C15 1.250 1_655 S
O6 Mg3 2.079 1_556 S
O6 C16 1.264 1_556 S
O7 Mg3 2.072 1_556 S
O7 C17 1.260 1_556 S
Mg8 O9 2.180 . S
Mg8 O10 2.030 . S
Mg8 O11 1.990 . S
Mg8 O12 2.117 . S
O9 Mg3 2.099 . S
O9 Mg8 2.180 . S
O9 C18 1.279 . S
O10 Mg8 2.030 . S
O10 C16 1.248 . S
O11 Mg8 1.990 . S
O11 C17 1.253 . S
O12 Mg8 2.117 . S
O12 C18 1.250 . S
C13 O19 1.248 1_455 S
C13 O20 1.264 1_556 S
C14 O0 1.253 . S
C14 O2 1.260 1_556 S
C15 O4 1.279 . S
C15 O5 1.250 1_455 S
C16 O6 1.264 1_554 S
C16 O10 1.248 . S
C17 O7 1.260 1_554 S
C17 O11 1.253 . S
C18 O9 1.279 . S
C18 O12 1.250 . S
O19 Mg1 2.030 . S
O19 C13 1.248 1_655 S
O20 Mg3 2.079 . S
O20 C13 1.264 1_554 S
O21 Mg22 1.990 . S
O21 C35 1.253 . S
Mg22 O21 1.990 . S
Mg22 O25 2.180 1_455 S
Mg22 O26 2.117 . S
Mg22 O40 2.030 . S
O23 Mg24 2.072 1_455 S
O23 C35 1.260 1_554 S
Mg24 O23 2.072 1_655 S
Mg24 O25 2.098 1_554 S
Mg24 O27 2.079 1_554 S
Mg24 O28 2.072 1_554 S
Mg24 O30 2.099 . S
Mg24 O41 2.079 . S
O25 Mg22 2.180 1_655 S
O25 Mg24 2.098 1_556 S
O25 C36 1.279 . S
O26 Mg22 2.117 . S
O26 C36 1.250 1_455 S
O27 Mg24 2.079 1_556 S
O27 C37 1.264 1_556 S
O28 Mg24 2.072 1_556 S
O28 C38 1.260 1_556 S
Mg29 O30 2.180 . S
Mg29 O31 2.030 . S
Mg29 O32 1.990 . S
Mg29 O33 2.117 . S
O30 Mg24 2.099 . S
O30 Mg29 2.180 . S
O30 C39 1.279 . S
O31 Mg29 2.030 . S
O31 C37 1.248 . S
O32 Mg29 1.990 . S
O32 C38 1.253 . S
O33 Mg29 2.117 . S
O33 C39 1.250 . S
C34 O40 1.248 1_655 S
C34 O41 1.264 1_556 S
C35 O21 1.253 . S
C35 O23 1.260 1_556 S
C36 O25 1.279 . S
C36 O26 1.250 1_655 S
C37 O27 1.264 1_554 S
C37 O31 1.248 . S
C38 O28 1.260 1_554 S
C38 O32 1.253 . S
C39 O30 1.279 . S
C39 O33 1.250 . S
O40 Mg22 2.030 . S
O40 C34 1.248 1_455 S
O41 Mg24 2.079 . S
O41 C34 1.264 1_554 S
O42 Mg43 1.990 . S
O42 C56 1.253 . S
Mg43 O42 1.990 . S
Mg43 O46 2.180 . S
Mg43 O47 2.117 . S
Mg43 O61 2.030 . S
O44 Mg45 2.072 . S
O44 C56 1.260 . S
Mg45 O44 2.072 . S
Mg45 O46 2.099 . S
Mg45 O48 2.079 . S
Mg45 O49 2.072 1_455 S
Mg45 O51 2.099 . S
Mg45 O62 2.079 . S
O46 Mg43 2.180 . S
O46 Mg45 2.099 . S
O46 C57 1.279 . S
O47 Mg43 2.117 . S
O47 C57 1.250 . S
O48 Mg45 2.079 . S
O48 C58 1.264 . S
O49 Mg45 2.072 1_655 S
O49 C59 1.260 . S
Mg50 O51 2.180 1_655 S
Mg50 O52 2.030 . S
Mg50 O53 1.990 . S
Mg50 O54 2.117 . S
O51 Mg45 2.099 . S
O51 Mg50 2.180 1_455 S
O51 C60 1.279 . S
O52 Mg50 2.030 . S
O52 C58 1.248 1_655 S
O53 Mg50 1.990 . S
O53 C59 1.253 . S
O54 Mg50 2.117 . S
O54 C60 1.250 1_655 S
C55 O61 1.248 . S
C55 O62 1.264 . S
C56 O42 1.253 . S
C56 O44 1.260 . S
C57 O46 1.279 . S
C57 O47 1.250 . S
C58 O48 1.264 . S
C58 O52 1.248 1_455 S
C59 O49 1.260 . S
C59 O53 1.253 . S
C60 O51 1.279 . S
C60 O54 1.250 1_455 S
O61 Mg43 2.030 . S
O61 C55 1.248 . S
O62 Mg45 2.079 . S
O62 C55 1.264 . S
O63 Mg64 1.990 . S
O63 C77 1.253 . S
Mg64 O63 1.990 . S
Mg64 O67 2.180 1_455 S
Mg64 O68 2.117 . S
Mg64 O82 2.030 . S
O65 Mg66 2.072 1_455 S
O65 C77 1.260 . S
Mg66 O65 2.072 1_655 S
Mg66 O67 2.099 . S
Mg66 O69 2.079 . S
Mg66 O70 2.072 . S
Mg66 O72 2.099 . S
Mg66 O83 2.079 . S
O67 Mg64 2.180 1_655 S
O67 Mg66 2.099 . S
O67 C78 1.279 . S
O68 Mg64 2.117 . S
O68 C78 1.250 1_455 S
O69 Mg66 2.079 . S
O69 C79 1.264 . S
O70 Mg66 2.072 . S
O70 C80 1.260 . S
Mg71 O72 2.180 . S
Mg71 O73 2.030 . S
Mg71 O74 1.990 . S
Mg71 O75 2.117 . S
O72 Mg66 2.099 . S
O72 Mg71 2.180 . S
O72 C81 1.279 . S
O73 Mg71 2.030 . S
O73 C79 1.248 . S
O74 Mg71 1.990 . S
O74 C80 1.253 . S
O75 Mg71 2.117 . S
O75 C81 1.250 . S
C76 O82 1.248 1_655 S
C76 O83 1.264 . S
C77 O63 1.253 . S
C77 O65 1.260 . S
C78 O67 1.279 . S
C78 O68 1.250 1_655 S
C79 O69 1.264 . S
C79 O73 1.248 . S
C80 O70 1.260 . S
C80 O74 1.253 . S
C81 O72 1.279 . S
C81 O75 1.250 . S
O82 Mg64 2.030 . S
O82 C76 1.248 1_455 S
O83 Mg66 2.079 . S
O83 C76 1.264 . S
O84 Mg85 1.990 . S
O84 C98 1.253 . S
Mg85 O84 1.990 . S
Mg85 O88 2.180 . S
Mg85 O89 2.117 . S
Mg85 O103 2.030 . S
O86 Mg87 2.072 . S
O86 C98 1.260 1_554 S
Mg87 O86 2.072 . S
Mg87 O88 2.098 1_554 S
Mg87 O90 2.079 1_554 S
Mg87 O91 2.072 1_554 S
Mg87 O93 2.099 . S
Mg87 O104 2.079 . S
O88 Mg85 2.180 . S
O88 Mg87 2.098 1_556 S
O88 C99 1.279 . S
O89 Mg85 2.117 . S
O89 C99 1.250 . S
O90 Mg87 2.079 1_556 S
O90 C100 1.264 1_556 S
O91 Mg87 2.072 1_556 S
O91 C101 1.260 1_556 S
Mg92 O93 2.180 . S
Mg92 O94 2.030 . S
Mg92 O95 1.990 . S
Mg92 O96 2.117 . S
O93 Mg87 2.099 . S
O93 Mg92 2.180 . S
O93 C102 1.279 . S
O94 Mg92 2.030 . S
O94 C100 1.248 . S
O95 Mg92 1.990 . S
O95 C101 1.253 . S
O96 Mg92 2.117 . S
O96 C102 1.250 . S
C97 O103 1.248 . S
C97 O104 1.264 1_556 S
C98 O84 1.253 . S
C98 O86 1.260 1_556 S
C99 O88 1.279 . S
C99 O89 1.250 . S
C100 O90 1.264 1_554 S
C100 O94 1.248 . S
C101 O91 1.260 1_554 S
C101 O95 1.253 . S
C102 O93 1.279 . S
C102 O96 1.250 . S
O103 Mg85 2.030 . S
O103 C97 1.248 . S
O104 Mg87 2.079 . S
O104 C97 1.264 1_554 S
O105 Mg106 1.990 . S
O105 C119 1.253 . S
Mg106 O105 1.990 . S
Mg106 O109 2.180 . S
Mg106 O110 2.117 . S
Mg106 O124 2.030 . S
O107 Mg108 2.072 . S
O107 C119 1.260 1_554 S
Mg108 O107 2.072 . S
Mg108 O109 2.098 1_554 S
Mg108 O111 2.079 1_554 S
Mg108 O112 2.072 1_554 S
Mg108 O114 2.099 . S
Mg108 O125 2.079 . S
O109 Mg106 2.180 . S
O109 Mg108 2.098 1_556 S
O109 C120 1.279 . S
O110 Mg106 2.117 . S
O110 C120 1.250 . S
O111 Mg108 2.079 1_556 S
O111 C121 1.264 1_556 S
O112 Mg108 2.072 1_556 S
O112 C122 1.260 1_556 S
Mg113 O114 2.180 . S
Mg113 O115 2.030 . S
Mg113 O116 1.990 . S
Mg113 O117 2.117 . S
O114 Mg108 2.099 . S
O114 Mg113 2.180 . S
O114 C123 1.279 . S
O115 Mg113 2.030 . S
O115 C121 1.248 . S
O116 Mg113 1.990 . S
O116 C122 1.253 . S
O117 Mg113 2.117 . S
O117 C123 1.250 . S
C118 O124 1.248 . S
C118 O125 1.264 1_556 S
C119 O105 1.253 . S
C119 O107 1.260 1_556 S
C120 O109 1.279 . S
C120 O110 1.250 . S
C121 O111 1.264 1_554 S
C121 O115 1.248 . S
C122 O112 1.260 1_554 S
C122 O116 1.253 . S
C123 O114 1.279 . S
C123 O117 1.250 . S
O124 Mg106 2.030 . S
O124 C118 1.248 . S
O125 Mg108 2.079 . S
O125 C118 1.264 1_554 S
O126 Mg127 1.990 . S
O126 C140 1.253 . S
Mg127 O126 1.990 . S
Mg127 O130 2.180 . S
Mg127 O131 2.117 . S
Mg127 O145 2.030 . S
O128 Mg129 2.072 . S
O128 C140 1.260 . S
Mg129 O128 2.072 . S
Mg129 O130 2.099 . S
Mg129 O132 2.079 . S
Mg129 O133 2.072 . S
Mg129 O135 2.099 . S
Mg129 O146 2.079 . S
O130 Mg127 2.180 . S
O130 Mg129 2.099 . S
O130 C141 1.279 . S
O131 Mg127 2.117 . S
O131 C141 1.250 . S
O132 Mg129 2.079 . S
O132 C142 1.264 . S
O133 Mg129 2.072 . S
O133 C143 1.260 . S
Mg134 O135 2.180 . S
Mg134 O136 2.030 . S
Mg134 O137 1.990 . S
Mg134 O138 2.117 . S
O135 Mg129 2.099 . S
O135 Mg134 2.180 . S
O135 C144 1.279 . S
O136 Mg134 2.030 . S
O136 C142 1.248 . S
O137 Mg134 1.990 . S
O137 C143 1.253 . S
O138 Mg134 2.117 . S
O138 C144 1.250 . S
C139 O145 1.248 . S
C139 O146 1.264 . S
C140 O126 1.253 . S
C140 O128 1.260 . S
C141 O130 1.279 . S
C141 O131 1.250 . S
C142 O132 1.264 . S
C142 O136 1.248 . S
C143 O133 1.260 . S
C143 O137 1.253 . S
C144 O135 1.279 . S
C144 O138 1.250 . S
O145 Mg127 2.030 . S
O145 C139 1.248 . S
O146 Mg129 2.079 . S
O146 C139 1.264 . S
O147 Mg148 1.990 . S
O147 C161 1.253 . S
Mg148 O147 1.990 . S
Mg148 O151 2.180 . S
Mg148 O152 2.117 . S
Mg148 O166 2.030 . S
O149 Mg150 2.072 . S
O149 C161 1.260 . S
Mg150 O149 2.072 . S
Mg150 O151 2.099 . S
Mg150 O153 2.079 . S
Mg150 O154 2.072 . S
Mg150 O156 2.099 . S
Mg150 O167 2.079 . S
O151 Mg148 2.180 . S
O151 Mg150 2.099 . S
O151 C162 1.279 . S
O152 Mg148 2.117 . S
O152 C162 1.250 . S
O153 Mg150 2.079 . S
O153 C163 1.264 . S
O154 Mg150 2.072 . S
O154 C164 1.260 . S
Mg155 O156 2.180 . S
Mg155 O157 2.030 . S
Mg155 O158 1.990 . S
Mg155 O159 2.117 . S
O156 Mg150 2.099 . S
O156 Mg155 2.180 . S
O156 C165 1.279 . S
O157 Mg155 2.030 . S
O157 C163 1.248 . S
O158 Mg155 1.990 . S
O158 C164 1.253 . S
O159 Mg155 2.117 . S
O159 C165 1.250 . S
C160 O166 1.248 . S
C160 O167 1.264 . S
C161 O147 1.253 . S
C161 O149 1.260 . S
C162 O151 1.279 . S
C162 O152 1.250 . S
C163 O153 1.264 . S
C163 O157 1.248 . S
C164 O154 1.260 . S
C164 O158 1.253 . S
C165 O156 1.279 . S
C165 O159 1.250 . S
O166 Mg148 2.030 . S
O166 C160 1.248 . S
O167 Mg150 2.079 . S
O167 C160 1.264 . S
H168 C174 0.930 . S
H169 C177 0.930 . S
H170 C178 0.930 . S
H171 C179 0.930 . S
H172 C182 0.930 . S
H173 C183 0.930 . S
C174 H168 0.930 . S
C174 C175 1.355 . S
C174 C176 1.415 . S
C175 C174 1.355 . S
C175 C177 1.419 1_556 S
C176 C174 1.415 . S
C176 C181 1.425 1_556 S
C176 C183 1.409 . S
C177 H169 0.930 . S
C177 C175 1.419 1_554 S
C177 C178 1.362 . S
C178 H170 0.930 . S
C178 C177 1.362 . S
C178 C181 1.409 . S
C179 H171 0.930 . S
C179 C180 1.355 . S
C179 C181 1.415 . S
C180 C179 1.355 . S
C180 C182 1.419 1_554 S
C181 C176 1.425 1_554 S
C181 C178 1.409 . S
C181 C179 1.415 . S
C182 H172 0.930 . S
C182 C180 1.419 1_556 S
C182 C183 1.362 . S
C183 H173 0.930 . S
C183 C176 1.409 . S
C183 C182 1.362 . S
H184 C190 0.930 . S
H185 C193 0.930 . S
H186 C194 0.930 . S
H187 C195 0.930 . S
H188 C198 0.930 . S
H189 C199 0.930 . S
C190 H184 0.930 . S
C190 C191 1.355 . S
C190 C192 1.415 . S
C191 C190 1.355 . S
C191 C193 1.419 1_554 S
C192 C190 1.415 . S
C192 C197 1.425 1_554 S
C192 C199 1.409 . S
C193 H185 0.930 . S
C193 C191 1.419 1_556 S
C193 C194 1.362 . S
C194 H186 0.930 . S
C194 C193 1.362 . S
C194 C197 1.409 . S
C195 H187 0.930 . S
C195 C196 1.355 . S
C195 C197 1.415 . S
C196 C195 1.355 . S
C196 C198 1.419 1_556 S
C197 C192 1.425 1_556 S
C197 C194 1.409 . S
C197 C195 1.415 . S
C198 H188 0.930 . S
C198 C196 1.419 1_554 S
C198 C199 1.362 . S
C199 H189 0.930 . S
C199 C192 1.409 . S
C199 C198 1.362 . S
H200 C206 0.930 . S
H201 C209 0.930 . S
H202 C210 0.930 . S
H203 C211 0.930 . S
H204 C214 0.930 . S
H205 C215 0.930 . S
C206 H200 0.930 . S
C206 C207 1.355 . S
C206 C208 1.415 . S
C207 C206 1.355 . S
C207 C209 1.419 . S
C208 C206 1.415 . S
C208 C213 1.425 . S
C208 C215 1.409 . S
C209 H201 0.930 . S
C209 C207 1.419 . S
C209 C210 1.362 . S
C210 H202 0.930 . S
C210 C209 1.362 . S
C210 C213 1.409 . S
C211 H203 0.930 . S
C211 C212 1.355 . S
C211 C213 1.415 . S
C212 C211 1.355 . S
C212 C214 1.419 . S
C213 C208 1.425 . S
C213 C210 1.409 . S
C213 C211 1.415 . S
C214 H204 0.930 . S
C214 C212 1.419 . S
C214 C215 1.362 . S
C215 H205 0.930 . S
C215 C208 1.409 . S
C215 C214 1.362 . S
H216 C222 0.930 . S
H217 C225 0.930 . S
H218 C226 0.930 . S
H219 C227 0.930 . S
H220 C230 0.930 . S
H221 C231 0.930 . S
C222 H216 0.930 . S
C222 C223 1.355 . S
C222 C224 1.415 . S
C223 C222 1.355 . S
C223 C225 1.419 . S
C224 C222 1.415 . S
C224 C229 1.425 . S
C224 C231 1.409 . S
C225 H217 0.930 . S
C225 C223 1.419 . S
C225 C226 1.362 . S
C226 H218 0.930 . S
C226 C225 1.362 . S
C226 C229 1.409 . S
C227 H219 0.930 . S
C227 C228 1.355 . S
C227 C229 1.415 . S
C228 C227 1.355 . S
C228 C230 1.419 . S
C229 C224 1.425 . S
C229 C226 1.409 . S
C229 C227 1.415 . S
C230 H220 0.930 . S
C230 C228 1.419 . S
C230 C231 1.362 . S
C231 H221 0.930 . S
C231 C224 1.409 . S
C231 C230 1.362 . S
H232 C238 0.930 . S
H233 C241 0.930 . S
H234 C242 0.930 . S
H235 C243 0.930 . S
H236 C246 0.930 . S
H237 C247 0.930 . S
C238 H232 0.930 . S
C238 C239 1.355 1_554 S
C238 C240 1.415 1_655 S
C239 C238 1.355 1_556 S
C239 C241 1.419 . S
C240 C238 1.415 1_455 S
C240 C245 1.425 1_554 S
C240 C247 1.409 . S
C241 H233 0.930 . S
C241 C239 1.419 . S
C241 C242 1.362 1_655 S
C242 H234 0.930 . S
C242 C241 1.362 1_455 S
C242 C245 1.409 . S
C243 H235 0.930 . S
C243 C244 1.355 1_556 S
C243 C245 1.415 . S
C244 C243 1.355 1_554 S
C244 C246 1.419 . S
C245 C240 1.425 1_556 S
C245 C242 1.409 . S
C245 C243 1.415 . S
C246 H236 0.930 . S
C246 C244 1.419 . S
C246 C247 1.362 . S
C247 H237 0.930 . S
C247 C240 1.409 . S
C247 C246 1.362 . S
H248 C254 0.930 . S
H249 C257 0.930 . S
H250 C258 0.930 . S
H251 C259 0.930 . S
H252 C262 0.930 . S
H253 C263 0.930 . S
C254 H248 0.930 . S
C254 C255 1.355 1_554 S
C254 C256 1.415 1_455 S
C255 C254 1.355 1_556 S
C255 C257 1.419 . S
C256 C254 1.415 1_655 S
C256 C261 1.425 1_554 S
C256 C263 1.409 . S
C257 H249 0.930 . S
C257 C255 1.419 . S
C257 C258 1.362 1_455 S
C258 H250 0.930 . S
C258 C257 1.362 1_655 S
C258 C261 1.409 . S
C259 H251 0.930 . S
C259 C260 1.355 1_556 S
C259 C261 1.415 . S
C260 C259 1.355 1_554 S
C260 C262 1.419 . S
C261 C256 1.425 1_556 S
C261 C258 1.409 . S
C261 C259 1.415 . S
C262 H252 0.930 . S
C262 C260 1.419 . S
C262 C263 1.362 . S
C263 H253 0.930 . S
C263 C256 1.409 . S
C263 C262 1.362 . S
H264 C270 0.930 . S
H265 C273 0.930 . S
H266 C274 0.930 . S
H267 C275 0.930 . S
H268 C278 0.930 . S
H269 C279 0.930 . S
C270 H264 0.930 . S
C270 C271 1.355 . S
C270 C272 1.415 . S
C271 C270 1.355 . S
C271 C273 1.419 . S
C272 C270 1.415 . S
C272 C277 1.425 . S
C272 C279 1.409 . S
C273 H265 0.930 . S
C273 C271 1.419 . S
C273 C274 1.362 . S
C274 H266 0.930 . S
C274 C273 1.362 . S
C274 C277 1.409 . S
C275 H267 0.930 . S
C275 C276 1.355 . S
C275 C277 1.415 1_655 S
C276 C275 1.355 . S
C276 C278 1.419 . S
C277 C272 1.425 . S
C277 C274 1.409 . S
C277 C275 1.415 1_455 S
C278 H268 0.930 . S
C278 C276 1.419 . S
C278 C279 1.362 1_655 S
C279 H269 0.930 . S
C279 C272 1.409 . S
C279 C278 1.362 1_455 S
H280 C286 0.930 . S
H281 C289 0.930 . S
H282 C290 0.930 . S
H283 C291 0.930 . S
H284 C294 0.930 . S
H285 C295 0.930 . S
C286 H280 0.930 . S
C286 C287 1.355 . S
C286 C288 1.415 . S
C287 C286 1.355 . S
C287 C289 1.419 . S
C288 C286 1.415 . S
C288 C293 1.425 . S
C288 C295 1.409 . S
C289 H281 0.930 . S
C289 C287 1.419 . S
C289 C290 1.362 . S
C290 H282 0.930 . S
C290 C289 1.362 . S
C290 C293 1.409 . S
C291 H283 0.930 . S
C291 C292 1.355 . S
C291 C293 1.415 1_455 S
C292 C291 1.355 . S
C292 C294 1.419 . S
C293 C288 1.425 . S
C293 C290 1.409 . S
C293 C291 1.415 1_655 S
C294 H284 0.930 . S
C294 C292 1.419 . S
C294 C295 1.362 1_455 S
C295 H285 0.930 . S
C295 C288 1.409 . S
C295 C294 1.362 1_655 S
H296 C302 0.930 . S
H297 C305 0.930 . S
H298 C306 0.930 . S
H299 C307 0.930 . S
H300 C310 0.930 . S
H301 C311 0.930 . S
C302 H296 0.930 . S
C302 C303 1.355 . S
C302 C304 1.415 . S
C303 C302 1.355 . S
C303 C305 1.419 1_654 S
C304 C302 1.415 . S
C304 C309 1.425 1_654 S
C304 C311 1.409 . S
C305 H297 0.930 . S
C305 C303 1.419 1_456 S
C305 C306 1.362 . S
C306 H298 0.930 . S
C306 C305 1.362 . S
C306 C309 1.409 . S
C307 H299 0.930 . S
C307 C308 1.355 1_556 S
C307 C309 1.415 . S
C308 C307 1.355 1_554 S
C308 C310 1.419 1_455 S
C309 C304 1.425 1_456 S
C309 C306 1.409 . S
C309 C307 1.415 . S
C310 H300 0.930 . S
C310 C308 1.419 1_655 S
C310 C311 1.362 . S
C311 H301 0.930 . S
C311 C304 1.409 . S
C311 C310 1.362 . S
H312 C318 0.930 . S
H313 C321 0.930 . S
H314 C322 0.930 . S
H315 C323 0.930 . S
H316 C326 0.930 . S
H317 C327 0.930 . S
C318 H312 0.930 . S
C318 C319 1.355 1_655 S
C318 C320 1.415 . S
C319 C318 1.355 1_455 S
C319 C321 1.419 . S
C320 C318 1.415 . S
C320 C325 1.425 1_655 S
C320 C327 1.409 . S
C321 H313 0.930 . S
C321 C319 1.419 . S
C321 C322 1.362 . S
C322 H314 0.930 . S
C322 C321 1.362 . S
C322 C325 1.409 . S
C323 H315 0.930 . S
C323 C324 1.355 1_455 S
C323 C325 1.415 . S
C324 C323 1.355 1_655 S
C324 C326 1.419 . S
C325 C320 1.425 1_455 S
C325 C322 1.409 . S
C325 C323 1.415 . S
C326 H316 0.930 . S
C326 C324 1.419 . S
C326 C327 1.362 . S
C327 H317 0.930 . S
C327 C320 1.409 . S
C327 C326 1.362 . S
H328 C334 0.930 . S
H329 C337 0.930 . S
H330 C338 0.930 . S
H331 C339 0.930 . S
H332 C342 0.930 . S
H333 C343 0.930 . S
C334 H328 0.930 . S
C334 C335 1.355 . S
C334 C336 1.415 . S
C335 C334 1.355 . S
C335 C337 1.419 1_554 S
C336 C334 1.415 . S
C336 C341 1.425 1_564 S
C336 C343 1.409 1_565 S
C337 H329 0.930 . S
C337 C335 1.419 1_556 S
C337 C338 1.362 . S
C338 H330 0.930 . S
C338 C337 1.362 . S
C338 C341 1.409 1_565 S
C339 H331 0.930 . S
C339 C340 1.355 1_556 S
C339 C341 1.415 . S
C340 C339 1.355 1_554 S
C340 C342 1.419 . S
C341 C336 1.425 1_546 S
C341 C338 1.409 1_545 S
C341 C339 1.415 . S
C342 H332 0.930 . S
C342 C340 1.419 . S
C342 C343 1.362 . S
C343 H333 0.930 . S
C343 C336 1.409 1_545 S
C343 C342 1.362 . S
H344 C350 0.930 . S
H345 C353 0.930 . S
H346 C354 0.930 . S
H347 C355 0.930 . S
H348 C358 0.930 . S
H349 C359 0.930 . S
C350 H344 0.930 . S
C350 C351 1.355 . S
C350 C352 1.415 . S
C351 C350 1.355 . S
C351 C353 1.419 . S
C352 C350 1.415 . S
C352 C357 1.425 1_545 S
C352 C359 1.409 1_545 S
C353 H345 0.930 . S
C353 C351 1.419 . S
C353 C354 1.362 . S
C354 H346 0.930 . S
C354 C353 1.362 . S
C354 C357 1.409 1_545 S
C355 H347 0.930 . S
C355 C356 1.355 . S
C355 C357 1.415 . S
C356 C355 1.355 . S
C356 C358 1.419 . S
C357 C352 1.425 1_565 S
C357 C354 1.409 1_565 S
C357 C355 1.415 . S
C358 H348 0.930 . S
C358 C356 1.419 . S
C358 C359 1.362 . S
C359 H349 0.930 . S
C359 C352 1.409 1_565 S
C359 C358 1.362 . S
H360 C366 0.930 . S
H361 C369 0.930 . S
H362 C370 0.930 . S
H363 C371 0.930 . S
H364 C374 0.930 . S
H365 C375 0.930 . S
C366 H360 0.930 . S
C366 C367 1.355 . S
C366 C368 1.415 . S
C367 C366 1.355 . S
C367 C369 1.419 1_556 S
C368 C366 1.415 . S
C368 C373 1.425 . S
C368 C375 1.409 . S
C369 H361 0.930 . S
C369 C367 1.419 1_554 S
C369 C370 1.362 . S
C370 H362 0.930 . S
C370 C369 1.362 . S
C370 C373 1.409 1_554 S
C371 H363 0.930 . S
C371 C372 1.355 1_554 S
C371 C373 1.415 1_554 S
C372 C371 1.355 1_556 S
C372 C374 1.419 . S
C373 C368 1.425 . S
C373 C370 1.409 1_556 S
C373 C371 1.415 1_556 S
C374 H364 0.930 . S
C374 C372 1.419 . S
C374 C375 1.362 . S
C375 H365 0.930 . S
C375 C368 1.409 . S
C375 C374 1.362 . S
H376 C382 0.930 . S
H377 C385 0.930 . S
H378 C386 0.930 . S
H379 C387 0.930 . S
H380 C390 0.930 . S
H381 C391 0.930 . S
C382 H376 0.930 . S
C382 C383 1.355 1_554 S
C382 C384 1.415 . S
C383 C382 1.355 1_556 S
C383 C385 1.419 . S
C384 C382 1.415 . S
C384 C389 1.425 1_554 S
C384 C391 1.409 . S
C385 H377 0.930 . S
C385 C383 1.419 . S
C385 C386 1.362 . S
C386 H378 0.930 . S
C386 C385 1.362 . S
C386 C389 1.409 . S
C387 H379 0.930 . S
C387 C388 1.355 . S
C387 C389 1.415 . S
C388 C387 1.355 . S
C388 C390 1.419 1_556 S
C389 C384 1.425 1_556 S
C389 C386 1.409 . S
C389 C387 1.415 . S
C390 H380 0.930 . S
C390 C388 1.419 1_554 S
C390 C391 1.362 . S
C391 H381 0.930 . S
C391 C384 1.409 . S
C391 C390 1.362 . S
H392 C398 0.930 . S
H393 C401 0.930 . S
H394 C402 0.930 . S
H395 C403 0.930 . S
H396 C406 0.930 . S
H397 C407 0.930 . S
C398 H392 0.930 . S
C398 C399 1.355 . S
C398 C400 1.415 . S
C399 C398 1.355 . S
C399 C401 1.419 . S
C400 C398 1.415 . S
C400 C405 1.425 . S
C400 C407 1.409 . S
C401 H393 0.930 . S
C401 C399 1.419 . S
C401 C402 1.362 . S
C402 H394 0.930 . S
C402 C401 1.362 . S
C402 C405 1.409 . S
C403 H395 0.930 . S
C403 C404 1.355 . S
C403 C405 1.415 . S
C404 C403 1.355 . S
C404 C406 1.419 . S
C405 C400 1.425 . S
C405 C402 1.409 . S
C405 C403 1.415 . S
C406 H396 0.930 . S
C406 C404 1.419 . S
C406 C407 1.362 . S
C407 H397 0.930 . S
C407 C400 1.409 . S
C407 C406 1.362 . S
H408 C414 0.930 . S
H409 C417 0.930 . S
H410 C418 0.930 . S
H411 C419 0.930 . S
H412 C422 0.930 . S
H413 C423 0.930 . S
C414 H408 0.930 . S
C414 C415 1.355 . S
C414 C416 1.415 . S
C415 C414 1.355 . S
C415 C417 1.419 . S
C416 C414 1.415 . S
C416 C421 1.425 . S
C416 C423 1.409 . S
C417 H409 0.930 . S
C417 C415 1.419 . S
C417 C418 1.362 . S
C418 H410 0.930 . S
C418 C417 1.362 . S
C418 C421 1.409 . S
C419 H411 0.930 . S
C419 C420 1.355 . S
C419 C421 1.415 . S
C420 C419 1.355 . S
C420 C422 1.419 . S
C421 C416 1.425 . S
C421 C418 1.409 . S
C421 C419 1.415 . S
C422 H412 0.930 . S
C422 C420 1.419 . S
C422 C423 1.362 . S
C423 H413 0.930 . S
C423 C416 1.409 . S
C423 C422 1.362 . S
H424 C430 0.930 . S
H425 C433 0.930 . S
H426 C434 0.930 . S
H427 C435 0.930 . S
H428 C438 0.930 . S
H429 C439 0.930 . S
C430 H424 0.930 . S
C430 C431 1.355 1_655 S
C430 C432 1.415 . S
C431 C430 1.355 1_455 S
C431 C433 1.419 . S
C432 C430 1.415 . S
C432 C437 1.425 1_655 S
C432 C439 1.409 . S
C433 H425 0.930 . S
C433 C431 1.419 . S
C433 C434 1.362 . S
C434 H426 0.930 . S
C434 C433 1.362 . S
C434 C437 1.409 . S
C435 H427 0.930 . S
C435 C436 1.355 1_455 S
C435 C437 1.415 . S
C436 C435 1.355 1_655 S
C436 C438 1.419 . S
C437 C432 1.425 1_455 S
C437 C434 1.409 . S
C437 C435 1.415 . S
C438 H428 0.930 . S
C438 C436 1.419 . S
C438 C439 1.362 . S
C439 H429 0.930 . S
C439 C432 1.409 . S
C439 C438 1.362 . S
H440 C446 0.930 . S
H441 C449 0.930 . S
H442 C450 0.930 . S
H443 C451 0.930 . S
H444 C454 0.930 . S
H445 C455 0.930 . S
C446 H440 0.930 . S
C446 C447 1.355 . S
C446 C448 1.415 . S
C447 C446 1.355 . S
C447 C449 1.419 1_655 S
C448 C446 1.415 . S
C448 C453 1.425 1_655 S
C448 C455 1.409 . S
C449 H441 0.930 . S
C449 C447 1.419 1_455 S
C449 C450 1.362 . S
C450 H442 0.930 . S
C450 C449 1.362 . S
C450 C453 1.409 . S
C451 H443 0.930 . S
C451 C452 1.355 . S
C451 C453 1.415 . S
C452 C451 1.355 . S
C452 C454 1.419 1_455 S
C453 C448 1.425 1_455 S
C453 C450 1.409 . S
C453 C451 1.415 . S
C454 H444 0.930 . S
C454 C452 1.419 1_655 S
C454 C455 1.362 . S
C455 H445 0.930 . S
C455 C448 1.409 . S
C455 C454 1.362 . S
H456 C462 0.930 . S
H457 C465 0.930 . S
H458 C466 0.930 . S
H459 C467 0.930 . S
H460 C470 0.930 . S
H461 C471 0.930 . S
C462 H456 0.930 . S
C462 C463 1.355 1_455 S
C462 C464 1.415 . S
C463 C462 1.355 1_655 S
C463 C465 1.419 . S
C464 C462 1.415 . S
C464 C469 1.425 1_455 S
C464 C471 1.409 . S
C465 H457 0.930 . S
C465 C463 1.419 . S
C465 C466 1.362 . S
C466 H458 0.930 . S
C466 C465 1.362 . S
C466 C469 1.409 . S
C467 H459 0.930 . S
C467 C468 1.355 1_655 S
C467 C469 1.415 . S
C468 C467 1.355 1_455 S
C468 C470 1.419 . S
C469 C464 1.425 1_655 S
C469 C466 1.409 . S
C469 C467 1.415 . S
C470 H460 0.930 . S
C470 C468 1.419 . S
C470 C471 1.362 . S
C471 H461 0.930 . S
C471 C464 1.409 . S
C471 C470 1.362 . S
H472 C478 0.930 . S
H473 C481 0.930 . S
H474 C482 0.930 . S
H475 C483 0.930 . S
H476 C486 0.930 . S
H477 C487 0.930 . S
C478 H472 0.930 . S
C478 C479 1.355 1_455 S
C478 C480 1.415 . S
C479 C478 1.355 1_655 S
C479 C481 1.419 . S
C480 C478 1.415 . S
C480 C485 1.425 1_455 S
C480 C487 1.409 . S
C481 H473 0.930 . S
C481 C479 1.419 . S
C481 C482 1.362 . S
C482 H474 0.930 . S
C482 C481 1.362 . S
C482 C485 1.409 . S
C483 H475 0.930 . S
C483 C484 1.355 1_655 S
C483 C485 1.415 . S
C484 C483 1.355 1_455 S
C484 C486 1.419 . S
C485 C480 1.425 1_655 S
C485 C482 1.409 . S
C485 C483 1.415 . S
C486 H476 0.930 . S
C486 C484 1.419 . S
C486 C487 1.362 . S
C487 H477 0.930 . S
C487 C480 1.409 . S
C487 C486 1.362 . S
H488 C494 0.930 . S
H489 C497 0.930 . S
H490 C498 0.930 . S
H491 C499 0.930 . S
H492 C502 0.930 . S
H493 C503 0.930 . S
C494 H488 0.930 . S
C494 C495 1.355 . S
C494 C496 1.415 . S
C495 C494 1.355 . S
C495 C497 1.419 . S
C496 C494 1.415 . S
C496 C501 1.425 . S
C496 C503 1.409 . S
C497 H489 0.930 . S
C497 C495 1.419 . S
C497 C498 1.362 . S
C498 H490 0.930 . S
C498 C497 1.362 . S
C498 C501 1.409 . S
C499 H491 0.930 . S
C499 C500 1.355 . S
C499 C501 1.415 . S
C500 C499 1.355 . S
C500 C502 1.419 . S
C501 C496 1.425 . S
C501 C498 1.409 . S
C501 C499 1.415 . S
C502 H492 0.930 . S
C502 C500 1.419 . S
C502 C503 1.362 . S
C503 H493 0.930 . S
C503 C496 1.409 . S
C503 C502 1.362 . S
H504 C510 0.930 . S
H505 C513 0.930 . S
H506 C514 0.930 . S
H507 C515 0.930 . S
H508 C518 0.930 . S
H509 C519 0.930 . S
C510 H504 0.930 . S
C510 C511 1.355 . S
C510 C512 1.415 . S
C511 C510 1.355 . S
C511 C513 1.419 . S
C512 C510 1.415 . S
C512 C517 1.425 . S
C512 C519 1.409 . S
C513 H505 0.930 . S
C513 C511 1.419 . S
C513 C514 1.362 . S
C514 H506 0.930 . S
C514 C513 1.362 . S
C514 C517 1.409 . S
C515 H507 0.930 . S
C515 C516 1.355 . S
C515 C517 1.415 . S
C516 C515 1.355 . S
C516 C518 1.419 . S
C517 C512 1.425 . S
C517 C514 1.409 . S
C517 C515 1.415 . S
C518 H508 0.930 . S
C518 C516 1.419 . S
C518 C519 1.362 . S
C519 H509 0.930 . S
C519 C512 1.409 . S
C519 C518 1.362 . S
H520 C526 0.930 . S
H521 C529 0.930 . S
H522 C530 0.930 . S
H523 C531 0.930 . S
H524 C534 0.930 . S
H525 C535 0.930 . S
C526 H520 0.930 . S
C526 C527 1.355 . S
C526 C528 1.415 . S
C527 C526 1.355 . S
C527 C529 1.419 . S
C528 C526 1.415 . S
C528 C533 1.425 . S
C528 C535 1.409 . S
C529 H521 0.930 . S
C529 C527 1.419 . S
C529 C530 1.362 . S
C530 H522 0.930 . S
C530 C529 1.362 . S
C530 C533 1.409 . S
C531 H523 0.930 . S
C531 C532 1.355 . S
C531 C533 1.415 . S
C532 C531 1.355 . S
C532 C534 1.419 . S
C533 C528 1.425 . S
C533 C530 1.409 . S
C533 C531 1.415 . S
C534 H524 0.930 . S
C534 C532 1.419 . S
C534 C535 1.362 . S
C535 H525 0.930 . S
C535 C528 1.409 . S
C535 C534 1.362 . S
H536 C542 0.930 . S
H537 C545 0.930 . S
H538 C546 0.930 . S
H539 C547 0.930 . S
H540 C550 0.930 . S
H541 C551 0.930 . S
C542 H536 0.930 . S
C542 C543 1.355 . S
C542 C544 1.415 . S
C543 C542 1.355 . S
C543 C545 1.419 . S
C544 C542 1.415 . S
C544 C549 1.425 . S
C544 C551 1.409 . S
C545 H537 0.930 . S
C545 C543 1.419 . S
C545 C546 1.362 . S
C546 H538 0.930 . S
C546 C545 1.362 . S
C546 C549 1.409 . S
C547 H539 0.930 . S
C547 C548 1.355 . S
C547 C549 1.415 . S
C548 C547 1.355 . S
C548 C550 1.419 . S
C549 C544 1.425 . S
C549 C546 1.409 . S
C549 C547 1.415 . S
C550 H540 0.930 . S
C550 C548 1.419 . S
C550 C551 1.362 . S
C551 H541 0.930 . S
C551 C544 1.409 . S
C551 C550 1.362 . S
C175 C16 1.239 1_556 S
C180 C14 1.230 1_554 S
C191 C35 1.236 1_554 S
C196 C37 1.257 1_556 S
C207 C59 1.239 . S
C212 C55 1.242 . S
C223 C79 1.324 . S
C228 C77 1.326 . S
C239 C100 1.332 1_556 S
C244 C98 1.317 1_554 S
C255 C121 1.336 1_556 S
C260 C119 1.328 1_554 S
C271 C143 1.320 . S
C276 C139 1.316 . S
C287 C161 1.306 . S
C292 C163 1.325 . S
C303 C34 1.478 1_554 S
C308 C13 1.534 1_554 S
C319 C76 1.495 1_455 S
C324 C58 1.505 1_655 S
C335 C97 1.479 1_554 S
C340 C118 1.539 1_554 S
C351 C142 1.495 . S
C356 C160 1.537 . S
C367 C17 1.530 1_556 S
C372 C122 1.532 1_556 S
C383 C101 1.538 1_556 S
C388 C38 1.465 1_556 S
C399 C56 1.489 . S
C404 C164 1.478 . S
C415 C80 1.475 . S
C420 C140 1.549 . S
C431 C18 1.251 . S
C436 C81 1.312 . S
C447 C39 1.373 . S
C452 C57 1.361 . S
C463 C36 1.346 . S
C468 C60 1.270 . S
C479 C78 1.352 . S
C484 C15 1.325 . S
C495 C102 1.258 . S
C500 C165 1.338 . S
C511 C123 1.338 . S
C516 C141 1.381 . S
C527 C120 1.337 . S
C532 C144 1.254 . S
C543 C162 1.271 . S
C548 C99 1.203 . S
