# Generated by pormake.
# Topology wjk, (5)-cn, num edge types: 1
# Building blocks:
#     Node 0, Type 0, BuildingBlock: XOMCOT_clean_sbu_1, # of connection points: 5
#     Node 1, Type 0, BuildingBlock: XOMCOT_clean_sbu_1, # of connection points: 5
#     Node 2, Type 0, BuildingBlock: XOMCOT_clean_sbu_1, # of connection points: 5
#     Node 3, Type 0, BuildingBlock: XOMCOT_clean_sbu_1, # of connection points: 5
#     Node 4, Type 0, BuildingBlock: XOMCOT_clean_sbu_1, # of connection points: 5
#     Node 5, Type 0, BuildingBlock: XOMCOT_clean_sbu_1, # of connection points: 5
#     Node 6, Type 0, BuildingBlock: XOMCOT_clean_sbu_1, # of connection points: 5
#     Node 7, Type 0, BuildingBlock: XOMCOT_clean_sbu_1, # of connection points: 5
#     Node 8, Type 0, BuildingBlock: XOMCOT_clean_sbu_1, # of connection points: 5
#     Node 9, Type 0, BuildingBlock: XOMCOT_clean_sbu_1, # of connection points: 5
#     Node 10, Type 0, BuildingBlock: XOMCOT_clean_sbu_1, # of connection points: 5
#     Node 11, Type 0, BuildingBlock: XOMCOT_clean_sbu_1, # of connection points: 5
#     Edge 12, Type (0, 0), BuildingBlock: AJUNOK_clean_linker_0, # of connection points: 2
#     Edge 13, Type (0, 0), BuildingBlock: AJUNOK_clean_linker_0, # of connection points: 2
#     Edge 14, Type (0, 0), BuildingBlock: AJUNOK_clean_linker_0, # of connection points: 2
#     Edge 15, Type (0, 0), BuildingBlock: AJUNOK_clean_linker_0, # of connection points: 2
#     Edge 16, Type (0, 0), BuildingBlock: AJUNOK_clean_linker_0, # of connection points: 2
#     Edge 17, Type (0, 0), BuildingBlock: AJUNOK_clean_linker_0, # of connection points: 2
#     Edge 18, Type (0, 0), BuildingBlock: AJUNOK_clean_linker_0, # of connection points: 2
#     Edge 19, Type (0, 0), BuildingBlock: AJUNOK_clean_linker_0, # of connection points: 2
#     Edge 20, Type (0, 0), BuildingBlock: AJUNOK_clean_linker_0, # of connection points: 2
#     Edge 21, Type (0, 0), BuildingBlock: AJUNOK_clean_linker_0, # of connection points: 2
#     Edge 22, Type (0, 0), BuildingBlock: AJUNOK_clean_linker_0, # of connection points: 2
#     Edge 23, Type (0, 0), BuildingBlock: AJUNOK_clean_linker_0, # of connection points: 2
#     Edge 24, Type (0, 0), BuildingBlock: AJUNOK_clean_linker_0, # of connection points: 2
#     Edge 25, Type (0, 0), BuildingBlock: AJUNOK_clean_linker_0, # of connection points: 2
#     Edge 26, Type (0, 0), BuildingBlock: AJUNOK_clean_linker_0, # of connection points: 2
#     Edge 27, Type (0, 0), BuildingBlock: AJUNOK_clean_linker_0, # of connection points: 2
#     Edge 28, Type (0, 0), BuildingBlock: AJUNOK_clean_linker_0, # of connection points: 2
#     Edge 29, Type (0, 0), BuildingBlock: AJUNOK_clean_linker_0, # of connection points: 2
#     Edge 30, Type (0, 0), BuildingBlock: AJUNOK_clean_linker_0, # of connection points: 2
#     Edge 31, Type (0, 0), BuildingBlock: AJUNOK_clean_linker_0, # of connection points: 2
#     Edge 32, Type (0, 0), BuildingBlock: AJUNOK_clean_linker_0, # of connection points: 2
#     Edge 33, Type (0, 0), BuildingBlock: AJUNOK_clean_linker_0, # of connection points: 2
#     Edge 34, Type (0, 0), BuildingBlock: AJUNOK_clean_linker_0, # of connection points: 2
#     Edge 35, Type (0, 0), BuildingBlock: AJUNOK_clean_linker_0, # of connection points: 2
#     Edge 36, Type (0, 0), BuildingBlock: AJUNOK_clean_linker_0, # of connection points: 2
#     Edge 37, Type (0, 0), BuildingBlock: AJUNOK_clean_linker_0, # of connection points: 2
#     Edge 38, Type (0, 0), BuildingBlock: AJUNOK_clean_linker_0, # of connection points: 2
#     Edge 39, Type (0, 0), BuildingBlock: AJUNOK_clean_linker_0, # of connection points: 2
#     Edge 40, Type (0, 0), BuildingBlock: AJUNOK_clean_linker_0, # of connection points: 2
#     Edge 41, Type (0, 0), BuildingBlock: AJUNOK_clean_linker_0, # of connection points: 2
# Relax obj value: 0.534
# Max RMSD: 0.262
# Mean RMSD: 0.262
data_MOF--net-wjk--node1-XOMCOT_clean_sbu_1--edge1-AJUNOK_clean_linker_0
_symmetry_space_group_name_H-M    P1
_symmetry_Int_Tables_number       1
_symmetry_cell_setting            triclinic
loop_
_symmetry_equiv_pos_as_xyz
'x, y, z'
_cell_length_a     26.567111
_cell_length_b     26.440979
_cell_length_c     53.653151
_cell_angle_alpha  89.930654
_cell_angle_beta   89.919744
_cell_angle_gamma 120.09076
loop_
_atom_site_label
_atom_site_type_symbol
_atom_site_fract_x
_atom_site_fract_y
_atom_site_fract_z
_atom_type_partial_charge
C0 C 0.12998 0.24935 0.24258 0.0
C1 C 0.08141 0.19922 0.25044 0.0
N2 N 0.09328 0.15542 0.24997 0.0
N3 N 0.17255 0.23746 0.23708 0.0
C4 C 0.1488 0.1795 0.24173 0.0
H5 H 0.13465 0.29235 0.24167 0.0
Co6 Co 0.24794 0.29642 0.2285 0.0
C7 C 0.28093 0.23661 0.18882 0.0
O8 O 0.29794 0.28122 0.17372 0.0
N9 N 0.32422 0.35875 0.22045 0.0
C10 C 0.39624 0.43723 0.20165 0.0
C11 C 0.34266 0.38864 0.19865 0.0
C12 C 0.36821 0.39133 0.23648 0.0
N13 N 0.4119 0.43953 0.22555 0.0
O14 O 0.27505 0.28086 0.25871 0.0
H15 H 0.31766 0.37872 0.1817 0.0
H16 H 0.36737 0.38191 0.25612 0.0
O17 O 0.26114 0.23797 0.2105 0.0
C18 C 0.26331 0.30426 0.27694 0.0
O19 O 0.24254 0.33901 0.27195 0.0
N20 N 0.21744 0.31364 0.20098 0.0
C21 C 0.14171 0.33388 0.17331 0.0
C22 C 0.14661 0.28425 0.16878 0.0
C23 C 0.18378 0.27405 0.18336 0.0
C24 C 0.21695 0.36462 0.20402 0.0
C25 C 0.17937 0.37585 0.19022 0.0
H26 H 0.18016 0.23159 0.18244 0.0
H27 H 0.2416 0.3939 0.21902 0.0
H28 H 0.1724 0.15609 0.24027 0.0
H29 H 0.04084 0.19538 0.25666 0.0
H30 H 0.42129 0.46894 0.18735 0.0
H31 H 0.11628 0.24973 0.1566 0.0
H32 H 0.17524 0.41358 0.19465 0.0
C33 C 0.85174 0.10592 0.57611 0.0
C34 C 0.85667 0.05807 0.58203 0.0
N35 N 0.91297 0.07302 0.57993 0.0
N36 N 0.90448 0.15094 0.5699 0.0
C37 C 0.94116 0.12971 0.57252 0.0
H38 H 0.81233 0.10826 0.57675 0.0
Co39 Co 0.91765 0.22571 0.56172 0.0
C40 C 0.00189 0.25642 0.51847 0.0
O41 O 0.96726 0.26595 0.50439 0.0
N42 N 0.92941 0.30164 0.55405 0.0
C43 C 0.92324 0.37431 0.5358 0.0
C44 C 0.91604 0.31975 0.53269 0.0
C45 C 0.94422 0.34683 0.56995 0.0
N46 N 0.93999 0.39102 0.55938 0.0
O47 O 0.96246 0.25443 0.59164 0.0
H48 H 0.89838 0.29406 0.51604 0.0
H49 H 0.95565 0.3468 0.58926 0.0
O50 O -0.01217 0.24109 0.54135 0.0
C51 C 0.92562 0.24017 0.6095 0.0
O52 O 0.87021 0.21639 0.60386 0.0
N53 N 0.86605 0.19295 0.53532 0.0
C54 C 0.7622 0.10686 0.51558 0.0
C55 C 0.81496 0.11092 0.50841 0.0
C56 C 0.86675 0.154 0.51889 0.0
C57 C 0.81583 0.19352 0.54007 0.0
C58 C 0.76325 0.1512 0.53003 0.0
H59 H 0.90531 0.15054 0.51661 0.0
H60 H 0.81527 0.22234 0.55422 0.0
H61 H -0.01251 0.15537 0.56912 0.0
H62 H 0.82175 0.01599 0.58823 0.0
H63 H 0.91612 0.39945 0.52176 0.0
H64 H 0.81539 0.07632 0.49776 0.0
H65 H 0.72317 0.14866 0.53616 0.0
C66 C 0.7915 0.9038 0.94807 0.0
C67 C 0.84615 0.91114 0.95074 0.0
N68 N 0.88276 0.95528 0.93576 0.0
N69 N 0.79356 0.94332 0.93159 0.0
C70 C 0.84999 0.97453 0.92452 0.0
H71 H 0.75235 0.87091 0.9572 0.0
Co72 Co 0.72726 0.94366 0.92087 0.0
C73 C 0.7639 0.01377 0.87311 0.0
O74 O 0.71463 0.9742 0.8632 0.0
N75 N 0.65801 0.9422 0.91031 0.0
C76 C 0.57118 0.91388 0.89338 0.0
C77 C 0.61704 0.90427 0.89422 0.0
C78 C 0.63576 0.97548 0.9185 0.0
N79 N 0.58278 0.95814 0.90881 0.0
O80 O 0.73824 -0.00286 0.94754 0.0
H81 H 0.61981 0.87194 0.88301 0.0
H82 H 0.65718 0.0111 0.93159 0.0
O83 O 0.77458 0.0079 0.89603 0.0
C84 C 0.70918 0.9642 0.96594 0.0
O85 O 0.67462 0.9083 0.96148 0.0
N86 N 0.71413 0.88427 0.89915 0.0
C87 C 0.69843 0.77933 0.88118 0.0
C88 C 0.73982 0.83248 0.87021 0.0
C89 C 0.74791 0.88502 0.87987 0.0
C90 C 0.67313 0.83277 0.90957 0.0
C91 C 0.66378 0.77968 0.90059 0.0
H92 H 0.78422 0.92554 0.87331 0.0
H93 H 0.64913 0.83319 0.92576 0.0
H94 H 0.86659 0.00944 0.91089 0.0
H95 H 0.8581 0.88617 0.9629 0.0
H96 H 0.53267 0.89097 0.88192 0.0
H97 H 0.76933 0.83359 0.85597 0.0
H98 H 0.63282 0.73956 0.90989 0.0
C99 C 0.87644 0.84426 0.30578 0.0
C100 C 0.92309 0.90032 0.30593 0.0
N101 N 0.92697 0.92442 0.28337 0.0
N102 N 0.85056 0.83287 0.28327 0.0
C103 C 0.88282 0.88242 0.2699 0.0
H104 H 0.86351 0.81324 0.32094 0.0
Co105 Co 0.78914 0.76026 0.27322 0.0
C106 C 0.73884 0.79008 0.22771 0.0
O107 O 0.71885 0.73787 0.21801 0.0
N108 N 0.72788 0.68565 0.26368 0.0
C109 C 0.67952 0.58978 0.2567 0.0
C110 C 0.73297 0.63759 0.26072 0.0
C111 C 0.66988 0.66503 0.26188 0.0
N112 N 0.63969 0.60678 0.25743 0.0
O113 O 0.74135 0.76276 0.29949 0.0
H114 H 0.77238 0.63576 0.26221 0.0
H115 H 0.6502 0.69194 0.26443 0.0
O116 O 0.76469 0.80158 0.24894 0.0
C117 C 0.74401 0.73157 0.31718 0.0
O118 O 0.77258 0.70375 0.31301 0.0
N119 N 0.83889 0.75467 0.25085 0.0
C120 C 0.91444 0.72979 0.22526 0.0
C121 C 0.88849 0.75831 0.21328 0.0
C122 C 0.85083 0.77067 0.22648 0.0
C123 C 0.86697 0.7309 0.26312 0.0
C124 C 0.90318 0.71593 0.2505 0.0
H125 H 0.8333 0.79433 0.21713 0.0
H126 H 0.8586 0.72068 0.28273 0.0
H127 H 0.87472 0.88739 0.25054 0.0
H128 H 0.95305 0.92094 0.32122 0.0
H129 H 0.67057 0.54562 0.25345 0.0
H130 H 0.89861 0.77262 0.19407 0.0
H131 H 0.92236 0.69416 0.26048 0.0
C132 C 0.02451 0.87112 0.63537 0.0
C133 C 0.01574 0.91812 0.63391 0.0
N134 N -0.00873 0.91638 0.61171 0.0
N135 N 0.00502 0.83927 0.61434 0.0
C136 C 0.98472 0.86785 0.60033 0.0
H137 H 0.04504 0.86164 0.65062 0.0
Co138 Co 0.01408 0.77563 0.60589 0.0
C139 C 0.92421 0.71672 0.56435 0.0
O140 O 0.95484 0.6975 0.55268 0.0
N141 N 0.0251 0.71235 0.59791 0.0
C142 C 0.06996 0.6613 0.5922 0.0
C143 C 0.07746 0.71577 0.59596 0.0
C144 C -0.0137 0.65442 0.59607 0.0
N145 N 0.01265 0.62256 0.59218 0.0
O146 O 0.96895 0.73343 0.63411 0.0
H147 H 0.11918 0.75481 0.59791 0.0
H148 H 0.93982 0.63602 0.59812 0.0
O149 O 0.94367 0.74551 0.58469 0.0
C150 C 0.00443 0.73886 0.65136 0.0
O151 O 0.0604 0.76821 0.6463 0.0
N152 N 0.06417 0.82027 0.58059 0.0
C153 C 0.15497 0.89683 0.55012 0.0
C154 C 0.09758 0.86747 0.54123 0.0
C155 C 0.05255 0.82972 0.55687 0.0
C156 C 0.11936 0.85023 0.58975 0.0
C157 C 0.16583 0.88739 0.57462 0.0
H158 H 0.00893 0.8114 0.55006 0.0
H159 H 0.12724 0.8448 0.60907 0.0
H160 H 0.96733 0.8546 0.58174 0.0
H161 H 0.02634 0.95081 0.64818 0.0
H162 H 0.10424 0.65103 0.5895 0.0
H163 H 0.0871 0.87604 0.52277 0.0
H164 H 0.20939 0.9098 0.58226 0.0
C165 C 0.2225 0.10513 0.94106 0.0
C166 C 0.1675 0.09617 0.94505 0.0
N167 N 0.12933 0.04754 0.93274 0.0
N168 N 0.21921 0.06237 0.92632 0.0
C169 C 0.16186 0.02798 0.92146 0.0
H170 H 0.26259 0.14124 0.94805 0.0
Co171 Co 0.28403 0.06005 0.91474 0.0
C172 C 0.23519 0.96491 0.87566 0.0
O173 O 0.27895 -0.00518 0.86039 0.0
N174 N 0.3515 0.05943 0.90323 0.0
C175 C 0.43153 0.07773 0.88221 0.0
C176 C 0.38418 0.08531 0.88264 0.0
C177 C 0.38025 0.03581 0.91474 0.0
N178 N 0.42887 0.04662 0.90241 0.0
O179 O 0.27999 0.01622 0.94316 0.0
H180 H 0.37433 0.1075 0.86823 0.0
H181 H 0.3666 0.01148 0.93198 0.0
O182 O 0.23354 0.98676 0.89673 0.0
C183 C 0.30818 0.04804 0.96159 0.0
O184 O 0.33869 0.10499 0.95849 0.0
N185 N 0.28859 0.10741 0.8888 0.0
C186 C 0.29968 0.19101 0.85494 0.0
C187 C 0.25503 0.13271 0.85248 0.0
C188 C 0.2494 0.09169 0.86995 0.0
C189 C 0.33106 0.16426 0.89204 0.0
C190 C 0.33794 0.20708 0.87503 0.0
H191 H 0.21199 0.04841 0.86891 0.0
H192 H 0.35951 0.17612 0.90803 0.0
H193 H 0.14448 0.99072 0.90912 0.0
H194 H 0.15642 0.12338 0.95615 0.0
H195 H 0.46454 0.09251 0.86781 0.0
H196 H 0.22248 0.11967 0.83797 0.0
H197 H 0.37131 0.25219 0.87791 0.0
C198 C 0.73324 0.86866 0.45329 0.0
C199 C 0.78583 0.91661 0.44732 0.0
N200 N 0.82732 0.90183 0.44932 0.0
N201 N 0.74126 0.82372 0.45945 0.0
C202 C 0.79914 0.84514 0.45672 0.0
H203 H 0.69147 0.86638 0.45279 0.0
Co204 Co 0.68015 0.74877 0.46766 0.0
C205 C 0.73143 0.71784 0.5114 0.0
O206 O 0.68471 0.70438 0.52446 0.0
N207 N 0.61605 0.67267 0.47534 0.0
C208 C 0.53548 0.60125 0.49311 0.0
C209 C 0.5825 0.6559 0.49618 0.0
C210 C 0.58714 0.62648 0.45976 0.0
N211 N 0.5377 0.58309 0.47002 0.0
O212 O 0.69812 0.72004 0.43823 0.0
H213 H 0.58907 0.68247 0.51244 0.0
H214 H 0.60033 0.62531 0.44081 0.0
O215 O 0.73483 0.73467 0.48865 0.0
C216 C 0.67443 0.7327 0.42034 0.0
O217 O 0.63936 0.7525 0.4261 0.0
N218 N 0.65996 0.78162 0.49356 0.0
C219 C 0.64121 0.86722 0.51326 0.0
C220 C 0.68846 0.86171 0.52138 0.0
C221 C 0.6979 0.81909 0.51083 0.0
C222 C 0.61038 0.78243 0.48772 0.0
C223 C 0.59988 0.82486 0.49753 0.0
H224 H 0.73935 0.82186 0.5139 0.0
H225 H 0.58256 0.7547 0.47297 0.0
H226 H 0.82003 0.81962 0.46002 0.0
H227 H 0.79281 0.95869 0.44119 0.0
H228 H 0.50189 0.57707 0.50681 0.0
H229 H 0.72228 0.89514 0.53287 0.0
H230 H 0.56388 0.82894 0.49048 0.0
C231 C 0.86309 0.72445 0.7905 0.0
C232 C 0.86127 0.77319 0.78317 0.0
N233 N 0.91586 0.81904 0.78328 0.0
N234 N 0.91859 0.73911 0.79527 0.0
C235 C 0.95003 0.79731 0.79068 0.0
H236 H 0.82638 0.68049 0.79153 0.0
Co237 Co 0.93907 0.68285 0.80332 0.0
C238 C 0.03671 0.74671 0.84022 0.0
O239 O 0.01392 0.70124 0.85507 0.0
N240 N 0.95698 0.62298 0.81089 0.0
C241 C 0.95568 0.54639 0.82918 0.0
C242 C 0.94763 0.59312 0.83259 0.0
C243 C 0.97005 0.59219 0.79451 0.0
N244 N 0.96942 0.54554 0.80519 0.0
O245 O 0.97742 0.6974 0.77196 0.0
H246 H 0.93245 0.60203 0.8498 0.0
H247 H 0.97633 0.60132 0.77478 0.0
O248 O 0.01202 0.74429 0.81936 0.0
C249 C 0.93968 0.67138 0.75487 0.0
O250 O 0.88564 0.6352 0.76157 0.0
N251 N 0.8953 0.66652 0.83215 0.0
C252 C 0.8017 0.64962 0.8607 0.0
C253 C 0.85678 0.69873 0.86458 0.0
C254 C 0.90296 0.70728 0.84954 0.0
C255 C 0.84368 0.61536 0.83022 0.0
C256 C 0.79595 0.60575 0.84452 0.0
H257 H 0.94181 0.7497 0.84974 0.0
H258 H 0.83771 0.58495 0.81549 0.0
H259 H -0.00297 0.82259 0.7916 0.0
H260 H 0.82286 0.77469 0.77764 0.0
H261 H 0.95017 0.51445 0.84317 0.0
H262 H 0.86209 0.7343 0.8764 0.0
H263 H 0.75367 0.56809 0.84076 0.0
C264 C 0.12533 0.91269 0.07278 0.0
C265 C 0.07976 0.92259 0.06931 0.0
N266 N 0.07941 0.95565 0.08829 0.0
N267 N 0.15426 0.94013 0.09365 0.0
C268 C 0.12506 0.9658 0.10282 0.0
H269 H 0.13635 0.88659 0.06094 0.0
Co270 Co 0.21753 0.936 0.10589 0.0
C271 C 0.26987 0.02779 0.146 0.0
O272 O 0.28846 -0.00258 0.15833 0.0
N273 N 0.28146 0.9298 0.11782 0.0
C274 C 0.33572 0.89648 0.13495 0.0
C275 C 0.28074 0.88811 0.13281 0.0
C276 C 0.3382 0.96344 0.11143 0.0
N277 N 0.37173 0.9437 0.12144 0.0
O278 O 0.26219 0.98145 0.07854 0.0
H279 H 0.24325 0.85327 0.14195 0.0
H280 H 0.3546 0.00095 0.09919 0.0
O281 O 0.2421 0.0079 0.1255 0.0
C282 C 0.26411 0.95016 0.06095 0.0
O283 O 0.24166 0.89383 0.0649 0.0
N284 N 0.1702 0.88694 0.13061 0.0
C285 C 0.0977 0.7996 0.16322 0.0
C286 C 0.12005 0.85864 0.16936 0.0
C287 C 0.15554 0.90178 0.1526 0.0
C288 C 0.14566 0.82986 0.12355 0.0
C289 C 0.10964 0.78509 0.1398 0.0
H290 H 0.16891 0.94632 0.15714 0.0
H291 H 0.15569 0.81934 0.10541 0.0
H292 H 0.13719 0.99173 0.11965 0.0
H293 H 0.04877 0.9062 0.05415 0.0
H294 H 0.34844 0.87023 0.14584 0.0
H295 H 0.10795 0.87136 0.18654 0.0
H296 H 0.09078 0.73992 0.13407 0.0
C297 C 0.14237 0.10407 0.39535 0.0
C298 C 0.08633 0.05767 0.39625 0.0
N299 N 0.0626 0.05913 0.41826 0.0
N300 N 0.15396 0.1354 0.41652 0.0
C301 C 0.10428 0.10709 0.43004 0.0
H302 H 0.17305 0.11339 0.38037 0.0
Co303 Co 0.22677 0.19802 0.42546 0.0
C304 C 0.19803 0.25855 0.46663 0.0
O305 O 0.24758 0.27447 0.47794 0.0
N306 N 0.30139 0.2604 0.43385 0.0
C307 C 0.39678 0.31047 0.44076 0.0
C308 C 0.34956 0.25614 0.43722 0.0
C309 C 0.32136 0.31865 0.4346 0.0
N310 N 0.37923 0.34997 0.4392 0.0
O311 O 0.22699 0.24026 0.39651 0.0
H312 H 0.35174 0.21663 0.43639 0.0
H313 H 0.29409 0.3376 0.43132 0.0
O314 O 0.18688 0.23063 0.44592 0.0
C315 C 0.25769 0.23285 0.38012 0.0
O316 O 0.28257 0.20259 0.38653 0.0
N317 N 0.22932 0.15306 0.45148 0.0
C318 C 0.24545 0.08156 0.48437 0.0
C319 C 0.21397 0.10874 0.4916 0.0
C320 C 0.20567 0.14376 0.47476 0.0
C321 C 0.25568 0.12306 0.44358 0.0
C322 C 0.26568 0.08821 0.45989 0.0
H323 H 0.17789 0.16033 0.48034 0.0
H324 H 0.27013 0.1273 0.42444 0.0
H325 H 0.0993 0.12011 0.44857 0.0
H326 H 0.0648 0.02554 0.38174 0.0
H327 H 0.4408 0.32014 0.4444 0.0
H328 H 0.1933 0.10068 0.50974 0.0
H329 H 0.28778 0.06573 0.45329 0.0
C330 C -0.01052 0.12058 0.72365 0.0
C331 C 0.97875 0.064 0.72455 0.0
N332 N 0.97112 0.04671 0.74855 0.0
N333 N -0.01231 0.13871 0.74696 0.0
C334 C 0.97644 0.09264 0.76174 0.0
H335 H -0.00064 0.14706 0.70704 0.0
Co336 Co 0.00515 0.21383 0.75654 0.0
C337 C 0.9334 0.19275 0.80417 0.0
O338 O 0.96888 0.24607 0.81205 0.0
N339 N 0.0245 0.29061 0.76578 0.0
C340 C 0.07783 0.38648 0.77224 0.0
C341 C 0.07925 0.33608 0.76861 0.0
C342 C -0.0095 0.31524 0.76743 0.0
N343 N 0.02216 0.37358 0.77127 0.0
O344 O 0.9539 0.21397 0.73106 0.0
H345 H 0.11864 0.33404 0.76754 0.0
H346 H 0.94364 0.29107 0.76549 0.0
O347 O 0.94223 0.17703 0.78266 0.0
C348 C -0.01074 0.24467 0.71358 0.0
O349 O 0.04517 0.26745 0.71775 0.0
N350 N 0.06213 0.21743 0.77738 0.0
C351 C 0.16793 0.24734 0.79912 0.0
C352 C 0.11696 0.22446 0.81365 0.0
C353 C 0.06416 0.20982 0.80238 0.0
C354 C 0.11004 0.23418 0.76283 0.0
C355 C 0.16373 0.25106 0.77334 0.0
H356 H 0.02586 0.19196 0.81383 0.0
H357 H 0.10714 0.23792 0.74291 0.0
H358 H 0.97254 0.09292 0.78181 0.0
H359 H 0.97799 0.038 0.70883 0.0
H360 H 0.11497 0.42936 0.77567 0.0
H361 H 0.1175 0.21664 0.83343 0.0
H362 H 0.20154 0.2669 0.76136 0.0
C363 C 0.88357 0.09937 0.09144 0.0
C364 C 0.93028 0.09236 0.08623 0.0
N365 N 0.92137 0.04282 0.09727 0.0
N366 N 0.84494 0.05419 0.10553 0.0
C367 C 0.86923 0.02028 0.10886 0.0
H368 H 0.87814 0.13539 0.08543 0.0
Co369 Co 0.77569 0.04842 0.11665 0.0
C370 C 0.74851 0.97608 0.16356 0.0
O371 O 0.73942 0.01485 0.17468 0.0
N372 N 0.70514 0.04463 0.12755 0.0
C373 C 0.64355 0.06639 0.14659 0.0
C374 C 0.69856 0.07476 0.14656 0.0
C375 C 0.65209 0.0176 0.11652 0.0
N376 N 0.61464 0.03116 0.12751 0.0
O377 O 0.73642 -0.00308 0.08896 0.0
H378 H 0.7314 0.10184 0.15993 0.0
H379 H 0.64116 0.98979 0.10031 0.0
O380 O 0.76182 0.98243 0.1402 0.0
C381 C 0.74328 0.03249 0.07119 0.0
O382 O 0.76319 0.08754 0.07698 0.0
N383 N 0.81878 0.10645 0.13949 0.0
C384 C 0.90811 0.21172 0.15681 0.0
C385 C 0.90094 0.15876 0.16601 0.0
C386 C 0.85641 0.10614 0.15665 0.0
C387 C 0.8237 0.15777 0.13146 0.0
C388 C 0.8676 0.21107 0.1402 0.0
H389 H 0.85624 0.06626 0.16116 0.0
H390 H 0.79584 0.15737 0.1167 0.0
H391 H 0.84889 0.97959 0.11917 0.0
H392 H 0.96816 0.1216 0.07528 0.0
H393 H 0.62589 0.08439 0.15979 0.0
H394 H 0.9333 0.15822 0.17812 0.0
H395 H 0.87318 0.25128 0.13226 0.0
C396 C 0.55117 0.51039 0.26158 0.0
C397 C 0.57843 0.56877 0.25317 0.0
C398 C 0.49526 0.46895 0.25359 0.0
C399 C 0.46475 0.48433 0.23677 0.0
H400 H 0.5743 0.49613 0.27365 0.0
H401 H 0.47717 0.42395 0.25949 0.0
S402 S 0.51303 0.63309 0.21215 0.0
N403 N 0.56831 0.64099 0.22913 0.0
N404 N 0.46252 0.56346 0.21453 0.0
C405 C 0.48968 0.54344 0.22969 0.0
C406 C 0.54666 0.58566 0.23785 0.0
C407 C 0.0164 0.53143 0.59511 0.0
C408 C -0.01274 0.56092 0.58734 0.0
C409 C -0.00105 0.47469 0.58693 0.0
C410 C 0.9518 0.44539 0.57059 0.0
H411 H 0.05435 0.55323 0.60695 0.0
H412 H 0.02434 0.45484 0.59242 0.0
S413 S 0.85571 0.49974 0.54757 0.0
N414 N 0.90566 0.55433 0.56419 0.0
N415 N 0.87158 0.44695 0.54946 0.0
C416 C 0.91971 0.47268 0.56409 0.0
C417 C 0.93763 0.53057 0.57237 0.0
C418 C 0.52849 0.06317 0.90455 0.0
C419 C 0.46836 0.02633 0.90837 0.0
C420 C 0.56701 0.04177 0.90674 0.0
C421 C 0.5462 0.9828 0.91243 0.0
H422 H 0.54542 0.10824 0.899 0.0
H423 H 0.61259 0.07032 0.90238 0.0
S424 S 0.39392 0.86981 0.92619 0.0
N425 N 0.39065 0.92921 0.91981 0.0
N426 N 0.46327 0.8891 0.92379 0.0
C427 C 0.48686 0.94646 0.91766 0.0
C428 C 0.44778 0.96823 0.91568 0.0
C429 C 0.51432 0.49703 0.44422 0.0
C430 C 0.49569 0.52831 0.459 0.0
C431 C 0.47515 0.43984 0.43656 0.0
C432 C 0.41587 0.41186 0.44332 0.0
H433 H 0.55995 0.51575 0.43964 0.0
H434 H 0.4918 0.41653 0.42597 0.0
S435 S 0.34381 0.4784 0.47874 0.0
N436 N 0.41287 0.53017 0.4774 0.0
N437 N 0.33971 0.42196 0.46376 0.0
C438 C 0.39601 0.44415 0.45665 0.0
C439 C 0.43586 0.5025 0.46437 0.0
C440 C 0.94493 0.44257 0.80175 0.0
C441 C 0.9775 0.50104 0.79355 0.0
C442 C 0.95693 0.39976 0.79304 0.0
C443 C 0.00217 0.41409 0.77596 0.0
H444 H 0.91093 0.43016 0.81554 0.0
H445 H 0.933 0.35605 0.80076 0.0
S446 S 0.09572 0.55873 0.74646 0.0
N447 N 0.05372 0.56962 0.76582 0.0
N448 N 0.0756 0.48887 0.74915 0.0
C449 C 0.03255 0.47137 0.76642 0.0
C450 C 0.02032 0.51493 0.77525 0.0
C451 C 0.45614 0.92963 0.11707 0.0
C452 C 0.43334 0.96745 0.11889 0.0
C453 C 0.51617 0.95114 0.11814 0.0
C454 C 0.55507 0.01102 0.12137 0.0
H455 H 0.42713 0.8829 0.1156 0.0
H456 H 0.53204 0.92057 0.11792 0.0
S457 S 0.51815 0.12872 0.12456 0.0
N458 N 0.45468 0.06792 0.12219 0.0
N459 N 0.56766 0.10841 0.12399 0.0
C460 C 0.53314 0.04958 0.12172 0.0
C461 C 0.47216 0.02778 0.1205 0.0
C462 C 0.23939 0.28865 0.347 0.0
C463 C 0.26257 0.25329 0.35397 0.0
C464 C 0.24146 0.30615 0.32217 0.0
C465 C 0.26639 0.28866 0.30323 0.0
H466 H 0.21894 0.30251 0.36076 0.0
H467 H 0.22209 0.33266 0.31778 0.0
S468 S 0.33506 0.19756 0.31165 0.0
N469 N 0.31308 0.20272 0.33982 0.0
N470 N 0.31628 0.23541 0.29329 0.0
C471 C 0.29068 0.2542 0.30996 0.0
C472 C 0.28895 0.2366 0.33527 0.0
C473 C 0.90096 0.20687 0.65379 0.0
C474 C 0.94208 0.24508 0.63616 0.0
C475 C 0.91516 0.20851 0.67912 0.0
C476 C 0.97091 0.24885 0.68783 0.0
H477 H 0.85777 0.17407 0.64788 0.0
H478 H 0.88295 0.17664 0.69172 0.0
S479 S 0.09183 0.36354 0.64974 0.0
N480 N 0.03905 0.32725 0.62951 0.0
N481 N 0.06586 0.33199 0.67699 0.0
C482 C 0.01148 0.28929 0.67051 0.0
C483 C -0.00285 0.28692 0.64472 0.0
C484 C 0.69751 0.95779 0.03698 0.0
C485 C 0.73451 0.01578 0.04432 0.0
C486 C 0.68877 0.9424 1.01163 0.0
C487 C 0.71723 0.98413 0.99243 0.0
H488 H 0.67476 0.92408 0.05089 0.0
H489 H 0.65977 0.89686 1.00714 0.0
S490 S 0.82061 0.14194 1.00174 0.0
N491 N 0.80106 0.11542 0.03021 0.0
N492 N 0.78473 0.08591 0.98282 0.0
C493 C 0.75457 0.04224 0.99953 0.0
C494 C 0.76317 0.05813 0.02534 0.0
C495 C 0.71813 0.70097 0.3867 0.0
C496 C 0.68893 0.73056 0.39372 0.0
C497 C 0.7341 0.70053 0.36182 0.0
C498 C 0.72218 0.73023 0.34286 0.0
H499 H 0.72906 0.67815 0.40052 0.0
H500 H 0.75701 0.67733 0.35761 0.0
S501 S 0.64627 0.81437 0.35133 0.0
N502 N 0.64799 0.79013 0.37951 0.0
N503 N 0.6787 0.78945 0.3329 0.0
C504 C 0.69246 0.75951 0.34954 0.0
C505 C 0.6757 0.75964 0.37489 0.0
C506 C 0.0282 0.73151 0.6957 0.0
C507 C 0.98559 0.71762 0.67717 0.0
C508 C 0.01302 0.71559 0.72064 0.0
C509 C 0.95455 0.68463 0.72812 0.0
H510 H 0.07407 0.7559 0.69108 0.0
H511 H 0.0475 0.72813 0.73417 0.0
S512 S 0.82589 0.63589 0.68689 0.0
N513 N 0.88228 0.66991 0.668 0.0
N514 N 0.85332 0.63946 0.71485 0.0
C515 C 0.91126 0.66922 0.70973 0.0
C516 C 0.92686 0.68584 0.68428 0.0
C517 C 0.31682 0.05859 1.0077 0.0
C518 C 0.3031 0.0226 0.98657 0.0
C519 C 0.30645 0.03506 0.03175 0.0
C520 C 0.28244 0.97469 0.03561 0.0
H521 H 0.33358 0.10512 1.0057 0.0
H522 H 0.31571 0.0643 0.04739 0.0
S523 S 0.24582 0.86266 0.98639 0.0
N524 N 0.26923 0.92451 0.97095 0.0
N525 N 0.25012 0.87996 0.01617 0.0
C526 C 0.27171 0.93861 1.01463 0.0
C527 C 0.28184 0.96263 0.9901 0.0
C528 C 0.03694 0.0485 0.24326 0.0
C529 C 0.05544 0.09703 0.25903 0.0
C530 C -0.00541 0.9921 0.2512 0.0
C531 C 0.97023 0.98241 0.27532 0.0
H532 H 0.05407 0.05459 0.22448 0.0
H533 H 0.981 0.9558 0.23848 0.0
S534 S 0.00573 0.09557 0.3237 0.0
N535 N 0.04737 0.13198 0.29975 0.0
N536 N 0.96838 0.02662 0.31477 0.0
C537 C -0.01057 0.03074 0.29131 0.0
C538 C 0.03186 0.08787 0.28314 0.0
C539 C 0.90436 0.97551 0.58068 0.0
C540 C 0.93659 0.03576 0.58599 0.0
C541 C 0.92332 0.93714 0.58848 0.0
C542 C 0.97491 0.9573 0.60223 0.0
H543 H 0.86367 0.95777 0.57064 0.0
H544 H 0.89646 0.89104 0.58442 0.0
S545 S 0.0773 0.11151 0.6196 0.0
N546 N 0.02398 0.11404 0.60496 0.0
N547 N 0.06008 0.0422 0.6193 0.0
C548 C 0.00856 0.01772 0.60697 0.0
C549 C -0.01061 0.05688 0.59889 0.0
C550 C 0.04346 0.06055 0.93186 0.0
C551 C 0.06712 0.02329 0.93161 0.0
C552 C 0.98313 0.0381 0.93233 0.0
C553 C 0.94424 0.97756 0.93286 0.0
H554 H 0.07187 0.10751 0.93184 0.0
H555 H 0.96678 0.06824 0.93309 0.0
S556 S 0.98314 0.86112 0.93061 0.0
N557 N 0.04635 0.92263 0.93081 0.0
N558 N 0.93308 0.88065 0.93128 0.0
C559 C 0.96708 0.93979 0.93177 0.0
C560 C 0.02848 0.96258 0.9312 0.0
C561 C 0.91603 -0.0007 0.44897 0.0
C562 C 0.88809 0.93926 0.44325 0.0
C563 C 0.97342 0.03785 0.44132 0.0
C564 C 0.00498 0.01805 0.42735 0.0
H565 H 0.893 0.01672 0.45925 0.0
H566 H -0.00738 0.08381 0.44571 0.0
S567 S 0.9529 0.86449 0.40857 0.0
N568 N 0.89704 0.86162 0.42341 0.0
N569 N 0.00512 0.93364 0.40942 0.0
C570 C 0.97813 0.95782 0.4221 0.0
C571 C 0.91973 0.91853 0.43 0.0
C572 C 0.90684 0.88402 0.75295 0.0
C573 C 0.9329 0.87702 0.77449 0.0
C574 C 0.91991 0.93952 0.74459 0.0
C575 C 0.95883 0.99028 0.75767 0.0
H576 H 0.87609 0.84611 0.74243 0.0
H577 H 0.89862 0.94274 0.72797 0.0
S578 S 0.03968 -0.00403 0.81493 0.0
N579 N 0.00024 0.92549 0.80853 0.0
N580 N 0.02466 0.0302 0.79293 0.0
C581 C 0.98557 0.98407 0.77918 0.0
C582 C 0.9728 0.92737 0.78752 0.0
C583 C 0.98477 0.01909 0.07254 0.0
C584 C 0.95934 0.01878 0.09557 0.0
C585 C 0.02373 -0.00175 0.07038 0.0
C586 C 0.03966 0.97731 0.09126 0.0
H587 H 0.97411 0.03533 0.05601 0.0
H588 H 0.04225 -0.00072 0.05227 0.0
S589 S 0.98553 0.96738 0.15586 0.0
N590 N 0.95259 -0.00434 0.13971 0.0
N591 N 0.02651 0.95684 0.13572 0.0
C592 C 0.01471 0.97685 0.11447 0.0
C593 C 0.97423 -0.00268 0.11659 0.0
C594 C -0.01281 0.28573 0.18307 0.0
C595 C 0.9652 0.26452 0.15927 0.0
C596 C 0.04715 0.31899 0.18688 0.0
C597 C 0.08622 0.33016 0.16707 0.0
H598 H 0.9584 0.27143 0.19909 0.0
H599 H 0.06276 0.32867 0.20591 0.0
S600 S 0.04935 0.29422 0.10063 0.0
N601 N -0.0141 0.26558 0.11503 0.0
N602 N 0.09908 0.32697 0.12247 0.0
C603 C 0.06448 0.31616 0.14278 0.0
C604 C 0.0035 0.28316 0.13882 0.0
C605 C 0.69219 0.01869 0.49214 0.0
C606 C 0.70934 0.0489 0.51482 0.0
C607 C 0.6609 0.95763 0.49185 0.0
C608 C 0.64716 0.92547 0.51424 0.0
H609 H 0.70847 0.04202 0.47469 0.0
H610 H 0.65413 0.9358 0.47406 0.0
S611 S 0.67161 0.98425 0.57826 0.0
N612 N 0.70093 0.04258 0.56008 0.0
N613 N 0.64392 0.92746 0.55932 0.0
C614 C 0.65735 0.95509 0.53687 0.0
C615 C 0.68808 0.01719 0.5372 0.0
C616 C 0.74397 0.66874 0.89133 0.0
C617 C 0.75123 0.65585 0.86671 0.0
C618 C 0.71919 0.70344 0.89621 0.0
C619 C 0.70178 0.72643 0.87652 0.0
H620 H 0.76391 0.65813 0.90654 0.0
H621 H 0.72013 0.71791 0.91518 0.0
S622 S 0.6991 0.69369 0.80945 0.0
N623 N 0.7288 0.65881 0.82294 0.0
N624 N 0.68317 0.72525 0.83225 0.0
C625 C 0.70143 0.70717 0.85224 0.0
C626 C 0.72572 0.67108 0.8473 0.0
C627 C -0.00327 0.72231 0.17066 0.0
C628 C 0.05374 0.75509 0.17972 0.0
C629 C 0.94957 0.70581 0.18668 0.0
C630 C 0.95875 0.72229 0.21191 0.0
H631 H -0.01147 0.71678 0.1508 0.0
H632 H 0.90639 0.68664 0.17871 0.0
S633 S 0.09978 0.78957 0.24542 0.0
N634 N 0.1166 0.78763 0.21594 0.0
N635 N 0.0283 0.75942 0.24618 0.0
C636 C 0.01502 0.74503 0.2218 0.0
C637 C 0.06273 0.76055 0.20553 0.0
C638 C 0.20217 0.93408 0.50914 0.0
C639 C 0.20047 0.94367 0.5348 0.0
C640 C 0.22482 0.98083 0.49244 0.0
C641 C 0.24695 0.03824 0.50111 0.0
H642 H 0.1798 0.89002 0.50175 0.0
H643 H 0.2184 0.97115 0.4727 0.0
S644 S 0.27016 0.08732 0.56677 0.0
N645 N 0.2349 0.01525 0.56838 0.0
N646 N 0.28036 0.10339 0.53677 0.0
C647 C 0.25515 0.04886 0.5268 0.0
C648 C 0.23114 0.00129 0.54382 0.0
C649 C 0.29175 0.22337 0.81315 0.0
C650 C 0.29745 0.23454 0.83884 0.0
C651 C 0.25424 0.23444 0.79911 0.0
C652 C 0.22318 0.25856 0.8104 0.0
H653 H 0.30839 0.19724 0.80489 0.0
H654 H 0.24415 0.21701 0.78037 0.0
S655 S 0.24429 0.31855 0.87428 0.0
N656 N 0.28397 0.2865 0.87316 0.0
N657 N 0.21581 0.31081 0.84623 0.0
C658 C 0.23889 0.28146 0.83456 0.0
C659 C 0.27625 0.26912 0.84896 0.0
C660 C 0.27794 0.17483 0.15283 0.0
C661 C 0.27799 0.18253 0.17888 0.0
C662 C 0.27505 0.12474 0.14245 0.0
C663 C 0.27331 0.08056 0.15761 0.0
H664 H 0.27947 0.20754 0.14019 0.0
H665 H 0.27476 0.12092 0.12234 0.0
S666 S 0.27069 0.07804 0.22689 0.0
N667 N 0.27435 0.14049 0.21958 0.0
N668 N 0.27017 0.04687 0.20015 0.0
C669 C 0.27322 0.08743 0.1837 0.0
C670 C 0.27513 0.13814 0.19429 0.0
C671 C 0.057 0.25864 0.47996 0.0
C672 C 0.05348 0.25801 0.50627 0.0
C673 C 0.10385 0.25939 0.46741 0.0
C674 C 0.1502 0.26067 0.4805 0.0
H675 H 0.02272 0.25772 0.46872 0.0
H676 H 0.1037 0.25902 0.44721 0.0
S677 S 0.16227 0.2581 0.54955 0.0
N678 N 0.1005 0.25745 0.54496 0.0
N679 N 0.18905 0.25993 0.52154 0.0
C680 C 0.14761 0.26029 0.50685 0.0
C681 C 0.09923 0.2586 0.51966 0.0
C682 C 0.84158 0.09707 0.8135 0.0
C683 C 0.89043 0.14833 0.82217 0.0
C684 C 0.80127 0.05469 0.83012 0.0
C685 C 0.80824 0.06068 0.8563 0.0
H686 H 0.83408 0.08974 0.79365 0.0
H687 H 0.76443 0.01637 0.8222 0.0
S688 S 0.9306 0.18518 0.88887 0.0
N689 N 0.94433 0.20176 0.85902 0.0
N690 N 0.86937 0.12175 0.88993 0.0
C691 C 0.85745 0.11122 0.86525 0.0
C692 C 0.89814 0.15498 0.84833 0.0
C693 C 0.72514 0.82797 0.18624 0.0
C694 C 0.74124 0.83809 0.2117 0.0
C695 C 0.72927 0.87275 0.17043 0.0
C696 C 0.74893 0.92953 0.17944 0.0
H697 H 0.70938 0.78501 0.17829 0.0
H698 H 0.71568 0.86243 0.15119 0.0
S699 S 0.79995 0.98077 0.244 0.0
N700 N 0.77999 0.91079 0.24462 0.0
N701 N 0.78761 -0.00585 0.21528 0.0
C702 C 0.76601 0.9405 0.20472 0.0
C703 C 0.76218 0.89516 0.22071 0.0
C704 C 0.81957 0.70486 0.51246 0.0
C705 C 0.78174 0.71955 0.5246 0.0
C706 C 0.86448 0.70264 0.52555 0.0
C707 C 0.87408 0.71601 0.55125 0.0
H708 H 0.81375 0.69386 0.49283 0.0
H709 H 0.8923 0.69094 0.51531 0.0
S710 S 0.78912 0.76077 0.59132 0.0
N711 N 0.75838 0.74999 0.56365 0.0
N712 N 0.84236 0.74629 0.58797 0.0
C713 C 0.83706 0.73183 0.56342 0.0
C714 C 0.79115 0.73351 0.5502 0.0
C715 C 0.1738 0.8973 0.84133 0.0
C716 C 0.18438 0.90912 0.86704 0.0
C717 C 0.12553 0.84534 0.83271 0.0
C718 C 0.0866 0.80255 0.84944 0.0
H719 H 0.20268 0.92875 0.82769 0.0
H720 H 0.11921 0.83827 0.8128 0.0
S721 S 0.09408 0.81266 0.91865 0.0
N722 N 0.15103 0.87407 0.90907 0.0
N723 N 0.06124 0.77649 0.8931 0.0
C724 C 0.09659 0.81404 0.87521 0.0
C725 C 0.14514 0.86723 0.88394 0.0
loop_
_geom_bond_atom_site_label_1
_geom_bond_atom_site_label_2
_geom_bond_distance
_geom_bond_site_symmetry_2
_ccdc_geom_bond_type
C0 C1 1.351 . S
C0 N3 1.368 . S
C0 H5 0.931 . S
C1 C0 1.351 . S
C1 N2 1.373 . S
C1 H29 0.930 . S
N2 C1 1.373 . S
N2 C4 1.340 . S
N3 C0 1.368 . S
N3 C4 1.321 . S
N3 Co6 2.135 . S
C4 N2 1.340 . S
C4 N3 1.321 . S
C4 H28 0.930 . S
H5 C0 0.931 . S
Co6 N3 2.135 . S
Co6 N9 2.121 . S
Co6 O14 2.055 . S
Co6 O17 2.039 . S
Co6 N20 2.140 . S
C7 O8 1.227 . S
C7 O17 1.265 . S
O8 C7 1.227 . S
N9 Co6 2.121 . S
N9 C11 1.375 . S
N9 C12 1.313 . S
C10 C11 1.338 . S
C10 N13 1.377 . S
C10 H30 0.930 . S
C11 N9 1.375 . S
C11 C10 1.338 . S
C11 H15 0.931 . S
C12 N9 1.313 . S
C12 N13 1.344 . S
C12 H16 0.930 . S
N13 C10 1.377 . S
N13 C12 1.344 . S
O14 Co6 2.055 . S
O14 C18 1.253 . S
H15 C11 0.931 . S
H16 C12 0.930 . S
O17 Co6 2.039 . S
O17 C7 1.265 . S
C18 O14 1.253 . S
C18 O19 1.227 . S
O19 C18 1.227 . S
N20 Co6 2.140 . S
N20 C23 1.346 . S
N20 C24 1.345 . S
C21 C22 1.387 . S
C21 C25 1.391 . S
C22 C21 1.387 . S
C22 C23 1.369 . S
C22 H31 0.929 . S
C23 N20 1.346 . S
C23 C22 1.369 . S
C23 H26 0.928 . S
C24 N20 1.345 . S
C24 C25 1.371 . S
C24 H27 0.931 . S
C25 C21 1.391 . S
C25 C24 1.371 . S
C25 H32 0.930 . S
H26 C23 0.928 . S
H27 C24 0.931 . S
H28 C4 0.930 . S
H29 C1 0.930 . S
H30 C10 0.930 . S
H31 C22 0.929 . S
H32 C25 0.930 . S
C33 C34 1.351 . S
C33 N36 1.368 . S
C33 H38 0.931 . S
C34 C33 1.351 . S
C34 N35 1.373 . S
C34 H62 0.930 . S
N35 C34 1.373 . S
N35 C37 1.340 . S
N36 C33 1.368 . S
N36 C37 1.321 . S
N36 Co39 2.135 . S
C37 N35 1.340 . S
C37 N36 1.321 . S
C37 H61 0.930 1_655 S
H38 C33 0.931 . S
Co39 N36 2.135 . S
Co39 N42 2.121 . S
Co39 O47 2.055 . S
Co39 O50 2.039 1_655 S
Co39 N53 2.140 . S
C40 O41 1.227 1_455 S
C40 O50 1.265 . S
O41 C40 1.227 1_655 S
N42 Co39 2.121 . S
N42 C44 1.375 . S
N42 C45 1.313 . S
C43 C44 1.338 . S
C43 N46 1.377 . S
C43 H63 0.930 . S
C44 N42 1.375 . S
C44 C43 1.338 . S
C44 H48 0.931 . S
C45 N42 1.313 . S
C45 N46 1.344 . S
C45 H49 0.930 . S
N46 C43 1.377 . S
N46 C45 1.344 . S
O47 Co39 2.055 . S
O47 C51 1.253 . S
H48 C44 0.931 . S
H49 C45 0.930 . S
O50 Co39 2.039 1_455 S
O50 C40 1.265 . S
C51 O47 1.253 . S
C51 O52 1.227 . S
O52 C51 1.227 . S
N53 Co39 2.140 . S
N53 C56 1.346 . S
N53 C57 1.345 . S
C54 C55 1.387 . S
C54 C58 1.391 . S
C55 C54 1.387 . S
C55 C56 1.369 . S
C55 H64 0.929 . S
C56 N53 1.346 . S
C56 C55 1.369 . S
C56 H59 0.928 . S
C57 N53 1.345 . S
C57 C58 1.371 . S
C57 H60 0.931 . S
C58 C54 1.391 . S
C58 C57 1.371 . S
C58 H65 0.930 . S
H59 C56 0.928 . S
H60 C57 0.931 . S
H61 C37 0.930 1_455 S
H62 C34 0.930 . S
H63 C43 0.930 . S
H64 C55 0.929 . S
H65 C58 0.930 . S
C66 C67 1.351 . S
C66 N69 1.368 . S
C66 H71 0.931 . S
C67 C66 1.351 . S
C67 N68 1.373 . S
C67 H95 0.930 . S
N68 C67 1.373 . S
N68 C70 1.340 . S
N69 C66 1.368 . S
N69 C70 1.321 . S
N69 Co72 2.135 . S
C70 N68 1.340 . S
C70 N69 1.321 . S
C70 H94 0.930 1_565 S
H71 C66 0.931 . S
Co72 N69 2.135 . S
Co72 N75 2.121 . S
Co72 O80 2.055 . S
Co72 O83 2.039 1_565 S
Co72 N86 2.140 . S
C73 O74 1.227 1_545 S
C73 O83 1.265 . S
O74 C73 1.227 1_565 S
N75 Co72 2.121 . S
N75 C77 1.375 . S
N75 C78 1.313 . S
C76 C77 1.338 . S
C76 N79 1.377 . S
C76 H96 0.930 . S
C77 N75 1.375 . S
C77 C76 1.338 . S
C77 H81 0.931 . S
C78 N75 1.313 . S
C78 N79 1.344 . S
C78 H82 0.930 . S
N79 C76 1.377 . S
N79 C78 1.344 . S
O80 Co72 2.055 . S
O80 C84 1.253 . S
H81 C77 0.931 . S
H82 C78 0.930 . S
O83 Co72 2.039 1_545 S
O83 C73 1.265 . S
C84 O80 1.253 . S
C84 O85 1.227 . S
O85 C84 1.227 . S
N86 Co72 2.140 . S
N86 C89 1.346 . S
N86 C90 1.345 . S
C87 C88 1.387 . S
C87 C91 1.391 . S
C88 C87 1.387 . S
C88 C89 1.369 . S
C88 H97 0.929 . S
C89 N86 1.346 . S
C89 C88 1.369 . S
C89 H92 0.928 . S
C90 N86 1.345 . S
C90 C91 1.371 . S
C90 H93 0.931 . S
C91 C87 1.391 . S
C91 C90 1.371 . S
C91 H98 0.930 . S
H92 C89 0.928 . S
H93 C90 0.931 . S
H94 C70 0.930 1_545 S
H95 C67 0.930 . S
H96 C76 0.930 . S
H97 C88 0.929 . S
H98 C91 0.930 . S
C99 C100 1.351 . S
C99 N102 1.368 . S
C99 H104 0.931 . S
C100 C99 1.351 . S
C100 N101 1.373 . S
C100 H128 0.930 . S
N101 C100 1.373 . S
N101 C103 1.340 . S
N102 C99 1.368 . S
N102 C103 1.321 . S
N102 Co105 2.135 . S
C103 N101 1.340 . S
C103 N102 1.321 . S
C103 H127 0.930 . S
H104 C99 0.931 . S
Co105 N102 2.135 . S
Co105 N108 2.121 . S
Co105 O113 2.055 . S
Co105 O116 2.039 . S
Co105 N119 2.140 . S
C106 O107 1.227 . S
C106 O116 1.265 . S
O107 C106 1.227 . S
N108 Co105 2.121 . S
N108 C110 1.375 . S
N108 C111 1.313 . S
C109 C110 1.338 . S
C109 N112 1.377 . S
C109 H129 0.930 . S
C110 N108 1.375 . S
C110 C109 1.338 . S
C110 H114 0.931 . S
C111 N108 1.313 . S
C111 N112 1.344 . S
C111 H115 0.930 . S
N112 C109 1.377 . S
N112 C111 1.344 . S
O113 Co105 2.055 . S
O113 C117 1.253 . S
H114 C110 0.931 . S
H115 C111 0.930 . S
O116 Co105 2.039 . S
O116 C106 1.265 . S
C117 O113 1.253 . S
C117 O118 1.227 . S
O118 C117 1.227 . S
N119 Co105 2.140 . S
N119 C122 1.346 . S
N119 C123 1.345 . S
C120 C121 1.387 . S
C120 C124 1.391 . S
C121 C120 1.387 . S
C121 C122 1.369 . S
C121 H130 0.929 . S
C122 N119 1.346 . S
C122 C121 1.369 . S
C122 H125 0.928 . S
C123 N119 1.345 . S
C123 C124 1.371 . S
C123 H126 0.931 . S
C124 C120 1.391 . S
C124 C123 1.371 . S
C124 H131 0.930 . S
H125 C122 0.928 . S
H126 C123 0.931 . S
H127 C103 0.930 . S
H128 C100 0.930 . S
H129 C109 0.930 . S
H130 C121 0.929 . S
H131 C124 0.930 . S
C132 C133 1.351 . S
C132 N135 1.368 . S
C132 H137 0.931 . S
C133 C132 1.351 . S
C133 N134 1.373 . S
C133 H161 0.930 . S
N134 C133 1.373 . S
N134 C136 1.340 . S
N135 C132 1.368 . S
N135 C136 1.321 . S
N135 Co138 2.135 . S
C136 N134 1.340 . S
C136 N135 1.321 . S
C136 H160 0.930 1_455 S
H137 C132 0.931 . S
Co138 N135 2.135 . S
Co138 N141 2.121 . S
Co138 O146 2.055 . S
Co138 O149 2.039 1_455 S
Co138 N152 2.140 . S
C139 O140 1.227 1_655 S
C139 O149 1.265 . S
O140 C139 1.227 1_455 S
N141 Co138 2.121 . S
N141 C143 1.375 . S
N141 C144 1.313 . S
C142 C143 1.338 . S
C142 N145 1.377 . S
C142 H162 0.930 . S
C143 N141 1.375 . S
C143 C142 1.338 . S
C143 H147 0.931 . S
C144 N141 1.313 . S
C144 N145 1.344 . S
C144 H148 0.930 . S
N145 C142 1.377 . S
N145 C144 1.344 . S
O146 Co138 2.055 . S
O146 C150 1.253 . S
H147 C143 0.931 . S
H148 C144 0.930 . S
O149 Co138 2.039 1_655 S
O149 C139 1.265 . S
C150 O146 1.253 . S
C150 O151 1.227 . S
O151 C150 1.227 . S
N152 Co138 2.140 . S
N152 C155 1.346 . S
N152 C156 1.345 . S
C153 C154 1.387 . S
C153 C157 1.391 . S
C154 C153 1.387 . S
C154 C155 1.369 . S
C154 H163 0.929 . S
C155 N152 1.346 . S
C155 C154 1.369 . S
C155 H158 0.928 . S
C156 N152 1.345 . S
C156 C157 1.371 . S
C156 H159 0.931 . S
C157 C153 1.391 . S
C157 C156 1.371 . S
C157 H164 0.930 . S
H158 C155 0.928 . S
H159 C156 0.931 . S
H160 C136 0.930 1_655 S
H161 C133 0.930 . S
H162 C142 0.930 . S
H163 C154 0.929 . S
H164 C157 0.930 . S
C165 C166 1.351 . S
C165 N168 1.368 . S
C165 H170 0.931 . S
C166 C165 1.351 . S
C166 N167 1.373 . S
C166 H194 0.930 . S
N167 C166 1.373 . S
N167 C169 1.340 . S
N168 C165 1.368 . S
N168 C169 1.321 . S
N168 Co171 2.135 . S
C169 N167 1.340 . S
C169 N168 1.321 . S
C169 H193 0.930 1_545 S
H170 C165 0.931 . S
Co171 N168 2.135 . S
Co171 N174 2.121 . S
Co171 O179 2.055 . S
Co171 O182 2.039 1_545 S
Co171 N185 2.140 . S
C172 O173 1.227 1_565 S
C172 O182 1.265 . S
O173 C172 1.227 1_545 S
N174 Co171 2.121 . S
N174 C176 1.375 . S
N174 C177 1.313 . S
C175 C176 1.338 . S
C175 N178 1.377 . S
C175 H195 0.930 . S
C176 N174 1.375 . S
C176 C175 1.338 . S
C176 H180 0.931 . S
C177 N174 1.313 . S
C177 N178 1.344 . S
C177 H181 0.930 . S
N178 C175 1.377 . S
N178 C177 1.344 . S
O179 Co171 2.055 . S
O179 C183 1.253 . S
H180 C176 0.931 . S
H181 C177 0.930 . S
O182 Co171 2.039 1_565 S
O182 C172 1.265 . S
C183 O179 1.253 . S
C183 O184 1.227 . S
O184 C183 1.227 . S
N185 Co171 2.140 . S
N185 C188 1.346 . S
N185 C189 1.345 . S
C186 C187 1.387 . S
C186 C190 1.391 . S
C187 C186 1.387 . S
C187 C188 1.369 . S
C187 H196 0.929 . S
C188 N185 1.346 . S
C188 C187 1.369 . S
C188 H191 0.928 . S
C189 N185 1.345 . S
C189 C190 1.371 . S
C189 H192 0.931 . S
C190 C186 1.391 . S
C190 C189 1.371 . S
C190 H197 0.930 . S
H191 C188 0.928 . S
H192 C189 0.931 . S
H193 C169 0.930 1_565 S
H194 C166 0.930 . S
H195 C175 0.930 . S
H196 C187 0.929 . S
H197 C190 0.930 . S
C198 C199 1.351 . S
C198 N201 1.368 . S
C198 H203 0.931 . S
C199 C198 1.351 . S
C199 N200 1.373 . S
C199 H227 0.930 . S
N200 C199 1.373 . S
N200 C202 1.340 . S
N201 C198 1.368 . S
N201 C202 1.321 . S
N201 Co204 2.135 . S
C202 N200 1.340 . S
C202 N201 1.321 . S
C202 H226 0.930 . S
H203 C198 0.931 . S
Co204 N201 2.135 . S
Co204 N207 2.121 . S
Co204 O212 2.055 . S
Co204 O215 2.039 . S
Co204 N218 2.140 . S
C205 O206 1.227 . S
C205 O215 1.265 . S
O206 C205 1.227 . S
N207 Co204 2.121 . S
N207 C209 1.375 . S
N207 C210 1.313 . S
C208 C209 1.338 . S
C208 N211 1.377 . S
C208 H228 0.930 . S
C209 N207 1.375 . S
C209 C208 1.338 . S
C209 H213 0.931 . S
C210 N207 1.313 . S
C210 N211 1.344 . S
C210 H214 0.930 . S
N211 C208 1.377 . S
N211 C210 1.344 . S
O212 Co204 2.055 . S
O212 C216 1.253 . S
H213 C209 0.931 . S
H214 C210 0.930 . S
O215 Co204 2.039 . S
O215 C205 1.265 . S
C216 O212 1.253 . S
C216 O217 1.227 . S
O217 C216 1.227 . S
N218 Co204 2.140 . S
N218 C221 1.346 . S
N218 C222 1.345 . S
C219 C220 1.387 . S
C219 C223 1.391 . S
C220 C219 1.387 . S
C220 C221 1.369 . S
C220 H229 0.929 . S
C221 N218 1.346 . S
C221 C220 1.369 . S
C221 H224 0.928 . S
C222 N218 1.345 . S
C222 C223 1.371 . S
C222 H225 0.931 . S
C223 C219 1.391 . S
C223 C222 1.371 . S
C223 H230 0.930 . S
H224 C221 0.928 . S
H225 C222 0.931 . S
H226 C202 0.930 . S
H227 C199 0.930 . S
H228 C208 0.930 . S
H229 C220 0.929 . S
H230 C223 0.930 . S
C231 C232 1.351 . S
C231 N234 1.368 . S
C231 H236 0.931 . S
C232 C231 1.351 . S
C232 N233 1.373 . S
C232 H260 0.930 . S
N233 C232 1.373 . S
N233 C235 1.340 . S
N234 C231 1.368 . S
N234 C235 1.321 . S
N234 Co237 2.135 . S
C235 N233 1.340 . S
C235 N234 1.321 . S
C235 H259 0.930 1_655 S
H236 C231 0.931 . S
Co237 N234 2.135 . S
Co237 N240 2.121 . S
Co237 O245 2.055 . S
Co237 O248 2.039 1_655 S
Co237 N251 2.140 . S
C238 O239 1.227 1_455 S
C238 O248 1.265 . S
O239 C238 1.227 1_655 S
N240 Co237 2.121 . S
N240 C242 1.375 . S
N240 C243 1.313 . S
C241 C242 1.338 . S
C241 N244 1.377 . S
C241 H261 0.930 . S
C242 N240 1.375 . S
C242 C241 1.338 . S
C242 H246 0.931 . S
C243 N240 1.313 . S
C243 N244 1.344 . S
C243 H247 0.930 . S
N244 C241 1.377 . S
N244 C243 1.344 . S
O245 Co237 2.055 . S
O245 C249 1.253 . S
H246 C242 0.931 . S
H247 C243 0.930 . S
O248 Co237 2.039 1_455 S
O248 C238 1.265 . S
C249 O245 1.253 . S
C249 O250 1.227 . S
O250 C249 1.227 . S
N251 Co237 2.140 . S
N251 C254 1.346 . S
N251 C255 1.345 . S
C252 C253 1.387 . S
C252 C256 1.391 . S
C253 C252 1.387 . S
C253 C254 1.369 . S
C253 H262 0.929 . S
C254 N251 1.346 . S
C254 C253 1.369 . S
C254 H257 0.928 . S
C255 N251 1.345 . S
C255 C256 1.371 . S
C255 H258 0.931 . S
C256 C252 1.391 . S
C256 C255 1.371 . S
C256 H263 0.930 . S
H257 C254 0.928 . S
H258 C255 0.931 . S
H259 C235 0.930 1_455 S
H260 C232 0.930 . S
H261 C241 0.930 . S
H262 C253 0.929 . S
H263 C256 0.930 . S
C264 C265 1.351 . S
C264 N267 1.368 . S
C264 H269 0.931 . S
C265 C264 1.351 . S
C265 N266 1.373 . S
C265 H293 0.930 . S
N266 C265 1.373 . S
N266 C268 1.340 . S
N267 C264 1.368 . S
N267 C268 1.321 . S
N267 Co270 2.135 . S
C268 N266 1.340 . S
C268 N267 1.321 . S
C268 H292 0.930 1_565 S
H269 C264 0.931 . S
Co270 N267 2.135 . S
Co270 N273 2.121 . S
Co270 O278 2.055 . S
Co270 O281 2.039 1_565 S
Co270 N284 2.140 . S
C271 O272 1.227 1_545 S
C271 O281 1.265 . S
O272 C271 1.227 1_565 S
N273 Co270 2.121 . S
N273 C275 1.375 . S
N273 C276 1.313 . S
C274 C275 1.338 . S
C274 N277 1.377 . S
C274 H294 0.930 . S
C275 N273 1.375 . S
C275 C274 1.338 . S
C275 H279 0.931 . S
C276 N273 1.313 . S
C276 N277 1.344 . S
C276 H280 0.930 . S
N277 C274 1.377 . S
N277 C276 1.344 . S
O278 Co270 2.055 . S
O278 C282 1.253 . S
H279 C275 0.931 . S
H280 C276 0.930 . S
O281 Co270 2.039 1_545 S
O281 C271 1.265 . S
C282 O278 1.253 . S
C282 O283 1.227 . S
O283 C282 1.227 . S
N284 Co270 2.140 . S
N284 C287 1.346 . S
N284 C288 1.345 . S
C285 C286 1.387 . S
C285 C289 1.391 . S
C286 C285 1.387 . S
C286 C287 1.369 . S
C286 H295 0.929 . S
C287 N284 1.346 . S
C287 C286 1.369 . S
C287 H290 0.928 . S
C288 N284 1.345 . S
C288 C289 1.371 . S
C288 H291 0.931 . S
C289 C285 1.391 . S
C289 C288 1.371 . S
C289 H296 0.930 . S
H290 C287 0.928 . S
H291 C288 0.931 . S
H292 C268 0.930 1_545 S
H293 C265 0.930 . S
H294 C274 0.930 . S
H295 C286 0.929 . S
H296 C289 0.930 . S
C297 C298 1.351 . S
C297 N300 1.368 . S
C297 H302 0.931 . S
C298 C297 1.351 . S
C298 N299 1.373 . S
C298 H326 0.930 . S
N299 C298 1.373 . S
N299 C301 1.340 . S
N300 C297 1.368 . S
N300 C301 1.321 . S
N300 Co303 2.135 . S
C301 N299 1.340 . S
C301 N300 1.321 . S
C301 H325 0.930 . S
H302 C297 0.931 . S
Co303 N300 2.135 . S
Co303 N306 2.121 . S
Co303 O311 2.055 . S
Co303 O314 2.039 . S
Co303 N317 2.140 . S
C304 O305 1.227 . S
C304 O314 1.265 . S
O305 C304 1.227 . S
N306 Co303 2.121 . S
N306 C308 1.375 . S
N306 C309 1.313 . S
C307 C308 1.338 . S
C307 N310 1.377 . S
C307 H327 0.930 . S
C308 N306 1.375 . S
C308 C307 1.338 . S
C308 H312 0.931 . S
C309 N306 1.313 . S
C309 N310 1.344 . S
C309 H313 0.930 . S
N310 C307 1.377 . S
N310 C309 1.344 . S
O311 Co303 2.055 . S
O311 C315 1.253 . S
H312 C308 0.931 . S
H313 C309 0.930 . S
O314 Co303 2.039 . S
O314 C304 1.265 . S
C315 O311 1.253 . S
C315 O316 1.227 . S
O316 C315 1.227 . S
N317 Co303 2.140 . S
N317 C320 1.346 . S
N317 C321 1.345 . S
C318 C319 1.387 . S
C318 C322 1.391 . S
C319 C318 1.387 . S
C319 C320 1.369 . S
C319 H328 0.929 . S
C320 N317 1.346 . S
C320 C319 1.369 . S
C320 H323 0.928 . S
C321 N317 1.345 . S
C321 C322 1.371 . S
C321 H324 0.931 . S
C322 C318 1.391 . S
C322 C321 1.371 . S
C322 H329 0.930 . S
H323 C320 0.928 . S
H324 C321 0.931 . S
H325 C301 0.930 . S
H326 C298 0.930 . S
H327 C307 0.930 . S
H328 C319 0.929 . S
H329 C322 0.930 . S
C330 C331 1.351 . S
C330 N333 1.368 . S
C330 H335 0.931 . S
C331 C330 1.351 . S
C331 N332 1.373 . S
C331 H359 0.930 . S
N332 C331 1.373 . S
N332 C334 1.340 . S
N333 C330 1.368 . S
N333 C334 1.321 . S
N333 Co336 2.135 . S
C334 N332 1.340 . S
C334 N333 1.321 . S
C334 H358 0.930 1_455 S
H335 C330 0.931 . S
Co336 N333 2.135 . S
Co336 N339 2.121 . S
Co336 O344 2.055 . S
Co336 O347 2.039 1_455 S
Co336 N350 2.140 . S
C337 O338 1.227 1_655 S
C337 O347 1.265 . S
O338 C337 1.227 1_455 S
N339 Co336 2.121 . S
N339 C341 1.375 . S
N339 C342 1.313 . S
C340 C341 1.338 . S
C340 N343 1.377 . S
C340 H360 0.930 . S
C341 N339 1.375 . S
C341 C340 1.338 . S
C341 H345 0.931 . S
C342 N339 1.313 . S
C342 N343 1.344 . S
C342 H346 0.930 . S
N343 C340 1.377 . S
N343 C342 1.344 . S
O344 Co336 2.055 . S
O344 C348 1.253 . S
H345 C341 0.931 . S
H346 C342 0.930 . S
O347 Co336 2.039 1_655 S
O347 C337 1.265 . S
C348 O344 1.253 . S
C348 O349 1.227 . S
O349 C348 1.227 . S
N350 Co336 2.140 . S
N350 C353 1.346 . S
N350 C354 1.345 . S
C351 C352 1.387 . S
C351 C355 1.391 . S
C352 C351 1.387 . S
C352 C353 1.369 . S
C352 H361 0.929 . S
C353 N350 1.346 . S
C353 C352 1.369 . S
C353 H356 0.928 . S
C354 N350 1.345 . S
C354 C355 1.371 . S
C354 H357 0.931 . S
C355 C351 1.391 . S
C355 C354 1.371 . S
C355 H362 0.930 . S
H356 C353 0.928 . S
H357 C354 0.931 . S
H358 C334 0.930 1_655 S
H359 C331 0.930 . S
H360 C340 0.930 . S
H361 C352 0.929 . S
H362 C355 0.930 . S
C363 C364 1.351 . S
C363 N366 1.368 . S
C363 H368 0.931 . S
C364 C363 1.351 . S
C364 N365 1.373 . S
C364 H392 0.930 . S
N365 C364 1.373 . S
N365 C367 1.340 . S
N366 C363 1.368 . S
N366 C367 1.321 . S
N366 Co369 2.135 . S
C367 N365 1.340 . S
C367 N366 1.321 . S
C367 H391 0.930 1_545 S
H368 C363 0.931 . S
Co369 N366 2.135 . S
Co369 N372 2.121 . S
Co369 O377 2.055 . S
Co369 O380 2.039 1_545 S
Co369 N383 2.140 . S
C370 O371 1.227 1_565 S
C370 O380 1.265 . S
O371 C370 1.227 1_545 S
N372 Co369 2.121 . S
N372 C374 1.375 . S
N372 C375 1.313 . S
C373 C374 1.338 . S
C373 N376 1.377 . S
C373 H393 0.930 . S
C374 N372 1.375 . S
C374 C373 1.338 . S
C374 H378 0.931 . S
C375 N372 1.313 . S
C375 N376 1.344 . S
C375 H379 0.930 . S
N376 C373 1.377 . S
N376 C375 1.344 . S
O377 Co369 2.055 . S
O377 C381 1.253 . S
H378 C374 0.931 . S
H379 C375 0.930 . S
O380 Co369 2.039 1_565 S
O380 C370 1.265 . S
C381 O377 1.253 . S
C381 O382 1.227 . S
O382 C381 1.227 . S
N383 Co369 2.140 . S
N383 C386 1.346 . S
N383 C387 1.345 . S
C384 C385 1.387 . S
C384 C388 1.391 . S
C385 C384 1.387 . S
C385 C386 1.369 . S
C385 H394 0.929 . S
C386 N383 1.346 . S
C386 C385 1.369 . S
C386 H389 0.928 . S
C387 N383 1.345 . S
C387 C388 1.371 . S
C387 H390 0.931 . S
C388 C384 1.391 . S
C388 C387 1.371 . S
C388 H395 0.930 . S
H389 C386 0.928 . S
H390 C387 0.931 . S
H391 C367 0.930 1_565 S
H392 C364 0.930 . S
H393 C373 0.930 . S
H394 C385 0.929 . S
H395 C388 0.930 . S
C396 C397 1.369 . S
C396 C398 1.419 . S
C396 H400 0.930 . S
C397 C396 1.369 . S
C397 C406 1.429 . S
C398 C396 1.419 . S
C398 C399 1.363 . S
C398 H401 0.929 . S
C399 C398 1.363 . S
C399 C405 1.428 . S
H400 C396 0.930 . S
H401 C398 0.929 . S
S402 N403 1.613 . S
S402 N404 1.610 . S
N403 S402 1.613 . S
N403 C406 1.350 . S
N404 S402 1.610 . S
N404 C405 1.351 . S
C405 C399 1.428 . S
C405 N404 1.351 . S
C405 C406 1.434 . S
C406 C397 1.429 . S
C406 N403 1.350 . S
C406 C405 1.434 . S
C407 C408 1.369 . S
C407 C409 1.419 1_455 S
C407 H411 0.930 . S
C408 C407 1.369 . S
C408 C417 1.429 . S
C409 C407 1.419 1_655 S
C409 C410 1.363 . S
C409 H412 0.929 . S
C410 C409 1.363 . S
C410 C416 1.428 . S
H411 C407 0.930 . S
H412 C409 0.929 . S
S413 N414 1.613 1_655 S
S413 N415 1.610 . S
N414 S413 1.613 1_455 S
N414 C417 1.350 . S
N415 S413 1.610 . S
N415 C416 1.351 . S
C416 C410 1.428 . S
C416 N415 1.351 . S
C416 C417 1.434 1_655 S
C417 C408 1.429 . S
C417 N414 1.350 . S
C417 C416 1.434 1_455 S
C418 C419 1.369 . S
C418 C420 1.419 . S
C418 H422 0.930 . S
C419 C418 1.369 . S
C419 C428 1.429 1_545 S
C420 C418 1.419 . S
C420 C421 1.363 1_545 S
C420 H423 0.929 . S
C421 C420 1.363 1_565 S
C421 C427 1.428 . S
H422 C418 0.930 . S
H423 C420 0.929 . S
S424 N425 1.613 . S
S424 N426 1.610 . S
N425 S424 1.613 . S
N425 C428 1.350 . S
N426 S424 1.610 . S
N426 C427 1.351 . S
C427 C421 1.428 . S
C427 N426 1.351 . S
C427 C428 1.434 . S
C428 C419 1.429 1_565 S
C428 N425 1.350 . S
C428 C427 1.434 . S
C429 C430 1.369 . S
C429 C431 1.419 . S
C429 H433 0.930 . S
C430 C429 1.369 . S
C430 C439 1.429 . S
C431 C429 1.419 . S
C431 C432 1.363 . S
C431 H434 0.929 . S
C432 C431 1.363 . S
C432 C438 1.428 . S
H433 C429 0.930 . S
H434 C431 0.929 . S
S435 N436 1.613 . S
S435 N437 1.610 . S
N436 S435 1.613 . S
N436 C439 1.350 . S
N437 S435 1.610 . S
N437 C438 1.351 . S
C438 C432 1.428 . S
C438 N437 1.351 . S
C438 C439 1.434 . S
C439 C430 1.429 . S
C439 N436 1.350 . S
C439 C438 1.434 . S
C440 C441 1.369 . S
C440 C442 1.419 1_655 S
C440 H444 0.930 . S
C441 C440 1.369 . S
C441 C450 1.429 . S
C442 C440 1.419 1_455 S
C442 C443 1.363 . S
C442 H445 0.929 . S
C443 C442 1.363 . S
C443 C449 1.428 . S
H444 C440 0.930 . S
H445 C442 0.929 . S
S446 N447 1.613 1_455 S
S446 N448 1.610 . S
N447 S446 1.613 1_655 S
N447 C450 1.350 . S
N448 S446 1.610 . S
N448 C449 1.351 . S
C449 C443 1.428 . S
C449 N448 1.351 . S
C449 C450 1.434 1_455 S
C450 C441 1.429 . S
C450 N447 1.350 . S
C450 C449 1.434 1_655 S
C451 C452 1.369 . S
C451 C453 1.419 . S
C451 H455 0.930 . S
C452 C451 1.369 . S
C452 C461 1.429 1_565 S
C453 C451 1.419 . S
C453 C454 1.363 1_565 S
C453 H456 0.929 . S
C454 C453 1.363 1_545 S
C454 C460 1.428 . S
H455 C451 0.930 . S
H456 C453 0.929 . S
S457 N458 1.613 . S
S457 N459 1.610 . S
N458 S457 1.613 . S
N458 C461 1.350 . S
N459 S457 1.610 . S
N459 C460 1.351 . S
C460 C454 1.428 . S
C460 N459 1.351 . S
C460 C461 1.434 . S
C461 C452 1.429 1_545 S
C461 N458 1.350 . S
C461 C460 1.434 . S
C462 C463 1.369 . S
C462 C464 1.419 . S
C462 H466 0.930 . S
C463 C462 1.369 . S
C463 C472 1.429 . S
C464 C462 1.419 . S
C464 C465 1.363 . S
C464 H467 0.929 . S
C465 C464 1.363 . S
C465 C471 1.428 . S
H466 C462 0.930 . S
H467 C464 0.929 . S
S468 N469 1.613 . S
S468 N470 1.610 . S
N469 S468 1.613 . S
N469 C472 1.350 . S
N470 S468 1.610 . S
N470 C471 1.351 . S
C471 C465 1.428 . S
C471 N470 1.351 . S
C471 C472 1.434 . S
C472 C463 1.429 . S
C472 N469 1.350 . S
C472 C471 1.434 . S
C473 C474 1.369 . S
C473 C475 1.419 1_655 S
C473 H477 0.930 . S
C474 C473 1.369 . S
C474 C483 1.429 . S
C475 C473 1.419 1_455 S
C475 C476 1.363 . S
C475 H478 0.929 . S
C476 C475 1.363 . S
C476 C482 1.428 . S
H477 C473 0.930 . S
H478 C475 0.929 . S
S479 N480 1.613 1_455 S
S479 N481 1.610 . S
N480 S479 1.613 1_655 S
N480 C483 1.350 . S
N481 S479 1.610 . S
N481 C482 1.351 . S
C482 C476 1.428 . S
C482 N481 1.351 . S
C482 C483 1.434 1_455 S
C483 C474 1.429 . S
C483 N480 1.350 . S
C483 C482 1.434 1_655 S
C484 C485 1.369 1_565 S
C484 C486 1.419 1_554 S
C484 H488 0.930 . S
C485 C484 1.369 1_545 S
C485 C494 1.438 . S
C486 C484 1.419 1_556 S
C486 C487 1.363 . S
C486 H489 0.931 . S
C487 C486 1.363 . S
C487 C493 1.428 1_565 S
H488 C484 0.930 . S
H489 C486 0.931 . S
S490 N491 1.613 . S
S490 N492 1.610 . S
N491 S490 1.613 . S
N491 C494 1.349 1_556 S
N492 S490 1.610 . S
N492 C493 1.351 . S
C493 C487 1.428 1_545 S
C493 N492 1.351 . S
C493 C494 1.425 1_556 S
C494 C485 1.438 . S
C494 N491 1.349 1_554 S
C494 C493 1.425 1_554 S
C495 C496 1.369 . S
C495 C497 1.419 . S
C495 H499 0.930 . S
C496 C495 1.369 . S
C496 C505 1.429 . S
C497 C495 1.419 . S
C497 C498 1.363 . S
C497 H500 0.929 . S
C498 C497 1.363 . S
C498 C504 1.428 . S
H499 C495 0.930 . S
H500 C497 0.929 . S
S501 N502 1.613 . S
S501 N503 1.610 . S
N502 S501 1.613 . S
N502 C505 1.350 . S
N503 S501 1.610 . S
N503 C504 1.351 . S
C504 C498 1.428 . S
C504 N503 1.351 . S
C504 C505 1.434 . S
C505 C496 1.429 . S
C505 N502 1.350 . S
C505 C504 1.434 . S
C506 C507 1.369 . S
C506 C508 1.419 . S
C506 H510 0.930 . S
C507 C506 1.369 . S
C507 C516 1.429 1_455 S
C508 C506 1.419 . S
C508 C509 1.363 1_455 S
C508 H511 0.929 . S
C509 C508 1.363 1_655 S
C509 C515 1.428 . S
H510 C506 0.930 . S
H511 C508 0.929 . S
S512 N513 1.613 . S
S512 N514 1.610 . S
N513 S512 1.613 . S
N513 C516 1.350 . S
N514 S512 1.610 . S
N514 C515 1.351 . S
C515 C509 1.428 . S
C515 N514 1.351 . S
C515 C516 1.434 . S
C516 C507 1.429 1_655 S
C516 N513 1.350 . S
C516 C515 1.434 . S
C517 C518 1.369 . S
C517 C519 1.419 1_546 S
C517 H521 0.930 . S
C518 C517 1.369 . S
C518 C527 1.429 . S
C519 C517 1.419 1_564 S
C519 C520 1.363 . S
C519 H522 0.929 . S
C520 C519 1.363 . S
C520 C526 1.428 . S
H521 C517 0.930 . S
H522 C519 0.929 . S
S523 N524 1.613 1_565 S
S523 N525 1.610 1_556 S
N524 S523 1.613 1_545 S
N524 C527 1.350 . S
N525 S523 1.610 1_554 S
N525 C526 1.351 . S
C526 C520 1.428 . S
C526 N525 1.351 . S
C526 C527 1.434 1_564 S
C527 C518 1.429 . S
C527 N524 1.350 . S
C527 C526 1.434 1_546 S
C528 C529 1.369 . S
C528 C530 1.419 1_445 S
C528 H532 0.930 . S
C529 C528 1.369 . S
C529 C538 1.429 . S
C530 C528 1.419 1_665 S
C530 C531 1.363 . S
C530 H533 0.929 . S
C531 C530 1.363 . S
C531 C537 1.428 . S
H532 C528 0.930 . S
H533 C530 0.929 . S
S534 N535 1.613 1_655 S
S534 N536 1.610 1_545 S
N535 S534 1.613 1_455 S
N535 C538 1.350 . S
N536 S534 1.610 1_565 S
N536 C537 1.351 . S
C537 C531 1.428 . S
C537 N536 1.351 . S
C537 C538 1.434 1_665 S
C538 C529 1.429 . S
C538 N535 1.350 . S
C538 C537 1.434 1_445 S
C539 C540 1.369 1_565 S
C539 C541 1.419 . S
C539 H543 0.930 . S
C540 C539 1.369 1_545 S
C540 C549 1.429 1_655 S
C541 C539 1.419 . S
C541 C542 1.363 1_655 S
C541 H544 0.929 . S
C542 C541 1.363 1_455 S
C542 C548 1.428 1_565 S
H543 C539 0.930 . S
H544 C541 0.929 . S
S545 N546 1.613 . S
S545 N547 1.610 . S
N546 S545 1.613 . S
N546 C549 1.350 . S
N547 S545 1.610 . S
N547 C548 1.351 . S
C548 C542 1.428 1_545 S
C548 N547 1.351 . S
C548 C549 1.434 . S
C549 C540 1.429 1_455 S
C549 N546 1.350 . S
C549 C548 1.434 . S
C550 C551 1.369 . S
C550 C552 1.419 1_455 S
C550 H554 0.930 . S
C551 C550 1.369 . S
C551 C560 1.429 1_545 S
C552 C550 1.419 1_655 S
C552 C553 1.363 1_545 S
C552 H555 0.929 . S
C553 C552 1.363 1_565 S
C553 C559 1.428 . S
H554 C550 0.930 . S
H555 C552 0.929 . S
S556 N557 1.613 1_655 S
S556 N558 1.610 . S
N557 S556 1.613 1_455 S
N557 C560 1.350 . S
N558 S556 1.610 . S
N558 C559 1.351 . S
C559 C553 1.428 . S
C559 N558 1.351 . S
C559 C560 1.434 1_655 S
C560 C551 1.429 1_565 S
C560 N557 1.350 . S
C560 C559 1.434 1_455 S
C561 C562 1.369 1_545 S
C561 C563 1.419 1_655 S
C561 H565 0.930 . S
C562 C561 1.369 1_565 S
C562 C571 1.429 . S
C563 C561 1.419 1_455 S
C563 C564 1.363 . S
C563 H566 0.929 . S
C564 C563 1.363 . S
C564 C570 1.428 1_545 S
H565 C561 0.930 . S
H566 C563 0.929 . S
S567 N568 1.613 1_455 S
S567 N569 1.610 . S
N568 S567 1.613 1_655 S
N568 C571 1.350 . S
N569 S567 1.610 . S
N569 C570 1.351 . S
C570 C564 1.428 1_565 S
C570 N569 1.351 . S
C570 C571 1.434 1_455 S
C571 C562 1.429 . S
C571 N568 1.350 . S
C571 C570 1.434 1_655 S
C572 C573 1.369 1_455 S
C572 C574 1.419 1_565 S
C572 H576 0.930 . S
C573 C572 1.369 1_655 S
C573 C582 1.429 . S
C574 C572 1.419 1_545 S
C574 C575 1.363 . S
C574 H577 0.929 . S
C575 C574 1.363 . S
C575 C581 1.428 1_455 S
H576 C572 0.930 . S
H577 C574 0.929 . S
S578 N579 1.613 . S
S578 N580 1.610 1_565 S
N579 S578 1.613 . S
N579 C582 1.350 . S
N580 S578 1.610 1_545 S
N580 C581 1.351 . S
C581 C575 1.428 1_655 S
C581 N580 1.351 . S
C581 C582 1.434 1_545 S
C582 C573 1.429 . S
C582 N579 1.350 . S
C582 C581 1.434 1_565 S
C583 C584 1.369 . S
C583 C585 1.419 1_655 S
C583 H587 0.930 . S
C584 C583 1.369 . S
C584 C593 1.429 1_545 S
C585 C583 1.419 1_455 S
C585 C586 1.363 1_545 S
C585 H588 0.929 . S
C586 C585 1.363 1_565 S
C586 C592 1.428 . S
H587 C583 0.930 . S
H588 C585 0.929 . S
S589 N590 1.613 . S
S589 N591 1.610 1_655 S
N590 S589 1.613 . S
N590 C593 1.350 . S
N591 S589 1.610 1_455 S
N591 C592 1.351 . S
C592 C586 1.428 . S
C592 N591 1.351 . S
C592 C593 1.434 1_455 S
C593 C584 1.429 1_565 S
C593 N590 1.350 . S
C593 C592 1.434 1_655 S
C594 C595 1.369 . S
C594 C596 1.419 1_655 S
C594 H598 0.930 . S
C595 C594 1.369 . S
C595 C604 1.429 . S
C596 C594 1.419 1_455 S
C596 C597 1.363 . S
C596 H599 0.929 . S
C597 C596 1.363 . S
C597 C603 1.428 . S
H598 C594 0.930 . S
H599 C596 0.929 . S
S600 N601 1.613 . S
S600 N602 1.610 . S
N601 S600 1.613 . S
N601 C604 1.350 1_455 S
N602 S600 1.610 . S
N602 C603 1.351 . S
C603 C597 1.428 . S
C603 N602 1.351 . S
C603 C604 1.434 1_455 S
C604 C595 1.429 . S
C604 N601 1.350 1_655 S
C604 C603 1.434 1_655 S
C605 C606 1.369 . S
C605 C607 1.419 1_545 S
C605 H609 0.930 . S
C606 C605 1.369 . S
C606 C615 1.429 . S
C607 C605 1.419 1_565 S
C607 C608 1.363 . S
C607 H610 0.929 . S
C608 C607 1.363 . S
C608 C614 1.428 . S
H609 C605 0.930 . S
H610 C607 0.929 . S
S611 N612 1.613 1_565 S
S611 N613 1.610 . S
N612 S611 1.613 1_545 S
N612 C615 1.350 . S
N613 S611 1.610 . S
N613 C614 1.351 . S
C614 C608 1.428 . S
C614 N613 1.351 . S
C614 C615 1.434 1_565 S
C615 C606 1.429 . S
C615 N612 1.350 . S
C615 C614 1.434 1_545 S
C616 C617 1.369 . S
C616 C618 1.419 . S
C616 H620 0.930 . S
C617 C616 1.369 . S
C617 C626 1.429 . S
C618 C616 1.419 . S
C618 C619 1.363 . S
C618 H621 0.929 . S
C619 C618 1.363 . S
C619 C625 1.428 . S
H620 C616 0.930 . S
H621 C618 0.929 . S
S622 N623 1.613 . S
S622 N624 1.610 . S
N623 S622 1.613 . S
N623 C626 1.350 . S
N624 S622 1.610 . S
N624 C625 1.351 . S
C625 C619 1.428 . S
C625 N624 1.351 . S
C625 C626 1.434 . S
C626 C617 1.429 . S
C626 N623 1.350 . S
C626 C625 1.434 . S
C627 C628 1.369 1_655 S
C627 C629 1.419 . S
C627 H631 0.930 . S
C628 C627 1.369 1_455 S
C628 C637 1.429 . S
C629 C627 1.419 . S
C629 C630 1.363 . S
C629 H632 0.929 . S
C630 C629 1.363 . S
C630 C636 1.428 1_655 S
H631 C627 0.930 . S
H632 C629 0.929 . S
S633 N634 1.613 . S
S633 N635 1.610 . S
N634 S633 1.613 . S
N634 C637 1.350 . S
N635 S633 1.610 . S
N635 C636 1.351 . S
C636 C630 1.428 1_455 S
C636 N635 1.351 . S
C636 C637 1.434 . S
C637 C628 1.429 . S
C637 N634 1.350 . S
C637 C636 1.434 . S
C638 C639 1.369 . S
C638 C640 1.419 1_565 S
C638 H642 0.930 . S
C639 C638 1.369 . S
C639 C648 1.429 . S
C640 C638 1.419 1_545 S
C640 C641 1.363 . S
C640 H643 0.929 . S
C641 C640 1.363 . S
C641 C647 1.428 . S
H642 C638 0.930 . S
H643 C640 0.929 . S
S644 N645 1.613 1_545 S
S644 N646 1.610 . S
N645 S644 1.613 1_565 S
N645 C648 1.350 . S
N646 S644 1.610 . S
N646 C647 1.351 . S
C647 C641 1.428 . S
C647 N646 1.351 . S
C647 C648 1.434 1_545 S
C648 C639 1.429 . S
C648 N645 1.350 . S
C648 C647 1.434 1_565 S
C649 C650 1.369 . S
C649 C651 1.419 . S
C649 H653 0.930 . S
C650 C649 1.369 . S
C650 C659 1.429 . S
C651 C649 1.419 . S
C651 C652 1.363 . S
C651 H654 0.929 . S
C652 C651 1.363 . S
C652 C658 1.428 . S
H653 C649 0.930 . S
H654 C651 0.929 . S
S655 N656 1.613 . S
S655 N657 1.610 . S
N656 S655 1.613 . S
N656 C659 1.350 . S
N657 S655 1.610 . S
N657 C658 1.351 . S
C658 C652 1.428 . S
C658 N657 1.351 . S
C658 C659 1.434 . S
C659 C650 1.429 . S
C659 N656 1.350 . S
C659 C658 1.434 . S
C660 C661 1.369 . S
C660 C662 1.419 . S
C660 H664 0.930 . S
C661 C660 1.369 . S
C661 C670 1.429 . S
C662 C660 1.419 . S
C662 C663 1.363 . S
C662 H665 0.929 . S
C663 C662 1.363 . S
C663 C669 1.428 . S
H664 C660 0.930 . S
H665 C662 0.929 . S
S666 N667 1.613 . S
S666 N668 1.610 . S
N667 S666 1.613 . S
N667 C670 1.350 . S
N668 S666 1.610 . S
N668 C669 1.351 . S
C669 C663 1.428 . S
C669 N668 1.351 . S
C669 C670 1.434 . S
C670 C661 1.429 . S
C670 N667 1.350 . S
C670 C669 1.434 . S
C671 C672 1.369 . S
C671 C673 1.419 . S
C671 H675 0.930 . S
C672 C671 1.369 . S
C672 C681 1.429 . S
C673 C671 1.419 . S
C673 C674 1.363 . S
C673 H676 0.929 . S
C674 C673 1.363 . S
C674 C680 1.428 . S
H675 C671 0.930 . S
H676 C673 0.929 . S
S677 N678 1.613 . S
S677 N679 1.610 . S
N678 S677 1.613 . S
N678 C681 1.350 . S
N679 S677 1.610 . S
N679 C680 1.351 . S
C680 C674 1.428 . S
C680 N679 1.351 . S
C680 C681 1.434 . S
C681 C672 1.429 . S
C681 N678 1.350 . S
C681 C680 1.434 . S
C682 C683 1.369 . S
C682 C684 1.419 . S
C682 H686 0.930 . S
C683 C682 1.369 . S
C683 C692 1.429 . S
C684 C682 1.419 . S
C684 C685 1.363 . S
C684 H687 0.929 . S
C685 C684 1.363 . S
C685 C691 1.428 . S
H686 C682 0.930 . S
H687 C684 0.929 . S
S688 N689 1.613 . S
S688 N690 1.610 . S
N689 S688 1.613 . S
N689 C692 1.350 . S
N690 S688 1.610 . S
N690 C691 1.351 . S
C691 C685 1.428 . S
C691 N690 1.351 . S
C691 C692 1.434 . S
C692 C683 1.429 . S
C692 N689 1.350 . S
C692 C691 1.434 . S
C693 C694 1.369 . S
C693 C695 1.419 . S
C693 H697 0.930 . S
C694 C693 1.369 . S
C694 C703 1.429 . S
C695 C693 1.419 . S
C695 C696 1.363 . S
C695 H698 0.929 . S
C696 C695 1.363 . S
C696 C702 1.428 . S
H697 C693 0.930 . S
H698 C695 0.929 . S
S699 N700 1.613 . S
S699 N701 1.610 . S
N700 S699 1.613 . S
N700 C703 1.350 . S
N701 S699 1.610 . S
N701 C702 1.351 . S
C702 C696 1.428 . S
C702 N701 1.351 . S
C702 C703 1.434 . S
C703 C694 1.429 . S
C703 N700 1.350 . S
C703 C702 1.434 . S
C704 C705 1.369 . S
C704 C706 1.419 . S
C704 H708 0.930 . S
C705 C704 1.369 . S
C705 C714 1.429 . S
C706 C704 1.419 . S
C706 C707 1.363 . S
C706 H709 0.929 . S
C707 C706 1.363 . S
C707 C713 1.428 . S
H708 C704 0.930 . S
H709 C706 0.929 . S
S710 N711 1.613 . S
S710 N712 1.610 . S
N711 S710 1.613 . S
N711 C714 1.350 . S
N712 S710 1.610 . S
N712 C713 1.351 . S
C713 C707 1.428 . S
C713 N712 1.351 . S
C713 C714 1.434 . S
C714 C705 1.429 . S
C714 N711 1.350 . S
C714 C713 1.434 . S
C715 C716 1.369 . S
C715 C717 1.419 . S
C715 H719 0.930 . S
C716 C715 1.369 . S
C716 C725 1.429 . S
C717 C715 1.419 . S
C717 C718 1.363 . S
C717 H720 0.929 . S
C718 C717 1.363 . S
C718 C724 1.428 . S
H719 C715 0.930 . S
H720 C717 0.929 . S
S721 N722 1.613 . S
S721 N723 1.610 . S
N722 S721 1.613 . S
N722 C725 1.350 . S
N723 S721 1.610 . S
N723 C724 1.351 . S
C724 C718 1.428 . S
C724 N723 1.351 . S
C724 C725 1.434 . S
C725 C716 1.429 . S
C725 N722 1.350 . S
C725 C724 1.434 . S
C397 N112 1.497 . S
C399 N13 1.508 . S
C408 N145 1.496 . S
C410 N46 1.503 . S
C419 N178 1.499 . S
C421 N79 1.507 . S
C430 N211 1.508 . S
C432 N310 1.502 . S
C441 N244 1.506 . S
C443 N343 1.504 . S
C452 N277 1.504 . S
C454 N376 1.505 . S
C463 C315 1.840 . S
C465 C18 1.838 . S
C474 C51 1.837 . S
C476 C348 1.836 . S
C485 C381 1.841 . S
C487 C84 1.836 . S
C496 C216 1.840 . S
C498 C117 1.838 . S
C507 C150 1.835 . S
C509 C249 1.837 . S
C518 C183 1.837 . S
C520 C282 1.840 . S
C529 N2 0.681 . S
C531 N101 0.683 . S
C540 N35 0.691 . S
C542 N134 0.692 . S
C551 N167 0.691 . S
C553 N68 0.691 . S
C562 N200 0.688 . S
C564 N299 0.690 . S
C573 N233 0.693 . S
C575 N332 0.690 . S
C584 N365 0.694 . S
C586 N266 0.692 . S
C595 C384 1.205 . S
C597 C21 1.206 . S
C606 C54 1.197 . S
C608 C219 1.199 . S
C617 C252 1.197 . S
C619 C87 1.198 . S
C628 C285 1.208 . S
C630 C120 1.206 . S
C639 C153 1.206 . S
C641 C318 1.207 . S
C650 C186 1.204 . S
C652 C351 1.205 . S
C661 C7 1.226 . S
C663 C271 1.228 . S
C672 C40 1.232 . S
C674 C304 1.232 . S
C683 C337 1.235 . S
C685 C73 1.233 . S
C694 C106 1.229 . S
C696 C370 1.230 . S
C705 C205 1.234 . S
C707 C139 1.232 . S
C716 C172 1.234 . S
C718 C238 1.234 . S
