# Generated by pormake.
# Topology afi, (4)-cn, num edge types: 1
# Building blocks:
#     Node 0, Type 0, BuildingBlock: TATPOV_clean_sbu_0, # of connection points: 4
#     Node 1, Type 0, BuildingBlock: TATPOV_clean_sbu_0, # of connection points: 4
#     Node 2, Type 0, BuildingBlock: TATPOV_clean_sbu_0, # of connection points: 4
#     Node 3, Type 0, BuildingBlock: TATPOV_clean_sbu_0, # of connection points: 4
#     Node 4, Type 0, BuildingBlock: TATPOV_clean_sbu_0, # of connection points: 4
#     Node 5, Type 0, BuildingBlock: TATPOV_clean_sbu_0, # of connection points: 4
#     Node 6, Type 0, BuildingBlock: TATPOV_clean_sbu_0, # of connection points: 4
#     Node 7, Type 0, BuildingBlock: TATPOV_clean_sbu_0, # of connection points: 4
#     Node 8, Type 0, BuildingBlock: TATPOV_clean_sbu_0, # of connection points: 4
#     Node 9, Type 0, BuildingBlock: TATPOV_clean_sbu_0, # of connection points: 4
#     Node 10, Type 0, BuildingBlock: TATPOV_clean_sbu_0, # of connection points: 4
#     Node 11, Type 0, BuildingBlock: TATPOV_clean_sbu_0, # of connection points: 4
#     Node 12, Type 0, BuildingBlock: TATPOV_clean_sbu_0, # of connection points: 4
#     Node 13, Type 0, BuildingBlock: TATPOV_clean_sbu_0, # of connection points: 4
#     Node 14, Type 0, BuildingBlock: TATPOV_clean_sbu_0, # of connection points: 4
#     Node 15, Type 0, BuildingBlock: TATPOV_clean_sbu_0, # of connection points: 4
#     Node 16, Type 0, BuildingBlock: TATPOV_clean_sbu_0, # of connection points: 4
#     Node 17, Type 0, BuildingBlock: TATPOV_clean_sbu_0, # of connection points: 4
#     Node 18, Type 0, BuildingBlock: TATPOV_clean_sbu_0, # of connection points: 4
#     Node 19, Type 0, BuildingBlock: TATPOV_clean_sbu_0, # of connection points: 4
#     Node 20, Type 0, BuildingBlock: TATPOV_clean_sbu_0, # of connection points: 4
#     Node 21, Type 0, BuildingBlock: TATPOV_clean_sbu_0, # of connection points: 4
#     Node 22, Type 0, BuildingBlock: TATPOV_clean_sbu_0, # of connection points: 4
#     Node 23, Type 0, BuildingBlock: TATPOV_clean_sbu_0, # of connection points: 4
#     Edge 24, Type (0, 0), BuildingBlock: ZUJKAS_clean_linker_0, # of connection points: 2
#     Edge 25, Type (0, 0), BuildingBlock: ZUJKAS_clean_linker_0, # of connection points: 2
#     Edge 26, Type (0, 0), BuildingBlock: ZUJKAS_clean_linker_0, # of connection points: 2
#     Edge 27, Type (0, 0), BuildingBlock: ZUJKAS_clean_linker_0, # of connection points: 2
#     Edge 28, Type (0, 0), BuildingBlock: ZUJKAS_clean_linker_0, # of connection points: 2
#     Edge 29, Type (0, 0), BuildingBlock: ZUJKAS_clean_linker_0, # of connection points: 2
#     Edge 30, Type (0, 0), BuildingBlock: ZUJKAS_clean_linker_0, # of connection points: 2
#     Edge 31, Type (0, 0), BuildingBlock: ZUJKAS_clean_linker_0, # of connection points: 2
#     Edge 32, Type (0, 0), BuildingBlock: ZUJKAS_clean_linker_0, # of connection points: 2
#     Edge 33, Type (0, 0), BuildingBlock: ZUJKAS_clean_linker_0, # of connection points: 2
#     Edge 34, Type (0, 0), BuildingBlock: ZUJKAS_clean_linker_0, # of connection points: 2
#     Edge 35, Type (0, 0), BuildingBlock: ZUJKAS_clean_linker_0, # of connection points: 2
#     Edge 36, Type (0, 0), BuildingBlock: ZUJKAS_clean_linker_0, # of connection points: 2
#     Edge 37, Type (0, 0), BuildingBlock: ZUJKAS_clean_linker_0, # of connection points: 2
#     Edge 38, Type (0, 0), BuildingBlock: ZUJKAS_clean_linker_0, # of connection points: 2
#     Edge 39, Type (0, 0), BuildingBlock: ZUJKAS_clean_linker_0, # of connection points: 2
#     Edge 40, Type (0, 0), BuildingBlock: ZUJKAS_clean_linker_0, # of connection points: 2
#     Edge 41, Type (0, 0), BuildingBlock: ZUJKAS_clean_linker_0, # of connection points: 2
#     Edge 42, Type (0, 0), BuildingBlock: ZUJKAS_clean_linker_0, # of connection points: 2
#     Edge 43, Type (0, 0), BuildingBlock: ZUJKAS_clean_linker_0, # of connection points: 2
#     Edge 44, Type (0, 0), BuildingBlock: ZUJKAS_clean_linker_0, # of connection points: 2
#     Edge 45, Type (0, 0), BuildingBlock: ZUJKAS_clean_linker_0, # of connection points: 2
#     Edge 46, Type (0, 0), BuildingBlock: ZUJKAS_clean_linker_0, # of connection points: 2
#     Edge 47, Type (0, 0), BuildingBlock: ZUJKAS_clean_linker_0, # of connection points: 2
#     Edge 48, Type (0, 0), BuildingBlock: ZUJKAS_clean_linker_0, # of connection points: 2
#     Edge 49, Type (0, 0), BuildingBlock: ZUJKAS_clean_linker_0, # of connection points: 2
#     Edge 50, Type (0, 0), BuildingBlock: ZUJKAS_clean_linker_0, # of connection points: 2
#     Edge 51, Type (0, 0), BuildingBlock: ZUJKAS_clean_linker_0, # of connection points: 2
#     Edge 52, Type (0, 0), BuildingBlock: ZUJKAS_clean_linker_0, # of connection points: 2
#     Edge 53, Type (0, 0), BuildingBlock: ZUJKAS_clean_linker_0, # of connection points: 2
#     Edge 54, Type (0, 0), BuildingBlock: ZUJKAS_clean_linker_0, # of connection points: 2
#     Edge 55, Type (0, 0), BuildingBlock: ZUJKAS_clean_linker_0, # of connection points: 2
#     Edge 56, Type (0, 0), BuildingBlock: ZUJKAS_clean_linker_0, # of connection points: 2
#     Edge 57, Type (0, 0), BuildingBlock: ZUJKAS_clean_linker_0, # of connection points: 2
#     Edge 58, Type (0, 0), BuildingBlock: ZUJKAS_clean_linker_0, # of connection points: 2
#     Edge 59, Type (0, 0), BuildingBlock: ZUJKAS_clean_linker_0, # of connection points: 2
#     Edge 60, Type (0, 0), BuildingBlock: ZUJKAS_clean_linker_0, # of connection points: 2
#     Edge 61, Type (0, 0), BuildingBlock: ZUJKAS_clean_linker_0, # of connection points: 2
#     Edge 62, Type (0, 0), BuildingBlock: ZUJKAS_clean_linker_0, # of connection points: 2
#     Edge 63, Type (0, 0), BuildingBlock: ZUJKAS_clean_linker_0, # of connection points: 2
#     Edge 64, Type (0, 0), BuildingBlock: ZUJKAS_clean_linker_0, # of connection points: 2
#     Edge 65, Type (0, 0), BuildingBlock: ZUJKAS_clean_linker_0, # of connection points: 2
#     Edge 66, Type (0, 0), BuildingBlock: ZUJKAS_clean_linker_0, # of connection points: 2
#     Edge 67, Type (0, 0), BuildingBlock: ZUJKAS_clean_linker_0, # of connection points: 2
#     Edge 68, Type (0, 0), BuildingBlock: ZUJKAS_clean_linker_0, # of connection points: 2
#     Edge 69, Type (0, 0), BuildingBlock: ZUJKAS_clean_linker_0, # of connection points: 2
#     Edge 70, Type (0, 0), BuildingBlock: ZUJKAS_clean_linker_0, # of connection points: 2
#     Edge 71, Type (0, 0), BuildingBlock: ZUJKAS_clean_linker_0, # of connection points: 2
# Relax obj value: 0.051
# Max RMSD: 0.065
# Mean RMSD: 0.065
data_MOF--net-afi--node1-TATPOV_clean_sbu_0--edge1-ZUJKAS_clean_linker_0
_symmetry_space_group_name_H-M    P1
_symmetry_Int_Tables_number       1
_symmetry_cell_setting            triclinic
loop_
_symmetry_equiv_pos_as_xyz
'x, y, z'
_cell_length_a     84.789452
_cell_length_b     84.80752
_cell_length_c     53.837045
_cell_angle_alpha  89.982525
_cell_angle_beta   90.003719
_cell_angle_gamma 119.99508
loop_
_atom_site_label
_atom_site_type_symbol
_atom_site_fract_x
_atom_site_fract_y
_atom_site_fract_z
_atom_type_partial_charge
Zn0 Zn 0.43873 0.11135 0.23737 0.0
Zn1 Zn 0.43972 0.11243 0.19168 0.0
O2 O 0.42458 0.08455 0.19951 0.0
O3 O 0.43159 0.08532 0.23899 0.0
O4 O 0.44061 0.11389 0.15373 0.0
O5 O 0.41991 0.11853 0.24086 0.0
O6 O 0.42723 0.12735 0.20215 0.0
C7 C 0.42431 0.07632 0.21951 0.0
C8 C 0.47459 0.13153 0.22324 0.0
O9 O 0.46702 0.12432 0.20255 0.0
O10 O 0.4648 0.12988 0.24185 0.0
C11 C 0.44717 0.10586 0.141 0.0
O12 O 0.45343 0.09651 0.15271 0.0
C13 C 0.41904 0.1271 0.22222 0.0
Zn14 Zn 0.33931 0.46759 0.23474 0.0
Zn15 Zn 0.3369 0.46597 0.18998 0.0
O16 O 0.34659 0.44825 0.1989 0.0
O17 O 0.3562 0.45793 0.23675 0.0
O18 O 0.33478 0.46504 0.15206 0.0
O19 O 0.31317 0.45082 0.2413 0.0
O20 O 0.31022 0.45682 0.20248 0.0
C21 C 0.35516 0.44819 0.2184 0.0
C22 C 0.35761 0.50249 0.21786 0.0
O23 O 0.35558 0.4934 0.19799 0.0
O24 O 0.34932 0.49422 0.23735 0.0
C25 C 0.34875 0.47031 0.13829 0.0
O26 O 0.36471 0.47632 0.14887 0.0
C27 C 0.30308 0.44996 0.22351 0.0
Zn28 Zn 0.90156 0.31568 0.23185 0.0
Zn29 Zn 0.89293 0.32189 0.18791 0.0
O30 O 0.9207 0.33021 0.18645 0.0
O31 O 0.92666 0.32232 0.22266 0.0
O32 O 0.88658 0.32366 0.15173 0.0
O33 O 0.88253 0.28976 0.23324 0.0
O34 O 0.87364 0.29512 0.19742 0.0
C35 C 0.93188 0.32918 0.20134 0.0
C36 C 0.89048 0.34308 0.23156 0.0
O37 O 0.88842 0.33992 0.20824 0.0
O38 O 0.89605 0.33467 0.24516 0.0
C39 C 0.8963 0.33738 0.13797 0.0
O40 O 0.91071 0.35144 0.14758 0.0
C41 C 0.87132 0.28438 0.21547 0.0
Zn42 Zn 0.52381 0.87046 0.24567 0.0
Zn43 Zn 0.52246 0.86809 0.19945 0.0
O44 O 0.53809 0.89605 0.20655 0.0
O45 O 0.53296 0.89695 0.24639 0.0
O46 O 0.52138 0.86647 0.16151 0.0
O47 O 0.54133 0.86168 0.24921 0.0
O48 O 0.5354 0.85361 0.21001 0.0
C49 C 0.53988 0.90517 0.22627 0.0
C50 C 0.48771 0.84996 0.23175 0.0
O51 O 0.49508 0.85589 0.21052 0.0
O52 O 0.49761 0.85316 0.25071 0.0
C53 C 0.51499 0.87476 0.14899 0.0
O54 O 0.509 0.88424 0.16093 0.0
C55 C 0.54295 0.85358 0.23056 0.0
Zn56 Zn 0.66244 0.52942 0.23617 0.0
Zn57 Zn 0.66445 0.53257 0.19225 0.0
O58 O 0.65328 0.54863 0.2033 0.0
O59 O 0.64325 0.53607 0.23981 0.0
O60 O 0.66635 0.53477 0.15436 0.0
O61 O 0.68797 0.54825 0.24312 0.0
O62 O 0.69136 0.54246 0.20442 0.0
C63 C 0.64386 0.5466 0.2228 0.0
C64 C 0.64616 0.49527 0.21791 0.0
O65 O 0.64682 0.50478 0.19909 0.0
O66 O 0.6552 0.50323 0.2371 0.0
C67 C 0.65219 0.52869 0.14078 0.0
O68 O 0.63614 0.52099 0.15155 0.0
C69 C 0.69831 0.54963 0.22539 0.0
Zn70 Zn 0.07509 0.6655 0.23451 0.0
Zn71 Zn 0.08468 0.66082 0.18981 0.0
O72 O 0.05658 0.65036 0.18811 0.0
O73 O 0.04967 0.65718 0.22444 0.0
O74 O 0.09105 0.65793 0.15417 0.0
O75 O 0.09299 0.69187 0.23468 0.0
O76 O 0.10168 0.68845 0.1975 0.0
C77 C 0.04488 0.65038 0.20301 0.0
C78 C 0.08915 0.64083 0.23412 0.0
O79 O 0.09143 0.64475 0.21101 0.0
O80 O 0.08204 0.64763 0.24801 0.0
C81 C 0.08945 0.66736 0.13697 0.0
O82 O 0.08403 0.67893 0.14286 0.0
C83 C 0.10328 0.69856 0.21603 0.0
Zn84 Zn 0.83821 0.49605 0.3001 0.0
Zn85 Zn 0.85528 0.50982 0.34147 0.0
O86 O 0.87576 0.52652 0.31756 0.0
O87 O 0.86084 0.51527 0.28253 0.0
O88 O 0.86448 0.51773 0.37691 0.0
O89 O 0.8178 0.50043 0.30655 0.0
O90 O 0.83401 0.51551 0.3391 0.0
C91 C 0.87519 0.52662 0.29387 0.0
C92 C 0.84294 0.46998 0.32424 0.0
O93 O 0.85121 0.48334 0.33923 0.0
O94 O 0.83489 0.47154 0.30547 0.0
C95 C 0.85427 0.50776 0.39445 0.0
O96 O 0.83891 0.49303 0.38867 0.0
C97 C 0.82027 0.51066 0.32491 0.0
Zn98 Zn 0.30909 0.85473 0.28227 0.0
Zn99 Zn 0.30681 0.85679 0.32749 0.0
O100 O 0.32013 0.88402 0.31621 0.0
O101 O 0.32816 0.88065 0.27863 0.0
O102 O 0.30491 0.85772 0.36529 0.0
O103 O 0.28352 0.84755 0.27529 0.0
O104 O 0.27969 0.84191 0.31533 0.0
C105 C 0.32899 0.89092 0.29617 0.0
C106 C 0.32381 0.83575 0.30319 0.0
O107 O 0.32256 0.84433 0.32192 0.0
O108 O 0.31641 0.83592 0.28292 0.0
C109 C 0.3188 0.86797 0.37847 0.0
O110 O 0.33451 0.87808 0.36733 0.0
C111 C 0.27301 0.84092 0.29372 0.0
Zn112 Zn 0.44278 0.32419 0.28163 0.0
Zn113 Zn 0.44554 0.32514 0.32749 0.0
O114 O 0.42633 0.33321 0.31972 0.0
O115 O 0.41984 0.32486 0.28069 0.0
O116 O 0.44701 0.32515 0.36553 0.0
O117 O 0.44183 0.30073 0.27746 0.0
O118 O 0.4375 0.29812 0.31786 0.0
C119 C 0.41673 0.33097 0.30033 0.0
C120 C 0.47728 0.35201 0.29464 0.0
O121 O 0.47193 0.34421 0.31575 0.0
O122 O 0.46631 0.34687 0.27657 0.0
C123 C 0.44481 0.33619 0.37916 0.0
O124 O 0.44173 0.34833 0.36848 0.0
C125 C 0.43799 0.29124 0.29695 0.0
Zn126 Zn 0.14272 0.48446 0.28298 0.0
Zn127 Zn 0.12925 0.47319 0.32726 0.0
O128 O 0.10777 0.45459 0.30573 0.0
O129 O 0.12007 0.46342 0.26862 0.0
O130 O 0.12168 0.46671 0.36353 0.0
O131 O 0.1646 0.48237 0.28873 0.0
O132 O 0.15179 0.4695 0.32429 0.0
C133 C 0.10678 0.45266 0.28215 0.0
C134 C 0.13869 0.5114 0.30678 0.0
O135 O 0.13266 0.49936 0.32393 0.0
O136 O 0.14437 0.50839 0.28665 0.0
C137 C 0.11994 0.45231 0.37354 0.0
O138 O 0.12227 0.44085 0.35977 0.0
C139 C 0.16457 0.47428 0.30842 0.0
Zn140 Zn 0.66229 0.12449 0.27122 0.0
Zn141 Zn 0.66049 0.1229 0.31813 0.0
O142 O 0.65388 0.09687 0.30612 0.0
O143 O 0.66138 0.10087 0.2666 0.0
O144 O 0.66009 0.12051 0.35601 0.0
O145 O 0.68569 0.14742 0.27012 0.0
O146 O 0.68711 0.1438 0.3104 0.0
C147 C 0.65577 0.09062 0.28543 0.0
C148 C 0.63306 0.12854 0.28797 0.0
O149 O 0.64018 0.12914 0.30915 0.0
O150 O 0.63953 0.12548 0.26862 0.0
C151 C 0.65683 0.1301 0.37108 0.0
O152 O 0.65328 0.14242 0.36217 0.0
C153 C 0.69437 0.15245 0.29032 0.0
Zn154 Zn 0.56366 0.67639 0.28507 0.0
Zn155 Zn 0.55564 0.67328 0.33175 0.0
O156 O 0.57399 0.66364 0.32748 0.0
O157 O 0.5826 0.66965 0.28841 0.0
O158 O 0.55206 0.6728 0.36944 0.0
O159 O 0.57136 0.70232 0.28279 0.0
O160 O 0.56439 0.7005 0.32246 0.0
C161 C 0.5838 0.66372 0.3094 0.0
C162 C 0.52596 0.6506 0.29404 0.0
O163 O 0.53027 0.65541 0.31666 0.0
O164 O 0.53797 0.65743 0.27722 0.0
C165 C 0.54987 0.65951 0.38295 0.0
O166 O 0.54919 0.64527 0.37222 0.0
C167 C 0.57019 0.70978 0.30244 0.0
Zn168 Zn 0.48756 0.85221 0.78403 0.0
Zn169 Zn 0.49768 0.85877 0.82994 0.0
O170 O 0.51502 0.8839 0.81405 0.0
O171 O 0.50474 0.87834 0.77561 0.0
O172 O 0.50366 0.86143 0.86707 0.0
O173 O 0.49538 0.83411 0.77932 0.0
O174 O 0.50455 0.83939 0.81822 0.0
C175 C 0.51557 0.88924 0.79171 0.0
C176 C 0.45792 0.84618 0.81237 0.0
O177 O 0.47025 0.85225 0.82913 0.0
O178 O 0.46173 0.84382 0.79053 0.0
C179 C 0.49882 0.87011 0.8816 0.0
O180 O 0.49027 0.87809 0.87224 0.0
C181 C 0.50284 0.83116 0.79764 0.0
Zn182 Zn 0.6627 0.52563 0.77438 0.0
Zn183 Zn 0.6644 0.5326 0.82116 0.0
O184 O 0.65626 0.55025 0.80694 0.0
O185 O 0.65339 0.54258 0.76742 0.0
O186 O 0.66605 0.5363 0.85887 0.0
O187 O 0.68885 0.53437 0.77092 0.0
O188 O 0.69125 0.5406 0.81088 0.0
C189 C 0.6522 0.55207 0.78466 0.0
C190 C 0.63884 0.4939 0.79884 0.0
O191 O 0.64436 0.50504 0.8171 0.0
O192 O 0.64554 0.49936 0.7775 0.0
C193 C 0.65186 0.53012 0.87241 0.0
O194 O 0.63579 0.52168 0.86168 0.0
C195 C 0.69857 0.5405 0.79016 0.0
Zn196 Zn 0.14678 0.64165 0.7878 0.0
Zn197 Zn 0.13426 0.64161 0.8324 0.0
O198 O 0.11179 0.63609 0.81152 0.0
O199 O 0.12205 0.63518 0.77422 0.0
O200 O 0.12718 0.6417 0.86858 0.0
O201 O 0.16615 0.66752 0.78966 0.0
O202 O 0.15498 0.66834 0.82624 0.0
C203 C 0.10936 0.63382 0.7881 0.0
C204 C 0.14677 0.61418 0.81576 0.0
O205 O 0.13937 0.61991 0.83128 0.0
O206 O 0.15248 0.62218 0.79517 0.0
C207 C 0.12374 0.6536 0.87734 0.0
O208 O 0.12429 0.66611 0.86237 0.0
C209 C 0.16627 0.67638 0.80859 0.0
Zn210 Zn 0.47319 0.12505 0.77627 0.0
Zn211 Zn 0.46433 0.1219 0.82195 0.0
O212 O 0.44641 0.09619 0.80772 0.0
O213 O 0.45841 0.09824 0.77078 0.0
O214 O 0.45868 0.12024 0.85915 0.0
O215 O 0.46209 0.1401 0.76846 0.0
O216 O 0.45831 0.14153 0.80866 0.0
C217 C 0.44667 0.0889 0.78707 0.0
C218 C 0.50395 0.13535 0.80433 0.0
O219 O 0.49174 0.12862 0.82119 0.0
O220 O 0.49974 0.13702 0.7824 0.0
C221 C 0.46291 0.11101 0.87355 0.0
O222 O 0.47053 0.10219 0.86397 0.0
C223 C 0.45721 0.14625 0.78645 0.0
Zn224 Zn 0.33683 0.48494 0.77281 0.0
Zn225 Zn 0.33437 0.47534 0.81932 0.0
O226 O 0.34212 0.45804 0.80328 0.0
O227 O 0.34516 0.46724 0.76439 0.0
O228 O 0.33234 0.47021 0.85671 0.0
O229 O 0.31086 0.47748 0.77 0.0
O230 O 0.30779 0.46833 0.80888 0.0
C231 C 0.34607 0.45695 0.78068 0.0
C232 C 0.36121 0.51482 0.80029 0.0
O233 O 0.35507 0.50271 0.81733 0.0
O234 O 0.3548 0.51082 0.77857 0.0
C235 C 0.3465 0.47514 0.86997 0.0
O236 O 0.3625 0.48295 0.85903 0.0
C237 C 0.30088 0.47016 0.78874 0.0
Zn238 Zn 0.8433 0.33176 0.77899 0.0
Zn239 Zn 0.85212 0.32898 0.82421 0.0
O240 O 0.87642 0.33656 0.80608 0.0
O241 O 0.8687 0.33932 0.76795 0.0
O242 O 0.85678 0.32671 0.86098 0.0
O243 O 0.82433 0.30602 0.77641 0.0
O244 O 0.83232 0.30243 0.81397 0.0
C245 C 0.88047 0.3401 0.78313 0.0
C246 C 0.83907 0.35614 0.80816 0.0
O247 O 0.84546 0.34976 0.8243 0.0
O248 O 0.83608 0.35 0.78627 0.0
C249 C 0.86786 0.34057 0.87362 0.0
O250 O 0.87679 0.35642 0.86241 0.0
C251 C 0.82264 0.29577 0.79444 0.0
Zn252 Zn 0.08998 0.40048 0.73309 0.0
Zn253 Zn 0.09574 0.41574 0.68934 0.0
O254 O 0.06797 0.39674 0.69138 0.0
O255 O 0.06404 0.38246 0.72693 0.0
O256 O 0.0992 0.4242 0.6532 0.0
O257 O 0.10888 0.39338 0.72999 0.0
O258 O 0.11581 0.40866 0.69489 0.0
C259 C 0.05754 0.38463 0.70696 0.0
C260 C 0.10142 0.43917 0.73437 0.0
O261 O 0.10163 0.43804 0.71074 0.0
O262 O 0.09693 0.4252 0.74766 0.0
C263 C 0.09766 0.41304 0.63625 0.0
O264 O 0.09411 0.39665 0.64278 0.0
C265 C 0.11924 0.39995 0.71139 0.0
Zn266 Zn 0.67286 0.1003 0.73324 0.0
Zn267 Zn 0.6655 0.10214 0.6871 0.0
O268 O 0.65408 0.07426 0.69439 0.0
O269 O 0.66003 0.07348 0.73401 0.0
O270 O 0.66173 0.10317 0.64966 0.0
O271 O 0.69954 0.11376 0.72945 0.0
O272 O 0.69354 0.1199 0.69213 0.0
C273 C 0.65287 0.06522 0.71401 0.0
C274 C 0.65027 0.11641 0.72661 0.0
O275 O 0.65033 0.11205 0.70393 0.0
O276 O 0.65958 0.11364 0.7426 0.0
C277 C 0.66991 0.118 0.63743 0.0
O278 O 0.68078 0.13314 0.64934 0.0
C279 C 0.70499 0.1224 0.70928 0.0
Zn280 Zn 0.5727 0.68966 0.74754 0.0
Zn281 Zn 0.56283 0.68275 0.70116 0.0
O282 O 0.58321 0.67595 0.70608 0.0
O283 O 0.59178 0.68293 0.745 0.0
O284 O 0.5582 0.6802 0.66366 0.0
O285 O 0.57956 0.71558 0.74618 0.0
O286 O 0.56817 0.70924 0.70841 0.0
C287 C 0.59328 0.6768 0.7243 0.0
C288 C 0.53504 0.66136 0.74115 0.0
O289 O 0.53881 0.6639 0.71801 0.0
O290 O 0.54709 0.67078 0.75711 0.0
C291 C 0.55582 0.66633 0.6514 0.0
O292 O 0.55573 0.65278 0.66336 0.0
C293 C 0.57497 0.72038 0.72655 0.0
Zn294 Zn 0.89728 0.57124 0.7518 0.0
Zn295 Zn 0.8911 0.56115 0.70538 0.0
O296 O 0.91943 0.57698 0.7079 0.0
O297 O 0.92394 0.5849 0.7473 0.0
O298 O 0.88669 0.55576 0.66824 0.0
O299 O 0.88363 0.58447 0.75117 0.0
O300 O 0.87546 0.57329 0.71348 0.0
C301 C 0.93025 0.58529 0.72591 0.0
C302 C 0.87922 0.53236 0.74613 0.0
O303 O 0.88107 0.53618 0.72298 0.0
O304 O 0.88468 0.54499 0.76208 0.0
C305 C 0.88927 0.54406 0.6569 0.0
O306 O 0.89479 0.53449 0.66962 0.0
C307 C 0.8743 0.58221 0.73185 0.0
Zn308 Zn 0.28897 0.88655 0.73821 0.0
Zn309 Zn 0.29704 0.87938 0.69505 0.0
O310 O 0.30574 0.90722 0.6962 0.0
O311 O 0.29533 0.91192 0.73113 0.0
O312 O 0.29928 0.87449 0.65839 0.0
O313 O 0.2632 0.86683 0.73906 0.0
O314 O 0.27074 0.85887 0.70417 0.0
C315 C 0.30402 0.91801 0.71108 0.0
C316 C 0.31755 0.87654 0.73834 0.0
O317 O 0.31497 0.87476 0.7149 0.0
O318 O 0.30846 0.88151 0.75165 0.0
C319 C 0.31304 0.8848 0.64504 0.0
O320 O 0.32693 0.89897 0.65538 0.0
C321 C 0.25921 0.85558 0.72153 0.0
Zn322 Zn 0.42676 0.3202 0.7459 0.0
Zn323 Zn 0.43713 0.32647 0.69919 0.0
O324 O 0.41777 0.33475 0.70344 0.0
O325 O 0.40812 0.32747 0.74194 0.0
O326 O 0.44279 0.32958 0.66191 0.0
O327 O 0.41948 0.29415 0.7443 0.0
O328 O 0.42948 0.29928 0.70575 0.0
C329 C 0.40743 0.33405 0.72119 0.0
C330 C 0.46475 0.34716 0.74015 0.0
O331 O 0.46133 0.34398 0.717 0.0
O332 O 0.45223 0.33882 0.756 0.0
C333 C 0.42965 0.32336 0.64645 0.0
O334 O 0.4129 0.31524 0.65505 0.0
C335 C 0.4227 0.28852 0.72427 0.0
H336 H 0.39098 0.05194 0.20024 0.0
H337 H 0.37216 0.01987 0.21282 0.0
H338 H 0.41704 0.02406 0.25584 0.0
H339 H 0.43549 0.05602 0.24409 0.0
H340 H 0.37451 0.98898 0.21003 0.0
H341 H 0.37796 0.00938 0.30822 0.0
H342 H 0.38554 0.0256 0.28306 0.0
H343 H 0.40029 0.01791 0.29542 0.0
C344 C 0.39688 0.04581 0.21188 0.0
C345 C 0.41456 0.05636 0.22141 0.0
C346 C 0.38612 0.0276 0.21923 0.0
C347 C 0.39303 0.01983 0.23598 0.0
C348 C 0.41123 0.02998 0.24364 0.0
H349 H 0.35935 0.90952 0.26841 0.0
H350 H 0.37342 0.94111 0.2548 0.0
C351 C 0.42182 0.04814 0.23667 0.0
C352 C 0.38128 0.00136 0.24625 0.0
H353 H 0.36869 0.97789 0.30101 0.0
C354 C 0.37303 0.98656 0.2299 0.0
C355 C 0.37888 -0.00176 0.2722 0.0
C356 C 0.38597 0.01366 0.29071 0.0
C357 C 0.36339 0.96863 0.23884 0.0
C358 C 0.36248 0.96547 0.26479 0.0
C359 C 0.36974 0.98031 0.28113 0.0
C360 C 0.35489 0.9469 0.27518 0.0
C361 C 0.35437 0.95328 0.22033 0.0
C362 C 0.34068 0.94008 0.29269 0.0
C363 C 0.33289 0.92207 0.30107 0.0
C364 C 0.33918 0.91071 0.29187 0.0
C365 C 0.3541 0.91795 0.27554 0.0
C366 C 0.36201 0.93592 0.26752 0.0
H367 H 0.35088 0.9579 0.20292 0.0
H368 H 0.36392 0.9484 0.21542 0.0
H369 H 0.34175 0.94168 0.22806 0.0
H370 H 0.3352 0.94846 0.29915 0.0
H371 H 0.32135 0.91676 0.31358 0.0
H372 H 0.41903 0.36052 0.32402 0.0
H373 H 0.40399 0.37735 0.31074 0.0
H374 H 0.37134 0.33461 0.25874 0.0
H375 H 0.3866 0.31798 0.27154 0.0
H376 H 0.39136 0.36724 0.2362 0.0
H377 H 0.35506 0.37473 0.31679 0.0
H378 H 0.37816 0.38103 0.32387 0.0
H379 H 0.36207 0.35783 0.3158 0.0
C380 C 0.40811 0.35438 0.31054 0.0
C381 C 0.40404 0.33804 0.29867 0.0
C382 C 0.39952 0.36402 0.30292 0.0
C383 C 0.38656 0.35724 0.28369 0.0
C384 C 0.38134 0.34011 0.27352 0.0
H385 H 0.34279 0.41477 0.19659 0.0
H386 H 0.34985 0.39127 0.21011 0.0
C387 C 0.39001 0.3306 0.28093 0.0
C388 C 0.38056 0.36907 0.27167 0.0
H389 H 0.36198 0.39588 0.28323 0.0
C390 C 0.38466 0.37328 0.24637 0.0
C391 C 0.37188 0.37694 0.28498 0.0
C392 C 0.36637 0.37227 0.3118 0.0
C393 C 0.38099 0.38577 0.2343 0.0
C394 C 0.37289 0.3941 0.24786 0.0
C395 C 0.36828 0.38948 0.27293 0.0
C396 C 0.37015 0.40857 0.23702 0.0
C397 C 0.3865 0.39055 0.2075 0.0
C398 C 0.37959 0.42609 0.24716 0.0
C399 C 0.37561 0.4394 0.23953 0.0
C400 C 0.36207 0.43544 0.22161 0.0
C401 C 0.35341 0.41822 0.21024 0.0
C402 C 0.35737 0.4048 0.21802 0.0
H403 H 0.39527 0.38513 0.20088 0.0
H404 H 0.37411 0.38473 0.19572 0.0
H405 H 0.39391 0.40556 0.20491 0.0
H406 H 0.38959 0.42929 0.26169 0.0
H407 H 0.38256 0.45259 0.24854 0.0
H408 H 0.95179 0.35942 0.17264 0.0
H409 H 0.98471 0.38016 0.1761 0.0
H410 H 0.98909 0.34146 0.22345 0.0
H411 H 0.95648 0.32076 0.21979 0.0
H412 H -0.00237 0.39367 0.22186 0.0
H413 H 0.03619 0.36212 0.18521 0.0
H414 H 0.01287 0.35436 0.17642 0.0
H415 H 0.01792 0.34666 0.20493 0.0
C416 C 0.95993 0.355 0.18278 0.0
C417 C 0.9516 0.33859 0.19616 0.0
C418 C 0.97872 0.3669 0.18488 0.0
C419 C 0.98937 0.36237 0.20005 0.0
C420 C 0.98127 0.34516 0.21131 0.0
H421 H 0.07362 0.42945 0.30345 0.0
H422 H 0.04555 0.40761 0.28204 0.0
C423 C 0.96256 0.33336 0.20932 0.0
C424 C 0.00778 0.37653 0.20815 0.0
H425 H 0.05091 0.38443 0.21802 0.0
C426 C 0.00938 0.39182 0.22058 0.0
C427 C 0.02309 0.37412 0.20652 0.0
C428 C 0.02248 0.35851 0.19231 0.0
C429 C 0.02561 0.40432 0.23237 0.0
C430 C 0.04054 0.40127 0.2321 0.0
C431 C 0.03928 0.3865 0.21865 0.0
C432 C 0.05767 0.41349 0.24537 0.0
C433 C 0.0266 0.42062 0.24517 0.0
C434 C 0.07384 0.42351 0.23194 0.0
C435 C 0.08983 0.43589 0.24408 0.0
C436 C 0.09001 0.43844 0.26996 0.0
C437 C 0.07392 0.42788 0.28352 0.0
C438 C 0.05787 0.41549 0.2713 0.0
H439 H 0.01589 0.42345 0.23835 0.0
H440 H 0.02456 0.41794 0.26542 0.0
H441 H 0.04012 0.43296 0.24229 0.0
H442 H 0.07398 0.42208 0.21196 0.0
H443 H 0.102 0.44368 0.23304 0.0
H444 H 0.53872 0.92809 0.26026 0.0
H445 H 0.5615 0.95986 0.26733 0.0
H446 H 0.59085 0.95931 0.20222 0.0
H447 H 0.56786 0.92726 0.19486 0.0
H448 H 0.59933 0.97043 0.27504 0.0
H449 H 0.58881 0.00757 0.19724 0.0
H450 H 0.57127 0.98523 0.20705 0.0
H451 H 0.59042 0.98774 0.18964 0.0
C452 C 0.54981 0.93479 0.24711 0.0
C453 C 0.55159 0.92516 0.22708 0.0
C454 C 0.56284 0.95293 0.25124 0.0
C455 C 0.57787 0.96183 0.23541 0.0
C456 C 0.57924 0.95264 0.21455 0.0
H457 H 0.66424 0.07469 0.24789 0.0
H458 H 0.64801 0.04254 0.23648 0.0
C459 C 0.56609 0.93439 0.21032 0.0
C460 C 0.5926 0.98027 0.2421 0.0
H461 H 0.61176 0.02501 0.22616 0.0
C462 C 0.60219 0.98239 0.26427 0.0
C463 C 0.59632 -0.00427 0.2279 0.0
C464 C 0.58615 0.99411 0.20417 0.0
C465 C 0.61518 -0.00033 0.27294 0.0
C466 C 0.61839 0.01522 0.25927 0.0
C467 C 0.60925 0.01304 0.23663 0.0
C468 C 0.63035 0.03393 0.26862 0.0
C469 C 0.62529 0.00112 0.29667 0.0
C470 C 0.62623 0.03965 0.29098 0.0
C471 C 0.63561 0.05804 0.29769 0.0
C472 C 0.64903 0.071 0.28191 0.0
C473 C 0.65389 0.06504 0.26036 0.0
C474 C 0.64461 0.04668 0.25377 0.0
H475 H 0.62562 0.9884 0.30046 0.0
H476 H 0.6395 0.01269 0.29593 0.0
H477 H 0.61824 0.00339 0.31243 0.0
H478 H 0.61506 0.03008 0.30251 0.0
H479 H 0.63146 0.06224 0.31428 0.0
H480 H 0.57507 0.63205 0.33342 0.0
H481 H 0.58725 0.612 0.32294 0.0
H482 H 0.62797 0.65412 0.27645 0.0
H483 H 0.61597 0.67406 0.2869 0.0
H484 H 0.58535 0.6025 0.27296 0.0
H485 H 0.65617 0.63174 0.30703 0.0
H486 H 0.64034 0.63788 0.32005 0.0
H487 H 0.65211 0.64812 0.29156 0.0
C488 C 0.58719 0.6373 0.322 0.0
C489 C 0.59458 0.65452 0.31088 0.0
C490 C 0.59402 0.6258 0.31584 0.0
C491 C 0.6085 0.63159 0.2989 0.0
C492 C 0.61699 0.64946 0.28983 0.0
H493 H 0.6544 0.5809 0.20553 0.0
H494 H 0.64454 0.60163 0.22205 0.0
C495 C 0.6101 0.66084 0.29579 0.0
C496 C 0.61266 0.61829 0.28722 0.0
H497 H 0.64735 0.61029 0.27361 0.0
C498 C 0.59885 0.60405 0.27338 0.0
C499 C 0.63035 0.62057 0.2874 0.0
C500 C 0.64556 0.63531 0.30249 0.0
C501 C 0.60232 0.5922 0.25932 0.0
C502 C 0.62003 0.59453 0.25941 0.0
C503 C 0.63383 0.6087 0.27335 0.0
C504 C 0.62421 0.5816 0.24667 0.0
C505 C 0.58713 0.57755 0.24408 0.0
C506 C 0.61568 0.56345 0.25457 0.0
C507 C 0.62121 0.55169 0.24519 0.0
C508 C 0.63545 0.55786 0.22778 0.0
C509 C 0.64328 0.57575 0.21873 0.0
C510 C 0.63778 0.58761 0.2283 0.0
H511 H 0.57621 0.58084 0.24028 0.0
H512 H 0.5923 0.57553 0.22611 0.0
H513 H 0.58097 0.56452 0.25449 0.0
H514 H 0.60537 0.5586 0.26895 0.0
H515 H 0.61495 0.53796 0.25252 0.0
H516 H 0.02648 0.61981 0.17444 0.0
H517 H -0.00616 0.59771 0.17759 0.0
H518 H 0.98662 0.63507 0.22404 0.0
H519 H 0.01893 0.65709 0.22073 0.0
H520 H 0.98141 0.58413 0.2233 0.0
H521 H 0.93933 0.61153 0.18615 0.0
H522 H 0.96283 0.62053 0.17718 0.0
H523 H 0.95721 0.62805 0.2054 0.0
C524 C 0.01775 0.62361 0.18429 0.0
C525 C 0.02522 0.64005 0.19757 0.0
C526 C -0.00087 0.61095 0.18619 0.0
C527 C 0.98778 0.61473 0.20105 0.0
C528 C -0.00502 0.63193 0.21213 0.0
H529 H 0.90947 0.55108 0.31062 0.0
H530 H 0.93606 0.57152 0.28554 0.0
C531 C 0.01352 0.64449 0.21036 0.0
C532 C 0.96976 0.5999 0.20934 0.0
H533 H 0.9262 0.59018 0.22071 0.0
C534 C 0.96923 0.58523 0.22221 0.0
C535 C 0.95385 0.60129 0.20791 0.0
C536 C 0.95329 0.61613 0.19317 0.0
C537 C 0.95355 0.57256 0.23494 0.0
C538 C 0.93812 0.5748 0.23513 0.0
C539 C 0.93822 0.58875 0.22097 0.0
C540 C 0.92191 0.56296 0.25034 0.0
C541 C 0.95376 0.55709 0.24849 0.0
C542 C 0.9051 0.55182 0.23887 0.0
C543 C 0.88992 0.54019 0.25311 0.0
C544 C 0.89123 0.53959 0.27915 0.0
C545 C 0.90802 0.55114 0.29064 0.0
C546 C 0.92323 0.56275 0.27633 0.0
H547 H 0.96446 0.55445 0.24111 0.0
H548 H 0.95668 0.56066 0.26844 0.0
H549 H 0.94037 0.54438 0.24707 0.0
H550 H 0.90381 0.55188 0.21885 0.0
H551 H 0.87718 0.53157 0.24363 0.0
H552 H 0.51538 0.90642 0.7492 0.0
H553 H 0.53945 0.9354 0.73308 0.0
H554 H 0.57125 0.94301 0.79912 0.0
H555 H 0.5471 0.91379 0.81554 0.0
H556 H 0.55562 0.97108 0.75514 0.0
H557 H 0.605 0.94703 0.7396 0.0
H558 H 0.58094 0.93159 0.74413 0.0
H559 H 0.59523 0.94334 0.77018 0.0
C560 C 0.52743 0.91427 0.76044 0.0
C561 C 0.5294 0.90775 0.78361 0.0
C562 C 0.54116 0.93083 0.75116 0.0
C563 C 0.5572 0.94113 0.76471 0.0
C564 C 0.55904 0.93504 0.78823 0.0
H565 H 0.65468 0.04249 0.7478 0.0
H566 H 0.63147 0.01115 0.75638 0.0
C567 C 0.5452 0.91846 0.79767 0.0
C568 C 0.57196 0.95822 0.75399 0.0
H569 H 0.6155 0.97823 0.732 0.0
C570 C 0.5687 0.97267 0.74994 0.0
C571 C 0.58889 0.96008 0.7471 0.0
C572 C 0.59278 0.94467 0.75024 0.0
C573 C 0.5822 0.98925 0.73995 0.0
C574 C 0.59924 0.99121 0.73324 0.0
C575 C 0.60237 0.97661 0.73692 0.0
C576 C 0.61457 0.00894 0.72497 0.0
C577 C 0.57834 0.00475 0.73765 0.0
C578 C 0.61327 0.01778 0.70362 0.0
C579 C 0.6266 0.03584 0.69864 0.0
C580 C 0.64134 0.0452 0.71498 0.0
C581 C 0.64335 0.03571 0.73503 0.0
C582 C 0.6301 0.01777 0.73996 0.0
H583 H 0.56607 0.00217 0.74834 0.0
H584 H 0.59011 0.01769 0.74431 0.0
H585 H 0.57596 0.00653 0.71784 0.0
H586 H 0.60156 0.01101 0.69149 0.0
H587 H 0.62472 0.04279 0.68303 0.0
H588 H 0.65492 0.5805 0.81272 0.0
H589 H 0.64713 0.60359 0.79956 0.0
H590 H 0.62942 0.57703 0.72851 0.0
H591 H 0.63702 0.55412 0.74127 0.0
H592 H 0.66134 0.62665 0.75255 0.0
H593 H 0.58602 0.58239 0.75688 0.0
H594 H 0.60134 0.57747 0.77414 0.0
H595 H 0.59824 0.57296 0.7414 0.0
C596 C 0.6492 0.57952 0.79441 0.0
C597 C 0.64658 0.56548 0.77807 0.0
C598 C 0.64487 0.59273 0.78689 0.0
C599 C 0.63765 0.59189 0.76313 0.0
C600 C 0.63485 0.5778 0.74698 0.0
H601 H 0.59106 0.65104 0.69145 0.0
H602 H 0.6048 0.63178 0.69693 0.0
C603 C 0.63925 0.56474 0.75435 0.0
C604 C 0.63315 0.60575 0.75475 0.0
H605 H 0.59739 0.61131 0.73848 0.0
C606 C 0.64738 0.62339 0.74956 0.0
C607 C 0.61494 0.60127 0.7505 0.0
C608 C 0.5992 0.58254 0.75615 0.0
C609 C 0.64383 0.63674 0.74007 0.0
C610 C 0.62557 0.63235 0.73618 0.0
C611 C 0.61139 0.61462 0.74119 0.0
C612 C 0.6206 0.64622 0.72928 0.0
C613 C 0.65967 0.65531 0.73401 0.0
C614 C 0.62547 0.66111 0.74504 0.0
C615 C 0.61777 0.67213 0.74186 0.0
C616 C 0.60485 0.66836 0.72304 0.0
C617 C 0.60103 0.65432 0.70604 0.0
C618 C 0.60878 0.64325 0.70925 0.0
H619 H 0.6721 0.65459 0.72959 0.0
H620 H 0.65654 0.66159 0.71806 0.0
H621 H 0.66278 0.66432 0.7504 0.0
H622 H 0.63425 0.66348 0.76089 0.0
H623 H 0.62104 0.68289 0.75521 0.0
H624 H 0.95003 0.58197 0.68763 0.0
H625 H 0.98296 0.59308 0.6876 0.0
H626 H 0.98803 0.61919 0.75827 0.0
H627 H 0.9557 0.60879 0.75808 0.0
H628 H 0.01681 0.63976 0.72833 0.0
H629 H 0.00264 0.5681 0.73189 0.0
H630 H -0.00558 0.57448 0.70515 0.0
H631 H 0.98481 0.57366 0.73519 0.0
C632 C 0.95829 0.59042 0.70284 0.0
C633 C 0.95023 0.59425 0.72305 0.0
C634 C 0.97703 0.59661 0.70291 0.0
C635 C 0.98784 0.60659 0.72324 0.0
C636 C 0.97996 0.61143 0.74247 0.0
H637 H 0.08116 0.63583 0.80976 0.0
H638 H 0.05273 0.63012 0.79003 0.0
C639 C 0.96141 0.60537 0.74237 0.0
C640 C 0.00697 0.61095 0.72609 0.0
H641 H 0.03254 0.59118 0.73956 0.0
C642 C 0.02034 0.62916 0.73035 0.0
C643 C 0.01152 0.59708 0.7288 0.0
C644 C -0.00237 0.57721 0.7252 0.0
C645 C 0.03783 0.63379 0.73848 0.0
C646 C 0.04202 0.61983 0.74242 0.0
C647 C 0.02912 0.60178 0.73665 0.0
C648 C 0.05931 0.62356 0.75406 0.0
C649 C 0.05156 0.65348 0.74354 0.0
C650 C 0.07215 0.62142 0.7404 0.0
C651 C 0.08838 0.62469 0.75156 0.0
C652 C 0.09192 0.62994 0.77668 0.0
C653 C 0.07884 0.6318 0.79041 0.0
C654 C 0.06268 0.62867 0.77914 0.0
H655 H 0.04775 0.66283 0.73436 0.0
H656 H 0.05232 0.65597 0.76386 0.0
H657 H 0.06532 0.65678 0.73707 0.0
H658 H 0.06967 0.61733 0.72108 0.0
H659 H 0.09813 0.62306 0.74047 0.0
H660 H 0.41271 0.06856 0.80774 0.0
H661 H 0.38753 0.03989 0.79154 0.0
H662 H 0.42289 0.03907 0.73463 0.0
H663 H 0.44797 0.06745 0.75062 0.0
H664 H 0.37421 0.03562 0.74041 0.0
H665 H 0.39788 0.98712 0.76447 0.0
H666 H 0.40647 0.00885 0.77976 0.0
H667 H 0.41452 0.00765 0.74935 0.0
C668 C 0.4152 0.06202 0.79216 0.0
C669 C 0.43231 0.07025 0.78045 0.0
C670 C 0.40079 0.04576 0.78282 0.0
C671 C 0.40341 0.0374 0.76194 0.0
C672 C 0.42065 0.04521 0.7509 0.0
H673 H 0.33475 0.93699 0.68288 0.0
H674 H 0.35871 0.96844 0.69038 0.0
C675 C 0.43496 0.06146 0.76006 0.0
C676 C 0.38798 0.02106 0.75068 0.0
H677 H 0.37275 0.97647 0.73718 0.0
C678 C 0.3738 0.02264 0.73977 0.0
C679 C 0.38768 0.00427 0.7496 0.0
C680 C 0.40236 0.00174 0.76158 0.0
C681 C 0.3593 0.00782 0.72762 0.0
C682 C 0.3589 0.99095 0.72677 0.0
C683 C 0.37319 0.98947 0.73755 0.0
C684 C 0.34308 0.97413 0.717 0.0
C685 C 0.34471 0.01043 0.71557 0.0
C686 C 0.32602 0.96728 0.7284 0.0
C687 C 0.31229 0.9494 0.72402 0.0
C688 C 0.31546 0.93797 0.7084 0.0
C689 C 0.33186 0.94544 0.69497 0.0
C690 C 0.34563 0.96338 0.69939 0.0
H691 H 0.34995 0.0249 0.71046 0.0
H692 H 0.33923 0.0019 0.69865 0.0
H693 H 0.33335 0.00643 0.7289 0.0
H694 H 0.32379 0.97519 0.7423 0.0
H695 H 0.29977 0.94406 0.73457 0.0
H696 H 0.34444 0.42846 0.80737 0.0
H697 H 0.35269 0.40605 0.79279 0.0
H698 H 0.36802 0.43291 0.72167 0.0
H699 H 0.35986 0.45518 0.73582 0.0
H700 H 0.33811 0.38328 0.74418 0.0
H701 H 0.41324 0.42927 0.74958 0.0
H702 H 0.39753 0.43289 0.76804 0.0
H703 H 0.40004 0.43818 0.73552 0.0
C704 C 0.34964 0.42963 0.78869 0.0
C705 C 0.35151 0.44362 0.77279 0.0
C706 C 0.35427 0.4168 0.78038 0.0
C707 C 0.36099 0.41795 0.75622 0.0
C708 C 0.36293 0.4319 0.74041 0.0
H709 H 0.41076 0.36013 0.68796 0.0
H710 H 0.39687 0.3794 0.69186 0.0
C711 C 0.35823 0.44459 0.74858 0.0
C712 C 0.36606 0.40462 0.74729 0.0
H713 H 0.40273 0.40015 0.73261 0.0
C714 C 0.35221 0.3869 0.74164 0.0
C715 C 0.38445 0.40958 0.74359 0.0
C716 C 0.39975 0.42847 0.74959 0.0
C717 C 0.35634 0.37387 0.7325 0.0
C718 C 0.37479 0.37865 0.72951 0.0
C719 C 0.38859 0.39653 0.73471 0.0
C720 C 0.38028 0.36499 0.72368 0.0
C721 C 0.34089 0.35518 0.726 0.0
C722 C 0.37511 0.35019 0.73974 0.0
C723 C 0.38291 0.33919 0.73747 0.0
C724 C 0.39622 0.34287 0.71927 0.0
C725 C 0.40049 0.35691 0.70208 0.0
C726 C 0.39264 0.36797 0.70438 0.0
H727 H 0.3285 0.35568 0.72059 0.0
H728 H 0.34464 0.349 0.71057 0.0
H729 H 0.33739 0.34621 0.74252 0.0
H730 H 0.36592 0.34782 0.75508 0.0
H731 H 0.37928 0.32843 0.75097 0.0
H732 H 0.03755 0.39637 0.68119 0.0
H733 H 0.00545 0.38669 0.68869 0.0
H734 H 0.00048 0.34343 0.73603 0.0
H735 H 0.03244 0.35297 0.72869 0.0
H736 H 0.96812 0.33537 0.70495 0.0
H737 H -0.00366 0.39841 0.76225 0.0
H738 H 0.00381 0.40106 0.73046 0.0
H739 H 0.01012 0.38894 0.75186 0.0
C740 C 0.02943 0.38436 0.69239 0.0
C741 C 0.03754 0.37557 0.70464 0.0
C742 C 0.01115 0.37895 0.69682 0.0
C743 C 0.0008 0.3646 0.7133 0.0
C744 C 0.00832 0.35461 0.72338 0.0
H745 H 0.90984 0.34314 0.80911 0.0
H746 H 0.93904 0.34877 0.79189 0.0
C747 C 0.02658 0.36007 0.71914 0.0
C748 C 0.98311 0.36149 0.72275 0.0
H749 H 0.96446 0.37975 0.76136 0.0
C750 C 0.96725 0.3451 0.71712 0.0
C751 C 0.98218 0.37408 0.73908 0.0
C752 C -0.00101 0.39158 0.74651 0.0
C753 C 0.95036 0.34104 0.72721 0.0
C754 C 0.94941 0.35376 0.74324 0.0
C755 C 0.9653 0.37007 0.74903 0.0
C756 C 0.93196 0.35054 0.75378 0.0
C757 C 0.9337 0.32308 0.72102 0.0
C758 C 0.91859 0.35009 0.73808 0.0
C759 C 0.90205 0.34702 0.74779 0.0
C760 C 0.89853 0.34433 0.77348 0.0
C761 C 0.91211 0.34512 0.78927 0.0
C762 C 0.92876 0.3483 0.77948 0.0
H763 H 0.93733 0.31324 0.71302 0.0
H764 H 0.9252 0.31694 0.73783 0.0
H765 H 0.92535 0.32537 0.70718 0.0
H766 H 0.92096 0.35213 0.71826 0.0
H767 H 0.89196 0.34658 0.73504 0.0
H768 H 0.3942 0.12361 0.25689 0.0
H769 H 0.38841 0.14758 0.27107 0.0
H770 H 0.42133 0.18209 0.21111 0.0
H771 H 0.42699 0.15806 0.19662 0.0
H772 H 0.4173 0.17894 0.28743 0.0
H773 H 0.38111 0.19474 0.21501 0.0
H774 H 0.38107 0.17341 0.21583 0.0
H775 H 0.39996 0.19337 0.20236 0.0
C776 C 0.39967 0.13607 0.24619 0.0
C777 C 0.41125 0.13908 0.22582 0.0
C778 C 0.39634 0.14974 0.25434 0.0
C779 C 0.40445 0.16661 0.24221 0.0
C780 C 0.41467 0.16906 0.22053 0.0
H781 H 0.4495 0.27728 0.26095 0.0
H782 H 0.43835 0.24538 0.25162 0.0
C783 C 0.41794 0.15532 0.21226 0.0
C784 C 0.40499 0.1825 0.25445 0.0
H785 H 0.40026 0.21944 0.243 0.0
C786 C 0.41314 0.18758 0.27803 0.0
C787 C 0.3995 0.19368 0.2422 0.0
C788 C 0.38975 0.18842 0.21756 0.0
C789 C 0.41725 0.20427 0.2888 0.0
C790 C 0.41292 0.21602 0.2757 0.0
C791 C 0.40364 0.21039 0.25293 0.0
C792 C 0.42026 0.23517 0.28326 0.0
C793 C 0.42734 0.20982 0.31319 0.0
C794 C 0.41417 0.23999 0.30468 0.0
C795 C 0.4207 0.2584 0.31027 0.0
C796 C 0.43321 0.27205 0.2943 0.0
C797 C 0.43975 0.26706 0.2735 0.0
C798 C 0.43334 0.24884 0.26806 0.0
H799 H 0.43116 0.19977 0.31987 0.0
H800 H 0.43991 0.22329 0.31132 0.0
H801 H 0.41864 0.21112 0.32748 0.0
H802 H 0.404 0.22957 0.31657 0.0
H803 H 0.41535 0.2619 0.32629 0.0
H804 H 0.15878 0.44072 0.32119 0.0
H805 H 0.17941 0.42893 0.3119 0.0
H806 H 0.22107 0.48272 0.28975 0.0
H807 H 0.20047 0.49439 0.29839 0.0
H808 H 0.19447 0.43484 0.25927 0.0
H809 H 0.2472 0.46059 0.33318 0.0
H810 H 0.22443 0.45672 0.33818 0.0
H811 H 0.24098 0.47674 0.32202 0.0
C812 C 0.1726 0.45011 0.31532 0.0
C813 C 0.17816 0.46845 0.31059 0.0
C814 C 0.18427 0.44335 0.30981 0.0
C815 C 0.2017 0.455 0.30018 0.0
C816 C 0.20771 0.47359 0.29739 0.0
H817 H 0.28038 0.46014 0.20153 0.0
H818 H 0.25199 0.45606 0.21938 0.0
C819 C 0.19599 0.48024 0.3024 0.0
C820 C 0.21291 0.44774 0.28986 0.0
H821 H 0.25513 0.45254 0.2945 0.0
C822 C 0.20757 0.43829 0.2672 0.0
C823 C 0.22992 0.4523 0.30029 0.0
C824 C 0.23598 0.46203 0.32487 0.0
C825 C 0.21936 0.43423 0.25394 0.0
C826 C 0.23686 0.43986 0.26362 0.0
C827 C 0.24171 0.44831 0.28702 0.0
C828 C 0.25101 0.43849 0.24927 0.0
C829 C 0.21321 0.42441 0.22944 0.0
C830 C 0.25945 0.42942 0.2596 0.0
C831 C 0.27563 0.4318 0.24952 0.0
C832 C 0.28372 0.44336 0.229 0.0
C833 C 0.27439 0.45107 0.21723 0.0
C834 C 0.25816 0.44873 0.22743 0.0
H835 H 0.19812 0.41655 0.22807 0.0
H836 H 0.21843 0.43454 0.21414 0.0
H837 H 0.21861 0.41499 0.22674 0.0
H838 H 0.25414 0.42146 0.27641 0.0
H839 H 0.28248 0.42557 0.25886 0.0
H840 H 0.72409 0.15715 0.31684 0.0
H841 H 0.75614 0.17964 0.30782 0.0
H842 H 0.73868 0.20401 0.25182 0.0
H843 H 0.70702 0.18186 0.26069 0.0
H844 H 0.7714 0.18248 0.25953 0.0
H845 H 0.77829 0.24817 0.28897 0.0
H846 H 0.76041 0.22652 0.30039 0.0
H847 H 0.75831 0.23484 0.27054 0.0
C848 C 0.72717 0.1677 0.30322 0.0
C849 C 0.71317 0.16782 0.28943 0.0
C850 C 0.74541 0.18041 0.29796 0.0
C851 C 0.74972 0.19353 0.27927 0.0
C852 C 0.73566 0.19421 0.26657 0.0
H853 H 0.83852 0.27382 0.19321 0.0
H854 H 0.80884 0.24936 0.20741 0.0
C855 C 0.71758 0.18149 0.27159 0.0
C856 C 0.76868 0.20537 0.27085 0.0
H857 H 0.79972 0.24973 0.2585 0.0
C858 C 0.77779 0.19721 0.25967 0.0
C859 C 0.77684 0.22453 0.27089 0.0
C860 C 0.76803 0.23404 0.28356 0.0
C861 C 0.79454 0.20773 0.24754 0.0
C862 C 0.80234 0.22685 0.24683 0.0
C863 C 0.7935 0.23502 0.2587 0.0
C864 C 0.82001 0.23888 0.23468 0.0
C865 C 0.80345 0.19833 0.23486 0.0
C866 C 0.83604 0.24053 0.24461 0.0
C867 C 0.85295 0.25442 0.23652 0.0
C868 C 0.85411 0.26696 0.21845 0.0
C869 C 0.83807 0.26433 0.20705 0.0
C870 C 0.82112 0.25045 0.21526 0.0
H871 H 0.79378 0.18357 0.23213 0.0
H872 H 0.80907 0.20465 0.21652 0.0
H873 H 0.81489 0.19976 0.24649 0.0
H874 H 0.83547 0.23187 0.25978 0.0
H875 H 0.86509 0.25608 0.24561 0.0
H876 H 0.56577 0.8568 0.26799 0.0
H877 H 0.57547 0.83527 0.27949 0.0
H878 H 0.55043 0.80406 0.21326 0.0
H879 H 0.54017 0.82552 0.20182 0.0
H880 H 0.53842 0.78375 0.25511 0.0
H881 H 0.61368 0.82346 0.25714 0.0
H882 H 0.60368 0.8342 0.27469 0.0
H883 H 0.60016 0.83151 0.24162 0.0
C884 C 0.56265 0.84559 0.25551 0.0
C885 C 0.55203 0.84274 0.2341 0.0
C886 C 0.56837 0.83337 0.26204 0.0
C887 C 0.56381 0.81814 0.24716 0.0
C888 C 0.55415 0.81581 0.22494 0.0
H889 H 0.59162 0.73512 0.26865 0.0
H890 H 0.5915 0.76296 0.25813 0.0
C891 C 0.54837 0.82809 0.21836 0.0
C892 C 0.56701 0.80358 0.2566 0.0
H893 H 0.59965 0.79538 0.28003 0.0
C894 C 0.55183 0.78625 0.26034 0.0
C895 C 0.58452 0.8069 0.26348 0.0
C896 C 0.60145 0.82499 0.2588 0.0
C897 C 0.55361 0.77214 0.27098 0.0
C898 C 0.57102 0.77562 0.2787 0.0
C899 C 0.58626 0.79289 0.27466 0.0
C900 C 0.57382 0.76088 0.28845 0.0
C901 C 0.53688 0.75352 0.27327 0.0
C902 C 0.56476 0.75104 0.30989 0.0
C903 C 0.56474 0.73497 0.31596 0.0
C904 C 0.57381 0.72866 0.30063 0.0
C905 C 0.58427 0.73952 0.28061 0.0
C906 C 0.58427 0.75548 0.27459 0.0
H907 H 0.52548 0.75221 0.2616 0.0
H908 H 0.53994 0.74271 0.26776 0.0
H909 H 0.53224 0.75113 0.29288 0.0
H910 H 0.55693 0.75527 0.32113 0.0
H911 H 0.55662 0.7269 0.33153 0.0
H912 H 0.71888 0.57555 0.2591 0.0
H913 H 0.74619 0.579 0.27936 0.0
H914 H 0.74802 0.5416 0.22676 0.0
H915 H 0.72081 0.5383 0.20619 0.0
H916 H 0.74215 0.54829 0.30115 0.0
H917 H 0.802 0.57712 0.23881 0.0
H918 H 0.78277 0.5804 0.23362 0.0
H919 H 0.78187 0.55965 0.22395 0.0
C920 C 0.72559 0.56869 0.25119 0.0
C921 C 0.71766 0.5565 0.23125 0.0
C922 C 0.74117 0.57065 0.26282 0.0
C923 C 0.74909 0.5605 0.25468 0.0
C924 C 0.74231 0.54979 0.23314 0.0
H925 H 0.78408 0.49495 0.31632 0.0
H926 H 0.76773 0.51086 0.30534 0.0
C927 C 0.72673 0.5479 0.22136 0.0
C928 C 0.76173 0.55817 0.27125 0.0
H929 H 0.80148 0.55727 0.27167 0.0
C930 C 0.75535 0.5507 0.29493 0.0
C931 C 0.77897 0.56142 0.26326 0.0
C932 C 0.7869 0.57027 0.2386 0.0
C933 C 0.76515 0.54517 0.31006 0.0
C934 C 0.78167 0.54708 0.30122 0.0
C935 C 0.78873 0.55577 0.27836 0.0
C936 C 0.79033 0.53771 0.31337 0.0
C937 C 0.75738 0.53656 0.3349 0.0
C938 C 0.80821 0.54752 0.32247 0.0
C939 C 0.81747 0.53837 0.32928 0.0
C940 C 0.80906 0.5194 0.32639 0.0
C941 C 0.79077 0.50956 0.31893 0.0
C942 C 0.78145 0.51864 0.3126 0.0
H943 H 0.74771 0.54072 0.34204 0.0
H944 H 0.74987 0.52152 0.33283 0.0
H945 H 0.76837 0.54026 0.34878 0.0
H946 H 0.81529 0.56226 0.32302 0.0
H947 H 0.83167 0.54627 0.33457 0.0
H948 H 0.10631 0.72472 0.24797 0.0
H949 H 0.13394 0.75276 0.25864 0.0
H950 H 0.16267 0.74348 0.1995 0.0
H951 H 0.13496 0.71494 0.18899 0.0
H952 H 0.17857 0.74716 0.24437 0.0
H953 H 0.16431 0.80356 0.23138 0.0
H954 H 0.14706 0.78531 0.24945 0.0
H955 H 0.15043 0.7814 0.21752 0.0
C956 C 0.11836 0.72885 0.23675 0.0
C957 C 0.11852 0.7175 0.21782 0.0
C958 C 0.13414 0.74501 0.24278 0.0
C959 C 0.15035 0.75027 0.22983 0.0
C960 C 0.15025 0.73966 0.20969 0.0
H961 H 0.25533 0.84406 0.25378 0.0
H962 H 0.22439 0.82273 0.2405 0.0
C963 C 0.1344 0.72342 0.20362 0.0
C964 C 0.16774 0.76517 0.23972 0.0
H965 H 0.18938 0.80963 0.2582 0.0
C966 C 0.18101 0.76087 0.24717 0.0
C967 C 0.17085 0.78301 0.24344 0.0
C968 C 0.15747 0.78865 0.23479 0.0
C969 C 0.19724 0.77386 0.25846 0.0
C970 C 0.20009 0.79153 0.263 0.0
C971 C 0.18695 0.79594 0.25523 0.0
C972 C 0.21745 0.80603 0.27351 0.0
C973 C 0.21137 0.76865 0.26491 0.0
C974 C 0.22349 0.80423 0.29711 0.0
C975 C 0.24132 0.81644 0.30479 0.0
C976 C 0.25322 0.83054 0.28892 0.0
C977 C 0.24655 0.83315 0.26628 0.0
C978 C 0.22883 0.82101 0.25867 0.0
H979 H 0.20876 0.75596 0.25534 0.0
H980 H 0.22524 0.7797 0.25983 0.0
H981 H 0.21111 0.76632 0.28522 0.0
H982 H 0.21472 0.79291 0.30903 0.0
H983 H 0.24607 0.81415 0.32236 0.0
H984 H 0.59563 0.75024 0.75497 0.0
H985 H 0.58804 0.77356 0.76633 0.0
H986 H 0.54465 0.75195 0.7124 0.0
H987 H 0.55228 0.72865 0.70069 0.0
H988 H 0.5639 0.79164 0.71905 0.0
H989 H 0.5401 0.75257 0.80749 0.0
H990 H 0.56342 0.76059 0.79913 0.0
H991 H 0.54543 0.74366 0.78033 0.0
C992 C 0.58486 0.75083 0.74493 0.0
C993 C 0.57434 0.73745 0.72723 0.0
C994 C 0.58049 0.76409 0.75155 0.0
C995 C 0.56549 0.76409 0.74069 0.0
C996 C 0.5562 0.75202 0.72113 0.0
H997 H 0.49394 0.80563 0.76185 0.0
H998 H 0.51071 0.79046 0.7498 0.0
C999 C 0.56063 0.73878 0.71436 0.0
C1000 C 0.55809 0.77501 0.75171 0.0
H1001 H 0.53576 0.77769 0.80295 0.0
C1002 C 0.55788 0.78872 0.73745 0.0
C1003 C 0.55027 0.77113 0.77577 0.0
C1004 C 0.54964 0.75611 0.79159 0.0
C1005 C 0.54982 0.79854 0.74654 0.0
C1006 C 0.54146 0.79423 0.77024 0.0
C1007 C 0.5422 0.78093 0.78482 0.0
C1008 C 0.53062 0.80233 0.77924 0.0
C1009 C 0.55018 0.81336 0.7306 0.0
C1010 C 0.53563 0.81315 0.80074 0.0
C1011 C 0.5259 0.82176 0.80792 0.0
C1012 C 0.51105 0.81957 0.79364 0.0
C1013 C 0.50546 0.80778 0.77307 0.0
C1014 C 0.5151 0.79921 0.76601 0.0
H1015 H 0.56141 0.81855 0.71678 0.0
H1016 H 0.53715 0.80778 0.72028 0.0
H1017 H 0.55178 0.82493 0.74213 0.0
H1018 H 0.54745 0.81548 0.81139 0.0
H1019 H 0.53054 0.8308 0.82381 0.0
H1020 H 0.72598 0.56347 0.82209 0.0
H1021 H 0.75899 0.5789 0.81394 0.0
H1022 H 0.74867 0.55071 0.74395 0.0
H1023 H 0.71615 0.53547 0.75173 0.0
H1024 H 0.78139 0.5635 0.80374 0.0
H1025 H 0.78086 0.60432 0.72408 0.0
H1026 H 0.76237 0.59393 0.74617 0.0
H1027 H 0.76386 0.58076 0.72099 0.0
C1028 C 0.73082 0.5605 0.80509 0.0
C1029 C 0.71846 0.54841 0.78745 0.0
C1030 C 0.74961 0.5694 0.80039 0.0
C1031 C 0.75615 0.56636 0.77796 0.0
C1032 C 0.74386 0.55371 0.76096 0.0
H1033 H 0.84287 0.56808 0.70468 0.0
H1034 H 0.81561 0.56943 0.71604 0.0
C1035 C 0.72525 0.54489 0.76558 0.0
C1036 C 0.77582 0.57555 0.77225 0.0
H1037 H 0.80587 0.59812 0.72531 0.0
C1038 C 0.78695 0.57151 0.78699 0.0
C1039 C 0.78297 0.58602 0.75038 0.0
C1040 C 0.77192 0.59167 0.73464 0.0
C1041 C 0.80464 0.57642 0.77937 0.0
C1042 C 0.81134 0.5858 0.7566 0.0
C1043 C 0.80062 0.59084 0.74266 0.0
C1044 C 0.82864 0.58869 0.74597 0.0
C1045 C 0.81557 0.57046 0.79489 0.0
C1046 C 0.84517 0.59998 0.75802 0.0
C1047 C 0.86071 0.59922 0.7516 0.0
C1048 C 0.85994 0.58719 0.73299 0.0
C1049 C 0.84387 0.57744 0.7191 0.0
C1050 C 0.82828 0.57815 0.72563 0.0
H1051 H 0.80736 0.56103 0.81007 0.0
H1052 H 0.8211 0.5636 0.78312 0.0
H1053 H 0.82726 0.58259 0.8034 0.0
H1054 H 0.84574 0.60842 0.77348 0.0
H1055 H 0.87299 0.60709 0.76242 0.0
H1056 H 0.25345 0.82405 0.69974 0.0
H1057 H 0.2342 0.79347 0.71654 0.0
H1058 H 0.21083 0.81449 0.76885 0.0
H1059 H 0.23003 0.84514 0.75226 0.0
H1060 H 0.24014 0.79159 0.77225 0.0
H1061 H 0.1676 0.76278 0.74403 0.0
H1062 H 0.18618 0.77857 0.7245 0.0
H1063 H 0.18072 0.78655 0.75219 0.0
C1064 C 0.24365 0.82209 0.71405 0.0
C1065 C 0.24346 0.83706 0.72492 0.0
C1066 C 0.23275 0.80461 0.72373 0.0
C1067 C 0.22127 0.80184 0.74403 0.0
C1068 C 0.21957 0.81639 0.75311 0.0
H1069 H 0.15984 0.70164 0.83092 0.0
H1070 H 0.17434 0.73406 0.82003 0.0
C1071 C 0.23055 0.83389 0.74357 0.0
C1072 C 0.21365 0.7847 0.75829 0.0
H1073 H 0.17441 0.74531 0.77144 0.0
C1074 C 0.22576 0.78146 0.77216 0.0
C1075 C 0.19488 0.77184 0.75856 0.0
C1076 C 0.18148 0.77494 0.744 0.0
C1077 C 0.21962 0.76538 0.78582 0.0
C1078 C 0.20095 0.75204 0.78512 0.0
C1079 C 0.18872 0.75559 0.772 0.0
C1080 C 0.1942 0.73354 0.79531 0.0
C1081 C 0.23322 0.76279 0.80075 0.0
C1082 C 0.20095 0.72272 0.78563 0.0
C1083 C 0.19279 0.70435 0.79184 0.0
C1084 C 0.17763 0.69639 0.80776 0.0
C1085 C 0.17163 0.70748 0.81882 0.0
C1086 C 0.17978 0.72593 0.81245 0.0
H1087 H 0.24499 0.77609 0.8064 0.0
H1088 H 0.22689 0.75452 0.81767 0.0
H1089 H 0.23854 0.75566 0.78917 0.0
H1090 H 0.21185 0.72821 0.77207 0.0
H1091 H 0.19767 0.69613 0.78298 0.0
H1092 H 0.44109 0.27628 0.69569 0.0
H1093 H 0.44335 0.24898 0.70355 0.0
H1094 H 0.40312 0.23286 0.76157 0.0
H1095 H 0.40071 0.25989 0.75378 0.0
H1096 H 0.45483 0.24426 0.75111 0.0
H1097 H 0.38824 0.18472 0.72528 0.0
H1098 H 0.3959 0.20734 0.7134 0.0
H1099 H 0.38664 0.20131 0.74422 0.0
C1100 C 0.43226 0.26657 0.70948 0.0
C1101 C 0.42081 0.27025 0.72422 0.0
C1102 C 0.43365 0.25107 0.71407 0.0
C1103 C 0.42338 0.23893 0.73312 0.0
C1104 C 0.41098 0.24191 0.74658 0.0
H1105 H 0.45308 0.16944 0.81824 0.0
H1106 H 0.44372 0.19171 0.80691 0.0
C1107 C 0.40969 0.25742 0.74215 0.0
C1108 C 0.42726 0.22455 0.74122 0.0
H1109 H 0.40791 0.17873 0.75017 0.0
C1110 C 0.44462 0.22992 0.75078 0.0
C1111 C 0.41384 0.2059 0.7409 0.0
C1112 C 0.39514 0.1994 0.73021 0.0
C1113 C 0.44893 0.21711 0.76016 0.0
C1114 C 0.43544 0.19849 0.76021 0.0
C1115 C 0.41811 0.19308 0.75048 0.0
C1116 C 0.43967 0.1843 0.76799 0.0
C1117 C 0.46799 0.22352 0.76945 0.0
C1118 C 0.43999 0.17258 0.75001 0.0
C1119 C 0.44533 0.16003 0.75634 0.0
C1120 C 0.45035 0.15882 0.78089 0.0
C1121 C 0.44935 0.17011 0.79919 0.0
C1122 C 0.44409 0.18284 0.79273 0.0
H1123 H 0.47756 0.23793 0.76437 0.0
H1124 H 0.46776 0.22236 0.79 0.0
H1125 H 0.47326 0.21488 0.7618 0.0
H1126 H 0.43659 0.17348 0.73085 0.0
H1127 H 0.44573 0.1514 0.74181 0.0
H1128 H 0.12895 0.37946 0.73964 0.0
H1129 H 0.1599 0.38843 0.75265 0.0
H1130 H 0.18131 0.43234 0.69954 0.0
H1131 H 0.15036 0.42359 0.68649 0.0
H1132 H 0.19523 0.39761 0.72914 0.0
H1133 H 0.19232 0.45603 0.77102 0.0
H1134 H 0.17232 0.43591 0.75983 0.0
H1135 H 0.18763 0.45282 0.73827 0.0
C1136 C 0.14025 0.39064 0.73008 0.0
C1137 C 0.1372 0.40107 0.7124 0.0
C1138 C 0.15793 0.39574 0.73758 0.0
C1139 C 0.17278 0.4113 0.72749 0.0
C1140 C 0.16993 0.42043 0.70778 0.0
H1141 H 0.28427 0.4821 0.75729 0.0
H1142 H 0.25222 0.46666 0.74576 0.0
C1143 C 0.15223 0.41532 0.7002 0.0
C1144 C 0.1907 0.41944 0.73993 0.0
H1145 H 0.22034 0.45644 0.77402 0.0
C1146 C 0.20074 0.41041 0.73907 0.0
C1147 C 0.19758 0.43596 0.75327 0.0
C1148 C 0.18688 0.44572 0.75593 0.0
C1149 C 0.218 0.41799 0.75024 0.0
C1150 C 0.22513 0.43482 0.76289 0.0
C1151 C 0.21479 0.44351 0.76438 0.0
C1152 C 0.24408 0.4447 0.77216 0.0
C1153 C 0.22881 0.40836 0.74759 0.0
C1154 C 0.24999 0.43784 0.7916 0.0
C1155 C 0.26842 0.44678 0.79844 0.0
C1156 C 0.28108 0.46259 0.78575 0.0
C1157 C 0.27485 0.46988 0.76729 0.0
C1158 C 0.25654 0.46106 0.76064 0.0
H1159 H 0.22249 0.39692 0.73413 0.0
H1160 H 0.24292 0.41804 0.74144 0.0
H1161 H 0.22963 0.4028 0.7659 0.0
H1162 H 0.24047 0.42536 0.80099 0.0
H1163 H 0.27289 0.44084 0.81264 0.0
H1164 H 0.82627 0.26801 0.81485 0.0
H1165 H 0.81111 0.23627 0.80007 0.0
H1166 H 0.77826 0.24761 0.75015 0.0
H1167 H 0.79311 0.279 0.7647 0.0
H1168 H 0.77065 0.20831 0.79481 0.0
H1169 H 0.80853 0.23061 0.70583 0.0
H1170 H 0.81614 0.24415 0.73384 0.0
H1171 H 0.79822 0.24368 0.71544 0.0
C1172 C 0.81545 0.26354 0.80126 0.0
C1173 C 0.81096 0.27598 0.79075 0.0
C1174 C 0.80696 0.24552 0.79267 0.0
C1175 C 0.79398 0.23987 0.77357 0.0
C1176 C 0.78855 0.25189 0.76451 0.0
H1177 H 0.71683 0.15532 0.68712 0.0
H1178 H 0.7431 0.1838 0.70107 0.0
C1179 C 0.79696 0.26977 0.77298 0.0
C1180 C 0.78623 0.22164 0.7622 0.0
H1181 H 0.78182 0.20102 0.70612 0.0
C1182 C 0.77336 0.20654 0.77563 0.0
C1183 C 0.78984 0.21954 0.73714 0.0
C1184 C 0.80406 0.23532 0.72222 0.0
C1185 C 0.76304 0.18953 0.76412 0.0
C1186 C 0.76604 0.1876 0.73865 0.0
C1187 C 0.7796 0.20254 0.7256 0.0
C1188 C 0.75378 0.17074 0.72485 0.0
C1189 C 0.74819 0.17411 0.77889 0.0
C1190 C 0.75201 0.15404 0.73199 0.0
C1191 C 0.73698 0.13778 0.72413 0.0
C1192 C 0.72368 0.13806 0.7088 0.0
C1193 C 0.72688 0.15471 0.69888 0.0
C1194 C 0.74183 0.17101 0.707 0.0
H1195 H 0.74553 0.17882 0.79684 0.0
H1196 H 0.7353 0.16729 0.76812 0.0
H1197 H 0.75231 0.16385 0.78301 0.0
H1198 H 0.76137 0.15359 0.74528 0.0
H1199 H 0.7349 0.12508 0.73187 0.0
H1200 H 0.45991 0.08979 0.10891 0.0
H1201 H 0.4611 0.09144 0.0636 0.0
H1202 H 0.43686 0.12561 0.06483 0.0
H1203 H 0.43579 0.1242 0.11033 0.0
H1204 H 0.43256 0.08054 0.02982 0.0
H1205 H 0.48176 0.15459 0.02082 0.0
H1206 H 0.47822 0.14245 0.0497 0.0
H1207 H 0.46202 0.14884 0.03945 0.0
C1208 C 0.45488 0.09773 0.09962 0.0
C1209 C 0.44782 0.10693 0.11337 0.0
C1210 C 0.45556 0.09864 0.07365 0.0
C1211 C 0.4493 0.10884 0.06074 0.0
C1212 C 0.4421 0.11794 0.07435 0.0
H1213 H 0.44829 0.12829 0.90037 0.0
H1214 H 0.44375 0.12752 0.94548 0.0
C1215 C 0.4414 0.11703 0.10039 0.0
C1216 C 0.45003 0.10955 0.03306 0.0
H1217 H 0.4693 0.13828 0.98362 0.0
C1218 C 0.44058 0.09318 0.01973 0.0
C1219 C 0.46041 0.12604 0.01984 0.0
C1220 C 0.47132 0.14399 0.03311 0.0
C1221 C 0.44124 0.09282 0.99364 0.0
C1222 C 0.45195 0.10925 0.98043 0.0
C1223 C 0.4611 0.12568 0.99371 0.0
C1224 C 0.45442 0.10955 0.95296 0.0
C1225 C 0.4303 0.07484 0.98045 0.0
C1226 C 0.46212 0.0999 0.94213 0.0
C1227 C 0.4647 0.10029 0.91641 0.0
C1228 C 0.45977 0.11046 0.90085 0.0
C1229 C 0.45218 0.12025 0.91175 0.0
C1230 C 0.4496 0.11985 0.93755 0.0
H1231 H 0.41885 0.06482 0.99213 0.0
H1232 H 0.42469 0.07654 0.96265 0.0
H1233 H 0.43924 0.0691 0.9763 0.0
H1234 H 0.46635 0.09219 0.95363 0.0
H1235 H 0.47071 0.09268 0.90877 0.0
H1236 H 0.37431 0.48456 0.90299 0.0
H1237 H 0.37266 0.48243 0.94824 0.0
H1238 H 0.31442 0.45936 0.94496 0.0
H1239 H 0.31591 0.46124 0.89949 0.0
H1240 H 0.36016 0.49915 0.98043 0.0
H1241 H 0.31959 0.42402 0.99128 0.0
H1242 H 0.33029 0.43477 0.96231 0.0
H1243 H 0.30945 0.4337 0.97172 0.0
C1244 C 0.36109 0.47887 0.9118 0.0
C1245 C 0.34523 0.47303 0.8975 0.0
C1246 C 0.36019 0.47769 0.93775 0.0
C1247 C 0.3434 0.47054 0.95009 0.0
C1248 C 0.3275 0.46459 0.9359 0.0
H1249 H 0.31795 0.45862 0.1097 0.0
H1250 H 0.31595 0.45878 0.06422 0.0
C1251 C 0.32839 0.46577 0.90987 0.0
C1252 C 0.34281 0.47009 0.97779 0.0
H1253 H 0.32626 0.44159 0.02797 0.0
C1254 C 0.35275 0.48655 0.9908 0.0
C1255 C 0.33305 0.45368 0.9914 0.0
C1256 C 0.3226 0.4355 0.97854 0.0
C1257 C 0.35322 0.48707 0.01691 0.0
C1258 C 0.34376 0.47063 0.03052 0.0
C1259 C 0.33353 0.45419 0.01756 0.0
C1260 C 0.34486 0.47023 0.05815 0.0
C1261 C 0.36369 0.50528 0.0297 0.0
C1262 C 0.36172 0.47631 0.0699 0.0
C1263 C 0.36291 0.47624 0.09583 0.0
C1264 C 0.34724 0.47 0.11069 0.0
C1265 C 0.3303 0.4636 0.09887 0.0
C1266 C 0.32912 0.46366 0.07286 0.0
H1267 H 0.36568 0.51662 0.01731 0.0
H1268 H 0.3566 0.5057 0.04681 0.0
H1269 H 0.37734 0.50762 0.03503 0.0
H1270 H 0.374 0.48108 0.05898 0.0
H1271 H 0.37617 0.48115 0.1042 0.0
H1272 H 0.89138 0.36739 0.90506 0.0
H1273 H 0.89496 0.36546 0.94979 0.0
H1274 H 0.8531 0.30889 0.94886 0.0
H1275 H 0.84966 0.31062 0.90392 0.0
H1276 H 0.87017 0.35739 0.9869 0.0
H1277 H 0.89337 0.30671 0.98652 0.0
H1278 H 0.89257 0.31814 0.95868 0.0
H1279 H 0.87209 0.29926 0.97092 0.0
C1280 C 0.883 0.35447 0.91428 0.0
C1281 C 0.87028 0.33913 0.90078 0.0
C1282 C 0.88505 0.3534 0.93992 0.0
C1283 C 0.87449 0.33697 0.95275 0.0
C1284 C 0.86171 0.32162 0.93937 0.0
H1285 H 0.86956 0.30935 0.11067 0.0
H1286 H 0.86336 0.30901 0.06613 0.0
C1287 C 0.85969 0.32266 0.91365 0.0
C1288 C 0.87656 0.33618 0.98018 0.0
H1289 H 0.88742 0.31516 0.02585 0.0
C1290 C 0.87397 0.34817 0.99539 0.0
C1291 C 0.88147 0.32411 0.99135 0.0
C1292 C 0.88521 0.31143 0.97605 0.0
C1293 C 0.87608 0.34838 0.02133 0.0
C1294 C 0.88116 0.33645 0.03245 0.0
C1295 C 0.8835 0.32428 0.01733 0.0
C1296 C 0.88465 0.33679 0.05964 0.0
C1297 C 0.87262 0.36124 0.03666 0.0
C1298 C 0.89876 0.35247 0.07083 0.0
C1299 C 0.90237 0.3527 0.09626 0.0
C1300 C 0.89196 0.33723 0.11112 0.0
C1301 C 0.8778 0.32154 0.09986 0.0
C1302 C 0.87425 0.3213 0.07437 0.0
H1303 H 0.86424 0.36582 0.02642 0.0
H1304 H 0.86561 0.35474 0.05432 0.0
H1305 H 0.88583 0.37347 0.04129 0.0
H1306 H 0.90718 0.36449 0.0598 0.0
H1307 H 0.91343 0.365 0.10421 0.0
H1308 H 0.5263 0.85663 0.11778 0.0
H1309 H 0.52545 0.85587 0.07221 0.0
H1310 H 0.50119 0.89003 0.07212 0.0
H1311 H 0.50217 0.89104 0.11743 0.0
H1312 H 0.49585 0.84358 0.03992 0.0
H1313 H 0.5439 0.91701 0.02465 0.0
H1314 H 0.54158 0.90612 0.0543 0.0
H1315 H 0.52538 0.91278 0.04491 0.0
C1316 C 0.52084 0.86404 0.10806 0.0
C1317 C 0.51441 0.87399 0.12134 0.0
C1318 C 0.52036 0.86358 0.08199 0.0
C1319 C 0.51356 0.87316 0.06866 0.0
C1320 C 0.50689 0.88287 0.08191 0.0
H1321 H 0.49022 0.8876 0.91719 0.0
H1322 H 0.49452 0.88778 0.96209 0.0
C1323 C 0.50737 0.88334 0.10789 0.0
C1324 C 0.51298 0.87272 0.04097 0.0
H1325 H 0.52647 0.90009 0.98956 0.0
C1326 C 0.5027 0.85591 0.02888 0.0
C1327 C 0.52194 0.8888 0.02652 0.0
C1328 C 0.53397 0.90718 0.03821 0.0
C1329 C 0.50058 0.85482 1.00288 0.0
C1330 C 0.50922 0.87096 0.98849 0.0
C1331 C 0.51979 0.88772 1.00056 0.0
C1332 C 0.50693 0.87086 0.96101 0.0
C1333 C 0.48856 0.83647 0.99112 0.0
C1334 C 0.51272 0.86151 0.9453 0.0
C1335 C 0.51028 0.86137 0.9195 0.0
C1336 C 0.50205 0.87066 0.90886 0.0
C1337 C 0.49656 0.88025 0.92466 0.0
C1338 C 0.49902 0.88039 0.95039 0.0
H1339 H 0.47966 0.82614 1.005 0.0
H1340 H 0.47986 0.83739 0.97643 0.0
H1341 H 0.49723 0.83164 0.98237 0.0
H1342 H 0.51919 0.85435 0.95297 0.0
H1343 H 0.51476 0.85391 0.90792 0.0
H1344 H 0.62444 0.51687 0.10703 0.0
H1345 H 0.62652 0.5188 0.06177 0.0
H1346 H 0.68507 0.54585 0.06644 0.0
H1347 H 0.68312 0.54376 0.11187 0.0
H1348 H 0.64359 0.54925 0.03145 0.0
H1349 H 0.67354 0.50474 0.01737 0.0
H1350 H 0.66356 0.50576 0.04651 0.0
H1351 H 0.68601 0.52354 0.03814 0.0
C1352 C 0.6378 0.52318 0.0985 0.0
C1353 C 0.65362 0.53008 0.11319 0.0
C1354 C 0.63895 0.5243 0.07256 0.0
C1355 C 0.65593 0.53223 0.0606 0.0
C1356 C 0.67179 0.53932 0.07517 0.0
H1357 H 0.68275 0.54526 0.90138 0.0
H1358 H 0.68462 0.54708 0.94687 0.0
C1359 C 0.67065 0.53821 0.10118 0.0
C1360 C 0.65689 0.5333 0.03293 0.0
H1361 H 0.66999 0.51888 0.98166 0.0
C1362 C 0.64938 0.54262 0.02058 0.0
C1363 C 0.66453 0.52474 0.01868 0.0
C1364 C 0.67224 0.51399 0.03077 0.0
C1365 C 0.64927 0.54358 0.9945 0.0
C1366 C 0.65656 0.5347 0.98024 0.0
C1367 C 0.6644 0.52569 0.99256 0.0
C1368 C 0.65551 0.53398 0.95257 0.0
C1369 C 0.64149 0.55428 0.98246 0.0
C1370 C 0.63853 0.52586 0.94057 0.0
C1371 C 0.63742 0.52481 0.91462 0.0
C1372 C 0.65326 0.53176 0.89998 0.0
C1373 C 0.67027 0.53984 0.91203 0.0
C1374 C 0.67137 0.54086 0.93805 0.0
H1375 H 0.64151 0.56449 0.99541 0.0
H1376 H 0.64927 0.56143 0.96553 0.0
H1377 H 0.62717 0.54481 0.97697 0.0
H1378 H 0.62607 0.52008 0.95131 0.0
H1379 H 0.62407 0.51838 0.90607 0.0
H1380 H 0.11496 0.67657 0.90151 0.0
H1381 H 0.10911 0.67739 0.94584 0.0
H1382 H 0.11739 0.63185 0.95851 0.0
H1383 H 0.1234 0.63099 0.91416 0.0
H1384 H 0.08214 0.64976 0.97598 0.0
H1385 H 0.15178 0.66992 1.0092 0.0
H1386 H 0.14691 0.67187 0.97706 0.0
H1387 H 0.14126 0.65007 0.98972 0.0
C1388 C 0.11557 0.66672 0.91368 0.0
C1389 C 0.11974 0.65376 0.90422 0.0
C1390 C 0.1122 0.66721 0.93905 0.0
C1391 C 0.11307 0.65486 0.95558 0.0
C1392 C 0.11698 0.64174 0.9462 0.0
H1393 H 0.09908 0.64338 0.11735 0.0
H1394 H 0.10428 0.63944 0.07353 0.0
C1395 C 0.12031 0.6412 0.92079 0.0
C1396 C 0.10958 0.65561 0.98254 0.0
H1397 H 0.1295 0.66373 0.0399 0.0
C1398 C 0.0925 0.65281 0.98995 0.0
C1399 C 0.12306 0.65949 1.0008 0.0
C1400 C 0.14185 0.66316 0.99389 0.0
C1401 C 0.08849 0.65373 0.01508 0.0
C1402 C 0.10209 0.65799 0.03331 0.0
C1403 C 0.11909 0.6605 0.02595 0.0
C1404 C 0.0991 0.66045 0.05997 0.0
C1405 C 0.06963 0.64988 0.02187 0.0
C1406 C 0.0948 0.67379 0.06703 0.0
C1407 C 0.09178 0.67605 0.09199 0.0
C1408 C 0.09315 0.66512 0.11057 0.0
C1409 C 0.09784 0.652 0.10354 0.0
C1410 C 0.10083 0.64973 0.07849 0.0
H1411 H 0.05951 0.64167 1.00735 0.0
H1412 H 0.06513 0.64253 0.03985 0.0
H1413 H 0.06971 0.66296 0.02367 0.0
H1414 H 0.09383 0.68255 0.0532 0.0
H1415 H 0.08835 0.68639 0.09668 0.0
H1416 H 0.89102 0.51853 0.62772 0.0
H1417 H 0.88636 0.51424 0.58289 0.0
H1418 H 0.87665 0.55946 0.57911 0.0
H1419 H 0.88088 0.5636 0.6241 0.0
H1420 H 0.85191 0.53117 0.55237 0.0
H1421 H 0.92062 0.54376 0.52772 0.0
H1422 H 0.90963 0.52603 0.5504 0.0
H1423 H 0.91533 0.54896 0.55803 0.0
C1424 C 0.88796 0.52763 0.61738 0.0
C1425 C 0.88641 0.54146 0.62958 0.0
C1426 C 0.88544 0.52524 0.59165 0.0
C1427 C 0.88153 0.53676 0.57743 0.0
C1428 C 0.87978 0.55047 0.58959 0.0
H1429 H 0.8833 0.53873 0.41396 0.0
H1430 H 0.89018 0.54683 0.45799 0.0
C1431 C 0.88221 0.55282 0.61536 0.0
C1432 C 0.87859 0.53408 0.55006 0.0
H1433 H 0.89781 0.53025 0.49617 0.0
C1434 C 0.86202 0.53111 0.54008 0.0
C1435 C 0.89187 0.5343 0.53384 0.0
C1436 C 0.91043 0.53863 0.54298 0.0
C1437 C 0.85814 0.5278 0.51459 0.0
C1438 C 0.87101 0.52703 0.49861 0.0
C1439 C 0.88783 0.53059 0.50842 0.0
C1440 C 0.86706 0.52211 0.47183 0.0
C1441 C 0.84031 0.52533 0.50502 0.0
C1442 C 0.85202 0.50537 0.4649 0.0
C1443 C 0.84803 0.50076 0.43984 0.0
C1444 C 0.85911 0.51267 0.42101 0.0
C1445 C 0.87446 0.52926 0.42795 0.0
C1446 C 0.8784 0.5339 0.45312 0.0
H1447 H 0.83476 0.5318 0.51754 0.0
H1448 H 0.84188 0.5312 0.48613 0.0
H1449 H 0.83019 0.51058 0.50408 0.0
H1450 H 0.84333 0.49581 0.47893 0.0
H1451 H 0.8362 0.4878 0.43527 0.0
H1452 H 0.34074 0.90347 0.61182 0.0
H1453 H 0.34046 0.89887 0.56693 0.0
H1454 H 0.28536 0.85407 0.57162 0.0
H1455 H 0.28545 0.85861 0.61658 0.0
H1456 H 0.33413 0.86735 0.53998 0.0
H1457 H 0.28244 0.88731 0.51793 0.0
H1458 H 0.29416 0.89244 0.54739 0.0
H1459 H 0.27585 0.86984 0.54107 0.0
C1460 C 0.32854 0.89261 0.60336 0.0
C1461 C 0.31308 0.88147 0.61787 0.0
C1462 C 0.32842 0.88999 0.57766 0.0
C1463 C 0.31281 0.8763 0.56581 0.0
C1464 C 0.29745 0.86494 0.58026 0.0
H1465 H 0.28894 0.8478 0.40825 0.0
H1466 H 0.28718 0.84879 0.45364 0.0
C1467 C 0.29758 0.86749 0.60601 0.0
C1468 C 0.31271 0.87393 0.53837 0.0
H1469 H 0.29285 0.87684 0.48458 0.0
C1470 C 0.3251 0.86941 0.52786 0.0
C1471 C 0.30086 0.87653 0.52255 0.0
C1472 C 0.28765 0.88194 0.53269 0.0
C1473 C 0.32591 0.86736 0.50204 0.0
C1474 C 0.31432 0.87032 0.48615 0.0
C1475 C 0.30174 0.87458 0.4967 0.0
C1476 C 0.31539 0.86959 0.45854 0.0
C1477 C 0.339 0.86173 0.49209 0.0
C1478 C 0.33173 0.88113 0.44606 0.0
C1479 C 0.33279 0.88055 0.42015 0.0
C1480 C 0.31747 0.86854 0.40602 0.0
C1481 C 0.30102 0.85717 0.41851 0.0
C1482 C 0.29999 0.85774 0.44449 0.0
H1483 H 0.34262 0.85468 0.50648 0.0
H1484 H 0.3332 0.85258 0.47579 0.0
H1485 H 0.35175 0.87405 0.48619 0.0
H1486 H 0.34368 0.89074 0.45635 0.0
H1487 H 0.34564 0.88962 0.41121 0.0
H1488 H 0.40445 0.31399 0.6095 0.0
H1489 H 0.40935 0.3162 0.56472 0.0
H1490 H 0.46694 0.3383 0.57624 0.0
H1491 H 0.46218 0.33649 0.62137 0.0
H1492 H 0.46041 0.35686 0.54045 0.0
H1493 H 0.41884 0.2831 0.5213 0.0
H1494 H 0.40619 0.29154 0.53773 0.0
H1495 H 0.42552 0.292 0.55234 0.0
C1496 C 0.41819 0.31928 0.60261 0.0
C1497 C 0.43291 0.32495 0.61914 0.0
C1498 C 0.42095 0.32041 0.57689 0.0
C1499 C 0.43846 0.32702 0.56698 0.0
C1500 C 0.45327 0.33299 0.5834 0.0
H1501 H 0.45294 0.31435 0.40789 0.0
H1502 H 0.4532 0.31268 0.45333 0.0
C1503 C 0.45053 0.33195 0.60922 0.0
C1504 C 0.44124 0.32808 0.53951 0.0
H1505 H 0.42623 0.30292 0.48619 0.0
C1506 C 0.45306 0.34502 0.52861 0.0
C1507 C 0.43195 0.31261 0.52397 0.0
C1508 C 0.42007 0.29376 0.53445 0.0
C1509 C 0.4553 0.34704 0.50267 0.0
C1510 C 0.44513 0.33178 0.48707 0.0
C1511 C 0.43385 0.31471 0.49802 0.0
C1512 C 0.44562 0.33326 0.45939 0.0
C1513 C 0.46867 0.36552 0.4923 0.0
C1514 C 0.44111 0.34523 0.44752 0.0
C1515 C 0.44105 0.34628 0.42156 0.0
C1516 C 0.44528 0.33521 0.40676 0.0
C1517 C 0.44965 0.32311 0.41866 0.0
C1518 C 0.4498 0.32213 0.44468 0.0
H1519 H 0.47935 0.37389 0.50613 0.0
H1520 H 0.4754 0.36433 0.47528 0.0
H1521 H 0.46134 0.37288 0.48749 0.0
H1522 H 0.43732 0.35359 0.45833 0.0
H1523 H 0.43746 0.35565 0.41311 0.0
H1524 H 0.10353 0.44519 0.61534 0.0
H1525 H 0.10604 0.45293 0.57102 0.0
H1526 H 0.09899 0.40034 0.55245 0.0
H1527 H 0.0962 0.39242 0.59641 0.0
H1528 H 0.13065 0.45501 0.53562 0.0
H1529 H 0.06092 0.40211 0.50882 0.0
H1530 H 0.06765 0.4081 0.5408 0.0
H1531 H 0.07313 0.39288 0.52462 0.0
C1532 C 0.10245 0.43525 0.60181 0.0
C1533 C 0.09953 0.41813 0.60949 0.0
C1534 C 0.10389 0.4397 0.57647 0.0
C1535 C 0.10234 0.42708 0.55832 0.0
C1536 C 0.09976 0.41013 0.566 0.0
H1537 H 0.11411 0.42229 0.39997 0.0
H1538 H 0.10959 0.41721 0.44475 0.0
C1539 C 0.09829 0.40567 0.59124 0.0
C1540 C 0.10386 0.43169 0.53137 0.0
H1541 H 0.08204 0.4166 0.47562 0.0
C1542 C 0.11994 0.44674 0.52254 0.0
C1543 C 0.08987 0.42093 0.51424 0.0
C1544 C 0.07185 0.40521 0.5226 0.0
C1545 C 0.12268 0.45089 0.49702 0.0
C1546 C 0.10888 0.43984 0.47987 0.0
C1547 C 0.09265 0.42502 0.48874 0.0
C1548 C 0.11125 0.44301 0.45257 0.0
C1549 C 0.1406 0.46668 0.48852 0.0
C1550 C 0.11337 0.45909 0.44193 0.0
C1551 C 0.1159 0.46203 0.41624 0.0
C1552 C 0.11636 0.44893 0.40065 0.0
C1553 C 0.11389 0.43271 0.41136 0.0
C1554 C 0.11129 0.42976 0.43699 0.0
H1555 H 0.15114 0.47139 0.50329 0.0
H1556 H 0.14571 0.46291 0.47186 0.0
H1557 H 0.1386 0.47825 0.4834 0.0
H1558 H 0.11306 0.46937 0.45351 0.0
H1559 H 0.1177 0.47465 0.40866 0.0
H1560 H 0.66544 0.10716 0.39611 0.0
H1561 H 0.66647 0.1035 0.44112 0.0
H1562 H 0.65054 0.14386 0.45305 0.0
H1563 H 0.64934 0.14752 0.40816 0.0
H1564 H 0.68787 0.12958 0.47644 0.0
H1565 H 0.61448 0.10145 0.49666 0.0
H1566 H 0.623 0.10242 0.46562 0.0
H1567 H 0.62463 0.12245 0.47957 0.0
C1568 C 0.66205 0.11519 0.40828 0.0
C1569 C 0.65724 0.1276 0.39843 0.0
C1570 C 0.66267 0.11309 0.43404 0.0
C1571 C 0.65833 0.1232 0.45052 0.0
C1572 C 0.65359 0.13563 0.44075 0.0
H1573 H 0.68683 0.14719 0.60604 0.0
H1574 H 0.68384 0.14771 0.56096 0.0
C1575 C 0.65302 0.13779 0.41502 0.0
C1576 C 0.65938 0.12123 0.47791 0.0
H1577 H 0.63445 0.11064 0.53152 0.0
C1578 C 0.67616 0.12535 0.48846 0.0
C1579 C 0.64406 0.11549 0.49362 0.0
C1580 C 0.62547 0.11002 0.48332 0.0
C1581 C 0.67815 0.12434 0.51426 0.0
C1582 C 0.66301 0.11928 0.53006 0.0
C1583 C 0.6461 0.11469 0.51947 0.0
C1584 C 0.66452 0.11891 0.55761 0.0
C1585 C 0.69645 0.12857 0.52438 0.0
C1586 C 0.6543 0.10263 0.57094 0.0
C1587 C 0.65594 0.10228 0.59684 0.0
C1588 C 0.66773 0.11826 0.61 0.0
C1589 C 0.67769 0.13459 0.59659 0.0
C1590 C 0.67608 0.13491 0.57073 0.0
H1591 H 0.70511 0.12744 0.5098 0.0
H1592 H 0.70367 0.14273 0.53156 0.0
H1593 H 0.69487 0.11927 0.53992 0.0
H1594 H 0.6452 0.09014 0.56124 0.0
H1595 H 0.64802 0.08948 0.60654 0.0
H1596 H 0.54564 0.63355 0.41673 0.0
H1597 H 0.54554 0.6353 0.46202 0.0
H1598 H 0.55257 0.68919 0.45727 0.0
H1599 H 0.55247 0.68748 0.41183 0.0
H1600 H 0.57308 0.66006 0.49239 0.0
H1601 H 0.51038 0.6642 0.50628 0.0
H1602 H 0.51562 0.65729 0.47717 0.0
H1603 H 0.52668 0.68098 0.48544 0.0
C1604 C 0.54701 0.64574 0.42524 0.0
C1605 C 0.54902 0.66036 0.41053 0.0
C1606 C 0.54697 0.64672 0.45121 0.0
C1607 C 0.54883 0.66228 0.46315 0.0
C1608 C 0.55074 0.67688 0.44855 0.0
H1609 H 0.55726 0.6927 0.62013 0.0
H1610 H 0.55568 0.69201 0.57464 0.0
C1611 C 0.55078 0.67592 0.42252 0.0
C1612 C 0.54957 0.66344 0.49082 0.0
H1613 H 0.52846 0.66839 0.54195 0.0
C1614 C 0.56328 0.66183 0.50321 0.0
C1615 C 0.53686 0.66585 0.505 0.0
C1616 C 0.52145 0.66703 0.49287 0.0
C1617 C 0.56473 0.6627 0.52926 0.0
C1618 C 0.55189 0.66488 0.54348 0.0
C1619 C 0.53829 0.66669 0.5311 0.0
C1620 C 0.55226 0.66506 0.57119 0.0
C1621 C 0.58024 0.66161 0.54129 0.0
C1622 C 0.55048 0.65 0.58449 0.0
C1623 C 0.55141 0.65036 0.61047 0.0
C1624 C 0.55402 0.66575 0.62383 0.0
C1625 C 0.55531 0.68064 0.61049 0.0
C1626 C 0.55439 0.68027 0.58446 0.0
H1627 H 0.59155 0.66512 0.52801 0.0
H1628 H 0.58567 0.67088 0.55753 0.0
H1629 H 0.57525 0.64749 0.54785 0.0
H1630 H 0.54839 0.63794 0.57475 0.0
H1631 H 0.55021 0.63858 0.62006 0.0
H1632 H 0.49488 0.15355 0.26109 0.0
H1633 H 0.52526 0.16026 0.27366 0.0
H1634 H 0.52922 0.13341 0.20791 0.0
H1635 H 0.49879 0.12672 0.19505 0.0
H1636 H 0.53121 0.13173 0.2837 0.0
H1637 H 0.58043 0.17793 0.21358 0.0
H1638 H 0.55806 0.17528 0.21742 0.0
H1639 H 0.56091 0.15874 0.20009 0.0
C1640 C 0.50242 0.14952 0.24891 0.0
C1641 C 0.49438 0.13943 0.22718 0.0
C1642 C 0.51978 0.15337 0.25616 0.0
C1643 C 0.52948 0.14734 0.24175 0.0
C1644 C 0.52207 0.13844 0.21911 0.0
H1645 H 0.61047 0.11915 0.24846 0.0
H1646 H 0.58643 0.12614 0.2408 0.0
C1647 C 0.50466 0.1346 0.21178 0.0
C1648 C 0.54598 0.14797 0.25205 0.0
H1649 H 0.59004 0.16073 0.23855 0.0
C1650 C 0.54421 0.13837 0.27413 0.0
C1651 C 0.56288 0.15669 0.23956 0.0
C1652 C 0.56578 0.1679 0.21647 0.0
C1653 C 0.55856 0.13624 0.28317 0.0
C1654 C 0.57518 0.14419 0.26996 0.0
C1655 C 0.57725 0.15462 0.24863 0.0
C1656 C 0.58964 0.13986 0.27586 0.0
C1657 C 0.55547 0.12459 0.30585 0.0
C1658 C 0.59928 0.145 0.29843 0.0
C1659 C 0.6131 0.14084 0.30306 0.0
C1660 C 0.61752 0.1317 0.28501 0.0
C1661 C 0.60755 0.12635 0.2627 0.0
C1662 C 0.59381 0.13038 0.25821 0.0
H1663 H 0.54095 0.11719 0.31166 0.0
H1664 H 0.5599 0.11449 0.30229 0.0
H1665 H 0.56369 0.13335 0.32151 0.0
H1666 H 0.59635 0.15248 0.31222 0.0
H1667 H 0.62064 0.14523 0.32032 0.0
H1668 H 0.49445 0.63723 0.32166 0.0
H1669 H 0.4634 0.61516 0.30814 0.0
H1670 H 0.48412 0.61113 0.23668 0.0
H1671 H 0.5148 0.63333 0.24962 0.0
H1672 H 0.45383 0.61368 0.23171 0.0
H1673 H 0.44269 0.56089 0.30175 0.0
H1674 H 0.44796 0.5825 0.31462 0.0
H1675 H 0.46475 0.58063 0.29645 0.0
C1676 C 0.49235 0.63158 0.30311 0.0
C1677 C 0.50711 0.637 0.28678 0.0
C1678 C 0.47462 0.61894 0.29543 0.0
C1679 C 0.47147 0.61134 0.27147 0.0
C1680 C 0.4862 0.61684 0.2552 0.0
H1681 H 0.38803 0.52216 0.18907 0.0
H1682 H 0.41479 0.55127 0.20049 0.0
C1683 C 0.50378 0.62951 0.26272 0.0
C1684 C 0.45298 0.59746 0.26308 0.0
H1685 H 0.41842 0.55429 0.27457 0.0
C1686 C 0.44603 0.60072 0.24115 0.0
C1687 C 0.44288 0.58052 0.27534 0.0
C1688 C 0.44997 0.57579 0.29821 0.0
C1689 C 0.42933 0.58744 0.23106 0.0
C1690 C 0.4194 0.5705 0.2432 0.0
C1691 C 0.42611 0.56738 0.26538 0.0
C1692 C 0.40227 0.55541 0.233 0.0
C1693 C 0.42243 0.59154 0.20753 0.0
C1694 C 0.38624 0.54849 0.24697 0.0
C1695 C 0.37102 0.53196 0.24051 0.0
C1696 C 0.3716 0.52194 0.22005 0.0
C1697 C 0.38714 0.52962 0.20482 0.0
C1698 C 0.40244 0.54624 0.21135 0.0
H1699 H 0.42961 0.60636 0.20341 0.0
H1700 H 0.42467 0.58448 0.19173 0.0
H1701 H 0.40758 0.58647 0.20885 0.0
H1702 H 0.38584 0.55538 0.26371 0.0
H1703 H 0.35918 0.52646 0.25251 0.0
H1704 H 0.87117 0.46756 0.34491 0.0
H1705 H 0.87927 0.44422 0.33526 0.0
H1706 H 0.82869 0.41329 0.29558 0.0
H1707 H 0.82048 0.43638 0.30523 0.0
H1708 H 0.84044 0.3916 0.32218 0.0
H1709 H 0.89387 0.44425 0.26121 0.0
H1710 H 0.89475 0.45014 0.29346 0.0
H1711 H 0.87587 0.44694 0.27469 0.0
C1712 C 0.86149 0.45545 0.33496 0.0
C1713 C 0.8453 0.45388 0.32554 0.0
C1714 C 0.86622 0.44223 0.32923 0.0
C1715 C 0.85476 0.42729 0.3142 0.0
C1716 C 0.83778 0.4248 0.30703 0.0
H1717 H 0.87734 0.36354 0.20957 0.0
H1718 H 0.86871 0.38391 0.2303 0.0
C1719 C 0.8331 0.438 0.31259 0.0
C1720 C 0.86112 0.41539 0.30342 0.0
H1721 H 0.89085 0.41513 0.26081 0.0
C1722 C 0.85157 0.39674 0.30895 0.0
C1723 C 0.87537 0.42212 0.28571 0.0
C1724 C 0.88552 0.44192 0.27817 0.0
C1725 C 0.85595 0.38461 0.2973 0.0
C1726 C 0.87034 0.39139 0.27982 0.0
C1727 C 0.87987 0.41003 0.27427 0.0
C1728 C 0.87577 0.37933 0.26719 0.0
C1729 C 0.84486 0.36458 0.30328 0.0
C1730 C 0.88291 0.37036 0.28101 0.0
C1731 C 0.88787 0.35882 0.26929 0.0
C1732 C 0.88586 0.35604 0.24342 0.0
C1733 C 0.87902 0.36535 0.22949 0.0
C1734 C 0.87408 0.37696 0.2413 0.0
H1735 H 0.83176 0.36108 0.31244 0.0
H1736 H 0.84192 0.35623 0.2862 0.0
H1737 H 0.85271 0.36084 0.31611 0.0
H1738 H 0.88465 0.37229 0.30093 0.0
H1739 H 0.89318 0.35198 0.28063 0.0
H1740 H 0.4623 0.85233 0.20273 0.0
H1741 H 0.431 0.8433 0.21506 0.0
H1742 H 0.43736 0.81913 0.28204 0.0
H1743 H 0.4683 0.82777 0.26977 0.0
H1744 H 0.40198 0.79976 0.262 0.0
H1745 H 0.42718 0.87387 0.27198 0.0
H1746 H 0.42962 0.86677 0.24148 0.0
H1747 H 0.44228 0.86494 0.26699 0.0
C1748 C 0.4568 0.84461 0.21968 0.0
C1749 C 0.46782 0.84103 0.2355 0.0
C1750 C 0.439 0.83958 0.2268 0.0
C1751 C 0.43207 0.83093 0.24975 0.0
C1752 C 0.44249 0.82591 0.26437 0.0
H1753 H 0.35295 0.84491 0.33382 0.0
H1754 H 0.37867 0.84032 0.32463 0.0
C1755 C 0.4602 0.83093 0.25734 0.0
C1756 C 0.41501 0.82899 0.26009 0.0
H1757 H 0.39629 0.85391 0.28111 0.0
C1758 C 0.40066 0.81156 0.26613 0.0
C1759 C 0.4136 0.84447 0.26616 0.0
C1760 C 0.42902 0.86359 0.26156 0.0
C1761 C 0.38471 0.80919 0.27757 0.0
C1762 C 0.38309 0.82466 0.28285 0.0
C1763 C 0.39759 0.84207 0.27718 0.0
C1764 C 0.36606 0.82331 0.29242 0.0
C1765 C 0.36988 0.79021 0.28415 0.0
C1766 C 0.35014 0.81453 0.27814 0.0
C1767 C 0.33545 0.81704 0.28344 0.0
C1768 C 0.33649 0.82856 0.30296 0.0
C1769 C 0.35173 0.83593 0.31872 0.0
C1770 C 0.36647 0.8334 0.31338 0.0
H1771 H 0.37542 0.78089 0.28664 0.0
H1772 H 0.3627 0.79016 0.30142 0.0
H1773 H 0.3598 0.78476 0.26882 0.0
H1774 H 0.34958 0.80693 0.26168 0.0
H1775 H 0.32384 0.8111 0.27103 0.0
H1776 H 0.64642 0.47051 0.24972 0.0
H1777 H 0.62013 0.44162 0.26214 0.0
H1778 H 0.58805 0.44745 0.20454 0.0
H1779 H 0.61439 0.47629 0.1918 0.0
H1780 H 0.59035 0.44234 0.28015 0.0
H1781 H 0.56983 0.39296 0.20281 0.0
H1782 H 0.59232 0.41274 0.20496 0.0
H1783 H 0.57362 0.41481 0.19296 0.0
C1784 C 0.63395 0.46531 0.23909 0.0
C1785 C 0.6324 0.47575 0.21993 0.0
C1786 C 0.61893 0.44882 0.24628 0.0
C1787 C 0.60212 0.44241 0.23435 0.0
C1788 C 0.60096 0.45199 0.21378 0.0
H1789 H 0.48952 0.37684 0.25752 0.0
H1790 H 0.52089 0.39772 0.24563 0.0
C1791 C 0.61605 0.4685 0.20649 0.0
C1792 C 0.58535 0.42755 0.24578 0.0
H1793 H 0.54666 0.38755 0.23295 0.0
C1794 C 0.58093 0.43016 0.27003 0.0
C1795 C 0.57313 0.41172 0.23255 0.0
C1796 C 0.57753 0.40778 0.20697 0.0
C1797 C 0.56413 0.41789 0.28086 0.0
C1798 C 0.55156 0.40248 0.26717 0.0
C1799 C 0.55633 0.39943 0.24337 0.0
C1800 C 0.53269 0.3904 0.27596 0.0
C1801 C 0.55955 0.42203 0.30623 0.0
C1802 C 0.5289 0.37962 0.29742 0.0
C1803 C 0.51081 0.36768 0.30449 0.0
C1804 C 0.49636 0.36626 0.28999 0.0
C1805 C 0.50033 0.37751 0.26901 0.0
C1806 C 0.51826 0.38942 0.2621 0.0
H1807 H 0.56951 0.43603 0.31249 0.0
H1808 H 0.54574 0.42046 0.30624 0.0
H1809 H 0.5596 0.41227 0.31992 0.0
H1810 H 0.53988 0.38007 0.30825 0.0
H1811 H 0.50815 0.35906 0.32061 0.0
H1812 H 0.08066 0.62519 0.28005 0.0
H1813 H 0.0905 0.60534 0.29894 0.0
H1814 H 0.12057 0.60879 0.23265 0.0
H1815 H 0.11066 0.62862 0.21336 0.0
H1816 H 0.08515 0.57035 0.27523 0.0
H1817 H 0.15687 0.62304 0.29529 0.0
H1818 H 0.13889 0.62845 0.29178 0.0
H1819 H 0.14815 0.62346 0.26494 0.0
C1820 C 0.08939 0.62178 0.26943 0.0
C1821 C 0.09491 0.62852 0.24517 0.0
C1822 C 0.09499 0.61044 0.2803 0.0
C1823 C 0.10639 0.60582 0.26727 0.0
C1824 C 0.11191 0.61242 0.24305 0.0
H1825 H 0.15563 0.54145 0.27761 0.0
H1826 H 0.1481 0.56543 0.27324 0.0
C1827 C 0.10616 0.62364 0.23203 0.0
C1828 C 0.11202 0.59358 0.27871 0.0
H1829 H 0.14896 0.59226 0.30114 0.0
C1830 C 0.09903 0.57509 0.28119 0.0
C1831 C 0.13011 0.59996 0.28649 0.0
C1832 C 0.14436 0.61983 0.28471 0.0
C1833 C 0.10389 0.56254 0.29008 0.0
C1834 C 0.12214 0.56882 0.29739 0.0
C1835 C 0.13496 0.58749 0.29575 0.0
C1836 C 0.12867 0.55599 0.30345 0.0
C1837 C 0.08967 0.54257 0.2902 0.0
C1838 C 0.12095 0.5432 0.32279 0.0
C1839 C 0.12514 0.52924 0.32525 0.0
C1840 C 0.1372 0.52802 0.30847 0.0
C1841 C 0.14608 0.54183 0.29063 0.0
C1842 C 0.14184 0.55562 0.28813 0.0
H1843 H 0.07738 0.53976 0.27936 0.0
H1844 H 0.09526 0.53426 0.28236 0.0
H1845 H 0.08535 0.53807 0.3096 0.0
H1846 H 0.1111 0.54353 0.33525 0.0
H1847 H 0.11817 0.51887 0.33927 0.0
H1848 H 0.42698 0.82474 0.7868 0.0
H1849 H 0.40037 0.82839 0.78418 0.0
H1850 H 0.42097 0.86694 0.8446 0.0
H1851 H 0.44819 0.86374 0.8468 0.0
H1852 H 0.37288 0.82597 0.81256 0.0
H1853 H 0.42136 0.89815 0.78724 0.0
H1854 H 0.42856 0.88156 0.79083 0.0
H1855 H 0.42409 0.89126 0.81774 0.0
C1856 C 0.42566 0.83367 0.79998 0.0
C1857 C 0.43984 0.84427 0.81663 0.0
C1858 C 0.4104 0.83571 0.7985 0.0
C1859 C 0.40896 0.84836 0.81366 0.0
C1860 C 0.42208 0.85746 0.83227 0.0
H1861 H 0.33002 0.88442 0.78599 0.0
H1862 H 0.35139 0.87738 0.80676 0.0
C1863 C 0.4375 0.85546 0.83372 0.0
C1864 C 0.395 0.8534 0.80747 0.0
H1865 H 0.39028 0.88787 0.78242 0.0
C1866 C 0.37665 0.83957 0.80634 0.0
C1867 C 0.39999 0.87113 0.79899 0.0
C1868 C 0.41956 0.88638 0.79852 0.0
C1869 C 0.36329 0.84288 0.79632 0.0
C1870 C 0.36842 0.86041 0.78731 0.0
C1871 C 0.38653 0.87443 0.78935 0.0
C1872 C 0.35527 0.86432 0.77477 0.0
C1873 C 0.34383 0.82756 0.79478 0.0
C1874 C 0.35064 0.85947 0.7498 0.0
C1875 C 0.33855 0.86363 0.73772 0.0
C1876 C 0.33085 0.87259 0.75053 0.0
C1877 C 0.33564 0.87745 0.77557 0.0
C1878 C 0.34782 0.87343 0.78753 0.0
H1879 H 0.34165 0.81529 0.80511 0.0
H1880 H 0.33452 0.83206 0.80231 0.0
H1881 H 0.34013 0.8238 0.77502 0.0
H1882 H 0.35644 0.85254 0.73968 0.0
H1883 H 0.33511 0.85967 0.71848 0.0
H1884 H 0.62914 0.46595 0.76668 0.0
H1885 H 0.59971 0.43832 0.76373 0.0
H1886 H 0.58325 0.45146 0.8329 0.0
H1887 H 0.61274 0.47977 0.83555 0.0
H1888 H 0.5786 0.40803 0.7901 0.0
H1889 H 0.54667 0.4515 0.78474 0.0
H1890 H 0.571 0.46093 0.78428 0.0
H1891 H 0.55867 0.45344 0.81307 0.0
C1892 C 0.61941 0.46286 0.78155 0.0
C1893 C 0.6231 0.47526 0.80107 0.0
C1894 C 0.60258 0.44698 0.77986 0.0
C1895 C 0.58908 0.44309 0.79769 0.0
C1896 C 0.59332 0.45449 0.81856 0.0
H1897 H 0.47449 0.36047 0.78711 0.0
H1898 H 0.50464 0.38272 0.80235 0.0
C1899 C 0.61024 0.47055 0.82021 0.0
C1900 C 0.57027 0.42817 0.79271 0.0
H1901 H 0.52748 0.42008 0.77914 0.0
C1902 C 0.56738 0.41062 0.78794 0.0
C1903 C 0.55569 0.43165 0.78954 0.0
C1904 C 0.55811 0.45041 0.79294 0.0
C1905 C 0.5504 0.39656 0.77977 0.0
C1906 C 0.536 0.40017 0.77634 0.0
C1907 C 0.53866 0.41748 0.78177 0.0
C1908 C 0.51801 0.38616 0.76698 0.0
C1909 C 0.54794 0.37798 0.77465 0.0
C1910 C 0.51559 0.38088 0.74192 0.0
C1911 C 0.49828 0.36824 0.73298 0.0
C1912 C 0.48319 0.36064 0.74906 0.0
C1913 C 0.4858 0.36597 0.77419 0.0
C1914 C 0.50301 0.37869 0.783 0.0
H1915 H 0.55953 0.37666 0.7817 0.0
H1916 H 0.53515 0.36727 0.78331 0.0
H1917 H 0.54681 0.37554 0.7543 0.0
H1918 H 0.52705 0.38672 0.72925 0.0
H1919 H 0.49673 0.3644 0.71356 0.0
H1920 H 0.16859 0.60309 0.79442 0.0
H1921 H 0.16151 0.57167 0.78913 0.0
H1922 H 0.11565 0.55355 0.83858 0.0
H1923 H 0.12259 0.58512 0.84383 0.0
H1924 H 0.15462 0.54099 0.81931 0.0
H1925 H 0.09339 0.53261 0.76922 0.0
H1926 H 0.11187 0.55463 0.77823 0.0
H1927 H 0.09584 0.53985 0.80106 0.0
C1928 C 0.15734 0.59249 0.80481 0.0
C1929 C 0.14595 0.59651 0.81921 0.0
C1930 C 0.15332 0.57454 0.80178 0.0
C1931 C 0.13782 0.5603 0.813 0.0
C1932 C 0.12752 0.56439 0.82948 0.0
H1933 H 0.1035 0.44604 0.78418 0.0
H1934 H 0.11216 0.47489 0.80473 0.0
C1935 C 0.13159 0.58243 0.83263 0.0
C1936 C 0.13127 0.54143 0.80452 0.0
H1937 H 0.0987 0.50801 0.76815 0.0
C1938 C 0.14227 0.53363 0.80843 0.0
C1939 C 0.11534 0.53209 0.78985 0.0
C1940 C 0.10344 0.5402 0.7841 0.0
C1941 C 0.13785 0.51678 0.79782 0.0
C1942 C 0.12197 0.50751 0.7831 0.0
C1943 C 0.11085 0.51518 0.7795 0.0
C1944 C 0.11688 0.49006 0.77062 0.0
C1945 C 0.15054 0.50933 0.80165 0.0
C1946 C 0.11631 0.48897 0.74458 0.0
C1947 C 0.11129 0.47246 0.73268 0.0
C1948 C 0.10662 0.45673 0.74667 0.0
C1949 C 0.10706 0.45789 0.77279 0.0
C1950 C 0.11212 0.47439 0.78463 0.0
H1951 H 0.16399 0.51983 0.80899 0.0
H1952 H 0.14438 0.49796 0.8152 0.0
H1953 H 0.15268 0.50393 0.78396 0.0
H1954 H 0.11985 0.50095 0.73346 0.0
H1955 H 0.11106 0.47204 0.71257 0.0
H1956 H 0.61796 0.11006 0.70678 0.0
H1957 H 0.59666 0.11844 0.72471 0.0
H1958 H 0.63503 0.14766 0.78336 0.0
H1959 H 0.6559 0.13849 0.7662 0.0
H1960 H 0.60355 0.12765 0.80275 0.0
H1961 H 0.59422 0.16378 0.724 0.0
H1962 H 0.58892 0.1414 0.71461 0.0
H1963 H 0.6118 0.15773 0.7241 0.0
C1964 C 0.62196 0.11856 0.72321 0.0
C1965 C 0.63856 0.12364 0.73508 0.0
C1966 C 0.60982 0.12344 0.73341 0.0
C1967 C 0.61432 0.13395 0.75523 0.0
C1968 C 0.63122 0.13956 0.76655 0.0
H1969 H 0.53541 0.16654 0.795 0.0
H1970 H 0.56527 0.16926 0.78897 0.0
C1971 C 0.64316 0.13436 0.75668 0.0
C1972 C 0.60089 0.13791 0.76724 0.0
H1973 H 0.57049 0.15205 0.75498 0.0
C1974 C 0.59654 0.13329 0.7924 0.0
C1975 C 0.592 0.14566 0.75405 0.0
C1976 C 0.59715 0.15261 0.7278 0.0
C1977 C 0.58299 0.13541 0.80434 0.0
C1978 C 0.57301 0.14167 0.7905 0.0
C1979 C 0.57794 0.14706 0.76567 0.0
C1980 C 0.55663 0.14164 0.80051 0.0
C1981 C 0.57963 0.13096 0.83164 0.0
C1982 C 0.54208 0.1256 0.81046 0.0
C1983 C 0.52521 0.12431 0.81483 0.0
C1984 C 0.52252 0.13885 0.80861 0.0
C1985 C 0.53731 0.15526 0.80024 0.0
C1986 C 0.55429 0.15673 0.79656 0.0
H1987 H 0.59236 0.13364 0.84119 0.0
H1988 H 0.57427 0.139 0.84095 0.0
H1989 H 0.56962 0.11626 0.83387 0.0
H1990 H 0.54325 0.11357 0.81303 0.0
H1991 H 0.51383 0.11138 0.82067 0.0
H1992 H 0.38971 0.52405 0.83209 0.0
H1993 H 0.41976 0.5517 0.82958 0.0
H1994 H 0.39938 0.57344 0.77374 0.0
H1995 H 0.36954 0.54607 0.77619 0.0
H1996 H 0.43856 0.56 0.78433 0.0
H1997 H 0.43147 0.61824 0.81613 0.0
H1998 H 0.41541 0.59496 0.82452 0.0
H1999 H 0.41399 0.60373 0.79469 0.0
C2000 C 0.39149 0.53506 0.82004 0.0
C2001 C 0.37737 0.53292 0.80424 0.0
C2002 C 0.40866 0.55077 0.8185 0.0
C2003 C 0.41176 0.56463 0.80152 0.0
C2004 C 0.39724 0.56307 0.78724 0.0
H2005 H 0.5065 0.6352 0.71384 0.0
H2006 H 0.47668 0.61176 0.72948 0.0
C2007 C 0.3802 0.54737 0.78859 0.0
C2008 C 0.4305 0.5793 0.79577 0.0
H2009 H 0.45692 0.62537 0.78939 0.0
C2010 C 0.44268 0.57431 0.78579 0.0
C2011 C 0.43582 0.59793 0.79762 0.0
C2012 C 0.42354 0.60407 0.80904 0.0
C2013 C 0.45982 0.58744 0.77682 0.0
C2014 C 0.46479 0.60602 0.77762 0.0
C2015 C 0.45291 0.61108 0.78844 0.0
C2016 C 0.4825 0.62042 0.76784 0.0
C2017 C 0.47247 0.58136 0.76651 0.0
C2018 C 0.4954 0.63321 0.78415 0.0
C2019 C 0.51236 0.64653 0.77533 0.0
C2020 C 0.51673 0.64744 0.74993 0.0
C2021 C 0.50359 0.63483 0.73349 0.0
C2022 C 0.4866 0.6214 0.74241 0.0
H2023 H 0.46833 0.56723 0.77224 0.0
H2024 H 0.47223 0.58179 0.74592 0.0
H2025 H 0.48668 0.59058 0.77272 0.0
H2026 H 0.49245 0.63271 0.80381 0.0
H2027 H 0.52208 0.65609 0.78852 0.0
H2028 H 0.85944 0.38436 0.83987 0.0
H2029 H 0.86267 0.41475 0.83776 0.0
H2030 H 0.819 0.39502 0.78428 0.0
H2031 H 0.81562 0.36483 0.78651 0.0
H2032 H 0.87301 0.43243 0.7931 0.0
H2033 H 0.8097 0.43 0.82432 0.0
H2034 H 0.81533 0.41278 0.8328 0.0
H2035 H 0.80523 0.41195 0.80306 0.0
C2036 C 0.85001 0.38635 0.82856 0.0
C2037 C 0.83739 0.37233 0.81319 0.0
C2038 C 0.85193 0.40372 0.82724 0.0
C2039 C 0.84106 0.40715 0.81087 0.0
C2040 C 0.82733 0.39268 0.79734 0.0
H2041 H 0.87248 0.50198 0.7194 0.0
H2042 H 0.86226 0.47134 0.7358 0.0
C2043 C 0.82549 0.37542 0.79852 0.0
C2044 C 0.84606 0.42605 0.80433 0.0
H2045 H 0.82857 0.45423 0.79585 0.0
C2046 C 0.86339 0.4373 0.79408 0.0
C2047 C 0.83347 0.43236 0.80551 0.0
C2048 C 0.81496 0.42119 0.81725 0.0
C2049 C 0.86826 0.45444 0.78424 0.0
C2050 C 0.85537 0.46037 0.7843 0.0
C2051 C 0.83828 0.44946 0.79538 0.0
C2052 C 0.85977 0.47822 0.77376 0.0
C2053 C 0.88718 0.46607 0.77381 0.0
C2054 C 0.86111 0.49195 0.78953 0.0
C2055 C 0.86692 0.50936 0.78028 0.0
C2056 C 0.87139 0.51337 0.75499 0.0
C2057 C 0.86922 0.49935 0.73896 0.0
C2058 C 0.86347 0.48189 0.74831 0.0
H2059 H 0.89662 0.46136 0.78013 0.0
H2060 H 0.88655 0.46537 0.75323 0.0
H2061 H 0.89288 0.48053 0.77934 0.0
H2062 H 0.85823 0.48935 0.80919 0.0
H2063 H 0.86825 0.51979 0.79312 0.0
loop_
_geom_bond_atom_site_label_1
_geom_bond_atom_site_label_2
_geom_bond_distance
_geom_bond_site_symmetry_2
_ccdc_geom_bond_type
Zn0 O3 2.031 . S
Zn0 O5 2.049 . S
Zn0 O10 2.067 . S
Zn1 O2 1.962 . S
Zn1 O4 1.986 . S
Zn1 O6 1.996 . S
Zn1 O9 1.943 . S
O2 Zn1 1.962 . S
O2 C7 1.254 . S
O3 Zn0 2.031 . S
O3 C7 1.269 . S
O4 Zn1 1.986 . S
O4 C11 1.262 . S
O5 Zn0 2.049 . S
O5 C13 1.260 . S
O6 Zn1 1.996 . S
O6 C13 1.257 . S
C7 O2 1.254 . S
C7 O3 1.269 . S
C8 O9 1.249 . S
C8 O10 1.270 . S
O9 Zn1 1.943 . S
O9 C8 1.249 . S
O10 Zn0 2.067 . S
O10 C8 1.270 . S
C11 O4 1.262 . S
C11 O12 1.232 . S
O12 C11 1.232 . S
C13 O5 1.260 . S
C13 O6 1.257 . S
Zn14 O17 2.031 . S
Zn14 O19 2.049 . S
Zn14 O24 2.067 . S
Zn15 O16 1.962 . S
Zn15 O18 1.986 . S
Zn15 O20 1.996 . S
Zn15 O23 1.943 . S
O16 Zn15 1.962 . S
O16 C21 1.254 . S
O17 Zn14 2.031 . S
O17 C21 1.269 . S
O18 Zn15 1.986 . S
O18 C25 1.262 . S
O19 Zn14 2.049 . S
O19 C27 1.260 . S
O20 Zn15 1.996 . S
O20 C27 1.257 . S
C21 O16 1.254 . S
C21 O17 1.269 . S
C22 O23 1.249 . S
C22 O24 1.270 . S
O23 Zn15 1.943 . S
O23 C22 1.249 . S
O24 Zn14 2.067 . S
O24 C22 1.270 . S
C25 O18 1.262 . S
C25 O26 1.232 . S
O26 C25 1.232 . S
C27 O19 1.260 . S
C27 O20 1.257 . S
Zn28 O31 2.031 . S
Zn28 O33 2.049 . S
Zn28 O38 2.067 . S
Zn29 O30 1.962 . S
Zn29 O32 1.986 . S
Zn29 O34 1.996 . S
Zn29 O37 1.943 . S
O30 Zn29 1.962 . S
O30 C35 1.254 . S
O31 Zn28 2.031 . S
O31 C35 1.269 . S
O32 Zn29 1.986 . S
O32 C39 1.262 . S
O33 Zn28 2.049 . S
O33 C41 1.260 . S
O34 Zn29 1.996 . S
O34 C41 1.257 . S
C35 O30 1.254 . S
C35 O31 1.269 . S
C36 O37 1.249 . S
C36 O38 1.270 . S
O37 Zn29 1.943 . S
O37 C36 1.249 . S
O38 Zn28 2.067 . S
O38 C36 1.270 . S
C39 O32 1.262 . S
C39 O40 1.232 . S
O40 C39 1.232 . S
C41 O33 1.260 . S
C41 O34 1.257 . S
Zn42 O45 2.031 . S
Zn42 O47 2.049 . S
Zn42 O52 2.067 . S
Zn43 O44 1.962 . S
Zn43 O46 1.986 . S
Zn43 O48 1.996 . S
Zn43 O51 1.943 . S
O44 Zn43 1.962 . S
O44 C49 1.254 . S
O45 Zn42 2.031 . S
O45 C49 1.269 . S
O46 Zn43 1.986 . S
O46 C53 1.262 . S
O47 Zn42 2.049 . S
O47 C55 1.260 . S
O48 Zn43 1.996 . S
O48 C55 1.257 . S
C49 O44 1.254 . S
C49 O45 1.269 . S
C50 O51 1.249 . S
C50 O52 1.270 . S
O51 Zn43 1.943 . S
O51 C50 1.249 . S
O52 Zn42 2.067 . S
O52 C50 1.270 . S
C53 O46 1.262 . S
C53 O54 1.232 . S
O54 C53 1.232 . S
C55 O47 1.260 . S
C55 O48 1.257 . S
Zn56 O59 2.031 . S
Zn56 O61 2.049 . S
Zn56 O66 2.067 . S
Zn57 O58 1.962 . S
Zn57 O60 1.986 . S
Zn57 O62 1.996 . S
Zn57 O65 1.943 . S
O58 Zn57 1.962 . S
O58 C63 1.254 . S
O59 Zn56 2.031 . S
O59 C63 1.269 . S
O60 Zn57 1.986 . S
O60 C67 1.262 . S
O61 Zn56 2.049 . S
O61 C69 1.260 . S
O62 Zn57 1.996 . S
O62 C69 1.257 . S
C63 O58 1.254 . S
C63 O59 1.269 . S
C64 O65 1.249 . S
C64 O66 1.270 . S
O65 Zn57 1.943 . S
O65 C64 1.249 . S
O66 Zn56 2.067 . S
O66 C64 1.270 . S
C67 O60 1.262 . S
C67 O68 1.232 . S
O68 C67 1.232 . S
C69 O61 1.260 . S
C69 O62 1.257 . S
Zn70 O73 2.031 . S
Zn70 O75 2.049 . S
Zn70 O80 2.067 . S
Zn71 O72 1.962 . S
Zn71 O74 1.986 . S
Zn71 O76 1.996 . S
Zn71 O79 1.943 . S
O72 Zn71 1.962 . S
O72 C77 1.254 . S
O73 Zn70 2.031 . S
O73 C77 1.269 . S
O74 Zn71 1.986 . S
O74 C81 1.262 . S
O75 Zn70 2.049 . S
O75 C83 1.260 . S
O76 Zn71 1.996 . S
O76 C83 1.257 . S
C77 O72 1.254 . S
C77 O73 1.269 . S
C78 O79 1.249 . S
C78 O80 1.270 . S
O79 Zn71 1.943 . S
O79 C78 1.249 . S
O80 Zn70 2.067 . S
O80 C78 1.270 . S
C81 O74 1.262 . S
C81 O82 1.232 . S
O82 C81 1.232 . S
C83 O75 1.260 . S
C83 O76 1.257 . S
Zn84 O87 2.031 . S
Zn84 O89 2.049 . S
Zn84 O94 2.067 . S
Zn85 O86 1.962 . S
Zn85 O88 1.986 . S
Zn85 O90 1.996 . S
Zn85 O93 1.943 . S
O86 Zn85 1.962 . S
O86 C91 1.254 . S
O87 Zn84 2.031 . S
O87 C91 1.269 . S
O88 Zn85 1.986 . S
O88 C95 1.262 . S
O89 Zn84 2.049 . S
O89 C97 1.260 . S
O90 Zn85 1.996 . S
O90 C97 1.257 . S
C91 O86 1.254 . S
C91 O87 1.269 . S
C92 O93 1.249 . S
C92 O94 1.270 . S
O93 Zn85 1.943 . S
O93 C92 1.249 . S
O94 Zn84 2.067 . S
O94 C92 1.270 . S
C95 O88 1.262 . S
C95 O96 1.232 . S
O96 C95 1.232 . S
C97 O89 1.260 . S
C97 O90 1.257 . S
Zn98 O101 2.031 . S
Zn98 O103 2.049 . S
Zn98 O108 2.067 . S
Zn99 O100 1.962 . S
Zn99 O102 1.986 . S
Zn99 O104 1.996 . S
Zn99 O107 1.943 . S
O100 Zn99 1.962 . S
O100 C105 1.254 . S
O101 Zn98 2.031 . S
O101 C105 1.269 . S
O102 Zn99 1.986 . S
O102 C109 1.262 . S
O103 Zn98 2.049 . S
O103 C111 1.260 . S
O104 Zn99 1.996 . S
O104 C111 1.257 . S
C105 O100 1.254 . S
C105 O101 1.269 . S
C106 O107 1.249 . S
C106 O108 1.270 . S
O107 Zn99 1.943 . S
O107 C106 1.249 . S
O108 Zn98 2.067 . S
O108 C106 1.270 . S
C109 O102 1.262 . S
C109 O110 1.232 . S
O110 C109 1.232 . S
C111 O103 1.260 . S
C111 O104 1.257 . S
Zn112 O115 2.031 . S
Zn112 O117 2.049 . S
Zn112 O122 2.067 . S
Zn113 O114 1.962 . S
Zn113 O116 1.986 . S
Zn113 O118 1.996 . S
Zn113 O121 1.943 . S
O114 Zn113 1.962 . S
O114 C119 1.254 . S
O115 Zn112 2.031 . S
O115 C119 1.269 . S
O116 Zn113 1.986 . S
O116 C123 1.262 . S
O117 Zn112 2.049 . S
O117 C125 1.260 . S
O118 Zn113 1.996 . S
O118 C125 1.257 . S
C119 O114 1.254 . S
C119 O115 1.269 . S
C120 O121 1.249 . S
C120 O122 1.270 . S
O121 Zn113 1.943 . S
O121 C120 1.249 . S
O122 Zn112 2.067 . S
O122 C120 1.270 . S
C123 O116 1.262 . S
C123 O124 1.232 . S
O124 C123 1.232 . S
C125 O117 1.260 . S
C125 O118 1.257 . S
Zn126 O129 2.031 . S
Zn126 O131 2.049 . S
Zn126 O136 2.067 . S
Zn127 O128 1.962 . S
Zn127 O130 1.986 . S
Zn127 O132 1.996 . S
Zn127 O135 1.943 . S
O128 Zn127 1.962 . S
O128 C133 1.254 . S
O129 Zn126 2.031 . S
O129 C133 1.269 . S
O130 Zn127 1.986 . S
O130 C137 1.262 . S
O131 Zn126 2.049 . S
O131 C139 1.260 . S
O132 Zn127 1.996 . S
O132 C139 1.257 . S
C133 O128 1.254 . S
C133 O129 1.269 . S
C134 O135 1.249 . S
C134 O136 1.270 . S
O135 Zn127 1.943 . S
O135 C134 1.249 . S
O136 Zn126 2.067 . S
O136 C134 1.270 . S
C137 O130 1.262 . S
C137 O138 1.232 . S
O138 C137 1.232 . S
C139 O131 1.260 . S
C139 O132 1.257 . S
Zn140 O143 2.031 . S
Zn140 O145 2.049 . S
Zn140 O150 2.067 . S
Zn141 O142 1.962 . S
Zn141 O144 1.986 . S
Zn141 O146 1.996 . S
Zn141 O149 1.943 . S
O142 Zn141 1.962 . S
O142 C147 1.254 . S
O143 Zn140 2.031 . S
O143 C147 1.269 . S
O144 Zn141 1.986 . S
O144 C151 1.262 . S
O145 Zn140 2.049 . S
O145 C153 1.260 . S
O146 Zn141 1.996 . S
O146 C153 1.257 . S
C147 O142 1.254 . S
C147 O143 1.269 . S
C148 O149 1.249 . S
C148 O150 1.270 . S
O149 Zn141 1.943 . S
O149 C148 1.249 . S
O150 Zn140 2.067 . S
O150 C148 1.270 . S
C151 O144 1.262 . S
C151 O152 1.232 . S
O152 C151 1.232 . S
C153 O145 1.260 . S
C153 O146 1.257 . S
Zn154 O157 2.031 . S
Zn154 O159 2.049 . S
Zn154 O164 2.067 . S
Zn155 O156 1.962 . S
Zn155 O158 1.986 . S
Zn155 O160 1.996 . S
Zn155 O163 1.943 . S
O156 Zn155 1.962 . S
O156 C161 1.254 . S
O157 Zn154 2.031 . S
O157 C161 1.269 . S
O158 Zn155 1.986 . S
O158 C165 1.262 . S
O159 Zn154 2.049 . S
O159 C167 1.260 . S
O160 Zn155 1.996 . S
O160 C167 1.257 . S
C161 O156 1.254 . S
C161 O157 1.269 . S
C162 O163 1.249 . S
C162 O164 1.270 . S
O163 Zn155 1.943 . S
O163 C162 1.249 . S
O164 Zn154 2.067 . S
O164 C162 1.270 . S
C165 O158 1.262 . S
C165 O166 1.232 . S
O166 C165 1.232 . S
C167 O159 1.260 . S
C167 O160 1.257 . S
Zn168 O171 2.031 . S
Zn168 O173 2.049 . S
Zn168 O178 2.067 . S
Zn169 O170 1.962 . S
Zn169 O172 1.986 . S
Zn169 O174 1.996 . S
Zn169 O177 1.943 . S
O170 Zn169 1.962 . S
O170 C175 1.254 . S
O171 Zn168 2.031 . S
O171 C175 1.269 . S
O172 Zn169 1.986 . S
O172 C179 1.262 . S
O173 Zn168 2.049 . S
O173 C181 1.260 . S
O174 Zn169 1.996 . S
O174 C181 1.257 . S
C175 O170 1.254 . S
C175 O171 1.269 . S
C176 O177 1.249 . S
C176 O178 1.270 . S
O177 Zn169 1.943 . S
O177 C176 1.249 . S
O178 Zn168 2.067 . S
O178 C176 1.270 . S
C179 O172 1.262 . S
C179 O180 1.232 . S
O180 C179 1.232 . S
C181 O173 1.260 . S
C181 O174 1.257 . S
Zn182 O185 2.031 . S
Zn182 O187 2.049 . S
Zn182 O192 2.067 . S
Zn183 O184 1.962 . S
Zn183 O186 1.986 . S
Zn183 O188 1.996 . S
Zn183 O191 1.943 . S
O184 Zn183 1.962 . S
O184 C189 1.254 . S
O185 Zn182 2.031 . S
O185 C189 1.269 . S
O186 Zn183 1.986 . S
O186 C193 1.262 . S
O187 Zn182 2.049 . S
O187 C195 1.260 . S
O188 Zn183 1.996 . S
O188 C195 1.257 . S
C189 O184 1.254 . S
C189 O185 1.269 . S
C190 O191 1.249 . S
C190 O192 1.270 . S
O191 Zn183 1.943 . S
O191 C190 1.249 . S
O192 Zn182 2.067 . S
O192 C190 1.270 . S
C193 O186 1.262 . S
C193 O194 1.232 . S
O194 C193 1.232 . S
C195 O187 1.260 . S
C195 O188 1.257 . S
Zn196 O199 2.031 . S
Zn196 O201 2.049 . S
Zn196 O206 2.067 . S
Zn197 O198 1.962 . S
Zn197 O200 1.986 . S
Zn197 O202 1.996 . S
Zn197 O205 1.943 . S
O198 Zn197 1.962 . S
O198 C203 1.254 . S
O199 Zn196 2.031 . S
O199 C203 1.269 . S
O200 Zn197 1.986 . S
O200 C207 1.262 . S
O201 Zn196 2.049 . S
O201 C209 1.260 . S
O202 Zn197 1.996 . S
O202 C209 1.257 . S
C203 O198 1.254 . S
C203 O199 1.269 . S
C204 O205 1.249 . S
C204 O206 1.270 . S
O205 Zn197 1.943 . S
O205 C204 1.249 . S
O206 Zn196 2.067 . S
O206 C204 1.270 . S
C207 O200 1.262 . S
C207 O208 1.232 . S
O208 C207 1.232 . S
C209 O201 1.260 . S
C209 O202 1.257 . S
Zn210 O213 2.031 . S
Zn210 O215 2.049 . S
Zn210 O220 2.067 . S
Zn211 O212 1.962 . S
Zn211 O214 1.986 . S
Zn211 O216 1.996 . S
Zn211 O219 1.943 . S
O212 Zn211 1.962 . S
O212 C217 1.254 . S
O213 Zn210 2.031 . S
O213 C217 1.269 . S
O214 Zn211 1.986 . S
O214 C221 1.262 . S
O215 Zn210 2.049 . S
O215 C223 1.260 . S
O216 Zn211 1.996 . S
O216 C223 1.257 . S
C217 O212 1.254 . S
C217 O213 1.269 . S
C218 O219 1.249 . S
C218 O220 1.270 . S
O219 Zn211 1.943 . S
O219 C218 1.249 . S
O220 Zn210 2.067 . S
O220 C218 1.270 . S
C221 O214 1.262 . S
C221 O222 1.232 . S
O222 C221 1.232 . S
C223 O215 1.260 . S
C223 O216 1.257 . S
Zn224 O227 2.031 . S
Zn224 O229 2.049 . S
Zn224 O234 2.067 . S
Zn225 O226 1.962 . S
Zn225 O228 1.986 . S
Zn225 O230 1.996 . S
Zn225 O233 1.943 . S
O226 Zn225 1.962 . S
O226 C231 1.254 . S
O227 Zn224 2.031 . S
O227 C231 1.269 . S
O228 Zn225 1.986 . S
O228 C235 1.262 . S
O229 Zn224 2.049 . S
O229 C237 1.260 . S
O230 Zn225 1.996 . S
O230 C237 1.257 . S
C231 O226 1.254 . S
C231 O227 1.269 . S
C232 O233 1.249 . S
C232 O234 1.270 . S
O233 Zn225 1.943 . S
O233 C232 1.249 . S
O234 Zn224 2.067 . S
O234 C232 1.270 . S
C235 O228 1.262 . S
C235 O236 1.232 . S
O236 C235 1.232 . S
C237 O229 1.260 . S
C237 O230 1.257 . S
Zn238 O241 2.031 . S
Zn238 O243 2.049 . S
Zn238 O248 2.067 . S
Zn239 O240 1.962 . S
Zn239 O242 1.986 . S
Zn239 O244 1.996 . S
Zn239 O247 1.943 . S
O240 Zn239 1.962 . S
O240 C245 1.254 . S
O241 Zn238 2.031 . S
O241 C245 1.269 . S
O242 Zn239 1.986 . S
O242 C249 1.262 . S
O243 Zn238 2.049 . S
O243 C251 1.260 . S
O244 Zn239 1.996 . S
O244 C251 1.257 . S
C245 O240 1.254 . S
C245 O241 1.269 . S
C246 O247 1.249 . S
C246 O248 1.270 . S
O247 Zn239 1.943 . S
O247 C246 1.249 . S
O248 Zn238 2.067 . S
O248 C246 1.270 . S
C249 O242 1.262 . S
C249 O250 1.232 . S
O250 C249 1.232 . S
C251 O243 1.260 . S
C251 O244 1.257 . S
Zn252 O255 2.031 . S
Zn252 O257 2.049 . S
Zn252 O262 2.067 . S
Zn253 O254 1.962 . S
Zn253 O256 1.986 . S
Zn253 O258 1.996 . S
Zn253 O261 1.943 . S
O254 Zn253 1.962 . S
O254 C259 1.254 . S
O255 Zn252 2.031 . S
O255 C259 1.269 . S
O256 Zn253 1.986 . S
O256 C263 1.262 . S
O257 Zn252 2.049 . S
O257 C265 1.260 . S
O258 Zn253 1.996 . S
O258 C265 1.257 . S
C259 O254 1.254 . S
C259 O255 1.269 . S
C260 O261 1.249 . S
C260 O262 1.270 . S
O261 Zn253 1.943 . S
O261 C260 1.249 . S
O262 Zn252 2.067 . S
O262 C260 1.270 . S
C263 O256 1.262 . S
C263 O264 1.232 . S
O264 C263 1.232 . S
C265 O257 1.260 . S
C265 O258 1.257 . S
Zn266 O269 2.031 . S
Zn266 O271 2.049 . S
Zn266 O276 2.067 . S
Zn267 O268 1.962 . S
Zn267 O270 1.986 . S
Zn267 O272 1.996 . S
Zn267 O275 1.943 . S
O268 Zn267 1.962 . S
O268 C273 1.254 . S
O269 Zn266 2.031 . S
O269 C273 1.269 . S
O270 Zn267 1.986 . S
O270 C277 1.262 . S
O271 Zn266 2.049 . S
O271 C279 1.260 . S
O272 Zn267 1.996 . S
O272 C279 1.257 . S
C273 O268 1.254 . S
C273 O269 1.269 . S
C274 O275 1.249 . S
C274 O276 1.270 . S
O275 Zn267 1.943 . S
O275 C274 1.249 . S
O276 Zn266 2.067 . S
O276 C274 1.270 . S
C277 O270 1.262 . S
C277 O278 1.232 . S
O278 C277 1.232 . S
C279 O271 1.260 . S
C279 O272 1.257 . S
Zn280 O283 2.031 . S
Zn280 O285 2.049 . S
Zn280 O290 2.067 . S
Zn281 O282 1.962 . S
Zn281 O284 1.986 . S
Zn281 O286 1.996 . S
Zn281 O289 1.943 . S
O282 Zn281 1.962 . S
O282 C287 1.254 . S
O283 Zn280 2.031 . S
O283 C287 1.269 . S
O284 Zn281 1.986 . S
O284 C291 1.262 . S
O285 Zn280 2.049 . S
O285 C293 1.260 . S
O286 Zn281 1.996 . S
O286 C293 1.257 . S
C287 O282 1.254 . S
C287 O283 1.269 . S
C288 O289 1.249 . S
C288 O290 1.270 . S
O289 Zn281 1.943 . S
O289 C288 1.249 . S
O290 Zn280 2.067 . S
O290 C288 1.270 . S
C291 O284 1.262 . S
C291 O292 1.232 . S
O292 C291 1.232 . S
C293 O285 1.260 . S
C293 O286 1.257 . S
Zn294 O297 2.031 . S
Zn294 O299 2.049 . S
Zn294 O304 2.067 . S
Zn295 O296 1.962 . S
Zn295 O298 1.986 . S
Zn295 O300 1.996 . S
Zn295 O303 1.943 . S
O296 Zn295 1.962 . S
O296 C301 1.254 . S
O297 Zn294 2.031 . S
O297 C301 1.269 . S
O298 Zn295 1.986 . S
O298 C305 1.262 . S
O299 Zn294 2.049 . S
O299 C307 1.260 . S
O300 Zn295 1.996 . S
O300 C307 1.257 . S
C301 O296 1.254 . S
C301 O297 1.269 . S
C302 O303 1.249 . S
C302 O304 1.270 . S
O303 Zn295 1.943 . S
O303 C302 1.249 . S
O304 Zn294 2.067 . S
O304 C302 1.270 . S
C305 O298 1.262 . S
C305 O306 1.232 . S
O306 C305 1.232 . S
C307 O299 1.260 . S
C307 O300 1.257 . S
Zn308 O311 2.031 . S
Zn308 O313 2.049 . S
Zn308 O318 2.067 . S
Zn309 O310 1.962 . S
Zn309 O312 1.986 . S
Zn309 O314 1.996 . S
Zn309 O317 1.943 . S
O310 Zn309 1.962 . S
O310 C315 1.254 . S
O311 Zn308 2.031 . S
O311 C315 1.269 . S
O312 Zn309 1.986 . S
O312 C319 1.262 . S
O313 Zn308 2.049 . S
O313 C321 1.260 . S
O314 Zn309 1.996 . S
O314 C321 1.257 . S
C315 O310 1.254 . S
C315 O311 1.269 . S
C316 O317 1.249 . S
C316 O318 1.270 . S
O317 Zn309 1.943 . S
O317 C316 1.249 . S
O318 Zn308 2.067 . S
O318 C316 1.270 . S
C319 O312 1.262 . S
C319 O320 1.232 . S
O320 C319 1.232 . S
C321 O313 1.260 . S
C321 O314 1.257 . S
Zn322 O325 2.031 . S
Zn322 O327 2.049 . S
Zn322 O332 2.067 . S
Zn323 O324 1.962 . S
Zn323 O326 1.986 . S
Zn323 O328 1.996 . S
Zn323 O331 1.943 . S
O324 Zn323 1.962 . S
O324 C329 1.254 . S
O325 Zn322 2.031 . S
O325 C329 1.269 . S
O326 Zn323 1.986 . S
O326 C333 1.262 . S
O327 Zn322 2.049 . S
O327 C335 1.260 . S
O328 Zn323 1.996 . S
O328 C335 1.257 . S
C329 O324 1.254 . S
C329 O325 1.269 . S
C330 O331 1.249 . S
C330 O332 1.270 . S
O331 Zn323 1.943 . S
O331 C330 1.249 . S
O332 Zn322 2.067 . S
O332 C330 1.270 . S
C333 O326 1.262 . S
C333 O334 1.232 . S
O334 C333 1.232 . S
C335 O327 1.260 . S
C335 O328 1.257 . S
H336 C344 0.929 . S
H337 C346 0.930 . S
H338 C348 0.930 . S
H339 C351 0.929 . S
H340 C354 0.930 . S
H341 C356 0.960 . S
H342 C356 0.960 . S
H343 C356 0.960 . S
C344 H336 0.929 . S
C344 C345 1.377 . S
C344 C346 1.384 . S
C345 C344 1.377 . S
C345 C351 1.390 . S
C346 H337 0.930 . S
C346 C344 1.384 . S
C346 C347 1.372 . S
C347 C346 1.372 . S
C347 C348 1.400 . S
C347 C352 1.490 . S
C348 H338 0.930 . S
C348 C347 1.400 . S
C348 C351 1.386 . S
H349 C365 0.930 . S
H350 C366 0.931 . S
C351 H339 0.929 . S
C351 C345 1.390 . S
C351 C348 1.386 . S
C352 C347 1.490 . S
C352 C354 1.395 . S
C352 C355 1.403 . S
H353 C359 0.930 . S
C354 H340 0.930 . S
C354 C352 1.395 . S
C354 C357 1.403 1_545 S
C355 C352 1.403 . S
C355 C356 1.524 . S
C355 C359 1.400 1_545 S
C356 H341 0.960 . S
C356 H342 0.960 . S
C356 H343 0.960 . S
C356 C355 1.524 . S
C357 C354 1.403 1_565 S
C357 C358 1.392 . S
C357 C361 1.495 . S
C358 C357 1.392 . S
C358 C359 1.385 . S
C358 C360 1.478 . S
C359 H353 0.930 . S
C359 C355 1.400 1_565 S
C359 C358 1.385 . S
C360 C358 1.478 . S
C360 C362 1.381 . S
C360 C366 1.383 . S
C361 C357 1.495 . S
C361 H367 0.959 . S
C361 H368 0.961 . S
C361 H369 0.960 . S
C362 C360 1.381 . S
C362 C363 1.394 . S
C362 H370 0.930 . S
C363 C362 1.394 . S
C363 C364 1.383 . S
C363 H371 0.929 . S
C364 C363 1.383 . S
C364 C365 1.377 . S
C365 H349 0.930 . S
C365 C364 1.377 . S
C365 C366 1.379 . S
C366 H350 0.931 . S
C366 C360 1.383 . S
C366 C365 1.379 . S
H367 C361 0.959 . S
H368 C361 0.961 . S
H369 C361 0.960 . S
H370 C362 0.930 . S
H371 C363 0.929 . S
H372 C380 0.929 . S
H373 C382 0.930 . S
H374 C384 0.930 . S
H375 C387 0.929 . S
H376 C390 0.930 . S
H377 C392 0.960 . S
H378 C392 0.960 . S
H379 C392 0.960 . S
C380 H372 0.929 . S
C380 C381 1.377 . S
C380 C382 1.384 . S
C381 C380 1.377 . S
C381 C387 1.390 . S
C382 H373 0.930 . S
C382 C380 1.384 . S
C382 C383 1.372 . S
C383 C382 1.372 . S
C383 C384 1.400 . S
C383 C388 1.490 . S
C384 H374 0.930 . S
C384 C383 1.400 . S
C384 C387 1.386 . S
H385 C401 0.930 . S
H386 C402 0.931 . S
C387 H375 0.929 . S
C387 C381 1.390 . S
C387 C384 1.386 . S
C388 C383 1.490 . S
C388 C390 1.395 . S
C388 C391 1.403 . S
H389 C395 0.930 . S
C390 H376 0.930 . S
C390 C388 1.395 . S
C390 C393 1.403 . S
C391 C388 1.403 . S
C391 C392 1.524 . S
C391 C395 1.400 . S
C392 H377 0.960 . S
C392 H378 0.960 . S
C392 H379 0.960 . S
C392 C391 1.524 . S
C393 C390 1.403 . S
C393 C394 1.392 . S
C393 C397 1.495 . S
C394 C393 1.392 . S
C394 C395 1.385 . S
C394 C396 1.478 . S
C395 H389 0.930 . S
C395 C391 1.400 . S
C395 C394 1.385 . S
C396 C394 1.478 . S
C396 C398 1.381 . S
C396 C402 1.383 . S
C397 C393 1.495 . S
C397 H403 0.959 . S
C397 H404 0.961 . S
C397 H405 0.960 . S
C398 C396 1.381 . S
C398 C399 1.394 . S
C398 H406 0.930 . S
C399 C398 1.394 . S
C399 C400 1.383 . S
C399 H407 0.929 . S
C400 C399 1.383 . S
C400 C401 1.377 . S
C401 H385 0.930 . S
C401 C400 1.377 . S
C401 C402 1.379 . S
C402 H386 0.931 . S
C402 C396 1.383 . S
C402 C401 1.379 . S
H403 C397 0.959 . S
H404 C397 0.961 . S
H405 C397 0.960 . S
H406 C398 0.930 . S
H407 C399 0.929 . S
H408 C416 0.929 . S
H409 C418 0.930 . S
H410 C420 0.930 . S
H411 C423 0.929 . S
H412 C426 0.930 . S
H413 C428 0.960 . S
H414 C428 0.960 . S
H415 C428 0.960 . S
C416 H408 0.929 . S
C416 C417 1.377 . S
C416 C418 1.384 . S
C417 C416 1.377 . S
C417 C423 1.390 . S
C418 H409 0.930 . S
C418 C416 1.384 . S
C418 C419 1.372 . S
C419 C418 1.372 . S
C419 C420 1.400 . S
C419 C424 1.490 . S
C420 H410 0.930 . S
C420 C419 1.400 . S
C420 C423 1.386 . S
H421 C437 0.930 . S
H422 C438 0.931 . S
C423 H411 0.929 . S
C423 C417 1.390 . S
C423 C420 1.386 . S
C424 C419 1.490 . S
C424 C426 1.395 . S
C424 C427 1.403 . S
H425 C431 0.930 . S
C426 H412 0.930 . S
C426 C424 1.395 . S
C426 C429 1.403 1_655 S
C427 C424 1.403 . S
C427 C428 1.524 . S
C427 C431 1.400 1_655 S
C428 H413 0.960 . S
C428 H414 0.960 . S
C428 H415 0.960 . S
C428 C427 1.524 . S
C429 C426 1.403 1_455 S
C429 C430 1.392 . S
C429 C433 1.495 . S
C430 C429 1.392 . S
C430 C431 1.385 . S
C430 C432 1.478 . S
C431 H425 0.930 . S
C431 C427 1.400 1_455 S
C431 C430 1.385 . S
C432 C430 1.478 . S
C432 C434 1.381 . S
C432 C438 1.383 . S
C433 C429 1.495 . S
C433 H439 0.959 . S
C433 H440 0.961 . S
C433 H441 0.960 . S
C434 C432 1.381 . S
C434 C435 1.394 . S
C434 H442 0.930 . S
C435 C434 1.394 . S
C435 C436 1.383 . S
C435 H443 0.929 . S
C436 C435 1.383 . S
C436 C437 1.377 . S
C437 H421 0.930 . S
C437 C436 1.377 . S
C437 C438 1.379 . S
C438 H422 0.931 . S
C438 C432 1.383 . S
C438 C437 1.379 . S
H439 C433 0.959 . S
H440 C433 0.961 . S
H441 C433 0.960 . S
H442 C434 0.930 . S
H443 C435 0.929 . S
H444 C452 0.929 . S
H445 C454 0.930 . S
H446 C456 0.930 . S
H447 C459 0.929 . S
H448 C462 0.930 . S
H449 C464 0.960 1_545 S
H450 C464 0.960 . S
H451 C464 0.960 . S
C452 H444 0.929 . S
C452 C453 1.377 . S
C452 C454 1.384 . S
C453 C452 1.377 . S
C453 C459 1.390 . S
C454 H445 0.930 . S
C454 C452 1.384 . S
C454 C455 1.372 . S
C455 C454 1.372 . S
C455 C456 1.400 . S
C455 C460 1.490 . S
C456 H446 0.930 . S
C456 C455 1.400 . S
C456 C459 1.386 . S
H457 C473 0.930 . S
H458 C474 0.931 . S
C459 H447 0.929 . S
C459 C453 1.390 . S
C459 C456 1.386 . S
C460 C455 1.490 . S
C460 C462 1.395 . S
C460 C463 1.403 . S
H461 C467 0.930 . S
C462 H448 0.930 . S
C462 C460 1.395 . S
C462 C465 1.403 1_565 S
C463 C460 1.403 . S
C463 C464 1.524 . S
C463 C467 1.400 1_565 S
C464 H449 0.960 1_565 S
C464 H450 0.960 . S
C464 H451 0.960 . S
C464 C463 1.524 . S
C465 C462 1.403 1_545 S
C465 C466 1.392 . S
C465 C469 1.495 . S
C466 C465 1.392 . S
C466 C467 1.385 . S
C466 C468 1.478 . S
C467 H461 0.930 . S
C467 C463 1.400 1_545 S
C467 C466 1.385 . S
C468 C466 1.478 . S
C468 C470 1.381 . S
C468 C474 1.383 . S
C469 C465 1.495 . S
C469 H475 0.959 1_545 S
C469 H476 0.961 . S
C469 H477 0.960 . S
C470 C468 1.381 . S
C470 C471 1.394 . S
C470 H478 0.930 . S
C471 C470 1.394 . S
C471 C472 1.383 . S
C471 H479 0.929 . S
C472 C471 1.383 . S
C472 C473 1.377 . S
C473 H457 0.930 . S
C473 C472 1.377 . S
C473 C474 1.379 . S
C474 H458 0.931 . S
C474 C468 1.383 . S
C474 C473 1.379 . S
H475 C469 0.959 1_565 S
H476 C469 0.961 . S
H477 C469 0.960 . S
H478 C470 0.930 . S
H479 C471 0.929 . S
H480 C488 0.929 . S
H481 C490 0.930 . S
H482 C492 0.930 . S
H483 C495 0.929 . S
H484 C498 0.930 . S
H485 C500 0.960 . S
H486 C500 0.960 . S
H487 C500 0.960 . S
C488 H480 0.929 . S
C488 C489 1.377 . S
C488 C490 1.384 . S
C489 C488 1.377 . S
C489 C495 1.390 . S
C490 H481 0.930 . S
C490 C488 1.384 . S
C490 C491 1.372 . S
C491 C490 1.372 . S
C491 C492 1.400 . S
C491 C496 1.490 . S
C492 H482 0.930 . S
C492 C491 1.400 . S
C492 C495 1.386 . S
H493 C509 0.930 . S
H494 C510 0.931 . S
C495 H483 0.929 . S
C495 C489 1.390 . S
C495 C492 1.386 . S
C496 C491 1.490 . S
C496 C498 1.395 . S
C496 C499 1.403 . S
H497 C503 0.930 . S
C498 H484 0.930 . S
C498 C496 1.395 . S
C498 C501 1.403 . S
C499 C496 1.403 . S
C499 C500 1.524 . S
C499 C503 1.400 . S
C500 H485 0.960 . S
C500 H486 0.960 . S
C500 H487 0.960 . S
C500 C499 1.524 . S
C501 C498 1.403 . S
C501 C502 1.392 . S
C501 C505 1.495 . S
C502 C501 1.392 . S
C502 C503 1.385 . S
C502 C504 1.478 . S
C503 H497 0.930 . S
C503 C499 1.400 . S
C503 C502 1.385 . S
C504 C502 1.478 . S
C504 C506 1.381 . S
C504 C510 1.383 . S
C505 C501 1.495 . S
C505 H511 0.959 . S
C505 H512 0.961 . S
C505 H513 0.960 . S
C506 C504 1.381 . S
C506 C507 1.394 . S
C506 H514 0.930 . S
C507 C506 1.394 . S
C507 C508 1.383 . S
C507 H515 0.929 . S
C508 C507 1.383 . S
C508 C509 1.377 . S
C509 H493 0.930 . S
C509 C508 1.377 . S
C509 C510 1.379 . S
C510 H494 0.931 . S
C510 C504 1.383 . S
C510 C509 1.379 . S
H511 C505 0.959 . S
H512 C505 0.961 . S
H513 C505 0.960 . S
H514 C506 0.930 . S
H515 C507 0.929 . S
H516 C524 0.929 . S
H517 C526 0.930 . S
H518 C528 0.930 . S
H519 C531 0.929 . S
H520 C534 0.930 . S
H521 C536 0.960 . S
H522 C536 0.960 . S
H523 C536 0.960 . S
C524 H516 0.929 . S
C524 C525 1.377 . S
C524 C526 1.384 . S
C525 C524 1.377 . S
C525 C531 1.390 . S
C526 H517 0.930 . S
C526 C524 1.384 . S
C526 C527 1.372 . S
C527 C526 1.372 . S
C527 C528 1.400 . S
C527 C532 1.490 . S
C528 H518 0.930 . S
C528 C527 1.400 . S
C528 C531 1.386 . S
H529 C545 0.930 . S
H530 C546 0.931 . S
C531 H519 0.929 . S
C531 C525 1.390 . S
C531 C528 1.386 . S
C532 C527 1.490 . S
C532 C534 1.395 . S
C532 C535 1.403 . S
H533 C539 0.930 . S
C534 H520 0.930 . S
C534 C532 1.395 . S
C534 C537 1.403 1_455 S
C535 C532 1.403 . S
C535 C536 1.524 . S
C535 C539 1.400 1_455 S
C536 H521 0.960 . S
C536 H522 0.960 . S
C536 H523 0.960 . S
C536 C535 1.524 . S
C537 C534 1.403 1_655 S
C537 C538 1.392 . S
C537 C541 1.495 . S
C538 C537 1.392 . S
C538 C539 1.385 . S
C538 C540 1.478 . S
C539 H533 0.930 . S
C539 C535 1.400 1_655 S
C539 C538 1.385 . S
C540 C538 1.478 . S
C540 C542 1.381 . S
C540 C546 1.383 . S
C541 C537 1.495 . S
C541 H547 0.959 . S
C541 H548 0.961 . S
C541 H549 0.960 . S
C542 C540 1.381 . S
C542 C543 1.394 . S
C542 H550 0.930 . S
C543 C542 1.394 . S
C543 C544 1.383 . S
C543 H551 0.929 . S
C544 C543 1.383 . S
C544 C545 1.377 . S
C545 H529 0.930 . S
C545 C544 1.377 . S
C545 C546 1.379 . S
C546 H530 0.931 . S
C546 C540 1.383 . S
C546 C545 1.379 . S
H547 C541 0.959 . S
H548 C541 0.961 . S
H549 C541 0.960 . S
H550 C542 0.930 . S
H551 C543 0.929 . S
H552 C560 0.929 . S
H553 C562 0.930 . S
H554 C564 0.930 . S
H555 C567 0.929 . S
H556 C570 0.930 . S
H557 C572 0.960 1_545 S
H558 C572 0.960 . S
H559 C572 0.960 . S
C560 H552 0.929 . S
C560 C561 1.377 . S
C560 C562 1.384 . S
C561 C560 1.377 . S
C561 C567 1.390 . S
C562 H553 0.930 . S
C562 C560 1.384 . S
C562 C563 1.372 . S
C563 C562 1.372 . S
C563 C564 1.400 . S
C563 C568 1.490 . S
C564 H554 0.930 . S
C564 C563 1.400 . S
C564 C567 1.386 . S
H565 C581 0.930 . S
H566 C582 0.931 . S
C567 H555 0.929 . S
C567 C561 1.390 . S
C567 C564 1.386 . S
C568 C563 1.490 . S
C568 C570 1.395 . S
C568 C571 1.403 . S
H569 C575 0.930 . S
C570 H556 0.930 . S
C570 C568 1.395 . S
C570 C573 1.403 1_565 S
C571 C568 1.403 . S
C571 C572 1.524 . S
C571 C575 1.400 1_565 S
C572 H557 0.960 1_565 S
C572 H558 0.960 . S
C572 H559 0.960 . S
C572 C571 1.524 . S
C573 C570 1.403 1_545 S
C573 C574 1.392 . S
C573 C577 1.495 . S
C574 C573 1.392 . S
C574 C575 1.385 . S
C574 C576 1.478 . S
C575 H569 0.930 . S
C575 C571 1.400 1_545 S
C575 C574 1.385 . S
C576 C574 1.478 . S
C576 C578 1.381 . S
C576 C582 1.383 . S
C577 C573 1.495 . S
C577 H583 0.959 1_545 S
C577 H584 0.961 . S
C577 H585 0.960 . S
C578 C576 1.381 . S
C578 C579 1.394 . S
C578 H586 0.930 . S
C579 C578 1.394 . S
C579 C580 1.383 . S
C579 H587 0.929 . S
C580 C579 1.383 . S
C580 C581 1.377 . S
C581 H565 0.930 . S
C581 C580 1.377 . S
C581 C582 1.379 . S
C582 H566 0.931 . S
C582 C576 1.383 . S
C582 C581 1.379 . S
H583 C577 0.959 1_565 S
H584 C577 0.961 . S
H585 C577 0.960 . S
H586 C578 0.930 . S
H587 C579 0.929 . S
H588 C596 0.929 . S
H589 C598 0.930 . S
H590 C600 0.930 . S
H591 C603 0.929 . S
H592 C606 0.930 . S
H593 C608 0.960 . S
H594 C608 0.960 . S
H595 C608 0.960 . S
C596 H588 0.929 . S
C596 C597 1.377 . S
C596 C598 1.384 . S
C597 C596 1.377 . S
C597 C603 1.390 . S
C598 H589 0.930 . S
C598 C596 1.384 . S
C598 C599 1.372 . S
C599 C598 1.372 . S
C599 C600 1.400 . S
C599 C604 1.490 . S
C600 H590 0.930 . S
C600 C599 1.400 . S
C600 C603 1.386 . S
H601 C617 0.930 . S
H602 C618 0.931 . S
C603 H591 0.929 . S
C603 C597 1.390 . S
C603 C600 1.386 . S
C604 C599 1.490 . S
C604 C606 1.395 . S
C604 C607 1.403 . S
H605 C611 0.930 . S
C606 H592 0.930 . S
C606 C604 1.395 . S
C606 C609 1.403 . S
C607 C604 1.403 . S
C607 C608 1.524 . S
C607 C611 1.400 . S
C608 H593 0.960 . S
C608 H594 0.960 . S
C608 H595 0.960 . S
C608 C607 1.524 . S
C609 C606 1.403 . S
C609 C610 1.392 . S
C609 C613 1.495 . S
C610 C609 1.392 . S
C610 C611 1.385 . S
C610 C612 1.478 . S
C611 H605 0.930 . S
C611 C607 1.400 . S
C611 C610 1.385 . S
C612 C610 1.478 . S
C612 C614 1.381 . S
C612 C618 1.383 . S
C613 C609 1.495 . S
C613 H619 0.959 . S
C613 H620 0.961 . S
C613 H621 0.960 . S
C614 C612 1.381 . S
C614 C615 1.394 . S
C614 H622 0.930 . S
C615 C614 1.394 . S
C615 C616 1.383 . S
C615 H623 0.929 . S
C616 C615 1.383 . S
C616 C617 1.377 . S
C617 H601 0.930 . S
C617 C616 1.377 . S
C617 C618 1.379 . S
C618 H602 0.931 . S
C618 C612 1.383 . S
C618 C617 1.379 . S
H619 C613 0.959 . S
H620 C613 0.961 . S
H621 C613 0.960 . S
H622 C614 0.930 . S
H623 C615 0.929 . S
H624 C632 0.929 . S
H625 C634 0.930 . S
H626 C636 0.930 . S
H627 C639 0.929 . S
H628 C642 0.930 . S
H629 C644 0.960 1_455 S
H630 C644 0.960 . S
H631 C644 0.960 . S
C632 H624 0.929 . S
C632 C633 1.377 . S
C632 C634 1.384 . S
C633 C632 1.377 . S
C633 C639 1.390 . S
C634 H625 0.930 . S
C634 C632 1.384 . S
C634 C635 1.372 . S
C635 C634 1.372 . S
C635 C636 1.400 . S
C635 C640 1.490 . S
C636 H626 0.930 . S
C636 C635 1.400 . S
C636 C639 1.386 . S
H637 C653 0.930 . S
H638 C654 0.931 . S
C639 H627 0.929 . S
C639 C633 1.390 . S
C639 C636 1.386 . S
C640 C635 1.490 . S
C640 C642 1.395 . S
C640 C643 1.403 . S
H641 C647 0.930 . S
C642 H628 0.930 . S
C642 C640 1.395 . S
C642 C645 1.403 1_655 S
C643 C640 1.403 . S
C643 C644 1.524 . S
C643 C647 1.400 1_655 S
C644 H629 0.960 1_655 S
C644 H630 0.960 . S
C644 H631 0.960 . S
C644 C643 1.524 . S
C645 C642 1.403 1_455 S
C645 C646 1.392 . S
C645 C649 1.495 . S
C646 C645 1.392 . S
C646 C647 1.385 . S
C646 C648 1.478 . S
C647 H641 0.930 . S
C647 C643 1.400 1_455 S
C647 C646 1.385 . S
C648 C646 1.478 . S
C648 C650 1.381 . S
C648 C654 1.383 . S
C649 C645 1.495 . S
C649 H655 0.959 1_455 S
C649 H656 0.961 . S
C649 H657 0.960 . S
C650 C648 1.381 . S
C650 C651 1.394 . S
C650 H658 0.930 . S
C651 C650 1.394 . S
C651 C652 1.383 . S
C651 H659 0.929 . S
C652 C651 1.383 . S
C652 C653 1.377 . S
C653 H637 0.930 . S
C653 C652 1.377 . S
C653 C654 1.379 . S
C654 H638 0.931 . S
C654 C648 1.383 . S
C654 C653 1.379 . S
H655 C649 0.959 1_655 S
H656 C649 0.961 . S
H657 C649 0.960 . S
H658 C650 0.930 . S
H659 C651 0.929 . S
H660 C668 0.929 . S
H661 C670 0.930 . S
H662 C672 0.930 . S
H663 C675 0.929 . S
H664 C678 0.930 . S
H665 C680 0.960 . S
H666 C680 0.960 . S
H667 C680 0.960 . S
C668 H660 0.929 . S
C668 C669 1.377 . S
C668 C670 1.384 . S
C669 C668 1.377 . S
C669 C675 1.390 . S
C670 H661 0.930 . S
C670 C668 1.384 . S
C670 C671 1.372 . S
C671 C670 1.372 . S
C671 C672 1.400 . S
C671 C676 1.490 . S
C672 H662 0.930 . S
C672 C671 1.400 . S
C672 C675 1.386 . S
H673 C689 0.930 . S
H674 C690 0.931 . S
C675 H663 0.929 . S
C675 C669 1.390 . S
C675 C672 1.386 . S
C676 C671 1.490 . S
C676 C678 1.395 . S
C676 C679 1.403 . S
H677 C683 0.930 . S
C678 H664 0.930 . S
C678 C676 1.395 . S
C678 C681 1.403 1_545 S
C679 C676 1.403 . S
C679 C680 1.524 . S
C679 C683 1.400 1_545 S
C680 H665 0.960 . S
C680 H666 0.960 . S
C680 H667 0.960 . S
C680 C679 1.524 . S
C681 C678 1.403 1_565 S
C681 C682 1.392 . S
C681 C685 1.495 . S
C682 C681 1.392 . S
C682 C683 1.385 . S
C682 C684 1.478 . S
C683 H677 0.930 . S
C683 C679 1.400 1_565 S
C683 C682 1.385 . S
C684 C682 1.478 . S
C684 C686 1.381 . S
C684 C690 1.383 . S
C685 C681 1.495 . S
C685 H691 0.959 . S
C685 H692 0.961 . S
C685 H693 0.960 . S
C686 C684 1.381 . S
C686 C687 1.394 . S
C686 H694 0.930 . S
C687 C686 1.394 . S
C687 C688 1.383 . S
C687 H695 0.929 . S
C688 C687 1.383 . S
C688 C689 1.377 . S
C689 H673 0.930 . S
C689 C688 1.377 . S
C689 C690 1.379 . S
C690 H674 0.931 . S
C690 C684 1.383 . S
C690 C689 1.379 . S
H691 C685 0.959 . S
H692 C685 0.961 . S
H693 C685 0.960 . S
H694 C686 0.930 . S
H695 C687 0.929 . S
H696 C704 0.929 . S
H697 C706 0.930 . S
H698 C708 0.930 . S
H699 C711 0.929 . S
H700 C714 0.930 . S
H701 C716 0.960 . S
H702 C716 0.960 . S
H703 C716 0.960 . S
C704 H696 0.929 . S
C704 C705 1.377 . S
C704 C706 1.384 . S
C705 C704 1.377 . S
C705 C711 1.390 . S
C706 H697 0.930 . S
C706 C704 1.384 . S
C706 C707 1.372 . S
C707 C706 1.372 . S
C707 C708 1.400 . S
C707 C712 1.490 . S
C708 H698 0.930 . S
C708 C707 1.400 . S
C708 C711 1.386 . S
H709 C725 0.930 . S
H710 C726 0.931 . S
C711 H699 0.929 . S
C711 C705 1.390 . S
C711 C708 1.386 . S
C712 C707 1.490 . S
C712 C714 1.395 . S
C712 C715 1.403 . S
H713 C719 0.930 . S
C714 H700 0.930 . S
C714 C712 1.395 . S
C714 C717 1.403 . S
C715 C712 1.403 . S
C715 C716 1.524 . S
C715 C719 1.400 . S
C716 H701 0.960 . S
C716 H702 0.960 . S
C716 H703 0.960 . S
C716 C715 1.524 . S
C717 C714 1.403 . S
C717 C718 1.392 . S
C717 C721 1.495 . S
C718 C717 1.392 . S
C718 C719 1.385 . S
C718 C720 1.478 . S
C719 H713 0.930 . S
C719 C715 1.400 . S
C719 C718 1.385 . S
C720 C718 1.478 . S
C720 C722 1.381 . S
C720 C726 1.383 . S
C721 C717 1.495 . S
C721 H727 0.959 . S
C721 H728 0.961 . S
C721 H729 0.960 . S
C722 C720 1.381 . S
C722 C723 1.394 . S
C722 H730 0.930 . S
C723 C722 1.394 . S
C723 C724 1.383 . S
C723 H731 0.929 . S
C724 C723 1.383 . S
C724 C725 1.377 . S
C725 H709 0.930 . S
C725 C724 1.377 . S
C725 C726 1.379 . S
C726 H710 0.931 . S
C726 C720 1.383 . S
C726 C725 1.379 . S
H727 C721 0.959 . S
H728 C721 0.961 . S
H729 C721 0.960 . S
H730 C722 0.930 . S
H731 C723 0.929 . S
H732 C740 0.929 . S
H733 C742 0.930 . S
H734 C744 0.930 . S
H735 C747 0.929 . S
H736 C750 0.930 . S
H737 C752 0.960 . S
H738 C752 0.960 . S
H739 C752 0.960 . S
C740 H732 0.929 . S
C740 C741 1.377 . S
C740 C742 1.384 . S
C741 C740 1.377 . S
C741 C747 1.390 . S
C742 H733 0.930 . S
C742 C740 1.384 . S
C742 C743 1.372 . S
C743 C742 1.372 . S
C743 C744 1.400 . S
C743 C748 1.490 . S
C744 H734 0.930 . S
C744 C743 1.400 . S
C744 C747 1.386 . S
H745 C761 0.930 . S
H746 C762 0.931 . S
C747 H735 0.929 . S
C747 C741 1.390 . S
C747 C744 1.386 . S
C748 C743 1.490 . S
C748 C750 1.395 . S
C748 C751 1.403 . S
H749 C755 0.930 . S
C750 H736 0.930 . S
C750 C748 1.395 . S
C750 C753 1.403 1_455 S
C751 C748 1.403 . S
C751 C752 1.524 . S
C751 C755 1.400 1_455 S
C752 H737 0.960 . S
C752 H738 0.960 . S
C752 H739 0.960 . S
C752 C751 1.524 . S
C753 C750 1.403 1_655 S
C753 C754 1.392 . S
C753 C757 1.495 . S
C754 C753 1.392 . S
C754 C755 1.385 . S
C754 C756 1.478 . S
C755 H749 0.930 . S
C755 C751 1.400 1_655 S
C755 C754 1.385 . S
C756 C754 1.478 . S
C756 C758 1.381 . S
C756 C762 1.383 . S
C757 C753 1.495 . S
C757 H763 0.959 . S
C757 H764 0.961 . S
C757 H765 0.960 . S
C758 C756 1.381 . S
C758 C759 1.394 . S
C758 H766 0.930 . S
C759 C758 1.394 . S
C759 C760 1.383 . S
C759 H767 0.929 . S
C760 C759 1.383 . S
C760 C761 1.377 . S
C761 H745 0.930 . S
C761 C760 1.377 . S
C761 C762 1.379 . S
C762 H746 0.931 . S
C762 C756 1.383 . S
C762 C761 1.379 . S
H763 C757 0.959 . S
H764 C757 0.961 . S
H765 C757 0.960 . S
H766 C758 0.930 . S
H767 C759 0.929 . S
H768 C776 0.929 . S
H769 C778 0.930 . S
H770 C780 0.930 . S
H771 C783 0.929 . S
H772 C786 0.930 . S
H773 C788 0.960 . S
H774 C788 0.960 . S
H775 C788 0.960 . S
C776 H768 0.929 . S
C776 C777 1.377 . S
C776 C778 1.384 . S
C777 C776 1.377 . S
C777 C783 1.390 . S
C778 H769 0.930 . S
C778 C776 1.384 . S
C778 C779 1.372 . S
C779 C778 1.372 . S
C779 C780 1.400 . S
C779 C784 1.490 . S
C780 H770 0.930 . S
C780 C779 1.400 . S
C780 C783 1.386 . S
H781 C797 0.930 . S
H782 C798 0.931 . S
C783 H771 0.929 . S
C783 C777 1.390 . S
C783 C780 1.386 . S
C784 C779 1.490 . S
C784 C786 1.395 . S
C784 C787 1.403 . S
H785 C791 0.930 . S
C786 H772 0.930 . S
C786 C784 1.395 . S
C786 C789 1.403 . S
C787 C784 1.403 . S
C787 C788 1.524 . S
C787 C791 1.400 . S
C788 H773 0.960 . S
C788 H774 0.960 . S
C788 H775 0.960 . S
C788 C787 1.524 . S
C789 C786 1.403 . S
C789 C790 1.392 . S
C789 C793 1.495 . S
C790 C789 1.392 . S
C790 C791 1.385 . S
C790 C792 1.478 . S
C791 H785 0.930 . S
C791 C787 1.400 . S
C791 C790 1.385 . S
C792 C790 1.478 . S
C792 C794 1.381 . S
C792 C798 1.383 . S
C793 C789 1.495 . S
C793 H799 0.959 . S
C793 H800 0.961 . S
C793 H801 0.960 . S
C794 C792 1.381 . S
C794 C795 1.394 . S
C794 H802 0.930 . S
C795 C794 1.394 . S
C795 C796 1.383 . S
C795 H803 0.929 . S
C796 C795 1.383 . S
C796 C797 1.377 . S
C797 H781 0.930 . S
C797 C796 1.377 . S
C797 C798 1.379 . S
C798 H782 0.931 . S
C798 C792 1.383 . S
C798 C797 1.379 . S
H799 C793 0.959 . S
H800 C793 0.961 . S
H801 C793 0.960 . S
H802 C794 0.930 . S
H803 C795 0.929 . S
H804 C812 0.929 . S
H805 C814 0.930 . S
H806 C816 0.930 . S
H807 C819 0.929 . S
H808 C822 0.930 . S
H809 C824 0.960 . S
H810 C824 0.960 . S
H811 C824 0.960 . S
C812 H804 0.929 . S
C812 C813 1.377 . S
C812 C814 1.384 . S
C813 C812 1.377 . S
C813 C819 1.390 . S
C814 H805 0.930 . S
C814 C812 1.384 . S
C814 C815 1.372 . S
C815 C814 1.372 . S
C815 C816 1.400 . S
C815 C820 1.490 . S
C816 H806 0.930 . S
C816 C815 1.400 . S
C816 C819 1.386 . S
H817 C833 0.930 . S
H818 C834 0.931 . S
C819 H807 0.929 . S
C819 C813 1.390 . S
C819 C816 1.386 . S
C820 C815 1.490 . S
C820 C822 1.395 . S
C820 C823 1.403 . S
H821 C827 0.930 . S
C822 H808 0.930 . S
C822 C820 1.395 . S
C822 C825 1.403 . S
C823 C820 1.403 . S
C823 C824 1.524 . S
C823 C827 1.400 . S
C824 H809 0.960 . S
C824 H810 0.960 . S
C824 H811 0.960 . S
C824 C823 1.524 . S
C825 C822 1.403 . S
C825 C826 1.392 . S
C825 C829 1.495 . S
C826 C825 1.392 . S
C826 C827 1.385 . S
C826 C828 1.478 . S
C827 H821 0.930 . S
C827 C823 1.400 . S
C827 C826 1.385 . S
C828 C826 1.478 . S
C828 C830 1.381 . S
C828 C834 1.383 . S
C829 C825 1.495 . S
C829 H835 0.959 . S
C829 H836 0.961 . S
C829 H837 0.960 . S
C830 C828 1.381 . S
C830 C831 1.394 . S
C830 H838 0.930 . S
C831 C830 1.394 . S
C831 C832 1.383 . S
C831 H839 0.929 . S
C832 C831 1.383 . S
C832 C833 1.377 . S
C833 H817 0.930 . S
C833 C832 1.377 . S
C833 C834 1.379 . S
C834 H818 0.931 . S
C834 C828 1.383 . S
C834 C833 1.379 . S
H835 C829 0.959 . S
H836 C829 0.961 . S
H837 C829 0.960 . S
H838 C830 0.930 . S
H839 C831 0.929 . S
H840 C848 0.929 . S
H841 C850 0.930 . S
H842 C852 0.930 . S
H843 C855 0.929 . S
H844 C858 0.930 . S
H845 C860 0.960 . S
H846 C860 0.960 . S
H847 C860 0.960 . S
C848 H840 0.929 . S
C848 C849 1.377 . S
C848 C850 1.384 . S
C849 C848 1.377 . S
C849 C855 1.390 . S
C850 H841 0.930 . S
C850 C848 1.384 . S
C850 C851 1.372 . S
C851 C850 1.372 . S
C851 C852 1.400 . S
C851 C856 1.490 . S
C852 H842 0.930 . S
C852 C851 1.400 . S
C852 C855 1.386 . S
H853 C869 0.930 . S
H854 C870 0.931 . S
C855 H843 0.929 . S
C855 C849 1.390 . S
C855 C852 1.386 . S
C856 C851 1.490 . S
C856 C858 1.395 . S
C856 C859 1.403 . S
H857 C863 0.930 . S
C858 H844 0.930 . S
C858 C856 1.395 . S
C858 C861 1.403 . S
C859 C856 1.403 . S
C859 C860 1.524 . S
C859 C863 1.400 . S
C860 H845 0.960 . S
C860 H846 0.960 . S
C860 H847 0.960 . S
C860 C859 1.524 . S
C861 C858 1.403 . S
C861 C862 1.392 . S
C861 C865 1.495 . S
C862 C861 1.392 . S
C862 C863 1.385 . S
C862 C864 1.478 . S
C863 H857 0.930 . S
C863 C859 1.400 . S
C863 C862 1.385 . S
C864 C862 1.478 . S
C864 C866 1.381 . S
C864 C870 1.383 . S
C865 C861 1.495 . S
C865 H871 0.959 . S
C865 H872 0.961 . S
C865 H873 0.960 . S
C866 C864 1.381 . S
C866 C867 1.394 . S
C866 H874 0.930 . S
C867 C866 1.394 . S
C867 C868 1.383 . S
C867 H875 0.929 . S
C868 C867 1.383 . S
C868 C869 1.377 . S
C869 H853 0.930 . S
C869 C868 1.377 . S
C869 C870 1.379 . S
C870 H854 0.931 . S
C870 C864 1.383 . S
C870 C869 1.379 . S
H871 C865 0.959 . S
H872 C865 0.961 . S
H873 C865 0.960 . S
H874 C866 0.930 . S
H875 C867 0.929 . S
H876 C884 0.929 . S
H877 C886 0.930 . S
H878 C888 0.930 . S
H879 C891 0.929 . S
H880 C894 0.930 . S
H881 C896 0.960 . S
H882 C896 0.960 . S
H883 C896 0.960 . S
C884 H876 0.929 . S
C884 C885 1.377 . S
C884 C886 1.384 . S
C885 C884 1.377 . S
C885 C891 1.390 . S
C886 H877 0.930 . S
C886 C884 1.384 . S
C886 C887 1.372 . S
C887 C886 1.372 . S
C887 C888 1.400 . S
C887 C892 1.490 . S
C888 H878 0.930 . S
C888 C887 1.400 . S
C888 C891 1.386 . S
H889 C905 0.930 . S
H890 C906 0.931 . S
C891 H879 0.929 . S
C891 C885 1.390 . S
C891 C888 1.386 . S
C892 C887 1.490 . S
C892 C894 1.395 . S
C892 C895 1.403 . S
H893 C899 0.930 . S
C894 H880 0.930 . S
C894 C892 1.395 . S
C894 C897 1.403 . S
C895 C892 1.403 . S
C895 C896 1.524 . S
C895 C899 1.400 . S
C896 H881 0.960 . S
C896 H882 0.960 . S
C896 H883 0.960 . S
C896 C895 1.524 . S
C897 C894 1.403 . S
C897 C898 1.392 . S
C897 C901 1.495 . S
C898 C897 1.392 . S
C898 C899 1.385 . S
C898 C900 1.478 . S
C899 H893 0.930 . S
C899 C895 1.400 . S
C899 C898 1.385 . S
C900 C898 1.478 . S
C900 C902 1.381 . S
C900 C906 1.383 . S
C901 C897 1.495 . S
C901 H907 0.959 . S
C901 H908 0.961 . S
C901 H909 0.960 . S
C902 C900 1.381 . S
C902 C903 1.394 . S
C902 H910 0.930 . S
C903 C902 1.394 . S
C903 C904 1.383 . S
C903 H911 0.929 . S
C904 C903 1.383 . S
C904 C905 1.377 . S
C905 H889 0.930 . S
C905 C904 1.377 . S
C905 C906 1.379 . S
C906 H890 0.931 . S
C906 C900 1.383 . S
C906 C905 1.379 . S
H907 C901 0.959 . S
H908 C901 0.961 . S
H909 C901 0.960 . S
H910 C902 0.930 . S
H911 C903 0.929 . S
H912 C920 0.929 . S
H913 C922 0.930 . S
H914 C924 0.930 . S
H915 C927 0.929 . S
H916 C930 0.930 . S
H917 C932 0.960 . S
H918 C932 0.960 . S
H919 C932 0.960 . S
C920 H912 0.929 . S
C920 C921 1.377 . S
C920 C922 1.384 . S
C921 C920 1.377 . S
C921 C927 1.390 . S
C922 H913 0.930 . S
C922 C920 1.384 . S
C922 C923 1.372 . S
C923 C922 1.372 . S
C923 C924 1.400 . S
C923 C928 1.490 . S
C924 H914 0.930 . S
C924 C923 1.400 . S
C924 C927 1.386 . S
H925 C941 0.930 . S
H926 C942 0.931 . S
C927 H915 0.929 . S
C927 C921 1.390 . S
C927 C924 1.386 . S
C928 C923 1.490 . S
C928 C930 1.395 . S
C928 C931 1.403 . S
H929 C935 0.930 . S
C930 H916 0.930 . S
C930 C928 1.395 . S
C930 C933 1.403 . S
C931 C928 1.403 . S
C931 C932 1.524 . S
C931 C935 1.400 . S
C932 H917 0.960 . S
C932 H918 0.960 . S
C932 H919 0.960 . S
C932 C931 1.524 . S
C933 C930 1.403 . S
C933 C934 1.392 . S
C933 C937 1.495 . S
C934 C933 1.392 . S
C934 C935 1.385 . S
C934 C936 1.478 . S
C935 H929 0.930 . S
C935 C931 1.400 . S
C935 C934 1.385 . S
C936 C934 1.478 . S
C936 C938 1.381 . S
C936 C942 1.383 . S
C937 C933 1.495 . S
C937 H943 0.959 . S
C937 H944 0.961 . S
C937 H945 0.960 . S
C938 C936 1.381 . S
C938 C939 1.394 . S
C938 H946 0.930 . S
C939 C938 1.394 . S
C939 C940 1.383 . S
C939 H947 0.929 . S
C940 C939 1.383 . S
C940 C941 1.377 . S
C941 H925 0.930 . S
C941 C940 1.377 . S
C941 C942 1.379 . S
C942 H926 0.931 . S
C942 C936 1.383 . S
C942 C941 1.379 . S
H943 C937 0.959 . S
H944 C937 0.961 . S
H945 C937 0.960 . S
H946 C938 0.930 . S
H947 C939 0.929 . S
H948 C956 0.929 . S
H949 C958 0.930 . S
H950 C960 0.930 . S
H951 C963 0.929 . S
H952 C966 0.930 . S
H953 C968 0.960 . S
H954 C968 0.960 . S
H955 C968 0.960 . S
C956 H948 0.929 . S
C956 C957 1.377 . S
C956 C958 1.384 . S
C957 C956 1.377 . S
C957 C963 1.390 . S
C958 H949 0.930 . S
C958 C956 1.384 . S
C958 C959 1.372 . S
C959 C958 1.372 . S
C959 C960 1.400 . S
C959 C964 1.490 . S
C960 H950 0.930 . S
C960 C959 1.400 . S
C960 C963 1.386 . S
H961 C977 0.930 . S
H962 C978 0.931 . S
C963 H951 0.929 . S
C963 C957 1.390 . S
C963 C960 1.386 . S
C964 C959 1.490 . S
C964 C966 1.395 . S
C964 C967 1.403 . S
H965 C971 0.930 . S
C966 H952 0.930 . S
C966 C964 1.395 . S
C966 C969 1.403 . S
C967 C964 1.403 . S
C967 C968 1.524 . S
C967 C971 1.400 . S
C968 H953 0.960 . S
C968 H954 0.960 . S
C968 H955 0.960 . S
C968 C967 1.524 . S
C969 C966 1.403 . S
C969 C970 1.392 . S
C969 C973 1.495 . S
C970 C969 1.392 . S
C970 C971 1.385 . S
C970 C972 1.478 . S
C971 H965 0.930 . S
C971 C967 1.400 . S
C971 C970 1.385 . S
C972 C970 1.478 . S
C972 C974 1.381 . S
C972 C978 1.383 . S
C973 C969 1.495 . S
C973 H979 0.959 . S
C973 H980 0.961 . S
C973 H981 0.960 . S
C974 C972 1.381 . S
C974 C975 1.394 . S
C974 H982 0.930 . S
C975 C974 1.394 . S
C975 C976 1.383 . S
C975 H983 0.929 . S
C976 C975 1.383 . S
C976 C977 1.377 . S
C977 H961 0.930 . S
C977 C976 1.377 . S
C977 C978 1.379 . S
C978 H962 0.931 . S
C978 C972 1.383 . S
C978 C977 1.379 . S
H979 C973 0.959 . S
H980 C973 0.961 . S
H981 C973 0.960 . S
H982 C974 0.930 . S
H983 C975 0.929 . S
H984 C992 0.929 . S
H985 C994 0.930 . S
H986 C996 0.930 . S
H987 C999 0.929 . S
H988 C1002 0.930 . S
H989 C1004 0.960 . S
H990 C1004 0.960 . S
H991 C1004 0.960 . S
C992 H984 0.929 . S
C992 C993 1.377 . S
C992 C994 1.384 . S
C993 C992 1.377 . S
C993 C999 1.390 . S
C994 H985 0.930 . S
C994 C992 1.384 . S
C994 C995 1.372 . S
C995 C994 1.372 . S
C995 C996 1.400 . S
C995 C1000 1.490 . S
C996 H986 0.930 . S
C996 C995 1.400 . S
C996 C999 1.386 . S
H997 C1013 0.930 . S
H998 C1014 0.931 . S
C999 H987 0.929 . S
C999 C993 1.390 . S
C999 C996 1.386 . S
C1000 C995 1.490 . S
C1000 C1002 1.395 . S
C1000 C1003 1.403 . S
H1001 C1007 0.930 . S
C1002 H988 0.930 . S
C1002 C1000 1.395 . S
C1002 C1005 1.403 . S
C1003 C1000 1.403 . S
C1003 C1004 1.524 . S
C1003 C1007 1.400 . S
C1004 H989 0.960 . S
C1004 H990 0.960 . S
C1004 H991 0.960 . S
C1004 C1003 1.524 . S
C1005 C1002 1.403 . S
C1005 C1006 1.392 . S
C1005 C1009 1.495 . S
C1006 C1005 1.392 . S
C1006 C1007 1.385 . S
C1006 C1008 1.478 . S
C1007 H1001 0.930 . S
C1007 C1003 1.400 . S
C1007 C1006 1.385 . S
C1008 C1006 1.478 . S
C1008 C1010 1.381 . S
C1008 C1014 1.383 . S
C1009 C1005 1.495 . S
C1009 H1015 0.959 . S
C1009 H1016 0.961 . S
C1009 H1017 0.960 . S
C1010 C1008 1.381 . S
C1010 C1011 1.394 . S
C1010 H1018 0.930 . S
C1011 C1010 1.394 . S
C1011 C1012 1.383 . S
C1011 H1019 0.929 . S
C1012 C1011 1.383 . S
C1012 C1013 1.377 . S
C1013 H997 0.930 . S
C1013 C1012 1.377 . S
C1013 C1014 1.379 . S
C1014 H998 0.931 . S
C1014 C1008 1.383 . S
C1014 C1013 1.379 . S
H1015 C1009 0.959 . S
H1016 C1009 0.961 . S
H1017 C1009 0.960 . S
H1018 C1010 0.930 . S
H1019 C1011 0.929 . S
H1020 C1028 0.929 . S
H1021 C1030 0.930 . S
H1022 C1032 0.930 . S
H1023 C1035 0.929 . S
H1024 C1038 0.930 . S
H1025 C1040 0.960 . S
H1026 C1040 0.960 . S
H1027 C1040 0.960 . S
C1028 H1020 0.929 . S
C1028 C1029 1.377 . S
C1028 C1030 1.384 . S
C1029 C1028 1.377 . S
C1029 C1035 1.390 . S
C1030 H1021 0.930 . S
C1030 C1028 1.384 . S
C1030 C1031 1.372 . S
C1031 C1030 1.372 . S
C1031 C1032 1.400 . S
C1031 C1036 1.490 . S
C1032 H1022 0.930 . S
C1032 C1031 1.400 . S
C1032 C1035 1.386 . S
H1033 C1049 0.930 . S
H1034 C1050 0.931 . S
C1035 H1023 0.929 . S
C1035 C1029 1.390 . S
C1035 C1032 1.386 . S
C1036 C1031 1.490 . S
C1036 C1038 1.395 . S
C1036 C1039 1.403 . S
H1037 C1043 0.930 . S
C1038 H1024 0.930 . S
C1038 C1036 1.395 . S
C1038 C1041 1.403 . S
C1039 C1036 1.403 . S
C1039 C1040 1.524 . S
C1039 C1043 1.400 . S
C1040 H1025 0.960 . S
C1040 H1026 0.960 . S
C1040 H1027 0.960 . S
C1040 C1039 1.524 . S
C1041 C1038 1.403 . S
C1041 C1042 1.392 . S
C1041 C1045 1.495 . S
C1042 C1041 1.392 . S
C1042 C1043 1.385 . S
C1042 C1044 1.478 . S
C1043 H1037 0.930 . S
C1043 C1039 1.400 . S
C1043 C1042 1.385 . S
C1044 C1042 1.478 . S
C1044 C1046 1.381 . S
C1044 C1050 1.383 . S
C1045 C1041 1.495 . S
C1045 H1051 0.959 . S
C1045 H1052 0.961 . S
C1045 H1053 0.960 . S
C1046 C1044 1.381 . S
C1046 C1047 1.394 . S
C1046 H1054 0.930 . S
C1047 C1046 1.394 . S
C1047 C1048 1.383 . S
C1047 H1055 0.929 . S
C1048 C1047 1.383 . S
C1048 C1049 1.377 . S
C1049 H1033 0.930 . S
C1049 C1048 1.377 . S
C1049 C1050 1.379 . S
C1050 H1034 0.931 . S
C1050 C1044 1.383 . S
C1050 C1049 1.379 . S
H1051 C1045 0.959 . S
H1052 C1045 0.961 . S
H1053 C1045 0.960 . S
H1054 C1046 0.930 . S
H1055 C1047 0.929 . S
H1056 C1064 0.929 . S
H1057 C1066 0.930 . S
H1058 C1068 0.930 . S
H1059 C1071 0.929 . S
H1060 C1074 0.930 . S
H1061 C1076 0.960 . S
H1062 C1076 0.960 . S
H1063 C1076 0.960 . S
C1064 H1056 0.929 . S
C1064 C1065 1.377 . S
C1064 C1066 1.384 . S
C1065 C1064 1.377 . S
C1065 C1071 1.390 . S
C1066 H1057 0.930 . S
C1066 C1064 1.384 . S
C1066 C1067 1.372 . S
C1067 C1066 1.372 . S
C1067 C1068 1.400 . S
C1067 C1072 1.490 . S
C1068 H1058 0.930 . S
C1068 C1067 1.400 . S
C1068 C1071 1.386 . S
H1069 C1085 0.930 . S
H1070 C1086 0.931 . S
C1071 H1059 0.929 . S
C1071 C1065 1.390 . S
C1071 C1068 1.386 . S
C1072 C1067 1.490 . S
C1072 C1074 1.395 . S
C1072 C1075 1.403 . S
H1073 C1079 0.930 . S
C1074 H1060 0.930 . S
C1074 C1072 1.395 . S
C1074 C1077 1.403 . S
C1075 C1072 1.403 . S
C1075 C1076 1.524 . S
C1075 C1079 1.400 . S
C1076 H1061 0.960 . S
C1076 H1062 0.960 . S
C1076 H1063 0.960 . S
C1076 C1075 1.524 . S
C1077 C1074 1.403 . S
C1077 C1078 1.392 . S
C1077 C1081 1.495 . S
C1078 C1077 1.392 . S
C1078 C1079 1.385 . S
C1078 C1080 1.478 . S
C1079 H1073 0.930 . S
C1079 C1075 1.400 . S
C1079 C1078 1.385 . S
C1080 C1078 1.478 . S
C1080 C1082 1.381 . S
C1080 C1086 1.383 . S
C1081 C1077 1.495 . S
C1081 H1087 0.959 . S
C1081 H1088 0.961 . S
C1081 H1089 0.960 . S
C1082 C1080 1.381 . S
C1082 C1083 1.394 . S
C1082 H1090 0.930 . S
C1083 C1082 1.394 . S
C1083 C1084 1.383 . S
C1083 H1091 0.929 . S
C1084 C1083 1.383 . S
C1084 C1085 1.377 . S
C1085 H1069 0.930 . S
C1085 C1084 1.377 . S
C1085 C1086 1.379 . S
C1086 H1070 0.931 . S
C1086 C1080 1.383 . S
C1086 C1085 1.379 . S
H1087 C1081 0.959 . S
H1088 C1081 0.961 . S
H1089 C1081 0.960 . S
H1090 C1082 0.930 . S
H1091 C1083 0.929 . S
H1092 C1100 0.929 . S
H1093 C1102 0.930 . S
H1094 C1104 0.930 . S
H1095 C1107 0.929 . S
H1096 C1110 0.930 . S
H1097 C1112 0.960 . S
H1098 C1112 0.960 . S
H1099 C1112 0.960 . S
C1100 H1092 0.929 . S
C1100 C1101 1.377 . S
C1100 C1102 1.384 . S
C1101 C1100 1.377 . S
C1101 C1107 1.390 . S
C1102 H1093 0.930 . S
C1102 C1100 1.384 . S
C1102 C1103 1.372 . S
C1103 C1102 1.372 . S
C1103 C1104 1.400 . S
C1103 C1108 1.490 . S
C1104 H1094 0.930 . S
C1104 C1103 1.400 . S
C1104 C1107 1.386 . S
H1105 C1121 0.930 . S
H1106 C1122 0.931 . S
C1107 H1095 0.929 . S
C1107 C1101 1.390 . S
C1107 C1104 1.386 . S
C1108 C1103 1.490 . S
C1108 C1110 1.395 . S
C1108 C1111 1.403 . S
H1109 C1115 0.930 . S
C1110 H1096 0.930 . S
C1110 C1108 1.395 . S
C1110 C1113 1.403 . S
C1111 C1108 1.403 . S
C1111 C1112 1.524 . S
C1111 C1115 1.400 . S
C1112 H1097 0.960 . S
C1112 H1098 0.960 . S
C1112 H1099 0.960 . S
C1112 C1111 1.524 . S
C1113 C1110 1.403 . S
C1113 C1114 1.392 . S
C1113 C1117 1.495 . S
C1114 C1113 1.392 . S
C1114 C1115 1.385 . S
C1114 C1116 1.478 . S
C1115 H1109 0.930 . S
C1115 C1111 1.400 . S
C1115 C1114 1.385 . S
C1116 C1114 1.478 . S
C1116 C1118 1.381 . S
C1116 C1122 1.383 . S
C1117 C1113 1.495 . S
C1117 H1123 0.959 . S
C1117 H1124 0.961 . S
C1117 H1125 0.960 . S
C1118 C1116 1.381 . S
C1118 C1119 1.394 . S
C1118 H1126 0.930 . S
C1119 C1118 1.394 . S
C1119 C1120 1.383 . S
C1119 H1127 0.929 . S
C1120 C1119 1.383 . S
C1120 C1121 1.377 . S
C1121 H1105 0.930 . S
C1121 C1120 1.377 . S
C1121 C1122 1.379 . S
C1122 H1106 0.931 . S
C1122 C1116 1.383 . S
C1122 C1121 1.379 . S
H1123 C1117 0.959 . S
H1124 C1117 0.961 . S
H1125 C1117 0.960 . S
H1126 C1118 0.930 . S
H1127 C1119 0.929 . S
H1128 C1136 0.929 . S
H1129 C1138 0.930 . S
H1130 C1140 0.930 . S
H1131 C1143 0.929 . S
H1132 C1146 0.930 . S
H1133 C1148 0.960 . S
H1134 C1148 0.960 . S
H1135 C1148 0.960 . S
C1136 H1128 0.929 . S
C1136 C1137 1.377 . S
C1136 C1138 1.384 . S
C1137 C1136 1.377 . S
C1137 C1143 1.390 . S
C1138 H1129 0.930 . S
C1138 C1136 1.384 . S
C1138 C1139 1.372 . S
C1139 C1138 1.372 . S
C1139 C1140 1.400 . S
C1139 C1144 1.490 . S
C1140 H1130 0.930 . S
C1140 C1139 1.400 . S
C1140 C1143 1.386 . S
H1141 C1157 0.930 . S
H1142 C1158 0.931 . S
C1143 H1131 0.929 . S
C1143 C1137 1.390 . S
C1143 C1140 1.386 . S
C1144 C1139 1.490 . S
C1144 C1146 1.395 . S
C1144 C1147 1.403 . S
H1145 C1151 0.930 . S
C1146 H1132 0.930 . S
C1146 C1144 1.395 . S
C1146 C1149 1.403 . S
C1147 C1144 1.403 . S
C1147 C1148 1.524 . S
C1147 C1151 1.400 . S
C1148 H1133 0.960 . S
C1148 H1134 0.960 . S
C1148 H1135 0.960 . S
C1148 C1147 1.524 . S
C1149 C1146 1.403 . S
C1149 C1150 1.392 . S
C1149 C1153 1.495 . S
C1150 C1149 1.392 . S
C1150 C1151 1.385 . S
C1150 C1152 1.478 . S
C1151 H1145 0.930 . S
C1151 C1147 1.400 . S
C1151 C1150 1.385 . S
C1152 C1150 1.478 . S
C1152 C1154 1.381 . S
C1152 C1158 1.383 . S
C1153 C1149 1.495 . S
C1153 H1159 0.959 . S
C1153 H1160 0.961 . S
C1153 H1161 0.960 . S
C1154 C1152 1.381 . S
C1154 C1155 1.394 . S
C1154 H1162 0.930 . S
C1155 C1154 1.394 . S
C1155 C1156 1.383 . S
C1155 H1163 0.929 . S
C1156 C1155 1.383 . S
C1156 C1157 1.377 . S
C1157 H1141 0.930 . S
C1157 C1156 1.377 . S
C1157 C1158 1.379 . S
C1158 H1142 0.931 . S
C1158 C1152 1.383 . S
C1158 C1157 1.379 . S
H1159 C1153 0.959 . S
H1160 C1153 0.961 . S
H1161 C1153 0.960 . S
H1162 C1154 0.930 . S
H1163 C1155 0.929 . S
H1164 C1172 0.929 . S
H1165 C1174 0.930 . S
H1166 C1176 0.930 . S
H1167 C1179 0.929 . S
H1168 C1182 0.930 . S
H1169 C1184 0.960 . S
H1170 C1184 0.960 . S
H1171 C1184 0.960 . S
C1172 H1164 0.929 . S
C1172 C1173 1.377 . S
C1172 C1174 1.384 . S
C1173 C1172 1.377 . S
C1173 C1179 1.390 . S
C1174 H1165 0.930 . S
C1174 C1172 1.384 . S
C1174 C1175 1.372 . S
C1175 C1174 1.372 . S
C1175 C1176 1.400 . S
C1175 C1180 1.490 . S
C1176 H1166 0.930 . S
C1176 C1175 1.400 . S
C1176 C1179 1.386 . S
H1177 C1193 0.930 . S
H1178 C1194 0.931 . S
C1179 H1167 0.929 . S
C1179 C1173 1.390 . S
C1179 C1176 1.386 . S
C1180 C1175 1.490 . S
C1180 C1182 1.395 . S
C1180 C1183 1.403 . S
H1181 C1187 0.930 . S
C1182 H1168 0.930 . S
C1182 C1180 1.395 . S
C1182 C1185 1.403 . S
C1183 C1180 1.403 . S
C1183 C1184 1.524 . S
C1183 C1187 1.400 . S
C1184 H1169 0.960 . S
C1184 H1170 0.960 . S
C1184 H1171 0.960 . S
C1184 C1183 1.524 . S
C1185 C1182 1.403 . S
C1185 C1186 1.392 . S
C1185 C1189 1.495 . S
C1186 C1185 1.392 . S
C1186 C1187 1.385 . S
C1186 C1188 1.478 . S
C1187 H1181 0.930 . S
C1187 C1183 1.400 . S
C1187 C1186 1.385 . S
C1188 C1186 1.478 . S
C1188 C1190 1.381 . S
C1188 C1194 1.383 . S
C1189 C1185 1.495 . S
C1189 H1195 0.959 . S
C1189 H1196 0.961 . S
C1189 H1197 0.960 . S
C1190 C1188 1.381 . S
C1190 C1191 1.394 . S
C1190 H1198 0.930 . S
C1191 C1190 1.394 . S
C1191 C1192 1.383 . S
C1191 H1199 0.929 . S
C1192 C1191 1.383 . S
C1192 C1193 1.377 . S
C1193 H1177 0.930 . S
C1193 C1192 1.377 . S
C1193 C1194 1.379 . S
C1194 H1178 0.931 . S
C1194 C1188 1.383 . S
C1194 C1193 1.379 . S
H1195 C1189 0.959 . S
H1196 C1189 0.961 . S
H1197 C1189 0.960 . S
H1198 C1190 0.930 . S
H1199 C1191 0.929 . S
H1200 C1208 0.929 . S
H1201 C1210 0.930 . S
H1202 C1212 0.930 . S
H1203 C1215 0.929 . S
H1204 C1218 0.930 . S
H1205 C1220 0.960 . S
H1206 C1220 0.960 . S
H1207 C1220 0.960 . S
C1208 H1200 0.929 . S
C1208 C1209 1.377 . S
C1208 C1210 1.384 . S
C1209 C1208 1.377 . S
C1209 C1215 1.390 . S
C1210 H1201 0.930 . S
C1210 C1208 1.384 . S
C1210 C1211 1.372 . S
C1211 C1210 1.372 . S
C1211 C1212 1.400 . S
C1211 C1216 1.490 . S
C1212 H1202 0.930 . S
C1212 C1211 1.400 . S
C1212 C1215 1.386 . S
H1213 C1229 0.930 . S
H1214 C1230 0.931 . S
C1215 H1203 0.929 . S
C1215 C1209 1.390 . S
C1215 C1212 1.386 . S
C1216 C1211 1.490 . S
C1216 C1218 1.395 . S
C1216 C1219 1.403 . S
H1217 C1223 0.930 . S
C1218 H1204 0.930 . S
C1218 C1216 1.395 . S
C1218 C1221 1.403 1_554 S
C1219 C1216 1.403 . S
C1219 C1220 1.524 . S
C1219 C1223 1.400 1_554 S
C1220 H1205 0.960 . S
C1220 H1206 0.960 . S
C1220 H1207 0.960 . S
C1220 C1219 1.524 . S
C1221 C1218 1.403 1_556 S
C1221 C1222 1.392 . S
C1221 C1225 1.495 . S
C1222 C1221 1.392 . S
C1222 C1223 1.385 . S
C1222 C1224 1.478 . S
C1223 H1217 0.930 . S
C1223 C1219 1.400 1_556 S
C1223 C1222 1.385 . S
C1224 C1222 1.478 . S
C1224 C1226 1.381 . S
C1224 C1230 1.383 . S
C1225 C1221 1.495 . S
C1225 H1231 0.959 . S
C1225 H1232 0.961 . S
C1225 H1233 0.960 . S
C1226 C1224 1.381 . S
C1226 C1227 1.394 . S
C1226 H1234 0.930 . S
C1227 C1226 1.394 . S
C1227 C1228 1.383 . S
C1227 H1235 0.929 . S
C1228 C1227 1.383 . S
C1228 C1229 1.377 . S
C1229 H1213 0.930 . S
C1229 C1228 1.377 . S
C1229 C1230 1.379 . S
C1230 H1214 0.931 . S
C1230 C1224 1.383 . S
C1230 C1229 1.379 . S
H1231 C1225 0.959 . S
H1232 C1225 0.961 . S
H1233 C1225 0.960 . S
H1234 C1226 0.930 . S
H1235 C1227 0.929 . S
H1236 C1244 0.929 . S
H1237 C1246 0.930 . S
H1238 C1248 0.930 . S
H1239 C1251 0.929 . S
H1240 C1254 0.930 . S
H1241 C1256 0.960 . S
H1242 C1256 0.960 . S
H1243 C1256 0.960 . S
C1244 H1236 0.929 . S
C1244 C1245 1.377 . S
C1244 C1246 1.384 . S
C1245 C1244 1.377 . S
C1245 C1251 1.390 . S
C1246 H1237 0.930 . S
C1246 C1244 1.384 . S
C1246 C1247 1.372 . S
C1247 C1246 1.372 . S
C1247 C1248 1.400 . S
C1247 C1252 1.490 . S
C1248 H1238 0.930 . S
C1248 C1247 1.400 . S
C1248 C1251 1.386 . S
H1249 C1265 0.930 . S
H1250 C1266 0.931 . S
C1251 H1239 0.929 . S
C1251 C1245 1.390 . S
C1251 C1248 1.386 . S
C1252 C1247 1.490 . S
C1252 C1254 1.395 . S
C1252 C1255 1.403 . S
H1253 C1259 0.930 . S
C1254 H1240 0.930 . S
C1254 C1252 1.395 . S
C1254 C1257 1.403 1_556 S
C1255 C1252 1.403 . S
C1255 C1256 1.524 . S
C1255 C1259 1.400 1_556 S
C1256 H1241 0.960 . S
C1256 H1242 0.960 . S
C1256 H1243 0.960 . S
C1256 C1255 1.524 . S
C1257 C1254 1.403 1_554 S
C1257 C1258 1.392 . S
C1257 C1261 1.495 . S
C1258 C1257 1.392 . S
C1258 C1259 1.385 . S
C1258 C1260 1.478 . S
C1259 H1253 0.930 . S
C1259 C1255 1.400 1_554 S
C1259 C1258 1.385 . S
C1260 C1258 1.478 . S
C1260 C1262 1.381 . S
C1260 C1266 1.383 . S
C1261 C1257 1.495 . S
C1261 H1267 0.959 . S
C1261 H1268 0.961 . S
C1261 H1269 0.960 . S
C1262 C1260 1.381 . S
C1262 C1263 1.394 . S
C1262 H1270 0.930 . S
C1263 C1262 1.394 . S
C1263 C1264 1.383 . S
C1263 H1271 0.929 . S
C1264 C1263 1.383 . S
C1264 C1265 1.377 . S
C1265 H1249 0.930 . S
C1265 C1264 1.377 . S
C1265 C1266 1.379 . S
C1266 H1250 0.931 . S
C1266 C1260 1.383 . S
C1266 C1265 1.379 . S
H1267 C1261 0.959 . S
H1268 C1261 0.961 . S
H1269 C1261 0.960 . S
H1270 C1262 0.930 . S
H1271 C1263 0.929 . S
H1272 C1280 0.929 . S
H1273 C1282 0.930 . S
H1274 C1284 0.930 . S
H1275 C1287 0.929 . S
H1276 C1290 0.930 . S
H1277 C1292 0.960 . S
H1278 C1292 0.960 . S
H1279 C1292 0.960 . S
C1280 H1272 0.929 . S
C1280 C1281 1.377 . S
C1280 C1282 1.384 . S
C1281 C1280 1.377 . S
C1281 C1287 1.390 . S
C1282 H1273 0.930 . S
C1282 C1280 1.384 . S
C1282 C1283 1.372 . S
C1283 C1282 1.372 . S
C1283 C1284 1.400 . S
C1283 C1288 1.490 . S
C1284 H1274 0.930 . S
C1284 C1283 1.400 . S
C1284 C1287 1.386 . S
H1285 C1301 0.930 . S
H1286 C1302 0.931 . S
C1287 H1275 0.929 . S
C1287 C1281 1.390 . S
C1287 C1284 1.386 . S
C1288 C1283 1.490 . S
C1288 C1290 1.395 . S
C1288 C1291 1.403 . S
H1289 C1295 0.930 . S
C1290 H1276 0.930 . S
C1290 C1288 1.395 . S
C1290 C1293 1.403 1_556 S
C1291 C1288 1.403 . S
C1291 C1292 1.524 . S
C1291 C1295 1.400 1_556 S
C1292 H1277 0.960 . S
C1292 H1278 0.960 . S
C1292 H1279 0.960 . S
C1292 C1291 1.524 . S
C1293 C1290 1.403 1_554 S
C1293 C1294 1.392 . S
C1293 C1297 1.495 . S
C1294 C1293 1.392 . S
C1294 C1295 1.385 . S
C1294 C1296 1.478 . S
C1295 H1289 0.930 . S
C1295 C1291 1.400 1_554 S
C1295 C1294 1.385 . S
C1296 C1294 1.478 . S
C1296 C1298 1.381 . S
C1296 C1302 1.383 . S
C1297 C1293 1.495 . S
C1297 H1303 0.959 . S
C1297 H1304 0.961 . S
C1297 H1305 0.960 . S
C1298 C1296 1.381 . S
C1298 C1299 1.394 . S
C1298 H1306 0.930 . S
C1299 C1298 1.394 . S
C1299 C1300 1.383 . S
C1299 H1307 0.929 . S
C1300 C1299 1.383 . S
C1300 C1301 1.377 . S
C1301 H1285 0.930 . S
C1301 C1300 1.377 . S
C1301 C1302 1.379 . S
C1302 H1286 0.931 . S
C1302 C1296 1.383 . S
C1302 C1301 1.379 . S
H1303 C1297 0.959 . S
H1304 C1297 0.961 . S
H1305 C1297 0.960 . S
H1306 C1298 0.930 . S
H1307 C1299 0.929 . S
H1308 C1316 0.929 . S
H1309 C1318 0.930 . S
H1310 C1320 0.930 . S
H1311 C1323 0.929 . S
H1312 C1326 0.930 . S
H1313 C1328 0.960 . S
H1314 C1328 0.960 . S
H1315 C1328 0.960 . S
C1316 H1308 0.929 . S
C1316 C1317 1.377 . S
C1316 C1318 1.384 . S
C1317 C1316 1.377 . S
C1317 C1323 1.390 . S
C1318 H1309 0.930 . S
C1318 C1316 1.384 . S
C1318 C1319 1.372 . S
C1319 C1318 1.372 . S
C1319 C1320 1.400 . S
C1319 C1324 1.490 . S
C1320 H1310 0.930 . S
C1320 C1319 1.400 . S
C1320 C1323 1.386 . S
H1321 C1337 0.930 . S
H1322 C1338 0.931 . S
C1323 H1311 0.929 . S
C1323 C1317 1.390 . S
C1323 C1320 1.386 . S
C1324 C1319 1.490 . S
C1324 C1326 1.395 . S
C1324 C1327 1.403 . S
H1325 C1331 0.930 . S
C1326 H1312 0.930 . S
C1326 C1324 1.395 . S
C1326 C1329 1.403 1_554 S
C1327 C1324 1.403 . S
C1327 C1328 1.524 . S
C1327 C1331 1.400 1_554 S
C1328 H1313 0.960 . S
C1328 H1314 0.960 . S
C1328 H1315 0.960 . S
C1328 C1327 1.524 . S
C1329 C1326 1.403 1_556 S
C1329 C1330 1.392 . S
C1329 C1333 1.495 . S
C1330 C1329 1.392 . S
C1330 C1331 1.385 . S
C1330 C1332 1.478 . S
C1331 H1325 0.930 . S
C1331 C1327 1.400 1_556 S
C1331 C1330 1.385 . S
C1332 C1330 1.478 . S
C1332 C1334 1.381 . S
C1332 C1338 1.383 . S
C1333 C1329 1.495 . S
C1333 H1339 0.959 . S
C1333 H1340 0.961 . S
C1333 H1341 0.960 . S
C1334 C1332 1.381 . S
C1334 C1335 1.394 . S
C1334 H1342 0.930 . S
C1335 C1334 1.394 . S
C1335 C1336 1.383 . S
C1335 H1343 0.929 . S
C1336 C1335 1.383 . S
C1336 C1337 1.377 . S
C1337 H1321 0.930 . S
C1337 C1336 1.377 . S
C1337 C1338 1.379 . S
C1338 H1322 0.931 . S
C1338 C1332 1.383 . S
C1338 C1337 1.379 . S
H1339 C1333 0.959 . S
H1340 C1333 0.961 . S
H1341 C1333 0.960 . S
H1342 C1334 0.930 . S
H1343 C1335 0.929 . S
H1344 C1352 0.929 . S
H1345 C1354 0.930 . S
H1346 C1356 0.930 . S
H1347 C1359 0.929 . S
H1348 C1362 0.930 . S
H1349 C1364 0.960 . S
H1350 C1364 0.960 . S
H1351 C1364 0.960 . S
C1352 H1344 0.929 . S
C1352 C1353 1.377 . S
C1352 C1354 1.384 . S
C1353 C1352 1.377 . S
C1353 C1359 1.390 . S
C1354 H1345 0.930 . S
C1354 C1352 1.384 . S
C1354 C1355 1.372 . S
C1355 C1354 1.372 . S
C1355 C1356 1.400 . S
C1355 C1360 1.490 . S
C1356 H1346 0.930 . S
C1356 C1355 1.400 . S
C1356 C1359 1.386 . S
H1357 C1373 0.930 . S
H1358 C1374 0.931 . S
C1359 H1347 0.929 . S
C1359 C1353 1.390 . S
C1359 C1356 1.386 . S
C1360 C1355 1.490 . S
C1360 C1362 1.395 . S
C1360 C1363 1.403 . S
H1361 C1367 0.930 . S
C1362 H1348 0.930 . S
C1362 C1360 1.395 . S
C1362 C1365 1.403 1_554 S
C1363 C1360 1.403 . S
C1363 C1364 1.524 . S
C1363 C1367 1.400 1_554 S
C1364 H1349 0.960 . S
C1364 H1350 0.960 . S
C1364 H1351 0.960 . S
C1364 C1363 1.524 . S
C1365 C1362 1.403 1_556 S
C1365 C1366 1.392 . S
C1365 C1369 1.495 . S
C1366 C1365 1.392 . S
C1366 C1367 1.385 . S
C1366 C1368 1.478 . S
C1367 H1361 0.930 . S
C1367 C1363 1.400 1_556 S
C1367 C1366 1.385 . S
C1368 C1366 1.478 . S
C1368 C1370 1.381 . S
C1368 C1374 1.383 . S
C1369 C1365 1.495 . S
C1369 H1375 0.959 . S
C1369 H1376 0.961 . S
C1369 H1377 0.960 . S
C1370 C1368 1.381 . S
C1370 C1371 1.394 . S
C1370 H1378 0.930 . S
C1371 C1370 1.394 . S
C1371 C1372 1.383 . S
C1371 H1379 0.929 . S
C1372 C1371 1.383 . S
C1372 C1373 1.377 . S
C1373 H1357 0.930 . S
C1373 C1372 1.377 . S
C1373 C1374 1.379 . S
C1374 H1358 0.931 . S
C1374 C1368 1.383 . S
C1374 C1373 1.379 . S
H1375 C1369 0.959 . S
H1376 C1369 0.961 . S
H1377 C1369 0.960 . S
H1378 C1370 0.930 . S
H1379 C1371 0.929 . S
H1380 C1388 0.929 . S
H1381 C1390 0.930 . S
H1382 C1392 0.930 . S
H1383 C1395 0.929 . S
H1384 C1398 0.930 . S
H1385 C1400 0.960 . S
H1386 C1400 0.960 . S
H1387 C1400 0.960 . S
C1388 H1380 0.929 . S
C1388 C1389 1.377 . S
C1388 C1390 1.384 . S
C1389 C1388 1.377 . S
C1389 C1395 1.390 . S
C1390 H1381 0.930 . S
C1390 C1388 1.384 . S
C1390 C1391 1.372 . S
C1391 C1390 1.372 . S
C1391 C1392 1.400 . S
C1391 C1396 1.490 . S
C1392 H1382 0.930 . S
C1392 C1391 1.400 . S
C1392 C1395 1.386 . S
H1393 C1409 0.930 . S
H1394 C1410 0.931 . S
C1395 H1383 0.929 . S
C1395 C1389 1.390 . S
C1395 C1392 1.386 . S
C1396 C1391 1.490 . S
C1396 C1398 1.395 . S
C1396 C1399 1.403 . S
H1397 C1403 0.930 . S
C1398 H1384 0.930 . S
C1398 C1396 1.395 . S
C1398 C1401 1.403 1_556 S
C1399 C1396 1.403 . S
C1399 C1400 1.524 . S
C1399 C1403 1.400 1_556 S
C1400 H1385 0.960 . S
C1400 H1386 0.960 . S
C1400 H1387 0.960 . S
C1400 C1399 1.524 . S
C1401 C1398 1.403 1_554 S
C1401 C1402 1.392 . S
C1401 C1405 1.495 . S
C1402 C1401 1.392 . S
C1402 C1403 1.385 . S
C1402 C1404 1.478 . S
C1403 H1397 0.930 . S
C1403 C1399 1.400 1_554 S
C1403 C1402 1.385 . S
C1404 C1402 1.478 . S
C1404 C1406 1.381 . S
C1404 C1410 1.383 . S
C1405 C1401 1.495 . S
C1405 H1411 0.959 . S
C1405 H1412 0.961 . S
C1405 H1413 0.960 . S
C1406 C1404 1.381 . S
C1406 C1407 1.394 . S
C1406 H1414 0.930 . S
C1407 C1406 1.394 . S
C1407 C1408 1.383 . S
C1407 H1415 0.929 . S
C1408 C1407 1.383 . S
C1408 C1409 1.377 . S
C1409 H1393 0.930 . S
C1409 C1408 1.377 . S
C1409 C1410 1.379 . S
C1410 H1394 0.931 . S
C1410 C1404 1.383 . S
C1410 C1409 1.379 . S
H1411 C1405 0.959 . S
H1412 C1405 0.961 . S
H1413 C1405 0.960 . S
H1414 C1406 0.930 . S
H1415 C1407 0.929 . S
H1416 C1424 0.929 . S
H1417 C1426 0.930 . S
H1418 C1428 0.930 . S
H1419 C1431 0.929 . S
H1420 C1434 0.930 . S
H1421 C1436 0.960 . S
H1422 C1436 0.960 . S
H1423 C1436 0.960 . S
C1424 H1416 0.929 . S
C1424 C1425 1.377 . S
C1424 C1426 1.384 . S
C1425 C1424 1.377 . S
C1425 C1431 1.390 . S
C1426 H1417 0.930 . S
C1426 C1424 1.384 . S
C1426 C1427 1.372 . S
C1427 C1426 1.372 . S
C1427 C1428 1.400 . S
C1427 C1432 1.490 . S
C1428 H1418 0.930 . S
C1428 C1427 1.400 . S
C1428 C1431 1.386 . S
H1429 C1445 0.930 . S
H1430 C1446 0.931 . S
C1431 H1419 0.929 . S
C1431 C1425 1.390 . S
C1431 C1428 1.386 . S
C1432 C1427 1.490 . S
C1432 C1434 1.395 . S
C1432 C1435 1.403 . S
H1433 C1439 0.930 . S
C1434 H1420 0.930 . S
C1434 C1432 1.395 . S
C1434 C1437 1.403 . S
C1435 C1432 1.403 . S
C1435 C1436 1.524 . S
C1435 C1439 1.400 . S
C1436 H1421 0.960 . S
C1436 H1422 0.960 . S
C1436 H1423 0.960 . S
C1436 C1435 1.524 . S
C1437 C1434 1.403 . S
C1437 C1438 1.392 . S
C1437 C1441 1.495 . S
C1438 C1437 1.392 . S
C1438 C1439 1.385 . S
C1438 C1440 1.478 . S
C1439 H1433 0.930 . S
C1439 C1435 1.400 . S
C1439 C1438 1.385 . S
C1440 C1438 1.478 . S
C1440 C1442 1.381 . S
C1440 C1446 1.383 . S
C1441 C1437 1.495 . S
C1441 H1447 0.959 . S
C1441 H1448 0.961 . S
C1441 H1449 0.960 . S
C1442 C1440 1.381 . S
C1442 C1443 1.394 . S
C1442 H1450 0.930 . S
C1443 C1442 1.394 . S
C1443 C1444 1.383 . S
C1443 H1451 0.929 . S
C1444 C1443 1.383 . S
C1444 C1445 1.377 . S
C1445 H1429 0.930 . S
C1445 C1444 1.377 . S
C1445 C1446 1.379 . S
C1446 H1430 0.931 . S
C1446 C1440 1.383 . S
C1446 C1445 1.379 . S
H1447 C1441 0.959 . S
H1448 C1441 0.961 . S
H1449 C1441 0.960 . S
H1450 C1442 0.930 . S
H1451 C1443 0.929 . S
H1452 C1460 0.929 . S
H1453 C1462 0.930 . S
H1454 C1464 0.930 . S
H1455 C1467 0.929 . S
H1456 C1470 0.930 . S
H1457 C1472 0.960 . S
H1458 C1472 0.960 . S
H1459 C1472 0.960 . S
C1460 H1452 0.929 . S
C1460 C1461 1.377 . S
C1460 C1462 1.384 . S
C1461 C1460 1.377 . S
C1461 C1467 1.390 . S
C1462 H1453 0.930 . S
C1462 C1460 1.384 . S
C1462 C1463 1.372 . S
C1463 C1462 1.372 . S
C1463 C1464 1.400 . S
C1463 C1468 1.490 . S
C1464 H1454 0.930 . S
C1464 C1463 1.400 . S
C1464 C1467 1.386 . S
H1465 C1481 0.930 . S
H1466 C1482 0.931 . S
C1467 H1455 0.929 . S
C1467 C1461 1.390 . S
C1467 C1464 1.386 . S
C1468 C1463 1.490 . S
C1468 C1470 1.395 . S
C1468 C1471 1.403 . S
H1469 C1475 0.930 . S
C1470 H1456 0.930 . S
C1470 C1468 1.395 . S
C1470 C1473 1.403 . S
C1471 C1468 1.403 . S
C1471 C1472 1.524 . S
C1471 C1475 1.400 . S
C1472 H1457 0.960 . S
C1472 H1458 0.960 . S
C1472 H1459 0.960 . S
C1472 C1471 1.524 . S
C1473 C1470 1.403 . S
C1473 C1474 1.392 . S
C1473 C1477 1.495 . S
C1474 C1473 1.392 . S
C1474 C1475 1.385 . S
C1474 C1476 1.478 . S
C1475 H1469 0.930 . S
C1475 C1471 1.400 . S
C1475 C1474 1.385 . S
C1476 C1474 1.478 . S
C1476 C1478 1.381 . S
C1476 C1482 1.383 . S
C1477 C1473 1.495 . S
C1477 H1483 0.959 . S
C1477 H1484 0.961 . S
C1477 H1485 0.960 . S
C1478 C1476 1.381 . S
C1478 C1479 1.394 . S
C1478 H1486 0.930 . S
C1479 C1478 1.394 . S
C1479 C1480 1.383 . S
C1479 H1487 0.929 . S
C1480 C1479 1.383 . S
C1480 C1481 1.377 . S
C1481 H1465 0.930 . S
C1481 C1480 1.377 . S
C1481 C1482 1.379 . S
C1482 H1466 0.931 . S
C1482 C1476 1.383 . S
C1482 C1481 1.379 . S
H1483 C1477 0.959 . S
H1484 C1477 0.961 . S
H1485 C1477 0.960 . S
H1486 C1478 0.930 . S
H1487 C1479 0.929 . S
H1488 C1496 0.929 . S
H1489 C1498 0.930 . S
H1490 C1500 0.930 . S
H1491 C1503 0.929 . S
H1492 C1506 0.930 . S
H1493 C1508 0.960 . S
H1494 C1508 0.960 . S
H1495 C1508 0.960 . S
C1496 H1488 0.929 . S
C1496 C1497 1.377 . S
C1496 C1498 1.384 . S
C1497 C1496 1.377 . S
C1497 C1503 1.390 . S
C1498 H1489 0.930 . S
C1498 C1496 1.384 . S
C1498 C1499 1.372 . S
C1499 C1498 1.372 . S
C1499 C1500 1.400 . S
C1499 C1504 1.490 . S
C1500 H1490 0.930 . S
C1500 C1499 1.400 . S
C1500 C1503 1.386 . S
H1501 C1517 0.930 . S
H1502 C1518 0.931 . S
C1503 H1491 0.929 . S
C1503 C1497 1.390 . S
C1503 C1500 1.386 . S
C1504 C1499 1.490 . S
C1504 C1506 1.395 . S
C1504 C1507 1.403 . S
H1505 C1511 0.930 . S
C1506 H1492 0.930 . S
C1506 C1504 1.395 . S
C1506 C1509 1.403 . S
C1507 C1504 1.403 . S
C1507 C1508 1.524 . S
C1507 C1511 1.400 . S
C1508 H1493 0.960 . S
C1508 H1494 0.960 . S
C1508 H1495 0.960 . S
C1508 C1507 1.524 . S
C1509 C1506 1.403 . S
C1509 C1510 1.392 . S
C1509 C1513 1.495 . S
C1510 C1509 1.392 . S
C1510 C1511 1.385 . S
C1510 C1512 1.478 . S
C1511 H1505 0.930 . S
C1511 C1507 1.400 . S
C1511 C1510 1.385 . S
C1512 C1510 1.478 . S
C1512 C1514 1.381 . S
C1512 C1518 1.383 . S
C1513 C1509 1.495 . S
C1513 H1519 0.959 . S
C1513 H1520 0.961 . S
C1513 H1521 0.960 . S
C1514 C1512 1.381 . S
C1514 C1515 1.394 . S
C1514 H1522 0.930 . S
C1515 C1514 1.394 . S
C1515 C1516 1.383 . S
C1515 H1523 0.929 . S
C1516 C1515 1.383 . S
C1516 C1517 1.377 . S
C1517 H1501 0.930 . S
C1517 C1516 1.377 . S
C1517 C1518 1.379 . S
C1518 H1502 0.931 . S
C1518 C1512 1.383 . S
C1518 C1517 1.379 . S
H1519 C1513 0.959 . S
H1520 C1513 0.961 . S
H1521 C1513 0.960 . S
H1522 C1514 0.930 . S
H1523 C1515 0.929 . S
H1524 C1532 0.929 . S
H1525 C1534 0.930 . S
H1526 C1536 0.930 . S
H1527 C1539 0.929 . S
H1528 C1542 0.930 . S
H1529 C1544 0.960 . S
H1530 C1544 0.960 . S
H1531 C1544 0.960 . S
C1532 H1524 0.929 . S
C1532 C1533 1.377 . S
C1532 C1534 1.384 . S
C1533 C1532 1.377 . S
C1533 C1539 1.390 . S
C1534 H1525 0.930 . S
C1534 C1532 1.384 . S
C1534 C1535 1.372 . S
C1535 C1534 1.372 . S
C1535 C1536 1.400 . S
C1535 C1540 1.490 . S
C1536 H1526 0.930 . S
C1536 C1535 1.400 . S
C1536 C1539 1.386 . S
H1537 C1553 0.930 . S
H1538 C1554 0.931 . S
C1539 H1527 0.929 . S
C1539 C1533 1.390 . S
C1539 C1536 1.386 . S
C1540 C1535 1.490 . S
C1540 C1542 1.395 . S
C1540 C1543 1.403 . S
H1541 C1547 0.930 . S
C1542 H1528 0.930 . S
C1542 C1540 1.395 . S
C1542 C1545 1.403 . S
C1543 C1540 1.403 . S
C1543 C1544 1.524 . S
C1543 C1547 1.400 . S
C1544 H1529 0.960 . S
C1544 H1530 0.960 . S
C1544 H1531 0.960 . S
C1544 C1543 1.524 . S
C1545 C1542 1.403 . S
C1545 C1546 1.392 . S
C1545 C1549 1.495 . S
C1546 C1545 1.392 . S
C1546 C1547 1.385 . S
C1546 C1548 1.478 . S
C1547 H1541 0.930 . S
C1547 C1543 1.400 . S
C1547 C1546 1.385 . S
C1548 C1546 1.478 . S
C1548 C1550 1.381 . S
C1548 C1554 1.383 . S
C1549 C1545 1.495 . S
C1549 H1555 0.959 . S
C1549 H1556 0.961 . S
C1549 H1557 0.960 . S
C1550 C1548 1.381 . S
C1550 C1551 1.394 . S
C1550 H1558 0.930 . S
C1551 C1550 1.394 . S
C1551 C1552 1.383 . S
C1551 H1559 0.929 . S
C1552 C1551 1.383 . S
C1552 C1553 1.377 . S
C1553 H1537 0.930 . S
C1553 C1552 1.377 . S
C1553 C1554 1.379 . S
C1554 H1538 0.931 . S
C1554 C1548 1.383 . S
C1554 C1553 1.379 . S
H1555 C1549 0.959 . S
H1556 C1549 0.961 . S
H1557 C1549 0.960 . S
H1558 C1550 0.930 . S
H1559 C1551 0.929 . S
H1560 C1568 0.929 . S
H1561 C1570 0.930 . S
H1562 C1572 0.930 . S
H1563 C1575 0.929 . S
H1564 C1578 0.930 . S
H1565 C1580 0.960 . S
H1566 C1580 0.960 . S
H1567 C1580 0.960 . S
C1568 H1560 0.929 . S
C1568 C1569 1.377 . S
C1568 C1570 1.384 . S
C1569 C1568 1.377 . S
C1569 C1575 1.390 . S
C1570 H1561 0.930 . S
C1570 C1568 1.384 . S
C1570 C1571 1.372 . S
C1571 C1570 1.372 . S
C1571 C1572 1.400 . S
C1571 C1576 1.490 . S
C1572 H1562 0.930 . S
C1572 C1571 1.400 . S
C1572 C1575 1.386 . S
H1573 C1589 0.930 . S
H1574 C1590 0.931 . S
C1575 H1563 0.929 . S
C1575 C1569 1.390 . S
C1575 C1572 1.386 . S
C1576 C1571 1.490 . S
C1576 C1578 1.395 . S
C1576 C1579 1.403 . S
H1577 C1583 0.930 . S
C1578 H1564 0.930 . S
C1578 C1576 1.395 . S
C1578 C1581 1.403 . S
C1579 C1576 1.403 . S
C1579 C1580 1.524 . S
C1579 C1583 1.400 . S
C1580 H1565 0.960 . S
C1580 H1566 0.960 . S
C1580 H1567 0.960 . S
C1580 C1579 1.524 . S
C1581 C1578 1.403 . S
C1581 C1582 1.392 . S
C1581 C1585 1.495 . S
C1582 C1581 1.392 . S
C1582 C1583 1.385 . S
C1582 C1584 1.478 . S
C1583 H1577 0.930 . S
C1583 C1579 1.400 . S
C1583 C1582 1.385 . S
C1584 C1582 1.478 . S
C1584 C1586 1.381 . S
C1584 C1590 1.383 . S
C1585 C1581 1.495 . S
C1585 H1591 0.959 . S
C1585 H1592 0.961 . S
C1585 H1593 0.960 . S
C1586 C1584 1.381 . S
C1586 C1587 1.394 . S
C1586 H1594 0.930 . S
C1587 C1586 1.394 . S
C1587 C1588 1.383 . S
C1587 H1595 0.929 . S
C1588 C1587 1.383 . S
C1588 C1589 1.377 . S
C1589 H1573 0.930 . S
C1589 C1588 1.377 . S
C1589 C1590 1.379 . S
C1590 H1574 0.931 . S
C1590 C1584 1.383 . S
C1590 C1589 1.379 . S
H1591 C1585 0.959 . S
H1592 C1585 0.961 . S
H1593 C1585 0.960 . S
H1594 C1586 0.930 . S
H1595 C1587 0.929 . S
H1596 C1604 0.929 . S
H1597 C1606 0.930 . S
H1598 C1608 0.930 . S
H1599 C1611 0.929 . S
H1600 C1614 0.930 . S
H1601 C1616 0.960 . S
H1602 C1616 0.960 . S
H1603 C1616 0.960 . S
C1604 H1596 0.929 . S
C1604 C1605 1.377 . S
C1604 C1606 1.384 . S
C1605 C1604 1.377 . S
C1605 C1611 1.390 . S
C1606 H1597 0.930 . S
C1606 C1604 1.384 . S
C1606 C1607 1.372 . S
C1607 C1606 1.372 . S
C1607 C1608 1.400 . S
C1607 C1612 1.490 . S
C1608 H1598 0.930 . S
C1608 C1607 1.400 . S
C1608 C1611 1.386 . S
H1609 C1625 0.930 . S
H1610 C1626 0.931 . S
C1611 H1599 0.929 . S
C1611 C1605 1.390 . S
C1611 C1608 1.386 . S
C1612 C1607 1.490 . S
C1612 C1614 1.395 . S
C1612 C1615 1.403 . S
H1613 C1619 0.930 . S
C1614 H1600 0.930 . S
C1614 C1612 1.395 . S
C1614 C1617 1.403 . S
C1615 C1612 1.403 . S
C1615 C1616 1.524 . S
C1615 C1619 1.400 . S
C1616 H1601 0.960 . S
C1616 H1602 0.960 . S
C1616 H1603 0.960 . S
C1616 C1615 1.524 . S
C1617 C1614 1.403 . S
C1617 C1618 1.392 . S
C1617 C1621 1.495 . S
C1618 C1617 1.392 . S
C1618 C1619 1.385 . S
C1618 C1620 1.478 . S
C1619 H1613 0.930 . S
C1619 C1615 1.400 . S
C1619 C1618 1.385 . S
C1620 C1618 1.478 . S
C1620 C1622 1.381 . S
C1620 C1626 1.383 . S
C1621 C1617 1.495 . S
C1621 H1627 0.959 . S
C1621 H1628 0.961 . S
C1621 H1629 0.960 . S
C1622 C1620 1.381 . S
C1622 C1623 1.394 . S
C1622 H1630 0.930 . S
C1623 C1622 1.394 . S
C1623 C1624 1.383 . S
C1623 H1631 0.929 . S
C1624 C1623 1.383 . S
C1624 C1625 1.377 . S
C1625 H1609 0.930 . S
C1625 C1624 1.377 . S
C1625 C1626 1.379 . S
C1626 H1610 0.931 . S
C1626 C1620 1.383 . S
C1626 C1625 1.379 . S
H1627 C1621 0.959 . S
H1628 C1621 0.961 . S
H1629 C1621 0.960 . S
H1630 C1622 0.930 . S
H1631 C1623 0.929 . S
H1632 C1640 0.929 . S
H1633 C1642 0.930 . S
H1634 C1644 0.930 . S
H1635 C1647 0.929 . S
H1636 C1650 0.930 . S
H1637 C1652 0.960 . S
H1638 C1652 0.960 . S
H1639 C1652 0.960 . S
C1640 H1632 0.929 . S
C1640 C1641 1.377 . S
C1640 C1642 1.384 . S
C1641 C1640 1.377 . S
C1641 C1647 1.390 . S
C1642 H1633 0.930 . S
C1642 C1640 1.384 . S
C1642 C1643 1.372 . S
C1643 C1642 1.372 . S
C1643 C1644 1.400 . S
C1643 C1648 1.490 . S
C1644 H1634 0.930 . S
C1644 C1643 1.400 . S
C1644 C1647 1.386 . S
H1645 C1661 0.930 . S
H1646 C1662 0.931 . S
C1647 H1635 0.929 . S
C1647 C1641 1.390 . S
C1647 C1644 1.386 . S
C1648 C1643 1.490 . S
C1648 C1650 1.395 . S
C1648 C1651 1.403 . S
H1649 C1655 0.930 . S
C1650 H1636 0.930 . S
C1650 C1648 1.395 . S
C1650 C1653 1.403 . S
C1651 C1648 1.403 . S
C1651 C1652 1.524 . S
C1651 C1655 1.400 . S
C1652 H1637 0.960 . S
C1652 H1638 0.960 . S
C1652 H1639 0.960 . S
C1652 C1651 1.524 . S
C1653 C1650 1.403 . S
C1653 C1654 1.392 . S
C1653 C1657 1.495 . S
C1654 C1653 1.392 . S
C1654 C1655 1.385 . S
C1654 C1656 1.478 . S
C1655 H1649 0.930 . S
C1655 C1651 1.400 . S
C1655 C1654 1.385 . S
C1656 C1654 1.478 . S
C1656 C1658 1.381 . S
C1656 C1662 1.383 . S
C1657 C1653 1.495 . S
C1657 H1663 0.959 . S
C1657 H1664 0.961 . S
C1657 H1665 0.960 . S
C1658 C1656 1.381 . S
C1658 C1659 1.394 . S
C1658 H1666 0.930 . S
C1659 C1658 1.394 . S
C1659 C1660 1.383 . S
C1659 H1667 0.929 . S
C1660 C1659 1.383 . S
C1660 C1661 1.377 . S
C1661 H1645 0.930 . S
C1661 C1660 1.377 . S
C1661 C1662 1.379 . S
C1662 H1646 0.931 . S
C1662 C1656 1.383 . S
C1662 C1661 1.379 . S
H1663 C1657 0.959 . S
H1664 C1657 0.961 . S
H1665 C1657 0.960 . S
H1666 C1658 0.930 . S
H1667 C1659 0.929 . S
H1668 C1676 0.929 . S
H1669 C1678 0.930 . S
H1670 C1680 0.930 . S
H1671 C1683 0.929 . S
H1672 C1686 0.930 . S
H1673 C1688 0.960 . S
H1674 C1688 0.960 . S
H1675 C1688 0.960 . S
C1676 H1668 0.929 . S
C1676 C1677 1.377 . S
C1676 C1678 1.384 . S
C1677 C1676 1.377 . S
C1677 C1683 1.390 . S
C1678 H1669 0.930 . S
C1678 C1676 1.384 . S
C1678 C1679 1.372 . S
C1679 C1678 1.372 . S
C1679 C1680 1.400 . S
C1679 C1684 1.490 . S
C1680 H1670 0.930 . S
C1680 C1679 1.400 . S
C1680 C1683 1.386 . S
H1681 C1697 0.930 . S
H1682 C1698 0.931 . S
C1683 H1671 0.929 . S
C1683 C1677 1.390 . S
C1683 C1680 1.386 . S
C1684 C1679 1.490 . S
C1684 C1686 1.395 . S
C1684 C1687 1.403 . S
H1685 C1691 0.930 . S
C1686 H1672 0.930 . S
C1686 C1684 1.395 . S
C1686 C1689 1.403 . S
C1687 C1684 1.403 . S
C1687 C1688 1.524 . S
C1687 C1691 1.400 . S
C1688 H1673 0.960 . S
C1688 H1674 0.960 . S
C1688 H1675 0.960 . S
C1688 C1687 1.524 . S
C1689 C1686 1.403 . S
C1689 C1690 1.392 . S
C1689 C1693 1.495 . S
C1690 C1689 1.392 . S
C1690 C1691 1.385 . S
C1690 C1692 1.478 . S
C1691 H1685 0.930 . S
C1691 C1687 1.400 . S
C1691 C1690 1.385 . S
C1692 C1690 1.478 . S
C1692 C1694 1.381 . S
C1692 C1698 1.383 . S
C1693 C1689 1.495 . S
C1693 H1699 0.959 . S
C1693 H1700 0.961 . S
C1693 H1701 0.960 . S
C1694 C1692 1.381 . S
C1694 C1695 1.394 . S
C1694 H1702 0.930 . S
C1695 C1694 1.394 . S
C1695 C1696 1.383 . S
C1695 H1703 0.929 . S
C1696 C1695 1.383 . S
C1696 C1697 1.377 . S
C1697 H1681 0.930 . S
C1697 C1696 1.377 . S
C1697 C1698 1.379 . S
C1698 H1682 0.931 . S
C1698 C1692 1.383 . S
C1698 C1697 1.379 . S
H1699 C1693 0.959 . S
H1700 C1693 0.961 . S
H1701 C1693 0.960 . S
H1702 C1694 0.930 . S
H1703 C1695 0.929 . S
H1704 C1712 0.929 . S
H1705 C1714 0.930 . S
H1706 C1716 0.930 . S
H1707 C1719 0.929 . S
H1708 C1722 0.930 . S
H1709 C1724 0.960 . S
H1710 C1724 0.960 . S
H1711 C1724 0.960 . S
C1712 H1704 0.929 . S
C1712 C1713 1.377 . S
C1712 C1714 1.384 . S
C1713 C1712 1.377 . S
C1713 C1719 1.390 . S
C1714 H1705 0.930 . S
C1714 C1712 1.384 . S
C1714 C1715 1.372 . S
C1715 C1714 1.372 . S
C1715 C1716 1.400 . S
C1715 C1720 1.490 . S
C1716 H1706 0.930 . S
C1716 C1715 1.400 . S
C1716 C1719 1.386 . S
H1717 C1733 0.930 . S
H1718 C1734 0.931 . S
C1719 H1707 0.929 . S
C1719 C1713 1.390 . S
C1719 C1716 1.386 . S
C1720 C1715 1.490 . S
C1720 C1722 1.395 . S
C1720 C1723 1.403 . S
H1721 C1727 0.930 . S
C1722 H1708 0.930 . S
C1722 C1720 1.395 . S
C1722 C1725 1.403 . S
C1723 C1720 1.403 . S
C1723 C1724 1.524 . S
C1723 C1727 1.400 . S
C1724 H1709 0.960 . S
C1724 H1710 0.960 . S
C1724 H1711 0.960 . S
C1724 C1723 1.524 . S
C1725 C1722 1.403 . S
C1725 C1726 1.392 . S
C1725 C1729 1.495 . S
C1726 C1725 1.392 . S
C1726 C1727 1.385 . S
C1726 C1728 1.478 . S
C1727 H1721 0.930 . S
C1727 C1723 1.400 . S
C1727 C1726 1.385 . S
C1728 C1726 1.478 . S
C1728 C1730 1.381 . S
C1728 C1734 1.383 . S
C1729 C1725 1.495 . S
C1729 H1735 0.959 . S
C1729 H1736 0.961 . S
C1729 H1737 0.960 . S
C1730 C1728 1.381 . S
C1730 C1731 1.394 . S
C1730 H1738 0.930 . S
C1731 C1730 1.394 . S
C1731 C1732 1.383 . S
C1731 H1739 0.929 . S
C1732 C1731 1.383 . S
C1732 C1733 1.377 . S
C1733 H1717 0.930 . S
C1733 C1732 1.377 . S
C1733 C1734 1.379 . S
C1734 H1718 0.931 . S
C1734 C1728 1.383 . S
C1734 C1733 1.379 . S
H1735 C1729 0.959 . S
H1736 C1729 0.961 . S
H1737 C1729 0.960 . S
H1738 C1730 0.930 . S
H1739 C1731 0.929 . S
H1740 C1748 0.929 . S
H1741 C1750 0.930 . S
H1742 C1752 0.930 . S
H1743 C1755 0.929 . S
H1744 C1758 0.930 . S
H1745 C1760 0.960 . S
H1746 C1760 0.960 . S
H1747 C1760 0.960 . S
C1748 H1740 0.929 . S
C1748 C1749 1.377 . S
C1748 C1750 1.384 . S
C1749 C1748 1.377 . S
C1749 C1755 1.390 . S
C1750 H1741 0.930 . S
C1750 C1748 1.384 . S
C1750 C1751 1.372 . S
C1751 C1750 1.372 . S
C1751 C1752 1.400 . S
C1751 C1756 1.490 . S
C1752 H1742 0.930 . S
C1752 C1751 1.400 . S
C1752 C1755 1.386 . S
H1753 C1769 0.930 . S
H1754 C1770 0.931 . S
C1755 H1743 0.929 . S
C1755 C1749 1.390 . S
C1755 C1752 1.386 . S
C1756 C1751 1.490 . S
C1756 C1758 1.395 . S
C1756 C1759 1.403 . S
H1757 C1763 0.930 . S
C1758 H1744 0.930 . S
C1758 C1756 1.395 . S
C1758 C1761 1.403 . S
C1759 C1756 1.403 . S
C1759 C1760 1.524 . S
C1759 C1763 1.400 . S
C1760 H1745 0.960 . S
C1760 H1746 0.960 . S
C1760 H1747 0.960 . S
C1760 C1759 1.524 . S
C1761 C1758 1.403 . S
C1761 C1762 1.392 . S
C1761 C1765 1.495 . S
C1762 C1761 1.392 . S
C1762 C1763 1.385 . S
C1762 C1764 1.478 . S
C1763 H1757 0.930 . S
C1763 C1759 1.400 . S
C1763 C1762 1.385 . S
C1764 C1762 1.478 . S
C1764 C1766 1.381 . S
C1764 C1770 1.383 . S
C1765 C1761 1.495 . S
C1765 H1771 0.959 . S
C1765 H1772 0.961 . S
C1765 H1773 0.960 . S
C1766 C1764 1.381 . S
C1766 C1767 1.394 . S
C1766 H1774 0.930 . S
C1767 C1766 1.394 . S
C1767 C1768 1.383 . S
C1767 H1775 0.929 . S
C1768 C1767 1.383 . S
C1768 C1769 1.377 . S
C1769 H1753 0.930 . S
C1769 C1768 1.377 . S
C1769 C1770 1.379 . S
C1770 H1754 0.931 . S
C1770 C1764 1.383 . S
C1770 C1769 1.379 . S
H1771 C1765 0.959 . S
H1772 C1765 0.961 . S
H1773 C1765 0.960 . S
H1774 C1766 0.930 . S
H1775 C1767 0.929 . S
H1776 C1784 0.929 . S
H1777 C1786 0.930 . S
H1778 C1788 0.930 . S
H1779 C1791 0.929 . S
H1780 C1794 0.930 . S
H1781 C1796 0.960 . S
H1782 C1796 0.960 . S
H1783 C1796 0.960 . S
C1784 H1776 0.929 . S
C1784 C1785 1.377 . S
C1784 C1786 1.384 . S
C1785 C1784 1.377 . S
C1785 C1791 1.390 . S
C1786 H1777 0.930 . S
C1786 C1784 1.384 . S
C1786 C1787 1.372 . S
C1787 C1786 1.372 . S
C1787 C1788 1.400 . S
C1787 C1792 1.490 . S
C1788 H1778 0.930 . S
C1788 C1787 1.400 . S
C1788 C1791 1.386 . S
H1789 C1805 0.930 . S
H1790 C1806 0.931 . S
C1791 H1779 0.929 . S
C1791 C1785 1.390 . S
C1791 C1788 1.386 . S
C1792 C1787 1.490 . S
C1792 C1794 1.395 . S
C1792 C1795 1.403 . S
H1793 C1799 0.930 . S
C1794 H1780 0.930 . S
C1794 C1792 1.395 . S
C1794 C1797 1.403 . S
C1795 C1792 1.403 . S
C1795 C1796 1.524 . S
C1795 C1799 1.400 . S
C1796 H1781 0.960 . S
C1796 H1782 0.960 . S
C1796 H1783 0.960 . S
C1796 C1795 1.524 . S
C1797 C1794 1.403 . S
C1797 C1798 1.392 . S
C1797 C1801 1.495 . S
C1798 C1797 1.392 . S
C1798 C1799 1.385 . S
C1798 C1800 1.478 . S
C1799 H1793 0.930 . S
C1799 C1795 1.400 . S
C1799 C1798 1.385 . S
C1800 C1798 1.478 . S
C1800 C1802 1.381 . S
C1800 C1806 1.383 . S
C1801 C1797 1.495 . S
C1801 H1807 0.959 . S
C1801 H1808 0.961 . S
C1801 H1809 0.960 . S
C1802 C1800 1.381 . S
C1802 C1803 1.394 . S
C1802 H1810 0.930 . S
C1803 C1802 1.394 . S
C1803 C1804 1.383 . S
C1803 H1811 0.929 . S
C1804 C1803 1.383 . S
C1804 C1805 1.377 . S
C1805 H1789 0.930 . S
C1805 C1804 1.377 . S
C1805 C1806 1.379 . S
C1806 H1790 0.931 . S
C1806 C1800 1.383 . S
C1806 C1805 1.379 . S
H1807 C1801 0.959 . S
H1808 C1801 0.961 . S
H1809 C1801 0.960 . S
H1810 C1802 0.930 . S
H1811 C1803 0.929 . S
H1812 C1820 0.929 . S
H1813 C1822 0.930 . S
H1814 C1824 0.930 . S
H1815 C1827 0.929 . S
H1816 C1830 0.930 . S
H1817 C1832 0.960 . S
H1818 C1832 0.960 . S
H1819 C1832 0.960 . S
C1820 H1812 0.929 . S
C1820 C1821 1.377 . S
C1820 C1822 1.384 . S
C1821 C1820 1.377 . S
C1821 C1827 1.390 . S
C1822 H1813 0.930 . S
C1822 C1820 1.384 . S
C1822 C1823 1.372 . S
C1823 C1822 1.372 . S
C1823 C1824 1.400 . S
C1823 C1828 1.490 . S
C1824 H1814 0.930 . S
C1824 C1823 1.400 . S
C1824 C1827 1.386 . S
H1825 C1841 0.930 . S
H1826 C1842 0.931 . S
C1827 H1815 0.929 . S
C1827 C1821 1.390 . S
C1827 C1824 1.386 . S
C1828 C1823 1.490 . S
C1828 C1830 1.395 . S
C1828 C1831 1.403 . S
H1829 C1835 0.930 . S
C1830 H1816 0.930 . S
C1830 C1828 1.395 . S
C1830 C1833 1.403 . S
C1831 C1828 1.403 . S
C1831 C1832 1.524 . S
C1831 C1835 1.400 . S
C1832 H1817 0.960 . S
C1832 H1818 0.960 . S
C1832 H1819 0.960 . S
C1832 C1831 1.524 . S
C1833 C1830 1.403 . S
C1833 C1834 1.392 . S
C1833 C1837 1.495 . S
C1834 C1833 1.392 . S
C1834 C1835 1.385 . S
C1834 C1836 1.478 . S
C1835 H1829 0.930 . S
C1835 C1831 1.400 . S
C1835 C1834 1.385 . S
C1836 C1834 1.478 . S
C1836 C1838 1.381 . S
C1836 C1842 1.383 . S
C1837 C1833 1.495 . S
C1837 H1843 0.959 . S
C1837 H1844 0.961 . S
C1837 H1845 0.960 . S
C1838 C1836 1.381 . S
C1838 C1839 1.394 . S
C1838 H1846 0.930 . S
C1839 C1838 1.394 . S
C1839 C1840 1.383 . S
C1839 H1847 0.929 . S
C1840 C1839 1.383 . S
C1840 C1841 1.377 . S
C1841 H1825 0.930 . S
C1841 C1840 1.377 . S
C1841 C1842 1.379 . S
C1842 H1826 0.931 . S
C1842 C1836 1.383 . S
C1842 C1841 1.379 . S
H1843 C1837 0.959 . S
H1844 C1837 0.961 . S
H1845 C1837 0.960 . S
H1846 C1838 0.930 . S
H1847 C1839 0.929 . S
H1848 C1856 0.929 . S
H1849 C1858 0.930 . S
H1850 C1860 0.930 . S
H1851 C1863 0.929 . S
H1852 C1866 0.930 . S
H1853 C1868 0.960 . S
H1854 C1868 0.960 . S
H1855 C1868 0.960 . S
C1856 H1848 0.929 . S
C1856 C1857 1.377 . S
C1856 C1858 1.384 . S
C1857 C1856 1.377 . S
C1857 C1863 1.390 . S
C1858 H1849 0.930 . S
C1858 C1856 1.384 . S
C1858 C1859 1.372 . S
C1859 C1858 1.372 . S
C1859 C1860 1.400 . S
C1859 C1864 1.490 . S
C1860 H1850 0.930 . S
C1860 C1859 1.400 . S
C1860 C1863 1.386 . S
H1861 C1877 0.930 . S
H1862 C1878 0.931 . S
C1863 H1851 0.929 . S
C1863 C1857 1.390 . S
C1863 C1860 1.386 . S
C1864 C1859 1.490 . S
C1864 C1866 1.395 . S
C1864 C1867 1.403 . S
H1865 C1871 0.930 . S
C1866 H1852 0.930 . S
C1866 C1864 1.395 . S
C1866 C1869 1.403 . S
C1867 C1864 1.403 . S
C1867 C1868 1.524 . S
C1867 C1871 1.400 . S
C1868 H1853 0.960 . S
C1868 H1854 0.960 . S
C1868 H1855 0.960 . S
C1868 C1867 1.524 . S
C1869 C1866 1.403 . S
C1869 C1870 1.392 . S
C1869 C1873 1.495 . S
C1870 C1869 1.392 . S
C1870 C1871 1.385 . S
C1870 C1872 1.478 . S
C1871 H1865 0.930 . S
C1871 C1867 1.400 . S
C1871 C1870 1.385 . S
C1872 C1870 1.478 . S
C1872 C1874 1.381 . S
C1872 C1878 1.383 . S
C1873 C1869 1.495 . S
C1873 H1879 0.959 . S
C1873 H1880 0.961 . S
C1873 H1881 0.960 . S
C1874 C1872 1.381 . S
C1874 C1875 1.394 . S
C1874 H1882 0.930 . S
C1875 C1874 1.394 . S
C1875 C1876 1.383 . S
C1875 H1883 0.929 . S
C1876 C1875 1.383 . S
C1876 C1877 1.377 . S
C1877 H1861 0.930 . S
C1877 C1876 1.377 . S
C1877 C1878 1.379 . S
C1878 H1862 0.931 . S
C1878 C1872 1.383 . S
C1878 C1877 1.379 . S
H1879 C1873 0.959 . S
H1880 C1873 0.961 . S
H1881 C1873 0.960 . S
H1882 C1874 0.930 . S
H1883 C1875 0.929 . S
H1884 C1892 0.929 . S
H1885 C1894 0.930 . S
H1886 C1896 0.930 . S
H1887 C1899 0.929 . S
H1888 C1902 0.930 . S
H1889 C1904 0.960 . S
H1890 C1904 0.960 . S
H1891 C1904 0.960 . S
C1892 H1884 0.929 . S
C1892 C1893 1.377 . S
C1892 C1894 1.384 . S
C1893 C1892 1.377 . S
C1893 C1899 1.390 . S
C1894 H1885 0.930 . S
C1894 C1892 1.384 . S
C1894 C1895 1.372 . S
C1895 C1894 1.372 . S
C1895 C1896 1.400 . S
C1895 C1900 1.490 . S
C1896 H1886 0.930 . S
C1896 C1895 1.400 . S
C1896 C1899 1.386 . S
H1897 C1913 0.930 . S
H1898 C1914 0.931 . S
C1899 H1887 0.929 . S
C1899 C1893 1.390 . S
C1899 C1896 1.386 . S
C1900 C1895 1.490 . S
C1900 C1902 1.395 . S
C1900 C1903 1.403 . S
H1901 C1907 0.930 . S
C1902 H1888 0.930 . S
C1902 C1900 1.395 . S
C1902 C1905 1.403 . S
C1903 C1900 1.403 . S
C1903 C1904 1.524 . S
C1903 C1907 1.400 . S
C1904 H1889 0.960 . S
C1904 H1890 0.960 . S
C1904 H1891 0.960 . S
C1904 C1903 1.524 . S
C1905 C1902 1.403 . S
C1905 C1906 1.392 . S
C1905 C1909 1.495 . S
C1906 C1905 1.392 . S
C1906 C1907 1.385 . S
C1906 C1908 1.478 . S
C1907 H1901 0.930 . S
C1907 C1903 1.400 . S
C1907 C1906 1.385 . S
C1908 C1906 1.478 . S
C1908 C1910 1.381 . S
C1908 C1914 1.383 . S
C1909 C1905 1.495 . S
C1909 H1915 0.959 . S
C1909 H1916 0.961 . S
C1909 H1917 0.960 . S
C1910 C1908 1.381 . S
C1910 C1911 1.394 . S
C1910 H1918 0.930 . S
C1911 C1910 1.394 . S
C1911 C1912 1.383 . S
C1911 H1919 0.929 . S
C1912 C1911 1.383 . S
C1912 C1913 1.377 . S
C1913 H1897 0.930 . S
C1913 C1912 1.377 . S
C1913 C1914 1.379 . S
C1914 H1898 0.931 . S
C1914 C1908 1.383 . S
C1914 C1913 1.379 . S
H1915 C1909 0.959 . S
H1916 C1909 0.961 . S
H1917 C1909 0.960 . S
H1918 C1910 0.930 . S
H1919 C1911 0.929 . S
H1920 C1928 0.929 . S
H1921 C1930 0.930 . S
H1922 C1932 0.930 . S
H1923 C1935 0.929 . S
H1924 C1938 0.930 . S
H1925 C1940 0.960 . S
H1926 C1940 0.960 . S
H1927 C1940 0.960 . S
C1928 H1920 0.929 . S
C1928 C1929 1.377 . S
C1928 C1930 1.384 . S
C1929 C1928 1.377 . S
C1929 C1935 1.390 . S
C1930 H1921 0.930 . S
C1930 C1928 1.384 . S
C1930 C1931 1.372 . S
C1931 C1930 1.372 . S
C1931 C1932 1.400 . S
C1931 C1936 1.490 . S
C1932 H1922 0.930 . S
C1932 C1931 1.400 . S
C1932 C1935 1.386 . S
H1933 C1949 0.930 . S
H1934 C1950 0.931 . S
C1935 H1923 0.929 . S
C1935 C1929 1.390 . S
C1935 C1932 1.386 . S
C1936 C1931 1.490 . S
C1936 C1938 1.395 . S
C1936 C1939 1.403 . S
H1937 C1943 0.930 . S
C1938 H1924 0.930 . S
C1938 C1936 1.395 . S
C1938 C1941 1.403 . S
C1939 C1936 1.403 . S
C1939 C1940 1.524 . S
C1939 C1943 1.400 . S
C1940 H1925 0.960 . S
C1940 H1926 0.960 . S
C1940 H1927 0.960 . S
C1940 C1939 1.524 . S
C1941 C1938 1.403 . S
C1941 C1942 1.392 . S
C1941 C1945 1.495 . S
C1942 C1941 1.392 . S
C1942 C1943 1.385 . S
C1942 C1944 1.478 . S
C1943 H1937 0.930 . S
C1943 C1939 1.400 . S
C1943 C1942 1.385 . S
C1944 C1942 1.478 . S
C1944 C1946 1.381 . S
C1944 C1950 1.383 . S
C1945 C1941 1.495 . S
C1945 H1951 0.959 . S
C1945 H1952 0.961 . S
C1945 H1953 0.960 . S
C1946 C1944 1.381 . S
C1946 C1947 1.394 . S
C1946 H1954 0.930 . S
C1947 C1946 1.394 . S
C1947 C1948 1.383 . S
C1947 H1955 0.929 . S
C1948 C1947 1.383 . S
C1948 C1949 1.377 . S
C1949 H1933 0.930 . S
C1949 C1948 1.377 . S
C1949 C1950 1.379 . S
C1950 H1934 0.931 . S
C1950 C1944 1.383 . S
C1950 C1949 1.379 . S
H1951 C1945 0.959 . S
H1952 C1945 0.961 . S
H1953 C1945 0.960 . S
H1954 C1946 0.930 . S
H1955 C1947 0.929 . S
H1956 C1964 0.929 . S
H1957 C1966 0.930 . S
H1958 C1968 0.930 . S
H1959 C1971 0.929 . S
H1960 C1974 0.930 . S
H1961 C1976 0.960 . S
H1962 C1976 0.960 . S
H1963 C1976 0.960 . S
C1964 H1956 0.929 . S
C1964 C1965 1.377 . S
C1964 C1966 1.384 . S
C1965 C1964 1.377 . S
C1965 C1971 1.390 . S
C1966 H1957 0.930 . S
C1966 C1964 1.384 . S
C1966 C1967 1.372 . S
C1967 C1966 1.372 . S
C1967 C1968 1.400 . S
C1967 C1972 1.490 . S
C1968 H1958 0.930 . S
C1968 C1967 1.400 . S
C1968 C1971 1.386 . S
H1969 C1985 0.930 . S
H1970 C1986 0.931 . S
C1971 H1959 0.929 . S
C1971 C1965 1.390 . S
C1971 C1968 1.386 . S
C1972 C1967 1.490 . S
C1972 C1974 1.395 . S
C1972 C1975 1.403 . S
H1973 C1979 0.930 . S
C1974 H1960 0.930 . S
C1974 C1972 1.395 . S
C1974 C1977 1.403 . S
C1975 C1972 1.403 . S
C1975 C1976 1.524 . S
C1975 C1979 1.400 . S
C1976 H1961 0.960 . S
C1976 H1962 0.960 . S
C1976 H1963 0.960 . S
C1976 C1975 1.524 . S
C1977 C1974 1.403 . S
C1977 C1978 1.392 . S
C1977 C1981 1.495 . S
C1978 C1977 1.392 . S
C1978 C1979 1.385 . S
C1978 C1980 1.478 . S
C1979 H1973 0.930 . S
C1979 C1975 1.400 . S
C1979 C1978 1.385 . S
C1980 C1978 1.478 . S
C1980 C1982 1.381 . S
C1980 C1986 1.383 . S
C1981 C1977 1.495 . S
C1981 H1987 0.959 . S
C1981 H1988 0.961 . S
C1981 H1989 0.960 . S
C1982 C1980 1.381 . S
C1982 C1983 1.394 . S
C1982 H1990 0.930 . S
C1983 C1982 1.394 . S
C1983 C1984 1.383 . S
C1983 H1991 0.929 . S
C1984 C1983 1.383 . S
C1984 C1985 1.377 . S
C1985 H1969 0.930 . S
C1985 C1984 1.377 . S
C1985 C1986 1.379 . S
C1986 H1970 0.931 . S
C1986 C1980 1.383 . S
C1986 C1985 1.379 . S
H1987 C1981 0.959 . S
H1988 C1981 0.961 . S
H1989 C1981 0.960 . S
H1990 C1982 0.930 . S
H1991 C1983 0.929 . S
H1992 C2000 0.929 . S
H1993 C2002 0.930 . S
H1994 C2004 0.930 . S
H1995 C2007 0.929 . S
H1996 C2010 0.930 . S
H1997 C2012 0.960 . S
H1998 C2012 0.960 . S
H1999 C2012 0.960 . S
C2000 H1992 0.929 . S
C2000 C2001 1.377 . S
C2000 C2002 1.384 . S
C2001 C2000 1.377 . S
C2001 C2007 1.390 . S
C2002 H1993 0.930 . S
C2002 C2000 1.384 . S
C2002 C2003 1.372 . S
C2003 C2002 1.372 . S
C2003 C2004 1.400 . S
C2003 C2008 1.490 . S
C2004 H1994 0.930 . S
C2004 C2003 1.400 . S
C2004 C2007 1.386 . S
H2005 C2021 0.930 . S
H2006 C2022 0.931 . S
C2007 H1995 0.929 . S
C2007 C2001 1.390 . S
C2007 C2004 1.386 . S
C2008 C2003 1.490 . S
C2008 C2010 1.395 . S
C2008 C2011 1.403 . S
H2009 C2015 0.930 . S
C2010 H1996 0.930 . S
C2010 C2008 1.395 . S
C2010 C2013 1.403 . S
C2011 C2008 1.403 . S
C2011 C2012 1.524 . S
C2011 C2015 1.400 . S
C2012 H1997 0.960 . S
C2012 H1998 0.960 . S
C2012 H1999 0.960 . S
C2012 C2011 1.524 . S
C2013 C2010 1.403 . S
C2013 C2014 1.392 . S
C2013 C2017 1.495 . S
C2014 C2013 1.392 . S
C2014 C2015 1.385 . S
C2014 C2016 1.478 . S
C2015 H2009 0.930 . S
C2015 C2011 1.400 . S
C2015 C2014 1.385 . S
C2016 C2014 1.478 . S
C2016 C2018 1.381 . S
C2016 C2022 1.383 . S
C2017 C2013 1.495 . S
C2017 H2023 0.959 . S
C2017 H2024 0.961 . S
C2017 H2025 0.960 . S
C2018 C2016 1.381 . S
C2018 C2019 1.394 . S
C2018 H2026 0.930 . S
C2019 C2018 1.394 . S
C2019 C2020 1.383 . S
C2019 H2027 0.929 . S
C2020 C2019 1.383 . S
C2020 C2021 1.377 . S
C2021 H2005 0.930 . S
C2021 C2020 1.377 . S
C2021 C2022 1.379 . S
C2022 H2006 0.931 . S
C2022 C2016 1.383 . S
C2022 C2021 1.379 . S
H2023 C2017 0.959 . S
H2024 C2017 0.961 . S
H2025 C2017 0.960 . S
H2026 C2018 0.930 . S
H2027 C2019 0.929 . S
H2028 C2036 0.929 . S
H2029 C2038 0.930 . S
H2030 C2040 0.930 . S
H2031 C2043 0.929 . S
H2032 C2046 0.930 . S
H2033 C2048 0.960 . S
H2034 C2048 0.960 . S
H2035 C2048 0.960 . S
C2036 H2028 0.929 . S
C2036 C2037 1.377 . S
C2036 C2038 1.384 . S
C2037 C2036 1.377 . S
C2037 C2043 1.390 . S
C2038 H2029 0.930 . S
C2038 C2036 1.384 . S
C2038 C2039 1.372 . S
C2039 C2038 1.372 . S
C2039 C2040 1.400 . S
C2039 C2044 1.490 . S
C2040 H2030 0.930 . S
C2040 C2039 1.400 . S
C2040 C2043 1.386 . S
H2041 C2057 0.930 . S
H2042 C2058 0.931 . S
C2043 H2031 0.929 . S
C2043 C2037 1.390 . S
C2043 C2040 1.386 . S
C2044 C2039 1.490 . S
C2044 C2046 1.395 . S
C2044 C2047 1.403 . S
H2045 C2051 0.930 . S
C2046 H2032 0.930 . S
C2046 C2044 1.395 . S
C2046 C2049 1.403 . S
C2047 C2044 1.403 . S
C2047 C2048 1.524 . S
C2047 C2051 1.400 . S
C2048 H2033 0.960 . S
C2048 H2034 0.960 . S
C2048 H2035 0.960 . S
C2048 C2047 1.524 . S
C2049 C2046 1.403 . S
C2049 C2050 1.392 . S
C2049 C2053 1.495 . S
C2050 C2049 1.392 . S
C2050 C2051 1.385 . S
C2050 C2052 1.478 . S
C2051 H2045 0.930 . S
C2051 C2047 1.400 . S
C2051 C2050 1.385 . S
C2052 C2050 1.478 . S
C2052 C2054 1.381 . S
C2052 C2058 1.383 . S
C2053 C2049 1.495 . S
C2053 H2059 0.959 . S
C2053 H2060 0.961 . S
C2053 H2061 0.960 . S
C2054 C2052 1.381 . S
C2054 C2055 1.394 . S
C2054 H2062 0.930 . S
C2055 C2054 1.394 . S
C2055 C2056 1.383 . S
C2055 H2063 0.929 . S
C2056 C2055 1.383 . S
C2056 C2057 1.377 . S
C2057 H2041 0.930 . S
C2057 C2056 1.377 . S
C2057 C2058 1.379 . S
C2058 H2042 0.931 . S
C2058 C2052 1.383 . S
C2058 C2057 1.379 . S
H2059 C2053 0.959 . S
H2060 C2053 0.961 . S
H2061 C2053 0.960 . S
H2062 C2054 0.930 . S
H2063 C2055 0.929 . S
C345 C7 1.269 . S
C364 C105 1.264 . S
C381 C119 1.270 . S
C400 C21 1.282 . S
C417 C35 1.274 . S
C436 C133 1.255 . S
C453 C49 1.269 . S
C472 C147 1.283 . S
C489 C161 1.274 . S
C508 C63 1.268 . S
C525 C77 1.274 . S
C544 C91 1.259 . S
C561 C175 1.273 . S
C580 C273 1.275 . S
C597 C189 1.268 . S
C616 C287 1.253 . S
C633 C301 1.274 . S
C652 C203 1.283 . S
C669 C217 1.273 . S
C688 C315 1.280 . S
C705 C231 1.269 . S
C724 C329 1.259 . S
C741 C259 1.268 . S
C760 C245 1.253 . S
C777 C13 1.155 . S
C796 C125 1.170 . S
C813 C139 1.171 . S
C832 C27 1.167 . S
C849 C153 1.168 . S
C868 C41 1.146 . S
C885 C55 1.155 . S
C904 C167 1.169 . S
C921 C69 1.165 . S
C940 C97 1.202 . S
C957 C83 1.156 . S
C976 C111 1.117 . S
C993 C293 1.153 . S
C1012 C181 1.135 . S
C1029 C195 1.160 . S
C1048 C307 1.119 . S
C1065 C321 1.170 . S
C1084 C209 1.168 . S
C1101 C335 1.170 . S
C1120 C223 1.160 . S
C1137 C265 1.154 . S
C1156 C237 1.127 . S
C1173 C251 1.156 . S
C1192 C279 1.117 . S
C1209 C11 1.517 . S
C1228 C221 1.510 . S
C1245 C235 1.516 . S
C1264 C25 1.524 . S
C1281 C249 1.516 . S
C1300 C39 1.517 . S
C1317 C53 1.517 . S
C1336 C179 1.525 . S
C1353 C67 1.517 . S
C1372 C193 1.511 . S
C1389 C207 1.519 . S
C1408 C81 1.505 . S
C1425 C305 1.516 . S
C1444 C95 1.523 . S
C1461 C319 1.516 . S
C1480 C109 1.521 . S
C1497 C333 1.518 . S
C1516 C123 1.507 . S
C1533 C263 1.517 . S
C1552 C137 1.524 . S
C1569 C151 1.516 . S
C1588 C277 1.524 . S
C1605 C165 1.518 . S
C1624 C291 1.505 . S
C1641 C8 1.485 . S
C1660 C148 1.501 . S
C1677 C162 1.488 . S
C1696 C22 1.490 . S
C1713 C92 1.489 . S
C1732 C36 1.474 . S
C1749 C50 1.489 . S
C1768 C106 1.478 . S
C1785 C64 1.487 . S
C1804 C120 1.496 . S
C1821 C78 1.481 . S
C1840 C134 1.478 . S
C1857 C176 1.483 . S
C1876 C316 1.480 . S
C1893 C190 1.487 . S
C1912 C330 1.498 . S
C1929 C204 1.481 . S
C1948 C260 1.462 . S
C1965 C274 1.487 . S
C1984 C218 1.496 . S
C2001 C232 1.487 . S
C2020 C288 1.483 . S
C2037 C246 1.485 . S
C2056 C302 1.473 . S
