# Generated by pormake.
# Topology uoa, (4)-cn, num edge types: 1
# Building blocks:
#     Node 0, Type 0, BuildingBlock: CEKHIL_clean_sbu_0, # of connection points: 4
#     Node 1, Type 0, BuildingBlock: CEKHIL_clean_sbu_0, # of connection points: 4
#     Node 2, Type 0, BuildingBlock: CEKHIL_clean_sbu_0, # of connection points: 4
#     Node 3, Type 0, BuildingBlock: CEKHIL_clean_sbu_0, # of connection points: 4
#     Node 4, Type 0, BuildingBlock: CEKHIL_clean_sbu_0, # of connection points: 4
#     Node 5, Type 0, BuildingBlock: CEKHIL_clean_sbu_0, # of connection points: 4
#     Node 6, Type 0, BuildingBlock: CEKHIL_clean_sbu_0, # of connection points: 4
#     Node 7, Type 0, BuildingBlock: CEKHIL_clean_sbu_0, # of connection points: 4
#     Node 8, Type 0, BuildingBlock: CEKHIL_clean_sbu_0, # of connection points: 4
#     Node 9, Type 0, BuildingBlock: CEKHIL_clean_sbu_0, # of connection points: 4
#     Node 10, Type 0, BuildingBlock: CEKHIL_clean_sbu_0, # of connection points: 4
#     Node 11, Type 0, BuildingBlock: CEKHIL_clean_sbu_0, # of connection points: 4
#     Node 12, Type 0, BuildingBlock: CEKHIL_clean_sbu_0, # of connection points: 4
#     Node 13, Type 0, BuildingBlock: CEKHIL_clean_sbu_0, # of connection points: 4
#     Node 14, Type 0, BuildingBlock: CEKHIL_clean_sbu_0, # of connection points: 4
#     Node 15, Type 0, BuildingBlock: CEKHIL_clean_sbu_0, # of connection points: 4
#     Node 16, Type 0, BuildingBlock: CEKHIL_clean_sbu_0, # of connection points: 4
#     Node 17, Type 0, BuildingBlock: CEKHIL_clean_sbu_0, # of connection points: 4
#     Node 18, Type 0, BuildingBlock: CEKHIL_clean_sbu_0, # of connection points: 4
#     Node 19, Type 0, BuildingBlock: CEKHIL_clean_sbu_0, # of connection points: 4
#     Node 20, Type 0, BuildingBlock: CEKHIL_clean_sbu_0, # of connection points: 4
#     Node 21, Type 0, BuildingBlock: CEKHIL_clean_sbu_0, # of connection points: 4
#     Node 22, Type 0, BuildingBlock: CEKHIL_clean_sbu_0, # of connection points: 4
#     Node 23, Type 0, BuildingBlock: CEKHIL_clean_sbu_0, # of connection points: 4
#     Node 24, Type 0, BuildingBlock: CEKHIL_clean_sbu_0, # of connection points: 4
#     Node 25, Type 0, BuildingBlock: CEKHIL_clean_sbu_0, # of connection points: 4
#     Node 26, Type 0, BuildingBlock: CEKHIL_clean_sbu_0, # of connection points: 4
#     Node 27, Type 0, BuildingBlock: CEKHIL_clean_sbu_0, # of connection points: 4
#     Node 28, Type 0, BuildingBlock: CEKHIL_clean_sbu_0, # of connection points: 4
#     Node 29, Type 0, BuildingBlock: CEKHIL_clean_sbu_0, # of connection points: 4
#     Node 30, Type 0, BuildingBlock: CEKHIL_clean_sbu_0, # of connection points: 4
#     Node 31, Type 0, BuildingBlock: CEKHIL_clean_sbu_0, # of connection points: 4
#     Edge 32, Type (0, 0), BuildingBlock: XIVTED_clean_linker_0, # of connection points: 2
#     Edge 33, Type (0, 0), BuildingBlock: XIVTED_clean_linker_0, # of connection points: 2
#     Edge 34, Type (0, 0), BuildingBlock: XIVTED_clean_linker_0, # of connection points: 2
#     Edge 35, Type (0, 0), BuildingBlock: XIVTED_clean_linker_0, # of connection points: 2
#     Edge 36, Type (0, 0), BuildingBlock: XIVTED_clean_linker_0, # of connection points: 2
#     Edge 37, Type (0, 0), BuildingBlock: XIVTED_clean_linker_0, # of connection points: 2
#     Edge 38, Type (0, 0), BuildingBlock: XIVTED_clean_linker_0, # of connection points: 2
#     Edge 39, Type (0, 0), BuildingBlock: XIVTED_clean_linker_0, # of connection points: 2
#     Edge 40, Type (0, 0), BuildingBlock: XIVTED_clean_linker_0, # of connection points: 2
#     Edge 41, Type (0, 0), BuildingBlock: XIVTED_clean_linker_0, # of connection points: 2
#     Edge 42, Type (0, 0), BuildingBlock: XIVTED_clean_linker_0, # of connection points: 2
#     Edge 43, Type (0, 0), BuildingBlock: XIVTED_clean_linker_0, # of connection points: 2
#     Edge 44, Type (0, 0), BuildingBlock: XIVTED_clean_linker_0, # of connection points: 2
#     Edge 45, Type (0, 0), BuildingBlock: XIVTED_clean_linker_0, # of connection points: 2
#     Edge 46, Type (0, 0), BuildingBlock: XIVTED_clean_linker_0, # of connection points: 2
#     Edge 47, Type (0, 0), BuildingBlock: XIVTED_clean_linker_0, # of connection points: 2
#     Edge 48, Type (0, 0), BuildingBlock: XIVTED_clean_linker_0, # of connection points: 2
#     Edge 49, Type (0, 0), BuildingBlock: XIVTED_clean_linker_0, # of connection points: 2
#     Edge 50, Type (0, 0), BuildingBlock: XIVTED_clean_linker_0, # of connection points: 2
#     Edge 51, Type (0, 0), BuildingBlock: XIVTED_clean_linker_0, # of connection points: 2
#     Edge 52, Type (0, 0), BuildingBlock: XIVTED_clean_linker_0, # of connection points: 2
#     Edge 53, Type (0, 0), BuildingBlock: XIVTED_clean_linker_0, # of connection points: 2
#     Edge 54, Type (0, 0), BuildingBlock: XIVTED_clean_linker_0, # of connection points: 2
#     Edge 55, Type (0, 0), BuildingBlock: XIVTED_clean_linker_0, # of connection points: 2
#     Edge 56, Type (0, 0), BuildingBlock: XIVTED_clean_linker_0, # of connection points: 2
#     Edge 57, Type (0, 0), BuildingBlock: XIVTED_clean_linker_0, # of connection points: 2
#     Edge 58, Type (0, 0), BuildingBlock: XIVTED_clean_linker_0, # of connection points: 2
#     Edge 59, Type (0, 0), BuildingBlock: XIVTED_clean_linker_0, # of connection points: 2
#     Edge 60, Type (0, 0), BuildingBlock: XIVTED_clean_linker_0, # of connection points: 2
#     Edge 61, Type (0, 0), BuildingBlock: XIVTED_clean_linker_0, # of connection points: 2
#     Edge 62, Type (0, 0), BuildingBlock: XIVTED_clean_linker_0, # of connection points: 2
#     Edge 63, Type (0, 0), BuildingBlock: XIVTED_clean_linker_0, # of connection points: 2
#     Edge 64, Type (0, 0), BuildingBlock: XIVTED_clean_linker_0, # of connection points: 2
#     Edge 65, Type (0, 0), BuildingBlock: XIVTED_clean_linker_0, # of connection points: 2
#     Edge 66, Type (0, 0), BuildingBlock: XIVTED_clean_linker_0, # of connection points: 2
#     Edge 67, Type (0, 0), BuildingBlock: XIVTED_clean_linker_0, # of connection points: 2
#     Edge 68, Type (0, 0), BuildingBlock: XIVTED_clean_linker_0, # of connection points: 2
#     Edge 69, Type (0, 0), BuildingBlock: XIVTED_clean_linker_0, # of connection points: 2
#     Edge 70, Type (0, 0), BuildingBlock: XIVTED_clean_linker_0, # of connection points: 2
#     Edge 71, Type (0, 0), BuildingBlock: XIVTED_clean_linker_0, # of connection points: 2
#     Edge 72, Type (0, 0), BuildingBlock: XIVTED_clean_linker_0, # of connection points: 2
#     Edge 73, Type (0, 0), BuildingBlock: XIVTED_clean_linker_0, # of connection points: 2
#     Edge 74, Type (0, 0), BuildingBlock: XIVTED_clean_linker_0, # of connection points: 2
#     Edge 75, Type (0, 0), BuildingBlock: XIVTED_clean_linker_0, # of connection points: 2
#     Edge 76, Type (0, 0), BuildingBlock: XIVTED_clean_linker_0, # of connection points: 2
#     Edge 77, Type (0, 0), BuildingBlock: XIVTED_clean_linker_0, # of connection points: 2
#     Edge 78, Type (0, 0), BuildingBlock: XIVTED_clean_linker_0, # of connection points: 2
#     Edge 79, Type (0, 0), BuildingBlock: XIVTED_clean_linker_0, # of connection points: 2
#     Edge 80, Type (0, 0), BuildingBlock: XIVTED_clean_linker_0, # of connection points: 2
#     Edge 81, Type (0, 0), BuildingBlock: XIVTED_clean_linker_0, # of connection points: 2
#     Edge 82, Type (0, 0), BuildingBlock: XIVTED_clean_linker_0, # of connection points: 2
#     Edge 83, Type (0, 0), BuildingBlock: XIVTED_clean_linker_0, # of connection points: 2
#     Edge 84, Type (0, 0), BuildingBlock: XIVTED_clean_linker_0, # of connection points: 2
#     Edge 85, Type (0, 0), BuildingBlock: XIVTED_clean_linker_0, # of connection points: 2
#     Edge 86, Type (0, 0), BuildingBlock: XIVTED_clean_linker_0, # of connection points: 2
#     Edge 87, Type (0, 0), BuildingBlock: XIVTED_clean_linker_0, # of connection points: 2
#     Edge 88, Type (0, 0), BuildingBlock: XIVTED_clean_linker_0, # of connection points: 2
#     Edge 89, Type (0, 0), BuildingBlock: XIVTED_clean_linker_0, # of connection points: 2
#     Edge 90, Type (0, 0), BuildingBlock: XIVTED_clean_linker_0, # of connection points: 2
#     Edge 91, Type (0, 0), BuildingBlock: XIVTED_clean_linker_0, # of connection points: 2
#     Edge 92, Type (0, 0), BuildingBlock: XIVTED_clean_linker_0, # of connection points: 2
#     Edge 93, Type (0, 0), BuildingBlock: XIVTED_clean_linker_0, # of connection points: 2
#     Edge 94, Type (0, 0), BuildingBlock: XIVTED_clean_linker_0, # of connection points: 2
#     Edge 95, Type (0, 0), BuildingBlock: XIVTED_clean_linker_0, # of connection points: 2
# Relax obj value: 0.140
# Max RMSD: 0.209
# Mean RMSD: 0.209
data_MOF--net-uoa--node1-CEKHIL_clean_sbu_0--edge1-XIVTED_clean_linker_0
_symmetry_space_group_name_H-M    P1
_symmetry_Int_Tables_number       1
_symmetry_cell_setting            triclinic
loop_
_symmetry_equiv_pos_as_xyz
'x, y, z'
_cell_length_a     76.11153
_cell_length_b     76.068878
_cell_length_c     27.188365
_cell_angle_alpha  89.99078
_cell_angle_beta   90.035096
_cell_angle_gamma 89.989956
loop_
_atom_site_label
_atom_site_type_symbol
_atom_site_fract_x
_atom_site_fract_y
_atom_site_fract_z
_atom_type_partial_charge
Co0 Co 0.03854 0.10321 -0.00275 0.0
O1 O 0.0543 0.12273 0.00499 0.0
O2 O 0.05877 0.09619 0.03621 0.0
C3 C 0.03403 0.10725 0.91634 0.0
O4 O 0.02562 0.07972 -0.00504 0.0
Co5 Co 0.99995 0.10879 0.96354 0.0
O6 O 0.99981 0.08285 0.95573 0.0
C7 C 0.00951 0.11465 0.06772 0.0
C8 C 0.0643 0.11224 0.03008 0.0
C9 C 0.0115 0.07328 0.97597 0.0
O10 O 0.02542 0.10982 0.05896 0.0
O11 O 0.99778 0.11614 0.03416 0.0
O12 O 0.04781 0.09871 0.93142 0.0
O13 O 0.0243 0.11411 0.95006 0.0
Co14 Co 0.15604 0.78841 0.24197 0.0
O15 O 0.13523 0.80115 0.25992 0.0
O16 O 0.16237 0.80977 0.27701 0.0
C17 C 0.14724 0.78286 0.16444 0.0
O18 O 0.18068 0.77899 0.22738 0.0
Co19 Co 0.15399 0.74909 0.21018 0.0
O20 O 0.1787 0.75271 0.18986 0.0
C21 C 0.15333 0.7584 0.31584 0.0
C22 C 0.14556 0.81287 0.27893 0.0
C23 C 0.1877 0.7657 0.20539 0.0
O24 O 0.15553 0.77478 0.30547 0.0
O25 O 0.15132 0.74644 0.28317 0.0
O26 O 0.15439 0.7979 0.17527 0.0
O27 O 0.14456 0.77241 0.20096 0.0
Co28 Co 0.46511 0.9081 0.49936 0.0
O29 O 0.44912 0.88862 0.502 0.0
O30 O 0.44516 0.9139 0.54097 0.0
C31 C 0.4696 0.90704 0.41769 0.0
O32 O 0.47872 0.93131 0.503 0.0
Co33 Co 0.50366 0.90177 0.46469 0.0
O34 O 0.50448 0.92783 0.46342 0.0
C35 C 0.49339 0.89203 0.56536 0.0
C36 C 0.4395 0.89814 0.53088 0.0
C37 C 0.49323 0.93746 0.48536 0.0
O38 O 0.47815 0.89892 0.55843 0.0
O39 O 0.50498 0.89069 0.53147 0.0
O40 O 0.45575 0.91493 0.43494 0.0
O41 O 0.47905 0.89882 0.4496 0.0
Co42 Co 0.35142 0.22065 0.75576 0.0
O43 O 0.37207 0.20659 0.76609 0.0
O44 O 0.34572 0.20021 0.79569 0.0
C45 C 0.35587 0.22489 0.67487 0.0
O46 O 0.32698 0.23178 0.75036 0.0
Co47 Co 0.35483 0.25947 0.71952 0.0
O48 O 0.32912 0.25741 0.70937 0.0
C49 C 0.36131 0.25094 0.82383 0.0
C50 C 0.3622 0.19594 0.79097 0.0
C51 C 0.31999 0.24531 0.72932 0.0
O52 O 0.35656 0.23489 0.8166 0.0
O53 O 0.36271 0.2623 0.78932 0.0
O54 O 0.34857 0.21043 0.69008 0.0
O55 O 0.36146 0.2353 0.70876 0.0
Co56 Co 0.04295 0.90746 0.47706 0.0
O57 O 0.05773 0.88729 0.46765 0.0
O58 O 0.06288 0.91363 0.43585 0.0
C59 C 0.03911 0.90356 0.55829 0.0
O60 O 0.03081 0.93144 0.48104 0.0
Co61 Co 0.00441 0.90244 0.51387 0.0
O62 O 0.00532 0.92832 0.52209 0.0
C63 C 0.01295 0.8959 0.40981 0.0
C64 C 0.06773 0.89732 0.44121 0.0
C65 C 0.01694 0.9379 0.50155 0.0
O66 O 0.02879 0.90128 0.41695 0.0
O67 O 1.00165 0.89421 0.44433 0.0
O68 O 0.05323 0.9113 0.5423 0.0
O69 O 0.0289 0.89719 0.52499 0.0
Co70 Co 0.35178 0.78806 0.72805 0.0
O71 O 0.37265 0.80075 0.71038 0.0
O72 O 0.34558 0.8094 0.69261 0.0
C73 C 0.36035 0.78269 0.80585 0.0
O74 O 0.3271 0.7787 0.74243 0.0
Co75 Co 0.35378 0.74881 0.76057 0.0
O76 O 0.32907 0.75256 0.78077 0.0
C77 C 0.35475 0.75788 0.65478 0.0
C78 C 0.36239 0.81248 0.69116 0.0
C79 C 0.32007 0.7655 0.76486 0.0
O80 O 0.35247 0.77428 0.66479 0.0
O81 O 0.35668 0.746 0.68771 0.0
O82 O 0.35324 0.7977 0.7946 0.0
O83 O 0.36315 0.77216 0.76958 0.0
Co84 Co 0.46622 0.09879 0.97717 0.0
O85 O 0.45099 0.11889 0.97388 0.0
O86 O 0.44612 0.09371 0.9353 0.0
C87 C 0.47054 0.09981 0.05902 0.0
O88 O 0.47891 0.07506 0.97419 0.0
Co89 Co 0.50489 0.10362 0.01252 0.0
O90 O 0.50467 0.07756 0.01444 0.0
C91 C 0.49534 0.11331 0.91116 0.0
C92 C 0.44104 0.10968 0.94507 0.0
C93 C 0.49311 0.06835 -0.00767 0.0
O94 O 0.47974 0.1073 0.91812 0.0
O95 O 0.50695 0.11416 0.94516 0.0
O96 O 0.45644 0.09246 0.04146 0.0
O97 O 0.48039 0.10761 0.02724 0.0
Co98 Co 0.15929 0.21338 0.22718 0.0
O99 O 0.13919 0.19882 0.21511 0.0
O100 O 0.16599 0.19321 0.18737 0.0
C101 C 0.15364 0.21729 0.30755 0.0
O102 O 0.18328 0.22529 0.23439 0.0
Co103 Co 0.1542 0.252 0.2635 0.0
O104 O 0.17986 0.25081 0.27523 0.0
C105 C 0.14934 0.24342 0.15852 0.0
C106 C 0.14957 0.18856 0.19065 0.0
C107 C 0.18959 0.23909 0.25567 0.0
O108 O 0.15438 0.22749 0.16617 0.0
O109 O 0.14726 0.25475 0.19285 0.0
O110 O 0.1617 0.20314 0.29299 0.0
O111 O 0.14823 0.22762 0.27324 0.0
Co112 Co 0.96999 0.90971 0.98008 0.0
O113 O 0.95991 0.88719 0.96717 0.0
O114 O 0.94823 0.91229 0.94246 0.0
C115 C 0.97547 0.90396 0.0599 0.0
O116 O 0.97695 0.93556 0.98871 0.0
Co117 Co 0.00907 0.91188 0.01514 0.0
O118 O 1.00242 0.93639 0.03086 0.0
C119 C 1.00093 0.90615 0.90997 0.0
C120 C 0.94716 0.89521 0.94507 0.0
C121 C 0.98919 0.94402 0.01158 0.0
O122 O 0.98437 0.90819 0.91804 0.0
O123 O 0.01255 0.90597 0.94406 0.0
O124 O 0.95997 0.90935 0.04657 0.0
O125 O 0.98642 0.9012 0.02472 0.0
Co126 Co 0.84891 0.21259 0.73052 0.0
O127 O 0.86905 0.19833 0.71576 0.0
O128 O 0.84181 0.19197 0.69317 0.0
C129 C 0.85621 0.21727 0.80972 0.0
O130 O 0.82479 0.22389 0.74111 0.0
Co131 Co 0.85344 0.25156 0.76402 0.0
O132 O 0.82814 0.24974 0.78023 0.0
C133 C 0.85621 0.24245 0.65866 0.0
C134 C 0.85835 0.18764 0.69384 0.0
C135 C 0.81844 0.2376 0.76274 0.0
O136 O 0.85209 0.22636 0.66788 0.0
O137 O 0.85849 0.25409 0.69206 0.0
O138 O 0.84823 0.20282 0.79723 0.0
O139 O 0.86056 0.22749 0.774 0.0
Co140 Co 0.53847 0.0989 0.48451 0.0
O141 O 0.54817 0.12094 0.46445 0.0
O142 O 0.5601 0.09511 0.44722 0.0
C143 C 0.53313 0.10713 0.56268 0.0
O144 O 0.53156 0.07345 0.50028 0.0
Co145 Co 0.49934 0.098 0.51841 0.0
O146 O 0.50565 0.074 0.54029 0.0
C147 C 0.50767 0.09969 0.41254 0.0
C148 C 0.56063 0.11218 0.4433 0.0
C149 C 0.51902 0.06575 0.524 0.0
O150 O 0.52413 0.09805 0.42236 0.0
O151 O 0.49579 0.10106 0.44568 0.0
O152 O 0.54865 0.10161 0.55016 0.0
O153 O 0.52204 0.10884 0.52713 0.0
Co154 Co 0.65876 0.78893 0.23022 0.0
O155 O 0.63705 0.79875 0.20789 0.0
O156 O 0.66312 0.81074 0.19434 0.0
C157 C 0.64948 0.78313 0.3072 0.0
O158 O 0.68396 0.78198 0.24876 0.0
Co159 Co 0.6593 0.74959 0.2624 0.0
O160 O 0.68293 0.7558 0.28746 0.0
C161 C 0.6591 0.75857 0.1568 0.0
C162 C 0.64614 0.8113 0.18831 0.0
C163 C 0.69134 0.76932 0.27284 0.0
O164 O 0.66059 0.77497 0.16756 0.0
O165 O 0.65725 0.74649 0.18922 0.0
O166 O 0.65509 0.79875 0.29585 0.0
O167 O 0.64826 0.77222 0.27106 0.0
Co168 Co 0.96324 0.09677 0.49507 0.0
O169 O 0.94844 0.1168 0.50634 0.0
O170 O 0.94222 0.0897 0.53064 0.0
C171 C 0.96906 0.10307 0.41564 0.0
O172 O 0.97528 0.07289 0.48794 0.0
Co173 Co 1.00262 0.10265 0.46788 0.0
O174 O 1.00225 0.0769 0.45578 0.0
C175 C 0.99109 0.10698 0.57033 0.0
C176 C 0.93766 0.10618 0.52816 0.0
C177 C 0.98989 0.0669 0.47062 0.0
O178 O 0.97589 0.10073 0.55926 0.0
O179 O 1.00294 0.11049 0.53842 0.0
O180 O 0.95454 0.09509 0.42735 0.0
O181 O 0.97854 0.10826 0.45215 0.0
Co182 Co 0.65778 0.22103 0.25432 0.0
O183 O 0.63527 0.21139 0.26942 0.0
O184 O 0.66036 0.19921 0.29193 0.0
C185 C 0.65139 0.2265 0.17488 0.0
O186 O 0.68359 0.22776 0.24328 0.0
Co187 Co 0.6597 0.2602 0.22 0.0
O188 O 0.68393 0.2534 0.20172 0.0
C189 C 0.6554 0.25191 0.32543 0.0
C190 C 0.64324 0.19858 0.2914 0.0
C191 C 0.69177 0.24007 0.21983 0.0
O192 O 0.65717 0.23538 0.31648 0.0
O193 O 0.65488 0.2637 0.29182 0.0
O194 O 0.6566 0.21093 0.18812 0.0
O195 O 0.64898 0.23754 0.21014 0.0
Co196 Co 0.53726 0.90581 -0.00844 0.0
O197 O 0.54718 0.88345 0.00724 0.0
O198 O 0.55937 0.90878 0.02751 0.0
C199 C 0.53126 0.89864 0.91291 0.0
O200 O 0.53035 0.93153 0.97941 0.0
Co201 Co 0.49794 0.90753 0.95933 0.0
O202 O 0.50449 0.93163 0.93908 0.0
C203 C 0.50697 0.90463 0.06482 0.0
C204 C 0.56021 0.89166 0.02732 0.0
C205 C 0.51789 0.9396 0.95626 0.0
O206 O 0.52346 0.90576 0.05468 0.0
O207 O 0.49491 0.90402 0.03198 0.0
O208 O 0.54684 0.90412 0.92499 0.0
O209 O 0.52043 0.89655 0.94884 0.0
Co210 Co 0.85075 0.78908 0.75101 0.0
O211 O 0.87216 0.79938 0.77421 0.0
O212 O 0.84571 0.81083 0.78616 0.0
C213 C 0.86048 0.7833 0.67442 0.0
O214 O 0.82578 0.7818 0.73157 0.0
Co215 Co 0.85073 0.74975 0.71902 0.0
O216 O 0.8271 0.75559 0.69325 0.0
C217 C 0.85041 0.75877 0.82466 0.0
C218 C 0.86263 0.81181 0.79285 0.0
C219 C 0.81856 0.76908 0.70745 0.0
O220 O 0.84883 0.77516 0.81384 0.0
O221 O 0.85245 0.74671 0.79228 0.0
O222 O 0.85461 0.79885 0.6854 0.0
O223 O 0.8617 0.77244 0.71073 0.0
Co224 Co 0.54402 0.5998 0.50436 0.0
O225 O 0.56001 0.61914 0.51084 0.0
O226 O 0.56442 0.59272 0.54284 0.0
C227 C 0.5391 0.60373 0.42362 0.0
O228 O 0.53066 0.57647 0.50262 0.0
Co229 Co 0.50536 0.60656 0.47241 0.0
O230 O 0.50477 0.58065 0.46435 0.0
C231 C 0.51603 0.61351 0.57495 0.0
C232 C 0.57002 0.60871 0.53597 0.0
C233 C 0.51628 0.57058 0.48353 0.0
O234 O 0.53135 0.607 0.56639 0.0
O235 O 0.5044 0.61572 0.54146 0.0
O236 O 0.55284 0.59497 0.43806 0.0
O237 O 0.52979 0.61084 0.45777 0.0
Co238 Co 0.6603 0.29452 0.75863 0.0
O239 O 0.6406 0.31002 0.76549 0.0
O240 O 0.66669 0.31445 0.79965 0.0
C241 C 0.65726 0.29045 0.67719 0.0
O242 O 0.68385 0.28155 0.75733 0.0
Co243 Co 0.65435 0.25599 0.72306 0.0
O244 O 0.68031 0.25592 0.71713 0.0
C245 C 0.64678 0.26538 0.82598 0.0
C246 C 0.65065 0.31983 0.79242 0.0
C247 C 0.69005 0.26736 0.73794 0.0
O248 O 0.6529 0.28094 0.81871 0.0
O249 O 0.64509 0.25393 0.7918 0.0
O250 O 0.66529 0.30437 0.69355 0.0
O251 O 0.65014 0.28059 0.71014 0.0
Co252 Co 0.9665 0.40901 0.00859 0.0
O253 O 0.95179 0.38856 0.01253 0.0
O254 O 0.94615 0.41386 0.04968 0.0
C255 C 0.97108 0.4076 0.9269 0.0
O256 O 0.97852 0.43312 0.01029 0.0
Co257 Co 0.00537 0.40476 0.97422 0.0
O258 O 0.0044 0.43077 0.97066 0.0
C259 C 0.99564 0.39479 0.0751 0.0
C260 C 0.94149 0.39771 0.04049 0.0
C261 C 0.99255 0.43996 -0.00837 0.0
O262 O 0.98013 0.40111 0.06833 0.0
O263 O 0.00716 0.39373 0.04093 0.0
O264 O 0.95673 0.41468 0.9437 0.0
O265 O 0.981 0.40024 0.95932 0.0
Co266 Co 0.84931 0.71665 0.25982 0.0
O267 O 0.86863 0.70043 0.26181 0.0
O268 O 0.8434 0.69656 0.30088 0.0
C269 C 0.85006 0.72139 0.17805 0.0
O270 O 0.82622 0.73042 0.26398 0.0
Co271 Co 0.85593 0.75525 0.22617 0.0
O272 O 0.8299 0.75628 0.22494 0.0
C273 C 0.86554 0.74467 0.32678 0.0
C274 C 0.85904 0.69072 0.2903 0.0
C275 C 0.82018 0.74502 0.24657 0.0
O276 O 0.85867 0.72943 0.31932 0.0
O277 O 0.8669 0.75638 0.29317 0.0
O278 O 0.84222 0.70753 0.19541 0.0
O279 O 0.85855 0.73068 0.20985 0.0
Co280 Co 0.53924 0.40808 0.97546 0.0
O281 O 0.55373 0.38761 0.96798 0.0
O282 O 0.56051 0.41409 0.93978 0.0
C283 C 0.53306 0.40343 0.05523 0.0
O284 O 0.52782 0.4324 0.97836 0.0
Co285 Co 0.49967 0.40434 0.00442 0.0
O286 O 0.50091 0.43021 0.01214 0.0
C287 C 0.51095 0.3973 0.90248 0.0
C288 C 0.56486 0.39767 0.94541 0.0
C289 C 0.51355 0.43935 -0.00497 0.0
O290 O 0.52659 0.40281 0.91205 0.0
O291 O 0.49903 0.39545 0.93526 0.0
O292 O 0.54778 0.41094 0.04301 0.0
O293 O 0.52355 0.39786 0.01937 0.0
Co294 Co 0.85248 0.28572 0.22607 0.0
O295 O 0.87277 0.30044 0.2178 0.0
O296 O 0.84664 0.30595 0.18543 0.0
C297 C 0.85598 0.28164 0.30745 0.0
O298 O 0.82838 0.27377 0.2289 0.0
Co299 Co 0.85676 0.24704 0.26268 0.0
O300 O 0.8309 0.24831 0.27056 0.0
C301 C 0.86391 0.25571 0.1588 0.0
C302 C 0.8629 0.31075 0.19178 0.0
C303 C 0.82161 0.26004 0.24943 0.0
O304 O 0.85879 0.27166 0.16577 0.0
O305 O 0.86522 0.24435 0.19337 0.0
O306 O 0.84844 0.29586 0.29136 0.0
O307 O 0.86238 0.27142 0.27422 0.0
Co308 Co 0.96576 0.597 0.47393 0.0
O309 O 0.95089 0.61724 0.46725 0.0
O310 O 0.94447 0.59081 0.43811 0.0
C311 C 0.97211 0.60129 0.55409 0.0
O312 O 0.97793 0.57305 0.47591 0.0
Co313 Co 0.00531 0.60262 0.50021 0.0
O314 O 0.00514 0.57663 0.50708 0.0
C315 C 0.99314 0.60884 0.39914 0.0
C316 C 0.93995 0.60719 0.44401 0.0
C317 C 0.99276 0.56686 0.49112 0.0
O318 O 0.97798 0.60247 0.41005 0.0
O319 O 0.00521 0.61174 0.43092 0.0
O320 O 0.95751 0.59363 0.54161 0.0
O321 O 0.98129 0.60744 0.5182 0.0
Co322 Co 0.6607 0.71685 0.72157 0.0
O323 O 0.64148 0.70054 0.71988 0.0
O324 O 0.66669 0.69677 0.68062 0.0
C325 C 0.65998 0.72162 0.8033 0.0
O326 O 0.6837 0.7307 0.71701 0.0
Co327 Co 0.65402 0.75545 0.75524 0.0
O328 O 0.68005 0.75663 0.7556 0.0
C329 C 0.64425 0.74478 0.65482 0.0
C330 C 0.65111 0.69085 0.69143 0.0
C331 C 0.68973 0.74536 0.73394 0.0
O332 O 0.65119 0.72956 0.66216 0.0
O333 O 0.64291 0.75649 0.68843 0.0
O334 O 0.66791 0.70781 0.78596 0.0
O335 O 0.65144 0.73087 0.77152 0.0
Co336 Co 0.46457 0.41046 0.47561 0.0
O337 O 0.44984 0.39029 0.46611 0.0
O338 O 0.4436 0.41703 0.43889 0.0
C339 C 0.47002 0.40503 0.55542 0.0
O340 O 0.47651 0.43454 0.48103 0.0
Co341 Co 0.50382 0.40534 0.50653 0.0
O342 O 0.50284 0.43105 0.51763 0.0
C343 C 0.49306 0.39931 0.40368 0.0
C344 C 0.43901 0.40061 0.4434 0.0
C345 C 0.49071 0.44082 0.50026 0.0
O346 O 0.47758 0.40536 0.41266 0.0
O347 O 0.50469 0.39683 0.43701 0.0
O348 O 0.45557 0.41297 0.5428 0.0
O349 O 0.47967 0.39955 0.51977 0.0
Co350 Co 0.34798 0.71647 0.21976 0.0
O351 O 0.36809 0.70125 0.21645 0.0
O352 O 0.34271 0.69616 0.17904 0.0
C353 C 0.34945 0.72135 0.3013 0.0
O354 O 0.32416 0.72891 0.21684 0.0
Co355 Co 0.35239 0.75542 0.25373 0.0
O356 O 0.32634 0.75512 0.25481 0.0
C357 C 0.36292 0.74519 0.1536 0.0
C358 C 0.35871 0.69112 0.18847 0.0
C359 C 0.31728 0.74319 0.23376 0.0
O360 O 0.35629 0.72979 0.16006 0.0
O361 O 0.36396 0.75673 0.18775 0.0
O362 O 0.34205 0.70708 0.28496 0.0
O363 O 0.35691 0.73104 0.2686 0.0
Co364 Co 0.04166 0.60055 0.97561 0.0
O365 O 0.05606 0.62075 0.96304 0.0
O366 O 0.06211 0.59382 0.93695 0.0
C367 C 0.03748 0.60654 0.05564 0.0
O368 O 0.03017 0.57642 0.98402 0.0
Co369 Co 1.00302 0.60509 0.01024 0.0
O370 O 0.00467 0.5796 0.02482 0.0
C371 C 0.01163 0.60886 0.9048 0.0
C372 C 0.06659 0.61031 0.93969 0.0
C373 C 0.01664 0.56996 0.00618 0.0
O374 O 0.02775 0.60478 0.91352 0.0
O375 O 1.00009 0.61073 0.93865 0.0
O376 O 0.05163 0.59841 0.04163 0.0
O377 O 0.02716 0.61188 0.02115 0.0
Co378 Co 0.15655 0.28627 0.72681 0.0
O379 O 0.13492 0.29863 0.71768 0.0
O380 O 0.16052 0.30768 0.68864 0.0
C381 C 0.15222 0.28113 0.80733 0.0
O382 O 0.18171 0.27673 0.73164 0.0
Co383 Co 0.15524 0.24697 0.76063 0.0
O384 O 0.18067 0.2508 0.77168 0.0
C385 C 0.1482 0.25609 0.65701 0.0
C386 C 0.14374 0.3105 0.69416 0.0
C387 C 0.18926 0.26345 0.75248 0.0
O388 O 0.15234 0.27226 0.66506 0.0
O389 O 0.14726 0.24444 0.69087 0.0
O390 O 0.15865 0.29613 0.79319 0.0
O391 O 0.14746 0.27065 0.77267 0.0
Co392 Co 0.46807 0.60088 0.00029 0.0
O393 O 0.45433 0.62157 0.01278 0.0
O394 O 0.44625 0.59451 0.03293 0.0
C395 C 0.47515 0.608 0.92227 0.0
O396 O 0.47866 0.57644 -0.00891 0.0
Co397 Co 0.50803 0.60455 0.97656 0.0
O398 O 0.50621 0.57905 0.96177 0.0
C399 C 0.49567 0.6083 0.07849 0.0
C400 C 0.44264 0.61124 0.03187 0.0
C401 C 0.49303 0.56972 0.97435 0.0
O402 O 0.48024 0.60306 0.0659 0.0
O403 O 0.50798 0.61156 0.04773 0.0
O404 O 0.46004 0.60079 0.93183 0.0
O405 O 0.48454 0.61202 0.96007 0.0
Co406 Co 0.15962 0.71698 0.75079 0.0
O407 O 0.1395 0.70175 0.7526 0.0
O408 O 0.16464 0.69645 0.79096 0.0
C409 C 0.15872 0.72217 0.66937 0.0
O410 O 0.18342 0.72941 0.75515 0.0
Co411 Co 0.15525 0.75606 0.71794 0.0
O412 O 0.1813 0.75579 0.71798 0.0
C413 C 0.14415 0.74537 0.81717 0.0
C414 C 0.1487 0.69145 0.78053 0.0
C415 C 0.19031 0.74379 0.73892 0.0
O416 O 0.15093 0.73003 0.81055 0.0
O417 O 0.14321 0.75702 0.78331 0.0
O418 O 0.16599 0.70783 0.6857 0.0
O419 O 0.15099 0.73173 0.70191 0.0
Co420 Co 0.03893 0.40611 0.50057 0.0
O421 O 0.05088 0.38527 0.52216 0.0
O422 O 0.06033 0.41244 0.53545 0.0
C423 C 0.0335 0.3966 0.42358 0.0
O424 O 0.02997 0.43072 0.48313 0.0
Co425 Co 0.99963 0.404 0.46866 0.0
O426 O 1.00354 0.42849 0.44649 0.0
C427 C 0.00879 0.40434 0.57429 0.0
C428 C 0.06266 0.3956 0.5408 0.0
C429 C 0.01662 0.43758 0.46096 0.0
O430 O 0.0251 0.40668 0.56366 0.0
O431 O 0.99684 0.40186 0.54183 0.0
O432 O 0.04868 0.40342 0.43447 0.0
O433 O 0.0229 0.39442 0.46005 0.0
Co434 Co 0.34809 0.294 0.25303 0.0
O435 O 0.36803 0.30878 0.26539 0.0
O436 O 0.34095 0.31457 0.2906 0.0
C437 C 0.35452 0.28935 0.17332 0.0
O438 O 0.32417 0.282 0.24504 0.0
Co439 Co 0.35334 0.25508 0.21953 0.0
O440 O 0.3278 0.2562 0.20582 0.0
C441 C 0.35718 0.26452 0.32446 0.0
C442 C 0.35736 0.3193 0.28795 0.0
C443 C 0.31797 0.26808 0.22416 0.0
O444 O 0.35244 0.28046 0.31553 0.0
O445 O 0.35943 0.25292 0.29093 0.0
O446 O 0.34629 0.30359 0.1863 0.0
O447 O 0.35959 0.27933 0.20874 0.0
H448 H 0.98291 0.08412 0.64359 0.0
H449 H 0.02142 0.13553 0.86725 0.0
H450 H 0.01081 0.13241 0.61504 0.0
H451 H 0.0344 0.08076 0.84875 0.0
H452 H 0.01066 0.13635 0.78191 0.0
H453 H 0.99429 0.08435 0.72818 0.0
C454 C 0.99116 0.09493 0.65546 0.0
C455 C 0.99595 0.10829 0.62258 0.0
C456 C 0.01595 0.12422 0.79665 0.0
C457 C 0.00875 0.10865 0.71856 0.0
C458 C 0.02204 0.12372 0.84501 0.0
C459 C 0.02883 0.10808 0.86447 0.0
C460 C 0.01609 0.10879 0.76858 0.0
C461 C 0.02938 0.09309 0.83461 0.0
C462 C 0.99775 0.09493 0.70331 0.0
C463 C 0.00687 0.12188 0.63944 0.0
N464 N 0.02279 0.09372 0.78814 0.0
N465 N 0.01282 0.12181 0.68661 0.0
H466 H 0.13499 0.77817 0.84982 0.0
H467 H 0.13628 0.75072 0.13285 0.0
H468 H 0.14177 0.72464 0.89968 0.0
H469 H 0.14864 0.80288 0.08075 0.0
H470 H 0.13089 0.74149 0.04815 0.0
H471 H 0.13199 0.78758 0.9351 0.0
C472 C 0.13559 0.76832 0.87856 0.0
C473 C 0.13905 0.75061 0.86755 0.0
C474 C 0.13469 0.75497 0.05534 0.0
C475 C 0.13565 0.7614 0.96516 0.0
C476 C 0.1378 0.76025 0.10359 0.0
C477 C 0.14319 0.77752 0.11365 0.0
C478 C 0.13685 0.76708 0.01696 0.0
C479 C 0.14474 0.78938 0.07444 0.0
C480 C 0.13395 0.77376 0.92724 0.0
C481 C 0.13945 0.73847 0.90644 0.0
N482 N 0.14165 0.78391 0.02766 0.0
N483 N 0.13797 0.74413 0.95363 0.0
H484 H 0.52767 0.90021 0.14639 0.0
H485 H 0.45077 0.91976 0.3391 0.0
H486 H 0.47397 0.90986 0.10233 0.0
H487 H 0.50028 0.89576 0.37779 0.0
H488 H 0.45981 0.91954 0.25237 0.0
H489 H 0.51854 0.90169 0.23231 0.0
C490 C 0.51396 0.9026 0.15472 0.0
C491 C 0.50156 0.90483 0.11703 0.0
C492 C 0.46865 0.91434 0.28 0.0
C493 C 0.49106 0.90668 0.21535 0.0
C494 C 0.46353 0.91453 0.32937 0.0
C495 C 0.47478 0.90772 0.36554 0.0
C496 C 0.48517 0.90747 0.2671 0.0
C497 C 0.49118 0.90109 0.35109 0.0
C498 C 0.50875 0.90343 0.2038 0.0
C499 C 0.48396 0.90792 0.13015 0.0
N500 N 0.49588 0.90115 0.30304 0.0
N501 N 0.47924 0.90882 0.17825 0.0
H502 H 0.35969 0.28507 0.40709 0.0
H503 H 0.34694 0.20534 0.59368 0.0
H504 H 0.35807 0.23088 0.35968 0.0
H505 H 0.36684 0.25612 0.63758 0.0
H506 H 0.34841 0.21481 0.50745 0.0
H507 H 0.36002 0.27505 0.49253 0.0
C508 C 0.35952 0.27109 0.41459 0.0
C509 C 0.35885 0.25881 0.37616 0.0
C510 C 0.3525 0.22381 0.5361 0.0
C511 C 0.35898 0.2473 0.47365 0.0
C512 C 0.3516 0.21845 0.58518 0.0
C513 C 0.35671 0.22999 0.62271 0.0
C514 C 0.35835 0.24088 0.52485 0.0
C515 C 0.36271 0.24682 0.6098 0.0
C516 C 0.35972 0.26538 0.46333 0.0
C517 C 0.35866 0.24083 0.3881 0.0
N518 N 0.36326 0.25179 0.56198 0.0
N519 N 0.35857 0.23561 0.43582 0.0
H520 H 0.03459 0.90941 0.87589 0.0
H521 H 0.00907 0.89025 0.59697 0.0
H522 H 0.98143 0.89968 0.82705 0.0
H523 H 0.05762 0.91562 0.63836 0.0
H524 H 1.00011 0.89003 0.6828 0.0
H525 H 0.04448 0.90814 0.79062 0.0
C526 C 0.02499 0.9069 0.84731 0.0
C527 C 0.00711 0.90467 0.85867 0.0
C528 C 0.0127 0.89568 0.67317 0.0
C529 C 0.01843 0.90322 0.7611 0.0
C530 C 0.01786 0.8958 0.62416 0.0
C531 C 0.03407 0.9031 0.61052 0.0
C532 C 0.02387 0.90278 0.70899 0.0
C533 C 0.04498 0.90994 0.64738 0.0
C534 C 0.03067 0.90628 0.79864 0.0
C535 C 0.99531 0.90155 0.82003 0.0
N536 N 0.03968 0.90962 0.69514 0.0
N537 N 1.00119 0.90088 0.77294 0.0
H538 H 0.37158 0.75072 0.83809 0.0
H539 H 0.3711 0.77825 0.12105 0.0
H540 H 0.35821 0.80274 0.88935 0.0
H541 H 0.36577 0.72459 0.07105 0.0
H542 H 0.37406 0.78776 0.03583 0.0
H543 H 0.37661 0.74161 0.92304 0.0
C544 C 0.36976 0.76025 0.86722 0.0
C545 C 0.3642 0.77744 0.85683 0.0
C546 C 0.37242 0.7739 0.04365 0.0
C547 C 0.37012 0.76713 0.95384 0.0
C548 C 0.37081 0.76841 0.0923 0.0
C549 C 0.36781 0.7506 0.10323 0.0
C550 C 0.37116 0.7615 0.0057 0.0
C551 C 0.36775 0.73848 0.06433 0.0
C552 C 0.37266 0.75503 0.91563 0.0
C553 C 0.36226 0.7893 0.8959 0.0
N554 N 0.36922 0.74418 0.01718 0.0
N555 N 0.36515 0.78389 0.94284 0.0
H556 H 0.45111 0.08751 0.13696 0.0
H557 H 0.52839 0.10369 0.33112 0.0
H558 H 0.50139 0.11017 0.10002 0.0
H559 H 0.47449 0.09524 0.37491 0.0
H560 H 0.51921 0.10294 0.24523 0.0
H561 H 0.45997 0.08707 0.22387 0.0
C562 C 0.464 0.09232 0.14711 0.0
C563 C 0.47553 0.09892 0.11134 0.0
C564 C 0.50938 0.10129 0.27364 0.0
C565 C 0.48572 0.09839 0.21005 0.0
C566 C 0.51462 0.10168 0.32272 0.0
C567 C 0.50219 0.09958 0.36035 0.0
C568 C 0.49161 0.09863 0.26192 0.0
C569 C 0.48451 0.09704 0.34712 0.0
C570 C 0.46902 0.09212 0.1966 0.0
C571 C 0.49207 0.10501 0.12637 0.0
N572 N 0.47975 0.09657 0.29894 0.0
N573 N 0.49668 0.10456 0.17451 0.0
H574 H 0.14349 0.27636 0.57461 0.0
H575 H 0.16169 0.19768 0.38936 0.0
H576 H 0.14785 0.22236 0.62244 0.0
H577 H 0.14013 0.24762 0.34389 0.0
H578 H 0.15794 0.2066 0.47547 0.0
H579 H 0.14308 0.26624 0.48936 0.0
C580 C 0.14422 0.26239 0.56724 0.0
C581 C 0.14587 0.25021 0.6057 0.0
C582 C 0.15396 0.21553 0.4465 0.0
C583 C 0.14565 0.23858 0.50841 0.0
C584 C 0.15618 0.21048 0.39751 0.0
C585 C 0.15136 0.22199 0.3596 0.0
C586 C 0.14709 0.23224 0.45729 0.0
C587 C 0.14416 0.23838 0.37201 0.0
C588 C 0.14397 0.25661 0.51861 0.0
C589 C 0.14663 0.23223 0.59397 0.0
N590 N 0.14237 0.24307 0.41979 0.0
N591 N 0.14674 0.22697 0.54631 0.0
H592 H 0.97915 0.89269 0.37632 0.0
H593 H 0.00751 0.89416 0.09389 0.0
H594 H 0.03305 0.89333 0.32658 0.0
H595 H 0.95507 0.90679 0.14297 0.0
H596 H 0.01624 0.88916 0.1788 0.0
H597 H 0.9694 0.8927 0.29074 0.0
C598 C 0.98896 0.89257 0.34748 0.0
C599 C 0.00697 0.89323 0.35868 0.0
C600 C 1.00282 0.89303 0.17109 0.0
C601 C 0.99585 0.89335 0.26084 0.0
C602 C 0.99782 0.89592 0.12261 0.0
C603 C 0.98058 0.90108 0.11147 0.0
C604 C 0.9905 0.89524 0.20887 0.0
C605 C 0.96854 0.90298 0.15011 0.0
C606 C 0.98335 0.8927 0.29865 0.0
C607 C 0.01904 0.89304 0.31973 0.0
N608 N 0.97375 0.90009 0.19729 0.0
N609 N 0.01325 0.89322 0.27253 0.0
H610 H 0.86665 0.22178 0.12616 0.0
H611 H 0.86952 0.24825 0.8426 0.0
H612 H 0.86716 0.27557 0.07497 0.0
H613 H 0.85061 0.19795 0.8937 0.0
H614 H 0.87439 0.25718 0.92756 0.0
H615 H 0.86689 0.21176 0.04092 0.0
C616 C 0.86707 0.23151 0.09708 0.0
C617 C 0.86668 0.24959 0.10779 0.0
C618 C 0.8692 0.24419 0.9202 0.0
C619 C 0.86689 0.2381 0.01026 0.0
C620 C 0.8664 0.23906 0.87173 0.0
C621 C 0.85946 0.22239 0.86116 0.0
C622 C 0.86518 0.23253 0.95845 0.0
C623 C 0.85583 0.21098 0.90034 0.0
C624 C 0.86708 0.22574 0.04846 0.0
C625 C 0.86726 0.26152 0.06848 0.0
N626 N 0.85872 0.21628 0.94744 0.0
N627 N 0.86726 0.25556 0.02141 0.0
H628 H 0.47437 0.1176 0.82997 0.0
H629 H 0.55422 0.10653 0.64435 0.0
H630 H 0.5287 0.1183 0.876 0.0
H631 H 0.50096 0.11664 0.59759 0.0
H632 H 0.54536 0.11212 0.72947 0.0
H633 H 0.48396 0.11924 0.74448 0.0
C634 C 0.48831 0.11833 0.82218 0.0
C635 C 0.50074 0.11752 0.86025 0.0
C636 C 0.53564 0.11324 0.70051 0.0
C637 C 0.51182 0.11911 0.76239 0.0
C638 C 0.54068 0.10996 0.65201 0.0
C639 C 0.52825 0.11093 0.61403 0.0
C640 C 0.51803 0.11735 0.71102 0.0
C641 C 0.51093 0.11558 0.62585 0.0
C642 C 0.49378 0.11925 0.77332 0.0
C643 C 0.51863 0.11873 0.8479 0.0
N644 N 0.5063 0.11847 0.67336 0.0
N645 N 0.52364 0.11918 0.79999 0.0
H646 H 0.64174 0.72349 0.57354 0.0
H647 H 0.64843 0.80399 0.38915 0.0
H648 H 0.63639 0.77759 0.6195 0.0
H649 H 0.64098 0.75045 0.34091 0.0
H650 H 0.64274 0.79465 0.47377 0.0
H651 H 0.63952 0.73298 0.48797 0.0
C652 C 0.63986 0.73733 0.56574 0.0
C653 C 0.63958 0.74978 0.60384 0.0
C654 C 0.64221 0.78497 0.44461 0.0
C655 C 0.63733 0.76075 0.50591 0.0
C656 C 0.64555 0.79028 0.39638 0.0
C657 C 0.64538 0.77793 0.35814 0.0
C658 C 0.6389 0.76715 0.45465 0.0
C659 C 0.6414 0.76038 0.36941 0.0
C660 C 0.6386 0.74274 0.51683 0.0
C661 C 0.63688 0.76752 0.59142 0.0
N662 N 0.63849 0.75547 0.41673 0.0
N663 N 0.63616 0.7725 0.54351 0.0
H664 H 0.94988 0.09816 0.33143 0.0
H665 H 0.03008 0.11616 0.15082 0.0
H666 H 1.00089 0.11467 0.38319 0.0
H667 H 0.97593 0.11704 0.10309 0.0
H668 H 0.02002 0.11476 0.23617 0.0
H669 H 0.95956 0.10346 0.24676 0.0
C670 C 0.96311 0.10287 0.32496 0.0
C671 C 0.97462 0.10593 0.36429 0.0
C672 C 0.01037 0.11545 0.20696 0.0
C673 C 0.98577 0.11198 0.26785 0.0
C674 C 0.0161 0.11628 0.15822 0.0
C675 C 0.00385 0.11658 0.11958 0.0
C676 C 0.99229 0.11465 0.21707 0.0
C677 C 0.98588 0.11677 0.13153 0.0
C678 C 0.96859 0.10599 0.27672 0.0
C679 C 0.9916 0.11211 0.35391 0.0
N680 N 0.98065 0.11557 0.17914 0.0
N681 N 0.99671 0.11482 0.30667 0.0
H682 H 0.6536 0.20569 0.09276 0.0
H683 H 0.64354 0.28613 0.90789 0.0
H684 H 0.64254 0.25876 0.13969 0.0
H685 H 0.64227 0.23191 0.86076 0.0
H686 H 0.64224 0.27628 -0.00677 0.0
H687 H 0.64917 0.21487 0.00725 0.0
C688 C 0.65023 0.21925 0.08505 0.0
C689 C 0.6486 0.23153 0.12319 0.0
C690 C 0.64206 0.26654 0.96418 0.0
C691 C 0.64349 0.24209 0.02592 0.0
C692 C 0.6428 0.27217 0.91543 0.0
C693 C 0.64324 0.25983 0.8771 0.0
C694 C 0.64203 0.24846 0.97469 0.0
C695 C 0.64206 0.2419 0.8891 0.0
C696 C 0.64761 0.22446 0.03634 0.0
C697 C 0.64407 0.2489 0.11132 0.0
N698 N 0.64176 0.23674 0.93689 0.0
N699 N 0.6418 0.25369 0.06371 0.0
H700 H 0.47216 0.88863 0.64626 0.0
H701 H 0.55222 0.89844 0.83113 0.0
H702 H 0.52643 0.88533 0.60064 0.0
H703 H 0.49881 0.8898 0.87868 0.0
H704 H 0.54317 0.89236 0.74644 0.0
H705 H 0.48165 0.88693 0.73186 0.0
C706 C 0.48605 0.8873 0.65417 0.0
C707 C 0.49854 0.88748 0.6162 0.0
C708 C 0.53346 0.89167 0.77548 0.0
C709 C 0.50949 0.88583 0.7141 0.0
C710 C 0.5386 0.89526 0.82372 0.0
C711 C 0.52619 0.89483 0.86176 0.0
C712 C 0.51576 0.88783 0.7653 0.0
C713 C 0.50876 0.89044 0.85031 0.0
C714 C 0.49147 0.88635 0.70308 0.0
C715 C 0.51634 0.88546 0.62868 0.0
N716 N 0.50403 0.88727 0.80303 0.0
N717 N 0.52131 0.88504 0.67661 0.0
H718 H 0.86161 0.80405 0.59227 0.0
H719 H 0.86774 0.72341 0.40826 0.0
H720 H 0.86896 0.75055 0.64096 0.0
H721 H 0.87355 0.77744 0.36208 0.0
H722 H 0.86998 0.73293 0.49382 0.0
H723 H 0.86718 0.79461 0.5077 0.0
C724 C 0.86445 0.79033 0.58516 0.0
C725 C 0.86462 0.77802 0.62353 0.0
C726 C 0.87099 0.74267 0.46491 0.0
C727 C 0.87095 0.76712 0.52702 0.0
C728 C 0.86972 0.73724 0.416 0.0
C729 C 0.87013 0.74967 0.37783 0.0
C730 C 0.87243 0.76066 0.47576 0.0
C731 C 0.87295 0.76739 0.3902 0.0
C732 C 0.86772 0.78496 0.53694 0.0
C733 C 0.86854 0.76044 0.61237 0.0
N734 N 0.87369 0.77238 0.4381 0.0
N735 N 0.87136 0.75548 0.56506 0.0
H736 H 0.48774 0.58387 0.14793 0.0
H737 H 0.52656 0.63249 0.3772 0.0
H738 H 0.51459 0.63325 0.12726 0.0
H739 H 0.53885 0.57779 0.35404 0.0
H740 H 0.51534 0.63426 0.29261 0.0
H741 H 0.49912 0.58263 0.23258 0.0
C742 C 0.49573 0.5946 0.16162 0.0
C743 C 0.50024 0.60872 0.13099 0.0
C744 C 0.52057 0.62193 0.30613 0.0
C745 C 0.51305 0.60739 0.22685 0.0
C746 C 0.52694 0.62089 0.35407 0.0
C747 C 0.5337 0.60501 0.37201 0.0
C748 C 0.52041 0.6068 0.27682 0.0
C749 C 0.53389 0.5903 0.34104 0.0
C750 C 0.50234 0.59376 0.20944 0.0
C751 C 0.51085 0.62217 0.14997 0.0
N752 N 0.52707 0.59146 0.29489 0.0
N753 N 0.51681 0.62127 0.19702 0.0
H754 H 0.64945 0.23187 0.40742 0.0
H755 H 0.66922 0.30929 0.59776 0.0
H756 H 0.65993 0.28522 0.3615 0.0
H757 H 0.64428 0.26036 0.63772 0.0
H758 H 0.66818 0.30025 0.51111 0.0
H759 H 0.64968 0.24163 0.49291 0.0
C760 C 0.65176 0.24564 0.41527 0.0
C761 C 0.65467 0.25773 0.37722 0.0
C762 C 0.66292 0.29155 0.53897 0.0
C763 C 0.65509 0.26897 0.47499 0.0
C764 C 0.66356 0.29667 0.5883 0.0
C765 C 0.65688 0.28553 0.62485 0.0
C766 C 0.65571 0.27513 0.52649 0.0
C767 C 0.64963 0.26934 0.61074 0.0
C768 C 0.65185 0.25121 0.46407 0.0
C769 C 0.65754 0.27544 0.38964 0.0
N770 N 0.64931 0.26461 0.56271 0.0
N771 N 0.65778 0.28051 0.43751 0.0
H772 H 0.02983 0.40306 0.65607 0.0
H773 H 0.95153 0.41849 0.84751 0.0
H774 H 0.97553 0.40778 0.61157 0.0
H775 H 1.00261 0.39844 0.88781 0.0
H776 H 0.96072 0.41843 0.76089 0.0
H777 H 0.02063 0.40505 0.74191 0.0
C778 C 0.01597 0.4045 0.66429 0.0
C779 C 1.00342 0.40514 0.62651 0.0
C780 C 0.96988 0.41407 0.78885 0.0
C781 C 0.99284 0.40756 0.7247 0.0
C782 C 0.96467 0.41416 0.83816 0.0
C783 C 0.97631 0.40838 0.87476 0.0
C784 C 0.98688 0.40836 0.77642 0.0
C785 C 0.99319 0.40292 0.86078 0.0
C786 C 0.01073 0.40562 0.71331 0.0
C787 C 0.98565 0.40706 0.63948 0.0
N788 N 0.99796 0.40306 0.81276 0.0
N789 N 0.98088 0.40824 0.6875 0.0
H790 H 0.83684 0.70262 0.1002 0.0
H791 H 0.85338 0.77986 0.90595 0.0
H792 H 0.86059 0.75237 0.13756 0.0
H793 H 0.84537 0.72579 0.86289 0.0
H794 H 0.85212 0.77087 -0.00786 0.0
H795 H 0.83596 0.71181 0.01366 0.0
C796 C 0.8418 0.71548 0.09022 0.0
C797 C 0.84887 0.72673 0.12599 0.0
C798 C 0.85065 0.76098 0.96378 0.0
C799 C 0.84782 0.73732 0.0276 0.0
C800 C 0.85132 0.7661 0.91456 0.0
C801 C 0.84959 0.75354 0.87706 0.0
C802 C 0.84805 0.74321 0.9757 0.0
C803 C 0.84694 0.7359 0.89054 0.0
C804 C 0.84134 0.72069 0.04092 0.0
C805 C 0.8551 0.74325 0.11116 0.0
N806 N 0.84621 0.73126 0.93877 0.0
N807 N 0.8544 0.74806 0.06314 0.0
H808 H 0.50014 0.39529 0.08645 0.0
H809 H 0.5258 0.39102 0.3694 0.0
H810 H 0.55213 0.40756 0.14 0.0
H811 H 0.47285 0.40169 0.32002 0.0
H812 H 0.53554 0.39075 0.28413 0.0
H813 H 0.49004 0.39206 0.17104 0.0
C814 C 0.50945 0.39733 0.11603 0.0
C815 C 0.52699 0.40182 0.10633 0.0
C816 C 0.5218 0.39308 0.29208 0.0
C817 C 0.51554 0.39784 0.20296 0.0
C818 C 0.51615 0.39314 0.34071 0.0
C819 C 0.49848 0.39666 0.35205 0.0
C820 C 0.50969 0.39637 0.25442 0.0
C821 C 0.48662 0.39912 0.3131 0.0
C822 C 0.50365 0.39547 0.16423 0.0
C823 C 0.53847 0.40422 0.14602 0.0
N824 N 0.49247 0.39901 0.2659 0.0
N825 N 0.53255 0.40212 0.1928 0.0
H826 H 0.84549 0.30099 0.38756 0.0
H827 H 0.85924 0.22189 0.57627 0.0
H828 H 0.8672 0.25069 0.3461 0.0
H829 H 0.85546 0.27605 0.62295 0.0
H830 H 0.85941 0.23177 0.49071 0.0
H831 H 0.84618 0.29164 0.47401 0.0
C832 C 0.85037 0.28801 0.39663 0.0
C833 C 0.85625 0.27658 0.35972 0.0
C834 C 0.85864 0.24148 0.51977 0.0
C835 C 0.85698 0.26582 0.45781 0.0
C836 C 0.85852 0.23585 0.56857 0.0
C837 C 0.85737 0.24815 0.60683 0.0
C838 C 0.85735 0.25951 0.50917 0.0
C839 C 0.85647 0.26609 0.59465 0.0
C840 C 0.85082 0.28271 0.44584 0.0
C841 C 0.86249 0.25992 0.37336 0.0
N842 N 0.85636 0.27123 0.54684 0.0
N843 N 0.8626 0.25501 0.42127 0.0
H844 H 0.97781 0.60987 0.87053 0.0
H845 H 0.00429 0.61175 0.58684 0.0
H846 H 0.03172 0.60999 0.82082 0.0
H847 H 0.9535 0.59452 0.63829 0.0
H848 H 0.01394 0.61493 0.67205 0.0
H849 H 0.96808 0.60856 0.78516 0.0
C850 C 0.98764 0.60982 0.84172 0.0
C851 C 0.00566 0.60996 0.85302 0.0
C852 C 1.0007 0.61043 0.6647 0.0
C853 C 0.9945 0.60837 0.75507 0.0
C854 C 0.99517 0.60861 0.61609 0.0
C855 C 0.97808 0.60282 0.60553 0.0
C856 C 0.98899 0.60663 0.70307 0.0
C857 C 0.96681 0.59896 0.64486 0.0
C858 C 0.98203 0.60893 0.79297 0.0
C859 C 0.01771 0.60981 0.81394 0.0
N860 N 0.97245 0.60102 0.69199 0.0
N861 N 0.01191 0.60901 0.76669 0.0
H862 H 0.65651 0.77982 0.07575 0.0
H863 H 0.6731 0.7028 0.88117 0.0
H864 H 0.66378 0.72557 0.11829 0.0
H865 H 0.64928 0.75255 0.84383 0.0
H866 H 0.67387 0.71194 0.96773 0.0
H867 H 0.65805 0.77101 -0.01049 0.0
C868 C 0.65844 0.76606 0.06702 0.0
C869 C 0.65991 0.7534 0.10439 0.0
C870 C 0.66852 0.72083 0.94045 0.0
C871 C 0.66171 0.74326 0.00569 0.0
C872 C 0.66813 0.71566 0.89114 0.0
C873 C 0.66109 0.72693 0.85537 0.0
C874 C 0.66202 0.73745 0.95377 0.0
C875 C 0.65479 0.74343 0.87022 0.0
C876 C 0.65926 0.76104 0.01776 0.0
C877 C 0.66241 0.73576 0.09075 0.0
N878 N 0.65544 0.74821 0.91826 0.0
N879 N 0.66327 0.73122 0.04248 0.0
H880 H 0.53173 0.3984 0.8198 0.0
H881 H 0.45071 0.40981 0.63941 0.0
H882 H 0.47799 0.39098 0.8668 0.0
H883 H 0.50229 0.39509 0.5878 0.0
H884 H 0.46083 0.40541 0.72424 0.0
H885 H 0.5216 0.39891 0.73439 0.0
C886 C 0.51786 0.39667 0.81224 0.0
C887 C 0.50568 0.39487 0.85063 0.0
C888 C 0.46987 0.4031 0.69418 0.0
C889 C 0.49405 0.39577 0.75338 0.0
C890 C 0.46414 0.40572 0.64596 0.0
C891 C 0.4757 0.40287 0.60673 0.0
C892 C 0.48732 0.39789 0.70291 0.0
C893 C 0.49295 0.39748 0.61703 0.0
C894 C 0.5121 0.39699 0.76354 0.0
C895 C 0.48787 0.39257 0.83854 0.0
N896 N 0.49829 0.39528 0.66418 0.0
N897 N 0.48256 0.39334 0.791 0.0
H898 H 0.35863 0.75314 0.33848 0.0
H899 H 0.35184 0.72434 0.61901 0.0
H900 H 0.33968 0.70201 0.38238 0.0
H901 H 0.35592 0.77844 0.5719 0.0
H902 H 0.34952 0.71529 0.53312 0.0
H903 H 0.35952 0.76201 0.42425 0.0
C904 C 0.35457 0.74377 0.36621 0.0
C905 C 0.34909 0.72678 0.3533 0.0
C906 C 0.3509 0.72913 0.54166 0.0
C907 C 0.35028 0.73687 0.45193 0.0
C908 C 0.35237 0.73433 0.59066 0.0
C909 C 0.35416 0.75221 0.60277 0.0
C910 C 0.35142 0.74186 0.50442 0.0
C911 C 0.35458 0.76453 0.56439 0.0
C912 C 0.35508 0.74888 0.41525 0.0
C913 C 0.34398 0.71523 0.39085 0.0
N914 N 0.35328 0.75911 0.51695 0.0
N915 N 0.34483 0.72045 0.43869 0.0
H916 H 0.02479 0.63554 0.10112 0.0
H917 H 0.98394 0.58696 0.3247 0.0
H918 H 0.0381 0.58119 0.1263 0.0
H919 H 0.01371 0.63395 0.35567 0.0
H920 H 0.99581 0.58692 0.24079 0.0
H921 H 0.0136 0.63748 0.18594 0.0
C922 C 0.02544 0.62409 0.12477 0.0
C923 C 0.03241 0.60822 0.10737 0.0
C924 C 0.99953 0.59731 0.26599 0.0
C925 C 0.01915 0.61017 0.20243 0.0
C926 C 0.99265 0.59748 0.31345 0.0
C927 C 0.99788 0.61051 0.3469 0.0
C928 C 0.01127 0.61052 0.25167 0.0
C929 C 0.00942 0.6237 0.3308 0.0
C930 C 0.0191 0.62522 0.17278 0.0
C931 C 0.03296 0.59368 0.13889 0.0
N932 N 0.01568 0.62346 0.28397 0.0
N933 N 0.02609 0.5949 0.18489 0.0
H934 H 0.14219 0.24934 0.84272 0.0
H935 H 0.14717 0.27725 0.1248 0.0
H936 H 0.1587 0.30097 0.88976 0.0
H937 H 0.14691 0.22327 0.0753 0.0
H938 H 0.14678 0.28694 0.0392 0.0
H939 H 0.13961 0.24044 0.92834 0.0
C940 C 0.14531 0.25881 0.87112 0.0
C941 C 0.15079 0.27589 0.85921 0.0
C942 C 0.14673 0.27299 0.04719 0.0
C943 C 0.14771 0.26579 0.95733 0.0
C944 C 0.14683 0.26742 0.096 0.0
C945 C 0.14719 0.24939 0.10725 0.0
C946 C 0.14681 0.26045 0.00943 0.0
C947 C 0.14678 0.23728 0.06837 0.0
C948 C 0.14382 0.25371 0.91999 0.0
C949 C 0.15453 0.28765 0.89749 0.0
N950 N 0.14664 0.24305 0.02115 0.0
N951 N 0.1529 0.28237 0.94505 0.0
H952 H 0.48367 0.6234 0.60907 0.0
H953 H 0.50853 0.61593 0.89323 0.0
H954 H 0.53621 0.61116 0.65887 0.0
H955 H 0.45633 0.6069 0.8366 0.0
H956 H 0.51908 0.62035 0.80911 0.0
H957 H 0.47392 0.62429 0.69434 0.0
C958 C 0.49324 0.6211 0.63784 0.0
C959 C 0.51076 0.61688 0.62656 0.0
C960 C 0.50532 0.61745 0.8152 0.0
C961 C 0.49955 0.61786 0.72439 0.0
C962 C 0.49928 0.61492 0.8631 0.0
C963 C 0.48155 0.61089 0.87176 0.0
C964 C 0.49349 0.6162 0.77582 0.0
C965 C 0.47013 0.60982 0.83145 0.0
C966 C 0.4876 0.62152 0.68654 0.0
C967 C 0.52254 0.61423 0.6657 0.0
N968 N 0.47629 0.6125 0.78515 0.0
N969 N 0.51668 0.61465 0.71294 0.0
H970 H 0.15616 0.72494 0.35216 0.0
H971 H 0.15053 0.75429 0.63239 0.0
H972 H 0.15271 0.77918 0.39833 0.0
H973 H 0.16828 0.70274 0.58846 0.0
H974 H 0.14986 0.7632 0.54656 0.0
H975 H 0.1588 0.71608 0.4381 0.0
C976 C 0.15584 0.735 0.38033 0.0
C977 C 0.15412 0.75286 0.36793 0.0
C978 C 0.154 0.74997 0.55558 0.0
C979 C 0.15723 0.74274 0.46637 0.0
C980 C 0.15437 0.74484 0.60463 0.0
C981 C 0.1594 0.72771 0.61751 0.0
C982 C 0.15846 0.73782 0.5189 0.0
C983 C 0.1643 0.71606 0.58 0.0
C984 C 0.15749 0.72991 0.42936 0.0
C985 C 0.15398 0.76528 0.40607 0.0
N986 N 0.16356 0.72129 0.53217 0.0
N987 N 0.15544 0.75996 0.45358 0.0
H988 H 0.02871 0.3867 0.10794 0.0
H989 H 1.0012 0.38626 0.39124 0.0
H990 H 0.97512 0.39235 0.15795 0.0
H991 H 0.05358 0.39802 0.3401 0.0
H992 H 0.99192 0.38171 0.30614 0.0
H993 H 0.03821 0.38363 0.1932 0.0
C994 C 0.01888 0.38706 0.13671 0.0
C995 C 1.0011 0.39013 0.12571 0.0
C996 C 0.00546 0.3852 0.31361 0.0
C997 C 0.01198 0.38666 0.22339 0.0
C998 C 0.01077 0.38781 0.36211 0.0
C999 C 0.02812 0.39279 0.37261 0.0
C1000 C 0.01761 0.38745 0.27538 0.0
C1001 C 0.04002 0.3944 0.33352 0.0
C1002 C 0.02436 0.38539 0.1854 0.0
C1003 C 0.98899 0.3903 0.16467 0.0
N1004 N 0.03452 0.39181 0.28652 0.0
N1005 N 0.99468 0.38875 0.21185 0.0
H1006 H 0.36821 0.25865 0.1398 0.0
H1007 H 0.36316 0.2849 0.85653 0.0
H1008 H 0.34764 0.30843 0.08966 0.0
H1009 H 0.36472 0.23114 0.90769 0.0
H1010 H 0.36339 0.29494 0.94176 0.0
H1011 H 0.37253 0.24975 0.05463 0.0
C1012 C 0.36459 0.26773 0.11083 0.0
C1013 C 0.35736 0.28424 0.12173 0.0
C1014 C 0.36379 0.28096 0.93421 0.0
C1015 C 0.36246 0.27414 0.02422 0.0
C1016 C 0.36378 0.27519 0.8856 0.0
C1017 C 0.36373 0.25711 0.8749 0.0
C1018 C 0.36395 0.26859 0.97238 0.0
C1019 C 0.36455 0.24518 0.91418 0.0
C1020 C 0.36708 0.26261 0.06225 0.0
C1021 C 0.3531 0.29552 0.08275 0.0
N1022 N 0.36457 0.25114 0.96125 0.0
N1023 N 0.3557 0.29025 0.03552 0.0
H1024 H 0.02976 0.04904 0.03045 0.0
H1025 H 0.97017 0.96686 0.95317 0.0
H1026 H 0.98508 0.0539 0.93335 0.0
H1027 H 0.0092 0.96572 0.06847 0.0
H1028 H 0.97494 0.99865 0.94481 0.0
H1029 H 0.02267 0.01808 0.04225 0.0
C1030 C 0.01851 0.0436 0.01132 0.0
C1031 C 0.00801 0.05416 0.98086 0.0
C1032 C 0.98231 0.99142 0.97224 0.0
C1033 C 0.99971 0.01859 -0.00545 0.0
C1034 C 0.9795 0.9733 0.97727 0.0
C1035 C 0.98941 0.96353 0.01124 0.0
C1036 C 0.99515 0.99976 0.00127 0.0
C1037 C 1.00139 0.9726 0.04132 0.0
C1038 C 0.01439 0.02591 0.01836 0.0
C1039 C 0.99354 0.0463 0.95729 0.0
N1040 N 0.00402 0.99011 0.0353 0.0
N1041 N 0.98983 0.029 0.96456 0.0
H1042 H 0.2126 0.78772 0.24546 0.0
H1043 H 0.29286 0.72296 0.18453 0.0
H1044 H 0.20727 0.74016 0.15997 0.0
H1045 H 0.29807 0.77118 0.2672 0.0
H1046 H 0.26164 0.72947 0.17262 0.0
H1047 H 0.24428 0.78269 0.24969 0.0
C1048 C 0.21807 0.77634 0.22704 0.0
C1049 C 0.20715 0.76429 0.20266 0.0
C1050 C 0.26965 0.73862 0.19332 0.0
C1051 C 0.24346 0.75832 0.20792 0.0
C1052 C 0.28748 0.73487 0.20031 0.0
C1053 C 0.29818 0.74648 0.22706 0.0
C1054 C 0.26244 0.75408 0.21328 0.0
C1055 C 0.29041 0.76178 0.24637 0.0
C1056 C 0.23618 0.77342 0.2297 0.0
C1057 C 0.21508 0.74977 0.17954 0.0
N1058 N 0.27307 0.7651 0.23916 0.0
N1059 N 0.2327 0.74713 0.18306 0.0
H1060 H 0.49841 0.04559 0.58391 0.0
H1061 H 0.52034 0.95585 0.44377 0.0
H1062 H 0.53763 0.04142 0.46984 0.0
H1063 H 0.47674 0.96206 0.54388 0.0
H1064 H 0.52865 0.98632 0.45848 0.0
H1065 H 0.49287 0.01415 0.57701 0.0
C1066 C 0.50607 0.03803 0.55785 0.0
C1067 C 0.5184 0.04627 0.527 0.0
C1068 C 0.51727 0.98104 0.47725 0.0
C1069 C 0.51189 0.01012 0.51858 0.0
C1070 C 0.51245 0.9636 0.46883 0.0
C1071 C 0.49774 0.95629 0.49253 0.0
C1072 C 0.50738 0.99136 0.5098 0.0
C1073 C 0.4881 0.9671 0.52453 0.0
C1074 C 0.5028 0.02005 0.55378 0.0
C1075 C 0.528 0.03569 0.49436 0.0
N1076 N 0.49311 0.98406 0.53226 0.0
N1077 N 0.52441 0.01819 0.49064 0.0
H1078 H 0.30052 0.27122 0.6852 0.0
H1079 H 0.20935 0.23888 0.79959 0.0
H1080 H 0.29516 0.22517 0.77693 0.0
H1081 H 0.2137 0.28387 0.70339 0.0
H1082 H 0.24084 0.23434 0.79319 0.0
H1083 H 0.26899 0.27628 0.69189 0.0
C1084 C 0.29273 0.26209 0.70661 0.0
C1085 C 0.30062 0.24772 0.73063 0.0
C1086 C 0.23497 0.24525 0.77356 0.0
C1087 C 0.26433 0.2536 0.73859 0.0
C1088 C 0.21692 0.24791 0.77725 0.0
C1089 C 0.20872 0.26178 0.7518 0.0
C1090 C 0.2451 0.2565 0.74422 0.0
C1091 C 0.21938 0.27303 0.72371 0.0
C1092 C 0.27469 0.26505 0.71045 0.0
C1093 C 0.28973 0.23639 0.75771 0.0
N1094 N 0.23701 0.27009 0.72053 0.0
N1095 N 0.27218 0.23961 0.76105 0.0
H1096 H 0.98991 0.95622 0.5437 0.0
H1097 H 0.01758 0.04909 0.42971 0.0
H1098 H 0.03579 0.96347 0.4525 0.0
H1099 H 0.97015 0.04075 0.51367 0.0
H1100 H 0.02447 0.01792 0.43748 0.0
H1101 H 0.98293 0.98724 0.53426 0.0
C1102 C 0.9986 0.96433 0.52181 0.0
C1103 C 0.01348 0.9571 0.49874 0.0
C1104 C 0.01252 0.02287 0.45402 0.0
C1105 C 0.0054 0.99287 0.48759 0.0
C1106 C 0.00852 0.04071 0.44953 0.0
C1107 C 0.99325 0.04766 0.47119 0.0
C1108 C 1.00123 0.01181 0.48053 0.0
C1109 C 0.98204 0.03604 0.49626 0.0
C1110 C 0.99454 0.98209 0.51633 0.0
C1111 C 0.02421 0.9684 0.47102 0.0
N1112 N 0.98631 0.01873 0.50043 0.0
N1113 N 0.01993 0.9857 0.46614 0.0
H1114 H 0.2148 0.72315 0.78669 0.0
H1115 H 0.29515 0.78782 0.72617 0.0
H1116 H 0.20945 0.77212 0.70755 0.0
H1117 H 0.30054 0.73984 0.80987 0.0
H1118 H 0.26341 0.78305 0.72301 0.0
H1119 H 0.24608 0.72947 0.79819 0.0
C1120 C 0.22016 0.73519 0.77164 0.0
C1121 C 0.20941 0.74706 0.7459 0.0
C1122 C 0.27154 0.77363 0.74237 0.0
C1123 C 0.24522 0.75442 0.75917 0.0
C1124 C 0.28968 0.7764 0.74438 0.0
C1125 C 0.30063 0.76416 0.76796 0.0
C1126 C 0.26425 0.75849 0.76395 0.0
C1127 C 0.2927 0.7496 0.7909 0.0
C1128 C 0.23802 0.73883 0.77838 0.0
C1129 C 0.21715 0.76251 0.72753 0.0
N1130 N 0.27506 0.74711 0.78799 0.0
N1131 N 0.23453 0.7657 0.73442 0.0
H1132 H 0.53717 0.96328 0.01097 0.0
H1133 H 0.4758 0.0444 0.93364 0.0
H1134 H 0.49708 0.96046 0.89881 0.0
H1135 H 0.51942 0.04896 0.03452 0.0
H1136 H 0.48362 0.01358 0.92005 0.0
H1137 H 0.53182 0.99496 0.01782 0.0
C1138 C 0.5275 0.96934 0.98714 0.0
C1139 C 0.51745 0.95911 0.95463 0.0
C1140 C 0.49149 0.02135 0.94513 0.0
C1141 C 0.51102 0.99529 0.96295 0.0
C1142 C 0.48694 0.03894 0.95315 0.0
C1143 C 0.49692 0.04936 0.98534 0.0
C1144 C 0.50606 0.01405 0.96965 0.0
C1145 C 0.51132 0.0415 0.00929 0.0
C1146 C 0.52434 0.98741 -0.00865 0.0
C1147 C 0.50501 0.96773 0.92487 0.0
N1148 N 0.51542 0.02437 0.00104 0.0
N1149 N 0.50204 0.98522 0.9301 0.0
H1150 H 0.20779 0.26521 0.30261 0.0
H1151 H 0.29992 0.2418 0.17735 0.0
H1152 H 0.21523 0.22123 0.20433 0.0
H1153 H 0.29216 0.2862 0.27392 0.0
H1154 H 0.26897 0.2343 0.18605 0.0
H1155 H 0.23869 0.27275 0.29338 0.0
C1156 C 0.21593 0.25703 0.27929 0.0
C1157 C 0.20879 0.24256 0.25406 0.0
C1158 C 0.27399 0.24573 0.20519 0.0
C1159 C 0.24437 0.2513 0.24306 0.0
C1160 C 0.2917 0.25009 0.20015 0.0
C1161 C 0.29876 0.26466 0.22511 0.0
C1162 C 0.26315 0.25596 0.23552 0.0
C1163 C 0.28736 0.27488 0.25392 0.0
C1164 C 0.23361 0.26142 0.27393 0.0
C1165 C 0.2201 0.23248 0.22457 0.0
N1166 N 0.27015 0.27028 0.25851 0.0
N1167 N 0.2373 0.23709 0.21974 0.0
H1168 H 0.79253 0.21807 0.7177 0.0
H1169 H 0.71567 0.28585 0.7876 0.0
H1170 H 0.80024 0.26391 0.80895 0.0
H1171 H 0.70795 0.2396 0.69798 0.0
H1172 H 0.74666 0.27787 0.79672 0.0
H1173 H 0.76125 0.22519 0.71249 0.0
C1174 C 0.78766 0.22951 0.73708 0.0
C1175 C 0.79913 0.24044 0.76357 0.0
C1176 C 0.73816 0.26948 0.77503 0.0
C1177 C 0.7633 0.24879 0.7573 0.0
C1178 C 0.72047 0.27409 0.76963 0.0
C1179 C 0.70911 0.26341 0.74197 0.0
C1180 C 0.74458 0.25411 0.75259 0.0
C1181 C 0.71614 0.24826 0.71973 0.0
C1182 C 0.76979 0.23363 0.73388 0.0
C1183 C 0.79198 0.25513 0.7878 0.0
N1184 N 0.73336 0.24408 0.72556 0.0
N1185 N 0.77459 0.25891 0.78386 0.0
H1186 H 0.71072 0.74796 0.33292 0.0
H1187 H 0.8023 0.77295 0.2074 0.0
H1188 H 0.71634 0.78901 0.22438 0.0
H1189 H 0.795 0.72769 0.30112 0.0
H1190 H 0.77164 0.78089 0.21982 0.0
H1191 H 0.7423 0.74292 0.32988 0.0
C1192 C 0.71861 0.75612 0.3089 0.0
C1193 C 0.71075 0.76882 0.27839 0.0
C1194 C 0.77672 0.76923 0.23773 0.0
C1195 C 0.74708 0.76291 0.27444 0.0
C1196 C 0.79428 0.76463 0.23062 0.0
C1197 C 0.80133 0.74954 0.2531 0.0
C1198 C 0.76602 0.75874 0.2677 0.0
C1199 C 0.79017 0.73936 0.28278 0.0
C1200 C 0.73668 0.75314 0.30705 0.0
C1201 C 0.72176 0.77907 0.24849 0.0
N1202 N 0.77309 0.74415 0.2892 0.0
N1203 N 0.73934 0.77576 0.24689 0.0
H1204 H 0.71266 0.25958 0.1593 0.0
H1205 H 0.80213 0.23509 0.29749 0.0
H1206 H 0.71539 0.22163 0.27715 0.0
H1207 H 0.79722 0.27745 0.19258 0.0
H1208 H 0.77098 0.22855 0.28698 0.0
H1209 H 0.74421 0.26407 0.16577 0.0
C1210 C 0.71992 0.25201 0.18624 0.0
C1211 C 0.71126 0.2403 0.21806 0.0
C1212 C 0.7767 0.23928 0.26633 0.0
C1213 C 0.7476 0.24559 0.22596 0.0
C1214 C 0.79451 0.24309 0.27234 0.0
C1215 C 0.8024 0.25688 0.24585 0.0
C1216 C 0.76661 0.24925 0.23337 0.0
C1217 C 0.79176 0.26675 0.21394 0.0
C1218 C 0.73798 0.25467 0.19004 0.0
C1219 C 0.72147 0.23077 0.25183 0.0
N1220 N 0.77445 0.26271 0.20849 0.0
N1221 N 0.73909 0.23374 0.25518 0.0
H1222 H 0.7076 0.77366 0.77095 0.0
H1223 H 0.79931 0.74711 0.64873 0.0
H1224 H 0.71484 0.72765 0.6801 0.0
H1225 H 0.7935 0.78937 0.75351 0.0
H1226 H 0.76768 0.7423 0.65125 0.0
H1227 H 0.73827 0.78146 0.75796 0.0
C1228 C 0.71561 0.76515 0.74824 0.0
C1229 C 0.70855 0.74988 0.72681 0.0
C1230 C 0.77328 0.75273 0.67336 0.0
C1231 C 0.74385 0.7589 0.71155 0.0
C1232 C 0.79137 0.75557 0.67181 0.0
C1233 C 0.79918 0.76855 0.70147 0.0
C1234 C 0.76282 0.76291 0.70482 0.0
C1235 C 0.78812 0.77918 0.73013 0.0
C1236 C 0.73316 0.76967 0.74079 0.0
C1237 C 0.71967 0.73947 0.69768 0.0
N1238 N 0.77052 0.776 0.7315 0.0
N1239 N 0.73677 0.74417 0.69096 0.0
H1240 H 0.48723 0.5534 0.44817 0.0
H1241 H 0.51889 0.45849 0.53854 0.0
H1242 H 0.53638 0.54395 0.52319 0.0
H1243 H 0.47003 0.46729 0.46142 0.0
H1244 H 0.52506 0.48979 0.53445 0.0
H1245 H 0.48055 0.52213 0.45334 0.0
C1246 C 0.49668 0.54478 0.46565 0.0
C1247 C 0.51244 0.55143 0.4853 0.0
C1248 C 0.51296 0.48493 0.51854 0.0
C1249 C 0.50474 0.51542 0.49139 0.0
C1250 C 0.50936 0.46699 0.52091 0.0
C1251 C 0.49387 0.46011 0.50021 0.0
C1252 C 0.50102 0.49626 0.49534 0.0
C1253 C 0.48212 0.47193 0.47792 0.0
C1254 C 0.4928 0.52687 0.46861 0.0
C1255 C 0.52408 0.5395 0.5075 0.0
N1256 N 0.48596 0.48941 0.47598 0.0
N1257 N 0.51999 0.52211 0.50996 0.0
H1258 H 0.97221 0.46526 0.03736 0.0
H1259 H 0.03749 0.54415 0.96584 0.0
H1260 H 0.02025 0.45868 0.95481 0.0
H1261 H 0.98976 0.55149 0.04923 0.0
H1262 H 0.0317 0.51257 0.96387 0.0
H1263 H 0.97851 0.49681 0.04369 0.0
C1264 C 0.98403 0.4704 0.02049 0.0
C1265 C 0.99567 0.45921 -0.00455 0.0
C1266 C 0.02252 0.52109 0.98276 0.0
C1267 C 1.00299 0.49529 0.00272 0.0
C1268 C 0.02586 0.53915 0.984 0.0
C1269 C 0.01408 0.55059 0.00752 0.0
C1270 C 0.00728 0.51435 0.00513 0.0
C1271 C 0.99921 0.54325 0.03044 0.0
C1272 C 0.98765 0.48841 0.02421 0.0
C1273 C 0.01083 0.46669 0.97448 0.0
N1274 N 0.99621 0.52565 0.02849 0.0
N1275 N 0.01402 0.48418 0.97859 0.0
H1276 H 0.53601 0.46429 0.9567 0.0
H1277 H 0.46978 0.54443 0.00611 0.0
H1278 H 0.48516 0.4586 0.02542 0.0
H1279 H 0.52103 0.55062 0.94018 0.0
H1280 H 0.47475 0.51273 0.01023 0.0
H1281 H 0.53058 0.49587 0.94858 0.0
C1282 C 0.52376 0.46964 0.97031 0.0
C1283 C 0.51106 0.45869 -0.00812 0.0
C1284 C 0.48488 0.52103 -0.00532 0.0
C1285 C 0.5047 0.49485 0.98231 0.0
C1286 C 0.48201 0.53915 -0.00788 0.0
C1287 C 0.49502 0.5503 0.97299 0.0
C1288 C 0.50087 0.51395 0.97804 0.0
C1289 C 0.51063 0.54261 0.95546 0.0
C1290 C 0.52063 0.48768 0.96549 0.0
C1291 C 0.49538 0.46645 0.00861 0.0
N1292 N 0.51313 0.52496 0.95861 0.0
N1293 N 0.49266 0.48399 0.00342 0.0
H1294 H 0.99195 0.45666 0.41055 0.0
H1295 H 0.02082 0.5486 0.52812 0.0
H1296 H 0.0372 0.4629 0.50486 0.0
H1297 H 0.9732 0.54141 0.44402 0.0
H1298 H 0.02786 0.51766 0.51618 0.0
H1299 H 0.98633 0.48811 0.41665 0.0
C1300 C 1.00087 0.46465 0.4321 0.0
C1301 C 0.01502 0.457 0.4576 0.0
C1302 C 0.01585 0.52282 0.5004 0.0
C1303 C 0.00846 0.49317 0.46512 0.0
C1304 C 0.01176 0.54052 0.5073 0.0
C1305 C 0.99634 0.54771 0.4871 0.0
C1306 C 0.0045 0.51211 0.47292 0.0
C1307 C 0.98517 0.53649 0.46052 0.0
C1308 C 0.99756 0.48264 0.43574 0.0
C1309 C 0.02613 0.46814 0.4846 0.0
N1310 N 0.9895 0.51927 0.45411 0.0
N1311 N 0.02253 0.48563 0.48797 0.0
H1312 H 0.0798 0.10312 0.11764 0.0
H1313 H 0.15457 0.17691 0.09631 0.0
H1314 H 0.08633 0.1364 -0.00942 0.0
H1315 H 0.12775 0.16469 0.2316 0.0
H1316 H 0.13713 0.15405 0.05445 0.0
H1317 H 0.10499 0.11794 0.15669 0.0
C1318 C 0.08679 0.11324 0.09759 0.0
C1319 C 0.08092 0.11875 0.0512 0.0
C1320 C 0.13542 0.15613 0.09357 0.0
C1321 C 0.10968 0.13541 0.09492 0.0
C1322 C 0.14542 0.16903 0.11741 0.0
C1323 C 0.14243 0.17265 0.16723 0.0
C1324 C 0.12272 0.14666 0.12018 0.0
C1325 C 0.13028 0.1623 0.19298 0.0
C1326 C 0.10107 0.1217 0.11985 0.0
C1327 C 0.09035 0.13197 0.02673 0.0
N1328 N 0.12079 0.14981 0.16915 0.0
N1329 N 0.10423 0.1399 0.04893 0.0
H1330 H 0.15532 0.82987 0.3638 0.0
H1331 H 0.07858 0.90162 0.34599 0.0
H1332 H 0.11878 0.83231 0.2428 0.0
H1333 H 0.09186 0.87553 0.48174 0.0
H1334 H 0.10121 0.88406 0.30367 0.0
H1335 H 0.13957 0.85449 0.40326 0.0
C1336 C 0.14424 0.83585 0.34515 0.0
C1337 C 0.13815 0.82904 0.30038 0.0
C1338 C 0.0994 0.88254 0.34296 0.0
C1339 C 0.12053 0.85717 0.34427 0.0
C1340 C 0.08663 0.8926 0.36706 0.0
C1341 C 0.0834 0.88988 0.41721 0.0
C1342 C 0.10919 0.87008 0.36962 0.0
C1343 C 0.09396 0.87787 0.4429 0.0
C1344 C 0.13528 0.84979 0.36761 0.0
C1345 C 0.12371 0.83712 0.27766 0.0
N1346 N 0.10638 0.86836 0.41881 0.0
N1347 N 0.11537 0.85077 0.29983 0.0
H1348 H 0.38864 0.83191 0.72996 0.0
H1349 H 0.41553 0.87692 0.48716 0.0
H1350 H 0.35344 0.82977 0.60587 0.0
H1351 H 0.42805 0.90126 0.62593 0.0
H1352 H 0.3928 0.8594 0.52801 0.0
H1353 H 0.40369 0.85695 0.69238 0.0
C1354 C 0.38398 0.83689 0.69495 0.0
C1355 C 0.36988 0.82879 0.67075 0.0
C1356 C 0.40022 0.86887 0.54931 0.0
C1357 C 0.38723 0.85714 0.62714 0.0
C1358 C 0.41319 0.87883 0.5261 0.0
C1359 C 0.42362 0.8905 0.55333 0.0
C1360 C 0.39811 0.87017 0.60041 0.0
C1361 C 0.42018 0.89247 0.60367 0.0
C1362 C 0.39249 0.85122 0.67373 0.0
C1363 C 0.36427 0.83573 0.62563 0.0
N1364 N 0.40797 0.88207 0.62591 0.0
N1365 N 0.37323 0.84931 0.60463 0.0
H1366 H 0.42859 0.106 0.851 0.0
H1367 H 0.35458 0.18024 0.87953 0.0
H1368 H 0.41825 0.13227 0.98844 0.0
H1369 H 0.38723 0.17514 0.75081 0.0
H1370 H 0.37063 0.15554 0.91755 0.0
H1371 H 0.40581 0.12424 0.81165 0.0
C1372 C 0.42118 0.11524 0.87311 0.0
C1373 C 0.4253 0.11777 0.92286 0.0
C1374 C 0.37401 0.15969 0.88063 0.0
C1375 C 0.39933 0.13839 0.87856 0.0
C1376 C 0.36486 0.17368 0.85896 0.0
C1377 C 0.36976 0.17977 0.81227 0.0
C1378 C 0.38777 0.15154 0.85475 0.0
C1379 C 0.38322 0.17093 0.78714 0.0
C1380 C 0.40832 0.12569 0.85066 0.0
C1381 C 0.4155 0.13006 0.94985 0.0
N1382 N 0.39177 0.15726 0.80867 0.0
N1383 N 0.40299 0.13996 0.92736 0.0
H1384 H 0.8847 0.80637 0.86798 0.0
H1385 H 0.92014 0.90532 0.88187 0.0
H1386 H 0.86029 0.84794 0.78482 0.0
H1387 H 0.93984 0.86135 0.96574 0.0
H1388 H 0.8965 0.88619 0.84978 0.0
H1389 H 0.90293 0.8279 0.90971 0.0
C1390 C 0.88307 0.82017 0.85907 0.0
C1391 C 0.87108 0.82545 0.82306 0.0
C1392 C 0.90597 0.88087 0.87551 0.0
C1393 C 0.89237 0.85035 0.86954 0.0
C1394 C 0.91944 0.89175 0.89373 0.0
C1395 C 0.93212 0.88487 0.92604 0.0
C1396 C 0.90525 0.86311 0.89012 0.0
C1397 C 0.93057 0.86723 0.9404 0.0
C1398 C 0.89353 0.83251 0.88273 0.0
C1399 C 0.86939 0.84345 0.81275 0.0
N1400 N 0.91751 0.85706 0.92229 0.0
N1401 N 0.88017 0.85533 0.83541 0.0
H1402 H 0.92361 0.09857 0.61847 0.0
H1403 H 0.85038 0.17404 0.60308 0.0
H1404 H 0.91536 0.1301 0.48879 0.0
H1405 H 0.88219 0.16502 0.73184 0.0
H1406 H 0.86615 0.15004 0.56093 0.0
H1407 H 0.90008 0.11512 0.66018 0.0
C1408 C 0.91649 0.1086 0.5984 0.0
C1409 C 0.92142 0.11313 0.55039 0.0
C1410 C 0.86934 0.15311 0.5988 0.0
C1411 C 0.8946 0.13179 0.59721 0.0
C1412 C 0.86034 0.16669 0.62281 0.0
C1413 C 0.86515 0.1715 0.67072 0.0
C1414 C 0.88285 0.1441 0.62351 0.0
C1415 C 0.87824 0.16174 0.69468 0.0
C1416 C 0.90319 0.11807 0.62219 0.0
C1417 C 0.91197 0.12636 0.52602 0.0
N1418 N 0.88667 0.14852 0.67082 0.0
N1419 N 0.89904 0.13528 0.54972 0.0
H1420 H 0.65421 0.16729 0.33571 0.0
H1421 H 0.55406 0.13898 0.38249 0.0
H1422 H 0.60793 0.19705 0.29684 0.0
H1423 H 0.59681 0.10756 0.43801 0.0
H1424 H 0.57494 0.1584 0.34316 0.0
H1425 H 0.6349 0.14387 0.36861 0.0
C1426 C 0.64008 0.16892 0.33414 0.0
C1427 C 0.6327 0.18417 0.31336 0.0
C1428 C 0.57996 0.14727 0.36364 0.0
C1429 C 0.61073 0.15758 0.35017 0.0
C1430 C 0.56796 0.13611 0.38597 0.0
C1431 C 0.57374 0.12177 0.41375 0.0
C1432 C 0.59807 0.14436 0.3696 0.0
C1433 C 0.59189 0.11852 0.4167 0.0
C1434 C 0.62911 0.15556 0.35271 0.0
C1435 C 0.61433 0.18559 0.31219 0.0
N1436 N 0.60352 0.12992 0.39537 0.0
N1437 N 0.60412 0.17255 0.33016 0.0
H1438 H 0.56694 0.85749 0.00975 0.0
H1439 H 0.65087 0.84746 0.18541 0.0
H1440 H 0.58791 0.90218 0.08802 0.0
H1441 H 0.62046 0.80514 0.12331 0.0
H1442 H 0.63164 0.86876 0.14224 0.0
H1443 H 0.59014 0.83938 0.04249 0.0
C1444 C 0.57646 0.86355 0.03405 0.0
C1445 C 0.57527 0.88138 0.04666 0.0
C1446 C 0.62938 0.8548 0.13777 0.0
C1447 C 0.60222 0.86036 0.08515 0.0
C1448 C 0.64039 0.8427 0.16199 0.0
C1449 C 0.6371 0.82459 0.15798 0.0
C1450 C 0.6153 0.84856 0.10903 0.0
C1451 C 0.62332 0.819 0.12773 0.0
C1452 C 0.58981 0.85313 0.0528 0.0
C1453 C 0.58827 0.88845 0.07768 0.0
N1454 N 0.61298 0.83089 0.10465 0.0
N1455 N 0.60118 0.87785 0.09638 0.0
H1456 H 0.59356 0.62986 0.49085 0.0
H1457 H 0.62852 0.66839 0.73592 0.0
H1458 H 0.58362 0.60351 0.62834 0.0
H1459 H 0.65702 0.67611 0.60069 0.0
H1460 H 0.61278 0.64382 0.69823 0.0
H1461 H 0.61773 0.64597 0.52938 0.0
C1462 C 0.59676 0.62722 0.52899 0.0
C1463 C 0.58662 0.61543 0.55661 0.0
C1464 C 0.62272 0.65063 0.67705 0.0
C1465 C 0.61387 0.63416 0.6013 0.0
C1466 C 0.63165 0.66469 0.69846 0.0
C1467 C 0.64397 0.67432 0.6712 0.0
C1468 C 0.62575 0.64649 0.6275 0.0
C1469 C 0.64762 0.66898 0.62292 0.0
C1470 C 0.61056 0.63638 0.55092 0.0
C1471 C 0.59122 0.61246 0.60583 0.0
N1472 N 0.63824 0.65564 0.60217 0.0
N1473 N 0.60428 0.6221 0.62701 0.0
H1474 H 0.58441 0.37205 0.9877 0.0
H1475 H 0.63097 0.3447 0.74765 0.0
H1476 H 0.58304 0.40642 0.86168 0.0
H1477 H 0.65328 0.3308 0.88803 0.0
H1478 H 0.61383 0.36788 0.78759 0.0
H1479 H 0.6099 0.35701 0.95269 0.0
C1480 C 0.58965 0.37655 0.95286 0.0
C1481 C 0.58158 0.39035 0.92722 0.0
C1482 C 0.62279 0.36007 0.80953 0.0
C1483 C 0.61048 0.37303 0.88661 0.0
C1484 C 0.63253 0.34685 0.7868 0.0
C1485 C 0.64348 0.33591 0.81474 0.0
C1486 C 0.62355 0.36193 0.86081 0.0
C1487 C 0.64503 0.33909 0.86531 0.0
C1488 C 0.60425 0.36805 0.93309 0.0
C1489 C 0.58892 0.3958 0.88247 0.0
N1490 N 0.63482 0.35157 0.88704 0.0
N1491 N 0.60276 0.38684 0.86294 0.0
H1492 H 0.85583 0.32594 0.10221 0.0
H1493 H 0.92822 0.40162 0.13363 0.0
H1494 H 0.88696 0.33234 0.23351 0.0
H1495 H 0.91949 0.37451 -0.00343 0.0
H1496 H 0.90539 0.38322 0.17209 0.0
H1497 H 0.87174 0.35079 0.06467 0.0
C1498 C 0.86572 0.33282 0.12342 0.0
C1499 C 0.87026 0.32705 0.17073 0.0
C1500 C 0.90827 0.38161 0.13333 0.0
C1501 C 0.88813 0.35544 0.12874 0.0
C1502 C 0.92116 0.39215 0.1114 0.0
C1503 C 0.92575 0.38944 0.06206 0.0
C1504 C 0.89971 0.36864 0.1053 0.0
C1505 C 0.91638 0.37687 0.03487 0.0
C1506 C 0.87481 0.34689 0.10202 0.0
C1507 C 0.88324 0.3363 0.19669 0.0
N1508 N 0.90383 0.36689 0.05685 0.0
N1509 N 0.89174 0.35003 0.17537 0.0
H1510 H 0.91831 0.63032 0.48916 0.0
H1511 H 0.88128 0.66793 0.24561 0.0
H1512 H 0.92483 0.60173 0.35361 0.0
H1513 H 0.85378 0.67657 0.38202 0.0
H1514 H 0.89714 0.64344 0.28355 0.0
H1515 H 0.89436 0.64712 0.45167 0.0
C1516 C 0.91442 0.62737 0.45171 0.0
C1517 C 0.92352 0.61469 0.4243 0.0
C1518 C 0.88738 0.65044 0.30493 0.0
C1519 C 0.89653 0.63418 0.38077 0.0
C1520 C 0.87839 0.66445 0.28339 0.0
C1521 C 0.86628 0.67428 0.31086 0.0
C1522 C 0.88466 0.64658 0.3548 0.0
C1523 C 0.86298 0.66925 0.3596 0.0
C1524 C 0.90075 0.63692 0.4304 0.0
C1525 C 0.91805 0.61135 0.37596 0.0
N1526 N 0.87243 0.65597 0.38044 0.0
N1527 N 0.90515 0.62135 0.35526 0.0
H1528 H 0.37847 0.34299 0.24355 0.0
H1529 H 0.41763 0.37703 0.48738 0.0
H1530 H 0.35214 0.33252 0.38066 0.0
H1531 H 0.42311 0.40756 0.35475 0.0
H1532 H 0.39304 0.36116 0.45013 0.0
H1533 H 0.39427 0.36731 0.28252 0.0
C1534 C 0.37579 0.34609 0.28171 0.0
C1535 C 0.36408 0.3358 0.3091 0.0
C1536 C 0.39934 0.37158 0.4295 0.0
C1537 C 0.38244 0.36318 0.35424 0.0
C1538 C 0.4134 0.38058 0.45063 0.0
C1539 C 0.4224 0.3935 0.42387 0.0
C1540 C 0.39462 0.37514 0.38063 0.0
C1541 C 0.41645 0.39768 0.37651 0.0
C1542 C 0.38475 0.35998 0.30386 0.0
C1543 C 0.36103 0.34025 0.35836 0.0
N1544 N 0.40315 0.3882 0.35585 0.0
N1545 N 0.3705 0.35339 0.37979 0.0
H1546 H 0.38133 0.66849 0.23233 0.0
H1547 H 0.42202 0.6358 0.989 0.0
H1548 H 0.35443 0.678 0.09535 0.0
H1549 H 0.42634 0.60393 0.11947 0.0
H1550 H 0.39743 0.65168 0.02644 0.0
H1551 H 0.39817 0.64495 0.19286 0.0
C1552 C 0.37878 0.66538 0.1941 0.0
C1553 C 0.36655 0.67516 0.16692 0.0
C1554 C 0.40351 0.64098 0.04652 0.0
C1555 C 0.38605 0.64865 0.12133 0.0
C1556 C 0.41755 0.63199 0.0253 0.0
C1557 C 0.42616 0.61863 0.05136 0.0
C1558 C 0.39845 0.637 0.09485 0.0
C1559 C 0.41995 0.61413 0.09822 0.0
C1560 C 0.38833 0.65193 0.17169 0.0
C1561 C 0.36371 0.67067 0.11754 0.0
N1562 N 0.40669 0.6236 0.11904 0.0
N1563 N 0.3737 0.65798 0.09592 0.0
H1564 H 0.09002 0.632 0.98295 0.0
H1565 H 0.12423 0.67059 0.73739 0.0
H1566 H 0.0794 0.60531 0.8464 0.0
H1567 H 0.15476 0.67597 0.87014 0.0
H1568 H 0.10773 0.64658 0.77555 0.0
H1569 H 0.11395 0.6481 0.94312 0.0
C1570 C 0.093 0.62932 0.94472 0.0
C1571 C 0.08282 0.61737 0.91779 0.0
C1572 C 0.11827 0.65276 0.79601 0.0
C1573 C 0.10974 0.63607 0.87166 0.0
C1574 C 0.12762 0.66651 0.77438 0.0
C1575 C 0.14077 0.6753 0.80084 0.0
C1576 C 0.12173 0.64814 0.845 0.0
C1577 C 0.14471 0.66949 0.84853 0.0
C1578 C 0.10666 0.63846 0.92207 0.0
C1579 C 0.08708 0.61436 0.86838 0.0
N1580 N 0.13495 0.6565 0.86956 0.0
N1581 N 0.10001 0.62397 0.84648 0.0
H1582 H 0.09765 0.394 0.51696 0.0
H1583 H 0.1147 0.32489 0.73355 0.0
H1584 H 0.06015 0.37925 0.62807 0.0
H1585 H 0.1519 0.33254 0.61589 0.0
H1586 H 0.09725 0.34907 0.70218 0.0
H1587 H 0.12005 0.37585 0.55872 0.0
C1588 C 0.09433 0.38731 0.55089 0.0
C1589 C 0.07718 0.3881 0.56956 0.0
C1590 C 0.10924 0.34562 0.68307 0.0
C1591 C 0.10238 0.36732 0.61678 0.0
C1592 C 0.11924 0.33175 0.70101 0.0
C1593 C 0.13463 0.32652 0.67685 0.0
C1594 C 0.11442 0.35431 0.63994 0.0
C1595 C 0.14004 0.33612 0.63541 0.0
C1596 C 0.10702 0.37688 0.57442 0.0
C1597 C 0.0733 0.37899 0.61283 0.0
N1598 N 0.12978 0.34945 0.61772 0.0
N1599 N 0.08576 0.36895 0.63481 0.0
loop_
_geom_bond_atom_site_label_1
_geom_bond_atom_site_label_2
_geom_bond_distance
_geom_bond_site_symmetry_2
_ccdc_geom_bond_type
Co0 O1 2.216 . S
Co0 O2 2.091 . S
Co0 O4 2.004 . S
Co0 O10 2.021 . S
Co0 O12 2.137 1_554 S
Co0 O13 2.244 . S
O1 Co0 2.216 . S
O1 C8 1.247 . S
O2 Co0 2.091 . S
O2 C8 1.261 . S
C3 O12 1.247 . S
C3 O13 1.272 1_556 S
O4 Co0 2.004 . S
O4 C9 1.259 . S
Co5 O6 2.061 1_655 S
Co5 O11 2.052 . S
Co5 O13 2.135 1_655 S
O6 Co5 2.061 1_455 S
O6 C9 1.236 . S
C7 O10 1.238 . S
C7 O11 1.241 1_455 S
C8 O1 1.247 . S
C8 O2 1.261 . S
C9 O4 1.259 . S
C9 O6 1.236 . S
O10 Co0 2.021 . S
O10 C7 1.238 . S
O11 Co5 2.052 . S
O11 C7 1.241 1_655 S
O12 Co0 2.137 1_556 S
O12 C3 1.247 . S
O13 Co0 2.244 . S
O13 C3 1.272 1_554 S
O13 Co5 2.135 1_455 S
Co14 O15 2.216 . S
Co14 O16 2.091 . S
Co14 O18 2.004 . S
Co14 O24 2.021 . S
Co14 O26 2.137 . S
Co14 O27 2.244 . S
O15 Co14 2.216 . S
O15 C22 1.247 . S
O16 Co14 2.091 . S
O16 C22 1.261 . S
C17 O26 1.247 . S
C17 O27 1.272 . S
O18 Co14 2.004 . S
O18 C23 1.259 . S
Co19 O20 2.061 . S
Co19 O25 2.052 . S
Co19 O27 2.135 . S
O20 Co19 2.061 . S
O20 C23 1.235 . S
C21 O24 1.238 . S
C21 O25 1.241 . S
C22 O15 1.247 . S
C22 O16 1.261 . S
C23 O18 1.259 . S
C23 O20 1.235 . S
O24 Co14 2.021 . S
O24 C21 1.238 . S
O25 Co19 2.052 . S
O25 C21 1.241 . S
O26 Co14 2.137 . S
O26 C17 1.247 . S
O27 Co14 2.244 . S
O27 C17 1.272 . S
O27 Co19 2.135 . S
Co28 O29 2.216 . S
Co28 O30 2.091 . S
Co28 O32 2.004 . S
Co28 O38 2.021 . S
Co28 O40 2.137 . S
Co28 O41 2.244 . S
O29 Co28 2.216 . S
O29 C36 1.247 . S
O30 Co28 2.091 . S
O30 C36 1.261 . S
C31 O40 1.247 . S
C31 O41 1.272 . S
O32 Co28 2.004 . S
O32 C37 1.259 . S
Co33 O34 2.061 . S
Co33 O39 2.052 . S
Co33 O41 2.135 . S
O34 Co33 2.061 . S
O34 C37 1.235 . S
C35 O38 1.238 . S
C35 O39 1.241 . S
C36 O29 1.247 . S
C36 O30 1.261 . S
C37 O32 1.259 . S
C37 O34 1.235 . S
O38 Co28 2.021 . S
O38 C35 1.238 . S
O39 Co33 2.052 . S
O39 C35 1.241 . S
O40 Co28 2.137 . S
O40 C31 1.247 . S
O41 Co28 2.244 . S
O41 C31 1.272 . S
O41 Co33 2.135 . S
Co42 O43 2.216 . S
Co42 O44 2.091 . S
Co42 O46 2.004 . S
Co42 O52 2.021 . S
Co42 O54 2.137 . S
Co42 O55 2.244 . S
O43 Co42 2.216 . S
O43 C50 1.247 . S
O44 Co42 2.091 . S
O44 C50 1.261 . S
C45 O54 1.247 . S
C45 O55 1.272 . S
O46 Co42 2.004 . S
O46 C51 1.259 . S
Co47 O48 2.061 . S
Co47 O53 2.052 . S
Co47 O55 2.135 . S
O48 Co47 2.061 . S
O48 C51 1.235 . S
C49 O52 1.238 . S
C49 O53 1.241 . S
C50 O43 1.247 . S
C50 O44 1.261 . S
C51 O46 1.259 . S
C51 O48 1.235 . S
O52 Co42 2.021 . S
O52 C49 1.238 . S
O53 Co47 2.052 . S
O53 C49 1.241 . S
O54 Co42 2.137 . S
O54 C45 1.247 . S
O55 Co42 2.244 . S
O55 C45 1.272 . S
O55 Co47 2.135 . S
Co56 O57 2.216 . S
Co56 O58 2.091 . S
Co56 O60 2.004 . S
Co56 O66 2.021 . S
Co56 O68 2.137 . S
Co56 O69 2.244 . S
O57 Co56 2.216 . S
O57 C64 1.247 . S
O58 Co56 2.091 . S
O58 C64 1.261 . S
C59 O68 1.247 . S
C59 O69 1.272 . S
O60 Co56 2.004 . S
O60 C65 1.259 . S
Co61 O62 2.063 1_655 S
Co61 O67 2.052 . S
Co61 O69 2.135 1_655 S
O62 Co61 2.063 1_455 S
O62 C65 1.232 . S
C63 O66 1.238 . S
C63 O67 1.241 1_455 S
C64 O57 1.247 . S
C64 O58 1.261 . S
C65 O60 1.259 . S
C65 O62 1.232 . S
O66 Co56 2.021 . S
O66 C63 1.238 . S
O67 Co61 2.052 . S
O67 C63 1.241 1_655 S
O68 Co56 2.137 . S
O68 C59 1.247 . S
O69 Co56 2.244 . S
O69 C59 1.272 . S
O69 Co61 2.135 1_455 S
Co70 O71 2.216 . S
Co70 O72 2.091 . S
Co70 O74 2.004 . S
Co70 O80 2.021 . S
Co70 O82 2.137 . S
Co70 O83 2.244 . S
O71 Co70 2.216 . S
O71 C78 1.247 . S
O72 Co70 2.091 . S
O72 C78 1.261 . S
C73 O82 1.247 . S
C73 O83 1.272 . S
O74 Co70 2.004 . S
O74 C79 1.259 . S
Co75 O76 2.061 . S
Co75 O81 2.052 . S
Co75 O83 2.135 . S
O76 Co75 2.061 . S
O76 C79 1.235 . S
C77 O80 1.238 . S
C77 O81 1.241 . S
C78 O71 1.247 . S
C78 O72 1.261 . S
C79 O74 1.259 . S
C79 O76 1.235 . S
O80 Co70 2.021 . S
O80 C77 1.238 . S
O81 Co75 2.052 . S
O81 C77 1.241 . S
O82 Co70 2.137 . S
O82 C73 1.247 . S
O83 Co70 2.244 . S
O83 C73 1.272 . S
O83 Co75 2.135 . S
Co84 O85 2.216 . S
Co84 O86 2.091 . S
Co84 O88 2.004 . S
Co84 O94 2.021 . S
Co84 O96 2.137 1_556 S
Co84 O97 2.244 . S
O85 Co84 2.216 . S
O85 C92 1.247 . S
O86 Co84 2.091 . S
O86 C92 1.261 . S
C87 O96 1.247 . S
C87 O97 1.272 1_554 S
O88 Co84 2.004 . S
O88 C93 1.259 . S
Co89 O90 2.061 . S
Co89 O95 2.052 . S
Co89 O97 2.135 . S
O90 Co89 2.061 . S
O90 C93 1.235 . S
C91 O94 1.238 . S
C91 O95 1.241 . S
C92 O85 1.247 . S
C92 O86 1.261 . S
C93 O88 1.259 . S
C93 O90 1.235 . S
O94 Co84 2.021 . S
O94 C91 1.238 . S
O95 Co89 2.052 . S
O95 C91 1.241 . S
O96 Co84 2.137 1_554 S
O96 C87 1.247 . S
O97 Co84 2.244 . S
O97 C87 1.272 1_556 S
O97 Co89 2.135 . S
Co98 O99 2.216 . S
Co98 O100 2.091 . S
Co98 O102 2.004 . S
Co98 O108 2.021 . S
Co98 O110 2.137 . S
Co98 O111 2.244 . S
O99 Co98 2.216 . S
O99 C106 1.247 . S
O100 Co98 2.091 . S
O100 C106 1.261 . S
C101 O110 1.247 . S
C101 O111 1.272 . S
O102 Co98 2.004 . S
O102 C107 1.259 . S
Co103 O104 2.061 . S
Co103 O109 2.052 . S
Co103 O111 2.135 . S
O104 Co103 2.061 . S
O104 C107 1.235 . S
C105 O108 1.238 . S
C105 O109 1.241 . S
C106 O99 1.247 . S
C106 O100 1.261 . S
C107 O102 1.259 . S
C107 O104 1.235 . S
O108 Co98 2.021 . S
O108 C105 1.238 . S
O109 Co103 2.052 . S
O109 C105 1.241 . S
O110 Co98 2.137 . S
O110 C101 1.247 . S
O111 Co98 2.244 . S
O111 C101 1.272 . S
O111 Co103 2.135 . S
Co112 O113 2.216 . S
Co112 O114 2.091 . S
Co112 O116 2.004 . S
Co112 O122 2.021 . S
Co112 O124 2.137 1_556 S
Co112 O125 2.244 . S
O113 Co112 2.216 . S
O113 C120 1.247 . S
O114 Co112 2.091 . S
O114 C120 1.261 . S
C115 O124 1.247 . S
C115 O125 1.272 1_554 S
O116 Co112 2.004 . S
O116 C121 1.259 . S
Co117 O118 2.061 1_455 S
Co117 O123 2.052 . S
Co117 O125 2.135 1_455 S
O118 Co117 2.061 1_655 S
O118 C121 1.236 . S
C119 O122 1.238 . S
C119 O123 1.241 1_655 S
C120 O113 1.247 . S
C120 O114 1.261 . S
C121 O116 1.259 . S
C121 O118 1.236 . S
O122 Co112 2.021 . S
O122 C119 1.238 . S
O123 Co117 2.052 . S
O123 C119 1.241 1_455 S
O124 Co112 2.137 1_554 S
O124 C115 1.247 . S
O125 Co112 2.244 . S
O125 C115 1.272 1_556 S
O125 Co117 2.135 1_655 S
Co126 O127 2.216 . S
Co126 O128 2.091 . S
Co126 O130 2.004 . S
Co126 O136 2.021 . S
Co126 O138 2.137 . S
Co126 O139 2.244 . S
O127 Co126 2.216 . S
O127 C134 1.247 . S
O128 Co126 2.091 . S
O128 C134 1.261 . S
C129 O138 1.247 . S
C129 O139 1.272 . S
O130 Co126 2.004 . S
O130 C135 1.259 . S
Co131 O132 2.061 . S
Co131 O137 2.052 . S
Co131 O139 2.135 . S
O132 Co131 2.061 . S
O132 C135 1.235 . S
C133 O136 1.238 . S
C133 O137 1.241 . S
C134 O127 1.247 . S
C134 O128 1.261 . S
C135 O130 1.259 . S
C135 O132 1.235 . S
O136 Co126 2.021 . S
O136 C133 1.238 . S
O137 Co131 2.052 . S
O137 C133 1.241 . S
O138 Co126 2.137 . S
O138 C129 1.247 . S
O139 Co126 2.244 . S
O139 C129 1.272 . S
O139 Co131 2.135 . S
Co140 O141 2.216 . S
Co140 O142 2.091 . S
Co140 O144 2.004 . S
Co140 O150 2.021 . S
Co140 O152 2.137 . S
Co140 O153 2.244 . S
O141 Co140 2.216 . S
O141 C148 1.247 . S
O142 Co140 2.091 . S
O142 C148 1.261 . S
C143 O152 1.247 . S
C143 O153 1.272 . S
O144 Co140 2.004 . S
O144 C149 1.259 . S
Co145 O146 2.061 . S
Co145 O151 2.052 . S
Co145 O153 2.135 . S
O146 Co145 2.061 . S
O146 C149 1.235 . S
C147 O150 1.238 . S
C147 O151 1.241 . S
C148 O141 1.247 . S
C148 O142 1.261 . S
C149 O144 1.259 . S
C149 O146 1.235 . S
O150 Co140 2.021 . S
O150 C147 1.238 . S
O151 Co145 2.052 . S
O151 C147 1.241 . S
O152 Co140 2.137 . S
O152 C143 1.247 . S
O153 Co140 2.244 . S
O153 C143 1.272 . S
O153 Co145 2.135 . S
Co154 O155 2.216 . S
Co154 O156 2.091 . S
Co154 O158 2.004 . S
Co154 O164 2.021 . S
Co154 O166 2.137 . S
Co154 O167 2.244 . S
O155 Co154 2.216 . S
O155 C162 1.247 . S
O156 Co154 2.091 . S
O156 C162 1.261 . S
C157 O166 1.247 . S
C157 O167 1.272 . S
O158 Co154 2.004 . S
O158 C163 1.259 . S
Co159 O160 2.061 . S
Co159 O165 2.052 . S
Co159 O167 2.135 . S
O160 Co159 2.061 . S
O160 C163 1.235 . S
C161 O164 1.238 . S
C161 O165 1.241 . S
C162 O155 1.247 . S
C162 O156 1.261 . S
C163 O158 1.259 . S
C163 O160 1.235 . S
O164 Co154 2.021 . S
O164 C161 1.238 . S
O165 Co159 2.052 . S
O165 C161 1.241 . S
O166 Co154 2.137 . S
O166 C157 1.247 . S
O167 Co154 2.244 . S
O167 C157 1.272 . S
O167 Co159 2.135 . S
Co168 O169 2.216 . S
Co168 O170 2.091 . S
Co168 O172 2.004 . S
Co168 O178 2.021 . S
Co168 O180 2.137 . S
Co168 O181 2.244 . S
O169 Co168 2.216 . S
O169 C176 1.247 . S
O170 Co168 2.091 . S
O170 C176 1.261 . S
C171 O180 1.247 . S
C171 O181 1.272 . S
O172 Co168 2.004 . S
O172 C177 1.259 . S
Co173 O174 2.063 1_455 S
Co173 O179 2.052 . S
Co173 O181 2.135 1_455 S
O174 Co173 2.063 1_655 S
O174 C177 1.232 . S
C175 O178 1.238 . S
C175 O179 1.241 1_655 S
C176 O169 1.247 . S
C176 O170 1.261 . S
C177 O172 1.259 . S
C177 O174 1.232 . S
O178 Co168 2.021 . S
O178 C175 1.238 . S
O179 Co173 2.052 . S
O179 C175 1.241 1_455 S
O180 Co168 2.137 . S
O180 C171 1.247 . S
O181 Co168 2.244 . S
O181 C171 1.272 . S
O181 Co173 2.135 1_655 S
Co182 O183 2.216 . S
Co182 O184 2.091 . S
Co182 O186 2.004 . S
Co182 O192 2.021 . S
Co182 O194 2.137 . S
Co182 O195 2.244 . S
O183 Co182 2.216 . S
O183 C190 1.247 . S
O184 Co182 2.091 . S
O184 C190 1.261 . S
C185 O194 1.247 . S
C185 O195 1.272 . S
O186 Co182 2.004 . S
O186 C191 1.259 . S
Co187 O188 2.061 . S
Co187 O193 2.052 . S
Co187 O195 2.135 . S
O188 Co187 2.061 . S
O188 C191 1.235 . S
C189 O192 1.238 . S
C189 O193 1.241 . S
C190 O183 1.247 . S
C190 O184 1.261 . S
C191 O186 1.259 . S
C191 O188 1.235 . S
O192 Co182 2.021 . S
O192 C189 1.238 . S
O193 Co187 2.052 . S
O193 C189 1.241 . S
O194 Co182 2.137 . S
O194 C185 1.247 . S
O195 Co182 2.244 . S
O195 C185 1.272 . S
O195 Co187 2.135 . S
Co196 O197 2.216 . S
Co196 O198 2.091 . S
Co196 O200 2.004 . S
Co196 O206 2.021 . S
Co196 O208 2.137 1_554 S
Co196 O209 2.244 . S
O197 Co196 2.216 . S
O197 C204 1.247 . S
O198 Co196 2.091 . S
O198 C204 1.261 . S
C199 O208 1.247 . S
C199 O209 1.272 1_556 S
O200 Co196 2.004 . S
O200 C205 1.259 . S
Co201 O202 2.061 . S
Co201 O207 2.052 . S
Co201 O209 2.135 . S
O202 Co201 2.061 . S
O202 C205 1.235 . S
C203 O206 1.238 . S
C203 O207 1.241 . S
C204 O197 1.247 . S
C204 O198 1.261 . S
C205 O200 1.259 . S
C205 O202 1.235 . S
O206 Co196 2.021 . S
O206 C203 1.238 . S
O207 Co201 2.052 . S
O207 C203 1.241 . S
O208 Co196 2.137 1_556 S
O208 C199 1.247 . S
O209 Co196 2.244 . S
O209 C199 1.272 1_554 S
O209 Co201 2.135 . S
Co210 O211 2.216 . S
Co210 O212 2.091 . S
Co210 O214 2.004 . S
Co210 O220 2.021 . S
Co210 O222 2.137 . S
Co210 O223 2.244 . S
O211 Co210 2.216 . S
O211 C218 1.247 . S
O212 Co210 2.091 . S
O212 C218 1.261 . S
C213 O222 1.247 . S
C213 O223 1.272 . S
O214 Co210 2.004 . S
O214 C219 1.259 . S
Co215 O216 2.061 . S
Co215 O221 2.052 . S
Co215 O223 2.135 . S
O216 Co215 2.061 . S
O216 C219 1.235 . S
C217 O220 1.238 . S
C217 O221 1.241 . S
C218 O211 1.247 . S
C218 O212 1.261 . S
C219 O214 1.259 . S
C219 O216 1.235 . S
O220 Co210 2.021 . S
O220 C217 1.238 . S
O221 Co215 2.052 . S
O221 C217 1.241 . S
O222 Co210 2.137 . S
O222 C213 1.247 . S
O223 Co210 2.244 . S
O223 C213 1.272 . S
O223 Co215 2.135 . S
Co224 O225 2.216 . S
Co224 O226 2.091 . S
Co224 O228 2.004 . S
Co224 O234 2.021 . S
Co224 O236 2.137 . S
Co224 O237 2.244 . S
O225 Co224 2.216 . S
O225 C232 1.247 . S
O226 Co224 2.091 . S
O226 C232 1.261 . S
C227 O236 1.247 . S
C227 O237 1.272 . S
O228 Co224 2.004 . S
O228 C233 1.259 . S
Co229 O230 2.061 . S
Co229 O235 2.052 . S
Co229 O237 2.135 . S
O230 Co229 2.061 . S
O230 C233 1.235 . S
C231 O234 1.238 . S
C231 O235 1.241 . S
C232 O225 1.247 . S
C232 O226 1.261 . S
C233 O228 1.259 . S
C233 O230 1.235 . S
O234 Co224 2.021 . S
O234 C231 1.238 . S
O235 Co229 2.052 . S
O235 C231 1.241 . S
O236 Co224 2.137 . S
O236 C227 1.247 . S
O237 Co224 2.244 . S
O237 C227 1.272 . S
O237 Co229 2.135 . S
Co238 O239 2.216 . S
Co238 O240 2.091 . S
Co238 O242 2.004 . S
Co238 O248 2.021 . S
Co238 O250 2.137 . S
Co238 O251 2.244 . S
O239 Co238 2.216 . S
O239 C246 1.247 . S
O240 Co238 2.091 . S
O240 C246 1.261 . S
C241 O250 1.247 . S
C241 O251 1.272 . S
O242 Co238 2.004 . S
O242 C247 1.259 . S
Co243 O244 2.061 . S
Co243 O249 2.052 . S
Co243 O251 2.135 . S
O244 Co243 2.061 . S
O244 C247 1.235 . S
C245 O248 1.238 . S
C245 O249 1.241 . S
C246 O239 1.247 . S
C246 O240 1.261 . S
C247 O242 1.259 . S
C247 O244 1.235 . S
O248 Co238 2.021 . S
O248 C245 1.238 . S
O249 Co243 2.052 . S
O249 C245 1.241 . S
O250 Co238 2.137 . S
O250 C241 1.247 . S
O251 Co238 2.244 . S
O251 C241 1.272 . S
O251 Co243 2.135 . S
Co252 O253 2.216 . S
Co252 O254 2.091 . S
Co252 O256 2.004 . S
Co252 O262 2.021 . S
Co252 O264 2.137 1_554 S
Co252 O265 2.244 . S
O253 Co252 2.216 . S
O253 C260 1.247 . S
O254 Co252 2.091 . S
O254 C260 1.261 . S
C255 O264 1.247 . S
C255 O265 1.272 1_556 S
O256 Co252 2.004 . S
O256 C261 1.259 . S
Co257 O258 2.061 1_455 S
Co257 O263 2.052 . S
Co257 O265 2.135 1_455 S
O258 Co257 2.061 1_655 S
O258 C261 1.236 . S
C259 O262 1.238 . S
C259 O263 1.241 1_655 S
C260 O253 1.247 . S
C260 O254 1.261 . S
C261 O256 1.259 . S
C261 O258 1.236 . S
O262 Co252 2.021 . S
O262 C259 1.238 . S
O263 Co257 2.052 . S
O263 C259 1.241 1_455 S
O264 Co252 2.137 1_556 S
O264 C255 1.247 . S
O265 Co252 2.244 . S
O265 C255 1.272 1_554 S
O265 Co257 2.135 1_655 S
Co266 O267 2.216 . S
Co266 O268 2.091 . S
Co266 O270 2.004 . S
Co266 O276 2.021 . S
Co266 O278 2.137 . S
Co266 O279 2.244 . S
O267 Co266 2.216 . S
O267 C274 1.247 . S
O268 Co266 2.091 . S
O268 C274 1.261 . S
C269 O278 1.247 . S
C269 O279 1.272 . S
O270 Co266 2.004 . S
O270 C275 1.259 . S
Co271 O272 2.061 . S
Co271 O277 2.052 . S
Co271 O279 2.135 . S
O272 Co271 2.061 . S
O272 C275 1.235 . S
C273 O276 1.238 . S
C273 O277 1.241 . S
C274 O267 1.247 . S
C274 O268 1.261 . S
C275 O270 1.259 . S
C275 O272 1.235 . S
O276 Co266 2.021 . S
O276 C273 1.238 . S
O277 Co271 2.052 . S
O277 C273 1.241 . S
O278 Co266 2.137 . S
O278 C269 1.247 . S
O279 Co266 2.244 . S
O279 C269 1.272 . S
O279 Co271 2.135 . S
Co280 O281 2.216 . S
Co280 O282 2.091 . S
Co280 O284 2.004 . S
Co280 O290 2.021 . S
Co280 O292 2.137 1_556 S
Co280 O293 2.244 . S
O281 Co280 2.216 . S
O281 C288 1.247 . S
O282 Co280 2.091 . S
O282 C288 1.261 . S
C283 O292 1.247 . S
C283 O293 1.272 1_554 S
O284 Co280 2.004 . S
O284 C289 1.259 . S
Co285 O286 2.061 . S
Co285 O291 2.052 . S
Co285 O293 2.135 . S
O286 Co285 2.061 . S
O286 C289 1.235 . S
C287 O290 1.238 . S
C287 O291 1.241 . S
C288 O281 1.247 . S
C288 O282 1.261 . S
C289 O284 1.259 . S
C289 O286 1.235 . S
O290 Co280 2.021 . S
O290 C287 1.238 . S
O291 Co285 2.052 . S
O291 C287 1.241 . S
O292 Co280 2.137 1_554 S
O292 C283 1.247 . S
O293 Co280 2.244 . S
O293 C283 1.272 1_556 S
O293 Co285 2.135 . S
Co294 O295 2.216 . S
Co294 O296 2.091 . S
Co294 O298 2.004 . S
Co294 O304 2.021 . S
Co294 O306 2.137 . S
Co294 O307 2.244 . S
O295 Co294 2.216 . S
O295 C302 1.247 . S
O296 Co294 2.091 . S
O296 C302 1.261 . S
C297 O306 1.247 . S
C297 O307 1.272 . S
O298 Co294 2.004 . S
O298 C303 1.259 . S
Co299 O300 2.061 . S
Co299 O305 2.052 . S
Co299 O307 2.135 . S
O300 Co299 2.061 . S
O300 C303 1.235 . S
C301 O304 1.238 . S
C301 O305 1.241 . S
C302 O295 1.247 . S
C302 O296 1.261 . S
C303 O298 1.259 . S
C303 O300 1.235 . S
O304 Co294 2.021 . S
O304 C301 1.238 . S
O305 Co299 2.052 . S
O305 C301 1.241 . S
O306 Co294 2.137 . S
O306 C297 1.247 . S
O307 Co294 2.244 . S
O307 C297 1.272 . S
O307 Co299 2.135 . S
Co308 O309 2.216 . S
Co308 O310 2.091 . S
Co308 O312 2.004 . S
Co308 O318 2.021 . S
Co308 O320 2.137 . S
Co308 O321 2.244 . S
O309 Co308 2.216 . S
O309 C316 1.247 . S
O310 Co308 2.091 . S
O310 C316 1.261 . S
C311 O320 1.247 . S
C311 O321 1.272 . S
O312 Co308 2.004 . S
O312 C317 1.259 . S
Co313 O314 2.063 1_455 S
Co313 O319 2.052 . S
Co313 O321 2.135 1_455 S
O314 Co313 2.063 1_655 S
O314 C317 1.233 . S
C315 O318 1.238 . S
C315 O319 1.241 1_655 S
C316 O309 1.247 . S
C316 O310 1.261 . S
C317 O312 1.259 . S
C317 O314 1.233 . S
O318 Co308 2.021 . S
O318 C315 1.238 . S
O319 Co313 2.052 . S
O319 C315 1.241 1_455 S
O320 Co308 2.137 . S
O320 C311 1.247 . S
O321 Co308 2.244 . S
O321 C311 1.272 . S
O321 Co313 2.135 1_655 S
Co322 O323 2.216 . S
Co322 O324 2.091 . S
Co322 O326 2.004 . S
Co322 O332 2.021 . S
Co322 O334 2.137 . S
Co322 O335 2.244 . S
O323 Co322 2.216 . S
O323 C330 1.247 . S
O324 Co322 2.091 . S
O324 C330 1.261 . S
C325 O334 1.247 . S
C325 O335 1.272 . S
O326 Co322 2.004 . S
O326 C331 1.259 . S
Co327 O328 2.061 . S
Co327 O333 2.052 . S
Co327 O335 2.135 . S
O328 Co327 2.061 . S
O328 C331 1.235 . S
C329 O332 1.238 . S
C329 O333 1.241 . S
C330 O323 1.247 . S
C330 O324 1.261 . S
C331 O326 1.259 . S
C331 O328 1.235 . S
O332 Co322 2.021 . S
O332 C329 1.238 . S
O333 Co327 2.052 . S
O333 C329 1.241 . S
O334 Co322 2.137 . S
O334 C325 1.247 . S
O335 Co322 2.244 . S
O335 C325 1.272 . S
O335 Co327 2.135 . S
Co336 O337 2.216 . S
Co336 O338 2.091 . S
Co336 O340 2.004 . S
Co336 O346 2.021 . S
Co336 O348 2.137 . S
Co336 O349 2.244 . S
O337 Co336 2.216 . S
O337 C344 1.247 . S
O338 Co336 2.091 . S
O338 C344 1.261 . S
C339 O348 1.247 . S
C339 O349 1.272 . S
O340 Co336 2.004 . S
O340 C345 1.259 . S
Co341 O342 2.061 . S
Co341 O347 2.052 . S
Co341 O349 2.135 . S
O342 Co341 2.061 . S
O342 C345 1.235 . S
C343 O346 1.238 . S
C343 O347 1.241 . S
C344 O337 1.247 . S
C344 O338 1.261 . S
C345 O340 1.259 . S
C345 O342 1.235 . S
O346 Co336 2.021 . S
O346 C343 1.238 . S
O347 Co341 2.052 . S
O347 C343 1.241 . S
O348 Co336 2.137 . S
O348 C339 1.247 . S
O349 Co336 2.244 . S
O349 C339 1.272 . S
O349 Co341 2.135 . S
Co350 O351 2.216 . S
Co350 O352 2.091 . S
Co350 O354 2.004 . S
Co350 O360 2.021 . S
Co350 O362 2.137 . S
Co350 O363 2.244 . S
O351 Co350 2.216 . S
O351 C358 1.247 . S
O352 Co350 2.091 . S
O352 C358 1.261 . S
C353 O362 1.247 . S
C353 O363 1.272 . S
O354 Co350 2.004 . S
O354 C359 1.259 . S
Co355 O356 2.061 . S
Co355 O361 2.052 . S
Co355 O363 2.135 . S
O356 Co355 2.061 . S
O356 C359 1.235 . S
C357 O360 1.238 . S
C357 O361 1.241 . S
C358 O351 1.247 . S
C358 O352 1.261 . S
C359 O354 1.259 . S
C359 O356 1.235 . S
O360 Co350 2.021 . S
O360 C357 1.238 . S
O361 Co355 2.052 . S
O361 C357 1.241 . S
O362 Co350 2.137 . S
O362 C353 1.247 . S
O363 Co350 2.244 . S
O363 C353 1.272 . S
O363 Co355 2.135 . S
Co364 O365 2.216 . S
Co364 O366 2.091 . S
Co364 O368 2.004 . S
Co364 O374 2.021 . S
Co364 O376 2.137 1_556 S
Co364 O377 2.244 . S
O365 Co364 2.216 . S
O365 C372 1.247 . S
O366 Co364 2.091 . S
O366 C372 1.261 . S
C367 O376 1.247 . S
C367 O377 1.272 1_554 S
O368 Co364 2.004 . S
O368 C373 1.259 . S
Co369 O370 2.061 1_655 S
Co369 O375 2.052 . S
Co369 O377 2.135 1_655 S
O370 Co369 2.061 1_455 S
O370 C373 1.236 . S
C371 O374 1.238 . S
C371 O375 1.241 1_455 S
C372 O365 1.247 . S
C372 O366 1.261 . S
C373 O368 1.259 . S
C373 O370 1.236 . S
O374 Co364 2.021 . S
O374 C371 1.238 . S
O375 Co369 2.052 . S
O375 C371 1.241 1_655 S
O376 Co364 2.137 1_554 S
O376 C367 1.247 . S
O377 Co364 2.244 . S
O377 C367 1.272 1_556 S
O377 Co369 2.135 1_455 S
Co378 O379 2.216 . S
Co378 O380 2.091 . S
Co378 O382 2.004 . S
Co378 O388 2.021 . S
Co378 O390 2.137 . S
Co378 O391 2.244 . S
O379 Co378 2.216 . S
O379 C386 1.247 . S
O380 Co378 2.091 . S
O380 C386 1.261 . S
C381 O390 1.247 . S
C381 O391 1.272 . S
O382 Co378 2.004 . S
O382 C387 1.259 . S
Co383 O384 2.061 . S
Co383 O389 2.052 . S
Co383 O391 2.135 . S
O384 Co383 2.061 . S
O384 C387 1.235 . S
C385 O388 1.238 . S
C385 O389 1.241 . S
C386 O379 1.247 . S
C386 O380 1.261 . S
C387 O382 1.259 . S
C387 O384 1.235 . S
O388 Co378 2.021 . S
O388 C385 1.238 . S
O389 Co383 2.052 . S
O389 C385 1.241 . S
O390 Co378 2.137 . S
O390 C381 1.247 . S
O391 Co378 2.244 . S
O391 C381 1.272 . S
O391 Co383 2.135 . S
Co392 O393 2.216 . S
Co392 O394 2.091 . S
Co392 O396 2.004 . S
Co392 O402 2.021 . S
Co392 O404 2.137 1_554 S
Co392 O405 2.244 . S
O393 Co392 2.216 . S
O393 C400 1.247 . S
O394 Co392 2.091 . S
O394 C400 1.261 . S
C395 O404 1.247 . S
C395 O405 1.272 1_556 S
O396 Co392 2.004 . S
O396 C401 1.259 . S
Co397 O398 2.061 . S
Co397 O403 2.052 . S
Co397 O405 2.135 . S
O398 Co397 2.061 . S
O398 C401 1.235 . S
C399 O402 1.238 . S
C399 O403 1.241 . S
C400 O393 1.247 . S
C400 O394 1.261 . S
C401 O396 1.259 . S
C401 O398 1.235 . S
O402 Co392 2.021 . S
O402 C399 1.238 . S
O403 Co397 2.052 . S
O403 C399 1.241 . S
O404 Co392 2.137 1_556 S
O404 C395 1.247 . S
O405 Co392 2.244 . S
O405 C395 1.272 1_554 S
O405 Co397 2.135 . S
Co406 O407 2.216 . S
Co406 O408 2.091 . S
Co406 O410 2.004 . S
Co406 O416 2.021 . S
Co406 O418 2.137 . S
Co406 O419 2.244 . S
O407 Co406 2.216 . S
O407 C414 1.247 . S
O408 Co406 2.091 . S
O408 C414 1.261 . S
C409 O418 1.247 . S
C409 O419 1.272 . S
O410 Co406 2.004 . S
O410 C415 1.259 . S
Co411 O412 2.061 . S
Co411 O417 2.052 . S
Co411 O419 2.135 . S
O412 Co411 2.061 . S
O412 C415 1.235 . S
C413 O416 1.238 . S
C413 O417 1.241 . S
C414 O407 1.247 . S
C414 O408 1.261 . S
C415 O410 1.259 . S
C415 O412 1.235 . S
O416 Co406 2.021 . S
O416 C413 1.238 . S
O417 Co411 2.052 . S
O417 C413 1.241 . S
O418 Co406 2.137 . S
O418 C409 1.247 . S
O419 Co406 2.244 . S
O419 C409 1.272 . S
O419 Co411 2.135 . S
Co420 O421 2.216 . S
Co420 O422 2.091 . S
Co420 O424 2.004 . S
Co420 O430 2.021 . S
Co420 O432 2.137 . S
Co420 O433 2.244 . S
O421 Co420 2.216 . S
O421 C428 1.247 . S
O422 Co420 2.091 . S
O422 C428 1.261 . S
C423 O432 1.247 . S
C423 O433 1.272 . S
O424 Co420 2.004 . S
O424 C429 1.259 . S
Co425 O426 2.063 1_655 S
Co425 O431 2.052 . S
Co425 O433 2.135 1_655 S
O426 Co425 2.063 1_455 S
O426 C429 1.233 . S
C427 O430 1.238 . S
C427 O431 1.241 1_455 S
C428 O421 1.247 . S
C428 O422 1.261 . S
C429 O424 1.259 . S
C429 O426 1.233 . S
O430 Co420 2.021 . S
O430 C427 1.238 . S
O431 Co425 2.052 . S
O431 C427 1.241 1_655 S
O432 Co420 2.137 . S
O432 C423 1.247 . S
O433 Co420 2.244 . S
O433 C423 1.272 . S
O433 Co425 2.135 1_455 S
Co434 O435 2.216 . S
Co434 O436 2.091 . S
Co434 O438 2.004 . S
Co434 O444 2.021 . S
Co434 O446 2.137 . S
Co434 O447 2.244 . S
O435 Co434 2.216 . S
O435 C442 1.247 . S
O436 Co434 2.091 . S
O436 C442 1.261 . S
C437 O446 1.247 . S
C437 O447 1.272 . S
O438 Co434 2.004 . S
O438 C443 1.259 . S
Co439 O440 2.061 . S
Co439 O445 2.052 . S
Co439 O447 2.135 . S
O440 Co439 2.061 . S
O440 C443 1.235 . S
C441 O444 1.238 . S
C441 O445 1.241 . S
C442 O435 1.247 . S
C442 O436 1.261 . S
C443 O438 1.259 . S
C443 O440 1.235 . S
O444 Co434 2.021 . S
O444 C441 1.238 . S
O445 Co439 2.052 . S
O445 C441 1.241 . S
O446 Co434 2.137 . S
O446 C437 1.247 . S
O447 Co434 2.244 . S
O447 C437 1.272 . S
O447 Co439 2.135 . S
H448 C454 0.930 . S
H449 C458 0.930 . S
H450 C463 0.928 . S
H451 C461 0.929 . S
H452 C456 0.929 . S
H453 C462 0.929 . S
C454 H448 0.930 . S
C454 C455 1.367 . S
C454 C462 1.378 . S
C455 C454 1.367 . S
C455 C463 1.432 1_655 S
C456 H452 0.929 . S
C456 C458 1.378 . S
C456 C460 1.350 . S
C457 C460 1.467 . S
C457 C462 1.345 1_455 S
C457 N465 1.431 . S
C458 H449 0.930 . S
C458 C456 1.378 . S
C458 C459 1.367 . S
C459 C458 1.367 . S
C459 C461 1.433 . S
C460 C456 1.350 . S
C460 C457 1.467 . S
C460 N464 1.427 . S
C461 H451 0.929 . S
C461 C459 1.433 . S
C461 N464 1.384 . S
C462 H453 0.929 . S
C462 C454 1.378 . S
C462 C457 1.345 1_655 S
C463 H450 0.928 . S
C463 C455 1.432 1_455 S
C463 N465 1.384 . S
N464 C460 1.427 . S
N464 C461 1.384 . S
N465 C457 1.431 . S
N465 C463 1.384 . S
H466 C472 0.930 . S
H467 C476 0.930 . S
H468 C481 0.929 . S
H469 C479 0.929 . S
H470 C474 0.929 . S
H471 C480 0.929 . S
C472 H466 0.930 . S
C472 C473 1.367 . S
C472 C480 1.378 1_556 S
C473 C472 1.367 . S
C473 C481 1.433 . S
C474 H470 0.929 . S
C474 C476 1.378 . S
C474 C478 1.350 . S
C475 C478 1.463 . S
C475 C480 1.350 . S
C475 N483 1.427 . S
C476 H467 0.930 . S
C476 C474 1.378 . S
C476 C477 1.367 . S
C477 C476 1.367 . S
C477 C479 1.433 . S
C478 C474 1.350 . S
C478 C475 1.463 . S
C478 N482 1.427 . S
C479 H469 0.929 . S
C479 C477 1.433 . S
C479 N482 1.384 . S
C480 H471 0.929 . S
C480 C472 1.378 1_554 S
C480 C475 1.350 . S
C481 H468 0.929 . S
C481 C473 1.433 . S
C481 N483 1.384 1_556 S
N482 C478 1.427 . S
N482 C479 1.384 . S
N483 C475 1.427 . S
N483 C481 1.384 1_554 S
H484 C490 0.930 . S
H485 C494 0.930 . S
H486 C499 0.929 . S
H487 C497 0.929 . S
H488 C492 0.929 . S
H489 C498 0.929 . S
C490 H484 0.930 . S
C490 C491 1.367 . S
C490 C498 1.378 . S
C491 C490 1.367 . S
C491 C499 1.433 . S
C492 H488 0.929 . S
C492 C494 1.378 . S
C492 C496 1.350 . S
C493 C496 1.463 . S
C493 C498 1.350 . S
C493 N501 1.427 . S
C494 H485 0.930 . S
C494 C492 1.378 . S
C494 C495 1.367 . S
C495 C494 1.367 . S
C495 C497 1.433 . S
C496 C492 1.350 . S
C496 C493 1.463 . S
C496 N500 1.427 . S
C497 H487 0.929 . S
C497 C495 1.433 . S
C497 N500 1.384 . S
C498 H489 0.929 . S
C498 C490 1.378 . S
C498 C493 1.350 . S
C499 H486 0.929 . S
C499 C491 1.433 . S
C499 N501 1.384 . S
N500 C496 1.427 . S
N500 C497 1.384 . S
N501 C493 1.427 . S
N501 C499 1.384 . S
H502 C508 0.930 . S
H503 C512 0.930 . S
H504 C517 0.929 . S
H505 C515 0.929 . S
H506 C510 0.929 . S
H507 C516 0.929 . S
C508 H502 0.930 . S
C508 C509 1.367 . S
C508 C516 1.378 . S
C509 C508 1.367 . S
C509 C517 1.433 . S
C510 H506 0.929 . S
C510 C512 1.378 . S
C510 C514 1.350 . S
C511 C514 1.463 . S
C511 C516 1.350 . S
C511 N519 1.427 . S
C512 H503 0.930 . S
C512 C510 1.378 . S
C512 C513 1.367 . S
C513 C512 1.367 . S
C513 C515 1.433 . S
C514 C510 1.350 . S
C514 C511 1.463 . S
C514 N518 1.427 . S
C515 H505 0.929 . S
C515 C513 1.433 . S
C515 N518 1.384 . S
C516 H507 0.929 . S
C516 C508 1.378 . S
C516 C511 1.350 . S
C517 H504 0.929 . S
C517 C509 1.433 . S
C517 N519 1.384 . S
N518 C514 1.427 . S
N518 C515 1.384 . S
N519 C511 1.427 . S
N519 C517 1.384 . S
H520 C526 0.930 . S
H521 C530 0.930 . S
H522 C535 0.929 . S
H523 C533 0.929 . S
H524 C528 0.929 . S
H525 C534 0.929 . S
C526 H520 0.930 . S
C526 C527 1.367 1_455 S
C526 C534 1.378 . S
C527 C526 1.367 1_655 S
C527 C535 1.433 . S
C528 H524 0.929 . S
C528 C530 1.378 . S
C528 C532 1.350 1_655 S
C529 C532 1.468 . S
C529 C534 1.369 . S
C529 N537 1.406 1_455 S
C530 H521 0.930 . S
C530 C528 1.378 . S
C530 C531 1.367 1_655 S
C531 C530 1.367 1_455 S
C531 C533 1.433 . S
C532 C528 1.350 1_455 S
C532 C529 1.468 . S
C532 N536 1.427 . S
C533 H523 0.929 . S
C533 C531 1.433 . S
C533 N536 1.384 . S
C534 H525 0.929 . S
C534 C526 1.378 . S
C534 C529 1.369 . S
C535 H522 0.929 . S
C535 C527 1.433 . S
C535 N537 1.384 . S
N536 C532 1.427 . S
N536 C533 1.384 . S
N537 C529 1.406 1_655 S
N537 C535 1.384 . S
H538 C544 0.930 . S
H539 C548 0.930 . S
H540 C553 0.929 . S
H541 C551 0.929 . S
H542 C546 0.929 . S
H543 C552 0.929 . S
C544 H538 0.930 . S
C544 C545 1.367 . S
C544 C552 1.378 . S
C545 C544 1.367 . S
C545 C553 1.433 . S
C546 H542 0.929 . S
C546 C548 1.378 1_556 S
C546 C550 1.350 . S
C547 C550 1.463 . S
C547 C552 1.350 . S
C547 N555 1.427 . S
C548 H539 0.930 . S
C548 C546 1.378 1_554 S
C548 C549 1.367 . S
C549 C548 1.367 . S
C549 C551 1.433 . S
C550 C546 1.350 . S
C550 C547 1.463 . S
C550 N554 1.427 . S
C551 H541 0.929 . S
C551 C549 1.433 . S
C551 N554 1.384 1_554 S
C552 H543 0.929 . S
C552 C544 1.378 . S
C552 C547 1.350 . S
C553 H540 0.929 . S
C553 C545 1.433 . S
C553 N555 1.384 . S
N554 C550 1.427 . S
N554 C551 1.384 1_556 S
N555 C547 1.427 . S
N555 C553 1.384 . S
H556 C562 0.930 . S
H557 C566 0.930 . S
H558 C571 0.929 . S
H559 C569 0.929 . S
H560 C564 0.929 . S
H561 C570 0.929 . S
C562 H556 0.930 . S
C562 C563 1.367 . S
C562 C570 1.378 . S
C563 C562 1.367 . S
C563 C571 1.433 . S
C564 H560 0.929 . S
C564 C566 1.378 . S
C564 C568 1.350 . S
C565 C568 1.463 . S
C565 C570 1.350 . S
C565 N573 1.427 . S
C566 H557 0.930 . S
C566 C564 1.378 . S
C566 C567 1.367 . S
C567 C566 1.367 . S
C567 C569 1.433 . S
C568 C564 1.350 . S
C568 C565 1.463 . S
C568 N572 1.427 . S
C569 H559 0.929 . S
C569 C567 1.433 . S
C569 N572 1.384 . S
C570 H561 0.929 . S
C570 C562 1.378 . S
C570 C565 1.350 . S
C571 H558 0.929 . S
C571 C563 1.433 . S
C571 N573 1.384 . S
N572 C568 1.427 . S
N572 C569 1.384 . S
N573 C565 1.427 . S
N573 C571 1.384 . S
H574 C580 0.930 . S
H575 C584 0.930 . S
H576 C589 0.929 . S
H577 C587 0.929 . S
H578 C582 0.929 . S
H579 C588 0.929 . S
C580 H574 0.930 . S
C580 C581 1.367 . S
C580 C588 1.378 . S
C581 C580 1.367 . S
C581 C589 1.433 . S
C582 H578 0.929 . S
C582 C584 1.378 . S
C582 C586 1.350 . S
C583 C586 1.463 . S
C583 C588 1.350 . S
C583 N591 1.427 . S
C584 H575 0.930 . S
C584 C582 1.378 . S
C584 C585 1.367 . S
C585 C584 1.367 . S
C585 C587 1.433 . S
C586 C582 1.350 . S
C586 C583 1.463 . S
C586 N590 1.427 . S
C587 H577 0.929 . S
C587 C585 1.433 . S
C587 N590 1.384 . S
C588 H579 0.929 . S
C588 C580 1.378 . S
C588 C583 1.350 . S
C589 H576 0.929 . S
C589 C581 1.433 . S
C589 N591 1.384 . S
N590 C586 1.427 . S
N590 C587 1.384 . S
N591 C583 1.427 . S
N591 C589 1.384 . S
H592 C598 0.930 . S
H593 C602 0.939 . S
H594 C607 0.929 . S
H595 C605 0.929 . S
H596 C600 0.929 . S
H597 C606 0.929 . S
C598 H592 0.930 . S
C598 C599 1.367 1_655 S
C598 C606 1.378 . S
C599 C598 1.367 1_455 S
C599 C607 1.433 . S
C600 H596 0.929 . S
C600 C602 1.381 . S
C600 C604 1.350 1_455 S
C601 C604 1.468 . S
C601 C606 1.367 . S
C601 N609 1.408 1_655 S
C602 H593 0.939 . S
C602 C600 1.381 . S
C602 C603 1.356 1_455 S
C603 C602 1.356 1_655 S
C603 C605 1.433 . S
C604 C600 1.350 1_655 S
C604 C601 1.468 . S
C604 N608 1.427 . S
C605 H595 0.929 . S
C605 C603 1.433 . S
C605 N608 1.384 . S
C606 H597 0.929 . S
C606 C598 1.378 . S
C606 C601 1.367 . S
C607 H594 0.929 . S
C607 C599 1.433 . S
C607 N609 1.384 . S
N608 C604 1.427 . S
N608 C605 1.384 . S
N609 C601 1.408 1_455 S
N609 C607 1.384 . S
H610 C616 0.930 . S
H611 C620 0.930 . S
H612 C625 0.929 . S
H613 C623 0.929 . S
H614 C618 0.929 . S
H615 C624 0.929 . S
C616 H610 0.930 . S
C616 C617 1.367 . S
C616 C624 1.378 1_554 S
C617 C616 1.367 . S
C617 C625 1.433 . S
C618 H614 0.929 . S
C618 C620 1.378 . S
C618 C622 1.350 . S
C619 C622 1.463 . S
C619 C624 1.350 . S
C619 N627 1.427 . S
C620 H611 0.930 . S
C620 C618 1.378 . S
C620 C621 1.367 . S
C621 C620 1.367 . S
C621 C623 1.433 . S
C622 C618 1.350 . S
C622 C619 1.463 . S
C622 N626 1.427 . S
C623 H613 0.929 . S
C623 C621 1.433 . S
C623 N626 1.384 . S
C624 H615 0.929 . S
C624 C616 1.378 1_556 S
C624 C619 1.350 . S
C625 H612 0.929 . S
C625 C617 1.433 . S
C625 N627 1.384 1_554 S
N626 C622 1.427 . S
N626 C623 1.384 . S
N627 C619 1.427 . S
N627 C625 1.384 1_556 S
H628 C634 0.930 . S
H629 C638 0.930 . S
H630 C643 0.929 . S
H631 C641 0.929 . S
H632 C636 0.929 . S
H633 C642 0.929 . S
C634 H628 0.930 . S
C634 C635 1.367 . S
C634 C642 1.378 . S
C635 C634 1.367 . S
C635 C643 1.433 . S
C636 H632 0.929 . S
C636 C638 1.378 . S
C636 C640 1.350 . S
C637 C640 1.463 . S
C637 C642 1.350 . S
C637 N645 1.427 . S
C638 H629 0.930 . S
C638 C636 1.378 . S
C638 C639 1.367 . S
C639 C638 1.367 . S
C639 C641 1.433 . S
C640 C636 1.350 . S
C640 C637 1.463 . S
C640 N644 1.427 . S
C641 H631 0.929 . S
C641 C639 1.433 . S
C641 N644 1.384 . S
C642 H633 0.929 . S
C642 C634 1.378 . S
C642 C637 1.350 . S
C643 H630 0.929 . S
C643 C635 1.433 . S
C643 N645 1.384 . S
N644 C640 1.427 . S
N644 C641 1.384 . S
N645 C637 1.427 . S
N645 C643 1.384 . S
H646 C652 0.930 . S
H647 C656 0.930 . S
H648 C661 0.929 . S
H649 C659 0.929 . S
H650 C654 0.929 . S
H651 C660 0.929 . S
C652 H646 0.930 . S
C652 C653 1.367 . S
C652 C660 1.378 . S
C653 C652 1.367 . S
C653 C661 1.433 . S
C654 H650 0.929 . S
C654 C656 1.378 . S
C654 C658 1.350 . S
C655 C658 1.463 . S
C655 C660 1.350 . S
C655 N663 1.427 . S
C656 H647 0.930 . S
C656 C654 1.378 . S
C656 C657 1.367 . S
C657 C656 1.367 . S
C657 C659 1.433 . S
C658 C654 1.350 . S
C658 C655 1.463 . S
C658 N662 1.427 . S
C659 H649 0.929 . S
C659 C657 1.433 . S
C659 N662 1.384 . S
C660 H651 0.929 . S
C660 C652 1.378 . S
C660 C655 1.350 . S
C661 H648 0.929 . S
C661 C653 1.433 . S
C661 N663 1.384 . S
N662 C658 1.427 . S
N662 C659 1.384 . S
N663 C655 1.427 . S
N663 C661 1.384 . S
H664 C670 0.930 . S
H665 C674 0.930 . S
H666 C679 0.934 . S
H667 C677 0.929 . S
H668 C672 0.929 . S
H669 C678 0.929 . S
C670 H664 0.930 . S
C670 C671 1.367 . S
C670 C678 1.378 . S
C671 C670 1.367 . S
C671 C679 1.427 1_655 S
C672 H668 0.929 . S
C672 C674 1.378 . S
C672 C676 1.340 1_455 S
C673 C676 1.466 . S
C673 C678 1.350 . S
C673 N681 1.427 1_655 S
C674 H665 0.930 . S
C674 C672 1.378 . S
C674 C675 1.367 . S
C675 C674 1.367 . S
C675 C677 1.433 1_455 S
C676 C672 1.340 1_655 S
C676 C673 1.466 . S
C676 N680 1.436 . S
C677 H667 0.929 . S
C677 C675 1.433 1_655 S
C677 N680 1.384 . S
C678 H669 0.929 . S
C678 C670 1.378 . S
C678 C673 1.350 . S
C679 H666 0.934 . S
C679 C671 1.427 1_455 S
C679 N681 1.385 . S
N680 C676 1.436 . S
N680 C677 1.384 . S
N681 C673 1.427 1_455 S
N681 C679 1.385 . S
H682 C688 0.930 . S
H683 C692 0.930 . S
H684 C697 0.929 . S
H685 C695 0.929 . S
H686 C690 0.929 . S
H687 C696 0.929 . S
C688 H682 0.930 . S
C688 C689 1.367 . S
C688 C696 1.378 . S
C689 C688 1.367 . S
C689 C697 1.433 . S
C690 H686 0.929 . S
C690 C692 1.378 1_554 S
C690 C694 1.350 . S
C691 C694 1.463 . S
C691 C696 1.350 . S
C691 N699 1.427 . S
C692 H683 0.930 . S
C692 C690 1.378 1_556 S
C692 C693 1.367 . S
C693 C692 1.367 . S
C693 C695 1.433 . S
C694 C690 1.350 . S
C694 C691 1.463 . S
C694 N698 1.427 . S
C695 H685 0.929 . S
C695 C693 1.433 . S
C695 N698 1.384 1_556 S
C696 H687 0.929 . S
C696 C688 1.378 . S
C696 C691 1.350 . S
C697 H684 0.929 . S
C697 C689 1.433 . S
C697 N699 1.384 . S
N698 C694 1.427 . S
N698 C695 1.384 1_554 S
N699 C691 1.427 . S
N699 C697 1.384 . S
H700 C706 0.930 . S
H701 C710 0.930 . S
H702 C715 0.929 . S
H703 C713 0.929 . S
H704 C708 0.929 . S
H705 C714 0.929 . S
C706 H700 0.930 . S
C706 C707 1.367 . S
C706 C714 1.378 . S
C707 C706 1.367 . S
C707 C715 1.433 . S
C708 H704 0.929 . S
C708 C710 1.378 . S
C708 C712 1.350 . S
C709 C712 1.463 . S
C709 C714 1.350 . S
C709 N717 1.427 . S
C710 H701 0.930 . S
C710 C708 1.378 . S
C710 C711 1.367 . S
C711 C710 1.367 . S
C711 C713 1.433 . S
C712 C708 1.350 . S
C712 C709 1.463 . S
C712 N716 1.427 . S
C713 H703 0.929 . S
C713 C711 1.433 . S
C713 N716 1.384 . S
C714 H705 0.929 . S
C714 C706 1.378 . S
C714 C709 1.350 . S
C715 H702 0.929 . S
C715 C707 1.433 . S
C715 N717 1.384 . S
N716 C712 1.427 . S
N716 C713 1.384 . S
N717 C709 1.427 . S
N717 C715 1.384 . S
H718 C724 0.930 . S
H719 C728 0.930 . S
H720 C733 0.929 . S
H721 C731 0.929 . S
H722 C726 0.929 . S
H723 C732 0.929 . S
C724 H718 0.930 . S
C724 C725 1.367 . S
C724 C732 1.378 . S
C725 C724 1.367 . S
C725 C733 1.433 . S
C726 H722 0.929 . S
C726 C728 1.378 . S
C726 C730 1.350 . S
C727 C730 1.463 . S
C727 C732 1.350 . S
C727 N735 1.427 . S
C728 H719 0.930 . S
C728 C726 1.378 . S
C728 C729 1.367 . S
C729 C728 1.367 . S
C729 C731 1.433 . S
C730 C726 1.350 . S
C730 C727 1.463 . S
C730 N734 1.427 . S
C731 H721 0.929 . S
C731 C729 1.433 . S
C731 N734 1.384 . S
C732 H723 0.929 . S
C732 C724 1.378 . S
C732 C727 1.350 . S
C733 H720 0.929 . S
C733 C725 1.433 . S
C733 N735 1.384 . S
N734 C730 1.427 . S
N734 C731 1.384 . S
N735 C727 1.427 . S
N735 C733 1.384 . S
H736 C742 0.930 . S
H737 C746 0.930 . S
H738 C751 0.929 . S
H739 C749 0.929 . S
H740 C744 0.929 . S
H741 C750 0.929 . S
C742 H736 0.930 . S
C742 C743 1.367 . S
C742 C750 1.378 . S
C743 C742 1.367 . S
C743 C751 1.433 . S
C744 H740 0.929 . S
C744 C746 1.378 . S
C744 C748 1.350 . S
C745 C748 1.463 . S
C745 C750 1.350 . S
C745 N753 1.427 . S
C746 H737 0.930 . S
C746 C744 1.378 . S
C746 C747 1.367 . S
C747 C746 1.367 . S
C747 C749 1.433 . S
C748 C744 1.350 . S
C748 C745 1.463 . S
C748 N752 1.427 . S
C749 H739 0.929 . S
C749 C747 1.433 . S
C749 N752 1.384 . S
C750 H741 0.929 . S
C750 C742 1.378 . S
C750 C745 1.350 . S
C751 H738 0.929 . S
C751 C743 1.433 . S
C751 N753 1.384 . S
N752 C748 1.427 . S
N752 C749 1.384 . S
N753 C745 1.427 . S
N753 C751 1.384 . S
H754 C760 0.930 . S
H755 C764 0.930 . S
H756 C769 0.929 . S
H757 C767 0.929 . S
H758 C762 0.929 . S
H759 C768 0.929 . S
C760 H754 0.930 . S
C760 C761 1.367 . S
C760 C768 1.378 . S
C761 C760 1.367 . S
C761 C769 1.433 . S
C762 H758 0.929 . S
C762 C764 1.378 . S
C762 C766 1.350 . S
C763 C766 1.463 . S
C763 C768 1.350 . S
C763 N771 1.427 . S
C764 H755 0.930 . S
C764 C762 1.378 . S
C764 C765 1.367 . S
C765 C764 1.367 . S
C765 C767 1.433 . S
C766 C762 1.350 . S
C766 C763 1.463 . S
C766 N770 1.427 . S
C767 H757 0.929 . S
C767 C765 1.433 . S
C767 N770 1.384 . S
C768 H759 0.929 . S
C768 C760 1.378 . S
C768 C763 1.350 . S
C769 H756 0.929 . S
C769 C761 1.433 . S
C769 N771 1.384 . S
N770 C766 1.427 . S
N770 C767 1.384 . S
N771 C763 1.427 . S
N771 C769 1.384 . S
H772 C778 0.930 . S
H773 C782 0.930 . S
H774 C787 0.929 . S
H775 C785 0.929 . S
H776 C780 0.929 . S
H777 C786 0.929 . S
C778 H772 0.930 . S
C778 C779 1.367 . S
C778 C786 1.378 . S
C779 C778 1.367 . S
C779 C787 1.433 1_455 S
C780 H776 0.929 . S
C780 C782 1.378 . S
C780 C784 1.350 . S
C781 C784 1.466 . S
C781 C786 1.335 1_655 S
C781 N789 1.441 . S
C782 H773 0.930 . S
C782 C780 1.378 . S
C782 C783 1.367 . S
C783 C782 1.367 . S
C783 C785 1.433 1_655 S
C784 C780 1.350 . S
C784 C781 1.466 . S
C784 N788 1.427 1_655 S
C785 H775 0.929 . S
C785 C783 1.433 1_455 S
C785 N788 1.384 . S
C786 H777 0.929 . S
C786 C778 1.378 . S
C786 C781 1.335 1_455 S
C787 H774 0.929 . S
C787 C779 1.433 1_655 S
C787 N789 1.384 . S
N788 C784 1.427 1_455 S
N788 C785 1.384 . S
N789 C781 1.441 . S
N789 C787 1.384 . S
H790 C796 0.930 . S
H791 C800 0.930 . S
H792 C805 0.929 . S
H793 C803 0.929 . S
H794 C798 0.929 . S
H795 C804 0.929 . S
C796 H790 0.930 . S
C796 C797 1.367 . S
C796 C804 1.378 . S
C797 C796 1.367 . S
C797 C805 1.433 . S
C798 H794 0.929 . S
C798 C800 1.378 1_554 S
C798 C802 1.350 . S
C799 C802 1.463 . S
C799 C804 1.350 . S
C799 N807 1.427 . S
C800 H791 0.930 . S
C800 C798 1.378 1_556 S
C800 C801 1.367 . S
C801 C800 1.367 . S
C801 C803 1.433 . S
C802 C798 1.350 . S
C802 C799 1.463 . S
C802 N806 1.427 . S
C803 H793 0.929 . S
C803 C801 1.433 . S
C803 N806 1.384 1_556 S
C804 H795 0.929 . S
C804 C796 1.378 . S
C804 C799 1.350 . S
C805 H792 0.929 . S
C805 C797 1.433 . S
C805 N807 1.384 . S
N806 C802 1.427 . S
N806 C803 1.384 1_554 S
N807 C799 1.427 . S
N807 C805 1.384 . S
H808 C814 0.930 . S
H809 C818 0.930 . S
H810 C823 0.929 . S
H811 C821 0.929 . S
H812 C816 0.929 . S
H813 C822 0.929 . S
C814 H808 0.930 . S
C814 C815 1.367 . S
C814 C822 1.378 . S
C815 C814 1.367 . S
C815 C823 1.433 . S
C816 H812 0.929 . S
C816 C818 1.378 . S
C816 C820 1.350 . S
C817 C820 1.463 . S
C817 C822 1.350 . S
C817 N825 1.427 . S
C818 H809 0.930 . S
C818 C816 1.378 . S
C818 C819 1.367 . S
C819 C818 1.367 . S
C819 C821 1.433 . S
C820 C816 1.350 . S
C820 C817 1.463 . S
C820 N824 1.427 . S
C821 H811 0.929 . S
C821 C819 1.433 . S
C821 N824 1.384 . S
C822 H813 0.929 . S
C822 C814 1.378 . S
C822 C817 1.350 . S
C823 H810 0.929 . S
C823 C815 1.433 . S
C823 N825 1.384 . S
N824 C820 1.427 . S
N824 C821 1.384 . S
N825 C817 1.427 . S
N825 C823 1.384 . S
H826 C832 0.930 . S
H827 C836 0.930 . S
H828 C841 0.929 . S
H829 C839 0.929 . S
H830 C834 0.929 . S
H831 C840 0.929 . S
C832 H826 0.930 . S
C832 C833 1.367 . S
C832 C840 1.378 . S
C833 C832 1.367 . S
C833 C841 1.433 . S
C834 H830 0.929 . S
C834 C836 1.378 . S
C834 C838 1.350 . S
C835 C838 1.463 . S
C835 C840 1.350 . S
C835 N843 1.427 . S
C836 H827 0.930 . S
C836 C834 1.378 . S
C836 C837 1.367 . S
C837 C836 1.367 . S
C837 C839 1.433 . S
C838 C834 1.350 . S
C838 C835 1.463 . S
C838 N842 1.427 . S
C839 H829 0.929 . S
C839 C837 1.433 . S
C839 N842 1.384 . S
C840 H831 0.929 . S
C840 C832 1.378 . S
C840 C835 1.350 . S
C841 H828 0.929 . S
C841 C833 1.433 . S
C841 N843 1.384 . S
N842 C838 1.427 . S
N842 C839 1.384 . S
N843 C835 1.427 . S
N843 C841 1.384 . S
H844 C850 0.930 . S
H845 C854 0.930 . S
H846 C859 0.929 . S
H847 C857 0.929 . S
H848 C852 0.929 . S
H849 C858 0.929 . S
C850 H844 0.930 . S
C850 C851 1.367 1_655 S
C850 C858 1.378 . S
C851 C850 1.367 1_455 S
C851 C859 1.433 . S
C852 H848 0.929 . S
C852 C854 1.378 . S
C852 C856 1.350 1_455 S
C853 C856 1.468 . S
C853 C858 1.373 . S
C853 N861 1.401 1_655 S
C854 H845 0.930 . S
C854 C852 1.378 . S
C854 C855 1.367 1_455 S
C855 C854 1.367 1_655 S
C855 C857 1.433 . S
C856 C852 1.350 1_655 S
C856 C853 1.468 . S
C856 N860 1.427 . S
C857 H847 0.929 . S
C857 C855 1.433 . S
C857 N860 1.384 . S
C858 H849 0.929 . S
C858 C850 1.378 . S
C858 C853 1.373 . S
C859 H846 0.929 . S
C859 C851 1.433 . S
C859 N861 1.384 . S
N860 C856 1.427 . S
N860 C857 1.384 . S
N861 C853 1.401 1_455 S
N861 C859 1.384 . S
H862 C868 0.930 . S
H863 C872 0.930 . S
H864 C877 0.929 . S
H865 C875 0.929 . S
H866 C870 0.929 . S
H867 C876 0.929 . S
C868 H862 0.930 . S
C868 C869 1.367 . S
C868 C876 1.378 1_554 S
C869 C868 1.367 . S
C869 C877 1.433 . S
C870 H866 0.929 . S
C870 C872 1.378 . S
C870 C874 1.350 . S
C871 C874 1.463 . S
C871 C876 1.350 . S
C871 N879 1.427 . S
C872 H863 0.930 . S
C872 C870 1.378 . S
C872 C873 1.367 . S
C873 C872 1.367 . S
C873 C875 1.433 . S
C874 C870 1.350 . S
C874 C871 1.463 . S
C874 N878 1.427 . S
C875 H865 0.929 . S
C875 C873 1.433 . S
C875 N878 1.384 . S
C876 H867 0.929 . S
C876 C868 1.378 1_556 S
C876 C871 1.350 . S
C877 H864 0.929 . S
C877 C869 1.433 . S
C877 N879 1.384 1_554 S
N878 C874 1.427 . S
N878 C875 1.384 . S
N879 C871 1.427 . S
N879 C877 1.384 1_556 S
H880 C886 0.930 . S
H881 C890 0.930 . S
H882 C895 0.929 . S
H883 C893 0.929 . S
H884 C888 0.929 . S
H885 C894 0.929 . S
C886 H880 0.930 . S
C886 C887 1.367 . S
C886 C894 1.378 . S
C887 C886 1.367 . S
C887 C895 1.433 . S
C888 H884 0.929 . S
C888 C890 1.378 . S
C888 C892 1.350 . S
C889 C892 1.463 . S
C889 C894 1.350 . S
C889 N897 1.427 . S
C890 H881 0.930 . S
C890 C888 1.378 . S
C890 C891 1.367 . S
C891 C890 1.367 . S
C891 C893 1.433 . S
C892 C888 1.350 . S
C892 C889 1.463 . S
C892 N896 1.427 . S
C893 H883 0.929 . S
C893 C891 1.433 . S
C893 N896 1.384 . S
C894 H885 0.929 . S
C894 C886 1.378 . S
C894 C889 1.350 . S
C895 H882 0.929 . S
C895 C887 1.433 . S
C895 N897 1.384 . S
N896 C892 1.427 . S
N896 C893 1.384 . S
N897 C889 1.427 . S
N897 C895 1.384 . S
H898 C904 0.930 . S
H899 C908 0.930 . S
H900 C913 0.929 . S
H901 C911 0.929 . S
H902 C906 0.929 . S
H903 C912 0.929 . S
C904 H898 0.930 . S
C904 C905 1.367 . S
C904 C912 1.378 . S
C905 C904 1.367 . S
C905 C913 1.433 . S
C906 H902 0.929 . S
C906 C908 1.378 . S
C906 C910 1.350 . S
C907 C910 1.463 . S
C907 C912 1.350 . S
C907 N915 1.427 . S
C908 H899 0.930 . S
C908 C906 1.378 . S
C908 C909 1.367 . S
C909 C908 1.367 . S
C909 C911 1.433 . S
C910 C906 1.350 . S
C910 C907 1.463 . S
C910 N914 1.427 . S
C911 H901 0.929 . S
C911 C909 1.433 . S
C911 N914 1.384 . S
C912 H903 0.929 . S
C912 C904 1.378 . S
C912 C907 1.350 . S
C913 H900 0.929 . S
C913 C905 1.433 . S
C913 N915 1.384 . S
N914 C910 1.427 . S
N914 C911 1.384 . S
N915 C907 1.427 . S
N915 C913 1.384 . S
H916 C922 0.937 . S
H917 C926 0.930 . S
H918 C931 0.929 . S
H919 C929 0.929 . S
H920 C924 0.929 . S
H921 C930 0.924 1_655 S
C922 H916 0.937 . S
C922 C923 1.367 . S
C922 C930 1.380 . S
C923 C922 1.367 . S
C923 C931 1.433 . S
C924 H920 0.929 . S
C924 C926 1.378 . S
C924 C928 1.357 . S
C925 C928 1.468 . S
C925 C930 1.353 . S
C925 N933 1.427 . S
C926 H917 0.930 . S
C926 C924 1.378 . S
C926 C927 1.367 1_455 S
C927 C926 1.367 1_655 S
C927 C929 1.433 . S
C928 C924 1.357 . S
C928 C925 1.468 . S
C928 N932 1.418 1_455 S
C929 H919 0.929 . S
C929 C927 1.433 . S
C929 N932 1.384 . S
C930 H921 0.924 1_455 S
C930 C922 1.380 . S
C930 C925 1.353 . S
C931 H918 0.929 . S
C931 C923 1.433 . S
C931 N933 1.384 . S
N932 C928 1.418 1_655 S
N932 C929 1.384 . S
N933 C925 1.427 . S
N933 C931 1.384 . S
H934 C940 0.930 . S
H935 C944 0.930 . S
H936 C949 0.929 . S
H937 C947 0.929 . S
H938 C942 0.929 . S
H939 C948 0.929 . S
C940 H934 0.930 . S
C940 C941 1.367 . S
C940 C948 1.378 . S
C941 C940 1.367 . S
C941 C949 1.433 . S
C942 H938 0.929 . S
C942 C944 1.378 1_556 S
C942 C946 1.350 . S
C943 C946 1.463 . S
C943 C948 1.350 . S
C943 N951 1.427 . S
C944 H935 0.930 . S
C944 C942 1.378 1_554 S
C944 C945 1.367 . S
C945 C944 1.367 . S
C945 C947 1.433 . S
C946 C942 1.350 . S
C946 C943 1.463 . S
C946 N950 1.427 . S
C947 H937 0.929 . S
C947 C945 1.433 . S
C947 N950 1.384 1_554 S
C948 H939 0.929 . S
C948 C940 1.378 . S
C948 C943 1.350 . S
C949 H936 0.929 . S
C949 C941 1.433 . S
C949 N951 1.384 . S
N950 C946 1.427 . S
N950 C947 1.384 1_556 S
N951 C943 1.427 . S
N951 C949 1.384 . S
H952 C958 0.930 . S
H953 C962 0.930 . S
H954 C967 0.929 . S
H955 C965 0.929 . S
H956 C960 0.929 . S
H957 C966 0.929 . S
C958 H952 0.930 . S
C958 C959 1.367 . S
C958 C966 1.378 . S
C959 C958 1.367 . S
C959 C967 1.433 . S
C960 H956 0.929 . S
C960 C962 1.378 . S
C960 C964 1.350 . S
C961 C964 1.463 . S
C961 C966 1.350 . S
C961 N969 1.427 . S
C962 H953 0.930 . S
C962 C960 1.378 . S
C962 C963 1.367 . S
C963 C962 1.367 . S
C963 C965 1.433 . S
C964 C960 1.350 . S
C964 C961 1.463 . S
C964 N968 1.427 . S
C965 H955 0.929 . S
C965 C963 1.433 . S
C965 N968 1.384 . S
C966 H957 0.929 . S
C966 C958 1.378 . S
C966 C961 1.350 . S
C967 H954 0.929 . S
C967 C959 1.433 . S
C967 N969 1.384 . S
N968 C964 1.427 . S
N968 C965 1.384 . S
N969 C961 1.427 . S
N969 C967 1.384 . S
H970 C976 0.930 . S
H971 C980 0.930 . S
H972 C985 0.929 . S
H973 C983 0.929 . S
H974 C978 0.929 . S
H975 C984 0.929 . S
C976 H970 0.930 . S
C976 C977 1.367 . S
C976 C984 1.378 . S
C977 C976 1.367 . S
C977 C985 1.433 . S
C978 H974 0.929 . S
C978 C980 1.378 . S
C978 C982 1.350 . S
C979 C982 1.463 . S
C979 C984 1.350 . S
C979 N987 1.427 . S
C980 H971 0.930 . S
C980 C978 1.378 . S
C980 C981 1.367 . S
C981 C980 1.367 . S
C981 C983 1.433 . S
C982 C978 1.350 . S
C982 C979 1.463 . S
C982 N986 1.427 . S
C983 H973 0.929 . S
C983 C981 1.433 . S
C983 N986 1.384 . S
C984 H975 0.929 . S
C984 C976 1.378 . S
C984 C979 1.350 . S
C985 H972 0.929 . S
C985 C977 1.433 . S
C985 N987 1.384 . S
N986 C982 1.427 . S
N986 C983 1.384 . S
N987 C979 1.427 . S
N987 C985 1.384 . S
H988 C994 0.930 . S
H989 C998 0.930 . S
H990 C1003 0.929 . S
H991 C1001 0.929 . S
H992 C996 0.929 . S
H993 C1002 0.929 . S
C994 H988 0.930 . S
C994 C995 1.367 1_455 S
C994 C1002 1.378 . S
C995 C994 1.367 1_655 S
C995 C1003 1.433 . S
C996 H992 0.929 . S
C996 C998 1.378 . S
C996 C1000 1.350 1_655 S
C997 C1000 1.463 . S
C997 C1002 1.350 . S
C997 N1005 1.427 1_455 S
C998 H989 0.930 . S
C998 C996 1.378 . S
C998 C999 1.367 1_655 S
C999 C998 1.367 1_455 S
C999 C1001 1.433 . S
C1000 C996 1.350 1_455 S
C1000 C997 1.463 . S
C1000 N1004 1.427 . S
C1001 H991 0.929 . S
C1001 C999 1.433 . S
C1001 N1004 1.384 . S
C1002 H993 0.929 . S
C1002 C994 1.378 . S
C1002 C997 1.350 . S
C1003 H990 0.929 . S
C1003 C995 1.433 . S
C1003 N1005 1.384 . S
N1004 C1000 1.427 . S
N1004 C1001 1.384 . S
N1005 C997 1.427 1_655 S
N1005 C1003 1.384 . S
H1006 C1012 0.930 . S
H1007 C1016 0.930 . S
H1008 C1021 0.929 . S
H1009 C1019 0.929 . S
H1010 C1014 0.929 . S
H1011 C1020 0.929 . S
C1012 H1006 0.930 . S
C1012 C1013 1.367 . S
C1012 C1020 1.378 . S
C1013 C1012 1.367 . S
C1013 C1021 1.433 . S
C1014 H1010 0.929 . S
C1014 C1016 1.378 1_554 S
C1014 C1018 1.350 . S
C1015 C1018 1.463 . S
C1015 C1020 1.350 . S
C1015 N1023 1.427 . S
C1016 H1007 0.930 . S
C1016 C1014 1.378 1_556 S
C1016 C1017 1.367 . S
C1017 C1016 1.367 . S
C1017 C1019 1.433 . S
C1018 C1014 1.350 . S
C1018 C1015 1.463 . S
C1018 N1022 1.427 . S
C1019 H1009 0.929 . S
C1019 C1017 1.433 . S
C1019 N1022 1.384 1_556 S
C1020 H1011 0.929 . S
C1020 C1012 1.378 . S
C1020 C1015 1.350 . S
C1021 H1008 0.929 . S
C1021 C1013 1.433 . S
C1021 N1023 1.384 . S
N1022 C1018 1.427 . S
N1022 C1019 1.384 1_554 S
N1023 C1015 1.427 . S
N1023 C1021 1.384 . S
H1024 C1030 0.930 . S
H1025 C1034 0.930 . S
H1026 C1039 0.929 . S
H1027 C1037 0.929 . S
H1028 C1032 0.929 . S
H1029 C1038 0.929 . S
C1030 H1024 0.930 . S
C1030 C1031 1.367 . S
C1030 C1038 1.378 . S
C1031 C1030 1.367 . S
C1031 C1039 1.433 1_554 S
C1032 H1028 0.929 . S
C1032 C1034 1.378 . S
C1032 C1036 1.350 . S
C1033 C1036 1.463 1_444 S
C1033 C1038 1.350 . S
C1033 N1041 1.427 1_554 S
C1034 H1025 0.930 . S
C1034 C1032 1.378 . S
C1034 C1035 1.367 . S
C1035 C1034 1.367 . S
C1035 C1037 1.433 1_556 S
C1036 C1032 1.350 . S
C1036 C1033 1.463 1_666 S
C1036 N1040 1.427 1_556 S
C1037 H1027 0.929 . S
C1037 C1035 1.433 1_554 S
C1037 N1040 1.384 . S
C1038 H1029 0.929 . S
C1038 C1030 1.378 . S
C1038 C1033 1.350 . S
C1039 H1026 0.929 . S
C1039 C1031 1.433 1_556 S
C1039 N1041 1.384 . S
N1040 C1036 1.427 1_554 S
N1040 C1037 1.384 . S
N1041 C1033 1.427 1_556 S
N1041 C1039 1.384 . S
H1042 C1048 0.930 . S
H1043 C1052 0.930 . S
H1044 C1057 0.929 . S
H1045 C1055 0.929 . S
H1046 C1050 0.929 . S
H1047 C1056 0.929 . S
C1048 H1042 0.930 . S
C1048 C1049 1.367 . S
C1048 C1056 1.378 . S
C1049 C1048 1.367 . S
C1049 C1057 1.433 . S
C1050 H1046 0.929 . S
C1050 C1052 1.378 . S
C1050 C1054 1.350 . S
C1051 C1054 1.463 . S
C1051 C1056 1.350 . S
C1051 N1059 1.427 . S
C1052 H1043 0.930 . S
C1052 C1050 1.378 . S
C1052 C1053 1.367 . S
C1053 C1052 1.367 . S
C1053 C1055 1.433 . S
C1054 C1050 1.350 . S
C1054 C1051 1.463 . S
C1054 N1058 1.427 . S
C1055 H1045 0.929 . S
C1055 C1053 1.433 . S
C1055 N1058 1.384 . S
C1056 H1047 0.929 . S
C1056 C1048 1.378 . S
C1056 C1051 1.350 . S
C1057 H1044 0.929 . S
C1057 C1049 1.433 . S
C1057 N1059 1.384 . S
N1058 C1054 1.427 . S
N1058 C1055 1.384 . S
N1059 C1051 1.427 . S
N1059 C1057 1.384 . S
H1060 C1066 0.930 . S
H1061 C1070 0.930 . S
H1062 C1075 0.929 . S
H1063 C1073 0.929 . S
H1064 C1068 0.929 . S
H1065 C1074 0.929 . S
C1066 H1060 0.930 . S
C1066 C1067 1.367 . S
C1066 C1074 1.378 . S
C1067 C1066 1.367 . S
C1067 C1075 1.433 . S
C1068 H1064 0.929 . S
C1068 C1070 1.378 . S
C1068 C1072 1.350 . S
C1069 C1072 1.463 1_545 S
C1069 C1074 1.350 . S
C1069 N1077 1.427 . S
C1070 H1061 0.930 . S
C1070 C1068 1.378 . S
C1070 C1071 1.367 . S
C1071 C1070 1.367 . S
C1071 C1073 1.433 . S
C1072 C1068 1.350 . S
C1072 C1069 1.463 1_565 S
C1072 N1076 1.427 . S
C1073 H1063 0.929 . S
C1073 C1071 1.433 . S
C1073 N1076 1.384 . S
C1074 H1065 0.929 . S
C1074 C1066 1.378 . S
C1074 C1069 1.350 . S
C1075 H1062 0.929 . S
C1075 C1067 1.433 . S
C1075 N1077 1.384 . S
N1076 C1072 1.427 . S
N1076 C1073 1.384 . S
N1077 C1069 1.427 . S
N1077 C1075 1.384 . S
H1078 C1084 0.930 . S
H1079 C1088 0.930 . S
H1080 C1093 0.929 . S
H1081 C1091 0.929 . S
H1082 C1086 0.929 . S
H1083 C1092 0.929 . S
C1084 H1078 0.930 . S
C1084 C1085 1.367 . S
C1084 C1092 1.378 . S
C1085 C1084 1.367 . S
C1085 C1093 1.433 . S
C1086 H1082 0.929 . S
C1086 C1088 1.378 . S
C1086 C1090 1.350 . S
C1087 C1090 1.463 . S
C1087 C1092 1.350 . S
C1087 N1095 1.427 . S
C1088 H1079 0.930 . S
C1088 C1086 1.378 . S
C1088 C1089 1.367 . S
C1089 C1088 1.367 . S
C1089 C1091 1.433 . S
C1090 C1086 1.350 . S
C1090 C1087 1.463 . S
C1090 N1094 1.427 . S
C1091 H1081 0.929 . S
C1091 C1089 1.433 . S
C1091 N1094 1.384 . S
C1092 H1083 0.929 . S
C1092 C1084 1.378 . S
C1092 C1087 1.350 . S
C1093 H1080 0.929 . S
C1093 C1085 1.433 . S
C1093 N1095 1.384 . S
N1094 C1090 1.427 . S
N1094 C1091 1.384 . S
N1095 C1087 1.427 . S
N1095 C1093 1.384 . S
H1096 C1102 0.930 . S
H1097 C1106 0.930 . S
H1098 C1111 0.929 . S
H1099 C1109 0.929 . S
H1100 C1104 0.929 . S
H1101 C1110 0.929 . S
C1102 H1096 0.930 . S
C1102 C1103 1.367 . S
C1102 C1110 1.378 . S
C1103 C1102 1.367 . S
C1103 C1111 1.433 . S
C1104 H1100 0.929 . S
C1104 C1106 1.378 . S
C1104 C1108 1.350 . S
C1105 C1108 1.463 1_465 S
C1105 C1110 1.350 . S
C1105 N1113 1.427 . S
C1106 H1097 0.930 . S
C1106 C1104 1.378 . S
C1106 C1107 1.367 . S
C1107 C1106 1.367 . S
C1107 C1109 1.433 . S
C1108 C1104 1.350 . S
C1108 C1105 1.463 1_645 S
C1108 N1112 1.427 . S
C1109 H1099 0.929 . S
C1109 C1107 1.433 . S
C1109 N1112 1.384 . S
C1110 H1101 0.929 . S
C1110 C1102 1.378 . S
C1110 C1105 1.350 . S
C1111 H1098 0.929 . S
C1111 C1103 1.433 . S
C1111 N1113 1.384 . S
N1112 C1108 1.427 . S
N1112 C1109 1.384 . S
N1113 C1105 1.427 . S
N1113 C1111 1.384 . S
H1114 C1120 0.930 . S
H1115 C1124 0.930 . S
H1116 C1129 0.929 . S
H1117 C1127 0.929 . S
H1118 C1122 0.929 . S
H1119 C1128 0.929 . S
C1120 H1114 0.930 . S
C1120 C1121 1.367 . S
C1120 C1128 1.378 . S
C1121 C1120 1.367 . S
C1121 C1129 1.433 . S
C1122 H1118 0.929 . S
C1122 C1124 1.378 . S
C1122 C1126 1.350 . S
C1123 C1126 1.463 . S
C1123 C1128 1.350 . S
C1123 N1131 1.427 . S
C1124 H1115 0.930 . S
C1124 C1122 1.378 . S
C1124 C1125 1.367 . S
C1125 C1124 1.367 . S
C1125 C1127 1.433 . S
C1126 C1122 1.350 . S
C1126 C1123 1.463 . S
C1126 N1130 1.427 . S
C1127 H1117 0.929 . S
C1127 C1125 1.433 . S
C1127 N1130 1.384 . S
C1128 H1119 0.929 . S
C1128 C1120 1.378 . S
C1128 C1123 1.350 . S
C1129 H1116 0.929 . S
C1129 C1121 1.433 . S
C1129 N1131 1.384 . S
N1130 C1126 1.427 . S
N1130 C1127 1.384 . S
N1131 C1123 1.427 . S
N1131 C1129 1.384 . S
H1132 C1138 0.930 . S
H1133 C1142 0.930 . S
H1134 C1147 0.929 . S
H1135 C1145 0.929 . S
H1136 C1140 0.929 . S
H1137 C1146 0.929 . S
C1138 H1132 0.930 . S
C1138 C1139 1.367 . S
C1138 C1146 1.378 . S
C1139 C1138 1.367 . S
C1139 C1147 1.433 . S
C1140 H1136 0.929 . S
C1140 C1142 1.378 . S
C1140 C1144 1.350 . S
C1141 C1144 1.463 1_564 S
C1141 C1146 1.350 . S
C1141 N1149 1.427 . S
C1142 H1133 0.930 . S
C1142 C1140 1.378 . S
C1142 C1143 1.367 . S
C1143 C1142 1.367 . S
C1143 C1145 1.433 . S
C1144 C1140 1.350 . S
C1144 C1141 1.463 1_546 S
C1144 N1148 1.427 . S
C1145 H1135 0.929 . S
C1145 C1143 1.433 . S
C1145 N1148 1.384 . S
C1146 H1137 0.929 . S
C1146 C1138 1.378 . S
C1146 C1141 1.350 . S
C1147 H1134 0.929 . S
C1147 C1139 1.433 . S
C1147 N1149 1.384 . S
N1148 C1144 1.427 . S
N1148 C1145 1.384 . S
N1149 C1141 1.427 . S
N1149 C1147 1.384 . S
H1150 C1156 0.930 . S
H1151 C1160 0.930 . S
H1152 C1165 0.929 . S
H1153 C1163 0.929 . S
H1154 C1158 0.929 . S
H1155 C1164 0.929 . S
C1156 H1150 0.930 . S
C1156 C1157 1.367 . S
C1156 C1164 1.378 . S
C1157 C1156 1.367 . S
C1157 C1165 1.433 . S
C1158 H1154 0.929 . S
C1158 C1160 1.378 . S
C1158 C1162 1.350 . S
C1159 C1162 1.463 . S
C1159 C1164 1.350 . S
C1159 N1167 1.427 . S
C1160 H1151 0.930 . S
C1160 C1158 1.378 . S
C1160 C1161 1.367 . S
C1161 C1160 1.367 . S
C1161 C1163 1.433 . S
C1162 C1158 1.350 . S
C1162 C1159 1.463 . S
C1162 N1166 1.427 . S
C1163 H1153 0.929 . S
C1163 C1161 1.433 . S
C1163 N1166 1.384 . S
C1164 H1155 0.929 . S
C1164 C1156 1.378 . S
C1164 C1159 1.350 . S
C1165 H1152 0.929 . S
C1165 C1157 1.433 . S
C1165 N1167 1.384 . S
N1166 C1162 1.427 . S
N1166 C1163 1.384 . S
N1167 C1159 1.427 . S
N1167 C1165 1.384 . S
H1168 C1174 0.930 . S
H1169 C1178 0.930 . S
H1170 C1183 0.929 . S
H1171 C1181 0.929 . S
H1172 C1176 0.929 . S
H1173 C1182 0.929 . S
C1174 H1168 0.930 . S
C1174 C1175 1.367 . S
C1174 C1182 1.378 . S
C1175 C1174 1.367 . S
C1175 C1183 1.433 . S
C1176 H1172 0.929 . S
C1176 C1178 1.378 . S
C1176 C1180 1.350 . S
C1177 C1180 1.463 . S
C1177 C1182 1.350 . S
C1177 N1185 1.427 . S
C1178 H1169 0.930 . S
C1178 C1176 1.378 . S
C1178 C1179 1.367 . S
C1179 C1178 1.367 . S
C1179 C1181 1.433 . S
C1180 C1176 1.350 . S
C1180 C1177 1.463 . S
C1180 N1184 1.427 . S
C1181 H1171 0.929 . S
C1181 C1179 1.433 . S
C1181 N1184 1.384 . S
C1182 H1173 0.929 . S
C1182 C1174 1.378 . S
C1182 C1177 1.350 . S
C1183 H1170 0.929 . S
C1183 C1175 1.433 . S
C1183 N1185 1.384 . S
N1184 C1180 1.427 . S
N1184 C1181 1.384 . S
N1185 C1177 1.427 . S
N1185 C1183 1.384 . S
H1186 C1192 0.930 . S
H1187 C1196 0.930 . S
H1188 C1201 0.929 . S
H1189 C1199 0.929 . S
H1190 C1194 0.929 . S
H1191 C1200 0.929 . S
C1192 H1186 0.930 . S
C1192 C1193 1.367 . S
C1192 C1200 1.378 . S
C1193 C1192 1.367 . S
C1193 C1201 1.433 . S
C1194 H1190 0.929 . S
C1194 C1196 1.378 . S
C1194 C1198 1.350 . S
C1195 C1198 1.463 . S
C1195 C1200 1.350 . S
C1195 N1203 1.427 . S
C1196 H1187 0.930 . S
C1196 C1194 1.378 . S
C1196 C1197 1.367 . S
C1197 C1196 1.367 . S
C1197 C1199 1.433 . S
C1198 C1194 1.350 . S
C1198 C1195 1.463 . S
C1198 N1202 1.427 . S
C1199 H1189 0.929 . S
C1199 C1197 1.433 . S
C1199 N1202 1.384 . S
C1200 H1191 0.929 . S
C1200 C1192 1.378 . S
C1200 C1195 1.350 . S
C1201 H1188 0.929 . S
C1201 C1193 1.433 . S
C1201 N1203 1.384 . S
N1202 C1198 1.427 . S
N1202 C1199 1.384 . S
N1203 C1195 1.427 . S
N1203 C1201 1.384 . S
H1204 C1210 0.930 . S
H1205 C1214 0.930 . S
H1206 C1219 0.929 . S
H1207 C1217 0.929 . S
H1208 C1212 0.929 . S
H1209 C1218 0.929 . S
C1210 H1204 0.930 . S
C1210 C1211 1.367 . S
C1210 C1218 1.378 . S
C1211 C1210 1.367 . S
C1211 C1219 1.433 . S
C1212 H1208 0.929 . S
C1212 C1214 1.378 . S
C1212 C1216 1.350 . S
C1213 C1216 1.463 . S
C1213 C1218 1.350 . S
C1213 N1221 1.427 . S
C1214 H1205 0.930 . S
C1214 C1212 1.378 . S
C1214 C1215 1.367 . S
C1215 C1214 1.367 . S
C1215 C1217 1.433 . S
C1216 C1212 1.350 . S
C1216 C1213 1.463 . S
C1216 N1220 1.427 . S
C1217 H1207 0.929 . S
C1217 C1215 1.433 . S
C1217 N1220 1.384 . S
C1218 H1209 0.929 . S
C1218 C1210 1.378 . S
C1218 C1213 1.350 . S
C1219 H1206 0.929 . S
C1219 C1211 1.433 . S
C1219 N1221 1.384 . S
N1220 C1216 1.427 . S
N1220 C1217 1.384 . S
N1221 C1213 1.427 . S
N1221 C1219 1.384 . S
H1222 C1228 0.930 . S
H1223 C1232 0.930 . S
H1224 C1237 0.929 . S
H1225 C1235 0.929 . S
H1226 C1230 0.929 . S
H1227 C1236 0.929 . S
C1228 H1222 0.930 . S
C1228 C1229 1.367 . S
C1228 C1236 1.378 . S
C1229 C1228 1.367 . S
C1229 C1237 1.433 . S
C1230 H1226 0.929 . S
C1230 C1232 1.378 . S
C1230 C1234 1.350 . S
C1231 C1234 1.463 . S
C1231 C1236 1.350 . S
C1231 N1239 1.427 . S
C1232 H1223 0.930 . S
C1232 C1230 1.378 . S
C1232 C1233 1.367 . S
C1233 C1232 1.367 . S
C1233 C1235 1.433 . S
C1234 C1230 1.350 . S
C1234 C1231 1.463 . S
C1234 N1238 1.427 . S
C1235 H1225 0.929 . S
C1235 C1233 1.433 . S
C1235 N1238 1.384 . S
C1236 H1227 0.929 . S
C1236 C1228 1.378 . S
C1236 C1231 1.350 . S
C1237 H1224 0.929 . S
C1237 C1229 1.433 . S
C1237 N1239 1.384 . S
N1238 C1234 1.427 . S
N1238 C1235 1.384 . S
N1239 C1231 1.427 . S
N1239 C1237 1.384 . S
H1240 C1246 0.930 . S
H1241 C1250 0.930 . S
H1242 C1255 0.929 . S
H1243 C1253 0.929 . S
H1244 C1248 0.929 . S
H1245 C1254 0.929 . S
C1246 H1240 0.930 . S
C1246 C1247 1.367 . S
C1246 C1254 1.378 . S
C1247 C1246 1.367 . S
C1247 C1255 1.433 . S
C1248 H1244 0.929 . S
C1248 C1250 1.378 . S
C1248 C1252 1.350 . S
C1249 C1252 1.463 . S
C1249 C1254 1.350 . S
C1249 N1257 1.427 . S
C1250 H1241 0.930 . S
C1250 C1248 1.378 . S
C1250 C1251 1.367 . S
C1251 C1250 1.367 . S
C1251 C1253 1.433 . S
C1252 C1248 1.350 . S
C1252 C1249 1.463 . S
C1252 N1256 1.427 . S
C1253 H1243 0.929 . S
C1253 C1251 1.433 . S
C1253 N1256 1.384 . S
C1254 H1245 0.929 . S
C1254 C1246 1.378 . S
C1254 C1249 1.350 . S
C1255 H1242 0.929 . S
C1255 C1247 1.433 . S
C1255 N1257 1.384 . S
N1256 C1252 1.427 . S
N1256 C1253 1.384 . S
N1257 C1249 1.427 . S
N1257 C1255 1.384 . S
H1258 C1264 0.930 . S
H1259 C1268 0.930 . S
H1260 C1273 0.929 . S
H1261 C1271 0.929 . S
H1262 C1266 0.929 . S
H1263 C1272 0.929 . S
C1264 H1258 0.930 . S
C1264 C1265 1.367 . S
C1264 C1272 1.378 . S
C1265 C1264 1.367 . S
C1265 C1273 1.433 1_554 S
C1266 H1262 0.929 . S
C1266 C1268 1.378 . S
C1266 C1270 1.350 . S
C1267 C1270 1.463 1_654 S
C1267 C1272 1.350 . S
C1267 N1275 1.427 1_654 S
C1268 H1259 0.930 . S
C1268 C1266 1.378 . S
C1268 C1269 1.367 . S
C1269 C1268 1.367 . S
C1269 C1271 1.433 1_556 S
C1270 C1266 1.350 . S
C1270 C1267 1.463 1_456 S
C1270 N1274 1.427 1_456 S
C1271 H1261 0.929 . S
C1271 C1269 1.433 1_554 S
C1271 N1274 1.384 1_455 S
C1272 H1263 0.929 . S
C1272 C1264 1.378 . S
C1272 C1267 1.350 . S
C1273 H1260 0.929 . S
C1273 C1265 1.433 1_556 S
C1273 N1275 1.384 1_655 S
N1274 C1270 1.427 1_654 S
N1274 C1271 1.384 1_655 S
N1275 C1267 1.427 1_456 S
N1275 C1273 1.384 1_455 S
H1276 C1282 0.930 . S
H1277 C1286 0.930 . S
H1278 C1291 0.929 . S
H1279 C1289 0.929 . S
H1280 C1284 0.929 . S
H1281 C1290 0.929 . S
C1282 H1276 0.930 . S
C1282 C1283 1.367 1_554 S
C1282 C1290 1.378 . S
C1283 C1282 1.367 1_556 S
C1283 C1291 1.433 . S
C1284 H1280 0.929 . S
C1284 C1286 1.378 . S
C1284 C1288 1.350 1_556 S
C1285 C1288 1.463 1_556 S
C1285 C1290 1.350 1_556 S
C1285 N1293 1.427 . S
C1286 H1277 0.930 . S
C1286 C1284 1.378 . S
C1286 C1287 1.367 1_556 S
C1287 C1286 1.367 1_554 S
C1287 C1289 1.433 . S
C1288 C1284 1.350 1_554 S
C1288 C1285 1.463 1_554 S
C1288 N1292 1.427 . S
C1289 H1279 0.929 . S
C1289 C1287 1.433 . S
C1289 N1292 1.384 . S
C1290 H1281 0.929 . S
C1290 C1282 1.378 . S
C1290 C1285 1.350 1_554 S
C1291 H1278 0.929 . S
C1291 C1283 1.433 . S
C1291 N1293 1.384 . S
N1292 C1288 1.427 . S
N1292 C1289 1.384 . S
N1293 C1285 1.427 . S
N1293 C1291 1.384 . S
H1294 C1300 0.915 1_655 S
H1295 C1304 0.915 1_455 S
H1296 C1309 0.929 . S
H1297 C1307 0.929 . S
H1298 C1302 0.929 . S
H1299 C1308 0.929 . S
C1300 H1294 0.915 1_455 S
C1300 C1301 1.394 . S
C1300 C1308 1.367 1_455 S
C1301 C1300 1.394 . S
C1301 C1309 1.433 . S
C1302 H1298 0.929 . S
C1302 C1304 1.367 1_455 S
C1302 C1306 1.350 1_455 S
C1303 C1306 1.463 1_455 S
C1303 C1308 1.350 1_455 S
C1303 N1311 1.427 . S
C1304 H1295 0.915 1_655 S
C1304 C1302 1.367 1_655 S
C1304 C1305 1.394 . S
C1305 C1304 1.394 . S
C1305 C1307 1.433 . S
C1306 C1302 1.350 1_655 S
C1306 C1303 1.463 1_655 S
C1306 N1310 1.427 . S
C1307 H1297 0.929 . S
C1307 C1305 1.433 . S
C1307 N1310 1.384 . S
C1308 H1299 0.929 . S
C1308 C1300 1.367 1_655 S
C1308 C1303 1.350 1_655 S
C1309 H1296 0.929 . S
C1309 C1301 1.433 . S
C1309 N1311 1.384 . S
N1310 C1306 1.427 . S
N1310 C1307 1.384 . S
N1311 C1303 1.427 . S
N1311 C1309 1.384 . S
H1312 C1318 0.930 . S
H1313 C1322 0.930 . S
H1314 C1327 0.929 . S
H1315 C1325 0.929 . S
H1316 C1320 0.929 . S
H1317 C1326 0.929 . S
C1318 H1312 0.930 . S
C1318 C1319 1.367 . S
C1318 C1326 1.378 . S
C1319 C1318 1.367 . S
C1319 C1327 1.433 . S
C1320 H1316 0.929 . S
C1320 C1322 1.378 . S
C1320 C1324 1.350 . S
C1321 C1324 1.463 . S
C1321 C1326 1.350 . S
C1321 N1329 1.427 . S
C1322 H1313 0.930 . S
C1322 C1320 1.378 . S
C1322 C1323 1.367 . S
C1323 C1322 1.367 . S
C1323 C1325 1.433 . S
C1324 C1320 1.350 . S
C1324 C1321 1.463 . S
C1324 N1328 1.427 . S
C1325 H1315 0.929 . S
C1325 C1323 1.433 . S
C1325 N1328 1.384 . S
C1326 H1317 0.929 . S
C1326 C1318 1.378 . S
C1326 C1321 1.350 . S
C1327 H1314 0.929 . S
C1327 C1319 1.433 . S
C1327 N1329 1.384 . S
N1328 C1324 1.427 . S
N1328 C1325 1.384 . S
N1329 C1321 1.427 . S
N1329 C1327 1.384 . S
H1330 C1336 0.930 . S
H1331 C1340 0.930 . S
H1332 C1345 0.929 . S
H1333 C1343 0.929 . S
H1334 C1338 0.929 . S
H1335 C1344 0.929 . S
C1336 H1330 0.930 . S
C1336 C1337 1.367 . S
C1336 C1344 1.378 . S
C1337 C1336 1.367 . S
C1337 C1345 1.433 . S
C1338 H1334 0.929 . S
C1338 C1340 1.378 . S
C1338 C1342 1.350 . S
C1339 C1342 1.463 . S
C1339 C1344 1.350 . S
C1339 N1347 1.427 . S
C1340 H1331 0.930 . S
C1340 C1338 1.378 . S
C1340 C1341 1.367 . S
C1341 C1340 1.367 . S
C1341 C1343 1.433 . S
C1342 C1338 1.350 . S
C1342 C1339 1.463 . S
C1342 N1346 1.427 . S
C1343 H1333 0.929 . S
C1343 C1341 1.433 . S
C1343 N1346 1.384 . S
C1344 H1335 0.929 . S
C1344 C1336 1.378 . S
C1344 C1339 1.350 . S
C1345 H1332 0.929 . S
C1345 C1337 1.433 . S
C1345 N1347 1.384 . S
N1346 C1342 1.427 . S
N1346 C1343 1.384 . S
N1347 C1339 1.427 . S
N1347 C1345 1.384 . S
H1348 C1354 0.930 . S
H1349 C1358 0.930 . S
H1350 C1363 0.929 . S
H1351 C1361 0.929 . S
H1352 C1356 0.929 . S
H1353 C1362 0.929 . S
C1354 H1348 0.930 . S
C1354 C1355 1.367 . S
C1354 C1362 1.378 . S
C1355 C1354 1.367 . S
C1355 C1363 1.433 . S
C1356 H1352 0.929 . S
C1356 C1358 1.378 . S
C1356 C1360 1.350 . S
C1357 C1360 1.463 . S
C1357 C1362 1.350 . S
C1357 N1365 1.427 . S
C1358 H1349 0.930 . S
C1358 C1356 1.378 . S
C1358 C1359 1.367 . S
C1359 C1358 1.367 . S
C1359 C1361 1.433 . S
C1360 C1356 1.350 . S
C1360 C1357 1.463 . S
C1360 N1364 1.427 . S
C1361 H1351 0.929 . S
C1361 C1359 1.433 . S
C1361 N1364 1.384 . S
C1362 H1353 0.929 . S
C1362 C1354 1.378 . S
C1362 C1357 1.350 . S
C1363 H1350 0.929 . S
C1363 C1355 1.433 . S
C1363 N1365 1.384 . S
N1364 C1360 1.427 . S
N1364 C1361 1.384 . S
N1365 C1357 1.427 . S
N1365 C1363 1.384 . S
H1366 C1372 0.930 . S
H1367 C1376 0.930 . S
H1368 C1381 0.929 . S
H1369 C1379 0.929 . S
H1370 C1374 0.929 . S
H1371 C1380 0.929 . S
C1372 H1366 0.930 . S
C1372 C1373 1.367 . S
C1372 C1380 1.378 . S
C1373 C1372 1.367 . S
C1373 C1381 1.433 . S
C1374 H1370 0.929 . S
C1374 C1376 1.378 . S
C1374 C1378 1.350 . S
C1375 C1378 1.463 . S
C1375 C1380 1.350 . S
C1375 N1383 1.427 . S
C1376 H1367 0.930 . S
C1376 C1374 1.378 . S
C1376 C1377 1.367 . S
C1377 C1376 1.367 . S
C1377 C1379 1.433 . S
C1378 C1374 1.350 . S
C1378 C1375 1.463 . S
C1378 N1382 1.427 . S
C1379 H1369 0.929 . S
C1379 C1377 1.433 . S
C1379 N1382 1.384 . S
C1380 H1371 0.929 . S
C1380 C1372 1.378 . S
C1380 C1375 1.350 . S
C1381 H1368 0.929 . S
C1381 C1373 1.433 . S
C1381 N1383 1.384 . S
N1382 C1378 1.427 . S
N1382 C1379 1.384 . S
N1383 C1375 1.427 . S
N1383 C1381 1.384 . S
H1384 C1390 0.930 . S
H1385 C1394 0.930 . S
H1386 C1399 0.929 . S
H1387 C1397 0.929 . S
H1388 C1392 0.929 . S
H1389 C1398 0.929 . S
C1390 H1384 0.930 . S
C1390 C1391 1.367 . S
C1390 C1398 1.378 . S
C1391 C1390 1.367 . S
C1391 C1399 1.433 . S
C1392 H1388 0.929 . S
C1392 C1394 1.378 . S
C1392 C1396 1.350 . S
C1393 C1396 1.463 . S
C1393 C1398 1.350 . S
C1393 N1401 1.427 . S
C1394 H1385 0.930 . S
C1394 C1392 1.378 . S
C1394 C1395 1.367 . S
C1395 C1394 1.367 . S
C1395 C1397 1.433 . S
C1396 C1392 1.350 . S
C1396 C1393 1.463 . S
C1396 N1400 1.427 . S
C1397 H1387 0.929 . S
C1397 C1395 1.433 . S
C1397 N1400 1.384 . S
C1398 H1389 0.929 . S
C1398 C1390 1.378 . S
C1398 C1393 1.350 . S
C1399 H1386 0.929 . S
C1399 C1391 1.433 . S
C1399 N1401 1.384 . S
N1400 C1396 1.427 . S
N1400 C1397 1.384 . S
N1401 C1393 1.427 . S
N1401 C1399 1.384 . S
H1402 C1408 0.930 . S
H1403 C1412 0.930 . S
H1404 C1417 0.929 . S
H1405 C1415 0.929 . S
H1406 C1410 0.929 . S
H1407 C1416 0.929 . S
C1408 H1402 0.930 . S
C1408 C1409 1.367 . S
C1408 C1416 1.378 . S
C1409 C1408 1.367 . S
C1409 C1417 1.433 . S
C1410 H1406 0.929 . S
C1410 C1412 1.378 . S
C1410 C1414 1.350 . S
C1411 C1414 1.463 . S
C1411 C1416 1.350 . S
C1411 N1419 1.427 . S
C1412 H1403 0.930 . S
C1412 C1410 1.378 . S
C1412 C1413 1.367 . S
C1413 C1412 1.367 . S
C1413 C1415 1.433 . S
C1414 C1410 1.350 . S
C1414 C1411 1.463 . S
C1414 N1418 1.427 . S
C1415 H1405 0.929 . S
C1415 C1413 1.433 . S
C1415 N1418 1.384 . S
C1416 H1407 0.929 . S
C1416 C1408 1.378 . S
C1416 C1411 1.350 . S
C1417 H1404 0.929 . S
C1417 C1409 1.433 . S
C1417 N1419 1.384 . S
N1418 C1414 1.427 . S
N1418 C1415 1.384 . S
N1419 C1411 1.427 . S
N1419 C1417 1.384 . S
H1420 C1426 0.930 . S
H1421 C1430 0.930 . S
H1422 C1435 0.929 . S
H1423 C1433 0.929 . S
H1424 C1428 0.929 . S
H1425 C1434 0.929 . S
C1426 H1420 0.930 . S
C1426 C1427 1.367 . S
C1426 C1434 1.378 . S
C1427 C1426 1.367 . S
C1427 C1435 1.433 . S
C1428 H1424 0.929 . S
C1428 C1430 1.378 . S
C1428 C1432 1.350 . S
C1429 C1432 1.463 . S
C1429 C1434 1.350 . S
C1429 N1437 1.427 . S
C1430 H1421 0.930 . S
C1430 C1428 1.378 . S
C1430 C1431 1.367 . S
C1431 C1430 1.367 . S
C1431 C1433 1.433 . S
C1432 C1428 1.350 . S
C1432 C1429 1.463 . S
C1432 N1436 1.427 . S
C1433 H1423 0.929 . S
C1433 C1431 1.433 . S
C1433 N1436 1.384 . S
C1434 H1425 0.929 . S
C1434 C1426 1.378 . S
C1434 C1429 1.350 . S
C1435 H1422 0.929 . S
C1435 C1427 1.433 . S
C1435 N1437 1.384 . S
N1436 C1432 1.427 . S
N1436 C1433 1.384 . S
N1437 C1429 1.427 . S
N1437 C1435 1.384 . S
H1438 C1444 0.930 . S
H1439 C1448 0.930 . S
H1440 C1453 0.929 . S
H1441 C1451 0.929 . S
H1442 C1446 0.929 . S
H1443 C1452 0.929 . S
C1444 H1438 0.930 . S
C1444 C1445 1.367 . S
C1444 C1452 1.378 . S
C1445 C1444 1.367 . S
C1445 C1453 1.433 . S
C1446 H1442 0.929 . S
C1446 C1448 1.378 . S
C1446 C1450 1.350 . S
C1447 C1450 1.463 . S
C1447 C1452 1.350 . S
C1447 N1455 1.427 . S
C1448 H1439 0.930 . S
C1448 C1446 1.378 . S
C1448 C1449 1.367 . S
C1449 C1448 1.367 . S
C1449 C1451 1.433 . S
C1450 C1446 1.350 . S
C1450 C1447 1.463 . S
C1450 N1454 1.427 . S
C1451 H1441 0.929 . S
C1451 C1449 1.433 . S
C1451 N1454 1.384 . S
C1452 H1443 0.929 . S
C1452 C1444 1.378 . S
C1452 C1447 1.350 . S
C1453 H1440 0.929 . S
C1453 C1445 1.433 . S
C1453 N1455 1.384 . S
N1454 C1450 1.427 . S
N1454 C1451 1.384 . S
N1455 C1447 1.427 . S
N1455 C1453 1.384 . S
H1456 C1462 0.930 . S
H1457 C1466 0.930 . S
H1458 C1471 0.929 . S
H1459 C1469 0.929 . S
H1460 C1464 0.929 . S
H1461 C1470 0.929 . S
C1462 H1456 0.930 . S
C1462 C1463 1.367 . S
C1462 C1470 1.378 . S
C1463 C1462 1.367 . S
C1463 C1471 1.433 . S
C1464 H1460 0.929 . S
C1464 C1466 1.378 . S
C1464 C1468 1.350 . S
C1465 C1468 1.463 . S
C1465 C1470 1.350 . S
C1465 N1473 1.427 . S
C1466 H1457 0.930 . S
C1466 C1464 1.378 . S
C1466 C1467 1.367 . S
C1467 C1466 1.367 . S
C1467 C1469 1.433 . S
C1468 C1464 1.350 . S
C1468 C1465 1.463 . S
C1468 N1472 1.427 . S
C1469 H1459 0.929 . S
C1469 C1467 1.433 . S
C1469 N1472 1.384 . S
C1470 H1461 0.929 . S
C1470 C1462 1.378 . S
C1470 C1465 1.350 . S
C1471 H1458 0.929 . S
C1471 C1463 1.433 . S
C1471 N1473 1.384 . S
N1472 C1468 1.427 . S
N1472 C1469 1.384 . S
N1473 C1465 1.427 . S
N1473 C1471 1.384 . S
H1474 C1480 0.930 . S
H1475 C1484 0.930 . S
H1476 C1489 0.929 . S
H1477 C1487 0.929 . S
H1478 C1482 0.929 . S
H1479 C1488 0.929 . S
C1480 H1474 0.930 . S
C1480 C1481 1.367 . S
C1480 C1488 1.378 . S
C1481 C1480 1.367 . S
C1481 C1489 1.433 . S
C1482 H1478 0.929 . S
C1482 C1484 1.378 . S
C1482 C1486 1.350 . S
C1483 C1486 1.463 . S
C1483 C1488 1.350 . S
C1483 N1491 1.427 . S
C1484 H1475 0.930 . S
C1484 C1482 1.378 . S
C1484 C1485 1.367 . S
C1485 C1484 1.367 . S
C1485 C1487 1.433 . S
C1486 C1482 1.350 . S
C1486 C1483 1.463 . S
C1486 N1490 1.427 . S
C1487 H1477 0.929 . S
C1487 C1485 1.433 . S
C1487 N1490 1.384 . S
C1488 H1479 0.929 . S
C1488 C1480 1.378 . S
C1488 C1483 1.350 . S
C1489 H1476 0.929 . S
C1489 C1481 1.433 . S
C1489 N1491 1.384 . S
N1490 C1486 1.427 . S
N1490 C1487 1.384 . S
N1491 C1483 1.427 . S
N1491 C1489 1.384 . S
H1492 C1498 0.930 . S
H1493 C1502 0.930 . S
H1494 C1507 0.929 . S
H1495 C1505 0.929 . S
H1496 C1500 0.929 . S
H1497 C1506 0.929 . S
C1498 H1492 0.930 . S
C1498 C1499 1.367 . S
C1498 C1506 1.378 . S
C1499 C1498 1.367 . S
C1499 C1507 1.433 . S
C1500 H1496 0.929 . S
C1500 C1502 1.378 . S
C1500 C1504 1.350 . S
C1501 C1504 1.463 . S
C1501 C1506 1.350 . S
C1501 N1509 1.427 . S
C1502 H1493 0.930 . S
C1502 C1500 1.378 . S
C1502 C1503 1.367 . S
C1503 C1502 1.367 . S
C1503 C1505 1.433 . S
C1504 C1500 1.350 . S
C1504 C1501 1.463 . S
C1504 N1508 1.427 . S
C1505 H1495 0.929 . S
C1505 C1503 1.433 . S
C1505 N1508 1.384 . S
C1506 H1497 0.929 . S
C1506 C1498 1.378 . S
C1506 C1501 1.350 . S
C1507 H1494 0.929 . S
C1507 C1499 1.433 . S
C1507 N1509 1.384 . S
N1508 C1504 1.427 . S
N1508 C1505 1.384 . S
N1509 C1501 1.427 . S
N1509 C1507 1.384 . S
H1510 C1516 0.930 . S
H1511 C1520 0.930 . S
H1512 C1525 0.929 . S
H1513 C1523 0.929 . S
H1514 C1518 0.929 . S
H1515 C1524 0.929 . S
C1516 H1510 0.930 . S
C1516 C1517 1.367 . S
C1516 C1524 1.378 . S
C1517 C1516 1.367 . S
C1517 C1525 1.433 . S
C1518 H1514 0.929 . S
C1518 C1520 1.378 . S
C1518 C1522 1.350 . S
C1519 C1522 1.463 . S
C1519 C1524 1.350 . S
C1519 N1527 1.427 . S
C1520 H1511 0.930 . S
C1520 C1518 1.378 . S
C1520 C1521 1.367 . S
C1521 C1520 1.367 . S
C1521 C1523 1.433 . S
C1522 C1518 1.350 . S
C1522 C1519 1.463 . S
C1522 N1526 1.427 . S
C1523 H1513 0.929 . S
C1523 C1521 1.433 . S
C1523 N1526 1.384 . S
C1524 H1515 0.929 . S
C1524 C1516 1.378 . S
C1524 C1519 1.350 . S
C1525 H1512 0.929 . S
C1525 C1517 1.433 . S
C1525 N1527 1.384 . S
N1526 C1522 1.427 . S
N1526 C1523 1.384 . S
N1527 C1519 1.427 . S
N1527 C1525 1.384 . S
H1528 C1534 0.930 . S
H1529 C1538 0.930 . S
H1530 C1543 0.929 . S
H1531 C1541 0.929 . S
H1532 C1536 0.929 . S
H1533 C1542 0.929 . S
C1534 H1528 0.930 . S
C1534 C1535 1.367 . S
C1534 C1542 1.378 . S
C1535 C1534 1.367 . S
C1535 C1543 1.433 . S
C1536 H1532 0.929 . S
C1536 C1538 1.378 . S
C1536 C1540 1.350 . S
C1537 C1540 1.463 . S
C1537 C1542 1.350 . S
C1537 N1545 1.427 . S
C1538 H1529 0.930 . S
C1538 C1536 1.378 . S
C1538 C1539 1.367 . S
C1539 C1538 1.367 . S
C1539 C1541 1.433 . S
C1540 C1536 1.350 . S
C1540 C1537 1.463 . S
C1540 N1544 1.427 . S
C1541 H1531 0.929 . S
C1541 C1539 1.433 . S
C1541 N1544 1.384 . S
C1542 H1533 0.929 . S
C1542 C1534 1.378 . S
C1542 C1537 1.350 . S
C1543 H1530 0.929 . S
C1543 C1535 1.433 . S
C1543 N1545 1.384 . S
N1544 C1540 1.427 . S
N1544 C1541 1.384 . S
N1545 C1537 1.427 . S
N1545 C1543 1.384 . S
H1546 C1552 0.930 . S
H1547 C1556 0.930 . S
H1548 C1561 0.929 . S
H1549 C1559 0.929 . S
H1550 C1554 0.929 . S
H1551 C1560 0.929 . S
C1552 H1546 0.930 . S
C1552 C1553 1.367 . S
C1552 C1560 1.378 . S
C1553 C1552 1.367 . S
C1553 C1561 1.433 . S
C1554 H1550 0.929 . S
C1554 C1556 1.378 . S
C1554 C1558 1.350 . S
C1555 C1558 1.463 . S
C1555 C1560 1.350 . S
C1555 N1563 1.427 . S
C1556 H1547 0.930 . S
C1556 C1554 1.378 . S
C1556 C1557 1.367 . S
C1557 C1556 1.367 . S
C1557 C1559 1.433 . S
C1558 C1554 1.350 . S
C1558 C1555 1.463 . S
C1558 N1562 1.427 . S
C1559 H1549 0.929 . S
C1559 C1557 1.433 . S
C1559 N1562 1.384 . S
C1560 H1551 0.929 . S
C1560 C1552 1.378 . S
C1560 C1555 1.350 . S
C1561 H1548 0.929 . S
C1561 C1553 1.433 . S
C1561 N1563 1.384 . S
N1562 C1558 1.427 . S
N1562 C1559 1.384 . S
N1563 C1555 1.427 . S
N1563 C1561 1.384 . S
H1564 C1570 0.930 . S
H1565 C1574 0.930 . S
H1566 C1579 0.929 . S
H1567 C1577 0.929 . S
H1568 C1572 0.929 . S
H1569 C1578 0.929 . S
C1570 H1564 0.930 . S
C1570 C1571 1.367 . S
C1570 C1578 1.378 . S
C1571 C1570 1.367 . S
C1571 C1579 1.433 . S
C1572 H1568 0.929 . S
C1572 C1574 1.378 . S
C1572 C1576 1.350 . S
C1573 C1576 1.463 . S
C1573 C1578 1.350 . S
C1573 N1581 1.427 . S
C1574 H1565 0.930 . S
C1574 C1572 1.378 . S
C1574 C1575 1.367 . S
C1575 C1574 1.367 . S
C1575 C1577 1.433 . S
C1576 C1572 1.350 . S
C1576 C1573 1.463 . S
C1576 N1580 1.427 . S
C1577 H1567 0.929 . S
C1577 C1575 1.433 . S
C1577 N1580 1.384 . S
C1578 H1569 0.929 . S
C1578 C1570 1.378 . S
C1578 C1573 1.350 . S
C1579 H1566 0.929 . S
C1579 C1571 1.433 . S
C1579 N1581 1.384 . S
N1580 C1576 1.427 . S
N1580 C1577 1.384 . S
N1581 C1573 1.427 . S
N1581 C1579 1.384 . S
H1582 C1588 0.930 . S
H1583 C1592 0.930 . S
H1584 C1597 0.929 . S
H1585 C1595 0.929 . S
H1586 C1590 0.929 . S
H1587 C1596 0.929 . S
C1588 H1582 0.930 . S
C1588 C1589 1.367 . S
C1588 C1596 1.378 . S
C1589 C1588 1.367 . S
C1589 C1597 1.433 . S
C1590 H1586 0.929 . S
C1590 C1592 1.378 . S
C1590 C1594 1.350 . S
C1591 C1594 1.463 . S
C1591 C1596 1.350 . S
C1591 N1599 1.427 . S
C1592 H1583 0.930 . S
C1592 C1590 1.378 . S
C1592 C1593 1.367 . S
C1593 C1592 1.367 . S
C1593 C1595 1.433 . S
C1594 C1590 1.350 . S
C1594 C1591 1.463 . S
C1594 N1598 1.427 . S
C1595 H1585 0.929 . S
C1595 C1593 1.433 . S
C1595 N1598 1.384 . S
C1596 H1587 0.929 . S
C1596 C1588 1.378 . S
C1596 C1591 1.350 . S
C1597 H1584 0.929 . S
C1597 C1589 1.433 . S
C1597 N1599 1.384 . S
N1598 C1594 1.427 . S
N1598 C1595 1.384 . S
N1599 C1591 1.427 . S
N1599 C1597 1.384 . S
C455 C175 1.069 . S
C459 C3 1.049 . S
C473 C413 1.074 . S
C477 C17 1.048 . S
C491 C203 1.074 . S
C495 C31 1.033 . S
C509 C441 1.070 . S
C513 C45 1.043 . S
C527 C119 1.070 . S
C531 C59 1.052 . S
C545 C73 1.051 . S
C549 C357 1.073 . S
C563 C87 1.034 . S
C567 C147 1.073 . S
C581 C385 1.070 . S
C585 C101 1.042 . S
C599 C63 1.069 . S
C603 C115 1.052 . S
C617 C301 1.071 . S
C621 C129 1.053 . S
C635 C91 1.076 . S
C639 C143 1.036 . S
C653 C329 1.072 . S
C657 C157 1.035 . S
C671 C171 1.034 . S
C675 C7 1.076 . S
C689 C185 1.041 . S
C693 C245 1.070 . S
C707 C35 1.071 . S
C711 C199 1.040 . S
C725 C213 1.041 . S
C729 C273 1.070 . S
C743 C399 1.069 . S
C747 C227 1.052 . S
C761 C189 1.070 . S
C765 C241 1.042 . S
C779 C427 1.075 . S
C783 C255 1.033 . S
C797 C269 1.033 . S
C801 C217 1.075 . S
C815 C283 1.042 . S
C819 C343 1.076 . S
C833 C297 1.033 . S
C837 C133 1.074 . S
C851 C371 1.070 . S
C855 C311 1.053 . S
C869 C161 1.071 . S
C873 C325 1.037 . S
C887 C287 1.069 . S
C891 C339 1.049 . S
C905 C353 1.052 . S
C909 C77 1.069 . S
C923 C367 1.051 . S
C927 C315 1.069 . S
C941 C381 1.047 . S
C945 C105 1.074 . S
C959 C231 1.076 . S
C963 C395 1.040 . S
C977 C21 1.071 . S
C981 C409 1.053 . S
C995 C259 1.076 . S
C999 C423 1.041 . S
C1013 C437 1.046 . S
C1017 C49 1.075 . S
C1031 C9 1.364 . S
C1035 C121 1.364 . S
C1049 C23 1.367 . S
C1053 C359 1.367 . S
C1067 C149 1.354 . S
C1071 C37 1.354 . S
C1085 C51 1.354 . S
C1089 C387 1.354 . S
C1103 C65 1.359 . S
C1107 C177 1.359 . S
C1121 C415 1.361 . S
C1125 C79 1.361 . S
C1139 C205 1.369 . S
C1143 C93 1.369 . S
C1157 C107 1.351 . S
C1161 C443 1.351 . S
C1175 C135 1.367 . S
C1179 C247 1.367 . S
C1193 C163 1.351 . S
C1197 C275 1.351 . S
C1211 C191 1.354 . S
C1215 C303 1.354 . S
C1229 C331 1.352 . S
C1233 C219 1.352 . S
C1247 C233 1.357 . S
C1251 C345 1.357 . S
C1265 C261 1.368 . S
C1269 C373 1.368 . S
C1283 C289 1.363 . S
C1287 C401 1.363 . S
C1301 C429 1.352 . S
C1305 C317 1.352 . S
C1319 C8 1.369 . S
C1323 C106 1.368 . S
C1337 C22 1.369 . S
C1341 C64 1.369 . S
C1355 C78 1.372 . S
C1359 C36 1.372 . S
C1373 C92 1.369 . S
C1377 C50 1.371 . S
C1391 C218 1.369 . S
C1395 C120 1.371 . S
C1409 C176 1.369 . S
C1413 C134 1.369 . S
C1427 C190 1.372 . S
C1431 C148 1.370 . S
C1445 C204 1.371 . S
C1449 C162 1.372 . S
C1463 C232 1.372 . S
C1467 C330 1.371 . S
C1481 C288 1.372 . S
C1485 C246 1.373 . S
C1499 C302 1.369 . S
C1503 C260 1.369 . S
C1517 C316 1.372 . S
C1521 C274 1.371 . S
C1535 C442 1.372 . S
C1539 C344 1.372 . S
C1553 C358 1.372 . S
C1557 C400 1.371 . S
C1571 C372 1.373 . S
C1575 C414 1.372 . S
C1589 C428 1.373 . S
C1593 C386 1.372 . S
