# Generated by pormake.
# Topology ukk, (4)-cn, num edge types: 1
# Building blocks:
#     Node 0, Type 0, BuildingBlock: QUQFOY_clean_sbu_1, # of connection points: 4
#     Node 1, Type 0, BuildingBlock: QUQFOY_clean_sbu_1, # of connection points: 4
#     Node 2, Type 0, BuildingBlock: QUQFOY_clean_sbu_1, # of connection points: 4
#     Node 3, Type 0, BuildingBlock: QUQFOY_clean_sbu_1, # of connection points: 4
#     Node 4, Type 0, BuildingBlock: QUQFOY_clean_sbu_1, # of connection points: 4
#     Node 5, Type 0, BuildingBlock: QUQFOY_clean_sbu_1, # of connection points: 4
#     Node 6, Type 0, BuildingBlock: QUQFOY_clean_sbu_1, # of connection points: 4
#     Node 7, Type 0, BuildingBlock: QUQFOY_clean_sbu_1, # of connection points: 4
#     Node 8, Type 0, BuildingBlock: QUQFOY_clean_sbu_1, # of connection points: 4
#     Node 9, Type 0, BuildingBlock: QUQFOY_clean_sbu_1, # of connection points: 4
#     Node 10, Type 0, BuildingBlock: QUQFOY_clean_sbu_1, # of connection points: 4
#     Node 11, Type 0, BuildingBlock: QUQFOY_clean_sbu_1, # of connection points: 4
#     Node 12, Type 0, BuildingBlock: QUQFOY_clean_sbu_1, # of connection points: 4
#     Node 13, Type 0, BuildingBlock: QUQFOY_clean_sbu_1, # of connection points: 4
#     Node 14, Type 0, BuildingBlock: QUQFOY_clean_sbu_1, # of connection points: 4
#     Node 15, Type 0, BuildingBlock: QUQFOY_clean_sbu_1, # of connection points: 4
#     Edge 16, Type (0, 0), BuildingBlock: ZUJKAS_clean_linker_0, # of connection points: 2
#     Edge 17, Type (0, 0), BuildingBlock: ZUJKAS_clean_linker_0, # of connection points: 2
#     Edge 18, Type (0, 0), BuildingBlock: ZUJKAS_clean_linker_0, # of connection points: 2
#     Edge 19, Type (0, 0), BuildingBlock: ZUJKAS_clean_linker_0, # of connection points: 2
#     Edge 20, Type (0, 0), BuildingBlock: ZUJKAS_clean_linker_0, # of connection points: 2
#     Edge 21, Type (0, 0), BuildingBlock: ZUJKAS_clean_linker_0, # of connection points: 2
#     Edge 22, Type (0, 0), BuildingBlock: ZUJKAS_clean_linker_0, # of connection points: 2
#     Edge 23, Type (0, 0), BuildingBlock: ZUJKAS_clean_linker_0, # of connection points: 2
#     Edge 24, Type (0, 0), BuildingBlock: ZUJKAS_clean_linker_0, # of connection points: 2
#     Edge 25, Type (0, 0), BuildingBlock: ZUJKAS_clean_linker_0, # of connection points: 2
#     Edge 26, Type (0, 0), BuildingBlock: ZUJKAS_clean_linker_0, # of connection points: 2
#     Edge 27, Type (0, 0), BuildingBlock: ZUJKAS_clean_linker_0, # of connection points: 2
#     Edge 28, Type (0, 0), BuildingBlock: ZUJKAS_clean_linker_0, # of connection points: 2
#     Edge 29, Type (0, 0), BuildingBlock: ZUJKAS_clean_linker_0, # of connection points: 2
#     Edge 30, Type (0, 0), BuildingBlock: ZUJKAS_clean_linker_0, # of connection points: 2
#     Edge 31, Type (0, 0), BuildingBlock: ZUJKAS_clean_linker_0, # of connection points: 2
#     Edge 32, Type (0, 0), BuildingBlock: ZUJKAS_clean_linker_0, # of connection points: 2
#     Edge 33, Type (0, 0), BuildingBlock: ZUJKAS_clean_linker_0, # of connection points: 2
#     Edge 34, Type (0, 0), BuildingBlock: ZUJKAS_clean_linker_0, # of connection points: 2
#     Edge 35, Type (0, 0), BuildingBlock: ZUJKAS_clean_linker_0, # of connection points: 2
#     Edge 36, Type (0, 0), BuildingBlock: ZUJKAS_clean_linker_0, # of connection points: 2
#     Edge 37, Type (0, 0), BuildingBlock: ZUJKAS_clean_linker_0, # of connection points: 2
#     Edge 38, Type (0, 0), BuildingBlock: ZUJKAS_clean_linker_0, # of connection points: 2
#     Edge 39, Type (0, 0), BuildingBlock: ZUJKAS_clean_linker_0, # of connection points: 2
#     Edge 40, Type (0, 0), BuildingBlock: ZUJKAS_clean_linker_0, # of connection points: 2
#     Edge 41, Type (0, 0), BuildingBlock: ZUJKAS_clean_linker_0, # of connection points: 2
#     Edge 42, Type (0, 0), BuildingBlock: ZUJKAS_clean_linker_0, # of connection points: 2
#     Edge 43, Type (0, 0), BuildingBlock: ZUJKAS_clean_linker_0, # of connection points: 2
#     Edge 44, Type (0, 0), BuildingBlock: ZUJKAS_clean_linker_0, # of connection points: 2
#     Edge 45, Type (0, 0), BuildingBlock: ZUJKAS_clean_linker_0, # of connection points: 2
#     Edge 46, Type (0, 0), BuildingBlock: ZUJKAS_clean_linker_0, # of connection points: 2
#     Edge 47, Type (0, 0), BuildingBlock: ZUJKAS_clean_linker_0, # of connection points: 2
# Relax obj value: 0.045
# Max RMSD: 0.183
# Mean RMSD: 0.183
data_MOF--net-ukk--node1-QUQFOY_clean_sbu_1--edge1-ZUJKAS_clean_linker_0
_symmetry_space_group_name_H-M    P1
_symmetry_Int_Tables_number       1
_symmetry_cell_setting            triclinic
loop_
_symmetry_equiv_pos_as_xyz
'x, y, z'
_cell_length_a     66.47278
_cell_length_b     66.482928
_cell_length_c     30.798632
_cell_angle_alpha  90.033155
_cell_angle_beta   89.913281
_cell_angle_gamma 89.935625
loop_
_atom_site_label
_atom_site_type_symbol
_atom_site_fract_x
_atom_site_fract_y
_atom_site_fract_z
_atom_type_partial_charge
O0 O 0.33682 0.14647 0.10453 0.0
Cd1 Cd 0.35075 0.11953 0.09132 0.0
Cd2 Cd 0.34508 0.11581 0.1769 0.0
O3 O 0.32598 0.14035 0.171 0.0
O4 O 0.34629 0.11591 0.02757 0.0
O5 O 0.33177 0.09682 0.07729 0.0
C6 C 0.33332 0.10216 0.03705 0.0
C7 C 0.33839 0.0855 0.21234 0.0
C8 C 0.3266 0.15162 0.13762 0.0
C9 C 0.38765 0.12137 0.14493 0.0
O10 O 0.37519 0.12241 0.17616 0.0
O11 O 0.3814 0.11804 0.10646 0.0
O12 O 0.34092 0.10199 0.23382 0.0
O13 O 0.33794 0.0866 0.17043 0.0
O14 O 0.14726 0.67296 0.91257 0.0
Cd15 Cd 0.12097 0.65853 0.92873 0.0
Cd16 Cd 0.11531 0.66422 0.84393 0.0
O17 O 0.13914 0.68426 0.84767 0.0
O18 O 0.11935 0.66306 0.99277 0.0
O19 O 0.09784 0.67649 0.94637 0.0
C20 C 0.10465 0.67531 0.9856 0.0
C21 C 0.08438 0.66998 0.81026 0.0
C22 C 0.15135 0.68357 0.87944 0.0
C23 C 0.12317 0.62179 0.87522 0.0
O24 O 0.12314 0.63431 0.84404 0.0
O25 O 0.12023 0.62788 0.91399 0.0
O26 O 0.10067 0.66791 0.78786 0.0
O27 O 0.08594 0.67041 0.8521 0.0
O28 O 0.67231 0.86654 0.10436 0.0
Cd29 Cd 0.65799 0.89339 0.09267 0.0
Cd30 Cd 0.66413 0.89657 0.17817 0.0
O31 O 0.6834 0.87224 0.17075 0.0
O32 O 0.66219 0.89756 0.029 0.0
O33 O 0.6767 0.9164 0.07915 0.0
C34 C 0.6751 0.91133 0.03875 0.0
C35 C 0.67089 0.92642 0.21537 0.0
C36 C 0.68276 0.86125 0.13692 0.0
C37 C 0.6214 0.89071 0.14722 0.0
O38 O 0.63404 0.88975 0.17804 0.0
O39 O 0.62739 0.8943 0.10863 0.0
O40 O 0.66835 0.90967 0.23582 0.0
O41 O 0.67129 0.92587 0.1734 0.0
O42 O 0.86424 0.33994 0.92091 0.0
Cd43 Cd 0.89115 0.35398 0.93307 0.0
Cd44 Cd 0.89539 0.34678 0.84912 0.0
O45 O 0.87175 0.32676 0.85721 0.0
O46 O 0.89555 0.3497 0.99666 0.0
O47 O 0.91401 0.33505 0.94585 0.0
C48 C 0.90916 0.33665 0.98638 0.0
C49 C 0.92623 0.34058 0.81536 0.0
C50 C 0.85984 0.32837 0.88946 0.0
C51 C 0.88854 0.38975 0.87685 0.0
O52 O 0.88751 0.37663 0.84691 0.0
O53 O 0.89243 0.38435 0.91568 0.0
O54 O 0.90984 0.34187 0.79308 0.0
O55 O 0.92479 0.34109 0.85721 0.0
O56 O 0.33884 0.36508 0.16953 0.0
Cd57 Cd 0.35293 0.39184 0.18331 0.0
Cd58 Cd 0.34676 0.39659 0.09888 0.0
O59 O 0.32682 0.37277 0.10494 0.0
O60 O 0.3486 0.39546 0.24713 0.0
O61 O 0.33415 0.41473 0.19762 0.0
C62 C 0.33576 0.4094 0.23785 0.0
C63 C 0.34083 0.42737 0.0647 0.0
C64 C 0.3279 0.36075 0.13705 0.0
C65 C 0.38937 0.38949 0.12868 0.0
O66 O 0.37665 0.3888 0.09798 0.0
O67 O 0.38348 0.39304 0.16737 0.0
O68 O 0.34253 0.41095 0.04259 0.0
O69 O 0.34079 0.426 0.10659 0.0
O70 O 0.36514 0.67171 0.85006 0.0
Cd71 Cd 0.3922 0.65764 0.83907 0.0
Cd72 Cd 0.39532 0.66479 0.92394 0.0
O73 O 0.37105 0.68406 0.91532 0.0
O74 O 0.3967 0.66142 0.77532 0.0
O75 O 0.41496 0.67662 0.82551 0.0
C76 C 0.41019 0.67464 0.78505 0.0
C77 C 0.42573 0.67196 0.95844 0.0
C78 C 0.35992 0.68276 0.88182 0.0
C79 C 0.38991 0.62171 0.89563 0.0
O80 O 0.38854 0.63472 0.92573 0.0
O81 O 0.39363 0.62727 0.8568 0.0
O82 O 0.40926 0.67004 0.98031 0.0
O83 O 0.42457 0.67151 0.91654 0.0
O84 O 0.67168 0.64866 0.16426 0.0
Cd85 Cd 0.65705 0.6224 0.17954 0.0
Cd86 Cd 0.66314 0.61675 0.09462 0.0
O87 O 0.68294 0.64074 0.09909 0.0
O88 O 0.66147 0.62019 0.24354 0.0
O89 O 0.67497 0.59912 0.19613 0.0
C90 C 0.67375 0.60557 0.23568 0.0
C91 C 0.66967 0.58608 0.06033 0.0
C92 C 0.68233 0.65281 0.13117 0.0
C93 C 0.62048 0.62433 0.12518 0.0
O94 O 0.63312 0.62417 0.09418 0.0
O95 O 0.62643 0.62168 0.16411 0.0
O96 O 0.66734 0.60242 0.03829 0.0
O97 O 0.66981 0.58746 0.10221 0.0
O98 O 0.64725 0.33678 0.86348 0.0
Cd99 Cd 0.62147 0.35233 0.84821 0.0
Cd100 Cd 0.61666 0.34732 0.93436 0.0
O101 O 0.64049 0.32728 0.93056 0.0
O102 O 0.61996 0.34822 0.78403 0.0
O103 O 0.59792 0.33516 0.82976 0.0
C104 C 0.60496 0.33632 0.79067 0.0
C105 C 0.58585 0.34167 0.96865 0.0
C106 C 0.65182 0.32683 0.89725 0.0
C107 C 0.62459 0.38942 0.90141 0.0
O108 O 0.62441 0.37715 0.93303 0.0
O109 O 0.62163 0.38309 0.86284 0.0
O110 O 0.60217 0.344 0.99074 0.0
O111 O 0.58732 0.34096 0.9268 0.0
O112 O 0.83754 0.64781 0.60674 0.0
Cd113 Cd 0.85212 0.62161 0.59027 0.0
Cd114 Cd 0.84622 0.61543 0.67513 0.0
O115 O 0.8263 0.63939 0.6716 0.0
O116 O 0.8475 0.61981 0.52629 0.0
O117 O 0.83415 0.59847 0.57324 0.0
C118 C 0.83527 0.60515 0.53387 0.0
C119 C 0.84027 0.58476 0.70983 0.0
C120 C 0.82691 0.65171 0.64 0.0
C121 C 0.88878 0.62308 0.64423 0.0
O122 O 0.87617 0.62291 0.67527 0.0
O123 O 0.88278 0.6206 0.60528 0.0
O124 O 0.8425 0.60118 0.73165 0.0
O125 O 0.83978 0.58605 0.66795 0.0
O126 O 0.64601 0.17458 0.40864 0.0
Cd127 Cd 0.62054 0.1594 0.42721 0.0
Cd128 Cd 0.61465 0.16224 0.33959 0.0
O129 O 0.63926 0.18141 0.34006 0.0
O130 O 0.62014 0.16459 0.49112 0.0
O131 O 0.59717 0.17678 0.44652 0.0
C132 C 0.60486 0.17623 0.48503 0.0
C133 C 0.58408 0.1682 0.30467 0.0
C134 C 0.65063 0.18307 0.37308 0.0
C135 C 0.62203 0.12087 0.37782 0.0
O136 O 0.62097 0.1321 0.34454 0.0
O137 O 0.6207 0.1284 0.41582 0.0
O138 O 0.6003 0.16463 0.28291 0.0
O139 O 0.58558 0.17001 0.34636 0.0
O140 O 0.17186 0.36516 0.60596 0.0
Cd141 Cd 0.15748 0.39198 0.59417 0.0
Cd142 Cd 0.16404 0.39552 0.67925 0.0
O143 O 0.18345 0.37133 0.67173 0.0
O144 O 0.16141 0.39611 0.53039 0.0
O145 O 0.17613 0.41495 0.58025 0.0
C146 C 0.17436 0.40989 0.5399 0.0
C147 C 0.17092 0.42599 0.71374 0.0
C148 C 0.18261 0.36012 0.63826 0.0
C149 C 0.12119 0.38965 0.64986 0.0
O150 O 0.13398 0.38861 0.68038 0.0
O151 O 0.127 0.39315 0.6111 0.0
O152 O 0.16888 0.40957 0.73565 0.0
O153 O 0.17074 0.42475 0.67183 0.0
O154 O 0.3647 0.84098 0.41977 0.0
Cd155 Cd 0.39144 0.85508 0.43332 0.0
Cd156 Cd 0.39624 0.84875 0.34874 0.0
O157 O 0.37234 0.8289 0.35511 0.0
O158 O 0.39522 0.85047 0.49698 0.0
O159 O 0.41434 0.83623 0.44677 0.0
C160 C 0.40906 0.8376 0.4871 0.0
C161 C 0.42677 0.84236 0.31362 0.0
C162 C 0.36037 0.82998 0.38737 0.0
C163 C 0.38918 0.89147 0.37866 0.0
O164 O 0.38867 0.87871 0.34796 0.0
O165 O 0.39253 0.88565 0.41744 0.0
O166 O 0.41027 0.8444 0.29202 0.0
O167 O 0.42563 0.84236 0.35553 0.0
O168 O 0.83868 0.86499 0.67186 0.0
Cd169 Cd 0.85339 0.89164 0.68334 0.0
Cd170 Cd 0.84718 0.89471 0.59821 0.0
O171 O 0.82725 0.87101 0.60589 0.0
O172 O 0.84956 0.89591 0.74713 0.0
O173 O 0.83503 0.91492 0.69731 0.0
C174 C 0.83679 0.90988 0.73767 0.0
C175 C 0.84126 0.92532 0.56351 0.0
C176 C 0.82792 0.85995 0.63958 0.0
C177 C 0.88978 0.88799 0.62825 0.0
O178 O 0.87702 0.8869 0.59766 0.0
O179 O 0.88395 0.89213 0.66672 0.0
O180 O 0.84288 0.90881 0.54168 0.0
O181 O 0.84127 0.92413 0.60543 0.0
O182 O 0.86395 0.16841 0.3444 0.0
Cd183 Cd 0.89123 0.15486 0.33295 0.0
Cd184 Cd 0.89507 0.16251 0.41687 0.0
O185 O 0.87093 0.18192 0.40801 0.0
O186 O 0.89605 0.15905 0.26946 0.0
O187 O 0.91379 0.17419 0.32064 0.0
C188 C 0.90933 0.17235 0.27997 0.0
C189 C 0.92532 0.16971 0.45204 0.0
C190 C 0.85919 0.17997 0.37563 0.0
C191 C 0.88944 0.11926 0.3898 0.0
O192 O 0.88808 0.13246 0.41952 0.0
O193 O 0.89315 0.1246 0.35084 0.0
O194 O 0.90872 0.16791 0.4735 0.0
O195 O 0.92439 0.16909 0.41013 0.0
O196 O 0.16873 0.1475 0.66719 0.0
Cd197 Cd 0.15486 0.1206 0.68063 0.0
Cd198 Cd 0.16201 0.11556 0.59656 0.0
O199 O 0.18155 0.13967 0.60332 0.0
O200 O 0.15891 0.11688 0.74448 0.0
O201 O 0.17381 0.09789 0.69493 0.0
C202 C 0.17195 0.10311 0.7352 0.0
C203 C 0.16915 0.08508 0.56208 0.0
C204 C 0.18 0.1518 0.63516 0.0
C205 C 0.11895 0.1222 0.62461 0.0
O206 O 0.13196 0.12275 0.59438 0.0
O207 O 0.12448 0.11908 0.66366 0.0
O208 O 0.16708 0.1015 0.5402 0.0
O209 O 0.16874 0.08629 0.60398 0.0
O210 O 0.14703 0.83756 0.3599 0.0
Cd211 Cd 0.12084 0.8526 0.34559 0.0
Cd212 Cd 0.11659 0.84727 0.43166 0.0
O213 O 0.14076 0.82766 0.42693 0.0
O214 O 0.11889 0.84846 0.28149 0.0
O215 O 0.09745 0.835 0.32804 0.0
C216 C 0.10416 0.83629 0.28871 0.0
C217 C 0.08604 0.84105 0.46659 0.0
C218 C 0.15195 0.82756 0.39337 0.0
C219 C 0.12355 0.8896 0.39902 0.0
O220 O 0.12375 0.87726 0.4305 0.0
O221 O 0.12054 0.88331 0.36044 0.0
O222 O 0.10243 0.84357 0.48833 0.0
O223 O 0.08733 0.84045 0.42469 0.0
H224 H 0.38507 0.90811 0.29849 0.0
H225 H 0.37432 0.94199 0.27995 0.0
H226 H 0.37156 0.95749 0.41574 0.0
H227 H 0.38244 0.92323 0.43497 0.0
H228 H 0.33694 0.96003 0.30848 0.0
H229 H 0.40455 1.00396 0.35738 0.0
H230 H 0.40562 0.97719 0.34752 0.0
H231 H 0.39416 0.98659 0.39622 0.0
C232 C 0.38238 0.91868 0.32465 0.0
C233 C 0.38458 0.91285 0.36835 0.0
C234 C 0.37618 0.93808 0.31387 0.0
C235 C 0.37214 0.95227 0.34638 0.0
C236 C 0.37478 0.9468 0.3901 0.0
H237 H 0.34009 0.07849 0.29984 0.0
H238 H 0.34565 0.0463 0.33634 0.0
C239 C 0.38099 0.92723 0.40104 0.0
C240 C 0.36446 0.97242 0.3337 0.0
H241 H 0.37803 0.02177 0.32474 0.0
C242 C 0.34582 0.97358 0.31241 0.0
C243 C 0.37601 0.99007 0.33906 0.0
C244 C 0.39626 0.98955 0.36105 0.0
C245 C 0.33862 0.99184 0.29548 0.0
C246 C 0.35058 0.00935 0.29907 0.0
C247 C 0.36888 0.00834 0.32184 0.0
C248 C 0.345 0.02858 0.27743 0.0
C249 C 0.31828 0.99215 0.27384 0.0
C250 C 0.34246 0.02936 0.23216 0.0
C251 C 0.33914 0.04774 0.21118 0.0
C252 C 0.3385 0.06579 0.235 0.0
C253 C 0.3404 0.06489 0.28048 0.0
C254 C 0.34368 0.04649 0.30143 0.0
H255 H 0.30852 0.97982 0.28604 0.0
H256 H 0.31048 0.00672 0.27923 0.0
H257 H 0.32026 0.98995 0.23837 0.0
H258 H 0.34384 0.01584 0.21277 0.0
H259 H 0.33795 0.04788 0.17611 0.0
H260 H 0.04722 0.66815 0.84852 0.0
H261 H 0.01505 0.66117 0.81303 0.0
H262 H 0.04412 0.66267 0.68791 0.0
H263 H 0.0764 0.66968 0.72305 0.0
H264 H 1.00403 0.68242 0.69371 0.0
H265 H 0.00587 0.6042 0.75684 0.0
H266 H 0.00948 0.6235 0.797 0.0
H267 H 0.02793 0.62003 0.75498 0.0
C268 C 0.04674 0.66739 0.81341 0.0
C269 C 0.06444 0.66934 0.78868 0.0
C270 C 0.02836 0.66327 0.79319 0.0
C271 C 0.02729 0.66107 0.74791 0.0
C272 C 0.04466 0.6642 0.72291 0.0
H273 H 0.92059 0.63027 0.5882 0.0
H274 H 0.95539 0.63885 0.60806 0.0
C275 C 0.06308 0.66822 0.7431 0.0
C276 C 0.00833 0.65434 0.72708 0.0
H277 H 0.97554 0.61488 0.72362 0.0
C278 C 0.99784 0.66761 0.69983 0.0
C279 C 1.00045 0.63492 0.73479 0.0
C280 C 0.01155 0.61972 0.76217 0.0
C281 C 0.9791 0.6623 0.68187 0.0
C282 C 0.9709 0.64309 0.69079 0.0
C283 C 0.98182 0.6296 0.71678 0.0
C284 C 0.9502 0.63733 0.67741 0.0
C285 C 0.96782 0.67761 0.65518 0.0
C286 C 0.93593 0.63302 0.7096 0.0
C287 C 0.91626 0.62798 0.69844 0.0
C288 C 0.91026 0.62705 0.65465 0.0
C289 C 0.92468 0.63088 0.62219 0.0
C290 C 0.94452 0.63597 0.63351 0.0
H291 H 0.97445 0.69289 0.65806 0.0
H292 H 0.96831 0.67312 0.62049 0.0
H293 H 0.95179 0.67832 0.66528 0.0
H294 H 0.93994 0.63387 0.74364 0.0
H295 H 0.90567 0.62505 0.72444 0.0
H296 H 0.66623 0.93232 0.3027 0.0
H297 H 0.66 0.96418 0.34021 0.0
H298 H 0.66836 0.99632 0.22009 0.0
H299 H 0.67456 0.9645 0.18209 0.0
H300 H 0.68671 0.01432 0.30113 0.0
H301 H 0.6054 0.9949 0.3138 0.0
H302 H 0.62327 0.97643 0.33219 0.0
H303 H 0.62202 0.98266 0.27561 0.0
C304 C 0.66713 0.94617 0.28431 0.0
C305 C 0.67077 0.94583 0.23925 0.0
C306 C 0.66348 0.96436 0.30584 0.0
C307 C 0.66346 0.98255 0.28281 0.0
C308 C 0.66825 0.98241 0.23841 0.0
H309 H 0.61327 0.0989 0.30604 0.0
H310 H 0.62335 0.06443 0.28958 0.0
C311 C 0.67181 0.96421 0.21676 0.0
C312 C 0.65704 1.00152 0.30416 0.0
H313 H 0.61536 0.02633 0.34136 0.0
C314 C 0.67118 0.01689 0.31048 0.0
C315 C 0.63672 1.00483 0.316 0.0
C316 C 0.62086 0.98894 0.30894 0.0
C317 C 0.66544 0.03564 0.32778 0.0
C318 C 0.64507 0.03904 0.33893 0.0
C319 C 0.631 0.02356 0.33326 0.0
C320 C 0.63771 0.05929 0.3515 0.0
C321 C 0.68098 0.05201 0.33246 0.0
C322 C 0.64196 0.06765 0.3924 0.0
C323 C 0.63599 0.08742 0.40221 0.0
C324 C 0.62591 0.09912 0.371 0.0
C325 C 0.62112 0.09035 0.33073 0.0
C326 C 0.62685 0.07064 0.32122 0.0
H327 H 0.69588 0.04745 0.31933 0.0
H328 H 0.6759 0.0658 0.31533 0.0
H329 H 0.68276 0.05586 0.36731 0.0
H330 H 0.65023 0.05904 0.4163 0.0
H331 H 0.63998 0.09379 0.4334 0.0
H332 H 0.08929 0.38299 0.5941 0.0
H333 H 0.05443 0.37455 0.61422 0.0
H334 H 0.07009 0.3789 0.74968 0.0
H335 H 0.10444 0.38747 0.73025 0.0
H336 H 0.04099 0.34154 0.66576 0.0
H337 H 0.01987 0.41403 0.74151 0.0
H338 H 0.04139 0.41146 0.70606 0.0
H339 H 0.04314 0.40437 0.76234 0.0
C340 C 0.08519 0.38241 0.62813 0.0
C341 C 0.09968 0.38598 0.6605 0.0
C342 C 0.06531 0.3775 0.63956 0.0
C343 C 0.0596 0.37635 0.68348 0.0
C344 C 0.07402 0.38007 0.71562 0.0
H345 H 0.96336 0.34326 0.85311 0.0
H346 H 0.99538 0.35039 0.81708 0.0
C347 C 0.09375 0.38488 0.70434 0.0
C348 C 0.03888 0.37054 0.6966 0.0
H349 H 0.99985 0.38544 0.76136 0.0
C350 C 0.03181 0.35124 0.68604 0.0
C351 C 0.02691 0.38322 0.72307 0.0
C352 C 0.03312 0.4045 0.73356 0.0
C353 C 0.01355 0.34395 0.70307 0.0
C354 C 1.00208 0.35633 0.7311 0.0
C355 C 0.00881 0.37587 0.74033 0.0
C356 C 0.98321 0.34935 0.75203 0.0
C357 C 0.00701 0.3228 0.69244 0.0
C358 C 0.96582 0.34596 0.72735 0.0
C359 C 0.94745 0.34189 0.74787 0.0
C360 C 0.94614 0.34117 0.79349 0.0
C361 C 0.96381 0.34362 0.81797 0.0
C362 C 0.98213 0.34778 0.79743 0.0
H363 H 0.01917 0.31401 0.67648 0.0
H364 H 1.0022 0.31481 0.72236 0.0
H365 H 0.99392 0.32337 0.67014 0.0
H366 H 0.96626 0.34734 0.69232 0.0
H367 H 0.93412 0.34017 0.72802 0.0
H368 H 0.34343 0.46461 0.10217 0.0
H369 H 0.35065 0.49654 0.0659 0.0
H370 H 0.34805 0.46703 0.9414 0.0
H371 H 0.34079 0.43502 0.97732 0.0
H372 H 0.38579 0.50111 1.01058 0.0
H373 H 0.31457 0.51965 0.92448 0.0
H374 H 0.31533 0.50278 0.97045 0.0
H375 H 0.3241 0.49446 0.91834 0.0
C376 C 0.34391 0.46497 0.06703 0.0
C377 C 0.34155 0.44722 0.04269 0.0
C378 C 0.34813 0.48323 0.04636 0.0
C379 C 0.34983 0.48418 1.00096 0.0
C380 C 0.34656 0.4667 0.97642 0.0
H381 H 0.38359 0.58937 0.84074 0.0
H382 H 0.37523 0.55462 0.8618 0.0
C383 C 0.34244 0.4484 0.99707 0.0
C384 C 0.35679 0.50302 0.97985 0.0
H385 H 0.34211 0.54144 0.9133 0.0
C386 C 0.37626 0.50989 0.9892 0.0
C387 C 0.34447 0.51426 0.95136 0.0
C388 C 0.32339 0.50757 0.94059 0.0
C389 C 0.38361 0.52791 0.97158 0.0
C390 C 0.371 0.53965 0.9446 0.0
C391 C 0.35176 0.53244 0.93396 0.0
C392 C 0.3768 0.56029 0.93091 0.0
C393 C 0.40483 0.53426 0.9822 0.0
C394 C 0.38037 0.57496 0.96266 0.0
C395 C 0.38513 0.59462 0.95084 0.0
C396 C 0.38633 0.60025 0.90685 0.0
C397 C 0.38293 0.58551 0.87487 0.0
C398 C 0.37807 0.5657 0.88685 0.0
H399 H 0.41438 0.52111 0.99065 0.0
H400 H 0.41187 0.54237 0.95458 0.0
H401 H 0.40455 0.54448 1.01069 0.0
H402 H 0.37911 0.57128 0.99682 0.0
H403 H 0.38759 0.60551 0.97646 0.0
H404 H 0.43298 0.6717 0.04594 0.0
H405 H 0.4653 0.66681 0.08238 0.0
H406 H 0.49541 0.66654 0.95826 0.0
H407 H 0.46325 0.67175 0.92166 0.0
H408 H 0.48996 0.63432 0.07304 0.0
H409 H 0.53149 0.70326 0.02793 0.0
H410 H 0.50458 0.70109 0.02177 0.0
H411 H 0.52124 0.69069 0.98143 0.0
C412 C 0.44653 0.67107 0.02641 0.0
C413 C 0.44551 0.6722 0.98082 0.0
C414 C 0.465 0.66817 0.04733 0.0
C415 C 0.48285 0.66648 0.02317 0.0
C416 C 0.48193 0.66823 0.97774 0.0
H417 H 0.60357 0.62727 0.04503 0.0
H418 H 0.56959 0.63764 0.02634 0.0
C419 C 0.46349 0.67116 0.9568 0.0
C420 C 0.50217 0.66135 0.04493 0.0
H421 H 0.55149 0.67531 0.05222 0.0
C422 C 0.50334 0.64345 0.06913 0.0
C423 C 0.51963 0.6733 0.04002 0.0
C424 C 0.51916 0.69326 0.01675 0.0
C425 C 0.5217 0.63668 0.08654 0.0
C426 C 0.5393 0.64819 0.07989 0.0
C427 C 0.53798 0.66645 0.05714 0.0
C428 C 0.55953 0.64081 0.09275 0.0
C429 C 0.52238 0.61681 0.11011 0.0
C430 C 0.56517 0.63887 0.13654 0.0
C431 C 0.58479 0.63288 0.14757 0.0
C432 C 0.59907 0.62881 0.1149 0.0
C433 C 0.59309 0.63034 0.07117 0.0
C434 C 0.57362 0.63631 0.0603 0.0
H435 H 0.508 0.60841 0.10733 0.0
H436 H 0.53475 0.6073 0.09714 0.0
H437 H 0.52543 0.61952 0.14505 0.0
H438 H 0.55455 0.64244 0.16213 0.0
H439 H 0.58891 0.63195 0.18152 0.0
H440 H 0.63111 0.4206 0.8435 0.0
H441 H 0.64161 0.45519 0.86111 0.0
H442 H 0.63938 0.44102 0.99755 0.0
H443 H 0.62897 0.4069 0.9807 0.0
H444 H 0.6217 0.48502 0.91892 0.0
H445 H 0.69747 0.4627 0.97648 0.0
H446 H 0.68232 0.44683 0.94192 0.0
H447 H 0.67735 0.44808 0.99926 0.0
C448 C 0.63273 0.42493 0.87723 0.0
C449 C 0.62934 0.41086 0.91061 0.0
C450 C 0.63877 0.44465 0.8872 0.0
C451 C 0.64167 0.4505 0.93062 0.0
C452 C 0.63765 0.4367 0.96382 0.0
H453 H 0.6695 0.54867 0.09753 0.0
H454 H 0.66437 0.51637 0.06111 0.0
C455 C 0.63159 0.41716 0.95401 0.0
C456 C 0.64876 0.47098 0.94217 0.0
H457 H 0.68593 0.49533 0.99778 0.0
C458 C 0.6359 0.48741 0.93543 0.0
C459 C 0.66727 0.47399 0.96387 0.0
C460 C 0.68201 0.45701 0.97052 0.0
C461 C 0.64056 0.50659 0.95191 0.0
C462 C 0.65877 0.50944 0.975 0.0
C463 C 0.67197 0.49313 0.98024 0.0
C464 C 0.66378 0.52889 0.99627 0.0
C465 C 0.62546 0.52336 0.94642 0.0
C466 C 0.66593 0.54657 0.97186 0.0
C467 C 0.66885 0.56508 0.99261 0.0
C468 C 0.66984 0.56624 0.03821 0.0
C469 C 0.66881 0.54834 0.06241 0.0
C470 C 0.66582 0.52985 0.04162 0.0
H471 H 0.61046 0.51764 0.93645 0.0
H472 H 0.6237 0.53201 0.97706 0.0
H473 H 0.63084 0.53384 0.92091 0.0
H474 H 0.6649 0.54614 0.93678 0.0
H475 H 0.6697 0.57855 0.97294 0.0
H476 H 0.40597 0.38401 0.04876 0.0
H477 H 0.44006 0.37371 0.03075 0.0
H478 H 0.45585 0.37413 0.16642 0.0
H479 H 0.42133 0.38454 0.18516 0.0
H480 H 0.48485 0.39303 0.10591 0.0
H481 H 0.46248 0.31625 0.05501 0.0
H482 H 0.44762 0.33594 0.03122 0.0
H483 H 0.44677 0.33195 0.08893 0.0
C484 C 0.4166 0.38201 0.075 0.0
C485 C 0.41078 0.38496 0.11854 0.0
C486 C 0.43611 0.37601 0.06455 0.0
C487 C 0.45035 0.37274 0.09726 0.0
C488 C 0.44497 0.37638 0.14072 0.0
H489 H 0.57814 0.34341 0.0559 0.0
H490 H 0.5457 0.34925 0.09136 0.0
C491 C 0.42529 0.38237 0.15133 0.0
C492 C 0.47077 0.36555 0.08523 0.0
H493 H 0.49498 0.32737 0.03221 0.0
C494 C 0.48719 0.37854 0.09048 0.0
C495 C 0.47372 0.34667 0.06495 0.0
C496 C 0.45676 0.33179 0.05998 0.0
C497 C 0.50632 0.37356 0.074 0.0
C498 C 0.50912 0.35492 0.05246 0.0
C499 C 0.49281 0.34166 0.04857 0.0
C500 C 0.52857 0.34939 0.0317 0.0
C501 C 0.5231 0.38873 0.07793 0.0
C502 C 0.5296 0.3465 0.98657 0.0
C503 C 0.54811 0.34293 0.96618 0.0
C504 C 0.56595 0.34215 0.99059 0.0
C505 C 0.56471 0.34402 0.03606 0.0
C506 C 0.5462 0.34755 0.0564 0.0
H507 H 0.51738 0.40392 0.08659 0.0
H508 H 0.53363 0.38385 0.10379 0.0
H509 H 0.53169 0.38983 0.04707 0.0
H510 H 0.51616 0.3477 0.96688 0.0
H511 H 0.5485 0.34157 0.93114 0.0
H512 H 0.8835 0.42234 0.93175 0.0
H513 H 0.87302 0.4566 0.91137 0.0
H514 H 0.87286 0.4393 0.77649 0.0
H515 H 0.8832 0.40544 0.79613 0.0
H516 H 0.8917 0.48506 0.85037 0.0
H517 H 0.81538 0.46168 0.79864 0.0
H518 H 0.83108 0.4463 0.8331 0.0
H519 H 0.83526 0.44684 0.77542 0.0
C520 C 0.88138 0.4259 0.89776 0.0
C521 C 0.88402 0.41104 0.86567 0.0
C522 C 0.87534 0.44545 0.88619 0.0
C523 C 0.87174 0.45033 0.84248 0.0
C524 C 0.8751 0.43574 0.81046 0.0
H525 H 0.84066 0.54723 0.673 0.0
H526 H 0.84688 0.51513 0.70949 0.0
C527 C 0.88113 0.41636 0.82186 0.0
C528 C 0.86447 0.47058 0.82949 0.0
H529 H 0.82638 0.49406 0.7749 0.0
C530 C 0.87729 0.48716 0.83453 0.0
C531 C 0.84568 0.47322 0.80868 0.0
C532 C 0.83095 0.45611 0.80393 0.0
C533 C 0.87223 0.50611 0.8174 0.0
C534 C 0.85368 0.5086 0.79538 0.0
C535 C 0.8406 0.49214 0.79162 0.0
C536 C 0.84807 0.52788 0.7741 0.0
C537 C 0.88721 0.52306 0.82121 0.0
C538 C 0.84589 0.5456 0.79842 0.0
C539 C 0.84231 0.56398 0.77766 0.0
C540 C 0.84071 0.56498 0.73213 0.0
C541 C 0.8418 0.54702 0.70807 0.0
C542 C 0.84542 0.52865 0.72889 0.0
H543 H 0.90242 0.51754 0.83029 0.0
H544 H 0.88839 0.53147 0.79017 0.0
H545 H 0.8821 0.5337 0.84672 0.0
H546 H 0.8474 0.5453 0.83343 0.0
H547 H 0.84146 0.57749 0.79723 0.0
H548 H 0.5468 0.16845 0.34258 0.0
H549 H 0.51455 0.16133 0.30752 0.0
H550 H 0.54394 0.15886 0.18283 0.0
H551 H 0.57631 0.16593 0.21752 0.0
H552 H 0.5036 0.18003 0.18758 0.0
H553 H 0.50519 0.10276 0.2562 0.0
H554 H 0.50949 0.12277 0.29437 0.0
H555 H 0.52744 0.11821 0.25185 0.0
C556 C 0.54638 0.16681 0.3076 0.0
C557 C 0.56418 0.16763 0.28291 0.0
C558 C 0.52795 0.16263 0.28766 0.0
C559 C 0.52694 0.15929 0.2427 0.0
C560 C 0.54443 0.16131 0.21759 0.0
H561 H 0.4192 0.12713 0.08751 0.0
H562 H 0.45424 0.13552 0.10578 0.0
C563 C 0.56291 0.16537 0.23752 0.0
C564 C 0.50791 0.15237 0.22254 0.0
H565 H 0.47495 0.11303 0.22219 0.0
C566 C 0.49736 0.16533 0.19471 0.0
C567 C 0.49999 0.1331 0.23161 0.0
C568 C 0.51114 0.11828 0.25984 0.0
C569 C 0.47853 0.15988 0.17747 0.0
C570 C 0.47029 0.14082 0.18775 0.0
C571 C 0.48126 0.12762 0.2143 0.0
C572 C 0.44947 0.13504 0.17534 0.0
C573 C 0.46718 0.17488 0.15012 0.0
C574 C 0.43536 0.13135 0.20822 0.0
C575 C 0.41556 0.12642 0.19798 0.0
C576 C 0.40926 0.12499 0.15445 0.0
C577 C 0.42353 0.12814 0.12133 0.0
C578 C 0.4435 0.13312 0.13172 0.0
H579 H 0.47393 0.19014 0.15179 0.0
H580 H 0.4674 0.1699 0.11574 0.0
H581 H 0.45122 0.17585 0.16068 0.0
H582 H 0.43961 0.13263 0.24207 0.0
H583 H 0.4051 0.12401 0.22445 0.0
H584 H 0.12977 0.59033 0.93227 0.0
H585 H 0.14055 0.55591 0.91379 0.0
H586 H 0.13814 0.57072 0.77769 0.0
H587 H 0.12744 0.60472 0.79543 0.0
H588 H 0.12108 0.52611 0.85539 0.0
H589 H 0.19658 0.54971 0.79823 0.0
H590 H 0.18114 0.56522 0.83313 0.0
H591 H 0.17622 0.56411 0.7758 0.0
C592 C 0.13139 0.58618 0.89842 0.0
C593 C 0.1279 0.60039 0.8654 0.0
C594 C 0.13759 0.56655 0.88795 0.0
C595 C 0.14054 0.56093 0.84439 0.0
C596 C 0.13637 0.57486 0.81153 0.0
H597 H 0.1705 0.46344 0.67682 0.0
H598 H 0.16479 0.49561 0.71339 0.0
C599 C 0.13015 0.59432 0.82183 0.0
C600 C 0.14795 0.5406 0.8324 0.0
H601 H 0.18572 0.51692 0.77693 0.0
C602 C 0.13536 0.52397 0.83893 0.0
C603 C 0.16657 0.53792 0.8108 0.0
C604 C 0.18102 0.55515 0.80436 0.0
C605 C 0.14042 0.50488 0.82238 0.0
C606 C 0.15877 0.50234 0.79945 0.0
C607 C 0.17167 0.51887 0.79437 0.0
C608 C 0.16421 0.483 0.77815 0.0
C609 C 0.12561 0.48787 0.82763 0.0
C610 C 0.16657 0.46532 0.80248 0.0
C611 C 0.16984 0.44688 0.78163 0.0
C612 C 0.17095 0.44579 0.73603 0.0
C613 C 0.16973 0.46371 0.71194 0.0
C614 C 0.16641 0.48213 0.73282 0.0
H615 H 0.11048 0.49334 0.83748 0.0
H616 H 0.12412 0.47923 0.79694 0.0
H617 H 0.13109 0.47745 0.85315 0.0
H618 H 0.16542 0.46569 0.83755 0.0
H619 H 0.17081 0.43339 0.80122 0.0
H620 H 0.43386 0.84331 0.22606 0.0
H621 H 0.4661 0.84844 0.18929 0.0
H622 H 0.49644 0.84787 0.31294 0.0
H623 H 0.46435 0.84242 0.34988 0.0
H624 H 0.49076 0.88086 0.19932 0.0
H625 H 0.53236 0.81149 0.24143 0.0
H626 H 0.50545 0.81368 0.24801 0.0
H627 H 0.52217 0.82373 0.2885 0.0
C628 C 0.44745 0.84383 0.2454 0.0
C629 C 0.44651 0.84238 0.29097 0.0
C630 C 0.46587 0.84685 0.2243 0.0
C631 C 0.48375 0.84836 0.24824 0.0
C632 C 0.48293 0.84633 0.29362 0.0
H633 H 0.60431 0.88735 0.22714 0.0
H634 H 0.57028 0.877 0.24537 0.0
C635 C 0.46453 0.84327 0.31476 0.0
C636 C 0.50303 0.8536 0.22633 0.0
H637 H 0.55232 0.83959 0.21791 0.0
C638 C 0.50416 0.87167 0.20273 0.0
C639 C 0.52048 0.84157 0.23056 0.0
C640 C 0.52004 0.82144 0.25312 0.0
C641 C 0.52249 0.87854 0.18534 0.0
C642 C 0.5401 0.86695 0.1914 0.0
C643 C 0.53881 0.84851 0.21346 0.0
C644 C 0.56033 0.87444 0.17882 0.0
C645 C 0.52314 0.89858 0.16245 0.0
C646 C 0.56603 0.87677 0.13512 0.0
C647 C 0.58569 0.88277 0.12437 0.0
C648 C 0.59993 0.88644 0.15722 0.0
C649 C 0.59386 0.88457 0.20087 0.0
C650 C 0.57436 0.87861 0.21147 0.0
H651 H 0.50873 0.90695 0.16555 0.0
H652 H 0.53547 0.908 0.17574 0.0
H653 H 0.52624 0.89614 0.12743 0.0
H654 H 0.55546 0.87345 0.10938 0.0
H655 H 0.58988 0.88395 0.09047 0.0
H656 H 0.84209 0.93263 0.47599 0.0
H657 H 0.84959 0.96458 0.43989 0.0
H658 H 0.85037 0.99459 0.56395 0.0
H659 H 0.84295 0.96275 0.6004 0.0
H660 H 0.83043 1.00434 0.44214 0.0
H661 H 0.90757 1.00357 0.51094 0.0
H662 H 0.89172 0.98154 0.50994 0.0
H663 H 0.88778 1.00069 0.55027 0.0
C664 C 0.84349 0.94609 0.49559 0.0
C665 C 0.84207 0.94509 0.54118 0.0
C666 C 0.84781 0.96433 0.47485 0.0
C667 C 0.85091 0.98185 0.4993 0.0
C668 C 0.84835 0.98115 0.54454 0.0
H669 H 0.88612 0.10361 0.47101 0.0
H670 H 0.87736 0.0695 0.49192 0.0
C671 C 0.84397 0.96295 0.5653 0.0
C672 C 0.85792 1.00061 0.47799 0.0
H673 H 0.89724 0.03362 0.47583 0.0
C674 C 0.84509 0.01069 0.44909 0.0
C675 C 0.87716 0.00871 0.48678 0.0
C676 C 0.89197 0.99801 0.51585 0.0
C677 C 0.85062 0.02923 0.43048 0.0
C678 C 0.86961 0.03766 0.44048 0.0
C679 C 0.88268 0.02717 0.46819 0.0
C680 C 0.8755 0.0582 0.42621 0.0
C681 C 0.83575 0.04008 0.40186 0.0
C682 C 0.87778 0.0632 0.3821 0.0
C683 C 0.88286 0.08291 0.36981 0.0
C684 C 0.88572 0.09789 0.40151 0.0
C685 C 0.88392 0.09257 0.44559 0.0
C686 C 0.87892 0.073 0.45772 0.0
H687 H 0.82048 0.03335 0.40374 0.0
H688 H 0.83473 0.05621 0.41106 0.0
H689 H 0.84092 0.03926 0.36764 0.0
H690 H 0.87558 0.0519 0.35722 0.0
H691 H 0.88415 0.08649 0.33562 0.0
H692 H 0.93206 0.16955 0.53971 0.0
H693 H 0.96417 0.16465 0.577 0.0
H694 H 0.99497 0.1643 0.45369 0.0
H695 H 0.96303 0.16951 0.41623 0.0
H696 H 0.98878 0.13199 0.56796 0.0
H697 H 0.0307 0.20096 0.52464 0.0
H698 H 1.00381 0.19886 0.51787 0.0
H699 H 0.02064 0.1885 0.47782 0.0
C700 C 0.94572 0.1689 0.52054 0.0
C701 C 0.94496 0.16999 0.47492 0.0
C702 C 0.96406 0.166 0.54195 0.0
C703 C 0.98204 0.16427 0.51826 0.0
C704 C 0.98139 0.166 0.47281 0.0
H705 H 0.10281 0.12545 0.5438 0.0
H706 H 0.06894 0.13571 0.52387 0.0
C707 C 0.96307 0.16893 0.45137 0.0
C708 C 1.00121 0.15907 0.54051 0.0
H709 H 0.05048 0.17297 0.54942 0.0
C710 C 1.0022 0.14111 0.56454 0.0
C711 C 0.0187 0.17101 0.53622 0.0
C712 C 0.0184 0.19101 0.51312 0.0
C713 C 0.02044 0.13427 0.58239 0.0
C714 C 0.03809 0.14579 0.5764 0.0
C715 C 0.03693 0.1641 0.55382 0.0
C716 C 0.05822 0.13839 0.58991 0.0
C717 C 0.02094 0.11434 0.60574 0.0
C718 C 0.06344 0.13618 0.63389 0.0
C719 C 0.08298 0.13023 0.64561 0.0
C720 C 0.0976 0.12649 0.61347 0.0
C721 C 0.09204 0.12826 0.56953 0.0
C722 C 0.07265 0.13419 0.55797 0.0
H723 H 0.00664 0.10588 0.60202 0.0
H724 H 0.0335 0.10491 0.59337 0.0
H725 H 0.02353 0.11697 0.64087 0.0
H726 H 0.05257 0.13954 0.65911 0.0
H727 H 0.08678 0.12912 0.67971 0.0
H728 H 0.12651 0.90727 0.47839 0.0
H729 H 0.13672 0.94143 0.49565 0.0
H730 H 0.14129 0.95519 0.35925 0.0
H731 H 0.13095 0.92062 0.3413 0.0
H732 H 0.17437 0.95938 0.46836 0.0
H733 H 0.10693 1.00206 0.41298 0.0
H734 H 0.10598 0.97542 0.42433 0.0
H735 H 0.11808 0.98428 0.37592 0.0
C736 C 0.1295 0.9175 0.45182 0.0
C737 C 0.12795 0.9111 0.40834 0.0
C738 C 0.13539 0.93707 0.46186 0.0
C739 C 0.13977 0.95085 0.42882 0.0
C740 C 0.13781 0.94481 0.38526 0.0
H741 H 0.16908 0.07781 0.4746 0.0
H742 H 0.16474 0.04543 0.43803 0.0
C743 C 0.1319 0.92507 0.37507 0.0
C744 C 0.14704 0.9712 0.44088 0.0
H745 H 0.13255 0.0204 0.4474 0.0
C746 C 0.16534 0.97278 0.46336 0.0
C747 C 0.13531 0.98865 0.43411 0.0
C748 C 0.11541 0.98768 0.41074 0.0
C749 C 0.17198 0.99124 0.48025 0.0
C750 C 0.15977 0.00854 0.47538 0.0
C751 C 0.14187 0.00712 0.4513 0.0
C752 C 0.1646 0.02791 0.49719 0.0
C753 C 0.19196 0.992 0.50336 0.0
C754 C 0.16626 0.02885 0.54264 0.0
C755 C 0.16886 0.04733 0.56366 0.0
C756 C 0.16965 0.06531 0.53968 0.0
C757 C 0.16862 0.06426 0.49408 0.0
C758 C 0.16605 0.04576 0.47309 0.0
H759 H 0.20213 0.97977 0.49213 0.0
H760 H 0.19957 0.00667 0.49825 0.0
H761 H 0.18946 0.98993 0.53871 0.0
H762 H 0.16475 0.01536 0.56206 0.0
H763 H 0.1694 0.04759 0.5988 0.0
H764 H 0.90624 0.88173 0.54848 0.0
H765 H 0.94034 0.87141 0.53062 0.0
H766 H 0.95639 0.87316 0.6661 0.0
H767 H 0.92186 0.88362 0.6847 0.0
H768 H 0.98516 0.8916 0.6052 0.0
H769 H 0.96326 0.81447 0.55613 0.0
H770 H 0.94827 0.83386 0.53163 0.0
H771 H 0.94741 0.83029 0.58947 0.0
C772 C 0.91692 0.88 0.57473 0.0
C773 C 0.91118 0.88335 0.61818 0.0
C774 C 0.93644 0.87399 0.56436 0.0
C775 C 0.95077 0.87109 0.59706 0.0
C776 C 0.94545 0.87511 0.64041 0.0
H777 H 0.0787 0.84265 0.554 0.0
H778 H 0.04636 0.84818 0.59012 0.0
C779 C 0.92576 0.88113 0.65095 0.0
C780 C 0.97122 0.86397 0.58509 0.0
H781 H 0.99557 0.8258 0.53227 0.0
C782 C 0.98757 0.87709 0.58997 0.0
C783 C 0.97427 0.84503 0.56508 0.0
C784 C 0.95742 0.83 0.56057 0.0
C785 C 0.00668 0.8722 0.57331 0.0
C786 C 0.00956 0.85352 0.55194 0.0
C787 C 0.99335 0.84013 0.54849 0.0
C788 C 0.02897 0.84812 0.53082 0.0
C789 C 0.02337 0.88749 0.57682 0.0
C790 C 0.02983 0.84521 0.48567 0.0
C791 C 0.04828 0.84184 0.46491 0.0
C792 C 0.06624 0.84125 0.48895 0.0
C793 C 0.06518 0.84312 0.53444 0.0
C794 C 0.04672 0.84645 0.55516 0.0
H795 H 0.01758 0.90265 0.58554 0.0
H796 H 0.03406 0.88271 0.60246 0.0
H797 H 0.0318 0.88863 0.54577 0.0
H798 H 0.01629 0.84628 0.46627 0.0
H799 H 0.04853 0.84048 0.42987 0.0
H800 H 0.31367 0.34036 0.06592 0.0
H801 H 0.3039 0.30481 0.06295 0.0
H802 H 0.31125 0.30024 0.20168 0.0
H803 H 0.32082 0.33556 0.20499 0.0
H804 H 0.33139 0.27574 0.08935 0.0
H805 H 0.26028 0.26716 0.18138 0.0
H806 H 0.26858 0.29105 0.15986 0.0
H807 H 0.27893 0.28156 0.20975 0.0
C808 C 0.3126 0.33193 0.09592 0.0
C809 C 0.31818 0.34073 0.13562 0.0
C810 C 0.30704 0.31163 0.09418 0.0
C811 C 0.30667 0.29992 0.13216 0.0
C812 C 0.31102 0.30904 0.1721 0.0
H813 H 0.31975 0.17647 0.20715 0.0
H814 H 0.31145 0.21244 0.20398 0.0
C815 C 0.31669 0.32923 0.17384 0.0
C816 C 0.30497 0.27772 0.12959 0.0
H817 H 0.28009 0.23717 0.17163 0.0
C818 C 0.31994 0.2673 0.10663 0.0
C819 C 0.29023 0.26677 0.1528 0.0
C820 C 0.27348 0.2772 0.17704 0.0
C821 C 0.32108 0.24625 0.10757 0.0
C822 C 0.30648 0.23524 0.13118 0.0
C823 C 0.29122 0.24563 0.15346 0.0
C824 C 0.30753 0.213 0.13423 0.0
C825 C 0.33853 0.23609 0.08495 0.0
C826 C 0.30702 0.20124 0.09643 0.0
C827 C 0.31201 0.18086 0.0981 0.0
C828 C 0.31717 0.17176 0.13775 0.0
C829 C 0.31582 0.1831 0.17617 0.0
C830 C 0.31111 0.20363 0.17438 0.0
H831 H 0.35094 0.24678 0.07789 0.0
H832 H 0.34463 0.22359 0.10492 0.0
H833 H 0.33332 0.22975 0.0536 0.0
H834 H 0.3038 0.20806 0.06527 0.0
H835 H 0.31267 0.17242 0.06803 0.0
H836 H 0.17079 0.69854 0.80746 0.0
H837 H 0.20639 0.70804 0.80255 0.0
H838 H 0.21286 0.69927 0.94052 0.0
H839 H 0.17746 0.69013 0.94589 0.0
H840 H 0.23597 0.73207 0.90715 0.0
H841 H 0.24655 0.6609 0.81429 0.0
H842 H 0.22896 0.67861 0.79194 0.0
H843 H 0.22353 0.66659 0.84283 0.0
C844 C 0.17967 0.69914 0.83688 0.0
C845 C 0.17139 0.69323 0.87693 0.0
C846 C 0.20002 0.70447 0.834 0.0
C847 C 0.21232 0.70396 0.87107 0.0
C848 C 0.20366 0.69967 0.9115 0.0
H849 H 0.33526 0.69311 0.94975 0.0
H850 H 0.2997 0.7026 0.94504 0.0
C851 C 0.18342 0.69434 0.91442 0.0
C852 C 0.23451 0.70539 0.86758 0.0
H853 H 0.27541 0.67912 0.83188 0.0
C854 C 0.24465 0.72067 0.89022 0.0
C855 C 0.24576 0.69038 0.84584 0.0
C856 C 0.23574 0.67308 0.82259 0.0
C857 C 0.26579 0.72123 0.89194 0.0
C858 C 0.277 0.70589 0.87115 0.0
C859 C 0.26682 0.69094 0.84764 0.0
C860 C 0.29921 0.70414 0.87477 0.0
C861 C 0.27589 0.73818 0.91603 0.0
C862 C 0.31086 0.70212 0.83701 0.0
C863 C 0.33101 0.69636 0.83964 0.0
C864 C 0.34 0.69264 0.88014 0.0
C865 C 0.32877 0.69604 0.91814 0.0
C866 C 0.30846 0.70156 0.91545 0.0
H867 H 0.26605 0.75167 0.91778 0.0
H868 H 0.2791 0.73328 0.94976 0.0
H869 H 0.29033 0.74244 0.90037 0.0
H870 H 0.30408 0.70402 0.8053 0.0
H871 H 0.33933 0.694 0.80979 0.0
H872 H 0.69664 0.84132 0.06599 0.0
H873 H 0.706 0.80584 0.06133 0.0
H874 H 0.69917 0.80009 0.20004 0.0
H875 H 0.69036 0.83589 0.2051 0.0
H876 H 0.73078 0.77605 0.16509 0.0
H877 H 0.65921 0.76655 0.0742 0.0
H878 H 0.67649 0.78401 0.0501 0.0
H879 H 0.66548 0.78953 0.10214 0.0
C880 C 0.69759 0.83261 0.09565 0.0
C881 C 0.6925 0.84126 0.13586 0.0
C882 C 0.70287 0.81234 0.0929 0.0
C883 C 0.70274 0.80024 0.13016 0.0
C884 C 0.69924 0.80917 0.17084 0.0
H885 H 0.69073 0.67772 0.19882 0.0
H886 H 0.70051 0.71295 0.19525 0.0
C887 C 0.69423 0.82961 0.17372 0.0
C888 C 0.704 0.77805 0.12607 0.0
H889 H 0.67896 0.73767 0.08418 0.0
C890 C 0.71955 0.76763 0.14718 0.0
C891 C 0.68927 0.7671 0.10277 0.0
C892 C 0.67156 0.7773 0.08132 0.0
C893 C 0.72068 0.74651 0.14576 0.0
C894 C 0.70576 0.73561 0.12304 0.0
C895 C 0.69053 0.74607 0.1011 0.0
C896 C 0.70407 0.7134 0.12542 0.0
C897 C 0.73773 0.73605 0.16879 0.0
C898 C 0.70307 0.70178 0.08734 0.0
C899 C 0.69737 0.68152 0.08923 0.0
C900 C 0.69227 0.6727 0.12923 0.0
C901 C 0.69446 0.68409 0.16746 0.0
C902 C 0.70026 0.70422 0.16555 0.0
H903 H 0.75099 0.74608 0.17218 0.0
H904 H 0.73273 0.73173 0.20188 0.0
H905 H 0.74238 0.72219 0.15127 0.0
H906 H 0.70579 0.70865 0.05598 0.0
H907 H 0.69577 0.67317 0.05923 0.0
H908 H 0.67706 0.32172 0.96653 0.0
H909 H 0.71284 0.31267 0.96282 0.0
H910 H 0.70672 0.29979 0.82623 0.0
H911 H 0.67126 0.30944 0.82943 0.0
H912 H 0.73724 0.28007 0.93412 0.0
H913 H 0.74537 0.34742 0.82861 0.0
H914 H 0.72256 0.34207 0.85811 0.0
H915 H 0.72813 0.32888 0.80852 0.0
C916 C 0.68324 0.31642 0.93604 0.0
C917 C 0.67152 0.31657 0.89813 0.0
C918 C 0.70367 0.31129 0.93392 0.0
C919 C 0.71251 0.30608 0.89398 0.0
C920 C 0.7003 0.30425 0.85712 0.0
H921 H 0.83943 0.31202 0.82047 0.0
H922 H 0.80407 0.30149 0.81951 0.0
C923 C 0.68004 0.30968 0.85904 0.0
C924 C 0.73471 0.30495 0.88974 0.0
H925 H 0.77459 0.32872 0.84236 0.0
C926 C 0.74543 0.29059 0.91384 0.0
C927 C 0.74537 0.31877 0.86334 0.0
C928 C 0.73484 0.33528 0.83846 0.0
C929 C 0.76657 0.28978 0.91242 0.0
C930 C 0.77718 0.30382 0.88659 0.0
C931 C 0.76642 0.31781 0.86169 0.0
C932 C 0.79936 0.30601 0.88838 0.0
C933 C 0.77736 0.27401 0.93876 0.0
C934 C 0.80852 0.31162 0.92751 0.0
C935 C 0.8286 0.3177 0.9281 0.0
C936 C 0.83994 0.3184 0.88951 0.0
C937 C 0.83112 0.3116 0.85073 0.0
C938 C 0.81093 0.3056 0.85014 0.0
H939 H 0.76759 0.26075 0.94484 0.0
H940 H 0.79132 0.2689 0.92223 0.0
H941 H 0.78155 0.28048 0.9707 0.0
H942 H 0.79983 0.31248 0.95723 0.0
H943 H 0.83495 0.32276 0.95858 0.0
H944 H 0.81386 0.67165 0.71289 0.0
H945 H 0.804 0.70716 0.71756 0.0
H946 H 0.80856 0.71235 0.57833 0.0
H947 H 0.81821 0.67708 0.57337 0.0
H948 H 0.83092 0.73615 0.68942 0.0
H949 H 0.75835 0.74572 0.60399 0.0
H950 H 0.76691 0.72165 0.62404 0.0
H951 H 0.7763 0.73134 0.57338 0.0
C952 C 0.81212 0.6802 0.68321 0.0
C953 C 0.81699 0.67162 0.64281 0.0
C954 C 0.80651 0.70048 0.68591 0.0
C955 C 0.80537 0.71236 0.64825 0.0
C956 C 0.80893 0.70342 0.60773 0.0
H957 H 0.81941 0.83499 0.57121 0.0
H958 H 0.81027 0.79929 0.57586 0.0
C959 C 0.81465 0.68326 0.60502 0.0
C960 C 0.80384 0.73456 0.6514 0.0
H961 H 0.77881 0.77546 0.61135 0.0
C962 C 0.81928 0.74476 0.67314 0.0
C963 C 0.78883 0.74573 0.6295 0.0
C964 C 0.77155 0.73555 0.60673 0.0
C965 C 0.82069 0.76578 0.67202 0.0
C966 C 0.80588 0.777 0.64951 0.0
C967 C 0.7901 0.76684 0.62865 0.0
C968 C 0.80731 0.79919 0.64587 0.0
C969 C 0.83864 0.77569 0.69312 0.0
C970 C 0.80761 0.81114 0.68338 0.0
C971 C 0.81308 0.83136 0.68086 0.0
C972 C 0.81793 0.84011 0.64063 0.0
C973 C 0.81574 0.82864 0.60261 0.0
C974 C 0.81055 0.80825 0.60525 0.0
H975 H 0.85095 0.76478 0.69955 0.0
H976 H 0.84467 0.78795 0.6724 0.0
H977 H 0.83399 0.78229 0.72467 0.0
H978 H 0.80469 0.80455 0.71493 0.0
H979 H 0.81439 0.83993 0.71065 0.0
H980 H 0.83413 0.18427 0.30644 0.0
H981 H 0.79896 0.19447 0.30734 0.0
H982 H 0.80317 0.20753 0.44419 0.0
H983 H 0.83857 0.19706 0.44372 0.0
H984 H 0.77356 0.18026 0.42365 0.0
H985 H 0.76697 0.24654 0.31599 0.0
H986 H 0.78076 0.22627 0.29152 0.0
H987 H 0.79066 0.23854 0.33898 0.0
C988 C 0.82775 0.18973 0.33662 0.0
C989 C 0.83911 0.18967 0.37514 0.0
C990 C 0.80765 0.19578 0.33693 0.0
C991 C 0.79847 0.20199 0.3757 0.0
C992 C 0.81003 0.20295 0.41382 0.0
H993 H 0.67069 0.20214 0.4377 0.0
H994 H 0.70631 0.21115 0.43852 0.0
C995 C 0.83025 0.19698 0.41351 0.0
C996 C 0.7763 0.20436 0.37742 0.0
H997 H 0.73648 0.22776 0.32863 0.0
C998 C 0.76545 0.19093 0.40355 0.0
C999 C 0.76577 0.21808 0.35064 0.0
C1000 C 0.77665 0.2333 0.32299 0.0
C1001 C 0.7444 0.19022 0.40235 0.0
C1002 C 0.73382 0.2037 0.37503 0.0
C1003 C 0.74462 0.21749 0.34958 0.0
C1004 C 0.7116 0.20287 0.37154 0.0
C1005 C 0.73372 0.17436 0.42886 0.0
C1006 C 0.70247 0.19666 0.33267 0.0
C1007 C 0.68196 0.19182 0.33188 0.0
C1008 C 0.67045 0.19298 0.3701 0.0
C1009 C 0.67929 0.20087 0.40789 0.0
C1010 C 0.69964 0.20596 0.40847 0.0
H1011 H 0.74414 0.16231 0.43978 0.0
H1012 H 0.72707 0.18145 0.45819 0.0
H1013 H 0.72137 0.16734 0.40994 0.0
H1014 H 0.71146 0.19429 0.30374 0.0
H1015 H 0.67554 0.18573 0.30237 0.0
H1016 H 0.19131 0.33544 0.7069 0.0
H1017 H 0.2005 0.2998 0.70286 0.0
H1018 H 0.20534 0.3043 0.56348 0.0
H1019 H 0.19554 0.33964 0.56726 0.0
H1020 H 0.17957 0.27612 0.58632 0.0
H1021 H 0.24921 0.26511 0.68144 0.0
H1022 H 0.23029 0.27839 0.71161 0.0
H1023 H 0.24092 0.28964 0.66363 0.0
C1024 C 0.19495 0.32896 0.67558 0.0
C1025 C 0.19253 0.34023 0.63738 0.0
C1026 C 0.20031 0.30859 0.67329 0.0
C1027 C 0.20374 0.29935 0.63285 0.0
C1028 C 0.20277 0.31107 0.59502 0.0
H1029 H 0.19762 0.17087 0.56562 0.0
H1030 H 0.20788 0.20627 0.56189 0.0
C1031 C 0.19715 0.33126 0.59723 0.0
C1032 C 0.20511 0.27711 0.62924 0.0
H1033 H 0.22896 0.2355 0.66911 0.0
C1034 C 0.19065 0.26727 0.60371 0.0
C1035 C 0.21948 0.26555 0.65215 0.0
C1036 C 0.23597 0.27524 0.6784 0.0
C1037 C 0.18957 0.24624 0.60197 0.0
C1038 C 0.20352 0.23467 0.62594 0.0
C1039 C 0.21837 0.24443 0.65055 0.0
C1040 C 0.20133 0.21256 0.6294 0.0
C1041 C 0.17279 0.23661 0.57631 0.0
C1042 C 0.19527 0.20419 0.66904 0.0
C1043 C 0.18946 0.18407 0.67129 0.0
C1044 C 0.18965 0.17187 0.63392 0.0
C1045 C 0.19719 0.17988 0.5949 0.0
C1046 C 0.20298 0.20011 0.59268 0.0
H1047 H 0.16129 0.24772 0.56587 0.0
H1048 H 0.17915 0.22942 0.54679 0.0
H1049 H 0.16524 0.22475 0.59579 0.0
H1050 H 0.19394 0.21352 0.69776 0.0
H1051 H 0.18396 0.17832 0.702 0.0
H1052 H 0.17717 0.82157 0.46248 0.0
H1053 H 0.21305 0.81295 0.45844 0.0
H1054 H 0.20744 0.80266 0.32074 0.0
H1055 H 0.17187 0.8118 0.32432 0.0
H1056 H 0.23769 0.7808 0.42655 0.0
H1057 H 0.24583 0.8506 0.3287 0.0
H1058 H 0.22301 0.84452 0.35752 0.0
H1059 H 0.22863 0.83251 0.30659 0.0
C1060 C 0.18349 0.81693 0.43162 0.0
C1061 C 0.17185 0.81766 0.3936 0.0
C1062 C 0.20398 0.81205 0.42932 0.0
C1063 C 0.21298 0.80767 0.38908 0.0
C1064 C 0.20089 0.80646 0.35191 0.0
H1065 H 0.33993 0.81522 0.31677 0.0
H1066 H 0.30454 0.80483 0.3147 0.0
C1067 C 0.18056 0.81161 0.35405 0.0
C1068 C 0.23519 0.80673 0.38504 0.0
H1069 H 0.27509 0.83165 0.3406 0.0
C1070 C 0.24589 0.79182 0.40755 0.0
C1071 C 0.24586 0.82118 0.3603 0.0
C1072 C 0.23531 0.83823 0.33719 0.0
C1073 C 0.26703 0.79105 0.40612 0.0
C1074 C 0.27766 0.8057 0.38195 0.0
C1075 C 0.2669 0.82028 0.35865 0.0
C1076 C 0.29984 0.8078 0.38397 0.0
C1077 C 0.27782 0.77465 0.43062 0.0
C1078 C 0.30902 0.8125 0.42364 0.0
C1079 C 0.32911 0.81851 0.42487 0.0
C1080 C 0.34045 0.82004 0.3864 0.0
C1081 C 0.33162 0.81414 0.34696 0.0
C1082 C 0.31141 0.80822 0.34573 0.0
H1083 H 0.26802 0.76129 0.43533 0.0
H1084 H 0.29174 0.7699 0.41344 0.0
H1085 H 0.28208 0.78036 0.46319 0.0
H1086 H 0.30032 0.8127 0.45341 0.0
H1087 H 0.33548 0.82287 0.45584 0.0
H1088 H 0.20571 0.07989 0.72383 0.0
H1089 H 0.23262 0.07406 0.77649 0.0
H1090 H 0.19788 0.10445 0.87503 0.0
H1091 H 0.17109 0.11063 0.82248 0.0
H1092 H 0.23514 0.12034 0.86616 0.0
H1093 H 0.24137 0.03746 0.88072 0.0
H1094 H 0.24203 0.04637 0.8257 0.0
H1095 H 0.21959 0.04968 0.85759 0.0
C1096 C 0.20354 0.08485 0.75701 0.0
C1097 C 0.18623 0.09579 0.76883 0.0
C1098 C 0.21896 0.08144 0.78719 0.0
C1099 C 0.2173 0.08872 0.82991 0.0
C1100 C 0.19954 0.09868 0.84232 0.0
H1101 H 0.29984 0.07861 0.04895 0.0
H1102 H 0.27225 0.07343 0.9974 0.0
C1103 C 0.18418 0.10214 0.8122 0.0
C1104 C 0.2348 0.08807 0.86013 0.0
H1105 H 0.26842 0.05674 0.91029 0.0
C1106 C 0.24232 0.1064 0.87594 0.0
C1107 C 0.24417 0.0699 0.87314 0.0
C1108 C 0.23629 0.04971 0.85877 0.0
C1109 C 0.25901 0.10711 0.90379 0.0
C1110 C 0.26878 0.08901 0.91574 0.0
C1111 C 0.26109 0.07062 0.90066 0.0
C1112 C 0.28676 0.08917 0.94452 0.0
C1113 C 0.26588 0.12728 0.92068 0.0
C1114 C 0.30447 0.09891 0.93134 0.0
C1115 C 0.32025 0.1019 0.96067 0.0
C1116 C 0.31871 0.09511 1.00383 0.0
C1117 C 0.30155 0.08404 0.01601 0.0
C1118 C 0.28573 0.08109 0.98659 0.0
H1119 H 0.25407 0.139 0.91699 0.0
H1120 H 0.2701 0.12631 0.9555 0.0
H1121 H 0.27932 0.1322 0.90212 0.0
H1122 H 0.30574 0.10498 0.89881 0.0
H1123 H 0.33325 0.11039 0.95005 0.0
H1124 H 0.07163 0.81064 0.28963 0.0
H1125 H 0.06426 0.78374 0.2375 0.0
H1126 H 0.11509 0.80207 0.15981 0.0
H1127 H 0.1218 0.82944 0.21018 0.0
H1128 H 0.08664 0.79069 0.10862 0.0
H1129 H 0.0945 0.7323 0.23617 0.0
H1130 H 0.07428 0.74959 0.24595 0.0
H1131 H 0.09989 0.75841 0.24633 0.0
C1132 C 0.08097 0.80915 0.26096 0.0
C1133 C 0.09739 0.82214 0.25429 0.0
C1134 C 0.07691 0.79358 0.23142 0.0
C1135 C 0.08949 0.79036 0.19527 0.0
C1136 C 0.10519 0.80404 0.18748 0.0
H1137 H 0.12262 0.68258 0.06349 0.0
H1138 H 0.11575 0.70997 0.11384 0.0
C1139 C 0.10901 0.81977 0.21643 0.0
C1140 C 0.08713 0.77245 0.16631 0.0
H1141 H 0.08729 0.72099 0.16561 0.0
C1142 C 0.08667 0.77545 0.12114 0.0
C1143 C 0.08739 0.75247 0.18245 0.0
C1144 C 0.08924 0.74793 0.23031 0.0
C1145 C 0.08721 0.75922 0.09178 0.0
C1146 C 0.08732 0.73924 0.10792 0.0
C1147 C 0.08704 0.73624 0.1531 0.0
C1148 C 0.08987 0.72136 0.07891 0.0
C1149 C 0.08885 0.76379 0.04389 0.0
C1150 C 0.07721 0.71796 0.04306 0.0
C1151 C 0.08136 0.70239 0.01354 0.0
C1152 C 0.09794 0.68956 0.01994 0.0
C1153 C 0.1097 0.69212 0.05748 0.0
C1154 C 0.10578 0.70787 0.08641 0.0
H1155 H 0.09387 0.77948 0.03793 0.0
H1156 H 0.09961 0.75343 0.02765 0.0
H1157 H 0.07388 0.76194 0.02855 0.0
H1158 H 0.06441 0.72766 0.03722 0.0
H1159 H 0.07192 0.70075 0.98512 0.0
H1160 H 0.67511 0.90362 0.95151 0.0
H1161 H 0.70268 0.90917 0.90032 0.0
H1162 H 0.73621 0.94015 0.99954 0.0
H1163 H 0.70857 0.93483 0.05105 0.0
H1164 H 0.7402 0.95709 0.91228 0.0
H1165 H 0.75418 0.87476 0.91857 0.0
H1166 H 0.72898 0.88172 0.90382 0.0
H1167 H 0.7382 0.88751 0.95721 0.0
C1168 C 0.68812 0.91204 0.96228 0.0
C1169 C 0.68967 0.91861 1.0056 0.0
C1170 C 0.70394 0.9151 0.93297 0.0
C1171 C 0.72168 0.92471 0.94633 0.0
C1172 C 0.7227 0.93261 0.98857 0.0
H1173 H 0.83755 0.90279 0.82509 0.0
H1174 H 0.81068 0.90925 0.87749 0.0
C1175 C 0.70684 0.92958 0.01798 0.0
C1176 C 0.73971 0.92482 0.9176 0.0
H1177 H 0.77337 0.89339 0.86812 0.0
C1178 C 0.7475 0.9432 0.90263 0.0
C1179 C 0.74945 0.90669 0.90563 0.0
C1180 C 0.74244 0.88654 0.92238 0.0
C1181 C 0.7645 0.94386 0.8752 0.0
C1182 C 0.77384 0.92566 0.8622 0.0
C1183 C 0.76621 0.90735 0.87789 0.0
C1184 C 0.79144 0.92494 0.83212 0.0
C1185 C 0.77248 0.96401 0.86091 0.0
C1186 C 0.78991 0.93213 0.78935 0.0
C1187 C 0.80538 0.92856 0.75925 0.0
C1188 C 0.8226 0.91754 0.77123 0.0
C1189 C 0.82453 0.91133 0.81468 0.0
C1190 C 0.80913 0.91496 0.84472 0.0
H1191 H 0.76734 0.9763 0.88276 0.0
H1192 H 0.78918 0.964 0.85995 0.0
H1193 H 0.76689 0.96734 0.82775 0.0
H1194 H 0.7763 0.93955 0.77852 0.0
H1195 H 0.80328 0.93341 0.726 0.0
H1196 H 0.90258 0.17227 0.19239 0.0
H1197 H 0.90873 0.19971 0.14137 0.0
H1198 H 0.93798 0.23368 0.24243 0.0
H1199 H 0.93213 0.20615 0.2936 0.0
H1200 H 0.89214 0.23681 0.15258 0.0
H1201 H 0.97501 0.24397 0.13898 0.0
H1202 H 0.96296 0.22173 0.16037 0.0
H1203 H 0.96588 0.24367 0.1939 0.0
C1204 C 0.91083 0.18532 0.20355 0.0
C1205 C 0.91682 0.18698 0.2472 0.0
C1206 C 0.91428 0.20106 0.17431 0.0
C1207 C 0.92388 0.21878 0.1879 0.0
C1208 C 0.93086 0.22005 0.23086 0.0
H1209 H 0.90125 0.33593 0.07359 0.0
H1210 H 0.90703 0.30803 0.12373 0.0
C1211 C 0.92745 0.20428 0.26018 0.0
C1212 C 0.9244 0.23665 0.15869 0.0
H1213 H 0.95547 0.27112 0.11055 0.0
C1214 C 0.90602 0.24422 0.14327 0.0
C1215 C 0.9425 0.24632 0.14632 0.0
C1216 C 0.96274 0.23843 0.16038 0.0
C1217 C 0.90518 0.26125 0.11639 0.0
C1218 C 0.9232 0.2713 0.10504 0.0
C1219 C 0.94166 0.26358 0.11975 0.0
C1220 C 0.92291 0.28955 0.07709 0.0
C1221 C 0.88496 0.26819 0.09984 0.0
C1222 C 0.93091 0.28893 0.03489 0.0
C1223 C 0.92774 0.30496 1.0061 0.0
C1224 C 0.91652 0.32192 0.01906 0.0
C1225 C 0.90985 0.32309 0.06238 0.0
C1226 C 0.91305 0.30709 0.09109 0.0
H1227 H 0.87332 0.25631 0.10309 0.0
H1228 H 0.87996 0.28145 0.11894 0.0
H1229 H 0.88593 0.27272 0.0652 0.0
H1230 H 0.93865 0.27559 0.02345 0.0
H1231 H 0.93309 0.30354 0.97301 0.0
H1232 H 0.17411 0.40212 0.45267 0.0
H1233 H 0.20149 0.40778 0.40105 0.0
H1234 H 0.23517 0.43898 0.4997 0.0
H1235 H 0.20773 0.43357 0.55162 0.0
H1236 H 0.23894 0.45588 0.41269 0.0
H1237 H 0.2531 0.37357 0.41846 0.0
H1238 H 0.22786 0.38049 0.40388 0.0
H1239 H 0.23713 0.38624 0.45725 0.0
C1240 C 0.18712 0.41061 0.46322 0.0
C1241 C 0.18877 0.41721 0.50649 0.0
C1242 C 0.20282 0.41374 0.43367 0.0
C1243 C 0.22056 0.42343 0.44676 0.0
C1244 C 0.22167 0.43137 0.48895 0.0
H1245 H 0.33636 0.40191 0.32511 0.0
H1246 H 0.30943 0.40815 0.37746 0.0
C1247 C 0.20592 0.42828 0.51858 0.0
C1248 C 0.23852 0.4236 0.41782 0.0
H1249 H 0.27217 0.3923 0.36799 0.0
C1250 C 0.24625 0.44201 0.40291 0.0
C1251 C 0.24827 0.40551 0.40569 0.0
C1252 C 0.24133 0.38532 0.42239 0.0
C1253 C 0.26323 0.44274 0.37542 0.0
C1254 C 0.27259 0.42457 0.36228 0.0
C1255 C 0.265 0.40623 0.37787 0.0
C1256 C 0.29019 0.42393 0.33222 0.0
C1257 C 0.27117 0.46293 0.36125 0.0
C1258 C 0.28868 0.43123 0.28953 0.0
C1259 C 0.30418 0.42779 0.25946 0.0
C1260 C 0.32143 0.41679 0.27138 0.0
C1261 C 0.32333 0.41044 0.31475 0.0
C1262 C 0.30788 0.41394 0.34476 0.0
H1263 H 0.26602 0.47517 0.38321 0.0
H1264 H 0.28787 0.46295 0.36024 0.0
H1265 H 0.26555 0.4663 0.32813 0.0
H1266 H 0.27507 0.43865 0.27874 0.0
H1267 H 0.30212 0.43275 0.22627 0.0
H1268 H 0.43313 0.8045 0.47434 0.0
H1269 H 0.43868 0.77667 0.52513 0.0
H1270 H 0.40649 0.8091 0.62459 0.0
H1271 H 0.4007 0.83685 0.5741 0.0
H1272 H 0.45537 0.77255 0.61208 0.0
H1273 H 0.37336 0.75705 0.60516 0.0
H1274 H 0.3858 0.77348 0.56705 0.0
H1275 H 0.37973 0.7823 0.62068 0.0
C1276 C 0.42763 0.80594 0.50732 0.0
C1277 C 0.41628 0.82287 0.51995 0.0
C1278 C 0.43079 0.78997 0.53631 0.0
C1279 C 0.42265 0.79062 0.57839 0.0
C1280 C 0.41261 0.80811 0.59204 0.0
H1281 H 0.43296 0.70858 0.79716 0.0
H1282 H 0.43849 0.73579 0.74504 0.0
C1283 C 0.40941 0.82404 0.56313 0.0
C1284 C 0.42309 0.77247 0.60671 0.0
H1285 H 0.39232 0.73807 0.65542 0.0
C1286 C 0.44162 0.76496 0.62155 0.0
C1287 C 0.40516 0.76236 0.61842 0.0
C1288 C 0.38488 0.76904 0.60175 0.0
C1289 C 0.4426 0.74788 0.64861 0.0
C1290 C 0.42459 0.73817 0.66141 0.0
C1291 C 0.40614 0.74551 0.64582 0.0
C1292 C 0.42422 0.7205 0.69123 0.0
C1293 C 0.46292 0.74022 0.66276 0.0
C1294 C 0.41461 0.70265 0.6784 0.0
C1295 C 0.41134 0.6871 0.7082 0.0
C1296 C 0.41752 0.68906 0.75167 0.0
C1297 C 0.42815 0.70647 0.76389 0.0
C1298 C 0.43137 0.72207 0.73402 0.0
H1299 H 0.4751 0.74562 0.64097 0.0
H1300 H 0.46613 0.74579 0.696 0.0
H1301 H 0.46323 0.72352 0.66346 0.0
H1302 H 0.40894 0.70106 0.64562 0.0
H1303 H 0.40308 0.67395 0.69761 0.0
H1304 H 0.69997 0.57354 0.23249 0.0
H1305 H 0.72673 0.56552 0.2844 0.0
H1306 H 0.70755 0.6149 0.36548 0.0
H1307 H 0.6804 0.6223 0.31517 0.0
H1308 H 0.75771 0.58633 0.30443 0.0
H1309 H 0.71659 0.5749 0.45752 0.0
H1310 H 0.70382 0.576 0.40596 0.0
H1311 H 0.70972 0.59878 0.43521 0.0
C1312 C 0.70112 0.5823 0.26204 0.0
C1313 C 0.68791 0.59847 0.26976 0.0
C1314 C 0.71651 0.57778 0.29164 0.0
C1315 C 0.71912 0.58938 0.32946 0.0
C1316 C 0.70561 0.60523 0.33752 0.0
H1317 H 0.82834 0.62237 0.45502 0.0
H1318 H 0.80119 0.61514 0.40461 0.0
C1319 C 0.69007 0.60955 0.3084 0.0
C1320 C 0.73695 0.58632 0.3583 0.0
H1321 H 0.75132 0.58584 0.4648 0.0
C1322 C 0.75624 0.58584 0.33949 0.0
C1323 C 0.73528 0.58517 0.40413 0.0
C1324 C 0.7152 0.5835 0.42674 0.0
C1325 C 0.77375 0.58543 0.36508 0.0
C1326 C 0.77207 0.5863 0.41094 0.0
C1327 C 0.75279 0.58556 0.42973 0.0
C1328 C 0.78988 0.58932 0.43987 0.0
C1329 C 0.79385 0.58404 0.34242 0.0
C1330 C 0.79261 0.5775 0.47732 0.0
C1331 C 0.808 0.58194 0.50699 0.0
C1332 C 0.82108 0.59822 0.4997 0.0
C1333 C 0.81878 0.60953 0.46144 0.0
C1334 C 0.80324 0.6053 0.43226 0.0
H1335 H 0.79254 0.57561 0.31138 0.0
H1336 H 0.79918 0.59941 0.33441 0.0
H1337 H 0.8053 0.5765 0.36298 0.0
H1338 H 0.7825 0.56514 0.48421 0.0
H1339 H 0.80925 0.573 0.53625 0.0
H1340 H 0.57195 0.20146 0.48588 0.0
H1341 H 0.56468 0.22829 0.53833 0.0
H1342 H 0.61677 0.21095 0.61289 0.0
H1343 H 0.62347 0.18369 0.56214 0.0
H1344 H 0.58829 0.22149 0.66575 0.0
H1345 H 0.59401 0.28038 0.53869 0.0
H1346 H 0.57413 0.26268 0.52955 0.0
H1347 H 0.59992 0.2544 0.52804 0.0
C1348 C 0.58162 0.20316 0.51391 0.0
C1349 C 0.59837 0.19047 0.5196 0.0
C1350 C 0.5776 0.21869 0.54363 0.0
C1351 C 0.59052 0.22214 0.57903 0.0
C1352 C 0.60661 0.20879 0.58582 0.0
H1353 H 0.62265 0.32973 0.71205 0.0
H1354 H 0.61591 0.30256 0.66117 0.0
C1355 C 0.61043 0.19312 0.55665 0.0
C1356 C 0.58802 0.23992 0.60833 0.0
H1357 H 0.58719 0.29137 0.60976 0.0
C1358 C 0.58793 0.23677 0.65347 0.0
C1359 C 0.58777 0.25994 0.59247 0.0
C1360 C 0.58915 0.26463 0.5446 0.0
C1361 C 0.58831 0.25292 0.68303 0.0
C1362 C 0.58792 0.27295 0.66717 0.0
C1363 C 0.5873 0.27608 0.62205 0.0
C1364 C 0.59029 0.29077 0.69639 0.0
C1365 C 0.5903 0.24825 0.7308 0.0
C1366 C 0.57769 0.29387 0.73255 0.0
C1367 C 0.58175 0.30934 0.76234 0.0
C1368 C 0.59819 0.32232 0.75596 0.0
C1369 C 0.60985 0.32006 0.71809 0.0
C1370 C 0.60601 0.30444 0.68885 0.0
H1371 H 0.5956 0.23261 0.73641 0.0
H1372 H 0.60099 0.25871 0.74679 0.0
H1373 H 0.5754 0.24987 0.74668 0.0
H1374 H 0.56503 0.28401 0.73845 0.0
H1375 H 0.57239 0.31073 0.791 0.0
loop_
_geom_bond_atom_site_label_1
_geom_bond_atom_site_label_2
_geom_bond_distance
_geom_bond_site_symmetry_2
_ccdc_geom_bond_type
O0 Cd1 2.223 . S
O0 C8 1.315 . S
Cd1 O0 2.223 . S
Cd1 O4 2.297 . S
Cd1 O5 2.439 . S
Cd1 O11 2.240 . S
Cd2 O3 2.240 . S
Cd2 O10 2.223 . S
Cd2 O12 2.297 . S
Cd2 O13 2.439 . S
O3 Cd2 2.240 . S
O3 C8 1.279 . S
O4 Cd1 2.297 . S
O4 C6 1.247 . S
O5 Cd1 2.439 . S
O5 C6 1.208 . S
C6 O4 1.247 . S
C6 O5 1.208 . S
C7 O12 1.247 . S
C7 O13 1.208 . S
C8 O0 1.315 . S
C8 O3 1.279 . S
C9 O10 1.315 . S
C9 O11 1.279 . S
O10 Cd2 2.223 . S
O10 C9 1.315 . S
O11 Cd1 2.240 . S
O11 C9 1.279 . S
O12 Cd2 2.297 . S
O12 C7 1.247 . S
O13 Cd2 2.439 . S
O13 C7 1.208 . S
O14 Cd15 2.223 . S
O14 C22 1.315 . S
Cd15 O14 2.223 . S
Cd15 O18 2.297 . S
Cd15 O19 2.439 . S
Cd15 O25 2.240 . S
Cd16 O17 2.240 . S
Cd16 O24 2.223 . S
Cd16 O26 2.297 . S
Cd16 O27 2.439 . S
O17 Cd16 2.240 . S
O17 C22 1.279 . S
O18 Cd15 2.297 . S
O18 C20 1.247 . S
O19 Cd15 2.439 . S
O19 C20 1.208 . S
C20 O18 1.247 . S
C20 O19 1.208 . S
C21 O26 1.247 . S
C21 O27 1.208 . S
C22 O14 1.315 . S
C22 O17 1.279 . S
C23 O24 1.315 . S
C23 O25 1.279 . S
O24 Cd16 2.223 . S
O24 C23 1.315 . S
O25 Cd15 2.240 . S
O25 C23 1.279 . S
O26 Cd16 2.297 . S
O26 C21 1.247 . S
O27 Cd16 2.439 . S
O27 C21 1.208 . S
O28 Cd29 2.223 . S
O28 C36 1.315 . S
Cd29 O28 2.223 . S
Cd29 O32 2.297 . S
Cd29 O33 2.439 . S
Cd29 O39 2.240 . S
Cd30 O31 2.240 . S
Cd30 O38 2.223 . S
Cd30 O40 2.297 . S
Cd30 O41 2.439 . S
O31 Cd30 2.240 . S
O31 C36 1.279 . S
O32 Cd29 2.297 . S
O32 C34 1.247 . S
O33 Cd29 2.439 . S
O33 C34 1.208 . S
C34 O32 1.247 . S
C34 O33 1.208 . S
C35 O40 1.247 . S
C35 O41 1.208 . S
C36 O28 1.315 . S
C36 O31 1.279 . S
C37 O38 1.315 . S
C37 O39 1.279 . S
O38 Cd30 2.223 . S
O38 C37 1.315 . S
O39 Cd29 2.240 . S
O39 C37 1.279 . S
O40 Cd30 2.297 . S
O40 C35 1.247 . S
O41 Cd30 2.439 . S
O41 C35 1.208 . S
O42 Cd43 2.223 . S
O42 C50 1.315 . S
Cd43 O42 2.223 . S
Cd43 O46 2.297 . S
Cd43 O47 2.439 . S
Cd43 O53 2.240 . S
Cd44 O45 2.240 . S
Cd44 O52 2.223 . S
Cd44 O54 2.297 . S
Cd44 O55 2.439 . S
O45 Cd44 2.240 . S
O45 C50 1.279 . S
O46 Cd43 2.297 . S
O46 C48 1.247 . S
O47 Cd43 2.439 . S
O47 C48 1.208 . S
C48 O46 1.247 . S
C48 O47 1.208 . S
C49 O54 1.247 . S
C49 O55 1.208 . S
C50 O42 1.315 . S
C50 O45 1.279 . S
C51 O52 1.315 . S
C51 O53 1.279 . S
O52 Cd44 2.223 . S
O52 C51 1.315 . S
O53 Cd43 2.240 . S
O53 C51 1.279 . S
O54 Cd44 2.297 . S
O54 C49 1.247 . S
O55 Cd44 2.439 . S
O55 C49 1.208 . S
O56 Cd57 2.223 . S
O56 C64 1.315 . S
Cd57 O56 2.223 . S
Cd57 O60 2.297 . S
Cd57 O61 2.439 . S
Cd57 O67 2.240 . S
Cd58 O59 2.240 . S
Cd58 O66 2.223 . S
Cd58 O68 2.297 . S
Cd58 O69 2.439 . S
O59 Cd58 2.240 . S
O59 C64 1.279 . S
O60 Cd57 2.297 . S
O60 C62 1.247 . S
O61 Cd57 2.439 . S
O61 C62 1.208 . S
C62 O60 1.247 . S
C62 O61 1.208 . S
C63 O68 1.247 . S
C63 O69 1.208 . S
C64 O56 1.315 . S
C64 O59 1.279 . S
C65 O66 1.315 . S
C65 O67 1.279 . S
O66 Cd58 2.223 . S
O66 C65 1.315 . S
O67 Cd57 2.240 . S
O67 C65 1.279 . S
O68 Cd58 2.297 . S
O68 C63 1.247 . S
O69 Cd58 2.439 . S
O69 C63 1.208 . S
O70 Cd71 2.223 . S
O70 C78 1.315 . S
Cd71 O70 2.223 . S
Cd71 O74 2.297 . S
Cd71 O75 2.439 . S
Cd71 O81 2.240 . S
Cd72 O73 2.240 . S
Cd72 O80 2.223 . S
Cd72 O82 2.297 . S
Cd72 O83 2.439 . S
O73 Cd72 2.240 . S
O73 C78 1.279 . S
O74 Cd71 2.297 . S
O74 C76 1.247 . S
O75 Cd71 2.439 . S
O75 C76 1.208 . S
C76 O74 1.247 . S
C76 O75 1.208 . S
C77 O82 1.247 . S
C77 O83 1.208 . S
C78 O70 1.315 . S
C78 O73 1.279 . S
C79 O80 1.315 . S
C79 O81 1.279 . S
O80 Cd72 2.223 . S
O80 C79 1.315 . S
O81 Cd71 2.240 . S
O81 C79 1.279 . S
O82 Cd72 2.297 . S
O82 C77 1.247 . S
O83 Cd72 2.439 . S
O83 C77 1.208 . S
O84 Cd85 2.223 . S
O84 C92 1.315 . S
Cd85 O84 2.223 . S
Cd85 O88 2.297 . S
Cd85 O89 2.439 . S
Cd85 O95 2.240 . S
Cd86 O87 2.240 . S
Cd86 O94 2.223 . S
Cd86 O96 2.297 . S
Cd86 O97 2.439 . S
O87 Cd86 2.240 . S
O87 C92 1.279 . S
O88 Cd85 2.297 . S
O88 C90 1.247 . S
O89 Cd85 2.439 . S
O89 C90 1.208 . S
C90 O88 1.247 . S
C90 O89 1.208 . S
C91 O96 1.247 . S
C91 O97 1.208 . S
C92 O84 1.315 . S
C92 O87 1.279 . S
C93 O94 1.315 . S
C93 O95 1.279 . S
O94 Cd86 2.223 . S
O94 C93 1.315 . S
O95 Cd85 2.240 . S
O95 C93 1.279 . S
O96 Cd86 2.297 . S
O96 C91 1.247 . S
O97 Cd86 2.439 . S
O97 C91 1.208 . S
O98 Cd99 2.223 . S
O98 C106 1.315 . S
Cd99 O98 2.223 . S
Cd99 O102 2.297 . S
Cd99 O103 2.439 . S
Cd99 O109 2.240 . S
Cd100 O101 2.240 . S
Cd100 O108 2.223 . S
Cd100 O110 2.297 . S
Cd100 O111 2.439 . S
O101 Cd100 2.240 . S
O101 C106 1.279 . S
O102 Cd99 2.297 . S
O102 C104 1.247 . S
O103 Cd99 2.439 . S
O103 C104 1.208 . S
C104 O102 1.247 . S
C104 O103 1.208 . S
C105 O110 1.247 . S
C105 O111 1.208 . S
C106 O98 1.315 . S
C106 O101 1.279 . S
C107 O108 1.315 . S
C107 O109 1.279 . S
O108 Cd100 2.223 . S
O108 C107 1.315 . S
O109 Cd99 2.240 . S
O109 C107 1.279 . S
O110 Cd100 2.297 . S
O110 C105 1.247 . S
O111 Cd100 2.439 . S
O111 C105 1.208 . S
O112 Cd113 2.223 . S
O112 C120 1.315 . S
Cd113 O112 2.223 . S
Cd113 O116 2.297 . S
Cd113 O117 2.439 . S
Cd113 O123 2.240 . S
Cd114 O115 2.240 . S
Cd114 O122 2.223 . S
Cd114 O124 2.297 . S
Cd114 O125 2.439 . S
O115 Cd114 2.240 . S
O115 C120 1.279 . S
O116 Cd113 2.297 . S
O116 C118 1.247 . S
O117 Cd113 2.439 . S
O117 C118 1.208 . S
C118 O116 1.247 . S
C118 O117 1.208 . S
C119 O124 1.247 . S
C119 O125 1.208 . S
C120 O112 1.315 . S
C120 O115 1.279 . S
C121 O122 1.315 . S
C121 O123 1.279 . S
O122 Cd114 2.223 . S
O122 C121 1.315 . S
O123 Cd113 2.240 . S
O123 C121 1.279 . S
O124 Cd114 2.297 . S
O124 C119 1.247 . S
O125 Cd114 2.439 . S
O125 C119 1.208 . S
O126 Cd127 2.223 . S
O126 C134 1.315 . S
Cd127 O126 2.223 . S
Cd127 O130 2.297 . S
Cd127 O131 2.439 . S
Cd127 O137 2.240 . S
Cd128 O129 2.240 . S
Cd128 O136 2.223 . S
Cd128 O138 2.297 . S
Cd128 O139 2.439 . S
O129 Cd128 2.240 . S
O129 C134 1.279 . S
O130 Cd127 2.297 . S
O130 C132 1.247 . S
O131 Cd127 2.439 . S
O131 C132 1.208 . S
C132 O130 1.247 . S
C132 O131 1.208 . S
C133 O138 1.247 . S
C133 O139 1.208 . S
C134 O126 1.315 . S
C134 O129 1.279 . S
C135 O136 1.315 . S
C135 O137 1.279 . S
O136 Cd128 2.223 . S
O136 C135 1.315 . S
O137 Cd127 2.240 . S
O137 C135 1.279 . S
O138 Cd128 2.297 . S
O138 C133 1.247 . S
O139 Cd128 2.439 . S
O139 C133 1.208 . S
O140 Cd141 2.223 . S
O140 C148 1.315 . S
Cd141 O140 2.223 . S
Cd141 O144 2.297 . S
Cd141 O145 2.439 . S
Cd141 O151 2.240 . S
Cd142 O143 2.240 . S
Cd142 O150 2.223 . S
Cd142 O152 2.297 . S
Cd142 O153 2.439 . S
O143 Cd142 2.240 . S
O143 C148 1.279 . S
O144 Cd141 2.297 . S
O144 C146 1.247 . S
O145 Cd141 2.439 . S
O145 C146 1.208 . S
C146 O144 1.247 . S
C146 O145 1.208 . S
C147 O152 1.247 . S
C147 O153 1.208 . S
C148 O140 1.315 . S
C148 O143 1.279 . S
C149 O150 1.315 . S
C149 O151 1.279 . S
O150 Cd142 2.223 . S
O150 C149 1.315 . S
O151 Cd141 2.240 . S
O151 C149 1.279 . S
O152 Cd142 2.297 . S
O152 C147 1.247 . S
O153 Cd142 2.439 . S
O153 C147 1.208 . S
O154 Cd155 2.223 . S
O154 C162 1.315 . S
Cd155 O154 2.223 . S
Cd155 O158 2.297 . S
Cd155 O159 2.439 . S
Cd155 O165 2.240 . S
Cd156 O157 2.240 . S
Cd156 O164 2.223 . S
Cd156 O166 2.297 . S
Cd156 O167 2.439 . S
O157 Cd156 2.240 . S
O157 C162 1.279 . S
O158 Cd155 2.297 . S
O158 C160 1.247 . S
O159 Cd155 2.439 . S
O159 C160 1.208 . S
C160 O158 1.247 . S
C160 O159 1.208 . S
C161 O166 1.247 . S
C161 O167 1.208 . S
C162 O154 1.315 . S
C162 O157 1.279 . S
C163 O164 1.315 . S
C163 O165 1.279 . S
O164 Cd156 2.223 . S
O164 C163 1.315 . S
O165 Cd155 2.240 . S
O165 C163 1.279 . S
O166 Cd156 2.297 . S
O166 C161 1.247 . S
O167 Cd156 2.439 . S
O167 C161 1.208 . S
O168 Cd169 2.223 . S
O168 C176 1.315 . S
Cd169 O168 2.223 . S
Cd169 O172 2.297 . S
Cd169 O173 2.439 . S
Cd169 O179 2.240 . S
Cd170 O171 2.240 . S
Cd170 O178 2.223 . S
Cd170 O180 2.297 . S
Cd170 O181 2.439 . S
O171 Cd170 2.240 . S
O171 C176 1.279 . S
O172 Cd169 2.297 . S
O172 C174 1.247 . S
O173 Cd169 2.439 . S
O173 C174 1.208 . S
C174 O172 1.247 . S
C174 O173 1.208 . S
C175 O180 1.247 . S
C175 O181 1.208 . S
C176 O168 1.315 . S
C176 O171 1.279 . S
C177 O178 1.315 . S
C177 O179 1.279 . S
O178 Cd170 2.223 . S
O178 C177 1.315 . S
O179 Cd169 2.240 . S
O179 C177 1.279 . S
O180 Cd170 2.297 . S
O180 C175 1.247 . S
O181 Cd170 2.439 . S
O181 C175 1.208 . S
O182 Cd183 2.223 . S
O182 C190 1.315 . S
Cd183 O182 2.223 . S
Cd183 O186 2.297 . S
Cd183 O187 2.439 . S
Cd183 O193 2.240 . S
Cd184 O185 2.240 . S
Cd184 O192 2.223 . S
Cd184 O194 2.297 . S
Cd184 O195 2.439 . S
O185 Cd184 2.240 . S
O185 C190 1.279 . S
O186 Cd183 2.297 . S
O186 C188 1.247 . S
O187 Cd183 2.439 . S
O187 C188 1.208 . S
C188 O186 1.247 . S
C188 O187 1.208 . S
C189 O194 1.247 . S
C189 O195 1.208 . S
C190 O182 1.315 . S
C190 O185 1.279 . S
C191 O192 1.315 . S
C191 O193 1.279 . S
O192 Cd184 2.223 . S
O192 C191 1.315 . S
O193 Cd183 2.240 . S
O193 C191 1.279 . S
O194 Cd184 2.297 . S
O194 C189 1.247 . S
O195 Cd184 2.439 . S
O195 C189 1.208 . S
O196 Cd197 2.223 . S
O196 C204 1.315 . S
Cd197 O196 2.223 . S
Cd197 O200 2.297 . S
Cd197 O201 2.439 . S
Cd197 O207 2.240 . S
Cd198 O199 2.240 . S
Cd198 O206 2.223 . S
Cd198 O208 2.297 . S
Cd198 O209 2.439 . S
O199 Cd198 2.240 . S
O199 C204 1.279 . S
O200 Cd197 2.297 . S
O200 C202 1.247 . S
O201 Cd197 2.439 . S
O201 C202 1.208 . S
C202 O200 1.247 . S
C202 O201 1.208 . S
C203 O208 1.247 . S
C203 O209 1.208 . S
C204 O196 1.315 . S
C204 O199 1.279 . S
C205 O206 1.315 . S
C205 O207 1.279 . S
O206 Cd198 2.223 . S
O206 C205 1.315 . S
O207 Cd197 2.240 . S
O207 C205 1.279 . S
O208 Cd198 2.297 . S
O208 C203 1.247 . S
O209 Cd198 2.439 . S
O209 C203 1.208 . S
O210 Cd211 2.223 . S
O210 C218 1.315 . S
Cd211 O210 2.223 . S
Cd211 O214 2.297 . S
Cd211 O215 2.439 . S
Cd211 O221 2.240 . S
Cd212 O213 2.240 . S
Cd212 O220 2.223 . S
Cd212 O222 2.297 . S
Cd212 O223 2.439 . S
O213 Cd212 2.240 . S
O213 C218 1.279 . S
O214 Cd211 2.297 . S
O214 C216 1.247 . S
O215 Cd211 2.439 . S
O215 C216 1.208 . S
C216 O214 1.247 . S
C216 O215 1.208 . S
C217 O222 1.247 . S
C217 O223 1.208 . S
C218 O210 1.315 . S
C218 O213 1.279 . S
C219 O220 1.315 . S
C219 O221 1.279 . S
O220 Cd212 2.223 . S
O220 C219 1.315 . S
O221 Cd211 2.240 . S
O221 C219 1.279 . S
O222 Cd212 2.297 . S
O222 C217 1.247 . S
O223 Cd212 2.439 . S
O223 C217 1.208 . S
H224 C232 0.929 . S
H225 C234 0.930 . S
H226 C236 0.930 . S
H227 C239 0.929 . S
H228 C242 0.930 . S
H229 C244 0.960 . S
H230 C244 0.960 . S
H231 C244 0.960 . S
C232 H224 0.929 . S
C232 C233 1.377 . S
C232 C234 1.384 . S
C233 C232 1.377 . S
C233 C239 1.390 . S
C234 H225 0.930 . S
C234 C232 1.384 . S
C234 C235 1.372 . S
C235 C234 1.372 . S
C235 C236 1.400 . S
C235 C240 1.490 . S
C236 H226 0.930 . S
C236 C235 1.400 . S
C236 C239 1.386 . S
H237 C253 0.930 . S
H238 C254 0.931 . S
C239 H227 0.929 . S
C239 C233 1.390 . S
C239 C236 1.386 . S
C240 C235 1.490 . S
C240 C242 1.395 . S
C240 C243 1.403 . S
H241 C247 0.930 . S
C242 H228 0.930 . S
C242 C240 1.395 . S
C242 C245 1.403 . S
C243 C240 1.403 . S
C243 C244 1.524 . S
C243 C247 1.400 . S
C244 H229 0.960 . S
C244 H230 0.960 . S
C244 H231 0.960 . S
C244 C243 1.524 . S
C245 C242 1.403 . S
C245 C246 1.392 . S
C245 C249 1.495 . S
C246 C245 1.392 . S
C246 C247 1.385 . S
C246 C248 1.478 1_565 S
C247 H241 0.930 . S
C247 C243 1.400 . S
C247 C246 1.385 . S
C248 C246 1.478 1_545 S
C248 C250 1.381 . S
C248 C254 1.383 . S
C249 C245 1.495 . S
C249 H255 0.959 . S
C249 H256 0.961 . S
C249 H257 0.960 . S
C250 C248 1.381 . S
C250 C251 1.394 . S
C250 H258 0.930 . S
C251 C250 1.394 . S
C251 C252 1.383 . S
C251 H259 0.929 . S
C252 C251 1.383 . S
C252 C253 1.377 . S
C253 H237 0.930 . S
C253 C252 1.377 . S
C253 C254 1.379 . S
C254 H238 0.931 . S
C254 C248 1.383 . S
C254 C253 1.379 . S
H255 C249 0.959 . S
H256 C249 0.961 . S
H257 C249 0.960 . S
H258 C250 0.930 . S
H259 C251 0.929 . S
H260 C268 0.929 . S
H261 C270 0.930 . S
H262 C272 0.930 . S
H263 C275 0.929 . S
H264 C278 0.930 . S
H265 C280 0.960 . S
H266 C280 0.960 . S
H267 C280 0.960 . S
C268 H260 0.929 . S
C268 C269 1.377 . S
C268 C270 1.384 . S
C269 C268 1.377 . S
C269 C275 1.390 . S
C270 H261 0.930 . S
C270 C268 1.384 . S
C270 C271 1.372 . S
C271 C270 1.372 . S
C271 C272 1.400 . S
C271 C276 1.490 1_455 S
C272 H262 0.930 . S
C272 C271 1.400 . S
C272 C275 1.386 . S
H273 C289 0.930 . S
H274 C290 0.931 . S
C275 H263 0.929 . S
C275 C269 1.390 . S
C275 C272 1.386 . S
C276 C271 1.490 1_655 S
C276 C278 1.395 . S
C276 C279 1.403 . S
H277 C283 0.930 . S
C278 H264 0.930 . S
C278 C276 1.395 . S
C278 C281 1.403 . S
C279 C276 1.403 . S
C279 C280 1.524 . S
C279 C283 1.400 . S
C280 H265 0.960 . S
C280 H266 0.960 . S
C280 H267 0.960 . S
C280 C279 1.524 . S
C281 C278 1.403 . S
C281 C282 1.392 . S
C281 C285 1.495 . S
C282 C281 1.392 . S
C282 C283 1.385 . S
C282 C284 1.478 . S
C283 H277 0.930 . S
C283 C279 1.400 . S
C283 C282 1.385 . S
C284 C282 1.478 . S
C284 C286 1.381 . S
C284 C290 1.383 . S
C285 C281 1.495 . S
C285 H291 0.959 . S
C285 H292 0.961 . S
C285 H293 0.960 . S
C286 C284 1.381 . S
C286 C287 1.394 . S
C286 H294 0.930 . S
C287 C286 1.394 . S
C287 C288 1.383 . S
C287 H295 0.929 . S
C288 C287 1.383 . S
C288 C289 1.377 . S
C289 H273 0.930 . S
C289 C288 1.377 . S
C289 C290 1.379 . S
C290 H274 0.931 . S
C290 C284 1.383 . S
C290 C289 1.379 . S
H291 C285 0.959 . S
H292 C285 0.961 . S
H293 C285 0.960 . S
H294 C286 0.930 . S
H295 C287 0.929 . S
H296 C304 0.929 . S
H297 C306 0.930 . S
H298 C308 0.930 . S
H299 C311 0.929 . S
H300 C314 0.930 . S
H301 C316 0.970 . S
H302 C316 0.947 1_565 S
H303 C316 0.953 1_565 S
C304 H296 0.929 . S
C304 C305 1.377 . S
C304 C306 1.384 . S
C305 C304 1.377 . S
C305 C311 1.390 . S
C306 H297 0.930 . S
C306 C304 1.384 . S
C306 C307 1.372 . S
C307 C306 1.372 . S
C307 C308 1.400 . S
C307 C312 1.490 1_565 S
C308 H298 0.930 . S
C308 C307 1.400 . S
C308 C311 1.386 . S
H309 C325 0.930 . S
H310 C326 0.931 . S
C311 H299 0.929 . S
C311 C305 1.390 . S
C311 C308 1.386 . S
C312 C307 1.490 1_545 S
C312 C314 1.395 . S
C312 C315 1.403 . S
H313 C319 0.930 . S
C314 H300 0.930 . S
C314 C312 1.395 . S
C314 C317 1.403 . S
C315 C312 1.403 . S
C315 C316 1.535 . S
C315 C319 1.400 . S
C316 H301 0.970 . S
C316 H302 0.947 1_545 S
C316 H303 0.953 1_545 S
C316 C315 1.535 . S
C317 C314 1.403 . S
C317 C318 1.392 . S
C317 C321 1.495 . S
C318 C317 1.392 . S
C318 C319 1.385 . S
C318 C320 1.478 . S
C319 H313 0.930 . S
C319 C315 1.400 . S
C319 C318 1.385 . S
C320 C318 1.478 . S
C320 C322 1.381 . S
C320 C326 1.383 . S
C321 C317 1.495 . S
C321 H327 0.959 . S
C321 H328 0.961 . S
C321 H329 0.960 . S
C322 C320 1.381 . S
C322 C323 1.394 . S
C322 H330 0.930 . S
C323 C322 1.394 . S
C323 C324 1.383 . S
C323 H331 0.929 . S
C324 C323 1.383 . S
C324 C325 1.377 . S
C325 H309 0.930 . S
C325 C324 1.377 . S
C325 C326 1.379 . S
C326 H310 0.931 . S
C326 C320 1.383 . S
C326 C325 1.379 . S
H327 C321 0.959 . S
H328 C321 0.961 . S
H329 C321 0.960 . S
H330 C322 0.930 . S
H331 C323 0.929 . S
H332 C340 0.929 . S
H333 C342 0.930 . S
H334 C344 0.930 . S
H335 C347 0.929 . S
H336 C350 0.930 . S
H337 C352 0.960 . S
H338 C352 0.960 . S
H339 C352 0.960 . S
C340 H332 0.929 . S
C340 C341 1.377 . S
C340 C342 1.384 . S
C341 C340 1.377 . S
C341 C347 1.390 . S
C342 H333 0.930 . S
C342 C340 1.384 . S
C342 C343 1.372 . S
C343 C342 1.372 . S
C343 C344 1.400 . S
C343 C348 1.490 . S
C344 H334 0.930 . S
C344 C343 1.400 . S
C344 C347 1.386 . S
H345 C361 0.930 . S
H346 C362 0.931 . S
C347 H335 0.929 . S
C347 C341 1.390 . S
C347 C344 1.386 . S
C348 C343 1.490 . S
C348 C350 1.395 . S
C348 C351 1.403 . S
H349 C355 0.930 . S
C350 H336 0.930 . S
C350 C348 1.395 . S
C350 C353 1.403 . S
C351 C348 1.403 . S
C351 C352 1.524 . S
C351 C355 1.400 . S
C352 H337 0.960 . S
C352 H338 0.960 . S
C352 H339 0.960 . S
C352 C351 1.524 . S
C353 C350 1.403 . S
C353 C354 1.392 . S
C353 C357 1.508 . S
C354 C353 1.392 . S
C354 C355 1.385 . S
C354 C356 1.478 1_455 S
C355 H349 0.930 . S
C355 C351 1.400 . S
C355 C354 1.385 . S
C356 C354 1.478 1_655 S
C356 C358 1.381 . S
C356 C362 1.383 . S
C357 C353 1.508 . S
C357 H363 0.971 . S
C357 H364 0.955 1_455 S
C357 H365 0.942 1_455 S
C358 C356 1.381 . S
C358 C359 1.394 . S
C358 H366 0.930 . S
C359 C358 1.394 . S
C359 C360 1.383 . S
C359 H367 0.929 . S
C360 C359 1.383 . S
C360 C361 1.377 . S
C361 H345 0.930 . S
C361 C360 1.377 . S
C361 C362 1.379 . S
C362 H346 0.931 . S
C362 C356 1.383 . S
C362 C361 1.379 . S
H363 C357 0.971 . S
H364 C357 0.955 1_655 S
H365 C357 0.942 1_655 S
H366 C358 0.930 . S
H367 C359 0.929 . S
H368 C376 0.929 . S
H369 C378 0.930 . S
H370 C380 0.930 . S
H371 C383 0.929 . S
H372 C386 0.930 . S
H373 C388 0.960 . S
H374 C388 0.960 . S
H375 C388 0.960 . S
C376 H368 0.929 . S
C376 C377 1.377 . S
C376 C378 1.384 . S
C377 C376 1.377 . S
C377 C383 1.390 1_554 S
C378 H369 0.930 . S
C378 C376 1.384 . S
C378 C379 1.372 . S
C379 C378 1.372 . S
C379 C380 1.400 1_554 S
C379 C384 1.490 1_554 S
C380 H370 0.930 . S
C380 C379 1.400 1_556 S
C380 C383 1.386 . S
H381 C397 0.930 . S
H382 C398 0.931 . S
C383 H371 0.929 . S
C383 C377 1.390 1_556 S
C383 C380 1.386 . S
C384 C379 1.490 1_556 S
C384 C386 1.395 1_556 S
C384 C387 1.403 . S
H385 C391 0.930 . S
C386 H372 0.930 . S
C386 C384 1.395 1_554 S
C386 C389 1.403 . S
C387 C384 1.403 . S
C387 C388 1.524 . S
C387 C391 1.400 . S
C388 H373 0.960 . S
C388 H374 0.960 . S
C388 H375 0.960 . S
C388 C387 1.524 . S
C389 C386 1.403 . S
C389 C390 1.392 1_554 S
C389 C393 1.495 . S
C390 C389 1.392 1_556 S
C390 C391 1.385 . S
C390 C392 1.478 . S
C391 H385 0.930 . S
C391 C387 1.400 . S
C391 C390 1.385 . S
C392 C390 1.478 . S
C392 C394 1.381 . S
C392 C398 1.383 . S
C393 C389 1.495 . S
C393 H399 0.959 . S
C393 H400 0.961 . S
C393 H401 0.960 . S
C394 C392 1.381 . S
C394 C395 1.394 . S
C394 H402 0.931 . S
C395 C394 1.394 . S
C395 C396 1.383 . S
C395 H403 0.929 . S
C396 C395 1.383 . S
C396 C397 1.377 . S
C397 H381 0.930 . S
C397 C396 1.377 . S
C397 C398 1.379 . S
C398 H382 0.931 . S
C398 C392 1.383 . S
C398 C397 1.379 . S
H399 C393 0.959 . S
H400 C393 0.961 . S
H401 C393 0.960 . S
H402 C394 0.931 . S
H403 C395 0.929 . S
H404 C412 0.929 . S
H405 C414 0.930 . S
H406 C416 0.930 . S
H407 C419 0.929 . S
H408 C422 0.930 . S
H409 C424 0.960 . S
H410 C424 0.960 . S
H411 C424 0.960 . S
C412 H404 0.929 . S
C412 C413 1.377 1_554 S
C412 C414 1.384 . S
C413 C412 1.377 1_556 S
C413 C419 1.390 . S
C414 H405 0.930 . S
C414 C412 1.384 . S
C414 C415 1.372 1_554 S
C415 C414 1.372 1_556 S
C415 C416 1.400 . S
C415 C420 1.490 1_556 S
C416 H406 0.930 . S
C416 C415 1.400 . S
C416 C419 1.386 . S
H417 C433 0.930 . S
H418 C434 0.931 . S
C419 H407 0.929 . S
C419 C413 1.390 . S
C419 C416 1.386 . S
C420 C415 1.490 1_554 S
C420 C422 1.395 . S
C420 C423 1.403 1_554 S
H421 C427 0.930 1_556 S
C422 H408 0.930 . S
C422 C420 1.395 . S
C422 C425 1.403 . S
C423 C420 1.403 1_556 S
C423 C424 1.524 . S
C423 C427 1.400 1_556 S
C424 H409 0.960 . S
C424 H410 0.960 . S
C424 H411 0.960 . S
C424 C423 1.524 . S
C425 C422 1.403 . S
C425 C426 1.392 . S
C425 C429 1.495 . S
C426 C425 1.392 . S
C426 C427 1.385 . S
C426 C428 1.478 . S
C427 H421 0.930 1_554 S
C427 C423 1.400 1_554 S
C427 C426 1.385 . S
C428 C426 1.478 . S
C428 C430 1.381 . S
C428 C434 1.383 . S
C429 C425 1.495 . S
C429 H435 0.959 . S
C429 H436 0.961 . S
C429 H437 0.960 . S
C430 C428 1.381 . S
C430 C431 1.394 . S
C430 H438 0.930 . S
C431 C430 1.394 . S
C431 C432 1.383 . S
C431 H439 0.929 . S
C432 C431 1.383 . S
C432 C433 1.377 . S
C433 H417 0.930 . S
C433 C432 1.377 . S
C433 C434 1.379 . S
C434 H418 0.931 . S
C434 C428 1.383 . S
C434 C433 1.379 . S
H435 C429 0.959 . S
H436 C429 0.961 . S
H437 C429 0.960 . S
H438 C430 0.930 . S
H439 C431 0.929 . S
H440 C448 0.929 . S
H441 C450 0.930 . S
H442 C452 0.930 . S
H443 C455 0.929 . S
H444 C458 0.930 . S
H445 C460 0.960 . S
H446 C460 0.960 . S
H447 C460 0.960 . S
C448 H440 0.929 . S
C448 C449 1.377 . S
C448 C450 1.384 . S
C449 C448 1.377 . S
C449 C455 1.390 . S
C450 H441 0.930 . S
C450 C448 1.384 . S
C450 C451 1.372 . S
C451 C450 1.372 . S
C451 C452 1.400 . S
C451 C456 1.490 . S
C452 H442 0.930 . S
C452 C451 1.400 . S
C452 C455 1.386 . S
H453 C469 0.930 . S
H454 C470 0.931 . S
C455 H443 0.929 . S
C455 C449 1.390 . S
C455 C452 1.386 . S
C456 C451 1.490 . S
C456 C458 1.395 . S
C456 C459 1.403 1_556 S
H457 C463 0.930 . S
C458 H444 0.930 . S
C458 C456 1.395 . S
C458 C461 1.403 . S
C459 C456 1.403 1_554 S
C459 C460 1.524 . S
C459 C463 1.400 . S
C460 H445 0.960 . S
C460 H446 0.960 . S
C460 H447 0.960 . S
C460 C459 1.524 . S
C461 C458 1.403 . S
C461 C462 1.392 . S
C461 C465 1.495 . S
C462 C461 1.392 . S
C462 C463 1.385 1_556 S
C462 C464 1.478 . S
C463 H457 0.930 . S
C463 C459 1.400 . S
C463 C462 1.385 1_554 S
C464 C462 1.478 . S
C464 C466 1.381 . S
C464 C470 1.383 1_556 S
C465 C461 1.495 . S
C465 H471 0.959 . S
C465 H472 0.961 . S
C465 H473 0.960 . S
C466 C464 1.381 . S
C466 C467 1.394 1_556 S
C466 H474 0.930 . S
C467 C466 1.394 1_554 S
C467 C468 1.383 . S
C467 H475 0.929 . S
C468 C467 1.383 . S
C468 C469 1.377 . S
C469 H453 0.930 . S
C469 C468 1.377 . S
C469 C470 1.379 . S
C470 H454 0.931 . S
C470 C464 1.383 1_554 S
C470 C469 1.379 . S
H471 C465 0.959 . S
H472 C465 0.961 . S
H473 C465 0.960 . S
H474 C466 0.930 . S
H475 C467 0.929 . S
H476 C484 0.929 . S
H477 C486 0.930 . S
H478 C488 0.930 . S
H479 C491 0.929 . S
H480 C494 0.930 . S
H481 C496 0.960 . S
H482 C496 0.960 . S
H483 C496 0.960 1_554 S
C484 H476 0.929 . S
C484 C485 1.377 . S
C484 C486 1.384 . S
C485 C484 1.377 . S
C485 C491 1.390 . S
C486 H477 0.930 . S
C486 C484 1.384 . S
C486 C487 1.372 . S
C487 C486 1.372 . S
C487 C488 1.400 . S
C487 C492 1.490 . S
C488 H478 0.930 . S
C488 C487 1.400 . S
C488 C491 1.386 . S
H489 C505 0.924 1_554 S
H490 C506 0.931 . S
C491 H479 0.929 . S
C491 C485 1.390 . S
C491 C488 1.386 . S
C492 C487 1.490 . S
C492 C494 1.395 . S
C492 C495 1.403 . S
H493 C499 0.930 . S
C494 H480 0.930 . S
C494 C492 1.395 . S
C494 C497 1.403 . S
C495 C492 1.403 . S
C495 C496 1.524 1_554 S
C495 C499 1.400 1_554 S
C496 H481 0.960 . S
C496 H482 0.960 . S
C496 H483 0.960 1_556 S
C496 C495 1.524 1_556 S
C497 C494 1.403 . S
C497 C498 1.392 . S
C497 C501 1.495 . S
C498 C497 1.392 . S
C498 C499 1.385 1_554 S
C498 C500 1.478 1_554 S
C499 H493 0.930 . S
C499 C495 1.400 1_556 S
C499 C498 1.385 1_556 S
C500 C498 1.478 1_556 S
C500 C502 1.381 . S
C500 C506 1.383 1_556 S
C501 C497 1.495 . S
C501 H507 0.959 . S
C501 H508 0.961 . S
C501 H509 0.960 . S
C502 C500 1.381 . S
C502 C503 1.394 . S
C502 H510 0.930 . S
C503 C502 1.394 . S
C503 C504 1.383 . S
C503 H511 0.929 . S
C504 C503 1.383 . S
C504 C505 1.387 . S
C505 H489 0.924 1_556 S
C505 C504 1.387 . S
C505 C506 1.375 1_556 S
C506 H490 0.931 . S
C506 C500 1.383 1_554 S
C506 C505 1.375 1_554 S
H507 C501 0.959 . S
H508 C501 0.961 . S
H509 C501 0.960 . S
H510 C502 0.930 . S
H511 C503 0.929 . S
H512 C520 0.929 . S
H513 C522 0.930 . S
H514 C524 0.930 . S
H515 C527 0.929 . S
H516 C530 0.930 . S
H517 C532 0.960 . S
H518 C532 0.960 . S
H519 C532 0.960 . S
C520 H512 0.929 . S
C520 C521 1.377 . S
C520 C522 1.384 . S
C521 C520 1.377 . S
C521 C527 1.390 . S
C522 H513 0.930 . S
C522 C520 1.384 . S
C522 C523 1.372 . S
C523 C522 1.372 . S
C523 C524 1.400 . S
C523 C528 1.490 . S
C524 H514 0.930 . S
C524 C523 1.400 . S
C524 C527 1.386 . S
H525 C541 0.930 . S
H526 C542 0.931 . S
C527 H515 0.929 . S
C527 C521 1.390 . S
C527 C524 1.386 . S
C528 C523 1.490 . S
C528 C530 1.395 . S
C528 C531 1.403 . S
H529 C535 0.930 . S
C530 H516 0.930 . S
C530 C528 1.395 . S
C530 C533 1.403 . S
C531 C528 1.403 . S
C531 C532 1.524 . S
C531 C535 1.400 . S
C532 H517 0.960 . S
C532 H518 0.960 . S
C532 H519 0.960 . S
C532 C531 1.524 . S
C533 C530 1.403 . S
C533 C534 1.392 . S
C533 C537 1.495 . S
C534 C533 1.392 . S
C534 C535 1.385 . S
C534 C536 1.478 . S
C535 H529 0.930 . S
C535 C531 1.400 . S
C535 C534 1.385 . S
C536 C534 1.478 . S
C536 C538 1.381 . S
C536 C542 1.383 . S
C537 C533 1.495 . S
C537 H543 0.959 . S
C537 H544 0.961 . S
C537 H545 0.960 . S
C538 C536 1.381 . S
C538 C539 1.394 . S
C538 H546 0.930 . S
C539 C538 1.394 . S
C539 C540 1.383 . S
C539 H547 0.929 . S
C540 C539 1.383 . S
C540 C541 1.377 . S
C541 H525 0.930 . S
C541 C540 1.377 . S
C541 C542 1.379 . S
C542 H526 0.931 . S
C542 C536 1.383 . S
C542 C541 1.379 . S
H543 C537 0.959 . S
H544 C537 0.961 . S
H545 C537 0.960 . S
H546 C538 0.930 . S
H547 C539 0.929 . S
H548 C556 0.929 . S
H549 C558 0.930 . S
H550 C560 0.930 . S
H551 C563 0.929 . S
H552 C566 0.930 . S
H553 C568 0.960 . S
H554 C568 0.960 . S
H555 C568 0.960 . S
C556 H548 0.929 . S
C556 C557 1.377 . S
C556 C558 1.384 . S
C557 C556 1.377 . S
C557 C563 1.390 . S
C558 H549 0.930 . S
C558 C556 1.384 . S
C558 C559 1.372 . S
C559 C558 1.372 . S
C559 C560 1.400 . S
C559 C564 1.490 . S
C560 H550 0.930 . S
C560 C559 1.400 . S
C560 C563 1.386 . S
H561 C577 0.930 . S
H562 C578 0.931 . S
C563 H551 0.929 . S
C563 C557 1.390 . S
C563 C560 1.386 . S
C564 C559 1.490 . S
C564 C566 1.395 . S
C564 C567 1.403 . S
H565 C571 0.930 . S
C566 H552 0.930 . S
C566 C564 1.395 . S
C566 C569 1.403 . S
C567 C564 1.403 . S
C567 C568 1.524 . S
C567 C571 1.400 . S
C568 H553 0.960 . S
C568 H554 0.960 . S
C568 H555 0.960 . S
C568 C567 1.524 . S
C569 C566 1.403 . S
C569 C570 1.392 . S
C569 C573 1.495 . S
C570 C569 1.392 . S
C570 C571 1.385 . S
C570 C572 1.478 . S
C571 H565 0.930 . S
C571 C567 1.400 . S
C571 C570 1.385 . S
C572 C570 1.478 . S
C572 C574 1.381 . S
C572 C578 1.383 . S
C573 C569 1.495 . S
C573 H579 0.959 . S
C573 H580 0.961 . S
C573 H581 0.960 . S
C574 C572 1.381 . S
C574 C575 1.394 . S
C574 H582 0.930 . S
C575 C574 1.394 . S
C575 C576 1.383 . S
C575 H583 0.929 . S
C576 C575 1.383 . S
C576 C577 1.377 . S
C577 H561 0.930 . S
C577 C576 1.377 . S
C577 C578 1.379 . S
C578 H562 0.931 . S
C578 C572 1.383 . S
C578 C577 1.379 . S
H579 C573 0.959 . S
H580 C573 0.961 . S
H581 C573 0.960 . S
H582 C574 0.930 . S
H583 C575 0.929 . S
H584 C592 0.929 . S
H585 C594 0.930 . S
H586 C596 0.930 . S
H587 C599 0.929 . S
H588 C602 0.930 . S
H589 C604 0.960 . S
H590 C604 0.960 . S
H591 C604 0.960 . S
C592 H584 0.929 . S
C592 C593 1.377 . S
C592 C594 1.384 . S
C593 C592 1.377 . S
C593 C599 1.390 . S
C594 H585 0.930 . S
C594 C592 1.384 . S
C594 C595 1.372 . S
C595 C594 1.372 . S
C595 C596 1.400 . S
C595 C600 1.490 . S
C596 H586 0.930 . S
C596 C595 1.400 . S
C596 C599 1.386 . S
H597 C613 0.930 . S
H598 C614 0.931 . S
C599 H587 0.929 . S
C599 C593 1.390 . S
C599 C596 1.386 . S
C600 C595 1.490 . S
C600 C602 1.395 . S
C600 C603 1.403 . S
H601 C607 0.930 . S
C602 H588 0.930 . S
C602 C600 1.395 . S
C602 C605 1.403 . S
C603 C600 1.403 . S
C603 C604 1.524 . S
C603 C607 1.400 . S
C604 H589 0.960 . S
C604 H590 0.960 . S
C604 H591 0.960 . S
C604 C603 1.524 . S
C605 C602 1.403 . S
C605 C606 1.392 . S
C605 C609 1.495 . S
C606 C605 1.392 . S
C606 C607 1.385 . S
C606 C608 1.478 . S
C607 H601 0.930 . S
C607 C603 1.400 . S
C607 C606 1.385 . S
C608 C606 1.478 . S
C608 C610 1.381 . S
C608 C614 1.383 . S
C609 C605 1.495 . S
C609 H615 0.959 . S
C609 H616 0.961 . S
C609 H617 0.960 . S
C610 C608 1.381 . S
C610 C611 1.394 . S
C610 H618 0.930 . S
C611 C610 1.394 . S
C611 C612 1.383 . S
C611 H619 0.929 . S
C612 C611 1.383 . S
C612 C613 1.377 . S
C613 H597 0.930 . S
C613 C612 1.377 . S
C613 C614 1.379 . S
C614 H598 0.931 . S
C614 C608 1.383 . S
C614 C613 1.379 . S
H615 C609 0.959 . S
H616 C609 0.961 . S
H617 C609 0.960 . S
H618 C610 0.930 . S
H619 C611 0.929 . S
H620 C628 0.929 . S
H621 C630 0.930 . S
H622 C632 0.930 . S
H623 C635 0.929 . S
H624 C638 0.930 . S
H625 C640 0.960 . S
H626 C640 0.960 . S
H627 C640 0.960 . S
C628 H620 0.929 . S
C628 C629 1.377 . S
C628 C630 1.384 . S
C629 C628 1.377 . S
C629 C635 1.390 . S
C630 H621 0.930 . S
C630 C628 1.384 . S
C630 C631 1.372 . S
C631 C630 1.372 . S
C631 C632 1.400 . S
C631 C636 1.490 . S
C632 H622 0.930 . S
C632 C631 1.400 . S
C632 C635 1.386 . S
H633 C649 0.930 . S
H634 C650 0.931 . S
C635 H623 0.929 . S
C635 C629 1.390 . S
C635 C632 1.386 . S
C636 C631 1.490 . S
C636 C638 1.395 . S
C636 C639 1.403 . S
H637 C643 0.930 . S
C638 H624 0.930 . S
C638 C636 1.395 . S
C638 C641 1.403 . S
C639 C636 1.403 . S
C639 C640 1.524 . S
C639 C643 1.400 . S
C640 H625 0.960 . S
C640 H626 0.960 . S
C640 H627 0.960 . S
C640 C639 1.524 . S
C641 C638 1.403 . S
C641 C642 1.392 . S
C641 C645 1.495 . S
C642 C641 1.392 . S
C642 C643 1.385 . S
C642 C644 1.478 . S
C643 H637 0.930 . S
C643 C639 1.400 . S
C643 C642 1.385 . S
C644 C642 1.478 . S
C644 C646 1.381 . S
C644 C650 1.383 . S
C645 C641 1.495 . S
C645 H651 0.959 . S
C645 H652 0.961 . S
C645 H653 0.960 . S
C646 C644 1.381 . S
C646 C647 1.394 . S
C646 H654 0.930 . S
C647 C646 1.394 . S
C647 C648 1.383 . S
C647 H655 0.929 . S
C648 C647 1.383 . S
C648 C649 1.377 . S
C649 H633 0.930 . S
C649 C648 1.377 . S
C649 C650 1.379 . S
C650 H634 0.931 . S
C650 C644 1.383 . S
C650 C649 1.379 . S
H651 C645 0.959 . S
H652 C645 0.961 . S
H653 C645 0.960 . S
H654 C646 0.930 . S
H655 C647 0.929 . S
H656 C664 0.929 . S
H657 C666 0.930 . S
H658 C668 0.930 . S
H659 C671 0.929 . S
H660 C674 0.930 . S
H661 C676 0.960 . S
H662 C676 0.932 1_565 S
H663 C676 0.960 . S
C664 H656 0.929 . S
C664 C665 1.377 . S
C664 C666 1.384 . S
C665 C664 1.377 . S
C665 C671 1.390 . S
C666 H657 0.930 . S
C666 C664 1.384 . S
C666 C667 1.372 . S
C667 C666 1.372 . S
C667 C668 1.400 . S
C667 C672 1.490 1_565 S
C668 H658 0.930 . S
C668 C667 1.400 . S
C668 C671 1.386 . S
H669 C685 0.930 . S
H670 C686 0.931 . S
C671 H659 0.929 . S
C671 C665 1.390 . S
C671 C668 1.386 . S
C672 C667 1.490 1_545 S
C672 C674 1.395 . S
C672 C675 1.403 . S
H673 C679 0.930 . S
C674 H660 0.930 . S
C674 C672 1.395 . S
C674 C677 1.403 . S
C675 C672 1.403 . S
C675 C676 1.524 . S
C675 C679 1.400 . S
C676 H661 0.960 . S
C676 H662 0.932 1_545 S
C676 H663 0.960 . S
C676 C675 1.524 . S
C677 C674 1.403 . S
C677 C678 1.392 . S
C677 C681 1.495 . S
C678 C677 1.392 . S
C678 C679 1.385 . S
C678 C680 1.478 . S
C679 H673 0.930 . S
C679 C675 1.400 . S
C679 C678 1.385 . S
C680 C678 1.478 . S
C680 C682 1.381 . S
C680 C686 1.383 . S
C681 C677 1.495 . S
C681 H687 0.959 . S
C681 H688 0.961 . S
C681 H689 0.960 . S
C682 C680 1.381 . S
C682 C683 1.394 . S
C682 H690 0.930 . S
C683 C682 1.394 . S
C683 C684 1.383 . S
C683 H691 0.929 . S
C684 C683 1.383 . S
C684 C685 1.377 . S
C685 H669 0.930 . S
C685 C684 1.377 . S
C685 C686 1.379 . S
C686 H670 0.931 . S
C686 C680 1.383 . S
C686 C685 1.379 . S
H687 C681 0.959 . S
H688 C681 0.961 . S
H689 C681 0.960 . S
H690 C682 0.930 . S
H691 C683 0.929 . S
H692 C700 0.929 . S
H693 C702 0.930 . S
H694 C704 0.930 . S
H695 C707 0.929 . S
H696 C710 0.930 . S
H697 C712 0.960 . S
H698 C712 0.960 . S
H699 C712 0.960 . S
C700 H692 0.929 . S
C700 C701 1.377 . S
C700 C702 1.384 . S
C701 C700 1.377 . S
C701 C707 1.390 . S
C702 H693 0.930 . S
C702 C700 1.384 . S
C702 C703 1.372 . S
C703 C702 1.372 . S
C703 C704 1.400 . S
C703 C708 1.490 1_655 S
C704 H694 0.930 . S
C704 C703 1.400 . S
C704 C707 1.386 . S
H705 C721 0.930 . S
H706 C722 0.931 . S
C707 H695 0.929 . S
C707 C701 1.390 . S
C707 C704 1.386 . S
C708 C703 1.490 1_455 S
C708 C710 1.395 . S
C708 C711 1.403 . S
H709 C715 0.930 . S
C710 H696 0.930 . S
C710 C708 1.395 . S
C710 C713 1.403 . S
C711 C708 1.403 . S
C711 C712 1.524 . S
C711 C715 1.400 . S
C712 H697 0.960 . S
C712 H698 0.960 . S
C712 H699 0.960 . S
C712 C711 1.524 . S
C713 C710 1.403 . S
C713 C714 1.392 . S
C713 C717 1.495 . S
C714 C713 1.392 . S
C714 C715 1.385 . S
C714 C716 1.478 . S
C715 H709 0.930 . S
C715 C711 1.400 . S
C715 C714 1.385 . S
C716 C714 1.478 . S
C716 C718 1.381 . S
C716 C722 1.383 . S
C717 C713 1.495 . S
C717 H723 0.959 . S
C717 H724 0.961 . S
C717 H725 0.960 . S
C718 C716 1.381 . S
C718 C719 1.394 . S
C718 H726 0.930 . S
C719 C718 1.394 . S
C719 C720 1.383 . S
C719 H727 0.929 . S
C720 C719 1.383 . S
C720 C721 1.377 . S
C721 H705 0.930 . S
C721 C720 1.377 . S
C721 C722 1.379 . S
C722 H706 0.931 . S
C722 C716 1.383 . S
C722 C721 1.379 . S
H723 C717 0.959 . S
H724 C717 0.961 . S
H725 C717 0.960 . S
H726 C718 0.930 . S
H727 C719 0.929 . S
H728 C736 0.929 . S
H729 C738 0.930 . S
H730 C740 0.930 . S
H731 C743 0.929 . S
H732 C746 0.930 . S
H733 C748 0.960 . S
H734 C748 0.960 . S
H735 C748 0.960 . S
C736 H728 0.929 . S
C736 C737 1.377 . S
C736 C738 1.384 . S
C737 C736 1.377 . S
C737 C743 1.390 . S
C738 H729 0.930 . S
C738 C736 1.384 . S
C738 C739 1.372 . S
C739 C738 1.372 . S
C739 C740 1.400 . S
C739 C744 1.490 . S
C740 H730 0.930 . S
C740 C739 1.400 . S
C740 C743 1.386 . S
H741 C757 0.930 . S
H742 C758 0.931 . S
C743 H731 0.929 . S
C743 C737 1.390 . S
C743 C740 1.386 . S
C744 C739 1.490 . S
C744 C746 1.395 . S
C744 C747 1.403 . S
H745 C751 0.968 . S
C746 H732 0.930 . S
C746 C744 1.395 . S
C746 C749 1.403 . S
C747 C744 1.403 . S
C747 C748 1.524 . S
C747 C751 1.400 . S
C748 H733 0.960 . S
C748 H734 0.960 . S
C748 H735 0.960 . S
C748 C747 1.524 . S
C749 C746 1.403 . S
C749 C750 1.392 . S
C749 C753 1.495 . S
C750 C749 1.392 . S
C750 C751 1.385 . S
C750 C752 1.478 1_565 S
C751 H745 0.968 . S
C751 C747 1.400 . S
C751 C750 1.385 . S
C752 C750 1.478 1_545 S
C752 C754 1.381 . S
C752 C758 1.383 . S
C753 C749 1.495 . S
C753 H759 0.959 . S
C753 H760 0.961 . S
C753 H761 0.960 . S
C754 C752 1.381 . S
C754 C755 1.394 . S
C754 H762 0.930 . S
C755 C754 1.394 . S
C755 C756 1.383 . S
C755 H763 0.929 . S
C756 C755 1.383 . S
C756 C757 1.377 . S
C757 H741 0.930 . S
C757 C756 1.377 . S
C757 C758 1.379 . S
C758 H742 0.931 . S
C758 C752 1.383 . S
C758 C757 1.379 . S
H759 C753 0.959 . S
H760 C753 0.961 . S
H761 C753 0.960 . S
H762 C754 0.930 . S
H763 C755 0.929 . S
H764 C772 0.929 . S
H765 C774 0.930 . S
H766 C776 0.930 . S
H767 C779 0.929 . S
H768 C782 0.930 . S
H769 C784 0.960 . S
H770 C784 0.960 . S
H771 C784 0.960 . S
C772 H764 0.929 . S
C772 C773 1.377 . S
C772 C774 1.384 . S
C773 C772 1.377 . S
C773 C779 1.390 . S
C774 H765 0.930 . S
C774 C772 1.384 . S
C774 C775 1.372 . S
C775 C774 1.372 . S
C775 C776 1.400 . S
C775 C780 1.490 . S
C776 H766 0.930 . S
C776 C775 1.400 . S
C776 C779 1.386 . S
H777 C793 0.930 . S
H778 C794 0.931 . S
C779 H767 0.929 . S
C779 C773 1.390 . S
C779 C776 1.386 . S
C780 C775 1.490 . S
C780 C782 1.395 . S
C780 C783 1.403 . S
H781 C787 0.930 . S
C782 H768 0.930 . S
C782 C780 1.395 . S
C782 C785 1.403 . S
C783 C780 1.403 . S
C783 C784 1.524 . S
C783 C787 1.400 . S
C784 H769 0.960 . S
C784 H770 0.960 . S
C784 H771 0.960 . S
C784 C783 1.524 . S
C785 C782 1.403 . S
C785 C786 1.392 . S
C785 C789 1.495 1_655 S
C786 C785 1.392 . S
C786 C787 1.385 . S
C786 C788 1.478 1_655 S
C787 H781 0.930 . S
C787 C783 1.400 . S
C787 C786 1.385 . S
C788 C786 1.478 1_455 S
C788 C790 1.381 . S
C788 C794 1.383 . S
C789 C785 1.495 1_455 S
C789 H795 0.939 1_455 S
C789 H796 0.961 . S
C789 H797 0.960 . S
C790 C788 1.381 . S
C790 C791 1.394 . S
C790 H798 0.930 . S
C791 C790 1.394 . S
C791 C792 1.383 . S
C791 H799 0.929 . S
C792 C791 1.383 . S
C792 C793 1.377 . S
C793 H777 0.930 . S
C793 C792 1.377 . S
C793 C794 1.379 . S
C794 H778 0.931 . S
C794 C788 1.383 . S
C794 C793 1.379 . S
H795 C789 0.939 1_655 S
H796 C789 0.961 . S
H797 C789 0.960 . S
H798 C790 0.930 . S
H799 C791 0.929 . S
H800 C808 0.929 . S
H801 C810 0.930 . S
H802 C812 0.930 . S
H803 C815 0.929 . S
H804 C818 0.930 . S
H805 C820 0.960 . S
H806 C820 0.960 . S
H807 C820 0.960 . S
C808 H800 0.929 . S
C808 C809 1.377 . S
C808 C810 1.384 . S
C809 C808 1.377 . S
C809 C815 1.390 . S
C810 H801 0.930 . S
C810 C808 1.384 . S
C810 C811 1.372 . S
C811 C810 1.372 . S
C811 C812 1.400 . S
C811 C816 1.490 . S
C812 H802 0.930 . S
C812 C811 1.400 . S
C812 C815 1.386 . S
H813 C829 0.930 . S
H814 C830 0.931 . S
C815 H803 0.929 . S
C815 C809 1.390 . S
C815 C812 1.386 . S
C816 C811 1.490 . S
C816 C818 1.395 . S
C816 C819 1.403 . S
H817 C823 0.930 . S
C818 H804 0.930 . S
C818 C816 1.395 . S
C818 C821 1.403 . S
C819 C816 1.403 . S
C819 C820 1.524 . S
C819 C823 1.400 . S
C820 H805 0.960 . S
C820 H806 0.960 . S
C820 H807 0.960 . S
C820 C819 1.524 . S
C821 C818 1.403 . S
C821 C822 1.392 . S
C821 C825 1.495 . S
C822 C821 1.392 . S
C822 C823 1.385 . S
C822 C824 1.478 . S
C823 H817 0.930 . S
C823 C819 1.400 . S
C823 C822 1.385 . S
C824 C822 1.478 . S
C824 C826 1.381 . S
C824 C830 1.383 . S
C825 C821 1.495 . S
C825 H831 0.959 . S
C825 H832 0.961 . S
C825 H833 0.960 . S
C826 C824 1.381 . S
C826 C827 1.394 . S
C826 H834 0.930 . S
C827 C826 1.394 . S
C827 C828 1.383 . S
C827 H835 0.929 . S
C828 C827 1.383 . S
C828 C829 1.377 . S
C829 H813 0.930 . S
C829 C828 1.377 . S
C829 C830 1.379 . S
C830 H814 0.931 . S
C830 C824 1.383 . S
C830 C829 1.379 . S
H831 C825 0.959 . S
H832 C825 0.961 . S
H833 C825 0.960 . S
H834 C826 0.930 . S
H835 C827 0.929 . S
H836 C844 0.929 . S
H837 C846 0.930 . S
H838 C848 0.930 . S
H839 C851 0.929 . S
H840 C854 0.930 . S
H841 C856 0.960 . S
H842 C856 0.960 . S
H843 C856 0.960 . S
C844 H836 0.929 . S
C844 C845 1.377 . S
C844 C846 1.384 . S
C845 C844 1.377 . S
C845 C851 1.390 . S
C846 H837 0.930 . S
C846 C844 1.384 . S
C846 C847 1.372 . S
C847 C846 1.372 . S
C847 C848 1.400 . S
C847 C852 1.490 . S
C848 H838 0.930 . S
C848 C847 1.400 . S
C848 C851 1.386 . S
H849 C865 0.930 . S
H850 C866 0.931 . S
C851 H839 0.929 . S
C851 C845 1.390 . S
C851 C848 1.386 . S
C852 C847 1.490 . S
C852 C854 1.395 . S
C852 C855 1.403 . S
H853 C859 0.930 . S
C854 H840 0.930 . S
C854 C852 1.395 . S
C854 C857 1.403 . S
C855 C852 1.403 . S
C855 C856 1.524 . S
C855 C859 1.400 . S
C856 H841 0.960 . S
C856 H842 0.960 . S
C856 H843 0.960 . S
C856 C855 1.524 . S
C857 C854 1.403 . S
C857 C858 1.392 . S
C857 C861 1.495 . S
C858 C857 1.392 . S
C858 C859 1.385 . S
C858 C860 1.478 . S
C859 H853 0.930 . S
C859 C855 1.400 . S
C859 C858 1.385 . S
C860 C858 1.478 . S
C860 C862 1.381 . S
C860 C866 1.383 . S
C861 C857 1.495 . S
C861 H867 0.959 . S
C861 H868 0.961 . S
C861 H869 0.960 . S
C862 C860 1.381 . S
C862 C863 1.394 . S
C862 H870 0.930 . S
C863 C862 1.394 . S
C863 C864 1.383 . S
C863 H871 0.929 . S
C864 C863 1.383 . S
C864 C865 1.377 . S
C865 H849 0.930 . S
C865 C864 1.377 . S
C865 C866 1.379 . S
C866 H850 0.931 . S
C866 C860 1.383 . S
C866 C865 1.379 . S
H867 C861 0.959 . S
H868 C861 0.961 . S
H869 C861 0.960 . S
H870 C862 0.930 . S
H871 C863 0.929 . S
H872 C880 0.929 . S
H873 C882 0.930 . S
H874 C884 0.930 . S
H875 C887 0.929 . S
H876 C890 0.930 . S
H877 C892 0.960 . S
H878 C892 0.960 . S
H879 C892 0.960 . S
C880 H872 0.929 . S
C880 C881 1.377 . S
C880 C882 1.384 . S
C881 C880 1.377 . S
C881 C887 1.390 . S
C882 H873 0.930 . S
C882 C880 1.384 . S
C882 C883 1.372 . S
C883 C882 1.372 . S
C883 C884 1.400 . S
C883 C888 1.490 . S
C884 H874 0.930 . S
C884 C883 1.400 . S
C884 C887 1.386 . S
H885 C901 0.930 . S
H886 C902 0.931 . S
C887 H875 0.929 . S
C887 C881 1.390 . S
C887 C884 1.386 . S
C888 C883 1.490 . S
C888 C890 1.395 . S
C888 C891 1.403 . S
H889 C895 0.930 . S
C890 H876 0.930 . S
C890 C888 1.395 . S
C890 C893 1.403 . S
C891 C888 1.403 . S
C891 C892 1.524 . S
C891 C895 1.400 . S
C892 H877 0.960 . S
C892 H878 0.960 . S
C892 H879 0.960 . S
C892 C891 1.524 . S
C893 C890 1.403 . S
C893 C894 1.392 . S
C893 C897 1.495 . S
C894 C893 1.392 . S
C894 C895 1.385 . S
C894 C896 1.478 . S
C895 H889 0.930 . S
C895 C891 1.400 . S
C895 C894 1.385 . S
C896 C894 1.478 . S
C896 C898 1.381 . S
C896 C902 1.383 . S
C897 C893 1.495 . S
C897 H903 0.959 . S
C897 H904 0.961 . S
C897 H905 0.960 . S
C898 C896 1.381 . S
C898 C899 1.394 . S
C898 H906 0.930 . S
C899 C898 1.394 . S
C899 C900 1.383 . S
C899 H907 0.929 . S
C900 C899 1.383 . S
C900 C901 1.377 . S
C901 H885 0.930 . S
C901 C900 1.377 . S
C901 C902 1.379 . S
C902 H886 0.931 . S
C902 C896 1.383 . S
C902 C901 1.379 . S
H903 C897 0.959 . S
H904 C897 0.961 . S
H905 C897 0.960 . S
H906 C898 0.930 . S
H907 C899 0.929 . S
H908 C916 0.929 . S
H909 C918 0.930 . S
H910 C920 0.930 . S
H911 C923 0.929 . S
H912 C926 0.930 . S
H913 C928 0.960 . S
H914 C928 0.960 . S
H915 C928 0.960 . S
C916 H908 0.929 . S
C916 C917 1.377 . S
C916 C918 1.384 . S
C917 C916 1.377 . S
C917 C923 1.390 . S
C918 H909 0.930 . S
C918 C916 1.384 . S
C918 C919 1.372 . S
C919 C918 1.372 . S
C919 C920 1.400 . S
C919 C924 1.490 . S
C920 H910 0.930 . S
C920 C919 1.400 . S
C920 C923 1.386 . S
H921 C937 0.930 . S
H922 C938 0.931 . S
C923 H911 0.929 . S
C923 C917 1.390 . S
C923 C920 1.386 . S
C924 C919 1.490 . S
C924 C926 1.395 . S
C924 C927 1.403 . S
H925 C931 0.930 . S
C926 H912 0.930 . S
C926 C924 1.395 . S
C926 C929 1.403 . S
C927 C924 1.403 . S
C927 C928 1.524 . S
C927 C931 1.400 . S
C928 H913 0.960 . S
C928 H914 0.960 . S
C928 H915 0.960 . S
C928 C927 1.524 . S
C929 C926 1.403 . S
C929 C930 1.392 . S
C929 C933 1.495 . S
C930 C929 1.392 . S
C930 C931 1.385 . S
C930 C932 1.478 . S
C931 H925 0.930 . S
C931 C927 1.400 . S
C931 C930 1.385 . S
C932 C930 1.478 . S
C932 C934 1.381 . S
C932 C938 1.383 . S
C933 C929 1.495 . S
C933 H939 0.959 . S
C933 H940 0.961 . S
C933 H941 0.960 . S
C934 C932 1.381 . S
C934 C935 1.394 . S
C934 H942 0.930 . S
C935 C934 1.394 . S
C935 C936 1.383 . S
C935 H943 0.929 . S
C936 C935 1.383 . S
C936 C937 1.377 . S
C937 H921 0.930 . S
C937 C936 1.377 . S
C937 C938 1.379 . S
C938 H922 0.931 . S
C938 C932 1.383 . S
C938 C937 1.379 . S
H939 C933 0.959 . S
H940 C933 0.961 . S
H941 C933 0.960 . S
H942 C934 0.930 . S
H943 C935 0.929 . S
H944 C952 0.929 . S
H945 C954 0.930 . S
H946 C956 0.930 . S
H947 C959 0.929 . S
H948 C962 0.930 . S
H949 C964 0.960 . S
H950 C964 0.960 . S
H951 C964 0.960 . S
C952 H944 0.929 . S
C952 C953 1.377 . S
C952 C954 1.384 . S
C953 C952 1.377 . S
C953 C959 1.390 . S
C954 H945 0.930 . S
C954 C952 1.384 . S
C954 C955 1.372 . S
C955 C954 1.372 . S
C955 C956 1.400 . S
C955 C960 1.490 . S
C956 H946 0.930 . S
C956 C955 1.400 . S
C956 C959 1.386 . S
H957 C973 0.930 . S
H958 C974 0.931 . S
C959 H947 0.929 . S
C959 C953 1.390 . S
C959 C956 1.386 . S
C960 C955 1.490 . S
C960 C962 1.395 . S
C960 C963 1.403 . S
H961 C967 0.930 . S
C962 H948 0.930 . S
C962 C960 1.395 . S
C962 C965 1.403 . S
C963 C960 1.403 . S
C963 C964 1.524 . S
C963 C967 1.400 . S
C964 H949 0.960 . S
C964 H950 0.960 . S
C964 H951 0.960 . S
C964 C963 1.524 . S
C965 C962 1.403 . S
C965 C966 1.392 . S
C965 C969 1.495 . S
C966 C965 1.392 . S
C966 C967 1.385 . S
C966 C968 1.478 . S
C967 H961 0.930 . S
C967 C963 1.400 . S
C967 C966 1.385 . S
C968 C966 1.478 . S
C968 C970 1.381 . S
C968 C974 1.383 . S
C969 C965 1.495 . S
C969 H975 0.959 . S
C969 H976 0.961 . S
C969 H977 0.960 . S
C970 C968 1.381 . S
C970 C971 1.394 . S
C970 H978 0.930 . S
C971 C970 1.394 . S
C971 C972 1.383 . S
C971 H979 0.929 . S
C972 C971 1.383 . S
C972 C973 1.377 . S
C973 H957 0.930 . S
C973 C972 1.377 . S
C973 C974 1.379 . S
C974 H958 0.931 . S
C974 C968 1.383 . S
C974 C973 1.379 . S
H975 C969 0.959 . S
H976 C969 0.961 . S
H977 C969 0.960 . S
H978 C970 0.930 . S
H979 C971 0.929 . S
H980 C988 0.929 . S
H981 C990 0.930 . S
H982 C992 0.930 . S
H983 C995 0.929 . S
H984 C998 0.930 . S
H985 C1000 0.960 . S
H986 C1000 0.960 . S
H987 C1000 0.960 . S
C988 H980 0.929 . S
C988 C989 1.377 . S
C988 C990 1.384 . S
C989 C988 1.377 . S
C989 C995 1.390 . S
C990 H981 0.930 . S
C990 C988 1.384 . S
C990 C991 1.372 . S
C991 C990 1.372 . S
C991 C992 1.400 . S
C991 C996 1.490 . S
C992 H982 0.930 . S
C992 C991 1.400 . S
C992 C995 1.386 . S
H993 C1009 0.930 . S
H994 C1010 0.931 . S
C995 H983 0.929 . S
C995 C989 1.390 . S
C995 C992 1.386 . S
C996 C991 1.490 . S
C996 C998 1.395 . S
C996 C999 1.403 . S
H997 C1003 0.930 . S
C998 H984 0.930 . S
C998 C996 1.395 . S
C998 C1001 1.403 . S
C999 C996 1.403 . S
C999 C1000 1.524 . S
C999 C1003 1.400 . S
C1000 H985 0.960 . S
C1000 H986 0.960 . S
C1000 H987 0.960 . S
C1000 C999 1.524 . S
C1001 C998 1.403 . S
C1001 C1002 1.392 . S
C1001 C1005 1.495 . S
C1002 C1001 1.392 . S
C1002 C1003 1.385 . S
C1002 C1004 1.478 . S
C1003 H997 0.930 . S
C1003 C999 1.400 . S
C1003 C1002 1.385 . S
C1004 C1002 1.478 . S
C1004 C1006 1.381 . S
C1004 C1010 1.383 . S
C1005 C1001 1.495 . S
C1005 H1011 0.959 . S
C1005 H1012 0.961 . S
C1005 H1013 0.960 . S
C1006 C1004 1.381 . S
C1006 C1007 1.394 . S
C1006 H1014 0.930 . S
C1007 C1006 1.394 . S
C1007 C1008 1.383 . S
C1007 H1015 0.929 . S
C1008 C1007 1.383 . S
C1008 C1009 1.377 . S
C1009 H993 0.930 . S
C1009 C1008 1.377 . S
C1009 C1010 1.379 . S
C1010 H994 0.931 . S
C1010 C1004 1.383 . S
C1010 C1009 1.379 . S
H1011 C1005 0.959 . S
H1012 C1005 0.961 . S
H1013 C1005 0.960 . S
H1014 C1006 0.930 . S
H1015 C1007 0.929 . S
H1016 C1024 0.929 . S
H1017 C1026 0.930 . S
H1018 C1028 0.930 . S
H1019 C1031 0.929 . S
H1020 C1034 0.930 . S
H1021 C1036 0.960 . S
H1022 C1036 0.960 . S
H1023 C1036 0.960 . S
C1024 H1016 0.929 . S
C1024 C1025 1.377 . S
C1024 C1026 1.384 . S
C1025 C1024 1.377 . S
C1025 C1031 1.390 . S
C1026 H1017 0.930 . S
C1026 C1024 1.384 . S
C1026 C1027 1.372 . S
C1027 C1026 1.372 . S
C1027 C1028 1.400 . S
C1027 C1032 1.490 . S
C1028 H1018 0.930 . S
C1028 C1027 1.400 . S
C1028 C1031 1.386 . S
H1029 C1045 0.930 . S
H1030 C1046 0.931 . S
C1031 H1019 0.929 . S
C1031 C1025 1.390 . S
C1031 C1028 1.386 . S
C1032 C1027 1.490 . S
C1032 C1034 1.395 . S
C1032 C1035 1.403 . S
H1033 C1039 0.930 . S
C1034 H1020 0.930 . S
C1034 C1032 1.395 . S
C1034 C1037 1.403 . S
C1035 C1032 1.403 . S
C1035 C1036 1.524 . S
C1035 C1039 1.400 . S
C1036 H1021 0.960 . S
C1036 H1022 0.960 . S
C1036 H1023 0.960 . S
C1036 C1035 1.524 . S
C1037 C1034 1.403 . S
C1037 C1038 1.392 . S
C1037 C1041 1.495 . S
C1038 C1037 1.392 . S
C1038 C1039 1.385 . S
C1038 C1040 1.478 . S
C1039 H1033 0.930 . S
C1039 C1035 1.400 . S
C1039 C1038 1.385 . S
C1040 C1038 1.478 . S
C1040 C1042 1.381 . S
C1040 C1046 1.383 . S
C1041 C1037 1.495 . S
C1041 H1047 0.959 . S
C1041 H1048 0.961 . S
C1041 H1049 0.960 . S
C1042 C1040 1.381 . S
C1042 C1043 1.394 . S
C1042 H1050 0.930 . S
C1043 C1042 1.394 . S
C1043 C1044 1.383 . S
C1043 H1051 0.929 . S
C1044 C1043 1.383 . S
C1044 C1045 1.377 . S
C1045 H1029 0.930 . S
C1045 C1044 1.377 . S
C1045 C1046 1.379 . S
C1046 H1030 0.931 . S
C1046 C1040 1.383 . S
C1046 C1045 1.379 . S
H1047 C1041 0.959 . S
H1048 C1041 0.961 . S
H1049 C1041 0.960 . S
H1050 C1042 0.930 . S
H1051 C1043 0.929 . S
H1052 C1060 0.929 . S
H1053 C1062 0.930 . S
H1054 C1064 0.930 . S
H1055 C1067 0.929 . S
H1056 C1070 0.930 . S
H1057 C1072 0.960 . S
H1058 C1072 0.960 . S
H1059 C1072 0.960 . S
C1060 H1052 0.929 . S
C1060 C1061 1.377 . S
C1060 C1062 1.384 . S
C1061 C1060 1.377 . S
C1061 C1067 1.390 . S
C1062 H1053 0.930 . S
C1062 C1060 1.384 . S
C1062 C1063 1.372 . S
C1063 C1062 1.372 . S
C1063 C1064 1.400 . S
C1063 C1068 1.490 . S
C1064 H1054 0.930 . S
C1064 C1063 1.400 . S
C1064 C1067 1.386 . S
H1065 C1081 0.930 . S
H1066 C1082 0.931 . S
C1067 H1055 0.929 . S
C1067 C1061 1.390 . S
C1067 C1064 1.386 . S
C1068 C1063 1.490 . S
C1068 C1070 1.395 . S
C1068 C1071 1.403 . S
H1069 C1075 0.930 . S
C1070 H1056 0.930 . S
C1070 C1068 1.395 . S
C1070 C1073 1.403 . S
C1071 C1068 1.403 . S
C1071 C1072 1.524 . S
C1071 C1075 1.400 . S
C1072 H1057 0.960 . S
C1072 H1058 0.960 . S
C1072 H1059 0.960 . S
C1072 C1071 1.524 . S
C1073 C1070 1.403 . S
C1073 C1074 1.392 . S
C1073 C1077 1.495 . S
C1074 C1073 1.392 . S
C1074 C1075 1.385 . S
C1074 C1076 1.478 . S
C1075 H1069 0.930 . S
C1075 C1071 1.400 . S
C1075 C1074 1.385 . S
C1076 C1074 1.478 . S
C1076 C1078 1.381 . S
C1076 C1082 1.383 . S
C1077 C1073 1.495 . S
C1077 H1083 0.959 . S
C1077 H1084 0.961 . S
C1077 H1085 0.960 . S
C1078 C1076 1.381 . S
C1078 C1079 1.394 . S
C1078 H1086 0.930 . S
C1079 C1078 1.394 . S
C1079 C1080 1.383 . S
C1079 H1087 0.929 . S
C1080 C1079 1.383 . S
C1080 C1081 1.377 . S
C1081 H1065 0.930 . S
C1081 C1080 1.377 . S
C1081 C1082 1.379 . S
C1082 H1066 0.931 . S
C1082 C1076 1.383 . S
C1082 C1081 1.379 . S
H1083 C1077 0.959 . S
H1084 C1077 0.961 . S
H1085 C1077 0.960 . S
H1086 C1078 0.930 . S
H1087 C1079 0.929 . S
H1088 C1096 0.929 . S
H1089 C1098 0.930 . S
H1090 C1100 0.930 . S
H1091 C1103 0.929 . S
H1092 C1106 0.930 . S
H1093 C1108 0.960 . S
H1094 C1108 0.960 . S
H1095 C1108 0.960 . S
C1096 H1088 0.929 . S
C1096 C1097 1.377 . S
C1096 C1098 1.384 . S
C1097 C1096 1.377 . S
C1097 C1103 1.390 . S
C1098 H1089 0.930 . S
C1098 C1096 1.384 . S
C1098 C1099 1.372 . S
C1099 C1098 1.372 . S
C1099 C1100 1.400 . S
C1099 C1104 1.490 . S
C1100 H1090 0.930 . S
C1100 C1099 1.400 . S
C1100 C1103 1.386 . S
H1101 C1117 0.930 . S
H1102 C1118 0.931 . S
C1103 H1091 0.929 . S
C1103 C1097 1.390 . S
C1103 C1100 1.386 . S
C1104 C1099 1.490 . S
C1104 C1106 1.395 . S
C1104 C1107 1.403 . S
H1105 C1111 0.930 . S
C1106 H1092 0.930 . S
C1106 C1104 1.395 . S
C1106 C1109 1.403 . S
C1107 C1104 1.403 . S
C1107 C1108 1.524 . S
C1107 C1111 1.400 . S
C1108 H1093 0.960 . S
C1108 H1094 0.960 . S
C1108 H1095 0.960 . S
C1108 C1107 1.524 . S
C1109 C1106 1.403 . S
C1109 C1110 1.392 . S
C1109 C1113 1.495 . S
C1110 C1109 1.392 . S
C1110 C1111 1.385 . S
C1110 C1112 1.478 . S
C1111 H1105 0.930 . S
C1111 C1107 1.400 . S
C1111 C1110 1.385 . S
C1112 C1110 1.478 . S
C1112 C1114 1.381 . S
C1112 C1118 1.383 . S
C1113 C1109 1.495 . S
C1113 H1119 0.959 . S
C1113 H1120 0.961 . S
C1113 H1121 0.960 . S
C1114 C1112 1.381 . S
C1114 C1115 1.394 . S
C1114 H1122 0.930 . S
C1115 C1114 1.394 . S
C1115 C1116 1.383 1_556 S
C1115 H1123 0.929 . S
C1116 C1115 1.383 1_554 S
C1116 C1117 1.377 . S
C1117 H1101 0.930 . S
C1117 C1116 1.377 . S
C1117 C1118 1.379 1_554 S
C1118 H1102 0.931 . S
C1118 C1112 1.383 . S
C1118 C1117 1.379 1_556 S
H1119 C1113 0.959 . S
H1120 C1113 0.961 . S
H1121 C1113 0.960 . S
H1122 C1114 0.930 . S
H1123 C1115 0.929 . S
H1124 C1132 0.929 . S
H1125 C1134 0.930 . S
H1126 C1136 0.930 . S
H1127 C1139 0.929 . S
H1128 C1142 0.930 . S
H1129 C1144 0.960 . S
H1130 C1144 0.960 . S
H1131 C1144 0.960 . S
C1132 H1124 0.929 . S
C1132 C1133 1.377 . S
C1132 C1134 1.384 . S
C1133 C1132 1.377 . S
C1133 C1139 1.390 . S
C1134 H1125 0.930 . S
C1134 C1132 1.384 . S
C1134 C1135 1.372 . S
C1135 C1134 1.372 . S
C1135 C1136 1.400 . S
C1135 C1140 1.490 . S
C1136 H1126 0.930 . S
C1136 C1135 1.400 . S
C1136 C1139 1.386 . S
H1137 C1153 0.930 . S
H1138 C1154 0.931 . S
C1139 H1127 0.929 . S
C1139 C1133 1.390 . S
C1139 C1136 1.386 . S
C1140 C1135 1.490 . S
C1140 C1142 1.395 . S
C1140 C1143 1.403 . S
H1141 C1147 0.930 . S
C1142 H1128 0.930 . S
C1142 C1140 1.395 . S
C1142 C1145 1.403 . S
C1143 C1140 1.403 . S
C1143 C1144 1.524 . S
C1143 C1147 1.400 . S
C1144 H1129 0.960 . S
C1144 H1130 0.960 . S
C1144 H1131 0.960 . S
C1144 C1143 1.524 . S
C1145 C1142 1.403 . S
C1145 C1146 1.392 . S
C1145 C1149 1.495 . S
C1146 C1145 1.392 . S
C1146 C1147 1.385 . S
C1146 C1148 1.478 . S
C1147 H1141 0.930 . S
C1147 C1143 1.400 . S
C1147 C1146 1.385 . S
C1148 C1146 1.478 . S
C1148 C1150 1.381 . S
C1148 C1154 1.383 . S
C1149 C1145 1.495 . S
C1149 H1155 0.959 . S
C1149 H1156 0.961 . S
C1149 H1157 0.960 . S
C1150 C1148 1.381 . S
C1150 C1151 1.394 . S
C1150 H1158 0.930 . S
C1151 C1150 1.394 . S
C1151 C1152 1.383 1_554 S
C1151 H1159 0.929 . S
C1152 C1151 1.383 1_556 S
C1152 C1153 1.377 . S
C1153 H1137 0.930 . S
C1153 C1152 1.377 . S
C1153 C1154 1.379 1_556 S
C1154 H1138 0.931 . S
C1154 C1148 1.383 . S
C1154 C1153 1.379 1_554 S
H1155 C1149 0.959 . S
H1156 C1149 0.961 . S
H1157 C1149 0.960 . S
H1158 C1150 0.930 . S
H1159 C1151 0.929 . S
H1160 C1168 0.929 . S
H1161 C1170 0.930 . S
H1162 C1172 0.930 . S
H1163 C1175 0.929 . S
H1164 C1178 0.930 . S
H1165 C1180 0.960 . S
H1166 C1180 0.960 . S
H1167 C1180 0.960 . S
C1168 H1160 0.929 . S
C1168 C1169 1.377 1_556 S
C1168 C1170 1.384 . S
C1169 C1168 1.377 1_554 S
C1169 C1175 1.390 . S
C1170 H1161 0.930 . S
C1170 C1168 1.384 . S
C1170 C1171 1.372 . S
C1171 C1170 1.372 . S
C1171 C1172 1.400 . S
C1171 C1176 1.490 . S
C1172 H1162 0.930 . S
C1172 C1171 1.400 . S
C1172 C1175 1.386 1_556 S
H1173 C1189 0.930 . S
H1174 C1190 0.931 . S
C1175 H1163 0.929 . S
C1175 C1169 1.390 . S
C1175 C1172 1.386 1_554 S
C1176 C1171 1.490 . S
C1176 C1178 1.395 . S
C1176 C1179 1.403 . S
H1177 C1183 0.930 . S
C1178 H1164 0.930 . S
C1178 C1176 1.395 . S
C1178 C1181 1.403 . S
C1179 C1176 1.403 . S
C1179 C1180 1.524 . S
C1179 C1183 1.400 . S
C1180 H1165 0.960 . S
C1180 H1166 0.960 . S
C1180 H1167 0.960 . S
C1180 C1179 1.524 . S
C1181 C1178 1.403 . S
C1181 C1182 1.392 . S
C1181 C1185 1.495 . S
C1182 C1181 1.392 . S
C1182 C1183 1.385 . S
C1182 C1184 1.478 . S
C1183 H1177 0.930 . S
C1183 C1179 1.400 . S
C1183 C1182 1.385 . S
C1184 C1182 1.478 . S
C1184 C1186 1.381 . S
C1184 C1190 1.383 . S
C1185 C1181 1.495 . S
C1185 H1191 0.959 . S
C1185 H1192 0.961 . S
C1185 H1193 0.960 . S
C1186 C1184 1.381 . S
C1186 C1187 1.394 . S
C1186 H1194 0.930 . S
C1187 C1186 1.394 . S
C1187 C1188 1.383 . S
C1187 H1195 0.929 . S
C1188 C1187 1.383 . S
C1188 C1189 1.377 . S
C1189 H1173 0.930 . S
C1189 C1188 1.377 . S
C1189 C1190 1.379 . S
C1190 H1174 0.931 . S
C1190 C1184 1.383 . S
C1190 C1189 1.379 . S
H1191 C1185 0.959 . S
H1192 C1185 0.961 . S
H1193 C1185 0.960 . S
H1194 C1186 0.930 . S
H1195 C1187 0.929 . S
H1196 C1204 0.929 . S
H1197 C1206 0.930 . S
H1198 C1208 0.930 . S
H1199 C1211 0.929 . S
H1200 C1214 0.930 . S
H1201 C1216 0.960 . S
H1202 C1216 0.960 . S
H1203 C1216 0.960 . S
C1204 H1196 0.929 . S
C1204 C1205 1.377 . S
C1204 C1206 1.384 . S
C1205 C1204 1.377 . S
C1205 C1211 1.390 . S
C1206 H1197 0.930 . S
C1206 C1204 1.384 . S
C1206 C1207 1.372 . S
C1207 C1206 1.372 . S
C1207 C1208 1.400 . S
C1207 C1212 1.490 . S
C1208 H1198 0.930 . S
C1208 C1207 1.400 . S
C1208 C1211 1.386 . S
H1209 C1225 0.930 . S
H1210 C1226 0.931 . S
C1211 H1199 0.929 . S
C1211 C1205 1.390 . S
C1211 C1208 1.386 . S
C1212 C1207 1.490 . S
C1212 C1214 1.395 . S
C1212 C1215 1.403 . S
H1213 C1219 0.930 . S
C1214 H1200 0.930 . S
C1214 C1212 1.395 . S
C1214 C1217 1.403 . S
C1215 C1212 1.403 . S
C1215 C1216 1.524 . S
C1215 C1219 1.400 . S
C1216 H1201 0.960 . S
C1216 H1202 0.960 . S
C1216 H1203 0.960 . S
C1216 C1215 1.524 . S
C1217 C1214 1.403 . S
C1217 C1218 1.392 . S
C1217 C1221 1.495 . S
C1218 C1217 1.392 . S
C1218 C1219 1.385 . S
C1218 C1220 1.478 . S
C1219 H1213 0.930 . S
C1219 C1215 1.400 . S
C1219 C1218 1.385 . S
C1220 C1218 1.478 . S
C1220 C1222 1.381 . S
C1220 C1226 1.383 . S
C1221 C1217 1.495 . S
C1221 H1227 0.959 . S
C1221 H1228 0.961 . S
C1221 H1229 0.960 . S
C1222 C1220 1.381 . S
C1222 C1223 1.394 1_554 S
C1222 H1230 0.930 . S
C1223 C1222 1.394 1_556 S
C1223 C1224 1.383 . S
C1223 H1231 0.929 . S
C1224 C1223 1.383 . S
C1224 C1225 1.377 1_556 S
C1225 H1209 0.930 . S
C1225 C1224 1.377 1_554 S
C1225 C1226 1.379 . S
C1226 H1210 0.931 . S
C1226 C1220 1.383 . S
C1226 C1225 1.379 . S
H1227 C1221 0.959 . S
H1228 C1221 0.961 . S
H1229 C1221 0.960 . S
H1230 C1222 0.930 . S
H1231 C1223 0.929 . S
H1232 C1240 0.929 . S
H1233 C1242 0.930 . S
H1234 C1244 0.930 . S
H1235 C1247 0.929 . S
H1236 C1250 0.930 . S
H1237 C1252 0.960 . S
H1238 C1252 0.960 . S
H1239 C1252 0.960 . S
C1240 H1232 0.929 . S
C1240 C1241 1.377 . S
C1240 C1242 1.384 . S
C1241 C1240 1.377 . S
C1241 C1247 1.390 . S
C1242 H1233 0.930 . S
C1242 C1240 1.384 . S
C1242 C1243 1.372 . S
C1243 C1242 1.372 . S
C1243 C1244 1.400 . S
C1243 C1248 1.490 . S
C1244 H1234 0.930 . S
C1244 C1243 1.400 . S
C1244 C1247 1.386 . S
H1245 C1261 0.930 . S
H1246 C1262 0.931 . S
C1247 H1235 0.929 . S
C1247 C1241 1.390 . S
C1247 C1244 1.386 . S
C1248 C1243 1.490 . S
C1248 C1250 1.395 . S
C1248 C1251 1.403 . S
H1249 C1255 0.930 . S
C1250 H1236 0.930 . S
C1250 C1248 1.395 . S
C1250 C1253 1.403 . S
C1251 C1248 1.403 . S
C1251 C1252 1.524 . S
C1251 C1255 1.400 . S
C1252 H1237 0.960 . S
C1252 H1238 0.960 . S
C1252 H1239 0.960 . S
C1252 C1251 1.524 . S
C1253 C1250 1.403 . S
C1253 C1254 1.392 . S
C1253 C1257 1.495 . S
C1254 C1253 1.392 . S
C1254 C1255 1.385 . S
C1254 C1256 1.478 . S
C1255 H1249 0.930 . S
C1255 C1251 1.400 . S
C1255 C1254 1.385 . S
C1256 C1254 1.478 . S
C1256 C1258 1.381 . S
C1256 C1262 1.383 . S
C1257 C1253 1.495 . S
C1257 H1263 0.959 . S
C1257 H1264 0.961 . S
C1257 H1265 0.960 . S
C1258 C1256 1.381 . S
C1258 C1259 1.394 . S
C1258 H1266 0.930 . S
C1259 C1258 1.394 . S
C1259 C1260 1.383 . S
C1259 H1267 0.929 . S
C1260 C1259 1.383 . S
C1260 C1261 1.377 . S
C1261 H1245 0.930 . S
C1261 C1260 1.377 . S
C1261 C1262 1.379 . S
C1262 H1246 0.931 . S
C1262 C1256 1.383 . S
C1262 C1261 1.379 . S
H1263 C1257 0.959 . S
H1264 C1257 0.961 . S
H1265 C1257 0.960 . S
H1266 C1258 0.930 . S
H1267 C1259 0.929 . S
H1268 C1276 0.929 . S
H1269 C1278 0.930 . S
H1270 C1280 0.930 . S
H1271 C1283 0.929 . S
H1272 C1286 0.930 . S
H1273 C1288 0.960 . S
H1274 C1288 0.960 . S
H1275 C1288 0.960 . S
C1276 H1268 0.929 . S
C1276 C1277 1.377 . S
C1276 C1278 1.384 . S
C1277 C1276 1.377 . S
C1277 C1283 1.390 . S
C1278 H1269 0.930 . S
C1278 C1276 1.384 . S
C1278 C1279 1.372 . S
C1279 C1278 1.372 . S
C1279 C1280 1.400 . S
C1279 C1284 1.490 . S
C1280 H1270 0.930 . S
C1280 C1279 1.400 . S
C1280 C1283 1.386 . S
H1281 C1297 0.930 . S
H1282 C1298 0.931 . S
C1283 H1271 0.929 . S
C1283 C1277 1.390 . S
C1283 C1280 1.386 . S
C1284 C1279 1.490 . S
C1284 C1286 1.395 . S
C1284 C1287 1.403 . S
H1285 C1291 0.930 . S
C1286 H1272 0.930 . S
C1286 C1284 1.395 . S
C1286 C1289 1.403 . S
C1287 C1284 1.403 . S
C1287 C1288 1.524 . S
C1287 C1291 1.400 . S
C1288 H1273 0.960 . S
C1288 H1274 0.960 . S
C1288 H1275 0.960 . S
C1288 C1287 1.524 . S
C1289 C1286 1.403 . S
C1289 C1290 1.392 . S
C1289 C1293 1.495 . S
C1290 C1289 1.392 . S
C1290 C1291 1.385 . S
C1290 C1292 1.478 . S
C1291 H1285 0.930 . S
C1291 C1287 1.400 . S
C1291 C1290 1.385 . S
C1292 C1290 1.478 . S
C1292 C1294 1.381 . S
C1292 C1298 1.383 . S
C1293 C1289 1.495 . S
C1293 H1299 0.959 . S
C1293 H1300 0.961 . S
C1293 H1301 0.960 . S
C1294 C1292 1.381 . S
C1294 C1295 1.394 . S
C1294 H1302 0.930 . S
C1295 C1294 1.394 . S
C1295 C1296 1.383 . S
C1295 H1303 0.929 . S
C1296 C1295 1.383 . S
C1296 C1297 1.377 . S
C1297 H1281 0.930 . S
C1297 C1296 1.377 . S
C1297 C1298 1.379 . S
C1298 H1282 0.931 . S
C1298 C1292 1.383 . S
C1298 C1297 1.379 . S
H1299 C1293 0.959 . S
H1300 C1293 0.961 . S
H1301 C1293 0.960 . S
H1302 C1294 0.930 . S
H1303 C1295 0.929 . S
H1304 C1312 0.929 . S
H1305 C1314 0.930 . S
H1306 C1316 0.930 . S
H1307 C1319 0.929 . S
H1308 C1322 0.930 . S
H1309 C1324 0.960 . S
H1310 C1324 0.960 . S
H1311 C1324 0.960 . S
C1312 H1304 0.929 . S
C1312 C1313 1.377 . S
C1312 C1314 1.384 . S
C1313 C1312 1.377 . S
C1313 C1319 1.390 . S
C1314 H1305 0.930 . S
C1314 C1312 1.384 . S
C1314 C1315 1.372 . S
C1315 C1314 1.372 . S
C1315 C1316 1.400 . S
C1315 C1320 1.490 . S
C1316 H1306 0.930 . S
C1316 C1315 1.400 . S
C1316 C1319 1.386 . S
H1317 C1333 0.930 . S
H1318 C1334 0.931 . S
C1319 H1307 0.929 . S
C1319 C1313 1.390 . S
C1319 C1316 1.386 . S
C1320 C1315 1.490 . S
C1320 C1322 1.395 . S
C1320 C1323 1.403 . S
H1321 C1327 0.930 . S
C1322 H1308 0.930 . S
C1322 C1320 1.395 . S
C1322 C1325 1.403 . S
C1323 C1320 1.403 . S
C1323 C1324 1.524 . S
C1323 C1327 1.400 . S
C1324 H1309 0.960 . S
C1324 H1310 0.960 . S
C1324 H1311 0.960 . S
C1324 C1323 1.524 . S
C1325 C1322 1.403 . S
C1325 C1326 1.392 . S
C1325 C1329 1.495 . S
C1326 C1325 1.392 . S
C1326 C1327 1.385 . S
C1326 C1328 1.478 . S
C1327 H1321 0.930 . S
C1327 C1323 1.400 . S
C1327 C1326 1.385 . S
C1328 C1326 1.478 . S
C1328 C1330 1.381 . S
C1328 C1334 1.383 . S
C1329 C1325 1.495 . S
C1329 H1335 0.959 . S
C1329 H1336 0.961 . S
C1329 H1337 0.960 . S
C1330 C1328 1.381 . S
C1330 C1331 1.394 . S
C1330 H1338 0.930 . S
C1331 C1330 1.394 . S
C1331 C1332 1.383 . S
C1331 H1339 0.929 . S
C1332 C1331 1.383 . S
C1332 C1333 1.377 . S
C1333 H1317 0.930 . S
C1333 C1332 1.377 . S
C1333 C1334 1.379 . S
C1334 H1318 0.931 . S
C1334 C1328 1.383 . S
C1334 C1333 1.379 . S
H1335 C1329 0.959 . S
H1336 C1329 0.961 . S
H1337 C1329 0.960 . S
H1338 C1330 0.930 . S
H1339 C1331 0.929 . S
H1340 C1348 0.929 . S
H1341 C1350 0.930 . S
H1342 C1352 0.930 . S
H1343 C1355 0.929 . S
H1344 C1358 0.930 . S
H1345 C1360 0.960 . S
H1346 C1360 0.960 . S
H1347 C1360 0.960 . S
C1348 H1340 0.929 . S
C1348 C1349 1.377 . S
C1348 C1350 1.384 . S
C1349 C1348 1.377 . S
C1349 C1355 1.390 . S
C1350 H1341 0.930 . S
C1350 C1348 1.384 . S
C1350 C1351 1.372 . S
C1351 C1350 1.372 . S
C1351 C1352 1.400 . S
C1351 C1356 1.490 . S
C1352 H1342 0.930 . S
C1352 C1351 1.400 . S
C1352 C1355 1.386 . S
H1353 C1369 0.930 . S
H1354 C1370 0.931 . S
C1355 H1343 0.929 . S
C1355 C1349 1.390 . S
C1355 C1352 1.386 . S
C1356 C1351 1.490 . S
C1356 C1358 1.395 . S
C1356 C1359 1.403 . S
H1357 C1363 0.930 . S
C1358 H1344 0.930 . S
C1358 C1356 1.395 . S
C1358 C1361 1.403 . S
C1359 C1356 1.403 . S
C1359 C1360 1.524 . S
C1359 C1363 1.400 . S
C1360 H1345 0.960 . S
C1360 H1346 0.960 . S
C1360 H1347 0.960 . S
C1360 C1359 1.524 . S
C1361 C1358 1.403 . S
C1361 C1362 1.392 . S
C1361 C1365 1.495 . S
C1362 C1361 1.392 . S
C1362 C1363 1.385 . S
C1362 C1364 1.478 . S
C1363 H1357 0.930 . S
C1363 C1359 1.400 . S
C1363 C1362 1.385 . S
C1364 C1362 1.478 . S
C1364 C1366 1.381 . S
C1364 C1370 1.383 . S
C1365 C1361 1.495 . S
C1365 H1371 0.959 . S
C1365 H1372 0.961 . S
C1365 H1373 0.960 . S
C1366 C1364 1.381 . S
C1366 C1367 1.394 . S
C1366 H1374 0.930 . S
C1367 C1366 1.394 . S
C1367 C1368 1.383 . S
C1367 H1375 0.929 . S
C1368 C1367 1.383 . S
C1368 C1369 1.377 . S
C1369 H1353 0.930 . S
C1369 C1368 1.377 . S
C1369 C1370 1.379 . S
C1370 H1354 0.931 . S
C1370 C1364 1.383 . S
C1370 C1369 1.379 . S
H1371 C1365 0.959 . S
H1372 C1365 0.961 . S
H1373 C1365 0.960 . S
H1374 C1366 0.930 . S
H1375 C1367 0.929 . S
C233 C163 1.341 . S
C252 C7 1.366 . S
C269 C21 1.359 . S
C288 C121 1.363 . S
C305 C35 1.354 . S
C324 C135 1.341 . S
C341 C149 1.344 . S
C360 C49 1.352 . S
C377 C63 1.359 . S
C396 C79 1.322 . S
C413 C77 1.359 . S
C432 C93 1.359 . S
C449 C107 1.344 . S
C468 C91 1.344 . S
C485 C65 1.341 . S
C504 C105 1.337 . S
C521 C51 1.348 . S
C540 C119 1.336 . S
C557 C133 1.358 . S
C576 C9 1.356 . S
C593 C23 1.346 . S
C612 C147 1.338 . S
C629 C161 1.360 . S
C648 C37 1.362 . S
C665 C175 1.353 . S
C684 C191 1.358 . S
C701 C189 1.360 . S
C720 C205 1.364 . S
C737 C219 1.346 . S
C756 C203 1.364 . S
C773 C177 1.341 . S
C792 C217 1.337 . S
C809 C64 1.168 . S
C828 C8 1.123 . S
C845 C22 1.178 . S
C864 C78 1.200 . S
C881 C36 1.161 . S
C900 C92 1.150 . S
C917 C106 1.161 . S
C936 C50 1.121 . S
C953 C120 1.178 . S
C972 C176 1.146 . S
C989 C190 1.160 . S
C1008 C134 1.130 . S
C1025 C148 1.175 . S
C1044 C204 1.197 . S
C1061 C218 1.173 . S
C1080 C162 1.167 . S
C1097 C202 1.329 . S
C1116 C6 1.314 . S
C1133 C216 1.329 . S
C1152 C20 1.342 . S
C1169 C34 1.322 . S
C1188 C174 1.341 . S
C1205 C188 1.329 . S
C1224 C48 1.332 . S
C1241 C146 1.324 . S
C1260 C62 1.340 . S
C1277 C160 1.327 . S
C1296 C76 1.335 . S
C1313 C90 1.327 . S
C1332 C118 1.309 . S
C1349 C132 1.330 . S
C1368 C104 1.340 . S
