# Generated by pormake.
# Topology wje, (4)-cn, num edge types: 1
# Building blocks:
#     Node 0, Type 0, BuildingBlock: TATPOV_clean_sbu_0, # of connection points: 4
#     Node 1, Type 0, BuildingBlock: TATPOV_clean_sbu_0, # of connection points: 4
#     Node 2, Type 0, BuildingBlock: TATPOV_clean_sbu_0, # of connection points: 4
#     Node 3, Type 0, BuildingBlock: TATPOV_clean_sbu_0, # of connection points: 4
#     Node 4, Type 0, BuildingBlock: TATPOV_clean_sbu_0, # of connection points: 4
#     Node 5, Type 0, BuildingBlock: TATPOV_clean_sbu_0, # of connection points: 4
#     Node 6, Type 0, BuildingBlock: TATPOV_clean_sbu_0, # of connection points: 4
#     Node 7, Type 0, BuildingBlock: TATPOV_clean_sbu_0, # of connection points: 4
#     Node 8, Type 0, BuildingBlock: TATPOV_clean_sbu_0, # of connection points: 4
#     Node 9, Type 0, BuildingBlock: TATPOV_clean_sbu_0, # of connection points: 4
#     Node 10, Type 0, BuildingBlock: TATPOV_clean_sbu_0, # of connection points: 4
#     Node 11, Type 0, BuildingBlock: TATPOV_clean_sbu_0, # of connection points: 4
#     Edge 12, Type (0, 0), BuildingBlock: XUDNAN_clean_linker_2, # of connection points: 2
#     Edge 13, Type (0, 0), BuildingBlock: XUDNAN_clean_linker_2, # of connection points: 2
#     Edge 14, Type (0, 0), BuildingBlock: XUDNAN_clean_linker_2, # of connection points: 2
#     Edge 15, Type (0, 0), BuildingBlock: XUDNAN_clean_linker_2, # of connection points: 2
#     Edge 16, Type (0, 0), BuildingBlock: XUDNAN_clean_linker_2, # of connection points: 2
#     Edge 17, Type (0, 0), BuildingBlock: XUDNAN_clean_linker_2, # of connection points: 2
#     Edge 18, Type (0, 0), BuildingBlock: XUDNAN_clean_linker_2, # of connection points: 2
#     Edge 19, Type (0, 0), BuildingBlock: XUDNAN_clean_linker_2, # of connection points: 2
#     Edge 20, Type (0, 0), BuildingBlock: XUDNAN_clean_linker_2, # of connection points: 2
#     Edge 21, Type (0, 0), BuildingBlock: XUDNAN_clean_linker_2, # of connection points: 2
#     Edge 22, Type (0, 0), BuildingBlock: XUDNAN_clean_linker_2, # of connection points: 2
#     Edge 23, Type (0, 0), BuildingBlock: XUDNAN_clean_linker_2, # of connection points: 2
#     Edge 24, Type (0, 0), BuildingBlock: XUDNAN_clean_linker_2, # of connection points: 2
#     Edge 25, Type (0, 0), BuildingBlock: XUDNAN_clean_linker_2, # of connection points: 2
#     Edge 26, Type (0, 0), BuildingBlock: XUDNAN_clean_linker_2, # of connection points: 2
#     Edge 27, Type (0, 0), BuildingBlock: XUDNAN_clean_linker_2, # of connection points: 2
#     Edge 28, Type (0, 0), BuildingBlock: XUDNAN_clean_linker_2, # of connection points: 2
#     Edge 29, Type (0, 0), BuildingBlock: XUDNAN_clean_linker_2, # of connection points: 2
#     Edge 30, Type (0, 0), BuildingBlock: XUDNAN_clean_linker_2, # of connection points: 2
#     Edge 31, Type (0, 0), BuildingBlock: XUDNAN_clean_linker_2, # of connection points: 2
#     Edge 32, Type (0, 0), BuildingBlock: XUDNAN_clean_linker_2, # of connection points: 2
#     Edge 33, Type (0, 0), BuildingBlock: XUDNAN_clean_linker_2, # of connection points: 2
#     Edge 34, Type (0, 0), BuildingBlock: XUDNAN_clean_linker_2, # of connection points: 2
#     Edge 35, Type (0, 0), BuildingBlock: XUDNAN_clean_linker_2, # of connection points: 2
# Relax obj value: 0.110
# Max RMSD: 0.100
# Mean RMSD: 0.100
data_MOF--net-wje--node1-TATPOV_clean_sbu_0--edge1-XUDNAN_clean_linker_2
_symmetry_space_group_name_H-M    P1
_symmetry_Int_Tables_number       1
_symmetry_cell_setting            triclinic
loop_
_symmetry_equiv_pos_as_xyz
'x, y, z'
_cell_length_a     42.513733
_cell_length_b     42.51274
_cell_length_c     32.814632
_cell_angle_alpha  90.01574
_cell_angle_beta   90.032064
_cell_angle_gamma 119.9535
loop_
_atom_site_label
_atom_site_type_symbol
_atom_site_fract_x
_atom_site_fract_y
_atom_site_fract_z
_atom_type_partial_charge
Zn0 Zn 0.28937 0.92219 0.25998 0.0
Zn1 Zn 0.31505 0.99033 0.26784 0.0
O2 O 0.25873 0.96196 0.26815 0.0
O3 O 0.23917 0.90848 0.24071 0.0
O4 O 0.32892 0.04246 0.25418 0.0
O5 O 0.32699 0.92278 0.22281 0.0
O6 O 0.3503 0.98132 0.23214 0.0
C7 C 0.23245 0.93173 0.25607 0.0
C8 C 0.31442 0.95488 0.3435 0.0
O9 O 0.32644 0.9859 0.32677 0.0
O10 O 0.29815 0.9261 0.32218 0.0
C11 C 0.31381 0.04711 0.223 0.0
O12 O 0.28976 0.01842 0.20278 0.0
C13 C 0.35264 0.95483 0.21721 0.0
Zn14 Zn 0.39399 0.36002 0.64616 0.0
Zn15 Zn 0.33166 0.3497 0.62845 0.0
O16 O 0.32314 0.29641 0.63336 0.0
O17 O 0.37856 0.30825 0.64741 0.0
O18 O 0.28298 0.34316 0.60908 0.0
O19 O 0.42066 0.38979 0.59867 0.0
O20 O 0.36869 0.38731 0.58579 0.0
C21 C 0.3453 0.28545 0.64273 0.0
C22 C 0.36534 0.38173 0.71141 0.0
O23 O 0.33843 0.3707 0.68701 0.0
O24 O 0.39388 0.38186 0.7002 0.0
C25 C 0.27306 0.33601 0.57195 0.0
O26 O 0.29429 0.33186 0.54607 0.0
C27 C 0.40214 0.3993 0.57732 0.0
Zn28 Zn 0.07102 0.37884 0.94324 0.0
Zn29 Zn 0.01059 0.32098 0.92764 0.0
O30 O 0.05153 0.30801 0.92656 0.0
O31 O 0.10362 0.35884 0.93021 0.0
O32 O 0.96952 0.27691 0.89926 0.0
O33 O 0.06579 0.41273 0.9062 0.0
O34 O 0.01176 0.3651 0.89708 0.0
C35 C 0.0861 0.32459 0.92784 0.0
C36 C 0.02185 0.34557 0.01349 0.0
O37 O 1.00029 0.32128 0.98853 0.0
O38 O 0.05158 0.3721 1.00121 0.0
C39 C 0.93516 0.26272 0.90128 0.0
O40 O 0.92102 0.27626 0.92654 0.0
C41 C 0.0344 0.39872 0.89089 0.0
Zn42 Zn 0.64768 0.03803 0.31232 0.0
Zn43 Zn 0.64939 0.98149 0.28713 0.0
O44 O 0.70357 0.02356 0.28526 0.0
O45 O 0.69857 0.07195 0.29626 0.0
O46 O 0.64891 0.9392 0.25725 0.0
O47 O 0.60707 0.03263 0.27775 0.0
O48 O 0.60829 0.98471 0.25491 0.0
C49 C 0.71808 0.05797 0.28864 0.0
C50 C 0.63398 0.98536 0.37607 0.0
O51 O 0.63566 0.96617 0.34712 0.0
O52 O 0.63847 0.01661 0.36877 0.0
C53 C 0.671 0.9273 0.26002 0.0
O54 O 0.69797 0.94233 0.28616 0.0
C55 C 0.59445 0.00538 0.25444 0.0
Zn56 Zn 0.61451 0.69406 0.5918 0.0
Zn57 Zn 0.65919 0.66995 0.59295 0.0
O58 O 0.68719 0.72619 0.59461 0.0
O59 O 0.65027 0.74611 0.57819 0.0
O60 O 0.69694 0.65642 0.57491 0.0
O61 O 0.57787 0.65869 0.5526 0.0
O62 O 0.61532 0.63725 0.55517 0.0
C63 C 0.6817 0.75265 0.58827 0.0
C64 C 0.62316 0.6642 0.671 0.0
O65 O 0.644 0.65544 0.65224 0.0
O66 O 0.60905 0.68016 0.65203 0.0
C67 C 0.73115 0.67694 0.57851 0.0
O68 O 0.74375 0.70774 0.59839 0.0
C69 C 0.58581 0.63483 0.54239 0.0
Zn70 Zn 0.94669 0.61012 0.95947 0.0
Zn71 Zn 0.01116 0.66335 0.94055 0.0
O72 O 0.97579 0.68416 0.93884 0.0
O73 O 0.92104 0.63661 0.94386 0.0
O74 O 0.05792 0.70509 0.91734 0.0
O75 O 0.94813 0.57466 0.92108 0.0
O76 O 1.00306 0.61852 0.90565 0.0
C77 C 0.94139 0.67043 0.93943 0.0
C78 C 0.99829 0.63713 0.02731 0.0
O79 O 0.02106 0.65744 1.00041 0.0
O80 O 0.96553 0.61549 0.01754 0.0
C81 C 0.06864 0.73742 0.92911 0.0
O82 O 0.05018 0.74273 0.95774 0.0
C83 C 0.97726 0.5858 0.90126 0.0
Zn84 Zn 0.0587 0.68829 0.40561 0.0
Zn85 Zn 0.99102 0.6677 0.40014 0.0
O86 O 0.02165 0.72397 0.39944 0.0
O87 O 0.07704 0.74076 0.41931 0.0
O88 O 0.93996 0.65765 0.41373 0.0
O89 O 0.05572 0.6516 0.44585 0.0
O90 O 0.99756 0.63266 0.43933 0.0
C91 C 0.05379 0.74914 0.4077 0.0
C92 C 0.02355 0.66028 0.3245 0.0
O93 O 0.99363 0.65317 0.34132 0.0
O94 O 0.05273 0.67474 0.34519 0.0
C95 C 0.93729 0.67396 0.44501 0.0
O96 O 0.96698 0.69609 0.46512 0.0
C97 C 0.02312 0.62859 0.45407 0.0
Zn98 Zn 0.38952 0.04195 0.70063 0.0
Zn99 Zn 0.33087 0.98797 0.72841 0.0
O100 O 0.32254 0.0326 0.72838 0.0
O101 O 0.37618 0.07919 0.71427 0.0
O102 O 0.28657 0.95085 0.75997 0.0
O103 O 0.42344 0.03529 0.73595 0.0
O104 O 0.37416 0.98889 0.76089 0.0
C105 C 0.34315 0.06668 0.72317 0.0
C106 C 0.3476 0.98727 0.63947 0.0
O107 O 0.32682 0.96973 0.66919 0.0
O108 O 0.37534 0.01814 0.64548 0.0
C109 C 0.27228 0.91646 0.76117 0.0
O110 O 0.28581 0.9006 0.73851 0.0
C111 C 0.40876 0.0088 0.76028 0.0
Zn112 Zn 0.3237 0.3824 0.09401 0.0
Zn113 Zn 0.34738 0.33961 0.08148 0.0
O114 O 0.29134 0.31514 0.07722 0.0
O115 O 0.27175 0.34735 0.1085 0.0
O116 O 0.3575 0.29886 0.09647 0.0
O117 O 0.35957 0.41661 0.13448 0.0
O118 O 0.38298 0.38243 0.11904 0.0
C119 C 0.26496 0.31906 0.08893 0.0
C120 C 0.35069 0.37867 0.00918 0.0
O121 O 0.36117 0.35742 0.02337 0.0
O122 O 0.33538 0.39094 0.0325 0.0
C123 C 0.33461 0.26521 0.09215 0.0
O124 O 0.30394 0.25557 0.07308 0.0
C125 C 0.38534 0.41002 0.13744 0.0
Zn126 Zn 0.96618 0.3546 0.35819 0.0
Zn127 Zn 0.00603 0.33839 0.39712 0.0
O128 O 0.95965 0.28686 0.39374 0.0
O129 O 0.92993 0.30247 0.35115 0.0
O130 O 0.04243 0.33265 0.43276 0.0
O131 O 0.95781 0.38334 0.39942 0.0
O132 O 1.00277 0.38036 0.42866 0.0
C133 C 0.93258 0.278 0.37008 0.0
C134 C 0.02256 0.36605 0.30844 0.0
O135 O 0.02684 0.34923 0.33826 0.0
O136 O 1.00093 0.37819 0.31199 0.0
C137 C 0.06812 0.3276 0.42096 0.0
O138 O 0.07224 0.32423 0.38183 0.0
C139 C 0.98121 0.39317 0.42738 0.0
Zn140 Zn 0.62984 0.92522 0.75639 0.0
Zn141 Zn 0.67328 0.99257 0.74773 0.0
O142 O 0.69804 0.96117 0.74519 0.0
O143 O 0.66432 0.90799 0.77315 0.0
O144 O 0.71478 0.0431 0.76232 0.0
O145 O 0.59426 0.92694 0.79482 0.0
O146 O 0.62942 0.9852 0.7835 0.0
C147 C 0.69374 0.93056 0.75624 0.0
C148 C 0.63706 0.95872 0.67285 0.0
O149 O 0.65747 0.98971 0.68908 0.0
O150 O 0.62399 0.93008 0.69449 0.0
C151 C 0.74608 0.05454 0.74686 0.0
O152 O 0.75009 0.03468 0.7189 0.0
C153 C 0.60079 0.95916 0.79936 0.0
Zn154 Zn 0.66725 0.61474 0.02879 0.0
Zn155 Zn 0.66671 0.67292 0.05043 0.0
O156 O 0.72215 0.69034 0.04448 0.0
O157 O 0.72077 0.63884 0.03137 0.0
O158 O 0.6643 0.71645 0.07258 0.0
O159 O 0.63551 0.58332 0.07331 0.0
O160 O 0.63299 0.6318 0.09114 0.0
C161 C 0.73857 0.67288 0.0361 0.0
C162 C 0.6394 0.6408 0.96592 0.0
O163 O 0.64463 0.66481 0.9926 0.0
O164 O 0.64643 0.61587 0.97417 0.0
C165 C 0.68112 0.73367 0.10455 0.0
O166 O 0.70234 0.72415 0.12342 0.0
C167 C 0.62307 0.59832 0.09637 0.0
H168 H 0.27883 0.06491 0.16525 0.0
H169 H 0.37119 0.1128 0.2474 0.0
H170 H 0.38842 0.17379 0.22067 0.0
H171 H 0.32178 0.12432 0.08016 0.0
H172 H 0.28185 0.12631 0.066 0.0
H173 H 0.2773 0.08658 0.09112 0.0
H174 H 0.23833 0.09296 0.1477 0.0
H175 H 0.24252 0.13252 0.1226 0.0
H176 H 0.25604 0.13519 0.17514 0.0
H177 H 0.39561 0.22981 0.18396 0.0
H178 H 0.38974 0.27611 0.14444 0.0
H179 H 0.29178 0.19104 0.08764 0.0
C180 C 0.30274 0.08817 0.17766 0.0
C181 C 0.32375 0.08401 0.20837 0.0
C182 C 0.35464 0.11528 0.22393 0.0
C183 C 0.36471 0.15002 0.2088 0.0
C184 C 0.34351 0.15307 0.17827 0.0
C185 C 0.31298 0.12296 0.16316 0.0
C186 C 0.29412 0.13351 0.1313 0.0
C187 C 0.29376 0.11668 0.08968 0.0
C188 C 0.25547 0.12292 0.14502 0.0
C189 C 0.31874 0.17433 0.13077 0.0
C190 C 0.34725 0.18511 0.15781 0.0
C191 C 0.37336 0.22161 0.16273 0.0
C192 C 0.36986 0.24773 0.14001 0.0
C193 C 0.34031 0.23732 0.11285 0.0
C194 C 0.31475 0.2 0.10801 0.0
H195 H 0.24527 0.32254 0.49413 0.0
H196 H 0.22321 0.34459 0.61681 0.0
H197 H 0.16735 0.34273 0.5921 0.0
H198 H 0.21619 0.37696 0.44229 0.0
H199 H 0.19631 0.34617 0.39997 0.0
H200 H 0.23359 0.34764 0.42766 0.0
H201 H 0.19508 0.27857 0.4416 0.0
H202 H 0.15765 0.27688 0.41391 0.0
H203 H 0.15133 0.26064 0.46566 0.0
H204 H 0.11454 0.34019 0.55329 0.0
H205 H 0.06961 0.33773 0.50376 0.0
H206 H 0.12637 0.31756 0.40635 0.0
C207 C 0.22862 0.32675 0.51594 0.0
C208 C 0.23873 0.33367 0.55753 0.0
C209 C 0.21611 0.33917 0.58487 0.0
C210 C 0.18427 0.33814 0.5711 0.0
C211 C 0.17527 0.33148 0.52988 0.0
C212 C 0.19678 0.32581 0.50273 0.0
C213 C 0.18149 0.31996 0.45983 0.0
C214 C 0.2085 0.34945 0.43073 0.0
C215 C 0.17075 0.28174 0.44435 0.0
C216 C 0.1483 0.32375 0.46694 0.0
C217 C 0.14505 0.33015 0.50759 0.0
C218 C 0.11678 0.33505 0.52142 0.0
C219 C 0.09134 0.33359 0.49299 0.0
C220 C 0.0943 0.32742 0.45104 0.0
C221 C 0.12317 0.32225 0.43812 0.0
H222 H 0.74955 0.09984 0.80958 0.0
H223 H 0.81617 0.08394 0.7209 0.0
H224 H 0.87095 0.13557 0.75023 0.0
H225 H 0.80316 0.19933 0.81079 0.0
H226 H 0.79713 0.20242 0.86473 0.0
H227 H 0.76271 0.16504 0.83573 0.0
H228 H 0.76701 0.11971 0.88492 0.0
H229 H 0.80162 0.15691 0.91389 0.0
H230 H 0.81035 0.1227 0.89327 0.0
H231 H 0.91886 0.18641 0.79105 0.0
H232 H 0.95693 0.23579 0.83854 0.0
H233 H 0.86013 0.22055 0.90075 0.0
C234 C 0.77561 0.10749 0.79601 0.0
C235 C 0.77842 0.08769 0.76281 0.0
C236 C 0.81314 0.09855 0.74622 0.0
C237 C 0.84452 0.12788 0.76272 0.0
C238 C 0.84088 0.14637 0.79577 0.0
C239 C 0.80735 0.1369 0.81207 0.0
C240 C 0.81129 0.16115 0.84805 0.0
C241 C 0.79246 0.1833 0.83929 0.0
C242 C 0.7967 0.13877 0.88735 0.0
C243 C 0.85229 0.18537 0.84962 0.0
C244 C 0.86872 0.17625 0.81917 0.0
C245 C 0.9063 0.19399 0.81485 0.0
C246 C 0.92773 0.22199 0.84215 0.0
C247 C 0.91165 0.23226 0.87345 0.0
C248 C 0.87332 0.21355 0.8771 0.0
H249 H 0.71656 0.77937 0.16904 0.0
H250 H 0.63219 0.7537 0.07904 0.0
H251 H 0.62048 0.80009 0.10914 0.0
H252 H 0.67194 0.79431 0.25299 0.0
H253 H 0.71281 0.83165 0.27381 0.0
H254 H 0.71507 0.79682 0.24491 0.0
H255 H 0.76187 0.84552 0.19603 0.0
H256 H 0.75988 0.88053 0.22489 0.0
H257 H 0.75086 0.8765 0.1709 0.0
H258 H 0.61656 0.84795 0.15026 0.0
H259 H 0.62259 0.89587 0.19734 0.0
H260 H 0.71039 0.89165 0.26006 0.0
C261 C 0.6957 0.78357 0.15552 0.0
C262 C 0.67526 0.76276 0.12162 0.0
C263 C 0.64828 0.76926 0.1049 0.0
C264 C 0.64136 0.79554 0.12186 0.0
C265 C 0.66177 0.81532 0.15543 0.0
C266 C 0.68858 0.80987 0.17192 0.0
C267 C 0.70672 0.83495 0.20793 0.0
C268 C 0.70129 0.81312 0.24723 0.0
C269 C 0.74723 0.86092 0.19941 0.0
C270 C 0.68574 0.85517 0.20929 0.0
C271 C 0.65987 0.84332 0.17879 0.0
C272 C 0.63683 0.85755 0.17415 0.0
C273 C 0.64043 0.88475 0.20117 0.0
C274 C 0.66701 0.89769 0.23248 0.0
C275 C 0.68987 0.8825 0.23646 0.0
H276 H 0.9249 0.71268 0.50315 0.0
H277 H 0.86891 0.62151 0.42042 0.0
H278 H 0.80987 0.61071 0.44727 0.0
H279 H 0.86439 0.67415 0.58809 0.0
H280 H 0.86741 0.71644 0.60273 0.0
H281 H 0.905 0.71657 0.5773 0.0
H282 H 0.90366 0.75882 0.52125 0.0
H283 H 0.86624 0.75902 0.54665 0.0
H284 H 0.86202 0.74543 0.49398 0.0
H285 H 0.7567 0.60971 0.48444 0.0
H286 H 0.71426 0.62096 0.52491 0.0
H287 H 0.80571 0.71368 0.58197 0.0
C288 C 0.90027 0.69037 0.49062 0.0
C289 C 0.90159 0.66783 0.45972 0.0
C290 C 0.86862 0.63916 0.44403 0.0
C291 C 0.83496 0.63275 0.45923 0.0
C292 C 0.83471 0.65537 0.48994 0.0
C293 C 0.86656 0.68379 0.50518 0.0
C294 C 0.85906 0.70477 0.53736 0.0
C295 C 0.8749 0.70285 0.57882 0.0
C296 C 0.8736 0.74435 0.52399 0.0
C297 C 0.81795 0.68375 0.53798 0.0
C298 C 0.80437 0.65519 0.51064 0.0
C299 C 0.76711 0.63204 0.50587 0.0
C300 C 0.74319 0.63859 0.52914 0.0
C301 C 0.75654 0.66822 0.55672 0.0
C302 C 0.79451 0.69078 0.56128 0.0
H303 H 0.23112 0.84178 0.76865 0.0
H304 H 0.24419 0.94232 0.8184 0.0
H305 H 0.19481 0.90742 0.86717 0.0
H306 H 0.13318 0.79086 0.77613 0.0
H307 H 0.13138 0.74894 0.78989 0.0
H308 H 0.16812 0.78175 0.75892 0.0
H309 H 0.21453 0.78288 0.81093 0.0
H310 H 0.17792 0.75019 0.84215 0.0
H311 H 0.21148 0.79298 0.86366 0.0
H312 H 0.14473 0.86218 0.91115 0.0
H313 H 0.09504 0.80925 0.94563 0.0
H314 H 0.11287 0.73725 0.86728 0.0
C315 C 0.22359 0.85646 0.78977 0.0
C316 C 0.24171 0.89491 0.78962 0.0
C317 C 0.23082 0.91297 0.81775 0.0
C318 C 0.2028 0.89336 0.84571 0.0
C319 C 0.18569 0.85561 0.8452 0.0
C320 C 0.19543 0.83726 0.81785 0.0
C321 C 0.17209 0.79647 0.82348 0.0
C322 C 0.14987 0.77845 0.7848 0.0
C323 C 0.1954 0.77965 0.83579 0.0
C324 C 0.1478 0.79485 0.85829 0.0
C325 C 0.15629 0.82934 0.87039 0.0
C326 C 0.13778 0.83503 0.90191 0.0
C327 C 0.10957 0.8047 0.92137 0.0
C328 C 0.09991 0.76897 0.90927 0.0
C329 C 0.11955 0.76414 0.87736 0.0
H330 H 0.41853 0.01699 0.22141 0.0
H331 H 0.36665 0.90527 0.18 0.0
H332 H 0.42672 0.91054 0.17151 0.0
H333 H 0.50594 0.05228 0.15874 0.0
H334 H 0.53219 0.08087 0.20057 0.0
H335 H 0.48645 0.0717 0.19212 0.0
H336 H 0.46996 0.04843 0.26632 0.0
H337 H 0.51523 0.05698 0.27487 0.0
H338 H 0.47714 0.01217 0.28337 0.0
H339 H 0.49045 0.92324 0.18265 0.0
H340 H 0.55139 0.94276 0.21099 0.0
H341 H 0.5615 0.04595 0.24546 0.0
C342 C 0.41982 0.99418 0.20864 0.0
C343 C 0.38783 0.96081 0.20117 0.0
C344 C 0.39075 0.93124 0.18567 0.0
C345 C 0.42483 0.93399 0.18068 0.0
C346 C 0.45581 0.96661 0.19087 0.0
C347 C 0.4536 0.99642 0.20389 0.0
C348 C 0.49004 0.02642 0.21882 0.0
C349 C 0.50451 0.05979 0.19088 0.0
C350 C 0.48793 0.03654 0.26347 0.0
C351 C 0.51249 0.00798 0.21474 0.0
C352 C 0.49264 0.97385 0.19762 0.0
C353 C 0.50655 0.9503 0.19508 0.0
C354 C 0.54121 0.96158 0.21134 0.0
C355 C 0.56131 0.99592 0.23038 0.0
C356 C 0.54705 0.01968 0.23073 0.0
H357 H 0.5126 0.60531 0.54721 0.0
H358 H 0.59602 0.58576 0.49866 0.0
H359 H 0.54963 0.52235 0.48369 0.0
H360 H 0.47319 0.532 0.60292 0.0
H361 H 0.42672 0.52139 0.59714 0.0
H362 H 0.46281 0.56716 0.59053 0.0
H363 H 0.43899 0.56875 0.51833 0.0
H364 H 0.40249 0.52268 0.52483 0.0
H365 H 0.43239 0.53447 0.48156 0.0
H366 H 0.49956 0.45972 0.4909 0.0
H367 H 0.45184 0.40362 0.52272 0.0
H368 H 0.39963 0.46162 0.56829 0.0
C369 C 0.52075 0.58821 0.53133 0.0
C370 C 0.55781 0.6006 0.52339 0.0
C371 C 0.56773 0.57697 0.5044 0.0
C372 C 0.54146 0.54091 0.49566 0.0
C373 C 0.50536 0.52883 0.50613 0.0
C374 C 0.4949 0.55191 0.52332 0.0
C375 C 0.45631 0.53094 0.5394 0.0
C376 C 0.45472 0.5383 0.58518 0.0
C377 C 0.43105 0.53973 0.51453 0.0
C378 C 0.44775 0.49229 0.53171 0.0
C379 C 0.4759 0.49175 0.51104 0.0
C380 C 0.47687 0.4597 0.50583 0.0
C381 C 0.4496 0.4279 0.52395 0.0
C382 C 0.42174 0.42829 0.54709 0.0
C383 C 0.41982 0.46042 0.54928 0.0
H384 H 0.04047 0.58499 0.88957 0.0
H385 H 0.92505 0.5243 0.86453 0.0
H386 H 0.93049 0.47161 0.8433 0.0
H387 H 0.06947 0.53854 0.80833 0.0
H388 H 0.10296 0.5394 0.84274 0.0
H389 H 0.09228 0.57546 0.84398 0.0
H390 H 0.07796 0.56396 0.92104 0.0
H391 H 0.08817 0.52784 0.92001 0.0
H392 H 0.04452 0.5192 0.93804 0.0
H393 H 0.94501 0.42182 0.84135 0.0
H394 H 0.96773 0.38004 0.85793 0.0
H395 H 0.07396 0.47249 0.88369 0.0
C396 C 0.01679 0.56129 0.87747 0.0
C397 C 0.98246 0.55885 0.87817 0.0
C398 C 0.9517 0.52683 0.86383 0.0
C399 C 0.95455 0.49677 0.85159 0.0
C400 C 0.98842 0.49915 0.85359 0.0
C401 C 0.01918 0.53084 0.86559 0.0
C402 C 0.05099 0.5246 0.87156 0.0
C403 C 0.08068 0.54575 0.83974 0.0
C404 C 0.06625 0.53445 0.91524 0.0
C405 C 0.03268 0.48407 0.86396 0.0
C406 C 0.99684 0.47 0.85257 0.0
C407 C 0.97332 0.43262 0.84906 0.0
C408 C 0.98644 0.40903 0.85862 0.0
C409 C 0.02269 0.4229 0.87189 0.0
C410 C 0.04628 0.46095 0.87294 0.0
H411 H 0.06749 0.59962 0.46004 0.0
H412 H 0.95852 0.57728 0.48744 0.0
H413 H 0.94013 0.51342 0.50168 0.0
H414 H 0.04299 0.52795 0.40243 0.0
H415 H 0.0779 0.51783 0.4169 0.0
H416 H 0.08585 0.56319 0.42209 0.0
H417 H 0.10044 0.56312 0.49872 0.0
H418 H 0.09271 0.51753 0.4937 0.0
H419 H 0.0681 0.52755 0.53135 0.0
H420 H 0.92953 0.45115 0.49529 0.0
H421 H 0.92735 0.39611 0.46784 0.0
H422 H 0.04278 0.45703 0.44405 0.0
C423 C 0.04027 0.58174 0.47113 0.0
C424 C 0.01455 0.59358 0.47315 0.0
C425 C 0.97879 0.56897 0.48616 0.0
C426 C 0.96815 0.53261 0.49445 0.0
C427 C 0.99361 0.52125 0.48976 0.0
C428 C 0.02914 0.54524 0.47882 0.0
C429 C 0.04939 0.52527 0.46855 0.0
C430 C 0.06489 0.53407 0.42492 0.0
C431 C 0.07944 0.53388 0.49996 0.0
C432 C 0.01903 0.48622 0.47232 0.0
C433 C 0.98736 0.48454 0.48588 0.0
C434 C 0.95438 0.45201 0.48606 0.0
C435 C 0.95336 0.42084 0.47044 0.0
C436 C 0.98509 0.4223 0.45491 0.0
C437 C 0.01855 0.455 0.45744 0.0
H438 H 0.59671 0.02114 0.79313 0.0
H439 H 0.53778 0.91054 0.83801 0.0
H440 H 0.48286 0.9157 0.84587 0.0
H441 H 0.54497 0.05764 0.85453 0.0
H442 H 0.54674 0.0852 0.8119 0.0
H443 H 0.58348 0.07633 0.82067 0.0
H444 H 0.57598 0.05134 0.74715 0.0
H445 H 0.53909 0.05958 0.73831 0.0
H446 H 0.53246 0.01462 0.73109 0.0
H447 H 0.43142 0.92786 0.83383 0.0
H448 H 0.38961 0.9468 0.80501 0.0
H449 H 0.48222 0.04933 0.76832 0.0
C450 C 0.5728 0.99861 0.80652 0.0
C451 C 0.5717 0.96552 0.81513 0.0
C452 C 0.53945 0.93629 0.83144 0.0
C453 C 0.50803 0.93898 0.83606 0.0
C454 C 0.50936 0.97123 0.82474 0.0
C455 C 0.54119 1.0008 0.81099 0.0
C456 C 0.53445 0.03038 0.79521 0.0
C457 C 0.55354 0.0644 0.8222 0.0
C458 C 0.54616 0.03946 0.7503 0.0
C459 C 0.49362 0.01195 0.79975 0.0
C460 C 0.47961 0.97819 0.81769 0.0
C461 C 0.44217 0.95466 0.82076 0.0
C462 C 0.41858 0.9656 0.80425 0.0
C463 C 0.43256 0.99958 0.78449 0.0
C464 C 0.47056 0.02331 0.78357 0.0
H465 H 0.45063 0.4123 0.13306 0.0
H466 H 0.40006 0.47234 0.17805 0.0
H467 H 0.46043 0.52613 0.18823 0.0
H468 H 0.53879 0.46267 0.19685 0.0
H469 H 0.56467 0.46069 0.15443 0.0
H470 H 0.5189 0.42422 0.16283 0.0
H471 H 0.50194 0.43202 0.08917 0.0
H472 H 0.54722 0.46851 0.08067 0.0
H473 H 0.5093 0.47576 0.07311 0.0
H474 H 0.52349 0.57676 0.17608 0.0
H475 H 0.58278 0.6182 0.14452 0.0
H476 H 0.59304 0.52552 0.10868 0.0
C477 C 0.45228 0.43617 0.14699 0.0
C478 C 0.42057 0.43801 0.15479 0.0
C479 C 0.42393 0.47013 0.17201 0.0
C480 C 0.45821 0.50089 0.17801 0.0
C481 C 0.48896 0.49899 0.16729 0.0
C482 C 0.48631 0.46713 0.15291 0.0
C483 C 0.52258 0.47352 0.13738 0.0
C484 C 0.53709 0.45413 0.1645 0.0
C485 C 0.52008 0.46179 0.09245 0.0
C486 C 0.54525 0.51433 0.14214 0.0
C487 C 0.52576 0.5285 0.16049 0.0
C488 C 0.53942 0.56592 0.16286 0.0
C489 C 0.57317 0.58932 0.14477 0.0
C490 C 0.5927 0.57518 0.12421 0.0
C491 C 0.57913 0.53729 0.12468 0.0
H492 H 0.11484 0.81218 0.4298 0.0
H493 H 0.02369 0.76848 0.34633 0.0
H494 H 0.05657 0.82185 0.30223 0.0
H495 H 0.14543 0.91462 0.40775 0.0
H496 H 0.19218 0.92615 0.41328 0.0
H497 H 0.15752 0.89062 0.44407 0.0
H498 H 0.17853 0.84643 0.41861 0.0
H499 H 0.21257 0.88141 0.38749 0.0
H500 H 0.17952 0.83911 0.36457 0.0
H501 H 0.10616 0.86541 0.25685 0.0
H502 H 0.16468 0.90281 0.22101 0.0
H503 H 0.22147 0.92502 0.33605 0.0
C504 C 0.10103 0.815 0.40352 0.0
C505 C 0.0668 0.78616 0.39154 0.0
C506 C 0.04974 0.79034 0.35648 0.0
C507 C 0.06834 0.82062 0.33101 0.0
C508 C 0.10337 0.84724 0.34185 0.0
C509 C 0.11896 0.84557 0.37829 0.0
C510 C 0.15838 0.87528 0.38061 0.0
C511 C 0.16367 0.90334 0.41337 0.0
C512 C 0.18368 0.85957 0.38821 0.0
C513 C 0.16344 0.89137 0.3383 0.0
C514 C 0.13136 0.87513 0.31637 0.0
C515 C 0.13105 0.87991 0.27418 0.0
C516 C 0.1643 0.90113 0.25395 0.0
C517 C 0.1971 0.91798 0.27617 0.0
C518 C 0.19638 0.91403 0.31889 0.0
H519 H 0.38144 0.26357 0.69166 0.0
H520 H 0.28127 0.22168 0.6229 0.0
H521 H 0.26404 0.15905 0.64535 0.0
H522 H 0.4014 0.19669 0.66824 0.0
H523 H 0.42 0.19707 0.71773 0.0
H524 H 0.42122 0.2373 0.69894 0.0
H525 H 0.38743 0.23934 0.76389 0.0
H526 H 0.38561 0.19861 0.78259 0.0
H527 H 0.34439 0.20048 0.77714 0.0
H528 H 0.2621 0.10012 0.67129 0.0
H529 H 0.27721 0.05327 0.69301 0.0
H530 H 0.37792 0.13712 0.74533 0.0
C531 C 0.35574 0.2414 0.68112 0.0
C532 C 0.33293 0.24746 0.65493 0.0
C533 C 0.29927 0.21759 0.64274 0.0
C534 C 0.28925 0.18205 0.65558 0.0
C535 C 0.31284 0.17724 0.6813 0.0
C536 C 0.34531 0.20643 0.69396 0.0
C537 C 0.36735 0.19496 0.71949 0.0
C538 C 0.40466 0.2072 0.6999 0.0
C539 C 0.37141 0.2092 0.76338 0.0
C540 C 0.34317 0.15435 0.71791 0.0
C541 C 0.31144 0.14432 0.69651 0.0
C542 C 0.28655 0.10783 0.68865 0.0
C543 C 0.29516 0.08135 0.7014 0.0
C544 C 0.32858 0.09171 0.72116 0.0
C545 C 0.35197 0.12847 0.73081 0.0
H546 H 0.26257 0.34137 0.01436 0.0
H547 H 0.19496 0.26385 0.10591 0.0
H548 H 0.14079 0.24527 0.06176 0.0
H549 H 0.20583 0.37415 0.99769 0.0
H550 H 0.21617 0.38351 0.94426 0.0
H551 H 0.24893 0.38272 0.97796 0.0
H552 H 0.25118 0.33424 0.93158 0.0
H553 H 0.21763 0.33468 0.89832 0.0
H554 H 0.20983 0.29258 0.92046 0.0
H555 H 0.09387 0.242 0.01202 0.0
H556 H 0.0582 0.26127 0.97046 0.0
H557 H 0.1571 0.34503 0.91473 0.0
C558 C 0.23647 0.31948 0.02432 0.0
C559 C 0.23268 0.30323 0.06275 0.0
C560 C 0.1982 0.27589 0.07603 0.0
C561 C 0.16752 0.26515 0.05102 0.0
C562 C 0.17208 0.28236 0.01329 0.0
C563 C 0.20583 0.30928 1.00034 0.0
C564 C 0.20324 0.32871 0.96298 0.0
C565 C 0.21946 0.36965 0.97125 0.0
C566 C 0.22155 0.32214 0.92615 0.0
C567 C 0.16251 0.30974 0.95773 0.0
C568 C 0.14501 0.28211 0.98597 0.0
C569 C 0.1073 0.26313 0.98943 0.0
C570 C 0.0872 0.27412 0.96537 0.0
C571 C 0.10497 0.3046 0.93922 0.0
C572 C 0.14285 0.32127 0.93391 0.0
H573 H 0.87686 0.25471 0.31654 0.0
H574 H 0.92702 0.21441 0.40116 0.0
H575 H 0.88213 0.15119 0.38059 0.0
H576 H 0.78723 0.18931 0.33443 0.0
H577 H 0.77353 0.18796 0.28216 0.0
H578 H 0.81122 0.22863 0.30224 0.0
H579 H 0.85176 0.22741 0.24381 0.0
H580 H 0.81423 0.18608 0.22416 0.0
H581 H 0.8563 0.1878 0.23691 0.0
H582 H 0.82768 0.09182 0.35267 0.0
H583 H 0.76736 0.04455 0.32732 0.0
H584 H 0.75665 0.12648 0.26054 0.0
C585 C 0.87879 0.23281 0.33092 0.0
C586 C 0.90549 0.23963 0.36069 0.0
C587 C 0.90671 0.20987 0.37843 0.0
C588 C 0.88154 0.17395 0.36661 0.0
C589 C 0.85582 0.16845 0.33666 0.0
C590 C 0.85446 0.19732 0.31929 0.0
C591 C 0.82333 0.18504 0.28968 0.0
C592 C 0.7973 0.19851 0.30295 0.0
C593 C 0.83726 0.19732 0.24606 0.0
C594 C 0.80618 0.14446 0.29399 0.0
C595 C 0.8255 0.1351 0.32053 0.0
C596 C 0.81278 0.09894 0.33139 0.0
C597 C 0.7787 0.07217 0.31647 0.0
C598 C 0.75773 0.08196 0.29156 0.0
C599 C 0.77251 0.11825 0.27887 0.0
H600 H 0.68629 0.81793 0.57155 0.0
H601 H 0.73181 0.76746 0.64791 0.0
H602 H 0.75392 0.81847 0.6959 0.0
H603 H 0.76055 0.91836 0.59968 0.0
H604 H 0.72631 0.9315 0.59713 0.0
H605 H 0.72427 0.89727 0.56298 0.0
H606 H 0.65879 0.85324 0.58742 0.0
H607 H 0.66094 0.88681 0.62199 0.0
H608 H 0.65043 0.84286 0.641 0.0
H609 H 0.74928 0.86012 0.74586 0.0
H610 H 0.73016 0.89701 0.78633 0.0
H611 H 0.69681 0.92719 0.67551 0.0
C612 C 0.70289 0.81882 0.59705 0.0
C613 C 0.70714 0.78866 0.60597 0.0
C614 C 0.7284 0.79033 0.64009 0.0
C615 C 0.74101 0.81925 0.66778 0.0
C616 C 0.73354 0.84709 0.66007 0.0
C617 C 0.71648 0.84804 0.62447 0.0
C618 C 0.70792 0.87861 0.6256 0.0
C619 C 0.73117 0.9082 0.5945 0.0
C620 C 0.66712 0.86448 0.61864 0.0
C621 C 0.71932 0.89213 0.6688 0.0
C622 C 0.73436 0.87388 0.68825 0.0
C623 C 0.73956 0.87617 0.73053 0.0
C624 C 0.72862 0.89707 0.75339 0.0
C625 C 0.71363 0.91607 0.73369 0.0
C626 C 0.71016 0.91447 0.69087 0.0
H627 H 0.75906 0.66174 0.96371 0.0
H628 H 0.80203 0.72436 0.07424 0.0
H629 H 0.86481 0.7449 0.04975 0.0
H630 H 0.81154 0.62531 0.9625 0.0
H631 H 0.81686 0.62517 0.908 0.0
H632 H 0.77778 0.6248 0.92877 0.0
H633 H 0.79309 0.68276 0.88757 0.0
H634 H 0.83266 0.68341 0.86676 0.0
H635 H 0.83716 0.72276 0.89287 0.0
H636 H 0.92103 0.74743 0.01931 0.0
H637 H 0.96218 0.72742 0.9913 0.0
H638 H 0.8809 0.6614 0.90211 0.0
C639 C 0.78182 0.68083 0.98211 0.0
C640 C 0.77608 0.69164 0.02067 0.0
C641 C 0.80613 0.71621 0.04435 0.0
C642 C 0.84175 0.72801 0.03052 0.0
C643 C 0.84647 0.71544 0.99278 0.0
C644 C 0.81704 0.69257 0.96882 0.0
C645 C 0.82798 0.67772 0.93308 0.0
C646 C 0.80736 0.63581 0.93317 0.0
C647 C 0.8224 0.69257 0.89268 0.0
C648 C 0.86785 0.69336 0.94218 0.0
C649 C 0.87852 0.71628 0.9757 0.0
C650 C 0.91318 0.73037 0.99247 0.0
C651 C 0.93655 0.7191 0.97615 0.0
C652 C 0.92468 0.69331 0.9442 0.0
C653 C 0.89077 0.68187 0.92581 0.0
H654 H 0.35561 0.00894 0.39834 0.0
H655 H 0.27857 0.89346 0.38977 0.0
H656 H 0.27926 0.88828 0.46456 0.0
H657 H 0.40859 0.00209 0.48157 0.0
H658 H 0.41644 0.04375 0.50502 0.0
H659 H 0.41039 0.038 0.45065 0.0
H660 H 0.35779 0.05216 0.45456 0.0
H661 H 0.3636 0.05783 0.5089 0.0
H662 H 0.31993 0.02575 0.48796 0.0
H663 H 0.28556 0.89661 0.54133 0.0
H664 H 0.30014 0.9176 0.61302 0.0
H665 H 0.37488 0.02653 0.57004 0.0
C666 C 0.33912 0.98251 0.41214 0.0
C667 C 0.31702 0.95167 0.38815 0.0
C668 C 0.29584 0.91753 0.40747 0.0
C669 C 0.29597 0.91427 0.44998 0.0
C670 C 0.3178 0.94529 0.47279 0.0
C671 C 0.33928 0.97866 0.45449 0.0
C672 C 0.3602 0.00784 0.48583 0.0
C673 C 0.40134 0.02385 0.48044 0.0
C674 C 0.34973 0.03764 0.48421 0.0
C675 C 0.34679 0.98577 0.52458 0.0
C676 C 0.32223 0.94978 0.5166 0.0
C677 C 0.30511 0.92468 0.54795 0.0
C678 C 0.31346 0.9368 0.58851 0.0
C679 C 0.33891 0.97354 0.59715 0.0
C680 C 0.35574 0.9981 0.56457 0.0
H681 H 0.39047 0.36809 0.94963 0.0
H682 H 0.31435 0.40666 0.96858 0.0
H683 H 0.31195 0.41487 0.89471 0.0
H684 H 0.44002 0.43096 0.8656 0.0
H685 H 0.44665 0.39778 0.83864 0.0
H686 H 0.44357 0.39631 0.89345 0.0
H687 H 0.39096 0.32963 0.88982 0.0
H688 H 0.39386 0.33092 0.83509 0.0
H689 H 0.35136 0.31876 0.85962 0.0
H690 H 0.31294 0.41302 0.818 0.0
H691 H 0.32136 0.40548 0.74454 0.0
H692 H 0.40029 0.37312 0.77597 0.0
C693 C 0.37373 0.37874 0.93827 0.0
C694 C 0.35258 0.38665 0.965 0.0
C695 C 0.33092 0.40048 0.94882 0.0
C696 C 0.32932 0.40526 0.90681 0.0
C697 C 0.35012 0.39682 0.88124 0.0
C698 C 0.37235 0.38439 0.89634 0.0
C699 C 0.39157 0.37688 0.86215 0.0
C700 C 0.43291 0.40199 0.86514 0.0
C701 C 0.38131 0.33666 0.86165 0.0
C702 C 0.37607 0.38629 0.82559 0.0
C703 C 0.35205 0.39755 0.83714 0.0
C704 C 0.33228 0.40496 0.80852 0.0
C705 C 0.33714 0.40059 0.76695 0.0
C706 C 0.36197 0.38947 0.75458 0.0
C707 C 0.38186 0.38267 0.78442 0.0
H708 H 0.0367 0.41137 0.24326 0.0
H709 H 0.02855 0.3094 0.27923 0.0
H710 H 0.02514 0.29206 0.20691 0.0
H711 H 0.97602 0.37964 0.16423 0.0
H712 H 1.00085 0.41716 0.12989 0.0
H713 H 0.00716 0.42414 0.18406 0.0
H714 H 0.0764 0.44973 0.17652 0.0
H715 H 0.07055 0.4442 0.12211 0.0
H716 H 0.0926 0.42374 0.14936 0.0
H717 H 0.01155 0.28142 0.13167 0.0
H718 H 0.00584 0.28509 0.05691 0.0
H719 H 0.02817 0.39586 0.06942 0.0
C720 C 0.03571 0.38608 0.23581 0.0
C721 C 0.03307 0.36181 0.26681 0.0
C722 C 0.03123 0.32867 0.25598 0.0
C723 C 0.02874 0.31835 0.21497 0.0
C724 C 0.02909 0.3419 0.18523 0.0
C725 C 0.03406 0.37572 0.195 0.0
C726 C 0.03349 0.3959 0.15721 0.0
C727 C 1.00254 0.40471 0.15899 0.0
C728 C 0.07046 0.43043 0.15092 0.0
C729 C 0.02635 0.36772 0.12483 0.0
C730 C 0.02324 0.33651 0.14168 0.0
C731 C 0.0146 0.30596 0.11804 0.0
C732 C 0.0108 0.30804 0.07577 0.0
C733 C 0.01626 0.3406 0.05775 0.0
C734 C 0.02361 0.37058 0.08266 0.0
H735 H 0.65117 0.02735 0.44412 0.0
H736 H 0.6066 0.91558 0.40476 0.0
H737 H 0.59976 0.8962 0.47705 0.0
H738 H 0.70365 0.02269 0.52576 0.0
H739 H 0.69653 0.05266 0.55844 0.0
H740 H 0.69575 0.05706 0.50394 0.0
H741 H 0.63159 0.04981 0.50858 0.0
H742 H 0.63212 0.0453 0.56312 0.0
H743 H 0.59562 0.01047 0.53347 0.0
H744 H 0.59802 0.88958 0.55373 0.0
H745 H 0.60524 0.89605 0.62824 0.0
H746 H 0.65399 0.01297 0.61658 0.0
C747 C 0.63955 0.99869 0.45058 0.0
C748 C 0.62898 0.97284 0.41884 0.0
C749 C 0.61469 0.93576 0.42864 0.0
C750 C 0.61064 0.92455 0.46955 0.0
C751 C 0.62138 0.95085 0.50006 0.0
C752 C 0.63583 0.98719 0.49099 0.0
C753 C 0.64706 0.01036 0.52912 0.0
C754 C 0.68819 0.03727 0.52931 0.0
C755 C 0.62529 0.03014 0.53384 0.0
C756 C 0.63667 0.9814 0.5613 0.0
C757 C 0.62156 0.94723 0.54395 0.0
C758 C 0.60983 0.91619 0.56757 0.0
C759 C 0.61402 0.92022 0.60995 0.0
C760 C 0.6303 0.95509 0.62835 0.0
C761 C 0.64149 0.98599 0.60353 0.0
H762 H 0.6549 0.61592 0.89673 0.0
H763 H 0.60095 0.67327 0.94022 0.0
H764 H 0.5863 0.68052 0.86896 0.0
H765 H 0.69716 0.67323 0.81305 0.0
H766 H 0.69336 0.63778 0.77973 0.0
H767 H 0.69574 0.63335 0.83402 0.0
H768 H 0.63539 0.57191 0.8321 0.0
H769 H 0.63282 0.57612 0.77771 0.0
H770 H 0.59561 0.56973 0.8097 0.0
H771 H 0.57977 0.68341 0.79345 0.0
H772 H 0.5856 0.68654 0.71891 0.0
H773 H 0.64727 0.63029 0.72427 0.0
C774 C 0.6393 0.62933 0.89135 0.0
C775 C 0.62847 0.64355 0.92396 0.0
C776 C 0.60918 0.66195 0.91564 0.0
C777 C 0.60068 0.66605 0.87534 0.0
C778 C 0.61207 0.65196 0.84388 0.0
C779 C 0.63123 0.63424 0.85141 0.0
C780 C 0.64315 0.62448 0.81214 0.0
C781 C 0.68482 0.64335 0.8096 0.0
C782 C 0.62569 0.5831 0.80766 0.0
C783 C 0.62799 0.63982 0.7812 0.0
C784 C 0.60969 0.65501 0.80021 0.0
C785 C 0.59392 0.67151 0.77824 0.0
C786 C 0.59742 0.6731 0.73579 0.0
C787 C 0.61697 0.65867 0.71554 0.0
C788 C 0.63206 0.64142 0.73871 0.0
H789 H 0.96801 0.63132 0.26768 0.0
H790 H 0.08447 0.67672 0.28087 0.0
H791 H 0.09025 0.6729 0.20682 0.0
H792 H 0.95664 0.56836 0.1841 0.0
H793 H 0.9228 0.575 0.15868 0.0
H794 H 0.92727 0.57903 0.21332 0.0
H795 H 0.93567 0.64366 0.20914 0.0
H796 H 0.93143 0.63991 0.15454 0.0
H797 H 0.97106 0.6773 0.17734 0.0
H798 H 0.08472 0.66998 0.13089 0.0
H799 H 0.06692 0.66369 0.05822 0.0
H800 H 0.95414 0.61766 0.09407 0.0
C801 C 0.99462 0.63991 0.25507 0.0
C802 C 0.02572 0.65434 0.28028 0.0
C803 C 0.06012 0.66551 0.2624 0.0
C804 C 0.06378 0.66348 0.22025 0.0
C805 C 0.03277 0.64984 0.19622 0.0
C806 C 0.99878 0.6378 0.21292 0.0
C807 C 0.97003 0.62521 0.17997 0.0
C808 C 0.94256 0.58448 0.18428 0.0
C809 C 0.95094 0.64788 0.18028 0.0
C810 C 0.99333 0.63281 0.14227 0.0
C811 C 0.02947 0.64707 0.1523 0.0
C812 C 0.05642 0.65828 0.12259 0.0
C813 C 0.04612 0.65474 0.08146 0.0
C814 C 0.00918 0.63982 0.07052 0.0
C815 C 0.98255 0.62854 0.10146 0.0
loop_
_geom_bond_atom_site_label_1
_geom_bond_atom_site_label_2
_geom_bond_distance
_geom_bond_site_symmetry_2
_ccdc_geom_bond_type
Zn0 O3 2.031 . S
Zn0 O5 2.049 . S
Zn0 O10 2.067 . S
Zn1 O2 1.962 1_545 S
Zn1 O4 1.986 . S
Zn1 O6 1.996 1_545 S
Zn1 O9 1.943 . S
O2 Zn1 1.962 1_565 S
O2 C7 1.254 . S
O3 Zn0 2.031 . S
O3 C7 1.269 . S
O4 Zn1 1.986 . S
O4 C11 1.262 . S
O5 Zn0 2.049 . S
O5 C13 1.260 . S
O6 Zn1 1.996 1_565 S
O6 C13 1.257 . S
C7 O2 1.254 . S
C7 O3 1.269 . S
C8 O9 1.249 . S
C8 O10 1.270 1_545 S
O9 Zn1 1.943 . S
O9 C8 1.249 . S
O10 Zn0 2.067 . S
O10 C8 1.270 1_565 S
C11 O4 1.262 . S
C11 O12 1.232 . S
O12 C11 1.232 . S
C13 O5 1.260 . S
C13 O6 1.257 . S
Zn14 O17 2.031 . S
Zn14 O19 2.049 . S
Zn14 O24 2.067 . S
Zn15 O16 1.962 . S
Zn15 O18 1.986 . S
Zn15 O20 1.996 . S
Zn15 O23 1.943 . S
O16 Zn15 1.962 . S
O16 C21 1.254 . S
O17 Zn14 2.031 . S
O17 C21 1.269 . S
O18 Zn15 1.986 . S
O18 C25 1.262 . S
O19 Zn14 2.049 . S
O19 C27 1.260 . S
O20 Zn15 1.996 . S
O20 C27 1.257 . S
C21 O16 1.254 . S
C21 O17 1.269 . S
C22 O23 1.249 . S
C22 O24 1.270 . S
O23 Zn15 1.943 . S
O23 C22 1.249 . S
O24 Zn14 2.067 . S
O24 C22 1.270 . S
C25 O18 1.262 . S
C25 O26 1.232 . S
O26 C25 1.232 . S
C27 O19 1.260 . S
C27 O20 1.257 . S
Zn28 O31 2.031 . S
Zn28 O33 2.049 . S
Zn28 O38 2.067 1_556 S
Zn29 O30 1.962 1_655 S
Zn29 O32 1.986 . S
Zn29 O34 1.996 1_655 S
Zn29 O37 1.943 1_556 S
O30 Zn29 1.962 1_455 S
O30 C35 1.254 . S
O31 Zn28 2.031 . S
O31 C35 1.269 . S
O32 Zn29 1.986 . S
O32 C39 1.262 . S
O33 Zn28 2.049 . S
O33 C41 1.260 . S
O34 Zn29 1.996 1_455 S
O34 C41 1.257 . S
C35 O30 1.254 . S
C35 O31 1.269 . S
C36 O37 1.249 . S
C36 O38 1.270 1_655 S
O37 Zn29 1.943 1_554 S
O37 C36 1.249 . S
O38 Zn28 2.067 1_554 S
O38 C36 1.270 1_455 S
C39 O32 1.262 . S
C39 O40 1.232 . S
O40 C39 1.232 . S
C41 O33 1.260 . S
C41 O34 1.257 . S
Zn42 O45 2.031 . S
Zn42 O47 2.049 . S
Zn42 O52 2.067 . S
Zn43 O44 1.962 1_565 S
Zn43 O46 1.986 . S
Zn43 O48 1.996 1_565 S
Zn43 O51 1.943 . S
O44 Zn43 1.962 1_545 S
O44 C49 1.254 . S
O45 Zn42 2.031 . S
O45 C49 1.269 . S
O46 Zn43 1.986 . S
O46 C53 1.262 . S
O47 Zn42 2.049 . S
O47 C55 1.260 . S
O48 Zn43 1.996 1_545 S
O48 C55 1.257 . S
C49 O44 1.254 . S
C49 O45 1.269 . S
C50 O51 1.249 . S
C50 O52 1.270 1_565 S
O51 Zn43 1.943 . S
O51 C50 1.249 . S
O52 Zn42 2.067 . S
O52 C50 1.270 1_545 S
C53 O46 1.262 . S
C53 O54 1.232 . S
O54 C53 1.232 . S
C55 O47 1.260 . S
C55 O48 1.257 . S
Zn56 O59 2.031 . S
Zn56 O61 2.049 . S
Zn56 O66 2.067 . S
Zn57 O58 1.962 . S
Zn57 O60 1.986 . S
Zn57 O62 1.996 . S
Zn57 O65 1.943 . S
O58 Zn57 1.962 . S
O58 C63 1.254 . S
O59 Zn56 2.031 . S
O59 C63 1.269 . S
O60 Zn57 1.986 . S
O60 C67 1.262 . S
O61 Zn56 2.049 . S
O61 C69 1.260 . S
O62 Zn57 1.996 . S
O62 C69 1.257 . S
C63 O58 1.254 . S
C63 O59 1.269 . S
C64 O65 1.249 . S
C64 O66 1.270 . S
O65 Zn57 1.943 . S
O65 C64 1.249 . S
O66 Zn56 2.067 . S
O66 C64 1.270 . S
C67 O60 1.262 . S
C67 O68 1.232 . S
O68 C67 1.232 . S
C69 O61 1.260 . S
C69 O62 1.257 . S
Zn70 O73 2.031 . S
Zn70 O75 2.049 . S
Zn70 O80 2.067 1_556 S
Zn71 O72 1.962 1_455 S
Zn71 O74 1.986 . S
Zn71 O76 1.996 1_455 S
Zn71 O79 1.943 1_556 S
O72 Zn71 1.962 1_655 S
O72 C77 1.254 . S
O73 Zn70 2.031 . S
O73 C77 1.269 . S
O74 Zn71 1.986 . S
O74 C81 1.262 . S
O75 Zn70 2.049 . S
O75 C83 1.260 . S
O76 Zn71 1.996 1_655 S
O76 C83 1.257 . S
C77 O72 1.254 . S
C77 O73 1.269 . S
C78 O79 1.249 . S
C78 O80 1.270 1_455 S
O79 Zn71 1.943 1_554 S
O79 C78 1.249 . S
O80 Zn70 2.067 1_554 S
O80 C78 1.270 1_655 S
C81 O74 1.262 . S
C81 O82 1.232 . S
O82 C81 1.232 . S
C83 O75 1.260 . S
C83 O76 1.257 . S
Zn84 O87 2.031 . S
Zn84 O89 2.049 . S
Zn84 O94 2.067 . S
Zn85 O86 1.962 1_655 S
Zn85 O88 1.986 . S
Zn85 O90 1.996 1_655 S
Zn85 O93 1.943 . S
O86 Zn85 1.962 1_455 S
O86 C91 1.254 . S
O87 Zn84 2.031 . S
O87 C91 1.269 . S
O88 Zn85 1.986 . S
O88 C95 1.262 . S
O89 Zn84 2.049 . S
O89 C97 1.260 . S
O90 Zn85 1.996 1_455 S
O90 C97 1.257 . S
C91 O86 1.254 . S
C91 O87 1.269 . S
C92 O93 1.249 . S
C92 O94 1.270 1_655 S
O93 Zn85 1.943 . S
O93 C92 1.249 . S
O94 Zn84 2.067 . S
O94 C92 1.270 1_455 S
C95 O88 1.262 . S
C95 O96 1.232 . S
O96 C95 1.232 . S
C97 O89 1.260 . S
C97 O90 1.257 . S
Zn98 O101 2.031 . S
Zn98 O103 2.049 . S
Zn98 O108 2.067 . S
Zn99 O100 1.962 1_565 S
Zn99 O102 1.986 . S
Zn99 O104 1.996 1_565 S
Zn99 O107 1.943 . S
O100 Zn99 1.962 1_545 S
O100 C105 1.254 . S
O101 Zn98 2.031 . S
O101 C105 1.269 . S
O102 Zn99 1.986 . S
O102 C109 1.262 . S
O103 Zn98 2.049 . S
O103 C111 1.260 . S
O104 Zn99 1.996 1_545 S
O104 C111 1.257 . S
C105 O100 1.254 . S
C105 O101 1.269 . S
C106 O107 1.249 . S
C106 O108 1.270 1_565 S
O107 Zn99 1.943 . S
O107 C106 1.249 . S
O108 Zn98 2.067 . S
O108 C106 1.270 1_545 S
C109 O102 1.262 . S
C109 O110 1.232 . S
O110 C109 1.232 . S
C111 O103 1.260 . S
C111 O104 1.257 . S
Zn112 O115 2.031 . S
Zn112 O117 2.049 . S
Zn112 O122 2.067 1_554 S
Zn113 O114 1.962 . S
Zn113 O116 1.986 . S
Zn113 O118 1.996 . S
Zn113 O121 1.943 1_554 S
O114 Zn113 1.962 . S
O114 C119 1.254 . S
O115 Zn112 2.031 . S
O115 C119 1.269 . S
O116 Zn113 1.986 . S
O116 C123 1.262 . S
O117 Zn112 2.049 . S
O117 C125 1.260 . S
O118 Zn113 1.996 . S
O118 C125 1.257 . S
C119 O114 1.254 . S
C119 O115 1.269 . S
C120 O121 1.249 . S
C120 O122 1.270 . S
O121 Zn113 1.943 1_556 S
O121 C120 1.249 . S
O122 Zn112 2.067 1_556 S
O122 C120 1.270 . S
C123 O116 1.262 . S
C123 O124 1.232 . S
O124 C123 1.232 . S
C125 O117 1.260 . S
C125 O118 1.257 . S
Zn126 O129 2.031 . S
Zn126 O131 2.049 . S
Zn126 O136 2.067 . S
Zn127 O128 1.962 1_455 S
Zn127 O130 1.986 . S
Zn127 O132 1.996 1_455 S
Zn127 O135 1.943 . S
O128 Zn127 1.962 1_655 S
O128 C133 1.254 . S
O129 Zn126 2.031 . S
O129 C133 1.269 . S
O130 Zn127 1.986 . S
O130 C137 1.262 . S
O131 Zn126 2.049 . S
O131 C139 1.260 . S
O132 Zn127 1.996 1_655 S
O132 C139 1.257 . S
C133 O128 1.254 . S
C133 O129 1.269 . S
C134 O135 1.249 . S
C134 O136 1.270 1_455 S
O135 Zn127 1.943 . S
O135 C134 1.249 . S
O136 Zn126 2.067 . S
O136 C134 1.270 1_655 S
C137 O130 1.262 . S
C137 O138 1.232 . S
O138 C137 1.232 . S
C139 O131 1.260 . S
C139 O132 1.257 . S
Zn140 O143 2.031 . S
Zn140 O145 2.049 . S
Zn140 O150 2.067 . S
Zn141 O142 1.962 1_545 S
Zn141 O144 1.986 . S
Zn141 O146 1.996 1_545 S
Zn141 O149 1.943 . S
O142 Zn141 1.962 1_565 S
O142 C147 1.254 . S
O143 Zn140 2.031 . S
O143 C147 1.269 . S
O144 Zn141 1.986 . S
O144 C151 1.262 . S
O145 Zn140 2.049 . S
O145 C153 1.260 . S
O146 Zn141 1.996 1_565 S
O146 C153 1.257 . S
C147 O142 1.254 . S
C147 O143 1.269 . S
C148 O149 1.249 . S
C148 O150 1.270 1_545 S
O149 Zn141 1.943 . S
O149 C148 1.249 . S
O150 Zn140 2.067 . S
O150 C148 1.270 1_565 S
C151 O144 1.262 . S
C151 O152 1.232 . S
O152 C151 1.232 . S
C153 O145 1.260 . S
C153 O146 1.257 . S
Zn154 O157 2.031 . S
Zn154 O159 2.049 . S
Zn154 O164 2.067 1_554 S
Zn155 O156 1.962 . S
Zn155 O158 1.986 . S
Zn155 O160 1.996 . S
Zn155 O163 1.943 1_554 S
O156 Zn155 1.962 . S
O156 C161 1.254 . S
O157 Zn154 2.031 . S
O157 C161 1.269 . S
O158 Zn155 1.986 . S
O158 C165 1.262 . S
O159 Zn154 2.049 . S
O159 C167 1.260 . S
O160 Zn155 1.996 . S
O160 C167 1.257 . S
C161 O156 1.254 . S
C161 O157 1.269 . S
C162 O163 1.249 . S
C162 O164 1.270 . S
O163 Zn155 1.943 1_556 S
O163 C162 1.249 . S
O164 Zn154 2.067 1_556 S
O164 C162 1.270 . S
C165 O158 1.262 . S
C165 O166 1.232 . S
O166 C165 1.232 . S
C167 O159 1.260 . S
C167 O160 1.257 . S
H168 C180 0.930 . S
H169 C182 0.930 . S
H170 C183 0.930 . S
H171 C187 0.959 . S
H172 C187 0.959 . S
H173 C187 0.961 . S
H174 C188 0.960 . S
H175 C188 0.961 . S
H176 C188 0.959 . S
H177 C191 0.929 . S
H178 C192 0.931 . S
H179 C194 0.930 . S
C180 H168 0.930 . S
C180 C181 1.399 . S
C180 C185 1.399 . S
C181 C180 1.399 . S
C181 C182 1.376 . S
C182 H169 0.930 . S
C182 C181 1.376 . S
C182 C183 1.388 . S
C183 H170 0.930 . S
C183 C182 1.388 . S
C183 C184 1.390 . S
C184 C183 1.390 . S
C184 C185 1.394 . S
C184 C190 1.465 . S
C185 C180 1.399 . S
C185 C184 1.394 . S
C185 C186 1.516 . S
C186 C185 1.516 . S
C186 C187 1.502 . S
C186 C188 1.561 . S
C186 C189 1.526 . S
C187 H171 0.959 . S
C187 H172 0.959 . S
C187 H173 0.961 . S
C187 C186 1.502 . S
C188 H174 0.960 . S
C188 H175 0.961 . S
C188 H176 0.959 . S
C188 C186 1.561 . S
C189 C186 1.526 . S
C189 C190 1.396 . S
C189 C194 1.390 . S
C190 C184 1.465 . S
C190 C189 1.396 . S
C190 C191 1.399 . S
C191 H177 0.929 . S
C191 C190 1.399 . S
C191 C192 1.385 . S
C192 H178 0.931 . S
C192 C191 1.385 . S
C192 C193 1.389 . S
C193 C192 1.389 . S
C193 C194 1.387 . S
C194 H179 0.930 . S
C194 C189 1.390 . S
C194 C193 1.387 . S
H195 C207 0.930 . S
H196 C209 0.930 . S
H197 C210 0.930 . S
H198 C214 0.959 . S
H199 C214 0.959 . S
H200 C214 0.961 . S
H201 C215 0.960 . S
H202 C215 0.961 . S
H203 C215 0.959 . S
H204 C218 0.929 . S
H205 C219 0.931 . S
H206 C221 0.930 . S
C207 H195 0.930 . S
C207 C208 1.399 . S
C207 C212 1.399 . S
C208 C207 1.399 . S
C208 C209 1.376 . S
C209 H196 0.930 . S
C209 C208 1.376 . S
C209 C210 1.388 . S
C210 H197 0.930 . S
C210 C209 1.388 . S
C210 C211 1.390 . S
C211 C210 1.390 . S
C211 C212 1.394 . S
C211 C217 1.465 . S
C212 C207 1.399 . S
C212 C211 1.394 . S
C212 C213 1.516 . S
C213 C212 1.516 . S
C213 C214 1.502 . S
C213 C215 1.561 . S
C213 C216 1.526 . S
C214 H198 0.959 . S
C214 H199 0.959 . S
C214 H200 0.961 . S
C214 C213 1.502 . S
C215 H201 0.960 . S
C215 H202 0.961 . S
C215 H203 0.959 . S
C215 C213 1.561 . S
C216 C213 1.526 . S
C216 C217 1.396 . S
C216 C221 1.390 . S
C217 C211 1.465 . S
C217 C216 1.396 . S
C217 C218 1.399 . S
C218 H204 0.929 . S
C218 C217 1.399 . S
C218 C219 1.385 . S
C219 H205 0.931 . S
C219 C218 1.385 . S
C219 C220 1.389 . S
C220 C219 1.389 . S
C220 C221 1.387 . S
C221 H206 0.930 . S
C221 C216 1.390 . S
C221 C220 1.387 . S
H222 C234 0.930 . S
H223 C236 0.930 . S
H224 C237 0.930 . S
H225 C241 0.959 . S
H226 C241 0.959 . S
H227 C241 0.961 . S
H228 C242 0.960 . S
H229 C242 0.961 . S
H230 C242 0.959 . S
H231 C245 0.929 . S
H232 C246 0.931 . S
H233 C248 0.930 . S
C234 H222 0.930 . S
C234 C235 1.399 . S
C234 C239 1.399 . S
C235 C234 1.399 . S
C235 C236 1.376 . S
C236 H223 0.930 . S
C236 C235 1.376 . S
C236 C237 1.388 . S
C237 H224 0.930 . S
C237 C236 1.388 . S
C237 C238 1.390 . S
C238 C237 1.390 . S
C238 C239 1.394 . S
C238 C244 1.465 . S
C239 C234 1.399 . S
C239 C238 1.394 . S
C239 C240 1.516 . S
C240 C239 1.516 . S
C240 C241 1.502 . S
C240 C242 1.561 . S
C240 C243 1.526 . S
C241 H225 0.959 . S
C241 H226 0.959 . S
C241 H227 0.961 . S
C241 C240 1.502 . S
C242 H228 0.960 . S
C242 H229 0.961 . S
C242 H230 0.959 . S
C242 C240 1.561 . S
C243 C240 1.526 . S
C243 C244 1.396 . S
C243 C248 1.390 . S
C244 C238 1.465 . S
C244 C243 1.396 . S
C244 C245 1.399 . S
C245 H231 0.929 . S
C245 C244 1.399 . S
C245 C246 1.385 . S
C246 H232 0.931 . S
C246 C245 1.385 . S
C246 C247 1.389 . S
C247 C246 1.389 . S
C247 C248 1.387 . S
C248 H233 0.930 . S
C248 C243 1.390 . S
C248 C247 1.387 . S
H249 C261 0.930 . S
H250 C263 0.930 . S
H251 C264 0.930 . S
H252 C268 0.959 . S
H253 C268 0.959 . S
H254 C268 0.961 . S
H255 C269 0.960 . S
H256 C269 0.961 . S
H257 C269 0.959 . S
H258 C272 0.929 . S
H259 C273 0.931 . S
H260 C275 0.930 . S
C261 H249 0.930 . S
C261 C262 1.399 . S
C261 C266 1.399 . S
C262 C261 1.399 . S
C262 C263 1.376 . S
C263 H250 0.930 . S
C263 C262 1.376 . S
C263 C264 1.388 . S
C264 H251 0.930 . S
C264 C263 1.388 . S
C264 C265 1.390 . S
C265 C264 1.390 . S
C265 C266 1.394 . S
C265 C271 1.465 . S
C266 C261 1.399 . S
C266 C265 1.394 . S
C266 C267 1.516 . S
C267 C266 1.516 . S
C267 C268 1.502 . S
C267 C269 1.561 . S
C267 C270 1.526 . S
C268 H252 0.959 . S
C268 H253 0.959 . S
C268 H254 0.961 . S
C268 C267 1.502 . S
C269 H255 0.960 . S
C269 H256 0.961 . S
C269 H257 0.959 . S
C269 C267 1.561 . S
C270 C267 1.526 . S
C270 C271 1.396 . S
C270 C275 1.390 . S
C271 C265 1.465 . S
C271 C270 1.396 . S
C271 C272 1.399 . S
C272 H258 0.929 . S
C272 C271 1.399 . S
C272 C273 1.385 . S
C273 H259 0.931 . S
C273 C272 1.385 . S
C273 C274 1.389 . S
C274 C273 1.389 . S
C274 C275 1.387 . S
C275 H260 0.930 . S
C275 C270 1.390 . S
C275 C274 1.387 . S
H276 C288 0.930 . S
H277 C290 0.930 . S
H278 C291 0.930 . S
H279 C295 0.959 . S
H280 C295 0.959 . S
H281 C295 0.961 . S
H282 C296 0.960 . S
H283 C296 0.961 . S
H284 C296 0.959 . S
H285 C299 0.929 . S
H286 C300 0.931 . S
H287 C302 0.930 . S
C288 H276 0.930 . S
C288 C289 1.399 . S
C288 C293 1.399 . S
C289 C288 1.399 . S
C289 C290 1.376 . S
C290 H277 0.930 . S
C290 C289 1.376 . S
C290 C291 1.388 . S
C291 H278 0.930 . S
C291 C290 1.388 . S
C291 C292 1.390 . S
C292 C291 1.390 . S
C292 C293 1.394 . S
C292 C298 1.465 . S
C293 C288 1.399 . S
C293 C292 1.394 . S
C293 C294 1.516 . S
C294 C293 1.516 . S
C294 C295 1.502 . S
C294 C296 1.561 . S
C294 C297 1.526 . S
C295 H279 0.959 . S
C295 H280 0.959 . S
C295 H281 0.961 . S
C295 C294 1.502 . S
C296 H282 0.960 . S
C296 H283 0.961 . S
C296 H284 0.959 . S
C296 C294 1.561 . S
C297 C294 1.526 . S
C297 C298 1.396 . S
C297 C302 1.390 . S
C298 C292 1.465 . S
C298 C297 1.396 . S
C298 C299 1.399 . S
C299 H285 0.929 . S
C299 C298 1.399 . S
C299 C300 1.385 . S
C300 H286 0.931 . S
C300 C299 1.385 . S
C300 C301 1.389 . S
C301 C300 1.389 . S
C301 C302 1.387 . S
C302 H287 0.930 . S
C302 C297 1.390 . S
C302 C301 1.387 . S
H303 C315 0.930 . S
H304 C317 0.930 . S
H305 C318 0.930 . S
H306 C322 0.959 . S
H307 C322 0.959 . S
H308 C322 0.961 . S
H309 C323 0.960 . S
H310 C323 0.961 . S
H311 C323 0.959 . S
H312 C326 0.929 . S
H313 C327 0.931 . S
H314 C329 0.930 . S
C315 H303 0.930 . S
C315 C316 1.399 . S
C315 C320 1.399 . S
C316 C315 1.399 . S
C316 C317 1.376 . S
C317 H304 0.930 . S
C317 C316 1.376 . S
C317 C318 1.388 . S
C318 H305 0.930 . S
C318 C317 1.388 . S
C318 C319 1.390 . S
C319 C318 1.390 . S
C319 C320 1.394 . S
C319 C325 1.465 . S
C320 C315 1.399 . S
C320 C319 1.394 . S
C320 C321 1.516 . S
C321 C320 1.516 . S
C321 C322 1.502 . S
C321 C323 1.561 . S
C321 C324 1.526 . S
C322 H306 0.959 . S
C322 H307 0.959 . S
C322 H308 0.961 . S
C322 C321 1.502 . S
C323 H309 0.960 . S
C323 H310 0.961 . S
C323 H311 0.959 . S
C323 C321 1.561 . S
C324 C321 1.526 . S
C324 C325 1.396 . S
C324 C329 1.390 . S
C325 C319 1.465 . S
C325 C324 1.396 . S
C325 C326 1.399 . S
C326 H312 0.929 . S
C326 C325 1.399 . S
C326 C327 1.385 . S
C327 H313 0.931 . S
C327 C326 1.385 . S
C327 C328 1.389 . S
C328 C327 1.389 . S
C328 C329 1.387 . S
C329 H314 0.930 . S
C329 C324 1.390 . S
C329 C328 1.387 . S
H330 C342 0.930 . S
H331 C344 0.930 . S
H332 C345 0.930 . S
H333 C349 0.959 . S
H334 C349 0.959 . S
H335 C349 0.961 . S
H336 C350 0.960 . S
H337 C350 0.961 1_545 S
H338 C350 0.959 . S
H339 C353 0.929 . S
H340 C354 0.931 . S
H341 C356 0.930 . S
C342 H330 0.930 . S
C342 C343 1.399 1_545 S
C342 C347 1.399 . S
C343 C342 1.399 1_565 S
C343 C344 1.376 . S
C344 H331 0.930 . S
C344 C343 1.376 . S
C344 C345 1.388 . S
C345 H332 0.930 . S
C345 C344 1.388 . S
C345 C346 1.390 . S
C346 C345 1.390 . S
C346 C347 1.394 1_565 S
C346 C352 1.465 . S
C347 C342 1.399 . S
C347 C346 1.394 1_545 S
C347 C348 1.516 . S
C348 C347 1.516 . S
C348 C349 1.502 . S
C348 C350 1.561 1_545 S
C348 C351 1.526 . S
C349 H333 0.959 . S
C349 H334 0.959 . S
C349 H335 0.961 . S
C349 C348 1.502 . S
C350 H336 0.960 . S
C350 H337 0.961 1_565 S
C350 H338 0.959 . S
C350 C348 1.561 1_565 S
C351 C348 1.526 . S
C351 C352 1.396 1_545 S
C351 C356 1.390 . S
C352 C346 1.465 . S
C352 C351 1.396 1_565 S
C352 C353 1.399 . S
C353 H339 0.929 . S
C353 C352 1.399 . S
C353 C354 1.385 . S
C354 H340 0.931 . S
C354 C353 1.385 . S
C354 C355 1.392 . S
C355 C354 1.392 . S
C355 C356 1.381 1_565 S
C356 H341 0.930 . S
C356 C351 1.390 . S
C356 C355 1.381 1_545 S
H357 C369 0.930 . S
H358 C371 0.930 . S
H359 C372 0.930 . S
H360 C376 0.959 . S
H361 C376 0.959 . S
H362 C376 0.961 . S
H363 C377 0.960 . S
H364 C377 0.961 . S
H365 C377 0.959 . S
H366 C380 0.929 . S
H367 C381 0.931 . S
H368 C383 0.930 . S
C369 H357 0.930 . S
C369 C370 1.399 . S
C369 C374 1.399 . S
C370 C369 1.399 . S
C370 C371 1.376 . S
C371 H358 0.930 . S
C371 C370 1.376 . S
C371 C372 1.388 . S
C372 H359 0.930 . S
C372 C371 1.388 . S
C372 C373 1.390 . S
C373 C372 1.390 . S
C373 C374 1.394 . S
C373 C379 1.465 . S
C374 C369 1.399 . S
C374 C373 1.394 . S
C374 C375 1.516 . S
C375 C374 1.516 . S
C375 C376 1.502 . S
C375 C377 1.561 . S
C375 C378 1.526 . S
C376 H360 0.959 . S
C376 H361 0.959 . S
C376 H362 0.961 . S
C376 C375 1.502 . S
C377 H363 0.960 . S
C377 H364 0.961 . S
C377 H365 0.959 . S
C377 C375 1.561 . S
C378 C375 1.526 . S
C378 C379 1.396 . S
C378 C383 1.390 . S
C379 C373 1.465 . S
C379 C378 1.396 . S
C379 C380 1.399 . S
C380 H366 0.929 . S
C380 C379 1.399 . S
C380 C381 1.385 . S
C381 H367 0.931 . S
C381 C380 1.385 . S
C381 C382 1.389 . S
C382 C381 1.389 . S
C382 C383 1.387 . S
C383 H368 0.930 . S
C383 C378 1.390 . S
C383 C382 1.387 . S
H384 C396 0.930 . S
H385 C398 0.930 . S
H386 C399 0.930 . S
H387 C403 0.959 . S
H388 C403 0.959 . S
H389 C403 0.961 . S
H390 C404 0.960 . S
H391 C404 0.961 . S
H392 C404 0.959 . S
H393 C407 0.929 . S
H394 C408 0.931 . S
H395 C410 0.930 . S
C396 H384 0.930 . S
C396 C397 1.399 1_455 S
C396 C401 1.399 . S
C397 C396 1.399 1_655 S
C397 C398 1.376 . S
C398 H385 0.930 . S
C398 C397 1.376 . S
C398 C399 1.388 . S
C399 H386 0.930 . S
C399 C398 1.388 . S
C399 C400 1.390 . S
C400 C399 1.390 . S
C400 C401 1.394 1_655 S
C400 C406 1.465 . S
C401 C396 1.399 . S
C401 C400 1.394 1_455 S
C401 C402 1.516 . S
C402 C401 1.516 . S
C402 C403 1.502 . S
C402 C404 1.561 1_556 S
C402 C405 1.526 . S
C403 H387 0.959 . S
C403 H388 0.959 . S
C403 H389 0.961 . S
C403 C402 1.502 . S
C404 H390 0.960 . S
C404 H391 0.961 . S
C404 H392 0.959 . S
C404 C402 1.561 1_554 S
C405 C402 1.526 . S
C405 C406 1.396 1_455 S
C405 C410 1.390 . S
C406 C400 1.465 . S
C406 C405 1.396 1_655 S
C406 C407 1.399 . S
C407 H393 0.929 . S
C407 C406 1.399 . S
C407 C408 1.385 . S
C408 H394 0.931 . S
C408 C407 1.385 . S
C408 C409 1.389 . S
C409 C408 1.389 . S
C409 C410 1.387 1_655 S
C410 H395 0.930 . S
C410 C405 1.390 . S
C410 C409 1.387 1_455 S
H411 C423 0.930 . S
H412 C425 0.930 . S
H413 C426 0.930 . S
H414 C430 0.959 . S
H415 C430 0.959 . S
H416 C430 0.961 . S
H417 C431 0.960 . S
H418 C431 0.961 . S
H419 C431 0.959 . S
H420 C434 0.929 . S
H421 C435 0.931 . S
H422 C437 0.930 . S
C423 H411 0.930 . S
C423 C424 1.387 1_455 S
C423 C428 1.399 . S
C424 C423 1.387 1_655 S
C424 C425 1.379 . S
C425 H412 0.930 . S
C425 C424 1.379 . S
C425 C426 1.388 . S
C426 H413 0.930 . S
C426 C425 1.388 . S
C426 C427 1.390 . S
C427 C426 1.390 . S
C427 C428 1.394 1_655 S
C427 C433 1.465 . S
C428 C423 1.399 . S
C428 C427 1.394 1_455 S
C428 C429 1.516 . S
C429 C428 1.516 . S
C429 C430 1.502 . S
C429 C431 1.561 1_455 S
C429 C432 1.519 . S
C430 H414 0.959 . S
C430 H415 0.959 . S
C430 H416 0.961 . S
C430 C429 1.502 . S
C431 H417 0.960 . S
C431 H418 0.961 . S
C431 H419 0.959 . S
C431 C429 1.561 1_655 S
C432 C429 1.519 . S
C432 C433 1.386 1_455 S
C432 C437 1.405 . S
C433 C427 1.465 . S
C433 C432 1.386 1_655 S
C433 C434 1.399 . S
C434 H420 0.929 . S
C434 C433 1.399 . S
C434 C435 1.385 . S
C435 H421 0.931 . S
C435 C434 1.385 . S
C435 C436 1.389 . S
C436 C435 1.389 . S
C436 C437 1.387 1_655 S
C437 H422 0.930 . S
C437 C432 1.405 . S
C437 C436 1.387 1_455 S
H438 C450 0.933 1_545 S
H439 C452 0.930 . S
H440 C453 0.930 . S
H441 C457 0.959 . S
H442 C457 0.959 . S
H443 C457 0.961 . S
H444 C458 0.960 . S
H445 C458 0.961 . S
H446 C458 0.959 . S
H447 C461 0.929 . S
H448 C462 0.931 . S
H449 C464 0.930 . S
C450 H438 0.933 1_565 S
C450 C451 1.399 . S
C450 C455 1.399 . S
C451 C450 1.399 . S
C451 C452 1.376 . S
C452 H439 0.930 . S
C452 C451 1.376 . S
C452 C453 1.388 . S
C453 H440 0.930 . S
C453 C452 1.388 . S
C453 C454 1.390 . S
C454 C453 1.390 . S
C454 C455 1.394 . S
C454 C460 1.465 . S
C455 C450 1.399 . S
C455 C454 1.394 . S
C455 C456 1.516 . S
C456 C455 1.516 . S
C456 C457 1.502 1_565 S
C456 C458 1.561 . S
C456 C459 1.526 . S
C457 H441 0.959 . S
C457 H442 0.959 . S
C457 H443 0.961 . S
C457 C456 1.502 1_545 S
C458 H444 0.960 . S
C458 H445 0.961 . S
C458 H446 0.959 . S
C458 C456 1.561 . S
C459 C456 1.526 . S
C459 C460 1.396 . S
C459 C464 1.390 1_565 S
C460 C454 1.465 . S
C460 C459 1.396 . S
C460 C461 1.399 . S
C461 H447 0.929 . S
C461 C460 1.399 . S
C461 C462 1.385 . S
C462 H448 0.931 . S
C462 C461 1.385 . S
C462 C463 1.389 1_565 S
C463 C462 1.389 1_545 S
C463 C464 1.387 . S
C464 H449 0.930 . S
C464 C459 1.390 1_545 S
C464 C463 1.387 . S
H465 C477 0.930 . S
H466 C479 0.930 . S
H467 C480 0.930 . S
H468 C484 0.959 . S
H469 C484 0.959 . S
H470 C484 0.961 . S
H471 C485 0.960 1_556 S
H472 C485 0.961 1_556 S
H473 C485 0.959 1_556 S
H474 C488 0.929 . S
H475 C489 0.931 . S
H476 C491 0.930 . S
C477 H465 0.930 . S
C477 C478 1.399 . S
C477 C482 1.399 . S
C478 C477 1.399 . S
C478 C479 1.376 . S
C479 H466 0.930 . S
C479 C478 1.376 . S
C479 C480 1.388 . S
C480 H467 0.930 . S
C480 C479 1.388 . S
C480 C481 1.390 . S
C481 C480 1.390 . S
C481 C482 1.394 . S
C481 C487 1.465 . S
C482 C477 1.399 . S
C482 C481 1.394 . S
C482 C483 1.516 . S
C483 C482 1.516 . S
C483 C484 1.502 . S
C483 C485 1.561 . S
C483 C486 1.526 . S
C484 H468 0.959 . S
C484 H469 0.959 . S
C484 H470 0.961 . S
C484 C483 1.502 . S
C485 H471 0.960 1_554 S
C485 H472 0.961 1_554 S
C485 H473 0.959 1_554 S
C485 C483 1.561 . S
C486 C483 1.526 . S
C486 C487 1.396 . S
C486 C491 1.390 . S
C487 C481 1.465 . S
C487 C486 1.396 . S
C487 C488 1.399 . S
C488 H474 0.929 . S
C488 C487 1.399 . S
C488 C489 1.385 . S
C489 H475 0.931 . S
C489 C488 1.385 . S
C489 C490 1.389 . S
C490 C489 1.389 . S
C490 C491 1.387 . S
C491 H476 0.930 . S
C491 C486 1.390 . S
C491 C490 1.387 . S
H492 C504 0.930 . S
H493 C506 0.930 . S
H494 C507 0.930 . S
H495 C511 0.959 . S
H496 C511 0.959 . S
H497 C511 0.961 . S
H498 C512 0.960 . S
H499 C512 0.961 . S
H500 C512 0.959 . S
H501 C515 0.929 . S
H502 C516 0.931 . S
H503 C518 0.930 . S
C504 H492 0.930 . S
C504 C505 1.399 . S
C504 C509 1.399 . S
C505 C504 1.399 . S
C505 C506 1.376 . S
C506 H493 0.930 . S
C506 C505 1.376 . S
C506 C507 1.388 . S
C507 H494 0.930 . S
C507 C506 1.388 . S
C507 C508 1.390 . S
C508 C507 1.390 . S
C508 C509 1.394 . S
C508 C514 1.465 . S
C509 C504 1.399 . S
C509 C508 1.394 . S
C509 C510 1.516 . S
C510 C509 1.516 . S
C510 C511 1.502 . S
C510 C512 1.561 . S
C510 C513 1.526 . S
C511 H495 0.959 . S
C511 H496 0.959 . S
C511 H497 0.961 . S
C511 C510 1.502 . S
C512 H498 0.960 . S
C512 H499 0.961 . S
C512 H500 0.959 . S
C512 C510 1.561 . S
C513 C510 1.526 . S
C513 C514 1.396 . S
C513 C518 1.390 . S
C514 C508 1.465 . S
C514 C513 1.396 . S
C514 C515 1.399 . S
C515 H501 0.929 . S
C515 C514 1.399 . S
C515 C516 1.385 . S
C516 H502 0.931 . S
C516 C515 1.385 . S
C516 C517 1.389 . S
C517 C516 1.389 . S
C517 C518 1.387 . S
C518 H503 0.930 . S
C518 C513 1.390 . S
C518 C517 1.387 . S
H519 C531 0.930 . S
H520 C533 0.930 . S
H521 C534 0.930 . S
H522 C538 0.959 . S
H523 C538 0.959 . S
H524 C538 0.961 . S
H525 C539 0.960 . S
H526 C539 0.961 . S
H527 C539 0.959 . S
H528 C542 0.929 . S
H529 C543 0.931 . S
H530 C545 0.930 . S
C531 H519 0.930 . S
C531 C532 1.399 . S
C531 C536 1.399 . S
C532 C531 1.399 . S
C532 C533 1.376 . S
C533 H520 0.930 . S
C533 C532 1.376 . S
C533 C534 1.388 . S
C534 H521 0.930 . S
C534 C533 1.388 . S
C534 C535 1.390 . S
C535 C534 1.390 . S
C535 C536 1.394 . S
C535 C541 1.465 . S
C536 C531 1.399 . S
C536 C535 1.394 . S
C536 C537 1.516 . S
C537 C536 1.516 . S
C537 C538 1.502 . S
C537 C539 1.561 . S
C537 C540 1.526 . S
C538 H522 0.959 . S
C538 H523 0.959 . S
C538 H524 0.961 . S
C538 C537 1.502 . S
C539 H525 0.960 . S
C539 H526 0.961 . S
C539 H527 0.959 . S
C539 C537 1.561 . S
C540 C537 1.526 . S
C540 C541 1.396 . S
C540 C545 1.390 . S
C541 C535 1.465 . S
C541 C540 1.396 . S
C541 C542 1.399 . S
C542 H528 0.929 . S
C542 C541 1.399 . S
C542 C543 1.385 . S
C543 H529 0.931 . S
C543 C542 1.385 . S
C543 C544 1.389 . S
C544 C543 1.389 . S
C544 C545 1.387 . S
C545 H530 0.930 . S
C545 C540 1.390 . S
C545 C544 1.387 . S
H546 C558 0.930 . S
H547 C560 0.930 . S
H548 C561 0.930 . S
H549 C565 0.959 . S
H550 C565 0.959 . S
H551 C565 0.961 . S
H552 C566 0.960 . S
H553 C566 0.961 1_556 S
H554 C566 0.959 . S
H555 C569 0.929 . S
H556 C570 0.931 . S
H557 C572 0.930 . S
C558 H546 0.930 . S
C558 C559 1.399 . S
C558 C563 1.399 . S
C559 C558 1.399 . S
C559 C560 1.376 . S
C560 H547 0.930 . S
C560 C559 1.376 . S
C560 C561 1.388 . S
C561 H548 0.930 . S
C561 C560 1.388 . S
C561 C562 1.390 . S
C562 C561 1.390 . S
C562 C563 1.394 . S
C562 C568 1.465 . S
C563 C558 1.399 . S
C563 C562 1.394 . S
C563 C564 1.516 1_554 S
C564 C563 1.516 1_556 S
C564 C565 1.502 . S
C564 C566 1.561 1_556 S
C564 C567 1.526 . S
C565 H549 0.959 . S
C565 H550 0.959 . S
C565 H551 0.961 . S
C565 C564 1.502 . S
C566 H552 0.960 . S
C566 H553 0.961 1_554 S
C566 H554 0.959 . S
C566 C564 1.561 1_554 S
C567 C564 1.526 . S
C567 C568 1.396 1_556 S
C567 C572 1.390 . S
C568 C562 1.465 . S
C568 C567 1.396 1_554 S
C568 C569 1.399 . S
C569 H555 0.929 . S
C569 C568 1.399 . S
C569 C570 1.385 1_554 S
C570 H556 0.931 . S
C570 C569 1.385 1_556 S
C570 C571 1.389 . S
C571 C570 1.389 . S
C571 C572 1.387 . S
C572 H557 0.930 . S
C572 C567 1.390 . S
C572 C571 1.387 . S
H573 C585 0.930 . S
H574 C587 0.930 . S
H575 C588 0.930 . S
H576 C592 0.959 . S
H577 C592 0.959 . S
H578 C592 0.961 . S
H579 C593 0.960 . S
H580 C593 0.961 . S
H581 C593 0.959 . S
H582 C596 0.929 . S
H583 C597 0.931 . S
H584 C599 0.930 . S
C585 H573 0.930 . S
C585 C586 1.399 . S
C585 C590 1.399 . S
C586 C585 1.399 . S
C586 C587 1.376 . S
C587 H574 0.930 . S
C587 C586 1.376 . S
C587 C588 1.388 . S
C588 H575 0.930 . S
C588 C587 1.388 . S
C588 C589 1.390 . S
C589 C588 1.390 . S
C589 C590 1.394 . S
C589 C595 1.465 . S
C590 C585 1.399 . S
C590 C589 1.394 . S
C590 C591 1.516 . S
C591 C590 1.516 . S
C591 C592 1.502 . S
C591 C593 1.561 . S
C591 C594 1.526 . S
C592 H576 0.959 . S
C592 H577 0.959 . S
C592 H578 0.961 . S
C592 C591 1.502 . S
C593 H579 0.960 . S
C593 H580 0.961 . S
C593 H581 0.959 . S
C593 C591 1.561 . S
C594 C591 1.526 . S
C594 C595 1.396 . S
C594 C599 1.390 . S
C595 C589 1.465 . S
C595 C594 1.396 . S
C595 C596 1.399 . S
C596 H582 0.929 . S
C596 C595 1.399 . S
C596 C597 1.385 . S
C597 H583 0.931 . S
C597 C596 1.385 . S
C597 C598 1.389 . S
C598 C597 1.389 . S
C598 C599 1.387 . S
C599 H584 0.930 . S
C599 C594 1.390 . S
C599 C598 1.387 . S
H600 C612 0.930 . S
H601 C614 0.930 . S
H602 C615 0.930 . S
H603 C619 0.959 . S
H604 C619 0.959 . S
H605 C619 0.961 . S
H606 C620 0.960 . S
H607 C620 0.961 . S
H608 C620 0.959 . S
H609 C623 0.929 . S
H610 C624 0.931 . S
H611 C626 0.930 . S
C612 H600 0.930 . S
C612 C613 1.399 . S
C612 C617 1.399 . S
C613 C612 1.399 . S
C613 C614 1.376 . S
C614 H601 0.930 . S
C614 C613 1.376 . S
C614 C615 1.388 . S
C615 H602 0.930 . S
C615 C614 1.388 . S
C615 C616 1.390 . S
C616 C615 1.390 . S
C616 C617 1.394 . S
C616 C622 1.465 . S
C617 C612 1.399 . S
C617 C616 1.394 . S
C617 C618 1.516 . S
C618 C617 1.516 . S
C618 C619 1.502 . S
C618 C620 1.561 . S
C618 C621 1.526 . S
C619 H603 0.959 . S
C619 H604 0.959 . S
C619 H605 0.961 . S
C619 C618 1.502 . S
C620 H606 0.960 . S
C620 H607 0.961 . S
C620 H608 0.959 . S
C620 C618 1.561 . S
C621 C618 1.526 . S
C621 C622 1.396 . S
C621 C626 1.390 . S
C622 C616 1.465 . S
C622 C621 1.396 . S
C622 C623 1.399 . S
C623 H609 0.929 . S
C623 C622 1.399 . S
C623 C624 1.385 . S
C624 H610 0.931 . S
C624 C623 1.385 . S
C624 C625 1.389 . S
C625 C624 1.389 . S
C625 C626 1.387 . S
C626 H611 0.930 . S
C626 C621 1.390 . S
C626 C625 1.387 . S
H627 C639 0.930 1_556 S
H628 C641 0.930 . S
H629 C642 0.930 . S
H630 C646 0.959 . S
H631 C646 0.959 . S
H632 C646 0.961 . S
H633 C647 0.960 . S
H634 C647 0.961 . S
H635 C647 0.959 . S
H636 C650 0.929 . S
H637 C651 0.931 1_554 S
H638 C653 0.930 . S
C639 H627 0.930 1_554 S
C639 C640 1.399 . S
C639 C644 1.399 1_554 S
C640 C639 1.399 . S
C640 C641 1.376 . S
C641 H628 0.930 . S
C641 C640 1.376 . S
C641 C642 1.388 . S
C642 H629 0.930 . S
C642 C641 1.388 . S
C642 C643 1.390 . S
C643 C642 1.390 . S
C643 C644 1.394 1_554 S
C643 C649 1.465 . S
C644 C639 1.399 1_556 S
C644 C643 1.394 1_556 S
C644 C645 1.516 . S
C645 C644 1.516 . S
C645 C646 1.502 . S
C645 C647 1.561 . S
C645 C648 1.526 . S
C646 H630 0.959 . S
C646 H631 0.959 . S
C646 H632 0.961 . S
C646 C645 1.502 . S
C647 H633 0.960 . S
C647 H634 0.961 . S
C647 H635 0.959 . S
C647 C645 1.561 . S
C648 C645 1.526 . S
C648 C649 1.396 1_556 S
C648 C653 1.390 . S
C649 C643 1.465 . S
C649 C648 1.396 1_554 S
C649 C650 1.399 . S
C650 H636 0.929 . S
C650 C649 1.399 . S
C650 C651 1.385 1_554 S
C651 H637 0.931 1_556 S
C651 C650 1.385 1_556 S
C651 C652 1.389 . S
C652 C651 1.389 . S
C652 C653 1.387 . S
C653 H638 0.930 . S
C653 C648 1.390 . S
C653 C652 1.387 . S
H654 C666 0.930 . S
H655 C668 0.930 . S
H656 C669 0.930 . S
H657 C673 0.959 . S
H658 C673 0.959 . S
H659 C673 0.961 . S
H660 C674 0.960 . S
H661 C674 0.961 . S
H662 C674 0.959 . S
H663 C677 0.929 . S
H664 C678 0.931 . S
H665 C680 0.930 . S
C666 H654 0.930 . S
C666 C667 1.399 . S
C666 C671 1.399 . S
C667 C666 1.399 . S
C667 C668 1.376 1_545 S
C668 H655 0.930 . S
C668 C667 1.376 1_565 S
C668 C669 1.388 . S
C669 H656 0.930 . S
C669 C668 1.388 . S
C669 C670 1.390 . S
C670 C669 1.390 . S
C670 C671 1.394 1_565 S
C670 C676 1.465 . S
C671 C666 1.399 . S
C671 C670 1.394 1_545 S
C671 C672 1.516 . S
C672 C671 1.516 . S
C672 C673 1.502 . S
C672 C674 1.561 . S
C672 C675 1.526 . S
C673 H657 0.959 . S
C673 H658 0.959 . S
C673 H659 0.961 . S
C673 C672 1.502 . S
C674 H660 0.960 . S
C674 H661 0.961 . S
C674 H662 0.959 . S
C674 C672 1.561 . S
C675 C672 1.526 . S
C675 C676 1.396 1_545 S
C675 C680 1.390 . S
C676 C670 1.465 . S
C676 C675 1.396 1_565 S
C676 C677 1.399 . S
C677 H663 0.929 . S
C677 C676 1.399 . S
C677 C678 1.385 . S
C678 H664 0.931 . S
C678 C677 1.385 . S
C678 C679 1.389 . S
C679 C678 1.389 . S
C679 C680 1.387 1_565 S
C680 H665 0.930 . S
C680 C675 1.390 . S
C680 C679 1.387 1_545 S
H681 C693 0.930 . S
H682 C695 0.930 . S
H683 C696 0.930 . S
H684 C700 0.959 . S
H685 C700 0.959 . S
H686 C700 0.961 . S
H687 C701 0.960 . S
H688 C701 0.961 . S
H689 C701 0.959 . S
H690 C704 0.929 . S
H691 C705 0.931 . S
H692 C707 0.930 . S
C693 H681 0.930 . S
C693 C694 1.399 . S
C693 C698 1.399 . S
C694 C693 1.399 . S
C694 C695 1.376 . S
C695 H682 0.930 . S
C695 C694 1.376 . S
C695 C696 1.388 . S
C696 H683 0.930 . S
C696 C695 1.388 . S
C696 C697 1.390 . S
C697 C696 1.390 . S
C697 C698 1.394 . S
C697 C703 1.465 . S
C698 C693 1.399 . S
C698 C697 1.394 . S
C698 C699 1.516 . S
C699 C698 1.516 . S
C699 C700 1.502 . S
C699 C701 1.561 . S
C699 C702 1.526 . S
C700 H684 0.959 . S
C700 H685 0.959 . S
C700 H686 0.961 . S
C700 C699 1.502 . S
C701 H687 0.960 . S
C701 H688 0.961 . S
C701 H689 0.959 . S
C701 C699 1.561 . S
C702 C699 1.526 . S
C702 C703 1.396 . S
C702 C707 1.390 . S
C703 C697 1.465 . S
C703 C702 1.396 . S
C703 C704 1.399 . S
C704 H690 0.929 . S
C704 C703 1.399 . S
C704 C705 1.385 . S
C705 H691 0.931 . S
C705 C704 1.385 . S
C705 C706 1.389 . S
C706 C705 1.389 . S
C706 C707 1.387 . S
C707 H692 0.930 . S
C707 C702 1.390 . S
C707 C706 1.387 . S
H708 C720 0.930 . S
H709 C722 0.930 . S
H710 C723 0.930 . S
H711 C727 0.959 . S
H712 C727 0.959 . S
H713 C727 0.961 . S
H714 C728 0.960 . S
H715 C728 0.961 . S
H716 C728 0.959 . S
H717 C731 0.945 . S
H718 C732 0.931 . S
H719 C734 0.930 . S
C720 H708 0.930 . S
C720 C721 1.399 . S
C720 C725 1.399 . S
C721 C720 1.399 . S
C721 C722 1.376 . S
C722 H709 0.930 . S
C722 C721 1.376 . S
C722 C723 1.388 . S
C723 H710 0.930 . S
C723 C722 1.388 . S
C723 C724 1.390 . S
C724 C723 1.390 . S
C724 C725 1.394 . S
C724 C730 1.465 . S
C725 C720 1.399 . S
C725 C724 1.394 . S
C725 C726 1.516 . S
C726 C725 1.516 . S
C726 C727 1.502 1_455 S
C726 C728 1.561 . S
C726 C729 1.526 1_455 S
C727 H711 0.959 . S
C727 H712 0.959 . S
C727 H713 0.961 . S
C727 C726 1.502 1_655 S
C728 H714 0.960 . S
C728 H715 0.961 . S
C728 H716 0.959 . S
C728 C726 1.561 . S
C729 C726 1.526 1_655 S
C729 C730 1.396 1_655 S
C729 C734 1.390 . S
C730 C724 1.465 . S
C730 C729 1.396 1_455 S
C730 C731 1.390 . S
C731 H717 0.945 . S
C731 C730 1.390 . S
C731 C732 1.379 1_455 S
C732 H718 0.931 . S
C732 C731 1.379 1_655 S
C732 C733 1.389 . S
C733 C732 1.389 . S
C733 C734 1.387 . S
C734 H719 0.930 . S
C734 C729 1.390 . S
C734 C733 1.387 . S
H735 C747 0.930 . S
H736 C749 0.930 . S
H737 C750 0.930 . S
H738 C754 0.959 . S
H739 C754 0.959 . S
H740 C754 0.961 . S
H741 C755 0.960 . S
H742 C755 0.961 . S
H743 C755 0.959 . S
H744 C758 0.929 . S
H745 C759 0.931 . S
H746 C761 0.930 . S
C747 H735 0.930 . S
C747 C748 1.399 1_545 S
C747 C752 1.399 . S
C748 C747 1.399 1_565 S
C748 C749 1.376 . S
C749 H736 0.930 . S
C749 C748 1.376 . S
C749 C750 1.388 . S
C750 H737 0.930 . S
C750 C749 1.388 . S
C750 C751 1.390 . S
C751 C750 1.390 . S
C751 C752 1.394 1_565 S
C751 C757 1.465 . S
C752 C747 1.399 . S
C752 C751 1.394 1_545 S
C752 C753 1.516 . S
C753 C752 1.516 . S
C753 C754 1.502 . S
C753 C755 1.561 . S
C753 C756 1.526 . S
C754 H738 0.959 . S
C754 H739 0.959 . S
C754 H740 0.961 . S
C754 C753 1.502 . S
C755 H741 0.960 . S
C755 H742 0.961 . S
C755 H743 0.959 . S
C755 C753 1.561 . S
C756 C753 1.526 . S
C756 C757 1.396 1_545 S
C756 C761 1.390 . S
C757 C751 1.465 . S
C757 C756 1.396 1_565 S
C757 C758 1.399 . S
C758 H744 0.929 . S
C758 C757 1.399 . S
C758 C759 1.385 . S
C759 H745 0.931 . S
C759 C758 1.385 . S
C759 C760 1.389 1_565 S
C760 C759 1.389 1_545 S
C760 C761 1.387 . S
C761 H746 0.930 . S
C761 C756 1.390 . S
C761 C760 1.387 . S
H762 C774 0.930 . S
H763 C776 0.930 . S
H764 C777 0.930 . S
H765 C781 0.959 . S
H766 C781 0.959 . S
H767 C781 0.961 . S
H768 C782 0.960 . S
H769 C782 0.961 . S
H770 C782 0.959 . S
H771 C785 0.929 . S
H772 C786 0.931 . S
H773 C788 0.930 . S
C774 H762 0.930 . S
C774 C775 1.399 . S
C774 C779 1.399 . S
C775 C774 1.399 . S
C775 C776 1.376 . S
C776 H763 0.930 . S
C776 C775 1.376 . S
C776 C777 1.388 . S
C777 H764 0.930 . S
C777 C776 1.388 . S
C777 C778 1.390 . S
C778 C777 1.390 . S
C778 C779 1.394 . S
C778 C784 1.465 . S
C779 C774 1.399 . S
C779 C778 1.394 . S
C779 C780 1.516 . S
C780 C779 1.516 . S
C780 C781 1.502 . S
C780 C782 1.561 . S
C780 C783 1.526 . S
C781 H765 0.959 . S
C781 H766 0.959 . S
C781 H767 0.961 . S
C781 C780 1.502 . S
C782 H768 0.960 . S
C782 H769 0.961 . S
C782 H770 0.959 . S
C782 C780 1.561 . S
C783 C780 1.526 . S
C783 C784 1.396 . S
C783 C788 1.390 . S
C784 C778 1.465 . S
C784 C783 1.396 . S
C784 C785 1.399 . S
C785 H771 0.929 . S
C785 C784 1.399 . S
C785 C786 1.385 . S
C786 H772 0.931 . S
C786 C785 1.385 . S
C786 C787 1.389 . S
C787 C786 1.389 . S
C787 C788 1.387 . S
C788 H773 0.930 . S
C788 C783 1.390 . S
C788 C787 1.387 . S
H789 C801 0.930 . S
H790 C803 0.930 . S
H791 C804 0.930 . S
H792 C808 0.959 . S
H793 C808 0.959 . S
H794 C808 0.961 . S
H795 C809 0.960 . S
H796 C809 0.961 . S
H797 C809 0.959 . S
H798 C812 0.929 . S
H799 C813 0.931 . S
H800 C815 0.930 . S
C801 H789 0.930 . S
C801 C802 1.399 . S
C801 C806 1.399 . S
C802 C801 1.399 . S
C802 C803 1.376 . S
C803 H790 0.930 . S
C803 C802 1.376 . S
C803 C804 1.388 . S
C804 H791 0.930 . S
C804 C803 1.388 . S
C804 C805 1.390 . S
C805 C804 1.390 . S
C805 C806 1.394 . S
C805 C811 1.466 . S
C806 C801 1.399 . S
C806 C805 1.394 . S
C806 C807 1.516 . S
C807 C806 1.516 . S
C807 C808 1.502 1_655 S
C807 C809 1.561 . S
C807 C810 1.521 . S
C808 H792 0.959 . S
C808 H793 0.959 . S
C808 H794 0.961 . S
C808 C807 1.502 1_455 S
C809 H795 0.960 . S
C809 H796 0.961 . S
C809 H797 0.959 . S
C809 C807 1.561 . S
C810 C807 1.521 . S
C810 C811 1.407 . S
C810 C815 1.384 1_655 S
C811 C805 1.466 . S
C811 C810 1.407 . S
C811 C812 1.400 1_655 S
C812 H798 0.929 . S
C812 C811 1.400 1_455 S
C812 C813 1.385 . S
C813 H799 0.931 . S
C813 C812 1.385 . S
C813 C814 1.389 . S
C814 C813 1.389 . S
C814 C815 1.387 . S
C815 H800 0.930 . S
C815 C810 1.384 1_455 S
C815 C814 1.387 . S
C181 C11 1.690 . S
C193 C123 1.690 . S
C208 C25 1.687 . S
C220 C137 1.690 . S
C235 C151 1.672 . S
C247 C39 1.675 . S
C262 C165 1.685 . S
C274 C53 1.689 . S
C289 C95 1.689 . S
C301 C67 1.690 . S
C316 C109 1.679 . S
C328 C81 1.669 . S
C343 C13 1.326 . S
C355 C55 1.398 1_565 S
C370 C69 1.390 . S
C382 C27 1.293 . S
C397 C83 1.291 . S
C409 C41 1.382 1_655 S
C424 C97 1.340 1_655 S
C436 C139 1.288 . S
C451 C153 1.351 . S
C463 C111 1.376 . S
C478 C125 1.284 . S
C490 C167 1.383 . S
C505 C91 1.033 . S
C517 C7 1.127 . S
C532 C21 1.133 . S
C544 C105 1.034 . S
C559 C119 1.111 . S
C571 C35 1.042 . S
C586 C133 1.114 . S
C598 C49 1.083 . S
C613 C63 1.030 . S
C625 C147 1.126 . S
C640 C161 1.121 . S
C652 C77 1.068 . S
C667 C8 1.017 . S
C679 C106 1.067 . S
C694 C120 0.967 . S
C706 C22 1.022 . S
C721 C134 1.077 . S
C733 C36 1.059 . S
C748 C50 1.008 . S
C760 C148 0.961 . S
C775 C162 1.060 . S
C787 C64 1.004 . S
C802 C92 1.075 . S
C814 C78 1.063 . S
