# Generated by pormake.
# Topology wld, (5)-cn, num edge types: 1
# Building blocks:
#     Node 0, Type 0, BuildingBlock: XOMCOT_clean_sbu_0, # of connection points: 5
#     Node 1, Type 0, BuildingBlock: XOMCOT_clean_sbu_0, # of connection points: 5
#     Node 2, Type 0, BuildingBlock: XOMCOT_clean_sbu_0, # of connection points: 5
#     Node 3, Type 0, BuildingBlock: XOMCOT_clean_sbu_0, # of connection points: 5
#     Node 4, Type 0, BuildingBlock: XOMCOT_clean_sbu_0, # of connection points: 5
#     Node 5, Type 0, BuildingBlock: XOMCOT_clean_sbu_0, # of connection points: 5
#     Node 6, Type 0, BuildingBlock: XOMCOT_clean_sbu_0, # of connection points: 5
#     Node 7, Type 0, BuildingBlock: XOMCOT_clean_sbu_0, # of connection points: 5
#     Node 8, Type 0, BuildingBlock: XOMCOT_clean_sbu_0, # of connection points: 5
#     Node 9, Type 0, BuildingBlock: XOMCOT_clean_sbu_0, # of connection points: 5
#     Node 10, Type 0, BuildingBlock: XOMCOT_clean_sbu_0, # of connection points: 5
#     Node 11, Type 0, BuildingBlock: XOMCOT_clean_sbu_0, # of connection points: 5
#     Edge 12, Type (0, 0), BuildingBlock: UVAHIK_clean_linker_0, # of connection points: 2
#     Edge 13, Type (0, 0), BuildingBlock: UVAHIK_clean_linker_0, # of connection points: 2
#     Edge 14, Type (0, 0), BuildingBlock: UVAHIK_clean_linker_0, # of connection points: 2
#     Edge 15, Type (0, 0), BuildingBlock: UVAHIK_clean_linker_0, # of connection points: 2
#     Edge 16, Type (0, 0), BuildingBlock: UVAHIK_clean_linker_0, # of connection points: 2
#     Edge 17, Type (0, 0), BuildingBlock: UVAHIK_clean_linker_0, # of connection points: 2
#     Edge 18, Type (0, 0), BuildingBlock: UVAHIK_clean_linker_0, # of connection points: 2
#     Edge 19, Type (0, 0), BuildingBlock: UVAHIK_clean_linker_0, # of connection points: 2
#     Edge 20, Type (0, 0), BuildingBlock: UVAHIK_clean_linker_0, # of connection points: 2
#     Edge 21, Type (0, 0), BuildingBlock: UVAHIK_clean_linker_0, # of connection points: 2
#     Edge 22, Type (0, 0), BuildingBlock: UVAHIK_clean_linker_0, # of connection points: 2
#     Edge 23, Type (0, 0), BuildingBlock: UVAHIK_clean_linker_0, # of connection points: 2
#     Edge 24, Type (0, 0), BuildingBlock: UVAHIK_clean_linker_0, # of connection points: 2
#     Edge 25, Type (0, 0), BuildingBlock: UVAHIK_clean_linker_0, # of connection points: 2
#     Edge 26, Type (0, 0), BuildingBlock: UVAHIK_clean_linker_0, # of connection points: 2
#     Edge 27, Type (0, 0), BuildingBlock: UVAHIK_clean_linker_0, # of connection points: 2
#     Edge 28, Type (0, 0), BuildingBlock: UVAHIK_clean_linker_0, # of connection points: 2
#     Edge 29, Type (0, 0), BuildingBlock: UVAHIK_clean_linker_0, # of connection points: 2
#     Edge 30, Type (0, 0), BuildingBlock: UVAHIK_clean_linker_0, # of connection points: 2
#     Edge 31, Type (0, 0), BuildingBlock: UVAHIK_clean_linker_0, # of connection points: 2
#     Edge 32, Type (0, 0), BuildingBlock: UVAHIK_clean_linker_0, # of connection points: 2
#     Edge 33, Type (0, 0), BuildingBlock: UVAHIK_clean_linker_0, # of connection points: 2
#     Edge 34, Type (0, 0), BuildingBlock: UVAHIK_clean_linker_0, # of connection points: 2
#     Edge 35, Type (0, 0), BuildingBlock: UVAHIK_clean_linker_0, # of connection points: 2
#     Edge 36, Type (0, 0), BuildingBlock: UVAHIK_clean_linker_0, # of connection points: 2
#     Edge 37, Type (0, 0), BuildingBlock: UVAHIK_clean_linker_0, # of connection points: 2
#     Edge 38, Type (0, 0), BuildingBlock: UVAHIK_clean_linker_0, # of connection points: 2
#     Edge 39, Type (0, 0), BuildingBlock: UVAHIK_clean_linker_0, # of connection points: 2
#     Edge 40, Type (0, 0), BuildingBlock: UVAHIK_clean_linker_0, # of connection points: 2
#     Edge 41, Type (0, 0), BuildingBlock: UVAHIK_clean_linker_0, # of connection points: 2
# Relax obj value: 0.214
# Max RMSD: 0.221
# Mean RMSD: 0.221
data_MOF--net-wld--node1-XOMCOT_clean_sbu_0--edge1-UVAHIK_clean_linker_0
_symmetry_space_group_name_H-M    P1
_symmetry_Int_Tables_number       1
_symmetry_cell_setting            triclinic
loop_
_symmetry_equiv_pos_as_xyz
'x, y, z'
_cell_length_a     47.633074
_cell_length_b     47.621272
_cell_length_c     64.056305
_cell_angle_alpha  90.000112
_cell_angle_beta   89.994904
_cell_angle_gamma 119.9877
loop_
_atom_site_label
_atom_site_type_symbol
_atom_site_fract_x
_atom_site_fract_y
_atom_site_fract_z
_atom_type_partial_charge
Co0 Co 0.38969 0.23832 0.09663 0.0
C1 C 0.35161 0.26417 0.07652 0.0
C2 C 0.40277 0.29493 0.07151 0.0
C3 C 0.38679 0.3086 0.06177 0.0
N4 N 0.38071 0.26727 0.08084 0.0
N5 N 0.35469 0.28922 0.06491 0.0
H6 H 0.32876 0.2441 0.08179 0.0
H7 H 0.42865 0.30431 0.0715 0.0
C8 C 0.44834 0.28278 0.12184 0.0
O9 O 0.43511 0.26384 0.1381 0.0
N10 N 0.39983 0.20932 0.11194 0.0
C11 C 0.38064 0.18218 0.12297 0.0
C12 C 0.39857 0.16807 0.12891 0.0
C13 C 0.42869 0.21056 0.11079 0.0
N14 N 0.42884 0.18609 0.12128 0.0
C15 C 0.34084 0.22052 0.12848 0.0
C16 C 0.36876 0.28081 0.14717 0.0
C17 C 0.34237 0.2546 0.15689 0.0
C18 C 0.32736 0.22443 0.14687 0.0
C19 C 0.3811 0.27583 0.12872 0.0
N20 N 0.36903 0.24536 0.12069 0.0
H21 H 0.32862 0.19749 0.12056 0.0
H22 H 0.40074 0.29655 0.1211 0.0
H23 H 0.35515 0.17209 0.12588 0.0
H24 H 0.44889 0.22852 0.10174 0.0
O25 O 0.35253 0.20144 0.08427 0.0
O26 O 0.40245 0.22589 0.07136 0.0
O27 O 0.43336 0.27604 0.10438 0.0
C28 C 0.37236 0.20297 0.06974 0.0
H29 H 0.39784 0.33058 0.05254 0.0
H30 H 0.3898 0.14598 0.13787 0.0
H31 H 0.37991 0.30491 0.15386 0.0
H32 H 0.30604 0.2039 0.15347 0.0
Co33 Co 0.76443 0.15097 0.09529 0.0
C34 C 0.7377 0.08511 0.07514 0.0
C35 C 0.71434 0.11152 0.06546 0.0
C36 C 0.69971 0.08222 0.0554 0.0
N37 N 0.73752 0.1131 0.07834 0.0
N38 N 0.71441 0.06575 0.0615 0.0
H39 H 0.75429 0.07879 0.08223 0.0
H40 H 0.70848 0.13057 0.06353 0.0
C41 C 0.69668 0.1297 0.10815 0.0
O42 O 0.69203 0.10011 0.10936 0.0
N43 N 0.79063 0.18966 0.11123 0.0
C44 C 0.81433 0.19608 0.12514 0.0
C45 C 0.82675 0.22758 0.13209 0.0
C46 C 0.78913 0.217 0.10969 0.0
N47 N 0.81092 0.24057 0.12218 0.0
C48 C 0.77554 0.10696 0.12001 0.0
C49 C 0.74447 0.11053 0.1555 0.0
C50 C 0.75715 0.08965 0.15529 0.0
C51 C 0.77371 0.08862 0.13753 0.0
C52 C 0.74742 0.12885 0.13784 0.0
N53 N 0.76074 0.12522 0.11985 0.0
H54 H 0.78943 0.10693 0.10673 0.0
H55 H 0.73932 0.14629 0.13882 0.0
H56 H 0.82225 0.17928 0.12971 0.0
H57 H 0.77242 0.21958 0.0995 0.0
O58 O 0.80299 0.15423 0.08308 0.0
O59 O 0.7757 0.17683 0.07024 0.0
O60 O 0.72459 0.15332 0.10322 0.0
C61 C 0.80014 0.1719 0.06867 0.0
H62 H 0.68029 0.07389 0.04408 0.0
H63 H 0.84641 0.24021 0.14308 0.0
H64 H 0.73286 0.11307 0.16935 0.0
H65 H 0.78481 0.07356 0.13712 0.0
Co66 Co 0.84188 0.60636 0.09323 0.0
C67 C 0.90349 0.63898 0.06955 0.0
C68 C 0.87676 0.58751 0.06435 0.0
C69 C 0.90434 0.60056 0.05239 0.0
N70 N 0.87633 0.61155 0.07511 0.0
N71 N 0.92108 0.63292 0.05556 0.0
H72 H 0.90971 0.66281 0.0752 0.0
H73 H 0.85807 0.56228 0.06491 0.0
C74 C 0.82641 0.54786 0.11893 0.0
O75 O 0.82344 0.56262 0.1354 0.0
N76 N 0.80583 0.59951 0.11091 0.0
C77 C 0.80339 0.61593 0.1274 0.0
C78 C 0.77198 0.59946 0.13483 0.0
C79 C 0.77583 0.57384 0.10845 0.0
N80 N 0.75482 0.57315 0.12277 0.0
C81 C 0.8805 0.6572 0.12239 0.0
C82 C 0.9107 0.62645 0.14025 0.0
C83 C 0.91464 0.65487 0.1494 0.0
C84 C 0.9006 0.67123 0.13971 0.0
C85 C 0.89076 0.61359 0.12285 0.0
N86 N 0.87352 0.62731 0.11542 0.0
H87 H 0.86926 0.66966 0.11521 0.0
H88 H 0.88883 0.59222 0.11564 0.0
H89 H 0.82251 0.63799 0.134 0.0
H90 H 0.76978 0.55526 0.09677 0.0
O91 O 0.84299 0.644 0.0809 0.0
O92 O 0.81327 0.59345 0.06955 0.0
O93 O 0.83402 0.56211 0.10123 0.0
C94 C 0.82199 0.62391 0.0675 0.0
H95 H 0.91146 0.58713 0.04216 0.0
H96 H 0.76249 0.60633 0.14801 0.0
H97 H 0.92256 0.61401 0.1467 0.0
H98 H 0.90391 0.69381 0.14598 0.0
Co99 Co 0.23152 0.38849 0.40708 0.0
C100 C 0.25948 0.35418 0.43 0.0
C101 C 0.28548 0.40558 0.43546 0.0
C102 C 0.29956 0.39174 0.44709 0.0
N103 N 0.2605 0.38209 0.42473 0.0
N104 N 0.28314 0.35941 0.44377 0.0
H105 H 0.24131 0.3306 0.42431 0.0
H106 H 0.29267 0.431 0.43513 0.0
C107 C 0.27515 0.44748 0.3821 0.0
O108 O 0.25751 0.43321 0.36551 0.0
N109 N 0.20263 0.39651 0.3899 0.0
C110 C 0.18327 0.38044 0.37355 0.0
C111 C 0.16892 0.39762 0.36639 0.0
C112 C 0.19922 0.42271 0.39257 0.0
N113 N 0.179 0.42411 0.37846 0.0
C114 C 0.21841 0.33803 0.37763 0.0
C115 C 0.27991 0.36626 0.36073 0.0
C116 C 0.25549 0.33705 0.35222 0.0
C117 C 0.22459 0.32248 0.3613 0.0
C118 C 0.27267 0.38081 0.37714 0.0
N119 N 0.24166 0.3679 0.38437 0.0
H120 H 0.19463 0.32616 0.38465 0.0
H121 H 0.29221 0.40241 0.38406 0.0
H122 H 0.17961 0.35815 0.36686 0.0
H123 H 0.21238 0.44115 0.40424 0.0
O124 O 0.19491 0.3506 0.41876 0.0
O125 O 0.21594 0.40047 0.43144 0.0
O126 O 0.26824 0.43279 0.39965 0.0
C127 C 0.19421 0.36989 0.43285 0.0
H128 H 0.32035 0.40462 0.45722 0.0
H129 H 0.15235 0.39112 0.35335 0.0
H130 H 0.30437 0.37817 0.3546 0.0
H131 H 0.20534 0.29921 0.35589 0.0
Co132 Co 0.6068 0.84669 0.40117 0.0
C133 C 0.64356 0.91007 0.42241 0.0
C134 C 0.59211 0.89128 0.42352 0.0
C135 C 0.60718 0.92045 0.43382 0.0
N136 N 0.61491 0.88497 0.41624 0.0
N137 N 0.63944 0.93216 0.43314 0.0
H138 H 0.66679 0.912 0.41925 0.0
H139 H 0.56625 0.87543 0.42195 0.0
C140 C 0.55064 0.83182 0.37318 0.0
O141 O 0.5637 0.8228 0.35849 0.0
N142 N 0.59714 0.80707 0.38653 0.0
C143 C 0.61252 0.8008 0.37103 0.0
C144 C 0.59416 0.76859 0.36546 0.0
C145 C 0.57007 0.77849 0.39025 0.0
N146 N 0.56759 0.75474 0.37764 0.0
C147 C 0.66058 0.87746 0.37302 0.0
C148 C 0.63891 0.91313 0.35136 0.0
C149 C 0.6676 0.9143 0.34498 0.0
C150 C 0.67877 0.89667 0.35628 0.0
C151 C 0.62126 0.89322 0.36801 0.0
N152 N 0.63114 0.87414 0.37779 0.0
H153 H 0.66983 0.8645 0.38183 0.0
H154 H 0.59987 0.89359 0.37313 0.0
H155 H 0.63499 0.81785 0.36372 0.0
H156 H 0.55176 0.77551 0.40145 0.0
O157 O 0.64177 0.84587 0.41578 0.0
O158 O 0.59075 0.82178 0.4266 0.0
O159 O 0.56483 0.84216 0.39074 0.0
C160 C 0.62036 0.8281 0.42971 0.0
H161 H 0.59528 0.93159 0.44191 0.0
H162 H 0.59986 0.75636 0.35335 0.0
H163 H 0.62987 0.92704 0.34334 0.0
H164 H 0.70141 0.89782 0.35224 0.0
Co165 Co 0.15659 0.76443 0.40106 0.0
C166 C 0.09548 0.73921 0.42483 0.0
C167 C 0.12007 0.71258 0.43099 0.0
C168 C 0.0932 0.70063 0.44361 0.0
N169 N 0.12141 0.73667 0.41927 0.0
N170 N 0.07786 0.71745 0.43977 0.0
H171 H 0.09046 0.75745 0.41875 0.0
H172 H 0.13798 0.70495 0.43088 0.0
C173 C 0.16349 0.71565 0.37512 0.0
O174 O 0.16476 0.73188 0.35821 0.0
N175 N 0.19334 0.79255 0.38342 0.0
C176 C 0.20352 0.82343 0.37745 0.0
C177 C 0.23435 0.83677 0.36929 0.0
C178 C 0.21877 0.78823 0.37946 0.0
N179 N 0.24362 0.81437 0.37045 0.0
C180 C 0.12438 0.78084 0.36943 0.0
C181 C 0.08271 0.71806 0.35651 0.0
C182 C 0.08315 0.74376 0.34549 0.0
C183 C 0.10362 0.77545 0.35264 0.0
C184 C 0.10358 0.72458 0.37338 0.0
N185 N 0.12564 0.75575 0.37873 0.0
H186 H 0.13913 0.8052 0.37504 0.0
H187 H 0.10251 0.70445 0.38185 0.0
H188 H 0.19098 0.83664 0.38041 0.0
H189 H 0.22036 0.76748 0.38467 0.0
O190 O 0.1573 0.80173 0.41329 0.0
O191 O 0.18539 0.77911 0.42478 0.0
O192 O 0.16095 0.7258 0.3931 0.0
C193 C 0.17756 0.80156 0.42685 0.0
H194 H 0.08578 0.68136 0.45496 0.0
H195 H 0.24937 0.86144 0.36388 0.0
H196 H 0.06708 0.6931 0.35186 0.0
H197 H 0.10364 0.79598 0.34536 0.0
Co198 Co 0.6077 0.7632 0.90018 0.0
C199 C 0.64215 0.7345 0.92201 0.0
C200 C 0.59044 0.70588 0.92566 0.0
C201 C 0.60441 0.69078 0.93609 0.0
N202 N 0.61406 0.73304 0.91669 0.0
N203 N 0.63683 0.70879 0.9338 0.0
H204 H 0.66584 0.75379 0.91731 0.0
H205 H 0.56484 0.69778 0.92493 0.0
C206 C 0.55104 0.71773 0.87345 0.0
O207 O 0.56606 0.73463 0.85675 0.0
N208 N 0.60018 0.79361 0.88423 0.0
C209 C 0.62154 0.82482 0.87934 0.0
C210 C 0.60477 0.83977 0.87258 0.0
C211 C 0.57079 0.79064 0.88104 0.0
N212 N 0.57289 0.81803 0.87355 0.0
C213 C 0.65555 0.78072 0.86766 0.0
C214 C 0.63254 0.71838 0.85307 0.0
C215 C 0.65799 0.74423 0.84232 0.0
C216 C 0.67009 0.77569 0.85021 0.0
C217 C 0.61899 0.7245 0.87053 0.0
N218 N 0.62913 0.75553 0.87683 0.0
H219 H 0.66585 0.80483 0.87387 0.0
H220 H 0.59971 0.70417 0.87871 0.0
H221 H 0.64729 0.83706 0.88222 0.0
H222 H 0.5482 0.76988 0.8859 0.0
O223 O 0.64485 0.79886 0.91342 0.0
O224 O 0.59409 0.7761 0.92485 0.0
O225 O 0.56417 0.72637 0.89144 0.0
C226 C 0.62445 0.79794 0.92734 0.0
H227 H 0.59178 0.66872 0.94517 0.0
H228 H 0.61509 0.86504 0.86836 0.0
H229 H 0.62243 0.69358 0.84779 0.0
H230 H 0.69068 0.79626 0.84303 0.0
Co231 Co 0.23677 0.84734 0.90601 0.0
C232 C 0.2632 0.91117 0.92673 0.0
C233 C 0.29292 0.88952 0.93165 0.0
C234 C 0.30748 0.91931 0.9412 0.0
N235 N 0.26543 0.88463 0.92242 0.0
N236 N 0.28879 0.9328 0.9381 0.0
H237 H 0.24362 0.91475 0.92145 0.0
H238 H 0.30175 0.87257 0.93154 0.0
C239 C 0.2808 0.83261 0.88064 0.0
O240 O 0.26057 0.82422 0.86487 0.0
N241 N 0.20821 0.80874 0.89003 0.0
C242 C 0.18811 0.8037 0.87378 0.0
C243 C 0.1747 0.7719 0.86736 0.0
C244 C 0.20612 0.77981 0.89341 0.0
N245 N 0.1861 0.75704 0.87979 0.0
C246 C 0.21879 0.88103 0.87652 0.0
C247 C 0.27884 0.91583 0.8578 0.0
C248 C 0.25307 0.91911 0.85013 0.0
C249 C 0.22283 0.90182 0.85996 0.0
C250 C 0.27369 0.89479 0.87433 0.0
N251 N 0.24348 0.87616 0.88266 0.0
H252 H 0.19554 0.86842 0.88423 0.0
H253 H 0.29434 0.89409 0.8806 0.0
H254 H 0.18348 0.82138 0.86658 0.0
H255 H 0.22025 0.77594 0.9051 0.0
O256 O 0.19963 0.8466 0.91868 0.0
O257 O 0.22444 0.82115 0.93097 0.0
O258 O 0.27492 0.84242 0.89778 0.0
C259 C 0.20124 0.82789 0.93285 0.0
H260 H 0.32977 0.93002 0.95012 0.0
H261 H 0.15798 0.76063 0.85452 0.0
H262 H 0.30281 0.92914 0.85099 0.0
H263 H 0.20256 0.90453 0.85505 0.0
Co264 Co 0.15459 0.38985 0.90417 0.0
C265 C 0.09078 0.35474 0.92509 0.0
C266 C 0.11416 0.40625 0.9299 0.0
C267 C 0.08449 0.39203 0.93959 0.0
N268 N 0.11791 0.38292 0.92067 0.0
N269 N 0.06991 0.35975 0.93656 0.0
H270 H 0.08626 0.33123 0.91984 0.0
H271 H 0.13181 0.43185 0.92971 0.0
C272 C 0.17113 0.44949 0.87927 0.0
O273 O 0.17565 0.43592 0.86272 0.0
N274 N 0.19257 0.39825 0.88805 0.0
C275 C 0.19718 0.38149 0.87269 0.0
C276 C 0.22887 0.399 0.86594 0.0
C277 C 0.22167 0.42516 0.89066 0.0
N278 N 0.24412 0.42638 0.87732 0.0
C279 C 0.11969 0.33997 0.87387 0.0
C280 C 0.08823 0.3688 0.85519 0.0
C281 C 0.08513 0.34042 0.84641 0.0
C282 C 0.10027 0.32535 0.85642 0.0
C283 C 0.10796 0.38256 0.87262 0.0
N284 N 0.12546 0.36952 0.88069 0.0
H285 H 0.13079 0.32781 0.88159 0.0
H286 H 0.10899 0.40368 0.87959 0.0
H287 H 0.17942 0.35835 0.8665 0.0
H288 H 0.22597 0.4441 0.9017 0.0
O289 O 0.15281 0.35192 0.91637 0.0
O290 O 0.18076 0.40182 0.92909 0.0
O291 O 0.16239 0.43418 0.89658 0.0
C292 C 0.17207 0.3713 0.93072 0.0
H293 H 0.07464 0.40437 0.94858 0.0
H294 H 0.23988 0.39206 0.8537 0.0
H295 H 0.07547 0.38027 0.84868 0.0
H296 H 0.09791 0.30295 0.85054 0.0
Co297 Co 0.76089 0.6095 0.58811 0.0
C298 C 0.72951 0.6412 0.56596 0.0
C299 C 0.70756 0.59041 0.55891 0.0
C300 C 0.69185 0.60299 0.54772 0.0
N301 N 0.73101 0.61429 0.57036 0.0
N302 N 0.70571 0.63494 0.55205 0.0
H303 H 0.74594 0.66484 0.57242 0.0
H304 H 0.70247 0.5656 0.55852 0.0
C305 C 0.71878 0.54853 0.61201 0.0
O306 O 0.73559 0.56251 0.62891 0.0
N307 N 0.79085 0.60314 0.60549 0.0
C308 C 0.80294 0.61385 0.62485 0.0
C309 C 0.81918 0.59824 0.63147 0.0
C310 C 0.8004 0.58159 0.60069 0.0
N311 N 0.81764 0.57827 0.61612 0.0
C312 C 0.77053 0.65771 0.61853 0.0
C313 C 0.70889 0.62505 0.63534 0.0
C314 C 0.73235 0.65382 0.64478 0.0
C315 C 0.76315 0.67093 0.63569 0.0
C316 C 0.71723 0.61296 0.61806 0.0
N317 N 0.74845 0.62788 0.61098 0.0
H318 H 0.79469 0.67062 0.61205 0.0
H319 H 0.69853 0.59143 0.61054 0.0
H320 H 0.79887 0.63006 0.63439 0.0
H321 H 0.793 0.56685 0.58672 0.0
O322 O 0.79651 0.64898 0.57703 0.0
O323 O 0.77845 0.59994 0.56372 0.0
O324 O 0.72568 0.56399 0.59474 0.0
C325 C 0.79908 0.63089 0.56282 0.0
H326 H 0.67168 0.58951 0.53722 0.0
H327 H 0.83023 0.60048 0.6466 0.0
H328 H 0.68437 0.61191 0.64136 0.0
H329 H 0.78177 0.69357 0.64231 0.0
Co330 Co 0.38614 0.15138 0.59486 0.0
C331 C 0.35073 0.08613 0.57603 0.0
C332 C 0.40233 0.10753 0.57281 0.0
C333 C 0.38769 0.07757 0.56344 0.0
N334 N 0.37916 0.11273 0.58077 0.0
N335 N 0.3553 0.06421 0.56543 0.0
H336 H 0.3273 0.08305 0.58007 0.0
H337 H 0.42805 0.12462 0.57327 0.0
C338 C 0.4451 0.17184 0.62105 0.0
O339 O 0.43064 0.1785 0.63613 0.0
N340 N 0.3945 0.19135 0.60841 0.0
C341 C 0.37873 0.19784 0.62351 0.0
C342 C 0.39642 0.2304 0.62839 0.0
C343 C 0.42093 0.22012 0.60407 0.0
N344 N 0.42285 0.24422 0.61607 0.0
C345 C 0.33637 0.12016 0.62607 0.0
C346 C 0.36632 0.09202 0.64752 0.0
C347 C 0.33812 0.08985 0.6558 0.0
C348 C 0.32227 0.10297 0.64444 0.0
C349 C 0.37927 0.10905 0.62907 0.0
N350 N 0.36586 0.12526 0.61957 0.0
H351 H 0.32401 0.13022 0.61739 0.0
H352 H 0.40024 0.10925 0.62253 0.0
H353 H 0.35639 0.18072 0.63094 0.0
H354 H 0.43931 0.22301 0.59295 0.0
O355 O 0.34831 0.14826 0.5815 0.0
O356 O 0.39821 0.17425 0.56863 0.0
O357 O 0.43051 0.16035 0.60371 0.0
C358 C 0.36782 0.16584 0.56663 0.0
H359 H 0.3999 0.06701 0.55505 0.0
H360 H 0.39045 0.24289 0.64016 0.0
H361 H 0.3783 0.08067 0.65529 0.0
H362 H 0.29982 0.10085 0.65002 0.0
Co363 Co 0.83893 0.23418 0.59712 0.0
C364 C 0.90214 0.25577 0.57456 0.0
C365 C 0.86891 0.26575 0.55804 0.0
C366 C 0.89553 0.27479 0.54562 0.0
N367 N 0.87281 0.25361 0.57616 0.0
N368 N 0.91628 0.26856 0.55607 0.0
H369 H 0.91294 0.24768 0.58611 0.0
H370 H 0.84778 0.26748 0.55401 0.0
C371 C 0.8644 0.30517 0.59941 0.0
O372 O 0.8936 0.30917 0.59727 0.0
N373 N 0.80427 0.21485 0.61709 0.0
C374 C 0.79866 0.1921 0.63155 0.0
C375 C 0.76963 0.18357 0.64129 0.0
C376 C 0.77895 0.21987 0.61812 0.0
N377 N 0.75738 0.20114 0.6328 0.0
C378 C 0.88515 0.22713 0.62198 0.0
C379 C 0.88872 0.26793 0.6538 0.0
C380 C 0.90579 0.25119 0.6558 0.0
C381 C 0.90397 0.23065 0.63956 0.0
C382 C 0.87024 0.2637 0.63601 0.0
N383 N 0.86945 0.24439 0.61997 0.0
H384 H 0.88245 0.20971 0.61022 0.0
H385 H 0.8553 0.2748 0.63577 0.0
H386 H 0.81417 0.18198 0.63446 0.0
H387 H 0.77574 0.23588 0.60766 0.0
O388 O 0.83207 0.1919 0.58978 0.0
O389 O 0.80759 0.21592 0.57484 0.0
O390 O 0.83963 0.27669 0.60017 0.0
C391 C 0.81202 0.1911 0.5757 0.0
H392 H 0.89942 0.28512 0.53011 0.0
H393 H 0.75827 0.16557 0.65346 0.0
H394 H 0.88907 0.28374 0.66608 0.0
H395 H 0.91592 0.21644 0.64077 0.0
C396 C 0.67387 0.16692 0.11122 0.0
C397 C 0.66945 0.13548 0.11229 0.0
C398 C 0.6477 0.17202 0.11431 0.0
C399 C 0.55881 0.12957 0.11102 0.0
H400 H 0.56766 0.2032 0.14239 0.0
C401 C 0.4499 0.14832 0.12575 0.0
C402 C 0.45549 0.17998 0.12292 0.0
C403 C 0.47581 0.14238 0.12633 0.0
C404 C 0.56488 0.18266 0.13345 0.0
H405 H 0.63427 0.08485 0.11793 0.0
H406 H 0.58878 0.09382 0.12341 0.0
H407 H 0.61358 0.194 0.13985 0.0
H408 H 0.49281 0.23037 0.11937 0.0
H409 H 0.53785 0.21995 0.11987 0.0
H410 H 0.51036 0.11846 0.10431 0.0
C411 C 0.61236 0.11446 0.11993 0.0
C412 C 0.59118 0.17741 0.132 0.0
C413 C 0.63849 0.10936 0.11689 0.0
C414 C 0.48761 0.20563 0.12121 0.0
C415 C 0.51348 0.19971 0.12179 0.0
C416 C 0.53257 0.13485 0.11243 0.0
C417 C 0.6166 0.14578 0.11848 0.0
C418 C 0.58847 0.1509 0.12067 0.0
C419 C 0.50788 0.16798 0.12414 0.0
C420 C 0.53535 0.16157 0.12355 0.0
H421 H 0.69743 0.18756 0.10772 0.0
H422 H 0.65168 0.1964 0.1129 0.0
H423 H 0.55611 0.1092 0.1019 0.0
H424 H 0.42549 0.128 0.12701 0.0
H425 H 0.4707 0.1177 0.12842 0.0
C426 C 0.82443 0.28962 0.14279 0.0
C427 C 0.81671 0.27315 0.1236 0.0
C428 C 0.82819 0.32068 0.14416 0.0
C429 C 0.84629 0.39203 0.11254 0.0
H430 H 0.79568 0.40817 0.15322 0.0
C431 C 0.82412 0.49877 0.1033 0.0
C432 C 0.82476 0.51618 0.12116 0.0
C433 C 0.82465 0.46987 0.10514 0.0
C434 C 0.81039 0.40427 0.14199 0.0
H435 H 0.80811 0.27649 0.09073 0.0
H436 H 0.81497 0.33065 0.09304 0.0
H437 H 0.7958 0.35687 0.15402 0.0
H438 H 0.82589 0.51664 0.15501 0.0
H439 H 0.82732 0.46625 0.15824 0.0
H440 H 0.86094 0.43915 0.10042 0.0
C441 C 0.81791 0.31961 0.10704 0.0
C442 C 0.81043 0.37492 0.14246 0.0
C443 C 0.8137 0.28853 0.10575 0.0
C444 C 0.82526 0.5037 0.14095 0.0
C445 C 0.82602 0.47481 0.1428 0.0
C446 C 0.84647 0.42139 0.11216 0.0
C447 C 0.82491 0.33589 0.12627 0.0
C448 C 0.82782 0.36828 0.12744 0.0
C449 C 0.82612 0.45777 0.12489 0.0
C450 C 0.82792 0.42758 0.12656 0.0
H451 H 0.8267 0.27814 0.15677 0.0
H452 H 0.83369 0.33281 0.15915 0.0
H453 H 0.8603 0.3877 0.10098 0.0
H454 H 0.82338 0.50753 0.08782 0.0
H455 H 0.82385 0.45698 0.09103 0.0
C456 C 0.70297 0.53296 0.10713 0.0
C457 C 0.7215 0.54824 0.12495 0.0
C458 C 0.67154 0.50685 0.10905 0.0
C459 C 0.621 0.44017 0.14381 0.0
H460 H 0.55172 0.43017 0.10723 0.0
C461 C 0.49336 0.32495 0.14376 0.0
C462 C 0.47926 0.31363 0.12404 0.0
C463 C 0.52175 0.355 0.14576 0.0
C464 C 0.57088 0.43248 0.11745 0.0
H465 H 0.72158 0.54876 0.15875 0.0
H466 H 0.66631 0.50259 0.16217 0.0
H467 H 0.60299 0.48123 0.10756 0.0
H468 H 0.48438 0.32457 0.0909 0.0
H469 H 0.53396 0.37641 0.09433 0.0
H470 H 0.58931 0.39103 0.15318 0.0
C471 C 0.67624 0.51098 0.14673 0.0
C472 C 0.60015 0.46177 0.1177 0.0
C473 C 0.70767 0.53748 0.14479 0.0
C474 C 0.49442 0.33268 0.10635 0.0
C475 C 0.52275 0.36257 0.10833 0.0
C476 C 0.59173 0.41074 0.14347 0.0
C477 C 0.65803 0.49524 0.12885 0.0
C478 C 0.62573 0.46569 0.13056 0.0
C479 C 0.5366 0.37427 0.12807 0.0
C480 C 0.56659 0.40634 0.12994 0.0
H481 H 0.71302 0.54101 0.09168 0.0
H482 H 0.65821 0.49502 0.09499 0.0
H483 H 0.64044 0.44244 0.15373 0.0
H484 H 0.48221 0.31088 0.15771 0.0
H485 H 0.53171 0.3634 0.1612 0.0
C486 C 0.16672 0.4594 0.35656 0.0
C487 C 0.17153 0.44974 0.37634 0.0
C488 C 0.16213 0.4861 0.35454 0.0
C489 C 0.13918 0.53802 0.38426 0.0
H490 H 0.19287 0.60475 0.34436 0.0
C491 C 0.16296 0.6679 0.39169 0.0
C492 C 0.16343 0.68463 0.3735 0.0
C493 C 0.16154 0.63799 0.3904 0.0
C494 C 0.17732 0.58615 0.35535 0.0
H495 H 0.17389 0.45944 0.40951 0.0
H496 H 0.16591 0.50591 0.40605 0.0
H497 H 0.19313 0.55358 0.34483 0.0
H498 H 0.16312 0.68316 0.33965 0.0
H499 H 0.16043 0.63062 0.33741 0.0
H500 H 0.12363 0.57056 0.39498 0.0
C501 C 0.1657 0.49298 0.39209 0.0
C502 C 0.17746 0.55684 0.35561 0.0
C503 C 0.17059 0.46657 0.39407 0.0
C504 C 0.16287 0.67092 0.35395 0.0
C505 C 0.1614 0.64087 0.35267 0.0
C506 C 0.13894 0.5672 0.38395 0.0
C507 C 0.16183 0.5033 0.3723 0.0
C508 C 0.15891 0.53277 0.37037 0.0
C509 C 0.16044 0.62396 0.3709 0.0
C510 C 0.15856 0.59189 0.36982 0.0
H511 H 0.16757 0.44698 0.34262 0.0
H512 H 0.15901 0.49342 0.3391 0.0
H513 H 0.1242 0.51969 0.39557 0.0
H514 H 0.16359 0.67782 0.40701 0.0
H515 H 0.16155 0.62596 0.40475 0.0
C516 C 0.53035 0.70565 0.35767 0.0
C517 C 0.54091 0.72203 0.37682 0.0
C518 C 0.50287 0.67474 0.35683 0.0
C519 C 0.45089 0.60343 0.38904 0.0
H520 H 0.38312 0.58835 0.34947 0.0
C521 C 0.32211 0.49593 0.3982 0.0
C522 C 0.3052 0.4792 0.38019 0.0
C523 C 0.35146 0.52495 0.39659 0.0
C524 C 0.40198 0.59195 0.3604 0.0
H525 H 0.53193 0.71863 0.41011 0.0
H526 H 0.48413 0.66464 0.40871 0.0
H527 H 0.43451 0.63949 0.34855 0.0
H528 H 0.30558 0.48006 0.34633 0.0
H529 H 0.35723 0.53062 0.34351 0.0
H530 H 0.41864 0.55608 0.40093 0.0
C531 C 0.49695 0.67565 0.39435 0.0
C532 C 0.43139 0.62124 0.35986 0.0
C533 C 0.52411 0.70662 0.39514 0.0
C534 C 0.31799 0.49244 0.36051 0.0
C535 C 0.34754 0.52146 0.35889 0.0
C536 C 0.42166 0.57412 0.38948 0.0
C537 C 0.48583 0.65954 0.37516 0.0
C538 C 0.45589 0.62745 0.37442 0.0
C539 C 0.36478 0.53786 0.37693 0.0
C540 C 0.39661 0.56825 0.37543 0.0
H541 H 0.54275 0.71714 0.34331 0.0
H542 H 0.49488 0.66275 0.34185 0.0
H543 H 0.46958 0.60741 0.40023 0.0
H544 H 0.31276 0.48655 0.41361 0.0
H545 H 0.36367 0.53732 0.41081 0.0
C546 C 0.49733 0.80955 0.35485 0.0
C547 C 0.52001 0.83152 0.36916 0.0
C548 C 0.46771 0.80846 0.35183 0.0
C549 C 0.42687 0.85571 0.35634 0.0
H550 H 0.34881 0.77359 0.36665 0.0
C551 C 0.30329 0.84697 0.37122 0.0
C552 C 0.27489 0.81831 0.36584 0.0
C553 C 0.33355 0.84931 0.36876 0.0
C554 C 0.37019 0.79661 0.36322 0.0
H555 H 0.53019 0.87037 0.39092 0.0
H556 H 0.47875 0.8689 0.38527 0.0
H557 H 0.40122 0.77638 0.36694 0.0
H558 H 0.2556 0.77039 0.35265 0.0
H559 H 0.30837 0.77483 0.3473 0.0
H560 H 0.39611 0.87603 0.35229 0.0
C561 C 0.48374 0.85235 0.37659 0.0
C562 C 0.40024 0.79816 0.3635 0.0
C563 C 0.513 0.85299 0.37993 0.0
C564 C 0.27726 0.79258 0.3571 0.0
C565 C 0.30749 0.79511 0.35423 0.0
C566 C 0.39676 0.85409 0.35566 0.0
C567 C 0.46069 0.82984 0.36271 0.0
C568 C 0.42884 0.8278 0.36042 0.0
C569 C 0.33605 0.82321 0.36049 0.0
C570 C 0.36801 0.82461 0.35946 0.0
H571 H 0.50213 0.7927 0.34639 0.0
H572 H 0.45027 0.79093 0.34102 0.0
H573 H 0.44866 0.87882 0.35376 0.0
H574 H 0.30197 0.86697 0.37822 0.0
H575 H 0.35482 0.87115 0.3741 0.0
C576 C 0.31503 0.81266 0.8639 0.0
C577 C 0.31194 0.83336 0.87811 0.0
C578 C 0.3445 0.81311 0.8619 0.0
C579 C 0.42277 0.84107 0.88984 0.0
H580 H 0.44913 0.82202 0.83689 0.0
C581 C 0.54801 0.85243 0.87745 0.0
C582 C 0.54618 0.82358 0.87052 0.0
C583 C 0.52068 0.85609 0.87666 0.0
C584 C 0.44201 0.82743 0.85174 0.0
H585 H 0.33742 0.87167 0.90078 0.0
H586 H 0.38902 0.87355 0.89671 0.0
H587 H 0.39894 0.82399 0.83896 0.0
H588 H 0.51517 0.77671 0.85645 0.0
H589 H 0.46746 0.7834 0.85457 0.0
H590 H 0.46631 0.84515 0.90242 0.0
C591 C 0.36856 0.85597 0.88767 0.0
C592 C 0.41314 0.8283 0.85301 0.0
C593 C 0.33897 0.85503 0.88995 0.0
C594 C 0.51703 0.79909 0.86194 0.0
C595 C 0.4899 0.80299 0.86077 0.0
C596 C 0.45186 0.84078 0.88845 0.0
C597 C 0.37169 0.83476 0.8738 0.0
C598 C 0.40296 0.83484 0.87214 0.0
C599 C 0.4913 0.83122 0.86854 0.0
C600 C 0.46159 0.83368 0.86946 0.0
H601 H 0.29448 0.79561 0.85465 0.0
H602 H 0.34571 0.79602 0.85133 0.0
H603 H 0.41553 0.84545 0.90495 0.0
H604 H 0.57014 0.87151 0.8843 0.0
H605 H 0.52231 0.87811 0.88269 0.0
C606 C 0.17432 0.49541 0.85811 0.0
C607 C 0.17294 0.48132 0.87764 0.0
C608 C 0.17387 0.52454 0.8568 0.0
C609 C 0.15072 0.57566 0.8877 0.0
H610 H 0.20568 0.6434 0.84877 0.0
C611 C 0.18021 0.70768 0.89628 0.0
C612 C 0.18019 0.72439 0.87824 0.0
C613 C 0.1765 0.67678 0.89483 0.0
C614 C 0.18987 0.62449 0.85952 0.0
H615 H 0.17128 0.48735 0.91112 0.0
H616 H 0.1712 0.53817 0.90886 0.0
H617 H 0.20574 0.5921 0.8488 0.0
H618 H 0.17604 0.72186 0.84453 0.0
H619 H 0.16965 0.66761 0.84195 0.0
H620 H 0.13553 0.60836 0.89879 0.0
C621 C 0.17169 0.52641 0.89451 0.0
C622 C 0.18988 0.59513 0.85954 0.0
C623 C 0.17197 0.49734 0.89581 0.0
C624 C 0.17586 0.70937 0.85869 0.0
C625 C 0.17252 0.67852 0.85721 0.0
C626 C 0.15087 0.60503 0.88777 0.0
C627 C 0.17216 0.54015 0.87501 0.0
C628 C 0.1707 0.57057 0.87388 0.0
C629 C 0.17297 0.66202 0.87528 0.0
C630 C 0.17079 0.62992 0.8739 0.0
H631 H 0.175 0.48361 0.84382 0.0
H632 H 0.17409 0.53439 0.84153 0.0
H633 H 0.13504 0.55697 0.89861 0.0
H634 H 0.18323 0.7186 0.91154 0.0
H635 H 0.17723 0.66476 0.90902 0.0
C636 C 0.50708 0.67317 0.85208 0.0
C637 C 0.51955 0.6874 0.87162 0.0
C638 C 0.47829 0.64329 0.85079 0.0
C639 C 0.42611 0.57103 0.88287 0.0
H640 H 0.35936 0.55528 0.84233 0.0
C641 C 0.29388 0.47073 0.89279 0.0
C642 C 0.27696 0.4525 0.87522 0.0
C643 C 0.32501 0.49735 0.89073 0.0
C644 C 0.37801 0.55917 0.85352 0.0
H645 H 0.51092 0.68205 0.90506 0.0
H646 H 0.46083 0.63058 0.90278 0.0
H647 H 0.41075 0.60656 0.84156 0.0
H648 H 0.27937 0.44759 0.84175 0.0
H649 H 0.33407 0.49444 0.8381 0.0
H650 H 0.39312 0.52411 0.89519 0.0
C651 C 0.47359 0.64194 0.88847 0.0
C652 C 0.40741 0.5885 0.85308 0.0
C653 C 0.50225 0.67161 0.88976 0.0
C654 C 0.29202 0.46109 0.85556 0.0
C655 C 0.32312 0.48801 0.85345 0.0
C656 C 0.39676 0.54186 0.88335 0.0
C657 C 0.4615 0.62716 0.86902 0.0
C658 C 0.43149 0.59501 0.86806 0.0
C659 C 0.33983 0.50648 0.87102 0.0
C660 C 0.37216 0.53589 0.86897 0.0
H661 H 0.5199 0.68473 0.83783 0.0
H662 H 0.46961 0.63247 0.83558 0.0
H663 H 0.44449 0.57497 0.8943 0.0
H664 H 0.28296 0.46446 0.90814 0.0
H665 H 0.33716 0.5113 0.90453 0.0
C666 C 0.81816 0.53236 0.63332 0.0
C667 C 0.82768 0.55451 0.61677 0.0
C668 C 0.82394 0.50633 0.63244 0.0
C669 C 0.84276 0.45968 0.59354 0.0
H670 H 0.85424 0.41968 0.64308 0.0
C671 C 0.88379 0.36384 0.59372 0.0
C672 C 0.86055 0.3338 0.60204 0.0
C673 C 0.88029 0.39107 0.59608 0.0
C674 C 0.85096 0.43068 0.62918 0.0
H675 H 0.85203 0.56833 0.58698 0.0
H676 H 0.86425 0.52435 0.58589 0.0
H677 H 0.84974 0.46841 0.64651 0.0
H678 H 0.81579 0.30869 0.61969 0.0
H679 H 0.8103 0.3569 0.62439 0.0
H680 H 0.84539 0.42249 0.57627 0.0
C681 C 0.85096 0.52583 0.59915 0.0
C682 C 0.84819 0.45846 0.63109 0.0
C683 C 0.84441 0.55129 0.59983 0.0
C684 C 0.83395 0.33155 0.61303 0.0
C685 C 0.83088 0.35903 0.61582 0.0
C686 C 0.84627 0.43241 0.59164 0.0
C687 C 0.83997 0.50239 0.61515 0.0
C688 C 0.84393 0.47332 0.61328 0.0
C689 C 0.85393 0.38888 0.60723 0.0
C690 C 0.85023 0.41766 0.60943 0.0
H691 H 0.80478 0.53427 0.64638 0.0
H692 H 0.81465 0.48868 0.64493 0.0
H693 H 0.83861 0.46968 0.57948 0.0
H694 H 0.90445 0.3662 0.58512 0.0
H695 H 0.8983 0.41394 0.58935 0.0
C696 C 0.67553 0.50306 0.633 0.0
C697 C 0.68886 0.51662 0.61348 0.0
C698 C 0.64576 0.47424 0.63429 0.0
C699 C 0.57197 0.42315 0.60303 0.0
H700 H 0.55632 0.35752 0.64446 0.0
C701 C 0.46618 0.2919 0.59812 0.0
C702 C 0.44939 0.27702 0.61656 0.0
C703 C 0.49378 0.32258 0.59868 0.0
C704 C 0.56022 0.37586 0.633 0.0
H705 H 0.68209 0.50992 0.57998 0.0
H706 H 0.63075 0.45936 0.5822 0.0
H707 H 0.6087 0.40752 0.64351 0.0
H708 H 0.44788 0.28269 0.65001 0.0
H709 H 0.49648 0.33659 0.65106 0.0
H710 H 0.52377 0.39104 0.59219 0.0
C711 C 0.64274 0.4714 0.59655 0.0
C712 C 0.59021 0.40449 0.63244 0.0
C713 C 0.67233 0.50027 0.59527 0.0
C714 C 0.46026 0.29377 0.63556 0.0
C715 C 0.48817 0.32439 0.63618 0.0
C716 C 0.54212 0.39446 0.6035 0.0
C717 C 0.62882 0.45828 0.61606 0.0
C718 C 0.59658 0.42832 0.61728 0.0
C719 C 0.50536 0.33893 0.61775 0.0
C720 C 0.53606 0.37038 0.61834 0.0
H721 H 0.6876 0.51515 0.64733 0.0
H722 H 0.63563 0.46497 0.64957 0.0
H723 H 0.57574 0.44131 0.59147 0.0
H724 H 0.45814 0.27956 0.58327 0.0
H725 H 0.50667 0.33308 0.58426 0.0
C726 C 0.72188 0.22506 0.63305 0.0
C727 C 0.72645 0.19855 0.63686 0.0
C728 C 0.69119 0.22178 0.63485 0.0
C729 C 0.62549 0.21201 0.64755 0.0
H730 H 0.55588 0.13526 0.62143 0.0
C731 C 0.49322 0.18657 0.64391 0.0
C732 C 0.47724 0.1751 0.62469 0.0
C733 C 0.52322 0.18881 0.64749 0.0
C734 C 0.57509 0.15686 0.62874 0.0
H735 H 0.70257 0.14814 0.64639 0.0
H736 H 0.64894 0.14249 0.64982 0.0
H737 H 0.60927 0.14063 0.62485 0.0
H738 H 0.48048 0.15739 0.59408 0.0
H739 H 0.5328 0.16153 0.60027 0.0
H740 H 0.5915 0.22872 0.65074 0.0
C741 C 0.66911 0.16572 0.64518 0.0
C742 C 0.60557 0.15974 0.63095 0.0
C743 C 0.69988 0.16904 0.64342 0.0
C744 C 0.49202 0.16616 0.60909 0.0
C745 C 0.52192 0.16832 0.61269 0.0
C746 C 0.59495 0.20909 0.64537 0.0
C747 C 0.66433 0.19189 0.64051 0.0
C748 C 0.63125 0.18757 0.64009 0.0
C749 C 0.53779 0.17952 0.63195 0.0
C750 C 0.56958 0.18172 0.63562 0.0
H751 H 0.74198 0.24825 0.62829 0.0
H752 H 0.68832 0.24235 0.631 0.0
H753 H 0.64473 0.2336 0.65484 0.0
H754 H 0.48248 0.19364 0.65626 0.0
H755 H 0.53477 0.19733 0.66253 0.0
C756 C 0.32927 0.15392 0.05124 0.0
C757 C 0.36172 0.17891 0.05272 0.0
C758 C 0.31998 0.12973 0.03607 0.0
C759 C 0.3544 0.08908 0.00617 0.0
H760 H 0.27567 0.05366 0.97322 0.0
C761 C 0.32672 0.98972 0.94665 0.0
C762 C 0.29494 0.96346 0.94619 0.0
C763 C 0.33378 0.01829 0.95694 0.0
C764 C 0.29761 0.06314 0.98244 0.0
H765 H 0.40958 0.19896 0.03897 0.0
H766 H 0.39336 0.15679 0.0126 0.0
H767 H 0.2898 0.09952 0.99664 0.0
H768 H 0.24528 0.9467 0.95518 0.0
H769 H 0.25762 0.99646 0.97385 0.0
H770 H 0.36196 0.05245 0.99275 0.0
C771 C 0.37519 0.15571 0.02326 0.0
C772 C 0.3057 0.0894 0.99579 0.0
C773 C 0.38443 0.1799 0.03832 0.0
C774 C 0.26996 0.96677 0.9553 0.0
C775 C 0.27708 0.99528 0.96592 0.0
C776 C 0.34625 0.06281 0.99303 0.0
C777 C 0.34302 0.13005 0.02223 0.0
C778 C 0.33426 0.10265 0.00772 0.0
C779 C 0.30926 0.02102 0.96736 0.0
C780 C 0.31784 0.04955 0.98091 0.0
H781 H 0.31122 0.1526 0.0621 0.0
H782 H 0.29506 0.11012 0.0357 0.0
H783 H 0.3762 0.09831 0.01552 0.0
H784 H 0.34624 0.98782 0.93939 0.0
H785 H 0.35867 0.03795 0.95718 0.0
C786 C 0.82301 0.20916 0.03811 0.0
C787 C 0.82417 0.18666 0.05174 0.0
C788 C 0.84697 0.22482 0.02297 0.0
C789 C 0.91185 0.22154 0.99368 0.0
H790 H 0.95062 0.31504 0.99225 0.0
C791 C 0.03469 0.30696 0.95343 0.0
C792 C 0.03907 0.33601 0.94489 0.0
C793 C 0.00605 0.28602 0.96405 0.0
C794 C 0.93973 0.28891 0.99207 0.0
H795 H 0.85058 0.16198 0.05973 0.0
H796 H 0.8925 0.1894 0.0332 0.0
H797 H 0.90479 0.2833 0.01507 0.0
H798 H 0.01637 0.36487 0.93919 0.0
H799 H 0.96597 0.32797 0.957 0.0
H800 H 0.94693 0.22723 0.97064 0.0
C801 C 0.873 0.19482 0.03422 0.0
C802 C 0.91348 0.27073 0.00524 0.0
C803 C 0.84914 0.17931 0.04948 0.0
C804 C 0.0137 0.34286 0.94601 0.0
C805 C 0.98496 0.32179 0.9563 0.0
C806 C 0.93803 0.23975 0.98031 0.0
C807 C 0.87245 0.21814 0.02106 0.0
C808 C 0.89937 0.23691 0.00628 0.0
C809 C 0.98115 0.29363 0.96606 0.0
C810 C 0.95238 0.27371 0.97943 0.0
H811 H 0.804 0.21524 0.03942 0.0
H812 H 0.84578 0.24245 0.01288 0.0
H813 H 0.90126 0.19544 0.99409 0.0
H814 H 0.05406 0.30132 0.95284 0.0
H815 H 0.00408 0.26469 0.97149 0.0
C816 C 0.78324 0.61172 0.03816 0.0
C817 C 0.80753 0.63468 0.05123 0.0
C818 C 0.76779 0.62126 0.02368 0.0
C819 C 0.7736 0.69055 0.9946 0.0
H820 H 0.6798 0.63854 0.99445 0.0
C821 C 0.68913 0.72743 0.95171 0.0
C822 C 0.66033 0.70225 0.94322 0.0
C823 C 0.70979 0.72037 0.96328 0.0
C824 C 0.70599 0.65305 0.99399 0.0
H825 H 0.83554 0.68581 0.05892 0.0
H826 H 0.80834 0.70253 0.03348 0.0
H827 H 0.71098 0.62419 0.01762 0.0
H828 H 0.63171 0.65038 0.93865 0.0
H829 H 0.66799 0.63799 0.95824 0.0
H830 H 0.76844 0.7194 0.97084 0.0
C831 C 0.8014 0.67717 0.03446 0.0
C832 C 0.72385 0.64485 0.00734 0.0
C833 C 0.81682 0.66758 0.04907 0.0
C834 C 0.65347 0.67014 0.94541 0.0
C835 C 0.67419 0.6631 0.95671 0.0
C836 C 0.75566 0.69869 0.98107 0.0
C837 C 0.77632 0.65398 0.0219 0.0
C838 C 0.75781 0.66336 0.00772 0.0
C839 C 0.70206 0.68802 0.96634 0.0
C840 C 0.72163 0.67986 0.98054 0.0
H841 H 0.77565 0.58621 0.03936 0.0
H842 H 0.74886 0.60293 0.01398 0.0
H843 H 0.79979 0.70516 0.99453 0.0
H844 H 0.6948 0.75238 0.95031 0.0
H845 H 0.73097 0.74012 0.97057 0.0
C846 C 0.97496 0.29081 0.56054 0.0
C847 C 0.94679 0.27379 0.54847 0.0
C848 C 0.0052 0.29907 0.55206 0.0
C849 C 0.04636 0.27861 0.51235 0.0
H850 H 0.10261 0.3709 0.50369 0.0
C851 C 0.14133 0.32734 0.44722 0.0
C852 C 0.16957 0.35756 0.44948 0.0
C853 C 0.1173 0.31596 0.46252 0.0
C854 C 0.08778 0.34508 0.50637 0.0
H855 H 0.92737 0.25048 0.51881 0.0
H856 H 0.98013 0.26387 0.50416 0.0
H857 H 0.05495 0.3517 0.52587 0.0
H858 H 0.19554 0.39913 0.46977 0.0
H859 H 0.15415 0.37876 0.49698 0.0
H860 H 0.0789 0.27167 0.493 0.0
C861 C 0.97895 0.2712 0.52 0.0
C862 C 0.06042 0.33416 0.51905 0.0
C863 C 0.94894 0.26372 0.52827 0.0
C864 C 0.17379 0.37587 0.46757 0.0
C865 C 0.14999 0.36422 0.4831 0.0
C866 C 0.07406 0.2895 0.50002 0.0
C867 C 0.00735 0.28952 0.53165 0.0
C868 C 0.03904 0.30085 0.52159 0.0
C869 C 0.12121 0.33427 0.48066 0.0
C870 C 0.09453 0.32286 0.49626 0.0
H871 H 0.97363 0.2989 0.57612 0.0
H872 H 0.0269 0.31334 0.56123 0.0
H873 H 0.03018 0.25277 0.51423 0.0
H874 H 0.13737 0.31281 0.43335 0.0
H875 H 0.09525 0.29319 0.45977 0.0
C876 C 0.60517 0.79304 0.46155 0.0
C877 C 0.629 0.81413 0.44746 0.0
C878 C 0.61282 0.77724 0.47701 0.0
C879 C 0.62977 0.7287 0.49472 0.0
H880 H 0.71333 0.76621 0.52232 0.0
C881 C 0.68181 0.65074 0.52343 0.0
C882 C 0.69722 0.6574 0.54298 0.0
C883 C 0.67257 0.6717 0.51475 0.0
C884 C 0.68972 0.7555 0.51496 0.0
H885 H 0.67983 0.83646 0.43911 0.0
H886 H 0.69303 0.80856 0.4658 0.0
H887 H 0.69867 0.80119 0.50283 0.0
H888 H 0.71537 0.69174 0.56862 0.0
H889 H 0.69944 0.72879 0.5532 0.0
H890 H 0.62095 0.68303 0.50656 0.0
C891 C 0.66854 0.80446 0.46514 0.0
C892 C 0.68144 0.77545 0.50365 0.0
C893 C 0.66091 0.82026 0.44971 0.0
C894 C 0.70374 0.686 0.55348 0.0
C895 C 0.69456 0.70716 0.54469 0.0
C896 C 0.63805 0.70882 0.50597 0.0
C897 C 0.64443 0.7822 0.47866 0.0
C898 C 0.65166 0.76213 0.493 0.0
C899 C 0.67857 0.69998 0.52533 0.0
C900 C 0.66843 0.72186 0.51574 0.0
H901 H 0.5804 0.78801 0.46028 0.0
H902 H 0.5938 0.76058 0.48738 0.0
H903 H 0.60677 0.71756 0.48657 0.0
H904 H 0.67714 0.62946 0.51463 0.0
H905 H 0.66105 0.66592 0.49955 0.0
C906 C 0.33737 0.00863 0.55343 0.0
C907 C 0.33113 0.03426 0.5562 0.0
C908 C 0.31571 0.98094 0.54237 0.0
C909 C 0.25626 0.95651 0.50057 0.0
H910 H 0.2375 0.86969 0.51489 0.0
C911 C 0.17968 0.84768 0.44673 0.0
C912 C 0.19104 0.82585 0.44371 0.0
C913 C 0.19286 0.87118 0.46237 0.0
C914 C 0.2427 0.89382 0.51061 0.0
H915 H 0.2967 0.05048 0.55028 0.0
H916 H 0.25865 0.0019 0.53094 0.0
H917 H 0.26679 0.91397 0.53962 0.0
H918 H 0.2248 0.81121 0.45481 0.0
H919 H 0.24835 0.8527 0.48183 0.0
H920 H 0.23324 0.93679 0.47133 0.0
C921 C 0.28046 0.00339 0.53726 0.0
C922 C 0.25935 0.91913 0.52481 0.0
C923 C 0.30206 0.03104 0.54847 0.0
C924 C 0.21553 0.82768 0.4568 0.0
C925 C 0.22884 0.85131 0.47239 0.0
C926 C 0.23976 0.93127 0.48635 0.0
C927 C 0.2874 0.97835 0.53375 0.0
C928 C 0.26671 0.95082 0.51979 0.0
C929 C 0.21781 0.87349 0.47527 0.0
C930 C 0.2332 0.89972 0.49107 0.0
H931 H 0.3594 0.01032 0.55945 0.0
H932 H 0.32187 0.96217 0.5398 0.0
H933 H 0.26203 0.98076 0.49612 0.0
H934 H 0.16063 0.84668 0.43697 0.0
H935 H 0.18347 0.88756 0.46436 0.0
C936 C 0.73127 0.02906 0.04614 0.0
C937 C 0.70687 0.03442 0.05399 0.0
C938 C 0.72305 0.00027 0.03549 0.0
C939 C 0.65388 0.93739 0.00568 0.0
H940 H 0.70482 0.89448 0.00383 0.0
C941 C 0.61186 0.82137 0.95833 0.0
C942 C 0.63494 0.82136 0.94471 0.0
C943 C 0.62129 0.84491 0.97386 0.0
C944 C 0.69047 0.90634 0.0042 0.0
H945 H 0.65532 0.01349 0.05866 0.0
H946 H 0.64083 0.96268 0.041 0.0
H947 H 0.71999 0.93967 0.02805 0.0
H948 H 0.68616 0.84512 0.93716 0.0
H949 H 0.70264 0.88644 0.96439 0.0
H950 H 0.62445 0.90431 0.9819 0.0
C951 C 0.66621 0.98097 0.04218 0.0
C952 C 0.69915 0.93221 0.01801 0.0
C953 C 0.67441 0.00986 0.05242 0.0
C954 C 0.66782 0.84463 0.94741 0.0
C955 C 0.67729 0.86813 0.96305 0.0
C956 C 0.6451 0.9115 0.99209 0.0
C957 C 0.6903 0.97634 0.03282 0.0
C958 C 0.68091 0.94804 0.01889 0.0
C959 C 0.654 0.86885 0.97615 0.0
C960 C 0.66328 0.89572 0.99117 0.0
H961 H 0.75646 0.0479 0.04713 0.0
H962 H 0.74223 0.9976 0.02841 0.0
H963 H 0.63981 0.94954 0.00543 0.0
H964 H 0.58637 0.80364 0.95674 0.0
H965 H 0.60288 0.84467 0.98392 0.0
C966 C 0.97252 0.68559 0.05493 0.0
C967 C 0.95087 0.65584 0.04544 0.0
C968 C 0.00196 0.70707 0.04526 0.0
C969 C 0.05961 0.70802 0.00659 0.0
H970 H 0.08961 0.79986 0.00142 0.0
C971 C 0.15046 0.81899 0.95029 0.0
C972 C 0.17681 0.8135 0.94961 0.0
C973 C 0.12574 0.80295 0.96495 0.0
C974 C 0.08154 0.77426 0.00278 0.0
H975 H 0.9426 0.6262 0.01787 0.0
H976 H 0.99368 0.66328 0.00124 0.0
H977 H 0.04 0.76501 0.02102 0.0
H978 H 0.19881 0.78823 0.96437 0.0
H979 H 0.15583 0.76048 0.99009 0.0
H980 H 0.1002 0.71675 0.9878 0.0
C981 C 0.98831 0.66973 0.01634 0.0
C982 C 0.05333 0.75441 0.01414 0.0
C983 C 0.95899 0.64843 0.02591 0.0
C984 C 0.17867 0.79275 0.96441 0.0
C985 C 0.15399 0.77676 0.97908 0.0
C986 C 0.08775 0.7278 0.99532 0.0
C987 C 0.01029 0.6991 0.02599 0.0
C988 C 0.04175 0.72096 0.01577 0.0
C989 C 0.12689 0.78112 0.97922 0.0
C990 C 0.09877 0.76105 0.99298 0.0
H991 H 0.96708 0.69194 0.07002 0.0
H992 H 0.01852 0.72954 0.05307 0.0
H993 H 0.0515 0.68239 0.00782 0.0
H994 H 0.14839 0.8349 0.93909 0.0
H995 H 0.10505 0.8066 0.96449 0.0
C996 C 0.17239 0.32601 0.95029 0.0
C997 C 0.1841 0.35936 0.9478 0.0
C998 C 0.18486 0.31487 0.96593 0.0
C999 C 0.2343 0.34047 0.01453 0.0
H1000 H 0.25535 0.27463 0.99847 0.0
C1001 C 0.33436 0.32508 0.05334 0.0
C1002 C 0.32931 0.29368 0.05633 0.0
C1003 C 0.31118 0.3298 0.04316 0.0
C1004 C 0.24907 0.29258 0.00335 0.0
H1005 H 0.21761 0.40717 0.95991 0.0
H1006 H 0.23988 0.3879 0.98684 0.0
H1007 H 0.22492 0.28914 0.97455 0.0
H1008 H 0.29566 0.24252 0.05162 0.0
H1009 H 0.25499 0.25077 0.0336 0.0
H1010 H 0.2598 0.34482 0.04299 0.0
C1011 C 0.22062 0.37021 0.97704 0.0
C1012 C 0.23161 0.30091 0.98965 0.0
C1013 C 0.20804 0.38131 0.96148 0.0
C1014 C 0.30006 0.26697 0.04961 0.0
C1015 C 0.27695 0.2717 0.03919 0.0
C1016 C 0.25195 0.33228 0.02817 0.0
C1017 C 0.2094 0.33688 0.97933 0.0
C1018 C 0.22464 0.32547 0.99488 0.0
C1019 C 0.28255 0.30321 0.03558 0.0
C1020 C 0.2601 0.30875 0.02252 0.0
H1021 H 0.15376 0.3085 0.94005 0.0
H1022 H 0.17538 0.28903 0.96745 0.0
H1023 H 0.22874 0.359 0.01923 0.0
H1024 H 0.35656 0.34604 0.05858 0.0
H1025 H 0.31631 0.35437 0.04044 0.0
C1026 C 0.04488 0.70478 0.47168 0.0
C1027 C 0.04997 0.71424 0.45062 0.0
C1028 C 0.01752 0.70077 0.48221 0.0
C1029 C 0.96663 0.71072 0.50372 0.0
H1030 H 0.88258 0.65722 0.47799 0.0
C1031 C 0.84855 0.67772 0.54738 0.0
C1032 C 0.82523 0.64457 0.5471 0.0
C1033 C 0.87483 0.69016 0.53363 0.0
C1034 C 0.9059 0.67229 0.48533 0.0
H1035 H 0.03058 0.7272 0.4241 0.0
H1036 H 0.98225 0.71992 0.44259 0.0
H1037 H 0.9319 0.67244 0.45798 0.0
H1038 H 0.81041 0.59868 0.53172 0.0
H1039 H 0.85638 0.62035 0.50782 0.0
H1040 H 0.94084 0.70962 0.5313 0.0
C1041 C -0.0004 0.71567 0.45088 0.0
C1042 C 0.93409 0.68125 0.47382 0.0
C1043 C 0.02727 0.72002 0.44036 0.0
C1044 C 0.82802 0.62434 0.53231 0.0
C1045 C 0.85424 0.6368 0.51852 0.0
C1046 C 0.93851 0.70193 0.51517 0.0
C1047 C 0.99447 0.70594 0.47191 0.0
C1048 C 0.96472 0.6999 0.48309 0.0
C1049 C 0.87824 0.66973 0.51928 0.0
C1050 C 0.90784 0.68204 0.50625 0.0
H1051 H 0.06217 0.70059 0.48008 0.0
H1052 H 0.01406 0.6929 0.49835 0.0
H1053 H 0.98994 0.7254 0.51118 0.0
H1054 H 0.84696 0.69395 0.55854 0.0
H1055 H 0.89275 0.71571 0.53442 0.0
C1056 C 0.32494 0.17287 0.54889 0.0
C1057 C 0.35663 0.17792 0.54913 0.0
C1058 C 0.31572 0.18791 0.5338 0.0
C1059 C 0.29907 0.21559 0.49582 0.0
H1060 H 0.3628 0.30658 0.48885 0.0
C1061 C 0.27998 0.30579 0.44405 0.0
C1062 C 0.2893 0.3358 0.45362 0.0
C1063 C 0.28733 0.28365 0.45343 0.0
C1064 C 0.34477 0.28119 0.4906 0.0
H1065 H 0.40283 0.20083 0.53298 0.0
H1066 H 0.38664 0.22671 0.50653 0.0
H1067 H 0.37685 0.27181 0.50862 0.0
H1068 H 0.3121 0.36518 0.48108 0.0
H1069 H 0.32516 0.32704 0.49713 0.0
H1070 H 0.26663 0.22564 0.47834 0.0
C1071 C 0.3691 0.21168 0.51822 0.0
C1072 C 0.35293 0.26115 0.50172 0.0
C1073 C 0.37833 0.19675 0.53332 0.0
C1074 C 0.30535 0.34278 0.47295 0.0
C1075 C 0.3128 0.32086 0.48221 0.0
C1076 C 0.29093 0.23573 0.48457 0.0
C1077 C 0.33802 0.20822 0.51865 0.0
C1078 C 0.33003 0.22825 0.5048 0.0
C1079 C 0.30427 0.29126 0.47245 0.0
C1080 C 0.31351 0.26889 0.48229 0.0
H1081 H 0.30766 0.15842 0.56086 0.0
H1082 H 0.29169 0.18496 0.53468 0.0
H1083 H 0.28101 0.19028 0.49778 0.0
H1084 H 0.26773 0.29973 0.42911 0.0
H1085 H 0.28051 0.26099 0.44557 0.0
C1086 C 0.80524 0.14007 0.55992 0.0
C1087 C 0.7967 0.16435 0.5605 0.0
C1088 C 0.79219 0.11584 0.5447 0.0
C1089 C 0.75185 0.0973 0.49306 0.0
H1090 H 0.72305 0.00807 0.5081 0.0
C1091 C 0.65944 0.98787 0.44543 0.0
C1092 C 0.66362 0.96082 0.44355 0.0
C1093 C 0.68056 0.01429 0.45765 0.0
C1094 C 0.73153 0.03296 0.50356 0.0
H1095 H 0.76743 0.18203 0.54591 0.0
H1096 H 0.74408 0.13936 0.51968 0.0
H1097 H 0.74944 0.05065 0.53422 0.0
H1098 H 0.69375 0.94056 0.4523 0.0
H1099 H 0.73086 0.98694 0.47385 0.0
H1100 H 0.73293 0.07935 0.46258 0.0
C1101 C 0.76139 0.1394 0.53065 0.0
C1102 C 0.7466 0.05736 0.51853 0.0
C1103 C 0.77453 0.16368 0.5458 0.0
C1104 C 0.69015 0.96122 0.45341 0.0
C1105 C 0.71115 0.98758 0.46586 0.0
C1106 C 0.73665 0.07289 0.47814 0.0
C1107 C 0.77028 0.11535 0.52981 0.0
C1108 C 0.75639 0.08973 0.51355 0.0
C1109 C 0.70617 0.0141 0.46838 0.0
C1110 C 0.72583 0.04041 0.48334 0.0
H1111 H 0.82244 0.14009 0.57098 0.0
H1112 H 0.79975 0.09784 0.54437 0.0
H1113 H 0.75978 0.12209 0.48858 0.0
H1114 H 0.63934 0.98822 0.43781 0.0
H1115 H 0.67594 0.03425 0.45942 0.0
C1116 C 0.23885 0.30822 0.31774 0.0
C1117 C 0.26207 0.32242 0.33372 0.0
C1118 C 0.24605 0.29704 0.29948 0.0
C1119 C 0.31504 0.31361 0.26701 0.0
H1120 H 0.25709 0.23175 0.24005 0.0
C1121 C 0.35445 0.27414 0.19358 0.0
C1122 C 0.33153 0.25885 0.17766 0.0
C1123 C 0.34494 0.27918 0.21313 0.0
C1124 C 0.27336 0.25486 0.24726 0.0
H1125 H 0.31038 0.33418 0.3435 0.0
H1126 H 0.32313 0.31535 0.3114 0.0
H1127 H 0.24199 0.24485 0.27365 0.0
H1128 H 0.28066 0.23629 0.16966 0.0
H1129 H 0.26395 0.246 0.20379 0.0
H1130 H 0.34596 0.32435 0.24057 0.0
C1131 C 0.29949 0.31319 0.313 0.0
C1132 C 0.26476 0.26225 0.26652 0.0
C1133 C 0.29221 0.32409 0.33132 0.0
C1134 C 0.29875 0.24809 0.18175 0.0
C1135 C 0.28923 0.25353 0.2013 0.0
C1136 C 0.32345 0.30643 0.24772 0.0
C1137 C 0.27669 0.3001 0.29677 0.0
C1138 C 0.28565 0.29163 0.27659 0.0
C1139 C 0.31232 0.26946 0.21716 0.0
C1140 C 0.30285 0.2769 0.23764 0.0
H1141 H 0.21553 0.30689 0.31895 0.0
H1142 H 0.22814 0.28728 0.28713 0.0
H1143 H 0.33128 0.33673 0.27424 0.0
H1144 H 0.37981 0.28208 0.19092 0.0
H1145 H 0.36326 0.29072 0.22511 0.0
C1146 C 0.77989 0.07045 0.18355 0.0
C1147 C 0.753 0.06925 0.17365 0.0
C1148 C 0.7757 0.0525 0.20174 0.0
C1149 C 0.7162 0.98174 0.23093 0.0
H1150 H 0.76123 0.02862 0.28093 0.0
C1151 C 0.69115 0.9648 0.32333 0.0
C1152 C 0.68521 0.93308 0.3263 0.0
C1153 C 0.70532 0.98143 0.30485 0.0
C1154 C 0.74875 0.01522 0.26704 0.0
H1155 H 0.70081 0.04787 0.17435 0.0
H1156 H 0.69339 0.01591 0.20584 0.0
H1157 H 0.7746 0.05668 0.24718 0.0
H1158 H 0.69006 0.8941 0.31259 0.0
H1159 H 0.71444 0.92307 0.28008 0.0
H1160 H 0.68976 0.94053 0.25075 0.0
C1161 C 0.71763 0.03084 0.19968 0.0
C1162 C 0.75652 0.03116 0.24778 0.0
C1163 C 0.72187 0.0492 0.1818 0.0
C1164 C 0.69456 0.91862 0.31072 0.0
C1165 C 0.70832 0.93508 0.29212 0.0
C1166 C 0.70878 0.9657 0.2501 0.0
C1167 C 0.74451 0.0326 0.20994 0.0
C1168 C 0.73971 0.01473 0.22968 0.0
C1169 C 0.71339 0.96645 0.28891 0.0
C1170 C 0.72443 0.98249 0.26839 0.0
H1171 H 0.80413 0.08592 0.17754 0.0
H1172 H 0.79674 0.05418 0.20942 0.0
H1173 H 0.70301 0.96858 0.21714 0.0
H1174 H 0.68437 0.97654 0.33518 0.0
H1175 H 0.70873 0.0055 0.30268 0.0
C1176 C 0.9559 0.69834 0.1727 0.0
C1177 C 0.93156 0.66601 0.16963 0.0
C1178 C 0.97174 0.70823 0.19197 0.0
C1179 C 0.98609 0.67427 0.24049 0.0
H1180 H 0.01372 0.75988 0.26284 0.0
C1181 C 0.03262 0.70955 0.32451 0.0
C1182 C 0.06327 0.73759 0.32632 0.0
C1183 C 0.01544 0.70227 0.30576 0.0
C1184 C 0.00614 0.73594 0.2567 0.0
H1185 H 0.90358 0.61902 0.18434 0.0
H1186 H 0.9302 0.63631 0.21803 0.0
H1187 H 0.98592 0.74421 0.22914 0.0
H1188 H 0.09932 0.78044 0.30985 0.0
H1189 H 0.06873 0.76809 0.27737 0.0
H1190 H 0.0057 0.66584 0.26827 0.0
C1191 C 0.93815 0.65388 0.20549 0.0
C1192 C 0.99043 0.727 0.23737 0.0
C1193 C 0.92277 0.64395 0.18621 0.0
C1194 C 0.07562 0.75888 0.30918 0.0
C1195 C 0.0582 0.75179 0.29052 0.0
C1196 C 0.00131 0.68303 0.25989 0.0
C1197 C 0.96312 0.68604 0.20859 0.0
C1198 C 0.98017 0.696 0.22903 0.0
C1199 C 0.0283 0.7231 0.28853 0.0
C1200 C 0.01146 0.71391 0.26817 0.0
H1201 H 0.96308 0.71576 0.16009 0.0
H1202 H 0.99109 0.73308 0.19369 0.0
H1203 H 0.97933 0.65052 0.23438 0.0
H1204 H 0.02197 0.69298 0.3375 0.0
H1205 H 0.99219 0.68018 0.30466 0.0
C1206 C 0.71091 0.64277 0.68113 0.0
C1207 C 0.7252 0.66482 0.66464 0.0
C1208 C 0.70515 0.65294 0.70025 0.0
C1209 C 0.72828 0.72667 0.73199 0.0
H1210 H 0.65187 0.66714 0.7635 0.0
C1211 C 0.67966 0.76007 0.80581 0.0
C1212 C 0.67092 0.73833 0.82269 0.0
C1213 C 0.68875 0.75293 0.78667 0.0
C1214 C 0.67342 0.6839 0.75492 0.0
H1215 H 0.74443 0.71471 0.65502 0.0
H1216 H 0.73331 0.73245 0.68829 0.0
H1217 H 0.66131 0.65124 0.7293 0.0
H1218 H 0.66692 0.69299 0.83293 0.0
H1219 H 0.68175 0.68016 0.79931 0.0
H1220 H 0.73959 0.75968 0.75762 0.0
C1221 C 0.72728 0.70742 0.68665 0.0
C1222 C 0.67895 0.67479 0.73535 0.0
C1223 C 0.73348 0.69728 0.66756 0.0
C1224 C 0.67267 0.70989 0.82016 0.0
C1225 C 0.68131 0.70259 0.80096 0.0
C1226 C 0.72245 0.73597 0.75149 0.0
C1227 C 0.7131 0.68536 0.70326 0.0
C1228 C 0.70665 0.69588 0.72371 0.0
C1229 C 0.68889 0.72376 0.78396 0.0
C1230 C 0.69515 0.71449 0.7632 0.0
H1231 H 0.70487 0.61772 0.6794 0.0
H1232 H 0.69495 0.63541 0.71279 0.0
H1233 H 0.75008 0.74339 0.72363 0.0
H1234 H 0.67825 0.782 0.80709 0.0
H1235 H 0.69434 0.76955 0.77373 0.0
C1236 C 0.23445 0.92971 0.81586 0.0
C1237 C 0.25785 0.94011 0.83181 0.0
C1238 C 0.24061 0.94786 0.79755 0.0
C1239 C 0.3091 0.00335 0.76554 0.0
H1240 H 0.2483 0.02185 0.73707 0.0
C1241 C 0.34802 0.08404 0.69324 0.0
C1242 C 0.32624 0.07478 0.67647 0.0
C1243 C 0.33782 0.06903 0.71261 0.0
C1244 C 0.26539 0.01654 0.74473 0.0
H1245 H 0.305 0.97888 0.84168 0.0
H1246 H 0.31587 0.01023 0.80964 0.0
H1247 H 0.23331 0.99316 0.77057 0.0
H1248 H 0.27653 0.04329 0.66683 0.0
H1249 H 0.25867 0.01617 0.70072 0.0
H1250 H 0.34087 0.02569 0.73974 0.0
C1251 C 0.29301 0.9878 0.81118 0.0
C1252 C 0.25684 0.00025 0.76391 0.0
C1253 C 0.28682 0.9698 0.82948 0.0
C1254 C 0.29374 0.05083 0.67957 0.0
C1255 C 0.28356 0.03545 0.69897 0.0
C1256 C 0.31751 0.01928 0.74639 0.0
C1257 C 0.27032 0.97663 0.79485 0.0
C1258 C 0.27879 0.9938 0.77456 0.0
C1259 C 0.30567 0.04405 0.71561 0.0
C1260 C 0.29594 0.0264 0.73582 0.0
H1261 H 0.21198 0.90683 0.81712 0.0
H1262 H 0.22278 0.93863 0.78514 0.0
H1263 H 0.32621 0.99801 0.77317 0.0
H1264 H 0.37306 0.10293 0.69135 0.0
H1265 H 0.35528 0.07692 0.72522 0.0
C1266 C 0.06996 0.34831 0.81041 0.0
C1267 C 0.06692 0.32719 0.82669 0.0
C1268 C 0.05353 0.33619 0.79163 0.0
C1269 C 0.98323 0.26508 0.76883 0.0
H1270 H 0.02448 0.3069 0.71674 0.0
C1271 C 0.91115 0.25486 0.6947 0.0
C1272 C 0.92415 0.25417 0.67514 0.0
C1273 C 0.92892 0.25931 0.71291 0.0
C1274 C 0.01274 0.29458 0.73108 0.0
H1275 H 0.04405 0.2767 0.83603 0.0
H1276 H 0.01567 0.25545 0.80298 0.0
H1277 H 0.05569 0.32318 0.74899 0.0
H1278 H 0.96559 0.25659 0.65938 0.0
H1279 H 0.99656 0.26388 0.69133 0.0
H1280 H 0.94027 0.23645 0.75089 0.0
C1281 C 0.03063 0.28144 0.80488 0.0
C1282 C 0.03051 0.30421 0.74961 0.0
C1283 C 0.04709 0.2936 0.82373 0.0
C1284 C 0.95493 0.25698 0.67424 0.0
C1285 C 0.97275 0.26142 0.6925 0.0
C1286 C 0.96547 0.25538 0.75028 0.0
C1287 C 0.03372 0.30263 0.78862 0.0
C1288 C 0.01576 0.29009 0.76874 0.0
C1289 C 0.96008 0.26304 0.71201 0.0
C1290 C 0.97983 0.27053 0.73128 0.0
H1291 H 0.0854 0.37429 0.81208 0.0
H1292 H 0.05604 0.3532 0.77954 0.0
H1293 H 0.97112 0.2538 0.78332 0.0
H1294 H 0.88725 0.25216 0.69595 0.0
H1295 H 0.91858 0.26079 0.72764 0.0
loop_
_geom_bond_atom_site_label_1
_geom_bond_atom_site_label_2
_geom_bond_distance
_geom_bond_site_symmetry_2
_ccdc_geom_bond_type
Co0 N4 2.148 . S
Co0 N10 2.128 . S
Co0 N20 2.194 . S
Co0 O25 2.351 . S
Co0 O26 2.155 . S
Co0 O27 2.096 . S
C1 N4 1.301 . S
C1 N5 1.328 . S
C1 H6 0.930 . S
C2 C3 1.333 . S
C2 N4 1.317 . S
C2 H7 0.930 . S
C3 C2 1.333 . S
C3 N5 1.350 . S
C3 H29 0.931 . S
N4 Co0 2.148 . S
N4 C1 1.301 . S
N4 C2 1.317 . S
N5 C1 1.328 . S
N5 C3 1.350 . S
H6 C1 0.930 . S
H7 C2 0.930 . S
C8 O9 1.224 . S
C8 O27 1.247 . S
O9 C8 1.224 . S
N10 Co0 2.128 . S
N10 C11 1.355 . S
N10 C13 1.311 . S
C11 N10 1.355 . S
C11 C12 1.363 . S
C11 H23 0.929 . S
C12 C11 1.363 . S
C12 N14 1.375 . S
C12 H30 0.931 . S
C13 N10 1.311 . S
C13 N14 1.347 . S
C13 H24 0.929 . S
N14 C12 1.375 . S
N14 C13 1.347 . S
C15 C18 1.365 . S
C15 N20 1.328 . S
C15 H21 0.929 . S
C16 C17 1.362 . S
C16 C19 1.378 . S
C16 H31 0.929 . S
C17 C16 1.362 . S
C17 C18 1.366 . S
C18 C15 1.365 . S
C18 C17 1.366 . S
C18 H32 0.930 . S
C19 C16 1.378 . S
C19 N20 1.315 . S
C19 H22 0.930 . S
N20 Co0 2.194 . S
N20 C15 1.328 . S
N20 C19 1.315 . S
H21 C15 0.929 . S
H22 C19 0.930 . S
H23 C11 0.929 . S
H24 C13 0.929 . S
O25 Co0 2.351 . S
O25 C28 1.244 . S
O26 Co0 2.155 . S
O26 C28 1.240 . S
O27 Co0 2.096 . S
O27 C8 1.247 . S
C28 O25 1.244 . S
C28 O26 1.240 . S
H29 C3 0.931 . S
H30 C12 0.931 . S
H31 C16 0.929 . S
H32 C18 0.930 . S
Co33 N37 2.148 . S
Co33 N43 2.128 . S
Co33 N53 2.194 . S
Co33 O58 2.351 . S
Co33 O59 2.155 . S
Co33 O60 2.096 . S
C34 N37 1.301 . S
C34 N38 1.328 . S
C34 H39 0.930 . S
C35 C36 1.333 . S
C35 N37 1.317 . S
C35 H40 0.930 . S
C36 C35 1.333 . S
C36 N38 1.350 . S
C36 H62 0.931 . S
N37 Co33 2.148 . S
N37 C34 1.301 . S
N37 C35 1.317 . S
N38 C34 1.328 . S
N38 C36 1.350 . S
H39 C34 0.930 . S
H40 C35 0.930 . S
C41 O42 1.224 . S
C41 O60 1.247 . S
O42 C41 1.224 . S
N43 Co33 2.128 . S
N43 C44 1.355 . S
N43 C46 1.311 . S
C44 N43 1.355 . S
C44 C45 1.363 . S
C44 H56 0.929 . S
C45 C44 1.363 . S
C45 N47 1.375 . S
C45 H63 0.931 . S
C46 N43 1.311 . S
C46 N47 1.347 . S
C46 H57 0.929 . S
N47 C45 1.375 . S
N47 C46 1.347 . S
C48 C51 1.365 . S
C48 N53 1.328 . S
C48 H54 0.929 . S
C49 C50 1.362 . S
C49 C52 1.378 . S
C49 H64 0.929 . S
C50 C49 1.362 . S
C50 C51 1.366 . S
C51 C48 1.365 . S
C51 C50 1.366 . S
C51 H65 0.930 . S
C52 C49 1.378 . S
C52 N53 1.315 . S
C52 H55 0.930 . S
N53 Co33 2.194 . S
N53 C48 1.328 . S
N53 C52 1.315 . S
H54 C48 0.929 . S
H55 C52 0.930 . S
H56 C44 0.929 . S
H57 C46 0.929 . S
O58 Co33 2.351 . S
O58 C61 1.244 . S
O59 Co33 2.155 . S
O59 C61 1.240 . S
O60 Co33 2.096 . S
O60 C41 1.247 . S
C61 O58 1.244 . S
C61 O59 1.240 . S
H62 C36 0.931 . S
H63 C45 0.931 . S
H64 C49 0.929 . S
H65 C51 0.930 . S
Co66 N70 2.148 . S
Co66 N76 2.128 . S
Co66 N86 2.194 . S
Co66 O91 2.351 . S
Co66 O92 2.155 . S
Co66 O93 2.096 . S
C67 N70 1.301 . S
C67 N71 1.328 . S
C67 H72 0.930 . S
C68 C69 1.333 . S
C68 N70 1.317 . S
C68 H73 0.930 . S
C69 C68 1.333 . S
C69 N71 1.350 . S
C69 H95 0.931 . S
N70 Co66 2.148 . S
N70 C67 1.301 . S
N70 C68 1.317 . S
N71 C67 1.328 . S
N71 C69 1.350 . S
H72 C67 0.930 . S
H73 C68 0.930 . S
C74 O75 1.224 . S
C74 O93 1.247 . S
O75 C74 1.224 . S
N76 Co66 2.128 . S
N76 C77 1.355 . S
N76 C79 1.311 . S
C77 N76 1.355 . S
C77 C78 1.363 . S
C77 H89 0.929 . S
C78 C77 1.363 . S
C78 N80 1.375 . S
C78 H96 0.931 . S
C79 N76 1.311 . S
C79 N80 1.347 . S
C79 H90 0.929 . S
N80 C78 1.375 . S
N80 C79 1.347 . S
C81 C84 1.365 . S
C81 N86 1.328 . S
C81 H87 0.929 . S
C82 C83 1.362 . S
C82 C85 1.378 . S
C82 H97 0.929 . S
C83 C82 1.362 . S
C83 C84 1.366 . S
C84 C81 1.365 . S
C84 C83 1.366 . S
C84 H98 0.930 . S
C85 C82 1.378 . S
C85 N86 1.315 . S
C85 H88 0.930 . S
N86 Co66 2.194 . S
N86 C81 1.328 . S
N86 C85 1.315 . S
H87 C81 0.929 . S
H88 C85 0.930 . S
H89 C77 0.929 . S
H90 C79 0.929 . S
O91 Co66 2.351 . S
O91 C94 1.244 . S
O92 Co66 2.155 . S
O92 C94 1.240 . S
O93 Co66 2.096 . S
O93 C74 1.247 . S
C94 O91 1.244 . S
C94 O92 1.240 . S
H95 C69 0.931 . S
H96 C78 0.931 . S
H97 C82 0.929 . S
H98 C84 0.930 . S
Co99 N103 2.148 . S
Co99 N109 2.128 . S
Co99 N119 2.194 . S
Co99 O124 2.351 . S
Co99 O125 2.155 . S
Co99 O126 2.096 . S
C100 N103 1.301 . S
C100 N104 1.328 . S
C100 H105 0.930 . S
C101 C102 1.333 . S
C101 N103 1.317 . S
C101 H106 0.930 . S
C102 C101 1.333 . S
C102 N104 1.350 . S
C102 H128 0.931 . S
N103 Co99 2.148 . S
N103 C100 1.301 . S
N103 C101 1.317 . S
N104 C100 1.328 . S
N104 C102 1.350 . S
H105 C100 0.930 . S
H106 C101 0.930 . S
C107 O108 1.224 . S
C107 O126 1.247 . S
O108 C107 1.224 . S
N109 Co99 2.128 . S
N109 C110 1.355 . S
N109 C112 1.311 . S
C110 N109 1.355 . S
C110 C111 1.363 . S
C110 H122 0.929 . S
C111 C110 1.363 . S
C111 N113 1.375 . S
C111 H129 0.931 . S
C112 N109 1.311 . S
C112 N113 1.347 . S
C112 H123 0.929 . S
N113 C111 1.375 . S
N113 C112 1.347 . S
C114 C117 1.365 . S
C114 N119 1.328 . S
C114 H120 0.929 . S
C115 C116 1.362 . S
C115 C118 1.378 . S
C115 H130 0.929 . S
C116 C115 1.362 . S
C116 C117 1.366 . S
C117 C114 1.365 . S
C117 C116 1.366 . S
C117 H131 0.930 . S
C118 C115 1.378 . S
C118 N119 1.315 . S
C118 H121 0.930 . S
N119 Co99 2.194 . S
N119 C114 1.328 . S
N119 C118 1.315 . S
H120 C114 0.929 . S
H121 C118 0.930 . S
H122 C110 0.929 . S
H123 C112 0.929 . S
O124 Co99 2.351 . S
O124 C127 1.244 . S
O125 Co99 2.155 . S
O125 C127 1.240 . S
O126 Co99 2.096 . S
O126 C107 1.247 . S
C127 O124 1.244 . S
C127 O125 1.240 . S
H128 C102 0.931 . S
H129 C111 0.931 . S
H130 C115 0.929 . S
H131 C117 0.930 . S
Co132 N136 2.148 . S
Co132 N142 2.128 . S
Co132 N152 2.194 . S
Co132 O157 2.351 . S
Co132 O158 2.155 . S
Co132 O159 2.096 . S
C133 N136 1.301 . S
C133 N137 1.328 . S
C133 H138 0.930 . S
C134 C135 1.333 . S
C134 N136 1.317 . S
C134 H139 0.930 . S
C135 C134 1.333 . S
C135 N137 1.350 . S
C135 H161 0.931 . S
N136 Co132 2.148 . S
N136 C133 1.301 . S
N136 C134 1.317 . S
N137 C133 1.328 . S
N137 C135 1.350 . S
H138 C133 0.930 . S
H139 C134 0.930 . S
C140 O141 1.224 . S
C140 O159 1.247 . S
O141 C140 1.224 . S
N142 Co132 2.128 . S
N142 C143 1.355 . S
N142 C145 1.311 . S
C143 N142 1.355 . S
C143 C144 1.363 . S
C143 H155 0.929 . S
C144 C143 1.363 . S
C144 N146 1.375 . S
C144 H162 0.931 . S
C145 N142 1.311 . S
C145 N146 1.347 . S
C145 H156 0.929 . S
N146 C144 1.375 . S
N146 C145 1.347 . S
C147 C150 1.365 . S
C147 N152 1.328 . S
C147 H153 0.929 . S
C148 C149 1.362 . S
C148 C151 1.378 . S
C148 H163 0.929 . S
C149 C148 1.362 . S
C149 C150 1.366 . S
C150 C147 1.365 . S
C150 C149 1.366 . S
C150 H164 0.930 . S
C151 C148 1.378 . S
C151 N152 1.315 . S
C151 H154 0.930 . S
N152 Co132 2.194 . S
N152 C147 1.328 . S
N152 C151 1.315 . S
H153 C147 0.929 . S
H154 C151 0.930 . S
H155 C143 0.929 . S
H156 C145 0.929 . S
O157 Co132 2.351 . S
O157 C160 1.244 . S
O158 Co132 2.155 . S
O158 C160 1.240 . S
O159 Co132 2.096 . S
O159 C140 1.247 . S
C160 O157 1.244 . S
C160 O158 1.240 . S
H161 C135 0.931 . S
H162 C144 0.931 . S
H163 C148 0.929 . S
H164 C150 0.930 . S
Co165 N169 2.148 . S
Co165 N175 2.128 . S
Co165 N185 2.194 . S
Co165 O190 2.351 . S
Co165 O191 2.155 . S
Co165 O192 2.096 . S
C166 N169 1.301 . S
C166 N170 1.328 . S
C166 H171 0.930 . S
C167 C168 1.333 . S
C167 N169 1.317 . S
C167 H172 0.930 . S
C168 C167 1.333 . S
C168 N170 1.350 . S
C168 H194 0.931 . S
N169 Co165 2.148 . S
N169 C166 1.301 . S
N169 C167 1.317 . S
N170 C166 1.328 . S
N170 C168 1.350 . S
H171 C166 0.930 . S
H172 C167 0.930 . S
C173 O174 1.224 . S
C173 O192 1.247 . S
O174 C173 1.224 . S
N175 Co165 2.128 . S
N175 C176 1.355 . S
N175 C178 1.311 . S
C176 N175 1.355 . S
C176 C177 1.363 . S
C176 H188 0.929 . S
C177 C176 1.363 . S
C177 N179 1.375 . S
C177 H195 0.931 . S
C178 N175 1.311 . S
C178 N179 1.347 . S
C178 H189 0.929 . S
N179 C177 1.375 . S
N179 C178 1.347 . S
C180 C183 1.365 . S
C180 N185 1.328 . S
C180 H186 0.929 . S
C181 C182 1.362 . S
C181 C184 1.378 . S
C181 H196 0.929 . S
C182 C181 1.362 . S
C182 C183 1.366 . S
C183 C180 1.365 . S
C183 C182 1.366 . S
C183 H197 0.930 . S
C184 C181 1.378 . S
C184 N185 1.315 . S
C184 H187 0.930 . S
N185 Co165 2.194 . S
N185 C180 1.328 . S
N185 C184 1.315 . S
H186 C180 0.929 . S
H187 C184 0.930 . S
H188 C176 0.929 . S
H189 C178 0.929 . S
O190 Co165 2.351 . S
O190 C193 1.244 . S
O191 Co165 2.155 . S
O191 C193 1.240 . S
O192 Co165 2.096 . S
O192 C173 1.247 . S
C193 O190 1.244 . S
C193 O191 1.240 . S
H194 C168 0.931 . S
H195 C177 0.931 . S
H196 C181 0.929 . S
H197 C183 0.930 . S
Co198 N202 2.148 . S
Co198 N208 2.128 . S
Co198 N218 2.194 . S
Co198 O223 2.351 . S
Co198 O224 2.155 . S
Co198 O225 2.096 . S
C199 N202 1.301 . S
C199 N203 1.328 . S
C199 H204 0.930 . S
C200 C201 1.333 . S
C200 N202 1.317 . S
C200 H205 0.930 . S
C201 C200 1.333 . S
C201 N203 1.350 . S
C201 H227 0.931 . S
N202 Co198 2.148 . S
N202 C199 1.301 . S
N202 C200 1.317 . S
N203 C199 1.328 . S
N203 C201 1.350 . S
H204 C199 0.930 . S
H205 C200 0.930 . S
C206 O207 1.224 . S
C206 O225 1.247 . S
O207 C206 1.224 . S
N208 Co198 2.128 . S
N208 C209 1.355 . S
N208 C211 1.311 . S
C209 N208 1.355 . S
C209 C210 1.363 . S
C209 H221 0.929 . S
C210 C209 1.363 . S
C210 N212 1.375 . S
C210 H228 0.931 . S
C211 N208 1.311 . S
C211 N212 1.347 . S
C211 H222 0.929 . S
N212 C210 1.375 . S
N212 C211 1.347 . S
C213 C216 1.365 . S
C213 N218 1.328 . S
C213 H219 0.929 . S
C214 C215 1.362 . S
C214 C217 1.378 . S
C214 H229 0.929 . S
C215 C214 1.362 . S
C215 C216 1.366 . S
C216 C213 1.365 . S
C216 C215 1.366 . S
C216 H230 0.930 . S
C217 C214 1.378 . S
C217 N218 1.315 . S
C217 H220 0.930 . S
N218 Co198 2.194 . S
N218 C213 1.328 . S
N218 C217 1.315 . S
H219 C213 0.929 . S
H220 C217 0.930 . S
H221 C209 0.929 . S
H222 C211 0.929 . S
O223 Co198 2.351 . S
O223 C226 1.244 . S
O224 Co198 2.155 . S
O224 C226 1.240 . S
O225 Co198 2.096 . S
O225 C206 1.247 . S
C226 O223 1.244 . S
C226 O224 1.240 . S
H227 C201 0.931 . S
H228 C210 0.931 . S
H229 C214 0.929 . S
H230 C216 0.930 . S
Co231 N235 2.148 . S
Co231 N241 2.128 . S
Co231 N251 2.194 . S
Co231 O256 2.351 . S
Co231 O257 2.155 . S
Co231 O258 2.096 . S
C232 N235 1.301 . S
C232 N236 1.328 . S
C232 H237 0.930 . S
C233 C234 1.333 . S
C233 N235 1.317 . S
C233 H238 0.930 . S
C234 C233 1.333 . S
C234 N236 1.350 . S
C234 H260 0.931 . S
N235 Co231 2.148 . S
N235 C232 1.301 . S
N235 C233 1.317 . S
N236 C232 1.328 . S
N236 C234 1.350 . S
H237 C232 0.930 . S
H238 C233 0.930 . S
C239 O240 1.224 . S
C239 O258 1.247 . S
O240 C239 1.224 . S
N241 Co231 2.128 . S
N241 C242 1.355 . S
N241 C244 1.311 . S
C242 N241 1.355 . S
C242 C243 1.363 . S
C242 H254 0.929 . S
C243 C242 1.363 . S
C243 N245 1.375 . S
C243 H261 0.931 . S
C244 N241 1.311 . S
C244 N245 1.347 . S
C244 H255 0.929 . S
N245 C243 1.375 . S
N245 C244 1.347 . S
C246 C249 1.365 . S
C246 N251 1.328 . S
C246 H252 0.929 . S
C247 C248 1.362 . S
C247 C250 1.378 . S
C247 H262 0.929 . S
C248 C247 1.362 . S
C248 C249 1.366 . S
C249 C246 1.365 . S
C249 C248 1.366 . S
C249 H263 0.930 . S
C250 C247 1.378 . S
C250 N251 1.315 . S
C250 H253 0.930 . S
N251 Co231 2.194 . S
N251 C246 1.328 . S
N251 C250 1.315 . S
H252 C246 0.929 . S
H253 C250 0.930 . S
H254 C242 0.929 . S
H255 C244 0.929 . S
O256 Co231 2.351 . S
O256 C259 1.244 . S
O257 Co231 2.155 . S
O257 C259 1.240 . S
O258 Co231 2.096 . S
O258 C239 1.247 . S
C259 O256 1.244 . S
C259 O257 1.240 . S
H260 C234 0.931 . S
H261 C243 0.931 . S
H262 C247 0.929 . S
H263 C249 0.930 . S
Co264 N268 2.148 . S
Co264 N274 2.128 . S
Co264 N284 2.194 . S
Co264 O289 2.351 . S
Co264 O290 2.155 . S
Co264 O291 2.096 . S
C265 N268 1.301 . S
C265 N269 1.328 . S
C265 H270 0.930 . S
C266 C267 1.333 . S
C266 N268 1.317 . S
C266 H271 0.930 . S
C267 C266 1.333 . S
C267 N269 1.350 . S
C267 H293 0.931 . S
N268 Co264 2.148 . S
N268 C265 1.301 . S
N268 C266 1.317 . S
N269 C265 1.328 . S
N269 C267 1.350 . S
H270 C265 0.930 . S
H271 C266 0.930 . S
C272 O273 1.224 . S
C272 O291 1.247 . S
O273 C272 1.224 . S
N274 Co264 2.128 . S
N274 C275 1.355 . S
N274 C277 1.311 . S
C275 N274 1.355 . S
C275 C276 1.363 . S
C275 H287 0.929 . S
C276 C275 1.363 . S
C276 N278 1.375 . S
C276 H294 0.931 . S
C277 N274 1.311 . S
C277 N278 1.347 . S
C277 H288 0.929 . S
N278 C276 1.375 . S
N278 C277 1.347 . S
C279 C282 1.365 . S
C279 N284 1.328 . S
C279 H285 0.929 . S
C280 C281 1.362 . S
C280 C283 1.378 . S
C280 H295 0.929 . S
C281 C280 1.362 . S
C281 C282 1.366 . S
C282 C279 1.365 . S
C282 C281 1.366 . S
C282 H296 0.930 . S
C283 C280 1.378 . S
C283 N284 1.315 . S
C283 H286 0.930 . S
N284 Co264 2.194 . S
N284 C279 1.328 . S
N284 C283 1.315 . S
H285 C279 0.929 . S
H286 C283 0.930 . S
H287 C275 0.929 . S
H288 C277 0.929 . S
O289 Co264 2.351 . S
O289 C292 1.244 . S
O290 Co264 2.155 . S
O290 C292 1.240 . S
O291 Co264 2.096 . S
O291 C272 1.247 . S
C292 O289 1.244 . S
C292 O290 1.240 . S
H293 C267 0.931 . S
H294 C276 0.931 . S
H295 C280 0.929 . S
H296 C282 0.930 . S
Co297 N301 2.148 . S
Co297 N307 2.128 . S
Co297 N317 2.194 . S
Co297 O322 2.351 . S
Co297 O323 2.155 . S
Co297 O324 2.096 . S
C298 N301 1.301 . S
C298 N302 1.328 . S
C298 H303 0.930 . S
C299 C300 1.333 . S
C299 N301 1.317 . S
C299 H304 0.930 . S
C300 C299 1.333 . S
C300 N302 1.350 . S
C300 H326 0.931 . S
N301 Co297 2.148 . S
N301 C298 1.301 . S
N301 C299 1.317 . S
N302 C298 1.328 . S
N302 C300 1.350 . S
H303 C298 0.930 . S
H304 C299 0.930 . S
C305 O306 1.224 . S
C305 O324 1.247 . S
O306 C305 1.224 . S
N307 Co297 2.128 . S
N307 C308 1.355 . S
N307 C310 1.311 . S
C308 N307 1.355 . S
C308 C309 1.363 . S
C308 H320 0.929 . S
C309 C308 1.363 . S
C309 N311 1.375 . S
C309 H327 0.931 . S
C310 N307 1.311 . S
C310 N311 1.347 . S
C310 H321 0.929 . S
N311 C309 1.375 . S
N311 C310 1.347 . S
C312 C315 1.365 . S
C312 N317 1.328 . S
C312 H318 0.929 . S
C313 C314 1.362 . S
C313 C316 1.378 . S
C313 H328 0.929 . S
C314 C313 1.362 . S
C314 C315 1.366 . S
C315 C312 1.365 . S
C315 C314 1.366 . S
C315 H329 0.930 . S
C316 C313 1.378 . S
C316 N317 1.315 . S
C316 H319 0.930 . S
N317 Co297 2.194 . S
N317 C312 1.328 . S
N317 C316 1.315 . S
H318 C312 0.929 . S
H319 C316 0.930 . S
H320 C308 0.929 . S
H321 C310 0.929 . S
O322 Co297 2.351 . S
O322 C325 1.244 . S
O323 Co297 2.155 . S
O323 C325 1.240 . S
O324 Co297 2.096 . S
O324 C305 1.247 . S
C325 O322 1.244 . S
C325 O323 1.240 . S
H326 C300 0.931 . S
H327 C309 0.931 . S
H328 C313 0.929 . S
H329 C315 0.930 . S
Co330 N334 2.148 . S
Co330 N340 2.128 . S
Co330 N350 2.194 . S
Co330 O355 2.351 . S
Co330 O356 2.155 . S
Co330 O357 2.096 . S
C331 N334 1.301 . S
C331 N335 1.328 . S
C331 H336 0.930 . S
C332 C333 1.333 . S
C332 N334 1.317 . S
C332 H337 0.930 . S
C333 C332 1.333 . S
C333 N335 1.350 . S
C333 H359 0.931 . S
N334 Co330 2.148 . S
N334 C331 1.301 . S
N334 C332 1.317 . S
N335 C331 1.328 . S
N335 C333 1.350 . S
H336 C331 0.930 . S
H337 C332 0.930 . S
C338 O339 1.224 . S
C338 O357 1.247 . S
O339 C338 1.224 . S
N340 Co330 2.128 . S
N340 C341 1.355 . S
N340 C343 1.311 . S
C341 N340 1.355 . S
C341 C342 1.363 . S
C341 H353 0.929 . S
C342 C341 1.363 . S
C342 N344 1.375 . S
C342 H360 0.931 . S
C343 N340 1.311 . S
C343 N344 1.347 . S
C343 H354 0.929 . S
N344 C342 1.375 . S
N344 C343 1.347 . S
C345 C348 1.365 . S
C345 N350 1.328 . S
C345 H351 0.929 . S
C346 C347 1.362 . S
C346 C349 1.378 . S
C346 H361 0.929 . S
C347 C346 1.362 . S
C347 C348 1.366 . S
C348 C345 1.365 . S
C348 C347 1.366 . S
C348 H362 0.930 . S
C349 C346 1.378 . S
C349 N350 1.315 . S
C349 H352 0.930 . S
N350 Co330 2.194 . S
N350 C345 1.328 . S
N350 C349 1.315 . S
H351 C345 0.929 . S
H352 C349 0.930 . S
H353 C341 0.929 . S
H354 C343 0.929 . S
O355 Co330 2.351 . S
O355 C358 1.244 . S
O356 Co330 2.155 . S
O356 C358 1.240 . S
O357 Co330 2.096 . S
O357 C338 1.247 . S
C358 O355 1.244 . S
C358 O356 1.240 . S
H359 C333 0.931 . S
H360 C342 0.931 . S
H361 C346 0.929 . S
H362 C348 0.930 . S
Co363 N367 2.148 . S
Co363 N373 2.128 . S
Co363 N383 2.194 . S
Co363 O388 2.351 . S
Co363 O389 2.155 . S
Co363 O390 2.096 . S
C364 N367 1.301 . S
C364 N368 1.328 . S
C364 H369 0.930 . S
C365 C366 1.333 . S
C365 N367 1.317 . S
C365 H370 0.930 . S
C366 C365 1.333 . S
C366 N368 1.350 . S
C366 H392 0.931 . S
N367 Co363 2.148 . S
N367 C364 1.301 . S
N367 C365 1.317 . S
N368 C364 1.328 . S
N368 C366 1.350 . S
H369 C364 0.930 . S
H370 C365 0.930 . S
C371 O372 1.224 . S
C371 O390 1.247 . S
O372 C371 1.224 . S
N373 Co363 2.128 . S
N373 C374 1.355 . S
N373 C376 1.311 . S
C374 N373 1.355 . S
C374 C375 1.363 . S
C374 H386 0.929 . S
C375 C374 1.363 . S
C375 N377 1.375 . S
C375 H393 0.931 . S
C376 N373 1.311 . S
C376 N377 1.347 . S
C376 H387 0.929 . S
N377 C375 1.375 . S
N377 C376 1.347 . S
C378 C381 1.365 . S
C378 N383 1.328 . S
C378 H384 0.929 . S
C379 C380 1.362 . S
C379 C382 1.378 . S
C379 H394 0.929 . S
C380 C379 1.362 . S
C380 C381 1.366 . S
C381 C378 1.365 . S
C381 C380 1.366 . S
C381 H395 0.930 . S
C382 C379 1.378 . S
C382 N383 1.315 . S
C382 H385 0.930 . S
N383 Co363 2.194 . S
N383 C378 1.328 . S
N383 C382 1.315 . S
H384 C378 0.929 . S
H385 C382 0.930 . S
H386 C374 0.929 . S
H387 C376 0.929 . S
O388 Co363 2.351 . S
O388 C391 1.244 . S
O389 Co363 2.155 . S
O389 C391 1.240 . S
O390 Co363 2.096 . S
O390 C371 1.247 . S
C391 O388 1.244 . S
C391 O389 1.240 . S
H392 C366 0.931 . S
H393 C375 0.931 . S
H394 C379 0.929 . S
H395 C381 0.930 . S
C396 C397 1.349 . S
C396 C398 1.327 . S
C396 H421 0.950 . S
C397 C396 1.349 . S
C397 C413 1.349 . S
C398 C396 1.327 . S
C398 C417 1.429 . S
C398 H422 0.950 . S
C399 C416 1.574 . S
C399 C418 1.368 . S
C399 H423 0.949 . S
H400 C404 0.949 . S
C401 C402 1.349 . S
C401 C403 1.327 . S
C401 H424 0.950 . S
C402 C401 1.349 . S
C402 C414 1.349 . S
C403 C401 1.327 . S
C403 C419 1.429 . S
C403 H425 0.950 . S
C404 H400 0.949 . S
C404 C412 1.574 . S
C404 C420 1.368 . S
H405 C413 0.950 . S
H406 C411 0.950 . S
H407 C412 0.949 . S
H408 C414 0.950 . S
H409 C415 0.950 . S
H410 C416 0.949 . S
C411 H406 0.950 . S
C411 C413 1.327 . S
C411 C417 1.429 . S
C412 C404 1.574 . S
C412 H407 0.949 . S
C412 C418 1.368 . S
C413 C397 1.349 . S
C413 H405 0.950 . S
C413 C411 1.327 . S
C414 C402 1.349 . S
C414 H408 0.950 . S
C414 C415 1.327 . S
C415 H409 0.950 . S
C415 C414 1.327 . S
C415 C419 1.429 . S
C416 C399 1.574 . S
C416 H410 0.949 . S
C416 C420 1.368 . S
C417 C398 1.429 . S
C417 C411 1.429 . S
C417 C418 1.523 . S
C418 C399 1.368 . S
C418 C412 1.368 . S
C418 C417 1.523 . S
C419 C403 1.429 . S
C419 C415 1.429 . S
C419 C420 1.523 . S
C420 C404 1.368 . S
C420 C416 1.368 . S
C420 C419 1.523 . S
H421 C396 0.950 . S
H422 C398 0.950 . S
H423 C399 0.949 . S
H424 C401 0.950 . S
H425 C403 0.950 . S
C426 C427 1.349 . S
C426 C428 1.327 . S
C426 H451 0.950 . S
C427 C426 1.349 . S
C427 C443 1.349 . S
C428 C426 1.327 . S
C428 C447 1.429 . S
C428 H452 0.950 . S
C429 C446 1.574 . S
C429 C448 1.368 . S
C429 H453 0.949 . S
H430 C434 0.949 . S
C431 C432 1.349 . S
C431 C433 1.327 . S
C431 H454 0.950 . S
C432 C431 1.349 . S
C432 C444 1.349 . S
C433 C431 1.327 . S
C433 C449 1.429 . S
C433 H455 0.950 . S
C434 H430 0.949 . S
C434 C442 1.574 . S
C434 C450 1.368 . S
H435 C443 0.950 . S
H436 C441 0.950 . S
H437 C442 0.949 . S
H438 C444 0.950 . S
H439 C445 0.950 . S
H440 C446 0.949 . S
C441 H436 0.950 . S
C441 C443 1.327 . S
C441 C447 1.429 . S
C442 C434 1.574 . S
C442 H437 0.949 . S
C442 C448 1.368 . S
C443 C427 1.349 . S
C443 H435 0.950 . S
C443 C441 1.327 . S
C444 C432 1.349 . S
C444 H438 0.950 . S
C444 C445 1.327 . S
C445 H439 0.950 . S
C445 C444 1.327 . S
C445 C449 1.429 . S
C446 C429 1.574 . S
C446 H440 0.949 . S
C446 C450 1.368 . S
C447 C428 1.429 . S
C447 C441 1.429 . S
C447 C448 1.523 . S
C448 C429 1.368 . S
C448 C442 1.368 . S
C448 C447 1.523 . S
C449 C433 1.429 . S
C449 C445 1.429 . S
C449 C450 1.523 . S
C450 C434 1.368 . S
C450 C446 1.368 . S
C450 C449 1.523 . S
H451 C426 0.950 . S
H452 C428 0.950 . S
H453 C429 0.949 . S
H454 C431 0.950 . S
H455 C433 0.950 . S
C456 C457 1.349 . S
C456 C458 1.327 . S
C456 H481 0.950 . S
C457 C456 1.349 . S
C457 C473 1.349 . S
C458 C456 1.327 . S
C458 C477 1.429 . S
C458 H482 0.950 . S
C459 C476 1.574 . S
C459 C478 1.368 . S
C459 H483 0.949 . S
H460 C464 0.949 . S
C461 C462 1.349 . S
C461 C463 1.327 . S
C461 H484 0.950 . S
C462 C461 1.349 . S
C462 C474 1.349 . S
C463 C461 1.327 . S
C463 C479 1.429 . S
C463 H485 0.950 . S
C464 H460 0.949 . S
C464 C472 1.574 . S
C464 C480 1.368 . S
H465 C473 0.950 . S
H466 C471 0.950 . S
H467 C472 0.949 . S
H468 C474 0.950 . S
H469 C475 0.950 . S
H470 C476 0.949 . S
C471 H466 0.950 . S
C471 C473 1.327 . S
C471 C477 1.429 . S
C472 C464 1.574 . S
C472 H467 0.949 . S
C472 C478 1.368 . S
C473 C457 1.349 . S
C473 H465 0.950 . S
C473 C471 1.327 . S
C474 C462 1.349 . S
C474 H468 0.950 . S
C474 C475 1.327 . S
C475 H469 0.950 . S
C475 C474 1.327 . S
C475 C479 1.429 . S
C476 C459 1.574 . S
C476 H470 0.949 . S
C476 C480 1.368 . S
C477 C458 1.429 . S
C477 C471 1.429 . S
C477 C478 1.523 . S
C478 C459 1.368 . S
C478 C472 1.368 . S
C478 C477 1.523 . S
C479 C463 1.429 . S
C479 C475 1.429 . S
C479 C480 1.523 . S
C480 C464 1.368 . S
C480 C476 1.368 . S
C480 C479 1.523 . S
H481 C456 0.950 . S
H482 C458 0.950 . S
H483 C459 0.949 . S
H484 C461 0.950 . S
H485 C463 0.950 . S
C486 C487 1.349 . S
C486 C488 1.327 . S
C486 H511 0.950 . S
C487 C486 1.349 . S
C487 C503 1.349 . S
C488 C486 1.327 . S
C488 C507 1.429 . S
C488 H512 0.950 . S
C489 C506 1.574 . S
C489 C508 1.368 . S
C489 H513 0.949 . S
H490 C494 0.949 . S
C491 C492 1.349 . S
C491 C493 1.327 . S
C491 H514 0.950 . S
C492 C491 1.349 . S
C492 C504 1.349 . S
C493 C491 1.327 . S
C493 C509 1.429 . S
C493 H515 0.950 . S
C494 H490 0.949 . S
C494 C502 1.574 . S
C494 C510 1.368 . S
H495 C503 0.950 . S
H496 C501 0.950 . S
H497 C502 0.949 . S
H498 C504 0.950 . S
H499 C505 0.950 . S
H500 C506 0.949 . S
C501 H496 0.950 . S
C501 C503 1.327 . S
C501 C507 1.429 . S
C502 C494 1.574 . S
C502 H497 0.949 . S
C502 C508 1.368 . S
C503 C487 1.349 . S
C503 H495 0.950 . S
C503 C501 1.327 . S
C504 C492 1.349 . S
C504 H498 0.950 . S
C504 C505 1.327 . S
C505 H499 0.950 . S
C505 C504 1.327 . S
C505 C509 1.429 . S
C506 C489 1.574 . S
C506 H500 0.949 . S
C506 C510 1.368 . S
C507 C488 1.429 . S
C507 C501 1.429 . S
C507 C508 1.523 . S
C508 C489 1.368 . S
C508 C502 1.368 . S
C508 C507 1.523 . S
C509 C493 1.429 . S
C509 C505 1.429 . S
C509 C510 1.523 . S
C510 C494 1.368 . S
C510 C506 1.368 . S
C510 C509 1.523 . S
H511 C486 0.950 . S
H512 C488 0.950 . S
H513 C489 0.949 . S
H514 C491 0.950 . S
H515 C493 0.950 . S
C516 C517 1.349 . S
C516 C518 1.327 . S
C516 H541 0.950 . S
C517 C516 1.349 . S
C517 C533 1.349 . S
C518 C516 1.327 . S
C518 C537 1.429 . S
C518 H542 0.950 . S
C519 C536 1.574 . S
C519 C538 1.368 . S
C519 H543 0.949 . S
H520 C524 0.949 . S
C521 C522 1.349 . S
C521 C523 1.327 . S
C521 H544 0.950 . S
C522 C521 1.349 . S
C522 C534 1.349 . S
C523 C521 1.327 . S
C523 C539 1.429 . S
C523 H545 0.950 . S
C524 H520 0.949 . S
C524 C532 1.574 . S
C524 C540 1.368 . S
H525 C533 0.950 . S
H526 C531 0.950 . S
H527 C532 0.949 . S
H528 C534 0.950 . S
H529 C535 0.950 . S
H530 C536 0.949 . S
C531 H526 0.950 . S
C531 C533 1.327 . S
C531 C537 1.429 . S
C532 C524 1.574 . S
C532 H527 0.949 . S
C532 C538 1.368 . S
C533 C517 1.349 . S
C533 H525 0.950 . S
C533 C531 1.327 . S
C534 C522 1.349 . S
C534 H528 0.950 . S
C534 C535 1.327 . S
C535 H529 0.950 . S
C535 C534 1.327 . S
C535 C539 1.429 . S
C536 C519 1.574 . S
C536 H530 0.949 . S
C536 C540 1.368 . S
C537 C518 1.429 . S
C537 C531 1.429 . S
C537 C538 1.523 . S
C538 C519 1.368 . S
C538 C532 1.368 . S
C538 C537 1.523 . S
C539 C523 1.429 . S
C539 C535 1.429 . S
C539 C540 1.523 . S
C540 C524 1.368 . S
C540 C536 1.368 . S
C540 C539 1.523 . S
H541 C516 0.950 . S
H542 C518 0.950 . S
H543 C519 0.949 . S
H544 C521 0.950 . S
H545 C523 0.950 . S
C546 C547 1.349 . S
C546 C548 1.327 . S
C546 H571 0.950 . S
C547 C546 1.349 . S
C547 C563 1.349 . S
C548 C546 1.327 . S
C548 C567 1.429 . S
C548 H572 0.950 . S
C549 C566 1.574 . S
C549 C568 1.368 . S
C549 H573 0.949 . S
H550 C554 0.949 . S
C551 C552 1.349 . S
C551 C553 1.327 . S
C551 H574 0.950 . S
C552 C551 1.349 . S
C552 C564 1.349 . S
C553 C551 1.327 . S
C553 C569 1.429 . S
C553 H575 0.950 . S
C554 H550 0.949 . S
C554 C562 1.574 . S
C554 C570 1.368 . S
H555 C563 0.950 . S
H556 C561 0.950 . S
H557 C562 0.949 . S
H558 C564 0.950 . S
H559 C565 0.950 . S
H560 C566 0.949 . S
C561 H556 0.950 . S
C561 C563 1.327 . S
C561 C567 1.429 . S
C562 C554 1.574 . S
C562 H557 0.949 . S
C562 C568 1.368 . S
C563 C547 1.349 . S
C563 H555 0.950 . S
C563 C561 1.327 . S
C564 C552 1.349 . S
C564 H558 0.950 . S
C564 C565 1.327 . S
C565 H559 0.950 . S
C565 C564 1.327 . S
C565 C569 1.429 . S
C566 C549 1.574 . S
C566 H560 0.949 . S
C566 C570 1.368 . S
C567 C548 1.429 . S
C567 C561 1.429 . S
C567 C568 1.523 . S
C568 C549 1.368 . S
C568 C562 1.368 . S
C568 C567 1.523 . S
C569 C553 1.429 . S
C569 C565 1.429 . S
C569 C570 1.523 . S
C570 C554 1.368 . S
C570 C566 1.368 . S
C570 C569 1.523 . S
H571 C546 0.950 . S
H572 C548 0.950 . S
H573 C549 0.949 . S
H574 C551 0.950 . S
H575 C553 0.950 . S
C576 C577 1.349 . S
C576 C578 1.327 . S
C576 H601 0.950 . S
C577 C576 1.349 . S
C577 C593 1.349 . S
C578 C576 1.327 . S
C578 C597 1.429 . S
C578 H602 0.950 . S
C579 C596 1.574 . S
C579 C598 1.368 . S
C579 H603 0.949 . S
H580 C584 0.949 . S
C581 C582 1.349 . S
C581 C583 1.327 . S
C581 H604 0.950 . S
C582 C581 1.349 . S
C582 C594 1.349 . S
C583 C581 1.327 . S
C583 C599 1.429 . S
C583 H605 0.950 . S
C584 H580 0.949 . S
C584 C592 1.574 . S
C584 C600 1.368 . S
H585 C593 0.950 . S
H586 C591 0.950 . S
H587 C592 0.949 . S
H588 C594 0.950 . S
H589 C595 0.950 . S
H590 C596 0.949 . S
C591 H586 0.950 . S
C591 C593 1.327 . S
C591 C597 1.429 . S
C592 C584 1.574 . S
C592 H587 0.949 . S
C592 C598 1.368 . S
C593 C577 1.349 . S
C593 H585 0.950 . S
C593 C591 1.327 . S
C594 C582 1.349 . S
C594 H588 0.950 . S
C594 C595 1.327 . S
C595 H589 0.950 . S
C595 C594 1.327 . S
C595 C599 1.429 . S
C596 C579 1.574 . S
C596 H590 0.949 . S
C596 C600 1.368 . S
C597 C578 1.429 . S
C597 C591 1.429 . S
C597 C598 1.523 . S
C598 C579 1.368 . S
C598 C592 1.368 . S
C598 C597 1.523 . S
C599 C583 1.429 . S
C599 C595 1.429 . S
C599 C600 1.523 . S
C600 C584 1.368 . S
C600 C596 1.368 . S
C600 C599 1.523 . S
H601 C576 0.950 . S
H602 C578 0.950 . S
H603 C579 0.949 . S
H604 C581 0.950 . S
H605 C583 0.950 . S
C606 C607 1.349 . S
C606 C608 1.327 . S
C606 H631 0.950 . S
C607 C606 1.349 . S
C607 C623 1.349 . S
C608 C606 1.327 . S
C608 C627 1.429 . S
C608 H632 0.950 . S
C609 C626 1.574 . S
C609 C628 1.368 . S
C609 H633 0.949 . S
H610 C614 0.949 . S
C611 C612 1.349 . S
C611 C613 1.327 . S
C611 H634 0.950 . S
C612 C611 1.349 . S
C612 C624 1.349 . S
C613 C611 1.327 . S
C613 C629 1.429 . S
C613 H635 0.950 . S
C614 H610 0.949 . S
C614 C622 1.574 . S
C614 C630 1.368 . S
H615 C623 0.950 . S
H616 C621 0.950 . S
H617 C622 0.949 . S
H618 C624 0.950 . S
H619 C625 0.950 . S
H620 C626 0.949 . S
C621 H616 0.950 . S
C621 C623 1.327 . S
C621 C627 1.429 . S
C622 C614 1.574 . S
C622 H617 0.949 . S
C622 C628 1.368 . S
C623 C607 1.349 . S
C623 H615 0.950 . S
C623 C621 1.327 . S
C624 C612 1.349 . S
C624 H618 0.950 . S
C624 C625 1.327 . S
C625 H619 0.950 . S
C625 C624 1.327 . S
C625 C629 1.429 . S
C626 C609 1.574 . S
C626 H620 0.949 . S
C626 C630 1.368 . S
C627 C608 1.429 . S
C627 C621 1.429 . S
C627 C628 1.523 . S
C628 C609 1.368 . S
C628 C622 1.368 . S
C628 C627 1.523 . S
C629 C613 1.429 . S
C629 C625 1.429 . S
C629 C630 1.523 . S
C630 C614 1.368 . S
C630 C626 1.368 . S
C630 C629 1.523 . S
H631 C606 0.950 . S
H632 C608 0.950 . S
H633 C609 0.949 . S
H634 C611 0.950 . S
H635 C613 0.950 . S
C636 C637 1.349 . S
C636 C638 1.327 . S
C636 H661 0.950 . S
C637 C636 1.349 . S
C637 C653 1.349 . S
C638 C636 1.327 . S
C638 C657 1.429 . S
C638 H662 0.950 . S
C639 C656 1.574 . S
C639 C658 1.368 . S
C639 H663 0.949 . S
H640 C644 0.949 . S
C641 C642 1.349 . S
C641 C643 1.327 . S
C641 H664 0.950 . S
C642 C641 1.349 . S
C642 C654 1.349 . S
C643 C641 1.327 . S
C643 C659 1.429 . S
C643 H665 0.950 . S
C644 H640 0.949 . S
C644 C652 1.574 . S
C644 C660 1.368 . S
H645 C653 0.950 . S
H646 C651 0.950 . S
H647 C652 0.949 . S
H648 C654 0.950 . S
H649 C655 0.950 . S
H650 C656 0.949 . S
C651 H646 0.950 . S
C651 C653 1.327 . S
C651 C657 1.429 . S
C652 C644 1.574 . S
C652 H647 0.949 . S
C652 C658 1.368 . S
C653 C637 1.349 . S
C653 H645 0.950 . S
C653 C651 1.327 . S
C654 C642 1.349 . S
C654 H648 0.950 . S
C654 C655 1.327 . S
C655 H649 0.950 . S
C655 C654 1.327 . S
C655 C659 1.429 . S
C656 C639 1.574 . S
C656 H650 0.949 . S
C656 C660 1.368 . S
C657 C638 1.429 . S
C657 C651 1.429 . S
C657 C658 1.523 . S
C658 C639 1.368 . S
C658 C652 1.368 . S
C658 C657 1.523 . S
C659 C643 1.429 . S
C659 C655 1.429 . S
C659 C660 1.523 . S
C660 C644 1.368 . S
C660 C656 1.368 . S
C660 C659 1.523 . S
H661 C636 0.950 . S
H662 C638 0.950 . S
H663 C639 0.949 . S
H664 C641 0.950 . S
H665 C643 0.950 . S
C666 C667 1.349 . S
C666 C668 1.327 . S
C666 H691 0.950 . S
C667 C666 1.349 . S
C667 C683 1.349 . S
C668 C666 1.327 . S
C668 C687 1.429 . S
C668 H692 0.950 . S
C669 C686 1.574 . S
C669 C688 1.368 . S
C669 H693 0.949 . S
H670 C674 0.949 . S
C671 C672 1.349 . S
C671 C673 1.327 . S
C671 H694 0.950 . S
C672 C671 1.349 . S
C672 C684 1.349 . S
C673 C671 1.327 . S
C673 C689 1.429 . S
C673 H695 0.950 . S
C674 H670 0.949 . S
C674 C682 1.574 . S
C674 C690 1.368 . S
H675 C683 0.950 . S
H676 C681 0.950 . S
H677 C682 0.949 . S
H678 C684 0.950 . S
H679 C685 0.950 . S
H680 C686 0.949 . S
C681 H676 0.950 . S
C681 C683 1.327 . S
C681 C687 1.429 . S
C682 C674 1.574 . S
C682 H677 0.949 . S
C682 C688 1.368 . S
C683 C667 1.349 . S
C683 H675 0.950 . S
C683 C681 1.327 . S
C684 C672 1.349 . S
C684 H678 0.950 . S
C684 C685 1.327 . S
C685 H679 0.950 . S
C685 C684 1.327 . S
C685 C689 1.429 . S
C686 C669 1.574 . S
C686 H680 0.949 . S
C686 C690 1.368 . S
C687 C668 1.429 . S
C687 C681 1.429 . S
C687 C688 1.523 . S
C688 C669 1.368 . S
C688 C682 1.368 . S
C688 C687 1.523 . S
C689 C673 1.429 . S
C689 C685 1.429 . S
C689 C690 1.523 . S
C690 C674 1.368 . S
C690 C686 1.368 . S
C690 C689 1.523 . S
H691 C666 0.950 . S
H692 C668 0.950 . S
H693 C669 0.949 . S
H694 C671 0.950 . S
H695 C673 0.950 . S
C696 C697 1.349 . S
C696 C698 1.327 . S
C696 H721 0.950 . S
C697 C696 1.349 . S
C697 C713 1.349 . S
C698 C696 1.327 . S
C698 C717 1.429 . S
C698 H722 0.950 . S
C699 C716 1.574 . S
C699 C718 1.368 . S
C699 H723 0.949 . S
H700 C704 0.949 . S
C701 C702 1.349 . S
C701 C703 1.327 . S
C701 H724 0.950 . S
C702 C701 1.349 . S
C702 C714 1.349 . S
C703 C701 1.327 . S
C703 C719 1.429 . S
C703 H725 0.950 . S
C704 H700 0.949 . S
C704 C712 1.574 . S
C704 C720 1.368 . S
H705 C713 0.950 . S
H706 C711 0.950 . S
H707 C712 0.949 . S
H708 C714 0.950 . S
H709 C715 0.950 . S
H710 C716 0.949 . S
C711 H706 0.950 . S
C711 C713 1.327 . S
C711 C717 1.429 . S
C712 C704 1.574 . S
C712 H707 0.949 . S
C712 C718 1.368 . S
C713 C697 1.349 . S
C713 H705 0.950 . S
C713 C711 1.327 . S
C714 C702 1.349 . S
C714 H708 0.950 . S
C714 C715 1.327 . S
C715 H709 0.950 . S
C715 C714 1.327 . S
C715 C719 1.429 . S
C716 C699 1.574 . S
C716 H710 0.949 . S
C716 C720 1.368 . S
C717 C698 1.429 . S
C717 C711 1.429 . S
C717 C718 1.523 . S
C718 C699 1.368 . S
C718 C712 1.368 . S
C718 C717 1.523 . S
C719 C703 1.429 . S
C719 C715 1.429 . S
C719 C720 1.523 . S
C720 C704 1.368 . S
C720 C716 1.368 . S
C720 C719 1.523 . S
H721 C696 0.950 . S
H722 C698 0.950 . S
H723 C699 0.949 . S
H724 C701 0.950 . S
H725 C703 0.950 . S
C726 C727 1.349 . S
C726 C728 1.327 . S
C726 H751 0.950 . S
C727 C726 1.349 . S
C727 C743 1.349 . S
C728 C726 1.327 . S
C728 C747 1.429 . S
C728 H752 0.950 . S
C729 C746 1.574 . S
C729 C748 1.368 . S
C729 H753 0.949 . S
H730 C734 0.949 . S
C731 C732 1.349 . S
C731 C733 1.327 . S
C731 H754 0.950 . S
C732 C731 1.349 . S
C732 C744 1.349 . S
C733 C731 1.327 . S
C733 C749 1.429 . S
C733 H755 0.950 . S
C734 H730 0.949 . S
C734 C742 1.574 . S
C734 C750 1.368 . S
H735 C743 0.950 . S
H736 C741 0.950 . S
H737 C742 0.949 . S
H738 C744 0.950 . S
H739 C745 0.950 . S
H740 C746 0.949 . S
C741 H736 0.950 . S
C741 C743 1.327 . S
C741 C747 1.429 . S
C742 C734 1.574 . S
C742 H737 0.949 . S
C742 C748 1.368 . S
C743 C727 1.349 . S
C743 H735 0.950 . S
C743 C741 1.327 . S
C744 C732 1.349 . S
C744 H738 0.950 . S
C744 C745 1.327 . S
C745 H739 0.950 . S
C745 C744 1.327 . S
C745 C749 1.429 . S
C746 C729 1.574 . S
C746 H740 0.949 . S
C746 C750 1.368 . S
C747 C728 1.429 . S
C747 C741 1.429 . S
C747 C748 1.523 . S
C748 C729 1.368 . S
C748 C742 1.368 . S
C748 C747 1.523 . S
C749 C733 1.429 . S
C749 C745 1.429 . S
C749 C750 1.523 . S
C750 C734 1.368 . S
C750 C746 1.368 . S
C750 C749 1.523 . S
H751 C726 0.950 . S
H752 C728 0.950 . S
H753 C729 0.949 . S
H754 C731 0.950 . S
H755 C733 0.950 . S
C756 C757 1.349 . S
C756 C758 1.327 . S
C756 H781 0.950 . S
C757 C756 1.349 . S
C757 C773 1.349 . S
C758 C756 1.327 . S
C758 C777 1.429 . S
C758 H782 0.950 . S
C759 C776 1.598 . S
C759 C778 1.341 1_556 S
C759 H783 0.953 . S
H760 C764 0.949 . S
C761 C762 1.349 . S
C761 C763 1.327 1_565 S
C761 H784 0.950 . S
C762 C761 1.349 . S
C762 C774 1.349 . S
C763 C761 1.327 1_545 S
C763 C779 1.429 . S
C763 H785 0.950 . S
C764 H760 0.949 . S
C764 C772 1.574 . S
C764 C780 1.368 1_554 S
H765 C773 0.950 . S
H766 C771 0.950 . S
H767 C772 0.949 . S
H768 C774 0.950 . S
H769 C775 0.950 . S
H770 C776 0.949 . S
C771 H766 0.950 . S
C771 C773 1.327 . S
C771 C777 1.429 . S
C772 C764 1.574 . S
C772 H767 0.949 . S
C772 C778 1.368 . S
C773 C757 1.349 . S
C773 H765 0.950 . S
C773 C771 1.327 . S
C774 C762 1.349 . S
C774 H768 0.950 . S
C774 C775 1.327 . S
C775 H769 0.950 . S
C775 C774 1.327 . S
C775 C779 1.429 1_565 S
C776 C759 1.598 . S
C776 H770 0.949 . S
C776 C780 1.368 . S
C777 C758 1.429 . S
C777 C771 1.429 . S
C777 C778 1.523 . S
C778 C759 1.341 1_554 S
C778 C772 1.368 . S
C778 C777 1.523 . S
C779 C763 1.429 . S
C779 C775 1.429 1_545 S
C779 C780 1.523 . S
C780 C764 1.368 1_556 S
C780 C776 1.368 . S
C780 C779 1.523 . S
H781 C756 0.950 . S
H782 C758 0.950 . S
H783 C759 0.953 . S
H784 C761 0.950 . S
H785 C763 0.950 . S
C786 C787 1.349 . S
C786 C788 1.327 . S
C786 H811 0.950 . S
C787 C786 1.349 . S
C787 C803 1.349 . S
C788 C786 1.327 . S
C788 C807 1.429 . S
C788 H812 0.950 . S
C789 C806 1.574 . S
C789 C808 1.368 . S
C789 H813 0.949 . S
H790 C794 0.949 . S
C791 C792 1.349 . S
C791 C793 1.327 . S
C791 H814 0.950 . S
C792 C791 1.349 . S
C792 C804 1.349 . S
C793 C791 1.327 . S
C793 C809 1.429 1_455 S
C793 H815 0.950 . S
C794 H790 0.949 . S
C794 C802 1.574 . S
C794 C810 1.368 . S
H795 C803 0.950 . S
H796 C801 0.950 . S
H797 C802 0.949 . S
H798 C804 0.950 . S
H799 C805 0.950 . S
H800 C806 0.949 . S
C801 H796 0.950 . S
C801 C803 1.327 . S
C801 C807 1.429 . S
C802 C794 1.574 . S
C802 H797 0.949 . S
C802 C808 1.368 1_556 S
C803 C787 1.349 . S
C803 H795 0.950 . S
C803 C801 1.327 . S
C804 C792 1.349 . S
C804 H798 0.950 . S
C804 C805 1.327 1_455 S
C805 H799 0.950 . S
C805 C804 1.327 1_655 S
C805 C809 1.429 . S
C806 C789 1.574 . S
C806 H800 0.949 . S
C806 C810 1.368 1_554 S
C807 C788 1.429 . S
C807 C801 1.429 . S
C807 C808 1.523 . S
C808 C789 1.368 . S
C808 C802 1.368 1_554 S
C808 C807 1.523 . S
C809 C793 1.429 1_655 S
C809 C805 1.429 . S
C809 C810 1.523 . S
C810 C794 1.368 . S
C810 C806 1.368 1_556 S
C810 C809 1.523 . S
H811 C786 0.950 . S
H812 C788 0.950 . S
H813 C789 0.949 . S
H814 C791 0.950 . S
H815 C793 0.950 . S
C816 C817 1.349 . S
C816 C818 1.327 . S
C816 H841 0.950 . S
C817 C816 1.349 . S
C817 C833 1.349 . S
C818 C816 1.327 . S
C818 C837 1.429 . S
C818 H842 0.950 . S
C819 C836 1.574 1_554 S
C819 C838 1.368 . S
C819 H843 0.949 . S
H820 C824 0.949 . S
C821 C822 1.349 . S
C821 C823 1.327 . S
C821 H844 0.950 . S
C822 C821 1.349 . S
C822 C834 1.349 . S
C823 C821 1.327 . S
C823 C839 1.429 . S
C823 H845 0.950 . S
C824 H820 0.949 . S
C824 C832 1.574 1_556 S
C824 C840 1.368 . S
H825 C833 0.950 . S
H826 C831 0.950 . S
H827 C832 0.949 . S
H828 C834 0.950 . S
H829 C835 0.950 . S
H830 C836 0.949 . S
C831 H826 0.950 . S
C831 C833 1.327 . S
C831 C837 1.429 . S
C832 C824 1.574 1_554 S
C832 H827 0.949 . S
C832 C838 1.368 . S
C833 C817 1.349 . S
C833 H825 0.950 . S
C833 C831 1.327 . S
C834 C822 1.349 . S
C834 H828 0.950 . S
C834 C835 1.327 . S
C835 H829 0.950 . S
C835 C834 1.327 . S
C835 C839 1.429 . S
C836 C819 1.574 1_556 S
C836 H830 0.949 . S
C836 C840 1.368 . S
C837 C818 1.429 . S
C837 C831 1.429 . S
C837 C838 1.523 . S
C838 C819 1.368 . S
C838 C832 1.368 . S
C838 C837 1.523 . S
C839 C823 1.429 . S
C839 C835 1.429 . S
C839 C840 1.523 . S
C840 C824 1.368 . S
C840 C836 1.368 . S
C840 C839 1.523 . S
H841 C816 0.950 . S
H842 C818 0.950 . S
H843 C819 0.949 . S
H844 C821 0.950 . S
H845 C823 0.950 . S
C846 C847 1.349 . S
C846 C848 1.327 1_655 S
C846 H871 0.950 . S
C847 C846 1.349 . S
C847 C863 1.349 . S
C848 C846 1.327 1_455 S
C848 C867 1.429 . S
C848 H872 0.950 . S
C849 C866 1.574 . S
C849 C868 1.368 . S
C849 H873 0.949 . S
H850 C854 0.949 . S
C851 C852 1.349 . S
C851 C853 1.327 . S
C851 H874 0.950 . S
C852 C851 1.349 . S
C852 C864 1.349 . S
C853 C851 1.327 . S
C853 C869 1.429 . S
C853 H875 0.950 . S
C854 H850 0.949 . S
C854 C862 1.574 . S
C854 C870 1.368 . S
H855 C863 0.950 . S
H856 C861 0.950 . S
H857 C862 0.949 . S
H858 C864 0.950 . S
H859 C865 0.950 . S
H860 C866 0.949 . S
C861 H856 0.950 . S
C861 C863 1.327 . S
C861 C867 1.429 1_655 S
C862 C854 1.574 . S
C862 H857 0.949 . S
C862 C868 1.368 . S
C863 C847 1.349 . S
C863 H855 0.950 . S
C863 C861 1.327 . S
C864 C852 1.349 . S
C864 H858 0.950 . S
C864 C865 1.327 . S
C865 H859 0.950 . S
C865 C864 1.327 . S
C865 C869 1.429 . S
C866 C849 1.574 . S
C866 H860 0.949 . S
C866 C870 1.368 . S
C867 C848 1.429 . S
C867 C861 1.429 1_455 S
C867 C868 1.523 . S
C868 C849 1.368 . S
C868 C862 1.368 . S
C868 C867 1.523 . S
C869 C853 1.429 . S
C869 C865 1.429 . S
C869 C870 1.523 . S
C870 C854 1.368 . S
C870 C866 1.368 . S
C870 C869 1.523 . S
H871 C846 0.950 . S
H872 C848 0.950 . S
H873 C849 0.949 . S
H874 C851 0.950 . S
H875 C853 0.950 . S
C876 C877 1.349 . S
C876 C878 1.327 . S
C876 H901 0.950 . S
C877 C876 1.349 . S
C877 C893 1.349 . S
C878 C876 1.327 . S
C878 C897 1.429 . S
C878 H902 0.950 . S
C879 C896 1.574 . S
C879 C898 1.368 . S
C879 H903 0.949 . S
H880 C884 0.949 . S
C881 C882 1.349 . S
C881 C883 1.327 . S
C881 H904 0.950 . S
C882 C881 1.349 . S
C882 C894 1.349 . S
C883 C881 1.327 . S
C883 C899 1.429 . S
C883 H905 0.950 . S
C884 H880 0.949 . S
C884 C892 1.574 . S
C884 C900 1.368 . S
H885 C893 0.950 . S
H886 C891 0.950 . S
H887 C892 0.949 . S
H888 C894 0.950 . S
H889 C895 0.950 . S
H890 C896 0.949 . S
C891 H886 0.950 . S
C891 C893 1.327 . S
C891 C897 1.429 . S
C892 C884 1.574 . S
C892 H887 0.949 . S
C892 C898 1.368 . S
C893 C877 1.349 . S
C893 H885 0.950 . S
C893 C891 1.327 . S
C894 C882 1.349 . S
C894 H888 0.950 . S
C894 C895 1.327 . S
C895 H889 0.950 . S
C895 C894 1.327 . S
C895 C899 1.429 . S
C896 C879 1.574 . S
C896 H890 0.949 . S
C896 C900 1.368 . S
C897 C878 1.429 . S
C897 C891 1.429 . S
C897 C898 1.523 . S
C898 C879 1.368 . S
C898 C892 1.368 . S
C898 C897 1.523 . S
C899 C883 1.429 . S
C899 C895 1.429 . S
C899 C900 1.523 . S
C900 C884 1.368 . S
C900 C896 1.368 . S
C900 C899 1.523 . S
H901 C876 0.950 . S
H902 C878 0.950 . S
H903 C879 0.949 . S
H904 C881 0.950 . S
H905 C883 0.950 . S
C906 C907 1.349 . S
C906 C908 1.327 1_545 S
C906 H931 0.950 . S
C907 C906 1.349 . S
C907 C923 1.349 . S
C908 C906 1.327 1_565 S
C908 C927 1.429 . S
C908 H932 0.950 . S
C909 C926 1.574 . S
C909 C928 1.368 . S
C909 H933 0.949 . S
H910 C914 0.949 . S
C911 C912 1.349 . S
C911 C913 1.327 . S
C911 H934 0.950 . S
C912 C911 1.349 . S
C912 C924 1.349 . S
C913 C911 1.327 . S
C913 C929 1.429 . S
C913 H935 0.950 . S
C914 H910 0.949 . S
C914 C922 1.574 . S
C914 C930 1.368 . S
H915 C923 0.950 . S
H916 C921 0.950 . S
H917 C922 0.949 . S
H918 C924 0.950 . S
H919 C925 0.950 . S
H920 C926 0.949 . S
C921 H916 0.950 . S
C921 C923 1.327 . S
C921 C927 1.429 1_545 S
C922 C914 1.574 . S
C922 H917 0.949 . S
C922 C928 1.368 . S
C923 C907 1.349 . S
C923 H915 0.950 . S
C923 C921 1.327 . S
C924 C912 1.349 . S
C924 H918 0.950 . S
C924 C925 1.327 . S
C925 H919 0.950 . S
C925 C924 1.327 . S
C925 C929 1.429 . S
C926 C909 1.574 . S
C926 H920 0.949 . S
C926 C930 1.368 . S
C927 C908 1.429 . S
C927 C921 1.429 1_565 S
C927 C928 1.523 . S
C928 C909 1.368 . S
C928 C922 1.368 . S
C928 C927 1.523 . S
C929 C913 1.429 . S
C929 C925 1.429 . S
C929 C930 1.523 . S
C930 C914 1.368 . S
C930 C926 1.368 . S
C930 C929 1.523 . S
H931 C906 0.950 . S
H932 C908 0.950 . S
H933 C909 0.949 . S
H934 C911 0.950 . S
H935 C913 0.950 . S
C936 C937 1.349 . S
C936 C938 1.327 . S
C936 H961 0.950 . S
C937 C936 1.349 . S
C937 C953 1.349 . S
C938 C936 1.327 . S
C938 C957 1.429 1_545 S
C938 H962 0.950 . S
C939 C956 1.574 1_554 S
C939 C958 1.368 . S
C939 H963 0.949 . S
H940 C944 0.949 . S
C941 C942 1.349 . S
C941 C943 1.327 . S
C941 H964 0.950 . S
C942 C941 1.349 . S
C942 C954 1.349 . S
C943 C941 1.327 . S
C943 C959 1.429 . S
C943 H965 0.950 . S
C944 H940 0.949 . S
C944 C952 1.574 . S
C944 C960 1.368 . S
H945 C953 0.950 . S
H946 C951 0.950 . S
H947 C952 0.951 . S
H948 C954 0.950 . S
H949 C955 0.950 . S
H950 C956 0.949 . S
C951 H946 0.950 . S
C951 C953 1.327 1_565 S
C951 C957 1.429 . S
C952 C944 1.574 . S
C952 H947 0.951 . S
C952 C958 1.368 1_556 S
C953 C937 1.349 . S
C953 H945 0.950 . S
C953 C951 1.327 1_545 S
C954 C942 1.349 . S
C954 H948 0.950 . S
C954 C955 1.327 . S
C955 H949 0.950 . S
C955 C954 1.327 . S
C955 C959 1.429 . S
C956 C939 1.574 1_556 S
C956 H950 0.949 . S
C956 C960 1.368 . S
C957 C938 1.429 1_565 S
C957 C951 1.429 . S
C957 C958 1.523 . S
C958 C939 1.368 . S
C958 C952 1.368 1_554 S
C958 C957 1.523 . S
C959 C943 1.429 . S
C959 C955 1.429 . S
C959 C960 1.523 . S
C960 C944 1.368 . S
C960 C956 1.368 . S
C960 C959 1.523 . S
H961 C936 0.950 . S
H962 C938 0.950 . S
H963 C939 0.949 . S
H964 C941 0.950 . S
H965 C943 0.950 . S
C966 C967 1.349 . S
C966 C968 1.327 1_655 S
C966 H991 0.950 . S
C967 C966 1.349 . S
C967 C983 1.349 . S
C968 C966 1.327 1_455 S
C968 C987 1.429 . S
C968 H992 0.950 . S
C969 C986 1.574 . S
C969 C988 1.368 1_556 S
C969 H993 0.949 . S
H970 C974 0.948 1_554 S
C971 C972 1.349 . S
C971 C973 1.327 . S
C971 H994 0.950 . S
C972 C971 1.349 . S
C972 C984 1.349 . S
C973 C971 1.327 . S
C973 C989 1.429 . S
C973 H995 0.950 . S
C974 H970 0.948 1_556 S
C974 C982 1.564 1_556 S
C974 C990 1.379 . S
H975 C983 0.950 . S
H976 C981 0.950 . S
H977 C982 0.949 . S
H978 C984 0.950 . S
H979 C985 0.950 . S
H980 C986 0.949 . S
C981 H976 0.950 . S
C981 C983 1.327 . S
C981 C987 1.429 1_655 S
C982 C974 1.564 1_554 S
C982 H977 0.949 . S
C982 C988 1.368 . S
C983 C967 1.349 . S
C983 H975 0.950 . S
C983 C981 1.327 . S
C984 C972 1.349 . S
C984 H978 0.950 . S
C984 C985 1.327 . S
C985 H979 0.950 . S
C985 C984 1.327 . S
C985 C989 1.429 . S
C986 C969 1.574 . S
C986 H980 0.949 . S
C986 C990 1.368 . S
C987 C968 1.429 . S
C987 C981 1.429 1_455 S
C987 C988 1.523 . S
C988 C969 1.368 1_554 S
C988 C982 1.368 . S
C988 C987 1.523 . S
C989 C973 1.429 . S
C989 C985 1.429 . S
C989 C990 1.523 . S
C990 C974 1.379 . S
C990 C986 1.368 . S
C990 C989 1.523 . S
H991 C966 0.950 . S
H992 C968 0.950 . S
H993 C969 0.949 . S
H994 C971 0.950 . S
H995 C973 0.950 . S
C996 C997 1.349 . S
C996 C998 1.327 . S
C996 H1021 0.950 . S
C997 C996 1.349 . S
C997 C1013 1.349 . S
C998 C996 1.327 . S
C998 C1017 1.429 . S
C998 H1022 0.950 . S
C999 C1016 1.574 . S
C999 C1018 1.368 1_554 S
C999 H1023 0.949 . S
H1000 C1004 0.949 . S
C1001 C1002 1.349 . S
C1001 C1003 1.327 . S
C1001 H1024 0.950 . S
C1002 C1001 1.349 . S
C1002 C1014 1.349 . S
C1003 C1001 1.327 . S
C1003 C1019 1.429 . S
C1003 H1025 0.950 . S
C1004 H1000 0.949 . S
C1004 C1012 1.574 . S
C1004 C1020 1.368 1_556 S
H1005 C1013 0.950 . S
H1006 C1011 0.950 . S
H1007 C1012 0.949 . S
H1008 C1014 0.950 . S
H1009 C1015 0.950 . S
H1010 C1016 0.949 . S
C1011 H1006 0.950 . S
C1011 C1013 1.327 . S
C1011 C1017 1.429 . S
C1012 C1004 1.574 . S
C1012 H1007 0.949 . S
C1012 C1018 1.368 . S
C1013 C997 1.349 . S
C1013 H1005 0.950 . S
C1013 C1011 1.327 . S
C1014 C1002 1.349 . S
C1014 H1008 0.950 . S
C1014 C1015 1.327 . S
C1015 H1009 0.950 . S
C1015 C1014 1.327 . S
C1015 C1019 1.429 . S
C1016 C999 1.574 . S
C1016 H1010 0.949 . S
C1016 C1020 1.368 . S
C1017 C998 1.429 . S
C1017 C1011 1.429 . S
C1017 C1018 1.523 . S
C1018 C999 1.368 1_556 S
C1018 C1012 1.368 . S
C1018 C1017 1.523 . S
C1019 C1003 1.429 . S
C1019 C1015 1.429 . S
C1019 C1020 1.523 . S
C1020 C1004 1.368 1_554 S
C1020 C1016 1.368 . S
C1020 C1019 1.523 . S
H1021 C996 0.950 . S
H1022 C998 0.950 . S
H1023 C999 0.949 . S
H1024 C1001 0.950 . S
H1025 C1003 0.950 . S
C1026 C1027 1.349 . S
C1026 C1028 1.327 . S
C1026 H1051 0.950 . S
C1027 C1026 1.349 . S
C1027 C1043 1.349 . S
C1028 C1026 1.327 . S
C1028 C1047 1.429 1_455 S
C1028 H1052 0.950 . S
C1029 C1046 1.574 . S
C1029 C1048 1.368 . S
C1029 H1053 0.949 . S
H1030 C1034 0.949 . S
C1031 C1032 1.349 . S
C1031 C1033 1.327 . S
C1031 H1054 0.950 . S
C1032 C1031 1.349 . S
C1032 C1044 1.349 . S
C1033 C1031 1.327 . S
C1033 C1049 1.429 . S
C1033 H1055 0.950 . S
C1034 H1030 0.949 . S
C1034 C1042 1.574 . S
C1034 C1050 1.368 . S
H1035 C1043 0.950 . S
H1036 C1041 0.950 . S
H1037 C1042 0.949 . S
H1038 C1044 0.950 . S
H1039 C1045 0.950 . S
H1040 C1046 0.949 . S
C1041 H1036 0.950 . S
C1041 C1043 1.327 1_655 S
C1041 C1047 1.429 . S
C1042 C1034 1.574 . S
C1042 H1037 0.949 . S
C1042 C1048 1.368 . S
C1043 C1027 1.349 . S
C1043 H1035 0.950 . S
C1043 C1041 1.327 1_455 S
C1044 C1032 1.349 . S
C1044 H1038 0.950 . S
C1044 C1045 1.327 . S
C1045 H1039 0.950 . S
C1045 C1044 1.327 . S
C1045 C1049 1.429 . S
C1046 C1029 1.574 . S
C1046 H1040 0.949 . S
C1046 C1050 1.368 . S
C1047 C1028 1.429 1_655 S
C1047 C1041 1.429 . S
C1047 C1048 1.523 . S
C1048 C1029 1.368 . S
C1048 C1042 1.368 . S
C1048 C1047 1.523 . S
C1049 C1033 1.429 . S
C1049 C1045 1.429 . S
C1049 C1050 1.523 . S
C1050 C1034 1.368 . S
C1050 C1046 1.368 . S
C1050 C1049 1.523 . S
H1051 C1026 0.950 . S
H1052 C1028 0.950 . S
H1053 C1029 0.949 . S
H1054 C1031 0.950 . S
H1055 C1033 0.950 . S
C1056 C1057 1.349 . S
C1056 C1058 1.327 . S
C1056 H1081 0.950 . S
C1057 C1056 1.349 . S
C1057 C1073 1.349 . S
C1058 C1056 1.327 . S
C1058 C1077 1.429 . S
C1058 H1082 0.950 . S
C1059 C1076 1.574 . S
C1059 C1078 1.368 . S
C1059 H1083 0.949 . S
H1060 C1064 0.949 . S
C1061 C1062 1.349 . S
C1061 C1063 1.327 . S
C1061 H1084 0.950 . S
C1062 C1061 1.349 . S
C1062 C1074 1.349 . S
C1063 C1061 1.327 . S
C1063 C1079 1.429 . S
C1063 H1085 0.950 . S
C1064 H1060 0.949 . S
C1064 C1072 1.574 . S
C1064 C1080 1.368 . S
H1065 C1073 0.950 . S
H1066 C1071 0.950 . S
H1067 C1072 0.949 . S
H1068 C1074 0.950 . S
H1069 C1075 0.950 . S
H1070 C1076 0.949 . S
C1071 H1066 0.950 . S
C1071 C1073 1.327 . S
C1071 C1077 1.429 . S
C1072 C1064 1.574 . S
C1072 H1067 0.949 . S
C1072 C1078 1.368 . S
C1073 C1057 1.349 . S
C1073 H1065 0.950 . S
C1073 C1071 1.327 . S
C1074 C1062 1.349 . S
C1074 H1068 0.950 . S
C1074 C1075 1.327 . S
C1075 H1069 0.950 . S
C1075 C1074 1.327 . S
C1075 C1079 1.429 . S
C1076 C1059 1.574 . S
C1076 H1070 0.949 . S
C1076 C1080 1.368 . S
C1077 C1058 1.429 . S
C1077 C1071 1.429 . S
C1077 C1078 1.523 . S
C1078 C1059 1.368 . S
C1078 C1072 1.368 . S
C1078 C1077 1.523 . S
C1079 C1063 1.429 . S
C1079 C1075 1.429 . S
C1079 C1080 1.523 . S
C1080 C1064 1.368 . S
C1080 C1076 1.368 . S
C1080 C1079 1.523 . S
H1081 C1056 0.950 . S
H1082 C1058 0.950 . S
H1083 C1059 0.949 . S
H1084 C1061 0.950 . S
H1085 C1063 0.950 . S
C1086 C1087 1.349 . S
C1086 C1088 1.327 . S
C1086 H1111 0.950 . S
C1087 C1086 1.349 . S
C1087 C1103 1.349 . S
C1088 C1086 1.327 . S
C1088 C1107 1.429 . S
C1088 H1112 0.950 . S
C1089 C1106 1.574 . S
C1089 C1108 1.368 . S
C1089 H1113 0.949 . S
H1090 C1094 0.985 . S
C1091 C1092 1.349 . S
C1091 C1093 1.327 1_565 S
C1091 H1114 0.950 . S
C1092 C1091 1.349 . S
C1092 C1104 1.349 . S
C1093 C1091 1.327 1_545 S
C1093 C1109 1.429 . S
C1093 H1115 0.950 . S
C1094 H1090 0.985 . S
C1094 C1102 1.574 . S
C1094 C1110 1.368 . S
H1095 C1103 0.950 . S
H1096 C1101 0.950 . S
H1097 C1102 0.949 . S
H1098 C1104 0.950 . S
H1099 C1105 0.950 . S
H1100 C1106 0.949 . S
C1101 H1096 0.950 . S
C1101 C1103 1.327 . S
C1101 C1107 1.429 . S
C1102 C1094 1.574 . S
C1102 H1097 0.949 . S
C1102 C1108 1.368 . S
C1103 C1087 1.349 . S
C1103 H1095 0.950 . S
C1103 C1101 1.327 . S
C1104 C1092 1.349 . S
C1104 H1098 0.950 . S
C1104 C1105 1.327 . S
C1105 H1099 0.950 . S
C1105 C1104 1.327 . S
C1105 C1109 1.429 1_565 S
C1106 C1089 1.574 . S
C1106 H1100 0.949 . S
C1106 C1110 1.368 . S
C1107 C1088 1.429 . S
C1107 C1101 1.429 . S
C1107 C1108 1.523 . S
C1108 C1089 1.368 . S
C1108 C1102 1.368 . S
C1108 C1107 1.523 . S
C1109 C1093 1.429 . S
C1109 C1105 1.429 1_545 S
C1109 C1110 1.523 . S
C1110 C1094 1.368 . S
C1110 C1106 1.368 . S
C1110 C1109 1.523 . S
H1111 C1086 0.950 . S
H1112 C1088 0.950 . S
H1113 C1089 0.949 . S
H1114 C1091 0.950 . S
H1115 C1093 0.950 . S
C1116 C1117 1.349 . S
C1116 C1118 1.327 . S
C1116 H1141 0.950 . S
C1117 C1116 1.349 . S
C1117 C1133 1.349 . S
C1118 C1116 1.327 . S
C1118 C1137 1.429 . S
C1118 H1142 0.950 . S
C1119 C1136 1.574 . S
C1119 C1138 1.368 . S
C1119 H1143 0.949 . S
H1120 C1124 0.949 . S
C1121 C1122 1.349 . S
C1121 C1123 1.327 . S
C1121 H1144 0.950 . S
C1122 C1121 1.349 . S
C1122 C1134 1.349 . S
C1123 C1121 1.327 . S
C1123 C1139 1.429 . S
C1123 H1145 0.950 . S
C1124 H1120 0.949 . S
C1124 C1132 1.574 . S
C1124 C1140 1.368 . S
H1125 C1133 0.950 . S
H1126 C1131 0.950 . S
H1127 C1132 0.949 . S
H1128 C1134 0.950 . S
H1129 C1135 0.950 . S
H1130 C1136 0.949 . S
C1131 H1126 0.950 . S
C1131 C1133 1.327 . S
C1131 C1137 1.429 . S
C1132 C1124 1.574 . S
C1132 H1127 0.949 . S
C1132 C1138 1.368 . S
C1133 C1117 1.349 . S
C1133 H1125 0.950 . S
C1133 C1131 1.327 . S
C1134 C1122 1.349 . S
C1134 H1128 0.950 . S
C1134 C1135 1.327 . S
C1135 H1129 0.950 . S
C1135 C1134 1.327 . S
C1135 C1139 1.429 . S
C1136 C1119 1.574 . S
C1136 H1130 0.949 . S
C1136 C1140 1.368 . S
C1137 C1118 1.429 . S
C1137 C1131 1.429 . S
C1137 C1138 1.523 . S
C1138 C1119 1.368 . S
C1138 C1132 1.368 . S
C1138 C1137 1.523 . S
C1139 C1123 1.429 . S
C1139 C1135 1.429 . S
C1139 C1140 1.523 . S
C1140 C1124 1.368 . S
C1140 C1136 1.368 . S
C1140 C1139 1.523 . S
H1141 C1116 0.950 . S
H1142 C1118 0.950 . S
H1143 C1119 0.949 . S
H1144 C1121 0.950 . S
H1145 C1123 0.950 . S
C1146 C1147 1.349 . S
C1146 C1148 1.327 . S
C1146 H1171 0.950 . S
C1147 C1146 1.349 . S
C1147 C1163 1.349 . S
C1148 C1146 1.327 . S
C1148 C1167 1.429 . S
C1148 H1172 0.950 . S
C1149 C1166 1.574 1_545 S
C1149 C1168 1.368 . S
C1149 H1173 0.949 . S
H1150 C1154 0.949 . S
C1151 C1152 1.349 . S
C1151 C1153 1.327 . S
C1151 H1174 0.950 . S
C1152 C1151 1.349 . S
C1152 C1164 1.349 . S
C1153 C1151 1.327 . S
C1153 C1169 1.429 . S
C1153 H1175 0.950 . S
C1154 H1150 0.949 . S
C1154 C1162 1.574 1_565 S
C1154 C1170 1.368 . S
H1155 C1163 0.950 . S
H1156 C1161 0.950 . S
H1157 C1162 0.949 . S
H1158 C1164 0.950 . S
H1159 C1165 0.950 . S
H1160 C1166 0.949 . S
C1161 H1156 0.950 . S
C1161 C1163 1.327 . S
C1161 C1167 1.429 . S
C1162 C1154 1.574 1_545 S
C1162 H1157 0.949 . S
C1162 C1168 1.368 . S
C1163 C1147 1.349 . S
C1163 H1155 0.950 . S
C1163 C1161 1.327 . S
C1164 C1152 1.349 . S
C1164 H1158 0.950 . S
C1164 C1165 1.327 . S
C1165 H1159 0.950 . S
C1165 C1164 1.327 . S
C1165 C1169 1.429 . S
C1166 C1149 1.574 1_565 S
C1166 H1160 0.949 . S
C1166 C1170 1.368 . S
C1167 C1148 1.429 . S
C1167 C1161 1.429 . S
C1167 C1168 1.523 . S
C1168 C1149 1.368 . S
C1168 C1162 1.368 . S
C1168 C1167 1.523 . S
C1169 C1153 1.429 . S
C1169 C1165 1.429 . S
C1169 C1170 1.523 . S
C1170 C1154 1.368 . S
C1170 C1166 1.368 . S
C1170 C1169 1.523 . S
H1171 C1146 0.950 . S
H1172 C1148 0.950 . S
H1173 C1149 0.949 . S
H1174 C1151 0.950 . S
H1175 C1153 0.950 . S
C1176 C1177 1.349 . S
C1176 C1178 1.327 . S
C1176 H1201 0.950 . S
C1177 C1176 1.349 . S
C1177 C1193 1.349 . S
C1178 C1176 1.327 . S
C1178 C1197 1.429 . S
C1178 H1202 0.950 . S
C1179 C1196 1.553 1_655 S
C1179 C1198 1.368 . S
C1179 H1203 0.949 . S
H1180 C1184 0.949 . S
C1181 C1182 1.349 . S
C1181 C1183 1.327 . S
C1181 H1204 0.950 . S
C1182 C1181 1.349 . S
C1182 C1194 1.349 . S
C1183 C1181 1.327 . S
C1183 C1199 1.429 . S
C1183 H1205 0.950 . S
C1184 H1180 0.949 . S
C1184 C1192 1.554 1_455 S
C1184 C1200 1.368 . S
H1185 C1193 0.950 . S
H1186 C1191 0.950 . S
H1187 C1192 0.965 . S
H1188 C1194 0.950 . S
H1189 C1195 0.950 . S
H1190 C1196 0.965 . S
C1191 H1186 0.950 . S
C1191 C1193 1.327 . S
C1191 C1197 1.429 . S
C1192 C1184 1.554 1_655 S
C1192 H1187 0.965 . S
C1192 C1198 1.372 . S
C1193 C1177 1.349 . S
C1193 H1185 0.950 . S
C1193 C1191 1.327 . S
C1194 C1182 1.349 . S
C1194 H1188 0.950 . S
C1194 C1195 1.327 . S
C1195 H1189 0.950 . S
C1195 C1194 1.327 . S
C1195 C1199 1.429 . S
C1196 C1179 1.553 1_455 S
C1196 H1190 0.965 . S
C1196 C1200 1.372 . S
C1197 C1178 1.429 . S
C1197 C1191 1.429 . S
C1197 C1198 1.523 . S
C1198 C1179 1.368 . S
C1198 C1192 1.372 . S
C1198 C1197 1.523 . S
C1199 C1183 1.429 . S
C1199 C1195 1.429 . S
C1199 C1200 1.523 . S
C1200 C1184 1.368 . S
C1200 C1196 1.372 . S
C1200 C1199 1.523 . S
H1201 C1176 0.950 . S
H1202 C1178 0.950 . S
H1203 C1179 0.949 . S
H1204 C1181 0.950 . S
H1205 C1183 0.950 . S
C1206 C1207 1.349 . S
C1206 C1208 1.327 . S
C1206 H1231 0.950 . S
C1207 C1206 1.349 . S
C1207 C1223 1.349 . S
C1208 C1206 1.327 . S
C1208 C1227 1.429 . S
C1208 H1232 0.950 . S
C1209 C1226 1.574 . S
C1209 C1228 1.368 . S
C1209 H1233 0.949 . S
H1210 C1214 0.949 . S
C1211 C1212 1.349 . S
C1211 C1213 1.327 . S
C1211 H1234 0.950 . S
C1212 C1211 1.349 . S
C1212 C1224 1.349 . S
C1213 C1211 1.327 . S
C1213 C1229 1.429 . S
C1213 H1235 0.950 . S
C1214 H1210 0.949 . S
C1214 C1222 1.574 . S
C1214 C1230 1.368 . S
H1215 C1223 0.950 . S
H1216 C1221 0.950 . S
H1217 C1222 0.949 . S
H1218 C1224 0.950 . S
H1219 C1225 0.950 . S
H1220 C1226 0.949 . S
C1221 H1216 0.950 . S
C1221 C1223 1.327 . S
C1221 C1227 1.429 . S
C1222 C1214 1.574 . S
C1222 H1217 0.949 . S
C1222 C1228 1.368 . S
C1223 C1207 1.349 . S
C1223 H1215 0.950 . S
C1223 C1221 1.327 . S
C1224 C1212 1.349 . S
C1224 H1218 0.950 . S
C1224 C1225 1.327 . S
C1225 H1219 0.950 . S
C1225 C1224 1.327 . S
C1225 C1229 1.429 . S
C1226 C1209 1.574 . S
C1226 H1220 0.949 . S
C1226 C1230 1.368 . S
C1227 C1208 1.429 . S
C1227 C1221 1.429 . S
C1227 C1228 1.523 . S
C1228 C1209 1.368 . S
C1228 C1222 1.368 . S
C1228 C1227 1.523 . S
C1229 C1213 1.429 . S
C1229 C1225 1.429 . S
C1229 C1230 1.523 . S
C1230 C1214 1.368 . S
C1230 C1226 1.368 . S
C1230 C1229 1.523 . S
H1231 C1206 0.950 . S
H1232 C1208 0.950 . S
H1233 C1209 0.949 . S
H1234 C1211 0.950 . S
H1235 C1213 0.950 . S
C1236 C1237 1.349 . S
C1236 C1238 1.327 . S
C1236 H1261 0.950 . S
C1237 C1236 1.349 . S
C1237 C1253 1.349 . S
C1238 C1236 1.327 . S
C1238 C1257 1.429 . S
C1238 H1262 0.950 . S
C1239 C1256 1.574 . S
C1239 C1258 1.368 1_545 S
C1239 H1263 0.949 . S
H1240 C1244 0.949 . S
C1241 C1242 1.349 . S
C1241 C1243 1.327 . S
C1241 H1264 0.950 . S
C1242 C1241 1.349 . S
C1242 C1254 1.349 . S
C1243 C1241 1.327 . S
C1243 C1259 1.429 . S
C1243 H1265 0.950 . S
C1244 H1240 0.949 . S
C1244 C1252 1.574 . S
C1244 C1260 1.368 1_565 S
H1245 C1253 0.950 . S
H1246 C1251 0.950 . S
H1247 C1252 0.949 . S
H1248 C1254 0.950 . S
H1249 C1255 0.950 . S
H1250 C1256 0.949 . S
C1251 H1246 0.950 . S
C1251 C1253 1.327 . S
C1251 C1257 1.429 . S
C1252 C1244 1.574 . S
C1252 H1247 0.949 . S
C1252 C1258 1.368 . S
C1253 C1237 1.349 . S
C1253 H1245 0.950 . S
C1253 C1251 1.327 . S
C1254 C1242 1.349 . S
C1254 H1248 0.950 . S
C1254 C1255 1.327 . S
C1255 H1249 0.950 . S
C1255 C1254 1.327 . S
C1255 C1259 1.429 . S
C1256 C1239 1.574 . S
C1256 H1250 0.949 . S
C1256 C1260 1.368 . S
C1257 C1238 1.429 . S
C1257 C1251 1.429 . S
C1257 C1258 1.523 . S
C1258 C1239 1.368 1_565 S
C1258 C1252 1.368 . S
C1258 C1257 1.523 . S
C1259 C1243 1.429 . S
C1259 C1255 1.429 . S
C1259 C1260 1.523 . S
C1260 C1244 1.368 1_545 S
C1260 C1256 1.368 . S
C1260 C1259 1.523 . S
H1261 C1236 0.950 . S
H1262 C1238 0.950 . S
H1263 C1239 0.949 . S
H1264 C1241 0.950 . S
H1265 C1243 0.950 . S
C1266 C1267 1.349 . S
C1266 C1268 1.327 . S
C1266 H1291 0.950 . S
C1267 C1266 1.349 . S
C1267 C1283 1.349 . S
C1268 C1266 1.327 . S
C1268 C1287 1.429 . S
C1268 H1292 0.950 . S
C1269 C1286 1.574 . S
C1269 C1288 1.368 1_655 S
C1269 H1293 0.949 . S
H1270 C1274 0.949 . S
C1271 C1272 1.349 . S
C1271 C1273 1.327 . S
C1271 H1294 0.950 . S
C1272 C1271 1.349 . S
C1272 C1284 1.349 . S
C1273 C1271 1.327 . S
C1273 C1289 1.429 . S
C1273 H1295 0.950 . S
C1274 H1270 0.949 . S
C1274 C1282 1.574 . S
C1274 C1290 1.368 1_455 S
H1275 C1283 0.950 . S
H1276 C1281 0.950 . S
H1277 C1282 0.949 . S
H1278 C1284 0.950 . S
H1279 C1285 0.950 . S
H1280 C1286 0.949 . S
C1281 H1276 0.950 . S
C1281 C1283 1.327 . S
C1281 C1287 1.429 . S
C1282 C1274 1.574 . S
C1282 H1277 0.949 . S
C1282 C1288 1.368 . S
C1283 C1267 1.349 . S
C1283 H1275 0.950 . S
C1283 C1281 1.327 . S
C1284 C1272 1.349 . S
C1284 H1278 0.950 . S
C1284 C1285 1.327 . S
C1285 H1279 0.950 . S
C1285 C1284 1.327 . S
C1285 C1289 1.429 . S
C1286 C1269 1.574 . S
C1286 H1280 0.949 . S
C1286 C1290 1.368 . S
C1287 C1268 1.429 . S
C1287 C1281 1.429 . S
C1287 C1288 1.523 . S
C1288 C1269 1.368 1_455 S
C1288 C1282 1.368 . S
C1288 C1287 1.523 . S
C1289 C1273 1.429 . S
C1289 C1285 1.429 . S
C1289 C1290 1.523 . S
C1290 C1274 1.368 1_655 S
C1290 C1286 1.368 . S
C1290 C1289 1.523 . S
H1291 C1266 0.950 . S
H1292 C1268 0.950 . S
H1293 C1269 0.949 . S
H1294 C1271 0.950 . S
H1295 C1273 0.950 . S
C397 C41 1.505 . S
C402 N14 1.486 . S
C427 N47 1.486 . S
C432 C74 1.505 . S
C457 N80 1.486 . S
C462 C8 1.505 . S
C487 N113 1.486 . S
C492 C173 1.505 . S
C517 N146 1.486 . S
C522 C107 1.505 . S
C547 C140 1.505 . S
C552 N179 1.486 . S
C577 C239 1.505 . S
C582 N212 1.486 . S
C607 C272 1.505 . S
C612 N245 1.486 . S
C637 C206 1.505 . S
C642 N278 1.486 . S
C667 N311 1.486 . S
C672 C371 1.505 . S
C697 C305 1.505 . S
C702 N344 1.486 . S
C727 N377 1.486 . S
C732 C338 1.505 . S
C757 C28 1.283 . S
C762 N236 1.246 . S
C787 C61 1.283 . S
C792 N269 1.246 . S
C817 C94 1.283 . S
C822 N203 1.246 . S
C847 N368 1.246 . S
C852 C127 1.283 . S
C877 C160 1.283 . S
C882 N302 1.246 . S
C907 N335 1.246 . S
C912 C193 1.283 . S
C937 N38 1.246 . S
C942 C226 1.283 . S
C967 N71 1.246 . S
C972 C259 1.283 . S
C997 C292 1.283 . S
C1002 N5 1.246 . S
C1027 N170 1.246 . S
C1032 C325 1.283 . S
C1057 C358 1.283 . S
C1062 N104 1.246 . S
C1087 C391 1.283 . S
C1092 N137 1.246 . S
C1117 C116 1.197 . S
C1122 C17 1.197 . S
C1147 C50 1.197 . S
C1152 C149 1.197 . S
C1177 C83 1.197 . S
C1182 C182 1.197 . S
C1207 C314 1.197 . S
C1212 C215 1.197 . S
C1237 C248 1.197 . S
C1242 C347 1.197 . S
C1267 C281 1.197 . S
C1272 C380 1.197 . S
