# Generated by pormake.
# Topology wkd, (5)-cn, num edge types: 1
# Building blocks:
#     Node 0, Type 0, BuildingBlock: XOMCOT_clean_sbu_0, # of connection points: 5
#     Node 1, Type 0, BuildingBlock: XOMCOT_clean_sbu_0, # of connection points: 5
#     Node 2, Type 0, BuildingBlock: XOMCOT_clean_sbu_0, # of connection points: 5
#     Node 3, Type 0, BuildingBlock: XOMCOT_clean_sbu_0, # of connection points: 5
#     Node 4, Type 0, BuildingBlock: XOMCOT_clean_sbu_0, # of connection points: 5
#     Node 5, Type 0, BuildingBlock: XOMCOT_clean_sbu_0, # of connection points: 5
#     Node 6, Type 0, BuildingBlock: XOMCOT_clean_sbu_0, # of connection points: 5
#     Node 7, Type 0, BuildingBlock: XOMCOT_clean_sbu_0, # of connection points: 5
#     Node 8, Type 0, BuildingBlock: XOMCOT_clean_sbu_0, # of connection points: 5
#     Node 9, Type 0, BuildingBlock: XOMCOT_clean_sbu_0, # of connection points: 5
#     Node 10, Type 0, BuildingBlock: XOMCOT_clean_sbu_0, # of connection points: 5
#     Node 11, Type 0, BuildingBlock: XOMCOT_clean_sbu_0, # of connection points: 5
#     Edge 12, Type (0, 0), BuildingBlock: EZIPEK_clean_linker_0, # of connection points: 2
#     Edge 13, Type (0, 0), BuildingBlock: EZIPEK_clean_linker_0, # of connection points: 2
#     Edge 14, Type (0, 0), BuildingBlock: EZIPEK_clean_linker_0, # of connection points: 2
#     Edge 15, Type (0, 0), BuildingBlock: EZIPEK_clean_linker_0, # of connection points: 2
#     Edge 16, Type (0, 0), BuildingBlock: EZIPEK_clean_linker_0, # of connection points: 2
#     Edge 17, Type (0, 0), BuildingBlock: EZIPEK_clean_linker_0, # of connection points: 2
#     Edge 18, Type (0, 0), BuildingBlock: EZIPEK_clean_linker_0, # of connection points: 2
#     Edge 19, Type (0, 0), BuildingBlock: EZIPEK_clean_linker_0, # of connection points: 2
#     Edge 20, Type (0, 0), BuildingBlock: EZIPEK_clean_linker_0, # of connection points: 2
#     Edge 21, Type (0, 0), BuildingBlock: EZIPEK_clean_linker_0, # of connection points: 2
#     Edge 22, Type (0, 0), BuildingBlock: EZIPEK_clean_linker_0, # of connection points: 2
#     Edge 23, Type (0, 0), BuildingBlock: EZIPEK_clean_linker_0, # of connection points: 2
#     Edge 24, Type (0, 0), BuildingBlock: EZIPEK_clean_linker_0, # of connection points: 2
#     Edge 25, Type (0, 0), BuildingBlock: EZIPEK_clean_linker_0, # of connection points: 2
#     Edge 26, Type (0, 0), BuildingBlock: EZIPEK_clean_linker_0, # of connection points: 2
#     Edge 27, Type (0, 0), BuildingBlock: EZIPEK_clean_linker_0, # of connection points: 2
#     Edge 28, Type (0, 0), BuildingBlock: EZIPEK_clean_linker_0, # of connection points: 2
#     Edge 29, Type (0, 0), BuildingBlock: EZIPEK_clean_linker_0, # of connection points: 2
#     Edge 30, Type (0, 0), BuildingBlock: EZIPEK_clean_linker_0, # of connection points: 2
#     Edge 31, Type (0, 0), BuildingBlock: EZIPEK_clean_linker_0, # of connection points: 2
#     Edge 32, Type (0, 0), BuildingBlock: EZIPEK_clean_linker_0, # of connection points: 2
#     Edge 33, Type (0, 0), BuildingBlock: EZIPEK_clean_linker_0, # of connection points: 2
#     Edge 34, Type (0, 0), BuildingBlock: EZIPEK_clean_linker_0, # of connection points: 2
#     Edge 35, Type (0, 0), BuildingBlock: EZIPEK_clean_linker_0, # of connection points: 2
#     Edge 36, Type (0, 0), BuildingBlock: EZIPEK_clean_linker_0, # of connection points: 2
#     Edge 37, Type (0, 0), BuildingBlock: EZIPEK_clean_linker_0, # of connection points: 2
#     Edge 38, Type (0, 0), BuildingBlock: EZIPEK_clean_linker_0, # of connection points: 2
#     Edge 39, Type (0, 0), BuildingBlock: EZIPEK_clean_linker_0, # of connection points: 2
#     Edge 40, Type (0, 0), BuildingBlock: EZIPEK_clean_linker_0, # of connection points: 2
#     Edge 41, Type (0, 0), BuildingBlock: EZIPEK_clean_linker_0, # of connection points: 2
# Relax obj value: 0.125
# Max RMSD: 0.194
# Mean RMSD: 0.192
data_MOF--net-wkd--node1-XOMCOT_clean_sbu_0--edge1-EZIPEK_clean_linker_0
_symmetry_space_group_name_H-M    P1
_symmetry_Int_Tables_number       1
_symmetry_cell_setting            triclinic
loop_
_symmetry_equiv_pos_as_xyz
'x, y, z'
_cell_length_a     19.656663
_cell_length_b     19.684023
_cell_length_c     83.558632
_cell_angle_alpha  89.875039
_cell_angle_beta   90.255855
_cell_angle_gamma 119.60869
loop_
_atom_site_label
_atom_site_type_symbol
_atom_site_fract_x
_atom_site_fract_y
_atom_site_fract_z
_atom_type_partial_charge
Co0 Co 0.96187 0.2856 0.04924 0.0
C1 C 0.90026 0.38326 0.033 0.0
C2 C 0.94143 0.32905 0.01645 0.0
C3 C 0.91717 0.37307 0.0079 0.0
N4 N 0.93328 0.33682 0.03229 0.0
N5 N 0.89184 0.40729 0.01835 0.0
H6 H 0.88249 0.39983 0.04382 0.0
H7 H 0.96624 0.29587 0.01143 0.0
C8 C 0.91498 0.13792 0.02869 0.0
O9 O 0.98363 0.1439 0.03044 0.0
N10 N 0.98629 0.23011 0.06598 0.0
C11 C 0.04844 0.26423 0.07594 0.0
C12 C 0.05569 0.20731 0.08414 0.0
C13 C 0.95515 0.15199 0.06871 0.0
N14 N 0.9973 0.13642 0.07966 0.0
C15 C 0.09975 0.39214 0.0325 0.0
C16 C 0.18097 0.31129 0.03332 0.0
C17 C 0.21479 0.38438 0.02586 0.0
C18 C 0.17373 0.42521 0.02569 0.0
C19 C 0.10631 0.28042 0.04016 0.0
N20 N 0.06331 0.31789 0.03866 0.0
H21 H 0.07297 0.42842 0.03325 0.0
H22 H 0.08541 0.22762 0.04704 0.0
H23 H 0.08904 0.32634 0.07649 0.0
H24 H 0.90479 0.10726 0.06242 0.0
O25 O 1.00354 0.37749 0.06281 0.0
O26 O 0.88014 0.28683 0.06279 0.0
O27 O 0.89771 0.18492 0.03598 0.0
C28 C 0.93409 0.35516 0.06813 0.0
H29 H 0.91947 0.38086 0.99504 0.0
H30 H 0.10201 0.21719 0.09248 0.0
H31 H 0.21283 0.27962 0.03428 0.0
H32 H 0.1996 0.48345 0.02064 0.0
Co33 Co 0.68304 0.94436 0.2168 0.0
C34 C 0.53424 0.91412 0.19972 0.0
C35 C 0.57614 0.83922 0.19132 0.0
C36 C 0.50861 0.82115 0.18316 0.0
N37 N 0.59526 0.90017 0.20131 0.0
N38 N 0.48183 0.86764 0.18855 0.0
H39 H 0.52577 0.95454 0.20705 0.0
H40 H 0.60556 0.80572 0.19047 0.0
C41 C 0.75365 0.89226 0.1907 0.0
O42 O 0.73778 0.93431 0.18072 0.0
N43 N 0.76933 0.98444 0.23238 0.0
C44 C 0.80087 0.05354 0.2401 0.0
C45 C 0.86669 0.06475 0.2484 0.0
C46 C 0.81643 0.95427 0.23627 0.0
N47 N 0.87685 1.0026 0.24595 0.0
C48 C 0.70301 0.07937 0.19976 0.0
C49 C 0.8608 0.14625 0.1933 0.0
C50 C 0.82079 0.18567 0.18857 0.0
C51 C 0.74105 0.15108 0.19188 0.0
C52 C 0.81981 0.07326 0.20105 0.0
N53 N 0.74116 0.03974 0.20393 0.0
H54 H 0.64333 0.05795 0.20316 0.0
H55 H 0.8516 0.0446 0.20506 0.0
H56 H 0.7793 0.09444 0.23925 0.0
H57 H 0.80853 0.89944 0.2317 0.0
O58 O 0.62706 0.98201 0.22982 0.0
O59 O 0.61349 0.86439 0.23229 0.0
O60 O 0.73454 0.88865 0.2055 0.0
C61 C 0.59206 0.91461 0.23683 0.0
H62 H 0.47852 0.77398 0.17466 0.0
H63 H 0.90553 0.11576 0.25538 0.0
H64 H 0.92309 0.17217 0.19126 0.0
H65 H 0.70871 0.18078 0.18887 0.0
Co66 Co 0.74933 0.68375 0.38183 0.0
C67 C 0.63034 0.56061 0.35893 0.0
C68 C 0.73866 0.56042 0.3613 0.0
C69 C 0.6882 0.49631 0.35243 0.0
N70 N 0.70292 0.60115 0.36557 0.0
N71 N 0.6199 0.49597 0.35112 0.0
H72 H 0.58395 0.57408 0.36034 0.0
H73 H 0.79618 0.57347 0.36537 0.0
C74 C 0.86975 0.74337 0.35512 0.0
O75 O 0.81188 0.72776 0.34517 0.0
N76 N 0.80113 0.76576 0.398 0.0
C77 C 0.77126 0.80594 0.4054 0.0
C78 C 0.83088 0.86892 0.41341 0.0
C79 C 0.87865 0.80474 0.4018 0.0
N80 N 0.89851 0.86849 0.41105 0.0
C81 C 0.63902 0.72392 0.36934 0.0
C82 C 0.73977 0.86948 0.35697 0.0
C83 C 0.65868 0.83913 0.35529 0.0
C84 C 0.60857 0.76602 0.36178 0.0
C85 C 0.76817 0.82439 0.36463 0.0
N86 N 0.71773 0.75062 0.37009 0.0
H87 H 0.59799 0.67001 0.37497 0.0
H88 H 0.83022 0.84943 0.36632 0.0
H89 H 0.71122 0.79314 0.40429 0.0
H90 H 0.92058 0.78911 0.39728 0.0
O91 O 0.65567 0.63116 0.39505 0.0
O92 O 0.74962 0.60314 0.39636 0.0
O93 O 0.85511 0.72822 0.37012 0.0
C94 C 0.67902 0.58554 0.4009 0.0
H95 H 0.69865 0.45015 0.34832 0.0
H96 H 0.8257 0.91387 0.41982 0.0
H97 H 0.7804 0.92721 0.35251 0.0
H98 H 0.54567 0.74182 0.36121 0.0
Co99 Co 0.09235 0.74732 0.54867 0.0
C100 C 0.10181 0.63226 0.52621 0.0
C101 C 0.20947 0.74021 0.5291 0.0
C102 C 0.22421 0.69094 0.52008 0.0
N103 N 0.13297 0.70396 0.53298 0.0
N104 N 0.15696 0.62304 0.51841 0.0
H105 H 0.04142 0.58703 0.52747 0.0
H106 H 0.25284 0.79724 0.5334 0.0
C107 C 0.13789 0.89289 0.52845 0.0
O108 O 0.06394 0.8738 0.52737 0.0
N109 N 0.05787 0.79633 0.56515 0.0
C110 C 0.0318 0.76818 0.58001 0.0
C111 C 0.02231 0.82238 0.58874 0.0
C112 C 0.06344 0.86821 0.56529 0.0
N113 N 0.04231 0.88542 0.57949 0.0
C114 C 0.92866 0.68619 0.54276 0.0
C115 C 0.93391 0.68038 0.50973 0.0
C116 C 0.86102 0.64356 0.51732 0.0
C117 C 0.85879 0.64845 0.53399 0.0
C118 C 1.00251 0.71714 0.51895 0.0
N119 N 0.99975 0.71949 0.53532 0.0
H120 H 0.92531 0.68403 0.55565 0.0
H121 H 0.0578 0.74113 0.51289 0.0
H122 H 0.02124 0.71235 0.58452 0.0
H123 H 0.08375 0.90869 0.55554 0.0
O124 O 0.04695 0.64972 0.56064 0.0
O125 O 0.16788 0.74371 0.5639 0.0
O126 O 0.15902 0.85336 0.53744 0.0
C127 C 0.11417 0.67205 0.56738 0.0
H128 H 0.28098 0.70182 0.51604 0.0
H129 H 1.00286 0.81631 0.60103 0.0
H130 H 0.93781 0.67727 0.49686 0.0
H131 H 0.80343 0.61987 0.54026 0.0
Co132 Co 0.35691 0.08455 0.71583 0.0
C133 C 0.5031 0.11613 0.6978 0.0
C134 C 0.46466 0.19897 0.69321 0.0
C135 C 0.53092 0.22055 0.68452 0.0
N136 N 0.44475 0.13187 0.70107 0.0
N137 N 0.55668 0.17007 0.68769 0.0
H138 H 0.50829 0.06887 0.70321 0.0
H139 H 0.43552 0.23301 0.69431 0.0
C140 C 0.23887 0.10236 0.69535 0.0
O141 O 0.19254 0.02678 0.6971 0.0
N142 N 0.26861 0.04449 0.73118 0.0
C143 C 0.25091 0.99257 0.74326 0.0
C144 C 0.18617 0.98448 0.75143 0.0
C145 C 0.21656 0.07072 0.73307 0.0
N146 N 0.16412 0.03319 0.7449 0.0
C147 C 0.2768 0.91868 0.70968 0.0
C148 C 0.27964 0.92631 0.67666 0.0
C149 C 0.24894 0.85314 0.68407 0.0
C150 C 0.24724 0.84983 0.70076 0.0
C151 C 0.30916 0.99406 0.68607 0.0
N152 N 0.30575 0.98998 0.70245 0.0
H153 H 0.28012 0.91421 0.7224 0.0
H154 H 0.33588 0.04979 0.68013 0.0
H155 H 0.28389 0.96385 0.74639 0.0
H156 H 0.21881 0.11894 0.72649 0.0
O157 O 0.41415 0.04896 0.72918 0.0
O158 O 0.42463 0.16496 0.73171 0.0
O159 O 0.30501 0.13664 0.70286 0.0
C160 C 0.44809 0.116 0.73624 0.0
H161 H 0.56153 0.27299 0.67735 0.0
H162 H 0.15821 0.94667 0.76157 0.0
H163 H 0.28363 0.93121 0.66374 0.0
H164 H 0.22623 0.79451 0.7069 0.0
Co165 Co 0.27998 0.33906 0.88447 0.0
C166 C 0.4045 0.46627 0.86467 0.0
C167 C 0.29395 0.46362 0.86356 0.0
C168 C 0.34804 0.52806 0.85532 0.0
N169 N 0.32887 0.42454 0.86936 0.0
N170 N 0.41737 0.53001 0.8561 0.0
H171 H 0.44955 0.4525 0.86805 0.0
H172 H 0.23393 0.44835 0.86582 0.0
C173 C 0.12995 0.23249 0.8651 0.0
O174 O 0.13822 0.17142 0.86807 0.0
N175 N 0.2294 0.25319 0.90018 0.0
C176 C 0.26589 0.23295 0.91142 0.0
C177 C 0.21128 0.16967 0.92001 0.0
C178 C 0.15216 0.20253 0.90267 0.0
N179 N 0.13961 0.14975 0.91437 0.0
C180 C 0.37325 0.26647 0.87904 0.0
C181 C 0.33155 0.2217 0.84764 0.0
C182 C 0.38932 0.20921 0.85473 0.0
C183 C 0.40975 0.23207 0.87066 0.0
C184 C 0.29892 0.25964 0.8563 0.0
N185 N 0.31753 0.27925 0.87205 0.0
H186 H 0.39329 0.2862 0.89101 0.0
H187 H 0.26074 0.27495 0.85007 0.0
H188 H 0.32812 0.26266 0.91362 0.0
H189 H 0.10579 0.20442 0.89631 0.0
O190 O 0.37076 0.39326 0.89836 0.0
O191 O 0.2685 0.41078 0.89925 0.0
O192 O 0.17802 0.29914 0.87127 0.0
C193 C 0.33862 0.43082 0.9045 0.0
H194 H 0.33815 0.57198 0.84966 0.0
H195 H 0.22328 0.13967 0.92954 0.0
H196 H 0.31494 0.20611 0.83525 0.0
H197 H 0.45523 0.22511 0.87651 0.0
Co198 Co 0.73451 0.05842 0.79906 0.0
C199 C 0.6124 0.07302 0.81952 0.0
C200 C 0.72602 0.17458 0.81849 0.0
C201 C 0.67777 0.19357 0.82672 0.0
N202 N 0.68591 0.09911 0.8138 0.0
N203 N 0.60611 0.13032 0.8272 0.0
H204 H 0.56364 0.01509 0.81785 0.0
H205 H 0.78569 0.21537 0.81518 0.0
C206 C 0.89733 0.11953 0.81546 0.0
O207 O 0.9139 0.07262 0.8074 0.0
N208 N 0.78992 0.02418 0.78421 0.0
C209 C 0.77395 0.94991 0.78204 0.0
C210 C 0.83391 0.94968 0.77359 0.0
C211 C 0.8587 0.06803 0.7762 0.0
N212 N 0.88841 0.02381 0.76999 0.0
C213 C 0.61763 0.91162 0.81157 0.0
C214 C 0.71118 0.86714 0.82801 0.0
C215 C 0.6302 0.81678 0.82784 0.0
C216 C 0.58343 0.83988 0.81949 0.0
C217 C 0.74313 0.93934 0.82005 0.0
N218 N 0.69667 0.96194 0.81198 0.0
H219 H 0.57942 0.92539 0.8048 0.0
H220 H 0.80506 0.97451 0.82023 0.0
H221 H 0.72357 0.89884 0.7868 0.0
H222 H 0.88779 0.13113 0.77557 0.0
O223 O 0.64509 0.01823 0.78446 0.0
O224 O 0.74019 0.13863 0.78366 0.0
O225 O 0.83288 0.11965 0.81305 0.0
C226 C 0.6701 0.08714 0.77863 0.0
H227 H 0.69256 0.25116 0.831 0.0
H228 H 0.83806 0.89836 0.77059 0.0
H229 H 0.74945 0.85054 0.83413 0.0
H230 H 0.52059 0.80192 0.81886 0.0
Co231 Co 0.67353 0.73574 0.96574 0.0
C232 C 0.55749 0.61782 0.98878 0.0
C233 C 0.55364 0.72479 0.98739 0.0
C234 C 0.4937 0.67386 0.99703 0.0
N235 N 0.59369 0.68998 0.98215 0.0
N236 N 0.49583 0.60672 0.99778 0.0
H237 H 0.57416 0.5738 0.98672 0.0
H238 H 0.56453 0.78196 0.98368 0.0
C239 C 0.77283 0.88034 0.98615 0.0
O240 O 0.82713 0.86026 0.98727 0.0
N241 N 0.75274 0.78677 0.94866 0.0
C242 C 0.74569 0.76279 0.93325 0.0
C243 C 0.80807 0.81738 0.92445 0.0
C244 C 0.82088 0.85645 0.94878 0.0
N245 N 0.85531 0.87639 0.9342 0.0
C246 C 0.77903 0.67644 0.96971 0.0
C247 C 0.76847 0.66191 1.00268 0.0
C248 C 0.80277 0.62547 0.9942 0.0
C249 C 0.81013 0.63505 0.97759 0.0
C250 C 0.73841 0.70319 0.99436 0.0
N251 N 0.74222 0.70881 0.97799 0.0
H252 H 0.77935 0.67711 0.9568 0.0
H253 H 0.70864 0.72739 1.00108 0.0
H254 H 0.69802 0.70962 0.92843 0.0
H255 H 0.84546 0.89305 0.95908 0.0
O256 O 0.62206 0.63881 0.95362 0.0
O257 O 0.59033 0.73058 0.95151 0.0
O258 O 0.71237 0.84139 0.97718 0.0
C259 C 0.5745 0.6598 0.94758 0.0
H260 H 0.4487 0.68331 1.00224 0.0
H261 H 0.81783 0.81433 0.91179 0.0
H262 H 0.76158 0.65529 0.01554 0.0
H263 H 0.83561 0.60682 0.97067 0.0
Co264 Co 0.95243 0.67006 0.13117 0.0
C265 C 0.93978 0.53404 0.15089 0.0
C266 C 0.83591 0.54379 0.15087 0.0
C267 C 0.82078 0.47741 0.15916 0.0
N268 N 0.91086 0.58062 0.14584 0.0
N269 N 0.88581 0.4711 0.15911 0.0
H270 H 0.99703 0.54282 0.14813 0.0
H271 H 0.79386 0.56251 0.14816 0.0
C272 C 0.89329 0.72399 0.15917 0.0
O273 O 0.9294 0.69832 0.1686 0.0
N274 N 0.99077 0.75848 0.11629 0.0
C275 C 0.05995 0.79177 0.10859 0.0
C276 C 0.06849 0.85591 0.1001 0.0
C277 C 0.95797 0.80299 0.11227 0.0
N278 N 1.00459 0.86319 0.10245 0.0
C279 C 0.09988 0.69787 0.14332 0.0
C280 C 0.14266 0.83403 0.16003 0.0
C281 C 0.19156 0.80096 0.16054 0.0
C282 C 0.17013 0.73316 0.15175 0.0
C283 C 0.07279 0.79712 0.15107 0.0
N284 N 0.04951 0.72691 0.14368 0.0
H285 H 0.08707 0.64716 0.13632 0.0
H286 H 0.03804 0.82531 0.15016 0.0
H287 H 0.10227 0.77193 0.10939 0.0
H288 H 0.90196 0.79268 0.11666 0.0
O289 O 0.98813 0.61631 0.11703 0.0
O290 O 0.8701 0.60251 0.11573 0.0
O291 O 0.89582 0.7168 0.1439 0.0
C292 C 0.91959 0.5815 0.1105 0.0
H293 H 0.76557 0.4356 0.16447 0.0
H294 H 0.11886 0.89563 0.0931 0.0
H295 H 0.15842 0.88768 0.1664 0.0
H296 H 0.20744 0.70704 0.15152 0.0
Co297 Co 0.3012 0.9647 0.29896 0.0
C298 C 0.42068 0.95679 0.32147 0.0
C299 C 0.31349 0.84919 0.31851 0.0
C300 C 0.36414 0.83441 0.32722 0.0
N301 N 0.34812 0.92593 0.31481 0.0
N302 N 0.43175 0.90182 0.32892 0.0
H303 H 0.46669 0.01637 0.32031 0.0
H304 H 0.25688 0.80548 0.31413 0.0
C305 C 0.18392 0.90047 0.32607 0.0
O306 O 0.2439 0.93395 0.33592 0.0
N307 N 0.25015 0.99822 0.28307 0.0
C308 C 0.28372 0.06643 0.27501 0.0
C309 C 0.22647 0.07368 0.26676 0.0
C310 C 0.1725 0.96474 0.27952 0.0
N311 N 0.15642 1.01 0.26963 0.0
C312 C 0.41226 0.11264 0.31162 0.0
C313 C 0.31097 0.1584 0.32381 0.0
C314 C 0.3921 0.20834 0.32548 0.0
C315 C 0.44245 0.18476 0.31912 0.0
C316 C 0.28283 0.08521 0.31624 0.0
N317 N 0.33362 0.06165 0.31089 0.0
H318 H 0.45325 0.09946 0.30593 0.0
H319 H 0.22065 0.04858 0.31435 0.0
H320 H 0.34521 0.10955 0.27561 0.0
H321 H 0.12814 0.90983 0.28448 0.0
O322 O 0.39401 1.00421 0.28561 0.0
O323 O 0.2983 0.88404 0.28428 0.0
O324 O 0.19602 0.90609 0.31087 0.0
C325 C 0.36902 0.93551 0.27968 0.0
H326 H 0.35443 0.77757 0.33093 0.0
H327 H 0.23528 0.12311 0.25955 0.0
H328 H 0.27018 0.17602 0.32814 0.0
H329 H 0.50531 0.22285 0.31965 0.0
Co330 Co 0.36048 0.29142 0.4641 0.0
C331 C 0.51827 0.41173 0.47778 0.0
C332 C 0.44103 0.3312 0.4953 0.0
C333 C 0.51022 0.38163 0.50274 0.0
N334 N 0.44572 0.34862 0.47953 0.0
N335 N 0.55858 0.43195 0.49176 0.0
H336 H 0.5413 0.44303 0.46672 0.0
H337 H 0.39058 0.28516 0.50119 0.0
C338 C 0.25917 0.13329 0.48158 0.0
O339 O 0.19664 0.1153 0.47304 0.0
N340 N 0.27361 0.23238 0.44881 0.0
C341 C 0.22134 0.25419 0.44429 0.0
C342 C 0.16132 0.19433 0.43592 0.0
C343 C 0.24614 0.16016 0.44207 0.0
N344 N 0.1754 0.13405 0.43458 0.0
C345 C 0.33642 0.41061 0.4771 0.0
C346 C 0.18612 0.32137 0.48858 0.0
C347 C 0.22397 0.4025 0.49039 0.0
C348 C 0.29986 0.44727 0.48455 0.0
C349 C 0.22491 0.28689 0.48096 0.0
N350 N 0.29985 0.33114 0.47547 0.0
H351 H 0.39489 0.44673 0.47257 0.0
H352 H 0.19286 0.22543 0.47917 0.0
H353 H 0.22478 0.3091 0.4474 0.0
H354 H 0.2761 0.12675 0.44314 0.0
O355 O 0.4091 0.37636 0.44881 0.0
O356 O 0.43449 0.27934 0.45 0.0
O357 O 0.32397 0.19628 0.47897 0.0
C358 C 0.44994 0.346 0.44351 0.0
H359 H 0.52434 0.38134 0.51528 0.0
H360 H 0.10974 0.19448 0.43135 0.0
H361 H 0.12698 0.28516 0.49289 0.0
H362 H 0.33081 0.5103 0.48578 0.0
Co363 Co 0.08813 0.35244 0.63021 0.0
C364 C 0.12241 0.50347 0.64645 0.0
C365 C 0.18053 0.44822 0.65777 0.0
C366 C 0.2021 0.5172 0.66554 0.0
N367 N 0.12952 0.43824 0.64586 0.0
N368 N 0.16669 0.55257 0.65833 0.0
H369 H 0.08832 0.5165 0.63807 0.0
H370 H 0.20295 0.40946 0.66061 0.0
C371 C 0.10217 0.2318 0.65049 0.0
O372 O 0.02879 0.18215 0.64696 0.0
N373 N 0.05149 0.26692 0.61414 0.0
C374 C 1.00654 0.25702 0.60108 0.0
C375 C 0.99728 0.19348 0.59236 0.0
C376 C 0.07123 0.20978 0.6126 0.0
N377 N 0.03757 0.16339 0.59967 0.0
C378 C 0.9204 0.27087 0.63416 0.0
C379 C 0.92077 0.26907 0.66721 0.0
C380 C 0.84937 0.23996 0.6591 0.0
C381 C 0.84951 0.24047 0.64238 0.0
C382 C 0.99038 0.29989 0.65852 0.0
N383 N 0.98997 0.29888 0.64216 0.0
H384 H 0.91896 0.27557 0.62139 0.0
H385 H 0.04475 0.32473 0.66507 0.0
H386 H 0.98256 0.29409 0.59779 0.0
H387 H 0.11053 0.20226 0.62045 0.0
O388 O 0.05735 0.41159 0.61635 0.0
O389 O 0.17402 0.4214 0.61567 0.0
O390 O 0.13656 0.29948 0.64374 0.0
C391 C 0.12675 0.4453 0.61026 0.0
H392 H 0.24386 0.54168 0.67527 0.0
H393 H 0.96352 0.17099 0.58146 0.0
H394 H 0.92293 0.27115 0.68017 0.0
H395 H 0.79554 0.22079 0.63573 0.0
C396 C 0.75959 0.94332 0.01139 0.0
C397 C 0.78574 0.95092 0.99532 0.0
C398 C 0.88478 0.08714 1.00037 0.0
C399 C 0.86111 0.07939 0.01669 0.0
N400 N 0.76414 1.00674 0.03669 0.0
N401 N 0.85168 0.03587 0.97331 0.0
C402 C 0.79389 1.0098 0.0218 0.0
C403 C 0.84115 0.0251 0.98944 0.0
N404 N 0.70462 0.87159 0.01685 0.0
N405 N 0.95139 0.15211 0.99543 0.0
H406 H 0.81712 0.99163 0.96525 0.0
H407 H 0.88695 0.09005 0.968 0.0
H408 H 0.98519 0.19927 1.00291 0.0
H409 H 0.97639 0.15686 0.98423 0.0
H410 H 0.68946 0.85892 0.02884 0.0
H411 H 0.67577 0.82363 0.00925 0.0
H412 H 0.7118 0.9602 0.04074 0.0
H413 H 0.78866 0.05396 0.04456 0.0
C414 C 0.87795 0.8441 0.16321 0.0
C415 C 0.8531 0.76451 0.16671 0.0
C416 C 0.76168 0.76667 0.18684 0.0
C417 C 0.79211 0.84821 0.18414 0.0
N418 N 0.89613 0.96734 0.17305 0.0
N419 N 0.77494 0.65134 0.18313 0.0
C420 C 0.85493 0.88745 0.17325 0.0
C421 C 0.79644 0.72651 0.17899 0.0
N422 N 0.92299 0.87933 0.15015 0.0
N423 N 0.69725 0.72613 0.19626 0.0
H424 H 0.79151 0.61674 0.17665 0.0
H425 H 0.74342 0.62423 0.19342 0.0
H426 H 0.67182 0.75227 0.20288 0.0
H427 H 0.6657 0.66539 0.19682 0.0
H428 H 0.93242 0.93311 0.14593 0.0
H429 H 0.94382 0.85214 0.1426 0.0
H430 H 0.94785 0.99931 0.16665 0.0
H431 H 0.88425 1.00165 0.18075 0.0
C432 C 1.01063 0.85613 0.35369 0.0
C433 C 0.95214 0.78062 0.34852 0.0
C434 C 0.04676 0.78124 0.32882 0.0
C435 C 0.10221 0.85967 0.33302 0.0
N436 N 0.12855 0.97661 0.34738 0.0
N437 N 0.91345 0.67285 0.33022 0.0
C438 C 0.08191 0.89808 0.34496 0.0
C439 C 0.96995 0.74402 0.33574 0.0
N440 N 0.99889 0.88877 0.36703 0.0
N441 N 0.06859 0.74034 0.3189 0.0
H442 H 0.85996 0.63952 0.33595 0.0
H443 H 0.91813 0.64817 0.31957 0.0
H444 H 0.12333 0.76469 0.31354 0.0
H445 H 0.03491 0.68048 0.31691 0.0
H446 H 0.04348 0.93762 0.37273 0.0
H447 H 0.94657 0.86384 0.37322 0.0
H448 H 0.11217 1.00996 0.35434 0.0
H449 H 0.18021 1.01064 0.34117 0.0
C450 C 0.24842 1.00809 0.49157 0.0
C451 C 0.25144 0.07999 0.49503 0.0
C452 C 0.21307 0.03669 0.52281 0.0
C453 C 0.19515 0.96012 0.51848 0.0
N454 N 0.20115 0.87294 0.49913 0.0
N455 N 0.23629 0.1638 0.51396 0.0
C456 C 0.21584 0.94623 0.50304 0.0
C457 C 0.23502 0.09517 0.51076 0.0
N458 N 0.27687 0.99937 0.47729 0.0
N459 N 0.21001 0.05335 0.53855 0.0
H460 H 0.25391 0.20855 0.50558 0.0
H461 H 0.2158 0.1747 0.52457 0.0
H462 H 0.1984 1.01216 0.54752 0.0
H463 H 0.22769 0.10927 0.54285 0.0
H464 H 0.28258 0.95107 0.47437 0.0
H465 H 0.30112 0.044 0.46879 0.0
H466 H 0.20448 0.85533 0.48757 0.0
H467 H 0.18363 0.82881 0.50762 0.0
C468 C 0.13702 0.14034 0.6881 0.0
C469 C 0.21069 0.14613 0.68489 0.0
C470 C 0.21576 0.21161 0.65913 0.0
C471 C 0.14333 0.208 0.66269 0.0
N472 N 0.04352 0.18256 0.68235 0.0
N473 N 0.32331 0.19313 0.66771 0.0
C474 C 0.10659 0.17621 0.67766 0.0
C475 C 0.25136 0.1846 0.67063 0.0
N476 N 0.09405 0.09826 0.70098 0.0
N477 N 0.24792 0.23515 0.64427 0.0
H478 H 0.34599 0.16447 0.67434 0.0
H479 H 0.36176 0.23084 0.65913 0.0
H480 H 0.22505 0.25586 0.63551 0.0
H481 H 0.29436 0.22911 0.64004 0.0
H482 H 0.035 0.0805 0.70248 0.0
H483 H 0.11539 0.07645 0.7098 0.0
H484 H 0.0219 0.17219 0.69399 0.0
H485 H 1.01613 0.20428 0.67506 0.0
C486 C 0.02616 0.22785 0.82569 0.0
C487 C 0.95042 0.16494 0.82903 0.0
C488 C 0.98708 0.17133 0.85745 0.0
C489 C 0.06657 0.22312 0.85354 0.0
N490 N 0.16027 0.31161 0.83446 0.0
N491 N 0.85482 0.08207 0.84841 0.0
C492 C 0.08544 0.25551 0.83784 0.0
C493 C 0.92946 0.13902 0.84506 0.0
N494 N 0.04017 0.26246 0.81096 0.0
N495 N 0.96624 0.15631 0.87315 0.0
H496 H 0.80914 0.06421 0.84022 0.0
H497 H 0.83818 0.05152 0.85918 0.0
H498 H 1.00613 0.18472 0.88233 0.0
H499 H 0.90886 0.12388 0.87715 0.0
H500 H 0.09195 0.31212 0.80776 0.0
H501 H 0.99659 0.24494 0.80222 0.0
H502 H 0.18159 0.32977 0.82296 0.0
H503 H 0.20165 0.34071 0.84335 0.0
C504 C 0.99081 0.04888 0.10191 0.0
C505 C 0.98805 0.06169 0.08522 0.0
C506 C 0.98043 0.93412 0.08034 0.0
C507 C 0.99405 0.9275 0.0968 0.0
N508 N 0.03339 0.99067 0.12237 0.0
N509 N 0.99702 0.02172 0.05839 0.0
C510 C 1.00469 0.98808 0.10737 0.0
C511 C 0.98646 1.0052 0.07434 0.0
N512 N 0.97873 0.09409 0.1126 0.0
N513 N 0.96244 0.87251 0.07042 0.0
H514 H 1.00835 0.07532 0.05376 0.0
H515 H 1.00335 0.98598 0.05006 0.0
H516 H 0.95864 0.82066 0.07455 0.0
H517 H 0.94476 0.87049 0.05857 0.0
H518 H 0.9741 0.08341 0.12488 0.0
H519 H 0.96464 0.13643 0.10897 0.0
H520 H 0.04999 0.03792 0.13008 0.0
H521 H 0.04766 0.94911 0.12644 0.0
C522 C 0.95353 0.99066 0.26855 0.0
C523 C 0.94245 0.99423 0.25182 0.0
C524 C 0.06485 0.99098 0.24716 0.0
C525 C 0.08087 0.99763 0.26385 0.0
N526 N 0.0445 0.01384 0.29043 0.0
N527 N 0.99333 1.00804 0.22515 0.0
C528 C 0.02585 0.99943 0.27458 0.0
C529 C 0.9994 0.9964 0.24109 0.0
N530 N 0.8939 0.97744 0.27867 0.0
N531 N 0.11194 0.97812 0.23713 0.0
H532 H 0.94754 0.01404 0.22037 0.0
H533 H 0.03686 0.01831 0.21688 0.0
H534 H 0.15925 0.97289 0.24132 0.0
H535 H 0.09994 0.96538 0.22501 0.0
H536 H 0.89468 0.96685 0.29087 0.0
H537 H 0.84037 0.96975 0.27453 0.0
H538 H 1.01082 0.02398 0.29864 0.0
H539 H 0.09723 0.02215 0.29515 0.0
C540 C 0.08992 0.06168 0.41158 0.0
C541 C 0.12049 0.05935 0.4269 0.0
C542 C 1.01295 0.92204 0.42966 0.0
C543 C 0.97656 0.93003 0.41565 0.0
N544 N 0.97905 1.00741 0.39321 0.0
N545 N 0.11654 0.9814 0.44955 0.0
C546 C 1.01526 0.99966 0.40651 0.0
C547 C 0.08409 0.98731 0.43557 0.0
N548 N 0.13406 0.1235 0.40178 0.0
N549 N 0.97916 0.85127 0.43722 0.0
H550 H 0.17399 0.02038 0.4526 0.0
H551 H 0.08805 0.9368 0.45787 0.0
H552 H 0.92651 0.80405 0.43333 0.0
H553 H 1.00453 0.83742 0.44671 0.0
H554 H 0.11952 0.12713 0.38994 0.0
H555 H 0.18977 0.16767 0.40513 0.0
H556 H 0.99929 0.05943 0.38688 0.0
H557 H 0.92592 0.96224 0.38896 0.0
C558 C 0.97065 0.01964 0.5952 0.0
C559 C 0.04006 0.09348 0.59489 0.0
C560 C 0.1126 0.02902 0.58522 0.0
C561 C 0.04171 0.9565 0.58413 0.0
N562 N 0.9013 0.88619 0.5853 0.0
N563 N 0.17479 0.17063 0.58722 0.0
C564 C 0.97015 0.95289 0.58837 0.0
C565 C 0.11053 0.09872 0.58924 0.0
N566 N 0.90576 0.01288 0.60258 0.0
N567 N 0.1822 0.03068 0.58308 0.0
H568 H 0.1746 0.22223 0.58993 0.0
H569 H 0.22574 0.17936 0.58163 0.0
H570 H 0.18563 0.98066 0.5805 0.0
H571 H 0.23634 0.07998 0.5852 0.0
H572 H 0.85545 0.95953 0.60462 0.0
H573 H 0.9051 0.06012 0.60806 0.0
H574 H 0.84666 0.88187 0.58666 0.0
H575 H 0.89912 0.83742 0.5799 0.0
C576 C 0.10504 0.09166 0.76267 0.0
C577 C 0.09767 0.04211 0.74972 0.0
C578 C 0.95837 1.00506 0.74716 0.0
C579 C 0.96208 0.04468 0.76164 0.0
N580 N 0.04297 0.13321 0.78239 0.0
N581 N 1.0172 0.94896 0.72986 0.0
C582 C 0.0369 0.09103 0.76905 0.0
C583 C 0.02435 0.99876 0.74192 0.0
N584 N 0.17806 0.14042 0.76866 0.0
N585 N 0.89134 0.97482 0.73825 0.0
H586 H 0.06467 0.94433 0.72566 0.0
H587 H 0.96394 0.9091 0.72469 0.0
H588 H 0.84385 0.98146 0.74162 0.0
H589 H 0.88567 0.95072 0.72692 0.0
H590 H 0.19045 0.1839 0.77708 0.0
H591 H 0.22789 0.14073 0.76429 0.0
H592 H 0.09142 0.15759 0.78997 0.0
H593 H 0.99933 0.14504 0.78576 0.0
C594 C 0.99165 0.93935 0.92399 0.0
C595 C 0.92741 0.9462 0.92964 0.0
C596 C 1.00504 0.08911 0.92599 0.0
C597 C 0.06644 0.08121 0.91898 0.0
N598 N 0.11007 0.99633 0.90808 0.0
N599 N 0.86718 0.02587 0.93296 0.0
C600 C 0.05739 1.00547 0.91709 0.0
C601 C 0.93256 0.02077 0.92983 0.0
N602 N 0.99073 0.86991 0.92566 0.0
N603 N 1.01698 0.16186 0.92952 0.0
H604 H 0.81314 0.97679 0.93532 0.0
H605 H 0.86496 0.07744 0.93182 0.0
H606 H 0.06961 0.21253 0.92709 0.0
H607 H 0.97755 0.17143 0.93607 0.0
H608 H 0.03882 0.86293 0.9232 0.0
H609 H 0.94432 0.82124 0.93102 0.0
H610 H 0.10298 0.94195 0.905 0.0
H611 H 0.15656 0.04292 0.90224 0.0
C612 C 0.36633 0.48958 0.99443 0.0
C613 C 0.43341 0.53475 1.00402 0.0
C614 C 0.36174 0.46463 0.028 0.0
C615 C 0.29374 0.42151 0.01843 0.0
N616 N 0.23693 0.37556 0.99242 0.0
N617 N 0.50223 0.55503 0.02879 0.0
C618 C 0.29839 0.42781 1.00154 0.0
C619 C 0.43351 0.51794 0.02045 0.0
N620 N 0.36587 0.50981 0.97881 0.0
N621 N 0.35641 0.45824 0.04429 0.0
H622 H 0.55464 0.59509 0.02333 0.0
H623 H 0.50865 0.54184 0.04057 0.0
H624 H 0.30521 0.41857 0.05013 0.0
H625 H 0.40141 0.49425 0.05205 0.0
H626 H 0.31625 0.48461 0.97154 0.0
H627 H 0.41439 0.55603 0.9734 0.0
H628 H 0.23894 0.37289 0.97999 0.0
H629 H 0.18647 0.32993 0.99747 0.0
C630 C 0.88353 0.34414 0.15677 0.0
C631 C 0.89235 0.40752 0.16631 0.0
C632 C 0.8766 0.33132 0.19073 0.0
C633 C 0.86078 0.26542 0.18116 0.0
N634 N 0.86487 0.21218 0.15554 0.0
N635 N 0.91583 0.46975 0.19186 0.0
C636 C 0.87011 0.27321 0.16429 0.0
C637 C 0.89524 0.40359 0.18319 0.0
N638 N 0.88452 0.35116 0.14051 0.0
N639 N 0.87073 0.32343 0.207 0.0
H640 H 0.92994 0.52284 0.18639 0.0
H641 H 0.92442 0.47412 0.20418 0.0
H642 H 0.86142 0.27262 0.21284 0.0
H643 H 0.87323 0.36583 0.21476 0.0
H644 H 0.87164 0.30586 0.13255 0.0
H645 H 0.89747 0.40344 0.13489 0.0
H646 H 0.87575 0.21447 0.14333 0.0
H647 H 0.85417 0.15965 0.16076 0.0
C648 C 0.53155 0.93286 0.34999 0.0
C649 C 0.50461 0.90772 0.33421 0.0
C650 C 0.60505 0.86912 0.33069 0.0
C651 C 0.62266 0.88168 0.34725 0.0
N652 N 0.61061 0.93265 0.37252 0.0
N653 N 0.51646 0.85625 0.309 0.0
C654 C 0.5893 0.91733 0.35679 0.0
C655 C 0.54285 0.87855 0.3243 0.0
N656 N 0.49999 0.96972 0.35847 0.0
N657 N 0.64713 0.84678 0.32123 0.0
H658 H 0.47227 0.8643 0.304 0.0
H659 H 0.53564 0.82737 0.30143 0.0
H660 H 0.69242 0.83906 0.32574 0.0
H661 H 0.64186 0.84183 0.30884 0.0
H662 H 0.51927 0.9943 0.36973 0.0
H663 H 0.45656 0.97972 0.3537 0.0
H664 H 0.58402 0.95156 0.38075 0.0
H665 H 0.65527 0.92506 0.37747 0.0
C666 C 0.76995 0.51828 0.50286 0.0
C667 C 0.78732 0.5939 0.50813 0.0
C668 C 0.65557 0.56614 0.50003 0.0
C669 C 0.63861 0.49102 0.49481 0.0
N670 N 0.682 0.40046 0.4881 0.0
N671 N 0.75355 0.69596 0.50886 0.0
C672 C 0.69711 0.46912 0.49512 0.0
C673 C 0.73216 0.61982 0.50577 0.0
N674 N 0.82098 0.49163 0.5061 0.0
N675 N 0.59704 0.58447 0.50007 0.0
H676 H 0.80918 0.73639 0.51304 0.0
H677 H 0.71879 0.72068 0.50611 0.0
H678 H 0.54147 0.54682 0.49544 0.0
H679 H 0.60204 0.63462 0.50534 0.0
H680 H 0.80807 0.43425 0.50419 0.0
H681 H 0.87473 0.52535 0.51179 0.0
H682 H 0.7241 0.38375 0.4864 0.0
H683 H 0.62825 0.36295 0.48274 0.0
C684 C 0.12508 0.64489 0.66853 0.0
C685 C 0.18336 0.63136 0.66179 0.0
C686 C 0.28401 0.76612 0.66819 0.0
C687 C 0.22552 0.78026 0.67468 0.0
N688 N 0.08904 0.73959 0.67795 0.0
N689 N 0.31439 0.68302 0.65188 0.0
C690 C 0.14545 0.72161 0.6738 0.0
C691 C 0.26152 0.69363 0.6605 0.0
N692 N 0.05151 0.58341 0.67082 0.0
N693 N 0.36143 0.81988 0.67023 0.0
H694 H 0.30011 0.63014 0.6464 0.0
H695 H 0.36993 0.72817 0.64895 0.0
H696 H 0.38088 0.87374 0.67579 0.0
H697 H 0.40675 0.8089 0.66751 0.0
H698 H 1.00843 0.58739 0.67728 0.0
H699 H 0.03512 0.52668 0.66722 0.0
H700 H 0.02945 0.70185 0.67621 0.0
H701 H 0.10236 0.79519 0.68184 0.0
C702 C 0.436 0.11099 0.85147 0.0
C703 C 0.43269 0.17721 0.84551 0.0
C704 C 0.51997 0.18665 0.82369 0.0
C705 C 0.53652 0.13301 0.83167 0.0
N706 N 0.51249 0.04497 0.85356 0.0
N707 N 0.48287 0.28572 0.82685 0.0
C708 C 0.49424 0.09438 0.84557 0.0
C709 C 0.47663 0.21648 0.83167 0.0
N710 N 0.383 0.06367 0.8626 0.0
N711 N 0.54738 0.21008 0.80855 0.0
H712 H 0.4573 0.31352 0.83291 0.0
H713 H 0.52051 0.31991 0.81778 0.0
H714 H 0.57873 0.18808 0.8025 0.0
H715 H 0.53176 0.24407 0.80153 0.0
H716 H 0.37854 1.01123 0.86643 0.0
H717 H 0.33834 0.07303 0.86678 0.0
H718 H 0.48989 0.0216 0.86476 0.0
H719 H 0.55424 0.03138 0.84936 0.0
C720 C 0.58522 0.73165 0.85263 0.0
C721 C 0.59292 0.73837 0.83571 0.0
C722 C 0.49991 0.59814 0.83292 0.0
C723 C 0.48916 0.59258 0.84968 0.0
N724 N 0.53849 0.64526 0.87569 0.0
N725 N 0.57601 0.67505 0.81021 0.0
C726 C 0.53808 0.65657 0.8596 0.0
C727 C 0.5564 0.67028 0.826 0.0
N728 N 0.61841 0.79724 0.86196 0.0
N729 N 0.45317 0.53483 0.82365 0.0
H730 H 0.61797 0.72711 0.80495 0.0
H731 H 0.55618 0.62671 0.80272 0.0
H732 H 0.41419 0.48068 0.82864 0.0
H733 H 0.45079 0.53654 0.81122 0.0
H734 H 0.60726 0.79684 0.87414 0.0
H735 H 0.65335 0.8532 0.85735 0.0
H736 H 0.57803 0.68755 0.88352 0.0
H737 H 0.50475 0.59049 0.8809 0.0
C738 C 0.78843 0.43699 0.01037 0.0
C739 C 0.8675 0.46348 0.01442 0.0
C740 C 0.90122 0.59848 0.00803 0.0
C741 C 0.82379 0.57076 1.00233 0.0
N742 N 0.69317 0.46422 0.99757 0.0
N743 N 1.00045 0.56678 0.01686 0.0
C744 C 0.76693 0.49012 1.00351 0.0
C745 C 0.92416 0.54378 0.01333 0.0
N746 N 0.73421 0.36074 0.01323 0.0
N747 N 0.95227 0.67711 0.00849 0.0
H748 H 1.01807 0.52808 0.02117 0.0
H749 H 0.04682 0.62274 0.01481 0.0
H750 H 0.9374 0.7183 1.00446 0.0
H751 H 1.00733 0.70214 0.01382 0.0
H752 H 0.67414 0.33793 0.01198 0.0
H753 H 0.74943 0.32099 0.018 0.0
H754 H 0.65121 0.40553 0.99645 0.0
H755 H 0.67452 0.50162 0.99297 0.0
C756 C 0.4061 0.91669 0.17347 0.0
C757 C 0.40779 0.86137 0.18414 0.0
C758 C 0.26453 0.78564 0.18338 0.0
C759 C 0.2637 0.83266 0.17062 0.0
N760 N 0.33362 0.94248 0.15297 0.0
N761 N 0.3389 0.73741 0.19772 0.0
C762 C 0.33436 0.89918 0.1657 0.0
C763 C 0.33696 0.79464 0.18882 0.0
N764 N 0.47367 0.98459 0.17041 0.0
N765 N 0.19561 0.7318 0.19018 0.0
H766 H 0.39063 0.7419 0.20209 0.0
H767 H 0.28973 0.68325 0.19985 0.0
H768 H 0.14162 0.72454 0.18647 0.0
H769 H 0.19271 0.70051 0.20047 0.0
H770 H 0.47565 0.03084 0.16396 0.0
H771 H 0.52743 0.99689 0.17531 0.0
H772 H 0.384 0.9861 0.14757 0.0
H773 H 0.28221 0.93189 0.14717 0.0
C774 C 0.50853 0.3634 0.35603 0.0
C775 C 0.54708 0.42971 0.34592 0.0
C776 C 0.46213 0.35487 0.32349 0.0
C777 C 0.42807 0.2869 0.33326 0.0
N778 N 0.40272 0.2297 0.3595 0.0
N779 N 0.55196 0.49517 0.32143 0.0
C780 C 0.44558 0.29264 0.34984 0.0
C781 C 0.52019 0.42759 0.33011 0.0
N782 N 0.53536 0.36745 0.3713 0.0
N783 N 0.44123 0.34837 0.30771 0.0
H784 H 0.5955 0.54816 0.3261 0.0
H785 H 0.5326 0.50026 0.31013 0.0
H786 H 0.39632 0.29662 0.30288 0.0
H787 H 0.46857 0.3929 0.29934 0.0
H788 H 0.51584 0.31984 0.37898 0.0
H789 H 0.58041 0.41892 0.37615 0.0
H790 H 0.40784 0.23094 0.37191 0.0
H791 H 0.35688 0.17734 0.35514 0.0
C792 C 0.12963 0.52813 0.49675 0.0
C793 C 0.15276 0.55205 0.51274 0.0
C794 C 0.20387 0.46117 0.51524 0.0
C795 C 0.18665 0.44207 0.49882 0.0
N796 N 0.11889 0.44228 0.47478 0.0
N797 N 0.19959 0.53517 0.53815 0.0
C798 C 0.14419 0.47033 0.48987 0.0
C799 C 0.1851 0.51551 0.52234 0.0
N800 N 0.09798 0.56446 0.48801 0.0
N801 N 0.24129 0.42973 0.52375 0.0
H802 H 0.18911 0.57724 0.54332 0.0
H803 H 0.21831 0.50816 0.54638 0.0
H804 H 0.2529 0.38755 0.519 0.0
H805 H 0.26206 0.44543 0.53538 0.0
H806 H 0.08625 0.55628 0.47581 0.0
H807 H 0.08556 0.60558 0.49305 0.0
H808 H 0.08314 0.45596 0.46788 0.0
H809 H 0.12955 0.40052 0.46948 0.0
C810 C 0.63803 0.12404 0.67362 0.0
C811 C 0.63218 0.18162 0.68276 0.0
C812 C 0.76815 0.27708 0.67617 0.0
C813 C 0.77588 0.21828 0.66799 0.0
N814 N 0.72361 0.0819 0.66175 0.0
N815 N 0.69845 0.30674 0.6961 0.0
C816 C 0.71247 0.14033 0.66765 0.0
C817 C 0.69965 0.25597 0.68516 0.0
N818 N 0.57202 0.05595 0.66975 0.0
N819 N 0.82391 0.35403 0.6746 0.0
H820 H 0.64935 0.29414 0.70287 0.0
H821 H 0.7484 0.35795 0.69959 0.0
H822 H 0.87398 0.37315 0.66764 0.0
H823 H 0.81663 0.39974 0.67886 0.0
H824 H 0.57162 0.01533 0.66173 0.0
H825 H 0.51637 0.04303 0.67346 0.0
H826 H 0.68175 0.02294 0.66258 0.0
H827 H 0.77742 0.09199 0.65735 0.0
C828 C 0.85754 0.44068 0.10091 0.0
C829 C 0.9029 0.52181 0.09767 0.0
C830 C 0.95705 0.49323 0.07375 0.0
C831 C 0.91783 0.41133 0.07775 0.0
N832 N 0.83466 0.30904 0.09613 0.0
N833 N 0.97467 0.62298 0.0787 0.0
C834 C 0.86756 0.38534 0.0914 0.0
C835 C 0.94647 0.5471 0.08341 0.0
N836 N 0.80438 0.41679 0.11306 0.0
N837 N 1.00696 0.52119 0.061 0.0
H838 H 0.9656 0.66257 0.08537 0.0
H839 H 0.99924 0.64485 0.06756 0.0
H840 H 1.01088 0.48684 0.05208 0.0
H841 H 0.04764 0.57999 0.0594 0.0
H842 H 0.76367 0.35873 0.1154 0.0
H843 H 0.79667 0.45615 0.12009 0.0
H844 H 0.80285 0.28708 0.10661 0.0
H845 H 0.84375 0.26772 0.09023 0.0
C846 C 0.55674 0.9379 0.26416 0.0
C847 C 0.53129 0.8993 0.24938 0.0
C848 C 0.39584 0.86953 0.25568 0.0
C849 C 0.42336 0.91783 0.26962 0.0
N850 N 0.53576 1.00166 0.28646 0.0
N851 N 0.42669 0.82178 0.23137 0.0
C852 C 0.50524 0.95256 0.27368 0.0
C853 C 0.45049 0.86208 0.2454 0.0
N854 N 0.63042 0.95832 0.26942 0.0
N855 N 0.31794 0.83255 0.25191 0.0
H856 H 0.46369 0.80923 0.22466 0.0
H857 H 0.37173 0.80201 0.22632 0.0
H858 H 0.27767 0.84389 0.25761 0.0
H859 H 0.29192 0.78886 0.24333 0.0
H860 H 0.65059 0.97806 0.28096 0.0
H861 H 0.66859 0.94705 0.26276 0.0
H862 H 0.59545 0.03949 0.28807 0.0
H863 H 0.50251 1.00672 0.29538 0.0
C864 C 0.59275 0.42542 0.43431 0.0
C865 C 0.5113 0.38945 0.43089 0.0
C866 C 0.54086 0.47044 0.40666 0.0
C867 C 0.62289 0.51344 0.41073 0.0
N868 N 0.72365 0.53504 0.43001 0.0
N869 N 0.41135 0.35902 0.41136 0.0
C870 C 0.6482 0.49051 0.42481 0.0
C871 C 0.48673 0.40693 0.41637 0.0
N872 N 0.61727 0.39626 0.44648 0.0
N873 N 0.5128 0.49138 0.39373 0.0
H874 H 0.37123 0.3111 0.41804 0.0
H875 H 0.39067 0.36081 0.39997 0.0
H876 H 0.54783 0.52688 0.38469 0.0
H877 H 0.45401 0.47443 0.39206 0.0
H878 H 0.67572 0.41392 0.44883 0.0
H879 H 0.57835 0.34847 0.45331 0.0
H880 H 0.74374 0.52757 0.44105 0.0
H881 H 0.76522 0.58446 0.42399 0.0
C882 C 0.09922 0.53635 0.57296 0.0
C883 C 0.12837 0.61628 0.57776 0.0
C884 C 0.18036 0.58737 0.60246 0.0
C885 C 0.14715 0.50801 0.59787 0.0
N886 N 0.10273 0.41545 0.5766 0.0
N887 N 0.18826 0.71359 0.59856 0.0
C888 C 0.11484 0.4853 0.58248 0.0
C889 C 0.16829 0.64111 0.59279 0.0
N890 N 0.05324 0.50673 0.55968 0.0
N891 N 0.22576 0.6115 0.6159 0.0
H892 H 0.17681 0.75304 0.59246 0.0
H893 H 0.20979 0.73261 0.61005 0.0
H894 H 0.23749 0.5733 0.62247 0.0
H895 H 0.25813 0.66949 0.61953 0.0
H896 H 0.02064 0.44716 0.55723 0.0
H897 H 0.0434 0.53993 0.55143 0.0
H898 H 0.08738 0.39778 0.56477 0.0
H899 H 0.11821 0.3798 0.58312 0.0
C900 C 0.59001 0.16208 0.74398 0.0
C901 C 0.51078 0.13206 0.74859 0.0
C902 C 0.53619 0.07865 0.77305 0.0
C903 C 0.61629 0.10595 0.76842 0.0
N904 N 0.71697 0.17067 0.74859 0.0
N905 N 0.41775 0.08772 0.76973 0.0
C906 C 0.64295 0.14849 0.75376 0.0
C907 C 0.48726 0.09876 0.76384 0.0
N908 N 0.61446 0.20525 0.7303 0.0
N909 N 0.50366 0.02904 0.78567 0.0
H910 H 0.38198 0.10325 0.76324 0.0
H911 H 0.40034 0.07262 0.78157 0.0
H912 H 0.53322 1.00976 0.79287 0.0
H913 H 0.44397 0.99977 0.78812 0.0
H914 H 0.67159 0.2329 0.72612 0.0
H915 H 0.57722 0.21855 0.72377 0.0
H916 H 0.73968 0.19707 0.73764 0.0
H917 H 0.75562 0.15872 0.75491 0.0
C918 C 0.48473 0.62867 0.92284 0.0
C919 C 0.50489 0.6034 0.93731 0.0
C920 C 0.39626 0.46889 0.93189 0.0
C921 C 0.38231 0.49258 0.91693 0.0
N922 N 0.39596 0.59658 0.89993 0.0
N923 N 0.48096 0.49328 0.95443 0.0
C924 C 0.42111 0.57321 0.913 0.0
C925 C 0.46064 0.52198 0.94151 0.0
N926 N 0.53059 0.70388 0.91771 0.0
N927 N 0.3442 0.39591 0.93737 0.0
H928 H 0.51957 0.52766 0.96322 0.0
H929 H 0.46088 0.43397 0.95621 0.0
H930 H 0.29424 0.35793 0.93089 0.0
H931 H 0.34458 0.37685 0.94899 0.0
H932 H 0.5236 0.72502 0.90677 0.0
H933 H 0.58047 0.74481 0.92374 0.0
H934 H 0.41554 0.65459 0.89691 0.0
H935 H 0.34997 0.55709 0.89273 0.0
loop_
_geom_bond_atom_site_label_1
_geom_bond_atom_site_label_2
_geom_bond_distance
_geom_bond_site_symmetry_2
_ccdc_geom_bond_type
Co0 N4 2.148 . S
Co0 N10 2.128 1_655 S
Co0 N20 2.194 1_655 S
Co0 O25 2.351 1_655 S
Co0 O26 2.155 . S
Co0 O27 2.096 . S
C1 N4 1.301 . S
C1 N5 1.328 . S
C1 H6 0.930 . S
C2 C3 1.333 . S
C2 N4 1.317 . S
C2 H7 0.930 . S
C3 C2 1.333 . S
C3 N5 1.350 . S
C3 H29 0.931 1_554 S
N4 Co0 2.148 . S
N4 C1 1.301 . S
N4 C2 1.317 . S
N5 C1 1.328 . S
N5 C3 1.350 . S
H6 C1 0.930 . S
H7 C2 0.930 . S
C8 O9 1.224 . S
C8 O27 1.247 . S
O9 C8 1.224 . S
N10 Co0 2.128 1_455 S
N10 C11 1.355 . S
N10 C13 1.311 1_455 S
C11 N10 1.355 . S
C11 C12 1.363 . S
C11 H23 0.929 . S
C12 C11 1.363 . S
C12 N14 1.375 . S
C12 H30 0.931 . S
C13 N10 1.311 1_655 S
C13 N14 1.347 1_655 S
C13 H24 0.929 . S
N14 C12 1.375 . S
N14 C13 1.347 1_455 S
C15 C18 1.365 . S
C15 N20 1.328 . S
C15 H21 0.929 . S
C16 C17 1.362 . S
C16 C19 1.378 . S
C16 H31 0.957 . S
C17 C16 1.362 . S
C17 C18 1.366 . S
C18 C15 1.365 . S
C18 C17 1.366 . S
C18 H32 0.930 . S
C19 C16 1.378 . S
C19 N20 1.315 . S
C19 H22 0.930 . S
N20 Co0 2.194 1_455 S
N20 C15 1.328 . S
N20 C19 1.315 . S
H21 C15 0.929 . S
H22 C19 0.930 . S
H23 C11 0.929 . S
H24 C13 0.929 . S
O25 Co0 2.351 1_455 S
O25 C28 1.244 1_455 S
O26 Co0 2.155 . S
O26 C28 1.240 . S
O27 Co0 2.096 . S
O27 C8 1.247 . S
C28 O25 1.244 1_655 S
C28 O26 1.240 . S
H29 C3 0.931 1_556 S
H30 C12 0.931 . S
H31 C16 0.957 . S
H32 C18 0.930 . S
Co33 N37 2.148 . S
Co33 N43 2.128 1_565 S
Co33 N53 2.194 1_565 S
Co33 O58 2.351 1_565 S
Co33 O59 2.155 . S
Co33 O60 2.096 . S
C34 N37 1.301 . S
C34 N38 1.328 . S
C34 H39 0.930 . S
C35 C36 1.333 . S
C35 N37 1.317 . S
C35 H40 0.930 . S
C36 C35 1.333 . S
C36 N38 1.350 . S
C36 H62 0.931 . S
N37 Co33 2.148 . S
N37 C34 1.301 . S
N37 C35 1.317 . S
N38 C34 1.328 . S
N38 C36 1.350 . S
H39 C34 0.930 . S
H40 C35 0.930 . S
C41 O42 1.224 . S
C41 O60 1.247 . S
O42 C41 1.224 . S
N43 Co33 2.128 1_545 S
N43 C44 1.355 . S
N43 C46 1.311 1_545 S
C44 N43 1.355 . S
C44 C45 1.363 . S
C44 H56 0.929 . S
C45 C44 1.363 . S
C45 N47 1.375 . S
C45 H63 0.931 . S
C46 N43 1.311 1_565 S
C46 N47 1.347 1_565 S
C46 H57 0.929 . S
N47 C45 1.375 . S
N47 C46 1.347 1_545 S
C48 C51 1.365 . S
C48 N53 1.328 . S
C48 H54 0.929 . S
C49 C50 1.362 . S
C49 C52 1.378 . S
C49 H64 0.929 . S
C50 C49 1.362 . S
C50 C51 1.366 . S
C51 C48 1.365 . S
C51 C50 1.366 . S
C51 H65 0.930 . S
C52 C49 1.378 . S
C52 N53 1.315 . S
C52 H55 0.930 . S
N53 Co33 2.194 1_545 S
N53 C48 1.328 . S
N53 C52 1.315 . S
H54 C48 0.929 . S
H55 C52 0.930 . S
H56 C44 0.929 . S
H57 C46 0.929 . S
O58 Co33 2.351 1_545 S
O58 C61 1.244 1_545 S
O59 Co33 2.155 . S
O59 C61 1.240 . S
O60 Co33 2.096 . S
O60 C41 1.247 . S
C61 O58 1.244 1_565 S
C61 O59 1.240 . S
H62 C36 0.931 . S
H63 C45 0.931 . S
H64 C49 0.929 . S
H65 C51 0.930 . S
Co66 N70 2.148 . S
Co66 N76 2.128 . S
Co66 N86 2.194 . S
Co66 O91 2.351 . S
Co66 O92 2.155 . S
Co66 O93 2.096 . S
C67 N70 1.301 . S
C67 N71 1.328 . S
C67 H72 0.930 . S
C68 C69 1.333 . S
C68 N70 1.317 . S
C68 H73 0.930 . S
C69 C68 1.333 . S
C69 N71 1.350 . S
C69 H95 0.931 . S
N70 Co66 2.148 . S
N70 C67 1.301 . S
N70 C68 1.317 . S
N71 C67 1.328 . S
N71 C69 1.350 . S
H72 C67 0.930 . S
H73 C68 0.930 . S
C74 O75 1.224 . S
C74 O93 1.247 . S
O75 C74 1.224 . S
N76 Co66 2.128 . S
N76 C77 1.355 . S
N76 C79 1.311 . S
C77 N76 1.355 . S
C77 C78 1.363 . S
C77 H89 0.929 . S
C78 C77 1.363 . S
C78 N80 1.375 . S
C78 H96 0.931 . S
C79 N76 1.311 . S
C79 N80 1.347 . S
C79 H90 0.929 . S
N80 C78 1.375 . S
N80 C79 1.347 . S
C81 C84 1.365 . S
C81 N86 1.328 . S
C81 H87 0.929 . S
C82 C83 1.362 . S
C82 C85 1.378 . S
C82 H97 0.929 . S
C83 C82 1.362 . S
C83 C84 1.366 . S
C84 C81 1.365 . S
C84 C83 1.366 . S
C84 H98 0.930 . S
C85 C82 1.378 . S
C85 N86 1.315 . S
C85 H88 0.930 . S
N86 Co66 2.194 . S
N86 C81 1.328 . S
N86 C85 1.315 . S
H87 C81 0.929 . S
H88 C85 0.930 . S
H89 C77 0.929 . S
H90 C79 0.929 . S
O91 Co66 2.351 . S
O91 C94 1.244 . S
O92 Co66 2.155 . S
O92 C94 1.240 . S
O93 Co66 2.096 . S
O93 C74 1.247 . S
C94 O91 1.244 . S
C94 O92 1.240 . S
H95 C69 0.931 . S
H96 C78 0.931 . S
H97 C82 0.929 . S
H98 C84 0.930 . S
Co99 N103 2.148 . S
Co99 N109 2.128 1_455 S
Co99 N119 2.194 1_455 S
Co99 O124 2.351 1_455 S
Co99 O125 2.155 . S
Co99 O126 2.096 . S
C100 N103 1.301 . S
C100 N104 1.328 . S
C100 H105 0.930 . S
C101 C102 1.333 . S
C101 N103 1.317 . S
C101 H106 0.930 . S
C102 C101 1.333 . S
C102 N104 1.350 . S
C102 H128 0.931 . S
N103 Co99 2.148 . S
N103 C100 1.301 . S
N103 C101 1.317 . S
N104 C100 1.328 . S
N104 C102 1.350 . S
H105 C100 0.930 . S
H106 C101 0.930 . S
C107 O108 1.224 . S
C107 O126 1.247 . S
O108 C107 1.224 . S
N109 Co99 2.128 1_655 S
N109 C110 1.355 . S
N109 C112 1.311 1_655 S
C110 N109 1.355 . S
C110 C111 1.363 . S
C110 H122 0.929 . S
C111 C110 1.363 . S
C111 N113 1.375 . S
C111 H129 0.931 . S
C112 N109 1.311 1_455 S
C112 N113 1.347 1_455 S
C112 H123 0.929 . S
N113 C111 1.375 . S
N113 C112 1.347 1_655 S
C114 C117 1.365 . S
C114 N119 1.328 . S
C114 H120 0.929 . S
C115 C116 1.362 . S
C115 C118 1.378 . S
C115 H130 0.929 . S
C116 C115 1.362 . S
C116 C117 1.366 . S
C117 C114 1.365 . S
C117 C116 1.366 . S
C117 H131 0.930 . S
C118 C115 1.378 . S
C118 N119 1.315 . S
C118 H121 0.930 . S
N119 Co99 2.194 1_655 S
N119 C114 1.328 . S
N119 C118 1.315 . S
H120 C114 0.929 . S
H121 C118 0.930 . S
H122 C110 0.929 . S
H123 C112 0.929 . S
O124 Co99 2.351 1_655 S
O124 C127 1.244 1_655 S
O125 Co99 2.155 . S
O125 C127 1.240 . S
O126 Co99 2.096 . S
O126 C107 1.247 . S
C127 O124 1.244 1_455 S
C127 O125 1.240 . S
H128 C102 0.931 . S
H129 C111 0.931 . S
H130 C115 0.929 . S
H131 C117 0.930 . S
Co132 N136 2.148 . S
Co132 N142 2.128 1_545 S
Co132 N152 2.194 1_545 S
Co132 O157 2.351 1_545 S
Co132 O158 2.155 . S
Co132 O159 2.096 . S
C133 N136 1.301 . S
C133 N137 1.328 . S
C133 H138 0.930 . S
C134 C135 1.333 . S
C134 N136 1.317 . S
C134 H139 0.930 . S
C135 C134 1.333 . S
C135 N137 1.350 . S
C135 H161 0.931 . S
N136 Co132 2.148 . S
N136 C133 1.301 . S
N136 C134 1.317 . S
N137 C133 1.328 . S
N137 C135 1.350 . S
H138 C133 0.930 . S
H139 C134 0.930 . S
C140 O141 1.224 . S
C140 O159 1.247 . S
O141 C140 1.224 . S
N142 Co132 2.128 1_565 S
N142 C143 1.355 . S
N142 C145 1.311 1_565 S
C143 N142 1.355 . S
C143 C144 1.363 . S
C143 H155 0.929 . S
C144 C143 1.363 . S
C144 N146 1.375 . S
C144 H162 0.931 . S
C145 N142 1.311 1_545 S
C145 N146 1.347 1_545 S
C145 H156 0.929 . S
N146 C144 1.375 . S
N146 C145 1.347 1_565 S
C147 C150 1.365 . S
C147 N152 1.328 . S
C147 H153 0.929 . S
C148 C149 1.362 . S
C148 C151 1.378 . S
C148 H163 0.929 . S
C149 C148 1.362 . S
C149 C150 1.366 . S
C150 C147 1.365 . S
C150 C149 1.366 . S
C150 H164 0.930 . S
C151 C148 1.378 . S
C151 N152 1.315 . S
C151 H154 0.930 . S
N152 Co132 2.194 1_565 S
N152 C147 1.328 . S
N152 C151 1.315 . S
H153 C147 0.929 . S
H154 C151 0.930 . S
H155 C143 0.929 . S
H156 C145 0.929 . S
O157 Co132 2.351 1_565 S
O157 C160 1.244 1_565 S
O158 Co132 2.155 . S
O158 C160 1.240 . S
O159 Co132 2.096 . S
O159 C140 1.247 . S
C160 O157 1.244 1_545 S
C160 O158 1.240 . S
H161 C135 0.931 . S
H162 C144 0.931 . S
H163 C148 0.929 . S
H164 C150 0.930 . S
Co165 N169 2.148 . S
Co165 N175 2.128 . S
Co165 N185 2.194 . S
Co165 O190 2.351 . S
Co165 O191 2.155 . S
Co165 O192 2.096 . S
C166 N169 1.301 . S
C166 N170 1.328 . S
C166 H171 0.930 . S
C167 C168 1.333 . S
C167 N169 1.317 . S
C167 H172 0.930 . S
C168 C167 1.333 . S
C168 N170 1.350 . S
C168 H194 0.931 . S
N169 Co165 2.148 . S
N169 C166 1.301 . S
N169 C167 1.317 . S
N170 C166 1.328 . S
N170 C168 1.350 . S
H171 C166 0.930 . S
H172 C167 0.930 . S
C173 O174 1.224 . S
C173 O192 1.247 . S
O174 C173 1.224 . S
N175 Co165 2.128 . S
N175 C176 1.355 . S
N175 C178 1.311 . S
C176 N175 1.355 . S
C176 C177 1.363 . S
C176 H188 0.929 . S
C177 C176 1.363 . S
C177 N179 1.375 . S
C177 H195 0.931 . S
C178 N175 1.311 . S
C178 N179 1.347 . S
C178 H189 0.929 . S
N179 C177 1.375 . S
N179 C178 1.347 . S
C180 C183 1.365 . S
C180 N185 1.328 . S
C180 H186 0.929 . S
C181 C182 1.362 . S
C181 C184 1.378 . S
C181 H196 0.929 . S
C182 C181 1.362 . S
C182 C183 1.366 . S
C183 C180 1.365 . S
C183 C182 1.366 . S
C183 H197 0.930 . S
C184 C181 1.378 . S
C184 N185 1.315 . S
C184 H187 0.930 . S
N185 Co165 2.194 . S
N185 C180 1.328 . S
N185 C184 1.315 . S
H186 C180 0.929 . S
H187 C184 0.930 . S
H188 C176 0.929 . S
H189 C178 0.929 . S
O190 Co165 2.351 . S
O190 C193 1.244 . S
O191 Co165 2.155 . S
O191 C193 1.240 . S
O192 Co165 2.096 . S
O192 C173 1.247 . S
C193 O190 1.244 . S
C193 O191 1.240 . S
H194 C168 0.931 . S
H195 C177 0.931 . S
H196 C181 0.929 . S
H197 C183 0.930 . S
Co198 N202 2.148 . S
Co198 N208 2.128 1_545 S
Co198 N218 2.194 1_545 S
Co198 O223 2.351 1_545 S
Co198 O224 2.155 . S
Co198 O225 2.096 . S
C199 N202 1.301 . S
C199 N203 1.328 . S
C199 H204 0.930 . S
C200 C201 1.333 . S
C200 N202 1.317 . S
C200 H205 0.930 . S
C201 C200 1.333 . S
C201 N203 1.350 . S
C201 H227 0.931 . S
N202 Co198 2.148 . S
N202 C199 1.301 . S
N202 C200 1.317 . S
N203 C199 1.328 . S
N203 C201 1.350 . S
H204 C199 0.930 . S
H205 C200 0.930 . S
C206 O207 1.224 . S
C206 O225 1.247 . S
O207 C206 1.224 . S
N208 Co198 2.128 1_565 S
N208 C209 1.355 . S
N208 C211 1.311 1_565 S
C209 N208 1.355 . S
C209 C210 1.363 . S
C209 H221 0.929 . S
C210 C209 1.363 . S
C210 N212 1.375 . S
C210 H228 0.931 . S
C211 N208 1.311 1_545 S
C211 N212 1.347 1_545 S
C211 H222 0.929 . S
N212 C210 1.375 . S
N212 C211 1.347 1_565 S
C213 C216 1.365 . S
C213 N218 1.328 . S
C213 H219 0.929 . S
C214 C215 1.362 . S
C214 C217 1.378 . S
C214 H229 0.929 . S
C215 C214 1.362 . S
C215 C216 1.366 . S
C216 C213 1.365 . S
C216 C215 1.366 . S
C216 H230 0.930 . S
C217 C214 1.378 . S
C217 N218 1.315 . S
C217 H220 0.930 . S
N218 Co198 2.194 1_565 S
N218 C213 1.328 . S
N218 C217 1.315 . S
H219 C213 0.929 . S
H220 C217 0.930 . S
H221 C209 0.929 . S
H222 C211 0.929 . S
O223 Co198 2.351 1_565 S
O223 C226 1.244 1_565 S
O224 Co198 2.155 . S
O224 C226 1.240 . S
O225 Co198 2.096 . S
O225 C206 1.247 . S
C226 O223 1.244 1_545 S
C226 O224 1.240 . S
H227 C201 0.931 . S
H228 C210 0.931 . S
H229 C214 0.929 . S
H230 C216 0.930 . S
Co231 N235 2.148 . S
Co231 N241 2.128 . S
Co231 N251 2.194 . S
Co231 O256 2.351 . S
Co231 O257 2.155 . S
Co231 O258 2.096 . S
C232 N235 1.301 . S
C232 N236 1.328 . S
C232 H237 0.930 . S
C233 C234 1.333 . S
C233 N235 1.317 . S
C233 H238 0.930 . S
C234 C233 1.333 . S
C234 N236 1.350 . S
C234 H260 0.931 1_556 S
N235 Co231 2.148 . S
N235 C232 1.301 . S
N235 C233 1.317 . S
N236 C232 1.328 . S
N236 C234 1.350 . S
H237 C232 0.930 . S
H238 C233 0.930 . S
C239 O240 1.224 . S
C239 O258 1.247 . S
O240 C239 1.224 . S
N241 Co231 2.128 . S
N241 C242 1.355 . S
N241 C244 1.311 . S
C242 N241 1.355 . S
C242 C243 1.363 . S
C242 H254 0.929 . S
C243 C242 1.363 . S
C243 N245 1.375 . S
C243 H261 0.931 . S
C244 N241 1.311 . S
C244 N245 1.347 . S
C244 H255 0.929 . S
N245 C243 1.375 . S
N245 C244 1.347 . S
C246 C249 1.365 . S
C246 N251 1.328 . S
C246 H252 0.929 . S
C247 C248 1.362 . S
C247 C250 1.378 . S
C247 H262 0.984 . S
C248 C247 1.362 . S
C248 C249 1.366 . S
C249 C246 1.365 . S
C249 C248 1.366 . S
C249 H263 0.930 . S
C250 C247 1.378 . S
C250 N251 1.315 . S
C250 H253 0.930 . S
N251 Co231 2.194 . S
N251 C246 1.328 . S
N251 C250 1.315 . S
H252 C246 0.929 . S
H253 C250 0.930 . S
H254 C242 0.929 . S
H255 C244 0.929 . S
O256 Co231 2.351 . S
O256 C259 1.244 . S
O257 Co231 2.155 . S
O257 C259 1.240 . S
O258 Co231 2.096 . S
O258 C239 1.247 . S
C259 O256 1.244 . S
C259 O257 1.240 . S
H260 C234 0.931 1_554 S
H261 C243 0.931 . S
H262 C247 0.984 . S
H263 C249 0.930 . S
Co264 N268 2.148 . S
Co264 N274 2.128 1_655 S
Co264 N284 2.194 1_655 S
Co264 O289 2.351 1_655 S
Co264 O290 2.155 . S
Co264 O291 2.096 . S
C265 N268 1.301 . S
C265 N269 1.328 . S
C265 H270 0.930 . S
C266 C267 1.333 . S
C266 N268 1.317 . S
C266 H271 0.930 . S
C267 C266 1.333 . S
C267 N269 1.350 . S
C267 H293 0.931 . S
N268 Co264 2.148 . S
N268 C265 1.301 . S
N268 C266 1.317 . S
N269 C265 1.328 . S
N269 C267 1.350 . S
H270 C265 0.930 . S
H271 C266 0.930 . S
C272 O273 1.224 . S
C272 O291 1.247 . S
O273 C272 1.224 . S
N274 Co264 2.128 1_455 S
N274 C275 1.355 . S
N274 C277 1.311 1_455 S
C275 N274 1.355 . S
C275 C276 1.363 . S
C275 H287 0.929 . S
C276 C275 1.363 . S
C276 N278 1.375 . S
C276 H294 0.931 . S
C277 N274 1.311 1_655 S
C277 N278 1.347 1_655 S
C277 H288 0.929 . S
N278 C276 1.375 . S
N278 C277 1.347 1_455 S
C279 C282 1.365 . S
C279 N284 1.328 . S
C279 H285 0.929 . S
C280 C281 1.362 . S
C280 C283 1.378 . S
C280 H295 0.929 . S
C281 C280 1.362 . S
C281 C282 1.366 . S
C282 C279 1.365 . S
C282 C281 1.366 . S
C282 H296 0.930 . S
C283 C280 1.378 . S
C283 N284 1.315 . S
C283 H286 0.930 . S
N284 Co264 2.194 1_455 S
N284 C279 1.328 . S
N284 C283 1.315 . S
H285 C279 0.929 . S
H286 C283 0.930 . S
H287 C275 0.929 . S
H288 C277 0.929 . S
O289 Co264 2.351 1_455 S
O289 C292 1.244 1_455 S
O290 Co264 2.155 . S
O290 C292 1.240 . S
O291 Co264 2.096 . S
O291 C272 1.247 . S
C292 O289 1.244 1_655 S
C292 O290 1.240 . S
H293 C267 0.931 . S
H294 C276 0.931 . S
H295 C280 0.929 . S
H296 C282 0.930 . S
Co297 N301 2.148 . S
Co297 N307 2.128 1_565 S
Co297 N317 2.194 1_565 S
Co297 O322 2.351 1_565 S
Co297 O323 2.155 . S
Co297 O324 2.096 . S
C298 N301 1.301 . S
C298 N302 1.328 . S
C298 H303 0.930 . S
C299 C300 1.333 . S
C299 N301 1.317 . S
C299 H304 0.930 . S
C300 C299 1.333 . S
C300 N302 1.350 . S
C300 H326 0.931 . S
N301 Co297 2.148 . S
N301 C298 1.301 . S
N301 C299 1.317 . S
N302 C298 1.328 . S
N302 C300 1.350 . S
H303 C298 0.930 . S
H304 C299 0.930 . S
C305 O306 1.224 . S
C305 O324 1.247 . S
O306 C305 1.224 . S
N307 Co297 2.128 1_545 S
N307 C308 1.355 . S
N307 C310 1.311 1_545 S
C308 N307 1.355 . S
C308 C309 1.363 . S
C308 H320 0.929 . S
C309 C308 1.363 . S
C309 N311 1.375 . S
C309 H327 0.931 . S
C310 N307 1.311 1_565 S
C310 N311 1.347 1_565 S
C310 H321 0.929 . S
N311 C309 1.375 . S
N311 C310 1.347 1_545 S
C312 C315 1.365 . S
C312 N317 1.328 . S
C312 H318 0.929 . S
C313 C314 1.362 . S
C313 C316 1.378 . S
C313 H328 0.929 . S
C314 C313 1.362 . S
C314 C315 1.366 . S
C315 C312 1.365 . S
C315 C314 1.366 . S
C315 H329 0.930 . S
C316 C313 1.378 . S
C316 N317 1.315 . S
C316 H319 0.930 . S
N317 Co297 2.194 1_545 S
N317 C312 1.328 . S
N317 C316 1.315 . S
H318 C312 0.929 . S
H319 C316 0.930 . S
H320 C308 0.929 . S
H321 C310 0.929 . S
O322 Co297 2.351 1_545 S
O322 C325 1.244 1_545 S
O323 Co297 2.155 . S
O323 C325 1.240 . S
O324 Co297 2.096 . S
O324 C305 1.247 . S
C325 O322 1.244 1_565 S
C325 O323 1.240 . S
H326 C300 0.931 . S
H327 C309 0.931 . S
H328 C313 0.929 . S
H329 C315 0.930 . S
Co330 N334 2.148 . S
Co330 N340 2.128 . S
Co330 N350 2.194 . S
Co330 O355 2.351 . S
Co330 O356 2.155 . S
Co330 O357 2.096 . S
C331 N334 1.301 . S
C331 N335 1.328 . S
C331 H336 0.930 . S
C332 C333 1.333 . S
C332 N334 1.317 . S
C332 H337 0.930 . S
C333 C332 1.333 . S
C333 N335 1.350 . S
C333 H359 0.931 . S
N334 Co330 2.148 . S
N334 C331 1.301 . S
N334 C332 1.317 . S
N335 C331 1.328 . S
N335 C333 1.350 . S
H336 C331 0.930 . S
H337 C332 0.930 . S
C338 O339 1.224 . S
C338 O357 1.247 . S
O339 C338 1.224 . S
N340 Co330 2.128 . S
N340 C341 1.355 . S
N340 C343 1.311 . S
C341 N340 1.355 . S
C341 C342 1.363 . S
C341 H353 0.929 . S
C342 C341 1.363 . S
C342 N344 1.375 . S
C342 H360 0.931 . S
C343 N340 1.311 . S
C343 N344 1.347 . S
C343 H354 0.929 . S
N344 C342 1.375 . S
N344 C343 1.347 . S
C345 C348 1.365 . S
C345 N350 1.328 . S
C345 H351 0.929 . S
C346 C347 1.362 . S
C346 C349 1.378 . S
C346 H361 0.929 . S
C347 C346 1.362 . S
C347 C348 1.366 . S
C348 C345 1.365 . S
C348 C347 1.366 . S
C348 H362 0.930 . S
C349 C346 1.378 . S
C349 N350 1.315 . S
C349 H352 0.930 . S
N350 Co330 2.194 . S
N350 C345 1.328 . S
N350 C349 1.315 . S
H351 C345 0.929 . S
H352 C349 0.930 . S
H353 C341 0.929 . S
H354 C343 0.929 . S
O355 Co330 2.351 . S
O355 C358 1.244 . S
O356 Co330 2.155 . S
O356 C358 1.240 . S
O357 Co330 2.096 . S
O357 C338 1.247 . S
C358 O355 1.244 . S
C358 O356 1.240 . S
H359 C333 0.931 . S
H360 C342 0.931 . S
H361 C346 0.929 . S
H362 C348 0.930 . S
Co363 N367 2.148 . S
Co363 N373 2.128 1_455 S
Co363 N383 2.194 1_455 S
Co363 O388 2.351 1_455 S
Co363 O389 2.155 . S
Co363 O390 2.096 . S
C364 N367 1.301 . S
C364 N368 1.328 . S
C364 H369 0.930 . S
C365 C366 1.333 . S
C365 N367 1.317 . S
C365 H370 0.930 . S
C366 C365 1.333 . S
C366 N368 1.350 . S
C366 H392 0.931 . S
N367 Co363 2.148 . S
N367 C364 1.301 . S
N367 C365 1.317 . S
N368 C364 1.328 . S
N368 C366 1.350 . S
H369 C364 0.930 . S
H370 C365 0.930 . S
C371 O372 1.224 . S
C371 O390 1.247 . S
O372 C371 1.224 . S
N373 Co363 2.128 1_655 S
N373 C374 1.355 . S
N373 C376 1.311 1_655 S
C374 N373 1.355 . S
C374 C375 1.363 . S
C374 H386 0.929 . S
C375 C374 1.363 . S
C375 N377 1.375 . S
C375 H393 0.931 . S
C376 N373 1.311 1_455 S
C376 N377 1.347 1_455 S
C376 H387 0.929 . S
N377 C375 1.375 . S
N377 C376 1.347 1_655 S
C378 C381 1.365 . S
C378 N383 1.328 . S
C378 H384 0.929 . S
C379 C380 1.362 . S
C379 C382 1.378 . S
C379 H394 0.929 . S
C380 C379 1.362 . S
C380 C381 1.366 . S
C381 C378 1.365 . S
C381 C380 1.366 . S
C381 H395 0.930 . S
C382 C379 1.378 . S
C382 N383 1.315 . S
C382 H385 0.930 . S
N383 Co363 2.194 1_655 S
N383 C378 1.328 . S
N383 C382 1.315 . S
H384 C378 0.929 . S
H385 C382 0.930 . S
H386 C374 0.929 . S
H387 C376 0.929 . S
O388 Co363 2.351 1_655 S
O388 C391 1.244 1_655 S
O389 Co363 2.155 . S
O389 C391 1.240 . S
O390 Co363 2.096 . S
O390 C371 1.247 . S
C391 O388 1.244 1_455 S
C391 O389 1.240 . S
H392 C366 0.931 . S
H393 C375 0.931 . S
H394 C379 0.929 . S
H395 C381 0.930 . S
C396 C397 1.363 1_554 S
C396 C402 1.379 1_565 S
C396 N404 1.356 . S
C397 C396 1.363 1_556 S
C397 C403 1.363 1_565 S
C398 C399 1.363 1_556 S
C398 C403 1.379 . S
C398 N405 1.356 . S
C399 C398 1.363 1_554 S
C399 C402 1.363 . S
N400 C402 1.356 . S
N400 H412 0.984 1_545 S
N400 H413 0.985 . S
N401 C403 1.356 . S
N401 H406 0.984 1_545 S
N401 H407 0.985 . S
C402 C396 1.379 1_545 S
C402 C399 1.363 . S
C402 N400 1.356 . S
C403 C397 1.363 1_545 S
C403 C398 1.379 . S
C403 N401 1.356 . S
N404 C396 1.356 . S
N404 H410 0.984 . S
N404 H411 0.984 1_554 S
N405 C398 1.356 . S
N405 H408 0.984 1_556 S
N405 H409 0.985 . S
H406 N401 0.984 1_565 S
H407 N401 0.985 . S
H408 N405 0.984 1_554 S
H409 N405 0.985 . S
H410 N404 0.984 . S
H411 N404 0.984 1_556 S
H412 N400 0.984 1_565 S
H413 N400 0.985 . S
C414 C415 1.363 . S
C414 C420 1.379 . S
C414 N422 1.356 . S
C415 C414 1.363 . S
C415 C421 1.363 . S
C416 C417 1.363 . S
C416 C421 1.379 . S
C416 N423 1.356 . S
C417 C416 1.363 . S
C417 C420 1.363 . S
N418 C420 1.356 . S
N418 H430 0.987 . S
N418 H431 0.985 . S
N419 C421 1.356 . S
N419 H424 0.984 . S
N419 H425 0.985 . S
C420 C414 1.379 . S
C420 C417 1.363 . S
C420 N418 1.356 . S
C421 C415 1.363 . S
C421 C416 1.379 . S
C421 N419 1.356 . S
N422 C414 1.356 . S
N422 H428 0.984 . S
N422 H429 0.984 . S
N423 C416 1.356 . S
N423 H426 0.984 . S
N423 H427 0.985 . S
H424 N419 0.984 . S
H425 N419 0.985 . S
H426 N423 0.984 . S
H427 N423 0.985 . S
H428 N422 0.984 . S
H429 N422 0.984 . S
H430 N418 0.987 . S
H431 N418 0.985 . S
C432 C433 1.363 . S
C432 C438 1.379 1_655 S
C432 N440 1.356 . S
C433 C432 1.363 . S
C433 C439 1.363 . S
C434 C435 1.363 . S
C434 C439 1.379 1_455 S
C434 N441 1.356 . S
C435 C434 1.363 . S
C435 C438 1.363 . S
N436 C438 1.356 . S
N436 H448 0.984 . S
N436 H449 0.985 . S
N437 C439 1.356 . S
N437 H442 0.984 . S
N437 H443 0.985 . S
C438 C432 1.379 1_455 S
C438 C435 1.363 . S
C438 N436 1.356 . S
C439 C433 1.363 . S
C439 C434 1.379 1_655 S
C439 N437 1.356 . S
N440 C432 1.356 . S
N440 H446 0.984 . S
N440 H447 0.984 . S
N441 C434 1.356 . S
N441 H444 0.984 . S
N441 H445 0.985 . S
H442 N437 0.984 . S
H443 N437 0.985 . S
H444 N441 0.984 . S
H445 N441 0.985 . S
H446 N440 0.984 . S
H447 N440 0.984 . S
H448 N436 0.984 . S
H449 N436 0.985 . S
C450 C451 1.363 1_565 S
C450 C456 1.379 . S
C450 N458 1.356 . S
C451 C450 1.363 1_545 S
C451 C457 1.363 . S
C452 C453 1.362 1_545 S
C452 C457 1.380 . S
C452 N459 1.356 1_545 S
C453 C452 1.362 1_565 S
C453 C456 1.363 . S
N454 C456 1.356 . S
N454 H466 0.984 . S
N454 H467 0.985 . S
N455 C457 1.356 . S
N455 H460 0.984 . S
N455 H461 0.985 . S
C456 C450 1.379 . S
C456 C453 1.363 . S
C456 N454 1.356 . S
C457 C451 1.363 . S
C457 C452 1.380 . S
C457 N455 1.356 . S
N458 C450 1.356 . S
N458 H464 0.984 . S
N458 H465 0.984 1_565 S
N459 C452 1.356 1_565 S
N459 H462 0.984 . S
N459 H463 0.985 1_565 S
H460 N455 0.984 . S
H461 N455 0.985 . S
H462 N459 0.984 . S
H463 N459 0.985 1_545 S
H464 N458 0.984 . S
H465 N458 0.984 1_545 S
H466 N454 0.984 . S
H467 N454 0.985 . S
C468 C469 1.363 . S
C468 C474 1.379 . S
C468 N476 1.356 . S
C469 C468 1.363 . S
C469 C475 1.363 . S
C470 C471 1.363 . S
C470 C475 1.379 . S
C470 N477 1.356 . S
C471 C470 1.363 . S
C471 C474 1.363 . S
N472 C474 1.356 . S
N472 H484 0.984 . S
N472 H485 0.985 . S
N473 C475 1.356 . S
N473 H478 0.984 . S
N473 H479 0.985 . S
C474 C468 1.379 . S
C474 C471 1.363 . S
C474 N472 1.356 . S
C475 C469 1.363 . S
C475 C470 1.379 . S
C475 N473 1.356 . S
N476 C468 1.356 . S
N476 H482 0.984 . S
N476 H483 0.984 . S
N477 C470 1.356 . S
N477 H480 0.984 . S
N477 H481 0.985 . S
H478 N473 0.984 . S
H479 N473 0.985 . S
H480 N477 0.984 . S
H481 N477 0.985 . S
H482 N476 0.984 . S
H483 N476 0.984 . S
H484 N472 0.984 . S
H485 N472 0.985 . S
C486 C487 1.363 . S
C486 C492 1.379 1_655 S
C486 N494 1.356 . S
C487 C486 1.363 . S
C487 C493 1.363 . S
C488 C489 1.363 1_655 S
C488 C493 1.379 . S
C488 N495 1.356 . S
C489 C488 1.363 1_455 S
C489 C492 1.363 . S
N490 C492 1.356 . S
N490 H502 0.984 . S
N490 H503 0.985 . S
N491 C493 1.356 . S
N491 H496 0.984 . S
N491 H497 0.985 . S
C492 C486 1.379 1_455 S
C492 C489 1.363 . S
C492 N490 1.356 . S
C493 C487 1.363 . S
C493 C488 1.379 . S
C493 N491 1.356 . S
N494 C486 1.356 . S
N494 H500 0.984 1_655 S
N494 H501 0.984 . S
N495 C488 1.356 . S
N495 H498 0.984 1_655 S
N495 H499 0.985 . S
H496 N491 0.984 . S
H497 N491 0.985 . S
H498 N495 0.984 1_455 S
H499 N495 0.985 . S
H500 N494 0.984 1_455 S
H501 N494 0.984 . S
H502 N490 0.984 . S
H503 N490 0.985 . S
C504 C505 1.363 . S
C504 C510 1.379 . S
C504 N512 1.356 . S
C505 C504 1.363 . S
C505 C511 1.363 1_455 S
C506 C507 1.363 1_655 S
C506 C511 1.379 1_565 S
C506 N513 1.356 . S
C507 C506 1.363 1_455 S
C507 C510 1.363 1_565 S
N508 C510 1.356 . S
N508 H520 0.984 . S
N508 H521 0.985 1_545 S
N509 C511 1.356 . S
N509 H514 0.984 . S
N509 H515 0.985 1_545 S
C510 C504 1.379 . S
C510 C507 1.363 1_545 S
C510 N508 1.356 . S
C511 C505 1.363 1_655 S
C511 C506 1.379 1_545 S
C511 N509 1.356 . S
N512 C504 1.356 . S
N512 H518 0.984 . S
N512 H519 0.984 . S
N513 C506 1.356 . S
N513 H516 0.984 . S
N513 H517 0.985 . S
H514 N509 0.984 . S
H515 N509 0.985 1_565 S
H516 N513 0.984 . S
H517 N513 0.985 . S
H518 N512 0.984 . S
H519 N512 0.984 . S
H520 N508 0.984 . S
H521 N508 0.985 1_565 S
C522 C523 1.363 1_565 S
C522 C528 1.379 1_655 S
C522 N530 1.356 . S
C523 C522 1.363 1_545 S
C523 C529 1.363 1_655 S
C524 C525 1.363 . S
C524 C529 1.379 . S
C524 N531 1.356 . S
C525 C524 1.363 . S
C525 C528 1.363 1_545 S
N526 C528 1.356 . S
N526 H538 0.984 1_455 S
N526 H539 0.985 . S
N527 C529 1.356 . S
N527 H532 0.984 1_455 S
N527 H533 0.985 . S
C528 C522 1.379 1_455 S
C528 C525 1.363 1_565 S
C528 N526 1.356 . S
C529 C523 1.363 1_455 S
C529 C524 1.379 . S
C529 N527 1.356 . S
N530 C522 1.356 . S
N530 H536 0.984 . S
N530 H537 0.984 . S
N531 C524 1.356 . S
N531 H534 0.984 . S
N531 H535 0.985 . S
H532 N527 0.984 1_655 S
H533 N527 0.985 . S
H534 N531 0.984 . S
H535 N531 0.985 . S
H536 N530 0.984 . S
H537 N530 0.984 . S
H538 N526 0.984 1_655 S
H539 N526 0.985 . S
C540 C541 1.363 . S
C540 C546 1.379 1_455 S
C540 N548 1.356 . S
C541 C540 1.363 . S
C541 C547 1.363 1_545 S
C542 C543 1.363 . S
C542 C547 1.379 1_655 S
C542 N549 1.356 . S
C543 C542 1.363 . S
C543 C546 1.363 1_565 S
N544 C546 1.356 . S
N544 H556 0.984 . S
N544 H557 0.985 1_545 S
N545 C547 1.356 . S
N545 H550 0.984 1_565 S
N545 H551 0.985 . S
C546 C540 1.379 1_655 S
C546 C543 1.363 1_545 S
C546 N544 1.356 . S
C547 C541 1.363 1_565 S
C547 C542 1.379 1_455 S
C547 N545 1.356 . S
N548 C540 1.356 . S
N548 H554 0.984 . S
N548 H555 0.984 . S
N549 C542 1.356 . S
N549 H552 0.984 . S
N549 H553 0.985 . S
H550 N545 0.984 1_545 S
H551 N545 0.985 . S
H552 N549 0.984 . S
H553 N549 0.985 . S
H554 N548 0.984 . S
H555 N548 0.984 . S
H556 N544 0.984 . S
H557 N544 0.985 1_565 S
C558 C559 1.363 1_565 S
C558 C564 1.379 . S
C558 N566 1.346 1_565 S
C559 C558 1.363 1_545 S
C559 C565 1.363 1_655 S
C560 C561 1.363 1_455 S
C560 C565 1.379 1_565 S
C560 N567 1.356 . S
C561 C560 1.363 1_655 S
C561 C564 1.363 . S
N562 C564 1.356 . S
N562 H574 0.984 . S
N562 H575 0.985 . S
N563 C565 1.356 . S
N563 H568 0.984 . S
N563 H569 0.985 . S
C564 C558 1.379 . S
C564 C561 1.363 . S
C564 N562 1.356 . S
C565 C559 1.363 1_455 S
C565 C560 1.379 1_545 S
C565 N563 1.356 . S
N566 C558 1.346 1_545 S
N566 H572 0.985 1_545 S
N566 H573 0.995 . S
N567 C560 1.356 . S
N567 H570 0.984 . S
N567 H571 0.985 . S
H568 N563 0.984 . S
H569 N563 0.985 . S
H570 N567 0.984 . S
H571 N567 0.985 . S
H572 N566 0.985 1_565 S
H573 N566 0.995 . S
H574 N562 0.984 . S
H575 N562 0.985 . S
C576 C577 1.363 1_545 S
C576 C582 1.379 1_455 S
C576 N584 1.356 . S
C577 C576 1.363 1_565 S
C577 C583 1.363 1_455 S
C578 C579 1.363 . S
C578 C583 1.379 . S
C578 N585 1.356 . S
C579 C578 1.363 . S
C579 C582 1.363 1_565 S
N580 C582 1.356 . S
N580 H592 0.984 1_655 S
N580 H593 0.985 . S
N581 C583 1.356 . S
N581 H586 0.984 1_655 S
N581 H587 0.985 . S
C582 C576 1.379 1_655 S
C582 C579 1.363 1_545 S
C582 N580 1.356 . S
C583 C577 1.363 1_655 S
C583 C578 1.379 . S
C583 N581 1.356 . S
N584 C576 1.356 . S
N584 H590 0.984 . S
N584 H591 0.984 . S
N585 C578 1.356 . S
N585 H588 0.984 . S
N585 H589 0.985 . S
H586 N581 0.984 1_455 S
H587 N581 0.985 . S
H588 N585 0.984 . S
H589 N585 0.985 . S
H590 N584 0.984 . S
H591 N584 0.984 . S
H592 N580 0.984 1_455 S
H593 N580 0.985 . S
C594 C595 1.363 . S
C594 C600 1.379 1_655 S
C594 N602 1.356 . S
C595 C594 1.363 . S
C595 C601 1.363 1_565 S
C596 C597 1.363 . S
C596 C601 1.379 1_455 S
C596 N603 1.356 . S
C597 C596 1.363 . S
C597 C600 1.363 1_545 S
N598 C600 1.356 . S
N598 H610 0.984 . S
N598 H611 0.985 1_565 S
N599 C601 1.356 . S
N599 H604 0.984 1_545 S
N599 H605 0.985 . S
C600 C594 1.379 1_455 S
C600 C597 1.363 1_565 S
C600 N598 1.356 . S
C601 C595 1.363 1_545 S
C601 C596 1.379 1_655 S
C601 N599 1.356 . S
N602 C594 1.356 . S
N602 H608 0.984 . S
N602 H609 0.984 . S
N603 C596 1.356 . S
N603 H606 0.984 . S
N603 H607 0.985 . S
H604 N599 0.984 1_565 S
H605 N599 0.985 . S
H606 N603 0.984 . S
H607 N603 0.985 . S
H608 N602 0.984 . S
H609 N602 0.984 . S
H610 N598 0.984 . S
H611 N598 0.985 1_545 S
C612 C613 1.363 . S
C612 C618 1.379 . S
C612 N620 1.356 . S
C613 C612 1.363 . S
C613 C619 1.363 1_556 S
C614 C615 1.363 . S
C614 C619 1.379 . S
C614 N621 1.356 . S
C615 C614 1.363 . S
C615 C618 1.363 1_554 S
N616 C618 1.356 . S
N616 H628 0.984 . S
N616 H629 0.985 . S
N617 C619 1.356 . S
N617 H622 0.984 . S
N617 H623 0.985 . S
C618 C612 1.379 . S
C618 C615 1.363 1_556 S
C618 N616 1.356 . S
C619 C613 1.363 1_554 S
C619 C614 1.379 . S
C619 N617 1.356 . S
N620 C612 1.356 . S
N620 H626 0.984 . S
N620 H627 0.984 . S
N621 C614 1.356 . S
N621 H624 0.984 . S
N621 H625 0.985 . S
H622 N617 0.984 . S
H623 N617 0.985 . S
H624 N621 0.984 . S
H625 N621 0.985 . S
H626 N620 0.984 . S
H627 N620 0.984 . S
H628 N616 0.984 . S
H629 N616 0.985 . S
C630 C631 1.363 . S
C630 C636 1.379 . S
C630 N638 1.356 . S
C631 C630 1.363 . S
C631 C637 1.363 . S
C632 C633 1.363 . S
C632 C637 1.379 . S
C632 N639 1.356 . S
C633 C632 1.363 . S
C633 C636 1.363 . S
N634 C636 1.356 . S
N634 H646 0.984 . S
N634 H647 0.985 . S
N635 C637 1.356 . S
N635 H640 0.984 . S
N635 H641 0.985 1_655 S
C636 C630 1.379 . S
C636 C633 1.363 . S
C636 N634 1.356 . S
C637 C631 1.363 . S
C637 C632 1.379 . S
C637 N635 1.356 . S
N638 C630 1.356 . S
N638 H644 0.984 . S
N638 H645 0.984 . S
N639 C632 1.356 . S
N639 H642 0.984 . S
N639 H643 0.985 . S
H640 N635 0.984 . S
H641 N635 0.985 1_455 S
H642 N639 0.984 . S
H643 N639 0.985 . S
H644 N638 0.984 . S
H645 N638 0.984 . S
H646 N634 0.984 . S
H647 N634 0.985 . S
C648 C649 1.363 . S
C648 C654 1.379 . S
C648 N656 1.356 1_565 S
C649 C648 1.363 . S
C649 C655 1.363 . S
C650 C651 1.363 . S
C650 C655 1.379 . S
C650 N657 1.356 . S
C651 C650 1.363 . S
C651 C654 1.363 . S
N652 C654 1.356 . S
N652 H664 0.984 . S
N652 H665 0.985 . S
N653 C655 1.356 . S
N653 H658 0.984 . S
N653 H659 0.985 . S
C654 C648 1.379 . S
C654 C651 1.363 . S
C654 N652 1.356 . S
C655 C649 1.363 . S
C655 C650 1.379 . S
C655 N653 1.356 . S
N656 C648 1.356 1_545 S
N656 H662 0.984 . S
N656 H663 0.984 . S
N657 C650 1.356 . S
N657 H660 0.984 . S
N657 H661 0.985 . S
H658 N653 0.984 . S
H659 N653 0.985 . S
H660 N657 0.984 . S
H661 N657 0.985 . S
H662 N656 0.984 . S
H663 N656 0.984 . S
H664 N652 0.984 . S
H665 N652 0.985 . S
C666 C667 1.363 . S
C666 C672 1.379 . S
C666 N674 1.356 . S
C667 C666 1.363 . S
C667 C673 1.363 . S
C668 C669 1.363 . S
C668 C673 1.379 . S
C668 N675 1.356 . S
C669 C668 1.363 . S
C669 C672 1.363 . S
N670 C672 1.356 . S
N670 H682 0.984 . S
N670 H683 0.985 . S
N671 C673 1.356 . S
N671 H676 0.984 . S
N671 H677 0.985 . S
C672 C666 1.379 . S
C672 C669 1.363 . S
C672 N670 1.356 . S
C673 C667 1.363 . S
C673 C668 1.379 . S
C673 N671 1.356 . S
N674 C666 1.356 . S
N674 H680 0.984 . S
N674 H681 0.984 . S
N675 C668 1.356 . S
N675 H678 0.984 . S
N675 H679 0.985 . S
H676 N671 0.984 . S
H677 N671 0.985 . S
H678 N675 0.984 . S
H679 N675 0.985 . S
H680 N674 0.984 . S
H681 N674 0.984 . S
H682 N670 0.984 . S
H683 N670 0.985 . S
C684 C685 1.363 . S
C684 C690 1.379 . S
C684 N692 1.356 . S
C685 C684 1.363 . S
C685 C691 1.363 . S
C686 C687 1.363 . S
C686 C691 1.379 . S
C686 N693 1.356 . S
C687 C686 1.363 . S
C687 C690 1.363 . S
N688 C690 1.356 . S
N688 H700 0.984 . S
N688 H701 0.985 . S
N689 C691 1.356 . S
N689 H694 0.984 . S
N689 H695 0.985 . S
C690 C684 1.379 . S
C690 C687 1.363 . S
C690 N688 1.356 . S
C691 C685 1.363 . S
C691 C686 1.379 . S
C691 N689 1.356 . S
N692 C684 1.356 . S
N692 H698 0.984 . S
N692 H699 0.984 . S
N693 C686 1.356 . S
N693 H696 0.984 . S
N693 H697 0.985 . S
H694 N689 0.984 . S
H695 N689 0.985 . S
H696 N693 0.984 . S
H697 N693 0.985 . S
H698 N692 0.984 . S
H699 N692 0.984 . S
H700 N688 0.984 . S
H701 N688 0.985 . S
C702 C703 1.363 . S
C702 C708 1.379 . S
C702 N710 1.356 . S
C703 C702 1.363 . S
C703 C709 1.363 . S
C704 C705 1.363 . S
C704 C709 1.379 . S
C704 N711 1.356 . S
C705 C704 1.363 . S
C705 C708 1.363 . S
N706 C708 1.356 . S
N706 H718 0.984 . S
N706 H719 0.985 . S
N707 C709 1.356 . S
N707 H712 0.984 . S
N707 H713 0.985 . S
C708 C702 1.379 . S
C708 C705 1.363 . S
C708 N706 1.356 . S
C709 C703 1.363 . S
C709 C704 1.379 . S
C709 N707 1.356 . S
N710 C702 1.356 . S
N710 H716 0.984 . S
N710 H717 0.984 . S
N711 C704 1.356 . S
N711 H714 0.984 . S
N711 H715 0.985 . S
H712 N707 0.984 . S
H713 N707 0.985 . S
H714 N711 0.984 . S
H715 N711 0.985 . S
H716 N710 0.984 . S
H717 N710 0.984 . S
H718 N706 0.984 . S
H719 N706 0.985 . S
C720 C721 1.363 . S
C720 C726 1.379 . S
C720 N728 1.356 . S
C721 C720 1.363 . S
C721 C727 1.363 . S
C722 C723 1.363 . S
C722 C727 1.379 . S
C722 N729 1.356 . S
C723 C722 1.363 . S
C723 C726 1.363 . S
N724 C726 1.356 . S
N724 H736 0.984 . S
N724 H737 0.985 . S
N725 C727 1.356 . S
N725 H730 0.984 . S
N725 H731 0.985 . S
C726 C720 1.379 . S
C726 C723 1.363 . S
C726 N724 1.356 . S
C727 C721 1.363 . S
C727 C722 1.379 . S
C727 N725 1.356 . S
N728 C720 1.356 . S
N728 H734 0.984 . S
N728 H735 0.984 . S
N729 C722 1.356 . S
N729 H732 0.984 . S
N729 H733 0.985 . S
H730 N725 0.984 . S
H731 N725 0.985 . S
H732 N729 0.984 . S
H733 N729 0.985 . S
H734 N728 0.984 . S
H735 N728 0.984 . S
H736 N724 0.984 . S
H737 N724 0.985 . S
C738 C739 1.363 . S
C738 C744 1.374 1_554 S
C738 N746 1.356 . S
C739 C738 1.363 . S
C739 C745 1.363 1_554 S
C740 C741 1.363 . S
C740 C745 1.379 . S
C740 N747 1.356 . S
C741 C740 1.363 . S
C741 C744 1.369 . S
N742 C744 1.357 . S
N742 H754 0.984 1_556 S
N742 H755 0.985 . S
N743 C745 1.356 1_455 S
N743 H748 0.984 1_556 S
N743 H749 0.985 . S
C744 C738 1.374 1_556 S
C744 C741 1.369 . S
C744 N742 1.357 . S
C745 C739 1.363 1_556 S
C745 C740 1.379 . S
C745 N743 1.356 1_655 S
N746 C738 1.356 . S
N746 H752 0.984 . S
N746 H753 0.984 . S
N747 C740 1.356 . S
N747 H750 0.984 . S
N747 H751 0.985 . S
H748 N743 0.984 1_554 S
H749 N743 0.985 . S
H750 N747 0.984 . S
H751 N747 0.985 . S
H752 N746 0.984 . S
H753 N746 0.984 . S
H754 N742 0.984 1_554 S
H755 N742 0.985 . S
C756 C757 1.363 . S
C756 C762 1.379 . S
C756 N764 1.356 1_565 S
C757 C756 1.363 . S
C757 C763 1.363 . S
C758 C759 1.363 . S
C758 C763 1.379 . S
C758 N765 1.356 . S
C759 C758 1.363 . S
C759 C762 1.363 . S
N760 C762 1.356 . S
N760 H772 0.984 . S
N760 H773 0.985 . S
N761 C763 1.356 . S
N761 H766 0.984 . S
N761 H767 0.985 . S
C762 C756 1.379 . S
C762 C759 1.363 . S
C762 N760 1.356 . S
C763 C757 1.363 . S
C763 C758 1.379 . S
C763 N761 1.356 . S
N764 C756 1.356 1_545 S
N764 H770 0.984 . S
N764 H771 0.984 . S
N765 C758 1.356 . S
N765 H768 0.984 . S
N765 H769 0.985 . S
H766 N761 0.984 . S
H767 N761 0.985 . S
H768 N765 0.984 . S
H769 N765 0.985 . S
H770 N764 0.984 . S
H771 N764 0.984 . S
H772 N760 0.984 . S
H773 N760 0.985 . S
C774 C775 1.363 . S
C774 C780 1.379 . S
C774 N782 1.356 . S
C775 C774 1.363 . S
C775 C781 1.363 . S
C776 C777 1.363 . S
C776 C781 1.379 . S
C776 N783 1.356 . S
C777 C776 1.363 . S
C777 C780 1.363 . S
N778 C780 1.356 . S
N778 H790 0.984 . S
N778 H791 0.985 . S
N779 C781 1.356 . S
N779 H784 0.984 . S
N779 H785 0.985 . S
C780 C774 1.379 . S
C780 C777 1.363 . S
C780 N778 1.356 . S
C781 C775 1.363 . S
C781 C776 1.379 . S
C781 N779 1.356 . S
N782 C774 1.356 . S
N782 H788 0.984 . S
N782 H789 0.984 . S
N783 C776 1.356 . S
N783 H786 0.984 . S
N783 H787 0.985 . S
H784 N779 0.984 . S
H785 N779 0.985 . S
H786 N783 0.984 . S
H787 N783 0.985 . S
H788 N782 0.984 . S
H789 N782 0.984 . S
H790 N778 0.984 . S
H791 N778 0.985 . S
C792 C793 1.363 . S
C792 C798 1.379 . S
C792 N800 1.356 . S
C793 C792 1.363 . S
C793 C799 1.363 . S
C794 C795 1.363 . S
C794 C799 1.379 . S
C794 N801 1.356 . S
C795 C794 1.363 . S
C795 C798 1.363 . S
N796 C798 1.356 . S
N796 H808 0.984 . S
N796 H809 0.985 . S
N797 C799 1.356 . S
N797 H802 0.984 . S
N797 H803 0.985 . S
C798 C792 1.379 . S
C798 C795 1.363 . S
C798 N796 1.356 . S
C799 C793 1.363 . S
C799 C794 1.379 . S
C799 N797 1.356 . S
N800 C792 1.356 . S
N800 H806 0.984 . S
N800 H807 0.984 . S
N801 C794 1.356 . S
N801 H804 0.984 . S
N801 H805 0.985 . S
H802 N797 0.984 . S
H803 N797 0.985 . S
H804 N801 0.984 . S
H805 N801 0.985 . S
H806 N800 0.984 . S
H807 N800 0.984 . S
H808 N796 0.984 . S
H809 N796 0.985 . S
C810 C811 1.363 . S
C810 C816 1.379 . S
C810 N818 1.356 . S
C811 C810 1.363 . S
C811 C817 1.363 . S
C812 C813 1.363 . S
C812 C817 1.379 . S
C812 N819 1.356 . S
C813 C812 1.363 . S
C813 C816 1.363 . S
N814 C816 1.356 . S
N814 H826 0.984 . S
N814 H827 0.985 . S
N815 C817 1.356 . S
N815 H820 0.984 . S
N815 H821 0.985 . S
C816 C810 1.379 . S
C816 C813 1.363 . S
C816 N814 1.356 . S
C817 C811 1.363 . S
C817 C812 1.379 . S
C817 N815 1.356 . S
N818 C810 1.356 . S
N818 H824 0.984 . S
N818 H825 0.984 . S
N819 C812 1.356 . S
N819 H822 0.984 . S
N819 H823 0.985 . S
H820 N815 0.984 . S
H821 N815 0.985 . S
H822 N819 0.984 . S
H823 N819 0.985 . S
H824 N818 0.984 . S
H825 N818 0.984 . S
H826 N814 0.984 . S
H827 N814 0.985 . S
C828 C829 1.363 . S
C828 C834 1.379 . S
C828 N836 1.356 . S
C829 C828 1.363 . S
C829 C835 1.363 . S
C830 C831 1.363 . S
C830 C835 1.379 . S
C830 N837 1.356 1_655 S
C831 C830 1.363 . S
C831 C834 1.363 . S
N832 C834 1.356 . S
N832 H844 0.984 . S
N832 H845 0.985 . S
N833 C835 1.356 1_455 S
N833 H838 0.984 . S
N833 H839 0.985 . S
C834 C828 1.379 . S
C834 C831 1.363 . S
C834 N832 1.356 . S
C835 C829 1.363 . S
C835 C830 1.379 . S
C835 N833 1.356 1_655 S
N836 C828 1.356 . S
N836 H842 0.984 . S
N836 H843 0.984 . S
N837 C830 1.356 1_455 S
N837 H840 0.984 . S
N837 H841 0.985 . S
H838 N833 0.984 . S
H839 N833 0.985 . S
H840 N837 0.984 . S
H841 N837 0.985 . S
H842 N836 0.984 . S
H843 N836 0.984 . S
H844 N832 0.984 . S
H845 N832 0.985 . S
C846 C847 1.363 . S
C846 C852 1.379 . S
C846 N854 1.356 1_565 S
C847 C846 1.363 . S
C847 C853 1.363 . S
C848 C849 1.363 . S
C848 C853 1.379 . S
C848 N855 1.356 . S
C849 C848 1.363 . S
C849 C852 1.363 . S
N850 C852 1.356 1_545 S
N850 H862 0.984 . S
N850 H863 0.985 . S
N851 C853 1.356 . S
N851 H856 0.984 . S
N851 H857 0.985 . S
C852 C846 1.379 . S
C852 C849 1.363 . S
C852 N850 1.356 1_565 S
C853 C847 1.363 . S
C853 C848 1.379 . S
C853 N851 1.356 . S
N854 C846 1.356 1_545 S
N854 H860 0.984 . S
N854 H861 0.984 . S
N855 C848 1.356 . S
N855 H858 0.984 . S
N855 H859 0.985 . S
H856 N851 0.984 . S
H857 N851 0.985 . S
H858 N855 0.984 . S
H859 N855 0.985 . S
H860 N854 0.984 . S
H861 N854 0.984 . S
H862 N850 0.984 . S
H863 N850 0.985 . S
C864 C865 1.363 . S
C864 C870 1.379 . S
C864 N872 1.356 . S
C865 C864 1.363 . S
C865 C871 1.363 . S
C866 C867 1.363 . S
C866 C871 1.379 . S
C866 N873 1.356 . S
C867 C866 1.363 . S
C867 C870 1.363 . S
N868 C870 1.356 . S
N868 H880 0.984 . S
N868 H881 0.985 . S
N869 C871 1.356 . S
N869 H874 0.984 . S
N869 H875 0.985 . S
C870 C864 1.379 . S
C870 C867 1.363 . S
C870 N868 1.356 . S
C871 C865 1.363 . S
C871 C866 1.379 . S
C871 N869 1.356 . S
N872 C864 1.356 . S
N872 H878 0.984 . S
N872 H879 0.984 . S
N873 C866 1.356 . S
N873 H876 0.984 . S
N873 H877 0.985 . S
H874 N869 0.984 . S
H875 N869 0.985 . S
H876 N873 0.984 . S
H877 N873 0.985 . S
H878 N872 0.984 . S
H879 N872 0.984 . S
H880 N868 0.984 . S
H881 N868 0.985 . S
C882 C883 1.363 . S
C882 C888 1.379 . S
C882 N890 1.356 1_455 S
C883 C882 1.363 . S
C883 C889 1.363 . S
C884 C885 1.363 . S
C884 C889 1.379 . S
C884 N891 1.356 . S
C885 C884 1.363 . S
C885 C888 1.363 . S
N886 C888 1.356 1_655 S
N886 H898 0.984 . S
N886 H899 0.985 . S
N887 C889 1.356 . S
N887 H892 0.984 . S
N887 H893 0.985 . S
C888 C882 1.379 . S
C888 C885 1.363 . S
C888 N886 1.356 1_455 S
C889 C883 1.363 . S
C889 C884 1.379 . S
C889 N887 1.356 . S
N890 C882 1.356 1_655 S
N890 H896 0.984 . S
N890 H897 0.984 . S
N891 C884 1.356 . S
N891 H894 0.984 . S
N891 H895 0.985 . S
H892 N887 0.984 . S
H893 N887 0.985 . S
H894 N891 0.984 . S
H895 N891 0.985 . S
H896 N890 0.984 . S
H897 N890 0.984 . S
H898 N886 0.984 . S
H899 N886 0.985 . S
C900 C901 1.363 . S
C900 C906 1.379 . S
C900 N908 1.356 . S
C901 C900 1.363 . S
C901 C907 1.363 . S
C902 C903 1.363 . S
C902 C907 1.379 . S
C902 N909 1.356 1_545 S
C903 C902 1.363 . S
C903 C906 1.363 . S
N904 C906 1.356 . S
N904 H916 0.984 . S
N904 H917 0.985 . S
N905 C907 1.356 1_565 S
N905 H910 0.984 . S
N905 H911 0.985 . S
C906 C900 1.379 . S
C906 C903 1.363 . S
C906 N904 1.356 . S
C907 C901 1.363 . S
C907 C902 1.379 . S
C907 N905 1.356 1_545 S
N908 C900 1.356 . S
N908 H914 0.984 . S
N908 H915 0.984 . S
N909 C902 1.356 1_565 S
N909 H912 0.984 . S
N909 H913 0.985 . S
H910 N905 0.984 . S
H911 N905 0.985 . S
H912 N909 0.984 . S
H913 N909 0.985 . S
H914 N908 0.984 . S
H915 N908 0.984 . S
H916 N904 0.984 . S
H917 N904 0.985 . S
C918 C919 1.363 . S
C918 C924 1.379 . S
C918 N926 1.356 . S
C919 C918 1.363 . S
C919 C925 1.363 . S
C920 C921 1.363 . S
C920 C925 1.379 . S
C920 N927 1.356 . S
C921 C920 1.363 . S
C921 C924 1.363 . S
N922 C924 1.356 . S
N922 H934 0.984 . S
N922 H935 0.985 . S
N923 C925 1.356 . S
N923 H928 0.984 . S
N923 H929 0.985 . S
C924 C918 1.379 . S
C924 C921 1.363 . S
C924 N922 1.356 . S
C925 C919 1.363 . S
C925 C920 1.379 . S
C925 N923 1.356 . S
N926 C918 1.356 . S
N926 H932 0.984 . S
N926 H933 0.984 . S
N927 C920 1.356 . S
N927 H930 0.984 . S
N927 H931 0.985 . S
H928 N923 0.984 . S
H929 N923 0.985 . S
H930 N927 0.984 . S
H931 N927 0.985 . S
H932 N926 0.984 . S
H933 N926 0.984 . S
H934 N922 0.984 . S
H935 N922 0.985 . S
C397 C239 1.719 . S
C399 C8 1.733 . S
C415 C272 1.644 . S
C417 C41 1.647 . S
C433 C74 1.719 . S
C435 C305 1.733 . S
C451 C338 1.719 . S
C453 C107 1.733 . S
C469 C140 1.644 . S
C471 C371 1.647 . S
C487 C206 1.733 . S
C489 C173 1.719 . S
C505 N14 1.730 . S
C507 N278 1.729 . S
C523 N47 1.729 . S
C525 N311 1.730 . S
C541 N344 1.651 . S
C543 N80 1.651 . S
C559 N377 1.729 . S
C561 N113 1.730 . S
C577 N146 1.729 . S
C579 N212 1.730 . S
C595 N245 1.651 . S
C597 N179 1.651 . S
C613 N236 1.075 . S
C615 C17 1.084 . S
C631 N269 1.190 . S
C633 C50 1.209 . S
C649 N302 1.238 . S
C651 C83 1.269 . S
C667 C116 1.086 . S
C669 N335 1.074 . S
C685 N368 1.190 . S
C687 C149 1.209 . S
C703 C182 1.268 . S
C705 N203 1.239 . S
C721 C215 1.086 . S
C723 N170 1.073 . S
C739 N5 1.238 . S
C741 C248 1.269 . S
C757 N38 1.190 . S
C759 C281 1.209 . S
C775 N71 1.075 . S
C777 C314 1.084 . S
C793 N104 1.238 . S
C795 C347 1.269 . S
C811 N137 1.190 . S
C813 C380 1.209 . S
C829 C292 1.602 . S
C831 C28 1.603 . S
C847 C61 1.602 . S
C849 C325 1.603 . S
C865 C358 1.740 . S
C867 C94 1.740 . S
C883 C127 1.603 . S
C885 C391 1.602 . S
C901 C160 1.602 . S
C903 C226 1.603 . S
C919 C259 1.741 . S
C921 C193 1.741 . S
