# Generated by pormake.
# Topology sxg, (6)-cn, num edge types: 1
# Building blocks:
#     Node 0, Type 0, BuildingBlock: KUMBUR_clean_sbu_0, # of connection points: 6
#     Node 1, Type 0, BuildingBlock: KUMBUR_clean_sbu_0, # of connection points: 6
#     Node 2, Type 0, BuildingBlock: KUMBUR_clean_sbu_0, # of connection points: 6
#     Node 3, Type 0, BuildingBlock: KUMBUR_clean_sbu_0, # of connection points: 6
#     Node 4, Type 0, BuildingBlock: KUMBUR_clean_sbu_0, # of connection points: 6
#     Node 5, Type 0, BuildingBlock: KUMBUR_clean_sbu_0, # of connection points: 6
#     Node 6, Type 0, BuildingBlock: KUMBUR_clean_sbu_0, # of connection points: 6
#     Node 7, Type 0, BuildingBlock: KUMBUR_clean_sbu_0, # of connection points: 6
#     Node 8, Type 0, BuildingBlock: KUMBUR_clean_sbu_0, # of connection points: 6
#     Node 9, Type 0, BuildingBlock: KUMBUR_clean_sbu_0, # of connection points: 6
#     Node 10, Type 0, BuildingBlock: KUMBUR_clean_sbu_0, # of connection points: 6
#     Node 11, Type 0, BuildingBlock: KUMBUR_clean_sbu_0, # of connection points: 6
#     Node 12, Type 0, BuildingBlock: KUMBUR_clean_sbu_0, # of connection points: 6
#     Node 13, Type 0, BuildingBlock: KUMBUR_clean_sbu_0, # of connection points: 6
#     Node 14, Type 0, BuildingBlock: KUMBUR_clean_sbu_0, # of connection points: 6
#     Node 15, Type 0, BuildingBlock: KUMBUR_clean_sbu_0, # of connection points: 6
#     Node 16, Type 0, BuildingBlock: KUMBUR_clean_sbu_0, # of connection points: 6
#     Node 17, Type 0, BuildingBlock: KUMBUR_clean_sbu_0, # of connection points: 6
#     Node 18, Type 0, BuildingBlock: KUMBUR_clean_sbu_0, # of connection points: 6
#     Node 19, Type 0, BuildingBlock: KUMBUR_clean_sbu_0, # of connection points: 6
#     Node 20, Type 0, BuildingBlock: KUMBUR_clean_sbu_0, # of connection points: 6
#     Node 21, Type 0, BuildingBlock: KUMBUR_clean_sbu_0, # of connection points: 6
#     Node 22, Type 0, BuildingBlock: KUMBUR_clean_sbu_0, # of connection points: 6
#     Node 23, Type 0, BuildingBlock: KUMBUR_clean_sbu_0, # of connection points: 6
#     Edge 24, Type (0, 0), BuildingBlock: KIFKEQ_clean_linker_1, # of connection points: 2
#     Edge 25, Type (0, 0), BuildingBlock: KIFKEQ_clean_linker_1, # of connection points: 2
#     Edge 26, Type (0, 0), BuildingBlock: KIFKEQ_clean_linker_1, # of connection points: 2
#     Edge 27, Type (0, 0), BuildingBlock: KIFKEQ_clean_linker_1, # of connection points: 2
#     Edge 28, Type (0, 0), BuildingBlock: KIFKEQ_clean_linker_1, # of connection points: 2
#     Edge 29, Type (0, 0), BuildingBlock: KIFKEQ_clean_linker_1, # of connection points: 2
#     Edge 30, Type (0, 0), BuildingBlock: KIFKEQ_clean_linker_1, # of connection points: 2
#     Edge 31, Type (0, 0), BuildingBlock: KIFKEQ_clean_linker_1, # of connection points: 2
#     Edge 32, Type (0, 0), BuildingBlock: KIFKEQ_clean_linker_1, # of connection points: 2
#     Edge 33, Type (0, 0), BuildingBlock: KIFKEQ_clean_linker_1, # of connection points: 2
#     Edge 34, Type (0, 0), BuildingBlock: KIFKEQ_clean_linker_1, # of connection points: 2
#     Edge 35, Type (0, 0), BuildingBlock: KIFKEQ_clean_linker_1, # of connection points: 2
#     Edge 36, Type (0, 0), BuildingBlock: KIFKEQ_clean_linker_1, # of connection points: 2
#     Edge 37, Type (0, 0), BuildingBlock: KIFKEQ_clean_linker_1, # of connection points: 2
#     Edge 38, Type (0, 0), BuildingBlock: KIFKEQ_clean_linker_1, # of connection points: 2
#     Edge 39, Type (0, 0), BuildingBlock: KIFKEQ_clean_linker_1, # of connection points: 2
#     Edge 40, Type (0, 0), BuildingBlock: KIFKEQ_clean_linker_1, # of connection points: 2
#     Edge 41, Type (0, 0), BuildingBlock: KIFKEQ_clean_linker_1, # of connection points: 2
#     Edge 42, Type (0, 0), BuildingBlock: KIFKEQ_clean_linker_1, # of connection points: 2
#     Edge 43, Type (0, 0), BuildingBlock: KIFKEQ_clean_linker_1, # of connection points: 2
#     Edge 44, Type (0, 0), BuildingBlock: KIFKEQ_clean_linker_1, # of connection points: 2
#     Edge 45, Type (0, 0), BuildingBlock: KIFKEQ_clean_linker_1, # of connection points: 2
#     Edge 46, Type (0, 0), BuildingBlock: KIFKEQ_clean_linker_1, # of connection points: 2
#     Edge 47, Type (0, 0), BuildingBlock: KIFKEQ_clean_linker_1, # of connection points: 2
#     Edge 48, Type (0, 0), BuildingBlock: KIFKEQ_clean_linker_1, # of connection points: 2
#     Edge 49, Type (0, 0), BuildingBlock: KIFKEQ_clean_linker_1, # of connection points: 2
#     Edge 50, Type (0, 0), BuildingBlock: KIFKEQ_clean_linker_1, # of connection points: 2
#     Edge 51, Type (0, 0), BuildingBlock: KIFKEQ_clean_linker_1, # of connection points: 2
#     Edge 52, Type (0, 0), BuildingBlock: KIFKEQ_clean_linker_1, # of connection points: 2
#     Edge 53, Type (0, 0), BuildingBlock: KIFKEQ_clean_linker_1, # of connection points: 2
#     Edge 54, Type (0, 0), BuildingBlock: KIFKEQ_clean_linker_1, # of connection points: 2
#     Edge 55, Type (0, 0), BuildingBlock: KIFKEQ_clean_linker_1, # of connection points: 2
#     Edge 56, Type (0, 0), BuildingBlock: KIFKEQ_clean_linker_1, # of connection points: 2
#     Edge 57, Type (0, 0), BuildingBlock: KIFKEQ_clean_linker_1, # of connection points: 2
#     Edge 58, Type (0, 0), BuildingBlock: KIFKEQ_clean_linker_1, # of connection points: 2
#     Edge 59, Type (0, 0), BuildingBlock: KIFKEQ_clean_linker_1, # of connection points: 2
#     Edge 60, Type (0, 0), BuildingBlock: KIFKEQ_clean_linker_1, # of connection points: 2
#     Edge 61, Type (0, 0), BuildingBlock: KIFKEQ_clean_linker_1, # of connection points: 2
#     Edge 62, Type (0, 0), BuildingBlock: KIFKEQ_clean_linker_1, # of connection points: 2
#     Edge 63, Type (0, 0), BuildingBlock: KIFKEQ_clean_linker_1, # of connection points: 2
#     Edge 64, Type (0, 0), BuildingBlock: KIFKEQ_clean_linker_1, # of connection points: 2
#     Edge 65, Type (0, 0), BuildingBlock: KIFKEQ_clean_linker_1, # of connection points: 2
#     Edge 66, Type (0, 0), BuildingBlock: KIFKEQ_clean_linker_1, # of connection points: 2
#     Edge 67, Type (0, 0), BuildingBlock: KIFKEQ_clean_linker_1, # of connection points: 2
#     Edge 68, Type (0, 0), BuildingBlock: KIFKEQ_clean_linker_1, # of connection points: 2
#     Edge 69, Type (0, 0), BuildingBlock: KIFKEQ_clean_linker_1, # of connection points: 2
#     Edge 70, Type (0, 0), BuildingBlock: KIFKEQ_clean_linker_1, # of connection points: 2
#     Edge 71, Type (0, 0), BuildingBlock: KIFKEQ_clean_linker_1, # of connection points: 2
#     Edge 72, Type (0, 0), BuildingBlock: KIFKEQ_clean_linker_1, # of connection points: 2
#     Edge 73, Type (0, 0), BuildingBlock: KIFKEQ_clean_linker_1, # of connection points: 2
#     Edge 74, Type (0, 0), BuildingBlock: KIFKEQ_clean_linker_1, # of connection points: 2
#     Edge 75, Type (0, 0), BuildingBlock: KIFKEQ_clean_linker_1, # of connection points: 2
#     Edge 76, Type (0, 0), BuildingBlock: KIFKEQ_clean_linker_1, # of connection points: 2
#     Edge 77, Type (0, 0), BuildingBlock: KIFKEQ_clean_linker_1, # of connection points: 2
#     Edge 78, Type (0, 0), BuildingBlock: KIFKEQ_clean_linker_1, # of connection points: 2
#     Edge 79, Type (0, 0), BuildingBlock: KIFKEQ_clean_linker_1, # of connection points: 2
#     Edge 80, Type (0, 0), BuildingBlock: KIFKEQ_clean_linker_1, # of connection points: 2
#     Edge 81, Type (0, 0), BuildingBlock: KIFKEQ_clean_linker_1, # of connection points: 2
#     Edge 82, Type (0, 0), BuildingBlock: KIFKEQ_clean_linker_1, # of connection points: 2
#     Edge 83, Type (0, 0), BuildingBlock: KIFKEQ_clean_linker_1, # of connection points: 2
#     Edge 84, Type (0, 0), BuildingBlock: KIFKEQ_clean_linker_1, # of connection points: 2
#     Edge 85, Type (0, 0), BuildingBlock: KIFKEQ_clean_linker_1, # of connection points: 2
#     Edge 86, Type (0, 0), BuildingBlock: KIFKEQ_clean_linker_1, # of connection points: 2
#     Edge 87, Type (0, 0), BuildingBlock: KIFKEQ_clean_linker_1, # of connection points: 2
#     Edge 88, Type (0, 0), BuildingBlock: KIFKEQ_clean_linker_1, # of connection points: 2
#     Edge 89, Type (0, 0), BuildingBlock: KIFKEQ_clean_linker_1, # of connection points: 2
#     Edge 90, Type (0, 0), BuildingBlock: KIFKEQ_clean_linker_1, # of connection points: 2
#     Edge 91, Type (0, 0), BuildingBlock: KIFKEQ_clean_linker_1, # of connection points: 2
#     Edge 92, Type (0, 0), BuildingBlock: KIFKEQ_clean_linker_1, # of connection points: 2
#     Edge 93, Type (0, 0), BuildingBlock: KIFKEQ_clean_linker_1, # of connection points: 2
#     Edge 94, Type (0, 0), BuildingBlock: KIFKEQ_clean_linker_1, # of connection points: 2
#     Edge 95, Type (0, 0), BuildingBlock: KIFKEQ_clean_linker_1, # of connection points: 2
# Relax obj value: 0.123
# Max RMSD: 0.247
# Mean RMSD: 0.247
data_MOF--net-sxg--node1-KUMBUR_clean_sbu_0--edge1-KIFKEQ_clean_linker_1
_symmetry_space_group_name_H-M    P1
_symmetry_Int_Tables_number       1
_symmetry_cell_setting            triclinic
loop_
_symmetry_equiv_pos_as_xyz
'x, y, z'
_cell_length_a     52.141335
_cell_length_b     52.10149
_cell_length_c     52.149969
_cell_angle_alpha  90.011255
_cell_angle_beta   90.06251
_cell_angle_gamma 89.996312
loop_
_atom_site_label
_atom_site_type_symbol
_atom_site_fract_x
_atom_site_fract_y
_atom_site_fract_z
_atom_type_partial_charge
Tb0 Tb 0.05305 0.39122 0.27524 0.0
C1 C 0.04011 0.30318 0.34427 0.0
C2 C 0.03803 0.32621 0.38447 0.0
C3 C 1.01376 0.28685 0.37921 0.0
C4 C 0.04733 0.32378 0.35913 0.0
C5 C 0.02363 0.28415 0.35432 0.0
C6 C 1.02094 0.30787 0.39426 0.0
C7 C 0.02934 0.26018 0.31526 0.0
N8 N 0.04974 0.30144 0.3202 0.0
C9 C 0.04565 0.27945 0.30624 0.0
C10 C 1.01793 0.26272 0.33926 0.0
Tb11 Tb 0.07674 0.33405 0.30693 0.0
N12 N 0.06349 0.34142 0.34878 0.0
C13 C 0.07143 0.3618 0.36345 0.0
C14 C 0.04607 0.34707 0.39923 0.0
C15 C 0.06292 0.36486 0.38867 0.0
H16 H 0.05495 0.27662 0.28793 0.0
H17 H 0.06917 0.3812 0.39988 0.0
H18 H 1.0133 0.30972 0.41347 0.0
H19 H 0.02581 0.24324 0.30377 0.0
H20 H 0.08376 0.37642 0.35604 0.0
H21 H 0.08862 0.38078 0.17823 0.0
H22 H 0.03932 0.34964 0.4187 0.0
H23 H 0.04971 0.44269 0.31278 0.0
H24 H 0.06386 0.36831 0.21617 0.0
H25 H 0.06775 0.48648 0.31384 0.0
H26 H 1.0008 0.27264 0.38708 0.0
H27 H 0.11286 0.42156 0.1779 0.0
H28 H 0.12389 0.463 0.20004 0.0
H29 H 1.00538 0.24771 0.34628 0.0
H30 H 0.11788 0.49203 0.23682 0.0
N31 N 0.07462 0.40117 0.23816 0.0
C32 C 0.07429 0.38616 0.21663 0.0
C33 C 0.10209 0.41614 0.19481 0.0
C34 C 0.10089 0.43232 0.21616 0.0
C35 C 0.08837 0.39316 0.19489 0.0
C36 C 0.08668 0.42427 0.23769 0.0
H37 H 0.09637 0.50119 0.279 0.0
N38 N 0.06872 0.43231 0.27813 0.0
C39 C 0.07245 0.47367 0.2982 0.0
C40 C 0.08334 0.44058 0.25825 0.0
C41 C 0.06222 0.44886 0.2975 0.0
C42 C 0.08867 0.48189 0.27854 0.0
C43 C 0.09406 0.46541 0.25807 0.0
O44 O 1.01825 0.41036 0.28317 0.0
O45 O 0.04475 0.36032 0.30235 0.0
O46 O 0.04861 0.32109 0.27732 0.0
O47 O 0.03962 0.35817 0.25341 0.0
O48 O 0.03562 0.39692 0.31308 0.0
O49 O 0.02682 0.398 0.24499 0.0
O50 O 0.09679 0.29876 0.30371 0.0
O51 O 0.08355 0.36226 0.2772 0.0
O52 O 0.08737 0.40407 0.29533 0.0
O53 O 0.10231 0.36766 0.31719 0.0
O54 O 0.0927 0.3249 0.26942 0.0
O55 O 0.11108 0.32867 0.32773 0.0
C56 C 0.03354 0.37324 0.31957 0.0
C57 C 0.99974 0.43475 0.24987 0.0
C58 C 0.96317 0.46413 0.24448 0.0
C59 C 0.97313 0.43999 0.25195 0.0
C60 C 0.98007 0.48276 0.23487 0.0
C61 C 1.01597 0.45362 0.23968 0.0
C62 C 1.00619 0.47745 0.23233 0.0
C63 C 0.03765 0.33329 0.25768 0.0
C64 C 1.01051 0.41019 0.25951 0.0
C65 C 0.10923 0.47313 0.23722 0.0
C66 C 0.11268 0.45658 0.2163 0.0
C67 C 0.0934 0.34778 0.26014 0.0
C68 C 0.11914 0.2857 0.34143 0.0
C69 C 0.13752 0.26567 0.33863 0.0
C70 C 0.14226 0.248 0.359 0.0
C71 C 0.12754 0.25042 0.38151 0.0
C72 C 0.10584 0.28776 0.36469 0.0
C73 C 0.10973 0.27013 0.38432 0.0
C74 C 0.10361 0.39267 0.3111 0.0
C75 C 0.11401 0.30484 0.32066 0.0
H76 H 0.96034 0.42555 0.2597 0.0
H77 H 0.97294 0.50139 0.22898 0.0
H78 H 0.03623 0.45002 0.23749 0.0
H79 H 1.01896 0.49191 0.22465 0.0
H80 H 0.14834 0.26423 0.32098 0.0
H81 H 0.12963 0.23692 0.39715 0.0
H82 H 0.09253 0.3032 0.3679 0.0
H83 H 0.09894 0.27184 0.40196 0.0
Tb84 Tb 0.49335 0.6539 0.77582 0.0
C85 C 0.50716 0.74331 0.84307 0.0
C86 C 0.50951 0.72111 0.88373 0.0
C87 C 0.53387 0.76028 0.87749 0.0
C88 C 0.5 0.72305 0.8584 0.0
C89 C 0.52379 0.76249 0.85262 0.0
C90 C 0.52675 0.7396 0.89301 0.0
C91 C 0.5178 0.78568 0.81313 0.0
N92 N 0.49732 0.74459 0.81903 0.0
C93 C 0.50135 0.76628 0.80461 0.0
C94 C 0.52942 0.78359 0.8371 0.0
Tb95 Tb 0.47005 0.71183 0.80667 0.0
N96 N 0.48368 0.70525 0.84854 0.0
C97 C 0.47577 0.68523 0.86367 0.0
C98 C 0.50153 0.70061 0.89896 0.0
C99 C 0.4845 0.68266 0.8889 0.0
H100 H 0.49188 0.76877 0.78631 0.0
H101 H 0.47828 0.6666 0.90048 0.0
H102 H 0.53457 0.73812 0.9122 0.0
H103 H 0.52127 0.80238 0.80129 0.0
H104 H 0.4633 0.67052 0.85664 0.0
H105 H 0.45741 0.66063 0.67857 0.0
H106 H 0.50844 0.69841 0.91844 0.0
H107 H 0.49681 0.60371 0.81519 0.0
H108 H 0.48258 0.67435 0.71592 0.0
H109 H 0.47829 0.56027 0.81815 0.0
H110 H 0.54694 0.7746 0.88499 0.0
H111 H 0.43262 0.62019 0.68003 0.0
H112 H 0.42119 0.57984 0.70394 0.0
H113 H 0.54207 0.7987 0.84373 0.0
H114 H 0.42717 0.55226 0.74184 0.0
N115 N 0.47157 0.64254 0.73922 0.0
C116 C 0.47195 0.65665 0.7171 0.0
C117 C 0.44362 0.62614 0.69663 0.0
C118 C 0.4448 0.61081 0.71861 0.0
C119 C 0.45765 0.64893 0.69572 0.0
C120 C 0.45933 0.61954 0.7397 0.0
H121 H 0.44909 0.54451 0.78424 0.0
N122 N 0.47761 0.61293 0.78026 0.0
C123 C 0.4736 0.57247 0.80201 0.0
C124 C 0.46273 0.604 0.76082 0.0
C125 C 0.48411 0.5971 0.80023 0.0
C126 C 0.45706 0.56365 0.78285 0.0
C127 C 0.45168 0.57934 0.76175 0.0
O128 O 0.52825 0.63501 0.78386 0.0
O129 O 0.50187 0.68527 0.80239 0.0
O130 O 0.498 0.72406 0.77666 0.0
O131 O 0.50634 0.68656 0.75313 0.0
O132 O 0.51106 0.64884 0.81361 0.0
O133 O 0.51933 0.64671 0.74552 0.0
O134 O 0.45014 0.74715 0.80293 0.0
O135 O 0.46323 0.68318 0.77742 0.0
O136 O 0.45887 0.64179 0.79604 0.0
O137 O 0.44445 0.67849 0.81774 0.0
O138 O 0.45319 0.72027 0.76929 0.0
O139 O 0.43604 0.71782 0.82777 0.0
C140 C 0.51317 0.6726 0.81976 0.0
C141 C 0.54647 0.61011 0.75085 0.0
C142 C 0.5831 0.58088 0.74542 0.0
C143 C 0.57315 0.60516 0.7524 0.0
C144 C 0.5661 0.56184 0.73678 0.0
C145 C 0.53011 0.59083 0.74164 0.0
C146 C 0.53988 0.56687 0.73473 0.0
C147 C 0.50859 0.7115 0.75705 0.0
C148 C 0.53578 0.63481 0.76014 0.0
C149 C 0.43613 0.57101 0.74137 0.0
C150 C 0.43268 0.58674 0.71983 0.0
C151 C 0.45298 0.69728 0.76029 0.0
C152 C 0.42858 0.76114 0.84074 0.0
C153 C 0.41063 0.78152 0.83767 0.0
C154 C 0.40644 0.79966 0.85775 0.0
C155 C 0.42134 0.79736 0.88019 0.0
C156 C 0.44198 0.75919 0.86398 0.0
C157 C 0.43869 0.77729 0.88328 0.0
C158 C 0.44291 0.65343 0.81187 0.0
C159 C 0.43317 0.74154 0.82027 0.0
H160 H 0.58601 0.61991 0.75943 0.0
H161 H 0.57323 0.5431 0.73127 0.0
H162 H 0.50976 0.59421 0.73991 0.0
H163 H 0.52703 0.55209 0.72781 0.0
H164 H 0.39968 0.78287 0.82006 0.0
H165 H 0.41969 0.81119 0.89559 0.0
H166 H 0.4549 0.74348 0.86744 0.0
H167 H 0.44959 0.77567 0.90089 0.0
Tb168 Tb 0.55256 0.15574 0.76909 0.0
C169 C 0.53932 0.24099 0.69727 0.0
C170 C 0.53986 0.21658 0.65778 0.0
C171 C 0.51492 0.25578 0.66019 0.0
C172 C 0.54801 0.22017 0.68341 0.0
C173 C 0.52285 0.2592 0.68568 0.0
C174 C 0.52333 0.23445 0.6463 0.0
C175 C 0.52391 0.28352 0.7249 0.0
N176 N 0.54669 0.24329 0.72215 0.0
C177 C 0.54028 0.26511 0.7355 0.0
C178 C 0.51487 0.28039 0.69998 0.0
Tb179 Tb 0.5753 0.21285 0.73709 0.0
N180 N 0.56333 0.20278 0.69539 0.0
C181 C 0.57096 0.1812 0.68238 0.0
C182 C 0.54808 0.19481 0.64453 0.0
C183 C 0.56361 0.17702 0.65695 0.0
H184 H 0.5481 0.26884 0.75434 0.0
H185 H 0.56969 0.15981 0.64703 0.0
H186 H 0.5168 0.23182 0.62675 0.0
H187 H 0.51863 0.30034 0.73587 0.0
H188 H 0.58198 0.16639 0.69127 0.0
H189 H 0.59048 0.1629 0.86557 0.0
H190 H 0.54219 0.19134 0.6249 0.0
H191 H 0.54847 0.10579 0.72956 0.0
H192 H 0.56524 0.1769 0.82844 0.0
H193 H 0.56539 0.06168 0.72711 0.0
H194 H 0.5022 0.26947 0.65107 0.0
H195 H 0.61368 0.12152 0.86445 0.0
H196 H 0.62318 0.08039 0.84111 0.0
H197 H 0.50224 0.29473 0.69177 0.0
H198 H 0.61587 0.05253 0.80365 0.0
N199 N 0.57478 0.14439 0.80542 0.0
C200 C 0.57525 0.15884 0.82733 0.0
C201 C 0.60271 0.12764 0.84789 0.0
C202 C 0.60069 0.11204 0.82616 0.0
C203 C 0.58958 0.15096 0.84861 0.0
C204 C 0.58628 0.12101 0.80508 0.0
H205 H 0.59363 0.04512 0.76146 0.0
N206 N 0.56768 0.11459 0.76459 0.0
C207 C 0.57045 0.07386 0.74315 0.0
C208 C 0.58225 0.10536 0.78412 0.0
C209 C 0.56086 0.09889 0.74464 0.0
C210 C 0.58648 0.0646 0.76252 0.0
C211 C 0.59242 0.08032 0.78345 0.0
O212 O 0.51748 0.13681 0.76203 0.0
O213 O 0.54335 0.18691 0.74251 0.0
O214 O 0.54749 0.22552 0.76703 0.0
O215 O 0.54062 0.18868 0.79194 0.0
O216 O 0.53364 0.15056 0.73174 0.0
O217 O 0.52707 0.14934 0.79997 0.0
O218 O 0.60669 0.22211 0.71332 0.0
O219 O 0.58268 0.18496 0.76678 0.0
O220 O 0.58709 0.14335 0.74879 0.0
O221 O 0.60262 0.18023 0.72804 0.0
O222 O 0.59381 0.22199 0.77355 0.0
O223 O 0.59239 0.24942 0.74054 0.0
C224 C 0.53147 0.17429 0.72555 0.0
C225 C 0.49957 0.11283 0.79587 0.0
C226 C 0.46287 0.08386 0.80191 0.0
C227 C 0.47294 0.10775 0.79395 0.0
C228 C 0.47965 0.06527 0.81183 0.0
C229 C 0.51576 0.09402 0.80628 0.0
C230 C 0.50585 0.07041 0.81412 0.0
C231 C 0.53783 0.21345 0.7874 0.0
C232 C 0.51034 0.1372 0.78586 0.0
C233 C 0.60767 0.07164 0.8039 0.0
C234 C 0.61186 0.08751 0.8252 0.0
C235 C 0.59366 0.1993 0.78328 0.0
C236 C 0.63581 0.25427 0.72788 0.0
C237 C 0.64476 0.27753 0.71691 0.0
C238 C 0.67017 0.28625 0.72136 0.0
C239 C 0.6861 0.27126 0.73727 0.0
C240 C 0.65227 0.23992 0.74354 0.0
C241 C 0.67722 0.24842 0.74819 0.0
C242 C 0.6039 0.1551 0.73386 0.0
C243 C 0.60935 0.24515 0.72279 0.0
H244 H 0.46021 0.12215 0.78601 0.0
H245 H 0.47239 0.04683 0.81809 0.0
H246 H 0.53607 0.0975 0.80826 0.0
H247 H 0.51855 0.05598 0.822 0.0
H248 H 0.63206 0.28858 0.70471 0.0
H249 H 0.70544 0.2774 0.74173 0.0
H250 H 0.6458 0.22214 0.75217 0.0
H251 H 0.68976 0.23728 0.76044 0.0
Tb252 Tb 0.99416 0.89357 0.2697 0.0
C253 C 1.0066 0.80578 0.20204 0.0
C254 C 1.00836 0.8286 0.1617 0.0
C255 C 0.03326 0.78966 0.16722 0.0
C256 C 0.9991 0.8262 0.18706 0.0
C257 C 0.02335 0.78692 0.19209 0.0
C258 C 0.0258 0.8105 0.15206 0.0
C259 C 1.01776 0.76295 0.23115 0.0
N260 N 0.99692 0.80398 0.22608 0.0
C261 C 1.00118 0.78204 0.24006 0.0
C262 C 0.02926 0.7656 0.20721 0.0
Tb263 Tb 0.96964 0.8364 0.23922 0.0
N264 N 0.98251 0.84356 0.19723 0.0
C265 C 0.97361 0.86321 0.18216 0.0
C266 C 0.99984 0.8491 0.14675 0.0
C267 C 0.98224 0.86635 0.15698 0.0
H268 H 0.99178 0.77907 0.2583 0.0
H269 H 0.97523 0.88215 0.14546 0.0
H270 H 0.03343 0.81234 0.13285 0.0
H271 H 1.02142 0.74606 0.24266 0.0
H272 H 0.95986 0.87682 0.18893 0.0
H273 H 0.95356 0.88572 0.3649 0.0
H274 H 1.00655 0.85166 0.12726 0.0
H275 H 1.00375 0.9459 0.23473 0.0
H276 H 0.98118 0.87291 0.32897 0.0
H277 H 0.98618 0.98985 0.23182 0.0
H278 H 0.04645 0.77561 0.15944 0.0
H279 H 0.92768 0.92542 0.36211 0.0
H280 H 0.91722 0.966 0.33805 0.0
H281 H 0.04203 0.75073 0.20027 0.0
H282 H 0.92643 0.99476 0.30173 0.0
N283 N 0.9702 0.90429 0.30507 0.0
C284 C 0.97 0.89024 0.32723 0.0
C285 C 0.93966 0.91979 0.3461 0.0
C286 C 0.94175 0.93532 0.32433 0.0
C287 C 0.95433 0.89745 0.34779 0.0
C288 C 0.95757 0.92703 0.30404 0.0
H289 H 0.95277 1.00411 0.26234 0.0
N290 N 0.9796 0.93499 0.26581 0.0
C291 C 0.97919 0.9768 0.24637 0.0
C292 C 0.96262 0.94312 0.28374 0.0
C293 C 0.98912 0.95191 0.24809 0.0
C294 C 0.96023 0.98474 0.26354 0.0
C295 C 0.95213 0.96803 0.28291 0.0
O296 O 0.03076 0.90971 0.26298 0.0
O297 O 1.00238 0.86186 0.24346 0.0
O298 O 0.99712 0.82336 0.26936 0.0
O299 O 1.00668 0.86077 0.29246 0.0
O300 O 1.01254 0.89816 0.2323 0.0
O301 O 1.01826 0.90239 0.30119 0.0
O302 O 0.9497 0.80106 0.24281 0.0
O303 O 0.9625 0.86546 0.26818 0.0
O304 O 0.96389 0.90757 0.24458 0.0
O305 O 0.94377 0.87008 0.22998 0.0
O306 O 0.95396 0.82796 0.27683 0.0
O307 O 0.93562 0.83044 0.21806 0.0
C308 C 1.01403 0.87434 0.22612 0.0
C309 C 0.04725 0.93735 0.29477 0.0
C310 C 0.0841 0.96663 0.29891 0.0
C311 C 0.07402 0.942 0.29333 0.0
C312 C 0.06713 0.9863 0.30602 0.0
C313 C 0.03097 0.95731 0.30256 0.0
C314 C 0.04084 0.98159 0.30801 0.0
C315 C 1.00822 0.83576 0.28878 0.0
C316 C 0.03638 0.91213 0.28705 0.0
C317 C 0.93494 0.97579 0.30213 0.0
C318 C 0.9297 0.95941 0.32281 0.0
C319 C 0.95272 0.85109 0.28546 0.0
C320 C 0.92793 0.78722 0.20497 0.0
C321 C 0.9096 0.76714 0.20782 0.0
C322 C 0.90517 0.74919 0.18761 0.0
C323 C 0.92016 0.75136 0.16526 0.0
C324 C 0.94146 0.78902 0.18184 0.0
C325 C 0.93791 0.7711 0.1624 0.0
C326 C 0.94539 0.89573 0.23201 0.0
C327 C 0.93269 0.80673 0.2255 0.0
H328 H 0.08685 0.92672 0.28749 0.0
H329 H 0.07431 1.00531 0.31046 0.0
H330 H 1.01057 0.95421 0.30433 0.0
H331 H 0.02804 0.99688 0.3138 0.0
H332 H 0.89856 0.76588 0.22535 0.0
H333 H 0.91831 0.73765 0.14976 0.0
H334 H 0.95469 0.80449 0.17854 0.0
H335 H 0.9489 0.77263 0.14486 0.0
Tb336 Tb 0.27868 0.05171 0.39108 0.0
C337 C 0.34589 0.04073 0.30327 0.0
C338 C 0.38612 0.03904 0.32632 0.0
C339 C 0.38109 1.0146 0.28705 0.0
C340 C 0.36073 0.04821 0.32381 0.0
C341 C 0.35608 0.02421 0.28434 0.0
C342 C 0.39604 1.02191 0.30809 0.0
C343 C 0.31686 0.02929 0.26047 0.0
N344 N 0.32169 0.0501 0.30151 0.0
C345 C 0.30771 0.04566 0.27962 0.0
C346 C 0.34102 1.01818 0.26302 0.0
Tb347 Tb 0.30827 0.07724 0.33392 0.0
N348 N 0.35037 0.06466 0.34119 0.0
C349 C 0.36527 0.07343 0.36103 0.0
C350 C 0.40087 0.04738 0.34704 0.0
C351 C 0.39044 0.06479 0.36435 0.0
H352 H 0.28933 0.05481 0.27666 0.0
H353 H 0.40181 0.07168 0.38031 0.0
H354 H 0.41533 1.01444 0.30997 0.0
H355 H 0.30537 0.02551 0.24359 0.0
H356 H 0.35836 0.08705 0.37468 0.0
H357 H 0.18208 0.08933 0.38459 0.0
H358 H 0.42039 0.04072 0.3497 0.0
H359 H 0.3145 0.04294 0.44297 0.0
H360 H 0.21873 0.0629 0.37124 0.0
H361 H 0.31734 0.06039 0.48695 0.0
H362 H 0.38912 1.00171 0.27286 0.0
H363 H 0.18465 0.11535 0.42419 0.0
H364 H 0.20896 0.12658 0.46439 0.0
H365 H 0.34814 1.00558 0.2481 0.0
H366 H 0.24591 0.11835 0.4927 0.0
N367 N 0.24273 0.07461 0.40227 0.0
C368 C 0.22035 0.0741 0.38855 0.0
C369 C 0.20095 0.10387 0.41834 0.0
C370 C 0.22301 0.10247 0.43355 0.0
C371 C 0.19939 0.08911 0.39606 0.0
C372 C 0.24369 0.08729 0.42498 0.0
H373 H 0.28605 0.09291 0.50161 0.0
N374 N 0.28265 0.0663 0.43246 0.0
C375 C 0.30249 0.06706 0.47407 0.0
C376 C 0.26435 0.08281 0.44081 0.0
C377 C 0.30078 0.05717 0.44917 0.0
C378 C 0.28488 0.08554 0.48223 0.0
C379 C 0.26514 0.09323 0.46573 0.0
O380 O 0.28621 1.0156 0.40798 0.0
O381 O 0.30457 0.04407 0.35901 0.0
O382 O 0.27776 0.05023 0.32064 0.0
O383 O 0.256 0.0389 0.35833 0.0
O384 O 0.31629 0.03345 0.39496 0.0
O385 O 0.2478 0.02662 0.39906 0.0
O386 O 0.30445 0.09714 0.2986 0.0
O387 O 0.27951 0.08351 0.36326 0.0
O388 O 0.30322 0.08254 0.40498 0.0
O389 O 0.31732 0.10317 0.36762 0.0
O390 O 0.27054 0.09316 0.3261 0.0
O391 O 0.32907 0.11151 0.32794 0.0
C392 C 0.32211 0.03222 0.37106 0.0
C393 C 0.254 0.99843 0.43459 0.0
C394 C 0.24931 0.9617 0.4638 0.0
C395 C 0.25549 0.9717 0.43936 0.0
C396 C 0.24159 0.97869 0.48322 0.0
C397 C 0.24562 1.01478 0.45424 0.0
C398 C 0.23959 1.00497 0.47839 0.0
C399 C 0.25895 0.03829 0.33321 0.0
C400 C 0.26226 1.00918 0.40957 0.0
C401 C 0.24553 0.10988 0.47373 0.0
C402 C 0.22449 0.11455 0.45761 0.0
C403 C 0.26203 0.0935 0.34927 0.0
C404 C 0.34192 0.11949 0.28472 0.0
C405 C 0.33889 0.1381 0.26489 0.0
C406 C 0.359 0.14284 0.24694 0.0
C407 C 0.38143 0.12787 0.24884 0.0
C408 C 0.3651 0.10597 0.28622 0.0
C409 C 0.38444 0.10984 0.2683 0.0
C410 C 0.31539 0.10137 0.39324 0.0
C411 C 0.32152 0.1144 0.30427 0.0
H412 H 0.26177 0.95883 0.42429 0.0
H413 H 0.2367 0.97152 0.50209 0.0
H414 H 0.24379 0.03516 0.451 0.0
H415 H 0.23332 1.01781 0.49345 0.0
H416 H 0.32131 0.14911 0.26384 0.0
H417 H 0.39686 0.12995 0.23512 0.0
H418 H 0.36851 0.09251 0.30147 0.0
H419 H 0.40203 0.09886 0.26961 0.0
Tb420 Tb 0.27098 0.99399 0.89079 0.0
C421 C 0.20357 1.00823 0.8014 0.0
C422 C 0.16289 1.01055 0.82351 0.0
C423 C 0.16918 0.03498 0.78443 0.0
C424 C 0.18822 1.00105 0.82161 0.0
C425 C 0.19404 0.02488 0.78223 0.0
C426 C 0.15363 0.02783 0.80506 0.0
C427 C 0.23346 1.01874 0.75902 0.0
N428 N 0.22756 0.99831 0.8001 0.0
C429 C 0.24195 1.00226 0.7784 0.0
C430 C 0.20955 0.03046 0.76114 0.0
Tb431 Tb 0.2399 0.97101 0.83284 0.0
N432 N 0.19804 0.98465 0.83934 0.0
C433 C 0.18285 0.9766 0.85924 0.0
C434 C 0.14761 1.00245 0.84392 0.0
C435 C 0.15762 0.98532 0.86178 0.0
H436 H 0.26021 0.99273 0.77591 0.0
H437 H 0.14599 0.97899 0.87776 0.0
H438 H 0.13444 0.03564 0.8065 0.0
H439 H 0.24529 1.02217 0.74233 0.0
H440 H 0.18986 0.96402 0.87388 0.0
H441 H 0.36864 0.95959 0.88182 0.0
H442 H 0.12812 1.00934 0.84608 0.0
H443 H 0.23251 0.99608 0.94159 0.0
H444 H 0.33074 0.98437 0.86911 0.0
H445 H 0.23058 0.97674 0.98476 0.0
H446 H 0.16169 0.04806 0.77011 0.0
H447 H 0.36825 0.93418 0.92186 0.0
H448 H 0.34525 0.92177 0.96236 0.0
H449 H 0.20293 0.04313 0.74604 0.0
H450 H 0.30776 0.92672 0.99063 0.0
N451 N 0.30813 0.97261 0.90114 0.0
C452 C 0.32999 0.9735 0.88666 0.0
C453 C 0.35139 0.94502 0.91636 0.0
C454 C 0.32967 0.94562 0.93204 0.0
C455 C 0.3517 0.9594 0.8938 0.0
C456 C 0.30821 0.95996 0.9239 0.0
H457 H 0.2652 0.94773 0.99939 0.0
N458 N 0.26749 0.97749 0.93149 0.0
C459 C 0.24655 0.97249 0.97221 0.0
C460 C 0.28729 0.96274 0.93981 0.0
C461 C 0.24774 0.98347 0.94776 0.0
C462 C 0.26609 0.95606 0.98039 0.0
C463 C 0.28698 0.95128 0.96427 0.0
O464 O 0.26264 0.02845 0.91037 0.0
O465 O 0.24416 1.00262 0.85968 0.0
O466 O 0.26971 0.99919 0.82066 0.0
O467 O 0.29318 1.00767 0.85816 0.0
O468 O 0.23305 1.01136 0.89622 0.0
O469 O 0.30096 1.02039 0.89808 0.0
O470 O 0.24356 0.95099 0.79761 0.0
O471 O 0.26929 0.96408 0.86132 0.0
O472 O 0.25104 0.95925 0.90267 0.0
O473 O 0.22887 0.94532 0.86607 0.0
O474 O 0.27732 0.95437 0.82417 0.0
O475 O 0.21872 0.93698 0.82695 0.0
C476 C 0.22679 1.01369 0.87252 0.0
C477 C 0.29567 0.04703 0.93504 0.0
C478 C 0.30138 0.0836 0.96432 0.0
C479 C 0.29423 0.07372 0.94007 0.0
C480 C 0.31006 0.06653 0.98326 0.0
C481 C 0.30493 0.03059 0.95421 0.0
C482 C 0.31199 0.04029 0.97815 0.0
C483 C 0.28923 1.00993 0.83326 0.0
C484 C 0.28622 0.03643 0.91037 0.0
C485 C 0.30774 0.93595 0.97202 0.0
C486 C 0.32906 0.93311 0.9559 0.0
C487 C 0.28641 0.95397 0.84712 0.0
C488 C 0.20568 0.92947 0.7837 0.0
C489 C 0.20865 0.91141 0.76342 0.0
C490 C 0.18856 0.90726 0.74528 0.0
C491 C 0.16621 0.92231 0.74747 0.0
C492 C 0.18252 0.943 0.78557 0.0
C493 C 0.16321 0.93976 0.76745 0.0
C494 C 0.235 0.94348 0.89102 0.0
C495 C 0.22618 0.93405 0.80326 0.0
H496 H 0.28717 0.08666 0.92539 0.0
H497 H 0.3157 0.07361 1.00197 0.0
H498 H 0.30657 1.01023 0.95078 0.0
H499 H 0.31895 0.02738 0.99285 0.0
H500 H 0.22618 0.90035 0.76216 0.0
H501 H 0.15082 0.92072 0.73361 0.0
H502 H 0.17912 0.956 0.80121 0.0
H503 H 0.14567 0.95077 0.769 0.0
Tb504 Tb 0.77617 0.49489 0.65365 0.0
C505 C 0.84428 0.50779 0.74096 0.0
C506 C 0.88451 0.50949 0.71799 0.0
C507 C 0.87915 0.53467 0.75674 0.0
C508 C 0.85917 0.50017 0.72055 0.0
C509 C 0.85431 0.5247 0.75965 0.0
C510 C 0.89421 0.5271 0.73591 0.0
C511 C 0.8154 0.51912 0.78383 0.0
N512 N 0.82026 0.49804 0.74293 0.0
C513 C 0.80641 0.50237 0.76491 0.0
C514 C 0.83929 0.53071 0.78098 0.0
Tb515 Tb 0.80698 0.47052 0.71076 0.0
N516 N 0.84894 0.48341 0.70337 0.0
C517 C 0.86393 0.4744 0.68375 0.0
C518 C 0.89938 0.50085 0.6975 0.0
C519 C 0.88909 0.48308 0.68044 0.0
H520 H 0.78822 0.49291 0.76804 0.0
H521 H 0.90055 0.47599 0.66466 0.0
H522 H 0.91341 0.53477 0.73393 0.0
H523 H 0.80398 0.52285 0.80074 0.0
H524 H 0.85712 0.46052 0.67028 0.0
H525 H 0.68059 0.45518 0.66237 0.0
H526 H 0.91885 0.5076 0.69482 0.0
H527 H 0.81073 0.50379 0.60097 0.0
H528 H 0.71685 0.48266 0.67469 0.0
H529 H 0.81332 0.48553 0.55731 0.0
H530 H 0.88698 0.54798 0.77065 0.0
H531 H 0.68298 0.4287 0.62306 0.0
H532 H 0.70679 0.41742 0.58261 0.0
H533 H 0.84629 0.5436 0.79572 0.0
H534 H 0.74307 0.42594 0.55362 0.0
N535 N 0.74049 0.47112 0.64336 0.0
C536 C 0.71839 0.47127 0.65749 0.0
C537 C 0.69912 0.44065 0.62845 0.0
C538 C 0.72083 0.44235 0.61283 0.0
C539 C 0.69765 0.45566 0.65057 0.0
C540 C 0.74129 0.45816 0.62081 0.0
H541 H 0.7826 0.45195 0.54373 0.0
N542 N 0.7796 0.4799 0.61237 0.0
C543 C 0.7988 0.4788 0.57051 0.0
C544 C 0.76154 0.46287 0.60457 0.0
C545 C 0.79725 0.48914 0.59523 0.0
C546 C 0.78151 0.45975 0.56295 0.0
C547 C 0.76217 0.45199 0.57985 0.0
O548 O 0.78297 0.53119 0.63684 0.0
O549 O 0.80258 0.50319 0.68519 0.0
O550 O 0.77672 0.49776 0.72392 0.0
O551 O 0.75378 0.50771 0.68653 0.0
O552 O 0.81355 0.51325 0.64882 0.0
O553 O 0.74477 0.51927 0.64533 0.0
O554 O 0.80347 0.45069 0.74612 0.0
O555 O 0.77793 0.46341 0.6818 0.0
O556 O 0.80111 0.46449 0.63974 0.0
O557 O 0.8161 0.44454 0.67716 0.0
O558 O 0.76943 0.45462 0.71923 0.0
O559 O 0.82819 0.43653 0.71681 0.0
C560 C 0.81985 0.51479 0.67259 0.0
C561 C 0.75063 0.54769 0.6099 0.0
C562 C 0.74579 0.58429 0.58049 0.0
C563 C 0.75193 0.57442 0.60502 0.0
C564 C 0.73827 0.56715 0.56111 0.0
C565 C 0.74244 0.5312 0.59025 0.0
C566 C 0.73643 0.54088 0.56604 0.0
C567 C 0.7574 0.50903 0.71153 0.0
C568 C 0.7589 0.53707 0.635 0.0
C569 C 0.74281 0.43477 0.57244 0.0
C570 C 0.72215 0.42992 0.58895 0.0
C571 C 0.76071 0.45354 0.69614 0.0
C572 C 0.84125 0.42889 0.76003 0.0
C573 C 0.83845 0.41038 0.77994 0.0
C574 C 0.85863 0.40597 0.79793 0.0
C575 C 0.88091 0.42113 0.79595 0.0
C576 C 0.86429 0.44265 0.75845 0.0
C577 C 0.8837 0.43908 0.77639 0.0
C578 C 0.81385 0.44608 0.65155 0.0
C579 C 0.82074 0.43364 0.7405 0.0
H580 H 0.75809 0.5874 0.62006 0.0
H581 H 0.73342 0.5742 0.54216 0.0
H582 H 0.74079 0.5108 0.59355 0.0
H583 H 0.73032 0.52793 0.55099 0.0
H584 H 0.82098 0.3992 0.78104 0.0
H585 H 0.89638 0.41927 0.80969 0.0
H586 H 0.86751 0.45608 0.74314 0.0
H587 H 0.90117 0.45022 0.77502 0.0
Tb588 Tb 0.7703 0.55229 0.15436 0.0
C589 C 0.70258 0.54073 0.24204 0.0
C590 C 0.66211 0.53956 0.21937 0.0
C591 C 0.66741 0.51453 0.25823 0.0
C592 C 0.68763 0.54846 0.2217 0.0
C593 C 0.69246 0.52406 0.26088 0.0
C594 C 0.65227 0.52226 0.23749 0.0
C595 C 0.7317 0.52907 0.28472 0.0
N596 N 0.72677 0.55011 0.2438 0.0
C597 C 0.74077 0.54561 0.26568 0.0
C598 C 0.70759 0.51788 0.28211 0.0
Tb599 Tb 0.74013 0.57742 0.21148 0.0
N600 N 0.69797 0.56493 0.20433 0.0
C601 C 0.68296 0.57402 0.18472 0.0
C602 C 0.6472 0.5483 0.19894 0.0
C603 C 0.65763 0.56574 0.18166 0.0
H604 H 0.75909 0.55485 0.26871 0.0
H605 H 0.64615 0.5729 0.1659 0.0
H606 H 0.6329 0.51494 0.23574 0.0
H607 H 0.74322 0.52523 0.30156 0.0
H608 H 0.68988 0.58764 0.17107 0.0
H609 H 0.86691 0.58956 0.1629 0.0
H610 H 0.62759 0.54187 0.19645 0.0
H611 H 0.73548 0.54421 0.10165 0.0
H612 H 0.83005 0.56296 0.17525 0.0
H613 H 0.73317 0.56265 0.05803 0.0
H614 H 0.65947 0.50147 0.2723 0.0
H615 H 0.86491 0.61635 0.1238 0.0
H616 H 0.84112 0.62846 0.08352 0.0
H617 H 0.70052 0.50518 0.29696 0.0
H618 H 0.80453 0.62089 0.05457 0.0
N619 N 0.80651 0.57522 0.14406 0.0
C620 C 0.82869 0.57445 0.15811 0.0
C621 C 0.84853 0.60476 0.12917 0.0
C622 C 0.82668 0.60368 0.11363 0.0
C623 C 0.84977 0.58957 0.15118 0.0
C624 C 0.8059 0.58831 0.12159 0.0
H625 H 0.76451 0.59566 0.04457 0.0
N626 N 0.76708 0.56746 0.11312 0.0
C627 C 0.74784 0.56905 0.07126 0.0
C628 C 0.78547 0.58415 0.10538 0.0
C629 C 0.74924 0.5586 0.09594 0.0
C630 C 0.76548 0.58779 0.06377 0.0
C631 C 0.785 0.59512 0.0807 0.0
O632 O 0.76271 0.51631 0.13721 0.0
O633 O 0.74392 0.54452 0.18605 0.0
O634 O 0.77054 0.55034 0.22476 0.0
O635 O 0.79253 0.53905 0.18721 0.0
O636 O 0.73262 0.53445 0.14974 0.0
O637 O 0.80113 0.52716 0.14624 0.0
O638 O 0.7434 0.59718 0.24693 0.0
O639 O 0.76913 0.58387 0.18242 0.0
O640 O 0.74583 0.5831 0.14044 0.0
O641 O 0.73103 0.60328 0.17778 0.0
O642 O 0.77781 0.59325 0.21971 0.0
O643 O 0.71965 0.61193 0.21706 0.0
C644 C 0.72643 0.53309 0.17354 0.0
C645 C 0.79489 0.49924 0.11048 0.0
C646 C 0.79933 0.46275 0.08089 0.0
C647 C 0.79321 0.47256 0.10543 0.0
C648 C 0.8072 0.47988 0.06166 0.0
C649 C 0.80344 0.51571 0.09101 0.0
C650 C 0.80942 0.50609 0.06678 0.0
C651 C 0.78938 0.53837 0.2123 0.0
C652 C 0.78664 0.50982 0.13558 0.0
C653 C 0.80469 0.61197 0.07334 0.0
C654 C 0.82552 0.61628 0.08983 0.0
C655 C 0.78648 0.59381 0.1966 0.0
C656 C 0.70589 0.61994 0.25996 0.0
C657 C 0.7087 0.63845 0.27988 0.0
C658 C 0.68825 0.64341 0.29737 0.0
C659 C 0.66567 0.62876 0.29491 0.0
C660 C 0.68255 0.60675 0.25785 0.0
C661 C 0.66285 0.61084 0.27532 0.0
C662 C 0.73325 0.60164 0.15218 0.0
C663 C 0.72668 0.61466 0.24091 0.0
H664 H 0.78678 0.45959 0.12035 0.0
H665 H 0.81206 0.47287 0.04271 0.0
H666 H 0.80541 0.53605 0.09446 0.0
H667 H 0.81581 0.51903 0.05186 0.0
H668 H 0.7264 0.64922 0.28136 0.0
H669 H 0.64996 0.63103 0.30828 0.0
H670 H 0.67931 0.5934 0.24248 0.0
H671 H 0.64515 0.60012 0.27356 0.0
Tb672 Tb 0.39232 0.27852 0.05059 0.0
C673 C 0.30734 0.34743 0.0369 0.0
C674 C 0.33021 0.3878 0.039 0.0
C675 C 0.29311 0.3839 1.01123 0.0
C676 C 0.32705 0.36201 0.0469 0.0
C677 C 0.28986 0.35841 1.01925 0.0
C678 C 0.31333 0.39852 1.02099 0.0
C679 C 0.26612 0.31885 1.01982 0.0
N680 N 0.30512 0.32261 0.04455 0.0
C681 C 0.28372 0.30891 0.03742 0.0
C682 C 0.26943 0.34357 1.01034 0.0
Tb683 Tb 0.33481 0.30837 0.0744 0.0
N684 N 0.34348 0.35082 0.06382 0.0
C685 C 0.36276 0.3653 0.07442 0.0
C686 C 0.35039 0.40209 0.04924 0.0
C687 C 0.36661 0.39082 0.06714 0.0
H688 H 0.2796 0.2903 0.04558 0.0
H689 H 0.38209 0.40184 0.07553 0.0
H690 H 0.31574 0.41815 1.01457 0.0
H691 H 0.24971 0.30755 1.01395 0.0
H692 H 0.3754 0.358 0.08875 0.0
H693 H 0.38421 0.18205 0.08845 0.0
H694 H 0.35348 0.42187 0.04361 0.0
H695 H 0.44458 0.31409 0.0432 0.0
H696 H 0.37169 0.2187 0.06164 0.0
H697 H 0.48806 0.3168 0.06192 0.0
H698 H 0.28001 0.39251 0.99757 0.0
H699 H 0.42328 0.18438 0.1153 0.0
H700 H 0.46336 0.20845 0.12742 0.0
H701 H 0.25568 0.35129 0.99678 0.0
H702 H 0.49203 0.24525 0.11991 0.0
N703 N 0.40274 0.24249 0.07381 0.0
C704 C 0.38881 0.22023 0.07315 0.0
C705 C 0.41782 0.20068 0.10361 0.0
C706 C 0.43323 0.22262 0.10247 0.0
C707 C 0.39584 0.19926 0.08838 0.0
C708 C 0.42517 0.2433 0.08699 0.0
H709 H 0.50174 0.28541 0.09481 0.0
N710 N 0.43336 0.28221 0.06618 0.0
C711 C 0.47497 0.30195 0.06818 0.0
C712 C 0.44121 0.26386 0.08288 0.0
C713 C 0.45035 0.30032 0.05757 0.0
C714 C 0.48258 0.28428 0.08685 0.0
C715 C 0.46583 0.26457 0.09401 0.0
O716 O 0.40975 0.28611 1.01481 0.0
O717 O 0.36053 0.30463 0.04185 0.0
O718 O 0.32211 0.27714 0.04814 0.0
O719 O 0.36001 0.25572 0.03713 0.0
O720 O 0.39695 0.31641 0.03302 0.0
O721 O 0.40106 0.24763 0.02574 0.0
O722 O 0.32517 0.3311 0.10652 0.0
O723 O 0.3638 0.27955 0.08171 0.0
O724 O 0.40541 0.303 0.08179 0.0
O725 O 0.36753 0.31635 0.10204 0.0
O726 O 0.32668 0.27137 0.0919 0.0
O727 O 0.2978 0.30501 0.09051 0.0
C728 C 0.37313 0.32235 0.0309 0.0
C729 C 0.43674 0.25407 0.99783 0.0
C730 C 0.46608 0.24934 0.96124 0.0
C731 C 0.44152 0.25529 0.97111 0.0
C732 C 0.48558 0.24208 0.97836 0.0
C733 C 0.45649 0.24616 1.01431 0.0
C734 C 0.48073 0.24032 1.00462 0.0
C735 C 0.33488 0.25839 0.03643 0.0
C736 C 0.41159 0.26216 1.0084 0.0
C737 C 0.47331 0.24493 0.1109 0.0
C738 C 0.45698 0.22398 0.11516 0.0
C739 C 0.3497 0.26244 0.09219 0.0
C740 C 0.29209 0.31613 0.13429 0.0
C741 C 0.2687 0.32701 0.14305 0.0
C742 C 0.25948 0.32199 0.16816 0.0
C743 C 0.27404 0.30554 0.18395 0.0
C744 C 0.30596 0.2999 0.1506 0.0
C745 C 0.29693 0.29465 0.17522 0.0
C746 C 0.39324 0.31468 0.10066 0.0
C747 C 0.30194 0.32201 0.10826 0.0
H748 H 0.42639 0.26124 0.95815 0.0
H749 H 0.50455 0.23737 0.97131 0.0
H750 H 0.45326 0.24459 0.0347 0.0
H751 H 0.49587 0.23442 1.01756 0.0
H752 H 0.25797 0.33964 0.13049 0.0
H753 H 0.26751 0.30071 0.20305 0.0
H754 H 0.32382 0.29132 0.1443 0.0
H755 H 0.30774 0.28199 0.18766 0.0
Tb756 Tb 0.8917 0.27008 0.99409 0.0
C757 C 0.8033 0.20229 1.00461 0.0
C758 C 0.82632 0.16205 1.00683 0.0
C759 C 0.78643 0.167 0.03021 0.0
C760 C 0.82401 0.18747 0.99764 0.0
C761 C 0.78397 0.19204 1.0206 0.0
C762 C 0.80765 0.15207 0.02343 0.0
C763 C 0.76021 0.23128 1.01498 0.0
N764 N 0.80174 0.2265 0.99521 0.0
C765 C 0.77975 0.24048 0.99913 0.0
C766 C 0.76249 0.20708 0.0261 0.0
Tb767 Tb 0.83463 0.23987 0.9687 0.0
N768 N 0.84176 0.19786 0.98163 0.0
C769 C 0.86187 0.18304 0.97341 0.0
C770 C 0.84725 0.14733 0.99899 0.0
C771 C 0.865 0.15785 0.98208 0.0
H772 H 0.77708 0.25891 0.98997 0.0
H773 H 0.88117 0.14652 0.97565 0.0
H774 H 0.80935 0.13275 0.0309 0.0
H775 H 0.74325 0.24276 1.01835 0.0
H776 H 0.87594 0.1901 0.96032 0.0
H777 H 0.88443 0.36656 0.95613 0.0
H778 H 0.84976 0.1278 1.00568 0.0
H779 H 0.94394 0.23476 1.00289 0.0
H780 H 0.87148 0.32995 0.98281 0.0
H781 H 0.98773 0.23195 0.98499 0.0
H782 H 0.77192 0.15891 0.04268 0.0
H783 H 0.92384 0.36409 0.92987 0.0
H784 H 0.96405 0.33989 0.91842 0.0
H785 H 0.74726 0.19992 0.03828 0.0
H786 H 0.99256 0.30307 0.92653 0.0
N787 N 0.90258 0.30608 0.97108 0.0
C788 C 0.88873 0.32838 0.97154 0.0
C789 C 0.91818 0.34781 0.94149 0.0
C790 C 0.93352 0.32584 0.9429 0.0
C791 C 0.89601 0.34932 0.95638 0.0
C792 C 0.9252 0.30521 0.95828 0.0
H793 H 1.00187 0.26302 0.95201 0.0
N794 N 0.93306 0.2664 0.97941 0.0
C795 C 0.97473 0.24673 0.97838 0.0
C796 C 0.94117 0.28466 0.96276 0.0
C797 C 0.94995 0.24842 0.98852 0.0
C798 C 0.98261 0.26423 0.95967 0.0
C799 C 0.96597 0.28389 0.95208 0.0
O800 O 0.90847 0.26272 0.03027 0.0
O801 O 0.85992 0.24382 1.00165 0.0
O802 O 0.82133 0.26973 0.99631 0.0
O803 O 0.85872 0.29254 1.00667 0.0
O804 O 0.89594 0.23255 1.01249 0.0
O805 O 0.89966 0.3011 1.01906 0.0
O806 O 0.79968 0.24382 0.94818 0.0
O807 O 0.86374 0.26892 0.96239 0.0
O808 O 0.90565 0.24553 0.96336 0.0
O809 O 0.86835 0.23074 0.94301 0.0
O810 O 0.82645 0.27759 0.95291 0.0
O811 O 0.82899 0.21865 0.93467 0.0
C812 C 0.8721 0.22642 1.01354 0.0
C813 C 0.93515 0.29496 0.04737 0.0
C814 C 0.96452 0.29936 0.08406 0.0
C815 C 0.94002 0.29326 0.07407 0.0
C816 C 0.98387 0.30724 0.0671 0.0
C817 C 0.95476 0.30348 0.03106 0.0
C818 C 0.97894 0.30946 0.04087 0.0
C819 C 0.83369 0.28895 1.00781 0.0
C820 C 0.91012 0.28671 0.03659 0.0
C821 C 0.9737 0.30344 0.93523 0.0
C822 C 0.95746 0.3244 0.93061 0.0
C823 C 0.84956 0.28629 0.95247 0.0
C824 C 0.78574 0.20592 0.92658 0.0
C825 C 0.76551 0.20908 0.90845 0.0
C826 C 0.74737 0.18903 0.90406 0.0
C827 C 0.74945 0.16657 0.91897 0.0
C828 C 0.78752 0.18263 0.9399 0.0
C829 C 0.76937 0.16339 0.93646 0.0
C830 C 0.89394 0.23301 0.94473 0.0
C831 C 0.80539 0.22631 0.93139 0.0
H832 H 0.925 0.28683 0.0869 0.0
H833 H 1.00279 0.31206 0.07425 0.0
H834 H 0.95147 0.30542 1.01071 0.0
H835 H 0.99397 0.31583 0.02806 0.0
H836 H 0.76431 0.2267 0.89752 0.0
H837 H 0.73558 0.15121 0.91719 0.0
H838 H 0.80314 0.17905 0.95288 0.0
H839 H 0.77086 0.14575 0.94733 0.0
Tb840 Tb 0.65362 0.7784 0.49367 0.0
C841 C 0.74051 0.84708 0.50671 0.0
C842 C 0.71762 0.88751 0.50628 0.0
C843 C 0.75628 0.8833 0.53182 0.0
C844 C 0.72032 0.86181 0.49793 0.0
C845 C 0.75896 0.85785 0.52347 0.0
C846 C 0.73555 0.89804 0.52337 0.0
C847 C 0.78237 0.8181 0.52142 0.0
N848 N 0.74218 0.82231 0.4988 0.0
C849 C 0.76376 0.80837 0.50475 0.0
C850 C 0.77977 0.84282 0.53115 0.0
Tb851 Tb 0.71118 0.80861 0.47014 0.0
N852 N 0.70295 0.85081 0.48183 0.0
C853 C 0.6829 0.86526 0.47279 0.0
C854 C 0.69685 0.90187 0.49742 0.0
C855 C 0.67949 0.8907 0.48053 0.0
H856 H 0.76706 0.78964 0.49644 0.0
H857 H 0.6634 0.90172 0.47338 0.0
H858 H 0.73357 0.91761 0.5301 0.0
H859 H 0.79895 0.80662 0.52641 0.0
H860 H 0.66912 0.85784 0.45962 0.0
H861 H 0.65812 0.68334 0.45195 0.0
H862 H 0.69408 0.92158 0.50345 0.0
H863 H 0.60272 0.81537 0.50367 0.0
H864 H 0.67237 0.71869 0.47969 0.0
H865 H 0.55865 0.81956 0.48693 0.0
H866 H 0.77016 0.89179 0.54477 0.0
H867 H 0.61808 0.68743 0.4268 0.0
H868 H 0.57796 0.71261 0.41739 0.0
H869 H 0.79428 0.85038 0.54399 0.0
H870 H 0.5504 0.74965 0.42745 0.0
N871 N 0.64155 0.7436 0.46942 0.0
C872 C 0.65494 0.72102 0.46879 0.0
C873 C 0.62436 0.7032 0.43881 0.0
C874 C 0.60948 0.72538 0.44137 0.0
C875 C 0.64689 0.70078 0.45306 0.0
C876 C 0.61864 0.74535 0.45718 0.0
H877 H 0.54275 0.78929 0.45402 0.0
N878 N 0.61224 0.78379 0.47948 0.0
C879 C 0.5711 0.8046 0.47972 0.0
C880 C 0.60325 0.76611 0.46261 0.0
C881 C 0.59611 0.80215 0.48916 0.0
C882 C 0.56224 0.78756 0.46103 0.0
C883 C 0.57819 0.76769 0.4526 0.0
O884 O 0.63775 0.78486 0.53041 0.0
O885 O 0.68553 0.80427 0.50251 0.0
O886 O 0.72329 0.77849 0.49804 0.0
O887 O 0.68597 0.75456 0.50522 0.0
O888 O 0.64941 0.81577 0.51251 0.0
O889 O 0.6447 0.74669 0.51742 0.0
O890 O 0.72103 0.83251 0.43894 0.0
O891 O 0.68219 0.77985 0.46254 0.0
O892 O 0.64045 0.80327 0.46281 0.0
O893 O 0.67831 0.81728 0.4429 0.0
O894 O 0.71943 0.77169 0.45258 0.0
O895 O 0.74734 0.804 0.45253 0.0
C896 C 0.67325 0.82172 0.51414 0.0
C897 C 0.60988 0.75311 0.54646 0.0
C898 C 0.58071 0.74858 0.58326 0.0
C899 C 0.60535 0.75402 0.57326 0.0
C900 C 0.56087 0.74216 0.56619 0.0
C901 C 0.58976 0.74599 0.53006 0.0
C902 C 0.56545 0.7407 0.53986 0.0
C903 C 0.71082 0.75847 0.50787 0.0
C904 C 0.63513 0.76072 0.53571 0.0
C905 C 0.56953 0.74871 0.43553 0.0
C906 C 0.58521 0.72761 0.42983 0.0
C907 C 0.6964 0.76281 0.45211 0.0
C908 C 0.75278 0.81773 0.40945 0.0
C909 C 0.77612 0.82871 0.40068 0.0
C910 C 0.78483 0.82465 0.37519 0.0
C911 C 0.76971 0.80908 0.35902 0.0
C912 C 0.73834 0.80244 0.39273 0.0
C913 C 0.74681 0.79816 0.36772 0.0
C914 C 0.6526 0.81535 0.44417 0.0
C915 C 0.74371 0.82233 0.43602 0.0
H916 H 0.62075 0.75933 0.58618 0.0
H917 H 0.54184 0.73786 0.57333 0.0
H918 H 0.59276 0.74461 0.50963 0.0
H919 H 0.55004 0.73543 0.52697 0.0
H920 H 0.78725 0.84062 0.41359 0.0
H921 H 0.7758 0.80487 0.33963 0.0
H922 H 0.72053 0.79379 0.39905 0.0
H923 H 0.73559 0.78619 0.35497 0.0
Tb924 Tb 0.15554 0.77098 0.55173 0.0
C925 C 0.24426 0.70165 0.53961 0.0
C926 C 0.22103 0.66157 0.53686 0.0
C927 C 0.26129 0.66638 0.51409 0.0
C928 C 0.22339 0.68692 0.54624 0.0
C929 C 0.26373 0.6914 0.52379 0.0
C930 C 0.23991 0.65154 0.52054 0.0
C931 C 0.28743 0.73064 0.5296 0.0
N932 N 0.24576 0.72585 0.54905 0.0
C933 C 0.26774 0.73986 0.54526 0.0
C934 C 0.28527 0.70642 0.51851 0.0
Tb935 Tb 0.21279 0.73915 0.5755 0.0
N936 N 0.20537 0.69741 0.56186 0.0
C937 C 0.1846 0.68297 0.56907 0.0
C938 C 0.19976 0.64704 0.54411 0.0
C939 C 0.18151 0.65779 0.56034 0.0
H940 H 0.27027 0.75835 0.55437 0.0
H941 H 0.16485 0.64677 0.56596 0.0
H942 H 0.23819 0.63228 0.51293 0.0
H943 H 0.3044 0.74214 0.52634 0.0
H944 H 0.16961 0.69061 0.58083 0.0
H945 H 0.1649 0.86868 0.58606 0.0
H946 H 0.19722 0.62757 0.53726 0.0
H947 H 0.10457 0.73268 0.54925 0.0
H948 H 0.1776 0.8306 0.56153 0.0
H949 H 0.06117 0.73104 0.56808 0.0
H950 H 0.27591 0.65828 0.50175 0.0
H951 H 0.12454 0.86863 0.61093 0.0
H952 H 0.08369 0.84591 0.62284 0.0
H953 H 0.3006 0.69925 0.50646 0.0
H954 H 0.05521 0.80855 0.61765 0.0
N955 N 0.14525 0.80824 0.57293 0.0
C956 C 0.15991 0.83001 0.57218 0.0
C957 C 0.13004 0.85169 0.6002 0.0
C958 C 0.11419 0.83006 0.59944 0.0
C959 C 0.15278 0.85181 0.58613 0.0
C960 C 0.12233 0.80849 0.58527 0.0
H961 H 0.04642 0.76589 0.59675 0.0
N962 N 0.11466 0.76773 0.56778 0.0
C963 C 0.07375 0.74699 0.57239 0.0
C964 C 0.1063 0.78765 0.58234 0.0
C965 C 0.09834 0.74802 0.5617 0.0
C966 C 0.06551 0.76666 0.58862 0.0
C967 C 0.0817 0.78751 0.5935 0.0
O968 O 0.13592 0.76299 0.51722 0.0
O969 O 0.18641 0.74386 0.54361 0.0
O970 O 0.22574 0.76854 0.54722 0.0
O971 O 0.18873 0.79275 0.53853 0.0
O972 O 0.15002 0.73324 0.5338 0.0
O973 O 0.14915 0.80107 0.52525 0.0
O974 O 0.24784 0.74241 0.59594 0.0
O975 O 0.18469 0.76902 0.58193 0.0
O976 O 0.14315 0.75124 0.58643 0.0
O977 O 0.1793 0.72867 0.6009 0.0
O978 O 0.22186 0.77658 0.59202 0.0
O979 O 0.21789 0.71811 0.60969 0.0
C980 C 0.1737 0.72674 0.53199 0.0
C981 C 0.11207 0.79663 0.49862 0.0
C982 C 0.08264 0.80257 0.46221 0.0
C983 C 0.10671 0.79476 0.47203 0.0
C984 C 0.06421 0.81233 0.47923 0.0
C985 C 0.09341 0.80694 0.51499 0.0
C986 C 0.06965 0.81466 0.50534 0.0
C987 C 0.21358 0.78831 0.53642 0.0
C988 C 0.1365 0.78658 0.50923 0.0
C989 C 0.07393 0.80839 0.60865 0.0
C990 C 0.09017 0.82963 0.61164 0.0
C991 C 0.19904 0.78599 0.59209 0.0
C992 C 0.26081 0.70432 0.61772 0.0
C993 C 0.28133 0.70726 0.63553 0.0
C994 C 0.29903 0.68686 0.63999 0.0
C995 C 0.2962 0.66421 0.62549 0.0
C996 C 0.25828 0.68089 0.60475 0.0
C997 C 0.27598 0.66125 0.60829 0.0
C998 C 0.15445 0.73517 0.60244 0.0
C999 C 0.24169 0.72517 0.61284 0.0
H1000 H 0.12098 0.78688 0.45915 0.0
H1001 H 0.04563 0.81848 0.4722 0.0
H1002 H 0.0971 0.80893 0.53526 0.0
H1003 H 0.05535 0.82245 0.51821 0.0
H1004 H 0.28309 0.72502 0.64617 0.0
H1005 H 0.30971 0.64854 0.62733 0.0
H1006 H 0.24241 0.67753 0.59198 0.0
H1007 H 0.27392 0.64349 0.59771 0.0
Tb1008 Tb 0.97036 0.71291 0.73752 0.0
C1009 C 0.96285 0.60599 0.78191 0.0
C1010 C 0.94273 0.61337 0.82297 0.0
C1011 C 0.93537 0.57321 0.80038 0.0
C1012 C 0.95824 0.62185 0.80251 0.0
C1013 C 0.95222 0.58115 0.78094 0.0
C1014 C 0.93058 0.58934 0.82136 0.0
C1015 C 0.97838 0.57281 0.74365 0.0
N1016 N 0.97948 0.61431 0.76374 0.0
C1017 C 0.98847 0.59764 0.74552 0.0
C1018 C 0.95982 0.56469 0.76116 0.0
Tb1019 Tb 0.99434 0.6556 0.76791 0.0
N1020 N 0.97092 0.64456 0.80357 0.0
C1021 C 0.97104 0.6584 0.82588 0.0
C1022 C 0.94102 0.62866 0.84493 0.0
C1023 C 0.95572 0.65097 0.84662 0.0
H1024 H 1.00277 0.60378 0.73188 0.0
H1025 H 0.95523 0.66254 0.86385 0.0
H1026 H 0.91833 0.58262 0.83673 0.0
H1027 H 0.98496 0.55996 0.72874 0.0
H1028 H 0.98219 0.67574 0.82763 0.0
H1029 H 0.97201 0.66418 0.64487 0.0
H1030 H 0.92928 0.62289 0.86106 0.0
H1031 H 0.99761 0.7688 0.75554 0.0
H1032 H 0.95864 0.67062 0.68866 0.0
H1033 H 0.02791 0.79994 0.73803 0.0
H1034 H 0.92677 0.55429 0.79988 0.0
H1035 H 1.00235 0.69418 0.62449 0.0
H1036 H 0.02952 0.73336 0.6278 0.0
H1037 H 0.95226 0.54537 0.75984 0.0
H1038 H 0.04494 0.77002 0.65309 0.0
N1039 N 0.98152 0.70412 0.69529 0.0
C1040 C 0.97204 0.68407 0.6811 0.0
C1041 C 0.99655 0.69725 0.6442 0.0
C1042 C 1.00581 0.71805 0.65826 0.0
C1043 C 0.97951 0.68026 0.65566 0.0
C1044 C 0.99773 0.72115 0.68398 0.0
H1045 H 0.04497 0.79454 0.69422 0.0
N1046 N 0.99928 0.74341 0.72319 0.0
C1047 C 1.02257 0.78331 0.72679 0.0
C1048 C 1.00691 0.74137 0.69839 0.0
C1049 C 1.00572 0.76506 0.73685 0.0
C1050 C 0.03199 0.78031 0.70203 0.0
C1051 C 0.02383 0.75947 0.6873 0.0
O1052 O 0.9385 0.72235 0.71432 0.0
O1053 O 0.96313 0.68404 0.76646 0.0
O1054 O 0.96315 0.64225 0.74352 0.0
O1055 O 0.94302 0.67999 0.72938 0.0
O1056 O 0.95289 0.72127 0.77442 0.0
O1057 O 0.95337 0.74948 0.74139 0.0
O1058 O 0.03049 0.63875 0.76077 0.0
O1059 O 1.00288 0.68736 0.74186 0.0
O1060 O 0.99752 0.72564 0.76796 0.0
O1061 O 1.00676 0.68817 0.79099 0.0
O1062 O 1.01265 0.65114 0.73035 0.0
O1063 O 1.01895 0.64725 0.7991 0.0
C1064 C 0.95268 0.69828 0.78344 0.0
C1065 C 0.90984 0.75476 0.72928 0.0
C1066 C 0.87585 0.78728 0.72342 0.0
C1067 C 0.90111 0.77829 0.7187 0.0
C1068 C 0.85986 0.7723 0.73924 0.0
C1069 C 0.89335 0.74043 0.74489 0.0
C1070 C 0.86855 0.74921 0.74982 0.0
C1071 C 0.94436 0.65428 0.73151 0.0
C1072 C 0.93613 0.74538 0.72387 0.0
C1073 C 0.03189 0.7564 0.66183 0.0
C1074 C 0.02302 0.73563 0.64739 0.0
C1075 C 1.01434 0.675 0.72437 0.0
C1076 C 0.04745 0.61194 0.79294 0.0
C1077 C 0.07422 0.6075 0.79183 0.0
C1078 C 0.08442 0.58313 0.79804 0.0
C1079 C 0.06761 0.56342 0.80537 0.0
C1080 C 0.03122 0.59198 0.80085 0.0
C1081 C 0.04125 0.5679 0.8069 0.0
C1082 C 1.00834 0.71318 0.78746 0.0
C1083 C 0.03662 0.63696 0.78479 0.0
H1084 H 0.91384 0.78934 0.70655 0.0
H1085 H 0.84063 0.77863 0.74386 0.0
H1086 H 0.89966 0.72247 0.75326 0.0
H1087 H 0.85597 0.73808 0.76201 0.0
H1088 H 0.087 0.62279 0.78591 0.0
H1089 H 0.07498 0.5446 0.81027 0.0
H1090 H 1.01077 0.59495 0.80228 0.0
H1091 H 0.02852 0.5526 0.81282 0.0
Tb1092 Tb 0.57605 0.3356 0.23955 0.0
C1093 C 0.58309 0.44201 0.28477 0.0
C1094 C 0.60298 0.43395 0.32584 0.0
C1095 C 0.61103 0.4742 0.30366 0.0
C1096 C 0.58746 0.42588 0.3052 0.0
C1097 C 0.59404 0.46672 0.28412 0.0
C1098 C 0.61552 0.4578 0.32451 0.0
C1099 C 0.56775 0.47592 0.24706 0.0
N1100 N 0.56631 0.43414 0.2665 0.0
C1101 C 0.55734 0.45121 0.24863 0.0
C1102 C 0.58659 0.48354 0.26455 0.0
Tb1103 Tb 0.55129 0.39284 0.26993 0.0
N1104 N 0.57445 0.40334 0.30595 0.0
C1105 C 0.57392 0.38935 0.32815 0.0
C1106 C 0.6043 0.41847 0.3477 0.0
C1107 C 0.5892 0.3964 0.3491 0.0
H1108 H 0.54287 0.44542 0.23497 0.0
H1109 H 0.58938 0.38472 0.36625 0.0
H1110 H 0.62783 0.46419 0.34 0.0
H1111 H 0.56125 0.48907 0.23235 0.0
H1112 H 0.5625 0.37217 0.32963 0.0
H1113 H 0.57178 0.38185 0.14591 0.0
H1114 H 0.61602 0.42393 0.36397 0.0
H1115 H 0.55299 0.27841 0.25808 0.0
H1116 H 0.58681 0.37609 0.18947 0.0
H1117 H 0.523 0.24595 0.242 0.0
H1118 H 0.61994 0.49298 0.30337 0.0
H1119 H 0.5402 0.35187 0.12728 0.0
H1120 H 0.51279 0.31289 0.13241 0.0
H1121 H 0.59447 0.50274 0.26343 0.0
H1122 H 0.49908 0.27622 0.15868 0.0
N1123 N 0.56361 0.34313 0.19745 0.0
C1124 C 0.57289 0.36272 0.18254 0.0
C1125 C 0.54672 0.34914 0.14682 0.0
C1126 C 0.53782 0.32868 0.1616 0.0
C1127 C 0.56448 0.3661 0.1573 0.0
C1128 C 0.54685 0.32605 0.18704 0.0
H1129 H 0.50279 0.25112 0.19944 0.0
N1130 N 0.54838 0.30364 0.22601 0.0
C1131 C 0.52696 0.26286 0.23063 0.0
C1132 C 0.53894 0.30567 0.20186 0.0
C1133 C 0.54373 0.28167 0.23981 0.0
C1134 C 0.51569 0.26578 0.20659 0.0
C1135 C 0.52202 0.28708 0.19163 0.0
O1136 O 0.59551 0.30001 0.24317 0.0
O1137 O 0.58278 0.36466 0.2686 0.0
O1138 O 0.58206 0.40667 0.24537 0.0
O1139 O 0.60216 0.36919 0.23069 0.0
O1140 O 0.59213 0.32729 0.2771 0.0
O1141 O 0.61008 0.32925 0.21857 0.0
O1142 O 0.51511 0.40961 0.26248 0.0
O1143 O 0.5433 0.36115 0.24358 0.0
O1144 O 0.5489 0.32241 0.26981 0.0
O1145 O 0.53839 0.35995 0.29229 0.0
O1146 O 0.5334 0.39751 0.23229 0.0
O1147 O 0.52642 0.40119 0.30088 0.0
C1148 C 0.59275 0.35039 0.28585 0.0
C1149 C 0.61719 0.28592 0.20544 0.0
C1150 C 0.63931 0.24749 0.18817 0.0
C1151 C 0.63519 0.26554 0.20835 0.0
C1152 C 0.62428 0.24983 0.16582 0.0
C1153 C 0.6037 0.28792 0.18227 0.0
C1154 C 0.60689 0.26988 0.16289 0.0
C1155 C 0.6006 0.39483 0.23288 0.0
C1156 C 0.61266 0.30548 0.22598 0.0
C1157 C 0.51237 0.29006 0.16667 0.0
C1158 C 0.52023 0.31086 0.15169 0.0
C1159 C 0.53186 0.37369 0.22612 0.0
C1160 C 0.49794 0.43653 0.29446 0.0
C1161 C 0.47119 0.44118 0.29291 0.0
C1162 C 0.46108 0.4657 0.29879 0.0
C1163 C 0.47799 0.48528 0.30631 0.0
C1164 C 0.5142 0.45638 0.30261 0.0
C1165 C 0.50428 0.48057 0.30838 0.0
C1166 C 0.53735 0.33487 0.28889 0.0
C1167 C 0.50882 0.41145 0.28643 0.0
H1168 H 0.64624 0.26414 0.22589 0.0
H1169 H 0.62586 0.23605 0.15036 0.0
H1170 H 0.59078 0.30363 0.1789 0.0
H1171 H 0.59591 0.27157 0.14534 0.0
H1172 H 0.4584 0.42598 0.28677 0.0
H1173 H 0.47076 0.50422 0.31096 0.0
H1174 H 0.5346 0.45326 0.30441 0.0
H1175 H 0.51705 0.49578 0.31446 0.0
Tb1176 Tb 0.47139 0.83291 0.3056 0.0
C1177 C 0.46149 0.93883 0.25685 0.0
C1178 C 0.44445 0.92954 0.21473 0.0
C1179 C 0.43437 0.97012 0.23541 0.0
C1180 C 0.45888 0.92223 0.23642 0.0
C1181 C 0.44979 0.96321 0.2564 0.0
C1182 C 0.43168 0.95329 0.21461 0.0
C1183 C 0.47105 0.97274 0.29648 0.0
N1184 N 0.47639 0.93135 0.27686 0.0
C1185 C 0.48229 0.94835 0.29603 0.0
C1186 C 0.45447 0.98008 0.27673 0.0
Tb1187 Tb 0.49343 0.8908 0.27457 0.0
N1188 N 0.4718 0.89961 0.23716 0.0
C1189 C 0.47277 0.88443 0.21576 0.0
C1190 C 0.444 0.91316 0.19349 0.0
C1191 C 0.45859 0.89073 0.19386 0.0
H1192 H 0.49504 0.94279 0.31139 0.0
H1193 H 0.45888 0.87821 0.1773 0.0
H1194 H 0.42029 0.95913 0.19823 0.0
H1195 H 0.47522 0.98587 0.31201 0.0
H1196 H 0.48377 0.86693 0.21549 0.0
H1197 H 0.47559 0.87986 0.39887 0.0
H1198 H 0.43311 0.91803 0.17646 0.0
H1199 H 0.49793 0.7771 0.28603 0.0
H1200 H 0.4621 0.87488 0.35469 0.0
H1201 H 0.52933 0.74607 0.30187 0.0
H1202 H 0.42496 0.98866 0.23481 0.0
H1203 H 0.5063 0.84937 0.4181 0.0
H1204 H 0.5345 0.81103 0.41295 0.0
H1205 H 0.44596 0.99904 0.27701 0.0
H1206 H 0.55003 0.77543 0.38624 0.0
N1207 N 0.4837 0.84067 0.34767 0.0
C1208 C 0.47478 0.86066 0.36227 0.0
C1209 C 0.49996 0.84663 0.3985 0.0
C1210 C 0.50914 0.82626 0.38375 0.0
C1211 C 0.48266 0.86385 0.3877 0.0
C1212 C 0.50032 0.82355 0.35824 0.0
H1213 H 0.54835 0.75121 0.34495 0.0
N1214 N 0.50068 0.80205 0.31866 0.0
C1215 C 0.52427 0.76248 0.31356 0.0
C1216 C 0.50931 0.8038 0.34315 0.0
C1217 C 0.50675 0.78062 0.30447 0.0
C1218 C 0.53482 0.76534 0.3379 0.0
C1219 C 0.527 0.78585 0.35325 0.0
O1220 O 0.43836 0.82462 0.32758 0.0
O1221 O 0.46348 0.86125 0.27632 0.0
O1222 O 0.45906 0.90276 0.29508 0.0
O1223 O 0.44421 0.8655 0.31556 0.0
O1224 O 0.45449 0.82386 0.26847 0.0
O1225 O 0.45479 0.79607 0.30311 0.0
O1226 O 0.52745 0.91107 0.28307 0.0
O1227 O 0.50277 0.85984 0.30131 0.0
O1228 O 0.49847 0.82078 0.27498 0.0
O1229 O 0.50826 0.85853 0.25266 0.0
O1230 O 0.51034 0.89664 0.31267 0.0
O1231 O 0.51976 0.89859 0.24471 0.0
C1232 C 0.45353 0.84677 0.2593 0.0
C1233 C 0.41067 0.79131 0.31261 0.0
C1234 C 0.3766 0.75879 0.31771 0.0
C1235 C 0.40132 0.76837 0.32388 0.0
C1236 C 0.36178 0.77256 0.29976 0.0
C1237 C 0.39533 0.80446 0.29489 0.0
C1238 C 0.37108 0.79507 0.28851 0.0
C1239 C 0.44269 0.89072 0.31019 0.0
C1240 C 0.43654 0.80109 0.31925 0.0
C1241 C 0.53613 0.78874 0.37839 0.0
C1242 C 0.52722 0.80892 0.39362 0.0
C1243 C 0.51337 0.87294 0.31879 0.0
C1244 C 0.54622 0.93569 0.25013 0.0
C1245 C 0.57291 0.94061 0.25165 0.0
C1246 C 0.58292 0.96474 0.24431 0.0
C1247 C 0.56599 0.9837 0.23539 0.0
C1248 C 0.52989 0.95488 0.24072 0.0
C1249 C 0.53973 0.97872 0.23347 0.0
C1250 C 0.50982 0.83351 0.25602 0.0
C1251 C 0.53559 0.91104 0.25956 0.0
H1252 H 0.41317 0.75821 0.33762 0.0
H1253 H 0.34303 0.76569 0.29401 0.0
H1254 H 0.40213 0.82195 0.28596 0.0
H1255 H 0.35942 0.80527 0.27466 0.0
H1256 H 0.58576 0.92591 0.25883 0.0
H1257 H 0.57318 1.00233 0.2296 0.0
H1258 H 0.50952 0.95154 0.23907 0.0
H1259 H 0.52692 0.99344 0.22636 0.0
Tb1260 Tb 0.07683 0.21169 0.80643 0.0
C1261 C 0.08328 0.10474 0.76174 0.0
C1262 C 0.10325 0.11229 0.72065 0.0
C1263 C 0.11063 0.072 0.74298 0.0
C1264 C 0.08788 0.12071 0.74123 0.0
C1265 C 0.09381 0.07985 0.76249 0.0
C1266 C 0.11539 0.08824 0.72209 0.0
C1267 C 0.06749 0.07126 0.79961 0.0
N1268 N 0.06665 0.11297 0.77995 0.0
C1269 C 0.05751 0.09614 0.79795 0.0
C1270 C 0.08609 0.06323 0.7821 0.0
Tb1271 Tb 0.05203 0.15439 0.77618 0.0
N1272 N 0.07518 0.14342 0.74034 0.0
C1273 C 0.0748 0.15726 0.71805 0.0
C1274 C 0.10478 0.12764 0.69871 0.0
C1275 C 0.08998 0.14991 0.69717 0.0
H1276 H 0.04317 0.10221 0.81159 0.0
H1277 H 0.0903 0.16148 0.67995 0.0
H1278 H 0.12756 0.08158 0.70663 0.0
H1279 H 0.0608 0.05829 0.81436 0.0
H1280 H 0.06356 0.17456 0.71644 0.0
H1281 H 0.07268 0.16607 0.90036 0.0
H1282 H 0.1164 0.12192 0.68248 0.0
H1283 H 0.05415 0.26892 0.78761 0.0
H1284 H 0.08748 0.17141 0.8567 0.0
H1285 H 0.02448 0.30173 0.80356 0.0
H1286 H 0.1192 0.05305 0.74335 0.0
H1287 H 0.04139 0.19639 0.91889 0.0
H1288 H 1.01421 0.23554 0.91358 0.0
H1289 H 0.09355 0.04387 0.78324 0.0
H1290 H 1.0006 0.27211 0.88709 0.0
N1291 N 0.0645 0.2045 0.8486 0.0
C1292 C 0.07372 0.18494 0.8636 0.0
C1293 C 0.04782 0.19894 0.8993 0.0
C1294 C 0.03895 0.21933 0.8844 0.0
C1295 C 0.06542 0.18179 0.88889 0.0
C1296 C 0.04786 0.22173 0.85891 0.0
H1297 H 1.00433 0.29693 0.84616 0.0
N1298 N 0.04941 0.24391 0.81982 0.0
C1299 C 0.02833 0.28484 0.81502 0.0
C1300 C 0.04001 0.24206 0.84398 0.0
C1301 C 0.04493 0.26586 0.80592 0.0
C1302 C 1.01709 0.28212 0.83907 0.0
C1303 C 0.02328 0.26084 0.85413 0.0
O1304 O 0.09659 0.24701 0.80211 0.0
O1305 O 0.08351 0.18256 0.77746 0.0
O1306 O 0.08288 0.14055 0.80068 0.0
O1307 O 0.10286 0.17807 0.81549 0.0
O1308 O 0.09273 0.21994 0.76883 0.0
O1309 O 0.11073 0.21829 0.82761 0.0
O1310 O 1.01571 0.13792 0.78349 0.0
O1311 O 0.04417 0.18608 0.80252 0.0
O1312 O 0.04915 0.22468 0.77654 0.0
O1313 O 0.03937 0.18724 0.75358 0.0
O1314 O 0.03416 0.14979 0.81382 0.0
O1315 O 0.02718 0.14624 0.74513 0.0
C1316 C 0.09335 0.19682 0.76015 0.0
C1317 C 0.11788 0.2619 0.83974 0.0
C1318 C 0.13959 0.30094 0.85609 0.0
C1319 C 0.13568 0.28236 0.83637 0.0
C1320 C 0.12453 0.29906 0.87843 0.0
C1321 C 0.10438 0.26034 0.86292 0.0
C1322 C 0.10734 0.27892 0.88182 0.0
C1323 C 0.10135 0.15242 0.8133 0.0
C1324 C 0.11351 0.24186 0.81966 0.0
C1325 C 1.01373 0.2581 0.87913 0.0
C1326 C 1.02154 0.23735 0.89424 0.0
C1327 C 0.03279 0.17361 0.82002 0.0
C1328 C 0.99861 0.11102 0.75145 0.0
C1329 C 0.97187 0.1064 0.75304 0.0
C1330 C 0.96173 0.08191 0.74713 0.0
C1331 C 0.97859 0.06231 0.73956 0.0
C1332 C 1.01482 0.09118 0.74323 0.0
C1333 C 1.00487 0.067 0.73744 0.0
C1334 C 0.0379 0.21226 0.75723 0.0
C1335 C 1.0095 0.13607 0.75951 0.0
H1336 H 0.14674 0.28341 0.81883 0.0
H1337 H 0.12596 0.31325 0.89353 0.0
H1338 H 0.09163 0.24458 0.86666 0.0
H1339 H 0.09635 0.27759 0.89937 0.0
H1340 H 0.95911 0.1216 0.75924 0.0
H1341 H 0.97132 0.0434 0.73487 0.0
H1342 H 0.03521 0.09429 0.74137 0.0
H1343 H 1.0176 0.0518 0.73129 0.0
Tb1344 Tb 0.73846 0.97134 0.712 0.0
C1345 C 0.78628 0.96415 0.60541 0.0
C1346 C 0.82821 0.946 0.61337 0.0
C1347 C 0.80657 0.93768 0.57288 0.0
C1348 C 0.80696 0.9606 0.62153 0.0
C1349 C 0.78601 0.95322 0.5807 0.0
C1350 C 0.82764 0.93405 0.58921 0.0
C1351 C 0.74604 0.97533 0.57275 0.0
N1352 N 0.76666 0.97908 0.61381 0.0
C1353 C 0.74718 0.98576 0.59746 0.0
C1354 C 0.76537 0.95874 0.56444 0.0
Tb1355 Tb 0.77015 0.9948 0.65481 0.0
N1356 N 0.80688 0.97275 0.64457 0.0
C1357 C 0.82855 0.97282 0.65939 0.0
C1358 C 0.84971 0.94457 0.62935 0.0
C1359 C 0.85003 0.9584 0.65226 0.0
H1360 H 0.73213 0.99852 0.60373 0.0
H1361 H 0.86681 0.95795 0.66449 0.0
H1362 H 0.84367 0.92254 0.5827 0.0
H1363 H 0.73028 0.98013 0.56011 0.0
H1364 H 0.8293 0.98334 0.67718 0.0
H1365 H 0.64596 0.98188 0.6646 0.0
H1366 H 0.86642 0.93351 0.62384 0.0
H1367 H 0.75814 0.99179 0.76952 0.0
H1368 H 0.68966 0.96651 0.66912 0.0
H1369 H 0.74236 1.01967 0.80404 0.0
H1370 H 0.80662 0.92886 0.55406 0.0
H1371 H 0.62724 1.01065 0.69722 0.0
H1372 H 0.63242 0.03473 0.73834 0.0
H1373 H 0.76453 0.95083 0.54525 0.0
H1374 H 0.65867 0.04534 0.7761 0.0
N1375 N 0.69682 0.98533 0.70492 0.0
C1376 C 0.68221 0.97833 0.68418 0.0
C1377 C 0.64664 1.00359 0.69964 0.0
C1378 C 0.66133 1.01057 0.72091 0.0
C1379 C 0.65712 0.98733 0.68125 0.0
C1380 C 0.68656 1.00093 0.7231 0.0
H1381 H 0.69966 0.03998 0.80062 0.0
N1382 N 0.72552 0.99755 0.74529 0.0
C1383 C 0.73074 1.01664 0.7871 0.0
C1384 C 0.70144 1.00725 0.74397 0.0
C1385 C 0.7397 1.00105 0.76722 0.0
C1386 C 0.70663 0.02798 0.78515 0.0
C1387 C 0.69146 1.02302 0.76362 0.0
O1388 O 0.74183 0.95049 0.74678 0.0
O1389 O 0.76812 0.96428 0.68377 0.0
O1390 O 0.74969 0.96062 0.64212 0.0
O1391 O 0.72767 0.946 0.67849 0.0
O1392 O 0.77598 0.95541 0.7212 0.0
O1393 O 0.71728 0.93717 0.71682 0.0
O1394 O 0.76262 0.02972 0.63572 0.0
O1395 O 0.74326 1.00318 0.68569 0.0
O1396 O 0.76779 0.99979 0.72483 0.0
O1397 O 0.79221 1.00786 0.6879 0.0
O1398 O 0.7326 1.0132 0.64943 0.0
O1399 O 0.80074 1.0206 0.64798 0.0
C1400 C 0.78517 0.95451 0.69832 0.0
C1401 C 0.70379 0.92865 0.75968 0.0
C1402 C 0.68642 0.90567 0.79747 0.0
C1403 C 0.7067 0.91034 0.77973 0.0
C1404 C 0.66389 0.92042 0.79511 0.0
C1405 C 0.68049 0.94193 0.75762 0.0
C1406 C 0.66095 0.93814 0.77535 0.0
C1407 C 0.73378 0.94458 0.65354 0.0
C1408 C 0.7245 0.9337 0.74052 0.0
C1409 C 0.66655 0.033 0.76135 0.0
C1410 C 0.65156 0.02688 0.73995 0.0
C1411 C 0.72619 1.01501 0.67313 0.0
C1412 C 0.79606 0.04773 0.61125 0.0
C1413 C 0.79426 0.07437 0.60601 0.0
C1414 C 0.80168 0.08421 0.58184 0.0
C1415 C 0.81098 0.06715 0.56319 0.0
C1416 C 0.80594 0.03132 0.59237 0.0
C1417 C 0.81326 0.04099 0.56851 0.0
C1418 C 0.78771 1.01029 0.71269 0.0
C1419 C 0.78639 0.03711 0.63582 0.0
H1420 H 0.72437 0.8995 0.78112 0.0
H1421 H 0.64832 0.91841 0.80868 0.0
H1422 H 0.67717 0.95514 0.74212 0.0
H1423 H 0.64329 0.94894 0.77366 0.0
H1424 H 0.78673 0.08728 0.62045 0.0
H1425 H 0.81683 0.07419 0.54454 0.0
H1426 H 0.80789 1.01102 0.59597 0.0
H1427 H 0.82069 0.0281 0.55404 0.0
Tb1428 Tb 0.80619 0.0767 0.21137 0.0
C1429 C 0.75825 0.08361 0.10453 0.0
C1430 C 0.71577 0.10043 0.1124 0.0
C1431 C 0.73732 0.10979 0.07214 0.0
C1432 C 0.73742 0.08639 0.12056 0.0
C1433 C 0.75829 0.09476 0.07992 0.0
C1434 C 0.71609 0.11264 0.08837 0.0
C1435 C 0.79889 0.07388 0.07198 0.0
N1436 N 0.77826 0.06916 0.11289 0.0
C1437 C 0.79797 0.0632 0.09658 0.0
C1438 C 0.77911 0.08998 0.06372 0.0
Tb1439 Tb 0.77513 0.05299 0.15374 0.0
N1440 N 0.73777 0.07401 0.14347 0.0
C1441 C 0.71602 0.0731 0.15811 0.0
C1442 C 0.69416 0.10103 0.12823 0.0
C1443 C 0.69414 0.08693 0.15097 0.0
H1444 H 0.81337 0.05083 0.10281 0.0
H1445 H 0.67729 0.08673 0.16307 0.0
H1446 H 0.69975 0.12374 0.08189 0.0
H1447 H 0.81482 0.06964 0.05938 0.0
H1448 H 0.71549 0.06242 0.17579 0.0
H1449 H 0.89977 0.06969 0.16555 0.0
H1450 H 0.67716 0.11165 0.12272 0.0
H1451 H 0.78655 0.05453 0.2684 0.0
H1452 H 0.85574 0.084 0.1697 0.0
H1453 H 0.8021 0.02525 0.30179 0.0
H1454 H 0.73708 0.11879 0.05341 0.0
H1455 H 0.91839 0.03984 0.19727 0.0
H1456 H 0.9128 1.01365 0.23702 0.0
H1457 H 0.77978 0.09808 0.04461 0.0
H1458 H 0.88597 1.00081 0.27357 0.0
N1459 N 0.84816 0.06354 0.20449 0.0
C1460 C 0.86304 0.07165 0.18438 0.0
C1461 C 0.89882 0.04646 0.19957 0.0
C1462 C 0.88383 0.03825 0.22015 0.0
C1463 C 0.88838 0.0633 0.18168 0.0
C1464 C 0.85839 0.04738 0.22222 0.0
H1465 H 0.84479 1.00503 0.29785 0.0
N1466 N 0.81914 0.04953 0.24399 0.0
C1467 C 0.81378 0.0289 0.28504 0.0
C1468 C 0.8433 0.04002 0.24256 0.0
C1469 C 0.80492 0.04526 0.26574 0.0
C1470 C 0.83789 1.01761 0.2828 0.0
C1471 C 0.8532 0.0235 0.26165 0.0
O1472 O 0.80322 0.0965 0.2468 0.0
O1473 O 0.77661 0.08323 0.18294 0.0
O1474 O 0.79473 0.08782 0.14149 0.0
O1475 O 0.8167 0.10238 0.17797 0.0
O1476 O 0.76867 0.093 0.22012 0.0
O1477 O 0.82656 0.11132 0.21666 0.0
O1478 O 0.78366 1.01856 0.13418 0.0
O1479 O 0.80207 0.04483 0.18484 0.0
O1480 O 0.77621 0.04885 0.224 0.0
O1481 O 0.75322 0.03917 0.18649 0.0
O1482 O 0.81318 0.03586 0.14837 0.0
O1483 O 0.74537 0.02625 0.14683 0.0
C1484 C 0.75948 0.09324 0.19721 0.0
C1485 C 0.8409 0.11919 0.25942 0.0
C1486 C 0.85877 0.14208 0.2971 0.0
C1487 C 0.83818 0.13729 0.2797 0.0
C1488 C 0.88144 0.12764 0.29417 0.0
C1489 C 0.86433 0.10626 0.2568 0.0
C1490 C 0.88419 0.11015 0.27419 0.0
C1491 C 0.81053 0.10395 0.15302 0.0
C1492 C 0.81986 0.11398 0.2406 0.0
C1493 C 0.8782 1.01378 0.25931 0.0
C1494 C 0.8935 1.02116 0.23857 0.0
C1495 C 0.81949 0.03375 0.17208 0.0
C1496 C 0.75054 0.99955 0.10989 0.0
C1497 C 0.75246 0.97289 0.10477 0.0
C1498 C 0.74502 0.9629 0.08065 0.0
C1499 C 0.73559 0.97981 0.06193 0.0
C1500 C 0.74055 1.01581 0.09093 0.0
C1501 C 0.73321 1.006 0.06713 0.0
C1502 C 0.75698 0.03752 0.21147 0.0
C1503 C 0.76016 1.01033 0.13444 0.0
H1504 H 0.8204 0.14788 0.28153 0.0
H1505 H 0.89726 0.12972 0.30746 0.0
H1506 H 0.86751 0.09325 0.24112 0.0
H1507 H 0.90195 0.09961 0.27206 0.0
H1508 H 0.76007 0.96009 0.11928 0.0
H1509 H 0.72972 0.97266 0.04332 0.0
H1510 H 0.73852 0.03612 0.09444 0.0
H1511 H 0.72568 1.01878 0.0526 0.0
Tb1512 Tb 0.23787 0.57713 0.33351 0.0
C1513 C 0.28582 0.58269 0.44058 0.0
C1514 C 0.32803 0.60034 0.43311 0.0
C1515 C 0.30657 0.60804 0.47377 0.0
C1516 C 0.30655 0.58628 0.42458 0.0
C1517 C 0.28574 0.59305 0.46554 0.0
C1518 C 0.32768 0.6117 0.45755 0.0
C1519 C 0.2453 0.57164 0.47285 0.0
N1520 N 0.26596 0.5683 0.43181 0.0
C1521 C 0.24625 0.56178 0.44791 0.0
C1522 C 0.265 0.58756 0.48162 0.0
Tb1523 Tb 0.26934 0.55312 0.39061 0.0
N1524 N 0.30627 0.57466 0.40127 0.0
C1525 C 0.32791 0.57463 0.38647 0.0
C1526 C 0.34953 0.60183 0.41718 0.0
C1527 C 0.3496 0.58856 0.39394 0.0
H1528 H 0.23092 0.54952 0.44132 0.0
H1529 H 0.36638 0.58904 0.38174 0.0
H1530 H 0.34391 0.62278 0.46435 0.0
H1531 H 0.22941 0.5669 0.48531 0.0
H1532 H 0.3285 0.56448 0.36847 0.0
H1533 H 0.14556 0.56808 0.38152 0.0
H1534 H 0.36641 0.61249 0.42297 0.0
H1535 H 0.25683 0.5558 0.27607 0.0
H1536 H 0.18938 0.58282 0.37668 0.0
H1537 H 0.24049 0.52772 0.24198 0.0
H1538 H 0.30678 0.6164 0.49279 0.0
H1539 H 0.1262 0.53938 0.34919 0.0
H1540 H 0.13074 0.51492 0.30824 0.0
H1541 H 0.26433 0.59497 0.50101 0.0
H1542 H 0.15662 0.50353 0.27052 0.0
N1543 N 0.19605 0.56377 0.34091 0.0
C1544 C 0.1817 0.57104 0.36171 0.0
C1545 C 0.14567 0.54617 0.34661 0.0
C1546 C 0.16011 0.53884 0.32532 0.0
C1547 C 0.15652 0.56239 0.36484 0.0
C1548 C 0.18546 0.54815 0.32292 0.0
H1549 H 0.19754 0.50804 0.2458 0.0
N1550 N 0.22432 0.55075 0.30054 0.0
C1551 C 0.22902 0.5311 0.25893 0.0
C1552 C 0.20011 0.54141 0.30205 0.0
C1553 C 0.23831 0.5468 0.2786 0.0
C1554 C 0.20476 0.52012 0.2611 0.0
C1555 C 0.18979 0.52554 0.28263 0.0
O1556 O 0.24129 0.59756 0.29848 0.0
O1557 O 0.26756 0.5838 0.36183 0.0
O1558 O 0.24946 0.58758 0.40345 0.0
O1559 O 0.22756 0.60262 0.36711 0.0
O1560 O 0.27553 0.59275 0.32447 0.0
O1561 O 0.21725 0.61163 0.32844 0.0
O1562 O 0.26164 0.5184 0.41001 0.0
O1563 O 0.24241 0.54509 0.35962 0.0
O1564 O 0.26723 0.5487 0.32056 0.0
O1565 O 0.29138 0.54005 0.35759 0.0
O1566 O 0.23161 0.53508 0.39581 0.0
O1567 O 0.29954 0.52667 0.39644 0.0
C1568 C 0.28473 0.59345 0.34737 0.0
C1569 C 0.2036 0.62006 0.28556 0.0
C1570 C 0.18624 0.64324 0.24782 0.0
C1571 C 0.2066 0.63832 0.26545 0.0
C1572 C 0.16354 0.62878 0.25033 0.0
C1573 C 0.18017 0.60707 0.28773 0.0
C1574 C 0.16054 0.6111 0.27011 0.0
C1575 C 0.23372 0.60388 0.39209 0.0
C1576 C 0.22436 0.61476 0.30467 0.0
C1577 C 0.16477 0.51592 0.2851 0.0
C1578 C 0.15 0.52248 0.30648 0.0
C1579 C 0.22524 0.53337 0.3721 0.0
C1580 C 0.29569 0.49945 0.43311 0.0
C1581 C 0.29356 0.4728 0.43814 0.0
C1582 C 0.30287 0.46239 0.46138 0.0
C1583 C 0.31418 0.47885 0.47944 0.0
C1584 C 0.30729 0.51535 0.45146 0.0
C1585 C 0.31637 0.5051 0.47448 0.0
C1586 C 0.28699 0.53788 0.33274 0.0
C1587 C 0.28523 0.51047 0.40904 0.0
H1588 H 0.22439 0.64893 0.26394 0.0
H1589 H 0.14789 0.63099 0.23686 0.0
H1590 H 0.17681 0.59388 0.30324 0.0
H1591 H 0.14276 0.60053 0.2719 0.0
H1592 H 0.28475 0.46027 0.42407 0.0
H1593 H 0.32153 0.4713 0.49736 0.0
H1594 H 0.3094 0.53567 0.44802 0.0
H1595 H 0.32525 0.51757 0.48852 0.0
Tb1596 Tb 0.30634 0.47033 0.83235 0.0
C1597 C 0.25831 0.46253 0.938 0.0
C1598 C 0.21488 0.44852 0.92962 0.0
C1599 C 0.23603 0.43629 0.96938 0.0
C1600 C 0.23723 0.4617 0.922 0.0
C1601 C 0.25786 0.45026 0.96206 0.0
C1602 C 0.21457 0.4354 0.95316 0.0
C1603 C 0.30001 0.46773 0.97034 0.0
N1604 N 0.27915 0.47601 0.9301 0.0
C1605 C 0.29955 0.47958 0.94627 0.0
C1606 C 0.27917 0.45283 0.97819 0.0
Tb1607 Tb 0.27663 0.49416 0.89011 0.0
N1608 N 0.23824 0.47481 0.89952 0.0
C1609 C 0.21674 0.477 0.88463 0.0
C1610 C 0.19333 0.44949 0.91366 0.0
C1611 C 0.19417 0.46409 0.89125 0.0
H1612 H 0.31578 0.49097 0.9403 0.0
H1613 H 0.17744 0.46537 0.879 0.0
H1614 H 0.19766 0.42498 0.95925 0.0
H1615 H 0.31642 0.47011 0.98285 0.0
H1616 H 0.21691 0.48806 0.86717 0.0
H1617 H 0.40499 0.48636 0.86369 0.0
H1618 H 0.17581 0.43956 0.91876 0.0
H1619 H 0.27952 0.48221 0.77522 0.0
H1620 H 0.36288 0.46692 0.86592 0.0
H1621 H 0.28817 0.5097 0.7377 0.0
H1622 H 0.23538 0.4265 0.9877 0.0
H1623 H 0.41544 0.51718 0.82933 0.0
H1624 H 0.40205 0.54017 0.78952 0.0
H1625 H 0.27948 0.44385 0.99691 0.0
H1626 H 0.37007 0.54723 0.75568 0.0
N1627 N 0.34773 0.48646 0.83293 0.0
C1628 C 0.36632 0.48005 0.85047 0.0
C1629 C 0.39655 0.50855 0.83001 0.0
C1630 C 0.37813 0.51417 0.8114 0.0
C1631 C 0.39071 0.49116 0.84939 0.0
C1632 C 0.35371 0.50251 0.81319 0.0
H1633 H 0.32769 0.53584 0.7361 0.0
N1634 N 0.31277 0.49438 0.79585 0.0
C1635 C 0.30148 0.50942 0.75363 0.0
C1636 C 0.33555 0.50687 0.79428 0.0
C1637 C 0.29657 0.49406 0.77502 0.0
C1638 C 0.3238 0.52412 0.75281 0.0
C1639 C 0.3415 0.52243 0.77291 0.0
O1640 O 0.31062 0.42993 0.83129 0.0
O1641 O 0.27659 0.46437 0.8604 0.0
O1642 O 0.29322 0.45724 0.89992 0.0
O1643 O 0.32288 0.45035 0.86713 0.0
O1644 O 0.26786 0.4569 0.8227 0.0
O1645 O 0.32101 0.45246 0.79894 0.0
O1646 O 0.2865 0.5266 0.91219 0.0
O1647 O 0.30399 0.5017 0.85946 0.0
O1648 O 0.27615 0.4982 0.82003 0.0
O1649 O 0.25568 0.5107 0.85804 0.0
O1650 O 0.31554 0.50961 0.89582 0.0
O1651 O 0.24836 0.52238 0.89721 0.0
C1652 C 0.25894 0.45577 0.8458 0.0
C1653 C 0.30731 0.41 0.7899 0.0
C1654 C 0.31142 0.38131 0.75244 0.0
C1655 C 0.32146 0.4009 0.76844 0.0
C1656 C 0.28693 0.37149 0.75794 0.0
C1657 C 0.28286 0.39976 0.79462 0.0
C1658 C 0.27277 0.38076 0.77868 0.0
C1659 C 0.31319 0.44507 0.89035 0.0
C1660 C 0.31855 0.4294 0.80766 0.0
C1661 C 0.36531 0.53492 0.77173 0.0
C1662 C 0.38357 0.53079 0.79094 0.0
C1663 C 0.32197 0.51186 0.87214 0.0
C1664 C 0.25352 0.54714 0.93548 0.0
C1665 C 0.2546 0.57385 0.94048 0.0
C1666 C 0.24659 0.58374 0.96444 0.0
C1667 C 0.23742 0.56667 0.98312 0.0
C1668 C 0.24382 0.53068 0.9544 0.0
C1669 C 0.2359 0.5404 0.97804 0.0
C1670 C 0.25846 0.51138 0.83292 0.0
C1671 C 0.26365 0.53657 0.9111 0.0
H1672 H 0.34038 0.40857 0.7646 0.0
H1673 H 0.27861 0.35665 0.74598 0.0
H1674 H 0.27157 0.40623 0.81079 0.0
H1675 H 0.2539 0.37302 0.78255 0.0
H1676 H 0.26198 0.58681 0.926 0.0
H1677 H 0.23112 0.57376 1.00161 0.0
H1678 H 0.24249 0.51031 0.95099 0.0
H1679 H 0.22859 0.52747 0.99255 0.0
Tb1680 Tb 0.71188 0.73934 0.96833 0.0
C1681 C 0.60515 0.78424 0.96159 0.0
C1682 C 0.61275 0.82534 0.94156 0.0
C1683 C 0.57242 0.80307 0.93425 0.0
C1684 C 0.62114 0.80473 0.95696 0.0
C1685 C 0.58025 0.78354 0.9511 0.0
C1686 C 0.5887 0.82394 0.92943 0.0
C1687 C 0.57159 0.74648 0.97755 0.0
N1688 N 0.61334 0.76603 0.97828 0.0
C1689 C 0.59647 0.74809 0.98751 0.0
C1690 C 0.56359 0.76399 0.9589 0.0
Tb1691 Tb 0.65471 0.76979 0.99299 0.0
N1692 N 0.64384 0.80562 0.96968 0.0
C1693 C 0.65769 0.82792 0.97003 0.0
C1694 C 0.62811 0.84728 0.94 0.0
C1695 C 0.65036 0.84881 0.95481 0.0
H1696 H 0.60251 0.73447 1.0019 0.0
H1697 H 0.66195 0.86604 0.95447 0.0
H1698 H 0.58205 0.83942 0.91725 0.0
H1699 H 0.55858 0.73178 0.98431 0.0
H1700 H 0.67498 0.82953 0.98128 0.0
H1701 H 0.66628 0.64539 0.97361 0.0
H1702 H 0.6224 0.86353 0.92836 0.0
H1703 H 0.76916 0.75841 0.99059 0.0
H1704 H 0.67149 0.689 0.95845 0.0
H1705 H 0.80212 0.7427 1.02026 0.0
H1706 H 0.55347 0.80276 0.92573 0.0
H1707 H 0.69681 0.62708 1.00485 0.0
H1708 H 0.73609 0.63261 0.03177 0.0
H1709 H 0.54421 0.76292 0.95148 0.0
H1710 H 0.77274 0.65923 0.04494 0.0
N1711 N 0.70477 0.69725 0.98108 0.0
C1712 C 0.68515 0.68217 0.97213 0.0
C1713 C 0.69932 0.64663 0.99822 0.0
C1714 C 0.71978 0.6616 1.00683 0.0
C1715 C 0.68206 0.65692 0.98066 0.0
C1716 C 0.72213 0.68703 0.99767 0.0
H1717 H 0.79749 0.7002 0.04075 0.0
N1718 N 0.74427 0.72614 0.99565 0.0
C1719 C 0.78525 0.73118 1.01656 0.0
C1720 C 0.74249 0.70203 1.00527 0.0
C1721 C 0.76618 0.74013 0.99997 0.0
C1722 C 0.78263 0.70717 0.02799 0.0
C1723 C 0.76135 0.69203 1.022 0.0
O1724 O 0.74716 0.74295 0.94841 0.0
O1725 O 0.68281 0.76834 0.96154 0.0
O1726 O 0.64079 0.74516 0.96233 0.0
O1727 O 0.6782 0.73003 0.94251 0.0
O1728 O 0.72017 0.77691 0.95225 0.0
O1729 O 0.71772 0.71829 0.93425 0.0
O1730 O 0.6381 0.7627 0.02924 0.0
O1731 O 0.68637 0.74345 1.00101 0.0
O1732 O 0.725 0.7696 0.99567 0.0
O1733 O 0.68754 0.7924 1.00565 0.0
O1734 O 0.65014 0.73226 1.01121 0.0
O1735 O 0.64663 0.80103 1.01759 0.0
C1736 C 0.69706 0.78559 0.95158 0.0
C1737 C 0.76086 0.70525 0.92639 0.0
C1738 C 0.79866 0.68805 0.90327 0.0
C1739 C 0.7807 0.7082 0.90787 0.0
C1740 C 0.79673 0.66564 0.91826 0.0
C1741 C 0.75928 0.68208 0.93994 0.0
C1742 C 0.77721 0.66268 0.93619 0.0
C1743 C 0.65259 0.73233 0.944 0.0
C1744 C 0.7414 0.72575 0.93132 0.0
C1745 C 0.75867 0.66708 0.0318 0.0
C1746 C 0.73788 0.6519 0.02424 0.0
C1747 C 0.67393 0.72603 1.01259 0.0
C1748 C 0.61118 0.79494 0.04579 0.0
C1749 C 0.60633 0.79337 0.07244 0.0
C1750 C 0.58183 0.79941 0.08231 0.0
C1751 C 0.5624 0.80706 0.06529 0.0
C1752 C 0.59155 0.80327 0.02937 0.0
C1753 C 0.56731 0.80915 0.03907 0.0
C1754 C 0.71256 0.78888 1.00697 0.0
C1755 C 0.63627 0.78676 0.03524 0.0
H1756 H 0.78177 0.72576 0.89683 0.0
H1757 H 0.81047 0.65019 0.91626 0.0
H1758 H 0.74399 0.67873 0.95333 0.0
H1759 H 0.77586 0.64511 0.94719 0.0
H1760 H 0.62138 0.78713 0.08536 0.0
H1761 H 0.54347 0.81184 0.07241 0.0
H1762 H 0.59486 0.80517 1.00903 0.0
H1763 H 0.55226 0.81537 0.02618 0.0
Tb1764 Tb 0.21109 0.80788 0.07507 0.0
C1765 C 0.10404 0.76477 0.08275 0.0
C1766 C 0.11114 0.72363 0.1029 0.0
C1767 C 0.07127 0.74661 0.11042 0.0
C1768 C 0.11972 0.74401 0.08733 0.0
C1769 C 0.07928 0.76597 0.09347 0.0
C1770 C 0.08723 0.72547 0.11519 0.0
C1771 C 0.07109 0.80325 0.06717 0.0
N1772 N 0.1124 0.78284 0.06601 0.0
C1773 C 0.09583 0.80116 0.05699 0.0
C1774 C 0.06294 0.78586 0.08585 0.0
Tb1775 Tb 0.15354 0.77827 0.05099 0.0
N1776 N 0.14231 0.74271 0.0745 0.0
C1777 C 0.15589 0.72023 0.07429 0.0
C1778 C 0.12621 0.70148 0.10454 0.0
C1779 C 0.14836 0.69955 0.08967 0.0
H1780 H 0.102 0.8147 0.04259 0.0
H1781 H 0.15973 0.68218 0.0901 0.0
H1782 H 0.08045 0.71017 0.12749 0.0
H1783 H 0.05832 0.81824 0.06057 0.0
H1784 H 0.1731 0.71831 0.06302 0.0
H1785 H 0.1633 0.90112 0.07439 0.0
H1786 H 0.12036 0.6854 0.11632 0.0
H1787 H 0.26654 0.78953 0.04722 0.0
H1788 H 0.16957 0.85724 0.08762 0.0
H1789 H 0.29743 0.80694 1.01669 0.0
H1790 H 0.05242 0.74729 0.11911 0.0
H1791 H 0.19306 0.92137 0.04375 0.0
H1792 H 0.23188 0.91785 1.01622 0.0
H1793 H 0.04368 0.78735 0.09348 0.0
H1794 H 0.26815 0.89232 1.00037 0.0
N1795 N 0.20258 0.8503 0.06419 0.0
C1796 C 0.18282 0.86467 0.07398 0.0
C1797 C 0.19601 0.90158 0.04944 0.0
C1798 C 0.21658 0.88737 0.03994 0.0
C1799 C 0.17916 0.89019 0.06663 0.0
C1800 C 0.21953 0.86157 0.04788 0.0
H1801 H 0.29227 0.85095 0.99991 0.0
N1802 N 0.24143 0.82214 0.04598 0.0
C1803 C 0.28098 0.81831 1.02225 0.0
C1804 C 0.23953 0.84702 0.03847 0.0
C1805 C 0.26284 0.80831 0.03922 0.0
C1806 C 0.27812 0.84318 1.01299 0.0
C1807 C 0.25753 0.85806 1.02144 0.0
O1808 O 0.22066 0.83054 0.10729 0.0
O1809 O 0.18194 0.77919 0.0823 0.0
O1810 O 0.14047 0.80295 0.08205 0.0
O1811 O 0.17833 0.81609 0.10255 0.0
O1812 O 0.21912 0.77074 0.09227 0.0
O1813 O 0.24782 0.80399 0.09168 0.0
O1814 O 0.1365 0.78557 1.01493 0.0
O1815 O 0.18561 0.80395 0.04242 0.0
O1816 O 0.22358 0.77704 0.04823 0.0
O1817 O 0.18576 0.75493 0.03822 0.0
O1818 O 0.14956 0.81594 0.03265 0.0
O1819 O 0.14465 0.74713 0.02649 0.0
C1820 C 0.19604 0.76198 0.09261 0.0
C1821 C 0.25333 0.81511 0.13542 0.0
C1822 C 0.28601 0.82035 0.16936 0.0
C1823 C 0.27679 0.82572 0.14431 0.0
C1824 C 0.27134 0.80387 0.18497 0.0
C1825 C 0.23931 0.79887 0.15155 0.0
C1826 C 0.24832 0.79329 0.17613 0.0
C1827 C 0.1526 0.81447 0.10108 0.0
C1828 C 0.24374 0.8211 0.10931 0.0
C1829 C 0.2546 0.88362 1.0135 0.0
C1830 C 0.23406 0.89819 0.02261 0.0
C1831 C 0.17347 0.82162 0.03094 0.0
C1832 C 0.10911 0.75365 0.99835 0.0
C1833 C 0.10427 0.75484 0.97163 0.0
C1834 C 0.07963 0.74914 0.96179 0.0
C1835 C 0.06008 0.74218 0.97893 0.0
C1836 C 0.08931 0.746 1.01485 0.0
C1837 C 0.06498 0.74043 1.0052 0.0
C1838 C 0.21084 0.75792 0.03703 0.0
C1839 C 0.13435 0.76154 1.00888 0.0
H1840 H 0.2876 0.83836 0.13187 0.0
H1841 H 0.27786 0.79872 0.20401 0.0
H1842 H 0.2214 0.79048 0.14512 0.0
H1843 H 0.23742 0.7806 0.18842 0.0
H1844 H 0.11944 0.76057 0.95864 0.0
H1845 H 0.04104 0.73766 0.9719 0.0
H1846 H 0.09259 0.74442 0.03524 0.0
H1847 H 0.04981 0.73474 1.01816 0.0
Tb1848 Tb 0.33365 0.23994 0.57512 0.0
C1849 C 0.44045 0.28774 0.58335 0.0
C1850 C 0.4324 0.33013 0.60038 0.0
C1851 C 0.47273 0.30862 0.60972 0.0
C1852 C 0.42434 0.30853 0.58622 0.0
C1853 C 0.46504 0.2877 0.59458 0.0
C1854 C 0.45642 0.32981 0.61265 0.0
C1855 C 0.4732 0.24724 0.57346 0.0
N1856 N 0.43222 0.26782 0.5687 0.0
C1857 C 0.44863 0.24817 0.56269 0.0
C1858 C 0.48134 0.26694 0.58971 0.0
Tb1859 Tb 0.39145 0.27103 0.55228 0.0
N1860 N 0.40147 0.30821 0.57374 0.0
C1861 C 0.38676 0.32995 0.57291 0.0
C1862 C 0.4165 0.35173 0.60104 0.0
C1863 C 0.3938 0.35178 0.58687 0.0
H1864 H 0.44251 0.23284 0.55017 0.0
H1865 H 0.38165 0.36863 0.58669 0.0
H1866 H 0.46284 0.34613 0.62382 0.0
H1867 H 0.48587 0.23136 0.56916 0.0
H1868 H 0.36914 0.33051 0.56211 0.0
H1869 H 0.37925 0.14618 0.56769 0.0
H1870 H 0.42195 0.36871 0.61174 0.0
H1871 H 0.27663 0.25982 0.55321 0.0
H1872 H 0.37501 0.19011 0.58247 0.0
H1873 H 0.24315 0.24455 0.52381 0.0
H1874 H 0.49146 0.30888 0.61875 0.0
H1875 H 0.34774 0.12796 0.53737 0.0
H1876 H 0.30812 0.13393 0.51099 0.0
H1877 H 0.50045 0.26629 0.59784 0.0
H1878 H 0.27153 0.16092 0.49839 0.0
N1879 N 0.34042 0.19798 0.56176 0.0
C1880 C 0.36043 0.18295 0.56991 0.0
C1881 C 0.34541 0.14747 0.54418 0.0
C1882 C 0.32488 0.16259 0.53601 0.0
C1883 C 0.36318 0.15768 0.5613 0.0
C1884 C 0.32276 0.18795 0.5454 0.0
H1885 H 0.24714 0.20207 0.50311 0.0
N1886 N 0.30097 0.2272 0.54794 0.0
C1887 C 0.2599 0.23281 0.52736 0.0
C1888 C 0.30244 0.20315 0.53814 0.0
C1889 C 0.27921 0.24148 0.54383 0.0
C1890 C 0.26218 0.20882 0.51579 0.0
C1891 C 0.28337 0.19343 0.52149 0.0
O1892 O 0.29833 0.24327 0.59502 0.0
O1893 O 0.362 0.26951 0.58224 0.0
O1894 O 0.4035 0.25117 0.58696 0.0
O1895 O 0.36687 0.22917 0.60098 0.0
O1896 O 0.32458 0.27768 0.59072 0.0
O1897 O 0.32819 0.21936 0.60956 0.0
O1898 O 0.41113 0.2628 0.51791 0.0
O1899 O 0.36054 0.24407 0.54366 0.0
O1900 O 0.32137 0.26953 0.54664 0.0
O1901 O 0.35883 0.29299 0.53816 0.0
O1902 O 0.3971 0.23302 0.53505 0.0
O1903 O 0.39858 0.30109 0.52597 0.0
C1904 C 0.34751 0.28679 0.59166 0.0
C1905 C 0.28529 0.20557 0.6174 0.0
C1906 C 0.24768 0.18788 0.64045 0.0
C1907 C 0.26528 0.20831 0.63577 0.0
C1908 C 0.25012 0.16537 0.62567 0.0
C1909 C 0.28739 0.1823 0.60407 0.0
C1910 C 0.26981 0.16262 0.60789 0.0
C1911 C 0.39183 0.23527 0.60282 0.0
C1912 C 0.30436 0.2264 0.61233 0.0
C1913 C 0.28577 0.16854 0.51148 0.0
C1914 C 0.30651 0.15314 0.51872 0.0
C1915 C 0.37342 0.22668 0.53267 0.0
C1916 C 0.43556 0.29602 0.49939 0.0
C1917 C 0.44067 0.29432 0.47276 0.0
C1918 C 0.46483 0.30169 0.4629 0.0
C1919 C 0.4836 0.31085 0.4799 0.0
C1920 C 0.45455 0.30574 0.51577 0.0
C1921 C 0.47841 0.31303 0.50608 0.0
C1922 C 0.33395 0.28897 0.53577 0.0
C1923 C 0.41097 0.28641 0.50996 0.0
H1924 H 0.26382 0.22596 0.64664 0.0
H1925 H 0.23665 0.14969 0.6277 0.0
H1926 H 0.30282 0.17912 0.59078 0.0
H1927 H 0.27155 0.14497 0.59705 0.0
H1928 H 0.42612 0.28691 0.45987 0.0
H1929 H 0.50225 0.31667 0.47283 0.0
H1930 H 0.45104 0.3076 0.53608 0.0
H1931 H 0.49297 0.32036 0.51894 0.0
Tb1932 Tb 0.83534 0.30736 0.46888 0.0
C1933 C 0.94174 0.2619 0.46213 0.0
C1934 C 0.9337 0.22069 0.44247 0.0
C1935 C 0.97409 0.24264 0.4347 0.0
C1936 C 0.92558 0.24147 0.45777 0.0
C1937 C 0.96654 0.26236 0.45144 0.0
C1938 C 0.95764 0.22183 0.43016 0.0
C1939 C 0.97568 0.29959 0.47753 0.0
N1940 N 0.93383 0.2803 0.47873 0.0
C1941 C 0.95089 0.2982 0.4877 0.0
C1942 C 0.98338 0.28188 0.45895 0.0
Tb1943 Tb 0.89255 0.27694 0.4937 0.0
N1944 N 0.903 0.24083 0.47065 0.0
C1945 C 0.88898 0.21864 0.47123 0.0
C1946 C 0.91818 0.19884 0.44117 0.0
C1947 C 0.89604 0.19758 0.45613 0.0
H1948 H 0.94505 0.31198 0.50202 0.0
H1949 H 0.88433 0.18043 0.45598 0.0
H1950 H 0.96408 0.20622 0.41805 0.0
H1951 H 0.98883 0.31427 0.48406 0.0
H1952 H 0.87176 0.21724 0.48258 0.0
H1953 H 0.88104 0.4013 0.47356 0.0
H1954 H 0.92367 0.18246 0.42961 0.0
H1955 H 0.77815 0.28845 0.49148 0.0
H1956 H 0.87577 0.35759 0.45869 0.0
H1957 H 0.7454 0.30434 0.52118 0.0
H1958 H 0.99297 0.24276 0.42604 0.0
H1959 H 0.85063 0.41985 0.50471 0.0
H1960 H 0.81145 0.41452 0.53173 0.0
H1961 H 1.00268 0.2828 0.45135 0.0
H1962 H 0.7749 0.38797 0.5452 0.0
N1963 N 0.84257 0.3495 0.48144 0.0
C1964 C 0.86217 0.36451 0.47236 0.0
C1965 C 0.84809 0.40025 0.49822 0.0
C1966 C 0.82767 0.38534 0.50697 0.0
C1967 C 0.86529 0.38982 0.48071 0.0
C1968 C 0.82528 0.35984 0.49799 0.0
H1969 H 0.75014 0.34698 0.54138 0.0
N1970 N 0.80313 0.32072 0.49628 0.0
C1971 C 0.76225 0.31583 0.51735 0.0
C1972 C 0.80495 0.34489 0.50573 0.0
C1973 C 0.78123 0.30676 0.50076 0.0
C1974 C 0.76494 0.33991 0.52862 0.0
C1975 C 0.78618 0.35502 0.52246 0.0
O1976 O 0.79987 0.30396 0.44917 0.0
O1977 O 0.86438 0.27828 0.46222 0.0
O1978 O 0.90642 0.30142 0.4629 0.0
O1979 O 0.86899 0.31648 0.443 0.0
O1980 O 0.827 0.26974 0.45293 0.0
O1981 O 0.82946 0.32814 0.43462 0.0
O1982 O 0.90957 0.28433 0.52976 0.0
O1983 O 0.86094 0.30337 0.50158 0.0
O1984 O 0.8222 0.27705 0.4961 0.0
O1985 O 0.85971 0.2546 0.50671 0.0
O1986 O 0.89723 0.31458 0.51167 0.0
O1987 O 0.90061 0.24594 0.51864 0.0
C1988 C 0.8501 0.261 0.45231 0.0
C1989 C 0.78638 0.34168 0.42699 0.0
C1990 C 0.74841 0.35919 0.40426 0.0
C1991 C 0.76616 0.33882 0.40882 0.0
C1992 C 0.75092 0.38172 0.419 0.0
C1993 C 0.78854 0.365 0.44024 0.0
C1994 C 0.77082 0.38459 0.43658 0.0
C1995 C 0.8946 0.31416 0.44451 0.0
C1996 C 0.80565 0.32096 0.43191 0.0
C1997 C 0.7889 0.38004 0.53207 0.0
C1998 C 0.80964 0.39517 0.52435 0.0
C1999 C 0.87344 0.32083 0.51305 0.0
C2000 C 0.93625 0.25202 0.54675 0.0
C2001 C 0.94115 0.25354 0.57343 0.0
C2002 C 0.96565 0.24735 0.58334 0.0
C2003 C 0.98499 0.23959 0.5663 0.0
C2004 C 0.95582 0.24358 0.53035 0.0
C2005 C 0.98002 0.23754 0.54007 0.0
C2006 C 0.83466 0.25798 0.50773 0.0
C2007 C 0.91119 0.26034 0.5361 0.0
H2008 H 0.76464 0.32115 0.39798 0.0
H2009 H 0.73737 0.39734 0.41708 0.0
H2010 H 0.80414 0.36831 0.45331 0.0
H2011 H 0.77262 0.40226 0.44736 0.0
H2012 H 0.92615 0.25987 0.58634 0.0
H2013 H 1.00391 0.2347 0.5734 0.0
H2014 H 0.95248 0.24174 0.51 0.0
H2015 H 0.99502 0.23124 0.52719 0.0
H2016 H 0.13046 0.42752 0.28328 0.0
H2017 H 0.12546 0.39649 0.35973 0.0
H2018 H 0.16075 0.45981 0.298 0.0
H2019 H 0.15598 0.42926 0.37473 0.0
H2020 H 0.18291 0.51322 0.395 0.0
H2021 H 0.15624 0.47708 0.38116 0.0
H2022 H 0.20468 0.46687 0.31491 0.0
H2023 H 0.23166 0.50276 0.3292 0.0
C2024 C 0.136 0.42742 0.30328 0.0
C2025 C 0.12525 0.40933 0.32028 0.0
C2026 C 0.15357 0.44599 0.31173 0.0
C2027 C 0.16084 0.44749 0.33765 0.0
C2028 C 0.15068 0.42895 0.35465 0.0
C2029 C 0.13332 0.40994 0.34602 0.0
C2030 C 0.18788 0.50323 0.37748 0.0
C2031 C 0.20896 0.51149 0.36279 0.0
C2032 C 0.17266 0.48234 0.36962 0.0
C2033 C 0.1781 0.46891 0.34682 0.0
C2034 C 0.19962 0.47683 0.33242 0.0
C2035 C 0.21505 0.49754 0.3405 0.0
H2036 H 0.31433 0.5444 0.83102 0.0
H2037 H 0.3652 0.53105 0.89477 0.0
H2038 H 0.34103 0.58061 0.81727 0.0
H2039 H 0.39168 0.56758 0.88144 0.0
H2040 H 0.41476 0.6195 0.78416 0.0
H2041 H 0.38449 0.58735 0.79905 0.0
H2042 H 0.39236 0.61585 0.87632 0.0
H2043 H 0.42265 0.64874 0.8611 0.0
C2044 C 0.33132 0.54908 0.84202 0.0
C2045 C 0.33809 0.53418 0.8635 0.0
C2046 C 0.34662 0.56998 0.83422 0.0
C2047 C 0.36873 0.57717 0.84814 0.0
C2048 C 0.37481 0.56287 0.87027 0.0
C2049 C 0.3597 0.54176 0.87783 0.0
C2050 C 0.4098 0.61931 0.8043 0.0
C2051 C 0.42127 0.63693 0.82134 0.0
C2052 C 0.39231 0.60073 0.81287 0.0
C2053 C 0.38594 0.59864 0.83899 0.0
C2054 C 0.39692 0.61665 0.85609 0.0
C2055 C 0.41413 0.63573 0.84733 0.0
H2056 H 0.63011 0.11959 0.76162 0.0
H2057 H 0.62681 0.15229 0.68576 0.0
H2058 H 0.66082 0.0877 0.74696 0.0
H2059 H 0.65759 0.11974 0.67078 0.0
H2060 H 0.68414 0.03554 0.64991 0.0
H2061 H 0.65746 0.07166 0.66375 0.0
H2062 H 0.70539 0.08125 0.73054 0.0
H2063 H 0.73247 0.04546 0.71621 0.0
C2064 C 0.63612 0.12016 0.74178 0.0
C2065 C 0.62577 0.13862 0.72492 0.0
C2066 C 0.6539 0.10178 0.73336 0.0
C2067 C 0.6617 0.10079 0.70758 0.0
C2068 C 0.65189 0.11968 0.69074 0.0
C2069 C 0.63439 0.13855 0.69936 0.0
C2070 C 0.68902 0.0454 0.66753 0.0
C2071 C 0.70998 0.03697 0.68237 0.0
C2072 C 0.67379 0.06627 0.6754 0.0
C2073 C 0.67906 0.0795 0.69837 0.0
C2074 C 0.70047 0.07145 0.7129 0.0
C2075 C 0.71595 0.05078 0.70479 0.0
H2076 H 0.89231 0.8901 0.23003 0.0
H2077 H 0.95341 0.94136 0.20847 0.0
H2078 H 0.86064 0.92225 0.2157 0.0
H2079 H 0.92237 0.97343 0.19513 0.0
H2080 H 0.86328 1.01734 0.14954 0.0
H2081 H 0.89181 0.98249 0.1622 0.0
H2082 H 0.8425 0.96532 0.22638 0.0
H2083 H 0.81354 1.00024 0.21315 0.0
C2084 C 0.89901 0.90802 0.22193 0.0
C2085 C 0.9255 0.91304 0.22039 0.0
C2086 C 0.88086 0.92666 0.21405 0.0
C2087 C 0.88875 0.95067 0.20412 0.0
C2088 C 0.9153 0.95524 0.20224 0.0
C2089 C 0.93323 0.93681 0.21015 0.0
C2090 C 0.85853 1.00618 0.16641 0.0
C2091 C 0.83658 1.01225 0.18081 0.0
C2092 C 0.87499 0.98616 0.17378 0.0
C2093 C 0.86988 0.97105 0.19563 0.0
C2094 C 0.8472 0.97637 0.20945 0.0
C2095 C 0.83071 0.99662 0.20207 0.0
H2096 H 0.33244 0.23258 0.49898 0.0
H2097 H 0.39644 0.18319 0.51602 0.0
H2098 H 0.31964 0.2038 0.46377 0.0
H2099 H 0.38432 0.15493 0.48081 0.0
H2100 H 0.33971 0.09322 0.43841 0.0
H2101 H 0.35247 0.12404 0.47087 0.0
H2102 H 0.32998 0.18614 0.42086 0.0
H2103 H 0.31608 0.15461 0.38838 0.0
C2104 C 0.3437 0.21552 0.49529 0.0
C2105 C 0.36494 0.20969 0.51099 0.0
C2106 C 0.33657 0.19913 0.47486 0.0
C2107 C 0.35067 0.17662 0.46939 0.0
C2108 C 0.3725 0.17158 0.48458 0.0
C2109 C 0.37958 0.1879 0.50481 0.0
C2110 C 0.33746 0.11343 0.43421 0.0
C2111 C 0.32679 0.12128 0.41068 0.0
C2112 C 0.34507 0.13127 0.45285 0.0
C2113 C 0.34249 0.15786 0.44875 0.0
C2114 C 0.33217 0.16589 0.42495 0.0
C2115 C 0.32455 0.14783 0.4061 0.0
H2116 H 0.26276 0.915 0.92469 0.0
H2117 H 0.18579 0.9232 0.89553 0.0
H2118 H 0.24785 0.88427 0.95643 0.0
H2119 H 0.17056 0.89259 0.9281 0.0
H2120 H 0.21461 0.81334 0.99838 0.0
H2121 H 0.22886 0.84033 0.96248 0.0
H2122 H 0.16616 0.89242 0.97669 0.0
H2123 H 0.15242 0.86579 1.01287 0.0
C2124 C 0.24262 0.91002 0.92481 0.0
C2125 C 0.22556 0.92169 0.90733 0.0
C2126 C 0.23405 0.89228 0.94315 0.0
C2127 C 0.20792 0.88594 0.94517 0.0
C2128 C 0.19081 0.89713 0.92731 0.0
C2129 C 0.19956 0.91453 0.90843 0.0
C2130 C 0.20411 0.83074 0.99404 0.0
C2131 C 0.1829 0.83786 1.00913 0.0
C2132 C 0.21215 0.84616 0.97332 0.0
C2133 C 0.19871 0.86871 0.96653 0.0
C2134 C 0.17692 0.8752 0.98109 0.0
C2135 C 0.16914 0.86 1.00199 0.0
H2136 H 0.89538 0.36493 0.52913 0.0
H2137 H 0.8324 0.31442 0.54657 0.0
H2138 H 0.88287 0.39318 0.56415 0.0
H2139 H 0.81919 0.34322 0.58165 0.0
H2140 H 0.8156 0.39291 0.65689 0.0
H2141 H 0.82969 0.36137 0.62452 0.0
H2142 H 0.85037 0.42347 0.57378 0.0
H2143 H 0.83744 0.45432 0.60611 0.0
C2144 C 0.87864 0.35999 0.54037 0.0
C2145 C 0.86439 0.33789 0.53438 0.0
C2146 C 0.87134 0.37629 0.5605 0.0
C2147 C 0.84969 0.37092 0.57577 0.0
C2148 C 0.83598 0.34812 0.57047 0.0
C2149 C 0.84332 0.33175 0.55013 0.0
C2150 C 0.82372 0.3997 0.63903 0.0
C2151 C 0.82542 0.42624 0.6342 0.0
C2152 C 0.83144 0.38163 0.62025 0.0
C2153 C 0.84131 0.38967 0.5963 0.0
C2154 C 0.84333 0.41626 0.59193 0.0
C2155 C 0.83564 0.4341 0.6105 0.0
H2156 H 0.73225 0.65491 0.15689 0.0
H2157 H 0.70905 0.59317 0.10708 0.0
H2158 H 0.71828 0.68622 0.12421 0.0
H2159 H 0.69631 0.62374 0.07442 0.0
H2160 H 0.65192 0.68213 0.02901 0.0
H2161 H 0.66436 0.65417 0.06427 0.0
H2162 H 0.72837 0.70394 0.08129 0.0
H2163 H 0.71518 0.7325 0.046 0.0
C2164 C 0.72386 0.64801 0.13918 0.0
C2165 C 0.72173 0.62144 0.13471 0.0
C2166 C 0.71621 0.66594 0.12022 0.0
C2167 C 0.70602 0.65774 0.09642 0.0
C2168 C 0.70359 0.63111 0.09243 0.0
C2169 C 0.71118 0.61341 0.11119 0.0
C2170 C 0.66873 0.68709 0.0402 0.0
C2171 C 0.68305 0.70908 0.03402 0.0
C2172 C 0.676 0.67094 0.06047 0.0
C2173 C 0.69772 0.67633 0.07569 0.0
C2174 C 0.71153 0.69901 0.07017 0.0
C2175 C 0.7042 0.71525 0.0497 0.0
H2176 H 0.38799 0.315 0.15393 0.0
H2177 H 0.43808 0.33942 0.093 0.0
H2178 H 0.42026 0.32903 0.18568 0.0
H2179 H 0.47033 0.35208 0.12393 0.0
H2180 H 0.51538 0.39595 0.18241 0.0
H2181 H 0.4801 0.3837 0.15443 0.0
H2182 H 0.46303 0.31948 0.20388 0.0
H2183 H 0.49826 0.33258 0.23256 0.0
C2184 C 0.40568 0.32364 0.1473 0.0
C2185 C 0.41036 0.32608 0.12082 0.0
C2186 C 0.4244 0.33133 0.16548 0.0
C2187 C 0.44815 0.34186 0.1576 0.0
C2188 C 0.45234 0.34457 0.13107 0.0
C2189 C 0.43381 0.337 0.11315 0.0
C2190 C 0.50416 0.37915 0.18732 0.0
C2191 C 0.51033 0.36473 0.20923 0.0
C2192 C 0.48388 0.37198 0.17114 0.0
C2193 C 0.46869 0.35021 0.17639 0.0
C2194 C 0.47414 0.33634 0.19904 0.0
C2195 C 0.49459 0.34362 0.21535 0.0
H2196 H 0.88888 0.23171 0.89159 0.0
H2197 H 0.93925 0.20912 0.95309 0.0
H2198 H 0.92135 0.21766 0.86019 0.0
H2199 H 0.97173 0.19634 0.92241 0.0
H2200 H 1.01673 0.15168 0.86404 0.0
H2201 H 0.98163 0.16415 0.89214 0.0
H2202 H 0.9641 0.22789 0.8422 0.0
H2203 H 0.99921 0.21467 0.81351 0.0
C2204 C 0.90669 0.22346 0.89842 0.0
C2205 C 0.91138 0.22154 0.92495 0.0
C2206 C 0.92552 0.21577 0.88044 0.0
C2207 C 0.94941 0.20573 0.88855 0.0
C2208 C 0.95364 0.20351 0.91513 0.0
C2209 C 0.93499 0.21114 0.93288 0.0
C2210 C 1.00546 0.16843 0.85907 0.0
C2211 C 1.01144 0.18268 0.837 0.0
C2212 C 0.98529 0.17571 0.87529 0.0
C2213 C 0.96999 0.19738 0.86989 0.0
C2214 C 0.97529 0.2111 0.84713 0.0
C2215 C 0.99566 0.20375 0.83081 0.0
H2216 H 0.54818 0.8331 0.31228 0.0
H2217 H 0.52928 0.89578 0.36266 0.0
H2218 H 0.58352 0.82066 0.34101 0.0
H2219 H 0.56472 0.88413 0.39083 0.0
H2220 H 0.60755 0.83973 0.45207 0.0
H2221 H 0.57529 0.85256 0.42119 0.0
H2222 H 0.62579 0.83074 0.35933 0.0
H2223 H 0.65805 0.81659 0.39098 0.0
C2224 C 0.55151 0.84416 0.32956 0.0
C2225 C 0.53524 0.86485 0.33569 0.0
C2226 C 0.57203 0.83725 0.3459 0.0
C2227 C 0.57704 0.85108 0.36868 0.0
C2228 C 0.56131 0.87247 0.37399 0.0
C2229 C 0.54095 0.8793 0.35772 0.0
C2230 C 0.61191 0.83764 0.4319 0.0
C2231 C 0.63548 0.82701 0.42416 0.0
C2232 C 0.59337 0.84532 0.41402 0.0
C2233 C 0.59766 0.84295 0.38747 0.0
C2234 C 0.62155 0.83276 0.37955 0.0
C2235 C 0.64028 0.82499 0.39767 0.0
H2236 H 0.14984 0.68625 0.62323 0.0
H2237 H 0.12052 0.7633 0.63016 0.0
H2238 H 0.11719 0.67136 0.65389 0.0
H2239 H 0.08864 0.74874 0.66088 0.0
H2240 H 0.04673 0.71639 0.73213 0.0
H2241 H 0.08262 0.73038 0.70504 0.0
H2242 H 0.06862 0.66682 0.65387 0.0
H2243 H 0.03246 0.65333 0.68061 0.0
C2244 C 0.13685 0.7001 0.63161 0.0
C2245 C 0.1379 0.726 0.62407 0.0
C2246 C 0.11793 0.69155 0.64903 0.0
C2247 C 0.10001 0.70879 0.65985 0.0
C2248 C 0.10197 0.73484 0.65313 0.0
C2249 C 0.12036 0.74321 0.63539 0.0
C2250 C 0.05111 0.70565 0.7149 0.0
C2251 C 0.03611 0.68427 0.70805 0.0
C2252 C 0.07182 0.71354 0.69943 0.0
C2253 C 0.07866 0.69977 0.67713 0.0
C2254 C 0.06417 0.67783 0.67091 0.0
C2255 C 0.04328 0.67019 0.68616 0.0
H2256 H 0.89108 0.6592 0.73108 0.0
H2257 H 0.95242 0.60943 0.70686 0.0
H2258 H 0.85958 0.62666 0.71709 0.0
H2259 H 0.92173 0.57693 0.69419 0.0
H2260 H 0.86337 0.53158 0.65024 0.0
H2261 H 0.89118 0.56703 0.66249 0.0
H2262 H 0.84186 0.58365 0.72686 0.0
H2263 H 0.8134 0.54822 0.71379 0.0
C2264 C 0.89785 0.64153 0.72248 0.0
C2265 C 0.92436 0.63702 0.72007 0.0
C2266 C 0.87982 0.62265 0.71481 0.0
C2267 C 0.88789 0.59892 0.70434 0.0
C2268 C 0.91445 0.5949 0.70166 0.0
C2269 C 0.93223 0.61357 0.70923 0.0
C2270 C 0.85847 0.54273 0.66707 0.0
C2271 C 0.83666 0.53639 0.68154 0.0
C2272 C 0.87453 0.56311 0.67424 0.0
C2273 C 0.86925 0.57824 0.69603 0.0
C2274 C 0.84671 0.5726 0.70997 0.0
C2275 C 0.83053 0.55204 0.70271 0.0
H2276 H 0.59259 0.44028 0.20908 0.0
H2277 H 0.65376 0.38949 0.23164 0.0
H2278 H 0.62352 0.47259 0.1963 0.0
H2279 H 0.6854 0.42182 0.21767 0.0
H2280 H 0.7326 0.49958 0.21471 0.0
H2281 H 0.70366 0.46463 0.22793 0.0
H2282 H 0.65392 0.48224 0.16408 0.0
H2283 H 0.6823 0.51715 0.15156 0.0
C2284 C 0.61278 0.43589 0.21109 0.0
C2285 C 0.62054 0.41219 0.22147 0.0
C2286 C 0.63067 0.45444 0.20347 0.0
C2287 C 0.65723 0.45006 0.20571 0.0
C2288 C 0.66517 0.42611 0.21575 0.0
C2289 C 0.64705 0.40735 0.22341 0.0
C2290 C 0.71529 0.49608 0.20376 0.0
C2291 C 0.70927 0.51183 0.18262 0.0
C2292 C 0.69883 0.4758 0.21111 0.0
C2293 C 0.67604 0.47057 0.19736 0.0
C2294 C 0.67078 0.48584 0.17566 0.0
C2295 C 0.68717 0.50591 0.16835 0.0
H2296 H 0.4212 0.89495 0.35896 0.0
H2297 H 0.41485 0.92458 0.28205 0.0
H2298 H 0.39086 0.92792 0.37379 0.0
H2299 H 0.38459 0.95696 0.2966 0.0
H2300 H 0.36526 1.01263 0.39275 0.0
H2301 H 0.39134 0.97608 0.37899 0.0
H2302 H 0.34076 0.9645 0.31449 0.0
H2303 H 0.3143 1.00083 0.32876 0.0
C2304 C 0.41301 0.90804 0.3451 0.0
C2305 C 0.42066 0.90697 0.31925 0.0
C2306 C 0.39575 0.92719 0.35363 0.0
C2307 C 0.38525 0.94541 0.33646 0.0
C2308 C 0.39202 0.94339 0.31045 0.0
C2309 C 0.40953 0.92471 0.3021 0.0
C2310 C 0.35969 1.00227 0.37561 0.0
C2311 C 0.33812 1.01027 0.36142 0.0
C2312 C 0.37456 0.98113 0.36781 0.0
C2313 C 0.36834 0.96715 0.34555 0.0
C2314 C 0.3464 0.97485 0.33159 0.0
C2315 C 0.33128 0.99583 0.33965 0.0
H2316 H 0.18319 0.03031 0.89526 0.0
H2317 H 0.23291 0.04742 0.83163 0.0
H2318 H 0.15487 0.0654 0.88285 0.0
H2319 H 0.2041 0.08254 0.81859 0.0
H2320 H 0.15449 0.15779 0.81477 0.0
H2321 H 0.18611 0.12553 0.82901 0.0
H2322 H 0.12424 0.07482 0.85037 0.0
H2323 H 0.0933 0.10703 0.83721 0.0
C2324 C 0.18797 0.04152 0.87843 0.0
C2325 C 0.20984 0.03538 0.86395 0.0
C2326 C 0.17163 0.06168 0.87119 0.0
C2327 C 0.17675 0.07684 0.84938 0.0
C2328 C 0.19938 0.07145 0.83549 0.0
C2329 C 0.21577 0.05108 0.84276 0.0
C2330 C 0.14777 0.13996 0.82305 0.0
C2331 C 0.12126 0.1351 0.82487 0.0
C2332 C 0.16588 0.12124 0.83087 0.0
C2333 C 0.15794 0.09733 0.84099 0.0
C2334 C 0.13138 0.09294 0.84313 0.0
C2335 C 0.11349 0.11144 0.83531 0.0
H2336 H 0.76182 0.91657 0.61983 0.0
H2337 H 0.68482 0.92392 0.64897 0.0
H2338 H 0.7472 0.88563 0.5881 0.0
H2339 H 0.66988 0.89299 0.61651 0.0
H2340 H 0.6516 0.86552 0.53218 0.0
H2341 H 0.66518 0.8925 0.56816 0.0
H2342 H 0.72893 0.84156 0.58209 0.0
H2343 H 0.71485 0.81423 0.54635 0.0
C2344 C 0.74172 0.91139 0.61965 0.0
C2345 C 0.72454 0.92288 0.63707 0.0
C2346 C 0.73333 0.89351 0.60136 0.0
C2347 C 0.70729 0.88682 0.59941 0.0
C2348 C 0.69007 0.89782 0.61724 0.0
C2349 C 0.69864 0.9154 0.63604 0.0
C2350 C 0.66852 0.86007 0.54295 0.0
C2351 C 0.68263 0.83818 0.53578 0.0
C2352 C 0.67621 0.87546 0.56374 0.0
C2353 C 0.69824 0.86939 0.57815 0.0
C2354 C 0.71203 0.84708 0.57134 0.0
C2355 C 0.70409 0.83146 0.55071 0.0
H2356 H 0.82933 0.23333 0.04436 0.0
H2357 H 0.89418 0.1834 0.03299 0.0
H2358 H 0.81484 0.20617 0.08004 0.0
H2359 H 0.8802 0.15664 0.06892 0.0
H2360 H 0.85914 0.12578 0.14946 0.0
H2361 H 0.87417 0.15658 0.117 0.0
H2362 H 0.79744 0.16185 0.08647 0.0
H2363 H 0.7827 0.13115 0.11833 0.0
C2364 C 0.84037 0.21644 0.04932 0.0
C2365 C 0.86244 0.21006 0.03517 0.0
C2366 C 0.83218 0.20092 0.06992 0.0
C2367 C 0.8463 0.17906 0.07753 0.0
C2368 C 0.86889 0.17333 0.0639 0.0
C2369 C 0.87682 0.1886 0.04312 0.0
C2370 C 0.84544 0.13381 0.13608 0.0
C2371 C 0.81969 0.12575 0.13657 0.0
C2372 C 0.85408 0.15133 0.11726 0.0
C2373 C 0.83709 0.16172 0.09882 0.0
C2374 C 0.81115 0.15449 0.10022 0.0
C2375 C 0.8027 0.1367 0.11857 0.0
H2376 H 0.21649 0.73281 0.50123 0.0
H2377 H 0.15041 0.68442 0.51208 0.0
H2378 H 0.23053 0.70548 0.46555 0.0
H2379 H 0.16401 0.6574 0.47615 0.0
H2380 H 0.1852 0.62584 0.39585 0.0
H2381 H 0.17039 0.65671 0.42839 0.0
H2382 H 0.24719 0.66136 0.45889 0.0
H2383 H 0.26172 0.6307 0.42687 0.0
C2384 C 0.20506 0.71621 0.49614 0.0
C2385 C 0.18278 0.71031 0.51015 0.0
C2386 C 0.21302 0.70058 0.47555 0.0
C2387 C 0.19848 0.67904 0.46781 0.0
C2388 C 0.17566 0.67382 0.48128 0.0
C2389 C 0.16793 0.68924 0.50204 0.0
C2390 C 0.19895 0.63376 0.40925 0.0
C2391 C 0.22466 0.62558 0.40871 0.0
C2392 C 0.19044 0.6513 0.42812 0.0
C2393 C 0.20752 0.66155 0.44657 0.0
C2394 C 0.23341 0.65412 0.44514 0.0
C2395 C 0.24174 0.63635 0.42673 0.0
H2396 H 0.39444 0.36704 1.01441 0.0
H2397 H 0.33337 0.3143 0.99658 0.0
H2398 H 0.3817 0.39431 0.97832 0.0
H2399 H 0.32036 0.3416 0.9605 0.0
H2400 H 0.36365 0.42884 0.89833 0.0
H2401 H 0.37888 0.39805 0.93089 0.0
H2402 H 0.30062 0.38332 0.95328 0.0
H2403 H 0.28572 0.41369 0.92143 0.0
C2404 C 0.3782 0.3613 1.00277 0.0
C2405 C 0.3644 0.33891 1.009 0.0
C2406 C 0.37101 0.37686 0.98188 0.0
C2407 C 0.34986 0.37042 0.96632 0.0
C2408 C 0.33652 0.34753 0.97214 0.0
C2409 C 0.34387 0.33186 0.99295 0.0
C2410 C 0.34975 0.41863 0.90988 0.0
C2411 C 0.32342 0.4238 0.90698 0.0
C2412 C 0.35845 0.40116 0.92881 0.0
C2413 C 0.34103 0.38805 0.945 0.0
C2414 C 0.31473 0.39266 0.94128 0.0
C2415 C 0.30615 0.41027 0.92283 0.0
H2416 H 0.53007 0.65005 0.86332 0.0
H2417 H 0.54656 0.71376 0.81339 0.0
H2418 H 0.56534 0.66256 0.89134 0.0
H2419 H 0.58184 0.72694 0.84193 0.0
H2420 H 0.65749 0.7309 0.89085 0.0
H2421 H 0.62497 0.71662 0.85953 0.0
H2422 H 0.57501 0.69498 0.92184 0.0
H2423 H 0.60749 0.70814 0.95248 0.0
C2424 C 0.54117 0.66693 0.85844 0.0
C2425 C 0.53483 0.68139 0.83659 0.0
C2426 C 0.56143 0.67423 0.87461 0.0
C2427 C 0.57648 0.69609 0.86934 0.0
C2428 C 0.57085 0.71 0.84676 0.0
C2429 C 0.55038 0.70266 0.83053 0.0
C2430 C 0.63978 0.72253 0.89773 0.0
C2431 C 0.63521 0.72062 0.92427 0.0
C2432 C 0.62091 0.71469 0.87979 0.0
C2433 C 0.59713 0.7045 0.88795 0.0
C2434 C 0.59303 0.70226 0.91454 0.0
C2435 C 0.61169 0.71008 0.93226 0.0
H2436 H 0.0308 0.89655 0.1825 0.0
H2437 H 0.04726 0.8329 0.23255 0.0
H2438 H 0.066 0.88403 0.15459 0.0
H2439 H 0.08243 0.81956 0.20397 0.0
H2440 H 0.15764 0.81465 0.15439 0.0
H2441 H 0.12536 0.82883 0.186 0.0
H2442 H 0.07565 0.85236 0.12404 0.0
H2443 H 0.10791 0.83952 0.09324 0.0
C2444 C 0.04186 0.87964 0.18741 0.0
C2445 C 0.03552 0.86524 0.20928 0.0
C2446 C 0.0621 0.87231 0.17128 0.0
C2447 C 0.0771 0.85039 0.17653 0.0
C2448 C 0.07148 0.83653 0.19913 0.0
C2449 C 0.05106 0.84395 0.21538 0.0
C2450 C 0.14003 0.82342 0.14768 0.0
C2451 C 0.13546 0.82594 0.12118 0.0
C2452 C 0.12129 0.8312 0.16578 0.0
C2453 C 0.09764 0.84192 0.15781 0.0
C2454 C 0.09356 0.8447 0.13126 0.0
C2455 C 0.1121 0.83702 0.11341 0.0
H2456 H 0.51219 0.1517 0.68258 0.0
H2457 H 0.50009 0.21657 0.73232 0.0
H2458 H 0.47626 0.16549 0.6556 0.0
H2459 H 0.46438 0.23077 0.7051 0.0
H2460 H 0.42549 0.26324 0.63102 0.0
H2461 H 0.45749 0.24845 0.66162 0.0
H2462 H 0.42856 0.1712 0.65448 0.0
H2463 H 0.39608 0.18626 0.62369 0.0
C2464 C 0.50188 0.169 0.68771 0.0
C2465 C 0.50964 0.18348 0.70915 0.0
C2466 C 0.48111 0.17683 0.67231 0.0
C2467 C 0.46728 0.19936 0.67795 0.0
C2468 C 0.47467 0.21351 0.69985 0.0
C2469 C 0.49528 0.20547 0.71543 0.0
C2470 C 0.42566 0.2431 0.63615 0.0
C2471 C 0.40811 0.22598 0.62469 0.0
C2472 C 0.44408 0.23461 0.65387 0.0
C2473 C 0.44597 0.20853 0.66055 0.0
C2474 C 0.42794 0.1914 0.64965 0.0
C2475 C 0.40908 0.20006 0.63216 0.0
H2476 H 0.88958 0.31528 0.39135 0.0
H2477 H 0.93976 0.3384 0.45281 0.0
H2478 H 0.922 0.3294 0.35992 0.0
H2479 H 0.97212 0.3515 0.42205 0.0
H2480 H 1.01664 0.39627 0.36292 0.0
H2481 H 0.98155 0.38385 0.39117 0.0
H2482 H 0.96522 0.31884 0.34249 0.0
H2483 H 1.00035 0.33185 0.31378 0.0
C2484 C 0.90731 0.3237 0.39816 0.0
C2485 C 0.91196 0.32575 0.42469 0.0
C2486 C 0.92612 0.33145 0.38016 0.0
C2487 C 0.94992 0.34173 0.38824 0.0
C2488 C 0.95409 0.34413 0.41482 0.0
C2489 C 0.9355 0.33636 0.4326 0.0
C2490 C 1.00561 0.37927 0.35825 0.0
C2491 C 1.01196 0.3646 0.33655 0.0
C2492 C 0.98545 0.37203 0.37456 0.0
C2493 C 0.97049 0.35003 0.36954 0.0
C2494 C 0.97613 0.3359 0.34712 0.0
C2495 C 0.99651 0.34316 0.33078 0.0
H2496 H 0.26563 0.13281 0.3851 0.0
H2497 H 0.2166 0.10139 0.3265 0.0
H2498 H 0.23843 0.17117 0.38714 0.0
H2499 H 0.18873 0.13861 0.3292 0.0
H2500 H 0.15635 0.21779 0.31748 0.0
H2501 H 0.18523 0.18095 0.31707 0.0
H2502 H 0.20069 0.19206 0.39773 0.0
H2503 H 0.17354 0.2298 0.39757 0.0
C2504 C 0.24857 0.13374 0.37327 0.0
C2505 C 0.2431 0.1139 0.35585 0.0
C2506 C 0.23291 0.15584 0.37428 0.0
C2507 C 0.21134 0.15862 0.35792 0.0
C2508 C 0.20544 0.13797 0.34152 0.0
C2509 C 0.2212 0.11625 0.34029 0.0
C2510 C 0.16627 0.2127 0.33501 0.0
C2511 C 0.16201 0.2268 0.35761 0.0
C2512 C 0.18261 0.19114 0.33496 0.0
C2513 C 0.19516 0.18277 0.35757 0.0
C2514 C 0.19164 0.19755 0.37987 0.0
C2515 C 0.1756 0.2192 0.37983 0.0
H2516 H 0.33156 0.94616 0.8235 0.0
H2517 H 0.28403 0.91533 0.8834 0.0
H2518 H 0.35982 0.90917 0.82637 0.0
H2519 H 0.31152 0.87734 0.88575 0.0
H2520 H 0.37593 0.81889 0.8963 0.0
H2521 H 0.3492 0.85686 0.89616 0.0
H2522 H 0.36376 0.86659 0.81518 0.0
H2523 H 0.39232 0.82947 0.81589 0.0
C2524 C 0.3274 0.93154 0.83766 0.0
C2525 C 0.30582 0.93399 0.8536 0.0
C2526 C 0.34339 0.90994 0.839 0.0
C2527 C 0.33799 0.88956 0.85591 0.0
C2528 C 0.31673 0.89248 0.87256 0.0
C2529 C 0.3009 0.91441 0.87142 0.0
C2530 C 0.37379 0.82923 0.87842 0.0
C2531 C 0.38701 0.82114 0.8562 0.0
C2532 C 0.35797 0.85103 0.87828 0.0
C2533 C 0.35426 0.86547 0.85578 0.0
C2534 C 0.36651 0.85667 0.8332 0.0
C2535 C 0.38266 0.83495 0.83342 0.0
H2536 H 0.7163 0.44391 0.72 0.0
H2537 H 0.76546 0.41368 0.66095 0.0
H2538 H 0.69208 0.40418 0.72074 0.0
H2539 H 0.74086 0.37337 0.66132 0.0
H2540 H 0.71833 0.29618 0.70205 0.0
H2541 H 0.73686 0.33728 0.68993 0.0
H2542 H 0.66364 0.37392 0.70228 0.0
H2543 H 0.64534 0.33281 0.71545 0.0
C2544 C 0.72136 0.42897 0.70648 0.0
C2545 C 0.74266 0.43212 0.69027 0.0
C2546 C 0.70739 0.40603 0.70687 0.0
C2547 C 0.71444 0.38515 0.69128 0.0
C2548 C 0.73497 0.3888 0.6739 0.0
C2549 C 0.74891 0.41205 0.67337 0.0
C2550 C 0.70607 0.31296 0.70217 0.0
C2551 C 0.68033 0.31101 0.71028 0.0
C2552 C 0.7167 0.33663 0.69482 0.0
C2553 C 0.70198 0.35928 0.69526 0.0
C2554 C 0.67584 0.35711 0.70205 0.0
C2555 C 0.66518 0.33337 0.7094 0.0
H2556 H 0.78286 0.63309 0.16074 0.0
H2557 H 0.83152 0.6023 0.21997 0.0
H2558 H 0.8097 0.6717 0.15893 0.0
H2559 H 0.85903 0.63978 0.21752 0.0
H2560 H 0.89078 0.71922 0.22919 0.0
H2561 H 0.86211 0.6822 0.2295 0.0
H2562 H 0.84736 0.69282 0.14865 0.0
H2563 H 0.8743 0.7307 0.14889 0.0
C2564 C 0.79976 0.63421 0.17277 0.0
C2565 C 0.80524 0.61446 0.19028 0.0
C2566 C 0.81522 0.65646 0.1719 0.0
C2567 C 0.83657 0.65949 0.18848 0.0
C2568 C 0.84248 0.63895 0.20501 0.0
C2569 C 0.82692 0.61707 0.20611 0.0
C2570 C 0.88105 0.71398 0.2116 0.0
C2571 C 0.88545 0.72797 0.18896 0.0
C2572 C 0.86483 0.69232 0.21159 0.0
C2573 C 0.85256 0.68376 0.1889 0.0
C2574 C 0.8562 0.69845 0.16657 0.0
C2575 C 0.87212 0.72019 0.16666 0.0
H2576 H 0.39751 0.17417 0.22885 0.0
H2577 H 0.31732 0.15739 0.21707 0.0
H2578 H 0.39763 0.20145 0.19122 0.0
H2579 H 0.31688 0.18637 0.18029 0.0
H2580 H 0.32653 0.2173 0.10049 0.0
H2581 H 0.32889 0.18975 0.13794 0.0
H2582 H 0.3872 0.2392 0.17019 0.0
H2583 H 0.38547 0.26609 0.13162 0.0
C2584 C 0.37973 0.17636 0.21833 0.0
C2585 C 0.3575 0.16283 0.22595 0.0
C2586 C 0.37975 0.19248 0.19674 0.0
C2587 C 0.35742 0.19611 0.18201 0.0
C2588 C 0.33479 0.18366 0.19043 0.0
C2589 C 0.33485 0.16726 0.21196 0.0
C2590 C 0.34035 0.22191 0.11532 0.0
C2591 C 0.35616 0.24361 0.11276 0.0
C2592 C 0.34137 0.20633 0.13719 0.0
C2593 C 0.35781 0.21223 0.1578 0.0
C2594 C 0.37433 0.23366 0.15489 0.0
C2595 C 0.37352 0.24913 0.13264 0.0
H2596 H 0.23045 0.8926 0.71586 0.0
H2597 H 0.14979 0.877 0.72594 0.0
H2598 H 0.23112 0.86376 0.679 0.0
H2599 H 0.1499 0.85005 0.68816 0.0
H2600 H 0.16237 0.78431 0.63032 0.0
H2601 H 0.16002 0.81213 0.66804 0.0
H2602 H 0.22023 0.85961 0.63644 0.0
H2603 H 0.22312 0.83098 0.59975 0.0
C2604 C 0.21285 0.88306 0.71033 0.0
C2605 C 0.19003 0.88771 0.72392 0.0
C2606 C 0.21306 0.86676 0.68874 0.0
C2607 C 0.1904 0.85466 0.67986 0.0
C2608 C 0.16783 0.85869 0.69407 0.0
C2609 C 0.16771 0.87465 0.71575 0.0
C2610 C 0.17455 0.80107 0.63123 0.0
C2611 C 0.19262 0.80564 0.61182 0.0
C2612 C 0.17341 0.81709 0.65301 0.0
C2613 C 0.19028 0.83821 0.65591 0.0
C2614 C 0.20743 0.84329 0.63567 0.0
C2615 C 0.20878 0.82709 0.61425 0.0
H2616 H 0.81703 0.39123 0.82767 0.0
H2617 H 0.89742 0.37514 0.81635 0.0
H2618 H 0.81673 0.36234 0.8645 0.0
H2619 H 0.89766 0.34794 0.85404 0.0
H2620 H 0.88545 0.2829 0.91326 0.0
H2621 H 0.88731 0.31 0.87484 0.0
H2622 H 0.82874 0.35917 0.90693 0.0
H2623 H 0.82625 0.33143 0.94424 0.0
C2624 C 0.83464 0.38154 0.8329 0.0
C2625 C 0.8573 0.38611 0.81902 0.0
C2626 C 0.83465 0.36519 0.85445 0.0
C2627 C 0.85736 0.35295 0.863 0.0
C2628 C 0.87972 0.35675 0.84841 0.0
C2629 C 0.87963 0.37281 0.82678 0.0
C2630 C 0.87344 0.29983 0.91222 0.0
C2631 C 0.85592 0.30519 0.93196 0.0
C2632 C 0.87434 0.31543 0.89008 0.0
C2633 C 0.85777 0.33681 0.88716 0.0
C2634 C 0.84124 0.34261 0.9077 0.0
C2635 C 0.84012 0.32691 0.92946 0.0
H2636 H 0.64979 0.67518 0.31477 0.0
H2637 H 0.72954 0.65734 0.32801 0.0
H2638 H 0.64933 0.70243 0.35242 0.0
H2639 H 0.72969 0.68631 0.36479 0.0
H2640 H 0.71902 0.7173 0.44435 0.0
H2641 H 0.71687 0.68972 0.4069 0.0
H2642 H 0.65998 0.74009 0.37354 0.0
H2643 H 0.66143 0.76698 0.41213 0.0
C2644 C 0.66739 0.67713 0.32562 0.0
C2645 C 0.68959 0.66332 0.31841 0.0
C2646 C 0.66719 0.69323 0.34722 0.0
C2647 C 0.68931 0.69656 0.36233 0.0
C2648 C 0.71193 0.68383 0.35433 0.0
C2649 C 0.71204 0.66744 0.33281 0.0
C2650 C 0.70555 0.72209 0.42928 0.0
C2651 C 0.69005 0.74405 0.4315 0.0
C2652 C 0.70466 0.7065 0.40742 0.0
C2653 C 0.6887 0.71267 0.38651 0.0
C2654 C 0.67247 0.73435 0.3891 0.0
C2655 C 0.67312 0.74983 0.41133 0.0
H2656 H 0.2129 0.32776 0.14333 0.0
H2657 H 0.24966 0.34142 0.21621 0.0
H2658 H 0.17175 0.34085 0.16175 0.0
H2659 H 0.20864 0.35369 0.23478 0.0
H2660 H 0.1329 0.38338 0.26344 0.0
H2661 H 0.17275 0.38282 0.23833 0.0
H2662 H 0.14153 0.3225 0.19081 0.0
H2663 H 0.10216 0.32343 0.21565 0.0
C2664 C 0.21235 0.33389 0.16317 0.0
C2665 C 0.23474 0.33312 0.17826 0.0
C2666 C 0.18862 0.34121 0.17387 0.0
C2667 C 0.18653 0.34818 0.19998 0.0
C2668 C 0.20923 0.3487 0.21464 0.0
C2669 C 0.23285 0.3413 0.20399 0.0
C2670 C 0.13426 0.37078 0.24703 0.0
C2671 C 0.11418 0.35367 0.24139 0.0
C2672 C 0.15729 0.3701 0.2328 0.0
C2673 C 0.16075 0.35236 0.21253 0.0
C2674 C 0.13982 0.33661 0.20596 0.0
C2675 C 0.11708 0.33714 0.22026 0.0
H2676 H 0.71781 0.23098 0.88954 0.0
H2677 H 0.72839 0.15043 0.87338 0.0
H2678 H 0.68093 0.23166 0.86068 0.0
H2679 H 0.69062 0.15053 0.8464 0.0
H2680 H 0.63214 0.16277 0.78125 0.0
H2681 H 0.67013 0.16066 0.80872 0.0
H2682 H 0.63845 0.22061 0.85652 0.0
H2683 H 0.60153 0.22331 0.82821 0.0
C2684 C 0.71239 0.21341 0.87987 0.0
C2685 C 0.7261 0.1906 0.88439 0.0
C2686 C 0.69079 0.21362 0.86355 0.0
C2687 C 0.68203 0.19098 0.8513 0.0
C2688 C 0.69641 0.16845 0.85516 0.0
C2689 C 0.71809 0.16833 0.87113 0.0
C2690 C 0.63307 0.17492 0.79802 0.0
C2691 C 0.61353 0.19282 0.8028 0.0
C2692 C 0.65502 0.17393 0.81384 0.0
C2693 C 0.65798 0.19079 0.83496 0.0
C2694 C 0.63765 0.2078 0.8402 0.0
C2695 C 0.61606 0.20902 0.82421 0.0
H2696 H 0.79492 0.84435 0.32716 0.0
H2697 H 0.83144 0.83029 0.4001 0.0
H2698 H 0.83601 0.85654 0.30878 0.0
H2699 H 0.87255 0.84361 0.38197 0.0
H2700 H 0.94305 0.82725 0.32992 0.0
H2701 H 0.90321 0.826 0.35382 0.0
H2702 H 0.87196 0.88496 0.30464 0.0
H2703 H 0.91239 0.8858 0.28034 0.0
C2704 C 0.81167 0.84407 0.33945 0.0
C2705 C 0.80966 0.83576 0.36514 0.0
C2706 C 0.83535 0.85149 0.3289 0.0
C2707 C 0.858 0.85094 0.34364 0.0
C2708 C 0.85577 0.84392 0.36973 0.0
C2709 C 0.83202 0.8365 0.3803 0.0
C2710 C 0.92799 0.84058 0.32469 0.0
C2711 C 0.9311 0.85679 0.30336 0.0
C2712 C 0.90496 0.83988 0.33848 0.0
C2713 C 0.8839 0.85517 0.33125 0.0
C2714 C 0.88749 0.87256 0.31068 0.0
C2715 C 0.91083 0.87339 0.29691 0.0
H2716 H 0.44576 0.72026 0.71471 0.0
H2717 H 0.41413 0.66127 0.76293 0.0
H2718 H 0.40891 0.71735 0.68627 0.0
H2719 H 0.37627 0.65892 0.73528 0.0
H2720 H 0.3178 0.64834 0.67094 0.0
H2721 H 0.35575 0.64829 0.69767 0.0
H2722 H 0.36655 0.72903 0.6821 0.0
H2723 H 0.32948 0.72847 0.65351 0.0
C2724 C 0.43099 0.70628 0.71898 0.0
C2725 C 0.43316 0.69061 0.74081 0.0
C2726 C 0.40948 0.70493 0.70289 0.0
C2727 C 0.38891 0.6883 0.70844 0.0
C2728 C 0.39156 0.67189 0.72994 0.0
C2729 C 0.41342 0.67302 0.74587 0.0
C2730 C 0.32839 0.66611 0.67283 0.0
C2731 C 0.32059 0.68831 0.65933 0.0
C2732 C 0.35017 0.66615 0.68866 0.0
C2733 C 0.36488 0.68853 0.69211 0.0
C2734 C 0.3564 0.71109 0.67956 0.0
C2735 C 0.33471 0.71096 0.66339 0.0
H2736 H 0.78161 0.91508 0.66276 0.0
H2737 H 0.82951 0.94527 0.72286 0.0
H2738 H 0.80643 0.875 0.66322 0.0
H2739 H 0.85401 0.90563 0.72378 0.0
H2740 H 0.9009 0.83384 0.71849 0.0
H2741 H 0.88284 0.87522 0.70564 0.0
H2742 H 0.80965 0.83895 0.69193 0.0
H2743 H 0.82791 0.79765 0.70387 0.0
C2744 C 0.79799 0.91354 0.67538 0.0
C2745 C 0.80375 0.93353 0.69254 0.0
C2746 C 0.81204 0.89038 0.67601 0.0
C2747 C 0.83223 0.88669 0.6938 0.0
C2748 C 0.83892 0.90752 0.70963 0.0
C2749 C 0.82482 0.93041 0.70911 0.0
C2750 C 0.88111 0.83457 0.71222 0.0
C2751 C 0.86589 0.81224 0.71263 0.0
C2752 C 0.87061 0.85844 0.70505 0.0
C2753 C 0.84456 0.86077 0.6979 0.0
C2754 C 0.82976 0.83817 0.69707 0.0
C2755 C 0.84022 0.81439 0.7043 0.0
H2756 H 0.76153 0.13193 0.16089 0.0
H2757 H 0.71438 0.10077 0.22095 0.0
H2758 H 0.73404 0.16994 0.15897 0.0
H2759 H 0.68609 0.13777 0.21846 0.0
H2760 H 0.65369 0.21738 0.22974 0.0
H2761 H 0.68225 0.18024 0.23 0.0
H2762 H 0.6964 0.19065 0.14903 0.0
H2763 H 0.6697 0.22863 0.14935 0.0
C2764 C 0.74474 0.13278 0.17301 0.0
C2765 C 0.73995 0.11313 0.19079 0.0
C2766 C 0.72891 0.15473 0.17211 0.0
C2767 C 0.70777 0.15757 0.18893 0.0
C2768 C 0.70245 0.13708 0.20573 0.0
C2769 C 0.71844 0.11547 0.20684 0.0
C2770 C 0.66327 0.21205 0.21212 0.0
C2771 C 0.6588 0.22605 0.18948 0.0
C2772 C 0.67941 0.19032 0.21208 0.0
C2773 C 0.69153 0.1817 0.18936 0.0
C2774 C 0.68773 0.19633 0.167 0.0
C2775 C 0.67192 0.21814 0.16713 0.0
H2776 H 0.32745 0.74908 0.3342 0.0
H2777 H 0.40158 0.71293 0.3273 0.0
H2778 H 0.30876 0.70844 0.34766 0.0
H2779 H 0.38297 0.67224 0.34155 0.0
H2780 H 0.33036 0.601 0.3248 0.0
H2781 H 0.35498 0.64057 0.32295 0.0
H2782 H 0.30469 0.67442 0.37934 0.0
H2783 H 0.27991 0.63435 0.38096 0.0
C2784 C 0.33989 0.73252 0.3358 0.0
C2785 C 0.36607 0.73442 0.32923 0.0
C2786 C 0.32917 0.70915 0.3439 0.0
C2787 C 0.34419 0.68676 0.34568 0.0
C2788 C 0.37062 0.68889 0.34018 0.0
C2789 C 0.38141 0.71237 0.33219 0.0
C2790 C 0.32513 0.61656 0.33754 0.0
C2791 C 0.30336 0.61433 0.35328 0.0
C2792 C 0.33927 0.6394 0.33645 0.0
C2793 C 0.33182 0.66107 0.35075 0.0
C2794 C 0.3109 0.65833 0.36777 0.0
C2795 C 0.29687 0.63519 0.36907 0.0
H2796 H 0.16983 0.3207 0.89455 0.0
H2797 H 0.15386 0.3302 0.81388 0.0
H2798 H 0.19639 0.35873 0.89414 0.0
H2799 H 0.18234 0.36742 0.81292 0.0
H2800 H 0.2142 0.44755 0.82123 0.0
H2801 H 0.18621 0.41024 0.82369 0.0
H2802 H 0.23408 0.37889 0.8838 0.0
H2803 H 0.26123 0.41706 0.88183 0.0
C2804 C 0.17204 0.33082 0.87655 0.0
C2805 C 0.15898 0.32242 0.85434 0.0
C2806 C 0.18778 0.35265 0.87626 0.0
C2807 C 0.1916 0.36679 0.8536 0.0
C2808 C 0.17951 0.35769 0.83103 0.0
C2809 C 0.16341 0.33593 0.83141 0.0
C2810 C 0.21829 0.43293 0.83543 0.0
C2811 C 0.23965 0.43553 0.8517 0.0
C2812 C 0.20248 0.41118 0.83655 0.0
C2813 C 0.20781 0.3909 0.85362 0.0
C2814 C 0.22888 0.39396 0.87051 0.0
C2815 C 0.24452 0.416 0.86959 0.0
H2816 H 0.72051 0.83062 0.94325 0.0
H2817 H 0.66099 0.78226 0.91251 0.0
H2818 H 0.71758 0.8586 0.90617 0.0
H2819 H 0.65872 0.80954 0.87426 0.0
H2820 H 0.64788 0.87467 0.81613 0.0
H2821 H 0.6481 0.84742 0.85375 0.0
H2822 H 0.72903 0.86225 0.86378 0.0
H2823 H 0.72825 0.8913 0.82713 0.0
C2824 C 0.70651 0.82617 0.92856 0.0
C2825 C 0.69071 0.80446 0.93107 0.0
C2826 C 0.70512 0.842 0.90692 0.0
C2827 C 0.68835 0.83633 0.88651 0.0
C2828 C 0.67186 0.8149 0.88942 0.0
C2829 C 0.673 0.79918 0.91145 0.0
C2830 C 0.66576 0.87248 0.82648 0.0
C2831 C 0.68795 0.88593 0.81865 0.0
C2832 C 0.66593 0.85637 0.84805 0.0
C2833 C 0.68844 0.85262 0.86248 0.0
C2834 C 0.711 0.86505 0.85387 0.0
C2835 C 0.71073 0.88148 0.83241 0.0
H2836 H 0.81744 0.15578 0.32772 0.0
H2837 H 0.89737 0.17334 0.31532 0.0
H2838 H 0.81718 0.18446 0.36467 0.0
H2839 H 0.89773 0.20016 0.35322 0.0
H2840 H 0.88572 0.26456 0.41293 0.0
H2841 H 0.88745 0.23756 0.37446 0.0
H2842 H 0.82928 0.18809 0.40682 0.0
H2843 H 0.82682 0.21584 0.44411 0.0
C2844 C 0.83497 0.16571 0.33276 0.0
C2845 C 0.85749 0.16162 0.3185 0.0
C2846 C 0.83502 0.18193 0.3544 0.0
C2847 C 0.85764 0.19449 0.36271 0.0
C2848 C 0.87986 0.19111 0.3478 0.0
C2849 C 0.87971 0.17523 0.32605 0.0
C2850 C 0.87376 0.2476 0.41193 0.0
C2851 C 0.85635 0.24216 0.43173 0.0
C2852 C 0.87459 0.23204 0.38976 0.0
C2853 C 0.85811 0.21059 0.3869 0.0
C2854 C 0.84169 0.20471 0.40751 0.0
C2855 C 0.8406 0.22041 0.42928 0.0
H2856 H 0.16063 0.76614 0.13213 0.0
H2857 H 0.21875 0.71656 0.10081 0.0
H2858 H 0.1588 0.73936 0.17073 0.0
H2859 H 0.21622 0.68905 0.1383 0.0
H2860 H 0.22783 0.65679 0.21748 0.0
H2861 H 0.22842 0.68555 0.18056 0.0
H2862 H 0.14798 0.7019 0.19185 0.0
H2863 H 0.14799 0.67491 0.22965 0.0
C2864 C 0.17238 0.74903 0.13313 0.0
C2865 C 0.18956 0.74326 0.11321 0.0
C2866 C 0.1715 0.73361 0.15538 0.0
C2867 C 0.18773 0.71196 0.15824 0.0
C2868 C 0.20397 0.7058 0.13757 0.0
C2869 C 0.20509 0.72135 0.11569 0.0
C2870 C 0.2104 0.66689 0.21241 0.0
C2871 C 0.1878 0.66292 0.22657 0.0
C2872 C 0.21055 0.68316 0.1908 0.0
C2873 C 0.18805 0.69591 0.18246 0.0
C2874 C 0.16576 0.69269 0.19731 0.0
C2875 C 0.16571 0.67673 0.219 0.0
H2876 H 0.32916 0.40623 0.70938 0.0
H2877 H 0.32497 0.33142 0.7443 0.0
H2878 H 0.34527 0.38662 0.66963 0.0
H2879 H 0.34124 0.31184 0.70495 0.0
H2880 H 0.37946 0.28144 0.63368 0.0
H2881 H 0.37723 0.30679 0.67339 0.0
H2882 H 0.32408 0.35881 0.63695 0.0
H2883 H 0.32613 0.33333 0.59779 0.0
C2884 C 0.33236 0.3857 0.70881 0.0
C2885 C 0.32582 0.37041 0.73005 0.0
C2886 C 0.34142 0.37439 0.68597 0.0
C2887 C 0.34458 0.34754 0.68392 0.0
C2888 C 0.3394 0.33253 0.70576 0.0
C2889 C 0.32996 0.34376 0.72835 0.0
C2890 C 0.36818 0.29886 0.63388 0.0
C2891 C 0.3533 0.30559 0.61241 0.0
C2892 C 0.36657 0.31324 0.65676 0.0
C2893 C 0.35029 0.33485 0.65858 0.0
C2894 C 0.33699 0.34253 0.63639 0.0
C2895 C 0.33821 0.32793 0.61383 0.0
H2896 H 0.94443 0.72161 0.82848 0.0
H2897 H 0.9136 0.66225 0.77999 0.0
H2898 H 0.90719 0.71891 0.85623 0.0
H2899 H 0.87522 0.66021 0.80704 0.0
H2900 H 0.81715 0.64945 0.87226 0.0
H2901 H 0.8547 0.64958 0.84496 0.0
H2902 H 0.86472 0.7306 0.85955 0.0
H2903 H 0.82808 0.72993 0.8886 0.0
C2904 C 0.92971 0.70765 0.82398 0.0
C2905 C 0.93226 0.69182 0.80231 0.0
C2906 C 0.90797 0.70642 0.83966 0.0
C2907 C 0.88751 0.68976 0.83387 0.0
C2908 C 0.89043 0.67324 0.81248 0.0
C2909 C 0.91255 0.67424 0.79691 0.0
C2910 C 0.82747 0.66733 0.86998 0.0
C2911 C 0.81965 0.68958 0.88338 0.0
C2912 C 0.849 0.66746 0.85384 0.0
C2913 C 0.86342 0.68996 0.85005 0.0
C2914 C 0.85481 0.71258 0.86239 0.0
C2915 C 0.83336 0.71237 0.87883 0.0
H2916 H 0.29659 0.83832 0.21788 0.0
H2917 H 0.33222 0.82688 0.14412 0.0
H2918 H 0.33782 0.85042 0.23615 0.0
H2919 H 0.37352 0.83994 0.16224 0.0
H2920 H 0.44454 0.82296 0.21456 0.0
H2921 H 0.40464 0.8215 0.19046 0.0
H2922 H 0.37306 0.88028 0.23957 0.0
H2923 H 0.41337 0.8813 0.26392 0.0
C2924 C 0.31317 0.83862 0.20541 0.0
C2925 C 0.3109 0.83115 0.17949 0.0
C2926 C 0.33691 0.84595 0.21589 0.0
C2927 C 0.35932 0.84613 0.20085 0.0
C2928 C 0.35687 0.83977 0.17462 0.0
C2929 C 0.33304 0.83248 0.1641 0.0
C2930 C 0.4294 0.83626 0.21964 0.0
C2931 C 0.43236 0.85256 0.24094 0.0
C2932 C 0.40637 0.83541 0.20579 0.0
C2933 C 0.38523 0.85057 0.21303 0.0
C2934 C 0.3887 0.86803 0.23351 0.0
C2935 C 0.412 0.86903 0.24728 0.0
H2936 H 0.22956 0.14917 0.67155 0.0
H2937 H 0.21752 0.22939 0.65473 0.0
H2938 H 0.19189 0.1489 0.69868 0.0
H2939 H 0.18078 0.2297 0.68364 0.0
H2940 H 0.10132 0.2201 0.71501 0.0
H2941 H 0.13851 0.21761 0.68716 0.0
H2942 H 0.17109 0.1593 0.73641 0.0
H2943 H 0.13276 0.16111 0.76357 0.0
C2944 C 0.21896 0.16691 0.67368 0.0
C2945 C 0.22652 0.1892 0.6602 0.0
C2946 C 0.19736 0.16681 0.68973 0.0
C2947 C 0.1826 0.18913 0.69336 0.0
C2948 C 0.19094 0.2118 0.68093 0.0
C2949 C 0.21245 0.21181 0.66457 0.0
C2950 C 0.11618 0.20629 0.71952 0.0
C2951 C 0.11385 0.19053 0.74127 0.0
C2952 C 0.13788 0.20517 0.70376 0.0
C2953 C 0.15851 0.18871 0.70955 0.0
C2954 C 0.15576 0.17221 0.73098 0.0
C2955 C 0.13368 0.17308 0.74662 0.0
H2956 H 0.60122 0.32703 0.33089 0.0
H2957 H 0.6321 0.38614 0.28221 0.0
H2958 H 0.63871 0.32943 0.3584 0.0
H2959 H 0.67073 0.38786 0.30901 0.0
H2960 H 0.73002 0.39784 0.37323 0.0
H2961 H 0.69205 0.39814 0.34645 0.0
H2962 H 0.681 0.31737 0.36169 0.0
H2963 H 0.71808 0.31767 0.39026 0.0
C2964 C 0.61602 0.34085 0.32629 0.0
C2965 C 0.61342 0.35667 0.3046 0.0
C2966 C 0.6379 0.34192 0.34185 0.0
C2967 C 0.65847 0.35839 0.33592 0.0
C2968 C 0.65547 0.37495 0.31455 0.0
C2969 C 0.63321 0.37412 0.29912 0.0
C2970 C 0.71939 0.38011 0.37121 0.0
C2971 C 0.72707 0.35783 0.38466 0.0
C2972 C 0.69759 0.38022 0.35537 0.0
C2973 C 0.68276 0.35793 0.3519 0.0
C2974 C 0.69122 0.33526 0.36428 0.0
C2975 C 0.71292 0.33524 0.38045 0.0
H2976 H 0.05873 0.30413 0.22009 0.0
H2977 H 0.98653 0.33276 0.24785 0.0
H2978 H 0.03874 0.29255 0.17948 0.0
H2979 H 0.96568 0.31965 0.20801 0.0
H2980 H 0.99826 0.26749 0.10823 0.0
H2981 H 1.01307 0.26946 0.15259 0.0
H2982 H 0.96114 0.33274 0.1665 0.0
H2983 H 0.94542 0.32931 0.12257 0.0
C2984 C 0.03824 0.30677 0.21789 0.0
C2985 C 0.0241 0.31884 0.23731 0.0
C2986 C 0.02662 0.3002 0.19446 0.0
C2987 C 1.00037 0.30531 0.18987 0.0
C2988 C 0.98598 0.3159 0.2102 0.0
C2989 C 0.99777 0.32294 0.23339 0.0
C2990 C 0.98962 0.28135 0.12108 0.0
C2991 C 0.97051 0.29808 0.11202 0.0
C2992 C 0.99836 0.28279 0.14653 0.0
C2993 C 0.98873 0.3015 0.16357 0.0
C2994 C 0.96893 0.31771 0.15449 0.0
C2995 C 0.95984 0.31587 0.12916 0.0
H2996 H 0.59888 0.71625 0.62028 0.0
H2997 H 0.54854 0.78076 0.60908 0.0
H2998 H 0.58342 0.71157 0.66413 0.0
H2999 H 0.53406 0.7775 0.65345 0.0
H3000 H 0.4881 0.7427 0.72057 0.0
H3001 H 0.50785 0.75472 0.67997 0.0
H3002 H 0.57998 0.72296 0.7061 0.0
H3003 H 0.5593 0.70946 0.7458 0.0
C3004 C 0.58509 0.72998 0.62757 0.0
C3005 C 0.57505 0.74894 0.61131 0.0
C3006 C 0.57616 0.72742 0.65287 0.0
C3007 C 0.55715 0.74404 0.66283 0.0
C3008 C 0.54815 0.76384 0.64669 0.0
C3009 C 0.55672 0.76602 0.62125 0.0
C3010 C 0.50836 0.73905 0.71783 0.0
C3011 C 0.52227 0.72558 0.73651 0.0
C3012 C 0.51985 0.74588 0.69442 0.0
C3013 C 0.54572 0.73967 0.68913 0.0
C3014 C 0.55994 0.72759 0.70878 0.0
C3015 C 0.54826 0.72029 0.7319 0.0
H3016 H 0.49988 0.28066 0.93653 0.0
H3017 H 0.44661 0.21896 0.92319 0.0
H3018 H 0.51435 0.27808 0.89213 0.0
H3019 H 0.46201 0.21492 0.87923 0.0
H3020 H 0.48683 0.21401 0.79766 0.0
H3021 H 0.46634 0.22747 0.83754 0.0
H3022 H 0.5397 0.25462 0.8654 0.0
H3023 H 0.55929 0.24272 0.82474 0.0
C3024 C 0.49109 0.26668 0.9239 0.0
C3025 C 0.47197 0.25016 0.93325 0.0
C3026 C 0.49963 0.26489 0.89843 0.0
C3027 C 0.48978 0.24603 0.88166 0.0
C3028 C 0.46997 0.23004 0.89102 0.0
C3029 C 0.46107 0.23223 0.91637 0.0
C3030 C 0.49821 0.22389 0.81198 0.0
C3031 C 0.52451 0.2279 0.80788 0.0
C3032 C 0.48662 0.23114 0.83519 0.0
C3033 C 0.50121 0.24187 0.85535 0.0
C3034 C 0.52743 0.24686 0.85056 0.0
C3035 C 0.53884 0.24007 0.82712 0.0
H3036 H 0.04734 0.77161 0.43913 0.0
H3037 H 0.10216 0.83118 0.42294 0.0
H3038 H 0.03188 0.77342 0.39496 0.0
H3039 H 0.08589 0.83445 0.3792 0.0
H3040 H 0.0594 0.83364 0.29809 0.0
H3041 H 0.08029 0.82067 0.33797 0.0
H3042 H 1.00666 0.79712 0.36809 0.0
H3043 H 0.98655 0.80858 0.3275 0.0
C3044 C 0.05627 0.78492 0.42591 0.0
C3045 C 0.07613 0.80106 0.43438 0.0
C3046 C 0.04718 0.78628 0.40058 0.0
C3047 C 0.05723 0.80433 0.38308 0.0
C3048 C 0.07774 0.81993 0.39158 0.0
C3049 C 0.08715 0.81818 0.4168 0.0
C3050 C 0.04799 0.82465 0.31294 0.0
C3051 C 1.02147 0.8215 0.30947 0.0
C3052 C 0.05984 0.81768 0.33613 0.0
C3053 C 0.04534 0.80811 0.35688 0.0
C3054 C 1.01885 0.80397 0.35277 0.0
C3055 C 1.00715 0.81048 0.32937 0.0
H3056 H 0.24779 0.98749 0.33401 0.0
H3057 H 0.22167 0.05956 0.30337 0.0
H3058 H 0.20771 0.96711 0.32108 0.0
H3059 H 0.18071 0.04006 0.29199 0.0
H3060 H 0.12219 0.94762 0.32955 0.0
H3061 H 0.16614 0.96312 0.33342 0.0
H3062 H 0.15332 1.01452 0.2695 0.0
H3063 H 0.1089 0.99996 0.2671 0.0
C3064 C 0.2336 0.99881 0.32386 0.0
C3065 C 0.23809 0.02497 0.31915 0.0
C3066 C 0.21026 0.98729 0.31691 0.0
C3067 C 0.19026 1.00179 0.30579 0.0
C3068 C 0.1954 0.02785 0.3001 0.0
C3069 C 0.21903 0.03919 0.30656 0.0
C3070 C 0.12902 0.96188 0.31607 0.0
C3071 C 0.11214 0.97245 0.29795 0.0
C3072 C 0.15438 0.97085 0.31816 0.0
C3073 C 0.1638 0.99043 0.30189 0.0
C3074 C 0.14702 0.99999 0.2829 0.0
C3075 C 0.12153 0.99137 0.2812 0.0
H3076 H 0.43858 0.05178 0.76842 0.0
H3077 H 0.42476 0.10096 0.83327 0.0
H3078 H 0.39419 0.03677 0.76996 0.0
H3079 H 0.38086 0.08511 0.8361 0.0
H3080 H 0.32665 0.98962 0.80322 0.0
H3081 H 0.36735 1.00987 0.79227 0.0
H3082 H 0.33928 0.08201 0.82227 0.0
H3083 H 0.29936 0.06092 0.83461 0.0
C3084 C 0.42582 0.05962 0.78282 0.0
C3085 C 0.43498 0.07778 0.8005 0.0
C3086 C 0.40039 0.05076 0.78399 0.0
C3087 C 0.38351 0.0594 0.8033 0.0
C3088 C 0.39273 0.07819 0.82057 0.0
C3089 C 0.41804 0.08733 0.81908 0.0
C3090 C 0.32897 1.01 0.80664 0.0
C3091 C 0.30968 0.02381 0.8193 0.0
C3092 C 0.35244 1.02174 0.80045 0.0
C3093 C 0.35717 0.04775 0.80659 0.0
C3094 C 0.33695 0.06187 0.81774 0.0
C3095 C 0.31373 0.04996 0.82436 0.0
H3096 H 0.71964 0.48721 0.73994 0.0
H3097 H 0.74706 0.56005 0.71252 0.0
H3098 H 0.67879 0.50674 0.75146 0.0
H3099 H 0.707 0.58042 0.7256 0.0
H3100 H 0.6216 0.60044 0.71585 0.0
H3101 H 0.66556 0.58488 0.71234 0.0
H3102 H 0.65161 0.53191 0.7747 0.0
H3103 H 0.6072 0.54658 0.77673 0.0
C3104 C 0.71729 0.50772 0.73754 0.0
C3105 C 0.73668 0.52219 0.72581 0.0
C3106 C 0.69374 0.51908 0.74408 0.0
C3107 C 0.689 0.54538 0.73931 0.0
C3108 C 0.7093 0.56008 0.72906 0.0
C3109 C 0.73261 0.54855 0.72204 0.0
C3110 C 0.62819 0.5858 0.72907 0.0
C3111 C 0.61103 0.57482 0.74663 0.0
C3112 C 0.65354 0.57682 0.72719 0.0
C3113 C 0.66262 0.55681 0.74312 0.0
C3114 C 0.64554 0.54682 0.76158 0.0
C3115 C 0.62007 0.55546 0.76306 0.0
H3116 H 0.93988 0.49861 0.2762 0.0
H3117 H 0.92404 0.44519 0.21526 0.0
H3118 H 0.89566 0.51396 0.27459 0.0
H3119 H 0.88027 0.46138 0.21219 0.0
H3120 H 0.82766 0.55964 0.24068 0.0
H3121 H 0.86839 0.53955 0.25182 0.0
H3122 H 0.83907 0.46635 0.22575 0.0
H3123 H 0.79915 0.48725 0.21306 0.0
C3124 C 0.92672 0.48994 0.26264 0.0
C3125 C 0.9353 0.47048 0.24608 0.0
C3126 C 0.90136 0.49899 0.26139 0.0
C3127 C 0.88392 0.48931 0.24305 0.0
C3128 C 0.89256 0.46922 0.22697 0.0
C3129 C 0.9178 0.45985 0.2286 0.0
C3130 C 0.82974 0.53911 0.23814 0.0
C3131 C 0.81007 0.52494 0.22646 0.0
C3132 C 0.85323 0.52743 0.24446 0.0
C3133 C 0.85763 0.5011 0.2395 0.0
C3134 C 0.83705 0.4867 0.22934 0.0
C3135 C 0.81382 0.49855 0.22254 0.0
H3136 H 0.3355 0.24734 0.98566 0.0
H3137 H 0.30561 0.22081 0.05778 0.0
H3138 H 0.32268 0.20722 0.96525 0.0
H3139 H 0.29436 0.1798 0.03826 0.0
H3140 H 0.26956 0.108 0.99791 0.0
H3141 H 0.27176 0.15243 1.01266 0.0
H3142 H 0.33556 0.16572 0.96134 0.0
H3143 H 0.3319 0.1218 0.94567 0.0
C3144 C 0.32556 0.23304 0.99699 0.0
C3145 C 0.32104 0.2374 0.02316 0.0
C3146 C 0.31866 0.20969 0.98545 0.0
C3147 C 0.3078 0.18958 0.99997 0.0
C3148 C 0.30228 0.19459 0.02605 0.0
C3149 C 0.30868 0.21823 0.03741 0.0
C3150 C 0.28359 0.12075 0.98939 0.0
C3151 C 0.30036 0.11155 0.97043 0.0
C3152 C 0.28516 0.14622 0.9981 0.0
C3153 C 0.30404 0.16314 0.98858 0.0
C3154 C 0.32037 0.15386 0.96901 0.0
C3155 C 0.31841 0.12852 0.95996 0.0
H3156 H 0.83305 0.29898 0.05882 0.0
H3157 H 0.80477 0.32671 0.98644 0.0
H3158 H 0.81983 0.33882 0.07955 0.0
H3159 H 0.79313 0.36739 1.00632 0.0
H3160 H 0.82912 0.42417 0.10013 0.0
H3161 H 0.83276 0.3803 0.08429 0.0
H3162 H 0.76999 0.39435 0.03176 0.0
H3163 H 0.76785 0.43869 0.0467 0.0
C3164 C 0.82333 0.31346 0.0475 0.0
C3165 C 0.81937 0.30953 1.02116 0.0
C3166 C 0.81622 0.33665 0.05923 0.0
C3167 C 0.8057 0.35699 0.04476 0.0
C3168 C 0.80074 0.3524 1.01849 0.0
C3169 C 0.80736 0.32895 1.00692 0.0
C3170 C 0.81584 0.41762 0.08554 0.0
C3171 C 0.79815 0.4348 0.07474 0.0
C3172 C 0.8178 0.39232 0.07639 0.0
C3173 C 0.80179 0.38329 0.0564 0.0
C3174 C 0.78318 0.40037 0.04662 0.0
C3175 C 0.78163 0.4258 0.05543 0.0
H3176 H 0.73972 0.7207 0.48658 0.0
H3177 H 0.71087 0.74804 0.55883 0.0
H3178 H 0.75133 0.67996 0.50635 0.0
H3179 H 0.724 0.70809 0.57948 0.0
H3180 H 0.71539 0.62247 0.59961 0.0
H3181 H 0.71139 0.66639 0.58392 0.0
H3182 H 0.77468 0.65323 0.53194 0.0
H3183 H 0.77723 0.60887 0.54671 0.0
C3184 C 0.73696 0.71835 0.50702 0.0
C3185 C 0.72486 0.73769 0.52125 0.0
C3186 C 0.74358 0.69486 0.51853 0.0
C3187 C 0.73848 0.69014 0.54474 0.0
C3188 C 0.72776 0.71038 0.55921 0.0
C3189 C 0.72069 0.73362 0.54753 0.0
C3190 C 0.7287 0.62923 0.58517 0.0
C3191 C 0.74667 0.61229 0.57448 0.0
C3192 C 0.72653 0.65455 0.5761 0.0
C3193 C 0.74257 0.66383 0.55631 0.0
C3194 C 0.76145 0.647 0.54665 0.0
C3195 C 0.76323 0.62156 0.55537 0.0
H3196 H 0.21318 0.79851 0.48544 0.0
H3197 H 0.24393 0.8252 0.55722 0.0
H3198 H 0.22671 0.83819 0.46461 0.0
H3199 H 0.25593 0.86573 0.53729 0.0
H3200 H 0.21821 0.92391 0.44518 0.0
H3201 H 0.21428 0.87996 0.46072 0.0
H3202 H 0.27897 0.89234 0.51129 0.0
H3203 H 0.28147 0.93678 0.49669 0.0
C3204 C 0.22353 0.8127 0.49658 0.0
C3205 C 0.22807 0.80855 0.52279 0.0
C3206 C 0.23082 0.8358 0.48481 0.0
C3207 C 0.24213 0.85583 0.49913 0.0
C3208 C 0.2477 0.85097 0.52523 0.0
C3209 C 0.24088 0.8276 0.53682 0.0
C3210 C 0.23185 0.91697 0.45926 0.0
C3211 C 0.25022 0.9337 0.46962 0.0
C3212 C 0.22972 0.89162 0.46823 0.0
C3213 C 0.24619 0.88213 0.48759 0.0
C3214 C 0.26545 0.89875 0.49691 0.0
C3215 C 0.26719 0.92423 0.48829 0.0
H3216 H 0.05918 0.7131 0.79841 0.0
H3217 H 0.98677 0.74266 0.82462 0.0
H3218 H 0.0795 0.72658 0.83837 0.0
H3219 H 1.0062 0.75455 0.86544 0.0
H3220 H 0.04597 0.78051 0.93684 0.0
H3221 H 0.03154 0.77779 0.89239 0.0
H3222 H 0.08355 0.71425 0.88003 0.0
H3223 H 0.09892 0.71845 0.92399 0.0
C3224 C 0.04777 0.72312 0.81259 0.0
C3225 C 1.02155 0.72737 0.80821 0.0
C3226 C 0.05926 0.7304 0.83585 0.0
C3227 C 0.04463 0.74137 0.85581 0.0
C3228 C 1.01849 0.74658 0.85075 0.0
C3229 C 1.00718 0.73981 0.82723 0.0
C3230 C 0.05469 0.76641 0.9243 0.0
C3231 C 0.07372 0.74984 0.9338 0.0
C3232 C 0.04618 0.76454 0.89882 0.0
C3233 C 0.05596 0.74555 0.88218 0.0
C3234 C 0.07566 0.72948 0.8917 0.0
C3235 C 0.08453 0.73176 0.91706 0.0
H3236 H 0.55884 0.30604 0.32664 0.0
H3237 H 0.48638 0.33436 0.29911 0.0
H3238 H 0.53916 0.29468 0.36744 0.0
H3239 H 0.46584 0.32142 0.33908 0.0
H3240 H 0.44582 0.33151 0.42431 0.0
H3241 H 0.46154 0.33482 0.38043 0.0
H3242 H 0.5137 0.27179 0.39468 0.0
H3243 H 0.49887 0.26995 0.43904 0.0
C3244 C 0.53837 0.30869 0.32895 0.0
C3245 C 0.52406 0.32065 0.30956 0.0
C3246 C 0.52693 0.30224 0.35248 0.0
C3247 C 0.5007 0.30732 0.35716 0.0
C3248 C 0.48614 0.31774 0.33683 0.0
C3249 C 0.49776 0.32469 0.31357 0.0
C3250 C 0.46031 0.31811 0.4178 0.0
C3251 C 0.471 0.3004 0.43501 0.0
C3252 C 0.46938 0.31987 0.39249 0.0
C3253 C 0.4892 0.30366 0.38352 0.0
C3254 C 0.49894 0.28509 0.40066 0.0
C3255 C 0.4902 0.28372 0.4261 0.0
H3256 H 0.55009 0.76631 0.10742 0.0
H3257 H 0.59942 0.83141 0.11968 0.0
H3258 H 0.53571 0.76854 0.15193 0.0
H3259 H 0.58408 0.83504 0.16365 0.0
H3260 H 0.56057 0.83537 0.24517 0.0
H3261 H 0.58132 0.82224 0.20537 0.0
H3262 H 0.50914 0.79109 0.17862 0.0
H3263 H 0.48929 0.80275 0.21929 0.0
C3264 C 0.55805 0.78094 0.11986 0.0
C3265 C 0.57606 0.79851 0.11024 0.0
C3266 C 0.54956 0.78251 0.14535 0.0
C3267 C 0.55837 0.80215 0.1618 0.0
C3268 C 0.57703 0.81928 0.15212 0.0
C3269 C 0.58587 0.81734 0.12677 0.0
C3270 C 0.54954 0.82474 0.2311 0.0
C3271 C 0.5235 0.81955 0.23549 0.0
C3272 C 0.56125 0.81765 0.20796 0.0
C3273 C 0.547 0.80593 0.18814 0.0
C3274 C 0.52111 0.79969 0.19324 0.0
C3275 C 0.50959 0.8063 0.21667 0.0
H3276 H 0.94662 0.21687 0.62137 0.0
H3277 H 0.99923 0.27907 0.60795 0.0
H3278 H 0.96219 0.213 0.66529 0.0
H3279 H 1.01387 0.27668 0.65235 0.0
H3280 H 0.98698 0.21223 0.74671 0.0
H3281 H 0.96638 0.22561 0.70687 0.0
H3282 H 0.03946 0.25361 0.67927 0.0
H3283 H 0.05917 0.24181 0.71998 0.0
C3284 C 0.96096 0.23029 0.62818 0.0
C3285 C 0.97161 0.24833 0.6113 0.0
C3286 C 0.96996 0.2282 0.65351 0.0
C3287 C 0.98963 0.24441 0.66285 0.0
C3288 C 0.99925 0.26335 0.64607 0.0
C3289 C 0.99061 0.26503 0.62061 0.0
C3290 C 0.99828 0.22225 0.73245 0.0
C3291 C 0.02452 0.22653 0.73664 0.0
C3292 C 0.98663 0.22946 0.70926 0.0
C3293 C 1.00111 0.24039 0.68918 0.0
C3294 C 0.02728 0.24567 0.69406 0.0
C3295 C 0.03875 0.23895 0.71752 0.0
H3296 H 0.82504 0.98895 0.74196 0.0
H3297 H 0.79786 0.06138 0.71319 0.0
H3298 H 0.86575 1.00863 0.7537 0.0
H3299 H 0.83782 0.08194 0.72643 0.0
H3300 H 0.9235 0.10131 0.71699 0.0
H3301 H 0.87943 0.08603 0.71345 0.0
H3302 H 0.89267 0.03417 0.77691 0.0
H3303 H 0.93717 0.04853 0.779 0.0
C3304 C 0.82739 1.00943 0.73932 0.0
C3305 C 0.80811 0.02373 0.72717 0.0
C3306 C 0.85087 1.02088 0.74598 0.0
C3307 C 0.85566 0.04709 0.74087 0.0
C3308 C 0.83546 0.06166 0.73019 0.0
C3309 C 0.81221 0.05003 0.72307 0.0
C3310 C 0.91674 0.08699 0.73043 0.0
C3311 C 0.93373 0.07619 0.74831 0.0
C3312 C 0.89132 0.07817 0.72854 0.0
C3313 C 0.88203 0.05852 0.74476 0.0
C3314 C 0.89892 0.04877 0.76356 0.0
C3315 C 0.92444 0.05725 0.76507 0.0
H3316 H 0.72031 0.05775 0.24261 0.0
H3317 H 0.74607 0.98675 0.20931 0.0
H3318 H 0.67949 0.03782 0.25381 0.0
H3319 H 0.70611 0.96596 0.22188 0.0
H3320 H 0.60799 0.99622 0.27782 0.0
H3321 H 0.65247 1.01091 0.27582 0.0
H3322 H 0.66437 0.96349 0.20875 0.0
H3323 H 0.62041 0.94792 0.21205 0.0
C3324 C 0.71765 0.03749 0.23882 0.0
C3325 C 0.73654 0.02369 0.22553 0.0
C3326 C 0.69411 0.02593 0.24514 0.0
C3327 C 0.68891 1.00012 0.23852 0.0
C3328 C 0.70876 0.98596 0.22677 0.0
C3329 C 0.73202 0.9977 0.22002 0.0
C3330 C 0.62045 0.98852 0.2631 0.0
C3331 C 0.61088 0.97067 0.24531 0.0
C3332 C 0.64594 0.99719 0.26167 0.0
C3333 C 0.66247 0.98871 0.24198 0.0
C3334 C 0.6528 0.97027 0.22457 0.0
C3335 C 0.62745 0.96129 0.22633 0.0
H3336 H 0.4364 0.49884 0.26667 0.0
H3337 H 0.42293 0.44678 0.3293 0.0
H3338 H 0.39194 0.51335 0.26874 0.0
H3339 H 0.37893 0.46222 0.33281 0.0
H3340 H 0.32412 0.55886 0.30288 0.0
H3341 H 0.36486 0.5391 0.29142 0.0
H3342 H 0.3373 0.4662 0.32004 0.0
H3343 H 0.29736 0.48686 0.33301 0.0
C3344 C 0.42372 0.4903 0.28074 0.0
C3345 C 0.43306 0.47149 0.29765 0.0
C3346 C 0.39822 0.49887 0.28224 0.0
C3347 C 0.38139 0.48938 0.30118 0.0
C3348 C 0.39075 0.46989 0.3176 0.0
C3349 C 0.41613 0.46096 0.31571 0.0
C3350 C 0.32655 0.53844 0.30589 0.0
C3351 C 0.30737 0.5243 0.31835 0.0
C3352 C 0.35007 0.52695 0.29939 0.0
C3353 C 0.35499 0.50083 0.30496 0.0
C3354 C 0.33487 0.48641 0.31593 0.0
C3355 C 0.31161 0.49808 0.32289 0.0
H3356 H 0.22347 0.49265 0.79881 0.0
H3357 H 0.24616 0.56156 0.8383 0.0
H3358 H 0.18273 0.51262 0.78716 0.0
H3359 H 0.2064 0.58246 0.82536 0.0
H3360 H 0.11134 0.55481 0.76322 0.0
H3361 H 0.15601 0.54072 0.76602 0.0
H3362 H 0.16425 0.58294 0.83702 0.0
H3363 H 0.12019 0.59799 0.83303 0.0
C3364 C 0.22019 0.51253 0.80393 0.0
C3365 C 0.2381 0.52566 0.81916 0.0
C3366 C 0.1967 0.5241 0.79736 0.0
C3367 C 0.19067 0.54925 0.8056 0.0
C3368 C 0.20967 0.56289 0.81923 0.0
C3369 C 0.23282 0.55111 0.82624 0.0
C3370 C 0.12307 0.56154 0.77901 0.0
C3371 C 0.11247 0.57779 0.79771 0.0
C3372 C 0.14864 0.55319 0.78088 0.0
C3373 C 0.16418 0.56039 0.80186 0.0
C3374 C 0.15347 0.57724 0.82022 0.0
C3375 C 0.12806 0.58591 0.81807 0.0
H3376 H 0.74111 0.82699 0.98574 0.0
H3377 H 0.71319 0.7988 0.05801 0.0
H3378 H 0.75229 0.86777 1.00572 0.0
H3379 H 0.7259 0.83878 0.07883 0.0
H3380 H 0.71551 0.92398 0.09951 0.0
H3381 H 0.71236 0.88012 0.0835 0.0
H3382 H 0.77515 0.89497 0.03137 0.0
H3383 H 0.77684 0.93929 0.04652 0.0
C3384 C 0.73851 0.82915 1.00622 0.0
C3385 C 0.72674 0.80956 1.02039 0.0
C3386 C 0.74485 0.85267 1.01784 0.0
C3387 C 0.73982 0.85717 0.04411 0.0
C3388 C 0.72956 0.83667 0.05852 0.0
C3389 C 0.72274 0.8134 0.04673 0.0
C3390 C 0.72891 0.91761 0.08498 0.0
C3391 C 0.74652 0.93499 0.07441 0.0
C3392 C 0.72724 0.89232 0.07573 0.0
C3393 C 0.7434 0.88351 0.05581 0.0
C3394 C 0.76188 0.90082 0.0462 0.0
C3395 C 0.76317 0.92623 0.05513 0.0
H3396 H 0.21459 0.62111 0.94667 0.0
H3397 H 0.27878 0.60892 0.99716 0.0
H3398 H 0.21027 0.66494 0.96244 0.0
H3399 H 0.27581 0.65329 1.01207 0.0
H3400 H 0.24104 0.72079 0.05803 0.0
H3401 H 0.25283 0.68 0.03832 0.0
H3402 H 0.22266 0.70678 0.96577 0.0
H3403 H 0.20943 0.74669 0.98633 0.0
C3404 C 0.22833 0.62818 0.96058 0.0
C3405 C 0.24715 0.6117 0.9705 0.0
C3406 C 0.22598 0.65346 0.96968 0.0
C3407 C 0.24263 0.66315 0.9888 0.0
C3408 C 0.2622 0.64674 0.99783 0.0
C3409 C 0.26421 0.62132 0.98902 0.0
C3410 C 0.23769 0.71813 0.03771 0.0
C3411 C 0.22472 0.73705 0.02362 0.0
C3412 C 0.24438 0.69462 0.02626 0.0
C3413 C 0.23851 0.6895 1.00026 0.0
C3414 C 0.22698 0.70936 0.9859 0.0
C3415 C 0.21983 0.73258 0.99753 0.0
H3416 H 0.30026 0.32474 0.55392 0.0
H3417 H 0.3392 0.30012 0.48547 0.0
H3418 H 0.28922 0.3654 0.53313 0.0
H3419 H 0.3273 0.33999 0.46404 0.0
H3420 H 0.33866 0.4264 0.44976 0.0
H3421 H 0.34131 0.38237 0.46538 0.0
H3422 H 0.26783 0.39134 0.50268 0.0
H3423 H 0.26593 0.43589 0.48755 0.0
C3424 C 0.30536 0.32756 0.53399 0.0
C3425 C 0.32016 0.30908 0.52115 0.0
C3426 C 0.29919 0.35099 0.52201 0.0
C3427 C 0.30766 0.35646 0.49686 0.0
C3428 C 0.32092 0.337 0.48356 0.0
C3429 C 0.32735 0.31383 0.49565 0.0
C3430 C 0.32284 0.41869 0.4608 0.0
C3431 C 0.30193 0.43439 0.46709 0.0
C3432 C 0.32426 0.39334 0.46979 0.0
C3433 C 0.30475 0.38289 0.48539 0.0
C3434 C 0.2834 0.39857 0.49102 0.0
C3435 C 0.28209 0.42403 0.48209 0.0
H3436 H 0.80599 0.21988 0.48653 0.0
H3437 H 0.83412 0.24812 0.55878 0.0
H3438 H 0.79472 0.17917 0.50657 0.0
H3439 H 0.8213 0.20824 0.57965 0.0
H3440 H 0.83129 0.1231 0.60066 0.0
H3441 H 0.83461 0.16689 0.58451 0.0
H3442 H 0.77187 0.15204 0.53218 0.0
H3443 H 0.77001 0.10779 0.54747 0.0
C3444 C 0.80862 0.21774 0.50702 0.0
C3445 C 0.82048 0.23733 0.52117 0.0
C3446 C 0.80222 0.19427 0.51868 0.0
C3447 C 0.80727 0.1898 0.54496 0.0
C3448 C 0.81763 0.2103 0.55934 0.0
C3449 C 0.82451 0.23352 0.54751 0.0
C3450 C 0.81794 0.12946 0.58605 0.0
C3451 C 0.8003 0.1121 0.57547 0.0
C3452 C 0.81971 0.15472 0.57672 0.0
C3453 C 0.80361 0.1635 0.55671 0.0
C3454 C 0.7851 0.14622 0.54708 0.0
C3455 C 0.78371 0.12084 0.55609 0.0
loop_
_geom_bond_atom_site_label_1
_geom_bond_atom_site_label_2
_geom_bond_distance
_geom_bond_site_symmetry_2
_ccdc_geom_bond_type
Tb0 N31 2.660 . S
Tb0 N38 2.600 . S
Tb0 O44 2.546 1_455 S
Tb0 O45 2.610 . S
Tb0 O47 2.320 1_455 S
Tb0 O48 2.552 1_455 S
Tb0 O49 2.413 1_455 S
Tb0 O51 2.362 . S
Tb0 O52 2.421 . S
Tb0 C64 2.833 1_455 S
C1 C4 1.432 . S
C1 C5 1.414 1_455 S
C1 N8 1.359 . S
C2 C4 1.417 . S
C2 C6 1.432 1_455 S
C2 C14 1.410 . S
C3 C5 1.444 . S
C3 C6 1.317 . S
C3 H26 0.929 . S
C4 C1 1.432 . S
C4 C2 1.417 . S
C4 N12 1.360 . S
C5 C1 1.414 1_655 S
C5 C3 1.444 . S
C5 C10 1.385 . S
C6 C2 1.432 1_655 S
C6 C3 1.317 . S
C6 H18 0.930 . S
C7 C9 1.392 1_655 S
C7 C10 1.370 . S
C7 H19 0.931 . S
N8 C1 1.359 . S
N8 C9 1.327 . S
N8 Tb11 2.600 . S
C9 C7 1.392 1_455 S
C9 N8 1.327 . S
C9 H16 0.930 . S
C10 C5 1.385 . S
C10 C7 1.370 . S
C10 H29 0.930 . S
Tb11 N8 2.600 . S
Tb11 N12 2.660 . S
Tb11 O45 2.362 . S
Tb11 O46 2.421 . S
Tb11 O50 2.546 . S
Tb11 O51 2.610 . S
Tb11 O53 2.320 . S
Tb11 O54 2.552 . S
Tb11 O55 2.413 . S
Tb11 C75 2.833 . S
N12 C4 1.360 . S
N12 Tb11 2.660 . S
N12 C13 1.305 . S
C13 N12 1.305 . S
C13 C15 1.407 . S
C13 H20 0.930 . S
C14 C2 1.410 . S
C14 C15 1.345 . S
C14 H22 0.930 . S
C15 C13 1.407 . S
C15 C14 1.345 . S
C15 H17 0.930 . S
H16 C9 0.930 . S
H17 C15 0.930 . S
H18 C6 0.930 . S
H19 C7 0.931 . S
H20 C13 0.930 . S
H21 C35 0.930 . S
H22 C14 0.930 . S
H23 C41 0.930 . S
H24 C32 0.930 . S
H25 C39 0.931 . S
H26 C3 0.929 . S
H27 C33 0.930 . S
H28 C66 0.930 . S
H29 C10 0.930 . S
H30 C65 0.929 . S
N31 Tb0 2.660 . S
N31 C32 1.305 . S
N31 C36 1.360 . S
C32 H24 0.930 . S
C32 N31 1.305 . S
C32 C35 1.407 . S
C33 H27 0.930 . S
C33 C34 1.410 . S
C33 C35 1.345 . S
C34 C33 1.410 . S
C34 C36 1.417 . S
C34 C66 1.432 . S
C35 H21 0.930 . S
C35 C32 1.407 . S
C35 C33 1.345 . S
C36 N31 1.360 . S
C36 C34 1.417 . S
C36 C40 1.432 . S
H37 C42 0.930 . S
N38 Tb0 2.600 . S
N38 C40 1.359 . S
N38 C41 1.327 . S
C39 H25 0.931 . S
C39 C41 1.392 . S
C39 C42 1.370 . S
C40 C36 1.432 . S
C40 N38 1.359 . S
C40 C43 1.414 . S
C41 H23 0.930 . S
C41 N38 1.327 . S
C41 C39 1.392 . S
C42 H37 0.930 . S
C42 C39 1.370 . S
C42 C43 1.385 . S
C43 C40 1.414 . S
C43 C42 1.385 . S
C43 C65 1.444 . S
O44 Tb0 2.546 1_655 S
O44 C64 1.251 . S
O45 Tb0 2.610 . S
O45 Tb11 2.362 . S
O45 C56 1.283 1_455 S
O46 Tb11 2.421 . S
O46 C63 1.262 1_455 S
O47 Tb0 2.320 1_655 S
O47 C63 1.260 . S
O48 Tb0 2.552 1_655 S
O48 C56 1.243 . S
O49 Tb0 2.413 1_655 S
O49 C64 1.256 . S
O50 Tb11 2.546 . S
O50 C75 1.251 . S
O51 Tb0 2.362 . S
O51 Tb11 2.610 . S
O51 C67 1.283 . S
O52 Tb0 2.421 . S
O52 C74 1.262 . S
O53 Tb11 2.320 . S
O53 C74 1.260 . S
O54 Tb11 2.552 . S
O54 C67 1.243 . S
O55 Tb11 2.413 . S
O55 C75 1.256 . S
C56 O45 1.283 1_655 S
C56 O48 1.243 . S
C57 C59 1.382 . S
C57 C61 1.393 . S
C57 C64 1.500 . S
C58 C59 1.400 . S
C58 C60 1.384 . S
C59 C57 1.382 . S
C59 C58 1.400 . S
C59 H76 0.930 . S
C60 C58 1.384 . S
C60 C62 1.392 . S
C60 H77 0.931 . S
C61 C57 1.393 . S
C61 C62 1.401 . S
C61 H78 0.930 . S
C62 C60 1.392 . S
C62 C61 1.401 . S
C62 H79 0.930 . S
C63 O46 1.262 1_655 S
C63 O47 1.260 . S
C64 Tb0 2.833 1_655 S
C64 O44 1.251 . S
C64 O49 1.256 . S
C64 C57 1.500 . S
C65 H30 0.929 . S
C65 C43 1.444 . S
C65 C66 1.317 . S
C66 H28 0.930 . S
C66 C34 1.432 . S
C66 C65 1.317 . S
C67 O51 1.283 . S
C67 O54 1.243 . S
C68 C69 1.382 . S
C68 C72 1.393 . S
C68 C75 1.500 . S
C69 C68 1.382 . S
C69 C70 1.400 . S
C69 H80 0.930 . S
C70 C69 1.400 . S
C70 C71 1.384 . S
C71 C70 1.384 . S
C71 C73 1.392 . S
C71 H81 0.931 . S
C72 C68 1.393 . S
C72 C73 1.401 . S
C72 H82 0.930 . S
C73 C71 1.392 . S
C73 C72 1.401 . S
C73 H83 0.930 . S
C74 O52 1.262 . S
C74 O53 1.260 . S
C75 Tb11 2.833 . S
C75 O50 1.251 . S
C75 O55 1.256 . S
C75 C68 1.500 . S
H76 C59 0.930 . S
H77 C60 0.931 . S
H78 C61 0.930 . S
H79 C62 0.930 . S
H80 C69 0.930 . S
H81 C71 0.931 . S
H82 C72 0.930 . S
H83 C73 0.930 . S
Tb84 N115 2.660 . S
Tb84 N122 2.600 . S
Tb84 O128 2.546 . S
Tb84 O129 2.610 . S
Tb84 O131 2.320 . S
Tb84 O132 2.552 . S
Tb84 O133 2.413 . S
Tb84 O135 2.362 . S
Tb84 O136 2.421 . S
Tb84 C148 2.833 . S
C85 C88 1.432 . S
C85 C89 1.414 . S
C85 N92 1.359 . S
C86 C88 1.417 . S
C86 C90 1.432 . S
C86 C98 1.410 . S
C87 C89 1.444 . S
C87 C90 1.317 . S
C87 H110 0.929 . S
C88 C85 1.432 . S
C88 C86 1.417 . S
C88 N96 1.360 . S
C89 C85 1.414 . S
C89 C87 1.444 . S
C89 C94 1.385 . S
C90 C86 1.432 . S
C90 C87 1.317 . S
C90 H102 0.930 . S
C91 C93 1.392 . S
C91 C94 1.370 . S
C91 H103 0.931 . S
N92 C85 1.359 . S
N92 C93 1.327 . S
N92 Tb95 2.600 . S
C93 C91 1.392 . S
C93 N92 1.327 . S
C93 H100 0.930 . S
C94 C89 1.385 . S
C94 C91 1.370 . S
C94 H113 0.930 . S
Tb95 N92 2.600 . S
Tb95 N96 2.660 . S
Tb95 O129 2.362 . S
Tb95 O130 2.421 . S
Tb95 O134 2.546 . S
Tb95 O135 2.610 . S
Tb95 O137 2.320 . S
Tb95 O138 2.552 . S
Tb95 O139 2.413 . S
Tb95 C159 2.833 . S
N96 C88 1.360 . S
N96 Tb95 2.660 . S
N96 C97 1.305 . S
C97 N96 1.305 . S
C97 C99 1.407 . S
C97 H104 0.930 . S
C98 C86 1.410 . S
C98 C99 1.345 . S
C98 H106 0.930 . S
C99 C97 1.407 . S
C99 C98 1.345 . S
C99 H101 0.930 . S
H100 C93 0.930 . S
H101 C99 0.930 . S
H102 C90 0.930 . S
H103 C91 0.931 . S
H104 C97 0.930 . S
H105 C119 0.930 . S
H106 C98 0.930 . S
H107 C125 0.930 . S
H108 C116 0.930 . S
H109 C123 0.931 . S
H110 C87 0.929 . S
H111 C117 0.930 . S
H112 C150 0.930 . S
H113 C94 0.930 . S
H114 C149 0.929 . S
N115 Tb84 2.660 . S
N115 C116 1.305 . S
N115 C120 1.360 . S
C116 H108 0.930 . S
C116 N115 1.305 . S
C116 C119 1.407 . S
C117 H111 0.930 . S
C117 C118 1.410 . S
C117 C119 1.345 . S
C118 C117 1.410 . S
C118 C120 1.417 . S
C118 C150 1.432 . S
C119 H105 0.930 . S
C119 C116 1.407 . S
C119 C117 1.345 . S
C120 N115 1.360 . S
C120 C118 1.417 . S
C120 C124 1.432 . S
H121 C126 0.930 . S
N122 Tb84 2.600 . S
N122 C124 1.359 . S
N122 C125 1.327 . S
C123 H109 0.931 . S
C123 C125 1.392 . S
C123 C126 1.370 . S
C124 C120 1.432 . S
C124 N122 1.359 . S
C124 C127 1.414 . S
C125 H107 0.930 . S
C125 N122 1.327 . S
C125 C123 1.392 . S
C126 H121 0.930 . S
C126 C123 1.370 . S
C126 C127 1.385 . S
C127 C124 1.414 . S
C127 C126 1.385 . S
C127 C149 1.444 . S
O128 Tb84 2.546 . S
O128 C148 1.251 . S
O129 Tb84 2.610 . S
O129 Tb95 2.362 . S
O129 C140 1.283 . S
O130 Tb95 2.421 . S
O130 C147 1.262 . S
O131 Tb84 2.320 . S
O131 C147 1.260 . S
O132 Tb84 2.552 . S
O132 C140 1.243 . S
O133 Tb84 2.413 . S
O133 C148 1.256 . S
O134 Tb95 2.546 . S
O134 C159 1.251 . S
O135 Tb84 2.362 . S
O135 Tb95 2.610 . S
O135 C151 1.283 . S
O136 Tb84 2.421 . S
O136 C158 1.262 . S
O137 Tb95 2.320 . S
O137 C158 1.260 . S
O138 Tb95 2.552 . S
O138 C151 1.243 . S
O139 Tb95 2.413 . S
O139 C159 1.256 . S
C140 O129 1.283 . S
C140 O132 1.243 . S
C141 C143 1.382 . S
C141 C145 1.393 . S
C141 C148 1.500 . S
C142 C143 1.400 . S
C142 C144 1.384 . S
C143 C141 1.382 . S
C143 C142 1.400 . S
C143 H160 0.930 . S
C144 C142 1.384 . S
C144 C146 1.392 . S
C144 H161 0.931 . S
C145 C141 1.393 . S
C145 C146 1.401 . S
C145 H162 0.930 . S
C146 C144 1.392 . S
C146 C145 1.401 . S
C146 H163 0.930 . S
C147 O130 1.262 . S
C147 O131 1.260 . S
C148 Tb84 2.833 . S
C148 O128 1.251 . S
C148 O133 1.256 . S
C148 C141 1.500 . S
C149 H114 0.929 . S
C149 C127 1.444 . S
C149 C150 1.317 . S
C150 H112 0.930 . S
C150 C118 1.432 . S
C150 C149 1.317 . S
C151 O135 1.283 . S
C151 O138 1.243 . S
C152 C153 1.382 . S
C152 C156 1.393 . S
C152 C159 1.500 . S
C153 C152 1.382 . S
C153 C154 1.400 . S
C153 H164 0.930 . S
C154 C153 1.400 . S
C154 C155 1.384 . S
C155 C154 1.384 . S
C155 C157 1.392 . S
C155 H165 0.931 . S
C156 C152 1.393 . S
C156 C157 1.401 . S
C156 H166 0.930 . S
C157 C155 1.392 . S
C157 C156 1.401 . S
C157 H167 0.930 . S
C158 O136 1.262 . S
C158 O137 1.260 . S
C159 Tb95 2.833 . S
C159 O134 1.251 . S
C159 O139 1.256 . S
C159 C152 1.500 . S
H160 C143 0.930 . S
H161 C144 0.931 . S
H162 C145 0.930 . S
H163 C146 0.930 . S
H164 C153 0.930 . S
H165 C155 0.931 . S
H166 C156 0.930 . S
H167 C157 0.930 . S
Tb168 N199 2.660 . S
Tb168 N206 2.600 . S
Tb168 O212 2.546 . S
Tb168 O213 2.610 . S
Tb168 O215 2.320 . S
Tb168 O216 2.552 . S
Tb168 O217 2.413 . S
Tb168 O219 2.362 . S
Tb168 O220 2.421 . S
Tb168 C232 2.833 . S
C169 C172 1.432 . S
C169 C173 1.414 . S
C169 N176 1.359 . S
C170 C172 1.417 . S
C170 C174 1.432 . S
C170 C182 1.410 . S
C171 C173 1.444 . S
C171 C174 1.317 . S
C171 H194 0.929 . S
C172 C169 1.432 . S
C172 C170 1.417 . S
C172 N180 1.360 . S
C173 C169 1.414 . S
C173 C171 1.444 . S
C173 C178 1.385 . S
C174 C170 1.432 . S
C174 C171 1.317 . S
C174 H186 0.930 . S
C175 C177 1.392 . S
C175 C178 1.370 . S
C175 H187 0.931 . S
N176 C169 1.359 . S
N176 C177 1.327 . S
N176 Tb179 2.600 . S
C177 C175 1.392 . S
C177 N176 1.327 . S
C177 H184 0.930 . S
C178 C173 1.385 . S
C178 C175 1.370 . S
C178 H197 0.930 . S
Tb179 N176 2.600 . S
Tb179 N180 2.660 . S
Tb179 O213 2.362 . S
Tb179 O214 2.421 . S
Tb179 O218 2.546 . S
Tb179 O219 2.610 . S
Tb179 O221 2.320 . S
Tb179 O222 2.552 . S
Tb179 O223 2.413 . S
Tb179 C243 2.833 . S
N180 C172 1.360 . S
N180 Tb179 2.660 . S
N180 C181 1.305 . S
C181 N180 1.305 . S
C181 C183 1.407 . S
C181 H188 0.930 . S
C182 C170 1.410 . S
C182 C183 1.345 . S
C182 H190 0.930 . S
C183 C181 1.407 . S
C183 C182 1.345 . S
C183 H185 0.930 . S
H184 C177 0.930 . S
H185 C183 0.930 . S
H186 C174 0.930 . S
H187 C175 0.931 . S
H188 C181 0.930 . S
H189 C203 0.930 . S
H190 C182 0.930 . S
H191 C209 0.930 . S
H192 C200 0.930 . S
H193 C207 0.931 . S
H194 C171 0.929 . S
H195 C201 0.930 . S
H196 C234 0.930 . S
H197 C178 0.930 . S
H198 C233 0.929 . S
N199 Tb168 2.660 . S
N199 C200 1.305 . S
N199 C204 1.360 . S
C200 H192 0.930 . S
C200 N199 1.305 . S
C200 C203 1.407 . S
C201 H195 0.930 . S
C201 C202 1.410 . S
C201 C203 1.345 . S
C202 C201 1.410 . S
C202 C204 1.417 . S
C202 C234 1.432 . S
C203 H189 0.930 . S
C203 C200 1.407 . S
C203 C201 1.345 . S
C204 N199 1.360 . S
C204 C202 1.417 . S
C204 C208 1.432 . S
H205 C210 0.930 . S
N206 Tb168 2.600 . S
N206 C208 1.359 . S
N206 C209 1.327 . S
C207 H193 0.931 . S
C207 C209 1.392 . S
C207 C210 1.370 . S
C208 C204 1.432 . S
C208 N206 1.359 . S
C208 C211 1.414 . S
C209 H191 0.930 . S
C209 N206 1.327 . S
C209 C207 1.392 . S
C210 H205 0.930 . S
C210 C207 1.370 . S
C210 C211 1.385 . S
C211 C208 1.414 . S
C211 C210 1.385 . S
C211 C233 1.444 . S
O212 Tb168 2.546 . S
O212 C232 1.251 . S
O213 Tb168 2.610 . S
O213 Tb179 2.362 . S
O213 C224 1.283 . S
O214 Tb179 2.421 . S
O214 C231 1.262 . S
O215 Tb168 2.320 . S
O215 C231 1.260 . S
O216 Tb168 2.552 . S
O216 C224 1.243 . S
O217 Tb168 2.413 . S
O217 C232 1.256 . S
O218 Tb179 2.546 . S
O218 C243 1.251 . S
O219 Tb168 2.362 . S
O219 Tb179 2.610 . S
O219 C235 1.283 . S
O220 Tb168 2.421 . S
O220 C242 1.262 . S
O221 Tb179 2.320 . S
O221 C242 1.260 . S
O222 Tb179 2.552 . S
O222 C235 1.243 . S
O223 Tb179 2.413 . S
O223 C243 1.256 . S
C224 O213 1.283 . S
C224 O216 1.243 . S
C225 C227 1.382 . S
C225 C229 1.393 . S
C225 C232 1.500 . S
C226 C227 1.400 . S
C226 C228 1.384 . S
C227 C225 1.382 . S
C227 C226 1.400 . S
C227 H244 0.930 . S
C228 C226 1.384 . S
C228 C230 1.392 . S
C228 H245 0.931 . S
C229 C225 1.393 . S
C229 C230 1.401 . S
C229 H246 0.930 . S
C230 C228 1.392 . S
C230 C229 1.401 . S
C230 H247 0.930 . S
C231 O214 1.262 . S
C231 O215 1.260 . S
C232 Tb168 2.833 . S
C232 O212 1.251 . S
C232 O217 1.256 . S
C232 C225 1.500 . S
C233 H198 0.929 . S
C233 C211 1.444 . S
C233 C234 1.317 . S
C234 H196 0.930 . S
C234 C202 1.432 . S
C234 C233 1.317 . S
C235 O219 1.283 . S
C235 O222 1.243 . S
C236 C237 1.382 . S
C236 C240 1.393 . S
C236 C243 1.500 . S
C237 C236 1.382 . S
C237 C238 1.400 . S
C237 H248 0.930 . S
C238 C237 1.400 . S
C238 C239 1.384 . S
C239 C238 1.384 . S
C239 C241 1.392 . S
C239 H249 0.931 . S
C240 C236 1.393 . S
C240 C241 1.401 . S
C240 H250 0.930 . S
C241 C239 1.392 . S
C241 C240 1.401 . S
C241 H251 0.930 . S
C242 O220 1.262 . S
C242 O221 1.260 . S
C243 Tb179 2.833 . S
C243 O218 1.251 . S
C243 O223 1.256 . S
C243 C236 1.500 . S
H244 C227 0.930 . S
H245 C228 0.931 . S
H246 C229 0.930 . S
H247 C230 0.930 . S
H248 C237 0.930 . S
H249 C239 0.931 . S
H250 C240 0.930 . S
H251 C241 0.930 . S
Tb252 N283 2.660 . S
Tb252 N290 2.600 . S
Tb252 O296 2.546 1_655 S
Tb252 O297 2.610 . S
Tb252 O299 2.320 1_655 S
Tb252 O300 2.552 1_655 S
Tb252 O301 2.413 1_655 S
Tb252 O303 2.362 . S
Tb252 O304 2.421 . S
Tb252 C316 2.833 1_655 S
C253 C256 1.432 . S
C253 C257 1.414 1_655 S
C253 N260 1.359 . S
C254 C256 1.417 . S
C254 C258 1.432 1_655 S
C254 C266 1.410 . S
C255 C257 1.444 . S
C255 C258 1.317 . S
C255 H278 0.929 . S
C256 C253 1.432 . S
C256 C254 1.417 . S
C256 N264 1.360 . S
C257 C253 1.414 1_455 S
C257 C255 1.444 . S
C257 C262 1.385 . S
C258 C254 1.432 1_455 S
C258 C255 1.317 . S
C258 H270 0.930 . S
C259 C261 1.392 1_455 S
C259 C262 1.370 . S
C259 H271 0.931 . S
N260 C253 1.359 . S
N260 C261 1.327 . S
N260 Tb263 2.600 . S
C261 C259 1.392 1_655 S
C261 N260 1.327 . S
C261 H268 0.930 . S
C262 C257 1.385 . S
C262 C259 1.370 . S
C262 H281 0.930 . S
Tb263 N260 2.600 . S
Tb263 N264 2.660 . S
Tb263 O297 2.362 . S
Tb263 O298 2.421 . S
Tb263 O302 2.546 . S
Tb263 O303 2.610 . S
Tb263 O305 2.320 . S
Tb263 O306 2.552 . S
Tb263 O307 2.413 . S
Tb263 C327 2.833 . S
N264 C256 1.360 . S
N264 Tb263 2.660 . S
N264 C265 1.305 . S
C265 N264 1.305 . S
C265 C267 1.407 . S
C265 H272 0.930 . S
C266 C254 1.410 . S
C266 C267 1.345 . S
C266 H274 0.930 . S
C267 C265 1.407 . S
C267 C266 1.345 . S
C267 H269 0.930 . S
H268 C261 0.930 . S
H269 C267 0.930 . S
H270 C258 0.930 . S
H271 C259 0.931 . S
H272 C265 0.930 . S
H273 C287 0.930 . S
H274 C266 0.930 . S
H275 C293 0.930 . S
H276 C284 0.930 . S
H277 C291 0.931 . S
H278 C255 0.929 . S
H279 C285 0.930 . S
H280 C318 0.930 . S
H281 C262 0.930 . S
H282 C317 0.929 . S
N283 Tb252 2.660 . S
N283 C284 1.305 . S
N283 C288 1.360 . S
C284 H276 0.930 . S
C284 N283 1.305 . S
C284 C287 1.407 . S
C285 H279 0.930 . S
C285 C286 1.410 . S
C285 C287 1.345 . S
C286 C285 1.410 . S
C286 C288 1.417 . S
C286 C318 1.432 . S
C287 H273 0.930 . S
C287 C284 1.407 . S
C287 C285 1.345 . S
C288 N283 1.360 . S
C288 C286 1.417 . S
C288 C292 1.432 . S
H289 C294 0.930 . S
N290 Tb252 2.600 . S
N290 C292 1.359 . S
N290 C293 1.327 . S
C291 H277 0.931 . S
C291 C293 1.392 . S
C291 C294 1.370 . S
C292 C288 1.432 . S
C292 N290 1.359 . S
C292 C295 1.414 . S
C293 H275 0.930 . S
C293 N290 1.327 . S
C293 C291 1.392 . S
C294 H289 0.930 . S
C294 C291 1.370 . S
C294 C295 1.385 . S
C295 C292 1.414 . S
C295 C294 1.385 . S
C295 C317 1.444 . S
O296 Tb252 2.546 1_455 S
O296 C316 1.251 . S
O297 Tb252 2.610 . S
O297 Tb263 2.362 . S
O297 C308 1.283 1_655 S
O298 Tb263 2.421 . S
O298 C315 1.262 1_655 S
O299 Tb252 2.320 1_455 S
O299 C315 1.260 . S
O300 Tb252 2.552 1_455 S
O300 C308 1.243 . S
O301 Tb252 2.413 1_455 S
O301 C316 1.256 . S
O302 Tb263 2.546 . S
O302 C327 1.251 . S
O303 Tb252 2.362 . S
O303 Tb263 2.610 . S
O303 C319 1.283 . S
O304 Tb252 2.421 . S
O304 C326 1.262 . S
O305 Tb263 2.320 . S
O305 C326 1.260 . S
O306 Tb263 2.552 . S
O306 C319 1.243 . S
O307 Tb263 2.413 . S
O307 C327 1.256 . S
C308 O297 1.283 1_455 S
C308 O300 1.243 . S
C309 C311 1.382 . S
C309 C313 1.393 . S
C309 C316 1.500 . S
C310 C311 1.400 . S
C310 C312 1.384 . S
C311 C309 1.382 . S
C311 C310 1.400 . S
C311 H328 0.930 . S
C312 C310 1.384 . S
C312 C314 1.392 . S
C312 H329 0.931 . S
C313 C309 1.393 . S
C313 C314 1.401 . S
C313 H330 0.930 . S
C314 C312 1.392 . S
C314 C313 1.401 . S
C314 H331 0.930 . S
C315 O298 1.262 1_455 S
C315 O299 1.260 . S
C316 Tb252 2.833 1_455 S
C316 O296 1.251 . S
C316 O301 1.256 . S
C316 C309 1.500 . S
C317 H282 0.929 . S
C317 C295 1.444 . S
C317 C318 1.317 . S
C318 H280 0.930 . S
C318 C286 1.432 . S
C318 C317 1.317 . S
C319 O303 1.283 . S
C319 O306 1.243 . S
C320 C321 1.382 . S
C320 C324 1.393 . S
C320 C327 1.500 . S
C321 C320 1.382 . S
C321 C322 1.400 . S
C321 H332 0.930 . S
C322 C321 1.400 . S
C322 C323 1.384 . S
C323 C322 1.384 . S
C323 C325 1.392 . S
C323 H333 0.931 . S
C324 C320 1.393 . S
C324 C325 1.401 . S
C324 H334 0.930 . S
C325 C323 1.392 . S
C325 C324 1.401 . S
C325 H335 0.930 . S
C326 O304 1.262 . S
C326 O305 1.260 . S
C327 Tb263 2.833 . S
C327 O302 1.251 . S
C327 O307 1.256 . S
C327 C320 1.500 . S
H328 C311 0.930 . S
H329 C312 0.931 . S
H330 C313 0.930 . S
H331 C314 0.930 . S
H332 C321 0.930 . S
H333 C323 0.931 . S
H334 C324 0.930 . S
H335 C325 0.930 . S
Tb336 N367 2.660 . S
Tb336 N374 2.600 . S
Tb336 O380 2.546 1_545 S
Tb336 O381 2.610 . S
Tb336 O383 2.320 1_545 S
Tb336 O384 2.552 1_545 S
Tb336 O385 2.413 1_545 S
Tb336 O387 2.362 . S
Tb336 O388 2.421 . S
Tb336 C400 2.833 1_545 S
C337 C340 1.432 . S
C337 C341 1.414 1_545 S
C337 N344 1.359 . S
C338 C340 1.417 . S
C338 C342 1.432 1_545 S
C338 C350 1.410 . S
C339 C341 1.444 . S
C339 C342 1.317 . S
C339 H362 0.929 . S
C340 C337 1.432 . S
C340 C338 1.417 . S
C340 N348 1.360 . S
C341 C337 1.414 1_565 S
C341 C339 1.444 . S
C341 C346 1.385 . S
C342 C338 1.432 1_565 S
C342 C339 1.317 . S
C342 H354 0.930 . S
C343 C345 1.392 1_565 S
C343 C346 1.370 . S
C343 H355 0.931 . S
N344 C337 1.359 . S
N344 C345 1.327 . S
N344 Tb347 2.600 . S
C345 C343 1.392 1_545 S
C345 N344 1.327 . S
C345 H352 0.930 . S
C346 C341 1.385 . S
C346 C343 1.370 . S
C346 H365 0.930 . S
Tb347 N344 2.600 . S
Tb347 N348 2.660 . S
Tb347 O381 2.362 . S
Tb347 O382 2.421 . S
Tb347 O386 2.546 . S
Tb347 O387 2.610 . S
Tb347 O389 2.320 . S
Tb347 O390 2.552 . S
Tb347 O391 2.413 . S
Tb347 C411 2.833 . S
N348 C340 1.360 . S
N348 Tb347 2.660 . S
N348 C349 1.305 . S
C349 N348 1.305 . S
C349 C351 1.407 . S
C349 H356 0.930 . S
C350 C338 1.410 . S
C350 C351 1.345 . S
C350 H358 0.930 . S
C351 C349 1.407 . S
C351 C350 1.345 . S
C351 H353 0.930 . S
H352 C345 0.930 . S
H353 C351 0.930 . S
H354 C342 0.930 . S
H355 C343 0.931 . S
H356 C349 0.930 . S
H357 C371 0.930 . S
H358 C350 0.930 . S
H359 C377 0.930 . S
H360 C368 0.930 . S
H361 C375 0.931 . S
H362 C339 0.929 . S
H363 C369 0.930 . S
H364 C402 0.930 . S
H365 C346 0.930 . S
H366 C401 0.929 . S
N367 Tb336 2.660 . S
N367 C368 1.305 . S
N367 C372 1.360 . S
C368 H360 0.930 . S
C368 N367 1.305 . S
C368 C371 1.407 . S
C369 H363 0.930 . S
C369 C370 1.410 . S
C369 C371 1.345 . S
C370 C369 1.410 . S
C370 C372 1.417 . S
C370 C402 1.432 . S
C371 H357 0.930 . S
C371 C368 1.407 . S
C371 C369 1.345 . S
C372 N367 1.360 . S
C372 C370 1.417 . S
C372 C376 1.432 . S
H373 C378 0.930 . S
N374 Tb336 2.600 . S
N374 C376 1.359 . S
N374 C377 1.327 . S
C375 H361 0.931 . S
C375 C377 1.392 . S
C375 C378 1.370 . S
C376 C372 1.432 . S
C376 N374 1.359 . S
C376 C379 1.414 . S
C377 H359 0.930 . S
C377 N374 1.327 . S
C377 C375 1.392 . S
C378 H373 0.930 . S
C378 C375 1.370 . S
C378 C379 1.385 . S
C379 C376 1.414 . S
C379 C378 1.385 . S
C379 C401 1.444 . S
O380 Tb336 2.546 1_565 S
O380 C400 1.251 . S
O381 Tb336 2.610 . S
O381 Tb347 2.362 . S
O381 C392 1.283 1_545 S
O382 Tb347 2.421 . S
O382 C399 1.262 1_545 S
O383 Tb336 2.320 1_565 S
O383 C399 1.260 . S
O384 Tb336 2.552 1_565 S
O384 C392 1.243 . S
O385 Tb336 2.413 1_565 S
O385 C400 1.256 . S
O386 Tb347 2.546 . S
O386 C411 1.251 . S
O387 Tb336 2.362 . S
O387 Tb347 2.610 . S
O387 C403 1.283 . S
O388 Tb336 2.421 . S
O388 C410 1.262 . S
O389 Tb347 2.320 . S
O389 C410 1.260 . S
O390 Tb347 2.552 . S
O390 C403 1.243 . S
O391 Tb347 2.413 . S
O391 C411 1.256 . S
C392 O381 1.283 1_565 S
C392 O384 1.243 . S
C393 C395 1.382 . S
C393 C397 1.393 . S
C393 C400 1.500 . S
C394 C395 1.400 . S
C394 C396 1.384 . S
C395 C393 1.382 . S
C395 C394 1.400 . S
C395 H412 0.930 . S
C396 C394 1.384 . S
C396 C398 1.392 . S
C396 H413 0.931 . S
C397 C393 1.393 . S
C397 C398 1.401 . S
C397 H414 0.930 . S
C398 C396 1.392 . S
C398 C397 1.401 . S
C398 H415 0.930 . S
C399 O382 1.262 1_565 S
C399 O383 1.260 . S
C400 Tb336 2.833 1_565 S
C400 O380 1.251 . S
C400 O385 1.256 . S
C400 C393 1.500 . S
C401 H366 0.929 . S
C401 C379 1.444 . S
C401 C402 1.317 . S
C402 H364 0.930 . S
C402 C370 1.432 . S
C402 C401 1.317 . S
C403 O387 1.283 . S
C403 O390 1.243 . S
C404 C405 1.382 . S
C404 C408 1.393 . S
C404 C411 1.500 . S
C405 C404 1.382 . S
C405 C406 1.400 . S
C405 H416 0.930 . S
C406 C405 1.400 . S
C406 C407 1.384 . S
C407 C406 1.384 . S
C407 C409 1.392 . S
C407 H417 0.931 . S
C408 C404 1.393 . S
C408 C409 1.401 . S
C408 H418 0.930 . S
C409 C407 1.392 . S
C409 C408 1.401 . S
C409 H419 0.930 . S
C410 O388 1.262 . S
C410 O389 1.260 . S
C411 Tb347 2.833 . S
C411 O386 1.251 . S
C411 O391 1.256 . S
C411 C404 1.500 . S
H412 C395 0.930 . S
H413 C396 0.931 . S
H414 C397 0.930 . S
H415 C398 0.930 . S
H416 C405 0.930 . S
H417 C407 0.931 . S
H418 C408 0.930 . S
H419 C409 0.930 . S
Tb420 N451 2.660 . S
Tb420 N458 2.600 . S
Tb420 O464 2.546 1_565 S
Tb420 O465 2.610 . S
Tb420 O467 2.320 1_565 S
Tb420 O468 2.552 1_565 S
Tb420 O469 2.413 1_565 S
Tb420 O471 2.362 . S
Tb420 O472 2.421 . S
Tb420 C484 2.833 1_565 S
C421 C424 1.432 . S
C421 C425 1.414 1_565 S
C421 N428 1.359 . S
C422 C424 1.417 . S
C422 C426 1.432 1_565 S
C422 C434 1.410 . S
C423 C425 1.444 . S
C423 C426 1.317 . S
C423 H446 0.929 . S
C424 C421 1.432 . S
C424 C422 1.417 . S
C424 N432 1.360 . S
C425 C421 1.414 1_545 S
C425 C423 1.444 . S
C425 C430 1.385 . S
C426 C422 1.432 1_545 S
C426 C423 1.317 . S
C426 H438 0.930 . S
C427 C429 1.392 1_545 S
C427 C430 1.370 . S
C427 H439 0.931 . S
N428 C421 1.359 . S
N428 C429 1.327 . S
N428 Tb431 2.600 . S
C429 C427 1.392 1_565 S
C429 N428 1.327 . S
C429 H436 0.930 . S
C430 C425 1.385 . S
C430 C427 1.370 . S
C430 H449 0.930 . S
Tb431 N428 2.600 . S
Tb431 N432 2.660 . S
Tb431 O465 2.362 . S
Tb431 O466 2.421 . S
Tb431 O470 2.546 . S
Tb431 O471 2.610 . S
Tb431 O473 2.320 . S
Tb431 O474 2.552 . S
Tb431 O475 2.413 . S
Tb431 C495 2.833 . S
N432 C424 1.360 . S
N432 Tb431 2.660 . S
N432 C433 1.305 . S
C433 N432 1.305 . S
C433 C435 1.407 . S
C433 H440 0.930 . S
C434 C422 1.410 . S
C434 C435 1.345 . S
C434 H442 0.930 . S
C435 C433 1.407 . S
C435 C434 1.345 . S
C435 H437 0.930 . S
H436 C429 0.930 . S
H437 C435 0.930 . S
H438 C426 0.930 . S
H439 C427 0.931 . S
H440 C433 0.930 . S
H441 C455 0.930 . S
H442 C434 0.930 . S
H443 C461 0.930 . S
H444 C452 0.930 . S
H445 C459 0.931 . S
H446 C423 0.929 . S
H447 C453 0.930 . S
H448 C486 0.930 . S
H449 C430 0.930 . S
H450 C485 0.929 . S
N451 Tb420 2.660 . S
N451 C452 1.305 . S
N451 C456 1.360 . S
C452 H444 0.930 . S
C452 N451 1.305 . S
C452 C455 1.407 . S
C453 H447 0.930 . S
C453 C454 1.410 . S
C453 C455 1.345 . S
C454 C453 1.410 . S
C454 C456 1.417 . S
C454 C486 1.432 . S
C455 H441 0.930 . S
C455 C452 1.407 . S
C455 C453 1.345 . S
C456 N451 1.360 . S
C456 C454 1.417 . S
C456 C460 1.432 . S
H457 C462 0.930 . S
N458 Tb420 2.600 . S
N458 C460 1.359 . S
N458 C461 1.327 . S
C459 H445 0.931 . S
C459 C461 1.392 . S
C459 C462 1.370 . S
C460 C456 1.432 . S
C460 N458 1.359 . S
C460 C463 1.414 . S
C461 H443 0.930 . S
C461 N458 1.327 . S
C461 C459 1.392 . S
C462 H457 0.930 . S
C462 C459 1.370 . S
C462 C463 1.385 . S
C463 C460 1.414 . S
C463 C462 1.385 . S
C463 C485 1.444 . S
O464 Tb420 2.546 1_545 S
O464 C484 1.251 . S
O465 Tb420 2.610 . S
O465 Tb431 2.362 . S
O465 C476 1.283 1_565 S
O466 Tb431 2.421 . S
O466 C483 1.262 1_565 S
O467 Tb420 2.320 1_545 S
O467 C483 1.260 . S
O468 Tb420 2.552 1_545 S
O468 C476 1.243 . S
O469 Tb420 2.413 1_545 S
O469 C484 1.256 . S
O470 Tb431 2.546 . S
O470 C495 1.251 . S
O471 Tb420 2.362 . S
O471 Tb431 2.610 . S
O471 C487 1.283 . S
O472 Tb420 2.421 . S
O472 C494 1.262 . S
O473 Tb431 2.320 . S
O473 C494 1.260 . S
O474 Tb431 2.552 . S
O474 C487 1.243 . S
O475 Tb431 2.413 . S
O475 C495 1.256 . S
C476 O465 1.283 1_545 S
C476 O468 1.243 . S
C477 C479 1.382 . S
C477 C481 1.393 . S
C477 C484 1.500 . S
C478 C479 1.400 . S
C478 C480 1.384 . S
C479 C477 1.382 . S
C479 C478 1.400 . S
C479 H496 0.930 . S
C480 C478 1.384 . S
C480 C482 1.392 . S
C480 H497 0.931 . S
C481 C477 1.393 . S
C481 C482 1.401 . S
C481 H498 0.930 . S
C482 C480 1.392 . S
C482 C481 1.401 . S
C482 H499 0.930 . S
C483 O466 1.262 1_545 S
C483 O467 1.260 . S
C484 Tb420 2.833 1_545 S
C484 O464 1.251 . S
C484 O469 1.256 . S
C484 C477 1.500 . S
C485 H450 0.929 . S
C485 C463 1.444 . S
C485 C486 1.317 . S
C486 H448 0.930 . S
C486 C454 1.432 . S
C486 C485 1.317 . S
C487 O471 1.283 . S
C487 O474 1.243 . S
C488 C489 1.382 . S
C488 C492 1.393 . S
C488 C495 1.500 . S
C489 C488 1.382 . S
C489 C490 1.400 . S
C489 H500 0.930 . S
C490 C489 1.400 . S
C490 C491 1.384 . S
C491 C490 1.384 . S
C491 C493 1.392 . S
C491 H501 0.931 . S
C492 C488 1.393 . S
C492 C493 1.401 . S
C492 H502 0.930 . S
C493 C491 1.392 . S
C493 C492 1.401 . S
C493 H503 0.930 . S
C494 O472 1.262 . S
C494 O473 1.260 . S
C495 Tb431 2.833 . S
C495 O470 1.251 . S
C495 O475 1.256 . S
C495 C488 1.500 . S
H496 C479 0.930 . S
H497 C480 0.931 . S
H498 C481 0.930 . S
H499 C482 0.930 . S
H500 C489 0.930 . S
H501 C491 0.931 . S
H502 C492 0.930 . S
H503 C493 0.930 . S
Tb504 N535 2.660 . S
Tb504 N542 2.600 . S
Tb504 O548 2.546 . S
Tb504 O549 2.610 . S
Tb504 O551 2.320 . S
Tb504 O552 2.552 . S
Tb504 O553 2.413 . S
Tb504 O555 2.362 . S
Tb504 O556 2.421 . S
Tb504 C568 2.833 . S
C505 C508 1.432 . S
C505 C509 1.414 . S
C505 N512 1.359 . S
C506 C508 1.417 . S
C506 C510 1.432 . S
C506 C518 1.410 . S
C507 C509 1.444 . S
C507 C510 1.317 . S
C507 H530 0.929 . S
C508 C505 1.432 . S
C508 C506 1.417 . S
C508 N516 1.360 . S
C509 C505 1.414 . S
C509 C507 1.444 . S
C509 C514 1.385 . S
C510 C506 1.432 . S
C510 C507 1.317 . S
C510 H522 0.930 . S
C511 C513 1.392 . S
C511 C514 1.370 . S
C511 H523 0.931 . S
N512 C505 1.359 . S
N512 C513 1.327 . S
N512 Tb515 2.600 . S
C513 C511 1.392 . S
C513 N512 1.327 . S
C513 H520 0.930 . S
C514 C509 1.385 . S
C514 C511 1.370 . S
C514 H533 0.930 . S
Tb515 N512 2.600 . S
Tb515 N516 2.660 . S
Tb515 O549 2.362 . S
Tb515 O550 2.421 . S
Tb515 O554 2.546 . S
Tb515 O555 2.610 . S
Tb515 O557 2.320 . S
Tb515 O558 2.552 . S
Tb515 O559 2.413 . S
Tb515 C579 2.833 . S
N516 C508 1.360 . S
N516 Tb515 2.660 . S
N516 C517 1.305 . S
C517 N516 1.305 . S
C517 C519 1.407 . S
C517 H524 0.930 . S
C518 C506 1.410 . S
C518 C519 1.345 . S
C518 H526 0.930 . S
C519 C517 1.407 . S
C519 C518 1.345 . S
C519 H521 0.930 . S
H520 C513 0.930 . S
H521 C519 0.930 . S
H522 C510 0.930 . S
H523 C511 0.931 . S
H524 C517 0.930 . S
H525 C539 0.930 . S
H526 C518 0.930 . S
H527 C545 0.930 . S
H528 C536 0.930 . S
H529 C543 0.931 . S
H530 C507 0.929 . S
H531 C537 0.930 . S
H532 C570 0.930 . S
H533 C514 0.930 . S
H534 C569 0.929 . S
N535 Tb504 2.660 . S
N535 C536 1.305 . S
N535 C540 1.360 . S
C536 H528 0.930 . S
C536 N535 1.305 . S
C536 C539 1.407 . S
C537 H531 0.930 . S
C537 C538 1.410 . S
C537 C539 1.345 . S
C538 C537 1.410 . S
C538 C540 1.417 . S
C538 C570 1.432 . S
C539 H525 0.930 . S
C539 C536 1.407 . S
C539 C537 1.345 . S
C540 N535 1.360 . S
C540 C538 1.417 . S
C540 C544 1.432 . S
H541 C546 0.930 . S
N542 Tb504 2.600 . S
N542 C544 1.359 . S
N542 C545 1.327 . S
C543 H529 0.931 . S
C543 C545 1.392 . S
C543 C546 1.370 . S
C544 C540 1.432 . S
C544 N542 1.359 . S
C544 C547 1.414 . S
C545 H527 0.930 . S
C545 N542 1.327 . S
C545 C543 1.392 . S
C546 H541 0.930 . S
C546 C543 1.370 . S
C546 C547 1.385 . S
C547 C544 1.414 . S
C547 C546 1.385 . S
C547 C569 1.444 . S
O548 Tb504 2.546 . S
O548 C568 1.251 . S
O549 Tb504 2.610 . S
O549 Tb515 2.362 . S
O549 C560 1.283 . S
O550 Tb515 2.421 . S
O550 C567 1.262 . S
O551 Tb504 2.320 . S
O551 C567 1.260 . S
O552 Tb504 2.552 . S
O552 C560 1.243 . S
O553 Tb504 2.413 . S
O553 C568 1.256 . S
O554 Tb515 2.546 . S
O554 C579 1.251 . S
O555 Tb504 2.362 . S
O555 Tb515 2.610 . S
O555 C571 1.283 . S
O556 Tb504 2.421 . S
O556 C578 1.262 . S
O557 Tb515 2.320 . S
O557 C578 1.260 . S
O558 Tb515 2.552 . S
O558 C571 1.243 . S
O559 Tb515 2.413 . S
O559 C579 1.256 . S
C560 O549 1.283 . S
C560 O552 1.243 . S
C561 C563 1.382 . S
C561 C565 1.393 . S
C561 C568 1.500 . S
C562 C563 1.400 . S
C562 C564 1.384 . S
C563 C561 1.382 . S
C563 C562 1.400 . S
C563 H580 0.930 . S
C564 C562 1.384 . S
C564 C566 1.392 . S
C564 H581 0.931 . S
C565 C561 1.393 . S
C565 C566 1.401 . S
C565 H582 0.930 . S
C566 C564 1.392 . S
C566 C565 1.401 . S
C566 H583 0.930 . S
C567 O550 1.262 . S
C567 O551 1.260 . S
C568 Tb504 2.833 . S
C568 O548 1.251 . S
C568 O553 1.256 . S
C568 C561 1.500 . S
C569 H534 0.929 . S
C569 C547 1.444 . S
C569 C570 1.317 . S
C570 H532 0.930 . S
C570 C538 1.432 . S
C570 C569 1.317 . S
C571 O555 1.283 . S
C571 O558 1.243 . S
C572 C573 1.382 . S
C572 C576 1.393 . S
C572 C579 1.500 . S
C573 C572 1.382 . S
C573 C574 1.400 . S
C573 H584 0.930 . S
C574 C573 1.400 . S
C574 C575 1.384 . S
C575 C574 1.384 . S
C575 C577 1.392 . S
C575 H585 0.931 . S
C576 C572 1.393 . S
C576 C577 1.401 . S
C576 H586 0.930 . S
C577 C575 1.392 . S
C577 C576 1.401 . S
C577 H587 0.930 . S
C578 O556 1.262 . S
C578 O557 1.260 . S
C579 Tb515 2.833 . S
C579 O554 1.251 . S
C579 O559 1.256 . S
C579 C572 1.500 . S
H580 C563 0.930 . S
H581 C564 0.931 . S
H582 C565 0.930 . S
H583 C566 0.930 . S
H584 C573 0.930 . S
H585 C575 0.931 . S
H586 C576 0.930 . S
H587 C577 0.930 . S
Tb588 N619 2.660 . S
Tb588 N626 2.600 . S
Tb588 O632 2.546 . S
Tb588 O633 2.610 . S
Tb588 O635 2.320 . S
Tb588 O636 2.552 . S
Tb588 O637 2.413 . S
Tb588 O639 2.362 . S
Tb588 O640 2.421 . S
Tb588 C652 2.833 . S
C589 C592 1.432 . S
C589 C593 1.414 . S
C589 N596 1.359 . S
C590 C592 1.417 . S
C590 C594 1.432 . S
C590 C602 1.410 . S
C591 C593 1.444 . S
C591 C594 1.317 . S
C591 H614 0.929 . S
C592 C589 1.432 . S
C592 C590 1.417 . S
C592 N600 1.360 . S
C593 C589 1.414 . S
C593 C591 1.444 . S
C593 C598 1.385 . S
C594 C590 1.432 . S
C594 C591 1.317 . S
C594 H606 0.930 . S
C595 C597 1.392 . S
C595 C598 1.370 . S
C595 H607 0.931 . S
N596 C589 1.359 . S
N596 C597 1.327 . S
N596 Tb599 2.600 . S
C597 C595 1.392 . S
C597 N596 1.327 . S
C597 H604 0.930 . S
C598 C593 1.385 . S
C598 C595 1.370 . S
C598 H617 0.930 . S
Tb599 N596 2.600 . S
Tb599 N600 2.660 . S
Tb599 O633 2.362 . S
Tb599 O634 2.421 . S
Tb599 O638 2.546 . S
Tb599 O639 2.610 . S
Tb599 O641 2.320 . S
Tb599 O642 2.552 . S
Tb599 O643 2.413 . S
Tb599 C663 2.833 . S
N600 C592 1.360 . S
N600 Tb599 2.660 . S
N600 C601 1.305 . S
C601 N600 1.305 . S
C601 C603 1.407 . S
C601 H608 0.930 . S
C602 C590 1.410 . S
C602 C603 1.345 . S
C602 H610 0.930 . S
C603 C601 1.407 . S
C603 C602 1.345 . S
C603 H605 0.930 . S
H604 C597 0.930 . S
H605 C603 0.930 . S
H606 C594 0.930 . S
H607 C595 0.931 . S
H608 C601 0.930 . S
H609 C623 0.930 . S
H610 C602 0.930 . S
H611 C629 0.930 . S
H612 C620 0.930 . S
H613 C627 0.931 . S
H614 C591 0.929 . S
H615 C621 0.930 . S
H616 C654 0.930 . S
H617 C598 0.930 . S
H618 C653 0.929 . S
N619 Tb588 2.660 . S
N619 C620 1.305 . S
N619 C624 1.360 . S
C620 H612 0.930 . S
C620 N619 1.305 . S
C620 C623 1.407 . S
C621 H615 0.930 . S
C621 C622 1.410 . S
C621 C623 1.345 . S
C622 C621 1.410 . S
C622 C624 1.417 . S
C622 C654 1.432 . S
C623 H609 0.930 . S
C623 C620 1.407 . S
C623 C621 1.345 . S
C624 N619 1.360 . S
C624 C622 1.417 . S
C624 C628 1.432 . S
H625 C630 0.930 . S
N626 Tb588 2.600 . S
N626 C628 1.359 . S
N626 C629 1.327 . S
C627 H613 0.931 . S
C627 C629 1.392 . S
C627 C630 1.370 . S
C628 C624 1.432 . S
C628 N626 1.359 . S
C628 C631 1.414 . S
C629 H611 0.930 . S
C629 N626 1.327 . S
C629 C627 1.392 . S
C630 H625 0.930 . S
C630 C627 1.370 . S
C630 C631 1.385 . S
C631 C628 1.414 . S
C631 C630 1.385 . S
C631 C653 1.444 . S
O632 Tb588 2.546 . S
O632 C652 1.251 . S
O633 Tb588 2.610 . S
O633 Tb599 2.362 . S
O633 C644 1.283 . S
O634 Tb599 2.421 . S
O634 C651 1.262 . S
O635 Tb588 2.320 . S
O635 C651 1.260 . S
O636 Tb588 2.552 . S
O636 C644 1.243 . S
O637 Tb588 2.413 . S
O637 C652 1.256 . S
O638 Tb599 2.546 . S
O638 C663 1.251 . S
O639 Tb588 2.362 . S
O639 Tb599 2.610 . S
O639 C655 1.283 . S
O640 Tb588 2.421 . S
O640 C662 1.262 . S
O641 Tb599 2.320 . S
O641 C662 1.260 . S
O642 Tb599 2.552 . S
O642 C655 1.243 . S
O643 Tb599 2.413 . S
O643 C663 1.256 . S
C644 O633 1.283 . S
C644 O636 1.243 . S
C645 C647 1.382 . S
C645 C649 1.393 . S
C645 C652 1.500 . S
C646 C647 1.400 . S
C646 C648 1.384 . S
C647 C645 1.382 . S
C647 C646 1.400 . S
C647 H664 0.930 . S
C648 C646 1.384 . S
C648 C650 1.392 . S
C648 H665 0.931 . S
C649 C645 1.393 . S
C649 C650 1.401 . S
C649 H666 0.930 . S
C650 C648 1.392 . S
C650 C649 1.401 . S
C650 H667 0.930 . S
C651 O634 1.262 . S
C651 O635 1.260 . S
C652 Tb588 2.833 . S
C652 O632 1.251 . S
C652 O637 1.256 . S
C652 C645 1.500 . S
C653 H618 0.929 . S
C653 C631 1.444 . S
C653 C654 1.317 . S
C654 H616 0.930 . S
C654 C622 1.432 . S
C654 C653 1.317 . S
C655 O639 1.283 . S
C655 O642 1.243 . S
C656 C657 1.382 . S
C656 C660 1.393 . S
C656 C663 1.500 . S
C657 C656 1.382 . S
C657 C658 1.400 . S
C657 H668 0.930 . S
C658 C657 1.400 . S
C658 C659 1.384 . S
C659 C658 1.384 . S
C659 C661 1.392 . S
C659 H669 0.931 . S
C660 C656 1.393 . S
C660 C661 1.401 . S
C660 H670 0.930 . S
C661 C659 1.392 . S
C661 C660 1.401 . S
C661 H671 0.930 . S
C662 O640 1.262 . S
C662 O641 1.260 . S
C663 Tb599 2.833 . S
C663 O638 1.251 . S
C663 O643 1.256 . S
C663 C656 1.500 . S
H664 C647 0.930 . S
H665 C648 0.931 . S
H666 C649 0.930 . S
H667 C650 0.930 . S
H668 C657 0.930 . S
H669 C659 0.931 . S
H670 C660 0.930 . S
H671 C661 0.930 . S
Tb672 N703 2.660 . S
Tb672 N710 2.600 . S
Tb672 O716 2.546 1_554 S
Tb672 O717 2.610 . S
Tb672 O719 2.320 1_554 S
Tb672 O720 2.552 1_554 S
Tb672 O721 2.413 1_554 S
Tb672 O723 2.362 . S
Tb672 O724 2.421 . S
Tb672 C736 2.833 1_554 S
C673 C676 1.432 . S
C673 C677 1.414 1_554 S
C673 N680 1.359 . S
C674 C676 1.417 . S
C674 C678 1.432 1_554 S
C674 C686 1.410 . S
C675 C677 1.444 . S
C675 C678 1.317 . S
C675 H698 0.929 . S
C676 C673 1.432 . S
C676 C674 1.417 . S
C676 N684 1.360 . S
C677 C673 1.414 1_556 S
C677 C675 1.444 . S
C677 C682 1.385 . S
C678 C674 1.432 1_556 S
C678 C675 1.317 . S
C678 H690 0.930 . S
C679 C681 1.392 1_556 S
C679 C682 1.370 . S
C679 H691 0.931 . S
N680 C673 1.359 . S
N680 C681 1.327 . S
N680 Tb683 2.600 . S
C681 C679 1.392 1_554 S
C681 N680 1.327 . S
C681 H688 0.930 . S
C682 C677 1.385 . S
C682 C679 1.370 . S
C682 H701 0.930 . S
Tb683 N680 2.600 . S
Tb683 N684 2.660 . S
Tb683 O717 2.362 . S
Tb683 O718 2.421 . S
Tb683 O722 2.546 . S
Tb683 O723 2.610 . S
Tb683 O725 2.320 . S
Tb683 O726 2.552 . S
Tb683 O727 2.413 . S
Tb683 C747 2.833 . S
N684 C676 1.360 . S
N684 Tb683 2.660 . S
N684 C685 1.305 . S
C685 N684 1.305 . S
C685 C687 1.407 . S
C685 H692 0.930 . S
C686 C674 1.410 . S
C686 C687 1.345 . S
C686 H694 0.930 . S
C687 C685 1.407 . S
C687 C686 1.345 . S
C687 H689 0.930 . S
H688 C681 0.930 . S
H689 C687 0.930 . S
H690 C678 0.930 . S
H691 C679 0.931 . S
H692 C685 0.930 . S
H693 C707 0.930 . S
H694 C686 0.930 . S
H695 C713 0.930 . S
H696 C704 0.930 . S
H697 C711 0.931 . S
H698 C675 0.929 . S
H699 C705 0.930 . S
H700 C738 0.930 . S
H701 C682 0.930 . S
H702 C737 0.929 . S
N703 Tb672 2.660 . S
N703 C704 1.305 . S
N703 C708 1.360 . S
C704 H696 0.930 . S
C704 N703 1.305 . S
C704 C707 1.407 . S
C705 H699 0.930 . S
C705 C706 1.410 . S
C705 C707 1.345 . S
C706 C705 1.410 . S
C706 C708 1.417 . S
C706 C738 1.432 . S
C707 H693 0.930 . S
C707 C704 1.407 . S
C707 C705 1.345 . S
C708 N703 1.360 . S
C708 C706 1.417 . S
C708 C712 1.432 . S
H709 C714 0.930 . S
N710 Tb672 2.600 . S
N710 C712 1.359 . S
N710 C713 1.327 . S
C711 H697 0.931 . S
C711 C713 1.392 . S
C711 C714 1.370 . S
C712 C708 1.432 . S
C712 N710 1.359 . S
C712 C715 1.414 . S
C713 H695 0.930 . S
C713 N710 1.327 . S
C713 C711 1.392 . S
C714 H709 0.930 . S
C714 C711 1.370 . S
C714 C715 1.385 . S
C715 C712 1.414 . S
C715 C714 1.385 . S
C715 C737 1.444 . S
O716 Tb672 2.546 1_556 S
O716 C736 1.251 . S
O717 Tb672 2.610 . S
O717 Tb683 2.362 . S
O717 C728 1.283 1_554 S
O718 Tb683 2.421 . S
O718 C735 1.262 1_554 S
O719 Tb672 2.320 1_556 S
O719 C735 1.260 . S
O720 Tb672 2.552 1_556 S
O720 C728 1.243 . S
O721 Tb672 2.413 1_556 S
O721 C736 1.256 . S
O722 Tb683 2.546 . S
O722 C747 1.251 . S
O723 Tb672 2.362 . S
O723 Tb683 2.610 . S
O723 C739 1.283 . S
O724 Tb672 2.421 . S
O724 C746 1.262 . S
O725 Tb683 2.320 . S
O725 C746 1.260 . S
O726 Tb683 2.552 . S
O726 C739 1.243 . S
O727 Tb683 2.413 . S
O727 C747 1.256 . S
C728 O717 1.283 1_556 S
C728 O720 1.243 . S
C729 C731 1.382 . S
C729 C733 1.393 . S
C729 C736 1.500 . S
C730 C731 1.400 . S
C730 C732 1.384 . S
C731 C729 1.382 . S
C731 C730 1.400 . S
C731 H748 0.930 . S
C732 C730 1.384 . S
C732 C734 1.392 . S
C732 H749 0.931 . S
C733 C729 1.393 . S
C733 C734 1.401 . S
C733 H750 0.930 . S
C734 C732 1.392 . S
C734 C733 1.401 . S
C734 H751 0.930 . S
C735 O718 1.262 1_556 S
C735 O719 1.260 . S
C736 Tb672 2.833 1_556 S
C736 O716 1.251 . S
C736 O721 1.256 . S
C736 C729 1.500 . S
C737 H702 0.929 . S
C737 C715 1.444 . S
C737 C738 1.317 . S
C738 H700 0.930 . S
C738 C706 1.432 . S
C738 C737 1.317 . S
C739 O723 1.283 . S
C739 O726 1.243 . S
C740 C741 1.382 . S
C740 C744 1.393 . S
C740 C747 1.500 . S
C741 C740 1.382 . S
C741 C742 1.400 . S
C741 H752 0.930 . S
C742 C741 1.400 . S
C742 C743 1.384 . S
C743 C742 1.384 . S
C743 C745 1.392 . S
C743 H753 0.931 . S
C744 C740 1.393 . S
C744 C745 1.401 . S
C744 H754 0.930 . S
C745 C743 1.392 . S
C745 C744 1.401 . S
C745 H755 0.930 . S
C746 O724 1.262 . S
C746 O725 1.260 . S
C747 Tb683 2.833 . S
C747 O722 1.251 . S
C747 O727 1.256 . S
C747 C740 1.500 . S
H748 C731 0.930 . S
H749 C732 0.931 . S
H750 C733 0.930 . S
H751 C734 0.930 . S
H752 C741 0.930 . S
H753 C743 0.931 . S
H754 C744 0.930 . S
H755 C745 0.930 . S
Tb756 N787 2.660 . S
Tb756 N794 2.600 . S
Tb756 O800 2.546 1_556 S
Tb756 O801 2.610 . S
Tb756 O803 2.320 1_556 S
Tb756 O804 2.552 1_556 S
Tb756 O805 2.413 1_556 S
Tb756 O807 2.362 . S
Tb756 O808 2.421 . S
Tb756 C820 2.833 1_556 S
C757 C760 1.432 . S
C757 C761 1.414 1_556 S
C757 N764 1.359 . S
C758 C760 1.417 . S
C758 C762 1.432 1_556 S
C758 C770 1.410 . S
C759 C761 1.444 . S
C759 C762 1.317 . S
C759 H782 0.929 . S
C760 C757 1.432 . S
C760 C758 1.417 . S
C760 N768 1.360 . S
C761 C757 1.414 1_554 S
C761 C759 1.444 . S
C761 C766 1.385 . S
C762 C758 1.432 1_554 S
C762 C759 1.317 . S
C762 H774 0.930 . S
C763 C765 1.392 1_554 S
C763 C766 1.370 . S
C763 H775 0.931 . S
N764 C757 1.359 . S
N764 C765 1.327 . S
N764 Tb767 2.600 . S
C765 C763 1.392 1_556 S
C765 N764 1.327 . S
C765 H772 0.930 . S
C766 C761 1.385 . S
C766 C763 1.370 . S
C766 H785 0.930 . S
Tb767 N764 2.600 . S
Tb767 N768 2.660 . S
Tb767 O801 2.362 . S
Tb767 O802 2.421 . S
Tb767 O806 2.546 . S
Tb767 O807 2.610 . S
Tb767 O809 2.320 . S
Tb767 O810 2.552 . S
Tb767 O811 2.413 . S
Tb767 C831 2.833 . S
N768 C760 1.360 . S
N768 Tb767 2.660 . S
N768 C769 1.305 . S
C769 N768 1.305 . S
C769 C771 1.407 . S
C769 H776 0.930 . S
C770 C758 1.410 . S
C770 C771 1.345 . S
C770 H778 0.930 . S
C771 C769 1.407 . S
C771 C770 1.345 . S
C771 H773 0.930 . S
H772 C765 0.930 . S
H773 C771 0.930 . S
H774 C762 0.930 . S
H775 C763 0.931 . S
H776 C769 0.930 . S
H777 C791 0.930 . S
H778 C770 0.930 . S
H779 C797 0.930 . S
H780 C788 0.930 . S
H781 C795 0.931 . S
H782 C759 0.929 . S
H783 C789 0.930 . S
H784 C822 0.930 . S
H785 C766 0.930 . S
H786 C821 0.929 . S
N787 Tb756 2.660 . S
N787 C788 1.305 . S
N787 C792 1.360 . S
C788 H780 0.930 . S
C788 N787 1.305 . S
C788 C791 1.407 . S
C789 H783 0.930 . S
C789 C790 1.410 . S
C789 C791 1.345 . S
C790 C789 1.410 . S
C790 C792 1.417 . S
C790 C822 1.432 . S
C791 H777 0.930 . S
C791 C788 1.407 . S
C791 C789 1.345 . S
C792 N787 1.360 . S
C792 C790 1.417 . S
C792 C796 1.432 . S
H793 C798 0.930 . S
N794 Tb756 2.600 . S
N794 C796 1.359 . S
N794 C797 1.327 . S
C795 H781 0.931 . S
C795 C797 1.392 . S
C795 C798 1.370 . S
C796 C792 1.432 . S
C796 N794 1.359 . S
C796 C799 1.414 . S
C797 H779 0.930 . S
C797 N794 1.327 . S
C797 C795 1.392 . S
C798 H793 0.930 . S
C798 C795 1.370 . S
C798 C799 1.385 . S
C799 C796 1.414 . S
C799 C798 1.385 . S
C799 C821 1.444 . S
O800 Tb756 2.546 1_554 S
O800 C820 1.251 . S
O801 Tb756 2.610 . S
O801 Tb767 2.362 . S
O801 C812 1.283 1_556 S
O802 Tb767 2.421 . S
O802 C819 1.262 1_556 S
O803 Tb756 2.320 1_554 S
O803 C819 1.260 . S
O804 Tb756 2.552 1_554 S
O804 C812 1.243 . S
O805 Tb756 2.413 1_554 S
O805 C820 1.256 . S
O806 Tb767 2.546 . S
O806 C831 1.251 . S
O807 Tb756 2.362 . S
O807 Tb767 2.610 . S
O807 C823 1.283 . S
O808 Tb756 2.421 . S
O808 C830 1.262 . S
O809 Tb767 2.320 . S
O809 C830 1.260 . S
O810 Tb767 2.552 . S
O810 C823 1.243 . S
O811 Tb767 2.413 . S
O811 C831 1.256 . S
C812 O801 1.283 1_554 S
C812 O804 1.243 . S
C813 C815 1.382 . S
C813 C817 1.393 . S
C813 C820 1.500 . S
C814 C815 1.400 . S
C814 C816 1.384 . S
C815 C813 1.382 . S
C815 C814 1.400 . S
C815 H832 0.930 . S
C816 C814 1.384 . S
C816 C818 1.392 . S
C816 H833 0.931 . S
C817 C813 1.393 . S
C817 C818 1.401 . S
C817 H834 0.930 . S
C818 C816 1.392 . S
C818 C817 1.401 . S
C818 H835 0.930 . S
C819 O802 1.262 1_554 S
C819 O803 1.260 . S
C820 Tb756 2.833 1_554 S
C820 O800 1.251 . S
C820 O805 1.256 . S
C820 C813 1.500 . S
C821 H786 0.929 . S
C821 C799 1.444 . S
C821 C822 1.317 . S
C822 H784 0.930 . S
C822 C790 1.432 . S
C822 C821 1.317 . S
C823 O807 1.283 . S
C823 O810 1.243 . S
C824 C825 1.382 . S
C824 C828 1.393 . S
C824 C831 1.500 . S
C825 C824 1.382 . S
C825 C826 1.400 . S
C825 H836 0.930 . S
C826 C825 1.400 . S
C826 C827 1.384 . S
C827 C826 1.384 . S
C827 C829 1.392 . S
C827 H837 0.931 . S
C828 C824 1.393 . S
C828 C829 1.401 . S
C828 H838 0.930 . S
C829 C827 1.392 . S
C829 C828 1.401 . S
C829 H839 0.930 . S
C830 O808 1.262 . S
C830 O809 1.260 . S
C831 Tb767 2.833 . S
C831 O806 1.251 . S
C831 O811 1.256 . S
C831 C824 1.500 . S
H832 C815 0.930 . S
H833 C816 0.931 . S
H834 C817 0.930 . S
H835 C818 0.930 . S
H836 C825 0.930 . S
H837 C827 0.931 . S
H838 C828 0.930 . S
H839 C829 0.930 . S
Tb840 N871 2.660 . S
Tb840 N878 2.600 . S
Tb840 O884 2.546 . S
Tb840 O885 2.610 . S
Tb840 O887 2.320 . S
Tb840 O888 2.552 . S
Tb840 O889 2.413 . S
Tb840 O891 2.362 . S
Tb840 O892 2.421 . S
Tb840 C904 2.833 . S
C841 C844 1.432 . S
C841 C845 1.414 . S
C841 N848 1.359 . S
C842 C844 1.417 . S
C842 C846 1.432 . S
C842 C854 1.410 . S
C843 C845 1.444 . S
C843 C846 1.317 . S
C843 H866 0.929 . S
C844 C841 1.432 . S
C844 C842 1.417 . S
C844 N852 1.360 . S
C845 C841 1.414 . S
C845 C843 1.444 . S
C845 C850 1.385 . S
C846 C842 1.432 . S
C846 C843 1.317 . S
C846 H858 0.930 . S
C847 C849 1.392 . S
C847 C850 1.370 . S
C847 H859 0.931 . S
N848 C841 1.359 . S
N848 C849 1.327 . S
N848 Tb851 2.600 . S
C849 C847 1.392 . S
C849 N848 1.327 . S
C849 H856 0.930 . S
C850 C845 1.385 . S
C850 C847 1.370 . S
C850 H869 0.930 . S
Tb851 N848 2.600 . S
Tb851 N852 2.660 . S
Tb851 O885 2.362 . S
Tb851 O886 2.421 . S
Tb851 O890 2.546 . S
Tb851 O891 2.610 . S
Tb851 O893 2.320 . S
Tb851 O894 2.552 . S
Tb851 O895 2.413 . S
Tb851 C915 2.833 . S
N852 C844 1.360 . S
N852 Tb851 2.660 . S
N852 C853 1.305 . S
C853 N852 1.305 . S
C853 C855 1.407 . S
C853 H860 0.930 . S
C854 C842 1.410 . S
C854 C855 1.345 . S
C854 H862 0.930 . S
C855 C853 1.407 . S
C855 C854 1.345 . S
C855 H857 0.930 . S
H856 C849 0.930 . S
H857 C855 0.930 . S
H858 C846 0.930 . S
H859 C847 0.931 . S
H860 C853 0.930 . S
H861 C875 0.930 . S
H862 C854 0.930 . S
H863 C881 0.930 . S
H864 C872 0.930 . S
H865 C879 0.931 . S
H866 C843 0.929 . S
H867 C873 0.930 . S
H868 C906 0.930 . S
H869 C850 0.930 . S
H870 C905 0.929 . S
N871 Tb840 2.660 . S
N871 C872 1.305 . S
N871 C876 1.360 . S
C872 H864 0.930 . S
C872 N871 1.305 . S
C872 C875 1.407 . S
C873 H867 0.930 . S
C873 C874 1.410 . S
C873 C875 1.345 . S
C874 C873 1.410 . S
C874 C876 1.417 . S
C874 C906 1.432 . S
C875 H861 0.930 . S
C875 C872 1.407 . S
C875 C873 1.345 . S
C876 N871 1.360 . S
C876 C874 1.417 . S
C876 C880 1.432 . S
H877 C882 0.930 . S
N878 Tb840 2.600 . S
N878 C880 1.359 . S
N878 C881 1.327 . S
C879 H865 0.931 . S
C879 C881 1.392 . S
C879 C882 1.370 . S
C880 C876 1.432 . S
C880 N878 1.359 . S
C880 C883 1.414 . S
C881 H863 0.930 . S
C881 N878 1.327 . S
C881 C879 1.392 . S
C882 H877 0.930 . S
C882 C879 1.370 . S
C882 C883 1.385 . S
C883 C880 1.414 . S
C883 C882 1.385 . S
C883 C905 1.444 . S
O884 Tb840 2.546 . S
O884 C904 1.251 . S
O885 Tb840 2.610 . S
O885 Tb851 2.362 . S
O885 C896 1.283 . S
O886 Tb851 2.421 . S
O886 C903 1.262 . S
O887 Tb840 2.320 . S
O887 C903 1.260 . S
O888 Tb840 2.552 . S
O888 C896 1.243 . S
O889 Tb840 2.413 . S
O889 C904 1.256 . S
O890 Tb851 2.546 . S
O890 C915 1.251 . S
O891 Tb840 2.362 . S
O891 Tb851 2.610 . S
O891 C907 1.283 . S
O892 Tb840 2.421 . S
O892 C914 1.262 . S
O893 Tb851 2.320 . S
O893 C914 1.260 . S
O894 Tb851 2.552 . S
O894 C907 1.243 . S
O895 Tb851 2.413 . S
O895 C915 1.256 . S
C896 O885 1.283 . S
C896 O888 1.243 . S
C897 C899 1.382 . S
C897 C901 1.393 . S
C897 C904 1.500 . S
C898 C899 1.400 . S
C898 C900 1.384 . S
C899 C897 1.382 . S
C899 C898 1.400 . S
C899 H916 0.930 . S
C900 C898 1.384 . S
C900 C902 1.392 . S
C900 H917 0.931 . S
C901 C897 1.393 . S
C901 C902 1.401 . S
C901 H918 0.930 . S
C902 C900 1.392 . S
C902 C901 1.401 . S
C902 H919 0.930 . S
C903 O886 1.262 . S
C903 O887 1.260 . S
C904 Tb840 2.833 . S
C904 O884 1.251 . S
C904 O889 1.256 . S
C904 C897 1.500 . S
C905 H870 0.929 . S
C905 C883 1.444 . S
C905 C906 1.317 . S
C906 H868 0.930 . S
C906 C874 1.432 . S
C906 C905 1.317 . S
C907 O891 1.283 . S
C907 O894 1.243 . S
C908 C909 1.382 . S
C908 C912 1.393 . S
C908 C915 1.500 . S
C909 C908 1.382 . S
C909 C910 1.400 . S
C909 H920 0.930 . S
C910 C909 1.400 . S
C910 C911 1.384 . S
C911 C910 1.384 . S
C911 C913 1.392 . S
C911 H921 0.931 . S
C912 C908 1.393 . S
C912 C913 1.401 . S
C912 H922 0.930 . S
C913 C911 1.392 . S
C913 C912 1.401 . S
C913 H923 0.930 . S
C914 O892 1.262 . S
C914 O893 1.260 . S
C915 Tb851 2.833 . S
C915 O890 1.251 . S
C915 O895 1.256 . S
C915 C908 1.500 . S
H916 C899 0.930 . S
H917 C900 0.931 . S
H918 C901 0.930 . S
H919 C902 0.930 . S
H920 C909 0.930 . S
H921 C911 0.931 . S
H922 C912 0.930 . S
H923 C913 0.930 . S
Tb924 N955 2.660 . S
Tb924 N962 2.600 . S
Tb924 O968 2.546 . S
Tb924 O969 2.610 . S
Tb924 O971 2.320 . S
Tb924 O972 2.552 . S
Tb924 O973 2.413 . S
Tb924 O975 2.362 . S
Tb924 O976 2.421 . S
Tb924 C988 2.833 . S
C925 C928 1.432 . S
C925 C929 1.414 . S
C925 N932 1.359 . S
C926 C928 1.417 . S
C926 C930 1.432 . S
C926 C938 1.410 . S
C927 C929 1.444 . S
C927 C930 1.317 . S
C927 H950 0.929 . S
C928 C925 1.432 . S
C928 C926 1.417 . S
C928 N936 1.360 . S
C929 C925 1.414 . S
C929 C927 1.444 . S
C929 C934 1.385 . S
C930 C926 1.432 . S
C930 C927 1.317 . S
C930 H942 0.930 . S
C931 C933 1.392 . S
C931 C934 1.370 . S
C931 H943 0.931 . S
N932 C925 1.359 . S
N932 C933 1.327 . S
N932 Tb935 2.600 . S
C933 C931 1.392 . S
C933 N932 1.327 . S
C933 H940 0.930 . S
C934 C929 1.385 . S
C934 C931 1.370 . S
C934 H953 0.930 . S
Tb935 N932 2.600 . S
Tb935 N936 2.660 . S
Tb935 O969 2.362 . S
Tb935 O970 2.421 . S
Tb935 O974 2.546 . S
Tb935 O975 2.610 . S
Tb935 O977 2.320 . S
Tb935 O978 2.552 . S
Tb935 O979 2.413 . S
Tb935 C999 2.833 . S
N936 C928 1.360 . S
N936 Tb935 2.660 . S
N936 C937 1.305 . S
C937 N936 1.305 . S
C937 C939 1.407 . S
C937 H944 0.930 . S
C938 C926 1.410 . S
C938 C939 1.345 . S
C938 H946 0.930 . S
C939 C937 1.407 . S
C939 C938 1.345 . S
C939 H941 0.930 . S
H940 C933 0.930 . S
H941 C939 0.930 . S
H942 C930 0.930 . S
H943 C931 0.931 . S
H944 C937 0.930 . S
H945 C959 0.930 . S
H946 C938 0.930 . S
H947 C965 0.930 . S
H948 C956 0.930 . S
H949 C963 0.931 . S
H950 C927 0.929 . S
H951 C957 0.930 . S
H952 C990 0.930 . S
H953 C934 0.930 . S
H954 C989 0.929 . S
N955 Tb924 2.660 . S
N955 C956 1.305 . S
N955 C960 1.360 . S
C956 H948 0.930 . S
C956 N955 1.305 . S
C956 C959 1.407 . S
C957 H951 0.930 . S
C957 C958 1.410 . S
C957 C959 1.345 . S
C958 C957 1.410 . S
C958 C960 1.417 . S
C958 C990 1.432 . S
C959 H945 0.930 . S
C959 C956 1.407 . S
C959 C957 1.345 . S
C960 N955 1.360 . S
C960 C958 1.417 . S
C960 C964 1.432 . S
H961 C966 0.930 . S
N962 Tb924 2.600 . S
N962 C964 1.359 . S
N962 C965 1.327 . S
C963 H949 0.931 . S
C963 C965 1.392 . S
C963 C966 1.370 . S
C964 C960 1.432 . S
C964 N962 1.359 . S
C964 C967 1.414 . S
C965 H947 0.930 . S
C965 N962 1.327 . S
C965 C963 1.392 . S
C966 H961 0.930 . S
C966 C963 1.370 . S
C966 C967 1.385 . S
C967 C964 1.414 . S
C967 C966 1.385 . S
C967 C989 1.444 . S
O968 Tb924 2.546 . S
O968 C988 1.251 . S
O969 Tb924 2.610 . S
O969 Tb935 2.362 . S
O969 C980 1.283 . S
O970 Tb935 2.421 . S
O970 C987 1.262 . S
O971 Tb924 2.320 . S
O971 C987 1.260 . S
O972 Tb924 2.552 . S
O972 C980 1.243 . S
O973 Tb924 2.413 . S
O973 C988 1.256 . S
O974 Tb935 2.546 . S
O974 C999 1.251 . S
O975 Tb924 2.362 . S
O975 Tb935 2.610 . S
O975 C991 1.283 . S
O976 Tb924 2.421 . S
O976 C998 1.262 . S
O977 Tb935 2.320 . S
O977 C998 1.260 . S
O978 Tb935 2.552 . S
O978 C991 1.243 . S
O979 Tb935 2.413 . S
O979 C999 1.256 . S
C980 O969 1.283 . S
C980 O972 1.243 . S
C981 C983 1.382 . S
C981 C985 1.393 . S
C981 C988 1.500 . S
C982 C983 1.400 . S
C982 C984 1.384 . S
C983 C981 1.382 . S
C983 C982 1.400 . S
C983 H1000 0.930 . S
C984 C982 1.384 . S
C984 C986 1.392 . S
C984 H1001 0.931 . S
C985 C981 1.393 . S
C985 C986 1.401 . S
C985 H1002 0.930 . S
C986 C984 1.392 . S
C986 C985 1.401 . S
C986 H1003 0.930 . S
C987 O970 1.262 . S
C987 O971 1.260 . S
C988 Tb924 2.833 . S
C988 O968 1.251 . S
C988 O973 1.256 . S
C988 C981 1.500 . S
C989 H954 0.929 . S
C989 C967 1.444 . S
C989 C990 1.317 . S
C990 H952 0.930 . S
C990 C958 1.432 . S
C990 C989 1.317 . S
C991 O975 1.283 . S
C991 O978 1.243 . S
C992 C993 1.382 . S
C992 C996 1.393 . S
C992 C999 1.500 . S
C993 C992 1.382 . S
C993 C994 1.400 . S
C993 H1004 0.930 . S
C994 C993 1.400 . S
C994 C995 1.384 . S
C995 C994 1.384 . S
C995 C997 1.392 . S
C995 H1005 0.931 . S
C996 C992 1.393 . S
C996 C997 1.401 . S
C996 H1006 0.930 . S
C997 C995 1.392 . S
C997 C996 1.401 . S
C997 H1007 0.930 . S
C998 O976 1.262 . S
C998 O977 1.260 . S
C999 Tb935 2.833 . S
C999 O974 1.251 . S
C999 O979 1.256 . S
C999 C992 1.500 . S
H1000 C983 0.930 . S
H1001 C984 0.931 . S
H1002 C985 0.930 . S
H1003 C986 0.930 . S
H1004 C993 0.930 . S
H1005 C995 0.931 . S
H1006 C996 0.930 . S
H1007 C997 0.930 . S
Tb1008 N1039 2.660 . S
Tb1008 N1046 2.600 . S
Tb1008 O1052 2.546 . S
Tb1008 O1053 2.610 . S
Tb1008 O1055 2.320 . S
Tb1008 O1056 2.552 . S
Tb1008 O1057 2.413 . S
Tb1008 O1059 2.362 . S
Tb1008 O1060 2.421 . S
Tb1008 C1072 2.833 . S
C1009 C1012 1.432 . S
C1009 C1013 1.414 . S
C1009 N1016 1.359 . S
C1010 C1012 1.417 . S
C1010 C1014 1.432 . S
C1010 C1022 1.410 . S
C1011 C1013 1.444 . S
C1011 C1014 1.317 . S
C1011 H1034 0.929 . S
C1012 C1009 1.432 . S
C1012 C1010 1.417 . S
C1012 N1020 1.360 . S
C1013 C1009 1.414 . S
C1013 C1011 1.444 . S
C1013 C1018 1.385 . S
C1014 C1010 1.432 . S
C1014 C1011 1.317 . S
C1014 H1026 0.930 . S
C1015 C1017 1.392 . S
C1015 C1018 1.370 . S
C1015 H1027 0.931 . S
N1016 C1009 1.359 . S
N1016 C1017 1.327 . S
N1016 Tb1019 2.600 . S
C1017 C1015 1.392 . S
C1017 N1016 1.327 . S
C1017 H1024 0.930 . S
C1018 C1013 1.385 . S
C1018 C1015 1.370 . S
C1018 H1037 0.930 . S
Tb1019 N1016 2.600 . S
Tb1019 N1020 2.660 . S
Tb1019 O1053 2.362 . S
Tb1019 O1054 2.421 . S
Tb1019 O1058 2.546 1_655 S
Tb1019 O1059 2.610 . S
Tb1019 O1061 2.320 1_655 S
Tb1019 O1062 2.552 1_655 S
Tb1019 O1063 2.413 1_655 S
Tb1019 C1083 2.833 1_655 S
N1020 C1012 1.360 . S
N1020 Tb1019 2.660 . S
N1020 C1021 1.305 . S
C1021 N1020 1.305 . S
C1021 C1023 1.407 . S
C1021 H1028 0.930 . S
C1022 C1010 1.410 . S
C1022 C1023 1.345 . S
C1022 H1030 0.930 . S
C1023 C1021 1.407 . S
C1023 C1022 1.345 . S
C1023 H1025 0.930 . S
H1024 C1017 0.930 . S
H1025 C1023 0.930 . S
H1026 C1014 0.930 . S
H1027 C1015 0.931 . S
H1028 C1021 0.930 . S
H1029 C1043 0.930 . S
H1030 C1022 0.930 . S
H1031 C1049 0.930 . S
H1032 C1040 0.930 . S
H1033 C1047 0.931 . S
H1034 C1011 0.929 . S
H1035 C1041 0.930 . S
H1036 C1074 0.930 . S
H1037 C1018 0.930 . S
H1038 C1073 0.929 . S
N1039 Tb1008 2.660 . S
N1039 C1040 1.305 . S
N1039 C1044 1.360 . S
C1040 H1032 0.930 . S
C1040 N1039 1.305 . S
C1040 C1043 1.407 . S
C1041 H1035 0.930 . S
C1041 C1042 1.410 . S
C1041 C1043 1.345 . S
C1042 C1041 1.410 . S
C1042 C1044 1.417 . S
C1042 C1074 1.432 1_655 S
C1043 H1029 0.930 . S
C1043 C1040 1.407 . S
C1043 C1041 1.345 . S
C1044 N1039 1.360 . S
C1044 C1042 1.417 . S
C1044 C1048 1.432 . S
H1045 C1050 0.930 . S
N1046 Tb1008 2.600 . S
N1046 C1048 1.359 . S
N1046 C1049 1.327 . S
C1047 H1033 0.931 . S
C1047 C1049 1.392 1_455 S
C1047 C1050 1.370 . S
C1048 C1044 1.432 . S
C1048 N1046 1.359 . S
C1048 C1051 1.414 1_655 S
C1049 H1031 0.930 . S
C1049 N1046 1.327 . S
C1049 C1047 1.392 1_655 S
C1050 H1045 0.930 . S
C1050 C1047 1.370 . S
C1050 C1051 1.385 . S
C1051 C1048 1.414 1_455 S
C1051 C1050 1.385 . S
C1051 C1073 1.444 . S
O1052 Tb1008 2.546 . S
O1052 C1072 1.251 . S
O1053 Tb1008 2.610 . S
O1053 Tb1019 2.362 . S
O1053 C1064 1.283 . S
O1054 Tb1019 2.421 . S
O1054 C1071 1.262 . S
O1055 Tb1008 2.320 . S
O1055 C1071 1.260 . S
O1056 Tb1008 2.552 . S
O1056 C1064 1.243 . S
O1057 Tb1008 2.413 . S
O1057 C1072 1.256 . S
O1058 Tb1019 2.546 1_455 S
O1058 C1083 1.251 . S
O1059 Tb1008 2.362 . S
O1059 Tb1019 2.610 . S
O1059 C1075 1.283 1_655 S
O1060 Tb1008 2.421 . S
O1060 C1082 1.262 1_655 S
O1061 Tb1019 2.320 1_455 S
O1061 C1082 1.260 . S
O1062 Tb1019 2.552 1_455 S
O1062 C1075 1.243 . S
O1063 Tb1019 2.413 1_455 S
O1063 C1083 1.256 . S
C1064 O1053 1.283 . S
C1064 O1056 1.243 . S
C1065 C1067 1.382 . S
C1065 C1069 1.393 . S
C1065 C1072 1.500 . S
C1066 C1067 1.400 . S
C1066 C1068 1.384 . S
C1067 C1065 1.382 . S
C1067 C1066 1.400 . S
C1067 H1084 0.930 . S
C1068 C1066 1.384 . S
C1068 C1070 1.392 . S
C1068 H1085 0.931 . S
C1069 C1065 1.393 . S
C1069 C1070 1.401 . S
C1069 H1086 0.930 . S
C1070 C1068 1.392 . S
C1070 C1069 1.401 . S
C1070 H1087 0.930 . S
C1071 O1054 1.262 . S
C1071 O1055 1.260 . S
C1072 Tb1008 2.833 . S
C1072 O1052 1.251 . S
C1072 O1057 1.256 . S
C1072 C1065 1.500 . S
C1073 H1038 0.929 . S
C1073 C1051 1.444 . S
C1073 C1074 1.317 . S
C1074 H1036 0.930 . S
C1074 C1042 1.432 1_455 S
C1074 C1073 1.317 . S
C1075 O1059 1.283 1_455 S
C1075 O1062 1.243 . S
C1076 C1077 1.382 . S
C1076 C1080 1.393 . S
C1076 C1083 1.500 . S
C1077 C1076 1.382 . S
C1077 C1078 1.400 . S
C1077 H1088 0.930 . S
C1078 C1077 1.400 . S
C1078 C1079 1.384 . S
C1079 C1078 1.384 . S
C1079 C1081 1.392 . S
C1079 H1089 0.931 . S
C1080 C1076 1.393 . S
C1080 C1081 1.401 . S
C1080 H1090 0.930 . S
C1081 C1079 1.392 . S
C1081 C1080 1.401 . S
C1081 H1091 0.930 . S
C1082 O1060 1.262 1_455 S
C1082 O1061 1.260 . S
C1083 Tb1019 2.833 1_455 S
C1083 O1058 1.251 . S
C1083 O1063 1.256 . S
C1083 C1076 1.500 . S
H1084 C1067 0.930 . S
H1085 C1068 0.931 . S
H1086 C1069 0.930 . S
H1087 C1070 0.930 . S
H1088 C1077 0.930 . S
H1089 C1079 0.931 . S
H1090 C1080 0.930 . S
H1091 C1081 0.930 . S
Tb1092 N1123 2.660 . S
Tb1092 N1130 2.600 . S
Tb1092 O1136 2.546 . S
Tb1092 O1137 2.610 . S
Tb1092 O1139 2.320 . S
Tb1092 O1140 2.552 . S
Tb1092 O1141 2.413 . S
Tb1092 O1143 2.362 . S
Tb1092 O1144 2.421 . S
Tb1092 C1156 2.833 . S
C1093 C1096 1.432 . S
C1093 C1097 1.414 . S
C1093 N1100 1.359 . S
C1094 C1096 1.417 . S
C1094 C1098 1.432 . S
C1094 C1106 1.410 . S
C1095 C1097 1.444 . S
C1095 C1098 1.317 . S
C1095 H1118 0.929 . S
C1096 C1093 1.432 . S
C1096 C1094 1.417 . S
C1096 N1104 1.360 . S
C1097 C1093 1.414 . S
C1097 C1095 1.444 . S
C1097 C1102 1.385 . S
C1098 C1094 1.432 . S
C1098 C1095 1.317 . S
C1098 H1110 0.930 . S
C1099 C1101 1.392 . S
C1099 C1102 1.370 . S
C1099 H1111 0.931 . S
N1100 C1093 1.359 . S
N1100 C1101 1.327 . S
N1100 Tb1103 2.600 . S
C1101 C1099 1.392 . S
C1101 N1100 1.327 . S
C1101 H1108 0.930 . S
C1102 C1097 1.385 . S
C1102 C1099 1.370 . S
C1102 H1121 0.930 . S
Tb1103 N1100 2.600 . S
Tb1103 N1104 2.660 . S
Tb1103 O1137 2.362 . S
Tb1103 O1138 2.421 . S
Tb1103 O1142 2.546 . S
Tb1103 O1143 2.610 . S
Tb1103 O1145 2.320 . S
Tb1103 O1146 2.552 . S
Tb1103 O1147 2.413 . S
Tb1103 C1167 2.833 . S
N1104 C1096 1.360 . S
N1104 Tb1103 2.660 . S
N1104 C1105 1.305 . S
C1105 N1104 1.305 . S
C1105 C1107 1.407 . S
C1105 H1112 0.930 . S
C1106 C1094 1.410 . S
C1106 C1107 1.345 . S
C1106 H1114 0.930 . S
C1107 C1105 1.407 . S
C1107 C1106 1.345 . S
C1107 H1109 0.930 . S
H1108 C1101 0.930 . S
H1109 C1107 0.930 . S
H1110 C1098 0.930 . S
H1111 C1099 0.931 . S
H1112 C1105 0.930 . S
H1113 C1127 0.930 . S
H1114 C1106 0.930 . S
H1115 C1133 0.930 . S
H1116 C1124 0.930 . S
H1117 C1131 0.931 . S
H1118 C1095 0.929 . S
H1119 C1125 0.930 . S
H1120 C1158 0.930 . S
H1121 C1102 0.930 . S
H1122 C1157 0.929 . S
N1123 Tb1092 2.660 . S
N1123 C1124 1.305 . S
N1123 C1128 1.360 . S
C1124 H1116 0.930 . S
C1124 N1123 1.305 . S
C1124 C1127 1.407 . S
C1125 H1119 0.930 . S
C1125 C1126 1.410 . S
C1125 C1127 1.345 . S
C1126 C1125 1.410 . S
C1126 C1128 1.417 . S
C1126 C1158 1.432 . S
C1127 H1113 0.930 . S
C1127 C1124 1.407 . S
C1127 C1125 1.345 . S
C1128 N1123 1.360 . S
C1128 C1126 1.417 . S
C1128 C1132 1.432 . S
H1129 C1134 0.930 . S
N1130 Tb1092 2.600 . S
N1130 C1132 1.359 . S
N1130 C1133 1.327 . S
C1131 H1117 0.931 . S
C1131 C1133 1.392 . S
C1131 C1134 1.370 . S
C1132 C1128 1.432 . S
C1132 N1130 1.359 . S
C1132 C1135 1.414 . S
C1133 H1115 0.930 . S
C1133 N1130 1.327 . S
C1133 C1131 1.392 . S
C1134 H1129 0.930 . S
C1134 C1131 1.370 . S
C1134 C1135 1.385 . S
C1135 C1132 1.414 . S
C1135 C1134 1.385 . S
C1135 C1157 1.444 . S
O1136 Tb1092 2.546 . S
O1136 C1156 1.251 . S
O1137 Tb1092 2.610 . S
O1137 Tb1103 2.362 . S
O1137 C1148 1.283 . S
O1138 Tb1103 2.421 . S
O1138 C1155 1.262 . S
O1139 Tb1092 2.320 . S
O1139 C1155 1.260 . S
O1140 Tb1092 2.552 . S
O1140 C1148 1.243 . S
O1141 Tb1092 2.413 . S
O1141 C1156 1.256 . S
O1142 Tb1103 2.546 . S
O1142 C1167 1.251 . S
O1143 Tb1092 2.362 . S
O1143 Tb1103 2.610 . S
O1143 C1159 1.283 . S
O1144 Tb1092 2.421 . S
O1144 C1166 1.262 . S
O1145 Tb1103 2.320 . S
O1145 C1166 1.260 . S
O1146 Tb1103 2.552 . S
O1146 C1159 1.243 . S
O1147 Tb1103 2.413 . S
O1147 C1167 1.256 . S
C1148 O1137 1.283 . S
C1148 O1140 1.243 . S
C1149 C1151 1.382 . S
C1149 C1153 1.393 . S
C1149 C1156 1.500 . S
C1150 C1151 1.400 . S
C1150 C1152 1.384 . S
C1151 C1149 1.382 . S
C1151 C1150 1.400 . S
C1151 H1168 0.930 . S
C1152 C1150 1.384 . S
C1152 C1154 1.392 . S
C1152 H1169 0.931 . S
C1153 C1149 1.393 . S
C1153 C1154 1.401 . S
C1153 H1170 0.930 . S
C1154 C1152 1.392 . S
C1154 C1153 1.401 . S
C1154 H1171 0.930 . S
C1155 O1138 1.262 . S
C1155 O1139 1.260 . S
C1156 Tb1092 2.833 . S
C1156 O1136 1.251 . S
C1156 O1141 1.256 . S
C1156 C1149 1.500 . S
C1157 H1122 0.929 . S
C1157 C1135 1.444 . S
C1157 C1158 1.317 . S
C1158 H1120 0.930 . S
C1158 C1126 1.432 . S
C1158 C1157 1.317 . S
C1159 O1143 1.283 . S
C1159 O1146 1.243 . S
C1160 C1161 1.382 . S
C1160 C1164 1.393 . S
C1160 C1167 1.500 . S
C1161 C1160 1.382 . S
C1161 C1162 1.400 . S
C1161 H1172 0.930 . S
C1162 C1161 1.400 . S
C1162 C1163 1.384 . S
C1163 C1162 1.384 . S
C1163 C1165 1.392 . S
C1163 H1173 0.931 . S
C1164 C1160 1.393 . S
C1164 C1165 1.401 . S
C1164 H1174 0.930 . S
C1165 C1163 1.392 . S
C1165 C1164 1.401 . S
C1165 H1175 0.930 . S
C1166 O1144 1.262 . S
C1166 O1145 1.260 . S
C1167 Tb1103 2.833 . S
C1167 O1142 1.251 . S
C1167 O1147 1.256 . S
C1167 C1160 1.500 . S
H1168 C1151 0.930 . S
H1169 C1152 0.931 . S
H1170 C1153 0.930 . S
H1171 C1154 0.930 . S
H1172 C1161 0.930 . S
H1173 C1163 0.931 . S
H1174 C1164 0.930 . S
H1175 C1165 0.930 . S
Tb1176 N1207 2.660 . S
Tb1176 N1214 2.600 . S
Tb1176 O1220 2.546 . S
Tb1176 O1221 2.610 . S
Tb1176 O1223 2.320 . S
Tb1176 O1224 2.552 . S
Tb1176 O1225 2.413 . S
Tb1176 O1227 2.362 . S
Tb1176 O1228 2.421 . S
Tb1176 C1240 2.833 . S
C1177 C1180 1.432 . S
C1177 C1181 1.414 . S
C1177 N1184 1.359 . S
C1178 C1180 1.417 . S
C1178 C1182 1.432 . S
C1178 C1190 1.410 . S
C1179 C1181 1.444 . S
C1179 C1182 1.317 . S
C1179 H1202 0.929 . S
C1180 C1177 1.432 . S
C1180 C1178 1.417 . S
C1180 N1188 1.360 . S
C1181 C1177 1.414 . S
C1181 C1179 1.444 . S
C1181 C1186 1.385 . S
C1182 C1178 1.432 . S
C1182 C1179 1.317 . S
C1182 H1194 0.930 . S
C1183 C1185 1.392 . S
C1183 C1186 1.370 . S
C1183 H1195 0.931 . S
N1184 C1177 1.359 . S
N1184 C1185 1.327 . S
N1184 Tb1187 2.600 . S
C1185 C1183 1.392 . S
C1185 N1184 1.327 . S
C1185 H1192 0.930 . S
C1186 C1181 1.385 . S
C1186 C1183 1.370 . S
C1186 H1205 0.930 . S
Tb1187 N1184 2.600 . S
Tb1187 N1188 2.660 . S
Tb1187 O1221 2.362 . S
Tb1187 O1222 2.421 . S
Tb1187 O1226 2.546 . S
Tb1187 O1227 2.610 . S
Tb1187 O1229 2.320 . S
Tb1187 O1230 2.552 . S
Tb1187 O1231 2.413 . S
Tb1187 C1251 2.833 . S
N1188 C1180 1.360 . S
N1188 Tb1187 2.660 . S
N1188 C1189 1.305 . S
C1189 N1188 1.305 . S
C1189 C1191 1.407 . S
C1189 H1196 0.930 . S
C1190 C1178 1.410 . S
C1190 C1191 1.345 . S
C1190 H1198 0.930 . S
C1191 C1189 1.407 . S
C1191 C1190 1.345 . S
C1191 H1193 0.930 . S
H1192 C1185 0.930 . S
H1193 C1191 0.930 . S
H1194 C1182 0.930 . S
H1195 C1183 0.931 . S
H1196 C1189 0.930 . S
H1197 C1211 0.930 . S
H1198 C1190 0.930 . S
H1199 C1217 0.930 . S
H1200 C1208 0.930 . S
H1201 C1215 0.931 . S
H1202 C1179 0.929 . S
H1203 C1209 0.930 . S
H1204 C1242 0.930 . S
H1205 C1186 0.930 . S
H1206 C1241 0.929 . S
N1207 Tb1176 2.660 . S
N1207 C1208 1.305 . S
N1207 C1212 1.360 . S
C1208 H1200 0.930 . S
C1208 N1207 1.305 . S
C1208 C1211 1.407 . S
C1209 H1203 0.930 . S
C1209 C1210 1.410 . S
C1209 C1211 1.345 . S
C1210 C1209 1.410 . S
C1210 C1212 1.417 . S
C1210 C1242 1.432 . S
C1211 H1197 0.930 . S
C1211 C1208 1.407 . S
C1211 C1209 1.345 . S
C1212 N1207 1.360 . S
C1212 C1210 1.417 . S
C1212 C1216 1.432 . S
H1213 C1218 0.930 . S
N1214 Tb1176 2.600 . S
N1214 C1216 1.359 . S
N1214 C1217 1.327 . S
C1215 H1201 0.931 . S
C1215 C1217 1.392 . S
C1215 C1218 1.370 . S
C1216 C1212 1.432 . S
C1216 N1214 1.359 . S
C1216 C1219 1.414 . S
C1217 H1199 0.930 . S
C1217 N1214 1.327 . S
C1217 C1215 1.392 . S
C1218 H1213 0.930 . S
C1218 C1215 1.370 . S
C1218 C1219 1.385 . S
C1219 C1216 1.414 . S
C1219 C1218 1.385 . S
C1219 C1241 1.444 . S
O1220 Tb1176 2.546 . S
O1220 C1240 1.251 . S
O1221 Tb1176 2.610 . S
O1221 Tb1187 2.362 . S
O1221 C1232 1.283 . S
O1222 Tb1187 2.421 . S
O1222 C1239 1.262 . S
O1223 Tb1176 2.320 . S
O1223 C1239 1.260 . S
O1224 Tb1176 2.552 . S
O1224 C1232 1.243 . S
O1225 Tb1176 2.413 . S
O1225 C1240 1.256 . S
O1226 Tb1187 2.546 . S
O1226 C1251 1.251 . S
O1227 Tb1176 2.362 . S
O1227 Tb1187 2.610 . S
O1227 C1243 1.283 . S
O1228 Tb1176 2.421 . S
O1228 C1250 1.262 . S
O1229 Tb1187 2.320 . S
O1229 C1250 1.260 . S
O1230 Tb1187 2.552 . S
O1230 C1243 1.243 . S
O1231 Tb1187 2.413 . S
O1231 C1251 1.256 . S
C1232 O1221 1.283 . S
C1232 O1224 1.243 . S
C1233 C1235 1.382 . S
C1233 C1237 1.393 . S
C1233 C1240 1.500 . S
C1234 C1235 1.400 . S
C1234 C1236 1.384 . S
C1235 C1233 1.382 . S
C1235 C1234 1.400 . S
C1235 H1252 0.930 . S
C1236 C1234 1.384 . S
C1236 C1238 1.392 . S
C1236 H1253 0.931 . S
C1237 C1233 1.393 . S
C1237 C1238 1.401 . S
C1237 H1254 0.930 . S
C1238 C1236 1.392 . S
C1238 C1237 1.401 . S
C1238 H1255 0.930 . S
C1239 O1222 1.262 . S
C1239 O1223 1.260 . S
C1240 Tb1176 2.833 . S
C1240 O1220 1.251 . S
C1240 O1225 1.256 . S
C1240 C1233 1.500 . S
C1241 H1206 0.929 . S
C1241 C1219 1.444 . S
C1241 C1242 1.317 . S
C1242 H1204 0.930 . S
C1242 C1210 1.432 . S
C1242 C1241 1.317 . S
C1243 O1227 1.283 . S
C1243 O1230 1.243 . S
C1244 C1245 1.382 . S
C1244 C1248 1.393 . S
C1244 C1251 1.500 . S
C1245 C1244 1.382 . S
C1245 C1246 1.400 . S
C1245 H1256 0.930 . S
C1246 C1245 1.400 . S
C1246 C1247 1.384 . S
C1247 C1246 1.384 . S
C1247 C1249 1.392 . S
C1247 H1257 0.931 . S
C1248 C1244 1.393 . S
C1248 C1249 1.401 . S
C1248 H1258 0.930 . S
C1249 C1247 1.392 . S
C1249 C1248 1.401 . S
C1249 H1259 0.930 . S
C1250 O1228 1.262 . S
C1250 O1229 1.260 . S
C1251 Tb1187 2.833 . S
C1251 O1226 1.251 . S
C1251 O1231 1.256 . S
C1251 C1244 1.500 . S
H1252 C1235 0.930 . S
H1253 C1236 0.931 . S
H1254 C1237 0.930 . S
H1255 C1238 0.930 . S
H1256 C1245 0.930 . S
H1257 C1247 0.931 . S
H1258 C1248 0.930 . S
H1259 C1249 0.930 . S
Tb1260 N1291 2.660 . S
Tb1260 N1298 2.600 . S
Tb1260 O1304 2.546 . S
Tb1260 O1305 2.610 . S
Tb1260 O1307 2.320 . S
Tb1260 O1308 2.552 . S
Tb1260 O1309 2.413 . S
Tb1260 O1311 2.362 . S
Tb1260 O1312 2.421 . S
Tb1260 C1324 2.833 . S
C1261 C1264 1.432 . S
C1261 C1265 1.414 . S
C1261 N1268 1.359 . S
C1262 C1264 1.417 . S
C1262 C1266 1.432 . S
C1262 C1274 1.410 . S
C1263 C1265 1.444 . S
C1263 C1266 1.317 . S
C1263 H1286 0.929 . S
C1264 C1261 1.432 . S
C1264 C1262 1.417 . S
C1264 N1272 1.360 . S
C1265 C1261 1.414 . S
C1265 C1263 1.444 . S
C1265 C1270 1.385 . S
C1266 C1262 1.432 . S
C1266 C1263 1.317 . S
C1266 H1278 0.930 . S
C1267 C1269 1.392 . S
C1267 C1270 1.370 . S
C1267 H1279 0.931 . S
N1268 C1261 1.359 . S
N1268 C1269 1.327 . S
N1268 Tb1271 2.600 . S
C1269 C1267 1.392 . S
C1269 N1268 1.327 . S
C1269 H1276 0.930 . S
C1270 C1265 1.385 . S
C1270 C1267 1.370 . S
C1270 H1289 0.930 . S
Tb1271 N1268 2.600 . S
Tb1271 N1272 2.660 . S
Tb1271 O1305 2.362 . S
Tb1271 O1306 2.421 . S
Tb1271 O1310 2.546 1_455 S
Tb1271 O1311 2.610 . S
Tb1271 O1313 2.320 1_455 S
Tb1271 O1314 2.552 1_455 S
Tb1271 O1315 2.413 1_455 S
Tb1271 C1335 2.833 1_455 S
N1272 C1264 1.360 . S
N1272 Tb1271 2.660 . S
N1272 C1273 1.305 . S
C1273 N1272 1.305 . S
C1273 C1275 1.407 . S
C1273 H1280 0.930 . S
C1274 C1262 1.410 . S
C1274 C1275 1.345 . S
C1274 H1282 0.930 . S
C1275 C1273 1.407 . S
C1275 C1274 1.345 . S
C1275 H1277 0.930 . S
H1276 C1269 0.930 . S
H1277 C1275 0.930 . S
H1278 C1266 0.930 . S
H1279 C1267 0.931 . S
H1280 C1273 0.930 . S
H1281 C1295 0.930 . S
H1282 C1274 0.930 . S
H1283 C1301 0.930 . S
H1284 C1292 0.930 . S
H1285 C1299 0.931 . S
H1286 C1263 0.929 . S
H1287 C1293 0.930 . S
H1288 C1326 0.930 . S
H1289 C1270 0.930 . S
H1290 C1325 0.929 . S
N1291 Tb1260 2.660 . S
N1291 C1292 1.305 . S
N1291 C1296 1.360 . S
C1292 H1284 0.930 . S
C1292 N1291 1.305 . S
C1292 C1295 1.407 . S
C1293 H1287 0.930 . S
C1293 C1294 1.410 . S
C1293 C1295 1.345 . S
C1294 C1293 1.410 . S
C1294 C1296 1.417 . S
C1294 C1326 1.432 1_455 S
C1295 H1281 0.930 . S
C1295 C1292 1.407 . S
C1295 C1293 1.345 . S
C1296 N1291 1.360 . S
C1296 C1294 1.417 . S
C1296 C1300 1.432 . S
H1297 C1302 0.930 . S
N1298 Tb1260 2.600 . S
N1298 C1300 1.359 . S
N1298 C1301 1.327 . S
C1299 H1285 0.931 . S
C1299 C1301 1.392 1_655 S
C1299 C1302 1.370 . S
C1300 C1296 1.432 . S
C1300 N1298 1.359 . S
C1300 C1303 1.414 1_455 S
C1301 H1283 0.930 . S
C1301 N1298 1.327 . S
C1301 C1299 1.392 1_455 S
C1302 H1297 0.930 . S
C1302 C1299 1.370 . S
C1302 C1303 1.385 . S
C1303 C1300 1.414 1_655 S
C1303 C1302 1.385 . S
C1303 C1325 1.444 . S
O1304 Tb1260 2.546 . S
O1304 C1324 1.251 . S
O1305 Tb1260 2.610 . S
O1305 Tb1271 2.362 . S
O1305 C1316 1.283 . S
O1306 Tb1271 2.421 . S
O1306 C1323 1.262 . S
O1307 Tb1260 2.320 . S
O1307 C1323 1.260 . S
O1308 Tb1260 2.552 . S
O1308 C1316 1.243 . S
O1309 Tb1260 2.413 . S
O1309 C1324 1.256 . S
O1310 Tb1271 2.546 1_655 S
O1310 C1335 1.251 . S
O1311 Tb1260 2.362 . S
O1311 Tb1271 2.610 . S
O1311 C1327 1.283 1_455 S
O1312 Tb1260 2.421 . S
O1312 C1334 1.262 1_455 S
O1313 Tb1271 2.320 1_655 S
O1313 C1334 1.260 . S
O1314 Tb1271 2.552 1_655 S
O1314 C1327 1.243 . S
O1315 Tb1271 2.413 1_655 S
O1315 C1335 1.256 . S
C1316 O1305 1.283 . S
C1316 O1308 1.243 . S
C1317 C1319 1.382 . S
C1317 C1321 1.393 . S
C1317 C1324 1.500 . S
C1318 C1319 1.400 . S
C1318 C1320 1.384 . S
C1319 C1317 1.382 . S
C1319 C1318 1.400 . S
C1319 H1336 0.930 . S
C1320 C1318 1.384 . S
C1320 C1322 1.392 . S
C1320 H1337 0.931 . S
C1321 C1317 1.393 . S
C1321 C1322 1.401 . S
C1321 H1338 0.930 . S
C1322 C1320 1.392 . S
C1322 C1321 1.401 . S
C1322 H1339 0.930 . S
C1323 O1306 1.262 . S
C1323 O1307 1.260 . S
C1324 Tb1260 2.833 . S
C1324 O1304 1.251 . S
C1324 O1309 1.256 . S
C1324 C1317 1.500 . S
C1325 H1290 0.929 . S
C1325 C1303 1.444 . S
C1325 C1326 1.317 . S
C1326 H1288 0.930 . S
C1326 C1294 1.432 1_655 S
C1326 C1325 1.317 . S
C1327 O1311 1.283 1_655 S
C1327 O1314 1.243 . S
C1328 C1329 1.382 . S
C1328 C1332 1.393 . S
C1328 C1335 1.500 . S
C1329 C1328 1.382 . S
C1329 C1330 1.400 . S
C1329 H1340 0.930 . S
C1330 C1329 1.400 . S
C1330 C1331 1.384 . S
C1331 C1330 1.384 . S
C1331 C1333 1.392 . S
C1331 H1341 0.931 . S
C1332 C1328 1.393 . S
C1332 C1333 1.401 . S
C1332 H1342 0.930 . S
C1333 C1331 1.392 . S
C1333 C1332 1.401 . S
C1333 H1343 0.930 . S
C1334 O1312 1.262 1_655 S
C1334 O1313 1.260 . S
C1335 Tb1271 2.833 1_655 S
C1335 O1310 1.251 . S
C1335 O1315 1.256 . S
C1335 C1328 1.500 . S
H1336 C1319 0.930 . S
H1337 C1320 0.931 . S
H1338 C1321 0.930 . S
H1339 C1322 0.930 . S
H1340 C1329 0.930 . S
H1341 C1331 0.931 . S
H1342 C1332 0.930 . S
H1343 C1333 0.930 . S
Tb1344 N1375 2.660 . S
Tb1344 N1382 2.600 . S
Tb1344 O1388 2.546 . S
Tb1344 O1389 2.610 . S
Tb1344 O1391 2.320 . S
Tb1344 O1392 2.552 . S
Tb1344 O1393 2.413 . S
Tb1344 O1395 2.362 . S
Tb1344 O1396 2.421 . S
Tb1344 C1408 2.833 . S
C1345 C1348 1.432 . S
C1345 C1349 1.414 . S
C1345 N1352 1.359 . S
C1346 C1348 1.417 . S
C1346 C1350 1.432 . S
C1346 C1358 1.410 . S
C1347 C1349 1.444 . S
C1347 C1350 1.317 . S
C1347 H1370 0.929 . S
C1348 C1345 1.432 . S
C1348 C1346 1.417 . S
C1348 N1356 1.360 . S
C1349 C1345 1.414 . S
C1349 C1347 1.444 . S
C1349 C1354 1.385 . S
C1350 C1346 1.432 . S
C1350 C1347 1.317 . S
C1350 H1362 0.930 . S
C1351 C1353 1.392 . S
C1351 C1354 1.370 . S
C1351 H1363 0.931 . S
N1352 C1345 1.359 . S
N1352 C1353 1.327 . S
N1352 Tb1355 2.600 . S
C1353 C1351 1.392 . S
C1353 N1352 1.327 . S
C1353 H1360 0.930 . S
C1354 C1349 1.385 . S
C1354 C1351 1.370 . S
C1354 H1373 0.930 . S
Tb1355 N1352 2.600 . S
Tb1355 N1356 2.660 . S
Tb1355 O1389 2.362 . S
Tb1355 O1390 2.421 . S
Tb1355 O1394 2.546 1_565 S
Tb1355 O1395 2.610 . S
Tb1355 O1397 2.320 1_565 S
Tb1355 O1398 2.552 1_565 S
Tb1355 O1399 2.413 1_565 S
Tb1355 C1419 2.833 1_565 S
N1356 C1348 1.360 . S
N1356 Tb1355 2.660 . S
N1356 C1357 1.305 . S
C1357 N1356 1.305 . S
C1357 C1359 1.407 . S
C1357 H1364 0.930 . S
C1358 C1346 1.410 . S
C1358 C1359 1.345 . S
C1358 H1366 0.930 . S
C1359 C1357 1.407 . S
C1359 C1358 1.345 . S
C1359 H1361 0.930 . S
H1360 C1353 0.930 . S
H1361 C1359 0.930 . S
H1362 C1350 0.930 . S
H1363 C1351 0.931 . S
H1364 C1357 0.930 . S
H1365 C1379 0.930 . S
H1366 C1358 0.930 . S
H1367 C1385 0.930 . S
H1368 C1376 0.930 . S
H1369 C1383 0.931 . S
H1370 C1347 0.929 . S
H1371 C1377 0.930 . S
H1372 C1410 0.930 . S
H1373 C1354 0.930 . S
H1374 C1409 0.929 . S
N1375 Tb1344 2.660 . S
N1375 C1376 1.305 . S
N1375 C1380 1.360 . S
C1376 H1368 0.930 . S
C1376 N1375 1.305 . S
C1376 C1379 1.407 . S
C1377 H1371 0.930 . S
C1377 C1378 1.410 . S
C1377 C1379 1.345 . S
C1378 C1377 1.410 . S
C1378 C1380 1.417 . S
C1378 C1410 1.432 1_565 S
C1379 H1365 0.930 . S
C1379 C1376 1.407 . S
C1379 C1377 1.345 . S
C1380 N1375 1.360 . S
C1380 C1378 1.417 . S
C1380 C1384 1.432 . S
H1381 C1386 0.930 . S
N1382 Tb1344 2.600 . S
N1382 C1384 1.359 . S
N1382 C1385 1.327 . S
C1383 H1369 0.931 . S
C1383 C1385 1.392 1_545 S
C1383 C1386 1.370 . S
C1384 C1380 1.432 . S
C1384 N1382 1.359 . S
C1384 C1387 1.414 1_565 S
C1385 H1367 0.930 . S
C1385 N1382 1.327 . S
C1385 C1383 1.392 1_565 S
C1386 H1381 0.930 . S
C1386 C1383 1.370 . S
C1386 C1387 1.385 . S
C1387 C1384 1.414 1_545 S
C1387 C1386 1.385 . S
C1387 C1409 1.444 . S
O1388 Tb1344 2.546 . S
O1388 C1408 1.251 . S
O1389 Tb1344 2.610 . S
O1389 Tb1355 2.362 . S
O1389 C1400 1.283 . S
O1390 Tb1355 2.421 . S
O1390 C1407 1.262 . S
O1391 Tb1344 2.320 . S
O1391 C1407 1.260 . S
O1392 Tb1344 2.552 . S
O1392 C1400 1.243 . S
O1393 Tb1344 2.413 . S
O1393 C1408 1.256 . S
O1394 Tb1355 2.546 1_545 S
O1394 C1419 1.251 . S
O1395 Tb1344 2.362 . S
O1395 Tb1355 2.610 . S
O1395 C1411 1.283 1_565 S
O1396 Tb1344 2.421 . S
O1396 C1418 1.262 1_565 S
O1397 Tb1355 2.320 1_545 S
O1397 C1418 1.260 . S
O1398 Tb1355 2.552 1_545 S
O1398 C1411 1.243 . S
O1399 Tb1355 2.413 1_545 S
O1399 C1419 1.256 . S
C1400 O1389 1.283 . S
C1400 O1392 1.243 . S
C1401 C1403 1.382 . S
C1401 C1405 1.393 . S
C1401 C1408 1.500 . S
C1402 C1403 1.400 . S
C1402 C1404 1.384 . S
C1403 C1401 1.382 . S
C1403 C1402 1.400 . S
C1403 H1420 0.930 . S
C1404 C1402 1.384 . S
C1404 C1406 1.392 . S
C1404 H1421 0.931 . S
C1405 C1401 1.393 . S
C1405 C1406 1.401 . S
C1405 H1422 0.930 . S
C1406 C1404 1.392 . S
C1406 C1405 1.401 . S
C1406 H1423 0.930 . S
C1407 O1390 1.262 . S
C1407 O1391 1.260 . S
C1408 Tb1344 2.833 . S
C1408 O1388 1.251 . S
C1408 O1393 1.256 . S
C1408 C1401 1.500 . S
C1409 H1374 0.929 . S
C1409 C1387 1.444 . S
C1409 C1410 1.317 . S
C1410 H1372 0.930 . S
C1410 C1378 1.432 1_545 S
C1410 C1409 1.317 . S
C1411 O1395 1.283 1_545 S
C1411 O1398 1.243 . S
C1412 C1413 1.382 . S
C1412 C1416 1.393 . S
C1412 C1419 1.500 . S
C1413 C1412 1.382 . S
C1413 C1414 1.400 . S
C1413 H1424 0.930 . S
C1414 C1413 1.400 . S
C1414 C1415 1.384 . S
C1415 C1414 1.384 . S
C1415 C1417 1.392 . S
C1415 H1425 0.931 . S
C1416 C1412 1.393 . S
C1416 C1417 1.401 . S
C1416 H1426 0.930 . S
C1417 C1415 1.392 . S
C1417 C1416 1.401 . S
C1417 H1427 0.930 . S
C1418 O1396 1.262 1_545 S
C1418 O1397 1.260 . S
C1419 Tb1355 2.833 1_545 S
C1419 O1394 1.251 . S
C1419 O1399 1.256 . S
C1419 C1412 1.500 . S
H1420 C1403 0.930 . S
H1421 C1404 0.931 . S
H1422 C1405 0.930 . S
H1423 C1406 0.930 . S
H1424 C1413 0.930 . S
H1425 C1415 0.931 . S
H1426 C1416 0.930 . S
H1427 C1417 0.930 . S
Tb1428 N1459 2.660 . S
Tb1428 N1466 2.600 . S
Tb1428 O1472 2.546 . S
Tb1428 O1473 2.610 . S
Tb1428 O1475 2.320 . S
Tb1428 O1476 2.552 . S
Tb1428 O1477 2.413 . S
Tb1428 O1479 2.362 . S
Tb1428 O1480 2.421 . S
Tb1428 C1492 2.833 . S
C1429 C1432 1.432 . S
C1429 C1433 1.414 . S
C1429 N1436 1.359 . S
C1430 C1432 1.417 . S
C1430 C1434 1.432 . S
C1430 C1442 1.410 . S
C1431 C1433 1.444 . S
C1431 C1434 1.317 . S
C1431 H1454 0.929 . S
C1432 C1429 1.432 . S
C1432 C1430 1.417 . S
C1432 N1440 1.360 . S
C1433 C1429 1.414 . S
C1433 C1431 1.444 . S
C1433 C1438 1.385 . S
C1434 C1430 1.432 . S
C1434 C1431 1.317 . S
C1434 H1446 0.930 . S
C1435 C1437 1.392 . S
C1435 C1438 1.370 . S
C1435 H1447 0.931 . S
N1436 C1429 1.359 . S
N1436 C1437 1.327 . S
N1436 Tb1439 2.600 . S
C1437 C1435 1.392 . S
C1437 N1436 1.327 . S
C1437 H1444 0.930 . S
C1438 C1433 1.385 . S
C1438 C1435 1.370 . S
C1438 H1457 0.930 . S
Tb1439 N1436 2.600 . S
Tb1439 N1440 2.660 . S
Tb1439 O1473 2.362 . S
Tb1439 O1474 2.421 . S
Tb1439 O1478 2.546 1_545 S
Tb1439 O1479 2.610 . S
Tb1439 O1481 2.320 1_545 S
Tb1439 O1482 2.552 1_545 S
Tb1439 O1483 2.413 1_545 S
Tb1439 C1503 2.833 1_545 S
N1440 C1432 1.360 . S
N1440 Tb1439 2.660 . S
N1440 C1441 1.305 . S
C1441 N1440 1.305 . S
C1441 C1443 1.407 . S
C1441 H1448 0.930 . S
C1442 C1430 1.410 . S
C1442 C1443 1.345 . S
C1442 H1450 0.930 . S
C1443 C1441 1.407 . S
C1443 C1442 1.345 . S
C1443 H1445 0.930 . S
H1444 C1437 0.930 . S
H1445 C1443 0.930 . S
H1446 C1434 0.930 . S
H1447 C1435 0.931 . S
H1448 C1441 0.930 . S
H1449 C1463 0.930 . S
H1450 C1442 0.930 . S
H1451 C1469 0.930 . S
H1452 C1460 0.930 . S
H1453 C1467 0.931 . S
H1454 C1431 0.929 . S
H1455 C1461 0.930 . S
H1456 C1494 0.930 . S
H1457 C1438 0.930 . S
H1458 C1493 0.929 . S
N1459 Tb1428 2.660 . S
N1459 C1460 1.305 . S
N1459 C1464 1.360 . S
C1460 H1452 0.930 . S
C1460 N1459 1.305 . S
C1460 C1463 1.407 . S
C1461 H1455 0.930 . S
C1461 C1462 1.410 . S
C1461 C1463 1.345 . S
C1462 C1461 1.410 . S
C1462 C1464 1.417 . S
C1462 C1494 1.432 1_545 S
C1463 H1449 0.930 . S
C1463 C1460 1.407 . S
C1463 C1461 1.345 . S
C1464 N1459 1.360 . S
C1464 C1462 1.417 . S
C1464 C1468 1.432 . S
H1465 C1470 0.930 . S
N1466 Tb1428 2.600 . S
N1466 C1468 1.359 . S
N1466 C1469 1.327 . S
C1467 H1453 0.931 . S
C1467 C1469 1.392 1_565 S
C1467 C1470 1.370 . S
C1468 C1464 1.432 . S
C1468 N1466 1.359 . S
C1468 C1471 1.414 1_545 S
C1469 H1451 0.930 . S
C1469 N1466 1.327 . S
C1469 C1467 1.392 1_545 S
C1470 H1465 0.930 . S
C1470 C1467 1.370 . S
C1470 C1471 1.385 . S
C1471 C1468 1.414 1_565 S
C1471 C1470 1.385 . S
C1471 C1493 1.444 . S
O1472 Tb1428 2.546 . S
O1472 C1492 1.251 . S
O1473 Tb1428 2.610 . S
O1473 Tb1439 2.362 . S
O1473 C1484 1.283 . S
O1474 Tb1439 2.421 . S
O1474 C1491 1.262 . S
O1475 Tb1428 2.320 . S
O1475 C1491 1.260 . S
O1476 Tb1428 2.552 . S
O1476 C1484 1.243 . S
O1477 Tb1428 2.413 . S
O1477 C1492 1.256 . S
O1478 Tb1439 2.546 1_565 S
O1478 C1503 1.251 . S
O1479 Tb1428 2.362 . S
O1479 Tb1439 2.610 . S
O1479 C1495 1.283 1_545 S
O1480 Tb1428 2.421 . S
O1480 C1502 1.262 1_545 S
O1481 Tb1439 2.320 1_565 S
O1481 C1502 1.260 . S
O1482 Tb1439 2.552 1_565 S
O1482 C1495 1.243 . S
O1483 Tb1439 2.413 1_565 S
O1483 C1503 1.256 . S
C1484 O1473 1.283 . S
C1484 O1476 1.243 . S
C1485 C1487 1.382 . S
C1485 C1489 1.393 . S
C1485 C1492 1.500 . S
C1486 C1487 1.400 . S
C1486 C1488 1.384 . S
C1487 C1485 1.382 . S
C1487 C1486 1.400 . S
C1487 H1504 0.930 . S
C1488 C1486 1.384 . S
C1488 C1490 1.392 . S
C1488 H1505 0.931 . S
C1489 C1485 1.393 . S
C1489 C1490 1.401 . S
C1489 H1506 0.930 . S
C1490 C1488 1.392 . S
C1490 C1489 1.401 . S
C1490 H1507 0.930 . S
C1491 O1474 1.262 . S
C1491 O1475 1.260 . S
C1492 Tb1428 2.833 . S
C1492 O1472 1.251 . S
C1492 O1477 1.256 . S
C1492 C1485 1.500 . S
C1493 H1458 0.929 . S
C1493 C1471 1.444 . S
C1493 C1494 1.317 . S
C1494 H1456 0.930 . S
C1494 C1462 1.432 1_565 S
C1494 C1493 1.317 . S
C1495 O1479 1.283 1_565 S
C1495 O1482 1.243 . S
C1496 C1497 1.382 . S
C1496 C1500 1.393 . S
C1496 C1503 1.500 . S
C1497 C1496 1.382 . S
C1497 C1498 1.400 . S
C1497 H1508 0.930 . S
C1498 C1497 1.400 . S
C1498 C1499 1.384 . S
C1499 C1498 1.384 . S
C1499 C1501 1.392 . S
C1499 H1509 0.931 . S
C1500 C1496 1.393 . S
C1500 C1501 1.401 . S
C1500 H1510 0.930 . S
C1501 C1499 1.392 . S
C1501 C1500 1.401 . S
C1501 H1511 0.930 . S
C1502 O1480 1.262 1_565 S
C1502 O1481 1.260 . S
C1503 Tb1439 2.833 1_565 S
C1503 O1478 1.251 . S
C1503 O1483 1.256 . S
C1503 C1496 1.500 . S
H1504 C1487 0.930 . S
H1505 C1488 0.931 . S
H1506 C1489 0.930 . S
H1507 C1490 0.930 . S
H1508 C1497 0.930 . S
H1509 C1499 0.931 . S
H1510 C1500 0.930 . S
H1511 C1501 0.930 . S
Tb1512 N1543 2.660 . S
Tb1512 N1550 2.600 . S
Tb1512 O1556 2.546 . S
Tb1512 O1557 2.610 . S
Tb1512 O1559 2.320 . S
Tb1512 O1560 2.552 . S
Tb1512 O1561 2.413 . S
Tb1512 O1563 2.362 . S
Tb1512 O1564 2.421 . S
Tb1512 C1576 2.833 . S
C1513 C1516 1.432 . S
C1513 C1517 1.414 . S
C1513 N1520 1.359 . S
C1514 C1516 1.417 . S
C1514 C1518 1.432 . S
C1514 C1526 1.410 . S
C1515 C1517 1.444 . S
C1515 C1518 1.317 . S
C1515 H1538 0.929 . S
C1516 C1513 1.432 . S
C1516 C1514 1.417 . S
C1516 N1524 1.360 . S
C1517 C1513 1.414 . S
C1517 C1515 1.444 . S
C1517 C1522 1.385 . S
C1518 C1514 1.432 . S
C1518 C1515 1.317 . S
C1518 H1530 0.930 . S
C1519 C1521 1.392 . S
C1519 C1522 1.370 . S
C1519 H1531 0.931 . S
N1520 C1513 1.359 . S
N1520 C1521 1.327 . S
N1520 Tb1523 2.600 . S
C1521 C1519 1.392 . S
C1521 N1520 1.327 . S
C1521 H1528 0.930 . S
C1522 C1517 1.385 . S
C1522 C1519 1.370 . S
C1522 H1541 0.930 . S
Tb1523 N1520 2.600 . S
Tb1523 N1524 2.660 . S
Tb1523 O1557 2.362 . S
Tb1523 O1558 2.421 . S
Tb1523 O1562 2.546 . S
Tb1523 O1563 2.610 . S
Tb1523 O1565 2.320 . S
Tb1523 O1566 2.552 . S
Tb1523 O1567 2.413 . S
Tb1523 C1587 2.833 . S
N1524 C1516 1.360 . S
N1524 Tb1523 2.660 . S
N1524 C1525 1.305 . S
C1525 N1524 1.305 . S
C1525 C1527 1.407 . S
C1525 H1532 0.930 . S
C1526 C1514 1.410 . S
C1526 C1527 1.345 . S
C1526 H1534 0.930 . S
C1527 C1525 1.407 . S
C1527 C1526 1.345 . S
C1527 H1529 0.930 . S
H1528 C1521 0.930 . S
H1529 C1527 0.930 . S
H1530 C1518 0.930 . S
H1531 C1519 0.931 . S
H1532 C1525 0.930 . S
H1533 C1547 0.930 . S
H1534 C1526 0.930 . S
H1535 C1553 0.930 . S
H1536 C1544 0.930 . S
H1537 C1551 0.931 . S
H1538 C1515 0.929 . S
H1539 C1545 0.930 . S
H1540 C1578 0.930 . S
H1541 C1522 0.930 . S
H1542 C1577 0.929 . S
N1543 Tb1512 2.660 . S
N1543 C1544 1.305 . S
N1543 C1548 1.360 . S
C1544 H1536 0.930 . S
C1544 N1543 1.305 . S
C1544 C1547 1.407 . S
C1545 H1539 0.930 . S
C1545 C1546 1.410 . S
C1545 C1547 1.345 . S
C1546 C1545 1.410 . S
C1546 C1548 1.417 . S
C1546 C1578 1.432 . S
C1547 H1533 0.930 . S
C1547 C1544 1.407 . S
C1547 C1545 1.345 . S
C1548 N1543 1.360 . S
C1548 C1546 1.417 . S
C1548 C1552 1.432 . S
H1549 C1554 0.930 . S
N1550 Tb1512 2.600 . S
N1550 C1552 1.359 . S
N1550 C1553 1.327 . S
C1551 H1537 0.931 . S
C1551 C1553 1.392 . S
C1551 C1554 1.370 . S
C1552 C1548 1.432 . S
C1552 N1550 1.359 . S
C1552 C1555 1.414 . S
C1553 H1535 0.930 . S
C1553 N1550 1.327 . S
C1553 C1551 1.392 . S
C1554 H1549 0.930 . S
C1554 C1551 1.370 . S
C1554 C1555 1.385 . S
C1555 C1552 1.414 . S
C1555 C1554 1.385 . S
C1555 C1577 1.444 . S
O1556 Tb1512 2.546 . S
O1556 C1576 1.251 . S
O1557 Tb1512 2.610 . S
O1557 Tb1523 2.362 . S
O1557 C1568 1.283 . S
O1558 Tb1523 2.421 . S
O1558 C1575 1.262 . S
O1559 Tb1512 2.320 . S
O1559 C1575 1.260 . S
O1560 Tb1512 2.552 . S
O1560 C1568 1.243 . S
O1561 Tb1512 2.413 . S
O1561 C1576 1.256 . S
O1562 Tb1523 2.546 . S
O1562 C1587 1.251 . S
O1563 Tb1512 2.362 . S
O1563 Tb1523 2.610 . S
O1563 C1579 1.283 . S
O1564 Tb1512 2.421 . S
O1564 C1586 1.262 . S
O1565 Tb1523 2.320 . S
O1565 C1586 1.260 . S
O1566 Tb1523 2.552 . S
O1566 C1579 1.243 . S
O1567 Tb1523 2.413 . S
O1567 C1587 1.256 . S
C1568 O1557 1.283 . S
C1568 O1560 1.243 . S
C1569 C1571 1.382 . S
C1569 C1573 1.393 . S
C1569 C1576 1.500 . S
C1570 C1571 1.400 . S
C1570 C1572 1.384 . S
C1571 C1569 1.382 . S
C1571 C1570 1.400 . S
C1571 H1588 0.930 . S
C1572 C1570 1.384 . S
C1572 C1574 1.392 . S
C1572 H1589 0.931 . S
C1573 C1569 1.393 . S
C1573 C1574 1.401 . S
C1573 H1590 0.930 . S
C1574 C1572 1.392 . S
C1574 C1573 1.401 . S
C1574 H1591 0.930 . S
C1575 O1558 1.262 . S
C1575 O1559 1.260 . S
C1576 Tb1512 2.833 . S
C1576 O1556 1.251 . S
C1576 O1561 1.256 . S
C1576 C1569 1.500 . S
C1577 H1542 0.929 . S
C1577 C1555 1.444 . S
C1577 C1578 1.317 . S
C1578 H1540 0.930 . S
C1578 C1546 1.432 . S
C1578 C1577 1.317 . S
C1579 O1563 1.283 . S
C1579 O1566 1.243 . S
C1580 C1581 1.382 . S
C1580 C1584 1.393 . S
C1580 C1587 1.500 . S
C1581 C1580 1.382 . S
C1581 C1582 1.400 . S
C1581 H1592 0.930 . S
C1582 C1581 1.400 . S
C1582 C1583 1.384 . S
C1583 C1582 1.384 . S
C1583 C1585 1.392 . S
C1583 H1593 0.931 . S
C1584 C1580 1.393 . S
C1584 C1585 1.401 . S
C1584 H1594 0.930 . S
C1585 C1583 1.392 . S
C1585 C1584 1.401 . S
C1585 H1595 0.930 . S
C1586 O1564 1.262 . S
C1586 O1565 1.260 . S
C1587 Tb1523 2.833 . S
C1587 O1562 1.251 . S
C1587 O1567 1.256 . S
C1587 C1580 1.500 . S
H1588 C1571 0.930 . S
H1589 C1572 0.931 . S
H1590 C1573 0.930 . S
H1591 C1574 0.930 . S
H1592 C1581 0.930 . S
H1593 C1583 0.931 . S
H1594 C1584 0.930 . S
H1595 C1585 0.930 . S
Tb1596 N1627 2.660 . S
Tb1596 N1634 2.600 . S
Tb1596 O1640 2.546 . S
Tb1596 O1641 2.610 . S
Tb1596 O1643 2.320 . S
Tb1596 O1644 2.552 . S
Tb1596 O1645 2.413 . S
Tb1596 O1647 2.362 . S
Tb1596 O1648 2.421 . S
Tb1596 C1660 2.833 . S
C1597 C1600 1.432 . S
C1597 C1601 1.414 . S
C1597 N1604 1.359 . S
C1598 C1600 1.417 . S
C1598 C1602 1.432 . S
C1598 C1610 1.410 . S
C1599 C1601 1.444 . S
C1599 C1602 1.317 . S
C1599 H1622 0.929 . S
C1600 C1597 1.432 . S
C1600 C1598 1.417 . S
C1600 N1608 1.360 . S
C1601 C1597 1.414 . S
C1601 C1599 1.444 . S
C1601 C1606 1.385 . S
C1602 C1598 1.432 . S
C1602 C1599 1.317 . S
C1602 H1614 0.930 . S
C1603 C1605 1.392 . S
C1603 C1606 1.370 . S
C1603 H1615 0.931 . S
N1604 C1597 1.359 . S
N1604 C1605 1.327 . S
N1604 Tb1607 2.600 . S
C1605 C1603 1.392 . S
C1605 N1604 1.327 . S
C1605 H1612 0.930 . S
C1606 C1601 1.385 . S
C1606 C1603 1.370 . S
C1606 H1625 0.930 . S
Tb1607 N1604 2.600 . S
Tb1607 N1608 2.660 . S
Tb1607 O1641 2.362 . S
Tb1607 O1642 2.421 . S
Tb1607 O1646 2.546 . S
Tb1607 O1647 2.610 . S
Tb1607 O1649 2.320 . S
Tb1607 O1650 2.552 . S
Tb1607 O1651 2.413 . S
Tb1607 C1671 2.833 . S
N1608 C1600 1.360 . S
N1608 Tb1607 2.660 . S
N1608 C1609 1.305 . S
C1609 N1608 1.305 . S
C1609 C1611 1.407 . S
C1609 H1616 0.930 . S
C1610 C1598 1.410 . S
C1610 C1611 1.345 . S
C1610 H1618 0.930 . S
C1611 C1609 1.407 . S
C1611 C1610 1.345 . S
C1611 H1613 0.930 . S
H1612 C1605 0.930 . S
H1613 C1611 0.930 . S
H1614 C1602 0.930 . S
H1615 C1603 0.931 . S
H1616 C1609 0.930 . S
H1617 C1631 0.930 . S
H1618 C1610 0.930 . S
H1619 C1637 0.930 . S
H1620 C1628 0.930 . S
H1621 C1635 0.931 . S
H1622 C1599 0.929 . S
H1623 C1629 0.930 . S
H1624 C1662 0.930 . S
H1625 C1606 0.930 . S
H1626 C1661 0.929 . S
N1627 Tb1596 2.660 . S
N1627 C1628 1.305 . S
N1627 C1632 1.360 . S
C1628 H1620 0.930 . S
C1628 N1627 1.305 . S
C1628 C1631 1.407 . S
C1629 H1623 0.930 . S
C1629 C1630 1.410 . S
C1629 C1631 1.345 . S
C1630 C1629 1.410 . S
C1630 C1632 1.417 . S
C1630 C1662 1.432 . S
C1631 H1617 0.930 . S
C1631 C1628 1.407 . S
C1631 C1629 1.345 . S
C1632 N1627 1.360 . S
C1632 C1630 1.417 . S
C1632 C1636 1.432 . S
H1633 C1638 0.930 . S
N1634 Tb1596 2.600 . S
N1634 C1636 1.359 . S
N1634 C1637 1.327 . S
C1635 H1621 0.931 . S
C1635 C1637 1.392 . S
C1635 C1638 1.370 . S
C1636 C1632 1.432 . S
C1636 N1634 1.359 . S
C1636 C1639 1.414 . S
C1637 H1619 0.930 . S
C1637 N1634 1.327 . S
C1637 C1635 1.392 . S
C1638 H1633 0.930 . S
C1638 C1635 1.370 . S
C1638 C1639 1.385 . S
C1639 C1636 1.414 . S
C1639 C1638 1.385 . S
C1639 C1661 1.444 . S
O1640 Tb1596 2.546 . S
O1640 C1660 1.251 . S
O1641 Tb1596 2.610 . S
O1641 Tb1607 2.362 . S
O1641 C1652 1.283 . S
O1642 Tb1607 2.421 . S
O1642 C1659 1.262 . S
O1643 Tb1596 2.320 . S
O1643 C1659 1.260 . S
O1644 Tb1596 2.552 . S
O1644 C1652 1.243 . S
O1645 Tb1596 2.413 . S
O1645 C1660 1.256 . S
O1646 Tb1607 2.546 . S
O1646 C1671 1.251 . S
O1647 Tb1596 2.362 . S
O1647 Tb1607 2.610 . S
O1647 C1663 1.283 . S
O1648 Tb1596 2.421 . S
O1648 C1670 1.262 . S
O1649 Tb1607 2.320 . S
O1649 C1670 1.260 . S
O1650 Tb1607 2.552 . S
O1650 C1663 1.243 . S
O1651 Tb1607 2.413 . S
O1651 C1671 1.256 . S
C1652 O1641 1.283 . S
C1652 O1644 1.243 . S
C1653 C1655 1.382 . S
C1653 C1657 1.393 . S
C1653 C1660 1.500 . S
C1654 C1655 1.400 . S
C1654 C1656 1.384 . S
C1655 C1653 1.382 . S
C1655 C1654 1.400 . S
C1655 H1672 0.930 . S
C1656 C1654 1.384 . S
C1656 C1658 1.392 . S
C1656 H1673 0.931 . S
C1657 C1653 1.393 . S
C1657 C1658 1.401 . S
C1657 H1674 0.930 . S
C1658 C1656 1.392 . S
C1658 C1657 1.401 . S
C1658 H1675 0.930 . S
C1659 O1642 1.262 . S
C1659 O1643 1.260 . S
C1660 Tb1596 2.833 . S
C1660 O1640 1.251 . S
C1660 O1645 1.256 . S
C1660 C1653 1.500 . S
C1661 H1626 0.929 . S
C1661 C1639 1.444 . S
C1661 C1662 1.317 . S
C1662 H1624 0.930 . S
C1662 C1630 1.432 . S
C1662 C1661 1.317 . S
C1663 O1647 1.283 . S
C1663 O1650 1.243 . S
C1664 C1665 1.382 . S
C1664 C1668 1.393 . S
C1664 C1671 1.500 . S
C1665 C1664 1.382 . S
C1665 C1666 1.400 . S
C1665 H1676 0.930 . S
C1666 C1665 1.400 . S
C1666 C1667 1.384 . S
C1667 C1666 1.384 . S
C1667 C1669 1.392 . S
C1667 H1677 0.931 . S
C1668 C1664 1.393 . S
C1668 C1669 1.401 . S
C1668 H1678 0.930 . S
C1669 C1667 1.392 . S
C1669 C1668 1.401 . S
C1669 H1679 0.930 . S
C1670 O1648 1.262 . S
C1670 O1649 1.260 . S
C1671 Tb1607 2.833 . S
C1671 O1646 1.251 . S
C1671 O1651 1.256 . S
C1671 C1664 1.500 . S
H1672 C1655 0.930 . S
H1673 C1656 0.931 . S
H1674 C1657 0.930 . S
H1675 C1658 0.930 . S
H1676 C1665 0.930 . S
H1677 C1667 0.931 . S
H1678 C1668 0.930 . S
H1679 C1669 0.930 . S
Tb1680 N1711 2.660 . S
Tb1680 N1718 2.600 . S
Tb1680 O1724 2.546 . S
Tb1680 O1725 2.610 . S
Tb1680 O1727 2.320 . S
Tb1680 O1728 2.552 . S
Tb1680 O1729 2.413 . S
Tb1680 O1731 2.362 . S
Tb1680 O1732 2.421 . S
Tb1680 C1744 2.833 . S
C1681 C1684 1.432 . S
C1681 C1685 1.414 . S
C1681 N1688 1.359 . S
C1682 C1684 1.417 . S
C1682 C1686 1.432 . S
C1682 C1694 1.410 . S
C1683 C1685 1.444 . S
C1683 C1686 1.317 . S
C1683 H1706 0.929 . S
C1684 C1681 1.432 . S
C1684 C1682 1.417 . S
C1684 N1692 1.360 . S
C1685 C1681 1.414 . S
C1685 C1683 1.444 . S
C1685 C1690 1.385 . S
C1686 C1682 1.432 . S
C1686 C1683 1.317 . S
C1686 H1698 0.930 . S
C1687 C1689 1.392 . S
C1687 C1690 1.370 . S
C1687 H1699 0.931 . S
N1688 C1681 1.359 . S
N1688 C1689 1.327 . S
N1688 Tb1691 2.600 . S
C1689 C1687 1.392 . S
C1689 N1688 1.327 . S
C1689 H1696 0.930 . S
C1690 C1685 1.385 . S
C1690 C1687 1.370 . S
C1690 H1709 0.930 . S
Tb1691 N1688 2.600 . S
Tb1691 N1692 2.660 . S
Tb1691 O1725 2.362 . S
Tb1691 O1726 2.421 . S
Tb1691 O1730 2.546 1_556 S
Tb1691 O1731 2.610 . S
Tb1691 O1733 2.320 1_556 S
Tb1691 O1734 2.552 1_556 S
Tb1691 O1735 2.413 1_556 S
Tb1691 C1755 2.833 1_556 S
N1692 C1684 1.360 . S
N1692 Tb1691 2.660 . S
N1692 C1693 1.305 . S
C1693 N1692 1.305 . S
C1693 C1695 1.407 . S
C1693 H1700 0.930 . S
C1694 C1682 1.410 . S
C1694 C1695 1.345 . S
C1694 H1702 0.930 . S
C1695 C1693 1.407 . S
C1695 C1694 1.345 . S
C1695 H1697 0.930 . S
H1696 C1689 0.930 . S
H1697 C1695 0.930 . S
H1698 C1686 0.930 . S
H1699 C1687 0.931 . S
H1700 C1693 0.930 . S
H1701 C1715 0.930 . S
H1702 C1694 0.930 . S
H1703 C1721 0.930 . S
H1704 C1712 0.930 . S
H1705 C1719 0.931 . S
H1706 C1683 0.929 . S
H1707 C1713 0.930 . S
H1708 C1746 0.930 . S
H1709 C1690 0.930 . S
H1710 C1745 0.929 . S
N1711 Tb1680 2.660 . S
N1711 C1712 1.305 . S
N1711 C1716 1.360 . S
C1712 H1704 0.930 . S
C1712 N1711 1.305 . S
C1712 C1715 1.407 . S
C1713 H1707 0.930 . S
C1713 C1714 1.410 . S
C1713 C1715 1.345 . S
C1714 C1713 1.410 . S
C1714 C1716 1.417 . S
C1714 C1746 1.432 1_556 S
C1715 H1701 0.930 . S
C1715 C1712 1.407 . S
C1715 C1713 1.345 . S
C1716 N1711 1.360 . S
C1716 C1714 1.417 . S
C1716 C1720 1.432 . S
H1717 C1722 0.930 . S
N1718 Tb1680 2.600 . S
N1718 C1720 1.359 . S
N1718 C1721 1.327 . S
C1719 H1705 0.931 . S
C1719 C1721 1.392 1_554 S
C1719 C1722 1.370 . S
C1720 C1716 1.432 . S
C1720 N1718 1.359 . S
C1720 C1723 1.414 1_556 S
C1721 H1703 0.930 . S
C1721 N1718 1.327 . S
C1721 C1719 1.392 1_556 S
C1722 H1717 0.930 . S
C1722 C1719 1.370 . S
C1722 C1723 1.385 . S
C1723 C1720 1.414 1_554 S
C1723 C1722 1.385 . S
C1723 C1745 1.444 . S
O1724 Tb1680 2.546 . S
O1724 C1744 1.251 . S
O1725 Tb1680 2.610 . S
O1725 Tb1691 2.362 . S
O1725 C1736 1.283 . S
O1726 Tb1691 2.421 . S
O1726 C1743 1.262 . S
O1727 Tb1680 2.320 . S
O1727 C1743 1.260 . S
O1728 Tb1680 2.552 . S
O1728 C1736 1.243 . S
O1729 Tb1680 2.413 . S
O1729 C1744 1.256 . S
O1730 Tb1691 2.546 1_554 S
O1730 C1755 1.251 . S
O1731 Tb1680 2.362 . S
O1731 Tb1691 2.610 . S
O1731 C1747 1.283 1_556 S
O1732 Tb1680 2.421 . S
O1732 C1754 1.262 1_556 S
O1733 Tb1691 2.320 1_554 S
O1733 C1754 1.260 . S
O1734 Tb1691 2.552 1_554 S
O1734 C1747 1.243 . S
O1735 Tb1691 2.413 1_554 S
O1735 C1755 1.256 . S
C1736 O1725 1.283 . S
C1736 O1728 1.243 . S
C1737 C1739 1.382 . S
C1737 C1741 1.393 . S
C1737 C1744 1.500 . S
C1738 C1739 1.400 . S
C1738 C1740 1.384 . S
C1739 C1737 1.382 . S
C1739 C1738 1.400 . S
C1739 H1756 0.930 . S
C1740 C1738 1.384 . S
C1740 C1742 1.392 . S
C1740 H1757 0.931 . S
C1741 C1737 1.393 . S
C1741 C1742 1.401 . S
C1741 H1758 0.930 . S
C1742 C1740 1.392 . S
C1742 C1741 1.401 . S
C1742 H1759 0.930 . S
C1743 O1726 1.262 . S
C1743 O1727 1.260 . S
C1744 Tb1680 2.833 . S
C1744 O1724 1.251 . S
C1744 O1729 1.256 . S
C1744 C1737 1.500 . S
C1745 H1710 0.929 . S
C1745 C1723 1.444 . S
C1745 C1746 1.317 . S
C1746 H1708 0.930 . S
C1746 C1714 1.432 1_554 S
C1746 C1745 1.317 . S
C1747 O1731 1.283 1_554 S
C1747 O1734 1.243 . S
C1748 C1749 1.382 . S
C1748 C1752 1.393 . S
C1748 C1755 1.500 . S
C1749 C1748 1.382 . S
C1749 C1750 1.400 . S
C1749 H1760 0.930 . S
C1750 C1749 1.400 . S
C1750 C1751 1.384 . S
C1751 C1750 1.384 . S
C1751 C1753 1.392 . S
C1751 H1761 0.931 . S
C1752 C1748 1.393 . S
C1752 C1753 1.401 . S
C1752 H1762 0.930 . S
C1753 C1751 1.392 . S
C1753 C1752 1.401 . S
C1753 H1763 0.930 . S
C1754 O1732 1.262 1_554 S
C1754 O1733 1.260 . S
C1755 Tb1691 2.833 1_554 S
C1755 O1730 1.251 . S
C1755 O1735 1.256 . S
C1755 C1748 1.500 . S
H1756 C1739 0.930 . S
H1757 C1740 0.931 . S
H1758 C1741 0.930 . S
H1759 C1742 0.930 . S
H1760 C1749 0.930 . S
H1761 C1751 0.931 . S
H1762 C1752 0.930 . S
H1763 C1753 0.930 . S
Tb1764 N1795 2.660 . S
Tb1764 N1802 2.600 . S
Tb1764 O1808 2.546 . S
Tb1764 O1809 2.610 . S
Tb1764 O1811 2.320 . S
Tb1764 O1812 2.552 . S
Tb1764 O1813 2.413 . S
Tb1764 O1815 2.362 . S
Tb1764 O1816 2.421 . S
Tb1764 C1828 2.833 . S
C1765 C1768 1.432 . S
C1765 C1769 1.414 . S
C1765 N1772 1.359 . S
C1766 C1768 1.417 . S
C1766 C1770 1.432 . S
C1766 C1778 1.410 . S
C1767 C1769 1.444 . S
C1767 C1770 1.317 . S
C1767 H1790 0.929 . S
C1768 C1765 1.432 . S
C1768 C1766 1.417 . S
C1768 N1776 1.360 . S
C1769 C1765 1.414 . S
C1769 C1767 1.444 . S
C1769 C1774 1.385 . S
C1770 C1766 1.432 . S
C1770 C1767 1.317 . S
C1770 H1782 0.930 . S
C1771 C1773 1.392 . S
C1771 C1774 1.370 . S
C1771 H1783 0.931 . S
N1772 C1765 1.359 . S
N1772 C1773 1.327 . S
N1772 Tb1775 2.600 . S
C1773 C1771 1.392 . S
C1773 N1772 1.327 . S
C1773 H1780 0.930 . S
C1774 C1769 1.385 . S
C1774 C1771 1.370 . S
C1774 H1793 0.930 . S
Tb1775 N1772 2.600 . S
Tb1775 N1776 2.660 . S
Tb1775 O1809 2.362 . S
Tb1775 O1810 2.421 . S
Tb1775 O1814 2.546 1_554 S
Tb1775 O1815 2.610 . S
Tb1775 O1817 2.320 1_554 S
Tb1775 O1818 2.552 1_554 S
Tb1775 O1819 2.413 1_554 S
Tb1775 C1839 2.833 1_554 S
N1776 C1768 1.360 . S
N1776 Tb1775 2.660 . S
N1776 C1777 1.305 . S
C1777 N1776 1.305 . S
C1777 C1779 1.407 . S
C1777 H1784 0.930 . S
C1778 C1766 1.410 . S
C1778 C1779 1.345 . S
C1778 H1786 0.930 . S
C1779 C1777 1.407 . S
C1779 C1778 1.345 . S
C1779 H1781 0.930 . S
H1780 C1773 0.930 . S
H1781 C1779 0.930 . S
H1782 C1770 0.930 . S
H1783 C1771 0.931 . S
H1784 C1777 0.930 . S
H1785 C1799 0.930 . S
H1786 C1778 0.930 . S
H1787 C1805 0.930 . S
H1788 C1796 0.930 . S
H1789 C1803 0.931 . S
H1790 C1767 0.929 . S
H1791 C1797 0.930 . S
H1792 C1830 0.930 . S
H1793 C1774 0.930 . S
H1794 C1829 0.929 . S
N1795 Tb1764 2.660 . S
N1795 C1796 1.305 . S
N1795 C1800 1.360 . S
C1796 H1788 0.930 . S
C1796 N1795 1.305 . S
C1796 C1799 1.407 . S
C1797 H1791 0.930 . S
C1797 C1798 1.410 . S
C1797 C1799 1.345 . S
C1798 C1797 1.410 . S
C1798 C1800 1.417 . S
C1798 C1830 1.432 1_554 S
C1799 H1785 0.930 . S
C1799 C1796 1.407 . S
C1799 C1797 1.345 . S
C1800 N1795 1.360 . S
C1800 C1798 1.417 . S
C1800 C1804 1.432 . S
H1801 C1806 0.930 . S
N1802 Tb1764 2.600 . S
N1802 C1804 1.359 . S
N1802 C1805 1.327 . S
C1803 H1789 0.931 . S
C1803 C1805 1.392 1_556 S
C1803 C1806 1.370 . S
C1804 C1800 1.432 . S
C1804 N1802 1.359 . S
C1804 C1807 1.414 1_554 S
C1805 H1787 0.930 . S
C1805 N1802 1.327 . S
C1805 C1803 1.392 1_554 S
C1806 H1801 0.930 . S
C1806 C1803 1.370 . S
C1806 C1807 1.385 . S
C1807 C1804 1.414 1_556 S
C1807 C1806 1.385 . S
C1807 C1829 1.444 . S
O1808 Tb1764 2.546 . S
O1808 C1828 1.251 . S
O1809 Tb1764 2.610 . S
O1809 Tb1775 2.362 . S
O1809 C1820 1.283 . S
O1810 Tb1775 2.421 . S
O1810 C1827 1.262 . S
O1811 Tb1764 2.320 . S
O1811 C1827 1.260 . S
O1812 Tb1764 2.552 . S
O1812 C1820 1.243 . S
O1813 Tb1764 2.413 . S
O1813 C1828 1.256 . S
O1814 Tb1775 2.546 1_556 S
O1814 C1839 1.251 . S
O1815 Tb1764 2.362 . S
O1815 Tb1775 2.610 . S
O1815 C1831 1.283 1_554 S
O1816 Tb1764 2.421 . S
O1816 C1838 1.262 1_554 S
O1817 Tb1775 2.320 1_556 S
O1817 C1838 1.260 . S
O1818 Tb1775 2.552 1_556 S
O1818 C1831 1.243 . S
O1819 Tb1775 2.413 1_556 S
O1819 C1839 1.256 . S
C1820 O1809 1.283 . S
C1820 O1812 1.243 . S
C1821 C1823 1.382 . S
C1821 C1825 1.393 . S
C1821 C1828 1.500 . S
C1822 C1823 1.400 . S
C1822 C1824 1.384 . S
C1823 C1821 1.382 . S
C1823 C1822 1.400 . S
C1823 H1840 0.930 . S
C1824 C1822 1.384 . S
C1824 C1826 1.392 . S
C1824 H1841 0.931 . S
C1825 C1821 1.393 . S
C1825 C1826 1.401 . S
C1825 H1842 0.930 . S
C1826 C1824 1.392 . S
C1826 C1825 1.401 . S
C1826 H1843 0.930 . S
C1827 O1810 1.262 . S
C1827 O1811 1.260 . S
C1828 Tb1764 2.833 . S
C1828 O1808 1.251 . S
C1828 O1813 1.256 . S
C1828 C1821 1.500 . S
C1829 H1794 0.929 . S
C1829 C1807 1.444 . S
C1829 C1830 1.317 . S
C1830 H1792 0.930 . S
C1830 C1798 1.432 1_556 S
C1830 C1829 1.317 . S
C1831 O1815 1.283 1_556 S
C1831 O1818 1.243 . S
C1832 C1833 1.382 . S
C1832 C1836 1.393 . S
C1832 C1839 1.500 . S
C1833 C1832 1.382 . S
C1833 C1834 1.400 . S
C1833 H1844 0.930 . S
C1834 C1833 1.400 . S
C1834 C1835 1.384 . S
C1835 C1834 1.384 . S
C1835 C1837 1.392 . S
C1835 H1845 0.931 . S
C1836 C1832 1.393 . S
C1836 C1837 1.401 . S
C1836 H1846 0.930 . S
C1837 C1835 1.392 . S
C1837 C1836 1.401 . S
C1837 H1847 0.930 . S
C1838 O1816 1.262 1_556 S
C1838 O1817 1.260 . S
C1839 Tb1775 2.833 1_556 S
C1839 O1814 1.251 . S
C1839 O1819 1.256 . S
C1839 C1832 1.500 . S
H1840 C1823 0.930 . S
H1841 C1824 0.931 . S
H1842 C1825 0.930 . S
H1843 C1826 0.930 . S
H1844 C1833 0.930 . S
H1845 C1835 0.931 . S
H1846 C1836 0.930 . S
H1847 C1837 0.930 . S
Tb1848 N1879 2.660 . S
Tb1848 N1886 2.600 . S
Tb1848 O1892 2.546 . S
Tb1848 O1893 2.610 . S
Tb1848 O1895 2.320 . S
Tb1848 O1896 2.552 . S
Tb1848 O1897 2.413 . S
Tb1848 O1899 2.362 . S
Tb1848 O1900 2.421 . S
Tb1848 C1912 2.833 . S
C1849 C1852 1.432 . S
C1849 C1853 1.414 . S
C1849 N1856 1.359 . S
C1850 C1852 1.417 . S
C1850 C1854 1.432 . S
C1850 C1862 1.410 . S
C1851 C1853 1.444 . S
C1851 C1854 1.317 . S
C1851 H1874 0.929 . S
C1852 C1849 1.432 . S
C1852 C1850 1.417 . S
C1852 N1860 1.360 . S
C1853 C1849 1.414 . S
C1853 C1851 1.444 . S
C1853 C1858 1.385 . S
C1854 C1850 1.432 . S
C1854 C1851 1.317 . S
C1854 H1866 0.930 . S
C1855 C1857 1.392 . S
C1855 C1858 1.370 . S
C1855 H1867 0.931 . S
N1856 C1849 1.359 . S
N1856 C1857 1.327 . S
N1856 Tb1859 2.600 . S
C1857 C1855 1.392 . S
C1857 N1856 1.327 . S
C1857 H1864 0.930 . S
C1858 C1853 1.385 . S
C1858 C1855 1.370 . S
C1858 H1877 0.930 . S
Tb1859 N1856 2.600 . S
Tb1859 N1860 2.660 . S
Tb1859 O1893 2.362 . S
Tb1859 O1894 2.421 . S
Tb1859 O1898 2.546 . S
Tb1859 O1899 2.610 . S
Tb1859 O1901 2.320 . S
Tb1859 O1902 2.552 . S
Tb1859 O1903 2.413 . S
Tb1859 C1923 2.833 . S
N1860 C1852 1.360 . S
N1860 Tb1859 2.660 . S
N1860 C1861 1.305 . S
C1861 N1860 1.305 . S
C1861 C1863 1.407 . S
C1861 H1868 0.930 . S
C1862 C1850 1.410 . S
C1862 C1863 1.345 . S
C1862 H1870 0.930 . S
C1863 C1861 1.407 . S
C1863 C1862 1.345 . S
C1863 H1865 0.930 . S
H1864 C1857 0.930 . S
H1865 C1863 0.930 . S
H1866 C1854 0.930 . S
H1867 C1855 0.931 . S
H1868 C1861 0.930 . S
H1869 C1883 0.930 . S
H1870 C1862 0.930 . S
H1871 C1889 0.930 . S
H1872 C1880 0.930 . S
H1873 C1887 0.931 . S
H1874 C1851 0.929 . S
H1875 C1881 0.930 . S
H1876 C1914 0.930 . S
H1877 C1858 0.930 . S
H1878 C1913 0.929 . S
N1879 Tb1848 2.660 . S
N1879 C1880 1.305 . S
N1879 C1884 1.360 . S
C1880 H1872 0.930 . S
C1880 N1879 1.305 . S
C1880 C1883 1.407 . S
C1881 H1875 0.930 . S
C1881 C1882 1.410 . S
C1881 C1883 1.345 . S
C1882 C1881 1.410 . S
C1882 C1884 1.417 . S
C1882 C1914 1.432 . S
C1883 H1869 0.930 . S
C1883 C1880 1.407 . S
C1883 C1881 1.345 . S
C1884 N1879 1.360 . S
C1884 C1882 1.417 . S
C1884 C1888 1.432 . S
H1885 C1890 0.930 . S
N1886 Tb1848 2.600 . S
N1886 C1888 1.359 . S
N1886 C1889 1.327 . S
C1887 H1873 0.931 . S
C1887 C1889 1.392 . S
C1887 C1890 1.370 . S
C1888 C1884 1.432 . S
C1888 N1886 1.359 . S
C1888 C1891 1.414 . S
C1889 H1871 0.930 . S
C1889 N1886 1.327 . S
C1889 C1887 1.392 . S
C1890 H1885 0.930 . S
C1890 C1887 1.370 . S
C1890 C1891 1.385 . S
C1891 C1888 1.414 . S
C1891 C1890 1.385 . S
C1891 C1913 1.444 . S
O1892 Tb1848 2.546 . S
O1892 C1912 1.251 . S
O1893 Tb1848 2.610 . S
O1893 Tb1859 2.362 . S
O1893 C1904 1.283 . S
O1894 Tb1859 2.421 . S
O1894 C1911 1.262 . S
O1895 Tb1848 2.320 . S
O1895 C1911 1.260 . S
O1896 Tb1848 2.552 . S
O1896 C1904 1.243 . S
O1897 Tb1848 2.413 . S
O1897 C1912 1.256 . S
O1898 Tb1859 2.546 . S
O1898 C1923 1.251 . S
O1899 Tb1848 2.362 . S
O1899 Tb1859 2.610 . S
O1899 C1915 1.283 . S
O1900 Tb1848 2.421 . S
O1900 C1922 1.262 . S
O1901 Tb1859 2.320 . S
O1901 C1922 1.260 . S
O1902 Tb1859 2.552 . S
O1902 C1915 1.243 . S
O1903 Tb1859 2.413 . S
O1903 C1923 1.256 . S
C1904 O1893 1.283 . S
C1904 O1896 1.243 . S
C1905 C1907 1.382 . S
C1905 C1909 1.393 . S
C1905 C1912 1.500 . S
C1906 C1907 1.400 . S
C1906 C1908 1.384 . S
C1907 C1905 1.382 . S
C1907 C1906 1.400 . S
C1907 H1924 0.930 . S
C1908 C1906 1.384 . S
C1908 C1910 1.392 . S
C1908 H1925 0.931 . S
C1909 C1905 1.393 . S
C1909 C1910 1.401 . S
C1909 H1926 0.930 . S
C1910 C1908 1.392 . S
C1910 C1909 1.401 . S
C1910 H1927 0.930 . S
C1911 O1894 1.262 . S
C1911 O1895 1.260 . S
C1912 Tb1848 2.833 . S
C1912 O1892 1.251 . S
C1912 O1897 1.256 . S
C1912 C1905 1.500 . S
C1913 H1878 0.929 . S
C1913 C1891 1.444 . S
C1913 C1914 1.317 . S
C1914 H1876 0.930 . S
C1914 C1882 1.432 . S
C1914 C1913 1.317 . S
C1915 O1899 1.283 . S
C1915 O1902 1.243 . S
C1916 C1917 1.382 . S
C1916 C1920 1.393 . S
C1916 C1923 1.500 . S
C1917 C1916 1.382 . S
C1917 C1918 1.400 . S
C1917 H1928 0.930 . S
C1918 C1917 1.400 . S
C1918 C1919 1.384 . S
C1919 C1918 1.384 . S
C1919 C1921 1.392 . S
C1919 H1929 0.931 . S
C1920 C1916 1.393 . S
C1920 C1921 1.401 . S
C1920 H1930 0.930 . S
C1921 C1919 1.392 . S
C1921 C1920 1.401 . S
C1921 H1931 0.930 . S
C1922 O1900 1.262 . S
C1922 O1901 1.260 . S
C1923 Tb1859 2.833 . S
C1923 O1898 1.251 . S
C1923 O1903 1.256 . S
C1923 C1916 1.500 . S
H1924 C1907 0.930 . S
H1925 C1908 0.931 . S
H1926 C1909 0.930 . S
H1927 C1910 0.930 . S
H1928 C1917 0.930 . S
H1929 C1919 0.931 . S
H1930 C1920 0.930 . S
H1931 C1921 0.930 . S
Tb1932 N1963 2.660 . S
Tb1932 N1970 2.600 . S
Tb1932 O1976 2.546 . S
Tb1932 O1977 2.610 . S
Tb1932 O1979 2.320 . S
Tb1932 O1980 2.552 . S
Tb1932 O1981 2.413 . S
Tb1932 O1983 2.362 . S
Tb1932 O1984 2.421 . S
Tb1932 C1996 2.833 . S
C1933 C1936 1.432 . S
C1933 C1937 1.414 . S
C1933 N1940 1.359 . S
C1934 C1936 1.417 . S
C1934 C1938 1.432 . S
C1934 C1946 1.410 . S
C1935 C1937 1.444 . S
C1935 C1938 1.317 . S
C1935 H1958 0.929 . S
C1936 C1933 1.432 . S
C1936 C1934 1.417 . S
C1936 N1944 1.360 . S
C1937 C1933 1.414 . S
C1937 C1935 1.444 . S
C1937 C1942 1.385 . S
C1938 C1934 1.432 . S
C1938 C1935 1.317 . S
C1938 H1950 0.930 . S
C1939 C1941 1.392 . S
C1939 C1942 1.370 . S
C1939 H1951 0.931 . S
N1940 C1933 1.359 . S
N1940 C1941 1.327 . S
N1940 Tb1943 2.600 . S
C1941 C1939 1.392 . S
C1941 N1940 1.327 . S
C1941 H1948 0.930 . S
C1942 C1937 1.385 . S
C1942 C1939 1.370 . S
C1942 H1961 0.930 . S
Tb1943 N1940 2.600 . S
Tb1943 N1944 2.660 . S
Tb1943 O1977 2.362 . S
Tb1943 O1978 2.421 . S
Tb1943 O1982 2.546 . S
Tb1943 O1983 2.610 . S
Tb1943 O1985 2.320 . S
Tb1943 O1986 2.552 . S
Tb1943 O1987 2.413 . S
Tb1943 C2007 2.833 . S
N1944 C1936 1.360 . S
N1944 Tb1943 2.660 . S
N1944 C1945 1.305 . S
C1945 N1944 1.305 . S
C1945 C1947 1.407 . S
C1945 H1952 0.930 . S
C1946 C1934 1.410 . S
C1946 C1947 1.345 . S
C1946 H1954 0.930 . S
C1947 C1945 1.407 . S
C1947 C1946 1.345 . S
C1947 H1949 0.930 . S
H1948 C1941 0.930 . S
H1949 C1947 0.930 . S
H1950 C1938 0.930 . S
H1951 C1939 0.931 . S
H1952 C1945 0.930 . S
H1953 C1967 0.930 . S
H1954 C1946 0.930 . S
H1955 C1973 0.930 . S
H1956 C1964 0.930 . S
H1957 C1971 0.931 . S
H1958 C1935 0.929 . S
H1959 C1965 0.930 . S
H1960 C1998 0.930 . S
H1961 C1942 0.930 . S
H1962 C1997 0.929 . S
N1963 Tb1932 2.660 . S
N1963 C1964 1.305 . S
N1963 C1968 1.360 . S
C1964 H1956 0.930 . S
C1964 N1963 1.305 . S
C1964 C1967 1.407 . S
C1965 H1959 0.930 . S
C1965 C1966 1.410 . S
C1965 C1967 1.345 . S
C1966 C1965 1.410 . S
C1966 C1968 1.417 . S
C1966 C1998 1.432 . S
C1967 H1953 0.930 . S
C1967 C1964 1.407 . S
C1967 C1965 1.345 . S
C1968 N1963 1.360 . S
C1968 C1966 1.417 . S
C1968 C1972 1.432 . S
H1969 C1974 0.930 . S
N1970 Tb1932 2.600 . S
N1970 C1972 1.359 . S
N1970 C1973 1.327 . S
C1971 H1957 0.931 . S
C1971 C1973 1.392 . S
C1971 C1974 1.370 . S
C1972 C1968 1.432 . S
C1972 N1970 1.359 . S
C1972 C1975 1.414 . S
C1973 H1955 0.930 . S
C1973 N1970 1.327 . S
C1973 C1971 1.392 . S
C1974 H1969 0.930 . S
C1974 C1971 1.370 . S
C1974 C1975 1.385 . S
C1975 C1972 1.414 . S
C1975 C1974 1.385 . S
C1975 C1997 1.444 . S
O1976 Tb1932 2.546 . S
O1976 C1996 1.251 . S
O1977 Tb1932 2.610 . S
O1977 Tb1943 2.362 . S
O1977 C1988 1.283 . S
O1978 Tb1943 2.421 . S
O1978 C1995 1.262 . S
O1979 Tb1932 2.320 . S
O1979 C1995 1.260 . S
O1980 Tb1932 2.552 . S
O1980 C1988 1.243 . S
O1981 Tb1932 2.413 . S
O1981 C1996 1.256 . S
O1982 Tb1943 2.546 . S
O1982 C2007 1.251 . S
O1983 Tb1932 2.362 . S
O1983 Tb1943 2.610 . S
O1983 C1999 1.283 . S
O1984 Tb1932 2.421 . S
O1984 C2006 1.262 . S
O1985 Tb1943 2.320 . S
O1985 C2006 1.260 . S
O1986 Tb1943 2.552 . S
O1986 C1999 1.243 . S
O1987 Tb1943 2.413 . S
O1987 C2007 1.256 . S
C1988 O1977 1.283 . S
C1988 O1980 1.243 . S
C1989 C1991 1.382 . S
C1989 C1993 1.393 . S
C1989 C1996 1.500 . S
C1990 C1991 1.400 . S
C1990 C1992 1.384 . S
C1991 C1989 1.382 . S
C1991 C1990 1.400 . S
C1991 H2008 0.930 . S
C1992 C1990 1.384 . S
C1992 C1994 1.392 . S
C1992 H2009 0.931 . S
C1993 C1989 1.393 . S
C1993 C1994 1.401 . S
C1993 H2010 0.930 . S
C1994 C1992 1.392 . S
C1994 C1993 1.401 . S
C1994 H2011 0.930 . S
C1995 O1978 1.262 . S
C1995 O1979 1.260 . S
C1996 Tb1932 2.833 . S
C1996 O1976 1.251 . S
C1996 O1981 1.256 . S
C1996 C1989 1.500 . S
C1997 H1962 0.929 . S
C1997 C1975 1.444 . S
C1997 C1998 1.317 . S
C1998 H1960 0.930 . S
C1998 C1966 1.432 . S
C1998 C1997 1.317 . S
C1999 O1983 1.283 . S
C1999 O1986 1.243 . S
C2000 C2001 1.382 . S
C2000 C2004 1.393 . S
C2000 C2007 1.500 . S
C2001 C2000 1.382 . S
C2001 C2002 1.400 . S
C2001 H2012 0.930 . S
C2002 C2001 1.400 . S
C2002 C2003 1.384 . S
C2003 C2002 1.384 . S
C2003 C2005 1.392 . S
C2003 H2013 0.931 . S
C2004 C2000 1.393 . S
C2004 C2005 1.401 . S
C2004 H2014 0.930 . S
C2005 C2003 1.392 . S
C2005 C2004 1.401 . S
C2005 H2015 0.930 . S
C2006 O1984 1.262 . S
C2006 O1985 1.260 . S
C2007 Tb1943 2.833 . S
C2007 O1982 1.251 . S
C2007 O1987 1.256 . S
C2007 C2000 1.500 . S
H2008 C1991 0.930 . S
H2009 C1992 0.931 . S
H2010 C1993 0.930 . S
H2011 C1994 0.930 . S
H2012 C2001 0.930 . S
H2013 C2003 0.931 . S
H2014 C2004 0.930 . S
H2015 C2005 0.930 . S
H2016 C2024 0.950 . S
H2017 C2029 0.950 . S
H2018 C2026 0.950 . S
H2019 C2028 0.950 . S
H2020 C2030 0.950 . S
H2021 C2032 0.950 . S
H2022 C2034 0.950 . S
H2023 C2035 0.950 . S
C2024 H2016 0.950 . S
C2024 C2025 1.386 . S
C2024 C2026 1.391 . S
C2025 C2024 1.386 . S
C2025 C2029 1.393 . S
C2026 H2018 0.950 . S
C2026 C2024 1.391 . S
C2026 C2027 1.400 . S
C2027 C2026 1.400 . S
C2027 C2028 1.398 . S
C2027 C2033 1.491 . S
C2028 H2019 0.950 . S
C2028 C2027 1.398 . S
C2028 C2029 1.391 . S
C2029 H2017 0.950 . S
C2029 C2025 1.393 . S
C2029 C2028 1.391 . S
C2030 H2020 0.950 . S
C2030 C2031 1.386 . S
C2030 C2032 1.391 . S
C2031 C2030 1.386 . S
C2031 C2035 1.393 . S
C2032 H2021 0.950 . S
C2032 C2030 1.391 . S
C2032 C2033 1.400 . S
C2033 C2027 1.491 . S
C2033 C2032 1.400 . S
C2033 C2034 1.398 . S
C2034 H2022 0.950 . S
C2034 C2033 1.398 . S
C2034 C2035 1.391 . S
C2035 H2023 0.950 . S
C2035 C2031 1.393 . S
C2035 C2034 1.391 . S
H2036 C2044 0.950 . S
H2037 C2049 0.950 . S
H2038 C2046 0.950 . S
H2039 C2048 0.950 . S
H2040 C2050 0.950 . S
H2041 C2052 0.950 . S
H2042 C2054 0.950 . S
H2043 C2055 0.950 . S
C2044 H2036 0.950 . S
C2044 C2045 1.386 . S
C2044 C2046 1.391 . S
C2045 C2044 1.386 . S
C2045 C2049 1.393 . S
C2046 H2038 0.950 . S
C2046 C2044 1.391 . S
C2046 C2047 1.400 . S
C2047 C2046 1.400 . S
C2047 C2048 1.398 . S
C2047 C2053 1.491 . S
C2048 H2039 0.950 . S
C2048 C2047 1.398 . S
C2048 C2049 1.391 . S
C2049 H2037 0.950 . S
C2049 C2045 1.393 . S
C2049 C2048 1.391 . S
C2050 H2040 0.950 . S
C2050 C2051 1.386 . S
C2050 C2052 1.391 . S
C2051 C2050 1.386 . S
C2051 C2055 1.393 . S
C2052 H2041 0.950 . S
C2052 C2050 1.391 . S
C2052 C2053 1.400 . S
C2053 C2047 1.491 . S
C2053 C2052 1.400 . S
C2053 C2054 1.398 . S
C2054 H2042 0.950 . S
C2054 C2053 1.398 . S
C2054 C2055 1.391 . S
C2055 H2043 0.950 . S
C2055 C2051 1.393 . S
C2055 C2054 1.391 . S
H2056 C2064 0.950 . S
H2057 C2069 0.950 . S
H2058 C2066 0.950 . S
H2059 C2068 0.950 . S
H2060 C2070 0.950 . S
H2061 C2072 0.950 . S
H2062 C2074 0.950 . S
H2063 C2075 0.950 . S
C2064 H2056 0.950 . S
C2064 C2065 1.386 . S
C2064 C2066 1.391 . S
C2065 C2064 1.386 . S
C2065 C2069 1.393 . S
C2066 H2058 0.950 . S
C2066 C2064 1.391 . S
C2066 C2067 1.400 . S
C2067 C2066 1.400 . S
C2067 C2068 1.398 . S
C2067 C2073 1.491 . S
C2068 H2059 0.950 . S
C2068 C2067 1.398 . S
C2068 C2069 1.391 . S
C2069 H2057 0.950 . S
C2069 C2065 1.393 . S
C2069 C2068 1.391 . S
C2070 H2060 0.950 . S
C2070 C2071 1.386 . S
C2070 C2072 1.391 . S
C2071 C2070 1.386 . S
C2071 C2075 1.393 . S
C2072 H2061 0.950 . S
C2072 C2070 1.391 . S
C2072 C2073 1.400 . S
C2073 C2067 1.491 . S
C2073 C2072 1.400 . S
C2073 C2074 1.398 . S
C2074 H2062 0.950 . S
C2074 C2073 1.398 . S
C2074 C2075 1.391 . S
C2075 H2063 0.950 . S
C2075 C2071 1.393 . S
C2075 C2074 1.391 . S
H2076 C2084 0.950 . S
H2077 C2089 0.950 . S
H2078 C2086 0.950 . S
H2079 C2088 0.950 . S
H2080 C2090 0.950 . S
H2081 C2092 0.950 . S
H2082 C2094 0.950 . S
H2083 C2095 0.950 . S
C2084 H2076 0.950 . S
C2084 C2085 1.386 . S
C2084 C2086 1.391 . S
C2085 C2084 1.386 . S
C2085 C2089 1.393 . S
C2086 H2078 0.950 . S
C2086 C2084 1.391 . S
C2086 C2087 1.400 . S
C2087 C2086 1.400 . S
C2087 C2088 1.398 . S
C2087 C2093 1.491 . S
C2088 H2079 0.950 . S
C2088 C2087 1.398 . S
C2088 C2089 1.391 . S
C2089 H2077 0.950 . S
C2089 C2085 1.393 . S
C2089 C2088 1.391 . S
C2090 H2080 0.950 . S
C2090 C2091 1.386 . S
C2090 C2092 1.391 . S
C2091 C2090 1.386 . S
C2091 C2095 1.393 . S
C2092 H2081 0.950 . S
C2092 C2090 1.391 . S
C2092 C2093 1.400 . S
C2093 C2087 1.491 . S
C2093 C2092 1.400 . S
C2093 C2094 1.398 . S
C2094 H2082 0.950 . S
C2094 C2093 1.398 . S
C2094 C2095 1.391 . S
C2095 H2083 0.950 . S
C2095 C2091 1.393 . S
C2095 C2094 1.391 . S
H2096 C2104 0.950 . S
H2097 C2109 0.950 . S
H2098 C2106 0.950 . S
H2099 C2108 0.950 . S
H2100 C2110 0.950 . S
H2101 C2112 0.950 . S
H2102 C2114 0.950 . S
H2103 C2115 0.950 . S
C2104 H2096 0.950 . S
C2104 C2105 1.386 . S
C2104 C2106 1.391 . S
C2105 C2104 1.386 . S
C2105 C2109 1.393 . S
C2106 H2098 0.950 . S
C2106 C2104 1.391 . S
C2106 C2107 1.400 . S
C2107 C2106 1.400 . S
C2107 C2108 1.398 . S
C2107 C2113 1.491 . S
C2108 H2099 0.950 . S
C2108 C2107 1.398 . S
C2108 C2109 1.391 . S
C2109 H2097 0.950 . S
C2109 C2105 1.393 . S
C2109 C2108 1.391 . S
C2110 H2100 0.950 . S
C2110 C2111 1.386 . S
C2110 C2112 1.391 . S
C2111 C2110 1.386 . S
C2111 C2115 1.393 . S
C2112 H2101 0.950 . S
C2112 C2110 1.391 . S
C2112 C2113 1.400 . S
C2113 C2107 1.491 . S
C2113 C2112 1.400 . S
C2113 C2114 1.398 . S
C2114 H2102 0.950 . S
C2114 C2113 1.398 . S
C2114 C2115 1.391 . S
C2115 H2103 0.950 . S
C2115 C2111 1.393 . S
C2115 C2114 1.391 . S
H2116 C2124 0.950 . S
H2117 C2129 0.950 . S
H2118 C2126 0.950 . S
H2119 C2128 0.950 . S
H2120 C2130 0.950 . S
H2121 C2132 0.950 . S
H2122 C2134 0.950 . S
H2123 C2135 0.950 . S
C2124 H2116 0.950 . S
C2124 C2125 1.386 . S
C2124 C2126 1.391 . S
C2125 C2124 1.386 . S
C2125 C2129 1.393 . S
C2126 H2118 0.950 . S
C2126 C2124 1.391 . S
C2126 C2127 1.400 . S
C2127 C2126 1.400 . S
C2127 C2128 1.398 . S
C2127 C2133 1.491 . S
C2128 H2119 0.950 . S
C2128 C2127 1.398 . S
C2128 C2129 1.391 . S
C2129 H2117 0.950 . S
C2129 C2125 1.393 . S
C2129 C2128 1.391 . S
C2130 H2120 0.950 . S
C2130 C2131 1.386 . S
C2130 C2132 1.391 . S
C2131 C2130 1.386 . S
C2131 C2135 1.393 . S
C2132 H2121 0.950 . S
C2132 C2130 1.391 . S
C2132 C2133 1.400 . S
C2133 C2127 1.491 . S
C2133 C2132 1.400 . S
C2133 C2134 1.398 . S
C2134 H2122 0.950 . S
C2134 C2133 1.398 . S
C2134 C2135 1.391 . S
C2135 H2123 0.950 . S
C2135 C2131 1.393 . S
C2135 C2134 1.391 . S
H2136 C2144 0.950 . S
H2137 C2149 0.950 . S
H2138 C2146 0.950 . S
H2139 C2148 0.950 . S
H2140 C2150 0.950 . S
H2141 C2152 0.950 . S
H2142 C2154 0.950 . S
H2143 C2155 0.950 . S
C2144 H2136 0.950 . S
C2144 C2145 1.386 . S
C2144 C2146 1.391 . S
C2145 C2144 1.386 . S
C2145 C2149 1.393 . S
C2146 H2138 0.950 . S
C2146 C2144 1.391 . S
C2146 C2147 1.400 . S
C2147 C2146 1.400 . S
C2147 C2148 1.398 . S
C2147 C2153 1.491 . S
C2148 H2139 0.950 . S
C2148 C2147 1.398 . S
C2148 C2149 1.391 . S
C2149 H2137 0.950 . S
C2149 C2145 1.393 . S
C2149 C2148 1.391 . S
C2150 H2140 0.950 . S
C2150 C2151 1.386 . S
C2150 C2152 1.391 . S
C2151 C2150 1.386 . S
C2151 C2155 1.393 . S
C2152 H2141 0.950 . S
C2152 C2150 1.391 . S
C2152 C2153 1.400 . S
C2153 C2147 1.491 . S
C2153 C2152 1.400 . S
C2153 C2154 1.398 . S
C2154 H2142 0.950 . S
C2154 C2153 1.398 . S
C2154 C2155 1.391 . S
C2155 H2143 0.950 . S
C2155 C2151 1.393 . S
C2155 C2154 1.391 . S
H2156 C2164 0.950 . S
H2157 C2169 0.950 . S
H2158 C2166 0.950 . S
H2159 C2168 0.950 . S
H2160 C2170 0.950 . S
H2161 C2172 0.950 . S
H2162 C2174 0.950 . S
H2163 C2175 0.950 . S
C2164 H2156 0.950 . S
C2164 C2165 1.386 . S
C2164 C2166 1.391 . S
C2165 C2164 1.386 . S
C2165 C2169 1.393 . S
C2166 H2158 0.950 . S
C2166 C2164 1.391 . S
C2166 C2167 1.400 . S
C2167 C2166 1.400 . S
C2167 C2168 1.398 . S
C2167 C2173 1.491 . S
C2168 H2159 0.950 . S
C2168 C2167 1.398 . S
C2168 C2169 1.391 . S
C2169 H2157 0.950 . S
C2169 C2165 1.393 . S
C2169 C2168 1.391 . S
C2170 H2160 0.950 . S
C2170 C2171 1.386 . S
C2170 C2172 1.391 . S
C2171 C2170 1.386 . S
C2171 C2175 1.393 . S
C2172 H2161 0.950 . S
C2172 C2170 1.391 . S
C2172 C2173 1.400 . S
C2173 C2167 1.491 . S
C2173 C2172 1.400 . S
C2173 C2174 1.398 . S
C2174 H2162 0.950 . S
C2174 C2173 1.398 . S
C2174 C2175 1.391 . S
C2175 H2163 0.950 . S
C2175 C2171 1.393 . S
C2175 C2174 1.391 . S
H2176 C2184 0.950 . S
H2177 C2189 0.950 . S
H2178 C2186 0.950 . S
H2179 C2188 0.950 . S
H2180 C2190 0.950 . S
H2181 C2192 0.950 . S
H2182 C2194 0.950 . S
H2183 C2195 0.950 . S
C2184 H2176 0.950 . S
C2184 C2185 1.386 . S
C2184 C2186 1.391 . S
C2185 C2184 1.386 . S
C2185 C2189 1.393 . S
C2186 H2178 0.950 . S
C2186 C2184 1.391 . S
C2186 C2187 1.400 . S
C2187 C2186 1.400 . S
C2187 C2188 1.398 . S
C2187 C2193 1.491 . S
C2188 H2179 0.950 . S
C2188 C2187 1.398 . S
C2188 C2189 1.391 . S
C2189 H2177 0.950 . S
C2189 C2185 1.393 . S
C2189 C2188 1.391 . S
C2190 H2180 0.950 . S
C2190 C2191 1.386 . S
C2190 C2192 1.391 . S
C2191 C2190 1.386 . S
C2191 C2195 1.393 . S
C2192 H2181 0.950 . S
C2192 C2190 1.391 . S
C2192 C2193 1.400 . S
C2193 C2187 1.491 . S
C2193 C2192 1.400 . S
C2193 C2194 1.398 . S
C2194 H2182 0.950 . S
C2194 C2193 1.398 . S
C2194 C2195 1.391 . S
C2195 H2183 0.950 . S
C2195 C2191 1.393 . S
C2195 C2194 1.391 . S
H2196 C2204 0.950 . S
H2197 C2209 0.950 . S
H2198 C2206 0.950 . S
H2199 C2208 0.950 . S
H2200 C2210 0.950 . S
H2201 C2212 0.950 . S
H2202 C2214 0.950 . S
H2203 C2215 0.950 . S
C2204 H2196 0.950 . S
C2204 C2205 1.386 . S
C2204 C2206 1.391 . S
C2205 C2204 1.386 . S
C2205 C2209 1.393 . S
C2206 H2198 0.950 . S
C2206 C2204 1.391 . S
C2206 C2207 1.400 . S
C2207 C2206 1.400 . S
C2207 C2208 1.398 . S
C2207 C2213 1.491 . S
C2208 H2199 0.950 . S
C2208 C2207 1.398 . S
C2208 C2209 1.391 . S
C2209 H2197 0.950 . S
C2209 C2205 1.393 . S
C2209 C2208 1.391 . S
C2210 H2200 0.950 . S
C2210 C2211 1.386 . S
C2210 C2212 1.391 . S
C2211 C2210 1.386 . S
C2211 C2215 1.393 . S
C2212 H2201 0.950 . S
C2212 C2210 1.391 . S
C2212 C2213 1.400 . S
C2213 C2207 1.491 . S
C2213 C2212 1.400 . S
C2213 C2214 1.398 . S
C2214 H2202 0.950 . S
C2214 C2213 1.398 . S
C2214 C2215 1.391 . S
C2215 H2203 0.950 . S
C2215 C2211 1.393 . S
C2215 C2214 1.391 . S
H2216 C2224 0.950 . S
H2217 C2229 0.950 . S
H2218 C2226 0.950 . S
H2219 C2228 0.950 . S
H2220 C2230 0.950 . S
H2221 C2232 0.950 . S
H2222 C2234 0.950 . S
H2223 C2235 0.950 . S
C2224 H2216 0.950 . S
C2224 C2225 1.386 . S
C2224 C2226 1.391 . S
C2225 C2224 1.386 . S
C2225 C2229 1.393 . S
C2226 H2218 0.950 . S
C2226 C2224 1.391 . S
C2226 C2227 1.400 . S
C2227 C2226 1.400 . S
C2227 C2228 1.398 . S
C2227 C2233 1.491 . S
C2228 H2219 0.950 . S
C2228 C2227 1.398 . S
C2228 C2229 1.391 . S
C2229 H2217 0.950 . S
C2229 C2225 1.393 . S
C2229 C2228 1.391 . S
C2230 H2220 0.950 . S
C2230 C2231 1.386 . S
C2230 C2232 1.391 . S
C2231 C2230 1.386 . S
C2231 C2235 1.393 . S
C2232 H2221 0.950 . S
C2232 C2230 1.391 . S
C2232 C2233 1.400 . S
C2233 C2227 1.491 . S
C2233 C2232 1.400 . S
C2233 C2234 1.398 . S
C2234 H2222 0.950 . S
C2234 C2233 1.398 . S
C2234 C2235 1.391 . S
C2235 H2223 0.950 . S
C2235 C2231 1.393 . S
C2235 C2234 1.391 . S
H2236 C2244 0.950 . S
H2237 C2249 0.950 . S
H2238 C2246 0.950 . S
H2239 C2248 0.950 . S
H2240 C2250 0.950 . S
H2241 C2252 0.950 . S
H2242 C2254 0.950 . S
H2243 C2255 0.950 . S
C2244 H2236 0.950 . S
C2244 C2245 1.386 . S
C2244 C2246 1.391 . S
C2245 C2244 1.386 . S
C2245 C2249 1.393 . S
C2246 H2238 0.950 . S
C2246 C2244 1.391 . S
C2246 C2247 1.400 . S
C2247 C2246 1.400 . S
C2247 C2248 1.398 . S
C2247 C2253 1.491 . S
C2248 H2239 0.950 . S
C2248 C2247 1.398 . S
C2248 C2249 1.391 . S
C2249 H2237 0.950 . S
C2249 C2245 1.393 . S
C2249 C2248 1.391 . S
C2250 H2240 0.950 . S
C2250 C2251 1.386 . S
C2250 C2252 1.391 . S
C2251 C2250 1.386 . S
C2251 C2255 1.393 . S
C2252 H2241 0.950 . S
C2252 C2250 1.391 . S
C2252 C2253 1.400 . S
C2253 C2247 1.491 . S
C2253 C2252 1.400 . S
C2253 C2254 1.398 . S
C2254 H2242 0.950 . S
C2254 C2253 1.398 . S
C2254 C2255 1.391 . S
C2255 H2243 0.950 . S
C2255 C2251 1.393 . S
C2255 C2254 1.391 . S
H2256 C2264 0.950 . S
H2257 C2269 0.950 . S
H2258 C2266 0.950 . S
H2259 C2268 0.950 . S
H2260 C2270 0.950 . S
H2261 C2272 0.950 . S
H2262 C2274 0.950 . S
H2263 C2275 0.950 . S
C2264 H2256 0.950 . S
C2264 C2265 1.386 . S
C2264 C2266 1.391 . S
C2265 C2264 1.386 . S
C2265 C2269 1.393 . S
C2266 H2258 0.950 . S
C2266 C2264 1.391 . S
C2266 C2267 1.400 . S
C2267 C2266 1.400 . S
C2267 C2268 1.398 . S
C2267 C2273 1.491 . S
C2268 H2259 0.950 . S
C2268 C2267 1.398 . S
C2268 C2269 1.391 . S
C2269 H2257 0.950 . S
C2269 C2265 1.393 . S
C2269 C2268 1.391 . S
C2270 H2260 0.950 . S
C2270 C2271 1.386 . S
C2270 C2272 1.391 . S
C2271 C2270 1.386 . S
C2271 C2275 1.393 . S
C2272 H2261 0.950 . S
C2272 C2270 1.391 . S
C2272 C2273 1.400 . S
C2273 C2267 1.491 . S
C2273 C2272 1.400 . S
C2273 C2274 1.398 . S
C2274 H2262 0.950 . S
C2274 C2273 1.398 . S
C2274 C2275 1.391 . S
C2275 H2263 0.950 . S
C2275 C2271 1.393 . S
C2275 C2274 1.391 . S
H2276 C2284 0.950 . S
H2277 C2289 0.950 . S
H2278 C2286 0.950 . S
H2279 C2288 0.950 . S
H2280 C2290 0.950 . S
H2281 C2292 0.950 . S
H2282 C2294 0.950 . S
H2283 C2295 0.950 . S
C2284 H2276 0.950 . S
C2284 C2285 1.386 . S
C2284 C2286 1.391 . S
C2285 C2284 1.386 . S
C2285 C2289 1.393 . S
C2286 H2278 0.950 . S
C2286 C2284 1.391 . S
C2286 C2287 1.400 . S
C2287 C2286 1.400 . S
C2287 C2288 1.398 . S
C2287 C2293 1.491 . S
C2288 H2279 0.950 . S
C2288 C2287 1.398 . S
C2288 C2289 1.391 . S
C2289 H2277 0.950 . S
C2289 C2285 1.393 . S
C2289 C2288 1.391 . S
C2290 H2280 0.950 . S
C2290 C2291 1.386 . S
C2290 C2292 1.391 . S
C2291 C2290 1.386 . S
C2291 C2295 1.393 . S
C2292 H2281 0.950 . S
C2292 C2290 1.391 . S
C2292 C2293 1.400 . S
C2293 C2287 1.491 . S
C2293 C2292 1.400 . S
C2293 C2294 1.398 . S
C2294 H2282 0.950 . S
C2294 C2293 1.398 . S
C2294 C2295 1.391 . S
C2295 H2283 0.950 . S
C2295 C2291 1.393 . S
C2295 C2294 1.391 . S
H2296 C2304 0.950 . S
H2297 C2309 0.950 . S
H2298 C2306 0.950 . S
H2299 C2308 0.950 . S
H2300 C2310 0.950 . S
H2301 C2312 0.950 . S
H2302 C2314 0.950 . S
H2303 C2315 0.950 . S
C2304 H2296 0.950 . S
C2304 C2305 1.386 . S
C2304 C2306 1.391 . S
C2305 C2304 1.386 . S
C2305 C2309 1.393 . S
C2306 H2298 0.950 . S
C2306 C2304 1.391 . S
C2306 C2307 1.400 . S
C2307 C2306 1.400 . S
C2307 C2308 1.398 . S
C2307 C2313 1.491 . S
C2308 H2299 0.950 . S
C2308 C2307 1.398 . S
C2308 C2309 1.391 . S
C2309 H2297 0.950 . S
C2309 C2305 1.393 . S
C2309 C2308 1.391 . S
C2310 H2300 0.950 . S
C2310 C2311 1.386 . S
C2310 C2312 1.391 . S
C2311 C2310 1.386 . S
C2311 C2315 1.393 . S
C2312 H2301 0.950 . S
C2312 C2310 1.391 . S
C2312 C2313 1.400 . S
C2313 C2307 1.491 . S
C2313 C2312 1.400 . S
C2313 C2314 1.398 . S
C2314 H2302 0.950 . S
C2314 C2313 1.398 . S
C2314 C2315 1.391 . S
C2315 H2303 0.950 . S
C2315 C2311 1.393 . S
C2315 C2314 1.391 . S
H2316 C2324 0.950 . S
H2317 C2329 0.950 . S
H2318 C2326 0.950 . S
H2319 C2328 0.950 . S
H2320 C2330 0.950 . S
H2321 C2332 0.950 . S
H2322 C2334 0.950 . S
H2323 C2335 0.950 . S
C2324 H2316 0.950 . S
C2324 C2325 1.386 . S
C2324 C2326 1.391 . S
C2325 C2324 1.386 . S
C2325 C2329 1.393 . S
C2326 H2318 0.950 . S
C2326 C2324 1.391 . S
C2326 C2327 1.400 . S
C2327 C2326 1.400 . S
C2327 C2328 1.398 . S
C2327 C2333 1.491 . S
C2328 H2319 0.950 . S
C2328 C2327 1.398 . S
C2328 C2329 1.391 . S
C2329 H2317 0.950 . S
C2329 C2325 1.393 . S
C2329 C2328 1.391 . S
C2330 H2320 0.950 . S
C2330 C2331 1.386 . S
C2330 C2332 1.391 . S
C2331 C2330 1.386 . S
C2331 C2335 1.393 . S
C2332 H2321 0.950 . S
C2332 C2330 1.391 . S
C2332 C2333 1.400 . S
C2333 C2327 1.491 . S
C2333 C2332 1.400 . S
C2333 C2334 1.398 . S
C2334 H2322 0.950 . S
C2334 C2333 1.398 . S
C2334 C2335 1.391 . S
C2335 H2323 0.950 . S
C2335 C2331 1.393 . S
C2335 C2334 1.391 . S
H2336 C2344 0.950 . S
H2337 C2349 0.950 . S
H2338 C2346 0.950 . S
H2339 C2348 0.950 . S
H2340 C2350 0.950 . S
H2341 C2352 0.950 . S
H2342 C2354 0.950 . S
H2343 C2355 0.950 . S
C2344 H2336 0.950 . S
C2344 C2345 1.386 . S
C2344 C2346 1.391 . S
C2345 C2344 1.386 . S
C2345 C2349 1.393 . S
C2346 H2338 0.950 . S
C2346 C2344 1.391 . S
C2346 C2347 1.400 . S
C2347 C2346 1.400 . S
C2347 C2348 1.398 . S
C2347 C2353 1.491 . S
C2348 H2339 0.950 . S
C2348 C2347 1.398 . S
C2348 C2349 1.391 . S
C2349 H2337 0.950 . S
C2349 C2345 1.393 . S
C2349 C2348 1.391 . S
C2350 H2340 0.950 . S
C2350 C2351 1.386 . S
C2350 C2352 1.391 . S
C2351 C2350 1.386 . S
C2351 C2355 1.393 . S
C2352 H2341 0.950 . S
C2352 C2350 1.391 . S
C2352 C2353 1.400 . S
C2353 C2347 1.491 . S
C2353 C2352 1.400 . S
C2353 C2354 1.398 . S
C2354 H2342 0.950 . S
C2354 C2353 1.398 . S
C2354 C2355 1.391 . S
C2355 H2343 0.950 . S
C2355 C2351 1.393 . S
C2355 C2354 1.391 . S
H2356 C2364 0.950 . S
H2357 C2369 0.950 . S
H2358 C2366 0.950 . S
H2359 C2368 0.950 . S
H2360 C2370 0.950 . S
H2361 C2372 0.950 . S
H2362 C2374 0.950 . S
H2363 C2375 0.950 . S
C2364 H2356 0.950 . S
C2364 C2365 1.386 . S
C2364 C2366 1.391 . S
C2365 C2364 1.386 . S
C2365 C2369 1.393 . S
C2366 H2358 0.950 . S
C2366 C2364 1.391 . S
C2366 C2367 1.400 . S
C2367 C2366 1.400 . S
C2367 C2368 1.398 . S
C2367 C2373 1.491 . S
C2368 H2359 0.950 . S
C2368 C2367 1.398 . S
C2368 C2369 1.391 . S
C2369 H2357 0.950 . S
C2369 C2365 1.393 . S
C2369 C2368 1.391 . S
C2370 H2360 0.950 . S
C2370 C2371 1.386 . S
C2370 C2372 1.391 . S
C2371 C2370 1.386 . S
C2371 C2375 1.393 . S
C2372 H2361 0.950 . S
C2372 C2370 1.391 . S
C2372 C2373 1.400 . S
C2373 C2367 1.491 . S
C2373 C2372 1.400 . S
C2373 C2374 1.398 . S
C2374 H2362 0.950 . S
C2374 C2373 1.398 . S
C2374 C2375 1.391 . S
C2375 H2363 0.950 . S
C2375 C2371 1.393 . S
C2375 C2374 1.391 . S
H2376 C2384 0.950 . S
H2377 C2389 0.950 . S
H2378 C2386 0.950 . S
H2379 C2388 0.950 . S
H2380 C2390 0.950 . S
H2381 C2392 0.950 . S
H2382 C2394 0.950 . S
H2383 C2395 0.950 . S
C2384 H2376 0.950 . S
C2384 C2385 1.386 . S
C2384 C2386 1.391 . S
C2385 C2384 1.386 . S
C2385 C2389 1.393 . S
C2386 H2378 0.950 . S
C2386 C2384 1.391 . S
C2386 C2387 1.400 . S
C2387 C2386 1.400 . S
C2387 C2388 1.398 . S
C2387 C2393 1.491 . S
C2388 H2379 0.950 . S
C2388 C2387 1.398 . S
C2388 C2389 1.391 . S
C2389 H2377 0.950 . S
C2389 C2385 1.393 . S
C2389 C2388 1.391 . S
C2390 H2380 0.950 . S
C2390 C2391 1.386 . S
C2390 C2392 1.391 . S
C2391 C2390 1.386 . S
C2391 C2395 1.393 . S
C2392 H2381 0.950 . S
C2392 C2390 1.391 . S
C2392 C2393 1.400 . S
C2393 C2387 1.491 . S
C2393 C2392 1.400 . S
C2393 C2394 1.398 . S
C2394 H2382 0.950 . S
C2394 C2393 1.398 . S
C2394 C2395 1.391 . S
C2395 H2383 0.950 . S
C2395 C2391 1.393 . S
C2395 C2394 1.391 . S
H2396 C2404 0.950 . S
H2397 C2409 0.950 . S
H2398 C2406 0.950 . S
H2399 C2408 0.950 . S
H2400 C2410 0.950 . S
H2401 C2412 0.950 . S
H2402 C2414 0.950 . S
H2403 C2415 0.950 . S
C2404 H2396 0.950 . S
C2404 C2405 1.386 . S
C2404 C2406 1.391 . S
C2405 C2404 1.386 . S
C2405 C2409 1.393 . S
C2406 H2398 0.950 . S
C2406 C2404 1.391 . S
C2406 C2407 1.400 . S
C2407 C2406 1.400 . S
C2407 C2408 1.398 . S
C2407 C2413 1.491 . S
C2408 H2399 0.950 . S
C2408 C2407 1.398 . S
C2408 C2409 1.391 . S
C2409 H2397 0.950 . S
C2409 C2405 1.393 . S
C2409 C2408 1.391 . S
C2410 H2400 0.950 . S
C2410 C2411 1.386 . S
C2410 C2412 1.391 . S
C2411 C2410 1.386 . S
C2411 C2415 1.393 . S
C2412 H2401 0.950 . S
C2412 C2410 1.391 . S
C2412 C2413 1.400 . S
C2413 C2407 1.491 . S
C2413 C2412 1.400 . S
C2413 C2414 1.398 . S
C2414 H2402 0.950 . S
C2414 C2413 1.398 . S
C2414 C2415 1.391 . S
C2415 H2403 0.950 . S
C2415 C2411 1.393 . S
C2415 C2414 1.391 . S
H2416 C2424 0.950 . S
H2417 C2429 0.950 . S
H2418 C2426 0.950 . S
H2419 C2428 0.950 . S
H2420 C2430 0.950 . S
H2421 C2432 0.950 . S
H2422 C2434 0.950 . S
H2423 C2435 0.950 . S
C2424 H2416 0.950 . S
C2424 C2425 1.386 . S
C2424 C2426 1.391 . S
C2425 C2424 1.386 . S
C2425 C2429 1.393 . S
C2426 H2418 0.950 . S
C2426 C2424 1.391 . S
C2426 C2427 1.400 . S
C2427 C2426 1.400 . S
C2427 C2428 1.398 . S
C2427 C2433 1.491 . S
C2428 H2419 0.950 . S
C2428 C2427 1.398 . S
C2428 C2429 1.391 . S
C2429 H2417 0.950 . S
C2429 C2425 1.393 . S
C2429 C2428 1.391 . S
C2430 H2420 0.950 . S
C2430 C2431 1.386 . S
C2430 C2432 1.391 . S
C2431 C2430 1.386 . S
C2431 C2435 1.393 . S
C2432 H2421 0.950 . S
C2432 C2430 1.391 . S
C2432 C2433 1.400 . S
C2433 C2427 1.491 . S
C2433 C2432 1.400 . S
C2433 C2434 1.398 . S
C2434 H2422 0.950 . S
C2434 C2433 1.398 . S
C2434 C2435 1.391 . S
C2435 H2423 0.950 . S
C2435 C2431 1.393 . S
C2435 C2434 1.391 . S
H2436 C2444 0.950 . S
H2437 C2449 0.950 . S
H2438 C2446 0.950 . S
H2439 C2448 0.950 . S
H2440 C2450 0.950 . S
H2441 C2452 0.950 . S
H2442 C2454 0.950 . S
H2443 C2455 0.950 . S
C2444 H2436 0.950 . S
C2444 C2445 1.386 . S
C2444 C2446 1.391 . S
C2445 C2444 1.386 . S
C2445 C2449 1.393 . S
C2446 H2438 0.950 . S
C2446 C2444 1.391 . S
C2446 C2447 1.400 . S
C2447 C2446 1.400 . S
C2447 C2448 1.398 . S
C2447 C2453 1.491 . S
C2448 H2439 0.950 . S
C2448 C2447 1.398 . S
C2448 C2449 1.391 . S
C2449 H2437 0.950 . S
C2449 C2445 1.393 . S
C2449 C2448 1.391 . S
C2450 H2440 0.950 . S
C2450 C2451 1.386 . S
C2450 C2452 1.391 . S
C2451 C2450 1.386 . S
C2451 C2455 1.393 . S
C2452 H2441 0.950 . S
C2452 C2450 1.391 . S
C2452 C2453 1.400 . S
C2453 C2447 1.491 . S
C2453 C2452 1.400 . S
C2453 C2454 1.398 . S
C2454 H2442 0.950 . S
C2454 C2453 1.398 . S
C2454 C2455 1.391 . S
C2455 H2443 0.950 . S
C2455 C2451 1.393 . S
C2455 C2454 1.391 . S
H2456 C2464 0.950 . S
H2457 C2469 0.950 . S
H2458 C2466 0.950 . S
H2459 C2468 0.950 . S
H2460 C2470 0.950 . S
H2461 C2472 0.950 . S
H2462 C2474 0.950 . S
H2463 C2475 0.950 . S
C2464 H2456 0.950 . S
C2464 C2465 1.386 . S
C2464 C2466 1.391 . S
C2465 C2464 1.386 . S
C2465 C2469 1.393 . S
C2466 H2458 0.950 . S
C2466 C2464 1.391 . S
C2466 C2467 1.400 . S
C2467 C2466 1.400 . S
C2467 C2468 1.398 . S
C2467 C2473 1.491 . S
C2468 H2459 0.950 . S
C2468 C2467 1.398 . S
C2468 C2469 1.391 . S
C2469 H2457 0.950 . S
C2469 C2465 1.393 . S
C2469 C2468 1.391 . S
C2470 H2460 0.950 . S
C2470 C2471 1.386 . S
C2470 C2472 1.391 . S
C2471 C2470 1.386 . S
C2471 C2475 1.393 . S
C2472 H2461 0.950 . S
C2472 C2470 1.391 . S
C2472 C2473 1.400 . S
C2473 C2467 1.491 . S
C2473 C2472 1.400 . S
C2473 C2474 1.398 . S
C2474 H2462 0.950 . S
C2474 C2473 1.398 . S
C2474 C2475 1.391 . S
C2475 H2463 0.950 . S
C2475 C2471 1.393 . S
C2475 C2474 1.391 . S
H2476 C2484 0.950 . S
H2477 C2489 0.950 . S
H2478 C2486 0.950 . S
H2479 C2488 0.950 . S
H2480 C2490 0.950 . S
H2481 C2492 0.950 . S
H2482 C2494 0.950 . S
H2483 C2495 0.950 . S
C2484 H2476 0.950 . S
C2484 C2485 1.386 . S
C2484 C2486 1.391 . S
C2485 C2484 1.386 . S
C2485 C2489 1.393 . S
C2486 H2478 0.950 . S
C2486 C2484 1.391 . S
C2486 C2487 1.400 . S
C2487 C2486 1.400 . S
C2487 C2488 1.398 . S
C2487 C2493 1.491 . S
C2488 H2479 0.950 . S
C2488 C2487 1.398 . S
C2488 C2489 1.391 . S
C2489 H2477 0.950 . S
C2489 C2485 1.393 . S
C2489 C2488 1.391 . S
C2490 H2480 0.950 . S
C2490 C2491 1.386 . S
C2490 C2492 1.391 . S
C2491 C2490 1.386 . S
C2491 C2495 1.393 . S
C2492 H2481 0.950 . S
C2492 C2490 1.391 . S
C2492 C2493 1.400 . S
C2493 C2487 1.491 . S
C2493 C2492 1.400 . S
C2493 C2494 1.398 . S
C2494 H2482 0.950 . S
C2494 C2493 1.398 . S
C2494 C2495 1.391 . S
C2495 H2483 0.950 . S
C2495 C2491 1.393 . S
C2495 C2494 1.391 . S
H2496 C2504 0.950 . S
H2497 C2509 0.950 . S
H2498 C2506 0.950 . S
H2499 C2508 0.950 . S
H2500 C2510 0.950 . S
H2501 C2512 0.950 . S
H2502 C2514 0.950 . S
H2503 C2515 0.950 . S
C2504 H2496 0.950 . S
C2504 C2505 1.386 . S
C2504 C2506 1.391 . S
C2505 C2504 1.386 . S
C2505 C2509 1.393 . S
C2506 H2498 0.950 . S
C2506 C2504 1.391 . S
C2506 C2507 1.400 . S
C2507 C2506 1.400 . S
C2507 C2508 1.398 . S
C2507 C2513 1.491 . S
C2508 H2499 0.950 . S
C2508 C2507 1.398 . S
C2508 C2509 1.391 . S
C2509 H2497 0.950 . S
C2509 C2505 1.393 . S
C2509 C2508 1.391 . S
C2510 H2500 0.950 . S
C2510 C2511 1.386 . S
C2510 C2512 1.391 . S
C2511 C2510 1.386 . S
C2511 C2515 1.393 . S
C2512 H2501 0.950 . S
C2512 C2510 1.391 . S
C2512 C2513 1.400 . S
C2513 C2507 1.491 . S
C2513 C2512 1.400 . S
C2513 C2514 1.398 . S
C2514 H2502 0.950 . S
C2514 C2513 1.398 . S
C2514 C2515 1.391 . S
C2515 H2503 0.950 . S
C2515 C2511 1.393 . S
C2515 C2514 1.391 . S
H2516 C2524 0.950 . S
H2517 C2529 0.950 . S
H2518 C2526 0.950 . S
H2519 C2528 0.950 . S
H2520 C2530 0.950 . S
H2521 C2532 0.950 . S
H2522 C2534 0.950 . S
H2523 C2535 0.950 . S
C2524 H2516 0.950 . S
C2524 C2525 1.386 . S
C2524 C2526 1.391 . S
C2525 C2524 1.386 . S
C2525 C2529 1.393 . S
C2526 H2518 0.950 . S
C2526 C2524 1.391 . S
C2526 C2527 1.400 . S
C2527 C2526 1.400 . S
C2527 C2528 1.398 . S
C2527 C2533 1.491 . S
C2528 H2519 0.950 . S
C2528 C2527 1.398 . S
C2528 C2529 1.391 . S
C2529 H2517 0.950 . S
C2529 C2525 1.393 . S
C2529 C2528 1.391 . S
C2530 H2520 0.950 . S
C2530 C2531 1.386 . S
C2530 C2532 1.391 . S
C2531 C2530 1.386 . S
C2531 C2535 1.393 . S
C2532 H2521 0.950 . S
C2532 C2530 1.391 . S
C2532 C2533 1.400 . S
C2533 C2527 1.491 . S
C2533 C2532 1.400 . S
C2533 C2534 1.398 . S
C2534 H2522 0.950 . S
C2534 C2533 1.398 . S
C2534 C2535 1.391 . S
C2535 H2523 0.950 . S
C2535 C2531 1.393 . S
C2535 C2534 1.391 . S
H2536 C2544 0.950 . S
H2537 C2549 0.950 . S
H2538 C2546 0.950 . S
H2539 C2548 0.950 . S
H2540 C2550 0.950 . S
H2541 C2552 0.950 . S
H2542 C2554 0.950 . S
H2543 C2555 0.950 . S
C2544 H2536 0.950 . S
C2544 C2545 1.386 . S
C2544 C2546 1.391 . S
C2545 C2544 1.386 . S
C2545 C2549 1.393 . S
C2546 H2538 0.950 . S
C2546 C2544 1.391 . S
C2546 C2547 1.400 . S
C2547 C2546 1.400 . S
C2547 C2548 1.398 . S
C2547 C2553 1.491 . S
C2548 H2539 0.950 . S
C2548 C2547 1.398 . S
C2548 C2549 1.391 . S
C2549 H2537 0.950 . S
C2549 C2545 1.393 . S
C2549 C2548 1.391 . S
C2550 H2540 0.950 . S
C2550 C2551 1.386 . S
C2550 C2552 1.391 . S
C2551 C2550 1.386 . S
C2551 C2555 1.393 . S
C2552 H2541 0.950 . S
C2552 C2550 1.391 . S
C2552 C2553 1.400 . S
C2553 C2547 1.491 . S
C2553 C2552 1.400 . S
C2553 C2554 1.398 . S
C2554 H2542 0.950 . S
C2554 C2553 1.398 . S
C2554 C2555 1.391 . S
C2555 H2543 0.950 . S
C2555 C2551 1.393 . S
C2555 C2554 1.391 . S
H2556 C2564 0.950 . S
H2557 C2569 0.950 . S
H2558 C2566 0.950 . S
H2559 C2568 0.950 . S
H2560 C2570 0.950 . S
H2561 C2572 0.950 . S
H2562 C2574 0.950 . S
H2563 C2575 0.950 . S
C2564 H2556 0.950 . S
C2564 C2565 1.386 . S
C2564 C2566 1.391 . S
C2565 C2564 1.386 . S
C2565 C2569 1.393 . S
C2566 H2558 0.950 . S
C2566 C2564 1.391 . S
C2566 C2567 1.400 . S
C2567 C2566 1.400 . S
C2567 C2568 1.398 . S
C2567 C2573 1.491 . S
C2568 H2559 0.950 . S
C2568 C2567 1.398 . S
C2568 C2569 1.391 . S
C2569 H2557 0.950 . S
C2569 C2565 1.393 . S
C2569 C2568 1.391 . S
C2570 H2560 0.950 . S
C2570 C2571 1.386 . S
C2570 C2572 1.391 . S
C2571 C2570 1.386 . S
C2571 C2575 1.393 . S
C2572 H2561 0.950 . S
C2572 C2570 1.391 . S
C2572 C2573 1.400 . S
C2573 C2567 1.491 . S
C2573 C2572 1.400 . S
C2573 C2574 1.398 . S
C2574 H2562 0.950 . S
C2574 C2573 1.398 . S
C2574 C2575 1.391 . S
C2575 H2563 0.950 . S
C2575 C2571 1.393 . S
C2575 C2574 1.391 . S
H2576 C2584 0.950 . S
H2577 C2589 0.950 . S
H2578 C2586 0.950 . S
H2579 C2588 0.950 . S
H2580 C2590 0.950 . S
H2581 C2592 0.950 . S
H2582 C2594 0.950 . S
H2583 C2595 0.950 . S
C2584 H2576 0.950 . S
C2584 C2585 1.386 . S
C2584 C2586 1.391 . S
C2585 C2584 1.386 . S
C2585 C2589 1.393 . S
C2586 H2578 0.950 . S
C2586 C2584 1.391 . S
C2586 C2587 1.400 . S
C2587 C2586 1.400 . S
C2587 C2588 1.398 . S
C2587 C2593 1.491 . S
C2588 H2579 0.950 . S
C2588 C2587 1.398 . S
C2588 C2589 1.391 . S
C2589 H2577 0.950 . S
C2589 C2585 1.393 . S
C2589 C2588 1.391 . S
C2590 H2580 0.950 . S
C2590 C2591 1.386 . S
C2590 C2592 1.391 . S
C2591 C2590 1.386 . S
C2591 C2595 1.393 . S
C2592 H2581 0.950 . S
C2592 C2590 1.391 . S
C2592 C2593 1.400 . S
C2593 C2587 1.491 . S
C2593 C2592 1.400 . S
C2593 C2594 1.398 . S
C2594 H2582 0.950 . S
C2594 C2593 1.398 . S
C2594 C2595 1.391 . S
C2595 H2583 0.950 . S
C2595 C2591 1.393 . S
C2595 C2594 1.391 . S
H2596 C2604 0.950 . S
H2597 C2609 0.950 . S
H2598 C2606 0.950 . S
H2599 C2608 0.950 . S
H2600 C2610 0.950 . S
H2601 C2612 0.950 . S
H2602 C2614 0.950 . S
H2603 C2615 0.950 . S
C2604 H2596 0.950 . S
C2604 C2605 1.386 . S
C2604 C2606 1.391 . S
C2605 C2604 1.386 . S
C2605 C2609 1.393 . S
C2606 H2598 0.950 . S
C2606 C2604 1.391 . S
C2606 C2607 1.400 . S
C2607 C2606 1.400 . S
C2607 C2608 1.398 . S
C2607 C2613 1.491 . S
C2608 H2599 0.950 . S
C2608 C2607 1.398 . S
C2608 C2609 1.391 . S
C2609 H2597 0.950 . S
C2609 C2605 1.393 . S
C2609 C2608 1.391 . S
C2610 H2600 0.950 . S
C2610 C2611 1.386 . S
C2610 C2612 1.391 . S
C2611 C2610 1.386 . S
C2611 C2615 1.393 . S
C2612 H2601 0.950 . S
C2612 C2610 1.391 . S
C2612 C2613 1.400 . S
C2613 C2607 1.491 . S
C2613 C2612 1.400 . S
C2613 C2614 1.398 . S
C2614 H2602 0.950 . S
C2614 C2613 1.398 . S
C2614 C2615 1.391 . S
C2615 H2603 0.950 . S
C2615 C2611 1.393 . S
C2615 C2614 1.391 . S
H2616 C2624 0.950 . S
H2617 C2629 0.950 . S
H2618 C2626 0.950 . S
H2619 C2628 0.950 . S
H2620 C2630 0.950 . S
H2621 C2632 0.950 . S
H2622 C2634 0.950 . S
H2623 C2635 0.950 . S
C2624 H2616 0.950 . S
C2624 C2625 1.386 . S
C2624 C2626 1.391 . S
C2625 C2624 1.386 . S
C2625 C2629 1.393 . S
C2626 H2618 0.950 . S
C2626 C2624 1.391 . S
C2626 C2627 1.400 . S
C2627 C2626 1.400 . S
C2627 C2628 1.398 . S
C2627 C2633 1.491 . S
C2628 H2619 0.950 . S
C2628 C2627 1.398 . S
C2628 C2629 1.391 . S
C2629 H2617 0.950 . S
C2629 C2625 1.393 . S
C2629 C2628 1.391 . S
C2630 H2620 0.950 . S
C2630 C2631 1.386 . S
C2630 C2632 1.391 . S
C2631 C2630 1.386 . S
C2631 C2635 1.393 . S
C2632 H2621 0.950 . S
C2632 C2630 1.391 . S
C2632 C2633 1.400 . S
C2633 C2627 1.491 . S
C2633 C2632 1.400 . S
C2633 C2634 1.398 . S
C2634 H2622 0.950 . S
C2634 C2633 1.398 . S
C2634 C2635 1.391 . S
C2635 H2623 0.950 . S
C2635 C2631 1.393 . S
C2635 C2634 1.391 . S
H2636 C2644 0.950 . S
H2637 C2649 0.950 . S
H2638 C2646 0.950 . S
H2639 C2648 0.950 . S
H2640 C2650 0.950 . S
H2641 C2652 0.950 . S
H2642 C2654 0.950 . S
H2643 C2655 0.950 . S
C2644 H2636 0.950 . S
C2644 C2645 1.386 . S
C2644 C2646 1.391 . S
C2645 C2644 1.386 . S
C2645 C2649 1.393 . S
C2646 H2638 0.950 . S
C2646 C2644 1.391 . S
C2646 C2647 1.400 . S
C2647 C2646 1.400 . S
C2647 C2648 1.398 . S
C2647 C2653 1.491 . S
C2648 H2639 0.950 . S
C2648 C2647 1.398 . S
C2648 C2649 1.391 . S
C2649 H2637 0.950 . S
C2649 C2645 1.393 . S
C2649 C2648 1.391 . S
C2650 H2640 0.950 . S
C2650 C2651 1.386 . S
C2650 C2652 1.391 . S
C2651 C2650 1.386 . S
C2651 C2655 1.393 . S
C2652 H2641 0.950 . S
C2652 C2650 1.391 . S
C2652 C2653 1.400 . S
C2653 C2647 1.491 . S
C2653 C2652 1.400 . S
C2653 C2654 1.398 . S
C2654 H2642 0.950 . S
C2654 C2653 1.398 . S
C2654 C2655 1.391 . S
C2655 H2643 0.950 . S
C2655 C2651 1.393 . S
C2655 C2654 1.391 . S
H2656 C2664 0.950 . S
H2657 C2669 0.950 . S
H2658 C2666 0.950 . S
H2659 C2668 0.950 . S
H2660 C2670 0.950 . S
H2661 C2672 0.950 . S
H2662 C2674 0.950 . S
H2663 C2675 0.950 . S
C2664 H2656 0.950 . S
C2664 C2665 1.386 . S
C2664 C2666 1.391 . S
C2665 C2664 1.386 . S
C2665 C2669 1.393 . S
C2666 H2658 0.950 . S
C2666 C2664 1.391 . S
C2666 C2667 1.400 . S
C2667 C2666 1.400 . S
C2667 C2668 1.398 . S
C2667 C2673 1.491 . S
C2668 H2659 0.950 . S
C2668 C2667 1.398 . S
C2668 C2669 1.391 . S
C2669 H2657 0.950 . S
C2669 C2665 1.393 . S
C2669 C2668 1.391 . S
C2670 H2660 0.950 . S
C2670 C2671 1.386 . S
C2670 C2672 1.391 . S
C2671 C2670 1.386 . S
C2671 C2675 1.393 . S
C2672 H2661 0.950 . S
C2672 C2670 1.391 . S
C2672 C2673 1.400 . S
C2673 C2667 1.491 . S
C2673 C2672 1.400 . S
C2673 C2674 1.398 . S
C2674 H2662 0.950 . S
C2674 C2673 1.398 . S
C2674 C2675 1.391 . S
C2675 H2663 0.950 . S
C2675 C2671 1.393 . S
C2675 C2674 1.391 . S
H2676 C2684 0.950 . S
H2677 C2689 0.950 . S
H2678 C2686 0.950 . S
H2679 C2688 0.950 . S
H2680 C2690 0.950 . S
H2681 C2692 0.950 . S
H2682 C2694 0.950 . S
H2683 C2695 0.950 . S
C2684 H2676 0.950 . S
C2684 C2685 1.386 . S
C2684 C2686 1.391 . S
C2685 C2684 1.386 . S
C2685 C2689 1.393 . S
C2686 H2678 0.950 . S
C2686 C2684 1.391 . S
C2686 C2687 1.400 . S
C2687 C2686 1.400 . S
C2687 C2688 1.398 . S
C2687 C2693 1.491 . S
C2688 H2679 0.950 . S
C2688 C2687 1.398 . S
C2688 C2689 1.391 . S
C2689 H2677 0.950 . S
C2689 C2685 1.393 . S
C2689 C2688 1.391 . S
C2690 H2680 0.950 . S
C2690 C2691 1.386 . S
C2690 C2692 1.391 . S
C2691 C2690 1.386 . S
C2691 C2695 1.393 . S
C2692 H2681 0.950 . S
C2692 C2690 1.391 . S
C2692 C2693 1.400 . S
C2693 C2687 1.491 . S
C2693 C2692 1.400 . S
C2693 C2694 1.398 . S
C2694 H2682 0.950 . S
C2694 C2693 1.398 . S
C2694 C2695 1.391 . S
C2695 H2683 0.950 . S
C2695 C2691 1.393 . S
C2695 C2694 1.391 . S
H2696 C2704 0.950 . S
H2697 C2709 0.950 . S
H2698 C2706 0.950 . S
H2699 C2708 0.950 . S
H2700 C2710 0.950 . S
H2701 C2712 0.950 . S
H2702 C2714 0.950 . S
H2703 C2715 0.950 . S
C2704 H2696 0.950 . S
C2704 C2705 1.386 . S
C2704 C2706 1.391 . S
C2705 C2704 1.386 . S
C2705 C2709 1.393 . S
C2706 H2698 0.950 . S
C2706 C2704 1.391 . S
C2706 C2707 1.400 . S
C2707 C2706 1.400 . S
C2707 C2708 1.398 . S
C2707 C2713 1.491 . S
C2708 H2699 0.950 . S
C2708 C2707 1.398 . S
C2708 C2709 1.391 . S
C2709 H2697 0.950 . S
C2709 C2705 1.393 . S
C2709 C2708 1.391 . S
C2710 H2700 0.950 . S
C2710 C2711 1.386 . S
C2710 C2712 1.391 . S
C2711 C2710 1.386 . S
C2711 C2715 1.393 . S
C2712 H2701 0.950 . S
C2712 C2710 1.391 . S
C2712 C2713 1.400 . S
C2713 C2707 1.491 . S
C2713 C2712 1.400 . S
C2713 C2714 1.398 . S
C2714 H2702 0.950 . S
C2714 C2713 1.398 . S
C2714 C2715 1.391 . S
C2715 H2703 0.950 . S
C2715 C2711 1.393 . S
C2715 C2714 1.391 . S
H2716 C2724 0.950 . S
H2717 C2729 0.950 . S
H2718 C2726 0.950 . S
H2719 C2728 0.950 . S
H2720 C2730 0.950 . S
H2721 C2732 0.950 . S
H2722 C2734 0.950 . S
H2723 C2735 0.950 . S
C2724 H2716 0.950 . S
C2724 C2725 1.386 . S
C2724 C2726 1.391 . S
C2725 C2724 1.386 . S
C2725 C2729 1.393 . S
C2726 H2718 0.950 . S
C2726 C2724 1.391 . S
C2726 C2727 1.400 . S
C2727 C2726 1.400 . S
C2727 C2728 1.398 . S
C2727 C2733 1.491 . S
C2728 H2719 0.950 . S
C2728 C2727 1.398 . S
C2728 C2729 1.391 . S
C2729 H2717 0.950 . S
C2729 C2725 1.393 . S
C2729 C2728 1.391 . S
C2730 H2720 0.950 . S
C2730 C2731 1.386 . S
C2730 C2732 1.391 . S
C2731 C2730 1.386 . S
C2731 C2735 1.393 . S
C2732 H2721 0.950 . S
C2732 C2730 1.391 . S
C2732 C2733 1.400 . S
C2733 C2727 1.491 . S
C2733 C2732 1.400 . S
C2733 C2734 1.398 . S
C2734 H2722 0.950 . S
C2734 C2733 1.398 . S
C2734 C2735 1.391 . S
C2735 H2723 0.950 . S
C2735 C2731 1.393 . S
C2735 C2734 1.391 . S
H2736 C2744 0.950 . S
H2737 C2749 0.950 . S
H2738 C2746 0.950 . S
H2739 C2748 0.950 . S
H2740 C2750 0.950 . S
H2741 C2752 0.950 . S
H2742 C2754 0.950 . S
H2743 C2755 0.950 . S
C2744 H2736 0.950 . S
C2744 C2745 1.386 . S
C2744 C2746 1.391 . S
C2745 C2744 1.386 . S
C2745 C2749 1.393 . S
C2746 H2738 0.950 . S
C2746 C2744 1.391 . S
C2746 C2747 1.400 . S
C2747 C2746 1.400 . S
C2747 C2748 1.398 . S
C2747 C2753 1.491 . S
C2748 H2739 0.950 . S
C2748 C2747 1.398 . S
C2748 C2749 1.391 . S
C2749 H2737 0.950 . S
C2749 C2745 1.393 . S
C2749 C2748 1.391 . S
C2750 H2740 0.950 . S
C2750 C2751 1.386 . S
C2750 C2752 1.391 . S
C2751 C2750 1.386 . S
C2751 C2755 1.393 . S
C2752 H2741 0.950 . S
C2752 C2750 1.391 . S
C2752 C2753 1.400 . S
C2753 C2747 1.491 . S
C2753 C2752 1.400 . S
C2753 C2754 1.398 . S
C2754 H2742 0.950 . S
C2754 C2753 1.398 . S
C2754 C2755 1.391 . S
C2755 H2743 0.950 . S
C2755 C2751 1.393 . S
C2755 C2754 1.391 . S
H2756 C2764 0.950 . S
H2757 C2769 0.950 . S
H2758 C2766 0.950 . S
H2759 C2768 0.950 . S
H2760 C2770 0.950 . S
H2761 C2772 0.950 . S
H2762 C2774 0.950 . S
H2763 C2775 0.950 . S
C2764 H2756 0.950 . S
C2764 C2765 1.386 . S
C2764 C2766 1.391 . S
C2765 C2764 1.386 . S
C2765 C2769 1.393 . S
C2766 H2758 0.950 . S
C2766 C2764 1.391 . S
C2766 C2767 1.400 . S
C2767 C2766 1.400 . S
C2767 C2768 1.398 . S
C2767 C2773 1.491 . S
C2768 H2759 0.950 . S
C2768 C2767 1.398 . S
C2768 C2769 1.391 . S
C2769 H2757 0.950 . S
C2769 C2765 1.393 . S
C2769 C2768 1.391 . S
C2770 H2760 0.950 . S
C2770 C2771 1.386 . S
C2770 C2772 1.391 . S
C2771 C2770 1.386 . S
C2771 C2775 1.393 . S
C2772 H2761 0.950 . S
C2772 C2770 1.391 . S
C2772 C2773 1.400 . S
C2773 C2767 1.491 . S
C2773 C2772 1.400 . S
C2773 C2774 1.398 . S
C2774 H2762 0.950 . S
C2774 C2773 1.398 . S
C2774 C2775 1.391 . S
C2775 H2763 0.950 . S
C2775 C2771 1.393 . S
C2775 C2774 1.391 . S
H2776 C2784 0.950 . S
H2777 C2789 0.950 . S
H2778 C2786 0.950 . S
H2779 C2788 0.950 . S
H2780 C2790 0.950 . S
H2781 C2792 0.950 . S
H2782 C2794 0.950 . S
H2783 C2795 0.950 . S
C2784 H2776 0.950 . S
C2784 C2785 1.386 . S
C2784 C2786 1.391 . S
C2785 C2784 1.386 . S
C2785 C2789 1.393 . S
C2786 H2778 0.950 . S
C2786 C2784 1.391 . S
C2786 C2787 1.400 . S
C2787 C2786 1.400 . S
C2787 C2788 1.398 . S
C2787 C2793 1.491 . S
C2788 H2779 0.950 . S
C2788 C2787 1.398 . S
C2788 C2789 1.391 . S
C2789 H2777 0.950 . S
C2789 C2785 1.393 . S
C2789 C2788 1.391 . S
C2790 H2780 0.950 . S
C2790 C2791 1.386 . S
C2790 C2792 1.391 . S
C2791 C2790 1.386 . S
C2791 C2795 1.393 . S
C2792 H2781 0.950 . S
C2792 C2790 1.391 . S
C2792 C2793 1.400 . S
C2793 C2787 1.491 . S
C2793 C2792 1.400 . S
C2793 C2794 1.398 . S
C2794 H2782 0.950 . S
C2794 C2793 1.398 . S
C2794 C2795 1.391 . S
C2795 H2783 0.950 . S
C2795 C2791 1.393 . S
C2795 C2794 1.391 . S
H2796 C2804 0.950 . S
H2797 C2809 0.950 . S
H2798 C2806 0.950 . S
H2799 C2808 0.950 . S
H2800 C2810 0.950 . S
H2801 C2812 0.950 . S
H2802 C2814 0.950 . S
H2803 C2815 0.950 . S
C2804 H2796 0.950 . S
C2804 C2805 1.386 . S
C2804 C2806 1.391 . S
C2805 C2804 1.386 . S
C2805 C2809 1.393 . S
C2806 H2798 0.950 . S
C2806 C2804 1.391 . S
C2806 C2807 1.400 . S
C2807 C2806 1.400 . S
C2807 C2808 1.398 . S
C2807 C2813 1.491 . S
C2808 H2799 0.950 . S
C2808 C2807 1.398 . S
C2808 C2809 1.391 . S
C2809 H2797 0.950 . S
C2809 C2805 1.393 . S
C2809 C2808 1.391 . S
C2810 H2800 0.950 . S
C2810 C2811 1.386 . S
C2810 C2812 1.391 . S
C2811 C2810 1.386 . S
C2811 C2815 1.393 . S
C2812 H2801 0.950 . S
C2812 C2810 1.391 . S
C2812 C2813 1.400 . S
C2813 C2807 1.491 . S
C2813 C2812 1.400 . S
C2813 C2814 1.398 . S
C2814 H2802 0.950 . S
C2814 C2813 1.398 . S
C2814 C2815 1.391 . S
C2815 H2803 0.950 . S
C2815 C2811 1.393 . S
C2815 C2814 1.391 . S
H2816 C2824 0.950 . S
H2817 C2829 0.950 . S
H2818 C2826 0.950 . S
H2819 C2828 0.950 . S
H2820 C2830 0.950 . S
H2821 C2832 0.950 . S
H2822 C2834 0.950 . S
H2823 C2835 0.950 . S
C2824 H2816 0.950 . S
C2824 C2825 1.386 . S
C2824 C2826 1.391 . S
C2825 C2824 1.386 . S
C2825 C2829 1.393 . S
C2826 H2818 0.950 . S
C2826 C2824 1.391 . S
C2826 C2827 1.400 . S
C2827 C2826 1.400 . S
C2827 C2828 1.398 . S
C2827 C2833 1.491 . S
C2828 H2819 0.950 . S
C2828 C2827 1.398 . S
C2828 C2829 1.391 . S
C2829 H2817 0.950 . S
C2829 C2825 1.393 . S
C2829 C2828 1.391 . S
C2830 H2820 0.950 . S
C2830 C2831 1.386 . S
C2830 C2832 1.391 . S
C2831 C2830 1.386 . S
C2831 C2835 1.393 . S
C2832 H2821 0.950 . S
C2832 C2830 1.391 . S
C2832 C2833 1.400 . S
C2833 C2827 1.491 . S
C2833 C2832 1.400 . S
C2833 C2834 1.398 . S
C2834 H2822 0.950 . S
C2834 C2833 1.398 . S
C2834 C2835 1.391 . S
C2835 H2823 0.950 . S
C2835 C2831 1.393 . S
C2835 C2834 1.391 . S
H2836 C2844 0.950 . S
H2837 C2849 0.950 . S
H2838 C2846 0.950 . S
H2839 C2848 0.950 . S
H2840 C2850 0.950 . S
H2841 C2852 0.950 . S
H2842 C2854 0.950 . S
H2843 C2855 0.950 . S
C2844 H2836 0.950 . S
C2844 C2845 1.386 . S
C2844 C2846 1.391 . S
C2845 C2844 1.386 . S
C2845 C2849 1.393 . S
C2846 H2838 0.950 . S
C2846 C2844 1.391 . S
C2846 C2847 1.400 . S
C2847 C2846 1.400 . S
C2847 C2848 1.398 . S
C2847 C2853 1.491 . S
C2848 H2839 0.950 . S
C2848 C2847 1.398 . S
C2848 C2849 1.391 . S
C2849 H2837 0.950 . S
C2849 C2845 1.393 . S
C2849 C2848 1.391 . S
C2850 H2840 0.950 . S
C2850 C2851 1.386 . S
C2850 C2852 1.391 . S
C2851 C2850 1.386 . S
C2851 C2855 1.393 . S
C2852 H2841 0.950 . S
C2852 C2850 1.391 . S
C2852 C2853 1.400 . S
C2853 C2847 1.491 . S
C2853 C2852 1.400 . S
C2853 C2854 1.398 . S
C2854 H2842 0.950 . S
C2854 C2853 1.398 . S
C2854 C2855 1.391 . S
C2855 H2843 0.950 . S
C2855 C2851 1.393 . S
C2855 C2854 1.391 . S
H2856 C2864 0.950 . S
H2857 C2869 0.950 . S
H2858 C2866 0.950 . S
H2859 C2868 0.950 . S
H2860 C2870 0.950 . S
H2861 C2872 0.950 . S
H2862 C2874 0.950 . S
H2863 C2875 0.950 . S
C2864 H2856 0.950 . S
C2864 C2865 1.386 . S
C2864 C2866 1.391 . S
C2865 C2864 1.386 . S
C2865 C2869 1.393 . S
C2866 H2858 0.950 . S
C2866 C2864 1.391 . S
C2866 C2867 1.400 . S
C2867 C2866 1.400 . S
C2867 C2868 1.398 . S
C2867 C2873 1.491 . S
C2868 H2859 0.950 . S
C2868 C2867 1.398 . S
C2868 C2869 1.391 . S
C2869 H2857 0.950 . S
C2869 C2865 1.393 . S
C2869 C2868 1.391 . S
C2870 H2860 0.950 . S
C2870 C2871 1.386 . S
C2870 C2872 1.391 . S
C2871 C2870 1.386 . S
C2871 C2875 1.393 . S
C2872 H2861 0.950 . S
C2872 C2870 1.391 . S
C2872 C2873 1.400 . S
C2873 C2867 1.491 . S
C2873 C2872 1.400 . S
C2873 C2874 1.398 . S
C2874 H2862 0.950 . S
C2874 C2873 1.398 . S
C2874 C2875 1.391 . S
C2875 H2863 0.950 . S
C2875 C2871 1.393 . S
C2875 C2874 1.391 . S
H2876 C2884 0.950 . S
H2877 C2889 0.950 . S
H2878 C2886 0.950 . S
H2879 C2888 0.950 . S
H2880 C2890 0.950 . S
H2881 C2892 0.950 . S
H2882 C2894 0.950 . S
H2883 C2895 0.950 . S
C2884 H2876 0.950 . S
C2884 C2885 1.386 . S
C2884 C2886 1.391 . S
C2885 C2884 1.386 . S
C2885 C2889 1.393 . S
C2886 H2878 0.950 . S
C2886 C2884 1.391 . S
C2886 C2887 1.400 . S
C2887 C2886 1.400 . S
C2887 C2888 1.398 . S
C2887 C2893 1.491 . S
C2888 H2879 0.950 . S
C2888 C2887 1.398 . S
C2888 C2889 1.391 . S
C2889 H2877 0.950 . S
C2889 C2885 1.393 . S
C2889 C2888 1.391 . S
C2890 H2880 0.950 . S
C2890 C2891 1.386 . S
C2890 C2892 1.391 . S
C2891 C2890 1.386 . S
C2891 C2895 1.393 . S
C2892 H2881 0.950 . S
C2892 C2890 1.391 . S
C2892 C2893 1.400 . S
C2893 C2887 1.491 . S
C2893 C2892 1.400 . S
C2893 C2894 1.398 . S
C2894 H2882 0.950 . S
C2894 C2893 1.398 . S
C2894 C2895 1.391 . S
C2895 H2883 0.950 . S
C2895 C2891 1.393 . S
C2895 C2894 1.391 . S
H2896 C2904 0.950 . S
H2897 C2909 0.950 . S
H2898 C2906 0.950 . S
H2899 C2908 0.950 . S
H2900 C2910 0.950 . S
H2901 C2912 0.950 . S
H2902 C2914 0.950 . S
H2903 C2915 0.950 . S
C2904 H2896 0.950 . S
C2904 C2905 1.386 . S
C2904 C2906 1.391 . S
C2905 C2904 1.386 . S
C2905 C2909 1.393 . S
C2906 H2898 0.950 . S
C2906 C2904 1.391 . S
C2906 C2907 1.400 . S
C2907 C2906 1.400 . S
C2907 C2908 1.398 . S
C2907 C2913 1.491 . S
C2908 H2899 0.950 . S
C2908 C2907 1.398 . S
C2908 C2909 1.391 . S
C2909 H2897 0.950 . S
C2909 C2905 1.393 . S
C2909 C2908 1.391 . S
C2910 H2900 0.950 . S
C2910 C2911 1.386 . S
C2910 C2912 1.391 . S
C2911 C2910 1.386 . S
C2911 C2915 1.393 . S
C2912 H2901 0.950 . S
C2912 C2910 1.391 . S
C2912 C2913 1.400 . S
C2913 C2907 1.491 . S
C2913 C2912 1.400 . S
C2913 C2914 1.398 . S
C2914 H2902 0.950 . S
C2914 C2913 1.398 . S
C2914 C2915 1.391 . S
C2915 H2903 0.950 . S
C2915 C2911 1.393 . S
C2915 C2914 1.391 . S
H2916 C2924 0.950 . S
H2917 C2929 0.950 . S
H2918 C2926 0.950 . S
H2919 C2928 0.950 . S
H2920 C2930 0.950 . S
H2921 C2932 0.950 . S
H2922 C2934 0.950 . S
H2923 C2935 0.950 . S
C2924 H2916 0.950 . S
C2924 C2925 1.386 . S
C2924 C2926 1.391 . S
C2925 C2924 1.386 . S
C2925 C2929 1.393 . S
C2926 H2918 0.950 . S
C2926 C2924 1.391 . S
C2926 C2927 1.400 . S
C2927 C2926 1.400 . S
C2927 C2928 1.398 . S
C2927 C2933 1.491 . S
C2928 H2919 0.950 . S
C2928 C2927 1.398 . S
C2928 C2929 1.391 . S
C2929 H2917 0.950 . S
C2929 C2925 1.393 . S
C2929 C2928 1.391 . S
C2930 H2920 0.950 . S
C2930 C2931 1.386 . S
C2930 C2932 1.391 . S
C2931 C2930 1.386 . S
C2931 C2935 1.393 . S
C2932 H2921 0.950 . S
C2932 C2930 1.391 . S
C2932 C2933 1.400 . S
C2933 C2927 1.491 . S
C2933 C2932 1.400 . S
C2933 C2934 1.398 . S
C2934 H2922 0.950 . S
C2934 C2933 1.398 . S
C2934 C2935 1.391 . S
C2935 H2923 0.950 . S
C2935 C2931 1.393 . S
C2935 C2934 1.391 . S
H2936 C2944 0.950 . S
H2937 C2949 0.950 . S
H2938 C2946 0.950 . S
H2939 C2948 0.950 . S
H2940 C2950 0.950 . S
H2941 C2952 0.950 . S
H2942 C2954 0.950 . S
H2943 C2955 0.950 . S
C2944 H2936 0.950 . S
C2944 C2945 1.386 . S
C2944 C2946 1.391 . S
C2945 C2944 1.386 . S
C2945 C2949 1.393 . S
C2946 H2938 0.950 . S
C2946 C2944 1.391 . S
C2946 C2947 1.400 . S
C2947 C2946 1.400 . S
C2947 C2948 1.398 . S
C2947 C2953 1.491 . S
C2948 H2939 0.950 . S
C2948 C2947 1.398 . S
C2948 C2949 1.391 . S
C2949 H2937 0.950 . S
C2949 C2945 1.393 . S
C2949 C2948 1.391 . S
C2950 H2940 0.950 . S
C2950 C2951 1.386 . S
C2950 C2952 1.391 . S
C2951 C2950 1.386 . S
C2951 C2955 1.393 . S
C2952 H2941 0.950 . S
C2952 C2950 1.391 . S
C2952 C2953 1.400 . S
C2953 C2947 1.491 . S
C2953 C2952 1.400 . S
C2953 C2954 1.398 . S
C2954 H2942 0.950 . S
C2954 C2953 1.398 . S
C2954 C2955 1.391 . S
C2955 H2943 0.950 . S
C2955 C2951 1.393 . S
C2955 C2954 1.391 . S
H2956 C2964 0.950 . S
H2957 C2969 0.950 . S
H2958 C2966 0.950 . S
H2959 C2968 0.950 . S
H2960 C2970 0.950 . S
H2961 C2972 0.950 . S
H2962 C2974 0.950 . S
H2963 C2975 0.950 . S
C2964 H2956 0.950 . S
C2964 C2965 1.386 . S
C2964 C2966 1.391 . S
C2965 C2964 1.386 . S
C2965 C2969 1.393 . S
C2966 H2958 0.950 . S
C2966 C2964 1.391 . S
C2966 C2967 1.400 . S
C2967 C2966 1.400 . S
C2967 C2968 1.398 . S
C2967 C2973 1.491 . S
C2968 H2959 0.950 . S
C2968 C2967 1.398 . S
C2968 C2969 1.391 . S
C2969 H2957 0.950 . S
C2969 C2965 1.393 . S
C2969 C2968 1.391 . S
C2970 H2960 0.950 . S
C2970 C2971 1.386 . S
C2970 C2972 1.391 . S
C2971 C2970 1.386 . S
C2971 C2975 1.393 . S
C2972 H2961 0.950 . S
C2972 C2970 1.391 . S
C2972 C2973 1.400 . S
C2973 C2967 1.491 . S
C2973 C2972 1.400 . S
C2973 C2974 1.398 . S
C2974 H2962 0.950 . S
C2974 C2973 1.398 . S
C2974 C2975 1.391 . S
C2975 H2963 0.950 . S
C2975 C2971 1.393 . S
C2975 C2974 1.391 . S
H2976 C2984 0.950 1_455 S
H2977 C2989 0.950 . S
H2978 C2986 0.950 . S
H2979 C2988 0.950 . S
H2980 C2990 0.950 . S
H2981 C2992 0.950 . S
H2982 C2994 0.950 . S
H2983 C2995 0.950 . S
C2984 H2976 0.950 1_655 S
C2984 C2985 1.386 . S
C2984 C2986 1.391 . S
C2985 C2984 1.386 . S
C2985 C2989 1.393 . S
C2986 H2978 0.950 . S
C2986 C2984 1.391 . S
C2986 C2987 1.400 . S
C2987 C2986 1.400 . S
C2987 C2988 1.398 . S
C2987 C2993 1.491 . S
C2988 H2979 0.950 . S
C2988 C2987 1.398 . S
C2988 C2989 1.391 . S
C2989 H2977 0.950 . S
C2989 C2985 1.393 . S
C2989 C2988 1.391 . S
C2990 H2980 0.950 . S
C2990 C2991 1.386 . S
C2990 C2992 1.391 . S
C2991 C2990 1.386 . S
C2991 C2995 1.393 . S
C2992 H2981 0.950 . S
C2992 C2990 1.391 . S
C2992 C2993 1.400 . S
C2993 C2987 1.491 . S
C2993 C2992 1.400 . S
C2993 C2994 1.398 . S
C2994 H2982 0.950 . S
C2994 C2993 1.398 . S
C2994 C2995 1.391 . S
C2995 H2983 0.950 . S
C2995 C2991 1.393 . S
C2995 C2994 1.391 . S
H2996 C3004 0.950 . S
H2997 C3009 0.950 . S
H2998 C3006 0.950 . S
H2999 C3008 0.950 . S
H3000 C3010 0.950 . S
H3001 C3012 0.950 . S
H3002 C3014 0.950 . S
H3003 C3015 0.950 . S
C3004 H2996 0.950 . S
C3004 C3005 1.386 . S
C3004 C3006 1.391 . S
C3005 C3004 1.386 . S
C3005 C3009 1.393 . S
C3006 H2998 0.950 . S
C3006 C3004 1.391 . S
C3006 C3007 1.400 . S
C3007 C3006 1.400 . S
C3007 C3008 1.398 . S
C3007 C3013 1.491 . S
C3008 H2999 0.950 . S
C3008 C3007 1.398 . S
C3008 C3009 1.391 . S
C3009 H2997 0.950 . S
C3009 C3005 1.393 . S
C3009 C3008 1.391 . S
C3010 H3000 0.950 . S
C3010 C3011 1.386 . S
C3010 C3012 1.391 . S
C3011 C3010 1.386 . S
C3011 C3015 1.393 . S
C3012 H3001 0.950 . S
C3012 C3010 1.391 . S
C3012 C3013 1.400 . S
C3013 C3007 1.491 . S
C3013 C3012 1.400 . S
C3013 C3014 1.398 . S
C3014 H3002 0.950 . S
C3014 C3013 1.398 . S
C3014 C3015 1.391 . S
C3015 H3003 0.950 . S
C3015 C3011 1.393 . S
C3015 C3014 1.391 . S
H3016 C3024 0.950 . S
H3017 C3029 0.950 . S
H3018 C3026 0.950 . S
H3019 C3028 0.950 . S
H3020 C3030 0.950 . S
H3021 C3032 0.950 . S
H3022 C3034 0.950 . S
H3023 C3035 0.950 . S
C3024 H3016 0.950 . S
C3024 C3025 1.386 . S
C3024 C3026 1.391 . S
C3025 C3024 1.386 . S
C3025 C3029 1.393 . S
C3026 H3018 0.950 . S
C3026 C3024 1.391 . S
C3026 C3027 1.400 . S
C3027 C3026 1.400 . S
C3027 C3028 1.398 . S
C3027 C3033 1.491 . S
C3028 H3019 0.950 . S
C3028 C3027 1.398 . S
C3028 C3029 1.391 . S
C3029 H3017 0.950 . S
C3029 C3025 1.393 . S
C3029 C3028 1.391 . S
C3030 H3020 0.950 . S
C3030 C3031 1.386 . S
C3030 C3032 1.391 . S
C3031 C3030 1.386 . S
C3031 C3035 1.393 . S
C3032 H3021 0.950 . S
C3032 C3030 1.391 . S
C3032 C3033 1.400 . S
C3033 C3027 1.491 . S
C3033 C3032 1.400 . S
C3033 C3034 1.398 . S
C3034 H3022 0.950 . S
C3034 C3033 1.398 . S
C3034 C3035 1.391 . S
C3035 H3023 0.950 . S
C3035 C3031 1.393 . S
C3035 C3034 1.391 . S
H3036 C3044 0.950 . S
H3037 C3049 0.950 . S
H3038 C3046 0.950 . S
H3039 C3048 0.950 . S
H3040 C3050 0.950 . S
H3041 C3052 0.950 . S
H3042 C3054 0.950 . S
H3043 C3055 0.950 . S
C3044 H3036 0.950 . S
C3044 C3045 1.386 . S
C3044 C3046 1.391 . S
C3045 C3044 1.386 . S
C3045 C3049 1.393 . S
C3046 H3038 0.950 . S
C3046 C3044 1.391 . S
C3046 C3047 1.400 . S
C3047 C3046 1.400 . S
C3047 C3048 1.398 . S
C3047 C3053 1.491 . S
C3048 H3039 0.950 . S
C3048 C3047 1.398 . S
C3048 C3049 1.391 . S
C3049 H3037 0.950 . S
C3049 C3045 1.393 . S
C3049 C3048 1.391 . S
C3050 H3040 0.950 . S
C3050 C3051 1.386 . S
C3050 C3052 1.391 . S
C3051 C3050 1.386 . S
C3051 C3055 1.393 . S
C3052 H3041 0.950 . S
C3052 C3050 1.391 . S
C3052 C3053 1.400 . S
C3053 C3047 1.491 . S
C3053 C3052 1.400 . S
C3053 C3054 1.398 . S
C3054 H3042 0.950 . S
C3054 C3053 1.398 . S
C3054 C3055 1.391 . S
C3055 H3043 0.950 . S
C3055 C3051 1.393 . S
C3055 C3054 1.391 . S
H3056 C3064 0.950 . S
H3057 C3069 0.950 1_545 S
H3058 C3066 0.950 . S
H3059 C3068 0.950 . S
H3060 C3070 0.950 . S
H3061 C3072 0.950 . S
H3062 C3074 0.950 . S
H3063 C3075 0.950 . S
C3064 H3056 0.950 . S
C3064 C3065 1.386 . S
C3064 C3066 1.391 . S
C3065 C3064 1.386 . S
C3065 C3069 1.393 . S
C3066 H3058 0.950 . S
C3066 C3064 1.391 . S
C3066 C3067 1.400 . S
C3067 C3066 1.400 . S
C3067 C3068 1.398 . S
C3067 C3073 1.491 . S
C3068 H3059 0.950 . S
C3068 C3067 1.398 . S
C3068 C3069 1.391 . S
C3069 H3057 0.950 1_565 S
C3069 C3065 1.393 . S
C3069 C3068 1.391 . S
C3070 H3060 0.950 . S
C3070 C3071 1.386 . S
C3070 C3072 1.391 . S
C3071 C3070 1.386 . S
C3071 C3075 1.393 . S
C3072 H3061 0.950 . S
C3072 C3070 1.391 . S
C3072 C3073 1.400 . S
C3073 C3067 1.491 . S
C3073 C3072 1.400 . S
C3073 C3074 1.398 . S
C3074 H3062 0.950 . S
C3074 C3073 1.398 . S
C3074 C3075 1.391 . S
C3075 H3063 0.950 . S
C3075 C3071 1.393 . S
C3075 C3074 1.391 . S
H3076 C3084 0.950 . S
H3077 C3089 0.950 . S
H3078 C3086 0.950 . S
H3079 C3088 0.950 . S
H3080 C3090 0.950 1_565 S
H3081 C3092 0.950 . S
H3082 C3094 0.950 . S
H3083 C3095 0.950 . S
C3084 H3076 0.950 . S
C3084 C3085 1.386 . S
C3084 C3086 1.391 . S
C3085 C3084 1.386 . S
C3085 C3089 1.393 . S
C3086 H3078 0.950 . S
C3086 C3084 1.391 . S
C3086 C3087 1.400 . S
C3087 C3086 1.400 . S
C3087 C3088 1.398 . S
C3087 C3093 1.491 . S
C3088 H3079 0.950 . S
C3088 C3087 1.398 . S
C3088 C3089 1.391 . S
C3089 H3077 0.950 . S
C3089 C3085 1.393 . S
C3089 C3088 1.391 . S
C3090 H3080 0.950 1_545 S
C3090 C3091 1.386 . S
C3090 C3092 1.391 . S
C3091 C3090 1.386 . S
C3091 C3095 1.393 . S
C3092 H3081 0.950 . S
C3092 C3090 1.391 . S
C3092 C3093 1.400 . S
C3093 C3087 1.491 . S
C3093 C3092 1.400 . S
C3093 C3094 1.398 . S
C3094 H3082 0.950 . S
C3094 C3093 1.398 . S
C3094 C3095 1.391 . S
C3095 H3083 0.950 . S
C3095 C3091 1.393 . S
C3095 C3094 1.391 . S
H3096 C3104 0.950 . S
H3097 C3109 0.950 . S
H3098 C3106 0.950 . S
H3099 C3108 0.950 . S
H3100 C3110 0.950 . S
H3101 C3112 0.950 . S
H3102 C3114 0.950 . S
H3103 C3115 0.950 . S
C3104 H3096 0.950 . S
C3104 C3105 1.386 . S
C3104 C3106 1.391 . S
C3105 C3104 1.386 . S
C3105 C3109 1.393 . S
C3106 H3098 0.950 . S
C3106 C3104 1.391 . S
C3106 C3107 1.400 . S
C3107 C3106 1.400 . S
C3107 C3108 1.398 . S
C3107 C3113 1.491 . S
C3108 H3099 0.950 . S
C3108 C3107 1.398 . S
C3108 C3109 1.391 . S
C3109 H3097 0.950 . S
C3109 C3105 1.393 . S
C3109 C3108 1.391 . S
C3110 H3100 0.950 . S
C3110 C3111 1.386 . S
C3110 C3112 1.391 . S
C3111 C3110 1.386 . S
C3111 C3115 1.393 . S
C3112 H3101 0.950 . S
C3112 C3110 1.391 . S
C3112 C3113 1.400 . S
C3113 C3107 1.491 . S
C3113 C3112 1.400 . S
C3113 C3114 1.398 . S
C3114 H3102 0.950 . S
C3114 C3113 1.398 . S
C3114 C3115 1.391 . S
C3115 H3103 0.950 . S
C3115 C3111 1.393 . S
C3115 C3114 1.391 . S
H3116 C3124 0.950 . S
H3117 C3129 0.950 . S
H3118 C3126 0.950 . S
H3119 C3128 0.950 . S
H3120 C3130 0.950 . S
H3121 C3132 0.950 . S
H3122 C3134 0.950 . S
H3123 C3135 0.950 . S
C3124 H3116 0.950 . S
C3124 C3125 1.386 . S
C3124 C3126 1.391 . S
C3125 C3124 1.386 . S
C3125 C3129 1.393 . S
C3126 H3118 0.950 . S
C3126 C3124 1.391 . S
C3126 C3127 1.400 . S
C3127 C3126 1.400 . S
C3127 C3128 1.398 . S
C3127 C3133 1.491 . S
C3128 H3119 0.950 . S
C3128 C3127 1.398 . S
C3128 C3129 1.391 . S
C3129 H3117 0.950 . S
C3129 C3125 1.393 . S
C3129 C3128 1.391 . S
C3130 H3120 0.950 . S
C3130 C3131 1.386 . S
C3130 C3132 1.391 . S
C3131 C3130 1.386 . S
C3131 C3135 1.393 . S
C3132 H3121 0.950 . S
C3132 C3130 1.391 . S
C3132 C3133 1.400 . S
C3133 C3127 1.491 . S
C3133 C3132 1.400 . S
C3133 C3134 1.398 . S
C3134 H3122 0.950 . S
C3134 C3133 1.398 . S
C3134 C3135 1.391 . S
C3135 H3123 0.950 . S
C3135 C3131 1.393 . S
C3135 C3134 1.391 . S
H3136 C3144 0.950 . S
H3137 C3149 0.950 . S
H3138 C3146 0.950 . S
H3139 C3148 0.950 . S
H3140 C3150 0.950 . S
H3141 C3152 0.950 . S
H3142 C3154 0.950 . S
H3143 C3155 0.950 . S
C3144 H3136 0.950 . S
C3144 C3145 1.386 . S
C3144 C3146 1.391 . S
C3145 C3144 1.386 . S
C3145 C3149 1.393 . S
C3146 H3138 0.950 . S
C3146 C3144 1.391 . S
C3146 C3147 1.400 . S
C3147 C3146 1.400 . S
C3147 C3148 1.398 . S
C3147 C3153 1.491 . S
C3148 H3139 0.950 . S
C3148 C3147 1.398 . S
C3148 C3149 1.391 . S
C3149 H3137 0.950 . S
C3149 C3145 1.393 . S
C3149 C3148 1.391 . S
C3150 H3140 0.950 . S
C3150 C3151 1.386 . S
C3150 C3152 1.391 . S
C3151 C3150 1.386 . S
C3151 C3155 1.393 . S
C3152 H3141 0.950 . S
C3152 C3150 1.391 . S
C3152 C3153 1.400 . S
C3153 C3147 1.491 . S
C3153 C3152 1.400 . S
C3153 C3154 1.398 . S
C3154 H3142 0.950 . S
C3154 C3153 1.398 . S
C3154 C3155 1.391 . S
C3155 H3143 0.950 . S
C3155 C3151 1.393 . S
C3155 C3154 1.391 . S
H3156 C3164 0.950 . S
H3157 C3169 0.950 . S
H3158 C3166 0.950 . S
H3159 C3168 0.950 . S
H3160 C3170 0.950 . S
H3161 C3172 0.950 . S
H3162 C3174 0.950 . S
H3163 C3175 0.950 . S
C3164 H3156 0.950 . S
C3164 C3165 1.386 . S
C3164 C3166 1.391 . S
C3165 C3164 1.386 . S
C3165 C3169 1.393 . S
C3166 H3158 0.950 . S
C3166 C3164 1.391 . S
C3166 C3167 1.400 . S
C3167 C3166 1.400 . S
C3167 C3168 1.398 . S
C3167 C3173 1.491 . S
C3168 H3159 0.950 . S
C3168 C3167 1.398 . S
C3168 C3169 1.391 . S
C3169 H3157 0.950 . S
C3169 C3165 1.393 . S
C3169 C3168 1.391 . S
C3170 H3160 0.950 . S
C3170 C3171 1.386 . S
C3170 C3172 1.391 . S
C3171 C3170 1.386 . S
C3171 C3175 1.393 . S
C3172 H3161 0.950 . S
C3172 C3170 1.391 . S
C3172 C3173 1.400 . S
C3173 C3167 1.491 . S
C3173 C3172 1.400 . S
C3173 C3174 1.398 . S
C3174 H3162 0.950 . S
C3174 C3173 1.398 . S
C3174 C3175 1.391 . S
C3175 H3163 0.950 . S
C3175 C3171 1.393 . S
C3175 C3174 1.391 . S
H3176 C3184 0.950 . S
H3177 C3189 0.950 . S
H3178 C3186 0.950 . S
H3179 C3188 0.950 . S
H3180 C3190 0.950 . S
H3181 C3192 0.950 . S
H3182 C3194 0.950 . S
H3183 C3195 0.950 . S
C3184 H3176 0.950 . S
C3184 C3185 1.386 . S
C3184 C3186 1.391 . S
C3185 C3184 1.386 . S
C3185 C3189 1.393 . S
C3186 H3178 0.950 . S
C3186 C3184 1.391 . S
C3186 C3187 1.400 . S
C3187 C3186 1.400 . S
C3187 C3188 1.398 . S
C3187 C3193 1.491 . S
C3188 H3179 0.950 . S
C3188 C3187 1.398 . S
C3188 C3189 1.391 . S
C3189 H3177 0.950 . S
C3189 C3185 1.393 . S
C3189 C3188 1.391 . S
C3190 H3180 0.950 . S
C3190 C3191 1.386 . S
C3190 C3192 1.391 . S
C3191 C3190 1.386 . S
C3191 C3195 1.393 . S
C3192 H3181 0.950 . S
C3192 C3190 1.391 . S
C3192 C3193 1.400 . S
C3193 C3187 1.491 . S
C3193 C3192 1.400 . S
C3193 C3194 1.398 . S
C3194 H3182 0.950 . S
C3194 C3193 1.398 . S
C3194 C3195 1.391 . S
C3195 H3183 0.950 . S
C3195 C3191 1.393 . S
C3195 C3194 1.391 . S
H3196 C3204 0.950 . S
H3197 C3209 0.950 . S
H3198 C3206 0.950 . S
H3199 C3208 0.950 . S
H3200 C3210 0.950 . S
H3201 C3212 0.950 . S
H3202 C3214 0.950 . S
H3203 C3215 0.950 . S
C3204 H3196 0.950 . S
C3204 C3205 1.386 . S
C3204 C3206 1.391 . S
C3205 C3204 1.386 . S
C3205 C3209 1.393 . S
C3206 H3198 0.950 . S
C3206 C3204 1.391 . S
C3206 C3207 1.400 . S
C3207 C3206 1.400 . S
C3207 C3208 1.398 . S
C3207 C3213 1.491 . S
C3208 H3199 0.950 . S
C3208 C3207 1.398 . S
C3208 C3209 1.391 . S
C3209 H3197 0.950 . S
C3209 C3205 1.393 . S
C3209 C3208 1.391 . S
C3210 H3200 0.950 . S
C3210 C3211 1.386 . S
C3210 C3212 1.391 . S
C3211 C3210 1.386 . S
C3211 C3215 1.393 . S
C3212 H3201 0.950 . S
C3212 C3210 1.391 . S
C3212 C3213 1.400 . S
C3213 C3207 1.491 . S
C3213 C3212 1.400 . S
C3213 C3214 1.398 . S
C3214 H3202 0.950 . S
C3214 C3213 1.398 . S
C3214 C3215 1.391 . S
C3215 H3203 0.950 . S
C3215 C3211 1.393 . S
C3215 C3214 1.391 . S
H3216 C3224 0.950 . S
H3217 C3229 0.920 1_655 S
H3218 C3226 0.950 . S
H3219 C3228 0.950 . S
H3220 C3230 0.950 . S
H3221 C3232 0.950 . S
H3222 C3234 0.950 . S
H3223 C3235 0.950 . S
C3224 H3216 0.950 . S
C3224 C3225 1.386 . S
C3224 C3226 1.391 . S
C3225 C3224 1.386 . S
C3225 C3229 1.393 . S
C3226 H3218 0.950 . S
C3226 C3224 1.391 . S
C3226 C3227 1.400 . S
C3227 C3226 1.400 . S
C3227 C3228 1.398 . S
C3227 C3233 1.491 . S
C3228 H3219 0.950 . S
C3228 C3227 1.398 . S
C3228 C3229 1.391 . S
C3229 H3217 0.920 1_455 S
C3229 C3225 1.393 . S
C3229 C3228 1.391 . S
C3230 H3220 0.950 . S
C3230 C3231 1.386 . S
C3230 C3232 1.391 . S
C3231 C3230 1.386 . S
C3231 C3235 1.393 . S
C3232 H3221 0.950 . S
C3232 C3230 1.391 . S
C3232 C3233 1.400 . S
C3233 C3227 1.491 . S
C3233 C3232 1.400 . S
C3233 C3234 1.398 . S
C3234 H3222 0.950 . S
C3234 C3233 1.398 . S
C3234 C3235 1.391 . S
C3235 H3223 0.950 . S
C3235 C3231 1.393 . S
C3235 C3234 1.391 . S
H3236 C3244 0.950 . S
H3237 C3249 0.950 . S
H3238 C3246 0.950 . S
H3239 C3248 0.950 . S
H3240 C3250 0.950 . S
H3241 C3252 0.950 . S
H3242 C3254 0.950 . S
H3243 C3255 0.950 . S
C3244 H3236 0.950 . S
C3244 C3245 1.386 . S
C3244 C3246 1.391 . S
C3245 C3244 1.386 . S
C3245 C3249 1.393 . S
C3246 H3238 0.950 . S
C3246 C3244 1.391 . S
C3246 C3247 1.400 . S
C3247 C3246 1.400 . S
C3247 C3248 1.398 . S
C3247 C3253 1.491 . S
C3248 H3239 0.950 . S
C3248 C3247 1.398 . S
C3248 C3249 1.391 . S
C3249 H3237 0.950 . S
C3249 C3245 1.393 . S
C3249 C3248 1.391 . S
C3250 H3240 0.950 . S
C3250 C3251 1.386 . S
C3250 C3252 1.391 . S
C3251 C3250 1.386 . S
C3251 C3255 1.393 . S
C3252 H3241 0.950 . S
C3252 C3250 1.391 . S
C3252 C3253 1.400 . S
C3253 C3247 1.491 . S
C3253 C3252 1.400 . S
C3253 C3254 1.398 . S
C3254 H3242 0.950 . S
C3254 C3253 1.398 . S
C3254 C3255 1.391 . S
C3255 H3243 0.950 . S
C3255 C3251 1.393 . S
C3255 C3254 1.391 . S
H3256 C3264 0.950 . S
H3257 C3269 0.950 . S
H3258 C3266 0.950 . S
H3259 C3268 0.950 . S
H3260 C3270 0.950 . S
H3261 C3272 0.950 . S
H3262 C3274 0.950 . S
H3263 C3275 0.950 . S
C3264 H3256 0.950 . S
C3264 C3265 1.386 . S
C3264 C3266 1.391 . S
C3265 C3264 1.386 . S
C3265 C3269 1.393 . S
C3266 H3258 0.950 . S
C3266 C3264 1.391 . S
C3266 C3267 1.400 . S
C3267 C3266 1.400 . S
C3267 C3268 1.398 . S
C3267 C3273 1.491 . S
C3268 H3259 0.950 . S
C3268 C3267 1.398 . S
C3268 C3269 1.391 . S
C3269 H3257 0.950 . S
C3269 C3265 1.393 . S
C3269 C3268 1.391 . S
C3270 H3260 0.950 . S
C3270 C3271 1.386 . S
C3270 C3272 1.391 . S
C3271 C3270 1.386 . S
C3271 C3275 1.393 . S
C3272 H3261 0.950 . S
C3272 C3270 1.391 . S
C3272 C3273 1.400 . S
C3273 C3267 1.491 . S
C3273 C3272 1.400 . S
C3273 C3274 1.398 . S
C3274 H3262 0.950 . S
C3274 C3273 1.398 . S
C3274 C3275 1.391 . S
C3275 H3263 0.950 . S
C3275 C3271 1.393 . S
C3275 C3274 1.391 . S
H3276 C3284 0.950 . S
H3277 C3289 0.950 . S
H3278 C3286 0.950 . S
H3279 C3288 0.950 . S
H3280 C3290 0.950 . S
H3281 C3292 0.950 . S
H3282 C3294 0.950 . S
H3283 C3295 0.938 1_455 S
C3284 H3276 0.950 . S
C3284 C3285 1.386 . S
C3284 C3286 1.391 . S
C3285 C3284 1.386 . S
C3285 C3289 1.393 . S
C3286 H3278 0.950 . S
C3286 C3284 1.391 . S
C3286 C3287 1.400 . S
C3287 C3286 1.400 . S
C3287 C3288 1.398 . S
C3287 C3293 1.491 . S
C3288 H3279 0.950 . S
C3288 C3287 1.398 . S
C3288 C3289 1.391 . S
C3289 H3277 0.950 . S
C3289 C3285 1.393 . S
C3289 C3288 1.391 . S
C3290 H3280 0.950 . S
C3290 C3291 1.386 . S
C3290 C3292 1.391 . S
C3291 C3290 1.386 . S
C3291 C3295 1.393 . S
C3292 H3281 0.950 . S
C3292 C3290 1.391 . S
C3292 C3293 1.400 . S
C3293 C3287 1.491 . S
C3293 C3292 1.400 . S
C3293 C3294 1.398 . S
C3294 H3282 0.950 . S
C3294 C3293 1.398 . S
C3294 C3295 1.391 . S
C3295 H3283 0.938 1_655 S
C3295 C3291 1.393 . S
C3295 C3294 1.391 . S
H3296 C3304 0.950 . S
H3297 C3309 0.950 . S
H3298 C3306 0.950 . S
H3299 C3308 0.950 . S
H3300 C3310 0.950 . S
H3301 C3312 0.950 . S
H3302 C3314 0.950 . S
H3303 C3315 0.950 . S
C3304 H3296 0.950 . S
C3304 C3305 1.386 . S
C3304 C3306 1.391 . S
C3305 C3304 1.386 . S
C3305 C3309 1.393 . S
C3306 H3298 0.950 . S
C3306 C3304 1.391 . S
C3306 C3307 1.400 . S
C3307 C3306 1.400 . S
C3307 C3308 1.398 . S
C3307 C3313 1.491 . S
C3308 H3299 0.950 . S
C3308 C3307 1.398 . S
C3308 C3309 1.391 . S
C3309 H3297 0.950 . S
C3309 C3305 1.393 . S
C3309 C3308 1.391 . S
C3310 H3300 0.950 . S
C3310 C3311 1.386 . S
C3310 C3312 1.391 . S
C3311 C3310 1.386 . S
C3311 C3315 1.393 . S
C3312 H3301 0.950 . S
C3312 C3310 1.391 . S
C3312 C3313 1.400 . S
C3313 C3307 1.491 . S
C3313 C3312 1.400 . S
C3313 C3314 1.398 . S
C3314 H3302 0.950 . S
C3314 C3313 1.398 . S
C3314 C3315 1.391 . S
C3315 H3303 0.950 . S
C3315 C3311 1.393 . S
C3315 C3314 1.391 . S
H3316 C3324 0.950 1_545 S
H3317 C3329 0.950 . S
H3318 C3326 0.950 . S
H3319 C3328 0.950 . S
H3320 C3330 0.950 . S
H3321 C3332 0.950 . S
H3322 C3334 0.950 . S
H3323 C3335 0.950 . S
C3324 H3316 0.950 1_565 S
C3324 C3325 1.386 . S
C3324 C3326 1.391 . S
C3325 C3324 1.386 . S
C3325 C3329 1.393 . S
C3326 H3318 0.950 . S
C3326 C3324 1.391 . S
C3326 C3327 1.400 . S
C3327 C3326 1.400 . S
C3327 C3328 1.398 . S
C3327 C3333 1.491 . S
C3328 H3319 0.950 . S
C3328 C3327 1.398 . S
C3328 C3329 1.391 . S
C3329 H3317 0.950 . S
C3329 C3325 1.393 . S
C3329 C3328 1.391 . S
C3330 H3320 0.950 . S
C3330 C3331 1.386 . S
C3330 C3332 1.391 . S
C3331 C3330 1.386 . S
C3331 C3335 1.393 . S
C3332 H3321 0.950 . S
C3332 C3330 1.391 . S
C3332 C3333 1.400 . S
C3333 C3327 1.491 . S
C3333 C3332 1.400 . S
C3333 C3334 1.398 . S
C3334 H3322 0.950 . S
C3334 C3333 1.398 . S
C3334 C3335 1.391 . S
C3335 H3323 0.950 . S
C3335 C3331 1.393 . S
C3335 C3334 1.391 . S
H3336 C3344 0.950 . S
H3337 C3349 0.950 . S
H3338 C3346 0.950 . S
H3339 C3348 0.950 . S
H3340 C3350 0.950 . S
H3341 C3352 0.950 . S
H3342 C3354 0.950 . S
H3343 C3355 0.950 . S
C3344 H3336 0.950 . S
C3344 C3345 1.386 . S
C3344 C3346 1.391 . S
C3345 C3344 1.386 . S
C3345 C3349 1.393 . S
C3346 H3338 0.950 . S
C3346 C3344 1.391 . S
C3346 C3347 1.400 . S
C3347 C3346 1.400 . S
C3347 C3348 1.398 . S
C3347 C3353 1.491 . S
C3348 H3339 0.950 . S
C3348 C3347 1.398 . S
C3348 C3349 1.391 . S
C3349 H3337 0.950 . S
C3349 C3345 1.393 . S
C3349 C3348 1.391 . S
C3350 H3340 0.950 . S
C3350 C3351 1.386 . S
C3350 C3352 1.391 . S
C3351 C3350 1.386 . S
C3351 C3355 1.393 . S
C3352 H3341 0.950 . S
C3352 C3350 1.391 . S
C3352 C3353 1.400 . S
C3353 C3347 1.491 . S
C3353 C3352 1.400 . S
C3353 C3354 1.398 . S
C3354 H3342 0.950 . S
C3354 C3353 1.398 . S
C3354 C3355 1.391 . S
C3355 H3343 0.950 . S
C3355 C3351 1.393 . S
C3355 C3354 1.391 . S
H3356 C3364 0.950 . S
H3357 C3369 0.950 . S
H3358 C3366 0.950 . S
H3359 C3368 0.950 . S
H3360 C3370 0.950 . S
H3361 C3372 0.950 . S
H3362 C3374 0.950 . S
H3363 C3375 0.950 . S
C3364 H3356 0.950 . S
C3364 C3365 1.386 . S
C3364 C3366 1.391 . S
C3365 C3364 1.386 . S
C3365 C3369 1.393 . S
C3366 H3358 0.950 . S
C3366 C3364 1.391 . S
C3366 C3367 1.400 . S
C3367 C3366 1.400 . S
C3367 C3368 1.398 . S
C3367 C3373 1.491 . S
C3368 H3359 0.950 . S
C3368 C3367 1.398 . S
C3368 C3369 1.391 . S
C3369 H3357 0.950 . S
C3369 C3365 1.393 . S
C3369 C3368 1.391 . S
C3370 H3360 0.950 . S
C3370 C3371 1.386 . S
C3370 C3372 1.391 . S
C3371 C3370 1.386 . S
C3371 C3375 1.393 . S
C3372 H3361 0.950 . S
C3372 C3370 1.391 . S
C3372 C3373 1.400 . S
C3373 C3367 1.491 . S
C3373 C3372 1.400 . S
C3373 C3374 1.398 . S
C3374 H3362 0.950 . S
C3374 C3373 1.398 . S
C3374 C3375 1.391 . S
C3375 H3363 0.950 . S
C3375 C3371 1.393 . S
C3375 C3374 1.391 . S
H3376 C3384 0.950 . S
H3377 C3389 0.950 . S
H3378 C3386 0.950 . S
H3379 C3388 0.950 . S
H3380 C3390 0.950 . S
H3381 C3392 0.950 . S
H3382 C3394 0.950 . S
H3383 C3395 0.950 . S
C3384 H3376 0.950 . S
C3384 C3385 1.386 . S
C3384 C3386 1.391 . S
C3385 C3384 1.386 . S
C3385 C3389 1.393 . S
C3386 H3378 0.950 . S
C3386 C3384 1.391 . S
C3386 C3387 1.400 . S
C3387 C3386 1.400 . S
C3387 C3388 1.398 . S
C3387 C3393 1.491 . S
C3388 H3379 0.950 . S
C3388 C3387 1.398 . S
C3388 C3389 1.391 . S
C3389 H3377 0.950 . S
C3389 C3385 1.393 . S
C3389 C3388 1.391 . S
C3390 H3380 0.950 . S
C3390 C3391 1.386 . S
C3390 C3392 1.391 . S
C3391 C3390 1.386 . S
C3391 C3395 1.393 . S
C3392 H3381 0.950 . S
C3392 C3390 1.391 . S
C3392 C3393 1.400 . S
C3393 C3387 1.491 . S
C3393 C3392 1.400 . S
C3393 C3394 1.398 . S
C3394 H3382 0.950 . S
C3394 C3393 1.398 . S
C3394 C3395 1.391 . S
C3395 H3383 0.950 . S
C3395 C3391 1.393 . S
C3395 C3394 1.391 . S
H3396 C3404 0.950 . S
H3397 C3409 0.950 . S
H3398 C3406 0.950 . S
H3399 C3408 0.950 . S
H3400 C3410 0.950 . S
H3401 C3412 0.950 . S
H3402 C3414 0.950 . S
H3403 C3415 0.950 . S
C3404 H3396 0.950 . S
C3404 C3405 1.386 . S
C3404 C3406 1.391 . S
C3405 C3404 1.386 . S
C3405 C3409 1.393 . S
C3406 H3398 0.950 . S
C3406 C3404 1.391 . S
C3406 C3407 1.400 . S
C3407 C3406 1.400 . S
C3407 C3408 1.398 . S
C3407 C3413 1.491 . S
C3408 H3399 0.950 . S
C3408 C3407 1.398 . S
C3408 C3409 1.391 . S
C3409 H3397 0.950 . S
C3409 C3405 1.393 . S
C3409 C3408 1.391 . S
C3410 H3400 0.950 . S
C3410 C3411 1.386 . S
C3410 C3412 1.391 . S
C3411 C3410 1.386 . S
C3411 C3415 1.393 . S
C3412 H3401 0.950 . S
C3412 C3410 1.391 . S
C3412 C3413 1.400 . S
C3413 C3407 1.491 . S
C3413 C3412 1.400 . S
C3413 C3414 1.398 . S
C3414 H3402 0.950 . S
C3414 C3413 1.398 . S
C3414 C3415 1.391 . S
C3415 H3403 0.950 . S
C3415 C3411 1.393 . S
C3415 C3414 1.391 . S
H3416 C3424 0.950 . S
H3417 C3429 0.950 . S
H3418 C3426 0.950 . S
H3419 C3428 0.950 . S
H3420 C3430 0.950 . S
H3421 C3432 0.950 . S
H3422 C3434 0.950 . S
H3423 C3435 0.950 . S
C3424 H3416 0.950 . S
C3424 C3425 1.386 . S
C3424 C3426 1.391 . S
C3425 C3424 1.386 . S
C3425 C3429 1.393 . S
C3426 H3418 0.950 . S
C3426 C3424 1.391 . S
C3426 C3427 1.400 . S
C3427 C3426 1.400 . S
C3427 C3428 1.398 . S
C3427 C3433 1.491 . S
C3428 H3419 0.950 . S
C3428 C3427 1.398 . S
C3428 C3429 1.391 . S
C3429 H3417 0.950 . S
C3429 C3425 1.393 . S
C3429 C3428 1.391 . S
C3430 H3420 0.950 . S
C3430 C3431 1.386 . S
C3430 C3432 1.391 . S
C3431 C3430 1.386 . S
C3431 C3435 1.393 . S
C3432 H3421 0.950 . S
C3432 C3430 1.391 . S
C3432 C3433 1.400 . S
C3433 C3427 1.491 . S
C3433 C3432 1.400 . S
C3433 C3434 1.398 . S
C3434 H3422 0.950 . S
C3434 C3433 1.398 . S
C3434 C3435 1.391 . S
C3435 H3423 0.950 . S
C3435 C3431 1.393 . S
C3435 C3434 1.391 . S
H3436 C3444 0.950 . S
H3437 C3449 0.950 . S
H3438 C3446 0.950 . S
H3439 C3448 0.950 . S
H3440 C3450 0.950 . S
H3441 C3452 0.950 . S
H3442 C3454 0.950 . S
H3443 C3455 0.950 . S
C3444 H3436 0.950 . S
C3444 C3445 1.386 . S
C3444 C3446 1.391 . S
C3445 C3444 1.386 . S
C3445 C3449 1.393 . S
C3446 H3438 0.950 . S
C3446 C3444 1.391 . S
C3446 C3447 1.400 . S
C3447 C3446 1.400 . S
C3447 C3448 1.398 . S
C3447 C3453 1.491 . S
C3448 H3439 0.950 . S
C3448 C3447 1.398 . S
C3448 C3449 1.391 . S
C3449 H3437 0.950 . S
C3449 C3445 1.393 . S
C3449 C3448 1.391 . S
C3450 H3440 0.950 . S
C3450 C3451 1.386 . S
C3450 C3452 1.391 . S
C3451 C3450 1.386 . S
C3451 C3455 1.393 . S
C3452 H3441 0.950 . S
C3452 C3450 1.391 . S
C3452 C3453 1.400 . S
C3453 C3447 1.491 . S
C3453 C3452 1.400 . S
C3453 C3454 1.398 . S
C3454 H3442 0.950 . S
C3454 C3453 1.398 . S
C3454 C3455 1.391 . S
C3455 H3443 0.950 . S
C3455 C3451 1.393 . S
C3455 C3454 1.391 . S
C2025 C74 2.358 . S
C2031 C1579 2.389 . S
C2045 C1663 2.384 . S
C2051 C158 2.370 . S
C2065 C242 2.357 . S
C2071 C1411 2.388 . S
C2085 C326 2.358 . S
C2091 C1495 2.381 . S
C2105 C1915 2.380 . S
C2111 C410 2.362 . S
C2125 C494 2.363 . S
C2131 C1831 2.394 . S
C2145 C1999 2.394 . S
C2151 C578 2.372 . S
C2165 C662 2.360 . S
C2171 C1747 2.380 . S
C2185 C746 2.357 . S
C2191 C1159 2.381 . S
C2205 C830 2.365 . S
C2211 C1327 2.381 . S
C2225 C1243 2.380 . S
C2231 C914 2.364 . S
C2245 C998 2.371 . S
C2251 C1075 2.385 . S
C2265 C1071 2.364 . S
C2271 C560 2.394 . S
C2285 C1155 2.367 . S
C2291 C644 2.382 . S
C2305 C1239 2.361 . S
C2311 C392 2.392 . S
C2325 C476 2.385 . S
C2331 C1323 2.356 . S
C2345 C1407 2.374 . S
C2351 C896 2.390 . S
C2365 C812 2.387 . S
C2371 C1491 2.372 . S
C2385 C980 2.386 . S
C2391 C1575 2.372 . S
C2405 C728 2.382 . S
C2411 C1659 2.367 . S
C2425 C140 2.382 . S
C2431 C1743 2.357 . S
C2445 C308 2.381 . S
C2451 C1827 2.357 . S
C2465 C224 2.385 . S
C2471 C1911 2.356 . S
C2485 C1995 2.372 . S
C2491 C56 2.395 . S
C2505 C403 1.484 . S
C2511 C70 1.210 . S
C2525 C487 1.502 . S
C2531 C154 1.265 . S
C2545 C571 1.506 . S
C2551 C238 1.231 . S
C2565 C655 1.475 . S
C2571 C322 1.233 . S
C2585 C406 1.220 . S
C2591 C739 1.476 . S
C2605 C490 1.267 . S
C2611 C991 1.493 . S
C2625 C574 1.260 . S
C2631 C823 1.505 . S
C2645 C658 1.213 . S
C2651 C907 1.480 . S
C2665 C742 1.226 . S
C2671 C67 1.504 . S
C2685 C826 1.263 . S
C2691 C235 1.503 . S
C2705 C910 1.230 . S
C2711 C319 1.475 . S
C2725 C151 1.507 . S
C2731 C994 1.249 . S
C2745 C1400 1.503 . S
C2751 C1066 1.223 . S
C2765 C1484 1.506 . S
C2771 C1150 1.255 . S
C2785 C1234 1.211 . S
C2791 C1568 1.494 . S
C2805 C1318 1.252 . S
C2811 C1652 1.507 . S
C2825 C1736 1.482 . S
C2831 C1402 1.210 . S
C2845 C1486 1.211 . S
C2851 C1988 1.482 . S
C2865 C1820 1.506 . S
C2871 C1570 1.256 . S
C2885 C1654 1.246 . S
C2891 C1904 1.477 . S
C2905 C1064 1.481 . S
C2911 C1738 1.211 . S
C2925 C1822 1.236 . S
C2931 C1232 1.507 . S
C2945 C1906 1.267 . S
C2951 C1316 1.495 . S
C2965 C1148 1.485 . S
C2971 C1990 1.209 . S
C2985 C63 1.425 . S
C2991 C814 1.426 . S
C3005 C898 1.441 . S
C3011 C147 1.398 . S
C3025 C730 1.412 . S
C3031 C231 1.429 . S
C3045 C982 1.416 . S
C3051 C315 1.433 . S
C3065 C399 1.409 . S
C3071 C310 1.429 . S
C3085 C226 1.422 . S
C3091 C483 1.416 . S
C3105 C567 1.431 . S
C3111 C142 1.411 . S
C3125 C58 1.421 . S
C3131 C651 1.417 . S
C3145 C735 1.395 . S
C3151 C478 1.448 . S
C3165 C819 1.416 . S
C3171 C646 1.422 . S
C3185 C903 1.427 . S
C3191 C562 1.413 . S
C3205 C987 1.409 . S
C3211 C394 1.429 . S
C3225 C1082 1.425 . S
C3231 C1834 1.426 . S
C3245 C1166 1.399 . S
C3251 C1918 1.447 . S
C3265 C1750 1.448 . S
C3271 C1250 1.398 . S
C3285 C2002 1.424 . S
C3291 C1334 1.414 . S
C3305 C1418 1.396 . S
C3311 C1330 1.448 . S
C3325 C1502 1.411 . S
C3331 C1246 1.426 . S
C3345 C1162 1.431 . S
C3351 C1586 1.420 . S
C3365 C1670 1.420 . S
C3371 C1078 1.419 . S
C3385 C1754 1.395 . S
C3391 C1498 1.448 . S
C3405 C1666 1.417 . S
C3411 C1838 1.422 . S
C3425 C1922 1.399 . S
C3431 C1582 1.439 . S
C3445 C2006 1.405 . S
C3451 C1414 1.433 . S
