# Generated by pormake.
# Topology ume, (4)-cn, num edge types: 1
# Building blocks:
#     Node 0, Type 0, BuildingBlock: GALJAG_clean_sbu_0, # of connection points: 4
#     Node 1, Type 0, BuildingBlock: GALJAG_clean_sbu_0, # of connection points: 4
#     Node 2, Type 0, BuildingBlock: GALJAG_clean_sbu_0, # of connection points: 4
#     Node 3, Type 0, BuildingBlock: GALJAG_clean_sbu_0, # of connection points: 4
#     Node 4, Type 0, BuildingBlock: GALJAG_clean_sbu_0, # of connection points: 4
#     Node 5, Type 0, BuildingBlock: GALJAG_clean_sbu_0, # of connection points: 4
#     Node 6, Type 0, BuildingBlock: GALJAG_clean_sbu_0, # of connection points: 4
#     Node 7, Type 0, BuildingBlock: GALJAG_clean_sbu_0, # of connection points: 4
#     Node 8, Type 0, BuildingBlock: GALJAG_clean_sbu_0, # of connection points: 4
#     Node 9, Type 0, BuildingBlock: GALJAG_clean_sbu_0, # of connection points: 4
#     Node 10, Type 0, BuildingBlock: GALJAG_clean_sbu_0, # of connection points: 4
#     Node 11, Type 0, BuildingBlock: GALJAG_clean_sbu_0, # of connection points: 4
#     Node 12, Type 0, BuildingBlock: GALJAG_clean_sbu_0, # of connection points: 4
#     Node 13, Type 0, BuildingBlock: GALJAG_clean_sbu_0, # of connection points: 4
#     Node 14, Type 0, BuildingBlock: GALJAG_clean_sbu_0, # of connection points: 4
#     Node 15, Type 0, BuildingBlock: GALJAG_clean_sbu_0, # of connection points: 4
#     Edge 16, Type (0, 0), BuildingBlock: EYOCIG_clean_linker_4, # of connection points: 2
#     Edge 17, Type (0, 0), BuildingBlock: EYOCIG_clean_linker_4, # of connection points: 2
#     Edge 18, Type (0, 0), BuildingBlock: EYOCIG_clean_linker_4, # of connection points: 2
#     Edge 19, Type (0, 0), BuildingBlock: EYOCIG_clean_linker_4, # of connection points: 2
#     Edge 20, Type (0, 0), BuildingBlock: EYOCIG_clean_linker_4, # of connection points: 2
#     Edge 21, Type (0, 0), BuildingBlock: EYOCIG_clean_linker_4, # of connection points: 2
#     Edge 22, Type (0, 0), BuildingBlock: EYOCIG_clean_linker_4, # of connection points: 2
#     Edge 23, Type (0, 0), BuildingBlock: EYOCIG_clean_linker_4, # of connection points: 2
#     Edge 24, Type (0, 0), BuildingBlock: EYOCIG_clean_linker_4, # of connection points: 2
#     Edge 25, Type (0, 0), BuildingBlock: EYOCIG_clean_linker_4, # of connection points: 2
#     Edge 26, Type (0, 0), BuildingBlock: EYOCIG_clean_linker_4, # of connection points: 2
#     Edge 27, Type (0, 0), BuildingBlock: EYOCIG_clean_linker_4, # of connection points: 2
#     Edge 28, Type (0, 0), BuildingBlock: EYOCIG_clean_linker_4, # of connection points: 2
#     Edge 29, Type (0, 0), BuildingBlock: EYOCIG_clean_linker_4, # of connection points: 2
#     Edge 30, Type (0, 0), BuildingBlock: EYOCIG_clean_linker_4, # of connection points: 2
#     Edge 31, Type (0, 0), BuildingBlock: EYOCIG_clean_linker_4, # of connection points: 2
#     Edge 32, Type (0, 0), BuildingBlock: EYOCIG_clean_linker_4, # of connection points: 2
#     Edge 33, Type (0, 0), BuildingBlock: EYOCIG_clean_linker_4, # of connection points: 2
#     Edge 34, Type (0, 0), BuildingBlock: EYOCIG_clean_linker_4, # of connection points: 2
#     Edge 35, Type (0, 0), BuildingBlock: EYOCIG_clean_linker_4, # of connection points: 2
#     Edge 36, Type (0, 0), BuildingBlock: EYOCIG_clean_linker_4, # of connection points: 2
#     Edge 37, Type (0, 0), BuildingBlock: EYOCIG_clean_linker_4, # of connection points: 2
#     Edge 38, Type (0, 0), BuildingBlock: EYOCIG_clean_linker_4, # of connection points: 2
#     Edge 39, Type (0, 0), BuildingBlock: EYOCIG_clean_linker_4, # of connection points: 2
#     Edge 40, Type (0, 0), BuildingBlock: EYOCIG_clean_linker_4, # of connection points: 2
#     Edge 41, Type (0, 0), BuildingBlock: EYOCIG_clean_linker_4, # of connection points: 2
#     Edge 42, Type (0, 0), BuildingBlock: EYOCIG_clean_linker_4, # of connection points: 2
#     Edge 43, Type (0, 0), BuildingBlock: EYOCIG_clean_linker_4, # of connection points: 2
#     Edge 44, Type (0, 0), BuildingBlock: EYOCIG_clean_linker_4, # of connection points: 2
#     Edge 45, Type (0, 0), BuildingBlock: EYOCIG_clean_linker_4, # of connection points: 2
#     Edge 46, Type (0, 0), BuildingBlock: EYOCIG_clean_linker_4, # of connection points: 2
#     Edge 47, Type (0, 0), BuildingBlock: EYOCIG_clean_linker_4, # of connection points: 2
# Relax obj value: 0.060
# Max RMSD: 0.125
# Mean RMSD: 0.125
data_MOF--net-ume--node1-GALJAG_clean_sbu_0--edge1-EYOCIG_clean_linker_4
_symmetry_space_group_name_H-M    P1
_symmetry_Int_Tables_number       1
_symmetry_cell_setting            triclinic
loop_
_symmetry_equiv_pos_as_xyz
'x, y, z'
_cell_length_a     22.302371
_cell_length_b     22.291104
_cell_length_c     90.502917
_cell_angle_alpha  89.979307
_cell_angle_beta   90.019535
_cell_angle_gamma 90.000652
loop_
_atom_site_label
_atom_site_type_symbol
_atom_site_fract_x
_atom_site_fract_y
_atom_site_fract_z
_atom_type_partial_charge
In0 In 0.24898 0.09918 0.30315 0.0
O1 O 0.24306 0.17 0.32147 0.0
O2 O 0.2508 0.07749 0.3275 0.0
C3 C 0.26241 0.15424 0.27705 0.0
C4 C 0.13751 0.05385 0.30131 0.0
C5 C 0.35826 0.05021 0.30261 0.0
O6 O 0.26141 0.18382 0.28899 0.0
O7 O 0.2548 0.09852 0.2783 0.0
O8 O 0.31165 0.01924 0.30036 0.0
O9 O 0.34981 0.10496 0.30539 0.0
C10 C 0.2464 0.13123 0.33166 0.0
O11 O 0.18352 0.02081 0.30159 0.0
O12 O 0.14739 0.10958 0.30172 0.0
In13 In 0.89613 0.74928 0.55321 0.0
O14 O 0.82493 0.74242 0.57143 0.0
O15 O 0.9171 0.75114 0.57763 0.0
C16 C 0.84067 0.76209 0.52711 0.0
C17 C 0.9425 0.63811 0.55137 0.0
C18 C 0.94425 0.85911 0.55253 0.0
O19 O 0.81131 0.76108 0.53908 0.0
O20 O 0.89643 0.75482 0.52833 0.0
O21 O 0.97556 0.81268 0.55032 0.0
O22 O 0.88966 0.85022 0.55538 0.0
C23 C 0.86333 0.74602 0.5817 0.0
O24 O 0.97513 0.68441 0.55178 0.0
O25 O 0.88672 0.64757 0.55166 0.0
In26 In 0.24696 0.39684 0.80324 0.0
O27 O 0.31363 0.47436 0.80214 0.0
O28 O 0.34858 0.38516 0.80204 0.0
C29 C 0.1386 0.44771 0.8021 0.0
C30 C 0.2468 0.36385 0.83173 0.0
C31 C 0.2338 0.34218 0.77707 0.0
O32 O 0.1859 0.47789 0.80006 0.0
O33 O 0.14593 0.39291 0.80501 0.0
O34 O 0.23392 0.31252 0.789 0.0
O35 O 0.24231 0.39775 0.77835 0.0
C36 C 0.35922 0.44077 0.80185 0.0
O37 O 0.25047 0.32538 0.82148 0.0
O38 O 0.24345 0.41776 0.82763 0.0
In39 In 0.59993 0.74726 0.05317 0.0
O40 O 0.67031 0.75153 0.0716 0.0
O41 O 0.57762 0.7443 0.07747 0.0
C42 C 0.65494 0.73476 0.02706 0.0
C43 C 0.55556 0.8593 0.05168 0.0
C44 C 0.55159 0.63776 0.0522 0.0
O45 O 0.68452 0.73569 0.03901 0.0
O46 O 0.59919 0.74208 0.02831 0.0
O47 O 0.52038 0.68432 0.05003 0.0
O48 O 0.60614 0.6464 0.05515 0.0
C49 C 0.63131 0.74797 0.08172 0.0
O50 O 0.52214 0.81353 0.05183 0.0
O51 O 0.61118 0.84889 0.05203 0.0
In52 In 0.24876 0.39707 0.93314 0.0
O53 O 0.24288 0.32584 0.91488 0.0
O54 O 0.25068 0.41813 0.90871 0.0
C55 C 0.2623 0.34177 0.95922 0.0
C56 C 0.13703 0.44182 0.9351 0.0
C57 C 0.35759 0.44708 0.93417 0.0
O58 O 0.26207 0.31238 0.94725 0.0
O59 O 0.25386 0.39738 0.958 0.0
O60 O 0.31055 0.47763 0.9362 0.0
O61 O 0.3498 0.39236 0.93125 0.0
C62 C 0.2461 0.36431 0.90462 0.0
O63 O 0.1828 0.47512 0.93455 0.0
O64 O 0.14728 0.38614 0.93486 0.0
In65 In 0.59944 0.74938 0.18326 0.0
O66 O 0.66968 0.7433 0.16481 0.0
O67 O 0.57722 0.75194 0.15891 0.0
C68 C 0.65691 0.76285 0.20905 0.0
C69 C 0.55391 0.63783 0.18518 0.0
C70 C 0.54968 0.85837 0.1844 0.0
O71 O 0.6853 0.76237 0.19695 0.0
O72 O 0.60121 0.75459 0.20812 0.0
O73 O 0.51932 0.81139 0.1867 0.0
O74 O 0.60409 0.85043 0.1812 0.0
C75 C 0.63079 0.74705 0.15467 0.0
O76 O 0.52098 0.68391 0.18484 0.0
O77 O 0.60961 0.64768 0.18478 0.0
In78 In 0.24717 0.10034 0.43315 0.0
O79 O 0.25141 0.17062 0.41469 0.0
O80 O 0.24504 0.07779 0.40885 0.0
C81 C 0.23387 0.15612 0.45917 0.0
C82 C 0.35937 0.05645 0.43483 0.0
C83 C 0.13803 0.051 0.43381 0.0
O84 O 0.23499 0.18536 0.44717 0.0
O85 O 0.24124 0.10032 0.45802 0.0
O86 O 0.18473 0.02022 0.43614 0.0
O87 O 0.14635 0.10569 0.43093 0.0
C88 C 0.24836 0.13149 0.40458 0.0
O89 O 0.31375 0.02284 0.43475 0.0
O90 O 0.34874 0.11203 0.43433 0.0
In91 In 0.89561 0.74733 0.6831 0.0
O92 O 0.82456 0.75166 0.66479 0.0
O93 O 0.91701 0.74496 0.65871 0.0
C94 C 0.84065 0.73418 0.70921 0.0
C95 C 0.9402 0.85929 0.68496 0.0
C96 C 0.9444 0.63792 0.68387 0.0
O97 O 0.81104 0.73569 0.69727 0.0
O98 O 0.89644 0.74106 0.70795 0.0
O99 O 0.97555 0.68457 0.68595 0.0
O100 O 0.88964 0.64641 0.68113 0.0
C101 C 0.86317 0.74828 0.65458 0.0
O102 O 0.97355 0.81349 0.68459 0.0
O103 O 0.88458 0.84896 0.68456 0.0
In104 In 0.7492 0.60027 0.80317 0.0
O105 O 0.7427 0.67057 0.82157 0.0
O106 O 0.75195 0.57808 0.8275 0.0
C107 C 0.76264 0.65717 0.7773 0.0
C108 C 0.63767 0.55471 0.80153 0.0
C109 C 0.85859 0.55153 0.80216 0.0
O110 O 0.76208 0.68582 0.78937 0.0
O111 O 0.75428 0.60146 0.77829 0.0
O112 O 0.81198 0.52068 0.79979 0.0
O113 O 0.85005 0.60587 0.80537 0.0
C114 C 0.74666 0.63167 0.83172 0.0
O115 O 0.68374 0.52175 0.80174 0.0
O116 O 0.64753 0.61045 0.80183 0.0
In117 In 0.39607 0.24957 0.05327 0.0
O118 O 0.32453 0.24458 0.07144 0.0
O119 O 0.41662 0.25314 0.07769 0.0
C120 C 0.33954 0.26398 0.02735 0.0
C121 C 0.44128 0.13773 0.05172 0.0
C122 C 0.44756 0.35772 0.05226 0.0
O123 O 0.31083 0.26363 0.03941 0.0
O124 O 0.39509 0.25497 0.02838 0.0
O125 O 0.47726 0.31033 0.04998 0.0
O126 O 0.39294 0.35059 0.05534 0.0
C127 C 0.36276 0.24882 0.08173 0.0
O128 O 0.4743 0.18372 0.05205 0.0
O129 O 0.38559 0.14775 0.05191 0.0
In130 In 0.74729 0.89576 0.30322 0.0
O131 O 0.75295 0.82464 0.32148 0.0
O132 O 0.74612 0.91708 0.32761 0.0
C133 C 0.73362 0.84035 0.27716 0.0
C134 C 0.85918 0.94008 0.30131 0.0
C135 C 0.63831 0.94559 0.30268 0.0
O136 O 0.7344 0.81101 0.28914 0.0
O137 O 0.74137 0.89608 0.27835 0.0
O138 O 0.68514 0.97622 0.3004 0.0
O139 O 0.64641 0.8908 0.30548 0.0
C140 C 0.7502 0.86323 0.33172 0.0
O141 O 0.8135 0.97356 0.30166 0.0
O142 O 0.84875 0.88445 0.30168 0.0
In143 In 0.10059 0.24748 0.55323 0.0
O144 O 0.02303 0.31409 0.55177 0.0
O145 O 0.11216 0.34905 0.55166 0.0
C146 C 0.049 0.13922 0.55242 0.0
C147 C 0.13368 0.24938 0.58172 0.0
C148 C 0.15691 0.23325 0.5273 0.0
O149 O 0.01924 0.18661 0.55015 0.0
O150 O 0.10375 0.1464 0.55537 0.0
O151 O 0.18573 0.2336 0.53935 0.0
O152 O 0.10129 0.24182 0.52835 0.0
C153 C 0.0566 0.35969 0.55136 0.0
O154 O 0.17202 0.25243 0.57145 0.0
O155 O 0.07978 0.24553 0.57766 0.0
In156 In 0.74923 0.89619 0.43304 0.0
O157 O 0.68384 0.97487 0.43446 0.0
O158 O 0.64743 0.88632 0.43436 0.0
C159 C 0.85798 0.94651 0.43373 0.0
C160 C 0.7481 0.8632 0.40456 0.0
C161 C 0.76309 0.83955 0.45898 0.0
O162 O 0.81102 0.9768 0.43608 0.0
O163 O 0.85013 0.89181 0.43081 0.0
O164 O 0.76193 0.81076 0.44694 0.0
O165 O 0.75535 0.89532 0.45793 0.0
C166 C 0.63769 0.94207 0.43471 0.0
O167 O 0.74407 0.82482 0.41482 0.0
O168 O 0.75221 0.91707 0.40863 0.0
In169 In 0.09982 0.24946 0.68301 0.0
O170 O 0.17151 0.24364 0.66486 0.0
O171 O 0.07951 0.25203 0.65855 0.0
C172 C 0.15617 0.26467 0.70891 0.0
C173 C 0.05451 0.13773 0.68503 0.0
C174 C 0.0486 0.35781 0.68375 0.0
O175 O 0.18499 0.26383 0.69687 0.0
O176 O 0.10059 0.25585 0.70788 0.0
O177 O 0.01867 0.31053 0.68601 0.0
O178 O 0.10333 0.35046 0.68082 0.0
C179 C 0.13341 0.24755 0.65455 0.0
O180 O 0.02151 0.1837 0.68448 0.0
O181 O 0.1102 0.14773 0.68476 0.0
In182 In 0.74666 0.60017 0.93323 0.0
O183 O 0.75154 0.67039 0.91476 0.0
O184 O 0.74371 0.57774 0.90891 0.0
C185 C 0.73268 0.65732 0.95902 0.0
C186 C 0.85853 0.55549 0.93521 0.0
C187 C 0.63767 0.55067 0.93438 0.0
O188 O 0.73385 0.6859 0.94693 0.0
O189 O 0.7406 0.60154 0.95808 0.0
O190 O 0.68454 0.52006 0.93662 0.0
O191 O 0.64575 0.60514 0.93124 0.0
C192 C 0.74768 0.6314 0.90464 0.0
O193 O 0.81274 0.52218 0.93485 0.0
O194 O 0.84826 0.61115 0.93478 0.0
In195 In 0.39566 0.24725 0.18306 0.0
O196 O 0.32465 0.25344 0.1648 0.0
O197 O 0.41687 0.24497 0.15866 0.0
C198 C 0.33938 0.23239 0.20894 0.0
C199 C 0.44002 0.35927 0.18508 0.0
C200 C 0.44579 0.13844 0.18413 0.0
O201 O 0.31055 0.2329 0.19689 0.0
O202 O 0.39493 0.24147 0.20792 0.0
O203 O 0.47617 0.1855 0.18632 0.0
O204 O 0.39128 0.14624 0.18102 0.0
C205 C 0.36309 0.24983 0.15455 0.0
O206 O 0.47346 0.31359 0.18451 0.0
O207 O 0.38441 0.34879 0.18486 0.0
C208 C 0.96928 0.98422 0.30075 0.0
C209 C 0.91916 0.96376 0.30101 0.0
C210 C 0.02783 0.00868 0.30076 0.0
C211 C 0.07779 0.02954 0.30101 0.0
C212 C 0.98819 0.52856 0.5508 0.0
C213 C 0.96723 0.57851 0.55106 0.0
C214 C 0.01266 0.46996 0.55079 0.0
C215 C 0.03308 0.41979 0.55105 0.0
C216 C 0.52794 0.50946 0.80141 0.0
C217 C 0.57792 0.53035 0.80147 0.0
C218 C 0.4694 0.48489 0.8015 0.0
C219 C 0.41928 0.46436 0.80166 0.0
C220 C 0.48652 0.02795 0.05142 0.0
C221 C 0.46556 0.07792 0.05156 0.0
C222 C 0.51118 0.96942 0.05142 0.0
C223 C 0.5318 0.91931 0.05154 0.0
C224 C 0.0271 0.48643 0.93587 0.0
C225 C 0.07714 0.46575 0.93552 0.0
C226 C 0.96851 0.51091 0.9359 0.0
C227 C 0.91846 0.53158 0.93558 0.0
C228 C 0.48416 0.46947 0.18574 0.0
C229 C 0.46371 0.41931 0.18544 0.0
C230 C 0.50863 0.52809 0.18576 0.0
C231 C 0.52953 0.57807 0.18549 0.0
C232 C 0.46965 0.01252 0.43517 0.0
C233 C 0.41947 0.03292 0.43502 0.0
C234 C 0.52818 0.98787 0.43515 0.0
C235 C 0.57802 0.96665 0.43495 0.0
C236 C 0.00925 0.02796 0.68573 0.0
C237 C 0.03022 0.07792 0.68541 0.0
C238 C 0.98463 0.96939 0.68571 0.0
C239 C 0.96403 0.91928 0.68537 0.0
C240 C 0.52841 0.98843 0.3015 0.0
C241 C 0.57931 0.97063 0.30193 0.0
C242 C 0.46834 0.00785 0.30149 0.0
C243 C 0.4174 0.02552 0.30191 0.0
C244 C 0.98565 0.96961 0.5511 0.0
C245 C 0.96837 0.91851 0.55166 0.0
C246 C 0.00497 0.02977 0.55106 0.0
C247 C 0.02307 0.08058 0.55156 0.0
C248 C 0.02906 0.49104 0.80041 0.0
C249 C 0.07992 0.47328 0.80106 0.0
C250 C 0.96887 0.51007 0.80043 0.0
C251 C 0.9178 0.52722 0.8011 0.0
C252 C 0.51031 0.52734 0.05067 0.0
C253 C 0.52739 0.57846 0.05126 0.0
C254 C 0.49129 0.46714 0.05067 0.0
C255 C 0.47338 0.41631 0.05127 0.0
C256 C 0.4674 0.4897 0.93604 0.0
C257 C 0.41648 0.47214 0.9353 0.0
C258 C 0.5276 0.50868 0.93611 0.0
C259 C 0.57864 0.52594 0.93544 0.0
C260 C 0.50723 0.9683 0.18617 0.0
C261 C 0.52473 0.91733 0.18548 0.0
C262 C 0.48817 0.02851 0.1861 0.0
C263 C 0.47073 0.07949 0.18532 0.0
C264 C 0.96776 0.98957 0.43491 0.0
C265 C 0.91685 0.9718 0.43449 0.0
C266 C 0.0279 0.00876 0.43493 0.0
C267 C 0.07892 0.02623 0.43453 0.0
C268 C 0.00509 0.46737 0.68519 0.0
C269 C 0.02294 0.4165 0.68466 0.0
C270 C 0.98604 0.52757 0.68521 0.0
C271 C 0.96884 0.57868 0.6847 0.0
C272 C 0.24628 0.15171 0.36032 0.0
C273 C 0.246 0.14619 0.34707 0.0
C274 C 0.24727 0.15162 0.37591 0.0
C275 C 0.24802 0.14608 0.38915 0.0
C276 C 0.84204 0.74523 0.61033 0.0
C277 C 0.8479 0.74521 0.59709 0.0
C278 C 0.84205 0.74635 0.62593 0.0
C279 C 0.8479 0.7475 0.63917 0.0
C280 C 0.24542 0.34271 0.86038 0.0
C281 C 0.24633 0.34844 0.84713 0.0
C282 C 0.24479 0.34293 0.87598 0.0
C283 C 0.24506 0.34893 0.88922 0.0
C284 C 0.65137 0.74699 0.1104 0.0
C285 C 0.64595 0.74772 0.09715 0.0
C286 C 0.65117 0.74627 0.126 0.0
C287 C 0.64549 0.74628 0.13924 0.0
C288 C 0.74558 0.6519 0.86038 0.0
C289 C 0.7457 0.64638 0.84714 0.0
C290 C 0.74639 0.65178 0.87597 0.0
C291 C 0.74728 0.6461 0.88921 0.0
C292 C 0.34154 0.25066 0.12593 0.0
C293 C 0.34767 0.25063 0.13917 0.0
C294 C 0.34125 0.24986 0.11034 0.0
C295 C 0.34711 0.24903 0.0971 0.0
C296 C 0.75076 0.84198 0.36035 0.0
C297 C 0.7508 0.84791 0.34711 0.0
C298 C 0.7497 0.84186 0.37594 0.0
C299 C 0.74863 0.8477 0.38918 0.0
C300 C 0.15534 0.24826 0.62594 0.0
C301 C 0.14925 0.24758 0.63918 0.0
C302 C 0.15532 0.24925 0.61034 0.0
C303 C 0.14928 0.2496 0.59711 0.0
C304 C 0.28338 0.19612 0.25034 0.0
C305 C 0.27407 0.18067 0.26289 0.0
C306 C 0.2967 0.20966 0.23547 0.0
C307 C 0.31241 0.21967 0.22297 0.0
C308 C 0.78474 0.79623 0.48554 0.0
C309 C 0.77513 0.81225 0.47303 0.0
C310 C 0.79829 0.78272 0.50042 0.0
C311 C 0.81398 0.77354 0.51297 0.0
C312 C 0.19901 0.28734 0.73544 0.0
C313 C 0.18321 0.27733 0.72295 0.0
C314 C 0.21247 0.30079 0.75032 0.0
C315 C 0.22189 0.3161 0.76288 0.0
C316 C 0.71054 0.70078 0.98549 0.0
C317 C 0.72036 0.68481 0.97301 0.0
C318 C 0.69697 0.71416 0.00036 0.0
C319 C 0.6814 0.72333 0.01291 0.0
C320 C 0.29666 0.28643 0.00081 0.0
C321 C 0.31246 0.27654 0.01332 0.0
C322 C 0.28333 0.29989 0.98593 0.0
C323 C 0.27406 0.31533 0.97337 0.0
C324 C 0.71335 0.79788 0.25048 0.0
C325 C 0.72233 0.8136 0.26302 0.0
C326 C 0.70028 0.78438 0.23558 0.0
C327 C 0.68445 0.77488 0.22306 0.0
C328 C 0.21322 0.1987 0.48582 0.0
C329 C 0.2224 0.18301 0.47328 0.0
C330 C 0.19987 0.21201 0.50071 0.0
C331 C 0.18401 0.22137 0.51323 0.0
C332 C 0.79843 0.71373 0.73591 0.0
C333 C 0.81411 0.72287 0.72337 0.0
C334 C 0.78476 0.7004 0.75078 0.0
C335 C 0.77498 0.68447 0.76328 0.0
loop_
_geom_bond_atom_site_label_1
_geom_bond_atom_site_label_2
_geom_bond_distance
_geom_bond_site_symmetry_2
_ccdc_geom_bond_type
In0 O1 2.294 . S
In0 O2 2.326 . S
In0 O6 2.266 . S
In0 O7 2.326 . S
In0 O8 2.266 . S
In0 O9 2.326 . S
In0 O11 2.294 . S
In0 O12 2.326 . S
O1 In0 2.294 . S
O1 C10 1.240 . S
O2 In0 2.326 . S
O2 C10 1.252 . S
C3 O6 1.252 . S
C3 O7 1.260 . S
C4 O11 1.240 . S
C4 O12 1.252 . S
C5 O8 1.252 . S
C5 O9 1.260 . S
O6 In0 2.266 . S
O6 C3 1.252 . S
O7 In0 2.326 . S
O7 C3 1.260 . S
O8 In0 2.266 . S
O8 C5 1.252 . S
O9 In0 2.326 . S
O9 C5 1.260 . S
C10 O1 1.240 . S
C10 O2 1.252 . S
O11 In0 2.294 . S
O11 C4 1.240 . S
O12 In0 2.326 . S
O12 C4 1.252 . S
In13 O14 2.294 . S
In13 O15 2.326 . S
In13 O19 2.266 . S
In13 O20 2.326 . S
In13 O21 2.266 . S
In13 O22 2.326 . S
In13 O24 2.294 . S
In13 O25 2.326 . S
O14 In13 2.294 . S
O14 C23 1.240 . S
O15 In13 2.326 . S
O15 C23 1.252 . S
C16 O19 1.252 . S
C16 O20 1.260 . S
C17 O24 1.240 . S
C17 O25 1.252 . S
C18 O21 1.252 . S
C18 O22 1.260 . S
O19 In13 2.266 . S
O19 C16 1.252 . S
O20 In13 2.326 . S
O20 C16 1.260 . S
O21 In13 2.266 . S
O21 C18 1.252 . S
O22 In13 2.326 . S
O22 C18 1.260 . S
C23 O14 1.240 . S
C23 O15 1.252 . S
O24 In13 2.294 . S
O24 C17 1.240 . S
O25 In13 2.326 . S
O25 C17 1.252 . S
In26 O27 2.294 . S
In26 O28 2.326 . S
In26 O32 2.266 . S
In26 O33 2.326 . S
In26 O34 2.266 . S
In26 O35 2.326 . S
In26 O37 2.294 . S
In26 O38 2.326 . S
O27 In26 2.294 . S
O27 C36 1.240 . S
O28 In26 2.326 . S
O28 C36 1.252 . S
C29 O32 1.252 . S
C29 O33 1.260 . S
C30 O37 1.240 . S
C30 O38 1.252 . S
C31 O34 1.252 . S
C31 O35 1.260 . S
O32 In26 2.266 . S
O32 C29 1.252 . S
O33 In26 2.326 . S
O33 C29 1.260 . S
O34 In26 2.266 . S
O34 C31 1.252 . S
O35 In26 2.326 . S
O35 C31 1.260 . S
C36 O27 1.240 . S
C36 O28 1.252 . S
O37 In26 2.294 . S
O37 C30 1.240 . S
O38 In26 2.326 . S
O38 C30 1.252 . S
In39 O40 2.294 . S
In39 O41 2.326 . S
In39 O45 2.266 . S
In39 O46 2.326 . S
In39 O47 2.266 . S
In39 O48 2.326 . S
In39 O50 2.294 . S
In39 O51 2.326 . S
O40 In39 2.294 . S
O40 C49 1.240 . S
O41 In39 2.326 . S
O41 C49 1.252 . S
C42 O45 1.252 . S
C42 O46 1.260 . S
C43 O50 1.240 . S
C43 O51 1.252 . S
C44 O47 1.252 . S
C44 O48 1.260 . S
O45 In39 2.266 . S
O45 C42 1.252 . S
O46 In39 2.326 . S
O46 C42 1.260 . S
O47 In39 2.266 . S
O47 C44 1.252 . S
O48 In39 2.326 . S
O48 C44 1.260 . S
C49 O40 1.240 . S
C49 O41 1.252 . S
O50 In39 2.294 . S
O50 C43 1.240 . S
O51 In39 2.326 . S
O51 C43 1.252 . S
In52 O53 2.294 . S
In52 O54 2.326 . S
In52 O58 2.266 . S
In52 O59 2.326 . S
In52 O60 2.266 . S
In52 O61 2.326 . S
In52 O63 2.294 . S
In52 O64 2.326 . S
O53 In52 2.294 . S
O53 C62 1.240 . S
O54 In52 2.326 . S
O54 C62 1.252 . S
C55 O58 1.252 . S
C55 O59 1.260 . S
C56 O63 1.240 . S
C56 O64 1.252 . S
C57 O60 1.252 . S
C57 O61 1.260 . S
O58 In52 2.266 . S
O58 C55 1.252 . S
O59 In52 2.326 . S
O59 C55 1.260 . S
O60 In52 2.266 . S
O60 C57 1.252 . S
O61 In52 2.326 . S
O61 C57 1.260 . S
C62 O53 1.240 . S
C62 O54 1.252 . S
O63 In52 2.294 . S
O63 C56 1.240 . S
O64 In52 2.326 . S
O64 C56 1.252 . S
In65 O66 2.294 . S
In65 O67 2.326 . S
In65 O71 2.266 . S
In65 O72 2.326 . S
In65 O73 2.266 . S
In65 O74 2.326 . S
In65 O76 2.294 . S
In65 O77 2.326 . S
O66 In65 2.294 . S
O66 C75 1.240 . S
O67 In65 2.326 . S
O67 C75 1.252 . S
C68 O71 1.252 . S
C68 O72 1.260 . S
C69 O76 1.240 . S
C69 O77 1.252 . S
C70 O73 1.252 . S
C70 O74 1.260 . S
O71 In65 2.266 . S
O71 C68 1.252 . S
O72 In65 2.326 . S
O72 C68 1.260 . S
O73 In65 2.266 . S
O73 C70 1.252 . S
O74 In65 2.326 . S
O74 C70 1.260 . S
C75 O66 1.240 . S
C75 O67 1.252 . S
O76 In65 2.294 . S
O76 C69 1.240 . S
O77 In65 2.326 . S
O77 C69 1.252 . S
In78 O79 2.294 . S
In78 O80 2.326 . S
In78 O84 2.266 . S
In78 O85 2.326 . S
In78 O86 2.266 . S
In78 O87 2.326 . S
In78 O89 2.294 . S
In78 O90 2.326 . S
O79 In78 2.294 . S
O79 C88 1.240 . S
O80 In78 2.326 . S
O80 C88 1.252 . S
C81 O84 1.252 . S
C81 O85 1.260 . S
C82 O89 1.240 . S
C82 O90 1.252 . S
C83 O86 1.252 . S
C83 O87 1.260 . S
O84 In78 2.266 . S
O84 C81 1.252 . S
O85 In78 2.326 . S
O85 C81 1.260 . S
O86 In78 2.266 . S
O86 C83 1.252 . S
O87 In78 2.326 . S
O87 C83 1.260 . S
C88 O79 1.240 . S
C88 O80 1.252 . S
O89 In78 2.294 . S
O89 C82 1.240 . S
O90 In78 2.326 . S
O90 C82 1.252 . S
In91 O92 2.294 . S
In91 O93 2.326 . S
In91 O97 2.266 . S
In91 O98 2.326 . S
In91 O99 2.266 . S
In91 O100 2.326 . S
In91 O102 2.294 . S
In91 O103 2.326 . S
O92 In91 2.294 . S
O92 C101 1.240 . S
O93 In91 2.326 . S
O93 C101 1.252 . S
C94 O97 1.252 . S
C94 O98 1.260 . S
C95 O102 1.240 . S
C95 O103 1.252 . S
C96 O99 1.252 . S
C96 O100 1.260 . S
O97 In91 2.266 . S
O97 C94 1.252 . S
O98 In91 2.326 . S
O98 C94 1.260 . S
O99 In91 2.266 . S
O99 C96 1.252 . S
O100 In91 2.326 . S
O100 C96 1.260 . S
C101 O92 1.240 . S
C101 O93 1.252 . S
O102 In91 2.294 . S
O102 C95 1.240 . S
O103 In91 2.326 . S
O103 C95 1.252 . S
In104 O105 2.294 . S
In104 O106 2.326 . S
In104 O110 2.266 . S
In104 O111 2.326 . S
In104 O112 2.266 . S
In104 O113 2.326 . S
In104 O115 2.294 . S
In104 O116 2.326 . S
O105 In104 2.294 . S
O105 C114 1.240 . S
O106 In104 2.326 . S
O106 C114 1.252 . S
C107 O110 1.252 . S
C107 O111 1.260 . S
C108 O115 1.240 . S
C108 O116 1.252 . S
C109 O112 1.252 . S
C109 O113 1.260 . S
O110 In104 2.266 . S
O110 C107 1.252 . S
O111 In104 2.326 . S
O111 C107 1.260 . S
O112 In104 2.266 . S
O112 C109 1.252 . S
O113 In104 2.326 . S
O113 C109 1.260 . S
C114 O105 1.240 . S
C114 O106 1.252 . S
O115 In104 2.294 . S
O115 C108 1.240 . S
O116 In104 2.326 . S
O116 C108 1.252 . S
In117 O118 2.294 . S
In117 O119 2.326 . S
In117 O123 2.266 . S
In117 O124 2.326 . S
In117 O125 2.266 . S
In117 O126 2.326 . S
In117 O128 2.294 . S
In117 O129 2.326 . S
O118 In117 2.294 . S
O118 C127 1.240 . S
O119 In117 2.326 . S
O119 C127 1.252 . S
C120 O123 1.252 . S
C120 O124 1.260 . S
C121 O128 1.240 . S
C121 O129 1.252 . S
C122 O125 1.252 . S
C122 O126 1.260 . S
O123 In117 2.266 . S
O123 C120 1.252 . S
O124 In117 2.326 . S
O124 C120 1.260 . S
O125 In117 2.266 . S
O125 C122 1.252 . S
O126 In117 2.326 . S
O126 C122 1.260 . S
C127 O118 1.240 . S
C127 O119 1.252 . S
O128 In117 2.294 . S
O128 C121 1.240 . S
O129 In117 2.326 . S
O129 C121 1.252 . S
In130 O131 2.294 . S
In130 O132 2.326 . S
In130 O136 2.266 . S
In130 O137 2.326 . S
In130 O138 2.266 . S
In130 O139 2.326 . S
In130 O141 2.294 . S
In130 O142 2.326 . S
O131 In130 2.294 . S
O131 C140 1.240 . S
O132 In130 2.326 . S
O132 C140 1.252 . S
C133 O136 1.252 . S
C133 O137 1.260 . S
C134 O141 1.240 . S
C134 O142 1.252 . S
C135 O138 1.252 . S
C135 O139 1.260 . S
O136 In130 2.266 . S
O136 C133 1.252 . S
O137 In130 2.326 . S
O137 C133 1.260 . S
O138 In130 2.266 . S
O138 C135 1.252 . S
O139 In130 2.326 . S
O139 C135 1.260 . S
C140 O131 1.240 . S
C140 O132 1.252 . S
O141 In130 2.294 . S
O141 C134 1.240 . S
O142 In130 2.326 . S
O142 C134 1.252 . S
In143 O144 2.294 . S
In143 O145 2.326 . S
In143 O149 2.266 . S
In143 O150 2.326 . S
In143 O151 2.266 . S
In143 O152 2.326 . S
In143 O154 2.294 . S
In143 O155 2.326 . S
O144 In143 2.294 . S
O144 C153 1.240 . S
O145 In143 2.326 . S
O145 C153 1.252 . S
C146 O149 1.252 . S
C146 O150 1.260 . S
C147 O154 1.240 . S
C147 O155 1.252 . S
C148 O151 1.252 . S
C148 O152 1.260 . S
O149 In143 2.266 . S
O149 C146 1.252 . S
O150 In143 2.326 . S
O150 C146 1.260 . S
O151 In143 2.266 . S
O151 C148 1.252 . S
O152 In143 2.326 . S
O152 C148 1.260 . S
C153 O144 1.240 . S
C153 O145 1.252 . S
O154 In143 2.294 . S
O154 C147 1.240 . S
O155 In143 2.326 . S
O155 C147 1.252 . S
In156 O157 2.294 . S
In156 O158 2.326 . S
In156 O162 2.266 . S
In156 O163 2.326 . S
In156 O164 2.266 . S
In156 O165 2.326 . S
In156 O167 2.294 . S
In156 O168 2.326 . S
O157 In156 2.294 . S
O157 C166 1.240 . S
O158 In156 2.326 . S
O158 C166 1.252 . S
C159 O162 1.252 . S
C159 O163 1.260 . S
C160 O167 1.240 . S
C160 O168 1.252 . S
C161 O164 1.252 . S
C161 O165 1.260 . S
O162 In156 2.266 . S
O162 C159 1.252 . S
O163 In156 2.326 . S
O163 C159 1.260 . S
O164 In156 2.266 . S
O164 C161 1.252 . S
O165 In156 2.326 . S
O165 C161 1.260 . S
C166 O157 1.240 . S
C166 O158 1.252 . S
O167 In156 2.294 . S
O167 C160 1.240 . S
O168 In156 2.326 . S
O168 C160 1.252 . S
In169 O170 2.294 . S
In169 O171 2.326 . S
In169 O175 2.266 . S
In169 O176 2.326 . S
In169 O177 2.266 . S
In169 O178 2.326 . S
In169 O180 2.294 . S
In169 O181 2.326 . S
O170 In169 2.294 . S
O170 C179 1.240 . S
O171 In169 2.326 . S
O171 C179 1.252 . S
C172 O175 1.252 . S
C172 O176 1.260 . S
C173 O180 1.240 . S
C173 O181 1.252 . S
C174 O177 1.252 . S
C174 O178 1.260 . S
O175 In169 2.266 . S
O175 C172 1.252 . S
O176 In169 2.326 . S
O176 C172 1.260 . S
O177 In169 2.266 . S
O177 C174 1.252 . S
O178 In169 2.326 . S
O178 C174 1.260 . S
C179 O170 1.240 . S
C179 O171 1.252 . S
O180 In169 2.294 . S
O180 C173 1.240 . S
O181 In169 2.326 . S
O181 C173 1.252 . S
In182 O183 2.294 . S
In182 O184 2.326 . S
In182 O188 2.266 . S
In182 O189 2.326 . S
In182 O190 2.266 . S
In182 O191 2.326 . S
In182 O193 2.294 . S
In182 O194 2.326 . S
O183 In182 2.294 . S
O183 C192 1.240 . S
O184 In182 2.326 . S
O184 C192 1.252 . S
C185 O188 1.252 . S
C185 O189 1.260 . S
C186 O193 1.240 . S
C186 O194 1.252 . S
C187 O190 1.252 . S
C187 O191 1.260 . S
O188 In182 2.266 . S
O188 C185 1.252 . S
O189 In182 2.326 . S
O189 C185 1.260 . S
O190 In182 2.266 . S
O190 C187 1.252 . S
O191 In182 2.326 . S
O191 C187 1.260 . S
C192 O183 1.240 . S
C192 O184 1.252 . S
O193 In182 2.294 . S
O193 C186 1.240 . S
O194 In182 2.326 . S
O194 C186 1.252 . S
In195 O196 2.294 . S
In195 O197 2.326 . S
In195 O201 2.266 . S
In195 O202 2.326 . S
In195 O203 2.266 . S
In195 O204 2.326 . S
In195 O206 2.294 . S
In195 O207 2.326 . S
O196 In195 2.294 . S
O196 C205 1.240 . S
O197 In195 2.326 . S
O197 C205 1.252 . S
C198 O201 1.252 . S
C198 O202 1.260 . S
C199 O206 1.240 . S
C199 O207 1.252 . S
C200 O203 1.252 . S
C200 O204 1.260 . S
O201 In195 2.266 . S
O201 C198 1.252 . S
O202 In195 2.326 . S
O202 C198 1.260 . S
O203 In195 2.266 . S
O203 C200 1.252 . S
O204 In195 2.326 . S
O204 C200 1.260 . S
C205 O196 1.240 . S
C205 O197 1.252 . S
O206 In195 2.294 . S
O206 C199 1.240 . S
O207 In195 2.326 . S
O207 C199 1.252 . S
C208 C209 1.170 . S
C208 C210 1.380 1_665 S
C209 C208 1.170 . S
C210 C208 1.380 1_445 S
C210 C211 1.170 . S
C211 C210 1.170 . S
C212 C213 1.170 . S
C212 C214 1.380 1_655 S
C213 C212 1.170 . S
C214 C212 1.380 1_455 S
C214 C215 1.170 . S
C215 C214 1.170 . S
C216 C217 1.170 . S
C216 C218 1.380 . S
C217 C216 1.170 . S
C218 C216 1.380 . S
C218 C219 1.170 . S
C219 C218 1.170 . S
C220 C221 1.170 . S
C220 C222 1.380 1_545 S
C221 C220 1.170 . S
C222 C220 1.380 1_565 S
C222 C223 1.170 . S
C223 C222 1.170 . S
C224 C225 1.170 . S
C224 C226 1.380 1_455 S
C225 C224 1.170 . S
C226 C224 1.380 1_655 S
C226 C227 1.170 . S
C227 C226 1.170 . S
C228 C229 1.170 . S
C228 C230 1.380 . S
C229 C228 1.170 . S
C230 C228 1.380 . S
C230 C231 1.170 . S
C231 C230 1.170 . S
C232 C233 1.170 . S
C232 C234 1.380 1_545 S
C233 C232 1.170 . S
C234 C232 1.380 1_565 S
C234 C235 1.170 . S
C235 C234 1.170 . S
C236 C237 1.170 . S
C236 C238 1.380 1_445 S
C237 C236 1.170 . S
C238 C236 1.380 1_665 S
C238 C239 1.170 . S
C239 C238 1.170 . S
C240 C241 1.170 . S
C240 C242 1.380 1_565 S
C241 C240 1.170 . S
C242 C240 1.380 1_545 S
C242 C243 1.170 . S
C243 C242 1.170 . S
C244 C245 1.170 . S
C244 C246 1.380 1_665 S
C245 C244 1.170 . S
C246 C244 1.380 1_445 S
C246 C247 1.170 . S
C247 C246 1.170 . S
C248 C249 1.170 . S
C248 C250 1.380 1_455 S
C249 C248 1.170 . S
C250 C248 1.380 1_655 S
C250 C251 1.170 . S
C251 C250 1.170 . S
C252 C253 1.170 . S
C252 C254 1.380 . S
C253 C252 1.170 . S
C254 C252 1.380 . S
C254 C255 1.170 . S
C255 C254 1.170 . S
C256 C257 1.170 . S
C256 C258 1.380 . S
C257 C256 1.170 . S
C258 C256 1.380 . S
C258 C259 1.170 . S
C259 C258 1.170 . S
C260 C261 1.170 . S
C260 C262 1.380 1_565 S
C261 C260 1.170 . S
C262 C260 1.380 1_545 S
C262 C263 1.170 . S
C263 C262 1.170 . S
C264 C265 1.170 . S
C264 C266 1.380 1_665 S
C265 C264 1.170 . S
C266 C264 1.380 1_445 S
C266 C267 1.170 . S
C267 C266 1.170 . S
C268 C269 1.170 . S
C268 C270 1.380 1_455 S
C269 C268 1.170 . S
C270 C268 1.380 1_655 S
C270 C271 1.170 . S
C271 C270 1.170 . S
C272 C273 1.170 . S
C272 C274 1.380 . S
C273 C272 1.170 . S
C274 C272 1.380 . S
C274 C275 1.170 . S
C275 C274 1.170 . S
C276 C277 1.170 . S
C276 C278 1.380 . S
C277 C276 1.170 . S
C278 C276 1.380 . S
C278 C279 1.170 . S
C279 C278 1.170 . S
C280 C281 1.170 . S
C280 C282 1.380 . S
C281 C280 1.170 . S
C282 C280 1.380 . S
C282 C283 1.170 . S
C283 C282 1.170 . S
C284 C285 1.170 . S
C284 C286 1.380 . S
C285 C284 1.170 . S
C286 C284 1.380 . S
C286 C287 1.170 . S
C287 C286 1.170 . S
C288 C289 1.170 . S
C288 C290 1.380 . S
C289 C288 1.170 . S
C290 C288 1.380 . S
C290 C291 1.170 . S
C291 C290 1.170 . S
C292 C293 1.170 . S
C292 C294 1.380 . S
C293 C292 1.170 . S
C294 C292 1.380 . S
C294 C295 1.170 . S
C295 C294 1.170 . S
C296 C297 1.170 . S
C296 C298 1.380 . S
C297 C296 1.170 . S
C298 C296 1.380 . S
C298 C299 1.170 . S
C299 C298 1.170 . S
C300 C301 1.170 . S
C300 C302 1.380 . S
C301 C300 1.170 . S
C302 C300 1.380 . S
C302 C303 1.170 . S
C303 C302 1.170 . S
C304 C305 1.170 . S
C304 C306 1.380 . S
C305 C304 1.170 . S
C306 C304 1.380 . S
C306 C307 1.170 . S
C307 C306 1.170 . S
C308 C309 1.170 . S
C308 C310 1.380 . S
C309 C308 1.170 . S
C310 C308 1.380 . S
C310 C311 1.170 . S
C311 C310 1.170 . S
C312 C313 1.170 . S
C312 C314 1.380 . S
C313 C312 1.170 . S
C314 C312 1.380 . S
C314 C315 1.170 . S
C315 C314 1.170 . S
C316 C317 1.170 . S
C316 C318 1.380 1_556 S
C317 C316 1.170 . S
C318 C316 1.380 1_554 S
C318 C319 1.170 . S
C319 C318 1.170 . S
C320 C321 1.170 . S
C320 C322 1.380 1_554 S
C321 C320 1.170 . S
C322 C320 1.380 1_556 S
C322 C323 1.170 . S
C323 C322 1.170 . S
C324 C325 1.170 . S
C324 C326 1.380 . S
C325 C324 1.170 . S
C326 C324 1.380 . S
C326 C327 1.170 . S
C327 C326 1.170 . S
C328 C329 1.170 . S
C328 C330 1.380 . S
C329 C328 1.170 . S
C330 C328 1.380 . S
C330 C331 1.170 . S
C331 C330 1.170 . S
C332 C333 1.170 . S
C332 C334 1.380 . S
C333 C332 1.170 . S
C334 C332 1.380 . S
C334 C335 1.170 . S
C335 C334 1.170 . S
C209 C134 1.688 . S
C211 C4 1.682 . S
C213 C17 1.682 . S
C215 C153 1.688 . S
C217 C108 1.681 . S
C219 C36 1.684 . S
C221 C121 1.681 . S
C223 C43 1.684 . S
C225 C56 1.686 . S
C227 C186 1.686 . S
C229 C199 1.688 . S
C231 C69 1.683 . S
C233 C82 1.687 . S
C235 C166 1.681 . S
C237 C173 1.684 . S
C239 C95 1.688 . S
C241 C135 1.327 . S
C243 C5 1.328 . S
C245 C18 1.325 . S
C247 C146 1.332 . S
C249 C29 1.333 . S
C251 C109 1.327 . S
C253 C44 1.326 . S
C255 C122 1.333 . S
C257 C57 1.333 . S
C259 C187 1.329 . S
C261 C70 1.332 . S
C263 C200 1.330 . S
C265 C159 1.329 . S
C267 C83 1.326 . S
C269 C174 1.332 . S
C271 C96 1.325 . S
C273 C10 1.427 . S
C275 C88 1.423 . S
C277 C23 1.445 . S
C279 C101 1.437 . S
C281 C30 1.433 . S
C283 C62 1.441 . S
C285 C49 1.424 . S
C287 C75 1.429 . S
C289 C114 1.433 . S
C291 C192 1.426 . S
C293 C205 1.448 . S
C295 C127 1.442 . S
C297 C140 1.446 . S
C299 C160 1.439 . S
C301 C179 1.448 . S
C303 C147 1.450 . S
C305 C3 1.351 . S
C307 C198 1.368 . S
C309 C161 1.376 . S
C311 C16 1.365 . S
C313 C172 1.366 . S
C315 C31 1.350 . S
C317 C185 1.374 . S
C319 C42 1.360 . S
C321 C120 1.370 . S
C323 C55 1.353 . S
C325 C133 1.370 . S
C327 C68 1.376 . S
C329 C81 1.370 . S
C331 C148 1.376 . S
C333 C94 1.363 . S
C335 C107 1.376 . S
