# Generated by pormake.
# Topology ukb, (4)-cn, num edge types: 1
# Building blocks:
#     Node 0, Type 0, BuildingBlock: AZAVOO_clean_sbu_0, # of connection points: 4
#     Node 1, Type 0, BuildingBlock: AZAVOO_clean_sbu_0, # of connection points: 4
#     Node 2, Type 0, BuildingBlock: AZAVOO_clean_sbu_0, # of connection points: 4
#     Node 3, Type 0, BuildingBlock: AZAVOO_clean_sbu_0, # of connection points: 4
#     Node 4, Type 0, BuildingBlock: AZAVOO_clean_sbu_0, # of connection points: 4
#     Node 5, Type 0, BuildingBlock: AZAVOO_clean_sbu_0, # of connection points: 4
#     Node 6, Type 0, BuildingBlock: AZAVOO_clean_sbu_0, # of connection points: 4
#     Node 7, Type 0, BuildingBlock: AZAVOO_clean_sbu_0, # of connection points: 4
#     Node 8, Type 0, BuildingBlock: AZAVOO_clean_sbu_0, # of connection points: 4
#     Node 9, Type 0, BuildingBlock: AZAVOO_clean_sbu_0, # of connection points: 4
#     Node 10, Type 0, BuildingBlock: AZAVOO_clean_sbu_0, # of connection points: 4
#     Node 11, Type 0, BuildingBlock: AZAVOO_clean_sbu_0, # of connection points: 4
#     Node 12, Type 0, BuildingBlock: AZAVOO_clean_sbu_0, # of connection points: 4
#     Node 13, Type 0, BuildingBlock: AZAVOO_clean_sbu_0, # of connection points: 4
#     Node 14, Type 0, BuildingBlock: AZAVOO_clean_sbu_0, # of connection points: 4
#     Node 15, Type 0, BuildingBlock: AZAVOO_clean_sbu_0, # of connection points: 4
#     Edge 16, Type (0, 0), BuildingBlock: TEMPAE_clean_linker_10, # of connection points: 2
#     Edge 17, Type (0, 0), BuildingBlock: TEMPAE_clean_linker_10, # of connection points: 2
#     Edge 18, Type (0, 0), BuildingBlock: TEMPAE_clean_linker_10, # of connection points: 2
#     Edge 19, Type (0, 0), BuildingBlock: TEMPAE_clean_linker_10, # of connection points: 2
#     Edge 20, Type (0, 0), BuildingBlock: TEMPAE_clean_linker_10, # of connection points: 2
#     Edge 21, Type (0, 0), BuildingBlock: TEMPAE_clean_linker_10, # of connection points: 2
#     Edge 22, Type (0, 0), BuildingBlock: TEMPAE_clean_linker_10, # of connection points: 2
#     Edge 23, Type (0, 0), BuildingBlock: TEMPAE_clean_linker_10, # of connection points: 2
#     Edge 24, Type (0, 0), BuildingBlock: TEMPAE_clean_linker_10, # of connection points: 2
#     Edge 25, Type (0, 0), BuildingBlock: TEMPAE_clean_linker_10, # of connection points: 2
#     Edge 26, Type (0, 0), BuildingBlock: TEMPAE_clean_linker_10, # of connection points: 2
#     Edge 27, Type (0, 0), BuildingBlock: TEMPAE_clean_linker_10, # of connection points: 2
#     Edge 28, Type (0, 0), BuildingBlock: TEMPAE_clean_linker_10, # of connection points: 2
#     Edge 29, Type (0, 0), BuildingBlock: TEMPAE_clean_linker_10, # of connection points: 2
#     Edge 30, Type (0, 0), BuildingBlock: TEMPAE_clean_linker_10, # of connection points: 2
#     Edge 31, Type (0, 0), BuildingBlock: TEMPAE_clean_linker_10, # of connection points: 2
#     Edge 32, Type (0, 0), BuildingBlock: TEMPAE_clean_linker_10, # of connection points: 2
#     Edge 33, Type (0, 0), BuildingBlock: TEMPAE_clean_linker_10, # of connection points: 2
#     Edge 34, Type (0, 0), BuildingBlock: TEMPAE_clean_linker_10, # of connection points: 2
#     Edge 35, Type (0, 0), BuildingBlock: TEMPAE_clean_linker_10, # of connection points: 2
#     Edge 36, Type (0, 0), BuildingBlock: TEMPAE_clean_linker_10, # of connection points: 2
#     Edge 37, Type (0, 0), BuildingBlock: TEMPAE_clean_linker_10, # of connection points: 2
#     Edge 38, Type (0, 0), BuildingBlock: TEMPAE_clean_linker_10, # of connection points: 2
#     Edge 39, Type (0, 0), BuildingBlock: TEMPAE_clean_linker_10, # of connection points: 2
#     Edge 40, Type (0, 0), BuildingBlock: TEMPAE_clean_linker_10, # of connection points: 2
#     Edge 41, Type (0, 0), BuildingBlock: TEMPAE_clean_linker_10, # of connection points: 2
#     Edge 42, Type (0, 0), BuildingBlock: TEMPAE_clean_linker_10, # of connection points: 2
#     Edge 43, Type (0, 0), BuildingBlock: TEMPAE_clean_linker_10, # of connection points: 2
#     Edge 44, Type (0, 0), BuildingBlock: TEMPAE_clean_linker_10, # of connection points: 2
#     Edge 45, Type (0, 0), BuildingBlock: TEMPAE_clean_linker_10, # of connection points: 2
#     Edge 46, Type (0, 0), BuildingBlock: TEMPAE_clean_linker_10, # of connection points: 2
#     Edge 47, Type (0, 0), BuildingBlock: TEMPAE_clean_linker_10, # of connection points: 2
# Relax obj value: 0.170
# Max RMSD: 0.200
# Mean RMSD: 0.179
data_MOF--net-ukb--node1-AZAVOO_clean_sbu_0--edge1-TEMPAE_clean_linker_10
_symmetry_space_group_name_H-M    P1
_symmetry_Int_Tables_number       1
_symmetry_cell_setting            triclinic
loop_
_symmetry_equiv_pos_as_xyz
'x, y, z'
_cell_length_a     40.75741
_cell_length_b     43.587624
_cell_length_c     41.069352
_cell_angle_alpha  90.029954
_cell_angle_beta   89.996241
_cell_angle_gamma 89.918403
loop_
_atom_site_label
_atom_site_type_symbol
_atom_site_fract_x
_atom_site_fract_y
_atom_site_fract_z
_atom_type_partial_charge
Mg0 Mg 0.5286 0.13723 0.1538 0.0
O1 O 0.54232 0.17194 0.19357 0.0
O2 O 0.55228 0.14551 0.23931 0.0
Mg3 Mg 0.5458 0.09445 0.22894 0.0
C4 C 0.55032 0.17074 0.22364 0.0
C5 C 0.53063 0.19531 0.1101 0.0
O6 O 0.56065 0.19484 0.12174 0.0
O7 O 0.47776 0.13141 0.17689 0.0
O8 O 0.49105 0.10277 0.22016 0.0
O9 O 0.58189 0.13312 0.14201 0.0
O10 O 0.55634 0.10378 0.17773 0.0
C11 C 0.4698 0.11616 0.20223 0.0
C12 C 0.58344 0.11266 0.16479 0.0
O13 O 0.51029 0.17529 0.12 0.0
Mg14 Mg 0.28617 0.54919 0.6814 0.0
O15 O 0.24034 0.57124 0.70579 0.0
O16 O 0.25848 0.58888 0.75374 0.0
Mg17 Mg 0.31381 0.58294 0.75848 0.0
C18 C 0.23537 0.58434 0.73331 0.0
C19 C 0.27193 0.50194 0.62889 0.0
O20 O 0.30048 0.49342 0.64073 0.0
O21 O 0.28669 0.50831 0.71684 0.0
O22 O 0.30884 0.5308 0.76048 0.0
O23 O 0.29969 0.59328 0.65632 0.0
O24 O 0.31612 0.57999 0.70545 0.0
C25 C 0.29879 0.50688 0.74555 0.0
C26 C 0.31622 0.59979 0.6823 0.0
O27 O 0.25665 0.52377 0.64283 0.0
Mg28 Mg 0.95411 0.33647 0.16096 0.0
O29 O 0.94181 0.29635 0.19506 0.0
O30 O 0.93595 0.31598 0.24519 0.0
Mg31 Mg 0.93971 0.36816 0.2427 0.0
C32 C 0.93656 0.29324 0.22557 0.0
C33 C 0.95943 0.30722 0.09307 0.0
O34 O 0.9389 0.33008 0.0885 0.0
O35 O 0.00564 0.33946 0.1834 0.0
O36 O 0.99426 0.36328 0.2304 0.0
O37 O 0.90058 0.34299 0.15036 0.0
O38 O 0.9266 0.36522 0.19117 0.0
C39 C 0.0147 0.35219 0.20994 0.0
C40 C 0.89939 0.35937 0.17659 0.0
O41 O 0.97154 0.3033 0.12131 0.0
Mg42 Mg 0.21583 0.92718 0.68677 0.0
O43 O 0.26124 0.90335 0.70983 0.0
O44 O 0.24335 0.88592 0.75796 0.0
Mg45 Mg 0.18853 0.89394 0.76414 0.0
C46 C 0.26619 0.88978 0.73708 0.0
C47 C 0.2285 0.97243 0.63293 0.0
O48 O 0.19971 0.9801 0.64489 0.0
O49 O 0.21812 0.9677 0.72252 0.0
O50 O 0.19611 0.94585 0.76656 0.0
O51 O 0.20043 0.88387 0.66155 0.0
O52 O 0.18535 0.89712 0.71118 0.0
C53 C 0.20697 0.96942 0.75159 0.0
C54 C 0.18436 0.8775 0.68784 0.0
O55 O 0.24503 0.95181 0.6475 0.0
Mg56 Mg 0.53848 0.35455 0.85196 0.0
O57 O 0.54497 0.31761 0.81246 0.0
O58 O 0.56297 0.34133 0.76748 0.0
Mg59 Mg 0.56245 0.39301 0.77624 0.0
C60 C 0.55528 0.31706 0.78307 0.0
C61 C 0.50548 0.33 0.91398 0.0
O62 O 0.50482 0.35983 0.91859 0.0
O63 O 0.48897 0.36827 0.82991 0.0
O64 O 0.5067 0.39256 0.78535 0.0
O65 O 0.59178 0.34999 0.86296 0.0
O66 O 0.5717 0.38321 0.82755 0.0
C67 C 0.48345 0.38354 0.80392 0.0
C68 C 0.59688 0.37 0.84027 0.0
O69 O 0.51575 0.3198 0.8868 0.0
Mg70 Mg 0.20844 0.50057 0.32878 0.0
O71 O 0.25385 0.52106 0.30233 0.0
O72 O 0.23715 0.53026 0.25133 0.0
Mg73 Mg 0.18305 0.51929 0.2454 0.0
C74 C 0.25935 0.53022 0.27322 0.0
C75 C 0.22239 0.46891 0.39297 0.0
O76 O 0.19329 0.45872 0.38445 0.0
O77 O 0.21292 0.45424 0.30206 0.0
O78 O 0.19371 0.46857 0.25339 0.0
O79 O 0.19194 0.54777 0.34315 0.0
O80 O 0.17706 0.52421 0.29801 0.0
C81 C 0.20424 0.44795 0.27285 0.0
C82 C 0.17582 0.54828 0.31602 0.0
O83 O 0.23824 0.48536 0.37281 0.0
Mg84 Mg 0.96527 0.12088 0.84829 0.0
O85 O 0.96047 0.15969 0.81093 0.0
O86 O 0.95081 0.13831 0.76227 0.0
Mg87 Mg 0.94897 0.08631 0.76838 0.0
C88 C 0.95496 0.16179 0.78039 0.0
C89 C 0.97176 0.14963 0.91464 0.0
O90 O 0.95221 0.12592 0.91824 0.0
O91 O 0.0169 0.10886 0.82956 0.0
O92 O 0.0032 0.08567 0.78295 0.0
O93 O 0.91129 0.12394 0.85527 0.0
O94 O 0.93484 0.09334 0.81925 0.0
C95 C 0.02467 0.09412 0.80376 0.0
C96 C 0.90844 0.10538 0.83085 0.0
O97 O 0.98432 0.15438 0.88674 0.0
Mg98 Mg 0.28797 0.96709 0.33169 0.0
O99 O 0.24443 0.94463 0.30391 0.0
O100 O 0.26313 0.9363 0.25339 0.0
Mg101 Mg 0.31631 0.95089 0.24867 0.0
C102 C 0.24036 0.93512 0.27467 0.0
C103 C 0.27144 -0.00117 0.39467 0.0
O104 O 0.29922 0.01114 0.38506 0.0
O105 O 0.28072 0.01334 0.30561 0.0
O106 O 0.30095 0.00056 0.25683 0.0
O107 O 0.30659 0.92044 0.3454 0.0
O108 O 0.32142 0.94573 0.30124 0.0
C109 C 0.28864 0.02026 0.27637 0.0
C110 C 0.32327 0.9213 0.31861 0.0
O111 O 0.25684 0.98042 0.37548 0.0
Mg112 Mg 0.5334 0.73302 0.79391 0.0
O113 O 0.48264 0.75566 0.79153 0.0
O114 O 0.44436 0.71912 0.79175 0.0
Mg115 Mg 0.47095 0.67317 0.79844 0.0
C116 C 0.45268 0.74731 0.78991 0.0
C117 C 0.58243 0.78642 0.78762 0.0
O118 O 0.59962 0.76396 0.77474 0.0
O119 O 0.52774 0.72499 0.84884 0.0
O120 O 0.49012 0.68775 0.84874 0.0
O121 O 0.52994 0.72944 0.74015 0.0
O122 O 0.51409 0.69288 0.77417 0.0
C123 C 0.5096 0.70573 0.86389 0.0
C124 C 0.51425 0.7041 0.74515 0.0
O125 O 0.55484 0.78044 0.80049 0.0
Mg126 Mg 0.63849 0.41921 0.34748 0.0
O127 O 0.67885 0.41078 0.30934 0.0
O128 O 0.65399 0.39699 0.26292 0.0
Mg129 Mg 0.59837 0.40033 0.26998 0.0
C130 C 0.67984 0.40211 0.27962 0.0
C131 C 0.66825 0.42764 0.41305 0.0
O132 O 0.64108 0.41181 0.4167 0.0
O133 O 0.62899 0.46638 0.32493 0.0
O134 O 0.60217 0.45205 0.27973 0.0
O135 O 0.63732 0.36882 0.35804 0.0
O136 O 0.60582 0.39172 0.32164 0.0
C137 C 0.6134 0.47274 0.29876 0.0
C138 C 0.6158 0.36677 0.33499 0.0
O139 O 0.67566 0.43698 0.38463 0.0
Mg140 Mg 0.96607 0.73789 0.79645 0.0
O141 O 0.01619 0.71335 0.79329 0.0
O142 O 0.05509 0.74932 0.79621 0.0
Mg143 Mg 0.0305 0.79563 0.80591 0.0
C144 C 0.04633 0.72142 0.79241 0.0
C145 C 0.92142 0.68706 0.77495 0.0
O146 O 0.91578 0.70979 0.75473 0.0
O147 O 0.97089 0.74244 0.8521 0.0
O148 O 0.00971 0.77854 0.85449 0.0
O149 O 0.97106 0.7449 0.74301 0.0
O150 O 0.98739 0.77856 0.77994 0.0
C151 C 0.98948 0.76042 0.86841 0.0
C152 C 0.9873 0.76942 0.75014 0.0
O153 O 0.94078 0.69142 0.79879 0.0
Mg154 Mg 0.84023 0.04336 0.34133 0.0
O155 O 0.799 0.05384 0.30429 0.0
O156 O 0.82294 0.06128 0.25581 0.0
Mg157 Mg 0.87808 0.05524 0.26113 0.0
C158 C 0.79747 0.05985 0.27383 0.0
C159 C 0.81035 0.04092 0.40811 0.0
O160 O 0.83751 0.05696 0.41067 0.0
O161 O 0.84506 0.99456 0.32105 0.0
O162 O 0.86802 0.00479 0.27268 0.0
O163 O 0.84586 0.09355 0.34959 0.0
O164 O 0.87366 0.06735 0.31262 0.0
C165 C 0.8565 0.98594 0.29353 0.0
C166 C 0.86611 0.09341 0.32532 0.0
O167 O 0.80305 0.02961 0.38047 0.0
Mg168 Mg 0.49195 0.71786 0.18274 0.0
O169 O 0.45015 0.6835 0.19268 0.0
O170 O 0.40366 0.70482 0.17488 0.0
Mg171 Mg 0.41526 0.7516 0.15264 0.0
C172 C 0.41908 0.68284 0.18863 0.0
C173 C 0.541 0.67972 0.22323 0.0
O174 O 0.53368 0.7021 0.24337 0.0
O175 O 0.49243 0.70649 0.12802 0.0
O176 O 0.44648 0.73013 0.11234 0.0
O177 O 0.48182 0.7399 0.23081 0.0
O178 O 0.45818 0.75434 0.18499 0.0
C179 C 0.47245 0.71493 0.10574 0.0
C180 C 0.46034 0.7568 0.21618 0.0
O181 O 0.52888 0.68001 0.19468 0.0
Mg182 Mg 0.85951 0.41183 0.66534 0.0
O183 O 0.81908 0.40172 0.70281 0.0
O184 O 0.84384 0.39478 0.7509 0.0
Mg185 Mg 0.89957 0.39771 0.74388 0.0
C186 C 0.81797 0.39643 0.73341 0.0
C187 C 0.82799 0.41814 0.59923 0.0
O188 O 0.85407 0.40085 0.59487 0.0
O189 O 0.86554 0.45965 0.68737 0.0
O190 O 0.89409 0.449 0.73271 0.0
O191 O 0.86419 0.36162 0.6554 0.0
O192 O 0.89309 0.38658 0.69239 0.0
C193 C 0.88099 0.46803 0.71295 0.0
C194 C 0.8852 0.36097 0.67902 0.0
O195 O 0.82201 0.42817 0.62772 0.0
Mg196 Mg 0.00383 0.75026 0.18811 0.0
O197 O 0.04762 0.7828 0.19544 0.0
O198 O 0.0929 0.75847 0.17886 0.0
Mg199 Mg 0.07817 0.71096 0.16005 0.0
C200 C 0.07866 0.78185 0.19124 0.0
C201 C 0.94316 0.78701 0.21349 0.0
O202 O 0.9336 0.75927 0.22156 0.0
O203 O 0.00369 0.75835 0.13281 0.0
O204 O 0.04812 0.73163 0.1183 0.0
O205 O 0.01285 0.7311 0.23774 0.0
O206 O 0.03548 0.71305 0.1926 0.0
C207 C 0.02297 0.74772 0.11096 0.0
C208 C 0.03376 0.71293 0.22392 0.0
O209 O 0.96982 0.7904 0.19785 0.0
Mg210 Mg 0.63368 0.06014 0.67056 0.0
O211 O 0.6794 0.07129 0.70186 0.0
O212 O 0.66135 0.07927 0.75276 0.0
Mg213 Mg 0.60572 0.07578 0.75414 0.0
C214 C 0.68456 0.07716 0.73199 0.0
C215 C 0.65796 0.05294 0.60056 0.0
O216 O 0.6323 0.07107 0.59804 0.0
O217 O 0.6312 0.0128 0.69437 0.0
O218 O 0.61281 0.02446 0.74426 0.0
O219 O 0.62623 0.10979 0.65913 0.0
O220 O 0.6053 0.0864 0.7021 0.0
C221 C 0.62221 0.00494 0.72299 0.0
C222 C 0.61021 0.11143 0.68627 0.0
O223 O 0.66575 0.04285 0.62859 0.0
C224 C 0.41185 0.13567 0.20767 0.0
C225 C 0.43494 0.11197 0.2108 0.0
C226 C 0.37915 0.13148 0.218 0.0
C227 C 0.36954 0.10277 0.23109 0.0
C228 C 0.39287 0.07865 0.23343 0.0
C229 C 0.42519 0.08373 0.22362 0.0
C230 C 0.35563 0.15815 0.21602 0.0
C231 C 0.38395 0.04725 0.24642 0.0
C232 C 0.30719 0.07319 0.28796 0.0
C233 C 0.29203 0.05265 0.26645 0.0
C234 C 0.3289 0.09551 0.27594 0.0
C235 C 0.33538 0.09657 0.24208 0.0
C236 C 0.31405 0.08112 0.22045 0.0
C237 C 0.29226 0.05928 0.23302 0.0
C238 C 0.34928 0.11369 0.29967 0.0
C239 C 0.31869 0.08293 0.18408 0.0
H240 H 0.41954 0.1577 0.19811 0.0
H241 H 0.443 0.06532 0.22577 0.0
H242 H 0.32998 0.15058 0.21202 0.0
H243 H 0.35642 0.17096 0.23936 0.0
H244 H 0.36268 0.17424 0.19625 0.0
H245 H 0.40479 0.03083 0.24522 0.0
H246 H 0.37607 0.04908 0.2722 0.0
H247 H 0.36327 0.03749 0.23227 0.0
H248 H 0.3063 0.06887 0.31395 0.0
H249 H 0.2795 0.04411 0.21635 0.0
H250 H 0.35562 0.13649 0.28945 0.0
H251 H 0.37249 0.10116 0.3046 0.0
H252 H 0.33618 0.11686 0.32316 0.0
H253 H 0.32577 0.10641 0.17647 0.0
H254 H 0.29601 0.07614 0.17093 0.0
H255 H 0.33867 0.06701 0.17676 0.0
C256 C 0.32057 0.47571 0.79147 0.0
C257 C 0.3089 0.47683 0.75931 0.0
C258 C 0.34278 0.45294 0.80127 0.0
C259 C 0.35296 0.43048 0.77853 0.0
C260 C 0.33655 0.42824 0.74822 0.0
C261 C 0.31481 0.4517 0.73873 0.0
C262 C 0.35879 0.45566 0.83427 0.0
C263 C 0.34499 0.40324 0.72426 0.0
C264 C 0.44502 0.41959 0.77659 0.0
C265 C 0.44957 0.39342 0.79588 0.0
C266 C 0.41366 0.4312 0.77027 0.0
C267 C 0.38575 0.41582 0.78277 0.0
C268 C 0.38998 0.38848 0.801 0.0
C269 C 0.42194 0.3779 0.80788 0.0
C270 C 0.41062 0.46074 0.75117 0.0
C271 C 0.36112 0.37068 0.81403 0.0
H272 H 0.31522 0.49451 0.80795 0.0
H273 H 0.3053 0.45185 0.71408 0.0
H274 H 0.36043 0.43289 0.84615 0.0
H275 H 0.38415 0.46449 0.83129 0.0
H276 H 0.34516 0.47152 0.8506 0.0
H277 H 0.3251 0.39997 0.70609 0.0
H278 H 0.36774 0.40951 0.71101 0.0
H279 H 0.34953 0.3812 0.73704 0.0
H280 H 0.46619 0.43183 0.76733 0.0
H281 H 0.42524 0.35748 0.82259 0.0
H282 H 0.39781 0.47836 0.76601 0.0
H283 H 0.39582 0.45689 0.72889 0.0
H284 H 0.43484 0.47009 0.74375 0.0
H285 H 0.35575 0.3784 0.83922 0.0
H286 H 0.36681 0.34577 0.8151 0.0
H287 H 0.33875 0.37406 0.79905 0.0
C288 C 0.05993 0.38484 0.22957 0.0
C289 C 0.04988 0.35667 0.21678 0.0
C290 C 0.09275 0.39026 0.23745 0.0
C291 C 0.11625 0.36651 0.23332 0.0
C292 C 0.10625 0.3378 0.22047 0.0
C293 C 0.07307 0.33332 0.21194 0.0
C294 C 0.10207 0.42165 0.2502 0.0
C295 C 0.12998 0.31142 0.21687 0.0
C296 C 0.19429 0.40948 0.22972 0.0
C297 C 0.19756 0.4159 0.26306 0.0
C298 C 0.17084 0.38835 0.21881 0.0
C299 C 0.15102 0.37313 0.24197 0.0
C300 C 0.16002 0.37411 0.27527 0.0
C301 C 0.18324 0.39585 0.28563 0.0
C302 C 0.16326 0.3869 0.1829 0.0
C303 C 0.1412 0.35618 0.30044 0.0
H304 H 0.04198 0.40294 0.2331 0.0
H305 H 0.06512 0.31133 0.20246 0.0
H306 H 0.11126 0.4197 0.27554 0.0
H307 H 0.12198 0.43163 0.23515 0.0
H308 H 0.08106 0.43792 0.25016 0.0
H309 H 0.1217 0.29504 0.19785 0.0
H310 H 0.1551 0.31934 0.21086 0.0
H311 H 0.13128 0.29886 0.24034 0.0
H312 H 0.20632 0.42422 0.21212 0.0
H313 H 0.18637 0.39998 0.31148 0.0
H314 H 0.14268 0.40281 0.17742 0.0
H315 H 0.15563 0.36348 0.17559 0.0
H316 H 0.18475 0.39387 0.168 0.0
H317 H 0.11857 0.36895 0.30702 0.0
H318 H 0.15595 0.35287 0.32292 0.0
H319 H 0.13385 0.33344 0.29072 0.0
C320 C 0.18734 0.00119 0.79805 0.0
C321 C 0.19876 -0.00021 0.76581 0.0
C322 C 0.166 0.02464 0.80801 0.0
C323 C 0.15647 0.04735 0.78532 0.0
C324 C 0.17324 0.04943 0.75521 0.0
C325 C 0.19408 0.02534 0.74554 0.0
C326 C 0.14986 0.02228 0.84097 0.0
C327 C 0.16568 0.07478 0.73142 0.0
C328 C 0.06455 0.05757 0.77973 0.0
C329 C 0.05897 0.08398 0.79839 0.0
C330 C 0.09618 0.04598 0.77509 0.0
C331 C 0.1234 0.06163 0.78868 0.0
C332 C 0.11817 0.08903 0.80661 0.0
C333 C 0.08586 0.0996 0.8118 0.0
C334 C 0.10018 0.01633 0.75628 0.0
C335 C 0.14626 0.10704 0.82092 0.0
H336 H 0.19191 0.98211 0.81437 0.0
H337 H 0.20358 0.02505 0.72088 0.0
H338 H 0.14833 0.04516 0.85266 0.0
H339 H 0.12446 0.01355 0.83796 0.0
H340 H 0.16334 0.00646 0.85743 0.0
H341 H 0.14316 0.06891 0.71758 0.0
H342 H 0.16117 0.09675 0.74439 0.0
H343 H 0.18602 0.07796 0.71373 0.0
H344 H 0.04392 0.04521 0.76948 0.0
H345 H 0.08172 0.12016 0.82609 0.0
H346 H 0.11298 -0.00099 0.77148 0.0
H347 H 0.11532 0.0203 0.73426 0.0
H348 H 0.0763 0.00653 0.74843 0.0
H349 H 0.14967 0.10024 0.84672 0.0
H350 H 0.14074 0.13201 0.82061 0.0
H351 H 0.16963 0.10301 0.80772 0.0
C352 C 0.56819 0.84186 0.78297 0.0
C353 C 0.592 0.81863 0.78177 0.0
C354 C 0.57563 0.8719 0.77341 0.0
C355 C 0.60787 0.87905 0.7631 0.0
C356 C 0.63238 0.85601 0.76308 0.0
C357 C 0.62405 0.82593 0.7721 0.0
C358 C 0.54869 0.89575 0.77339 0.0
C359 C 0.66719 0.86301 0.75301 0.0
C360 C 0.61547 0.94942 0.7092 0.0
C361 C 0.62213 0.97224 0.73227 0.0
C362 C 0.61173 0.91868 0.71875 0.0
C363 C 0.61553 0.91066 0.75198 0.0
C364 C 0.62411 0.9334 0.775 0.0
C365 C 0.62692 0.96398 0.76493 0.0
C366 C 0.60208 0.8951 0.69358 0.0
C367 C 0.62917 0.92563 0.81049 0.0
H368 H 0.54329 0.83633 0.79014 0.0
H369 H 0.64254 0.80805 0.77121 0.0
H370 H 0.55556 0.91526 0.78934 0.0
H371 H 0.54537 0.90499 0.74843 0.0
H372 H 0.52486 0.88637 0.78191 0.0
H373 H 0.68378 0.84301 0.75636 0.0
H374 H 0.66777 0.86987 0.72702 0.0
H375 H 0.67684 0.88258 0.76737 0.0
H376 H 0.61169 0.95578 0.68396 0.0
H377 H 0.63254 0.98157 0.78276 0.0
H378 H 0.57717 0.88628 0.69913 0.0
H379 H 0.61914 0.87527 0.69433 0.0
H380 H 0.602 0.90468 0.66851 0.0
H381 H 0.60543 0.91885 0.82155 0.0
H382 H 0.63924 0.94527 0.82452 0.0
H383 H 0.64614 0.90583 0.81296 0.0
C384 C 0.57308 0.63154 0.2136 0.0
C385 C 0.55889 0.65251 0.23532 0.0
C386 C 0.58669 0.60391 0.22488 0.0
C387 C 0.58517 0.59681 0.25851 0.0
C388 C 0.57222 0.61854 0.28066 0.0
C389 C 0.55959 0.6463 0.26882 0.0
C390 C 0.60112 0.58164 0.20062 0.0
C391 C 0.56942 0.61158 0.31658 0.0
C392 C 0.57541 0.51254 0.27816 0.0
C393 C 0.60646 0.5049 0.29029 0.0
C394 C 0.56811 0.54253 0.26841 0.0
C395 C 0.59285 0.56525 0.26985 0.0
C396 C 0.62436 0.55768 0.28209 0.0
C397 C 0.63067 0.52756 0.29271 0.0
C398 C 0.53389 0.54982 0.25648 0.0
C399 C 0.65151 0.58115 0.28316 0.0
H400 H 0.5729 0.63643 0.18772 0.0
H401 H 0.54859 0.66239 0.28575 0.0
H402 H 0.62489 0.57253 0.20959 0.0
H403 H 0.5843 0.56187 0.19752 0.0
H404 H 0.60504 0.59241 0.17641 0.0
H405 H 0.56204 0.63206 0.33096 0.0
H406 H 0.55079 0.59337 0.32032 0.0
H407 H 0.59303 0.60281 0.32626 0.0
H408 H 0.55665 0.49498 0.27655 0.0
H409 H 0.65478 0.52146 0.30182 0.0
H410 H 0.53477 0.55711 0.23062 0.0
H411 H 0.5234 0.56914 0.2707 0.0
H412 H 0.51709 0.52986 0.25848 0.0
H413 H 0.65675 0.58945 0.25816 0.0
H414 H 0.67449 0.57171 0.29375 0.0
H415 H 0.64379 0.60134 0.29773 0.0
C416 C 0.90471 0.63384 0.79058 0.0
C417 C 0.91024 0.65593 0.76648 0.0
C418 C 0.89638 0.60361 0.78209 0.0
C419 C 0.89488 0.59521 0.74877 0.0
C420 C 0.89995 0.61763 0.72442 0.0
C421 C 0.90702 0.64785 0.7336 0.0
C422 C 0.89005 0.58051 0.80871 0.0
C423 C 0.89973 0.6094 0.68867 0.0
C424 C 0.91512 0.51251 0.72874 0.0
C425 C 0.88429 0.50083 0.72041 0.0
C426 C 0.9189 0.54333 0.73756 0.0
C427 C 0.89091 0.56255 0.73931 0.0
C428 C 0.85958 0.5507 0.73126 0.0
C429 C 0.85672 0.51998 0.72128 0.0
C430 C 0.95289 0.55535 0.74482 0.0
C431 C 0.82911 0.57027 0.73385 0.0
H432 H 0.90702 0.64018 0.81601 0.0
H433 H 0.91163 0.66486 0.7149 0.0
H434 H 0.86707 0.56771 0.80372 0.0
H435 H 0.91033 0.56354 0.80945 0.0
H436 H 0.88808 0.59151 0.83305 0.0
H437 H 0.90276 0.62982 0.67278 0.0
H438 H 0.91998 0.59307 0.68347 0.0
H439 H 0.87645 0.59781 0.68212 0.0
H440 H 0.93637 0.49753 0.72799 0.0
H441 H 0.83284 0.51062 0.71526 0.0
H442 H 0.95426 0.56328 0.77044 0.0
H443 H 0.95831 0.5754 0.72907 0.0
H444 H 0.97219 0.53771 0.7409 0.0
H445 H 0.8267 0.57929 0.75902 0.0
H446 H 0.8065 0.55731 0.72762 0.0
H447 H 0.83102 0.59033 0.71737 0.0
C448 C 0.8707 0.93193 0.30791 0.0
C449 C 0.85848 0.95311 0.28535 0.0
C450 C 0.88011 0.90236 0.29788 0.0
C451 C 0.87649 0.89387 0.26474 0.0
C452 C 0.86117 0.91429 0.24269 0.0
C453 C 0.85274 0.94383 0.25319 0.0
C454 C 0.89661 0.88134 0.32205 0.0
C455 C 0.85611 0.90591 0.20737 0.0
C456 C 0.94112 0.84279 0.22656 0.0
C457 C 0.92532 0.81426 0.2257 0.0
C458 C 0.92561 0.86861 0.2398 0.0
C459 C 0.89321 0.86605 0.25195 0.0
C460 C 0.8769 0.83742 0.2508 0.0
C461 C 0.8933 0.81173 0.23794 0.0
C462 C 0.94404 0.89867 0.24086 0.0
C463 C 0.84214 0.83402 0.26294 0.0
H464 H 0.87528 0.93922 0.33275 0.0
H465 H 0.84297 0.96022 0.23583 0.0
H466 H 0.88709 0.85762 0.3198 0.0
H467 H 0.92333 0.88054 0.31687 0.0
H468 H 0.89311 0.88927 0.34753 0.0
H469 H 0.83914 0.92207 0.19493 0.0
H470 H 0.88004 0.90644 0.19449 0.0
H471 H 0.84618 0.88232 0.20512 0.0
H472 H 0.96599 0.84486 0.21747 0.0
H473 H 0.88098 0.78971 0.2373 0.0
H474 H 0.94482 0.90753 0.26619 0.0
H475 H 0.93114 0.91603 0.22581 0.0
H476 H 0.9696 0.89643 0.23177 0.0
H477 H 0.84062 0.8409 0.2889 0.0
H478 H 0.83297 0.81014 0.2605 0.0
H479 H 0.82564 0.84953 0.24909 0.0
C480 C 0.55378 0.202 0.2744 0.0
C481 C 0.55885 0.19939 0.24075 0.0
C482 C 0.56255 0.2288 0.29116 0.0
C483 C 0.57757 0.25315 0.27397 0.0
C484 C 0.58307 0.2505 0.24004 0.0
C485 C 0.57321 0.22377 0.22373 0.0
C486 C 0.55549 0.23116 0.32718 0.0
C487 C 0.59966 0.27574 0.22102 0.0
C488 C 0.5746 0.33427 0.30698 0.0
C489 C 0.60549 0.33697 0.32163 0.0
C490 C 0.56483 0.30677 0.29224 0.0
C491 C 0.58693 0.28172 0.29132 0.0
C492 C 0.61814 0.28427 0.30626 0.0
C493 C 0.6269 0.31183 0.32169 0.0
C494 C 0.53104 0.30468 0.27731 0.0
C495 C 0.64262 0.25827 0.30506 0.0
H496 H 0.54252 0.1832 0.28756 0.0
H497 H 0.5775 0.22163 0.19777 0.0
H498 H 0.57867 0.23463 0.34084 0.0
H499 H 0.53965 0.25138 0.33202 0.0
H500 H 0.54311 0.21036 0.33681 0.0
H501 H 0.60324 0.26958 0.19501 0.0
H502 H 0.5848 0.29705 0.22228 0.0
H503 H 0.62395 0.28094 0.23191 0.0
H504 H 0.558 0.35373 0.30708 0.0
H505 H 0.65094 0.31408 0.33273 0.0
H506 H 0.51779 0.28451 0.28723 0.0
H507 H 0.53311 0.30136 0.25061 0.0
H508 H 0.51611 0.32557 0.28194 0.0
H509 H 0.63187 0.23728 0.31595 0.0
H510 H 0.66571 0.26382 0.31816 0.0
H511 H 0.64866 0.25284 0.27934 0.0
C512 C 0.18137 0.60742 0.71661 0.0
C513 C 0.20271 0.59746 0.74125 0.0
C514 C 0.15332 0.62494 0.72413 0.0
C515 C 0.14632 0.6323 0.75705 0.0
C516 C 0.16656 0.62048 0.78207 0.0
C517 C 0.19454 0.60337 0.77386 0.0
C518 C 0.13236 0.63718 0.69676 0.0
C519 C 0.15982 0.62742 0.81748 0.0
C520 C 0.10395 0.70762 0.77712 0.0
C521 C 0.0718 0.69822 0.78413 0.0
C522 C 0.12807 0.68649 0.76754 0.0
C523 C 0.12012 0.65494 0.7653 0.0
C524 C 0.08776 0.64518 0.77236 0.0
C525 C 0.06394 0.66694 0.78155 0.0
C526 C 0.16217 0.69799 0.75996 0.0
C527 C 0.07838 0.61174 0.77044 0.0
H528 H 0.18757 0.60305 0.69136 0.0
H529 H 0.2107 0.59546 0.79308 0.0
H530 H 0.10602 0.63288 0.70174 0.0
H531 H 0.13561 0.6624 0.69491 0.0
H532 H 0.13884 0.62672 0.67294 0.0
H533 H 0.17568 0.61378 0.83406 0.0
H534 H 0.16426 0.65213 0.82224 0.0
H535 H 0.13378 0.62268 0.82346 0.0
H536 H 0.11034 0.73168 0.77877 0.0
H537 H 0.03916 0.6594 0.78675 0.0
H538 H 0.16954 0.6907 0.73513 0.0
H539 H 0.18002 0.68784 0.77729 0.0
H540 H 0.16396 0.72339 0.76146 0.0
H541 H 0.08394 0.60256 0.74585 0.0
H542 H 0.05195 0.60797 0.77569 0.0
H543 H 0.09313 0.5983 0.78812 0.0
C544 C 0.90695 0.12259 0.29259 0.0
C545 C 0.87771 0.12221 0.31054 0.0
C546 C 0.91825 0.14975 0.27816 0.0
C547 C 0.89935 0.17687 0.28106 0.0
C548 C 0.86955 0.17647 0.2988 0.0
C549 C 0.8593 0.14919 0.31373 0.0
C550 C 0.95054 0.1495 0.26012 0.0
C551 C 0.84837 0.2048 0.30179 0.0
C552 C 0.93802 0.25528 0.27083 0.0
C553 C 0.92938 0.26252 0.23871 0.0
C554 C 0.92939 0.22698 0.28454 0.0
C555 C 0.91088 0.20584 0.26594 0.0
C556 C 0.90243 0.21288 0.23334 0.0
C557 C 0.9122 0.24104 0.21994 0.0
C558 C 0.93961 0.21993 0.31908 0.0
C559 C 0.88209 0.19118 0.21302 0.0
H560 H 0.92126 0.10172 0.29025 0.0
H561 H 0.83651 0.14882 0.32733 0.0
H562 H 0.9467 0.15631 0.23439 0.0
H563 H 0.96749 0.16652 0.2711 0.0
H564 H 0.96253 0.1266 0.26059 0.0
H565 H 0.82529 0.20032 0.31537 0.0
H566 H 0.86208 0.2232 0.31453 0.0
H567 H 0.84202 0.21357 0.27722 0.0
H568 H 0.95153 0.27182 0.28528 0.0
H569 H 0.90525 0.24676 0.19519 0.0
H570 H 0.9525 0.19751 0.32008 0.0
H571 H 0.91757 0.21811 0.33481 0.0
H572 H 0.95598 0.23785 0.32935 0.0
H573 H 0.8941 0.16837 0.21171 0.0
H574 H 0.87825 0.19978 0.18784 0.0
H575 H 0.85777 0.18784 0.22464 0.0
C576 C 0.31833 0.86422 0.71893 0.0
C577 C 0.29833 0.87529 0.74414 0.0
C578 C 0.34566 0.84551 0.72574 0.0
C579 C 0.35332 0.83813 0.75849 0.0
C580 C 0.33445 0.85094 0.78402 0.0
C581 C 0.30714 0.8692 0.77654 0.0
C582 C 0.36516 0.8322 0.69785 0.0
C583 C 0.34202 0.84403 0.81927 0.0
C584 C 0.39449 0.76203 0.7777 0.0
C585 C 0.42714 0.77082 0.78306 0.0
C586 C 0.37048 0.78363 0.76902 0.0
C587 C 0.37912 0.81497 0.76613 0.0
C588 C 0.41193 0.82413 0.77181 0.0
C589 C 0.43557 0.80194 0.78007 0.0
C590 C 0.33581 0.77284 0.76297 0.0
C591 C 0.42203 0.85735 0.76926 0.0
H592 H 0.31156 0.8687 0.69385 0.0
H593 H 0.29197 0.87794 0.79616 0.0
H594 H 0.39179 0.83599 0.7017 0.0
H595 H 0.36121 0.80703 0.69673 0.0
H596 H 0.35802 0.84231 0.67405 0.0
H597 H 0.3271 0.8582 0.83623 0.0
H598 H 0.33698 0.81948 0.82434 0.0
H599 H 0.36837 0.8481 0.82445 0.0
H600 H 0.38761 0.73816 0.78 0.0
H601 H 0.46072 0.80905 0.78407 0.0
H602 H 0.32764 0.78003 0.73836 0.0
H603 H 0.31895 0.7836 0.78086 0.0
H604 H 0.33343 0.74751 0.76486 0.0
H605 H 0.41616 0.86632 0.74467 0.0
H606 H 0.44866 0.86065 0.77388 0.0
H607 H 0.408 0.87132 0.78706 0.0
C608 C 0.53946 0.2627 0.77191 0.0
C609 C 0.5612 0.28717 0.76738 0.0
C610 C 0.54567 0.23396 0.75766 0.0
C611 C 0.57491 0.22945 0.7396 0.0
C612 C 0.59703 0.25412 0.73523 0.0
C613 C 0.5896 0.28284 0.74872 0.0
C614 C 0.52106 0.20844 0.762 0.0
C615 C 0.629 0.24998 0.71711 0.0
C616 C 0.60785 0.14825 0.73243 0.0
C617 C 0.60059 0.14127 0.69997 0.0
C618 C 0.59971 0.17694 0.74563 0.0
C619 C 0.58299 0.19871 0.7261 0.0
C620 C 0.575 0.19143 0.69343 0.0
C621 C 0.58451 0.16292 0.68054 0.0
C622 C 0.60971 0.18423 0.78019 0.0
C623 C 0.55638 0.21369 0.67216 0.0
H624 H 0.51744 0.26616 0.78628 0.0
H625 H 0.60664 0.30171 0.74563 0.0
H626 H 0.514 0.19895 0.73792 0.0
H627 H 0.53219 0.18947 0.7762 0.0
H628 H 0.49854 0.21629 0.77479 0.0
H629 H 0.64371 0.2714 0.71633 0.0
H630 H 0.64385 0.23178 0.72897 0.0
H631 H 0.62417 0.24242 0.69178 0.0
H632 H 0.62083 0.13163 0.74721 0.0
H633 H 0.57885 0.15732 0.65543 0.0
H634 H 0.58775 0.18972 0.79503 0.0
H635 H 0.62576 0.20477 0.78047 0.0
H636 H 0.62302 0.16491 0.79192 0.0
H637 H 0.53327 0.22071 0.68437 0.0
H638 H 0.55031 0.20375 0.64799 0.0
H639 H 0.57114 0.23474 0.66836 0.0
C640 C 0.36554 0.65896 0.20404 0.0
C641 C 0.39984 0.6568 0.20209 0.0
C642 C 0.34676 0.63542 0.21786 0.0
C643 C 0.3625 0.6087 0.22978 0.0
C644 C 0.39709 0.60619 0.22783 0.0
C645 C 0.4154 0.63036 0.21416 0.0
C646 C 0.30993 0.63919 0.21964 0.0
C647 C 0.4147 0.57793 0.23993 0.0
C648 C 0.30735 0.56363 0.2868 0.0
C649 C 0.29112 0.54447 0.26463 0.0
C650 C 0.33263 0.58325 0.27633 0.0
C651 C 0.3421 0.58325 0.2431 0.0
C652 C 0.32791 0.56176 0.22146 0.0
C653 C 0.30239 0.54286 0.23241 0.0
C654 C 0.34703 0.60587 0.30019 0.0
C655 C 0.33768 0.5605 0.18601 0.0
H656 H 0.35322 0.67934 0.19512 0.0
H657 H 0.44188 0.62845 0.21282 0.0
H658 H 0.2978 0.621 0.20509 0.0
H659 H 0.30149 0.63666 0.24519 0.0
H660 H 0.30162 0.66186 0.21041 0.0
H661 H 0.44177 0.57988 0.23753 0.0
H662 H 0.40859 0.57376 0.26587 0.0
H663 H 0.40639 0.55756 0.22599 0.0
H664 H 0.29861 0.56505 0.31169 0.0
H665 H 0.29009 0.52783 0.21527 0.0
H666 H 0.33692 0.62904 0.29518 0.0
H667 H 0.37406 0.60722 0.29742 0.0
H668 H 0.34119 0.59973 0.32579 0.0
H669 H 0.32746 0.58075 0.17314 0.0
H670 H 0.32841 0.53946 0.17383 0.0
H671 H 0.36475 0.5613 0.18341 0.0
C672 C 0.92821 0.33102 0.70798 0.0
C673 C 0.8977 0.33182 0.69227 0.0
C674 C 0.94019 0.30375 0.72164 0.0
C675 C 0.92069 0.27695 0.72041 0.0
C676 C 0.88981 0.27766 0.70455 0.0
C677 C 0.87889 0.30505 0.69021 0.0
C678 C 0.97361 0.30365 0.73753 0.0
C679 C 0.86797 0.24972 0.70347 0.0
C680 C 0.95712 0.19771 0.73315 0.0
C681 C 0.9497 0.19237 0.76598 0.0
C682 C 0.94898 0.22568 0.71829 0.0
C683 C 0.9321 0.24835 0.73647 0.0
C684 C 0.92506 0.24325 0.76979 0.0
C685 C 0.93439 0.21545 0.78428 0.0
C686 C 0.95778 0.2307 0.68298 0.0
C687 C 0.90643 0.26658 0.78978 0.0
H688 H 0.94285 0.35173 0.70935 0.0
H689 H 0.85517 0.30576 0.67829 0.0
H690 H 0.97114 0.29869 0.7639 0.0
H691 H 0.98907 0.28525 0.72684 0.0
H692 H 0.9865 0.32593 0.73466 0.0
H693 H 0.84457 0.25417 0.69041 0.0
H694 H 0.88086 0.23049 0.69123 0.0
H695 H 0.8622 0.24214 0.72862 0.0
H696 H 0.96906 0.17989 0.71903 0.0
H697 H 0.92824 0.21118 0.80956 0.0
H698 H 0.97101 0.25277 0.68009 0.0
H699 H 0.9351 0.23215 0.66813 0.0
H700 H 0.97336 0.21193 0.67313 0.0
H701 H 0.91929 0.28898 0.78935 0.0
H702 H 0.90344 0.25931 0.81553 0.0
H703 H 0.88174 0.27024 0.77906 0.0
C704 C 0.08472 0.83518 0.21401 0.0
C705 C 0.09913 0.80764 0.20336 0.0
C706 C 0.10394 0.859 0.22705 0.0
C707 C 0.13832 0.85507 0.22982 0.0
C708 C 0.15296 0.82734 0.21915 0.0
C709 C 0.13327 0.80411 0.20592 0.0
C710 C 0.08751 0.88838 0.23777 0.0
C711 C 0.18952 0.82212 0.2218 0.0
C712 C 0.19976 0.92 0.23234 0.0
C713 C 0.20957 0.91957 0.26508 0.0
C714 C 0.17476 0.90069 0.22101 0.0
C715 C 0.15952 0.88006 0.24285 0.0
C716 C 0.16777 0.88098 0.27639 0.0
C717 C 0.1926 0.90095 0.28718 0.0
C718 C 0.16634 0.9009 0.18521 0.0
C719 C 0.15219 0.85926 0.30043 0.0
H720 H 0.05838 0.83816 0.21219 0.0
H721 H 0.14468 0.78288 0.19808 0.0
H722 H 0.09269 0.89272 0.26388 0.0
H723 H 0.09764 0.90802 0.22387 0.0
H724 H 0.0605 0.88777 0.2342 0.0
H725 H 0.19694 0.79892 0.21332 0.0
H726 H 0.20281 0.83946 0.20709 0.0
H727 H 0.19752 0.82493 0.24746 0.0
H728 H 0.21262 0.93461 0.21522 0.0
H729 H 0.20022 0.90043 0.31247 0.0
H730 H 0.13935 0.90105 0.1817 0.0
H731 H 0.17601 0.87976 0.17358 0.0
H732 H 0.17695 0.92105 0.17244 0.0
H733 H 0.12516 0.85888 0.29733 0.0
H734 H 0.15796 0.86553 0.32602 0.0
H735 H 0.16132 0.83564 0.29587 0.0
C736 C 0.34656 0.63883 0.71418 0.0
C737 C 0.33849 0.62629 0.68388 0.0
C738 C 0.37443 0.6572 0.71787 0.0
C739 C 0.39486 0.66277 0.6906 0.0
C740 C 0.38485 0.65291 0.65931 0.0
C741 C 0.35649 0.63484 0.65627 0.0
C742 C 0.38375 0.66779 0.75163 0.0
C743 C 0.40578 0.65859 0.62964 0.0
C744 C 0.46627 0.71517 0.70998 0.0
C745 C 0.48884 0.69383 0.72231 0.0
C746 C 0.43603 0.70545 0.69728 0.0
C747 C 0.42889 0.67369 0.69624 0.0
C748 C 0.45314 0.65208 0.70565 0.0
C749 C 0.48266 0.66248 0.71909 0.0
C750 C 0.41063 0.72919 0.68824 0.0
C751 C 0.44677 0.61797 0.70439 0.0
H752 H 0.33225 0.63272 0.73543 0.0
H753 H 0.35025 0.62512 0.63276 0.0
H754 H 0.40257 0.65204 0.76176 0.0
H755 H 0.39446 0.69111 0.75097 0.0
H756 H 0.36232 0.6679 0.76835 0.0
H757 H 0.39166 0.65533 0.60675 0.0
H758 H 0.41612 0.68212 0.62994 0.0
H759 H 0.42666 0.64222 0.6296 0.0
H760 H 0.47085 0.73949 0.71312 0.0
H761 H 0.5001 0.6461 0.72891 0.0
H762 H 0.39209 0.73081 0.70796 0.0
H763 H 0.39757 0.72257 0.66562 0.0
H764 H 0.4217 0.75225 0.68484 0.0
H765 H 0.42884 0.61169 0.7236 0.0
H766 H 0.46951 0.60438 0.7083 0.0
H767 H 0.43602 0.61143 0.68056 0.0
C768 C 0.8615 0.35944 0.22399 0.0
C769 C 0.8677 0.36736 0.19156 0.0
C770 C 0.83088 0.36538 0.23828 0.0
C771 C 0.80634 0.38062 0.21997 0.0
C772 C 0.81286 0.38937 0.18737 0.0
C773 C 0.84331 0.38201 0.1733 0.0
C774 C 0.82453 0.35462 0.27266 0.0
C775 C 0.78773 0.40653 0.16741 0.0
C776 C 0.71706 0.37112 0.24455 0.0
C777 C 0.71202 0.39701 0.26414 0.0
C778 C 0.74774 0.36536 0.23028 0.0
C779 C 0.77359 0.38664 0.23474 0.0
C780 C 0.76833 0.41324 0.25391 0.0
C781 C 0.73774 0.4178 0.26894 0.0
C782 C 0.75268 0.33618 0.21104 0.0
C783 C 0.79493 0.43695 0.25836 0.0
H784 H 0.88023 0.34764 0.23788 0.0
H785 H 0.84828 0.38813 0.1482 0.0
H786 H 0.81839 0.37444 0.28847 0.0
H787 H 0.80313 0.3389 0.273 0.0
H788 H 0.84599 0.34247 0.28327 0.0
H789 H 0.79743 0.41344 0.14323 0.0
H790 H 0.76575 0.39199 0.16363 0.0
H791 H 0.77961 0.4274 0.18066 0.0
H792 H 0.69718 0.35492 0.24112 0.0
H793 H 0.73368 0.43794 0.28392 0.0
H794 H 0.77317 0.3227 0.22166 0.0
H795 H 0.75953 0.3417 0.18558 0.0
H796 H 0.73034 0.32161 0.21067 0.0
H797 H 0.81612 0.42668 0.27133 0.0
H798 H 0.78627 0.4572 0.27239 0.0
H799 H 0.8039 0.44481 0.23426 0.0
C800 C 0.01884 0.81227 0.72655 0.0
C801 C 0.01298 0.78078 0.72832 0.0
C802 C 0.04819 0.82342 0.71346 0.0
C803 C 0.07262 0.80239 0.70307 0.0
C804 C 0.06594 0.77054 0.70299 0.0
C805 C 0.03581 0.7601 0.71524 0.0
C806 C 0.05409 0.85763 0.71335 0.0
C807 C 0.09161 0.74741 0.69291 0.0
C808 C 0.14342 0.84287 0.66235 0.0
C809 C 0.16196 0.85115 0.6897 0.0
C810 C 0.11537 0.82449 0.66568 0.0
C811 C 0.10628 0.81393 0.69697 0.0
C812 C 0.12723 0.81929 0.7239 0.0
C813 C 0.15471 0.83814 0.71996 0.0
C814 C 0.09374 0.8192 0.6364 0.0
C815 C 0.11892 0.80777 0.75757 0.0
H816 H 0.00118 0.8281 0.73699 0.0
H817 H 0.03142 0.73564 0.71731 0.0
H818 H 0.07224 0.86354 0.73249 0.0
H819 H 0.06436 0.86503 0.68961 0.0
H820 H 0.03124 0.87082 0.7181 0.0
H821 H 0.08115 0.72405 0.69001 0.0
H822 H 0.10342 0.75434 0.66973 0.0
H823 H 0.11111 0.74639 0.71174 0.0
H824 H 0.14904 0.85298 0.63888 0.0
H825 H 0.16946 0.84407 0.74098 0.0
H826 H 0.07265 0.83531 0.63734 0.0
H827 H 0.08372 0.79556 0.63632 0.0
H828 H 0.1072 0.82315 0.61325 0.0
H829 H 0.09927 0.82233 0.76817 0.0
H830 H 0.14048 0.80853 0.7741 0.0
H831 H 0.10961 0.78392 0.7566 0.0
C832 C 0.64218 0.12307 0.17775 0.0
C833 C 0.61511 0.10334 0.1791 0.0
C834 C 0.67156 0.11565 0.19376 0.0
C835 C 0.67411 0.08749 0.21078 0.0
C836 C 0.64707 0.06716 0.21152 0.0
C837 C 0.61772 0.07553 0.19601 0.0
C838 C 0.69965 0.1382 0.19298 0.0
C839 C 0.64913 0.03661 0.22872 0.0
C840 C 0.76041 0.05802 0.22565 0.0
C841 C 0.76525 0.06554 0.25851 0.0
C842 C 0.73055 0.06432 0.21008 0.0
C843 C 0.70522 0.07923 0.22756 0.0
C844 C 0.70988 0.08675 0.26082 0.0
C845 C 0.73975 0.07943 0.27605 0.0
C846 C 0.72622 0.05522 0.17485 0.0
C847 C 0.68365 0.10323 0.28005 0.0
H848 H 0.64005 0.14478 0.16505 0.0
H849 H 0.59679 0.06024 0.19702 0.0
H850 H 0.70659 0.14468 0.21818 0.0
H851 H 0.72148 0.12744 0.18157 0.0
H852 H 0.69345 0.15939 0.17926 0.0
H853 H 0.62624 0.02301 0.22611 0.0
H854 H 0.66989 0.02301 0.21882 0.0
H855 H 0.65396 0.0402 0.25502 0.0
H856 H 0.78 0.047 0.21211 0.0
H857 H 0.74355 0.08546 0.30138 0.0
H858 H 0.72265 0.07599 0.15966 0.0
H859 H 0.70395 0.04083 0.17207 0.0
H860 H 0.74766 0.04228 0.16528 0.0
H861 H 0.67811 0.12565 0.26847 0.0
H862 H 0.69108 0.10735 0.30571 0.0
H863 H 0.66063 0.0897 0.27996 0.0
C864 C 0.44754 0.78736 0.26606 0.0
C865 C 0.4385 0.77743 0.23484 0.0
C866 C 0.42834 0.80881 0.28305 0.0
C867 C 0.39917 0.82007 0.26865 0.0
C868 C 0.38907 0.8089 0.23792 0.0
C869 C 0.40904 0.78797 0.22128 0.0
C870 C 0.4401 0.82056 0.3156 0.0
C871 C 0.35781 0.81998 0.22198 0.0
C872 C 0.3365 0.8652 0.31773 0.0
C873 C 0.34327 0.89518 0.30749 0.0
C874 C 0.3549 0.84034 0.3058 0.0
C875 C 0.38098 0.84589 0.28378 0.0
C876 C 0.38855 0.87628 0.27435 0.0
C877 C 0.36936 0.9005 0.28605 0.0
C878 C 0.3458 0.80815 0.31583 0.0
C879 C 0.41652 0.8832 0.25135 0.0
H880 H 0.4703 0.77926 0.27672 0.0
H881 H 0.40152 0.78018 0.19753 0.0
H882 H 0.44735 0.84499 0.31323 0.0
H883 H 0.42009 0.81948 0.33386 0.0
H884 H 0.46148 0.80735 0.32488 0.0
H885 H 0.35163 0.80655 0.19982 0.0
H886 H 0.33698 0.8185 0.2393 0.0
H887 H 0.3605 0.84442 0.21496 0.0
H888 H 0.31626 0.86111 0.3343 0.0
H889 H 0.37489 0.92375 0.27844 0.0
H890 H 0.3676 0.79589 0.32543 0.0
H891 H 0.33707 0.79518 0.29426 0.0
H892 H 0.32622 0.80787 0.33465 0.0
H893 H 0.43952 0.87248 0.2603 0.0
H894 H 0.42068 0.90823 0.24844 0.0
H895 H 0.41123 0.87328 0.22703 0.0
C896 C 0.78193 0.39849 0.78264 0.0
C897 C 0.78564 0.39239 0.74929 0.0
C898 C 0.75139 0.39525 0.79803 0.0
C899 C 0.72404 0.38499 0.77981 0.0
C900 C 0.7277 0.37839 0.74623 0.0
C901 C 0.75839 0.38252 0.73128 0.0
C902 C 0.74831 0.40311 0.83372 0.0
C903 C 0.69927 0.36676 0.72615 0.0
C904 C 0.65281 0.35034 0.82682 0.0
C905 C 0.62983 0.37428 0.82608 0.0
C906 C 0.68343 0.35337 0.81151 0.0
C907 C 0.69155 0.38131 0.79589 0.0
C908 C 0.66862 0.40577 0.79565 0.0
C909 C 0.63783 0.40178 0.81036 0.0
C910 C 0.70686 0.3265 0.81154 0.0
C911 C 0.67663 0.43614 0.77989 0.0
H912 H 0.80284 0.40636 0.79664 0.0
H913 H 0.76116 0.37755 0.70556 0.0
H914 H 0.72937 0.42114 0.83712 0.0
H915 H 0.74019 0.38267 0.8476 0.0
H916 H 0.77179 0.41139 0.84426 0.0
H917 H 0.70642 0.36184 0.70057 0.0
H918 H 0.68928 0.34548 0.73714 0.0
H919 H 0.6792 0.38396 0.72602 0.0
H920 H 0.64647 0.32888 0.83856 0.0
H921 H 0.62005 0.4203 0.8098 0.0
H922 H 0.73021 0.33305 0.82354 0.0
H923 H 0.71284 0.31987 0.78613 0.0
H924 H 0.6966 0.3062 0.8243 0.0
H925 H 0.69937 0.44573 0.79068 0.0
H926 H 0.65654 0.45317 0.78281 0.0
H927 H 0.68128 0.4328 0.75352 0.0
C928 C 0.15848 0.60316 0.3226 0.0
C929 C 0.15645 0.57522 0.30577 0.0
C930 C 0.13932 0.62846 0.3131 0.0
C931 C 0.1176 0.62549 0.2864 0.0
C932 C 0.11531 0.59724 0.26957 0.0
C933 C 0.13481 0.57253 0.27942 0.0
C934 C 0.1425 0.65835 0.33138 0.0
C935 C 0.09235 0.59312 0.241 0.0
C936 C 0.04498 0.67756 0.2702 0.0
C937 C 0.05641 0.69404 0.24328 0.0
C938 C 0.06538 0.65629 0.28603 0.0
C939 C 0.09794 0.65197 0.27481 0.0
C940 C 0.11023 0.6704 0.24925 0.0
C941 C 0.08922 0.69114 0.23371 0.0
C942 C 0.05142 0.63701 0.3132 0.0
C943 C 0.14496 0.66688 0.23693 0.0
H944 H 0.17511 0.6053 0.34307 0.0
H945 H 0.13275 0.55089 0.26658 0.0
H946 H 0.15113 0.67661 0.31464 0.0
H947 H 0.11821 0.66564 0.34082 0.0
H948 H 0.15992 0.65666 0.35211 0.0
H949 H 0.09281 0.56935 0.23123 0.0
H950 H 0.06684 0.59873 0.24835 0.0
H951 H 0.09923 0.6091 0.22113 0.0
H952 H 0.01961 0.68007 0.27773 0.0
H953 H 0.09844 0.7048 0.21377 0.0
H954 H 0.06869 0.63603 0.33405 0.0
H955 H 0.04784 0.61317 0.30441 0.0
H956 H 0.02743 0.64595 0.32192 0.0
H957 H 0.16256 0.66659 0.25752 0.0
H958 H 0.15194 0.6856 0.21995 0.0
H959 H 0.14741 0.64468 0.22391 0.0
C960 C 0.87078 0.07497 0.79539 0.0
C961 C 0.8766 0.10114 0.81436 0.0
C962 C 0.84042 0.07056 0.77993 0.0
C963 C 0.81569 0.09325 0.7829 0.0
C964 C 0.82188 0.12017 0.80119 0.0
C965 C 0.85213 0.12361 0.81705 0.0
C966 C 0.83447 0.04124 0.76126 0.0
C967 C 0.79639 0.14518 0.80436 0.0
C968 C 0.74329 0.09272 0.72429 0.0
C969 C 0.71854 0.0804 0.744 0.0
C970 C 0.77519 0.09701 0.73652 0.0
C971 C 0.78253 0.08796 0.76887 0.0
C972 C 0.75781 0.07463 0.78844 0.0
C973 C 0.72606 0.07137 0.77591 0.0
C974 C 0.80078 0.11191 0.71521 0.0
C975 C 0.7648 0.06402 0.82277 0.0
H976 H 0.88972 0.05759 0.79328 0.0
H977 H 0.85675 0.1441 0.8313 0.0
H978 H 0.81433 0.02815 0.77295 0.0
H979 H 0.82659 0.04649 0.73603 0.0
H980 H 0.85665 0.02642 0.76025 0.0
H981 H 0.80602 0.16573 0.81719 0.0
H982 H 0.78756 0.15222 0.77992 0.0
H983 H 0.7749 0.13643 0.81805 0.0
H984 H 0.73747 0.09981 0.69965 0.0
H985 H 0.70707 0.06145 0.79108 0.0
H986 H 0.82258 0.0968 0.71298 0.0
H987 H 0.80912 0.13365 0.72657 0.0
H988 H 0.79135 0.11703 0.69042 0.0
H989 H 0.7859 0.0479 0.82288 0.0
H990 H 0.74337 0.05242 0.83404 0.0
H991 H 0.77163 0.08393 0.83816 0.0
C992 C 0.49082 0.21565 0.06859 0.0
C993 C 0.52195 0.21658 0.08321 0.0
C994 C 0.48353 0.23386 0.04125 0.0
C995 C 0.50797 0.25334 0.02819 0.0
C996 C 0.53911 0.25498 0.0434 0.0
C997 C 0.54566 0.23668 0.07072 0.0
C998 C 0.44997 0.23171 0.02589 0.0
C999 C 0.56587 0.27551 0.0303 0.0
C1000 C 0.50922 0.27789 0.93954 0.0
C1001 C 0.50045 0.30895 0.94193 0.0
C1002 C 0.51007 0.25902 0.96724 0.0
C1003 C 0.50174 0.27144 0.99804 0.0
C1004 C 0.4907 0.30217 1.00023 0.0
C1005 C 0.49026 0.32058 0.97217 0.0
C1006 C 0.52188 0.22632 0.96383 0.0
C1007 C 0.48119 0.31618 0.03252 0.0
H1008 H 0.47231 0.20023 0.07809 0.0
H1009 H 0.56975 0.23765 0.08185 0.0
H1010 H 0.43899 0.2549 0.02343 0.0
H1011 H 0.45214 0.22198 1.00102 0.0
H1012 H 0.433 0.21707 0.04024 0.0
H1013 H 0.58844 0.27473 0.04543 0.0
H1014 H 0.57229 0.26845 0.00513 0.0
H1015 H 0.5571 0.29959 0.02916 0.0
H1016 H 0.51701 0.26864 0.91628 0.0
H1017 H 0.48315 0.34447 0.97424 0.0
H1018 H 0.50483 0.21037 0.97629 0.0
H1019 H 0.54622 0.2239 0.97568 0.0
H1020 H 0.52422 0.21924 0.93794 0.0
H1021 H 0.46429 0.30079 0.04595 0.0
H1022 H 0.46921 0.33892 0.02956 0.0
H1023 H 0.50344 0.31916 0.04776 0.0
C1024 C 0.25823 0.48538 0.4393 0.0
C1025 C 0.23295 0.46667 0.42744 0.0
C1026 C 0.26452 0.48756 0.47284 0.0
C1027 C 0.24531 0.47036 0.49504 0.0
C1028 C 0.22116 0.44998 0.48307 0.0
C1029 C 0.21517 0.44846 0.44943 0.0
C1030 C 0.29057 0.50953 0.48462 0.0
C1031 C 0.20055 0.43087 0.50588 0.0
C1032 C 0.27848 0.46645 0.5814 0.0
C1033 C 0.26139 0.49057 0.5965 0.0
C1034 C 0.27248 0.45863 0.54876 0.0
C1035 C 0.24902 0.47548 0.53071 0.0
C1036 C 0.2305 0.49878 0.5463 0.0
C1037 C 0.23678 0.50593 0.57905 0.0
C1038 C 0.29232 0.43328 0.5332 0.0
C1039 C 0.20519 0.51726 0.52791 0.0
H1040 H 0.27209 0.49952 0.42254 0.0
H1041 H 0.19573 0.43376 0.44047 0.0
H1042 H 0.27891 0.52837 0.49867 0.0
H1043 H 0.30788 0.49763 0.50121 0.0
H1044 H 0.30475 0.51974 0.46423 0.0
H1045 H 0.18554 0.41364 0.49265 0.0
H1046 H 0.21635 0.41876 0.52375 0.0
H1047 H 0.1838 0.44604 0.51985 0.0
H1048 H 0.29738 0.4543 0.59476 0.0
H1049 H 0.22344 0.52458 0.59048 0.0
H1050 H 0.30948 0.44324 0.5151 0.0
H1051 H 0.27602 0.41717 0.51996 0.0
H1052 H 0.30683 0.42015 0.55137 0.0
H1053 H 0.21744 0.5308 0.50854 0.0
H1054 H 0.19151 0.53328 0.54401 0.0
H1055 H 0.18737 0.50178 0.51582 0.0
C1056 C 0.99052 0.26259 0.06944 0.0
C1057 C 0.96641 0.2854 0.06619 0.0
C1058 C 0.99574 0.2408 0.04467 0.0
C1059 C 0.97606 0.2416 0.01625 0.0
C1060 C 0.95233 0.26508 0.01251 0.0
C1061 C 0.94795 0.28676 0.03739 0.0
C1062 C 0.02163 0.2164 0.04933 0.0
C1063 C 0.93056 0.26659 0.98278 0.0
C1064 C 0.99649 0.1974 0.9388 0.0
C1065 C 0.97583 0.17182 0.94177 0.0
C1066 C 0.99802 0.21973 0.96354 0.0
C1067 C 0.97811 0.21655 0.99162 0.0
C1068 C 0.95805 0.19029 0.99515 0.0
C1069 C 0.95733 0.16821 0.97033 0.0
C1070 C 0.0201 0.24718 0.95915 0.0
C1071 C 0.93619 0.18612 0.02453 0.0
H1072 H 0.00507 0.26151 0.0915 0.0
H1073 H 0.92928 0.3043 0.0346 0.0
H1074 H 0.00973 0.19369 0.05216 0.0
H1075 H 0.03772 0.21508 0.02758 0.0
H1076 H 0.03708 0.22078 0.07112 0.0
H1077 H 0.91446 0.28718 0.98282 0.0
H1078 H 0.94566 0.26688 0.96032 0.0
H1079 H 0.91484 0.24585 0.98171 0.0
H1080 H 0.01101 0.20029 0.91691 0.0
H1081 H 0.94133 0.14853 0.97295 0.0
H1082 H 0.03537 0.2507 0.9812 0.0
H1083 H 0.00497 0.26812 0.95585 0.0
H1084 H 0.03652 0.24468 0.93771 0.0
H1085 H 0.95082 0.18776 0.04724 0.0
H1086 H 0.92326 0.1637 0.02432 0.0
H1087 H 0.91756 0.2047 0.02526 0.0
C1088 C 0.23801 0.98147 0.44242 0.0
C1089 C 0.26145 0.00147 0.42928 0.0
C1090 C 0.23256 0.98012 0.47615 0.0
C1091 C 0.25078 -0.00059 0.49722 0.0
C1092 C 0.27303 0.02091 0.48395 0.0
C1093 C 0.27816 0.02163 0.45015 0.0
C1094 C 0.20847 0.95696 0.48936 0.0
C1095 C 0.29256 0.04218 0.50554 0.0
C1096 C 0.21884 0.00523 0.5839 0.0
C1097 C 0.23782 0.98292 0.59985 0.0
C1098 C 0.22367 0.01182 0.55079 0.0
C1099 C 0.24796 0.99561 0.53315 0.0
C1100 C 0.26836 0.97426 0.54952 0.0
C1101 C 0.26313 0.96825 0.58271 0.0
C1102 C 0.20175 0.03508 0.53435 0.0
C1103 C 0.29466 0.95659 0.53159 0.0
H1104 H 0.22498 0.96581 0.42651 0.0
H1105 H 0.29618 0.03731 0.44021 0.0
H1106 H 0.22178 0.93954 0.50401 0.0
H1107 H 0.19056 0.96835 0.50574 0.0
H1108 H 0.19481 0.94499 0.46971 0.0
H1109 H 0.3062 0.05968 0.49132 0.0
H1110 H 0.27616 0.05408 0.52304 0.0
H1111 H 0.31046 0.02865 0.51998 0.0
H1112 H 0.19935 0.01684 0.597 0.0
H1113 H 0.27793 0.951 0.59481 0.0
H1114 H 0.1852 0.02323 0.51699 0.0
H1115 H 0.21661 0.05165 0.52013 0.0
H1116 H 0.18648 0.048 0.5521 0.0
H1117 H 0.28312 0.9414 0.51318 0.0
H1118 H 0.30975 0.94225 0.54821 0.0
H1119 H 0.31108 0.97258 0.51838 0.0
C1120 C 0.52242 0.72865 0.91864 0.0
C1121 C 0.51012 0.70427 0.90001 0.0
C1122 C 0.51974 0.72852 0.9528 0.0
C1123 C 0.50472 0.7033 0.96865 0.0
C1124 C 0.49399 0.67789 0.95007 0.0
C1125 C 0.49665 0.67875 0.91604 0.0
C1126 C 0.53134 0.75613 0.97175 0.0
C1127 C 0.47814 0.65042 0.96598 0.0
C1128 C 0.51037 0.6966 0.06115 0.0
C1129 C 0.48032 0.70951 0.07083 0.0
C1130 C 0.51871 0.69416 0.02796 0.0
C1131 C 0.49656 0.70503 0.00397 0.0
C1132 C 0.46601 0.71751 0.0136 0.0
C1133 C 0.45824 0.71946 0.04675 0.0
C1134 C 0.55134 0.68038 0.01855 0.0
C1135 C 0.4416 0.72929 0.98885 0.0
H1136 H 0.53293 0.7484 0.9065 0.0
H1137 H 0.48751 0.65957 0.90192 0.0
H1138 H 0.50984 0.76846 0.98198 0.0
H1139 H 0.54691 0.74888 0.99253 0.0
H1140 H 0.54549 0.77236 0.95636 0.0
H1141 H 0.47475 0.6311 0.94865 0.0
H1142 H 0.49316 0.6423 0.9868 0.0
H1143 H 0.45374 0.65703 0.97573 0.0
H1144 H 0.52763 0.68889 0.07949 0.0
H1145 H 0.4349 0.7294 0.05376 0.0
H1146 H 0.56636 0.69772 0.00559 0.0
H1147 H 0.54759 0.66093 1.00152 0.0
H1148 H 0.56534 0.67205 0.04001 0.0
H1149 H 0.45293 0.74775 0.97406 0.0
H1150 H 0.41898 0.73851 1.00038 0.0
H1151 H 0.43456 0.71059 0.97193 0.0
C1152 C 0.8085 0.40683 0.54294 0.0
C1153 C 0.80548 0.42414 0.57159 0.0
C1154 C 0.78654 0.41067 0.51698 0.0
C1155 C 0.76117 0.43276 0.51943 0.0
C1156 C 0.7587 0.45117 0.54777 0.0
C1157 C 0.78071 0.44644 0.5737 0.0
C1158 C 0.78975 0.39018 0.48746 0.0
C1159 C 0.73234 0.47533 0.55101 0.0
C1160 C 0.71829 0.45078 0.43926 0.0
C1161 C 0.6908 0.43154 0.44109 0.0
C1162 C 0.74068 0.45267 0.4653 0.0
C1163 C 0.73573 0.43445 0.49344 0.0
C1164 C 0.70756 0.41564 0.49568 0.0
C1165 C 0.68536 0.41463 0.46965 0.0
C1166 C 0.7701 0.47347 0.46231 0.0
C1167 C 0.70157 0.39544 0.52498 0.0
H1168 H 0.82753 0.38953 0.54107 0.0
H1169 H 0.77842 0.46009 0.59565 0.0
H1170 H 0.76759 0.37557 0.48521 0.0
H1171 H 0.79142 0.40421 0.46501 0.0
H1172 H 0.81166 0.37504 0.48877 0.0
H1173 H 0.7358 0.48983 0.573 0.0
H1174 H 0.73209 0.49032 0.52918 0.0
H1175 H 0.70794 0.46417 0.55256 0.0
H1176 H 0.72253 0.46409 0.41737 0.0
H1177 H 0.66421 0.39967 0.47135 0.0
H1178 H 0.79275 0.45944 0.46035 0.0
H1179 H 0.77253 0.48795 0.48441 0.0
H1180 H 0.76852 0.48862 0.44062 0.0
H1181 H 0.72149 0.37815 0.52697 0.0
H1182 H 0.67773 0.3832 0.52358 0.0
H1183 H 0.70195 0.40933 0.54761 0.0
C1184 C 0.98604 0.76619 0.06569 0.0
C1185 C 0.0153 0.75208 0.07584 0.0
C1186 C 0.97808 0.76842 0.03239 0.0
C1187 C 0.99985 0.75624 0.00878 0.0
C1188 C 0.02945 0.74219 0.01889 0.0
C1189 C 0.03681 0.74036 0.05215 0.0
C1190 C 0.94639 0.78374 0.02247 0.0
C1191 C 0.05347 0.72906 0.99454 0.0
C1192 C 0.97455 0.7362 0.9221 0.0
C1193 C 0.98851 0.76051 0.90458 0.0
C1194 C 0.9766 0.73517 0.95631 0.0
C1195 C 0.99276 0.75911 0.97331 0.0
C1196 C 0.00534 0.78443 0.95582 0.0
C1197 C 0.00315 0.78477 0.92177 0.0
C1198 C 0.96291 0.70775 0.97413 0.0
C1199 C 0.02259 0.81053 0.97293 0.0
H1200 H 0.96918 0.7752 0.08372 0.0
H1201 H 0.0595 0.7294 0.05955 0.0
H1202 H 0.95165 0.80371 0.00658 0.0
H1203 H 0.93118 0.76755 0.00812 0.0
H1204 H 0.93193 0.79174 0.04378 0.0
H1205 H 0.07504 0.71822 0.00644 0.0
H1206 H 0.04114 0.71161 0.97915 0.0
H1207 H 0.06235 0.74747 0.97811 0.0
H1208 H 0.9631 0.71742 0.90907 0.0
H1209 H 0.0136 0.80394 0.90856 0.0
H1210 H 0.94738 0.71529 0.99483 0.0
H1211 H 0.98338 0.69399 0.98435 0.0
H1212 H 0.9481 0.69277 0.95793 0.0
H1213 H 0.00744 0.8192 0.99341 0.0
H1214 H 0.028 0.82992 0.95624 0.0
H1215 H 0.04607 0.80218 0.98336 0.0
C1216 C 0.70393 0.02475 0.57265 0.0
C1217 C 0.67851 0.04646 0.57152 0.0
C1218 C 0.72464 0.02006 0.54568 0.0
C1219 C 0.72013 0.03786 0.51716 0.0
C1220 C 0.69393 0.05916 0.51561 0.0
C1221 C 0.67335 0.06303 0.54268 0.0
C1222 C 0.75198 0.99677 0.54806 0.0
C1223 C 0.6885 0.07892 0.48587 0.0
C1224 C 0.79363 0.05651 0.46415 0.0
C1225 C 0.78805 0.03827 0.43653 0.0
C1226 C 0.77209 0.05602 0.49075 0.0
C1227 C 0.74443 0.03646 0.49006 0.0
C1228 C 0.73915 0.01721 0.46274 0.0
C1229 C 0.7609 0.01852 0.43613 0.0
C1230 C 0.77842 0.07725 0.51916 0.0
C1231 C 0.71021 0.99568 0.46137 0.0
H1232 H 0.70793 0.01167 0.59474 0.0
H1233 H 0.65377 0.07985 0.54152 0.0
H1234 H 0.75181 0.98147 0.52646 0.0
H1235 H 0.77599 0.00872 0.54838 0.0
H1236 H 0.75003 0.9825 0.57038 0.0
H1237 H 0.66593 0.09311 0.48782 0.0
H1238 H 0.70979 0.09443 0.48247 0.0
H1239 H 0.68665 0.06442 0.46376 0.0
H1240 H 0.81449 0.07189 0.46473 0.0
H1241 H 0.75654 0.00423 0.41497 0.0
H1242 H 0.77974 0.06396 0.54214 0.0
H1243 H 0.75781 0.09376 0.52162 0.0
H1244 H 0.80157 0.09041 0.51634 0.0
H1245 H 0.70941 0.98129 0.48363 0.0
H1246 H 0.71106 0.98043 0.43971 0.0
H1247 H 0.68709 0.00911 0.46059 0.0
loop_
_geom_bond_atom_site_label_1
_geom_bond_atom_site_label_2
_geom_bond_distance
_geom_bond_site_symmetry_2
_ccdc_geom_bond_type
Mg0 O1 2.028 . S
Mg0 O7 1.986 . S
Mg0 O9 2.114 . S
Mg0 O10 2.251 . S
Mg0 O13 2.010 . S
O1 Mg0 2.028 . S
O1 C4 1.250 . S
O2 Mg3 2.028 . S
O2 C4 1.248 . S
Mg3 O2 2.028 . S
Mg3 O8 2.032 . S
Mg3 O10 2.079 . S
C4 O1 1.250 . S
C4 O2 1.248 . S
C5 O6 1.264 . S
C5 O13 1.249 . S
O6 C5 1.264 . S
O7 Mg0 1.986 . S
O7 C11 1.246 . S
O8 Mg3 2.032 . S
O8 C11 1.259 . S
O9 Mg0 2.114 . S
O9 C12 1.252 . S
O10 Mg0 2.251 . S
O10 Mg3 2.079 . S
O10 C12 1.273 . S
C11 O7 1.246 . S
C11 O8 1.259 . S
C12 O9 1.252 . S
C12 O10 1.273 . S
O13 Mg0 2.010 . S
O13 C5 1.249 . S
Mg14 O15 2.028 . S
Mg14 O21 1.986 . S
Mg14 O23 2.114 . S
Mg14 O24 2.251 . S
Mg14 O27 2.010 . S
O15 Mg14 2.028 . S
O15 C18 1.250 . S
O16 Mg17 2.028 . S
O16 C18 1.248 . S
Mg17 O16 2.028 . S
Mg17 O22 2.032 . S
Mg17 O24 2.079 . S
C18 O15 1.250 . S
C18 O16 1.248 . S
C19 O20 1.264 . S
C19 O27 1.249 . S
O20 C19 1.264 . S
O21 Mg14 1.986 . S
O21 C25 1.246 . S
O22 Mg17 2.032 . S
O22 C25 1.259 . S
O23 Mg14 2.114 . S
O23 C26 1.252 . S
O24 Mg14 2.251 . S
O24 Mg17 2.079 . S
O24 C26 1.273 . S
C25 O21 1.246 . S
C25 O22 1.259 . S
C26 O23 1.252 . S
C26 O24 1.273 . S
O27 Mg14 2.010 . S
O27 C19 1.249 . S
Mg28 O29 2.028 . S
Mg28 O35 1.986 1_655 S
Mg28 O37 2.114 . S
Mg28 O38 2.251 . S
Mg28 O41 2.010 . S
O29 Mg28 2.028 . S
O29 C32 1.250 . S
O30 Mg31 2.028 . S
O30 C32 1.248 . S
Mg31 O30 2.028 . S
Mg31 O36 2.032 1_655 S
Mg31 O38 2.079 . S
C32 O29 1.250 . S
C32 O30 1.248 . S
C33 O34 1.264 . S
C33 O41 1.249 . S
O34 C33 1.264 . S
O35 Mg28 1.986 1_455 S
O35 C39 1.246 . S
O36 Mg31 2.032 1_455 S
O36 C39 1.259 . S
O37 Mg28 2.114 . S
O37 C40 1.252 . S
O38 Mg28 2.251 . S
O38 Mg31 2.079 . S
O38 C40 1.273 . S
C39 O35 1.246 . S
C39 O36 1.259 . S
C40 O37 1.252 . S
C40 O38 1.273 . S
O41 Mg28 2.010 . S
O41 C33 1.249 . S
Mg42 O43 2.028 . S
Mg42 O49 1.986 . S
Mg42 O51 2.114 . S
Mg42 O52 2.251 . S
Mg42 O55 2.010 . S
O43 Mg42 2.028 . S
O43 C46 1.250 . S
O44 Mg45 2.028 . S
O44 C46 1.248 . S
Mg45 O44 2.028 . S
Mg45 O50 2.032 . S
Mg45 O52 2.079 . S
C46 O43 1.250 . S
C46 O44 1.248 . S
C47 O48 1.264 . S
C47 O55 1.249 . S
O48 C47 1.264 . S
O49 Mg42 1.986 . S
O49 C53 1.246 . S
O50 Mg45 2.032 . S
O50 C53 1.259 . S
O51 Mg42 2.114 . S
O51 C54 1.252 . S
O52 Mg42 2.251 . S
O52 Mg45 2.079 . S
O52 C54 1.273 . S
C53 O49 1.246 . S
C53 O50 1.259 . S
C54 O51 1.252 . S
C54 O52 1.273 . S
O55 Mg42 2.010 . S
O55 C47 1.249 . S
Mg56 O57 2.028 . S
Mg56 O63 1.986 . S
Mg56 O65 2.114 . S
Mg56 O66 2.251 . S
Mg56 O69 2.010 . S
O57 Mg56 2.028 . S
O57 C60 1.250 . S
O58 Mg59 2.028 . S
O58 C60 1.248 . S
Mg59 O58 2.028 . S
Mg59 O64 2.032 . S
Mg59 O66 2.079 . S
C60 O57 1.250 . S
C60 O58 1.248 . S
C61 O62 1.264 . S
C61 O69 1.249 . S
O62 C61 1.264 . S
O63 Mg56 1.986 . S
O63 C67 1.246 . S
O64 Mg59 2.032 . S
O64 C67 1.259 . S
O65 Mg56 2.114 . S
O65 C68 1.252 . S
O66 Mg56 2.251 . S
O66 Mg59 2.079 . S
O66 C68 1.273 . S
C67 O63 1.246 . S
C67 O64 1.259 . S
C68 O65 1.252 . S
C68 O66 1.273 . S
O69 Mg56 2.010 . S
O69 C61 1.249 . S
Mg70 O71 2.028 . S
Mg70 O77 1.986 . S
Mg70 O79 2.114 . S
Mg70 O80 2.251 . S
Mg70 O83 2.010 . S
O71 Mg70 2.028 . S
O71 C74 1.250 . S
O72 Mg73 2.028 . S
O72 C74 1.248 . S
Mg73 O72 2.028 . S
Mg73 O78 2.032 . S
Mg73 O80 2.079 . S
C74 O71 1.250 . S
C74 O72 1.248 . S
C75 O76 1.264 . S
C75 O83 1.249 . S
O76 C75 1.264 . S
O77 Mg70 1.986 . S
O77 C81 1.246 . S
O78 Mg73 2.032 . S
O78 C81 1.259 . S
O79 Mg70 2.114 . S
O79 C82 1.252 . S
O80 Mg70 2.251 . S
O80 Mg73 2.079 . S
O80 C82 1.273 . S
C81 O77 1.246 . S
C81 O78 1.259 . S
C82 O79 1.252 . S
C82 O80 1.273 . S
O83 Mg70 2.010 . S
O83 C75 1.249 . S
Mg84 O85 2.028 . S
Mg84 O91 1.986 1_655 S
Mg84 O93 2.114 . S
Mg84 O94 2.251 . S
Mg84 O97 2.010 . S
O85 Mg84 2.028 . S
O85 C88 1.250 . S
O86 Mg87 2.028 . S
O86 C88 1.248 . S
Mg87 O86 2.028 . S
Mg87 O92 2.032 1_655 S
Mg87 O94 2.079 . S
C88 O85 1.250 . S
C88 O86 1.248 . S
C89 O90 1.264 . S
C89 O97 1.249 . S
O90 C89 1.264 . S
O91 Mg84 1.986 1_455 S
O91 C95 1.246 . S
O92 Mg87 2.032 1_455 S
O92 C95 1.259 . S
O93 Mg84 2.114 . S
O93 C96 1.252 . S
O94 Mg84 2.251 . S
O94 Mg87 2.079 . S
O94 C96 1.273 . S
C95 O91 1.246 . S
C95 O92 1.259 . S
C96 O93 1.252 . S
C96 O94 1.273 . S
O97 Mg84 2.010 . S
O97 C89 1.249 . S
Mg98 O99 2.028 . S
Mg98 O105 1.986 . S
Mg98 O107 2.114 . S
Mg98 O108 2.251 . S
Mg98 O111 2.010 . S
O99 Mg98 2.028 . S
O99 C102 1.250 . S
O100 Mg101 2.028 . S
O100 C102 1.248 . S
Mg101 O100 2.028 . S
Mg101 O106 2.032 . S
Mg101 O108 2.079 . S
C102 O99 1.250 . S
C102 O100 1.248 . S
C103 O104 1.264 . S
C103 O111 1.249 . S
O104 C103 1.264 . S
O105 Mg98 1.986 . S
O105 C109 1.246 . S
O106 Mg101 2.032 . S
O106 C109 1.259 . S
O107 Mg98 2.114 . S
O107 C110 1.252 . S
O108 Mg98 2.251 . S
O108 Mg101 2.079 . S
O108 C110 1.273 . S
C109 O105 1.246 . S
C109 O106 1.259 . S
C110 O107 1.252 . S
C110 O108 1.273 . S
O111 Mg98 2.010 . S
O111 C103 1.249 . S
Mg112 O113 2.028 . S
Mg112 O119 1.986 . S
Mg112 O121 2.114 . S
Mg112 O122 2.251 . S
Mg112 O125 2.010 . S
O113 Mg112 2.028 . S
O113 C116 1.250 . S
O114 Mg115 2.028 . S
O114 C116 1.248 . S
Mg115 O114 2.028 . S
Mg115 O120 2.032 . S
Mg115 O122 2.079 . S
C116 O113 1.250 . S
C116 O114 1.248 . S
C117 O118 1.264 . S
C117 O125 1.249 . S
O118 C117 1.264 . S
O119 Mg112 1.986 . S
O119 C123 1.246 . S
O120 Mg115 2.032 . S
O120 C123 1.259 . S
O121 Mg112 2.114 . S
O121 C124 1.252 . S
O122 Mg112 2.251 . S
O122 Mg115 2.079 . S
O122 C124 1.273 . S
C123 O119 1.246 . S
C123 O120 1.259 . S
C124 O121 1.252 . S
C124 O122 1.273 . S
O125 Mg112 2.010 . S
O125 C117 1.249 . S
Mg126 O127 2.028 . S
Mg126 O133 1.986 . S
Mg126 O135 2.114 . S
Mg126 O136 2.251 . S
Mg126 O139 2.010 . S
O127 Mg126 2.028 . S
O127 C130 1.250 . S
O128 Mg129 2.028 . S
O128 C130 1.248 . S
Mg129 O128 2.028 . S
Mg129 O134 2.032 . S
Mg129 O136 2.079 . S
C130 O127 1.250 . S
C130 O128 1.248 . S
C131 O132 1.264 . S
C131 O139 1.249 . S
O132 C131 1.264 . S
O133 Mg126 1.986 . S
O133 C137 1.246 . S
O134 Mg129 2.032 . S
O134 C137 1.259 . S
O135 Mg126 2.114 . S
O135 C138 1.252 . S
O136 Mg126 2.251 . S
O136 Mg129 2.079 . S
O136 C138 1.273 . S
C137 O133 1.246 . S
C137 O134 1.259 . S
C138 O135 1.252 . S
C138 O136 1.273 . S
O139 Mg126 2.010 . S
O139 C131 1.249 . S
Mg140 O141 2.028 . S
Mg140 O147 1.986 . S
Mg140 O149 2.114 . S
Mg140 O150 2.251 . S
Mg140 O153 2.010 1_455 S
O141 Mg140 2.028 . S
O141 C144 1.250 . S
O142 Mg143 2.028 . S
O142 C144 1.248 . S
Mg143 O142 2.028 . S
Mg143 O148 2.032 . S
Mg143 O150 2.079 . S
C144 O141 1.250 . S
C144 O142 1.248 . S
C145 O146 1.264 . S
C145 O153 1.249 . S
O146 C145 1.264 . S
O147 Mg140 1.986 . S
O147 C151 1.246 . S
O148 Mg143 2.032 . S
O148 C151 1.259 . S
O149 Mg140 2.114 . S
O149 C152 1.252 . S
O150 Mg140 2.251 . S
O150 Mg143 2.079 . S
O150 C152 1.273 . S
C151 O147 1.246 . S
C151 O148 1.259 . S
C152 O149 1.252 . S
C152 O150 1.273 . S
O153 Mg140 2.010 1_655 S
O153 C145 1.249 . S
Mg154 O155 2.028 . S
Mg154 O161 1.986 1_545 S
Mg154 O163 2.114 . S
Mg154 O164 2.251 . S
Mg154 O167 2.010 . S
O155 Mg154 2.028 . S
O155 C158 1.250 . S
O156 Mg157 2.028 . S
O156 C158 1.248 . S
Mg157 O156 2.028 . S
Mg157 O162 2.026 1_545 S
Mg157 O164 2.079 . S
C158 O155 1.250 . S
C158 O156 1.248 . S
C159 O160 1.264 . S
C159 O167 1.249 . S
O160 C159 1.264 . S
O161 Mg154 1.986 1_565 S
O161 C165 1.246 . S
O162 Mg157 2.026 1_565 S
O162 C165 1.263 . S
O163 Mg154 2.114 . S
O163 C166 1.252 . S
O164 Mg154 2.251 . S
O164 Mg157 2.079 . S
O164 C166 1.273 . S
C165 O161 1.246 . S
C165 O162 1.263 . S
C166 O163 1.252 . S
C166 O164 1.273 . S
O167 Mg154 2.010 . S
O167 C159 1.249 . S
Mg168 O169 2.028 . S
Mg168 O175 1.986 . S
Mg168 O177 2.114 . S
Mg168 O178 2.251 . S
Mg168 O181 2.010 . S
O169 Mg168 2.028 . S
O169 C172 1.250 . S
O170 Mg171 2.028 . S
O170 C172 1.248 . S
Mg171 O170 2.028 . S
Mg171 O176 2.032 . S
Mg171 O178 2.079 . S
C172 O169 1.250 . S
C172 O170 1.248 . S
C173 O174 1.264 . S
C173 O181 1.249 . S
O174 C173 1.264 . S
O175 Mg168 1.986 . S
O175 C179 1.246 . S
O176 Mg171 2.032 . S
O176 C179 1.259 . S
O177 Mg168 2.114 . S
O177 C180 1.252 . S
O178 Mg168 2.251 . S
O178 Mg171 2.079 . S
O178 C180 1.273 . S
C179 O175 1.246 . S
C179 O176 1.259 . S
C180 O177 1.252 . S
C180 O178 1.273 . S
O181 Mg168 2.010 . S
O181 C173 1.249 . S
Mg182 O183 2.028 . S
Mg182 O189 1.986 . S
Mg182 O191 2.114 . S
Mg182 O192 2.251 . S
Mg182 O195 2.010 . S
O183 Mg182 2.028 . S
O183 C186 1.250 . S
O184 Mg185 2.028 . S
O184 C186 1.248 . S
Mg185 O184 2.028 . S
Mg185 O190 2.032 . S
Mg185 O192 2.079 . S
C186 O183 1.250 . S
C186 O184 1.248 . S
C187 O188 1.264 . S
C187 O195 1.249 . S
O188 C187 1.264 . S
O189 Mg182 1.986 . S
O189 C193 1.246 . S
O190 Mg185 2.032 . S
O190 C193 1.259 . S
O191 Mg182 2.114 . S
O191 C194 1.252 . S
O192 Mg182 2.251 . S
O192 Mg185 2.079 . S
O192 C194 1.273 . S
C193 O189 1.246 . S
C193 O190 1.259 . S
C194 O191 1.252 . S
C194 O192 1.273 . S
O195 Mg182 2.010 . S
O195 C187 1.249 . S
Mg196 O197 2.028 . S
Mg196 O203 1.986 . S
Mg196 O205 2.114 . S
Mg196 O206 2.251 . S
Mg196 O209 2.010 1_455 S
O197 Mg196 2.028 . S
O197 C200 1.250 . S
O198 Mg199 2.028 . S
O198 C200 1.248 . S
Mg199 O198 2.028 . S
Mg199 O204 2.032 . S
Mg199 O206 2.079 . S
C200 O197 1.250 . S
C200 O198 1.248 . S
C201 O202 1.264 . S
C201 O209 1.249 . S
O202 C201 1.264 . S
O203 Mg196 1.986 . S
O203 C207 1.246 . S
O204 Mg199 2.032 . S
O204 C207 1.259 . S
O205 Mg196 2.114 . S
O205 C208 1.252 . S
O206 Mg196 2.251 . S
O206 Mg199 2.079 . S
O206 C208 1.273 . S
C207 O203 1.246 . S
C207 O204 1.259 . S
C208 O205 1.252 . S
C208 O206 1.273 . S
O209 Mg196 2.010 1_655 S
O209 C201 1.249 . S
Mg210 O211 2.028 . S
Mg210 O217 1.986 1_545 S
Mg210 O219 2.114 . S
Mg210 O220 2.251 . S
Mg210 O223 2.010 . S
O211 Mg210 2.028 . S
O211 C214 1.250 . S
O212 Mg213 2.028 . S
O212 C214 1.248 . S
Mg213 O212 2.028 . S
Mg213 O218 2.026 1_545 S
Mg213 O220 2.079 . S
C214 O211 1.250 . S
C214 O212 1.248 . S
C215 O216 1.264 . S
C215 O223 1.249 . S
O216 C215 1.264 . S
O217 Mg210 1.986 1_565 S
O217 C221 1.246 . S
O218 Mg213 2.026 1_565 S
O218 C221 1.263 . S
O219 Mg210 2.114 . S
O219 C222 1.252 . S
O220 Mg210 2.251 . S
O220 Mg213 2.079 . S
O220 C222 1.273 . S
C221 O217 1.246 . S
C221 O218 1.263 . S
C222 O219 1.252 . S
C222 O220 1.273 . S
O223 Mg210 2.010 . S
O223 C215 1.249 . S
C224 C225 1.391 . S
C224 C226 1.394 . S
C224 H240 0.931 . S
C225 C224 1.391 . S
C225 C229 1.376 . S
C226 C224 1.394 . S
C226 C227 1.369 . S
C226 C230 1.531 . S
C227 C226 1.369 . S
C227 C228 1.410 . S
C227 C235 1.503 . S
C228 C227 1.410 . S
C228 C229 1.392 . S
C228 C231 1.511 . S
C229 C225 1.376 . S
C229 C228 1.392 . S
C229 H241 0.929 . S
C230 C226 1.531 . S
C230 H242 0.960 . S
C230 H243 0.962 . S
C230 H244 0.960 . S
C231 C228 1.511 . S
C231 H245 0.961 . S
C231 H246 0.961 . S
C231 H247 0.961 . S
C232 C233 1.370 . S
C232 C234 1.363 . S
C232 H248 0.931 . S
C233 C232 1.370 . S
C233 C237 1.408 . S
C234 C232 1.363 . S
C234 C235 1.370 . S
C234 C238 1.524 . S
C235 C227 1.503 . S
C235 C234 1.370 . S
C235 C236 1.403 . S
C236 C235 1.403 . S
C236 C237 1.404 . S
C236 C239 1.539 . S
C237 C233 1.408 . S
C237 C236 1.404 . S
C237 H249 0.930 . S
C238 C234 1.524 . S
C238 H250 0.956 . S
C238 H251 0.961 . S
C238 H252 0.961 . S
C239 C236 1.539 . S
C239 H253 0.958 . S
C239 H254 0.961 . S
C239 H255 0.960 . S
H240 C224 0.931 . S
H241 C229 0.929 . S
H242 C230 0.960 . S
H243 C230 0.962 . S
H244 C230 0.960 . S
H245 C231 0.961 . S
H246 C231 0.961 . S
H247 C231 0.961 . S
H248 C232 0.931 . S
H249 C237 0.930 . S
H250 C238 0.956 . S
H251 C238 0.961 . S
H252 C238 0.961 . S
H253 C239 0.958 . S
H254 C239 0.961 . S
H255 C239 0.960 . S
C256 C257 1.391 . S
C256 C258 1.394 . S
C256 H272 0.931 . S
C257 C256 1.391 . S
C257 C261 1.376 . S
C258 C256 1.394 . S
C258 C259 1.369 . S
C258 C262 1.531 . S
C259 C258 1.369 . S
C259 C260 1.410 . S
C259 C267 1.503 . S
C260 C259 1.410 . S
C260 C261 1.392 . S
C260 C263 1.511 . S
C261 C257 1.376 . S
C261 C260 1.392 . S
C261 H273 0.929 . S
C262 C258 1.531 . S
C262 H274 0.960 . S
C262 H275 0.962 . S
C262 H276 0.960 . S
C263 C260 1.511 . S
C263 H277 0.961 . S
C263 H278 0.961 . S
C263 H279 0.961 . S
C264 C265 1.370 . S
C264 C266 1.363 . S
C264 H280 0.931 . S
C265 C264 1.370 . S
C265 C269 1.408 . S
C266 C264 1.363 . S
C266 C267 1.370 . S
C266 C270 1.524 . S
C267 C259 1.503 . S
C267 C266 1.370 . S
C267 C268 1.403 . S
C268 C267 1.403 . S
C268 C269 1.404 . S
C268 C271 1.539 . S
C269 C265 1.408 . S
C269 C268 1.404 . S
C269 H281 0.930 . S
C270 C266 1.524 . S
C270 H282 0.956 . S
C270 H283 0.961 . S
C270 H284 0.961 . S
C271 C268 1.539 . S
C271 H285 0.958 . S
C271 H286 0.961 . S
C271 H287 0.960 . S
H272 C256 0.931 . S
H273 C261 0.929 . S
H274 C262 0.960 . S
H275 C262 0.962 . S
H276 C262 0.960 . S
H277 C263 0.961 . S
H278 C263 0.961 . S
H279 C263 0.961 . S
H280 C264 0.931 . S
H281 C269 0.930 . S
H282 C270 0.956 . S
H283 C270 0.961 . S
H284 C270 0.961 . S
H285 C271 0.958 . S
H286 C271 0.961 . S
H287 C271 0.960 . S
C288 C289 1.391 . S
C288 C290 1.394 . S
C288 H304 0.931 . S
C289 C288 1.391 . S
C289 C293 1.376 . S
C290 C288 1.394 . S
C290 C291 1.369 . S
C290 C294 1.531 . S
C291 C290 1.369 . S
C291 C292 1.410 . S
C291 C299 1.503 . S
C292 C291 1.410 . S
C292 C293 1.392 . S
C292 C295 1.511 . S
C293 C289 1.376 . S
C293 C292 1.392 . S
C293 H305 0.929 . S
C294 C290 1.531 . S
C294 H306 0.960 . S
C294 H307 0.962 . S
C294 H308 0.960 . S
C295 C292 1.511 . S
C295 H309 0.961 . S
C295 H310 0.961 . S
C295 H311 0.961 . S
C296 C297 1.370 . S
C296 C298 1.363 . S
C296 H312 0.931 . S
C297 C296 1.370 . S
C297 C301 1.408 . S
C298 C296 1.363 . S
C298 C299 1.370 . S
C298 C302 1.524 . S
C299 C291 1.503 . S
C299 C298 1.370 . S
C299 C300 1.403 . S
C300 C299 1.403 . S
C300 C301 1.404 . S
C300 C303 1.539 . S
C301 C297 1.408 . S
C301 C300 1.404 . S
C301 H313 0.930 . S
C302 C298 1.524 . S
C302 H314 0.956 . S
C302 H315 0.961 . S
C302 H316 0.961 . S
C303 C300 1.539 . S
C303 H317 0.958 . S
C303 H318 0.961 . S
C303 H319 0.960 . S
H304 C288 0.931 . S
H305 C293 0.929 . S
H306 C294 0.960 . S
H307 C294 0.962 . S
H308 C294 0.960 . S
H309 C295 0.961 . S
H310 C295 0.961 . S
H311 C295 0.961 . S
H312 C296 0.931 . S
H313 C301 0.930 . S
H314 C302 0.956 . S
H315 C302 0.961 . S
H316 C302 0.961 . S
H317 C303 0.958 . S
H318 C303 0.961 . S
H319 C303 0.960 . S
C320 C321 1.391 . S
C320 C322 1.394 . S
C320 H336 0.931 1_545 S
C321 C320 1.391 . S
C321 C325 1.376 . S
C322 C320 1.394 . S
C322 C323 1.369 . S
C322 C326 1.531 . S
C323 C322 1.369 . S
C323 C324 1.410 . S
C323 C331 1.503 . S
C324 C323 1.410 . S
C324 C325 1.392 . S
C324 C327 1.511 . S
C325 C321 1.376 . S
C325 C324 1.392 . S
C325 H337 0.929 . S
C326 C322 1.531 . S
C326 H338 0.960 . S
C326 H339 0.962 . S
C326 H340 0.960 . S
C327 C324 1.511 . S
C327 H341 0.961 . S
C327 H342 0.961 . S
C327 H343 0.961 . S
C328 C329 1.370 . S
C328 C330 1.363 . S
C328 H344 0.931 . S
C329 C328 1.370 . S
C329 C333 1.408 . S
C330 C328 1.363 . S
C330 C331 1.370 . S
C330 C334 1.524 . S
C331 C323 1.503 . S
C331 C330 1.370 . S
C331 C332 1.403 . S
C332 C331 1.403 . S
C332 C333 1.404 . S
C332 C335 1.539 . S
C333 C329 1.408 . S
C333 C332 1.404 . S
C333 H345 0.930 . S
C334 C330 1.524 . S
C334 H346 0.956 . S
C334 H347 0.961 . S
C334 H348 0.961 . S
C335 C332 1.539 . S
C335 H349 0.958 . S
C335 H350 0.961 . S
C335 H351 0.960 . S
H336 C320 0.931 1_565 S
H337 C325 0.929 . S
H338 C326 0.960 . S
H339 C326 0.962 . S
H340 C326 0.960 . S
H341 C327 0.961 . S
H342 C327 0.961 . S
H343 C327 0.961 . S
H344 C328 0.931 . S
H345 C333 0.930 . S
H346 C334 0.956 . S
H347 C334 0.961 . S
H348 C334 0.961 . S
H349 C335 0.958 . S
H350 C335 0.961 . S
H351 C335 0.960 . S
C352 C353 1.391 . S
C352 C354 1.394 . S
C352 H368 0.931 . S
C353 C352 1.391 . S
C353 C357 1.376 . S
C354 C352 1.394 . S
C354 C355 1.369 . S
C354 C358 1.531 . S
C355 C354 1.369 . S
C355 C356 1.410 . S
C355 C363 1.503 . S
C356 C355 1.410 . S
C356 C357 1.392 . S
C356 C359 1.511 . S
C357 C353 1.376 . S
C357 C356 1.392 . S
C357 H369 0.929 . S
C358 C354 1.531 . S
C358 H370 0.960 . S
C358 H371 0.962 . S
C358 H372 0.960 . S
C359 C356 1.511 . S
C359 H373 0.961 . S
C359 H374 0.961 . S
C359 H375 0.961 . S
C360 C361 1.370 . S
C360 C362 1.363 . S
C360 H376 0.931 . S
C361 C360 1.370 . S
C361 C365 1.408 . S
C362 C360 1.363 . S
C362 C363 1.370 . S
C362 C366 1.524 . S
C363 C355 1.503 . S
C363 C362 1.370 . S
C363 C364 1.403 . S
C364 C363 1.403 . S
C364 C365 1.404 . S
C364 C367 1.539 . S
C365 C361 1.408 . S
C365 C364 1.404 . S
C365 H377 0.930 . S
C366 C362 1.524 . S
C366 H378 0.956 . S
C366 H379 0.961 . S
C366 H380 0.961 . S
C367 C364 1.539 . S
C367 H381 0.958 . S
C367 H382 0.961 . S
C367 H383 0.960 . S
H368 C352 0.931 . S
H369 C357 0.929 . S
H370 C358 0.960 . S
H371 C358 0.962 . S
H372 C358 0.960 . S
H373 C359 0.961 . S
H374 C359 0.961 . S
H375 C359 0.961 . S
H376 C360 0.931 . S
H377 C365 0.930 . S
H378 C366 0.956 . S
H379 C366 0.961 . S
H380 C366 0.961 . S
H381 C367 0.958 . S
H382 C367 0.961 . S
H383 C367 0.960 . S
C384 C385 1.391 . S
C384 C386 1.394 . S
C384 H400 0.931 . S
C385 C384 1.391 . S
C385 C389 1.376 . S
C386 C384 1.394 . S
C386 C387 1.369 . S
C386 C390 1.531 . S
C387 C386 1.369 . S
C387 C388 1.410 . S
C387 C395 1.503 . S
C388 C387 1.410 . S
C388 C389 1.392 . S
C388 C391 1.511 . S
C389 C385 1.376 . S
C389 C388 1.392 . S
C389 H401 0.929 . S
C390 C386 1.531 . S
C390 H402 0.960 . S
C390 H403 0.962 . S
C390 H404 0.960 . S
C391 C388 1.511 . S
C391 H405 0.961 . S
C391 H406 0.961 . S
C391 H407 0.961 . S
C392 C393 1.370 . S
C392 C394 1.363 . S
C392 H408 0.931 . S
C393 C392 1.370 . S
C393 C397 1.408 . S
C394 C392 1.363 . S
C394 C395 1.370 . S
C394 C398 1.524 . S
C395 C387 1.503 . S
C395 C394 1.370 . S
C395 C396 1.403 . S
C396 C395 1.403 . S
C396 C397 1.404 . S
C396 C399 1.539 . S
C397 C393 1.408 . S
C397 C396 1.404 . S
C397 H409 0.930 . S
C398 C394 1.524 . S
C398 H410 0.956 . S
C398 H411 0.961 . S
C398 H412 0.961 . S
C399 C396 1.539 . S
C399 H413 0.958 . S
C399 H414 0.961 . S
C399 H415 0.960 . S
H400 C384 0.931 . S
H401 C389 0.929 . S
H402 C390 0.960 . S
H403 C390 0.962 . S
H404 C390 0.960 . S
H405 C391 0.961 . S
H406 C391 0.961 . S
H407 C391 0.961 . S
H408 C392 0.931 . S
H409 C397 0.930 . S
H410 C398 0.956 . S
H411 C398 0.961 . S
H412 C398 0.961 . S
H413 C399 0.958 . S
H414 C399 0.961 . S
H415 C399 0.960 . S
C416 C417 1.391 . S
C416 C418 1.394 . S
C416 H432 0.931 . S
C417 C416 1.391 . S
C417 C421 1.376 . S
C418 C416 1.394 . S
C418 C419 1.369 . S
C418 C422 1.531 . S
C419 C418 1.369 . S
C419 C420 1.410 . S
C419 C427 1.503 . S
C420 C419 1.410 . S
C420 C421 1.392 . S
C420 C423 1.511 . S
C421 C417 1.376 . S
C421 C420 1.392 . S
C421 H433 0.929 . S
C422 C418 1.531 . S
C422 H434 0.960 . S
C422 H435 0.962 . S
C422 H436 0.960 . S
C423 C420 1.511 . S
C423 H437 0.961 . S
C423 H438 0.961 . S
C423 H439 0.961 . S
C424 C425 1.370 . S
C424 C426 1.363 . S
C424 H440 0.931 . S
C425 C424 1.370 . S
C425 C429 1.408 . S
C426 C424 1.363 . S
C426 C427 1.370 . S
C426 C430 1.524 . S
C427 C419 1.503 . S
C427 C426 1.370 . S
C427 C428 1.403 . S
C428 C427 1.403 . S
C428 C429 1.404 . S
C428 C431 1.539 . S
C429 C425 1.408 . S
C429 C428 1.404 . S
C429 H441 0.930 . S
C430 C426 1.524 . S
C430 H442 0.956 . S
C430 H443 0.961 . S
C430 H444 0.961 . S
C431 C428 1.539 . S
C431 H445 0.958 . S
C431 H446 0.961 . S
C431 H447 0.960 . S
H432 C416 0.931 . S
H433 C421 0.929 . S
H434 C422 0.960 . S
H435 C422 0.962 . S
H436 C422 0.960 . S
H437 C423 0.961 . S
H438 C423 0.961 . S
H439 C423 0.961 . S
H440 C424 0.931 . S
H441 C429 0.930 . S
H442 C430 0.956 . S
H443 C430 0.961 . S
H444 C430 0.961 . S
H445 C431 0.958 . S
H446 C431 0.961 . S
H447 C431 0.960 . S
C448 C449 1.391 . S
C448 C450 1.394 . S
C448 H464 0.931 . S
C449 C448 1.391 . S
C449 C453 1.376 . S
C450 C448 1.394 . S
C450 C451 1.369 . S
C450 C454 1.531 . S
C451 C450 1.369 . S
C451 C452 1.410 . S
C451 C459 1.503 . S
C452 C451 1.410 . S
C452 C453 1.392 . S
C452 C455 1.511 . S
C453 C449 1.376 . S
C453 C452 1.392 . S
C453 H465 0.929 . S
C454 C450 1.531 . S
C454 H466 0.960 . S
C454 H467 0.962 . S
C454 H468 0.960 . S
C455 C452 1.511 . S
C455 H469 0.961 . S
C455 H470 0.961 . S
C455 H471 0.961 . S
C456 C457 1.370 . S
C456 C458 1.363 . S
C456 H472 0.931 . S
C457 C456 1.370 . S
C457 C461 1.408 . S
C458 C456 1.363 . S
C458 C459 1.370 . S
C458 C462 1.524 . S
C459 C451 1.503 . S
C459 C458 1.370 . S
C459 C460 1.403 . S
C460 C459 1.403 . S
C460 C461 1.404 . S
C460 C463 1.539 . S
C461 C457 1.408 . S
C461 C460 1.404 . S
C461 H473 0.930 . S
C462 C458 1.524 . S
C462 H474 0.956 . S
C462 H475 0.961 . S
C462 H476 0.961 . S
C463 C460 1.539 . S
C463 H477 0.958 . S
C463 H478 0.961 . S
C463 H479 0.960 . S
H464 C448 0.931 . S
H465 C453 0.929 . S
H466 C454 0.960 . S
H467 C454 0.962 . S
H468 C454 0.960 . S
H469 C455 0.961 . S
H470 C455 0.961 . S
H471 C455 0.961 . S
H472 C456 0.931 . S
H473 C461 0.930 . S
H474 C462 0.956 . S
H475 C462 0.961 . S
H476 C462 0.961 . S
H477 C463 0.958 . S
H478 C463 0.961 . S
H479 C463 0.960 . S
C480 C481 1.391 . S
C480 C482 1.394 . S
C480 H496 0.931 . S
C481 C480 1.391 . S
C481 C485 1.376 . S
C482 C480 1.394 . S
C482 C483 1.369 . S
C482 C486 1.531 . S
C483 C482 1.369 . S
C483 C484 1.410 . S
C483 C491 1.503 . S
C484 C483 1.410 . S
C484 C485 1.392 . S
C484 C487 1.511 . S
C485 C481 1.376 . S
C485 C484 1.392 . S
C485 H497 0.929 . S
C486 C482 1.531 . S
C486 H498 0.960 . S
C486 H499 0.962 . S
C486 H500 0.960 . S
C487 C484 1.511 . S
C487 H501 0.961 . S
C487 H502 0.961 . S
C487 H503 0.961 . S
C488 C489 1.370 . S
C488 C490 1.363 . S
C488 H504 0.931 . S
C489 C488 1.370 . S
C489 C493 1.408 . S
C490 C488 1.363 . S
C490 C491 1.370 . S
C490 C494 1.524 . S
C491 C483 1.503 . S
C491 C490 1.370 . S
C491 C492 1.403 . S
C492 C491 1.403 . S
C492 C493 1.404 . S
C492 C495 1.539 . S
C493 C489 1.408 . S
C493 C492 1.404 . S
C493 H505 0.930 . S
C494 C490 1.524 . S
C494 H506 0.956 . S
C494 H507 0.961 . S
C494 H508 0.961 . S
C495 C492 1.539 . S
C495 H509 0.958 . S
C495 H510 0.961 . S
C495 H511 0.960 . S
H496 C480 0.931 . S
H497 C485 0.929 . S
H498 C486 0.960 . S
H499 C486 0.962 . S
H500 C486 0.960 . S
H501 C487 0.961 . S
H502 C487 0.961 . S
H503 C487 0.961 . S
H504 C488 0.931 . S
H505 C493 0.930 . S
H506 C494 0.956 . S
H507 C494 0.961 . S
H508 C494 0.961 . S
H509 C495 0.958 . S
H510 C495 0.961 . S
H511 C495 0.960 . S
C512 C513 1.391 . S
C512 C514 1.394 . S
C512 H528 0.931 . S
C513 C512 1.391 . S
C513 C517 1.376 . S
C514 C512 1.394 . S
C514 C515 1.369 . S
C514 C518 1.531 . S
C515 C514 1.369 . S
C515 C516 1.410 . S
C515 C523 1.503 . S
C516 C515 1.410 . S
C516 C517 1.392 . S
C516 C519 1.511 . S
C517 C513 1.376 . S
C517 C516 1.392 . S
C517 H529 0.929 . S
C518 C514 1.531 . S
C518 H530 0.960 . S
C518 H531 0.962 . S
C518 H532 0.960 . S
C519 C516 1.511 . S
C519 H533 0.961 . S
C519 H534 0.961 . S
C519 H535 0.961 . S
C520 C521 1.370 . S
C520 C522 1.363 . S
C520 H536 0.931 . S
C521 C520 1.370 . S
C521 C525 1.408 . S
C522 C520 1.363 . S
C522 C523 1.370 . S
C522 C526 1.524 . S
C523 C515 1.503 . S
C523 C522 1.370 . S
C523 C524 1.403 . S
C524 C523 1.403 . S
C524 C525 1.404 . S
C524 C527 1.539 . S
C525 C521 1.408 . S
C525 C524 1.404 . S
C525 H537 0.930 . S
C526 C522 1.524 . S
C526 H538 0.956 . S
C526 H539 0.961 . S
C526 H540 0.961 . S
C527 C524 1.539 . S
C527 H541 0.958 . S
C527 H542 0.961 . S
C527 H543 0.960 . S
H528 C512 0.931 . S
H529 C517 0.929 . S
H530 C518 0.960 . S
H531 C518 0.962 . S
H532 C518 0.960 . S
H533 C519 0.961 . S
H534 C519 0.961 . S
H535 C519 0.961 . S
H536 C520 0.931 . S
H537 C525 0.930 . S
H538 C526 0.956 . S
H539 C526 0.961 . S
H540 C526 0.961 . S
H541 C527 0.958 . S
H542 C527 0.961 . S
H543 C527 0.960 . S
C544 C545 1.391 . S
C544 C546 1.394 . S
C544 H560 0.931 . S
C545 C544 1.391 . S
C545 C549 1.376 . S
C546 C544 1.394 . S
C546 C547 1.369 . S
C546 C550 1.531 . S
C547 C546 1.369 . S
C547 C548 1.410 . S
C547 C555 1.503 . S
C548 C547 1.410 . S
C548 C549 1.392 . S
C548 C551 1.511 . S
C549 C545 1.376 . S
C549 C548 1.392 . S
C549 H561 0.929 . S
C550 C546 1.531 . S
C550 H562 0.960 . S
C550 H563 0.962 . S
C550 H564 0.960 . S
C551 C548 1.511 . S
C551 H565 0.961 . S
C551 H566 0.961 . S
C551 H567 0.961 . S
C552 C553 1.370 . S
C552 C554 1.363 . S
C552 H568 0.931 . S
C553 C552 1.370 . S
C553 C557 1.408 . S
C554 C552 1.363 . S
C554 C555 1.370 . S
C554 C558 1.524 . S
C555 C547 1.503 . S
C555 C554 1.370 . S
C555 C556 1.403 . S
C556 C555 1.403 . S
C556 C557 1.404 . S
C556 C559 1.539 . S
C557 C553 1.408 . S
C557 C556 1.404 . S
C557 H569 0.930 . S
C558 C554 1.524 . S
C558 H570 0.956 . S
C558 H571 0.961 . S
C558 H572 0.961 . S
C559 C556 1.539 . S
C559 H573 0.958 . S
C559 H574 0.961 . S
C559 H575 0.960 . S
H560 C544 0.931 . S
H561 C549 0.929 . S
H562 C550 0.960 . S
H563 C550 0.962 . S
H564 C550 0.960 . S
H565 C551 0.961 . S
H566 C551 0.961 . S
H567 C551 0.961 . S
H568 C552 0.931 . S
H569 C557 0.930 . S
H570 C558 0.956 . S
H571 C558 0.961 . S
H572 C558 0.961 . S
H573 C559 0.958 . S
H574 C559 0.961 . S
H575 C559 0.960 . S
C576 C577 1.391 . S
C576 C578 1.394 . S
C576 H592 0.931 . S
C577 C576 1.391 . S
C577 C581 1.376 . S
C578 C576 1.394 . S
C578 C579 1.369 . S
C578 C582 1.531 . S
C579 C578 1.369 . S
C579 C580 1.410 . S
C579 C587 1.503 . S
C580 C579 1.410 . S
C580 C581 1.392 . S
C580 C583 1.511 . S
C581 C577 1.376 . S
C581 C580 1.392 . S
C581 H593 0.929 . S
C582 C578 1.531 . S
C582 H594 0.960 . S
C582 H595 0.962 . S
C582 H596 0.960 . S
C583 C580 1.511 . S
C583 H597 0.961 . S
C583 H598 0.961 . S
C583 H599 0.961 . S
C584 C585 1.370 . S
C584 C586 1.363 . S
C584 H600 0.931 . S
C585 C584 1.370 . S
C585 C589 1.408 . S
C586 C584 1.363 . S
C586 C587 1.370 . S
C586 C590 1.524 . S
C587 C579 1.503 . S
C587 C586 1.370 . S
C587 C588 1.403 . S
C588 C587 1.403 . S
C588 C589 1.404 . S
C588 C591 1.539 . S
C589 C585 1.408 . S
C589 C588 1.404 . S
C589 H601 0.930 . S
C590 C586 1.524 . S
C590 H602 0.956 . S
C590 H603 0.961 . S
C590 H604 0.961 . S
C591 C588 1.539 . S
C591 H605 0.958 . S
C591 H606 0.961 . S
C591 H607 0.960 . S
H592 C576 0.931 . S
H593 C581 0.929 . S
H594 C582 0.960 . S
H595 C582 0.962 . S
H596 C582 0.960 . S
H597 C583 0.961 . S
H598 C583 0.961 . S
H599 C583 0.961 . S
H600 C584 0.931 . S
H601 C589 0.930 . S
H602 C590 0.956 . S
H603 C590 0.961 . S
H604 C590 0.961 . S
H605 C591 0.958 . S
H606 C591 0.961 . S
H607 C591 0.960 . S
C608 C609 1.391 . S
C608 C610 1.394 . S
C608 H624 0.931 . S
C609 C608 1.391 . S
C609 C613 1.376 . S
C610 C608 1.394 . S
C610 C611 1.369 . S
C610 C614 1.531 . S
C611 C610 1.369 . S
C611 C612 1.410 . S
C611 C619 1.503 . S
C612 C611 1.410 . S
C612 C613 1.392 . S
C612 C615 1.511 . S
C613 C609 1.376 . S
C613 C612 1.392 . S
C613 H625 0.929 . S
C614 C610 1.531 . S
C614 H626 0.960 . S
C614 H627 0.962 . S
C614 H628 0.960 . S
C615 C612 1.511 . S
C615 H629 0.961 . S
C615 H630 0.961 . S
C615 H631 0.961 . S
C616 C617 1.370 . S
C616 C618 1.363 . S
C616 H632 0.931 . S
C617 C616 1.370 . S
C617 C621 1.408 . S
C618 C616 1.363 . S
C618 C619 1.370 . S
C618 C622 1.524 . S
C619 C611 1.503 . S
C619 C618 1.370 . S
C619 C620 1.403 . S
C620 C619 1.403 . S
C620 C621 1.404 . S
C620 C623 1.539 . S
C621 C617 1.408 . S
C621 C620 1.404 . S
C621 H633 0.930 . S
C622 C618 1.524 . S
C622 H634 0.956 . S
C622 H635 0.961 . S
C622 H636 0.961 . S
C623 C620 1.539 . S
C623 H637 0.958 . S
C623 H638 0.961 . S
C623 H639 0.960 . S
H624 C608 0.931 . S
H625 C613 0.929 . S
H626 C614 0.960 . S
H627 C614 0.962 . S
H628 C614 0.960 . S
H629 C615 0.961 . S
H630 C615 0.961 . S
H631 C615 0.961 . S
H632 C616 0.931 . S
H633 C621 0.930 . S
H634 C622 0.956 . S
H635 C622 0.961 . S
H636 C622 0.961 . S
H637 C623 0.958 . S
H638 C623 0.961 . S
H639 C623 0.960 . S
C640 C641 1.391 . S
C640 C642 1.394 . S
C640 H656 0.931 . S
C641 C640 1.391 . S
C641 C645 1.376 . S
C642 C640 1.394 . S
C642 C643 1.369 . S
C642 C646 1.531 . S
C643 C642 1.369 . S
C643 C644 1.410 . S
C643 C651 1.503 . S
C644 C643 1.410 . S
C644 C645 1.392 . S
C644 C647 1.511 . S
C645 C641 1.376 . S
C645 C644 1.392 . S
C645 H657 0.929 . S
C646 C642 1.531 . S
C646 H658 0.960 . S
C646 H659 0.962 . S
C646 H660 0.960 . S
C647 C644 1.511 . S
C647 H661 0.961 . S
C647 H662 0.961 . S
C647 H663 0.961 . S
C648 C649 1.370 . S
C648 C650 1.363 . S
C648 H664 0.931 . S
C649 C648 1.370 . S
C649 C653 1.408 . S
C650 C648 1.363 . S
C650 C651 1.370 . S
C650 C654 1.524 . S
C651 C643 1.503 . S
C651 C650 1.370 . S
C651 C652 1.403 . S
C652 C651 1.403 . S
C652 C653 1.404 . S
C652 C655 1.539 . S
C653 C649 1.408 . S
C653 C652 1.404 . S
C653 H665 0.930 . S
C654 C650 1.524 . S
C654 H666 0.956 . S
C654 H667 0.961 . S
C654 H668 0.961 . S
C655 C652 1.539 . S
C655 H669 0.958 . S
C655 H670 0.961 . S
C655 H671 0.960 . S
H656 C640 0.931 . S
H657 C645 0.929 . S
H658 C646 0.960 . S
H659 C646 0.962 . S
H660 C646 0.960 . S
H661 C647 0.961 . S
H662 C647 0.961 . S
H663 C647 0.961 . S
H664 C648 0.931 . S
H665 C653 0.930 . S
H666 C654 0.956 . S
H667 C654 0.961 . S
H668 C654 0.961 . S
H669 C655 0.958 . S
H670 C655 0.961 . S
H671 C655 0.960 . S
C672 C673 1.391 . S
C672 C674 1.394 . S
C672 H688 0.931 . S
C673 C672 1.391 . S
C673 C677 1.376 . S
C674 C672 1.394 . S
C674 C675 1.369 . S
C674 C678 1.531 . S
C675 C674 1.369 . S
C675 C676 1.410 . S
C675 C683 1.503 . S
C676 C675 1.410 . S
C676 C677 1.392 . S
C676 C679 1.511 . S
C677 C673 1.376 . S
C677 C676 1.392 . S
C677 H689 0.929 . S
C678 C674 1.531 . S
C678 H690 0.960 . S
C678 H691 0.962 . S
C678 H692 0.960 . S
C679 C676 1.511 . S
C679 H693 0.961 . S
C679 H694 0.961 . S
C679 H695 0.961 . S
C680 C681 1.370 . S
C680 C682 1.363 . S
C680 H696 0.931 . S
C681 C680 1.370 . S
C681 C685 1.408 . S
C682 C680 1.363 . S
C682 C683 1.370 . S
C682 C686 1.524 . S
C683 C675 1.503 . S
C683 C682 1.370 . S
C683 C684 1.403 . S
C684 C683 1.403 . S
C684 C685 1.404 . S
C684 C687 1.539 . S
C685 C681 1.408 . S
C685 C684 1.404 . S
C685 H697 0.930 . S
C686 C682 1.524 . S
C686 H698 0.956 . S
C686 H699 0.961 . S
C686 H700 0.961 . S
C687 C684 1.539 . S
C687 H701 0.958 . S
C687 H702 0.961 . S
C687 H703 0.960 . S
H688 C672 0.931 . S
H689 C677 0.929 . S
H690 C678 0.960 . S
H691 C678 0.962 . S
H692 C678 0.960 . S
H693 C679 0.961 . S
H694 C679 0.961 . S
H695 C679 0.961 . S
H696 C680 0.931 . S
H697 C685 0.930 . S
H698 C686 0.956 . S
H699 C686 0.961 . S
H700 C686 0.961 . S
H701 C687 0.958 . S
H702 C687 0.961 . S
H703 C687 0.960 . S
C704 C705 1.391 . S
C704 C706 1.394 . S
C704 H720 0.931 . S
C705 C704 1.391 . S
C705 C709 1.376 . S
C706 C704 1.394 . S
C706 C707 1.369 . S
C706 C710 1.531 . S
C707 C706 1.369 . S
C707 C708 1.410 . S
C707 C715 1.503 . S
C708 C707 1.410 . S
C708 C709 1.392 . S
C708 C711 1.511 . S
C709 C705 1.376 . S
C709 C708 1.392 . S
C709 H721 0.929 . S
C710 C706 1.531 . S
C710 H722 0.960 . S
C710 H723 0.962 . S
C710 H724 0.960 . S
C711 C708 1.511 . S
C711 H725 0.961 . S
C711 H726 0.961 . S
C711 H727 0.961 . S
C712 C713 1.370 . S
C712 C714 1.363 . S
C712 H728 0.931 . S
C713 C712 1.370 . S
C713 C717 1.408 . S
C714 C712 1.363 . S
C714 C715 1.370 . S
C714 C718 1.524 . S
C715 C707 1.503 . S
C715 C714 1.370 . S
C715 C716 1.403 . S
C716 C715 1.403 . S
C716 C717 1.404 . S
C716 C719 1.539 . S
C717 C713 1.408 . S
C717 C716 1.404 . S
C717 H729 0.930 . S
C718 C714 1.524 . S
C718 H730 0.956 . S
C718 H731 0.961 . S
C718 H732 0.961 . S
C719 C716 1.539 . S
C719 H733 0.958 . S
C719 H734 0.961 . S
C719 H735 0.960 . S
H720 C704 0.931 . S
H721 C709 0.929 . S
H722 C710 0.960 . S
H723 C710 0.962 . S
H724 C710 0.960 . S
H725 C711 0.961 . S
H726 C711 0.961 . S
H727 C711 0.961 . S
H728 C712 0.931 . S
H729 C717 0.930 . S
H730 C718 0.956 . S
H731 C718 0.961 . S
H732 C718 0.961 . S
H733 C719 0.958 . S
H734 C719 0.961 . S
H735 C719 0.960 . S
C736 C737 1.391 . S
C736 C738 1.394 . S
C736 H752 0.931 . S
C737 C736 1.391 . S
C737 C741 1.376 . S
C738 C736 1.394 . S
C738 C739 1.369 . S
C738 C742 1.531 . S
C739 C738 1.369 . S
C739 C740 1.410 . S
C739 C747 1.503 . S
C740 C739 1.410 . S
C740 C741 1.392 . S
C740 C743 1.511 . S
C741 C737 1.376 . S
C741 C740 1.392 . S
C741 H753 0.929 . S
C742 C738 1.531 . S
C742 H754 0.960 . S
C742 H755 0.962 . S
C742 H756 0.960 . S
C743 C740 1.511 . S
C743 H757 0.961 . S
C743 H758 0.961 . S
C743 H759 0.961 . S
C744 C745 1.370 . S
C744 C746 1.363 . S
C744 H760 0.931 . S
C745 C744 1.370 . S
C745 C749 1.408 . S
C746 C744 1.363 . S
C746 C747 1.370 . S
C746 C750 1.524 . S
C747 C739 1.503 . S
C747 C746 1.370 . S
C747 C748 1.403 . S
C748 C747 1.403 . S
C748 C749 1.404 . S
C748 C751 1.539 . S
C749 C745 1.408 . S
C749 C748 1.404 . S
C749 H761 0.930 . S
C750 C746 1.524 . S
C750 H762 0.956 . S
C750 H763 0.961 . S
C750 H764 0.961 . S
C751 C748 1.539 . S
C751 H765 0.958 . S
C751 H766 0.961 . S
C751 H767 0.960 . S
H752 C736 0.931 . S
H753 C741 0.929 . S
H754 C742 0.960 . S
H755 C742 0.962 . S
H756 C742 0.960 . S
H757 C743 0.961 . S
H758 C743 0.961 . S
H759 C743 0.961 . S
H760 C744 0.931 . S
H761 C749 0.930 . S
H762 C750 0.956 . S
H763 C750 0.961 . S
H764 C750 0.961 . S
H765 C751 0.958 . S
H766 C751 0.961 . S
H767 C751 0.960 . S
C768 C769 1.391 . S
C768 C770 1.394 . S
C768 H784 0.931 . S
C769 C768 1.391 . S
C769 C773 1.376 . S
C770 C768 1.394 . S
C770 C771 1.369 . S
C770 C774 1.531 . S
C771 C770 1.369 . S
C771 C772 1.410 . S
C771 C779 1.503 . S
C772 C771 1.410 . S
C772 C773 1.392 . S
C772 C775 1.511 . S
C773 C769 1.376 . S
C773 C772 1.392 . S
C773 H785 0.929 . S
C774 C770 1.531 . S
C774 H786 0.960 . S
C774 H787 0.962 . S
C774 H788 0.960 . S
C775 C772 1.511 . S
C775 H789 0.961 . S
C775 H790 0.961 . S
C775 H791 0.961 . S
C776 C777 1.370 . S
C776 C778 1.363 . S
C776 H792 0.931 . S
C777 C776 1.370 . S
C777 C781 1.408 . S
C778 C776 1.363 . S
C778 C779 1.370 . S
C778 C782 1.524 . S
C779 C771 1.503 . S
C779 C778 1.370 . S
C779 C780 1.403 . S
C780 C779 1.403 . S
C780 C781 1.404 . S
C780 C783 1.539 . S
C781 C777 1.408 . S
C781 C780 1.404 . S
C781 H793 0.930 . S
C782 C778 1.524 . S
C782 H794 0.956 . S
C782 H795 0.961 . S
C782 H796 0.961 . S
C783 C780 1.539 . S
C783 H797 0.958 . S
C783 H798 0.961 . S
C783 H799 0.960 . S
H784 C768 0.931 . S
H785 C773 0.929 . S
H786 C774 0.960 . S
H787 C774 0.962 . S
H788 C774 0.960 . S
H789 C775 0.961 . S
H790 C775 0.961 . S
H791 C775 0.961 . S
H792 C776 0.931 . S
H793 C781 0.930 . S
H794 C782 0.956 . S
H795 C782 0.961 . S
H796 C782 0.961 . S
H797 C783 0.958 . S
H798 C783 0.961 . S
H799 C783 0.960 . S
C800 C801 1.391 . S
C800 C802 1.394 . S
C800 H816 0.931 . S
C801 C800 1.391 . S
C801 C805 1.376 . S
C802 C800 1.394 . S
C802 C803 1.369 . S
C802 C806 1.531 . S
C803 C802 1.369 . S
C803 C804 1.410 . S
C803 C811 1.503 . S
C804 C803 1.410 . S
C804 C805 1.392 . S
C804 C807 1.511 . S
C805 C801 1.376 . S
C805 C804 1.392 . S
C805 H817 0.929 . S
C806 C802 1.531 . S
C806 H818 0.960 . S
C806 H819 0.962 . S
C806 H820 0.960 . S
C807 C804 1.511 . S
C807 H821 0.961 . S
C807 H822 0.961 . S
C807 H823 0.961 . S
C808 C809 1.370 . S
C808 C810 1.363 . S
C808 H824 0.931 . S
C809 C808 1.370 . S
C809 C813 1.408 . S
C810 C808 1.363 . S
C810 C811 1.370 . S
C810 C814 1.524 . S
C811 C803 1.503 . S
C811 C810 1.370 . S
C811 C812 1.403 . S
C812 C811 1.403 . S
C812 C813 1.404 . S
C812 C815 1.539 . S
C813 C809 1.408 . S
C813 C812 1.404 . S
C813 H825 0.930 . S
C814 C810 1.524 . S
C814 H826 0.956 . S
C814 H827 0.961 . S
C814 H828 0.961 . S
C815 C812 1.539 . S
C815 H829 0.958 . S
C815 H830 0.961 . S
C815 H831 0.960 . S
H816 C800 0.931 . S
H817 C805 0.929 . S
H818 C806 0.960 . S
H819 C806 0.962 . S
H820 C806 0.960 . S
H821 C807 0.961 . S
H822 C807 0.961 . S
H823 C807 0.961 . S
H824 C808 0.931 . S
H825 C813 0.930 . S
H826 C814 0.956 . S
H827 C814 0.961 . S
H828 C814 0.961 . S
H829 C815 0.958 . S
H830 C815 0.961 . S
H831 C815 0.960 . S
C832 C833 1.391 . S
C832 C834 1.394 . S
C832 H848 0.931 . S
C833 C832 1.391 . S
C833 C837 1.376 . S
C834 C832 1.394 . S
C834 C835 1.369 . S
C834 C838 1.531 . S
C835 C834 1.369 . S
C835 C836 1.410 . S
C835 C843 1.503 . S
C836 C835 1.410 . S
C836 C837 1.392 . S
C836 C839 1.511 . S
C837 C833 1.376 . S
C837 C836 1.392 . S
C837 H849 0.929 . S
C838 C834 1.531 . S
C838 H850 0.960 . S
C838 H851 0.962 . S
C838 H852 0.960 . S
C839 C836 1.511 . S
C839 H853 0.961 . S
C839 H854 0.961 . S
C839 H855 0.961 . S
C840 C841 1.370 . S
C840 C842 1.363 . S
C840 H856 0.931 . S
C841 C840 1.370 . S
C841 C845 1.408 . S
C842 C840 1.363 . S
C842 C843 1.370 . S
C842 C846 1.524 . S
C843 C835 1.503 . S
C843 C842 1.370 . S
C843 C844 1.403 . S
C844 C843 1.403 . S
C844 C845 1.404 . S
C844 C847 1.539 . S
C845 C841 1.408 . S
C845 C844 1.404 . S
C845 H857 0.930 . S
C846 C842 1.524 . S
C846 H858 0.956 . S
C846 H859 0.961 . S
C846 H860 0.961 . S
C847 C844 1.539 . S
C847 H861 0.958 . S
C847 H862 0.961 . S
C847 H863 0.960 . S
H848 C832 0.931 . S
H849 C837 0.929 . S
H850 C838 0.960 . S
H851 C838 0.962 . S
H852 C838 0.960 . S
H853 C839 0.961 . S
H854 C839 0.961 . S
H855 C839 0.961 . S
H856 C840 0.931 . S
H857 C845 0.930 . S
H858 C846 0.956 . S
H859 C846 0.961 . S
H860 C846 0.961 . S
H861 C847 0.958 . S
H862 C847 0.961 . S
H863 C847 0.960 . S
C864 C865 1.391 . S
C864 C866 1.394 . S
C864 H880 0.931 . S
C865 C864 1.391 . S
C865 C869 1.376 . S
C866 C864 1.394 . S
C866 C867 1.369 . S
C866 C870 1.531 . S
C867 C866 1.369 . S
C867 C868 1.410 . S
C867 C875 1.503 . S
C868 C867 1.410 . S
C868 C869 1.392 . S
C868 C871 1.511 . S
C869 C865 1.376 . S
C869 C868 1.392 . S
C869 H881 0.929 . S
C870 C866 1.531 . S
C870 H882 0.960 . S
C870 H883 0.962 . S
C870 H884 0.960 . S
C871 C868 1.511 . S
C871 H885 0.961 . S
C871 H886 0.961 . S
C871 H887 0.961 . S
C872 C873 1.370 . S
C872 C874 1.363 . S
C872 H888 0.931 . S
C873 C872 1.370 . S
C873 C877 1.408 . S
C874 C872 1.363 . S
C874 C875 1.370 . S
C874 C878 1.524 . S
C875 C867 1.503 . S
C875 C874 1.370 . S
C875 C876 1.403 . S
C876 C875 1.403 . S
C876 C877 1.404 . S
C876 C879 1.539 . S
C877 C873 1.408 . S
C877 C876 1.404 . S
C877 H889 0.930 . S
C878 C874 1.524 . S
C878 H890 0.956 . S
C878 H891 0.961 . S
C878 H892 0.961 . S
C879 C876 1.539 . S
C879 H893 0.958 . S
C879 H894 0.961 . S
C879 H895 0.960 . S
H880 C864 0.931 . S
H881 C869 0.929 . S
H882 C870 0.960 . S
H883 C870 0.962 . S
H884 C870 0.960 . S
H885 C871 0.961 . S
H886 C871 0.961 . S
H887 C871 0.961 . S
H888 C872 0.931 . S
H889 C877 0.930 . S
H890 C878 0.956 . S
H891 C878 0.961 . S
H892 C878 0.961 . S
H893 C879 0.958 . S
H894 C879 0.961 . S
H895 C879 0.960 . S
C896 C897 1.391 . S
C896 C898 1.394 . S
C896 H912 0.931 . S
C897 C896 1.391 . S
C897 C901 1.376 . S
C898 C896 1.394 . S
C898 C899 1.369 . S
C898 C902 1.531 . S
C899 C898 1.369 . S
C899 C900 1.410 . S
C899 C907 1.503 . S
C900 C899 1.410 . S
C900 C901 1.392 . S
C900 C903 1.511 . S
C901 C897 1.376 . S
C901 C900 1.392 . S
C901 H913 0.929 . S
C902 C898 1.531 . S
C902 H914 0.960 . S
C902 H915 0.962 . S
C902 H916 0.960 . S
C903 C900 1.511 . S
C903 H917 0.961 . S
C903 H918 0.961 . S
C903 H919 0.961 . S
C904 C905 1.370 . S
C904 C906 1.363 . S
C904 H920 0.931 . S
C905 C904 1.370 . S
C905 C909 1.408 . S
C906 C904 1.363 . S
C906 C907 1.370 . S
C906 C910 1.524 . S
C907 C899 1.503 . S
C907 C906 1.370 . S
C907 C908 1.403 . S
C908 C907 1.403 . S
C908 C909 1.404 . S
C908 C911 1.539 . S
C909 C905 1.408 . S
C909 C908 1.404 . S
C909 H921 0.930 . S
C910 C906 1.524 . S
C910 H922 0.956 . S
C910 H923 0.961 . S
C910 H924 0.961 . S
C911 C908 1.539 . S
C911 H925 0.958 . S
C911 H926 0.961 . S
C911 H927 0.960 . S
H912 C896 0.931 . S
H913 C901 0.929 . S
H914 C902 0.960 . S
H915 C902 0.962 . S
H916 C902 0.960 . S
H917 C903 0.961 . S
H918 C903 0.961 . S
H919 C903 0.961 . S
H920 C904 0.931 . S
H921 C909 0.930 . S
H922 C910 0.956 . S
H923 C910 0.961 . S
H924 C910 0.961 . S
H925 C911 0.958 . S
H926 C911 0.961 . S
H927 C911 0.960 . S
C928 C929 1.391 . S
C928 C930 1.394 . S
C928 H944 0.931 . S
C929 C928 1.391 . S
C929 C933 1.376 . S
C930 C928 1.394 . S
C930 C931 1.369 . S
C930 C934 1.531 . S
C931 C930 1.369 . S
C931 C932 1.410 . S
C931 C939 1.503 . S
C932 C931 1.410 . S
C932 C933 1.392 . S
C932 C935 1.511 . S
C933 C929 1.376 . S
C933 C932 1.392 . S
C933 H945 0.929 . S
C934 C930 1.531 . S
C934 H946 0.960 . S
C934 H947 0.962 . S
C934 H948 0.960 . S
C935 C932 1.511 . S
C935 H949 0.961 . S
C935 H950 0.961 . S
C935 H951 0.961 . S
C936 C937 1.370 . S
C936 C938 1.363 . S
C936 H952 0.931 . S
C937 C936 1.370 . S
C937 C941 1.408 . S
C938 C936 1.363 . S
C938 C939 1.370 . S
C938 C942 1.524 . S
C939 C931 1.503 . S
C939 C938 1.370 . S
C939 C940 1.403 . S
C940 C939 1.403 . S
C940 C941 1.404 . S
C940 C943 1.539 . S
C941 C937 1.408 . S
C941 C940 1.404 . S
C941 H953 0.930 . S
C942 C938 1.524 . S
C942 H954 0.956 . S
C942 H955 0.961 . S
C942 H956 0.961 . S
C943 C940 1.539 . S
C943 H957 0.958 . S
C943 H958 0.961 . S
C943 H959 0.960 . S
H944 C928 0.931 . S
H945 C933 0.929 . S
H946 C934 0.960 . S
H947 C934 0.962 . S
H948 C934 0.960 . S
H949 C935 0.961 . S
H950 C935 0.961 . S
H951 C935 0.961 . S
H952 C936 0.931 . S
H953 C941 0.930 . S
H954 C942 0.956 . S
H955 C942 0.961 . S
H956 C942 0.961 . S
H957 C943 0.958 . S
H958 C943 0.961 . S
H959 C943 0.960 . S
C960 C961 1.391 . S
C960 C962 1.394 . S
C960 H976 0.931 . S
C961 C960 1.391 . S
C961 C965 1.376 . S
C962 C960 1.394 . S
C962 C963 1.369 . S
C962 C966 1.531 . S
C963 C962 1.369 . S
C963 C964 1.410 . S
C963 C971 1.503 . S
C964 C963 1.410 . S
C964 C965 1.392 . S
C964 C967 1.511 . S
C965 C961 1.376 . S
C965 C964 1.392 . S
C965 H977 0.929 . S
C966 C962 1.531 . S
C966 H978 0.960 . S
C966 H979 0.962 . S
C966 H980 0.960 . S
C967 C964 1.511 . S
C967 H981 0.961 . S
C967 H982 0.961 . S
C967 H983 0.961 . S
C968 C969 1.370 . S
C968 C970 1.363 . S
C968 H984 0.931 . S
C969 C968 1.370 . S
C969 C973 1.408 . S
C970 C968 1.363 . S
C970 C971 1.370 . S
C970 C974 1.524 . S
C971 C963 1.503 . S
C971 C970 1.370 . S
C971 C972 1.403 . S
C972 C971 1.403 . S
C972 C973 1.404 . S
C972 C975 1.539 . S
C973 C969 1.408 . S
C973 C972 1.404 . S
C973 H985 0.930 . S
C974 C970 1.524 . S
C974 H986 0.956 . S
C974 H987 0.961 . S
C974 H988 0.961 . S
C975 C972 1.539 . S
C975 H989 0.958 . S
C975 H990 0.961 . S
C975 H991 0.960 . S
H976 C960 0.931 . S
H977 C965 0.929 . S
H978 C966 0.960 . S
H979 C966 0.962 . S
H980 C966 0.960 . S
H981 C967 0.961 . S
H982 C967 0.961 . S
H983 C967 0.961 . S
H984 C968 0.931 . S
H985 C973 0.930 . S
H986 C974 0.956 . S
H987 C974 0.961 . S
H988 C974 0.961 . S
H989 C975 0.958 . S
H990 C975 0.961 . S
H991 C975 0.960 . S
C992 C993 1.391 . S
C992 C994 1.394 . S
C992 H1008 0.931 . S
C993 C992 1.391 . S
C993 C997 1.376 . S
C994 C992 1.394 . S
C994 C995 1.369 . S
C994 C998 1.531 . S
C995 C994 1.369 . S
C995 C996 1.410 . S
C995 C1003 1.503 1_554 S
C996 C995 1.410 . S
C996 C997 1.392 . S
C996 C999 1.511 . S
C997 C993 1.376 . S
C997 C996 1.392 . S
C997 H1009 0.929 . S
C998 C994 1.531 . S
C998 H1010 0.962 . S
C998 H1011 0.968 . S
C998 H1012 0.960 . S
C999 C996 1.511 . S
C999 H1013 0.961 . S
C999 H1014 0.961 . S
C999 H1015 0.961 . S
C1000 C1001 1.370 . S
C1000 C1002 1.363 . S
C1000 H1016 0.931 . S
C1001 C1000 1.370 . S
C1001 C1005 1.408 . S
C1002 C1000 1.363 . S
C1002 C1003 1.370 . S
C1002 C1006 1.524 . S
C1003 C995 1.503 1_556 S
C1003 C1002 1.370 . S
C1003 C1004 1.403 . S
C1004 C1003 1.403 . S
C1004 C1005 1.404 . S
C1004 C1007 1.539 1_556 S
C1005 C1001 1.408 . S
C1005 C1004 1.404 . S
C1005 H1017 0.930 . S
C1006 C1002 1.524 . S
C1006 H1018 0.956 . S
C1006 H1019 0.961 . S
C1006 H1020 0.961 . S
C1007 C1004 1.539 1_554 S
C1007 H1021 0.958 . S
C1007 H1022 0.954 1_554 S
C1007 H1023 0.960 . S
H1008 C992 0.931 . S
H1009 C997 0.929 . S
H1010 C998 0.962 . S
H1011 C998 0.968 . S
H1012 C998 0.960 . S
H1013 C999 0.961 . S
H1014 C999 0.961 . S
H1015 C999 0.961 . S
H1016 C1000 0.931 . S
H1017 C1005 0.930 . S
H1018 C1006 0.956 . S
H1019 C1006 0.961 . S
H1020 C1006 0.961 . S
H1021 C1007 0.958 . S
H1022 C1007 0.954 1_556 S
H1023 C1007 0.960 . S
C1024 C1025 1.391 . S
C1024 C1026 1.394 . S
C1024 H1040 0.931 . S
C1025 C1024 1.391 . S
C1025 C1029 1.376 . S
C1026 C1024 1.394 . S
C1026 C1027 1.369 . S
C1026 C1030 1.531 . S
C1027 C1026 1.369 . S
C1027 C1028 1.410 . S
C1027 C1035 1.503 . S
C1028 C1027 1.410 . S
C1028 C1029 1.392 . S
C1028 C1031 1.511 . S
C1029 C1025 1.376 . S
C1029 C1028 1.392 . S
C1029 H1041 0.929 . S
C1030 C1026 1.531 . S
C1030 H1042 0.960 . S
C1030 H1043 0.962 . S
C1030 H1044 0.960 . S
C1031 C1028 1.511 . S
C1031 H1045 0.961 . S
C1031 H1046 0.961 . S
C1031 H1047 0.961 . S
C1032 C1033 1.370 . S
C1032 C1034 1.363 . S
C1032 H1048 0.931 . S
C1033 C1032 1.370 . S
C1033 C1037 1.408 . S
C1034 C1032 1.363 . S
C1034 C1035 1.370 . S
C1034 C1038 1.524 . S
C1035 C1027 1.503 . S
C1035 C1034 1.370 . S
C1035 C1036 1.403 . S
C1036 C1035 1.403 . S
C1036 C1037 1.404 . S
C1036 C1039 1.539 . S
C1037 C1033 1.408 . S
C1037 C1036 1.404 . S
C1037 H1049 0.930 . S
C1038 C1034 1.524 . S
C1038 H1050 0.956 . S
C1038 H1051 0.961 . S
C1038 H1052 0.961 . S
C1039 C1036 1.539 . S
C1039 H1053 0.958 . S
C1039 H1054 0.961 . S
C1039 H1055 0.960 . S
H1040 C1024 0.931 . S
H1041 C1029 0.929 . S
H1042 C1030 0.960 . S
H1043 C1030 0.962 . S
H1044 C1030 0.960 . S
H1045 C1031 0.961 . S
H1046 C1031 0.961 . S
H1047 C1031 0.961 . S
H1048 C1032 0.931 . S
H1049 C1037 0.930 . S
H1050 C1038 0.956 . S
H1051 C1038 0.961 . S
H1052 C1038 0.961 . S
H1053 C1039 0.958 . S
H1054 C1039 0.961 . S
H1055 C1039 0.960 . S
C1056 C1057 1.391 . S
C1056 C1058 1.394 . S
C1056 H1072 0.931 1_655 S
C1057 C1056 1.391 . S
C1057 C1061 1.376 . S
C1058 C1056 1.394 . S
C1058 C1059 1.369 . S
C1058 C1062 1.531 1_655 S
C1059 C1058 1.369 . S
C1059 C1060 1.410 . S
C1059 C1067 1.503 1_554 S
C1060 C1059 1.410 . S
C1060 C1061 1.392 . S
C1060 C1063 1.511 . S
C1061 C1057 1.376 . S
C1061 C1060 1.392 . S
C1061 H1073 0.929 . S
C1062 C1058 1.531 1_455 S
C1062 H1074 0.960 . S
C1062 H1075 0.962 . S
C1062 H1076 0.960 . S
C1063 C1060 1.511 . S
C1063 H1077 0.961 . S
C1063 H1078 0.961 1_554 S
C1063 H1079 0.961 . S
C1064 C1065 1.370 . S
C1064 C1066 1.363 . S
C1064 H1080 0.931 1_655 S
C1065 C1064 1.370 . S
C1065 C1069 1.408 . S
C1066 C1064 1.363 . S
C1066 C1067 1.370 . S
C1066 C1070 1.524 1_655 S
C1067 C1059 1.503 1_556 S
C1067 C1066 1.370 . S
C1067 C1068 1.403 . S
C1068 C1067 1.403 . S
C1068 C1069 1.404 . S
C1068 C1071 1.539 1_556 S
C1069 C1065 1.408 . S
C1069 C1068 1.404 . S
C1069 H1081 0.930 . S
C1070 C1066 1.524 1_455 S
C1070 H1082 0.956 . S
C1070 H1083 0.961 1_455 S
C1070 H1084 0.961 . S
C1071 C1068 1.539 1_554 S
C1071 H1085 0.958 . S
C1071 H1086 0.961 1_554 S
C1071 H1087 0.960 . S
H1072 C1056 0.931 1_455 S
H1073 C1061 0.929 . S
H1074 C1062 0.960 . S
H1075 C1062 0.962 . S
H1076 C1062 0.960 . S
H1077 C1063 0.961 . S
H1078 C1063 0.961 1_556 S
H1079 C1063 0.961 . S
H1080 C1064 0.931 1_455 S
H1081 C1069 0.930 . S
H1082 C1070 0.956 . S
H1083 C1070 0.961 1_655 S
H1084 C1070 0.961 . S
H1085 C1071 0.958 . S
H1086 C1071 0.961 1_556 S
H1087 C1071 0.960 . S
C1088 C1089 1.391 . S
C1088 C1090 1.394 . S
C1088 H1104 0.931 . S
C1089 C1088 1.391 . S
C1089 C1093 1.376 . S
C1090 C1088 1.394 . S
C1090 C1091 1.369 . S
C1090 C1094 1.531 . S
C1091 C1090 1.369 . S
C1091 C1092 1.410 . S
C1091 C1099 1.503 . S
C1092 C1091 1.410 . S
C1092 C1093 1.392 . S
C1092 C1095 1.511 . S
C1093 C1089 1.376 . S
C1093 C1092 1.392 . S
C1093 H1105 0.929 . S
C1094 C1090 1.531 . S
C1094 H1106 0.960 . S
C1094 H1107 0.962 . S
C1094 H1108 0.960 . S
C1095 C1092 1.511 . S
C1095 H1109 0.961 . S
C1095 H1110 0.961 . S
C1095 H1111 0.961 . S
C1096 C1097 1.370 . S
C1096 C1098 1.363 . S
C1096 H1112 0.931 . S
C1097 C1096 1.370 . S
C1097 C1101 1.408 . S
C1098 C1096 1.363 . S
C1098 C1099 1.370 . S
C1098 C1102 1.524 . S
C1099 C1091 1.503 . S
C1099 C1098 1.370 . S
C1099 C1100 1.403 . S
C1100 C1099 1.403 . S
C1100 C1101 1.404 . S
C1100 C1103 1.539 . S
C1101 C1097 1.408 . S
C1101 C1100 1.404 . S
C1101 H1113 0.930 . S
C1102 C1098 1.524 . S
C1102 H1114 0.956 . S
C1102 H1115 0.961 1_565 S
C1102 H1116 0.961 1_565 S
C1103 C1100 1.539 . S
C1103 H1117 0.958 . S
C1103 H1118 0.961 . S
C1103 H1119 0.960 . S
H1104 C1088 0.931 . S
H1105 C1093 0.929 . S
H1106 C1094 0.960 . S
H1107 C1094 0.962 . S
H1108 C1094 0.960 . S
H1109 C1095 0.961 . S
H1110 C1095 0.961 . S
H1111 C1095 0.961 . S
H1112 C1096 0.931 . S
H1113 C1101 0.930 . S
H1114 C1102 0.956 . S
H1115 C1102 0.961 1_545 S
H1116 C1102 0.961 1_545 S
H1117 C1103 0.958 . S
H1118 C1103 0.961 . S
H1119 C1103 0.960 . S
C1120 C1121 1.391 . S
C1120 C1122 1.394 . S
C1120 H1136 0.931 . S
C1121 C1120 1.391 . S
C1121 C1125 1.376 . S
C1122 C1120 1.394 . S
C1122 C1123 1.369 . S
C1122 C1126 1.531 1_556 S
C1123 C1122 1.369 . S
C1123 C1124 1.410 . S
C1123 C1131 1.503 1_556 S
C1124 C1123 1.410 . S
C1124 C1125 1.392 . S
C1124 C1127 1.511 . S
C1125 C1121 1.376 . S
C1125 C1124 1.392 . S
C1125 H1137 0.929 . S
C1126 C1122 1.531 1_554 S
C1126 H1138 0.960 . S
C1126 H1139 0.962 . S
C1126 H1140 0.960 1_554 S
C1127 C1124 1.511 . S
C1127 H1141 0.961 . S
C1127 H1142 0.961 . S
C1127 H1143 0.961 . S
C1128 C1129 1.370 . S
C1128 C1130 1.363 . S
C1128 H1144 0.931 . S
C1129 C1128 1.370 . S
C1129 C1133 1.408 . S
C1130 C1128 1.363 . S
C1130 C1131 1.370 . S
C1130 C1134 1.524 1_554 S
C1131 C1123 1.503 1_554 S
C1131 C1130 1.370 . S
C1131 C1132 1.403 . S
C1132 C1131 1.403 . S
C1132 C1133 1.404 . S
C1132 C1135 1.539 . S
C1133 C1129 1.408 . S
C1133 C1132 1.404 . S
C1133 H1145 0.930 . S
C1134 C1130 1.524 1_556 S
C1134 H1146 0.956 . S
C1134 H1147 0.961 . S
C1134 H1148 0.961 1_556 S
C1135 C1132 1.539 . S
C1135 H1149 0.958 . S
C1135 H1150 0.961 . S
C1135 H1151 0.960 . S
H1136 C1120 0.931 . S
H1137 C1125 0.929 . S
H1138 C1126 0.960 . S
H1139 C1126 0.962 . S
H1140 C1126 0.960 1_556 S
H1141 C1127 0.961 . S
H1142 C1127 0.961 . S
H1143 C1127 0.961 . S
H1144 C1128 0.931 . S
H1145 C1133 0.930 . S
H1146 C1134 0.956 . S
H1147 C1134 0.961 . S
H1148 C1134 0.961 1_554 S
H1149 C1135 0.958 . S
H1150 C1135 0.961 . S
H1151 C1135 0.960 . S
C1152 C1153 1.391 . S
C1152 C1154 1.394 . S
C1152 H1168 0.931 . S
C1153 C1152 1.391 . S
C1153 C1157 1.376 . S
C1154 C1152 1.394 . S
C1154 C1155 1.369 . S
C1154 C1158 1.531 . S
C1155 C1154 1.369 . S
C1155 C1156 1.410 . S
C1155 C1163 1.503 . S
C1156 C1155 1.410 . S
C1156 C1157 1.392 . S
C1156 C1159 1.511 . S
C1157 C1153 1.376 . S
C1157 C1156 1.392 . S
C1157 H1169 0.929 . S
C1158 C1154 1.531 . S
C1158 H1170 0.960 . S
C1158 H1171 0.962 . S
C1158 H1172 0.960 . S
C1159 C1156 1.511 . S
C1159 H1173 0.961 . S
C1159 H1174 0.961 . S
C1159 H1175 0.961 . S
C1160 C1161 1.370 . S
C1160 C1162 1.363 . S
C1160 H1176 0.931 . S
C1161 C1160 1.370 . S
C1161 C1165 1.408 . S
C1162 C1160 1.363 . S
C1162 C1163 1.370 . S
C1162 C1166 1.524 . S
C1163 C1155 1.503 . S
C1163 C1162 1.370 . S
C1163 C1164 1.403 . S
C1164 C1163 1.403 . S
C1164 C1165 1.404 . S
C1164 C1167 1.539 . S
C1165 C1161 1.408 . S
C1165 C1164 1.404 . S
C1165 H1177 0.930 . S
C1166 C1162 1.524 . S
C1166 H1178 0.956 . S
C1166 H1179 0.961 . S
C1166 H1180 0.961 . S
C1167 C1164 1.539 . S
C1167 H1181 0.958 . S
C1167 H1182 0.961 . S
C1167 H1183 0.960 . S
H1168 C1152 0.931 . S
H1169 C1157 0.929 . S
H1170 C1158 0.960 . S
H1171 C1158 0.962 . S
H1172 C1158 0.960 . S
H1173 C1159 0.961 . S
H1174 C1159 0.961 . S
H1175 C1159 0.961 . S
H1176 C1160 0.931 . S
H1177 C1165 0.930 . S
H1178 C1166 0.956 . S
H1179 C1166 0.961 . S
H1180 C1166 0.961 . S
H1181 C1167 0.958 . S
H1182 C1167 0.961 . S
H1183 C1167 0.960 . S
C1184 C1185 1.379 1_655 S
C1184 C1186 1.393 1_655 S
C1184 H1200 0.944 . S
C1185 C1184 1.379 1_455 S
C1185 C1189 1.376 . S
C1186 C1184 1.393 1_455 S
C1186 C1187 1.369 . S
C1186 C1190 1.531 1_454 S
C1187 C1186 1.369 . S
C1187 C1188 1.410 . S
C1187 C1195 1.503 1_554 S
C1188 C1187 1.410 . S
C1188 C1189 1.392 . S
C1188 C1191 1.511 . S
C1189 C1185 1.376 . S
C1189 C1188 1.392 . S
C1189 H1201 0.929 . S
C1190 C1186 1.531 1_656 S
C1190 H1202 0.960 . S
C1190 H1203 0.962 . S
C1190 H1204 0.960 1_556 S
C1191 C1188 1.511 . S
C1191 H1205 0.961 . S
C1191 H1206 0.961 . S
C1191 H1207 0.961 . S
C1192 C1193 1.370 . S
C1192 C1194 1.363 . S
C1192 H1208 0.931 1_455 S
C1193 C1192 1.370 . S
C1193 C1197 1.408 . S
C1194 C1192 1.363 . S
C1194 C1195 1.370 . S
C1194 C1198 1.524 1_456 S
C1195 C1187 1.503 1_556 S
C1195 C1194 1.370 . S
C1195 C1196 1.403 . S
C1196 C1195 1.403 . S
C1196 C1197 1.404 . S
C1196 C1199 1.539 . S
C1197 C1193 1.408 . S
C1197 C1196 1.404 . S
C1197 H1209 0.930 . S
C1198 C1194 1.524 1_654 S
C1198 H1210 0.956 . S
C1198 H1211 0.961 1_655 S
C1198 H1212 0.961 1_554 S
C1199 C1196 1.539 . S
C1199 H1213 0.958 . S
C1199 H1214 0.961 . S
C1199 H1215 0.960 . S
H1200 C1184 0.944 . S
H1201 C1189 0.929 . S
H1202 C1190 0.960 . S
H1203 C1190 0.962 . S
H1204 C1190 0.960 1_554 S
H1205 C1191 0.961 . S
H1206 C1191 0.961 . S
H1207 C1191 0.961 . S
H1208 C1192 0.931 1_655 S
H1209 C1197 0.930 . S
H1210 C1198 0.956 . S
H1211 C1198 0.961 1_455 S
H1212 C1198 0.961 1_556 S
H1213 C1199 0.958 . S
H1214 C1199 0.961 . S
H1215 C1199 0.960 . S
C1216 C1217 1.391 . S
C1216 C1218 1.394 . S
C1216 H1232 0.931 . S
C1217 C1216 1.391 . S
C1217 C1221 1.376 . S
C1218 C1216 1.394 . S
C1218 C1219 1.369 . S
C1218 C1222 1.531 1_545 S
C1219 C1218 1.369 . S
C1219 C1220 1.410 . S
C1219 C1227 1.503 . S
C1220 C1219 1.410 . S
C1220 C1221 1.392 . S
C1220 C1223 1.511 . S
C1221 C1217 1.376 . S
C1221 C1220 1.392 . S
C1221 H1233 0.929 . S
C1222 C1218 1.531 1_565 S
C1222 H1234 0.960 . S
C1222 H1235 0.962 1_565 S
C1222 H1236 0.960 . S
C1223 C1220 1.511 . S
C1223 H1237 0.961 . S
C1223 H1238 0.961 . S
C1223 H1239 0.961 . S
C1224 C1225 1.370 . S
C1224 C1226 1.363 . S
C1224 H1240 0.931 . S
C1225 C1224 1.370 . S
C1225 C1229 1.408 . S
C1226 C1224 1.363 . S
C1226 C1227 1.370 . S
C1226 C1230 1.524 . S
C1227 C1219 1.503 . S
C1227 C1226 1.370 . S
C1227 C1228 1.403 . S
C1228 C1227 1.403 . S
C1228 C1229 1.404 . S
C1228 C1231 1.539 1_545 S
C1229 C1225 1.408 . S
C1229 C1228 1.404 . S
C1229 H1241 0.930 1_545 S
C1230 C1226 1.524 . S
C1230 H1242 0.956 . S
C1230 H1243 0.961 . S
C1230 H1244 0.961 . S
C1231 C1228 1.539 1_565 S
C1231 H1245 0.958 . S
C1231 H1246 0.961 . S
C1231 H1247 0.960 . S
H1232 C1216 0.931 . S
H1233 C1221 0.929 . S
H1234 C1222 0.960 . S
H1235 C1222 0.962 1_545 S
H1236 C1222 0.960 . S
H1237 C1223 0.961 . S
H1238 C1223 0.961 . S
H1239 C1223 0.961 . S
H1240 C1224 0.931 . S
H1241 C1229 0.930 1_565 S
H1242 C1230 0.956 . S
H1243 C1230 0.961 . S
H1244 C1230 0.961 . S
H1245 C1231 0.958 . S
H1246 C1231 0.961 . S
H1247 C1231 0.960 . S
C225 C11 1.187 . S
C233 C109 1.166 1_545 S
C257 C25 1.154 . S
C265 C67 1.180 . S
C289 C39 1.139 . S
C297 C81 1.181 . S
C321 C53 1.155 1_545 S
C329 C95 1.181 . S
C353 C117 1.027 . S
C361 C221 1.171 . S
C385 C173 1.027 . S
C393 C137 1.171 . S
C417 C145 1.044 . S
C425 C193 1.175 . S
C449 C165 1.186 . S
C457 C201 1.067 . S
C481 C4 1.129 . S
C489 C138 1.235 . S
C513 C18 1.345 . S
C521 C144 1.363 . S
C545 C166 1.224 . S
C553 C32 1.174 . S
C577 C46 1.346 . S
C585 C116 1.363 . S
C609 C60 1.158 . S
C617 C222 1.238 . S
C641 C172 1.370 . S
C649 C74 1.315 . S
C673 C194 1.223 . S
C681 C88 1.180 . S
C705 C200 1.328 . S
C713 C102 1.296 . S
C737 C26 1.125 . S
C745 C124 1.125 . S
C769 C40 1.207 . S
C777 C130 1.186 . S
C801 C152 1.089 . S
C809 C54 1.135 . S
C833 C12 1.200 . S
C841 C158 1.177 . S
C865 C180 1.143 . S
C873 C110 1.133 . S
C897 C186 1.155 . S
C905 C68 1.218 . S
C929 C82 1.130 . S
C937 C208 1.106 . S
C961 C96 1.219 . S
C969 C214 1.170 . S
C993 C5 1.328 . S
C1001 C61 1.250 . S
C1025 C75 1.280 . S
C1033 C19 1.335 . S
C1057 C33 1.319 . S
C1065 C89 1.258 . S
C1089 C103 1.279 . S
C1097 C47 1.335 . S
C1121 C123 1.539 . S
C1129 C179 1.529 . S
C1153 C187 1.368 . S
C1161 C131 1.315 . S
C1185 C207 1.541 . S
C1193 C151 1.529 . S
C1217 C215 1.296 . S
C1225 C159 1.346 . S
