# Generated by pormake.
# Topology umy, (4)-cn, num edge types: 1
# Building blocks:
#     Node 0, Type 0, BuildingBlock: CEKHIL_clean_sbu_0, # of connection points: 4
#     Node 1, Type 0, BuildingBlock: CEKHIL_clean_sbu_0, # of connection points: 4
#     Node 2, Type 0, BuildingBlock: CEKHIL_clean_sbu_0, # of connection points: 4
#     Node 3, Type 0, BuildingBlock: CEKHIL_clean_sbu_0, # of connection points: 4
#     Node 4, Type 0, BuildingBlock: CEKHIL_clean_sbu_0, # of connection points: 4
#     Node 5, Type 0, BuildingBlock: CEKHIL_clean_sbu_0, # of connection points: 4
#     Node 6, Type 0, BuildingBlock: CEKHIL_clean_sbu_0, # of connection points: 4
#     Node 7, Type 0, BuildingBlock: CEKHIL_clean_sbu_0, # of connection points: 4
#     Node 8, Type 0, BuildingBlock: CEKHIL_clean_sbu_0, # of connection points: 4
#     Node 9, Type 0, BuildingBlock: CEKHIL_clean_sbu_0, # of connection points: 4
#     Node 10, Type 0, BuildingBlock: CEKHIL_clean_sbu_0, # of connection points: 4
#     Node 11, Type 0, BuildingBlock: CEKHIL_clean_sbu_0, # of connection points: 4
#     Edge 12, Type (0, 0), BuildingBlock: EZIPEK_clean_linker_0, # of connection points: 2
#     Edge 13, Type (0, 0), BuildingBlock: EZIPEK_clean_linker_0, # of connection points: 2
#     Edge 14, Type (0, 0), BuildingBlock: EZIPEK_clean_linker_0, # of connection points: 2
#     Edge 15, Type (0, 0), BuildingBlock: EZIPEK_clean_linker_0, # of connection points: 2
#     Edge 16, Type (0, 0), BuildingBlock: EZIPEK_clean_linker_0, # of connection points: 2
#     Edge 17, Type (0, 0), BuildingBlock: EZIPEK_clean_linker_0, # of connection points: 2
#     Edge 18, Type (0, 0), BuildingBlock: EZIPEK_clean_linker_0, # of connection points: 2
#     Edge 19, Type (0, 0), BuildingBlock: EZIPEK_clean_linker_0, # of connection points: 2
#     Edge 20, Type (0, 0), BuildingBlock: EZIPEK_clean_linker_0, # of connection points: 2
#     Edge 21, Type (0, 0), BuildingBlock: EZIPEK_clean_linker_0, # of connection points: 2
#     Edge 22, Type (0, 0), BuildingBlock: EZIPEK_clean_linker_0, # of connection points: 2
#     Edge 23, Type (0, 0), BuildingBlock: EZIPEK_clean_linker_0, # of connection points: 2
#     Edge 24, Type (0, 0), BuildingBlock: EZIPEK_clean_linker_0, # of connection points: 2
#     Edge 25, Type (0, 0), BuildingBlock: EZIPEK_clean_linker_0, # of connection points: 2
#     Edge 26, Type (0, 0), BuildingBlock: EZIPEK_clean_linker_0, # of connection points: 2
#     Edge 27, Type (0, 0), BuildingBlock: EZIPEK_clean_linker_0, # of connection points: 2
#     Edge 28, Type (0, 0), BuildingBlock: EZIPEK_clean_linker_0, # of connection points: 2
#     Edge 29, Type (0, 0), BuildingBlock: EZIPEK_clean_linker_0, # of connection points: 2
#     Edge 30, Type (0, 0), BuildingBlock: EZIPEK_clean_linker_0, # of connection points: 2
#     Edge 31, Type (0, 0), BuildingBlock: EZIPEK_clean_linker_0, # of connection points: 2
#     Edge 32, Type (0, 0), BuildingBlock: EZIPEK_clean_linker_0, # of connection points: 2
#     Edge 33, Type (0, 0), BuildingBlock: EZIPEK_clean_linker_0, # of connection points: 2
#     Edge 34, Type (0, 0), BuildingBlock: EZIPEK_clean_linker_0, # of connection points: 2
#     Edge 35, Type (0, 0), BuildingBlock: EZIPEK_clean_linker_0, # of connection points: 2
# Relax obj value: 0.119
# Max RMSD: 0.083
# Mean RMSD: 0.083
data_MOF--net-umy--node1-CEKHIL_clean_sbu_0--edge1-EZIPEK_clean_linker_0
_symmetry_space_group_name_H-M    P1
_symmetry_Int_Tables_number       1
_symmetry_cell_setting            triclinic
loop_
_symmetry_equiv_pos_as_xyz
'x, y, z'
_cell_length_a     27.357865
_cell_length_b     27.468642
_cell_length_c     37.629672
_cell_angle_alpha  89.968135
_cell_angle_beta   89.975528
_cell_angle_gamma 120.06158
loop_
_atom_site_label
_atom_site_type_symbol
_atom_site_fract_x
_atom_site_fract_y
_atom_site_fract_z
_atom_type_partial_charge
Co0 Co 0.06181 0.36541 0.13523 0.0
O1 O 0.03805 0.39699 0.0976 0.0
O2 O 0.11169 0.44608 0.1316 0.0
C3 C 0.97503 0.31058 0.16137 0.0
O4 O 0.09846 0.34903 0.17732 0.0
Co5 Co 0.0166 0.23639 0.13753 0.0
O6 O 0.05687 0.25496 0.18397 0.0
C7 C 0.10419 0.30608 0.08533 0.0
C8 C 0.08068 0.44602 0.10543 0.0
C9 C 0.09129 0.30507 0.19417 0.0
O10 O 0.11161 0.35106 0.10115 0.0
O11 O 0.06192 0.25741 0.09225 0.0
O12 O 1.00402 0.36432 0.1671 0.0
O13 O 0.99625 0.29404 0.13674 0.0
Co14 Co 0.71252 0.05345 0.298 0.0
O15 O 0.65284 0.02411 0.26257 0.0
O16 O 0.66523 0.08674 0.30363 0.0
C17 C 0.70273 0.96869 0.3155 0.0
O18 O 0.76447 0.09219 0.34025 0.0
Co19 Co 0.81987 0.0456 0.2924 0.0
O20 O 0.83329 0.07037 0.34257 0.0
C21 C 0.81248 0.13009 0.24897 0.0
C22 C 0.63555 0.05576 0.27718 0.0
C23 C 0.80627 0.09234 0.35599 0.0
O24 O 0.76513 0.11697 0.26432 0.0
O25 O 0.83914 0.10373 0.25467 0.0
O26 O 0.66949 0.98603 0.32738 0.0
O27 O 0.7377 1.00075 0.29115 0.0
Co28 Co 0.66881 0.7123 0.46453 0.0
O29 O 0.63447 0.65362 0.4291 0.0
O30 O 0.58678 0.67614 0.46644 0.0
C31 C 0.73023 0.68493 0.48633 0.0
O32 O 0.6889 0.76751 0.50543 0.0
Co33 Co 0.7966 0.80068 0.46007 0.0
O34 O 0.78346 0.82471 0.50732 0.0
C35 C 0.71737 0.80825 0.41057 0.0
C36 C 0.58579 0.6427 0.44161 0.0
C37 C 0.73409 0.80675 0.51999 0.0
O38 O 0.67528 0.77224 0.42955 0.0
O39 O 0.76721 0.81599 0.41485 0.0
O40 O 0.67798 0.66104 0.49662 0.0
O41 O 0.74173 0.72148 0.46143 0.0
Co42 Co 0.95587 0.65471 0.63496 0.0
O43 O 0.98693 0.6238 0.60141 0.0
O44 O 0.91148 0.57327 0.63483 0.0
C45 C 0.03937 0.7165 0.66192 0.0
O46 O 0.91271 0.66955 0.67374 0.0
Co47 Co 0.98776 0.78001 0.63322 0.0
O48 O 0.94666 0.76271 0.67909 0.0
C49 C 0.90273 0.70102 0.58253 0.0
C50 C 0.9475 0.57446 0.61184 0.0
C51 C 0.91486 0.71224 0.68943 0.0
O52 O 0.90582 0.6599 0.59685 0.0
O53 O 0.93445 0.75247 0.59162 0.0
O54 O 0.01238 0.6635 0.66987 0.0
O55 O 0.01797 0.7294 0.63526 0.0
Co56 Co 0.3147 0.96356 0.79156 0.0
O57 O 0.36992 0.98735 0.7536 0.0
O58 O 0.35184 0.91926 0.79182 0.0
C59 C 0.33893 0.04912 0.81481 0.0
O60 O 0.26418 0.92892 0.8352 0.0
Co61 Co 0.22023 0.99499 0.79059 0.0
O62 O 0.19643 0.95267 0.83605 0.0
C63 C 0.20882 0.9047 0.74396 0.0
C64 C 0.38239 0.95048 0.7656 0.0
C65 C 0.22092 0.92797 0.84963 0.0
O66 O 0.2524 0.90704 0.759 0.0
O67 O 0.19195 0.93959 0.75046 0.0
O68 O 0.36911 0.02576 0.82107 0.0
O69 O 0.3013 0.02477 0.79012 0.0
Co70 Co 0.34596 0.29208 0.96755 0.0
O71 O 0.37496 0.35517 0.9345 0.0
O72 O 0.42747 0.33666 0.97041 0.0
C73 C 0.27361 0.3005 0.99236 0.0
O74 O 0.3353 0.2363 0.00692 0.0
Co75 Co 0.23119 0.18756 0.95927 0.0
O76 O 0.25172 0.15707 0.00134 0.0
C77 C 0.31538 0.20518 0.90761 0.0
C78 C 0.42503 0.36922 0.94637 0.0
C79 C 0.29821 0.18682 0.01753 0.0
O80 O 0.35196 0.24188 0.92928 0.0
O81 O 0.26243 0.18445 0.912 0.0
O82 O 0.32574 0.33273 0.00213 0.0
O83 O 0.26738 0.26918 0.96494 0.0
Co84 Co 0.6667 0.9524 0.70269 0.0
O85 O 0.63196 0.97952 0.73604 0.0
O86 O 0.58496 0.91054 0.69782 0.0
C87 C 0.73335 0.03995 0.68277 0.0
O88 O 0.68677 0.91474 0.66303 0.0
Co89 Co 0.79105 0.98153 0.71029 0.0
O90 O 0.78102 0.95089 0.66147 0.0
C91 C 0.70376 0.89124 0.75505 0.0
C92 C 0.5837 0.94339 0.72223 0.0
C93 C 0.73195 0.92056 0.64838 0.0
O94 O 0.66501 0.89681 0.73913 0.0
O95 O 0.75659 0.92289 0.74877 0.0
O96 O 0.68227 0.01394 0.67032 0.0
O97 O 0.74146 0.01306 0.70827 0.0
Co98 Co 0.69958 0.65067 0.87258 0.0
O99 O 0.6413 0.61893 0.90885 0.0
O100 O 0.66254 0.56909 0.87257 0.0
C101 C 0.67365 0.71202 0.84944 0.0
O102 O 0.75255 0.66641 0.83065 0.0
Co103 Co 0.79154 0.77744 0.87232 0.0
O104 O 0.81087 0.75984 0.82492 0.0
C105 C 0.80528 0.69984 0.92022 0.0
C106 C 0.62975 0.5697 0.89737 0.0
C107 C 0.79154 0.70947 0.81418 0.0
O108 O 0.7607 0.65729 0.90691 0.0
O109 O 0.82114 0.75099 0.91228 0.0
O110 O 0.64779 0.65925 0.84073 0.0
O111 O 0.71125 0.72458 0.87396 0.0
Co112 Co 0.06316 0.71346 0.03321 0.0
O113 O 0.03087 0.6497 0.06573 0.0
O114 O 0.10867 0.67781 0.03405 0.0
C115 C 0.98134 0.69349 0.00455 0.0
O116 O 0.10929 0.77312 0.99592 0.0
Co117 Co 0.0327 0.80752 0.033 0.0
O118 O 0.06788 0.82414 0.98503 0.0
C119 C 0.11442 0.81212 0.08619 0.0
C120 C 0.07229 0.642 0.05636 0.0
C121 C 0.10338 0.80878 0.97699 0.0
O122 O 0.11064 0.76709 0.07272 0.0
O123 O 0.08481 0.83342 0.07531 0.0
O124 O 1.00819 0.66708 0.99669 0.0
O125 O 1.00125 0.72659 0.03178 0.0
Co126 Co 0.35033 0.04729 0.20951 0.0
O127 O 0.38078 0.01911 0.24543 0.0
O128 O 0.4321 0.0882 0.20801 0.0
C129 C 0.28405 0.96073 0.18731 0.0
O130 O 0.33654 0.08595 0.16779 0.0
Co131 Co 0.22598 0.02048 0.2109 0.0
O132 O 0.24348 0.0548 0.16265 0.0
C133 C 0.30827 0.10748 0.25923 0.0
C134 C 0.43049 0.05498 0.23313 0.0
C135 C 0.2941 0.08331 0.15139 0.0
O136 O 0.34886 0.10381 0.24423 0.0
O137 O 0.25606 0.0744 0.25198 0.0
O138 O 0.33673 0.98525 0.17781 0.0
O139 O 0.27449 0.98783 0.2119 0.0
Co140 Co 0.31166 0.35623 0.37222 0.0
O141 O 0.3704 0.38809 0.40806 0.0
O142 O 0.34986 0.43784 0.37125 0.0
C143 C 0.33278 0.293 0.34758 0.0
O144 O 0.25678 0.33965 0.33105 0.0
Co145 Co 0.21704 0.23024 0.37606 0.0
O146 O 0.18905 0.24815 0.33212 0.0
C147 C 0.20975 0.31163 0.42305 0.0
C148 C 0.38228 0.43736 0.39631 0.0
C149 C 0.21193 0.29712 0.31834 0.0
O150 O 0.25268 0.35241 0.4072 0.0
O151 O 0.19256 0.25973 0.4169 0.0
O152 O 0.36245 0.34615 0.34008 0.0
O153 O 0.29774 0.28141 0.37367 0.0
Co154 Co 0.9601 0.30354 0.54008 0.0
O155 O 0.99272 0.36611 0.57326 0.0
O156 O 0.91487 0.33951 0.54204 0.0
C157 C 0.04128 0.32431 0.51068 0.0
O158 O 0.91369 0.24491 0.50243 0.0
Co159 Co 0.99166 0.20976 0.53763 0.0
O160 O 0.95239 0.19137 0.49108 0.0
C161 C 0.90869 0.20235 0.59097 0.0
C162 C 0.95185 0.37489 0.56426 0.0
C163 C 0.9173 0.20758 0.48384 0.0
O164 O 0.91308 0.24852 0.57905 0.0
O165 O 0.93798 0.18133 0.57905 0.0
O166 O 0.01463 0.35125 0.5038 0.0
O167 O 0.02181 0.29043 0.53757 0.0
C168 C 0.1164 0.59911 0.09462 0.0
C169 C 0.07641 0.59249 0.06831 0.0
C170 C 0.05454 0.49521 0.05834 0.0
C171 C 0.08874 0.49921 0.0879 0.0
N172 N 0.17287 0.56294 0.12057 0.0
N173 N 1.00406 0.53329 0.02658 0.0
C174 C 0.12565 0.55345 0.10244 0.0
C175 C 0.04461 0.54028 0.05055 0.0
N176 N 0.1444 0.64865 0.11291 0.0
N177 N 0.03645 0.45084 0.03548 0.0
H178 H 0.99652 0.56561 0.01938 0.0
H179 H 0.97484 0.49437 0.01601 0.0
H180 H 0.05025 0.42176 0.03729 0.0
H181 H 0.01522 0.44749 0.01184 0.0
H182 H 0.16897 0.65412 0.13531 0.0
H183 H 0.13924 0.68308 0.10752 0.0
H184 H 0.20335 0.60232 0.1298 0.0
H185 H 0.1867 0.53389 0.12128 0.0
C186 C 0.53187 1.00375 0.26088 0.0
C187 C 0.58324 0.05544 0.26525 0.0
C188 C 0.53222 0.10646 0.25369 0.0
C189 C 0.4827 0.05508 0.24506 0.0
N190 N 0.4408 0.95583 0.232 0.0
N191 N 0.63428 0.15642 0.25805 0.0
C192 C 0.48395 1.00394 0.24631 0.0
C193 C 0.58399 0.10699 0.2595 0.0
N194 N 0.52765 0.95446 0.2721 0.0
N195 N 0.52958 0.15452 0.25773 0.0
H196 H 0.67324 0.15851 0.2606 0.0
H197 H 0.63755 0.19444 0.25049 0.0
H198 H 0.49217 0.15555 0.25502 0.0
H199 H 0.5631 0.19189 0.26745 0.0
H200 H 0.48947 0.91655 0.2728 0.0
H201 H 0.56068 0.95229 0.28434 0.0
H202 H 0.44259 0.91903 0.22908 0.0
H203 H 0.40611 0.95419 0.2194 0.0
C204 C 0.53232 0.53863 0.42851 0.0
C205 C 0.53259 0.59044 0.43087 0.0
C206 C 0.43125 0.53981 0.41603 0.0
C207 C 0.43361 0.4902 0.40861 0.0
N208 N 0.49286 0.4492 0.39863 0.0
N209 N 0.48354 0.64165 0.4203 0.0
C210 C 0.48594 0.49147 0.41227 0.0
C211 C 0.48232 0.59145 0.42286 0.0
N212 N 0.57501 0.53318 0.44322 0.0
N213 N 0.38024 0.53742 0.41802 0.0
H214 H 0.52027 0.6803 0.42391 0.0
H215 H 0.44949 0.64507 0.41106 0.0
H216 H 0.34189 0.50018 0.41477 0.0
H217 H 0.37581 0.57105 0.42664 0.0
H218 H 0.57374 0.49467 0.44491 0.0
H219 H 0.60802 0.56508 0.45762 0.0
H220 H 0.53194 0.45124 0.39788 0.0
H221 H 0.46176 0.41565 0.38416 0.0
C222 C 0.94282 0.50944 0.56306 0.0
C223 C 0.94623 0.52208 0.59982 0.0
C224 C 0.94698 0.43474 0.61351 0.0
C225 C 0.94954 0.42529 0.57666 0.0
N226 N 0.96056 0.45957 0.51637 0.0
N227 N 0.96197 0.50197 0.6599 0.0
C228 C 0.95017 0.46417 0.5514 0.0
C229 C 0.95094 0.48603 0.62507 0.0
N230 N 0.9307 0.53957 0.53928 0.0
N231 N 0.93886 0.39392 0.63747 0.0
H232 H 0.96636 0.53955 0.66949 0.0
H233 H 0.97205 0.48053 0.67868 0.0
H234 H 0.93529 0.3557 0.63002 0.0
H235 H 0.93043 0.39574 0.66428 0.0
H236 H 0.92162 0.5285 0.51263 0.0
H237 H 0.92436 0.57253 0.54684 0.0
H238 H 0.96764 0.49008 0.49743 0.0
H239 H 0.96765 0.42806 0.50671 0.0
C240 C 0.53178 0.99609 0.73315 0.0
C241 C 0.5308 0.94392 0.73161 0.0
C242 C 0.42929 0.89539 0.74574 0.0
C243 C 0.43282 0.94799 0.7526 0.0
N244 N 0.49323 0.04832 0.76129 0.0
N245 N 0.47967 0.84379 0.74249 0.0
C246 C 0.48561 0.99838 0.74858 0.0
C247 C 0.47975 0.89338 0.73945 0.0
N248 N 0.57572 0.04341 0.71859 0.0
N249 N 0.37772 0.84751 0.74399 0.0
H250 H 0.51588 0.84073 0.73927 0.0
H251 H 0.44494 0.80683 0.75167 0.0
H252 H 0.33984 0.84752 0.74707 0.0
H253 H 0.37238 0.80893 0.73576 0.0
H254 H 0.57555 0.08114 0.71615 0.0
H255 H 0.60895 0.04335 0.7051 0.0
H256 H 0.53263 0.08489 0.76197 0.0
H257 H 0.46222 0.05208 0.77501 0.0
C258 C 0.51431 0.46148 0.95844 0.0
C259 C 0.47738 0.42046 0.93364 0.0
C260 C 0.53829 0.47917 0.88485 0.0
C261 C 0.57835 0.51713 0.90985 0.0
N262 N 0.60902 0.5377 0.97082 0.0
N263 N 0.46102 0.38482 0.87367 0.0
C264 C 0.56759 0.50638 0.94678 0.0
C265 C 0.49131 0.42775 0.89695 0.0
N266 N 0.49757 0.45908 0.99294 0.0
N267 N 0.54306 0.49332 0.84967 0.0
H268 H 0.42708 0.34621 0.88151 0.0
H269 H 0.47307 0.38549 0.84732 0.0
H270 H 0.57503 0.5314 0.83961 0.0
H271 H 0.51189 0.46985 0.83102 0.0
H272 H 0.52009 0.49104 0.01127 0.0
H273 H 0.45838 0.42797 0.00238 0.0
H274 H 0.60567 0.52818 0.99782 0.0
H275 H 0.64906 0.56974 0.96333 0.0
C276 C 0.16037 0.26287 0.06216 0.0
C277 C 0.14885 0.30791 0.06085 0.0
C278 C 0.22132 0.35065 0.01363 0.0
C279 C 0.22557 0.30107 0.01188 0.0
N280 N 0.17887 0.20237 0.02607 0.0
N281 N 0.16253 0.39067 0.02937 0.0
C282 C 0.18915 0.25495 0.03362 0.0
C283 C 0.17792 0.35107 0.03499 0.0
N284 N 0.14568 0.22814 0.09102 0.0
N285 N 0.25796 0.397 0.99452 0.0
H286 H 0.12948 0.39092 0.04295 0.0
H287 H 0.17876 0.41983 0.00872 0.0
H288 H 0.28732 0.39687 0.97687 0.0
H289 H 0.26105 0.43613 0.9977 0.0
H290 H 0.15792 0.19793 0.09377 0.0
H291 H 0.12797 0.23396 0.11395 0.0
H292 H 0.15055 0.16686 0.0405 0.0
H293 H 0.18961 0.19372 0.00156 0.0
C294 C 0.84669 0.17117 0.18796 0.0
C295 C 0.8403 0.17943 0.22442 0.0
C296 C 0.91616 0.27801 0.21946 0.0
C297 C 0.92378 0.26963 0.18271 0.0
N298 N 0.8786 0.21467 0.13024 0.0
N299 N 0.85385 0.24509 0.27077 0.0
C300 C 0.88354 0.2181 0.1664 0.0
C301 C 0.86994 0.23438 0.23872 0.0
N302 N 0.818 0.11829 0.17391 0.0
N303 N 0.95393 0.32561 0.2371 0.0
H304 H 0.81935 0.21445 0.2849 0.0
H305 H 0.87022 0.28545 0.28117 0.0
H306 H 0.98661 0.36101 0.22528 0.0
H307 H 0.95467 0.32889 0.26471 0.0
H308 H 0.82616 0.10852 0.14864 0.0
H309 H 0.78794 0.08372 0.18834 0.0
H310 H 0.84717 0.1796 0.11704 0.0
H311 H 0.90106 0.24947 0.11372 0.0
C312 C 0.75846 0.89846 0.37453 0.0
C313 C 0.71047 0.84591 0.38403 0.0
C314 C 0.6542 0.87104 0.34452 0.0
C315 C 0.70437 0.91982 0.33271 0.0
N316 N 0.8036 0.95447 0.32308 0.0
N317 N 0.61439 0.77626 0.36789 0.0
C318 C 0.75649 0.92586 0.34337 0.0
C319 C 0.65843 0.83025 0.36624 0.0
N320 N 0.80497 0.92469 0.3958 0.0
N321 N 0.60272 0.86233 0.33399 0.0
H322 H 0.61719 0.74372 0.38005 0.0
H323 H 0.57743 0.76222 0.35323 0.0
H324 H 0.59817 0.8873 0.31488 0.0
H325 H 0.56492 0.83131 0.3451 0.0
H326 H 0.83915 0.96409 0.38932 0.0
H327 H 0.80562 0.91201 0.42183 0.0
H328 H 0.84227 0.95853 0.33043 0.0
H329 H 0.80068 0.96347 0.29656 0.0
C330 C 0.83275 0.70787 0.49593 0.0
C331 C 0.77452 0.67732 0.50581 0.0
C332 C 0.80062 0.65524 0.56358 0.0
C333 C 0.85873 0.68873 0.55497 0.0
N334 N 0.93023 0.73551 0.51027 0.0
N335 N 0.70655 0.59774 0.54029 0.0
C336 C 0.87487 0.71189 0.52029 0.0
C337 C 0.75932 0.6436 0.537 0.0
N338 N 0.84776 0.73123 0.46286 0.0
N339 N 0.7843 0.63624 0.59751 0.0
H340 H 0.67805 0.58254 0.51921 0.0
H341 H 0.69472 0.56971 0.56154 0.0
H342 H 0.81279 0.64388 0.61807 0.0
H343 H 0.74237 0.61721 0.60586 0.0
H344 H 0.88855 0.76195 0.45589 0.0
H345 H 0.81941 0.71795 0.44173 0.0
H346 H 0.94503 0.74938 0.48468 0.0
H347 H 0.96145 0.73757 0.52716 0.0
C348 C 0.09254 0.75649 0.72047 0.0
C349 C 0.0895 0.76004 0.68274 0.0
C350 C 0.1732 0.85583 0.68482 0.0
C351 C 0.17053 0.85426 0.72248 0.0
N352 N 0.12048 0.80751 0.77596 0.0
N353 N 0.13887 0.80565 0.62883 0.0
C354 C 0.12845 0.80576 0.74019 0.0
C355 C 0.13319 0.80795 0.66481 0.0
N356 N 0.06426 0.7061 0.73787 0.0
N357 N 0.21286 0.90394 0.66834 0.0
H358 H 0.11413 0.76933 0.61405 0.0
H359 H 0.17133 0.83704 0.6139 0.0
H360 H 0.24369 0.9385 0.68235 0.0
H361 H 0.21406 0.91115 0.64114 0.0
H362 H 0.06999 0.70156 0.76479 0.0
H363 H 0.04161 0.66735 0.72551 0.0
H364 H 0.0857 0.7761 0.78951 0.0
H365 H 0.14525 0.84281 0.79154 0.0
C366 C 0.33852 0.08646 0.87639 0.0
C367 C 0.34069 0.09369 0.83877 0.0
C368 C 0.34122 0.18338 0.84737 0.0
C369 C 0.33171 0.17179 0.88421 0.0
N370 N 0.31117 0.10732 0.93272 0.0
N371 N 0.3466 0.15049 0.7882 0.0
C372 C 0.3287 0.12259 0.89845 0.0
C373 C 0.34287 0.14275 0.8242 0.0
N374 N 0.34342 0.04387 0.89165 0.0
N375 N 0.349 0.23345 0.83478 0.0
H376 H 0.35315 0.1248 0.77077 0.0
H377 H 0.34185 0.18136 0.7753 0.0
H378 H 0.34711 0.263 0.85127 0.0
H379 H 0.3609 0.24757 0.80885 0.0
H380 H 0.35251 0.04355 0.91851 0.0
H381 H 0.34019 0.00947 0.87816 0.0
H382 H 0.30114 0.06856 0.94364 0.0
H383 H 0.30141 0.13126 0.94954 0.0
C384 C 0.64047 0.7437 0.79513 0.0
C385 C 0.6678 0.75616 0.82879 0.0
C386 C 0.70547 0.85723 0.81722 0.0
C387 C 0.68693 0.84469 0.78135 0.0
N388 N 0.64135 0.77546 0.73506 0.0
N389 N 0.70193 0.82235 0.87711 0.0
C390 C 0.65513 0.78779 0.7701 0.0
C391 C 0.69368 0.81247 0.84141 0.0
N392 N 0.59702 0.69083 0.78799 0.0
N393 N 0.73512 0.9121 0.82799 0.0
H394 H 0.68645 0.78986 0.89572 0.0
H395 H 0.71705 0.86161 0.8888 0.0
H396 H 0.74026 0.94546 0.81208 0.0
H397 H 0.75663 0.92504 0.85203 0.0
H398 H 0.57316 0.68059 0.76477 0.0
H399 H 0.57831 0.65988 0.80743 0.0
H400 H 0.62499 0.73507 0.7247 0.0
H401 H 0.65073 0.80602 0.71567 0.0
C402 C 0.83616 0.67283 0.97698 0.0
C403 C 0.84663 0.6906 0.941 0.0
C404 C 0.94153 0.70121 0.94504 0.0
C405 C 0.93373 0.68943 0.98218 0.0
N406 N 0.8731 0.66278 0.03368 0.0
N407 N 0.91031 0.72523 0.89093 0.0
C408 C 0.88075 0.6748 0.99816 0.0
C409 C 0.89944 0.70529 0.92509 0.0
N410 N 0.78338 0.65376 0.99075 0.0
N411 N 0.98911 0.70834 0.92843 0.0
H412 H 0.87991 0.72534 0.87432 0.0
H413 H 0.95033 0.74491 0.87947 0.0
H414 H 0.02321 0.71036 0.94173 0.0
H415 H 0.99364 0.70863 0.90095 0.0
H416 H 0.77044 0.63505 0.01561 0.0
H417 H 0.75078 0.65342 0.97618 0.0
H418 H 0.83878 0.65848 0.04818 0.0
H419 H 0.90225 0.6586 0.0493 0.0
C420 C 0.25347 0.88857 0.13776 0.0
C421 C 0.23816 0.91096 0.16701 0.0
C422 C 0.13837 0.85287 0.14829 0.0
C423 C 0.1564 0.84248 0.11513 0.0
N424 N 0.23359 0.85712 0.07686 0.0
N425 N 0.16244 0.902 0.20475 0.0
C426 C 0.21457 0.86182 0.10954 0.0
C427 C 0.17944 0.88941 0.1737 0.0
N428 N 0.30368 0.88918 0.1379 0.0
N429 N 0.08196 0.82543 0.15616 0.0
H430 H 0.18764 0.91511 0.2274 0.0
H431 H 0.1226 0.89727 0.20853 0.0
H432 H 0.0512 0.79722 0.1387 0.0
H433 H 0.06559 0.82661 0.18089 0.0
H434 H 0.31493 0.86991 0.11822 0.0
H435 H 0.32951 0.90054 0.16029 0.0
H436 H 0.27645 0.87606 0.07072 0.0
H437 H 0.20715 0.8393 0.05498 0.0
C438 C 0.33614 0.16034 0.31776 0.0
C439 C 0.32155 0.15782 0.28139 0.0
C440 C 0.32586 0.24929 0.28689 0.0
C441 C 0.3329 0.24842 0.32442 0.0
N442 N 0.34604 0.20348 0.37575 0.0
N443 N 0.29519 0.19605 0.23215 0.0
C444 C 0.33844 0.20396 0.33987 0.0
C445 C 0.31505 0.20156 0.26615 0.0
N446 N 0.3483 0.12126 0.33099 0.0
N447 N 0.328 0.29489 0.27066 0.0
H448 H 0.28511 0.1613 0.21623 0.0
H449 H 0.28417 0.2235 0.22039 0.0
H450 H 0.32671 0.32735 0.28392 0.0
H451 H 0.33308 0.30168 0.24333 0.0
H452 H 0.36452 0.12317 0.35627 0.0
H453 H 0.34588 0.08856 0.31556 0.0
H454 H 0.34331 0.16932 0.38949 0.0
H455 H 0.3534 0.23692 0.39228 0.0
C456 C 0.11871 0.31165 0.42923 0.0
C457 C 0.1711 0.32366 0.44442 0.0
C458 C 0.14042 0.34049 0.5024 0.0
C459 C 0.08752 0.32788 0.48728 0.0
N460 N 0.03085 0.31181 0.43444 0.0
N461 N 0.23632 0.35816 0.49318 0.0
C462 C 0.07827 0.31702 0.45012 0.0
C463 C 0.18336 0.34091 0.48036 0.0
N464 N 0.10661 0.29284 0.39489 0.0
N465 N 0.14953 0.35206 0.53791 0.0
H466 H 0.26793 0.35805 0.4777 0.0
H467 H 0.2505 0.37605 0.5181 0.0
H468 H 0.12171 0.35743 0.55416 0.0
H469 H 0.18377 0.35493 0.55175 0.0
H470 H 0.0665 0.27498 0.3837 0.0
H471 H 0.13611 0.29195 0.37778 0.0
H472 H 0.02552 0.31221 0.40707 0.0
H473 H 0.99771 0.3106 0.44846 0.0
C474 C 0.88039 0.15378 0.65084 0.0
C475 C 0.86492 0.16923 0.6184 0.0
C476 C 0.7657 0.11781 0.63703 0.0
C477 C 0.77951 0.09298 0.66555 0.0
N478 N 0.85105 0.10903 0.7088 0.0
N479 N 0.79091 0.15899 0.57856 0.0
C480 C 0.83737 0.11691 0.6752 0.0
C481 C 0.80715 0.14998 0.61112 0.0
N482 N 0.93627 0.17412 0.65816 0.0
N483 N 0.71429 0.11467 0.63618 0.0
H484 H 0.81912 0.18057 0.55801 0.0
H485 H 0.74873 0.14001 0.57079 0.0
H486 H 0.68604 0.09892 0.65741 0.0
H487 H 0.70372 0.13577 0.6174 0.0
H488 H 0.95089 0.15918 0.67856 0.0
H489 H 0.96869 0.20522 0.64286 0.0
H490 H 0.89207 0.12692 0.71843 0.0
H491 H 0.82115 0.09105 0.72897 0.0
C492 C 0.18162 0.27341 0.25464 0.0
C493 C 0.1855 0.30446 0.28575 0.0
C494 C 0.12934 0.3402 0.25621 0.0
C495 C 0.12871 0.31153 0.22468 0.0
N496 N 0.1711 0.26792 0.19088 0.0
N497 N 0.16983 0.37415 0.3146 0.0
C498 C 0.15995 0.28328 0.22305 0.0
C499 C 0.162 0.3405 0.28592 0.0
N500 N 0.19717 0.2333 0.25511 0.0
N501 N 0.09654 0.36462 0.25845 0.0
H502 H 0.19018 0.37323 0.33776 0.0
H503 H 0.15929 0.4057 0.31464 0.0
H504 H 0.07339 0.36635 0.23705 0.0
H505 H 0.08937 0.37993 0.28201 0.0
H506 H 0.18776 0.20475 0.23441 0.0
H507 H 0.21502 0.22509 0.27704 0.0
H508 H 0.19811 0.25172 0.18775 0.0
H509 H 0.15909 0.27818 0.16704 0.0
C510 C 0.84591 0.11858 0.45362 0.0
C511 C 0.87678 0.17845 0.45425 0.0
C512 C 0.85518 0.18133 0.39147 0.0
C513 C 0.82602 0.12175 0.39042 0.0
N514 N 0.78222 0.03313 0.42135 0.0
N515 N 0.89079 0.26482 0.42766 0.0
C516 C 0.81778 0.09012 0.42187 0.0
C517 C 0.87488 0.2093 0.42451 0.0
N518 N 0.84358 0.08919 0.48354 0.0
N519 N 0.86711 0.21142 0.36059 0.0
H520 H 0.90338 0.28674 0.45152 0.0
H521 H 0.88521 0.28756 0.40747 0.0
H522 H 0.85427 0.19241 0.33578 0.0
H523 H 0.89407 0.25479 0.35927 0.0
H524 H 0.82831 0.04606 0.48402 0.0
H525 H 0.85803 0.10852 0.5082 0.0
H526 H 0.77052 0.0076 0.4438 0.0
H527 H 0.76074 0.0115 0.3985 0.0
C528 C 0.72502 0.91145 0.58209 0.0
C529 C 0.72706 0.88873 0.61556 0.0
C530 C 0.72578 0.80822 0.58621 0.0
C531 C 0.72874 0.83347 0.55277 0.0
N532 N 0.7348 0.90999 0.51794 0.0
N533 N 0.73305 0.8183 0.65046 0.0
C534 C 0.72908 0.88526 0.55043 0.0
C535 C 0.72815 0.83767 0.6179 0.0
N536 N 0.71881 0.95784 0.58071 0.0
N537 N 0.7204 0.75595 0.58751 0.0
H538 H 0.73314 0.8378 0.67425 0.0
H539 H 0.74007 0.78478 0.65409 0.0
H540 H 0.7203 0.73406 0.56484 0.0
H541 H 0.71245 0.73245 0.61067 0.0
H542 H 0.71144 0.97357 0.55743 0.0
H543 H 0.7173 0.97889 0.60339 0.0
H544 H 0.74182 0.95057 0.51443 0.0
H545 H 0.73558 0.89095 0.49413 0.0
C546 C 0.88529 0.68199 0.75272 0.0
C547 C 0.87703 0.70284 0.72012 0.0
C548 C 0.80705 0.7214 0.74831 0.0
C549 C 0.81561 0.70091 0.78101 0.0
N550 N 0.85249 0.64974 0.81268 0.0
N551 N 0.82097 0.72924 0.68438 0.0
C552 C 0.85118 0.67704 0.78262 0.0
C553 C 0.8351 0.71863 0.71718 0.0
N554 N 0.92785 0.66985 0.75567 0.0
N555 N 0.77262 0.74419 0.74718 0.0
H556 H 0.84033 0.72705 0.66102 0.0
H557 H 0.7868 0.73516 0.67983 0.0
H558 H 0.7481 0.74311 0.76874 0.0
H559 H 0.77006 0.76633 0.72547 0.0
H560 H 0.94117 0.66172 0.77973 0.0
H561 H 0.95268 0.67157 0.73419 0.0
H562 H 0.87299 0.62652 0.81422 0.0
H563 H 0.82913 0.64611 0.83539 0.0
C564 C 0.19275 0.92705 0.9135 0.0
C565 C 0.19851 0.89776 0.88406 0.0
C566 C 0.15182 0.80944 0.9187 0.0
C567 C 0.14299 0.83871 0.94695 0.0
N568 N 0.17566 0.92735 0.97654 0.0
N569 N 0.18096 0.81033 0.85758 0.0
C570 C 0.1695 0.89812 0.94583 0.0
C571 C 0.17854 0.83894 0.88667 0.0
N572 N 0.2074 0.98229 0.91041 0.0
N573 N 0.13617 0.75401 0.92264 0.0
H574 H 0.20126 0.82982 0.83402 0.0
H575 H 0.15988 0.76673 0.85556 0.0
H576 H 0.11575 0.73021 0.94496 0.0
H577 H 0.14743 0.73204 0.9051 0.0
H578 H 0.19567 1.0028 0.9289 0.0
H579 H 0.22809 0.00707 0.88844 0.0
H580 H 0.20012 0.97099 0.97838 0.0
H581 H 0.16215 0.90773 0.00122 0.0
C582 C 0.29853 0.08436 0.08489 0.0
C583 C 0.30398 0.11318 0.11711 0.0
C584 C 0.30994 0.19279 0.08418 0.0
C585 C 0.30708 0.16511 0.05172 0.0
N586 N 0.32005 0.09485 0.02219 0.0
N587 N 0.33462 0.20162 0.14652 0.0
C588 C 0.30738 0.11364 0.05232 0.0
C589 C 0.31594 0.16965 0.11652 0.0
N590 N 0.28502 0.02925 0.08531 0.0
N591 N 0.30439 0.23953 0.08451 0.0
H592 H 0.34391 0.18687 0.16959 0.0
H593 H 0.34777 0.24438 0.147 0.0
H594 H 0.29924 0.25767 0.06154 0.0
H595 H 0.30002 0.25734 0.10788 0.0
H596 H 0.27466 1.00469 0.06242 0.0
H597 H 0.28056 0.00714 0.10877 0.0
H598 H 0.32428 0.05923 0.02125 0.0
H599 H 0.33504 0.1203 0.9998 0.0
loop_
_geom_bond_atom_site_label_1
_geom_bond_atom_site_label_2
_geom_bond_distance
_geom_bond_site_symmetry_2
_ccdc_geom_bond_type
Co0 O1 2.216 . S
Co0 O2 2.091 . S
Co0 O4 2.004 . S
Co0 O10 2.021 . S
Co0 O12 2.137 1_455 S
Co0 O13 2.244 1_455 S
O1 Co0 2.216 . S
O1 C8 1.247 . S
O2 Co0 2.091 . S
O2 C8 1.261 . S
C3 O12 1.247 . S
C3 O13 1.272 . S
O4 Co0 2.004 . S
O4 C9 1.259 . S
Co5 O6 2.061 . S
Co5 O11 2.052 . S
Co5 O13 2.135 1_455 S
O6 Co5 2.061 . S
O6 C9 1.235 . S
C7 O10 1.238 . S
C7 O11 1.241 . S
C8 O1 1.247 . S
C8 O2 1.261 . S
C9 O4 1.259 . S
C9 O6 1.235 . S
O10 Co0 2.021 . S
O10 C7 1.238 . S
O11 Co5 2.052 . S
O11 C7 1.241 . S
O12 Co0 2.137 1_655 S
O12 C3 1.247 . S
O13 Co0 2.244 1_655 S
O13 C3 1.272 . S
O13 Co5 2.135 1_655 S
Co14 O15 2.216 . S
Co14 O16 2.091 . S
Co14 O18 2.004 . S
Co14 O24 2.021 . S
Co14 O26 2.137 1_545 S
Co14 O27 2.244 1_545 S
O15 Co14 2.216 . S
O15 C22 1.247 . S
O16 Co14 2.091 . S
O16 C22 1.261 . S
C17 O26 1.247 . S
C17 O27 1.272 . S
O18 Co14 2.004 . S
O18 C23 1.259 . S
Co19 O20 2.061 . S
Co19 O25 2.052 . S
Co19 O27 2.135 1_545 S
O20 Co19 2.061 . S
O20 C23 1.235 . S
C21 O24 1.238 . S
C21 O25 1.241 . S
C22 O15 1.247 . S
C22 O16 1.261 . S
C23 O18 1.259 . S
C23 O20 1.235 . S
O24 Co14 2.021 . S
O24 C21 1.238 . S
O25 Co19 2.052 . S
O25 C21 1.241 . S
O26 Co14 2.137 1_565 S
O26 C17 1.247 . S
O27 Co14 2.244 1_565 S
O27 C17 1.272 . S
O27 Co19 2.135 1_565 S
Co28 O29 2.216 . S
Co28 O30 2.091 . S
Co28 O32 2.004 . S
Co28 O38 2.021 . S
Co28 O40 2.137 . S
Co28 O41 2.244 . S
O29 Co28 2.216 . S
O29 C36 1.247 . S
O30 Co28 2.091 . S
O30 C36 1.261 . S
C31 O40 1.247 . S
C31 O41 1.272 . S
O32 Co28 2.004 . S
O32 C37 1.259 . S
Co33 O34 2.061 . S
Co33 O39 2.052 . S
Co33 O41 2.135 . S
O34 Co33 2.061 . S
O34 C37 1.235 . S
C35 O38 1.238 . S
C35 O39 1.241 . S
C36 O29 1.247 . S
C36 O30 1.261 . S
C37 O32 1.259 . S
C37 O34 1.235 . S
O38 Co28 2.021 . S
O38 C35 1.238 . S
O39 Co33 2.052 . S
O39 C35 1.241 . S
O40 Co28 2.137 . S
O40 C31 1.247 . S
O41 Co28 2.244 . S
O41 C31 1.272 . S
O41 Co33 2.135 . S
Co42 O43 2.216 . S
Co42 O44 2.091 . S
Co42 O46 2.004 . S
Co42 O52 2.021 . S
Co42 O54 2.137 1_655 S
Co42 O55 2.244 1_655 S
O43 Co42 2.216 . S
O43 C50 1.247 . S
O44 Co42 2.091 . S
O44 C50 1.261 . S
C45 O54 1.247 . S
C45 O55 1.272 . S
O46 Co42 2.004 . S
O46 C51 1.259 . S
Co47 O48 2.061 . S
Co47 O53 2.052 . S
Co47 O55 2.135 1_655 S
O48 Co47 2.061 . S
O48 C51 1.235 . S
C49 O52 1.238 . S
C49 O53 1.241 . S
C50 O43 1.247 . S
C50 O44 1.261 . S
C51 O46 1.259 . S
C51 O48 1.235 . S
O52 Co42 2.021 . S
O52 C49 1.238 . S
O53 Co47 2.052 . S
O53 C49 1.241 . S
O54 Co42 2.137 1_455 S
O54 C45 1.247 . S
O55 Co42 2.244 1_455 S
O55 C45 1.272 . S
O55 Co47 2.135 1_455 S
Co56 O57 2.216 . S
Co56 O58 2.091 . S
Co56 O60 2.004 . S
Co56 O66 2.021 . S
Co56 O68 2.137 1_565 S
Co56 O69 2.244 1_565 S
O57 Co56 2.216 . S
O57 C64 1.247 . S
O58 Co56 2.091 . S
O58 C64 1.261 . S
C59 O68 1.247 . S
C59 O69 1.272 . S
O60 Co56 2.004 . S
O60 C65 1.259 . S
Co61 O62 2.061 . S
Co61 O67 2.052 . S
Co61 O69 2.135 1_565 S
O62 Co61 2.061 . S
O62 C65 1.235 . S
C63 O66 1.238 . S
C63 O67 1.241 . S
C64 O57 1.247 . S
C64 O58 1.261 . S
C65 O60 1.259 . S
C65 O62 1.235 . S
O66 Co56 2.021 . S
O66 C63 1.238 . S
O67 Co61 2.052 . S
O67 C63 1.241 . S
O68 Co56 2.137 1_545 S
O68 C59 1.247 . S
O69 Co56 2.244 1_545 S
O69 C59 1.272 . S
O69 Co61 2.135 1_545 S
Co70 O71 2.216 . S
Co70 O72 2.091 . S
Co70 O74 2.004 1_556 S
Co70 O80 2.021 . S
Co70 O82 2.137 . S
Co70 O83 2.244 . S
O71 Co70 2.216 . S
O71 C78 1.247 . S
O72 Co70 2.091 . S
O72 C78 1.261 . S
C73 O82 1.247 . S
C73 O83 1.272 . S
O74 Co70 2.004 1_554 S
O74 C79 1.259 . S
Co75 O76 2.061 1_556 S
Co75 O81 2.052 . S
Co75 O83 2.135 . S
O76 Co75 2.061 1_554 S
O76 C79 1.235 . S
C77 O80 1.238 . S
C77 O81 1.241 . S
C78 O71 1.247 . S
C78 O72 1.261 . S
C79 O74 1.259 . S
C79 O76 1.235 . S
O80 Co70 2.021 . S
O80 C77 1.238 . S
O81 Co75 2.052 . S
O81 C77 1.241 . S
O82 Co70 2.137 . S
O82 C73 1.247 . S
O83 Co70 2.244 . S
O83 C73 1.272 . S
O83 Co75 2.135 . S
Co84 O85 2.216 . S
Co84 O86 2.091 . S
Co84 O88 2.004 . S
Co84 O94 2.021 . S
Co84 O96 2.137 1_565 S
Co84 O97 2.244 1_565 S
O85 Co84 2.216 . S
O85 C92 1.247 . S
O86 Co84 2.091 . S
O86 C92 1.261 . S
C87 O96 1.247 . S
C87 O97 1.272 . S
O88 Co84 2.004 . S
O88 C93 1.259 . S
Co89 O90 2.061 . S
Co89 O95 2.052 . S
Co89 O97 2.135 1_565 S
O90 Co89 2.061 . S
O90 C93 1.235 . S
C91 O94 1.238 . S
C91 O95 1.241 . S
C92 O85 1.247 . S
C92 O86 1.261 . S
C93 O88 1.259 . S
C93 O90 1.235 . S
O94 Co84 2.021 . S
O94 C91 1.238 . S
O95 Co89 2.052 . S
O95 C91 1.241 . S
O96 Co84 2.137 1_545 S
O96 C87 1.247 . S
O97 Co84 2.244 1_545 S
O97 C87 1.272 . S
O97 Co89 2.135 1_545 S
Co98 O99 2.216 . S
Co98 O100 2.091 . S
Co98 O102 2.004 . S
Co98 O108 2.021 . S
Co98 O110 2.137 . S
Co98 O111 2.244 . S
O99 Co98 2.216 . S
O99 C106 1.247 . S
O100 Co98 2.091 . S
O100 C106 1.261 . S
C101 O110 1.247 . S
C101 O111 1.272 . S
O102 Co98 2.004 . S
O102 C107 1.259 . S
Co103 O104 2.061 . S
Co103 O109 2.052 . S
Co103 O111 2.135 . S
O104 Co103 2.061 . S
O104 C107 1.235 . S
C105 O108 1.238 . S
C105 O109 1.241 . S
C106 O99 1.247 . S
C106 O100 1.261 . S
C107 O102 1.259 . S
C107 O104 1.235 . S
O108 Co98 2.021 . S
O108 C105 1.238 . S
O109 Co103 2.052 . S
O109 C105 1.241 . S
O110 Co98 2.137 . S
O110 C101 1.247 . S
O111 Co98 2.244 . S
O111 C101 1.272 . S
O111 Co103 2.135 . S
Co112 O113 2.216 . S
Co112 O114 2.091 . S
Co112 O116 2.004 1_554 S
Co112 O122 2.021 . S
Co112 O124 2.137 1_455 S
Co112 O125 2.244 1_455 S
O113 Co112 2.216 . S
O113 C120 1.247 . S
O114 Co112 2.091 . S
O114 C120 1.261 . S
C115 O124 1.247 . S
C115 O125 1.272 . S
O116 Co112 2.004 1_556 S
O116 C121 1.259 . S
Co117 O118 2.061 1_554 S
Co117 O123 2.052 . S
Co117 O125 2.135 1_455 S
O118 Co117 2.061 1_556 S
O118 C121 1.235 . S
C119 O122 1.238 . S
C119 O123 1.241 . S
C120 O113 1.247 . S
C120 O114 1.261 . S
C121 O116 1.259 . S
C121 O118 1.235 . S
O122 Co112 2.021 . S
O122 C119 1.238 . S
O123 Co117 2.052 . S
O123 C119 1.241 . S
O124 Co112 2.137 1_655 S
O124 C115 1.247 . S
O125 Co112 2.244 1_655 S
O125 C115 1.272 . S
O125 Co117 2.135 1_655 S
Co126 O127 2.216 . S
Co126 O128 2.091 . S
Co126 O130 2.004 . S
Co126 O136 2.021 . S
Co126 O138 2.137 1_545 S
Co126 O139 2.244 1_545 S
O127 Co126 2.216 . S
O127 C134 1.247 . S
O128 Co126 2.091 . S
O128 C134 1.261 . S
C129 O138 1.247 . S
C129 O139 1.272 . S
O130 Co126 2.004 . S
O130 C135 1.259 . S
Co131 O132 2.061 . S
Co131 O137 2.052 . S
Co131 O139 2.135 1_545 S
O132 Co131 2.061 . S
O132 C135 1.235 . S
C133 O136 1.238 . S
C133 O137 1.241 . S
C134 O127 1.247 . S
C134 O128 1.261 . S
C135 O130 1.259 . S
C135 O132 1.235 . S
O136 Co126 2.021 . S
O136 C133 1.238 . S
O137 Co131 2.052 . S
O137 C133 1.241 . S
O138 Co126 2.137 1_565 S
O138 C129 1.247 . S
O139 Co126 2.244 1_565 S
O139 C129 1.272 . S
O139 Co131 2.135 1_565 S
Co140 O141 2.216 . S
Co140 O142 2.091 . S
Co140 O144 2.004 . S
Co140 O150 2.021 . S
Co140 O152 2.137 . S
Co140 O153 2.244 . S
O141 Co140 2.216 . S
O141 C148 1.247 . S
O142 Co140 2.091 . S
O142 C148 1.261 . S
C143 O152 1.247 . S
C143 O153 1.272 . S
O144 Co140 2.004 . S
O144 C149 1.259 . S
Co145 O146 2.061 . S
Co145 O151 2.052 . S
Co145 O153 2.135 . S
O146 Co145 2.061 . S
O146 C149 1.235 . S
C147 O150 1.238 . S
C147 O151 1.241 . S
C148 O141 1.247 . S
C148 O142 1.261 . S
C149 O144 1.259 . S
C149 O146 1.235 . S
O150 Co140 2.021 . S
O150 C147 1.238 . S
O151 Co145 2.052 . S
O151 C147 1.241 . S
O152 Co140 2.137 . S
O152 C143 1.247 . S
O153 Co140 2.244 . S
O153 C143 1.272 . S
O153 Co145 2.135 . S
Co154 O155 2.216 . S
Co154 O156 2.091 . S
Co154 O158 2.004 . S
Co154 O164 2.021 . S
Co154 O166 2.137 1_655 S
Co154 O167 2.244 1_655 S
O155 Co154 2.216 . S
O155 C162 1.247 . S
O156 Co154 2.091 . S
O156 C162 1.261 . S
C157 O166 1.247 . S
C157 O167 1.272 . S
O158 Co154 2.004 . S
O158 C163 1.259 . S
Co159 O160 2.061 . S
Co159 O165 2.052 . S
Co159 O167 2.135 1_655 S
O160 Co159 2.061 . S
O160 C163 1.235 . S
C161 O164 1.238 . S
C161 O165 1.241 . S
C162 O155 1.247 . S
C162 O156 1.261 . S
C163 O158 1.259 . S
C163 O160 1.235 . S
O164 Co154 2.021 . S
O164 C161 1.238 . S
O165 Co159 2.052 . S
O165 C161 1.241 . S
O166 Co154 2.137 1_455 S
O166 C157 1.247 . S
O167 Co154 2.244 1_455 S
O167 C157 1.272 . S
O167 Co159 2.135 1_455 S
C168 C169 1.363 . S
C168 C174 1.379 . S
C168 N176 1.356 . S
C169 C168 1.363 . S
C169 C175 1.363 1_455 S
C170 C171 1.363 1_655 S
C170 C175 1.379 . S
C170 N177 1.356 . S
C171 C170 1.363 1_455 S
C171 C174 1.363 . S
N172 C174 1.356 . S
N172 H184 0.984 . S
N172 H185 0.985 . S
N173 C175 1.356 . S
N173 H178 0.984 . S
N173 H179 0.985 . S
C174 C168 1.379 . S
C174 C171 1.363 . S
C174 N172 1.356 . S
C175 C169 1.363 1_655 S
C175 C170 1.379 . S
C175 N173 1.356 . S
N176 C168 1.356 . S
N176 H182 0.984 . S
N176 H183 0.984 . S
N177 C170 1.356 . S
N177 H180 0.984 . S
N177 H181 0.985 . S
H178 N173 0.984 . S
H179 N173 0.985 . S
H180 N177 0.984 . S
H181 N177 0.985 . S
H182 N176 0.984 . S
H183 N176 0.984 . S
H184 N172 0.984 . S
H185 N172 0.985 . S
C186 C187 1.363 1_565 S
C186 C192 1.379 . S
C186 N194 1.356 . S
C187 C186 1.363 1_545 S
C187 C193 1.363 . S
C188 C189 1.363 . S
C188 C193 1.379 . S
C188 N195 1.356 . S
C189 C188 1.363 . S
C189 C192 1.363 1_545 S
N190 C192 1.356 . S
N190 H202 0.984 . S
N190 H203 0.985 . S
N191 C193 1.356 . S
N191 H196 0.984 . S
N191 H197 0.985 . S
C192 C186 1.379 . S
C192 C189 1.363 1_565 S
C192 N190 1.356 . S
C193 C187 1.363 . S
C193 C188 1.379 . S
C193 N191 1.356 . S
N194 C186 1.356 . S
N194 H200 0.984 . S
N194 H201 0.984 . S
N195 C188 1.356 . S
N195 H198 0.984 . S
N195 H199 0.985 . S
H196 N191 0.984 . S
H197 N191 0.985 . S
H198 N195 0.984 . S
H199 N195 0.985 . S
H200 N194 0.984 . S
H201 N194 0.984 . S
H202 N190 0.984 . S
H203 N190 0.985 . S
C204 C205 1.363 . S
C204 C210 1.379 . S
C204 N212 1.356 . S
C205 C204 1.363 . S
C205 C211 1.363 . S
C206 C207 1.363 . S
C206 C211 1.379 . S
C206 N213 1.356 . S
C207 C206 1.363 . S
C207 C210 1.363 . S
N208 C210 1.356 . S
N208 H220 0.984 . S
N208 H221 0.985 . S
N209 C211 1.356 . S
N209 H214 0.984 . S
N209 H215 0.985 . S
C210 C204 1.379 . S
C210 C207 1.363 . S
C210 N208 1.356 . S
C211 C205 1.363 . S
C211 C206 1.379 . S
C211 N209 1.356 . S
N212 C204 1.356 . S
N212 H218 0.984 . S
N212 H219 0.984 . S
N213 C206 1.356 . S
N213 H216 0.984 . S
N213 H217 0.985 . S
H214 N209 0.984 . S
H215 N209 0.985 . S
H216 N213 0.984 . S
H217 N213 0.985 . S
H218 N212 0.984 . S
H219 N212 0.984 . S
H220 N208 0.984 . S
H221 N208 0.985 . S
C222 C223 1.363 . S
C222 C228 1.379 . S
C222 N230 1.356 . S
C223 C222 1.363 . S
C223 C229 1.363 . S
C224 C225 1.363 . S
C224 C229 1.379 . S
C224 N231 1.356 1_655 S
C225 C224 1.363 . S
C225 C228 1.363 . S
N226 C228 1.356 . S
N226 H238 0.984 . S
N226 H239 0.985 . S
N227 C229 1.356 1_455 S
N227 H232 0.984 . S
N227 H233 0.985 . S
C228 C222 1.379 . S
C228 C225 1.363 . S
C228 N226 1.356 . S
C229 C223 1.363 . S
C229 C224 1.379 . S
C229 N227 1.356 1_655 S
N230 C222 1.356 . S
N230 H236 0.984 . S
N230 H237 0.984 . S
N231 C224 1.356 1_455 S
N231 H234 0.984 . S
N231 H235 0.985 . S
H232 N227 0.984 . S
H233 N227 0.985 . S
H234 N231 0.984 . S
H235 N231 0.985 . S
H236 N230 0.984 . S
H237 N230 0.984 . S
H238 N226 0.984 . S
H239 N226 0.985 . S
C240 C241 1.363 1_545 S
C240 C246 1.379 . S
C240 N248 1.356 . S
C241 C240 1.363 1_565 S
C241 C247 1.363 . S
C242 C243 1.363 . S
C242 C247 1.379 . S
C242 N249 1.356 . S
C243 C242 1.363 . S
C243 C246 1.363 1_565 S
N244 C246 1.356 . S
N244 H256 0.984 . S
N244 H257 0.985 . S
N245 C247 1.356 . S
N245 H250 0.984 . S
N245 H251 0.985 . S
C246 C240 1.379 . S
C246 C243 1.363 1_545 S
C246 N244 1.356 . S
C247 C241 1.363 . S
C247 C242 1.379 . S
C247 N245 1.356 . S
N248 C240 1.356 . S
N248 H254 0.984 . S
N248 H255 0.984 . S
N249 C242 1.356 . S
N249 H252 0.984 . S
N249 H253 0.985 . S
H250 N245 0.984 . S
H251 N245 0.985 . S
H252 N249 0.984 . S
H253 N249 0.985 . S
H254 N248 0.984 . S
H255 N248 0.984 . S
H256 N244 0.984 . S
H257 N244 0.985 . S
C258 C259 1.363 . S
C258 C264 1.379 . S
C258 N266 1.356 . S
C259 C258 1.363 . S
C259 C265 1.363 . S
C260 C261 1.363 . S
C260 C265 1.379 . S
C260 N267 1.356 . S
C261 C260 1.363 . S
C261 C264 1.363 . S
N262 C264 1.356 . S
N262 H274 0.984 . S
N262 H275 0.985 . S
N263 C265 1.356 . S
N263 H268 0.984 . S
N263 H269 0.985 . S
C264 C258 1.379 . S
C264 C261 1.363 . S
C264 N262 1.356 . S
C265 C259 1.363 . S
C265 C260 1.379 . S
C265 N263 1.356 . S
N266 C258 1.356 . S
N266 H272 0.984 . S
N266 H273 0.984 . S
N267 C260 1.356 . S
N267 H270 0.984 . S
N267 H271 0.985 . S
H268 N263 0.984 . S
H269 N263 0.985 . S
H270 N267 0.984 . S
H271 N267 0.985 . S
H272 N266 0.984 . S
H273 N266 0.984 . S
H274 N262 0.984 . S
H275 N262 0.985 . S
C276 C277 1.363 . S
C276 C282 1.379 . S
C276 N284 1.356 . S
C277 C276 1.363 . S
C277 C283 1.363 . S
C278 C279 1.363 . S
C278 C283 1.379 . S
C278 N285 1.356 1_554 S
C279 C278 1.363 . S
C279 C282 1.363 . S
N280 C282 1.356 . S
N280 H292 0.984 . S
N280 H293 0.985 . S
N281 C283 1.356 . S
N281 H286 0.984 . S
N281 H287 0.985 . S
C282 C276 1.379 . S
C282 C279 1.363 . S
C282 N280 1.356 . S
C283 C277 1.363 . S
C283 C278 1.379 . S
C283 N281 1.356 . S
N284 C276 1.356 . S
N284 H290 0.984 . S
N284 H291 0.984 . S
N285 C278 1.356 1_556 S
N285 H288 0.984 . S
N285 H289 0.985 . S
H286 N281 0.984 . S
H287 N281 0.985 . S
H288 N285 0.984 . S
H289 N285 0.985 . S
H290 N284 0.984 . S
H291 N284 0.984 . S
H292 N280 0.984 . S
H293 N280 0.985 . S
C294 C295 1.363 . S
C294 C300 1.379 . S
C294 N302 1.356 . S
C295 C294 1.363 . S
C295 C301 1.363 . S
C296 C297 1.363 . S
C296 C301 1.379 . S
C296 N303 1.356 . S
C297 C296 1.363 . S
C297 C300 1.363 . S
N298 C300 1.356 . S
N298 H310 0.984 . S
N298 H311 0.985 . S
N299 C301 1.356 . S
N299 H304 0.984 . S
N299 H305 0.985 . S
C300 C294 1.379 . S
C300 C297 1.363 . S
C300 N298 1.356 . S
C301 C295 1.363 . S
C301 C296 1.379 . S
C301 N299 1.356 . S
N302 C294 1.356 . S
N302 H308 0.984 . S
N302 H309 0.984 . S
N303 C296 1.356 . S
N303 H306 0.984 . S
N303 H307 0.985 . S
H304 N299 0.984 . S
H305 N299 0.985 . S
H306 N303 0.984 . S
H307 N303 0.985 . S
H308 N302 0.984 . S
H309 N302 0.984 . S
H310 N298 0.984 . S
H311 N298 0.985 . S
C312 C313 1.363 . S
C312 C318 1.379 . S
C312 N320 1.356 . S
C313 C312 1.363 . S
C313 C319 1.363 . S
C314 C315 1.363 . S
C314 C319 1.379 . S
C314 N321 1.356 . S
C315 C314 1.363 . S
C315 C318 1.363 . S
N316 C318 1.356 . S
N316 H328 0.983 1_565 S
N316 H329 0.985 . S
N317 C319 1.356 . S
N317 H322 0.984 . S
N317 H323 0.985 . S
C318 C312 1.379 . S
C318 C315 1.363 . S
C318 N316 1.356 . S
C319 C313 1.363 . S
C319 C314 1.379 . S
C319 N317 1.356 . S
N320 C312 1.356 . S
N320 H326 0.984 . S
N320 H327 0.984 . S
N321 C314 1.356 . S
N321 H324 0.984 . S
N321 H325 0.985 . S
H322 N317 0.984 . S
H323 N317 0.985 . S
H324 N321 0.984 . S
H325 N321 0.985 . S
H326 N320 0.984 . S
H327 N320 0.984 . S
H328 N316 0.983 1_545 S
H329 N316 0.985 . S
C330 C331 1.363 . S
C330 C336 1.379 . S
C330 N338 1.356 . S
C331 C330 1.363 . S
C331 C337 1.363 . S
C332 C333 1.363 . S
C332 C337 1.379 . S
C332 N339 1.356 . S
C333 C332 1.363 . S
C333 C336 1.363 . S
N334 C336 1.356 . S
N334 H346 0.984 . S
N334 H347 0.985 . S
N335 C337 1.356 . S
N335 H340 0.984 . S
N335 H341 0.985 . S
C336 C330 1.379 . S
C336 C333 1.363 . S
C336 N334 1.356 . S
C337 C331 1.363 . S
C337 C332 1.379 . S
C337 N335 1.356 . S
N338 C330 1.356 . S
N338 H344 0.984 . S
N338 H345 0.984 . S
N339 C332 1.356 . S
N339 H342 0.984 . S
N339 H343 0.985 . S
H340 N335 0.984 . S
H341 N335 0.985 . S
H342 N339 0.984 . S
H343 N339 0.985 . S
H344 N338 0.984 . S
H345 N338 0.984 . S
H346 N334 0.984 . S
H347 N334 0.985 . S
C348 C349 1.363 . S
C348 C354 1.379 . S
C348 N356 1.356 . S
C349 C348 1.363 . S
C349 C355 1.363 . S
C350 C351 1.363 . S
C350 C355 1.379 . S
C350 N357 1.356 . S
C351 C350 1.363 . S
C351 C354 1.363 . S
N352 C354 1.356 . S
N352 H364 0.984 . S
N352 H365 0.985 . S
N353 C355 1.356 . S
N353 H358 0.984 . S
N353 H359 0.985 . S
C354 C348 1.379 . S
C354 C351 1.363 . S
C354 N352 1.356 . S
C355 C349 1.363 . S
C355 C350 1.379 . S
C355 N353 1.356 . S
N356 C348 1.356 . S
N356 H362 0.984 . S
N356 H363 0.984 . S
N357 C350 1.356 . S
N357 H360 0.984 . S
N357 H361 0.985 . S
H358 N353 0.984 . S
H359 N353 0.985 . S
H360 N357 0.984 . S
H361 N357 0.985 . S
H362 N356 0.984 . S
H363 N356 0.984 . S
H364 N352 0.984 . S
H365 N352 0.985 . S
C366 C367 1.363 . S
C366 C372 1.379 . S
C366 N374 1.356 . S
C367 C366 1.363 . S
C367 C373 1.363 . S
C368 C369 1.363 . S
C368 C373 1.379 . S
C368 N375 1.356 . S
C369 C368 1.363 . S
C369 C372 1.363 . S
N370 C372 1.356 . S
N370 H382 0.984 . S
N370 H383 0.985 . S
N371 C373 1.356 . S
N371 H376 0.984 . S
N371 H377 0.985 . S
C372 C366 1.379 . S
C372 C369 1.363 . S
C372 N370 1.356 . S
C373 C367 1.363 . S
C373 C368 1.379 . S
C373 N371 1.356 . S
N374 C366 1.356 . S
N374 H380 0.984 . S
N374 H381 0.984 . S
N375 C368 1.356 . S
N375 H378 0.984 . S
N375 H379 0.985 . S
H376 N371 0.984 . S
H377 N371 0.985 . S
H378 N375 0.984 . S
H379 N375 0.985 . S
H380 N374 0.984 . S
H381 N374 0.984 . S
H382 N370 0.984 . S
H383 N370 0.985 . S
C384 C385 1.363 . S
C384 C390 1.379 . S
C384 N392 1.356 . S
C385 C384 1.363 . S
C385 C391 1.363 . S
C386 C387 1.363 . S
C386 C391 1.379 . S
C386 N393 1.356 . S
C387 C386 1.363 . S
C387 C390 1.363 . S
N388 C390 1.356 . S
N388 H400 0.984 . S
N388 H401 0.985 . S
N389 C391 1.356 . S
N389 H394 0.984 . S
N389 H395 0.985 . S
C390 C384 1.379 . S
C390 C387 1.363 . S
C390 N388 1.356 . S
C391 C385 1.363 . S
C391 C386 1.379 . S
C391 N389 1.356 . S
N392 C384 1.356 . S
N392 H398 0.984 . S
N392 H399 0.984 . S
N393 C386 1.356 . S
N393 H396 0.984 . S
N393 H397 0.985 . S
H394 N389 0.984 . S
H395 N389 0.985 . S
H396 N393 0.984 . S
H397 N393 0.985 . S
H398 N392 0.984 . S
H399 N392 0.984 . S
H400 N388 0.984 . S
H401 N388 0.985 . S
C402 C403 1.363 . S
C402 C408 1.379 . S
C402 N410 1.356 . S
C403 C402 1.363 . S
C403 C409 1.363 . S
C404 C405 1.363 . S
C404 C409 1.379 . S
C404 N411 1.356 . S
C405 C404 1.363 . S
C405 C408 1.363 . S
N406 C408 1.356 1_554 S
N406 H418 0.984 . S
N406 H419 0.985 . S
N407 C409 1.356 . S
N407 H412 0.984 . S
N407 H413 0.985 . S
C408 C402 1.379 . S
C408 C405 1.363 . S
C408 N406 1.356 1_556 S
C409 C403 1.363 . S
C409 C404 1.379 . S
C409 N407 1.356 . S
N410 C402 1.356 . S
N410 H416 0.984 . S
N410 H417 0.984 . S
N411 C404 1.356 . S
N411 H414 0.984 . S
N411 H415 0.985 . S
H412 N407 0.984 . S
H413 N407 0.985 . S
H414 N411 0.984 . S
H415 N411 0.985 . S
H416 N410 0.984 . S
H417 N410 0.984 . S
H418 N406 0.984 . S
H419 N406 0.985 . S
C420 C421 1.363 . S
C420 C426 1.379 . S
C420 N428 1.356 . S
C421 C420 1.363 . S
C421 C427 1.363 . S
C422 C423 1.363 . S
C422 C427 1.379 . S
C422 N429 1.356 . S
C423 C422 1.363 . S
C423 C426 1.363 . S
N424 C426 1.356 . S
N424 H436 0.984 . S
N424 H437 0.985 . S
N425 C427 1.356 . S
N425 H430 0.984 . S
N425 H431 0.985 . S
C426 C420 1.379 . S
C426 C423 1.363 . S
C426 N424 1.356 . S
C427 C421 1.363 . S
C427 C422 1.379 . S
C427 N425 1.356 . S
N428 C420 1.356 . S
N428 H434 0.984 . S
N428 H435 0.984 . S
N429 C422 1.356 . S
N429 H432 0.984 . S
N429 H433 0.985 . S
H430 N425 0.984 . S
H431 N425 0.985 . S
H432 N429 0.984 . S
H433 N429 0.985 . S
H434 N428 0.984 . S
H435 N428 0.984 . S
H436 N424 0.984 . S
H437 N424 0.985 . S
C438 C439 1.363 . S
C438 C444 1.379 . S
C438 N446 1.356 . S
C439 C438 1.363 . S
C439 C445 1.363 . S
C440 C441 1.363 . S
C440 C445 1.379 . S
C440 N447 1.356 . S
C441 C440 1.363 . S
C441 C444 1.363 . S
N442 C444 1.356 . S
N442 H454 0.984 . S
N442 H455 0.985 . S
N443 C445 1.356 . S
N443 H448 0.984 . S
N443 H449 0.985 . S
C444 C438 1.379 . S
C444 C441 1.363 . S
C444 N442 1.356 . S
C445 C439 1.363 . S
C445 C440 1.379 . S
C445 N443 1.356 . S
N446 C438 1.356 . S
N446 H452 0.984 . S
N446 H453 0.984 . S
N447 C440 1.356 . S
N447 H450 0.984 . S
N447 H451 0.985 . S
H448 N443 0.984 . S
H449 N443 0.985 . S
H450 N447 0.984 . S
H451 N447 0.985 . S
H452 N446 0.984 . S
H453 N446 0.984 . S
H454 N442 0.984 . S
H455 N442 0.985 . S
C456 C457 1.363 . S
C456 C462 1.379 . S
C456 N464 1.356 . S
C457 C456 1.363 . S
C457 C463 1.363 . S
C458 C459 1.363 . S
C458 C463 1.379 . S
C458 N465 1.356 . S
C459 C458 1.363 . S
C459 C462 1.363 . S
N460 C462 1.356 . S
N460 H472 0.984 . S
N460 H473 0.985 . S
N461 C463 1.356 . S
N461 H466 0.984 . S
N461 H467 0.985 . S
C462 C456 1.379 . S
C462 C459 1.363 . S
C462 N460 1.356 . S
C463 C457 1.363 . S
C463 C458 1.379 . S
C463 N461 1.356 . S
N464 C456 1.356 . S
N464 H470 0.984 . S
N464 H471 0.984 . S
N465 C458 1.356 . S
N465 H468 0.984 . S
N465 H469 0.985 . S
H466 N461 0.984 . S
H467 N461 0.985 . S
H468 N465 0.984 . S
H469 N465 0.985 . S
H470 N464 0.984 . S
H471 N464 0.984 . S
H472 N460 0.984 . S
H473 N460 0.985 . S
C474 C475 1.363 . S
C474 C480 1.379 . S
C474 N482 1.356 . S
C475 C474 1.363 . S
C475 C481 1.363 . S
C476 C477 1.363 . S
C476 C481 1.379 . S
C476 N483 1.356 . S
C477 C476 1.363 . S
C477 C480 1.363 . S
N478 C480 1.356 . S
N478 H490 0.984 . S
N478 H491 0.985 . S
N479 C481 1.356 . S
N479 H484 0.984 . S
N479 H485 0.985 . S
C480 C474 1.379 . S
C480 C477 1.363 . S
C480 N478 1.356 . S
C481 C475 1.363 . S
C481 C476 1.379 . S
C481 N479 1.356 . S
N482 C474 1.356 . S
N482 H488 0.984 . S
N482 H489 0.984 . S
N483 C476 1.356 . S
N483 H486 0.984 . S
N483 H487 0.985 . S
H484 N479 0.984 . S
H485 N479 0.985 . S
H486 N483 0.984 . S
H487 N483 0.985 . S
H488 N482 0.984 . S
H489 N482 0.984 . S
H490 N478 0.984 . S
H491 N478 0.985 . S
C492 C493 1.363 . S
C492 C498 1.379 . S
C492 N500 1.356 . S
C493 C492 1.363 . S
C493 C499 1.363 . S
C494 C495 1.363 . S
C494 C499 1.379 . S
C494 N501 1.356 . S
C495 C494 1.363 . S
C495 C498 1.363 . S
N496 C498 1.356 . S
N496 H508 0.984 . S
N496 H509 0.985 . S
N497 C499 1.356 . S
N497 H502 0.984 . S
N497 H503 0.985 . S
C498 C492 1.379 . S
C498 C495 1.363 . S
C498 N496 1.356 . S
C499 C493 1.363 . S
C499 C494 1.379 . S
C499 N497 1.356 . S
N500 C492 1.356 . S
N500 H506 0.984 . S
N500 H507 0.984 . S
N501 C494 1.356 . S
N501 H504 0.984 . S
N501 H505 0.985 . S
H502 N497 0.984 . S
H503 N497 0.985 . S
H504 N501 0.984 . S
H505 N501 0.985 . S
H506 N500 0.984 . S
H507 N500 0.984 . S
H508 N496 0.984 . S
H509 N496 0.985 . S
C510 C511 1.363 . S
C510 C516 1.379 . S
C510 N518 1.356 . S
C511 C510 1.363 . S
C511 C517 1.363 . S
C512 C513 1.363 . S
C512 C517 1.379 . S
C512 N519 1.356 . S
C513 C512 1.363 . S
C513 C516 1.363 . S
N514 C516 1.356 . S
N514 H526 0.984 . S
N514 H527 0.985 . S
N515 C517 1.356 . S
N515 H520 0.984 . S
N515 H521 0.985 . S
C516 C510 1.379 . S
C516 C513 1.363 . S
C516 N514 1.356 . S
C517 C511 1.363 . S
C517 C512 1.379 . S
C517 N515 1.356 . S
N518 C510 1.356 . S
N518 H524 0.984 . S
N518 H525 0.984 . S
N519 C512 1.356 . S
N519 H522 0.984 . S
N519 H523 0.985 . S
H520 N515 0.984 . S
H521 N515 0.985 . S
H522 N519 0.984 . S
H523 N519 0.985 . S
H524 N518 0.984 . S
H525 N518 0.984 . S
H526 N514 0.984 . S
H527 N514 0.985 . S
C528 C529 1.363 . S
C528 C534 1.379 . S
C528 N536 1.356 . S
C529 C528 1.363 . S
C529 C535 1.363 . S
C530 C531 1.363 . S
C530 C535 1.379 . S
C530 N537 1.356 . S
C531 C530 1.363 . S
C531 C534 1.363 . S
N532 C534 1.356 . S
N532 H544 0.984 . S
N532 H545 0.985 . S
N533 C535 1.356 . S
N533 H538 0.984 . S
N533 H539 0.985 . S
C534 C528 1.379 . S
C534 C531 1.363 . S
C534 N532 1.356 . S
C535 C529 1.363 . S
C535 C530 1.379 . S
C535 N533 1.356 . S
N536 C528 1.356 . S
N536 H542 0.984 . S
N536 H543 0.984 . S
N537 C530 1.356 . S
N537 H540 0.984 . S
N537 H541 0.985 . S
H538 N533 0.984 . S
H539 N533 0.985 . S
H540 N537 0.984 . S
H541 N537 0.985 . S
H542 N536 0.984 . S
H543 N536 0.984 . S
H544 N532 0.984 . S
H545 N532 0.985 . S
C546 C547 1.363 . S
C546 C552 1.379 . S
C546 N554 1.356 . S
C547 C546 1.363 . S
C547 C553 1.363 . S
C548 C549 1.363 . S
C548 C553 1.379 . S
C548 N555 1.356 . S
C549 C548 1.363 . S
C549 C552 1.363 . S
N550 C552 1.356 . S
N550 H562 0.984 . S
N550 H563 0.985 . S
N551 C553 1.356 . S
N551 H556 0.984 . S
N551 H557 0.985 . S
C552 C546 1.379 . S
C552 C549 1.363 . S
C552 N550 1.356 . S
C553 C547 1.363 . S
C553 C548 1.379 . S
C553 N551 1.356 . S
N554 C546 1.356 . S
N554 H560 0.984 . S
N554 H561 0.984 . S
N555 C548 1.356 . S
N555 H558 0.984 . S
N555 H559 0.985 . S
H556 N551 0.984 . S
H557 N551 0.985 . S
H558 N555 0.984 . S
H559 N555 0.985 . S
H560 N554 0.984 . S
H561 N554 0.984 . S
H562 N550 0.984 . S
H563 N550 0.985 . S
C564 C565 1.363 . S
C564 C570 1.379 . S
C564 N572 1.356 . S
C565 C564 1.363 . S
C565 C571 1.363 . S
C566 C567 1.363 . S
C566 C571 1.379 . S
C566 N573 1.356 . S
C567 C566 1.363 . S
C567 C570 1.363 . S
N568 C570 1.356 . S
N568 H580 0.984 . S
N568 H581 0.985 . S
N569 C571 1.356 . S
N569 H574 0.984 . S
N569 H575 0.985 . S
C570 C564 1.379 . S
C570 C567 1.363 . S
C570 N568 1.356 . S
C571 C565 1.363 . S
C571 C566 1.379 . S
C571 N569 1.356 . S
N572 C564 1.356 . S
N572 H578 0.984 . S
N572 H579 0.984 . S
N573 C566 1.356 . S
N573 H576 0.984 . S
N573 H577 0.985 . S
H574 N569 0.984 . S
H575 N569 0.985 . S
H576 N573 0.984 . S
H577 N573 0.985 . S
H578 N572 0.984 . S
H579 N572 0.984 . S
H580 N568 0.984 . S
H581 N568 0.985 . S
C582 C583 1.363 . S
C582 C588 1.379 . S
C582 N590 1.356 . S
C583 C582 1.363 . S
C583 C589 1.363 . S
C584 C585 1.363 . S
C584 C589 1.379 . S
C584 N591 1.356 . S
C585 C584 1.363 . S
C585 C588 1.363 . S
N586 C588 1.356 . S
N586 H598 0.984 . S
N586 H599 0.977 1_554 S
N587 C589 1.356 . S
N587 H592 0.984 . S
N587 H593 0.985 . S
C588 C582 1.379 . S
C588 C585 1.363 . S
C588 N586 1.356 . S
C589 C583 1.363 . S
C589 C584 1.379 . S
C589 N587 1.356 . S
N590 C582 1.356 . S
N590 H596 0.984 . S
N590 H597 0.984 . S
N591 C584 1.356 . S
N591 H594 0.984 . S
N591 H595 0.985 . S
H592 N587 0.984 . S
H593 N587 0.985 . S
H594 N591 0.984 . S
H595 N591 0.985 . S
H596 N590 0.984 . S
H597 N590 0.984 . S
H598 N586 0.984 . S
H599 N586 0.977 1_556 S
C169 C120 1.458 . S
C171 C8 1.458 . S
C187 C22 1.458 . S
C189 C134 1.458 . S
C205 C36 1.458 . S
C207 C148 1.458 . S
C223 C50 1.458 . S
C225 C162 1.458 . S
C241 C92 1.458 . S
C243 C64 1.458 . S
C259 C78 1.458 . S
C261 C106 1.458 . S
C277 C7 1.547 . S
C279 C73 1.549 1_554 S
C295 C21 1.547 . S
C297 C3 1.549 . S
C313 C35 1.547 . S
C315 C17 1.549 . S
C331 C31 1.549 . S
C333 C49 1.547 . S
C349 C45 1.549 . S
C351 C63 1.547 . S
C367 C59 1.549 . S
C369 C77 1.547 . S
C385 C101 1.549 . S
C387 C91 1.547 . S
C403 C105 1.547 . S
C405 C115 1.549 1_556 S
C421 C129 1.549 . S
C423 C119 1.547 . S
C439 C133 1.547 . S
C441 C143 1.549 . S
C457 C147 1.547 . S
C459 C157 1.549 . S
C475 C161 1.547 . S
C477 C87 1.549 . S
C493 C149 1.326 . S
C495 C9 1.326 . S
C511 C163 1.326 . S
C513 C23 1.326 . S
C529 C93 1.326 . S
C531 C37 1.326 . S
C547 C51 1.326 . S
C549 C107 1.326 . S
C565 C65 1.326 . S
C567 C121 1.326 . S
C583 C135 1.326 . S
C585 C79 1.326 . S
