# Generated by pormake.
# Topology ums, (4)-cn, num edge types: 1
# Building blocks:
#     Node 0, Type 0, BuildingBlock: QUQFOY_clean_sbu_3, # of connection points: 4
#     Node 1, Type 0, BuildingBlock: QUQFOY_clean_sbu_3, # of connection points: 4
#     Node 2, Type 0, BuildingBlock: QUQFOY_clean_sbu_3, # of connection points: 4
#     Node 3, Type 0, BuildingBlock: QUQFOY_clean_sbu_3, # of connection points: 4
#     Node 4, Type 0, BuildingBlock: QUQFOY_clean_sbu_3, # of connection points: 4
#     Node 5, Type 0, BuildingBlock: QUQFOY_clean_sbu_3, # of connection points: 4
#     Node 6, Type 0, BuildingBlock: QUQFOY_clean_sbu_3, # of connection points: 4
#     Node 7, Type 0, BuildingBlock: QUQFOY_clean_sbu_3, # of connection points: 4
#     Node 8, Type 0, BuildingBlock: QUQFOY_clean_sbu_3, # of connection points: 4
#     Node 9, Type 0, BuildingBlock: QUQFOY_clean_sbu_3, # of connection points: 4
#     Node 10, Type 0, BuildingBlock: QUQFOY_clean_sbu_3, # of connection points: 4
#     Node 11, Type 0, BuildingBlock: QUQFOY_clean_sbu_3, # of connection points: 4
#     Node 12, Type 0, BuildingBlock: QUQFOY_clean_sbu_3, # of connection points: 4
#     Node 13, Type 0, BuildingBlock: QUQFOY_clean_sbu_3, # of connection points: 4
#     Node 14, Type 0, BuildingBlock: QUQFOY_clean_sbu_3, # of connection points: 4
#     Node 15, Type 0, BuildingBlock: QUQFOY_clean_sbu_3, # of connection points: 4
#     Node 16, Type 0, BuildingBlock: QUQFOY_clean_sbu_3, # of connection points: 4
#     Node 17, Type 0, BuildingBlock: QUQFOY_clean_sbu_3, # of connection points: 4
#     Node 18, Type 0, BuildingBlock: QUQFOY_clean_sbu_3, # of connection points: 4
#     Node 19, Type 0, BuildingBlock: QUQFOY_clean_sbu_3, # of connection points: 4
#     Node 20, Type 0, BuildingBlock: QUQFOY_clean_sbu_3, # of connection points: 4
#     Node 21, Type 0, BuildingBlock: QUQFOY_clean_sbu_3, # of connection points: 4
#     Node 22, Type 0, BuildingBlock: QUQFOY_clean_sbu_3, # of connection points: 4
#     Node 23, Type 0, BuildingBlock: QUQFOY_clean_sbu_3, # of connection points: 4
#     Node 24, Type 0, BuildingBlock: QUQFOY_clean_sbu_3, # of connection points: 4
#     Node 25, Type 0, BuildingBlock: QUQFOY_clean_sbu_3, # of connection points: 4
#     Node 26, Type 0, BuildingBlock: QUQFOY_clean_sbu_3, # of connection points: 4
#     Node 27, Type 0, BuildingBlock: QUQFOY_clean_sbu_3, # of connection points: 4
#     Node 28, Type 0, BuildingBlock: QUQFOY_clean_sbu_3, # of connection points: 4
#     Node 29, Type 0, BuildingBlock: QUQFOY_clean_sbu_3, # of connection points: 4
#     Node 30, Type 0, BuildingBlock: QUQFOY_clean_sbu_3, # of connection points: 4
#     Node 31, Type 0, BuildingBlock: QUQFOY_clean_sbu_3, # of connection points: 4
#     Node 32, Type 0, BuildingBlock: QUQFOY_clean_sbu_3, # of connection points: 4
#     Node 33, Type 0, BuildingBlock: QUQFOY_clean_sbu_3, # of connection points: 4
#     Node 34, Type 0, BuildingBlock: QUQFOY_clean_sbu_3, # of connection points: 4
#     Node 35, Type 0, BuildingBlock: QUQFOY_clean_sbu_3, # of connection points: 4
#     Edge 36, Type (0, 0), BuildingBlock: ZUJKAS_clean_linker_0, # of connection points: 2
#     Edge 37, Type (0, 0), BuildingBlock: ZUJKAS_clean_linker_0, # of connection points: 2
#     Edge 38, Type (0, 0), BuildingBlock: ZUJKAS_clean_linker_0, # of connection points: 2
#     Edge 39, Type (0, 0), BuildingBlock: ZUJKAS_clean_linker_0, # of connection points: 2
#     Edge 40, Type (0, 0), BuildingBlock: ZUJKAS_clean_linker_0, # of connection points: 2
#     Edge 41, Type (0, 0), BuildingBlock: ZUJKAS_clean_linker_0, # of connection points: 2
#     Edge 42, Type (0, 0), BuildingBlock: ZUJKAS_clean_linker_0, # of connection points: 2
#     Edge 43, Type (0, 0), BuildingBlock: ZUJKAS_clean_linker_0, # of connection points: 2
#     Edge 44, Type (0, 0), BuildingBlock: ZUJKAS_clean_linker_0, # of connection points: 2
#     Edge 45, Type (0, 0), BuildingBlock: ZUJKAS_clean_linker_0, # of connection points: 2
#     Edge 46, Type (0, 0), BuildingBlock: ZUJKAS_clean_linker_0, # of connection points: 2
#     Edge 47, Type (0, 0), BuildingBlock: ZUJKAS_clean_linker_0, # of connection points: 2
#     Edge 48, Type (0, 0), BuildingBlock: ZUJKAS_clean_linker_0, # of connection points: 2
#     Edge 49, Type (0, 0), BuildingBlock: ZUJKAS_clean_linker_0, # of connection points: 2
#     Edge 50, Type (0, 0), BuildingBlock: ZUJKAS_clean_linker_0, # of connection points: 2
#     Edge 51, Type (0, 0), BuildingBlock: ZUJKAS_clean_linker_0, # of connection points: 2
#     Edge 52, Type (0, 0), BuildingBlock: ZUJKAS_clean_linker_0, # of connection points: 2
#     Edge 53, Type (0, 0), BuildingBlock: ZUJKAS_clean_linker_0, # of connection points: 2
#     Edge 54, Type (0, 0), BuildingBlock: ZUJKAS_clean_linker_0, # of connection points: 2
#     Edge 55, Type (0, 0), BuildingBlock: ZUJKAS_clean_linker_0, # of connection points: 2
#     Edge 56, Type (0, 0), BuildingBlock: ZUJKAS_clean_linker_0, # of connection points: 2
#     Edge 57, Type (0, 0), BuildingBlock: ZUJKAS_clean_linker_0, # of connection points: 2
#     Edge 58, Type (0, 0), BuildingBlock: ZUJKAS_clean_linker_0, # of connection points: 2
#     Edge 59, Type (0, 0), BuildingBlock: ZUJKAS_clean_linker_0, # of connection points: 2
#     Edge 60, Type (0, 0), BuildingBlock: ZUJKAS_clean_linker_0, # of connection points: 2
#     Edge 61, Type (0, 0), BuildingBlock: ZUJKAS_clean_linker_0, # of connection points: 2
#     Edge 62, Type (0, 0), BuildingBlock: ZUJKAS_clean_linker_0, # of connection points: 2
#     Edge 63, Type (0, 0), BuildingBlock: ZUJKAS_clean_linker_0, # of connection points: 2
#     Edge 64, Type (0, 0), BuildingBlock: ZUJKAS_clean_linker_0, # of connection points: 2
#     Edge 65, Type (0, 0), BuildingBlock: ZUJKAS_clean_linker_0, # of connection points: 2
#     Edge 66, Type (0, 0), BuildingBlock: ZUJKAS_clean_linker_0, # of connection points: 2
#     Edge 67, Type (0, 0), BuildingBlock: ZUJKAS_clean_linker_0, # of connection points: 2
#     Edge 68, Type (0, 0), BuildingBlock: ZUJKAS_clean_linker_0, # of connection points: 2
#     Edge 69, Type (0, 0), BuildingBlock: ZUJKAS_clean_linker_0, # of connection points: 2
#     Edge 70, Type (0, 0), BuildingBlock: ZUJKAS_clean_linker_0, # of connection points: 2
#     Edge 71, Type (0, 0), BuildingBlock: ZUJKAS_clean_linker_0, # of connection points: 2
#     Edge 72, Type (0, 0), BuildingBlock: ZUJKAS_clean_linker_0, # of connection points: 2
#     Edge 73, Type (0, 0), BuildingBlock: ZUJKAS_clean_linker_0, # of connection points: 2
#     Edge 74, Type (0, 0), BuildingBlock: ZUJKAS_clean_linker_0, # of connection points: 2
#     Edge 75, Type (0, 0), BuildingBlock: ZUJKAS_clean_linker_0, # of connection points: 2
#     Edge 76, Type (0, 0), BuildingBlock: ZUJKAS_clean_linker_0, # of connection points: 2
#     Edge 77, Type (0, 0), BuildingBlock: ZUJKAS_clean_linker_0, # of connection points: 2
#     Edge 78, Type (0, 0), BuildingBlock: ZUJKAS_clean_linker_0, # of connection points: 2
#     Edge 79, Type (0, 0), BuildingBlock: ZUJKAS_clean_linker_0, # of connection points: 2
#     Edge 80, Type (0, 0), BuildingBlock: ZUJKAS_clean_linker_0, # of connection points: 2
#     Edge 81, Type (0, 0), BuildingBlock: ZUJKAS_clean_linker_0, # of connection points: 2
#     Edge 82, Type (0, 0), BuildingBlock: ZUJKAS_clean_linker_0, # of connection points: 2
#     Edge 83, Type (0, 0), BuildingBlock: ZUJKAS_clean_linker_0, # of connection points: 2
#     Edge 84, Type (0, 0), BuildingBlock: ZUJKAS_clean_linker_0, # of connection points: 2
#     Edge 85, Type (0, 0), BuildingBlock: ZUJKAS_clean_linker_0, # of connection points: 2
#     Edge 86, Type (0, 0), BuildingBlock: ZUJKAS_clean_linker_0, # of connection points: 2
#     Edge 87, Type (0, 0), BuildingBlock: ZUJKAS_clean_linker_0, # of connection points: 2
#     Edge 88, Type (0, 0), BuildingBlock: ZUJKAS_clean_linker_0, # of connection points: 2
#     Edge 89, Type (0, 0), BuildingBlock: ZUJKAS_clean_linker_0, # of connection points: 2
#     Edge 90, Type (0, 0), BuildingBlock: ZUJKAS_clean_linker_0, # of connection points: 2
#     Edge 91, Type (0, 0), BuildingBlock: ZUJKAS_clean_linker_0, # of connection points: 2
#     Edge 92, Type (0, 0), BuildingBlock: ZUJKAS_clean_linker_0, # of connection points: 2
#     Edge 93, Type (0, 0), BuildingBlock: ZUJKAS_clean_linker_0, # of connection points: 2
#     Edge 94, Type (0, 0), BuildingBlock: ZUJKAS_clean_linker_0, # of connection points: 2
#     Edge 95, Type (0, 0), BuildingBlock: ZUJKAS_clean_linker_0, # of connection points: 2
#     Edge 96, Type (0, 0), BuildingBlock: ZUJKAS_clean_linker_0, # of connection points: 2
#     Edge 97, Type (0, 0), BuildingBlock: ZUJKAS_clean_linker_0, # of connection points: 2
#     Edge 98, Type (0, 0), BuildingBlock: ZUJKAS_clean_linker_0, # of connection points: 2
#     Edge 99, Type (0, 0), BuildingBlock: ZUJKAS_clean_linker_0, # of connection points: 2
#     Edge 100, Type (0, 0), BuildingBlock: ZUJKAS_clean_linker_0, # of connection points: 2
#     Edge 101, Type (0, 0), BuildingBlock: ZUJKAS_clean_linker_0, # of connection points: 2
#     Edge 102, Type (0, 0), BuildingBlock: ZUJKAS_clean_linker_0, # of connection points: 2
#     Edge 103, Type (0, 0), BuildingBlock: ZUJKAS_clean_linker_0, # of connection points: 2
#     Edge 104, Type (0, 0), BuildingBlock: ZUJKAS_clean_linker_0, # of connection points: 2
#     Edge 105, Type (0, 0), BuildingBlock: ZUJKAS_clean_linker_0, # of connection points: 2
#     Edge 106, Type (0, 0), BuildingBlock: ZUJKAS_clean_linker_0, # of connection points: 2
#     Edge 107, Type (0, 0), BuildingBlock: ZUJKAS_clean_linker_0, # of connection points: 2
# Relax obj value: 0.191
# Max RMSD: 0.141
# Mean RMSD: 0.140
data_MOF--net-ums--node1-QUQFOY_clean_sbu_3--edge1-ZUJKAS_clean_linker_0
_symmetry_space_group_name_H-M    P1
_symmetry_Int_Tables_number       1
_symmetry_cell_setting            triclinic
loop_
_symmetry_equiv_pos_as_xyz
'x, y, z'
_cell_length_a     134.04668
_cell_length_b     133.89058
_cell_length_c     30.975134
_cell_angle_alpha  89.998468
_cell_angle_beta   90.028693
_cell_angle_gamma 119.87154
loop_
_atom_site_label
_atom_site_type_symbol
_atom_site_fract_x
_atom_site_fract_y
_atom_site_fract_z
_atom_type_partial_charge
C0 C 0.17335 0.27819 0.18209 0.0
O1 O 0.16529 0.27826 0.20339 0.0
Cd2 Cd 0.14959 0.26165 0.2356 0.0
O3 O 0.17388 0.26898 0.1787 0.0
Cd4 Cd 0.16321 0.24879 0.20581 0.0
C5 C 0.1402 0.24377 0.14628 0.0
O6 O 0.1575 0.25219 0.276 0.0
O7 O 0.14877 0.23453 0.2546 0.0
O8 O 0.18146 0.25032 0.225 0.0
C9 C 0.15034 0.24173 0.2841 0.0
O10 O 0.13858 0.24974 0.17455 0.0
C11 C 0.17959 0.24122 0.20541 0.0
O12 O 0.14897 0.24245 0.14807 0.0
O13 O 0.17018 0.2358 0.18472 0.0
C14 C 0.71027 0.89072 0.16429 0.0
O15 O 0.71087 0.88249 0.18209 0.0
Cd16 Cd 0.72756 0.88415 0.21667 0.0
O17 O 0.71889 0.90091 0.1647 0.0
Cd18 Cd 0.73874 0.91092 0.19426 0.0
C19 C 0.74716 0.89555 0.13355 0.0
O20 O 0.73464 0.90064 0.26194 0.0
O21 O 0.75266 0.91142 0.24721 0.0
O22 O 0.73629 0.92668 0.21989 0.0
C23 C 0.74501 0.90485 0.27382 0.0
O24 O 0.7411 0.88723 0.15905 0.0
C25 C 0.74469 0.93445 0.19886 0.0
O26 O 0.74743 0.90515 0.13726 0.0
O27 O 0.75014 0.93122 0.17432 0.0
C28 C 0.09812 0.819 0.20724 0.0
O29 O 0.10515 0.82695 0.23208 0.0
Cd30 Cd 0.10147 0.84118 0.2633 0.0
O31 O 0.08815 0.81764 0.20024 0.0
Cd32 Cd 0.07603 0.82578 0.22477 0.0
C33 C 0.0935 0.85029 0.17172 0.0
O34 O 0.08321 0.83108 0.29755 0.0
O35 O 0.07314 0.83844 0.27446 0.0
O36 O 0.06056 0.80627 0.2368 0.0
C37 C 0.07869 0.83725 0.30523 0.0
O38 O 0.10067 0.85234 0.20216 0.0
C39 C 0.0531 0.80737 0.21531 0.0
O40 O 0.08395 0.84087 0.17047 0.0
O41 O 0.05642 0.81704 0.19715 0.0
C42 C 0.27599 0.17192 0.27078 0.0
O43 O 0.27537 0.16438 0.24437 0.0
Cd44 Cd 0.2576 0.14945 0.21525 0.0
O45 O 0.26705 0.17252 0.28034 0.0
Cd46 Cd 0.24644 0.16323 0.25894 0.0
C47 C 0.24218 0.13929 0.31014 0.0
O48 O 0.24785 0.1585 0.18467 0.0
O49 O 0.23078 0.14981 0.21176 0.0
O50 O 0.24873 0.18222 0.24915 0.0
C51 C 0.23717 0.15173 0.1791 0.0
O52 O 0.24718 0.13775 0.27793 0.0
C53 C 0.24003 0.18028 0.27161 0.0
O54 O 0.2412 0.14826 0.31281 0.0
O55 O 0.23453 0.17048 0.28968 0.0
C56 C 0.81579 0.10029 0.29159 0.0
O57 O 0.82417 0.10741 0.26857 0.0
Cd58 Cd 0.83776 0.10336 0.23408 0.0
O59 O 0.81383 0.09002 0.29654 0.0
Cd60 Cd 0.822 0.07796 0.27163 0.0
C61 C 0.84711 0.09489 0.32287 0.0
O62 O 0.82714 0.08522 0.19893 0.0
O63 O 0.83444 0.075 0.22112 0.0
O64 O 0.80308 0.06186 0.25602 0.0
C65 C 0.8331 0.08052 0.19054 0.0
O66 O 0.84926 0.10216 0.29273 0.0
C67 C 0.80401 0.05479 0.28066 0.0
O68 O 0.83748 0.08557 0.3246 0.0
O69 O 0.81322 0.05864 0.30255 0.0
C70 C 0.88898 0.7134 0.30291 0.0
O71 O 0.88148 0.71462 0.28216 0.0
Cd72 Cd 0.88463 0.73225 0.25047 0.0
O73 O 0.89925 0.72176 0.30655 0.0
Cd74 Cd 0.91087 0.74206 0.28162 0.0
C75 C 0.89462 0.74961 0.34091 0.0
O76 O 0.90219 0.73993 0.2117 0.0
O77 O 0.91274 0.75744 0.23284 0.0
O78 O 0.92633 0.73838 0.26306 0.0
C79 C 0.90651 0.75055 0.20351 0.0
O80 O 0.88693 0.74457 0.31203 0.0
C81 C 0.93402 0.74688 0.28403 0.0
O82 O 0.90405 0.74946 0.33944 0.0
O83 O 0.93085 0.75298 0.30494 0.0
C84 C 0.81524 0.71299 0.80578 0.0
O85 O 0.82397 0.71388 0.78615 0.0
Cd86 Cd 0.83888 0.73132 0.75491 0.0
O87 O 0.81364 0.72159 0.80847 0.0
Cd88 Cd 0.82304 0.74183 0.78306 0.0
C89 C 0.84643 0.74914 0.84398 0.0
O90 O 0.82987 0.7396 0.71362 0.0
O91 O 0.83731 0.75707 0.73638 0.0
O92 O 0.80479 0.73933 0.75846 0.0
C93 C 0.83643 0.75024 0.70642 0.0
O94 O 0.84901 0.74386 0.81581 0.0
C95 C 0.80525 0.74748 0.78088 0.0
O96 O 0.83696 0.74918 0.84184 0.0
O97 O 0.81388 0.75281 0.80566 0.0
C98 C 0.27557 0.10027 0.80248 0.0
O99 O 0.27499 0.1072 0.77597 0.0
Cd100 Cd 0.25819 0.10295 0.7353 0.0
O101 O 0.26719 0.09002 0.80664 0.0
Cd102 Cd 0.24804 0.0776 0.77278 0.0
C103 C 0.23837 0.094 0.81811 0.0
O104 O 0.2523 0.08507 0.7001 0.0
O105 O 0.23428 0.07494 0.71502 0.0
O106 O 0.25231 0.06205 0.76499 0.0
C107 C 0.242 0.08041 0.68701 0.0
O108 O 0.24414 0.10142 0.78915 0.0
C109 C 0.24321 0.05453 0.78358 0.0
O110 O 0.2387 0.08468 0.82112 0.0
O111 O 0.23654 0.05788 0.79859 0.0
C112 C 0.88533 0.1683 0.79498 0.0
O113 O 0.87839 0.16057 0.76925 0.0
Cd114 Cd 0.88245 0.14705 0.73409 0.0
O115 O 0.89541 0.16985 0.80087 0.0
Cd116 Cd 0.90782 0.16241 0.7728 0.0
C117 C 0.89077 0.13723 0.82264 0.0
O118 O 0.90064 0.15787 0.69981 0.0
O119 O 0.91088 0.15044 0.7203 0.0
O120 O 0.92315 0.18209 0.76259 0.0
C121 C 0.90531 0.15193 0.69034 0.0
O122 O 0.88353 0.13535 0.79263 0.0
C123 C 0.93069 0.18087 0.78299 0.0
O124 O 0.90021 0.14675 0.82471 0.0
O125 O 0.92746 0.17109 0.79995 0.0
C126 C 0.71247 0.8202 0.70995 0.0
O127 O 0.71425 0.82861 0.73399 0.0
Cd128 Cd 0.73323 0.84311 0.75629 0.0
O129 O 0.72074 0.8186 0.69927 0.0
Cd130 Cd 0.74151 0.82702 0.71366 0.0
C131 C 0.7467 0.85032 0.65697 0.0
O132 O 0.7431 0.83412 0.7866 0.0
O133 O 0.75887 0.84173 0.74982 0.0
O134 O 0.73896 0.80845 0.73359 0.0
C135 C 0.75391 0.84077 0.78568 0.0
O136 O 0.7433 0.8533 0.69047 0.0
C137 C 0.74588 0.80843 0.70568 0.0
O138 O 0.74611 0.84054 0.65476 0.0
O139 O 0.75059 0.81702 0.68027 0.0
C140 C 0.16672 0.89025 0.69548 0.0
O141 O 0.1589 0.88322 0.72067 0.0
Cd142 Cd 0.1455 0.88726 0.75652 0.0
O143 O 0.16847 0.90046 0.69064 0.0
Cd144 Cd 0.16134 0.91298 0.72061 0.0
C145 C 0.13632 0.89663 0.66886 0.0
O146 O 0.1566 0.90514 0.79248 0.0
O147 O 0.14937 0.91572 0.7744 0.0
O148 O 0.18113 0.9278 0.73279 0.0
C149 C 0.15076 0.90981 0.80325 0.0
O150 O 0.13426 0.88915 0.69812 0.0
C151 C 0.18028 0.93573 0.71365 0.0
O152 O 0.14589 0.90602 0.66773 0.0
O153 O 0.17063 0.93297 0.69646 0.0
C154 C 0.09423 0.276 0.69474 0.0
O155 O 0.10166 0.27497 0.71676 0.0
Cd156 Cd 0.09851 0.25706 0.74577 0.0
O157 O 0.0842 0.26739 0.68905 0.0
Cd158 Cd 0.07295 0.24691 0.71165 0.0
C159 C 0.0902 0.24098 0.65192 0.0
O160 O 0.08065 0.24833 0.78344 0.0
O161 O 0.07169 0.23121 0.75644 0.0
O162 O 0.05725 0.25016 0.73003 0.0
C163 C 0.07665 0.23762 0.78868 0.0
O164 O 0.09747 0.2457 0.68237 0.0
C165 C 0.04966 0.24166 0.70877 0.0
O166 O 0.08061 0.2408 0.65259 0.0
O167 O 0.05299 0.23571 0.68766 0.0
C168 C 0.8357 0.607 0.53023 0.0
O169 O 0.82676 0.60564 0.54953 0.0
Cd170 Cd 0.81256 0.58801 0.58168 0.0
O171 O 0.8379 0.59877 0.5282 0.0
Cd172 Cd 0.82928 0.57861 0.5547 0.0
C173 C 0.80573 0.57016 0.49335 0.0
O174 O 0.82254 0.58098 0.62406 0.0
O175 O 0.81551 0.56341 0.60331 0.0
O176 O 0.84837 0.58228 0.57469 0.0
C177 C 0.81628 0.57038 0.63255 0.0
O178 O 0.80269 0.5751 0.52134 0.0
C179 C 0.84753 0.57362 0.55473 0.0
O180 O 0.81549 0.57074 0.49579 0.0
O181 O 0.83829 0.56746 0.53385 0.0
C182 C 0.37654 0.22233 0.53627 0.0
O183 O 0.37671 0.21512 0.56245 0.0
Cd184 Cd 0.39305 0.21845 0.60479 0.0
O185 O 0.3852 0.23244 0.53276 0.0
Cd186 Cd 0.40445 0.24416 0.56669 0.0
C187 C 0.41316 0.2266 0.52337 0.0
O188 O 0.39959 0.23653 0.63937 0.0
O189 O 0.41771 0.2471 0.6261 0.0
O190 O 0.40109 0.26036 0.57224 0.0
C191 C 0.40984 0.2414 0.6533 0.0
O192 O 0.407 0.21928 0.55199 0.0
C193 C 0.41043 0.26751 0.5539 0.0
O194 O 0.41339 0.2362 0.52012 0.0
O195 O 0.41675 0.26364 0.5399 0.0
C196 C 0.76573 0.15397 0.53862 0.0
O197 O 0.77287 0.16184 0.5635 0.0
Cd198 Cd 0.76898 0.17491 0.60343 0.0
O199 O 0.75563 0.15246 0.53365 0.0
Cd200 Cd 0.74409 0.16096 0.56045 0.0
C201 C 0.76249 0.18698 0.51823 0.0
O202 O 0.75043 0.16367 0.63476 0.0
O203 O 0.74116 0.17229 0.61628 0.0
O204 O 0.72763 0.14163 0.56342 0.0
C205 C 0.74598 0.16969 0.64591 0.0
O206 O 0.76896 0.18845 0.55055 0.0
C207 C 0.72087 0.1441 0.54344 0.0
O208 O 0.75337 0.17737 0.51176 0.0
O209 O 0.72505 0.15439 0.53009 0.0
C210 C 0.94355 0.50393 0.60499 0.0
O211 O 0.94211 0.49569 0.58056 0.0
Cd212 Cd 0.92379 0.4819 0.55099 0.0
O213 O 0.93517 0.50558 0.6134 0.0
Cd214 Cd 0.91459 0.49727 0.59422 0.0
C215 C 0.90831 0.47268 0.64552 0.0
O216 O 0.91523 0.49216 0.5196 0.0
O217 O 0.89836 0.4844 0.54841 0.0
O218 O 0.91797 0.51672 0.58512 0.0
C219 C 0.90442 0.48602 0.51499 0.0
O220 O 0.9127 0.47044 0.61306 0.0
C221 C 0.90966 0.5153 0.60891 0.0
O222 O 0.90847 0.48225 0.64835 0.0
O223 O 0.90381 0.50553 0.62688 0.0
C224 C 0.48452 0.43331 0.64286 0.0
O225 O 0.49208 0.44082 0.61807 0.0
Cd226 Cd 0.50496 0.43778 0.5739 0.0
O227 O 0.48286 0.42307 0.64389 0.0
Cd228 Cd 0.49026 0.41166 0.60615 0.0
C229 C 0.51638 0.42795 0.65168 0.0
O230 O 0.49323 0.4204 0.5354 0.0
O231 O 0.50068 0.40955 0.54475 0.0
O232 O 0.47065 0.39581 0.59792 0.0
C233 C 0.49857 0.4157 0.51943 0.0
O234 O 0.51774 0.43575 0.62488 0.0
C235 C 0.47262 0.38825 0.61408 0.0
O236 O 0.50692 0.41845 0.65342 0.0
O237 O 0.48274 0.3917 0.62808 0.0
C238 C 0.55639 0.04902 0.62951 0.0
O239 O 0.54831 0.04964 0.6106 0.0
Cd240 Cd 0.5499 0.06684 0.58068 0.0
O241 O 0.56642 0.05782 0.63192 0.0
Cd242 Cd 0.57649 0.07814 0.60645 0.0
C243 C 0.56011 0.08442 0.67035 0.0
O244 O 0.56685 0.07553 0.53805 0.0
O245 O 0.5766 0.09308 0.55993 0.0
O246 O 0.59255 0.07587 0.58324 0.0
C247 C 0.57044 0.08609 0.53074 0.0
O248 O 0.55218 0.07906 0.64258 0.0
C249 C 0.60013 0.08462 0.60342 0.0
O250 O 0.56977 0.08482 0.66697 0.0
O251 O 0.59664 0.09019 0.62607 0.0
C252 C 0.47905 0.04705 0.13049 0.0
O253 O 0.48792 0.04798 0.11186 0.0
Cd254 Cd 0.50301 0.06543 0.0815 0.0
O255 O 0.47739 0.05562 0.13249 0.0
Cd256 Cd 0.48686 0.07588 0.10691 0.0
C257 C 0.50982 0.08316 0.17051 0.0
O258 O 0.49415 0.07355 0.03867 0.0
O259 O 0.50119 0.09108 0.06003 0.0
O260 O 0.46832 0.07302 0.08344 0.0
C261 C 0.50071 0.08416 0.0311 0.0
O262 O 0.51267 0.07795 0.14297 0.0
C263 C 0.46902 0.08148 0.10454 0.0
O264 O 0.50034 0.08313 0.16707 0.0
O265 O 0.47795 0.08718 0.1276 0.0
C266 C 0.94011 0.43164 0.13181 0.0
O267 O 0.94009 0.43871 0.10452 0.0
Cd268 Cd 0.92335 0.43552 0.06571 0.0
O269 O 0.93122 0.42176 0.137 0.0
Cd270 Cd 0.91174 0.40994 0.10477 0.0
C271 C 0.90442 0.42798 0.15175 0.0
O272 O 0.91572 0.41724 0.03193 0.0
O273 O 0.89777 0.4078 0.04884 0.0
O274 O 0.91558 0.39419 0.09616 0.0
C275 C 0.90535 0.41309 0.02016 0.0
O276 O 0.91049 0.43512 0.12245 0.0
C277 C 0.90646 0.38673 0.11478 0.0
O278 O 0.90364 0.41812 0.15432 0.0
O279 O 0.89991 0.39018 0.13023 0.0
C280 C 0.5534 0.50429 0.08671 0.0
O281 O 0.54651 0.49596 0.06292 0.0
Cd282 Cd 0.55028 0.48118 0.03731 0.0
O283 O 0.56308 0.5054 0.09745 0.0
Cd284 Cd 0.57439 0.49568 0.08558 0.0
C285 C 0.55419 0.47169 0.13547 0.0
O286 O 0.56955 0.4902 0.01085 0.0
O287 O 0.57751 0.48185 0.04441 0.0
O288 O 0.5915 0.51414 0.07423 0.0
C289 C 0.57368 0.4835 0.00929 0.0
O290 O 0.54836 0.46948 0.10076 0.0
C291 C 0.59741 0.51291 0.10355 0.0
O292 O 0.56364 0.48111 0.14004 0.0
O293 O 0.59249 0.50367 0.12549 0.0
C294 C 0.37699 0.15423 0.06546 0.0
O295 O 0.3779 0.16166 0.09301 0.0
Cd296 Cd 0.396 0.17536 0.12486 0.0
O297 O 0.38567 0.15321 0.05569 0.0
Cd298 Cd 0.40607 0.16122 0.07602 0.0
C299 C 0.4117 0.1864 0.03144 0.0
O300 O 0.40476 0.16485 0.15161 0.0
O301 O 0.42192 0.17314 0.12548 0.0
O302 O 0.40221 0.14154 0.07905 0.0
C303 C 0.41548 0.17102 0.15815 0.0
O304 O 0.4073 0.18802 0.06534 0.0
C305 C 0.41076 0.14326 0.05611 0.0
O306 O 0.41169 0.17698 0.02547 0.0
O307 O 0.41706 0.15338 0.04142 0.0
C308 C 0.83547 0.22132 0.05174 0.0
O309 O 0.82786 0.21463 0.07835 0.0
Cd310 Cd 0.81449 0.21898 0.11282 0.0
O311 O 0.83697 0.23134 0.04427 0.0
Cd312 Cd 0.82948 0.24391 0.07027 0.0
C313 C 0.80409 0.22605 0.02286 0.0
O314 O 0.82575 0.23753 0.14446 0.0
O315 O 0.81839 0.24785 0.12401 0.0
O316 O 0.84917 0.25951 0.07714 0.0
C317 C 0.82025 0.24263 0.15431 0.0
O318 O 0.8024 0.21915 0.05394 0.0
C319 C 0.84765 0.26678 0.05608 0.0
O320 O 0.8135 0.23555 0.01973 0.0
O321 O 0.83772 0.26324 0.04003 0.0
C322 C 0.76292 0.60869 0.03979 0.0
O323 O 0.7708 0.60774 0.05879 0.0
Cd324 Cd 0.7687 0.59018 0.08713 0.0
O325 O 0.7528 0.60005 0.03651 0.0
Cd326 Cd 0.74227 0.57957 0.05994 0.0
C327 C 0.75856 0.5732 -0.00412 0.0
O328 O 0.75154 0.5812 0.12848 0.0
O329 O 0.74171 0.56396 0.10344 0.0
O330 O 0.7262 0.58124 0.08716 0.0
C331 C 0.74775 0.57053 0.13385 0.0
O332 O 0.76643 0.57836 0.02403 0.0
C333 C 0.71871 0.57334 0.06341 0.0
O334 O 0.74894 0.57289 -0.00081 0.0
O335 O 0.72226 0.56858 0.03682 0.0
C336 C 0.50246 0.9448 0.85595 0.0
O337 O 0.4932 0.94396 0.87026 0.0
Cd338 Cd 0.47686 0.92658 0.89504 0.0
O339 O 0.50387 0.93606 0.85553 0.0
Cd340 Cd 0.49294 0.91556 0.87823 0.0
C341 C 0.47191 0.90919 0.80607 0.0
O342 O 0.48362 0.9173 0.94231 0.0
O343 O 0.47675 0.90007 0.91744 0.0
O344 O 0.50932 0.91602 0.91387 0.0
C345 C 0.47656 0.90663 0.94651 0.0
O346 O 0.46867 0.91455 0.83127 0.0
C347 C 0.50946 0.90843 0.8898 0.0
O348 O 0.48105 0.90881 0.81369 0.0
O349 O 0.5021 0.9044 0.85951 0.0
C350 C 0.04739 0.55473 0.85128 0.0
O351 O 0.04828 0.54749 0.87517 0.0
Cd352 Cd 0.0646 0.55174 0.91948 0.0
O353 O 0.0555 0.56517 0.84965 0.0
Cd354 Cd 0.07477 0.5771 0.88274 0.0
C355 C 0.08486 0.56073 0.83959 0.0
O356 O 0.06972 0.56941 0.95497 0.0
O357 O 0.0879 0.57961 0.9427 0.0
O358 O 0.07072 0.59284 0.88823 0.0
C359 C 0.07988 0.57419 0.96968 0.0
O360 O 0.07967 0.55365 0.87011 0.0
C361 C 0.08016 0.60033 0.87156 0.0
O362 O 0.08372 0.56954 0.83408 0.0
O363 O 0.08692 0.59688 0.85849 0.0
C364 C 0.43139 0.48291 0.89319 0.0
O365 O 0.43796 0.49085 0.91903 0.0
Cd366 Cd 0.4347 0.50619 0.94085 0.0
O367 O 0.42203 0.48218 0.8802 0.0
Cd368 Cd 0.4105 0.49176 0.89237 0.0
C369 C 0.4309 0.51524 0.84093 0.0
O370 O 0.4154 0.49763 0.96671 0.0
O371 O 0.40749 0.50586 0.93205 0.0
O372 O 0.39315 0.47346 0.90397 0.0
C373 C 0.4114 0.50445 0.96738 0.0
O374 O 0.43707 0.51725 0.87467 0.0
C375 C 0.38746 0.47471 0.87375 0.0
O376 O 0.42105 0.50623 0.83809 0.0
O377 O 0.39262 0.48387 0.85142 0.0
C378 C 0.6052 0.83977 0.94381 0.0
O379 O 0.60476 0.83171 0.92078 0.0
Cd380 Cd 0.58732 0.81584 0.89379 0.0
O381 O 0.59607 0.84006 0.95263 0.0
Cd382 Cd 0.57519 0.82907 0.9361 0.0
C383 C 0.57242 0.80584 0.98944 0.0
O384 O 0.57666 0.82393 0.86294 0.0
O385 O 0.55956 0.81502 0.88947 0.0
O386 O 0.57576 0.8471 0.92269 0.0
C387 C 0.56608 0.81683 0.85727 0.0
O388 O 0.57756 0.80438 0.95755 0.0
C389 C 0.56791 0.84543 0.94943 0.0
O390 O 0.57091 0.8145 0.99107 0.0
O391 O 0.56349 0.83611 0.97091 0.0
C392 C 0.14736 0.76606 0.94856 0.0
O393 O 0.15483 0.77314 0.92241 0.0
Cd394 Cd 0.16841 0.76972 0.88478 0.0
O395 O 0.1461 0.75606 0.95398 0.0
Cd396 Cd 0.15412 0.74433 0.92344 0.0
C397 C 0.17948 0.76209 0.97117 0.0
O398 O 0.15765 0.75153 0.85025 0.0
O399 O 0.16607 0.74205 0.86845 0.0
O400 O 0.13483 0.72806 0.9144 0.0
C401 C 0.16378 0.74721 0.83914 0.0
O402 O 0.18092 0.76924 0.94133 0.0
C403 C 0.13684 0.72091 0.93398 0.0
O404 O 0.17017 0.75247 0.97379 0.0
O405 O 0.14679 0.72481 0.95029 0.0
C406 C 0.22312 0.38024 0.94286 0.0
O407 O 0.2148 0.38098 0.92666 0.0
Cd408 Cd 0.21595 0.39849 0.90238 0.0
O409 O 0.23312 0.3891 0.94516 0.0
Cd410 Cd 0.24279 0.40971 0.92377 0.0
C411 C 0.22699 0.41498 0.99443 0.0
O412 O 0.23247 0.40832 0.85803 0.0
O413 O 0.24231 0.4254 0.88457 0.0
O414 O 0.2587 0.40865 0.89138 0.0
C415 C 0.23592 0.41898 0.85451 0.0
O416 O 0.21879 0.40979 0.96752 0.0
C417 C 0.26639 0.41648 0.91478 0.0
O418 O 0.2367 0.41565 0.98825 0.0
O419 O 0.26304 0.42097 0.94331 0.0
C420 C 0.14853 0.38115 0.46204 0.0
O421 O 0.15783 0.38247 0.44613 0.0
Cd422 Cd 0.17272 0.39984 0.41486 0.0
O423 O 0.14628 0.38935 0.46101 0.0
Cd424 Cd 0.15565 0.40944 0.43293 0.0
C425 C 0.17815 0.41832 0.5003 0.0
O426 O 0.16383 0.40692 0.36723 0.0
O427 O 0.17066 0.42452 0.38768 0.0
O428 O 0.13791 0.40699 0.40178 0.0
C429 C 0.17036 0.41753 0.35942 0.0
O430 O 0.1816 0.41318 0.47488 0.0
C431 C 0.13793 0.41503 0.42356 0.0
O432 O 0.16845 0.4177 0.49461 0.0
O433 O 0.14602 0.42021 0.45069 0.0
C434 C 0.60666 0.76512 0.47384 0.0
O435 O 0.60587 0.77215 0.44853 0.0
Cd436 Cd 0.58872 0.76827 0.4113 0.0
O437 O 0.59825 0.7549 0.47856 0.0
Cd438 Cd 0.57869 0.7428 0.44687 0.0
C439 C 0.56973 0.7592 0.49689 0.0
O440 O 0.5824 0.75055 0.37451 0.0
O441 O 0.5645 0.74061 0.39145 0.0
O442 O 0.58264 0.72712 0.43591 0.0
C443 C 0.572 0.74607 0.36274 0.0
O444 O 0.57525 0.76667 0.4678 0.0
C445 C 0.57351 0.71954 0.4542 0.0
O446 O 0.56998 0.74982 0.4985 0.0
O447 O 0.56704 0.72292 0.47077 0.0
C448 C 0.21692 0.83837 0.43483 0.0
O449 O 0.21011 0.83082 0.40826 0.0
Cd450 Cd 0.21389 0.81687 0.37483 0.0
O451 O 0.22673 0.83945 0.44295 0.0
Cd452 Cd 0.23877 0.83118 0.41953 0.0
C453 C 0.21989 0.8058 0.46534 0.0
O454 O 0.23278 0.82715 0.34517 0.0
O455 O 0.24225 0.81915 0.3686 0.0
O456 O 0.25557 0.85011 0.41109 0.0
C457 C 0.23727 0.82096 0.33725 0.0
O458 O 0.21315 0.80436 0.43395 0.0
C459 C 0.2617 0.84846 0.43826 0.0
O460 O 0.22953 0.81504 0.46892 0.0
O461 O 0.25705 0.83879 0.45742 0.0
C462 C 0.04145 0.48368 0.39249 0.0
O463 O 0.04248 0.49141 0.41882 0.0
Cd464 Cd 0.06066 0.50565 0.44816 0.0
O465 O 0.05013 0.48268 0.38241 0.0
Cd466 Cd 0.07077 0.49137 0.40085 0.0
C467 C 0.07612 0.51641 0.35444 0.0
O468 O 0.0697 0.49548 0.47603 0.0
O469 O 0.08686 0.50316 0.44988 0.0
O470 O 0.06868 0.47237 0.40754 0.0
C471 C 0.08045 0.5014 0.4824 0.0
O472 O 0.07126 0.51797 0.38701 0.0
C473 C 0.07617 0.47399 0.37921 0.0
O474 O 0.07667 0.50723 0.35066 0.0
O475 O 0.08104 0.48369 0.36021 0.0
C476 C 0.50096 0.55524 0.33165 0.0
O477 O 0.49286 0.54759 0.3543 0.0
Cd478 Cd 0.48001 0.55068 0.39827 0.0
O479 O 0.50302 0.56563 0.33204 0.0
Cd480 Cd 0.4953 0.57689 0.36881 0.0
C481 C 0.46947 0.56132 0.32043 0.0
O482 O 0.49177 0.56769 0.43872 0.0
O483 O 0.48412 0.57834 0.42911 0.0
O484 O 0.51487 0.59255 0.37997 0.0
C485 C 0.48621 0.57218 0.45446 0.0
O486 O 0.46772 0.55339 0.34721 0.0
C487 C 0.5131 0.60031 0.36461 0.0
O488 O 0.47911 0.57064 0.31926 0.0
O489 O 0.50312 0.59708 0.34959 0.0
C490 C 0.42635 0.94145 0.35429 0.0
O491 O 0.43437 0.9401 0.36989 0.0
Cd492 Cd 0.43199 0.92227 0.39623 0.0
O493 O 0.41604 0.93308 0.3534 0.0
Cd494 Cd 0.40546 0.91263 0.37721 0.0
C495 C 0.41961 0.90512 0.30692 0.0
O496 O 0.4158 0.9142 0.44288 0.0
O497 O 0.40543 0.89692 0.41884 0.0
O498 O 0.39012 0.91474 0.4096 0.0
C499 C 0.4119 0.90352 0.44838 0.0
O500 O 0.42805 0.91001 0.33301 0.0
C501 C 0.38216 0.90694 0.38696 0.0
O502 O 0.41039 0.90543 0.31336 0.0
O503 O 0.38512 0.90201 0.35881 0.0
H504 H 0.21973 0.177 0.30449 0.0
H505 H 0.21153 0.18959 0.29549 0.0
H506 H 0.24267 0.21496 0.23293 0.0
H507 H 0.25085 0.20231 0.24091 0.0
H508 H 0.2181 0.21201 0.31954 0.0
H509 H 0.21802 0.20744 0.14113 0.0
H510 H 0.22081 0.19858 0.17747 0.0
H511 H 0.23189 0.21309 0.16613 0.0
C512 C 0.2249 0.18533 0.28939 0.0
C513 C 0.23586 0.1886 0.27284 0.0
C514 C 0.2202 0.19251 0.28427 0.0
C515 C 0.22641 0.20307 0.26266 0.0
C516 C 0.23766 0.20671 0.24877 0.0
H517 H 0.20072 0.25157 0.24388 0.0
H518 H 0.21309 0.24325 0.25658 0.0
C519 C 0.24233 0.1995 0.25358 0.0
C520 C 0.22079 0.20989 0.25247 0.0
H521 H 0.21132 0.21947 0.16842 0.0
C522 C 0.21667 0.21372 0.28655 0.0
C523 C 0.21881 0.21192 0.20931 0.0
C524 C 0.22251 0.20747 0.17134 0.0
C525 C 0.21051 0.21947 0.27864 0.0
C526 C 0.20865 0.22162 0.23548 0.0
C527 C 0.21287 0.21789 0.20143 0.0
C528 C 0.20172 0.22709 0.22493 0.0
C529 C 0.20568 0.22279 0.31647 0.0
C530 C 0.1915 0.22094 0.2012 0.0
C531 C 0.18449 0.22572 0.19341 0.0
C532 C 0.18759 0.23671 0.20929 0.0
C533 C 0.19807 0.24304 0.23154 0.0
C534 C 0.2051 0.23828 0.2391 0.0
H535 H 0.20555 0.21816 0.34642 0.0
H536 H 0.21111 0.23217 0.32258 0.0
H537 H 0.19679 0.22095 0.30962 0.0
H538 H 0.18879 0.21231 0.18976 0.0
H539 H 0.17649 0.22065 0.17612 0.0
H540 H 0.8023 0.03801 0.33551 0.0
H541 H 0.78987 0.01718 0.3269 0.0
H542 H 0.77422 0.02287 0.21484 0.0
H543 H 0.78626 0.04364 0.22419 0.0
H544 H 0.75865 0.00474 0.26141 0.0
H545 H 0.79776 0.00133 0.2332 0.0
H546 H 0.79743 0.00704 0.28524 0.0
H547 H 0.79825 0.01499 0.23726 0.0
C548 C 0.79606 0.03481 0.30954 0.0
C549 C 0.79536 0.04243 0.28013 0.0
C550 C 0.78902 0.02292 0.3045 0.0
C551 C 0.78138 0.0185 0.26949 0.0
C552 C 0.78013 0.02611 0.24188 0.0
H553 H 0.75983 0.95267 0.14986 0.0
H554 H 0.76761 0.97314 0.16545 0.0
C555 C 0.78703 0.03798 0.24725 0.0
C556 C 0.77532 0.00605 0.25942 0.0
H557 H 0.78 0.98396 0.2338 0.0
C558 C 0.76329 0.00017 0.2554 0.0
C559 C 0.78145 0.0002 0.25066 0.0
C560 C 0.79443 0.00622 0.25136 0.0
C561 C 0.7572 0.98854 0.24299 0.0
C562 C 0.76332 0.98262 0.23554 0.0
C563 C 0.77534 0.98852 0.23962 0.0
C564 C 0.75753 0.97029 0.22347 0.0
C565 C 0.74435 0.98285 0.23685 0.0
C566 C 0.74915 0.96191 0.25051 0.0
C567 C 0.74456 0.95023 0.24126 0.0
C568 C 0.74848 0.94674 0.20535 0.0
C569 C 0.75668 0.95513 0.17778 0.0
C570 C 0.76113 0.9668 0.18669 0.0
H571 H 0.7416 0.9893 0.23055 0.0
H572 H 0.74141 0.97662 0.20966 0.0
H573 H 0.73999 0.97813 0.26673 0.0
H574 H 0.74645 0.96437 0.27964 0.0
H575 H 0.73833 0.94395 0.26332 0.0
H576 H 0.94311 0.73518 0.24295 0.0
H577 H 0.96349 0.74157 0.23172 0.0
H578 H 0.9728 0.7722 0.30627 0.0
H579 H 0.95251 0.76579 0.31838 0.0
H580 H 0.97841 0.76087 0.18911 0.0
H581 H -0.00547 0.7623 0.35444 0.0
H582 H 0.97938 0.75468 0.3415 0.0
H583 H 0.98678 0.76998 0.35111 0.0
C584 C 0.94951 0.74317 0.25767 0.0
C585 C 0.94623 0.75 0.28151 0.0
C586 C 0.96113 0.7468 0.25118 0.0
C587 C 0.96965 0.75728 0.26859 0.0
C588 C 0.96638 0.76395 0.29343 0.0
H589 H 0.03477 0.80847 0.18268 0.0
H590 H 0.01444 0.79424 0.19119 0.0
C591 C 0.95477 0.76031 0.30008 0.0
C592 C 0.98188 0.76186 0.25743 0.0
H593 H 0.0087 0.7745 0.30171 0.0
C594 C 0.98503 0.76365 0.21368 0.0
C595 C 0.9905 0.76529 0.28942 0.0
C596 C 0.98761 0.76284 0.33671 0.0
C597 C -0.00338 0.76945 0.20122 0.0
C598 C 0.00524 0.77376 0.23343 0.0
C599 C 0.00208 0.77131 0.27702 0.0
C600 C 0.0175 0.78163 0.22319 0.0
C601 C -0.0005 0.77106 0.15375 0.0
C602 C 0.02597 0.77928 0.23845 0.0
C603 C 0.03761 0.78747 0.23414 0.0
C604 C 0.04095 0.79815 0.21458 0.0
C605 C 0.03246 0.80029 0.19769 0.0
C606 C 0.02083 0.79213 0.20226 0.0
H607 H -0.00741 0.76406 0.1343 0.0
H608 H 0.0003 0.77933 0.1429 0.0
H609 H 0.00775 0.77128 0.14708 0.0
H610 H 0.02357 0.77125 0.25488 0.0
H611 H 0.04396 0.78557 0.2474 0.0
H612 H 0.78818 0.73999 0.72066 0.0
H613 H 0.776 0.7483 0.7042 0.0
H614 H 0.79061 0.77157 0.812 0.0
H615 H 0.80307 0.76353 0.82801 0.0
H616 H 0.7598 0.75119 0.74821 0.0
H617 H 0.79817 0.79326 0.70981 0.0
H618 H 0.79895 0.78033 0.71801 0.0
H619 H 0.79847 0.78842 0.76356 0.0
C620 C 0.78871 0.74678 0.74121 0.0
C621 C 0.7967 0.75124 0.77524 0.0
C622 C 0.78173 0.75151 0.73175 0.0
C623 C 0.78263 0.76071 0.75626 0.0
C624 C 0.79003 0.76465 0.79205 0.0
H625 H 0.74026 0.79162 0.76569 0.0
H626 H 0.74803 0.77868 0.77223 0.0
C627 C 0.79709 0.76001 0.8013 0.0
C628 C 0.77631 0.76663 0.74292 0.0
H629 H 0.78032 0.79294 0.71425 0.0
C630 C 0.76426 0.7603 0.7405 0.0
C631 C 0.78219 0.77843 0.73169 0.0
C632 C 0.79516 0.78549 0.73042 0.0
C633 C 0.75789 0.7656 0.72868 0.0
C634 C 0.76375 0.77757 0.72005 0.0
C635 C 0.77582 0.78378 0.72108 0.0
C636 C 0.75766 0.78408 0.71246 0.0
C637 C 0.74498 0.75832 0.72533 0.0
C638 C 0.7605 0.79145 0.67669 0.0
C639 C 0.75625 0.79905 0.67332 0.0
C640 C 0.74905 0.79936 0.7056 0.0
C641 C 0.74574 0.79155 0.74017 0.0
C642 C 0.7501 0.78406 0.74379 0.0
H643 H 0.74232 0.74922 0.71768 0.0
H644 H 0.74108 0.7584 0.75682 0.0
H645 H 0.74148 0.76164 0.70018 0.0
H646 H 0.76636 0.79163 0.65223 0.0
H647 H 0.75891 0.80495 0.64625 0.0
H648 H 0.22368 0.03647 0.81651 0.0
H649 H 0.21697 0.01602 0.80671 0.0
H650 H 0.24856 0.02431 0.74118 0.0
H651 H 0.25529 0.04485 0.75028 0.0
H652 H 0.22959 0.01003 0.69418 0.0
H653 H 0.22489 0.9932 0.86027 0.0
H654 H 0.21797 0.00164 0.85408 0.0
H655 H 0.23334 0.00837 0.84792 0.0
C656 C 0.22932 0.03395 0.80085 0.0
C657 C 0.23999 0.04226 0.78396 0.0
C658 C 0.2255 0.02225 0.79553 0.0
C659 C 0.23233 0.01865 0.77362 0.0
C660 C 0.2432 0.02692 0.75837 0.0
H661 H 0.20166 0.94393 0.74864 0.0
H662 H 0.21643 0.9641 0.75873 0.0
C663 C 0.24703 0.03864 0.76364 0.0
C664 C 0.22749 0.00636 0.76241 0.0
H665 H 0.21317 0.97939 0.80559 0.0
C666 C 0.2262 0.00332 0.71854 0.0
C667 C 0.22324 -0.00237 0.79418 0.0
C668 C 0.22504 0.00038 0.84174 0.0
C669 C 0.2201 0.99176 0.70559 0.0
C670 C 0.21501 0.98308 0.73736 0.0
C671 C 0.21695 0.98608 0.78122 0.0
C672 C 0.20686 0.97095 0.72609 0.0
C673 C 0.21896 0.98898 0.65802 0.0
C674 C 0.19666 0.96814 0.70386 0.0
C675 C 0.18822 0.95665 0.69794 0.0
C676 C 0.1898 0.94777 0.71458 0.0
C677 C 0.20019 0.95059 0.73547 0.0
C678 C 0.20864 0.9621 0.7413 0.0
H679 H 0.22627 -0.00419 0.63949 0.0
H680 H 0.21854 0.98061 0.65187 0.0
H681 H 0.21093 0.98845 0.64565 0.0
H682 H 0.195 0.97484 0.69271 0.0
H683 H 0.18029 0.95474 0.6819 0.0
H684 H 0.03125 0.22247 0.6753 0.0
H685 H 0.01092 0.21581 0.68808 0.0
H686 H 0.02 0.24662 0.7611 0.0
H687 H 0.0404 0.25326 0.74919 0.0
H688 H 0.00552 0.22733 0.80502 0.0
H689 H 0.98862 0.2251 0.64036 0.0
H690 H -0.0034 0.21764 0.64386 0.0
H691 H 0.00382 0.23298 0.65251 0.0
C692 C 0.02892 0.22794 0.69337 0.0
C693 C 0.03741 0.23837 0.71137 0.0
C694 C 0.01729 0.22415 0.70043 0.0
C695 C 0.01396 0.23079 0.7251 0.0
C696 C 0.02241 0.2414 0.74181 0.0
H697 H 0.93979 0.2027 0.75117 0.0
H698 H 0.96017 0.21692 0.74245 0.0
C699 C 0.03404 0.24518 0.73494 0.0
C700 C 0.00174 0.22609 0.73691 0.0
H701 H 0.97473 0.21325 0.69427 0.0
C702 C -0.00122 0.22444 0.78085 0.0
C703 C -0.00701 0.22251 0.70541 0.0
C704 C -0.00432 0.22476 0.65793 0.0
C705 C 0.98725 0.21867 0.79402 0.0
C706 C 0.9785 0.21426 0.76235 0.0
C707 C 0.98146 0.21652 0.71854 0.0
C708 C 0.96628 0.20649 0.77343 0.0
C709 C 0.98457 0.2172 0.84167 0.0
C710 C 0.96298 0.19601 0.79444 0.0
C711 C 0.95137 0.1879 0.79968 0.0
C712 C 0.94285 0.19008 0.78346 0.0
C713 C 0.94616 0.20077 0.76395 0.0
C714 C 0.95779 0.2089 0.75891 0.0
H715 H 0.9916 0.22421 0.86069 0.0
H716 H 0.9764 0.2171 0.84877 0.0
H717 H 0.98372 0.20892 0.85261 0.0
H718 H 0.96939 0.19385 0.805 0.0
H719 H 0.94908 0.17972 0.81465 0.0
H720 H 0.84677 0.55421 0.52383 0.0
H721 H 0.86073 0.54786 0.53606 0.0
H722 H 0.88271 0.57939 0.60465 0.0
H723 H 0.8686 0.5857 0.59347 0.0
H724 H 0.88346 0.55717 0.51433 0.0
H725 H 0.87781 0.55474 0.69273 0.0
H726 H 0.86828 0.55663 0.65676 0.0
H727 H 0.88227 0.56857 0.66889 0.0
C728 C 0.85461 0.55984 0.54124 0.0
C729 C 0.85654 0.5704 0.55808 0.0
C730 C 0.86258 0.55621 0.54817 0.0
C731 C 0.87264 0.56307 0.57192 0.0
C732 C 0.87487 0.57386 0.58708 0.0
H733 H 0.92167 0.53759 0.58098 0.0
H734 H 0.9147 0.55134 0.5764 0.0
C735 C 0.86684 0.57748 0.58042 0.0
C736 C 0.8805 0.55862 0.58169 0.0
H737 H 0.89029 0.54886 0.66412 0.0
C738 C 0.88509 0.55547 0.54706 0.0
C739 C 0.8825 0.55636 0.62451 0.0
C740 C 0.8774 0.55915 0.66293 0.0
C741 C 0.89124 0.54967 0.55391 0.0
C742 C 0.89311 0.54726 0.59671 0.0
C743 C 0.88891 0.55082 0.63143 0.0
C744 C 0.89821 0.53991 0.60571 0.0
C745 C 0.89507 0.5456 0.51517 0.0
C746 C 0.89152 0.52924 0.62612 0.0
C747 C 0.89554 0.52146 0.62941 0.0
C748 C 0.90629 0.52421 0.61206 0.0
C749 C 0.91328 0.53519 0.59413 0.0
C750 C 0.9093 0.54303 0.59128 0.0
H751 H 0.89085 0.54605 0.48493 0.0
H752 H 0.9045 0.55114 0.51103 0.0
H753 H 0.89314 0.53658 0.51968 0.0
H754 H 0.88296 0.52671 0.63768 0.0
H755 H 0.88998 0.51309 0.64357 0.0
H756 H 0.43072 0.28488 0.52277 0.0
H757 H 0.43837 0.30556 0.53186 0.0
H758 H 0.40664 0.29898 0.59185 0.0
H759 H 0.39895 0.27824 0.58349 0.0
H760 H 0.43082 0.32094 0.50644 0.0
H761 H 0.43124 0.31645 0.68501 0.0
H762 H 0.42903 0.30501 0.64855 0.0
H763 H 0.41754 0.30792 0.65905 0.0
C764 C 0.4253 0.28783 0.53731 0.0
C765 C 0.41429 0.27994 0.55293 0.0
C766 C 0.42968 0.29964 0.54245 0.0
C767 C 0.42314 0.30375 0.56327 0.0
C768 C 0.41188 0.29594 0.57645 0.0
H769 H 0.4506 0.37839 0.58349 0.0
H770 H 0.43706 0.35783 0.57338 0.0
C771 C 0.4075 0.28411 0.57143 0.0
C772 C 0.42847 0.31614 0.57351 0.0
H773 H 0.43853 0.33517 0.65751 0.0
C774 C 0.4324 0.32408 0.53942 0.0
C775 C 0.43061 0.32015 0.61666 0.0
C776 C 0.42698 0.31197 0.65452 0.0
C777 C 0.43866 0.33597 0.5473 0.0
C778 C 0.44087 0.33997 0.59044 0.0
C779 C 0.43671 0.33204 0.62453 0.0
C780 C 0.44837 0.3523 0.60071 0.0
C781 C 0.44331 0.34412 0.50943 0.0
C782 C 0.45896 0.35591 0.62121 0.0
C783 C 0.46666 0.36762 0.62734 0.0
C784 C 0.46388 0.3759 0.61308 0.0
C785 C 0.45301 0.37222 0.59455 0.0
C786 C 0.4453 0.36049 0.58851 0.0
H787 H 0.44273 0.33956 0.47877 0.0
H788 H 0.43827 0.34859 0.50558 0.0
H789 H 0.45244 0.35077 0.51496 0.0
H790 H 0.46145 0.34969 0.63104 0.0
H791 H 0.47495 0.37018 0.64184 0.0
H792 H 0.7039 0.148 0.51439 0.0
H793 H 0.68317 0.13503 0.52022 0.0
H794 H 0.68903 0.10828 0.56974 0.0
H795 H 0.70982 0.12129 0.56498 0.0
H796 H 0.6676 0.11327 0.48864 0.0
H797 H 0.67153 0.11331 0.66749 0.0
H798 H 0.68323 0.1231 0.63332 0.0
H799 H 0.6798 0.10835 0.63826 0.0
C800 C 0.70079 0.1393 0.52589 0.0
C801 C 0.70848 0.13571 0.53988 0.0
C802 C 0.68894 0.1319 0.52916 0.0
C803 C 0.68461 0.12081 0.5463 0.0
C804 C 0.69224 0.11691 0.55736 0.0
H805 H 0.60993 0.07403 0.55929 0.0
H806 H 0.63043 0.08149 0.54583 0.0
C807 C 0.7041 0.12434 0.55441 0.0
C808 C 0.67218 0.11372 0.55549 0.0
H809 H 0.65292 0.10266 0.63837 0.0
C810 C 0.66436 0.11084 0.52128 0.0
C811 C 0.66804 0.11073 0.59827 0.0
C812 C 0.67606 0.1141 0.63656 0.0
C813 C 0.65247 0.10522 0.52877 0.0
C814 C 0.64834 0.10224 0.57155 0.0
C815 C 0.65615 0.1049 0.60563 0.0
C816 C 0.63601 0.09721 0.58207 0.0
C817 C 0.64447 0.10299 0.49113 0.0
C818 C 0.63244 0.10337 0.60837 0.0
C819 C 0.62077 0.09909 0.61652 0.0
C820 C 0.61249 0.08857 0.59844 0.0
C821 C 0.61612 0.08221 0.57339 0.0
C822 C 0.62781 0.08648 0.56544 0.0
H823 H 0.64915 0.10799 0.46206 0.0
H824 H 0.6401 0.0937 0.4827 0.0
H825 H 0.63776 0.10521 0.49957 0.0
H826 H 0.63867 0.11166 0.62167 0.0
H827 H 0.61824 0.10418 0.63599 0.0
H828 H 0.46896 0.09984 0.14224 0.0
H829 H 0.45534 0.10661 0.12992 0.0
H830 H 0.43554 0.07781 0.04511 0.0
H831 H 0.44927 0.07105 0.05671 0.0
H832 H 0.44038 0.09839 0.00911 0.0
H833 H 0.4228 0.09474 0.17335 0.0
H834 H 0.43822 0.10252 0.17351 0.0
H835 H 0.43064 0.0876 0.15769 0.0
C836 C 0.46162 0.09485 0.12146 0.0
C837 C 0.46018 0.08492 0.10044 0.0
C838 C 0.4538 0.09869 0.11466 0.0
C839 C 0.44434 0.09261 0.08711 0.0
C840 C 0.44275 0.08257 0.06671 0.0
H841 H 0.39785 0.12055 0.07743 0.0
H842 H 0.40399 0.10615 0.07761 0.0
C843 C 0.45059 0.07873 0.07342 0.0
C844 C 0.4367 0.09731 0.07724 0.0
H845 H 0.4213 0.10817 0.12548 0.0
C846 C 0.43601 0.10034 0.03439 0.0
C847 C 0.43082 0.09963 0.11009 0.0
C848 C 0.43055 0.09583 0.15615 0.0
C849 C 0.43023 0.10632 0.02398 0.0
C850 C 0.42522 0.10953 0.05746 0.0
C851 C 0.42526 0.10583 0.09984 0.0
C852 C 0.42076 0.11752 0.05029 0.0
C853 C 0.42971 0.1093 0.97738 0.0
C854 C 0.42807 0.12862 0.034 0.0
C855 C 0.42456 0.13683 0.03356 0.0
C856 C 0.41375 0.13414 0.05009 0.0
C857 C 0.40625 0.12289 0.06465 0.0
C858 C 0.40974 0.11465 0.06475 0.0
H859 H 0.43006 0.10294 0.95532 0.0
H860 H 0.42175 0.10964 0.97047 0.0
H861 H 0.43725 0.11786 0.97015 0.0
H862 H 0.43673 0.13112 0.02369 0.0
H863 H 0.43055 0.14545 0.02235 0.0
H864 H 0.84615 0.28456 0.01986 0.0
H865 H 0.8598 0.3051 0.02779 0.0
H866 H 0.88305 0.2973 0.09676 0.0
H867 H 0.86936 0.27671 0.08953 0.0
H868 H 0.87806 0.31186 0.14123 0.0
H869 H 0.89061 0.32748 0.97382 0.0
H870 H 0.87529 0.31913 0.9801 0.0
H871 H 0.88391 0.31241 0.98789 0.0
C872 C 0.85428 0.2872 0.03584 0.0
C873 C 0.85666 0.27903 0.05428 0.0
C874 C 0.8621 0.29895 0.04014 0.0
C875 C 0.87247 0.30271 0.06253 0.0
C876 C 0.87511 0.29456 0.07922 0.0
H877 H 0.91868 0.37708 0.08276 0.0
H878 H 0.91211 0.35656 0.07436 0.0
C879 C 0.86728 0.2828 0.075 0.0
C880 C 0.87987 0.31506 0.07268 0.0
H881 H 0.89317 0.34175 0.0269 0.0
C882 C 0.88155 0.3184 0.11625 0.0
C883 C 0.88453 0.32356 0.04009 0.0
C884 C 0.8836 0.32046 0.99287 0.0
C885 C 0.88722 0.33005 0.12807 0.0
C886 C 0.89114 0.33854 0.09542 0.0
C887 C 0.89004 0.33521 0.0519 0.0
C888 C 0.89569 0.35085 0.1054 0.0
C889 C 0.88881 0.33316 0.17537 0.0
C890 C 0.88868 0.3544 0.12618 0.0
C891 C 0.89241 0.36611 0.13113 0.0
C892 C 0.90317 0.37444 0.11499 0.0
C893 C 0.91034 0.37086 0.09554 0.0
C894 C 0.90661 0.35915 0.09065 0.0
H895 H 0.88877 0.32621 0.19517 0.0
H896 H 0.897 0.34129 0.1812 0.0
H897 H 0.88161 0.33435 0.18651 0.0
H898 H 0.88013 0.34813 0.137 0.0
H899 H 0.88667 0.3686 0.14605 0.0
H900 H 0.6119 0.51357 0.16713 0.0
H901 H 0.63276 0.52631 0.17086 0.0
H902 H 0.63153 0.5437 0.05538 0.0
H903 H 0.61073 0.53133 0.05232 0.0
H904 H 0.64714 0.52671 0.11265 0.0
H905 H 0.65374 0.57071 0.12587 0.0
H906 H 0.63994 0.55805 0.13555 0.0
H907 H 0.64447 0.5632 0.08133 0.0
C908 C 0.61606 0.5203 0.14315 0.0
C909 C 0.6097 0.52143 0.10935 0.0
C910 C 0.62796 0.52757 0.14532 0.0
C911 C 0.63369 0.53605 0.11369 0.0
C912 C 0.62729 0.53744 0.08082 0.0
H913 H 0.70095 0.55809 0.01278 0.0
H914 H 0.68037 0.54972 0.02688 0.0
C915 C 0.61539 0.53027 0.07889 0.0
C916 C 0.64642 0.54243 0.11167 0.0
H917 H 0.66969 0.56918 0.09653 0.0
C918 C 0.65208 0.53601 0.10984 0.0
C919 C 0.65289 0.55458 0.10848 0.0
C920 C 0.64744 0.56203 0.1134 0.0
C921 C 0.66397 0.54135 0.10309 0.0
C922 C 0.6703 0.5534 0.09666 0.0
C923 C 0.66475 0.55991 0.10049 0.0
C924 C 0.68267 0.55935 0.08579 0.0
C925 C 0.66961 0.53401 0.10291 0.0
C926 C 0.69072 0.56798 0.11294 0.0
C927 C 0.70248 0.57291 0.10458 0.0
C928 C 0.70634 0.56924 0.06899 0.0
C929 C 0.69823 0.561 0.0407 0.0
C930 C 0.68649 0.55616 0.04886 0.0
H931 H 0.6644 0.52584 0.12093 0.0
H932 H 0.67041 0.53175 0.06912 0.0
H933 H 0.67834 0.53866 0.11741 0.0
H934 H 0.68793 0.57062 0.14139 0.0
H935 H 0.70853 0.57927 0.1269 0.0
H936 H 0.52263 0.91189 0.96148 0.0
H937 H 0.53389 0.90261 0.97901 0.0
H938 H 0.52526 0.88557 0.85519 0.0
H939 H 0.51372 0.89454 0.83798 0.0
H940 H 0.5211 0.87079 0.92094 0.0
H941 H 0.565 0.90863 0.93709 0.0
H942 H 0.55436 0.90923 0.97043 0.0
H943 H 0.55327 0.90958 0.91266 0.0
C944 C 0.52328 0.9063 0.93774 0.0
C945 C 0.51729 0.90391 0.89838 0.0
C946 C 0.52976 0.90105 0.94774 0.0
C947 C 0.5305 0.89351 0.91822 0.0
C948 C 0.5248 0.89139 0.87839 0.0
H949 H 0.5739 0.86432 0.89963 0.0
H950 H 0.56505 0.8764 0.89871 0.0
C951 C 0.51823 0.89652 0.86857 0.0
C952 C 0.53652 0.88716 0.92973 0.0
H953 H 0.56269 0.89048 0.95652 0.0
C954 C 0.53019 0.87508 0.9288 0.0
C955 C 0.54837 0.89282 0.93993 0.0
C956 C 0.55569 0.90578 0.93976 0.0
C957 C 0.53545 0.86848 0.93673 0.0
C958 C 0.54729 0.87412 0.94717 0.0
C959 C 0.55358 0.8862 0.949 0.0
C960 C 0.55351 0.86766 0.95198 0.0
C961 C 0.52836 0.85555 0.93195 0.0
C962 C 0.55021 0.85898 0.98322 0.0
C963 C 0.55516 0.85193 0.98347 0.0
C964 C 0.56359 0.8536 0.95288 0.0
C965 C 0.56737 0.86277 0.92346 0.0
C966 C 0.56235 0.86971 0.92296 0.0
H967 H 0.52019 0.85287 0.91432 0.0
H968 H 0.53325 0.85212 0.91445 0.0
H969 H 0.52616 0.85154 0.96443 0.0
H970 H 0.54358 0.85744 0.00654 0.0
H971 H 0.55218 0.84502 0.00685 0.0
H972 H 0.10059 0.61842 0.84494 0.0
H973 H 0.10728 0.6389 0.85487 0.0
H974 H 0.07426 0.63064 0.90743 0.0
H975 H 0.06753 0.61009 0.89826 0.0
H976 H 0.09918 0.65351 0.82623 0.0
H977 H 0.09704 0.64868 0.005 0.0
H978 H 0.09592 0.63753 0.96922 0.0
H979 H 0.08386 0.63974 0.97642 0.0
C980 C 0.0947 0.62096 0.85807 0.0
C981 C 0.08359 0.61265 0.87132 0.0
C982 C 0.09853 0.63266 0.8637 0.0
C983 C 0.09133 0.63623 0.88265 0.0
C984 C 0.08001 0.62801 0.89355 0.0
H985 H 0.11512 0.71017 0.90013 0.0
H986 H 0.1024 0.68944 0.89018 0.0
C987 C 0.07617 0.61629 0.88806 0.0
C988 C 0.09597 0.64853 0.89305 0.0
H989 H 0.10383 0.66734 0.97754 0.0
C990 C 0.10009 0.65655 0.85924 0.0
C991 C 0.09724 0.65242 0.93625 0.0
C992 C 0.09338 0.64418 0.97393 0.0
C993 C 0.1057 0.66842 0.8675 0.0
C994 C 0.10703 0.67231 0.91072 0.0
C995 C 0.10268 0.66429 0.94448 0.0
C996 C 0.11384 0.68468 0.9216 0.0
C997 C 0.11063 0.6767 0.83006 0.0
C998 C 0.12418 0.68877 0.94451 0.0
C999 C 0.13141 0.70057 0.95059 0.0
C1000 C 0.1284 0.70847 0.93382 0.0
C1001 C 0.11771 0.7043 0.91312 0.0
C1002 C 0.11047 0.69248 0.90718 0.0
H1003 H 0.11085 0.67231 0.7999 0.0
H1004 H 0.10524 0.68071 0.8241 0.0
H1005 H 0.11951 0.68368 0.83745 0.0
H1006 H 0.12689 0.68285 0.95609 0.0
H1007 H 0.13957 0.70352 0.9668 0.0
H1008 H 0.28459 0.43191 0.96319 0.0
H1009 H 0.30503 0.44001 0.94717 0.0
H1010 H 0.2965 0.41886 0.83298 0.0
H1011 H 0.27601 0.4105 0.84928 0.0
H1012 H 0.31463 0.41975 0.87796 0.0
H1013 H 0.32125 0.46355 0.85178 0.0
H1014 H 0.31517 0.45786 0.90375 0.0
H1015 H 0.30712 0.45098 0.85563 0.0
C1016 C 0.28706 0.42892 0.93485 0.0
C1017 C 0.27871 0.42065 0.90728 0.0
C1018 C 0.29873 0.4336 0.92559 0.0
C1019 C 0.30223 0.43022 0.88835 0.0
C1020 C 0.29394 0.42164 0.86168 0.0
H1021 H 0.37348 0.47423 0.80854 0.0
H1022 H 0.35259 0.4619 0.80359 0.0
C1023 C 0.28226 0.41689 0.87106 0.0
C1024 C 0.31456 0.4358 0.87703 0.0
H1025 H 0.33822 0.46213 0.86086 0.0
C1026 C 0.31979 0.429 0.87371 0.0
C1027 C 0.32118 0.44782 0.8703 0.0
C1028 C 0.31587 0.45546 0.87006 0.0
C1029 C 0.33164 0.434 0.8661 0.0
C1030 C 0.33841 0.44612 0.86272 0.0
C1031 C 0.33305 0.45284 0.86384 0.0
C1032 C 0.35113 0.45218 0.86144 0.0
C1033 C 0.33678 0.42626 0.86197 0.0
C1034 C 0.35725 0.45066 0.89511 0.0
C1035 C 0.36917 0.45761 0.89779 0.0
C1036 C 0.37516 0.46635 0.86725 0.0
C1037 C 0.36908 0.46759 0.83262 0.0
C1038 C 0.35716 0.46055 0.82973 0.0
H1039 H 0.33034 0.41762 0.8496 0.0
H1040 H 0.34434 0.43002 0.84009 0.0
H1041 H 0.33958 0.42504 0.8943 0.0
H1042 H 0.35277 0.44449 0.92059 0.0
H1043 H 0.3736 0.45649 0.92497 0.0
H1044 H 0.08985 0.47372 0.31435 0.0
H1045 H 0.09789 0.46091 0.30792 0.0
H1046 H 0.07917 0.44251 0.42168 0.0
H1047 H 0.07079 0.45495 0.42723 0.0
H1048 H 0.11182 0.46029 0.3645 0.0
H1049 H 0.07515 0.41612 0.34967 0.0
H1050 H 0.07363 0.42864 0.34136 0.0
H1051 H 0.0731 0.42319 0.39505 0.0
C1052 C 0.08723 0.46675 0.3373 0.0
C1053 C 0.07975 0.46536 0.37143 0.0
C1054 C 0.09181 0.45943 0.33357 0.0
C1055 C 0.08904 0.45066 0.36403 0.0
C1056 C 0.08119 0.44898 0.39706 0.0
H1057 H 0.13441 0.43014 0.47098 0.0
H1058 H 0.12193 0.438 0.45299 0.0
C1059 C 0.07649 0.45619 0.40046 0.0
C1060 C 0.09556 0.44442 0.36529 0.0
H1061 H 0.09263 0.41785 0.38094 0.0
C1062 C 0.10761 0.45099 0.36722 0.0
C1063 C 0.09011 0.43227 0.3683 0.0
C1064 C 0.07729 0.42466 0.36298 0.0
C1065 C 0.11431 0.44581 0.37441 0.0
C1066 C 0.1088 0.43378 0.3812 0.0
C1067 C 0.09681 0.42711 0.37676 0.0
C1068 C 0.11538 0.42811 0.39413 0.0
C1069 C 0.12724 0.45332 0.37507 0.0
C1070 C 0.11532 0.41949 0.36823 0.0
C1071 C 0.12231 0.41486 0.3788 0.0
C1072 C 0.12948 0.41881 0.41538 0.0
C1073 C 0.12908 0.42703 0.44235 0.0
C1074 C 0.12202 0.43157 0.43197 0.0
H1075 H 0.1301 0.46137 0.35629 0.0
H1076 H 0.13017 0.4558 0.40888 0.0
H1077 H 0.13151 0.44871 0.36166 0.0
H1078 H 0.11016 0.41664 0.33911 0.0
H1079 H 0.12242 0.4085 0.35747 0.0
H1080 H 0.535 0.60967 0.3961 0.0
H1081 H 0.54846 0.63004 0.41066 0.0
H1082 H 0.52435 0.63906 0.35646 0.0
H1083 H 0.51094 0.61878 0.34112 0.0
H1084 H 0.54721 0.65415 0.33318 0.0
H1085 H 0.54226 0.64643 0.51046 0.0
H1086 H 0.54707 0.63808 0.48076 0.0
H1087 H 0.53286 0.63582 0.4718 0.0
C1088 C 0.53263 0.61601 0.38671 0.0
C1089 C 0.52186 0.61262 0.36788 0.0
C1090 C 0.5403 0.62762 0.39529 0.0
C1091 C 0.53727 0.63599 0.38545 0.0
C1092 C 0.5268 0.6327 0.36452 0.0
H1093 H 0.55346 0.70132 0.48294 0.0
H1094 H 0.54631 0.68093 0.46837 0.0
C1095 C 0.51915 0.62111 0.35579 0.0
C1096 C 0.54465 0.64811 0.39879 0.0
H1097 H 0.55414 0.66554 0.48752 0.0
C1098 C 0.54886 0.65666 0.36687 0.0
C1099 C 0.54664 0.6513 0.44286 0.0
C1100 C 0.54191 0.64246 0.47857 0.0
C1101 C 0.55476 0.66838 0.37782 0.0
C1102 C 0.55668 0.67157 0.4219 0.0
C1103 C 0.55273 0.66302 0.4538 0.0
C1104 C 0.56174 0.68372 0.43548 0.0
C1105 C 0.55839 0.67722 0.34223 0.0
C1106 C 0.57294 0.69196 0.4233 0.0
C1107 C 0.57704 0.70363 0.43142 0.0
C1108 C 0.57 0.7072 0.4521 0.0
C1109 C 0.55907 0.69884 0.46678 0.0
C1110 C 0.55497 0.6872 0.4585 0.0
H1111 H 0.55426 0.67328 0.3109 0.0
H1112 H 0.5562 0.68396 0.3506 0.0
H1113 H 0.56785 0.68146 0.3379 0.0
H1114 H 0.57837 0.68941 0.40627 0.0
H1115 H 0.58554 0.70988 0.42003 0.0
H1116 H 0.37318 0.91317 0.45395 0.0
H1117 H 0.35282 0.90506 0.47218 0.0
H1118 H 0.3433 0.88433 0.35664 0.0
H1119 H 0.3636 0.89216 0.33872 0.0
H1120 H 0.33421 0.90425 0.43074 0.0
H1121 H 0.32808 0.86048 0.45182 0.0
H1122 H 0.34213 0.87311 0.44701 0.0
H1123 H 0.33369 0.86633 0.39953 0.0
C1124 C 0.36674 0.90695 0.43223 0.0
C1125 C 0.36996 0.90317 0.39518 0.0
C1126 C 0.35513 0.90234 0.44272 0.0
C1127 C 0.34661 0.89391 0.41628 0.0
C1128 C 0.34979 0.89061 0.37803 0.0
H1129 H 0.27495 0.86737 0.38908 0.0
H1130 H 0.29577 0.87967 0.39219 0.0
C1131 C 0.36138 0.89514 0.36771 0.0
C1132 C 0.33439 0.88825 0.42918 0.0
H1133 H 0.31098 0.86178 0.44581 0.0
C1134 C 0.32913 0.89497 0.43456 0.0
C1135 C 0.32789 0.8762 0.43543 0.0
C1136 C 0.33326 0.86862 0.43363 0.0
C1137 C 0.31734 0.88986 0.44369 0.0
C1138 C 0.31065 0.87772 0.44646 0.0
C1139 C 0.31607 0.87109 0.44332 0.0
C1140 C 0.29794 0.87156 0.44912 0.0
C1141 C 0.31218 0.89753 0.45009 0.0
C1142 C 0.29221 0.86286 0.48002 0.0
C1143 C 0.28031 0.85562 0.4777 0.0
C1144 C 0.27395 0.85702 0.44457 0.0
C1145 C 0.27961 0.86612 0.41511 0.0
C1146 C 0.29152 0.87325 0.4171 0.0
H1147 H 0.31867 0.90608 0.46298 0.0
H1148 H 0.30921 0.89897 0.41848 0.0
H1149 H 0.30474 0.89359 0.47252 0.0
H1150 H 0.29701 0.86137 0.50491 0.0
H1151 H 0.27615 0.8487 0.50096 0.0
H1152 H 0.07813 0.21802 0.79547 0.0
H1153 H 0.08614 0.2125 0.85632 0.0
H1154 H 0.09031 0.24189 0.92835 0.0
H1155 H 0.0826 0.2476 0.86763 0.0
H1156 H 0.11039 0.2316 0.89243 0.0
H1157 H 0.07463 0.2112 0.01068 0.0
H1158 H 0.07231 0.21057 0.95294 0.0
H1159 H 0.07591 0.22351 0.98216 0.0
C1160 C 0.08055 0.22316 0.82465 0.0
C1161 C 0.07982 0.23327 0.82692 0.0
C1162 C 0.08511 0.22 0.85922 0.0
C1163 C 0.0887 0.22676 0.89667 0.0
C1164 C 0.08745 0.23652 0.89974 0.0
H1165 H 0.12301 0.24809 0.12511 0.0
H1166 H 0.11001 0.24074 0.06378 0.0
C1167 C 0.0831 0.2398 0.86505 0.0
C1168 C 0.09503 0.22463 0.93092 0.0
H1169 H 0.09373 0.21921 0.03874 0.0
C1170 C 0.10675 0.22858 0.92426 0.0
C1171 C 0.09016 0.2207 0.97204 0.0
C1172 C 0.07753 0.21616 0.98006 0.0
C1173 C 0.11401 0.22974 0.95884 0.0
C1174 C 0.10927 0.22656 0.00082 0.0
C1175 C 0.09734 0.22166 0.00658 0.0
C1176 C 0.11667 0.23003 0.03969 0.0
C1177 C 0.12678 0.23528 0.95072 0.0
C1178 C 0.12465 0.22632 0.04693 0.0
C1179 C 0.13228 0.23068 0.08184 0.0
C1180 C 0.1319 0.23867 0.11033 0.0
C1181 C 0.12358 0.24198 0.1038 0.0
C1182 C 0.11609 0.23774 0.0688 0.0
H1183 H 0.12917 0.23893 0.91765 0.0
H1184 H 0.13167 0.24229 0.97436 0.0
H1185 H 0.12949 0.22873 0.95451 0.0
H1186 H 0.12509 0.22019 0.02531 0.0
H1187 H 0.13851 0.22785 0.08634 0.0
H1188 H 0.76287 0.91155 0.07722 0.0
H1189 H 0.77243 0.90791 0.01663 0.0
H1190 H 0.75515 0.87182 0.04972 0.0
H1191 H 0.74595 0.87539 0.11049 0.0
H1192 H 0.77756 0.87981 0.0261 0.0
H1193 H 0.75511 0.89302 0.90652 0.0
H1194 H 0.76444 0.90354 0.94522 0.0
H1195 H 0.75129 0.89125 0.96291 0.0
C1196 C 0.7612 0.90286 0.0717 0.0
C1197 C 0.75355 0.89373 0.09839 0.0
C1198 C 0.76665 0.9008 0.03705 0.0
C1199 C 0.76438 0.88957 0.02836 0.0
C1200 C 0.75707 0.88057 0.0559 0.0
H1201 H 0.7482 0.83759 0.87037 0.0
H1202 H 0.75577 0.8521 0.92749 0.0
C1203 C 0.75174 0.88262 0.09057 0.0
C1204 C 0.76872 0.88669 0.9891 0.0
H1205 H 0.76281 0.8819 0.88153 0.0
C1206 C 0.77464 0.88057 0.99422 0.0
C1207 C 0.76503 0.88779 0.94743 0.0
C1208 C 0.75857 0.8942 0.93988 0.0
C1209 C 0.77584 0.87448 0.95971 0.0
C1210 C 0.77108 0.87462 0.91929 0.0
C1211 C 0.7664 0.88182 0.91284 0.0
C1212 C 0.76847 0.86559 0.88684 0.0
C1213 C 0.78138 0.86722 0.9674 0.0
C1214 C 0.77326 0.86838 0.84536 0.0
C1215 C 0.76904 0.86003 0.81278 0.0
C1216 C 0.75977 0.84893 0.82117 0.0
C1217 C 0.75533 0.84608 0.86315 0.0
C1218 C 0.7597 0.85433 0.89578 0.0
H1219 H 0.78744 0.87051 -0.00486 0.0
H1220 H 0.7746 0.85827 0.97488 0.0
H1221 H 0.78608 0.867 0.93822 0.0
H1222 H 0.77992 0.87708 0.83785 0.0
H1223 H 0.77255 0.86245 0.78053 0.0
H1224 H 0.11396 0.87007 0.15972 0.0
H1225 H 0.12003 0.88261 0.09693 0.0
H1226 H 0.08631 0.86239 0.04053 0.0
H1227 H 0.08021 0.84953 0.10307 0.0
H1228 H 0.10235 0.86435 0.98709 0.0
H1229 H 0.11552 0.90779 0.04841 0.0
H1230 H 0.12217 0.9015 0.08001 0.0
H1231 H 0.10671 0.89497 0.07975 0.0
C1232 C 0.10774 0.86839 0.13441 0.0
C1233 C 0.09663 0.85872 0.13622 0.0
C1234 C 0.11119 0.87568 0.09868 0.0
C1235 C 0.10357 0.87357 0.06432 0.0
C1236 C 0.0923 0.86423 0.06688 0.0
H1237 H 0.13411 0.91484 0.82804 0.0
H1238 H 0.12106 0.90678 0.89005 0.0
C1239 C 0.08885 0.85687 0.10256 0.0
C1240 C 0.108 0.88001 0.02341 0.0
H1241 H 0.12585 0.907 0.98407 0.0
C1242 C 0.10722 0.87368 0.98618 0.0
C1243 C 0.11422 0.89219 0.02187 0.0
C1244 C 0.11458 0.89948 0.05962 0.0
C1245 C 0.11329 0.87918 0.9487 0.0
C1246 C 0.12048 0.89127 0.94881 0.0
C1247 C 0.1205 0.89769 0.98455 0.0
C1248 C 0.12888 0.8971 0.91389 0.0
C1249 C 0.11239 0.87196 0.9099 0.0
C1250 C 0.13778 0.89461 0.90799 0.0
C1251 C 0.14519 0.89916 0.87293 0.0
C1252 C 0.14386 0.90632 0.84317 0.0
C1253 C 0.1353 0.9093 0.85039 0.0
C1254 C 0.12785 0.90472 0.88566 0.0
H1255 H 0.10426 0.86354 0.91026 0.0
H1256 H 0.11283 0.87652 0.87939 0.0
H1257 H 0.11967 0.87021 0.91026 0.0
H1258 H 0.13879 0.88888 0.93 0.0
H1259 H 0.15176 0.89678 0.86847 0.0
H1260 H 0.22108 0.07658 0.65775 0.0
H1261 H 0.21738 0.0843 0.59166 0.0
H1262 H 0.253 0.09891 0.55513 0.0
H1263 H 0.2568 0.0914 0.62106 0.0
H1264 H 0.24477 0.1147 0.55939 0.0
H1265 H 0.21623 0.07588 0.46153 0.0
H1266 H 0.21232 0.07596 0.51708 0.0
H1267 H 0.22519 0.07558 0.50452 0.0
C1268 C 0.22806 0.08124 0.63519 0.0
C1269 C 0.23926 0.08348 0.64467 0.0
C1270 C 0.22592 0.08561 0.59744 0.0
C1271 C 0.23492 0.09213 0.56862 0.0
C1272 C 0.24596 0.09389 0.57709 0.0
H1273 H 0.24493 0.12051 0.31907 0.0
H1274 H 0.24077 0.10833 0.38263 0.0
C1275 C 0.24811 0.0896 0.61475 0.0
C1276 C 0.23326 0.09812 0.53171 0.0
H1277 H 0.22101 0.09397 0.43197 0.0
C1278 C 0.23949 0.11019 0.53165 0.0
C1279 C 0.22635 0.09215 0.49582 0.0
C1280 C 0.21967 0.07917 0.4943 0.0
C1281 C 0.23936 0.11651 0.49587 0.0
C1282 C 0.23261 0.11056 0.45953 0.0
C1283 C 0.22608 0.09848 0.4601 0.0
C1284 C 0.23329 0.11674 0.41916 0.0
C1285 C 0.24693 0.12945 0.49645 0.0
C1286 C 0.23009 0.12524 0.41819 0.0
C1287 C 0.23258 0.13233 0.38203 0.0
C1288 C 0.23821 0.13094 0.34617 0.0
C1289 C 0.24068 0.12189 0.34626 0.0
C1290 C 0.23826 0.11487 0.38248 0.0
H1291 H 0.25324 0.13243 0.5234 0.0
H1292 H 0.25172 0.13258 0.46561 0.0
H1293 H 0.24149 0.13348 0.50049 0.0
H1294 H 0.22606 0.12667 0.446 0.0
H1295 H 0.23042 0.13912 0.38277 0.0
H1296 H 0.86727 0.11502 0.33438 0.0
H1297 H 0.87984 0.1208 0.39694 0.0
H1298 H 0.85916 0.08707 0.45288 0.0
H1299 H 0.84624 0.08127 0.39057 0.0
H1300 H 0.86114 0.10299 0.50618 0.0
H1301 H 0.90467 0.11619 0.44707 0.0
H1302 H 0.89863 0.12299 0.41495 0.0
H1303 H 0.89199 0.1075 0.41489 0.0
C1304 C 0.8655 0.10872 0.35949 0.0
C1305 C 0.85565 0.09773 0.35773 0.0
C1306 C 0.87282 0.112 0.39509 0.0
C1307 C 0.87057 0.10432 0.42936 0.0
C1308 C 0.8611 0.09311 0.42663 0.0
H1309 H 0.91064 0.13534 0.66765 0.0
H1310 H 0.90307 0.1222 0.6057 0.0
C1311 C 0.8537 0.08983 0.39109 0.0
C1312 C 0.87689 0.1087 0.47051 0.0
H1313 H 0.90371 0.12683 0.51057 0.0
C1314 C 0.87046 0.10791 0.50741 0.0
C1315 C 0.88906 0.11499 0.47251 0.0
C1316 C 0.89646 0.11534 0.43526 0.0
C1317 C 0.87583 0.1141 0.54486 0.0
C1318 C 0.88788 0.1214 0.54506 0.0
C1319 C 0.89443 0.1214 0.5098 0.0
C1320 C 0.89354 0.12994 0.57972 0.0
C1321 C 0.8685 0.11323 0.58322 0.0
C1322 C 0.89098 0.13884 0.5844 0.0
C1323 C 0.89525 0.14631 0.61946 0.0
C1324 C 0.90218 0.14503 0.6504 0.0
C1325 C 0.90526 0.1365 0.64437 0.0
C1326 C 0.90096 0.12899 0.60912 0.0
H1327 H 0.86012 0.10506 0.58277 0.0
H1328 H 0.87299 0.11376 0.61399 0.0
H1329 H 0.86672 0.12049 0.58231 0.0
H1330 H 0.88538 0.13977 0.56151 0.0
H1331 H 0.8928 0.15286 0.62301 0.0
H1332 H 0.8548 0.77177 0.69144 0.0
H1333 H 0.86891 0.77745 0.63274 0.0
H1334 H 0.84981 0.74326 0.57896 0.0
H1335 H 0.83583 0.7375 0.63735 0.0
H1336 H 0.87414 0.75199 0.59528 0.0
H1337 H 0.86522 0.78208 0.50039 0.0
H1338 H 0.86716 0.78393 0.558 0.0
H1339 H 0.85466 0.7716 0.53671 0.0
C1340 C 0.85355 0.76553 0.66674 0.0
C1341 C 0.84426 0.75417 0.66903 0.0
C1342 C 0.86159 0.76879 0.6333 0.0
C1343 C 0.86036 0.76076 0.60172 0.0
C1344 C 0.8509 0.74956 0.60325 0.0
H1345 H 0.87464 0.74952 0.35787 0.0
H1346 H 0.8695 0.75584 0.42346 0.0
C1347 C 0.84292 0.74629 0.63656 0.0
C1348 C 0.86911 0.76358 0.56792 0.0
H1349 H 0.87736 0.77616 0.46891 0.0
C1350 C 0.8751 0.75748 0.56798 0.0
C1351 C 0.87031 0.7708 0.53278 0.0
C1352 C 0.864 0.77749 0.53152 0.0
C1353 C 0.88151 0.75761 0.5321 0.0
C1354 C 0.88212 0.76427 0.49561 0.0
C1355 C 0.87689 0.77111 0.49702 0.0
C1356 C 0.88621 0.76249 0.45352 0.0
C1357 C 0.88671 0.74987 0.53223 0.0
C1358 C 0.89745 0.7645 0.44802 0.0
C1359 C 0.90039 0.7607 0.4106 0.0
C1360 C 0.89215 0.75497 0.37802 0.0
C1361 C 0.88117 0.75377 0.38246 0.0
C1362 C 0.87823 0.75747 0.41987 0.0
H1363 H 0.88396 0.74404 0.56067 0.0
H1364 H 0.88425 0.74451 0.50254 0.0
H1365 H 0.89622 0.75521 0.533 0.0
H1366 H 0.90379 0.76857 0.47332 0.0
H1367 H 0.90898 0.76191 0.40787 0.0
H1368 H 0.84381 0.76072 0.91229 0.0
H1369 H 0.85608 0.76812 0.97636 0.0
H1370 H 0.87893 0.75734 0.92283 0.0
H1371 H 0.867 0.75025 0.85877 0.0
H1372 H 0.85911 0.75484 0.0306 0.0
H1373 H 0.902 0.78749 0.97414 0.0
H1374 H 0.88927 0.78283 0.94141 0.0
H1375 H 0.89695 0.77494 0.9409 0.0
C1376 C 0.85159 0.76017 0.9138 0.0
C1377 C 0.85437 0.7548 0.88059 0.0
C1378 C 0.85862 0.76444 0.95033 0.0
C1379 C 0.86854 0.76347 0.95409 0.0
C1380 C 0.87153 0.75853 0.92018 0.0
H1381 H 0.89238 0.73738 0.13895 0.0
H1382 H 0.88365 0.74323 0.08266 0.0
C1383 C 0.86458 0.75431 0.88372 0.0
C1384 C 0.87476 0.76577 -0.00434 0.0
H1385 H 0.90177 0.77557 0.0358 0.0
C1386 C 0.86843 0.75969 0.03212 0.0
C1387 C 0.88691 0.77227 -0.00185 0.0
C1388 C 0.89413 0.77985 0.96157 0.0
C1389 C 0.87397 0.75894 0.06925 0.0
C1390 C 0.88609 0.7642 0.06947 0.0
C1391 C 0.89245 0.7713 0.03502 0.0
C1392 C 0.89205 0.76111 0.10232 0.0
C1393 C 0.86677 0.75196 0.10703 0.0
C1394 C 0.90006 0.76937 0.1307 0.0
C1395 C 0.90515 0.76605 0.16292 0.0
C1396 C 0.9023 0.75445 0.16684 0.0
C1397 C 0.89467 0.74635 0.13702 0.0
C1398 C 0.88962 0.74966 0.10502 0.0
H1399 H 0.85838 0.75175 0.1079 0.0
H1400 H 0.86497 0.74296 0.10383 0.0
H1401 H 0.87131 0.75549 0.1381 0.0
H1402 H 0.90213 0.77827 0.12865 0.0
H1403 H 0.91104 0.77248 0.18541 0.0
H1404 H 0.22466 0.08025 0.88363 0.0
H1405 H 0.21699 0.08607 0.94415 0.0
H1406 H 0.23063 0.11988 0.88803 0.0
H1407 H 0.23799 0.11408 0.82717 0.0
H1408 H 0.23081 0.10192 -0.00202 0.0
H1409 H 0.20118 0.11577 0.93575 0.0
H1410 H 0.20514 0.10692 0.90429 0.0
H1411 H 0.21412 0.12239 0.90445 0.0
C1412 C 0.22575 0.08883 0.88361 0.0
C1413 C 0.23207 0.09675 0.85085 0.0
C1414 C 0.22132 0.09212 0.91814 0.0
C1415 C 0.22311 0.10337 0.92046 0.0
C1416 C 0.22884 0.11106 0.88649 0.0
H1417 H 0.24928 0.15336 0.10648 0.0
H1418 H 0.243 0.14006 0.04549 0.0
C1419 C 0.23319 0.10776 0.85186 0.0
C1420 C 0.22104 0.10781 0.96127 0.0
H1421 H 0.21261 0.12637 -0.00031 0.0
C1422 C 0.22649 0.10694 -0.00135 0.0
C1423 C 0.21533 0.1143 0.96247 0.0
C1424 C 0.20851 0.11478 0.92461 0.0
C1425 C 0.2273 0.11324 0.03579 0.0
C1426 C 0.22267 0.12067 0.03527 0.0
C1427 C 0.21633 0.12078 -0.0005 0.0
C1428 C 0.22569 0.12936 0.06943 0.0
C1429 C 0.23374 0.11249 0.07449 0.0
C1430 C 0.21787 0.12786 0.1022 0.0
C1431 C 0.22144 0.13547 0.13725 0.0
C1432 C 0.23286 0.14462 0.13976 0.0
C1433 C 0.24045 0.14637 0.10562 0.0
C1434 C 0.23689 0.13879 0.07077 0.0
H1435 H 0.23451 0.1046 0.07359 0.0
H1436 H 0.24254 0.12009 0.07487 0.0
H1437 H 0.22938 0.11253 0.10491 0.0
H1438 H 0.20919 0.12059 0.10148 0.0
H1439 H 0.21539 0.13393 0.16305 0.0
H1440 H 0.84954 0.07486 0.16943 0.0
H1441 H 0.86267 0.08195 0.10735 0.0
H1442 H 0.84549 0.09979 0.06053 0.0
H1443 H 0.83243 0.09285 0.12208 0.0
H1444 H 0.85769 0.08087 0.01109 0.0
H1445 H 0.88055 0.12472 0.08179 0.0
H1446 H 0.8718 0.11197 0.11358 0.0
H1447 H 0.86516 0.11834 0.08194 0.0
C1448 C 0.84848 0.08017 0.14556 0.0
C1449 C 0.84006 0.08343 0.15082 0.0
C1450 C 0.85597 0.08419 0.11023 0.0
C1451 C 0.85511 0.0915 0.07999 0.0
C1452 C 0.84634 0.09426 0.08401 0.0
H1453 H 0.87035 0.11737 0.83404 0.0
H1454 H 0.86428 0.10478 0.89666 0.0
C1455 C 0.83889 0.09027 0.11913 0.0
C1456 C 0.86363 0.09687 0.04516 0.0
H1457 H 0.88252 0.12337 0.00542 0.0
C1458 C 0.86334 0.09013 0.01004 0.0
C1459 C 0.87119 0.10889 0.04456 0.0
C1460 C 0.87231 0.11641 0.08268 0.0
C1461 C 0.86973 0.09529 0.97255 0.0
C1462 C 0.87633 0.10746 0.9702 0.0
C1463 C 0.87738 0.11405 0.00693 0.0
C1464 C 0.88081 0.11365 0.92889 0.0
C1465 C 0.86905 0.08769 0.93544 0.0
C1466 C 0.89215 0.12287 0.92598 0.0
C1467 C 0.89559 0.13027 0.89043 0.0
C1468 C 0.88774 0.12857 0.85721 0.0
C1469 C 0.87661 0.11894 0.85905 0.0
C1470 C 0.87316 0.11162 0.89469 0.0
H1471 H 0.86791 0.07936 0.9474 0.0
H1472 H 0.86146 0.08574 0.9152 0.0
H1473 H 0.87688 0.0919 0.91496 0.0
H1474 H 0.89817 0.12465 0.95217 0.0
H1475 H 0.90426 0.13757 0.88984 0.0
H1476 H 0.73027 0.88872 0.33022 0.0
H1477 H 0.73493 0.88277 0.39797 0.0
H1478 H 0.77094 0.90716 0.37873 0.0
H1479 H 0.76635 0.91306 0.30991 0.0
H1480 H 0.76704 0.88581 0.40554 0.0
H1481 H 0.74378 0.90074 0.51033 0.0
H1482 H 0.73465 0.89166 0.46795 0.0
H1483 H 0.74719 0.90522 0.45476 0.0
C1484 C 0.73918 0.89288 0.34041 0.0
C1485 C 0.74794 0.90142 0.31497 0.0
C1486 C 0.74183 0.88951 0.37926 0.0
C1487 C 0.75324 0.89471 0.39374 0.0
C1488 C 0.76206 0.90313 0.3682 0.0
H1489 H 0.7561 0.87364 0.65726 0.0
H1490 H 0.7612 0.88638 0.5947 0.0
C1491 C 0.75942 0.90649 0.32903 0.0
C1492 C 0.75581 0.89102 0.43518 0.0
H1493 H 0.74674 0.88569 0.53953 0.0
C1494 C 0.76281 0.88597 0.43516 0.0
C1495 C 0.75054 0.89153 0.47397 0.0
C1496 C 0.74373 0.8977 0.4769 0.0
C1497 C 0.76398 0.88065 0.47234 0.0
C1498 C 0.75773 0.88012 0.50991 0.0
C1499 C 0.75142 0.88592 0.51063 0.0
C1500 C 0.7567 0.87284 0.54757 0.0
C1501 C 0.77176 0.87552 0.47066 0.0
C1502 C 0.7527 0.86103 0.54196 0.0
C1503 C 0.74997 0.85377 0.57768 0.0
C1504 C 0.75089 0.85815 0.61958 0.0
C1505 C 0.75522 0.87002 0.62526 0.0
C1506 C 0.75817 0.87731 0.58957 0.0
H1507 H 0.77903 0.8804 0.44801 0.0
H1508 H 0.77531 0.87544 0.50298 0.0
H1509 H 0.76681 0.86654 0.45857 0.0
H1510 H 0.75114 0.8573 0.50996 0.0
H1511 H 0.74658 0.84465 0.57238 0.0
H1512 H 0.0735 0.85415 0.32411 0.0
H1513 H 0.08115 0.86797 0.38406 0.0
H1514 H 0.09888 0.85089 0.433 0.0
H1515 H 0.09138 0.83714 0.37351 0.0
H1516 H 0.08035 0.8644 0.47897 0.0
H1517 H 0.12423 0.88523 0.40968 0.0
H1518 H 0.11149 0.87624 0.37822 0.0
H1519 H 0.11762 0.86982 0.41238 0.0
C1520 C 0.07891 0.85327 0.34798 0.0
C1521 C 0.08196 0.84465 0.34389 0.0
C1522 C 0.08327 0.86116 0.38207 0.0
C1523 C 0.09072 0.86053 0.41225 0.0
C1524 C 0.09328 0.8516 0.40946 0.0
H1525 H 0.11586 0.87677 0.65812 0.0
H1526 H 0.10351 0.87087 0.59493 0.0
C1527 C 0.08895 0.84373 0.37556 0.0
C1528 C 0.0963 0.86936 0.44608 0.0
H1529 H 0.12292 0.88784 0.48585 0.0
C1530 C 0.08964 0.86974 0.48022 0.0
C1531 C 0.10837 0.87656 0.44688 0.0
C1532 C 0.11585 0.87706 0.40959 0.0
C1533 C 0.09488 0.8764 0.51714 0.0
C1534 C 0.10704 0.88258 0.51998 0.0
C1535 C 0.1136 0.88301 0.48401 0.0
C1536 C 0.11316 0.88714 0.5614 0.0
C1537 C 0.08735 0.87644 0.55321 0.0
C1538 C 0.12274 0.89829 0.56383 0.0
C1539 C 0.13 0.90164 0.59981 0.0
C1540 C 0.12781 0.89387 0.63389 0.0
C1541 C 0.11783 0.88297 0.63245 0.0
C1542 C 0.11064 0.87962 0.59645 0.0
H1543 H 0.07926 0.87564 0.54021 0.0
H1544 H 0.08494 0.8689 0.57447 0.0
H1545 H 0.09181 0.88441 0.5729 0.0
H1546 H 0.12489 0.9042 0.53699 0.0
H1547 H 0.13758 0.91012 0.60002 0.0
H1548 H 0.07743 0.23099 0.57901 0.0
H1549 H 0.08372 0.22543 0.51362 0.0
H1550 H 0.11636 0.23525 0.57385 0.0
H1551 H 0.11012 0.24056 0.63925 0.0
H1552 H 0.10115 0.24033 0.46543 0.0
H1553 H 0.11012 0.20603 0.51459 0.0
H1554 H 0.10151 0.21007 0.5471 0.0
H1555 H 0.11698 0.21796 0.55106 0.0
C1556 C 0.08586 0.23173 0.57864 0.0
C1557 C 0.09331 0.23631 0.61425 0.0
C1558 C 0.08941 0.22851 0.5413 0.0
C1559 C 0.10043 0.22976 0.53908 0.0
C1560 C 0.1077 0.2339 0.57518 0.0
H1561 H 0.15096 0.25572 0.34897 0.0
H1562 H 0.1372 0.25088 0.40775 0.0
C1563 C 0.10415 0.23707 0.61247 0.0
C1564 C 0.10508 0.22841 0.49754 0.0
H1565 H 0.12171 0.2182 0.45455 0.0
C1566 C 0.10539 0.23525 0.46269 0.0
C1567 C 0.11046 0.22165 0.4936 0.0
C1568 C 0.10963 0.21342 0.52851 0.0
C1569 C 0.11174 0.23626 0.42546 0.0
C1570 C 0.1181 0.23045 0.4235 0.0
C1571 C 0.11702 0.22285 0.45665 0.0
C1572 C 0.12667 0.23301 0.38914 0.0
C1573 C 0.11191 0.24386 0.38916 0.0
C1574 C 0.12554 0.22442 0.3604 0.0
C1575 C 0.13346 0.22715 0.32682 0.0
C1576 C 0.14262 0.23849 0.32179 0.0
C1577 C 0.14395 0.24693 0.35177 0.0
C1578 C 0.13606 0.2442 0.3852 0.0
H1579 H 0.10407 0.2447 0.38947 0.0
H1580 H 0.11947 0.25261 0.3931 0.0
H1581 H 0.11256 0.24044 0.35727 0.0
H1582 H 0.1184 0.21571 0.36331 0.0
H1583 H 0.13224 0.22045 0.30428 0.0
H1584 H 0.78481 0.56808 0.47687 0.0
H1585 H 0.77345 0.56098 0.41146 0.0
H1586 H 0.79764 0.55166 0.36022 0.0
H1587 H 0.80932 0.55909 0.42564 0.0
H1588 H 0.79472 0.56495 0.30632 0.0
H1589 H 0.75159 0.53117 0.3553 0.0
H1590 H 0.75591 0.54333 0.39002 0.0
H1591 H 0.76397 0.53582 0.39004 0.0
C1592 C 0.78763 0.56431 0.45217 0.0
C1593 C 0.79806 0.56429 0.45628 0.0
C1594 C 0.78101 0.56009 0.41491 0.0
C1595 C 0.78457 0.55558 0.38117 0.0
C1596 C 0.79468 0.555 0.38604 0.0
H1597 H 0.74356 0.54853 0.1476 0.0
H1598 H 0.75242 0.54222 0.20271 0.0
C1599 C 0.80136 0.55929 0.42337 0.0
C1600 C 0.77879 0.5535 0.33872 0.0
H1601 H 0.75214 0.54372 0.29511 0.0
C1602 C 0.78543 0.55998 0.30345 0.0
C1603 C 0.76669 0.54684 0.33437 0.0
C1604 C 0.75918 0.5388 0.36944 0.0
C1605 C 0.78021 0.56103 0.26592 0.0
C1606 C 0.76809 0.55564 0.26411 0.0
C1607 C 0.76145 0.54809 0.29714 0.0
C1608 C 0.76236 0.55909 0.23155 0.0
C1609 C 0.78773 0.56846 0.22955 0.0
C1610 C 0.76475 0.57055 0.2307 0.0
C1611 C 0.75972 0.57415 0.19967 0.0
C1612 C 0.75215 0.56635 0.16897 0.0
C1613 C 0.74941 0.55475 0.1708 0.0
C1614 C 0.75447 0.55113 0.20207 0.0
H1615 H 0.79612 0.56868 0.22915 0.0
H1616 H 0.78345 0.56532 0.19777 0.0
H1617 H 0.78949 0.57742 0.23419 0.0
H1618 H 0.77062 0.57674 0.25394 0.0
H1619 H 0.76194 0.58312 0.19931 0.0
H1620 H 0.40373 0.1677 0.23312 0.0
H1621 H 0.41001 0.18005 0.29695 0.0
H1622 H 0.44334 0.20126 0.23936 0.0
H1623 H 0.43715 0.18887 0.17507 0.0
H1624 H 0.43816 0.19258 0.34609 0.0
H1625 H 0.41973 0.21732 0.2684 0.0
H1626 H 0.41211 0.20191 0.26115 0.0
H1627 H 0.42609 0.21044 0.23759 0.0
C1628 C 0.41247 0.17485 0.2343 0.0
C1629 C 0.41991 0.1774 0.19895 0.0
C1630 C 0.41605 0.18186 0.2708 0.0
C1631 C 0.4271 0.19152 0.27253 0.0
C1632 C 0.4348 0.19378 0.23844 0.0
H1633 H 0.42825 0.24029 0.46074 0.0
H1634 H 0.43603 0.23415 0.40152 0.0
C1635 C 0.43123 0.18672 0.20183 0.0
C1636 C 0.42991 0.19983 0.30795 0.0
H1637 H 0.42277 0.21946 0.3438 0.0
C1638 C 0.43508 0.19868 0.3455 0.0
C1639 C 0.42606 0.20789 0.30653 0.0
C1640 C 0.42074 0.20958 0.26623 0.0
C1641 C 0.43574 0.20489 0.38299 0.0
C1642 C 0.43081 0.2121 0.38288 0.0
C1643 C 0.42651 0.2139 0.3441 0.0
C1644 C 0.42839 0.21648 0.42318 0.0
C1645 C 0.4414 0.20337 0.42259 0.0
C1646 C 0.42174 0.20866 0.45558 0.0
C1647 C 0.41734 0.21214 0.4895 0.0
C1648 C 0.41933 0.22348 0.49133 0.0
C1649 C 0.42649 0.23147 0.46009 0.0
C1650 C 0.43098 0.22799 0.42632 0.0
H1651 H 0.44856 0.20187 0.41344 0.0
H1652 H 0.44481 0.211 0.44417 0.0
H1653 H 0.43501 0.19568 0.44073 0.0
H1654 H 0.41931 0.19966 0.4533 0.0
H1655 H 0.41186 0.20576 0.51296 0.0
H1656 H 0.80819 0.25265 0.18547 0.0
H1657 H 0.79833 0.24899 0.2553 0.0
H1658 H 0.80999 0.22516 0.28807 0.0
H1659 H 0.82005 0.229 0.21955 0.0
H1660 H 0.78105 0.22946 0.28488 0.0
H1661 H 0.8172 0.24317 0.39757 0.0
H1662 H 0.81939 0.24712 0.3412 0.0
H1663 H 0.81781 0.23356 0.35886 0.0
C1664 C 0.80878 0.24678 0.20798 0.0
C1665 C 0.81492 0.24113 0.19717 0.0
C1666 C 0.80316 0.24471 0.24778 0.0
C1667 C 0.80363 0.237 0.27729 0.0
C1668 C 0.80982 0.23143 0.26649 0.0
H1669 H 0.75764 0.18477 0.43238 0.0
H1670 H 0.76644 0.19965 0.37746 0.0
C1671 C 0.81549 0.23356 0.22706 0.0
C1672 C 0.79689 0.23382 0.31781 0.0
H1673 H 0.79875 0.22705 0.4222 0.0
C1674 C 0.78493 0.22921 0.3153 0.0
C1675 C 0.80195 0.23387 0.35791 0.0
C1676 C 0.81482 0.23984 0.36407 0.0
C1677 C 0.77782 0.22355 0.35071 0.0
C1678 C 0.78279 0.22213 0.38891 0.0
C1679 C 0.79483 0.22784 0.39271 0.0
C1680 C 0.77586 0.21363 0.42273 0.0
C1681 C 0.76505 0.21889 0.34623 0.0
C1682 C 0.77824 0.21642 0.46666 0.0
C1683 C 0.77352 0.2078 0.49806 0.0
C1684 C 0.76617 0.19628 0.48611 0.0
C1685 C 0.76319 0.1936 0.44251 0.0
C1686 C 0.76814 0.20216 0.41107 0.0
H1687 H 0.76332 0.22473 0.32609 0.0
H1688 H 0.7611 0.21043 0.32955 0.0
H1689 H 0.76082 0.21778 0.37807 0.0
H1690 H 0.78418 0.22519 0.47652 0.0
H1691 H 0.77588 0.2101 0.53155 0.0
H1692 H 0.9093 0.45294 0.65582 0.0
H1693 H 0.9036 0.44047 0.71893 0.0
H1694 H 0.89068 0.4608 0.77944 0.0
H1695 H 0.89664 0.47355 0.71667 0.0
H1696 H 0.90545 0.45883 0.82987 0.0
H1697 H 0.87423 0.41545 0.77031 0.0
H1698 H 0.88694 0.42172 0.73758 0.0
H1699 H 0.87806 0.42832 0.73951 0.0
C1700 C 0.90505 0.45466 0.68216 0.0
C1701 C 0.90353 0.46432 0.68139 0.0
C1702 C 0.90167 0.44742 0.71808 0.0
C1703 C 0.89655 0.44959 0.75364 0.0
C1704 C 0.89455 0.45893 0.75218 0.0
H1705 H 0.88425 0.40907 0.99225 0.0
H1706 H 0.88026 0.41719 0.92785 0.0
C1707 C 0.89801 0.46623 0.71636 0.0
C1708 C 0.89491 0.44317 0.79434 0.0
H1709 H 0.88508 0.41611 0.83465 0.0
C1710 C 0.90077 0.44949 0.83113 0.0
C1711 C 0.88869 0.43099 0.79623 0.0
C1712 C 0.88152 0.42375 0.75886 0.0
C1713 C 0.90124 0.44396 0.86874 0.0
C1714 C 0.8959 0.43183 0.86924 0.0
C1715 C 0.88935 0.42544 0.83371 0.0
C1716 C 0.89786 0.42581 0.90526 0.0
C1717 C 0.90779 0.45118 0.90723 0.0
C1718 C 0.90897 0.42767 0.91268 0.0
C1719 C 0.91128 0.42309 0.94919 0.0
C1720 C 0.90249 0.41653 0.97882 0.0
C1721 C 0.89121 0.41414 0.97004 0.0
C1722 C 0.88891 0.41875 0.93338 0.0
H1723 H 0.90862 0.45986 0.9061 0.0
H1724 H 0.9035 0.4469 0.9379 0.0
H1725 H 0.91658 0.45232 0.90731 0.0
H1726 H 0.91594 0.43297 0.89084 0.0
H1727 H 0.92003 0.425 0.95486 0.0
H1728 H 0.56806 0.48678 0.92838 0.0
H1729 H 0.56233 0.47344 0.86753 0.0
H1730 H 0.56916 0.4504 0.94263 0.0
H1731 H 0.57508 0.4638 0.00391 0.0
H1732 H 0.57528 0.45957 0.82782 0.0
H1733 H 0.5321 0.43552 0.90557 0.0
H1734 H 0.541 0.45074 0.91575 0.0
H1735 H 0.5452 0.44089 0.93656 0.0
C1736 C 0.56857 0.47899 0.93173 0.0
C1737 C 0.5719 0.47627 0.97097 0.0
C1738 C 0.56535 0.47142 0.89692 0.0
C1739 C 0.56534 0.46099 0.90085 0.0
C1740 C 0.5692 0.45847 0.93915 0.0
H1741 H 0.51717 0.41335 0.7121 0.0
H1742 H 0.53103 0.41848 0.77109 0.0
C1743 C 0.57254 0.46611 0.97401 0.0
C1744 C 0.55991 0.45233 0.86649 0.0
H1745 H 0.53314 0.43276 0.8312 0.0
C1746 C 0.56613 0.45344 0.82874 0.0
C1747 C 0.54804 0.44424 0.86826 0.0
C1748 C 0.54112 0.44267 0.90865 0.0
C1749 C 0.56054 0.44724 0.79136 0.0
C1750 C 0.54841 0.44014 0.79167 0.0
C1751 C 0.54242 0.43825 0.83073 0.0
C1752 C 0.54156 0.43626 0.75132 0.0
C1753 C 0.56762 0.44874 0.75158 0.0
C1754 C 0.543 0.44447 0.72007 0.0
C1755 C 0.53516 0.44156 0.6863 0.0
C1756 C 0.52557 0.43042 0.68347 0.0
C1757 C 0.52443 0.42203 0.71352 0.0
C1758 C 0.53237 0.42494 0.74717 0.0
H1759 H 0.57614 0.44984 0.76053 0.0
H1760 H 0.56323 0.44127 0.72935 0.0
H1761 H 0.5692 0.45665 0.73427 0.0
H1762 H 0.54978 0.45335 0.72318 0.0
H1763 H 0.53631 0.44824 0.66379 0.0
H1764 H 0.54057 0.08524 0.68669 0.0
H1765 H 0.53563 0.09179 0.75202 0.0
H1766 H 0.56925 0.10236 0.80477 0.0
H1767 H 0.57423 0.09552 0.73933 0.0
H1768 H 0.5529 0.08863 0.85849 0.0
H1769 H 0.54269 0.12174 0.80608 0.0
H1770 H 0.5353 0.10942 0.77172 0.0
H1771 H 0.55083 0.1173 0.77263 0.0
C1772 C 0.54702 0.08914 0.71176 0.0
C1773 C 0.55776 0.08974 0.70793 0.0
C1774 C 0.54423 0.09304 0.74897 0.0
C1775 C 0.55214 0.09778 0.78299 0.0
C1776 C 0.56306 0.09885 0.77866 0.0
H1777 H 0.51815 0.10606 0.01374 0.0
H1778 H 0.53306 0.11186 0.95806 0.0
C1779 C 0.56587 0.0949 0.74133 0.0
C1780 C 0.54821 0.09982 0.82499 0.0
H1781 H 0.53106 0.10952 0.86697 0.0
C1782 C 0.54844 0.09351 0.86075 0.0
C1783 C 0.54259 0.10637 0.82846 0.0
C1784 C 0.54297 0.11419 0.7927 0.0
C1785 C 0.54216 0.09256 0.8981 0.0
C1786 C 0.53533 0.09788 0.89922 0.0
C1787 C 0.53609 0.10521 0.86551 0.0
C1788 C 0.52629 0.09468 0.93218 0.0
C1789 C 0.54242 0.08538 0.93516 0.0
C1790 C 0.51739 0.0832 0.93488 0.0
C1791 C 0.5089 0.07988 0.96628 0.0
C1792 C 0.50911 0.088 -0.00454 0.0
C1793 C 0.5178 0.09961 0.99173 0.0
C1794 C 0.52633 0.10293 0.96013 0.0
H1795 H 0.55065 0.08526 0.93585 0.0
H1796 H 0.54126 0.08865 0.96661 0.0
H1797 H 0.53533 0.07637 0.93111 0.0
H1798 H 0.51707 0.07677 0.91278 0.0
H1799 H 0.50228 0.0709 0.96811 0.0
H1800 H 0.50632 0.09415 0.2388 0.0
H1801 H 0.51815 0.10159 0.30393 0.0
H1802 H 0.5421 0.09203 0.25205 0.0
H1803 H 0.53058 0.08487 0.18701 0.0
H1804 H 0.52153 0.08847 0.35843 0.0
H1805 H 0.56412 0.12247 0.30478 0.0
H1806 H 0.55145 0.11749 0.27142 0.0
H1807 H 0.55962 0.1101 0.27098 0.0
C1808 C 0.51424 0.09387 0.24092 0.0
C1809 C 0.51745 0.08882 0.20786 0.0
C1810 C 0.52101 0.09817 0.27806 0.0
C1811 C 0.53112 0.09756 0.28255 0.0
C1812 C 0.53454 0.09293 0.24885 0.0
H1813 H 0.55598 0.07254 0.46752 0.0
H1814 H 0.54662 0.07794 0.41221 0.0
C1815 C 0.52783 0.08868 0.21181 0.0
C1816 C 0.53717 0.09996 0.32451 0.0
H1817 H 0.56415 0.11062 0.36616 0.0
C1818 C 0.53083 0.09362 0.36052 0.0
C1819 C 0.54927 0.10686 0.32776 0.0
C1820 C 0.55646 0.11471 0.29169 0.0
C1821 C 0.53636 0.093 0.39791 0.0
C1822 C 0.5485 0.09868 0.39883 0.0
C1823 C 0.55483 0.10604 0.36486 0.0
C1824 C 0.55462 0.09581 0.43176 0.0
C1825 C 0.52915 0.08576 0.43521 0.0
C1826 C 0.5626 0.10421 0.45981 0.0
C1827 C 0.56806 0.10116 0.49144 0.0
C1828 C 0.56563 0.08968 0.49507 0.0
C1829 C 0.55796 0.08142 0.46577 0.0
C1830 C 0.55254 0.08447 0.43436 0.0
H1831 H 0.52064 0.08529 0.43588 0.0
H1832 H 0.52761 0.07685 0.4315 0.0
H1833 H 0.53356 0.08923 0.46655 0.0
H1834 H 0.56441 0.11303 0.4578 0.0
H1835 H 0.57396 0.10771 0.51354 0.0
H1836 H 0.90888 0.44978 0.16831 0.0
H1837 H 0.90225 0.45634 0.22925 0.0
H1838 H 0.8808 0.42118 0.2711 0.0
H1839 H 0.88785 0.41453 0.21082 0.0
H1840 H 0.88222 0.45313 0.25999 0.0
H1841 H 0.90104 0.43485 0.37463 0.0
H1842 H 0.90335 0.43519 0.31726 0.0
H1843 H 0.88981 0.42467 0.34015 0.0
C1844 C 0.90266 0.4434 0.19014 0.0
C1845 C 0.89906 0.43165 0.1852 0.0
C1846 C 0.89883 0.44717 0.22494 0.0
C1847 C 0.89122 0.43927 0.25527 0.0
C1848 C 0.88693 0.42745 0.24873 0.0
H1849 H 0.88377 0.46619 0.50596 0.0
H1850 H 0.87703 0.45349 0.4426 0.0
C1851 C 0.89092 0.42366 0.21421 0.0
C1852 C 0.88877 0.44373 0.29527 0.0
H1853 H 0.89488 0.44697 0.40309 0.0
C1854 C 0.88476 0.4516 0.29144 0.0
C1855 C 0.8921 0.44172 0.33636 0.0
C1856 C 0.8969 0.43373 0.34256 0.0
C1857 C 0.88474 0.45808 0.32699 0.0
C1858 C 0.8887 0.45653 0.3672 0.0
C1859 C 0.89182 0.44805 0.37195 0.0
C1860 C 0.89153 0.46481 0.40272 0.0
C1861 C 0.88113 0.467 0.32105 0.0
C1862 C 0.90184 0.47536 0.40076 0.0
C1863 C 0.90581 0.4825 0.4369 0.0
C1864 C 0.89946 0.47923 0.47541 0.0
C1865 C 0.88881 0.46893 0.47658 0.0
C1866 C 0.88494 0.46169 0.44054 0.0
H1867 H 0.8762 0.46563 0.29066 0.0
H1868 H 0.8758 0.46685 0.34876 0.0
H1869 H 0.88891 0.47568 0.31987 0.0
H1870 H 0.90709 0.47781 0.37186 0.0
H1871 H 0.91402 0.49041 0.43512 0.0
H1872 H 0.49879 0.43176 0.46507 0.0
H1873 H 0.50808 0.43761 0.39482 0.0
H1874 H 0.51879 0.41217 0.40409 0.0
H1875 H 0.50974 0.40645 0.47539 0.0
H1876 H 0.53618 0.43256 0.3791 0.0
H1877 H 0.49819 0.42228 0.27919 0.0
H1878 H 0.49912 0.43125 0.3237 0.0
H1879 H 0.49695 0.41704 0.33373 0.0
C1880 C 0.503 0.4273 0.452 0.0
C1881 C 0.50352 0.41863 0.47566 0.0
C1882 C 0.50824 0.4306 0.41167 0.0
C1883 C 0.51391 0.42516 0.39381 0.0
C1884 C 0.51436 0.41641 0.41716 0.0
H1885 H 0.53822 0.44881 0.13166 0.0
H1886 H 0.52938 0.43555 0.19217 0.0
C1887 C 0.50919 0.41315 0.45781 0.0
C1888 C 0.51998 0.42922 0.35207 0.0
H1889 H 0.51656 0.43695 0.25078 0.0
C1890 C 0.53186 0.43332 0.35071 0.0
C1891 C 0.51431 0.42994 0.31471 0.0
C1892 C 0.50142 0.42476 0.31276 0.0
C1893 C 0.53836 0.43885 0.31386 0.0
C1894 C 0.53285 0.44061 0.27805 0.0
C1895 C 0.52085 0.43579 0.27844 0.0
C1896 C 0.53936 0.44812 0.24126 0.0
C1897 C 0.55105 0.44284 0.31399 0.0
C1898 C 0.54802 0.45956 0.24864 0.0
C1899 C 0.5532 0.46709 0.2141 0.0
C1900 C 0.54961 0.46341 0.17158 0.0
C1901 C 0.54111 0.45191 0.16413 0.0
C1902 C 0.53607 0.44432 0.19865 0.0
H1903 H 0.55293 0.43718 0.3346 0.0
H1904 H 0.55431 0.44297 0.28092 0.0
H1905 H 0.55583 0.45166 0.32766 0.0
H1906 H 0.55045 0.46282 0.28121 0.0
H1907 H 0.55965 0.47594 0.22087 0.0
H1908 H 0.39496 0.226 0.71154 0.0
H1909 H 0.39948 0.22119 0.78194 0.0
H1910 H 0.43518 0.24695 0.7654 0.0
H1911 H 0.43075 0.25159 0.69387 0.0
H1912 H 0.43328 0.22737 0.79271 0.0
H1913 H 0.40589 0.2373 0.8957 0.0
H1914 H 0.3974 0.22784 0.85306 0.0
H1915 H 0.40902 0.24207 0.84033 0.0
C1916 C 0.40375 0.23076 0.72306 0.0
C1917 C 0.4125 0.23918 0.69725 0.0
C1918 C 0.40631 0.22806 0.76351 0.0
C1919 C 0.41762 0.23389 0.77938 0.0
C1920 C 0.42637 0.24242 0.75392 0.0
H1921 H 0.41874 0.20929 0.03947 0.0
H1922 H 0.42368 0.22333 0.98127 0.0
C1923 C 0.42383 0.24506 0.71313 0.0
C1924 C 0.42029 0.23034 0.82107 0.0
H1925 H 0.4099 0.22259 0.92319 0.0
C1926 C 0.42836 0.22656 0.82161 0.0
C1927 C 0.41416 0.2296 0.85917 0.0
C1928 C 0.40624 0.23456 0.86214 0.0
C1929 C 0.42975 0.22118 0.85818 0.0
C1930 C 0.4226 0.21922 0.8945 0.0
C1931 C 0.41524 0.22387 0.89513 0.0
C1932 C 0.42167 0.21141 0.9302 0.0
C1933 C 0.4387 0.2175 0.85706 0.0
C1934 C 0.41911 0.20011 0.92102 0.0
C1935 C 0.41649 0.19214 0.95424 0.0
C1936 C 0.41605 0.19524 -0.00279 0.0
C1937 C 0.41894 0.20664 0.00658 0.0
C1938 C 0.42179 0.21467 0.97338 0.0
H1939 H 0.44619 0.22352 0.83706 0.0
H1940 H 0.44181 0.21713 0.88992 0.0
H1941 H 0.43495 0.20885 0.84201 0.0
H1942 H 0.41857 0.19724 0.88798 0.0
H1943 H 0.41419 0.18339 0.94598 0.0
H1944 H 0.75564 0.16527 0.71502 0.0
H1945 H 0.76275 0.17659 0.78107 0.0
H1946 H 0.74988 0.19873 0.73845 0.0
H1947 H 0.74258 0.18732 0.67216 0.0
H1948 H 0.77932 0.2007 0.77505 0.0
H1949 H 0.74036 0.192 0.86897 0.0
H1950 H 0.74004 0.1822 0.82812 0.0
H1951 H 0.74085 0.19548 0.81256 0.0
C1952 C 0.75412 0.17241 0.72001 0.0
C1953 C 0.74865 0.17548 0.68828 0.0
C1954 C 0.75817 0.17886 0.75775 0.0
C1955 C 0.75681 0.18846 0.76452 0.0
C1956 C 0.75088 0.19125 0.73395 0.0
H1957 H 0.80425 0.23855 0.95245 0.0
H1958 H 0.79162 0.23134 0.88933 0.0
C1959 C 0.74676 0.18475 0.6961 0.0
C1960 C 0.76274 0.19614 0.80136 0.0
H1961 H 0.75841 0.20453 0.90029 0.0
C1962 C 0.77478 0.20167 0.80227 0.0
C1963 C 0.75673 0.19735 0.83653 0.0
C1964 C 0.74377 0.19142 0.83694 0.0
C1965 C 0.78101 0.20798 0.83835 0.0
C1966 C 0.77501 0.209 0.87412 0.0
C1967 C 0.76296 0.20381 0.87259 0.0
C1968 C 0.78105 0.21418 0.91504 0.0
C1969 C 0.7939 0.21295 0.83877 0.0
C1970 C 0.77883 0.2071 0.95124 0.0
C1971 C 0.78595 0.21119 0.98743 0.0
C1972 C 0.79544 0.22244 0.98791 0.0
C1973 C 0.79711 0.22979 0.95284 0.0
C1974 C 0.78991 0.2257 0.91675 0.0
H1975 H 0.79685 0.20953 0.81201 0.0
H1976 H 0.7982 0.22244 0.83518 0.0
H1977 H 0.79674 0.21102 0.8698 0.0
H1978 H 0.772 0.19819 0.95055 0.0
H1979 H 0.78434 0.20533 0.01403 0.0
H1980 H 0.77859 0.57362 0.97684 0.0
H1981 H 0.78337 0.56696 0.91132 0.0
H1982 H 0.74881 0.55394 0.86389 0.0
H1983 H 0.74396 0.5609 0.92942 0.0
H1984 H 0.7749 0.54598 0.86922 0.0
H1985 H 0.76838 0.57747 0.77263 0.0
H1986 H 0.76847 0.57769 0.8308 0.0
H1987 H 0.75627 0.5667 0.80224 0.0
C1988 C 0.77194 0.56926 0.95277 0.0
C1989 C 0.76095 0.56798 0.95804 0.0
C1990 C 0.77467 0.56537 0.91539 0.0
C1991 C 0.76649 0.56009 0.88254 0.0
C1992 C 0.7553 0.55817 0.88862 0.0
H1993 H 0.79784 0.54892 0.64823 0.0
H1994 H 0.7835 0.54359 0.70595 0.0
C1995 C 0.75255 0.56214 0.92606 0.0
C1996 C 0.7703 0.55781 0.84076 0.0
H1997 H 0.77827 0.5693 0.73995 0.0
C1998 C 0.77539 0.55083 0.84047 0.0
C1999 C 0.77091 0.56418 0.80341 0.0
C2000 C 0.76579 0.57199 0.80202 0.0
C2001 C 0.78189 0.55079 0.80504 0.0
C2002 C 0.78317 0.55781 0.7691 0.0
C2003 C 0.77726 0.56399 0.76787 0.0
C2004 C 0.792 0.56043 0.73586 0.0
C2005 C 0.78809 0.544 0.80754 0.0
C2006 C 0.80152 0.57158 0.7341 0.0
C2007 C 0.80964 0.57465 0.70138 0.0
C2008 C 0.80838 0.5666 0.66973 0.0
C2009 C 0.79904 0.55528 0.67234 0.0
C2010 C 0.79085 0.55222 0.70518 0.0
H2011 H 0.78676 0.53955 0.83905 0.0
H2012 H 0.78494 0.53744 0.78149 0.0
H2013 H 0.79746 0.5498 0.80252 0.0
H2014 H 0.80256 0.57801 0.75772 0.0
H2015 H 0.81676 0.58342 0.70032 0.0
H2016 H 0.4092 0.88191 0.4581 0.0
H2017 H 0.41862 0.87588 0.51203 0.0
H2018 H 0.43458 0.90979 0.56885 0.0
H2019 H 0.42537 0.91587 0.51545 0.0
H2020 H 0.44975 0.9002 0.54582 0.0
H2021 H 0.41167 0.87145 0.64683 0.0
H2022 H 0.41117 0.86996 0.58886 0.0
H2023 H 0.41141 0.88227 0.6128 0.0
C2024 C 0.41463 0.88802 0.48241 0.0
C2025 C 0.41659 0.89938 0.48256 0.0
C2026 C 0.42 0.88457 0.51301 0.0
C2027 C 0.42731 0.89243 0.54408 0.0
C2028 C 0.42902 0.90364 0.54481 0.0
H2029 H 0.4529 0.90962 0.77802 0.0
H2030 H 0.44208 0.90142 0.71209 0.0
C2031 C 0.42372 0.90709 0.51439 0.0
C2032 C 0.43343 0.88935 0.57622 0.0
H2033 H 0.42994 0.879 0.67877 0.0
C2034 C 0.44548 0.89524 0.57445 0.0
C2035 C 0.42773 0.88278 0.61303 0.0
C2036 C 0.41478 0.87621 0.61589 0.0
C2037 C 0.45203 0.89587 0.61066 0.0
C2038 C 0.4463 0.8903 0.64919 0.0
C2039 C 0.43427 0.88329 0.64917 0.0
C2040 C 0.45224 0.89382 0.69129 0.0
C2041 C 0.46494 0.9035 0.60877 0.0
C2042 C 0.46147 0.89212 0.70181 0.0
C2043 C 0.46783 0.89698 0.73951 0.0
C2044 C 0.46497 0.9035 0.76726 0.0
C2045 C 0.45541 0.90472 0.75733 0.0
C2046 C 0.44914 0.89996 0.71974 0.0
H2047 H 0.4679 0.90799 0.57725 0.0
H2048 H 0.46792 0.91008 0.63475 0.0
H2049 H 0.4691 0.89821 0.61383 0.0
H2050 H 0.4639 0.88729 0.68048 0.0
H2051 H 0.47507 0.89576 0.74655 0.0
H2052 H 0.09654 0.54917 0.85299 0.0
H2053 H 0.1039 0.54145 0.79777 0.0
H2054 H 0.09363 0.55724 0.69878 0.0
H2055 H 0.08707 0.56557 0.75386 0.0
H2056 H 0.09134 0.52606 0.74699 0.0
H2057 H 0.12128 0.56103 0.6418 0.0
H2058 H 0.11738 0.56395 0.69412 0.0
H2059 H 0.10884 0.56257 0.64691 0.0
C2060 C 0.09625 0.5513 0.81944 0.0
C2061 C 0.0912 0.55791 0.80756 0.0
C2062 C 0.10046 0.5469 0.7879 0.0
C2063 C 0.09944 0.5488 0.7439 0.0
C2064 C 0.09492 0.55592 0.73233 0.0
H2065 H 0.06831 0.50173 0.55197 0.0
H2066 H 0.07574 0.51274 0.61813 0.0
C2067 C 0.09103 0.5606 0.76391 0.0
C2068 C 0.10099 0.54176 0.71032 0.0
H2069 H 0.10804 0.54258 0.6041 0.0
C2070 C 0.09535 0.52976 0.71625 0.0
C2071 C 0.10648 0.54644 0.67038 0.0
C2072 C 0.11394 0.55922 0.6633 0.0
C2073 C 0.09396 0.52234 0.6821 0.0
C2074 C 0.09791 0.52699 0.64056 0.0
C2075 C 0.10468 0.53898 0.63568 0.0
C2076 C 0.09369 0.51972 0.60136 0.0
C2077 C 0.08783 0.50954 0.69058 0.0
C2078 C 0.10131 0.52021 0.56924 0.0
C2079 C 0.09704 0.51403 0.53077 0.0
C2080 C 0.08511 0.50731 0.52391 0.0
C2081 C 0.07755 0.50673 0.55641 0.0
C2082 C 0.08179 0.51295 0.5945 0.0
H2083 H 0.08972 0.50773 0.72367 0.0
H2084 H 0.0784 0.50605 0.68844 0.0
H2085 H 0.09034 0.50494 0.66698 0.0
H2086 H 0.11052 0.52548 0.57369 0.0
H2087 H 0.10307 0.51465 0.50619 0.0
H2088 H 0.45278 0.53313 0.82916 0.0
H2089 H 0.46064 0.545 0.76477 0.0
H2090 H 0.42716 0.52747 0.70469 0.0
H2091 H 0.41926 0.51534 0.76859 0.0
H2092 H 0.44318 0.52741 0.65439 0.0
H2093 H 0.45895 0.57179 0.71315 0.0
H2094 H 0.46436 0.56437 0.74524 0.0
H2095 H 0.44913 0.55925 0.74397 0.0
C2096 C 0.44704 0.53191 0.80255 0.0
C2097 C 0.43541 0.52323 0.80387 0.0
C2098 C 0.45153 0.53879 0.76589 0.0
C2099 C 0.44445 0.53724 0.7302 0.0
C2100 C 0.43276 0.52885 0.73202 0.0
H2101 H 0.47065 0.57725 0.49098 0.0
H2102 H 0.45989 0.56938 0.55823 0.0
C2103 C 0.42827 0.5219 0.7685 0.0
C2104 C 0.44954 0.54337 0.68929 0.0
H2105 H 0.4673 0.56996 0.64647 0.0
C2106 C 0.44829 0.53673 0.65253 0.0
C2107 C 0.4561 0.55553 0.68672 0.0
C2108 C 0.45712 0.56314 0.7243 0.0
C2109 C 0.45388 0.54186 0.61386 0.0
C2110 C 0.4611 0.55394 0.61224 0.0
C2111 C 0.4619 0.56067 0.64818 0.0
C2112 C 0.46826 0.55958 0.57397 0.0
C2113 C 0.45214 0.53429 0.57522 0.0
C2114 C 0.47675 0.55695 0.5616 0.0
C2115 C 0.48285 0.56138 0.52338 0.0
C2116 C 0.48062 0.56858 0.49701 0.0
C2117 C 0.47251 0.57167 0.51058 0.0
C2118 C 0.46637 0.5672 0.5489 0.0
H2119 H 0.44407 0.52587 0.57792 0.0
H2120 H 0.45187 0.53856 0.54484 0.0
H2121 H 0.45942 0.53258 0.57306 0.0
H2122 H 0.47846 0.55125 0.58107 0.0
H2123 H 0.48912 0.55893 0.514 0.0
H2124 H 0.55878 0.8043 0.05798 0.0
H2125 H 0.55395 0.79164 0.1209 0.0
H2126 H 0.57285 0.77638 0.06648 0.0
H2127 H 0.57746 0.78871 0.00318 0.0
H2128 H 0.5526 0.76032 0.10667 0.0
H2129 H 0.57858 0.79852 0.21139 0.0
H2130 H 0.56684 0.7984 0.18294 0.0
H2131 H 0.57888 0.79951 0.15332 0.0
C2132 C 0.56182 0.79817 0.05925 0.0
C2133 C 0.56864 0.79762 0.02586 0.0
C2134 C 0.55906 0.79096 0.09522 0.0
C2135 C 0.56321 0.78323 0.0986 0.0
C2136 C 0.56957 0.7823 0.06447 0.0
H2137 H 0.5865 0.75791 0.297 0.0
H2138 H 0.58218 0.76555 0.2326 0.0
C2139 C 0.57224 0.78941 0.02839 0.0
C2140 C 0.56184 0.77673 0.13883 0.0
H2141 H 0.57117 0.78035 0.24317 0.0
C2142 C 0.55648 0.76466 0.13677 0.0
C2143 C 0.567 0.78247 0.1779 0.0
C2144 C 0.57323 0.79543 0.1817 0.0
C2145 C 0.55655 0.75821 0.17239 0.0
C2146 C 0.56206 0.76401 0.21075 0.0
C2147 C 0.56694 0.77599 0.21348 0.0
C2148 C 0.56406 0.75808 0.24692 0.0
C2149 C 0.55131 0.74534 0.16828 0.0
C2150 C 0.5552 0.75115 0.27564 0.0
C2151 C 0.55765 0.74675 0.31261 0.0
C2152 C 0.56899 0.74931 0.32128 0.0
C2153 C 0.5777 0.75585 0.29135 0.0
C2154 C 0.57525 0.76021 0.25456 0.0
H2155 H 0.5478 0.74219 0.13546 0.0
H2156 H 0.55788 0.74284 0.17568 0.0
H2157 H 0.54425 0.74098 0.19211 0.0
H2158 H 0.54653 0.74951 0.27025 0.0
H2159 H 0.55076 0.74174 0.33515 0.0
H2160 H 0.2259 0.82248 0.26716 0.0
H2161 H 0.21895 0.80956 0.20506 0.0
H2162 H 0.23527 0.7911 0.25404 0.0
H2163 H 0.24234 0.80405 0.31669 0.0
H2164 H 0.23677 0.7966 0.15577 0.0
H2165 H 0.19314 0.77436 0.22842 0.0
H2166 H 0.20004 0.78982 0.22902 0.0
H2167 H 0.20605 0.78271 0.25989 0.0
C2168 C 0.22817 0.81579 0.26452 0.0
C2169 C 0.23455 0.81419 0.29703 0.0
C2170 C 0.22419 0.80842 0.22906 0.0
C2171 C 0.22651 0.79934 0.22549 0.0
C2172 C 0.23339 0.79807 0.25652 0.0
H2173 H 0.17976 0.74911 0.03916 0.0
H2174 H 0.19297 0.75577 0.10063 0.0
C2175 C 0.2374 0.80546 0.29218 0.0
C2176 C 0.22095 0.79082 0.19073 0.0
H2177 H 0.19428 0.77184 0.15263 0.0
C2178 C 0.22751 0.79098 0.15524 0.0
C2179 C 0.20893 0.78332 0.1908 0.0
C2180 C 0.20161 0.78242 0.22923 0.0
C2181 C 0.22217 0.78445 0.11814 0.0
C2182 C 0.21001 0.77783 0.11658 0.0
C2183 C 0.20359 0.77697 0.15358 0.0
C2184 C 0.20363 0.77303 0.0758 0.0
C2185 C 0.22958 0.78497 0.08064 0.0
C2186 C 0.20538 0.78044 0.041 0.0
C2187 C 0.19789 0.77666 0.00584 0.0
C2188 C 0.18837 0.76544 0.00507 0.0
C2189 C 0.18696 0.75783 0.03888 0.0
C2190 C 0.19453 0.76161 0.07397 0.0
H2191 H 0.23802 0.7863 0.09209 0.0
H2192 H 0.22533 0.77699 0.06091 0.0
H2193 H 0.23131 0.79241 0.05979 0.0
H2194 H 0.21213 0.78937 0.04213 0.0
H2195 H 0.19924 0.78275 0.98037 0.0
H2196 H 0.24235 0.42734 0.05894 0.0
H2197 H 0.23825 0.43431 0.12619 0.0
H2198 H 0.203 0.42065 0.08596 0.0
H2199 H 0.20701 0.41396 0.01887 0.0
H2200 H 0.21211 0.44207 0.12586 0.0
H2201 H 0.22005 0.4114 0.22166 0.0
H2202 H 0.23163 0.42198 0.18933 0.0
H2203 H 0.21909 0.41064 0.16359 0.0
C2204 C 0.23376 0.42593 0.06433 0.0
C2205 C 0.22496 0.41995 0.03381 0.0
C2206 C 0.23144 0.42991 0.10273 0.0
C2207 C 0.2203 0.42787 0.11119 0.0
C2208 C 0.21168 0.42234 0.07999 0.0
H2209 H 0.17108 0.40437 0.29433 0.0
H2210 H 0.18575 0.40994 0.23874 0.0
C2211 C 0.21397 0.41844 0.04172 0.0
C2212 C 0.21705 0.43043 0.1536 0.0
H2213 H 0.20995 0.41924 0.25512 0.0
C2214 C 0.2119 0.43736 0.15463 0.0
C2215 C 0.21685 0.42426 0.19098 0.0
C2216 C 0.22214 0.4166 0.19164 0.0
C2217 C 0.20561 0.43741 0.19071 0.0
C2218 C 0.20464 0.43049 0.22663 0.0
C2219 C 0.21072 0.42448 0.22722 0.0
C2220 C 0.19578 0.42764 0.26003 0.0
C2221 C 0.19924 0.44404 0.18879 0.0
C2222 C 0.19651 0.43583 0.28996 0.0
C2223 C 0.18803 0.43268 0.32174 0.0
C2224 C 0.17882 0.42128 0.32402 0.0
C2225 C 0.17808 0.4132 0.29348 0.0
C2226 C 0.18647 0.41635 0.26182 0.0
H2227 H 0.20026 0.44834 0.15711 0.0
H2228 H 0.18993 0.43818 0.19484 0.0
H2229 H 0.20252 0.45073 0.21439 0.0
H2230 H 0.20369 0.44456 0.28919 0.0
H2231 H 0.18885 0.43907 0.34504 0.0
H2232 H 0.23967 0.44095 0.84476 0.0
H2233 H 0.23016 0.44749 0.7934 0.0
H2234 H 0.21145 0.41321 0.74014 0.0
H2235 H 0.22076 0.40662 0.79109 0.0
H2236 H 0.23002 0.44689 0.70275 0.0
H2237 H 0.18604 0.42089 0.76662 0.0
H2238 H 0.19865 0.4239 0.79772 0.0
H2239 H 0.19258 0.41212 0.75979 0.0
C2240 C 0.23353 0.43483 0.82202 0.0
C2241 C 0.2309 0.42325 0.82208 0.0
C2242 C 0.22809 0.43857 0.79292 0.0
C2243 C 0.21989 0.43075 0.7639 0.0
C2244 C 0.21751 0.41929 0.7632 0.0
H2245 H 0.19938 0.42169 0.5204 0.0
H2246 H 0.21005 0.42944 0.58679 0.0
C2247 C 0.22293 0.41556 0.79206 0.0
C2248 C 0.21408 0.43441 0.73244 0.0
H2249 H 0.18752 0.42454 0.68872 0.0
C2250 C 0.22071 0.4423 0.70022 0.0
C2251 C 0.20196 0.42877 0.73001 0.0
C2252 C 0.19441 0.42105 0.76574 0.0
C2253 C 0.21551 0.44352 0.66285 0.0
C2254 C 0.20348 0.43647 0.65748 0.0
C2255 C 0.19678 0.42977 0.69227 0.0
C2256 C 0.19801 0.43403 0.61432 0.0
C2257 C 0.22301 0.45184 0.62847 0.0
C2258 C 0.18761 0.43393 0.60757 0.0
C2259 C 0.18132 0.42927 0.56961 0.0
C2260 C 0.18532 0.42455 0.53803 0.0
C2261 C 0.19602 0.4252 0.54406 0.0
C2262 C 0.20224 0.42982 0.58187 0.0
H2263 H 0.23023 0.45966 0.64338 0.0
H2264 H 0.22685 0.44773 0.60851 0.0
H2265 H 0.21807 0.45448 0.60715 0.0
H2266 H 0.18412 0.43702 0.63241 0.0
H2267 H 0.17313 0.42894 0.56584 0.0
H2268 H 0.54477 0.79813 0.84191 0.0
H2269 H 0.53929 0.78451 0.78139 0.0
H2270 H 0.57299 0.80511 0.72576 0.0
H2271 H 0.57854 0.8187 0.78559 0.0
H2272 H 0.54244 0.78984 0.68006 0.0
H2273 H 0.56659 0.77054 0.75467 0.0
H2274 H 0.56089 0.77802 0.78566 0.0
H2275 H 0.57392 0.78603 0.75517 0.0
C2276 C 0.55094 0.79983 0.8164 0.0
C2277 C 0.56212 0.80941 0.81865 0.0
C2278 C 0.54779 0.79206 0.78198 0.0
C2279 C 0.5558 0.79381 0.74963 0.0
C2280 C 0.56675 0.80363 0.75075 0.0
H2281 H 0.56892 0.77903 0.50697 0.0
H2282 H 0.56158 0.78461 0.56858 0.0
C2283 C 0.56989 0.81137 0.78494 0.0
C2284 C 0.55324 0.78513 0.71584 0.0
H2285 H 0.56297 0.76759 0.67897 0.0
C2286 C 0.54666 0.78473 0.68003 0.0
C2287 C 0.55858 0.77833 0.71651 0.0
C2288 C 0.56532 0.77813 0.75521 0.0
C2289 C 0.54608 0.77836 0.64316 0.0
C2290 C 0.55243 0.77251 0.64213 0.0
C2291 C 0.55816 0.77214 0.67952 0.0
C2292 C 0.55475 0.76821 0.60148 0.0
C2293 C 0.539 0.7783 0.60521 0.0
C2294 C 0.55339 0.75713 0.59934 0.0
C2295 C 0.55779 0.75396 0.56432 0.0
C2296 C 0.56367 0.76186 0.53093 0.0
C2297 C 0.56446 0.77273 0.53211 0.0
C2298 C 0.56012 0.7759 0.56716 0.0
H2299 H 0.53143 0.77891 0.6162 0.0
H2300 H 0.54431 0.78591 0.5846 0.0
H2301 H 0.53595 0.77039 0.58538 0.0
H2302 H 0.54936 0.7511 0.62566 0.0
H2303 H 0.55698 0.7455 0.5643 0.0
H2304 H 0.18025 0.74226 0.81129 0.0
H2305 H 0.19206 0.74959 0.7459 0.0
H2306 H 0.17301 0.7663 0.70811 0.0
H2307 H 0.16122 0.75909 0.77301 0.0
H2308 H 0.185 0.74843 0.65044 0.0
H2309 H 0.20835 0.79201 0.72388 0.0
H2310 H 0.20044 0.77904 0.75553 0.0
H2311 H 0.19294 0.78511 0.72763 0.0
C2312 C 0.17847 0.74735 0.7887 0.0
C2313 C 0.16991 0.75023 0.79747 0.0
C2314 C 0.18521 0.75151 0.75145 0.0
C2315 C 0.18345 0.75857 0.72276 0.0
C2316 C 0.17453 0.76093 0.73029 0.0
H2317 H 0.19867 0.78678 0.47561 0.0
H2318 H 0.19176 0.77384 0.53741 0.0
C2319 C 0.16781 0.75681 0.76734 0.0
C2320 C 0.19133 0.76422 0.68631 0.0
H2321 H 0.20997 0.79094 0.6476 0.0
C2322 C 0.19064 0.75769 0.64988 0.0
C2323 C 0.19884 0.77625 0.68628 0.0
C2324 C 0.2003 0.78353 0.72555 0.0
C2325 C 0.19673 0.76307 0.61206 0.0
C2326 C 0.20347 0.77523 0.61081 0.0
C2327 C 0.20475 0.78162 0.6484 0.0
C2328 C 0.20822 0.78168 0.57018 0.0
C2329 C 0.1957 0.7557 0.57364 0.0
C2330 C 0.21978 0.79043 0.56798 0.0
C2331 C 0.22372 0.798 0.53297 0.0
C2332 C 0.21615 0.79696 0.49955 0.0
C2333 C 0.20473 0.78782 0.50077 0.0
C2334 C 0.20079 0.78031 0.53592 0.0
H2335 H 0.1941 0.74708 0.58401 0.0
H2336 H 0.18828 0.75438 0.55359 0.0
H2337 H 0.20358 0.75982 0.55339 0.0
H2338 H 0.22564 0.79168 0.59422 0.0
H2339 H 0.23259 0.80489 0.53286 0.0
H2340 H 0.06438 0.56395 0.03425 0.0
H2341 H 0.06736 0.55693 0.103 0.0
H2342 H 0.10326 0.5708 0.07255 0.0
H2343 H 0.10039 0.57803 0.00358 0.0
H2344 H 0.07521 0.54086 0.10414 0.0
H2345 H 0.10321 0.58004 0.20115 0.0
H2346 H 0.09478 0.58025 0.15598 0.0
H2347 H 0.10766 0.57962 0.14666 0.0
C2348 C 0.07296 0.56569 0.04246 0.0
C2349 C 0.08214 0.57144 0.01342 0.0
C2350 C 0.07465 0.5617 0.08175 0.0
C2351 C 0.08552 0.56338 0.09277 0.0
C2352 C 0.09484 0.56956 0.0648 0.0
H2353 H 0.08862 0.51698 0.28371 0.0
H2354 H 0.09334 0.52953 0.22067 0.0
C2355 C 0.09317 0.57363 0.0254 0.0
C2356 C 0.08666 0.55753 0.13128 0.0
H2357 H 0.09809 0.56203 0.23266 0.0
C2358 C 0.08028 0.54547 0.13216 0.0
C2359 C 0.09328 0.56362 0.16757 0.0
C2360 C 0.10009 0.5766 0.16822 0.0
C2361 C 0.08004 0.53929 0.16893 0.0
C2362 C 0.08658 0.54536 0.20549 0.0
C2363 C 0.09318 0.55743 0.20435 0.0
C2364 C 0.08577 0.53927 0.24624 0.0
C2365 C 0.07238 0.52636 0.16894 0.0
C2366 C 0.08049 0.54103 0.28224 0.0
C2367 C 0.07785 0.53394 0.31842 0.0
C2368 C 0.08041 0.52495 0.31904 0.0
C2369 C 0.08638 0.52372 0.28399 0.0
C2370 C 0.08909 0.53087 0.24796 0.0
H2371 H 0.06618 0.52333 0.14164 0.0
H2372 H 0.07777 0.52224 0.1659 0.0
H2373 H 0.06747 0.52338 0.19959 0.0
H2374 H 0.07789 0.5475 0.28148 0.0
H2375 H 0.07333 0.53518 0.345 0.0
H2376 H 0.40999 0.52418 0.97037 0.0
H2377 H 0.41641 0.53825 0.02956 0.0
H2378 H 0.42396 0.5161 0.10707 0.0
H2379 H 0.41772 0.50209 0.04833 0.0
H2380 H 0.41087 0.53111 0.14315 0.0
H2381 H 0.45418 0.55272 0.066 0.0
H2382 H 0.44107 0.54672 0.0347 0.0
H2383 H 0.44527 0.53734 0.05997 0.0
C2384 C 0.4128 0.52221 0.00038 0.0
C2385 C 0.41348 0.5121 0.00467 0.0
C2386 C 0.41642 0.53024 0.03405 0.0
C2387 C 0.42063 0.52815 0.07238 0.0
C2388 C 0.42068 0.51778 0.07762 0.0
H2389 H 0.44883 0.54172 0.30955 0.0
H2390 H 0.43559 0.53692 0.24962 0.0
C2391 C 0.41717 0.50983 0.04402 0.0
C2392 C 0.42629 0.53716 0.10538 0.0
H2393 H 0.45332 0.55608 0.14026 0.0
C2394 C 0.42011 0.53685 0.14226 0.0
C2395 C 0.43827 0.54476 0.10357 0.0
C2396 C 0.44516 0.54552 0.06393 0.0
C2397 C 0.42582 0.54331 0.17903 0.0
C2398 C 0.43799 0.54986 0.17904 0.0
C2399 C 0.444 0.55101 0.14053 0.0
C2400 C 0.44476 0.55375 0.21956 0.0
C2401 C 0.41878 0.54265 0.218 0.0
C2402 C 0.45441 0.56483 0.22286 0.0
C2403 C 0.46222 0.56754 0.25689 0.0
C2404 C 0.46049 0.5592 0.28811 0.0
C2405 C 0.45045 0.54836 0.28608 0.0
C2406 C 0.44274 0.54564 0.252 0.0
H2407 H 0.41051 0.542 0.20796 0.0
H2408 H 0.41666 0.53476 0.23669 0.0
H2409 H 0.42346 0.55027 0.23931 0.0
H2410 H 0.4562 0.5712 0.19802 0.0
H2411 H 0.46983 0.576 0.25766 0.0
H2412 H 0.45869 0.88461 0.95737 0.0
H2413 H 0.4428 0.87803 0.00927 0.0
H2414 H 0.45776 0.91252 0.06027 0.0
H2415 H 0.47347 0.91915 0.00863 0.0
H2416 H 0.4436 0.87874 0.09846 0.0
H2417 H 0.42451 0.9042 0.03829 0.0
H2418 H 0.43423 0.90157 0.00613 0.0
H2419 H 0.43976 0.91327 0.04444 0.0
C2420 C 0.45855 0.89077 0.97965 0.0
C2421 C 0.46728 0.90241 0.97884 0.0
C2422 C 0.44946 0.88701 0.00906 0.0
C2423 C 0.44896 0.89486 0.03769 0.0
C2424 C 0.4578 0.9064 0.03748 0.0
H2425 H 0.43796 0.9028 0.28421 0.0
H2426 H 0.44112 0.8958 0.21635 0.0
C2427 C 0.46685 0.91016 0.00826 0.0
C2428 C 0.4397 0.8911 0.07005 0.0
H2429 H 0.42289 0.90054 0.11632 0.0
C2430 C 0.43877 0.88322 0.10182 0.0
C2431 C 0.43306 0.8966 0.07363 0.0
C2432 C 0.43284 0.90427 0.03844 0.0
C2433 C 0.43251 0.88184 0.13975 0.0
C2434 C 0.42735 0.88872 0.14616 0.0
C2435 C 0.42705 0.89544 0.11194 0.0
C2436 C 0.42434 0.8909 0.18976 0.0
C2437 C 0.43203 0.8735 0.17353 0.0
C2438 C 0.41388 0.89061 0.19744 0.0
C2439 C 0.41211 0.89484 0.23626 0.0
C2440 C 0.42082 0.8995 0.2678 0.0
C2441 C 0.43107 0.8993 0.26064 0.0
C2442 C 0.43283 0.89512 0.22197 0.0
H2443 H 0.43161 0.86581 0.1581 0.0
H2444 H 0.44 0.87771 0.19325 0.0
H2445 H 0.42449 0.87065 0.19519 0.0
H2446 H 0.40727 0.88751 0.17278 0.0
H2447 H 0.4041 0.89483 0.24087 0.0
H2448 H 0.23844 0.37551 0.98399 0.0
H2449 H 0.23423 0.35761 0.02053 0.0
H2450 H 0.19869 0.34223 0.98178 0.0
H2451 H 0.20281 0.35989 0.94472 0.0
H2452 H 0.21983 0.34814 0.08786 0.0
H2453 H 0.20523 0.31658 0.95484 0.0
H2454 H 0.21305 0.33193 0.94542 0.0
H2455 H 0.19771 0.32451 0.95377 0.0
C2456 C 0.22977 0.36824 0.98258 0.0
C2457 C 0.22096 0.36915 0.96146 0.0
C2458 C 0.22739 0.35802 0.00347 0.0
C2459 C 0.21619 0.34852 0.00329 0.0
C2460 C 0.20746 0.34933 0.98138 0.0
H2461 H 0.17484 0.29927 0.18386 0.0
H2462 H 0.18767 0.31631 0.14226 0.0
C2463 C 0.20982 0.3595 0.9605 0.0
C2464 C 0.21324 0.33816 0.02955 0.0
H2465 H 0.19767 0.30882 0.02611 0.0
C2466 C 0.21522 0.33954 0.07423 0.0
C2467 C 0.20743 0.32695 0.01176 0.0
C2468 C 0.20585 0.32491 0.96373 0.0
C2469 C 0.21073 0.32999 0.10192 0.0
C2470 C 0.20391 0.31882 0.0845 0.0
C2471 C 0.20274 0.3174 0.03954 0.0
C2472 C 0.19691 0.3087 0.1123 0.0
C2473 C 0.21307 0.33198 0.1497 0.0
C2474 C 0.1977 0.29867 0.10879 0.0
C2475 C 0.19027 0.28881 0.13239 0.0
C2476 C 0.18185 0.28881 0.15955 0.0
C2477 C 0.18124 0.29896 0.16342 0.0
C2478 C 0.18865 0.30877 0.1399 0.0
H2479 H 0.22139 0.33996 0.15591 0.0
H2480 H 0.20617 0.33305 0.16498 0.0
H2481 H 0.21327 0.32462 0.16536 0.0
H2482 H 0.20395 0.29842 0.08733 0.0
H2483 H 0.19095 0.28114 0.12858 0.0
H2484 H 0.70571 0.90594 0.12117 0.0
H2485 H 0.6878 0.90169 0.08446 0.0
H2486 H 0.67269 0.866 0.12122 0.0
H2487 H 0.69036 0.87013 0.1582 0.0
H2488 H 0.67719 0.88672 0.01655 0.0
H2489 H 0.64801 0.87358 0.15698 0.0
H2490 H 0.66348 0.88148 0.16253 0.0
H2491 H 0.65595 0.86607 0.15594 0.0
C2492 C 0.69853 0.89721 0.12175 0.0
C2493 C 0.69945 0.88838 0.14276 0.0
C2494 C 0.68832 0.89481 0.1008 0.0
C2495 C 0.67886 0.88358 0.10091 0.0
C2496 C 0.67978 0.87478 0.12174 0.0
H2497 H 0.62616 0.84132 0.93364 0.0
H2498 H 0.64417 0.85466 0.96905 0.0
C2499 C 0.68994 0.87715 0.14259 0.0
C2500 C 0.6682 0.88073 0.07704 0.0
H2501 H 0.63903 0.86577 0.08774 0.0
C2502 C 0.66884 0.88237 0.03217 0.0
C2503 C 0.65734 0.87531 0.09755 0.0
C2504 C 0.65616 0.87413 0.14598 0.0
C2505 C 0.65884 0.87785 0.00687 0.0
C2506 C 0.64799 0.87136 0.027 0.0
C2507 C 0.64736 0.87058 0.0722 0.0
C2508 C 0.63734 0.86424 0.00192 0.0
C2509 C 0.66001 0.8798 0.95874 0.0
C2510 C 0.62745 0.86508 0.00905 0.0
C2511 C 0.61705 0.85734 0.98918 0.0
C2512 C 0.61636 0.84858 0.96207 0.0
C2513 C 0.62637 0.84797 0.9542 0.0
C2514 C 0.63673 0.85568 0.97411 0.0
H2515 H 0.6679 0.88803 0.95072 0.0
H2516 H 0.66076 0.87274 0.94315 0.0
H2517 H 0.65244 0.87994 0.9449 0.0
H2518 H 0.62772 0.87156 0.03073 0.0
H2519 H 0.6095 0.85806 -0.00409 0.0
H2520 H 0.14402 0.78425 0.93321 0.0
H2521 H 0.13429 0.79149 0.97947 0.0
H2522 H 0.1259 0.76388 0.06973 0.0
H2523 H 0.13532 0.75634 0.02283 0.0
H2524 H 0.10819 0.76808 0.0599 0.0
H2525 H 0.14866 0.80899 0.08927 0.0
H2526 H 0.14526 0.80646 0.03291 0.0
H2527 H 0.14839 0.79684 0.06304 0.0
C2528 C 0.14004 0.77966 0.96276 0.0
C2529 C 0.14056 0.7698 0.97462 0.0
C2530 C 0.13454 0.78386 0.98928 0.0
C2531 C 0.12966 0.77841 0.0286 0.0
C2532 C 0.12971 0.76827 0.03968 0.0
H2533 H 0.1159 0.81549 0.22858 0.0
H2534 H 0.12273 0.8043 0.18881 0.0
C2535 C 0.13509 0.76397 0.01285 0.0
C2536 C 0.12479 0.7835 0.05854 0.0
H2537 H 0.13134 0.80838 0.11135 0.0
C2538 C 0.11326 0.77687 0.07147 0.0
C2539 C 0.13149 0.79487 0.07438 0.0
C2540 C 0.14417 0.80216 0.06458 0.0
C2541 C 0.10815 0.78142 0.09879 0.0
C2542 C 0.11468 0.79302 0.11254 0.0
C2543 C 0.12629 0.79953 0.1005 0.0
C2544 C 0.10971 0.79873 0.13892 0.0
C2545 C 0.09588 0.7737 0.11305 0.0
C2546 C 0.10005 0.79924 0.12438 0.0
C2547 C 0.09602 0.80549 0.14744 0.0
C2548 C 0.10175 0.81157 0.18493 0.0
C2549 C 0.11133 0.81094 0.19971 0.0
C2550 C 0.11524 0.80454 0.17702 0.0
H2551 H 0.0935 0.76448 0.11204 0.0
H2552 H 0.09445 0.77582 0.14631 0.0
H2553 H 0.09002 0.77483 0.0908 0.0
H2554 H 0.09584 0.79512 0.09445 0.0
H2555 H 0.08868 0.80591 0.13501 0.0
H2556 H 0.27942 0.18412 0.34536 0.0
H2557 H 0.29733 0.19476 0.3859 0.0
H2558 H 0.31547 0.18776 0.28607 0.0
H2559 H 0.29749 0.17673 0.24616 0.0
H2560 H 0.3201 0.18243 0.36139 0.0
H2561 H 0.32518 0.2259 0.37424 0.0
H2562 H 0.31143 0.21506 0.39393 0.0
H2563 H 0.31499 0.21512 0.33781 0.0
C2564 C 0.28726 0.18502 0.33167 0.0
C2565 C 0.28703 0.17956 0.29263 0.0
C2566 C 0.29752 0.19118 0.35476 0.0
C2567 C 0.3078 0.19221 0.33878 0.0
C2568 C 0.30765 0.18711 0.29901 0.0
H2569 H 0.37475 0.23317 0.46407 0.0
H2570 H 0.35832 0.22624 0.41483 0.0
C2571 C 0.29737 0.18081 0.27623 0.0
C2572 C 0.31842 0.19759 0.36539 0.0
H2573 H 0.33621 0.22152 0.42432 0.0
C2574 C 0.32369 0.19103 0.3747 0.0
C2575 C 0.32321 0.20888 0.38238 0.0
C2576 C 0.31848 0.21668 0.37119 0.0
C2577 C 0.3334 0.19529 0.4014 0.0
C2578 C 0.33775 0.20628 0.42055 0.0
C2579 C 0.33274 0.21302 0.41021 0.0
C2580 C 0.34745 0.21084 0.45162 0.0
C2581 C 0.33894 0.18799 0.40843 0.0
C2582 C 0.34666 0.20465 0.48924 0.0
C2583 C 0.35604 0.2085 0.51712 0.0
C2584 C 0.36635 0.21875 0.50835 0.0
C2585 C 0.36694 0.22523 0.47169 0.0
C2586 C 0.35757 0.22129 0.44352 0.0
H2587 H 0.33691 0.18173 0.3817 0.0
H2588 H 0.34844 0.19339 0.41116 0.0
H2589 H 0.3356 0.18301 0.43877 0.0
H2590 H 0.33881 0.19674 0.49677 0.0
H2591 H 0.35525 0.20339 0.54538 0.0
H2592 H 0.75258 0.13586 0.48474 0.0
H2593 H 0.75868 0.12424 0.44349 0.0
H2594 H 0.79293 0.14414 0.49569 0.0
H2595 H 0.78691 0.15566 0.53754 0.0
H2596 H 0.77526 0.1315 0.3812 0.0
H2597 H 0.78606 0.11134 0.51571 0.0
H2598 H 0.77775 0.11846 0.52341 0.0
H2599 H 0.79321 0.12673 0.52047 0.0
C2600 C 0.76139 0.1377 0.48777 0.0
C2601 C 0.76925 0.14667 0.51458 0.0
C2602 C 0.76485 0.13105 0.46417 0.0
C2603 C 0.7762 0.13321 0.4671 0.0
C2604 C 0.78405 0.14214 0.49378 0.0
H2605 H 0.81817 0.12178 0.29107 0.0
H2606 H 0.80708 0.12848 0.33185 0.0
C2607 C 0.78061 0.14877 0.51747 0.0
C2608 C 0.78005 0.12657 0.44051 0.0
H2609 H 0.79393 0.11108 0.44631 0.0
C2610 C 0.7792 0.1269 0.39542 0.0
C2611 C 0.785 0.1204 0.45912 0.0
C2612 C 0.78545 0.11909 0.50735 0.0
C2613 C 0.7837 0.12169 0.36839 0.0
C2614 C 0.78937 0.11623 0.387 0.0
C2615 C 0.7897 0.1154 0.43208 0.0
C2616 C 0.79558 0.11189 0.36042 0.0
C2617 C 0.78239 0.12218 0.32017 0.0
C2618 C 0.79293 0.10037 0.36354 0.0
C2619 C 0.79934 0.09651 0.3405 0.0
C2620 C 0.80855 0.10414 0.31414 0.0
C2621 C 0.81109 0.11565 0.31083 0.0
C2622 C 0.80471 0.11949 0.33391 0.0
H2623 H 0.77489 0.12321 0.3119 0.0
H2624 H 0.79021 0.12971 0.30692 0.0
H2625 H 0.78134 0.11429 0.30417 0.0
H2626 H 0.78597 0.09439 0.3841 0.0
H2627 H 0.79716 0.0876 0.34386 0.0
H2628 H 0.86781 0.69401 0.30267 0.0
H2629 H 0.86181 0.67607 0.34149 0.0
H2630 H 0.8963 0.68939 0.39001 0.0
H2631 H 0.90241 0.70754 0.35164 0.0
H2632 H 0.86978 0.66029 0.33689 0.0
H2633 H 0.87639 0.6802 0.49981 0.0
H2634 H 0.87622 0.68758 0.4513 0.0
H2635 H 0.88862 0.68636 0.46435 0.0
C2636 C 0.87417 0.69315 0.32142 0.0
C2637 C 0.88558 0.70226 0.32431 0.0
C2638 C 0.87072 0.68287 0.34351 0.0
C2639 C 0.87858 0.68147 0.369 0.0
C2640 C 0.89007 0.69039 0.37103 0.0
H2641 H 0.85553 0.61317 0.48476 0.0
H2642 H 0.8676 0.63135 0.44675 0.0
C2643 C 0.89354 0.70072 0.34894 0.0
C2644 C 0.87452 0.67075 0.39421 0.0
H2645 H 0.86877 0.66017 0.49698 0.0
C2646 C 0.86968 0.66024 0.37191 0.0
C2647 C 0.87434 0.67076 0.43987 0.0
C2648 C 0.87909 0.6818 0.46542 0.0
C2649 C 0.86432 0.64969 0.39402 0.0
C2650 C 0.86396 0.64971 0.43966 0.0
C2651 C 0.86914 0.66022 0.462 0.0
C2652 C 0.85723 0.63895 0.46457 0.0
C2653 C 0.85857 0.63864 0.36836 0.0
C2654 C 0.84763 0.63737 0.48814 0.0
C2655 C 0.84077 0.62707 0.51002 0.0
C2656 C 0.8434 0.61813 0.50885 0.0
C2657 C 0.85322 0.61985 0.4861 0.0
C2658 C 0.8601 0.63021 0.46422 0.0
H2659 H 0.85783 0.6402 0.33358 0.0
H2660 H 0.86372 0.63426 0.37111 0.0
H2661 H 0.84984 0.63273 0.38117 0.0
H2662 H 0.84528 0.64403 0.48885 0.0
H2663 H 0.83331 0.62607 0.52731 0.0
H2664 H 0.8161 0.69303 0.80651 0.0
H2665 H 0.80355 0.67531 0.84535 0.0
H2666 H 0.78346 0.69012 0.89213 0.0
H2667 H 0.79612 0.70804 0.85371 0.0
H2668 H 0.78981 0.68036 0.95656 0.0
H2669 H 0.77088 0.64983 0.82055 0.0
H2670 H 0.78628 0.65793 0.81728 0.0
H2671 H 0.77812 0.66526 0.81323 0.0
C2672 C 0.80894 0.69251 0.82462 0.0
C2673 C 0.80712 0.70197 0.82698 0.0
C2674 C 0.80171 0.68232 0.84655 0.0
C2675 C 0.79246 0.68133 0.871 0.0
C2676 C 0.79051 0.69069 0.87311 0.0
H2677 H 0.74887 0.61367 0.99083 0.0
H2678 H 0.75419 0.63167 0.95268 0.0
C2679 C 0.79775 0.70091 0.85113 0.0
C2680 C 0.78544 0.67082 0.8969 0.0
H2681 H 0.77071 0.6415 0.88995 0.0
C2682 C 0.78544 0.67186 0.94198 0.0
C2683 C 0.77957 0.65975 0.87784 0.0
C2684 C 0.7786 0.65812 0.82953 0.0
C2685 C 0.78037 0.6621 0.96863 0.0
C2686 C 0.77537 0.65104 0.94964 0.0
C2687 C 0.77469 0.64999 0.9045 0.0
C2688 C 0.77176 0.64053 0.97576 0.0
C2689 C 0.78064 0.66373 0.01689 0.0
C2690 C 0.77988 0.63957 0.00133 0.0
C2691 C 0.77689 0.62934 0.0231 0.0
C2692 C 0.76573 0.6198 0.01946 0.0
C2693 C 0.75754 0.62085 0.99441 0.0
C2694 C 0.76055 0.63112 0.97257 0.0
H2695 H 0.78107 0.67201 0.02529 0.0
H2696 H 0.77295 0.65658 0.03258 0.0
H2697 H 0.78843 0.66396 0.0303 0.0
H2698 H 0.78865 0.64662 0.00341 0.0
H2699 H 0.78343 0.62883 0.04195 0.0
H2700 H 0.3733 0.14154 0.99215 0.0
H2701 H 0.35546 0.13117 0.95105 0.0
H2702 H 0.33777 0.14 0.04676 0.0
H2703 H 0.35571 0.15077 0.08736 0.0
H2704 H 0.33458 0.11321 0.96775 0.0
H2705 H 0.3311 0.15225 0.93866 0.0
H2706 H 0.34377 0.15294 0.96177 0.0
H2707 H 0.33134 0.14913 -0.00516 0.0
C2708 C 0.36561 0.14124 0.00461 0.0
C2709 C 0.36595 0.1471 0.04276 0.0
C2710 C 0.35541 0.13529 0.98108 0.0
C2711 C 0.34534 0.13501 -0.00465 0.0
C2712 C 0.34552 0.14038 0.03452 0.0
H2713 H 0.27774 0.09099 0.87824 0.0
H2714 H 0.29449 0.09883 0.92609 0.0
C2715 C 0.35576 0.14648 0.0578 0.0
C2716 C 0.33481 0.1294 0.9684 0.0
H2717 H 0.31555 0.13454 0.91497 0.0
C2718 C 0.33041 0.11785 0.95617 0.0
C2719 C 0.32949 0.13555 0.9528 0.0
C2720 C 0.33422 0.14818 0.96229 0.0
C2721 C 0.32085 0.11229 0.92864 0.0
C2722 C 0.31536 0.11836 0.91396 0.0
C2723 C 0.31973 0.12987 0.92645 0.0
C2724 C 0.30534 0.11315 0.88432 0.0
C2725 C 0.31697 0.10011 0.9145 0.0
C2726 C 0.30579 0.11869 0.8453 0.0
C2727 C 0.29618 0.11437 0.81839 0.0
C2728 C 0.28593 0.10436 0.82977 0.0
C2729 C 0.28555 0.09866 0.86839 0.0
C2730 C 0.29514 0.10309 0.89567 0.0
H2731 H 0.32393 0.09795 0.91833 0.0
H2732 H 0.30961 0.09404 0.93478 0.0
H2733 H 0.31416 0.09873 0.88025 0.0
H2734 H 0.31356 0.12646 0.83587 0.0
H2735 H 0.29676 0.11894 0.78878 0.0
H2736 H 0.89513 0.1812 0.86741 0.0
H2737 H 0.88768 0.19111 0.91193 0.0
H2738 H 0.8596 0.18122 0.82254 0.0
H2739 H 0.86675 0.17096 0.7787 0.0
H2740 H 0.8836 0.20856 0.89808 0.0
H2741 H 0.84257 0.16879 0.93415 0.0
H2742 H 0.85446 0.16852 0.90819 0.0
H2743 H 0.84486 0.17151 0.87732 0.0
C2744 C 0.88739 0.18118 0.85713 0.0
C2745 C 0.88144 0.17517 0.81983 0.0
C2746 C 0.88315 0.18685 0.88261 0.0
C2747 C 0.87293 0.18667 0.8711 0.0
C2748 C 0.8673 0.18117 0.83274 0.0
H2749 H 0.84741 0.22983 0.97653 0.0
H2750 H 0.85722 0.22191 0.93409 0.0
C2751 C 0.87144 0.17537 0.80757 0.0
C2752 C 0.86806 0.19206 0.89962 0.0
H2753 H 0.84373 0.18648 0.95426 0.0
C2754 C 0.8749 0.20373 0.91059 0.0
C2755 C 0.85679 0.18568 0.91663 0.0
C2756 C 0.84929 0.17291 0.90887 0.0
C2757 C 0.8707 0.20926 0.93745 0.0
C2758 C 0.85924 0.20302 0.95272 0.0
C2759 C 0.85248 0.1913 0.94226 0.0
C2760 C 0.854 0.20836 0.97965 0.0
C2761 C 0.87868 0.22166 0.94983 0.0
C2762 C 0.84873 0.20326 0.019 0.0
C2763 C 0.8429 0.20761 0.04282 0.0
C2764 C 0.84231 0.21721 0.02795 0.0
C2765 C 0.84782 0.22249 0.98907 0.0
C2766 C 0.85351 0.21802 0.9649 0.0
H2767 H 0.88784 0.22395 0.94736 0.0
H2768 H 0.87733 0.22735 0.92745 0.0
H2769 H 0.877 0.22343 0.98327 0.0
H2770 H 0.84897 0.19578 0.031 0.0
H2771 H 0.83876 0.20337 0.07272 0.0
H2772 H 0.70678 0.80555 0.64144 0.0
H2773 H 0.68808 0.79477 0.6062 0.0
H2774 H 0.67313 0.80663 0.7025 0.0
H2775 H 0.69195 0.81784 0.73702 0.0
H2776 H 0.66728 0.77785 0.62922 0.0
H2777 H 0.66511 0.81735 0.59379 0.0
H2778 H 0.6779 0.81787 0.61477 0.0
H2779 H 0.6662 0.81517 0.65033 0.0
C2780 C 0.6995 0.80581 0.65534 0.0
C2781 C 0.70088 0.81268 0.69169 0.0
C2782 C 0.68881 0.79963 0.63516 0.0
C2783 C 0.67926 0.8001 0.65112 0.0
C2784 C 0.68045 0.80641 0.68888 0.0
H2785 H 0.60945 0.75636 0.54987 0.0
H2786 H 0.62683 0.76419 0.59443 0.0
C2787 C 0.6912 0.81276 0.70871 0.0
C2788 C 0.66823 0.79438 0.62704 0.0
H2789 H 0.64879 0.79961 0.57563 0.0
C2790 C 0.66321 0.78259 0.61748 0.0
C2791 C 0.66305 0.80063 0.61118 0.0
C2792 C 0.66839 0.81347 0.61762 0.0
C2793 C 0.6532 0.77689 0.59226 0.0
C2794 C 0.64788 0.7831 0.57729 0.0
C2795 C 0.65284 0.79485 0.58729 0.0
C2796 C 0.63745 0.77781 0.54964 0.0
C2797 C 0.64868 0.76442 0.58069 0.0
C2798 C 0.63757 0.78294 0.50999 0.0
C2799 C 0.62761 0.77866 0.48505 0.0
C2800 C 0.61734 0.76906 0.49898 0.0
C2801 C 0.61728 0.7637 0.53811 0.0
C2802 C 0.62722 0.76813 0.56349 0.0
H2803 H 0.65543 0.76196 0.58396 0.0
H2804 H 0.64154 0.75889 0.6029 0.0
H2805 H 0.64533 0.76259 0.54711 0.0
H2806 H 0.64536 0.79041 0.49859 0.0
H2807 H 0.62795 0.78294 0.45495 0.0
H2808 H 0.16954 0.8718 0.71191 0.0
H2809 H 0.17973 0.8646 0.66794 0.0
H2810 H 0.18889 0.89227 0.57706 0.0
H2811 H 0.17909 0.89977 0.62183 0.0
H2812 H 0.17475 0.85654 0.58912 0.0
H2813 H 0.21922 0.89356 0.5899 0.0
H2814 H 0.20825 0.89267 0.62599 0.0
H2815 H 0.20893 0.89742 0.57114 0.0
C2816 C 0.17386 0.87644 0.68286 0.0
C2817 C 0.17353 0.88636 0.67036 0.0
C2818 C 0.17968 0.87232 0.65775 0.0
C2819 C 0.1852 0.87797 0.61944 0.0
C2820 C 0.18497 0.88794 0.60704 0.0
H2821 H 0.1991 0.84199 0.41486 0.0
H2822 H 0.19186 0.85237 0.45762 0.0
C2823 C 0.1793 0.89218 0.63254 0.0
C2824 C 0.19046 0.8729 0.59114 0.0
H2825 H 0.21516 0.8787 0.5386 0.0
C2826 C 0.18361 0.86138 0.57828 0.0
C2827 C 0.20205 0.87918 0.57734 0.0
C2828 C 0.21007 0.89135 0.59216 0.0
C2829 C 0.18799 0.85595 0.55196 0.0
C2830 C 0.19944 0.86236 0.53672 0.0
C2831 C 0.20634 0.87386 0.54979 0.0
C2832 C 0.20451 0.8571 0.5085 0.0
C2833 C 0.18038 0.84332 0.54181 0.0
C2834 C 0.21441 0.85687 0.5217 0.0
C2835 C 0.21871 0.85114 0.49689 0.0
C2836 C 0.21312 0.84547 0.45858 0.0
C2837 C 0.20349 0.84613 0.44454 0.0
C2838 C 0.1993 0.852 0.46906 0.0
H2839 H 0.1733 0.83901 0.56565 0.0
H2840 H 0.17642 0.84241 0.50953 0.0
H2841 H 0.18539 0.83876 0.54141 0.0
H2842 H 0.2186 0.86082 0.55189 0.0
H2843 H 0.22615 0.85081 0.50856 0.0
H2844 H 0.12815 0.37526 0.50309 0.0
H2845 H 0.11564 0.35734 0.54191 0.0
H2846 H 0.13833 0.34436 0.50872 0.0
H2847 H 0.15075 0.36205 0.46953 0.0
H2848 H 0.11492 0.3282 0.49806 0.0
H2849 H 0.12423 0.34928 0.65951 0.0
H2850 H 0.11876 0.35492 0.61903 0.0
H2851 H 0.13274 0.35642 0.61243 0.0
C2852 C 0.13044 0.36856 0.50384 0.0
C2853 C 0.1405 0.37013 0.48345 0.0
C2854 C 0.1233 0.35836 0.52619 0.0
C2855 C 0.12615 0.34961 0.52861 0.0
C2856 C 0.136 0.35103 0.50728 0.0
H2857 H 0.11505 0.29582 0.69765 0.0
H2858 H 0.12096 0.31363 0.65796 0.0
C2859 C 0.1431 0.36117 0.48497 0.0
C2860 C 0.11917 0.33903 0.55419 0.0
H2861 H 0.11262 0.32915 0.65772 0.0
C2862 C 0.11425 0.32837 0.53292 0.0
C2863 C 0.11843 0.33935 0.59967 0.0
C2864 C 0.12387 0.35058 0.62424 0.0
C2865 C 0.10898 0.31799 0.55605 0.0
C2866 C 0.10845 0.31831 0.60161 0.0
C2867 C 0.11299 0.32896 0.62276 0.0
C2868 C 0.10436 0.30778 0.62803 0.0
C2869 C 0.10458 0.3068 0.53173 0.0
C2870 C 0.09299 0.29867 0.62509 0.0
C2871 C 0.08957 0.28842 0.64764 0.0
C2872 C 0.09748 0.28714 0.67367 0.0
C2873 C 0.10874 0.29648 0.67778 0.0
C2874 C 0.11214 0.30668 0.6552 0.0
H2875 H 0.10755 0.3082 0.49764 0.0
H2876 H 0.10743 0.30121 0.54758 0.0
H2877 H 0.09503 0.30213 0.53167 0.0
H2878 H 0.08681 0.29943 0.60485 0.0
H2879 H 0.08081 0.28143 0.644 0.0
H2880 H 0.04221 0.56777 0.79739 0.0
H2881 H 0.02476 0.56133 0.75416 0.0
H2882 H 0.01152 0.52673 0.80167 0.0
H2883 H 0.02879 0.53306 0.84531 0.0
H2884 H 0.01586 0.5447 0.6894 0.0
H2885 H 0.98509 0.53293 0.825 0.0
H2886 H 0.00046 0.54167 0.83223 0.0
H2887 H -0.0062 0.52624 0.82866 0.0
C2888 C 0.03556 0.5588 0.79883 0.0
C2889 C 0.03687 0.55094 0.82505 0.0
C2890 C 0.02561 0.55514 0.77407 0.0
C2891 C 0.01678 0.5436 0.77532 0.0
C2892 C 0.01812 0.53573 0.80102 0.0
H2893 H 0.96277 0.50179 0.59982 0.0
H2894 H 0.98087 0.51288 0.63873 0.0
C2895 C 0.02804 0.53936 0.82577 0.0
C2896 C 0.00627 0.53964 0.74888 0.0
H2897 H 0.97699 0.5255 0.75546 0.0
C2898 C 0.00736 0.54062 0.7038 0.0
C2899 C -0.00479 0.53451 0.76779 0.0
C2900 C -0.00645 0.53387 0.8161 0.0
C2901 C -0.00238 0.53612 0.677 0.0
C2902 C 0.98655 0.53034 0.69588 0.0
C2903 C 0.98549 0.52983 0.74101 0.0
C2904 C 0.97593 0.52428 0.66961 0.0
C2905 C -0.0007 0.53757 0.62878 0.0
C2906 C 0.96708 0.5269 0.67447 0.0
C2907 C 0.95666 0.52049 0.65259 0.0
C2908 C 0.95488 0.51129 0.62558 0.0
C2909 C 0.96386 0.50884 0.62015 0.0
C2910 C 0.97426 0.51524 0.64215 0.0
H2911 H 0.00779 0.5451 0.62052 0.0
H2912 H -0.00102 0.52978 0.61492 0.0
H2913 H -0.00756 0.5387 0.61336 0.0
H2914 H 0.96818 0.5338 0.69573 0.0
H2915 H 0.94993 0.52261 0.65751 0.0
H2916 H 0.42371 0.46991 0.82 0.0
H2917 H 0.4316 0.45897 0.78564 0.0
H2918 H 0.45516 0.46689 0.89209 0.0
H2919 H 0.44762 0.47829 0.92578 0.0
H2920 H 0.4663 0.47166 0.82028 0.0
H2921 H 0.42857 0.42817 0.80277 0.0
H2922 H 0.4257 0.43872 0.77938 0.0
H2923 H 0.42833 0.43903 0.83659 0.0
C2924 C 0.43042 0.46914 0.83653 0.0
C2925 C 0.43507 0.475 0.87553 0.0
C2926 C 0.43487 0.46279 0.81698 0.0
C2927 C 0.44387 0.46194 0.83655 0.0
C2928 C 0.4482 0.4674 0.87642 0.0
H2929 H 0.47153 0.42166 0.71329 0.0
H2930 H 0.46172 0.42806 0.76356 0.0
C2931 C 0.44388 0.47391 0.89564 0.0
C2932 C 0.4496 0.4565 0.81312 0.0
H2933 H 0.44447 0.43286 0.75412 0.0
C2934 C 0.46153 0.46309 0.80645 0.0
C2935 C 0.44346 0.44526 0.79555 0.0
C2936 C 0.43083 0.43735 0.80439 0.0
C2937 C 0.46738 0.45897 0.7812 0.0
C2938 C 0.46108 0.44812 0.76078 0.0
C2939 C 0.44925 0.44128 0.76908 0.0
C2940 C 0.46657 0.44396 0.72959 0.0
C2941 C 0.48027 0.46632 0.77671 0.0
C2942 C 0.47227 0.45062 0.69323 0.0
C2943 C 0.47796 0.44706 0.66482 0.0
C2944 C 0.47789 0.43665 0.67171 0.0
C2945 C 0.47176 0.42974 0.70715 0.0
C2946 C 0.46616 0.43338 0.73591 0.0
H2947 H 0.48409 0.4722 0.80476 0.0
H2948 H 0.48442 0.46096 0.77379 0.0
H2949 H 0.48228 0.47173 0.74732 0.0
H2950 H 0.47239 0.45864 0.68698 0.0
H2951 H 0.48245 0.45251 0.63751 0.0
H2952 H 0.52243 0.94948 0.81445 0.0
H2953 H 0.53624 0.96752 0.77915 0.0
H2954 H 0.51632 0.98308 0.81983 0.0
H2955 H 0.50263 0.96526 0.85546 0.0
H2956 H 0.53127 0.97778 0.71262 0.0
H2957 H 0.54879 0.00799 0.84984 0.0
H2958 H 0.54121 0.99255 0.85695 0.0
H2959 H 0.53337 0.00016 0.85089 0.0
C2960 C 0.5211 0.9568 0.81649 0.0
C2961 C 0.51141 0.95591 0.83775 0.0
C2962 C 0.529 0.9671 0.79631 0.0
C2963 C 0.52741 0.97669 0.79747 0.0
C2964 C 0.51788 0.97588 0.81944 0.0
H2965 H 0.53635 0.02844 0.62691 0.0
H2966 H 0.53171 0.01081 0.66551 0.0
C2967 C 0.51 0.96563 0.8395 0.0
C2968 C 0.53494 0.98721 0.77239 0.0
H2969 H 0.5493 0.01652 0.78002 0.0
C2970 C 0.53545 0.98624 0.72743 0.0
C2971 C 0.54058 -0.00176 0.79175 0.0
C2972 C 0.54107 -0.00021 0.84008 0.0
C2973 C 0.54064 -0.00395 0.70106 0.0
C2974 C 0.54526 0.00707 0.72018 0.0
C2975 C 0.54559 0.00805 0.76533 0.0
C2976 C 0.5486 0.01753 0.69406 0.0
C2977 C 0.54082 0.99451 0.65288 0.0
C2978 C 0.5596 0.02724 0.69778 0.0
C2979 C 0.56228 0.03741 0.67587 0.0
C2980 C 0.55395 0.03807 0.65028 0.0
C2981 C 0.54299 0.02825 0.64621 0.0
C2982 C 0.54035 0.01811 0.66799 0.0
H2983 H 0.54077 0.9864 0.64489 0.0
H2984 H 0.533 0.99399 0.63842 0.0
H2985 H 0.54849 0.00185 0.63785 0.0
H2986 H 0.56605 0.02698 0.71811 0.0
H2987 H 0.57079 0.04483 0.67979 0.0
H2988 H 0.47944 0.02686 0.12902 0.0
H2989 H 0.46668 0.00902 0.16684 0.0
H2990 H 0.44729 0.02423 0.21705 0.0
H2991 H 0.46013 0.04226 0.1795 0.0
H2992 H 0.45374 0.01378 0.27987 0.0
H2993 H 0.43351 0.9843 0.14171 0.0
H2994 H 0.4489 0.99223 0.13734 0.0
H2995 H 0.44093 -0.00021 0.13606 0.0
C2996 C 0.4724 0.02641 0.14769 0.0
C2997 C 0.47082 0.036 0.15122 0.0
C2998 C 0.46505 0.01616 0.16903 0.0
C2999 C 0.45593 0.01525 0.19414 0.0
C3000 C 0.45423 0.02474 0.19748 0.0
H3001 H 0.41208 0.94708 0.31013 0.0
H3002 H 0.41735 0.9654 0.27455 0.0
C3003 C 0.46157 0.03503 0.176 0.0
C3004 C 0.44881 0.00464 0.21934 0.0
H3005 H 0.43347 0.97539 0.20962 0.0
C3006 C 0.4491 0.00539 0.26455 0.0
C3007 C 0.4426 0.99373 0.19931 0.0
C3008 C 0.44135 0.99246 0.15091 0.0
C3009 C 0.44403 -0.00455 0.29026 0.0
C3010 C 0.4387 0.98452 0.27013 0.0
C3011 C 0.43769 0.98379 0.225 0.0
C3012 C 0.43515 0.97381 0.29486 0.0
C3013 C 0.44468 -0.00326 0.33872 0.0
C3014 C 0.44342 0.97249 0.31796 0.0
C3015 C 0.44047 0.96207 0.33816 0.0
C3016 C 0.42918 0.95272 0.33545 0.0
C3017 C 0.42084 0.95412 0.31293 0.0
C3018 C 0.42382 0.96457 0.29258 0.0
H3019 H 0.44541 0.00506 0.34869 0.0
H3020 H 0.43701 0.98959 0.35451 0.0
H3021 H 0.45245 -0.00335 0.35057 0.0
H3022 H 0.45227 0.97942 0.31926 0.0
H3023 H 0.44711 0.9613 0.35513 0.0
H3024 H 0.02032 0.48015 0.41668 0.0
H3025 H 0.00205 0.46893 0.37861 0.0
H3026 H 0.01908 0.45959 0.28176 0.0
H3027 H 0.03725 0.47042 0.32043 0.0
H3028 H -0.00293 0.47303 0.30155 0.0
H3029 H 0.99094 0.42905 0.30101 0.0
H3030 H 0.00147 0.44035 0.33492 0.0
H3031 H 0.00469 0.43925 0.27922 0.0
C3032 C 0.02013 0.47555 0.38765 0.0
C3033 C 0.03023 0.47617 0.37157 0.0
C3034 C 0.00968 0.46913 0.36595 0.0
C3035 C 0.00914 0.46327 0.32764 0.0
C3036 C 0.01919 0.46375 0.31189 0.0
H3037 H 0.9617 0.44988 0.11962 0.0
H3038 H 0.97815 0.45685 0.16832 0.0
C3039 C 0.02961 0.47003 0.33389 0.0
C3040 C -0.00164 0.45761 0.30202 0.0
H3041 H 0.98007 0.43289 0.24813 0.0
C3042 C -0.00672 0.4642 0.29036 0.0
C3043 C -0.00669 0.44604 0.28785 0.0
C3044 C -0.00218 0.43823 0.30181 0.0
C3045 C 0.98353 0.45968 0.26382 0.0
C3046 C 0.97894 0.44838 0.24728 0.0
C3047 C 0.98374 0.44163 0.26018 0.0
C3048 C 0.96925 0.44353 0.21621 0.0
C3049 C 0.9782 0.46706 0.25404 0.0
C3050 C 0.95899 0.43337 0.22588 0.0
C3051 C 0.94961 0.42924 0.19769 0.0
C3052 C 0.95034 0.43524 0.15945 0.0
C3053 C 0.9608 0.44515 0.14909 0.0
C3054 C 0.97019 0.44919 0.17701 0.0
H3055 H 0.98039 0.47375 0.27922 0.0
H3056 H 0.98159 0.47154 0.2228 0.0
H3057 H 0.96869 0.46178 0.25161 0.0
H3058 H 0.95813 0.42882 0.25581 0.0
H3059 H 0.94168 0.42157 0.20656 0.0
H3060 H 0.53238 0.50289 0.08019 0.0
H3061 H 0.52597 0.51482 0.11693 0.0
H3062 H 0.55992 0.53577 0.17046 0.0
H3063 H 0.56637 0.52374 0.13453 0.0
H3064 H 0.54362 0.52827 0.23157 0.0
H3065 H 0.53095 0.54682 0.09721 0.0
H3066 H 0.52431 0.53146 0.09291 0.0
H3067 H 0.53972 0.54022 0.08916 0.0
C3068 C 0.53855 0.51016 0.09914 0.0
C3069 C 0.54988 0.51232 0.10458 0.0
C3070 C 0.53489 0.51703 0.11988 0.0
C3071 C 0.54251 0.52629 0.14596 0.0
C3072 C 0.55392 0.52871 0.15028 0.0
H3073 H 0.51885 0.56903 0.27766 0.0
H3074 H 0.53026 0.56332 0.23286 0.0
C3075 C 0.55758 0.52181 0.12974 0.0
C3076 C 0.53822 0.5326 0.1723 0.0
H3077 H 0.52273 0.54651 0.16694 0.0
C3078 C 0.53922 0.53243 0.21737 0.0
C3079 C 0.53262 0.53816 0.15379 0.0
C3080 C 0.53194 0.53929 0.10558 0.0
C3081 C 0.53425 0.53713 0.24448 0.0
C3082 C 0.52793 0.54193 0.22604 0.0
C3083 C 0.52746 0.54268 0.18098 0.0
C3084 C 0.52116 0.54549 0.25307 0.0
C3085 C 0.53567 0.53675 0.29269 0.0
C3086 C 0.51218 0.53731 0.27867 0.0
C3087 C 0.50567 0.54052 0.30421 0.0
C3088 C 0.50796 0.55197 0.30448 0.0
C3089 C 0.5169 0.56015 0.27835 0.0
C3090 C 0.52341 0.55691 0.25271 0.0
H3091 H 0.54341 0.53613 0.3009 0.0
H3092 H 0.53637 0.54451 0.30862 0.0
H3093 H 0.52805 0.52904 0.30609 0.0
H3094 H 0.51015 0.5284 0.27868 0.0
H3095 H 0.49882 0.53397 0.32365 0.0
loop_
_geom_bond_atom_site_label_1
_geom_bond_atom_site_label_2
_geom_bond_distance
_geom_bond_site_symmetry_2
_ccdc_geom_bond_type
C0 O1 1.306 . S
C0 O3 1.160 . S
O1 C0 1.306 . S
O1 Cd2 2.228 . S
Cd2 O1 2.228 . S
Cd2 O6 2.273 . S
Cd2 O10 2.277 . S
O3 C0 1.160 . S
O3 Cd4 2.203 . S
Cd4 O3 2.203 . S
Cd4 O6 2.411 . S
Cd4 O7 2.333 . S
Cd4 O8 2.352 . S
Cd4 O12 2.277 . S
Cd4 O13 2.356 . S
C5 O10 1.209 . S
C5 O12 1.226 . S
O6 Cd2 2.273 . S
O6 Cd4 2.411 . S
O6 C9 1.320 . S
O7 Cd4 2.333 . S
O7 C9 1.214 . S
O8 Cd4 2.352 . S
O8 C11 1.258 . S
C9 O6 1.320 . S
C9 O7 1.214 . S
O10 Cd2 2.277 . S
O10 C5 1.209 . S
C11 O8 1.258 . S
C11 O13 1.282 . S
O12 Cd4 2.277 . S
O12 C5 1.226 . S
O13 Cd4 2.356 . S
O13 C11 1.282 . S
C14 O15 1.306 . S
C14 O17 1.160 . S
O15 C14 1.306 . S
O15 Cd16 2.228 . S
Cd16 O15 2.228 . S
Cd16 O20 2.273 . S
Cd16 O24 2.277 . S
O17 C14 1.160 . S
O17 Cd18 2.203 . S
Cd18 O17 2.203 . S
Cd18 O20 2.411 . S
Cd18 O21 2.333 . S
Cd18 O22 2.352 . S
Cd18 O26 2.277 . S
Cd18 O27 2.356 . S
C19 O24 1.209 . S
C19 O26 1.226 . S
O20 Cd16 2.273 . S
O20 Cd18 2.411 . S
O20 C23 1.320 . S
O21 Cd18 2.333 . S
O21 C23 1.214 . S
O22 Cd18 2.352 . S
O22 C25 1.258 . S
C23 O20 1.320 . S
C23 O21 1.214 . S
O24 Cd16 2.277 . S
O24 C19 1.209 . S
C25 O22 1.258 . S
C25 O27 1.282 . S
O26 Cd18 2.277 . S
O26 C19 1.226 . S
O27 Cd18 2.356 . S
O27 C25 1.282 . S
C28 O29 1.306 . S
C28 O31 1.160 . S
O29 C28 1.306 . S
O29 Cd30 2.228 . S
Cd30 O29 2.228 . S
Cd30 O34 2.273 . S
Cd30 O38 2.277 . S
O31 C28 1.160 . S
O31 Cd32 2.203 . S
Cd32 O31 2.203 . S
Cd32 O34 2.411 . S
Cd32 O35 2.333 . S
Cd32 O36 2.352 . S
Cd32 O40 2.277 . S
Cd32 O41 2.356 . S
C33 O38 1.209 . S
C33 O40 1.226 . S
O34 Cd30 2.273 . S
O34 Cd32 2.411 . S
O34 C37 1.320 . S
O35 Cd32 2.333 . S
O35 C37 1.214 . S
O36 Cd32 2.352 . S
O36 C39 1.258 . S
C37 O34 1.320 . S
C37 O35 1.214 . S
O38 Cd30 2.277 . S
O38 C33 1.209 . S
C39 O36 1.258 . S
C39 O41 1.282 . S
O40 Cd32 2.277 . S
O40 C33 1.226 . S
O41 Cd32 2.356 . S
O41 C39 1.282 . S
C42 O43 1.306 . S
C42 O45 1.160 . S
O43 C42 1.306 . S
O43 Cd44 2.228 . S
Cd44 O43 2.228 . S
Cd44 O48 2.273 . S
Cd44 O52 2.277 . S
O45 C42 1.160 . S
O45 Cd46 2.203 . S
Cd46 O45 2.203 . S
Cd46 O48 2.411 . S
Cd46 O49 2.333 . S
Cd46 O50 2.352 . S
Cd46 O54 2.277 . S
Cd46 O55 2.356 . S
C47 O52 1.209 . S
C47 O54 1.226 . S
O48 Cd44 2.273 . S
O48 Cd46 2.411 . S
O48 C51 1.320 . S
O49 Cd46 2.333 . S
O49 C51 1.214 . S
O50 Cd46 2.352 . S
O50 C53 1.258 . S
C51 O48 1.320 . S
C51 O49 1.214 . S
O52 Cd44 2.277 . S
O52 C47 1.209 . S
C53 O50 1.258 . S
C53 O55 1.282 . S
O54 Cd46 2.277 . S
O54 C47 1.226 . S
O55 Cd46 2.356 . S
O55 C53 1.282 . S
C56 O57 1.306 . S
C56 O59 1.160 . S
O57 C56 1.306 . S
O57 Cd58 2.228 . S
Cd58 O57 2.228 . S
Cd58 O62 2.273 . S
Cd58 O66 2.277 . S
O59 C56 1.160 . S
O59 Cd60 2.203 . S
Cd60 O59 2.203 . S
Cd60 O62 2.411 . S
Cd60 O63 2.333 . S
Cd60 O64 2.352 . S
Cd60 O68 2.277 . S
Cd60 O69 2.356 . S
C61 O66 1.209 . S
C61 O68 1.226 . S
O62 Cd58 2.273 . S
O62 Cd60 2.411 . S
O62 C65 1.320 . S
O63 Cd60 2.333 . S
O63 C65 1.214 . S
O64 Cd60 2.352 . S
O64 C67 1.258 . S
C65 O62 1.320 . S
C65 O63 1.214 . S
O66 Cd58 2.277 . S
O66 C61 1.209 . S
C67 O64 1.258 . S
C67 O69 1.282 . S
O68 Cd60 2.277 . S
O68 C61 1.226 . S
O69 Cd60 2.356 . S
O69 C67 1.282 . S
C70 O71 1.306 . S
C70 O73 1.160 . S
O71 C70 1.306 . S
O71 Cd72 2.228 . S
Cd72 O71 2.228 . S
Cd72 O76 2.273 . S
Cd72 O80 2.277 . S
O73 C70 1.160 . S
O73 Cd74 2.203 . S
Cd74 O73 2.203 . S
Cd74 O76 2.411 . S
Cd74 O77 2.333 . S
Cd74 O78 2.352 . S
Cd74 O82 2.277 . S
Cd74 O83 2.356 . S
C75 O80 1.209 . S
C75 O82 1.226 . S
O76 Cd72 2.273 . S
O76 Cd74 2.411 . S
O76 C79 1.320 . S
O77 Cd74 2.333 . S
O77 C79 1.214 . S
O78 Cd74 2.352 . S
O78 C81 1.258 . S
C79 O76 1.320 . S
C79 O77 1.214 . S
O80 Cd72 2.277 . S
O80 C75 1.209 . S
C81 O78 1.258 . S
C81 O83 1.282 . S
O82 Cd74 2.277 . S
O82 C75 1.226 . S
O83 Cd74 2.356 . S
O83 C81 1.282 . S
C84 O85 1.306 . S
C84 O87 1.160 . S
O85 C84 1.306 . S
O85 Cd86 2.228 . S
Cd86 O85 2.228 . S
Cd86 O90 2.273 . S
Cd86 O94 2.277 . S
O87 C84 1.160 . S
O87 Cd88 2.203 . S
Cd88 O87 2.203 . S
Cd88 O90 2.411 . S
Cd88 O91 2.333 . S
Cd88 O92 2.352 . S
Cd88 O96 2.277 . S
Cd88 O97 2.356 . S
C89 O94 1.209 . S
C89 O96 1.226 . S
O90 Cd86 2.273 . S
O90 Cd88 2.411 . S
O90 C93 1.320 . S
O91 Cd88 2.333 . S
O91 C93 1.214 . S
O92 Cd88 2.352 . S
O92 C95 1.258 . S
C93 O90 1.320 . S
C93 O91 1.214 . S
O94 Cd86 2.277 . S
O94 C89 1.209 . S
C95 O92 1.258 . S
C95 O97 1.282 . S
O96 Cd88 2.277 . S
O96 C89 1.226 . S
O97 Cd88 2.356 . S
O97 C95 1.282 . S
C98 O99 1.306 . S
C98 O101 1.160 . S
O99 C98 1.306 . S
O99 Cd100 2.228 . S
Cd100 O99 2.228 . S
Cd100 O104 2.273 . S
Cd100 O108 2.277 . S
O101 C98 1.160 . S
O101 Cd102 2.203 . S
Cd102 O101 2.203 . S
Cd102 O104 2.411 . S
Cd102 O105 2.333 . S
Cd102 O106 2.352 . S
Cd102 O110 2.277 . S
Cd102 O111 2.356 . S
C103 O108 1.209 . S
C103 O110 1.226 . S
O104 Cd100 2.273 . S
O104 Cd102 2.411 . S
O104 C107 1.320 . S
O105 Cd102 2.333 . S
O105 C107 1.214 . S
O106 Cd102 2.352 . S
O106 C109 1.258 . S
C107 O104 1.320 . S
C107 O105 1.214 . S
O108 Cd100 2.277 . S
O108 C103 1.209 . S
C109 O106 1.258 . S
C109 O111 1.282 . S
O110 Cd102 2.277 . S
O110 C103 1.226 . S
O111 Cd102 2.356 . S
O111 C109 1.282 . S
C112 O113 1.306 . S
C112 O115 1.160 . S
O113 C112 1.306 . S
O113 Cd114 2.228 . S
Cd114 O113 2.228 . S
Cd114 O118 2.273 . S
Cd114 O122 2.277 . S
O115 C112 1.160 . S
O115 Cd116 2.203 . S
Cd116 O115 2.203 . S
Cd116 O118 2.411 . S
Cd116 O119 2.333 . S
Cd116 O120 2.352 . S
Cd116 O124 2.277 . S
Cd116 O125 2.356 . S
C117 O122 1.209 . S
C117 O124 1.226 . S
O118 Cd114 2.273 . S
O118 Cd116 2.411 . S
O118 C121 1.320 . S
O119 Cd116 2.333 . S
O119 C121 1.214 . S
O120 Cd116 2.352 . S
O120 C123 1.258 . S
C121 O118 1.320 . S
C121 O119 1.214 . S
O122 Cd114 2.277 . S
O122 C117 1.209 . S
C123 O120 1.258 . S
C123 O125 1.282 . S
O124 Cd116 2.277 . S
O124 C117 1.226 . S
O125 Cd116 2.356 . S
O125 C123 1.282 . S
C126 O127 1.306 . S
C126 O129 1.160 . S
O127 C126 1.306 . S
O127 Cd128 2.228 . S
Cd128 O127 2.228 . S
Cd128 O132 2.273 . S
Cd128 O136 2.277 . S
O129 C126 1.160 . S
O129 Cd130 2.203 . S
Cd130 O129 2.203 . S
Cd130 O132 2.411 . S
Cd130 O133 2.333 . S
Cd130 O134 2.352 . S
Cd130 O138 2.277 . S
Cd130 O139 2.356 . S
C131 O136 1.209 . S
C131 O138 1.226 . S
O132 Cd128 2.273 . S
O132 Cd130 2.411 . S
O132 C135 1.320 . S
O133 Cd130 2.333 . S
O133 C135 1.214 . S
O134 Cd130 2.352 . S
O134 C137 1.258 . S
C135 O132 1.320 . S
C135 O133 1.214 . S
O136 Cd128 2.277 . S
O136 C131 1.209 . S
C137 O134 1.258 . S
C137 O139 1.282 . S
O138 Cd130 2.277 . S
O138 C131 1.226 . S
O139 Cd130 2.356 . S
O139 C137 1.282 . S
C140 O141 1.306 . S
C140 O143 1.160 . S
O141 C140 1.306 . S
O141 Cd142 2.228 . S
Cd142 O141 2.228 . S
Cd142 O146 2.273 . S
Cd142 O150 2.277 . S
O143 C140 1.160 . S
O143 Cd144 2.203 . S
Cd144 O143 2.203 . S
Cd144 O146 2.411 . S
Cd144 O147 2.333 . S
Cd144 O148 2.352 . S
Cd144 O152 2.277 . S
Cd144 O153 2.356 . S
C145 O150 1.209 . S
C145 O152 1.226 . S
O146 Cd142 2.273 . S
O146 Cd144 2.411 . S
O146 C149 1.320 . S
O147 Cd144 2.333 . S
O147 C149 1.214 . S
O148 Cd144 2.352 . S
O148 C151 1.258 . S
C149 O146 1.320 . S
C149 O147 1.214 . S
O150 Cd142 2.277 . S
O150 C145 1.209 . S
C151 O148 1.258 . S
C151 O153 1.282 . S
O152 Cd144 2.277 . S
O152 C145 1.226 . S
O153 Cd144 2.356 . S
O153 C151 1.282 . S
C154 O155 1.306 . S
C154 O157 1.160 . S
O155 C154 1.306 . S
O155 Cd156 2.228 . S
Cd156 O155 2.228 . S
Cd156 O160 2.273 . S
Cd156 O164 2.277 . S
O157 C154 1.160 . S
O157 Cd158 2.203 . S
Cd158 O157 2.203 . S
Cd158 O160 2.411 . S
Cd158 O161 2.333 . S
Cd158 O162 2.352 . S
Cd158 O166 2.277 . S
Cd158 O167 2.356 . S
C159 O164 1.209 . S
C159 O166 1.226 . S
O160 Cd156 2.273 . S
O160 Cd158 2.411 . S
O160 C163 1.320 . S
O161 Cd158 2.333 . S
O161 C163 1.214 . S
O162 Cd158 2.352 . S
O162 C165 1.258 . S
C163 O160 1.320 . S
C163 O161 1.214 . S
O164 Cd156 2.277 . S
O164 C159 1.209 . S
C165 O162 1.258 . S
C165 O167 1.282 . S
O166 Cd158 2.277 . S
O166 C159 1.226 . S
O167 Cd158 2.356 . S
O167 C165 1.282 . S
C168 O169 1.306 . S
C168 O171 1.160 . S
O169 C168 1.306 . S
O169 Cd170 2.228 . S
Cd170 O169 2.228 . S
Cd170 O174 2.273 . S
Cd170 O178 2.277 . S
O171 C168 1.160 . S
O171 Cd172 2.203 . S
Cd172 O171 2.203 . S
Cd172 O174 2.411 . S
Cd172 O175 2.333 . S
Cd172 O176 2.352 . S
Cd172 O180 2.277 . S
Cd172 O181 2.356 . S
C173 O178 1.209 . S
C173 O180 1.226 . S
O174 Cd170 2.273 . S
O174 Cd172 2.411 . S
O174 C177 1.320 . S
O175 Cd172 2.333 . S
O175 C177 1.214 . S
O176 Cd172 2.352 . S
O176 C179 1.258 . S
C177 O174 1.320 . S
C177 O175 1.214 . S
O178 Cd170 2.277 . S
O178 C173 1.209 . S
C179 O176 1.258 . S
C179 O181 1.282 . S
O180 Cd172 2.277 . S
O180 C173 1.226 . S
O181 Cd172 2.356 . S
O181 C179 1.282 . S
C182 O183 1.306 . S
C182 O185 1.160 . S
O183 C182 1.306 . S
O183 Cd184 2.228 . S
Cd184 O183 2.228 . S
Cd184 O188 2.273 . S
Cd184 O192 2.277 . S
O185 C182 1.160 . S
O185 Cd186 2.203 . S
Cd186 O185 2.203 . S
Cd186 O188 2.411 . S
Cd186 O189 2.333 . S
Cd186 O190 2.352 . S
Cd186 O194 2.277 . S
Cd186 O195 2.356 . S
C187 O192 1.209 . S
C187 O194 1.226 . S
O188 Cd184 2.273 . S
O188 Cd186 2.411 . S
O188 C191 1.320 . S
O189 Cd186 2.333 . S
O189 C191 1.214 . S
O190 Cd186 2.352 . S
O190 C193 1.258 . S
C191 O188 1.320 . S
C191 O189 1.214 . S
O192 Cd184 2.277 . S
O192 C187 1.209 . S
C193 O190 1.258 . S
C193 O195 1.282 . S
O194 Cd186 2.277 . S
O194 C187 1.226 . S
O195 Cd186 2.356 . S
O195 C193 1.282 . S
C196 O197 1.306 . S
C196 O199 1.160 . S
O197 C196 1.306 . S
O197 Cd198 2.228 . S
Cd198 O197 2.228 . S
Cd198 O202 2.273 . S
Cd198 O206 2.277 . S
O199 C196 1.160 . S
O199 Cd200 2.203 . S
Cd200 O199 2.203 . S
Cd200 O202 2.411 . S
Cd200 O203 2.333 . S
Cd200 O204 2.352 . S
Cd200 O208 2.277 . S
Cd200 O209 2.356 . S
C201 O206 1.209 . S
C201 O208 1.226 . S
O202 Cd198 2.273 . S
O202 Cd200 2.411 . S
O202 C205 1.320 . S
O203 Cd200 2.333 . S
O203 C205 1.214 . S
O204 Cd200 2.352 . S
O204 C207 1.258 . S
C205 O202 1.320 . S
C205 O203 1.214 . S
O206 Cd198 2.277 . S
O206 C201 1.209 . S
C207 O204 1.258 . S
C207 O209 1.282 . S
O208 Cd200 2.277 . S
O208 C201 1.226 . S
O209 Cd200 2.356 . S
O209 C207 1.282 . S
C210 O211 1.306 . S
C210 O213 1.160 . S
O211 C210 1.306 . S
O211 Cd212 2.228 . S
Cd212 O211 2.228 . S
Cd212 O216 2.273 . S
Cd212 O220 2.277 . S
O213 C210 1.160 . S
O213 Cd214 2.203 . S
Cd214 O213 2.203 . S
Cd214 O216 2.411 . S
Cd214 O217 2.333 . S
Cd214 O218 2.352 . S
Cd214 O222 2.277 . S
Cd214 O223 2.356 . S
C215 O220 1.209 . S
C215 O222 1.226 . S
O216 Cd212 2.273 . S
O216 Cd214 2.411 . S
O216 C219 1.320 . S
O217 Cd214 2.333 . S
O217 C219 1.214 . S
O218 Cd214 2.352 . S
O218 C221 1.258 . S
C219 O216 1.320 . S
C219 O217 1.214 . S
O220 Cd212 2.277 . S
O220 C215 1.209 . S
C221 O218 1.258 . S
C221 O223 1.282 . S
O222 Cd214 2.277 . S
O222 C215 1.226 . S
O223 Cd214 2.356 . S
O223 C221 1.282 . S
C224 O225 1.306 . S
C224 O227 1.160 . S
O225 C224 1.306 . S
O225 Cd226 2.228 . S
Cd226 O225 2.228 . S
Cd226 O230 2.273 . S
Cd226 O234 2.277 . S
O227 C224 1.160 . S
O227 Cd228 2.203 . S
Cd228 O227 2.203 . S
Cd228 O230 2.411 . S
Cd228 O231 2.333 . S
Cd228 O232 2.352 . S
Cd228 O236 2.277 . S
Cd228 O237 2.356 . S
C229 O234 1.209 . S
C229 O236 1.226 . S
O230 Cd226 2.273 . S
O230 Cd228 2.411 . S
O230 C233 1.320 . S
O231 Cd228 2.333 . S
O231 C233 1.214 . S
O232 Cd228 2.352 . S
O232 C235 1.258 . S
C233 O230 1.320 . S
C233 O231 1.214 . S
O234 Cd226 2.277 . S
O234 C229 1.209 . S
C235 O232 1.258 . S
C235 O237 1.282 . S
O236 Cd228 2.277 . S
O236 C229 1.226 . S
O237 Cd228 2.356 . S
O237 C235 1.282 . S
C238 O239 1.306 . S
C238 O241 1.160 . S
O239 C238 1.306 . S
O239 Cd240 2.228 . S
Cd240 O239 2.228 . S
Cd240 O244 2.273 . S
Cd240 O248 2.277 . S
O241 C238 1.160 . S
O241 Cd242 2.203 . S
Cd242 O241 2.203 . S
Cd242 O244 2.411 . S
Cd242 O245 2.333 . S
Cd242 O246 2.352 . S
Cd242 O250 2.277 . S
Cd242 O251 2.356 . S
C243 O248 1.209 . S
C243 O250 1.226 . S
O244 Cd240 2.273 . S
O244 Cd242 2.411 . S
O244 C247 1.320 . S
O245 Cd242 2.333 . S
O245 C247 1.214 . S
O246 Cd242 2.352 . S
O246 C249 1.258 . S
C247 O244 1.320 . S
C247 O245 1.214 . S
O248 Cd240 2.277 . S
O248 C243 1.209 . S
C249 O246 1.258 . S
C249 O251 1.282 . S
O250 Cd242 2.277 . S
O250 C243 1.226 . S
O251 Cd242 2.356 . S
O251 C249 1.282 . S
C252 O253 1.306 . S
C252 O255 1.160 . S
O253 C252 1.306 . S
O253 Cd254 2.228 . S
Cd254 O253 2.228 . S
Cd254 O258 2.273 . S
Cd254 O262 2.277 . S
O255 C252 1.160 . S
O255 Cd256 2.203 . S
Cd256 O255 2.203 . S
Cd256 O258 2.411 . S
Cd256 O259 2.333 . S
Cd256 O260 2.352 . S
Cd256 O264 2.277 . S
Cd256 O265 2.356 . S
C257 O262 1.209 . S
C257 O264 1.226 . S
O258 Cd254 2.273 . S
O258 Cd256 2.411 . S
O258 C261 1.320 . S
O259 Cd256 2.333 . S
O259 C261 1.214 . S
O260 Cd256 2.352 . S
O260 C263 1.258 . S
C261 O258 1.320 . S
C261 O259 1.214 . S
O262 Cd254 2.277 . S
O262 C257 1.209 . S
C263 O260 1.258 . S
C263 O265 1.282 . S
O264 Cd256 2.277 . S
O264 C257 1.226 . S
O265 Cd256 2.356 . S
O265 C263 1.282 . S
C266 O267 1.306 . S
C266 O269 1.160 . S
O267 C266 1.306 . S
O267 Cd268 2.228 . S
Cd268 O267 2.228 . S
Cd268 O272 2.273 . S
Cd268 O276 2.277 . S
O269 C266 1.160 . S
O269 Cd270 2.203 . S
Cd270 O269 2.203 . S
Cd270 O272 2.411 . S
Cd270 O273 2.333 . S
Cd270 O274 2.352 . S
Cd270 O278 2.277 . S
Cd270 O279 2.356 . S
C271 O276 1.209 . S
C271 O278 1.226 . S
O272 Cd268 2.273 . S
O272 Cd270 2.411 . S
O272 C275 1.320 . S
O273 Cd270 2.333 . S
O273 C275 1.214 . S
O274 Cd270 2.352 . S
O274 C277 1.258 . S
C275 O272 1.320 . S
C275 O273 1.214 . S
O276 Cd268 2.277 . S
O276 C271 1.209 . S
C277 O274 1.258 . S
C277 O279 1.282 . S
O278 Cd270 2.277 . S
O278 C271 1.226 . S
O279 Cd270 2.356 . S
O279 C277 1.282 . S
C280 O281 1.306 . S
C280 O283 1.160 . S
O281 C280 1.306 . S
O281 Cd282 2.228 . S
Cd282 O281 2.228 . S
Cd282 O286 2.273 . S
Cd282 O290 2.277 . S
O283 C280 1.160 . S
O283 Cd284 2.203 . S
Cd284 O283 2.203 . S
Cd284 O286 2.411 . S
Cd284 O287 2.333 . S
Cd284 O288 2.352 . S
Cd284 O292 2.277 . S
Cd284 O293 2.356 . S
C285 O290 1.209 . S
C285 O292 1.226 . S
O286 Cd282 2.273 . S
O286 Cd284 2.411 . S
O286 C289 1.320 . S
O287 Cd284 2.333 . S
O287 C289 1.214 . S
O288 Cd284 2.352 . S
O288 C291 1.258 . S
C289 O286 1.320 . S
C289 O287 1.214 . S
O290 Cd282 2.277 . S
O290 C285 1.209 . S
C291 O288 1.258 . S
C291 O293 1.282 . S
O292 Cd284 2.277 . S
O292 C285 1.226 . S
O293 Cd284 2.356 . S
O293 C291 1.282 . S
C294 O295 1.306 . S
C294 O297 1.160 . S
O295 C294 1.306 . S
O295 Cd296 2.228 1_556 S
Cd296 O295 2.228 1_554 S
Cd296 O300 2.273 . S
Cd296 O304 2.277 1_554 S
O297 C294 1.160 . S
O297 Cd298 2.203 . S
Cd298 O297 2.203 . S
Cd298 O300 2.411 1_556 S
Cd298 O301 2.333 1_556 S
Cd298 O302 2.352 1_556 S
Cd298 O306 2.277 . S
Cd298 O307 2.356 . S
C299 O304 1.209 . S
C299 O306 1.226 . S
O300 Cd296 2.273 . S
O300 Cd298 2.411 1_554 S
O300 C303 1.320 . S
O301 Cd298 2.333 1_554 S
O301 C303 1.214 . S
O302 Cd298 2.352 1_554 S
O302 C305 1.258 . S
C303 O300 1.320 . S
C303 O301 1.214 . S
O304 Cd296 2.277 1_556 S
O304 C299 1.209 . S
C305 O302 1.258 . S
C305 O307 1.282 1_554 S
O306 Cd298 2.277 . S
O306 C299 1.226 . S
O307 Cd298 2.356 . S
O307 C305 1.282 1_556 S
C308 O309 1.306 . S
C308 O311 1.160 . S
O309 C308 1.306 . S
O309 Cd310 2.228 1_556 S
Cd310 O309 2.228 1_554 S
Cd310 O314 2.273 . S
Cd310 O318 2.277 1_554 S
O311 C308 1.160 . S
O311 Cd312 2.203 . S
Cd312 O311 2.203 . S
Cd312 O314 2.411 1_556 S
Cd312 O315 2.333 1_556 S
Cd312 O316 2.352 1_556 S
Cd312 O320 2.277 . S
Cd312 O321 2.356 . S
C313 O318 1.209 . S
C313 O320 1.226 . S
O314 Cd310 2.273 . S
O314 Cd312 2.411 1_554 S
O314 C317 1.320 . S
O315 Cd312 2.333 1_554 S
O315 C317 1.214 . S
O316 Cd312 2.352 1_554 S
O316 C319 1.258 . S
C317 O314 1.320 . S
C317 O315 1.214 . S
O318 Cd310 2.277 1_556 S
O318 C313 1.209 . S
C319 O316 1.258 . S
C319 O321 1.282 1_554 S
O320 Cd312 2.277 . S
O320 C313 1.226 . S
O321 Cd312 2.356 . S
O321 C319 1.282 1_556 S
C322 O323 1.306 . S
C322 O325 1.160 . S
O323 C322 1.306 . S
O323 Cd324 2.228 1_556 S
Cd324 O323 2.228 1_554 S
Cd324 O328 2.273 . S
Cd324 O332 2.277 1_554 S
O325 C322 1.160 . S
O325 Cd326 2.203 . S
Cd326 O325 2.203 . S
Cd326 O328 2.411 1_556 S
Cd326 O329 2.333 1_556 S
Cd326 O330 2.352 1_556 S
Cd326 O334 2.277 . S
Cd326 O335 2.356 . S
C327 O332 1.209 . S
C327 O334 1.226 . S
O328 Cd324 2.273 . S
O328 Cd326 2.411 1_554 S
O328 C331 1.320 . S
O329 Cd326 2.333 1_554 S
O329 C331 1.214 . S
O330 Cd326 2.352 1_554 S
O330 C333 1.258 . S
C331 O328 1.320 . S
C331 O329 1.214 . S
O332 Cd324 2.277 1_556 S
O332 C327 1.209 . S
C333 O330 1.258 . S
C333 O335 1.282 1_554 S
O334 Cd326 2.277 . S
O334 C327 1.226 . S
O335 Cd326 2.356 . S
O335 C333 1.282 1_556 S
C336 O337 1.306 . S
C336 O339 1.160 . S
O337 C336 1.306 . S
O337 Cd338 2.228 . S
Cd338 O337 2.228 . S
Cd338 O342 2.273 . S
Cd338 O346 2.277 . S
O339 C336 1.160 . S
O339 Cd340 2.203 . S
Cd340 O339 2.203 . S
Cd340 O342 2.411 . S
Cd340 O343 2.333 . S
Cd340 O344 2.352 . S
Cd340 O348 2.277 . S
Cd340 O349 2.356 . S
C341 O346 1.209 . S
C341 O348 1.226 . S
O342 Cd338 2.273 . S
O342 Cd340 2.411 . S
O342 C345 1.320 . S
O343 Cd340 2.333 . S
O343 C345 1.214 . S
O344 Cd340 2.352 . S
O344 C347 1.258 . S
C345 O342 1.320 . S
C345 O343 1.214 . S
O346 Cd338 2.277 . S
O346 C341 1.209 . S
C347 O344 1.258 . S
C347 O349 1.282 . S
O348 Cd340 2.277 . S
O348 C341 1.226 . S
O349 Cd340 2.356 . S
O349 C347 1.282 . S
C350 O351 1.306 . S
C350 O353 1.160 . S
O351 C350 1.306 . S
O351 Cd352 2.228 . S
Cd352 O351 2.228 . S
Cd352 O356 2.273 . S
Cd352 O360 2.277 . S
O353 C350 1.160 . S
O353 Cd354 2.203 . S
Cd354 O353 2.203 . S
Cd354 O356 2.411 . S
Cd354 O357 2.333 . S
Cd354 O358 2.352 . S
Cd354 O362 2.277 . S
Cd354 O363 2.356 . S
C355 O360 1.209 . S
C355 O362 1.226 . S
O356 Cd352 2.273 . S
O356 Cd354 2.411 . S
O356 C359 1.320 . S
O357 Cd354 2.333 . S
O357 C359 1.214 . S
O358 Cd354 2.352 . S
O358 C361 1.258 . S
C359 O356 1.320 . S
C359 O357 1.214 . S
O360 Cd352 2.277 . S
O360 C355 1.209 . S
C361 O358 1.258 . S
C361 O363 1.282 . S
O362 Cd354 2.277 . S
O362 C355 1.226 . S
O363 Cd354 2.356 . S
O363 C361 1.282 . S
C364 O365 1.306 . S
C364 O367 1.160 . S
O365 C364 1.306 . S
O365 Cd366 2.228 . S
Cd366 O365 2.228 . S
Cd366 O370 2.273 . S
Cd366 O374 2.277 . S
O367 C364 1.160 . S
O367 Cd368 2.203 . S
Cd368 O367 2.203 . S
Cd368 O370 2.411 . S
Cd368 O371 2.333 . S
Cd368 O372 2.352 . S
Cd368 O376 2.277 . S
Cd368 O377 2.356 . S
C369 O374 1.209 . S
C369 O376 1.226 . S
O370 Cd366 2.273 . S
O370 Cd368 2.411 . S
O370 C373 1.320 . S
O371 Cd368 2.333 . S
O371 C373 1.214 . S
O372 Cd368 2.352 . S
O372 C375 1.258 . S
C373 O370 1.320 . S
C373 O371 1.214 . S
O374 Cd366 2.277 . S
O374 C369 1.209 . S
C375 O372 1.258 . S
C375 O377 1.282 . S
O376 Cd368 2.277 . S
O376 C369 1.226 . S
O377 Cd368 2.356 . S
O377 C375 1.282 . S
C378 O379 1.306 . S
C378 O381 1.160 . S
O379 C378 1.306 . S
O379 Cd380 2.228 1_554 S
Cd380 O379 2.228 1_556 S
Cd380 O384 2.273 . S
Cd380 O388 2.277 1_556 S
O381 C378 1.160 . S
O381 Cd382 2.203 . S
Cd382 O381 2.203 . S
Cd382 O384 2.411 1_554 S
Cd382 O385 2.333 1_554 S
Cd382 O386 2.352 1_554 S
Cd382 O390 2.277 . S
Cd382 O391 2.356 . S
C383 O388 1.209 . S
C383 O390 1.226 . S
O384 Cd380 2.273 . S
O384 Cd382 2.411 1_556 S
O384 C387 1.320 . S
O385 Cd382 2.333 1_556 S
O385 C387 1.214 . S
O386 Cd382 2.352 1_556 S
O386 C389 1.258 . S
C387 O384 1.320 . S
C387 O385 1.214 . S
O388 Cd380 2.277 1_554 S
O388 C383 1.209 . S
C389 O386 1.258 . S
C389 O391 1.282 1_556 S
O390 Cd382 2.277 . S
O390 C383 1.226 . S
O391 Cd382 2.356 . S
O391 C389 1.282 1_554 S
C392 O393 1.306 . S
C392 O395 1.160 . S
O393 C392 1.306 . S
O393 Cd394 2.228 1_554 S
Cd394 O393 2.228 1_556 S
Cd394 O398 2.273 . S
Cd394 O402 2.277 1_556 S
O395 C392 1.160 . S
O395 Cd396 2.203 . S
Cd396 O395 2.203 . S
Cd396 O398 2.411 1_554 S
Cd396 O399 2.333 1_554 S
Cd396 O400 2.352 1_554 S
Cd396 O404 2.277 . S
Cd396 O405 2.356 . S
C397 O402 1.209 . S
C397 O404 1.226 . S
O398 Cd394 2.273 . S
O398 Cd396 2.411 1_556 S
O398 C401 1.320 . S
O399 Cd396 2.333 1_556 S
O399 C401 1.214 . S
O400 Cd396 2.352 1_556 S
O400 C403 1.258 . S
C401 O398 1.320 . S
C401 O399 1.214 . S
O402 Cd394 2.277 1_554 S
O402 C397 1.209 . S
C403 O400 1.258 . S
C403 O405 1.282 1_556 S
O404 Cd396 2.277 . S
O404 C397 1.226 . S
O405 Cd396 2.356 . S
O405 C403 1.282 1_554 S
C406 O407 1.306 . S
C406 O409 1.160 . S
O407 C406 1.306 . S
O407 Cd408 2.228 1_554 S
Cd408 O407 2.228 1_556 S
Cd408 O412 2.273 . S
Cd408 O416 2.277 1_556 S
O409 C406 1.160 . S
O409 Cd410 2.203 . S
Cd410 O409 2.203 . S
Cd410 O412 2.411 1_554 S
Cd410 O413 2.333 1_554 S
Cd410 O414 2.352 1_554 S
Cd410 O418 2.277 . S
Cd410 O419 2.356 . S
C411 O416 1.209 . S
C411 O418 1.226 . S
O412 Cd408 2.273 . S
O412 Cd410 2.411 1_556 S
O412 C415 1.320 . S
O413 Cd410 2.333 1_556 S
O413 C415 1.214 . S
O414 Cd410 2.352 1_556 S
O414 C417 1.258 . S
C415 O412 1.320 . S
C415 O413 1.214 . S
O416 Cd408 2.277 1_554 S
O416 C411 1.209 . S
C417 O414 1.258 . S
C417 O419 1.282 1_556 S
O418 Cd410 2.277 . S
O418 C411 1.226 . S
O419 Cd410 2.356 . S
O419 C417 1.282 1_554 S
C420 O421 1.306 . S
C420 O423 1.160 . S
O421 C420 1.306 . S
O421 Cd422 2.228 . S
Cd422 O421 2.228 . S
Cd422 O426 2.273 . S
Cd422 O430 2.277 . S
O423 C420 1.160 . S
O423 Cd424 2.203 . S
Cd424 O423 2.203 . S
Cd424 O426 2.411 . S
Cd424 O427 2.333 . S
Cd424 O428 2.352 . S
Cd424 O432 2.277 . S
Cd424 O433 2.356 . S
C425 O430 1.209 . S
C425 O432 1.226 . S
O426 Cd422 2.273 . S
O426 Cd424 2.411 . S
O426 C429 1.320 . S
O427 Cd424 2.333 . S
O427 C429 1.214 . S
O428 Cd424 2.352 . S
O428 C431 1.258 . S
C429 O426 1.320 . S
C429 O427 1.214 . S
O430 Cd422 2.277 . S
O430 C425 1.209 . S
C431 O428 1.258 . S
C431 O433 1.282 . S
O432 Cd424 2.277 . S
O432 C425 1.226 . S
O433 Cd424 2.356 . S
O433 C431 1.282 . S
C434 O435 1.306 . S
C434 O437 1.160 . S
O435 C434 1.306 . S
O435 Cd436 2.228 . S
Cd436 O435 2.228 . S
Cd436 O440 2.273 . S
Cd436 O444 2.277 . S
O437 C434 1.160 . S
O437 Cd438 2.203 . S
Cd438 O437 2.203 . S
Cd438 O440 2.411 . S
Cd438 O441 2.333 . S
Cd438 O442 2.352 . S
Cd438 O446 2.277 . S
Cd438 O447 2.356 . S
C439 O444 1.209 . S
C439 O446 1.226 . S
O440 Cd436 2.273 . S
O440 Cd438 2.411 . S
O440 C443 1.320 . S
O441 Cd438 2.333 . S
O441 C443 1.214 . S
O442 Cd438 2.352 . S
O442 C445 1.258 . S
C443 O440 1.320 . S
C443 O441 1.214 . S
O444 Cd436 2.277 . S
O444 C439 1.209 . S
C445 O442 1.258 . S
C445 O447 1.282 . S
O446 Cd438 2.277 . S
O446 C439 1.226 . S
O447 Cd438 2.356 . S
O447 C445 1.282 . S
C448 O449 1.306 . S
C448 O451 1.160 . S
O449 C448 1.306 . S
O449 Cd450 2.228 . S
Cd450 O449 2.228 . S
Cd450 O454 2.273 . S
Cd450 O458 2.277 . S
O451 C448 1.160 . S
O451 Cd452 2.203 . S
Cd452 O451 2.203 . S
Cd452 O454 2.411 . S
Cd452 O455 2.333 . S
Cd452 O456 2.352 . S
Cd452 O460 2.277 . S
Cd452 O461 2.356 . S
C453 O458 1.209 . S
C453 O460 1.226 . S
O454 Cd450 2.273 . S
O454 Cd452 2.411 . S
O454 C457 1.320 . S
O455 Cd452 2.333 . S
O455 C457 1.214 . S
O456 Cd452 2.352 . S
O456 C459 1.258 . S
C457 O454 1.320 . S
C457 O455 1.214 . S
O458 Cd450 2.277 . S
O458 C453 1.209 . S
C459 O456 1.258 . S
C459 O461 1.282 . S
O460 Cd452 2.277 . S
O460 C453 1.226 . S
O461 Cd452 2.356 . S
O461 C459 1.282 . S
C462 O463 1.306 . S
C462 O465 1.160 . S
O463 C462 1.306 . S
O463 Cd464 2.228 . S
Cd464 O463 2.228 . S
Cd464 O468 2.273 . S
Cd464 O472 2.277 . S
O465 C462 1.160 . S
O465 Cd466 2.203 . S
Cd466 O465 2.203 . S
Cd466 O468 2.411 . S
Cd466 O469 2.333 . S
Cd466 O470 2.352 . S
Cd466 O474 2.277 . S
Cd466 O475 2.356 . S
C467 O472 1.209 . S
C467 O474 1.226 . S
O468 Cd464 2.273 . S
O468 Cd466 2.411 . S
O468 C471 1.320 . S
O469 Cd466 2.333 . S
O469 C471 1.214 . S
O470 Cd466 2.352 . S
O470 C473 1.258 . S
C471 O468 1.320 . S
C471 O469 1.214 . S
O472 Cd464 2.277 . S
O472 C467 1.209 . S
C473 O470 1.258 . S
C473 O475 1.282 . S
O474 Cd466 2.277 . S
O474 C467 1.226 . S
O475 Cd466 2.356 . S
O475 C473 1.282 . S
C476 O477 1.306 . S
C476 O479 1.160 . S
O477 C476 1.306 . S
O477 Cd478 2.228 . S
Cd478 O477 2.228 . S
Cd478 O482 2.273 . S
Cd478 O486 2.277 . S
O479 C476 1.160 . S
O479 Cd480 2.203 . S
Cd480 O479 2.203 . S
Cd480 O482 2.411 . S
Cd480 O483 2.333 . S
Cd480 O484 2.352 . S
Cd480 O488 2.277 . S
Cd480 O489 2.356 . S
C481 O486 1.209 . S
C481 O488 1.226 . S
O482 Cd478 2.273 . S
O482 Cd480 2.411 . S
O482 C485 1.320 . S
O483 Cd480 2.333 . S
O483 C485 1.214 . S
O484 Cd480 2.352 . S
O484 C487 1.258 . S
C485 O482 1.320 . S
C485 O483 1.214 . S
O486 Cd478 2.277 . S
O486 C481 1.209 . S
C487 O484 1.258 . S
C487 O489 1.282 . S
O488 Cd480 2.277 . S
O488 C481 1.226 . S
O489 Cd480 2.356 . S
O489 C487 1.282 . S
C490 O491 1.306 . S
C490 O493 1.160 . S
O491 C490 1.306 . S
O491 Cd492 2.228 . S
Cd492 O491 2.228 . S
Cd492 O496 2.273 . S
Cd492 O500 2.277 . S
O493 C490 1.160 . S
O493 Cd494 2.203 . S
Cd494 O493 2.203 . S
Cd494 O496 2.411 . S
Cd494 O497 2.333 . S
Cd494 O498 2.352 . S
Cd494 O502 2.277 . S
Cd494 O503 2.356 . S
C495 O500 1.209 . S
C495 O502 1.226 . S
O496 Cd492 2.273 . S
O496 Cd494 2.411 . S
O496 C499 1.320 . S
O497 Cd494 2.333 . S
O497 C499 1.214 . S
O498 Cd494 2.352 . S
O498 C501 1.258 . S
C499 O496 1.320 . S
C499 O497 1.214 . S
O500 Cd492 2.277 . S
O500 C495 1.209 . S
C501 O498 1.258 . S
C501 O503 1.282 . S
O502 Cd494 2.277 . S
O502 C495 1.226 . S
O503 Cd494 2.356 . S
O503 C501 1.282 . S
H504 C512 0.929 . S
H505 C514 0.930 . S
H506 C516 0.930 . S
H507 C519 0.929 . S
H508 C522 0.930 . S
H509 C524 0.960 . S
H510 C524 0.960 . S
H511 C524 0.960 . S
C512 H504 0.929 . S
C512 C513 1.377 . S
C512 C514 1.384 . S
C513 C512 1.377 . S
C513 C519 1.390 . S
C514 H505 0.930 . S
C514 C512 1.384 . S
C514 C515 1.372 . S
C515 C514 1.372 . S
C515 C516 1.400 . S
C515 C520 1.490 . S
C516 H506 0.930 . S
C516 C515 1.400 . S
C516 C519 1.386 . S
H517 C533 0.930 . S
H518 C534 0.931 . S
C519 H507 0.929 . S
C519 C513 1.390 . S
C519 C516 1.386 . S
C520 C515 1.490 . S
C520 C522 1.395 . S
C520 C523 1.403 . S
H521 C527 0.930 . S
C522 H508 0.930 . S
C522 C520 1.395 . S
C522 C525 1.403 . S
C523 C520 1.403 . S
C523 C524 1.524 . S
C523 C527 1.400 . S
C524 H509 0.960 . S
C524 H510 0.960 . S
C524 H511 0.960 . S
C524 C523 1.524 . S
C525 C522 1.403 . S
C525 C526 1.392 . S
C525 C529 1.495 . S
C526 C525 1.392 . S
C526 C527 1.385 . S
C526 C528 1.478 . S
C527 H521 0.930 . S
C527 C523 1.400 . S
C527 C526 1.385 . S
C528 C526 1.478 . S
C528 C530 1.381 . S
C528 C534 1.383 . S
C529 C525 1.495 . S
C529 H535 0.959 . S
C529 H536 0.961 . S
C529 H537 0.960 . S
C530 C528 1.381 . S
C530 C531 1.394 . S
C530 H538 0.930 . S
C531 C530 1.394 . S
C531 C532 1.383 . S
C531 H539 0.929 . S
C532 C531 1.383 . S
C532 C533 1.377 . S
C533 H517 0.930 . S
C533 C532 1.377 . S
C533 C534 1.379 . S
C534 H518 0.931 . S
C534 C528 1.383 . S
C534 C533 1.379 . S
H535 C529 0.959 . S
H536 C529 0.961 . S
H537 C529 0.960 . S
H538 C530 0.930 . S
H539 C531 0.929 . S
H540 C548 0.929 . S
H541 C550 0.930 . S
H542 C552 0.930 . S
H543 C555 0.929 . S
H544 C558 0.930 . S
H545 C560 0.960 . S
H546 C560 0.960 . S
H547 C560 0.960 . S
C548 H540 0.929 . S
C548 C549 1.377 . S
C548 C550 1.384 . S
C549 C548 1.377 . S
C549 C555 1.390 . S
C550 H541 0.930 . S
C550 C548 1.384 . S
C550 C551 1.372 . S
C551 C550 1.372 . S
C551 C552 1.400 . S
C551 C556 1.490 . S
C552 H542 0.930 . S
C552 C551 1.400 . S
C552 C555 1.386 . S
H553 C569 0.930 . S
H554 C570 0.931 . S
C555 H543 0.929 . S
C555 C549 1.390 . S
C555 C552 1.386 . S
C556 C551 1.490 . S
C556 C558 1.395 . S
C556 C559 1.403 . S
H557 C563 0.930 . S
C558 H544 0.930 . S
C558 C556 1.395 . S
C558 C561 1.403 1_545 S
C559 C556 1.403 . S
C559 C560 1.524 . S
C559 C563 1.400 1_545 S
C560 H545 0.960 . S
C560 H546 0.960 . S
C560 H547 0.960 . S
C560 C559 1.524 . S
C561 C558 1.403 1_565 S
C561 C562 1.392 . S
C561 C565 1.495 . S
C562 C561 1.392 . S
C562 C563 1.385 . S
C562 C564 1.478 . S
C563 H557 0.930 . S
C563 C559 1.400 1_565 S
C563 C562 1.385 . S
C564 C562 1.478 . S
C564 C566 1.381 . S
C564 C570 1.383 . S
C565 C561 1.495 . S
C565 H571 0.959 . S
C565 H572 0.961 . S
C565 H573 0.960 . S
C566 C564 1.381 . S
C566 C567 1.394 . S
C566 H574 0.930 . S
C567 C566 1.394 . S
C567 C568 1.383 . S
C567 H575 0.929 . S
C568 C567 1.383 . S
C568 C569 1.377 . S
C569 H553 0.930 . S
C569 C568 1.377 . S
C569 C570 1.379 . S
C570 H554 0.931 . S
C570 C564 1.383 . S
C570 C569 1.379 . S
H571 C565 0.959 . S
H572 C565 0.961 . S
H573 C565 0.960 . S
H574 C566 0.930 . S
H575 C567 0.929 . S
H576 C584 0.929 . S
H577 C586 0.930 . S
H578 C588 0.930 . S
H579 C591 0.929 . S
H580 C594 0.930 . S
H581 C596 0.960 . S
H582 C596 0.960 . S
H583 C596 0.960 . S
C584 H576 0.929 . S
C584 C585 1.377 . S
C584 C586 1.384 . S
C585 C584 1.377 . S
C585 C591 1.390 . S
C586 H577 0.930 . S
C586 C584 1.384 . S
C586 C587 1.372 . S
C587 C586 1.372 . S
C587 C588 1.400 . S
C587 C592 1.490 . S
C588 H578 0.930 . S
C588 C587 1.400 . S
C588 C591 1.386 . S
H589 C605 0.930 . S
H590 C606 0.931 . S
C591 H579 0.929 . S
C591 C585 1.390 . S
C591 C588 1.386 . S
C592 C587 1.490 . S
C592 C594 1.395 . S
C592 C595 1.403 . S
H593 C599 0.930 . S
C594 H580 0.930 . S
C594 C592 1.395 . S
C594 C597 1.403 1_655 S
C595 C592 1.403 . S
C595 C596 1.524 . S
C595 C599 1.400 1_655 S
C596 H581 0.960 . S
C596 H582 0.960 . S
C596 H583 0.960 . S
C596 C595 1.524 . S
C597 C594 1.403 1_455 S
C597 C598 1.392 . S
C597 C601 1.495 . S
C598 C597 1.392 . S
C598 C599 1.385 . S
C598 C600 1.478 . S
C599 H593 0.930 . S
C599 C595 1.400 1_455 S
C599 C598 1.385 . S
C600 C598 1.478 . S
C600 C602 1.381 . S
C600 C606 1.383 . S
C601 C597 1.495 . S
C601 H607 0.959 . S
C601 H608 0.961 . S
C601 H609 0.960 . S
C602 C600 1.381 . S
C602 C603 1.394 . S
C602 H610 0.930 . S
C603 C602 1.394 . S
C603 C604 1.383 . S
C603 H611 0.929 . S
C604 C603 1.383 . S
C604 C605 1.377 . S
C605 H589 0.930 . S
C605 C604 1.377 . S
C605 C606 1.379 . S
C606 H590 0.931 . S
C606 C600 1.383 . S
C606 C605 1.379 . S
H607 C601 0.959 . S
H608 C601 0.961 . S
H609 C601 0.960 . S
H610 C602 0.930 . S
H611 C603 0.929 . S
H612 C620 0.929 . S
H613 C622 0.930 . S
H614 C624 0.930 . S
H615 C627 0.929 . S
H616 C630 0.930 . S
H617 C632 0.960 . S
H618 C632 0.960 . S
H619 C632 0.960 . S
C620 H612 0.929 . S
C620 C621 1.377 . S
C620 C622 1.384 . S
C621 C620 1.377 . S
C621 C627 1.390 . S
C622 H613 0.930 . S
C622 C620 1.384 . S
C622 C623 1.372 . S
C623 C622 1.372 . S
C623 C624 1.400 . S
C623 C628 1.490 . S
C624 H614 0.930 . S
C624 C623 1.400 . S
C624 C627 1.386 . S
H625 C641 0.930 . S
H626 C642 0.931 . S
C627 H615 0.929 . S
C627 C621 1.390 . S
C627 C624 1.386 . S
C628 C623 1.490 . S
C628 C630 1.395 . S
C628 C631 1.403 . S
H629 C635 0.930 . S
C630 H616 0.930 . S
C630 C628 1.395 . S
C630 C633 1.403 . S
C631 C628 1.403 . S
C631 C632 1.524 . S
C631 C635 1.400 . S
C632 H617 0.960 . S
C632 H618 0.960 . S
C632 H619 0.960 . S
C632 C631 1.524 . S
C633 C630 1.403 . S
C633 C634 1.392 . S
C633 C637 1.495 . S
C634 C633 1.392 . S
C634 C635 1.385 . S
C634 C636 1.478 . S
C635 H629 0.930 . S
C635 C631 1.400 . S
C635 C634 1.385 . S
C636 C634 1.478 . S
C636 C638 1.381 . S
C636 C642 1.383 . S
C637 C633 1.495 . S
C637 H643 0.959 . S
C637 H644 0.961 . S
C637 H645 0.960 . S
C638 C636 1.381 . S
C638 C639 1.394 . S
C638 H646 0.930 . S
C639 C638 1.394 . S
C639 C640 1.383 . S
C639 H647 0.929 . S
C640 C639 1.383 . S
C640 C641 1.377 . S
C641 H625 0.930 . S
C641 C640 1.377 . S
C641 C642 1.379 . S
C642 H626 0.931 . S
C642 C636 1.383 . S
C642 C641 1.379 . S
H643 C637 0.959 . S
H644 C637 0.961 . S
H645 C637 0.960 . S
H646 C638 0.930 . S
H647 C639 0.929 . S
H648 C656 0.929 . S
H649 C658 0.930 . S
H650 C660 0.930 . S
H651 C663 0.929 . S
H652 C666 0.930 . S
H653 C668 0.960 1_565 S
H654 C668 0.960 . S
H655 C668 0.960 . S
C656 H648 0.929 . S
C656 C657 1.377 . S
C656 C658 1.384 . S
C657 C656 1.377 . S
C657 C663 1.390 . S
C658 H649 0.930 . S
C658 C656 1.384 . S
C658 C659 1.372 . S
C659 C658 1.372 . S
C659 C660 1.400 . S
C659 C664 1.490 . S
C660 H650 0.930 . S
C660 C659 1.400 . S
C660 C663 1.386 . S
H661 C677 0.930 . S
H662 C678 0.931 . S
C663 H651 0.929 . S
C663 C657 1.390 . S
C663 C660 1.386 . S
C664 C659 1.490 . S
C664 C666 1.395 . S
C664 C667 1.403 . S
H665 C671 0.930 . S
C666 H652 0.930 . S
C666 C664 1.395 . S
C666 C669 1.403 1_545 S
C667 C664 1.403 . S
C667 C668 1.524 . S
C667 C671 1.400 1_545 S
C668 H653 0.960 1_545 S
C668 H654 0.960 . S
C668 H655 0.960 . S
C668 C667 1.524 . S
C669 C666 1.403 1_565 S
C669 C670 1.392 . S
C669 C673 1.495 . S
C670 C669 1.392 . S
C670 C671 1.385 . S
C670 C672 1.478 . S
C671 H665 0.930 . S
C671 C667 1.400 1_565 S
C671 C670 1.385 . S
C672 C670 1.478 . S
C672 C674 1.381 . S
C672 C678 1.383 . S
C673 C669 1.495 . S
C673 H679 0.959 1_565 S
C673 H680 0.961 . S
C673 H681 0.960 . S
C674 C672 1.381 . S
C674 C675 1.394 . S
C674 H682 0.930 . S
C675 C674 1.394 . S
C675 C676 1.383 . S
C675 H683 0.929 . S
C676 C675 1.383 . S
C676 C677 1.377 . S
C677 H661 0.930 . S
C677 C676 1.377 . S
C677 C678 1.379 . S
C678 H662 0.931 . S
C678 C672 1.383 . S
C678 C677 1.379 . S
H679 C673 0.959 1_545 S
H680 C673 0.961 . S
H681 C673 0.960 . S
H682 C674 0.930 . S
H683 C675 0.929 . S
H684 C692 0.929 . S
H685 C694 0.930 . S
H686 C696 0.930 . S
H687 C699 0.929 . S
H688 C702 0.930 . S
H689 C704 0.960 1_655 S
H690 C704 0.960 . S
H691 C704 0.960 . S
C692 H684 0.929 . S
C692 C693 1.377 . S
C692 C694 1.384 . S
C693 C692 1.377 . S
C693 C699 1.390 . S
C694 H685 0.930 . S
C694 C692 1.384 . S
C694 C695 1.372 . S
C695 C694 1.372 . S
C695 C696 1.400 . S
C695 C700 1.490 . S
C696 H686 0.930 . S
C696 C695 1.400 . S
C696 C699 1.386 . S
H697 C713 0.930 . S
H698 C714 0.931 . S
C699 H687 0.929 . S
C699 C693 1.390 . S
C699 C696 1.386 . S
C700 C695 1.490 . S
C700 C702 1.395 . S
C700 C703 1.403 . S
H701 C707 0.930 . S
C702 H688 0.930 . S
C702 C700 1.395 . S
C702 C705 1.403 1_455 S
C703 C700 1.403 . S
C703 C704 1.524 . S
C703 C707 1.400 1_455 S
C704 H689 0.960 1_455 S
C704 H690 0.960 . S
C704 H691 0.960 . S
C704 C703 1.524 . S
C705 C702 1.403 1_655 S
C705 C706 1.392 . S
C705 C709 1.495 . S
C706 C705 1.392 . S
C706 C707 1.385 . S
C706 C708 1.478 . S
C707 H701 0.930 . S
C707 C703 1.400 1_655 S
C707 C706 1.385 . S
C708 C706 1.478 . S
C708 C710 1.381 . S
C708 C714 1.383 . S
C709 C705 1.495 . S
C709 H715 0.959 1_655 S
C709 H716 0.961 . S
C709 H717 0.960 . S
C710 C708 1.381 . S
C710 C711 1.394 . S
C710 H718 0.930 . S
C711 C710 1.394 . S
C711 C712 1.383 . S
C711 H719 0.929 . S
C712 C711 1.383 . S
C712 C713 1.377 . S
C713 H697 0.930 . S
C713 C712 1.377 . S
C713 C714 1.379 . S
C714 H698 0.931 . S
C714 C708 1.383 . S
C714 C713 1.379 . S
H715 C709 0.959 1_455 S
H716 C709 0.961 . S
H717 C709 0.960 . S
H718 C710 0.930 . S
H719 C711 0.929 . S
H720 C728 0.929 . S
H721 C730 0.930 . S
H722 C732 0.930 . S
H723 C735 0.929 . S
H724 C738 0.930 . S
H725 C740 0.960 . S
H726 C740 0.960 . S
H727 C740 0.960 . S
C728 H720 0.929 . S
C728 C729 1.377 . S
C728 C730 1.384 . S
C729 C728 1.377 . S
C729 C735 1.390 . S
C730 H721 0.930 . S
C730 C728 1.384 . S
C730 C731 1.372 . S
C731 C730 1.372 . S
C731 C732 1.400 . S
C731 C736 1.490 . S
C732 H722 0.930 . S
C732 C731 1.400 . S
C732 C735 1.386 . S
H733 C749 0.930 . S
H734 C750 0.931 . S
C735 H723 0.929 . S
C735 C729 1.390 . S
C735 C732 1.386 . S
C736 C731 1.490 . S
C736 C738 1.395 . S
C736 C739 1.403 . S
H737 C743 0.930 . S
C738 H724 0.930 . S
C738 C736 1.395 . S
C738 C741 1.403 . S
C739 C736 1.403 . S
C739 C740 1.524 . S
C739 C743 1.400 . S
C740 H725 0.960 . S
C740 H726 0.960 . S
C740 H727 0.960 . S
C740 C739 1.524 . S
C741 C738 1.403 . S
C741 C742 1.392 . S
C741 C745 1.495 . S
C742 C741 1.392 . S
C742 C743 1.385 . S
C742 C744 1.478 . S
C743 H737 0.930 . S
C743 C739 1.400 . S
C743 C742 1.385 . S
C744 C742 1.478 . S
C744 C746 1.381 . S
C744 C750 1.383 . S
C745 C741 1.495 . S
C745 H751 0.959 . S
C745 H752 0.961 . S
C745 H753 0.960 . S
C746 C744 1.381 . S
C746 C747 1.394 . S
C746 H754 0.930 . S
C747 C746 1.394 . S
C747 C748 1.383 . S
C747 H755 0.929 . S
C748 C747 1.383 . S
C748 C749 1.377 . S
C749 H733 0.930 . S
C749 C748 1.377 . S
C749 C750 1.379 . S
C750 H734 0.931 . S
C750 C744 1.383 . S
C750 C749 1.379 . S
H751 C745 0.959 . S
H752 C745 0.961 . S
H753 C745 0.960 . S
H754 C746 0.930 . S
H755 C747 0.929 . S
H756 C764 0.929 . S
H757 C766 0.930 . S
H758 C768 0.930 . S
H759 C771 0.929 . S
H760 C774 0.930 . S
H761 C776 0.960 . S
H762 C776 0.960 . S
H763 C776 0.960 . S
C764 H756 0.929 . S
C764 C765 1.377 . S
C764 C766 1.384 . S
C765 C764 1.377 . S
C765 C771 1.390 . S
C766 H757 0.930 . S
C766 C764 1.384 . S
C766 C767 1.372 . S
C767 C766 1.372 . S
C767 C768 1.400 . S
C767 C772 1.490 . S
C768 H758 0.930 . S
C768 C767 1.400 . S
C768 C771 1.386 . S
H769 C785 0.930 . S
H770 C786 0.931 . S
C771 H759 0.929 . S
C771 C765 1.390 . S
C771 C768 1.386 . S
C772 C767 1.490 . S
C772 C774 1.395 . S
C772 C775 1.403 . S
H773 C779 0.930 . S
C774 H760 0.930 . S
C774 C772 1.395 . S
C774 C777 1.403 . S
C775 C772 1.403 . S
C775 C776 1.524 . S
C775 C779 1.400 . S
C776 H761 0.960 . S
C776 H762 0.960 . S
C776 H763 0.960 . S
C776 C775 1.524 . S
C777 C774 1.403 . S
C777 C778 1.392 . S
C777 C781 1.495 . S
C778 C777 1.392 . S
C778 C779 1.385 . S
C778 C780 1.478 . S
C779 H773 0.930 . S
C779 C775 1.400 . S
C779 C778 1.385 . S
C780 C778 1.478 . S
C780 C782 1.381 . S
C780 C786 1.383 . S
C781 C777 1.495 . S
C781 H787 0.959 . S
C781 H788 0.961 . S
C781 H789 0.960 . S
C782 C780 1.381 . S
C782 C783 1.394 . S
C782 H790 0.930 . S
C783 C782 1.394 . S
C783 C784 1.383 . S
C783 H791 0.929 . S
C784 C783 1.383 . S
C784 C785 1.377 . S
C785 H769 0.930 . S
C785 C784 1.377 . S
C785 C786 1.379 . S
C786 H770 0.931 . S
C786 C780 1.383 . S
C786 C785 1.379 . S
H787 C781 0.959 . S
H788 C781 0.961 . S
H789 C781 0.960 . S
H790 C782 0.930 . S
H791 C783 0.929 . S
H792 C800 0.929 . S
H793 C802 0.930 . S
H794 C804 0.930 . S
H795 C807 0.929 . S
H796 C810 0.930 . S
H797 C812 0.960 . S
H798 C812 0.960 . S
H799 C812 0.960 . S
C800 H792 0.929 . S
C800 C801 1.377 . S
C800 C802 1.384 . S
C801 C800 1.377 . S
C801 C807 1.390 . S
C802 H793 0.930 . S
C802 C800 1.384 . S
C802 C803 1.372 . S
C803 C802 1.372 . S
C803 C804 1.400 . S
C803 C808 1.490 . S
C804 H794 0.930 . S
C804 C803 1.400 . S
C804 C807 1.386 . S
H805 C821 0.930 . S
H806 C822 0.931 . S
C807 H795 0.929 . S
C807 C801 1.390 . S
C807 C804 1.386 . S
C808 C803 1.490 . S
C808 C810 1.395 . S
C808 C811 1.403 . S
H809 C815 0.930 . S
C810 H796 0.930 . S
C810 C808 1.395 . S
C810 C813 1.403 . S
C811 C808 1.403 . S
C811 C812 1.524 . S
C811 C815 1.400 . S
C812 H797 0.960 . S
C812 H798 0.960 . S
C812 H799 0.960 . S
C812 C811 1.524 . S
C813 C810 1.403 . S
C813 C814 1.392 . S
C813 C817 1.495 . S
C814 C813 1.392 . S
C814 C815 1.385 . S
C814 C816 1.478 . S
C815 H809 0.930 . S
C815 C811 1.400 . S
C815 C814 1.385 . S
C816 C814 1.478 . S
C816 C818 1.381 . S
C816 C822 1.383 . S
C817 C813 1.495 . S
C817 H823 0.959 . S
C817 H824 0.961 . S
C817 H825 0.960 . S
C818 C816 1.381 . S
C818 C819 1.394 . S
C818 H826 0.930 . S
C819 C818 1.394 . S
C819 C820 1.383 . S
C819 H827 0.929 . S
C820 C819 1.383 . S
C820 C821 1.377 . S
C821 H805 0.930 . S
C821 C820 1.377 . S
C821 C822 1.379 . S
C822 H806 0.931 . S
C822 C816 1.383 . S
C822 C821 1.379 . S
H823 C817 0.959 . S
H824 C817 0.961 . S
H825 C817 0.960 . S
H826 C818 0.930 . S
H827 C819 0.929 . S
H828 C836 0.929 . S
H829 C838 0.930 . S
H830 C840 0.930 . S
H831 C843 0.929 . S
H832 C846 0.930 . S
H833 C848 0.960 . S
H834 C848 0.960 . S
H835 C848 0.960 . S
C836 H828 0.929 . S
C836 C837 1.377 . S
C836 C838 1.384 . S
C837 C836 1.377 . S
C837 C843 1.390 . S
C838 H829 0.930 . S
C838 C836 1.384 . S
C838 C839 1.372 . S
C839 C838 1.372 . S
C839 C840 1.400 . S
C839 C844 1.490 . S
C840 H830 0.930 . S
C840 C839 1.400 . S
C840 C843 1.386 . S
H841 C857 0.930 1_556 S
H842 C858 0.931 . S
C843 H831 0.929 . S
C843 C837 1.390 . S
C843 C840 1.386 . S
C844 C839 1.490 . S
C844 C846 1.395 . S
C844 C847 1.403 . S
H845 C851 0.930 . S
C846 H832 0.930 . S
C846 C844 1.395 . S
C846 C849 1.403 . S
C847 C844 1.403 . S
C847 C848 1.524 . S
C847 C851 1.400 . S
C848 H833 0.960 . S
C848 H834 0.960 . S
C848 H835 0.960 . S
C848 C847 1.524 . S
C849 C846 1.403 . S
C849 C850 1.392 . S
C849 C853 1.495 . S
C850 C849 1.392 . S
C850 C851 1.385 . S
C850 C852 1.478 . S
C851 H845 0.930 . S
C851 C847 1.400 . S
C851 C850 1.385 . S
C852 C850 1.478 . S
C852 C854 1.381 . S
C852 C858 1.383 . S
C853 C849 1.495 . S
C853 H859 0.959 . S
C853 H860 0.961 . S
C853 H861 0.960 . S
C854 C852 1.381 . S
C854 C855 1.394 . S
C854 H862 0.930 . S
C855 C854 1.394 . S
C855 C856 1.383 . S
C855 H863 0.929 . S
C856 C855 1.383 . S
C856 C857 1.377 . S
C857 H841 0.930 1_554 S
C857 C856 1.377 . S
C857 C858 1.379 . S
C858 H842 0.931 . S
C858 C852 1.383 . S
C858 C857 1.379 . S
H859 C853 0.959 . S
H860 C853 0.961 . S
H861 C853 0.960 . S
H862 C854 0.930 . S
H863 C855 0.929 . S
H864 C872 0.929 . S
H865 C874 0.930 . S
H866 C876 0.930 . S
H867 C879 0.929 . S
H868 C882 0.930 . S
H869 C884 0.952 1_556 S
H870 C884 0.950 1_556 S
H871 C884 0.959 1_556 S
C872 H864 0.929 . S
C872 C873 1.377 . S
C872 C874 1.384 . S
C873 C872 1.377 . S
C873 C879 1.390 . S
C874 H865 0.930 . S
C874 C872 1.384 . S
C874 C875 1.372 . S
C875 C874 1.372 . S
C875 C876 1.400 . S
C875 C880 1.490 . S
C876 H866 0.930 . S
C876 C875 1.400 . S
C876 C879 1.386 . S
H877 C893 0.930 . S
H878 C894 0.931 . S
C879 H867 0.929 . S
C879 C873 1.390 . S
C879 C876 1.386 . S
C880 C875 1.490 . S
C880 C882 1.395 . S
C880 C883 1.403 . S
H881 C887 0.930 . S
C882 H868 0.930 . S
C882 C880 1.395 . S
C882 C885 1.403 . S
C883 C880 1.403 . S
C883 C884 1.543 . S
C883 C887 1.400 . S
C884 H869 0.952 1_554 S
C884 H870 0.950 1_554 S
C884 H871 0.959 1_554 S
C884 C883 1.543 . S
C885 C882 1.403 . S
C885 C886 1.392 . S
C885 C889 1.495 . S
C886 C885 1.392 . S
C886 C887 1.385 . S
C886 C888 1.478 . S
C887 H881 0.930 . S
C887 C883 1.400 . S
C887 C886 1.385 . S
C888 C886 1.478 . S
C888 C890 1.381 . S
C888 C894 1.383 . S
C889 C885 1.495 . S
C889 H895 0.959 . S
C889 H896 0.961 . S
C889 H897 0.960 . S
C890 C888 1.381 . S
C890 C891 1.394 . S
C890 H898 0.930 . S
C891 C890 1.394 . S
C891 C892 1.383 . S
C891 H899 0.929 . S
C892 C891 1.383 . S
C892 C893 1.377 . S
C893 H877 0.930 . S
C893 C892 1.377 . S
C893 C894 1.379 . S
C894 H878 0.931 . S
C894 C888 1.383 . S
C894 C893 1.379 . S
H895 C889 0.959 . S
H896 C889 0.961 . S
H897 C889 0.960 . S
H898 C890 0.930 . S
H899 C891 0.929 . S
H900 C908 0.929 . S
H901 C910 0.930 . S
H902 C912 0.930 . S
H903 C915 0.929 . S
H904 C918 0.930 . S
H905 C920 0.960 . S
H906 C920 0.960 . S
H907 C920 0.960 . S
C908 H900 0.929 . S
C908 C909 1.377 . S
C908 C910 1.384 . S
C909 C908 1.377 . S
C909 C915 1.390 . S
C910 H901 0.930 . S
C910 C908 1.384 . S
C910 C911 1.372 . S
C911 C910 1.372 . S
C911 C912 1.400 . S
C911 C916 1.490 . S
C912 H902 0.930 . S
C912 C911 1.400 . S
C912 C915 1.386 . S
H913 C929 0.930 1_556 S
H914 C930 0.931 1_556 S
C915 H903 0.929 . S
C915 C909 1.390 . S
C915 C912 1.386 . S
C916 C911 1.490 . S
C916 C918 1.395 . S
C916 C919 1.403 . S
H917 C923 0.930 . S
C918 H904 0.930 . S
C918 C916 1.395 . S
C918 C921 1.403 . S
C919 C916 1.403 . S
C919 C920 1.524 . S
C919 C923 1.400 . S
C920 H905 0.960 . S
C920 H906 0.960 . S
C920 H907 0.960 . S
C920 C919 1.524 . S
C921 C918 1.403 . S
C921 C922 1.392 . S
C921 C925 1.495 . S
C922 C921 1.392 . S
C922 C923 1.385 . S
C922 C924 1.478 . S
C923 H917 0.930 . S
C923 C919 1.400 . S
C923 C922 1.385 . S
C924 C922 1.478 . S
C924 C926 1.381 . S
C924 C930 1.383 . S
C925 C921 1.495 . S
C925 H931 0.959 . S
C925 H932 0.961 . S
C925 H933 0.960 . S
C926 C924 1.381 . S
C926 C927 1.394 . S
C926 H934 0.930 . S
C927 C926 1.394 . S
C927 C928 1.383 . S
C927 H935 0.929 . S
C928 C927 1.383 . S
C928 C929 1.377 . S
C929 H913 0.930 1_554 S
C929 C928 1.377 . S
C929 C930 1.379 . S
C930 H914 0.931 1_554 S
C930 C924 1.383 . S
C930 C929 1.379 . S
H931 C925 0.959 . S
H932 C925 0.961 . S
H933 C925 0.960 . S
H934 C926 0.930 . S
H935 C927 0.929 . S
H936 C944 0.929 . S
H937 C946 0.930 . S
H938 C948 0.930 . S
H939 C951 0.929 . S
H940 C954 0.930 . S
H941 C956 0.960 . S
H942 C956 0.960 . S
H943 C956 0.960 . S
C944 H936 0.929 . S
C944 C945 1.377 . S
C944 C946 1.384 . S
C945 C944 1.377 . S
C945 C951 1.390 . S
C946 H937 0.930 . S
C946 C944 1.384 . S
C946 C947 1.372 . S
C947 C946 1.372 . S
C947 C948 1.400 . S
C947 C952 1.490 . S
C948 H938 0.930 . S
C948 C947 1.400 . S
C948 C951 1.386 . S
H949 C965 0.930 . S
H950 C966 0.931 . S
C951 H939 0.929 . S
C951 C945 1.390 . S
C951 C948 1.386 . S
C952 C947 1.490 . S
C952 C954 1.395 . S
C952 C955 1.403 . S
H953 C959 0.930 . S
C954 H940 0.930 . S
C954 C952 1.395 . S
C954 C957 1.403 . S
C955 C952 1.403 . S
C955 C956 1.524 . S
C955 C959 1.400 . S
C956 H941 0.960 . S
C956 H942 0.960 . S
C956 H943 0.960 . S
C956 C955 1.524 . S
C957 C954 1.403 . S
C957 C958 1.392 . S
C957 C961 1.495 . S
C958 C957 1.392 . S
C958 C959 1.385 . S
C958 C960 1.478 . S
C959 H953 0.930 . S
C959 C955 1.400 . S
C959 C958 1.385 . S
C960 C958 1.478 . S
C960 C962 1.381 . S
C960 C966 1.383 . S
C961 C957 1.495 . S
C961 H967 0.959 . S
C961 H968 0.961 . S
C961 H969 0.960 . S
C962 C960 1.381 . S
C962 C963 1.394 . S
C962 H970 0.930 1_556 S
C963 C962 1.394 . S
C963 C964 1.383 . S
C963 H971 0.929 1_556 S
C964 C963 1.383 . S
C964 C965 1.377 . S
C965 H949 0.930 . S
C965 C964 1.377 . S
C965 C966 1.379 . S
C966 H950 0.931 . S
C966 C960 1.383 . S
C966 C965 1.379 . S
H967 C961 0.959 . S
H968 C961 0.961 . S
H969 C961 0.960 . S
H970 C962 0.930 1_554 S
H971 C963 0.929 1_554 S
H972 C980 0.929 . S
H973 C982 0.930 . S
H974 C984 0.930 . S
H975 C987 0.929 . S
H976 C990 0.930 . S
H977 C992 0.960 . S
H978 C992 0.960 . S
H979 C992 0.960 . S
C980 H972 0.929 . S
C980 C981 1.377 . S
C980 C982 1.384 . S
C981 C980 1.377 . S
C981 C987 1.390 . S
C982 H973 0.930 . S
C982 C980 1.384 . S
C982 C983 1.372 . S
C983 C982 1.372 . S
C983 C984 1.400 . S
C983 C988 1.490 . S
C984 H974 0.930 . S
C984 C983 1.400 . S
C984 C987 1.386 . S
H985 C1001 0.930 . S
H986 C1002 0.931 . S
C987 H975 0.929 . S
C987 C981 1.390 . S
C987 C984 1.386 . S
C988 C983 1.490 . S
C988 C990 1.395 . S
C988 C991 1.403 . S
H989 C995 0.930 . S
C990 H976 0.930 . S
C990 C988 1.395 . S
C990 C993 1.403 . S
C991 C988 1.403 . S
C991 C992 1.524 . S
C991 C995 1.400 . S
C992 H977 0.960 . S
C992 H978 0.960 . S
C992 H979 0.960 . S
C992 C991 1.524 . S
C993 C990 1.403 . S
C993 C994 1.392 . S
C993 C997 1.495 . S
C994 C993 1.392 . S
C994 C995 1.385 . S
C994 C996 1.478 . S
C995 H989 0.930 . S
C995 C991 1.400 . S
C995 C994 1.385 . S
C996 C994 1.478 . S
C996 C998 1.381 . S
C996 C1002 1.383 . S
C997 C993 1.495 . S
C997 H1003 0.959 . S
C997 H1004 0.961 . S
C997 H1005 0.960 . S
C998 C996 1.381 . S
C998 C999 1.394 . S
C998 H1006 0.930 . S
C999 C998 1.394 . S
C999 C1000 1.383 . S
C999 H1007 0.929 1_556 S
C1000 C999 1.383 . S
C1000 C1001 1.377 . S
C1001 H985 0.930 . S
C1001 C1000 1.377 . S
C1001 C1002 1.379 . S
C1002 H986 0.931 . S
C1002 C996 1.383 . S
C1002 C1001 1.379 . S
H1003 C997 0.959 . S
H1004 C997 0.961 . S
H1005 C997 0.960 . S
H1006 C998 0.930 . S
H1007 C999 0.929 1_554 S
H1008 C1016 0.929 1_554 S
H1009 C1018 0.930 1_554 S
H1010 C1020 0.930 . S
H1011 C1023 0.929 . S
H1012 C1026 0.930 . S
H1013 C1028 0.960 . S
H1014 C1028 0.960 . S
H1015 C1028 0.960 . S
C1016 H1008 0.929 1_556 S
C1016 C1017 1.377 . S
C1016 C1018 1.384 . S
C1017 C1016 1.377 . S
C1017 C1023 1.390 . S
C1018 H1009 0.930 1_556 S
C1018 C1016 1.384 . S
C1018 C1019 1.372 . S
C1019 C1018 1.372 . S
C1019 C1020 1.400 . S
C1019 C1024 1.490 . S
C1020 H1010 0.930 . S
C1020 C1019 1.400 . S
C1020 C1023 1.386 . S
H1021 C1037 0.930 . S
H1022 C1038 0.931 . S
C1023 H1011 0.929 . S
C1023 C1017 1.390 . S
C1023 C1020 1.386 . S
C1024 C1019 1.490 . S
C1024 C1026 1.395 . S
C1024 C1027 1.403 . S
H1025 C1031 0.930 . S
C1026 H1012 0.930 . S
C1026 C1024 1.395 . S
C1026 C1029 1.403 . S
C1027 C1024 1.403 . S
C1027 C1028 1.524 . S
C1027 C1031 1.400 . S
C1028 H1013 0.960 . S
C1028 H1014 0.960 . S
C1028 H1015 0.960 . S
C1028 C1027 1.524 . S
C1029 C1026 1.403 . S
C1029 C1030 1.392 . S
C1029 C1033 1.495 . S
C1030 C1029 1.392 . S
C1030 C1031 1.385 . S
C1030 C1032 1.478 . S
C1031 H1025 0.930 . S
C1031 C1027 1.400 . S
C1031 C1030 1.385 . S
C1032 C1030 1.478 . S
C1032 C1034 1.381 . S
C1032 C1038 1.383 . S
C1033 C1029 1.495 . S
C1033 H1039 0.959 . S
C1033 H1040 0.961 . S
C1033 H1041 0.960 . S
C1034 C1032 1.381 . S
C1034 C1035 1.394 . S
C1034 H1042 0.930 . S
C1035 C1034 1.394 . S
C1035 C1036 1.383 . S
C1035 H1043 0.929 . S
C1036 C1035 1.383 . S
C1036 C1037 1.377 . S
C1037 H1021 0.930 . S
C1037 C1036 1.377 . S
C1037 C1038 1.379 . S
C1038 H1022 0.931 . S
C1038 C1032 1.383 . S
C1038 C1037 1.379 . S
H1039 C1033 0.959 . S
H1040 C1033 0.961 . S
H1041 C1033 0.960 . S
H1042 C1034 0.930 . S
H1043 C1035 0.929 . S
H1044 C1052 0.929 . S
H1045 C1054 0.930 . S
H1046 C1056 0.930 . S
H1047 C1059 0.929 . S
H1048 C1062 0.930 . S
H1049 C1064 0.960 . S
H1050 C1064 0.960 . S
H1051 C1064 0.960 . S
C1052 H1044 0.929 . S
C1052 C1053 1.377 . S
C1052 C1054 1.384 . S
C1053 C1052 1.377 . S
C1053 C1059 1.390 . S
C1054 H1045 0.930 . S
C1054 C1052 1.384 . S
C1054 C1055 1.372 . S
C1055 C1054 1.372 . S
C1055 C1056 1.400 . S
C1055 C1060 1.490 . S
C1056 H1046 0.930 . S
C1056 C1055 1.400 . S
C1056 C1059 1.386 . S
H1057 C1073 0.930 . S
H1058 C1074 0.931 . S
C1059 H1047 0.929 . S
C1059 C1053 1.390 . S
C1059 C1056 1.386 . S
C1060 C1055 1.490 . S
C1060 C1062 1.395 . S
C1060 C1063 1.403 . S
H1061 C1067 0.930 . S
C1062 H1048 0.930 . S
C1062 C1060 1.395 . S
C1062 C1065 1.403 . S
C1063 C1060 1.403 . S
C1063 C1064 1.524 . S
C1063 C1067 1.400 . S
C1064 H1049 0.960 . S
C1064 H1050 0.960 . S
C1064 H1051 0.960 . S
C1064 C1063 1.524 . S
C1065 C1062 1.403 . S
C1065 C1066 1.392 . S
C1065 C1069 1.495 . S
C1066 C1065 1.392 . S
C1066 C1067 1.385 . S
C1066 C1068 1.478 . S
C1067 H1061 0.930 . S
C1067 C1063 1.400 . S
C1067 C1066 1.385 . S
C1068 C1066 1.478 . S
C1068 C1070 1.381 . S
C1068 C1074 1.383 . S
C1069 C1065 1.495 . S
C1069 H1075 0.959 . S
C1069 H1076 0.961 . S
C1069 H1077 0.960 . S
C1070 C1068 1.381 . S
C1070 C1071 1.394 . S
C1070 H1078 0.930 . S
C1071 C1070 1.394 . S
C1071 C1072 1.383 . S
C1071 H1079 0.929 . S
C1072 C1071 1.383 . S
C1072 C1073 1.377 . S
C1073 H1057 0.930 . S
C1073 C1072 1.377 . S
C1073 C1074 1.379 . S
C1074 H1058 0.931 . S
C1074 C1068 1.383 . S
C1074 C1073 1.379 . S
H1075 C1069 0.959 . S
H1076 C1069 0.961 . S
H1077 C1069 0.960 . S
H1078 C1070 0.930 . S
H1079 C1071 0.929 . S
H1080 C1088 0.929 . S
H1081 C1090 0.930 . S
H1082 C1092 0.930 . S
H1083 C1095 0.929 . S
H1084 C1098 0.930 . S
H1085 C1100 0.960 . S
H1086 C1100 0.960 . S
H1087 C1100 0.960 . S
C1088 H1080 0.929 . S
C1088 C1089 1.377 . S
C1088 C1090 1.384 . S
C1089 C1088 1.377 . S
C1089 C1095 1.390 . S
C1090 H1081 0.930 . S
C1090 C1088 1.384 . S
C1090 C1091 1.372 . S
C1091 C1090 1.372 . S
C1091 C1092 1.400 . S
C1091 C1096 1.490 . S
C1092 H1082 0.930 . S
C1092 C1091 1.400 . S
C1092 C1095 1.386 . S
H1093 C1109 0.930 . S
H1094 C1110 0.931 . S
C1095 H1083 0.929 . S
C1095 C1089 1.390 . S
C1095 C1092 1.386 . S
C1096 C1091 1.490 . S
C1096 C1098 1.395 . S
C1096 C1099 1.403 . S
H1097 C1103 0.930 . S
C1098 H1084 0.930 . S
C1098 C1096 1.395 . S
C1098 C1101 1.403 . S
C1099 C1096 1.403 . S
C1099 C1100 1.524 . S
C1099 C1103 1.400 . S
C1100 H1085 0.960 . S
C1100 H1086 0.960 . S
C1100 H1087 0.960 . S
C1100 C1099 1.524 . S
C1101 C1098 1.403 . S
C1101 C1102 1.392 . S
C1101 C1105 1.495 . S
C1102 C1101 1.392 . S
C1102 C1103 1.385 . S
C1102 C1104 1.478 . S
C1103 H1097 0.930 . S
C1103 C1099 1.400 . S
C1103 C1102 1.385 . S
C1104 C1102 1.478 . S
C1104 C1106 1.381 . S
C1104 C1110 1.383 . S
C1105 C1101 1.495 . S
C1105 H1111 0.959 . S
C1105 H1112 0.961 . S
C1105 H1113 0.960 . S
C1106 C1104 1.381 . S
C1106 C1107 1.394 . S
C1106 H1114 0.930 . S
C1107 C1106 1.394 . S
C1107 C1108 1.383 . S
C1107 H1115 0.929 . S
C1108 C1107 1.383 . S
C1108 C1109 1.377 . S
C1109 H1093 0.930 . S
C1109 C1108 1.377 . S
C1109 C1110 1.379 . S
C1110 H1094 0.931 . S
C1110 C1104 1.383 . S
C1110 C1109 1.379 . S
H1111 C1105 0.959 . S
H1112 C1105 0.961 . S
H1113 C1105 0.960 . S
H1114 C1106 0.930 . S
H1115 C1107 0.929 . S
H1116 C1124 0.929 . S
H1117 C1126 0.930 . S
H1118 C1128 0.930 . S
H1119 C1131 0.929 . S
H1120 C1134 0.930 . S
H1121 C1136 0.960 . S
H1122 C1136 0.960 . S
H1123 C1136 0.960 . S
C1124 H1116 0.929 . S
C1124 C1125 1.377 . S
C1124 C1126 1.384 . S
C1125 C1124 1.377 . S
C1125 C1131 1.390 . S
C1126 H1117 0.930 . S
C1126 C1124 1.384 . S
C1126 C1127 1.372 . S
C1127 C1126 1.372 . S
C1127 C1128 1.400 . S
C1127 C1132 1.490 . S
C1128 H1118 0.930 . S
C1128 C1127 1.400 . S
C1128 C1131 1.386 . S
H1129 C1145 0.930 . S
H1130 C1146 0.931 . S
C1131 H1119 0.929 . S
C1131 C1125 1.390 . S
C1131 C1128 1.386 . S
C1132 C1127 1.490 . S
C1132 C1134 1.395 . S
C1132 C1135 1.403 . S
H1133 C1139 0.930 . S
C1134 H1120 0.930 . S
C1134 C1132 1.395 . S
C1134 C1137 1.403 . S
C1135 C1132 1.403 . S
C1135 C1136 1.524 . S
C1135 C1139 1.400 . S
C1136 H1121 0.960 . S
C1136 H1122 0.960 . S
C1136 H1123 0.960 . S
C1136 C1135 1.524 . S
C1137 C1134 1.403 . S
C1137 C1138 1.392 . S
C1137 C1141 1.495 . S
C1138 C1137 1.392 . S
C1138 C1139 1.385 . S
C1138 C1140 1.478 . S
C1139 H1133 0.930 . S
C1139 C1135 1.400 . S
C1139 C1138 1.385 . S
C1140 C1138 1.478 . S
C1140 C1142 1.381 . S
C1140 C1146 1.383 . S
C1141 C1137 1.495 . S
C1141 H1147 0.959 . S
C1141 H1148 0.961 . S
C1141 H1149 0.960 . S
C1142 C1140 1.381 . S
C1142 C1143 1.394 . S
C1142 H1150 0.930 . S
C1143 C1142 1.394 . S
C1143 C1144 1.383 . S
C1143 H1151 0.929 . S
C1144 C1143 1.383 . S
C1144 C1145 1.377 . S
C1145 H1129 0.930 . S
C1145 C1144 1.377 . S
C1145 C1146 1.379 . S
C1146 H1130 0.931 . S
C1146 C1140 1.383 . S
C1146 C1145 1.379 . S
H1147 C1141 0.959 . S
H1148 C1141 0.961 . S
H1149 C1141 0.960 . S
H1150 C1142 0.930 . S
H1151 C1143 0.929 . S
H1152 C1160 0.929 . S
H1153 C1162 0.930 . S
H1154 C1164 0.930 . S
H1155 C1167 0.929 . S
H1156 C1170 0.930 . S
H1157 C1172 0.960 . S
H1158 C1172 0.960 . S
H1159 C1172 0.960 . S
C1160 H1152 0.929 . S
C1160 C1161 1.377 . S
C1160 C1162 1.384 . S
C1161 C1160 1.377 . S
C1161 C1167 1.390 . S
C1162 H1153 0.930 . S
C1162 C1160 1.384 . S
C1162 C1163 1.372 . S
C1163 C1162 1.372 . S
C1163 C1164 1.400 . S
C1163 C1168 1.490 . S
C1164 H1154 0.930 . S
C1164 C1163 1.400 . S
C1164 C1167 1.386 . S
H1165 C1181 0.930 . S
H1166 C1182 0.931 . S
C1167 H1155 0.929 . S
C1167 C1161 1.390 . S
C1167 C1164 1.386 . S
C1168 C1163 1.490 . S
C1168 C1170 1.395 . S
C1168 C1171 1.403 . S
H1169 C1175 0.930 . S
C1170 H1156 0.930 . S
C1170 C1168 1.395 . S
C1170 C1173 1.403 . S
C1171 C1168 1.403 . S
C1171 C1172 1.524 . S
C1171 C1175 1.400 . S
C1172 H1157 0.960 . S
C1172 H1158 0.960 . S
C1172 H1159 0.960 . S
C1172 C1171 1.524 . S
C1173 C1170 1.403 . S
C1173 C1174 1.392 . S
C1173 C1177 1.495 . S
C1174 C1173 1.392 . S
C1174 C1175 1.385 . S
C1174 C1176 1.478 . S
C1175 H1169 0.930 . S
C1175 C1171 1.400 . S
C1175 C1174 1.385 . S
C1176 C1174 1.478 . S
C1176 C1178 1.381 . S
C1176 C1182 1.383 1_556 S
C1177 C1173 1.495 . S
C1177 H1183 0.959 . S
C1177 H1184 0.961 . S
C1177 H1185 0.960 . S
C1178 C1176 1.381 . S
C1178 C1179 1.394 1_556 S
C1178 H1186 0.930 . S
C1179 C1178 1.394 1_554 S
C1179 C1180 1.383 . S
C1179 H1187 0.929 . S
C1180 C1179 1.383 . S
C1180 C1181 1.377 . S
C1181 H1165 0.930 . S
C1181 C1180 1.377 . S
C1181 C1182 1.379 . S
C1182 H1166 0.931 . S
C1182 C1176 1.383 1_554 S
C1182 C1181 1.379 . S
H1183 C1177 0.959 . S
H1184 C1177 0.961 . S
H1185 C1177 0.960 . S
H1186 C1178 0.930 . S
H1187 C1179 0.929 . S
H1188 C1196 0.929 . S
H1189 C1198 0.930 . S
H1190 C1200 0.930 . S
H1191 C1203 0.929 . S
H1192 C1206 0.930 . S
H1193 C1208 0.960 . S
H1194 C1208 0.960 . S
H1195 C1208 0.960 . S
C1196 H1188 0.929 . S
C1196 C1197 1.377 . S
C1196 C1198 1.384 . S
C1197 C1196 1.377 . S
C1197 C1203 1.390 . S
C1198 H1189 0.930 . S
C1198 C1196 1.384 . S
C1198 C1199 1.372 1_554 S
C1199 C1198 1.372 1_556 S
C1199 C1200 1.400 . S
C1199 C1204 1.490 . S
C1200 H1190 0.930 . S
C1200 C1199 1.400 . S
C1200 C1203 1.386 1_556 S
H1201 C1217 0.930 . S
H1202 C1218 0.931 . S
C1203 H1191 0.929 . S
C1203 C1197 1.390 . S
C1203 C1200 1.386 1_554 S
C1204 C1199 1.490 . S
C1204 C1206 1.395 . S
C1204 C1207 1.403 . S
H1205 C1211 0.930 . S
C1206 H1192 0.930 . S
C1206 C1204 1.395 . S
C1206 C1209 1.403 . S
C1207 C1204 1.403 . S
C1207 C1208 1.524 . S
C1207 C1211 1.400 . S
C1208 H1193 0.960 . S
C1208 H1194 0.960 . S
C1208 H1195 0.960 . S
C1208 C1207 1.524 . S
C1209 C1206 1.403 . S
C1209 C1210 1.392 . S
C1209 C1213 1.495 . S
C1210 C1209 1.392 . S
C1210 C1211 1.385 . S
C1210 C1212 1.478 . S
C1211 H1205 0.930 . S
C1211 C1207 1.400 . S
C1211 C1210 1.385 . S
C1212 C1210 1.478 . S
C1212 C1214 1.381 . S
C1212 C1218 1.383 . S
C1213 C1209 1.495 . S
C1213 H1219 0.959 . S
C1213 H1220 0.961 . S
C1213 H1221 0.960 . S
C1214 C1212 1.381 . S
C1214 C1215 1.394 . S
C1214 H1222 0.930 . S
C1215 C1214 1.394 . S
C1215 C1216 1.383 . S
C1215 H1223 0.929 . S
C1216 C1215 1.383 . S
C1216 C1217 1.377 . S
C1217 H1201 0.930 . S
C1217 C1216 1.377 . S
C1217 C1218 1.379 . S
C1218 H1202 0.931 . S
C1218 C1212 1.383 . S
C1218 C1217 1.379 . S
H1219 C1213 0.959 . S
H1220 C1213 0.961 . S
H1221 C1213 0.960 . S
H1222 C1214 0.930 . S
H1223 C1215 0.929 . S
H1224 C1232 0.929 . S
H1225 C1234 0.930 . S
H1226 C1236 0.930 . S
H1227 C1239 0.929 . S
H1228 C1242 0.930 . S
H1229 C1244 0.960 . S
H1230 C1244 0.960 1_554 S
H1231 C1244 0.960 1_554 S
C1232 H1224 0.929 . S
C1232 C1233 1.377 . S
C1232 C1234 1.384 1_554 S
C1233 C1232 1.377 . S
C1233 C1239 1.390 . S
C1234 H1225 0.930 . S
C1234 C1232 1.384 1_556 S
C1234 C1235 1.372 . S
C1235 C1234 1.372 . S
C1235 C1236 1.400 1_556 S
C1235 C1240 1.490 . S
C1236 H1226 0.930 . S
C1236 C1235 1.400 1_554 S
C1236 C1239 1.386 . S
H1237 C1253 0.930 . S
H1238 C1254 0.931 . S
C1239 H1227 0.929 . S
C1239 C1233 1.390 . S
C1239 C1236 1.386 . S
C1240 C1235 1.490 . S
C1240 C1242 1.395 . S
C1240 C1243 1.403 . S
H1241 C1247 0.930 . S
C1242 H1228 0.930 . S
C1242 C1240 1.395 . S
C1242 C1245 1.403 . S
C1243 C1240 1.403 . S
C1243 C1244 1.524 . S
C1243 C1247 1.400 . S
C1244 H1229 0.960 . S
C1244 H1230 0.960 1_556 S
C1244 H1231 0.960 1_556 S
C1244 C1243 1.524 . S
C1245 C1242 1.403 . S
C1245 C1246 1.392 . S
C1245 C1249 1.495 . S
C1246 C1245 1.392 . S
C1246 C1247 1.385 . S
C1246 C1248 1.478 . S
C1247 H1241 0.930 . S
C1247 C1243 1.400 . S
C1247 C1246 1.385 . S
C1248 C1246 1.478 . S
C1248 C1250 1.381 . S
C1248 C1254 1.383 . S
C1249 C1245 1.495 . S
C1249 H1255 0.959 . S
C1249 H1256 0.961 . S
C1249 H1257 0.960 . S
C1250 C1248 1.381 . S
C1250 C1251 1.394 . S
C1250 H1258 0.930 . S
C1251 C1250 1.394 . S
C1251 C1252 1.383 . S
C1251 H1259 0.929 . S
C1252 C1251 1.383 . S
C1252 C1253 1.377 . S
C1253 H1237 0.930 . S
C1253 C1252 1.377 . S
C1253 C1254 1.379 . S
C1254 H1238 0.931 . S
C1254 C1248 1.383 . S
C1254 C1253 1.379 . S
H1255 C1249 0.959 . S
H1256 C1249 0.961 . S
H1257 C1249 0.960 . S
H1258 C1250 0.930 . S
H1259 C1251 0.929 . S
H1260 C1268 0.929 . S
H1261 C1270 0.930 . S
H1262 C1272 0.930 . S
H1263 C1275 0.929 . S
H1264 C1278 0.930 . S
H1265 C1280 0.960 . S
H1266 C1280 0.960 . S
H1267 C1280 0.960 . S
C1268 H1260 0.929 . S
C1268 C1269 1.377 . S
C1268 C1270 1.384 . S
C1269 C1268 1.377 . S
C1269 C1275 1.390 . S
C1270 H1261 0.930 . S
C1270 C1268 1.384 . S
C1270 C1271 1.372 . S
C1271 C1270 1.372 . S
C1271 C1272 1.400 . S
C1271 C1276 1.490 . S
C1272 H1262 0.930 . S
C1272 C1271 1.400 . S
C1272 C1275 1.386 . S
H1273 C1289 0.930 . S
H1274 C1290 0.931 . S
C1275 H1263 0.929 . S
C1275 C1269 1.390 . S
C1275 C1272 1.386 . S
C1276 C1271 1.490 . S
C1276 C1278 1.395 . S
C1276 C1279 1.403 . S
H1277 C1283 0.930 . S
C1278 H1264 0.930 . S
C1278 C1276 1.395 . S
C1278 C1281 1.403 . S
C1279 C1276 1.403 . S
C1279 C1280 1.524 . S
C1279 C1283 1.400 . S
C1280 H1265 0.960 . S
C1280 H1266 0.960 . S
C1280 H1267 0.960 . S
C1280 C1279 1.524 . S
C1281 C1278 1.403 . S
C1281 C1282 1.392 . S
C1281 C1285 1.495 . S
C1282 C1281 1.392 . S
C1282 C1283 1.385 . S
C1282 C1284 1.478 . S
C1283 H1277 0.930 . S
C1283 C1279 1.400 . S
C1283 C1282 1.385 . S
C1284 C1282 1.478 . S
C1284 C1286 1.381 . S
C1284 C1290 1.383 . S
C1285 C1281 1.495 . S
C1285 H1291 0.959 . S
C1285 H1292 0.961 . S
C1285 H1293 0.960 . S
C1286 C1284 1.381 . S
C1286 C1287 1.394 . S
C1286 H1294 0.930 . S
C1287 C1286 1.394 . S
C1287 C1288 1.383 . S
C1287 H1295 0.929 . S
C1288 C1287 1.383 . S
C1288 C1289 1.377 . S
C1289 H1273 0.930 . S
C1289 C1288 1.377 . S
C1289 C1290 1.379 . S
C1290 H1274 0.931 . S
C1290 C1284 1.383 . S
C1290 C1289 1.379 . S
H1291 C1285 0.959 . S
H1292 C1285 0.961 . S
H1293 C1285 0.960 . S
H1294 C1286 0.930 . S
H1295 C1287 0.929 . S
H1296 C1304 0.929 . S
H1297 C1306 0.930 . S
H1298 C1308 0.930 . S
H1299 C1311 0.929 . S
H1300 C1314 0.930 . S
H1301 C1316 0.960 . S
H1302 C1316 0.960 . S
H1303 C1316 0.960 . S
C1304 H1296 0.929 . S
C1304 C1305 1.377 . S
C1304 C1306 1.384 . S
C1305 C1304 1.377 . S
C1305 C1311 1.390 . S
C1306 H1297 0.930 . S
C1306 C1304 1.384 . S
C1306 C1307 1.372 . S
C1307 C1306 1.372 . S
C1307 C1308 1.400 . S
C1307 C1312 1.490 . S
C1308 H1298 0.930 . S
C1308 C1307 1.400 . S
C1308 C1311 1.386 . S
H1309 C1325 0.930 . S
H1310 C1326 0.931 . S
C1311 H1299 0.929 . S
C1311 C1305 1.390 . S
C1311 C1308 1.386 . S
C1312 C1307 1.490 . S
C1312 C1314 1.395 . S
C1312 C1315 1.403 . S
H1313 C1319 0.930 . S
C1314 H1300 0.930 . S
C1314 C1312 1.395 . S
C1314 C1317 1.403 . S
C1315 C1312 1.403 . S
C1315 C1316 1.524 . S
C1315 C1319 1.400 . S
C1316 H1301 0.960 . S
C1316 H1302 0.960 . S
C1316 H1303 0.960 . S
C1316 C1315 1.524 . S
C1317 C1314 1.403 . S
C1317 C1318 1.392 . S
C1317 C1321 1.495 . S
C1318 C1317 1.392 . S
C1318 C1319 1.385 . S
C1318 C1320 1.478 . S
C1319 H1313 0.930 . S
C1319 C1315 1.400 . S
C1319 C1318 1.385 . S
C1320 C1318 1.478 . S
C1320 C1322 1.381 . S
C1320 C1326 1.383 . S
C1321 C1317 1.495 . S
C1321 H1327 0.959 . S
C1321 H1328 0.961 . S
C1321 H1329 0.960 . S
C1322 C1320 1.381 . S
C1322 C1323 1.394 . S
C1322 H1330 0.930 . S
C1323 C1322 1.394 . S
C1323 C1324 1.383 . S
C1323 H1331 0.929 . S
C1324 C1323 1.383 . S
C1324 C1325 1.377 . S
C1325 H1309 0.930 . S
C1325 C1324 1.377 . S
C1325 C1326 1.379 . S
C1326 H1310 0.931 . S
C1326 C1320 1.383 . S
C1326 C1325 1.379 . S
H1327 C1321 0.959 . S
H1328 C1321 0.961 . S
H1329 C1321 0.960 . S
H1330 C1322 0.930 . S
H1331 C1323 0.929 . S
H1332 C1340 0.929 . S
H1333 C1342 0.930 . S
H1334 C1344 0.930 . S
H1335 C1347 0.929 . S
H1336 C1350 0.930 . S
H1337 C1352 0.960 . S
H1338 C1352 0.960 . S
H1339 C1352 0.960 . S
C1340 H1332 0.929 . S
C1340 C1341 1.377 . S
C1340 C1342 1.384 . S
C1341 C1340 1.377 . S
C1341 C1347 1.390 . S
C1342 H1333 0.930 . S
C1342 C1340 1.384 . S
C1342 C1343 1.372 . S
C1343 C1342 1.372 . S
C1343 C1344 1.400 . S
C1343 C1348 1.490 . S
C1344 H1334 0.930 . S
C1344 C1343 1.400 . S
C1344 C1347 1.386 . S
H1345 C1361 0.930 . S
H1346 C1362 0.931 . S
C1347 H1335 0.929 . S
C1347 C1341 1.390 . S
C1347 C1344 1.386 . S
C1348 C1343 1.490 . S
C1348 C1350 1.395 . S
C1348 C1351 1.403 . S
H1349 C1355 0.930 . S
C1350 H1336 0.930 . S
C1350 C1348 1.395 . S
C1350 C1353 1.403 . S
C1351 C1348 1.403 . S
C1351 C1352 1.524 . S
C1351 C1355 1.400 . S
C1352 H1337 0.960 . S
C1352 H1338 0.960 . S
C1352 H1339 0.960 . S
C1352 C1351 1.524 . S
C1353 C1350 1.403 . S
C1353 C1354 1.392 . S
C1353 C1357 1.495 . S
C1354 C1353 1.392 . S
C1354 C1355 1.385 . S
C1354 C1356 1.478 . S
C1355 H1349 0.930 . S
C1355 C1351 1.400 . S
C1355 C1354 1.385 . S
C1356 C1354 1.478 . S
C1356 C1358 1.381 . S
C1356 C1362 1.383 . S
C1357 C1353 1.495 . S
C1357 H1363 0.959 . S
C1357 H1364 0.961 . S
C1357 H1365 0.960 . S
C1358 C1356 1.381 . S
C1358 C1359 1.394 . S
C1358 H1366 0.930 . S
C1359 C1358 1.394 . S
C1359 C1360 1.383 . S
C1359 H1367 0.929 . S
C1360 C1359 1.383 . S
C1360 C1361 1.377 . S
C1361 H1345 0.930 . S
C1361 C1360 1.377 . S
C1361 C1362 1.379 . S
C1362 H1346 0.931 . S
C1362 C1356 1.383 . S
C1362 C1361 1.379 . S
H1363 C1357 0.959 . S
H1364 C1357 0.961 . S
H1365 C1357 0.960 . S
H1366 C1358 0.930 . S
H1367 C1359 0.929 . S
H1368 C1376 0.929 . S
H1369 C1378 0.930 . S
H1370 C1380 0.930 . S
H1371 C1383 0.929 . S
H1372 C1386 0.930 . S
H1373 C1388 0.960 . S
H1374 C1388 0.960 1_556 S
H1375 C1388 0.960 1_556 S
C1376 H1368 0.929 . S
C1376 C1377 1.377 . S
C1376 C1378 1.384 1_556 S
C1377 C1376 1.377 . S
C1377 C1383 1.390 . S
C1378 H1369 0.930 . S
C1378 C1376 1.384 1_554 S
C1378 C1379 1.372 . S
C1379 C1378 1.372 . S
C1379 C1380 1.400 1_554 S
C1379 C1384 1.490 . S
C1380 H1370 0.930 . S
C1380 C1379 1.400 1_556 S
C1380 C1383 1.386 . S
H1381 C1397 0.930 . S
H1382 C1398 0.931 . S
C1383 H1371 0.929 . S
C1383 C1377 1.390 . S
C1383 C1380 1.386 . S
C1384 C1379 1.490 . S
C1384 C1386 1.395 . S
C1384 C1387 1.403 . S
H1385 C1391 0.930 . S
C1386 H1372 0.930 . S
C1386 C1384 1.395 . S
C1386 C1389 1.403 . S
C1387 C1384 1.403 . S
C1387 C1388 1.524 . S
C1387 C1391 1.400 . S
C1388 H1373 0.960 . S
C1388 H1374 0.960 1_554 S
C1388 H1375 0.960 1_554 S
C1388 C1387 1.524 . S
C1389 C1386 1.403 . S
C1389 C1390 1.392 . S
C1389 C1393 1.495 . S
C1390 C1389 1.392 . S
C1390 C1391 1.385 . S
C1390 C1392 1.478 . S
C1391 H1385 0.930 . S
C1391 C1387 1.400 . S
C1391 C1390 1.385 . S
C1392 C1390 1.478 . S
C1392 C1394 1.381 . S
C1392 C1398 1.383 . S
C1393 C1389 1.495 . S
C1393 H1399 0.959 . S
C1393 H1400 0.961 . S
C1393 H1401 0.960 . S
C1394 C1392 1.381 . S
C1394 C1395 1.394 . S
C1394 H1402 0.930 . S
C1395 C1394 1.394 . S
C1395 C1396 1.383 . S
C1395 H1403 0.929 . S
C1396 C1395 1.383 . S
C1396 C1397 1.377 . S
C1397 H1381 0.930 . S
C1397 C1396 1.377 . S
C1397 C1398 1.379 . S
C1398 H1382 0.931 . S
C1398 C1392 1.383 . S
C1398 C1397 1.379 . S
H1399 C1393 0.959 . S
H1400 C1393 0.961 . S
H1401 C1393 0.960 . S
H1402 C1394 0.930 . S
H1403 C1395 0.929 . S
H1404 C1412 0.929 . S
H1405 C1414 0.930 . S
H1406 C1416 0.930 . S
H1407 C1419 0.929 . S
H1408 C1422 0.930 . S
H1409 C1424 0.960 . S
H1410 C1424 0.960 . S
H1411 C1424 0.960 . S
C1412 H1404 0.929 . S
C1412 C1413 1.377 . S
C1412 C1414 1.384 1_556 S
C1413 C1412 1.377 . S
C1413 C1419 1.390 . S
C1414 H1405 0.930 . S
C1414 C1412 1.384 1_554 S
C1414 C1415 1.372 . S
C1415 C1414 1.372 . S
C1415 C1416 1.400 1_554 S
C1415 C1420 1.490 . S
C1416 H1406 0.930 . S
C1416 C1415 1.400 1_556 S
C1416 C1419 1.386 . S
H1417 C1433 0.930 . S
H1418 C1434 0.931 . S
C1419 H1407 0.929 . S
C1419 C1413 1.390 . S
C1419 C1416 1.386 . S
C1420 C1415 1.490 . S
C1420 C1422 1.395 . S
C1420 C1423 1.403 . S
H1421 C1427 0.930 . S
C1422 H1408 0.930 . S
C1422 C1420 1.395 . S
C1422 C1425 1.403 . S
C1423 C1420 1.403 . S
C1423 C1424 1.524 . S
C1423 C1427 1.400 . S
C1424 H1409 0.960 . S
C1424 H1410 0.960 . S
C1424 H1411 0.960 . S
C1424 C1423 1.524 . S
C1425 C1422 1.403 . S
C1425 C1426 1.392 . S
C1425 C1429 1.495 . S
C1426 C1425 1.392 . S
C1426 C1427 1.385 . S
C1426 C1428 1.478 . S
C1427 H1421 0.930 . S
C1427 C1423 1.400 . S
C1427 C1426 1.385 . S
C1428 C1426 1.478 . S
C1428 C1430 1.381 . S
C1428 C1434 1.383 . S
C1429 C1425 1.495 . S
C1429 H1435 0.959 . S
C1429 H1436 0.961 . S
C1429 H1437 0.960 . S
C1430 C1428 1.381 . S
C1430 C1431 1.394 . S
C1430 H1438 0.930 . S
C1431 C1430 1.394 . S
C1431 C1432 1.383 . S
C1431 H1439 0.929 . S
C1432 C1431 1.383 . S
C1432 C1433 1.377 . S
C1433 H1417 0.930 . S
C1433 C1432 1.377 . S
C1433 C1434 1.379 . S
C1434 H1418 0.931 . S
C1434 C1428 1.383 . S
C1434 C1433 1.379 . S
H1435 C1429 0.959 . S
H1436 C1429 0.961 . S
H1437 C1429 0.960 . S
H1438 C1430 0.930 . S
H1439 C1431 0.929 . S
H1440 C1448 0.929 . S
H1441 C1450 0.930 . S
H1442 C1452 0.930 . S
H1443 C1455 0.929 . S
H1444 C1458 0.930 . S
H1445 C1460 0.960 . S
H1446 C1460 0.960 . S
H1447 C1460 0.960 . S
C1448 H1440 0.929 . S
C1448 C1449 1.377 . S
C1448 C1450 1.384 . S
C1449 C1448 1.377 . S
C1449 C1455 1.390 . S
C1450 H1441 0.930 . S
C1450 C1448 1.384 . S
C1450 C1451 1.372 . S
C1451 C1450 1.372 . S
C1451 C1452 1.400 . S
C1451 C1456 1.490 . S
C1452 H1442 0.930 . S
C1452 C1451 1.400 . S
C1452 C1455 1.386 . S
H1453 C1469 0.930 . S
H1454 C1470 0.931 . S
C1455 H1443 0.929 . S
C1455 C1449 1.390 . S
C1455 C1452 1.386 . S
C1456 C1451 1.490 . S
C1456 C1458 1.395 . S
C1456 C1459 1.403 . S
H1457 C1463 0.930 . S
C1458 H1444 0.930 . S
C1458 C1456 1.395 . S
C1458 C1461 1.403 . S
C1459 C1456 1.403 . S
C1459 C1460 1.524 . S
C1459 C1463 1.400 . S
C1460 H1445 0.960 . S
C1460 H1446 0.960 . S
C1460 H1447 0.960 . S
C1460 C1459 1.524 . S
C1461 C1458 1.403 . S
C1461 C1462 1.392 . S
C1461 C1465 1.495 . S
C1462 C1461 1.392 . S
C1462 C1463 1.385 . S
C1462 C1464 1.478 . S
C1463 H1457 0.930 . S
C1463 C1459 1.400 . S
C1463 C1462 1.385 . S
C1464 C1462 1.478 . S
C1464 C1466 1.381 . S
C1464 C1470 1.383 1_554 S
C1465 C1461 1.495 . S
C1465 H1471 0.959 . S
C1465 H1472 0.961 . S
C1465 H1473 0.960 . S
C1466 C1464 1.381 . S
C1466 C1467 1.394 1_554 S
C1466 H1474 0.930 . S
C1467 C1466 1.394 1_556 S
C1467 C1468 1.383 . S
C1467 H1475 0.929 . S
C1468 C1467 1.383 . S
C1468 C1469 1.377 . S
C1469 H1453 0.930 . S
C1469 C1468 1.377 . S
C1469 C1470 1.379 . S
C1470 H1454 0.931 . S
C1470 C1464 1.383 1_556 S
C1470 C1469 1.379 . S
H1471 C1465 0.959 . S
H1472 C1465 0.961 . S
H1473 C1465 0.960 . S
H1474 C1466 0.930 . S
H1475 C1467 0.929 . S
H1476 C1484 0.929 . S
H1477 C1486 0.930 . S
H1478 C1488 0.930 . S
H1479 C1491 0.929 . S
H1480 C1494 0.930 . S
H1481 C1496 0.960 . S
H1482 C1496 0.960 . S
H1483 C1496 0.960 . S
C1484 H1476 0.929 . S
C1484 C1485 1.377 . S
C1484 C1486 1.384 . S
C1485 C1484 1.377 . S
C1485 C1491 1.390 . S
C1486 H1477 0.930 . S
C1486 C1484 1.384 . S
C1486 C1487 1.372 . S
C1487 C1486 1.372 . S
C1487 C1488 1.400 . S
C1487 C1492 1.490 . S
C1488 H1478 0.930 . S
C1488 C1487 1.400 . S
C1488 C1491 1.386 . S
H1489 C1505 0.930 . S
H1490 C1506 0.931 . S
C1491 H1479 0.929 . S
C1491 C1485 1.390 . S
C1491 C1488 1.386 . S
C1492 C1487 1.490 . S
C1492 C1494 1.395 . S
C1492 C1495 1.403 . S
H1493 C1499 0.930 . S
C1494 H1480 0.930 . S
C1494 C1492 1.395 . S
C1494 C1497 1.403 . S
C1495 C1492 1.403 . S
C1495 C1496 1.524 . S
C1495 C1499 1.400 . S
C1496 H1481 0.960 . S
C1496 H1482 0.960 . S
C1496 H1483 0.960 . S
C1496 C1495 1.524 . S
C1497 C1494 1.403 . S
C1497 C1498 1.392 . S
C1497 C1501 1.495 . S
C1498 C1497 1.392 . S
C1498 C1499 1.385 . S
C1498 C1500 1.478 . S
C1499 H1493 0.930 . S
C1499 C1495 1.400 . S
C1499 C1498 1.385 . S
C1500 C1498 1.478 . S
C1500 C1502 1.381 . S
C1500 C1506 1.383 . S
C1501 C1497 1.495 . S
C1501 H1507 0.959 . S
C1501 H1508 0.961 . S
C1501 H1509 0.960 . S
C1502 C1500 1.381 . S
C1502 C1503 1.394 . S
C1502 H1510 0.930 . S
C1503 C1502 1.394 . S
C1503 C1504 1.383 . S
C1503 H1511 0.929 . S
C1504 C1503 1.383 . S
C1504 C1505 1.377 . S
C1505 H1489 0.930 . S
C1505 C1504 1.377 . S
C1505 C1506 1.379 . S
C1506 H1490 0.931 . S
C1506 C1500 1.383 . S
C1506 C1505 1.379 . S
H1507 C1501 0.959 . S
H1508 C1501 0.961 . S
H1509 C1501 0.960 . S
H1510 C1502 0.930 . S
H1511 C1503 0.929 . S
H1512 C1520 0.929 . S
H1513 C1522 0.930 . S
H1514 C1524 0.930 . S
H1515 C1527 0.929 . S
H1516 C1530 0.930 . S
H1517 C1532 0.960 . S
H1518 C1532 0.960 . S
H1519 C1532 0.960 . S
C1520 H1512 0.929 . S
C1520 C1521 1.377 . S
C1520 C1522 1.384 . S
C1521 C1520 1.377 . S
C1521 C1527 1.390 . S
C1522 H1513 0.930 . S
C1522 C1520 1.384 . S
C1522 C1523 1.372 . S
C1523 C1522 1.372 . S
C1523 C1524 1.400 . S
C1523 C1528 1.490 . S
C1524 H1514 0.930 . S
C1524 C1523 1.400 . S
C1524 C1527 1.386 . S
H1525 C1541 0.930 . S
H1526 C1542 0.931 . S
C1527 H1515 0.929 . S
C1527 C1521 1.390 . S
C1527 C1524 1.386 . S
C1528 C1523 1.490 . S
C1528 C1530 1.395 . S
C1528 C1531 1.403 . S
H1529 C1535 0.930 . S
C1530 H1516 0.930 . S
C1530 C1528 1.395 . S
C1530 C1533 1.403 . S
C1531 C1528 1.403 . S
C1531 C1532 1.524 . S
C1531 C1535 1.400 . S
C1532 H1517 0.960 . S
C1532 H1518 0.960 . S
C1532 H1519 0.960 . S
C1532 C1531 1.524 . S
C1533 C1530 1.403 . S
C1533 C1534 1.392 . S
C1533 C1537 1.495 . S
C1534 C1533 1.392 . S
C1534 C1535 1.385 . S
C1534 C1536 1.478 . S
C1535 H1529 0.930 . S
C1535 C1531 1.400 . S
C1535 C1534 1.385 . S
C1536 C1534 1.478 . S
C1536 C1538 1.381 . S
C1536 C1542 1.383 . S
C1537 C1533 1.495 . S
C1537 H1543 0.959 . S
C1537 H1544 0.961 . S
C1537 H1545 0.960 . S
C1538 C1536 1.381 . S
C1538 C1539 1.394 . S
C1538 H1546 0.930 . S
C1539 C1538 1.394 . S
C1539 C1540 1.383 . S
C1539 H1547 0.929 . S
C1540 C1539 1.383 . S
C1540 C1541 1.377 . S
C1541 H1525 0.930 . S
C1541 C1540 1.377 . S
C1541 C1542 1.379 . S
C1542 H1526 0.931 . S
C1542 C1536 1.383 . S
C1542 C1541 1.379 . S
H1543 C1537 0.959 . S
H1544 C1537 0.961 . S
H1545 C1537 0.960 . S
H1546 C1538 0.930 . S
H1547 C1539 0.929 . S
H1548 C1556 0.929 . S
H1549 C1558 0.930 . S
H1550 C1560 0.930 . S
H1551 C1563 0.929 . S
H1552 C1566 0.930 . S
H1553 C1568 0.960 . S
H1554 C1568 0.960 . S
H1555 C1568 0.960 . S
C1556 H1548 0.929 . S
C1556 C1557 1.377 . S
C1556 C1558 1.384 . S
C1557 C1556 1.377 . S
C1557 C1563 1.390 . S
C1558 H1549 0.930 . S
C1558 C1556 1.384 . S
C1558 C1559 1.372 . S
C1559 C1558 1.372 . S
C1559 C1560 1.400 . S
C1559 C1564 1.490 . S
C1560 H1550 0.930 . S
C1560 C1559 1.400 . S
C1560 C1563 1.386 . S
H1561 C1577 0.930 . S
H1562 C1578 0.931 . S
C1563 H1551 0.929 . S
C1563 C1557 1.390 . S
C1563 C1560 1.386 . S
C1564 C1559 1.490 . S
C1564 C1566 1.395 . S
C1564 C1567 1.403 . S
H1565 C1571 0.930 . S
C1566 H1552 0.930 . S
C1566 C1564 1.395 . S
C1566 C1569 1.403 . S
C1567 C1564 1.403 . S
C1567 C1568 1.524 . S
C1567 C1571 1.400 . S
C1568 H1553 0.960 . S
C1568 H1554 0.960 . S
C1568 H1555 0.960 . S
C1568 C1567 1.524 . S
C1569 C1566 1.403 . S
C1569 C1570 1.392 . S
C1569 C1573 1.495 . S
C1570 C1569 1.392 . S
C1570 C1571 1.385 . S
C1570 C1572 1.478 . S
C1571 H1565 0.930 . S
C1571 C1567 1.400 . S
C1571 C1570 1.385 . S
C1572 C1570 1.478 . S
C1572 C1574 1.381 . S
C1572 C1578 1.383 . S
C1573 C1569 1.495 . S
C1573 H1579 0.959 . S
C1573 H1580 0.961 . S
C1573 H1581 0.960 . S
C1574 C1572 1.381 . S
C1574 C1575 1.394 . S
C1574 H1582 0.930 . S
C1575 C1574 1.394 . S
C1575 C1576 1.383 . S
C1575 H1583 0.929 . S
C1576 C1575 1.383 . S
C1576 C1577 1.377 . S
C1577 H1561 0.930 . S
C1577 C1576 1.377 . S
C1577 C1578 1.379 . S
C1578 H1562 0.931 . S
C1578 C1572 1.383 . S
C1578 C1577 1.379 . S
H1579 C1573 0.959 . S
H1580 C1573 0.961 . S
H1581 C1573 0.960 . S
H1582 C1574 0.930 . S
H1583 C1575 0.929 . S
H1584 C1592 0.929 . S
H1585 C1594 0.930 . S
H1586 C1596 0.930 . S
H1587 C1599 0.929 . S
H1588 C1602 0.930 . S
H1589 C1604 0.960 . S
H1590 C1604 0.960 . S
H1591 C1604 0.960 . S
C1592 H1584 0.929 . S
C1592 C1593 1.377 . S
C1592 C1594 1.384 . S
C1593 C1592 1.377 . S
C1593 C1599 1.390 . S
C1594 H1585 0.930 . S
C1594 C1592 1.384 . S
C1594 C1595 1.372 . S
C1595 C1594 1.372 . S
C1595 C1596 1.400 . S
C1595 C1600 1.490 . S
C1596 H1586 0.930 . S
C1596 C1595 1.400 . S
C1596 C1599 1.386 . S
H1597 C1613 0.930 . S
H1598 C1614 0.931 . S
C1599 H1587 0.929 . S
C1599 C1593 1.390 . S
C1599 C1596 1.386 . S
C1600 C1595 1.490 . S
C1600 C1602 1.395 . S
C1600 C1603 1.403 . S
H1601 C1607 0.930 . S
C1602 H1588 0.930 . S
C1602 C1600 1.395 . S
C1602 C1605 1.403 . S
C1603 C1600 1.403 . S
C1603 C1604 1.524 . S
C1603 C1607 1.400 . S
C1604 H1589 0.960 . S
C1604 H1590 0.960 . S
C1604 H1591 0.960 . S
C1604 C1603 1.524 . S
C1605 C1602 1.403 . S
C1605 C1606 1.392 . S
C1605 C1609 1.495 . S
C1606 C1605 1.392 . S
C1606 C1607 1.385 . S
C1606 C1608 1.478 . S
C1607 H1601 0.930 . S
C1607 C1603 1.400 . S
C1607 C1606 1.385 . S
C1608 C1606 1.478 . S
C1608 C1610 1.381 . S
C1608 C1614 1.383 . S
C1609 C1605 1.495 . S
C1609 H1615 0.959 . S
C1609 H1616 0.961 . S
C1609 H1617 0.960 . S
C1610 C1608 1.381 . S
C1610 C1611 1.394 . S
C1610 H1618 0.930 . S
C1611 C1610 1.394 . S
C1611 C1612 1.383 . S
C1611 H1619 0.929 . S
C1612 C1611 1.383 . S
C1612 C1613 1.377 . S
C1613 H1597 0.930 . S
C1613 C1612 1.377 . S
C1613 C1614 1.379 . S
C1614 H1598 0.931 . S
C1614 C1608 1.383 . S
C1614 C1613 1.379 . S
H1615 C1609 0.959 . S
H1616 C1609 0.961 . S
H1617 C1609 0.960 . S
H1618 C1610 0.930 . S
H1619 C1611 0.929 . S
H1620 C1628 0.929 . S
H1621 C1630 0.930 . S
H1622 C1632 0.930 . S
H1623 C1635 0.929 . S
H1624 C1638 0.930 . S
H1625 C1640 0.960 . S
H1626 C1640 0.960 . S
H1627 C1640 0.960 . S
C1628 H1620 0.929 . S
C1628 C1629 1.377 . S
C1628 C1630 1.384 . S
C1629 C1628 1.377 . S
C1629 C1635 1.390 . S
C1630 H1621 0.930 . S
C1630 C1628 1.384 . S
C1630 C1631 1.372 . S
C1631 C1630 1.372 . S
C1631 C1632 1.400 . S
C1631 C1636 1.490 . S
C1632 H1622 0.930 . S
C1632 C1631 1.400 . S
C1632 C1635 1.386 . S
H1633 C1649 0.930 . S
H1634 C1650 0.931 . S
C1635 H1623 0.929 . S
C1635 C1629 1.390 . S
C1635 C1632 1.386 . S
C1636 C1631 1.490 . S
C1636 C1638 1.395 . S
C1636 C1639 1.403 . S
H1637 C1643 0.930 . S
C1638 H1624 0.930 . S
C1638 C1636 1.395 . S
C1638 C1641 1.403 . S
C1639 C1636 1.403 . S
C1639 C1640 1.524 . S
C1639 C1643 1.400 . S
C1640 H1625 0.960 . S
C1640 H1626 0.960 . S
C1640 H1627 0.960 . S
C1640 C1639 1.524 . S
C1641 C1638 1.403 . S
C1641 C1642 1.392 . S
C1641 C1645 1.495 . S
C1642 C1641 1.392 . S
C1642 C1643 1.385 . S
C1642 C1644 1.478 . S
C1643 H1637 0.930 . S
C1643 C1639 1.400 . S
C1643 C1642 1.385 . S
C1644 C1642 1.478 . S
C1644 C1646 1.381 . S
C1644 C1650 1.383 . S
C1645 C1641 1.495 . S
C1645 H1651 0.959 . S
C1645 H1652 0.961 . S
C1645 H1653 0.960 . S
C1646 C1644 1.381 . S
C1646 C1647 1.394 . S
C1646 H1654 0.930 . S
C1647 C1646 1.394 . S
C1647 C1648 1.383 . S
C1647 H1655 0.929 . S
C1648 C1647 1.383 . S
C1648 C1649 1.377 . S
C1649 H1633 0.930 . S
C1649 C1648 1.377 . S
C1649 C1650 1.379 . S
C1650 H1634 0.931 . S
C1650 C1644 1.383 . S
C1650 C1649 1.379 . S
H1651 C1645 0.959 . S
H1652 C1645 0.961 . S
H1653 C1645 0.960 . S
H1654 C1646 0.930 . S
H1655 C1647 0.929 . S
H1656 C1664 0.929 . S
H1657 C1666 0.930 . S
H1658 C1668 0.930 . S
H1659 C1671 0.929 . S
H1660 C1674 0.930 . S
H1661 C1676 0.960 . S
H1662 C1676 0.960 . S
H1663 C1676 0.960 . S
C1664 H1656 0.929 . S
C1664 C1665 1.377 . S
C1664 C1666 1.384 . S
C1665 C1664 1.377 . S
C1665 C1671 1.390 . S
C1666 H1657 0.930 . S
C1666 C1664 1.384 . S
C1666 C1667 1.372 . S
C1667 C1666 1.372 . S
C1667 C1668 1.400 . S
C1667 C1672 1.490 . S
C1668 H1658 0.930 . S
C1668 C1667 1.400 . S
C1668 C1671 1.386 . S
H1669 C1685 0.930 . S
H1670 C1686 0.931 . S
C1671 H1659 0.929 . S
C1671 C1665 1.390 . S
C1671 C1668 1.386 . S
C1672 C1667 1.490 . S
C1672 C1674 1.395 . S
C1672 C1675 1.403 . S
H1673 C1679 0.930 . S
C1674 H1660 0.930 . S
C1674 C1672 1.395 . S
C1674 C1677 1.403 . S
C1675 C1672 1.403 . S
C1675 C1676 1.524 . S
C1675 C1679 1.400 . S
C1676 H1661 0.960 . S
C1676 H1662 0.960 . S
C1676 H1663 0.960 . S
C1676 C1675 1.524 . S
C1677 C1674 1.403 . S
C1677 C1678 1.392 . S
C1677 C1681 1.495 . S
C1678 C1677 1.392 . S
C1678 C1679 1.385 . S
C1678 C1680 1.478 . S
C1679 H1673 0.930 . S
C1679 C1675 1.400 . S
C1679 C1678 1.385 . S
C1680 C1678 1.478 . S
C1680 C1682 1.381 . S
C1680 C1686 1.383 . S
C1681 C1677 1.495 . S
C1681 H1687 0.959 . S
C1681 H1688 0.961 . S
C1681 H1689 0.960 . S
C1682 C1680 1.381 . S
C1682 C1683 1.394 . S
C1682 H1690 0.930 . S
C1683 C1682 1.394 . S
C1683 C1684 1.383 . S
C1683 H1691 0.929 . S
C1684 C1683 1.383 . S
C1684 C1685 1.377 . S
C1685 H1669 0.930 . S
C1685 C1684 1.377 . S
C1685 C1686 1.379 . S
C1686 H1670 0.931 . S
C1686 C1680 1.383 . S
C1686 C1685 1.379 . S
H1687 C1681 0.959 . S
H1688 C1681 0.961 . S
H1689 C1681 0.960 . S
H1690 C1682 0.930 . S
H1691 C1683 0.929 . S
H1692 C1700 0.929 . S
H1693 C1702 0.930 . S
H1694 C1704 0.930 . S
H1695 C1707 0.929 . S
H1696 C1710 0.930 . S
H1697 C1712 0.960 . S
H1698 C1712 0.960 . S
H1699 C1712 0.960 . S
C1700 H1692 0.929 . S
C1700 C1701 1.377 . S
C1700 C1702 1.384 . S
C1701 C1700 1.377 . S
C1701 C1707 1.390 . S
C1702 H1693 0.930 . S
C1702 C1700 1.384 . S
C1702 C1703 1.372 . S
C1703 C1702 1.372 . S
C1703 C1704 1.400 . S
C1703 C1708 1.490 . S
C1704 H1694 0.930 . S
C1704 C1703 1.400 . S
C1704 C1707 1.386 . S
H1705 C1721 0.930 . S
H1706 C1722 0.931 . S
C1707 H1695 0.929 . S
C1707 C1701 1.390 . S
C1707 C1704 1.386 . S
C1708 C1703 1.490 . S
C1708 C1710 1.395 . S
C1708 C1711 1.403 . S
H1709 C1715 0.930 . S
C1710 H1696 0.930 . S
C1710 C1708 1.395 . S
C1710 C1713 1.403 . S
C1711 C1708 1.403 . S
C1711 C1712 1.524 . S
C1711 C1715 1.400 . S
C1712 H1697 0.960 . S
C1712 H1698 0.960 . S
C1712 H1699 0.960 . S
C1712 C1711 1.524 . S
C1713 C1710 1.403 . S
C1713 C1714 1.392 . S
C1713 C1717 1.495 . S
C1714 C1713 1.392 . S
C1714 C1715 1.385 . S
C1714 C1716 1.459 1_556 S
C1715 H1709 0.930 . S
C1715 C1711 1.400 . S
C1715 C1714 1.385 . S
C1716 C1714 1.459 1_554 S
C1716 C1718 1.381 . S
C1716 C1722 1.402 . S
C1717 C1713 1.495 . S
C1717 H1723 0.959 . S
C1717 H1724 0.961 . S
C1717 H1725 0.960 . S
C1718 C1716 1.381 . S
C1718 C1719 1.392 . S
C1718 H1726 0.932 1_554 S
C1719 C1718 1.392 . S
C1719 C1720 1.383 . S
C1719 H1727 0.929 . S
C1720 C1719 1.383 . S
C1720 C1721 1.377 . S
C1721 H1705 0.930 . S
C1721 C1720 1.377 . S
C1721 C1722 1.379 . S
C1722 H1706 0.931 . S
C1722 C1716 1.402 . S
C1722 C1721 1.379 . S
H1723 C1717 0.959 . S
H1724 C1717 0.961 . S
H1725 C1717 0.960 . S
H1726 C1718 0.932 1_556 S
H1727 C1719 0.929 . S
H1728 C1736 0.929 . S
H1729 C1738 0.930 . S
H1730 C1740 0.930 . S
H1731 C1743 0.929 . S
H1732 C1746 0.930 . S
H1733 C1748 0.960 . S
H1734 C1748 0.960 . S
H1735 C1748 0.960 . S
C1736 H1728 0.929 . S
C1736 C1737 1.377 . S
C1736 C1738 1.384 1_554 S
C1737 C1736 1.377 . S
C1737 C1743 1.390 . S
C1738 H1729 0.930 . S
C1738 C1736 1.384 1_556 S
C1738 C1739 1.372 . S
C1739 C1738 1.372 . S
C1739 C1740 1.400 1_556 S
C1739 C1744 1.490 . S
C1740 H1730 0.930 . S
C1740 C1739 1.400 1_554 S
C1740 C1743 1.386 . S
H1741 C1757 0.930 . S
H1742 C1758 0.931 . S
C1743 H1731 0.929 . S
C1743 C1737 1.390 . S
C1743 C1740 1.386 . S
C1744 C1739 1.490 . S
C1744 C1746 1.395 . S
C1744 C1747 1.403 . S
H1745 C1751 0.930 . S
C1746 H1732 0.930 . S
C1746 C1744 1.395 . S
C1746 C1749 1.403 . S
C1747 C1744 1.403 . S
C1747 C1748 1.524 . S
C1747 C1751 1.400 . S
C1748 H1733 0.960 . S
C1748 H1734 0.960 . S
C1748 H1735 0.960 . S
C1748 C1747 1.524 . S
C1749 C1746 1.403 . S
C1749 C1750 1.392 . S
C1749 C1753 1.495 . S
C1750 C1749 1.392 . S
C1750 C1751 1.385 . S
C1750 C1752 1.478 . S
C1751 H1745 0.930 . S
C1751 C1747 1.400 . S
C1751 C1750 1.385 . S
C1752 C1750 1.478 . S
C1752 C1754 1.381 . S
C1752 C1758 1.383 . S
C1753 C1749 1.495 . S
C1753 H1759 0.959 . S
C1753 H1760 0.961 . S
C1753 H1761 0.960 . S
C1754 C1752 1.381 . S
C1754 C1755 1.394 . S
C1754 H1762 0.930 . S
C1755 C1754 1.394 . S
C1755 C1756 1.383 . S
C1755 H1763 0.929 . S
C1756 C1755 1.383 . S
C1756 C1757 1.377 . S
C1757 H1741 0.930 . S
C1757 C1756 1.377 . S
C1757 C1758 1.379 . S
C1758 H1742 0.931 . S
C1758 C1752 1.383 . S
C1758 C1757 1.379 . S
H1759 C1753 0.959 . S
H1760 C1753 0.961 . S
H1761 C1753 0.960 . S
H1762 C1754 0.930 . S
H1763 C1755 0.929 . S
H1764 C1772 0.929 . S
H1765 C1774 0.930 . S
H1766 C1776 0.930 . S
H1767 C1779 0.929 . S
H1768 C1782 0.930 . S
H1769 C1784 0.960 . S
H1770 C1784 0.960 . S
H1771 C1784 0.960 . S
C1772 H1764 0.929 . S
C1772 C1773 1.377 . S
C1772 C1774 1.384 . S
C1773 C1772 1.377 . S
C1773 C1779 1.390 . S
C1774 H1765 0.930 . S
C1774 C1772 1.384 . S
C1774 C1775 1.372 . S
C1775 C1774 1.372 . S
C1775 C1776 1.400 . S
C1775 C1780 1.490 . S
C1776 H1766 0.930 . S
C1776 C1775 1.400 . S
C1776 C1779 1.386 . S
H1777 C1793 0.930 . S
H1778 C1794 0.931 . S
C1779 H1767 0.929 . S
C1779 C1773 1.390 . S
C1779 C1776 1.386 . S
C1780 C1775 1.490 . S
C1780 C1782 1.395 . S
C1780 C1783 1.403 . S
H1781 C1787 0.930 . S
C1782 H1768 0.930 . S
C1782 C1780 1.395 . S
C1782 C1785 1.403 . S
C1783 C1780 1.403 . S
C1783 C1784 1.524 . S
C1783 C1787 1.400 . S
C1784 H1769 0.960 . S
C1784 H1770 0.960 . S
C1784 H1771 0.960 . S
C1784 C1783 1.524 . S
C1785 C1782 1.403 . S
C1785 C1786 1.392 . S
C1785 C1789 1.495 1_556 S
C1786 C1785 1.392 . S
C1786 C1787 1.385 . S
C1786 C1788 1.478 1_556 S
C1787 H1781 0.930 . S
C1787 C1783 1.400 . S
C1787 C1786 1.385 . S
C1788 C1786 1.478 1_554 S
C1788 C1790 1.381 . S
C1788 C1794 1.383 . S
C1789 C1785 1.495 1_554 S
C1789 H1795 0.959 . S
C1789 H1796 0.961 . S
C1789 H1797 0.960 . S
C1790 C1788 1.381 . S
C1790 C1791 1.394 . S
C1790 H1798 0.930 . S
C1791 C1790 1.394 . S
C1791 C1792 1.383 . S
C1791 H1799 0.929 . S
C1792 C1791 1.383 . S
C1792 C1793 1.377 . S
C1793 H1777 0.930 . S
C1793 C1792 1.377 . S
C1793 C1794 1.379 . S
C1794 H1778 0.931 . S
C1794 C1788 1.383 . S
C1794 C1793 1.379 . S
H1795 C1789 0.959 . S
H1796 C1789 0.961 . S
H1797 C1789 0.960 . S
H1798 C1790 0.930 . S
H1799 C1791 0.929 . S
H1800 C1808 0.929 . S
H1801 C1810 0.930 . S
H1802 C1812 0.930 . S
H1803 C1815 0.929 . S
H1804 C1818 0.930 . S
H1805 C1820 0.960 . S
H1806 C1820 0.960 . S
H1807 C1820 0.960 . S
C1808 H1800 0.929 . S
C1808 C1809 1.377 . S
C1808 C1810 1.384 . S
C1809 C1808 1.377 . S
C1809 C1815 1.390 . S
C1810 H1801 0.930 . S
C1810 C1808 1.384 . S
C1810 C1811 1.372 . S
C1811 C1810 1.372 . S
C1811 C1812 1.400 . S
C1811 C1816 1.490 . S
C1812 H1802 0.930 . S
C1812 C1811 1.400 . S
C1812 C1815 1.386 . S
H1813 C1829 0.930 . S
H1814 C1830 0.931 . S
C1815 H1803 0.929 . S
C1815 C1809 1.390 . S
C1815 C1812 1.386 . S
C1816 C1811 1.490 . S
C1816 C1818 1.395 . S
C1816 C1819 1.403 . S
H1817 C1823 0.930 . S
C1818 H1804 0.930 . S
C1818 C1816 1.395 . S
C1818 C1821 1.403 . S
C1819 C1816 1.403 . S
C1819 C1820 1.524 . S
C1819 C1823 1.400 . S
C1820 H1805 0.960 . S
C1820 H1806 0.960 . S
C1820 H1807 0.960 . S
C1820 C1819 1.524 . S
C1821 C1818 1.403 . S
C1821 C1822 1.392 . S
C1821 C1825 1.495 . S
C1822 C1821 1.392 . S
C1822 C1823 1.385 . S
C1822 C1824 1.478 . S
C1823 H1817 0.930 . S
C1823 C1819 1.400 . S
C1823 C1822 1.385 . S
C1824 C1822 1.478 . S
C1824 C1826 1.381 . S
C1824 C1830 1.383 . S
C1825 C1821 1.495 . S
C1825 H1831 0.959 . S
C1825 H1832 0.961 . S
C1825 H1833 0.960 . S
C1826 C1824 1.381 . S
C1826 C1827 1.394 . S
C1826 H1834 0.930 . S
C1827 C1826 1.394 . S
C1827 C1828 1.383 . S
C1827 H1835 0.929 . S
C1828 C1827 1.383 . S
C1828 C1829 1.377 . S
C1829 H1813 0.930 . S
C1829 C1828 1.377 . S
C1829 C1830 1.379 . S
C1830 H1814 0.931 . S
C1830 C1824 1.383 . S
C1830 C1829 1.379 . S
H1831 C1825 0.959 . S
H1832 C1825 0.961 . S
H1833 C1825 0.960 . S
H1834 C1826 0.930 . S
H1835 C1827 0.929 . S
H1836 C1844 0.929 . S
H1837 C1846 0.930 . S
H1838 C1848 0.930 . S
H1839 C1851 0.929 . S
H1840 C1854 0.930 . S
H1841 C1856 0.960 . S
H1842 C1856 0.960 . S
H1843 C1856 0.960 . S
C1844 H1836 0.929 . S
C1844 C1845 1.377 . S
C1844 C1846 1.384 . S
C1845 C1844 1.377 . S
C1845 C1851 1.390 . S
C1846 H1837 0.930 . S
C1846 C1844 1.384 . S
C1846 C1847 1.372 . S
C1847 C1846 1.372 . S
C1847 C1848 1.400 . S
C1847 C1852 1.490 . S
C1848 H1838 0.930 . S
C1848 C1847 1.400 . S
C1848 C1851 1.386 . S
H1849 C1865 0.930 . S
H1850 C1866 0.931 . S
C1851 H1839 0.929 . S
C1851 C1845 1.390 . S
C1851 C1848 1.386 . S
C1852 C1847 1.490 . S
C1852 C1854 1.395 . S
C1852 C1855 1.403 . S
H1853 C1859 0.930 . S
C1854 H1840 0.930 . S
C1854 C1852 1.395 . S
C1854 C1857 1.403 . S
C1855 C1852 1.403 . S
C1855 C1856 1.524 . S
C1855 C1859 1.400 . S
C1856 H1841 0.960 . S
C1856 H1842 0.960 . S
C1856 H1843 0.960 . S
C1856 C1855 1.524 . S
C1857 C1854 1.403 . S
C1857 C1858 1.392 . S
C1857 C1861 1.495 . S
C1858 C1857 1.392 . S
C1858 C1859 1.385 . S
C1858 C1860 1.478 . S
C1859 H1853 0.930 . S
C1859 C1855 1.400 . S
C1859 C1858 1.385 . S
C1860 C1858 1.478 . S
C1860 C1862 1.381 . S
C1860 C1866 1.383 . S
C1861 C1857 1.495 . S
C1861 H1867 0.959 . S
C1861 H1868 0.961 . S
C1861 H1869 0.960 . S
C1862 C1860 1.381 . S
C1862 C1863 1.394 . S
C1862 H1870 0.930 . S
C1863 C1862 1.394 . S
C1863 C1864 1.383 . S
C1863 H1871 0.929 . S
C1864 C1863 1.383 . S
C1864 C1865 1.377 . S
C1865 H1849 0.930 . S
C1865 C1864 1.377 . S
C1865 C1866 1.379 . S
C1866 H1850 0.931 . S
C1866 C1860 1.383 . S
C1866 C1865 1.379 . S
H1867 C1861 0.959 . S
H1868 C1861 0.961 . S
H1869 C1861 0.960 . S
H1870 C1862 0.930 . S
H1871 C1863 0.929 . S
H1872 C1880 0.929 . S
H1873 C1882 0.930 . S
H1874 C1884 0.930 . S
H1875 C1887 0.929 . S
H1876 C1890 0.930 . S
H1877 C1892 0.960 . S
H1878 C1892 0.960 . S
H1879 C1892 0.960 . S
C1880 H1872 0.929 . S
C1880 C1881 1.377 . S
C1880 C1882 1.384 . S
C1881 C1880 1.377 . S
C1881 C1887 1.390 . S
C1882 H1873 0.930 . S
C1882 C1880 1.384 . S
C1882 C1883 1.372 . S
C1883 C1882 1.372 . S
C1883 C1884 1.400 . S
C1883 C1888 1.490 . S
C1884 H1874 0.930 . S
C1884 C1883 1.400 . S
C1884 C1887 1.386 . S
H1885 C1901 0.930 . S
H1886 C1902 0.931 . S
C1887 H1875 0.929 . S
C1887 C1881 1.390 . S
C1887 C1884 1.386 . S
C1888 C1883 1.490 . S
C1888 C1890 1.395 . S
C1888 C1891 1.403 . S
H1889 C1895 0.930 . S
C1890 H1876 0.930 . S
C1890 C1888 1.395 . S
C1890 C1893 1.403 . S
C1891 C1888 1.403 . S
C1891 C1892 1.524 . S
C1891 C1895 1.400 . S
C1892 H1877 0.960 . S
C1892 H1878 0.960 . S
C1892 H1879 0.960 . S
C1892 C1891 1.524 . S
C1893 C1890 1.403 . S
C1893 C1894 1.392 . S
C1893 C1897 1.495 . S
C1894 C1893 1.392 . S
C1894 C1895 1.385 . S
C1894 C1896 1.478 . S
C1895 H1889 0.930 . S
C1895 C1891 1.400 . S
C1895 C1894 1.385 . S
C1896 C1894 1.478 . S
C1896 C1898 1.381 . S
C1896 C1902 1.383 . S
C1897 C1893 1.495 . S
C1897 H1903 0.959 . S
C1897 H1904 0.961 . S
C1897 H1905 0.960 . S
C1898 C1896 1.381 . S
C1898 C1899 1.394 . S
C1898 H1906 0.930 . S
C1899 C1898 1.394 . S
C1899 C1900 1.383 . S
C1899 H1907 0.929 . S
C1900 C1899 1.383 . S
C1900 C1901 1.377 . S
C1901 H1885 0.930 . S
C1901 C1900 1.377 . S
C1901 C1902 1.379 . S
C1902 H1886 0.931 . S
C1902 C1896 1.383 . S
C1902 C1901 1.379 . S
H1903 C1897 0.959 . S
H1904 C1897 0.961 . S
H1905 C1897 0.960 . S
H1906 C1898 0.930 . S
H1907 C1899 0.929 . S
H1908 C1916 0.929 . S
H1909 C1918 0.930 . S
H1910 C1920 0.930 . S
H1911 C1923 0.929 . S
H1912 C1926 0.930 . S
H1913 C1928 0.960 . S
H1914 C1928 0.960 . S
H1915 C1928 0.960 . S
C1916 H1908 0.929 . S
C1916 C1917 1.377 . S
C1916 C1918 1.384 . S
C1917 C1916 1.377 . S
C1917 C1923 1.390 . S
C1918 H1909 0.930 . S
C1918 C1916 1.384 . S
C1918 C1919 1.372 . S
C1919 C1918 1.372 . S
C1919 C1920 1.400 . S
C1919 C1924 1.490 . S
C1920 H1910 0.930 . S
C1920 C1919 1.400 . S
C1920 C1923 1.386 . S
H1921 C1937 0.930 . S
H1922 C1938 0.931 . S
C1923 H1911 0.929 . S
C1923 C1917 1.390 . S
C1923 C1920 1.386 . S
C1924 C1919 1.490 . S
C1924 C1926 1.395 . S
C1924 C1927 1.403 . S
H1925 C1931 0.930 . S
C1926 H1912 0.930 . S
C1926 C1924 1.395 . S
C1926 C1929 1.403 . S
C1927 C1924 1.403 . S
C1927 C1928 1.524 . S
C1927 C1931 1.400 . S
C1928 H1913 0.960 . S
C1928 H1914 0.960 . S
C1928 H1915 0.960 . S
C1928 C1927 1.524 . S
C1929 C1926 1.403 . S
C1929 C1930 1.392 . S
C1929 C1933 1.495 . S
C1930 C1929 1.392 . S
C1930 C1931 1.385 . S
C1930 C1932 1.478 . S
C1931 H1925 0.930 . S
C1931 C1927 1.400 . S
C1931 C1930 1.385 . S
C1932 C1930 1.478 . S
C1932 C1934 1.381 . S
C1932 C1938 1.383 . S
C1933 C1929 1.495 . S
C1933 H1939 0.959 . S
C1933 H1940 0.961 . S
C1933 H1941 0.960 . S
C1934 C1932 1.381 . S
C1934 C1935 1.394 . S
C1934 H1942 0.930 . S
C1935 C1934 1.394 . S
C1935 C1936 1.383 . S
C1935 H1943 0.929 . S
C1936 C1935 1.383 . S
C1936 C1937 1.377 . S
C1937 H1921 0.930 . S
C1937 C1936 1.377 . S
C1937 C1938 1.379 . S
C1938 H1922 0.931 . S
C1938 C1932 1.383 . S
C1938 C1937 1.379 . S
H1939 C1933 0.959 . S
H1940 C1933 0.961 . S
H1941 C1933 0.960 . S
H1942 C1934 0.930 . S
H1943 C1935 0.929 . S
H1944 C1952 0.929 . S
H1945 C1954 0.930 . S
H1946 C1956 0.930 . S
H1947 C1959 0.929 . S
H1948 C1962 0.930 . S
H1949 C1964 0.960 . S
H1950 C1964 0.960 . S
H1951 C1964 0.960 . S
C1952 H1944 0.929 . S
C1952 C1953 1.377 . S
C1952 C1954 1.384 . S
C1953 C1952 1.377 . S
C1953 C1959 1.390 . S
C1954 H1945 0.930 . S
C1954 C1952 1.384 . S
C1954 C1955 1.372 . S
C1955 C1954 1.372 . S
C1955 C1956 1.400 . S
C1955 C1960 1.490 . S
C1956 H1946 0.930 . S
C1956 C1955 1.400 . S
C1956 C1959 1.386 . S
H1957 C1973 0.930 . S
H1958 C1974 0.931 . S
C1959 H1947 0.929 . S
C1959 C1953 1.390 . S
C1959 C1956 1.386 . S
C1960 C1955 1.490 . S
C1960 C1962 1.395 . S
C1960 C1963 1.403 . S
H1961 C1967 0.930 . S
C1962 H1948 0.930 . S
C1962 C1960 1.395 . S
C1962 C1965 1.403 . S
C1963 C1960 1.403 . S
C1963 C1964 1.524 . S
C1963 C1967 1.400 . S
C1964 H1949 0.960 . S
C1964 H1950 0.960 . S
C1964 H1951 0.960 . S
C1964 C1963 1.524 . S
C1965 C1962 1.403 . S
C1965 C1966 1.392 . S
C1965 C1969 1.495 . S
C1966 C1965 1.392 . S
C1966 C1967 1.385 . S
C1966 C1968 1.478 . S
C1967 H1961 0.930 . S
C1967 C1963 1.400 . S
C1967 C1966 1.385 . S
C1968 C1966 1.478 . S
C1968 C1970 1.381 . S
C1968 C1974 1.383 . S
C1969 C1965 1.495 . S
C1969 H1975 0.959 . S
C1969 H1976 0.961 . S
C1969 H1977 0.960 . S
C1970 C1968 1.381 . S
C1970 C1971 1.394 . S
C1970 H1978 0.930 . S
C1971 C1970 1.394 . S
C1971 C1972 1.383 . S
C1971 H1979 0.929 . S
C1972 C1971 1.383 . S
C1972 C1973 1.377 . S
C1973 H1957 0.930 . S
C1973 C1972 1.377 . S
C1973 C1974 1.379 . S
C1974 H1958 0.931 . S
C1974 C1968 1.383 . S
C1974 C1973 1.379 . S
H1975 C1969 0.959 . S
H1976 C1969 0.961 . S
H1977 C1969 0.960 . S
H1978 C1970 0.930 . S
H1979 C1971 0.929 . S
H1980 C1988 0.929 . S
H1981 C1990 0.930 . S
H1982 C1992 0.930 . S
H1983 C1995 0.929 . S
H1984 C1998 0.930 . S
H1985 C2000 0.960 . S
H1986 C2000 0.960 . S
H1987 C2000 0.960 . S
C1988 H1980 0.929 . S
C1988 C1989 1.377 . S
C1988 C1990 1.384 . S
C1989 C1988 1.377 . S
C1989 C1995 1.390 . S
C1990 H1981 0.930 . S
C1990 C1988 1.384 . S
C1990 C1991 1.372 . S
C1991 C1990 1.372 . S
C1991 C1992 1.400 . S
C1991 C1996 1.490 . S
C1992 H1982 0.930 . S
C1992 C1991 1.400 . S
C1992 C1995 1.386 . S
H1993 C2009 0.930 . S
H1994 C2010 0.931 . S
C1995 H1983 0.929 . S
C1995 C1989 1.390 . S
C1995 C1992 1.386 . S
C1996 C1991 1.490 . S
C1996 C1998 1.395 . S
C1996 C1999 1.403 . S
H1997 C2003 0.930 . S
C1998 H1984 0.930 . S
C1998 C1996 1.395 . S
C1998 C2001 1.403 . S
C1999 C1996 1.403 . S
C1999 C2000 1.524 . S
C1999 C2003 1.400 . S
C2000 H1985 0.960 . S
C2000 H1986 0.960 . S
C2000 H1987 0.960 . S
C2000 C1999 1.524 . S
C2001 C1998 1.403 . S
C2001 C2002 1.392 . S
C2001 C2005 1.495 . S
C2002 C2001 1.392 . S
C2002 C2003 1.385 . S
C2002 C2004 1.478 . S
C2003 H1997 0.930 . S
C2003 C1999 1.400 . S
C2003 C2002 1.385 . S
C2004 C2002 1.478 . S
C2004 C2006 1.381 . S
C2004 C2010 1.383 . S
C2005 C2001 1.495 . S
C2005 H2011 0.959 . S
C2005 H2012 0.961 . S
C2005 H2013 0.960 . S
C2006 C2004 1.381 . S
C2006 C2007 1.394 . S
C2006 H2014 0.930 . S
C2007 C2006 1.394 . S
C2007 C2008 1.383 . S
C2007 H2015 0.929 . S
C2008 C2007 1.383 . S
C2008 C2009 1.377 . S
C2009 H1993 0.930 . S
C2009 C2008 1.377 . S
C2009 C2010 1.379 . S
C2010 H1994 0.931 . S
C2010 C2004 1.383 . S
C2010 C2009 1.379 . S
H2011 C2005 0.959 . S
H2012 C2005 0.961 . S
H2013 C2005 0.960 . S
H2014 C2006 0.930 . S
H2015 C2007 0.929 . S
H2016 C2024 0.929 . S
H2017 C2026 0.930 . S
H2018 C2028 0.930 . S
H2019 C2031 0.929 . S
H2020 C2034 0.930 . S
H2021 C2036 0.960 . S
H2022 C2036 0.960 . S
H2023 C2036 0.960 . S
C2024 H2016 0.929 . S
C2024 C2025 1.377 . S
C2024 C2026 1.384 . S
C2025 C2024 1.377 . S
C2025 C2031 1.390 . S
C2026 H2017 0.930 . S
C2026 C2024 1.384 . S
C2026 C2027 1.372 . S
C2027 C2026 1.372 . S
C2027 C2028 1.400 . S
C2027 C2032 1.490 . S
C2028 H2018 0.930 . S
C2028 C2027 1.400 . S
C2028 C2031 1.386 . S
H2029 C2045 0.930 . S
H2030 C2046 0.931 . S
C2031 H2019 0.929 . S
C2031 C2025 1.390 . S
C2031 C2028 1.386 . S
C2032 C2027 1.490 . S
C2032 C2034 1.395 . S
C2032 C2035 1.403 . S
H2033 C2039 0.930 . S
C2034 H2020 0.930 . S
C2034 C2032 1.395 . S
C2034 C2037 1.403 . S
C2035 C2032 1.403 . S
C2035 C2036 1.524 . S
C2035 C2039 1.400 . S
C2036 H2021 0.960 . S
C2036 H2022 0.960 . S
C2036 H2023 0.960 . S
C2036 C2035 1.524 . S
C2037 C2034 1.403 . S
C2037 C2038 1.392 . S
C2037 C2041 1.495 . S
C2038 C2037 1.392 . S
C2038 C2039 1.385 . S
C2038 C2040 1.478 . S
C2039 H2033 0.930 . S
C2039 C2035 1.400 . S
C2039 C2038 1.385 . S
C2040 C2038 1.478 . S
C2040 C2042 1.381 . S
C2040 C2046 1.383 . S
C2041 C2037 1.495 . S
C2041 H2047 0.959 . S
C2041 H2048 0.961 . S
C2041 H2049 0.960 . S
C2042 C2040 1.381 . S
C2042 C2043 1.394 . S
C2042 H2050 0.930 . S
C2043 C2042 1.394 . S
C2043 C2044 1.383 . S
C2043 H2051 0.929 . S
C2044 C2043 1.383 . S
C2044 C2045 1.377 . S
C2045 H2029 0.930 . S
C2045 C2044 1.377 . S
C2045 C2046 1.379 . S
C2046 H2030 0.931 . S
C2046 C2040 1.383 . S
C2046 C2045 1.379 . S
H2047 C2041 0.959 . S
H2048 C2041 0.961 . S
H2049 C2041 0.960 . S
H2050 C2042 0.930 . S
H2051 C2043 0.929 . S
H2052 C2060 0.929 . S
H2053 C2062 0.930 . S
H2054 C2064 0.930 . S
H2055 C2067 0.929 . S
H2056 C2070 0.930 . S
H2057 C2072 0.960 . S
H2058 C2072 0.960 . S
H2059 C2072 0.960 . S
C2060 H2052 0.929 . S
C2060 C2061 1.377 . S
C2060 C2062 1.384 . S
C2061 C2060 1.377 . S
C2061 C2067 1.390 . S
C2062 H2053 0.930 . S
C2062 C2060 1.384 . S
C2062 C2063 1.372 . S
C2063 C2062 1.372 . S
C2063 C2064 1.400 . S
C2063 C2068 1.490 . S
C2064 H2054 0.930 . S
C2064 C2063 1.400 . S
C2064 C2067 1.386 . S
H2065 C2081 0.930 . S
H2066 C2082 0.931 . S
C2067 H2055 0.929 . S
C2067 C2061 1.390 . S
C2067 C2064 1.386 . S
C2068 C2063 1.490 . S
C2068 C2070 1.395 . S
C2068 C2071 1.403 . S
H2069 C2075 0.930 . S
C2070 H2056 0.930 . S
C2070 C2068 1.395 . S
C2070 C2073 1.403 . S
C2071 C2068 1.403 . S
C2071 C2072 1.524 . S
C2071 C2075 1.400 . S
C2072 H2057 0.960 . S
C2072 H2058 0.960 . S
C2072 H2059 0.960 . S
C2072 C2071 1.524 . S
C2073 C2070 1.403 . S
C2073 C2074 1.392 . S
C2073 C2077 1.495 . S
C2074 C2073 1.392 . S
C2074 C2075 1.385 . S
C2074 C2076 1.478 . S
C2075 H2069 0.930 . S
C2075 C2071 1.400 . S
C2075 C2074 1.385 . S
C2076 C2074 1.478 . S
C2076 C2078 1.381 . S
C2076 C2082 1.383 . S
C2077 C2073 1.495 . S
C2077 H2083 0.959 . S
C2077 H2084 0.961 . S
C2077 H2085 0.960 . S
C2078 C2076 1.381 . S
C2078 C2079 1.394 . S
C2078 H2086 0.930 . S
C2079 C2078 1.394 . S
C2079 C2080 1.383 . S
C2079 H2087 0.929 . S
C2080 C2079 1.383 . S
C2080 C2081 1.377 . S
C2081 H2065 0.930 . S
C2081 C2080 1.377 . S
C2081 C2082 1.379 . S
C2082 H2066 0.931 . S
C2082 C2076 1.383 . S
C2082 C2081 1.379 . S
H2083 C2077 0.959 . S
H2084 C2077 0.961 . S
H2085 C2077 0.960 . S
H2086 C2078 0.930 . S
H2087 C2079 0.929 . S
H2088 C2096 0.929 . S
H2089 C2098 0.930 . S
H2090 C2100 0.930 . S
H2091 C2103 0.929 . S
H2092 C2106 0.930 . S
H2093 C2108 0.960 . S
H2094 C2108 0.960 . S
H2095 C2108 0.960 . S
C2096 H2088 0.929 . S
C2096 C2097 1.377 . S
C2096 C2098 1.384 . S
C2097 C2096 1.377 . S
C2097 C2103 1.390 . S
C2098 H2089 0.930 . S
C2098 C2096 1.384 . S
C2098 C2099 1.372 . S
C2099 C2098 1.372 . S
C2099 C2100 1.400 . S
C2099 C2104 1.490 . S
C2100 H2090 0.930 . S
C2100 C2099 1.400 . S
C2100 C2103 1.386 . S
H2101 C2117 0.930 . S
H2102 C2118 0.931 . S
C2103 H2091 0.929 . S
C2103 C2097 1.390 . S
C2103 C2100 1.386 . S
C2104 C2099 1.490 . S
C2104 C2106 1.395 . S
C2104 C2107 1.403 . S
H2105 C2111 0.930 . S
C2106 H2092 0.930 . S
C2106 C2104 1.395 . S
C2106 C2109 1.403 . S
C2107 C2104 1.403 . S
C2107 C2108 1.524 . S
C2107 C2111 1.400 . S
C2108 H2093 0.960 . S
C2108 H2094 0.960 . S
C2108 H2095 0.960 . S
C2108 C2107 1.524 . S
C2109 C2106 1.403 . S
C2109 C2110 1.392 . S
C2109 C2113 1.495 . S
C2110 C2109 1.392 . S
C2110 C2111 1.385 . S
C2110 C2112 1.478 . S
C2111 H2105 0.930 . S
C2111 C2107 1.400 . S
C2111 C2110 1.385 . S
C2112 C2110 1.478 . S
C2112 C2114 1.381 . S
C2112 C2118 1.383 . S
C2113 C2109 1.495 . S
C2113 H2119 0.959 . S
C2113 H2120 0.961 . S
C2113 H2121 0.960 . S
C2114 C2112 1.381 . S
C2114 C2115 1.394 . S
C2114 H2122 0.930 . S
C2115 C2114 1.394 . S
C2115 C2116 1.383 . S
C2115 H2123 0.929 . S
C2116 C2115 1.383 . S
C2116 C2117 1.377 . S
C2117 H2101 0.930 . S
C2117 C2116 1.377 . S
C2117 C2118 1.379 . S
C2118 H2102 0.931 . S
C2118 C2112 1.383 . S
C2118 C2117 1.379 . S
H2119 C2113 0.959 . S
H2120 C2113 0.961 . S
H2121 C2113 0.960 . S
H2122 C2114 0.930 . S
H2123 C2115 0.929 . S
H2124 C2132 0.929 . S
H2125 C2134 0.930 . S
H2126 C2136 0.930 . S
H2127 C2139 0.929 . S
H2128 C2142 0.930 . S
H2129 C2144 0.960 . S
H2130 C2144 0.960 . S
H2131 C2144 0.960 . S
C2132 H2124 0.929 . S
C2132 C2133 1.377 . S
C2132 C2134 1.384 . S
C2133 C2132 1.377 . S
C2133 C2139 1.390 . S
C2134 H2125 0.930 . S
C2134 C2132 1.384 . S
C2134 C2135 1.372 . S
C2135 C2134 1.372 . S
C2135 C2136 1.400 . S
C2135 C2140 1.490 . S
C2136 H2126 0.930 . S
C2136 C2135 1.400 . S
C2136 C2139 1.386 . S
H2137 C2153 0.930 . S
H2138 C2154 0.931 . S
C2139 H2127 0.929 . S
C2139 C2133 1.390 . S
C2139 C2136 1.386 . S
C2140 C2135 1.490 . S
C2140 C2142 1.395 . S
C2140 C2143 1.403 . S
H2141 C2147 0.930 . S
C2142 H2128 0.930 . S
C2142 C2140 1.395 . S
C2142 C2145 1.403 . S
C2143 C2140 1.403 . S
C2143 C2144 1.524 . S
C2143 C2147 1.400 . S
C2144 H2129 0.960 . S
C2144 H2130 0.960 . S
C2144 H2131 0.960 . S
C2144 C2143 1.524 . S
C2145 C2142 1.403 . S
C2145 C2146 1.392 . S
C2145 C2149 1.495 . S
C2146 C2145 1.392 . S
C2146 C2147 1.385 . S
C2146 C2148 1.478 . S
C2147 H2141 0.930 . S
C2147 C2143 1.400 . S
C2147 C2146 1.385 . S
C2148 C2146 1.478 . S
C2148 C2150 1.381 . S
C2148 C2154 1.383 . S
C2149 C2145 1.495 . S
C2149 H2155 0.959 . S
C2149 H2156 0.961 . S
C2149 H2157 0.960 . S
C2150 C2148 1.381 . S
C2150 C2151 1.394 . S
C2150 H2158 0.930 . S
C2151 C2150 1.394 . S
C2151 C2152 1.383 . S
C2151 H2159 0.929 . S
C2152 C2151 1.383 . S
C2152 C2153 1.377 . S
C2153 H2137 0.930 . S
C2153 C2152 1.377 . S
C2153 C2154 1.379 . S
C2154 H2138 0.931 . S
C2154 C2148 1.383 . S
C2154 C2153 1.379 . S
H2155 C2149 0.959 . S
H2156 C2149 0.961 . S
H2157 C2149 0.960 . S
H2158 C2150 0.930 . S
H2159 C2151 0.929 . S
H2160 C2168 0.929 . S
H2161 C2170 0.930 . S
H2162 C2172 0.930 . S
H2163 C2175 0.929 . S
H2164 C2178 0.930 . S
H2165 C2180 0.960 . S
H2166 C2180 0.960 . S
H2167 C2180 0.960 . S
C2168 H2160 0.929 . S
C2168 C2169 1.377 . S
C2168 C2170 1.384 . S
C2169 C2168 1.377 . S
C2169 C2175 1.390 . S
C2170 H2161 0.930 . S
C2170 C2168 1.384 . S
C2170 C2171 1.372 . S
C2171 C2170 1.372 . S
C2171 C2172 1.400 . S
C2171 C2176 1.490 . S
C2172 H2162 0.930 . S
C2172 C2171 1.400 . S
C2172 C2175 1.386 . S
H2173 C2189 0.930 . S
H2174 C2190 0.931 . S
C2175 H2163 0.929 . S
C2175 C2169 1.390 . S
C2175 C2172 1.386 . S
C2176 C2171 1.490 . S
C2176 C2178 1.395 . S
C2176 C2179 1.403 . S
H2177 C2183 0.930 . S
C2178 H2164 0.930 . S
C2178 C2176 1.395 . S
C2178 C2181 1.403 . S
C2179 C2176 1.403 . S
C2179 C2180 1.524 . S
C2179 C2183 1.400 . S
C2180 H2165 0.960 . S
C2180 H2166 0.960 . S
C2180 H2167 0.960 . S
C2180 C2179 1.524 . S
C2181 C2178 1.403 . S
C2181 C2182 1.392 . S
C2181 C2185 1.495 . S
C2182 C2181 1.392 . S
C2182 C2183 1.385 . S
C2182 C2184 1.478 . S
C2183 H2177 0.930 . S
C2183 C2179 1.400 . S
C2183 C2182 1.385 . S
C2184 C2182 1.478 . S
C2184 C2186 1.381 . S
C2184 C2190 1.383 . S
C2185 C2181 1.495 . S
C2185 H2191 0.959 . S
C2185 H2192 0.961 . S
C2185 H2193 0.960 . S
C2186 C2184 1.381 . S
C2186 C2187 1.394 . S
C2186 H2194 0.930 . S
C2187 C2186 1.394 . S
C2187 C2188 1.383 . S
C2187 H2195 0.929 . S
C2188 C2187 1.383 . S
C2188 C2189 1.377 . S
C2189 H2173 0.930 . S
C2189 C2188 1.377 . S
C2189 C2190 1.379 . S
C2190 H2174 0.931 . S
C2190 C2184 1.383 . S
C2190 C2189 1.379 . S
H2191 C2185 0.959 . S
H2192 C2185 0.961 . S
H2193 C2185 0.960 . S
H2194 C2186 0.930 . S
H2195 C2187 0.929 . S
H2196 C2204 0.929 . S
H2197 C2206 0.930 . S
H2198 C2208 0.930 . S
H2199 C2211 0.929 . S
H2200 C2214 0.930 . S
H2201 C2216 0.960 . S
H2202 C2216 0.960 . S
H2203 C2216 0.960 . S
C2204 H2196 0.929 . S
C2204 C2205 1.377 . S
C2204 C2206 1.384 . S
C2205 C2204 1.377 . S
C2205 C2211 1.390 . S
C2206 H2197 0.930 . S
C2206 C2204 1.384 . S
C2206 C2207 1.372 . S
C2207 C2206 1.372 . S
C2207 C2208 1.400 . S
C2207 C2212 1.490 . S
C2208 H2198 0.930 . S
C2208 C2207 1.400 . S
C2208 C2211 1.386 . S
H2209 C2225 0.930 . S
H2210 C2226 0.931 . S
C2211 H2199 0.929 . S
C2211 C2205 1.390 . S
C2211 C2208 1.386 . S
C2212 C2207 1.490 . S
C2212 C2214 1.395 . S
C2212 C2215 1.403 . S
H2213 C2219 0.930 . S
C2214 H2200 0.930 . S
C2214 C2212 1.395 . S
C2214 C2217 1.403 . S
C2215 C2212 1.403 . S
C2215 C2216 1.524 . S
C2215 C2219 1.400 . S
C2216 H2201 0.960 . S
C2216 H2202 0.960 . S
C2216 H2203 0.960 . S
C2216 C2215 1.524 . S
C2217 C2214 1.403 . S
C2217 C2218 1.392 . S
C2217 C2221 1.495 . S
C2218 C2217 1.392 . S
C2218 C2219 1.385 . S
C2218 C2220 1.478 . S
C2219 H2213 0.930 . S
C2219 C2215 1.400 . S
C2219 C2218 1.385 . S
C2220 C2218 1.478 . S
C2220 C2222 1.381 . S
C2220 C2226 1.383 . S
C2221 C2217 1.495 . S
C2221 H2227 0.959 . S
C2221 H2228 0.961 . S
C2221 H2229 0.960 . S
C2222 C2220 1.381 . S
C2222 C2223 1.394 . S
C2222 H2230 0.930 . S
C2223 C2222 1.394 . S
C2223 C2224 1.383 . S
C2223 H2231 0.929 . S
C2224 C2223 1.383 . S
C2224 C2225 1.377 . S
C2225 H2209 0.930 . S
C2225 C2224 1.377 . S
C2225 C2226 1.379 . S
C2226 H2210 0.931 . S
C2226 C2220 1.383 . S
C2226 C2225 1.379 . S
H2227 C2221 0.959 . S
H2228 C2221 0.961 . S
H2229 C2221 0.960 . S
H2230 C2222 0.930 . S
H2231 C2223 0.929 . S
H2232 C2240 0.929 . S
H2233 C2242 0.930 . S
H2234 C2244 0.930 . S
H2235 C2247 0.929 . S
H2236 C2250 0.930 . S
H2237 C2252 0.960 . S
H2238 C2252 0.960 . S
H2239 C2252 0.960 . S
C2240 H2232 0.929 . S
C2240 C2241 1.377 . S
C2240 C2242 1.384 . S
C2241 C2240 1.377 . S
C2241 C2247 1.390 . S
C2242 H2233 0.930 . S
C2242 C2240 1.384 . S
C2242 C2243 1.372 . S
C2243 C2242 1.372 . S
C2243 C2244 1.400 . S
C2243 C2248 1.490 . S
C2244 H2234 0.930 . S
C2244 C2243 1.400 . S
C2244 C2247 1.386 . S
H2245 C2261 0.930 . S
H2246 C2262 0.931 . S
C2247 H2235 0.929 . S
C2247 C2241 1.390 . S
C2247 C2244 1.386 . S
C2248 C2243 1.490 . S
C2248 C2250 1.395 . S
C2248 C2251 1.403 . S
H2249 C2255 0.930 . S
C2250 H2236 0.930 . S
C2250 C2248 1.395 . S
C2250 C2253 1.403 . S
C2251 C2248 1.403 . S
C2251 C2252 1.524 . S
C2251 C2255 1.400 . S
C2252 H2237 0.960 . S
C2252 H2238 0.960 . S
C2252 H2239 0.960 . S
C2252 C2251 1.524 . S
C2253 C2250 1.403 . S
C2253 C2254 1.392 . S
C2253 C2257 1.495 . S
C2254 C2253 1.392 . S
C2254 C2255 1.385 . S
C2254 C2256 1.478 . S
C2255 H2249 0.930 . S
C2255 C2251 1.400 . S
C2255 C2254 1.385 . S
C2256 C2254 1.478 . S
C2256 C2258 1.381 . S
C2256 C2262 1.383 . S
C2257 C2253 1.495 . S
C2257 H2263 0.959 . S
C2257 H2264 0.961 . S
C2257 H2265 0.960 . S
C2258 C2256 1.381 . S
C2258 C2259 1.394 . S
C2258 H2266 0.930 . S
C2259 C2258 1.394 . S
C2259 C2260 1.383 . S
C2259 H2267 0.929 . S
C2260 C2259 1.383 . S
C2260 C2261 1.377 . S
C2261 H2245 0.930 . S
C2261 C2260 1.377 . S
C2261 C2262 1.379 . S
C2262 H2246 0.931 . S
C2262 C2256 1.383 . S
C2262 C2261 1.379 . S
H2263 C2257 0.959 . S
H2264 C2257 0.961 . S
H2265 C2257 0.960 . S
H2266 C2258 0.930 . S
H2267 C2259 0.929 . S
H2268 C2276 0.929 . S
H2269 C2278 0.930 . S
H2270 C2280 0.930 . S
H2271 C2283 0.929 . S
H2272 C2286 0.930 . S
H2273 C2288 0.960 . S
H2274 C2288 0.960 . S
H2275 C2288 0.960 . S
C2276 H2268 0.929 . S
C2276 C2277 1.377 . S
C2276 C2278 1.384 . S
C2277 C2276 1.377 . S
C2277 C2283 1.390 . S
C2278 H2269 0.930 . S
C2278 C2276 1.384 . S
C2278 C2279 1.372 . S
C2279 C2278 1.372 . S
C2279 C2280 1.400 . S
C2279 C2284 1.490 . S
C2280 H2270 0.930 . S
C2280 C2279 1.400 . S
C2280 C2283 1.386 . S
H2281 C2297 0.930 . S
H2282 C2298 0.931 . S
C2283 H2271 0.929 . S
C2283 C2277 1.390 . S
C2283 C2280 1.386 . S
C2284 C2279 1.490 . S
C2284 C2286 1.395 . S
C2284 C2287 1.403 . S
H2285 C2291 0.930 . S
C2286 H2272 0.930 . S
C2286 C2284 1.395 . S
C2286 C2289 1.403 . S
C2287 C2284 1.403 . S
C2287 C2288 1.524 . S
C2287 C2291 1.400 . S
C2288 H2273 0.960 . S
C2288 H2274 0.960 . S
C2288 H2275 0.960 . S
C2288 C2287 1.524 . S
C2289 C2286 1.403 . S
C2289 C2290 1.392 . S
C2289 C2293 1.495 . S
C2290 C2289 1.392 . S
C2290 C2291 1.385 . S
C2290 C2292 1.478 . S
C2291 H2285 0.930 . S
C2291 C2287 1.400 . S
C2291 C2290 1.385 . S
C2292 C2290 1.478 . S
C2292 C2294 1.381 . S
C2292 C2298 1.383 . S
C2293 C2289 1.495 . S
C2293 H2299 0.959 . S
C2293 H2300 0.961 . S
C2293 H2301 0.960 . S
C2294 C2292 1.381 . S
C2294 C2295 1.394 . S
C2294 H2302 0.930 . S
C2295 C2294 1.394 . S
C2295 C2296 1.383 . S
C2295 H2303 0.929 . S
C2296 C2295 1.383 . S
C2296 C2297 1.377 . S
C2297 H2281 0.930 . S
C2297 C2296 1.377 . S
C2297 C2298 1.379 . S
C2298 H2282 0.931 . S
C2298 C2292 1.383 . S
C2298 C2297 1.379 . S
H2299 C2293 0.959 . S
H2300 C2293 0.961 . S
H2301 C2293 0.960 . S
H2302 C2294 0.930 . S
H2303 C2295 0.929 . S
H2304 C2312 0.929 . S
H2305 C2314 0.930 . S
H2306 C2316 0.930 . S
H2307 C2319 0.929 . S
H2308 C2322 0.930 . S
H2309 C2324 0.960 . S
H2310 C2324 0.960 . S
H2311 C2324 0.960 . S
C2312 H2304 0.929 . S
C2312 C2313 1.377 . S
C2312 C2314 1.384 . S
C2313 C2312 1.377 . S
C2313 C2319 1.390 . S
C2314 H2305 0.930 . S
C2314 C2312 1.384 . S
C2314 C2315 1.372 . S
C2315 C2314 1.372 . S
C2315 C2316 1.400 . S
C2315 C2320 1.490 . S
C2316 H2306 0.930 . S
C2316 C2315 1.400 . S
C2316 C2319 1.386 . S
H2317 C2333 0.930 . S
H2318 C2334 0.931 . S
C2319 H2307 0.929 . S
C2319 C2313 1.390 . S
C2319 C2316 1.386 . S
C2320 C2315 1.490 . S
C2320 C2322 1.395 . S
C2320 C2323 1.403 . S
H2321 C2327 0.930 . S
C2322 H2308 0.930 . S
C2322 C2320 1.395 . S
C2322 C2325 1.403 . S
C2323 C2320 1.403 . S
C2323 C2324 1.524 . S
C2323 C2327 1.400 . S
C2324 H2309 0.960 . S
C2324 H2310 0.960 . S
C2324 H2311 0.960 . S
C2324 C2323 1.524 . S
C2325 C2322 1.403 . S
C2325 C2326 1.392 . S
C2325 C2329 1.495 . S
C2326 C2325 1.392 . S
C2326 C2327 1.385 . S
C2326 C2328 1.478 . S
C2327 H2321 0.930 . S
C2327 C2323 1.400 . S
C2327 C2326 1.385 . S
C2328 C2326 1.478 . S
C2328 C2330 1.381 . S
C2328 C2334 1.383 . S
C2329 C2325 1.495 . S
C2329 H2335 0.959 . S
C2329 H2336 0.961 . S
C2329 H2337 0.960 . S
C2330 C2328 1.381 . S
C2330 C2331 1.394 . S
C2330 H2338 0.930 . S
C2331 C2330 1.394 . S
C2331 C2332 1.383 . S
C2331 H2339 0.929 . S
C2332 C2331 1.383 . S
C2332 C2333 1.377 . S
C2333 H2317 0.930 . S
C2333 C2332 1.377 . S
C2333 C2334 1.379 . S
C2334 H2318 0.931 . S
C2334 C2328 1.383 . S
C2334 C2333 1.379 . S
H2335 C2329 0.959 . S
H2336 C2329 0.961 . S
H2337 C2329 0.960 . S
H2338 C2330 0.930 . S
H2339 C2331 0.929 . S
H2340 C2348 0.929 . S
H2341 C2350 0.930 . S
H2342 C2352 0.930 . S
H2343 C2355 0.929 . S
H2344 C2358 0.930 . S
H2345 C2360 0.960 . S
H2346 C2360 0.960 . S
H2347 C2360 0.960 1_556 S
C2348 H2340 0.929 . S
C2348 C2349 1.377 . S
C2348 C2350 1.384 1_556 S
C2349 C2348 1.377 . S
C2349 C2355 1.390 . S
C2350 H2341 0.930 . S
C2350 C2348 1.384 1_554 S
C2350 C2351 1.372 . S
C2351 C2350 1.372 . S
C2351 C2352 1.400 1_554 S
C2351 C2356 1.490 . S
C2352 H2342 0.930 . S
C2352 C2351 1.400 1_556 S
C2352 C2355 1.386 . S
H2353 C2369 0.930 . S
H2354 C2370 0.931 . S
C2355 H2343 0.929 . S
C2355 C2349 1.390 . S
C2355 C2352 1.386 . S
C2356 C2351 1.490 . S
C2356 C2358 1.395 . S
C2356 C2359 1.403 . S
H2357 C2363 0.930 . S
C2358 H2344 0.930 . S
C2358 C2356 1.395 . S
C2358 C2361 1.403 . S
C2359 C2356 1.403 . S
C2359 C2360 1.524 . S
C2359 C2363 1.400 . S
C2360 H2345 0.960 . S
C2360 H2346 0.960 . S
C2360 H2347 0.960 1_554 S
C2360 C2359 1.524 . S
C2361 C2358 1.403 . S
C2361 C2362 1.392 . S
C2361 C2365 1.495 . S
C2362 C2361 1.392 . S
C2362 C2363 1.385 . S
C2362 C2364 1.478 . S
C2363 H2357 0.930 . S
C2363 C2359 1.400 . S
C2363 C2362 1.385 . S
C2364 C2362 1.478 . S
C2364 C2366 1.381 . S
C2364 C2370 1.383 . S
C2365 C2361 1.495 . S
C2365 H2371 0.959 . S
C2365 H2372 0.961 . S
C2365 H2373 0.960 . S
C2366 C2364 1.381 . S
C2366 C2367 1.394 . S
C2366 H2374 0.930 . S
C2367 C2366 1.394 . S
C2367 C2368 1.383 . S
C2367 H2375 0.929 . S
C2368 C2367 1.383 . S
C2368 C2369 1.377 . S
C2369 H2353 0.930 . S
C2369 C2368 1.377 . S
C2369 C2370 1.379 . S
C2370 H2354 0.931 . S
C2370 C2364 1.383 . S
C2370 C2369 1.379 . S
H2371 C2365 0.959 . S
H2372 C2365 0.961 . S
H2373 C2365 0.960 . S
H2374 C2366 0.930 . S
H2375 C2367 0.929 . S
H2376 C2384 0.929 . S
H2377 C2386 0.930 . S
H2378 C2388 0.930 1_554 S
H2379 C2391 0.929 . S
H2380 C2394 0.930 . S
H2381 C2396 0.960 . S
H2382 C2396 0.960 1_556 S
H2383 C2396 0.960 . S
C2384 H2376 0.929 . S
C2384 C2385 1.377 . S
C2384 C2386 1.384 . S
C2385 C2384 1.377 . S
C2385 C2391 1.390 . S
C2386 H2377 0.930 . S
C2386 C2384 1.384 . S
C2386 C2387 1.372 . S
C2387 C2386 1.372 . S
C2387 C2388 1.400 . S
C2387 C2392 1.490 1_556 S
C2388 H2378 0.930 1_556 S
C2388 C2387 1.400 . S
C2388 C2391 1.386 . S
H2389 C2405 0.930 . S
H2390 C2406 0.931 . S
C2391 H2379 0.929 . S
C2391 C2385 1.390 . S
C2391 C2388 1.386 . S
C2392 C2387 1.490 1_554 S
C2392 C2394 1.395 . S
C2392 C2395 1.403 . S
H2393 C2399 0.930 . S
C2394 H2380 0.930 . S
C2394 C2392 1.395 . S
C2394 C2397 1.403 . S
C2395 C2392 1.403 . S
C2395 C2396 1.524 . S
C2395 C2399 1.400 . S
C2396 H2381 0.960 . S
C2396 H2382 0.960 1_554 S
C2396 H2383 0.960 . S
C2396 C2395 1.524 . S
C2397 C2394 1.403 . S
C2397 C2398 1.392 . S
C2397 C2401 1.495 . S
C2398 C2397 1.392 . S
C2398 C2399 1.385 . S
C2398 C2400 1.478 . S
C2399 H2393 0.930 . S
C2399 C2395 1.400 . S
C2399 C2398 1.385 . S
C2400 C2398 1.478 . S
C2400 C2402 1.381 . S
C2400 C2406 1.383 . S
C2401 C2397 1.495 . S
C2401 H2407 0.959 . S
C2401 H2408 0.961 . S
C2401 H2409 0.960 . S
C2402 C2400 1.381 . S
C2402 C2403 1.394 . S
C2402 H2410 0.930 . S
C2403 C2402 1.394 . S
C2403 C2404 1.383 . S
C2403 H2411 0.929 . S
C2404 C2403 1.383 . S
C2404 C2405 1.377 . S
C2405 H2389 0.930 . S
C2405 C2404 1.377 . S
C2405 C2406 1.379 . S
C2406 H2390 0.931 . S
C2406 C2400 1.383 . S
C2406 C2405 1.379 . S
H2407 C2401 0.959 . S
H2408 C2401 0.961 . S
H2409 C2401 0.960 . S
H2410 C2402 0.930 . S
H2411 C2403 0.929 . S
H2412 C2420 0.929 . S
H2413 C2422 0.930 1_554 S
H2414 C2424 0.930 . S
H2415 C2427 0.929 . S
H2416 C2430 0.930 . S
H2417 C2432 0.960 . S
H2418 C2432 0.960 . S
H2419 C2432 0.960 . S
C2420 H2412 0.929 . S
C2420 C2421 1.377 . S
C2420 C2422 1.384 . S
C2421 C2420 1.377 . S
C2421 C2427 1.390 . S
C2422 H2413 0.930 1_556 S
C2422 C2420 1.384 . S
C2422 C2423 1.372 1_556 S
C2423 C2422 1.372 1_554 S
C2423 C2424 1.400 1_554 S
C2423 C2428 1.490 . S
C2424 H2414 0.930 . S
C2424 C2423 1.400 1_556 S
C2424 C2427 1.386 . S
H2425 C2441 0.930 . S
H2426 C2442 0.931 . S
C2427 H2415 0.929 . S
C2427 C2421 1.390 . S
C2427 C2424 1.386 . S
C2428 C2423 1.490 . S
C2428 C2430 1.395 . S
C2428 C2431 1.403 . S
H2429 C2435 0.930 . S
C2430 H2416 0.930 . S
C2430 C2428 1.395 . S
C2430 C2433 1.403 . S
C2431 C2428 1.403 . S
C2431 C2432 1.524 1_554 S
C2431 C2435 1.400 . S
C2432 H2417 0.960 . S
C2432 H2418 0.960 . S
C2432 H2419 0.960 . S
C2432 C2431 1.524 1_556 S
C2433 C2430 1.403 . S
C2433 C2434 1.392 . S
C2433 C2437 1.495 . S
C2434 C2433 1.392 . S
C2434 C2435 1.385 . S
C2434 C2436 1.478 . S
C2435 H2429 0.930 . S
C2435 C2431 1.400 . S
C2435 C2434 1.385 . S
C2436 C2434 1.478 . S
C2436 C2438 1.381 . S
C2436 C2442 1.383 . S
C2437 C2433 1.495 . S
C2437 H2443 0.959 . S
C2437 H2444 0.961 . S
C2437 H2445 0.960 . S
C2438 C2436 1.381 . S
C2438 C2439 1.394 . S
C2438 H2446 0.930 . S
C2439 C2438 1.394 . S
C2439 C2440 1.383 . S
C2439 H2447 0.929 . S
C2440 C2439 1.383 . S
C2440 C2441 1.377 . S
C2441 H2425 0.930 . S
C2441 C2440 1.377 . S
C2441 C2442 1.379 . S
C2442 H2426 0.931 . S
C2442 C2436 1.383 . S
C2442 C2441 1.379 . S
H2443 C2437 0.959 . S
H2444 C2437 0.961 . S
H2445 C2437 0.960 . S
H2446 C2438 0.930 . S
H2447 C2439 0.929 . S
H2448 C2456 0.929 . S
H2449 C2458 0.930 . S
H2450 C2460 0.930 . S
H2451 C2463 0.929 . S
H2452 C2466 0.930 . S
H2453 C2468 0.960 . S
H2454 C2468 0.960 . S
H2455 C2468 0.961 . S
C2456 H2448 0.929 . S
C2456 C2457 1.377 . S
C2456 C2458 1.384 . S
C2457 C2456 1.377 . S
C2457 C2463 1.390 . S
C2458 H2449 0.930 . S
C2458 C2456 1.384 . S
C2458 C2459 1.372 . S
C2459 C2458 1.372 . S
C2459 C2460 1.400 . S
C2459 C2464 1.490 . S
C2460 H2450 0.930 . S
C2460 C2459 1.400 . S
C2460 C2463 1.386 . S
H2461 C2477 0.930 . S
H2462 C2478 0.931 . S
C2463 H2451 0.929 . S
C2463 C2457 1.390 . S
C2463 C2460 1.386 . S
C2464 C2459 1.490 . S
C2464 C2466 1.395 . S
C2464 C2467 1.403 . S
H2465 C2471 0.930 . S
C2466 H2452 0.930 . S
C2466 C2464 1.395 . S
C2466 C2469 1.403 . S
C2467 C2464 1.403 . S
C2467 C2468 1.524 1_554 S
C2467 C2471 1.400 . S
C2468 H2453 0.960 . S
C2468 H2454 0.960 . S
C2468 H2455 0.961 . S
C2468 C2467 1.524 1_556 S
C2469 C2466 1.403 . S
C2469 C2470 1.392 . S
C2469 C2473 1.495 . S
C2470 C2469 1.392 . S
C2470 C2471 1.385 . S
C2470 C2472 1.478 . S
C2471 H2465 0.930 . S
C2471 C2467 1.400 . S
C2471 C2470 1.385 . S
C2472 C2470 1.478 . S
C2472 C2474 1.381 . S
C2472 C2478 1.383 . S
C2473 C2469 1.495 . S
C2473 H2479 0.959 . S
C2473 H2480 0.961 . S
C2473 H2481 0.960 . S
C2474 C2472 1.381 . S
C2474 C2475 1.394 . S
C2474 H2482 0.930 . S
C2475 C2474 1.394 . S
C2475 C2476 1.383 . S
C2475 H2483 0.929 . S
C2476 C2475 1.383 . S
C2476 C2477 1.377 . S
C2477 H2461 0.930 . S
C2477 C2476 1.377 . S
C2477 C2478 1.379 . S
C2478 H2462 0.931 . S
C2478 C2472 1.383 . S
C2478 C2477 1.379 . S
H2479 C2473 0.959 . S
H2480 C2473 0.961 . S
H2481 C2473 0.960 . S
H2482 C2474 0.930 . S
H2483 C2475 0.929 . S
H2484 C2492 0.929 . S
H2485 C2494 0.930 . S
H2486 C2496 0.930 . S
H2487 C2499 0.929 . S
H2488 C2502 0.930 . S
H2489 C2504 0.960 . S
H2490 C2504 0.960 . S
H2491 C2504 0.960 . S
C2492 H2484 0.929 . S
C2492 C2493 1.377 . S
C2492 C2494 1.384 . S
C2493 C2492 1.377 . S
C2493 C2499 1.390 . S
C2494 H2485 0.930 . S
C2494 C2492 1.384 . S
C2494 C2495 1.372 . S
C2495 C2494 1.372 . S
C2495 C2496 1.400 . S
C2495 C2500 1.490 . S
C2496 H2486 0.930 . S
C2496 C2495 1.400 . S
C2496 C2499 1.386 . S
H2497 C2513 0.930 . S
H2498 C2514 0.931 . S
C2499 H2487 0.929 . S
C2499 C2493 1.390 . S
C2499 C2496 1.386 . S
C2500 C2495 1.490 . S
C2500 C2502 1.395 . S
C2500 C2503 1.403 . S
H2501 C2507 0.930 . S
C2502 H2488 0.930 . S
C2502 C2500 1.395 . S
C2502 C2505 1.403 . S
C2503 C2500 1.403 . S
C2503 C2504 1.524 . S
C2503 C2507 1.400 . S
C2504 H2489 0.960 . S
C2504 H2490 0.960 . S
C2504 H2491 0.960 . S
C2504 C2503 1.524 . S
C2505 C2502 1.403 . S
C2505 C2506 1.392 . S
C2505 C2509 1.495 . S
C2506 C2505 1.392 . S
C2506 C2507 1.385 . S
C2506 C2508 1.478 . S
C2507 H2501 0.930 . S
C2507 C2503 1.400 . S
C2507 C2506 1.385 . S
C2508 C2506 1.478 . S
C2508 C2510 1.381 . S
C2508 C2514 1.383 . S
C2509 C2505 1.495 . S
C2509 H2515 0.959 . S
C2509 H2516 0.961 1_554 S
C2509 H2517 0.960 . S
C2510 C2508 1.381 . S
C2510 C2511 1.394 . S
C2510 H2518 0.930 . S
C2511 C2510 1.394 . S
C2511 C2512 1.383 . S
C2511 H2519 0.929 . S
C2512 C2511 1.383 . S
C2512 C2513 1.377 . S
C2513 H2497 0.930 . S
C2513 C2512 1.377 . S
C2513 C2514 1.379 . S
C2514 H2498 0.931 . S
C2514 C2508 1.383 . S
C2514 C2513 1.379 . S
H2515 C2509 0.959 . S
H2516 C2509 0.961 1_556 S
H2517 C2509 0.960 . S
H2518 C2510 0.930 . S
H2519 C2511 0.929 . S
H2520 C2528 0.929 1_556 S
H2521 C2530 0.930 1_556 S
H2522 C2532 0.930 . S
H2523 C2535 0.929 . S
H2524 C2538 0.930 . S
H2525 C2540 0.960 . S
H2526 C2540 0.960 . S
H2527 C2540 0.960 . S
C2528 H2520 0.929 1_554 S
C2528 C2529 1.377 . S
C2528 C2530 1.384 . S
C2529 C2528 1.377 . S
C2529 C2535 1.390 . S
C2530 H2521 0.930 1_554 S
C2530 C2528 1.384 . S
C2530 C2531 1.372 . S
C2531 C2530 1.372 . S
C2531 C2532 1.400 . S
C2531 C2536 1.490 . S
C2532 H2522 0.930 . S
C2532 C2531 1.400 . S
C2532 C2535 1.386 . S
H2533 C2549 0.930 . S
H2534 C2550 0.931 . S
C2535 H2523 0.929 . S
C2535 C2529 1.390 . S
C2535 C2532 1.386 . S
C2536 C2531 1.490 . S
C2536 C2538 1.395 . S
C2536 C2539 1.403 . S
H2537 C2543 0.930 . S
C2538 H2524 0.930 . S
C2538 C2536 1.395 . S
C2538 C2541 1.403 . S
C2539 C2536 1.403 . S
C2539 C2540 1.524 . S
C2539 C2543 1.400 . S
C2540 H2525 0.960 . S
C2540 H2526 0.960 . S
C2540 H2527 0.960 . S
C2540 C2539 1.524 . S
C2541 C2538 1.403 . S
C2541 C2542 1.392 . S
C2541 C2545 1.495 . S
C2542 C2541 1.392 . S
C2542 C2543 1.385 . S
C2542 C2544 1.478 . S
C2543 H2537 0.930 . S
C2543 C2539 1.400 . S
C2543 C2542 1.385 . S
C2544 C2542 1.478 . S
C2544 C2546 1.381 . S
C2544 C2550 1.383 . S
C2545 C2541 1.495 . S
C2545 H2551 0.959 1_554 S
C2545 H2552 0.961 . S
C2545 H2553 0.960 . S
C2546 C2544 1.381 . S
C2546 C2547 1.394 . S
C2546 H2554 0.930 . S
C2547 C2546 1.394 . S
C2547 C2548 1.383 . S
C2547 H2555 0.929 . S
C2548 C2547 1.383 . S
C2548 C2549 1.377 . S
C2549 H2533 0.930 . S
C2549 C2548 1.377 . S
C2549 C2550 1.379 . S
C2550 H2534 0.931 . S
C2550 C2544 1.383 . S
C2550 C2549 1.379 . S
H2551 C2545 0.959 1_556 S
H2552 C2545 0.961 . S
H2553 C2545 0.960 . S
H2554 C2546 0.930 . S
H2555 C2547 0.929 . S
H2556 C2564 0.929 . S
H2557 C2566 0.930 . S
H2558 C2568 0.930 . S
H2559 C2571 0.929 . S
H2560 C2574 0.930 . S
H2561 C2576 0.960 . S
H2562 C2576 0.960 . S
H2563 C2576 0.960 . S
C2564 H2556 0.929 . S
C2564 C2565 1.377 . S
C2564 C2566 1.384 . S
C2565 C2564 1.377 . S
C2565 C2571 1.390 . S
C2566 H2557 0.930 . S
C2566 C2564 1.384 . S
C2566 C2567 1.372 . S
C2567 C2566 1.372 . S
C2567 C2568 1.400 . S
C2567 C2572 1.490 . S
C2568 H2558 0.930 . S
C2568 C2567 1.400 . S
C2568 C2571 1.386 . S
H2569 C2585 0.930 . S
H2570 C2586 0.931 . S
C2571 H2559 0.929 . S
C2571 C2565 1.390 . S
C2571 C2568 1.386 . S
C2572 C2567 1.490 . S
C2572 C2574 1.395 . S
C2572 C2575 1.403 . S
H2573 C2579 0.930 . S
C2574 H2560 0.930 . S
C2574 C2572 1.395 . S
C2574 C2577 1.403 . S
C2575 C2572 1.403 . S
C2575 C2576 1.524 . S
C2575 C2579 1.400 . S
C2576 H2561 0.960 . S
C2576 H2562 0.960 . S
C2576 H2563 0.960 . S
C2576 C2575 1.524 . S
C2577 C2574 1.403 . S
C2577 C2578 1.392 . S
C2577 C2581 1.495 . S
C2578 C2577 1.392 . S
C2578 C2579 1.385 . S
C2578 C2580 1.478 . S
C2579 H2573 0.930 . S
C2579 C2575 1.400 . S
C2579 C2578 1.385 . S
C2580 C2578 1.478 . S
C2580 C2582 1.381 . S
C2580 C2586 1.383 . S
C2581 C2577 1.495 . S
C2581 H2587 0.959 . S
C2581 H2588 0.961 . S
C2581 H2589 0.960 . S
C2582 C2580 1.381 . S
C2582 C2583 1.394 . S
C2582 H2590 0.930 . S
C2583 C2582 1.394 . S
C2583 C2584 1.383 . S
C2583 H2591 0.929 . S
C2584 C2583 1.383 . S
C2584 C2585 1.377 . S
C2585 H2569 0.930 . S
C2585 C2584 1.377 . S
C2585 C2586 1.379 . S
C2586 H2570 0.931 . S
C2586 C2580 1.383 . S
C2586 C2585 1.379 . S
H2587 C2581 0.959 . S
H2588 C2581 0.961 . S
H2589 C2581 0.960 . S
H2590 C2582 0.930 . S
H2591 C2583 0.929 . S
H2592 C2600 0.929 . S
H2593 C2602 0.930 . S
H2594 C2604 0.930 . S
H2595 C2607 0.929 . S
H2596 C2610 0.930 . S
H2597 C2612 0.960 . S
H2598 C2612 0.960 . S
H2599 C2612 0.960 . S
C2600 H2592 0.929 . S
C2600 C2601 1.377 . S
C2600 C2602 1.384 . S
C2601 C2600 1.377 . S
C2601 C2607 1.390 . S
C2602 H2593 0.930 . S
C2602 C2600 1.384 . S
C2602 C2603 1.372 . S
C2603 C2602 1.372 . S
C2603 C2604 1.400 . S
C2603 C2608 1.490 . S
C2604 H2594 0.930 . S
C2604 C2603 1.400 . S
C2604 C2607 1.386 . S
H2605 C2621 0.930 . S
H2606 C2622 0.931 . S
C2607 H2595 0.929 . S
C2607 C2601 1.390 . S
C2607 C2604 1.386 . S
C2608 C2603 1.490 . S
C2608 C2610 1.395 . S
C2608 C2611 1.403 . S
H2609 C2615 0.930 . S
C2610 H2596 0.930 . S
C2610 C2608 1.395 . S
C2610 C2613 1.403 . S
C2611 C2608 1.403 . S
C2611 C2612 1.524 . S
C2611 C2615 1.400 . S
C2612 H2597 0.960 . S
C2612 H2598 0.960 . S
C2612 H2599 0.960 . S
C2612 C2611 1.524 . S
C2613 C2610 1.403 . S
C2613 C2614 1.392 . S
C2613 C2617 1.495 . S
C2614 C2613 1.392 . S
C2614 C2615 1.385 . S
C2614 C2616 1.478 . S
C2615 H2609 0.930 . S
C2615 C2611 1.400 . S
C2615 C2614 1.385 . S
C2616 C2614 1.478 . S
C2616 C2618 1.381 . S
C2616 C2622 1.383 . S
C2617 C2613 1.495 . S
C2617 H2623 0.959 . S
C2617 H2624 0.961 . S
C2617 H2625 0.960 . S
C2618 C2616 1.381 . S
C2618 C2619 1.394 . S
C2618 H2626 0.930 . S
C2619 C2618 1.394 . S
C2619 C2620 1.383 . S
C2619 H2627 0.929 . S
C2620 C2619 1.383 . S
C2620 C2621 1.377 . S
C2621 H2605 0.930 . S
C2621 C2620 1.377 . S
C2621 C2622 1.379 . S
C2622 H2606 0.931 . S
C2622 C2616 1.383 . S
C2622 C2621 1.379 . S
H2623 C2617 0.959 . S
H2624 C2617 0.961 . S
H2625 C2617 0.960 . S
H2626 C2618 0.930 . S
H2627 C2619 0.929 . S
H2628 C2636 0.929 . S
H2629 C2638 0.930 . S
H2630 C2640 0.930 . S
H2631 C2643 0.929 . S
H2632 C2646 0.930 . S
H2633 C2648 0.960 . S
H2634 C2648 0.960 . S
H2635 C2648 0.960 . S
C2636 H2628 0.929 . S
C2636 C2637 1.377 . S
C2636 C2638 1.384 . S
C2637 C2636 1.377 . S
C2637 C2643 1.390 . S
C2638 H2629 0.930 . S
C2638 C2636 1.384 . S
C2638 C2639 1.372 . S
C2639 C2638 1.372 . S
C2639 C2640 1.400 . S
C2639 C2644 1.490 . S
C2640 H2630 0.930 . S
C2640 C2639 1.400 . S
C2640 C2643 1.386 . S
H2641 C2657 0.930 . S
H2642 C2658 0.931 . S
C2643 H2631 0.929 . S
C2643 C2637 1.390 . S
C2643 C2640 1.386 . S
C2644 C2639 1.490 . S
C2644 C2646 1.395 . S
C2644 C2647 1.403 . S
H2645 C2651 0.930 . S
C2646 H2632 0.930 . S
C2646 C2644 1.395 . S
C2646 C2649 1.403 . S
C2647 C2644 1.403 . S
C2647 C2648 1.524 . S
C2647 C2651 1.400 . S
C2648 H2633 0.960 . S
C2648 H2634 0.960 . S
C2648 H2635 0.960 . S
C2648 C2647 1.524 . S
C2649 C2646 1.403 . S
C2649 C2650 1.392 . S
C2649 C2653 1.495 . S
C2650 C2649 1.392 . S
C2650 C2651 1.385 . S
C2650 C2652 1.478 . S
C2651 H2645 0.930 . S
C2651 C2647 1.400 . S
C2651 C2650 1.385 . S
C2652 C2650 1.478 . S
C2652 C2654 1.381 . S
C2652 C2658 1.383 . S
C2653 C2649 1.495 . S
C2653 H2659 0.959 . S
C2653 H2660 0.961 . S
C2653 H2661 0.960 . S
C2654 C2652 1.381 . S
C2654 C2655 1.394 . S
C2654 H2662 0.930 . S
C2655 C2654 1.394 . S
C2655 C2656 1.383 . S
C2655 H2663 0.929 . S
C2656 C2655 1.383 . S
C2656 C2657 1.377 . S
C2657 H2641 0.930 . S
C2657 C2656 1.377 . S
C2657 C2658 1.379 . S
C2658 H2642 0.931 . S
C2658 C2652 1.383 . S
C2658 C2657 1.379 . S
H2659 C2653 0.959 . S
H2660 C2653 0.961 . S
H2661 C2653 0.960 . S
H2662 C2654 0.930 . S
H2663 C2655 0.929 . S
H2664 C2672 0.929 . S
H2665 C2674 0.930 . S
H2666 C2676 0.930 . S
H2667 C2679 0.929 . S
H2668 C2682 0.930 . S
H2669 C2684 0.960 . S
H2670 C2684 0.960 . S
H2671 C2684 0.960 . S
C2672 H2664 0.929 . S
C2672 C2673 1.377 . S
C2672 C2674 1.384 . S
C2673 C2672 1.377 . S
C2673 C2679 1.390 . S
C2674 H2665 0.930 . S
C2674 C2672 1.384 . S
C2674 C2675 1.372 . S
C2675 C2674 1.372 . S
C2675 C2676 1.400 . S
C2675 C2680 1.490 . S
C2676 H2666 0.930 . S
C2676 C2675 1.400 . S
C2676 C2679 1.386 . S
H2677 C2693 0.930 . S
H2678 C2694 0.931 . S
C2679 H2667 0.929 . S
C2679 C2673 1.390 . S
C2679 C2676 1.386 . S
C2680 C2675 1.490 . S
C2680 C2682 1.395 . S
C2680 C2683 1.403 . S
H2681 C2687 0.930 . S
C2682 H2668 0.930 . S
C2682 C2680 1.395 . S
C2682 C2685 1.403 . S
C2683 C2680 1.403 . S
C2683 C2684 1.524 . S
C2683 C2687 1.400 . S
C2684 H2669 0.960 . S
C2684 H2670 0.960 . S
C2684 H2671 0.960 . S
C2684 C2683 1.524 . S
C2685 C2682 1.403 . S
C2685 C2686 1.392 . S
C2685 C2689 1.506 . S
C2686 C2685 1.392 . S
C2686 C2687 1.385 . S
C2686 C2688 1.478 . S
C2687 H2681 0.930 . S
C2687 C2683 1.400 . S
C2687 C2686 1.385 . S
C2688 C2686 1.478 . S
C2688 C2690 1.381 . S
C2688 C2694 1.383 . S
C2689 C2685 1.506 . S
C2689 H2695 0.954 1_556 S
C2689 H2696 0.952 1_556 S
C2689 H2697 0.963 . S
C2690 C2688 1.381 . S
C2690 C2691 1.394 . S
C2690 H2698 0.930 . S
C2691 C2690 1.394 . S
C2691 C2692 1.383 . S
C2691 H2699 0.929 . S
C2692 C2691 1.383 . S
C2692 C2693 1.377 . S
C2693 H2677 0.930 . S
C2693 C2692 1.377 . S
C2693 C2694 1.379 . S
C2694 H2678 0.931 . S
C2694 C2688 1.383 . S
C2694 C2693 1.379 . S
H2695 C2689 0.954 1_554 S
H2696 C2689 0.952 1_554 S
H2697 C2689 0.963 . S
H2698 C2690 0.930 . S
H2699 C2691 0.929 . S
H2700 C2708 0.929 . S
H2701 C2710 0.930 . S
H2702 C2712 0.930 1_554 S
H2703 C2715 0.929 1_554 S
H2704 C2718 0.930 . S
H2705 C2720 0.960 . S
H2706 C2720 0.960 . S
H2707 C2720 0.960 . S
C2708 H2700 0.929 . S
C2708 C2709 1.377 . S
C2708 C2710 1.384 . S
C2709 C2708 1.377 . S
C2709 C2715 1.390 . S
C2710 H2701 0.930 . S
C2710 C2708 1.384 . S
C2710 C2711 1.372 . S
C2711 C2710 1.372 . S
C2711 C2712 1.400 . S
C2711 C2716 1.490 . S
C2712 H2702 0.930 1_556 S
C2712 C2711 1.400 . S
C2712 C2715 1.386 . S
H2713 C2729 0.930 . S
H2714 C2730 0.931 . S
C2715 H2703 0.929 1_556 S
C2715 C2709 1.390 . S
C2715 C2712 1.386 . S
C2716 C2711 1.490 . S
C2716 C2718 1.395 . S
C2716 C2719 1.403 . S
H2717 C2723 0.930 . S
C2718 H2704 0.930 . S
C2718 C2716 1.395 . S
C2718 C2721 1.403 . S
C2719 C2716 1.403 . S
C2719 C2720 1.524 . S
C2719 C2723 1.400 . S
C2720 H2705 0.960 . S
C2720 H2706 0.960 . S
C2720 H2707 0.960 . S
C2720 C2719 1.524 . S
C2721 C2718 1.403 . S
C2721 C2722 1.392 . S
C2721 C2725 1.495 . S
C2722 C2721 1.392 . S
C2722 C2723 1.385 . S
C2722 C2724 1.478 . S
C2723 H2717 0.930 . S
C2723 C2719 1.400 . S
C2723 C2722 1.385 . S
C2724 C2722 1.478 . S
C2724 C2726 1.381 . S
C2724 C2730 1.383 . S
C2725 C2721 1.495 . S
C2725 H2731 0.959 . S
C2725 H2732 0.961 . S
C2725 H2733 0.960 . S
C2726 C2724 1.381 . S
C2726 C2727 1.394 . S
C2726 H2734 0.930 . S
C2727 C2726 1.394 . S
C2727 C2728 1.383 . S
C2727 H2735 0.929 . S
C2728 C2727 1.383 . S
C2728 C2729 1.377 . S
C2729 H2713 0.930 . S
C2729 C2728 1.377 . S
C2729 C2730 1.379 . S
C2730 H2714 0.931 . S
C2730 C2724 1.383 . S
C2730 C2729 1.379 . S
H2731 C2725 0.959 . S
H2732 C2725 0.961 . S
H2733 C2725 0.960 . S
H2734 C2726 0.930 . S
H2735 C2727 0.929 . S
H2736 C2744 0.929 . S
H2737 C2746 0.930 . S
H2738 C2748 0.930 . S
H2739 C2751 0.929 . S
H2740 C2754 0.930 . S
H2741 C2756 0.960 . S
H2742 C2756 0.960 . S
H2743 C2756 0.960 . S
C2744 H2736 0.929 . S
C2744 C2745 1.377 . S
C2744 C2746 1.384 . S
C2745 C2744 1.377 . S
C2745 C2751 1.390 . S
C2746 H2737 0.930 . S
C2746 C2744 1.384 . S
C2746 C2747 1.372 . S
C2747 C2746 1.372 . S
C2747 C2748 1.400 . S
C2747 C2752 1.490 . S
C2748 H2738 0.930 . S
C2748 C2747 1.400 . S
C2748 C2751 1.386 . S
H2749 C2765 0.930 . S
H2750 C2766 0.931 . S
C2751 H2739 0.929 . S
C2751 C2745 1.390 . S
C2751 C2748 1.386 . S
C2752 C2747 1.490 . S
C2752 C2754 1.395 . S
C2752 C2755 1.403 . S
H2753 C2759 0.930 . S
C2754 H2740 0.930 . S
C2754 C2752 1.395 . S
C2754 C2757 1.403 . S
C2755 C2752 1.403 . S
C2755 C2756 1.524 . S
C2755 C2759 1.400 . S
C2756 H2741 0.960 . S
C2756 H2742 0.960 . S
C2756 H2743 0.960 . S
C2756 C2755 1.524 . S
C2757 C2754 1.403 . S
C2757 C2758 1.392 . S
C2757 C2761 1.495 . S
C2758 C2757 1.392 . S
C2758 C2759 1.385 . S
C2758 C2760 1.478 . S
C2759 H2753 0.930 . S
C2759 C2755 1.400 . S
C2759 C2758 1.385 . S
C2760 C2758 1.478 . S
C2760 C2762 1.381 . S
C2760 C2766 1.383 . S
C2761 C2757 1.495 . S
C2761 H2767 0.959 1_556 S
C2761 H2768 0.961 . S
C2761 H2769 0.960 1_556 S
C2762 C2760 1.381 . S
C2762 C2763 1.394 . S
C2762 H2770 0.930 1_556 S
C2763 C2762 1.394 . S
C2763 C2764 1.383 . S
C2763 H2771 0.929 1_556 S
C2764 C2763 1.383 . S
C2764 C2765 1.377 . S
C2765 H2749 0.930 . S
C2765 C2764 1.377 . S
C2765 C2766 1.379 . S
C2766 H2750 0.931 . S
C2766 C2760 1.383 . S
C2766 C2765 1.379 . S
H2767 C2761 0.959 1_554 S
H2768 C2761 0.961 . S
H2769 C2761 0.960 1_554 S
H2770 C2762 0.930 1_554 S
H2771 C2763 0.929 1_554 S
H2772 C2780 0.929 . S
H2773 C2782 0.930 . S
H2774 C2784 0.930 . S
H2775 C2787 0.929 . S
H2776 C2790 0.930 . S
H2777 C2792 0.960 . S
H2778 C2792 0.960 . S
H2779 C2792 0.960 . S
C2780 H2772 0.929 . S
C2780 C2781 1.377 . S
C2780 C2782 1.384 . S
C2781 C2780 1.377 . S
C2781 C2787 1.390 . S
C2782 H2773 0.930 . S
C2782 C2780 1.384 . S
C2782 C2783 1.372 . S
C2783 C2782 1.372 . S
C2783 C2784 1.400 . S
C2783 C2788 1.490 . S
C2784 H2774 0.930 . S
C2784 C2783 1.400 . S
C2784 C2787 1.386 . S
H2785 C2801 0.930 . S
H2786 C2802 0.931 . S
C2787 H2775 0.929 . S
C2787 C2781 1.390 . S
C2787 C2784 1.386 . S
C2788 C2783 1.490 . S
C2788 C2790 1.395 . S
C2788 C2791 1.403 . S
H2789 C2795 0.930 . S
C2790 H2776 0.930 . S
C2790 C2788 1.395 . S
C2790 C2793 1.403 . S
C2791 C2788 1.403 . S
C2791 C2792 1.524 . S
C2791 C2795 1.400 . S
C2792 H2777 0.960 . S
C2792 H2778 0.960 . S
C2792 H2779 0.960 . S
C2792 C2791 1.524 . S
C2793 C2790 1.403 . S
C2793 C2794 1.392 . S
C2793 C2797 1.495 . S
C2794 C2793 1.392 . S
C2794 C2795 1.385 . S
C2794 C2796 1.478 . S
C2795 H2789 0.930 . S
C2795 C2791 1.400 . S
C2795 C2794 1.385 . S
C2796 C2794 1.478 . S
C2796 C2798 1.381 . S
C2796 C2802 1.383 . S
C2797 C2793 1.495 . S
C2797 H2803 0.959 . S
C2797 H2804 0.961 . S
C2797 H2805 0.960 . S
C2798 C2796 1.381 . S
C2798 C2799 1.394 . S
C2798 H2806 0.930 . S
C2799 C2798 1.394 . S
C2799 C2800 1.383 . S
C2799 H2807 0.929 . S
C2800 C2799 1.383 . S
C2800 C2801 1.377 . S
C2801 H2785 0.930 . S
C2801 C2800 1.377 . S
C2801 C2802 1.379 . S
C2802 H2786 0.931 . S
C2802 C2796 1.383 . S
C2802 C2801 1.379 . S
H2803 C2797 0.959 . S
H2804 C2797 0.961 . S
H2805 C2797 0.960 . S
H2806 C2798 0.930 . S
H2807 C2799 0.929 . S
H2808 C2816 0.929 . S
H2809 C2818 0.930 . S
H2810 C2820 0.930 . S
H2811 C2823 0.929 . S
H2812 C2826 0.930 . S
H2813 C2828 0.960 . S
H2814 C2828 0.960 . S
H2815 C2828 0.960 . S
C2816 H2808 0.929 . S
C2816 C2817 1.377 . S
C2816 C2818 1.384 . S
C2817 C2816 1.377 . S
C2817 C2823 1.390 . S
C2818 H2809 0.930 . S
C2818 C2816 1.384 . S
C2818 C2819 1.372 . S
C2819 C2818 1.372 . S
C2819 C2820 1.400 . S
C2819 C2824 1.490 . S
C2820 H2810 0.930 . S
C2820 C2819 1.400 . S
C2820 C2823 1.386 . S
H2821 C2837 0.930 . S
H2822 C2838 0.931 . S
C2823 H2811 0.929 . S
C2823 C2817 1.390 . S
C2823 C2820 1.386 . S
C2824 C2819 1.490 . S
C2824 C2826 1.395 . S
C2824 C2827 1.403 . S
H2825 C2831 0.930 . S
C2826 H2812 0.930 . S
C2826 C2824 1.395 . S
C2826 C2829 1.403 . S
C2827 C2824 1.403 . S
C2827 C2828 1.524 . S
C2827 C2831 1.400 . S
C2828 H2813 0.960 . S
C2828 H2814 0.960 . S
C2828 H2815 0.960 . S
C2828 C2827 1.524 . S
C2829 C2826 1.403 . S
C2829 C2830 1.392 . S
C2829 C2833 1.495 . S
C2830 C2829 1.392 . S
C2830 C2831 1.385 . S
C2830 C2832 1.478 . S
C2831 H2825 0.930 . S
C2831 C2827 1.400 . S
C2831 C2830 1.385 . S
C2832 C2830 1.478 . S
C2832 C2834 1.381 . S
C2832 C2838 1.383 . S
C2833 C2829 1.495 . S
C2833 H2839 0.959 . S
C2833 H2840 0.961 . S
C2833 H2841 0.960 . S
C2834 C2832 1.381 . S
C2834 C2835 1.394 . S
C2834 H2842 0.930 . S
C2835 C2834 1.394 . S
C2835 C2836 1.383 . S
C2835 H2843 0.929 . S
C2836 C2835 1.383 . S
C2836 C2837 1.377 . S
C2837 H2821 0.930 . S
C2837 C2836 1.377 . S
C2837 C2838 1.379 . S
C2838 H2822 0.931 . S
C2838 C2832 1.383 . S
C2838 C2837 1.379 . S
H2839 C2833 0.959 . S
H2840 C2833 0.961 . S
H2841 C2833 0.960 . S
H2842 C2834 0.930 . S
H2843 C2835 0.929 . S
H2844 C2852 0.929 . S
H2845 C2854 0.930 . S
H2846 C2856 0.930 . S
H2847 C2859 0.929 . S
H2848 C2862 0.930 . S
H2849 C2864 0.960 . S
H2850 C2864 0.960 . S
H2851 C2864 0.960 . S
C2852 H2844 0.929 . S
C2852 C2853 1.377 . S
C2852 C2854 1.384 . S
C2853 C2852 1.377 . S
C2853 C2859 1.390 . S
C2854 H2845 0.930 . S
C2854 C2852 1.384 . S
C2854 C2855 1.372 . S
C2855 C2854 1.372 . S
C2855 C2856 1.400 . S
C2855 C2860 1.490 . S
C2856 H2846 0.930 . S
C2856 C2855 1.400 . S
C2856 C2859 1.386 . S
H2857 C2873 0.930 . S
H2858 C2874 0.931 . S
C2859 H2847 0.929 . S
C2859 C2853 1.390 . S
C2859 C2856 1.386 . S
C2860 C2855 1.490 . S
C2860 C2862 1.395 . S
C2860 C2863 1.403 . S
H2861 C2867 0.930 . S
C2862 H2848 0.930 . S
C2862 C2860 1.395 . S
C2862 C2865 1.403 . S
C2863 C2860 1.403 . S
C2863 C2864 1.524 . S
C2863 C2867 1.400 . S
C2864 H2849 0.960 . S
C2864 H2850 0.960 . S
C2864 H2851 0.960 . S
C2864 C2863 1.524 . S
C2865 C2862 1.403 . S
C2865 C2866 1.392 . S
C2865 C2869 1.495 . S
C2866 C2865 1.392 . S
C2866 C2867 1.385 . S
C2866 C2868 1.478 . S
C2867 H2861 0.930 . S
C2867 C2863 1.400 . S
C2867 C2866 1.385 . S
C2868 C2866 1.478 . S
C2868 C2870 1.381 . S
C2868 C2874 1.383 . S
C2869 C2865 1.495 . S
C2869 H2875 0.959 . S
C2869 H2876 0.961 . S
C2869 H2877 0.960 . S
C2870 C2868 1.381 . S
C2870 C2871 1.394 . S
C2870 H2878 0.930 . S
C2871 C2870 1.394 . S
C2871 C2872 1.383 . S
C2871 H2879 0.929 . S
C2872 C2871 1.383 . S
C2872 C2873 1.377 . S
C2873 H2857 0.930 . S
C2873 C2872 1.377 . S
C2873 C2874 1.379 . S
C2874 H2858 0.931 . S
C2874 C2868 1.383 . S
C2874 C2873 1.379 . S
H2875 C2869 0.959 . S
H2876 C2869 0.961 . S
H2877 C2869 0.960 . S
H2878 C2870 0.930 . S
H2879 C2871 0.929 . S
H2880 C2888 0.929 . S
H2881 C2890 0.930 . S
H2882 C2892 0.930 . S
H2883 C2895 0.929 . S
H2884 C2898 0.930 . S
H2885 C2900 0.960 1_655 S
H2886 C2900 0.960 . S
H2887 C2900 0.960 . S
C2888 H2880 0.929 . S
C2888 C2889 1.377 . S
C2888 C2890 1.384 . S
C2889 C2888 1.377 . S
C2889 C2895 1.390 . S
C2890 H2881 0.930 . S
C2890 C2888 1.384 . S
C2890 C2891 1.372 . S
C2891 C2890 1.372 . S
C2891 C2892 1.400 . S
C2891 C2896 1.490 . S
C2892 H2882 0.930 . S
C2892 C2891 1.400 . S
C2892 C2895 1.386 . S
H2893 C2909 0.930 . S
H2894 C2910 0.931 . S
C2895 H2883 0.929 . S
C2895 C2889 1.390 . S
C2895 C2892 1.386 . S
C2896 C2891 1.490 . S
C2896 C2898 1.395 . S
C2896 C2899 1.403 . S
H2897 C2903 0.930 . S
C2898 H2884 0.930 . S
C2898 C2896 1.395 . S
C2898 C2901 1.403 1_455 S
C2899 C2896 1.403 . S
C2899 C2900 1.524 . S
C2899 C2903 1.400 1_455 S
C2900 H2885 0.960 1_455 S
C2900 H2886 0.960 . S
C2900 H2887 0.960 . S
C2900 C2899 1.524 . S
C2901 C2898 1.403 1_655 S
C2901 C2902 1.392 . S
C2901 C2905 1.495 . S
C2902 C2901 1.392 . S
C2902 C2903 1.385 . S
C2902 C2904 1.478 . S
C2903 H2897 0.930 . S
C2903 C2899 1.400 1_655 S
C2903 C2902 1.385 . S
C2904 C2902 1.478 . S
C2904 C2906 1.381 . S
C2904 C2910 1.383 . S
C2905 C2901 1.495 . S
C2905 H2911 0.959 1_655 S
C2905 H2912 0.961 . S
C2905 H2913 0.960 . S
C2906 C2904 1.381 . S
C2906 C2907 1.394 . S
C2906 H2914 0.930 . S
C2907 C2906 1.394 . S
C2907 C2908 1.383 . S
C2907 H2915 0.929 . S
C2908 C2907 1.383 . S
C2908 C2909 1.377 . S
C2909 H2893 0.930 . S
C2909 C2908 1.377 . S
C2909 C2910 1.379 . S
C2910 H2894 0.931 . S
C2910 C2904 1.383 . S
C2910 C2909 1.379 . S
H2911 C2905 0.959 1_455 S
H2912 C2905 0.961 . S
H2913 C2905 0.960 . S
H2914 C2906 0.930 . S
H2915 C2907 0.929 . S
H2916 C2924 0.929 . S
H2917 C2926 0.930 . S
H2918 C2928 0.930 . S
H2919 C2931 0.929 . S
H2920 C2934 0.930 . S
H2921 C2936 0.960 . S
H2922 C2936 0.960 . S
H2923 C2936 0.960 . S
C2924 H2916 0.929 . S
C2924 C2925 1.377 . S
C2924 C2926 1.384 . S
C2925 C2924 1.377 . S
C2925 C2931 1.390 . S
C2926 H2917 0.930 . S
C2926 C2924 1.384 . S
C2926 C2927 1.372 . S
C2927 C2926 1.372 . S
C2927 C2928 1.400 . S
C2927 C2932 1.490 . S
C2928 H2918 0.930 . S
C2928 C2927 1.400 . S
C2928 C2931 1.386 . S
H2929 C2945 0.930 . S
H2930 C2946 0.931 . S
C2931 H2919 0.929 . S
C2931 C2925 1.390 . S
C2931 C2928 1.386 . S
C2932 C2927 1.490 . S
C2932 C2934 1.395 . S
C2932 C2935 1.403 . S
H2933 C2939 0.930 . S
C2934 H2920 0.930 . S
C2934 C2932 1.395 . S
C2934 C2937 1.403 . S
C2935 C2932 1.403 . S
C2935 C2936 1.524 . S
C2935 C2939 1.400 . S
C2936 H2921 0.960 . S
C2936 H2922 0.960 . S
C2936 H2923 0.960 . S
C2936 C2935 1.524 . S
C2937 C2934 1.403 . S
C2937 C2938 1.392 . S
C2937 C2941 1.495 . S
C2938 C2937 1.392 . S
C2938 C2939 1.385 . S
C2938 C2940 1.478 . S
C2939 H2933 0.930 . S
C2939 C2935 1.400 . S
C2939 C2938 1.385 . S
C2940 C2938 1.478 . S
C2940 C2942 1.381 . S
C2940 C2946 1.383 . S
C2941 C2937 1.495 . S
C2941 H2947 0.959 . S
C2941 H2948 0.961 . S
C2941 H2949 0.960 . S
C2942 C2940 1.381 . S
C2942 C2943 1.394 . S
C2942 H2950 0.930 . S
C2943 C2942 1.394 . S
C2943 C2944 1.383 . S
C2943 H2951 0.929 . S
C2944 C2943 1.383 . S
C2944 C2945 1.377 . S
C2945 H2929 0.930 . S
C2945 C2944 1.377 . S
C2945 C2946 1.379 . S
C2946 H2930 0.931 . S
C2946 C2940 1.383 . S
C2946 C2945 1.379 . S
H2947 C2941 0.959 . S
H2948 C2941 0.961 . S
H2949 C2941 0.960 . S
H2950 C2942 0.930 . S
H2951 C2943 0.929 . S
H2952 C2960 0.929 . S
H2953 C2962 0.930 . S
H2954 C2964 0.930 . S
H2955 C2967 0.929 . S
H2956 C2970 0.930 . S
H2957 C2972 0.960 1_545 S
H2958 C2972 0.960 . S
H2959 C2972 0.960 . S
C2960 H2952 0.929 . S
C2960 C2961 1.377 . S
C2960 C2962 1.384 . S
C2961 C2960 1.377 . S
C2961 C2967 1.390 . S
C2962 H2953 0.930 . S
C2962 C2960 1.384 . S
C2962 C2963 1.372 . S
C2963 C2962 1.372 . S
C2963 C2964 1.400 . S
C2963 C2968 1.490 . S
C2964 H2954 0.930 . S
C2964 C2963 1.400 . S
C2964 C2967 1.386 . S
H2965 C2981 0.930 . S
H2966 C2982 0.931 . S
C2967 H2955 0.929 . S
C2967 C2961 1.390 . S
C2967 C2964 1.386 . S
C2968 C2963 1.490 . S
C2968 C2970 1.395 . S
C2968 C2971 1.403 . S
H2969 C2975 0.930 . S
C2970 H2956 0.930 . S
C2970 C2968 1.395 . S
C2970 C2973 1.403 1_565 S
C2971 C2968 1.403 . S
C2971 C2972 1.524 . S
C2971 C2975 1.400 1_565 S
C2972 H2957 0.960 1_565 S
C2972 H2958 0.960 . S
C2972 H2959 0.960 . S
C2972 C2971 1.524 . S
C2973 C2970 1.403 1_545 S
C2973 C2974 1.392 . S
C2973 C2977 1.495 . S
C2974 C2973 1.392 . S
C2974 C2975 1.385 . S
C2974 C2976 1.478 . S
C2975 H2969 0.930 . S
C2975 C2971 1.400 1_545 S
C2975 C2974 1.385 . S
C2976 C2974 1.478 . S
C2976 C2978 1.381 . S
C2976 C2982 1.383 . S
C2977 C2973 1.495 . S
C2977 H2983 0.864 1_545 S
C2977 H2984 0.961 . S
C2977 H2985 0.960 . S
C2978 C2976 1.381 . S
C2978 C2979 1.394 . S
C2978 H2986 0.930 . S
C2979 C2978 1.394 . S
C2979 C2980 1.383 . S
C2979 H2987 0.929 . S
C2980 C2979 1.383 . S
C2980 C2981 1.377 . S
C2981 H2965 0.930 . S
C2981 C2980 1.377 . S
C2981 C2982 1.379 . S
C2982 H2966 0.931 . S
C2982 C2976 1.383 . S
C2982 C2981 1.379 . S
H2983 C2977 0.864 1_565 S
H2984 C2977 0.961 . S
H2985 C2977 0.960 . S
H2986 C2978 0.930 . S
H2987 C2979 0.929 . S
H2988 C2996 0.929 . S
H2989 C2998 0.930 . S
H2990 C3000 0.930 . S
H2991 C3003 0.929 . S
H2992 C3006 0.930 . S
H2993 C3008 0.960 1_565 S
H2994 C3008 0.960 . S
H2995 C3008 0.960 . S
C2996 H2988 0.929 . S
C2996 C2997 1.377 . S
C2996 C2998 1.384 . S
C2997 C2996 1.377 . S
C2997 C3003 1.390 . S
C2998 H2989 0.930 . S
C2998 C2996 1.384 . S
C2998 C2999 1.372 . S
C2999 C2998 1.372 . S
C2999 C3000 1.400 . S
C2999 C3004 1.490 . S
C3000 H2990 0.930 . S
C3000 C2999 1.400 . S
C3000 C3003 1.386 . S
H3001 C3017 0.930 . S
H3002 C3018 0.931 . S
C3003 H2991 0.929 . S
C3003 C2997 1.390 . S
C3003 C3000 1.386 . S
C3004 C2999 1.490 . S
C3004 C3006 1.395 . S
C3004 C3007 1.403 . S
H3005 C3011 0.930 . S
C3006 H2992 0.930 . S
C3006 C3004 1.395 . S
C3006 C3009 1.403 1_545 S
C3007 C3004 1.403 . S
C3007 C3008 1.524 . S
C3007 C3011 1.400 1_545 S
C3008 H2993 0.960 1_545 S
C3008 H2994 0.960 . S
C3008 H2995 0.960 . S
C3008 C3007 1.524 . S
C3009 C3006 1.403 1_565 S
C3009 C3010 1.392 . S
C3009 C3013 1.495 . S
C3010 C3009 1.392 . S
C3010 C3011 1.385 . S
C3010 C3012 1.478 . S
C3011 H3005 0.930 . S
C3011 C3007 1.400 1_565 S
C3011 C3010 1.385 . S
C3012 C3010 1.478 . S
C3012 C3014 1.381 . S
C3012 C3018 1.383 . S
C3013 C3009 1.495 . S
C3013 H3019 0.898 1_565 S
C3013 H3020 0.961 . S
C3013 H3021 0.960 . S
C3014 C3012 1.381 . S
C3014 C3015 1.394 . S
C3014 H3022 0.930 . S
C3015 C3014 1.394 . S
C3015 C3016 1.383 . S
C3015 H3023 0.929 . S
C3016 C3015 1.383 . S
C3016 C3017 1.377 . S
C3017 H3001 0.930 . S
C3017 C3016 1.377 . S
C3017 C3018 1.379 . S
C3018 H3002 0.931 . S
C3018 C3012 1.383 . S
C3018 C3017 1.379 . S
H3019 C3013 0.898 1_545 S
H3020 C3013 0.961 . S
H3021 C3013 0.960 . S
H3022 C3014 0.930 . S
H3023 C3015 0.929 . S
H3024 C3032 0.929 . S
H3025 C3034 0.930 . S
H3026 C3036 0.930 . S
H3027 C3039 0.929 . S
H3028 C3042 0.930 . S
H3029 C3044 0.960 . S
H3030 C3044 0.960 . S
H3031 C3044 0.960 . S
C3032 H3024 0.929 . S
C3032 C3033 1.377 . S
C3032 C3034 1.384 . S
C3033 C3032 1.377 . S
C3033 C3039 1.390 . S
C3034 H3025 0.930 . S
C3034 C3032 1.384 . S
C3034 C3035 1.372 . S
C3035 C3034 1.372 . S
C3035 C3036 1.400 . S
C3035 C3040 1.490 . S
C3036 H3026 0.930 . S
C3036 C3035 1.400 . S
C3036 C3039 1.386 . S
H3037 C3053 0.930 . S
H3038 C3054 0.931 . S
C3039 H3027 0.929 . S
C3039 C3033 1.390 . S
C3039 C3036 1.386 . S
C3040 C3035 1.490 . S
C3040 C3042 1.395 . S
C3040 C3043 1.403 . S
H3041 C3047 0.930 . S
C3042 H3028 0.930 . S
C3042 C3040 1.395 . S
C3042 C3045 1.403 1_455 S
C3043 C3040 1.403 . S
C3043 C3044 1.524 . S
C3043 C3047 1.400 1_455 S
C3044 H3029 0.960 . S
C3044 H3030 0.960 . S
C3044 H3031 0.960 . S
C3044 C3043 1.524 . S
C3045 C3042 1.403 1_655 S
C3045 C3046 1.392 . S
C3045 C3049 1.495 . S
C3046 C3045 1.392 . S
C3046 C3047 1.385 . S
C3046 C3048 1.478 . S
C3047 H3041 0.930 . S
C3047 C3043 1.400 1_655 S
C3047 C3046 1.385 . S
C3048 C3046 1.478 . S
C3048 C3050 1.381 . S
C3048 C3054 1.383 . S
C3049 C3045 1.495 . S
C3049 H3055 0.959 . S
C3049 H3056 0.961 . S
C3049 H3057 0.960 . S
C3050 C3048 1.381 . S
C3050 C3051 1.394 . S
C3050 H3058 0.930 . S
C3051 C3050 1.394 . S
C3051 C3052 1.383 . S
C3051 H3059 0.929 . S
C3052 C3051 1.383 . S
C3052 C3053 1.377 . S
C3053 H3037 0.930 . S
C3053 C3052 1.377 . S
C3053 C3054 1.379 . S
C3054 H3038 0.931 . S
C3054 C3048 1.383 . S
C3054 C3053 1.379 . S
H3055 C3049 0.959 . S
H3056 C3049 0.961 . S
H3057 C3049 0.960 . S
H3058 C3050 0.930 . S
H3059 C3051 0.929 . S
H3060 C3068 0.929 . S
H3061 C3070 0.930 . S
H3062 C3072 0.930 . S
H3063 C3075 0.929 . S
H3064 C3078 0.930 . S
H3065 C3080 0.960 . S
H3066 C3080 0.960 . S
H3067 C3080 0.960 . S
C3068 H3060 0.929 . S
C3068 C3069 1.377 . S
C3068 C3070 1.384 . S
C3069 C3068 1.377 . S
C3069 C3075 1.390 . S
C3070 H3061 0.930 . S
C3070 C3068 1.384 . S
C3070 C3071 1.372 . S
C3071 C3070 1.372 . S
C3071 C3072 1.400 . S
C3071 C3076 1.490 . S
C3072 H3062 0.930 . S
C3072 C3071 1.400 . S
C3072 C3075 1.386 . S
H3073 C3089 0.930 . S
H3074 C3090 0.931 . S
C3075 H3063 0.929 . S
C3075 C3069 1.390 . S
C3075 C3072 1.386 . S
C3076 C3071 1.490 . S
C3076 C3078 1.395 . S
C3076 C3079 1.403 . S
H3077 C3083 0.930 . S
C3078 H3064 0.930 . S
C3078 C3076 1.395 . S
C3078 C3081 1.403 . S
C3079 C3076 1.403 . S
C3079 C3080 1.524 . S
C3079 C3083 1.400 . S
C3080 H3065 0.960 . S
C3080 H3066 0.960 . S
C3080 H3067 0.960 . S
C3080 C3079 1.524 . S
C3081 C3078 1.403 . S
C3081 C3082 1.392 . S
C3081 C3085 1.495 . S
C3082 C3081 1.392 . S
C3082 C3083 1.385 . S
C3082 C3084 1.478 . S
C3083 H3077 0.930 . S
C3083 C3079 1.400 . S
C3083 C3082 1.385 . S
C3084 C3082 1.478 . S
C3084 C3086 1.381 . S
C3084 C3090 1.383 . S
C3085 C3081 1.495 . S
C3085 H3091 0.959 . S
C3085 H3092 0.961 . S
C3085 H3093 0.960 . S
C3086 C3084 1.381 . S
C3086 C3087 1.394 . S
C3086 H3094 0.930 . S
C3087 C3086 1.394 . S
C3087 C3088 1.383 . S
C3087 H3095 0.929 . S
C3088 C3087 1.383 . S
C3088 C3089 1.377 . S
C3089 H3073 0.930 . S
C3089 C3088 1.377 . S
C3089 C3090 1.379 . S
C3090 H3074 0.931 . S
C3090 C3084 1.383 . S
C3090 C3089 1.379 . S
H3091 C3085 0.959 . S
H3092 C3085 0.961 . S
H3093 C3085 0.960 . S
H3094 C3086 0.930 . S
H3095 C3087 0.929 . S
C513 C53 0.997 . S
C532 C11 1.005 . S
C549 C67 0.999 . S
C568 C25 1.009 . S
C585 C81 1.000 . S
C604 C39 1.010 . S
C621 C95 0.999 . S
C640 C137 1.009 . S
C657 C109 0.999 . S
C676 C151 1.005 . S
C693 C165 0.999 . S
C712 C123 1.005 . S
C729 C179 0.991 . S
C748 C221 1.000 . S
C765 C193 0.993 . S
C784 C235 0.990 . S
C801 C207 0.993 . S
C820 C249 0.990 . S
C837 C263 0.991 . S
C856 C305 0.978 . S
C873 C319 0.991 . S
C892 C277 0.987 . S
C909 C291 0.994 . S
C928 C333 0.980 . S
C945 C347 0.993 . S
C964 C389 0.977 . S
C981 C361 0.994 . S
C1000 C403 0.980 . S
C1017 C417 0.991 . S
C1036 C375 1.002 . S
C1053 C473 0.994 . S
C1072 C431 0.981 . S
C1089 C487 0.995 . S
C1108 C445 1.004 . S
C1125 C501 0.993 . S
C1144 C459 1.002 . S
C1161 C163 1.534 . S
C1180 C5 1.517 . S
C1197 C19 1.530 . S
C1216 C135 1.526 . S
C1233 C33 1.527 . S
C1252 C149 1.533 . S
C1269 C107 1.541 . S
C1288 C47 1.538 . S
C1305 C61 1.538 . S
C1324 C121 1.531 . S
C1341 C93 1.542 . S
C1360 C75 1.529 . S
C1377 C89 1.530 . S
C1396 C79 1.532 . S
C1413 C103 1.530 . S
C1432 C51 1.525 . S
C1449 C65 1.533 . S
C1468 C117 1.535 . S
C1485 C23 1.540 . S
C1504 C131 1.537 . S
C1521 C37 1.541 . S
C1540 C145 1.543 . S
C1557 C159 1.538 . S
C1576 C9 1.536 . S
C1593 C173 1.506 . S
C1612 C331 1.511 . S
C1629 C303 1.510 . S
C1648 C187 1.512 . S
C1665 C317 1.512 . S
C1684 C201 1.511 . S
C1701 C215 1.530 . S
C1720 C275 1.524 . S
C1737 C289 1.532 . S
C1756 C229 1.536 . S
C1773 C243 1.528 . S
C1792 C261 1.530 . S
C1809 C257 1.528 . S
C1828 C247 1.530 . S
C1845 C271 1.524 . S
C1864 C219 1.528 . S
C1881 C233 1.529 . S
C1900 C285 1.527 . S
C1917 C191 1.551 . S
C1936 C299 1.551 . S
C1953 C205 1.553 . S
C1972 C313 1.539 . S
C1989 C327 1.546 . S
C2008 C177 1.555 . S
C2025 C499 1.531 . S
C2044 C341 1.520 . S
C2061 C355 1.528 . S
C2080 C471 1.523 . S
C2097 C369 1.526 . S
C2116 C485 1.526 . S
C2133 C383 1.550 . S
C2152 C443 1.550 . S
C2169 C457 1.551 . S
C2188 C397 1.557 . S
C2205 C411 1.548 . S
C2224 C429 1.552 . S
C2241 C415 1.514 . S
C2260 C425 1.503 . S
C2277 C387 1.511 . S
C2296 C439 1.512 . S
C2313 C401 1.512 . S
C2332 C453 1.511 . S
C2349 C359 1.534 . S
C2368 C467 1.519 . S
C2385 C373 1.534 . S
C2404 C481 1.534 . S
C2421 C345 1.534 . S
C2440 C495 1.525 . S
C2457 C406 1.286 . S
C2476 C0 1.287 . S
C2493 C14 1.283 . S
C2512 C378 1.298 . S
C2529 C392 1.277 . S
C2548 C28 1.303 . S
C2565 C42 1.287 . S
C2584 C182 1.253 . S
C2601 C196 1.286 . S
C2620 C56 1.291 . S
C2637 C70 1.280 . S
C2656 C168 1.279 . S
C2673 C84 1.279 . S
C2692 C322 1.262 . S
C2709 C294 1.279 . S
C2728 C98 1.305 . S
C2745 C112 1.278 . S
C2764 C308 1.300 . S
C2781 C126 1.283 . S
C2800 C434 1.308 . S
C2817 C140 1.287 . S
C2836 C448 1.255 . S
C2853 C420 1.288 . S
C2872 C154 1.292 . S
C2889 C350 1.289 . S
C2908 C210 1.267 . S
C2925 C364 1.287 . S
C2944 C224 1.256 . S
C2961 C336 1.287 . S
C2980 C238 1.283 . S
C2997 C252 1.279 . S
C3016 C490 1.269 . S
C3033 C462 1.287 . S
C3052 C266 1.256 . S
C3069 C280 1.279 . S
C3088 C476 1.276 . S
