# Generated by pormake.
# Topology wiv, (6)-cn, num edge types: 1
# Building blocks:
#     Node 0, Type 0, BuildingBlock: BETGAK_clean_sbu_0, # of connection points: 6
#     Node 1, Type 0, BuildingBlock: BETGAK_clean_sbu_0, # of connection points: 6
#     Node 2, Type 0, BuildingBlock: BETGAK_clean_sbu_0, # of connection points: 6
#     Node 3, Type 0, BuildingBlock: BETGAK_clean_sbu_0, # of connection points: 6
#     Node 4, Type 0, BuildingBlock: BETGAK_clean_sbu_0, # of connection points: 6
#     Node 5, Type 0, BuildingBlock: BETGAK_clean_sbu_0, # of connection points: 6
#     Node 6, Type 0, BuildingBlock: BETGAK_clean_sbu_0, # of connection points: 6
#     Node 7, Type 0, BuildingBlock: BETGAK_clean_sbu_0, # of connection points: 6
#     Node 8, Type 0, BuildingBlock: BETGAK_clean_sbu_0, # of connection points: 6
#     Node 9, Type 0, BuildingBlock: BETGAK_clean_sbu_0, # of connection points: 6
#     Node 10, Type 0, BuildingBlock: BETGAK_clean_sbu_0, # of connection points: 6
#     Node 11, Type 0, BuildingBlock: BETGAK_clean_sbu_0, # of connection points: 6
#     Node 12, Type 0, BuildingBlock: BETGAK_clean_sbu_0, # of connection points: 6
#     Node 13, Type 0, BuildingBlock: BETGAK_clean_sbu_0, # of connection points: 6
#     Node 14, Type 0, BuildingBlock: BETGAK_clean_sbu_0, # of connection points: 6
#     Node 15, Type 0, BuildingBlock: BETGAK_clean_sbu_0, # of connection points: 6
#     Edge 16, Type (0, 0), BuildingBlock: XIVTED_clean_linker_0, # of connection points: 2
#     Edge 17, Type (0, 0), BuildingBlock: XIVTED_clean_linker_0, # of connection points: 2
#     Edge 18, Type (0, 0), BuildingBlock: XIVTED_clean_linker_0, # of connection points: 2
#     Edge 19, Type (0, 0), BuildingBlock: XIVTED_clean_linker_0, # of connection points: 2
#     Edge 20, Type (0, 0), BuildingBlock: XIVTED_clean_linker_0, # of connection points: 2
#     Edge 21, Type (0, 0), BuildingBlock: XIVTED_clean_linker_0, # of connection points: 2
#     Edge 22, Type (0, 0), BuildingBlock: XIVTED_clean_linker_0, # of connection points: 2
#     Edge 23, Type (0, 0), BuildingBlock: XIVTED_clean_linker_0, # of connection points: 2
#     Edge 24, Type (0, 0), BuildingBlock: XIVTED_clean_linker_0, # of connection points: 2
#     Edge 25, Type (0, 0), BuildingBlock: XIVTED_clean_linker_0, # of connection points: 2
#     Edge 26, Type (0, 0), BuildingBlock: XIVTED_clean_linker_0, # of connection points: 2
#     Edge 27, Type (0, 0), BuildingBlock: XIVTED_clean_linker_0, # of connection points: 2
#     Edge 28, Type (0, 0), BuildingBlock: XIVTED_clean_linker_0, # of connection points: 2
#     Edge 29, Type (0, 0), BuildingBlock: XIVTED_clean_linker_0, # of connection points: 2
#     Edge 30, Type (0, 0), BuildingBlock: XIVTED_clean_linker_0, # of connection points: 2
#     Edge 31, Type (0, 0), BuildingBlock: XIVTED_clean_linker_0, # of connection points: 2
#     Edge 32, Type (0, 0), BuildingBlock: XIVTED_clean_linker_0, # of connection points: 2
#     Edge 33, Type (0, 0), BuildingBlock: XIVTED_clean_linker_0, # of connection points: 2
#     Edge 34, Type (0, 0), BuildingBlock: XIVTED_clean_linker_0, # of connection points: 2
#     Edge 35, Type (0, 0), BuildingBlock: XIVTED_clean_linker_0, # of connection points: 2
#     Edge 36, Type (0, 0), BuildingBlock: XIVTED_clean_linker_0, # of connection points: 2
#     Edge 37, Type (0, 0), BuildingBlock: XIVTED_clean_linker_0, # of connection points: 2
#     Edge 38, Type (0, 0), BuildingBlock: XIVTED_clean_linker_0, # of connection points: 2
#     Edge 39, Type (0, 0), BuildingBlock: XIVTED_clean_linker_0, # of connection points: 2
#     Edge 40, Type (0, 0), BuildingBlock: XIVTED_clean_linker_0, # of connection points: 2
#     Edge 41, Type (0, 0), BuildingBlock: XIVTED_clean_linker_0, # of connection points: 2
#     Edge 42, Type (0, 0), BuildingBlock: XIVTED_clean_linker_0, # of connection points: 2
#     Edge 43, Type (0, 0), BuildingBlock: XIVTED_clean_linker_0, # of connection points: 2
#     Edge 44, Type (0, 0), BuildingBlock: XIVTED_clean_linker_0, # of connection points: 2
#     Edge 45, Type (0, 0), BuildingBlock: XIVTED_clean_linker_0, # of connection points: 2
#     Edge 46, Type (0, 0), BuildingBlock: XIVTED_clean_linker_0, # of connection points: 2
#     Edge 47, Type (0, 0), BuildingBlock: XIVTED_clean_linker_0, # of connection points: 2
#     Edge 48, Type (0, 0), BuildingBlock: XIVTED_clean_linker_0, # of connection points: 2
#     Edge 49, Type (0, 0), BuildingBlock: XIVTED_clean_linker_0, # of connection points: 2
#     Edge 50, Type (0, 0), BuildingBlock: XIVTED_clean_linker_0, # of connection points: 2
#     Edge 51, Type (0, 0), BuildingBlock: XIVTED_clean_linker_0, # of connection points: 2
#     Edge 52, Type (0, 0), BuildingBlock: XIVTED_clean_linker_0, # of connection points: 2
#     Edge 53, Type (0, 0), BuildingBlock: XIVTED_clean_linker_0, # of connection points: 2
#     Edge 54, Type (0, 0), BuildingBlock: XIVTED_clean_linker_0, # of connection points: 2
#     Edge 55, Type (0, 0), BuildingBlock: XIVTED_clean_linker_0, # of connection points: 2
#     Edge 56, Type (0, 0), BuildingBlock: XIVTED_clean_linker_0, # of connection points: 2
#     Edge 57, Type (0, 0), BuildingBlock: XIVTED_clean_linker_0, # of connection points: 2
#     Edge 58, Type (0, 0), BuildingBlock: XIVTED_clean_linker_0, # of connection points: 2
#     Edge 59, Type (0, 0), BuildingBlock: XIVTED_clean_linker_0, # of connection points: 2
#     Edge 60, Type (0, 0), BuildingBlock: XIVTED_clean_linker_0, # of connection points: 2
#     Edge 61, Type (0, 0), BuildingBlock: XIVTED_clean_linker_0, # of connection points: 2
#     Edge 62, Type (0, 0), BuildingBlock: XIVTED_clean_linker_0, # of connection points: 2
#     Edge 63, Type (0, 0), BuildingBlock: XIVTED_clean_linker_0, # of connection points: 2
# Relax obj value: 0.129
# Max RMSD: 0.182
# Mean RMSD: 0.182
data_MOF--net-wiv--node1-BETGAK_clean_sbu_0--edge1-XIVTED_clean_linker_0
_symmetry_space_group_name_H-M    P1
_symmetry_Int_Tables_number       1
_symmetry_cell_setting            triclinic
loop_
_symmetry_equiv_pos_as_xyz
'x, y, z'
_cell_length_a     50.666115
_cell_length_b     50.728436
_cell_length_c     24.683244
_cell_angle_alpha  89.967926
_cell_angle_beta   89.950991
_cell_angle_gamma 89.885642
loop_
_atom_site_label
_atom_site_type_symbol
_atom_site_fract_x
_atom_site_fract_y
_atom_site_fract_z
_atom_type_partial_charge
La0 La 0.35672 0.11988 0.17504 0.0
La1 La 0.39637 0.12396 0.08648 0.0
C2 C 0.33347 0.11003 0.2635 0.0
C3 C 0.34192 0.10905 0.32086 0.0
C4 C 0.36254 0.12507 0.33975 0.0
C5 C 0.3694 0.12515 0.39468 0.0
C6 C 0.35588 0.10913 0.43214 0.0
C7 C 0.33562 0.09264 0.41269 0.0
C8 C 0.32872 0.09264 0.35767 0.0
C9 C 0.36044 0.16724 0.13144 0.0
C10 C 0.41812 0.13104 0.20141 0.0
C11 C 0.41938 0.13564 0.99879 0.0
C12 C 0.41353 0.13171 0.94068 0.0
C13 C 0.39749 0.11083 0.92318 0.0
C14 C 0.39148 0.1078 0.86812 0.0
C15 C 0.40158 0.12546 0.82928 0.0
C16 C 0.4178 0.14624 0.84708 0.0
C17 C 0.42363 0.14935 0.9022 0.0
C18 C 0.39344 0.07706 0.13259 0.0
C19 C 0.33529 0.11263 0.0576 0.0
O20 O 0.33403 0.13324 0.24063 0.0
O21 O 0.34284 0.09178 0.23137 0.0
O22 O 0.3386 0.15597 0.14573 0.0
O23 O 0.37947 0.15194 0.14196 0.0
O24 O 0.39524 0.12099 0.21744 0.0
O25 O 0.42193 0.13815 0.15053 0.0
O26 O 0.42453 0.11443 1.02709 0.0
O27 O 0.40361 0.15172 1.02481 0.0
O28 O 0.41501 0.0871 0.11357 0.0
O29 O 0.37441 0.09227 0.12198 0.0
O30 O 0.35912 0.12005 0.04178 0.0
O31 O 0.32984 0.10856 0.10952 0.0
H32 H 0.37305 0.13797 0.31223 0.0
H33 H 0.38486 0.13836 0.40792 0.0
H34 H 0.32506 0.07967 0.43995 0.0
H35 H 0.31285 0.08002 0.34397 0.0
H36 H 0.38951 0.0969 0.95215 0.0
H37 H 0.37916 0.09143 0.85591 0.0
H38 H 0.42566 0.1604 0.81849 0.0
H39 H 0.43594 0.16567 0.91482 0.0
La40 La 0.12399 0.63247 0.99025 0.0
La41 La 0.11754 0.67107 0.90124 0.0
C42 C 0.13639 0.6097 0.07763 0.0
C43 C 0.13464 0.61634 0.13597 0.0
C44 C 0.12459 0.59766 0.17245 0.0
C45 C 0.12197 0.60369 0.22755 0.0
C46 C 0.12935 0.6286 0.24755 0.0
C47 C 0.13951 0.64728 0.21081 0.0
C48 C 0.14215 0.64121 0.15569 0.0
C49 C 0.07659 0.63408 0.94613 0.0
C50 C 0.11186 0.69319 1.01846 0.0
C51 C 0.10423 0.69348 0.81387 0.0
C52 C 0.10507 0.68668 0.75555 0.0
C53 C 0.11524 0.70502 0.71851 0.0
C54 C 0.11709 0.69887 0.66336 0.0
C55 C 0.10879 0.67416 0.64387 0.0
C56 C 0.09844 0.65583 0.68114 0.0
C57 C 0.09655 0.66204 0.73635 0.0
C58 C 0.16623 0.66822 0.93998 0.0
C59 C 0.13016 0.60974 0.87538 0.0
O60 O 0.1139 0.60615 0.05278 0.0
O61 O 0.15302 0.62332 0.04811 0.0
O62 O 0.08817 0.6127 0.96228 0.0
O63 O 0.09109 0.65355 0.95689 0.0
O64 O 0.12071 0.66989 1.03423 0.0
O65 O 0.10631 0.69797 0.96689 0.0
O66 O 0.12708 0.6968 0.83731 0.0
O67 O 0.0879 0.6802 0.8446 0.0
O68 O 0.15437 0.6897 0.9252 0.0
O69 O 0.15073 0.64913 0.9321 0.0
O70 O 0.12042 0.63266 0.8584 0.0
O71 O 0.13699 0.60623 0.92652 0.0
H72 H 0.11852 0.57841 0.15819 0.0
H73 H 0.11371 0.58893 0.25432 0.0
H74 H 0.14569 0.66655 0.22469 0.0
H75 H 0.14997 0.65605 0.12855 0.0
H76 H 0.12204 0.7241 0.73236 0.0
H77 H 0.12552 0.71334 0.63615 0.0
H78 H 0.09155 0.63674 0.66762 0.0
H79 H 0.08852 0.64751 0.76396 0.0
La80 La 0.67144 0.91024 0.17625 0.0
La81 La 0.63282 0.90382 0.08747 0.0
C82 C 0.69441 0.92173 0.26418 0.0
C83 C 0.68735 0.92102 0.32232 0.0
C84 C 0.70571 0.91132 0.3599 0.0
C85 C 0.69923 0.90953 0.41492 0.0
C86 C 0.67418 0.91742 0.43368 0.0
C87 C 0.65585 0.92732 0.39583 0.0
C88 C 0.66236 0.9291 0.34078 0.0
C89 C 0.66826 0.86168 0.13776 0.0
C90 C 0.61011 0.89878 0.20236 0.0
C91 C 0.6104 0.8906 1.00032 0.0
C92 C 0.61722 0.89244 0.94204 0.0
C93 C 0.59894 0.90328 0.90558 0.0
C94 C 0.60525 0.90598 0.8506 0.0
C95 C 0.63004 0.89791 0.83077 0.0
C96 C 0.64828 0.88689 0.86742 0.0
C97 C 0.64192 0.88413 0.92236 0.0
C98 C 0.63437 0.95156 0.13007 0.0
C99 C 0.69369 0.91574 0.05902 0.0
O100 O 0.69642 0.89887 0.2403 0.0
O101 O 0.68208 0.93886 0.23376 0.0
O102 O 0.6899 0.87343 0.15139 0.0
O103 O 0.6492 0.87721 0.146 0.0
O104 O 0.63274 0.9094 0.21835 0.0
O105 O 0.60681 0.89079 0.15192 0.0
O106 O 0.60603 0.91297 1.02506 0.0
O107 O 0.6245 0.87446 1.03003 0.0
O108 O 0.61315 0.94028 0.11232 0.0
O109 O 0.65395 0.93682 0.12047 0.0
O110 O 0.67038 0.90681 0.04351 0.0
O111 O 0.6984 0.9215 0.11054 0.0
H112 H 0.72504 0.90483 0.34656 0.0
H113 H 0.71372 0.90145 0.44258 0.0
H114 H 0.63651 0.93391 0.40877 0.0
H115 H 0.64782 0.93671 0.3127 0.0
H116 H 0.5798 0.90991 0.91977 0.0
H117 H 0.59083 0.91486 0.82382 0.0
H118 H 0.66743 0.88015 0.8536 0.0
H119 H 0.65646 0.87565 0.94941 0.0
La120 La 0.90589 0.39675 0.99028 0.0
La121 La 0.90926 0.35832 0.90089 0.0
C122 C 0.89451 0.41988 0.07778 0.0
C123 C 0.89484 0.41273 0.13578 0.0
C124 C 0.90411 0.43103 0.17376 0.0
C125 C 0.90565 0.42439 0.22868 0.0
C126 C 0.89798 0.39922 0.24678 0.0
C127 C 0.88855 0.38094 0.20855 0.0
C128 C 0.88693 0.38765 0.15364 0.0
C129 C 0.95272 0.39362 0.94383 0.0
C130 C 0.91622 0.33567 1.01755 0.0
C131 C 0.91911 0.33483 0.81277 0.0
C132 C 0.91794 0.34179 0.75476 0.0
C133 C 0.90969 0.32283 0.71715 0.0
C134 C 0.90768 0.32916 0.66213 0.0
C135 C 0.91387 0.35466 0.64356 0.0
C136 C 0.92226 0.3736 0.68149 0.0
C137 C 0.92426 0.36724 0.7365 0.0
C138 C 0.86185 0.36219 0.94467 0.0
C139 C 0.89958 0.42036 0.8762 0.0
O140 O 0.9176 0.42136 0.05435 0.0
O141 O 0.87712 0.40799 0.04712 0.0
O142 O 0.9425 0.41517 0.96264 0.0
O143 O 0.93755 0.37457 0.9543 0.0
O144 O 0.9084 0.3592 1.03405 0.0
O145 O 0.92083 0.33091 0.96555 0.0
O146 O 0.89646 0.33354 0.83783 0.0
O147 O 0.9369 0.34686 0.84196 0.0
O148 O 0.87313 0.3404 0.93003 0.0
O149 O 0.87732 0.38111 0.93454 0.0
O150 O 0.90679 0.39678 0.85796 0.0
O151 O 0.89476 0.42448 0.928 0.0
H152 H 0.91046 0.45042 0.16082 0.0
H153 H 0.91335 0.43882 0.2568 0.0
H154 H 0.8822 0.3615 0.2211 0.0
H155 H 0.87966 0.37314 0.12519 0.0
H156 H 0.90456 0.30313 0.73044 0.0
H157 H 0.90079 0.31419 0.6343 0.0
H158 H 0.92753 0.39332 0.66863 0.0
H159 H 0.93073 0.38225 0.76467 0.0
La160 La 0.35379 0.41694 0.13741 0.0
La161 La 0.39213 0.40225 0.23273 0.0
C162 C 0.33638 0.441 0.0557 0.0
C163 C 0.3409 0.43713 0.99659 0.0
C164 C 0.31999 0.4299 0.9623 0.0
C165 C 0.32445 0.42498 0.90704 0.0
C166 C 0.34998 0.42715 0.88475 0.0
C167 C 0.37074 0.43491 0.91902 0.0
C168 C 0.36629 0.43984 0.97404 0.0
C169 C 0.35685 0.36485 0.14918 0.0
C170 C 0.41388 0.39765 0.11618 0.0
C171 C 0.41107 0.38491 0.32028 0.0
C172 C 0.40353 0.38692 0.37826 0.0
C173 C 0.42272 0.39385 0.41663 0.0
C174 C 0.41595 0.39717 0.47125 0.0
C175 C 0.38975 0.39365 0.48898 0.0
C176 C 0.37056 0.38652 0.45042 0.0
C177 C 0.37738 0.38313 0.39574 0.0
C178 C 0.39397 0.45091 0.19477 0.0
C179 C 0.33119 0.41789 0.25712 0.0
O180 O 0.32301 0.42257 0.08101 0.0
O181 O 0.35674 0.44892 0.08405 0.0
O182 O 0.34191 0.3768 0.11446 0.0
O183 O 0.36853 0.38253 0.1755 0.0
O184 O 0.39321 0.41195 0.10027 0.0
O185 O 0.41575 0.38764 0.16569 0.0
O186 O 0.41866 0.40692 0.29741 0.0
O187 O 0.39571 0.37104 0.2884 0.0
O188 O 0.41443 0.43784 0.21166 0.0
O189 O 0.37366 0.43695 0.20121 0.0
O190 O 0.35466 0.4098 0.2743 0.0
O191 O 0.32621 0.42321 0.20521 0.0
H192 H 0.30023 0.42768 0.97843 0.0
H193 H 0.308 0.41888 0.88209 0.0
H194 H 0.39055 0.43732 0.9033 0.0
H195 H 0.3829 0.44558 0.99891 0.0
H196 H 0.44297 0.39705 0.40419 0.0
H197 H 0.43122 0.40305 0.49939 0.0
H198 H 0.35026 0.38335 0.46249 0.0
H199 H 0.36211 0.37777 0.36715 0.0
La200 La 0.40567 0.6324 0.83569 0.0
La201 La 0.41112 0.67073 0.92488 0.0
C202 C 0.39381 0.60934 0.74839 0.0
C203 C 0.39441 0.61606 0.69008 0.0
C204 C 0.40407 0.5975 0.65291 0.0
C205 C 0.40586 0.60365 0.59775 0.0
C206 C 0.39806 0.6286 0.57847 0.0
C207 C 0.38823 0.64715 0.61586 0.0
C208 C 0.38635 0.64092 0.67105 0.0
C209 C 0.45295 0.63463 0.88017 0.0
C210 C 0.41677 0.69333 0.80816 0.0
C211 C 0.42387 0.69315 1.01242 0.0
C212 C 0.42243 0.68639 0.07063 0.0
C213 C 0.41457 0.70572 0.10791 0.0
C214 C 0.41226 0.69968 0.16305 0.0
C215 C 0.41779 0.6741 0.18221 0.0
C216 C 0.42577 0.65477 0.14462 0.0
C217 C 0.42805 0.66083 0.08943 0.0
C218 C 0.36276 0.66781 0.88505 0.0
C219 C 0.39996 0.60903 0.95012 0.0
O220 O 0.41681 0.60727 0.77194 0.0
O221 O 0.37668 0.62187 0.77882 0.0
O222 O 0.4418 0.6131 0.86396 0.0
O223 O 0.43812 0.6539 0.86941 0.0
O224 O 0.40806 0.67006 0.79208 0.0
O225 O 0.42244 0.69782 0.85975 0.0
O226 O 0.40127 0.69676 0.98811 0.0
O227 O 0.44032 0.67952 0.98254 0.0
O228 O 0.37446 0.68931 0.89991 0.0
O229 O 0.37823 0.64862 0.89335 0.0
O230 O 0.40794 0.63241 0.9679 0.0
O231 O 0.39434 0.60503 0.89859 0.0
H232 H 0.41053 0.57825 0.66668 0.0
H233 H 0.41387 0.58901 0.57036 0.0
H234 H 0.38176 0.66644 0.60245 0.0
H235 H 0.37877 0.65563 0.69881 0.0
H236 H 0.40996 0.72551 0.09427 0.0
H237 H 0.40566 0.71498 0.19049 0.0
H238 H 0.43052 0.63496 0.15784 0.0
H239 H 0.43416 0.6455 0.06158 0.0
La240 La 0.6735 0.6131 0.13953 0.0
La241 La 0.63529 0.6241 0.23696 0.0
C242 C 0.69227 0.59029 0.05758 0.0
C243 C 0.69085 0.5948 0.99832 0.0
C244 C 0.70032 0.61807 0.97413 0.0
C245 C 0.69657 0.62265 0.91862 0.0
C246 C 0.683 0.60424 0.88648 0.0
C247 C 0.67418 0.58073 0.91052 0.0
C248 C 0.67821 0.57601 0.96568 0.0
C249 C 0.6692 0.66458 0.1565 0.0
C250 C 0.6124 0.63023 0.12122 0.0
C251 C 0.61555 0.63972 0.32499 0.0
C252 C 0.62311 0.63818 0.38295 0.0
C253 C 0.60732 0.62357 0.41873 0.0
C254 C 0.61418 0.62113 0.47333 0.0
C255 C 0.6369 0.63353 0.49394 0.0
C256 C 0.65268 0.64828 0.45802 0.0
C257 C 0.6459 0.65054 0.40313 0.0
C258 C 0.63546 0.57588 0.19617 0.0
C259 C 0.69672 0.6112 0.25933 0.0
O260 O 0.70575 0.60713 0.08703 0.0
O261 O 0.66981 0.5839 0.08032 0.0
O262 O 0.68462 0.65395 0.12075 0.0
O263 O 0.65772 0.64601 0.18071 0.0
O264 O 0.63417 0.61877 0.10202 0.0
O265 O 0.60982 0.63758 0.17242 0.0
O266 O 0.60959 0.61724 0.30205 0.0
O267 O 0.62968 0.65483 0.29303 0.0
O268 O 0.6148 0.58738 0.21642 0.0
O269 O 0.65512 0.59083 0.20207 0.0
O270 O 0.67318 0.61845 0.27758 0.0
O271 O 0.70132 0.60632 0.20704 0.0
H272 H 0.71007 0.63301 0.99818 0.0
H273 H 0.70348 0.641 0.90124 0.0
H274 H 0.66397 0.56602 0.88667 0.0
H275 H 0.67082 0.55787 0.98322 0.0
H276 H 0.5897 0.61376 0.40429 0.0
H277 H 0.60179 0.60914 0.49917 0.0
H278 H 0.67014 0.65837 0.47232 0.0
H279 H 0.65856 0.66191 0.37661 0.0
La280 La 0.62358 0.39418 0.83859 0.0
La281 La 0.61694 0.35565 0.92764 0.0
C282 C 0.63726 0.41639 0.75145 0.0
C283 C 0.63543 0.40957 0.6932 0.0
C284 C 0.62483 0.42791 0.6566 0.0
C285 C 0.62213 0.4216 0.60165 0.0
C286 C 0.62996 0.39673 0.58199 0.0
C287 C 0.64074 0.37843 0.61878 0.0
C288 C 0.6435 0.38479 0.67369 0.0
C289 C 0.57555 0.39218 0.87984 0.0
C290 C 0.61193 0.3333 0.81044 0.0
C291 C 0.60511 0.3328 1.01557 0.0
C292 C 0.60608 0.33979 0.07372 0.0
C293 C 0.61555 0.32126 0.1112 0.0
C294 C 0.61754 0.32766 0.16622 0.0
C295 C 0.61008 0.3528 0.18506 0.0
C296 C 0.60042 0.37129 0.14731 0.0
C297 C 0.59844 0.36486 0.09228 0.0
C298 C 0.66582 0.35934 0.89004 0.0
C299 C 0.62789 0.41707 0.95348 0.0
O300 O 0.61487 0.42106 0.77609 0.0
O301 O 0.6532 0.40212 0.7813 0.0
O302 O 0.58671 0.41347 0.86209 0.0
O303 O 0.59056 0.37275 0.87103 0.0
O304 O 0.62086 0.3566 0.79488 0.0
O305 O 0.606 0.32862 0.86193 0.0
O306 O 0.6279 0.33031 0.99141 0.0
O307 O 0.58816 0.34552 0.98537 0.0
O308 O 0.65422 0.33762 0.90379 0.0
O309 O 0.64992 0.37811 0.89792 0.0
O310 O 0.61739 0.39439 0.96951 0.0
O311 O 0.63607 0.42036 0.90311 0.0
H312 H 0.61838 0.44711 0.67065 0.0
H313 H 0.61344 0.43608 0.57475 0.0
H314 H 0.64729 0.35922 0.6051 0.0
H315 H 0.6518 0.3702 0.70085 0.0
H316 H 0.62169 0.30186 0.09779 0.0
H317 H 0.62543 0.31304 0.1938 0.0
H318 H 0.59415 0.3907 0.16031 0.0
H319 H 0.591 0.37953 0.0643 0.0
La320 La 0.85957 0.61761 0.6682 0.0
La321 La 0.89802 0.62309 0.57892 0.0
C322 C 0.83727 0.60455 0.75582 0.0
C323 C 0.84399 0.60623 0.81403 0.0
C324 C 0.82457 0.61408 0.85121 0.0
C325 C 0.83055 0.61652 0.90634 0.0
C326 C 0.85616 0.61113 0.92561 0.0
C327 C 0.87559 0.60318 0.88811 0.0
C328 C 0.86958 0.60077 0.83295 0.0
C329 C 0.86273 0.66608 0.6293 0.0
C330 C 0.92131 0.62916 0.69345 0.0
C331 C 0.92115 0.6349 0.49155 0.0
C332 C 0.91437 0.63432 0.43327 0.0
C333 C 0.93291 0.62464 0.396 0.0
C334 C 0.9267 0.6229 0.34088 0.0
C335 C 0.90173 0.63077 0.32173 0.0
C336 C 0.88321 0.64062 0.35922 0.0
C337 C 0.88949 0.64245 0.41437 0.0
C338 C 0.89571 0.57587 0.62379 0.0
C339 C 0.837 0.6122 0.55131 0.0
O340 O 0.8332 0.627 0.73124 0.0
O341 O 0.85129 0.58837 0.72611 0.0
O342 O 0.84117 0.65445 0.64422 0.0
O343 O 0.88186 0.65043 0.63674 0.0
O344 O 0.8979 0.62117 0.71128 0.0
O345 O 0.92536 0.63455 0.64179 0.0
O346 O 0.9232 0.61192 0.51516 0.0
O347 O 0.90864 0.65203 0.52199 0.0
O348 O 0.91728 0.58696 0.60742 0.0
O349 O 0.87647 0.5907 0.6127 0.0
O350 O 0.86034 0.62085 0.53527 0.0
O351 O 0.83245 0.60652 0.60291 0.0
H352 H 0.80474 0.61856 0.8375 0.0
H353 H 0.81517 0.62309 0.93369 0.0
H354 H 0.89542 0.59853 0.90141 0.0
H355 H 0.88499 0.59467 0.8052 0.0
H356 H 0.95217 0.61813 0.40966 0.0
H357 H 0.94133 0.61488 0.31341 0.0
H358 H 0.86391 0.64714 0.34591 0.0
H359 H 0.87481 0.65006 0.4422 0.0
La360 La 0.62351 0.13276 0.48932 0.0
La361 La 0.61668 0.17138 0.40042 0.0
C362 C 0.63716 0.11051 0.57646 0.0
C363 C 0.63531 0.11733 0.63472 0.0
C364 C 0.62477 0.09898 0.67135 0.0
C365 C 0.62206 0.10529 0.72631 0.0
C366 C 0.6298 0.13015 0.74596 0.0
C367 C 0.64051 0.14846 0.70914 0.0
C368 C 0.64328 0.14211 0.65421 0.0
C369 C 0.5755 0.1347 0.44801 0.0
C370 C 0.61144 0.1936 0.51768 0.0
C371 C 0.60501 0.1943 0.31245 0.0
C372 C 0.60592 0.18727 0.2543 0.0
C373 C 0.61546 0.2057 0.21674 0.0
C374 C 0.61741 0.19926 0.16173 0.0
C375 C 0.60985 0.17417 0.14297 0.0
C376 C 0.60011 0.15578 0.1808 0.0
C377 C 0.59817 0.16226 0.23583 0.0
C378 C 0.6654 0.16812 0.43857 0.0
C379 C 0.62823 0.11001 0.37441 0.0
O380 O 0.6148 0.10591 0.55185 0.0
O381 O 0.6531 0.12474 0.54659 0.0
O382 O 0.58678 0.11339 0.4655 0.0
O383 O 0.59041 0.15412 0.45695 0.0
O384 O 0.6205 0.17031 0.53314 0.0
O385 O 0.60548 0.19832 0.46622 0.0
O386 O 0.62782 0.19652 0.33649 0.0
O387 O 0.58797 0.18181 0.34275 0.0
O388 O 0.65352 0.18974 0.42501 0.0
O389 O 0.64983 0.14916 0.43031 0.0
O390 O 0.61752 0.13266 0.3585 0.0
O391 O 0.63636 0.1067 0.42479 0.0
H392 H 0.6184 0.07979 0.65731 0.0
H393 H 0.61342 0.09081 0.75323 0.0
H394 H 0.647 0.16766 0.7228 0.0
H395 H 0.65152 0.1567 0.62703 0.0
H396 H 0.62169 0.22506 0.23008 0.0
H397 H 0.62535 0.21381 0.13409 0.0
H398 H 0.59377 0.13641 0.16786 0.0
H399 H 0.59068 0.14766 0.26389 0.0
La400 La 0.17299 0.40702 0.67327 0.0
La401 La 0.13319 0.40413 0.58479 0.0
C402 C 0.19671 0.41533 0.76181 0.0
C403 C 0.18825 0.41744 0.81907 0.0
C404 C 0.16602 0.40371 0.83804 0.0
C405 C 0.1592 0.40429 0.893 0.0
C406 C 0.17443 0.41866 0.93046 0.0
C407 C 0.19634 0.43291 0.91095 0.0
C408 C 0.20316 0.43227 0.85587 0.0
C409 C 0.16832 0.35989 0.62879 0.0
C410 C 0.11135 0.39724 0.69966 0.0
C411 C 0.10989 0.39337 0.497 0.0
C412 C 0.11594 0.39732 0.43895 0.0
C413 C 0.13355 0.41702 0.42197 0.0
C414 C 0.1397 0.42005 0.36695 0.0
C415 C 0.12813 0.40362 0.32764 0.0
C416 C 0.1103 0.38407 0.34491 0.0
C417 C 0.10435 0.38092 0.4 0.0
C418 C 0.1367 0.45066 0.63215 0.0
C419 C 0.1945 0.41429 0.55589 0.0
O420 O 0.19402 0.39212 0.73969 0.0
O421 O 0.18924 0.43414 0.72894 0.0
O422 O 0.19038 0.37087 0.64258 0.0
O423 O 0.14965 0.37559 0.63961 0.0
O424 O 0.13436 0.40702 0.71549 0.0
O425 O 0.10744 0.39013 0.64884 0.0
O426 O 0.1054 0.41465 0.52546 0.0
O427 O 0.12515 0.37676 0.52289 0.0
O428 O 0.11508 0.44114 0.61237 0.0
O429 O 0.15555 0.43526 0.62128 0.0
O430 O 0.17054 0.40733 0.54017 0.0
O431 O 0.20005 0.41814 0.60781 0.0
H432 H 0.15423 0.39197 0.81063 0.0
H433 H 0.14243 0.39278 0.90628 0.0
H434 H 0.20829 0.44455 0.93824 0.0
H435 H 0.22034 0.44307 0.84215 0.0
H436 H 0.14265 0.43001 0.45131 0.0
H437 H 0.15329 0.43548 0.35513 0.0
H438 H 0.10125 0.37088 0.31591 0.0
H439 H 0.09078 0.36554 0.41222 0.0
La440 La 0.40384 0.89397 0.48968 0.0
La441 La 0.40981 0.85604 0.39975 0.0
C442 C 0.39078 0.9164 0.57694 0.0
C443 C 0.39224 0.90957 0.63509 0.0
C444 C 0.40227 0.92805 0.67191 0.0
C445 C 0.40478 0.92173 0.72685 0.0
C446 C 0.39729 0.89673 0.7462 0.0
C447 C 0.38705 0.87829 0.70918 0.0
C448 C 0.38453 0.88465 0.65424 0.0
C449 C 0.45135 0.89271 0.44591 0.0
C450 C 0.41612 0.83318 0.51633 0.0
C451 C 0.42128 0.83299 0.31196 0.0
C452 C 0.42065 0.83991 0.25386 0.0
C453 C 0.41087 0.82157 0.2165 0.0
C454 C 0.40908 0.82796 0.16149 0.0
C455 C 0.41704 0.8529 0.14264 0.0
C456 C 0.42706 0.8712 0.18024 0.0
C457 C 0.42886 0.86476 0.23527 0.0
C458 C 0.36164 0.85847 0.44084 0.0
C459 C 0.39804 0.91756 0.3754 0.0
O460 O 0.41342 0.92014 0.55269 0.0
O461 O 0.37445 0.90274 0.54698 0.0
O462 O 0.44009 0.9138 0.46447 0.0
O463 O 0.43675 0.87307 0.45514 0.0
O464 O 0.40724 0.85634 0.53291 0.0
O465 O 0.42158 0.82886 0.46454 0.0
O466 O 0.39836 0.83118 0.33578 0.0
O467 O 0.43844 0.84531 0.34221 0.0
O468 O 0.37359 0.83706 0.42618 0.0
O469 O 0.37677 0.87775 0.43191 0.0
O470 O 0.40767 0.89474 0.3577 0.0
O471 O 0.39117 0.92066 0.42659 0.0
H472 H 0.40846 0.94734 0.65801 0.0
H473 H 0.41307 0.93629 0.75396 0.0
H474 H 0.38078 0.85898 0.72269 0.0
H475 H 0.3767 0.86997 0.62679 0.0
H476 H 0.40431 0.80233 0.23001 0.0
H477 H 0.40094 0.81351 0.13392 0.0
H478 H 0.43368 0.89045 0.16712 0.0
H479 H 0.43657 0.87927 0.26324 0.0
La480 La 0.85739 0.90947 0.65115 0.0
La481 La 0.89569 0.90535 0.74057 0.0
C482 C 0.83419 0.92014 0.56307 0.0
C483 C 0.84106 0.91876 0.505 0.0
C484 C 0.82185 0.91093 0.4675 0.0
C485 C 0.82802 0.90894 0.41238 0.0
C486 C 0.8536 0.91477 0.39362 0.0
C487 C 0.87281 0.92268 0.4314 0.0
C488 C 0.86662 0.92463 0.48652 0.0
C489 C 0.86128 0.86157 0.69253 0.0
C490 C 0.91941 0.89937 0.62646 0.0
C491 C 0.91872 0.89341 0.8279 0.0
C492 C 0.91167 0.89384 0.88598 0.0
C493 C 0.9301 0.90311 0.92375 0.0
C494 C 0.92353 0.90485 0.97869 0.0
C495 C 0.89831 0.8974 0.99708 0.0
C496 C 0.87995 0.88785 0.95909 0.0
C497 C 0.88658 0.88604 0.90414 0.0
C498 C 0.89315 0.95238 0.69489 0.0
C499 C 0.8346 0.91597 0.76792 0.0
O500 O 0.83208 0.89758 0.58813 0.0
O501 O 0.84688 0.93745 0.59224 0.0
O502 O 0.83948 0.87297 0.67828 0.0
O503 O 0.88019 0.87725 0.68374 0.0
O504 O 0.89589 0.90685 0.60827 0.0
O505 O 0.92342 0.89424 0.67818 0.0
O506 O 0.92067 0.91645 0.80454 0.0
O507 O 0.90641 0.87632 0.79723 0.0
O508 O 0.91454 0.94183 0.71379 0.0
O509 O 0.87387 0.93741 0.70514 0.0
O510 O 0.85809 0.90785 0.78423 0.0
O511 O 0.82992 0.92088 0.71601 0.0
H512 H 0.80201 0.90631 0.48089 0.0
H513 H 0.81267 0.9031 0.38438 0.0
H514 H 0.89278 0.92699 0.4185 0.0
H515 H 0.88187 0.93063 0.5146 0.0
H516 H 0.94957 0.9092 0.91065 0.0
H517 H 0.93831 0.9119 1.00682 0.0
H518 H 0.86025 0.88225 0.97158 0.0
H519 H 0.87195 0.87886 0.87584 0.0
La520 La 0.90458 0.13281 0.33495 0.0
La521 La 0.90854 0.17205 0.4238 0.0
C522 C 0.89304 0.10998 0.24711 0.0
C523 C 0.89736 0.11602 0.18923 0.0
C524 C 0.91746 0.1333 0.17286 0.0
C525 C 0.92077 0.13963 0.11802 0.0
C526 C 0.90422 0.12856 0.07833 0.0
C527 C 0.88429 0.11101 0.09497 0.0
C528 C 0.88085 0.10489 0.14989 0.0
C529 C 0.95153 0.13537 0.38086 0.0
C530 C 0.91542 0.19401 0.30668 0.0
C531 C 0.91759 0.19542 0.51237 0.0
C532 C 0.91932 0.18681 0.56952 0.0
C533 C 0.90501 0.16487 0.588 0.0
C534 C 0.90537 0.15781 0.6428 0.0
C535 C 0.92008 0.1725 0.68056 0.0
C536 C 0.93484 0.19417 0.66159 0.0
C537 C 0.93443 0.20123 0.60665 0.0
C538 C 0.86111 0.16831 0.37993 0.0
C539 C 0.89757 0.11063 0.44959 0.0
O540 O 0.91413 0.10466 0.27566 0.0
O541 O 0.87697 0.12581 0.27297 0.0
O542 O 0.94146 0.11401 0.36115 0.0
O543 O 0.93639 0.15456 0.37088 0.0
O544 O 0.90815 0.17021 0.29069 0.0
O545 O 0.91963 0.19926 0.35861 0.0
O546 O 0.89429 0.19358 0.49016 0.0
O547 O 0.93618 0.18728 0.4796 0.0
O548 O 0.8725 0.19011 0.39384 0.0
O549 O 0.87653 0.14942 0.3906 0.0
O550 O 0.90799 0.13331 0.46565 0.0
O551 O 0.89018 0.10717 0.3988 0.0
H552 H 0.93053 0.14204 0.20253 0.0
H553 H 0.93649 0.15299 0.10666 0.0
H554 H 0.87101 0.10235 0.06562 0.0
H555 H 0.86517 0.09158 0.16168 0.0
H556 H 0.89302 0.15349 0.56031 0.0
H557 H 0.89347 0.14126 0.65572 0.0
H558 H 0.94673 0.20571 0.68918 0.0
H559 H 0.94566 0.21818 0.59329 0.0
La560 La 0.17194 0.11528 0.64954 0.0
La561 La 0.13401 0.12241 0.73923 0.0
C562 C 0.19396 0.10199 0.56157 0.0
C563 C 0.18741 0.10526 0.50376 0.0
C564 C 0.16917 0.12442 0.48682 0.0
C565 C 0.16281 0.12707 0.4319 0.0
C566 C 0.17452 0.11056 0.39275 0.0
C567 C 0.19276 0.09134 0.41015 0.0
C568 C 0.19911 0.08873 0.4651 0.0
C569 C 0.16908 0.16424 0.68573 0.0
C570 C 0.11038 0.12758 0.625 0.0
C571 C 0.11174 0.13617 0.82638 0.0
C572 C 0.11796 0.13295 0.8844 0.0
C573 C 0.13368 0.1119 0.9025 0.0
C574 C 0.14007 0.10943 0.95743 0.0
C575 C 0.1307 0.12788 0.99549 0.0
C576 C 0.11477 0.14883 0.97713 0.0
C577 C 0.10854 0.15136 0.92209 0.0
C578 C 0.13626 0.07409 0.69918 0.0
C579 C 0.19487 0.11068 0.76648 0.0
O580 O 0.19952 0.12351 0.58819 0.0
O581 O 0.17825 0.08668 0.5892 0.0
O582 O 0.19049 0.15235 0.67084 0.0
O583 O 0.14987 0.14871 0.67925 0.0
O584 O 0.13315 0.11762 0.60768 0.0
O585 O 0.10742 0.13502 0.67587 0.0
O586 O 0.10601 0.11462 0.79984 0.0
O587 O 0.12767 0.15141 0.79883 0.0
O588 O 0.11494 0.08525 0.71688 0.0
O589 O 0.15549 0.0893 0.70744 0.0
O590 O 0.17174 0.12005 0.78221 0.0
O591 O 0.19906 0.10399 0.71518 0.0
H592 H 0.15987 0.13738 0.51606 0.0
H593 H 0.14894 0.14229 0.42009 0.0
H594 H 0.20186 0.078 0.38142 0.0
H595 H 0.21307 0.07368 0.47745 0.0
H596 H 0.14113 0.0974 0.87409 0.0
H597 H 0.15212 0.0929 0.97016 0.0
H598 H 0.10747 0.16356 1.00517 0.0
H599 H 0.09647 0.16781 0.90891 0.0
La600 La 0.12447 0.89406 0.33817 0.0
La601 La 0.11516 0.8557 0.42664 0.0
C602 C 0.13877 0.91589 0.25087 0.0
C603 C 0.13508 0.90964 0.19282 0.0
C604 C 0.11383 0.89405 0.17547 0.0
C605 C 0.11069 0.88791 0.1205 0.0
C606 C 0.12866 0.89735 0.08147 0.0
C607 C 0.14989 0.91305 0.0992 0.0
C608 C 0.15307 0.91906 0.15426 0.0
C609 C 0.07572 0.89281 0.37626 0.0
C610 C 0.1118 0.83334 0.30967 0.0
C611 C 0.10001 0.83469 0.51435 0.0
C612 C 0.10266 0.8419 0.57213 0.0
C613 C 0.12193 0.85998 0.58908 0.0
C614 C 0.12465 0.8663 0.64404 0.0
C615 C 0.10814 0.85474 0.68333 0.0
C616 C 0.08864 0.83687 0.66595 0.0
C617 C 0.08597 0.83052 0.61093 0.0
C618 C 0.16485 0.8579 0.39322 0.0
C619 C 0.1285 0.91667 0.45315 0.0
O620 O 0.11748 0.92239 0.27779 0.0
O621 O 0.15367 0.89959 0.27842 0.0
O622 O 0.08779 0.91403 0.36113 0.0
O623 O 0.0905 0.87326 0.36759 0.0
O624 O 0.12192 0.85629 0.29499 0.0
O625 O 0.10421 0.82909 0.36037 0.0
O626 O 0.12188 0.82848 0.48931 0.0
O627 O 0.08518 0.85014 0.4848 0.0
O628 O 0.15263 0.83666 0.40784 0.0
O629 O 0.14936 0.87717 0.39924 0.0
O630 O 0.11694 0.89438 0.46825 0.0
O631 O 0.13761 0.91966 0.40332 0.0
H632 H 0.09972 0.88644 0.20452 0.0
H633 H 0.09435 0.87544 0.10877 0.0
H634 H 0.16393 0.92102 0.07047 0.0
H635 H 0.16958 0.93117 0.16672 0.0
H636 H 0.13498 0.86911 0.55985 0.0
H637 H 0.1396 0.88044 0.65569 0.0
H638 H 0.07575 0.82737 0.69498 0.0
H639 H 0.07098 0.81653 0.59874 0.0
H640 H 0.38378 0.96807 0.40066 0.0
H641 H 0.39689 0.02588 0.09905 0.0
H642 H 0.40643 0.91956 0.26466 0.0
H643 H 0.38924 0.0734 0.24263 0.0
H644 H 0.39688 0.98603 0.15632 0.0
H645 H 0.38145 1.00609 0.34071 0.0
C646 C 0.38817 0.96531 0.35808 0.0
C647 C 0.39543 0.94044 0.33791 0.0
C648 C 0.39492 1.0052 0.17517 0.0
C649 C 0.39284 0.98433 0.2685 0.0
C650 C 0.39484 0.02787 0.14255 0.0
C651 C 0.39221 0.05291 0.16607 0.0
C652 C 0.39249 1.0077 0.23173 0.0
C653 C 0.39024 0.05455 0.22257 0.0
C654 C 0.38691 0.98715 0.32379 0.0
C655 C 0.40088 0.93831 0.28218 0.0
N656 N 0.39032 0.03232 0.25336 0.0
N657 N 0.39949 0.95996 0.24943 0.0
H658 H 0.9202 0.64118 0.80227 0.0
H659 H 0.06643 0.59962 0.86466 0.0
H660 H 0.97354 0.62193 0.67183 0.0
H661 H 0.03539 0.66925 0.94196 0.0
H662 H 0.02856 0.59973 0.80261 0.0
H663 H 0.9583 0.6441 0.86417 0.0
C664 C 0.93987 0.6376 0.78669 0.0
C665 C 0.94376 0.63149 0.73174 0.0
C666 C 0.03005 0.61494 0.83324 0.0
C667 C 0.98704 0.63413 0.8023 0.0
C668 C 0.05153 0.61484 0.8687 0.0
C669 C 0.05392 0.63444 0.90842 0.0
C670 C 1.01034 0.63423 0.83872 0.0
C671 C 0.0342 0.65385 0.91172 0.0
C672 C 0.96153 0.63938 0.82189 0.0
C673 C 0.96968 0.62695 0.71372 0.0
N674 N 1.01296 0.65307 0.87777 0.0
N675 N 0.99027 0.62801 0.74899 0.0
H676 H 0.59203 0.98148 0.15899 0.0
H677 H 0.66513 0.07038 0.37363 0.0
H678 H 0.67685 0.97898 0.17171 0.0
H679 H 0.59725 0.0992 0.28635 0.0
H680 H 0.66802 0.03309 0.31024 0.0
H681 H 0.59155 0.02131 0.215 0.0
C682 C 0.61059 0.98928 0.17364 0.0
C683 C 0.6345 0.97652 0.16156 0.0
C684 C 0.65264 0.04772 0.30483 0.0
C685 C 0.63398 0.02192 0.22656 0.0
C686 C 0.65088 0.0689 0.34107 0.0
C687 C 0.63094 0.08797 0.33519 0.0
C688 C 0.63389 0.04517 0.26332 0.0
C689 C 0.61305 0.0851 0.29215 0.0
C690 C 0.61026 1.01203 0.20556 0.0
C691 C 0.65792 0.98769 0.18139 0.0
N692 N 0.61473 0.06394 0.25834 0.0
N693 N 0.65707 1.00953 0.21362 0.0
H694 H 0.97788 0.34998 0.90145 0.0
H695 H 0.10387 0.42624 0.79176 0.0
H696 H 0.98485 0.43439 0.9156 0.0
H697 H 0.06896 0.36356 0.69816 0.0
H698 H 0.06625 0.42434 0.85436 0.0
H699 H 0.01714 0.34963 0.84257 0.0
C700 C 0.98752 0.36843 0.89189 0.0
C701 C 0.9776 0.39234 0.91208 0.0
C702 C 0.06696 0.41093 0.82024 0.0
C703 C 0.02316 0.39188 0.84738 0.0
C704 C 0.08843 0.41191 0.78465 0.0
C705 C 0.08946 0.39514 0.73944 0.0
C706 C 0.04669 0.3926 0.81147 0.0
C707 C 0.06883 0.37699 0.73223 0.0
C708 C 1.00998 0.36817 0.85867 0.0
C709 C 0.9916 0.41553 0.90037 0.0
N710 N 0.04835 0.37608 0.76805 0.0
N711 N 1.0137 0.41473 0.86901 0.0
H712 H 0.43126 0.4633 0.11956 0.0
H713 H 0.38766 0.60949 0.0588 0.0
H714 H 0.35962 0.49259 0.19222 0.0
H715 H 0.40916 0.55726 0.92813 0.0
H716 H 0.38569 0.57115 0.12028 0.0
H717 H 0.43228 0.50224 0.06018 0.0
C718 C 0.41594 0.47811 0.12338 0.0
C719 C 0.39533 0.47485 0.16071 0.0
C720 C 0.39075 0.56823 0.07806 0.0
C721 C 0.39676 0.51953 0.09417 0.0
C722 C 0.39195 0.59 0.04311 0.0
C723 C 0.39831 0.58647 0.9882 0.0
C724 C 0.39689 0.54299 0.05828 0.0
C725 C 0.40385 0.56081 0.96999 0.0
C726 C 0.41647 0.50017 0.08942 0.0
C727 C 0.3758 0.49447 0.16382 0.0
N728 N 0.40332 0.54011 1.00503 0.0
N729 N 0.37713 0.51619 0.13134 0.0
H730 H 0.61154 0.6415 1.01211 0.0
H731 H 0.46503 0.60031 0.96093 0.0
H732 H 0.56052 0.62521 0.14793 0.0
H733 H 0.49334 0.67058 0.88197 0.0
H734 H 0.50384 0.60105 1.02058 0.0
H735 H 0.57226 0.64466 0.9533 0.0
C736 C 0.59212 0.63867 1.02951 0.0
C737 C 0.58923 0.63327 0.08501 0.0
C738 C 0.50152 0.61627 0.99013 0.0
C739 C 0.54463 0.63608 1.01804 0.0
C740 C 0.47952 0.61581 0.95605 0.0
C741 C 0.4761 0.6354 0.91657 0.0
C742 C 0.52071 0.63591 0.98341 0.0
C743 C 0.49532 0.65518 0.91209 0.0
C744 C 0.56981 0.64057 0.99609 0.0
C745 C 0.56361 0.62968 0.1055 0.0
N746 N 0.51709 0.65473 0.94462 0.0
N747 N 0.54234 0.63074 0.07191 0.0
H748 H 0.59241 0.54675 0.16794 0.0
H749 H 0.66483 0.45643 0.95444 0.0
H750 H 0.67731 0.54714 0.15607 0.0
H751 H 0.59663 0.42814 0.04123 0.0
H752 H 0.66776 0.49363 1.01792 0.0
H753 H 0.59135 0.5066 0.11262 0.0
C754 C 0.61085 0.53838 0.15375 0.0
C755 C 0.63497 0.55064 0.16567 0.0
C756 C 0.6523 0.47914 1.02321 0.0
C757 C 0.63381 0.50497 0.10163 0.0
C758 C 0.65051 0.45802 0.9869 0.0
C759 C 0.63049 0.43912 0.99266 0.0
C760 C 0.63349 0.4818 0.06468 0.0
C761 C 0.6125 0.44212 1.03558 0.0
C762 C 0.6102 0.51547 0.12224 0.0
C763 C 0.65825 0.53869 0.14673 0.0
N764 N 0.61421 0.46324 0.0695 0.0
N765 N 0.65709 0.51679 0.11479 0.0
H766 H 0.45222 0.35906 0.11481 0.0
H767 H 0.54514 0.43418 0.90814 0.0
H768 H 0.42731 0.42962 1.0315 0.0
H769 H 0.54829 0.34947 0.92087 0.0
H770 H 0.50482 0.43426 0.96268 0.0
H771 H 0.49062 0.35627 0.05387 0.0
C772 C 0.45474 0.37388 0.08362 0.0
C773 C 0.43645 0.39457 0.07819 0.0
C774 C 0.51433 0.41564 0.95358 0.0
C775 C 0.48048 0.39172 1.0092 0.0
C776 C 0.53736 0.41556 0.92247 0.0
C777 C 0.55039 0.39181 0.91071 0.0
C778 C 0.50435 0.39183 0.97399 0.0
C779 C 0.53927 0.36828 0.93018 0.0
C780 C 0.47657 0.3722 0.0488 0.0
C781 C 0.44072 0.4132 0.03696 0.0
N782 N 0.51706 0.36888 0.9615 0.0
N783 N 0.4624 0.41151 1.00458 0.0
H784 H 0.91026 0.47173 0.89836 0.0
H785 H 0.85747 0.53771 0.6312 0.0
H786 H 0.88533 0.42084 0.76826 0.0
H787 H 0.932 0.56155 0.69927 0.0
H788 H 0.85772 0.49872 0.69139 0.0
H789 H 0.90863 0.5094 0.83615 0.0
C790 C 0.90419 0.46852 0.85681 0.0
C791 C 0.89789 0.44311 0.83846 0.0
C792 C 0.87396 0.51255 0.69286 0.0
C793 C 0.89549 0.48625 0.76755 0.0
C794 C 0.87378 0.53475 0.65891 0.0
C795 C 0.89485 0.55266 0.66013 0.0
C796 C 0.89489 0.50888 0.72942 0.0
C797 C 0.91552 0.54804 0.69676 0.0
C798 C 0.90339 0.48999 0.82141 0.0
C799 C 0.8904 0.44009 0.78398 0.0
N800 N 0.91487 0.5268 0.73042 0.0
N801 N 0.88911 0.46149 0.75047 0.0
H802 H 0.54503 0.09284 0.41905 0.0
H803 H 0.45967 0.16567 0.19949 0.0
H804 H 0.54859 0.17754 0.40689 0.0
H805 H 0.4264 0.10215 0.29344 0.0
H806 H 0.49663 0.16803 0.26387 0.0
H807 H 0.50526 0.09317 0.36255 0.0
C808 C 0.53748 0.11152 0.40443 0.0
C809 C 0.55051 0.13518 0.41669 0.0
C810 C 0.4811 0.15373 0.27042 0.0
C811 C 0.50533 0.13556 0.35119 0.0
C812 C 0.46011 0.15227 0.23366 0.0
C813 C 0.43995 0.13366 0.24108 0.0
C814 C 0.48232 0.13595 0.31395 0.0
C815 C 0.44147 0.11684 0.28623 0.0
C816 C 0.51479 0.11166 0.37227 0.0
C817 C 0.53967 0.1588 0.39697 0.0
N818 N 0.46249 0.11811 0.32049 0.0
N819 N 0.51794 0.15839 0.3644 0.0
H820 H 0.1202 0.60874 0.76544 0.0
H821 H 0.14474 0.45326 0.74151 0.0
H822 H 0.14636 0.55937 0.89744 0.0
H823 H 0.12904 0.50196 0.60239 0.0
H824 H 0.14523 0.49225 0.79858 0.0
H825 H 0.12298 0.57061 0.7046 0.0
C826 C 0.12661 0.58997 0.78167 0.0
C827 C 0.13297 0.58735 0.83685 0.0
C828 C 0.14205 0.49462 0.75547 0.0
C829 C 0.13611 0.54354 0.76735 0.0
C830 C 0.1422 0.47225 0.72261 0.0
C831 C 0.13801 0.47444 0.66673 0.0
C832 C 0.13713 0.51951 0.73256 0.0
C833 C 0.13292 0.49955 0.64523 0.0
C834 C 0.12821 0.56819 0.74684 0.0
C835 C 0.14123 0.56247 0.85535 0.0
N836 N 0.13265 0.52116 0.67814 0.0
N837 N 0.14244 0.54162 0.82085 0.0
H838 H 0.57043 0.86215 0.20268 0.0
H839 H 0.48146 0.93501 0.41825 0.0
H840 H 0.59937 0.92955 0.29074 0.0
H841 H 0.47875 0.85037 0.40372 0.0
H842 H 0.52145 0.93547 0.36245 0.0
H843 H 0.53307 0.85932 0.26602 0.0
C844 C 0.56896 0.8763 0.2354 0.0
C845 C 0.58806 0.89609 0.24154 0.0
C846 C 0.51209 0.91681 0.37148 0.0
C847 C 0.54522 0.89321 0.31333 0.0
C848 C 0.48925 0.9165 0.40325 0.0
C849 C 0.4764 0.89264 0.41469 0.0
C850 C 0.52194 0.89314 0.35004 0.0
C851 C 0.48755 0.86926 0.39449 0.0
C852 C 0.54774 0.87458 0.27161 0.0
C853 C 0.58522 0.91386 0.28478 0.0
N854 N 0.50947 0.8701 0.36243 0.0
N855 N 0.56402 0.91223 0.31857 0.0
H856 H 0.93472 0.98359 0.66794 0.0
H857 H 0.86266 0.06932 0.44698 0.0
H858 H 0.85019 0.97857 0.65111 0.0
H859 H 0.92627 0.10172 0.54179 0.0
H860 H 0.85991 0.03213 0.51072 0.0
H861 H 0.93449 0.02344 0.61189 0.0
C862 C 0.91608 0.99082 0.65235 0.0
C863 C 0.89248 0.97734 0.66328 0.0
C864 C 0.87432 0.04751 0.51763 0.0
C865 C 0.89222 0.02275 0.59818 0.0
C866 C 0.876 0.06864 0.48121 0.0
C867 C 0.89476 0.08865 0.489 0.0
C868 C 0.89201 0.04596 0.56128 0.0
C869 C 0.91147 0.0868 0.53426 0.0
C870 C 0.916 1.01358 0.62043 0.0
C871 C 0.86893 0.98782 0.64229 0.0
N872 N 0.90997 0.06566 0.56819 0.0
N873 N 0.86941 1.00967 0.60999 0.0
H874 H 0.06066 0.14519 0.64842 0.0
H875 H 1.00245 0.12752 0.34828 0.0
H876 H 0.10807 0.11658 0.51536 0.0
H877 H 0.95539 0.14253 0.4902 0.0
H878 H 0.04223 0.12669 0.40573 0.0
H879 H 0.0229 0.1483 0.58795 0.0
C880 C 0.06323 0.13964 0.60637 0.0
C881 C 0.0877 0.13052 0.58717 0.0
C882 C 0.0232 0.13053 0.42412 0.0
C883 C 0.04411 0.13402 0.51717 0.0
C884 C 1.00057 0.13108 0.39139 0.0
C885 C 0.97573 0.13616 0.41428 0.0
C886 C 0.02083 0.13486 0.48021 0.0
C887 C 0.97418 0.13993 0.47039 0.0
C888 C 0.04154 0.14137 0.57178 0.0
C889 C 0.08962 0.12367 0.53208 0.0
N890 N 0.99636 0.1393 0.50131 0.0
N891 N 0.06811 0.12553 0.49902 0.0
H892 H 0.09802 0.92574 0.54257 0.0
H893 H 0.17926 0.04769 0.65718 0.0
H894 H 0.16448 0.9572 0.45451 0.0
H895 H 0.09457 0.04313 0.67124 0.0
H896 H 0.17852 1.00862 0.59799 0.0
H897 H 0.10093 0.96284 0.60596 0.0
C898 C 0.11337 0.94033 0.53681 0.0
C899 C 0.13095 0.93846 0.49295 0.0
C900 C 0.16016 0.01624 0.6142 0.0
C901 C 0.1346 0.98066 0.56594 0.0
C902 C 0.16054 0.03853 0.64772 0.0
C903 C 0.13687 0.04911 0.66788 0.0
C904 C 0.13603 1.0039 0.60248 0.0
C905 C 0.11326 0.03585 0.65602 0.0
C906 C 0.11492 0.96151 0.57287 0.0
C907 C 0.15039 0.958 0.48748 0.0
N908 N 0.11344 0.01393 0.62426 0.0
N909 N 0.15181 0.97822 0.52373 0.0
H910 H 0.03661 0.85556 0.38265 0.0
H911 H 0.97094 0.90937 0.64884 0.0
H912 H 0.06147 0.92973 0.45047 0.0
H913 H 0.91971 0.88539 0.51846 0.0
H914 H 1.00866 0.9073 0.58667 0.0
H915 H 0.99731 0.85664 0.44207 0.0
C916 C 0.03378 0.87199 0.41006 0.0
C917 C 0.05209 0.8927 0.4115 0.0
C918 C 0.98915 0.90239 0.57186 0.0
C919 C 1.00798 0.89366 0.47996 0.0
C920 C 0.96766 0.90344 0.60722 0.0
C921 C 0.94215 0.89752 0.58876 0.0
C922 C 0.98532 0.89462 0.51796 0.0
C923 C 0.93904 0.89017 0.53423 0.0
C924 C 1.01141 0.87264 0.4436 0.0
C925 C 0.04765 0.91353 0.44778 0.0
N926 N 0.96046 0.88863 0.50076 0.0
N927 N 0.02625 0.91332 0.48108 0.0
H928 H 0.32207 0.20112 0.10147 0.0
H929 H 0.39687 0.33346 0.19253 0.0
H930 H 0.40249 0.19946 0.15825 0.0
H931 H 0.32124 0.33022 0.11292 0.0
H932 H 0.39969 0.28478 0.18639 0.0
H933 H 0.32201 0.24891 0.10895 0.0
C934 C 0.33988 0.21094 0.11492 0.0
C935 C 0.3623 0.19633 0.12903 0.0
C936 C 0.38247 0.29485 0.1706 0.0
C937 C 0.36235 0.25142 0.13889 0.0
C938 C 0.38077 0.32252 0.1746 0.0
C939 C 0.35875 0.33581 0.15333 0.0
C940 C 0.36191 0.28066 0.14556 0.0
C941 C 0.3386 0.32081 0.12979 0.0
C942 C 0.33984 0.23829 0.1195 0.0
C943 C 0.38484 0.21008 0.14651 0.0
N944 N 0.34068 0.29424 0.12657 0.0
N945 N 0.38425 0.23691 0.15137 0.0
H946 H 0.32792 0.70803 0.87503 0.0
H947 H 0.1973 0.62347 0.93315 0.0
H948 H 0.33108 0.62393 0.89964 0.0
H949 H 0.20165 0.70831 0.9393 0.0
H950 H 0.24527 0.62184 0.91666 0.0
H951 H 0.28046 0.70709 0.89034 0.0
C952 C 0.31853 0.68926 0.88311 0.0
C953 C 0.33353 0.66606 0.88631 0.0
C954 C 0.23569 0.64077 0.92201 0.0
C955 C 0.27885 0.66482 0.90474 0.0
C956 C 0.20837 0.6417 0.93174 0.0
C957 C 0.19544 0.66609 0.93745 0.0
C958 C 0.25005 0.66439 0.91761 0.0
C959 C 0.21072 0.68908 0.93495 0.0
C960 C 0.29139 0.68875 0.89226 0.0
C961 C 0.32023 0.64228 0.89673 0.0
N962 N 0.23705 0.68766 0.92489 0.0
N963 N 0.29362 0.64227 0.90587 0.0
H964 H 0.62394 0.8306 0.15169 0.0
H965 H 0.71004 0.69777 0.1517 0.0
H966 H 0.7082 0.82644 0.1283 0.0
H967 H 0.62616 0.69654 0.18023 0.0
H968 H 0.70887 0.74556 0.14842 0.0
H969 H 0.62305 0.78232 0.16363 0.0
C970 C 0.64217 0.81952 0.14846 0.0
C971 C 0.66622 0.83253 0.13893 0.0
C972 C 0.69063 0.73509 0.15597 0.0
C973 C 0.66539 0.7776 0.15337 0.0
C974 C 0.69136 0.70772 0.15829 0.0
C975 C 0.66821 0.69324 0.16659 0.0
C976 C 0.66643 0.7484 0.16097 0.0
C977 C 0.6445 0.70709 0.17449 0.0
C978 C 0.64168 0.79203 0.15574 0.0
C979 C 0.68924 0.81728 0.1356 0.0
N980 N 0.64413 0.73401 0.17085 0.0
N981 N 0.68824 0.79079 0.14291 0.0
H982 H 0.82724 0.32269 0.96257 0.0
H983 H 0.6959 0.40461 0.89558 0.0
H984 H 0.83008 0.40572 0.92557 0.0
H985 H 0.70194 0.31979 0.89334 0.0
H986 H 0.74375 0.40715 0.91287 0.0
H987 H 0.77973 0.32317 0.94805 0.0
C988 C 0.81776 0.34115 0.95202 0.0
C989 C 0.83267 0.36414 0.94495 0.0
C990 C 0.73456 0.38804 0.90822 0.0
C991 C 0.778 0.36482 0.92733 0.0
C992 C 0.70732 0.38657 0.89806 0.0
C993 C 0.69492 0.36193 0.89319 0.0
C994 C 0.74931 0.36469 0.91401 0.0
C995 C 0.7106 0.3392 0.89701 0.0
C996 C 0.79061 0.34139 0.94329 0.0
C997 C 0.81928 0.38755 0.93149 0.0
N998 N 0.73682 0.34114 0.90755 0.0
N999 N 0.79266 0.38727 0.92274 0.0
H1000 H 0.90748 0.69692 0.63914 0.0
H1001 H 0.82167 0.82618 0.70272 0.0
H1002 H 0.82263 0.70157 0.62863 0.0
H1003 H 0.90565 0.83061 0.67583 0.0
H1004 H 0.82324 0.77899 0.68518 0.0
H1005 H 0.90878 0.74466 0.65778 0.0
C1006 C 0.8892 0.70802 0.63997 0.0
C1007 C 0.86488 0.69522 0.6325 0.0
C1008 C 0.84142 0.79014 0.68326 0.0
C1009 C 0.8662 0.74951 0.65491 0.0
C1010 C 0.84055 0.81712 0.69371 0.0
C1011 C 0.86352 0.83241 0.69046 0.0
C1012 C 0.86548 0.77806 0.66944 0.0
C1013 C 0.88746 0.81953 0.67881 0.0
C1014 C 0.88995 0.7352 0.65096 0.0
C1015 C 0.84181 0.71053 0.63436 0.0
N1016 N 0.88783 0.79307 0.66842 0.0
N1017 N 0.84304 0.73668 0.64576 0.0
H1018 H 0.82595 0.20802 0.36662 0.0
H1019 H 0.69624 0.12336 0.43003 0.0
H1020 H 0.83 0.12436 0.3967 0.0
H1021 H 0.70076 0.20817 0.43825 0.0
H1022 H 0.74407 0.12179 0.41201 0.0
H1023 H 0.77853 0.20683 0.38258 0.0
C1024 C 0.81675 0.18929 0.37595 0.0
C1025 C 0.83196 0.1663 0.38065 0.0
C1026 C 0.73455 0.14068 0.41816 0.0
C1027 C 0.77746 0.1648 0.39987 0.0
C1028 C 0.70734 0.14158 0.42876 0.0
C1029 C 0.69451 0.16596 0.43543 0.0
C1030 C 0.74886 0.16432 0.41378 0.0
C1031 C 0.70978 0.18896 0.43312 0.0
C1032 C 0.78967 0.18865 0.38551 0.0
C1033 C 0.81896 0.14255 0.39265 0.0
N1034 N 0.73599 0.18757 0.42211 0.0
N1035 N 0.79241 0.14241 0.40219 0.0
H1036 H 0.12351 0.32963 0.64284 0.0
H1037 H 0.20939 0.19903 0.68994 0.0
H1038 H 0.20766 0.32396 0.61883 0.0
H1039 H 0.12469 0.19566 0.67428 0.0
H1040 H 0.20786 0.24625 0.67289 0.0
H1041 H 0.12211 0.28169 0.65901 0.0
C1042 C 0.14159 0.31826 0.64009 0.0
C1043 C 0.16578 0.3308 0.62972 0.0
C1044 C 0.18952 0.23532 0.67326 0.0
C1045 C 0.1644 0.27632 0.6493 0.0
C1046 C 0.19038 0.20833 0.68341 0.0
C1047 C 0.16717 0.19336 0.68322 0.0
C1048 C 0.16523 0.24771 0.6629 0.0
C1049 C 0.14307 0.20652 0.67479 0.0
C1050 C 0.1408 0.29098 0.64969 0.0
C1051 C 0.18861 0.31518 0.62697 0.0
N1052 N 0.1427 0.233 0.66472 0.0
N1053 N 0.18737 0.28892 0.63716 0.0
H1054 H 0.32733 0.81801 0.45251 0.0
H1055 H 0.19602 0.90245 0.39688 0.0
H1056 H 0.3295 0.90214 0.4279 0.0
H1057 H 0.20002 0.81752 0.3974 0.0
H1058 H 0.24404 0.90401 0.41205 0.0
H1059 H 0.27968 0.81877 0.43985 0.0
C1060 C 0.31769 0.83674 0.44498 0.0
C1061 C 0.33243 0.86001 0.44098 0.0
C1062 C 0.23438 0.88507 0.40855 0.0
C1063 C 0.27759 0.86105 0.4256 0.0
C1064 C 0.20703 0.88417 0.3996 0.0
C1065 C 0.19401 0.8598 0.396 0.0
C1066 C 0.24868 0.86142 0.41421 0.0
C1067 C 0.20919 0.83674 0.40007 0.0
C1068 C 0.29044 0.83715 0.43738 0.0
C1069 C 0.31884 0.88373 0.43134 0.0
N1070 N 0.23557 0.83813 0.40921 0.0
N1071 N 0.29216 0.88365 0.42364 0.0
H1072 H 0.18864 0.11287 0.8763 0.0
H1073 H 0.34213 0.11234 0.94746 0.0
H1074 H 0.24887 0.10224 0.75467 0.0
H1075 H 0.28124 0.10563 0.06888 0.0
H1076 H 0.30873 0.10923 0.87683 0.0
H1077 H 0.22216 0.11079 0.94652 0.0
C1078 C 0.20892 0.10992 0.86412 0.0
C1079 C 0.21574 0.10771 0.80897 0.0
C1080 C 0.30262 0.10824 0.91884 0.0
C1081 C 0.25478 0.10565 0.8904 0.0
C1082 C 0.32175 0.11003 0.95951 0.0
C1083 C 0.31468 0.10923 1.01471 0.0
C1084 C 0.2759 0.10596 0.93294 0.0
C1085 C 0.28777 0.10629 1.02714 0.0
C1086 C 0.22815 0.10872 0.9046 0.0
C1087 C 0.24256 0.10396 0.79641 0.0
N1088 N 0.26941 0.10497 0.98669 0.0
N1089 N 0.26108 0.10328 0.83671 0.0
H1090 H 0.1071 0.6862 0.12796 0.0
H1091 H 0.1185 0.83909 0.20037 0.0
H1092 H 0.10881 0.74742 1.00672 0.0
H1093 H 0.09924 0.78022 0.32012 0.0
H1094 H 0.11583 0.80576 0.12989 0.0
H1095 H 0.10503 0.7198 0.19865 0.0
C1096 C 0.107 0.70674 0.11605 0.0
C1097 C 0.10837 0.71389 0.06097 0.0
C1098 C 0.11201 0.80006 0.17144 0.0
C1099 C 0.10597 0.75275 0.14254 0.0
C1100 C 0.11352 0.81917 0.21206 0.0
C1101 C 0.10901 0.81267 0.26676 0.0
C1102 C 0.10629 0.77384 0.1851 0.0
C1103 C 0.10281 0.78629 0.27872 0.0
C1104 C 0.10569 0.72595 0.15665 0.0
C1105 C 0.10776 0.74089 0.04842 0.0
N1106 N 0.10183 0.76785 0.23835 0.0
N1107 N 0.10686 0.75929 0.08881 0.0
H1108 H 0.68687 0.91727 0.94908 0.0
H1109 H 0.84116 0.91975 0.87759 0.0
H1110 H 0.74788 0.92176 0.07041 0.0
H1111 H 0.78019 0.91974 0.7558 0.0
H1112 H 0.80746 0.92162 0.94797 0.0
H1113 H 0.72043 0.91927 0.87837 0.0
C1114 C 0.70736 0.91865 0.96105 0.0
C1115 C 0.71442 0.91904 1.01624 0.0
C1116 C 0.80134 0.92131 0.90595 0.0
C1117 C 0.75336 0.92155 0.93441 0.0
C1118 C 0.82065 0.92012 0.86545 0.0
C1119 C 0.81366 0.91928 0.81026 0.0
C1120 C 0.77453 0.92163 0.89173 0.0
C1121 C 0.78663 0.92034 0.79758 0.0
C1122 C 0.72658 0.91992 0.92036 0.0
C1123 C 0.74138 0.92138 1.02866 0.0
N1124 N 0.76811 0.92128 0.83791 0.0
N1125 N 0.75981 0.92237 0.98819 0.0
H1126 H 0.92119 0.34198 0.12717 0.0
H1127 H 0.91127 0.18829 0.19666 0.0
H1128 H 0.91845 0.28139 1.00484 0.0
H1129 H 0.92543 0.2476 0.31831 0.0
H1130 H 0.91395 0.22193 0.12667 0.0
H1131 H 0.9228 0.30805 0.1972 0.0
C1132 C 0.92095 0.32151 0.11486 0.0
C1133 C 0.91944 0.31466 0.05965 0.0
C1134 C 0.91665 0.22767 0.16856 0.0
C1135 C 0.92136 0.27535 0.14056 0.0
C1136 C 0.91517 0.20836 0.20891 0.0
C1137 C 0.91825 0.21488 0.26401 0.0
C1138 C 0.92097 0.25407 0.18285 0.0
C1139 C 0.923 0.24148 0.27662 0.0
C1140 C 0.92199 0.30209 0.15511 0.0
C1141 C 0.91962 0.2877 0.04665 0.0
N1142 N 0.92406 0.26006 0.23649 0.0
N1143 N 0.92035 0.2691 0.08672 0.0
H1144 H 0.2768 0.41869 0.24523 0.0
H1145 H 0.24783 0.42588 0.56645 0.0
H1146 H 0.33789 0.42426 0.36629 0.0
H1147 H 0.18841 0.40937 0.44612 0.0
H1148 H 0.28076 0.42923 0.49351 0.0
H1149 H 0.24358 0.41977 0.3179 0.0
C1150 C 0.28325 0.42038 0.2869 0.0
C1151 C 0.31027 0.42109 0.29942 0.0
C1152 C 0.26044 0.42504 0.48315 0.0
C1153 C 0.27231 0.42224 0.38313 0.0
C1154 C 0.2416 0.42314 0.52488 0.0
C1155 C 0.21512 0.41743 0.51282 0.0
C1156 C 0.25278 0.42133 0.42876 0.0
C1157 C 0.20841 0.41399 0.45784 0.0
C1158 C 0.26428 0.42085 0.3285 0.0
C1159 C 0.31736 0.4232 0.35447 0.0
N1160 N 0.22698 0.41599 0.41819 0.0
N1161 N 0.29861 0.42363 0.39404 0.0
H1162 H 0.42243 0.74717 0.82211 0.0
H1163 H 0.42201 0.77933 0.50202 0.0
H1164 H 0.41836 0.68755 0.6979 0.0
H1165 H 0.41816 0.83886 0.6265 0.0
H1166 H 0.42444 0.74538 0.57299 0.0
H1167 H 0.42461 0.78105 0.75104 0.0
C1168 C 0.42216 0.74115 0.78003 0.0
C1169 C 0.41993 0.71439 0.76624 0.0
C1170 C 0.42314 0.76591 0.58473 0.0
C1171 C 0.42242 0.75314 0.68433 0.0
C1172 C 0.42186 0.78531 0.54413 0.0
C1173 C 0.41962 0.81207 0.55804 0.0
C1174 C 0.42236 0.77325 0.6398 0.0
C1175 C 0.41947 0.81853 0.61355 0.0
C1176 C 0.42331 0.76052 0.73936 0.0
C1177 C 0.41964 0.70789 0.71075 0.0
N1178 N 0.42075 0.79937 0.65214 0.0
N1179 N 0.4208 0.72702 0.67208 0.0
H1180 H 0.75084 0.60539 0.24473 0.0
H1181 H 0.78302 0.60678 0.56498 0.0
H1182 H 0.69147 0.61081 0.36979 0.0
H1183 H 0.84293 0.61042 0.44098 0.0
H1184 H 0.74923 0.60452 0.49381 0.0
H1185 H 0.78495 0.60361 0.31561 0.0
C1186 C 0.74491 0.60601 0.28687 0.0
C1187 C 0.71811 0.60837 0.30087 0.0
C1188 C 0.7698 0.60575 0.48217 0.0
C1189 C 0.75713 0.60635 0.38254 0.0
C1190 C 0.78913 0.60695 0.52292 0.0
C1191 C 0.81596 0.60907 0.50925 0.0
C1192 C 0.77726 0.60647 0.42713 0.0
C1193 C 0.82255 0.60923 0.45375 0.0
C1194 C 0.76441 0.60509 0.32742 0.0
C1195 C 0.71177 0.60917 0.35653 0.0
N1196 N 0.80345 0.608 0.41498 0.0
N1197 N 0.73101 0.6082 0.39496 0.0
H1198 H 0.60914 0.18652 0.62744 0.0
H1199 H 0.60965 0.34037 0.70068 0.0
H1200 H 0.60624 0.24786 0.50659 0.0
H1201 H 0.60658 0.27907 0.8216 0.0
H1202 H 0.60756 0.30703 0.62975 0.0
H1203 H 0.60733 0.21987 0.69841 0.0
C1204 C 0.60814 0.20704 0.61563 0.0
C1205 C 0.60815 0.21426 0.56052 0.0
C1206 C 0.60724 0.30077 0.6717 0.0
C1207 C 0.60588 0.25296 0.64264 0.0
C1208 C 0.60857 0.31986 0.71251 0.0
C1209 C 0.60861 0.31265 0.76763 0.0
C1210 C 0.60599 0.27396 0.68555 0.0
C1211 C 0.60663 0.28567 0.77989 0.0
C1212 C 0.60698 0.22614 0.65647 0.0
C1213 C 0.6063 0.24126 0.54829 0.0
N1214 N 0.60559 0.26736 0.73929 0.0
N1215 N 0.60543 0.25957 0.58891 0.0
H1216 H 0.32215 0.10586 0.51961 0.0
H1217 H 0.43459 0.13144 0.74171 0.0
H1218 H 0.40468 0.11497 0.48023 0.0
H1219 H 0.35406 0.11226 0.78258 0.0
H1220 H 0.42368 0.1268 0.64572 0.0
H1221 H 0.33321 0.10879 0.61572 0.0
C1222 C 0.34264 0.10822 0.53099 0.0
C1223 C 0.36247 0.11016 0.49125 0.0
C1224 C 0.40839 0.12354 0.67565 0.0
C1225 C 0.37524 0.11404 0.60193 0.0
C1226 C 0.41457 0.12635 0.73055 0.0
C1227 C 0.39523 0.12229 0.77053 0.0
C1228 C 0.38259 0.11675 0.6602 0.0
C1229 C 0.36971 0.11532 0.75338 0.0
C1230 C 0.34891 0.11008 0.58605 0.0
C1231 C 0.3886 0.11377 0.509 0.0
N1232 N 0.36413 0.11289 0.69964 0.0
N1233 N 0.39417 0.11565 0.56281 0.0
H1234 H 0.09974 0.70626 0.55587 0.0
H1235 H 0.13833 0.5965 0.33561 0.0
H1236 H 0.12334 0.62697 0.59729 0.0
H1237 H 0.11357 0.67543 0.29409 0.0
H1238 H 0.13277 0.60723 0.4314 0.0
H1239 H 0.10486 0.69539 0.46002 0.0
C1240 C 0.10611 0.68658 0.54493 0.0
C1241 C 0.11117 0.66755 0.58505 0.0
C1242 C 0.12855 0.62222 0.40137 0.0
C1243 C 0.11684 0.65486 0.47477 0.0
C1244 C 0.13158 0.61606 0.3465 0.0
C1245 C 0.12638 0.63504 0.30635 0.0
C1246 C 0.12024 0.6476 0.41661 0.0
C1247 C 0.11815 0.66021 0.32337 0.0
C1248 C 0.10889 0.68035 0.49004 0.0
C1249 C 0.11891 0.64224 0.56801 0.0
N1250 N 0.11533 0.66572 0.37705 0.0
N1251 N 0.12156 0.63668 0.51431 0.0
H1252 H 0.6268 0.90242 0.47872 0.0
H1253 H 0.67744 0.91293 0.78586 0.0
H1254 H 0.70549 0.92682 0.52273 0.0
H1255 H 0.59827 0.89014 0.74184 0.0
H1256 H 0.68817 0.9178 0.68981 0.0
H1257 H 0.61593 0.89814 0.57477 0.0
C1258 C 0.64177 0.90708 0.50849 0.0
C1259 C 0.66714 0.91502 0.49228 0.0
C1260 C 0.66844 0.91175 0.70114 0.0
C1261 C 0.65485 0.90977 0.60284 0.0
C1262 C 0.66232 0.90879 0.75607 0.0
C1263 C 0.63688 0.90106 0.77224 0.0
C1264 C 0.64902 0.90692 0.66176 0.0
C1265 C 0.61804 0.89645 0.73154 0.0
C1266 C 0.63558 0.90445 0.56344 0.0
C1267 C 0.68579 0.92029 0.53302 0.0
N1268 N 0.62449 0.89941 0.67835 0.0
N1269 N 0.67928 0.91758 0.58624 0.0
H1270 H 0.91436 0.35231 0.29151 0.0
H1271 H 0.89553 0.40072 0.59836 0.0
H1272 H 0.88633 0.42981 0.33548 0.0
H1273 H 0.92646 0.32422 0.55495 0.0
H1274 H 0.89165 0.41152 0.50228 0.0
H1275 H 0.91795 0.34124 0.38765 0.0
C1276 C 0.90879 0.36696 0.32132 0.0
C1277 C 0.90003 0.39206 0.3052 0.0
C1278 C 0.89929 0.39236 0.51374 0.0
C1279 C 0.90438 0.37958 0.41562 0.0
C1280 C 0.90168 0.38622 0.5687 0.0
C1281 C 0.9114 0.36151 0.58502 0.0
C1282 C 0.90665 0.37368 0.4745 0.0
C1283 C 0.91856 0.34339 0.54447 0.0
C1284 C 0.91101 0.36067 0.37627 0.0
C1285 C 0.89351 0.41035 0.34585 0.0
N1286 N 0.91606 0.34984 0.49121 0.0
N1287 N 0.89579 0.40374 0.39904 0.0
H1288 H 0.34482 0.4164 0.53196 0.0
H1289 H 0.39265 0.40147 0.84046 0.0
H1290 H 0.4183 0.38001 0.57963 0.0
H1291 H 0.3192 0.43867 0.79535 0.0
H1292 H 0.40168 0.39278 0.74506 0.0
H1293 H 0.33424 0.42354 0.62767 0.0
C1294 C 0.35868 0.40972 0.56242 0.0
C1295 C 0.38259 0.39763 0.54731 0.0
C1296 C 0.38356 0.40283 0.7559 0.0
C1297 C 0.37064 0.40607 0.65741 0.0
C1298 C 0.37844 0.40797 0.81054 0.0
C1299 C 0.35518 0.42105 0.82634 0.0
C1300 C 0.36534 0.41077 0.71619 0.0
C1301 C 0.3373 0.42838 0.78539 0.0
C1302 C 0.35267 0.41397 0.61716 0.0
C1303 C 0.39985 0.38978 0.58895 0.0
N1304 N 0.34279 0.42324 0.73233 0.0
N1305 N 0.39356 0.39415 0.64181 0.0
H1306 H 0.43039 0.70496 0.27019 0.0
H1307 H 0.3874 0.59708 0.49065 0.0
H1308 H 0.39897 0.62852 0.22891 0.0
H1309 H 0.41415 0.67524 0.53202 0.0
H1310 H 0.39236 0.60795 0.39475 0.0
H1311 H 0.42509 0.69429 0.36607 0.0
C1312 C 0.42224 0.68597 0.28114 0.0
C1313 C 0.41509 0.66766 0.24104 0.0
C1314 C 0.39711 0.62275 0.42476 0.0
C1315 C 0.40927 0.65515 0.35135 0.0
C1316 C 0.39442 0.61651 0.47965 0.0
C1317 C 0.40041 0.63523 0.51973 0.0
C1318 C 0.40595 0.64792 0.40949 0.0
C1319 C 0.409 0.66024 0.50272 0.0
C1320 C 0.41935 0.67984 0.33605 0.0
C1321 C 0.40511 0.64317 0.25812 0.0
N1322 N 0.41158 0.66581 0.44901 0.0
N1323 N 0.40249 0.63767 0.31184 0.0
H1324 H 0.71633 0.62302 0.80731 0.0
H1325 H 0.60345 0.63142 0.5817 0.0
H1326 H 0.63593 0.59842 0.83411 0.0
H1327 H 0.68636 0.62996 0.54079 0.0
H1328 H 0.61494 0.62501 0.67658 0.0
H1329 H 0.70559 0.63148 0.71172 0.0
C1330 C 0.69642 0.6195 0.79311 0.0
C1331 C 0.67703 0.60984 0.8286 0.0
C1332 C 0.63063 0.6261 0.64683 0.0
C1333 C 0.6646 0.61964 0.71973 0.0
C1334 C 0.62409 0.62961 0.5924 0.0
C1335 C 0.6439 0.63095 0.55257 0.0
C1336 C 0.65723 0.6242 0.66217 0.0
C1337 C 0.67035 0.62929 0.56978 0.0
C1338 C 0.69035 0.62421 0.7386 0.0
C1339 C 0.65157 0.60552 0.80803 0.0
N1340 N 0.67623 0.62598 0.62322 0.0
N1341 N 0.64609 0.61053 0.75513 0.0
H1342 H 0.61445 0.34954 0.5373 0.0
H1343 H 0.62589 0.39985 0.22995 0.0
H1344 H 0.63824 0.42831 0.4929 0.0
H1345 H 0.6003 0.32162 0.27423 0.0
H1346 H 0.63032 0.41065 0.32594 0.0
H1347 H 0.60957 0.33881 0.4413 0.0
C1348 C 0.61881 0.36457 0.50744 0.0
C1349 C 0.62682 0.3899 0.52349 0.0
C1350 C 0.62372 0.39112 0.31469 0.0
C1351 C 0.62096 0.37777 0.41306 0.0
C1352 C 0.621 0.38497 0.25976 0.0
C1353 C 0.61267 0.35975 0.24364 0.0
C1354 C 0.61808 0.37195 0.35415 0.0
C1355 C 0.60712 0.3412 0.28445 0.0
C1356 C 0.61585 0.35846 0.45253 0.0
C1357 C 0.63171 0.40863 0.4827 0.0
N1358 N 0.60992 0.34767 0.33765 0.0
N1359 N 0.62874 0.40218 0.42954 0.0
H1360 H 0.82522 0.5986 1.0137 0.0
H1361 H 0.93326 0.64146 0.23376 0.0
H1362 H 0.9017 0.63011 0.97218 0.0
H1363 H 0.85498 0.61483 0.2755 0.0
H1364 H 0.92232 0.6366 0.13791 0.0
H1365 H 0.83587 0.60393 0.10956 0.0
C1366 C 0.84421 0.60678 1.02459 0.0
C1367 C 0.86255 0.61394 0.98443 0.0
C1368 C 0.9075 0.63185 0.16799 0.0
C1369 C 0.87503 0.61979 0.09471 0.0
C1370 C 0.91379 0.63449 0.22285 0.0
C1371 C 0.89506 0.62849 0.26302 0.0
C1372 C 0.88228 0.62307 0.15283 0.0
C1373 C 0.86999 0.61997 0.24612 0.0
C1374 C 0.85033 0.60969 0.07949 0.0
C1375 C 0.88703 0.62397 1.00144 0.0
N1376 N 0.86438 0.61745 0.19244 0.0
N1377 N 0.89253 0.62659 0.05514 0.0
H1378 H 0.61418 0.17737 0.79072 0.0
H1379 H 0.6255 0.12699 0.09806 0.0
H1380 H 0.63813 0.09855 0.83503 0.0
H1381 H 0.60014 0.20539 0.05381 0.0
H1382 H 0.62994 0.11616 1.00205 0.0
H1383 H 0.60926 0.18809 0.88674 0.0
C1384 C 0.61856 0.16233 0.82057 0.0
C1385 C 0.62663 0.13698 0.80448 0.0
C1386 C 0.62339 0.13574 1.01331 0.0
C1387 C 0.62072 0.14912 0.91494 0.0
C1388 C 0.62067 0.14191 0.06825 0.0
C1389 C 0.6124 0.16718 0.08438 0.0
C1390 C 0.61782 0.15494 0.97385 0.0
C1391 C 0.60692 0.18577 0.04358 0.0
C1392 C 0.61558 0.16844 0.87548 0.0
C1393 C 0.63155 0.11824 0.84526 0.0
N1394 N 0.60972 0.17928 0.99037 0.0
N1395 N 0.62856 0.12469 0.89843 0.0
H1396 H 0.09454 0.40157 0.24039 0.0
H1397 H 0.20852 0.41779 1.01748 0.0
H1398 H 0.17657 0.4129 0.2808 0.0
H1399 H 0.12538 0.4179 0.97916 0.0
H1400 H 0.1974 0.41529 0.11368 0.0
H1401 H 0.10567 0.40611 0.14442 0.0
C1402 C 0.11493 0.40491 0.22912 0.0
C1403 C 0.13463 0.40679 0.26894 0.0
C1404 C 0.18159 0.41595 0.08423 0.0
C1405 C 0.14755 0.41217 0.15867 0.0
C1406 C 0.18791 0.41756 1.02912 0.0
C1407 C 0.1679 0.41806 0.98965 0.0
C1408 C 0.15502 0.41468 0.10039 0.0
C1409 C 0.14156 0.41715 1.00771 0.0
C1410 C 0.12125 0.40767 0.17424 0.0
C1411 C 0.16066 0.41155 0.25171 0.0
N1412 N 0.13593 0.41543 0.06154 0.0
N1413 N 0.16635 0.41396 0.19798 0.0
H1414 H 0.4014 0.90003 0.09785 0.0
H1415 H 0.41362 0.84977 0.79086 0.0
H1416 H 0.42689 0.82166 0.05383 0.0
H1417 H 0.38794 0.92806 0.83506 0.0
H1418 H 0.41851 0.83908 0.88686 0.0
H1419 H 0.39693 0.91082 1.00182 0.0
C1420 C 0.40625 0.88512 0.06805 0.0
C1421 C 0.41456 0.85987 0.08417 0.0
C1422 C 0.41182 0.8586 0.87558 0.0
C1423 C 0.40913 0.87204 0.97379 0.0
C1424 C 0.40885 0.86469 0.82069 0.0
C1425 C 0.40032 0.88988 0.80463 0.0
C1426 C 0.40621 0.87781 0.91496 0.0
C1427 C 0.39489 0.9085 0.84533 0.0
C1428 C 0.40352 0.89126 1.01314 0.0
C1429 C 0.4201 0.84127 0.0435 0.0
N1430 N 0.39791 0.90209 0.89848 0.0
N1431 N 0.4173 0.84772 0.99032 0.0
H1432 H 0.88388 0.94809 0.33177 0.0
H1433 H 0.86897 0.86331 0.05943 0.0
H1434 H 0.83838 0.87644 0.32151 0.0
H1435 H 0.91132 0.93694 0.06828 0.0
H1436 H 0.85766 0.86766 0.15529 0.0
H1437 H 0.89468 0.94395 0.23563 0.0
C1438 C 0.87626 0.9314 0.30941 0.0
C1439 C 0.8602 0.91258 0.33494 0.0
C1440 C 0.86943 0.88287 0.13626 0.0
C1441 C 0.87233 0.90782 0.22442 0.0
C1442 C 0.87578 0.88048 0.08136 0.0
C1443 C 0.89119 0.89976 0.05552 0.0
C1444 C 0.87851 0.90471 0.1658 0.0
C1445 C 0.89976 0.92135 0.0865 0.0
C1446 C 0.88231 0.92913 0.25437 0.0
C1447 C 0.85056 0.8916 0.30351 0.0
N1448 N 0.89332 0.92323 0.13986 0.0
N1449 N 0.85681 0.88977 0.25003 0.0
H1450 H 0.91426 0.17708 1.03311 0.0
H1451 H 0.91878 0.12325 0.72767 0.0
H1452 H 0.90193 0.0956 0.99013 0.0
H1453 H 0.91962 0.206 0.76848 0.0
H1454 H 0.91546 0.11258 0.82392 0.0
H1455 H 0.9194 0.18779 0.93696 0.0
C1456 C 0.9128 0.16139 1.00351 0.0
C1457 C 0.90762 0.13537 1.0199 0.0
C1458 C 0.91641 0.13308 0.81184 0.0
C1459 C 0.91338 0.14756 0.90943 0.0
C1460 C 0.91819 0.13923 0.75673 0.0
C1461 C 0.91938 0.16563 0.7395 0.0
C1462 C 0.91589 0.15342 0.85044 0.0
C1463 C 0.91909 0.18537 0.77954 0.0
C1464 C 0.91559 0.16756 0.94854 0.0
C1465 C 0.90558 0.11597 0.97949 0.0
N1466 N 0.91733 0.17886 0.83295 0.0
N1467 N 0.90851 0.12244 0.9263 0.0
H1468 H 0.17834 0.11408 0.04062 0.0
H1469 H 0.12611 0.12128 0.34711 0.0
H1470 H 0.09869 0.13579 0.084 0.0
H1471 H 0.20737 0.10612 0.30428 0.0
H1472 H 0.11552 0.12583 0.25103 0.0
H1473 H 0.18903 0.10974 0.13682 0.0
C1474 C 0.16304 0.1178 0.07033 0.0
C1475 C 0.13754 0.12529 0.05402 0.0
C1476 C 0.13568 0.12152 0.26263 0.0
C1477 C 0.14974 0.12055 0.16457 0.0
C1478 C 0.1418 0.11906 0.31762 0.0
C1479 C 0.16773 0.11332 0.33415 0.0
C1480 C 0.15557 0.11817 0.22353 0.0
C1481 C 0.18705 0.11018 0.29369 0.0
C1482 C 0.16921 0.11547 0.12533 0.0
C1483 C 0.11868 0.13027 0.09455 0.0
N1484 N 0.18058 0.11265 0.24042 0.0
N1485 N 0.12513 0.12775 0.14781 0.0
H1486 H 0.15424 0.8613 0.74058 0.0
H1487 H 0.08248 0.89347 1.02296 0.0
H1488 H 0.06963 0.86255 0.76066 0.0
H1489 H 0.16697 0.88651 1.00514 0.0
H1490 H 0.07739 0.88283 0.92701 0.0
H1491 H 0.15925 0.87168 0.8367 0.0
C1492 C 0.13668 0.86391 0.76504 0.0
C1493 C 0.11144 0.86106 0.74213 0.0
C1494 C 0.09705 0.88362 0.94408 0.0
C1495 C 0.1171 0.87277 0.85295 0.0
C1496 C 0.09999 0.88955 0.99911 0.0
C1497 C 0.12523 0.89092 1.02266 0.0
C1498 C 0.11947 0.87902 0.91188 0.0
C1499 C 0.14713 0.8861 0.98897 0.0
C1500 C 0.13957 0.86968 0.82014 0.0
C1501 C 0.08948 0.86425 0.77642 0.0
N1502 N 0.14374 0.88039 0.93551 0.0
N1503 N 0.09281 0.86997 0.8299 0.0
loop_
_geom_bond_atom_site_label_1
_geom_bond_atom_site_label_2
_geom_bond_distance
_geom_bond_site_symmetry_2
_ccdc_geom_bond_type
La0 C2 2.928 . S
La0 O20 2.521 . S
La0 O21 2.628 . S
La0 O22 2.554 . S
La0 O23 2.757 . S
La0 O24 2.470 . S
La0 O29 2.482 . S
La0 O31 2.503 . S
La1 C11 2.928 1_554 S
La1 O23 2.482 . S
La1 O25 2.503 . S
La1 O26 2.521 1_554 S
La1 O27 2.628 1_554 S
La1 O28 2.554 . S
La1 O29 2.757 . S
La1 O30 2.470 . S
C2 La0 2.928 . S
C2 C3 1.503 . S
C2 O20 1.261 . S
C2 O21 1.243 . S
C3 C2 1.503 . S
C3 C4 1.394 . S
C3 C8 1.373 . S
C4 C3 1.394 . S
C4 C5 1.380 . S
C4 H32 0.930 . S
C5 C4 1.380 . S
C5 C6 1.376 . S
C5 H33 0.930 . S
C6 C5 1.376 . S
C6 C7 1.370 . S
C7 C6 1.370 . S
C7 C8 1.396 . S
C7 H34 0.929 . S
C8 C3 1.373 . S
C8 C7 1.396 . S
C8 H35 0.929 . S
C9 O22 1.240 . S
C9 O23 1.289 . S
C10 O24 1.258 . S
C10 O25 1.256 . S
C11 La1 2.928 1_556 S
C11 C12 1.503 . S
C11 O26 1.261 . S
C11 O27 1.243 . S
C12 C11 1.503 . S
C12 C13 1.394 . S
C12 C17 1.373 . S
C13 C12 1.394 . S
C13 C14 1.380 . S
C13 H36 0.930 . S
C14 C13 1.380 . S
C14 C15 1.376 . S
C14 H37 0.930 . S
C15 C14 1.376 . S
C15 C16 1.370 . S
C16 C15 1.370 . S
C16 C17 1.396 . S
C16 H38 0.929 . S
C17 C12 1.373 . S
C17 C16 1.396 . S
C17 H39 0.929 . S
C18 O28 1.240 . S
C18 O29 1.289 . S
C19 O30 1.258 . S
C19 O31 1.256 . S
O20 La0 2.521 . S
O20 C2 1.261 . S
O21 La0 2.628 . S
O21 C2 1.243 . S
O22 La0 2.554 . S
O22 C9 1.240 . S
O23 La0 2.757 . S
O23 La1 2.482 . S
O23 C9 1.289 . S
O24 La0 2.470 . S
O24 C10 1.258 . S
O25 La1 2.503 . S
O25 C10 1.256 . S
O26 La1 2.521 1_556 S
O26 C11 1.261 . S
O27 La1 2.628 1_556 S
O27 C11 1.243 . S
O28 La1 2.554 . S
O28 C18 1.240 . S
O29 La0 2.482 . S
O29 La1 2.757 . S
O29 C18 1.289 . S
O30 La1 2.470 . S
O30 C19 1.258 . S
O31 La0 2.503 . S
O31 C19 1.256 . S
H32 C4 0.930 . S
H33 C5 0.930 . S
H34 C7 0.929 . S
H35 C8 0.929 . S
H36 C13 0.930 . S
H37 C14 0.930 . S
H38 C16 0.929 . S
H39 C17 0.929 . S
La40 C42 2.928 1_556 S
La40 O60 2.521 1_556 S
La40 O61 2.628 1_556 S
La40 O62 2.554 . S
La40 O63 2.757 . S
La40 O64 2.470 . S
La40 O69 2.482 . S
La40 O71 2.503 . S
La41 C51 2.928 . S
La41 O63 2.482 . S
La41 O65 2.503 . S
La41 O66 2.521 . S
La41 O67 2.628 . S
La41 O68 2.554 . S
La41 O69 2.757 . S
La41 O70 2.470 . S
C42 La40 2.928 1_554 S
C42 C43 1.503 . S
C42 O60 1.261 . S
C42 O61 1.243 . S
C43 C42 1.503 . S
C43 C44 1.394 . S
C43 C48 1.373 . S
C44 C43 1.394 . S
C44 C45 1.380 . S
C44 H72 0.930 . S
C45 C44 1.380 . S
C45 C46 1.376 . S
C45 H73 0.930 . S
C46 C45 1.376 . S
C46 C47 1.370 . S
C47 C46 1.370 . S
C47 C48 1.396 . S
C47 H74 0.929 . S
C48 C43 1.373 . S
C48 C47 1.396 . S
C48 H75 0.929 . S
C49 O62 1.240 . S
C49 O63 1.289 . S
C50 O64 1.258 . S
C50 O65 1.256 . S
C51 La41 2.928 . S
C51 C52 1.503 . S
C51 O66 1.261 . S
C51 O67 1.243 . S
C52 C51 1.503 . S
C52 C53 1.394 . S
C52 C57 1.373 . S
C53 C52 1.394 . S
C53 C54 1.380 . S
C53 H76 0.930 . S
C54 C53 1.380 . S
C54 C55 1.376 . S
C54 H77 0.930 . S
C55 C54 1.376 . S
C55 C56 1.370 . S
C56 C55 1.370 . S
C56 C57 1.396 . S
C56 H78 0.929 . S
C57 C52 1.373 . S
C57 C56 1.396 . S
C57 H79 0.929 . S
C58 O68 1.240 . S
C58 O69 1.289 . S
C59 O70 1.258 . S
C59 O71 1.256 . S
O60 La40 2.521 1_554 S
O60 C42 1.261 . S
O61 La40 2.628 1_554 S
O61 C42 1.243 . S
O62 La40 2.554 . S
O62 C49 1.240 . S
O63 La40 2.757 . S
O63 La41 2.482 . S
O63 C49 1.289 . S
O64 La40 2.470 . S
O64 C50 1.258 . S
O65 La41 2.503 . S
O65 C50 1.256 . S
O66 La41 2.521 . S
O66 C51 1.261 . S
O67 La41 2.628 . S
O67 C51 1.243 . S
O68 La41 2.554 . S
O68 C58 1.240 . S
O69 La40 2.482 . S
O69 La41 2.757 . S
O69 C58 1.289 . S
O70 La41 2.470 . S
O70 C59 1.258 . S
O71 La40 2.503 . S
O71 C59 1.256 . S
H72 C44 0.930 . S
H73 C45 0.930 . S
H74 C47 0.929 . S
H75 C48 0.929 . S
H76 C53 0.930 . S
H77 C54 0.930 . S
H78 C56 0.929 . S
H79 C57 0.929 . S
La80 C82 2.928 . S
La80 O100 2.521 . S
La80 O101 2.628 . S
La80 O102 2.554 . S
La80 O103 2.757 . S
La80 O104 2.470 . S
La80 O109 2.482 . S
La80 O111 2.503 . S
La81 C91 2.928 1_554 S
La81 O103 2.482 . S
La81 O105 2.503 . S
La81 O106 2.521 1_554 S
La81 O107 2.628 1_554 S
La81 O108 2.554 . S
La81 O109 2.757 . S
La81 O110 2.470 . S
C82 La80 2.928 . S
C82 C83 1.503 . S
C82 O100 1.261 . S
C82 O101 1.243 . S
C83 C82 1.503 . S
C83 C84 1.394 . S
C83 C88 1.373 . S
C84 C83 1.394 . S
C84 C85 1.380 . S
C84 H112 0.930 . S
C85 C84 1.380 . S
C85 C86 1.376 . S
C85 H113 0.930 . S
C86 C85 1.376 . S
C86 C87 1.370 . S
C87 C86 1.370 . S
C87 C88 1.396 . S
C87 H114 0.929 . S
C88 C83 1.373 . S
C88 C87 1.396 . S
C88 H115 0.929 . S
C89 O102 1.240 . S
C89 O103 1.289 . S
C90 O104 1.258 . S
C90 O105 1.256 . S
C91 La81 2.928 1_556 S
C91 C92 1.503 . S
C91 O106 1.261 . S
C91 O107 1.243 . S
C92 C91 1.503 . S
C92 C93 1.394 . S
C92 C97 1.373 . S
C93 C92 1.394 . S
C93 C94 1.380 . S
C93 H116 0.930 . S
C94 C93 1.380 . S
C94 C95 1.376 . S
C94 H117 0.930 . S
C95 C94 1.376 . S
C95 C96 1.370 . S
C96 C95 1.370 . S
C96 C97 1.396 . S
C96 H118 0.929 . S
C97 C92 1.373 . S
C97 C96 1.396 . S
C97 H119 0.929 . S
C98 O108 1.240 . S
C98 O109 1.289 . S
C99 O110 1.258 . S
C99 O111 1.256 . S
O100 La80 2.521 . S
O100 C82 1.261 . S
O101 La80 2.628 . S
O101 C82 1.243 . S
O102 La80 2.554 . S
O102 C89 1.240 . S
O103 La80 2.757 . S
O103 La81 2.482 . S
O103 C89 1.289 . S
O104 La80 2.470 . S
O104 C90 1.258 . S
O105 La81 2.503 . S
O105 C90 1.256 . S
O106 La81 2.521 1_556 S
O106 C91 1.261 . S
O107 La81 2.628 1_556 S
O107 C91 1.243 . S
O108 La81 2.554 . S
O108 C98 1.240 . S
O109 La80 2.482 . S
O109 La81 2.757 . S
O109 C98 1.289 . S
O110 La81 2.470 . S
O110 C99 1.258 . S
O111 La80 2.503 . S
O111 C99 1.256 . S
H112 C84 0.930 . S
H113 C85 0.930 . S
H114 C87 0.929 . S
H115 C88 0.929 . S
H116 C93 0.930 . S
H117 C94 0.930 . S
H118 C96 0.929 . S
H119 C97 0.929 . S
La120 C122 2.928 1_556 S
La120 O140 2.521 1_556 S
La120 O141 2.628 1_556 S
La120 O142 2.554 . S
La120 O143 2.757 . S
La120 O144 2.470 . S
La120 O149 2.482 . S
La120 O151 2.503 . S
La121 C131 2.928 . S
La121 O143 2.482 . S
La121 O145 2.503 . S
La121 O146 2.521 . S
La121 O147 2.628 . S
La121 O148 2.554 . S
La121 O149 2.757 . S
La121 O150 2.470 . S
C122 La120 2.928 1_554 S
C122 C123 1.503 . S
C122 O140 1.261 . S
C122 O141 1.243 . S
C123 C122 1.503 . S
C123 C124 1.394 . S
C123 C128 1.373 . S
C124 C123 1.394 . S
C124 C125 1.380 . S
C124 H152 0.930 . S
C125 C124 1.380 . S
C125 C126 1.376 . S
C125 H153 0.930 . S
C126 C125 1.376 . S
C126 C127 1.370 . S
C127 C126 1.370 . S
C127 C128 1.396 . S
C127 H154 0.929 . S
C128 C123 1.373 . S
C128 C127 1.396 . S
C128 H155 0.929 . S
C129 O142 1.240 . S
C129 O143 1.289 . S
C130 O144 1.258 . S
C130 O145 1.256 . S
C131 La121 2.928 . S
C131 C132 1.503 . S
C131 O146 1.261 . S
C131 O147 1.243 . S
C132 C131 1.503 . S
C132 C133 1.394 . S
C132 C137 1.373 . S
C133 C132 1.394 . S
C133 C134 1.380 . S
C133 H156 0.930 . S
C134 C133 1.380 . S
C134 C135 1.376 . S
C134 H157 0.930 . S
C135 C134 1.376 . S
C135 C136 1.370 . S
C136 C135 1.370 . S
C136 C137 1.396 . S
C136 H158 0.929 . S
C137 C132 1.373 . S
C137 C136 1.396 . S
C137 H159 0.929 . S
C138 O148 1.240 . S
C138 O149 1.289 . S
C139 O150 1.258 . S
C139 O151 1.256 . S
O140 La120 2.521 1_554 S
O140 C122 1.261 . S
O141 La120 2.628 1_554 S
O141 C122 1.243 . S
O142 La120 2.554 . S
O142 C129 1.240 . S
O143 La120 2.757 . S
O143 La121 2.482 . S
O143 C129 1.289 . S
O144 La120 2.470 . S
O144 C130 1.258 . S
O145 La121 2.503 . S
O145 C130 1.256 . S
O146 La121 2.521 . S
O146 C131 1.261 . S
O147 La121 2.628 . S
O147 C131 1.243 . S
O148 La121 2.554 . S
O148 C138 1.240 . S
O149 La120 2.482 . S
O149 La121 2.757 . S
O149 C138 1.289 . S
O150 La121 2.470 . S
O150 C139 1.258 . S
O151 La120 2.503 . S
O151 C139 1.256 . S
H152 C124 0.930 . S
H153 C125 0.930 . S
H154 C127 0.929 . S
H155 C128 0.929 . S
H156 C133 0.930 . S
H157 C134 0.930 . S
H158 C136 0.929 . S
H159 C137 0.929 . S
La160 C162 2.928 1_554 S
La160 O180 2.521 1_554 S
La160 O181 2.628 1_554 S
La160 O182 2.554 . S
La160 O183 2.757 . S
La160 O184 2.470 . S
La160 O189 2.482 . S
La160 O191 2.503 . S
La161 C171 2.928 . S
La161 O183 2.482 . S
La161 O185 2.503 . S
La161 O186 2.521 . S
La161 O187 2.628 . S
La161 O188 2.554 . S
La161 O189 2.757 . S
La161 O190 2.470 . S
C162 La160 2.928 1_556 S
C162 C163 1.503 . S
C162 O180 1.261 . S
C162 O181 1.243 . S
C163 C162 1.503 . S
C163 C164 1.394 . S
C163 C168 1.373 . S
C164 C163 1.394 . S
C164 C165 1.380 . S
C164 H192 0.930 . S
C165 C164 1.380 . S
C165 C166 1.376 . S
C165 H193 0.930 . S
C166 C165 1.376 . S
C166 C167 1.370 . S
C167 C166 1.370 . S
C167 C168 1.396 . S
C167 H194 0.929 . S
C168 C163 1.373 . S
C168 C167 1.396 . S
C168 H195 0.929 . S
C169 O182 1.240 . S
C169 O183 1.289 . S
C170 O184 1.258 . S
C170 O185 1.256 . S
C171 La161 2.928 . S
C171 C172 1.503 . S
C171 O186 1.261 . S
C171 O187 1.243 . S
C172 C171 1.503 . S
C172 C173 1.394 . S
C172 C177 1.373 . S
C173 C172 1.394 . S
C173 C174 1.380 . S
C173 H196 0.930 . S
C174 C173 1.380 . S
C174 C175 1.376 . S
C174 H197 0.930 . S
C175 C174 1.376 . S
C175 C176 1.370 . S
C176 C175 1.370 . S
C176 C177 1.396 . S
C176 H198 0.929 . S
C177 C172 1.373 . S
C177 C176 1.396 . S
C177 H199 0.929 . S
C178 O188 1.240 . S
C178 O189 1.289 . S
C179 O190 1.258 . S
C179 O191 1.256 . S
O180 La160 2.521 1_556 S
O180 C162 1.261 . S
O181 La160 2.628 1_556 S
O181 C162 1.243 . S
O182 La160 2.554 . S
O182 C169 1.240 . S
O183 La160 2.757 . S
O183 La161 2.482 . S
O183 C169 1.289 . S
O184 La160 2.470 . S
O184 C170 1.258 . S
O185 La161 2.503 . S
O185 C170 1.256 . S
O186 La161 2.521 . S
O186 C171 1.261 . S
O187 La161 2.628 . S
O187 C171 1.243 . S
O188 La161 2.554 . S
O188 C178 1.240 . S
O189 La160 2.482 . S
O189 La161 2.757 . S
O189 C178 1.289 . S
O190 La161 2.470 . S
O190 C179 1.258 . S
O191 La160 2.503 . S
O191 C179 1.256 . S
H192 C164 0.930 . S
H193 C165 0.930 . S
H194 C167 0.929 . S
H195 C168 0.929 . S
H196 C173 0.930 . S
H197 C174 0.930 . S
H198 C176 0.929 . S
H199 C177 0.929 . S
La200 C202 2.928 . S
La200 O220 2.521 . S
La200 O221 2.628 . S
La200 O222 2.554 . S
La200 O223 2.757 . S
La200 O224 2.470 . S
La200 O229 2.482 . S
La200 O231 2.503 . S
La201 C211 2.928 1_556 S
La201 O223 2.482 . S
La201 O225 2.503 . S
La201 O226 2.521 1_556 S
La201 O227 2.628 1_556 S
La201 O228 2.554 . S
La201 O229 2.757 . S
La201 O230 2.470 . S
C202 La200 2.928 . S
C202 C203 1.503 . S
C202 O220 1.261 . S
C202 O221 1.243 . S
C203 C202 1.503 . S
C203 C204 1.394 . S
C203 C208 1.373 . S
C204 C203 1.394 . S
C204 C205 1.380 . S
C204 H232 0.930 . S
C205 C204 1.380 . S
C205 C206 1.376 . S
C205 H233 0.930 . S
C206 C205 1.376 . S
C206 C207 1.370 . S
C207 C206 1.370 . S
C207 C208 1.396 . S
C207 H234 0.929 . S
C208 C203 1.373 . S
C208 C207 1.396 . S
C208 H235 0.929 . S
C209 O222 1.240 . S
C209 O223 1.289 . S
C210 O224 1.258 . S
C210 O225 1.256 . S
C211 La201 2.928 1_554 S
C211 C212 1.503 . S
C211 O226 1.261 . S
C211 O227 1.243 . S
C212 C211 1.503 . S
C212 C213 1.394 . S
C212 C217 1.373 . S
C213 C212 1.394 . S
C213 C214 1.380 . S
C213 H236 0.930 . S
C214 C213 1.380 . S
C214 C215 1.376 . S
C214 H237 0.930 . S
C215 C214 1.376 . S
C215 C216 1.370 . S
C216 C215 1.370 . S
C216 C217 1.396 . S
C216 H238 0.929 . S
C217 C212 1.373 . S
C217 C216 1.396 . S
C217 H239 0.929 . S
C218 O228 1.240 . S
C218 O229 1.289 . S
C219 O230 1.258 . S
C219 O231 1.256 . S
O220 La200 2.521 . S
O220 C202 1.261 . S
O221 La200 2.628 . S
O221 C202 1.243 . S
O222 La200 2.554 . S
O222 C209 1.240 . S
O223 La200 2.757 . S
O223 La201 2.482 . S
O223 C209 1.289 . S
O224 La200 2.470 . S
O224 C210 1.258 . S
O225 La201 2.503 . S
O225 C210 1.256 . S
O226 La201 2.521 1_554 S
O226 C211 1.261 . S
O227 La201 2.628 1_554 S
O227 C211 1.243 . S
O228 La201 2.554 . S
O228 C218 1.240 . S
O229 La200 2.482 . S
O229 La201 2.757 . S
O229 C218 1.289 . S
O230 La201 2.470 . S
O230 C219 1.258 . S
O231 La200 2.503 . S
O231 C219 1.256 . S
H232 C204 0.930 . S
H233 C205 0.930 . S
H234 C207 0.929 . S
H235 C208 0.929 . S
H236 C213 0.930 . S
H237 C214 0.930 . S
H238 C216 0.929 . S
H239 C217 0.929 . S
La240 C242 2.928 1_554 S
La240 O260 2.521 1_554 S
La240 O261 2.628 1_554 S
La240 O262 2.554 . S
La240 O263 2.757 . S
La240 O264 2.470 . S
La240 O269 2.482 . S
La240 O271 2.503 . S
La241 C251 2.928 . S
La241 O263 2.482 . S
La241 O265 2.503 . S
La241 O266 2.521 . S
La241 O267 2.628 . S
La241 O268 2.554 . S
La241 O269 2.757 . S
La241 O270 2.470 . S
C242 La240 2.928 1_556 S
C242 C243 1.503 . S
C242 O260 1.261 . S
C242 O261 1.243 . S
C243 C242 1.503 . S
C243 C244 1.394 . S
C243 C248 1.373 . S
C244 C243 1.394 . S
C244 C245 1.380 . S
C244 H272 0.930 . S
C245 C244 1.380 . S
C245 C246 1.376 . S
C245 H273 0.930 . S
C246 C245 1.376 . S
C246 C247 1.370 . S
C247 C246 1.370 . S
C247 C248 1.396 . S
C247 H274 0.929 . S
C248 C243 1.373 . S
C248 C247 1.396 . S
C248 H275 0.929 . S
C249 O262 1.240 . S
C249 O263 1.289 . S
C250 O264 1.258 . S
C250 O265 1.256 . S
C251 La241 2.928 . S
C251 C252 1.503 . S
C251 O266 1.261 . S
C251 O267 1.243 . S
C252 C251 1.503 . S
C252 C253 1.394 . S
C252 C257 1.373 . S
C253 C252 1.394 . S
C253 C254 1.380 . S
C253 H276 0.930 . S
C254 C253 1.380 . S
C254 C255 1.376 . S
C254 H277 0.930 . S
C255 C254 1.376 . S
C255 C256 1.370 . S
C256 C255 1.370 . S
C256 C257 1.396 . S
C256 H278 0.929 . S
C257 C252 1.373 . S
C257 C256 1.396 . S
C257 H279 0.929 . S
C258 O268 1.240 . S
C258 O269 1.289 . S
C259 O270 1.258 . S
C259 O271 1.256 . S
O260 La240 2.521 1_556 S
O260 C242 1.261 . S
O261 La240 2.628 1_556 S
O261 C242 1.243 . S
O262 La240 2.554 . S
O262 C249 1.240 . S
O263 La240 2.757 . S
O263 La241 2.482 . S
O263 C249 1.289 . S
O264 La240 2.470 . S
O264 C250 1.258 . S
O265 La241 2.503 . S
O265 C250 1.256 . S
O266 La241 2.521 . S
O266 C251 1.261 . S
O267 La241 2.628 . S
O267 C251 1.243 . S
O268 La241 2.554 . S
O268 C258 1.240 . S
O269 La240 2.482 . S
O269 La241 2.757 . S
O269 C258 1.289 . S
O270 La241 2.470 . S
O270 C259 1.258 . S
O271 La240 2.503 . S
O271 C259 1.256 . S
H272 C244 0.930 . S
H273 C245 0.930 . S
H274 C247 0.929 . S
H275 C248 0.929 . S
H276 C253 0.930 . S
H277 C254 0.930 . S
H278 C256 0.929 . S
H279 C257 0.929 . S
La280 C282 2.928 . S
La280 O300 2.521 . S
La280 O301 2.628 . S
La280 O302 2.554 . S
La280 O303 2.757 . S
La280 O304 2.470 . S
La280 O309 2.482 . S
La280 O311 2.503 . S
La281 C291 2.928 1_556 S
La281 O303 2.482 . S
La281 O305 2.503 . S
La281 O306 2.521 1_556 S
La281 O307 2.628 1_556 S
La281 O308 2.554 . S
La281 O309 2.757 . S
La281 O310 2.470 . S
C282 La280 2.928 . S
C282 C283 1.503 . S
C282 O300 1.261 . S
C282 O301 1.243 . S
C283 C282 1.503 . S
C283 C284 1.394 . S
C283 C288 1.373 . S
C284 C283 1.394 . S
C284 C285 1.380 . S
C284 H312 0.930 . S
C285 C284 1.380 . S
C285 C286 1.376 . S
C285 H313 0.930 . S
C286 C285 1.376 . S
C286 C287 1.370 . S
C287 C286 1.370 . S
C287 C288 1.396 . S
C287 H314 0.929 . S
C288 C283 1.373 . S
C288 C287 1.396 . S
C288 H315 0.929 . S
C289 O302 1.240 . S
C289 O303 1.289 . S
C290 O304 1.258 . S
C290 O305 1.256 . S
C291 La281 2.928 1_554 S
C291 C292 1.503 . S
C291 O306 1.261 . S
C291 O307 1.243 . S
C292 C291 1.503 . S
C292 C293 1.394 . S
C292 C297 1.373 . S
C293 C292 1.394 . S
C293 C294 1.380 . S
C293 H316 0.930 . S
C294 C293 1.380 . S
C294 C295 1.376 . S
C294 H317 0.930 . S
C295 C294 1.376 . S
C295 C296 1.370 . S
C296 C295 1.370 . S
C296 C297 1.396 . S
C296 H318 0.929 . S
C297 C292 1.373 . S
C297 C296 1.396 . S
C297 H319 0.929 . S
C298 O308 1.240 . S
C298 O309 1.289 . S
C299 O310 1.258 . S
C299 O311 1.256 . S
O300 La280 2.521 . S
O300 C282 1.261 . S
O301 La280 2.628 . S
O301 C282 1.243 . S
O302 La280 2.554 . S
O302 C289 1.240 . S
O303 La280 2.757 . S
O303 La281 2.482 . S
O303 C289 1.289 . S
O304 La280 2.470 . S
O304 C290 1.258 . S
O305 La281 2.503 . S
O305 C290 1.256 . S
O306 La281 2.521 1_554 S
O306 C291 1.261 . S
O307 La281 2.628 1_554 S
O307 C291 1.243 . S
O308 La281 2.554 . S
O308 C298 1.240 . S
O309 La280 2.482 . S
O309 La281 2.757 . S
O309 C298 1.289 . S
O310 La281 2.470 . S
O310 C299 1.258 . S
O311 La280 2.503 . S
O311 C299 1.256 . S
H312 C284 0.930 . S
H313 C285 0.930 . S
H314 C287 0.929 . S
H315 C288 0.929 . S
H316 C293 0.930 . S
H317 C294 0.930 . S
H318 C296 0.929 . S
H319 C297 0.929 . S
La320 C322 2.928 . S
La320 O340 2.521 . S
La320 O341 2.628 . S
La320 O342 2.554 . S
La320 O343 2.757 . S
La320 O344 2.470 . S
La320 O349 2.482 . S
La320 O351 2.503 . S
La321 C331 2.928 . S
La321 O343 2.482 . S
La321 O345 2.503 . S
La321 O346 2.521 . S
La321 O347 2.628 . S
La321 O348 2.554 . S
La321 O349 2.757 . S
La321 O350 2.470 . S
C322 La320 2.928 . S
C322 C323 1.503 . S
C322 O340 1.261 . S
C322 O341 1.243 . S
C323 C322 1.503 . S
C323 C324 1.394 . S
C323 C328 1.373 . S
C324 C323 1.394 . S
C324 C325 1.380 . S
C324 H352 0.930 . S
C325 C324 1.380 . S
C325 C326 1.376 . S
C325 H353 0.930 . S
C326 C325 1.376 . S
C326 C327 1.370 . S
C327 C326 1.370 . S
C327 C328 1.396 . S
C327 H354 0.929 . S
C328 C323 1.373 . S
C328 C327 1.396 . S
C328 H355 0.929 . S
C329 O342 1.240 . S
C329 O343 1.289 . S
C330 O344 1.258 . S
C330 O345 1.256 . S
C331 La321 2.928 . S
C331 C332 1.503 . S
C331 O346 1.261 . S
C331 O347 1.243 . S
C332 C331 1.503 . S
C332 C333 1.394 . S
C332 C337 1.373 . S
C333 C332 1.394 . S
C333 C334 1.380 . S
C333 H356 0.930 . S
C334 C333 1.380 . S
C334 C335 1.376 . S
C334 H357 0.930 . S
C335 C334 1.376 . S
C335 C336 1.370 . S
C336 C335 1.370 . S
C336 C337 1.396 . S
C336 H358 0.929 . S
C337 C332 1.373 . S
C337 C336 1.396 . S
C337 H359 0.929 . S
C338 O348 1.240 . S
C338 O349 1.289 . S
C339 O350 1.258 . S
C339 O351 1.256 . S
O340 La320 2.521 . S
O340 C322 1.261 . S
O341 La320 2.628 . S
O341 C322 1.243 . S
O342 La320 2.554 . S
O342 C329 1.240 . S
O343 La320 2.757 . S
O343 La321 2.482 . S
O343 C329 1.289 . S
O344 La320 2.470 . S
O344 C330 1.258 . S
O345 La321 2.503 . S
O345 C330 1.256 . S
O346 La321 2.521 . S
O346 C331 1.261 . S
O347 La321 2.628 . S
O347 C331 1.243 . S
O348 La321 2.554 . S
O348 C338 1.240 . S
O349 La320 2.482 . S
O349 La321 2.757 . S
O349 C338 1.289 . S
O350 La321 2.470 . S
O350 C339 1.258 . S
O351 La320 2.503 . S
O351 C339 1.256 . S
H352 C324 0.930 . S
H353 C325 0.930 . S
H354 C327 0.929 . S
H355 C328 0.929 . S
H356 C333 0.930 . S
H357 C334 0.930 . S
H358 C336 0.929 . S
H359 C337 0.929 . S
La360 C362 2.928 . S
La360 O380 2.521 . S
La360 O381 2.628 . S
La360 O382 2.554 . S
La360 O383 2.757 . S
La360 O384 2.470 . S
La360 O389 2.482 . S
La360 O391 2.503 . S
La361 C371 2.928 . S
La361 O383 2.482 . S
La361 O385 2.503 . S
La361 O386 2.521 . S
La361 O387 2.628 . S
La361 O388 2.554 . S
La361 O389 2.757 . S
La361 O390 2.470 . S
C362 La360 2.928 . S
C362 C363 1.503 . S
C362 O380 1.261 . S
C362 O381 1.243 . S
C363 C362 1.503 . S
C363 C364 1.394 . S
C363 C368 1.373 . S
C364 C363 1.394 . S
C364 C365 1.380 . S
C364 H392 0.930 . S
C365 C364 1.380 . S
C365 C366 1.376 . S
C365 H393 0.930 . S
C366 C365 1.376 . S
C366 C367 1.370 . S
C367 C366 1.370 . S
C367 C368 1.396 . S
C367 H394 0.929 . S
C368 C363 1.373 . S
C368 C367 1.396 . S
C368 H395 0.929 . S
C369 O382 1.240 . S
C369 O383 1.289 . S
C370 O384 1.258 . S
C370 O385 1.256 . S
C371 La361 2.928 . S
C371 C372 1.503 . S
C371 O386 1.261 . S
C371 O387 1.243 . S
C372 C371 1.503 . S
C372 C373 1.394 . S
C372 C377 1.373 . S
C373 C372 1.394 . S
C373 C374 1.380 . S
C373 H396 0.930 . S
C374 C373 1.380 . S
C374 C375 1.376 . S
C374 H397 0.930 . S
C375 C374 1.376 . S
C375 C376 1.370 . S
C376 C375 1.370 . S
C376 C377 1.396 . S
C376 H398 0.929 . S
C377 C372 1.373 . S
C377 C376 1.396 . S
C377 H399 0.929 . S
C378 O388 1.240 . S
C378 O389 1.289 . S
C379 O390 1.258 . S
C379 O391 1.256 . S
O380 La360 2.521 . S
O380 C362 1.261 . S
O381 La360 2.628 . S
O381 C362 1.243 . S
O382 La360 2.554 . S
O382 C369 1.240 . S
O383 La360 2.757 . S
O383 La361 2.482 . S
O383 C369 1.289 . S
O384 La360 2.470 . S
O384 C370 1.258 . S
O385 La361 2.503 . S
O385 C370 1.256 . S
O386 La361 2.521 . S
O386 C371 1.261 . S
O387 La361 2.628 . S
O387 C371 1.243 . S
O388 La361 2.554 . S
O388 C378 1.240 . S
O389 La360 2.482 . S
O389 La361 2.757 . S
O389 C378 1.289 . S
O390 La361 2.470 . S
O390 C379 1.258 . S
O391 La360 2.503 . S
O391 C379 1.256 . S
H392 C364 0.930 . S
H393 C365 0.930 . S
H394 C367 0.929 . S
H395 C368 0.929 . S
H396 C373 0.930 . S
H397 C374 0.930 . S
H398 C376 0.929 . S
H399 C377 0.929 . S
La400 C402 2.928 . S
La400 O420 2.521 . S
La400 O421 2.628 . S
La400 O422 2.554 . S
La400 O423 2.757 . S
La400 O424 2.470 . S
La400 O429 2.482 . S
La400 O431 2.503 . S
La401 C411 2.928 . S
La401 O423 2.482 . S
La401 O425 2.503 . S
La401 O426 2.521 . S
La401 O427 2.628 . S
La401 O428 2.554 . S
La401 O429 2.757 . S
La401 O430 2.470 . S
C402 La400 2.928 . S
C402 C403 1.503 . S
C402 O420 1.261 . S
C402 O421 1.243 . S
C403 C402 1.503 . S
C403 C404 1.394 . S
C403 C408 1.373 . S
C404 C403 1.394 . S
C404 C405 1.380 . S
C404 H432 0.930 . S
C405 C404 1.380 . S
C405 C406 1.376 . S
C405 H433 0.930 . S
C406 C405 1.376 . S
C406 C407 1.370 . S
C407 C406 1.370 . S
C407 C408 1.396 . S
C407 H434 0.929 . S
C408 C403 1.373 . S
C408 C407 1.396 . S
C408 H435 0.929 . S
C409 O422 1.240 . S
C409 O423 1.289 . S
C410 O424 1.258 . S
C410 O425 1.256 . S
C411 La401 2.928 . S
C411 C412 1.503 . S
C411 O426 1.261 . S
C411 O427 1.243 . S
C412 C411 1.503 . S
C412 C413 1.394 . S
C412 C417 1.373 . S
C413 C412 1.394 . S
C413 C414 1.380 . S
C413 H436 0.930 . S
C414 C413 1.380 . S
C414 C415 1.376 . S
C414 H437 0.930 . S
C415 C414 1.376 . S
C415 C416 1.370 . S
C416 C415 1.370 . S
C416 C417 1.396 . S
C416 H438 0.929 . S
C417 C412 1.373 . S
C417 C416 1.396 . S
C417 H439 0.929 . S
C418 O428 1.240 . S
C418 O429 1.289 . S
C419 O430 1.258 . S
C419 O431 1.256 . S
O420 La400 2.521 . S
O420 C402 1.261 . S
O421 La400 2.628 . S
O421 C402 1.243 . S
O422 La400 2.554 . S
O422 C409 1.240 . S
O423 La400 2.757 . S
O423 La401 2.482 . S
O423 C409 1.289 . S
O424 La400 2.470 . S
O424 C410 1.258 . S
O425 La401 2.503 . S
O425 C410 1.256 . S
O426 La401 2.521 . S
O426 C411 1.261 . S
O427 La401 2.628 . S
O427 C411 1.243 . S
O428 La401 2.554 . S
O428 C418 1.240 . S
O429 La400 2.482 . S
O429 La401 2.757 . S
O429 C418 1.289 . S
O430 La401 2.470 . S
O430 C419 1.258 . S
O431 La400 2.503 . S
O431 C419 1.256 . S
H432 C404 0.930 . S
H433 C405 0.930 . S
H434 C407 0.929 . S
H435 C408 0.929 . S
H436 C413 0.930 . S
H437 C414 0.930 . S
H438 C416 0.929 . S
H439 C417 0.929 . S
La440 C442 2.928 . S
La440 O460 2.521 . S
La440 O461 2.628 . S
La440 O462 2.554 . S
La440 O463 2.757 . S
La440 O464 2.470 . S
La440 O469 2.482 . S
La440 O471 2.503 . S
La441 C451 2.928 . S
La441 O463 2.482 . S
La441 O465 2.503 . S
La441 O466 2.521 . S
La441 O467 2.628 . S
La441 O468 2.554 . S
La441 O469 2.757 . S
La441 O470 2.470 . S
C442 La440 2.928 . S
C442 C443 1.503 . S
C442 O460 1.261 . S
C442 O461 1.243 . S
C443 C442 1.503 . S
C443 C444 1.394 . S
C443 C448 1.373 . S
C444 C443 1.394 . S
C444 C445 1.380 . S
C444 H472 0.930 . S
C445 C444 1.380 . S
C445 C446 1.376 . S
C445 H473 0.930 . S
C446 C445 1.376 . S
C446 C447 1.370 . S
C447 C446 1.370 . S
C447 C448 1.396 . S
C447 H474 0.929 . S
C448 C443 1.373 . S
C448 C447 1.396 . S
C448 H475 0.929 . S
C449 O462 1.240 . S
C449 O463 1.289 . S
C450 O464 1.258 . S
C450 O465 1.256 . S
C451 La441 2.928 . S
C451 C452 1.503 . S
C451 O466 1.261 . S
C451 O467 1.243 . S
C452 C451 1.503 . S
C452 C453 1.394 . S
C452 C457 1.373 . S
C453 C452 1.394 . S
C453 C454 1.380 . S
C453 H476 0.930 . S
C454 C453 1.380 . S
C454 C455 1.376 . S
C454 H477 0.930 . S
C455 C454 1.376 . S
C455 C456 1.370 . S
C456 C455 1.370 . S
C456 C457 1.396 . S
C456 H478 0.929 . S
C457 C452 1.373 . S
C457 C456 1.396 . S
C457 H479 0.929 . S
C458 O468 1.240 . S
C458 O469 1.289 . S
C459 O470 1.258 . S
C459 O471 1.256 . S
O460 La440 2.521 . S
O460 C442 1.261 . S
O461 La440 2.628 . S
O461 C442 1.243 . S
O462 La440 2.554 . S
O462 C449 1.240 . S
O463 La440 2.757 . S
O463 La441 2.482 . S
O463 C449 1.289 . S
O464 La440 2.470 . S
O464 C450 1.258 . S
O465 La441 2.503 . S
O465 C450 1.256 . S
O466 La441 2.521 . S
O466 C451 1.261 . S
O467 La441 2.628 . S
O467 C451 1.243 . S
O468 La441 2.554 . S
O468 C458 1.240 . S
O469 La440 2.482 . S
O469 La441 2.757 . S
O469 C458 1.289 . S
O470 La441 2.470 . S
O470 C459 1.258 . S
O471 La440 2.503 . S
O471 C459 1.256 . S
H472 C444 0.930 . S
H473 C445 0.930 . S
H474 C447 0.929 . S
H475 C448 0.929 . S
H476 C453 0.930 . S
H477 C454 0.930 . S
H478 C456 0.929 . S
H479 C457 0.929 . S
La480 C482 2.928 . S
La480 O500 2.521 . S
La480 O501 2.628 . S
La480 O502 2.554 . S
La480 O503 2.757 . S
La480 O504 2.470 . S
La480 O509 2.482 . S
La480 O511 2.503 . S
La481 C491 2.928 . S
La481 O503 2.482 . S
La481 O505 2.503 . S
La481 O506 2.521 . S
La481 O507 2.628 . S
La481 O508 2.554 . S
La481 O509 2.757 . S
La481 O510 2.470 . S
C482 La480 2.928 . S
C482 C483 1.503 . S
C482 O500 1.261 . S
C482 O501 1.243 . S
C483 C482 1.503 . S
C483 C484 1.394 . S
C483 C488 1.373 . S
C484 C483 1.394 . S
C484 C485 1.380 . S
C484 H512 0.930 . S
C485 C484 1.380 . S
C485 C486 1.376 . S
C485 H513 0.930 . S
C486 C485 1.376 . S
C486 C487 1.370 . S
C487 C486 1.370 . S
C487 C488 1.396 . S
C487 H514 0.929 . S
C488 C483 1.373 . S
C488 C487 1.396 . S
C488 H515 0.929 . S
C489 O502 1.240 . S
C489 O503 1.289 . S
C490 O504 1.258 . S
C490 O505 1.256 . S
C491 La481 2.928 . S
C491 C492 1.503 . S
C491 O506 1.261 . S
C491 O507 1.243 . S
C492 C491 1.503 . S
C492 C493 1.394 . S
C492 C497 1.373 . S
C493 C492 1.394 . S
C493 C494 1.380 . S
C493 H516 0.930 . S
C494 C493 1.380 . S
C494 C495 1.376 . S
C494 H517 0.930 . S
C495 C494 1.376 . S
C495 C496 1.370 . S
C496 C495 1.370 . S
C496 C497 1.396 . S
C496 H518 0.929 . S
C497 C492 1.373 . S
C497 C496 1.396 . S
C497 H519 0.929 . S
C498 O508 1.240 . S
C498 O509 1.289 . S
C499 O510 1.258 . S
C499 O511 1.256 . S
O500 La480 2.521 . S
O500 C482 1.261 . S
O501 La480 2.628 . S
O501 C482 1.243 . S
O502 La480 2.554 . S
O502 C489 1.240 . S
O503 La480 2.757 . S
O503 La481 2.482 . S
O503 C489 1.289 . S
O504 La480 2.470 . S
O504 C490 1.258 . S
O505 La481 2.503 . S
O505 C490 1.256 . S
O506 La481 2.521 . S
O506 C491 1.261 . S
O507 La481 2.628 . S
O507 C491 1.243 . S
O508 La481 2.554 . S
O508 C498 1.240 . S
O509 La480 2.482 . S
O509 La481 2.757 . S
O509 C498 1.289 . S
O510 La481 2.470 . S
O510 C499 1.258 . S
O511 La480 2.503 . S
O511 C499 1.256 . S
H512 C484 0.930 . S
H513 C485 0.930 . S
H514 C487 0.929 . S
H515 C488 0.929 . S
H516 C493 0.930 . S
H517 C494 0.930 . S
H518 C496 0.929 . S
H519 C497 0.929 . S
La520 C522 2.928 . S
La520 O540 2.521 . S
La520 O541 2.628 . S
La520 O542 2.554 . S
La520 O543 2.757 . S
La520 O544 2.470 . S
La520 O549 2.482 . S
La520 O551 2.503 . S
La521 C531 2.928 . S
La521 O543 2.482 . S
La521 O545 2.503 . S
La521 O546 2.521 . S
La521 O547 2.628 . S
La521 O548 2.554 . S
La521 O549 2.757 . S
La521 O550 2.470 . S
C522 La520 2.928 . S
C522 C523 1.503 . S
C522 O540 1.261 . S
C522 O541 1.243 . S
C523 C522 1.503 . S
C523 C524 1.394 . S
C523 C528 1.373 . S
C524 C523 1.394 . S
C524 C525 1.380 . S
C524 H552 0.930 . S
C525 C524 1.380 . S
C525 C526 1.376 . S
C525 H553 0.930 . S
C526 C525 1.376 . S
C526 C527 1.370 . S
C527 C526 1.370 . S
C527 C528 1.396 . S
C527 H554 0.929 . S
C528 C523 1.373 . S
C528 C527 1.396 . S
C528 H555 0.929 . S
C529 O542 1.240 . S
C529 O543 1.289 . S
C530 O544 1.258 . S
C530 O545 1.256 . S
C531 La521 2.928 . S
C531 C532 1.503 . S
C531 O546 1.261 . S
C531 O547 1.243 . S
C532 C531 1.503 . S
C532 C533 1.394 . S
C532 C537 1.373 . S
C533 C532 1.394 . S
C533 C534 1.380 . S
C533 H556 0.930 . S
C534 C533 1.380 . S
C534 C535 1.376 . S
C534 H557 0.930 . S
C535 C534 1.376 . S
C535 C536 1.370 . S
C536 C535 1.370 . S
C536 C537 1.396 . S
C536 H558 0.929 . S
C537 C532 1.373 . S
C537 C536 1.396 . S
C537 H559 0.929 . S
C538 O548 1.240 . S
C538 O549 1.289 . S
C539 O550 1.258 . S
C539 O551 1.256 . S
O540 La520 2.521 . S
O540 C522 1.261 . S
O541 La520 2.628 . S
O541 C522 1.243 . S
O542 La520 2.554 . S
O542 C529 1.240 . S
O543 La520 2.757 . S
O543 La521 2.482 . S
O543 C529 1.289 . S
O544 La520 2.470 . S
O544 C530 1.258 . S
O545 La521 2.503 . S
O545 C530 1.256 . S
O546 La521 2.521 . S
O546 C531 1.261 . S
O547 La521 2.628 . S
O547 C531 1.243 . S
O548 La521 2.554 . S
O548 C538 1.240 . S
O549 La520 2.482 . S
O549 La521 2.757 . S
O549 C538 1.289 . S
O550 La521 2.470 . S
O550 C539 1.258 . S
O551 La520 2.503 . S
O551 C539 1.256 . S
H552 C524 0.930 . S
H553 C525 0.930 . S
H554 C527 0.929 . S
H555 C528 0.929 . S
H556 C533 0.930 . S
H557 C534 0.930 . S
H558 C536 0.929 . S
H559 C537 0.929 . S
La560 C562 2.928 . S
La560 O580 2.521 . S
La560 O581 2.628 . S
La560 O582 2.554 . S
La560 O583 2.757 . S
La560 O584 2.470 . S
La560 O589 2.482 . S
La560 O591 2.503 . S
La561 C571 2.928 . S
La561 O583 2.482 . S
La561 O585 2.503 . S
La561 O586 2.521 . S
La561 O587 2.628 . S
La561 O588 2.554 . S
La561 O589 2.757 . S
La561 O590 2.470 . S
C562 La560 2.928 . S
C562 C563 1.503 . S
C562 O580 1.261 . S
C562 O581 1.243 . S
C563 C562 1.503 . S
C563 C564 1.394 . S
C563 C568 1.373 . S
C564 C563 1.394 . S
C564 C565 1.380 . S
C564 H592 0.930 . S
C565 C564 1.380 . S
C565 C566 1.376 . S
C565 H593 0.930 . S
C566 C565 1.376 . S
C566 C567 1.370 . S
C567 C566 1.370 . S
C567 C568 1.396 . S
C567 H594 0.929 . S
C568 C563 1.373 . S
C568 C567 1.396 . S
C568 H595 0.929 . S
C569 O582 1.240 . S
C569 O583 1.289 . S
C570 O584 1.258 . S
C570 O585 1.256 . S
C571 La561 2.928 . S
C571 C572 1.503 . S
C571 O586 1.261 . S
C571 O587 1.243 . S
C572 C571 1.503 . S
C572 C573 1.394 . S
C572 C577 1.373 . S
C573 C572 1.394 . S
C573 C574 1.380 . S
C573 H596 0.930 . S
C574 C573 1.380 . S
C574 C575 1.376 . S
C574 H597 0.930 . S
C575 C574 1.376 . S
C575 C576 1.370 . S
C576 C575 1.370 . S
C576 C577 1.396 . S
C576 H598 0.929 . S
C577 C572 1.373 . S
C577 C576 1.396 . S
C577 H599 0.929 . S
C578 O588 1.240 . S
C578 O589 1.289 . S
C579 O590 1.258 . S
C579 O591 1.256 . S
O580 La560 2.521 . S
O580 C562 1.261 . S
O581 La560 2.628 . S
O581 C562 1.243 . S
O582 La560 2.554 . S
O582 C569 1.240 . S
O583 La560 2.757 . S
O583 La561 2.482 . S
O583 C569 1.289 . S
O584 La560 2.470 . S
O584 C570 1.258 . S
O585 La561 2.503 . S
O585 C570 1.256 . S
O586 La561 2.521 . S
O586 C571 1.261 . S
O587 La561 2.628 . S
O587 C571 1.243 . S
O588 La561 2.554 . S
O588 C578 1.240 . S
O589 La560 2.482 . S
O589 La561 2.757 . S
O589 C578 1.289 . S
O590 La561 2.470 . S
O590 C579 1.258 . S
O591 La560 2.503 . S
O591 C579 1.256 . S
H592 C564 0.930 . S
H593 C565 0.930 . S
H594 C567 0.929 . S
H595 C568 0.929 . S
H596 C573 0.930 . S
H597 C574 0.930 . S
H598 C576 0.929 . S
H599 C577 0.929 . S
La600 C602 2.928 . S
La600 O620 2.521 . S
La600 O621 2.628 . S
La600 O622 2.554 . S
La600 O623 2.757 . S
La600 O624 2.470 . S
La600 O629 2.482 . S
La600 O631 2.503 . S
La601 C611 2.928 . S
La601 O623 2.482 . S
La601 O625 2.503 . S
La601 O626 2.521 . S
La601 O627 2.628 . S
La601 O628 2.554 . S
La601 O629 2.757 . S
La601 O630 2.470 . S
C602 La600 2.928 . S
C602 C603 1.503 . S
C602 O620 1.261 . S
C602 O621 1.243 . S
C603 C602 1.503 . S
C603 C604 1.394 . S
C603 C608 1.373 . S
C604 C603 1.394 . S
C604 C605 1.380 . S
C604 H632 0.930 . S
C605 C604 1.380 . S
C605 C606 1.376 . S
C605 H633 0.930 . S
C606 C605 1.376 . S
C606 C607 1.370 . S
C607 C606 1.370 . S
C607 C608 1.396 . S
C607 H634 0.929 . S
C608 C603 1.373 . S
C608 C607 1.396 . S
C608 H635 0.929 . S
C609 O622 1.240 . S
C609 O623 1.289 . S
C610 O624 1.258 . S
C610 O625 1.256 . S
C611 La601 2.928 . S
C611 C612 1.503 . S
C611 O626 1.261 . S
C611 O627 1.243 . S
C612 C611 1.503 . S
C612 C613 1.394 . S
C612 C617 1.373 . S
C613 C612 1.394 . S
C613 C614 1.380 . S
C613 H636 0.930 . S
C614 C613 1.380 . S
C614 C615 1.376 . S
C614 H637 0.930 . S
C615 C614 1.376 . S
C615 C616 1.370 . S
C616 C615 1.370 . S
C616 C617 1.396 . S
C616 H638 0.929 . S
C617 C612 1.373 . S
C617 C616 1.396 . S
C617 H639 0.929 . S
C618 O628 1.240 . S
C618 O629 1.289 . S
C619 O630 1.258 . S
C619 O631 1.256 . S
O620 La600 2.521 . S
O620 C602 1.261 . S
O621 La600 2.628 . S
O621 C602 1.243 . S
O622 La600 2.554 . S
O622 C609 1.240 . S
O623 La600 2.757 . S
O623 La601 2.482 . S
O623 C609 1.289 . S
O624 La600 2.470 . S
O624 C610 1.258 . S
O625 La601 2.503 . S
O625 C610 1.256 . S
O626 La601 2.521 . S
O626 C611 1.261 . S
O627 La601 2.628 . S
O627 C611 1.243 . S
O628 La601 2.554 . S
O628 C618 1.240 . S
O629 La600 2.482 . S
O629 La601 2.757 . S
O629 C618 1.289 . S
O630 La601 2.470 . S
O630 C619 1.258 . S
O631 La600 2.503 . S
O631 C619 1.256 . S
H632 C604 0.930 . S
H633 C605 0.930 . S
H634 C607 0.929 . S
H635 C608 0.929 . S
H636 C613 0.930 . S
H637 C614 0.930 . S
H638 C616 0.929 . S
H639 C617 0.929 . S
H640 C646 0.930 . S
H641 C650 0.930 . S
H642 C655 0.929 . S
H643 C653 0.929 . S
H644 C648 0.929 . S
H645 C654 0.929 . S
C646 H640 0.930 . S
C646 C647 1.367 . S
C646 C654 1.378 . S
C647 C646 1.367 . S
C647 C655 1.433 . S
C648 H644 0.929 . S
C648 C650 1.378 1_565 S
C648 C652 1.350 . S
C649 C652 1.463 . S
C649 C654 1.350 . S
C649 N657 1.427 . S
C650 H641 0.930 . S
C650 C648 1.378 1_545 S
C650 C651 1.367 . S
C651 C650 1.367 . S
C651 C653 1.433 . S
C652 C648 1.350 . S
C652 C649 1.463 . S
C652 N656 1.427 1_565 S
C653 H643 0.929 . S
C653 C651 1.433 . S
C653 N656 1.384 . S
C654 H645 0.929 . S
C654 C646 1.378 . S
C654 C649 1.350 . S
C655 H642 0.929 . S
C655 C647 1.433 . S
C655 N657 1.384 . S
N656 C652 1.427 1_545 S
N656 C653 1.384 . S
N657 C649 1.427 . S
N657 C655 1.384 . S
H658 C664 0.930 . S
H659 C668 0.930 . S
H660 C673 0.929 . S
H661 C671 0.929 . S
H662 C666 0.929 . S
H663 C672 0.929 . S
C664 H658 0.930 . S
C664 C665 1.367 . S
C664 C672 1.378 . S
C665 C664 1.367 . S
C665 C673 1.433 . S
C666 H662 0.929 . S
C666 C668 1.378 . S
C666 C670 1.350 1_455 S
C667 C670 1.463 . S
C667 C672 1.350 . S
C667 N675 1.427 . S
C668 H659 0.930 . S
C668 C666 1.378 . S
C668 C669 1.367 . S
C669 C668 1.367 . S
C669 C671 1.433 . S
C670 C666 1.350 1_655 S
C670 C667 1.463 . S
C670 N674 1.427 . S
C671 H661 0.929 . S
C671 C669 1.433 . S
C671 N674 1.384 1_455 S
C672 H663 0.929 . S
C672 C664 1.378 . S
C672 C667 1.350 . S
C673 H660 0.929 . S
C673 C665 1.433 . S
C673 N675 1.384 . S
N674 C670 1.427 . S
N674 C671 1.384 1_655 S
N675 C667 1.427 . S
N675 C673 1.384 . S
H676 C682 0.930 . S
H677 C686 0.930 . S
H678 C691 0.929 . S
H679 C689 0.929 . S
H680 C684 0.929 . S
H681 C690 0.929 . S
C682 H676 0.930 . S
C682 C683 1.367 . S
C682 C690 1.378 1_565 S
C683 C682 1.367 . S
C683 C691 1.433 . S
C684 H680 0.929 . S
C684 C686 1.378 . S
C684 C688 1.350 . S
C685 C688 1.463 . S
C685 C690 1.350 . S
C685 N693 1.427 . S
C686 H677 0.930 . S
C686 C684 1.378 . S
C686 C687 1.367 . S
C687 C686 1.367 . S
C687 C689 1.433 . S
C688 C684 1.350 . S
C688 C685 1.463 . S
C688 N692 1.427 . S
C689 H679 0.929 . S
C689 C687 1.433 . S
C689 N692 1.384 . S
C690 H681 0.929 . S
C690 C682 1.378 1_545 S
C690 C685 1.350 . S
C691 H678 0.929 . S
C691 C683 1.433 . S
C691 N693 1.384 1_565 S
N692 C688 1.427 . S
N692 C689 1.384 . S
N693 C685 1.427 . S
N693 C691 1.384 1_545 S
H694 C700 0.930 . S
H695 C704 0.930 . S
H696 C709 0.929 . S
H697 C707 0.929 . S
H698 C702 0.929 . S
H699 C708 0.929 . S
C700 H694 0.930 . S
C700 C701 1.367 . S
C700 C708 1.378 . S
C701 C700 1.367 . S
C701 C709 1.433 . S
C702 H698 0.929 . S
C702 C704 1.378 . S
C702 C706 1.350 . S
C703 C706 1.463 . S
C703 C708 1.350 1_455 S
C703 N711 1.427 . S
C704 H695 0.930 . S
C704 C702 1.378 . S
C704 C705 1.367 . S
C705 C704 1.367 . S
C705 C707 1.433 . S
C706 C702 1.350 . S
C706 C703 1.463 . S
C706 N710 1.427 . S
C707 H697 0.929 . S
C707 C705 1.433 . S
C707 N710 1.384 . S
C708 H699 0.929 . S
C708 C700 1.378 . S
C708 C703 1.350 1_655 S
C709 H696 0.929 . S
C709 C701 1.433 . S
C709 N711 1.384 1_655 S
N710 C706 1.427 . S
N710 C707 1.384 . S
N711 C703 1.427 . S
N711 C709 1.384 1_455 S
H712 C718 0.930 . S
H713 C722 0.930 . S
H714 C727 0.929 . S
H715 C725 0.929 . S
H716 C720 0.929 . S
H717 C726 0.929 . S
C718 H712 0.930 . S
C718 C719 1.367 . S
C718 C726 1.378 . S
C719 C718 1.367 . S
C719 C727 1.433 . S
C720 H716 0.929 . S
C720 C722 1.378 . S
C720 C724 1.350 . S
C721 C724 1.463 . S
C721 C726 1.350 . S
C721 N729 1.427 . S
C722 H713 0.930 . S
C722 C720 1.378 . S
C722 C723 1.367 1_554 S
C723 C722 1.367 1_556 S
C723 C725 1.433 . S
C724 C720 1.350 . S
C724 C721 1.463 . S
C724 N728 1.427 1_554 S
C725 H715 0.929 . S
C725 C723 1.433 . S
C725 N728 1.384 . S
C726 H717 0.929 . S
C726 C718 1.378 . S
C726 C721 1.350 . S
C727 H714 0.929 . S
C727 C719 1.433 . S
C727 N729 1.384 . S
N728 C724 1.427 1_556 S
N728 C725 1.384 . S
N729 C721 1.427 . S
N729 C727 1.384 . S
H730 C736 0.930 . S
H731 C740 0.930 . S
H732 C745 0.929 . S
H733 C743 0.929 . S
H734 C738 0.929 . S
H735 C744 0.929 . S
C736 H730 0.930 . S
C736 C737 1.367 . S
C736 C744 1.378 1_554 S
C737 C736 1.367 . S
C737 C745 1.433 . S
C738 H734 0.929 . S
C738 C740 1.378 . S
C738 C742 1.350 . S
C739 C742 1.463 . S
C739 C744 1.350 . S
C739 N747 1.427 . S
C740 H731 0.930 . S
C740 C738 1.378 . S
C740 C741 1.367 . S
C741 C740 1.367 . S
C741 C743 1.433 . S
C742 C738 1.350 . S
C742 C739 1.463 . S
C742 N746 1.427 . S
C743 H733 0.929 . S
C743 C741 1.433 . S
C743 N746 1.384 . S
C744 H735 0.929 . S
C744 C736 1.378 1_556 S
C744 C739 1.350 . S
C745 H732 0.929 . S
C745 C737 1.433 . S
C745 N747 1.384 1_554 S
N746 C742 1.427 . S
N746 C743 1.384 . S
N747 C739 1.427 . S
N747 C745 1.384 1_556 S
H748 C754 0.930 . S
H749 C758 0.930 . S
H750 C763 0.929 . S
H751 C761 0.929 . S
H752 C756 0.929 . S
H753 C762 0.929 . S
C754 H748 0.930 . S
C754 C755 1.367 . S
C754 C762 1.378 . S
C755 C754 1.367 . S
C755 C763 1.433 . S
C756 H752 0.929 . S
C756 C758 1.378 . S
C756 C760 1.350 1_556 S
C757 C760 1.463 . S
C757 C762 1.350 . S
C757 N765 1.427 . S
C758 H749 0.930 . S
C758 C756 1.378 . S
C758 C759 1.367 . S
C759 C758 1.367 . S
C759 C761 1.433 1_556 S
C760 C756 1.350 1_554 S
C760 C757 1.463 . S
C760 N764 1.427 . S
C761 H751 0.929 . S
C761 C759 1.433 1_554 S
C761 N764 1.384 . S
C762 H753 0.929 . S
C762 C754 1.378 . S
C762 C757 1.350 . S
C763 H750 0.929 . S
C763 C755 1.433 . S
C763 N765 1.384 . S
N764 C760 1.427 . S
N764 C761 1.384 . S
N765 C757 1.427 . S
N765 C763 1.384 . S
H766 C772 0.930 . S
H767 C776 0.930 . S
H768 C781 0.929 . S
H769 C779 0.929 . S
H770 C774 0.929 . S
H771 C780 0.929 . S
C772 H766 0.930 . S
C772 C773 1.367 . S
C772 C780 1.378 . S
C773 C772 1.367 . S
C773 C781 1.433 1_554 S
C774 H770 0.929 . S
C774 C776 1.378 . S
C774 C778 1.350 . S
C775 C778 1.463 . S
C775 C780 1.350 1_556 S
C775 N783 1.427 . S
C776 H767 0.930 . S
C776 C774 1.378 . S
C776 C777 1.367 . S
C777 C776 1.367 . S
C777 C779 1.433 . S
C778 C774 1.350 . S
C778 C775 1.463 . S
C778 N782 1.427 . S
C779 H769 0.929 . S
C779 C777 1.433 . S
C779 N782 1.384 . S
C780 H771 0.929 . S
C780 C772 1.378 . S
C780 C775 1.350 1_554 S
C781 H768 0.929 . S
C781 C773 1.433 1_556 S
C781 N783 1.384 . S
N782 C778 1.427 . S
N782 C779 1.384 . S
N783 C775 1.427 . S
N783 C781 1.384 . S
H784 C790 0.930 . S
H785 C794 0.930 . S
H786 C799 0.929 . S
H787 C797 0.929 . S
H788 C792 0.929 . S
H789 C798 0.929 . S
C790 H784 0.930 . S
C790 C791 1.367 . S
C790 C798 1.378 . S
C791 C790 1.367 . S
C791 C799 1.433 . S
C792 H788 0.929 . S
C792 C794 1.378 . S
C792 C796 1.350 . S
C793 C796 1.463 . S
C793 C798 1.350 . S
C793 N801 1.427 . S
C794 H785 0.930 . S
C794 C792 1.378 . S
C794 C795 1.367 . S
C795 C794 1.367 . S
C795 C797 1.433 . S
C796 C792 1.350 . S
C796 C793 1.463 . S
C796 N800 1.427 . S
C797 H787 0.929 . S
C797 C795 1.433 . S
C797 N800 1.384 . S
C798 H789 0.929 . S
C798 C790 1.378 . S
C798 C793 1.350 . S
C799 H786 0.929 . S
C799 C791 1.433 . S
C799 N801 1.384 . S
N800 C796 1.427 . S
N800 C797 1.384 . S
N801 C793 1.427 . S
N801 C799 1.384 . S
H802 C808 0.930 . S
H803 C812 0.930 . S
H804 C817 0.929 . S
H805 C815 0.929 . S
H806 C810 0.929 . S
H807 C816 0.929 . S
C808 H802 0.930 . S
C808 C809 1.367 . S
C808 C816 1.378 . S
C809 C808 1.367 . S
C809 C817 1.433 . S
C810 H806 0.929 . S
C810 C812 1.378 . S
C810 C814 1.350 . S
C811 C814 1.463 . S
C811 C816 1.350 . S
C811 N819 1.427 . S
C812 H803 0.930 . S
C812 C810 1.378 . S
C812 C813 1.367 . S
C813 C812 1.367 . S
C813 C815 1.433 . S
C814 C810 1.350 . S
C814 C811 1.463 . S
C814 N818 1.427 . S
C815 H805 0.929 . S
C815 C813 1.433 . S
C815 N818 1.384 . S
C816 H807 0.929 . S
C816 C808 1.378 . S
C816 C811 1.350 . S
C817 H804 0.929 . S
C817 C809 1.433 . S
C817 N819 1.384 . S
N818 C814 1.427 . S
N818 C815 1.384 . S
N819 C811 1.427 . S
N819 C817 1.384 . S
H820 C826 0.930 . S
H821 C830 0.930 . S
H822 C835 0.929 . S
H823 C833 0.929 . S
H824 C828 0.929 . S
H825 C834 0.929 . S
C826 H820 0.930 . S
C826 C827 1.367 . S
C826 C834 1.378 . S
C827 C826 1.367 . S
C827 C835 1.433 . S
C828 H824 0.929 . S
C828 C830 1.378 . S
C828 C832 1.350 . S
C829 C832 1.463 . S
C829 C834 1.350 . S
C829 N837 1.427 . S
C830 H821 0.930 . S
C830 C828 1.378 . S
C830 C831 1.367 . S
C831 C830 1.367 . S
C831 C833 1.433 . S
C832 C828 1.350 . S
C832 C829 1.463 . S
C832 N836 1.427 . S
C833 H823 0.929 . S
C833 C831 1.433 . S
C833 N836 1.384 . S
C834 H825 0.929 . S
C834 C826 1.378 . S
C834 C829 1.350 . S
C835 H822 0.929 . S
C835 C827 1.433 . S
C835 N837 1.384 . S
N836 C832 1.427 . S
N836 C833 1.384 . S
N837 C829 1.427 . S
N837 C835 1.384 . S
H838 C844 0.930 . S
H839 C848 0.930 . S
H840 C853 0.929 . S
H841 C851 0.929 . S
H842 C846 0.929 . S
H843 C852 0.929 . S
C844 H838 0.930 . S
C844 C845 1.367 . S
C844 C852 1.378 . S
C845 C844 1.367 . S
C845 C853 1.433 . S
C846 H842 0.929 . S
C846 C848 1.378 . S
C846 C850 1.350 . S
C847 C850 1.463 . S
C847 C852 1.350 . S
C847 N855 1.427 . S
C848 H839 0.930 . S
C848 C846 1.378 . S
C848 C849 1.367 . S
C849 C848 1.367 . S
C849 C851 1.433 . S
C850 C846 1.350 . S
C850 C847 1.463 . S
C850 N854 1.427 . S
C851 H841 0.929 . S
C851 C849 1.433 . S
C851 N854 1.384 . S
C852 H843 0.929 . S
C852 C844 1.378 . S
C852 C847 1.350 . S
C853 H840 0.929 . S
C853 C845 1.433 . S
C853 N855 1.384 . S
N854 C850 1.427 . S
N854 C851 1.384 . S
N855 C847 1.427 . S
N855 C853 1.384 . S
H856 C862 0.930 . S
H857 C866 0.930 . S
H858 C871 0.929 . S
H859 C869 0.929 . S
H860 C864 0.929 . S
H861 C870 0.929 . S
C862 H856 0.930 . S
C862 C863 1.367 . S
C862 C870 1.378 1_565 S
C863 C862 1.367 . S
C863 C871 1.433 . S
C864 H860 0.929 . S
C864 C866 1.378 . S
C864 C868 1.350 . S
C865 C868 1.463 . S
C865 C870 1.350 . S
C865 N873 1.427 1_545 S
C866 H857 0.930 . S
C866 C864 1.378 . S
C866 C867 1.367 . S
C867 C866 1.367 . S
C867 C869 1.433 . S
C868 C864 1.350 . S
C868 C865 1.463 . S
C868 N872 1.427 . S
C869 H859 0.929 . S
C869 C867 1.433 . S
C869 N872 1.384 . S
C870 H861 0.929 . S
C870 C862 1.378 1_545 S
C870 C865 1.350 . S
C871 H858 0.929 . S
C871 C863 1.433 . S
C871 N873 1.384 . S
N872 C868 1.427 . S
N872 C869 1.384 . S
N873 C865 1.427 1_565 S
N873 C871 1.384 . S
H874 C880 0.930 . S
H875 C884 0.930 . S
H876 C889 0.929 . S
H877 C887 0.929 . S
H878 C882 0.929 . S
H879 C888 0.929 . S
C880 H874 0.930 . S
C880 C881 1.367 . S
C880 C888 1.378 . S
C881 C880 1.367 . S
C881 C889 1.433 . S
C882 H878 0.929 . S
C882 C884 1.378 1_455 S
C882 C886 1.350 . S
C883 C886 1.463 . S
C883 C888 1.350 . S
C883 N891 1.427 . S
C884 H875 0.930 . S
C884 C882 1.378 1_655 S
C884 C885 1.367 . S
C885 C884 1.367 . S
C885 C887 1.433 . S
C886 C882 1.350 . S
C886 C883 1.463 . S
C886 N890 1.427 1_455 S
C887 H877 0.929 . S
C887 C885 1.433 . S
C887 N890 1.384 . S
C888 H879 0.929 . S
C888 C880 1.378 . S
C888 C883 1.350 . S
C889 H876 0.929 . S
C889 C881 1.433 . S
C889 N891 1.384 . S
N890 C886 1.427 1_655 S
N890 C887 1.384 . S
N891 C883 1.427 . S
N891 C889 1.384 . S
H892 C898 0.930 . S
H893 C902 0.930 . S
H894 C907 0.929 . S
H895 C905 0.929 . S
H896 C900 0.929 . S
H897 C906 0.929 . S
C898 H892 0.930 . S
C898 C899 1.367 . S
C898 C906 1.378 . S
C899 C898 1.367 . S
C899 C907 1.433 . S
C900 H896 0.929 . S
C900 C902 1.378 1_565 S
C900 C904 1.350 . S
C901 C904 1.463 . S
C901 C906 1.350 . S
C901 N909 1.427 . S
C902 H893 0.930 . S
C902 C900 1.378 1_545 S
C902 C903 1.367 . S
C903 C902 1.367 . S
C903 C905 1.433 . S
C904 C900 1.350 . S
C904 C901 1.463 . S
C904 N908 1.427 1_565 S
C905 H895 0.929 . S
C905 C903 1.433 . S
C905 N908 1.384 . S
C906 H897 0.929 . S
C906 C898 1.378 . S
C906 C901 1.350 . S
C907 H894 0.929 . S
C907 C899 1.433 . S
C907 N909 1.384 . S
N908 C904 1.427 1_545 S
N908 C905 1.384 . S
N909 C901 1.427 . S
N909 C907 1.384 . S
H910 C916 0.930 . S
H911 C920 0.930 . S
H912 C925 0.929 . S
H913 C923 0.929 . S
H914 C918 0.929 . S
H915 C924 0.929 . S
C916 H910 0.930 . S
C916 C917 1.367 . S
C916 C924 1.378 1_455 S
C917 C916 1.367 . S
C917 C925 1.433 . S
C918 H914 0.929 . S
C918 C920 1.378 . S
C918 C922 1.350 . S
C919 C922 1.463 . S
C919 C924 1.350 . S
C919 N927 1.427 1_655 S
C920 H911 0.930 . S
C920 C918 1.378 . S
C920 C921 1.367 . S
C921 C920 1.367 . S
C921 C923 1.433 . S
C922 C918 1.350 . S
C922 C919 1.463 . S
C922 N926 1.427 . S
C923 H913 0.929 . S
C923 C921 1.433 . S
C923 N926 1.384 . S
C924 H915 0.929 . S
C924 C916 1.378 1_655 S
C924 C919 1.350 . S
C925 H912 0.929 . S
C925 C917 1.433 . S
C925 N927 1.384 . S
N926 C922 1.427 . S
N926 C923 1.384 . S
N927 C919 1.427 1_455 S
N927 C925 1.384 . S
H928 C934 0.930 . S
H929 C938 0.930 . S
H930 C943 0.929 . S
H931 C941 0.929 . S
H932 C936 0.929 . S
H933 C942 0.929 . S
C934 H928 0.930 . S
C934 C935 1.367 . S
C934 C942 1.378 . S
C935 C934 1.367 . S
C935 C943 1.433 . S
C936 H932 0.929 . S
C936 C938 1.378 . S
C936 C940 1.350 . S
C937 C940 1.463 . S
C937 C942 1.350 . S
C937 N945 1.427 . S
C938 H929 0.930 . S
C938 C936 1.378 . S
C938 C939 1.367 . S
C939 C938 1.367 . S
C939 C941 1.433 . S
C940 C936 1.350 . S
C940 C937 1.463 . S
C940 N944 1.427 . S
C941 H931 0.929 . S
C941 C939 1.433 . S
C941 N944 1.384 . S
C942 H933 0.929 . S
C942 C934 1.378 . S
C942 C937 1.350 . S
C943 H930 0.929 . S
C943 C935 1.433 . S
C943 N945 1.384 . S
N944 C940 1.427 . S
N944 C941 1.384 . S
N945 C937 1.427 . S
N945 C943 1.384 . S
H946 C952 0.930 . S
H947 C956 0.930 . S
H948 C961 0.929 . S
H949 C959 0.929 . S
H950 C954 0.929 . S
H951 C960 0.929 . S
C952 H946 0.930 . S
C952 C953 1.367 . S
C952 C960 1.378 . S
C953 C952 1.367 . S
C953 C961 1.433 . S
C954 H950 0.929 . S
C954 C956 1.378 . S
C954 C958 1.350 . S
C955 C958 1.463 . S
C955 C960 1.350 . S
C955 N963 1.427 . S
C956 H947 0.930 . S
C956 C954 1.378 . S
C956 C957 1.367 . S
C957 C956 1.367 . S
C957 C959 1.433 . S
C958 C954 1.350 . S
C958 C955 1.463 . S
C958 N962 1.427 . S
C959 H949 0.929 . S
C959 C957 1.433 . S
C959 N962 1.384 . S
C960 H951 0.929 . S
C960 C952 1.378 . S
C960 C955 1.350 . S
C961 H948 0.929 . S
C961 C953 1.433 . S
C961 N963 1.384 . S
N962 C958 1.427 . S
N962 C959 1.384 . S
N963 C955 1.427 . S
N963 C961 1.384 . S
H964 C970 0.930 . S
H965 C974 0.930 . S
H966 C979 0.929 . S
H967 C977 0.929 . S
H968 C972 0.929 . S
H969 C978 0.929 . S
C970 H964 0.930 . S
C970 C971 1.367 . S
C970 C978 1.378 . S
C971 C970 1.367 . S
C971 C979 1.433 . S
C972 H968 0.929 . S
C972 C974 1.378 . S
C972 C976 1.350 . S
C973 C976 1.463 . S
C973 C978 1.350 . S
C973 N981 1.427 . S
C974 H965 0.930 . S
C974 C972 1.378 . S
C974 C975 1.367 . S
C975 C974 1.367 . S
C975 C977 1.433 . S
C976 C972 1.350 . S
C976 C973 1.463 . S
C976 N980 1.427 . S
C977 H967 0.929 . S
C977 C975 1.433 . S
C977 N980 1.384 . S
C978 H969 0.929 . S
C978 C970 1.378 . S
C978 C973 1.350 . S
C979 H966 0.929 . S
C979 C971 1.433 . S
C979 N981 1.384 . S
N980 C976 1.427 . S
N980 C977 1.384 . S
N981 C973 1.427 . S
N981 C979 1.384 . S
H982 C988 0.930 . S
H983 C992 0.930 . S
H984 C997 0.929 . S
H985 C995 0.929 . S
H986 C990 0.929 . S
H987 C996 0.929 . S
C988 H982 0.930 . S
C988 C989 1.367 . S
C988 C996 1.378 . S
C989 C988 1.367 . S
C989 C997 1.433 . S
C990 H986 0.929 . S
C990 C992 1.378 . S
C990 C994 1.350 . S
C991 C994 1.463 . S
C991 C996 1.350 . S
C991 N999 1.427 . S
C992 H983 0.930 . S
C992 C990 1.378 . S
C992 C993 1.367 . S
C993 C992 1.367 . S
C993 C995 1.433 . S
C994 C990 1.350 . S
C994 C991 1.463 . S
C994 N998 1.427 . S
C995 H985 0.929 . S
C995 C993 1.433 . S
C995 N998 1.384 . S
C996 H987 0.929 . S
C996 C988 1.378 . S
C996 C991 1.350 . S
C997 H984 0.929 . S
C997 C989 1.433 . S
C997 N999 1.384 . S
N998 C994 1.427 . S
N998 C995 1.384 . S
N999 C991 1.427 . S
N999 C997 1.384 . S
H1000 C1006 0.930 . S
H1001 C1010 0.930 . S
H1002 C1015 0.929 . S
H1003 C1013 0.929 . S
H1004 C1008 0.929 . S
H1005 C1014 0.929 . S
C1006 H1000 0.930 . S
C1006 C1007 1.367 . S
C1006 C1014 1.378 . S
C1007 C1006 1.367 . S
C1007 C1015 1.433 . S
C1008 H1004 0.929 . S
C1008 C1010 1.378 . S
C1008 C1012 1.350 . S
C1009 C1012 1.463 . S
C1009 C1014 1.350 . S
C1009 N1017 1.427 . S
C1010 H1001 0.930 . S
C1010 C1008 1.378 . S
C1010 C1011 1.367 . S
C1011 C1010 1.367 . S
C1011 C1013 1.433 . S
C1012 C1008 1.350 . S
C1012 C1009 1.463 . S
C1012 N1016 1.427 . S
C1013 H1003 0.929 . S
C1013 C1011 1.433 . S
C1013 N1016 1.384 . S
C1014 H1005 0.929 . S
C1014 C1006 1.378 . S
C1014 C1009 1.350 . S
C1015 H1002 0.929 . S
C1015 C1007 1.433 . S
C1015 N1017 1.384 . S
N1016 C1012 1.427 . S
N1016 C1013 1.384 . S
N1017 C1009 1.427 . S
N1017 C1015 1.384 . S
H1018 C1024 0.930 . S
H1019 C1028 0.930 . S
H1020 C1033 0.929 . S
H1021 C1031 0.929 . S
H1022 C1026 0.929 . S
H1023 C1032 0.929 . S
C1024 H1018 0.930 . S
C1024 C1025 1.367 . S
C1024 C1032 1.378 . S
C1025 C1024 1.367 . S
C1025 C1033 1.433 . S
C1026 H1022 0.929 . S
C1026 C1028 1.378 . S
C1026 C1030 1.350 . S
C1027 C1030 1.463 . S
C1027 C1032 1.350 . S
C1027 N1035 1.427 . S
C1028 H1019 0.930 . S
C1028 C1026 1.378 . S
C1028 C1029 1.367 . S
C1029 C1028 1.367 . S
C1029 C1031 1.433 . S
C1030 C1026 1.350 . S
C1030 C1027 1.463 . S
C1030 N1034 1.427 . S
C1031 H1021 0.929 . S
C1031 C1029 1.433 . S
C1031 N1034 1.384 . S
C1032 H1023 0.929 . S
C1032 C1024 1.378 . S
C1032 C1027 1.350 . S
C1033 H1020 0.929 . S
C1033 C1025 1.433 . S
C1033 N1035 1.384 . S
N1034 C1030 1.427 . S
N1034 C1031 1.384 . S
N1035 C1027 1.427 . S
N1035 C1033 1.384 . S
H1036 C1042 0.930 . S
H1037 C1046 0.930 . S
H1038 C1051 0.929 . S
H1039 C1049 0.929 . S
H1040 C1044 0.929 . S
H1041 C1050 0.929 . S
C1042 H1036 0.930 . S
C1042 C1043 1.367 . S
C1042 C1050 1.378 . S
C1043 C1042 1.367 . S
C1043 C1051 1.433 . S
C1044 H1040 0.929 . S
C1044 C1046 1.378 . S
C1044 C1048 1.350 . S
C1045 C1048 1.463 . S
C1045 C1050 1.350 . S
C1045 N1053 1.427 . S
C1046 H1037 0.930 . S
C1046 C1044 1.378 . S
C1046 C1047 1.367 . S
C1047 C1046 1.367 . S
C1047 C1049 1.433 . S
C1048 C1044 1.350 . S
C1048 C1045 1.463 . S
C1048 N1052 1.427 . S
C1049 H1039 0.929 . S
C1049 C1047 1.433 . S
C1049 N1052 1.384 . S
C1050 H1041 0.929 . S
C1050 C1042 1.378 . S
C1050 C1045 1.350 . S
C1051 H1038 0.929 . S
C1051 C1043 1.433 . S
C1051 N1053 1.384 . S
N1052 C1048 1.427 . S
N1052 C1049 1.384 . S
N1053 C1045 1.427 . S
N1053 C1051 1.384 . S
H1054 C1060 0.930 . S
H1055 C1064 0.930 . S
H1056 C1069 0.929 . S
H1057 C1067 0.929 . S
H1058 C1062 0.929 . S
H1059 C1068 0.929 . S
C1060 H1054 0.930 . S
C1060 C1061 1.367 . S
C1060 C1068 1.378 . S
C1061 C1060 1.367 . S
C1061 C1069 1.433 . S
C1062 H1058 0.929 . S
C1062 C1064 1.378 . S
C1062 C1066 1.350 . S
C1063 C1066 1.463 . S
C1063 C1068 1.350 . S
C1063 N1071 1.427 . S
C1064 H1055 0.930 . S
C1064 C1062 1.378 . S
C1064 C1065 1.367 . S
C1065 C1064 1.367 . S
C1065 C1067 1.433 . S
C1066 C1062 1.350 . S
C1066 C1063 1.463 . S
C1066 N1070 1.427 . S
C1067 H1057 0.929 . S
C1067 C1065 1.433 . S
C1067 N1070 1.384 . S
C1068 H1059 0.929 . S
C1068 C1060 1.378 . S
C1068 C1063 1.350 . S
C1069 H1056 0.929 . S
C1069 C1061 1.433 . S
C1069 N1071 1.384 . S
N1070 C1066 1.427 . S
N1070 C1067 1.384 . S
N1071 C1063 1.427 . S
N1071 C1069 1.384 . S
H1072 C1078 0.930 . S
H1073 C1082 0.930 . S
H1074 C1087 0.929 . S
H1075 C1085 0.929 1_554 S
H1076 C1080 0.929 . S
H1077 C1086 0.929 . S
C1078 H1072 0.930 . S
C1078 C1079 1.367 . S
C1078 C1086 1.378 . S
C1079 C1078 1.367 . S
C1079 C1087 1.433 . S
C1080 H1076 0.929 . S
C1080 C1082 1.378 . S
C1080 C1084 1.350 . S
C1081 C1084 1.463 . S
C1081 C1086 1.350 . S
C1081 N1089 1.427 . S
C1082 H1073 0.930 . S
C1082 C1080 1.378 . S
C1082 C1083 1.367 . S
C1083 C1082 1.367 . S
C1083 C1085 1.433 . S
C1084 C1080 1.350 . S
C1084 C1081 1.463 . S
C1084 N1088 1.427 . S
C1085 H1075 0.929 1_556 S
C1085 C1083 1.433 . S
C1085 N1088 1.384 . S
C1086 H1077 0.929 . S
C1086 C1078 1.378 . S
C1086 C1081 1.350 . S
C1087 H1074 0.929 . S
C1087 C1079 1.433 . S
C1087 N1089 1.384 . S
N1088 C1084 1.427 . S
N1088 C1085 1.384 . S
N1089 C1081 1.427 . S
N1089 C1087 1.384 . S
H1090 C1096 0.930 . S
H1091 C1100 0.930 . S
H1092 C1105 0.929 1_556 S
H1093 C1103 0.929 . S
H1094 C1098 0.929 . S
H1095 C1104 0.929 . S
C1096 H1090 0.930 . S
C1096 C1097 1.367 . S
C1096 C1104 1.378 . S
C1097 C1096 1.367 . S
C1097 C1105 1.433 . S
C1098 H1094 0.929 . S
C1098 C1100 1.378 . S
C1098 C1102 1.350 . S
C1099 C1102 1.463 . S
C1099 C1104 1.350 . S
C1099 N1107 1.427 . S
C1100 H1091 0.930 . S
C1100 C1098 1.378 . S
C1100 C1101 1.367 . S
C1101 C1100 1.367 . S
C1101 C1103 1.433 . S
C1102 C1098 1.350 . S
C1102 C1099 1.463 . S
C1102 N1106 1.427 . S
C1103 H1093 0.929 . S
C1103 C1101 1.433 . S
C1103 N1106 1.384 . S
C1104 H1095 0.929 . S
C1104 C1096 1.378 . S
C1104 C1099 1.350 . S
C1105 H1092 0.929 1_554 S
C1105 C1097 1.433 . S
C1105 N1107 1.384 . S
N1106 C1102 1.427 . S
N1106 C1103 1.384 . S
N1107 C1099 1.427 . S
N1107 C1105 1.384 . S
H1108 C1114 0.930 . S
H1109 C1118 0.930 . S
H1110 C1123 0.929 1_554 S
H1111 C1121 0.929 . S
H1112 C1116 0.929 . S
H1113 C1122 0.929 . S
C1114 H1108 0.930 . S
C1114 C1115 1.367 . S
C1114 C1122 1.378 . S
C1115 C1114 1.367 . S
C1115 C1123 1.433 . S
C1116 H1112 0.929 . S
C1116 C1118 1.378 . S
C1116 C1120 1.350 . S
C1117 C1120 1.463 . S
C1117 C1122 1.350 . S
C1117 N1125 1.427 . S
C1118 H1109 0.930 . S
C1118 C1116 1.378 . S
C1118 C1119 1.367 . S
C1119 C1118 1.367 . S
C1119 C1121 1.433 . S
C1120 C1116 1.350 . S
C1120 C1117 1.463 . S
C1120 N1124 1.427 . S
C1121 H1111 0.929 . S
C1121 C1119 1.433 . S
C1121 N1124 1.384 . S
C1122 H1113 0.929 . S
C1122 C1114 1.378 . S
C1122 C1117 1.350 . S
C1123 H1110 0.929 1_556 S
C1123 C1115 1.433 . S
C1123 N1125 1.384 . S
N1124 C1120 1.427 . S
N1124 C1121 1.384 . S
N1125 C1117 1.427 . S
N1125 C1123 1.384 . S
H1126 C1132 0.930 . S
H1127 C1136 0.930 . S
H1128 C1141 0.929 1_556 S
H1129 C1139 0.929 . S
H1130 C1134 0.929 . S
H1131 C1140 0.929 . S
C1132 H1126 0.930 . S
C1132 C1133 1.367 . S
C1132 C1140 1.378 . S
C1133 C1132 1.367 . S
C1133 C1141 1.433 . S
C1134 H1130 0.929 . S
C1134 C1136 1.378 . S
C1134 C1138 1.350 . S
C1135 C1138 1.463 . S
C1135 C1140 1.350 . S
C1135 N1143 1.427 . S
C1136 H1127 0.930 . S
C1136 C1134 1.378 . S
C1136 C1137 1.367 . S
C1137 C1136 1.367 . S
C1137 C1139 1.433 . S
C1138 C1134 1.350 . S
C1138 C1135 1.463 . S
C1138 N1142 1.427 . S
C1139 H1129 0.929 . S
C1139 C1137 1.433 . S
C1139 N1142 1.384 . S
C1140 H1131 0.929 . S
C1140 C1132 1.378 . S
C1140 C1135 1.350 . S
C1141 H1128 0.929 1_554 S
C1141 C1133 1.433 . S
C1141 N1143 1.384 . S
N1142 C1138 1.427 . S
N1142 C1139 1.384 . S
N1143 C1135 1.427 . S
N1143 C1141 1.384 . S
H1144 C1150 0.930 . S
H1145 C1154 0.930 . S
H1146 C1159 0.929 . S
H1147 C1157 0.929 . S
H1148 C1152 0.929 . S
H1149 C1158 0.929 . S
C1150 H1144 0.930 . S
C1150 C1151 1.367 . S
C1150 C1158 1.378 . S
C1151 C1150 1.367 . S
C1151 C1159 1.433 . S
C1152 H1148 0.929 . S
C1152 C1154 1.378 . S
C1152 C1156 1.350 . S
C1153 C1156 1.463 . S
C1153 C1158 1.350 . S
C1153 N1161 1.427 . S
C1154 H1145 0.930 . S
C1154 C1152 1.378 . S
C1154 C1155 1.367 . S
C1155 C1154 1.367 . S
C1155 C1157 1.433 . S
C1156 C1152 1.350 . S
C1156 C1153 1.463 . S
C1156 N1160 1.427 . S
C1157 H1147 0.929 . S
C1157 C1155 1.433 . S
C1157 N1160 1.384 . S
C1158 H1149 0.929 . S
C1158 C1150 1.378 . S
C1158 C1153 1.350 . S
C1159 H1146 0.929 . S
C1159 C1151 1.433 . S
C1159 N1161 1.384 . S
N1160 C1156 1.427 . S
N1160 C1157 1.384 . S
N1161 C1153 1.427 . S
N1161 C1159 1.384 . S
H1162 C1168 0.930 . S
H1163 C1172 0.930 . S
H1164 C1177 0.929 . S
H1165 C1175 0.929 . S
H1166 C1170 0.929 . S
H1167 C1176 0.929 . S
C1168 H1162 0.930 . S
C1168 C1169 1.367 . S
C1168 C1176 1.378 . S
C1169 C1168 1.367 . S
C1169 C1177 1.433 . S
C1170 H1166 0.929 . S
C1170 C1172 1.378 . S
C1170 C1174 1.350 . S
C1171 C1174 1.463 . S
C1171 C1176 1.350 . S
C1171 N1179 1.427 . S
C1172 H1163 0.930 . S
C1172 C1170 1.378 . S
C1172 C1173 1.367 . S
C1173 C1172 1.367 . S
C1173 C1175 1.433 . S
C1174 C1170 1.350 . S
C1174 C1171 1.463 . S
C1174 N1178 1.427 . S
C1175 H1165 0.929 . S
C1175 C1173 1.433 . S
C1175 N1178 1.384 . S
C1176 H1167 0.929 . S
C1176 C1168 1.378 . S
C1176 C1171 1.350 . S
C1177 H1164 0.929 . S
C1177 C1169 1.433 . S
C1177 N1179 1.384 . S
N1178 C1174 1.427 . S
N1178 C1175 1.384 . S
N1179 C1171 1.427 . S
N1179 C1177 1.384 . S
H1180 C1186 0.930 . S
H1181 C1190 0.930 . S
H1182 C1195 0.929 . S
H1183 C1193 0.929 . S
H1184 C1188 0.929 . S
H1185 C1194 0.929 . S
C1186 H1180 0.930 . S
C1186 C1187 1.367 . S
C1186 C1194 1.378 . S
C1187 C1186 1.367 . S
C1187 C1195 1.433 . S
C1188 H1184 0.929 . S
C1188 C1190 1.378 . S
C1188 C1192 1.350 . S
C1189 C1192 1.463 . S
C1189 C1194 1.350 . S
C1189 N1197 1.427 . S
C1190 H1181 0.930 . S
C1190 C1188 1.378 . S
C1190 C1191 1.367 . S
C1191 C1190 1.367 . S
C1191 C1193 1.433 . S
C1192 C1188 1.350 . S
C1192 C1189 1.463 . S
C1192 N1196 1.427 . S
C1193 H1183 0.929 . S
C1193 C1191 1.433 . S
C1193 N1196 1.384 . S
C1194 H1185 0.929 . S
C1194 C1186 1.378 . S
C1194 C1189 1.350 . S
C1195 H1182 0.929 . S
C1195 C1187 1.433 . S
C1195 N1197 1.384 . S
N1196 C1192 1.427 . S
N1196 C1193 1.384 . S
N1197 C1189 1.427 . S
N1197 C1195 1.384 . S
H1198 C1204 0.930 . S
H1199 C1208 0.930 . S
H1200 C1213 0.929 . S
H1201 C1211 0.929 . S
H1202 C1206 0.929 . S
H1203 C1212 0.929 . S
C1204 H1198 0.930 . S
C1204 C1205 1.367 . S
C1204 C1212 1.378 . S
C1205 C1204 1.367 . S
C1205 C1213 1.433 . S
C1206 H1202 0.929 . S
C1206 C1208 1.378 . S
C1206 C1210 1.350 . S
C1207 C1210 1.463 . S
C1207 C1212 1.350 . S
C1207 N1215 1.427 . S
C1208 H1199 0.930 . S
C1208 C1206 1.378 . S
C1208 C1209 1.367 . S
C1209 C1208 1.367 . S
C1209 C1211 1.433 . S
C1210 C1206 1.350 . S
C1210 C1207 1.463 . S
C1210 N1214 1.427 . S
C1211 H1201 0.929 . S
C1211 C1209 1.433 . S
C1211 N1214 1.384 . S
C1212 H1203 0.929 . S
C1212 C1204 1.378 . S
C1212 C1207 1.350 . S
C1213 H1200 0.929 . S
C1213 C1205 1.433 . S
C1213 N1215 1.384 . S
N1214 C1210 1.427 . S
N1214 C1211 1.384 . S
N1215 C1207 1.427 . S
N1215 C1213 1.384 . S
H1216 C1222 0.930 . S
H1217 C1226 0.930 . S
H1218 C1231 0.929 . S
H1219 C1229 0.929 . S
H1220 C1224 0.929 . S
H1221 C1230 0.929 . S
C1222 H1216 0.930 . S
C1222 C1223 1.367 . S
C1222 C1230 1.378 . S
C1223 C1222 1.367 . S
C1223 C1231 1.433 . S
C1224 H1220 0.929 . S
C1224 C1226 1.378 . S
C1224 C1228 1.350 . S
C1225 C1228 1.463 . S
C1225 C1230 1.350 . S
C1225 N1233 1.427 . S
C1226 H1217 0.930 . S
C1226 C1224 1.378 . S
C1226 C1227 1.367 . S
C1227 C1226 1.367 . S
C1227 C1229 1.433 . S
C1228 C1224 1.350 . S
C1228 C1225 1.463 . S
C1228 N1232 1.427 . S
C1229 H1219 0.929 . S
C1229 C1227 1.433 . S
C1229 N1232 1.384 . S
C1230 H1221 0.929 . S
C1230 C1222 1.378 . S
C1230 C1225 1.350 . S
C1231 H1218 0.929 . S
C1231 C1223 1.433 . S
C1231 N1233 1.384 . S
N1232 C1228 1.427 . S
N1232 C1229 1.384 . S
N1233 C1225 1.427 . S
N1233 C1231 1.384 . S
H1234 C1240 0.930 . S
H1235 C1244 0.930 . S
H1236 C1249 0.929 . S
H1237 C1247 0.929 . S
H1238 C1242 0.929 . S
H1239 C1248 0.929 . S
C1240 H1234 0.930 . S
C1240 C1241 1.367 . S
C1240 C1248 1.378 . S
C1241 C1240 1.367 . S
C1241 C1249 1.433 . S
C1242 H1238 0.929 . S
C1242 C1244 1.378 . S
C1242 C1246 1.350 . S
C1243 C1246 1.463 . S
C1243 C1248 1.350 . S
C1243 N1251 1.427 . S
C1244 H1235 0.930 . S
C1244 C1242 1.378 . S
C1244 C1245 1.367 . S
C1245 C1244 1.367 . S
C1245 C1247 1.433 . S
C1246 C1242 1.350 . S
C1246 C1243 1.463 . S
C1246 N1250 1.427 . S
C1247 H1237 0.929 . S
C1247 C1245 1.433 . S
C1247 N1250 1.384 . S
C1248 H1239 0.929 . S
C1248 C1240 1.378 . S
C1248 C1243 1.350 . S
C1249 H1236 0.929 . S
C1249 C1241 1.433 . S
C1249 N1251 1.384 . S
N1250 C1246 1.427 . S
N1250 C1247 1.384 . S
N1251 C1243 1.427 . S
N1251 C1249 1.384 . S
H1252 C1258 0.930 . S
H1253 C1262 0.930 . S
H1254 C1267 0.929 . S
H1255 C1265 0.929 . S
H1256 C1260 0.929 . S
H1257 C1266 0.929 . S
C1258 H1252 0.930 . S
C1258 C1259 1.367 . S
C1258 C1266 1.378 . S
C1259 C1258 1.367 . S
C1259 C1267 1.433 . S
C1260 H1256 0.929 . S
C1260 C1262 1.378 . S
C1260 C1264 1.350 . S
C1261 C1264 1.463 . S
C1261 C1266 1.350 . S
C1261 N1269 1.427 . S
C1262 H1253 0.930 . S
C1262 C1260 1.378 . S
C1262 C1263 1.367 . S
C1263 C1262 1.367 . S
C1263 C1265 1.433 . S
C1264 C1260 1.350 . S
C1264 C1261 1.463 . S
C1264 N1268 1.427 . S
C1265 H1255 0.929 . S
C1265 C1263 1.433 . S
C1265 N1268 1.384 . S
C1266 H1257 0.929 . S
C1266 C1258 1.378 . S
C1266 C1261 1.350 . S
C1267 H1254 0.929 . S
C1267 C1259 1.433 . S
C1267 N1269 1.384 . S
N1268 C1264 1.427 . S
N1268 C1265 1.384 . S
N1269 C1261 1.427 . S
N1269 C1267 1.384 . S
H1270 C1276 0.930 . S
H1271 C1280 0.930 . S
H1272 C1285 0.929 . S
H1273 C1283 0.929 . S
H1274 C1278 0.929 . S
H1275 C1284 0.929 . S
C1276 H1270 0.930 . S
C1276 C1277 1.367 . S
C1276 C1284 1.378 . S
C1277 C1276 1.367 . S
C1277 C1285 1.433 . S
C1278 H1274 0.929 . S
C1278 C1280 1.378 . S
C1278 C1282 1.350 . S
C1279 C1282 1.463 . S
C1279 C1284 1.350 . S
C1279 N1287 1.427 . S
C1280 H1271 0.930 . S
C1280 C1278 1.378 . S
C1280 C1281 1.367 . S
C1281 C1280 1.367 . S
C1281 C1283 1.433 . S
C1282 C1278 1.350 . S
C1282 C1279 1.463 . S
C1282 N1286 1.427 . S
C1283 H1273 0.929 . S
C1283 C1281 1.433 . S
C1283 N1286 1.384 . S
C1284 H1275 0.929 . S
C1284 C1276 1.378 . S
C1284 C1279 1.350 . S
C1285 H1272 0.929 . S
C1285 C1277 1.433 . S
C1285 N1287 1.384 . S
N1286 C1282 1.427 . S
N1286 C1283 1.384 . S
N1287 C1279 1.427 . S
N1287 C1285 1.384 . S
H1288 C1294 0.930 . S
H1289 C1298 0.930 . S
H1290 C1303 0.929 . S
H1291 C1301 0.929 . S
H1292 C1296 0.929 . S
H1293 C1302 0.929 . S
C1294 H1288 0.930 . S
C1294 C1295 1.367 . S
C1294 C1302 1.378 . S
C1295 C1294 1.367 . S
C1295 C1303 1.433 . S
C1296 H1292 0.929 . S
C1296 C1298 1.378 . S
C1296 C1300 1.350 . S
C1297 C1300 1.463 . S
C1297 C1302 1.350 . S
C1297 N1305 1.427 . S
C1298 H1289 0.930 . S
C1298 C1296 1.378 . S
C1298 C1299 1.367 . S
C1299 C1298 1.367 . S
C1299 C1301 1.433 . S
C1300 C1296 1.350 . S
C1300 C1297 1.463 . S
C1300 N1304 1.427 . S
C1301 H1291 0.929 . S
C1301 C1299 1.433 . S
C1301 N1304 1.384 . S
C1302 H1293 0.929 . S
C1302 C1294 1.378 . S
C1302 C1297 1.350 . S
C1303 H1290 0.929 . S
C1303 C1295 1.433 . S
C1303 N1305 1.384 . S
N1304 C1300 1.427 . S
N1304 C1301 1.384 . S
N1305 C1297 1.427 . S
N1305 C1303 1.384 . S
H1306 C1312 0.930 . S
H1307 C1316 0.930 . S
H1308 C1321 0.929 . S
H1309 C1319 0.929 . S
H1310 C1314 0.929 . S
H1311 C1320 0.929 . S
C1312 H1306 0.930 . S
C1312 C1313 1.367 . S
C1312 C1320 1.378 . S
C1313 C1312 1.367 . S
C1313 C1321 1.433 . S
C1314 H1310 0.929 . S
C1314 C1316 1.378 . S
C1314 C1318 1.350 . S
C1315 C1318 1.463 . S
C1315 C1320 1.350 . S
C1315 N1323 1.427 . S
C1316 H1307 0.930 . S
C1316 C1314 1.378 . S
C1316 C1317 1.367 . S
C1317 C1316 1.367 . S
C1317 C1319 1.433 . S
C1318 C1314 1.350 . S
C1318 C1315 1.463 . S
C1318 N1322 1.427 . S
C1319 H1309 0.929 . S
C1319 C1317 1.433 . S
C1319 N1322 1.384 . S
C1320 H1311 0.929 . S
C1320 C1312 1.378 . S
C1320 C1315 1.350 . S
C1321 H1308 0.929 . S
C1321 C1313 1.433 . S
C1321 N1323 1.384 . S
N1322 C1318 1.427 . S
N1322 C1319 1.384 . S
N1323 C1315 1.427 . S
N1323 C1321 1.384 . S
H1324 C1330 0.930 . S
H1325 C1334 0.930 . S
H1326 C1339 0.929 . S
H1327 C1337 0.929 . S
H1328 C1332 0.929 . S
H1329 C1338 0.929 . S
C1330 H1324 0.930 . S
C1330 C1331 1.367 . S
C1330 C1338 1.378 . S
C1331 C1330 1.367 . S
C1331 C1339 1.433 . S
C1332 H1328 0.929 . S
C1332 C1334 1.378 . S
C1332 C1336 1.350 . S
C1333 C1336 1.463 . S
C1333 C1338 1.350 . S
C1333 N1341 1.427 . S
C1334 H1325 0.930 . S
C1334 C1332 1.378 . S
C1334 C1335 1.367 . S
C1335 C1334 1.367 . S
C1335 C1337 1.433 . S
C1336 C1332 1.350 . S
C1336 C1333 1.463 . S
C1336 N1340 1.427 . S
C1337 H1327 0.929 . S
C1337 C1335 1.433 . S
C1337 N1340 1.384 . S
C1338 H1329 0.929 . S
C1338 C1330 1.378 . S
C1338 C1333 1.350 . S
C1339 H1326 0.929 . S
C1339 C1331 1.433 . S
C1339 N1341 1.384 . S
N1340 C1336 1.427 . S
N1340 C1337 1.384 . S
N1341 C1333 1.427 . S
N1341 C1339 1.384 . S
H1342 C1348 0.930 . S
H1343 C1352 0.930 . S
H1344 C1357 0.929 . S
H1345 C1355 0.929 . S
H1346 C1350 0.929 . S
H1347 C1356 0.929 . S
C1348 H1342 0.930 . S
C1348 C1349 1.367 . S
C1348 C1356 1.378 . S
C1349 C1348 1.367 . S
C1349 C1357 1.433 . S
C1350 H1346 0.929 . S
C1350 C1352 1.378 . S
C1350 C1354 1.350 . S
C1351 C1354 1.463 . S
C1351 C1356 1.350 . S
C1351 N1359 1.427 . S
C1352 H1343 0.930 . S
C1352 C1350 1.378 . S
C1352 C1353 1.367 . S
C1353 C1352 1.367 . S
C1353 C1355 1.433 . S
C1354 C1350 1.350 . S
C1354 C1351 1.463 . S
C1354 N1358 1.427 . S
C1355 H1345 0.929 . S
C1355 C1353 1.433 . S
C1355 N1358 1.384 . S
C1356 H1347 0.929 . S
C1356 C1348 1.378 . S
C1356 C1351 1.350 . S
C1357 H1344 0.929 . S
C1357 C1349 1.433 . S
C1357 N1359 1.384 . S
N1358 C1354 1.427 . S
N1358 C1355 1.384 . S
N1359 C1351 1.427 . S
N1359 C1357 1.384 . S
H1360 C1366 0.930 . S
H1361 C1370 0.930 . S
H1362 C1375 0.929 . S
H1363 C1373 0.929 . S
H1364 C1368 0.929 . S
H1365 C1374 0.929 . S
C1366 H1360 0.930 . S
C1366 C1367 1.365 1_554 S
C1366 C1374 1.378 . S
C1367 C1366 1.365 1_556 S
C1367 C1375 1.432 1_556 S
C1368 H1364 0.929 . S
C1368 C1370 1.378 . S
C1368 C1372 1.350 . S
C1369 C1372 1.463 . S
C1369 C1374 1.350 . S
C1369 N1377 1.427 . S
C1370 H1361 0.930 . S
C1370 C1368 1.378 . S
C1370 C1371 1.367 . S
C1371 C1370 1.367 . S
C1371 C1373 1.433 . S
C1372 C1368 1.350 . S
C1372 C1369 1.463 . S
C1372 N1376 1.427 . S
C1373 H1363 0.929 . S
C1373 C1371 1.433 . S
C1373 N1376 1.384 . S
C1374 H1365 0.929 . S
C1374 C1366 1.378 . S
C1374 C1369 1.350 . S
C1375 H1362 0.929 . S
C1375 C1367 1.432 1_554 S
C1375 N1377 1.384 . S
N1376 C1372 1.427 . S
N1376 C1373 1.384 . S
N1377 C1369 1.427 . S
N1377 C1375 1.384 . S
H1378 C1384 0.930 . S
H1379 C1388 0.930 . S
H1380 C1393 0.929 . S
H1381 C1391 0.929 . S
H1382 C1386 0.929 . S
H1383 C1392 0.929 . S
C1384 H1378 0.930 . S
C1384 C1385 1.367 . S
C1384 C1392 1.378 . S
C1385 C1384 1.367 . S
C1385 C1393 1.433 . S
C1386 H1382 0.929 . S
C1386 C1388 1.378 . S
C1386 C1390 1.350 . S
C1387 C1390 1.463 . S
C1387 C1392 1.350 . S
C1387 N1395 1.427 . S
C1388 H1379 0.930 . S
C1388 C1386 1.378 . S
C1388 C1389 1.365 1_556 S
C1389 C1388 1.365 1_554 S
C1389 C1391 1.431 1_554 S
C1390 C1386 1.350 . S
C1390 C1387 1.463 . S
C1390 N1394 1.427 . S
C1391 H1381 0.929 . S
C1391 C1389 1.431 1_556 S
C1391 N1394 1.384 . S
C1392 H1383 0.929 . S
C1392 C1384 1.378 . S
C1392 C1387 1.350 . S
C1393 H1380 0.929 . S
C1393 C1385 1.433 . S
C1393 N1395 1.384 . S
N1394 C1390 1.427 . S
N1394 C1391 1.384 . S
N1395 C1387 1.427 . S
N1395 C1393 1.384 . S
H1396 C1402 0.930 . S
H1397 C1406 0.930 . S
H1398 C1411 0.929 . S
H1399 C1409 0.929 . S
H1400 C1404 0.929 . S
H1401 C1410 0.929 . S
C1402 H1396 0.930 . S
C1402 C1403 1.367 . S
C1402 C1410 1.378 . S
C1403 C1402 1.367 . S
C1403 C1411 1.433 . S
C1404 H1400 0.929 . S
C1404 C1406 1.378 . S
C1404 C1408 1.350 . S
C1405 C1408 1.463 . S
C1405 C1410 1.350 . S
C1405 N1413 1.427 . S
C1406 H1397 0.930 . S
C1406 C1404 1.378 . S
C1406 C1407 1.365 1_554 S
C1407 C1406 1.365 1_556 S
C1407 C1409 1.431 1_556 S
C1408 C1404 1.350 . S
C1408 C1405 1.463 . S
C1408 N1412 1.427 . S
C1409 H1399 0.929 . S
C1409 C1407 1.431 1_554 S
C1409 N1412 1.384 . S
C1410 H1401 0.929 . S
C1410 C1402 1.378 . S
C1410 C1405 1.350 . S
C1411 H1398 0.929 . S
C1411 C1403 1.433 . S
C1411 N1413 1.384 . S
N1412 C1408 1.427 . S
N1412 C1409 1.384 . S
N1413 C1405 1.427 . S
N1413 C1411 1.384 . S
H1414 C1420 0.930 1_554 S
H1415 C1424 0.930 . S
H1416 C1429 0.929 . S
H1417 C1427 0.929 . S
H1418 C1422 0.929 . S
H1419 C1428 0.929 . S
C1420 H1414 0.930 1_556 S
C1420 C1421 1.364 1_556 S
C1420 C1428 1.378 . S
C1421 C1420 1.364 1_554 S
C1421 C1429 1.429 1_554 S
C1422 H1418 0.929 . S
C1422 C1424 1.378 . S
C1422 C1426 1.350 . S
C1423 C1426 1.463 . S
C1423 C1428 1.350 . S
C1423 N1431 1.427 . S
C1424 H1415 0.930 . S
C1424 C1422 1.378 . S
C1424 C1425 1.367 . S
C1425 C1424 1.367 . S
C1425 C1427 1.433 . S
C1426 C1422 1.350 . S
C1426 C1423 1.463 . S
C1426 N1430 1.427 . S
C1427 H1417 0.929 . S
C1427 C1425 1.433 . S
C1427 N1430 1.384 . S
C1428 H1419 0.929 . S
C1428 C1420 1.378 . S
C1428 C1423 1.350 . S
C1429 H1416 0.929 . S
C1429 C1421 1.429 1_556 S
C1429 N1431 1.384 . S
N1430 C1426 1.427 . S
N1430 C1427 1.384 . S
N1431 C1423 1.427 . S
N1431 C1429 1.384 . S
H1432 C1438 0.930 . S
H1433 C1442 0.930 1_556 S
H1434 C1447 0.929 . S
H1435 C1445 0.929 . S
H1436 C1440 0.929 . S
H1437 C1446 0.929 . S
C1438 H1432 0.930 . S
C1438 C1439 1.367 . S
C1438 C1446 1.378 . S
C1439 C1438 1.367 . S
C1439 C1447 1.433 . S
C1440 H1436 0.929 . S
C1440 C1442 1.378 . S
C1440 C1444 1.350 . S
C1441 C1444 1.463 . S
C1441 C1446 1.350 . S
C1441 N1449 1.427 . S
C1442 H1433 0.930 1_554 S
C1442 C1440 1.378 . S
C1442 C1443 1.367 1_554 S
C1443 C1442 1.367 1_556 S
C1443 C1445 1.433 1_556 S
C1444 C1440 1.350 . S
C1444 C1441 1.463 . S
C1444 N1448 1.427 . S
C1445 H1435 0.929 . S
C1445 C1443 1.433 1_554 S
C1445 N1448 1.384 . S
C1446 H1437 0.929 . S
C1446 C1438 1.378 . S
C1446 C1441 1.350 . S
C1447 H1434 0.929 . S
C1447 C1439 1.433 . S
C1447 N1449 1.384 . S
N1448 C1444 1.427 . S
N1448 C1445 1.384 . S
N1449 C1441 1.427 . S
N1449 C1447 1.384 . S
H1450 C1456 0.930 . S
H1451 C1460 0.930 . S
H1452 C1465 0.929 1_554 S
H1453 C1463 0.929 . S
H1454 C1458 0.929 . S
H1455 C1464 0.929 . S
C1456 H1450 0.930 . S
C1456 C1457 1.367 1_556 S
C1456 C1464 1.378 . S
C1457 C1456 1.367 1_554 S
C1457 C1465 1.433 1_554 S
C1458 H1454 0.929 . S
C1458 C1460 1.378 . S
C1458 C1462 1.350 . S
C1459 C1462 1.463 . S
C1459 C1464 1.350 . S
C1459 N1467 1.427 . S
C1460 H1451 0.930 . S
C1460 C1458 1.378 . S
C1460 C1461 1.367 . S
C1461 C1460 1.367 . S
C1461 C1463 1.433 . S
C1462 C1458 1.350 . S
C1462 C1459 1.463 . S
C1462 N1466 1.427 . S
C1463 H1453 0.929 . S
C1463 C1461 1.433 . S
C1463 N1466 1.384 . S
C1464 H1455 0.929 . S
C1464 C1456 1.378 . S
C1464 C1459 1.350 . S
C1465 H1452 0.929 1_556 S
C1465 C1457 1.433 1_556 S
C1465 N1467 1.384 . S
N1466 C1462 1.427 . S
N1466 C1463 1.384 . S
N1467 C1459 1.427 . S
N1467 C1465 1.384 . S
H1468 C1474 0.930 . S
H1469 C1478 0.930 . S
H1470 C1483 0.929 1_556 S
H1471 C1481 0.929 . S
H1472 C1476 0.929 . S
H1473 C1482 0.929 . S
C1474 H1468 0.930 . S
C1474 C1475 1.367 1_554 S
C1474 C1482 1.378 . S
C1475 C1474 1.367 1_556 S
C1475 C1483 1.433 1_556 S
C1476 H1472 0.929 . S
C1476 C1478 1.378 . S
C1476 C1480 1.350 . S
C1477 C1480 1.463 . S
C1477 C1482 1.350 . S
C1477 N1485 1.427 . S
C1478 H1469 0.930 . S
C1478 C1476 1.378 . S
C1478 C1479 1.367 . S
C1479 C1478 1.367 . S
C1479 C1481 1.433 . S
C1480 C1476 1.350 . S
C1480 C1477 1.463 . S
C1480 N1484 1.427 . S
C1481 H1471 0.929 . S
C1481 C1479 1.433 . S
C1481 N1484 1.384 . S
C1482 H1473 0.929 . S
C1482 C1474 1.378 . S
C1482 C1477 1.350 . S
C1483 H1470 0.929 1_554 S
C1483 C1475 1.433 1_554 S
C1483 N1485 1.384 . S
N1484 C1480 1.427 . S
N1484 C1481 1.384 . S
N1485 C1477 1.427 . S
N1485 C1483 1.384 . S
H1486 C1492 0.930 . S
H1487 C1496 0.930 . S
H1488 C1501 0.929 . S
H1489 C1499 0.929 1_554 S
H1490 C1494 0.929 . S
H1491 C1500 0.929 . S
C1492 H1486 0.930 . S
C1492 C1493 1.367 . S
C1492 C1500 1.378 . S
C1493 C1492 1.367 . S
C1493 C1501 1.433 . S
C1494 H1490 0.929 . S
C1494 C1496 1.378 . S
C1494 C1498 1.350 . S
C1495 C1498 1.463 . S
C1495 C1500 1.350 . S
C1495 N1503 1.427 . S
C1496 H1487 0.930 . S
C1496 C1494 1.378 . S
C1496 C1497 1.367 1_556 S
C1497 C1496 1.367 1_554 S
C1497 C1499 1.433 1_554 S
C1498 C1494 1.350 . S
C1498 C1495 1.463 . S
C1498 N1502 1.427 . S
C1499 H1489 0.929 1_556 S
C1499 C1497 1.433 1_556 S
C1499 N1502 1.384 . S
C1500 H1491 0.929 . S
C1500 C1492 1.378 . S
C1500 C1495 1.350 . S
C1501 H1488 0.929 . S
C1501 C1493 1.433 . S
C1501 N1503 1.384 . S
N1502 C1498 1.427 . S
N1502 C1499 1.384 . S
N1503 C1495 1.427 . S
N1503 C1501 1.384 . S
C647 C459 1.708 . S
C651 C18 1.719 . S
C665 C330 1.712 . S
C669 C49 1.718 . S
C683 C98 1.715 . S
C687 C379 1.707 . S
C701 C129 1.724 . S
C705 C410 1.717 . S
C719 C178 1.718 . S
C723 C219 1.711 . S
C737 C250 1.709 . S
C741 C209 1.716 . S
C755 C258 1.716 . S
C759 C299 1.706 . S
C773 C170 1.706 . S
C777 C289 1.715 . S
C791 C139 1.710 . S
C795 C338 1.721 . S
C809 C369 1.715 . S
C813 C10 1.707 . S
C827 C59 1.717 . S
C831 C418 1.723 . S
C845 C90 1.708 . S
C849 C449 1.715 . S
C863 C498 1.717 . S
C867 C539 1.707 . S
C881 C570 1.707 . S
C885 C529 1.718 . S
C899 C619 1.716 . S
C903 C578 1.725 . S
C917 C609 1.720 . S
C921 C490 1.709 . S
C935 C9 1.170 . S
C939 C169 1.177 . S
C953 C218 1.165 . S
C957 C58 1.174 . S
C971 C89 1.164 . S
C975 C249 1.158 . S
C989 C138 1.177 . S
C993 C298 1.180 . S
C1007 C329 1.158 . S
C1011 C489 1.156 . S
C1025 C538 1.164 . S
C1029 C378 1.173 . S
C1043 C409 1.159 . S
C1047 C569 1.156 . S
C1061 C458 1.156 . S
C1065 C618 1.158 . S
C1079 C579 2.325 . S
C1083 C19 2.322 1_556 S
C1097 C50 2.324 1_554 S
C1101 C610 2.322 . S
C1115 C99 2.323 1_556 S
C1119 C499 2.322 . S
C1133 C130 2.324 1_554 S
C1137 C530 2.322 . S
C1151 C179 2.326 . S
C1155 C419 2.328 . S
C1169 C210 2.328 . S
C1173 C450 2.329 . S
C1187 C259 2.324 . S
C1191 C339 2.328 . S
C1205 C370 2.323 . S
C1209 C290 2.322 . S
C1223 C6 1.060 . S
C1227 C15 1.060 . S
C1241 C55 1.066 . S
C1245 C46 1.066 . S
C1259 C86 1.060 . S
C1263 C95 1.060 . S
C1277 C126 1.059 . S
C1281 C135 1.059 . S
C1295 C175 1.061 . S
C1299 C166 1.061 . S
C1313 C215 1.066 . S
C1317 C206 1.066 . S
C1331 C246 1.066 . S
C1335 C255 1.066 . S
C1349 C286 1.063 . S
C1353 C295 1.063 . S
C1367 C326 1.065 . S
C1371 C335 1.062 . S
C1385 C366 1.063 . S
C1389 C375 1.067 . S
C1403 C415 1.061 . S
C1407 C406 1.065 . S
C1421 C455 1.067 . S
C1425 C446 1.060 . S
C1439 C486 1.059 . S
C1443 C495 1.059 . S
C1457 C526 1.064 . S
C1461 C535 1.064 . S
C1475 C575 1.065 . S
C1479 C566 1.065 . S
C1493 C615 1.066 . S
C1497 C606 1.066 . S
