# Generated by pormake.
# Topology lcs, (4)-cn, num edge types: 1
# Building blocks:
#     Node 0, Type 0, BuildingBlock: CEKHIL_clean_sbu_0, # of connection points: 4
#     Node 1, Type 0, BuildingBlock: CEKHIL_clean_sbu_0, # of connection points: 4
#     Node 2, Type 0, BuildingBlock: CEKHIL_clean_sbu_0, # of connection points: 4
#     Node 3, Type 0, BuildingBlock: CEKHIL_clean_sbu_0, # of connection points: 4
#     Node 4, Type 0, BuildingBlock: CEKHIL_clean_sbu_0, # of connection points: 4
#     Node 5, Type 0, BuildingBlock: CEKHIL_clean_sbu_0, # of connection points: 4
#     Node 6, Type 0, BuildingBlock: CEKHIL_clean_sbu_0, # of connection points: 4
#     Node 7, Type 0, BuildingBlock: CEKHIL_clean_sbu_0, # of connection points: 4
#     Node 8, Type 0, BuildingBlock: CEKHIL_clean_sbu_0, # of connection points: 4
#     Node 9, Type 0, BuildingBlock: CEKHIL_clean_sbu_0, # of connection points: 4
#     Node 10, Type 0, BuildingBlock: CEKHIL_clean_sbu_0, # of connection points: 4
#     Node 11, Type 0, BuildingBlock: CEKHIL_clean_sbu_0, # of connection points: 4
#     Node 12, Type 0, BuildingBlock: CEKHIL_clean_sbu_0, # of connection points: 4
#     Node 13, Type 0, BuildingBlock: CEKHIL_clean_sbu_0, # of connection points: 4
#     Node 14, Type 0, BuildingBlock: CEKHIL_clean_sbu_0, # of connection points: 4
#     Node 15, Type 0, BuildingBlock: CEKHIL_clean_sbu_0, # of connection points: 4
#     Node 16, Type 0, BuildingBlock: CEKHIL_clean_sbu_0, # of connection points: 4
#     Node 17, Type 0, BuildingBlock: CEKHIL_clean_sbu_0, # of connection points: 4
#     Node 18, Type 0, BuildingBlock: CEKHIL_clean_sbu_0, # of connection points: 4
#     Node 19, Type 0, BuildingBlock: CEKHIL_clean_sbu_0, # of connection points: 4
#     Node 20, Type 0, BuildingBlock: CEKHIL_clean_sbu_0, # of connection points: 4
#     Node 21, Type 0, BuildingBlock: CEKHIL_clean_sbu_0, # of connection points: 4
#     Node 22, Type 0, BuildingBlock: CEKHIL_clean_sbu_0, # of connection points: 4
#     Node 23, Type 0, BuildingBlock: CEKHIL_clean_sbu_0, # of connection points: 4
#     Edge 24, Type (0, 0), BuildingBlock: AJUNOK_clean_linker_0, # of connection points: 2
#     Edge 25, Type (0, 0), BuildingBlock: AJUNOK_clean_linker_0, # of connection points: 2
#     Edge 26, Type (0, 0), BuildingBlock: AJUNOK_clean_linker_0, # of connection points: 2
#     Edge 27, Type (0, 0), BuildingBlock: AJUNOK_clean_linker_0, # of connection points: 2
#     Edge 28, Type (0, 0), BuildingBlock: AJUNOK_clean_linker_0, # of connection points: 2
#     Edge 29, Type (0, 0), BuildingBlock: AJUNOK_clean_linker_0, # of connection points: 2
#     Edge 30, Type (0, 0), BuildingBlock: AJUNOK_clean_linker_0, # of connection points: 2
#     Edge 31, Type (0, 0), BuildingBlock: AJUNOK_clean_linker_0, # of connection points: 2
#     Edge 32, Type (0, 0), BuildingBlock: AJUNOK_clean_linker_0, # of connection points: 2
#     Edge 33, Type (0, 0), BuildingBlock: AJUNOK_clean_linker_0, # of connection points: 2
#     Edge 34, Type (0, 0), BuildingBlock: AJUNOK_clean_linker_0, # of connection points: 2
#     Edge 35, Type (0, 0), BuildingBlock: AJUNOK_clean_linker_0, # of connection points: 2
#     Edge 36, Type (0, 0), BuildingBlock: AJUNOK_clean_linker_0, # of connection points: 2
#     Edge 37, Type (0, 0), BuildingBlock: AJUNOK_clean_linker_0, # of connection points: 2
#     Edge 38, Type (0, 0), BuildingBlock: AJUNOK_clean_linker_0, # of connection points: 2
#     Edge 39, Type (0, 0), BuildingBlock: AJUNOK_clean_linker_0, # of connection points: 2
#     Edge 40, Type (0, 0), BuildingBlock: AJUNOK_clean_linker_0, # of connection points: 2
#     Edge 41, Type (0, 0), BuildingBlock: AJUNOK_clean_linker_0, # of connection points: 2
#     Edge 42, Type (0, 0), BuildingBlock: AJUNOK_clean_linker_0, # of connection points: 2
#     Edge 43, Type (0, 0), BuildingBlock: AJUNOK_clean_linker_0, # of connection points: 2
#     Edge 44, Type (0, 0), BuildingBlock: AJUNOK_clean_linker_0, # of connection points: 2
#     Edge 45, Type (0, 0), BuildingBlock: AJUNOK_clean_linker_0, # of connection points: 2
#     Edge 46, Type (0, 0), BuildingBlock: AJUNOK_clean_linker_0, # of connection points: 2
#     Edge 47, Type (0, 0), BuildingBlock: AJUNOK_clean_linker_0, # of connection points: 2
#     Edge 48, Type (0, 0), BuildingBlock: AJUNOK_clean_linker_0, # of connection points: 2
#     Edge 49, Type (0, 0), BuildingBlock: AJUNOK_clean_linker_0, # of connection points: 2
#     Edge 50, Type (0, 0), BuildingBlock: AJUNOK_clean_linker_0, # of connection points: 2
#     Edge 51, Type (0, 0), BuildingBlock: AJUNOK_clean_linker_0, # of connection points: 2
#     Edge 52, Type (0, 0), BuildingBlock: AJUNOK_clean_linker_0, # of connection points: 2
#     Edge 53, Type (0, 0), BuildingBlock: AJUNOK_clean_linker_0, # of connection points: 2
#     Edge 54, Type (0, 0), BuildingBlock: AJUNOK_clean_linker_0, # of connection points: 2
#     Edge 55, Type (0, 0), BuildingBlock: AJUNOK_clean_linker_0, # of connection points: 2
#     Edge 56, Type (0, 0), BuildingBlock: AJUNOK_clean_linker_0, # of connection points: 2
#     Edge 57, Type (0, 0), BuildingBlock: AJUNOK_clean_linker_0, # of connection points: 2
#     Edge 58, Type (0, 0), BuildingBlock: AJUNOK_clean_linker_0, # of connection points: 2
#     Edge 59, Type (0, 0), BuildingBlock: AJUNOK_clean_linker_0, # of connection points: 2
#     Edge 60, Type (0, 0), BuildingBlock: AJUNOK_clean_linker_0, # of connection points: 2
#     Edge 61, Type (0, 0), BuildingBlock: AJUNOK_clean_linker_0, # of connection points: 2
#     Edge 62, Type (0, 0), BuildingBlock: AJUNOK_clean_linker_0, # of connection points: 2
#     Edge 63, Type (0, 0), BuildingBlock: AJUNOK_clean_linker_0, # of connection points: 2
#     Edge 64, Type (0, 0), BuildingBlock: AJUNOK_clean_linker_0, # of connection points: 2
#     Edge 65, Type (0, 0), BuildingBlock: AJUNOK_clean_linker_0, # of connection points: 2
#     Edge 66, Type (0, 0), BuildingBlock: AJUNOK_clean_linker_0, # of connection points: 2
#     Edge 67, Type (0, 0), BuildingBlock: AJUNOK_clean_linker_0, # of connection points: 2
#     Edge 68, Type (0, 0), BuildingBlock: AJUNOK_clean_linker_0, # of connection points: 2
#     Edge 69, Type (0, 0), BuildingBlock: AJUNOK_clean_linker_0, # of connection points: 2
#     Edge 70, Type (0, 0), BuildingBlock: AJUNOK_clean_linker_0, # of connection points: 2
#     Edge 71, Type (0, 0), BuildingBlock: AJUNOK_clean_linker_0, # of connection points: 2
# Relax obj value: 0.003
# Max RMSD: 0.026
# Mean RMSD: 0.022
data_MOF--net-lcs--node1-CEKHIL_clean_sbu_0--edge1-AJUNOK_clean_linker_0
_symmetry_space_group_name_H-M    P1
_symmetry_Int_Tables_number       1
_symmetry_cell_setting            triclinic
loop_
_symmetry_equiv_pos_as_xyz
'x, y, z'
_cell_length_a     36.149231
_cell_length_b     35.310104
_cell_length_c     35.348717
_cell_angle_alpha  90.938324
_cell_angle_beta   90.264529
_cell_angle_gamma 90.731463
loop_
_atom_site_label
_atom_site_type_symbol
_atom_site_fract_x
_atom_site_fract_y
_atom_site_fract_z
_atom_type_partial_charge
Co0 Co 1.01376 0.27366 0.39614 0.0
O1 O 0.96706 0.29612 0.38468 0.0
O2 O 0.97987 0.26787 0.43831 0.0
C3 C 0.04786 0.32426 0.37677 0.0
O4 O 0.05922 0.24875 0.4191 0.0
Co5 Co 0.07236 0.25825 0.33473 0.0
O6 O 0.10653 0.25436 0.37847 0.0
C7 C 1.01071 0.20285 0.34571 0.0
C8 C 0.95662 0.28728 0.41847 0.0
C9 C 0.09379 0.24651 0.41094 0.0
O10 O 0.99717 0.22324 0.37276 0.0
O11 O 0.03915 0.21278 0.32657 0.0
O12 O 0.03394 0.3235 0.4105 0.0
O13 O 0.0391 0.29577 0.35496 0.0
Co14 Co 0.02981 0.76123 0.64735 0.0
O15 O 0.07787 0.73959 0.65606 0.0
O16 O 0.04595 0.73205 0.60312 0.0
C17 C 0.04638 0.81925 0.66962 0.0
O18 O 0.98002 0.78154 0.62784 0.0
Co19 Co 0.98474 0.79288 0.71522 0.0
O20 O 0.95471 0.81631 0.67487 0.0
C21 C 0.98711 0.71043 0.70105 0.0
C22 C 0.07647 0.72617 0.62181 0.0
C23 C 0.95534 0.80466 0.64056 0.0
O24 O 1.00378 0.71553 0.66933 0.0
O25 O 0.98022 0.73715 0.72476 0.0
O26 O 0.05349 0.80938 0.63491 0.0
O27 O 0.03212 0.79318 0.69034 0.0
Co28 Co 0.51586 0.77994 0.89334 0.0
O29 O 0.47065 0.80643 0.88456 0.0
O30 O 0.48349 0.77609 0.93705 0.0
C31 C 0.55271 0.82801 0.8727 0.0
O32 O 0.56042 0.7513 0.91359 0.0
Co33 Co 0.5681 0.76056 0.827 0.0
O34 O 0.60187 0.74266 0.86698 0.0
C35 C 0.49946 0.71549 0.83703 0.0
C36 C 0.46099 0.79766 0.91859 0.0
C37 C 0.59191 0.73976 0.90135 0.0
O38 O 0.49403 0.73154 0.86958 0.0
O39 O 0.52533 0.72576 0.81464 0.0
O40 O 0.54068 0.82788 0.90723 0.0
O41 O 0.54052 0.80059 0.85128 0.0
Co42 Co 0.5381 0.25947 0.14848 0.0
O43 O 0.58621 0.23786 0.15798 0.0
O44 O 0.55567 0.23126 0.10418 0.0
C45 C 0.55347 0.31709 0.17284 0.0
O46 O 0.48865 0.27974 0.12787 0.0
Co47 Co 0.49056 0.28868 0.21566 0.0
O48 O 0.45526 0.30437 0.1759 0.0
C49 C 0.49652 0.20689 0.20115 0.0
C50 C 0.58566 0.22485 0.12354 0.0
C51 C 0.4596 0.29655 0.14089 0.0
O52 O 0.5119 0.21299 0.16891 0.0
O53 O 0.49033 0.23304 0.22568 0.0
O54 O 0.56169 0.30834 0.13808 0.0
O55 O 0.53866 0.29032 0.19218 0.0
Co56 Co 0.0267 0.76358 0.13792 0.0
O57 O 0.0751 0.78696 0.14382 0.0
O58 O 0.05467 0.75799 0.09176 0.0
C59 C 0.99541 0.8133 0.16284 0.0
O60 O 0.97891 0.73792 0.11917 0.0
Co61 Co 0.97489 0.74506 0.20374 0.0
O62 O 0.93591 0.7383 0.16456 0.0
C63 C 0.0373 0.69385 0.18675 0.0
C64 C 0.08068 0.77771 0.1086 0.0
C65 C 0.94549 0.73235 0.13042 0.0
O66 O 0.04589 0.71391 0.15785 0.0
O67 O 1.01093 0.70246 0.20929 0.0
O68 O 1.00584 0.81299 0.12778 0.0
O69 O 1.00581 0.78472 0.1826 0.0
Co70 Co 0.50341 0.76838 0.39659 0.0
O71 O 0.4568 0.7425 0.38657 0.0
O72 O 0.48616 0.7414 0.44126 0.0
C73 C 0.4845 0.8235 0.3708 0.0
O74 O 0.55178 0.79252 0.41819 0.0
Co75 Co 0.55133 0.79939 0.33146 0.0
O76 O 0.58523 0.81855 0.37139 0.0
C77 C 0.55229 0.71769 0.34797 0.0
C78 C 0.45712 0.73152 0.42134 0.0
C79 C 0.58064 0.81058 0.406 0.0
O80 O 0.53142 0.72278 0.37707 0.0
O81 O 0.56146 0.74409 0.32537 0.0
O82 O 0.47696 0.81547 0.40566 0.0
O83 O 0.50187 0.79756 0.35213 0.0
Co84 Co 0.52579 0.27261 0.64291 0.0
O85 O 0.57199 0.29794 0.65398 0.0
O86 O 0.55799 0.27055 0.59906 0.0
C87 C 0.49076 0.31999 0.66725 0.0
O88 O 0.48045 0.24533 0.62008 0.0
Co89 Co 0.47138 0.24969 0.70543 0.0
O90 O 0.4353 0.24418 0.66344 0.0
C91 C 0.53616 0.20147 0.68971 0.0
C92 C 0.58119 0.29102 0.61916 0.0
C93 C 0.44659 0.23927 0.62971 0.0
O94 O 0.54564 0.22309 0.66226 0.0
O95 O 0.50843 0.20819 0.71113 0.0
O96 O 0.50349 0.32157 0.63307 0.0
O97 O 0.50123 0.29115 0.68655 0.0
Co98 Co 1.00877 0.26706 0.89698 0.0
O99 O 0.96171 0.2431 0.88522 0.0
O100 O 0.99064 0.23731 0.93966 0.0
C101 C 0.99102 0.32434 0.87534 0.0
O102 O 0.05751 0.28894 0.91978 0.0
Co103 Co 0.05683 0.3006 0.83338 0.0
O104 O 0.09016 0.31839 0.8744 0.0
C105 C 0.05702 0.21816 0.84565 0.0
C106 C 0.96155 0.22944 0.91895 0.0
C107 C 0.08596 0.30821 0.90846 0.0
O108 O 0.03574 0.22214 0.87458 0.0
O109 O 0.06706 0.24555 0.82464 0.0
O110 O 0.98368 0.31392 0.90955 0.0
O111 O 1.00755 0.29931 0.85461 0.0
Co112 Co 0.38763 1.00585 0.28299 0.0
O113 O 0.37763 0.95722 0.30531 0.0
O114 O 0.4304 0.97389 0.2785 0.0
C115 C 0.36459 0.04032 0.3324 0.0
O116 O 0.41066 0.05296 0.25948 0.0
Co117 Co 0.32715 0.06357 0.2637 0.0
O118 O 0.36823 0.09753 0.24865 0.0
C119 C 0.33986 0.99855 0.21148 0.0
C120 C 0.41169 0.94896 0.29737 0.0
C121 C 0.40135 0.08583 0.24792 0.0
O122 O 0.36767 0.98764 0.23149 0.0
O123 O 0.31924 0.02616 0.22137 0.0
O124 O 0.3978 0.02688 0.33372 0.0
O125 O 0.3455 0.03073 0.30268 0.0
Co126 Co 0.26115 0.14139 0.5089 0.0
O127 O 0.213 0.13586 0.48514 0.0
O128 O 0.23398 0.18783 0.51417 0.0
C129 C 0.29327 0.11593 0.45987 0.0
O130 O 0.3085 0.16012 0.53485 0.0
Co131 Co 0.31144 0.07548 0.52899 0.0
O132 O 0.35072 0.11447 0.53759 0.0
C133 C 0.2475 0.09244 0.57829 0.0
C134 C 0.20791 0.17117 0.49447 0.0
C135 C 0.34139 0.14886 0.54218 0.0
O136 O 0.2408 0.12193 0.55842 0.0
O137 O 0.27309 0.0691 0.56972 0.0
O138 O 0.28317 0.15106 0.45975 0.0
O139 O 0.28192 0.0964 0.48839 0.0
Co140 Co 0.13755 0.0151 0.78185 0.0
O141 O 0.12822 0.99099 0.82967 0.0
O142 O 0.17987 0.98531 0.79717 0.0
C143 C 0.11608 0.07201 0.80138 0.0
O144 O 0.15872 0.03679 0.73268 0.0
Co145 Co 0.07602 0.05053 0.73324 0.0
O146 O 0.11691 0.07238 0.70319 0.0
C147 C 0.08632 0.9674 0.73138 0.0
C148 C 0.16136 0.97749 0.82761 0.0
C149 C 0.14952 0.05948 0.70602 0.0
O150 O 0.11496 0.97052 0.75314 0.0
O151 O 0.06622 0.99542 0.7222 0.0
O152 O 0.14993 0.06247 0.80875 0.0
O153 O 0.09609 0.04677 0.78385 0.0
Co154 Co 0.27141 0.8836 1.00209 0.0
O155 O 0.31751 0.89639 0.97817 0.0
O156 O 0.30558 0.84177 1.00538 0.0
C157 C 0.23558 0.90479 0.95367 0.0
O158 O 0.22697 0.85866 0.02793 0.0
Co159 Co 0.21314 0.94354 0.02297 0.0
O160 O 0.17976 0.89947 0.03068 0.0
C161 C 0.28104 0.93712 0.06986 0.0
C162 C 0.32832 0.86247 0.98589 0.0
C163 C 0.19294 0.86655 0.03469 0.0
O164 O 0.2898 0.9062 0.05229 0.0
O165 O 0.2535 0.95731 0.06004 0.0
O166 O 0.24999 0.87132 0.95208 0.0
O167 O 0.24483 0.92505 0.98304 0.0
Co168 Co 0.29156 0.38357 0.01753 0.0
O169 O 0.34015 0.39025 0.04023 0.0
O170 O 0.30671 0.3378 0.04364 0.0
C171 C 0.30844 0.40908 0.96158 0.0
O172 O 0.2409 0.36541 0.99603 0.0
Co173 Co 0.24677 0.45293 0.99154 0.0
O174 O 0.20959 0.41523 0.97379 0.0
C175 C 0.24975 0.43477 0.07255 0.0
C176 C 0.33763 0.35562 0.05152 0.0
C177 C 0.21213 0.37999 0.98019 0.0
O178 O 0.26702 0.40388 0.06488 0.0
O179 O 0.24202 0.4593 0.04757 0.0
O180 O 0.31489 0.37376 0.96861 0.0
O181 O 0.2941 0.42822 0.98908 0.0
Co182 Co 0.76273 0.13026 0.02074 0.0
O183 O 0.71595 0.11991 0.0449 0.0
O184 O 0.74835 0.17252 0.054 0.0
C185 C 0.74068 0.11217 0.96311 0.0
O186 O 0.81158 0.15144 0.99826 0.0
Co187 Co 0.80438 0.06603 0.97809 0.0
O188 O 0.83309 0.10833 0.95636 0.0
C189 C 0.80882 0.07239 0.06208 0.0
C190 C 0.71768 0.15365 0.0596 0.0
C191 C 0.83421 0.14119 0.97175 0.0
O192 O 0.79115 0.104 0.0624 0.0
O193 O 0.81354 0.05236 0.03198 0.0
O194 O 0.73553 0.14628 0.97597 0.0
O195 O 0.75751 0.08987 0.98574 0.0
Co196 Co 0.14806 0.51967 0.27342 0.0
O197 O 0.15359 0.56677 0.24652 0.0
O198 O 0.10301 0.5311 0.24609 0.0
C199 C 0.17209 0.54313 0.3281 0.0
O200 O 0.13043 0.47056 0.29864 0.0
Co201 Co 0.21363 0.47625 0.30743 0.0
O202 O 0.17544 0.4479 0.33562 0.0
C203 C 0.20016 0.47307 0.22484 0.0
C204 C 0.11938 0.5623 0.23588 0.0
C205 C 0.14208 0.4476 0.32401 0.0
O206 O 0.16925 0.4905 0.22907 0.0
O207 O 0.22263 0.46727 0.25215 0.0
O208 O 0.13756 0.54838 0.31961 0.0
O209 O 0.19131 0.52552 0.30282 0.0
Co210 Co 0.78657 0.88803 0.51455 0.0
O211 O 0.8345 0.89689 0.53757 0.0
O212 O 0.80224 0.84414 0.54375 0.0
C213 C 0.80476 0.90911 0.45699 0.0
O214 O 0.73604 0.8686 0.49352 0.0
Co215 Co 0.74303 0.9557 0.48378 0.0
O216 O 0.70539 0.91746 0.46837 0.0
C217 C 0.7453 0.94325 0.56597 0.0
C218 C 0.83253 0.86325 0.55139 0.0
C219 C 0.70751 0.88261 0.47667 0.0
O220 O 0.76181 0.91153 0.56033 0.0
O221 O 0.73842 0.96632 0.53939 0.0
O222 O 0.81017 0.87439 0.46694 0.0
O223 O 0.79023 0.93054 0.48274 0.0
Co224 Co 0.90417 0.99228 0.27168 0.0
O225 O 0.91181 0.96858 0.31959 0.0
O226 O 0.86022 0.99693 0.3028 0.0
C227 C 0.9267 0.94272 0.23719 0.0
O228 O 0.88488 0.01758 0.22386 0.0
Co229 Co 0.96997 1.01037 0.21897 0.0
O230 O 0.93057 0.01783 0.18092 0.0
C231 C 0.95736 0.05855 0.28673 0.0
C232 C 0.87777 0.97672 0.32736 0.0
C233 C 0.89693 0.02287 0.19009 0.0
O234 O 0.92563 0.04232 0.29212 0.0
O235 O 0.98 0.04761 0.26118 0.0
O236 O 0.8928 0.94233 0.24906 0.0
O237 O 0.9465 0.97146 0.24855 0.0
Co238 Co 0.25602 0.63458 0.52014 0.0
O239 O 0.20819 0.62449 0.54209 0.0
O240 O 0.23926 0.67816 0.55008 0.0
C241 C 0.23839 0.6125 0.46236 0.0
O242 O 0.30572 0.65533 0.49957 0.0
Co243 Co 0.3017 0.56852 0.48633 0.0
O244 O 0.3314 0.60961 0.46343 0.0
C245 C 0.29798 0.57972 0.56915 0.0
C246 C 0.20886 0.65877 0.55549 0.0
C247 C 0.33063 0.64358 0.47606 0.0
O248 O 0.28216 0.61195 0.56509 0.0
O249 O 0.30446 0.55684 0.54157 0.0
O250 O 0.23137 0.64708 0.47275 0.0
O251 O 0.25392 0.59205 0.48764 0.0
Co252 Co 0.39803 0.4983 0.77535 0.0
O253 O 0.40877 0.47643 0.82364 0.0
O254 O 0.35554 0.5024 0.80819 0.0
C255 C 0.42043 0.44844 0.7414 0.0
O256 O 0.37517 0.52134 0.72822 0.0
Co257 Co 0.45914 0.51707 0.71752 0.0
O258 O 0.41789 0.52776 0.68258 0.0
C259 C 0.44432 0.5713 0.7805 0.0
C260 C 0.3748 0.48371 0.83262 0.0
C261 C 0.38484 0.53008 0.69447 0.0
O262 O 0.41781 0.55005 0.79277 0.0
O263 O 0.46486 0.56201 0.75252 0.0
O264 O 0.3872 0.44763 0.75502 0.0
O265 O 0.44002 0.4782 0.75039 0.0
Co266 Co 0.64877 0.02678 0.77166 0.0
O267 O 0.65342 0.07499 0.74693 0.0
O268 O 0.6035 0.03823 0.7449 0.0
C269 C 0.67215 0.04847 0.82724 0.0
O270 O 0.63242 0.9763 0.79461 0.0
Co271 Co 0.71559 0.9835 0.80229 0.0
O272 O 0.67842 0.95272 0.82963 0.0
C273 C 0.70114 0.98409 0.71986 0.0
C274 C 0.6194 0.07007 0.73589 0.0
C275 C 0.64493 0.95222 0.81838 0.0
O276 O 0.66998 1.00027 0.72598 0.0
O277 O 0.72427 0.97703 0.74632 0.0
O278 O 0.63749 0.05289 0.81889 0.0
O279 O 0.69203 0.03257 0.80127 0.0
Co280 Co 0.75674 0.63786 1.0095 0.0
O281 O 0.71072 0.62914 0.98309 0.0
O282 O 0.72657 0.68302 0.01184 0.0
C283 C 0.79193 0.61314 0.96246 0.0
O284 O 0.80255 0.65827 0.0377 0.0
Co285 Co 0.80585 0.5724 0.0332 0.0
O286 O 0.84467 0.61219 0.03897 0.0
C287 C 0.74065 0.59047 0.0798 0.0
C288 C 0.70286 0.66413 0.99085 0.0
C289 C 0.83567 0.64665 0.04375 0.0
O290 O 0.73454 0.61884 0.05827 0.0
O291 O 0.76682 0.56712 0.07344 0.0
O292 O 0.78083 0.64788 0.96158 0.0
O293 O 0.77961 0.59336 0.99042 0.0
Co294 Co 0.89072 0.50551 0.78715 0.0
O295 O 0.88331 0.45792 0.81177 0.0
O296 O 0.93542 0.47576 0.78429 0.0
C297 C 0.86593 0.54052 0.83509 0.0
O298 O 0.90997 0.55308 0.76122 0.0
Co299 Co 0.82493 0.55567 0.76526 0.0
O300 O 0.86316 0.59254 0.74911 0.0
C301 C 0.84024 0.48696 0.7199 0.0
C302 C 0.91776 0.45108 0.80456 0.0
C303 C 0.89736 0.58438 0.74853 0.0
O304 O 0.87161 0.48334 0.73698 0.0
O305 O 0.8163 0.51153 0.72983 0.0
O306 O 0.90002 0.5296 0.83664 0.0
O307 O 0.8472 0.52798 0.80615 0.0
Co308 Co 0.77311 0.3832 0.50485 0.0
O309 O 0.81962 0.39099 0.4801 0.0
O310 O 0.80282 0.33769 0.50754 0.0
C311 C 0.73891 0.40736 0.457 0.0
O312 O 0.72653 0.36406 0.53167 0.0
Co313 Co 0.72422 0.45169 0.52584 0.0
O314 O 0.68784 0.41273 0.54129 0.0
C315 C 0.7868 0.43232 0.57594 0.0
C316 C 0.82692 0.35601 0.48734 0.0
C317 C 0.69574 0.3778 0.54353 0.0
O318 O 0.79421 0.40312 0.55503 0.0
O319 O 0.76149 0.45595 0.56797 0.0
O320 O 0.7498 0.37256 0.45561 0.0
O321 O 0.75124 0.42739 0.48538 0.0
Co322 Co 0.63742 0.51629 0.28646 0.0
O323 O 0.63004 0.49193 0.33446 0.0
O324 O 0.68134 0.48883 0.30115 0.0
C325 C 0.61405 0.57226 0.30606 0.0
O326 O 0.65647 0.53852 0.23662 0.0
Co327 Co 0.57293 0.54773 0.23922 0.0
O328 O 0.61195 0.57158 0.20821 0.0
C329 C 0.58785 0.46551 0.23714 0.0
C330 C 0.66367 0.4799 0.33181 0.0
C331 C 0.64528 0.56058 0.21022 0.0
O332 O 0.61647 0.47048 0.25859 0.0
O333 O 0.56629 0.49224 0.22761 0.0
O334 O 0.64841 0.56419 0.31271 0.0
O335 O 0.59457 0.54601 0.28936 0.0
C336 C 0.09157 0.3989 0.31399 0.0
C337 C 0.11682 0.41769 0.33849 0.0
C338 C 0.06984 0.36822 0.32639 0.0
C339 C 0.07179 0.35594 0.36403 0.0
H340 H 0.08934 0.40726 0.28472 0.0
H341 H 0.05105 0.35432 0.30649 0.0
S342 S 0.13283 0.39594 0.43962 0.0
N343 N 0.14243 0.42163 0.4022 0.0
N344 N 0.10067 0.36505 0.42572 0.0
C345 C 0.09637 0.37489 0.38896 0.0
C346 C 0.11913 0.40546 0.37614 0.0
C347 C 0.90084 0.79459 0.59632 0.0
C348 C 0.92612 0.8192 0.61508 0.0
C349 C 0.87012 0.80876 0.57635 0.0
C350 C 0.86401 0.84805 0.5739 0.0
H351 H 0.90419 0.76423 0.59808 0.0
H352 H 0.85124 0.78885 0.56252 0.0
S353 S 0.92297 0.92408 0.61764 0.0
N354 N 0.94317 0.88441 0.62982 0.0
N355 N 0.88659 0.91109 0.59192 0.0
C356 C 0.88964 0.87275 0.59213 0.0
C357 C 0.92033 0.85833 0.6128 0.0
C358 C 0.45682 0.61619 0.83578 0.0
C359 C 0.45057 0.60987 0.79682 0.0
C360 C 0.46993 0.65172 0.84958 0.0
C361 C 0.47704 0.68184 0.82478 0.0
H362 H 0.45382 0.59301 0.85527 0.0
H363 H 0.47688 0.65479 0.87932 0.0
S364 S 0.45815 0.68146 0.72152 0.0
N365 N 0.4475 0.63805 0.73471 0.0
N366 N 0.47179 0.70424 0.76039 0.0
C367 C 0.46786 0.67651 0.78637 0.0
C368 C 0.45473 0.64067 0.77245 0.0
C369 C 0.65437 0.21363 0.1223 0.0
C370 C 0.61877 0.20582 0.10711 0.0
C371 C 0.68639 0.19707 0.10688 0.0
C372 C 0.68399 0.17111 0.07638 0.0
H373 H 0.65766 0.2333 0.14594 0.0
H374 H 0.7131 0.20432 0.11917 0.0
S375 S 0.59772 0.14118 0.02592 0.0
N376 N 0.58349 0.17089 0.05919 0.0
N377 N 0.64305 0.13888 0.03109 0.0
C378 C 0.64856 0.16284 0.06113 0.0
C379 C 0.61616 0.18041 0.07622 0.0
C380 C 0.06024 0.59614 0.22352 0.0
C381 C 0.09867 0.59361 0.2181 0.0
C382 C 0.04066 0.62827 0.21252 0.0
C383 C 0.05848 0.65896 0.19488 0.0
H384 H 0.04533 0.57389 0.23797 0.0
H385 H 1.01131 0.62929 0.21843 0.0
S386 S 0.15823 0.66506 0.17113 0.0
N387 N 0.15355 0.62378 0.19203 0.0
N388 N 0.11654 0.68367 0.17043 0.0
C389 C 0.09656 0.65599 0.1875 0.0
C390 C 0.11669 0.62351 0.19938 0.0
C391 C 0.60764 0.85538 0.45443 0.0
C392 C 0.61102 0.82238 0.43214 0.0
C393 C 0.63897 0.87317 0.47091 0.0
C394 C 0.67484 0.85846 0.4661 0.0
H395 H 0.58105 0.86899 0.45695 0.0
H396 H 0.63529 0.89976 0.48609 0.0
S397 S 0.6979 0.77096 0.41253 0.0
N398 N 0.65258 0.77448 0.40765 0.0
N399 N 0.71123 0.8074 0.43942 0.0
C400 C 0.67818 0.82408 0.44598 0.0
C401 C 0.64634 0.80628 0.4287 0.0
C402 C 0.48003 0.38951 0.67511 0.0
C403 C 0.47063 0.35206 0.68473 0.0
C404 C 0.46359 0.42063 0.69342 0.0
C405 C 0.4363 0.4154 0.72112 0.0
H406 H 0.50115 0.39486 0.65415 0.0
H407 H 0.47229 0.44897 0.68582 0.0
S408 S 0.4007 0.32306 0.75529 0.0
N409 N 0.43201 0.31156 0.72337 0.0
N410 N 0.39997 0.36982 0.75662 0.0
C411 C 0.42587 0.37808 0.73015 0.0
C412 C 0.44335 0.34646 0.71228 0.0
C413 C 0.92015 0.20566 0.97153 0.0
C414 C 0.92885 0.20734 0.9327 0.0
C415 C 0.88821 0.18616 0.98421 0.0
C416 C 0.86418 0.16714 0.95855 0.0
H417 H 0.93799 0.21968 0.99224 0.0
H418 H 0.88305 0.18482 0.01433 0.0
S419 S 0.87409 0.16303 0.85412 0.0
N420 N 0.91008 0.18853 0.86887 0.0
N421 N 0.85106 0.15179 0.89262 0.0
C422 C 0.87248 0.16894 0.91978 0.0
C423 C 0.90449 0.18901 0.90689 0.0
C424 C 0.33738 0.0683 0.43281 0.0
C425 C 0.3129 0.09841 0.42732 0.0
C426 C 0.35519 0.05065 0.40201 0.0
C427 C 0.3482 0.06166 0.36456 0.0
H428 H 0.34286 0.05835 0.46109 0.0
H429 H 0.3736 0.02738 0.40747 0.0
S430 S 0.28676 0.13916 0.33496 0.0
N431 N 0.28345 0.13909 0.38154 0.0
N432 N 0.31568 0.10494 0.32387 0.0
C433 C 0.32393 0.09177 0.35875 0.0
C434 C 0.30663 0.11042 0.39008 0.0
C435 C 0.16745 0.09633 0.64835 0.0
C436 C 0.17664 0.06917 0.67561 0.0
C437 C 0.1907 0.10406 0.61761 0.0
C438 C 0.22423 0.08487 0.61237 0.0
H439 H 0.14171 0.11157 0.65034 0.0
H440 H 0.18179 0.1248 0.59735 0.0
S441 S 0.2627 0.01276 0.67675 0.0
N442 N 0.22283 0.02426 0.69606 0.0
N443 N 0.26641 0.03868 0.63849 0.0
C444 C 0.23433 0.05831 0.63993 0.0
C445 C 0.21067 0.05057 0.67142 0.0
C446 C 0.20695 0.93104 0.85366 0.0
C447 C 0.17806 0.9568 0.85974 0.0
C448 C 0.22426 0.91291 0.88411 0.0
C449 C 0.21409 0.92073 0.92183 0.0
H450 H 0.21639 0.92499 0.82518 0.0
H451 H 0.24673 0.89374 0.87813 0.0
S452 S 0.13962 0.98517 0.95312 0.0
N453 N 0.13928 0.98803 0.90655 0.0
N454 N 0.17268 0.95515 0.96341 0.0
C455 C 0.18503 0.94604 0.92824 0.0
C456 C 0.16679 0.96372 0.8973 0.0
C457 C 0.30352 0.99017 0.1113 0.0
C458 C 0.3026 0.95099 0.10349 0.0
C459 C 0.31757 1.00485 0.14544 0.0
C460 C 0.33146 0.98117 0.17368 0.0
H461 H 0.29208 1.00984 0.09129 0.0
H462 H 0.31641 0.03521 0.15019 0.0
S463 S 0.33912 0.87672 0.16618 0.0
N464 N 0.31972 0.88872 0.12572 0.0
N465 N 0.34636 0.91663 0.19036 0.0
C466 C 0.33315 0.94209 0.16548 0.0
C467 C 0.31866 0.92694 0.13031 0.0
C468 C 0.36259 0.31373 0.10246 0.0
C469 C 0.36902 0.33771 0.07174 0.0
C470 C 0.39217 0.29964 0.12396 0.0
C471 C 0.42935 0.30788 0.11481 0.0
H472 H 0.33451 0.30709 0.11091 0.0
H473 H 0.38589 0.28254 0.14834 0.0
S474 S 0.46111 0.36721 0.03554 0.0
N475 N 0.4155 0.36802 0.03251 0.0
N476 N 0.47079 0.34028 0.07198 0.0
C477 C 0.43614 0.33043 0.08321 0.0
C478 C 0.40607 0.34568 0.06197 0.0
C479 C 0.95001 0.84153 0.20847 0.0
C480 C 0.97671 0.84643 0.1801 0.0
C481 C 0.9329 0.87288 0.22577 0.0
C482 C 0.94284 0.91022 0.21623 0.0
H483 H 0.94219 0.8133 0.21724 0.0
H484 H 0.9126 0.86787 0.24765 0.0
S485 S 1.01142 0.93823 0.14386 0.0
N486 N 1.01174 0.89146 0.14273 0.0
N487 N 0.98094 0.95014 0.17646 0.0
C488 C 0.96954 0.91541 0.18799 0.0
C489 C 0.9861 0.88357 0.16958 0.0
C490 C 0.1774 0.70289 0.60162 0.0
C491 C 0.17498 0.67548 0.57245 0.0
C492 C 0.14531 0.71845 0.61776 0.0
C493 C 0.10957 0.70808 0.60462 0.0
H494 H 0.20421 0.71203 0.61239 0.0
H495 H 0.14862 0.73935 0.64034 0.0
S496 S 0.0882 0.63854 0.52771 0.0
N497 N 0.13381 0.63888 0.53072 0.0
N498 N 0.07394 0.66914 0.56016 0.0
C499 C 0.10684 0.68118 0.57505 0.0
C500 C 0.1394 0.66463 0.55925 0.0
C501 C 0.97843 0.65306 0.74061 0.0
C502 C 0.96916 0.67365 0.70828 0.0
C503 C 0.95625 0.62244 0.7523 0.0
C504 C 0.92341 0.61256 0.7328 0.0
H505 H 1.00218 0.66155 0.75768 0.0
H506 H 0.96366 0.60791 0.77795 0.0
S507 S 0.88784 0.65711 0.64581 0.0
N508 N 0.92624 0.68106 0.65605 0.0
N509 N 0.88379 0.62462 0.67868 0.0
C510 C 0.91456 0.6323 0.69982 0.0
C511 C 0.93765 0.66263 0.6874 0.0
C512 C 0.14362 0.17317 0.46786 0.0
C513 C 0.17625 0.1925 0.47917 0.0
C514 C 0.11552 0.19174 0.44811 0.0
C515 C 0.11954 0.22997 0.43832 0.0
H516 H 0.14027 0.14322 0.47325 0.0
H517 H 0.09151 0.17552 0.43853 0.0
S518 S 0.19829 0.29393 0.46269 0.0
N519 N 0.20964 0.25288 0.48095 0.0
N520 N 0.15737 0.28704 0.4426 0.0
C521 C 0.15124 0.24996 0.45052 0.0
C522 C 0.17946 0.23141 0.47137 0.0
C523 C 0.56822 0.42304 0.18354 0.0
C524 C 0.5797 0.42732 0.2215 0.0
C525 C 0.56016 0.38716 0.16781 0.0
C526 C 0.56223 0.35454 0.18984 0.0
H527 H 0.56591 0.44758 0.16571 0.0
H528 H 0.55172 0.38502 0.13839 0.0
S529 S 0.59059 0.35056 0.29072 0.0
N530 N 0.59314 0.39601 0.28056 0.0
N531 N 0.57664 0.32861 0.25145 0.0
C532 C 0.57334 0.35845 0.22792 0.0
C533 C 0.58249 0.39486 0.24363 0.0
C534 C 0.37836 0.81338 0.98368 0.0
C535 C 0.36317 0.8471 0.96996 0.0
C536 C 0.4102 0.79753 0.9673 0.0
C537 C 0.42749 0.81437 0.93606 0.0
H538 H 0.36554 0.79907 1.00721 0.0
H539 H 0.42098 0.77163 0.97879 0.0
S540 S 0.39913 0.90325 0.88976 0.0
N541 N 0.36854 0.8971 0.92366 0.0
N542 N 0.42753 0.86723 0.89273 0.0
C543 C 0.41265 0.84818 0.92226 0.0
C544 C 0.38076 0.86457 0.93925 0.0
C545 C 0.96669 0.40108 0.80516 0.0
C546 C 0.93685 0.41929 0.82281 0.0
C547 C 0.98469 0.37083 0.82264 0.0
C548 C 0.97411 0.35846 0.85877 0.0
H549 H 0.97567 0.40973 0.77738 0.0
H550 H 1.00687 0.35688 0.8076 0.0
S551 S 0.89965 0.39943 0.91827 0.0
N552 N 0.89881 0.42427 0.87916 0.0
N553 N 0.93298 0.36843 0.91229 0.0
C554 C 0.94515 0.37751 0.8772 0.0
C555 C 0.92642 0.40763 0.85913 0.0
C556 C 0.40659 0.16874 0.55834 0.0
C557 C 0.36836 0.17591 0.55999 0.0
C558 C 0.43224 0.19123 0.57886 0.0
C559 C 0.4205 0.22123 0.60235 0.0
H560 H 0.41672 0.14492 0.5419 0.0
H561 H 0.46118 0.18368 0.57804 0.0
S562 S 0.32422 0.25419 0.61411 0.0
N563 N 0.32058 0.21742 0.58481 0.0
N564 N 0.36875 0.25889 0.62389 0.0
C565 C 0.38269 0.22987 0.60287 0.0
C566 C 0.35663 0.20745 0.58153 0.0
C567 C 0.60486 0.67682 0.32904 0.0
C568 C 0.5676 0.67988 0.33998 0.0
C569 C 0.61987 0.64175 0.31877 0.0
C570 C 0.59785 0.6087 0.31798 0.0
H571 H 0.62257 0.70179 0.32841 0.0
H572 H 0.64867 0.64067 0.31052 0.0
S573 S 0.49886 0.60147 0.34475 0.0
N574 N 0.50935 0.64688 0.35054 0.0
N575 N 0.53712 0.58098 0.32994 0.0
C576 C 0.56059 0.61132 0.32906 0.0
C577 C 0.54558 0.64692 0.34048 0.0
C578 C 0.14405 0.80722 0.10742 0.0
C579 C 0.11255 0.79372 0.08756 0.0
C580 C 0.17165 0.82853 0.08929 0.0
C581 C 0.16835 0.83752 0.05087 0.0
H582 H 0.14674 0.80254 0.13751 0.0
H583 H 0.19462 0.83986 0.10592 0.0
S584 S 0.09288 0.80749 0.98551 0.0
N585 N 0.0812 0.78906 0.02648 0.0
N586 N 0.13257 0.83012 0.99305 0.0
C587 C 0.13798 0.823 0.03032 0.0
C588 C 0.11023 0.80071 0.04849 0.0
C589 C 0.74987 0.93705 0.63647 0.0
C590 C 0.73309 0.95354 0.60487 0.0
C591 C 0.73927 0.94697 0.67343 0.0
C592 C 0.71112 0.97343 0.68035 0.0
H593 H 0.77178 0.9167 0.63272 0.0
H594 H 0.7533 0.93365 0.69676 0.0
S595 S 0.65747 0.02397 0.60732 0.0
N596 N 0.68615 0.9971 0.58297 0.0
N597 N 0.66633 0.01562 0.65221 0.0
C598 C 0.69372 0.98973 0.64896 0.0
C599 C 0.7047 0.97987 0.61134 0.0
C600 C 0.82928 0.97752 0.37829 0.0
C601 C 0.85889 0.95942 0.3601 0.0
C602 C 0.81139 0.96085 0.40929 0.0
C603 C 0.8218 0.92503 0.42244 0.0
H604 H 0.82035 1.00503 0.36899 0.0
H605 H 0.78934 0.97618 0.42312 0.0
S606 S 0.89602 0.86475 0.38249 0.0
N607 N 0.8968 0.90308 0.35644 0.0
N608 N 0.86281 0.87149 0.41366 0.0
C609 C 0.85064 0.90621 0.40361 0.0
C610 C 0.86928 0.92348 0.37274 0.0
C611 C 0.85656 0.03239 0.09222 0.0
C612 C 0.82815 0.0591 0.09669 0.0
C613 C 0.87768 0.02052 0.12281 0.0
C614 C 0.87129 0.03429 0.15962 0.0
H615 H 0.86353 0.02104 0.06455 0.0
H616 H 0.89958 1.00048 0.11739 0.0
S617 S 0.79924 0.10294 0.18784 0.0
N618 N 0.79395 0.09806 0.14154 0.0
N619 N 0.83366 0.075 0.19955 0.0
C620 C 0.84227 0.05999 0.16514 0.0
C621 C 0.82083 0.07266 0.13358 0.0
C622 C 0.72292 0.05142 0.87542 0.0
C623 C 0.68894 0.06497 0.86207 0.0
C624 C 0.73981 0.06724 0.9079 0.0
C625 C 0.72379 0.0978 0.92754 0.0
H626 H 0.73637 0.02812 0.86096 0.0
H627 H 0.76564 0.05551 0.91764 0.0
S628 S 0.63527 0.14407 0.90401 0.0
N629 N 0.63987 0.11079 0.87106 0.0
N630 N 0.6721 0.14101 0.93151 0.0
C631 C 0.69012 0.11199 0.91422 0.0
C632 C 0.67252 0.09539 0.88165 0.0
C633 C 0.63289 0.68571 0.91463 0.0
C634 C 0.61712 0.71982 0.92709 0.0
C635 C 0.65915 0.66717 0.93656 0.0
C636 C 0.6715 0.68247 0.97148 0.0
H637 H 0.62515 0.67342 0.88739 0.0
H638 H 0.67097 0.64138 0.92516 0.0
S639 S 0.63772 0.77055 0.0175 0.0
N640 N 0.6142 0.76743 0.97733 0.0
N641 N 0.66484 0.73321 0.0182 0.0
C642 C 0.6554 0.71622 0.98473 0.0
C643 C 0.62783 0.7347 0.96266 0.0
C644 C 0.12357 0.14114 0.81622 0.0
C645 C 0.10064 0.10879 0.81354 0.0
C646 C 0.10915 0.17644 0.82678 0.0
C647 C 0.07156 0.18034 0.83615 0.0
H648 H 0.15268 0.13934 0.80933 0.0
H649 H 0.1276 0.20087 0.82783 0.0
S650 S 1.00025 0.1041 0.83517 0.0
N651 N 0.03853 0.08278 0.82165 0.0
N652 N 1.01189 0.14896 0.84283 0.0
C653 C 0.04854 0.1481 0.83453 0.0
C654 C 0.06297 0.11235 0.82282 0.0
C655 C 0.90853 0.29049 0.46997 0.0
C656 C 0.92189 0.30268 0.43471 0.0
C657 C 0.87735 0.30725 0.48685 0.0
C658 C 0.85911 0.33737 0.46948 0.0
H659 H 0.92242 0.2681 0.4848 0.0
H660 H 0.86806 0.29719 0.51403 0.0
S661 S 0.88155 0.37857 0.37623 0.0
N662 N 0.91291 0.34569 0.38234 0.0
N663 N 0.85536 0.37732 0.41427 0.0
C664 C 0.87177 0.3493 0.434 0.0
C665 C 0.90287 0.33192 0.41657 0.0
C666 C 0.62274 0.90922 0.86949 0.0
C667 C 0.62031 0.92132 0.8318 0.0
C668 C 0.60064 0.87916 0.88257 0.0
C669 C 0.57616 0.85928 0.85814 0.0
H670 H 0.64164 0.92334 0.88915 0.0
H671 H 0.60312 0.8711 0.9119 0.0
S672 S 0.55997 0.87923 0.75667 0.0
N673 N 0.59134 0.9111 0.77027 0.0
N674 N 0.55082 0.85385 0.79441 0.0
C675 C 0.57376 0.87082 0.82029 0.0
C676 C 0.59553 0.90206 0.80725 0.0
C677 C 0.95729 0.15807 0.33035 0.0
C678 C 0.99525 0.16446 0.33747 0.0
C679 C 0.94422 0.12259 0.31639 0.0
C680 C 0.96878 0.09258 0.30938 0.0
H681 H 0.938 0.18113 0.33349 0.0
H682 H 0.91525 0.1194 0.3089 0.0
S683 S 0.06943 0.09311 0.3306 0.0
N684 N 0.05611 0.13645 0.3415 0.0
N685 N 0.0318 0.07032 0.31575 0.0
C686 C 1.00619 0.09801 0.31939 0.0
C687 C 0.01936 0.13381 0.33329 0.0
C688 C 0.55996 0.10321 0.72398 0.0
C689 C 0.59843 0.10139 0.71876 0.0
C690 C 0.54011 0.13537 0.71375 0.0
C691 C 0.55775 0.16679 0.69721 0.0
H692 H 0.54524 0.08036 0.73769 0.0
H693 H 0.51069 0.13579 0.71941 0.0
S694 S 0.65753 0.17468 0.67406 0.0
N695 N 0.65316 0.13278 0.69377 0.0
N696 N 0.61567 0.19288 0.67374 0.0
C697 C 0.5959 0.16452 0.68995 0.0
C698 C 0.61627 0.13195 0.70097 0.0
C699 C 0.14369 0.37052 0.9737 0.0
C700 C 0.17961 0.35597 0.96892 0.0
C701 C 0.11249 0.35257 0.9572 0.0
C702 C 0.11604 0.31953 0.93504 0.0
H703 H 0.13984 0.39705 0.98892 0.0
H704 H 0.08586 0.36612 0.9596 0.0
S705 S 0.2031 0.26845 0.91554 0.0
N706 N 0.21626 0.30498 0.94242 0.0
N707 N 0.15777 0.27178 0.91061 0.0
C708 C 0.15139 0.30355 0.93163 0.0
C709 C 0.18314 0.32154 0.9489 0.0
C710 C 0.40208 0.68864 0.41186 0.0
C711 C 0.42502 0.70982 0.43685 0.0
C712 C 0.37106 0.66843 0.42481 0.0
C713 C 0.36086 0.66929 0.46319 0.0
H714 H 0.40848 0.68708 0.38197 0.0
H715 H 0.35498 0.6517 0.40453 0.0
S716 S 0.41081 0.72101 0.54038 0.0
N717 N 0.43504 0.7306 0.50208 0.0
N718 N 0.37607 0.69331 0.52618 0.0
C719 C 0.38299 0.69093 0.48849 0.0
C720 C 0.41523 0.71092 0.47541 0.0
C721 C 0.85744 0.5518 0.90468 0.0
C722 C 0.84822 0.56081 0.86712 0.0
C723 C 0.839 0.56858 0.93555 0.0
C724 C 0.81162 0.59585 0.92992 0.0
H725 H 0.87828 0.5308 0.91022 0.0
H726 H 0.8464 0.56038 0.96397 0.0
S727 S 0.77818 0.6301 0.83725 0.0
N728 N 0.81004 0.59875 0.82618 0.0
N729 N 0.77654 0.63143 0.88394 0.0
C730 C 0.80282 0.60571 0.89254 0.0
C731 C 0.8208 0.58786 0.86119 0.0
C732 C 0.70227 0.54886 0.17117 0.0
C733 C 0.67091 0.57089 0.17881 0.0
C734 C 0.72456 0.5555 0.13939 0.0
C735 C 0.71671 0.58467 0.11381 0.0
H736 H 0.70918 0.5255 0.18928 0.0
H737 H 0.748 0.53724 0.13475 0.0
S738 S 0.63926 0.65254 0.12252 0.0
N739 N 0.63432 0.62459 0.15916 0.0
N740 N 0.67596 0.63706 0.09974 0.0
C741 C 0.686 0.60767 0.12179 0.0
C742 C 0.66324 0.60082 0.1541 0.0
C743 C 0.7375 0.43234 0.39142 0.0
C744 C 0.71881 0.42438 0.4252 0.0
C745 C 0.71931 0.44959 0.36109 0.0
C746 C 0.68164 0.45919 0.3633 0.0
H747 H 0.76657 0.42575 0.38869 0.0
H748 H 0.7351 0.4559 0.33595 0.0
S749 S 0.61991 0.44102 0.44513 0.0
N750 N 0.66062 0.42539 0.4588 0.0
N751 N 0.62596 0.45717 0.40197 0.0
C752 C 0.66249 0.4502 0.39679 0.0
C753 C 0.68121 0.43298 0.42771 0.0
C754 C 0.85395 0.46435 0.65359 0.0
C755 C 0.83102 0.46371 0.68574 0.0
C756 C 0.84073 0.45132 0.61794 0.0
C757 C 0.80437 0.43709 0.61366 0.0
H758 H 0.88111 0.47758 0.65537 0.0
H759 H 0.85812 0.45469 0.59331 0.0
S760 S 0.73563 0.42439 0.68997 0.0
N761 N 0.77187 0.444 0.71151 0.0
N762 N 0.74736 0.41943 0.64508 0.0
C763 C 0.78244 0.43374 0.64612 0.0
C764 C 0.79569 0.44704 0.68205 0.0
C765 C 0.45932 0.12422 0.25615 0.0
C766 C 0.43005 0.11136 0.23285 0.0
C767 C 0.4831 0.15348 0.24443 0.0
C768 C 0.47906 0.16981 0.20858 0.0
H769 H 0.46235 0.11336 0.28448 0.0
H770 H 0.5036 0.16472 0.26421 0.0
S771 S 0.40896 0.14307 0.13581 0.0
N772 N 0.39968 0.11511 0.17166 0.0
N773 N 0.44523 0.16907 0.14905 0.0
C774 C 0.45156 0.15515 0.18407 0.0
C775 C 0.42676 0.12618 0.1964 0.0
C776 C 0.06854 0.86149 0.72245 0.0
C777 C 0.05564 0.85722 0.68499 0.0
C778 C 0.07917 0.89716 0.73716 0.0
C779 C 0.07618 0.92982 0.71522 0.0
H780 H 0.07113 0.83698 0.74027 0.0
H781 H 0.08923 0.89927 0.76605 0.0
S782 S 0.04299 0.9337 0.6158 0.0
N783 N 0.0403 0.88837 0.62636 0.0
N784 N 0.05905 0.95561 0.65423 0.0
C785 C 0.06278 0.9259 0.67787 0.0
C786 C 0.05283 0.88952 0.66268 0.0
C787 C 0.43459 0.87149 0.36638 0.0
C788 C 0.46724 0.85592 0.35164 0.0
C789 C 0.41606 0.90046 0.34769 0.0
C790 C 0.42983 0.91559 0.3139 0.0
H791 H 0.42283 0.86085 0.39232 0.0
H792 H 0.39122 0.91171 0.36043 0.0
S793 S 0.5144 0.88487 0.26351 0.0
N794 N 0.51234 0.85747 0.30089 0.0
N795 N 0.47814 0.91276 0.26636 0.0
C796 C 0.46253 0.9004 0.29888 0.0
C797 C 0.48105 0.87037 0.31757 0.0
C798 C 0.85307 0.69892 0.08931 0.0
C799 C 0.86355 0.67281 0.06101 0.0
C800 C 0.87975 0.71922 0.11068 0.0
C801 C 0.91788 0.71475 0.10402 0.0
H802 H 0.82415 0.70219 0.09643 0.0
H803 H 0.87043 0.73779 0.1333 0.0
S804 S 0.95934 0.65301 0.02991 0.0
N805 N 0.91433 0.64572 0.02534 0.0
N806 N 0.96444 0.68435 0.06479 0.0
C807 C 0.92855 0.69048 0.07411 0.0
C808 C 0.9014 0.66936 0.05284 0.0
C809 C 0.62888 0.29752 0.56767 0.0
C810 C 0.61353 0.31051 0.60205 0.0
C811 C 0.65684 0.31842 0.54933 0.0
C812 C 0.66945 0.35344 0.56428 0.0
H813 H 0.61881 0.27141 0.55456 0.0
H814 H 0.66751 0.30793 0.52261 0.0
S815 S 0.63939 0.39946 0.65386 0.0
N816 N 0.61455 0.36 0.65087 0.0
N817 N 0.66576 0.3994 0.61589 0.0
C818 C 0.65494 0.36621 0.59892 0.0
C819 C 0.62733 0.34471 0.61795 0.0
C820 C 0.20935 0.46983 0.11806 0.0
C821 C 0.2368 0.44243 0.11172 0.0
C822 C 0.19684 0.47861 0.15453 0.0
C823 C 0.21146 0.46065 0.18633 0.0
H824 H 0.19735 0.48489 0.09464 0.0
H825 H 0.17622 0.50042 0.1578 0.0
S826 S 0.28237 0.38525 0.18531 0.0
N827 N 0.27712 0.39622 0.14042 0.0
N828 N 0.25371 0.41271 0.20906 0.0
C829 C 0.23832 0.43252 0.18045 0.0
C830 C 0.25092 0.42339 0.14318 0.0
C831 C 0.37241 0.43282 0.88058 0.0
C832 C 0.35762 0.46642 0.86626 0.0
C833 C 0.35547 0.41379 0.91048 0.0
C834 C 0.3235 0.428 0.92781 0.0
H835 H 0.39696 0.42062 0.86813 0.0
H836 H 0.36806 0.38816 0.92063 0.0
S837 S 0.27367 0.51487 0.90106 0.0
N838 N 0.30872 0.51279 0.87131 0.0
N839 N 0.27752 0.47765 0.92844 0.0
C840 C 0.30847 0.46166 0.91396 0.0
C841 C 0.32534 0.48068 0.88294 0.0
C842 C 0.31325 0.531 0.61681 0.0
C843 C 0.31329 0.56936 0.60637 0.0
C844 C 0.33458 0.51872 0.64739 0.0
C845 C 0.35695 0.54434 0.66815 0.0
H846 H 0.29794 0.51005 0.60012 0.0
H847 H 0.33522 0.48875 0.65344 0.0
S848 S 0.36564 0.64773 0.6539 0.0
N849 N 0.33611 0.63308 0.6208 0.0
N850 N 0.37677 0.60969 0.67783 0.0
C851 C 0.35598 0.5829 0.65929 0.0
C852 C 0.33385 0.59555 0.62854 0.0
C853 C 0.17369 0.59195 0.37989 0.0
C854 C 0.1894 0.55991 0.3625 0.0
C855 C 0.19057 0.60971 0.41136 0.0
C856 C 0.22334 0.59557 0.42702 0.0
H857 H 0.1484 0.60376 0.36883 0.0
H858 H 0.17732 0.63412 0.42407 0.0
S859 S 0.27561 0.51246 0.3921 0.0
N860 N 0.23994 0.5151 0.36298 0.0
N861 N 0.27103 0.54785 0.42274 0.0
C862 C 0.23929 0.56354 0.40999 0.0
C863 C 0.22249 0.54587 0.37754 0.0
loop_
_geom_bond_atom_site_label_1
_geom_bond_atom_site_label_2
_geom_bond_distance
_geom_bond_site_symmetry_2
_ccdc_geom_bond_type
Co0 O1 2.195 1_455 S
Co0 O2 2.077 1_455 S
Co0 O4 2.023 . S
Co0 O10 2.012 1_455 S
Co0 O12 2.147 . S
Co0 O13 2.255 . S
O1 Co0 2.195 1_655 S
O1 C8 1.247 . S
O2 Co0 2.077 1_655 S
O2 C8 1.261 . S
C3 O12 1.247 . S
C3 O13 1.272 . S
O4 Co0 2.023 . S
O4 C9 1.259 . S
Co5 O6 2.061 . S
Co5 O11 2.052 . S
Co5 O13 2.135 . S
O6 Co5 2.061 . S
O6 C9 1.235 . S
C7 O10 1.238 . S
C7 O11 1.241 1_655 S
C8 O1 1.247 . S
C8 O2 1.261 . S
C9 O4 1.259 . S
C9 O6 1.235 . S
O10 Co0 2.012 1_655 S
O10 C7 1.238 . S
O11 Co5 2.052 . S
O11 C7 1.241 1_455 S
O12 Co0 2.147 . S
O12 C3 1.247 . S
O13 Co0 2.255 . S
O13 C3 1.272 . S
O13 Co5 2.135 . S
Co14 O15 2.216 . S
Co14 O16 2.091 . S
Co14 O18 2.004 1_455 S
Co14 O24 2.021 1_455 S
Co14 O26 2.137 . S
Co14 O27 2.244 . S
O15 Co14 2.216 . S
O15 C22 1.247 . S
O16 Co14 2.091 . S
O16 C22 1.261 . S
C17 O26 1.247 . S
C17 O27 1.272 . S
O18 Co14 2.004 1_655 S
O18 C23 1.259 . S
Co19 O20 2.061 . S
Co19 O25 2.052 . S
Co19 O27 2.135 1_655 S
O20 Co19 2.061 . S
O20 C23 1.235 . S
C21 O24 1.238 . S
C21 O25 1.241 . S
C22 O15 1.247 . S
C22 O16 1.261 . S
C23 O18 1.259 . S
C23 O20 1.235 . S
O24 Co14 2.021 1_655 S
O24 C21 1.238 . S
O25 Co19 2.052 . S
O25 C21 1.241 . S
O26 Co14 2.137 . S
O26 C17 1.247 . S
O27 Co14 2.244 . S
O27 C17 1.272 . S
O27 Co19 2.135 1_455 S
Co28 O29 2.216 . S
Co28 O30 2.091 . S
Co28 O32 2.004 . S
Co28 O38 2.021 . S
Co28 O40 2.137 . S
Co28 O41 2.244 . S
O29 Co28 2.216 . S
O29 C36 1.247 . S
O30 Co28 2.091 . S
O30 C36 1.261 . S
C31 O40 1.247 . S
C31 O41 1.272 . S
O32 Co28 2.004 . S
O32 C37 1.259 . S
Co33 O34 2.061 . S
Co33 O39 2.052 . S
Co33 O41 2.135 . S
O34 Co33 2.061 . S
O34 C37 1.235 . S
C35 O38 1.238 . S
C35 O39 1.241 . S
C36 O29 1.247 . S
C36 O30 1.261 . S
C37 O32 1.259 . S
C37 O34 1.235 . S
O38 Co28 2.021 . S
O38 C35 1.238 . S
O39 Co33 2.052 . S
O39 C35 1.241 . S
O40 Co28 2.137 . S
O40 C31 1.247 . S
O41 Co28 2.244 . S
O41 C31 1.272 . S
O41 Co33 2.135 . S
Co42 O43 2.216 . S
Co42 O44 2.091 . S
Co42 O46 2.004 . S
Co42 O52 2.021 . S
Co42 O54 2.137 . S
Co42 O55 2.244 . S
O43 Co42 2.216 . S
O43 C50 1.247 . S
O44 Co42 2.091 . S
O44 C50 1.261 . S
C45 O54 1.247 . S
C45 O55 1.272 . S
O46 Co42 2.004 . S
O46 C51 1.259 . S
Co47 O48 2.061 . S
Co47 O53 2.052 . S
Co47 O55 2.135 . S
O48 Co47 2.061 . S
O48 C51 1.235 . S
C49 O52 1.238 . S
C49 O53 1.241 . S
C50 O43 1.247 . S
C50 O44 1.261 . S
C51 O46 1.259 . S
C51 O48 1.235 . S
O52 Co42 2.021 . S
O52 C49 1.238 . S
O53 Co47 2.052 . S
O53 C49 1.241 . S
O54 Co42 2.137 . S
O54 C45 1.247 . S
O55 Co42 2.244 . S
O55 C45 1.272 . S
O55 Co47 2.135 . S
Co56 O57 2.216 . S
Co56 O58 2.091 . S
Co56 O60 2.004 1_455 S
Co56 O66 2.021 . S
Co56 O68 2.137 1_455 S
Co56 O69 2.244 1_455 S
O57 Co56 2.216 . S
O57 C64 1.247 . S
O58 Co56 2.091 . S
O58 C64 1.261 . S
C59 O68 1.247 . S
C59 O69 1.272 . S
O60 Co56 2.004 1_655 S
O60 C65 1.259 . S
Co61 O62 2.061 . S
Co61 O67 2.052 1_655 S
Co61 O69 2.135 . S
O62 Co61 2.061 . S
O62 C65 1.235 . S
C63 O66 1.238 . S
C63 O67 1.241 . S
C64 O57 1.247 . S
C64 O58 1.261 . S
C65 O60 1.259 . S
C65 O62 1.235 . S
O66 Co56 2.021 . S
O66 C63 1.238 . S
O67 Co61 2.052 1_455 S
O67 C63 1.241 . S
O68 Co56 2.137 1_655 S
O68 C59 1.247 . S
O69 Co56 2.244 1_655 S
O69 C59 1.272 . S
O69 Co61 2.135 . S
Co70 O71 2.216 . S
Co70 O72 2.091 . S
Co70 O74 2.004 . S
Co70 O80 2.021 . S
Co70 O82 2.137 . S
Co70 O83 2.244 . S
O71 Co70 2.216 . S
O71 C78 1.247 . S
O72 Co70 2.091 . S
O72 C78 1.261 . S
C73 O82 1.247 . S
C73 O83 1.272 . S
O74 Co70 2.004 . S
O74 C79 1.259 . S
Co75 O76 2.061 . S
Co75 O81 2.052 . S
Co75 O83 2.135 . S
O76 Co75 2.061 . S
O76 C79 1.235 . S
C77 O80 1.238 . S
C77 O81 1.241 . S
C78 O71 1.247 . S
C78 O72 1.261 . S
C79 O74 1.259 . S
C79 O76 1.235 . S
O80 Co70 2.021 . S
O80 C77 1.238 . S
O81 Co75 2.052 . S
O81 C77 1.241 . S
O82 Co70 2.137 . S
O82 C73 1.247 . S
O83 Co70 2.244 . S
O83 C73 1.272 . S
O83 Co75 2.135 . S
Co84 O85 2.216 . S
Co84 O86 2.091 . S
Co84 O88 2.004 . S
Co84 O94 2.021 . S
Co84 O96 2.137 . S
Co84 O97 2.244 . S
O85 Co84 2.216 . S
O85 C92 1.247 . S
O86 Co84 2.091 . S
O86 C92 1.261 . S
C87 O96 1.247 . S
C87 O97 1.272 . S
O88 Co84 2.004 . S
O88 C93 1.259 . S
Co89 O90 2.061 . S
Co89 O95 2.052 . S
Co89 O97 2.135 . S
O90 Co89 2.061 . S
O90 C93 1.235 . S
C91 O94 1.238 . S
C91 O95 1.241 . S
C92 O85 1.247 . S
C92 O86 1.261 . S
C93 O88 1.259 . S
C93 O90 1.235 . S
O94 Co84 2.021 . S
O94 C91 1.238 . S
O95 Co89 2.052 . S
O95 C91 1.241 . S
O96 Co84 2.137 . S
O96 C87 1.247 . S
O97 Co84 2.244 . S
O97 C87 1.272 . S
O97 Co89 2.135 . S
Co98 O99 2.216 . S
Co98 O100 2.091 . S
Co98 O102 2.004 1_655 S
Co98 O108 2.021 1_655 S
Co98 O110 2.137 . S
Co98 O111 2.243 1_655 S
O99 Co98 2.216 . S
O99 C106 1.247 . S
O100 Co98 2.091 . S
O100 C106 1.261 . S
C101 O110 1.247 . S
C101 O111 1.265 1_655 S
O102 Co98 2.004 1_455 S
O102 C107 1.259 . S
Co103 O104 2.061 . S
Co103 O109 2.052 . S
Co103 O111 2.144 . S
O104 Co103 2.061 . S
O104 C107 1.235 . S
C105 O108 1.238 . S
C105 O109 1.241 . S
C106 O99 1.247 . S
C106 O100 1.261 . S
C107 O102 1.259 . S
C107 O104 1.235 . S
O108 Co98 2.021 1_455 S
O108 C105 1.238 . S
O109 Co103 2.052 . S
O109 C105 1.241 . S
O110 Co98 2.137 . S
O110 C101 1.247 . S
O111 Co98 2.243 1_455 S
O111 C101 1.265 1_455 S
O111 Co103 2.144 . S
Co112 O113 2.216 . S
Co112 O114 2.091 . S
Co112 O116 2.004 1_565 S
Co112 O122 2.021 . S
Co112 O124 2.137 1_565 S
Co112 O125 2.244 1_565 S
O113 Co112 2.216 . S
O113 C120 1.247 . S
O114 Co112 2.091 . S
O114 C120 1.261 . S
C115 O124 1.247 . S
C115 O125 1.272 . S
O116 Co112 2.004 1_545 S
O116 C121 1.259 . S
Co117 O118 2.061 . S
Co117 O123 2.052 . S
Co117 O125 2.135 . S
O118 Co117 2.061 . S
O118 C121 1.235 . S
C119 O122 1.238 . S
C119 O123 1.241 1_565 S
C120 O113 1.247 . S
C120 O114 1.261 . S
C121 O116 1.259 . S
C121 O118 1.235 . S
O122 Co112 2.021 . S
O122 C119 1.238 . S
O123 Co117 2.052 . S
O123 C119 1.241 1_545 S
O124 Co112 2.137 1_545 S
O124 C115 1.247 . S
O125 Co112 2.244 1_545 S
O125 C115 1.272 . S
O125 Co117 2.135 . S
Co126 O127 2.216 . S
Co126 O128 2.091 . S
Co126 O130 2.004 . S
Co126 O136 2.021 . S
Co126 O138 2.137 . S
Co126 O139 2.244 . S
O127 Co126 2.216 . S
O127 C134 1.247 . S
O128 Co126 2.091 . S
O128 C134 1.261 . S
C129 O138 1.247 . S
C129 O139 1.272 . S
O130 Co126 2.004 . S
O130 C135 1.259 . S
Co131 O132 2.061 . S
Co131 O137 2.052 . S
Co131 O139 2.135 . S
O132 Co131 2.061 . S
O132 C135 1.235 . S
C133 O136 1.238 . S
C133 O137 1.241 . S
C134 O127 1.247 . S
C134 O128 1.261 . S
C135 O130 1.259 . S
C135 O132 1.235 . S
O136 Co126 2.021 . S
O136 C133 1.238 . S
O137 Co131 2.052 . S
O137 C133 1.241 . S
O138 Co126 2.137 . S
O138 C129 1.247 . S
O139 Co126 2.244 . S
O139 C129 1.272 . S
O139 Co131 2.135 . S
Co140 O141 2.216 1_545 S
Co140 O142 2.091 1_545 S
Co140 O144 2.004 . S
Co140 O150 2.021 1_545 S
Co140 O152 2.137 . S
Co140 O153 2.244 . S
O141 Co140 2.216 1_565 S
O141 C148 1.247 . S
O142 Co140 2.091 1_565 S
O142 C148 1.261 . S
C143 O152 1.247 . S
C143 O153 1.272 . S
O144 Co140 2.004 . S
O144 C149 1.259 . S
Co145 O146 2.061 . S
Co145 O151 2.052 1_545 S
Co145 O153 2.135 . S
O146 Co145 2.061 . S
O146 C149 1.235 . S
C147 O150 1.238 . S
C147 O151 1.241 . S
C148 O141 1.247 . S
C148 O142 1.261 . S
C149 O144 1.259 . S
C149 O146 1.235 . S
O150 Co140 2.021 1_565 S
O150 C147 1.238 . S
O151 Co145 2.052 1_565 S
O151 C147 1.241 . S
O152 Co140 2.137 . S
O152 C143 1.247 . S
O153 Co140 2.244 . S
O153 C143 1.272 . S
O153 Co145 2.135 . S
Co154 O155 2.216 1_554 S
Co154 O156 2.091 1_554 S
Co154 O158 2.004 . S
Co154 O164 2.021 . S
Co154 O166 2.137 1_554 S
Co154 O167 2.244 1_554 S
O155 Co154 2.216 1_556 S
O155 C162 1.247 . S
O156 Co154 2.091 1_556 S
O156 C162 1.261 . S
C157 O166 1.247 . S
C157 O167 1.272 . S
O158 Co154 2.004 . S
O158 C163 1.259 . S
Co159 O160 2.061 . S
Co159 O165 2.052 . S
Co159 O167 2.135 1_554 S
O160 Co159 2.061 . S
O160 C163 1.235 . S
C161 O164 1.238 . S
C161 O165 1.241 . S
C162 O155 1.247 . S
C162 O156 1.261 . S
C163 O158 1.259 . S
C163 O160 1.235 . S
O164 Co154 2.021 . S
O164 C161 1.238 . S
O165 Co159 2.052 . S
O165 C161 1.241 . S
O166 Co154 2.137 1_556 S
O166 C157 1.247 . S
O167 Co154 2.244 1_556 S
O167 C157 1.272 . S
O167 Co159 2.135 1_556 S
Co168 O169 2.216 . S
Co168 O170 2.091 . S
Co168 O172 2.004 1_554 S
Co168 O178 2.021 . S
Co168 O180 2.137 1_554 S
Co168 O181 2.244 1_554 S
O169 Co168 2.216 . S
O169 C176 1.247 . S
O170 Co168 2.091 . S
O170 C176 1.261 . S
C171 O180 1.247 . S
C171 O181 1.272 . S
O172 Co168 2.004 1_556 S
O172 C177 1.259 . S
Co173 O174 2.061 . S
Co173 O179 2.052 1_556 S
Co173 O181 2.135 . S
O174 Co173 2.061 . S
O174 C177 1.235 . S
C175 O178 1.238 . S
C175 O179 1.241 . S
C176 O169 1.247 . S
C176 O170 1.261 . S
C177 O172 1.259 . S
C177 O174 1.235 . S
O178 Co168 2.021 . S
O178 C175 1.238 . S
O179 Co173 2.052 1_554 S
O179 C175 1.241 . S
O180 Co168 2.137 1_556 S
O180 C171 1.247 . S
O181 Co168 2.244 1_556 S
O181 C171 1.272 . S
O181 Co173 2.135 . S
Co182 O183 2.216 . S
Co182 O184 2.091 . S
Co182 O186 2.004 1_554 S
Co182 O192 2.021 . S
Co182 O194 2.137 1_554 S
Co182 O195 2.244 1_554 S
O183 Co182 2.216 . S
O183 C190 1.247 . S
O184 Co182 2.091 . S
O184 C190 1.261 . S
C185 O194 1.247 . S
C185 O195 1.272 . S
O186 Co182 2.004 1_556 S
O186 C191 1.259 . S
Co187 O188 2.061 . S
Co187 O193 2.052 1_556 S
Co187 O195 2.135 . S
O188 Co187 2.061 . S
O188 C191 1.235 . S
C189 O192 1.238 . S
C189 O193 1.241 . S
C190 O183 1.247 . S
C190 O184 1.261 . S
C191 O186 1.259 . S
C191 O188 1.235 . S
O192 Co182 2.021 . S
O192 C189 1.238 . S
O193 Co187 2.052 1_554 S
O193 C189 1.241 . S
O194 Co182 2.137 1_556 S
O194 C185 1.247 . S
O195 Co182 2.244 1_556 S
O195 C185 1.272 . S
O195 Co187 2.135 . S
Co196 O197 2.216 . S
Co196 O198 2.091 . S
Co196 O200 2.004 . S
Co196 O206 2.021 . S
Co196 O208 2.137 . S
Co196 O209 2.244 . S
O197 Co196 2.216 . S
O197 C204 1.247 . S
O198 Co196 2.091 . S
O198 C204 1.261 . S
C199 O208 1.247 . S
C199 O209 1.272 . S
O200 Co196 2.004 . S
O200 C205 1.259 . S
Co201 O202 2.061 . S
Co201 O207 2.052 . S
Co201 O209 2.135 . S
O202 Co201 2.061 . S
O202 C205 1.235 . S
C203 O206 1.238 . S
C203 O207 1.241 . S
C204 O197 1.247 . S
C204 O198 1.261 . S
C205 O200 1.259 . S
C205 O202 1.235 . S
O206 Co196 2.021 . S
O206 C203 1.238 . S
O207 Co201 2.052 . S
O207 C203 1.241 . S
O208 Co196 2.137 . S
O208 C199 1.247 . S
O209 Co196 2.244 . S
O209 C199 1.272 . S
O209 Co201 2.135 . S
Co210 O211 2.216 . S
Co210 O212 2.091 . S
Co210 O214 2.004 . S
Co210 O220 2.021 . S
Co210 O222 2.137 . S
Co210 O223 2.244 . S
O211 Co210 2.216 . S
O211 C218 1.247 . S
O212 Co210 2.091 . S
O212 C218 1.261 . S
C213 O222 1.247 . S
C213 O223 1.272 . S
O214 Co210 2.004 . S
O214 C219 1.259 . S
Co215 O216 2.061 . S
Co215 O221 2.052 . S
Co215 O223 2.135 . S
O216 Co215 2.061 . S
O216 C219 1.235 . S
C217 O220 1.238 . S
C217 O221 1.241 . S
C218 O211 1.247 . S
C218 O212 1.261 . S
C219 O214 1.259 . S
C219 O216 1.235 . S
O220 Co210 2.021 . S
O220 C217 1.238 . S
O221 Co215 2.052 . S
O221 C217 1.241 . S
O222 Co210 2.137 . S
O222 C213 1.247 . S
O223 Co210 2.244 . S
O223 C213 1.272 . S
O223 Co215 2.135 . S
Co224 O225 2.216 . S
Co224 O226 2.091 . S
Co224 O228 2.004 1_565 S
Co224 O234 2.021 1_565 S
Co224 O236 2.137 . S
Co224 O237 2.244 . S
O225 Co224 2.216 . S
O225 C232 1.247 . S
O226 Co224 2.091 . S
O226 C232 1.261 . S
C227 O236 1.247 . S
C227 O237 1.272 . S
O228 Co224 2.004 1_545 S
O228 C233 1.259 . S
Co229 O230 2.061 . S
Co229 O235 2.052 . S
Co229 O237 2.135 1_545 S
O230 Co229 2.061 . S
O230 C233 1.235 . S
C231 O234 1.238 . S
C231 O235 1.241 . S
C232 O225 1.247 . S
C232 O226 1.261 . S
C233 O228 1.259 . S
C233 O230 1.235 . S
O234 Co224 2.021 1_545 S
O234 C231 1.238 . S
O235 Co229 2.052 . S
O235 C231 1.241 . S
O236 Co224 2.137 . S
O236 C227 1.247 . S
O237 Co224 2.244 . S
O237 C227 1.272 . S
O237 Co229 2.135 1_565 S
Co238 O239 2.216 . S
Co238 O240 2.091 . S
Co238 O242 2.004 . S
Co238 O248 2.021 . S
Co238 O250 2.137 . S
Co238 O251 2.244 . S
O239 Co238 2.216 . S
O239 C246 1.247 . S
O240 Co238 2.091 . S
O240 C246 1.261 . S
C241 O250 1.247 . S
C241 O251 1.272 . S
O242 Co238 2.004 . S
O242 C247 1.259 . S
Co243 O244 2.061 . S
Co243 O249 2.052 . S
Co243 O251 2.135 . S
O244 Co243 2.061 . S
O244 C247 1.235 . S
C245 O248 1.238 . S
C245 O249 1.241 . S
C246 O239 1.247 . S
C246 O240 1.261 . S
C247 O242 1.259 . S
C247 O244 1.235 . S
O248 Co238 2.021 . S
O248 C245 1.238 . S
O249 Co243 2.052 . S
O249 C245 1.241 . S
O250 Co238 2.137 . S
O250 C241 1.247 . S
O251 Co238 2.244 . S
O251 C241 1.272 . S
O251 Co243 2.135 . S
Co252 O253 2.216 . S
Co252 O254 2.091 . S
Co252 O256 2.004 . S
Co252 O262 2.021 . S
Co252 O264 2.137 . S
Co252 O265 2.244 . S
O253 Co252 2.216 . S
O253 C260 1.247 . S
O254 Co252 2.091 . S
O254 C260 1.261 . S
C255 O264 1.247 . S
C255 O265 1.272 . S
O256 Co252 2.004 . S
O256 C261 1.259 . S
Co257 O258 2.061 . S
Co257 O263 2.052 . S
Co257 O265 2.135 . S
O258 Co257 2.061 . S
O258 C261 1.235 . S
C259 O262 1.238 . S
C259 O263 1.241 . S
C260 O253 1.247 . S
C260 O254 1.261 . S
C261 O256 1.259 . S
C261 O258 1.235 . S
O262 Co252 2.021 . S
O262 C259 1.238 . S
O263 Co257 2.052 . S
O263 C259 1.241 . S
O264 Co252 2.137 . S
O264 C255 1.247 . S
O265 Co252 2.244 . S
O265 C255 1.272 . S
O265 Co257 2.135 . S
Co266 O267 2.216 . S
Co266 O268 2.091 . S
Co266 O270 2.004 1_545 S
Co266 O276 2.021 1_545 S
Co266 O278 2.137 . S
Co266 O279 2.244 . S
O267 Co266 2.216 . S
O267 C274 1.247 . S
O268 Co266 2.091 . S
O268 C274 1.261 . S
C269 O278 1.247 . S
C269 O279 1.272 . S
O270 Co266 2.004 1_565 S
O270 C275 1.259 . S
Co271 O272 2.061 . S
Co271 O277 2.052 . S
Co271 O279 2.135 1_565 S
O272 Co271 2.061 . S
O272 C275 1.235 . S
C273 O276 1.238 . S
C273 O277 1.241 . S
C274 O267 1.247 . S
C274 O268 1.261 . S
C275 O270 1.259 . S
C275 O272 1.235 . S
O276 Co266 2.021 1_565 S
O276 C273 1.238 . S
O277 Co271 2.052 . S
O277 C273 1.241 . S
O278 Co266 2.137 . S
O278 C269 1.247 . S
O279 Co266 2.244 . S
O279 C269 1.272 . S
O279 Co271 2.135 1_545 S
Co280 O281 2.216 . S
Co280 O282 2.091 . S
Co280 O284 2.004 1_556 S
Co280 O290 2.021 1_556 S
Co280 O292 2.137 . S
Co280 O293 2.244 . S
O281 Co280 2.216 . S
O281 C288 1.247 . S
O282 Co280 2.091 . S
O282 C288 1.261 . S
C283 O292 1.247 . S
C283 O293 1.272 . S
O284 Co280 2.004 1_554 S
O284 C289 1.259 . S
Co285 O286 2.061 . S
Co285 O291 2.052 . S
Co285 O293 2.135 1_554 S
O286 Co285 2.061 . S
O286 C289 1.235 . S
C287 O290 1.238 . S
C287 O291 1.241 . S
C288 O281 1.247 . S
C288 O282 1.261 . S
C289 O284 1.259 . S
C289 O286 1.235 . S
O290 Co280 2.021 1_554 S
O290 C287 1.238 . S
O291 Co285 2.052 . S
O291 C287 1.241 . S
O292 Co280 2.137 . S
O292 C283 1.247 . S
O293 Co280 2.244 . S
O293 C283 1.272 . S
O293 Co285 2.135 1_556 S
Co294 O295 2.216 . S
Co294 O296 2.091 . S
Co294 O298 2.004 . S
Co294 O304 2.021 . S
Co294 O306 2.137 . S
Co294 O307 2.244 . S
O295 Co294 2.216 . S
O295 C302 1.247 . S
O296 Co294 2.091 . S
O296 C302 1.261 . S
C297 O306 1.247 . S
C297 O307 1.272 . S
O298 Co294 2.004 . S
O298 C303 1.259 . S
Co299 O300 2.061 . S
Co299 O305 2.052 . S
Co299 O307 2.135 . S
O300 Co299 2.061 . S
O300 C303 1.235 . S
C301 O304 1.238 . S
C301 O305 1.241 . S
C302 O295 1.247 . S
C302 O296 1.261 . S
C303 O298 1.259 . S
C303 O300 1.235 . S
O304 Co294 2.021 . S
O304 C301 1.238 . S
O305 Co299 2.052 . S
O305 C301 1.241 . S
O306 Co294 2.137 . S
O306 C297 1.247 . S
O307 Co294 2.244 . S
O307 C297 1.272 . S
O307 Co299 2.135 . S
Co308 O309 2.216 . S
Co308 O310 2.091 . S
Co308 O312 2.004 . S
Co308 O318 2.021 . S
Co308 O320 2.137 . S
Co308 O321 2.244 . S
O309 Co308 2.216 . S
O309 C316 1.247 . S
O310 Co308 2.091 . S
O310 C316 1.261 . S
C311 O320 1.247 . S
C311 O321 1.272 . S
O312 Co308 2.004 . S
O312 C317 1.259 . S
Co313 O314 2.061 . S
Co313 O319 2.052 . S
Co313 O321 2.135 . S
O314 Co313 2.061 . S
O314 C317 1.235 . S
C315 O318 1.238 . S
C315 O319 1.241 . S
C316 O309 1.247 . S
C316 O310 1.261 . S
C317 O312 1.259 . S
C317 O314 1.235 . S
O318 Co308 2.021 . S
O318 C315 1.238 . S
O319 Co313 2.052 . S
O319 C315 1.241 . S
O320 Co308 2.137 . S
O320 C311 1.247 . S
O321 Co308 2.244 . S
O321 C311 1.272 . S
O321 Co313 2.135 . S
Co322 O323 2.216 . S
Co322 O324 2.091 . S
Co322 O326 2.004 . S
Co322 O332 2.021 . S
Co322 O334 2.137 . S
Co322 O335 2.244 . S
O323 Co322 2.216 . S
O323 C330 1.247 . S
O324 Co322 2.091 . S
O324 C330 1.261 . S
C325 O334 1.247 . S
C325 O335 1.272 . S
O326 Co322 2.004 . S
O326 C331 1.259 . S
Co327 O328 2.061 . S
Co327 O333 2.052 . S
Co327 O335 2.135 . S
O328 Co327 2.061 . S
O328 C331 1.235 . S
C329 O332 1.238 . S
C329 O333 1.241 . S
C330 O323 1.247 . S
C330 O324 1.261 . S
C331 O326 1.259 . S
C331 O328 1.235 . S
O332 Co322 2.021 . S
O332 C329 1.238 . S
O333 Co327 2.052 . S
O333 C329 1.241 . S
O334 Co322 2.137 . S
O334 C325 1.247 . S
O335 Co322 2.244 . S
O335 C325 1.272 . S
O335 Co327 2.135 . S
C336 C337 1.369 . S
C336 C338 1.419 . S
C336 H340 0.930 . S
C337 C336 1.369 . S
C337 C346 1.429 . S
C338 C336 1.419 . S
C338 C339 1.363 . S
C338 H341 0.929 . S
C339 C338 1.363 . S
C339 C345 1.428 . S
H340 C336 0.930 . S
H341 C338 0.929 . S
S342 N343 1.613 . S
S342 N344 1.610 . S
N343 S342 1.613 . S
N343 C346 1.350 . S
N344 S342 1.610 . S
N344 C345 1.351 . S
C345 C339 1.428 . S
C345 N344 1.351 . S
C345 C346 1.434 . S
C346 C337 1.429 . S
C346 N343 1.350 . S
C346 C345 1.434 . S
C347 C348 1.369 . S
C347 C349 1.419 . S
C347 H351 0.930 . S
C348 C347 1.369 . S
C348 C357 1.429 . S
C349 C347 1.419 . S
C349 C350 1.363 . S
C349 H352 0.929 . S
C350 C349 1.363 . S
C350 C356 1.428 . S
H351 C347 0.930 . S
H352 C349 0.929 . S
S353 N354 1.613 . S
S353 N355 1.610 . S
N354 S353 1.613 . S
N354 C357 1.350 . S
N355 S353 1.610 . S
N355 C356 1.351 . S
C356 C350 1.428 . S
C356 N355 1.351 . S
C356 C357 1.434 . S
C357 C348 1.429 . S
C357 N354 1.350 . S
C357 C356 1.434 . S
C358 C359 1.369 . S
C358 C360 1.419 . S
C358 H362 0.930 . S
C359 C358 1.369 . S
C359 C368 1.429 . S
C360 C358 1.419 . S
C360 C361 1.363 . S
C360 H363 0.929 . S
C361 C360 1.363 . S
C361 C367 1.428 . S
H362 C358 0.930 . S
H363 C360 0.929 . S
S364 N365 1.613 . S
S364 N366 1.610 . S
N365 S364 1.613 . S
N365 C368 1.350 . S
N366 S364 1.610 . S
N366 C367 1.351 . S
C367 C361 1.428 . S
C367 N366 1.351 . S
C367 C368 1.434 . S
C368 C359 1.429 . S
C368 N365 1.350 . S
C368 C367 1.434 . S
C369 C370 1.369 . S
C369 C371 1.419 . S
C369 H373 0.930 . S
C370 C369 1.369 . S
C370 C379 1.429 . S
C371 C369 1.419 . S
C371 C372 1.363 . S
C371 H374 0.929 . S
C372 C371 1.363 . S
C372 C378 1.428 . S
H373 C369 0.930 . S
H374 C371 0.929 . S
S375 N376 1.613 1_556 S
S375 N377 1.610 1_556 S
N376 S375 1.613 1_554 S
N376 C379 1.350 . S
N377 S375 1.610 1_554 S
N377 C378 1.351 . S
C378 C372 1.428 . S
C378 N377 1.351 . S
C378 C379 1.434 . S
C379 C370 1.429 . S
C379 N376 1.350 . S
C379 C378 1.434 . S
C380 C381 1.369 . S
C380 C382 1.419 . S
C380 H384 0.930 . S
C381 C380 1.369 . S
C381 C390 1.429 . S
C382 C380 1.419 . S
C382 C383 1.363 . S
C382 H385 0.929 . S
C383 C382 1.363 . S
C383 C389 1.428 . S
H384 C380 0.930 . S
H385 C382 0.929 . S
S386 N387 1.613 . S
S386 N388 1.610 . S
N387 S386 1.613 . S
N387 C390 1.350 . S
N388 S386 1.610 . S
N388 C389 1.351 . S
C389 C383 1.428 . S
C389 N388 1.351 . S
C389 C390 1.434 . S
C390 C381 1.429 . S
C390 N387 1.350 . S
C390 C389 1.434 . S
C391 C392 1.369 . S
C391 C393 1.419 . S
C391 H395 0.930 . S
C392 C391 1.369 . S
C392 C401 1.429 . S
C393 C391 1.419 . S
C393 C394 1.363 . S
C393 H396 0.929 . S
C394 C393 1.363 . S
C394 C400 1.428 . S
H395 C391 0.930 . S
H396 C393 0.929 . S
S397 N398 1.613 . S
S397 N399 1.610 . S
N398 S397 1.613 . S
N398 C401 1.350 . S
N399 S397 1.610 . S
N399 C400 1.351 . S
C400 C394 1.428 . S
C400 N399 1.351 . S
C400 C401 1.434 . S
C401 C392 1.429 . S
C401 N398 1.350 . S
C401 C400 1.434 . S
C402 C403 1.369 . S
C402 C404 1.419 . S
C402 H406 0.930 . S
C403 C402 1.369 . S
C403 C412 1.429 . S
C404 C402 1.419 . S
C404 C405 1.363 . S
C404 H407 0.929 . S
C405 C404 1.363 . S
C405 C411 1.428 . S
H406 C402 0.930 . S
H407 C404 0.929 . S
S408 N409 1.613 . S
S408 N410 1.610 . S
N409 S408 1.613 . S
N409 C412 1.350 . S
N410 S408 1.610 . S
N410 C411 1.351 . S
C411 C405 1.428 . S
C411 N410 1.351 . S
C411 C412 1.434 . S
C412 C403 1.429 . S
C412 N409 1.350 . S
C412 C411 1.434 . S
C413 C414 1.369 . S
C413 C415 1.419 . S
C413 H417 0.930 . S
C414 C413 1.369 . S
C414 C423 1.429 . S
C415 C413 1.419 . S
C415 C416 1.363 . S
C415 H418 0.929 . S
C416 C415 1.363 . S
C416 C422 1.428 . S
H417 C413 0.930 . S
H418 C415 0.929 . S
S419 N420 1.613 . S
S419 N421 1.610 . S
N420 S419 1.613 . S
N420 C423 1.350 . S
N421 S419 1.610 . S
N421 C422 1.351 . S
C422 C416 1.428 . S
C422 N421 1.351 . S
C422 C423 1.434 . S
C423 C414 1.429 . S
C423 N420 1.350 . S
C423 C422 1.434 . S
C424 C425 1.369 . S
C424 C426 1.419 . S
C424 H428 0.930 . S
C425 C424 1.369 . S
C425 C434 1.429 . S
C426 C424 1.419 . S
C426 C427 1.363 . S
C426 H429 0.929 . S
C427 C426 1.363 . S
C427 C433 1.428 . S
H428 C424 0.930 . S
H429 C426 0.929 . S
S430 N431 1.613 . S
S430 N432 1.610 . S
N431 S430 1.613 . S
N431 C434 1.350 . S
N432 S430 1.610 . S
N432 C433 1.351 . S
C433 C427 1.428 . S
C433 N432 1.351 . S
C433 C434 1.434 . S
C434 C425 1.429 . S
C434 N431 1.350 . S
C434 C433 1.434 . S
C435 C436 1.369 . S
C435 C437 1.419 . S
C435 H439 0.930 . S
C436 C435 1.369 . S
C436 C445 1.429 . S
C437 C435 1.419 . S
C437 C438 1.363 . S
C437 H440 0.929 . S
C438 C437 1.363 . S
C438 C444 1.428 . S
H439 C435 0.930 . S
H440 C437 0.929 . S
S441 N442 1.613 . S
S441 N443 1.610 . S
N442 S441 1.613 . S
N442 C445 1.350 . S
N443 S441 1.610 . S
N443 C444 1.351 . S
C444 C438 1.428 . S
C444 N443 1.351 . S
C444 C445 1.434 . S
C445 C436 1.429 . S
C445 N442 1.350 . S
C445 C444 1.434 . S
C446 C447 1.369 . S
C446 C448 1.419 . S
C446 H450 0.930 . S
C447 C446 1.369 . S
C447 C456 1.429 . S
C448 C446 1.419 . S
C448 C449 1.363 . S
C448 H451 0.929 . S
C449 C448 1.363 . S
C449 C455 1.428 . S
H450 C446 0.930 . S
H451 C448 0.929 . S
S452 N453 1.613 . S
S452 N454 1.610 . S
N453 S452 1.613 . S
N453 C456 1.350 . S
N454 S452 1.610 . S
N454 C455 1.351 . S
C455 C449 1.428 . S
C455 N454 1.351 . S
C455 C456 1.434 . S
C456 C447 1.429 . S
C456 N453 1.350 . S
C456 C455 1.434 . S
C457 C458 1.369 . S
C457 C459 1.419 . S
C457 H461 0.930 . S
C458 C457 1.369 . S
C458 C467 1.429 . S
C459 C457 1.419 . S
C459 C460 1.363 . S
C459 H462 0.929 . S
C460 C459 1.363 . S
C460 C466 1.428 . S
H461 C457 0.930 . S
H462 C459 0.929 . S
S463 N464 1.613 . S
S463 N465 1.610 . S
N464 S463 1.613 . S
N464 C467 1.350 . S
N465 S463 1.610 . S
N465 C466 1.351 . S
C466 C460 1.428 . S
C466 N465 1.351 . S
C466 C467 1.434 . S
C467 C458 1.429 . S
C467 N464 1.350 . S
C467 C466 1.434 . S
C468 C469 1.369 . S
C468 C470 1.419 . S
C468 H472 0.930 . S
C469 C468 1.369 . S
C469 C478 1.429 . S
C470 C468 1.419 . S
C470 C471 1.363 . S
C470 H473 0.929 . S
C471 C470 1.363 . S
C471 C477 1.428 . S
H472 C468 0.930 . S
H473 C470 0.929 . S
S474 N475 1.613 1_556 S
S474 N476 1.610 1_556 S
N475 S474 1.613 1_554 S
N475 C478 1.350 . S
N476 S474 1.610 1_554 S
N476 C477 1.351 . S
C477 C471 1.428 . S
C477 N476 1.351 . S
C477 C478 1.434 . S
C478 C469 1.429 . S
C478 N475 1.350 . S
C478 C477 1.434 . S
C479 C480 1.369 . S
C479 C481 1.419 . S
C479 H483 0.930 . S
C480 C479 1.369 . S
C480 C489 1.429 . S
C481 C479 1.419 . S
C481 C482 1.363 . S
C481 H484 0.929 . S
C482 C481 1.363 . S
C482 C488 1.428 . S
H483 C479 0.930 . S
H484 C481 0.929 . S
S485 N486 1.613 . S
S485 N487 1.610 1_455 S
N486 S485 1.613 . S
N486 C489 1.350 1_455 S
N487 S485 1.610 1_655 S
N487 C488 1.351 . S
C488 C482 1.428 . S
C488 N487 1.351 . S
C488 C489 1.434 . S
C489 C480 1.429 . S
C489 N486 1.350 1_655 S
C489 C488 1.434 . S
C490 C491 1.369 . S
C490 C492 1.419 . S
C490 H494 0.930 . S
C491 C490 1.369 . S
C491 C500 1.429 . S
C492 C490 1.419 . S
C492 C493 1.363 . S
C492 H495 0.929 . S
C493 C492 1.363 . S
C493 C499 1.428 . S
H494 C490 0.930 . S
H495 C492 0.929 . S
S496 N497 1.613 . S
S496 N498 1.610 . S
N497 S496 1.613 . S
N497 C500 1.350 . S
N498 S496 1.610 . S
N498 C499 1.351 . S
C499 C493 1.428 . S
C499 N498 1.351 . S
C499 C500 1.434 . S
C500 C491 1.429 . S
C500 N497 1.350 . S
C500 C499 1.434 . S
C501 C502 1.369 . S
C501 C503 1.419 . S
C501 H505 0.930 . S
C502 C501 1.369 . S
C502 C511 1.429 . S
C503 C501 1.419 . S
C503 C504 1.363 . S
C503 H506 0.929 . S
C504 C503 1.363 . S
C504 C510 1.428 . S
H505 C501 0.930 . S
H506 C503 0.929 . S
S507 N508 1.613 . S
S507 N509 1.610 . S
N508 S507 1.613 . S
N508 C511 1.350 . S
N509 S507 1.610 . S
N509 C510 1.351 . S
C510 C504 1.428 . S
C510 N509 1.351 . S
C510 C511 1.434 . S
C511 C502 1.429 . S
C511 N508 1.350 . S
C511 C510 1.434 . S
C512 C513 1.369 . S
C512 C514 1.419 . S
C512 H516 0.930 . S
C513 C512 1.369 . S
C513 C522 1.429 . S
C514 C512 1.419 . S
C514 C515 1.363 . S
C514 H517 0.929 . S
C515 C514 1.363 . S
C515 C521 1.428 . S
H516 C512 0.930 . S
H517 C514 0.929 . S
S518 N519 1.613 . S
S518 N520 1.610 . S
N519 S518 1.613 . S
N519 C522 1.350 . S
N520 S518 1.610 . S
N520 C521 1.351 . S
C521 C515 1.428 . S
C521 N520 1.351 . S
C521 C522 1.434 . S
C522 C513 1.429 . S
C522 N519 1.350 . S
C522 C521 1.434 . S
C523 C524 1.369 . S
C523 C525 1.419 . S
C523 H527 0.930 . S
C524 C523 1.369 . S
C524 C533 1.429 . S
C525 C523 1.419 . S
C525 C526 1.363 . S
C525 H528 0.929 . S
C526 C525 1.363 . S
C526 C532 1.428 . S
H527 C523 0.930 . S
H528 C525 0.929 . S
S529 N530 1.613 . S
S529 N531 1.610 . S
N530 S529 1.613 . S
N530 C533 1.350 . S
N531 S529 1.610 . S
N531 C532 1.351 . S
C532 C526 1.428 . S
C532 N531 1.351 . S
C532 C533 1.434 . S
C533 C524 1.429 . S
C533 N530 1.350 . S
C533 C532 1.434 . S
C534 C535 1.369 . S
C534 C536 1.419 . S
C534 H538 0.930 1_556 S
C535 C534 1.369 . S
C535 C544 1.429 . S
C536 C534 1.419 . S
C536 C537 1.363 . S
C536 H539 0.929 . S
C537 C536 1.363 . S
C537 C543 1.428 . S
H538 C534 0.930 1_554 S
H539 C536 0.929 . S
S540 N541 1.613 . S
S540 N542 1.610 . S
N541 S540 1.613 . S
N541 C544 1.350 . S
N542 S540 1.610 . S
N542 C543 1.351 . S
C543 C537 1.428 . S
C543 N542 1.351 . S
C543 C544 1.434 . S
C544 C535 1.429 . S
C544 N541 1.350 . S
C544 C543 1.434 . S
C545 C546 1.369 . S
C545 C547 1.419 . S
C545 H549 0.930 . S
C546 C545 1.369 . S
C546 C555 1.429 . S
C547 C545 1.419 . S
C547 C548 1.363 . S
C547 H550 0.929 . S
C548 C547 1.363 . S
C548 C554 1.428 . S
H549 C545 0.930 . S
H550 C547 0.929 . S
S551 N552 1.613 . S
S551 N553 1.610 . S
N552 S551 1.613 . S
N552 C555 1.350 . S
N553 S551 1.610 . S
N553 C554 1.351 . S
C554 C548 1.428 . S
C554 N553 1.351 . S
C554 C555 1.434 . S
C555 C546 1.429 . S
C555 N552 1.350 . S
C555 C554 1.434 . S
C556 C557 1.369 . S
C556 C558 1.419 . S
C556 H560 0.930 . S
C557 C556 1.369 . S
C557 C566 1.429 . S
C558 C556 1.419 . S
C558 C559 1.363 . S
C558 H561 0.929 . S
C559 C558 1.363 . S
C559 C565 1.428 . S
H560 C556 0.930 . S
H561 C558 0.929 . S
S562 N563 1.613 . S
S562 N564 1.610 . S
N563 S562 1.613 . S
N563 C566 1.350 . S
N564 S562 1.610 . S
N564 C565 1.351 . S
C565 C559 1.428 . S
C565 N564 1.351 . S
C565 C566 1.434 . S
C566 C557 1.429 . S
C566 N563 1.350 . S
C566 C565 1.434 . S
C567 C568 1.369 . S
C567 C569 1.419 . S
C567 H571 0.930 . S
C568 C567 1.369 . S
C568 C577 1.429 . S
C569 C567 1.419 . S
C569 C570 1.363 . S
C569 H572 0.929 . S
C570 C569 1.363 . S
C570 C576 1.428 . S
H571 C567 0.930 . S
H572 C569 0.929 . S
S573 N574 1.613 . S
S573 N575 1.610 . S
N574 S573 1.613 . S
N574 C577 1.350 . S
N575 S573 1.610 . S
N575 C576 1.351 . S
C576 C570 1.428 . S
C576 N575 1.351 . S
C576 C577 1.434 . S
C577 C568 1.429 . S
C577 N574 1.350 . S
C577 C576 1.434 . S
C578 C579 1.369 . S
C578 C580 1.419 . S
C578 H582 0.930 . S
C579 C578 1.369 . S
C579 C588 1.429 . S
C580 C578 1.419 . S
C580 C581 1.363 . S
C580 H583 0.929 . S
C581 C580 1.363 . S
C581 C587 1.428 . S
H582 C578 0.930 . S
H583 C580 0.929 . S
S584 N585 1.613 . S
S584 N586 1.610 . S
N585 S584 1.613 . S
N585 C588 1.350 . S
N586 S584 1.610 . S
N586 C587 1.351 . S
C587 C581 1.428 . S
C587 N586 1.351 . S
C587 C588 1.434 . S
C588 C579 1.429 . S
C588 N585 1.350 . S
C588 C587 1.434 . S
C589 C590 1.369 . S
C589 C591 1.419 . S
C589 H593 0.930 . S
C590 C589 1.369 . S
C590 C599 1.429 . S
C591 C589 1.419 . S
C591 C592 1.363 . S
C591 H594 0.929 . S
C592 C591 1.363 . S
C592 C598 1.428 . S
H593 C589 0.930 . S
H594 C591 0.929 . S
S595 N596 1.613 1_545 S
S595 N597 1.610 . S
N596 S595 1.613 1_565 S
N596 C599 1.350 . S
N597 S595 1.610 . S
N597 C598 1.351 1_545 S
C598 C592 1.428 . S
C598 N597 1.351 1_565 S
C598 C599 1.434 . S
C599 C590 1.429 . S
C599 N596 1.350 . S
C599 C598 1.434 . S
C600 C601 1.369 . S
C600 C602 1.419 . S
C600 H604 0.930 . S
C601 C600 1.369 . S
C601 C610 1.429 . S
C602 C600 1.419 . S
C602 C603 1.363 . S
C602 H605 0.929 . S
C603 C602 1.363 . S
C603 C609 1.428 . S
H604 C600 0.930 . S
H605 C602 0.929 . S
S606 N607 1.613 . S
S606 N608 1.610 . S
N607 S606 1.613 . S
N607 C610 1.350 . S
N608 S606 1.610 . S
N608 C609 1.351 . S
C609 C603 1.428 . S
C609 N608 1.351 . S
C609 C610 1.434 . S
C610 C601 1.429 . S
C610 N607 1.350 . S
C610 C609 1.434 . S
C611 C612 1.369 . S
C611 C613 1.419 . S
C611 H615 0.930 . S
C612 C611 1.369 . S
C612 C621 1.429 . S
C613 C611 1.419 . S
C613 C614 1.363 . S
C613 H616 0.929 . S
C614 C613 1.363 . S
C614 C620 1.428 . S
H615 C611 0.930 . S
H616 C613 0.929 . S
S617 N618 1.613 . S
S617 N619 1.610 . S
N618 S617 1.613 . S
N618 C621 1.350 . S
N619 S617 1.610 . S
N619 C620 1.351 . S
C620 C614 1.428 . S
C620 N619 1.351 . S
C620 C621 1.434 . S
C621 C612 1.429 . S
C621 N618 1.350 . S
C621 C620 1.434 . S
C622 C623 1.369 . S
C622 C624 1.419 . S
C622 H626 0.930 . S
C623 C622 1.369 . S
C623 C632 1.429 . S
C624 C622 1.419 . S
C624 C625 1.363 . S
C624 H627 0.929 . S
C625 C624 1.363 . S
C625 C631 1.428 . S
H626 C622 0.930 . S
H627 C624 0.929 . S
S628 N629 1.613 . S
S628 N630 1.610 . S
N629 S628 1.613 . S
N629 C632 1.350 . S
N630 S628 1.610 . S
N630 C631 1.351 . S
C631 C625 1.428 . S
C631 N630 1.351 . S
C631 C632 1.434 . S
C632 C623 1.429 . S
C632 N629 1.350 . S
C632 C631 1.434 . S
C633 C634 1.369 . S
C633 C635 1.419 . S
C633 H637 0.930 . S
C634 C633 1.369 . S
C634 C643 1.429 . S
C635 C633 1.419 . S
C635 C636 1.363 . S
C635 H638 0.929 . S
C636 C635 1.363 . S
C636 C642 1.428 . S
H637 C633 0.930 . S
H638 C635 0.929 . S
S639 N640 1.613 1_554 S
S639 N641 1.610 . S
N640 S639 1.613 1_556 S
N640 C643 1.350 . S
N641 S639 1.610 . S
N641 C642 1.351 1_554 S
C642 C636 1.428 . S
C642 N641 1.351 1_556 S
C642 C643 1.434 . S
C643 C634 1.429 . S
C643 N640 1.350 . S
C643 C642 1.434 . S
C644 C645 1.369 . S
C644 C646 1.419 . S
C644 H648 0.930 . S
C645 C644 1.369 . S
C645 C654 1.429 . S
C646 C644 1.419 . S
C646 C647 1.363 . S
C646 H649 0.929 . S
C647 C646 1.363 . S
C647 C653 1.428 . S
H648 C644 0.930 . S
H649 C646 0.929 . S
S650 N651 1.613 . S
S650 N652 1.610 . S
N651 S650 1.613 . S
N651 C654 1.350 . S
N652 S650 1.610 . S
N652 C653 1.351 . S
C653 C647 1.428 . S
C653 N652 1.351 . S
C653 C654 1.434 . S
C654 C645 1.429 . S
C654 N651 1.350 . S
C654 C653 1.434 . S
C655 C656 1.369 . S
C655 C657 1.419 . S
C655 H659 0.930 . S
C656 C655 1.369 . S
C656 C665 1.429 . S
C657 C655 1.419 . S
C657 C658 1.363 . S
C657 H660 0.929 . S
C658 C657 1.363 . S
C658 C664 1.428 . S
H659 C655 0.930 . S
H660 C657 0.929 . S
S661 N662 1.613 . S
S661 N663 1.610 . S
N662 S661 1.613 . S
N662 C665 1.350 . S
N663 S661 1.610 . S
N663 C664 1.351 . S
C664 C658 1.428 . S
C664 N663 1.351 . S
C664 C665 1.434 . S
C665 C656 1.429 . S
C665 N662 1.350 . S
C665 C664 1.434 . S
C666 C667 1.369 . S
C666 C668 1.419 . S
C666 H670 0.930 . S
C667 C666 1.369 . S
C667 C676 1.429 . S
C668 C666 1.419 . S
C668 C669 1.363 . S
C668 H671 0.929 . S
C669 C668 1.363 . S
C669 C675 1.428 . S
H670 C666 0.930 . S
H671 C668 0.929 . S
S672 N673 1.613 . S
S672 N674 1.610 . S
N673 S672 1.613 . S
N673 C676 1.350 . S
N674 S672 1.610 . S
N674 C675 1.351 . S
C675 C669 1.428 . S
C675 N674 1.351 . S
C675 C676 1.434 . S
C676 C667 1.429 . S
C676 N673 1.350 . S
C676 C675 1.434 . S
C677 C678 1.369 . S
C677 C679 1.419 . S
C677 H681 0.930 . S
C678 C677 1.369 . S
C678 C687 1.429 . S
C679 C677 1.419 . S
C679 C680 1.363 . S
C679 H682 0.929 . S
C680 C679 1.363 . S
C680 C686 1.428 . S
H681 C677 0.930 . S
H682 C679 0.929 . S
S683 N684 1.613 . S
S683 N685 1.610 1_455 S
N684 S683 1.613 . S
N684 C687 1.350 1_455 S
N685 S683 1.610 1_655 S
N685 C686 1.351 . S
C686 C680 1.428 . S
C686 N685 1.351 . S
C686 C687 1.434 . S
C687 C678 1.429 . S
C687 N684 1.350 1_655 S
C687 C686 1.434 . S
C688 C689 1.369 . S
C688 C690 1.419 . S
C688 H692 0.930 . S
C689 C688 1.369 . S
C689 C698 1.429 . S
C690 C688 1.419 . S
C690 C691 1.363 . S
C690 H693 0.929 . S
C691 C690 1.363 . S
C691 C697 1.428 . S
H692 C688 0.930 . S
H693 C690 0.929 . S
S694 N695 1.613 . S
S694 N696 1.610 . S
N695 S694 1.613 . S
N695 C698 1.350 . S
N696 S694 1.610 . S
N696 C697 1.351 . S
C697 C691 1.428 . S
C697 N696 1.351 . S
C697 C698 1.434 . S
C698 C689 1.429 . S
C698 N695 1.350 . S
C698 C697 1.434 . S
C699 C700 1.369 . S
C699 C701 1.419 . S
C699 H703 0.930 . S
C700 C699 1.369 . S
C700 C709 1.429 . S
C701 C699 1.419 . S
C701 C702 1.363 . S
C701 H704 0.929 . S
C702 C701 1.363 . S
C702 C708 1.428 . S
H703 C699 0.930 . S
H704 C701 0.929 . S
S705 N706 1.613 . S
S705 N707 1.610 . S
N706 S705 1.613 . S
N706 C709 1.350 . S
N707 S705 1.610 . S
N707 C708 1.351 . S
C708 C702 1.428 . S
C708 N707 1.351 . S
C708 C709 1.434 . S
C709 C700 1.429 . S
C709 N706 1.350 . S
C709 C708 1.434 . S
C710 C711 1.369 . S
C710 C712 1.419 . S
C710 H714 0.930 . S
C711 C710 1.369 . S
C711 C720 1.429 . S
C712 C710 1.419 . S
C712 C713 1.363 . S
C712 H715 0.929 . S
C713 C712 1.363 . S
C713 C719 1.428 . S
H714 C710 0.930 . S
H715 C712 0.929 . S
S716 N717 1.613 . S
S716 N718 1.610 . S
N717 S716 1.613 . S
N717 C720 1.350 . S
N718 S716 1.610 . S
N718 C719 1.351 . S
C719 C713 1.428 . S
C719 N718 1.351 . S
C719 C720 1.434 . S
C720 C711 1.429 . S
C720 N717 1.350 . S
C720 C719 1.434 . S
C721 C722 1.369 . S
C721 C723 1.419 . S
C721 H725 0.930 . S
C722 C721 1.369 . S
C722 C731 1.429 . S
C723 C721 1.419 . S
C723 C724 1.363 . S
C723 H726 0.929 . S
C724 C723 1.363 . S
C724 C730 1.428 . S
H725 C721 0.930 . S
H726 C723 0.929 . S
S727 N728 1.613 . S
S727 N729 1.610 . S
N728 S727 1.613 . S
N728 C731 1.350 . S
N729 S727 1.610 . S
N729 C730 1.351 . S
C730 C724 1.428 . S
C730 N729 1.351 . S
C730 C731 1.434 . S
C731 C722 1.429 . S
C731 N728 1.350 . S
C731 C730 1.434 . S
C732 C733 1.369 . S
C732 C734 1.419 . S
C732 H736 0.930 . S
C733 C732 1.369 . S
C733 C742 1.429 . S
C734 C732 1.419 . S
C734 C735 1.363 . S
C734 H737 0.929 . S
C735 C734 1.363 . S
C735 C741 1.428 . S
H736 C732 0.930 . S
H737 C734 0.929 . S
S738 N739 1.613 . S
S738 N740 1.610 . S
N739 S738 1.613 . S
N739 C742 1.350 . S
N740 S738 1.610 . S
N740 C741 1.351 . S
C741 C735 1.428 . S
C741 N740 1.351 . S
C741 C742 1.434 . S
C742 C733 1.429 . S
C742 N739 1.350 . S
C742 C741 1.434 . S
C743 C744 1.369 . S
C743 C745 1.419 . S
C743 H747 0.930 . S
C744 C743 1.369 . S
C744 C753 1.429 . S
C745 C743 1.419 . S
C745 C746 1.363 . S
C745 H748 0.929 . S
C746 C745 1.363 . S
C746 C752 1.428 . S
H747 C743 0.930 . S
H748 C745 0.929 . S
S749 N750 1.613 . S
S749 N751 1.610 . S
N750 S749 1.613 . S
N750 C753 1.350 . S
N751 S749 1.610 . S
N751 C752 1.351 . S
C752 C746 1.428 . S
C752 N751 1.351 . S
C752 C753 1.434 . S
C753 C744 1.429 . S
C753 N750 1.350 . S
C753 C752 1.434 . S
C754 C755 1.369 . S
C754 C756 1.419 . S
C754 H758 0.930 . S
C755 C754 1.369 . S
C755 C764 1.429 . S
C756 C754 1.419 . S
C756 C757 1.363 . S
C756 H759 0.929 . S
C757 C756 1.363 . S
C757 C763 1.428 . S
H758 C754 0.930 . S
H759 C756 0.929 . S
S760 N761 1.613 . S
S760 N762 1.610 . S
N761 S760 1.613 . S
N761 C764 1.350 . S
N762 S760 1.610 . S
N762 C763 1.351 . S
C763 C757 1.428 . S
C763 N762 1.351 . S
C763 C764 1.434 . S
C764 C755 1.429 . S
C764 N761 1.350 . S
C764 C763 1.434 . S
C765 C766 1.369 . S
C765 C767 1.419 . S
C765 H769 0.930 . S
C766 C765 1.369 . S
C766 C775 1.429 . S
C767 C765 1.419 . S
C767 C768 1.363 . S
C767 H770 0.929 . S
C768 C767 1.363 . S
C768 C774 1.428 . S
H769 C765 0.930 . S
H770 C767 0.929 . S
S771 N772 1.613 . S
S771 N773 1.610 . S
N772 S771 1.613 . S
N772 C775 1.350 . S
N773 S771 1.610 . S
N773 C774 1.351 . S
C774 C768 1.428 . S
C774 N773 1.351 . S
C774 C775 1.434 . S
C775 C766 1.429 . S
C775 N772 1.350 . S
C775 C774 1.434 . S
C776 C777 1.369 . S
C776 C778 1.419 . S
C776 H780 0.930 . S
C777 C776 1.369 . S
C777 C786 1.429 . S
C778 C776 1.419 . S
C778 C779 1.363 . S
C778 H781 0.929 . S
C779 C778 1.363 . S
C779 C785 1.428 . S
H780 C776 0.930 . S
H781 C778 0.929 . S
S782 N783 1.613 . S
S782 N784 1.610 . S
N783 S782 1.613 . S
N783 C786 1.350 . S
N784 S782 1.610 . S
N784 C785 1.351 . S
C785 C779 1.428 . S
C785 N784 1.351 . S
C785 C786 1.434 . S
C786 C777 1.429 . S
C786 N783 1.350 . S
C786 C785 1.434 . S
C787 C788 1.369 . S
C787 C789 1.419 . S
C787 H791 0.930 . S
C788 C787 1.369 . S
C788 C797 1.429 . S
C789 C787 1.419 . S
C789 C790 1.363 . S
C789 H792 0.929 . S
C790 C789 1.363 . S
C790 C796 1.428 . S
H791 C787 0.930 . S
H792 C789 0.929 . S
S793 N794 1.613 . S
S793 N795 1.610 . S
N794 S793 1.613 . S
N794 C797 1.350 . S
N795 S793 1.610 . S
N795 C796 1.351 . S
C796 C790 1.428 . S
C796 N795 1.351 . S
C796 C797 1.434 . S
C797 C788 1.429 . S
C797 N794 1.350 . S
C797 C796 1.434 . S
C798 C799 1.369 . S
C798 C800 1.419 . S
C798 H802 0.930 . S
C799 C798 1.369 . S
C799 C808 1.429 . S
C800 C798 1.419 . S
C800 C801 1.363 . S
C800 H803 0.929 . S
C801 C800 1.363 . S
C801 C807 1.428 . S
H802 C798 0.930 . S
H803 C800 0.929 . S
S804 N805 1.613 . S
S804 N806 1.610 . S
N805 S804 1.613 . S
N805 C808 1.350 . S
N806 S804 1.610 . S
N806 C807 1.351 . S
C807 C801 1.428 . S
C807 N806 1.351 . S
C807 C808 1.434 . S
C808 C799 1.429 . S
C808 N805 1.350 . S
C808 C807 1.434 . S
C809 C810 1.369 . S
C809 C811 1.419 . S
C809 H813 0.930 . S
C810 C809 1.369 . S
C810 C819 1.429 . S
C811 C809 1.419 . S
C811 C812 1.363 . S
C811 H814 0.929 . S
C812 C811 1.363 . S
C812 C818 1.428 . S
H813 C809 0.930 . S
H814 C811 0.929 . S
S815 N816 1.613 . S
S815 N817 1.610 . S
N816 S815 1.613 . S
N816 C819 1.350 . S
N817 S815 1.610 . S
N817 C818 1.351 . S
C818 C812 1.428 . S
C818 N817 1.351 . S
C818 C819 1.434 . S
C819 C810 1.429 . S
C819 N816 1.350 . S
C819 C818 1.434 . S
C820 C821 1.369 . S
C820 C822 1.419 . S
C820 H824 0.930 . S
C821 C820 1.369 . S
C821 C830 1.429 . S
C822 C820 1.419 . S
C822 C823 1.363 . S
C822 H825 0.929 . S
C823 C822 1.363 . S
C823 C829 1.428 . S
H824 C820 0.930 . S
H825 C822 0.929 . S
S826 N827 1.613 . S
S826 N828 1.610 . S
N827 S826 1.613 . S
N827 C830 1.350 . S
N828 S826 1.610 . S
N828 C829 1.351 . S
C829 C823 1.428 . S
C829 N828 1.351 . S
C829 C830 1.434 . S
C830 C821 1.429 . S
C830 N827 1.350 . S
C830 C829 1.434 . S
C831 C832 1.369 . S
C831 C833 1.419 . S
C831 H835 0.930 . S
C832 C831 1.369 . S
C832 C841 1.429 . S
C833 C831 1.419 . S
C833 C834 1.363 . S
C833 H836 0.929 . S
C834 C833 1.363 . S
C834 C840 1.428 . S
H835 C831 0.930 . S
H836 C833 0.929 . S
S837 N838 1.613 . S
S837 N839 1.610 . S
N838 S837 1.613 . S
N838 C841 1.350 . S
N839 S837 1.610 . S
N839 C840 1.351 . S
C840 C834 1.428 . S
C840 N839 1.351 . S
C840 C841 1.434 . S
C841 C832 1.429 . S
C841 N838 1.350 . S
C841 C840 1.434 . S
C842 C843 1.369 . S
C842 C844 1.419 . S
C842 H846 0.930 . S
C843 C842 1.369 . S
C843 C852 1.429 . S
C844 C842 1.419 . S
C844 C845 1.363 . S
C844 H847 0.929 . S
C845 C844 1.363 . S
C845 C851 1.428 . S
H846 C842 0.930 . S
H847 C844 0.929 . S
S848 N849 1.613 . S
S848 N850 1.610 . S
N849 S848 1.613 . S
N849 C852 1.350 . S
N850 S848 1.610 . S
N850 C851 1.351 . S
C851 C845 1.428 . S
C851 N850 1.351 . S
C851 C852 1.434 . S
C852 C843 1.429 . S
C852 N849 1.350 . S
C852 C851 1.434 . S
C853 C854 1.369 . S
C853 C855 1.419 . S
C853 H857 0.930 . S
C854 C853 1.369 . S
C854 C863 1.429 . S
C855 C853 1.419 . S
C855 C856 1.363 . S
C855 H858 0.929 . S
C856 C855 1.363 . S
C856 C862 1.428 . S
H857 C853 0.930 . S
H858 C855 0.929 . S
S859 N860 1.613 . S
S859 N861 1.610 . S
N860 S859 1.613 . S
N860 C863 1.350 . S
N861 S859 1.610 . S
N861 C862 1.351 . S
C862 C856 1.428 . S
C862 N861 1.351 . S
C862 C863 1.434 . S
C863 C854 1.429 . S
C863 N860 1.350 . S
C863 C862 1.434 . S
C337 C205 1.518 . S
C339 C3 1.524 . S
C348 C23 1.494 . S
C350 C218 1.508 . S
C359 C259 1.497 . S
C361 C35 1.510 . S
C370 C50 1.510 . S
C372 C190 1.509 . S
C381 C204 1.554 . S
C383 C63 1.540 . S
C392 C79 1.508 . S
C394 C219 1.508 . S
C403 C87 1.524 . S
C405 C255 1.527 . S
C414 C106 1.507 . S
C416 C191 1.494 . S
C425 C129 1.528 . S
C427 C115 1.531 . S
C436 C149 1.566 . S
C438 C133 1.555 . S
C447 C148 1.512 . S
C449 C157 1.507 . S
C458 C161 1.510 . S
C460 C119 1.499 . S
C469 C176 1.506 . S
C471 C51 1.498 . S
C480 C59 1.525 . S
C482 C227 1.528 . S
C491 C246 1.509 . S
C493 C22 1.510 . S
C502 C21 1.457 . S
C504 C303 1.468 . S
C513 C134 1.444 . S
C515 C9 1.435 . S
C524 C329 1.450 . S
C526 C45 1.464 . S
C535 C162 1.435 . S
C537 C36 1.436 . S
C546 C302 1.477 . S
C548 C101 1.472 . S
C557 C135 1.451 . S
C559 C93 1.452 . S
C568 C77 1.442 . S
C570 C325 1.462 . S
C579 C64 1.437 . S
C581 C163 1.426 . S
C590 C217 1.445 . S
C592 C273 1.446 . S
C601 C232 1.477 . S
C603 C213 1.470 . S
C612 C189 1.464 . S
C614 C233 1.473 . S
C623 C269 1.461 . S
C625 C185 1.455 . S
C634 C37 1.438 . S
C636 C288 1.446 . S
C645 C143 1.462 . S
C647 C105 1.439 . S
C656 C8 1.436 . S
C658 C316 1.435 . S
C667 C275 1.519 . S
C669 C31 1.526 . S
C678 C7 1.509 . S
C680 C231 1.499 . S
C689 C274 1.552 . S
C691 C91 1.537 . S
C700 C177 1.508 . S
C702 C107 1.509 . S
C711 C78 1.505 . S
C713 C247 1.496 . S
C722 C297 1.532 . S
C724 C283 1.527 . S
C733 C331 1.565 . S
C735 C287 1.556 . S
C744 C311 1.506 . S
C746 C330 1.512 . S
C755 C301 1.497 . S
C757 C315 1.507 . S
C766 C121 1.467 . S
C768 C49 1.458 . S
C777 C17 1.460 . S
C779 C147 1.448 . S
C788 C73 1.473 . S
C790 C120 1.477 . S
C799 C289 1.448 . S
C801 C65 1.450 . S
C810 C92 1.437 . S
C812 C317 1.425 . S
C821 C175 1.447 . S
C823 C203 1.444 . S
C832 C260 1.476 . S
C834 C171 1.472 . S
C843 C245 1.458 . S
C845 C261 1.470 . S
C854 C199 1.463 . S
C856 C241 1.458 . S
