# Generated by pormake.
# Topology wgl, (5)-cn, num edge types: 1
# Building blocks:
#     Node 0, Type 0, BuildingBlock: XOMCOT_clean_sbu_1, # of connection points: 5
#     Node 1, Type 0, BuildingBlock: XOMCOT_clean_sbu_1, # of connection points: 5
#     Node 2, Type 0, BuildingBlock: XOMCOT_clean_sbu_1, # of connection points: 5
#     Node 3, Type 0, BuildingBlock: XOMCOT_clean_sbu_1, # of connection points: 5
#     Node 4, Type 0, BuildingBlock: XOMCOT_clean_sbu_1, # of connection points: 5
#     Node 5, Type 0, BuildingBlock: XOMCOT_clean_sbu_1, # of connection points: 5
#     Node 6, Type 0, BuildingBlock: XOMCOT_clean_sbu_1, # of connection points: 5
#     Node 7, Type 0, BuildingBlock: XOMCOT_clean_sbu_1, # of connection points: 5
#     Node 8, Type 0, BuildingBlock: XOMCOT_clean_sbu_1, # of connection points: 5
#     Node 9, Type 0, BuildingBlock: XOMCOT_clean_sbu_1, # of connection points: 5
#     Node 10, Type 0, BuildingBlock: XOMCOT_clean_sbu_1, # of connection points: 5
#     Node 11, Type 0, BuildingBlock: XOMCOT_clean_sbu_1, # of connection points: 5
#     Node 12, Type 0, BuildingBlock: XOMCOT_clean_sbu_1, # of connection points: 5
#     Node 13, Type 0, BuildingBlock: XOMCOT_clean_sbu_1, # of connection points: 5
#     Node 14, Type 0, BuildingBlock: XOMCOT_clean_sbu_1, # of connection points: 5
#     Node 15, Type 0, BuildingBlock: XOMCOT_clean_sbu_1, # of connection points: 5
#     Node 16, Type 0, BuildingBlock: XOMCOT_clean_sbu_1, # of connection points: 5
#     Node 17, Type 0, BuildingBlock: XOMCOT_clean_sbu_1, # of connection points: 5
#     Node 18, Type 0, BuildingBlock: XOMCOT_clean_sbu_1, # of connection points: 5
#     Node 19, Type 0, BuildingBlock: XOMCOT_clean_sbu_1, # of connection points: 5
#     Node 20, Type 0, BuildingBlock: XOMCOT_clean_sbu_1, # of connection points: 5
#     Node 21, Type 0, BuildingBlock: XOMCOT_clean_sbu_1, # of connection points: 5
#     Node 22, Type 0, BuildingBlock: XOMCOT_clean_sbu_1, # of connection points: 5
#     Node 23, Type 0, BuildingBlock: XOMCOT_clean_sbu_1, # of connection points: 5
#     Node 24, Type 0, BuildingBlock: XOMCOT_clean_sbu_1, # of connection points: 5
#     Node 25, Type 0, BuildingBlock: XOMCOT_clean_sbu_1, # of connection points: 5
#     Node 26, Type 0, BuildingBlock: XOMCOT_clean_sbu_1, # of connection points: 5
#     Node 27, Type 0, BuildingBlock: XOMCOT_clean_sbu_1, # of connection points: 5
#     Node 28, Type 0, BuildingBlock: XOMCOT_clean_sbu_1, # of connection points: 5
#     Node 29, Type 0, BuildingBlock: XOMCOT_clean_sbu_1, # of connection points: 5
#     Node 30, Type 0, BuildingBlock: XOMCOT_clean_sbu_1, # of connection points: 5
#     Node 31, Type 0, BuildingBlock: XOMCOT_clean_sbu_1, # of connection points: 5
#     Edge 32, Type (0, 0), None
#     Edge 33, Type (0, 0), None
#     Edge 34, Type (0, 0), None
#     Edge 35, Type (0, 0), None
#     Edge 36, Type (0, 0), None
#     Edge 37, Type (0, 0), None
#     Edge 38, Type (0, 0), None
#     Edge 39, Type (0, 0), None
#     Edge 40, Type (0, 0), None
#     Edge 41, Type (0, 0), None
#     Edge 42, Type (0, 0), None
#     Edge 43, Type (0, 0), None
#     Edge 44, Type (0, 0), None
#     Edge 45, Type (0, 0), None
#     Edge 46, Type (0, 0), None
#     Edge 47, Type (0, 0), None
#     Edge 48, Type (0, 0), None
#     Edge 49, Type (0, 0), None
#     Edge 50, Type (0, 0), None
#     Edge 51, Type (0, 0), None
#     Edge 52, Type (0, 0), None
#     Edge 53, Type (0, 0), None
#     Edge 54, Type (0, 0), None
#     Edge 55, Type (0, 0), None
#     Edge 56, Type (0, 0), None
#     Edge 57, Type (0, 0), None
#     Edge 58, Type (0, 0), None
#     Edge 59, Type (0, 0), None
#     Edge 60, Type (0, 0), None
#     Edge 61, Type (0, 0), None
#     Edge 62, Type (0, 0), None
#     Edge 63, Type (0, 0), None
#     Edge 64, Type (0, 0), None
#     Edge 65, Type (0, 0), None
#     Edge 66, Type (0, 0), None
#     Edge 67, Type (0, 0), None
#     Edge 68, Type (0, 0), None
#     Edge 69, Type (0, 0), None
#     Edge 70, Type (0, 0), None
#     Edge 71, Type (0, 0), None
#     Edge 72, Type (0, 0), None
#     Edge 73, Type (0, 0), None
#     Edge 74, Type (0, 0), None
#     Edge 75, Type (0, 0), None
#     Edge 76, Type (0, 0), None
#     Edge 77, Type (0, 0), None
#     Edge 78, Type (0, 0), None
#     Edge 79, Type (0, 0), None
#     Edge 80, Type (0, 0), None
#     Edge 81, Type (0, 0), None
#     Edge 82, Type (0, 0), None
#     Edge 83, Type (0, 0), None
#     Edge 84, Type (0, 0), None
#     Edge 85, Type (0, 0), None
#     Edge 86, Type (0, 0), None
#     Edge 87, Type (0, 0), None
#     Edge 88, Type (0, 0), None
#     Edge 89, Type (0, 0), None
#     Edge 90, Type (0, 0), None
#     Edge 91, Type (0, 0), None
#     Edge 92, Type (0, 0), None
#     Edge 93, Type (0, 0), None
#     Edge 94, Type (0, 0), None
#     Edge 95, Type (0, 0), None
#     Edge 96, Type (0, 0), None
#     Edge 97, Type (0, 0), None
#     Edge 98, Type (0, 0), None
#     Edge 99, Type (0, 0), None
#     Edge 100, Type (0, 0), None
#     Edge 101, Type (0, 0), None
#     Edge 102, Type (0, 0), None
#     Edge 103, Type (0, 0), None
#     Edge 104, Type (0, 0), None
#     Edge 105, Type (0, 0), None
#     Edge 106, Type (0, 0), None
#     Edge 107, Type (0, 0), None
#     Edge 108, Type (0, 0), None
#     Edge 109, Type (0, 0), None
#     Edge 110, Type (0, 0), None
#     Edge 111, Type (0, 0), None
# Relax obj value: 0.048
# Max RMSD: 0.078
# Mean RMSD: 0.078
data_MOF--net-wgl--node1-XOMCOT_clean_sbu_1--edge1-none
_symmetry_space_group_name_H-M    P1
_symmetry_Int_Tables_number       1
_symmetry_cell_setting            triclinic
loop_
_symmetry_equiv_pos_as_xyz
'x, y, z'
_cell_length_a     30.406306
_cell_length_b     30.406913
_cell_length_c     23.739606
_cell_angle_alpha  90.000001
_cell_angle_beta   89.999451
_cell_angle_gamma 89.999978
loop_
_atom_site_label
_atom_site_type_symbol
_atom_site_fract_x
_atom_site_fract_y
_atom_site_fract_z
_atom_type_partial_charge
C0 C 0.25779 0.40414 0.24842 0.0
C1 C 0.23042 0.43991 0.23877 0.0
N2 N 0.22027 0.44079 0.18362 0.0
N3 N 0.26478 0.38224 0.1997 0.0
C4 C 0.24146 0.40582 0.16083 0.0
H5 H 0.27032 0.39378 0.28894 0.0
Co6 Co 0.29366 0.32624 0.19072 0.0
C7 C 0.27954 0.30871 0.07001 0.0
O8 O 0.32156 0.29958 0.06481 0.0
N9 N 0.31806 0.26896 0.17985 0.0
C10 C 0.3084 0.19637 0.17224 0.0
C11 C 0.28992 0.2366 0.1638 0.0
C12 C 0.35432 0.24668 0.19705 0.0
N13 N 0.34847 0.20276 0.19384 0.0
O14 O 0.2501 0.2973 0.2346 0.0
H15 H 0.25639 0.24164 0.15012 0.0
H16 H 0.38392 0.26146 0.21349 0.0
O17 O 0.26333 0.31909 0.11808 0.0
C18 C 0.27112 0.28573 0.27945 0.0
O19 O 0.30787 0.30594 0.29246 0.0
N20 N 0.3418 0.35392 0.15856 0.0
C21 C 0.41911 0.40037 0.14261 0.0
C22 C 0.38349 0.40641 0.10586 0.0
C23 C 0.34458 0.38274 0.11461 0.0
C24 C 0.37605 0.34905 0.19494 0.0
C25 C 0.41558 0.37042 0.18643 0.0
H26 H 0.31633 0.38947 0.08841 0.0
H27 H 0.3717 0.33093 0.23347 0.0
H28 H 0.23835 0.39667 0.11701 0.0
H29 H 0.21832 0.46285 0.27 0.0
H30 H 0.29396 0.16472 0.16243 0.0
H31 H 0.38503 0.4312 0.07333 0.0
H32 H 0.4415 0.36747 0.21752 0.0
C33 C 0.877 1.00781 0.49843 0.0
C34 C 0.84123 0.98044 0.48879 0.0
N35 N 0.84037 0.97025 0.43365 0.0
N36 N 0.89892 1.01477 0.44971 0.0
C37 C 0.87535 0.99142 0.41086 0.0
H38 H 0.88735 0.02036 0.53895 0.0
Co39 Co 0.95492 0.04365 0.44073 0.0
C40 C 0.97243 0.02953 0.32001 0.0
O41 O 0.98155 0.07155 0.3148 0.0
N42 N 1.0122 0.06805 0.42984 0.0
C43 C 0.08479 0.05839 0.42221 0.0
C44 C 0.04456 0.03991 0.41378 0.0
C45 C 0.03449 0.10431 0.44704 0.0
N46 N 0.07841 0.09846 0.44381 0.0
O47 O 0.98387 1.00009 0.4846 0.0
H48 H 0.03951 1.00638 0.4001 0.0
H49 H 0.01972 0.13391 0.46349 0.0
O50 O 0.96206 1.01332 0.36809 0.0
C51 C 0.99544 0.02112 0.52945 0.0
O52 O 0.97522 0.05786 0.54246 0.0
N53 N 0.92723 0.09178 0.40857 0.0
C54 C 0.88076 0.16908 0.39263 0.0
C55 C 0.8747 0.13346 0.35589 0.0
C56 C 0.89839 0.09456 0.36464 0.0
C57 C 0.93211 0.12604 0.44494 0.0
C58 C 0.91072 0.16557 0.43644 0.0
H59 H 0.89166 0.0663 0.33844 0.0
H60 H 0.95024 0.1217 0.48346 0.0
H61 H 0.88451 0.9883 0.36705 0.0
H62 H 0.81827 0.96836 0.52002 0.0
H63 H 0.11644 0.04394 0.41239 0.0
H64 H 0.84991 0.13499 0.32338 0.0
H65 H 0.91368 0.19149 0.46752 0.0
C66 C 0.27341 0.62705 0.74842 0.0
C67 C 0.30078 0.59128 0.73877 0.0
N68 N 0.31093 0.59039 0.68362 0.0
N69 N 0.26642 0.64894 0.6997 0.0
C70 C 0.28975 0.62536 0.66083 0.0
H71 H 0.26088 0.6374 0.78894 0.0
Co72 Co 0.23754 0.70494 0.69072 0.0
C73 C 0.25166 0.72247 0.57001 0.0
O74 O 0.20964 0.7316 0.5648 0.0
N75 N 0.21314 0.76222 0.67985 0.0
C76 C 0.2228 0.83481 0.67224 0.0
C77 C 0.24128 0.79458 0.66379 0.0
C78 C 0.17688 0.7845 0.69705 0.0
N79 N 0.18273 0.82842 0.69383 0.0
O80 O 0.2811 0.73388 0.7346 0.0
H81 H 0.27481 0.78954 0.65011 0.0
H82 H 0.14728 0.76972 0.71349 0.0
O83 O 0.26787 0.71209 0.61808 0.0
C84 C 0.26008 0.74545 0.77945 0.0
O85 O 0.22333 0.72524 0.79246 0.0
N86 N 0.1894 0.67726 0.65856 0.0
C87 C 0.11209 0.63081 0.64261 0.0
C88 C 0.14771 0.62477 0.60586 0.0
C89 C 0.18662 0.64844 0.61461 0.0
C90 C 0.15515 0.68213 0.69494 0.0
C91 C 0.11562 0.66076 0.68643 0.0
H92 H 0.21487 0.64171 0.58841 0.0
H93 H 0.1595 0.70025 0.73347 0.0
H94 H 0.29285 0.63451 0.61701 0.0
H95 H 0.31288 0.56833 0.77 0.0
H96 H 0.23724 0.86646 0.66242 0.0
H97 H 0.14617 0.59998 0.57333 0.0
H98 H 0.0897 0.66371 0.71752 0.0
C99 C 0.65419 0.02337 0.99843 0.0
C100 C 0.68997 0.05074 0.98879 0.0
N101 N 0.69083 0.06093 0.93365 0.0
N102 N 0.63228 0.01641 0.94971 0.0
C103 C 0.65585 0.03976 0.91086 0.0
H104 H 0.64385 1.01082 1.03895 0.0
Co105 Co 0.57628 0.98753 0.94073 0.0
C106 C 0.55877 1.00165 0.82001 0.0
O107 O 0.54965 0.95963 0.8148 0.0
N108 N 0.519 0.96313 0.92984 0.0
C109 C 0.44641 0.97279 0.92221 0.0
C110 C 0.48664 0.99127 0.91378 0.0
C111 C 0.49671 0.92687 0.94703 0.0
N112 N 0.45279 0.93272 0.94381 0.0
O113 O 0.54733 0.03109 0.9846 0.0
H114 H 0.49169 0.0248 0.9001 0.0
H115 H 0.51148 0.89727 0.96348 0.0
O116 O 0.56914 0.01786 0.86809 0.0
C117 C 0.53576 1.01006 1.02945 0.0
O118 O 0.55598 0.97332 1.04246 0.0
N119 N 0.60397 0.9394 0.90857 0.0
C120 C 0.65045 0.8621 0.89263 0.0
C121 C 0.6565 0.89772 0.85589 0.0
C122 C 0.63281 0.93662 0.86464 0.0
C123 C 0.59909 0.90514 0.94494 0.0
C124 C 0.62048 0.86561 0.93644 0.0
H125 H 0.63954 0.96488 0.83844 0.0
H126 H 0.58096 0.90948 0.98346 0.0
H127 H 0.64669 0.04288 0.86705 0.0
H128 H 0.71292 0.06282 1.02002 0.0
H129 H 0.41476 0.98724 0.91239 0.0
H130 H 0.6813 0.89619 0.82338 0.0
H131 H 0.61752 0.83969 0.96752 0.0
C132 C 0.25779 0.62704 0.3414 0.0
C133 C 0.23042 0.59127 0.35105 0.0
N134 N 0.22027 0.59039 0.4062 0.0
N135 N 0.26479 0.64894 0.39013 0.0
C136 C 0.24146 0.62536 0.42899 0.0
H137 H 0.27032 0.6374 0.30088 0.0
Co138 Co 0.29366 0.70494 0.3991 0.0
C139 C 0.27954 0.72247 0.51981 0.0
O140 O 0.32156 0.7316 0.52502 0.0
N141 N 0.31806 0.76222 0.40997 0.0
C142 C 0.3084 0.83481 0.41758 0.0
C143 C 0.28992 0.79458 0.42602 0.0
C144 C 0.35432 0.7845 0.39278 0.0
N145 N 0.34847 0.82842 0.39599 0.0
O146 O 0.2501 0.73388 0.35522 0.0
H147 H 0.25639 0.78954 0.4397 0.0
H148 H 0.38392 0.76972 0.37634 0.0
O149 O 0.26333 0.71209 0.47174 0.0
C150 C 0.27113 0.74545 0.31037 0.0
O151 O 0.30787 0.72524 0.29736 0.0
N152 N 0.3418 0.67726 0.43126 0.0
C153 C 0.41911 0.63081 0.44722 0.0
C154 C 0.38349 0.62477 0.48397 0.0
C155 C 0.34458 0.64844 0.47521 0.0
C156 C 0.37605 0.68213 0.39488 0.0
C157 C 0.41558 0.66076 0.40339 0.0
H158 H 0.31633 0.64172 0.50142 0.0
H159 H 0.3717 0.70025 0.35636 0.0
H160 H 0.23836 0.63451 0.47281 0.0
H161 H 0.21832 0.56833 0.31982 0.0
H162 H 0.29396 0.86646 0.42739 0.0
H163 H 0.38503 0.59998 0.5165 0.0
H164 H 0.44151 0.66371 0.3723 0.0
C165 C 0.65419 1.00781 0.59139 0.0
C166 C 0.68997 0.98044 0.60103 0.0
N167 N 0.69083 0.97025 0.65617 0.0
N168 N 0.63228 1.01477 0.64011 0.0
C169 C 0.65585 0.99142 0.67897 0.0
H170 H 0.64385 0.02036 0.55087 0.0
Co171 Co 0.57628 0.04365 0.6491 0.0
C172 C 0.55877 0.02953 0.76982 0.0
O173 O 0.54965 0.07155 0.77502 0.0
N174 N 0.519 0.06805 0.65999 0.0
C175 C 0.44641 0.05839 0.66762 0.0
C176 C 0.48664 0.03991 0.67605 0.0
C177 C 0.49671 0.10431 0.64279 0.0
N178 N 0.45279 0.09846 0.64602 0.0
O179 O 0.54733 1.00009 0.60522 0.0
H180 H 0.49169 1.00638 0.68973 0.0
H181 H 0.51148 0.13391 0.62634 0.0
O182 O 0.56914 1.01332 0.72174 0.0
C183 C 0.53576 0.02112 0.56037 0.0
O184 O 0.55597 0.05786 0.54737 0.0
N185 N 0.60397 0.09178 0.68125 0.0
C186 C 0.65045 0.16908 0.69719 0.0
C187 C 0.6565 0.13345 0.73393 0.0
C188 C 0.63281 0.09455 0.72519 0.0
C189 C 0.59909 0.12604 0.64488 0.0
C190 C 0.62048 0.16557 0.65338 0.0
H191 H 0.63954 0.0663 0.75138 0.0
H192 H 0.58096 0.1217 0.60637 0.0
H193 H 0.64669 0.9883 0.72278 0.0
H194 H 0.71292 0.96836 0.5698 0.0
H195 H 0.41476 0.04394 0.67744 0.0
H196 H 0.6813 0.13499 0.76644 0.0
H197 H 0.61752 0.19149 0.6223 0.0
C198 C 0.27341 0.40414 0.84141 0.0
C199 C 0.30078 0.43991 0.85105 0.0
N200 N 0.31093 0.44079 0.9062 0.0
N201 N 0.26641 0.38224 0.89013 0.0
C202 C 0.28974 0.40582 0.92899 0.0
H203 H 0.26088 0.39378 0.80088 0.0
Co204 Co 0.23754 0.32624 0.8991 0.0
C205 C 0.25166 0.30871 1.01981 0.0
O206 O 0.20964 0.29958 1.02502 0.0
N207 N 0.21314 0.26896 0.90998 0.0
C208 C 0.2228 0.19637 0.91758 0.0
C209 C 0.24128 0.2366 0.92603 0.0
C210 C 0.17688 0.24668 0.89278 0.0
N211 N 0.18273 0.20276 0.89599 0.0
O212 O 0.2811 0.2973 0.85522 0.0
H213 H 0.27481 0.24164 0.93971 0.0
H214 H 0.14728 0.26146 0.87634 0.0
O215 O 0.26787 0.31909 0.97174 0.0
C216 C 0.26008 0.28573 0.81037 0.0
O217 O 0.22333 0.30594 0.79736 0.0
N218 N 0.1894 0.35392 0.93126 0.0
C219 C 0.11209 0.40037 0.94722 0.0
C220 C 0.14771 0.40641 0.98397 0.0
C221 C 0.18662 0.38274 0.97522 0.0
C222 C 0.15515 0.34905 0.89488 0.0
C223 C 0.11562 0.37042 0.90339 0.0
H224 H 0.21487 0.38947 1.00142 0.0
H225 H 0.1595 0.33093 0.85636 0.0
H226 H 0.29284 0.39667 0.97281 0.0
H227 H 0.31288 0.46285 0.81982 0.0
H228 H 0.23724 0.16472 0.9274 0.0
H229 H 0.14617 0.4312 1.0165 0.0
H230 H 0.0897 0.36747 0.8723 0.0
C231 C 0.87701 0.02337 0.0914 0.0
C232 C 0.84123 0.05074 0.10104 0.0
N233 N 0.84037 0.06093 0.15618 0.0
N234 N 0.89892 0.01641 0.14011 0.0
C235 C 0.87535 0.03976 0.17897 0.0
H236 H 0.88735 1.01082 0.05088 0.0
Co237 Co 0.95492 0.98753 0.1491 0.0
C238 C 0.97243 1.00165 0.26982 0.0
O239 O 0.98155 0.95963 0.27502 0.0
N240 N 1.0122 0.96313 0.15999 0.0
C241 C 0.08479 0.97279 0.16762 0.0
C242 C 0.04456 0.99127 0.17605 0.0
C243 C 0.03449 0.92687 0.14279 0.0
N244 N 0.07841 0.93272 0.14602 0.0
O245 O 0.98387 0.03109 0.10522 0.0
H246 H 0.03951 0.0248 0.18973 0.0
H247 H 0.01972 0.89727 0.12634 0.0
O248 O 0.96206 0.01786 0.22174 0.0
C249 C 0.99544 1.01006 0.06037 0.0
O250 O 0.97523 0.97332 0.04737 0.0
N251 N 0.92723 0.9394 0.18126 0.0
C252 C 0.88076 0.8621 0.19719 0.0
C253 C 0.8747 0.89772 0.23393 0.0
C254 C 0.89839 0.93662 0.22519 0.0
C255 C 0.93211 0.90514 0.14488 0.0
C256 C 0.91072 0.86561 0.15338 0.0
H257 H 0.89166 0.96488 0.25138 0.0
H258 H 0.95025 0.90949 0.10637 0.0
H259 H 0.88451 0.04288 0.22278 0.0
H260 H 0.81828 0.06282 0.06981 0.0
H261 H 0.11644 0.98724 0.17744 0.0
H262 H 0.8499 0.89619 0.26644 0.0
H263 H 0.91368 0.83969 0.1223 0.0
C264 C 0.77337 0.62698 0.8414 0.0
C265 C 0.80073 0.59121 0.85104 0.0
N266 N 0.81092 0.59035 0.90618 0.0
N267 N 0.76641 0.6489 0.89011 0.0
C268 C 0.78976 0.62533 0.92897 0.0
H269 H 0.76081 0.63733 0.80088 0.0
Co270 Co 0.73755 0.7049 0.8991 0.0
C271 C 0.75166 0.72242 1.01981 0.0
O272 O 0.70964 0.73154 1.02501 0.0
N273 N 0.71316 0.76219 0.91 0.0
C274 C 0.72282 0.83478 0.91772 0.0
C275 C 0.74132 0.79454 0.92602 0.0
C276 C 0.67686 0.78448 0.89295 0.0
N277 N 0.6827 0.8284 0.89631 0.0
O278 O 0.7811 0.73384 0.85521 0.0
H279 H 0.77488 0.78948 0.9396 0.0
H280 H 0.64724 0.76972 0.87654 0.0
O281 O 0.76788 0.71204 0.97174 0.0
C282 C 0.76006 0.74542 0.81037 0.0
O283 O 0.72331 0.72521 0.79738 0.0
N284 N 0.68941 0.67723 0.93127 0.0
C285 C 0.61211 0.63075 0.94721 0.0
C286 C 0.64774 0.62469 0.98394 0.0
C287 C 0.68664 0.64838 0.97519 0.0
C288 C 0.65514 0.68212 0.89491 0.0
C289 C 0.61562 0.66073 0.90341 0.0
H290 H 0.71489 0.64164 1.00138 0.0
H291 H 0.65948 0.70027 0.8564 0.0
H292 H 0.79288 0.63449 0.97278 0.0
H293 H 0.81281 0.56825 0.81981 0.0
H294 H 0.73729 0.86642 0.92751 0.0
H295 H 0.64621 0.59989 1.01644 0.0
H296 H 0.58968 0.6637 0.87234 0.0
C297 C 0.1542 0.02332 0.59143 0.0
C298 C 0.18998 0.05069 0.60107 0.0
N299 N 0.19084 0.06088 0.65621 0.0
N300 N 0.13229 0.01636 0.64015 0.0
C301 C 0.15586 0.03971 0.679 0.0
H302 H 0.14386 1.01076 0.55092 0.0
Co303 Co 0.07629 0.98749 0.64912 0.0
C304 C 0.05872 1.00164 0.76982 0.0
O305 O 0.04958 0.95963 0.77504 0.0
N306 N 0.01901 0.96308 0.65999 0.0
C307 C 0.94641 0.97274 0.66756 0.0
C308 C 0.98664 0.99122 0.67601 0.0
C309 C 0.99673 0.92682 0.6428 0.0
N310 N 0.95281 0.93267 0.64599 0.0
O311 O 0.04735 0.03102 0.6052 0.0
H312 H 0.99168 0.02476 0.68967 0.0
H313 H 1.01151 0.89721 0.62638 0.0
O314 O 0.06912 0.01785 0.72174 0.0
C315 C 0.03578 1.00998 0.56036 0.0
O316 O 0.05599 0.97323 0.54737 0.0
N317 N 0.10397 0.93937 0.68134 0.0
C318 C 0.15045 0.8621 0.69742 0.0
C319 C 0.15645 0.89774 0.73414 0.0
C320 C 0.13277 0.93663 0.72532 0.0
C321 C 0.09913 0.90509 0.64499 0.0
C322 C 0.12053 0.86558 0.65354 0.0
H323 H 0.13947 0.9649 0.75149 0.0
H324 H 0.08102 0.90941 0.60645 0.0
H325 H 0.1467 0.04284 0.72281 0.0
H326 H 0.21293 0.06277 0.56984 0.0
H327 H 0.91476 0.98719 0.67735 0.0
H328 H 0.18122 0.89623 0.76669 0.0
H329 H 0.11761 0.83964 0.62248 0.0
C330 C 0.75783 0.40419 0.3414 0.0
C331 C 0.73047 0.43997 0.35104 0.0
N332 N 0.72028 0.44083 0.40618 0.0
N333 N 0.76479 0.38228 0.39011 0.0
C334 C 0.74144 0.40585 0.42897 0.0
H335 H 0.77039 0.39385 0.30088 0.0
Co336 Co 0.79365 0.32628 0.3991 0.0
C337 C 0.77954 0.30876 0.51981 0.0
O338 O 0.82156 0.29964 0.52501 0.0
N339 N 0.81804 0.26899 0.41 0.0
C340 C 0.80838 0.1964 0.41772 0.0
C341 C 0.78988 0.23664 0.42602 0.0
C342 C 0.85434 0.2467 0.39295 0.0
N343 N 0.84851 0.20278 0.39631 0.0
O344 O 0.7501 0.29734 0.35521 0.0
H345 H 0.75632 0.2417 0.4396 0.0
H346 H 0.88396 0.26146 0.37654 0.0
O347 O 0.76332 0.31914 0.47174 0.0
C348 C 0.77114 0.28576 0.31037 0.0
O349 O 0.80789 0.30597 0.29738 0.0
N350 N 0.84179 0.35395 0.43127 0.0
C351 C 0.91909 0.40043 0.44721 0.0
C352 C 0.88346 0.40649 0.48394 0.0
C353 C 0.84456 0.3828 0.47519 0.0
C354 C 0.87606 0.34906 0.39491 0.0
C355 C 0.91558 0.37045 0.40341 0.0
H356 H 0.8163 0.38954 0.50138 0.0
H357 H 0.87172 0.33091 0.3564 0.0
H358 H 0.73832 0.39669 0.47278 0.0
H359 H 0.71839 0.46293 0.31981 0.0
H360 H 0.79391 0.16476 0.42751 0.0
H361 H 0.88499 0.43129 0.51644 0.0
H362 H 0.94152 0.36748 0.37234 0.0
C363 C 0.377 1.00786 0.09143 0.0
C364 C 0.34122 0.98049 0.10107 0.0
N365 N 0.34036 0.9703 0.15621 0.0
N366 N 0.39891 1.01482 0.14015 0.0
C367 C 0.37534 0.99147 0.179 0.0
H368 H 0.38734 0.02042 0.05092 0.0
Co369 Co 0.45491 0.04369 0.14913 0.0
C370 C 0.47248 0.02954 0.26982 0.0
O371 O 0.48162 0.07155 0.27504 0.0
N372 N 0.51219 0.0681 0.15999 0.0
C373 C 0.58479 0.05844 0.16756 0.0
C374 C 0.54456 0.03996 0.17601 0.0
C375 C 0.53447 0.10436 0.14281 0.0
N376 N 0.57839 0.09851 0.146 0.0
O377 O 0.48385 1.00016 0.1052 0.0
H378 H 0.53952 1.00642 0.18967 0.0
H379 H 0.51969 0.13397 0.12638 0.0
O380 O 0.46208 1.01334 0.22174 0.0
C381 C 0.49542 0.0212 0.06036 0.0
O382 O 0.47521 0.05795 0.04737 0.0
N383 N 0.42723 0.09181 0.18134 0.0
C384 C 0.38075 0.16908 0.19742 0.0
C385 C 0.37475 0.13344 0.23414 0.0
C386 C 0.39843 0.09455 0.22532 0.0
C387 C 0.43207 0.12609 0.14499 0.0
C388 C 0.41067 0.1656 0.15354 0.0
H389 H 0.39173 0.06628 0.25149 0.0
H390 H 0.45018 0.12177 0.10645 0.0
H391 H 0.3845 0.98834 0.22282 0.0
H392 H 0.31827 0.96841 0.06984 0.0
H393 H 0.61644 0.04399 0.17735 0.0
H394 H 0.34998 0.13495 0.26669 0.0
H395 H 0.41359 0.19154 0.12248 0.0
C396 C 0.77337 0.40419 0.74843 0.0
C397 C 0.80073 0.43997 0.73879 0.0
N398 N 0.81092 0.44083 0.68365 0.0
N399 N 0.76641 0.38227 0.69971 0.0
C400 C 0.78976 0.40585 0.66086 0.0
H401 H 0.76081 0.39385 0.78895 0.0
Co402 Co 0.73755 0.32627 0.69072 0.0
C403 C 0.75166 0.30876 0.57001 0.0
O404 O 0.70964 0.29964 0.56481 0.0
N405 N 0.71316 0.26899 0.67982 0.0
C406 C 0.72282 0.1964 0.6721 0.0
C407 C 0.74132 0.23664 0.6638 0.0
C408 C 0.67686 0.2467 0.69687 0.0
N409 N 0.6827 0.20278 0.69352 0.0
O410 O 0.7811 0.29734 0.73461 0.0
H411 H 0.77488 0.24169 0.65022 0.0
H412 H 0.64724 0.26146 0.71329 0.0
O413 O 0.76788 0.31914 0.61809 0.0
C414 C 0.76006 0.28576 0.77945 0.0
O415 O 0.72331 0.30596 0.79244 0.0
N416 N 0.68941 0.35395 0.65856 0.0
C417 C 0.61211 0.40043 0.64262 0.0
C418 C 0.64774 0.40649 0.60589 0.0
C419 C 0.68664 0.3828 0.61463 0.0
C420 C 0.65514 0.34906 0.69491 0.0
C421 C 0.61562 0.37045 0.68641 0.0
H422 H 0.7149 0.38954 0.58845 0.0
H423 H 0.65948 0.33091 0.73342 0.0
H424 H 0.79289 0.39669 0.61705 0.0
H425 H 0.81281 0.46293 0.77002 0.0
H426 H 0.73729 0.16475 0.66231 0.0
H427 H 0.64622 0.43129 0.57339 0.0
H428 H 0.58969 0.36748 0.71749 0.0
C429 C 0.37699 0.02332 0.49839 0.0
C430 C 0.34122 0.05069 0.48876 0.0
N431 N 0.34036 0.06088 0.43362 0.0
N432 N 0.39891 0.01636 0.44967 0.0
C433 C 0.37534 0.03971 0.41082 0.0
H434 H 0.38734 1.01076 0.53891 0.0
Co435 Co 0.45491 0.98749 0.4407 0.0
C436 C 0.47248 1.00164 0.32001 0.0
O437 O 0.48162 0.95963 0.31479 0.0
N438 N 0.51219 0.96308 0.42983 0.0
C439 C 0.58479 0.97274 0.42227 0.0
C440 C 0.54456 0.99122 0.41381 0.0
C441 C 0.53447 0.92682 0.44702 0.0
N442 N 0.57839 0.93267 0.44383 0.0
O443 O 0.48385 0.03102 0.48462 0.0
H444 H 0.53952 0.02476 0.40015 0.0
H445 H 0.51968 0.89721 0.46344 0.0
O446 O 0.46208 0.01784 0.36808 0.0
C447 C 0.49542 1.00998 0.52947 0.0
O448 O 0.47521 0.97323 0.54246 0.0
N449 N 0.42723 0.93937 0.40849 0.0
C450 C 0.38075 0.8621 0.39241 0.0
C451 C 0.37475 0.89774 0.35569 0.0
C452 C 0.39843 0.93663 0.36451 0.0
C453 C 0.43207 0.90509 0.44484 0.0
C454 C 0.41067 0.86558 0.43628 0.0
H455 H 0.39173 0.9649 0.33833 0.0
H456 H 0.45018 0.90941 0.48338 0.0
H457 H 0.3845 0.04284 0.36701 0.0
H458 H 0.31826 0.06277 0.51999 0.0
H459 H 0.61644 0.98719 0.41248 0.0
H460 H 0.34998 0.89623 0.32313 0.0
H461 H 0.41359 0.83964 0.46734 0.0
C462 C 0.75783 0.62699 0.24843 0.0
C463 C 0.73047 0.59121 0.23879 0.0
N464 N 0.72028 0.59035 0.18365 0.0
N465 N 0.76479 0.64891 0.19971 0.0
C466 C 0.74144 0.62533 0.16086 0.0
H467 H 0.77039 0.63733 0.28894 0.0
Co468 Co 0.79365 0.70491 0.19072 0.0
C469 C 0.77954 0.72242 0.07001 0.0
O470 O 0.82156 0.73154 0.06481 0.0
N471 N 0.81804 0.76219 0.17982 0.0
C472 C 0.80838 0.83478 0.1721 0.0
C473 C 0.78988 0.79455 0.1638 0.0
C474 C 0.85434 0.78448 0.19687 0.0
N475 N 0.8485 0.8284 0.19352 0.0
O476 O 0.7501 0.73384 0.23461 0.0
H477 H 0.75632 0.78949 0.15022 0.0
H478 H 0.88396 0.76972 0.21329 0.0
O479 O 0.76332 0.71204 0.11808 0.0
C480 C 0.77114 0.74542 0.27945 0.0
O481 O 0.80789 0.72522 0.29244 0.0
N482 N 0.84179 0.67723 0.15855 0.0
C483 C 0.91909 0.63075 0.14262 0.0
C484 C 0.88346 0.62469 0.10589 0.0
C485 C 0.84456 0.64838 0.11463 0.0
C486 C 0.87606 0.68212 0.19491 0.0
C487 C 0.91558 0.66073 0.18641 0.0
H488 H 0.8163 0.64164 0.08845 0.0
H489 H 0.87172 0.70027 0.23342 0.0
H490 H 0.73831 0.6345 0.11704 0.0
H491 H 0.71839 0.56825 0.27001 0.0
H492 H 0.79391 0.86643 0.16231 0.0
H493 H 0.88499 0.59988 0.07339 0.0
H494 H 0.94151 0.6637 0.21748 0.0
C495 C 0.1542 1.00786 0.99839 0.0
C496 C 0.18998 0.98049 0.98875 0.0
N497 N 0.19084 0.9703 0.93361 0.0
N498 N 0.13229 1.01482 0.94967 0.0
C499 C 0.15586 0.99147 0.91082 0.0
H500 H 0.14386 0.02042 1.03891 0.0
Co501 Co 0.07629 0.04369 0.9407 0.0
C502 C 0.05872 0.02954 0.82001 0.0
O503 O 0.04958 0.07155 0.81479 0.0
N504 N 0.01901 0.0681 0.92983 0.0
C505 C 0.94641 0.05844 0.92227 0.0
C506 C 0.98664 0.03996 0.91382 0.0
C507 C 0.99673 0.10436 0.94702 0.0
N508 N 0.95281 0.09851 0.94383 0.0
O509 O 0.04735 1.00016 0.98462 0.0
H510 H 0.99168 1.00642 0.90016 0.0
H511 H 1.01152 0.13397 0.96344 0.0
O512 O 0.06912 1.01334 0.86808 0.0
C513 C 0.03578 0.0212 1.02947 0.0
O514 O 0.05599 0.05795 1.04246 0.0
N515 N 0.10397 0.09181 0.90849 0.0
C516 C 0.15045 0.16908 0.89241 0.0
C517 C 0.15645 0.13344 0.85568 0.0
C518 C 0.13277 0.09455 0.86451 0.0
C519 C 0.09913 0.12609 0.94484 0.0
C520 C 0.12053 0.1656 0.93628 0.0
H521 H 0.13947 0.06628 0.83833 0.0
H522 H 0.08102 0.12177 0.98338 0.0
H523 H 0.1467 0.98834 0.86701 0.0
H524 H 0.21294 0.96842 1.01998 0.0
H525 H 0.91476 0.04399 0.91248 0.0
H526 H 0.18122 0.13495 0.82313 0.0
H527 H 0.11761 0.19154 0.96734 0.0
C528 C 0.75785 0.90416 0.74841 0.0
C529 C 0.73046 0.93992 0.73878 0.0
N530 N 0.72026 0.94078 0.68364 0.0
N531 N 0.76482 0.88226 0.69968 0.0
C532 C 0.74147 0.90583 0.66083 0.0
H533 H 0.77041 0.89382 0.78892 0.0
Co534 Co 0.7937 0.82627 0.6907 0.0
C535 C 0.77955 0.80871 0.57 0.0
O536 O 0.82156 0.79957 0.56478 0.0
N537 N 0.81811 0.76899 0.67983 0.0
C538 C 0.80845 0.69639 0.67225 0.0
C539 C 0.78997 0.73662 0.66379 0.0
C540 C 0.85437 0.74671 0.69703 0.0
N541 N 0.84852 0.70279 0.69383 0.0
O542 O 0.75017 0.79732 0.73461 0.0
H543 H 0.75644 0.74166 0.65013 0.0
H544 H 0.88397 0.76149 0.71346 0.0
O545 O 0.76335 0.8191 0.61808 0.0
C546 C 0.77121 0.78575 0.77946 0.0
O547 O 0.80796 0.80596 0.79245 0.0
N548 N 0.84183 0.85395 0.6585 0.0
C549 C 0.91912 0.90039 0.64241 0.0
C550 C 0.88348 0.90641 0.60569 0.0
C551 C 0.84458 0.88275 0.61451 0.0
C552 C 0.87611 0.8491 0.69485 0.0
C553 C 0.91563 0.87048 0.68629 0.0
H554 H 0.81632 0.88945 0.58833 0.0
H555 H 0.87178 0.83099 0.73339 0.0
H556 H 0.73836 0.89668 0.61701 0.0
H557 H 0.71838 0.96287 0.77001 0.0
H558 H 0.794 0.66474 0.66246 0.0
H559 H 0.885 0.93117 0.57313 0.0
H560 H 0.94157 0.86756 0.71736 0.0
C561 C 0.37703 0.50779 0.99845 0.0
C562 C 0.34126 0.48041 0.98882 0.0
N563 N 0.3404 0.47022 0.93368 0.0
N564 N 0.39893 0.51477 0.94972 0.0
C565 C 0.37536 0.49142 0.91087 0.0
H566 H 0.38737 0.52035 1.03897 0.0
Co567 Co 0.45492 0.54364 0.94073 0.0
C568 C 0.47243 0.52953 0.82001 0.0
O569 O 0.48155 0.57155 0.81481 0.0
N570 N 0.5122 0.56803 0.92982 0.0
C571 C 0.5848 0.55838 0.92209 0.0
C572 C 0.54456 0.53988 0.91378 0.0
C573 C 0.53449 0.60433 0.94688 0.0
N574 N 0.57841 0.5985 0.94352 0.0
O575 O 0.48387 0.50009 0.98461 0.0
H576 H 0.5395 0.50632 0.9002 0.0
H577 H 0.51973 0.63394 0.96331 0.0
O578 O 0.46205 0.51331 0.86809 0.0
C579 C 0.49544 0.52112 1.02945 0.0
O580 O 0.47524 0.55788 1.04244 0.0
N581 N 0.42724 0.59179 0.90857 0.0
C582 C 0.3808 0.66911 0.89262 0.0
C583 C 0.37473 0.63348 0.85589 0.0
C584 C 0.3984 0.59457 0.86464 0.0
C585 C 0.43214 0.62605 0.94494 0.0
C586 C 0.41077 0.66558 0.93643 0.0
H587 H 0.39166 0.56631 0.83845 0.0
H588 H 0.45028 0.6217 0.98345 0.0
H589 H 0.3845 0.48832 0.86705 0.0
H590 H 0.31831 0.46833 1.02005 0.0
H591 H 0.61644 0.54392 0.91229 0.0
H592 H 0.34993 0.63502 0.82338 0.0
H593 H 0.41374 0.69151 0.96751 0.0
C594 C 0.77335 0.12702 0.24841 0.0
C595 C 0.80074 0.09126 0.23878 0.0
N596 N 0.81094 0.0904 0.18365 0.0
N597 N 0.76637 0.14892 0.19968 0.0
C598 C 0.78973 0.12535 0.16084 0.0
H599 H 0.76079 0.13736 0.28892 0.0
Co600 Co 0.7375 0.20491 0.1907 0.0
C601 C 0.75165 0.22247 0.07 0.0
O602 O 0.70964 0.23161 0.06478 0.0
N603 N 0.71309 0.26219 0.17983 0.0
C604 C 0.72275 0.33479 0.17225 0.0
C605 C 0.74123 0.29456 0.1638 0.0
C606 C 0.67683 0.28447 0.19703 0.0
N607 N 0.68268 0.32839 0.19383 0.0
O608 O 0.78103 0.23386 0.23462 0.0
H609 H 0.77476 0.28952 0.15013 0.0
H610 H 0.64722 0.26969 0.21346 0.0
O611 O 0.76785 0.21207 0.11808 0.0
C612 C 0.75999 0.24543 0.27946 0.0
O613 O 0.72324 0.22522 0.29245 0.0
N614 N 0.68937 0.17723 0.1585 0.0
C615 C 0.61208 0.13079 0.14241 0.0
C616 C 0.64772 0.12477 0.10569 0.0
C617 C 0.68662 0.14843 0.11452 0.0
C618 C 0.65509 0.18208 0.19485 0.0
C619 C 0.61557 0.1607 0.18629 0.0
H620 H 0.71489 0.14173 0.08834 0.0
H621 H 0.65942 0.20019 0.2334 0.0
H622 H 0.79284 0.1345 0.11702 0.0
H623 H 0.81281 0.06831 0.27001 0.0
H624 H 0.7372 0.36644 0.16246 0.0
H625 H 0.6462 0.10001 0.07313 0.0
H626 H 0.58963 0.16362 0.21736 0.0
C627 C 0.15417 0.52339 0.49845 0.0
C628 C 0.18994 0.55077 0.48882 0.0
N629 N 0.1908 0.56096 0.43368 0.0
N630 N 0.13227 0.51641 0.44972 0.0
C631 C 0.15584 0.53976 0.41087 0.0
H632 H 0.14383 0.51083 0.53896 0.0
Co633 Co 0.07628 0.48754 0.44073 0.0
C634 C 0.05877 0.50165 0.32001 0.0
O635 O 0.04965 0.45963 0.31481 0.0
N636 N 0.019 0.46315 0.42982 0.0
C637 C 0.9464 0.4728 0.42209 0.0
C638 C 0.98664 0.4913 0.41379 0.0
C639 C 0.99671 0.42685 0.44688 0.0
N640 N 0.95279 0.43268 0.44352 0.0
O641 O 0.04733 0.53109 0.48461 0.0
H642 H 0.9917 0.52486 0.4002 0.0
H643 H 1.01147 0.39724 0.46331 0.0
O644 O 0.06915 0.51787 0.36809 0.0
C645 C 0.03576 0.51006 0.52945 0.0
O646 O 0.05596 0.47331 0.54244 0.0
N647 N 0.10396 0.43939 0.40857 0.0
C648 C 0.1504 0.36207 0.39262 0.0
C649 C 0.15647 0.3977 0.35589 0.0
C650 C 0.1328 0.43661 0.36464 0.0
C651 C 0.09906 0.40513 0.44494 0.0
C652 C 0.12043 0.3656 0.43643 0.0
H653 H 0.13954 0.46486 0.33845 0.0
H654 H 0.08092 0.40948 0.48345 0.0
H655 H 0.1467 0.54286 0.36705 0.0
H656 H 0.21289 0.56285 0.52005 0.0
H657 H 0.91476 0.48726 0.4123 0.0
H658 H 0.18127 0.39616 0.32338 0.0
H659 H 0.11746 0.33967 0.46751 0.0
C660 C 0.75785 0.12702 0.84142 0.0
C661 C 0.73046 0.09126 0.85104 0.0
N662 N 0.72026 0.0904 0.90618 0.0
N663 N 0.76483 0.14892 0.89014 0.0
C664 C 0.74147 0.12535 0.92899 0.0
H665 H 0.77041 0.13736 0.8009 0.0
Co666 Co 0.7937 0.20491 0.89912 0.0
C667 C 0.77955 0.22247 1.01982 0.0
O668 O 0.82156 0.23161 1.02504 0.0
N669 N 0.81811 0.26219 0.91 0.0
C670 C 0.80845 0.33479 0.91757 0.0
C671 C 0.78997 0.29456 0.92603 0.0
C672 C 0.85437 0.28447 0.8928 0.0
N673 N 0.84852 0.32839 0.89599 0.0
O674 O 0.75017 0.23385 0.85521 0.0
H675 H 0.75643 0.28952 0.93969 0.0
H676 H 0.88398 0.26969 0.87636 0.0
O677 O 0.76335 0.21207 0.97174 0.0
C678 C 0.77121 0.24542 0.81036 0.0
O679 O 0.80796 0.22522 0.79737 0.0
N680 N 0.84183 0.17723 0.93132 0.0
C681 C 0.91912 0.13079 0.94741 0.0
C682 C 0.88348 0.12477 0.98414 0.0
C683 C 0.84458 0.14843 0.97531 0.0
C684 C 0.87611 0.18208 0.89497 0.0
C685 C 0.91563 0.1607 0.90353 0.0
H686 H 0.81631 0.14173 1.00149 0.0
H687 H 0.87178 0.20018 0.85643 0.0
H688 H 0.73836 0.1345 0.97281 0.0
H689 H 0.71839 0.06831 0.81981 0.0
H690 H 0.794 0.36644 0.92736 0.0
H691 H 0.885 0.10002 1.0167 0.0
H692 H 0.94157 0.16362 0.87247 0.0
C693 C 0.15417 0.50779 0.09138 0.0
C694 C 0.18994 0.48041 0.10101 0.0
N695 N 0.1908 0.47022 0.15615 0.0
N696 N 0.13227 0.51477 0.1401 0.0
C697 C 0.15584 0.49142 0.17895 0.0
H698 H 0.14383 0.52035 0.05086 0.0
Co699 Co 0.07628 0.54364 0.1491 0.0
C700 C 0.05877 0.52953 0.26981 0.0
O701 O 0.04965 0.57155 0.27502 0.0
N702 N 0.019 0.56803 0.16001 0.0
C703 C 0.9464 0.55838 0.16774 0.0
C704 C 0.98664 0.53988 0.17604 0.0
C705 C 0.99671 0.60433 0.14294 0.0
N706 N 0.95279 0.5985 0.1463 0.0
O707 O 0.04733 0.50009 0.10522 0.0
H708 H 0.9917 0.50633 0.18963 0.0
H709 H 1.01146 0.63394 0.12651 0.0
O710 O 0.06914 0.51331 0.22174 0.0
C711 C 0.03575 0.52112 0.06038 0.0
O712 O 0.05596 0.55787 0.04738 0.0
N713 N 0.10396 0.59178 0.18125 0.0
C714 C 0.1504 0.6691 0.1972 0.0
C715 C 0.15647 0.63348 0.23393 0.0
C716 C 0.1328 0.59457 0.22518 0.0
C717 C 0.09906 0.62605 0.14489 0.0
C718 C 0.12043 0.66558 0.15339 0.0
H719 H 0.13954 0.56631 0.25137 0.0
H720 H 0.08092 0.6217 0.10638 0.0
H721 H 0.1467 0.48832 0.22277 0.0
H722 H 0.21289 0.46833 0.06978 0.0
H723 H 0.91476 0.54392 0.17753 0.0
H724 H 0.18127 0.63501 0.26644 0.0
H725 H 0.11746 0.69151 0.12232 0.0
C726 C 0.77335 0.90416 0.34141 0.0
C727 C 0.80074 0.93992 0.35104 0.0
N728 N 0.81094 0.94078 0.40618 0.0
N729 N 0.76637 0.88226 0.39014 0.0
C730 C 0.78973 0.90583 0.42899 0.0
H731 H 0.76079 0.89382 0.3009 0.0
Co732 Co 0.7375 0.82627 0.39912 0.0
C733 C 0.75165 0.80871 0.51982 0.0
O734 O 0.70964 0.79957 0.52504 0.0
N735 N 0.71309 0.76899 0.40999 0.0
C736 C 0.72275 0.6964 0.41757 0.0
C737 C 0.74123 0.73662 0.42602 0.0
C738 C 0.67683 0.74671 0.39279 0.0
N739 N 0.68268 0.70279 0.39599 0.0
O740 O 0.78103 0.79733 0.35521 0.0
H741 H 0.77477 0.74166 0.43969 0.0
H742 H 0.64722 0.76149 0.37636 0.0
O743 O 0.76785 0.81911 0.47174 0.0
C744 C 0.75999 0.78576 0.31036 0.0
O745 O 0.72324 0.80596 0.29737 0.0
N746 N 0.68937 0.85395 0.43132 0.0
C747 C 0.61208 0.90039 0.44741 0.0
C748 C 0.64772 0.90641 0.48414 0.0
C749 C 0.68662 0.88275 0.47531 0.0
C750 C 0.65509 0.8491 0.39497 0.0
C751 C 0.61557 0.87048 0.40353 0.0
H752 H 0.71488 0.88945 0.50149 0.0
H753 H 0.65942 0.831 0.35643 0.0
H754 H 0.79284 0.89668 0.47281 0.0
H755 H 0.81281 0.96288 0.31981 0.0
H756 H 0.7372 0.66475 0.42736 0.0
H757 H 0.6462 0.93116 0.5167 0.0
H758 H 0.58963 0.86756 0.37247 0.0
C759 C 0.37703 0.52339 0.59138 0.0
C760 C 0.34127 0.55077 0.60101 0.0
N761 N 0.3404 0.56096 0.65615 0.0
N762 N 0.39893 0.51641 0.6401 0.0
C763 C 0.37536 0.53976 0.67895 0.0
H764 H 0.38737 0.51083 0.55086 0.0
Co765 Co 0.45492 0.48754 0.6491 0.0
C766 C 0.47243 0.50165 0.76981 0.0
O767 O 0.48155 0.45963 0.77502 0.0
N768 N 0.5122 0.46315 0.66001 0.0
C769 C 0.5848 0.4728 0.66774 0.0
C770 C 0.54456 0.4913 0.67604 0.0
C771 C 0.53449 0.42685 0.64294 0.0
N772 N 0.57841 0.43268 0.6463 0.0
O773 O 0.48387 0.53109 0.60522 0.0
H774 H 0.5395 0.52486 0.68963 0.0
H775 H 0.51974 0.39724 0.62651 0.0
O776 O 0.46205 0.51787 0.72174 0.0
C777 C 0.49545 0.51006 0.56038 0.0
O778 O 0.47524 0.47331 0.54738 0.0
N779 N 0.42724 0.43939 0.68125 0.0
C780 C 0.3808 0.36208 0.6972 0.0
C781 C 0.37473 0.3977 0.73393 0.0
C782 C 0.3984 0.43661 0.72518 0.0
C783 C 0.43214 0.40513 0.64489 0.0
C784 C 0.41077 0.3656 0.65339 0.0
H785 H 0.39166 0.46487 0.75137 0.0
H786 H 0.45028 0.40948 0.60638 0.0
H787 H 0.3845 0.54286 0.72277 0.0
H788 H 0.31831 0.56285 0.56978 0.0
H789 H 0.61644 0.48726 0.67753 0.0
H790 H 0.34993 0.39616 0.76644 0.0
H791 H 0.41374 0.33967 0.62232 0.0
C792 C 0.27331 0.12696 0.34141 0.0
C793 C 0.30069 0.0912 0.35103 0.0
N794 N 0.31093 0.09035 0.40615 0.0
N795 N 0.26637 0.14888 0.39013 0.0
C796 C 0.28974 0.12532 0.42896 0.0
H797 H 0.26072 0.13729 0.3009 0.0
Co798 Co 0.2375 0.20488 0.39912 0.0
C799 C 0.25165 0.22242 0.51982 0.0
O800 O 0.20964 0.23156 0.52504 0.0
N801 N 0.21311 0.26216 0.41002 0.0
C802 C 0.22277 0.33475 0.41771 0.0
C803 C 0.24127 0.29452 0.42603 0.0
C804 C 0.17681 0.28445 0.39297 0.0
N805 N 0.18264 0.32837 0.39631 0.0
O806 O 0.28103 0.23381 0.3552 0.0
H807 H 0.27483 0.28946 0.43959 0.0
H808 H 0.14719 0.26969 0.37656 0.0
O809 O 0.26786 0.21203 0.47174 0.0
C810 C 0.25998 0.24539 0.31036 0.0
O811 O 0.22322 0.2252 0.29739 0.0
N812 N 0.18938 0.1772 0.43133 0.0
C813 C 0.1121 0.13073 0.4474 0.0
C814 C 0.14775 0.1247 0.4841 0.0
C815 C 0.18664 0.14837 0.47529 0.0
C816 C 0.15508 0.18207 0.395 0.0
C817 C 0.11557 0.16067 0.40355 0.0
H818 H 0.21491 0.14166 0.50145 0.0
H819 H 0.1594 0.2002 0.35648 0.0
H820 H 0.29288 0.13448 0.47278 0.0
H821 H 0.31274 0.06823 0.3198 0.0
H822 H 0.23724 0.3664 0.42748 0.0
H823 H 0.14624 0.09992 0.51664 0.0
H824 H 0.08962 0.16361 0.3725 0.0
C825 C 0.65418 0.52334 0.09141 0.0
C826 C 0.68994 0.55072 0.10104 0.0
N827 N 0.69081 0.56092 0.15618 0.0
N828 N 0.63228 0.51636 0.14014 0.0
C829 C 0.65585 0.53972 0.17899 0.0
H830 H 0.64384 0.51077 0.0509 0.0
Co831 Co 0.57628 0.48749 0.14912 0.0
C832 C 0.55872 0.50165 0.26982 0.0
O833 O 0.54958 0.45963 0.27503 0.0
N834 N 0.51901 0.4631 0.16001 0.0
C835 C 0.44641 0.47275 0.16768 0.0
C836 C 0.48664 0.49126 0.17601 0.0
C837 C 0.49673 0.4268 0.14296 0.0
N838 N 0.45281 0.43262 0.14628 0.0
O839 O 0.54735 0.53102 0.1052 0.0
H840 H 0.49169 0.52482 0.18957 0.0
H841 H 0.5115 0.39718 0.12656 0.0
O842 O 0.56912 0.51785 0.22174 0.0
C843 C 0.53578 0.50998 0.06036 0.0
O844 O 0.55597 0.47322 0.04739 0.0
N845 N 0.60396 0.43937 0.18134 0.0
C846 C 0.6504 0.36208 0.19742 0.0
C847 C 0.65643 0.39772 0.23414 0.0
C848 C 0.63276 0.43662 0.22531 0.0
C849 C 0.5991 0.40509 0.14499 0.0
C850 C 0.62048 0.36557 0.15355 0.0
H851 H 0.63947 0.46489 0.25148 0.0
H852 H 0.58098 0.40941 0.10646 0.0
H853 H 0.6467 0.54283 0.22281 0.0
H854 H 0.7129 0.56279 0.06981 0.0
H855 H 0.41476 0.48721 0.17745 0.0
H856 H 0.68119 0.3962 0.26669 0.0
H857 H 0.61755 0.33962 0.12249 0.0
C858 C 0.25789 0.90422 0.8414 0.0
C859 C 0.23051 0.93998 0.85102 0.0
N860 N 0.22027 0.94083 0.90615 0.0
N861 N 0.26483 0.8823 0.89012 0.0
C862 C 0.24146 0.90586 0.92896 0.0
H863 H 0.27048 0.89389 0.8009 0.0
Co864 Co 0.2937 0.8263 0.89912 0.0
C865 C 0.27955 0.80876 1.01982 0.0
O866 O 0.32156 0.79962 1.02503 0.0
N867 N 0.31809 0.76902 0.91002 0.0
C868 C 0.30843 0.69643 0.91771 0.0
C869 C 0.28993 0.73666 0.92602 0.0
C870 C 0.35439 0.74673 0.89297 0.0
N871 N 0.34856 0.70281 0.89631 0.0
O872 O 0.25017 0.79737 0.85519 0.0
H873 H 0.25637 0.74172 0.93958 0.0
H874 H 0.38401 0.76149 0.87656 0.0
O875 O 0.26334 0.81915 0.97174 0.0
C876 C 0.27122 0.78579 0.81036 0.0
O877 O 0.30798 0.80598 0.79739 0.0
N878 N 0.34182 0.85398 0.93133 0.0
C879 C 0.4191 0.90045 0.9474 0.0
C880 C 0.38345 0.90648 0.9841 0.0
C881 C 0.34456 0.88281 0.97528 0.0
C882 C 0.37612 0.84911 0.895 0.0
C883 C 0.41563 0.87051 0.90355 0.0
H884 H 0.31629 0.88952 1.00144 0.0
H885 H 0.3718 0.83098 0.85647 0.0
H886 H 0.23832 0.8967 0.97277 0.0
H887 H 0.21846 0.96295 0.8198 0.0
H888 H 0.29396 0.66478 0.92748 0.0
H889 H 0.38496 0.93126 1.01663 0.0
H890 H 0.44158 0.86757 0.8725 0.0
C891 C 0.87702 0.50785 0.59142 0.0
C892 C 0.84125 0.48046 0.60104 0.0
N893 N 0.84039 0.47026 0.65618 0.0
N894 N 0.89892 0.51482 0.64014 0.0
C895 C 0.87535 0.49146 0.67899 0.0
H896 H 0.88736 0.52041 0.5509 0.0
Co897 Co 0.95492 0.54369 0.64912 0.0
C898 C 0.97248 0.52953 0.76982 0.0
O899 O 0.98162 0.57155 0.77503 0.0
N900 N 1.01219 0.56808 0.66001 0.0
C901 C 0.08479 0.55843 0.66768 0.0
C902 C 0.04456 0.53992 0.676 0.0
C903 C 0.03447 0.60438 0.64296 0.0
N904 N 0.07839 0.59856 0.64628 0.0
O905 O 0.98385 0.50016 0.6052 0.0
H906 H 0.03951 0.50636 0.68957 0.0
H907 H 0.0197 0.634 0.62656 0.0
O908 O 0.96208 0.51333 0.72174 0.0
C909 C 0.99542 0.5212 0.56036 0.0
O910 O 0.97523 0.55796 0.54739 0.0
N911 N 0.92724 0.59181 0.68134 0.0
C912 C 0.8808 0.6691 0.69742 0.0
C913 C 0.87477 0.63346 0.73414 0.0
C914 C 0.89843 0.59456 0.72531 0.0
C915 C 0.9321 0.62609 0.64499 0.0
C916 C 0.91072 0.66561 0.65355 0.0
H917 H 0.89172 0.56629 0.75149 0.0
H918 H 0.95022 0.62177 0.60646 0.0
H919 H 0.8845 0.48835 0.72281 0.0
H920 H 0.8183 0.46839 0.56981 0.0
H921 H 0.11644 0.54397 0.67744 0.0
H922 H 0.85001 0.63498 0.76669 0.0
H923 H 0.91365 0.69156 0.62249 0.0
C924 C 0.27331 0.90422 0.24842 0.0
C925 C 0.30069 0.93998 0.2388 0.0
N926 N 0.31093 0.94082 0.18367 0.0
N927 N 0.26637 0.8823 0.1997 0.0
C928 C 0.28975 0.90586 0.16086 0.0
H929 H 0.26072 0.89389 0.28892 0.0
Co930 Co 0.2375 0.8263 0.1907 0.0
C931 C 0.25165 0.80876 0.07 0.0
O932 O 0.20964 0.79962 0.06479 0.0
N933 N 0.21311 0.76902 0.1798 0.0
C934 C 0.22277 0.69642 0.17211 0.0
C935 C 0.24127 0.73666 0.1638 0.0
C936 C 0.17681 0.74673 0.19685 0.0
N937 N 0.18264 0.70281 0.19352 0.0
O938 O 0.28103 0.79736 0.23463 0.0
H939 H 0.27483 0.74172 0.15023 0.0
H940 H 0.14719 0.76149 0.21326 0.0
O941 O 0.26786 0.81915 0.11808 0.0
C942 C 0.25998 0.78579 0.27946 0.0
O943 O 0.22322 0.80598 0.29243 0.0
N944 N 0.18938 0.85398 0.15849 0.0
C945 C 0.1121 0.90045 0.14242 0.0
C946 C 0.14775 0.90648 0.10572 0.0
C947 C 0.18664 0.88281 0.11454 0.0
C948 C 0.15508 0.84911 0.19483 0.0
C949 C 0.11557 0.87051 0.18627 0.0
H950 H 0.21491 0.88952 0.08838 0.0
H951 H 0.1594 0.83098 0.23335 0.0
H952 H 0.29288 0.8967 0.11705 0.0
H953 H 0.31274 0.96295 0.27003 0.0
H954 H 0.23724 0.66478 0.16234 0.0
H955 H 0.14624 0.93126 0.07319 0.0
H956 H 0.08962 0.86757 0.21732 0.0
C957 C 0.87702 0.52333 0.99841 0.0
C958 C 0.84125 0.55072 0.98878 0.0
N959 N 0.84039 0.56092 0.93365 0.0
N960 N 0.89892 0.51636 0.94968 0.0
C961 C 0.87535 0.53972 0.91084 0.0
H962 H 0.88736 0.51077 1.03892 0.0
Co963 Co 0.95491 0.48749 0.9407 0.0
C964 C 0.97248 0.50165 0.82001 0.0
O965 O 0.98162 0.45963 0.81479 0.0
N966 N 1.01219 0.4631 0.92982 0.0
C967 C 0.08479 0.47275 0.92215 0.0
C968 C 0.04456 0.49126 0.91382 0.0
C969 C 0.03447 0.4268 0.94687 0.0
N970 N 0.07839 0.43262 0.94355 0.0
O971 O 0.98385 0.53102 0.98463 0.0
H972 H 0.03951 0.52482 0.90026 0.0
H973 H 0.0197 0.39718 0.96327 0.0
O974 O 0.96208 0.51785 0.86808 0.0
C975 C 0.99542 0.50998 1.02946 0.0
O976 O 0.97522 0.47322 1.04244 0.0
N977 N 0.92724 0.43937 0.90849 0.0
C978 C 0.8808 0.36208 0.8924 0.0
C979 C 0.87477 0.39772 0.85569 0.0
C980 C 0.89844 0.43662 0.86451 0.0
C981 C 0.9321 0.40508 0.94483 0.0
C982 C 0.91072 0.36556 0.93627 0.0
H983 H 0.89173 0.46489 0.83834 0.0
H984 H 0.95022 0.40941 0.98337 0.0
H985 H 0.8845 0.54282 0.86702 0.0
H986 H 0.8183 0.56279 1.02001 0.0
H987 H 0.11644 0.48721 0.91238 0.0
H988 H 0.85001 0.3962 0.82313 0.0
H989 H 0.91365 0.33962 0.96733 0.0
C990 C 0.25789 0.12696 0.74842 0.0
C991 C 0.23051 0.0912 0.7388 0.0
N992 N 0.22027 0.09036 0.68367 0.0
N993 N 0.26483 0.14888 0.6997 0.0
C994 C 0.24145 0.12532 0.66086 0.0
H995 H 0.27048 0.13729 0.78893 0.0
Co996 Co 0.2937 0.20488 0.6907 0.0
C997 C 0.27955 0.22242 0.57001 0.0
O998 O 0.32156 0.23156 0.56479 0.0
N999 N 0.31809 0.26216 0.6798 0.0
C1000 C 0.30843 0.33475 0.67211 0.0
C1001 C 0.28993 0.29452 0.6638 0.0
C1002 C 0.35439 0.28445 0.69685 0.0
N1003 N 0.34856 0.32837 0.69352 0.0
O1004 O 0.25017 0.23382 0.73463 0.0
H1005 H 0.25637 0.28946 0.65024 0.0
H1006 H 0.38401 0.26969 0.71326 0.0
O1007 O 0.26334 0.21203 0.61809 0.0
C1008 C 0.27122 0.24539 0.77946 0.0
O1009 O 0.30798 0.2252 0.79244 0.0
N1010 N 0.34182 0.1772 0.6585 0.0
C1011 C 0.4191 0.13073 0.64243 0.0
C1012 C 0.38345 0.1247 0.60572 0.0
C1013 C 0.34456 0.14837 0.61454 0.0
C1014 C 0.37611 0.18207 0.69483 0.0
C1015 C 0.41563 0.16067 0.68627 0.0
H1016 H 0.31629 0.14166 0.58838 0.0
H1017 H 0.3718 0.2002 0.73335 0.0
H1018 H 0.23832 0.13448 0.61705 0.0
H1019 H 0.21846 0.06823 0.77003 0.0
H1020 H 0.29396 0.3664 0.66234 0.0
H1021 H 0.38496 0.09992 0.57319 0.0
H1022 H 0.44158 0.16361 0.71732 0.0
C1023 C 0.65418 0.50785 0.49841 0.0
C1024 C 0.68995 0.48046 0.48878 0.0
N1025 N 0.69081 0.47026 0.43364 0.0
N1026 N 0.63228 0.51482 0.44968 0.0
C1027 C 0.65585 0.49146 0.41084 0.0
H1028 H 0.64384 0.52041 0.53892 0.0
Co1029 Co 0.57629 0.54369 0.4407 0.0
C1030 C 0.55872 0.52953 0.32001 0.0
O1031 O 0.54958 0.57155 0.31479 0.0
N1032 N 0.51901 0.56808 0.42982 0.0
C1033 C 0.44641 0.55843 0.42215 0.0
C1034 C 0.48664 0.53992 0.41382 0.0
C1035 C 0.49673 0.60438 0.44687 0.0
N1036 N 0.45281 0.59856 0.44354 0.0
O1037 O 0.54735 0.50016 0.48463 0.0
H1038 H 0.49169 0.50636 0.40026 0.0
H1039 H 0.5115 0.634 0.46327 0.0
O1040 O 0.56912 0.51333 0.36808 0.0
C1041 C 0.53578 0.52121 0.52946 0.0
O1042 O 0.55598 0.55797 0.54244 0.0
N1043 N 0.60396 0.59181 0.40849 0.0
C1044 C 0.6504 0.6691 0.3924 0.0
C1045 C 0.65643 0.63346 0.35568 0.0
C1046 C 0.63276 0.59456 0.36451 0.0
C1047 C 0.5991 0.6261 0.44483 0.0
C1048 C 0.62048 0.66562 0.43627 0.0
H1049 H 0.63947 0.56629 0.33834 0.0
H1050 H 0.58098 0.62177 0.48337 0.0
H1051 H 0.6467 0.48836 0.36702 0.0
H1052 H 0.7129 0.46839 0.52001 0.0
H1053 H 0.41476 0.54397 0.41238 0.0
H1054 H 0.68119 0.63498 0.32313 0.0
H1055 H 0.61755 0.69156 0.46733 0.0
loop_
_geom_bond_atom_site_label_1
_geom_bond_atom_site_label_2
_geom_bond_distance
_geom_bond_site_symmetry_2
_ccdc_geom_bond_type
C0 C1 1.351 . S
C0 N3 1.368 . S
C0 H5 0.931 . S
C1 C0 1.351 . S
C1 N2 1.373 . S
C1 H29 0.930 . S
N2 C1 1.373 . S
N2 C4 1.340 . S
N3 C0 1.368 . S
N3 C4 1.321 . S
N3 Co6 2.135 . S
C4 N2 1.340 . S
C4 N3 1.321 . S
C4 H28 0.930 . S
H5 C0 0.931 . S
Co6 N3 2.135 . S
Co6 N9 2.121 . S
Co6 O14 2.055 . S
Co6 O17 2.039 . S
Co6 N20 2.140 . S
C7 O8 1.227 . S
C7 O17 1.265 . S
O8 C7 1.227 . S
N9 Co6 2.121 . S
N9 C11 1.375 . S
N9 C12 1.313 . S
C10 C11 1.338 . S
C10 N13 1.377 . S
C10 H30 0.930 . S
C11 N9 1.375 . S
C11 C10 1.338 . S
C11 H15 0.931 . S
C12 N9 1.313 . S
C12 N13 1.344 . S
C12 H16 0.930 . S
N13 C10 1.377 . S
N13 C12 1.344 . S
O14 Co6 2.055 . S
O14 C18 1.253 . S
H15 C11 0.931 . S
H16 C12 0.930 . S
O17 Co6 2.039 . S
O17 C7 1.265 . S
C18 O14 1.253 . S
C18 O19 1.227 . S
O19 C18 1.227 . S
N20 Co6 2.140 . S
N20 C23 1.346 . S
N20 C24 1.345 . S
C21 C22 1.387 . S
C21 C25 1.391 . S
C22 C21 1.387 . S
C22 C23 1.369 . S
C22 H31 0.929 . S
C23 N20 1.346 . S
C23 C22 1.369 . S
C23 H26 0.928 . S
C24 N20 1.345 . S
C24 C25 1.371 . S
C24 H27 0.931 . S
C25 C21 1.391 . S
C25 C24 1.371 . S
C25 H32 0.930 . S
H26 C23 0.928 . S
H27 C24 0.931 . S
H28 C4 0.930 . S
H29 C1 0.930 . S
H30 C10 0.930 . S
H31 C22 0.929 . S
H32 C25 0.930 . S
C33 C34 1.351 . S
C33 N36 1.368 . S
C33 H38 0.931 . S
C34 C33 1.351 . S
C34 N35 1.373 . S
C34 H62 0.930 . S
N35 C34 1.373 . S
N35 C37 1.340 . S
N36 C33 1.368 . S
N36 C37 1.321 . S
N36 Co39 2.135 1_565 S
C37 N35 1.340 . S
C37 N36 1.321 . S
C37 H61 0.930 . S
H38 C33 0.931 . S
Co39 N36 2.135 1_545 S
Co39 N42 2.121 1_655 S
Co39 O47 2.055 1_545 S
Co39 O50 2.039 1_545 S
Co39 N53 2.140 . S
C40 O41 1.227 1_565 S
C40 O50 1.265 . S
O41 C40 1.227 1_545 S
N42 Co39 2.121 1_455 S
N42 C44 1.375 . S
N42 C45 1.313 . S
C43 C44 1.338 . S
C43 N46 1.377 . S
C43 H63 0.930 . S
C44 N42 1.375 . S
C44 C43 1.338 . S
C44 H48 0.931 1_455 S
C45 N42 1.313 . S
C45 N46 1.344 . S
C45 H49 0.930 . S
N46 C43 1.377 . S
N46 C45 1.344 . S
O47 Co39 2.055 1_565 S
O47 C51 1.253 1_565 S
H48 C44 0.931 1_655 S
H49 C45 0.930 . S
O50 Co39 2.039 1_565 S
O50 C40 1.265 . S
C51 O47 1.253 1_545 S
C51 O52 1.227 . S
O52 C51 1.227 . S
N53 Co39 2.140 . S
N53 C56 1.346 . S
N53 C57 1.345 . S
C54 C55 1.387 . S
C54 C58 1.391 . S
C55 C54 1.387 . S
C55 C56 1.369 . S
C55 H64 0.929 . S
C56 N53 1.346 . S
C56 C55 1.369 . S
C56 H59 0.928 . S
C57 N53 1.345 . S
C57 C58 1.371 . S
C57 H60 0.931 . S
C58 C54 1.391 . S
C58 C57 1.371 . S
C58 H65 0.930 . S
H59 C56 0.928 . S
H60 C57 0.931 . S
H61 C37 0.930 . S
H62 C34 0.930 . S
H63 C43 0.930 . S
H64 C55 0.929 . S
H65 C58 0.930 . S
C66 C67 1.351 . S
C66 N69 1.368 . S
C66 H71 0.931 . S
C67 C66 1.351 . S
C67 N68 1.373 . S
C67 H95 0.930 . S
N68 C67 1.373 . S
N68 C70 1.340 . S
N69 C66 1.368 . S
N69 C70 1.321 . S
N69 Co72 2.135 . S
C70 N68 1.340 . S
C70 N69 1.321 . S
C70 H94 0.930 . S
H71 C66 0.931 . S
Co72 N69 2.135 . S
Co72 N75 2.121 . S
Co72 O80 2.055 . S
Co72 O83 2.039 . S
Co72 N86 2.140 . S
C73 O74 1.227 . S
C73 O83 1.265 . S
O74 C73 1.227 . S
N75 Co72 2.121 . S
N75 C77 1.375 . S
N75 C78 1.313 . S
C76 C77 1.338 . S
C76 N79 1.377 . S
C76 H96 0.930 . S
C77 N75 1.375 . S
C77 C76 1.338 . S
C77 H81 0.931 . S
C78 N75 1.313 . S
C78 N79 1.344 . S
C78 H82 0.930 . S
N79 C76 1.377 . S
N79 C78 1.344 . S
O80 Co72 2.055 . S
O80 C84 1.253 . S
H81 C77 0.931 . S
H82 C78 0.930 . S
O83 Co72 2.039 . S
O83 C73 1.265 . S
C84 O80 1.253 . S
C84 O85 1.227 . S
O85 C84 1.227 . S
N86 Co72 2.140 . S
N86 C89 1.346 . S
N86 C90 1.345 . S
C87 C88 1.387 . S
C87 C91 1.391 . S
C88 C87 1.387 . S
C88 C89 1.369 . S
C88 H97 0.929 . S
C89 N86 1.346 . S
C89 C88 1.369 . S
C89 H92 0.928 . S
C90 N86 1.345 . S
C90 C91 1.371 . S
C90 H93 0.931 . S
C91 C87 1.391 . S
C91 C90 1.371 . S
C91 H98 0.930 . S
H92 C89 0.928 . S
H93 C90 0.931 . S
H94 C70 0.930 . S
H95 C67 0.930 . S
H96 C76 0.930 . S
H97 C88 0.929 . S
H98 C91 0.930 . S
C99 C100 1.351 . S
C99 N102 1.368 . S
C99 H104 0.931 . S
C100 C99 1.351 . S
C100 N101 1.373 . S
C100 H128 0.930 . S
N101 C100 1.373 . S
N101 C103 1.340 . S
N102 C99 1.368 . S
N102 C103 1.321 . S
N102 Co105 2.135 1_545 S
C103 N101 1.340 . S
C103 N102 1.321 . S
C103 H127 0.930 . S
H104 C99 0.931 . S
Co105 N102 2.135 1_565 S
Co105 N108 2.121 . S
Co105 O113 2.055 1_565 S
Co105 O116 2.039 1_565 S
Co105 N119 2.140 . S
C106 O107 1.227 1_545 S
C106 O116 1.265 . S
O107 C106 1.227 1_565 S
N108 Co105 2.121 . S
N108 C110 1.375 . S
N108 C111 1.313 . S
C109 C110 1.338 . S
C109 N112 1.377 . S
C109 H129 0.930 . S
C110 N108 1.375 . S
C110 C109 1.338 . S
C110 H114 0.931 . S
C111 N108 1.313 . S
C111 N112 1.344 . S
C111 H115 0.930 . S
N112 C109 1.377 . S
N112 C111 1.344 . S
O113 Co105 2.055 1_545 S
O113 C117 1.253 1_545 S
H114 C110 0.931 . S
H115 C111 0.930 . S
O116 Co105 2.039 1_545 S
O116 C106 1.265 . S
C117 O113 1.253 1_565 S
C117 O118 1.227 . S
O118 C117 1.227 . S
N119 Co105 2.140 . S
N119 C122 1.346 . S
N119 C123 1.345 . S
C120 C121 1.387 . S
C120 C124 1.391 . S
C121 C120 1.387 . S
C121 C122 1.369 . S
C121 H130 0.929 . S
C122 N119 1.346 . S
C122 C121 1.369 . S
C122 H125 0.928 . S
C123 N119 1.345 . S
C123 C124 1.371 . S
C123 H126 0.931 . S
C124 C120 1.391 . S
C124 C123 1.371 . S
C124 H131 0.930 . S
H125 C122 0.928 . S
H126 C123 0.931 . S
H127 C103 0.930 . S
H128 C100 0.930 . S
H129 C109 0.930 . S
H130 C121 0.929 . S
H131 C124 0.930 . S
C132 C133 1.351 . S
C132 N135 1.368 . S
C132 H137 0.931 . S
C133 C132 1.351 . S
C133 N134 1.373 . S
C133 H161 0.930 . S
N134 C133 1.373 . S
N134 C136 1.340 . S
N135 C132 1.368 . S
N135 C136 1.321 . S
N135 Co138 2.135 . S
C136 N134 1.340 . S
C136 N135 1.321 . S
C136 H160 0.930 . S
H137 C132 0.931 . S
Co138 N135 2.135 . S
Co138 N141 2.121 . S
Co138 O146 2.055 . S
Co138 O149 2.039 . S
Co138 N152 2.140 . S
C139 O140 1.227 . S
C139 O149 1.265 . S
O140 C139 1.227 . S
N141 Co138 2.121 . S
N141 C143 1.375 . S
N141 C144 1.313 . S
C142 C143 1.338 . S
C142 N145 1.377 . S
C142 H162 0.930 . S
C143 N141 1.375 . S
C143 C142 1.338 . S
C143 H147 0.931 . S
C144 N141 1.313 . S
C144 N145 1.344 . S
C144 H148 0.930 . S
N145 C142 1.377 . S
N145 C144 1.344 . S
O146 Co138 2.055 . S
O146 C150 1.253 . S
H147 C143 0.931 . S
H148 C144 0.930 . S
O149 Co138 2.039 . S
O149 C139 1.265 . S
C150 O146 1.253 . S
C150 O151 1.227 . S
O151 C150 1.227 . S
N152 Co138 2.140 . S
N152 C155 1.346 . S
N152 C156 1.345 . S
C153 C154 1.387 . S
C153 C157 1.391 . S
C154 C153 1.387 . S
C154 C155 1.369 . S
C154 H163 0.929 . S
C155 N152 1.346 . S
C155 C154 1.369 . S
C155 H158 0.928 . S
C156 N152 1.345 . S
C156 C157 1.371 . S
C156 H159 0.931 . S
C157 C153 1.391 . S
C157 C156 1.371 . S
C157 H164 0.930 . S
H158 C155 0.928 . S
H159 C156 0.931 . S
H160 C136 0.930 . S
H161 C133 0.930 . S
H162 C142 0.930 . S
H163 C154 0.929 . S
H164 C157 0.930 . S
C165 C166 1.351 . S
C165 N168 1.368 . S
C165 H170 0.931 . S
C166 C165 1.351 . S
C166 N167 1.373 . S
C166 H194 0.930 . S
N167 C166 1.373 . S
N167 C169 1.340 . S
N168 C165 1.368 . S
N168 C169 1.321 . S
N168 Co171 2.135 1_565 S
C169 N167 1.340 . S
C169 N168 1.321 . S
C169 H193 0.930 . S
H170 C165 0.931 . S
Co171 N168 2.135 1_545 S
Co171 N174 2.121 . S
Co171 O179 2.055 1_545 S
Co171 O182 2.039 1_545 S
Co171 N185 2.140 . S
C172 O173 1.227 1_565 S
C172 O182 1.265 . S
O173 C172 1.227 1_545 S
N174 Co171 2.121 . S
N174 C176 1.375 . S
N174 C177 1.313 . S
C175 C176 1.338 . S
C175 N178 1.377 . S
C175 H195 0.930 . S
C176 N174 1.375 . S
C176 C175 1.338 . S
C176 H180 0.931 . S
C177 N174 1.313 . S
C177 N178 1.344 . S
C177 H181 0.930 . S
N178 C175 1.377 . S
N178 C177 1.344 . S
O179 Co171 2.055 1_565 S
O179 C183 1.253 1_565 S
H180 C176 0.931 . S
H181 C177 0.930 . S
O182 Co171 2.039 1_565 S
O182 C172 1.265 . S
C183 O179 1.253 1_545 S
C183 O184 1.227 . S
O184 C183 1.227 . S
N185 Co171 2.140 . S
N185 C188 1.346 . S
N185 C189 1.345 . S
C186 C187 1.387 . S
C186 C190 1.391 . S
C187 C186 1.387 . S
C187 C188 1.369 . S
C187 H196 0.929 . S
C188 N185 1.346 . S
C188 C187 1.369 . S
C188 H191 0.928 . S
C189 N185 1.345 . S
C189 C190 1.371 . S
C189 H192 0.931 . S
C190 C186 1.391 . S
C190 C189 1.371 . S
C190 H197 0.930 . S
H191 C188 0.928 . S
H192 C189 0.931 . S
H193 C169 0.930 . S
H194 C166 0.930 . S
H195 C175 0.930 . S
H196 C187 0.929 . S
H197 C190 0.930 . S
C198 C199 1.351 . S
C198 N201 1.368 . S
C198 H203 0.931 . S
C199 C198 1.351 . S
C199 N200 1.373 . S
C199 H227 0.930 . S
N200 C199 1.373 . S
N200 C202 1.340 . S
N201 C198 1.368 . S
N201 C202 1.321 . S
N201 Co204 2.135 . S
C202 N200 1.340 . S
C202 N201 1.321 . S
C202 H226 0.930 . S
H203 C198 0.931 . S
Co204 N201 2.135 . S
Co204 N207 2.121 . S
Co204 O212 2.055 . S
Co204 O215 2.039 . S
Co204 N218 2.140 . S
C205 O206 1.227 . S
C205 O215 1.265 . S
O206 C205 1.227 . S
N207 Co204 2.121 . S
N207 C209 1.375 . S
N207 C210 1.313 . S
C208 C209 1.338 . S
C208 N211 1.377 . S
C208 H228 0.930 . S
C209 N207 1.375 . S
C209 C208 1.338 . S
C209 H213 0.931 . S
C210 N207 1.313 . S
C210 N211 1.344 . S
C210 H214 0.930 . S
N211 C208 1.377 . S
N211 C210 1.344 . S
O212 Co204 2.055 . S
O212 C216 1.253 . S
H213 C209 0.931 . S
H214 C210 0.930 . S
O215 Co204 2.039 . S
O215 C205 1.265 . S
C216 O212 1.253 . S
C216 O217 1.227 . S
O217 C216 1.227 . S
N218 Co204 2.140 . S
N218 C221 1.346 . S
N218 C222 1.345 . S
C219 C220 1.387 . S
C219 C223 1.391 . S
C220 C219 1.387 . S
C220 C221 1.369 . S
C220 H229 0.929 . S
C221 N218 1.346 . S
C221 C220 1.369 . S
C221 H224 0.928 . S
C222 N218 1.345 . S
C222 C223 1.371 . S
C222 H225 0.931 . S
C223 C219 1.391 . S
C223 C222 1.371 . S
C223 H230 0.930 . S
H224 C221 0.928 . S
H225 C222 0.931 . S
H226 C202 0.930 . S
H227 C199 0.930 . S
H228 C208 0.930 . S
H229 C220 0.929 . S
H230 C223 0.930 . S
C231 C232 1.351 . S
C231 N234 1.368 . S
C231 H236 0.931 . S
C232 C231 1.351 . S
C232 N233 1.373 . S
C232 H260 0.930 . S
N233 C232 1.373 . S
N233 C235 1.340 . S
N234 C231 1.368 . S
N234 C235 1.321 . S
N234 Co237 2.135 1_545 S
C235 N233 1.340 . S
C235 N234 1.321 . S
C235 H259 0.930 . S
H236 C231 0.931 . S
Co237 N234 2.135 1_565 S
Co237 N240 2.121 1_655 S
Co237 O245 2.055 1_565 S
Co237 O248 2.039 1_565 S
Co237 N251 2.140 . S
C238 O239 1.227 1_545 S
C238 O248 1.265 . S
O239 C238 1.227 1_565 S
N240 Co237 2.121 1_455 S
N240 C242 1.375 . S
N240 C243 1.313 . S
C241 C242 1.338 . S
C241 N244 1.377 . S
C241 H261 0.930 . S
C242 N240 1.375 . S
C242 C241 1.338 . S
C242 H246 0.931 1_455 S
C243 N240 1.313 . S
C243 N244 1.344 . S
C243 H247 0.930 . S
N244 C241 1.377 . S
N244 C243 1.344 . S
O245 Co237 2.055 1_545 S
O245 C249 1.253 1_545 S
H246 C242 0.931 1_655 S
H247 C243 0.930 . S
O248 Co237 2.039 1_545 S
O248 C238 1.265 . S
C249 O245 1.253 1_565 S
C249 O250 1.227 . S
O250 C249 1.227 . S
N251 Co237 2.140 . S
N251 C254 1.346 . S
N251 C255 1.345 . S
C252 C253 1.387 . S
C252 C256 1.391 . S
C253 C252 1.387 . S
C253 C254 1.369 . S
C253 H262 0.929 . S
C254 N251 1.346 . S
C254 C253 1.369 . S
C254 H257 0.928 . S
C255 N251 1.345 . S
C255 C256 1.371 . S
C255 H258 0.931 . S
C256 C252 1.391 . S
C256 C255 1.371 . S
C256 H263 0.930 . S
H257 C254 0.928 . S
H258 C255 0.931 . S
H259 C235 0.930 . S
H260 C232 0.930 . S
H261 C241 0.930 . S
H262 C253 0.929 . S
H263 C256 0.930 . S
C264 C265 1.351 . S
C264 N267 1.368 . S
C264 H269 0.931 . S
C265 C264 1.351 . S
C265 N266 1.373 . S
C265 H293 0.930 . S
N266 C265 1.373 . S
N266 C268 1.340 . S
N267 C264 1.368 . S
N267 C268 1.321 . S
N267 Co270 2.135 . S
C268 N266 1.340 . S
C268 N267 1.321 . S
C268 H292 0.930 . S
H269 C264 0.931 . S
Co270 N267 2.135 . S
Co270 N273 2.121 . S
Co270 O278 2.055 . S
Co270 O281 2.039 . S
Co270 N284 2.140 . S
C271 O272 1.227 . S
C271 O281 1.265 . S
O272 C271 1.227 . S
N273 Co270 2.121 . S
N273 C275 1.375 . S
N273 C276 1.313 . S
C274 C275 1.338 . S
C274 N277 1.377 . S
C274 H294 0.930 . S
C275 N273 1.375 . S
C275 C274 1.338 . S
C275 H279 0.931 . S
C276 N273 1.313 . S
C276 N277 1.344 . S
C276 H280 0.930 . S
N277 C274 1.377 . S
N277 C276 1.344 . S
O278 Co270 2.055 . S
O278 C282 1.253 . S
H279 C275 0.931 . S
H280 C276 0.930 . S
O281 Co270 2.039 . S
O281 C271 1.265 . S
C282 O278 1.253 . S
C282 O283 1.227 . S
O283 C282 1.227 . S
N284 Co270 2.140 . S
N284 C287 1.346 . S
N284 C288 1.345 . S
C285 C286 1.387 . S
C285 C289 1.391 . S
C286 C285 1.387 . S
C286 C287 1.369 . S
C286 H295 0.929 . S
C287 N284 1.346 . S
C287 C286 1.369 . S
C287 H290 0.928 . S
C288 N284 1.345 . S
C288 C289 1.371 . S
C288 H291 0.931 . S
C289 C285 1.391 . S
C289 C288 1.371 . S
C289 H296 0.930 . S
H290 C287 0.928 . S
H291 C288 0.931 . S
H292 C268 0.930 . S
H293 C265 0.930 . S
H294 C274 0.930 . S
H295 C286 0.929 . S
H296 C289 0.930 . S
C297 C298 1.351 . S
C297 N300 1.368 . S
C297 H302 0.931 . S
C298 C297 1.351 . S
C298 N299 1.373 . S
C298 H326 0.930 . S
N299 C298 1.373 . S
N299 C301 1.340 . S
N300 C297 1.368 . S
N300 C301 1.321 . S
N300 Co303 2.135 1_545 S
C301 N299 1.340 . S
C301 N300 1.321 . S
C301 H325 0.930 . S
H302 C297 0.931 . S
Co303 N300 2.135 1_565 S
Co303 N306 2.121 1_455 S
Co303 O311 2.055 1_565 S
Co303 O314 2.039 1_565 S
Co303 N317 2.140 . S
C304 O305 1.227 1_545 S
C304 O314 1.265 . S
O305 C304 1.227 1_565 S
N306 Co303 2.121 1_655 S
N306 C308 1.375 . S
N306 C309 1.313 . S
C307 C308 1.338 . S
C307 N310 1.377 . S
C307 H327 0.930 . S
C308 N306 1.375 . S
C308 C307 1.338 . S
C308 H312 0.931 1_655 S
C309 N306 1.313 . S
C309 N310 1.344 . S
C309 H313 0.930 . S
N310 C307 1.377 . S
N310 C309 1.344 . S
O311 Co303 2.055 1_545 S
O311 C315 1.253 1_545 S
H312 C308 0.931 1_455 S
H313 C309 0.930 . S
O314 Co303 2.039 1_545 S
O314 C304 1.265 . S
C315 O311 1.253 1_565 S
C315 O316 1.227 . S
O316 C315 1.227 . S
N317 Co303 2.140 . S
N317 C320 1.346 . S
N317 C321 1.345 . S
C318 C319 1.387 . S
C318 C322 1.391 . S
C319 C318 1.387 . S
C319 C320 1.369 . S
C319 H328 0.929 . S
C320 N317 1.346 . S
C320 C319 1.369 . S
C320 H323 0.928 . S
C321 N317 1.345 . S
C321 C322 1.371 . S
C321 H324 0.931 . S
C322 C318 1.391 . S
C322 C321 1.371 . S
C322 H329 0.930 . S
H323 C320 0.928 . S
H324 C321 0.931 . S
H325 C301 0.930 . S
H326 C298 0.930 . S
H327 C307 0.930 . S
H328 C319 0.929 . S
H329 C322 0.930 . S
C330 C331 1.351 . S
C330 N333 1.368 . S
C330 H335 0.931 . S
C331 C330 1.351 . S
C331 N332 1.373 . S
C331 H359 0.930 . S
N332 C331 1.373 . S
N332 C334 1.340 . S
N333 C330 1.368 . S
N333 C334 1.321 . S
N333 Co336 2.135 . S
C334 N332 1.340 . S
C334 N333 1.321 . S
C334 H358 0.930 . S
H335 C330 0.931 . S
Co336 N333 2.135 . S
Co336 N339 2.121 . S
Co336 O344 2.055 . S
Co336 O347 2.039 . S
Co336 N350 2.140 . S
C337 O338 1.227 . S
C337 O347 1.265 . S
O338 C337 1.227 . S
N339 Co336 2.121 . S
N339 C341 1.375 . S
N339 C342 1.313 . S
C340 C341 1.338 . S
C340 N343 1.377 . S
C340 H360 0.930 . S
C341 N339 1.375 . S
C341 C340 1.338 . S
C341 H345 0.931 . S
C342 N339 1.313 . S
C342 N343 1.344 . S
C342 H346 0.930 . S
N343 C340 1.377 . S
N343 C342 1.344 . S
O344 Co336 2.055 . S
O344 C348 1.253 . S
H345 C341 0.931 . S
H346 C342 0.930 . S
O347 Co336 2.039 . S
O347 C337 1.265 . S
C348 O344 1.253 . S
C348 O349 1.227 . S
O349 C348 1.227 . S
N350 Co336 2.140 . S
N350 C353 1.346 . S
N350 C354 1.345 . S
C351 C352 1.387 . S
C351 C355 1.391 . S
C352 C351 1.387 . S
C352 C353 1.369 . S
C352 H361 0.929 . S
C353 N350 1.346 . S
C353 C352 1.369 . S
C353 H356 0.928 . S
C354 N350 1.345 . S
C354 C355 1.371 . S
C354 H357 0.931 . S
C355 C351 1.391 . S
C355 C354 1.371 . S
C355 H362 0.930 . S
H356 C353 0.928 . S
H357 C354 0.931 . S
H358 C334 0.930 . S
H359 C331 0.930 . S
H360 C340 0.930 . S
H361 C352 0.929 . S
H362 C355 0.930 . S
C363 C364 1.351 . S
C363 N366 1.368 . S
C363 H368 0.931 . S
C364 C363 1.351 . S
C364 N365 1.373 . S
C364 H392 0.930 . S
N365 C364 1.373 . S
N365 C367 1.340 . S
N366 C363 1.368 . S
N366 C367 1.321 . S
N366 Co369 2.135 1_565 S
C367 N365 1.340 . S
C367 N366 1.321 . S
C367 H391 0.930 . S
H368 C363 0.931 . S
Co369 N366 2.135 1_545 S
Co369 N372 2.121 . S
Co369 O377 2.055 1_545 S
Co369 O380 2.039 1_545 S
Co369 N383 2.140 . S
C370 O371 1.227 1_565 S
C370 O380 1.265 . S
O371 C370 1.227 1_545 S
N372 Co369 2.121 . S
N372 C374 1.375 . S
N372 C375 1.313 . S
C373 C374 1.338 . S
C373 N376 1.377 . S
C373 H393 0.930 . S
C374 N372 1.375 . S
C374 C373 1.338 . S
C374 H378 0.931 . S
C375 N372 1.313 . S
C375 N376 1.344 . S
C375 H379 0.930 . S
N376 C373 1.377 . S
N376 C375 1.344 . S
O377 Co369 2.055 1_565 S
O377 C381 1.253 1_565 S
H378 C374 0.931 . S
H379 C375 0.930 . S
O380 Co369 2.039 1_565 S
O380 C370 1.265 . S
C381 O377 1.253 1_545 S
C381 O382 1.227 . S
O382 C381 1.227 . S
N383 Co369 2.140 . S
N383 C386 1.346 . S
N383 C387 1.345 . S
C384 C385 1.387 . S
C384 C388 1.391 . S
C385 C384 1.387 . S
C385 C386 1.369 . S
C385 H394 0.929 . S
C386 N383 1.346 . S
C386 C385 1.369 . S
C386 H389 0.928 . S
C387 N383 1.345 . S
C387 C388 1.371 . S
C387 H390 0.931 . S
C388 C384 1.391 . S
C388 C387 1.371 . S
C388 H395 0.930 . S
H389 C386 0.928 . S
H390 C387 0.931 . S
H391 C367 0.930 . S
H392 C364 0.930 . S
H393 C373 0.930 . S
H394 C385 0.929 . S
H395 C388 0.930 . S
C396 C397 1.351 . S
C396 N399 1.368 . S
C396 H401 0.931 . S
C397 C396 1.351 . S
C397 N398 1.373 . S
C397 H425 0.930 . S
N398 C397 1.373 . S
N398 C400 1.340 . S
N399 C396 1.368 . S
N399 C400 1.321 . S
N399 Co402 2.135 . S
C400 N398 1.340 . S
C400 N399 1.321 . S
C400 H424 0.930 . S
H401 C396 0.931 . S
Co402 N399 2.135 . S
Co402 N405 2.121 . S
Co402 O410 2.055 . S
Co402 O413 2.039 . S
Co402 N416 2.140 . S
C403 O404 1.227 . S
C403 O413 1.265 . S
O404 C403 1.227 . S
N405 Co402 2.121 . S
N405 C407 1.375 . S
N405 C408 1.313 . S
C406 C407 1.338 . S
C406 N409 1.377 . S
C406 H426 0.930 . S
C407 N405 1.375 . S
C407 C406 1.338 . S
C407 H411 0.931 . S
C408 N405 1.313 . S
C408 N409 1.344 . S
C408 H412 0.930 . S
N409 C406 1.377 . S
N409 C408 1.344 . S
O410 Co402 2.055 . S
O410 C414 1.253 . S
H411 C407 0.931 . S
H412 C408 0.930 . S
O413 Co402 2.039 . S
O413 C403 1.265 . S
C414 O410 1.253 . S
C414 O415 1.227 . S
O415 C414 1.227 . S
N416 Co402 2.140 . S
N416 C419 1.346 . S
N416 C420 1.345 . S
C417 C418 1.387 . S
C417 C421 1.391 . S
C418 C417 1.387 . S
C418 C419 1.369 . S
C418 H427 0.929 . S
C419 N416 1.346 . S
C419 C418 1.369 . S
C419 H422 0.928 . S
C420 N416 1.345 . S
C420 C421 1.371 . S
C420 H423 0.931 . S
C421 C417 1.391 . S
C421 C420 1.371 . S
C421 H428 0.930 . S
H422 C419 0.928 . S
H423 C420 0.931 . S
H424 C400 0.930 . S
H425 C397 0.930 . S
H426 C406 0.930 . S
H427 C418 0.929 . S
H428 C421 0.930 . S
C429 C430 1.351 . S
C429 N432 1.368 . S
C429 H434 0.931 . S
C430 C429 1.351 . S
C430 N431 1.373 . S
C430 H458 0.930 . S
N431 C430 1.373 . S
N431 C433 1.340 . S
N432 C429 1.368 . S
N432 C433 1.321 . S
N432 Co435 2.135 1_545 S
C433 N431 1.340 . S
C433 N432 1.321 . S
C433 H457 0.930 . S
H434 C429 0.931 . S
Co435 N432 2.135 1_565 S
Co435 N438 2.121 . S
Co435 O443 2.055 1_565 S
Co435 O446 2.039 1_565 S
Co435 N449 2.140 . S
C436 O437 1.227 1_545 S
C436 O446 1.265 . S
O437 C436 1.227 1_565 S
N438 Co435 2.121 . S
N438 C440 1.375 . S
N438 C441 1.313 . S
C439 C440 1.338 . S
C439 N442 1.377 . S
C439 H459 0.930 . S
C440 N438 1.375 . S
C440 C439 1.338 . S
C440 H444 0.931 . S
C441 N438 1.313 . S
C441 N442 1.344 . S
C441 H445 0.930 . S
N442 C439 1.377 . S
N442 C441 1.344 . S
O443 Co435 2.055 1_545 S
O443 C447 1.253 1_545 S
H444 C440 0.931 . S
H445 C441 0.930 . S
O446 Co435 2.039 1_545 S
O446 C436 1.265 . S
C447 O443 1.253 1_565 S
C447 O448 1.227 . S
O448 C447 1.227 . S
N449 Co435 2.140 . S
N449 C452 1.346 . S
N449 C453 1.345 . S
C450 C451 1.387 . S
C450 C454 1.391 . S
C451 C450 1.387 . S
C451 C452 1.369 . S
C451 H460 0.929 . S
C452 N449 1.346 . S
C452 C451 1.369 . S
C452 H455 0.928 . S
C453 N449 1.345 . S
C453 C454 1.371 . S
C453 H456 0.931 . S
C454 C450 1.391 . S
C454 C453 1.371 . S
C454 H461 0.930 . S
H455 C452 0.928 . S
H456 C453 0.931 . S
H457 C433 0.930 . S
H458 C430 0.930 . S
H459 C439 0.930 . S
H460 C451 0.929 . S
H461 C454 0.930 . S
C462 C463 1.351 . S
C462 N465 1.368 . S
C462 H467 0.931 . S
C463 C462 1.351 . S
C463 N464 1.373 . S
C463 H491 0.930 . S
N464 C463 1.373 . S
N464 C466 1.340 . S
N465 C462 1.368 . S
N465 C466 1.321 . S
N465 Co468 2.135 . S
C466 N464 1.340 . S
C466 N465 1.321 . S
C466 H490 0.930 . S
H467 C462 0.931 . S
Co468 N465 2.135 . S
Co468 N471 2.121 . S
Co468 O476 2.055 . S
Co468 O479 2.039 . S
Co468 N482 2.140 . S
C469 O470 1.227 . S
C469 O479 1.265 . S
O470 C469 1.227 . S
N471 Co468 2.121 . S
N471 C473 1.375 . S
N471 C474 1.313 . S
C472 C473 1.338 . S
C472 N475 1.377 . S
C472 H492 0.930 . S
C473 N471 1.375 . S
C473 C472 1.338 . S
C473 H477 0.931 . S
C474 N471 1.313 . S
C474 N475 1.344 . S
C474 H478 0.930 . S
N475 C472 1.377 . S
N475 C474 1.344 . S
O476 Co468 2.055 . S
O476 C480 1.253 . S
H477 C473 0.931 . S
H478 C474 0.930 . S
O479 Co468 2.039 . S
O479 C469 1.265 . S
C480 O476 1.253 . S
C480 O481 1.227 . S
O481 C480 1.227 . S
N482 Co468 2.140 . S
N482 C485 1.346 . S
N482 C486 1.345 . S
C483 C484 1.387 . S
C483 C487 1.391 . S
C484 C483 1.387 . S
C484 C485 1.369 . S
C484 H493 0.929 . S
C485 N482 1.346 . S
C485 C484 1.369 . S
C485 H488 0.928 . S
C486 N482 1.345 . S
C486 C487 1.371 . S
C486 H489 0.931 . S
C487 C483 1.391 . S
C487 C486 1.371 . S
C487 H494 0.930 . S
H488 C485 0.928 . S
H489 C486 0.931 . S
H490 C466 0.930 . S
H491 C463 0.930 . S
H492 C472 0.930 . S
H493 C484 0.929 . S
H494 C487 0.930 . S
C495 C496 1.351 . S
C495 N498 1.368 . S
C495 H500 0.931 . S
C496 C495 1.351 . S
C496 N497 1.373 . S
C496 H524 0.930 . S
N497 C496 1.373 . S
N497 C499 1.340 . S
N498 C495 1.368 . S
N498 C499 1.321 . S
N498 Co501 2.135 1_565 S
C499 N497 1.340 . S
C499 N498 1.321 . S
C499 H523 0.930 . S
H500 C495 0.931 . S
Co501 N498 2.135 1_545 S
Co501 N504 2.121 1_455 S
Co501 O509 2.055 1_545 S
Co501 O512 2.039 1_545 S
Co501 N515 2.140 . S
C502 O503 1.227 1_565 S
C502 O512 1.265 . S
O503 C502 1.227 1_545 S
N504 Co501 2.121 1_655 S
N504 C506 1.375 . S
N504 C507 1.313 . S
C505 C506 1.338 . S
C505 N508 1.377 . S
C505 H525 0.930 . S
C506 N504 1.375 . S
C506 C505 1.338 . S
C506 H510 0.931 1_655 S
C507 N504 1.313 . S
C507 N508 1.344 . S
C507 H511 0.930 . S
N508 C505 1.377 . S
N508 C507 1.344 . S
O509 Co501 2.055 1_565 S
O509 C513 1.253 1_565 S
H510 C506 0.931 1_455 S
H511 C507 0.930 . S
O512 Co501 2.039 1_565 S
O512 C502 1.265 . S
C513 O509 1.253 1_545 S
C513 O514 1.227 . S
O514 C513 1.227 . S
N515 Co501 2.140 . S
N515 C518 1.346 . S
N515 C519 1.345 . S
C516 C517 1.387 . S
C516 C520 1.391 . S
C517 C516 1.387 . S
C517 C518 1.369 . S
C517 H526 0.929 . S
C518 N515 1.346 . S
C518 C517 1.369 . S
C518 H521 0.928 . S
C519 N515 1.345 . S
C519 C520 1.371 . S
C519 H522 0.931 . S
C520 C516 1.391 . S
C520 C519 1.371 . S
C520 H527 0.930 . S
H521 C518 0.928 . S
H522 C519 0.931 . S
H523 C499 0.930 . S
H524 C496 0.930 . S
H525 C505 0.930 . S
H526 C517 0.929 . S
H527 C520 0.930 . S
C528 C529 1.351 . S
C528 N531 1.368 . S
C528 H533 0.931 . S
C529 C528 1.351 . S
C529 N530 1.373 . S
C529 H557 0.930 . S
N530 C529 1.373 . S
N530 C532 1.340 . S
N531 C528 1.368 . S
N531 C532 1.321 . S
N531 Co534 2.135 . S
C532 N530 1.340 . S
C532 N531 1.321 . S
C532 H556 0.930 . S
H533 C528 0.931 . S
Co534 N531 2.135 . S
Co534 N537 2.121 . S
Co534 O542 2.055 . S
Co534 O545 2.039 . S
Co534 N548 2.140 . S
C535 O536 1.227 . S
C535 O545 1.265 . S
O536 C535 1.227 . S
N537 Co534 2.121 . S
N537 C539 1.375 . S
N537 C540 1.313 . S
C538 C539 1.338 . S
C538 N541 1.377 . S
C538 H558 0.930 . S
C539 N537 1.375 . S
C539 C538 1.338 . S
C539 H543 0.931 . S
C540 N537 1.313 . S
C540 N541 1.344 . S
C540 H544 0.930 . S
N541 C538 1.377 . S
N541 C540 1.344 . S
O542 Co534 2.055 . S
O542 C546 1.253 . S
H543 C539 0.931 . S
H544 C540 0.930 . S
O545 Co534 2.039 . S
O545 C535 1.265 . S
C546 O542 1.253 . S
C546 O547 1.227 . S
O547 C546 1.227 . S
N548 Co534 2.140 . S
N548 C551 1.346 . S
N548 C552 1.345 . S
C549 C550 1.387 . S
C549 C553 1.391 . S
C550 C549 1.387 . S
C550 C551 1.369 . S
C550 H559 0.929 . S
C551 N548 1.346 . S
C551 C550 1.369 . S
C551 H554 0.928 . S
C552 N548 1.345 . S
C552 C553 1.371 . S
C552 H555 0.931 . S
C553 C549 1.391 . S
C553 C552 1.371 . S
C553 H560 0.930 . S
H554 C551 0.928 . S
H555 C552 0.931 . S
H556 C532 0.930 . S
H557 C529 0.930 . S
H558 C538 0.930 . S
H559 C550 0.929 . S
H560 C553 0.930 . S
C561 C562 1.351 . S
C561 N564 1.368 . S
C561 H566 0.931 . S
C562 C561 1.351 . S
C562 N563 1.373 . S
C562 H590 0.930 . S
N563 C562 1.373 . S
N563 C565 1.340 . S
N564 C561 1.368 . S
N564 C565 1.321 . S
N564 Co567 2.135 . S
C565 N563 1.340 . S
C565 N564 1.321 . S
C565 H589 0.930 . S
H566 C561 0.931 . S
Co567 N564 2.135 . S
Co567 N570 2.121 . S
Co567 O575 2.055 . S
Co567 O578 2.039 . S
Co567 N581 2.140 . S
C568 O569 1.227 . S
C568 O578 1.265 . S
O569 C568 1.227 . S
N570 Co567 2.121 . S
N570 C572 1.375 . S
N570 C573 1.313 . S
C571 C572 1.338 . S
C571 N574 1.377 . S
C571 H591 0.930 . S
C572 N570 1.375 . S
C572 C571 1.338 . S
C572 H576 0.931 . S
C573 N570 1.313 . S
C573 N574 1.344 . S
C573 H577 0.930 . S
N574 C571 1.377 . S
N574 C573 1.344 . S
O575 Co567 2.055 . S
O575 C579 1.253 . S
H576 C572 0.931 . S
H577 C573 0.930 . S
O578 Co567 2.039 . S
O578 C568 1.265 . S
C579 O575 1.253 . S
C579 O580 1.227 . S
O580 C579 1.227 . S
N581 Co567 2.140 . S
N581 C584 1.346 . S
N581 C585 1.345 . S
C582 C583 1.387 . S
C582 C586 1.391 . S
C583 C582 1.387 . S
C583 C584 1.369 . S
C583 H592 0.929 . S
C584 N581 1.346 . S
C584 C583 1.369 . S
C584 H587 0.928 . S
C585 N581 1.345 . S
C585 C586 1.371 . S
C585 H588 0.931 . S
C586 C582 1.391 . S
C586 C585 1.371 . S
C586 H593 0.930 . S
H587 C584 0.928 . S
H588 C585 0.931 . S
H589 C565 0.930 . S
H590 C562 0.930 . S
H591 C571 0.930 . S
H592 C583 0.929 . S
H593 C586 0.930 . S
C594 C595 1.351 . S
C594 N597 1.368 . S
C594 H599 0.931 . S
C595 C594 1.351 . S
C595 N596 1.373 . S
C595 H623 0.930 . S
N596 C595 1.373 . S
N596 C598 1.340 . S
N597 C594 1.368 . S
N597 C598 1.321 . S
N597 Co600 2.135 . S
C598 N596 1.340 . S
C598 N597 1.321 . S
C598 H622 0.930 . S
H599 C594 0.931 . S
Co600 N597 2.135 . S
Co600 N603 2.121 . S
Co600 O608 2.055 . S
Co600 O611 2.039 . S
Co600 N614 2.140 . S
C601 O602 1.227 . S
C601 O611 1.265 . S
O602 C601 1.227 . S
N603 Co600 2.121 . S
N603 C605 1.375 . S
N603 C606 1.313 . S
C604 C605 1.338 . S
C604 N607 1.377 . S
C604 H624 0.930 . S
C605 N603 1.375 . S
C605 C604 1.338 . S
C605 H609 0.931 . S
C606 N603 1.313 . S
C606 N607 1.344 . S
C606 H610 0.930 . S
N607 C604 1.377 . S
N607 C606 1.344 . S
O608 Co600 2.055 . S
O608 C612 1.253 . S
H609 C605 0.931 . S
H610 C606 0.930 . S
O611 Co600 2.039 . S
O611 C601 1.265 . S
C612 O608 1.253 . S
C612 O613 1.227 . S
O613 C612 1.227 . S
N614 Co600 2.140 . S
N614 C617 1.346 . S
N614 C618 1.345 . S
C615 C616 1.387 . S
C615 C619 1.391 . S
C616 C615 1.387 . S
C616 C617 1.369 . S
C616 H625 0.929 . S
C617 N614 1.346 . S
C617 C616 1.369 . S
C617 H620 0.928 . S
C618 N614 1.345 . S
C618 C619 1.371 . S
C618 H621 0.931 . S
C619 C615 1.391 . S
C619 C618 1.371 . S
C619 H626 0.930 . S
H620 C617 0.928 . S
H621 C618 0.931 . S
H622 C598 0.930 . S
H623 C595 0.930 . S
H624 C604 0.930 . S
H625 C616 0.929 . S
H626 C619 0.930 . S
C627 C628 1.351 . S
C627 N630 1.368 . S
C627 H632 0.931 . S
C628 C627 1.351 . S
C628 N629 1.373 . S
C628 H656 0.930 . S
N629 C628 1.373 . S
N629 C631 1.340 . S
N630 C627 1.368 . S
N630 C631 1.321 . S
N630 Co633 2.135 . S
C631 N629 1.340 . S
C631 N630 1.321 . S
C631 H655 0.930 . S
H632 C627 0.931 . S
Co633 N630 2.135 . S
Co633 N636 2.121 1_455 S
Co633 O641 2.055 . S
Co633 O644 2.039 . S
Co633 N647 2.140 . S
C634 O635 1.227 . S
C634 O644 1.265 . S
O635 C634 1.227 . S
N636 Co633 2.121 1_655 S
N636 C638 1.375 . S
N636 C639 1.313 . S
C637 C638 1.338 . S
C637 N640 1.377 . S
C637 H657 0.930 . S
C638 N636 1.375 . S
C638 C637 1.338 . S
C638 H642 0.931 1_655 S
C639 N636 1.313 . S
C639 N640 1.344 . S
C639 H643 0.930 . S
N640 C637 1.377 . S
N640 C639 1.344 . S
O641 Co633 2.055 . S
O641 C645 1.253 . S
H642 C638 0.931 1_455 S
H643 C639 0.930 . S
O644 Co633 2.039 . S
O644 C634 1.265 . S
C645 O641 1.253 . S
C645 O646 1.227 . S
O646 C645 1.227 . S
N647 Co633 2.140 . S
N647 C650 1.346 . S
N647 C651 1.345 . S
C648 C649 1.387 . S
C648 C652 1.391 . S
C649 C648 1.387 . S
C649 C650 1.369 . S
C649 H658 0.929 . S
C650 N647 1.346 . S
C650 C649 1.369 . S
C650 H653 0.928 . S
C651 N647 1.345 . S
C651 C652 1.371 . S
C651 H654 0.931 . S
C652 C648 1.391 . S
C652 C651 1.371 . S
C652 H659 0.930 . S
H653 C650 0.928 . S
H654 C651 0.931 . S
H655 C631 0.930 . S
H656 C628 0.930 . S
H657 C637 0.930 . S
H658 C649 0.929 . S
H659 C652 0.930 . S
C660 C661 1.351 . S
C660 N663 1.368 . S
C660 H665 0.931 . S
C661 C660 1.351 . S
C661 N662 1.373 . S
C661 H689 0.930 . S
N662 C661 1.373 . S
N662 C664 1.340 . S
N663 C660 1.368 . S
N663 C664 1.321 . S
N663 Co666 2.135 . S
C664 N662 1.340 . S
C664 N663 1.321 . S
C664 H688 0.930 . S
H665 C660 0.931 . S
Co666 N663 2.135 . S
Co666 N669 2.121 . S
Co666 O674 2.055 . S
Co666 O677 2.039 . S
Co666 N680 2.140 . S
C667 O668 1.227 . S
C667 O677 1.265 . S
O668 C667 1.227 . S
N669 Co666 2.121 . S
N669 C671 1.375 . S
N669 C672 1.313 . S
C670 C671 1.338 . S
C670 N673 1.377 . S
C670 H690 0.930 . S
C671 N669 1.375 . S
C671 C670 1.338 . S
C671 H675 0.931 . S
C672 N669 1.313 . S
C672 N673 1.344 . S
C672 H676 0.930 . S
N673 C670 1.377 . S
N673 C672 1.344 . S
O674 Co666 2.055 . S
O674 C678 1.253 . S
H675 C671 0.931 . S
H676 C672 0.930 . S
O677 Co666 2.039 . S
O677 C667 1.265 . S
C678 O674 1.253 . S
C678 O679 1.227 . S
O679 C678 1.227 . S
N680 Co666 2.140 . S
N680 C683 1.346 . S
N680 C684 1.345 . S
C681 C682 1.387 . S
C681 C685 1.391 . S
C682 C681 1.387 . S
C682 C683 1.369 . S
C682 H691 0.929 . S
C683 N680 1.346 . S
C683 C682 1.369 . S
C683 H686 0.928 . S
C684 N680 1.345 . S
C684 C685 1.371 . S
C684 H687 0.931 . S
C685 C681 1.391 . S
C685 C684 1.371 . S
C685 H692 0.930 . S
H686 C683 0.928 . S
H687 C684 0.931 . S
H688 C664 0.930 . S
H689 C661 0.930 . S
H690 C670 0.930 . S
H691 C682 0.929 . S
H692 C685 0.930 . S
C693 C694 1.351 . S
C693 N696 1.368 . S
C693 H698 0.931 . S
C694 C693 1.351 . S
C694 N695 1.373 . S
C694 H722 0.930 . S
N695 C694 1.373 . S
N695 C697 1.340 . S
N696 C693 1.368 . S
N696 C697 1.321 . S
N696 Co699 2.135 . S
C697 N695 1.340 . S
C697 N696 1.321 . S
C697 H721 0.930 . S
H698 C693 0.931 . S
Co699 N696 2.135 . S
Co699 N702 2.121 1_455 S
Co699 O707 2.055 . S
Co699 O710 2.039 . S
Co699 N713 2.140 . S
C700 O701 1.227 . S
C700 O710 1.265 . S
O701 C700 1.227 . S
N702 Co699 2.121 1_655 S
N702 C704 1.375 . S
N702 C705 1.313 . S
C703 C704 1.338 . S
C703 N706 1.377 . S
C703 H723 0.930 . S
C704 N702 1.375 . S
C704 C703 1.338 . S
C704 H708 0.931 1_655 S
C705 N702 1.313 . S
C705 N706 1.344 . S
C705 H709 0.930 . S
N706 C703 1.377 . S
N706 C705 1.344 . S
O707 Co699 2.055 . S
O707 C711 1.253 . S
H708 C704 0.931 1_455 S
H709 C705 0.930 . S
O710 Co699 2.039 . S
O710 C700 1.265 . S
C711 O707 1.253 . S
C711 O712 1.227 . S
O712 C711 1.227 . S
N713 Co699 2.140 . S
N713 C716 1.346 . S
N713 C717 1.345 . S
C714 C715 1.387 . S
C714 C718 1.391 . S
C715 C714 1.387 . S
C715 C716 1.369 . S
C715 H724 0.929 . S
C716 N713 1.346 . S
C716 C715 1.369 . S
C716 H719 0.928 . S
C717 N713 1.345 . S
C717 C718 1.371 . S
C717 H720 0.931 . S
C718 C714 1.391 . S
C718 C717 1.371 . S
C718 H725 0.930 . S
H719 C716 0.928 . S
H720 C717 0.931 . S
H721 C697 0.930 . S
H722 C694 0.930 . S
H723 C703 0.930 . S
H724 C715 0.929 . S
H725 C718 0.930 . S
C726 C727 1.351 . S
C726 N729 1.368 . S
C726 H731 0.931 . S
C727 C726 1.351 . S
C727 N728 1.373 . S
C727 H755 0.930 . S
N728 C727 1.373 . S
N728 C730 1.340 . S
N729 C726 1.368 . S
N729 C730 1.321 . S
N729 Co732 2.135 . S
C730 N728 1.340 . S
C730 N729 1.321 . S
C730 H754 0.930 . S
H731 C726 0.931 . S
Co732 N729 2.135 . S
Co732 N735 2.121 . S
Co732 O740 2.055 . S
Co732 O743 2.039 . S
Co732 N746 2.140 . S
C733 O734 1.227 . S
C733 O743 1.265 . S
O734 C733 1.227 . S
N735 Co732 2.121 . S
N735 C737 1.375 . S
N735 C738 1.313 . S
C736 C737 1.338 . S
C736 N739 1.377 . S
C736 H756 0.930 . S
C737 N735 1.375 . S
C737 C736 1.338 . S
C737 H741 0.931 . S
C738 N735 1.313 . S
C738 N739 1.344 . S
C738 H742 0.930 . S
N739 C736 1.377 . S
N739 C738 1.344 . S
O740 Co732 2.055 . S
O740 C744 1.253 . S
H741 C737 0.931 . S
H742 C738 0.930 . S
O743 Co732 2.039 . S
O743 C733 1.265 . S
C744 O740 1.253 . S
C744 O745 1.227 . S
O745 C744 1.227 . S
N746 Co732 2.140 . S
N746 C749 1.346 . S
N746 C750 1.345 . S
C747 C748 1.387 . S
C747 C751 1.391 . S
C748 C747 1.387 . S
C748 C749 1.369 . S
C748 H757 0.929 . S
C749 N746 1.346 . S
C749 C748 1.369 . S
C749 H752 0.928 . S
C750 N746 1.345 . S
C750 C751 1.371 . S
C750 H753 0.931 . S
C751 C747 1.391 . S
C751 C750 1.371 . S
C751 H758 0.930 . S
H752 C749 0.928 . S
H753 C750 0.931 . S
H754 C730 0.930 . S
H755 C727 0.930 . S
H756 C736 0.930 . S
H757 C748 0.929 . S
H758 C751 0.930 . S
C759 C760 1.351 . S
C759 N762 1.368 . S
C759 H764 0.931 . S
C760 C759 1.351 . S
C760 N761 1.373 . S
C760 H788 0.930 . S
N761 C760 1.373 . S
N761 C763 1.340 . S
N762 C759 1.368 . S
N762 C763 1.321 . S
N762 Co765 2.135 . S
C763 N761 1.340 . S
C763 N762 1.321 . S
C763 H787 0.930 . S
H764 C759 0.931 . S
Co765 N762 2.135 . S
Co765 N768 2.121 . S
Co765 O773 2.055 . S
Co765 O776 2.039 . S
Co765 N779 2.140 . S
C766 O767 1.227 . S
C766 O776 1.265 . S
O767 C766 1.227 . S
N768 Co765 2.121 . S
N768 C770 1.375 . S
N768 C771 1.313 . S
C769 C770 1.338 . S
C769 N772 1.377 . S
C769 H789 0.930 . S
C770 N768 1.375 . S
C770 C769 1.338 . S
C770 H774 0.931 . S
C771 N768 1.313 . S
C771 N772 1.344 . S
C771 H775 0.930 . S
N772 C769 1.377 . S
N772 C771 1.344 . S
O773 Co765 2.055 . S
O773 C777 1.253 . S
H774 C770 0.931 . S
H775 C771 0.930 . S
O776 Co765 2.039 . S
O776 C766 1.265 . S
C777 O773 1.253 . S
C777 O778 1.227 . S
O778 C777 1.227 . S
N779 Co765 2.140 . S
N779 C782 1.346 . S
N779 C783 1.345 . S
C780 C781 1.387 . S
C780 C784 1.391 . S
C781 C780 1.387 . S
C781 C782 1.369 . S
C781 H790 0.929 . S
C782 N779 1.346 . S
C782 C781 1.369 . S
C782 H785 0.928 . S
C783 N779 1.345 . S
C783 C784 1.371 . S
C783 H786 0.931 . S
C784 C780 1.391 . S
C784 C783 1.371 . S
C784 H791 0.930 . S
H785 C782 0.928 . S
H786 C783 0.931 . S
H787 C763 0.930 . S
H788 C760 0.930 . S
H789 C769 0.930 . S
H790 C781 0.929 . S
H791 C784 0.930 . S
C792 C793 1.351 . S
C792 N795 1.368 . S
C792 H797 0.931 . S
C793 C792 1.351 . S
C793 N794 1.373 . S
C793 H821 0.930 . S
N794 C793 1.373 . S
N794 C796 1.340 . S
N795 C792 1.368 . S
N795 C796 1.321 . S
N795 Co798 2.135 . S
C796 N794 1.340 . S
C796 N795 1.321 . S
C796 H820 0.930 . S
H797 C792 0.931 . S
Co798 N795 2.135 . S
Co798 N801 2.121 . S
Co798 O806 2.055 . S
Co798 O809 2.039 . S
Co798 N812 2.140 . S
C799 O800 1.227 . S
C799 O809 1.265 . S
O800 C799 1.227 . S
N801 Co798 2.121 . S
N801 C803 1.375 . S
N801 C804 1.313 . S
C802 C803 1.338 . S
C802 N805 1.377 . S
C802 H822 0.930 . S
C803 N801 1.375 . S
C803 C802 1.338 . S
C803 H807 0.931 . S
C804 N801 1.313 . S
C804 N805 1.344 . S
C804 H808 0.930 . S
N805 C802 1.377 . S
N805 C804 1.344 . S
O806 Co798 2.055 . S
O806 C810 1.253 . S
H807 C803 0.931 . S
H808 C804 0.930 . S
O809 Co798 2.039 . S
O809 C799 1.265 . S
C810 O806 1.253 . S
C810 O811 1.227 . S
O811 C810 1.227 . S
N812 Co798 2.140 . S
N812 C815 1.346 . S
N812 C816 1.345 . S
C813 C814 1.387 . S
C813 C817 1.391 . S
C814 C813 1.387 . S
C814 C815 1.369 . S
C814 H823 0.929 . S
C815 N812 1.346 . S
C815 C814 1.369 . S
C815 H818 0.928 . S
C816 N812 1.345 . S
C816 C817 1.371 . S
C816 H819 0.931 . S
C817 C813 1.391 . S
C817 C816 1.371 . S
C817 H824 0.930 . S
H818 C815 0.928 . S
H819 C816 0.931 . S
H820 C796 0.930 . S
H821 C793 0.930 . S
H822 C802 0.930 . S
H823 C814 0.929 . S
H824 C817 0.930 . S
C825 C826 1.351 . S
C825 N828 1.368 . S
C825 H830 0.931 . S
C826 C825 1.351 . S
C826 N827 1.373 . S
C826 H854 0.930 . S
N827 C826 1.373 . S
N827 C829 1.340 . S
N828 C825 1.368 . S
N828 C829 1.321 . S
N828 Co831 2.135 . S
C829 N827 1.340 . S
C829 N828 1.321 . S
C829 H853 0.930 . S
H830 C825 0.931 . S
Co831 N828 2.135 . S
Co831 N834 2.121 . S
Co831 O839 2.055 . S
Co831 O842 2.039 . S
Co831 N845 2.140 . S
C832 O833 1.227 . S
C832 O842 1.265 . S
O833 C832 1.227 . S
N834 Co831 2.121 . S
N834 C836 1.375 . S
N834 C837 1.313 . S
C835 C836 1.338 . S
C835 N838 1.377 . S
C835 H855 0.930 . S
C836 N834 1.375 . S
C836 C835 1.338 . S
C836 H840 0.931 . S
C837 N834 1.313 . S
C837 N838 1.344 . S
C837 H841 0.930 . S
N838 C835 1.377 . S
N838 C837 1.344 . S
O839 Co831 2.055 . S
O839 C843 1.253 . S
H840 C836 0.931 . S
H841 C837 0.930 . S
O842 Co831 2.039 . S
O842 C832 1.265 . S
C843 O839 1.253 . S
C843 O844 1.227 . S
O844 C843 1.227 . S
N845 Co831 2.140 . S
N845 C848 1.346 . S
N845 C849 1.345 . S
C846 C847 1.387 . S
C846 C850 1.391 . S
C847 C846 1.387 . S
C847 C848 1.369 . S
C847 H856 0.929 . S
C848 N845 1.346 . S
C848 C847 1.369 . S
C848 H851 0.928 . S
C849 N845 1.345 . S
C849 C850 1.371 . S
C849 H852 0.931 . S
C850 C846 1.391 . S
C850 C849 1.371 . S
C850 H857 0.930 . S
H851 C848 0.928 . S
H852 C849 0.931 . S
H853 C829 0.930 . S
H854 C826 0.930 . S
H855 C835 0.930 . S
H856 C847 0.929 . S
H857 C850 0.930 . S
C858 C859 1.351 . S
C858 N861 1.368 . S
C858 H863 0.931 . S
C859 C858 1.351 . S
C859 N860 1.373 . S
C859 H887 0.930 . S
N860 C859 1.373 . S
N860 C862 1.340 . S
N861 C858 1.368 . S
N861 C862 1.321 . S
N861 Co864 2.135 . S
C862 N860 1.340 . S
C862 N861 1.321 . S
C862 H886 0.930 . S
H863 C858 0.931 . S
Co864 N861 2.135 . S
Co864 N867 2.121 . S
Co864 O872 2.055 . S
Co864 O875 2.039 . S
Co864 N878 2.140 . S
C865 O866 1.227 . S
C865 O875 1.265 . S
O866 C865 1.227 . S
N867 Co864 2.121 . S
N867 C869 1.375 . S
N867 C870 1.313 . S
C868 C869 1.338 . S
C868 N871 1.377 . S
C868 H888 0.930 . S
C869 N867 1.375 . S
C869 C868 1.338 . S
C869 H873 0.931 . S
C870 N867 1.313 . S
C870 N871 1.344 . S
C870 H874 0.930 . S
N871 C868 1.377 . S
N871 C870 1.344 . S
O872 Co864 2.055 . S
O872 C876 1.253 . S
H873 C869 0.931 . S
H874 C870 0.930 . S
O875 Co864 2.039 . S
O875 C865 1.265 . S
C876 O872 1.253 . S
C876 O877 1.227 . S
O877 C876 1.227 . S
N878 Co864 2.140 . S
N878 C881 1.346 . S
N878 C882 1.345 . S
C879 C880 1.387 . S
C879 C883 1.391 . S
C880 C879 1.387 . S
C880 C881 1.369 . S
C880 H889 0.929 . S
C881 N878 1.346 . S
C881 C880 1.369 . S
C881 H884 0.928 . S
C882 N878 1.345 . S
C882 C883 1.371 . S
C882 H885 0.931 . S
C883 C879 1.391 . S
C883 C882 1.371 . S
C883 H890 0.930 . S
H884 C881 0.928 . S
H885 C882 0.931 . S
H886 C862 0.930 . S
H887 C859 0.930 . S
H888 C868 0.930 . S
H889 C880 0.929 . S
H890 C883 0.930 . S
C891 C892 1.351 . S
C891 N894 1.368 . S
C891 H896 0.931 . S
C892 C891 1.351 . S
C892 N893 1.373 . S
C892 H920 0.930 . S
N893 C892 1.373 . S
N893 C895 1.340 . S
N894 C891 1.368 . S
N894 C895 1.321 . S
N894 Co897 2.135 . S
C895 N893 1.340 . S
C895 N894 1.321 . S
C895 H919 0.930 . S
H896 C891 0.931 . S
Co897 N894 2.135 . S
Co897 N900 2.121 1_655 S
Co897 O905 2.055 . S
Co897 O908 2.039 . S
Co897 N911 2.140 . S
C898 O899 1.227 . S
C898 O908 1.265 . S
O899 C898 1.227 . S
N900 Co897 2.121 1_455 S
N900 C902 1.375 . S
N900 C903 1.313 . S
C901 C902 1.338 . S
C901 N904 1.377 . S
C901 H921 0.930 . S
C902 N900 1.375 . S
C902 C901 1.338 . S
C902 H906 0.931 1_455 S
C903 N900 1.313 . S
C903 N904 1.344 . S
C903 H907 0.930 . S
N904 C901 1.377 . S
N904 C903 1.344 . S
O905 Co897 2.055 . S
O905 C909 1.253 . S
H906 C902 0.931 1_655 S
H907 C903 0.930 . S
O908 Co897 2.039 . S
O908 C898 1.265 . S
C909 O905 1.253 . S
C909 O910 1.227 . S
O910 C909 1.227 . S
N911 Co897 2.140 . S
N911 C914 1.346 . S
N911 C915 1.345 . S
C912 C913 1.387 . S
C912 C916 1.391 . S
C913 C912 1.387 . S
C913 C914 1.369 . S
C913 H922 0.929 . S
C914 N911 1.346 . S
C914 C913 1.369 . S
C914 H917 0.928 . S
C915 N911 1.345 . S
C915 C916 1.371 . S
C915 H918 0.931 . S
C916 C912 1.391 . S
C916 C915 1.371 . S
C916 H923 0.930 . S
H917 C914 0.928 . S
H918 C915 0.931 . S
H919 C895 0.930 . S
H920 C892 0.930 . S
H921 C901 0.930 . S
H922 C913 0.929 . S
H923 C916 0.930 . S
C924 C925 1.351 . S
C924 N927 1.368 . S
C924 H929 0.931 . S
C925 C924 1.351 . S
C925 N926 1.373 . S
C925 H953 0.930 . S
N926 C925 1.373 . S
N926 C928 1.340 . S
N927 C924 1.368 . S
N927 C928 1.321 . S
N927 Co930 2.135 . S
C928 N926 1.340 . S
C928 N927 1.321 . S
C928 H952 0.930 . S
H929 C924 0.931 . S
Co930 N927 2.135 . S
Co930 N933 2.121 . S
Co930 O938 2.055 . S
Co930 O941 2.039 . S
Co930 N944 2.140 . S
C931 O932 1.227 . S
C931 O941 1.265 . S
O932 C931 1.227 . S
N933 Co930 2.121 . S
N933 C935 1.375 . S
N933 C936 1.313 . S
C934 C935 1.338 . S
C934 N937 1.377 . S
C934 H954 0.930 . S
C935 N933 1.375 . S
C935 C934 1.338 . S
C935 H939 0.931 . S
C936 N933 1.313 . S
C936 N937 1.344 . S
C936 H940 0.930 . S
N937 C934 1.377 . S
N937 C936 1.344 . S
O938 Co930 2.055 . S
O938 C942 1.253 . S
H939 C935 0.931 . S
H940 C936 0.930 . S
O941 Co930 2.039 . S
O941 C931 1.265 . S
C942 O938 1.253 . S
C942 O943 1.227 . S
O943 C942 1.227 . S
N944 Co930 2.140 . S
N944 C947 1.346 . S
N944 C948 1.345 . S
C945 C946 1.387 . S
C945 C949 1.391 . S
C946 C945 1.387 . S
C946 C947 1.369 . S
C946 H955 0.929 . S
C947 N944 1.346 . S
C947 C946 1.369 . S
C947 H950 0.928 . S
C948 N944 1.345 . S
C948 C949 1.371 . S
C948 H951 0.931 . S
C949 C945 1.391 . S
C949 C948 1.371 . S
C949 H956 0.930 . S
H950 C947 0.928 . S
H951 C948 0.931 . S
H952 C928 0.930 . S
H953 C925 0.930 . S
H954 C934 0.930 . S
H955 C946 0.929 . S
H956 C949 0.930 . S
C957 C958 1.351 . S
C957 N960 1.368 . S
C957 H962 0.931 . S
C958 C957 1.351 . S
C958 N959 1.373 . S
C958 H986 0.930 . S
N959 C958 1.373 . S
N959 C961 1.340 . S
N960 C957 1.368 . S
N960 C961 1.321 . S
N960 Co963 2.135 . S
C961 N959 1.340 . S
C961 N960 1.321 . S
C961 H985 0.930 . S
H962 C957 0.931 . S
Co963 N960 2.135 . S
Co963 N966 2.121 1_655 S
Co963 O971 2.055 . S
Co963 O974 2.039 . S
Co963 N977 2.140 . S
C964 O965 1.227 . S
C964 O974 1.265 . S
O965 C964 1.227 . S
N966 Co963 2.121 1_455 S
N966 C968 1.375 . S
N966 C969 1.313 . S
C967 C968 1.338 . S
C967 N970 1.377 . S
C967 H987 0.930 . S
C968 N966 1.375 . S
C968 C967 1.338 . S
C968 H972 0.931 1_455 S
C969 N966 1.313 . S
C969 N970 1.344 . S
C969 H973 0.930 . S
N970 C967 1.377 . S
N970 C969 1.344 . S
O971 Co963 2.055 . S
O971 C975 1.253 . S
H972 C968 0.931 1_655 S
H973 C969 0.930 . S
O974 Co963 2.039 . S
O974 C964 1.265 . S
C975 O971 1.253 . S
C975 O976 1.227 . S
O976 C975 1.227 . S
N977 Co963 2.140 . S
N977 C980 1.346 . S
N977 C981 1.345 . S
C978 C979 1.387 . S
C978 C982 1.391 . S
C979 C978 1.387 . S
C979 C980 1.369 . S
C979 H988 0.929 . S
C980 N977 1.346 . S
C980 C979 1.369 . S
C980 H983 0.928 . S
C981 N977 1.345 . S
C981 C982 1.371 . S
C981 H984 0.931 . S
C982 C978 1.391 . S
C982 C981 1.371 . S
C982 H989 0.930 . S
H983 C980 0.928 . S
H984 C981 0.931 . S
H985 C961 0.930 . S
H986 C958 0.930 . S
H987 C967 0.930 . S
H988 C979 0.929 . S
H989 C982 0.930 . S
C990 C991 1.351 . S
C990 N993 1.368 . S
C990 H995 0.931 . S
C991 C990 1.351 . S
C991 N992 1.373 . S
C991 H1019 0.930 . S
N992 C991 1.373 . S
N992 C994 1.340 . S
N993 C990 1.368 . S
N993 C994 1.321 . S
N993 Co996 2.135 . S
C994 N992 1.340 . S
C994 N993 1.321 . S
C994 H1018 0.930 . S
H995 C990 0.931 . S
Co996 N993 2.135 . S
Co996 N999 2.121 . S
Co996 O1004 2.055 . S
Co996 O1007 2.039 . S
Co996 N1010 2.140 . S
C997 O998 1.227 . S
C997 O1007 1.265 . S
O998 C997 1.227 . S
N999 Co996 2.121 . S
N999 C1001 1.375 . S
N999 C1002 1.313 . S
C1000 C1001 1.338 . S
C1000 N1003 1.377 . S
C1000 H1020 0.930 . S
C1001 N999 1.375 . S
C1001 C1000 1.338 . S
C1001 H1005 0.931 . S
C1002 N999 1.313 . S
C1002 N1003 1.344 . S
C1002 H1006 0.930 . S
N1003 C1000 1.377 . S
N1003 C1002 1.344 . S
O1004 Co996 2.055 . S
O1004 C1008 1.253 . S
H1005 C1001 0.931 . S
H1006 C1002 0.930 . S
O1007 Co996 2.039 . S
O1007 C997 1.265 . S
C1008 O1004 1.253 . S
C1008 O1009 1.227 . S
O1009 C1008 1.227 . S
N1010 Co996 2.140 . S
N1010 C1013 1.346 . S
N1010 C1014 1.345 . S
C1011 C1012 1.387 . S
C1011 C1015 1.391 . S
C1012 C1011 1.387 . S
C1012 C1013 1.369 . S
C1012 H1021 0.929 . S
C1013 N1010 1.346 . S
C1013 C1012 1.369 . S
C1013 H1016 0.928 . S
C1014 N1010 1.345 . S
C1014 C1015 1.371 . S
C1014 H1017 0.931 . S
C1015 C1011 1.391 . S
C1015 C1014 1.371 . S
C1015 H1022 0.930 . S
H1016 C1013 0.928 . S
H1017 C1014 0.931 . S
H1018 C994 0.930 . S
H1019 C991 0.930 . S
H1020 C1000 0.930 . S
H1021 C1012 0.929 . S
H1022 C1015 0.930 . S
C1023 C1024 1.351 . S
C1023 N1026 1.368 . S
C1023 H1028 0.931 . S
C1024 C1023 1.351 . S
C1024 N1025 1.373 . S
C1024 H1052 0.930 . S
N1025 C1024 1.373 . S
N1025 C1027 1.340 . S
N1026 C1023 1.368 . S
N1026 C1027 1.321 . S
N1026 Co1029 2.135 . S
C1027 N1025 1.340 . S
C1027 N1026 1.321 . S
C1027 H1051 0.930 . S
H1028 C1023 0.931 . S
Co1029 N1026 2.135 . S
Co1029 N1032 2.121 . S
Co1029 O1037 2.055 . S
Co1029 O1040 2.039 . S
Co1029 N1043 2.140 . S
C1030 O1031 1.227 . S
C1030 O1040 1.265 . S
O1031 C1030 1.227 . S
N1032 Co1029 2.121 . S
N1032 C1034 1.375 . S
N1032 C1035 1.313 . S
C1033 C1034 1.338 . S
C1033 N1036 1.377 . S
C1033 H1053 0.930 . S
C1034 N1032 1.375 . S
C1034 C1033 1.338 . S
C1034 H1038 0.931 . S
C1035 N1032 1.313 . S
C1035 N1036 1.344 . S
C1035 H1039 0.930 . S
N1036 C1033 1.377 . S
N1036 C1035 1.344 . S
O1037 Co1029 2.055 . S
O1037 C1041 1.253 . S
H1038 C1034 0.931 . S
H1039 C1035 0.930 . S
O1040 Co1029 2.039 . S
O1040 C1030 1.265 . S
C1041 O1037 1.253 . S
C1041 O1042 1.227 . S
O1042 C1041 1.227 . S
N1043 Co1029 2.140 . S
N1043 C1046 1.346 . S
N1043 C1047 1.345 . S
C1044 C1045 1.387 . S
C1044 C1048 1.391 . S
C1045 C1044 1.387 . S
C1045 C1046 1.369 . S
C1045 H1054 0.929 . S
C1046 N1043 1.346 . S
C1046 C1045 1.369 . S
C1046 H1049 0.928 . S
C1047 N1043 1.345 . S
C1047 C1048 1.371 . S
C1047 H1050 0.931 . S
C1048 C1044 1.391 . S
C1048 C1047 1.371 . S
C1048 H1055 0.930 . S
H1049 C1046 0.928 . S
H1050 C1047 0.931 . S
H1051 C1027 0.930 . S
H1052 C1024 0.930 . S
H1053 C1033 0.930 . S
H1054 C1045 0.929 . S
H1055 C1048 0.930 . S
C18 C810 1.584 . S
C315 C51 1.584 1_465 S
C876 C84 1.584 . S
C381 C117 1.584 1_544 S
C942 C150 1.584 . S
C447 C183 1.584 1_565 S
C1008 C216 1.584 . S
C513 C249 1.584 1_446 S
C282 C546 1.584 . S
C348 C612 1.584 . S
C414 C678 1.584 . S
C744 C480 1.584 . S
C579 C843 1.584 1_556 S
C909 C645 1.584 1_655 S
C711 C975 1.584 1_454 S
C1041 C777 1.584 . S
N13 C384 1.357 . S
N46 C813 1.358 . S
C318 N79 1.357 . S
N112 C879 1.358 . S
C450 N145 1.357 . S
C1011 N178 1.358 . S
N211 C516 1.357 . S
C945 N244 1.358 . S
N277 C120 1.357 . S
N310 C549 1.358 . S
C54 N343 1.357 . S
N376 C615 1.358 . S
N409 C186 1.357 . S
C747 N442 1.358 . S
C252 N475 1.357 . S
N508 C681 1.358 . S
C912 N541 1.357 . S
C285 N574 1.357 . S
C846 N607 1.357 . S
N640 C351 1.357 . S
C978 N673 1.357 . S
C483 N706 1.357 . S
N739 C1044 1.357 . S
C417 N772 1.357 . S
C648 N805 1.357 . S
N838 C21 1.357 . S
N871 C582 1.357 . S
C87 N904 1.357 . S
C714 N937 1.357 . S
N970 C219 1.357 . S
C780 N1003 1.357 . S
C153 N1036 1.357 . S
C7 C205 1.211 1_554 S
C238 C40 1.210 1_545 S
C73 C139 1.211 . S
C106 C172 1.210 1_545 S
C469 C271 1.211 1_554 S
C502 C304 1.210 1_565 S
C403 C337 1.211 . S
C436 C370 1.210 1_545 S
C535 C733 1.211 . S
C568 C766 1.211 . S
C601 C667 1.211 1_554 S
C634 C700 1.211 . S
C997 C799 1.211 . S
C1030 C832 1.211 . S
C865 C931 1.211 1_556 S
C898 C964 1.211 . S
N2 N695 1.794 . S
N35 N728 1.794 . S
N68 N761 1.794 . S
N101 N662 1.794 . S
N629 N134 1.794 . S
N167 N530 1.794 . S
N563 N200 1.794 . S
N233 N596 1.794 . S
N959 N266 1.794 . S
N299 N992 1.794 . S
N1025 N332 1.794 . S
N365 N926 1.794 . S
N398 N893 1.794 . S
N794 N431 1.794 . S
N464 N827 1.794 . S
N497 N860 1.794 . S
