# Generated by pormake.
# Topology yfs, (5)-cn, num edge types: 1
# Building blocks:
#     Node 0, Type 0, BuildingBlock: XOMCOT_clean_sbu_1, # of connection points: 5
#     Node 1, Type 0, BuildingBlock: XOMCOT_clean_sbu_1, # of connection points: 5
#     Node 2, Type 0, BuildingBlock: XOMCOT_clean_sbu_1, # of connection points: 5
#     Node 3, Type 0, BuildingBlock: XOMCOT_clean_sbu_1, # of connection points: 5
#     Node 4, Type 0, BuildingBlock: XOMCOT_clean_sbu_1, # of connection points: 5
#     Node 5, Type 0, BuildingBlock: XOMCOT_clean_sbu_1, # of connection points: 5
#     Node 6, Type 0, BuildingBlock: XOMCOT_clean_sbu_1, # of connection points: 5
#     Node 7, Type 0, BuildingBlock: XOMCOT_clean_sbu_1, # of connection points: 5
#     Node 8, Type 0, BuildingBlock: XOMCOT_clean_sbu_1, # of connection points: 5
#     Node 9, Type 0, BuildingBlock: XOMCOT_clean_sbu_1, # of connection points: 5
#     Node 10, Type 0, BuildingBlock: XOMCOT_clean_sbu_1, # of connection points: 5
#     Node 11, Type 0, BuildingBlock: XOMCOT_clean_sbu_1, # of connection points: 5
#     Node 12, Type 0, BuildingBlock: XOMCOT_clean_sbu_1, # of connection points: 5
#     Node 13, Type 0, BuildingBlock: XOMCOT_clean_sbu_1, # of connection points: 5
#     Node 14, Type 0, BuildingBlock: XOMCOT_clean_sbu_1, # of connection points: 5
#     Node 15, Type 0, BuildingBlock: XOMCOT_clean_sbu_1, # of connection points: 5
#     Node 16, Type 0, BuildingBlock: XOMCOT_clean_sbu_1, # of connection points: 5
#     Node 17, Type 0, BuildingBlock: XOMCOT_clean_sbu_1, # of connection points: 5
#     Node 18, Type 0, BuildingBlock: XOMCOT_clean_sbu_1, # of connection points: 5
#     Node 19, Type 0, BuildingBlock: XOMCOT_clean_sbu_1, # of connection points: 5
#     Node 20, Type 0, BuildingBlock: XOMCOT_clean_sbu_1, # of connection points: 5
#     Node 21, Type 0, BuildingBlock: XOMCOT_clean_sbu_1, # of connection points: 5
#     Node 22, Type 0, BuildingBlock: XOMCOT_clean_sbu_1, # of connection points: 5
#     Node 23, Type 0, BuildingBlock: XOMCOT_clean_sbu_1, # of connection points: 5
#     Node 24, Type 0, BuildingBlock: XOMCOT_clean_sbu_1, # of connection points: 5
#     Node 25, Type 0, BuildingBlock: XOMCOT_clean_sbu_1, # of connection points: 5
#     Node 26, Type 0, BuildingBlock: XOMCOT_clean_sbu_1, # of connection points: 5
#     Node 27, Type 0, BuildingBlock: XOMCOT_clean_sbu_1, # of connection points: 5
#     Node 28, Type 0, BuildingBlock: XOMCOT_clean_sbu_1, # of connection points: 5
#     Node 29, Type 0, BuildingBlock: XOMCOT_clean_sbu_1, # of connection points: 5
#     Node 30, Type 0, BuildingBlock: XOMCOT_clean_sbu_1, # of connection points: 5
#     Node 31, Type 0, BuildingBlock: XOMCOT_clean_sbu_1, # of connection points: 5
#     Edge 32, Type (0, 0), None
#     Edge 33, Type (0, 0), None
#     Edge 34, Type (0, 0), None
#     Edge 35, Type (0, 0), None
#     Edge 36, Type (0, 0), None
#     Edge 37, Type (0, 0), None
#     Edge 38, Type (0, 0), None
#     Edge 39, Type (0, 0), None
#     Edge 40, Type (0, 0), None
#     Edge 41, Type (0, 0), None
#     Edge 42, Type (0, 0), None
#     Edge 43, Type (0, 0), None
#     Edge 44, Type (0, 0), None
#     Edge 45, Type (0, 0), None
#     Edge 46, Type (0, 0), None
#     Edge 47, Type (0, 0), None
#     Edge 48, Type (0, 0), None
#     Edge 49, Type (0, 0), None
#     Edge 50, Type (0, 0), None
#     Edge 51, Type (0, 0), None
#     Edge 52, Type (0, 0), None
#     Edge 53, Type (0, 0), None
#     Edge 54, Type (0, 0), None
#     Edge 55, Type (0, 0), None
#     Edge 56, Type (0, 0), None
#     Edge 57, Type (0, 0), None
#     Edge 58, Type (0, 0), None
#     Edge 59, Type (0, 0), None
#     Edge 60, Type (0, 0), None
#     Edge 61, Type (0, 0), None
#     Edge 62, Type (0, 0), None
#     Edge 63, Type (0, 0), None
#     Edge 64, Type (0, 0), None
#     Edge 65, Type (0, 0), None
#     Edge 66, Type (0, 0), None
#     Edge 67, Type (0, 0), None
#     Edge 68, Type (0, 0), None
#     Edge 69, Type (0, 0), None
#     Edge 70, Type (0, 0), None
#     Edge 71, Type (0, 0), None
#     Edge 72, Type (0, 0), None
#     Edge 73, Type (0, 0), None
#     Edge 74, Type (0, 0), None
#     Edge 75, Type (0, 0), None
#     Edge 76, Type (0, 0), None
#     Edge 77, Type (0, 0), None
#     Edge 78, Type (0, 0), None
#     Edge 79, Type (0, 0), None
#     Edge 80, Type (0, 0), None
#     Edge 81, Type (0, 0), None
#     Edge 82, Type (0, 0), None
#     Edge 83, Type (0, 0), None
#     Edge 84, Type (0, 0), None
#     Edge 85, Type (0, 0), None
#     Edge 86, Type (0, 0), None
#     Edge 87, Type (0, 0), None
#     Edge 88, Type (0, 0), None
#     Edge 89, Type (0, 0), None
#     Edge 90, Type (0, 0), None
#     Edge 91, Type (0, 0), None
#     Edge 92, Type (0, 0), None
#     Edge 93, Type (0, 0), None
#     Edge 94, Type (0, 0), None
#     Edge 95, Type (0, 0), None
#     Edge 96, Type (0, 0), None
#     Edge 97, Type (0, 0), None
#     Edge 98, Type (0, 0), None
#     Edge 99, Type (0, 0), None
#     Edge 100, Type (0, 0), None
#     Edge 101, Type (0, 0), None
#     Edge 102, Type (0, 0), None
#     Edge 103, Type (0, 0), None
#     Edge 104, Type (0, 0), None
#     Edge 105, Type (0, 0), None
#     Edge 106, Type (0, 0), None
#     Edge 107, Type (0, 0), None
#     Edge 108, Type (0, 0), None
#     Edge 109, Type (0, 0), None
#     Edge 110, Type (0, 0), None
#     Edge 111, Type (0, 0), None
# Relax obj value: 0.601
# Max RMSD: 0.257
# Mean RMSD: 0.257
data_MOF--net-yfs--node1-XOMCOT_clean_sbu_1--edge1-none
_symmetry_space_group_name_H-M    P1
_symmetry_Int_Tables_number       1
_symmetry_cell_setting            triclinic
loop_
_symmetry_equiv_pos_as_xyz
'x, y, z'
_cell_length_a     23.473271
_cell_length_b     23.265552
_cell_length_c     39.188702
_cell_angle_alpha  89.896497
_cell_angle_beta   90.08444
_cell_angle_gamma 89.968676
loop_
_atom_site_label
_atom_site_type_symbol
_atom_site_fract_x
_atom_site_fract_y
_atom_site_fract_z
_atom_type_partial_charge
C0 C 0.40987 0.01809 0.2413 0.0
C1 C 0.4547 0.02206 0.21893 0.0
N2 N 0.4455 0.06764 0.1986 0.0
N3 N 0.37206 0.06102 0.23522 0.0
C4 C 0.39358 0.08798 0.20731 0.0
H5 H 0.40967 -0.01004 0.26323 0.0
Co6 Co 0.32613 0.09508 0.26986 0.0
C7 C 0.31407 0.21893 0.23981 0.0
O8 O 0.33854 0.24725 0.2647 0.0
N9 N 0.28321 0.13055 0.30426 0.0
C10 C 0.21345 0.16039 0.33825 0.0
C11 C 0.22987 0.11894 0.31499 0.0
C12 C 0.29767 0.17933 0.32104 0.0
N13 N 0.25654 0.19836 0.3415 0.0
O14 O 0.33127 0.02334 0.29607 0.0
H15 H 0.20405 0.08378 0.3057 0.0
H16 H 0.33688 0.20251 0.31798 0.0
O17 O 0.31108 0.16384 0.24066 0.0
C18 C 0.31954 0.00239 0.32535 0.0
O19 O 0.30061 0.0353 0.35004 0.0
N20 N 0.3944 0.1252 0.2896 0.0
C21 C 0.46484 0.20281 0.32205 0.0
C22 C 0.45755 0.20473 0.28673 0.0
C23 C 0.42395 0.16449 0.2709 0.0
C24 C 0.40943 0.11626 0.32309 0.0
C25 C 0.44451 0.15547 0.34012 0.0
H26 H 0.41656 0.17091 0.24422 0.0
H27 H 0.39019 0.08317 0.33807 0.0
H28 H 0.37593 0.1271 0.1967 0.0
H29 H 0.49352 -0.00309 0.21984 0.0
H30 H 0.17208 0.16398 0.35015 0.0
H31 H 0.47551 0.23893 0.27142 0.0
H32 H 0.45292 0.15064 0.36716 0.0
C33 C 0.16085 0.17828 0.50878 0.0
C34 C 0.16253 0.2174 0.48259 0.0
N35 N 0.12767 0.19897 0.45772 0.0
N36 N 0.12449 0.135 0.50096 0.0
C37 C 0.10665 0.14798 0.46881 0.0
H38 H 0.18011 0.18534 0.53345 0.0
Co39 Co 0.08762 0.08964 0.53505 0.0
C40 C -0.03149 0.07448 0.49955 0.0
O41 O 0.93797 0.10247 0.52202 0.0
N42 N 0.04952 0.04753 0.56901 0.0
C43 C 0.01713 -0.0201 0.60412 0.0
C44 C 0.06074 -0.00476 0.58235 0.0
C45 C -0.00124 0.0623 0.58289 0.0
N46 N -0.02183 0.02247 0.60395 0.0
O47 O 0.1517 0.10233 0.56538 0.0
H48 H 0.09583 0.968 0.575 0.0
H49 H -0.02491 0.10063 0.57708 0.0
O50 O 0.02306 0.0707 0.50292 0.0
C51 C 0.1895 0.06882 0.57759 0.0
O52 O 0.18966 0.0141 0.56964 0.0
N53 N 0.05436 0.15746 0.55177 0.0
C54 C -0.01775 0.23924 0.5783 0.0
C55 C -0.01936 0.22517 0.54369 0.0
C56 C 0.01942 0.18717 0.53053 0.0
C57 C 0.06011 0.17394 0.58532 0.0
C58 C 0.0242 0.21567 0.59917 0.0
H59 H 0.0171 0.17778 0.5037 0.0
H60 H 0.08869 0.15163 0.60241 0.0
H61 H 0.07335 0.1247 0.45562 0.0
H62 H 0.18486 0.25814 0.48279 0.0
H63 H 0.01244 0.93883 0.61674 0.0
H64 H 0.94893 0.24342 0.52702 0.0
H65 H 0.02779 0.22774 0.62577 0.0
C66 C 0.02398 0.92407 0.75061 0.0
C67 C -0.01867 0.92677 0.72659 0.0
N68 N -0.00733 0.88785 0.70231 0.0
N69 N 0.0617 0.88217 0.74243 0.0
C70 C 0.04343 0.86423 0.71118 0.0
H71 H 0.0233 0.94799 0.77391 0.0
Co72 Co 0.10885 0.83881 0.77398 0.0
C73 C 0.09077 0.72175 0.73614 0.0
O74 O 0.04941 0.70006 0.75468 0.0
N75 N 0.15475 0.79574 0.80386 0.0
C76 C 0.20862 0.7691 0.84793 0.0
C77 C 0.19426 0.81401 0.82647 0.0
C78 C 0.14728 0.73941 0.81147 0.0
N79 N 0.17809 0.72272 0.83839 0.0
O80 O 0.1162 0.90601 0.80463 0.0
H81 H 0.20988 0.85763 0.8282 0.0
H82 H 0.11633 0.71188 0.79989 0.0
O83 O 0.11019 0.77223 0.74238 0.0
C84 C 0.08839 0.93536 0.82661 0.0
O85 O 0.03492 0.92329 0.83334 0.0
N86 N 0.04282 0.8118 0.79779 0.0
C87 C 0.95528 0.74942 0.82748 0.0
C88 C 0.95093 0.76922 0.79393 0.0
C89 C -0.00448 0.79821 0.77937 0.0
C90 C 0.04339 0.80097 0.83233 0.0
C91 C 0.00115 0.767 0.84745 0.0
H92 H -0.00669 0.80338 0.75236 0.0
H93 H 0.07873 0.81466 0.84801 0.0
H94 H 0.06187 0.8282 0.69772 0.0
H95 H 0.94314 0.9528 0.72804 0.0
H96 H 0.23919 0.77054 0.8686 0.0
H97 H 0.91563 0.75739 0.7777 0.0
H98 H 0.00519 0.75332 0.87377 0.0
C99 C 0.2643 0.77327 1.00041 0.0
C100 C 0.26276 0.72939 0.97676 0.0
N101 N 0.30006 0.74208 0.95184 0.0
N102 N 0.30362 0.8127 0.99082 0.0
C103 C 0.32206 0.79379 0.96008 0.0
H104 H 0.24235 0.77281 1.02456 0.0
Co105 Co 0.33954 0.87059 1.0173 0.0
C106 C 0.45512 0.84786 0.98072 0.0
O107 O 0.46905 0.79987 0.99605 0.0
N108 N 0.37485 0.92959 1.0413 0.0
C109 C 0.396 0.00215 1.07584 0.0
C110 C 0.35267 -0.02542 1.05848 0.0
C111 C 0.43145 0.93213 1.04732 0.0
N112 N 0.44504 -0.02554 1.06878 0.0
O113 O 0.27141 0.87795 1.04619 0.0
H114 H 0.30777 -0.01522 1.0598 0.0
H115 H 0.46137 0.89973 1.03936 0.0
O116 O 0.40696 0.87156 0.98685 0.0
C117 C 0.24934 0.85556 1.0729 0.0
O118 O 0.27262 0.81044 0.08742 0.0
N119 N 0.37293 0.81298 1.04821 0.0
C120 C 0.44941 0.74316 0.08323 0.0
C121 C 0.41744 0.72085 1.0562 0.0
C122 C 0.38226 0.75758 1.03778 0.0
C123 C 0.39099 0.82784 1.08046 0.0
C124 C 0.43268 0.79542 0.0973 0.0
H125 H 0.36931 0.74229 1.01321 0.0
H126 H 0.37782 0.86765 0.09212 0.0
H127 H 0.35508 0.81461 0.94538 0.0
H128 H 0.23869 0.68983 0.9788 0.0
H129 H 0.39121 0.03755 0.09347 0.0
H130 H 0.42886 0.67992 1.04486 0.0
H131 H 0.45501 0.8134 0.119 0.0
C132 C 0.42826 0.92372 0.40997 0.0
C133 C 0.4688 0.92499 0.43529 0.0
N134 N 0.44831 0.89596 0.46223 0.0
N135 N 0.38299 0.89203 0.42033 0.0
C136 C 0.39538 0.87831 0.45314 0.0
H137 H 0.43521 0.93815 0.38406 0.0
Co138 Co 0.33645 0.8519 0.38865 0.0
C139 C 0.33647 0.73078 0.42375 0.0
O140 O 0.36591 0.70225 0.401 0.0
N141 N 0.2923 0.81062 0.35691 0.0
C142 C 0.22198 0.77507 0.32518 0.0
C143 C 0.2391 0.82075 0.34531 0.0
C144 C 0.30589 0.75846 0.34381 0.0
N145 N 0.26445 0.73599 0.3248 0.0
O146 O 0.33623 0.92101 0.36024 0.0
H147 H 0.21385 0.85803 0.35186 0.0
H148 H 0.34536 0.73627 0.34774 0.0
O149 O 0.32785 0.78509 0.42047 0.0
C150 C 0.32279 0.94005 0.33076 0.0
O151 O 0.30439 0.90536 0.30679 0.0
N152 N 0.40389 0.82307 0.36817 0.0
C153 C 0.47591 0.74276 0.34054 0.0
C154 C 0.47381 0.75081 0.37579 0.0
C155 C 0.4393 0.79285 0.38905 0.0
C156 C 0.41355 0.82339 0.33365 0.0
C157 C 0.4494 0.78226 0.319 0.0
H158 H 0.43499 0.79429 0.41637 0.0
H159 H 0.38844 0.84942 0.31683 0.0
H160 H 0.37019 0.84867 0.46817 0.0
H161 H 0.51126 0.94289 0.43332 0.0
H162 H 0.18078 0.77018 0.31324 0.0
H163 H 0.49394 0.72103 0.39325 0.0
H164 H 0.45264 0.77853 0.29153 0.0
C165 C 0.25209 0.15961 0.67275 0.0
C166 C 0.25364 0.20214 0.69716 0.0
N167 N 0.29666 0.19028 0.71871 0.0
N168 N 0.29553 0.12225 0.67806 0.0
C169 C 0.31897 0.14027 0.70786 0.0
H170 H 0.22296 0.15909 0.65161 0.0
Co171 Co 0.33139 0.06845 0.64829 0.0
C172 C 0.44924 0.09227 0.68115 0.0
O173 O 0.46008 0.14101 0.66584 0.0
N174 N 0.36766 0.01373 0.62189 0.0
C175 C 0.394 0.93615 0.59297 0.0
C176 C 0.34923 0.96299 0.60943 0.0
C177 C 0.42335 0.0163 0.61345 0.0
N178 N 0.43986 0.97068 0.59565 0.0
O179 O 0.26269 0.0615 0.61964 0.0
H180 H 0.30633 0.9467 0.61218 0.0
H181 H 0.45113 0.05203 0.61899 0.0
O182 O 0.40113 0.06736 0.6768 0.0
C183 C 0.23612 0.09298 0.59802 0.0
O184 O 0.25134 0.14657 0.59275 0.0
N185 N 0.359 0.12952 0.61861 0.0
C186 C 0.43051 0.20147 0.58277 0.0
C187 C 0.40242 0.22184 0.6118 0.0
C188 C 0.3686 0.18409 0.63023 0.0
C189 C 0.37128 0.11797 0.58498 0.0
C190 C 0.41096 0.15139 0.5674 0.0
H191 H 0.3573 0.19736 0.6555 0.0
H192 H 0.35637 0.07905 0.57292 0.0
H193 H 0.35535 0.12045 0.71997 0.0
H194 H 0.22677 0.23996 0.69813 0.0
H195 H 0.3926 0.89542 0.57972 0.0
H196 H 0.41557 0.26168 0.62381 0.0
H197 H 0.42996 0.13551 0.54408 0.0
C198 C -0.00074 0.02056 0.91071 0.0
C199 C 0.96088 0.01776 0.93699 0.0
N200 N -0.01494 0.04179 0.96454 0.0
N201 N 0.04709 0.048 0.92122 0.0
C202 C 0.03791 0.0583 0.95476 0.0
H203 H -0.01044 0.00965 0.88454 0.0
Co204 Co 0.09685 0.08531 0.89045 0.0
C205 C 0.10796 0.20515 0.92598 0.0
O206 O 0.08492 0.23428 0.90089 0.0
N207 N 0.14498 0.12397 0.85941 0.0
C208 C 0.22204 0.15771 0.83307 0.0
C209 C 0.20003 0.11289 0.85211 0.0
C210 C 0.13511 0.1759 0.84465 0.0
N211 N 0.18064 0.19724 0.82884 0.0
O212 O 0.08554 0.02112 0.85921 0.0
H213 H 0.22396 0.07691 0.8621 0.0
H214 H 0.09617 0.19996 0.84619 0.0
O215 O 0.112 0.14983 0.92432 0.0
C216 C 0.11631 -0.01704 0.84498 0.0
O217 O 0.1718 -0.01667 0.84891 0.0
N218 N 0.03328 0.1214 0.87081 0.0
C219 C 0.96528 0.20328 0.84141 0.0
C220 C 0.96797 0.19786 0.87694 0.0
C221 C 0.00015 0.15464 0.89118 0.0
C222 C 0.02327 0.11932 0.83629 0.0
C223 C -0.01081 0.16101 0.82079 0.0
H224 H 0.0041 0.15306 0.9186 0.0
H225 H 0.04729 0.09081 0.82002 0.0
H226 H 0.06595 0.08427 0.97036 0.0
H227 H 0.9174 0.00241 0.93542 0.0
H228 H 0.26578 0.16206 0.82506 0.0
H229 H 0.94838 0.22908 0.89364 0.0
H230 H -0.01499 0.16263 0.79328 0.0
C231 C 0.18091 0.76602 0.16421 0.0
C232 C 0.18236 0.72488 0.18945 0.0
N233 N 0.14699 0.74159 0.21456 0.0
N234 N 0.14392 0.80796 0.17321 0.0
C235 C 0.12635 0.79315 0.2049 0.0
H236 H 0.20049 0.76188 0.1394 0.0
Co237 Co 0.10882 0.86197 0.14432 0.0
C238 C -0.00907 0.85048 0.17889 0.0
O239 O -0.02765 0.80912 0.15935 0.0
N240 N 0.07275 0.91765 0.11788 0.0
C241 C 0.04117 0.00293 0.10026 0.0
C242 C 0.08687 -0.02645 0.11415 0.0
C243 C 0.01786 0.91466 0.10748 0.0
N244 N -0.00175 0.96509 0.09626 0.0
O245 O 0.17566 0.85804 0.11442 0.0
H246 H 0.12669 -0.00782 0.12255 0.0
H247 H -0.00856 0.87693 0.10963 0.0
O248 O 0.04204 0.86911 0.17547 0.0
C249 C 0.19616 0.87937 0.087 0.0
O250 O 0.16899 0.92004 1.07041 0.0
N251 N 0.07653 0.80087 0.11705 0.0
C252 C 0.00522 0.7285 1.08134 0.0
C253 C 0.02909 0.71026 0.11232 0.0
C254 C 0.06158 0.749 0.13084 0.0
C255 C 0.06878 0.80886 0.08258 0.0
C256 C 0.02928 0.77549 1.06478 0.0
H257 H 0.06822 0.7393 0.15737 0.0
H258 H 0.08577 0.84616 1.06983 0.0
H259 H 0.09414 0.81622 0.21906 0.0
H260 H 0.20439 0.68401 0.18828 0.0
H261 H 0.03939 0.04841 0.09456 0.0
H262 H 0.01259 0.67263 0.12535 0.0
H263 H 0.01344 0.7898 1.04022 0.0
C264 C 0.5259 0.92265 0.91529 0.0
C265 C 0.48218 0.91871 0.93855 0.0
N266 N 0.4928 0.87363 0.95905 0.0
N267 N 0.56458 0.88042 0.92107 0.0
C268 C 0.54478 0.85405 0.94968 0.0
H269 H 0.52458 0.94986 0.89296 0.0
Co270 Co 0.6083 0.84518 0.88547 0.0
C271 C 0.62081 0.7224 0.91832 0.0
O272 O 0.59074 0.6917 0.89682 0.0
N273 N 0.64839 0.80818 0.85034 0.0
C274 C 0.71183 0.778 0.81237 0.0
C275 C 0.69798 0.82137 0.83497 0.0
C276 C 0.63388 0.75647 0.837 0.0
N277 N 0.67155 0.73671 0.81441 0.0
O278 O 0.60351 0.91721 0.85902 0.0
H279 H 0.72279 0.85953 0.84019 0.0
H280 H 0.59643 0.73251 0.84352 0.0
O281 O 0.62469 0.77709 0.91474 0.0
C282 C 0.61335 0.93882 0.82958 0.0
O283 O 0.62717 0.90599 0.80367 0.0
N284 N 0.53878 0.81533 0.86732 0.0
C285 C 0.46455 0.73741 0.83826 0.0
C286 C 0.47329 0.73827 0.87342 0.0
C287 C 0.50919 0.77818 0.88747 0.0
C288 C 0.52324 0.82151 0.83371 0.0
C289 C 0.48624 0.78198 0.81834 0.0
H290 H 0.51827 0.77262 0.91398 0.0
H291 H 0.54351 0.85241 0.81758 0.0
H292 H 0.56348 0.81544 0.96031 0.0
H293 H 0.4429 0.94315 0.93799 0.0
H294 H 0.74938 0.77691 0.79665 0.0
H295 H 0.45563 0.70554 0.8899 0.0
H296 H 0.47749 0.78425 0.79123 0.0
C297 C 0.75701 0.79513 0.67802 0.0
C298 C 0.75942 0.74468 0.69649 0.0
N299 N 0.81421 0.73436 0.70471 0.0
N300 N 0.81023 0.81597 0.67363 0.0
C301 C 0.84401 0.77788 0.69048 0.0
H302 H 0.71862 0.81494 0.66826 0.0
Co303 Co 0.83163 0.88426 0.65009 0.0
C304 C 0.95643 0.86988 0.67725 0.0
O305 O -0.02475 0.83533 0.65352 0.0
N306 N 0.85292 0.95492 0.62934 0.0
C307 C 0.87861 0.01518 0.58808 0.0
C308 C 0.83695 -0.02196 0.59911 0.0
C309 C 0.90104 -0.01594 0.63756 0.0
N310 N 0.91998 0.01666 0.61185 0.0
O311 O 0.75737 0.88458 0.62441 0.0
H312 H 0.80175 0.96413 0.58365 0.0
H313 H 0.92704 -0.02359 0.6597 0.0
O314 O 0.90399 0.88612 0.67727 0.0
C315 C 0.74092 0.87315 0.59379 0.0
O316 O 0.77802 0.8598 0.57008 0.0
N317 N 0.86631 0.8401 0.61398 0.0
C318 C 0.93152 0.76509 0.57642 0.0
C319 C 0.87661 0.74881 0.58622 0.0
C320 C 0.84567 0.78639 0.60661 0.0
C321 C 0.91144 0.86025 0.5953 0.0
C322 C 0.94445 0.82333 0.57572 0.0
H323 H 0.80625 0.77108 0.61734 0.0
H324 H 0.92735 0.90267 0.59826 0.0
H325 H 0.88974 0.78131 0.69223 0.0
H326 H 0.72347 0.71806 0.70338 0.0
H327 H 0.88218 0.03225 0.56251 0.0
H328 H 0.86368 0.70413 0.58511 0.0
H329 H -0.01439 0.83804 0.56673 0.0
C330 C 0.92687 0.01848 0.41995 0.0
C331 C 0.96531 0.02132 0.44648 0.0
N332 N 0.94208 0.05347 0.47127 0.0
N333 N 0.87993 0.04982 0.42762 0.0
C334 C 0.88951 0.06816 0.4599 0.0
H335 H 0.93619 0.00119 0.39498 0.0
Co336 Co 0.83346 0.08499 0.39389 0.0
C337 C 0.82443 0.20902 0.42447 0.0
O338 O 0.84903 0.23657 0.39931 0.0
N339 N 0.78912 0.12182 0.36028 0.0
C340 C 0.71506 0.15614 0.3312 0.0
C341 C 0.73431 0.11191 0.35184 0.0
C342 C 0.80187 0.17202 0.34435 0.0
N343 N 0.75795 0.19407 0.3271 0.0
O344 O 0.83827 0.01358 0.36706 0.0
H345 H 0.70911 0.07666 0.36164 0.0
H346 H 0.84169 0.19446 0.34623 0.0
O347 O 0.82017 0.15388 0.42391 0.0
C348 C 0.82538 -0.00578 0.33752 0.0
O349 O 0.80496 0.02845 0.31381 0.0
N350 N 0.90067 0.11535 0.37399 0.0
C351 C -0.02905 0.19505 0.34394 0.0
C352 C 0.96488 0.19324 0.37937 0.0
C353 C 0.93192 0.15111 0.39403 0.0
C354 C 0.91409 0.10993 0.34007 0.0
C355 C 0.9494 0.15027 0.32424 0.0
H356 H 0.92582 0.15283 0.42123 0.0
H357 H 0.89302 0.07935 0.3241 0.0
H358 H 0.86214 0.09849 0.47289 0.0
H359 H 0.00842 0.00471 0.44646 0.0
H360 H 0.67205 0.16139 0.32191 0.0
H361 H -0.01758 0.2264 0.39559 0.0
H362 H 0.95637 0.14883 0.29694 0.0
C363 C 0.68237 0.1596 0.1714 0.0
C364 C 0.68176 0.20166 0.19606 0.0
N365 N 0.63932 0.18976 0.21794 0.0
N366 N 0.63925 0.12212 0.17707 0.0
C367 C 0.61652 0.13981 0.20712 0.0
H368 H 0.70943 0.16033 0.14931 0.0
Co369 Co 0.60297 0.07122 0.14576 0.0
C370 C 0.4843 0.09294 0.17761 0.0
O371 O 0.47073 0.13971 0.16088 0.0
N372 N 0.56681 0.01932 0.11703 0.0
C373 C 0.54576 0.94973 1.0804 0.0
C374 C 0.58811 -0.02669 0.10043 0.0
C375 C 0.51149 0.02189 0.1076 0.0
N376 N 0.49812 -0.01886 0.08503 0.0
O377 O 0.67253 0.0637 0.11867 0.0
H378 H 0.63178 0.95872 0.10216 0.0
H379 H 0.48254 0.05551 0.11503 0.0
O380 O 0.53325 0.06984 0.17349 0.0
C381 C 0.70081 0.09166 0.09635 0.0
O382 O 0.68625 0.1443 0.08789 0.0
N383 N 0.57709 0.13557 0.11752 0.0
C384 C 0.51107 0.21554 0.08273 0.0
C385 C 0.53773 0.2306 0.11333 0.0
C386 C 0.56778 0.18889 0.13118 0.0
C387 C 0.56499 0.12778 0.08347 0.0
C388 C 0.52838 0.16548 1.06628 0.0
H389 H 0.57672 0.19865 0.1573 0.0
H390 H 0.57846 0.08944 1.07025 0.0
H391 H 0.57959 0.12053 0.21891 0.0
H392 H 0.70824 0.23976 0.19665 0.0
H393 H 0.5501 0.91321 1.06356 0.0
H394 H 0.52567 0.26962 0.12662 0.0
H395 H 0.50997 0.15312 1.04202 0.0
C396 C 0.53004 0.01687 0.74199 0.0
C397 C 0.48369 0.0203 0.72059 0.0
N398 N 0.49 0.06719 0.70099 0.0
N399 N 0.56595 0.06146 0.736 0.0
C400 C 0.54181 0.08876 0.70895 0.0
H401 H 0.53265 -0.01255 0.76326 0.0
Co402 Co 0.61263 0.09629 0.77031 0.0
C403 C 0.62426 0.22005 0.73852 0.0
O404 O 0.59909 0.24942 0.7627 0.0
N405 N 0.65594 0.13268 0.80453 0.0
C406 C 0.72486 0.16393 0.83892 0.0
C407 C 0.7087 0.12108 0.81639 0.0
C408 C 0.64153 0.18271 0.82005 0.0
N409 N 0.68204 0.20249 0.84078 0.0
O410 O 0.60769 0.02478 0.79694 0.0
H411 H 0.73448 0.08508 0.80826 0.0
H412 H 0.60253 0.20591 0.81613 0.0
O413 O 0.62739 0.16493 0.74036 0.0
C414 C 0.61823 0.00159 0.82583 0.0
O415 O 0.63876 0.0322 0.85113 0.0
N416 N 0.54496 0.12641 0.79036 0.0
C417 C 0.47497 0.20331 0.82355 0.0
C418 C 0.48091 0.20521 0.78814 0.0
C419 C 0.51472 0.16565 0.77199 0.0
C420 C 0.53147 0.11764 0.82408 0.0
C421 C 0.49667 0.15649 0.84148 0.0
H422 H 0.52158 0.17262 0.74535 0.0
H423 H 0.55204 0.08528 0.839 0.0
H424 H 0.55776 0.12863 0.6984 0.0
H425 H 0.44589 -0.0063 0.72177 0.0
H426 H 0.76591 0.16799 0.85123 0.0
H427 H 0.46206 0.23915 0.77305 0.0
H428 H 0.4896 0.15187 0.86865 0.0
C429 C 0.66282 0.76739 0.50592 0.0
C430 C 0.66358 0.72413 0.4821 0.0
N431 N 0.63319 0.74153 0.45489 0.0
N432 N 0.63148 0.81214 0.49416 0.0
C433 C 0.61565 0.79565 0.46228 0.0
H434 H 0.67895 0.76336 0.53166 0.0
Co435 Co 0.59762 0.86738 0.52364 0.0
C436 C 0.47752 0.88068 0.49082 0.0
O437 O 0.44893 0.86238 0.51744 0.0
N438 N 0.56341 0.92043 0.55211 0.0
C439 C 0.53 0.00431 0.57044 0.0
C440 C 0.57286 -0.02233 0.55225 0.0
C441 C 0.51515 0.9133 0.57031 0.0
N442 N 0.49399 0.96309 0.58116 0.0
O443 O 0.66465 0.86186 0.55421 0.0
H444 H 0.60639 -0.00121 0.53808 0.0
H445 H 0.49269 0.87341 0.57364 0.0
O446 O 0.53252 0.88101 0.49103 0.0
C447 C 0.68114 0.88132 0.58323 0.0
O448 O 0.6466 0.91153 0.60248 0.0
N449 N 0.56057 0.80525 0.54611 0.0
C450 C 0.48547 0.72815 0.57544 0.0
C451 C 0.48511 0.73822 0.54043 0.0
C452 C 0.52535 0.77335 0.52609 0.0
C453 C 0.56506 0.7926 0.58028 0.0
C454 C 0.52763 0.75331 0.5956 0.0
H455 H 0.5244 0.77824 0.49881 0.0
H456 H 0.59447 0.81516 0.59642 0.0
H457 H 0.58625 0.81983 0.4465 0.0
H458 H 0.6823 0.68191 0.48537 0.0
H459 H 0.52364 0.05013 0.57336 0.0
H460 H 0.45354 0.71877 0.52414 0.0
H461 H 0.5306 0.744 0.62263 0.0
C462 C 0.92493 0.91627 0.24932 0.0
C463 C -0.03137 0.91376 0.22597 0.0
N464 N 0.95538 0.87359 0.20273 0.0
N465 N 0.8838 0.87783 0.24099 0.0
C466 C 0.90252 0.85497 0.21115 0.0
H467 H 0.92736 0.93935 0.27317 0.0
Co468 Co 0.83546 0.8421 0.27414 0.0
C469 C 0.82531 0.7197 0.24152 0.0
O470 O 0.85194 0.69024 0.26523 0.0
N471 N 0.79022 0.80485 0.30691 0.0
C472 C 0.71797 0.77316 0.33845 0.0
C473 C 0.73644 0.81643 0.31688 0.0
C474 C 0.80283 0.75415 0.32232 0.0
N475 N 0.76025 0.73422 0.34143 0.0
O476 O 0.83941 0.9128 0.30184 0.0
H477 H 0.71169 0.8528 0.30809 0.0
H478 H 0.84187 0.73058 0.31934 0.0
O479 O 0.82142 0.7747 0.24358 0.0
C480 C 0.82609 0.93188 0.33137 0.0
O481 O 0.80598 0.89736 0.35498 0.0
N482 N 0.90213 0.81048 0.2946 0.0
C483 C -0.02483 0.7327 0.32479 0.0
C484 C -0.03015 0.73529 0.28939 0.0
C485 C 0.93428 0.77516 0.27478 0.0
C486 C 0.91464 0.81537 0.32872 0.0
C487 C 0.95085 0.77575 0.34466 0.0
H488 H 0.92789 0.77172 0.24779 0.0
H489 H 0.89242 0.84504 0.34469 0.0
H490 H 0.88194 0.81912 0.19862 0.0
H491 H 0.00915 0.9358 0.22784 0.0
H492 H 0.67587 0.76914 0.34934 0.0
H493 H -0.00976 0.70414 0.27307 0.0
H494 H 0.95705 0.77675 0.37204 0.0
C495 C 0.78253 0.18168 1.00888 0.0
C496 C 0.78116 0.22267 0.98375 0.0
N497 N 0.80969 0.2023 0.95665 0.0
N498 N 0.81202 0.13517 0.99796 0.0
C499 C 0.82687 0.1487 0.96546 0.0
H500 H 0.76743 0.1883 1.0346 0.0
Co501 Co 0.84225 0.07853 1.02771 0.0
C502 C 0.95834 0.05524 0.99414 0.0
O503 O -0.01106 0.06948 1.02088 0.0
N504 N 0.87347 0.0231 1.05676 0.0
C505 C 0.90682 0.93649 1.07058 0.0
C506 C 0.86427 0.96606 1.05371 0.0
C507 C 0.92159 0.02704 1.07568 0.0
N508 N 0.94286 -0.02448 0.08384 0.0
O509 O 0.77963 0.09338 1.05876 0.0
H510 H 0.83195 0.94726 1.0375 0.0
H511 H 0.94513 0.06596 1.08006 0.0
O512 O 0.90367 0.05918 0.99481 0.0
C513 C 0.74858 0.06372 1.07872 0.0
O514 O 0.7569 0.00824 1.08208 0.0
N515 N 0.88475 0.13737 1.04897 0.0
C516 C 0.95846 0.21538 1.07853 0.0
C517 C 0.96163 0.2029 1.04375 0.0
C518 C 0.92209 0.16708 1.02917 0.0
C519 C 0.87899 0.15101 0.08291 0.0
C520 C 0.91552 0.19081 0.09825 0.0
H521 H 0.92349 0.16152 1.00191 0.0
H522 H 0.84839 0.12913 0.09882 0.0
H523 H 0.85442 0.12234 0.94982 0.0
H524 H 0.76323 0.26542 0.98595 0.0
H525 H 0.91352 0.89047 1.07028 0.0
H526 H -0.00677 0.22297 1.02761 0.0
H527 H 0.91057 0.20189 0.12491 0.0
C528 C 0.91905 0.52502 0.75098 0.0
C529 C 0.95875 0.5254 0.72494 0.0
N530 N 0.9364 0.55494 0.69868 0.0
N531 N 0.87344 0.55765 0.74211 0.0
C532 C 0.8839 0.57067 0.709 0.0
H533 H 0.92343 0.50112 0.77446 0.0
Co534 Co 0.80663 0.58319 0.7659 0.0
C535 C 0.83513 0.69053 0.72428 0.0
O536 O 0.88958 0.68875 0.73204 0.0
N537 N 0.73625 0.60827 0.78705 0.0
C538 C 0.67599 0.63456 0.82812 0.0
C539 C 0.7108 0.59128 0.81632 0.0
C540 C 0.70936 0.65874 0.77968 0.0
N541 N 0.67744 0.6781 0.80554 0.0
O542 O 0.81046 0.51338 0.79515 0.0
H543 H 0.71952 0.55231 0.8301 0.0
H544 H 0.72016 0.68661 0.75882 0.0
O545 O 0.80182 0.65106 0.73525 0.0
C546 C 0.81594 0.50088 0.82693 0.0
O547 O 0.81862 0.54163 0.85003 0.0
N548 N 0.85104 0.62716 0.79905 0.0
C549 C 0.91542 0.704 0.8375 0.0
C550 C 0.93416 0.64734 0.8332 0.0
C551 C 0.90027 0.60896 0.81455 0.0
C552 C 0.83115 0.68047 0.80734 0.0
C553 C 0.85885 0.71617 0.83019 0.0
H554 H 0.91541 0.56592 0.81184 0.0
H555 H 0.79845 0.69992 0.7931 0.0
H556 H 0.85398 0.59297 0.69268 0.0
H557 H 0.00028 0.5051 0.72519 0.0
H558 H 0.65703 0.63648 0.85321 0.0
H559 H -0.0227 0.63514 0.83994 0.0
H560 H 0.84306 0.75973 0.83309 0.0
C561 C 0.677 0.6812 0.99811 0.0
C562 C 0.67587 0.71919 0.97094 0.0
N563 N 0.6427 0.69627 0.94644 0.0
N564 N 0.64227 0.63625 0.99104 0.0
C565 C 0.62644 0.64454 0.95833 0.0
H566 H 0.69518 0.68996 1.02293 0.0
Co567 Co 0.60653 0.58415 1.02104 0.0
C568 C 0.49855 0.6075 0.97567 0.0
O569 O 0.49929 0.66385 0.97712 0.0
N570 N 0.57064 0.52949 1.04845 0.0
C571 C 0.5453 0.45104 1.0772 0.0
C572 C 0.58861 0.47738 1.0592 0.0
C573 C 0.51511 0.53175 1.0576 0.0
N574 N 0.49963 0.48608 1.07619 0.0
O575 O 0.67538 0.58734 1.04974 0.0
H576 H 0.63034 0.45961 1.05415 0.0
H577 H 0.48685 0.56701 1.05135 0.0
O578 O 0.53723 0.57835 0.99114 0.0
C579 C 0.69713 0.56976 1.07785 0.0
O580 O 0.66852 0.53592 0.0984 0.0
N581 N 0.57567 0.64675 1.04865 0.0
C582 C 0.50948 0.72548 0.08377 0.0
C583 C 0.53995 0.74282 1.05504 0.0
C584 C 0.56664 0.70074 1.03573 0.0
C585 C 0.56376 0.63807 0.08266 0.0
C586 C 0.52561 0.67435 0.09964 0.0
H587 H 0.57599 0.71184 1.00979 0.0
H588 H 0.57721 0.59955 0.09568 0.0
H589 H 0.59849 0.61589 0.94454 0.0
H590 H 0.69423 0.76187 0.97036 0.0
H591 H 0.54693 0.4092 0.08927 0.0
H592 H 0.53208 0.78445 1.04372 0.0
H593 H 0.50533 0.66024 0.123 0.0
C594 C 0.54795 0.42306 0.2352 0.0
C595 C 0.50123 0.41913 0.21359 0.0
N596 N 0.4894 0.3631 0.20861 0.0
N597 N 0.56528 0.36979 0.24436 0.0
C598 C 0.52854 0.33448 0.2275 0.0
H599 H 0.5683 0.46243 0.24334 0.0
Co600 Co 0.63 0.34753 0.27185 0.0
C601 C 0.61821 0.22485 0.2426 0.0
O602 O 0.5795 0.20555 0.26377 0.0
N603 N 0.69737 0.32305 0.29643 0.0
C604 C 0.75182 0.29626 0.34049 0.0
C605 C 0.71938 0.34007 0.32675 0.0
C606 C 0.72348 0.2715 0.29093 0.0
N607 N 0.75258 0.25261 0.31811 0.0
O608 O 0.62635 0.42193 0.29771 0.0
H609 H 0.70913 0.37911 0.33996 0.0
H610 H 0.71648 0.2437 0.26954 0.0
O611 O 0.63541 0.27698 0.2445 0.0
C612 C 0.61724 0.43717 0.32881 0.0
O613 O 0.6085 0.39832 0.35259 0.0
N614 N 0.58082 0.31305 0.30548 0.0
C615 C 0.49938 0.24805 0.33751 0.0
C616 C 0.48612 0.30438 0.32765 0.0
C617 C 0.52769 0.33587 0.31053 0.0
C618 C 0.59663 0.26682 0.32504 0.0
C619 C 0.5563 0.23385 0.34197 0.0
H620 H 0.51568 0.37655 0.29937 0.0
H621 H 0.63863 0.25039 0.32507 0.0
H622 H 0.52987 0.28832 0.22894 0.0
H623 H 0.47859 0.4547 0.20195 0.0
H624 H 0.76759 0.29418 0.36641 0.0
H625 H 0.44217 0.31843 0.32609 0.0
H626 H 0.56853 0.1919 0.35161 0.0
C627 C 0.77616 0.2659 0.5026 0.0
C628 C 0.77955 0.22075 0.4799 0.0
N629 N 0.80732 0.23956 0.45217 0.0
N630 N 0.80484 0.31203 0.4902 0.0
C631 C 0.8186 0.29552 0.45816 0.0
H632 H 0.75277 0.26453 0.5262 0.0
Co633 Co 0.82713 0.38354 0.51058 0.0
C634 C 0.93473 0.35428 0.46885 0.0
O635 O 0.93374 0.29969 0.47718 0.0
N636 N 0.84969 0.45693 0.52939 0.0
C637 C 0.87224 0.51987 0.57011 0.0
C638 C 0.82989 0.48519 0.55706 0.0
C639 C 0.9014 0.48181 0.52397 0.0
N640 N 0.91821 0.5154 0.54984 0.0
O641 O 0.75662 0.38054 0.53904 0.0
H642 H 0.78937 0.47821 0.56908 0.0
H643 H 0.93093 0.4693 0.50442 0.0
O644 O 0.89517 0.38775 0.47956 0.0
C645 C 0.73913 0.37907 0.57012 0.0
O646 O 0.77529 0.38322 0.59562 0.0
N647 N 0.87098 0.34467 0.54594 0.0
C648 C 0.94431 0.28525 0.58903 0.0
C649 C 0.88636 0.27169 0.58868 0.0
C650 C 0.85027 0.30217 0.56679 0.0
C651 C 0.92596 0.36201 0.55083 0.0
C652 C 0.96086 0.33773 0.57548 0.0
H653 H 0.80672 0.28906 0.56603 0.0
H654 H 0.94625 0.3896 0.53326 0.0
H655 H 0.83878 0.32349 0.43973 0.0
H656 H 0.76255 0.17788 0.48339 0.0
H657 H 0.87148 0.54079 0.59473 0.0
H658 H 0.8712 0.23234 0.60038 0.0
H659 H 0.00553 0.34973 0.5756 0.0
C660 C 0.89495 0.43335 0.92756 0.0
C661 C 0.9439 0.43073 0.94735 0.0
N662 N 0.95488 0.37511 0.95435 0.0
N663 N 0.87578 0.37952 0.92145 0.0
C664 C 0.91342 0.34532 0.93832 0.0
H665 H 0.87471 0.47215 0.91834 0.0
Co666 Co 0.80974 0.35478 0.89675 0.0
C667 C 0.82271 0.23256 0.92798 0.0
O668 O 0.84699 0.2068 0.90209 0.0
N669 N 0.74076 0.32882 0.87507 0.0
C670 C 0.67919 0.3067 0.83371 0.0
C671 C 0.71218 0.34972 0.8477 0.0
C672 C 0.71815 0.27541 0.8793 0.0
N673 N 0.68517 0.25938 0.85314 0.0
O674 O 0.8103 0.42712 0.86958 0.0
H675 H 0.71824 0.39143 0.83637 0.0
H676 H 0.73103 0.24458 0.89803 0.0
O677 O 0.8088 0.28579 0.92597 0.0
C678 C 0.81701 0.44023 0.83797 0.0
O679 O 0.82236 0.39985 0.81484 0.0
N680 N 0.85672 0.31914 0.86192 0.0
C681 C 0.9338 0.25198 0.8277 0.0
C682 C 0.95071 0.3061 0.83933 0.0
C683 C 0.91097 0.33926 0.8568 0.0
C684 C 0.83806 0.27598 0.84083 0.0
C685 C 0.8762 0.24198 0.82295 0.0
H686 H 0.92539 0.37904 0.86785 0.0
H687 H 0.79487 0.26357 0.83879 0.0
H688 H 0.91156 0.29901 0.93847 0.0
H689 H -0.03146 0.46693 0.95645 0.0
H690 H 0.6585 0.30816 0.80906 0.0
H691 H -0.00454 0.31719 0.84111 0.0
H692 H 0.86131 0.20218 0.81168 0.0
C693 C 0.77405 0.67263 0.16166 0.0
C694 C 0.77357 0.71234 0.18786 0.0
N695 N 0.80618 0.69164 0.21333 0.0
N696 N 0.80944 0.62875 0.17007 0.0
C697 C 0.82397 0.6395 0.20281 0.0
H698 H 0.75647 0.6799 0.13657 0.0
Co699 Co 0.84922 0.57664 0.14136 0.0
C700 C 0.95437 0.60783 0.18833 0.0
O701 O 0.951 0.6642 0.18867 0.0
N702 N 0.88956 0.52378 0.11447 0.0
C703 C 0.9152 0.46983 1.07035 0.0
C704 C 0.87049 0.48539 0.09131 0.0
C705 C 0.94639 0.52793 0.10854 0.0
N706 N 0.96238 0.49752 1.08119 0.0
O707 O 0.77964 0.56751 0.11347 0.0
H708 H 0.82628 0.47386 0.08768 0.0
H709 H -0.02576 0.55829 0.12107 0.0
O710 O 0.91771 0.57867 0.17143 0.0
C711 C 0.75312 0.59174 0.08874 0.0
O712 O 0.773 0.63871 1.07455 0.0
N713 N 0.87625 0.63876 0.11187 0.0
C714 C 0.94478 0.71463 1.07666 0.0
C715 C 0.91009 0.73472 0.10299 0.0
C716 C 0.88354 0.69378 0.12335 0.0
C717 C 0.89113 0.6276 1.0785 0.0
C718 C 0.93017 0.66271 1.06161 0.0
H719 H 0.8735 0.70632 0.14897 0.0
H720 H 0.8782 0.58879 1.06582 0.0
H721 H 0.85218 0.61238 0.21757 0.0
H722 H 0.75407 0.75452 0.18725 0.0
H723 H 0.91216 0.44281 1.04803 0.0
H724 H 0.9161 0.77751 0.11285 0.0
H725 H 0.95272 0.64683 1.03945 0.0
C726 C 0.54329 0.50759 0.42849 0.0
C727 C 0.49528 0.50985 0.44898 0.0
N728 N 0.48506 0.56525 0.4567 0.0
N729 N 0.56268 0.56145 0.4226 0.0
C730 C 0.52618 0.59537 0.44042 0.0
H731 H 0.5628 0.4689 0.41868 0.0
Co732 Co 0.62861 0.58524 0.39736 0.0
C733 C 0.61874 0.70882 0.42737 0.0
O734 O 0.59487 0.73307 0.4008 0.0
N735 N 0.69771 0.60945 0.37524 0.0
C736 C 0.75946 0.63025 0.33373 0.0
C737 C 0.72518 0.58811 0.34765 0.0
C738 C 0.72208 0.66198 0.37957 0.0
N739 N 0.75543 0.67725 0.35346 0.0
O740 O 0.62577 0.51268 0.37017 0.0
H741 H 0.71752 0.54688 0.33613 0.0
H742 H 0.71075 0.6928 0.39857 0.0
O743 O 0.63174 0.65512 0.4267 0.0
C744 C 0.61847 0.49851 0.33874 0.0
O745 O 0.61361 0.53816 0.31503 0.0
N746 N 0.58173 0.62205 0.36255 0.0
C747 C 0.5064 0.69228 0.32835 0.0
C748 C 0.48756 0.63932 0.34095 0.0
C749 C 0.5264 0.60457 0.35828 0.0
C750 C 0.60153 0.66394 0.34084 0.0
C751 C 0.56431 0.69983 0.32334 0.0
H752 H 0.51051 0.56582 0.36992 0.0
H753 H 0.64523 0.67425 0.33824 0.0
H754 H 0.52875 0.64168 0.44107 0.0
H755 H 0.47067 0.47353 0.45799 0.0
H756 H 0.77978 0.6287 0.30898 0.0
H757 H 0.44244 0.63028 0.34325 0.0
H758 H 0.58058 0.73877 0.31166 0.0
C759 C 0.66882 0.26786 0.65722 0.0
C760 C 0.67202 0.22813 0.68351 0.0
N761 N 0.64103 0.24827 0.70979 0.0
N762 N 0.6332 0.31092 0.66648 0.0
C763 C 0.6213 0.29997 0.69956 0.0
H764 H 0.68461 0.26138 0.63159 0.0
Co765 Co 0.59165 0.36236 0.63828 0.0
C766 C 0.48931 0.33158 0.68752 0.0
O767 O 0.49252 0.27526 0.68639 0.0
N768 N 0.55008 0.41506 0.61206 0.0
C769 C 0.52092 0.47111 0.56953 0.0
C770 C 0.56719 0.45465 0.58901 0.0
C771 C 0.49278 0.41189 0.60805 0.0
N772 N 0.47467 0.4434 0.5816 0.0
O773 O 0.66012 0.36869 0.60836 0.0
H774 H 0.61081 0.46773 0.58493 0.0
H775 H 0.46558 0.3818 0.62133 0.0
O776 O 0.525 0.362 0.6705 0.0
C777 C 0.67792 0.37111 0.5774 0.0
O778 O 0.64228 0.3682 0.55173 0.0
N779 N 0.56111 0.29886 0.61046 0.0
C780 C 0.48986 0.21966 0.57912 0.0
C781 C 0.52555 0.20234 0.6057 0.0
C782 C 0.55552 0.24436 0.62334 0.0
C783 C 0.54084 0.30847 0.5779 0.0
C784 C 0.50164 0.27126 0.5629 0.0
H785 H 0.56898 0.23301 0.64859 0.0
H786 H 0.54734 0.34821 0.56473 0.0
H787 H 0.59347 0.32644 0.71488 0.0
H788 H 0.69226 0.18634 0.68251 0.0
H789 H 0.52207 0.49937 0.54765 0.0
H790 H 0.52015 0.16054 0.61729 0.0
H791 H 0.47636 0.28562 0.54136 0.0
C792 C 0.04113 0.43073 0.42334 0.0
C793 C -0.00939 0.42991 0.44149 0.0
N794 N -0.02122 0.37497 0.44971 0.0
N795 N 0.06047 0.37638 0.41936 0.0
C796 C 0.02147 0.3437 0.43602 0.0
H797 H 0.06195 0.46867 0.41342 0.0
Co798 Co 0.12693 0.35033 0.39597 0.0
C799 C 0.11206 0.22954 0.42952 0.0
O800 O 0.08331 0.20455 0.40504 0.0
N801 N 0.1961 0.32371 0.3755 0.0
C802 C 0.26116 0.30276 0.33608 0.0
C803 C 0.22719 0.34549 0.34948 0.0
C804 C 0.21771 0.2699 0.37969 0.0
N805 N 0.25306 0.25471 0.35458 0.0
O806 O 0.12684 0.42132 0.3679 0.0
H807 H 0.2224 0.38779 0.33864 0.0
H808 H 0.2019 0.2381 0.39694 0.0
O809 O 0.12784 0.28214 0.4264 0.0
C810 C 0.12197 0.43489 0.33625 0.0
O811 O 0.1187 0.39489 0.31274 0.0
N812 N 0.08072 0.31335 0.36107 0.0
C813 C 0.00335 0.24272 0.32963 0.0
C814 C -0.01357 0.2979 0.33942 0.0
C815 C 0.02643 0.33297 0.35536 0.0
C816 C 0.09936 0.26895 0.34096 0.0
C817 C 0.06098 0.23243 0.32498 0.0
H818 H 0.01205 0.37368 0.36514 0.0
H819 H 0.14287 0.25808 0.33816 0.0
H820 H 0.02327 0.29746 0.43759 0.0
H821 H 0.9651 0.4669 0.44824 0.0
H822 H 0.28419 0.30509 0.31225 0.0
H823 H 0.94169 0.30908 0.34103 0.0
H824 H 0.07593 0.19182 0.31485 0.0
C825 C 0.27019 0.27019 0.15922 0.0
C826 C 0.2671 0.22931 0.18478 0.0
N827 N 0.29838 0.24814 0.21129 0.0
N828 N 0.30648 0.3124 0.16902 0.0
C829 C 0.31875 0.29988 0.20183 0.0
H830 H 0.25294 0.2656 0.13376 0.0
Co831 Co 0.34249 0.36954 0.1424 0.0
C832 C 0.44781 0.33946 0.18838 0.0
O833 O 0.44512 0.28341 0.18479 0.0
N834 N 0.37663 0.42954 0.11812 0.0
C835 C 0.39607 0.50088 1.08209 0.0
C836 C 0.35321 0.47178 0.09898 0.0
C837 C 0.43351 0.43595 0.11411 0.0
N838 N 0.44604 0.47707 0.09138 0.0
O839 O 0.2735 0.37163 0.11357 0.0
H840 H 0.30797 0.47901 0.096 0.0
H841 H 0.46492 0.40701 0.12474 0.0
O842 O 0.41064 0.37148 0.17358 0.0
C843 C 0.25643 0.36814 0.08259 0.0
O844 O 0.29287 0.36246 1.05754 0.0
N845 N 0.37833 0.31187 0.11202 0.0
C846 C 0.45291 0.23757 1.07865 0.0
C847 C 0.41429 0.21628 0.10246 0.0
C848 C 0.38278 0.25524 0.12147 0.0
C849 C 0.4027 0.32722 1.0813 0.0
C850 C 0.4439 0.29256 1.06587 0.0
H851 H 0.36757 0.23918 0.14534 0.0
H852 H 0.39532 0.36832 1.06958 0.0
H853 H 0.34629 0.3258 0.21769 0.0
H854 H 0.24591 0.18805 0.18336 0.0
H855 H 0.39063 0.53427 1.0631 0.0
H856 H 0.41804 0.17255 0.11151 0.0
H857 H 0.47136 0.31023 1.04629 0.0
C858 C 0.4003 0.51604 0.93302 0.0
C859 C 0.44771 0.52364 0.95368 0.0
N860 N 0.45748 0.58045 0.95671 0.0
N861 N 0.38054 0.56775 0.92257 0.0
C862 C 0.41663 0.60587 0.93755 0.0
H863 H 0.38076 0.47532 0.92671 0.0
Co864 Co 0.31239 0.58417 0.89716 0.0
C865 C 0.31815 0.7073 0.92616 0.0
O866 O 0.35332 0.72767 0.90323 0.0
N867 N 0.24158 0.60136 0.87454 0.0
C868 C 0.18231 0.61886 0.83124 0.0
C869 C 0.21737 0.57861 0.84624 0.0
C870 C 0.21309 0.65169 0.87857 0.0
N871 N 0.18239 0.666 0.85099 0.0
O872 O 0.32066 0.51093 0.871 0.0
H873 H 0.22732 0.53765 0.83513 0.0
H874 H 0.22127 0.6826 0.89823 0.0
O875 O 0.303 0.65436 0.9253 0.0
C876 C 0.32726 0.49693 0.83947 0.0
O877 O 0.32852 0.5365 0.81553 0.0
N878 N 0.35563 0.62307 0.86197 0.0
C879 C 0.42953 0.69066 0.82491 0.0
C880 C 0.44643 0.63532 0.83477 0.0
C881 C 0.40906 0.60286 0.85457 0.0
C882 C 0.33535 0.66862 0.84324 0.0
C883 C 0.37165 0.70262 0.82383 0.0
H884 H 0.42458 0.56325 0.86556 0.0
H885 H 0.29342 0.68469 0.846 0.0
H886 H 0.41324 0.65174 0.93482 0.0
H887 H 0.47202 0.49007 0.96618 0.0
H888 H 0.16449 0.61626 0.80579 0.0
H889 H 0.49097 0.62309 0.83405 0.0
H890 H 0.35648 0.74398 0.81481 0.0
C891 C 0.15693 0.66622 0.66284 0.0
C892 C 0.15405 0.70668 0.68835 0.0
N893 N 0.11438 0.68953 0.71084 0.0
N894 N 0.11925 0.62338 0.66914 0.0
C895 C 0.09669 0.63744 0.69989 0.0
H896 H 0.17932 0.67249 0.63906 0.0
Co897 Co 0.08262 0.58061 0.63402 0.0
C898 C 0.96165 0.57092 0.66887 0.0
O899 O 0.93102 0.59834 0.64606 0.0
N900 N 0.04426 0.54089 0.59916 0.0
C901 C 0.01681 0.48002 0.55876 0.0
C902 C 0.05846 0.4923 0.5826 0.0
C903 C -0.00689 0.5559 0.58564 0.0
N904 N -0.02485 0.51977 0.56148 0.0
O905 O 0.15273 0.58754 0.60612 0.0
H906 H 0.09693 0.46785 0.58721 0.0
H907 H -0.0308 0.59348 0.59239 0.0
O908 O 0.01572 0.56529 0.66481 0.0
C909 C 0.17463 0.57785 0.57674 0.0
O910 O 0.14327 0.55878 0.55143 0.0
N911 N 0.053 0.65068 0.61676 0.0
C912 C -0.02292 0.72825 0.58921 0.0
C913 C -0.02151 0.71813 0.62432 0.0
C914 C 0.01818 0.68117 0.63771 0.0
C915 C 0.05792 0.66635 0.58309 0.0
C916 C 0.01961 0.7054 0.56855 0.0
H917 H 0.01513 0.67227 0.66448 0.0
H918 H 0.08651 0.64439 0.56628 0.0
H919 H 0.06174 0.61449 0.7116 0.0
H920 H 0.1752 0.74805 0.68844 0.0
H921 H 0.01764 0.44446 0.54127 0.0
H922 H 0.94671 0.73593 0.64127 0.0
H923 H 0.0209 0.71458 0.54146 0.0
C924 C 0.05351 0.51565 0.2303 0.0
C925 C 0.00715 0.5237 0.20876 0.0
N926 N -0.00445 0.58041 0.20715 0.0
N927 N 0.07071 0.56696 0.24267 0.0
C928 C 0.03425 0.60522 0.22795 0.0
H929 H 0.07405 0.4751 0.23592 0.0
Co930 Co 0.13617 0.58588 0.26987 0.0
C931 C 0.12867 0.70915 0.24119 0.0
O932 O 0.09512 0.73168 0.2643 0.0
N933 N 0.2046 0.6076 0.29421 0.0
C934 C 0.25884 0.63395 0.3384 0.0
C935 C 0.22596 0.59049 0.32473 0.0
C936 C 0.23184 0.65842 0.28848 0.0
N937 N 0.26031 0.67742 0.31581 0.0
O938 O 0.13088 0.51119 0.29508 0.0
H939 H 0.2147 0.5519 0.33819 0.0
H940 H 0.22608 0.68576 0.26669 0.0
O941 O 0.14271 0.65611 0.24278 0.0
C942 C 0.12159 0.49606 0.32617 0.0
O943 O 0.11393 0.53495 0.34998 0.0
N944 N 0.08838 0.62106 0.30406 0.0
C945 C 0.00958 0.68597 0.33873 0.0
C946 C -0.00533 0.63077 0.32771 0.0
C947 C 0.03479 0.59944 0.30932 0.0
C948 C 0.10587 0.66593 0.32411 0.0
C949 C 0.06698 0.69877 0.34228 0.0
H950 H 0.0214 0.5597 0.29762 0.0
H951 H 0.1482 0.68143 0.3238 0.0
H952 H 0.03579 0.65083 0.23215 0.0
H953 H -0.01528 0.49054 0.19479 0.0
H954 H 0.27415 0.63625 0.36443 0.0
H955 H 0.95037 0.61781 0.32656 0.0
H956 H 0.08049 0.73987 0.35248 0.0
C957 C 0.15702 0.25958 1.00477 0.0
C958 C 0.15319 0.21512 0.98159 0.0
N959 N 0.12412 0.2345 0.95445 0.0
N960 N 0.12729 0.30596 0.99345 0.0
C961 C 0.11193 0.29012 0.96147 0.0
H962 H 0.18158 0.25762 1.02797 0.0
Co963 Co 0.10587 0.37637 1.01634 0.0
C964 C -0.00282 0.35251 0.97429 0.0
O965 O -0.00373 0.2976 0.98206 0.0
N966 N 0.08447 0.44764 1.03812 0.0
C967 C 0.06652 0.50337 0.08323 0.0
C968 C 0.10819 0.47477 1.06519 0.0
C969 C 0.03076 0.46911 1.03752 0.0
N970 N 0.01719 0.49708 1.06628 0.0
O971 O 0.1775 0.37153 1.04382 0.0
H972 H 0.1519 0.47128 1.07317 0.0
H973 H -0.00087 0.45858 1.01862 0.0
O974 O 0.03737 0.38435 0.98591 0.0
C975 C 0.19494 0.37107 1.0749 0.0
O976 O 0.15846 0.3747 0.10022 0.0
N977 N 0.06254 0.33386 1.05066 0.0
C978 C -0.00694 0.26352 0.09007 0.0
C979 C 0.05184 0.25474 0.08995 0.0
C980 C 0.08592 0.29081 1.07012 0.0
C981 C 0.00615 0.3466 1.05568 0.0
C982 C -0.02755 0.31582 1.07824 0.0
H983 H 0.13031 0.28098 1.06933 0.0
H984 H -0.01635 0.37579 1.03981 0.0
H985 H 0.0904 0.31841 0.94372 0.0
H986 H 0.17138 0.17255 0.98417 0.0
H987 H 0.07115 0.52192 0.10839 0.0
H988 H 0.06986 0.21538 0.10013 0.0
H989 H 0.92696 0.32424 1.07823 0.0
C990 C 0.39154 0.41986 0.73311 0.0
C991 C 0.43714 0.4138 0.71085 0.0
N992 N 0.44879 0.35735 0.70757 0.0
N993 N 0.37473 0.36755 0.74426 0.0
C994 C 0.41068 0.33068 0.72802 0.0
H995 H 0.37137 0.4599 0.74017 0.0
Co996 Co 0.31061 0.34736 0.77258 0.0
C997 C 0.3185 0.2249 0.74335 0.0
O998 O 0.35766 0.20507 0.76416 0.0
N999 N 0.2437 0.32483 0.79811 0.0
C1000 C 0.19081 0.29879 0.84295 0.0
C1001 C 0.22365 0.34194 0.82889 0.0
C1002 C 0.21598 0.27415 0.79276 0.0
N1003 N 0.18785 0.25568 0.82031 0.0
O1004 O 0.3173 0.42121 0.79841 0.0
H1005 H 0.23534 0.38058 0.84209 0.0
H1006 H 0.22107 0.24656 0.77107 0.0
O1007 O 0.30223 0.27727 0.74529 0.0
C1008 C 0.3281 0.43591 0.82943 0.0
O1009 O 0.33651 0.39682 0.85313 0.0
N1010 N 0.36015 0.3119 0.80558 0.0
C1011 C 0.44088 0.24838 0.8394 0.0
C1012 C 0.45414 0.30449 0.82922 0.0
C1013 C 0.41325 0.33481 0.81074 0.0
C1014 C 0.34405 0.26603 0.82528 0.0
C1015 C 0.38392 0.2341 0.84334 0.0
H1016 H 0.42552 0.375 0.79909 0.0
H1017 H 0.30229 0.2491 0.82458 0.0
H1018 H 0.40922 0.28476 0.73083 0.0
H1019 H 0.45907 0.44816 0.69763 0.0
H1020 H 0.17583 0.29668 0.86903 0.0
H1021 H 0.49807 0.3187 0.82814 0.0
H1022 H 0.37167 0.19236 0.85325 0.0
C1023 C 0.27767 0.67847 0.50034 0.0
C1024 C 0.28298 0.72167 0.47645 0.0
N1025 N 0.31682 0.70207 0.45152 0.0
N1026 N 0.31103 0.63316 0.49166 0.0
C1027 C 0.32987 0.64754 0.46021 0.0
H1028 H 0.25045 0.68063 0.52245 0.0
Co1029 Co 0.33177 0.56607 0.51718 0.0
C1030 C 0.44312 0.58743 0.47699 0.0
O1031 O 0.44356 0.64239 0.48425 0.0
N1032 N 0.35158 0.49758 0.54194 0.0
C1033 C 0.37211 0.44869 0.58944 0.0
C1034 C 0.33086 0.47925 0.5723 0.0
C1035 C 0.40265 0.47058 0.53972 0.0
N1036 N 0.41822 0.44608 0.56934 0.0
O1037 O 0.25891 0.5729 0.5428 0.0
H1038 H 0.2909 0.49141 0.58339 0.0
H1039 H 0.43262 0.47672 0.51924 0.0
O1040 O 0.40224 0.55584 0.48811 0.0
C1041 C 0.23666 0.58394 0.57195 0.0
O1042 O 0.26902 0.59387 0.59867 0.0
N1043 N 0.37408 0.61183 0.55048 0.0
C1044 C 0.44643 0.68367 0.58735 0.0
C1045 C 0.38841 0.69651 0.58484 0.0
C1046 C 0.35297 0.65993 0.56616 0.0
C1047 C 0.42895 0.59598 0.55787 0.0
C1048 C 0.46406 0.62863 0.57871 0.0
H1049 H 0.30965 0.673 0.56312 0.0
H1050 H 0.44954 0.56221 0.54463 0.0
H1051 H 0.35393 0.61904 0.44396 0.0
H1052 H 0.26311 0.76367 0.47717 0.0
H1053 H 0.37085 0.43633 0.61607 0.0
H1054 H 0.37272 0.73857 0.59208 0.0
H1055 H 0.50883 0.61721 0.58017 0.0
loop_
_geom_bond_atom_site_label_1
_geom_bond_atom_site_label_2
_geom_bond_distance
_geom_bond_site_symmetry_2
_ccdc_geom_bond_type
C0 C1 1.351 1_545 S
C0 N3 1.368 . S
C0 H5 0.934 . S
C1 C0 1.351 1_565 S
C1 N2 1.373 1_565 S
C1 H29 0.930 . S
N2 C1 1.373 1_545 S
N2 C4 1.340 . S
N3 C0 1.368 . S
N3 C4 1.321 . S
N3 Co6 2.135 . S
C4 N2 1.340 . S
C4 N3 1.321 . S
C4 H28 0.930 . S
H5 C0 0.934 . S
Co6 N3 2.135 . S
Co6 N9 2.121 . S
Co6 O14 2.055 . S
Co6 O17 2.039 . S
Co6 N20 2.140 . S
C7 O8 1.227 . S
C7 O17 1.265 . S
O8 C7 1.227 . S
N9 Co6 2.121 . S
N9 C11 1.375 . S
N9 C12 1.313 . S
C10 C11 1.338 . S
C10 N13 1.377 . S
C10 H30 0.930 . S
C11 N9 1.375 . S
C11 C10 1.338 . S
C11 H15 0.931 . S
C12 N9 1.313 . S
C12 N13 1.344 . S
C12 H16 0.930 . S
N13 C10 1.377 . S
N13 C12 1.344 . S
O14 Co6 2.055 . S
O14 C18 1.253 . S
H15 C11 0.931 . S
H16 C12 0.930 . S
O17 Co6 2.039 . S
O17 C7 1.265 . S
C18 O14 1.253 . S
C18 O19 1.227 . S
O19 C18 1.227 . S
N20 Co6 2.140 . S
N20 C23 1.346 . S
N20 C24 1.345 . S
C21 C22 1.387 . S
C21 C25 1.391 . S
C22 C21 1.387 . S
C22 C23 1.369 . S
C22 H31 0.929 . S
C23 N20 1.346 . S
C23 C22 1.369 . S
C23 H26 0.928 . S
C24 N20 1.345 . S
C24 C25 1.371 . S
C24 H27 0.931 . S
C25 C21 1.391 . S
C25 C24 1.371 . S
C25 H32 0.930 . S
H26 C23 0.928 . S
H27 C24 0.931 . S
H28 C4 0.930 . S
H29 C1 0.930 . S
H30 C10 0.930 . S
H31 C22 0.929 . S
H32 C25 0.930 . S
C33 C34 1.351 . S
C33 N36 1.368 . S
C33 H38 0.931 . S
C34 C33 1.351 . S
C34 N35 1.373 . S
C34 H62 0.930 . S
N35 C34 1.373 . S
N35 C37 1.340 . S
N36 C33 1.368 . S
N36 C37 1.321 . S
N36 Co39 2.135 . S
C37 N35 1.340 . S
C37 N36 1.321 . S
C37 H61 0.930 . S
H38 C33 0.931 . S
Co39 N36 2.135 . S
Co39 N42 2.121 . S
Co39 O47 2.055 . S
Co39 O50 2.039 . S
Co39 N53 2.140 . S
C40 O41 1.227 . S
C40 O50 1.265 . S
O41 C40 1.227 . S
N42 Co39 2.121 . S
N42 C44 1.375 . S
N42 C45 1.313 . S
C43 C44 1.338 1_565 S
C43 N46 1.377 . S
C43 H63 0.930 1_455 S
C44 N42 1.375 . S
C44 C43 1.338 1_545 S
C44 H48 0.931 . S
C45 N42 1.313 . S
C45 N46 1.344 1_545 S
C45 H49 0.930 . S
N46 C43 1.377 . S
N46 C45 1.344 1_565 S
O47 Co39 2.055 . S
O47 C51 1.253 . S
H48 C44 0.931 . S
H49 C45 0.930 . S
O50 Co39 2.039 . S
O50 C40 1.265 . S
C51 O47 1.253 . S
C51 O52 1.227 . S
O52 C51 1.227 . S
N53 Co39 2.140 . S
N53 C56 1.346 . S
N53 C57 1.345 . S
C54 C55 1.387 . S
C54 C58 1.391 . S
C55 C54 1.387 . S
C55 C56 1.369 . S
C55 H64 0.929 . S
C56 N53 1.346 . S
C56 C55 1.369 . S
C56 H59 0.928 . S
C57 N53 1.345 . S
C57 C58 1.371 . S
C57 H60 0.931 . S
C58 C54 1.391 . S
C58 C57 1.371 . S
C58 H65 0.930 . S
H59 C56 0.928 . S
H60 C57 0.931 . S
H61 C37 0.930 . S
H62 C34 0.930 . S
H63 C43 0.930 1_655 S
H64 C55 0.929 . S
H65 C58 0.930 . S
C66 C67 1.351 1_565 S
C66 N69 1.368 . S
C66 H71 0.934 . S
C67 C66 1.351 1_545 S
C67 N68 1.373 1_545 S
C67 H95 0.930 1_455 S
N68 C67 1.373 1_565 S
N68 C70 1.340 . S
N69 C66 1.368 . S
N69 C70 1.321 . S
N69 Co72 2.135 . S
C70 N68 1.340 . S
C70 N69 1.321 . S
C70 H94 0.930 . S
H71 C66 0.934 . S
Co72 N69 2.135 . S
Co72 N75 2.121 . S
Co72 O80 2.055 . S
Co72 O83 2.039 . S
Co72 N86 2.140 . S
C73 O74 1.227 . S
C73 O83 1.265 . S
O74 C73 1.227 . S
N75 Co72 2.121 . S
N75 C77 1.375 . S
N75 C78 1.313 . S
C76 C77 1.338 . S
C76 N79 1.377 . S
C76 H96 0.930 . S
C77 N75 1.375 . S
C77 C76 1.338 . S
C77 H81 0.931 . S
C78 N75 1.313 . S
C78 N79 1.344 . S
C78 H82 0.930 . S
N79 C76 1.377 . S
N79 C78 1.344 . S
O80 Co72 2.055 . S
O80 C84 1.253 . S
H81 C77 0.931 . S
H82 C78 0.930 . S
O83 Co72 2.039 . S
O83 C73 1.265 . S
C84 O80 1.253 . S
C84 O85 1.227 . S
O85 C84 1.227 . S
N86 Co72 2.140 . S
N86 C89 1.346 . S
N86 C90 1.345 . S
C87 C88 1.387 . S
C87 C91 1.391 1_655 S
C88 C87 1.387 . S
C88 C89 1.369 1_655 S
C88 H97 0.929 . S
C89 N86 1.346 . S
C89 C88 1.369 1_455 S
C89 H92 0.928 . S
C90 N86 1.345 . S
C90 C91 1.371 . S
C90 H93 0.931 . S
C91 C87 1.391 1_455 S
C91 C90 1.371 . S
C91 H98 0.930 . S
H92 C89 0.928 . S
H93 C90 0.931 . S
H94 C70 0.930 . S
H95 C67 0.930 1_655 S
H96 C76 0.930 . S
H97 C88 0.929 . S
H98 C91 0.930 . S
C99 C100 1.351 . S
C99 N102 1.368 . S
C99 H104 0.931 . S
C100 C99 1.351 . S
C100 N101 1.373 . S
C100 H128 0.930 . S
N101 C100 1.373 . S
N101 C103 1.340 . S
N102 C99 1.368 . S
N102 C103 1.321 . S
N102 Co105 2.135 . S
C103 N101 1.340 . S
C103 N102 1.321 . S
C103 H127 0.930 . S
H104 C99 0.931 . S
Co105 N102 2.135 . S
Co105 N108 2.121 . S
Co105 O113 2.055 . S
Co105 O116 2.039 . S
Co105 N119 2.140 . S
C106 O107 1.227 . S
C106 O116 1.265 . S
O107 C106 1.227 . S
N108 Co105 2.121 . S
N108 C110 1.375 . S
N108 C111 1.313 . S
C109 C110 1.338 1_545 S
C109 N112 1.377 . S
C109 H129 0.930 . S
C110 N108 1.375 . S
C110 C109 1.338 1_565 S
C110 H114 0.931 . S
C111 N108 1.313 . S
C111 N112 1.344 1_565 S
C111 H115 0.930 . S
N112 C109 1.377 . S
N112 C111 1.344 1_545 S
O113 Co105 2.055 . S
O113 C117 1.253 . S
H114 C110 0.931 . S
H115 C111 0.930 . S
O116 Co105 2.039 . S
O116 C106 1.265 . S
C117 O113 1.253 . S
C117 O118 1.227 . S
O118 C117 1.227 . S
N119 Co105 2.140 . S
N119 C122 1.346 . S
N119 C123 1.345 . S
C120 C121 1.387 . S
C120 C124 1.391 . S
C121 C120 1.387 . S
C121 C122 1.369 . S
C121 H130 0.929 . S
C122 N119 1.346 . S
C122 C121 1.369 . S
C122 H125 0.928 . S
C123 N119 1.345 . S
C123 C124 1.371 . S
C123 H126 0.931 . S
C124 C120 1.391 . S
C124 C123 1.371 . S
C124 H131 0.930 1_556 S
H125 C122 0.928 . S
H126 C123 0.931 . S
H127 C103 0.930 . S
H128 C100 0.930 . S
H129 C109 0.930 . S
H130 C121 0.929 . S
H131 C124 0.930 1_554 S
C132 C133 1.351 1_565 S
C132 N135 1.368 . S
C132 H137 0.934 . S
C133 C132 1.351 1_545 S
C133 N134 1.373 1_545 S
C133 H161 0.930 . S
N134 C133 1.373 1_565 S
N134 C136 1.340 . S
N135 C132 1.368 . S
N135 C136 1.321 . S
N135 Co138 2.135 . S
C136 N134 1.340 . S
C136 N135 1.321 . S
C136 H160 0.930 . S
H137 C132 0.934 . S
Co138 N135 2.135 . S
Co138 N141 2.121 . S
Co138 O146 2.055 . S
Co138 O149 2.039 . S
Co138 N152 2.140 . S
C139 O140 1.227 . S
C139 O149 1.265 . S
O140 C139 1.227 . S
N141 Co138 2.121 . S
N141 C143 1.375 . S
N141 C144 1.313 . S
C142 C143 1.338 . S
C142 N145 1.377 . S
C142 H162 0.930 . S
C143 N141 1.375 . S
C143 C142 1.338 . S
C143 H147 0.931 . S
C144 N141 1.313 . S
C144 N145 1.344 . S
C144 H148 0.930 . S
N145 C142 1.377 . S
N145 C144 1.344 . S
O146 Co138 2.055 . S
O146 C150 1.253 . S
H147 C143 0.931 . S
H148 C144 0.930 . S
O149 Co138 2.039 . S
O149 C139 1.265 . S
C150 O146 1.253 . S
C150 O151 1.227 . S
O151 C150 1.227 . S
N152 Co138 2.140 . S
N152 C155 1.346 . S
N152 C156 1.345 . S
C153 C154 1.387 . S
C153 C157 1.391 . S
C154 C153 1.387 . S
C154 C155 1.369 . S
C154 H163 0.929 . S
C155 N152 1.346 . S
C155 C154 1.369 . S
C155 H158 0.928 . S
C156 N152 1.345 . S
C156 C157 1.371 . S
C156 H159 0.931 . S
C157 C153 1.391 . S
C157 C156 1.371 . S
C157 H164 0.930 . S
H158 C155 0.928 . S
H159 C156 0.931 . S
H160 C136 0.930 . S
H161 C133 0.930 . S
H162 C142 0.930 . S
H163 C154 0.929 . S
H164 C157 0.930 . S
C165 C166 1.351 . S
C165 N168 1.368 . S
C165 H170 0.931 . S
C166 C165 1.351 . S
C166 N167 1.373 . S
C166 H194 0.930 . S
N167 C166 1.373 . S
N167 C169 1.340 . S
N168 C165 1.368 . S
N168 C169 1.321 . S
N168 Co171 2.135 . S
C169 N167 1.340 . S
C169 N168 1.321 . S
C169 H193 0.930 . S
H170 C165 0.931 . S
Co171 N168 2.135 . S
Co171 N174 2.121 . S
Co171 O179 2.055 . S
Co171 O182 2.039 . S
Co171 N185 2.140 . S
C172 O173 1.227 . S
C172 O182 1.265 . S
O173 C172 1.227 . S
N174 Co171 2.121 . S
N174 C176 1.375 . S
N174 C177 1.313 . S
C175 C176 1.338 1_565 S
C175 N178 1.377 . S
C175 H195 0.930 . S
C176 N174 1.375 . S
C176 C175 1.338 1_545 S
C176 H180 0.931 . S
C177 N174 1.313 . S
C177 N178 1.344 1_545 S
C177 H181 0.930 . S
N178 C175 1.377 . S
N178 C177 1.344 1_565 S
O179 Co171 2.055 . S
O179 C183 1.253 . S
H180 C176 0.931 . S
H181 C177 0.930 . S
O182 Co171 2.039 . S
O182 C172 1.265 . S
C183 O179 1.253 . S
C183 O184 1.227 . S
O184 C183 1.227 . S
N185 Co171 2.140 . S
N185 C188 1.346 . S
N185 C189 1.345 . S
C186 C187 1.387 . S
C186 C190 1.391 . S
C187 C186 1.387 . S
C187 C188 1.369 . S
C187 H196 0.929 . S
C188 N185 1.346 . S
C188 C187 1.369 . S
C188 H191 0.928 . S
C189 N185 1.345 . S
C189 C190 1.371 . S
C189 H192 0.931 . S
C190 C186 1.391 . S
C190 C189 1.371 . S
C190 H197 0.930 . S
H191 C188 0.928 . S
H192 C189 0.931 . S
H193 C169 0.930 . S
H194 C166 0.930 . S
H195 C175 0.930 . S
H196 C187 0.929 . S
H197 C190 0.930 . S
C198 C199 1.351 1_545 S
C198 N201 1.368 . S
C198 H203 0.934 . S
C199 C198 1.351 1_565 S
C199 N200 1.373 1_565 S
C199 H227 0.930 1_455 S
N200 C199 1.373 1_545 S
N200 C202 1.340 . S
N201 C198 1.368 . S
N201 C202 1.321 . S
N201 Co204 2.135 . S
C202 N200 1.340 . S
C202 N201 1.321 . S
C202 H226 0.930 . S
H203 C198 0.934 . S
Co204 N201 2.135 . S
Co204 N207 2.121 . S
Co204 O212 2.055 . S
Co204 O215 2.039 . S
Co204 N218 2.140 . S
C205 O206 1.227 . S
C205 O215 1.265 . S
O206 C205 1.227 . S
N207 Co204 2.121 . S
N207 C209 1.375 . S
N207 C210 1.313 . S
C208 C209 1.338 . S
C208 N211 1.377 . S
C208 H228 0.930 . S
C209 N207 1.375 . S
C209 C208 1.338 . S
C209 H213 0.931 . S
C210 N207 1.313 . S
C210 N211 1.344 . S
C210 H214 0.930 . S
N211 C208 1.377 . S
N211 C210 1.344 . S
O212 Co204 2.055 . S
O212 C216 1.253 . S
H213 C209 0.931 . S
H214 C210 0.930 . S
O215 Co204 2.039 . S
O215 C205 1.265 . S
C216 O212 1.253 . S
C216 O217 1.227 . S
O217 C216 1.227 . S
N218 Co204 2.140 . S
N218 C221 1.346 . S
N218 C222 1.345 . S
C219 C220 1.387 . S
C219 C223 1.391 1_655 S
C220 C219 1.387 . S
C220 C221 1.369 1_655 S
C220 H229 0.929 . S
C221 N218 1.346 . S
C221 C220 1.369 1_455 S
C221 H224 0.928 . S
C222 N218 1.345 . S
C222 C223 1.371 . S
C222 H225 0.931 . S
C223 C219 1.391 1_455 S
C223 C222 1.371 . S
C223 H230 0.930 . S
H224 C221 0.928 . S
H225 C222 0.931 . S
H226 C202 0.930 . S
H227 C199 0.930 1_655 S
H228 C208 0.930 . S
H229 C220 0.929 . S
H230 C223 0.930 . S
C231 C232 1.351 . S
C231 N234 1.368 . S
C231 H236 0.931 . S
C232 C231 1.351 . S
C232 N233 1.373 . S
C232 H260 0.930 . S
N233 C232 1.373 . S
N233 C235 1.340 . S
N234 C231 1.368 . S
N234 C235 1.321 . S
N234 Co237 2.135 . S
C235 N233 1.340 . S
C235 N234 1.321 . S
C235 H259 0.930 . S
H236 C231 0.931 . S
Co237 N234 2.135 . S
Co237 N240 2.121 . S
Co237 O245 2.055 . S
Co237 O248 2.039 . S
Co237 N251 2.140 . S
C238 O239 1.227 . S
C238 O248 1.265 . S
O239 C238 1.227 . S
N240 Co237 2.121 . S
N240 C242 1.375 . S
N240 C243 1.313 . S
C241 C242 1.338 1_545 S
C241 N244 1.377 . S
C241 H261 0.930 1_455 S
C242 N240 1.375 . S
C242 C241 1.338 1_565 S
C242 H246 0.931 . S
C243 N240 1.313 . S
C243 N244 1.344 1_565 S
C243 H247 0.930 . S
N244 C241 1.377 . S
N244 C243 1.344 1_545 S
O245 Co237 2.055 . S
O245 C249 1.253 . S
H246 C242 0.931 . S
H247 C243 0.930 . S
O248 Co237 2.039 . S
O248 C238 1.265 . S
C249 O245 1.253 . S
C249 O250 1.227 . S
O250 C249 1.227 . S
N251 Co237 2.140 . S
N251 C254 1.346 . S
N251 C255 1.345 . S
C252 C253 1.387 . S
C252 C256 1.391 . S
C253 C252 1.387 . S
C253 C254 1.369 . S
C253 H262 0.929 . S
C254 N251 1.346 . S
C254 C253 1.369 . S
C254 H257 0.928 . S
C255 N251 1.345 . S
C255 C256 1.371 . S
C255 H258 0.931 . S
C256 C252 1.391 . S
C256 C255 1.371 . S
C256 H263 0.930 1_554 S
H257 C254 0.928 . S
H258 C255 0.931 . S
H259 C235 0.930 . S
H260 C232 0.930 . S
H261 C241 0.930 1_655 S
H262 C253 0.929 . S
H263 C256 0.930 1_556 S
C264 C265 1.351 1_565 S
C264 N267 1.368 . S
C264 H269 0.934 . S
C265 C264 1.351 1_545 S
C265 N266 1.373 1_545 S
C265 H293 0.930 . S
N266 C265 1.373 1_565 S
N266 C268 1.340 . S
N267 C264 1.368 . S
N267 C268 1.321 . S
N267 Co270 2.135 . S
C268 N266 1.340 . S
C268 N267 1.321 . S
C268 H292 0.930 . S
H269 C264 0.934 . S
Co270 N267 2.135 . S
Co270 N273 2.121 . S
Co270 O278 2.055 . S
Co270 O281 2.039 . S
Co270 N284 2.140 . S
C271 O272 1.227 . S
C271 O281 1.265 . S
O272 C271 1.227 . S
N273 Co270 2.121 . S
N273 C275 1.375 . S
N273 C276 1.313 . S
C274 C275 1.338 . S
C274 N277 1.377 . S
C274 H294 0.930 . S
C275 N273 1.375 . S
C275 C274 1.338 . S
C275 H279 0.931 . S
C276 N273 1.313 . S
C276 N277 1.344 . S
C276 H280 0.930 . S
N277 C274 1.377 . S
N277 C276 1.344 . S
O278 Co270 2.055 . S
O278 C282 1.253 . S
H279 C275 0.931 . S
H280 C276 0.930 . S
O281 Co270 2.039 . S
O281 C271 1.265 . S
C282 O278 1.253 . S
C282 O283 1.227 . S
O283 C282 1.227 . S
N284 Co270 2.140 . S
N284 C287 1.346 . S
N284 C288 1.345 . S
C285 C286 1.387 . S
C285 C289 1.391 . S
C286 C285 1.387 . S
C286 C287 1.369 . S
C286 H295 0.929 . S
C287 N284 1.346 . S
C287 C286 1.369 . S
C287 H290 0.928 . S
C288 N284 1.345 . S
C288 C289 1.371 . S
C288 H291 0.931 . S
C289 C285 1.391 . S
C289 C288 1.371 . S
C289 H296 0.930 . S
H290 C287 0.928 . S
H291 C288 0.931 . S
H292 C268 0.930 . S
H293 C265 0.930 . S
H294 C274 0.930 . S
H295 C286 0.929 . S
H296 C289 0.930 . S
C297 C298 1.351 . S
C297 N300 1.368 . S
C297 H302 0.931 . S
C298 C297 1.351 . S
C298 N299 1.373 . S
C298 H326 0.930 . S
N299 C298 1.373 . S
N299 C301 1.340 . S
N300 C297 1.368 . S
N300 C301 1.321 . S
N300 Co303 2.135 . S
C301 N299 1.340 . S
C301 N300 1.321 . S
C301 H325 0.930 . S
H302 C297 0.931 . S
Co303 N300 2.135 . S
Co303 N306 2.121 . S
Co303 O311 2.055 . S
Co303 O314 2.039 . S
Co303 N317 2.140 . S
C304 O305 1.227 . S
C304 O314 1.265 . S
O305 C304 1.227 . S
N306 Co303 2.121 . S
N306 C308 1.375 . S
N306 C309 1.313 . S
C307 C308 1.338 1_545 S
C307 N310 1.377 . S
C307 H327 0.930 1_655 S
C308 N306 1.375 . S
C308 C307 1.338 1_565 S
C308 H312 0.931 . S
C309 N306 1.313 . S
C309 N310 1.344 1_565 S
C309 H313 0.930 . S
N310 C307 1.377 . S
N310 C309 1.344 1_545 S
O311 Co303 2.055 . S
O311 C315 1.253 . S
H312 C308 0.931 . S
H313 C309 0.930 . S
O314 Co303 2.039 . S
O314 C304 1.265 . S
C315 O311 1.253 . S
C315 O316 1.227 . S
O316 C315 1.227 . S
N317 Co303 2.140 . S
N317 C320 1.346 . S
N317 C321 1.345 . S
C318 C319 1.387 . S
C318 C322 1.391 . S
C319 C318 1.387 . S
C319 C320 1.369 . S
C319 H328 0.929 . S
C320 N317 1.346 . S
C320 C319 1.369 . S
C320 H323 0.928 . S
C321 N317 1.345 . S
C321 C322 1.371 . S
C321 H324 0.931 . S
C322 C318 1.391 . S
C322 C321 1.371 . S
C322 H329 0.930 . S
H323 C320 0.928 . S
H324 C321 0.931 . S
H325 C301 0.930 . S
H326 C298 0.930 . S
H327 C307 0.930 1_455 S
H328 C319 0.929 . S
H329 C322 0.930 . S
C330 C331 1.351 1_545 S
C330 N333 1.368 . S
C330 H335 0.934 . S
C331 C330 1.351 1_565 S
C331 N332 1.373 1_565 S
C331 H359 0.930 1_655 S
N332 C331 1.373 1_545 S
N332 C334 1.340 . S
N333 C330 1.368 . S
N333 C334 1.321 . S
N333 Co336 2.135 . S
C334 N332 1.340 . S
C334 N333 1.321 . S
C334 H358 0.930 . S
H335 C330 0.934 . S
Co336 N333 2.135 . S
Co336 N339 2.121 . S
Co336 O344 2.055 . S
Co336 O347 2.039 . S
Co336 N350 2.140 . S
C337 O338 1.227 . S
C337 O347 1.265 . S
O338 C337 1.227 . S
N339 Co336 2.121 . S
N339 C341 1.375 . S
N339 C342 1.313 . S
C340 C341 1.338 . S
C340 N343 1.377 . S
C340 H360 0.930 . S
C341 N339 1.375 . S
C341 C340 1.338 . S
C341 H345 0.931 . S
C342 N339 1.313 . S
C342 N343 1.344 . S
C342 H346 0.930 . S
N343 C340 1.377 . S
N343 C342 1.344 . S
O344 Co336 2.055 . S
O344 C348 1.253 . S
H345 C341 0.931 . S
H346 C342 0.930 . S
O347 Co336 2.039 . S
O347 C337 1.265 . S
C348 O344 1.253 . S
C348 O349 1.227 . S
O349 C348 1.227 . S
N350 Co336 2.140 . S
N350 C353 1.346 . S
N350 C354 1.345 . S
C351 C352 1.387 . S
C351 C355 1.391 1_455 S
C352 C351 1.387 . S
C352 C353 1.369 1_455 S
C352 H361 0.929 . S
C353 N350 1.346 . S
C353 C352 1.369 1_655 S
C353 H356 0.928 . S
C354 N350 1.345 . S
C354 C355 1.371 . S
C354 H357 0.931 . S
C355 C351 1.391 1_655 S
C355 C354 1.371 . S
C355 H362 0.930 . S
H356 C353 0.928 . S
H357 C354 0.931 . S
H358 C334 0.930 . S
H359 C331 0.930 1_455 S
H360 C340 0.930 . S
H361 C352 0.929 . S
H362 C355 0.930 . S
C363 C364 1.351 . S
C363 N366 1.368 . S
C363 H368 0.931 . S
C364 C363 1.351 . S
C364 N365 1.373 . S
C364 H392 0.930 . S
N365 C364 1.373 . S
N365 C367 1.340 . S
N366 C363 1.368 . S
N366 C367 1.321 . S
N366 Co369 2.135 . S
C367 N365 1.340 . S
C367 N366 1.321 . S
C367 H391 0.930 . S
H368 C363 0.931 . S
Co369 N366 2.135 . S
Co369 N372 2.121 . S
Co369 O377 2.055 . S
Co369 O380 2.039 . S
Co369 N383 2.140 . S
C370 O371 1.227 . S
C370 O380 1.265 . S
O371 C370 1.227 . S
N372 Co369 2.121 . S
N372 C374 1.375 . S
N372 C375 1.313 . S
C373 C374 1.338 1_565 S
C373 N376 1.377 . S
C373 H393 0.930 . S
C374 N372 1.375 . S
C374 C373 1.338 1_545 S
C374 H378 0.931 . S
C375 N372 1.313 . S
C375 N376 1.344 1_545 S
C375 H379 0.930 . S
N376 C373 1.377 . S
N376 C375 1.344 1_565 S
O377 Co369 2.055 . S
O377 C381 1.253 . S
H378 C374 0.931 . S
H379 C375 0.930 . S
O380 Co369 2.039 . S
O380 C370 1.265 . S
C381 O377 1.253 . S
C381 O382 1.227 . S
O382 C381 1.227 . S
N383 Co369 2.140 . S
N383 C386 1.346 . S
N383 C387 1.345 . S
C384 C385 1.387 . S
C384 C388 1.391 . S
C385 C384 1.387 . S
C385 C386 1.369 . S
C385 H394 0.929 . S
C386 N383 1.346 . S
C386 C385 1.369 . S
C386 H389 0.928 . S
C387 N383 1.345 . S
C387 C388 1.371 . S
C387 H390 0.931 . S
C388 C384 1.391 . S
C388 C387 1.371 . S
C388 H395 0.930 1_554 S
H389 C386 0.928 . S
H390 C387 0.931 . S
H391 C367 0.930 . S
H392 C364 0.930 . S
H393 C373 0.930 . S
H394 C385 0.929 . S
H395 C388 0.930 1_556 S
C396 C397 1.351 1_545 S
C396 N399 1.368 . S
C396 H401 0.934 . S
C397 C396 1.351 1_565 S
C397 N398 1.373 1_565 S
C397 H425 0.930 . S
N398 C397 1.373 1_545 S
N398 C400 1.340 . S
N399 C396 1.368 . S
N399 C400 1.321 . S
N399 Co402 2.135 . S
C400 N398 1.340 . S
C400 N399 1.321 . S
C400 H424 0.930 . S
H401 C396 0.934 . S
Co402 N399 2.135 . S
Co402 N405 2.121 . S
Co402 O410 2.055 . S
Co402 O413 2.039 . S
Co402 N416 2.140 . S
C403 O404 1.227 . S
C403 O413 1.265 . S
O404 C403 1.227 . S
N405 Co402 2.121 . S
N405 C407 1.375 . S
N405 C408 1.313 . S
C406 C407 1.338 . S
C406 N409 1.377 . S
C406 H426 0.930 . S
C407 N405 1.375 . S
C407 C406 1.338 . S
C407 H411 0.931 . S
C408 N405 1.313 . S
C408 N409 1.344 . S
C408 H412 0.930 . S
N409 C406 1.377 . S
N409 C408 1.344 . S
O410 Co402 2.055 . S
O410 C414 1.253 . S
H411 C407 0.931 . S
H412 C408 0.930 . S
O413 Co402 2.039 . S
O413 C403 1.265 . S
C414 O410 1.253 . S
C414 O415 1.227 . S
O415 C414 1.227 . S
N416 Co402 2.140 . S
N416 C419 1.346 . S
N416 C420 1.345 . S
C417 C418 1.387 . S
C417 C421 1.391 . S
C418 C417 1.387 . S
C418 C419 1.369 . S
C418 H427 0.929 . S
C419 N416 1.346 . S
C419 C418 1.369 . S
C419 H422 0.928 . S
C420 N416 1.345 . S
C420 C421 1.371 . S
C420 H423 0.931 . S
C421 C417 1.391 . S
C421 C420 1.371 . S
C421 H428 0.930 . S
H422 C419 0.928 . S
H423 C420 0.931 . S
H424 C400 0.930 . S
H425 C397 0.930 . S
H426 C406 0.930 . S
H427 C418 0.929 . S
H428 C421 0.930 . S
C429 C430 1.351 . S
C429 N432 1.368 . S
C429 H434 0.931 . S
C430 C429 1.351 . S
C430 N431 1.373 . S
C430 H458 0.930 . S
N431 C430 1.373 . S
N431 C433 1.340 . S
N432 C429 1.368 . S
N432 C433 1.321 . S
N432 Co435 2.135 . S
C433 N431 1.340 . S
C433 N432 1.321 . S
C433 H457 0.930 . S
H434 C429 0.931 . S
Co435 N432 2.135 . S
Co435 N438 2.121 . S
Co435 O443 2.055 . S
Co435 O446 2.039 . S
Co435 N449 2.140 . S
C436 O437 1.227 . S
C436 O446 1.265 . S
O437 C436 1.227 . S
N438 Co435 2.121 . S
N438 C440 1.375 . S
N438 C441 1.313 . S
C439 C440 1.338 1_545 S
C439 N442 1.377 . S
C439 H459 0.930 . S
C440 N438 1.375 . S
C440 C439 1.338 1_565 S
C440 H444 0.931 . S
C441 N438 1.313 . S
C441 N442 1.344 1_565 S
C441 H445 0.930 . S
N442 C439 1.377 . S
N442 C441 1.344 1_545 S
O443 Co435 2.055 . S
O443 C447 1.253 . S
H444 C440 0.931 . S
H445 C441 0.930 . S
O446 Co435 2.039 . S
O446 C436 1.265 . S
C447 O443 1.253 . S
C447 O448 1.227 . S
O448 C447 1.227 . S
N449 Co435 2.140 . S
N449 C452 1.346 . S
N449 C453 1.345 . S
C450 C451 1.387 . S
C450 C454 1.391 . S
C451 C450 1.387 . S
C451 C452 1.369 . S
C451 H460 0.929 . S
C452 N449 1.346 . S
C452 C451 1.369 . S
C452 H455 0.928 . S
C453 N449 1.345 . S
C453 C454 1.371 . S
C453 H456 0.931 . S
C454 C450 1.391 . S
C454 C453 1.371 . S
C454 H461 0.930 . S
H455 C452 0.928 . S
H456 C453 0.931 . S
H457 C433 0.930 . S
H458 C430 0.930 . S
H459 C439 0.930 . S
H460 C451 0.929 . S
H461 C454 0.930 . S
C462 C463 1.351 1_565 S
C462 N465 1.368 . S
C462 H467 0.934 . S
C463 C462 1.351 1_545 S
C463 N464 1.373 1_545 S
C463 H491 0.930 1_655 S
N464 C463 1.373 1_565 S
N464 C466 1.340 . S
N465 C462 1.368 . S
N465 C466 1.321 . S
N465 Co468 2.135 . S
C466 N464 1.340 . S
C466 N465 1.321 . S
C466 H490 0.930 . S
H467 C462 0.934 . S
Co468 N465 2.135 . S
Co468 N471 2.121 . S
Co468 O476 2.055 . S
Co468 O479 2.039 . S
Co468 N482 2.140 . S
C469 O470 1.227 . S
C469 O479 1.265 . S
O470 C469 1.227 . S
N471 Co468 2.121 . S
N471 C473 1.375 . S
N471 C474 1.313 . S
C472 C473 1.338 . S
C472 N475 1.377 . S
C472 H492 0.930 . S
C473 N471 1.375 . S
C473 C472 1.338 . S
C473 H477 0.931 . S
C474 N471 1.313 . S
C474 N475 1.344 . S
C474 H478 0.930 . S
N475 C472 1.377 . S
N475 C474 1.344 . S
O476 Co468 2.055 . S
O476 C480 1.253 . S
H477 C473 0.931 . S
H478 C474 0.930 . S
O479 Co468 2.039 . S
O479 C469 1.265 . S
C480 O476 1.253 . S
C480 O481 1.227 . S
O481 C480 1.227 . S
N482 Co468 2.140 . S
N482 C485 1.346 . S
N482 C486 1.345 . S
C483 C484 1.387 . S
C483 C487 1.391 1_455 S
C484 C483 1.387 . S
C484 C485 1.369 1_455 S
C484 H493 0.929 . S
C485 N482 1.346 . S
C485 C484 1.369 1_655 S
C485 H488 0.928 . S
C486 N482 1.345 . S
C486 C487 1.371 . S
C486 H489 0.931 . S
C487 C483 1.391 1_655 S
C487 C486 1.371 . S
C487 H494 0.930 . S
H488 C485 0.928 . S
H489 C486 0.931 . S
H490 C466 0.930 . S
H491 C463 0.930 1_455 S
H492 C472 0.930 . S
H493 C484 0.929 . S
H494 C487 0.930 . S
C495 C496 1.351 . S
C495 N498 1.368 . S
C495 H500 0.931 . S
C496 C495 1.351 . S
C496 N497 1.373 . S
C496 H524 0.930 . S
N497 C496 1.373 . S
N497 C499 1.340 . S
N498 C495 1.368 . S
N498 C499 1.321 . S
N498 Co501 2.135 . S
C499 N497 1.340 . S
C499 N498 1.321 . S
C499 H523 0.930 . S
H500 C495 0.931 . S
Co501 N498 2.135 . S
Co501 N504 2.121 . S
Co501 O509 2.055 . S
Co501 O512 2.039 . S
Co501 N515 2.140 . S
C502 O503 1.227 . S
C502 O512 1.265 . S
O503 C502 1.227 . S
N504 Co501 2.121 . S
N504 C506 1.375 . S
N504 C507 1.313 . S
C505 C506 1.338 1_565 S
C505 N508 1.377 . S
C505 H525 0.930 1_655 S
C506 N504 1.375 . S
C506 C505 1.338 1_545 S
C506 H510 0.931 . S
C507 N504 1.313 . S
C507 N508 1.344 1_545 S
C507 H511 0.930 . S
N508 C505 1.377 . S
N508 C507 1.344 1_565 S
O509 Co501 2.055 . S
O509 C513 1.253 . S
H510 C506 0.931 . S
H511 C507 0.930 . S
O512 Co501 2.039 . S
O512 C502 1.265 . S
C513 O509 1.253 . S
C513 O514 1.227 . S
O514 C513 1.227 . S
N515 Co501 2.140 . S
N515 C518 1.346 . S
N515 C519 1.345 . S
C516 C517 1.387 . S
C516 C520 1.391 . S
C517 C516 1.387 . S
C517 C518 1.369 . S
C517 H526 0.929 . S
C518 N515 1.346 . S
C518 C517 1.369 . S
C518 H521 0.928 . S
C519 N515 1.345 . S
C519 C520 1.371 . S
C519 H522 0.931 . S
C520 C516 1.391 . S
C520 C519 1.371 . S
C520 H527 0.930 1_556 S
H521 C518 0.928 . S
H522 C519 0.931 . S
H523 C499 0.930 . S
H524 C496 0.930 . S
H525 C505 0.930 1_455 S
H526 C517 0.929 . S
H527 C520 0.930 1_554 S
C528 C529 1.351 . S
C528 N531 1.368 . S
C528 H533 0.931 . S
C529 C528 1.351 . S
C529 N530 1.373 . S
C529 H557 0.930 1_655 S
N530 C529 1.373 . S
N530 C532 1.340 . S
N531 C528 1.368 . S
N531 C532 1.321 . S
N531 Co534 2.135 . S
C532 N530 1.340 . S
C532 N531 1.321 . S
C532 H556 0.930 . S
H533 C528 0.931 . S
Co534 N531 2.135 . S
Co534 N537 2.121 . S
Co534 O542 2.055 . S
Co534 O545 2.039 . S
Co534 N548 2.140 . S
C535 O536 1.227 . S
C535 O545 1.265 . S
O536 C535 1.227 . S
N537 Co534 2.121 . S
N537 C539 1.375 . S
N537 C540 1.313 . S
C538 C539 1.338 . S
C538 N541 1.377 . S
C538 H558 0.930 . S
C539 N537 1.375 . S
C539 C538 1.338 . S
C539 H543 0.931 . S
C540 N537 1.313 . S
C540 N541 1.344 . S
C540 H544 0.930 . S
N541 C538 1.377 . S
N541 C540 1.344 . S
O542 Co534 2.055 . S
O542 C546 1.253 . S
H543 C539 0.931 . S
H544 C540 0.930 . S
O545 Co534 2.039 . S
O545 C535 1.265 . S
C546 O542 1.253 . S
C546 O547 1.227 . S
O547 C546 1.227 . S
N548 Co534 2.140 . S
N548 C551 1.346 . S
N548 C552 1.345 . S
C549 C550 1.387 . S
C549 C553 1.391 1_455 S
C550 C549 1.387 . S
C550 C551 1.369 1_455 S
C550 H559 0.929 . S
C551 N548 1.346 . S
C551 C550 1.369 1_655 S
C551 H554 0.928 . S
C552 N548 1.345 . S
C552 C553 1.371 . S
C552 H555 0.931 . S
C553 C549 1.391 1_655 S
C553 C552 1.371 . S
C553 H560 0.930 . S
H554 C551 0.928 . S
H555 C552 0.931 . S
H556 C532 0.930 . S
H557 C529 0.930 1_455 S
H558 C538 0.930 . S
H559 C550 0.929 . S
H560 C553 0.930 . S
C561 C562 1.351 . S
C561 N564 1.368 . S
C561 H566 0.931 . S
C562 C561 1.351 . S
C562 N563 1.373 . S
C562 H590 0.930 . S
N563 C562 1.373 . S
N563 C565 1.340 . S
N564 C561 1.368 . S
N564 C565 1.321 . S
N564 Co567 2.135 . S
C565 N563 1.340 . S
C565 N564 1.321 . S
C565 H589 0.930 . S
H566 C561 0.931 . S
Co567 N564 2.135 . S
Co567 N570 2.121 . S
Co567 O575 2.055 . S
Co567 O578 2.039 . S
Co567 N581 2.140 . S
C568 O569 1.227 . S
C568 O578 1.265 . S
O569 C568 1.227 . S
N570 Co567 2.121 . S
N570 C572 1.375 . S
N570 C573 1.313 . S
C571 C572 1.338 . S
C571 N574 1.377 . S
C571 H591 0.930 . S
C572 N570 1.375 . S
C572 C571 1.338 . S
C572 H576 0.931 . S
C573 N570 1.313 . S
C573 N574 1.344 . S
C573 H577 0.930 . S
N574 C571 1.377 . S
N574 C573 1.344 . S
O575 Co567 2.055 . S
O575 C579 1.253 . S
H576 C572 0.931 . S
H577 C573 0.930 . S
O578 Co567 2.039 . S
O578 C568 1.265 . S
C579 O575 1.253 . S
C579 O580 1.227 . S
O580 C579 1.227 . S
N581 Co567 2.140 . S
N581 C584 1.346 . S
N581 C585 1.345 . S
C582 C583 1.387 . S
C582 C586 1.391 . S
C583 C582 1.387 . S
C583 C584 1.369 . S
C583 H592 0.929 . S
C584 N581 1.346 . S
C584 C583 1.369 . S
C584 H587 0.928 . S
C585 N581 1.345 . S
C585 C586 1.371 . S
C585 H588 0.931 . S
C586 C582 1.391 . S
C586 C585 1.371 . S
C586 H593 0.930 1_556 S
H587 C584 0.928 . S
H588 C585 0.931 . S
H589 C565 0.930 . S
H590 C562 0.930 . S
H591 C571 0.930 . S
H592 C583 0.929 . S
H593 C586 0.930 1_554 S
C594 C595 1.351 . S
C594 N597 1.368 . S
C594 H599 0.931 . S
C595 C594 1.351 . S
C595 N596 1.373 . S
C595 H623 0.930 . S
N596 C595 1.373 . S
N596 C598 1.340 . S
N597 C594 1.368 . S
N597 C598 1.321 . S
N597 Co600 2.135 . S
C598 N596 1.340 . S
C598 N597 1.321 . S
C598 H622 0.930 . S
H599 C594 0.931 . S
Co600 N597 2.135 . S
Co600 N603 2.121 . S
Co600 O608 2.055 . S
Co600 O611 2.039 . S
Co600 N614 2.140 . S
C601 O602 1.227 . S
C601 O611 1.265 . S
O602 C601 1.227 . S
N603 Co600 2.121 . S
N603 C605 1.375 . S
N603 C606 1.313 . S
C604 C605 1.338 . S
C604 N607 1.377 . S
C604 H624 0.930 . S
C605 N603 1.375 . S
C605 C604 1.338 . S
C605 H609 0.931 . S
C606 N603 1.313 . S
C606 N607 1.344 . S
C606 H610 0.930 . S
N607 C604 1.377 . S
N607 C606 1.344 . S
O608 Co600 2.055 . S
O608 C612 1.253 . S
H609 C605 0.931 . S
H610 C606 0.930 . S
O611 Co600 2.039 . S
O611 C601 1.265 . S
C612 O608 1.253 . S
C612 O613 1.227 . S
O613 C612 1.227 . S
N614 Co600 2.140 . S
N614 C617 1.346 . S
N614 C618 1.345 . S
C615 C616 1.387 . S
C615 C619 1.391 . S
C616 C615 1.387 . S
C616 C617 1.369 . S
C616 H625 0.929 . S
C617 N614 1.346 . S
C617 C616 1.369 . S
C617 H620 0.928 . S
C618 N614 1.345 . S
C618 C619 1.371 . S
C618 H621 0.931 . S
C619 C615 1.391 . S
C619 C618 1.371 . S
C619 H626 0.930 . S
H620 C617 0.928 . S
H621 C618 0.931 . S
H622 C598 0.930 . S
H623 C595 0.930 . S
H624 C604 0.930 . S
H625 C616 0.929 . S
H626 C619 0.930 . S
C627 C628 1.351 . S
C627 N630 1.368 . S
C627 H632 0.931 . S
C628 C627 1.351 . S
C628 N629 1.373 . S
C628 H656 0.930 . S
N629 C628 1.373 . S
N629 C631 1.340 . S
N630 C627 1.368 . S
N630 C631 1.321 . S
N630 Co633 2.135 . S
C631 N629 1.340 . S
C631 N630 1.321 . S
C631 H655 0.930 . S
H632 C627 0.931 . S
Co633 N630 2.135 . S
Co633 N636 2.121 . S
Co633 O641 2.055 . S
Co633 O644 2.039 . S
Co633 N647 2.140 . S
C634 O635 1.227 . S
C634 O644 1.265 . S
O635 C634 1.227 . S
N636 Co633 2.121 . S
N636 C638 1.375 . S
N636 C639 1.313 . S
C637 C638 1.338 . S
C637 N640 1.377 . S
C637 H657 0.930 1_655 S
C638 N636 1.375 . S
C638 C637 1.338 . S
C638 H642 0.931 . S
C639 N636 1.313 . S
C639 N640 1.344 . S
C639 H643 0.930 . S
N640 C637 1.377 . S
N640 C639 1.344 . S
O641 Co633 2.055 . S
O641 C645 1.253 . S
H642 C638 0.931 . S
H643 C639 0.930 . S
O644 Co633 2.039 . S
O644 C634 1.265 . S
C645 O641 1.253 . S
C645 O646 1.227 . S
O646 C645 1.227 . S
N647 Co633 2.140 . S
N647 C650 1.346 . S
N647 C651 1.345 . S
C648 C649 1.387 . S
C648 C652 1.391 . S
C649 C648 1.387 . S
C649 C650 1.369 . S
C649 H658 0.929 . S
C650 N647 1.346 . S
C650 C649 1.369 . S
C650 H653 0.928 . S
C651 N647 1.345 . S
C651 C652 1.371 . S
C651 H654 0.931 . S
C652 C648 1.391 . S
C652 C651 1.371 . S
C652 H659 0.930 . S
H653 C650 0.928 . S
H654 C651 0.931 . S
H655 C631 0.930 . S
H656 C628 0.930 . S
H657 C637 0.930 1_455 S
H658 C649 0.929 . S
H659 C652 0.930 . S
C660 C661 1.351 . S
C660 N663 1.368 . S
C660 H665 0.931 . S
C661 C660 1.351 . S
C661 N662 1.373 . S
C661 H689 0.930 1_655 S
N662 C661 1.373 . S
N662 C664 1.340 . S
N663 C660 1.368 . S
N663 C664 1.321 . S
N663 Co666 2.135 . S
C664 N662 1.340 . S
C664 N663 1.321 . S
C664 H688 0.930 . S
H665 C660 0.931 . S
Co666 N663 2.135 . S
Co666 N669 2.121 . S
Co666 O674 2.055 . S
Co666 O677 2.039 . S
Co666 N680 2.140 . S
C667 O668 1.227 . S
C667 O677 1.265 . S
O668 C667 1.227 . S
N669 Co666 2.121 . S
N669 C671 1.375 . S
N669 C672 1.313 . S
C670 C671 1.338 . S
C670 N673 1.377 . S
C670 H690 0.930 . S
C671 N669 1.375 . S
C671 C670 1.338 . S
C671 H675 0.931 . S
C672 N669 1.313 . S
C672 N673 1.344 . S
C672 H676 0.930 . S
N673 C670 1.377 . S
N673 C672 1.344 . S
O674 Co666 2.055 . S
O674 C678 1.253 . S
H675 C671 0.931 . S
H676 C672 0.930 . S
O677 Co666 2.039 . S
O677 C667 1.265 . S
C678 O674 1.253 . S
C678 O679 1.227 . S
O679 C678 1.227 . S
N680 Co666 2.140 . S
N680 C683 1.346 . S
N680 C684 1.345 . S
C681 C682 1.387 . S
C681 C685 1.391 1_455 S
C682 C681 1.387 . S
C682 C683 1.369 1_455 S
C682 H691 0.929 . S
C683 N680 1.346 . S
C683 C682 1.369 1_655 S
C683 H686 0.928 . S
C684 N680 1.345 . S
C684 C685 1.371 . S
C684 H687 0.931 . S
C685 C681 1.391 1_655 S
C685 C684 1.371 . S
C685 H692 0.930 . S
H686 C683 0.928 . S
H687 C684 0.931 . S
H688 C664 0.930 . S
H689 C661 0.930 1_455 S
H690 C670 0.930 . S
H691 C682 0.929 . S
H692 C685 0.930 . S
C693 C694 1.351 . S
C693 N696 1.368 . S
C693 H698 0.931 . S
C694 C693 1.351 . S
C694 N695 1.373 . S
C694 H722 0.930 . S
N695 C694 1.373 . S
N695 C697 1.340 . S
N696 C693 1.368 . S
N696 C697 1.321 . S
N696 Co699 2.135 . S
C697 N695 1.340 . S
C697 N696 1.321 . S
C697 H721 0.930 . S
H698 C693 0.931 . S
Co699 N696 2.135 . S
Co699 N702 2.121 . S
Co699 O707 2.055 . S
Co699 O710 2.039 . S
Co699 N713 2.140 . S
C700 O701 1.227 . S
C700 O710 1.265 . S
O701 C700 1.227 . S
N702 Co699 2.121 . S
N702 C704 1.375 . S
N702 C705 1.313 . S
C703 C704 1.338 . S
C703 N706 1.377 . S
C703 H723 0.930 1_655 S
C704 N702 1.375 . S
C704 C703 1.338 . S
C704 H708 0.931 . S
C705 N702 1.313 . S
C705 N706 1.344 . S
C705 H709 0.930 . S
N706 C703 1.377 . S
N706 C705 1.344 . S
O707 Co699 2.055 . S
O707 C711 1.253 . S
H708 C704 0.931 . S
H709 C705 0.930 . S
O710 Co699 2.039 . S
O710 C700 1.265 . S
C711 O707 1.253 . S
C711 O712 1.227 . S
O712 C711 1.227 . S
N713 Co699 2.140 . S
N713 C716 1.346 . S
N713 C717 1.345 . S
C714 C715 1.387 . S
C714 C718 1.391 . S
C715 C714 1.387 . S
C715 C716 1.369 . S
C715 H724 0.929 . S
C716 N713 1.346 . S
C716 C715 1.369 . S
C716 H719 0.928 . S
C717 N713 1.345 . S
C717 C718 1.371 . S
C717 H720 0.931 . S
C718 C714 1.391 . S
C718 C717 1.371 . S
C718 H725 0.930 1_554 S
H719 C716 0.928 . S
H720 C717 0.931 . S
H721 C697 0.930 . S
H722 C694 0.930 . S
H723 C703 0.930 1_455 S
H724 C715 0.929 . S
H725 C718 0.930 1_556 S
C726 C727 1.351 . S
C726 N729 1.368 . S
C726 H731 0.931 . S
C727 C726 1.351 . S
C727 N728 1.373 . S
C727 H755 0.930 . S
N728 C727 1.373 . S
N728 C730 1.340 . S
N729 C726 1.368 . S
N729 C730 1.321 . S
N729 Co732 2.135 . S
C730 N728 1.340 . S
C730 N729 1.321 . S
C730 H754 0.930 . S
H731 C726 0.931 . S
Co732 N729 2.135 . S
Co732 N735 2.121 . S
Co732 O740 2.055 . S
Co732 O743 2.039 . S
Co732 N746 2.140 . S
C733 O734 1.227 . S
C733 O743 1.265 . S
O734 C733 1.227 . S
N735 Co732 2.121 . S
N735 C737 1.375 . S
N735 C738 1.313 . S
C736 C737 1.338 . S
C736 N739 1.377 . S
C736 H756 0.930 . S
C737 N735 1.375 . S
C737 C736 1.338 . S
C737 H741 0.931 . S
C738 N735 1.313 . S
C738 N739 1.344 . S
C738 H742 0.930 . S
N739 C736 1.377 . S
N739 C738 1.344 . S
O740 Co732 2.055 . S
O740 C744 1.253 . S
H741 C737 0.931 . S
H742 C738 0.930 . S
O743 Co732 2.039 . S
O743 C733 1.265 . S
C744 O740 1.253 . S
C744 O745 1.227 . S
O745 C744 1.227 . S
N746 Co732 2.140 . S
N746 C749 1.346 . S
N746 C750 1.345 . S
C747 C748 1.387 . S
C747 C751 1.391 . S
C748 C747 1.387 . S
C748 C749 1.369 . S
C748 H757 0.929 . S
C749 N746 1.346 . S
C749 C748 1.369 . S
C749 H752 0.928 . S
C750 N746 1.345 . S
C750 C751 1.371 . S
C750 H753 0.931 . S
C751 C747 1.391 . S
C751 C750 1.371 . S
C751 H758 0.930 . S
H752 C749 0.928 . S
H753 C750 0.931 . S
H754 C730 0.930 . S
H755 C727 0.930 . S
H756 C736 0.930 . S
H757 C748 0.929 . S
H758 C751 0.930 . S
C759 C760 1.351 . S
C759 N762 1.368 . S
C759 H764 0.931 . S
C760 C759 1.351 . S
C760 N761 1.373 . S
C760 H788 0.930 . S
N761 C760 1.373 . S
N761 C763 1.340 . S
N762 C759 1.368 . S
N762 C763 1.321 . S
N762 Co765 2.135 . S
C763 N761 1.340 . S
C763 N762 1.321 . S
C763 H787 0.930 . S
H764 C759 0.931 . S
Co765 N762 2.135 . S
Co765 N768 2.121 . S
Co765 O773 2.055 . S
Co765 O776 2.039 . S
Co765 N779 2.140 . S
C766 O767 1.227 . S
C766 O776 1.265 . S
O767 C766 1.227 . S
N768 Co765 2.121 . S
N768 C770 1.375 . S
N768 C771 1.313 . S
C769 C770 1.338 . S
C769 N772 1.377 . S
C769 H789 0.930 . S
C770 N768 1.375 . S
C770 C769 1.338 . S
C770 H774 0.931 . S
C771 N768 1.313 . S
C771 N772 1.344 . S
C771 H775 0.930 . S
N772 C769 1.377 . S
N772 C771 1.344 . S
O773 Co765 2.055 . S
O773 C777 1.253 . S
H774 C770 0.931 . S
H775 C771 0.930 . S
O776 Co765 2.039 . S
O776 C766 1.265 . S
C777 O773 1.253 . S
C777 O778 1.227 . S
O778 C777 1.227 . S
N779 Co765 2.140 . S
N779 C782 1.346 . S
N779 C783 1.345 . S
C780 C781 1.387 . S
C780 C784 1.391 . S
C781 C780 1.387 . S
C781 C782 1.369 . S
C781 H790 0.929 . S
C782 N779 1.346 . S
C782 C781 1.369 . S
C782 H785 0.928 . S
C783 N779 1.345 . S
C783 C784 1.371 . S
C783 H786 0.931 . S
C784 C780 1.391 . S
C784 C783 1.371 . S
C784 H791 0.930 . S
H785 C782 0.928 . S
H786 C783 0.931 . S
H787 C763 0.930 . S
H788 C760 0.930 . S
H789 C769 0.930 . S
H790 C781 0.929 . S
H791 C784 0.930 . S
C792 C793 1.351 . S
C792 N795 1.368 . S
C792 H797 0.931 . S
C793 C792 1.351 . S
C793 N794 1.373 . S
C793 H821 0.930 1_455 S
N794 C793 1.373 . S
N794 C796 1.340 . S
N795 C792 1.368 . S
N795 C796 1.321 . S
N795 Co798 2.135 . S
C796 N794 1.340 . S
C796 N795 1.321 . S
C796 H820 0.930 . S
H797 C792 0.931 . S
Co798 N795 2.135 . S
Co798 N801 2.121 . S
Co798 O806 2.055 . S
Co798 O809 2.039 . S
Co798 N812 2.140 . S
C799 O800 1.227 . S
C799 O809 1.265 . S
O800 C799 1.227 . S
N801 Co798 2.121 . S
N801 C803 1.375 . S
N801 C804 1.313 . S
C802 C803 1.338 . S
C802 N805 1.377 . S
C802 H822 0.930 . S
C803 N801 1.375 . S
C803 C802 1.338 . S
C803 H807 0.931 . S
C804 N801 1.313 . S
C804 N805 1.344 . S
C804 H808 0.930 . S
N805 C802 1.377 . S
N805 C804 1.344 . S
O806 Co798 2.055 . S
O806 C810 1.253 . S
H807 C803 0.931 . S
H808 C804 0.930 . S
O809 Co798 2.039 . S
O809 C799 1.265 . S
C810 O806 1.253 . S
C810 O811 1.227 . S
O811 C810 1.227 . S
N812 Co798 2.140 . S
N812 C815 1.346 . S
N812 C816 1.345 . S
C813 C814 1.387 . S
C813 C817 1.391 1_655 S
C814 C813 1.387 . S
C814 C815 1.369 1_655 S
C814 H823 0.929 . S
C815 N812 1.346 . S
C815 C814 1.369 1_455 S
C815 H818 0.928 . S
C816 N812 1.345 . S
C816 C817 1.371 . S
C816 H819 0.931 . S
C817 C813 1.391 1_455 S
C817 C816 1.371 . S
C817 H824 0.930 . S
H818 C815 0.928 . S
H819 C816 0.931 . S
H820 C796 0.930 . S
H821 C793 0.930 1_655 S
H822 C802 0.930 . S
H823 C814 0.929 . S
H824 C817 0.930 . S
C825 C826 1.351 . S
C825 N828 1.368 . S
C825 H830 0.931 . S
C826 C825 1.351 . S
C826 N827 1.373 . S
C826 H854 0.930 . S
N827 C826 1.373 . S
N827 C829 1.340 . S
N828 C825 1.368 . S
N828 C829 1.321 . S
N828 Co831 2.135 . S
C829 N827 1.340 . S
C829 N828 1.321 . S
C829 H853 0.930 . S
H830 C825 0.931 . S
Co831 N828 2.135 . S
Co831 N834 2.121 . S
Co831 O839 2.055 . S
Co831 O842 2.039 . S
Co831 N845 2.140 . S
C832 O833 1.227 . S
C832 O842 1.265 . S
O833 C832 1.227 . S
N834 Co831 2.121 . S
N834 C836 1.375 . S
N834 C837 1.313 . S
C835 C836 1.338 . S
C835 N838 1.377 . S
C835 H855 0.930 . S
C836 N834 1.375 . S
C836 C835 1.338 . S
C836 H840 0.931 . S
C837 N834 1.313 . S
C837 N838 1.344 . S
C837 H841 0.930 . S
N838 C835 1.377 . S
N838 C837 1.344 . S
O839 Co831 2.055 . S
O839 C843 1.253 . S
H840 C836 0.931 . S
H841 C837 0.930 . S
O842 Co831 2.039 . S
O842 C832 1.265 . S
C843 O839 1.253 . S
C843 O844 1.227 . S
O844 C843 1.227 . S
N845 Co831 2.140 . S
N845 C848 1.346 . S
N845 C849 1.345 . S
C846 C847 1.387 . S
C846 C850 1.391 . S
C847 C846 1.387 . S
C847 C848 1.369 . S
C847 H856 0.929 . S
C848 N845 1.346 . S
C848 C847 1.369 . S
C848 H851 0.928 . S
C849 N845 1.345 . S
C849 C850 1.371 . S
C849 H852 0.931 . S
C850 C846 1.391 . S
C850 C849 1.371 . S
C850 H857 0.930 1_554 S
H851 C848 0.928 . S
H852 C849 0.931 . S
H853 C829 0.930 . S
H854 C826 0.930 . S
H855 C835 0.930 . S
H856 C847 0.929 . S
H857 C850 0.930 1_556 S
C858 C859 1.351 . S
C858 N861 1.368 . S
C858 H863 0.931 . S
C859 C858 1.351 . S
C859 N860 1.373 . S
C859 H887 0.930 . S
N860 C859 1.373 . S
N860 C862 1.340 . S
N861 C858 1.368 . S
N861 C862 1.321 . S
N861 Co864 2.135 . S
C862 N860 1.340 . S
C862 N861 1.321 . S
C862 H886 0.930 . S
H863 C858 0.931 . S
Co864 N861 2.135 . S
Co864 N867 2.121 . S
Co864 O872 2.055 . S
Co864 O875 2.039 . S
Co864 N878 2.140 . S
C865 O866 1.227 . S
C865 O875 1.265 . S
O866 C865 1.227 . S
N867 Co864 2.121 . S
N867 C869 1.375 . S
N867 C870 1.313 . S
C868 C869 1.338 . S
C868 N871 1.377 . S
C868 H888 0.930 . S
C869 N867 1.375 . S
C869 C868 1.338 . S
C869 H873 0.931 . S
C870 N867 1.313 . S
C870 N871 1.344 . S
C870 H874 0.930 . S
N871 C868 1.377 . S
N871 C870 1.344 . S
O872 Co864 2.055 . S
O872 C876 1.253 . S
H873 C869 0.931 . S
H874 C870 0.930 . S
O875 Co864 2.039 . S
O875 C865 1.265 . S
C876 O872 1.253 . S
C876 O877 1.227 . S
O877 C876 1.227 . S
N878 Co864 2.140 . S
N878 C881 1.346 . S
N878 C882 1.345 . S
C879 C880 1.387 . S
C879 C883 1.391 . S
C880 C879 1.387 . S
C880 C881 1.369 . S
C880 H889 0.929 . S
C881 N878 1.346 . S
C881 C880 1.369 . S
C881 H884 0.928 . S
C882 N878 1.345 . S
C882 C883 1.371 . S
C882 H885 0.931 . S
C883 C879 1.391 . S
C883 C882 1.371 . S
C883 H890 0.930 . S
H884 C881 0.928 . S
H885 C882 0.931 . S
H886 C862 0.930 . S
H887 C859 0.930 . S
H888 C868 0.930 . S
H889 C880 0.929 . S
H890 C883 0.930 . S
C891 C892 1.351 . S
C891 N894 1.368 . S
C891 H896 0.931 . S
C892 C891 1.351 . S
C892 N893 1.373 . S
C892 H920 0.930 . S
N893 C892 1.373 . S
N893 C895 1.340 . S
N894 C891 1.368 . S
N894 C895 1.321 . S
N894 Co897 2.135 . S
C895 N893 1.340 . S
C895 N894 1.321 . S
C895 H919 0.930 . S
H896 C891 0.931 . S
Co897 N894 2.135 . S
Co897 N900 2.121 . S
Co897 O905 2.055 . S
Co897 O908 2.039 . S
Co897 N911 2.140 . S
C898 O899 1.227 . S
C898 O908 1.265 . S
O899 C898 1.227 . S
N900 Co897 2.121 . S
N900 C902 1.375 . S
N900 C903 1.313 . S
C901 C902 1.338 . S
C901 N904 1.377 . S
C901 H921 0.930 1_455 S
C902 N900 1.375 . S
C902 C901 1.338 . S
C902 H906 0.931 . S
C903 N900 1.313 . S
C903 N904 1.344 . S
C903 H907 0.930 . S
N904 C901 1.377 . S
N904 C903 1.344 . S
O905 Co897 2.055 . S
O905 C909 1.253 . S
H906 C902 0.931 . S
H907 C903 0.930 . S
O908 Co897 2.039 . S
O908 C898 1.265 . S
C909 O905 1.253 . S
C909 O910 1.227 . S
O910 C909 1.227 . S
N911 Co897 2.140 . S
N911 C914 1.346 . S
N911 C915 1.345 . S
C912 C913 1.387 . S
C912 C916 1.391 . S
C913 C912 1.387 . S
C913 C914 1.369 . S
C913 H922 0.929 . S
C914 N911 1.346 . S
C914 C913 1.369 . S
C914 H917 0.928 . S
C915 N911 1.345 . S
C915 C916 1.371 . S
C915 H918 0.931 . S
C916 C912 1.391 . S
C916 C915 1.371 . S
C916 H923 0.930 . S
H917 C914 0.928 . S
H918 C915 0.931 . S
H919 C895 0.930 . S
H920 C892 0.930 . S
H921 C901 0.930 1_655 S
H922 C913 0.929 . S
H923 C916 0.930 . S
C924 C925 1.351 . S
C924 N927 1.368 . S
C924 H929 0.931 . S
C925 C924 1.351 . S
C925 N926 1.373 . S
C925 H953 0.930 1_455 S
N926 C925 1.373 . S
N926 C928 1.340 . S
N927 C924 1.368 . S
N927 C928 1.321 . S
N927 Co930 2.135 . S
C928 N926 1.340 . S
C928 N927 1.321 . S
C928 H952 0.930 . S
H929 C924 0.931 . S
Co930 N927 2.135 . S
Co930 N933 2.121 . S
Co930 O938 2.055 . S
Co930 O941 2.039 . S
Co930 N944 2.140 . S
C931 O932 1.227 . S
C931 O941 1.265 . S
O932 C931 1.227 . S
N933 Co930 2.121 . S
N933 C935 1.375 . S
N933 C936 1.313 . S
C934 C935 1.338 . S
C934 N937 1.377 . S
C934 H954 0.930 . S
C935 N933 1.375 . S
C935 C934 1.338 . S
C935 H939 0.931 . S
C936 N933 1.313 . S
C936 N937 1.344 . S
C936 H940 0.930 . S
N937 C934 1.377 . S
N937 C936 1.344 . S
O938 Co930 2.055 . S
O938 C942 1.253 . S
H939 C935 0.931 . S
H940 C936 0.930 . S
O941 Co930 2.039 . S
O941 C931 1.265 . S
C942 O938 1.253 . S
C942 O943 1.227 . S
O943 C942 1.227 . S
N944 Co930 2.140 . S
N944 C947 1.346 . S
N944 C948 1.345 . S
C945 C946 1.387 . S
C945 C949 1.391 1_655 S
C946 C945 1.387 . S
C946 C947 1.369 1_655 S
C946 H955 0.929 . S
C947 N944 1.346 . S
C947 C946 1.369 1_455 S
C947 H950 0.928 . S
C948 N944 1.345 . S
C948 C949 1.371 . S
C948 H951 0.931 . S
C949 C945 1.391 1_455 S
C949 C948 1.371 . S
C949 H956 0.930 . S
H950 C947 0.928 . S
H951 C948 0.931 . S
H952 C928 0.930 . S
H953 C925 0.930 1_655 S
H954 C934 0.930 . S
H955 C946 0.929 . S
H956 C949 0.930 . S
C957 C958 1.351 . S
C957 N960 1.368 . S
C957 H962 0.931 . S
C958 C957 1.351 . S
C958 N959 1.373 . S
C958 H986 0.930 . S
N959 C958 1.373 . S
N959 C961 1.340 . S
N960 C957 1.368 . S
N960 C961 1.321 . S
N960 Co963 2.135 . S
C961 N959 1.340 . S
C961 N960 1.321 . S
C961 H985 0.930 . S
H962 C957 0.931 . S
Co963 N960 2.135 . S
Co963 N966 2.121 . S
Co963 O971 2.055 . S
Co963 O974 2.039 . S
Co963 N977 2.140 . S
C964 O965 1.227 . S
C964 O974 1.265 . S
O965 C964 1.227 . S
N966 Co963 2.121 . S
N966 C968 1.375 . S
N966 C969 1.313 . S
C967 C968 1.338 . S
C967 N970 1.377 . S
C967 H987 0.930 1_455 S
C968 N966 1.375 . S
C968 C967 1.338 . S
C968 H972 0.931 . S
C969 N966 1.313 . S
C969 N970 1.344 . S
C969 H973 0.930 . S
N970 C967 1.377 . S
N970 C969 1.344 . S
O971 Co963 2.055 . S
O971 C975 1.253 . S
H972 C968 0.931 . S
H973 C969 0.930 . S
O974 Co963 2.039 . S
O974 C964 1.265 . S
C975 O971 1.253 . S
C975 O976 1.227 . S
O976 C975 1.227 . S
N977 Co963 2.140 . S
N977 C980 1.346 . S
N977 C981 1.345 . S
C978 C979 1.387 . S
C978 C982 1.391 . S
C979 C978 1.387 . S
C979 C980 1.369 . S
C979 H988 0.929 . S
C980 N977 1.346 . S
C980 C979 1.369 . S
C980 H983 0.928 . S
C981 N977 1.345 . S
C981 C982 1.371 . S
C981 H984 0.931 . S
C982 C978 1.391 . S
C982 C981 1.371 . S
C982 H989 0.930 1_556 S
H983 C980 0.928 . S
H984 C981 0.931 . S
H985 C961 0.930 . S
H986 C958 0.930 . S
H987 C967 0.930 1_655 S
H988 C979 0.929 . S
H989 C982 0.930 1_554 S
C990 C991 1.351 . S
C990 N993 1.368 . S
C990 H995 0.931 . S
C991 C990 1.351 . S
C991 N992 1.373 . S
C991 H1019 0.930 . S
N992 C991 1.373 . S
N992 C994 1.340 . S
N993 C990 1.368 . S
N993 C994 1.321 . S
N993 Co996 2.135 . S
C994 N992 1.340 . S
C994 N993 1.321 . S
C994 H1018 0.930 . S
H995 C990 0.931 . S
Co996 N993 2.135 . S
Co996 N999 2.121 . S
Co996 O1004 2.055 . S
Co996 O1007 2.039 . S
Co996 N1010 2.140 . S
C997 O998 1.227 . S
C997 O1007 1.265 . S
O998 C997 1.227 . S
N999 Co996 2.121 . S
N999 C1001 1.375 . S
N999 C1002 1.313 . S
C1000 C1001 1.338 . S
C1000 N1003 1.377 . S
C1000 H1020 0.930 . S
C1001 N999 1.375 . S
C1001 C1000 1.338 . S
C1001 H1005 0.931 . S
C1002 N999 1.313 . S
C1002 N1003 1.344 . S
C1002 H1006 0.930 . S
N1003 C1000 1.377 . S
N1003 C1002 1.344 . S
O1004 Co996 2.055 . S
O1004 C1008 1.253 . S
H1005 C1001 0.931 . S
H1006 C1002 0.930 . S
O1007 Co996 2.039 . S
O1007 C997 1.265 . S
C1008 O1004 1.253 . S
C1008 O1009 1.227 . S
O1009 C1008 1.227 . S
N1010 Co996 2.140 . S
N1010 C1013 1.346 . S
N1010 C1014 1.345 . S
C1011 C1012 1.387 . S
C1011 C1015 1.391 . S
C1012 C1011 1.387 . S
C1012 C1013 1.369 . S
C1012 H1021 0.929 . S
C1013 N1010 1.346 . S
C1013 C1012 1.369 . S
C1013 H1016 0.928 . S
C1014 N1010 1.345 . S
C1014 C1015 1.371 . S
C1014 H1017 0.931 . S
C1015 C1011 1.391 . S
C1015 C1014 1.371 . S
C1015 H1022 0.930 . S
H1016 C1013 0.928 . S
H1017 C1014 0.931 . S
H1018 C994 0.930 . S
H1019 C991 0.930 . S
H1020 C1000 0.930 . S
H1021 C1012 0.929 . S
H1022 C1015 0.930 . S
C1023 C1024 1.351 . S
C1023 N1026 1.368 . S
C1023 H1028 0.931 . S
C1024 C1023 1.351 . S
C1024 N1025 1.373 . S
C1024 H1052 0.930 . S
N1025 C1024 1.373 . S
N1025 C1027 1.340 . S
N1026 C1023 1.368 . S
N1026 C1027 1.321 . S
N1026 Co1029 2.135 . S
C1027 N1025 1.340 . S
C1027 N1026 1.321 . S
C1027 H1051 0.930 . S
H1028 C1023 0.931 . S
Co1029 N1026 2.135 . S
Co1029 N1032 2.121 . S
Co1029 O1037 2.055 . S
Co1029 O1040 2.039 . S
Co1029 N1043 2.140 . S
C1030 O1031 1.227 . S
C1030 O1040 1.265 . S
O1031 C1030 1.227 . S
N1032 Co1029 2.121 . S
N1032 C1034 1.375 . S
N1032 C1035 1.313 . S
C1033 C1034 1.338 . S
C1033 N1036 1.377 . S
C1033 H1053 0.930 . S
C1034 N1032 1.375 . S
C1034 C1033 1.338 . S
C1034 H1038 0.931 . S
C1035 N1032 1.313 . S
C1035 N1036 1.344 . S
C1035 H1039 0.930 . S
N1036 C1033 1.377 . S
N1036 C1035 1.344 . S
O1037 Co1029 2.055 . S
O1037 C1041 1.253 . S
H1038 C1034 0.931 . S
H1039 C1035 0.930 . S
O1040 Co1029 2.039 . S
O1040 C1030 1.265 . S
C1041 O1037 1.253 . S
C1041 O1042 1.227 . S
O1042 C1041 1.227 . S
N1043 Co1029 2.140 . S
N1043 C1046 1.346 . S
N1043 C1047 1.345 . S
C1044 C1045 1.387 . S
C1044 C1048 1.391 . S
C1045 C1044 1.387 . S
C1045 C1046 1.369 . S
C1045 H1054 0.929 . S
C1046 N1043 1.346 . S
C1046 C1045 1.369 . S
C1046 H1049 0.928 . S
C1047 N1043 1.345 . S
C1047 C1048 1.371 . S
C1047 H1050 0.931 . S
C1048 C1044 1.391 . S
C1048 C1047 1.371 . S
C1048 H1055 0.930 . S
H1049 C1046 0.928 . S
H1050 C1047 0.931 . S
H1051 C1027 0.930 . S
H1052 C1024 0.930 . S
H1053 C1033 0.930 . S
H1054 C1045 0.929 . S
H1055 C1048 0.930 . S
N13 N805 2.580 . S
N310 N46 2.580 1_645 S
N871 N79 2.580 . S
N112 N376 2.580 1_546 S
N937 N145 2.580 . S
N442 N178 2.580 1_545 S
N211 N1003 2.580 . S
N244 N508 2.580 1_444 S
N277 N541 2.580 . S
N343 N607 2.580 . S
N673 N409 2.580 . S
N475 N739 2.580 . S
N574 N838 2.580 1_556 S
N904 N640 2.580 1_455 S
N970 N706 2.580 1_456 S
N772 N1036 2.580 . S
C7 N827 2.475 . S
N332 C40 2.475 1_655 S
C73 N893 2.475 . S
N266 C106 2.475 . S
C139 N1025 2.475 . S
C172 N398 2.475 . S
N959 C205 2.475 . S
N464 C238 2.475 1_655 S
N563 C271 2.475 . S
N68 C304 2.475 1_455 S
C337 N629 2.475 . S
C370 N2 2.475 . S
N761 C403 2.475 . S
N134 C436 2.475 . S
C469 N695 2.475 . S
C502 N200 2.475 1_655 S
N299 C535 2.475 . S
N860 C568 2.475 . S
N365 C601 2.475 . S
C634 N794 2.475 1_655 S
N497 C667 2.475 . S
C700 N926 2.475 1_655 S
N431 C733 2.475 . S
C766 N992 2.475 . S
N35 C799 2.475 . S
N596 C832 2.475 . S
N101 C865 2.475 . S
C898 N530 2.475 1_455 S
C931 N233 2.475 . S
N662 C964 2.475 1_655 S
N167 C997 2.475 . S
C1030 N728 2.475 . S
C615 C21 1.070 . S
C648 C54 1.070 1_655 S
C549 C87 1.070 1_455 S
C582 C120 1.070 . S
C153 C747 1.070 . S
C780 C186 1.070 . S
C219 C681 1.070 1_655 S
C714 C252 1.070 1_655 S
C879 C285 1.070 . S
C318 C912 1.070 1_655 S
C351 C813 1.070 1_455 S
C384 C846 1.070 . S
C1011 C417 1.070 . S
C450 C1044 1.070 . S
C483 C945 1.070 1_455 S
C516 C978 1.070 1_655 S
C150 C18 2.759 1_565 S
C183 C51 2.759 . S
C84 C216 2.759 1_565 S
C249 C117 2.759 1_554 S
C282 C414 2.759 1_565 S
C447 C315 2.759 . S
C348 C480 2.759 1_545 S
C513 C381 2.759 1_556 S
C546 C678 2.759 . S
C711 C579 2.759 1_554 S
C744 C612 2.759 . S
C645 C777 2.759 . S
C942 C810 2.759 . S
C843 C975 2.759 1_554 S
C876 C1008 2.759 . S
C909 C1041 2.759 . S
