# Generated by pormake.
# Topology ana, (4)-cn, num edge types: 1
# Building blocks:
#     Node 0, Type 0, BuildingBlock: AZAVOO_clean_sbu_0, # of connection points: 4
#     Node 1, Type 0, BuildingBlock: AZAVOO_clean_sbu_0, # of connection points: 4
#     Node 2, Type 0, BuildingBlock: AZAVOO_clean_sbu_0, # of connection points: 4
#     Node 3, Type 0, BuildingBlock: AZAVOO_clean_sbu_0, # of connection points: 4
#     Node 4, Type 0, BuildingBlock: AZAVOO_clean_sbu_0, # of connection points: 4
#     Node 5, Type 0, BuildingBlock: AZAVOO_clean_sbu_0, # of connection points: 4
#     Node 6, Type 0, BuildingBlock: AZAVOO_clean_sbu_0, # of connection points: 4
#     Node 7, Type 0, BuildingBlock: AZAVOO_clean_sbu_0, # of connection points: 4
#     Node 8, Type 0, BuildingBlock: AZAVOO_clean_sbu_0, # of connection points: 4
#     Node 9, Type 0, BuildingBlock: AZAVOO_clean_sbu_0, # of connection points: 4
#     Node 10, Type 0, BuildingBlock: AZAVOO_clean_sbu_0, # of connection points: 4
#     Node 11, Type 0, BuildingBlock: AZAVOO_clean_sbu_0, # of connection points: 4
#     Node 12, Type 0, BuildingBlock: AZAVOO_clean_sbu_0, # of connection points: 4
#     Node 13, Type 0, BuildingBlock: AZAVOO_clean_sbu_0, # of connection points: 4
#     Node 14, Type 0, BuildingBlock: AZAVOO_clean_sbu_0, # of connection points: 4
#     Node 15, Type 0, BuildingBlock: AZAVOO_clean_sbu_0, # of connection points: 4
#     Node 16, Type 0, BuildingBlock: AZAVOO_clean_sbu_0, # of connection points: 4
#     Node 17, Type 0, BuildingBlock: AZAVOO_clean_sbu_0, # of connection points: 4
#     Node 18, Type 0, BuildingBlock: AZAVOO_clean_sbu_0, # of connection points: 4
#     Node 19, Type 0, BuildingBlock: AZAVOO_clean_sbu_0, # of connection points: 4
#     Node 20, Type 0, BuildingBlock: AZAVOO_clean_sbu_0, # of connection points: 4
#     Node 21, Type 0, BuildingBlock: AZAVOO_clean_sbu_0, # of connection points: 4
#     Node 22, Type 0, BuildingBlock: AZAVOO_clean_sbu_0, # of connection points: 4
#     Node 23, Type 0, BuildingBlock: AZAVOO_clean_sbu_0, # of connection points: 4
#     Node 24, Type 0, BuildingBlock: AZAVOO_clean_sbu_0, # of connection points: 4
#     Node 25, Type 0, BuildingBlock: AZAVOO_clean_sbu_0, # of connection points: 4
#     Node 26, Type 0, BuildingBlock: AZAVOO_clean_sbu_0, # of connection points: 4
#     Node 27, Type 0, BuildingBlock: AZAVOO_clean_sbu_0, # of connection points: 4
#     Node 28, Type 0, BuildingBlock: AZAVOO_clean_sbu_0, # of connection points: 4
#     Node 29, Type 0, BuildingBlock: AZAVOO_clean_sbu_0, # of connection points: 4
#     Node 30, Type 0, BuildingBlock: AZAVOO_clean_sbu_0, # of connection points: 4
#     Node 31, Type 0, BuildingBlock: AZAVOO_clean_sbu_0, # of connection points: 4
#     Node 32, Type 0, BuildingBlock: AZAVOO_clean_sbu_0, # of connection points: 4
#     Node 33, Type 0, BuildingBlock: AZAVOO_clean_sbu_0, # of connection points: 4
#     Node 34, Type 0, BuildingBlock: AZAVOO_clean_sbu_0, # of connection points: 4
#     Node 35, Type 0, BuildingBlock: AZAVOO_clean_sbu_0, # of connection points: 4
#     Node 36, Type 0, BuildingBlock: AZAVOO_clean_sbu_0, # of connection points: 4
#     Node 37, Type 0, BuildingBlock: AZAVOO_clean_sbu_0, # of connection points: 4
#     Node 38, Type 0, BuildingBlock: AZAVOO_clean_sbu_0, # of connection points: 4
#     Node 39, Type 0, BuildingBlock: AZAVOO_clean_sbu_0, # of connection points: 4
#     Node 40, Type 0, BuildingBlock: AZAVOO_clean_sbu_0, # of connection points: 4
#     Node 41, Type 0, BuildingBlock: AZAVOO_clean_sbu_0, # of connection points: 4
#     Node 42, Type 0, BuildingBlock: AZAVOO_clean_sbu_0, # of connection points: 4
#     Node 43, Type 0, BuildingBlock: AZAVOO_clean_sbu_0, # of connection points: 4
#     Node 44, Type 0, BuildingBlock: AZAVOO_clean_sbu_0, # of connection points: 4
#     Node 45, Type 0, BuildingBlock: AZAVOO_clean_sbu_0, # of connection points: 4
#     Node 46, Type 0, BuildingBlock: AZAVOO_clean_sbu_0, # of connection points: 4
#     Node 47, Type 0, BuildingBlock: AZAVOO_clean_sbu_0, # of connection points: 4
#     Edge 48, Type (0, 0), BuildingBlock: KIFKEQ_clean_linker_1, # of connection points: 2
#     Edge 49, Type (0, 0), BuildingBlock: KIFKEQ_clean_linker_1, # of connection points: 2
#     Edge 50, Type (0, 0), BuildingBlock: KIFKEQ_clean_linker_1, # of connection points: 2
#     Edge 51, Type (0, 0), BuildingBlock: KIFKEQ_clean_linker_1, # of connection points: 2
#     Edge 52, Type (0, 0), BuildingBlock: KIFKEQ_clean_linker_1, # of connection points: 2
#     Edge 53, Type (0, 0), BuildingBlock: KIFKEQ_clean_linker_1, # of connection points: 2
#     Edge 54, Type (0, 0), BuildingBlock: KIFKEQ_clean_linker_1, # of connection points: 2
#     Edge 55, Type (0, 0), BuildingBlock: KIFKEQ_clean_linker_1, # of connection points: 2
#     Edge 56, Type (0, 0), BuildingBlock: KIFKEQ_clean_linker_1, # of connection points: 2
#     Edge 57, Type (0, 0), BuildingBlock: KIFKEQ_clean_linker_1, # of connection points: 2
#     Edge 58, Type (0, 0), BuildingBlock: KIFKEQ_clean_linker_1, # of connection points: 2
#     Edge 59, Type (0, 0), BuildingBlock: KIFKEQ_clean_linker_1, # of connection points: 2
#     Edge 60, Type (0, 0), BuildingBlock: KIFKEQ_clean_linker_1, # of connection points: 2
#     Edge 61, Type (0, 0), BuildingBlock: KIFKEQ_clean_linker_1, # of connection points: 2
#     Edge 62, Type (0, 0), BuildingBlock: KIFKEQ_clean_linker_1, # of connection points: 2
#     Edge 63, Type (0, 0), BuildingBlock: KIFKEQ_clean_linker_1, # of connection points: 2
#     Edge 64, Type (0, 0), BuildingBlock: KIFKEQ_clean_linker_1, # of connection points: 2
#     Edge 65, Type (0, 0), BuildingBlock: KIFKEQ_clean_linker_1, # of connection points: 2
#     Edge 66, Type (0, 0), BuildingBlock: KIFKEQ_clean_linker_1, # of connection points: 2
#     Edge 67, Type (0, 0), BuildingBlock: KIFKEQ_clean_linker_1, # of connection points: 2
#     Edge 68, Type (0, 0), BuildingBlock: KIFKEQ_clean_linker_1, # of connection points: 2
#     Edge 69, Type (0, 0), BuildingBlock: KIFKEQ_clean_linker_1, # of connection points: 2
#     Edge 70, Type (0, 0), BuildingBlock: KIFKEQ_clean_linker_1, # of connection points: 2
#     Edge 71, Type (0, 0), BuildingBlock: KIFKEQ_clean_linker_1, # of connection points: 2
#     Edge 72, Type (0, 0), BuildingBlock: KIFKEQ_clean_linker_1, # of connection points: 2
#     Edge 73, Type (0, 0), BuildingBlock: KIFKEQ_clean_linker_1, # of connection points: 2
#     Edge 74, Type (0, 0), BuildingBlock: KIFKEQ_clean_linker_1, # of connection points: 2
#     Edge 75, Type (0, 0), BuildingBlock: KIFKEQ_clean_linker_1, # of connection points: 2
#     Edge 76, Type (0, 0), BuildingBlock: KIFKEQ_clean_linker_1, # of connection points: 2
#     Edge 77, Type (0, 0), BuildingBlock: KIFKEQ_clean_linker_1, # of connection points: 2
#     Edge 78, Type (0, 0), BuildingBlock: KIFKEQ_clean_linker_1, # of connection points: 2
#     Edge 79, Type (0, 0), BuildingBlock: KIFKEQ_clean_linker_1, # of connection points: 2
#     Edge 80, Type (0, 0), BuildingBlock: KIFKEQ_clean_linker_1, # of connection points: 2
#     Edge 81, Type (0, 0), BuildingBlock: KIFKEQ_clean_linker_1, # of connection points: 2
#     Edge 82, Type (0, 0), BuildingBlock: KIFKEQ_clean_linker_1, # of connection points: 2
#     Edge 83, Type (0, 0), BuildingBlock: KIFKEQ_clean_linker_1, # of connection points: 2
#     Edge 84, Type (0, 0), BuildingBlock: KIFKEQ_clean_linker_1, # of connection points: 2
#     Edge 85, Type (0, 0), BuildingBlock: KIFKEQ_clean_linker_1, # of connection points: 2
#     Edge 86, Type (0, 0), BuildingBlock: KIFKEQ_clean_linker_1, # of connection points: 2
#     Edge 87, Type (0, 0), BuildingBlock: KIFKEQ_clean_linker_1, # of connection points: 2
#     Edge 88, Type (0, 0), BuildingBlock: KIFKEQ_clean_linker_1, # of connection points: 2
#     Edge 89, Type (0, 0), BuildingBlock: KIFKEQ_clean_linker_1, # of connection points: 2
#     Edge 90, Type (0, 0), BuildingBlock: KIFKEQ_clean_linker_1, # of connection points: 2
#     Edge 91, Type (0, 0), BuildingBlock: KIFKEQ_clean_linker_1, # of connection points: 2
#     Edge 92, Type (0, 0), BuildingBlock: KIFKEQ_clean_linker_1, # of connection points: 2
#     Edge 93, Type (0, 0), BuildingBlock: KIFKEQ_clean_linker_1, # of connection points: 2
#     Edge 94, Type (0, 0), BuildingBlock: KIFKEQ_clean_linker_1, # of connection points: 2
#     Edge 95, Type (0, 0), BuildingBlock: KIFKEQ_clean_linker_1, # of connection points: 2
#     Edge 96, Type (0, 0), BuildingBlock: KIFKEQ_clean_linker_1, # of connection points: 2
#     Edge 97, Type (0, 0), BuildingBlock: KIFKEQ_clean_linker_1, # of connection points: 2
#     Edge 98, Type (0, 0), BuildingBlock: KIFKEQ_clean_linker_1, # of connection points: 2
#     Edge 99, Type (0, 0), BuildingBlock: KIFKEQ_clean_linker_1, # of connection points: 2
#     Edge 100, Type (0, 0), BuildingBlock: KIFKEQ_clean_linker_1, # of connection points: 2
#     Edge 101, Type (0, 0), BuildingBlock: KIFKEQ_clean_linker_1, # of connection points: 2
#     Edge 102, Type (0, 0), BuildingBlock: KIFKEQ_clean_linker_1, # of connection points: 2
#     Edge 103, Type (0, 0), BuildingBlock: KIFKEQ_clean_linker_1, # of connection points: 2
#     Edge 104, Type (0, 0), BuildingBlock: KIFKEQ_clean_linker_1, # of connection points: 2
#     Edge 105, Type (0, 0), BuildingBlock: KIFKEQ_clean_linker_1, # of connection points: 2
#     Edge 106, Type (0, 0), BuildingBlock: KIFKEQ_clean_linker_1, # of connection points: 2
#     Edge 107, Type (0, 0), BuildingBlock: KIFKEQ_clean_linker_1, # of connection points: 2
#     Edge 108, Type (0, 0), BuildingBlock: KIFKEQ_clean_linker_1, # of connection points: 2
#     Edge 109, Type (0, 0), BuildingBlock: KIFKEQ_clean_linker_1, # of connection points: 2
#     Edge 110, Type (0, 0), BuildingBlock: KIFKEQ_clean_linker_1, # of connection points: 2
#     Edge 111, Type (0, 0), BuildingBlock: KIFKEQ_clean_linker_1, # of connection points: 2
#     Edge 112, Type (0, 0), BuildingBlock: KIFKEQ_clean_linker_1, # of connection points: 2
#     Edge 113, Type (0, 0), BuildingBlock: KIFKEQ_clean_linker_1, # of connection points: 2
#     Edge 114, Type (0, 0), BuildingBlock: KIFKEQ_clean_linker_1, # of connection points: 2
#     Edge 115, Type (0, 0), BuildingBlock: KIFKEQ_clean_linker_1, # of connection points: 2
#     Edge 116, Type (0, 0), BuildingBlock: KIFKEQ_clean_linker_1, # of connection points: 2
#     Edge 117, Type (0, 0), BuildingBlock: KIFKEQ_clean_linker_1, # of connection points: 2
#     Edge 118, Type (0, 0), BuildingBlock: KIFKEQ_clean_linker_1, # of connection points: 2
#     Edge 119, Type (0, 0), BuildingBlock: KIFKEQ_clean_linker_1, # of connection points: 2
#     Edge 120, Type (0, 0), BuildingBlock: KIFKEQ_clean_linker_1, # of connection points: 2
#     Edge 121, Type (0, 0), BuildingBlock: KIFKEQ_clean_linker_1, # of connection points: 2
#     Edge 122, Type (0, 0), BuildingBlock: KIFKEQ_clean_linker_1, # of connection points: 2
#     Edge 123, Type (0, 0), BuildingBlock: KIFKEQ_clean_linker_1, # of connection points: 2
#     Edge 124, Type (0, 0), BuildingBlock: KIFKEQ_clean_linker_1, # of connection points: 2
#     Edge 125, Type (0, 0), BuildingBlock: KIFKEQ_clean_linker_1, # of connection points: 2
#     Edge 126, Type (0, 0), BuildingBlock: KIFKEQ_clean_linker_1, # of connection points: 2
#     Edge 127, Type (0, 0), BuildingBlock: KIFKEQ_clean_linker_1, # of connection points: 2
#     Edge 128, Type (0, 0), BuildingBlock: KIFKEQ_clean_linker_1, # of connection points: 2
#     Edge 129, Type (0, 0), BuildingBlock: KIFKEQ_clean_linker_1, # of connection points: 2
#     Edge 130, Type (0, 0), BuildingBlock: KIFKEQ_clean_linker_1, # of connection points: 2
#     Edge 131, Type (0, 0), BuildingBlock: KIFKEQ_clean_linker_1, # of connection points: 2
#     Edge 132, Type (0, 0), BuildingBlock: KIFKEQ_clean_linker_1, # of connection points: 2
#     Edge 133, Type (0, 0), BuildingBlock: KIFKEQ_clean_linker_1, # of connection points: 2
#     Edge 134, Type (0, 0), BuildingBlock: KIFKEQ_clean_linker_1, # of connection points: 2
#     Edge 135, Type (0, 0), BuildingBlock: KIFKEQ_clean_linker_1, # of connection points: 2
#     Edge 136, Type (0, 0), BuildingBlock: KIFKEQ_clean_linker_1, # of connection points: 2
#     Edge 137, Type (0, 0), BuildingBlock: KIFKEQ_clean_linker_1, # of connection points: 2
#     Edge 138, Type (0, 0), BuildingBlock: KIFKEQ_clean_linker_1, # of connection points: 2
#     Edge 139, Type (0, 0), BuildingBlock: KIFKEQ_clean_linker_1, # of connection points: 2
#     Edge 140, Type (0, 0), BuildingBlock: KIFKEQ_clean_linker_1, # of connection points: 2
#     Edge 141, Type (0, 0), BuildingBlock: KIFKEQ_clean_linker_1, # of connection points: 2
#     Edge 142, Type (0, 0), BuildingBlock: KIFKEQ_clean_linker_1, # of connection points: 2
#     Edge 143, Type (0, 0), BuildingBlock: KIFKEQ_clean_linker_1, # of connection points: 2
# Relax obj value: 0.253
# Max RMSD: 0.250
# Mean RMSD: 0.230
data_MOF--net-ana--node1-AZAVOO_clean_sbu_0--edge1-KIFKEQ_clean_linker_1
_symmetry_space_group_name_H-M    P1
_symmetry_Int_Tables_number       1
_symmetry_cell_setting            triclinic
loop_
_symmetry_equiv_pos_as_xyz
'x, y, z'
_cell_length_a     65.718558
_cell_length_b     63.203012
_cell_length_c     63.031684
_cell_angle_alpha  90.291934
_cell_angle_beta   90.702826
_cell_angle_gamma 92.348567
loop_
_atom_site_label
_atom_site_type_symbol
_atom_site_fract_x
_atom_site_fract_y
_atom_site_fract_z
_atom_type_partial_charge
Mg0 Mg 0.14828 0.16968 0.43507 0.0
O1 O 0.11639 0.15796 0.42455 0.0
O2 O 0.11284 0.12308 0.42903 0.0
Mg3 Mg 0.14265 0.11248 0.44411 0.0
C4 C 0.10583 0.14064 0.42308 0.0
C5 C 0.1294 0.21263 0.42679 0.0
O6 O 0.12093 0.20677 0.44471 0.0
O7 O 0.1626 0.15515 0.40568 0.0
O8 O 0.16001 0.12066 0.41369 0.0
O9 O 0.13826 0.17399 0.46875 0.0
O10 O 0.15059 0.14465 0.45611 0.0
C11 C 0.166 0.13577 0.40157 0.0
C12 C 0.14344 0.15472 0.47193 0.0
O13 O 0.14226 0.20076 0.41837 0.0
Mg14 Mg 0.06992 0.88587 0.64011 0.0
O15 O 0.09141 0.91348 0.63157 0.0
O16 O 0.09133 0.91766 0.59645 0.0
Mg17 Mg 0.06788 0.89325 0.58267 0.0
C18 C 0.09782 0.92294 0.61498 0.0
C19 C 0.07371 0.87882 0.6886 0.0
O20 O 0.0548 0.87199 0.68514 0.0
O21 O 0.09213 0.8626 0.62732 0.0
O22 O 0.08799 0.8657 0.59222 0.0
O23 O 0.04371 0.90698 0.64301 0.0
O24 O 0.05212 0.89094 0.61337 0.0
C25 C 0.09578 0.85674 0.60837 0.0
C26 C 0.04014 0.90327 0.62305 0.0
O27 O 0.08431 0.8853 0.67302 0.0
Mg28 Mg 0.34723 0.81619 0.93456 0.0
O29 O 0.37764 0.83115 0.9242 0.0
O30 O 0.37845 0.86608 0.92934 0.0
Mg31 Mg 0.34786 0.87347 0.94408 0.0
C32 C 0.38678 0.84928 0.92319 0.0
C33 C 0.34934 0.76793 0.92191 0.0
O34 O 0.336 0.76552 0.93716 0.0
O35 O 0.33052 0.82893 0.90555 0.0
O36 O 0.33095 0.86358 0.91337 0.0
O37 O 0.35933 0.81306 0.96777 0.0
O38 O 0.34334 0.84075 0.95584 0.0
C39 C 0.32587 0.8479 0.9013 0.0
C40 C 0.35256 0.83172 0.9712 0.0
O41 O 0.35595 0.78643 0.91714 0.0
Mg42 Mg 0.43321 0.11994 0.15201 0.0
O43 O 0.41433 0.09073 0.14173 0.0
O44 O 0.41776 0.08502 0.10705 0.0
Mg45 Mg 0.43998 0.11122 0.0952 0.0
C46 C 0.41013 0.08002 0.12495 0.0
C47 C 0.427 0.11596 0.19993 0.0
O48 O 0.44664 0.11355 0.19792 0.0
O49 O 0.41032 0.14117 0.1365 0.0
O50 O 0.41654 0.13653 0.10203 0.0
O51 O 0.45993 0.10015 0.15782 0.0
O52 O 0.45356 0.11567 0.12728 0.0
C53 C 0.40708 0.1455 0.11701 0.0
C54 C 0.46498 0.10372 0.13835 0.0
O55 O 0.41641 0.11969 0.18348 0.0
Mg56 Mg 0.09324 0.80659 0.06426 0.0
O57 O 0.12248 0.81991 0.08038 0.0
O58 O 0.12052 0.81407 0.1152 0.0
Mg59 Mg 0.09004 0.79672 0.12153 0.0
C60 C 0.13 0.82141 0.09911 0.0
C61 C 0.08999 0.83699 0.02517 0.0
O62 O 0.0719 0.83936 0.03327 0.0
O63 O 0.07566 0.83432 0.07715 0.0
O64 O 0.0735 0.8264 0.11163 0.0
O65 O 0.10675 0.77454 0.06146 0.0
O66 O 0.08876 0.78502 0.08861 0.0
C67 C 0.06956 0.83828 0.09588 0.0
C68 C 0.09927 0.77066 0.08003 0.0
O69 O 0.10208 0.82449 0.03407 0.0
Mg70 Mg 0.37511 0.83342 0.3448 0.0
O71 O 0.36539 0.80265 0.36119 0.0
O72 O 0.33156 0.79888 0.35818 0.0
Mg73 Mg 0.31969 0.82736 0.3402 0.0
C74 C 0.34871 0.79216 0.36431 0.0
C75 C 0.42111 0.83303 0.34552 0.0
O76 O 0.41603 0.83361 0.32532 0.0
O77 O 0.36389 0.85386 0.37171 0.0
O78 O 0.3303 0.85175 0.36578 0.0
O79 O 0.37709 0.81576 0.31429 0.0
O80 O 0.34951 0.83129 0.32491 0.0
C81 C 0.34593 0.85963 0.37574 0.0
C82 C 0.35827 0.8201 0.31085 0.0
O83 O 0.40705 0.83248 0.3592 0.0
Mg84 Mg 0.4202 0.18972 0.55222 0.0
O85 O 0.39204 0.18125 0.57184 0.0
O86 O 0.39434 0.19811 0.60305 0.0
Mg87 Mg 0.42505 0.21644 0.60396 0.0
C88 C 0.38482 0.18568 0.58996 0.0
C89 C 0.39488 0.16615 0.51678 0.0
O90 O 0.3847 0.18349 0.51877 0.0
O91 O 0.43845 0.16684 0.5723 0.0
O92 O 0.44046 0.1846 0.60313 0.0
O93 O 0.40536 0.2191 0.54072 0.0
O94 O 0.4251 0.21767 0.56922 0.0
C95 C 0.44426 0.1685 0.59171 0.0
C96 C 0.41337 0.22839 0.55734 0.0
O97 O 0.41046 0.16371 0.52854 0.0
Mg98 Mg 0.13236 0.15599 0.83121 0.0
O99 O 0.14077 0.18442 0.85234 0.0
O100 O 0.17455 0.18612 0.85682 0.0
Mg101 Mg 0.18757 0.15839 0.83864 0.0
C102 C 0.157 0.19333 0.86007 0.0
C103 C 0.08637 0.16104 0.82477 0.0
O104 O 0.09324 0.16374 0.80545 0.0
O105 O 0.13785 0.13303 0.85785 0.0
O106 O 0.17181 0.13328 0.86027 0.0
O107 O 0.13606 0.17585 0.80255 0.0
O108 O 0.16083 0.15794 0.81698 0.0
C109 C 0.1542 0.12604 0.86576 0.0
C110 C 0.15489 0.17057 0.80237 0.0
O111 O 0.09898 0.15793 0.83977 0.0
Mg112 Mg 0.12716 0.37959 0.14467 0.0
O113 O 0.11189 0.37133 0.1129 0.0
O114 O 0.08177 0.38634 0.11093 0.0
Mg115 Mg 0.07702 0.40276 0.14264 0.0
C116 C 0.09556 0.37533 0.10282 0.0
C117 C 0.1645 0.35205 0.15212 0.0
O118 O 0.1626 0.36037 0.17111 0.0
O119 O 0.10693 0.35547 0.16183 0.0
O120 O 0.07704 0.37115 0.16065 0.0
O121 O 0.1401 0.40914 0.13055 0.0
O122 O 0.11037 0.40683 0.14666 0.0
C123 C 0.08807 0.35593 0.16634 0.0
C124 C 0.12348 0.41796 0.13593 0.0
O125 O 0.15133 0.35588 0.1379 0.0
Mg126 Mg 0.68971 0.08488 0.89145 0.0
O127 O 0.67509 0.10538 0.86611 0.0
O128 O 0.69264 0.1364 0.86468 0.0
Mg129 Mg 0.71837 0.13579 0.8896 0.0
C130 C 0.67814 0.1238 0.85824 0.0
C131 C 0.65074 0.05679 0.87586 0.0
O132 O 0.65252 0.06817 0.85857 0.0
O133 O 0.67557 0.10454 0.91712 0.0
O134 O 0.69556 0.1341 0.91724 0.0
O135 O 0.71081 0.07208 0.86766 0.0
O136 O 0.71756 0.10106 0.88659 0.0
C137 C 0.68099 0.1226 0.92489 0.0
C138 C 0.72292 0.08827 0.87187 0.0
O139 O 0.66284 0.06065 0.89143 0.0
Mg140 Mg 0.80644 0.91392 0.36423 0.0
O141 O 0.82025 0.89587 0.33673 0.0
O142 O 0.80315 0.86469 0.33334 0.0
Mg143 Mg 0.77866 0.86284 0.35892 0.0
C144 C 0.81711 0.87798 0.32749 0.0
C145 C 0.83405 0.95063 0.38082 0.0
O146 O 0.82049 0.94816 0.39585 0.0
O147 O 0.82196 0.89292 0.38777 0.0
O148 O 0.8031 0.86272 0.38564 0.0
O149 O 0.78388 0.92788 0.34234 0.0
O150 O 0.77863 0.89767 0.35927 0.0
C151 C 0.81765 0.87411 0.39398 0.0
C152 C 0.77217 0.91134 0.34594 0.0
O153 O 0.83316 0.93799 0.36504 0.0
Mg154 Mg 0.84886 0.12285 0.09816 0.0
O155 O 0.86794 0.13402 0.12673 0.0
O156 O 0.87009 0.16934 0.12691 0.0
Mg157 Mg 0.85182 0.18024 0.09782 0.0
C158 C 0.87422 0.15155 0.1351 0.0
C159 C 0.85225 0.07624 0.08808 0.0
O160 O 0.83906 0.08265 0.07391 0.0
O161 O 0.87454 0.13119 0.07647 0.0
O162 O 0.87469 0.16639 0.07384 0.0
O163 O 0.82178 0.12296 0.11789 0.0
O164 O 0.83243 0.1505 0.09862 0.0
C165 C 0.88152 0.14845 0.06859 0.0
C166 C 0.81979 0.14245 0.11224 0.0
O167 O 0.85995 0.08958 0.10136 0.0
Mg168 Mg 0.34985 0.62585 0.61506 0.0
O169 O 0.36974 0.63717 0.64301 0.0
O170 O 0.37055 0.67258 0.64347 0.0
Mg171 Mg 0.35147 0.68352 0.61517 0.0
C172 C 0.37566 0.6549 0.65119 0.0
C173 C 0.35035 0.57879 0.60716 0.0
O174 O 0.3348 0.58501 0.59581 0.0
O175 O 0.37503 0.6348 0.5928 0.0
O176 O 0.374 0.67001 0.59087 0.0
O177 O 0.3226 0.62576 0.63503 0.0
O178 O 0.33341 0.65327 0.61602 0.0
C179 C 0.38126 0.65244 0.58506 0.0
C180 C 0.32048 0.6452 0.62927 0.0
O181 O 0.36086 0.59251 0.61782 0.0
Mg182 Mg 0.18526 0.56799 0.39071 0.0
O183 O 0.1724 0.5882 0.36417 0.0
O184 O 0.19053 0.6188 0.3624 0.0
Mg185 Mg 0.21497 0.61818 0.38867 0.0
C186 C 0.17605 0.60628 0.3558 0.0
C187 C 0.15286 0.53138 0.40137 0.0
O188 O 0.16443 0.52976 0.41838 0.0
O189 O 0.17067 0.58849 0.41549 0.0
O190 O 0.19069 0.61794 0.41484 0.0
O191 O 0.20732 0.55422 0.36844 0.0
O192 O 0.21386 0.58323 0.38743 0.0
C193 C 0.17586 0.6069 0.42263 0.0
C194 C 0.21968 0.57002 0.37331 0.0
O195 O 0.15715 0.54578 0.38795 0.0
Mg196 Mg 0.33074 0.40945 0.86354 0.0
O197 O 0.33707 0.38989 0.89343 0.0
O198 O 0.37094 0.38786 0.89542 0.0
Mg199 Mg 0.38593 0.40721 0.86897 0.0
C200 C 0.35316 0.38345 0.9025 0.0
C201 C 0.28698 0.40959 0.8497 0.0
O202 O 0.29636 0.42472 0.83889 0.0
O203 O 0.33893 0.3829 0.84128 0.0
O204 O 0.37293 0.38413 0.84329 0.0
O205 O 0.33184 0.43886 0.88303 0.0
O206 O 0.35851 0.42606 0.86715 0.0
C207 C 0.35617 0.37669 0.83525 0.0
C208 C 0.35116 0.44037 0.87913 0.0
O209 O 0.29734 0.39878 0.86254 0.0
Mg210 Mg 0.87607 0.82922 0.58437 0.0
O211 O 0.87219 0.83431 0.54857 0.0
O212 O 0.90142 0.82719 0.53277 0.0
Mg213 Mg 0.9237 0.81686 0.55829 0.0
C214 C 0.88303 0.8329 0.53197 0.0
C215 C 0.82974 0.81819 0.59678 0.0
O216 O 0.83648 0.79977 0.60251 0.0
O217 O 0.87321 0.79347 0.57921 0.0
O218 O 0.9031 0.78735 0.56432 0.0
O219 O 0.88837 0.86246 0.58876 0.0
O220 O 0.90734 0.83527 0.58189 0.0
C221 C 0.88584 0.78083 0.57141 0.0
C222 C 0.90613 0.85538 0.58479 0.0
O223 O 0.84197 0.83201 0.58883 0.0
Mg224 Mg 0.93165 0.12115 0.32195 0.0
O225 O 0.91409 0.14734 0.33849 0.0
O226 O 0.8819 0.14485 0.32664 0.0
Mg227 Mg 0.87882 0.11803 0.30227 0.0
C228 C 0.89583 0.15358 0.3384 0.0
C229 C 0.97217 0.13984 0.34243 0.0
O230 O 0.97072 0.1523 0.32591 0.0
O231 O 0.91615 0.09571 0.34263 0.0
O232 O 0.88456 0.09423 0.32879 0.0
O233 O 0.93888 0.1423 0.29401 0.0
O234 O 0.91163 0.12101 0.29625 0.0
C235 C 0.89792 0.08783 0.34191 0.0
C236 C 0.922 0.13483 0.28558 0.0
O237 O 0.95816 0.12578 0.34558 0.0
Mg238 Mg 0.62903 0.165 0.1174 0.0
O239 O 0.63112 0.1596 0.08149 0.0
O240 O 0.59963 0.1582 0.06736 0.0
Mg241 Mg 0.57766 0.16546 0.09397 0.0
C242 C 0.6189 0.15716 0.06567 0.0
C243 C 0.67358 0.16014 0.13227 0.0
O244 O 0.664 0.14597 0.14409 0.0
O245 O 0.62426 0.19983 0.11155 0.0
O246 O 0.59273 0.19885 0.09768 0.0
O247 O 0.62334 0.13 0.12278 0.0
O248 O 0.59939 0.15292 0.11677 0.0
C249 C 0.60894 0.20909 0.10386 0.0
C250 C 0.60434 0.13369 0.11953 0.0
O251 O 0.66334 0.17098 0.11939 0.0
Mg252 Mg 0.55859 0.87764 0.82536 0.0
O253 O 0.57864 0.85528 0.84449 0.0
O254 O 0.61011 0.85857 0.83136 0.0
Mg255 Mg 0.61027 0.88207 0.80416 0.0
C256 C 0.59735 0.85044 0.84442 0.0
C257 C 0.5227 0.85736 0.85048 0.0
O258 O 0.52753 0.84156 0.83817 0.0
O259 O 0.57312 0.90665 0.84241 0.0
O260 O 0.60407 0.90842 0.828 0.0
O261 O 0.55114 0.85179 0.80178 0.0
O262 O 0.57757 0.87433 0.79943 0.0
C263 C 0.59081 0.91551 0.84053 0.0
C264 C 0.56762 0.85781 0.79212 0.0
O265 O 0.53328 0.87463 0.84974 0.0
Mg266 Mg 0.90027 0.11103 0.87367 0.0
O267 O 0.88469 0.1423 0.87809 0.0
O268 O 0.85378 0.13622 0.89187 0.0
Mg269 Mg 0.85124 0.10068 0.89936 0.0
C270 C 0.86769 0.14877 0.88455 0.0
C271 C 0.93846 0.12483 0.84833 0.0
O272 O 0.9295 0.11121 0.83507 0.0
O273 O 0.90846 0.11263 0.90889 0.0
O274 O 0.87784 0.10572 0.92307 0.0
O275 O 0.8832 0.1064 0.84276 0.0
O276 O 0.87237 0.09454 0.87376 0.0
C277 C 0.89697 0.10992 0.9249 0.0
C278 C 0.8689 0.09744 0.85392 0.0
O279 O 0.92986 0.12883 0.86574 0.0
Mg280 Mg 0.59866 0.10157 0.68319 0.0
O281 O 0.61014 0.1304 0.66501 0.0
O282 O 0.64368 0.1357 0.66918 0.0
Mg283 Mg 0.65349 0.10975 0.69214 0.0
C284 C 0.62668 0.14078 0.6611 0.0
C285 C 0.5522 0.09527 0.66873 0.0
O286 O 0.54993 0.0865 0.68745 0.0
O287 O 0.6129 0.08014 0.65931 0.0
O288 O 0.64613 0.08369 0.66709 0.0
O289 O 0.5933 0.12126 0.7119 0.0
O290 O 0.6223 0.1061 0.70525 0.0
C291 C 0.63125 0.07504 0.65651 0.0
C292 C 0.61199 0.11806 0.71736 0.0
O293 O 0.56974 0.10217 0.66318 0.0
Mg294 Mg 0.60455 0.90031 0.38673 0.0
O295 O 0.61973 0.86824 0.38625 0.0
O296 O 0.6536 0.87281 0.38902 0.0
Mg297 Mg 0.65933 0.90785 0.39688 0.0
C298 C 0.63755 0.86091 0.38667 0.0
C299 C 0.5686 0.86783 0.37541 0.0
O300 O 0.58254 0.86038 0.36296 0.0
O301 O 0.6069 0.89931 0.42271 0.0
O302 O 0.64082 0.90134 0.42695 0.0
O303 O 0.61182 0.90413 0.35231 0.0
O304 O 0.63187 0.91548 0.37885 0.0
C305 C 0.62288 0.89887 0.43438 0.0
C306 C 0.62914 0.91241 0.35882 0.0
O307 O 0.57314 0.88373 0.3872 0.0
Mg308 Mg 0.90122 0.89681 0.15534 0.0
O309 O 0.88742 0.86906 0.13584 0.0
O310 O 0.85371 0.86744 0.14003 0.0
Mg311 Mg 0.84606 0.89438 0.16269 0.0
C312 C 0.86985 0.86049 0.1319 0.0
C313 C 0.94602 0.90673 0.14062 0.0
O314 O 0.94482 0.92188 0.15485 0.0
O315 O 0.88948 0.92021 0.1316 0.0
O316 O 0.85617 0.91972 0.13836 0.0
O317 O 0.90447 0.87639 0.1839 0.0
O318 O 0.87716 0.89435 0.17645 0.0
C319 C 0.87174 0.92715 0.12847 0.0
C320 C 0.88618 0.88138 0.18874 0.0
O321 O 0.93069 0.89421 0.13726 0.0
Mg322 Mg 0.82276 0.54456 0.85122 0.0
O323 O 0.83697 0.56155 0.88064 0.0
O324 O 0.86785 0.54903 0.88625 0.0
Mg325 Mg 0.87317 0.52391 0.86086 0.0
C326 C 0.85366 0.56126 0.89125 0.0
C327 C 0.78005 0.56187 0.84712 0.0
O328 O 0.77652 0.54129 0.84584 0.0
O329 O 0.84333 0.5637 0.82924 0.0
O330 O 0.87363 0.5497 0.835 0.0
O331 O 0.80969 0.51885 0.87156 0.0
O332 O 0.83998 0.51814 0.85682 0.0
C333 C 0.86227 0.56263 0.82539 0.0
C334 C 0.8265 0.50923 0.86888 0.0
O335 O 0.79831 0.569 0.84931 0.0
Mg336 Mg 0.30565 0.91135 0.15106 0.0
O337 O 0.32194 0.89819 0.12236 0.0
O338 O 0.35559 0.90305 0.12697 0.0
Mg339 Mg 0.36071 0.91944 0.15906 0.0
C340 C 0.34016 0.89635 0.11601 0.0
C341 C 0.26553 0.89891 0.1249 0.0
O342 O 0.27142 0.91523 0.11335 0.0
O343 O 0.31458 0.8829 0.17034 0.0
O344 O 0.34799 0.88929 0.17526 0.0
O345 O 0.30556 0.9432 0.13577 0.0
O346 O 0.33012 0.93237 0.15684 0.0
C347 C 0.33175 0.87784 0.17797 0.0
C348 C 0.32334 0.94669 0.1445 0.0
O349 O 0.2763 0.89379 0.14079 0.0
Mg350 Mg 0.21817 0.08066 0.64302 0.0
O351 O 0.19741 0.09551 0.61825 0.0
O352 O 0.165 0.09153 0.62833 0.0
Mg353 Mg 0.16526 0.07458 0.66019 0.0
C354 C 0.17841 0.09802 0.61515 0.0
C355 C 0.26057 0.10271 0.64065 0.0
O356 O 0.25961 0.09742 0.66076 0.0
O357 O 0.21453 0.10847 0.66539 0.0
O358 O 0.18211 0.10359 0.67535 0.0
O359 O 0.21405 0.04971 0.6261 0.0
O360 O 0.19424 0.06027 0.65188 0.0
C361 C 0.19917 0.11401 0.67586 0.0
C362 C 0.19796 0.04646 0.6375 0.0
O363 O 0.24569 0.09755 0.62839 0.0
Mg364 Mg 0.16526 0.93944 0.86137 0.0
O365 O 0.1488 0.9231 0.88931 0.0
O366 O 0.11817 0.93723 0.89102 0.0
Mg367 Mg 0.11592 0.96368 0.86661 0.0
C368 C 0.13118 0.92419 0.89755 0.0
C369 C 0.20672 0.92172 0.85565 0.0
O370 O 0.2092 0.94218 0.85237 0.0
O371 O 0.14457 0.92145 0.83773 0.0
O372 O 0.11566 0.93874 0.83982 0.0
O373 O 0.17923 0.96458 0.88265 0.0
O374 O 0.14929 0.96658 0.86667 0.0
C375 C 0.12639 0.92455 0.83146 0.0
C376 C 0.1629 0.97492 0.87936 0.0
O377 O 0.18903 0.91423 0.86001 0.0
Mg378 Mg 0.66961 0.4518 0.37141 0.0
O379 O 0.6529 0.43655 0.39957 0.0
O380 O 0.62342 0.45231 0.40365 0.0
Mg381 Mg 0.62135 0.47792 0.37833 0.0
C382 C 0.63612 0.43858 0.40923 0.0
C383 C 0.70816 0.42631 0.36163 0.0
O384 O 0.71194 0.44322 0.35005 0.0
O385 O 0.64792 0.43447 0.34779 0.0
O386 O 0.6197 0.45251 0.35216 0.0
O387 O 0.68419 0.47688 0.39274 0.0
O388 O 0.65477 0.47996 0.37609 0.0
C389 C 0.62948 0.43815 0.34284 0.0
C390 C 0.66841 0.48794 0.38895 0.0
O391 O 0.69158 0.42478 0.37178 0.0
Mg392 Mg 0.81032 0.41123 0.67167 0.0
O393 O 0.82331 0.38801 0.64796 0.0
O394 O 0.85726 0.39056 0.64904 0.0
Mg395 Mg 0.866 0.4159 0.67405 0.0
C396 C 0.84061 0.38239 0.64148 0.0
C397 C 0.76525 0.40366 0.65807 0.0
O398 O 0.76872 0.42327 0.65187 0.0
O399 O 0.81854 0.39044 0.69955 0.0
O400 O 0.85236 0.39553 0.70095 0.0
O401 O 0.8107 0.43627 0.647 0.0
O402 O 0.83653 0.43088 0.66886 0.0
C403 C 0.83577 0.38747 0.70835 0.0
C404 C 0.82924 0.44103 0.65299 0.0
O405 O 0.77935 0.3942 0.66763 0.0
Mg406 Mg 0.68608 0.58027 0.15352 0.0
O407 O 0.67193 0.59497 0.12419 0.0
O408 O 0.638 0.59352 0.12662 0.0
Mg409 Mg 0.63043 0.57707 0.1579 0.0
C410 C 0.65429 0.59875 0.11678 0.0
C411 C 0.72625 0.59045 0.1283 0.0
O412 O 0.71856 0.57523 0.11599 0.0
O413 O 0.67873 0.60941 0.17271 0.0
O414 O 0.64496 0.6057 0.17581 0.0
O415 O 0.68466 0.54839 0.13799 0.0
O416 O 0.65974 0.5613 0.15677 0.0
C417 C 0.66188 0.61576 0.17967 0.0
C418 C 0.66616 0.54649 0.14478 0.0
O419 O 0.71676 0.59558 0.14487 0.0
Mg420 Mg 0.65497 0.67929 0.93535 0.0
O421 O 0.62335 0.66515 0.92694 0.0
O422 O 0.62171 0.63057 0.93388 0.0
Mg423 Mg 0.65297 0.6225 0.94707 0.0
C424 C 0.61356 0.64733 0.9273 0.0
C425 C 0.65042 0.72721 0.92525 0.0
O426 O 0.66099 0.72916 0.94303 0.0
O427 O 0.66872 0.66447 0.90586 0.0
O428 O 0.66724 0.63019 0.9149 0.0
O429 O 0.64518 0.68447 0.96881 0.0
O430 O 0.65936 0.65556 0.95723 0.0
C431 C 0.67192 0.64503 0.90195 0.0
C432 C 0.65129 0.66561 0.97255 0.0
O433 O 0.64631 0.70885 0.91769 0.0
Mg434 Mg 0.54672 0.38351 0.16064 0.0
O435 O 0.5655 0.4117 0.14809 0.0
O436 O 0.55969 0.41539 0.11335 0.0
Mg437 Mg 0.53685 0.38866 0.10354 0.0
C438 C 0.56868 0.42124 0.13059 0.0
C439 C 0.56402 0.40279 0.2021 0.0
O440 O 0.55322 0.41798 0.19419 0.0
O441 O 0.56882 0.36136 0.14556 0.0
O442 O 0.5608 0.36407 0.1111 0.0
O443 O 0.51968 0.40331 0.16596 0.0
O444 O 0.52545 0.38622 0.13619 0.0
C445 C 0.57108 0.356 0.12619 0.0
C446 C 0.51408 0.39848 0.14672 0.0
O447 O 0.56499 0.38559 0.19171 0.0
Mg448 Mg 0.8334 0.3077 0.45799 0.0
O449 O 0.86451 0.32289 0.45049 0.0
O450 O 0.86729 0.35613 0.46245 0.0
Mg451 Mg 0.83668 0.36246 0.47788 0.0
C452 C 0.87469 0.34035 0.453 0.0
C453 C 0.85628 0.26991 0.43901 0.0
O454 O 0.86751 0.27429 0.45598 0.0
O455 O 0.81862 0.32665 0.43135 0.0
O456 O 0.82083 0.35935 0.44532 0.0
O457 O 0.84442 0.29838 0.49066 0.0
O458 O 0.83014 0.32845 0.48318 0.0
C459 C 0.81534 0.34645 0.43043 0.0
C460 C 0.83836 0.31656 0.49703 0.0
O461 O 0.84063 0.28062 0.43544 0.0
Mg462 Mg 0.9344 0.61066 0.64259 0.0
O463 O 0.91575 0.58124 0.63212 0.0
O464 O 0.92215 0.57389 0.59819 0.0
Mg465 Mg 0.94394 0.6004 0.58647 0.0
C466 C 0.91312 0.56973 0.61557 0.0
C467 C 0.92755 0.60933 0.69023 0.0
O468 O 0.94734 0.60797 0.68846 0.0
O469 O 0.91219 0.63139 0.62552 0.0
O470 O 0.91964 0.62533 0.59155 0.0
O471 O 0.96086 0.59103 0.65015 0.0
O472 O 0.95578 0.60585 0.61899 0.0
C473 C 0.90957 0.63481 0.60574 0.0
C474 C 0.96676 0.59422 0.63088 0.0
O475 O 0.91679 0.61136 0.67352 0.0
Mg476 Mg 0.60262 0.31474 0.57186 0.0
O477 O 0.62941 0.32676 0.59288 0.0
O478 O 0.6243 0.31549 0.62602 0.0
Mg479 Mg 0.59362 0.29726 0.62645 0.0
C480 C 0.63503 0.3255 0.61229 0.0
C481 C 0.6 0.34181 0.53155 0.0
O482 O 0.58115 0.33437 0.53346 0.0
O483 O 0.58297 0.34028 0.58564 0.0
O484 O 0.5781 0.32815 0.61855 0.0
O485 O 0.61803 0.28403 0.56674 0.0
O486 O 0.59661 0.29006 0.59259 0.0
C487 C 0.57538 0.34191 0.60411 0.0
C488 C 0.60891 0.27753 0.58376 0.0
O489 O 0.61323 0.33663 0.54523 0.0
Mg490 Mg 0.87388 0.35392 0.89697 0.0
O491 O 0.86506 0.31836 0.894 0.0
O492 O 0.83192 0.3139 0.88502 0.0
Mg493 Mg 0.81814 0.34662 0.88539 0.0
C494 C 0.8494 0.30654 0.88907 0.0
C495 C 0.9169 0.33675 0.89925 0.0
O496 O 0.90948 0.32778 0.88181 0.0
O497 O 0.85949 0.3553 0.92955 0.0
O498 O 0.82865 0.34739 0.92006 0.0
O499 O 0.87942 0.35419 0.86278 0.0
O500 O 0.84894 0.35973 0.87592 0.0
C501 C 0.8417 0.36162 0.92602 0.0
C502 C 0.86018 0.35663 0.8596 0.0
O503 O 0.90522 0.3475 0.91064 0.0
Mg504 Mg 0.89426 0.68211 0.05777 0.0
O505 O 0.86529 0.66923 0.07437 0.0
O506 O 0.86515 0.68314 0.10708 0.0
Mg507 Mg 0.89314 0.70525 0.11155 0.0
C508 C 0.85716 0.6712 0.09257 0.0
C509 C 0.87585 0.66036 0.01704 0.0
O510 O 0.86515 0.67742 0.01827 0.0
O511 O 0.91394 0.66018 0.07784 0.0
O512 O 0.91272 0.67635 0.10946 0.0
O513 O 0.87814 0.71094 0.04639 0.0
O514 O 0.89435 0.70895 0.07711 0.0
C515 C 0.91892 0.66164 0.0975 0.0
C516 C 0.88313 0.71946 0.0645 0.0
O517 O 0.88932 0.65727 0.03125 0.0
Mg518 Mg 0.6277 0.66001 0.3494 0.0
O519 O 0.63519 0.69237 0.3641 0.0
O520 O 0.66885 0.69833 0.36228 0.0
Mg521 Mg 0.68245 0.67035 0.34479 0.0
C522 C 0.65118 0.70408 0.36749 0.0
C523 C 0.58888 0.63993 0.36708 0.0
O524 O 0.60018 0.6238 0.36278 0.0
O525 O 0.64127 0.64267 0.37732 0.0
O526 O 0.6746 0.64619 0.37114 0.0
O527 O 0.62322 0.6753 0.31821 0.0
O528 O 0.65256 0.66333 0.32945 0.0
C529 C 0.65962 0.63808 0.38149 0.0
C530 C 0.64239 0.67271 0.31493 0.0
O531 O 0.59622 0.65855 0.36401 0.0
Mg532 Mg 0.65125 0.8861 0.63533 0.0
O533 O 0.638 0.88045 0.60203 0.0
O534 O 0.60714 0.89408 0.60075 0.0
Mg535 Mg 0.60103 0.90902 0.63289 0.0
C536 C 0.62161 0.88451 0.59203 0.0
C537 C 0.69298 0.86923 0.63834 0.0
O538 O 0.6931 0.88606 0.65069 0.0
O539 O 0.6303 0.86042 0.6494 0.0
O540 O 0.60079 0.87672 0.64938 0.0
O541 O 0.66485 0.91685 0.62455 0.0
O542 O 0.63415 0.91296 0.63833 0.0
C543 C 0.61148 0.86091 0.65408 0.0
C544 C 0.64782 0.92508 0.62953 0.0
O545 O 0.67639 0.86331 0.62914 0.0
Mg546 Mg 0.34999 0.33742 0.1047 0.0
O547 O 0.35286 0.34321 0.06861 0.0
O548 O 0.38605 0.34183 0.06141 0.0
Mg549 Mg 0.40399 0.33465 0.09145 0.0
C550 C 0.36763 0.34432 0.05556 0.0
C551 C 0.30717 0.32099 0.11601 0.0
O552 O 0.31884 0.31101 0.12939 0.0
O553 O 0.35423 0.30212 0.09936 0.0
O554 O 0.38749 0.30194 0.09222 0.0
O555 O 0.35606 0.37215 0.11176 0.0
O556 O 0.37967 0.34832 0.10952 0.0
C557 C 0.37024 0.2923 0.0949 0.0
C558 C 0.37511 0.36771 0.11195 0.0
O559 O 0.31552 0.33308 0.1023 0.0
Mg560 Mg 0.44125 0.61271 0.83008 0.0
O561 O 0.42127 0.63832 0.84422 0.0
O562 O 0.39021 0.63373 0.8295 0.0
Mg563 Mg 0.39029 0.60639 0.80584 0.0
C564 C 0.40271 0.64346 0.84219 0.0
C565 C 0.47625 0.63625 0.85499 0.0
O566 O 0.47171 0.65055 0.84083 0.0
O567 O 0.42515 0.58757 0.8504 0.0
O568 O 0.39492 0.58395 0.83382 0.0
O569 O 0.45048 0.63391 0.80322 0.0
O570 O 0.4232 0.61225 0.80286 0.0
C571 C 0.40737 0.57881 0.84846 0.0
C572 C 0.43398 0.62691 0.79371 0.0
O573 O 0.46578 0.61891 0.85539 0.0
Mg574 Mg 0.13213 0.65828 0.61535 0.0
O575 O 0.13298 0.65126 0.57954 0.0
O576 O 0.10128 0.65252 0.56641 0.0
Mg577 Mg 0.08052 0.66142 0.59352 0.0
C578 C 0.12024 0.64964 0.56406 0.0
C579 C 0.17491 0.67003 0.63359 0.0
O580 O 0.16355 0.67413 0.65 0.0
O581 O 0.12914 0.69311 0.60836 0.0
O582 O 0.09734 0.69414 0.59554 0.0
O583 O 0.12539 0.62388 0.62186 0.0
O584 O 0.10214 0.64766 0.61581 0.0
C585 C 0.11437 0.70331 0.60086 0.0
C586 C 0.10651 0.62826 0.61883 0.0
O587 O 0.16645 0.6629 0.61663 0.0
Mg588 Mg 0.03679 0.36851 0.33873 0.0
O589 O 0.05841 0.34428 0.35254 0.0
O590 O 0.08642 0.34536 0.33266 0.0
Mg591 Mg 0.08265 0.36932 0.30601 0.0
C592 C 0.07613 0.33795 0.34821 0.0
C593 C 0.9975 0.3633 0.36168 0.0
O594 O 0.99314 0.36304 0.34128 0.0
O595 O 0.05668 0.39585 0.35309 0.0
O596 O 0.0827 0.39624 0.33051 0.0
O597 O 0.02321 0.34368 0.31641 0.0
O598 O 0.0498 0.36487 0.30922 0.0
C599 C 0.07347 0.40405 0.34628 0.0
C600 C 0.03775 0.34924 0.30374 0.0
O601 O 0.01602 0.36607 0.36748 0.0
Mg602 Mg 0.3957 0.5973 0.39232 0.0
O603 O 0.38032 0.62915 0.38842 0.0
O604 O 0.34816 0.62546 0.39958 0.0
Mg605 Mg 0.34396 0.59223 0.41315 0.0
C606 C 0.36283 0.63663 0.39172 0.0
C607 C 0.44123 0.60447 0.39627 0.0
O608 O 0.4366 0.589 0.40944 0.0
O609 O 0.39998 0.60555 0.42736 0.0
O610 O 0.36764 0.6037 0.43801 0.0
O611 O 0.38217 0.58679 0.36089 0.0
O612 O 0.36756 0.58147 0.39196 0.0
C613 C 0.38657 0.60782 0.44154 0.0
C614 C 0.36646 0.58033 0.37164 0.0
O615 O 0.42697 0.61244 0.38552 0.0
Mg616 Mg 0.08391 0.59639 0.18502 0.0
O617 O 0.09483 0.62547 0.16662 0.0
O618 O 0.12876 0.6283 0.16743 0.0
Mg619 Mg 0.13955 0.60149 0.18868 0.0
C620 C 0.11153 0.63483 0.16133 0.0
C621 C 0.04188 0.61368 0.17328 0.0
O622 O 0.04851 0.62741 0.18776 0.0
O623 O 0.09483 0.57488 0.15905 0.0
O624 O 0.12857 0.57632 0.16408 0.0
O625 O 0.08238 0.61509 0.21519 0.0
O626 O 0.10971 0.59904 0.20463 0.0
C627 C 0.11254 0.56872 0.15463 0.0
C628 C 0.10124 0.61075 0.21847 0.0
O629 O 0.05289 0.59832 0.16861 0.0
Mg630 Mg 0.11069 0.38539 0.89837 0.0
O631 O 0.12482 0.35294 0.89788 0.0
O632 O 0.15731 0.35636 0.90877 0.0
Mg633 Mg 0.16335 0.39119 0.91774 0.0
C634 C 0.14201 0.34506 0.90197 0.0
C635 C 0.06512 0.38002 0.90373 0.0
O636 O 0.07005 0.39833 0.91277 0.0
O637 O 0.10813 0.38281 0.93407 0.0
O638 O 0.14062 0.38619 0.94478 0.0
O639 O 0.12277 0.3908 0.8657 0.0
O640 O 0.13917 0.40003 0.89548 0.0
C641 C 0.12169 0.38331 0.94872 0.0
C642 C 0.13921 0.39814 0.87518 0.0
O643 O 0.079 0.36983 0.89488 0.0
Mg644 Mg 0.40927 0.39817 0.66143 0.0
O645 O 0.39915 0.37249 0.63793 0.0
O646 O 0.36585 0.36491 0.64045 0.0
Mg647 Mg 0.35474 0.38654 0.66703 0.0
C648 C 0.38307 0.36208 0.63196 0.0
C649 C 0.45435 0.41253 0.65027 0.0
O650 O 0.45325 0.42281 0.66837 0.0
O651 O 0.39459 0.42277 0.64137 0.0
O652 O 0.36138 0.41673 0.6471 0.0
O653 O 0.4154 0.3742 0.68598 0.0
O654 O 0.38566 0.38894 0.68164 0.0
C655 C 0.37608 0.42761 0.63885 0.0
C656 C 0.39658 0.37554 0.69153 0.0
O657 O 0.4388 0.40193 0.64336 0.0
Mg658 Mg 0.32458 0.04522 0.3618 0.0
O659 O 0.34108 0.06213 0.3899 0.0
O660 O 0.37221 0.04942 0.39292 0.0
Mg661 Mg 0.37562 0.02449 0.36705 0.0
C662 C 0.35852 0.06174 0.39906 0.0
C663 C 0.28628 0.06942 0.34786 0.0
O664 O 0.28678 0.05519 0.33262 0.0
O665 O 0.3435 0.06471 0.3383 0.0
O666 O 0.37411 0.05079 0.34203 0.0
O667 O 0.31334 0.01914 0.38315 0.0
O668 O 0.34231 0.01897 0.36584 0.0
C669 C 0.36222 0.06382 0.33336 0.0
C670 C 0.33003 0.00981 0.37899 0.0
O671 O 0.30004 0.0697 0.36224 0.0
H672 H 0.11502 0.32412 0.34761 0.0
H673 H 0.05691 0.31301 0.37787 0.0
H674 H 0.12891 0.29503 0.3675 0.0
H675 H 0.07064 0.28349 0.39727 0.0
H676 H 0.10574 0.24321 0.44278 0.0
H677 H 0.09393 0.27453 0.4249 0.0
H678 H 0.12634 0.25716 0.36856 0.0
H679 H 0.13868 0.22615 0.38673 0.0
C680 C 0.10519 0.31546 0.35849 0.0
C681 C 0.08482 0.32089 0.3611 0.0
C682 C 0.11314 0.29868 0.36981 0.0
C683 C 0.10089 0.28682 0.38392 0.0
C684 C 0.08061 0.29246 0.38676 0.0
C685 C 0.07269 0.30934 0.37555 0.0
C686 C 0.11045 0.24614 0.42662 0.0
C687 C 0.12311 0.23216 0.41615 0.0
C688 C 0.10357 0.26404 0.41631 0.0
C689 C 0.10906 0.26833 0.39524 0.0
C690 C 0.12201 0.25451 0.38489 0.0
C691 C 0.12902 0.23666 0.39526 0.0
H692 H 0.03037 0.90251 0.58081 0.0
H693 H 0.00579 0.91603 0.64241 0.0
H694 H 0.996 0.89886 0.56604 0.0
H695 H 0.97145 0.91177 0.6278 0.0
H696 H 0.91042 0.89637 0.59908 0.0
H697 H 0.94228 0.91753 0.60358 0.0
H698 H 0.97498 0.86739 0.57425 0.0
H699 H 0.94365 0.8466 0.56988 0.0
C700 C 0.01767 0.90541 0.59105 0.0
C701 C 0.02074 0.90889 0.6129 0.0
C702 C 0.99797 0.90326 0.58259 0.0
C703 C 0.98103 0.9043 0.59591 0.0
C704 C 0.98416 0.91076 0.61712 0.0
C705 C 0.0039 0.91313 0.62554 0.0
C706 C 0.92439 0.89014 0.59315 0.0
C707 C 0.92452 0.86965 0.58433 0.0
C708 C 0.9426 0.90225 0.59575 0.0
C709 C 0.96117 0.89418 0.58926 0.0
C710 C 0.96096 0.87432 0.57912 0.0
C711 C 0.9429 0.8622 0.57678 0.0
H712 H 0.38143 0.76722 0.89486 0.0
H713 H 0.33538 0.7266 0.92407 0.0
H714 H 0.39471 0.73669 0.87667 0.0
H715 H 0.34878 0.69602 0.90582 0.0
H716 H 0.36326 0.65383 0.848 0.0
H717 H 0.35071 0.68349 0.86806 0.0
H718 H 0.41242 0.70311 0.88537 0.0
H719 H 0.42514 0.67336 0.86518 0.0
C720 C 0.37413 0.75178 0.8974 0.0
C721 C 0.35728 0.74934 0.91085 0.0
C722 C 0.38186 0.73428 0.88711 0.0
C723 C 0.37281 0.71399 0.88987 0.0
C724 C 0.35597 0.71152 0.9033 0.0
C725 C 0.34834 0.72901 0.91378 0.0
C726 C 0.37421 0.66442 0.85609 0.0
C727 C 0.39523 0.66125 0.8549 0.0
C728 C 0.36697 0.68132 0.86771 0.0
C729 C 0.38058 0.69559 0.87827 0.0
C730 C 0.4016 0.69242 0.87723 0.0
C731 C 0.40886 0.67535 0.86576 0.0
H732 H 0.48391 0.11701 0.10235 0.0
H733 H 0.49101 0.07596 0.15626 0.0
H734 H 0.51965 0.11476 0.09463 0.0
H735 H 0.52687 0.07266 0.14788 0.0
H736 H 0.58816 0.1131 0.15298 0.0
H737 H 0.5542 0.09653 0.15387 0.0
H738 H 0.55006 0.10036 0.0854 0.0
H739 H 0.5837 0.11826 0.085 0.0
C740 C 0.49297 0.10681 0.11209 0.0
C741 C 0.48478 0.09715 0.13025 0.0
C742 C 0.5136 0.10534 0.10756 0.0
C743 C 0.52646 0.0939 0.12093 0.0
C744 C 0.51762 0.08216 0.13762 0.0
C745 C 0.49702 0.08392 0.14235 0.0
C746 C 0.58026 0.10954 0.13811 0.0
C747 C 0.58834 0.11689 0.11896 0.0
C748 C 0.56072 0.09999 0.13853 0.0
C749 C 0.54901 0.09752 0.11971 0.0
C750 C 0.55832 0.10257 0.10027 0.0
C751 C 0.57769 0.11254 0.09995 0.0
H752 H 0.07762 0.65412 0.14712 0.0
H753 H 0.14343 0.659 0.14514 0.0
H754 H 0.07585 0.68635 0.12651 0.0
H755 H 0.1415 0.69159 0.12451 0.0
H756 H 0.12512 0.73903 0.06988 0.0
H757 H 0.12904 0.70545 0.08866 0.0
H758 H 0.08486 0.72404 0.13459 0.0
H759 H 0.08074 0.75705 0.11595 0.0
C760 C 0.09174 0.66201 0.14227 0.0
C761 C 0.11069 0.65403 0.14798 0.0
C762 C 0.09069 0.68055 0.1305 0.0
C763 C 0.10854 0.69158 0.12408 0.0
C764 C 0.12751 0.68334 0.12918 0.0
C765 C 0.12858 0.66477 0.1411 0.0
C766 C 0.11634 0.7359 0.08403 0.0
C767 C 0.10266 0.75071 0.09144 0.0
C768 C 0.11864 0.71677 0.0948 0.0
C769 C 0.10712 0.71209 0.11297 0.0
C770 C 0.09372 0.72706 0.12046 0.0
C771 C 0.09151 0.7461 0.10985 0.0
H772 H 0.43757 0.83724 0.38568 0.0
H773 H 0.45388 0.83206 0.31969 0.0
H774 H 0.47363 0.84228 0.39537 0.0
H775 H 0.48958 0.83746 0.32927 0.0
H776 H 0.55371 0.83398 0.35201 0.0
H777 H 0.5182 0.82209 0.34712 0.0
H778 H 0.4999 0.87042 0.39083 0.0
H779 H 0.5354 0.88202 0.3961 0.0
C780 C 0.44883 0.837 0.37329 0.0
C781 C 0.44286 0.83439 0.35191 0.0
C782 C 0.46946 0.83998 0.37882 0.0
C783 C 0.48448 0.84029 0.36309 0.0
C784 C 0.47847 0.837 0.34182 0.0
C785 C 0.45793 0.83408 0.33631 0.0
C786 C 0.54214 0.8419 0.36079 0.0
C787 C 0.54736 0.85913 0.37423 0.0
C788 C 0.52178 0.83513 0.35793 0.0
C789 C 0.5062 0.84546 0.36841 0.0
C790 C 0.51153 0.86201 0.38265 0.0
C791 C 0.53189 0.86875 0.38555 0.0
H792 H 0.37927 0.25022 0.547 0.0
H793 H 0.43572 0.25492 0.58286 0.0
H794 H 0.37011 0.28492 0.56106 0.0
H795 H 0.42673 0.28915 0.59665 0.0
H796 H 0.41526 0.35641 0.60604 0.0
H797 H 0.42133 0.32593 0.58369 0.0
H798 H 0.36185 0.29898 0.59868 0.0
H799 H 0.35556 0.32973 0.62109 0.0
C800 C 0.3898 0.25878 0.5576 0.0
C801 C 0.40817 0.24991 0.56391 0.0
C802 C 0.38453 0.27851 0.56571 0.0
C803 C 0.39777 0.28974 0.57983 0.0
C804 C 0.41635 0.28102 0.58556 0.0
C805 C 0.42143 0.26133 0.57777 0.0
C806 C 0.40329 0.34419 0.60437 0.0
C807 C 0.38507 0.3453 0.61572 0.0
C808 C 0.40679 0.32674 0.59153 0.0
C809 C 0.39219 0.30997 0.58973 0.0
C810 C 0.37334 0.31174 0.59975 0.0
C811 C 0.3698 0.32929 0.61265 0.0
H812 H 0.05569 0.16641 0.79595 0.0
H813 H 0.06685 0.15248 0.86205 0.0
H814 H 0.0192 0.16096 0.80129 0.0
H815 H 0.03037 0.14665 0.86726 0.0
H816 H 0.96226 0.15136 0.87361 0.0
H817 H 0.99748 0.16343 0.86778 0.0
H818 H 0.99675 0.1301 0.80774 0.0
H819 H 0.96152 0.11835 0.81335 0.0
C820 C 0.05036 0.16233 0.81166 0.0
C821 C 0.06419 0.1597 0.82854 0.0
C822 C 0.02946 0.15911 0.81468 0.0
C823 C 0.02191 0.15321 0.83465 0.0
C824 C 0.03568 0.15138 0.85173 0.0
C825 C 0.05661 0.1546 0.84871 0.0
C826 C 0.96955 0.14681 0.85905 0.0
C827 C 0.95913 0.13377 0.844 0.0
C828 C 0.98975 0.15364 0.85578 0.0
C829 C -6e-05 0.14763 0.83736 0.0
C830 C 0.98928 0.13521 0.82199 0.0
C831 C 0.9691 0.12836 0.82527 0.0
H832 H 0.38883 0.12654 0.21238 0.0
H833 H 0.44324 0.097 0.23437 0.0
H834 H 0.3726 0.11871 0.24628 0.0
H835 H 0.4269 0.08812 0.26747 0.0
H836 H 0.40013 0.08221 0.33046 0.0
H837 H 0.41527 0.09943 0.29968 0.0
H838 H 0.35805 0.09059 0.26543 0.0
H839 H 0.34267 0.07473 0.29688 0.0
C840 C 0.3973 0.11838 0.22446 0.0
C841 C 0.4173 0.11238 0.22072 0.0
C842 C 0.38798 0.11377 0.24386 0.0
C843 C 0.39837 0.10276 0.25978 0.0
C844 C 0.41849 0.09708 0.25596 0.0
C845 C 0.42787 0.10201 0.2368 0.0
C846 C 0.39073 0.08439 0.31646 0.0
C847 C 0.37032 0.07701 0.31593 0.0
C848 C 0.39943 0.09406 0.2987 0.0
C849 C 0.38809 0.09598 0.27975 0.0
C850 C 0.36729 0.08959 0.27969 0.0
C851 C 0.35845 0.0804 0.2977 0.0
H852 H 0.13175 0.17235 0.50957 0.0
H853 H 0.15612 0.11577 0.48271 0.0
H854 H 0.13841 0.15885 0.54532 0.0
H855 H 0.16272 0.10256 0.51812 0.0
H856 H 0.20077 0.10483 0.57951 0.0
H857 H 0.18919 0.11811 0.54545 0.0
H858 H 0.12932 0.12629 0.57082 0.0
H859 H 0.14079 0.11278 0.60514 0.0
C860 C 0.13808 0.15689 0.51126 0.0
C861 C 0.14357 0.14523 0.4933 0.0
C862 C 0.14189 0.1492 0.53168 0.0
C863 C 0.15139 0.12987 0.53436 0.0
C864 C 0.15568 0.11768 0.51644 0.0
C865 C 0.15175 0.12522 0.49615 0.0
C866 C 0.18517 0.10958 0.57796 0.0
C867 C 0.17167 0.10762 0.59502 0.0
C868 C 0.17852 0.11705 0.55841 0.0
C869 C 0.15832 0.12296 0.55552 0.0
C870 C 0.14496 0.12178 0.5727 0.0
C871 C 0.15153 0.114 0.59226 0.0
H872 H 0.14633 0.89815 0.80482 0.0
H873 H 0.08754 0.92437 0.81545 0.0
H874 H 0.13369 0.88283 0.77133 0.0
H875 H 0.0751 0.90932 0.78194 0.0
H876 H 0.05394 0.87014 0.72568 0.0
H877 H 0.06659 0.87673 0.76178 0.0
H878 H 0.12465 0.89881 0.73708 0.0
H879 H 0.11216 0.89199 0.70107 0.0
C880 C 0.13064 0.9004 0.80021 0.0
C881 C 0.11802 0.91271 0.81273 0.0
C882 C 0.12345 0.89171 0.78096 0.0
C883 C 0.10346 0.89502 0.77391 0.0
C884 C 0.09053 0.90633 0.78699 0.0
C885 C 0.09772 0.91509 0.80616 0.0
C886 C 0.06949 0.87614 0.72796 0.0
C887 C 0.08198 0.88074 0.7105 0.0
C888 C 0.0767 0.87997 0.74864 0.0
C889 C 0.09657 0.88839 0.75227 0.0
C890 C 0.10934 0.89211 0.73484 0.0
C891 C 0.10212 0.88835 0.71418 0.0
H892 H 0.37153 0.81786 0.00739 0.0
H893 H 0.33678 0.86908 0.98263 0.0
H894 H 0.37005 0.83355 0.04301 0.0
H895 H 0.33549 0.88455 0.01783 0.0
H896 H 0.31163 0.88675 0.08533 0.0
H897 H 0.31688 0.8713 0.05051 0.0
H898 H 0.38116 0.86779 0.0643 0.0
H899 H 0.376 0.88333 0.09939 0.0
C900 C 0.36389 0.83257 0.00946 0.0
C901 C 0.35421 0.84216 0.9922 0.0
C902 C 0.36308 0.84154 0.02979 0.0
C903 C 0.35242 0.86007 0.03312 0.0
C904 C 0.34353 0.87007 0.01572 0.0
C905 C 0.34444 0.86125 0.99551 0.0
C906 C 0.32689 0.88266 0.08104 0.0
C907 C 0.34341 0.8864 0.09511 0.0
C908 C 0.3299 0.8739 0.06106 0.0
C909 C 0.34945 0.86854 0.05472 0.0
C910 C 0.36594 0.87176 0.06888 0.0
C911 C 0.36297 0.88076 0.08887 0.0
H912 H 0.37328 0.79827 0.27731 0.0
H913 H 0.32137 0.83296 0.29694 0.0
H914 H 0.36292 0.80217 0.24032 0.0
H915 H 0.31145 0.83749 0.26021 0.0
H916 H 0.30003 0.85417 0.19497 0.0
H917 H 0.30215 0.82907 0.22414 0.0
H918 H 0.36787 0.8351 0.22229 0.0
H919 H 0.36577 0.8595 0.19307 0.0
C920 C 0.35931 0.80613 0.27378 0.0
C921 C 0.34853 0.81596 0.28994 0.0
C922 C 0.35341 0.80844 0.25258 0.0
C923 C 0.33679 0.82079 0.24726 0.0
C924 C 0.32441 0.82796 0.26363 0.0
C925 C 0.3302 0.8255 0.2848 0.0
C926 C 0.31492 0.84963 0.20041 0.0
C927 C 0.33275 0.85931 0.19213 0.0
C928 C 0.31612 0.83527 0.21715 0.0
C929 C 0.33515 0.83033 0.22585 0.0
C930 C 0.35292 0.83836 0.21601 0.0
C931 C 0.35173 0.85266 0.19935 0.0
H932 H 0.40948 0.12657 0.51144 0.0
H933 H 0.36628 0.16943 0.48533 0.0
H934 H 0.39981 0.10056 0.48407 0.0
H935 H 0.35713 0.14379 0.45755 0.0
H936 H 0.33225 0.08621 0.4209 0.0
H937 H 0.34026 0.1104 0.45034 0.0
H938 H 0.40362 0.09496 0.44704 0.0
H939 H 0.39551 0.07031 0.41818 0.0
C940 C 0.39796 0.13046 0.49982 0.0
C941 C 0.38869 0.15009 0.50053 0.0
C942 C 0.39249 0.1156 0.48404 0.0
C943 C 0.37775 0.12008 0.4685 0.0
C944 C 0.36832 0.13964 0.46941 0.0
C945 C 0.37367 0.15442 0.48528 0.0
C946 C 0.34787 0.08792 0.42651 0.0
C947 C 0.36322 0.0763 0.41715 0.0
C948 C 0.3525 0.10189 0.44333 0.0
C949 C 0.37261 0.10468 0.45109 0.0
C950 C 0.38791 0.09297 0.44176 0.0
C951 C 0.38327 0.0789 0.42508 0.0
H952 H 0.14214 0.18263 0.76336 0.0
H953 H 0.19625 0.16783 0.79885 0.0
H954 H 0.15959 0.17705 0.73063 0.0
H955 H 0.21461 0.16388 0.76583 0.0
H956 H 0.21863 0.1125 0.71341 0.0
H957 H 0.21396 0.13571 0.74343 0.0
H958 H 0.18105 0.17818 0.70299 0.0
H959 H 0.18441 0.15351 0.6734 0.0
C960 C 0.15813 0.17913 0.76415 0.0
C961 C 0.16761 0.17488 0.78364 0.0
C962 C 0.16834 0.17604 0.7452 0.0
C963 C 0.18845 0.16909 0.74535 0.0
C964 C 0.19885 0.16818 0.765 0.0
C965 C 0.18841 0.17068 0.78399 0.0
C966 C 0.21093 0.12714 0.71093 0.0
C967 C 0.20164 0.13123 0.69138 0.0
C968 C 0.20832 0.14067 0.72814 0.0
C969 C 0.19658 0.15876 0.726 0.0
C970 C 0.18949 0.16405 0.70556 0.0
C971 C 0.19159 0.15011 0.6885 0.0
H972 H 0.07213 0.87134 0.00834 0.0
H973 H 0.12217 0.83018 -0.00085 0.0
H974 H 0.0826 0.89182 0.97757 0.0
H975 H 0.13218 0.85009 0.96763 0.0
H976 H 0.1565 0.90384 0.92489 0.0
H977 H 0.14685 0.88253 0.95563 0.0
H978 H 0.08329 0.89071 0.94057 0.0
H979 H 0.09298 0.91273 0.91061 0.0
C980 C 0.08526 0.86652 -0.00042 0.0
C981 C 0.0963 0.84912 0.00616 0.0
C982 C 0.09121 0.87819 0.9818 0.0
C983 C 0.10818 0.87257 0.96991 0.0
C984 C 0.11921 0.85509 0.97651 0.0
C985 C 0.1134 0.84358 0.99451 0.0
C986 C 0.14047 0.901 0.92816 0.0
C987 C 0.12552 0.91013 0.91543 0.0
C988 C 0.13491 0.88869 0.94573 0.0
C989 C 0.11425 0.88499 0.95078 0.0
C990 C 0.09934 0.89363 0.93758 0.0
C991 C 0.1049 0.90617 0.92027 0.0
H992 H 0.28509 0.29908 0.14573 0.0
H993 H 0.2787 0.34167 0.09285 0.0
H994 H 0.24903 0.3018 0.15347 0.0
H995 H 0.24273 0.34458 0.10078 0.0
H996 H 0.17574 0.33824 0.11289 0.0
H997 H 0.20904 0.32622 0.10261 0.0
H998 H 0.22951 0.33073 0.16792 0.0
H999 H 0.19623 0.34247 0.17826 0.0
C1000 C 0.27595 0.30881 0.13558 0.0
C1001 C 0.28482 0.32036 0.11882 0.0
C1002 C 0.25531 0.31043 0.14009 0.0
C1003 C 0.24307 0.32355 0.12787 0.0
C1004 C 0.2517 0.33419 0.1104 0.0
C1005 C 0.27236 0.33262 0.10592 0.0
C1006 C 0.18722 0.33629 0.12513 0.0
C1007 C 0.18341 0.34155 0.14638 0.0
C1008 C 0.20633 0.32952 0.11919 0.0
C1009 C 0.22197 0.32773 0.1344 0.0
C1010 C 0.21775 0.33178 0.15583 0.0
C1011 C 0.19869 0.33863 0.16175 0.0
H1012 H 0.7502 0.12211 0.8749 0.0
H1013 H 0.74053 0.06099 0.84458 0.0
H1014 H 0.78494 0.1242 0.86194 0.0
H1015 H 0.77549 0.06306 0.83178 0.0
H1016 H 0.84411 0.06293 0.8588 0.0
H1017 H 0.8071 0.06138 0.8555 0.0
H1018 H 0.80895 0.12471 0.82998 0.0
H1019 H 0.84628 0.126 0.83294 0.0
C1020 C 0.75528 0.10935 0.86505 0.0
C1021 C 0.74266 0.09127 0.86101 0.0
C1022 C 0.77518 0.11063 0.85747 0.0
C1023 C 0.78292 0.09375 0.84591 0.0
C1024 C 0.7699 0.07626 0.84072 0.0
C1025 C 0.74991 0.0751 0.84808 0.0
C1026 C 0.83663 0.07612 0.85161 0.0
C1027 C 0.84791 0.09448 0.84595 0.0
C1028 C 0.81546 0.07526 0.8497 0.0
C1029 C 0.80516 0.09297 0.84257 0.0
C1030 C 0.81655 0.11086 0.83552 0.0
C1031 C 0.83786 0.11153 0.83702 0.0
H1032 H 0.14752 0.44485 0.11222 0.0
H1033 H 0.09137 0.44136 0.14724 0.0
H1034 H 0.14396 0.48286 0.10758 0.0
H1035 H 0.08801 0.47914 0.14295 0.0
H1036 H 0.14693 0.54775 0.14528 0.0
H1037 H 0.1482 0.51144 0.13303 0.0
H1038 H 0.0833 0.50977 0.12087 0.0
H1039 H 0.08188 0.54609 0.1337 0.0
C1040 C 0.13425 0.45211 0.11862 0.0
C1041 C 0.11986 0.44016 0.13035 0.0
C1042 C 0.13223 0.47388 0.11596 0.0
C1043 C 0.11579 0.48408 0.125 0.0
C1044 C 0.10073 0.4718 0.1355 0.0
C1045 C 0.10274 0.45009 0.13814 0.0
C1046 C 0.13298 0.53992 0.13943 0.0
C1047 C 0.1142 0.54962 0.14114 0.0
C1048 C 0.13374 0.51905 0.13225 0.0
C1049 C 0.11575 0.50753 0.12649 0.0
C1050 C 0.09735 0.51809 0.12574 0.0
C1051 C 0.09656 0.53895 0.13301 0.0
H1052 H 0.65624 0.94535 0.35677 0.0
H1053 H 0.64263 0.8828 0.33143 0.0
H1054 H 0.69081 0.94425 0.34361 0.0
H1055 H 0.67757 0.88143 0.31837 0.0
H1056 H 0.75258 0.9401 0.32171 0.0
H1057 H 0.71602 0.94056 0.31448 0.0
H1058 H 0.70802 0.87879 0.34288 0.0
H1059 H 0.74439 0.87828 0.35007 0.0
C1060 C 0.66047 0.93174 0.34752 0.0
C1061 C 0.64691 0.91421 0.34501 0.0
C1062 C 0.68025 0.93109 0.33993 0.0
C1063 C 0.68695 0.91267 0.33009 0.0
C1064 C 0.6728 0.8958 0.32594 0.0
C1065 C 0.6528 0.89664 0.33323 0.0
C1066 C 0.74311 0.92634 0.32582 0.0
C1067 C 0.75132 0.90934 0.33688 0.0
C1068 C 0.72218 0.92662 0.32165 0.0
C1069 C 0.70915 0.90984 0.32833 0.0
C1070 C 0.71767 0.8919 0.33739 0.0
C1071 C 0.73855 0.89169 0.34168 0.0
H1072 H 0.83658 0.94532 0.11571 0.0
H1073 H 0.90216 0.95293 0.11229 0.0
H1074 H 0.83336 0.98078 0.10148 0.0
H1075 H 0.89882 0.98838 0.09796 0.0
H1076 H 0.88149 0.05837 0.11249 0.0
H1077 H 0.88731 0.02079 0.11682 0.0
H1078 H 0.83961 0.00537 0.0709 0.0
H1079 H 0.8337 0.04301 0.06655 0.0
C1080 C 0.85029 0.95433 0.11146 0.0
C1081 C 0.86963 0.9464 0.11549 0.0
C1082 C 0.84843 0.97463 0.1032 0.0
C1083 C 0.86586 0.98742 0.09892 0.0
C1084 C 0.88515 0.97894 0.10144 0.0
C1085 C 0.88702 0.95857 0.10953 0.0
C1086 C 0.8724 0.04699 0.10314 0.0
C1087 C 0.85701 0.05364 0.08934 0.0
C1088 C 0.87585 0.02548 0.10548 0.0
C1089 C 0.8639 0.01018 0.09419 0.0
C1090 C 0.84895 0.01684 0.07988 0.0
C1091 C 0.84562 0.03838 0.07739 0.0
H1092 H 0.1985 0.67576 0.66938 0.0
H1093 H 0.2019 0.67022 0.60115 0.0
H1094 H 0.23571 0.67639 0.67188 0.0
H1095 H 0.23889 0.67089 0.60369 0.0
H1096 H 0.30518 0.68025 0.61077 0.0
H1097 H 0.27056 0.69241 0.61438 0.0
H1098 H 0.25956 0.64708 0.6644 0.0
H1099 H 0.29404 0.63495 0.66083 0.0
C1100 C 0.20718 0.67501 0.65491 0.0
C1101 C 0.1973 0.67265 0.63508 0.0
C1102 C 0.22844 0.67539 0.65637 0.0
C1103 C 0.24016 0.67373 0.63799 0.0
C1104 C 0.23028 0.6725 0.61811 0.0
C1105 C 0.20907 0.67187 0.61667 0.0
C1106 C 0.29558 0.67337 0.623 0.0
C1107 C 0.30214 0.65638 0.63526 0.0
C1108 C 0.27575 0.68026 0.62498 0.0
C1109 C 0.26231 0.67045 0.63943 0.0
C1110 C 0.2696 0.65497 0.65316 0.0
C1111 C 0.28932 0.64794 0.65104 0.0
H1112 H 0.06664 0.42088 0.38596 0.0
H1113 H 0.10072 0.43179 0.32854 0.0
H1114 H 0.08264 0.45337 0.40148 0.0
H1115 H 0.11633 0.46382 0.34385 0.0
H1116 H 0.12736 0.52956 0.36685 0.0
H1117 H 0.10509 0.49988 0.35532 0.0
H1118 H 0.11982 0.46594 0.41235 0.0
H1119 H 0.14218 0.49575 0.42409 0.0
C1120 C 0.0774 0.43022 0.37665 0.0
C1121 C 0.08246 0.4237 0.35606 0.0
C1122 C 0.08657 0.44872 0.38553 0.0
C1123 C 0.10057 0.46119 0.37377 0.0
C1124 C 0.10537 0.45473 0.35317 0.0
C1125 C 0.09653 0.43622 0.34448 0.0
C1126 C 0.12564 0.51595 0.37715 0.0
C1127 C 0.13685 0.51488 0.39622 0.0
C1128 C 0.11289 0.49894 0.37051 0.0
C1129 C 0.11096 0.48051 0.38281 0.0
C1130 C 0.12099 0.47998 0.4026 0.0
C1131 C 0.13387 0.49702 0.40924 0.0
H1132 H 0.43194 0.55188 0.86992 0.0
H1133 H 0.36889 0.56524 0.85804 0.0
H1134 H 0.42127 0.51836 0.88659 0.0
H1135 H 0.35832 0.53202 0.87437 0.0
H1136 H 0.39036 0.45083 0.8682 0.0
H1137 H 0.40652 0.4861 0.86925 0.0
H1138 H 0.35612 0.50878 0.90507 0.0
H1139 H 0.33969 0.4735 0.90364 0.0
C1140 C 0.41582 0.54794 0.87138 0.0
C1141 C 0.40124 0.56097 0.86236 0.0
C1142 C 0.40973 0.52874 0.88084 0.0
C1143 C 0.38897 0.52245 0.88167 0.0
C1144 C 0.37442 0.53641 0.87423 0.0
C1145 C 0.38049 0.5554 0.86463 0.0
C1146 C 0.38302 0.46315 0.87691 0.0
C1147 C 0.3635 0.45953 0.88533 0.0
C1148 C 0.39237 0.4834 0.87762 0.0
C1149 C 0.38237 0.50034 0.88684 0.0
C1150 C 0.36398 0.49611 0.89746 0.0
C1151 C 0.3546 0.47588 0.89668 0.0
H1152 H 0.89769 0.64517 0.56545 0.0
H1153 H 0.89268 0.66463 0.63096 0.0
H1154 H 0.88421 0.67866 0.55409 0.0
H1155 H 0.87979 0.69824 0.61958 0.0
H1156 H 0.85784 0.759 0.59586 0.0
H1157 H 0.85573 0.72077 0.60187 0.0
H1158 H 0.90238 0.71253 0.55515 0.0
H1159 H 0.90419 0.75031 0.54893 0.0
C1160 C 0.89332 0.65638 0.57745 0.0
C1161 C 0.89678 0.65244 0.59911 0.0
C1162 C 0.88564 0.6756 0.57092 0.0
C1163 C 0.88139 0.69133 0.5859 0.0
C1164 C 0.88286 0.68649 0.6076 0.0
C1165 C 0.89041 0.66721 0.61414 0.0
C1166 C 0.86722 0.74892 0.58649 0.0
C1167 C 0.88145 0.7577 0.5722 0.0
C1168 C 0.86608 0.72704 0.59001 0.0
C1169 C 0.87902 0.7136 0.57916 0.0
C1170 C 0.89203 0.72231 0.56366 0.0
C1171 C 0.89324 0.74408 0.56024 0.0
H1172 H 0.9805 0.1161 0.37753 0.0
H1173 H 0.00572 0.16639 0.33842 0.0
H1174 H 0.0118 0.11694 0.39883 0.0
H1175 H 0.03709 0.16687 0.35933 0.0
H1176 H 0.08481 0.17521 0.41107 0.0
H1177 H 0.05162 0.17575 0.39358 0.0
H1178 H 0.04687 0.1074 0.39521 0.0
H1179 H 0.07988 0.10683 0.41318 0.0
C1180 C 0.99268 0.12738 0.37351 0.0
C1181 C 0.99062 0.14114 0.35622 0.0
C1182 C 0.01068 0.12776 0.38564 0.0
C1183 C 0.02701 0.14191 0.38076 0.0
C1184 C 0.02474 0.15596 0.36373 0.0
C1185 C 0.00677 0.15559 0.35164 0.0
C1186 C 0.07666 0.16027 0.40784 0.0
C1187 C 0.08511 0.14095 0.41346 0.0
C1188 C 0.05764 0.16059 0.3977 0.0
C1189 C 0.04661 0.14162 0.39285 0.0
C1190 C 0.05484 0.12232 0.39891 0.0
C1191 C 0.07384 0.12199 0.40912 0.0
H1192 H 0.63478 0.23712 0.12532 0.0
H1193 H 0.58341 0.23397 0.08175 0.0
H1194 H 0.63163 0.27542 0.12856 0.0
H1195 H 0.5802 0.27193 0.08515 0.0
H1196 H 0.58082 0.34101 0.08697 0.0
H1197 H 0.59573 0.30733 0.07888 0.0
H1198 H 0.60518 0.29638 0.14579 0.0
H1199 H 0.59057 0.33019 0.15396 0.0
C1200 C 0.62308 0.24462 0.11613 0.0
C1201 C 0.60917 0.23248 0.10349 0.0
C1202 C 0.62124 0.26652 0.11807 0.0
C1203 C 0.60563 0.27667 0.10719 0.0
C1204 C 0.59254 0.26466 0.09356 0.0
C1205 C 0.59426 0.24283 0.09177 0.0
C1206 C 0.58649 0.33167 0.09997 0.0
C1207 C 0.58406 0.33809 0.12116 0.0
C1208 C 0.595 0.31235 0.0953 0.0
C1209 C 0.60127 0.29905 0.1117 0.0
C1210 C 0.60054 0.30631 0.13278 0.0
C1211 C 0.59204 0.32567 0.13747 0.0
H1212 H 0.41258 0.81708 0.91738 0.0
H1213 H 0.40821 0.88462 0.90944 0.0
H1214 H 0.44641 0.81893 0.9022 0.0
H1215 H 0.44181 0.88638 0.89344 0.0
H1216 H 0.50941 0.88566 0.87984 0.0
H1217 H 0.47752 0.88364 0.89933 0.0
H1218 H 0.46157 0.82373 0.86879 0.0
H1219 H 0.49362 0.82538 0.85007 0.0
C1220 C 0.41881 0.83234 0.91229 0.0
C1221 C 0.40763 0.85069 0.9145 0.0
C1222 C 0.4382 0.83338 0.90348 0.0
C1223 C 0.44683 0.85277 0.8964 0.0
C1224 C 0.43578 0.87121 0.89896 0.0
C1225 C 0.41644 0.8702 0.90801 0.0
C1226 C 0.49916 0.87197 0.87749 0.0
C1227 C 0.50405 0.85569 0.8634 0.0
C1228 C 0.4808 0.87088 0.88853 0.0
C1229 C 0.46688 0.85356 0.88561 0.0
C1230 C 0.47201 0.83715 0.87176 0.0
C1231 C 0.4904 0.83815 0.86089 0.0
H1232 H 0.89623 0.18025 0.89146 0.0
H1233 H 0.8322 0.16895 0.87784 0.0
H1234 H 0.89149 0.21807 0.89283 0.0
H1235 H 0.82749 0.20704 0.87758 0.0
H1236 H 0.8213 0.2753 0.8988 0.0
H1237 H 0.82548 0.23721 0.89779 0.0
H1238 H 0.88643 0.24787 0.87365 0.0
H1239 H 0.8826 0.28587 0.87629 0.0
C1240 C 0.88116 0.18597 0.88838 0.0
C1241 C 0.86458 0.17173 0.88452 0.0
C1242 C 0.87843 0.20773 0.88898 0.0
C1243 C 0.85911 0.21588 0.88515 0.0
C1244 C 0.84253 0.2015 0.88102 0.0
C1245 C 0.84521 0.17964 0.88099 0.0
C1246 C 0.83559 0.26939 0.89335 0.0
C1247 C 0.85169 0.28346 0.88779 0.0
C1248 C 0.83797 0.24752 0.89257 0.0
C1249 C 0.85635 0.23922 0.88568 0.0
C1250 C 0.87225 0.25349 0.87962 0.0
C1251 C 0.87004 0.27533 0.88096 0.0
H1252 H 0.44911 0.16069 0.63373 0.0
H1253 H 0.46715 0.13895 0.57191 0.0
H1254 H 0.47292 0.13748 0.65046 0.0
H1255 H 0.49106 0.11532 0.58884 0.0
H1256 H 0.55224 0.11105 0.62854 0.0
H1257 H 0.52336 0.12333 0.6083 0.0
H1258 H 0.48271 0.10119 0.65752 0.0
H1259 H 0.51176 0.08912 0.67805 0.0
C1260 C 0.45794 0.15067 0.6237 0.0
C1261 C 0.45648 0.15191 0.60147 0.0
C1262 C 0.47145 0.13716 0.63333 0.0
C1263 C 0.48395 0.12462 0.62099 0.0
C1264 C 0.48173 0.12495 0.59875 0.0
C1265 C 0.468 0.1384 0.58906 0.0
C1266 C 0.53712 0.10846 0.63493 0.0
C1267 C 0.53434 0.09946 0.6551 0.0
C1268 C 0.52052 0.11533 0.6232 0.0
C1269 C 0.50076 0.1134 0.63139 0.0
C1270 C 0.49781 0.10313 0.65093 0.0
C1271 C 0.51444 0.09618 0.66266 0.0
H1272 H 0.60929 0.8302 0.39721 0.0
H1273 H 0.67044 0.83937 0.37368 0.0
H1274 H 0.61276 0.79207 0.39645 0.0
H1275 H 0.67361 0.80116 0.3717 0.0
H1276 H 0.68054 0.73206 0.38349 0.0
H1277 H 0.67726 0.76972 0.39053 0.0
H1278 H 0.61339 0.76378 0.37314 0.0
H1279 H 0.61647 0.72619 0.36731 0.0
C1280 C 0.6234 0.82402 0.3916 0.0
C1281 C 0.63956 0.83775 0.38541 0.0
C1282 C 0.6254 0.80212 0.3911 0.0
C1283 C 0.64346 0.79338 0.38396 0.0
C1284 C 0.65962 0.80721 0.37772 0.0
C1285 C 0.65775 0.82915 0.37863 0.0
C1286 C 0.66573 0.73877 0.3816 0.0
C1287 C 0.6488 0.72612 0.3748 0.0
C1288 C 0.66388 0.76043 0.3854 0.0
C1289 C 0.64511 0.76998 0.38214 0.0
C1290 C 0.62804 0.75708 0.37613 0.0
C1291 C 0.62982 0.73542 0.3727 0.0
H1292 H 0.04506 0.85719 0.0667 0.0
H1293 H 0.06201 0.85818 0.13316 0.0
H1294 H 0.01664 0.87973 0.07436 0.0
H1295 H 0.03371 0.88046 0.14076 0.0
H1296 H 0.98376 0.92462 0.14997 0.0
H1297 H 0.0164 0.91427 0.13589 0.0
H1298 H 0.98492 0.86953 0.0937 0.0
H1299 H 0.95242 0.87991 0.10757 0.0
C1300 C 0.04309 0.86269 0.08282 0.0
C1301 C 0.05555 0.85563 0.09939 0.0
C1302 C 0.02675 0.87549 0.08721 0.0
C1303 C 0.0228 0.88164 0.10819 0.0
C1304 C 0.03639 0.8761 0.12442 0.0
C1305 C 0.05254 0.86318 0.12008 0.0
C1306 C 0.9838 0.91287 0.1374 0.0
C1307 C 0.96553 0.90283 0.13012 0.0
C1308 C 0.00249 0.90694 0.12937 0.0
C1309 C 0.00323 0.89101 0.11378 0.0
C1310 C 0.98487 0.88201 0.10554 0.0
C1311 C 0.96623 0.88781 0.11366 0.0
H1312 H 0.63197 0.83295 0.67875 0.0
H1313 H 0.57163 0.85435 0.66498 0.0
H1314 H 0.62044 0.82022 0.71315 0.0
H1315 H 0.56033 0.84216 0.6994 0.0
H1316 H 0.54478 0.83185 0.76548 0.0
H1317 H 0.55429 0.81961 0.7302 0.0
H1318 H 0.61509 0.84671 0.74044 0.0
H1319 H 0.6057 0.85853 0.77529 0.0
C1320 C 0.61604 0.83415 0.68263 0.0
C1321 C 0.60293 0.84551 0.66955 0.0
C1322 C 0.60947 0.82693 0.70242 0.0
C1323 C 0.58973 0.83099 0.70935 0.0
C1324 C 0.57572 0.83899 0.69473 0.0
C1325 C 0.58227 0.84616 0.67496 0.0
C1326 C 0.56032 0.83463 0.76036 0.0
C1327 C 0.57435 0.84669 0.77293 0.0
C1328 C 0.56576 0.82761 0.74017 0.0
C1329 C 0.58538 0.83234 0.73238 0.0
C1330 C 0.59989 0.84258 0.7459 0.0
C1331 C 0.5944 0.84974 0.76588 0.0
H1332 H 0.84279 0.83731 0.52207 0.0
H1333 H 0.90279 0.83974 0.49455 0.0
H1334 H 0.82796 0.84562 0.48759 0.0
H1335 H 0.88785 0.84806 0.46009 0.0
H1336 H 0.85311 0.89026 0.41191 0.0
H1337 H 0.86946 0.87908 0.4447 0.0
H1338 H 0.82372 0.82859 0.45109 0.0
H1339 H 0.80729 0.83968 0.41828 0.0
C1340 C 0.85282 0.8396 0.50869 0.0
C1341 C 0.87398 0.83791 0.51108 0.0
C1342 C 0.8443 0.84419 0.48892 0.0
C1343 C 0.85677 0.8474 0.4712 0.0
C1344 C 0.87791 0.84575 0.47355 0.0
C1345 C 0.88643 0.84092 0.49326 0.0
C1346 C 0.84665 0.87663 0.42016 0.0
C1347 C 0.82883 0.86593 0.41252 0.0
C1348 C 0.85607 0.8702 0.43889 0.0
C1349 C 0.84775 0.85308 0.45047 0.0
C1350 C 0.8303 0.84199 0.44256 0.0
C1351 C 0.821 0.84827 0.4237 0.0
H1352 H 0.88635 0.18505 0.1611 0.0
H1353 H 0.8861 0.11672 0.15657 0.0
H1354 H 0.89919 0.18316 0.1977 0.0
H1355 H 0.89879 0.11502 0.19283 0.0
H1356 H 0.88939 0.11812 0.26353 0.0
H1357 H 0.88013 0.12402 0.22678 0.0
H1358 H 0.93006 0.17007 0.22114 0.0
H1359 H 0.93952 0.16422 0.25846 0.0
C1360 C 0.88933 0.16969 0.16772 0.0
C1361 C 0.88488 0.15101 0.15597 0.0
C1362 C 0.89671 0.16865 0.18865 0.0
C1363 C 0.89962 0.14894 0.19815 0.0
C1364 C 0.8963 0.13041 0.186 0.0
C1365 C 0.88908 0.13143 0.16517 0.0
C1366 C 0.89829 0.12978 0.2547 0.0
C1367 C 0.91524 0.14067 0.26397 0.0
C1368 C 0.89306 0.13299 0.23353 0.0
C1369 C 0.90458 0.14723 0.22105 0.0
C1370 C 0.92098 0.15895 0.23046 0.0
C1371 C 0.92637 0.15559 0.25176 0.0
H1372 H 0.69927 0.14192 0.95893 0.0
H1373 H 0.64078 0.11876 0.93489 0.0
H1374 H 0.68414 0.15038 0.99266 0.0
H1375 H 0.62497 0.12899 0.96795 0.0
H1376 H 0.60535 0.12793 0.03656 0.0
H1377 H 0.62008 0.12027 0.00228 0.0
H1378 H 0.66513 0.17143 0.01252 0.0
H1379 H 0.65136 0.17747 0.04757 0.0
C1380 C 0.683 0.13917 0.96077 0.0
C1381 C 0.67117 0.12969 0.9444 0.0
C1382 C 0.67421 0.14417 0.98011 0.0
C1383 C 0.65318 0.14044 0.98334 0.0
C1384 C 0.64126 0.13162 0.96649 0.0
C1385 C 0.65023 0.12596 0.94738 0.0
C1386 C 0.61847 0.1374 0.03137 0.0
C1387 C 0.62737 0.15314 0.04463 0.0
C1388 C 0.62684 0.13321 0.01159 0.0
C1389 C 0.64393 0.14518 0.00432 0.0
C1390 C 0.65239 0.16138 0.01758 0.0
C1391 C 0.64443 0.16504 0.03765 0.0
H1392 H 0.68816 0.15268 0.82758 0.0
H1393 H 0.64036 0.10798 0.84651 0.0
H1394 H 0.67068 0.1574 0.79359 0.0
H1395 H 0.62297 0.11272 0.81257 0.0
H1396 H 0.59157 0.13139 0.75211 0.0
H1397 H 0.6058 0.1386 0.78762 0.0
H1398 H 0.66628 0.13007 0.76389 0.0
H1399 H 0.65216 0.12271 0.72867 0.0
C1400 C 0.67369 0.14426 0.82471 0.0
C1401 C 0.66579 0.12969 0.83958 0.0
C1402 C 0.66375 0.14691 0.80523 0.0
C1403 C 0.64558 0.13531 0.8004 0.0
C1404 C 0.6369 0.12197 0.8159 0.0
C1405 C 0.64695 0.1191 0.83526 0.0
C1406 C 0.60794 0.13155 0.75439 0.0
C1407 C 0.62074 0.12626 0.73763 0.0
C1408 C 0.61605 0.13559 0.77471 0.0
C1409 C 0.63712 0.1348 0.7785 0.0
C1410 C 0.64999 0.13097 0.76141 0.0
C1411 C 0.64188 0.1266 0.74123 0.0
H1412 H 0.64724 0.87413 0.45737 0.0
H1413 H 0.59397 0.91149 0.46205 0.0
H1414 H 0.64512 0.86569 0.49482 0.0
H1415 H 0.59255 0.9044 0.50008 0.0
H1416 H 0.58759 0.88105 0.56657 0.0
H1417 H 0.58638 0.88093 0.52789 0.0
H1418 H 0.65225 0.88179 0.52687 0.0
H1419 H 0.65327 0.8806 0.56519 0.0
C1420 C 0.63519 0.88074 0.46657 0.0
C1421 C 0.62094 0.89371 0.457 0.0
C1422 C 0.63399 0.87598 0.48808 0.0
C1423 C 0.61886 0.8846 0.5007 0.0
C1424 C 0.60427 0.89721 0.4909 0.0
C1425 C 0.60516 0.90149 0.46917 0.0
C1426 C 0.60175 0.88072 0.55798 0.0
C1427 C 0.62052 0.88088 0.5689 0.0
C1428 C 0.60109 0.88089 0.53581 0.0
C1429 C 0.61921 0.88164 0.52412 0.0
C1430 C 0.63792 0.88086 0.53516 0.0
C1431 C 0.63855 0.88025 0.55725 0.0
H1432 H 0.80745 0.84943 0.29584 0.0
H1433 H 0.85386 0.8959 0.31607 0.0
H1434 H 0.82519 0.84492 0.26235 0.0
H1435 H 0.87161 0.89116 0.28271 0.0
H1436 H 0.84561 0.87789 0.19757 0.0
H1437 H 0.83026 0.87215 0.23215 0.0
H1438 H 0.88972 0.86341 0.25979 0.0
H1439 H 0.90517 0.86893 0.22499 0.0
C1440 C 0.82163 0.85836 0.29334 0.0
C1441 C 0.82916 0.87318 0.30851 0.0
C1442 C 0.83173 0.8558 0.27416 0.0
C1443 C 0.84973 0.86771 0.26998 0.0
C1444 C 0.85786 0.88164 0.28562 0.0
C1445 C 0.8476 0.88447 0.30464 0.0
C1446 C 0.85539 0.87434 0.21089 0.0
C1447 C 0.8766 0.87407 0.20861 0.0
C1448 C 0.84657 0.87091 0.23068 0.0
C1449 C 0.85883 0.86748 0.24863 0.0
C1450 C 0.87996 0.86613 0.24618 0.0
C1451 C 0.88875 0.86917 0.22627 0.0
H1452 H 0.92209 0.14288 0.93817 0.0
H1453 H 0.88908 0.08693 0.96005 0.0
H1454 H 0.92778 0.15453 0.9751 0.0
H1455 H 0.89503 0.09815 0.99664 0.0
H1456 H 0.90712 0.11672 0.06057 0.0
H1457 H 0.92036 0.10749 0.02596 0.0
H1458 H 0.9 0.16642 0.00062 0.0
H1459 H 0.88684 0.17579 0.03533 0.0
C1460 C 0.91681 0.13269 0.95091 0.0
C1461 C 0.90514 0.11404 0.94641 0.0
C1462 C 0.91994 0.1394 0.97196 0.0
C1463 C 0.91185 0.12726 0.98872 0.0
C1464 C 0.90171 0.10773 0.98411 0.0
C1465 C 0.8982 0.1013 0.96317 0.0
C1466 C 0.90614 0.12808 0.04782 0.0
C1467 C 0.89546 0.14673 0.05049 0.0
C1468 C 0.91374 0.12277 0.02802 0.0
C1469 C 0.91077 0.136 0.01053 0.0
C1470 C 0.90251 0.15592 0.01384 0.0
C1471 C 0.89492 0.16128 0.03374 0.0
H1472 H 0.78087 0.60487 0.84131 0.0
H1473 H 0.74043 0.55128 0.85509 0.0
H1474 H 0.75288 0.62862 0.84607 0.0
H1475 H 0.71298 0.57472 0.86114 0.0
H1476 H 0.66361 0.61508 0.87174 0.0
H1477 H 0.68882 0.59755 0.85058 0.0
H1478 H 0.73523 0.64278 0.87374 0.0
H1479 H 0.70957 0.6611 0.89325 0.0
C1480 C 0.76597 0.59818 0.84529 0.0
C1481 C 0.76288 0.57624 0.84804 0.0
C1482 C 0.74992 0.61179 0.84811 0.0
C1483 C 0.73053 0.60377 0.85416 0.0
C1484 C 0.72742 0.58167 0.85605 0.0
C1485 C 0.74331 0.56811 0.85282 0.0
C1486 C 0.67904 0.62178 0.87137 0.0
C1487 C 0.68474 0.63934 0.88406 0.0
C1488 C 0.69362 0.61154 0.85958 0.0
C1489 C 0.71433 0.61815 0.86104 0.0
C1490 C 0.71954 0.6371 0.87208 0.0
C1491 C 0.7048 0.64771 0.88332 0.0
H1492 H 0.23666 0.90766 0.09483 0.0
H1493 H 0.25073 0.86291 0.14397 0.0
H1494 H 0.20412 0.88863 0.08817 0.0
H1495 H 0.21854 0.84367 0.13697 0.0
H1496 H 0.14995 0.83007 0.13669 0.0
H1497 H 0.18278 0.84853 0.14212 0.0
H1498 H 0.18904 0.85556 0.07434 0.0
H1499 H 0.15588 0.8375 0.06886 0.0
C1500 C 0.2329 0.89368 0.10408 0.0
C1501 C 0.24623 0.88689 0.12002 0.0
C1502 C 0.21429 0.88271 0.10019 0.0
C1503 C 0.20867 0.8647 0.11212 0.0
C1504 C 0.22222 0.8577 0.12776 0.0
C1505 C 0.24075 0.86868 0.13169 0.0
C1506 C 0.1583 0.8355 0.12291 0.0
C1507 C 0.15023 0.83227 0.10233 0.0
C1508 C 0.17721 0.84599 0.12603 0.0
C1509 C 0.18858 0.85347 0.10866 0.0
C1510 C 0.18056 0.85022 0.08807 0.0
C1511 C 0.1616 0.83975 0.08494 0.0
H1512 H 0.80135 0.48716 0.89581 0.0
H1513 H 0.85882 0.4839 0.86362 0.0
H1514 H 0.80543 0.45159 0.9096 0.0
H1515 H 0.86271 0.44821 0.8771 0.0
H1516 H 0.87178 0.39279 0.92254 0.0
H1517 H 0.86855 0.42871 0.9096 0.0
H1518 H 0.80465 0.41537 0.89631 0.0
H1519 H 0.80773 0.37954 0.90976 0.0
C1520 C 0.81491 0.4789 0.89177 0.0
C1521 C 0.82977 0.48838 0.87865 0.0
C1522 C 0.81716 0.45844 0.89952 0.0
C1523 C 0.83432 0.44698 0.89431 0.0
C1524 C 0.8494 0.45666 0.88158 0.0
C1525 C 0.84715 0.47713 0.87383 0.0
C1526 C 0.85706 0.39741 0.91671 0.0
C1527 C 0.84006 0.38312 0.91692 0.0
C1528 C 0.85523 0.41803 0.90923 0.0
C1529 C 0.83634 0.42493 0.90193 0.0
C1530 C 0.81937 0.41064 0.90206 0.0
C1531 C 0.82119 0.39002 0.90954 0.0
H1532 H 0.29502 0.11534 0.66263 0.0
H1533 H 0.26637 0.11841 0.60069 0.0
H1534 H 0.32418 0.13626 0.64978 0.0
H1535 H 0.29542 0.13979 0.58795 0.0
H1536 H 0.36153 0.156 0.56781 0.0
H1537 H 0.33116 0.13644 0.57973 0.0
H1538 H 0.33341 0.17196 0.63852 0.0
H1539 H 0.36408 0.19123 0.62686 0.0
C1540 C 0.2949 0.12054 0.64628 0.0
C1541 C 0.27838 0.11518 0.63267 0.0
C1542 C 0.31157 0.13268 0.63896 0.0
C1543 C 0.31208 0.13979 0.61787 0.0
C1544 C 0.29558 0.13438 0.60423 0.0
C1545 C 0.2789 0.12219 0.61155 0.0
C1546 C 0.3555 0.15977 0.58322 0.0
C1547 C 0.36536 0.1751 0.59644 0.0
C1548 C 0.33801 0.1486 0.59001 0.0
C1549 C 0.32995 0.15253 0.61014 0.0
C1550 C 0.33946 0.16829 0.62308 0.0
C1551 C 0.35697 0.17943 0.61632 0.0
H1552 H 0.12835 0.9941 0.89156 0.0
H1553 H 0.19323 0.00462 0.88542 0.0
H1554 H 0.12472 0.03175 0.89824 0.0
H1555 H 0.18971 0.04228 0.89018 0.0
H1556 H 0.18282 0.11003 0.89271 0.0
H1557 H 0.1836 0.07378 0.90557 0.0
H1558 H 0.12388 0.06065 0.87757 0.0
H1559 H 0.1226 0.09693 0.86648 0.0
C1560 C 0.14185 0.00451 0.89182 0.0
C1561 C 0.16101 0.99658 0.88765 0.0
C1562 C 0.13981 0.02617 0.89545 0.0
C1563 C 0.1568 0.04047 0.89411 0.0
C1564 C 0.17618 0.03208 0.89155 0.0
C1565 C 0.17826 0.01036 0.88864 0.0
C1566 C 0.16962 0.09949 0.88999 0.0
C1567 C 0.15282 0.10625 0.87824 0.0
C1568 C 0.17013 0.07857 0.89712 0.0
C1569 C 0.15412 0.06379 0.89206 0.0
C1570 C 0.13656 0.07126 0.88202 0.0
C1571 C 0.13584 0.09226 0.87545 0.0
H1572 H 0.78507 0.32566 0.40726 0.0
H1573 H 0.81693 0.3864 0.4148 0.0
H1574 H 0.75954 0.34203 0.38467 0.0
H1575 H 0.79163 0.40265 0.39244 0.0
H1576 H 0.74719 0.42782 0.3469 0.0
H1577 H 0.77483 0.40528 0.35733 0.0
H1578 H 0.73299 0.36726 0.39499 0.0
H1579 H 0.70532 0.38962 0.38447 0.0
C1580 C 0.78696 0.34234 0.40356 0.0
C1581 C 0.80286 0.35481 0.41295 0.0
C1582 C 0.77228 0.35174 0.39079 0.0
C1583 C 0.77346 0.37366 0.38694 0.0
C1584 C 0.79032 0.38571 0.39494 0.0
C1585 C 0.80478 0.37641 0.40787 0.0
C1586 C 0.74379 0.41441 0.35707 0.0
C1587 C 0.72411 0.41074 0.36514 0.0
C1588 C 0.75965 0.40152 0.36306 0.0
C1589 C 0.75614 0.38461 0.37712 0.0
C1590 C 0.73617 0.38005 0.38399 0.0
C1591 C 0.72033 0.393 0.37809 0.0
H1592 H 0.87071 0.44638 0.65105 0.0
H1593 H 0.81472 0.47465 0.63177 0.0
H1594 H 0.89014 0.47721 0.63774 0.0
H1595 H 0.83424 0.50571 0.61892 0.0
H1596 H 0.87941 0.56462 0.63973 0.0
H1597 H 0.8582 0.53236 0.64442 0.0
H1598 H 0.89525 0.49941 0.60004 0.0
H1599 H 0.91626 0.53197 0.59479 0.0
C1600 C 0.86258 0.45904 0.64379 0.0
C1601 C 0.8412 0.4582 0.64263 0.0
C1602 C 0.8737 0.47658 0.63604 0.0
C1603 C 0.86361 0.49372 0.6274 0.0
C1604 C 0.8423 0.49261 0.62552 0.0
C1605 C 0.83119 0.47485 0.63284 0.0
C1606 C 0.88286 0.55058 0.63076 0.0
C1607 C 0.89947 0.55072 0.61695 0.0
C1608 C 0.87067 0.53221 0.63335 0.0
C1609 C 0.87516 0.51355 0.62254 0.0
C1610 C 0.89155 0.5137 0.60846 0.0
C1611 C 0.90346 0.53227 0.60545 0.0
H1612 H 0.62546 0.54604 0.1359 0.0
H1613 H 0.67671 0.50563 0.14013 0.0
H1614 H 0.60261 0.51509 0.12993 0.0
H1615 H 0.65373 0.47451 0.1343 0.0
H1616 H 0.59963 0.42958 0.15887 0.0
H1617 H 0.62432 0.45946 0.15904 0.0
H1618 H 0.59646 0.48369 0.10228 0.0
H1619 H 0.57181 0.45349 0.10179 0.0
C1620 C 0.63182 0.53055 0.13554 0.0
C1621 C 0.65276 0.52814 0.13885 0.0
C1622 C 0.61879 0.51288 0.13187 0.0
C1623 C 0.62645 0.49248 0.1318 0.0
C1624 C 0.64749 0.49011 0.13441 0.0
C1625 C 0.66059 0.50785 0.13765 0.0
C1626 C 0.59879 0.44121 0.14636 0.0
C1627 C 0.58372 0.43925 0.13036 0.0
C1628 C 0.61303 0.45819 0.14637 0.0
C1629 C 0.61229 0.47374 0.13062 0.0
C1630 C 0.5973 0.47183 0.11457 0.0
C1631 C 0.58326 0.45459 0.1143 0.0
H1632 H 0.62125 0.72806 0.89415 0.0
H1633 H 0.66119 0.76888 0.93273 0.0
H1634 H 0.60762 0.75902 0.87696 0.0
H1635 H 0.64753 0.79989 0.91537 0.0
H1636 H 0.63647 0.84361 0.85657 0.0
H1637 H 0.64875 0.81454 0.87782 0.0
H1638 H 0.58686 0.79094 0.88654 0.0
H1639 H 0.57444 0.82013 0.86527 0.0
C1640 C 0.62714 0.74364 0.89895 0.0
C1641 C 0.64238 0.74603 0.91473 0.0
C1642 C 0.61918 0.76135 0.88924 0.0
C1643 C 0.62646 0.78182 0.89492 0.0
C1644 C 0.64171 0.78426 0.91067 0.0
C1645 C 0.64949 0.76653 0.9206 0.0
C1646 C 0.62544 0.83236 0.86319 0.0
C1647 C 0.60449 0.83408 0.85912 0.0
C1648 C 0.63249 0.81579 0.87546 0.0
C1649 C 0.61876 0.80046 0.88371 0.0
C1650 C 0.59776 0.80248 0.88019 0.0
C1651 C 0.59067 0.81924 0.86814 0.0
H1652 H 0.49712 0.38681 0.10863 0.0
H1653 H 0.48566 0.4231 0.16517 0.0
H1654 H 0.46181 0.3884 0.09817 0.0
H1655 H 0.45008 0.42556 0.1542 0.0
H1656 H 0.39846 0.38615 0.08155 0.0
H1657 H 0.43192 0.40374 0.08728 0.0
H1658 H 0.4231 0.40012 0.15513 0.0
H1659 H 0.38939 0.38379 0.14906 0.0
C1660 C 0.48719 0.39581 0.11849 0.0
C1661 C 0.49412 0.40442 0.13797 0.0
C1662 C 0.46681 0.3969 0.11237 0.0
C1663 C 0.45283 0.40682 0.1255 0.0
C1664 C 0.46027 0.41734 0.14395 0.0
C1665 C 0.48071 0.41605 0.15018 0.0
C1666 C 0.40342 0.39014 0.09759 0.0
C1667 C 0.3915 0.38387 0.11489 0.0
C1668 C 0.42266 0.39993 0.10095 0.0
C1669 C 0.43054 0.40293 0.1217 0.0
C1670 C 0.41765 0.39832 0.13892 0.0
C1671 C 0.39828 0.3889 0.13551 0.0
H1672 H 0.85783 0.16744 0.34655 0.0
H1673 H 0.92136 0.17952 0.36277 0.0
H1674 H 0.84852 0.19542 0.37067 0.0
H1675 H 0.91205 0.20807 0.38648 0.0
H1676 H 0.88638 0.24174 0.44412 0.0
H1677 H 0.89606 0.21404 0.41969 0.0
H1678 H 0.84962 0.23281 0.37527 0.0
H1679 H 0.83952 0.26007 0.40003 0.0
C1680 C 0.86986 0.1762 0.35511 0.0
C1681 C 0.89037 0.17116 0.35269 0.0
C1682 C 0.86451 0.19238 0.36888 0.0
C1683 C 0.87951 0.20409 0.38054 0.0
C1684 C 0.90005 0.19919 0.37801 0.0
C1685 C 0.90541 0.18288 0.3643 0.0
C1686 C 0.8782 0.23994 0.42915 0.0
C1687 C 0.86211 0.25307 0.42408 0.0
C1688 C 0.88387 0.22413 0.41505 0.0
C1689 C 0.87366 0.22115 0.39545 0.0
C1690 C 0.85763 0.2344 0.39034 0.0
C1691 C 0.85188 0.25012 0.40451 0.0
H1692 H 0.98678 0.60637 0.59515 0.0
H1693 H 0.99268 0.56799 0.6512 0.0
H1694 H 0.023 0.60533 0.58953 0.0
H1695 H 0.0291 0.56595 0.64501 0.0
H1696 H 0.08785 0.61103 0.58396 0.0
H1697 H 0.05473 0.59194 0.58305 0.0
H1698 H 0.05447 0.59218 0.65174 0.0
H1699 H 0.08791 0.61006 0.65227 0.0
C1700 C 0.99572 0.59697 0.60582 0.0
C1701 C 0.987 0.58782 0.62398 0.0
C1702 C 0.01662 0.59621 0.60252 0.0
C1703 C 0.02922 0.58602 0.61716 0.0
C1704 C 0.01998 0.57453 0.63379 0.0
C1705 C -0.00092 0.57556 0.63728 0.0
C1706 C 0.08097 0.60607 0.59875 0.0
C1707 C 0.0902 0.61184 0.61818 0.0
C1708 C 0.06193 0.59536 0.5983 0.0
C1709 C 0.0516 0.5909 0.61731 0.0
C1710 C 0.06189 0.59508 0.63674 0.0
C1711 C 0.08106 0.60544 0.63713 0.0
H1712 H 0.64002 0.25078 0.57577 0.0
H1713 H 0.58654 0.25767 0.61402 0.0
H1714 H 0.64577 0.21657 0.5928 0.0
H1715 H 0.59234 0.22404 0.63088 0.0
H1716 H 0.59358 0.15412 0.63933 0.0
H1717 H 0.59068 0.18624 0.61882 0.0
H1718 H 0.65431 0.20238 0.63047 0.0
H1719 H 0.65742 0.16987 0.6511 0.0
C1720 C 0.62954 0.24502 0.58776 0.0
C1721 C 0.61285 0.25691 0.59359 0.0
C1722 C 0.63288 0.22555 0.59754 0.0
C1723 C 0.61941 0.21763 0.61302 0.0
C1724 C 0.60282 0.22961 0.61879 0.0
C1725 C 0.5996 0.24899 0.60923 0.0
C1726 C 0.60706 0.16436 0.63749 0.0
C1727 C 0.62568 0.15954 0.64717 0.0
C1728 C 0.60535 0.1828 0.62572 0.0
C1729 C 0.6222 0.19691 0.62329 0.0
C1730 C 0.6411 0.19171 0.63207 0.0
C1731 C 0.64283 0.17318 0.64396 0.0
H1732 H 0.05027 0.34061 0.89135 0.0
H1733 H 0.03197 0.39984 0.91815 0.0
H1734 H 0.01513 0.32658 0.89319 0.0
H1735 H 0.99697 0.38618 0.91937 0.0
H1736 H 0.93766 0.354 0.93352 0.0
H1737 H 0.97423 0.36168 0.93663 0.0
H1738 H 0.98296 0.33118 0.87607 0.0
H1739 H 0.9466 0.32286 0.87335 0.0
C1740 C 0.03874 0.35065 0.89755 0.0
C1741 C 0.04389 0.37136 0.90453 0.0
C1742 C 0.01861 0.34263 0.89858 0.0
C1743 C 0.0032 0.35519 0.90653 0.0
C1744 C 0.00846 0.37586 0.91359 0.0
C1745 C 0.02855 0.3838 0.91268 0.0
C1746 C 0.94745 0.34856 0.92108 0.0
C1747 C 0.93918 0.33807 0.90306 0.0
C1748 C 0.9684 0.35311 0.92277 0.0
C1749 C 0.98152 0.34743 0.9064 0.0
C1750 C 0.97337 0.33573 0.88903 0.0
C1751 C 0.95245 0.33102 0.88743 0.0
H1752 H 0.86636 0.72968 0.10208 0.0
H1753 H 0.88404 0.75595 0.04171 0.0
H1754 H 0.85996 0.76507 0.1154 0.0
H1755 H 0.8777 0.79165 0.05509 0.0
H1756 H 0.89799 0.84671 0.10401 0.0
H1757 H 0.89719 0.81324 0.08449 0.0
H1758 H 0.83784 0.7971 0.10974 0.0
H1759 H 0.83848 0.8307 0.1292 0.0
C1760 C 0.86867 0.74306 0.09161 0.0
C1761 C 0.87596 0.74023 0.07102 0.0
C1762 C 0.8648 0.76328 0.09915 0.0
C1763 C 0.86846 0.7811 0.08631 0.0
C1764 C 0.87487 0.77816 0.06533 0.0
C1765 C 0.87837 0.75781 0.05765 0.0
C1766 C 0.88464 0.83617 0.10519 0.0
C1767 C 0.86838 0.84128 0.11832 0.0
C1768 C 0.88411 0.81709 0.09386 0.0
C1769 C 0.86746 0.80259 0.09565 0.0
C1770 C 0.85088 0.808 0.10816 0.0
C1771 C 0.85126 0.82723 0.11925 0.0
H1772 H 0.45699 0.63412 0.3686 0.0
H1773 H 0.47417 0.5913 0.41835 0.0
H1774 H 0.49291 0.6441 0.36324 0.0
H1775 H 0.50982 0.60149 0.41323 0.0
H1776 H 0.57006 0.60226 0.37725 0.0
H1777 H 0.5344 0.59529 0.38546 0.0
H1778 H 0.52345 0.662 0.38007 0.0
H1779 H 0.55931 0.66901 0.37151 0.0
C1780 C 0.46839 0.627 0.37851 0.0
C1781 C 0.46274 0.61175 0.39373 0.0
C1782 C 0.48894 0.6328 0.37554 0.0
C1783 C 0.5042 0.62345 0.38771 0.0
C1784 C 0.49845 0.60871 0.40335 0.0
C1785 C 0.47799 0.60293 0.40632 0.0
C1786 C 0.56012 0.6155 0.37794 0.0
C1787 C 0.56752 0.63618 0.37368 0.0
C1788 C 0.53968 0.61151 0.38277 0.0
C1789 C 0.52609 0.6281 0.38343 0.0
C1790 C 0.53352 0.64887 0.37949 0.0
C1791 C 0.55407 0.65289 0.37474 0.0
H1792 H 0.84319 0.5736 0.78879 0.0
H1793 H 0.90104 0.5791 0.82187 0.0
H1794 H 0.85887 0.58806 0.757 0.0
H1795 H 0.9166 0.5951 0.79064 0.0
H1796 H 0.94382 0.59107 0.72499 0.0
H1797 H 0.92773 0.58353 0.75854 0.0
H1798 H 0.87388 0.61477 0.73704 0.0
H1799 H 0.88977 0.62105 0.7027 0.0
C1800 C 0.85917 0.57856 0.78942 0.0
C1801 C 0.87098 0.57501 0.80766 0.0
C1802 C 0.8682 0.58698 0.77119 0.0
C1803 C 0.88918 0.59249 0.77097 0.0
C1804 C 0.90058 0.59039 0.78987 0.0
C1805 C 0.89166 0.58143 0.80789 0.0
C1806 C 0.92859 0.59648 0.72747 0.0
C1807 C 0.918 0.60654 0.71118 0.0
C1808 C 0.91937 0.59233 0.74688 0.0
C1809 C 0.89942 0.59857 0.75075 0.0
C1810 C 0.88909 0.60935 0.73461 0.0
C1811 C 0.89821 0.61308 0.71494 0.0
H1812 H 0.62027 0.61388 0.09732 0.0
H1813 H 0.68507 0.60784 0.08927 0.0
H1814 H 0.61811 0.63055 0.06246 0.0
H1815 H 0.6828 0.62449 0.05471 0.0
H1816 H 0.66703 0.62862 0.98507 0.0
H1817 H 0.66641 0.61299 0.0201 0.0
H1818 H 0.63133 0.66441 0.04319 0.0
H1819 H 0.63172 0.68021 0.00769 0.0
C1820 C 0.63403 0.61614 0.08819 0.0
C1821 C 0.65282 0.60938 0.09602 0.0
C1822 C 0.63278 0.62579 0.06832 0.0
C1823 C 0.65025 0.62864 0.0559 0.0
C1824 C 0.66904 0.62221 0.06387 0.0
C1825 C 0.67033 0.61274 0.08371 0.0
C1826 C 0.65893 0.63654 0.99746 0.0
C1827 C 0.64942 0.65568 0.9936 0.0
C1828 C 0.65874 0.62764 0.01758 0.0
C1829 C 0.64902 0.63762 0.03435 0.0
C1830 C 0.6389 0.6564 0.03046 0.0
C1831 C 0.63918 0.66545 0.01022 0.0
H1832 H 0.56138 0.43619 0.22911 0.0
H1833 H 0.58943 0.37585 0.22271 0.0
H1834 H 0.57698 0.44099 0.26398 0.0
H1835 H 0.6051 0.38072 0.25803 0.0
H1836 H 0.64737 0.4163 0.31064 0.0
H1837 H 0.63143 0.40511 0.27686 0.0
H1838 H 0.57327 0.42458 0.29939 0.0
H1839 H 0.58905 0.43589 0.33284 0.0
C1840 C 0.57086 0.42391 0.23514 0.0
C1841 C 0.57408 0.4056 0.22314 0.0
C1842 C 0.57969 0.4266 0.25524 0.0
C1843 C 0.59205 0.4111 0.26387 0.0
C1844 C 0.59563 0.39291 0.25177 0.0
C1845 C 0.58662 0.39012 0.23161 0.0
C1846 C 0.6311 0.41773 0.30855 0.0
C1847 C 0.61955 0.42734 0.32429 0.0
C1848 C 0.62199 0.41132 0.2892 0.0
C1849 C 0.6012 0.41441 0.28534 0.0
C1850 C 0.58943 0.42249 0.30172 0.0
C1851 C 0.59848 0.42889 0.32093 0.0
H1852 H 0.87417 0.36835 0.62077 0.0
H1853 H 0.80833 0.36304 0.62041 0.0
H1854 H 0.87448 0.34911 0.58697 0.0
H1855 H 0.80882 0.34399 0.58682 0.0
H1856 H 0.81912 0.34903 0.51486 0.0
H1857 H 0.82039 0.36094 0.55146 0.0
H1858 H 0.86276 0.31276 0.56687 0.0
H1859 H 0.86137 0.30042 0.52969 0.0
C1860 C 0.85981 0.36274 0.61377 0.0
C1861 C 0.84121 0.36761 0.62315 0.0
C1862 C 0.86003 0.35164 0.59448 0.0
C1863 C 0.84167 0.34535 0.58422 0.0
C1864 C 0.82318 0.34891 0.59431 0.0
C1865 C 0.82294 0.35984 0.61357 0.0
C1866 C 0.82882 0.34093 0.52592 0.0
C1867 C 0.8402 0.32379 0.51935 0.0
C1868 C 0.82937 0.34767 0.54696 0.0
C1869 C 0.84147 0.3376 0.56201 0.0
C1870 C 0.85325 0.32071 0.55552 0.0
C1871 C 0.85245 0.31367 0.53433 0.0
H1872 H 0.82784 0.37702 0.84264 0.0
H1873 H 0.87394 0.33282 0.82755 0.0
H1874 H 0.8191 0.37963 0.80486 0.0
H1875 H 0.86475 0.33464 0.79014 0.0
H1876 H 0.86941 0.37416 0.7292 0.0
H1877 H 0.87185 0.36233 0.76554 0.0
H1878 H 0.80647 0.36415 0.7713 0.0
H1879 H 0.80405 0.3766 0.73472 0.0
C1880 C 0.83564 0.3674 0.83129 0.0
C1881 C 0.85182 0.35508 0.83785 0.0
C1882 C 0.83061 0.3688 0.80968 0.0
C1883 C 0.84154 0.35766 0.79442 0.0
C1884 C 0.85644 0.34388 0.80138 0.0
C1885 C 0.86165 0.34278 0.82282 0.0
C1886 C 0.85548 0.37173 0.73802 0.0
C1887 C 0.83657 0.37655 0.72907 0.0
C1888 C 0.85685 0.36476 0.75891 0.0
C1889 C 0.83934 0.36234 0.77142 0.0
C1890 C 0.82026 0.36609 0.76216 0.0
C1891 C 0.81887 0.37305 0.74114 0.0
H1892 H 0.82552 0.58543 0.91068 0.0
H1893 H 0.88873 0.56927 0.91435 0.0
H1894 H 0.83055 0.60847 0.94155 0.0
H1895 H 0.89391 0.59282 0.94476 0.0
H1896 H 0.89222 0.62151 0.0112 0.0
H1897 H 0.8864 0.5971 0.9814 0.0
H1898 H 0.8464 0.64133 0.95205 0.0
H1899 H 0.85168 0.66529 0.98207 0.0
C1900 C 0.84053 0.58688 0.91797 0.0
C1901 C 0.8567 0.57547 0.90997 0.0
C1902 C 0.84345 0.6002 0.93565 0.0
C1903 C 0.86266 0.60259 0.94571 0.0
C1904 C 0.87883 0.59115 0.93769 0.0
C1905 C 0.87587 0.57772 0.92011 0.0
C1906 C 0.88214 0.62597 -0.0016 0.0
C1907 C 0.87241 0.64535 -0.00095 0.0
C1908 C 0.87889 0.61203 0.98123 0.0
C1909 C 0.86591 0.61719 0.96424 0.0
C1910 C 0.8562 0.6366 0.96497 0.0
C1911 C 0.85935 0.65044 0.98216 0.0
H1912 H 0.67841 0.65936 0.29998 0.0
H1913 H 0.62604 0.69462 0.28202 0.0
H1914 H 0.68659 0.65468 0.26298 0.0
H1915 H 0.63476 0.6908 0.24477 0.0
H1916 H 0.62904 0.63509 0.19565 0.0
H1917 H 0.62865 0.65887 0.22568 0.0
H1918 H 0.69451 0.66251 0.22713 0.0
H1919 H 0.69488 0.63789 0.1972 0.0
C1920 C 0.66914 0.66692 0.28814 0.0
C1921 C 0.65116 0.67667 0.29382 0.0
C1922 C 0.67392 0.66437 0.2668 0.0
C1923 C 0.66091 0.67174 0.2508 0.0
C1924 C 0.64469 0.6843 0.2567 0.0
C1925 C 0.63974 0.68658 0.27805 0.0
C1926 C 0.64348 0.64126 0.20203 0.0
C1927 C 0.66198 0.63404 0.19444 0.0
C1928 C 0.64328 0.65522 0.21919 0.0
C1929 C 0.66158 0.6624 0.22914 0.0
C1930 C 0.68014 0.65693 0.22011 0.0
C1931 C 0.68034 0.64285 0.20292 0.0
H1932 H 0.63742 0.36032 0.52298 0.0
H1933 H 0.57525 0.35537 0.49975 0.0
H1934 H 0.64638 0.38392 0.49369 0.0
H1935 H 0.58429 0.37856 0.47033 0.0
H1936 H 0.60225 0.43845 0.43409 0.0
H1937 H 0.59398 0.41537 0.46379 0.0
H1938 H 0.65023 0.38352 0.45519 0.0
H1939 H 0.65876 0.40689 0.42567 0.0
C1940 C 0.62569 0.3642 0.5116 0.0
C1941 C 0.60561 0.35599 0.51373 0.0
C1942 C 0.63085 0.37762 0.49475 0.0
C1943 C 0.61605 0.38316 0.47969 0.0
C1944 C 0.596 0.37488 0.48182 0.0
C1945 C 0.59085 0.36147 0.49864 0.0
C1946 C 0.6129 0.42656 0.4385 0.0
C1947 C 0.63117 0.42454 0.42742 0.0
C1948 C 0.60809 0.41324 0.45549 0.0
C1949 C 0.62141 0.39754 0.46183 0.0
C1950 C 0.63975 0.3956 0.45086 0.0
C1951 C 0.64457 0.40893 0.43385 0.0
H1952 H 0.6987 0.83349 0.61442 0.0
H1953 H 0.73108 0.88233 0.65119 0.0
H1954 H 0.73133 0.81933 0.6039 0.0
H1955 H 0.76333 0.86832 0.64055 0.0
H1956 H 0.81345 0.85693 0.59306 0.0
H1957 H 0.77977 0.86727 0.60351 0.0
H1958 H 0.76424 0.80287 0.62146 0.0
H1959 H 0.79827 0.79233 0.61112 0.0
C1960 C 0.71271 0.84106 0.62041 0.0
C1961 C 0.71231 0.85914 0.63349 0.0
C1962 C 0.73133 0.83292 0.61443 0.0
C1963 C 0.74976 0.84293 0.62123 0.0
C1964 C 0.74931 0.86051 0.63486 0.0
C1965 C 0.73081 0.86846 0.64101 0.0
C1966 C 0.80288 0.84487 0.59907 0.0
C1967 C 0.80862 0.82382 0.60142 0.0
C1968 C 0.78362 0.85084 0.60514 0.0
C1969 C 0.76955 0.8359 0.61349 0.0
C1970 C 0.77487 0.81467 0.61506 0.0
C1971 C 0.79432 0.80869 0.60921 0.0
H1972 H 0.23992 0.53985 0.3519 0.0
H1973 H 0.24632 0.60445 0.37449 0.0
H1974 H 0.27608 0.54083 0.34305 0.0
H1975 H 0.2822 0.60546 0.36539 0.0
H1976 H 0.34615 0.60456 0.34354 0.0
H1977 H 0.30935 0.60184 0.33611 0.0
H1978 H 0.30507 0.54333 0.37115 0.0
H1979 H 0.34152 0.54639 0.37892 0.0
C1980 C 0.24886 0.55444 0.35442 0.0
C1981 C 0.2403 0.57199 0.36419 0.0
C1982 C 0.26954 0.55497 0.34934 0.0
C1983 C 0.28191 0.57319 0.35357 0.0
C1984 C 0.27298 0.59128 0.36174 0.0
C1985 C 0.25242 0.59063 0.36713 0.0
C1986 C 0.33741 0.5907 0.34881 0.0
C1987 C 0.34651 0.57557 0.36164 0.0
C1988 C 0.3164 0.58923 0.34473 0.0
C1989 C 0.3044 0.57239 0.35309 0.0
C1990 C 0.31396 0.55632 0.36428 0.0
C1991 C 0.33479 0.55806 0.36874 0.0
H1992 H 0.6038 0.0525 0.63132 0.0
H1993 H 0.66694 0.05479 0.65169 0.0
H1994 H 0.60762 0.01694 0.61726 0.0
H1995 H 0.67056 0.01918 0.63806 0.0
H1996 H 0.67376 0.95442 0.61129 0.0
H1997 H 0.66999 0.99267 0.60973 0.0
H1998 H 0.61069 0.98495 0.63823 0.0
H1999 H 0.61434 0.94697 0.63957 0.0
C2000 C 0.61862 0.04565 0.63237 0.0
C2001 C 0.63492 0.05628 0.64315 0.0
C2002 C 0.62077 0.02524 0.62437 0.0
C2003 C 0.63924 0.01507 0.627 0.0
C2004 C 0.65611 0.02655 0.63575 0.0
C2005 C 0.65399 0.04699 0.6437 0.0
C2006 C 0.65976 0.96088 0.61683 0.0
C2007 C 0.64442 0.9477 0.62576 0.0
C2008 C 0.65763 0.98278 0.61596 0.0
C2009 C 0.64009 0.99185 0.62392 0.0
C2010 C 0.62427 0.97848 0.63165 0.0
C2011 C 0.62642 0.95665 0.63257 0.0
H2012 H 0.16527 0.43201 0.87783 0.0
H2013 H 0.15718 0.37002 0.84929 0.0
H2014 H 0.20069 0.43402 0.86645 0.0
H2015 H 0.19303 0.37171 0.83838 0.0
H2016 H 0.26309 0.37642 0.86443 0.0
H2017 H 0.22583 0.37345 0.8646 0.0
H2018 H 0.22313 0.43309 0.83189 0.0
H2019 H 0.26026 0.43601 0.83137 0.0
C2020 C 0.17099 0.4191 0.86855 0.0
C2021 C 0.1586 0.40101 0.86412 0.0
C2022 C 0.1912 0.42022 0.86208 0.0
C2023 C 0.19951 0.403 0.85159 0.0
C2024 C 0.18689 0.38518 0.84641 0.0
C2025 C 0.16643 0.3843 0.85244 0.0
C2026 C 0.25454 0.38872 0.85698 0.0
C2027 C 0.2646 0.40655 0.84809 0.0
C2028 C 0.23326 0.38692 0.85692 0.0
C2029 C 0.22172 0.40305 0.84823 0.0
C2030 C 0.23174 0.42046 0.83866 0.0
C2031 C 0.25298 0.42211 0.83842 0.0
H2032 H 0.33925 0.44588 0.63351 0.0
H2033 H 0.40348 0.45565 0.62083 0.0
H2034 H 0.33349 0.48206 0.62249 0.0
H2035 H 0.39759 0.4917 0.60966 0.0
H2036 H 0.38244 0.56083 0.62712 0.0
H2037 H 0.38863 0.52325 0.63055 0.0
H2038 H 0.33468 0.50782 0.59283 0.0
H2039 H 0.32834 0.54544 0.58952 0.0
C2040 C 0.35207 0.45555 0.62795 0.0
C2041 C 0.37187 0.44793 0.62838 0.0
C2042 C 0.34875 0.47628 0.62157 0.0
C2043 C 0.36516 0.48979 0.61553 0.0
C2044 C 0.38472 0.48175 0.61463 0.0
C2045 C 0.38805 0.46103 0.62093 0.0
C2046 C 0.37198 0.54945 0.61943 0.0
C2047 C 0.35484 0.55611 0.60817 0.0
C2048 C 0.37561 0.52792 0.62125 0.0
C2049 C 0.36214 0.5126 0.61193 0.0
C2050 C 0.34523 0.51927 0.60031 0.0
C2051 C 0.34166 0.54082 0.59837 0.0
H2052 H 0.79625 0.16808 0.0887 0.0
H2053 H 0.80238 0.14087 0.15094 0.0
H2054 H 0.76132 0.17673 0.09645 0.0
H2055 H 0.76795 0.15072 0.1594 0.0
H2056 H 0.7 0.13368 0.1509 0.0
H2057 H 0.73679 0.13509 0.14907 0.0
H2058 H 0.73512 0.19364 0.11394 0.0
H2059 H 0.69797 0.19158 0.11496 0.0
C2060 C 0.79039 0.16484 0.1044 0.0
C2061 C 0.80179 0.15358 0.11914 0.0
C2062 C 0.77033 0.16979 0.10889 0.0
C2063 C 0.76153 0.16388 0.12838 0.0
C2064 C 0.77392 0.1548 0.14396 0.0
C2065 C 0.79374 0.1494 0.13925 0.0
C2066 C 0.70746 0.14698 0.14297 0.0
C2067 C 0.69606 0.16238 0.13289 0.0
C2068 C 0.72867 0.14795 0.14209 0.0
C2069 C 0.73909 0.16454 0.13138 0.0
C2070 C 0.72766 0.18047 0.12205 0.0
C2071 C 0.70636 0.17933 0.1227 0.0
H2072 H 0.65068 0.02414 0.90416 0.0
H2073 H 0.62026 0.04568 0.84753 0.0
H2074 H 0.63266 0.98975 0.90056 0.0
H2075 H 0.60213 0.01127 0.84414 0.0
H2076 H 0.56615 0.94821 0.84928 0.0
H2077 H 0.57703 0.98364 0.86236 0.0
H2078 H 0.63839 0.96281 0.87038 0.0
H2079 H 0.62769 0.92781 0.85698 0.0
C2080 C 0.6398 0.02174 0.89123 0.0
C2081 C 0.63713 0.03754 0.87592 0.0
C2082 C 0.62952 0.00203 0.88919 0.0
C2083 C 0.61613 -0.00215 0.87202 0.0
C2084 C 0.61227 0.01414 0.85762 0.0
C2085 C 0.62277 0.03378 0.85948 0.0
C2086 C 0.58183 0.95114 0.85435 0.0
C2087 C 0.59613 0.93538 0.85205 0.0
C2088 C 0.58805 0.97137 0.8617 0.0
C2089 C 0.60853 0.97591 0.86735 0.0
C2090 C 0.62247 0.9597 0.86633 0.0
C2091 C 0.61638 0.93971 0.85857 0.0
H2092 H 0.92165 0.05512 0.35329 0.0
H2093 H 0.86107 0.07832 0.35903 0.0
H2094 H 0.90971 0.0209 0.36775 0.0
H2095 H 0.84928 0.04447 0.37369 0.0
H2096 H 0.83422 0.9846 0.40775 0.0
H2097 H 0.85326 0.01831 0.40403 0.0
H2098 H 0.88442 0.99346 0.35002 0.0
H2099 H 0.86533 0.95973 0.35359 0.0
C2100 C 0.90598 0.05313 0.3583 0.0
C2101 C 0.89223 0.06927 0.35496 0.0
C2102 C 0.89914 0.03354 0.36641 0.0
C2103 C 0.87857 0.03003 0.37174 0.0
C2104 C 0.86525 0.04677 0.36989 0.0
C2105 C 0.87197 0.06612 0.36142 0.0
C2106 C 0.84542 0.98614 0.39533 0.0
C2107 C 0.84803 0.96959 0.38074 0.0
C2108 C 0.8563 0.00546 0.39323 0.0
C2109 C 0.8702 0.00852 0.37668 0.0
C2110 C 0.87391 0.99148 0.36303 0.0
C2111 C 0.86286 0.97222 0.36498 0.0
H2112 H 0.39564 0.26721 0.07357 0.0
H2113 H 0.34338 0.26464 0.11454 0.0
H2114 H 0.39833 0.22916 0.07656 0.0
H2115 H 0.34608 0.22618 0.11754 0.0
H2116 H 0.3874 0.17145 0.14431 0.0
H2117 H 0.37267 0.20514 0.13584 0.0
H2118 H 0.38228 0.19379 0.06917 0.0
H2119 H 0.39726 0.16018 0.07756 0.0
C2120 C 0.38448 0.25842 0.08291 0.0
C2121 C 0.36946 0.26892 0.09402 0.0
C2122 C 0.3859 0.23656 0.08447 0.0
C2123 C 0.37244 0.22467 0.09734 0.0
C2124 C 0.35672 0.23499 0.1076 0.0
C2125 C 0.35512 0.25694 0.1058 0.0
C2126 C 0.38594 0.17585 0.1278 0.0
C2127 C 0.39399 0.16332 0.11167 0.0
C2128 C 0.37735 0.19513 0.12293 0.0
C2129 C 0.37664 0.20225 0.10186 0.0
C2130 C 0.38297 0.18885 0.08559 0.0
C2131 C 0.39153 0.16957 0.09043 0.0
H2132 H 0.58863 0.68007 0.91965 0.0
H2133 H 0.59022 0.61181 0.917 0.0
H2134 H 0.55414 0.67824 0.90511 0.0
H2135 H 0.55601 0.61001 0.9017 0.0
H2136 H 0.50557 0.66792 0.85273 0.0
H2137 H 0.53774 0.67087 0.87209 0.0
H2138 H 0.52076 0.6147 0.90767 0.0
H2139 H 0.48879 0.61132 0.88765 0.0
C2140 C 0.58163 0.66466 0.91593 0.0
C2141 C 0.59224 0.64609 0.91937 0.0
C2142 C 0.56186 0.66361 0.90749 0.0
C2143 C 0.55229 0.64399 0.90207 0.0
C2144 C 0.56276 0.62538 0.90596 0.0
C2145 C 0.58246 0.62642 0.9146 0.0
C2146 C 0.50859 0.65631 0.86483 0.0
C2147 C 0.49469 0.63929 0.86853 0.0
C2148 C 0.52703 0.65806 0.87605 0.0
C2149 C 0.53194 0.64296 0.8914 0.0
C2150 C 0.51765 0.62639 0.89568 0.0
C2151 C 0.49926 0.62453 0.88431 0.0
H2152 H 0.14378 0.72992 0.61891 0.0
H2153 H 0.09008 0.72941 0.57854 0.0
H2154 H 0.1454 0.76865 0.61834 0.0
H2155 H 0.09171 0.76788 0.57808 0.0
H2156 H 0.10251 0.83627 0.57087 0.0
H2157 H 0.11218 0.79974 0.56655 0.0
H2158 H 0.12262 0.79531 0.63412 0.0
H2159 H 0.11315 0.83187 0.63854 0.0
C2160 C 0.1325 0.73803 0.60968 0.0
C2161 C 0.11666 0.7266 0.59894 0.0
C2162 C 0.13344 0.76018 0.60941 0.0
C2163 C 0.11872 0.77127 0.59815 0.0
C2164 C 0.10345 0.75979 0.58666 0.0
C2165 C 0.10239 0.73772 0.58711 0.0
C2166 C 0.10738 0.82774 0.58477 0.0
C2167 C 0.10658 0.83687 0.60513 0.0
C2168 C 0.11284 0.80677 0.58227 0.0
C2169 C 0.11774 0.79458 0.60004 0.0
C2170 C 0.11892 0.80432 0.62012 0.0
C2171 C 0.11338 0.82528 0.62265 0.0
H2172 H 0.99817 0.37093 0.40477 0.0
H2173 H 0.95944 0.34709 0.35337 0.0
H2174 H 0.97001 0.36468 0.42963 0.0
H2175 H 0.93176 0.34076 0.378 0.0
H2176 H 0.8938 0.3111 0.42919 0.0
H2177 H 0.92513 0.31609 0.40939 0.0
H2178 H 0.93335 0.37956 0.43448 0.0
H2179 H 0.90178 0.37472 0.45444 0.0
C2180 C 0.98374 0.3643 0.39882 0.0
C2181 C 0.98101 0.35952 0.37713 0.0
C2182 C 0.96767 0.36081 0.41299 0.0
C2183 C 0.94881 0.35209 0.40572 0.0
C2184 C 0.94621 0.34723 0.38409 0.0
C2185 C 0.96206 0.351 0.36996 0.0
C2186 C 0.90234 0.32607 0.43077 0.0
C2187 C 0.89507 0.34263 0.4432 0.0
C2188 C 0.92029 0.3289 0.41937 0.0
C2189 C 0.93151 0.34827 0.42025 0.0
C2190 C 0.92498 0.36444 0.43359 0.0
C2191 C 0.90686 0.36169 0.44491 0.0
H2192 H 0.3817 0.77281 0.38114 0.0
H2193 H 0.31795 0.76166 0.3653 0.0
H2194 H 0.38456 0.73534 0.38888 0.0
H2195 H 0.32099 0.72415 0.37243 0.0
H2196 H 0.33008 0.65969 0.40236 0.0
H2197 H 0.32632 0.69761 0.3986 0.0
H2198 H 0.38497 0.70317 0.3684 0.0
H2199 H 0.38903 0.66533 0.37272 0.0
C2200 C 0.36824 0.76243 0.37952 0.0
C2201 C 0.34963 0.77025 0.37244 0.0
C2202 C 0.36993 0.7409 0.38375 0.0
C2203 C 0.3531 0.72666 0.38091 0.0
C2204 C 0.33425 0.73466 0.37489 0.0
C2205 C 0.33251 0.75622 0.37078 0.0
C2206 C 0.34215 0.66895 0.39481 0.0
C2207 C 0.35988 0.65942 0.38785 0.0
C2208 C 0.33996 0.69073 0.39263 0.0
C2209 C 0.3554 0.70349 0.38335 0.0
C2210 C 0.37296 0.69389 0.37605 0.0
C2211 C 0.3752 0.67213 0.37832 0.0
H2212 H 0.01331 0.642 0.18292 0.0
H2213 H 0.02622 0.59241 0.13819 0.0
H2214 H 0.98194 0.64859 0.16384 0.0
H2215 H 0.99442 0.59897 0.11904 0.0
H2216 H 0.95143 0.64366 0.07851 0.0
H2217 H 0.98025 0.62804 0.09689 0.0
H2218 H 0.9484 0.63194 0.15623 0.0
H2219 H 0.92003 0.64788 0.13805 0.0
C2220 C 0.00937 0.63235 0.1691 0.0
C2221 C 0.02228 0.61669 0.16209 0.0
C2222 C 0.99126 0.63602 0.15823 0.0
C2223 C 0.98559 0.62416 0.14001 0.0
C2224 C 0.99841 0.60837 0.133 0.0
C2225 C 0.01655 0.60457 0.14403 0.0
C2226 C 0.95039 0.64056 0.09536 0.0
C2227 C 0.93368 0.64728 0.10693 0.0
C2228 C 0.96688 0.63165 0.10589 0.0
C2229 C 0.96677 0.62925 0.12809 0.0
C2230 C 0.94917 0.63411 0.13922 0.0
C2231 C 0.93287 0.64312 0.12878 0.0
H2232 H 0.17337 0.32073 0.91496 0.0
H2233 H 0.11563 0.31736 0.88127 0.0
H2234 H 0.17702 0.28296 0.90883 0.0
H2235 H 0.1196 0.27995 0.87452 0.0
H2236 H 0.12306 0.21011 0.87689 0.0
H2237 H 0.11955 0.24595 0.89027 0.0
H2238 H 0.18379 0.2593 0.88048 0.0
H2239 H 0.18742 0.22324 0.8679 0.0
C2240 C 0.16149 0.31196 0.9062 0.0
C2241 C 0.14423 0.32209 0.89857 0.0
C2242 C 0.16361 0.29031 0.90263 0.0
C2243 C 0.14859 0.27836 0.89122 0.0
C2244 C 0.13128 0.28851 0.88376 0.0
C2245 C 0.12908 0.31007 0.88747 0.0
C2246 C 0.1365 0.22059 0.87793 0.0
C2247 C 0.15548 0.21389 0.87113 0.0
C2248 C 0.13446 0.2412 0.88545 0.0
C2249 C 0.15131 0.25566 0.8861 0.0
C2250 C 0.1705 0.24858 0.88036 0.0
C2251 C 0.17259 0.22788 0.87307 0.0
H2252 H 0.55483 0.36667 0.57608 0.0
H2253 H 0.56513 0.35646 0.64302 0.0
H2254 H 0.52794 0.39093 0.58455 0.0
H2255 H 0.53835 0.38028 0.6514 0.0
H2256 H 0.4922 0.42616 0.66459 0.0
H2257 H 0.52492 0.41578 0.65085 0.0
H2258 H 0.49388 0.38272 0.59891 0.0
H2259 H 0.46134 0.39334 0.61234 0.0
C2260 C 0.55168 0.36996 0.59257 0.0
C2261 C 0.56182 0.35937 0.60888 0.0
C2262 C 0.53625 0.38377 0.59742 0.0
C2263 C 0.53091 0.3874 0.61864 0.0
C2264 C 0.54218 0.37804 0.6349 0.0
C2265 C 0.55741 0.36416 0.63008 0.0
C2266 C 0.4924 0.41714 0.64994 0.0
C2267 C 0.47416 0.41017 0.63982 0.0
C2268 C 0.51114 0.41116 0.64211 0.0
C2269 C 0.51197 0.39817 0.62398 0.0
C2270 C 0.49382 0.39282 0.61284 0.0
C2271 C 0.47512 0.39875 0.62068 0.0
H2272 H 0.01627 0.35491 0.26789 0.0
H2273 H 0.0661 0.32084 0.29396 0.0
H2274 H 0.02657 0.34605 0.2323 0.0
H2275 H 0.07583 0.31025 0.25826 0.0
H2276 H 0.10836 0.33931 0.1996 0.0
H2277 H 0.09317 0.32795 0.23249 0.0
H2278 H 0.03345 0.3272 0.20262 0.0
H2279 H 0.04887 0.34041 0.17005 0.0
C2280 C 0.02891 0.34462 0.26588 0.0
C2281 C 0.0405 0.3386 0.2834 0.0
C2282 C 0.03484 0.33933 0.24542 0.0
C2283 C 0.0524 0.32766 0.24211 0.0
C2284 C 0.06264 0.31978 0.26002 0.0
C2285 C 0.05698 0.32559 0.28049 0.0
C2286 C 0.09206 0.336 0.19984 0.0
C2287 C 0.07973 0.34131 0.1825 0.0
C2288 C 0.08322 0.32937 0.21882 0.0
C2289 C 0.06186 0.32742 0.22067 0.0
C2290 C 0.04986 0.32949 0.20217 0.0
C2291 C 0.05867 0.33679 0.18337 0.0
H2292 H 0.37947 0.3559 0.91953 0.0
H2293 H 0.32382 0.38731 0.93255 0.0
H2294 H 0.38089 0.34373 0.95604 0.0
H2295 H 0.32566 0.3759 0.96947 0.0
H2296 H 0.33084 0.34274 0.03402 0.0
H2297 H 0.32501 0.3485 0.99608 0.0
H2298 H 0.38953 0.36166 0.98813 0.0
H2299 H 0.39535 0.35534 0.02547 0.0
C2300 C 0.3674 0.35999 0.93017 0.0
C2301 C 0.35167 0.37274 0.92326 0.0
C2302 C 0.36829 0.35318 0.95117 0.0
C2303 C 0.35369 0.35931 0.96589 0.0
C2304 C 0.33715 0.37085 0.95859 0.0
C2305 C 0.33609 0.37741 0.93742 0.0
C2306 C 0.34374 0.34684 0.0241 0.0
C2307 C 0.36357 0.34844 0.03278 0.0
C2308 C 0.3404 0.35016 0.00237 0.0
C2309 C 0.35683 0.35525 0.98893 0.0
C2310 C 0.37656 0.35716 0.99779 0.0
C2311 C 0.37989 0.35371 0.01934 0.0
H2312 H 0.40237 0.62552 0.66372 0.0
H2313 H 0.3758 0.68369 0.68358 0.0
H2314 H 0.41913 0.62285 0.69842 0.0
H2315 H 0.39216 0.68061 0.71853 0.0
H2316 H 0.39572 0.63689 0.78171 0.0
H2317 H 0.38429 0.64762 0.74644 0.0
H2318 H 0.4461 0.64676 0.72423 0.0
H2319 H 0.45767 0.63647 0.7598 0.0
C2320 C 0.40035 0.63786 0.67541 0.0
C2321 C 0.38774 0.65476 0.67104 0.0
C2322 C 0.41002 0.63639 0.69516 0.0
C2323 C 0.40687 0.65154 0.71099 0.0
C2324 C 0.3948 0.6688 0.70646 0.0
C2325 C 0.38552 0.67056 0.68651 0.0
C2326 C 0.40686 0.63918 0.76935 0.0
C2327 C 0.42749 0.63563 0.77327 0.0
C2328 C 0.40037 0.64552 0.74929 0.0
C2329 C 0.41436 0.64795 0.73276 0.0
C2330 C 0.4351 0.64499 0.73682 0.0
C2331 C 0.44167 0.63917 0.75707 0.0
H2332 H 0.09752 0.63858 0.52872 0.0
H2333 H 0.15972 0.6484 0.55094 0.0
H2334 H 0.10974 0.62959 0.49355 0.0
H2335 H 0.17184 0.63928 0.5158 0.0
H2336 H 0.18594 0.64275 0.44557 0.0
H2337 H 0.17167 0.65392 0.47909 0.0
H2338 H 0.12871 0.60039 0.47684 0.0
H2339 H 0.14285 0.58917 0.44319 0.0
C2340 C 0.11379 0.63887 0.52613 0.0
C2341 C 0.12765 0.64422 0.54268 0.0
C2342 C 0.12076 0.63362 0.50599 0.0
C2343 C 0.14172 0.6338 0.50192 0.0
C2344 C 0.15558 0.63926 0.5184 0.0
C2345 C 0.14863 0.64434 0.53858 0.0
C2346 C 0.17329 0.63346 0.45204 0.0
C2347 C 0.16564 0.61496 0.44171 0.0
C2348 C 0.16523 0.6398 0.47134 0.0
C2349 C 0.14923 0.62791 0.48068 0.0
C2350 C 0.14099 0.60992 0.46997 0.0
C2351 C 0.14914 0.60347 0.45071 0.0
H2352 H 0.08467 0.623 0.25583 0.0
H2353 H 0.14228 0.61211 0.22626 0.0
H2354 H 0.10199 0.62666 0.29032 0.0
H2355 H 0.15951 0.61602 0.26056 0.0
H2356 H 0.18622 0.63503 0.32496 0.0
H2357 H 0.16752 0.64153 0.29196 0.0
H2358 H 0.1195 0.59747 0.31144 0.0
H2359 H 0.13817 0.59077 0.34424 0.0
C2360 C 0.10107 0.62194 0.25658 0.0
C2361 C 0.11209 0.61706 0.23834 0.0
C2362 C 0.11094 0.62394 0.27632 0.0
C2363 C 0.13205 0.6215 0.2781 0.0
C2364 C 0.14324 0.61812 0.25964 0.0
C2365 C 0.13334 0.61577 0.23999 0.0
C2366 C 0.17151 0.62701 0.32235 0.0
C2367 C 0.16375 0.61225 0.33711 0.0
C2368 C 0.16087 0.63069 0.30346 0.0
C2369 C 0.14209 0.62 0.29918 0.0
C2370 C 0.13384 0.60609 0.31443 0.0
C2371 C 0.14462 0.60213 0.33312 0.0
H2372 H 0.06957 0.3907 0.07293 0.0
H2373 H 0.11896 0.34819 0.08093 0.0
H2374 H 0.07365 0.38924 0.03464 0.0
H2375 H 0.12269 0.34639 0.04261 0.0
H2376 H 0.14645 0.38126 0.98356 0.0
H2377 H 0.13678 0.3745 0.01993 0.0
H2378 H 0.07342 0.36924 0.0008 0.0
H2379 H 0.08306 0.37636 0.96409 0.0
C2380 C 0.08085 0.3805 0.06652 0.0
C2381 C 0.09427 0.36996 0.07999 0.0
C2382 C 0.08315 0.37964 0.04454 0.0
C2383 C 0.09882 0.36812 0.03569 0.0
C2384 C 0.11083 0.35585 0.04906 0.0
C2385 C 0.10862 0.3568 0.071 0.0
C2386 C 0.13043 0.37864 0.987 0.0
C2387 C 0.11553 0.37945 0.97089 0.0
C2388 C 0.12491 0.3745 0.00785 0.0
C2389 C 0.10435 0.37105 0.01317 0.0
C2390 C 0.08938 0.37184 0.99713 0.0
C2391 C 0.09492 0.37594 0.97615 0.0
H2392 H 0.3846 0.34849 0.82364 0.0
H2393 H 0.33027 0.37795 0.80157 0.0
H2394 H 0.39162 0.33732 0.78752 0.0
H2395 H 0.33804 0.36882 0.76553 0.0
H2396 H 0.35722 0.36313 0.70063 0.0
H2397 H 0.34424 0.35208 0.73505 0.0
H2398 H 0.40596 0.35457 0.76023 0.0
H2399 H 0.41862 0.3636 0.7256 0.0
C2400 C 0.37395 0.35219 0.81108 0.0
C2401 C 0.35712 0.36441 0.81533 0.0
C2402 C 0.3781 0.3461 0.79026 0.0
C2403 C 0.36601 0.35294 0.77317 0.0
C2404 C 0.34791 0.36314 0.77792 0.0
C2405 C 0.3434 0.36853 0.79878 0.0
C2406 C 0.36794 0.36066 0.71348 0.0
C2407 C 0.38887 0.36459 0.7106 0.0
C2408 C 0.36053 0.35452 0.73334 0.0
C2409 C 0.37386 0.35307 0.75095 0.0
C2410 C 0.39499 0.35528 0.74736 0.0
C2411 C 0.40237 0.3607 0.72737 0.0
H2412 H 0.3638 0.63341 0.46487 0.0
H2413 H 0.42267 0.60544 0.46392 0.0
H2414 H 0.37194 0.64946 0.49905 0.0
H2415 H 0.43079 0.62142 0.49893 0.0
H2416 H 0.38692 0.68296 0.55481 0.0
H2417 H 0.39623 0.67615 0.51818 0.0
H2418 H 0.41329 0.61318 0.53516 0.0
H2419 H 0.40421 0.61994 0.57179 0.0
C2420 C 0.37856 0.63075 0.472 0.0
C2421 C 0.39247 0.61787 0.46197 0.0
C2422 C 0.38338 0.64027 0.49142 0.0
C2423 C 0.40212 0.63692 0.50151 0.0
C2424 C 0.41632 0.62439 0.49133 0.0
C2425 C 0.41164 0.61518 0.47148 0.0
C2426 C 0.39355 0.66802 0.55099 0.0
C2427 C 0.39411 0.6517 0.566 0.0
C2428 C 0.39885 0.66413 0.52998 0.0
C2429 C 0.4049 0.64394 0.5238 0.0
C2430 C 0.40855 0.62883 0.53946 0.0
C2431 C 0.40318 0.63268 0.56044 0.0
H2432 H 0.19741 0.1606 0.38607 0.0
H2433 H 0.16764 0.09867 0.37973 0.0
H2434 H 0.22679 0.148 0.36698 0.0
H2435 H 0.19686 0.08613 0.36077 0.0
H2436 H 0.25097 0.06792 0.32432 0.0
H2437 H 0.22053 0.08794 0.33029 0.0
H2438 H 0.25171 0.12252 0.38115 0.0
H2439 H 0.2821 0.10263 0.37518 0.0
C2440 C 0.19679 0.14456 0.37989 0.0
C2441 C 0.18035 0.13053 0.38462 0.0
C2442 C 0.2137 0.1373 0.36914 0.0
C2443 C 0.21428 0.11599 0.3627 0.0
C2444 C 0.19689 0.10264 0.36546 0.0
C2445 C 0.18014 0.10981 0.3764 0.0
C2446 C 0.25146 0.08006 0.33652 0.0
C2447 C 0.26886 0.08346 0.3495 0.0
C2448 C 0.23401 0.09151 0.33993 0.0
C2449 C 0.23369 0.10675 0.35622 0.0
C2450 C 0.25153 0.11106 0.3683 0.0
C2451 C 0.2689 0.0995 0.36502 0.0
H2452 H 0.75312 0.36304 0.66822 0.0
H2453 H 0.73332 0.41858 0.63536 0.0
H2454 H 0.72172 0.34382 0.65729 0.0
H2455 H 0.70191 0.39944 0.62468 0.0
H2456 H 0.66053 0.35118 0.58882 0.0
H2457 H 0.69185 0.36988 0.60054 0.0
H2458 H 0.68455 0.34361 0.66324 0.0
H2459 H 0.65334 0.32465 0.65154 0.0
C2460 C 0.74202 0.3712 0.65882 0.0
C2461 C 0.74574 0.39232 0.65261 0.0
C2462 C 0.72401 0.36021 0.65262 0.0
C2463 C 0.70942 0.37009 0.64002 0.0
C2464 C 0.71302 0.3913 0.63411 0.0
C2465 C 0.73096 0.40231 0.64037 0.0
C2466 C 0.66561 0.3493 0.6051 0.0
C2467 C 0.65437 0.33642 0.61924 0.0
C2468 C 0.68349 0.36014 0.61184 0.0
C2469 C 0.69059 0.35829 0.63284 0.0
C2470 C 0.67954 0.34521 0.64692 0.0
C2471 C 0.6616 0.33443 0.64021 0.0
H2472 H 0.37574 0.88462 0.39553 0.0
H2473 H 0.31069 0.8795 0.38435 0.0
H2474 H 0.37301 0.92172 0.40527 0.0
H2475 H 0.30811 0.91657 0.39334 0.0
H2476 H 0.3063 0.98515 0.40546 0.0
H2477 H 0.31092 0.9481 0.41464 0.0
H2478 H 0.36778 0.94983 0.38082 0.0
H2479 H 0.36336 0.98655 0.37209 0.0
C2480 C 0.36077 0.89117 0.39574 0.0
C2481 C 0.34353 0.8792 0.38848 0.0
C2482 C 0.35923 0.91253 0.40118 0.0
C2483 C 0.34046 0.92235 0.39939 0.0
C2484 C 0.32286 0.90965 0.39482 0.0
C2485 C 0.32437 0.88829 0.38952 0.0
C2486 C 0.32002 0.97772 0.40045 0.0
C2487 C 0.33435 0.98876 0.38783 0.0
C2488 C 0.32264 0.95646 0.40566 0.0
C2489 C 0.33965 0.94585 0.39835 0.0
C2490 C 0.35463 0.95744 0.38703 0.0
C2491 C 0.35201 0.97859 0.38184 0.0
H2492 H 0.83089 0.65029 0.06465 0.0
H2493 H 0.84021 0.66439 0.13132 0.0
H2494 H 0.79912 0.63083 0.07281 0.0
H2495 H 0.80904 0.6444 0.13952 0.0
H2496 H 0.74219 0.62708 0.14588 0.0
H2497 H 0.77337 0.64655 0.13646 0.0
H2498 H 0.78531 0.59926 0.0889 0.0
H2499 H 0.75357 0.58016 0.09784 0.0
C2500 C 0.82624 0.64912 0.08104 0.0
C2501 C 0.83803 0.65903 0.0973 0.0
C2502 C 0.80808 0.63786 0.08575 0.0
C2503 C 0.80142 0.63611 0.10683 0.0
C2504 C 0.81342 0.64578 0.12306 0.0
C2505 C 0.8314 0.65718 0.11835 0.0
C2506 C 0.75147 0.6208 0.13342 0.0
C2507 C 0.74544 0.60202 0.12267 0.0
C2508 C 0.76944 0.63192 0.12808 0.0
C2509 C 0.78199 0.62443 0.11201 0.0
C2510 C 0.77591 0.60565 0.10118 0.0
C2511 C 0.75778 0.59461 0.1064 0.0
H2512 H 0.69488 0.61697 0.38675 0.0
H2513 H 0.63208 0.61625 0.40641 0.0
H2514 H 0.6971 0.58034 0.39739 0.0
H2515 H 0.63456 0.57968 0.41778 0.0
H2516 H 0.63593 0.51319 0.38545 0.0
H2517 H 0.63481 0.55043 0.39354 0.0
H2518 H 0.69567 0.54975 0.42025 0.0
H2519 H 0.69684 0.51196 0.41181 0.0
C2520 C 0.68177 0.60931 0.39417 0.0
C2521 C 0.66308 0.61937 0.39502 0.0
C2522 C 0.68308 0.58821 0.40039 0.0
C2523 C 0.66579 0.57682 0.4078 0.0
C2524 C 0.64798 0.58782 0.4115 0.0
C2525 C 0.6466 0.60887 0.40509 0.0
C2526 C 0.64891 0.5207 0.39356 0.0
C2527 C 0.66655 0.50956 0.39775 0.0
C2528 C 0.64821 0.54219 0.3984 0.0
C2529 C 0.66519 0.55323 0.4075 0.0
C2530 C 0.68239 0.54178 0.41305 0.0
C2531 C 0.68304 0.52012 0.40828 0.0
H2532 H 0.24643 0.93467 0.8593 0.0
H2533 H 0.20738 0.87838 0.85253 0.0
H2534 H 0.27571 0.9132 0.8633 0.0
H2535 H 0.23709 0.8565 0.85515 0.0
H2536 H 0.28845 0.82905 0.89728 0.0
H2537 H 0.25931 0.84474 0.88048 0.0
H2538 H 0.29962 0.89142 0.85087 0.0
H2539 H 0.32847 0.87664 0.86944 0.0
C2540 C 0.24418 0.91762 0.85815 0.0
C2541 C 0.22457 0.90822 0.85587 0.0
C2542 C 0.26111 0.90518 0.86018 0.0
C2543 C 0.25901 0.88291 0.85952 0.0
C2544 C 0.23939 0.87353 0.85615 0.0
C2545 C 0.22232 0.88605 0.85456 0.0
C2546 C 0.29108 0.84218 0.88652 0.0
C2547 C 0.31059 0.85179 0.88473 0.0
C2548 C 0.27432 0.85128 0.87685 0.0
C2549 C 0.27688 0.86992 0.86482 0.0
C2550 C 0.29687 0.87767 0.86076 0.0
C2551 C 0.31351 0.86899 0.87102 0.0
H2552 H 0.35807 0.96029 0.165 0.0
H2553 H 0.31691 0.97695 0.11432 0.0
H2554 H 0.37846 0.99258 0.15899 0.0
H2555 H 0.33744 0.00964 0.10843 0.0
H2556 H 0.39495 0.05394 0.09291 0.0
H2557 H 0.37337 0.02167 0.09653 0.0
H2558 H 0.37255 0.03102 0.1644 0.0
H2559 H 0.39401 0.06297 0.16098 0.0
C2560 C 0.35343 0.97078 0.15247 0.0
C2561 C 0.33587 0.96607 0.14013 0.0
C2562 C 0.36505 0.98937 0.14914 0.0
C2563 C 0.35944 0.00367 0.13336 0.0
C2564 C 0.34213 -0.00119 0.12065 0.0
C2565 C 0.33035 0.9802 0.1241 0.0
C2566 C 0.3901 0.04914 0.10859 0.0
C2567 C 0.39636 0.06097 0.12666 0.0
C2568 C 0.37767 0.03074 0.11062 0.0
C2569 C 0.37147 0.02379 0.13075 0.0
C2570 C 0.37737 0.03585 0.14871 0.0
C2571 C 0.38962 0.05423 0.1467 0.0
H2572 H 0.11407 0.94898 0.58419 0.0
H2573 H 0.11659 0.93679 0.65162 0.0
H2574 H 0.13867 0.97871 0.58905 0.0
H2575 H 0.14131 0.96608 0.65629 0.0
H2576 H 0.16513 0.03414 0.661 0.0
H2577 H 0.14127 0.00439 0.65463 0.0
H2578 H 0.17467 0.98714 0.59896 0.0
H2579 H 0.19841 0.01746 0.60503 0.0
C2580 C 0.11993 0.95254 0.60001 0.0
C2581 C 0.11321 0.94059 0.61753 0.0
C2582 C 0.1341 0.96949 0.60276 0.0
C2583 C 0.14181 0.97483 0.62308 0.0
C2584 C 0.13537 0.96262 0.64049 0.0
C2585 C 0.12124 0.94574 0.63777 0.0
C2586 C 0.16735 0.02415 0.64729 0.0
C2587 C 0.18362 0.02823 0.63347 0.0
C2588 C 0.15376 0.00695 0.64376 0.0
C2589 C 0.15614 0.99334 0.62635 0.0
C2590 C 0.17234 0.99746 0.6124 0.0
C2591 C 0.186 0.01473 0.61596 0.0
loop_
_geom_bond_atom_site_label_1
_geom_bond_atom_site_label_2
_geom_bond_distance
_geom_bond_site_symmetry_2
_ccdc_geom_bond_type
Mg0 O1 2.028 . S
Mg0 O7 1.986 . S
Mg0 O9 2.114 . S
Mg0 O10 2.251 . S
Mg0 O13 2.010 . S
O1 Mg0 2.028 . S
O1 C4 1.250 . S
O2 Mg3 2.028 . S
O2 C4 1.248 . S
Mg3 O2 2.028 . S
Mg3 O8 2.032 . S
Mg3 O10 2.079 . S
C4 O1 1.250 . S
C4 O2 1.248 . S
C5 O6 1.264 . S
C5 O13 1.249 . S
O6 C5 1.264 . S
O7 Mg0 1.986 . S
O7 C11 1.246 . S
O8 Mg3 2.032 . S
O8 C11 1.259 . S
O9 Mg0 2.114 . S
O9 C12 1.252 . S
O10 Mg0 2.251 . S
O10 Mg3 2.079 . S
O10 C12 1.273 . S
C11 O7 1.246 . S
C11 O8 1.259 . S
C12 O9 1.252 . S
C12 O10 1.273 . S
O13 Mg0 2.010 . S
O13 C5 1.249 . S
Mg14 O15 2.028 . S
Mg14 O21 1.986 . S
Mg14 O23 2.114 . S
Mg14 O24 2.251 . S
Mg14 O27 2.010 . S
O15 Mg14 2.028 . S
O15 C18 1.250 . S
O16 Mg17 2.028 . S
O16 C18 1.248 . S
Mg17 O16 2.028 . S
Mg17 O22 2.032 . S
Mg17 O24 2.079 . S
C18 O15 1.250 . S
C18 O16 1.248 . S
C19 O20 1.264 . S
C19 O27 1.249 . S
O20 C19 1.264 . S
O21 Mg14 1.986 . S
O21 C25 1.246 . S
O22 Mg17 2.032 . S
O22 C25 1.259 . S
O23 Mg14 2.114 . S
O23 C26 1.252 . S
O24 Mg14 2.251 . S
O24 Mg17 2.079 . S
O24 C26 1.273 . S
C25 O21 1.246 . S
C25 O22 1.259 . S
C26 O23 1.252 . S
C26 O24 1.273 . S
O27 Mg14 2.010 . S
O27 C19 1.249 . S
Mg28 O29 2.028 . S
Mg28 O35 1.986 . S
Mg28 O37 2.114 . S
Mg28 O38 2.251 . S
Mg28 O41 2.010 . S
O29 Mg28 2.028 . S
O29 C32 1.250 . S
O30 Mg31 2.028 . S
O30 C32 1.248 . S
Mg31 O30 2.028 . S
Mg31 O36 2.032 . S
Mg31 O38 2.079 . S
C32 O29 1.250 . S
C32 O30 1.248 . S
C33 O34 1.264 . S
C33 O41 1.249 . S
O34 C33 1.264 . S
O35 Mg28 1.986 . S
O35 C39 1.246 . S
O36 Mg31 2.032 . S
O36 C39 1.259 . S
O37 Mg28 2.114 . S
O37 C40 1.252 . S
O38 Mg28 2.251 . S
O38 Mg31 2.079 . S
O38 C40 1.273 . S
C39 O35 1.246 . S
C39 O36 1.259 . S
C40 O37 1.252 . S
C40 O38 1.273 . S
O41 Mg28 2.010 . S
O41 C33 1.249 . S
Mg42 O43 2.028 . S
Mg42 O49 1.986 . S
Mg42 O51 2.114 . S
Mg42 O52 2.251 . S
Mg42 O55 2.010 . S
O43 Mg42 2.028 . S
O43 C46 1.250 . S
O44 Mg45 2.028 . S
O44 C46 1.248 . S
Mg45 O44 2.028 . S
Mg45 O50 2.032 . S
Mg45 O52 2.079 . S
C46 O43 1.250 . S
C46 O44 1.248 . S
C47 O48 1.264 . S
C47 O55 1.249 . S
O48 C47 1.264 . S
O49 Mg42 1.986 . S
O49 C53 1.246 . S
O50 Mg45 2.032 . S
O50 C53 1.259 . S
O51 Mg42 2.114 . S
O51 C54 1.252 . S
O52 Mg42 2.251 . S
O52 Mg45 2.079 . S
O52 C54 1.273 . S
C53 O49 1.246 . S
C53 O50 1.259 . S
C54 O51 1.252 . S
C54 O52 1.273 . S
O55 Mg42 2.010 . S
O55 C47 1.249 . S
Mg56 O57 2.028 . S
Mg56 O63 1.986 . S
Mg56 O65 2.114 . S
Mg56 O66 2.251 . S
Mg56 O69 2.010 . S
O57 Mg56 2.028 . S
O57 C60 1.250 . S
O58 Mg59 2.028 . S
O58 C60 1.248 . S
Mg59 O58 2.028 . S
Mg59 O64 2.032 . S
Mg59 O66 2.079 . S
C60 O57 1.250 . S
C60 O58 1.248 . S
C61 O62 1.264 . S
C61 O69 1.249 . S
O62 C61 1.264 . S
O63 Mg56 1.986 . S
O63 C67 1.246 . S
O64 Mg59 2.032 . S
O64 C67 1.259 . S
O65 Mg56 2.114 . S
O65 C68 1.252 . S
O66 Mg56 2.251 . S
O66 Mg59 2.079 . S
O66 C68 1.273 . S
C67 O63 1.246 . S
C67 O64 1.259 . S
C68 O65 1.252 . S
C68 O66 1.273 . S
O69 Mg56 2.010 . S
O69 C61 1.249 . S
Mg70 O71 2.028 . S
Mg70 O77 1.986 . S
Mg70 O79 2.114 . S
Mg70 O80 2.251 . S
Mg70 O83 2.010 . S
O71 Mg70 2.028 . S
O71 C74 1.250 . S
O72 Mg73 2.028 . S
O72 C74 1.248 . S
Mg73 O72 2.028 . S
Mg73 O78 2.032 . S
Mg73 O80 2.079 . S
C74 O71 1.250 . S
C74 O72 1.248 . S
C75 O76 1.264 . S
C75 O83 1.249 . S
O76 C75 1.264 . S
O77 Mg70 1.986 . S
O77 C81 1.246 . S
O78 Mg73 2.032 . S
O78 C81 1.259 . S
O79 Mg70 2.114 . S
O79 C82 1.252 . S
O80 Mg70 2.251 . S
O80 Mg73 2.079 . S
O80 C82 1.273 . S
C81 O77 1.246 . S
C81 O78 1.259 . S
C82 O79 1.252 . S
C82 O80 1.273 . S
O83 Mg70 2.010 . S
O83 C75 1.249 . S
Mg84 O85 2.028 . S
Mg84 O91 1.986 . S
Mg84 O93 2.114 . S
Mg84 O94 2.251 . S
Mg84 O97 2.010 . S
O85 Mg84 2.028 . S
O85 C88 1.250 . S
O86 Mg87 2.028 . S
O86 C88 1.248 . S
Mg87 O86 2.028 . S
Mg87 O92 2.032 . S
Mg87 O94 2.079 . S
C88 O85 1.250 . S
C88 O86 1.248 . S
C89 O90 1.264 . S
C89 O97 1.249 . S
O90 C89 1.264 . S
O91 Mg84 1.986 . S
O91 C95 1.246 . S
O92 Mg87 2.032 . S
O92 C95 1.259 . S
O93 Mg84 2.114 . S
O93 C96 1.252 . S
O94 Mg84 2.251 . S
O94 Mg87 2.079 . S
O94 C96 1.273 . S
C95 O91 1.246 . S
C95 O92 1.259 . S
C96 O93 1.252 . S
C96 O94 1.273 . S
O97 Mg84 2.010 . S
O97 C89 1.249 . S
Mg98 O99 2.028 . S
Mg98 O105 1.986 . S
Mg98 O107 2.114 . S
Mg98 O108 2.251 . S
Mg98 O111 2.010 . S
O99 Mg98 2.028 . S
O99 C102 1.250 . S
O100 Mg101 2.028 . S
O100 C102 1.248 . S
Mg101 O100 2.028 . S
Mg101 O106 2.032 . S
Mg101 O108 2.079 . S
C102 O99 1.250 . S
C102 O100 1.248 . S
C103 O104 1.264 . S
C103 O111 1.249 . S
O104 C103 1.264 . S
O105 Mg98 1.986 . S
O105 C109 1.246 . S
O106 Mg101 2.032 . S
O106 C109 1.259 . S
O107 Mg98 2.114 . S
O107 C110 1.252 . S
O108 Mg98 2.251 . S
O108 Mg101 2.079 . S
O108 C110 1.273 . S
C109 O105 1.246 . S
C109 O106 1.259 . S
C110 O107 1.252 . S
C110 O108 1.273 . S
O111 Mg98 2.010 . S
O111 C103 1.249 . S
Mg112 O113 2.028 . S
Mg112 O119 1.986 . S
Mg112 O121 2.114 . S
Mg112 O122 2.251 . S
Mg112 O125 2.010 . S
O113 Mg112 2.028 . S
O113 C116 1.250 . S
O114 Mg115 2.028 . S
O114 C116 1.248 . S
Mg115 O114 2.028 . S
Mg115 O120 2.032 . S
Mg115 O122 2.079 . S
C116 O113 1.250 . S
C116 O114 1.248 . S
C117 O118 1.264 . S
C117 O125 1.249 . S
O118 C117 1.264 . S
O119 Mg112 1.986 . S
O119 C123 1.246 . S
O120 Mg115 2.032 . S
O120 C123 1.259 . S
O121 Mg112 2.114 . S
O121 C124 1.252 . S
O122 Mg112 2.251 . S
O122 Mg115 2.079 . S
O122 C124 1.273 . S
C123 O119 1.246 . S
C123 O120 1.259 . S
C124 O121 1.252 . S
C124 O122 1.273 . S
O125 Mg112 2.010 . S
O125 C117 1.249 . S
Mg126 O127 2.028 . S
Mg126 O133 1.986 . S
Mg126 O135 2.114 . S
Mg126 O136 2.251 . S
Mg126 O139 2.010 . S
O127 Mg126 2.028 . S
O127 C130 1.250 . S
O128 Mg129 2.028 . S
O128 C130 1.248 . S
Mg129 O128 2.028 . S
Mg129 O134 2.032 . S
Mg129 O136 2.079 . S
C130 O127 1.250 . S
C130 O128 1.248 . S
C131 O132 1.264 . S
C131 O139 1.249 . S
O132 C131 1.264 . S
O133 Mg126 1.986 . S
O133 C137 1.246 . S
O134 Mg129 2.032 . S
O134 C137 1.259 . S
O135 Mg126 2.114 . S
O135 C138 1.252 . S
O136 Mg126 2.251 . S
O136 Mg129 2.079 . S
O136 C138 1.273 . S
C137 O133 1.246 . S
C137 O134 1.259 . S
C138 O135 1.252 . S
C138 O136 1.273 . S
O139 Mg126 2.010 . S
O139 C131 1.249 . S
Mg140 O141 2.028 . S
Mg140 O147 1.986 . S
Mg140 O149 2.114 . S
Mg140 O150 2.251 . S
Mg140 O153 2.010 . S
O141 Mg140 2.028 . S
O141 C144 1.250 . S
O142 Mg143 2.028 . S
O142 C144 1.248 . S
Mg143 O142 2.028 . S
Mg143 O148 2.032 . S
Mg143 O150 2.079 . S
C144 O141 1.250 . S
C144 O142 1.248 . S
C145 O146 1.264 . S
C145 O153 1.249 . S
O146 C145 1.264 . S
O147 Mg140 1.986 . S
O147 C151 1.246 . S
O148 Mg143 2.032 . S
O148 C151 1.259 . S
O149 Mg140 2.114 . S
O149 C152 1.252 . S
O150 Mg140 2.251 . S
O150 Mg143 2.079 . S
O150 C152 1.273 . S
C151 O147 1.246 . S
C151 O148 1.259 . S
C152 O149 1.252 . S
C152 O150 1.273 . S
O153 Mg140 2.010 . S
O153 C145 1.249 . S
Mg154 O155 2.028 . S
Mg154 O161 1.986 . S
Mg154 O163 2.114 . S
Mg154 O164 2.251 . S
Mg154 O167 2.010 . S
O155 Mg154 2.028 . S
O155 C158 1.250 . S
O156 Mg157 2.028 . S
O156 C158 1.248 . S
Mg157 O156 2.028 . S
Mg157 O162 2.032 . S
Mg157 O164 2.079 . S
C158 O155 1.250 . S
C158 O156 1.248 . S
C159 O160 1.264 . S
C159 O167 1.249 . S
O160 C159 1.264 . S
O161 Mg154 1.986 . S
O161 C165 1.246 . S
O162 Mg157 2.032 . S
O162 C165 1.259 . S
O163 Mg154 2.114 . S
O163 C166 1.252 . S
O164 Mg154 2.251 . S
O164 Mg157 2.079 . S
O164 C166 1.273 . S
C165 O161 1.246 . S
C165 O162 1.259 . S
C166 O163 1.252 . S
C166 O164 1.273 . S
O167 Mg154 2.010 . S
O167 C159 1.249 . S
Mg168 O169 2.028 . S
Mg168 O175 1.986 . S
Mg168 O177 2.114 . S
Mg168 O178 2.251 . S
Mg168 O181 2.010 . S
O169 Mg168 2.028 . S
O169 C172 1.250 . S
O170 Mg171 2.028 . S
O170 C172 1.248 . S
Mg171 O170 2.028 . S
Mg171 O176 2.032 . S
Mg171 O178 2.079 . S
C172 O169 1.250 . S
C172 O170 1.248 . S
C173 O174 1.264 . S
C173 O181 1.249 . S
O174 C173 1.264 . S
O175 Mg168 1.986 . S
O175 C179 1.246 . S
O176 Mg171 2.032 . S
O176 C179 1.259 . S
O177 Mg168 2.114 . S
O177 C180 1.252 . S
O178 Mg168 2.251 . S
O178 Mg171 2.079 . S
O178 C180 1.273 . S
C179 O175 1.246 . S
C179 O176 1.259 . S
C180 O177 1.252 . S
C180 O178 1.273 . S
O181 Mg168 2.010 . S
O181 C173 1.249 . S
Mg182 O183 2.028 . S
Mg182 O189 1.986 . S
Mg182 O191 2.114 . S
Mg182 O192 2.251 . S
Mg182 O195 2.010 . S
O183 Mg182 2.028 . S
O183 C186 1.250 . S
O184 Mg185 2.028 . S
O184 C186 1.248 . S
Mg185 O184 2.028 . S
Mg185 O190 2.032 . S
Mg185 O192 2.079 . S
C186 O183 1.250 . S
C186 O184 1.248 . S
C187 O188 1.264 . S
C187 O195 1.249 . S
O188 C187 1.264 . S
O189 Mg182 1.986 . S
O189 C193 1.246 . S
O190 Mg185 2.032 . S
O190 C193 1.259 . S
O191 Mg182 2.114 . S
O191 C194 1.252 . S
O192 Mg182 2.251 . S
O192 Mg185 2.079 . S
O192 C194 1.273 . S
C193 O189 1.246 . S
C193 O190 1.259 . S
C194 O191 1.252 . S
C194 O192 1.273 . S
O195 Mg182 2.010 . S
O195 C187 1.249 . S
Mg196 O197 2.028 . S
Mg196 O203 1.986 . S
Mg196 O205 2.114 . S
Mg196 O206 2.251 . S
Mg196 O209 2.010 . S
O197 Mg196 2.028 . S
O197 C200 1.250 . S
O198 Mg199 2.028 . S
O198 C200 1.248 . S
Mg199 O198 2.028 . S
Mg199 O204 2.032 . S
Mg199 O206 2.079 . S
C200 O197 1.250 . S
C200 O198 1.248 . S
C201 O202 1.264 . S
C201 O209 1.249 . S
O202 C201 1.264 . S
O203 Mg196 1.986 . S
O203 C207 1.246 . S
O204 Mg199 2.032 . S
O204 C207 1.259 . S
O205 Mg196 2.114 . S
O205 C208 1.252 . S
O206 Mg196 2.251 . S
O206 Mg199 2.079 . S
O206 C208 1.273 . S
C207 O203 1.246 . S
C207 O204 1.259 . S
C208 O205 1.252 . S
C208 O206 1.273 . S
O209 Mg196 2.010 . S
O209 C201 1.249 . S
Mg210 O211 2.028 . S
Mg210 O217 1.986 . S
Mg210 O219 2.114 . S
Mg210 O220 2.251 . S
Mg210 O223 2.010 . S
O211 Mg210 2.028 . S
O211 C214 1.250 . S
O212 Mg213 2.028 . S
O212 C214 1.248 . S
Mg213 O212 2.028 . S
Mg213 O218 2.032 . S
Mg213 O220 2.079 . S
C214 O211 1.250 . S
C214 O212 1.248 . S
C215 O216 1.264 . S
C215 O223 1.249 . S
O216 C215 1.264 . S
O217 Mg210 1.986 . S
O217 C221 1.246 . S
O218 Mg213 2.032 . S
O218 C221 1.259 . S
O219 Mg210 2.114 . S
O219 C222 1.252 . S
O220 Mg210 2.251 . S
O220 Mg213 2.079 . S
O220 C222 1.273 . S
C221 O217 1.246 . S
C221 O218 1.259 . S
C222 O219 1.252 . S
C222 O220 1.273 . S
O223 Mg210 2.010 . S
O223 C215 1.249 . S
Mg224 O225 2.028 . S
Mg224 O231 1.986 . S
Mg224 O233 2.114 . S
Mg224 O234 2.251 . S
Mg224 O237 2.010 . S
O225 Mg224 2.028 . S
O225 C228 1.250 . S
O226 Mg227 2.028 . S
O226 C228 1.248 . S
Mg227 O226 2.028 . S
Mg227 O232 2.032 . S
Mg227 O234 2.079 . S
C228 O225 1.250 . S
C228 O226 1.248 . S
C229 O230 1.264 . S
C229 O237 1.249 . S
O230 C229 1.264 . S
O231 Mg224 1.986 . S
O231 C235 1.246 . S
O232 Mg227 2.032 . S
O232 C235 1.259 . S
O233 Mg224 2.114 . S
O233 C236 1.252 . S
O234 Mg224 2.251 . S
O234 Mg227 2.079 . S
O234 C236 1.273 . S
C235 O231 1.246 . S
C235 O232 1.259 . S
C236 O233 1.252 . S
C236 O234 1.273 . S
O237 Mg224 2.010 . S
O237 C229 1.249 . S
Mg238 O239 2.028 . S
Mg238 O245 1.986 . S
Mg238 O247 2.114 . S
Mg238 O248 2.251 . S
Mg238 O251 2.010 . S
O239 Mg238 2.028 . S
O239 C242 1.250 . S
O240 Mg241 2.028 . S
O240 C242 1.248 . S
Mg241 O240 2.028 . S
Mg241 O246 2.032 . S
Mg241 O248 2.079 . S
C242 O239 1.250 . S
C242 O240 1.248 . S
C243 O244 1.264 . S
C243 O251 1.249 . S
O244 C243 1.264 . S
O245 Mg238 1.986 . S
O245 C249 1.246 . S
O246 Mg241 2.032 . S
O246 C249 1.259 . S
O247 Mg238 2.114 . S
O247 C250 1.252 . S
O248 Mg238 2.251 . S
O248 Mg241 2.079 . S
O248 C250 1.273 . S
C249 O245 1.246 . S
C249 O246 1.259 . S
C250 O247 1.252 . S
C250 O248 1.273 . S
O251 Mg238 2.010 . S
O251 C243 1.249 . S
Mg252 O253 2.028 . S
Mg252 O259 1.986 . S
Mg252 O261 2.114 . S
Mg252 O262 2.251 . S
Mg252 O265 2.010 . S
O253 Mg252 2.028 . S
O253 C256 1.250 . S
O254 Mg255 2.028 . S
O254 C256 1.248 . S
Mg255 O254 2.028 . S
Mg255 O260 2.032 . S
Mg255 O262 2.079 . S
C256 O253 1.250 . S
C256 O254 1.248 . S
C257 O258 1.264 . S
C257 O265 1.249 . S
O258 C257 1.264 . S
O259 Mg252 1.986 . S
O259 C263 1.246 . S
O260 Mg255 2.032 . S
O260 C263 1.259 . S
O261 Mg252 2.114 . S
O261 C264 1.252 . S
O262 Mg252 2.251 . S
O262 Mg255 2.079 . S
O262 C264 1.273 . S
C263 O259 1.246 . S
C263 O260 1.259 . S
C264 O261 1.252 . S
C264 O262 1.273 . S
O265 Mg252 2.010 . S
O265 C257 1.249 . S
Mg266 O267 2.028 . S
Mg266 O273 1.986 . S
Mg266 O275 2.114 . S
Mg266 O276 2.251 . S
Mg266 O279 2.010 . S
O267 Mg266 2.028 . S
O267 C270 1.250 . S
O268 Mg269 2.028 . S
O268 C270 1.248 . S
Mg269 O268 2.028 . S
Mg269 O274 2.032 . S
Mg269 O276 2.079 . S
C270 O267 1.250 . S
C270 O268 1.248 . S
C271 O272 1.264 . S
C271 O279 1.249 . S
O272 C271 1.264 . S
O273 Mg266 1.986 . S
O273 C277 1.246 . S
O274 Mg269 2.032 . S
O274 C277 1.259 . S
O275 Mg266 2.114 . S
O275 C278 1.252 . S
O276 Mg266 2.251 . S
O276 Mg269 2.079 . S
O276 C278 1.273 . S
C277 O273 1.246 . S
C277 O274 1.259 . S
C278 O275 1.252 . S
C278 O276 1.273 . S
O279 Mg266 2.010 . S
O279 C271 1.249 . S
Mg280 O281 2.028 . S
Mg280 O287 1.986 . S
Mg280 O289 2.114 . S
Mg280 O290 2.251 . S
Mg280 O293 2.010 . S
O281 Mg280 2.028 . S
O281 C284 1.250 . S
O282 Mg283 2.028 . S
O282 C284 1.248 . S
Mg283 O282 2.028 . S
Mg283 O288 2.032 . S
Mg283 O290 2.079 . S
C284 O281 1.250 . S
C284 O282 1.248 . S
C285 O286 1.264 . S
C285 O293 1.249 . S
O286 C285 1.264 . S
O287 Mg280 1.986 . S
O287 C291 1.246 . S
O288 Mg283 2.032 . S
O288 C291 1.259 . S
O289 Mg280 2.114 . S
O289 C292 1.252 . S
O290 Mg280 2.251 . S
O290 Mg283 2.079 . S
O290 C292 1.273 . S
C291 O287 1.246 . S
C291 O288 1.259 . S
C292 O289 1.252 . S
C292 O290 1.273 . S
O293 Mg280 2.010 . S
O293 C285 1.249 . S
Mg294 O295 2.028 . S
Mg294 O301 1.986 . S
Mg294 O303 2.114 . S
Mg294 O304 2.251 . S
Mg294 O307 2.010 . S
O295 Mg294 2.028 . S
O295 C298 1.250 . S
O296 Mg297 2.028 . S
O296 C298 1.248 . S
Mg297 O296 2.028 . S
Mg297 O302 2.032 . S
Mg297 O304 2.079 . S
C298 O295 1.250 . S
C298 O296 1.248 . S
C299 O300 1.264 . S
C299 O307 1.249 . S
O300 C299 1.264 . S
O301 Mg294 1.986 . S
O301 C305 1.246 . S
O302 Mg297 2.032 . S
O302 C305 1.259 . S
O303 Mg294 2.114 . S
O303 C306 1.252 . S
O304 Mg294 2.251 . S
O304 Mg297 2.079 . S
O304 C306 1.273 . S
C305 O301 1.246 . S
C305 O302 1.259 . S
C306 O303 1.252 . S
C306 O304 1.273 . S
O307 Mg294 2.010 . S
O307 C299 1.249 . S
Mg308 O309 2.028 . S
Mg308 O315 1.986 . S
Mg308 O317 2.114 . S
Mg308 O318 2.251 . S
Mg308 O321 2.010 . S
O309 Mg308 2.028 . S
O309 C312 1.250 . S
O310 Mg311 2.028 . S
O310 C312 1.248 . S
Mg311 O310 2.028 . S
Mg311 O316 2.032 . S
Mg311 O318 2.079 . S
C312 O309 1.250 . S
C312 O310 1.248 . S
C313 O314 1.264 . S
C313 O321 1.249 . S
O314 C313 1.264 . S
O315 Mg308 1.986 . S
O315 C319 1.246 . S
O316 Mg311 2.032 . S
O316 C319 1.259 . S
O317 Mg308 2.114 . S
O317 C320 1.252 . S
O318 Mg308 2.251 . S
O318 Mg311 2.079 . S
O318 C320 1.273 . S
C319 O315 1.246 . S
C319 O316 1.259 . S
C320 O317 1.252 . S
C320 O318 1.273 . S
O321 Mg308 2.010 . S
O321 C313 1.249 . S
Mg322 O323 2.028 . S
Mg322 O329 1.986 . S
Mg322 O331 2.114 . S
Mg322 O332 2.251 . S
Mg322 O335 2.010 . S
O323 Mg322 2.028 . S
O323 C326 1.250 . S
O324 Mg325 2.028 . S
O324 C326 1.248 . S
Mg325 O324 2.028 . S
Mg325 O330 2.032 . S
Mg325 O332 2.079 . S
C326 O323 1.250 . S
C326 O324 1.248 . S
C327 O328 1.264 . S
C327 O335 1.249 . S
O328 C327 1.264 . S
O329 Mg322 1.986 . S
O329 C333 1.246 . S
O330 Mg325 2.032 . S
O330 C333 1.259 . S
O331 Mg322 2.114 . S
O331 C334 1.252 . S
O332 Mg322 2.251 . S
O332 Mg325 2.079 . S
O332 C334 1.273 . S
C333 O329 1.246 . S
C333 O330 1.259 . S
C334 O331 1.252 . S
C334 O332 1.273 . S
O335 Mg322 2.010 . S
O335 C327 1.249 . S
Mg336 O337 2.028 . S
Mg336 O343 1.986 . S
Mg336 O345 2.114 . S
Mg336 O346 2.251 . S
Mg336 O349 2.010 . S
O337 Mg336 2.028 . S
O337 C340 1.250 . S
O338 Mg339 2.028 . S
O338 C340 1.248 . S
Mg339 O338 2.028 . S
Mg339 O344 2.032 . S
Mg339 O346 2.079 . S
C340 O337 1.250 . S
C340 O338 1.248 . S
C341 O342 1.264 . S
C341 O349 1.249 . S
O342 C341 1.264 . S
O343 Mg336 1.986 . S
O343 C347 1.246 . S
O344 Mg339 2.032 . S
O344 C347 1.259 . S
O345 Mg336 2.114 . S
O345 C348 1.252 . S
O346 Mg336 2.251 . S
O346 Mg339 2.079 . S
O346 C348 1.273 . S
C347 O343 1.246 . S
C347 O344 1.259 . S
C348 O345 1.252 . S
C348 O346 1.273 . S
O349 Mg336 2.010 . S
O349 C341 1.249 . S
Mg350 O351 2.028 . S
Mg350 O357 1.986 . S
Mg350 O359 2.114 . S
Mg350 O360 2.251 . S
Mg350 O363 2.010 . S
O351 Mg350 2.028 . S
O351 C354 1.250 . S
O352 Mg353 2.028 . S
O352 C354 1.248 . S
Mg353 O352 2.028 . S
Mg353 O358 2.032 . S
Mg353 O360 2.079 . S
C354 O351 1.250 . S
C354 O352 1.248 . S
C355 O356 1.264 . S
C355 O363 1.249 . S
O356 C355 1.264 . S
O357 Mg350 1.986 . S
O357 C361 1.246 . S
O358 Mg353 2.032 . S
O358 C361 1.259 . S
O359 Mg350 2.114 . S
O359 C362 1.252 . S
O360 Mg350 2.251 . S
O360 Mg353 2.079 . S
O360 C362 1.273 . S
C361 O357 1.246 . S
C361 O358 1.259 . S
C362 O359 1.252 . S
C362 O360 1.273 . S
O363 Mg350 2.010 . S
O363 C355 1.249 . S
Mg364 O365 2.028 . S
Mg364 O371 1.986 . S
Mg364 O373 2.114 . S
Mg364 O374 2.251 . S
Mg364 O377 2.010 . S
O365 Mg364 2.028 . S
O365 C368 1.250 . S
O366 Mg367 2.028 . S
O366 C368 1.248 . S
Mg367 O366 2.028 . S
Mg367 O372 2.032 . S
Mg367 O374 2.079 . S
C368 O365 1.250 . S
C368 O366 1.248 . S
C369 O370 1.264 . S
C369 O377 1.249 . S
O370 C369 1.264 . S
O371 Mg364 1.986 . S
O371 C375 1.246 . S
O372 Mg367 2.032 . S
O372 C375 1.259 . S
O373 Mg364 2.114 . S
O373 C376 1.252 . S
O374 Mg364 2.251 . S
O374 Mg367 2.079 . S
O374 C376 1.273 . S
C375 O371 1.246 . S
C375 O372 1.259 . S
C376 O373 1.252 . S
C376 O374 1.273 . S
O377 Mg364 2.010 . S
O377 C369 1.249 . S
Mg378 O379 2.028 . S
Mg378 O385 1.986 . S
Mg378 O387 2.114 . S
Mg378 O388 2.251 . S
Mg378 O391 2.010 . S
O379 Mg378 2.028 . S
O379 C382 1.250 . S
O380 Mg381 2.028 . S
O380 C382 1.248 . S
Mg381 O380 2.028 . S
Mg381 O386 2.032 . S
Mg381 O388 2.079 . S
C382 O379 1.250 . S
C382 O380 1.248 . S
C383 O384 1.264 . S
C383 O391 1.249 . S
O384 C383 1.264 . S
O385 Mg378 1.986 . S
O385 C389 1.246 . S
O386 Mg381 2.032 . S
O386 C389 1.259 . S
O387 Mg378 2.114 . S
O387 C390 1.252 . S
O388 Mg378 2.251 . S
O388 Mg381 2.079 . S
O388 C390 1.273 . S
C389 O385 1.246 . S
C389 O386 1.259 . S
C390 O387 1.252 . S
C390 O388 1.273 . S
O391 Mg378 2.010 . S
O391 C383 1.249 . S
Mg392 O393 2.028 . S
Mg392 O399 1.986 . S
Mg392 O401 2.114 . S
Mg392 O402 2.251 . S
Mg392 O405 2.010 . S
O393 Mg392 2.028 . S
O393 C396 1.250 . S
O394 Mg395 2.028 . S
O394 C396 1.248 . S
Mg395 O394 2.028 . S
Mg395 O400 2.032 . S
Mg395 O402 2.079 . S
C396 O393 1.250 . S
C396 O394 1.248 . S
C397 O398 1.264 . S
C397 O405 1.249 . S
O398 C397 1.264 . S
O399 Mg392 1.986 . S
O399 C403 1.246 . S
O400 Mg395 2.032 . S
O400 C403 1.259 . S
O401 Mg392 2.114 . S
O401 C404 1.252 . S
O402 Mg392 2.251 . S
O402 Mg395 2.079 . S
O402 C404 1.273 . S
C403 O399 1.246 . S
C403 O400 1.259 . S
C404 O401 1.252 . S
C404 O402 1.273 . S
O405 Mg392 2.010 . S
O405 C397 1.249 . S
Mg406 O407 2.028 . S
Mg406 O413 1.986 . S
Mg406 O415 2.114 . S
Mg406 O416 2.251 . S
Mg406 O419 2.010 . S
O407 Mg406 2.028 . S
O407 C410 1.250 . S
O408 Mg409 2.028 . S
O408 C410 1.248 . S
Mg409 O408 2.028 . S
Mg409 O414 2.032 . S
Mg409 O416 2.079 . S
C410 O407 1.250 . S
C410 O408 1.248 . S
C411 O412 1.264 . S
C411 O419 1.249 . S
O412 C411 1.264 . S
O413 Mg406 1.986 . S
O413 C417 1.246 . S
O414 Mg409 2.032 . S
O414 C417 1.259 . S
O415 Mg406 2.114 . S
O415 C418 1.252 . S
O416 Mg406 2.251 . S
O416 Mg409 2.079 . S
O416 C418 1.273 . S
C417 O413 1.246 . S
C417 O414 1.259 . S
C418 O415 1.252 . S
C418 O416 1.273 . S
O419 Mg406 2.010 . S
O419 C411 1.249 . S
Mg420 O421 2.028 . S
Mg420 O427 1.986 . S
Mg420 O429 2.114 . S
Mg420 O430 2.251 . S
Mg420 O433 2.010 . S
O421 Mg420 2.028 . S
O421 C424 1.250 . S
O422 Mg423 2.028 . S
O422 C424 1.248 . S
Mg423 O422 2.028 . S
Mg423 O428 2.032 . S
Mg423 O430 2.079 . S
C424 O421 1.250 . S
C424 O422 1.248 . S
C425 O426 1.264 . S
C425 O433 1.249 . S
O426 C425 1.264 . S
O427 Mg420 1.986 . S
O427 C431 1.246 . S
O428 Mg423 2.032 . S
O428 C431 1.259 . S
O429 Mg420 2.114 . S
O429 C432 1.252 . S
O430 Mg420 2.251 . S
O430 Mg423 2.079 . S
O430 C432 1.273 . S
C431 O427 1.246 . S
C431 O428 1.259 . S
C432 O429 1.252 . S
C432 O430 1.273 . S
O433 Mg420 2.010 . S
O433 C425 1.249 . S
Mg434 O435 2.028 . S
Mg434 O441 1.986 . S
Mg434 O443 2.114 . S
Mg434 O444 2.251 . S
Mg434 O447 2.010 . S
O435 Mg434 2.028 . S
O435 C438 1.250 . S
O436 Mg437 2.028 . S
O436 C438 1.248 . S
Mg437 O436 2.028 . S
Mg437 O442 2.032 . S
Mg437 O444 2.079 . S
C438 O435 1.250 . S
C438 O436 1.248 . S
C439 O440 1.264 . S
C439 O447 1.249 . S
O440 C439 1.264 . S
O441 Mg434 1.986 . S
O441 C445 1.246 . S
O442 Mg437 2.032 . S
O442 C445 1.259 . S
O443 Mg434 2.114 . S
O443 C446 1.252 . S
O444 Mg434 2.251 . S
O444 Mg437 2.079 . S
O444 C446 1.273 . S
C445 O441 1.246 . S
C445 O442 1.259 . S
C446 O443 1.252 . S
C446 O444 1.273 . S
O447 Mg434 2.010 . S
O447 C439 1.249 . S
Mg448 O449 2.028 . S
Mg448 O455 1.986 . S
Mg448 O457 2.114 . S
Mg448 O458 2.251 . S
Mg448 O461 2.010 . S
O449 Mg448 2.028 . S
O449 C452 1.250 . S
O450 Mg451 2.028 . S
O450 C452 1.248 . S
Mg451 O450 2.028 . S
Mg451 O456 2.032 . S
Mg451 O458 2.079 . S
C452 O449 1.250 . S
C452 O450 1.248 . S
C453 O454 1.264 . S
C453 O461 1.249 . S
O454 C453 1.264 . S
O455 Mg448 1.986 . S
O455 C459 1.246 . S
O456 Mg451 2.032 . S
O456 C459 1.259 . S
O457 Mg448 2.114 . S
O457 C460 1.252 . S
O458 Mg448 2.251 . S
O458 Mg451 2.079 . S
O458 C460 1.273 . S
C459 O455 1.246 . S
C459 O456 1.259 . S
C460 O457 1.252 . S
C460 O458 1.273 . S
O461 Mg448 2.010 . S
O461 C453 1.249 . S
Mg462 O463 2.028 . S
Mg462 O469 1.986 . S
Mg462 O471 2.114 . S
Mg462 O472 2.251 . S
Mg462 O475 2.010 . S
O463 Mg462 2.028 . S
O463 C466 1.250 . S
O464 Mg465 2.028 . S
O464 C466 1.248 . S
Mg465 O464 2.028 . S
Mg465 O470 2.032 . S
Mg465 O472 2.079 . S
C466 O463 1.250 . S
C466 O464 1.248 . S
C467 O468 1.264 . S
C467 O475 1.249 . S
O468 C467 1.264 . S
O469 Mg462 1.986 . S
O469 C473 1.246 . S
O470 Mg465 2.032 . S
O470 C473 1.259 . S
O471 Mg462 2.114 . S
O471 C474 1.252 . S
O472 Mg462 2.251 . S
O472 Mg465 2.079 . S
O472 C474 1.273 . S
C473 O469 1.246 . S
C473 O470 1.259 . S
C474 O471 1.252 . S
C474 O472 1.273 . S
O475 Mg462 2.010 . S
O475 C467 1.249 . S
Mg476 O477 2.028 . S
Mg476 O483 1.986 . S
Mg476 O485 2.114 . S
Mg476 O486 2.251 . S
Mg476 O489 2.010 . S
O477 Mg476 2.028 . S
O477 C480 1.250 . S
O478 Mg479 2.028 . S
O478 C480 1.248 . S
Mg479 O478 2.028 . S
Mg479 O484 2.032 . S
Mg479 O486 2.079 . S
C480 O477 1.250 . S
C480 O478 1.248 . S
C481 O482 1.264 . S
C481 O489 1.249 . S
O482 C481 1.264 . S
O483 Mg476 1.986 . S
O483 C487 1.246 . S
O484 Mg479 2.032 . S
O484 C487 1.259 . S
O485 Mg476 2.114 . S
O485 C488 1.252 . S
O486 Mg476 2.251 . S
O486 Mg479 2.079 . S
O486 C488 1.273 . S
C487 O483 1.246 . S
C487 O484 1.259 . S
C488 O485 1.252 . S
C488 O486 1.273 . S
O489 Mg476 2.010 . S
O489 C481 1.249 . S
Mg490 O491 2.028 . S
Mg490 O497 1.986 . S
Mg490 O499 2.114 . S
Mg490 O500 2.251 . S
Mg490 O503 2.010 . S
O491 Mg490 2.028 . S
O491 C494 1.250 . S
O492 Mg493 2.028 . S
O492 C494 1.248 . S
Mg493 O492 2.028 . S
Mg493 O498 2.032 . S
Mg493 O500 2.079 . S
C494 O491 1.250 . S
C494 O492 1.248 . S
C495 O496 1.264 . S
C495 O503 1.249 . S
O496 C495 1.264 . S
O497 Mg490 1.986 . S
O497 C501 1.246 . S
O498 Mg493 2.032 . S
O498 C501 1.259 . S
O499 Mg490 2.114 . S
O499 C502 1.252 . S
O500 Mg490 2.251 . S
O500 Mg493 2.079 . S
O500 C502 1.273 . S
C501 O497 1.246 . S
C501 O498 1.259 . S
C502 O499 1.252 . S
C502 O500 1.273 . S
O503 Mg490 2.010 . S
O503 C495 1.249 . S
Mg504 O505 2.028 . S
Mg504 O511 1.986 . S
Mg504 O513 2.114 . S
Mg504 O514 2.251 . S
Mg504 O517 2.010 . S
O505 Mg504 2.028 . S
O505 C508 1.250 . S
O506 Mg507 2.028 . S
O506 C508 1.248 . S
Mg507 O506 2.028 . S
Mg507 O512 2.032 . S
Mg507 O514 2.079 . S
C508 O505 1.250 . S
C508 O506 1.248 . S
C509 O510 1.264 . S
C509 O517 1.249 . S
O510 C509 1.264 . S
O511 Mg504 1.986 . S
O511 C515 1.246 . S
O512 Mg507 2.032 . S
O512 C515 1.259 . S
O513 Mg504 2.114 . S
O513 C516 1.252 . S
O514 Mg504 2.251 . S
O514 Mg507 2.079 . S
O514 C516 1.273 . S
C515 O511 1.246 . S
C515 O512 1.259 . S
C516 O513 1.252 . S
C516 O514 1.273 . S
O517 Mg504 2.010 . S
O517 C509 1.249 . S
Mg518 O519 2.028 . S
Mg518 O525 1.986 . S
Mg518 O527 2.114 . S
Mg518 O528 2.251 . S
Mg518 O531 2.010 . S
O519 Mg518 2.028 . S
O519 C522 1.250 . S
O520 Mg521 2.028 . S
O520 C522 1.248 . S
Mg521 O520 2.028 . S
Mg521 O526 2.032 . S
Mg521 O528 2.079 . S
C522 O519 1.250 . S
C522 O520 1.248 . S
C523 O524 1.264 . S
C523 O531 1.249 . S
O524 C523 1.264 . S
O525 Mg518 1.986 . S
O525 C529 1.246 . S
O526 Mg521 2.032 . S
O526 C529 1.259 . S
O527 Mg518 2.114 . S
O527 C530 1.252 . S
O528 Mg518 2.251 . S
O528 Mg521 2.079 . S
O528 C530 1.273 . S
C529 O525 1.246 . S
C529 O526 1.259 . S
C530 O527 1.252 . S
C530 O528 1.273 . S
O531 Mg518 2.010 . S
O531 C523 1.249 . S
Mg532 O533 2.028 . S
Mg532 O539 1.986 . S
Mg532 O541 2.114 . S
Mg532 O542 2.251 . S
Mg532 O545 2.010 . S
O533 Mg532 2.028 . S
O533 C536 1.250 . S
O534 Mg535 2.028 . S
O534 C536 1.248 . S
Mg535 O534 2.028 . S
Mg535 O540 2.032 . S
Mg535 O542 2.079 . S
C536 O533 1.250 . S
C536 O534 1.248 . S
C537 O538 1.264 . S
C537 O545 1.249 . S
O538 C537 1.264 . S
O539 Mg532 1.986 . S
O539 C543 1.246 . S
O540 Mg535 2.032 . S
O540 C543 1.259 . S
O541 Mg532 2.114 . S
O541 C544 1.252 . S
O542 Mg532 2.251 . S
O542 Mg535 2.079 . S
O542 C544 1.273 . S
C543 O539 1.246 . S
C543 O540 1.259 . S
C544 O541 1.252 . S
C544 O542 1.273 . S
O545 Mg532 2.010 . S
O545 C537 1.249 . S
Mg546 O547 2.028 . S
Mg546 O553 1.986 . S
Mg546 O555 2.114 . S
Mg546 O556 2.251 . S
Mg546 O559 2.010 . S
O547 Mg546 2.028 . S
O547 C550 1.250 . S
O548 Mg549 2.028 . S
O548 C550 1.248 . S
Mg549 O548 2.028 . S
Mg549 O554 2.032 . S
Mg549 O556 2.079 . S
C550 O547 1.250 . S
C550 O548 1.248 . S
C551 O552 1.264 . S
C551 O559 1.249 . S
O552 C551 1.264 . S
O553 Mg546 1.986 . S
O553 C557 1.246 . S
O554 Mg549 2.032 . S
O554 C557 1.259 . S
O555 Mg546 2.114 . S
O555 C558 1.252 . S
O556 Mg546 2.251 . S
O556 Mg549 2.079 . S
O556 C558 1.273 . S
C557 O553 1.246 . S
C557 O554 1.259 . S
C558 O555 1.252 . S
C558 O556 1.273 . S
O559 Mg546 2.010 . S
O559 C551 1.249 . S
Mg560 O561 2.028 . S
Mg560 O567 1.986 . S
Mg560 O569 2.114 . S
Mg560 O570 2.251 . S
Mg560 O573 2.010 . S
O561 Mg560 2.028 . S
O561 C564 1.250 . S
O562 Mg563 2.028 . S
O562 C564 1.248 . S
Mg563 O562 2.028 . S
Mg563 O568 2.032 . S
Mg563 O570 2.079 . S
C564 O561 1.250 . S
C564 O562 1.248 . S
C565 O566 1.264 . S
C565 O573 1.249 . S
O566 C565 1.264 . S
O567 Mg560 1.986 . S
O567 C571 1.246 . S
O568 Mg563 2.032 . S
O568 C571 1.259 . S
O569 Mg560 2.114 . S
O569 C572 1.252 . S
O570 Mg560 2.251 . S
O570 Mg563 2.079 . S
O570 C572 1.273 . S
C571 O567 1.246 . S
C571 O568 1.259 . S
C572 O569 1.252 . S
C572 O570 1.273 . S
O573 Mg560 2.010 . S
O573 C565 1.249 . S
Mg574 O575 2.028 . S
Mg574 O581 1.986 . S
Mg574 O583 2.114 . S
Mg574 O584 2.251 . S
Mg574 O587 2.010 . S
O575 Mg574 2.028 . S
O575 C578 1.250 . S
O576 Mg577 2.028 . S
O576 C578 1.248 . S
Mg577 O576 2.028 . S
Mg577 O582 2.032 . S
Mg577 O584 2.079 . S
C578 O575 1.250 . S
C578 O576 1.248 . S
C579 O580 1.264 . S
C579 O587 1.249 . S
O580 C579 1.264 . S
O581 Mg574 1.986 . S
O581 C585 1.246 . S
O582 Mg577 2.032 . S
O582 C585 1.259 . S
O583 Mg574 2.114 . S
O583 C586 1.252 . S
O584 Mg574 2.251 . S
O584 Mg577 2.079 . S
O584 C586 1.273 . S
C585 O581 1.246 . S
C585 O582 1.259 . S
C586 O583 1.252 . S
C586 O584 1.273 . S
O587 Mg574 2.010 . S
O587 C579 1.249 . S
Mg588 O589 2.028 . S
Mg588 O595 1.986 . S
Mg588 O597 2.114 . S
Mg588 O598 2.251 . S
Mg588 O601 2.010 . S
O589 Mg588 2.028 . S
O589 C592 1.250 . S
O590 Mg591 2.028 . S
O590 C592 1.248 . S
Mg591 O590 2.028 . S
Mg591 O596 2.032 . S
Mg591 O598 2.079 . S
C592 O589 1.250 . S
C592 O590 1.248 . S
C593 O594 1.264 . S
C593 O601 1.249 . S
O594 C593 1.264 . S
O595 Mg588 1.986 . S
O595 C599 1.246 . S
O596 Mg591 2.032 . S
O596 C599 1.259 . S
O597 Mg588 2.114 . S
O597 C600 1.252 . S
O598 Mg588 2.251 . S
O598 Mg591 2.079 . S
O598 C600 1.273 . S
C599 O595 1.246 . S
C599 O596 1.259 . S
C600 O597 1.252 . S
C600 O598 1.273 . S
O601 Mg588 2.010 . S
O601 C593 1.249 . S
Mg602 O603 2.028 . S
Mg602 O609 1.986 . S
Mg602 O611 2.114 . S
Mg602 O612 2.251 . S
Mg602 O615 2.010 . S
O603 Mg602 2.028 . S
O603 C606 1.250 . S
O604 Mg605 2.028 . S
O604 C606 1.248 . S
Mg605 O604 2.028 . S
Mg605 O610 2.032 . S
Mg605 O612 2.079 . S
C606 O603 1.250 . S
C606 O604 1.248 . S
C607 O608 1.264 . S
C607 O615 1.249 . S
O608 C607 1.264 . S
O609 Mg602 1.986 . S
O609 C613 1.246 . S
O610 Mg605 2.032 . S
O610 C613 1.259 . S
O611 Mg602 2.114 . S
O611 C614 1.252 . S
O612 Mg602 2.251 . S
O612 Mg605 2.079 . S
O612 C614 1.273 . S
C613 O609 1.246 . S
C613 O610 1.259 . S
C614 O611 1.252 . S
C614 O612 1.273 . S
O615 Mg602 2.010 . S
O615 C607 1.249 . S
Mg616 O617 2.028 . S
Mg616 O623 1.986 . S
Mg616 O625 2.114 . S
Mg616 O626 2.251 . S
Mg616 O629 2.010 . S
O617 Mg616 2.028 . S
O617 C620 1.250 . S
O618 Mg619 2.028 . S
O618 C620 1.248 . S
Mg619 O618 2.028 . S
Mg619 O624 2.032 . S
Mg619 O626 2.079 . S
C620 O617 1.250 . S
C620 O618 1.248 . S
C621 O622 1.264 . S
C621 O629 1.249 . S
O622 C621 1.264 . S
O623 Mg616 1.986 . S
O623 C627 1.246 . S
O624 Mg619 2.032 . S
O624 C627 1.259 . S
O625 Mg616 2.114 . S
O625 C628 1.252 . S
O626 Mg616 2.251 . S
O626 Mg619 2.079 . S
O626 C628 1.273 . S
C627 O623 1.246 . S
C627 O624 1.259 . S
C628 O625 1.252 . S
C628 O626 1.273 . S
O629 Mg616 2.010 . S
O629 C621 1.249 . S
Mg630 O631 2.028 . S
Mg630 O637 1.986 . S
Mg630 O639 2.114 . S
Mg630 O640 2.251 . S
Mg630 O643 2.010 . S
O631 Mg630 2.028 . S
O631 C634 1.250 . S
O632 Mg633 2.028 . S
O632 C634 1.248 . S
Mg633 O632 2.028 . S
Mg633 O638 2.032 . S
Mg633 O640 2.079 . S
C634 O631 1.250 . S
C634 O632 1.248 . S
C635 O636 1.264 . S
C635 O643 1.249 . S
O636 C635 1.264 . S
O637 Mg630 1.986 . S
O637 C641 1.246 . S
O638 Mg633 2.032 . S
O638 C641 1.259 . S
O639 Mg630 2.114 . S
O639 C642 1.252 . S
O640 Mg630 2.251 . S
O640 Mg633 2.079 . S
O640 C642 1.273 . S
C641 O637 1.246 . S
C641 O638 1.259 . S
C642 O639 1.252 . S
C642 O640 1.273 . S
O643 Mg630 2.010 . S
O643 C635 1.249 . S
Mg644 O645 2.028 . S
Mg644 O651 1.986 . S
Mg644 O653 2.114 . S
Mg644 O654 2.251 . S
Mg644 O657 2.010 . S
O645 Mg644 2.028 . S
O645 C648 1.250 . S
O646 Mg647 2.028 . S
O646 C648 1.248 . S
Mg647 O646 2.028 . S
Mg647 O652 2.032 . S
Mg647 O654 2.079 . S
C648 O645 1.250 . S
C648 O646 1.248 . S
C649 O650 1.264 . S
C649 O657 1.249 . S
O650 C649 1.264 . S
O651 Mg644 1.986 . S
O651 C655 1.246 . S
O652 Mg647 2.032 . S
O652 C655 1.259 . S
O653 Mg644 2.114 . S
O653 C656 1.252 . S
O654 Mg644 2.251 . S
O654 Mg647 2.079 . S
O654 C656 1.273 . S
C655 O651 1.246 . S
C655 O652 1.259 . S
C656 O653 1.252 . S
C656 O654 1.273 . S
O657 Mg644 2.010 . S
O657 C649 1.249 . S
Mg658 O659 2.028 . S
Mg658 O665 1.986 . S
Mg658 O667 2.114 . S
Mg658 O668 2.251 . S
Mg658 O671 2.010 . S
O659 Mg658 2.028 . S
O659 C662 1.250 . S
O660 Mg661 2.028 . S
O660 C662 1.248 . S
Mg661 O660 2.028 . S
Mg661 O666 2.032 . S
Mg661 O668 2.079 . S
C662 O659 1.250 . S
C662 O660 1.248 . S
C663 O664 1.264 . S
C663 O671 1.249 . S
O664 C663 1.264 . S
O665 Mg658 1.986 . S
O665 C669 1.246 . S
O666 Mg661 2.032 . S
O666 C669 1.259 . S
O667 Mg658 2.114 . S
O667 C670 1.252 . S
O668 Mg658 2.251 . S
O668 Mg661 2.079 . S
O668 C670 1.273 . S
C669 O665 1.246 . S
C669 O666 1.259 . S
C670 O667 1.252 . S
C670 O668 1.273 . S
O671 Mg658 2.010 . S
O671 C663 1.249 . S
H672 C680 0.950 . S
H673 C685 0.950 . S
H674 C682 0.950 . S
H675 C684 0.950 . S
H676 C686 0.950 . S
H677 C688 0.950 . S
H678 C690 0.950 . S
H679 C691 0.950 . S
C680 H672 0.950 . S
C680 C681 1.386 . S
C680 C682 1.391 . S
C681 C680 1.386 . S
C681 C685 1.393 . S
C682 H674 0.950 . S
C682 C680 1.391 . S
C682 C683 1.400 . S
C683 C682 1.400 . S
C683 C684 1.398 . S
C683 C689 1.491 . S
C684 H675 0.950 . S
C684 C683 1.398 . S
C684 C685 1.391 . S
C685 H673 0.950 . S
C685 C681 1.393 . S
C685 C684 1.391 . S
C686 H676 0.950 . S
C686 C687 1.386 . S
C686 C688 1.391 . S
C687 C686 1.386 . S
C687 C691 1.393 . S
C688 H677 0.950 . S
C688 C686 1.391 . S
C688 C689 1.400 . S
C689 C683 1.491 . S
C689 C688 1.400 . S
C689 C690 1.398 . S
C690 H678 0.950 . S
C690 C689 1.398 . S
C690 C691 1.391 . S
C691 H679 0.950 . S
C691 C687 1.393 . S
C691 C690 1.391 . S
H692 C700 0.950 . S
H693 C705 0.950 . S
H694 C702 0.961 . S
H695 C704 0.950 1_655 S
H696 C706 0.950 . S
H697 C708 0.950 . S
H698 C710 0.950 . S
H699 C711 0.950 . S
C700 H692 0.950 . S
C700 C701 1.386 . S
C700 C702 1.391 . S
C701 C700 1.386 . S
C701 C705 1.393 . S
C702 H694 0.961 . S
C702 C700 1.391 . S
C702 C703 1.400 1_455 S
C703 C702 1.400 1_655 S
C703 C704 1.398 1_655 S
C703 C709 1.491 . S
C704 H695 0.950 1_455 S
C704 C703 1.398 1_455 S
C704 C705 1.391 . S
C705 H693 0.950 . S
C705 C701 1.393 . S
C705 C704 1.391 . S
C706 H696 0.950 . S
C706 C707 1.386 . S
C706 C708 1.391 . S
C707 C706 1.386 . S
C707 C711 1.393 . S
C708 H697 0.950 . S
C708 C706 1.391 . S
C708 C709 1.400 . S
C709 C703 1.491 . S
C709 C708 1.400 . S
C709 C710 1.398 . S
C710 H698 0.950 . S
C710 C709 1.398 . S
C710 C711 1.391 . S
C711 H699 0.950 . S
C711 C707 1.393 . S
C711 C710 1.391 . S
H712 C720 0.950 . S
H713 C725 0.950 . S
H714 C722 0.950 . S
H715 C724 0.950 . S
H716 C726 0.950 . S
H717 C728 0.950 . S
H718 C730 0.950 . S
H719 C731 0.950 . S
C720 H712 0.950 . S
C720 C721 1.386 . S
C720 C722 1.391 . S
C721 C720 1.386 . S
C721 C725 1.393 . S
C722 H714 0.950 . S
C722 C720 1.391 . S
C722 C723 1.400 . S
C723 C722 1.400 . S
C723 C724 1.398 . S
C723 C729 1.491 . S
C724 H715 0.950 . S
C724 C723 1.398 . S
C724 C725 1.391 . S
C725 H713 0.950 . S
C725 C721 1.393 . S
C725 C724 1.391 . S
C726 H716 0.950 . S
C726 C727 1.386 . S
C726 C728 1.391 . S
C727 C726 1.386 . S
C727 C731 1.393 . S
C728 H717 0.950 . S
C728 C726 1.391 . S
C728 C729 1.400 . S
C729 C723 1.491 . S
C729 C728 1.400 . S
C729 C730 1.398 . S
C730 H718 0.950 . S
C730 C729 1.398 . S
C730 C731 1.391 . S
C731 H719 0.950 . S
C731 C727 1.393 . S
C731 C730 1.391 . S
H732 C740 0.950 . S
H733 C745 0.950 . S
H734 C742 0.950 . S
H735 C744 0.950 . S
H736 C746 0.950 . S
H737 C748 0.950 . S
H738 C750 0.950 . S
H739 C751 0.950 . S
C740 H732 0.950 . S
C740 C741 1.386 . S
C740 C742 1.391 . S
C741 C740 1.386 . S
C741 C745 1.393 . S
C742 H734 0.950 . S
C742 C740 1.391 . S
C742 C743 1.400 . S
C743 C742 1.400 . S
C743 C744 1.398 . S
C743 C749 1.491 . S
C744 H735 0.950 . S
C744 C743 1.398 . S
C744 C745 1.391 . S
C745 H733 0.950 . S
C745 C741 1.393 . S
C745 C744 1.391 . S
C746 H736 0.950 . S
C746 C747 1.386 . S
C746 C748 1.391 . S
C747 C746 1.386 . S
C747 C751 1.393 . S
C748 H737 0.950 . S
C748 C746 1.391 . S
C748 C749 1.400 . S
C749 C743 1.491 . S
C749 C748 1.400 . S
C749 C750 1.398 . S
C750 H738 0.950 . S
C750 C749 1.398 . S
C750 C751 1.391 . S
C751 H739 0.950 . S
C751 C747 1.393 . S
C751 C750 1.391 . S
H752 C760 0.950 . S
H753 C765 0.950 . S
H754 C762 0.950 . S
H755 C764 0.950 . S
H756 C766 0.950 . S
H757 C768 0.950 . S
H758 C770 0.950 . S
H759 C771 0.950 . S
C760 H752 0.950 . S
C760 C761 1.386 . S
C760 C762 1.391 . S
C761 C760 1.386 . S
C761 C765 1.393 . S
C762 H754 0.950 . S
C762 C760 1.391 . S
C762 C763 1.400 . S
C763 C762 1.400 . S
C763 C764 1.398 . S
C763 C769 1.491 . S
C764 H755 0.950 . S
C764 C763 1.398 . S
C764 C765 1.391 . S
C765 H753 0.950 . S
C765 C761 1.393 . S
C765 C764 1.391 . S
C766 H756 0.950 . S
C766 C767 1.386 . S
C766 C768 1.391 . S
C767 C766 1.386 . S
C767 C771 1.393 . S
C768 H757 0.950 . S
C768 C766 1.391 . S
C768 C769 1.400 . S
C769 C763 1.491 . S
C769 C768 1.400 . S
C769 C770 1.398 . S
C770 H758 0.950 . S
C770 C769 1.398 . S
C770 C771 1.391 . S
C771 H759 0.950 . S
C771 C767 1.393 . S
C771 C770 1.391 . S
H772 C780 0.950 . S
H773 C785 0.950 . S
H774 C782 0.950 . S
H775 C784 0.950 . S
H776 C786 0.950 . S
H777 C788 0.950 . S
H778 C790 0.950 . S
H779 C791 0.950 . S
C780 H772 0.950 . S
C780 C781 1.386 . S
C780 C782 1.391 . S
C781 C780 1.386 . S
C781 C785 1.393 . S
C782 H774 0.950 . S
C782 C780 1.391 . S
C782 C783 1.400 . S
C783 C782 1.400 . S
C783 C784 1.398 . S
C783 C789 1.491 . S
C784 H775 0.950 . S
C784 C783 1.398 . S
C784 C785 1.391 . S
C785 H773 0.950 . S
C785 C781 1.393 . S
C785 C784 1.391 . S
C786 H776 0.950 . S
C786 C787 1.386 . S
C786 C788 1.391 . S
C787 C786 1.386 . S
C787 C791 1.393 . S
C788 H777 0.950 . S
C788 C786 1.391 . S
C788 C789 1.400 . S
C789 C783 1.491 . S
C789 C788 1.400 . S
C789 C790 1.398 . S
C790 H778 0.950 . S
C790 C789 1.398 . S
C790 C791 1.391 . S
C791 H779 0.950 . S
C791 C787 1.393 . S
C791 C790 1.391 . S
H792 C800 0.950 . S
H793 C805 0.950 . S
H794 C802 0.950 . S
H795 C804 0.950 . S
H796 C806 0.950 . S
H797 C808 0.950 . S
H798 C810 0.950 . S
H799 C811 0.950 . S
C800 H792 0.950 . S
C800 C801 1.386 . S
C800 C802 1.391 . S
C801 C800 1.386 . S
C801 C805 1.393 . S
C802 H794 0.950 . S
C802 C800 1.391 . S
C802 C803 1.400 . S
C803 C802 1.400 . S
C803 C804 1.398 . S
C803 C809 1.491 . S
C804 H795 0.950 . S
C804 C803 1.398 . S
C804 C805 1.391 . S
C805 H793 0.950 . S
C805 C801 1.393 . S
C805 C804 1.391 . S
C806 H796 0.950 . S
C806 C807 1.386 . S
C806 C808 1.391 . S
C807 C806 1.386 . S
C807 C811 1.393 . S
C808 H797 0.950 . S
C808 C806 1.391 . S
C808 C809 1.400 . S
C809 C803 1.491 . S
C809 C808 1.400 . S
C809 C810 1.398 . S
C810 H798 0.950 . S
C810 C809 1.398 . S
C810 C811 1.391 . S
C811 H799 0.950 . S
C811 C807 1.393 . S
C811 C810 1.391 . S
H812 C820 0.950 . S
H813 C825 0.950 . S
H814 C822 0.951 1_655 S
H815 C824 0.950 1_655 S
H816 C826 0.950 . S
H817 C828 0.950 . S
H818 C830 0.950 . S
H819 C831 0.950 . S
C820 H812 0.950 . S
C820 C821 1.386 . S
C820 C822 1.390 . S
C821 C820 1.386 . S
C821 C825 1.393 . S
C822 H814 0.951 1_455 S
C822 C820 1.390 . S
C822 C823 1.401 1_455 S
C823 C822 1.401 1_655 S
C823 C824 1.398 1_655 S
C823 C829 1.491 . S
C824 H815 0.950 1_455 S
C824 C823 1.398 1_455 S
C824 C825 1.391 . S
C825 H813 0.950 . S
C825 C821 1.393 . S
C825 C824 1.391 . S
C826 H816 0.950 . S
C826 C827 1.386 . S
C826 C828 1.391 . S
C827 C826 1.386 . S
C827 C831 1.393 . S
C828 H817 0.950 . S
C828 C826 1.391 . S
C828 C829 1.400 . S
C829 C823 1.491 . S
C829 C828 1.400 . S
C829 C830 1.398 . S
C830 H818 0.950 . S
C830 C829 1.398 . S
C830 C831 1.391 . S
C831 H819 0.950 . S
C831 C827 1.393 . S
C831 C830 1.391 . S
H832 C840 0.950 . S
H833 C845 0.950 . S
H834 C842 0.950 . S
H835 C844 0.950 . S
H836 C846 0.950 . S
H837 C848 0.950 . S
H838 C850 0.950 . S
H839 C851 0.950 . S
C840 H832 0.950 . S
C840 C841 1.386 . S
C840 C842 1.391 . S
C841 C840 1.386 . S
C841 C845 1.393 . S
C842 H834 0.950 . S
C842 C840 1.391 . S
C842 C843 1.400 . S
C843 C842 1.400 . S
C843 C844 1.398 . S
C843 C849 1.491 . S
C844 H835 0.950 . S
C844 C843 1.398 . S
C844 C845 1.391 . S
C845 H833 0.950 . S
C845 C841 1.393 . S
C845 C844 1.391 . S
C846 H836 0.950 . S
C846 C847 1.386 . S
C846 C848 1.391 . S
C847 C846 1.386 . S
C847 C851 1.393 . S
C848 H837 0.950 . S
C848 C846 1.391 . S
C848 C849 1.400 . S
C849 C843 1.491 . S
C849 C848 1.400 . S
C849 C850 1.398 . S
C850 H838 0.950 . S
C850 C849 1.398 . S
C850 C851 1.391 . S
C851 H839 0.950 . S
C851 C847 1.393 . S
C851 C850 1.391 . S
H852 C860 0.950 . S
H853 C865 0.950 . S
H854 C862 0.950 . S
H855 C864 0.950 . S
H856 C866 0.950 . S
H857 C868 0.950 . S
H858 C870 0.950 . S
H859 C871 0.950 . S
C860 H852 0.950 . S
C860 C861 1.386 . S
C860 C862 1.391 . S
C861 C860 1.386 . S
C861 C865 1.393 . S
C862 H854 0.950 . S
C862 C860 1.391 . S
C862 C863 1.400 . S
C863 C862 1.400 . S
C863 C864 1.398 . S
C863 C869 1.491 . S
C864 H855 0.950 . S
C864 C863 1.398 . S
C864 C865 1.391 . S
C865 H853 0.950 . S
C865 C861 1.393 . S
C865 C864 1.391 . S
C866 H856 0.950 . S
C866 C867 1.386 . S
C866 C868 1.391 . S
C867 C866 1.386 . S
C867 C871 1.393 . S
C868 H857 0.950 . S
C868 C866 1.391 . S
C868 C869 1.400 . S
C869 C863 1.491 . S
C869 C868 1.400 . S
C869 C870 1.398 . S
C870 H858 0.950 . S
C870 C869 1.398 . S
C870 C871 1.391 . S
C871 H859 0.950 . S
C871 C867 1.393 . S
C871 C870 1.391 . S
H872 C880 0.950 . S
H873 C885 0.950 . S
H874 C882 0.950 . S
H875 C884 0.950 . S
H876 C886 0.950 . S
H877 C888 0.950 . S
H878 C890 0.950 . S
H879 C891 0.950 . S
C880 H872 0.950 . S
C880 C881 1.386 . S
C880 C882 1.391 . S
C881 C880 1.386 . S
C881 C885 1.393 . S
C882 H874 0.950 . S
C882 C880 1.391 . S
C882 C883 1.400 . S
C883 C882 1.400 . S
C883 C884 1.398 . S
C883 C889 1.491 . S
C884 H875 0.950 . S
C884 C883 1.398 . S
C884 C885 1.391 . S
C885 H873 0.950 . S
C885 C881 1.393 . S
C885 C884 1.391 . S
C886 H876 0.950 . S
C886 C887 1.386 . S
C886 C888 1.391 . S
C887 C886 1.386 . S
C887 C891 1.393 . S
C888 H877 0.950 . S
C888 C886 1.391 . S
C888 C889 1.400 . S
C889 C883 1.491 . S
C889 C888 1.400 . S
C889 C890 1.398 . S
C890 H878 0.950 . S
C890 C889 1.398 . S
C890 C891 1.391 . S
C891 H879 0.950 . S
C891 C887 1.393 . S
C891 C890 1.391 . S
H892 C900 0.950 . S
H893 C905 0.950 . S
H894 C902 0.950 . S
H895 C904 0.950 . S
H896 C906 0.950 . S
H897 C908 0.950 . S
H898 C910 0.950 . S
H899 C911 0.950 . S
C900 H892 0.950 . S
C900 C901 1.386 . S
C900 C902 1.391 1_556 S
C901 C900 1.386 . S
C901 C905 1.393 . S
C902 H894 0.950 . S
C902 C900 1.391 1_554 S
C902 C903 1.400 . S
C903 C902 1.400 . S
C903 C904 1.398 . S
C903 C909 1.491 . S
C904 H895 0.950 . S
C904 C903 1.398 . S
C904 C905 1.391 1_554 S
C905 H893 0.950 . S
C905 C901 1.393 . S
C905 C904 1.391 1_556 S
C906 H896 0.950 . S
C906 C907 1.386 . S
C906 C908 1.391 . S
C907 C906 1.386 . S
C907 C911 1.393 . S
C908 H897 0.950 . S
C908 C906 1.391 . S
C908 C909 1.400 . S
C909 C903 1.491 . S
C909 C908 1.400 . S
C909 C910 1.398 . S
C910 H898 0.950 . S
C910 C909 1.398 . S
C910 C911 1.391 . S
C911 H899 0.950 . S
C911 C907 1.393 . S
C911 C910 1.391 . S
H912 C920 0.950 . S
H913 C925 0.950 . S
H914 C922 0.950 . S
H915 C924 0.950 . S
H916 C926 0.950 . S
H917 C928 0.950 . S
H918 C930 0.950 . S
H919 C931 0.950 . S
C920 H912 0.950 . S
C920 C921 1.386 . S
C920 C922 1.391 . S
C921 C920 1.386 . S
C921 C925 1.393 . S
C922 H914 0.950 . S
C922 C920 1.391 . S
C922 C923 1.400 . S
C923 C922 1.400 . S
C923 C924 1.398 . S
C923 C929 1.491 . S
C924 H915 0.950 . S
C924 C923 1.398 . S
C924 C925 1.391 . S
C925 H913 0.950 . S
C925 C921 1.393 . S
C925 C924 1.391 . S
C926 H916 0.950 . S
C926 C927 1.386 . S
C926 C928 1.391 . S
C927 C926 1.386 . S
C927 C931 1.393 . S
C928 H917 0.950 . S
C928 C926 1.391 . S
C928 C929 1.400 . S
C929 C923 1.491 . S
C929 C928 1.400 . S
C929 C930 1.398 . S
C930 H918 0.950 . S
C930 C929 1.398 . S
C930 C931 1.391 . S
C931 H919 0.950 . S
C931 C927 1.393 . S
C931 C930 1.391 . S
H932 C940 0.950 . S
H933 C945 0.950 . S
H934 C942 0.950 . S
H935 C944 0.950 . S
H936 C946 0.950 . S
H937 C948 0.950 . S
H938 C950 0.950 . S
H939 C951 0.950 . S
C940 H932 0.950 . S
C940 C941 1.386 . S
C940 C942 1.391 . S
C941 C940 1.386 . S
C941 C945 1.393 . S
C942 H934 0.950 . S
C942 C940 1.391 . S
C942 C943 1.400 . S
C943 C942 1.400 . S
C943 C944 1.398 . S
C943 C949 1.491 . S
C944 H935 0.950 . S
C944 C943 1.398 . S
C944 C945 1.391 . S
C945 H933 0.950 . S
C945 C941 1.393 . S
C945 C944 1.391 . S
C946 H936 0.950 . S
C946 C947 1.386 . S
C946 C948 1.391 . S
C947 C946 1.386 . S
C947 C951 1.393 . S
C948 H937 0.950 . S
C948 C946 1.391 . S
C948 C949 1.400 . S
C949 C943 1.491 . S
C949 C948 1.400 . S
C949 C950 1.398 . S
C950 H938 0.950 . S
C950 C949 1.398 . S
C950 C951 1.391 . S
C951 H939 0.950 . S
C951 C947 1.393 . S
C951 C950 1.391 . S
H952 C960 0.950 . S
H953 C965 0.950 . S
H954 C962 0.950 . S
H955 C964 0.950 . S
H956 C966 0.950 . S
H957 C968 0.950 . S
H958 C970 0.950 . S
H959 C971 0.950 . S
C960 H952 0.950 . S
C960 C961 1.386 . S
C960 C962 1.391 . S
C961 C960 1.386 . S
C961 C965 1.393 . S
C962 H954 0.950 . S
C962 C960 1.391 . S
C962 C963 1.400 . S
C963 C962 1.400 . S
C963 C964 1.398 . S
C963 C969 1.491 . S
C964 H955 0.950 . S
C964 C963 1.398 . S
C964 C965 1.391 . S
C965 H953 0.950 . S
C965 C961 1.393 . S
C965 C964 1.391 . S
C966 H956 0.950 . S
C966 C967 1.386 . S
C966 C968 1.391 . S
C967 C966 1.386 . S
C967 C971 1.393 . S
C968 H957 0.950 . S
C968 C966 1.391 . S
C968 C969 1.400 . S
C969 C963 1.491 . S
C969 C968 1.400 . S
C969 C970 1.398 . S
C970 H958 0.950 . S
C970 C969 1.398 . S
C970 C971 1.391 . S
C971 H959 0.950 . S
C971 C967 1.393 . S
C971 C970 1.391 . S
H972 C980 0.950 . S
H973 C985 0.950 . S
H974 C982 0.950 . S
H975 C984 0.950 . S
H976 C986 0.950 . S
H977 C988 0.950 . S
H978 C990 0.950 . S
H979 C991 0.950 . S
C980 H972 0.950 . S
C980 C981 1.386 . S
C980 C982 1.391 1_554 S
C981 C980 1.386 . S
C981 C985 1.393 . S
C982 H974 0.950 . S
C982 C980 1.391 1_556 S
C982 C983 1.400 . S
C983 C982 1.400 . S
C983 C984 1.398 . S
C983 C989 1.491 . S
C984 H975 0.950 . S
C984 C983 1.398 . S
C984 C985 1.391 1_556 S
C985 H973 0.950 . S
C985 C981 1.393 . S
C985 C984 1.391 1_554 S
C986 H976 0.950 . S
C986 C987 1.386 . S
C986 C988 1.391 . S
C987 C986 1.386 . S
C987 C991 1.393 . S
C988 H977 0.950 . S
C988 C986 1.391 . S
C988 C989 1.400 . S
C989 C983 1.491 . S
C989 C988 1.400 . S
C989 C990 1.398 . S
C990 H978 0.950 . S
C990 C989 1.398 . S
C990 C991 1.391 . S
C991 H979 0.950 . S
C991 C987 1.393 . S
C991 C990 1.391 . S
H992 C1000 0.950 . S
H993 C1005 0.950 . S
H994 C1002 0.950 . S
H995 C1004 0.950 . S
H996 C1006 0.950 . S
H997 C1008 0.950 . S
H998 C1010 0.950 . S
H999 C1011 0.950 . S
C1000 H992 0.950 . S
C1000 C1001 1.386 . S
C1000 C1002 1.391 . S
C1001 C1000 1.386 . S
C1001 C1005 1.393 . S
C1002 H994 0.950 . S
C1002 C1000 1.391 . S
C1002 C1003 1.400 . S
C1003 C1002 1.400 . S
C1003 C1004 1.398 . S
C1003 C1009 1.491 . S
C1004 H995 0.950 . S
C1004 C1003 1.398 . S
C1004 C1005 1.391 . S
C1005 H993 0.950 . S
C1005 C1001 1.393 . S
C1005 C1004 1.391 . S
C1006 H996 0.950 . S
C1006 C1007 1.386 . S
C1006 C1008 1.391 . S
C1007 C1006 1.386 . S
C1007 C1011 1.393 . S
C1008 H997 0.950 . S
C1008 C1006 1.391 . S
C1008 C1009 1.400 . S
C1009 C1003 1.491 . S
C1009 C1008 1.400 . S
C1009 C1010 1.398 . S
C1010 H998 0.950 . S
C1010 C1009 1.398 . S
C1010 C1011 1.391 . S
C1011 H999 0.950 . S
C1011 C1007 1.393 . S
C1011 C1010 1.391 . S
H1012 C1020 0.950 . S
H1013 C1025 0.950 . S
H1014 C1022 0.950 . S
H1015 C1024 0.950 . S
H1016 C1026 0.950 . S
H1017 C1028 0.950 . S
H1018 C1030 0.950 . S
H1019 C1031 0.950 . S
C1020 H1012 0.950 . S
C1020 C1021 1.386 . S
C1020 C1022 1.391 . S
C1021 C1020 1.386 . S
C1021 C1025 1.393 . S
C1022 H1014 0.950 . S
C1022 C1020 1.391 . S
C1022 C1023 1.400 . S
C1023 C1022 1.400 . S
C1023 C1024 1.398 . S
C1023 C1029 1.491 . S
C1024 H1015 0.950 . S
C1024 C1023 1.398 . S
C1024 C1025 1.391 . S
C1025 H1013 0.950 . S
C1025 C1021 1.393 . S
C1025 C1024 1.391 . S
C1026 H1016 0.950 . S
C1026 C1027 1.386 . S
C1026 C1028 1.391 . S
C1027 C1026 1.386 . S
C1027 C1031 1.393 . S
C1028 H1017 0.950 . S
C1028 C1026 1.391 . S
C1028 C1029 1.400 . S
C1029 C1023 1.491 . S
C1029 C1028 1.400 . S
C1029 C1030 1.398 . S
C1030 H1018 0.950 . S
C1030 C1029 1.398 . S
C1030 C1031 1.391 . S
C1031 H1019 0.950 . S
C1031 C1027 1.393 . S
C1031 C1030 1.391 . S
H1032 C1040 0.950 . S
H1033 C1045 0.950 . S
H1034 C1042 0.950 . S
H1035 C1044 0.950 . S
H1036 C1046 0.950 . S
H1037 C1048 0.950 . S
H1038 C1050 0.950 . S
H1039 C1051 0.950 . S
C1040 H1032 0.950 . S
C1040 C1041 1.386 . S
C1040 C1042 1.391 . S
C1041 C1040 1.386 . S
C1041 C1045 1.393 . S
C1042 H1034 0.950 . S
C1042 C1040 1.391 . S
C1042 C1043 1.400 . S
C1043 C1042 1.400 . S
C1043 C1044 1.398 . S
C1043 C1049 1.491 . S
C1044 H1035 0.950 . S
C1044 C1043 1.398 . S
C1044 C1045 1.391 . S
C1045 H1033 0.950 . S
C1045 C1041 1.393 . S
C1045 C1044 1.391 . S
C1046 H1036 0.950 . S
C1046 C1047 1.386 . S
C1046 C1048 1.391 . S
C1047 C1046 1.386 . S
C1047 C1051 1.393 . S
C1048 H1037 0.950 . S
C1048 C1046 1.391 . S
C1048 C1049 1.400 . S
C1049 C1043 1.491 . S
C1049 C1048 1.400 . S
C1049 C1050 1.398 . S
C1050 H1038 0.950 . S
C1050 C1049 1.398 . S
C1050 C1051 1.391 . S
C1051 H1039 0.950 . S
C1051 C1047 1.393 . S
C1051 C1050 1.391 . S
H1052 C1060 0.950 . S
H1053 C1065 0.950 . S
H1054 C1062 0.950 . S
H1055 C1064 0.950 . S
H1056 C1066 0.950 . S
H1057 C1068 0.950 . S
H1058 C1070 0.950 . S
H1059 C1071 0.950 . S
C1060 H1052 0.950 . S
C1060 C1061 1.386 . S
C1060 C1062 1.391 . S
C1061 C1060 1.386 . S
C1061 C1065 1.393 . S
C1062 H1054 0.950 . S
C1062 C1060 1.391 . S
C1062 C1063 1.400 . S
C1063 C1062 1.400 . S
C1063 C1064 1.398 . S
C1063 C1069 1.491 . S
C1064 H1055 0.950 . S
C1064 C1063 1.398 . S
C1064 C1065 1.391 . S
C1065 H1053 0.950 . S
C1065 C1061 1.393 . S
C1065 C1064 1.391 . S
C1066 H1056 0.950 . S
C1066 C1067 1.386 . S
C1066 C1068 1.391 . S
C1067 C1066 1.386 . S
C1067 C1071 1.393 . S
C1068 H1057 0.950 . S
C1068 C1066 1.391 . S
C1068 C1069 1.400 . S
C1069 C1063 1.491 . S
C1069 C1068 1.400 . S
C1069 C1070 1.398 . S
C1070 H1058 0.950 . S
C1070 C1069 1.398 . S
C1070 C1071 1.391 . S
C1071 H1059 0.950 . S
C1071 C1067 1.393 . S
C1071 C1070 1.391 . S
H1072 C1080 0.950 . S
H1073 C1085 0.950 . S
H1074 C1082 0.950 . S
H1075 C1084 0.950 . S
H1076 C1086 0.950 . S
H1077 C1088 0.950 . S
H1078 C1090 0.950 . S
H1079 C1091 0.950 . S
C1080 H1072 0.950 . S
C1080 C1081 1.386 . S
C1080 C1082 1.391 . S
C1081 C1080 1.386 . S
C1081 C1085 1.393 . S
C1082 H1074 0.950 . S
C1082 C1080 1.391 . S
C1082 C1083 1.400 . S
C1083 C1082 1.400 . S
C1083 C1084 1.398 . S
C1083 C1089 1.491 . S
C1084 H1075 0.950 . S
C1084 C1083 1.398 . S
C1084 C1085 1.391 . S
C1085 H1073 0.950 . S
C1085 C1081 1.393 . S
C1085 C1084 1.391 . S
C1086 H1076 0.950 . S
C1086 C1087 1.386 . S
C1086 C1088 1.391 1_545 S
C1087 C1086 1.386 . S
C1087 C1091 1.393 . S
C1088 H1077 0.950 . S
C1088 C1086 1.391 1_565 S
C1088 C1089 1.400 . S
C1089 C1083 1.491 . S
C1089 C1088 1.400 . S
C1089 C1090 1.398 . S
C1090 H1078 0.950 . S
C1090 C1089 1.398 . S
C1090 C1091 1.391 1_565 S
C1091 H1079 0.950 . S
C1091 C1087 1.393 . S
C1091 C1090 1.391 1_545 S
H1092 C1100 0.950 . S
H1093 C1105 0.950 . S
H1094 C1102 0.950 . S
H1095 C1104 0.950 . S
H1096 C1106 0.950 . S
H1097 C1108 0.950 . S
H1098 C1110 0.950 . S
H1099 C1111 0.950 . S
C1100 H1092 0.950 . S
C1100 C1101 1.386 . S
C1100 C1102 1.391 . S
C1101 C1100 1.386 . S
C1101 C1105 1.393 . S
C1102 H1094 0.950 . S
C1102 C1100 1.391 . S
C1102 C1103 1.400 . S
C1103 C1102 1.400 . S
C1103 C1104 1.398 . S
C1103 C1109 1.491 . S
C1104 H1095 0.950 . S
C1104 C1103 1.398 . S
C1104 C1105 1.391 . S
C1105 H1093 0.950 . S
C1105 C1101 1.393 . S
C1105 C1104 1.391 . S
C1106 H1096 0.950 . S
C1106 C1107 1.386 . S
C1106 C1108 1.391 . S
C1107 C1106 1.386 . S
C1107 C1111 1.393 . S
C1108 H1097 0.950 . S
C1108 C1106 1.391 . S
C1108 C1109 1.400 . S
C1109 C1103 1.491 . S
C1109 C1108 1.400 . S
C1109 C1110 1.398 . S
C1110 H1098 0.950 . S
C1110 C1109 1.398 . S
C1110 C1111 1.391 . S
C1111 H1099 0.950 . S
C1111 C1107 1.393 . S
C1111 C1110 1.391 . S
H1112 C1120 0.950 . S
H1113 C1125 0.950 . S
H1114 C1122 0.950 . S
H1115 C1124 0.950 . S
H1116 C1126 0.950 . S
H1117 C1128 0.950 . S
H1118 C1130 0.950 . S
H1119 C1131 0.950 . S
C1120 H1112 0.950 . S
C1120 C1121 1.386 . S
C1120 C1122 1.391 . S
C1121 C1120 1.386 . S
C1121 C1125 1.393 . S
C1122 H1114 0.950 . S
C1122 C1120 1.391 . S
C1122 C1123 1.400 . S
C1123 C1122 1.400 . S
C1123 C1124 1.398 . S
C1123 C1129 1.491 . S
C1124 H1115 0.950 . S
C1124 C1123 1.398 . S
C1124 C1125 1.391 . S
C1125 H1113 0.950 . S
C1125 C1121 1.393 . S
C1125 C1124 1.391 . S
C1126 H1116 0.950 . S
C1126 C1127 1.386 . S
C1126 C1128 1.391 . S
C1127 C1126 1.386 . S
C1127 C1131 1.393 . S
C1128 H1117 0.950 . S
C1128 C1126 1.391 . S
C1128 C1129 1.400 . S
C1129 C1123 1.491 . S
C1129 C1128 1.400 . S
C1129 C1130 1.398 . S
C1130 H1118 0.950 . S
C1130 C1129 1.398 . S
C1130 C1131 1.391 . S
C1131 H1119 0.950 . S
C1131 C1127 1.393 . S
C1131 C1130 1.391 . S
H1132 C1140 0.950 . S
H1133 C1145 0.950 . S
H1134 C1142 0.950 . S
H1135 C1144 0.950 . S
H1136 C1146 0.950 . S
H1137 C1148 0.950 . S
H1138 C1150 0.950 . S
H1139 C1151 0.950 . S
C1140 H1132 0.950 . S
C1140 C1141 1.386 . S
C1140 C1142 1.391 . S
C1141 C1140 1.386 . S
C1141 C1145 1.393 . S
C1142 H1134 0.950 . S
C1142 C1140 1.391 . S
C1142 C1143 1.400 . S
C1143 C1142 1.400 . S
C1143 C1144 1.398 . S
C1143 C1149 1.491 . S
C1144 H1135 0.950 . S
C1144 C1143 1.398 . S
C1144 C1145 1.391 . S
C1145 H1133 0.950 . S
C1145 C1141 1.393 . S
C1145 C1144 1.391 . S
C1146 H1136 0.950 . S
C1146 C1147 1.386 . S
C1146 C1148 1.391 . S
C1147 C1146 1.386 . S
C1147 C1151 1.393 . S
C1148 H1137 0.950 . S
C1148 C1146 1.391 . S
C1148 C1149 1.400 . S
C1149 C1143 1.491 . S
C1149 C1148 1.400 . S
C1149 C1150 1.398 . S
C1150 H1138 0.950 . S
C1150 C1149 1.398 . S
C1150 C1151 1.391 . S
C1151 H1139 0.950 . S
C1151 C1147 1.393 . S
C1151 C1150 1.391 . S
H1152 C1160 0.950 . S
H1153 C1165 0.950 . S
H1154 C1162 0.950 . S
H1155 C1164 0.950 . S
H1156 C1166 0.950 . S
H1157 C1168 0.950 . S
H1158 C1170 0.950 . S
H1159 C1171 0.950 . S
C1160 H1152 0.950 . S
C1160 C1161 1.386 . S
C1160 C1162 1.391 . S
C1161 C1160 1.386 . S
C1161 C1165 1.393 . S
C1162 H1154 0.950 . S
C1162 C1160 1.391 . S
C1162 C1163 1.400 . S
C1163 C1162 1.400 . S
C1163 C1164 1.398 . S
C1163 C1169 1.491 . S
C1164 H1155 0.950 . S
C1164 C1163 1.398 . S
C1164 C1165 1.391 . S
C1165 H1153 0.950 . S
C1165 C1161 1.393 . S
C1165 C1164 1.391 . S
C1166 H1156 0.950 . S
C1166 C1167 1.386 . S
C1166 C1168 1.391 . S
C1167 C1166 1.386 . S
C1167 C1171 1.393 . S
C1168 H1157 0.950 . S
C1168 C1166 1.391 . S
C1168 C1169 1.400 . S
C1169 C1163 1.491 . S
C1169 C1168 1.400 . S
C1169 C1170 1.398 . S
C1170 H1158 0.950 . S
C1170 C1169 1.398 . S
C1170 C1171 1.391 . S
C1171 H1159 0.950 . S
C1171 C1167 1.393 . S
C1171 C1170 1.391 . S
H1172 C1180 0.950 . S
H1173 C1185 0.950 . S
H1174 C1182 0.950 . S
H1175 C1184 0.950 . S
H1176 C1186 0.950 . S
H1177 C1188 0.950 . S
H1178 C1190 0.950 . S
H1179 C1191 0.950 . S
C1180 H1172 0.950 . S
C1180 C1181 1.386 . S
C1180 C1182 1.391 1_655 S
C1181 C1180 1.386 . S
C1181 C1185 1.393 . S
C1182 H1174 0.950 . S
C1182 C1180 1.391 1_455 S
C1182 C1183 1.400 . S
C1183 C1182 1.400 . S
C1183 C1184 1.398 . S
C1183 C1189 1.491 . S
C1184 H1175 0.950 . S
C1184 C1183 1.398 . S
C1184 C1185 1.391 1_455 S
C1185 H1173 0.950 . S
C1185 C1181 1.393 . S
C1185 C1184 1.391 1_655 S
C1186 H1176 0.950 . S
C1186 C1187 1.386 . S
C1186 C1188 1.391 . S
C1187 C1186 1.386 . S
C1187 C1191 1.393 . S
C1188 H1177 0.950 . S
C1188 C1186 1.391 . S
C1188 C1189 1.400 . S
C1189 C1183 1.491 . S
C1189 C1188 1.400 . S
C1189 C1190 1.398 . S
C1190 H1178 0.950 . S
C1190 C1189 1.398 . S
C1190 C1191 1.391 . S
C1191 H1179 0.950 . S
C1191 C1187 1.393 . S
C1191 C1190 1.391 . S
H1192 C1200 0.950 . S
H1193 C1205 0.950 . S
H1194 C1202 0.950 . S
H1195 C1204 0.950 . S
H1196 C1206 0.950 . S
H1197 C1208 0.950 . S
H1198 C1210 0.950 . S
H1199 C1211 0.950 . S
C1200 H1192 0.950 . S
C1200 C1201 1.386 . S
C1200 C1202 1.391 . S
C1201 C1200 1.386 . S
C1201 C1205 1.393 . S
C1202 H1194 0.950 . S
C1202 C1200 1.391 . S
C1202 C1203 1.400 . S
C1203 C1202 1.400 . S
C1203 C1204 1.398 . S
C1203 C1209 1.491 . S
C1204 H1195 0.950 . S
C1204 C1203 1.398 . S
C1204 C1205 1.391 . S
C1205 H1193 0.950 . S
C1205 C1201 1.393 . S
C1205 C1204 1.391 . S
C1206 H1196 0.950 . S
C1206 C1207 1.386 . S
C1206 C1208 1.391 . S
C1207 C1206 1.386 . S
C1207 C1211 1.393 . S
C1208 H1197 0.950 . S
C1208 C1206 1.391 . S
C1208 C1209 1.400 . S
C1209 C1203 1.491 . S
C1209 C1208 1.400 . S
C1209 C1210 1.398 . S
C1210 H1198 0.950 . S
C1210 C1209 1.398 . S
C1210 C1211 1.391 . S
C1211 H1199 0.950 . S
C1211 C1207 1.393 . S
C1211 C1210 1.391 . S
H1212 C1220 0.950 . S
H1213 C1225 0.950 . S
H1214 C1222 0.950 . S
H1215 C1224 0.950 . S
H1216 C1226 0.950 . S
H1217 C1228 0.950 . S
H1218 C1230 0.950 . S
H1219 C1231 0.950 . S
C1220 H1212 0.950 . S
C1220 C1221 1.386 . S
C1220 C1222 1.391 . S
C1221 C1220 1.386 . S
C1221 C1225 1.393 . S
C1222 H1214 0.950 . S
C1222 C1220 1.391 . S
C1222 C1223 1.400 . S
C1223 C1222 1.400 . S
C1223 C1224 1.398 . S
C1223 C1229 1.491 . S
C1224 H1215 0.950 . S
C1224 C1223 1.398 . S
C1224 C1225 1.391 . S
C1225 H1213 0.950 . S
C1225 C1221 1.393 . S
C1225 C1224 1.391 . S
C1226 H1216 0.950 . S
C1226 C1227 1.386 . S
C1226 C1228 1.391 . S
C1227 C1226 1.386 . S
C1227 C1231 1.393 . S
C1228 H1217 0.950 . S
C1228 C1226 1.391 . S
C1228 C1229 1.400 . S
C1229 C1223 1.491 . S
C1229 C1228 1.400 . S
C1229 C1230 1.398 . S
C1230 H1218 0.950 . S
C1230 C1229 1.398 . S
C1230 C1231 1.391 . S
C1231 H1219 0.950 . S
C1231 C1227 1.393 . S
C1231 C1230 1.391 . S
H1232 C1240 0.950 . S
H1233 C1245 0.950 . S
H1234 C1242 0.950 . S
H1235 C1244 0.950 . S
H1236 C1246 0.950 . S
H1237 C1248 0.950 . S
H1238 C1250 0.950 . S
H1239 C1251 0.950 . S
C1240 H1232 0.950 . S
C1240 C1241 1.386 . S
C1240 C1242 1.391 . S
C1241 C1240 1.386 . S
C1241 C1245 1.393 . S
C1242 H1234 0.950 . S
C1242 C1240 1.391 . S
C1242 C1243 1.400 . S
C1243 C1242 1.400 . S
C1243 C1244 1.398 . S
C1243 C1249 1.491 . S
C1244 H1235 0.950 . S
C1244 C1243 1.398 . S
C1244 C1245 1.391 . S
C1245 H1233 0.950 . S
C1245 C1241 1.393 . S
C1245 C1244 1.391 . S
C1246 H1236 0.950 . S
C1246 C1247 1.386 . S
C1246 C1248 1.391 . S
C1247 C1246 1.386 . S
C1247 C1251 1.393 . S
C1248 H1237 0.950 . S
C1248 C1246 1.391 . S
C1248 C1249 1.400 . S
C1249 C1243 1.491 . S
C1249 C1248 1.400 . S
C1249 C1250 1.398 . S
C1250 H1238 0.950 . S
C1250 C1249 1.398 . S
C1250 C1251 1.391 . S
C1251 H1239 0.950 . S
C1251 C1247 1.393 . S
C1251 C1250 1.391 . S
H1252 C1260 0.950 . S
H1253 C1265 0.950 . S
H1254 C1262 0.950 . S
H1255 C1264 0.950 . S
H1256 C1266 0.950 . S
H1257 C1268 0.950 . S
H1258 C1270 0.950 . S
H1259 C1271 0.950 . S
C1260 H1252 0.950 . S
C1260 C1261 1.386 . S
C1260 C1262 1.391 . S
C1261 C1260 1.386 . S
C1261 C1265 1.393 . S
C1262 H1254 0.950 . S
C1262 C1260 1.391 . S
C1262 C1263 1.400 . S
C1263 C1262 1.400 . S
C1263 C1264 1.398 . S
C1263 C1269 1.491 . S
C1264 H1255 0.950 . S
C1264 C1263 1.398 . S
C1264 C1265 1.391 . S
C1265 H1253 0.950 . S
C1265 C1261 1.393 . S
C1265 C1264 1.391 . S
C1266 H1256 0.950 . S
C1266 C1267 1.386 . S
C1266 C1268 1.391 . S
C1267 C1266 1.386 . S
C1267 C1271 1.393 . S
C1268 H1257 0.950 . S
C1268 C1266 1.391 . S
C1268 C1269 1.400 . S
C1269 C1263 1.491 . S
C1269 C1268 1.400 . S
C1269 C1270 1.398 . S
C1270 H1258 0.950 . S
C1270 C1269 1.398 . S
C1270 C1271 1.391 . S
C1271 H1259 0.950 . S
C1271 C1267 1.393 . S
C1271 C1270 1.391 . S
H1272 C1280 0.950 . S
H1273 C1285 0.950 . S
H1274 C1282 0.950 . S
H1275 C1284 0.950 . S
H1276 C1286 0.950 . S
H1277 C1288 0.950 . S
H1278 C1290 0.950 . S
H1279 C1291 0.950 . S
C1280 H1272 0.950 . S
C1280 C1281 1.386 . S
C1280 C1282 1.391 . S
C1281 C1280 1.386 . S
C1281 C1285 1.393 . S
C1282 H1274 0.950 . S
C1282 C1280 1.391 . S
C1282 C1283 1.400 . S
C1283 C1282 1.400 . S
C1283 C1284 1.398 . S
C1283 C1289 1.491 . S
C1284 H1275 0.950 . S
C1284 C1283 1.398 . S
C1284 C1285 1.391 . S
C1285 H1273 0.950 . S
C1285 C1281 1.393 . S
C1285 C1284 1.391 . S
C1286 H1276 0.950 . S
C1286 C1287 1.386 . S
C1286 C1288 1.391 . S
C1287 C1286 1.386 . S
C1287 C1291 1.393 . S
C1288 H1277 0.950 . S
C1288 C1286 1.391 . S
C1288 C1289 1.400 . S
C1289 C1283 1.491 . S
C1289 C1288 1.400 . S
C1289 C1290 1.398 . S
C1290 H1278 0.950 . S
C1290 C1289 1.398 . S
C1290 C1291 1.391 . S
C1291 H1279 0.950 . S
C1291 C1287 1.393 . S
C1291 C1290 1.391 . S
H1292 C1300 0.950 . S
H1293 C1305 0.950 . S
H1294 C1302 0.950 . S
H1295 C1304 0.950 . S
H1296 C1306 0.950 . S
H1297 C1308 0.950 . S
H1298 C1310 0.954 . S
H1299 C1311 0.950 . S
C1300 H1292 0.950 . S
C1300 C1301 1.386 . S
C1300 C1302 1.391 . S
C1301 C1300 1.386 . S
C1301 C1305 1.393 . S
C1302 H1294 0.950 . S
C1302 C1300 1.391 . S
C1302 C1303 1.400 . S
C1303 C1302 1.400 . S
C1303 C1304 1.398 . S
C1303 C1309 1.491 . S
C1304 H1295 0.950 . S
C1304 C1303 1.398 . S
C1304 C1305 1.391 . S
C1305 H1293 0.950 . S
C1305 C1301 1.393 . S
C1305 C1304 1.391 . S
C1306 H1296 0.950 . S
C1306 C1307 1.386 . S
C1306 C1308 1.391 1_655 S
C1307 C1306 1.386 . S
C1307 C1311 1.393 . S
C1308 H1297 0.950 . S
C1308 C1306 1.391 1_455 S
C1308 C1309 1.400 . S
C1309 C1303 1.491 . S
C1309 C1308 1.400 . S
C1309 C1310 1.398 1_455 S
C1310 H1298 0.954 . S
C1310 C1309 1.398 1_655 S
C1310 C1311 1.391 . S
C1311 H1299 0.950 . S
C1311 C1307 1.393 . S
C1311 C1310 1.391 . S
H1312 C1320 0.950 . S
H1313 C1325 0.950 . S
H1314 C1322 0.950 . S
H1315 C1324 0.950 . S
H1316 C1326 0.950 . S
H1317 C1328 0.950 . S
H1318 C1330 0.950 . S
H1319 C1331 0.950 . S
C1320 H1312 0.950 . S
C1320 C1321 1.386 . S
C1320 C1322 1.391 . S
C1321 C1320 1.386 . S
C1321 C1325 1.393 . S
C1322 H1314 0.950 . S
C1322 C1320 1.391 . S
C1322 C1323 1.400 . S
C1323 C1322 1.400 . S
C1323 C1324 1.398 . S
C1323 C1329 1.491 . S
C1324 H1315 0.950 . S
C1324 C1323 1.398 . S
C1324 C1325 1.391 . S
C1325 H1313 0.950 . S
C1325 C1321 1.393 . S
C1325 C1324 1.391 . S
C1326 H1316 0.950 . S
C1326 C1327 1.386 . S
C1326 C1328 1.391 . S
C1327 C1326 1.386 . S
C1327 C1331 1.393 . S
C1328 H1317 0.950 . S
C1328 C1326 1.391 . S
C1328 C1329 1.400 . S
C1329 C1323 1.491 . S
C1329 C1328 1.400 . S
C1329 C1330 1.398 . S
C1330 H1318 0.950 . S
C1330 C1329 1.398 . S
C1330 C1331 1.391 . S
C1331 H1319 0.950 . S
C1331 C1327 1.393 . S
C1331 C1330 1.391 . S
H1332 C1340 0.950 . S
H1333 C1345 0.950 . S
H1334 C1342 0.950 . S
H1335 C1344 0.950 . S
H1336 C1346 0.950 . S
H1337 C1348 0.950 . S
H1338 C1350 0.950 . S
H1339 C1351 0.950 . S
C1340 H1332 0.950 . S
C1340 C1341 1.386 . S
C1340 C1342 1.391 . S
C1341 C1340 1.386 . S
C1341 C1345 1.393 . S
C1342 H1334 0.950 . S
C1342 C1340 1.391 . S
C1342 C1343 1.400 . S
C1343 C1342 1.400 . S
C1343 C1344 1.398 . S
C1343 C1349 1.491 . S
C1344 H1335 0.950 . S
C1344 C1343 1.398 . S
C1344 C1345 1.391 . S
C1345 H1333 0.950 . S
C1345 C1341 1.393 . S
C1345 C1344 1.391 . S
C1346 H1336 0.950 . S
C1346 C1347 1.386 . S
C1346 C1348 1.391 . S
C1347 C1346 1.386 . S
C1347 C1351 1.393 . S
C1348 H1337 0.950 . S
C1348 C1346 1.391 . S
C1348 C1349 1.400 . S
C1349 C1343 1.491 . S
C1349 C1348 1.400 . S
C1349 C1350 1.398 . S
C1350 H1338 0.950 . S
C1350 C1349 1.398 . S
C1350 C1351 1.391 . S
C1351 H1339 0.950 . S
C1351 C1347 1.393 . S
C1351 C1350 1.391 . S
H1352 C1360 0.950 . S
H1353 C1365 0.950 . S
H1354 C1362 0.950 . S
H1355 C1364 0.950 . S
H1356 C1366 0.950 . S
H1357 C1368 0.950 . S
H1358 C1370 0.950 . S
H1359 C1371 0.950 . S
C1360 H1352 0.950 . S
C1360 C1361 1.386 . S
C1360 C1362 1.391 . S
C1361 C1360 1.386 . S
C1361 C1365 1.393 . S
C1362 H1354 0.950 . S
C1362 C1360 1.391 . S
C1362 C1363 1.400 . S
C1363 C1362 1.400 . S
C1363 C1364 1.398 . S
C1363 C1369 1.491 . S
C1364 H1355 0.950 . S
C1364 C1363 1.398 . S
C1364 C1365 1.391 . S
C1365 H1353 0.950 . S
C1365 C1361 1.393 . S
C1365 C1364 1.391 . S
C1366 H1356 0.950 . S
C1366 C1367 1.386 . S
C1366 C1368 1.391 . S
C1367 C1366 1.386 . S
C1367 C1371 1.393 . S
C1368 H1357 0.950 . S
C1368 C1366 1.391 . S
C1368 C1369 1.400 . S
C1369 C1363 1.491 . S
C1369 C1368 1.400 . S
C1369 C1370 1.398 . S
C1370 H1358 0.950 . S
C1370 C1369 1.398 . S
C1370 C1371 1.391 . S
C1371 H1359 0.950 . S
C1371 C1367 1.393 . S
C1371 C1370 1.391 . S
H1372 C1380 0.950 . S
H1373 C1385 0.950 . S
H1374 C1382 0.950 . S
H1375 C1384 0.950 . S
H1376 C1386 0.950 . S
H1377 C1388 0.950 . S
H1378 C1390 0.950 . S
H1379 C1391 0.950 . S
C1380 H1372 0.950 . S
C1380 C1381 1.386 . S
C1380 C1382 1.391 . S
C1381 C1380 1.386 . S
C1381 C1385 1.393 . S
C1382 H1374 0.950 . S
C1382 C1380 1.391 . S
C1382 C1383 1.400 . S
C1383 C1382 1.400 . S
C1383 C1384 1.398 . S
C1383 C1389 1.491 . S
C1384 H1375 0.950 . S
C1384 C1383 1.398 . S
C1384 C1385 1.391 . S
C1385 H1373 0.950 . S
C1385 C1381 1.393 . S
C1385 C1384 1.391 . S
C1386 H1376 0.950 . S
C1386 C1387 1.386 . S
C1386 C1388 1.391 . S
C1387 C1386 1.386 . S
C1387 C1391 1.393 . S
C1388 H1377 0.950 . S
C1388 C1386 1.391 . S
C1388 C1389 1.400 1_554 S
C1389 C1383 1.491 . S
C1389 C1388 1.400 1_556 S
C1389 C1390 1.398 1_556 S
C1390 H1378 0.950 . S
C1390 C1389 1.398 1_554 S
C1390 C1391 1.391 . S
C1391 H1379 0.950 . S
C1391 C1387 1.393 . S
C1391 C1390 1.391 . S
H1392 C1400 0.950 . S
H1393 C1405 0.950 . S
H1394 C1402 0.950 . S
H1395 C1404 0.950 . S
H1396 C1406 0.950 . S
H1397 C1408 0.950 . S
H1398 C1410 0.950 . S
H1399 C1411 0.950 . S
C1400 H1392 0.950 . S
C1400 C1401 1.386 . S
C1400 C1402 1.391 . S
C1401 C1400 1.386 . S
C1401 C1405 1.393 . S
C1402 H1394 0.950 . S
C1402 C1400 1.391 . S
C1402 C1403 1.400 . S
C1403 C1402 1.400 . S
C1403 C1404 1.398 . S
C1403 C1409 1.491 . S
C1404 H1395 0.950 . S
C1404 C1403 1.398 . S
C1404 C1405 1.391 . S
C1405 H1393 0.950 . S
C1405 C1401 1.393 . S
C1405 C1404 1.391 . S
C1406 H1396 0.950 . S
C1406 C1407 1.386 . S
C1406 C1408 1.391 . S
C1407 C1406 1.386 . S
C1407 C1411 1.393 . S
C1408 H1397 0.950 . S
C1408 C1406 1.391 . S
C1408 C1409 1.400 . S
C1409 C1403 1.491 . S
C1409 C1408 1.400 . S
C1409 C1410 1.398 . S
C1410 H1398 0.950 . S
C1410 C1409 1.398 . S
C1410 C1411 1.391 . S
C1411 H1399 0.950 . S
C1411 C1407 1.393 . S
C1411 C1410 1.391 . S
H1412 C1420 0.950 . S
H1413 C1425 0.950 . S
H1414 C1422 0.950 . S
H1415 C1424 0.950 . S
H1416 C1426 0.950 . S
H1417 C1428 0.950 . S
H1418 C1430 0.950 . S
H1419 C1431 0.950 . S
C1420 H1412 0.950 . S
C1420 C1421 1.386 . S
C1420 C1422 1.391 . S
C1421 C1420 1.386 . S
C1421 C1425 1.393 . S
C1422 H1414 0.950 . S
C1422 C1420 1.391 . S
C1422 C1423 1.400 . S
C1423 C1422 1.400 . S
C1423 C1424 1.398 . S
C1423 C1429 1.491 . S
C1424 H1415 0.950 . S
C1424 C1423 1.398 . S
C1424 C1425 1.391 . S
C1425 H1413 0.950 . S
C1425 C1421 1.393 . S
C1425 C1424 1.391 . S
C1426 H1416 0.950 . S
C1426 C1427 1.386 . S
C1426 C1428 1.391 . S
C1427 C1426 1.386 . S
C1427 C1431 1.393 . S
C1428 H1417 0.950 . S
C1428 C1426 1.391 . S
C1428 C1429 1.400 . S
C1429 C1423 1.491 . S
C1429 C1428 1.400 . S
C1429 C1430 1.398 . S
C1430 H1418 0.950 . S
C1430 C1429 1.398 . S
C1430 C1431 1.391 . S
C1431 H1419 0.950 . S
C1431 C1427 1.393 . S
C1431 C1430 1.391 . S
H1432 C1440 0.950 . S
H1433 C1445 0.950 . S
H1434 C1442 0.950 . S
H1435 C1444 0.950 . S
H1436 C1446 0.950 . S
H1437 C1448 0.950 . S
H1438 C1450 0.950 . S
H1439 C1451 0.950 . S
C1440 H1432 0.950 . S
C1440 C1441 1.386 . S
C1440 C1442 1.391 . S
C1441 C1440 1.386 . S
C1441 C1445 1.393 . S
C1442 H1434 0.950 . S
C1442 C1440 1.391 . S
C1442 C1443 1.400 . S
C1443 C1442 1.400 . S
C1443 C1444 1.398 . S
C1443 C1449 1.491 . S
C1444 H1435 0.950 . S
C1444 C1443 1.398 . S
C1444 C1445 1.391 . S
C1445 H1433 0.950 . S
C1445 C1441 1.393 . S
C1445 C1444 1.391 . S
C1446 H1436 0.950 . S
C1446 C1447 1.386 . S
C1446 C1448 1.391 . S
C1447 C1446 1.386 . S
C1447 C1451 1.393 . S
C1448 H1437 0.950 . S
C1448 C1446 1.391 . S
C1448 C1449 1.400 . S
C1449 C1443 1.491 . S
C1449 C1448 1.400 . S
C1449 C1450 1.398 . S
C1450 H1438 0.950 . S
C1450 C1449 1.398 . S
C1450 C1451 1.391 . S
C1451 H1439 0.950 . S
C1451 C1447 1.393 . S
C1451 C1450 1.391 . S
H1452 C1460 0.950 . S
H1453 C1465 0.950 . S
H1454 C1462 0.938 1_554 S
H1455 C1464 0.950 . S
H1456 C1466 0.950 . S
H1457 C1468 0.950 . S
H1458 C1470 0.950 . S
H1459 C1471 0.950 . S
C1460 H1452 0.950 . S
C1460 C1461 1.386 . S
C1460 C1462 1.410 . S
C1461 C1460 1.386 . S
C1461 C1465 1.393 . S
C1462 H1454 0.938 1_556 S
C1462 C1460 1.410 . S
C1462 C1463 1.393 1_556 S
C1463 C1462 1.393 1_554 S
C1463 C1464 1.398 1_554 S
C1463 C1469 1.491 . S
C1464 H1455 0.950 . S
C1464 C1463 1.398 1_556 S
C1464 C1465 1.391 . S
C1465 H1453 0.950 . S
C1465 C1461 1.393 . S
C1465 C1464 1.391 . S
C1466 H1456 0.950 . S
C1466 C1467 1.386 . S
C1466 C1468 1.391 . S
C1467 C1466 1.386 . S
C1467 C1471 1.393 . S
C1468 H1457 0.950 . S
C1468 C1466 1.391 . S
C1468 C1469 1.400 . S
C1469 C1463 1.491 . S
C1469 C1468 1.400 . S
C1469 C1470 1.398 . S
C1470 H1458 0.950 . S
C1470 C1469 1.398 . S
C1470 C1471 1.391 . S
C1471 H1459 0.950 . S
C1471 C1467 1.393 . S
C1471 C1470 1.391 . S
H1472 C1480 0.950 . S
H1473 C1485 0.950 . S
H1474 C1482 0.950 . S
H1475 C1484 0.950 . S
H1476 C1486 0.950 . S
H1477 C1488 0.950 . S
H1478 C1490 0.950 . S
H1479 C1491 0.950 . S
C1480 H1472 0.950 . S
C1480 C1481 1.386 . S
C1480 C1482 1.391 . S
C1481 C1480 1.386 . S
C1481 C1485 1.393 . S
C1482 H1474 0.950 . S
C1482 C1480 1.391 . S
C1482 C1483 1.400 . S
C1483 C1482 1.400 . S
C1483 C1484 1.398 . S
C1483 C1489 1.491 . S
C1484 H1475 0.950 . S
C1484 C1483 1.398 . S
C1484 C1485 1.391 . S
C1485 H1473 0.950 . S
C1485 C1481 1.393 . S
C1485 C1484 1.391 . S
C1486 H1476 0.950 . S
C1486 C1487 1.386 . S
C1486 C1488 1.391 . S
C1487 C1486 1.386 . S
C1487 C1491 1.393 . S
C1488 H1477 0.950 . S
C1488 C1486 1.391 . S
C1488 C1489 1.400 . S
C1489 C1483 1.491 . S
C1489 C1488 1.400 . S
C1489 C1490 1.398 . S
C1490 H1478 0.950 . S
C1490 C1489 1.398 . S
C1490 C1491 1.391 . S
C1491 H1479 0.950 . S
C1491 C1487 1.393 . S
C1491 C1490 1.391 . S
H1492 C1500 0.950 . S
H1493 C1505 0.950 . S
H1494 C1502 0.950 . S
H1495 C1504 0.950 . S
H1496 C1506 0.950 . S
H1497 C1508 0.950 . S
H1498 C1510 0.950 . S
H1499 C1511 0.950 . S
C1500 H1492 0.950 . S
C1500 C1501 1.386 . S
C1500 C1502 1.391 . S
C1501 C1500 1.386 . S
C1501 C1505 1.393 . S
C1502 H1494 0.950 . S
C1502 C1500 1.391 . S
C1502 C1503 1.400 . S
C1503 C1502 1.400 . S
C1503 C1504 1.398 . S
C1503 C1509 1.491 . S
C1504 H1495 0.950 . S
C1504 C1503 1.398 . S
C1504 C1505 1.391 . S
C1505 H1493 0.950 . S
C1505 C1501 1.393 . S
C1505 C1504 1.391 . S
C1506 H1496 0.950 . S
C1506 C1507 1.386 . S
C1506 C1508 1.391 . S
C1507 C1506 1.386 . S
C1507 C1511 1.393 . S
C1508 H1497 0.950 . S
C1508 C1506 1.391 . S
C1508 C1509 1.400 . S
C1509 C1503 1.491 . S
C1509 C1508 1.400 . S
C1509 C1510 1.398 . S
C1510 H1498 0.950 . S
C1510 C1509 1.398 . S
C1510 C1511 1.391 . S
C1511 H1499 0.950 . S
C1511 C1507 1.393 . S
C1511 C1510 1.391 . S
H1512 C1520 0.950 . S
H1513 C1525 0.950 . S
H1514 C1522 0.950 . S
H1515 C1524 0.950 . S
H1516 C1526 0.950 . S
H1517 C1528 0.950 . S
H1518 C1530 0.950 . S
H1519 C1531 0.950 . S
C1520 H1512 0.950 . S
C1520 C1521 1.386 . S
C1520 C1522 1.391 . S
C1521 C1520 1.386 . S
C1521 C1525 1.393 . S
C1522 H1514 0.950 . S
C1522 C1520 1.391 . S
C1522 C1523 1.400 . S
C1523 C1522 1.400 . S
C1523 C1524 1.398 . S
C1523 C1529 1.491 . S
C1524 H1515 0.950 . S
C1524 C1523 1.398 . S
C1524 C1525 1.391 . S
C1525 H1513 0.950 . S
C1525 C1521 1.393 . S
C1525 C1524 1.391 . S
C1526 H1516 0.950 . S
C1526 C1527 1.386 . S
C1526 C1528 1.391 . S
C1527 C1526 1.386 . S
C1527 C1531 1.393 . S
C1528 H1517 0.950 . S
C1528 C1526 1.391 . S
C1528 C1529 1.400 . S
C1529 C1523 1.491 . S
C1529 C1528 1.400 . S
C1529 C1530 1.398 . S
C1530 H1518 0.950 . S
C1530 C1529 1.398 . S
C1530 C1531 1.391 . S
C1531 H1519 0.950 . S
C1531 C1527 1.393 . S
C1531 C1530 1.391 . S
H1532 C1540 0.950 . S
H1533 C1545 0.950 . S
H1534 C1542 0.950 . S
H1535 C1544 0.950 . S
H1536 C1546 0.950 . S
H1537 C1548 0.950 . S
H1538 C1550 0.950 . S
H1539 C1551 0.950 . S
C1540 H1532 0.950 . S
C1540 C1541 1.386 . S
C1540 C1542 1.391 . S
C1541 C1540 1.386 . S
C1541 C1545 1.393 . S
C1542 H1534 0.950 . S
C1542 C1540 1.391 . S
C1542 C1543 1.400 . S
C1543 C1542 1.400 . S
C1543 C1544 1.398 . S
C1543 C1549 1.491 . S
C1544 H1535 0.950 . S
C1544 C1543 1.398 . S
C1544 C1545 1.391 . S
C1545 H1533 0.950 . S
C1545 C1541 1.393 . S
C1545 C1544 1.391 . S
C1546 H1536 0.950 . S
C1546 C1547 1.386 . S
C1546 C1548 1.391 . S
C1547 C1546 1.386 . S
C1547 C1551 1.393 . S
C1548 H1537 0.950 . S
C1548 C1546 1.391 . S
C1548 C1549 1.400 . S
C1549 C1543 1.491 . S
C1549 C1548 1.400 . S
C1549 C1550 1.398 . S
C1550 H1538 0.950 . S
C1550 C1549 1.398 . S
C1550 C1551 1.391 . S
C1551 H1539 0.950 . S
C1551 C1547 1.393 . S
C1551 C1550 1.391 . S
H1552 C1560 0.950 . S
H1553 C1565 0.950 . S
H1554 C1562 0.951 . S
H1555 C1564 0.950 . S
H1556 C1566 0.950 . S
H1557 C1568 0.950 . S
H1558 C1570 0.950 . S
H1559 C1571 0.950 . S
C1560 H1552 0.950 . S
C1560 C1561 1.386 . S
C1560 C1562 1.384 1_565 S
C1561 C1560 1.386 . S
C1561 C1565 1.393 . S
C1562 H1554 0.951 . S
C1562 C1560 1.384 1_545 S
C1562 C1563 1.405 . S
C1563 C1562 1.405 . S
C1563 C1564 1.398 . S
C1563 C1569 1.491 . S
C1564 H1555 0.950 . S
C1564 C1563 1.398 . S
C1564 C1565 1.391 1_545 S
C1565 H1553 0.950 . S
C1565 C1561 1.393 . S
C1565 C1564 1.391 1_565 S
C1566 H1556 0.950 . S
C1566 C1567 1.386 . S
C1566 C1568 1.391 . S
C1567 C1566 1.386 . S
C1567 C1571 1.393 . S
C1568 H1557 0.950 . S
C1568 C1566 1.391 . S
C1568 C1569 1.400 . S
C1569 C1563 1.491 . S
C1569 C1568 1.400 . S
C1569 C1570 1.398 . S
C1570 H1558 0.950 . S
C1570 C1569 1.398 . S
C1570 C1571 1.391 . S
C1571 H1559 0.950 . S
C1571 C1567 1.393 . S
C1571 C1570 1.391 . S
H1572 C1580 0.950 . S
H1573 C1585 0.950 . S
H1574 C1582 0.950 . S
H1575 C1584 0.950 . S
H1576 C1586 0.950 . S
H1577 C1588 0.950 . S
H1578 C1590 0.950 . S
H1579 C1591 0.950 . S
C1580 H1572 0.950 . S
C1580 C1581 1.386 . S
C1580 C1582 1.391 . S
C1581 C1580 1.386 . S
C1581 C1585 1.393 . S
C1582 H1574 0.950 . S
C1582 C1580 1.391 . S
C1582 C1583 1.400 . S
C1583 C1582 1.400 . S
C1583 C1584 1.398 . S
C1583 C1589 1.491 . S
C1584 H1575 0.950 . S
C1584 C1583 1.398 . S
C1584 C1585 1.391 . S
C1585 H1573 0.950 . S
C1585 C1581 1.393 . S
C1585 C1584 1.391 . S
C1586 H1576 0.950 . S
C1586 C1587 1.386 . S
C1586 C1588 1.391 . S
C1587 C1586 1.386 . S
C1587 C1591 1.393 . S
C1588 H1577 0.950 . S
C1588 C1586 1.391 . S
C1588 C1589 1.400 . S
C1589 C1583 1.491 . S
C1589 C1588 1.400 . S
C1589 C1590 1.398 . S
C1590 H1578 0.950 . S
C1590 C1589 1.398 . S
C1590 C1591 1.391 . S
C1591 H1579 0.950 . S
C1591 C1587 1.393 . S
C1591 C1590 1.391 . S
H1592 C1600 0.950 . S
H1593 C1605 0.950 . S
H1594 C1602 0.950 . S
H1595 C1604 0.950 . S
H1596 C1606 0.950 . S
H1597 C1608 0.950 . S
H1598 C1610 0.950 . S
H1599 C1611 0.950 . S
C1600 H1592 0.950 . S
C1600 C1601 1.386 . S
C1600 C1602 1.391 . S
C1601 C1600 1.386 . S
C1601 C1605 1.393 . S
C1602 H1594 0.950 . S
C1602 C1600 1.391 . S
C1602 C1603 1.400 . S
C1603 C1602 1.400 . S
C1603 C1604 1.398 . S
C1603 C1609 1.491 . S
C1604 H1595 0.950 . S
C1604 C1603 1.398 . S
C1604 C1605 1.391 . S
C1605 H1593 0.950 . S
C1605 C1601 1.393 . S
C1605 C1604 1.391 . S
C1606 H1596 0.950 . S
C1606 C1607 1.386 . S
C1606 C1608 1.391 . S
C1607 C1606 1.386 . S
C1607 C1611 1.393 . S
C1608 H1597 0.950 . S
C1608 C1606 1.391 . S
C1608 C1609 1.400 . S
C1609 C1603 1.491 . S
C1609 C1608 1.400 . S
C1609 C1610 1.398 . S
C1610 H1598 0.950 . S
C1610 C1609 1.398 . S
C1610 C1611 1.391 . S
C1611 H1599 0.950 . S
C1611 C1607 1.393 . S
C1611 C1610 1.391 . S
H1612 C1620 0.950 . S
H1613 C1625 0.950 . S
H1614 C1622 0.950 . S
H1615 C1624 0.950 . S
H1616 C1626 0.950 . S
H1617 C1628 0.950 . S
H1618 C1630 0.950 . S
H1619 C1631 0.950 . S
C1620 H1612 0.950 . S
C1620 C1621 1.386 . S
C1620 C1622 1.391 . S
C1621 C1620 1.386 . S
C1621 C1625 1.393 . S
C1622 H1614 0.950 . S
C1622 C1620 1.391 . S
C1622 C1623 1.400 . S
C1623 C1622 1.400 . S
C1623 C1624 1.398 . S
C1623 C1629 1.491 . S
C1624 H1615 0.950 . S
C1624 C1623 1.398 . S
C1624 C1625 1.391 . S
C1625 H1613 0.950 . S
C1625 C1621 1.393 . S
C1625 C1624 1.391 . S
C1626 H1616 0.950 . S
C1626 C1627 1.386 . S
C1626 C1628 1.391 . S
C1627 C1626 1.386 . S
C1627 C1631 1.393 . S
C1628 H1617 0.950 . S
C1628 C1626 1.391 . S
C1628 C1629 1.400 . S
C1629 C1623 1.491 . S
C1629 C1628 1.400 . S
C1629 C1630 1.398 . S
C1630 H1618 0.950 . S
C1630 C1629 1.398 . S
C1630 C1631 1.391 . S
C1631 H1619 0.950 . S
C1631 C1627 1.393 . S
C1631 C1630 1.391 . S
H1632 C1640 0.950 . S
H1633 C1645 0.950 . S
H1634 C1642 0.950 . S
H1635 C1644 0.950 . S
H1636 C1646 0.950 . S
H1637 C1648 0.950 . S
H1638 C1650 0.950 . S
H1639 C1651 0.950 . S
C1640 H1632 0.950 . S
C1640 C1641 1.386 . S
C1640 C1642 1.391 . S
C1641 C1640 1.386 . S
C1641 C1645 1.393 . S
C1642 H1634 0.950 . S
C1642 C1640 1.391 . S
C1642 C1643 1.400 . S
C1643 C1642 1.400 . S
C1643 C1644 1.398 . S
C1643 C1649 1.491 . S
C1644 H1635 0.950 . S
C1644 C1643 1.398 . S
C1644 C1645 1.391 . S
C1645 H1633 0.950 . S
C1645 C1641 1.393 . S
C1645 C1644 1.391 . S
C1646 H1636 0.950 . S
C1646 C1647 1.386 . S
C1646 C1648 1.391 . S
C1647 C1646 1.386 . S
C1647 C1651 1.393 . S
C1648 H1637 0.950 . S
C1648 C1646 1.391 . S
C1648 C1649 1.400 . S
C1649 C1643 1.491 . S
C1649 C1648 1.400 . S
C1649 C1650 1.398 . S
C1650 H1638 0.950 . S
C1650 C1649 1.398 . S
C1650 C1651 1.391 . S
C1651 H1639 0.950 . S
C1651 C1647 1.393 . S
C1651 C1650 1.391 . S
H1652 C1660 0.950 . S
H1653 C1665 0.950 . S
H1654 C1662 0.950 . S
H1655 C1664 0.950 . S
H1656 C1666 0.950 . S
H1657 C1668 0.950 . S
H1658 C1670 0.950 . S
H1659 C1671 0.950 . S
C1660 H1652 0.950 . S
C1660 C1661 1.386 . S
C1660 C1662 1.391 . S
C1661 C1660 1.386 . S
C1661 C1665 1.393 . S
C1662 H1654 0.950 . S
C1662 C1660 1.391 . S
C1662 C1663 1.400 . S
C1663 C1662 1.400 . S
C1663 C1664 1.398 . S
C1663 C1669 1.491 . S
C1664 H1655 0.950 . S
C1664 C1663 1.398 . S
C1664 C1665 1.391 . S
C1665 H1653 0.950 . S
C1665 C1661 1.393 . S
C1665 C1664 1.391 . S
C1666 H1656 0.950 . S
C1666 C1667 1.386 . S
C1666 C1668 1.391 . S
C1667 C1666 1.386 . S
C1667 C1671 1.393 . S
C1668 H1657 0.950 . S
C1668 C1666 1.391 . S
C1668 C1669 1.400 . S
C1669 C1663 1.491 . S
C1669 C1668 1.400 . S
C1669 C1670 1.398 . S
C1670 H1658 0.950 . S
C1670 C1669 1.398 . S
C1670 C1671 1.391 . S
C1671 H1659 0.950 . S
C1671 C1667 1.393 . S
C1671 C1670 1.391 . S
H1672 C1680 0.950 . S
H1673 C1685 0.950 . S
H1674 C1682 0.950 . S
H1675 C1684 0.950 . S
H1676 C1686 0.950 . S
H1677 C1688 0.950 . S
H1678 C1690 0.950 . S
H1679 C1691 0.950 . S
C1680 H1672 0.950 . S
C1680 C1681 1.386 . S
C1680 C1682 1.391 . S
C1681 C1680 1.386 . S
C1681 C1685 1.393 . S
C1682 H1674 0.950 . S
C1682 C1680 1.391 . S
C1682 C1683 1.400 . S
C1683 C1682 1.400 . S
C1683 C1684 1.398 . S
C1683 C1689 1.491 . S
C1684 H1675 0.950 . S
C1684 C1683 1.398 . S
C1684 C1685 1.391 . S
C1685 H1673 0.950 . S
C1685 C1681 1.393 . S
C1685 C1684 1.391 . S
C1686 H1676 0.950 . S
C1686 C1687 1.386 . S
C1686 C1688 1.391 . S
C1687 C1686 1.386 . S
C1687 C1691 1.393 . S
C1688 H1677 0.950 . S
C1688 C1686 1.391 . S
C1688 C1689 1.400 . S
C1689 C1683 1.491 . S
C1689 C1688 1.400 . S
C1689 C1690 1.398 . S
C1690 H1678 0.950 . S
C1690 C1689 1.398 . S
C1690 C1691 1.391 . S
C1691 H1679 0.950 . S
C1691 C1687 1.393 . S
C1691 C1690 1.391 . S
H1692 C1700 0.950 . S
H1693 C1705 0.950 . S
H1694 C1702 0.948 1_455 S
H1695 C1704 0.950 . S
H1696 C1706 0.950 . S
H1697 C1708 0.950 . S
H1698 C1710 0.950 . S
H1699 C1711 0.950 . S
C1700 H1692 0.950 . S
C1700 C1701 1.386 . S
C1700 C1702 1.397 . S
C1701 C1700 1.386 . S
C1701 C1705 1.393 . S
C1702 H1694 0.948 1_655 S
C1702 C1700 1.397 . S
C1702 C1703 1.397 1_655 S
C1703 C1702 1.397 1_455 S
C1703 C1704 1.398 . S
C1703 C1709 1.491 . S
C1704 H1695 0.950 . S
C1704 C1703 1.398 . S
C1704 C1705 1.391 1_455 S
C1705 H1693 0.950 . S
C1705 C1701 1.393 . S
C1705 C1704 1.391 1_655 S
C1706 H1696 0.950 . S
C1706 C1707 1.386 . S
C1706 C1708 1.391 . S
C1707 C1706 1.386 . S
C1707 C1711 1.393 . S
C1708 H1697 0.950 . S
C1708 C1706 1.391 . S
C1708 C1709 1.400 . S
C1709 C1703 1.491 . S
C1709 C1708 1.400 . S
C1709 C1710 1.398 . S
C1710 H1698 0.950 . S
C1710 C1709 1.398 . S
C1710 C1711 1.391 . S
C1711 H1699 0.950 . S
C1711 C1707 1.393 . S
C1711 C1710 1.391 . S
H1712 C1720 0.950 . S
H1713 C1725 0.950 . S
H1714 C1722 0.950 . S
H1715 C1724 0.950 . S
H1716 C1726 0.950 . S
H1717 C1728 0.950 . S
H1718 C1730 0.950 . S
H1719 C1731 0.950 . S
C1720 H1712 0.950 . S
C1720 C1721 1.386 . S
C1720 C1722 1.391 . S
C1721 C1720 1.386 . S
C1721 C1725 1.393 . S
C1722 H1714 0.950 . S
C1722 C1720 1.391 . S
C1722 C1723 1.400 . S
C1723 C1722 1.400 . S
C1723 C1724 1.398 . S
C1723 C1729 1.491 . S
C1724 H1715 0.950 . S
C1724 C1723 1.398 . S
C1724 C1725 1.391 . S
C1725 H1713 0.950 . S
C1725 C1721 1.393 . S
C1725 C1724 1.391 . S
C1726 H1716 0.950 . S
C1726 C1727 1.386 . S
C1726 C1728 1.391 . S
C1727 C1726 1.386 . S
C1727 C1731 1.393 . S
C1728 H1717 0.950 . S
C1728 C1726 1.391 . S
C1728 C1729 1.400 . S
C1729 C1723 1.491 . S
C1729 C1728 1.400 . S
C1729 C1730 1.398 . S
C1730 H1718 0.950 . S
C1730 C1729 1.398 . S
C1730 C1731 1.391 . S
C1731 H1719 0.950 . S
C1731 C1727 1.393 . S
C1731 C1730 1.391 . S
H1732 C1740 0.950 . S
H1733 C1745 0.950 . S
H1734 C1742 0.950 . S
H1735 C1744 0.950 . S
H1736 C1746 0.950 . S
H1737 C1748 0.950 1_455 S
H1738 C1750 0.950 . S
H1739 C1751 0.950 . S
C1740 H1732 0.950 . S
C1740 C1741 1.386 . S
C1740 C1742 1.391 . S
C1741 C1740 1.386 . S
C1741 C1745 1.393 . S
C1742 H1734 0.950 . S
C1742 C1740 1.391 . S
C1742 C1743 1.400 . S
C1743 C1742 1.400 . S
C1743 C1744 1.398 . S
C1743 C1749 1.491 . S
C1744 H1735 0.950 . S
C1744 C1743 1.398 . S
C1744 C1745 1.391 . S
C1745 H1733 0.950 . S
C1745 C1741 1.393 . S
C1745 C1744 1.391 . S
C1746 H1736 0.950 . S
C1746 C1747 1.386 . S
C1746 C1748 1.391 . S
C1747 C1746 1.386 . S
C1747 C1751 1.393 . S
C1748 H1737 0.950 1_655 S
C1748 C1746 1.391 . S
C1748 C1749 1.400 1_655 S
C1749 C1743 1.491 . S
C1749 C1748 1.400 1_455 S
C1749 C1750 1.398 1_455 S
C1750 H1738 0.950 . S
C1750 C1749 1.398 1_655 S
C1750 C1751 1.391 . S
C1751 H1739 0.950 . S
C1751 C1747 1.393 . S
C1751 C1750 1.391 . S
H1752 C1760 0.950 . S
H1753 C1765 0.950 . S
H1754 C1762 0.950 . S
H1755 C1764 0.950 . S
H1756 C1766 0.950 . S
H1757 C1768 0.950 . S
H1758 C1770 0.950 . S
H1759 C1771 0.950 . S
C1760 H1752 0.950 . S
C1760 C1761 1.386 . S
C1760 C1762 1.391 . S
C1761 C1760 1.386 . S
C1761 C1765 1.393 . S
C1762 H1754 0.950 . S
C1762 C1760 1.391 . S
C1762 C1763 1.400 . S
C1763 C1762 1.400 . S
C1763 C1764 1.398 . S
C1763 C1769 1.491 . S
C1764 H1755 0.950 . S
C1764 C1763 1.398 . S
C1764 C1765 1.391 . S
C1765 H1753 0.950 . S
C1765 C1761 1.393 . S
C1765 C1764 1.391 . S
C1766 H1756 0.950 . S
C1766 C1767 1.386 . S
C1766 C1768 1.391 . S
C1767 C1766 1.386 . S
C1767 C1771 1.393 . S
C1768 H1757 0.950 . S
C1768 C1766 1.391 . S
C1768 C1769 1.400 . S
C1769 C1763 1.491 . S
C1769 C1768 1.400 . S
C1769 C1770 1.398 . S
C1770 H1758 0.950 . S
C1770 C1769 1.398 . S
C1770 C1771 1.391 . S
C1771 H1759 0.950 . S
C1771 C1767 1.393 . S
C1771 C1770 1.391 . S
H1772 C1780 0.950 . S
H1773 C1785 0.950 . S
H1774 C1782 0.950 . S
H1775 C1784 0.950 . S
H1776 C1786 0.950 . S
H1777 C1788 0.950 . S
H1778 C1790 0.950 . S
H1779 C1791 0.950 . S
C1780 H1772 0.950 . S
C1780 C1781 1.386 . S
C1780 C1782 1.391 . S
C1781 C1780 1.386 . S
C1781 C1785 1.393 . S
C1782 H1774 0.950 . S
C1782 C1780 1.391 . S
C1782 C1783 1.400 . S
C1783 C1782 1.400 . S
C1783 C1784 1.398 . S
C1783 C1789 1.491 . S
C1784 H1775 0.950 . S
C1784 C1783 1.398 . S
C1784 C1785 1.391 . S
C1785 H1773 0.950 . S
C1785 C1781 1.393 . S
C1785 C1784 1.391 . S
C1786 H1776 0.950 . S
C1786 C1787 1.386 . S
C1786 C1788 1.391 . S
C1787 C1786 1.386 . S
C1787 C1791 1.393 . S
C1788 H1777 0.950 . S
C1788 C1786 1.391 . S
C1788 C1789 1.400 . S
C1789 C1783 1.491 . S
C1789 C1788 1.400 . S
C1789 C1790 1.398 . S
C1790 H1778 0.950 . S
C1790 C1789 1.398 . S
C1790 C1791 1.391 . S
C1791 H1779 0.950 . S
C1791 C1787 1.393 . S
C1791 C1790 1.391 . S
H1792 C1800 0.950 . S
H1793 C1805 0.950 . S
H1794 C1802 0.950 . S
H1795 C1804 0.950 . S
H1796 C1806 0.950 . S
H1797 C1808 0.950 . S
H1798 C1810 0.950 . S
H1799 C1811 0.950 . S
C1800 H1792 0.950 . S
C1800 C1801 1.386 . S
C1800 C1802 1.391 . S
C1801 C1800 1.386 . S
C1801 C1805 1.393 . S
C1802 H1794 0.950 . S
C1802 C1800 1.391 . S
C1802 C1803 1.400 . S
C1803 C1802 1.400 . S
C1803 C1804 1.398 . S
C1803 C1809 1.491 . S
C1804 H1795 0.950 . S
C1804 C1803 1.398 . S
C1804 C1805 1.391 . S
C1805 H1793 0.950 . S
C1805 C1801 1.393 . S
C1805 C1804 1.391 . S
C1806 H1796 0.950 . S
C1806 C1807 1.386 . S
C1806 C1808 1.391 . S
C1807 C1806 1.386 . S
C1807 C1811 1.393 . S
C1808 H1797 0.950 . S
C1808 C1806 1.391 . S
C1808 C1809 1.400 . S
C1809 C1803 1.491 . S
C1809 C1808 1.400 . S
C1809 C1810 1.398 . S
C1810 H1798 0.950 . S
C1810 C1809 1.398 . S
C1810 C1811 1.391 . S
C1811 H1799 0.950 . S
C1811 C1807 1.393 . S
C1811 C1810 1.391 . S
H1812 C1820 0.950 . S
H1813 C1825 0.950 . S
H1814 C1822 0.950 . S
H1815 C1824 0.950 . S
H1816 C1826 0.950 . S
H1817 C1828 0.950 . S
H1818 C1830 0.950 . S
H1819 C1831 0.950 . S
C1820 H1812 0.950 . S
C1820 C1821 1.386 . S
C1820 C1822 1.391 . S
C1821 C1820 1.386 . S
C1821 C1825 1.393 . S
C1822 H1814 0.950 . S
C1822 C1820 1.391 . S
C1822 C1823 1.400 . S
C1823 C1822 1.400 . S
C1823 C1824 1.398 . S
C1823 C1829 1.491 . S
C1824 H1815 0.950 . S
C1824 C1823 1.398 . S
C1824 C1825 1.391 . S
C1825 H1813 0.950 . S
C1825 C1821 1.393 . S
C1825 C1824 1.391 . S
C1826 H1816 0.950 . S
C1826 C1827 1.386 . S
C1826 C1828 1.391 1_556 S
C1827 C1826 1.386 . S
C1827 C1831 1.393 . S
C1828 H1817 0.950 . S
C1828 C1826 1.391 1_554 S
C1828 C1829 1.400 . S
C1829 C1823 1.491 . S
C1829 C1828 1.400 . S
C1829 C1830 1.398 . S
C1830 H1818 0.950 . S
C1830 C1829 1.398 . S
C1830 C1831 1.391 1_554 S
C1831 H1819 0.950 . S
C1831 C1827 1.393 . S
C1831 C1830 1.391 1_556 S
H1832 C1840 0.950 . S
H1833 C1845 0.950 . S
H1834 C1842 0.950 . S
H1835 C1844 0.950 . S
H1836 C1846 0.950 . S
H1837 C1848 0.950 . S
H1838 C1850 0.950 . S
H1839 C1851 0.950 . S
C1840 H1832 0.950 . S
C1840 C1841 1.386 . S
C1840 C1842 1.391 . S
C1841 C1840 1.386 . S
C1841 C1845 1.393 . S
C1842 H1834 0.950 . S
C1842 C1840 1.391 . S
C1842 C1843 1.400 . S
C1843 C1842 1.400 . S
C1843 C1844 1.398 . S
C1843 C1849 1.491 . S
C1844 H1835 0.950 . S
C1844 C1843 1.398 . S
C1844 C1845 1.391 . S
C1845 H1833 0.950 . S
C1845 C1841 1.393 . S
C1845 C1844 1.391 . S
C1846 H1836 0.950 . S
C1846 C1847 1.386 . S
C1846 C1848 1.391 . S
C1847 C1846 1.386 . S
C1847 C1851 1.393 . S
C1848 H1837 0.950 . S
C1848 C1846 1.391 . S
C1848 C1849 1.400 . S
C1849 C1843 1.491 . S
C1849 C1848 1.400 . S
C1849 C1850 1.398 . S
C1850 H1838 0.950 . S
C1850 C1849 1.398 . S
C1850 C1851 1.391 . S
C1851 H1839 0.950 . S
C1851 C1847 1.393 . S
C1851 C1850 1.391 . S
H1852 C1860 0.950 . S
H1853 C1865 0.950 . S
H1854 C1862 0.950 . S
H1855 C1864 0.950 . S
H1856 C1866 0.950 . S
H1857 C1868 0.950 . S
H1858 C1870 0.950 . S
H1859 C1871 0.950 . S
C1860 H1852 0.950 . S
C1860 C1861 1.386 . S
C1860 C1862 1.391 . S
C1861 C1860 1.386 . S
C1861 C1865 1.393 . S
C1862 H1854 0.950 . S
C1862 C1860 1.391 . S
C1862 C1863 1.400 . S
C1863 C1862 1.400 . S
C1863 C1864 1.398 . S
C1863 C1869 1.491 . S
C1864 H1855 0.950 . S
C1864 C1863 1.398 . S
C1864 C1865 1.391 . S
C1865 H1853 0.950 . S
C1865 C1861 1.393 . S
C1865 C1864 1.391 . S
C1866 H1856 0.950 . S
C1866 C1867 1.386 . S
C1866 C1868 1.391 . S
C1867 C1866 1.386 . S
C1867 C1871 1.393 . S
C1868 H1857 0.950 . S
C1868 C1866 1.391 . S
C1868 C1869 1.400 . S
C1869 C1863 1.491 . S
C1869 C1868 1.400 . S
C1869 C1870 1.398 . S
C1870 H1858 0.950 . S
C1870 C1869 1.398 . S
C1870 C1871 1.391 . S
C1871 H1859 0.950 . S
C1871 C1867 1.393 . S
C1871 C1870 1.391 . S
H1872 C1880 0.950 . S
H1873 C1885 0.950 . S
H1874 C1882 0.950 . S
H1875 C1884 0.950 . S
H1876 C1886 0.950 . S
H1877 C1888 0.950 . S
H1878 C1890 0.950 . S
H1879 C1891 0.950 . S
C1880 H1872 0.950 . S
C1880 C1881 1.386 . S
C1880 C1882 1.391 . S
C1881 C1880 1.386 . S
C1881 C1885 1.393 . S
C1882 H1874 0.950 . S
C1882 C1880 1.391 . S
C1882 C1883 1.400 . S
C1883 C1882 1.400 . S
C1883 C1884 1.398 . S
C1883 C1889 1.491 . S
C1884 H1875 0.950 . S
C1884 C1883 1.398 . S
C1884 C1885 1.391 . S
C1885 H1873 0.950 . S
C1885 C1881 1.393 . S
C1885 C1884 1.391 . S
C1886 H1876 0.950 . S
C1886 C1887 1.386 . S
C1886 C1888 1.391 . S
C1887 C1886 1.386 . S
C1887 C1891 1.393 . S
C1888 H1877 0.950 . S
C1888 C1886 1.391 . S
C1888 C1889 1.400 . S
C1889 C1883 1.491 . S
C1889 C1888 1.400 . S
C1889 C1890 1.398 . S
C1890 H1878 0.950 . S
C1890 C1889 1.398 . S
C1890 C1891 1.391 . S
C1891 H1879 0.950 . S
C1891 C1887 1.393 . S
C1891 C1890 1.391 . S
H1892 C1900 0.950 . S
H1893 C1905 0.950 . S
H1894 C1902 0.950 . S
H1895 C1904 0.950 . S
H1896 C1906 0.950 . S
H1897 C1908 0.950 . S
H1898 C1910 0.950 . S
H1899 C1911 0.950 . S
C1900 H1892 0.950 . S
C1900 C1901 1.386 . S
C1900 C1902 1.391 . S
C1901 C1900 1.386 . S
C1901 C1905 1.393 . S
C1902 H1894 0.950 . S
C1902 C1900 1.391 . S
C1902 C1903 1.400 . S
C1903 C1902 1.400 . S
C1903 C1904 1.398 . S
C1903 C1909 1.491 . S
C1904 H1895 0.950 . S
C1904 C1903 1.398 . S
C1904 C1905 1.391 . S
C1905 H1893 0.950 . S
C1905 C1901 1.393 . S
C1905 C1904 1.391 . S
C1906 H1896 0.950 . S
C1906 C1907 1.386 . S
C1906 C1908 1.391 1_554 S
C1907 C1906 1.386 . S
C1907 C1911 1.393 . S
C1908 H1897 0.950 . S
C1908 C1906 1.391 1_556 S
C1908 C1909 1.400 . S
C1909 C1903 1.491 . S
C1909 C1908 1.400 . S
C1909 C1910 1.398 . S
C1910 H1898 0.950 . S
C1910 C1909 1.398 . S
C1910 C1911 1.391 1_556 S
C1911 H1899 0.950 . S
C1911 C1907 1.393 . S
C1911 C1910 1.391 1_554 S
H1912 C1920 0.950 . S
H1913 C1925 0.950 . S
H1914 C1922 0.950 . S
H1915 C1924 0.950 . S
H1916 C1926 0.950 . S
H1917 C1928 0.950 . S
H1918 C1930 0.950 . S
H1919 C1931 0.950 . S
C1920 H1912 0.950 . S
C1920 C1921 1.386 . S
C1920 C1922 1.391 . S
C1921 C1920 1.386 . S
C1921 C1925 1.393 . S
C1922 H1914 0.950 . S
C1922 C1920 1.391 . S
C1922 C1923 1.400 . S
C1923 C1922 1.400 . S
C1923 C1924 1.398 . S
C1923 C1929 1.491 . S
C1924 H1915 0.950 . S
C1924 C1923 1.398 . S
C1924 C1925 1.391 . S
C1925 H1913 0.950 . S
C1925 C1921 1.393 . S
C1925 C1924 1.391 . S
C1926 H1916 0.950 . S
C1926 C1927 1.386 . S
C1926 C1928 1.391 . S
C1927 C1926 1.386 . S
C1927 C1931 1.393 . S
C1928 H1917 0.950 . S
C1928 C1926 1.391 . S
C1928 C1929 1.400 . S
C1929 C1923 1.491 . S
C1929 C1928 1.400 . S
C1929 C1930 1.398 . S
C1930 H1918 0.950 . S
C1930 C1929 1.398 . S
C1930 C1931 1.391 . S
C1931 H1919 0.950 . S
C1931 C1927 1.393 . S
C1931 C1930 1.391 . S
H1932 C1940 0.950 . S
H1933 C1945 0.950 . S
H1934 C1942 0.950 . S
H1935 C1944 0.950 . S
H1936 C1946 0.950 . S
H1937 C1948 0.950 . S
H1938 C1950 0.950 . S
H1939 C1951 0.950 . S
C1940 H1932 0.950 . S
C1940 C1941 1.386 . S
C1940 C1942 1.391 . S
C1941 C1940 1.386 . S
C1941 C1945 1.393 . S
C1942 H1934 0.950 . S
C1942 C1940 1.391 . S
C1942 C1943 1.400 . S
C1943 C1942 1.400 . S
C1943 C1944 1.398 . S
C1943 C1949 1.491 . S
C1944 H1935 0.950 . S
C1944 C1943 1.398 . S
C1944 C1945 1.391 . S
C1945 H1933 0.950 . S
C1945 C1941 1.393 . S
C1945 C1944 1.391 . S
C1946 H1936 0.950 . S
C1946 C1947 1.386 . S
C1946 C1948 1.391 . S
C1947 C1946 1.386 . S
C1947 C1951 1.393 . S
C1948 H1937 0.950 . S
C1948 C1946 1.391 . S
C1948 C1949 1.400 . S
C1949 C1943 1.491 . S
C1949 C1948 1.400 . S
C1949 C1950 1.398 . S
C1950 H1938 0.950 . S
C1950 C1949 1.398 . S
C1950 C1951 1.391 . S
C1951 H1939 0.950 . S
C1951 C1947 1.393 . S
C1951 C1950 1.391 . S
H1952 C1960 0.950 . S
H1953 C1965 0.950 . S
H1954 C1962 0.950 . S
H1955 C1964 0.950 . S
H1956 C1966 0.950 . S
H1957 C1968 0.950 . S
H1958 C1970 0.950 . S
H1959 C1971 0.950 . S
C1960 H1952 0.950 . S
C1960 C1961 1.386 . S
C1960 C1962 1.391 . S
C1961 C1960 1.386 . S
C1961 C1965 1.393 . S
C1962 H1954 0.950 . S
C1962 C1960 1.391 . S
C1962 C1963 1.400 . S
C1963 C1962 1.400 . S
C1963 C1964 1.398 . S
C1963 C1969 1.491 . S
C1964 H1955 0.950 . S
C1964 C1963 1.398 . S
C1964 C1965 1.391 . S
C1965 H1953 0.950 . S
C1965 C1961 1.393 . S
C1965 C1964 1.391 . S
C1966 H1956 0.950 . S
C1966 C1967 1.386 . S
C1966 C1968 1.391 . S
C1967 C1966 1.386 . S
C1967 C1971 1.393 . S
C1968 H1957 0.950 . S
C1968 C1966 1.391 . S
C1968 C1969 1.400 . S
C1969 C1963 1.491 . S
C1969 C1968 1.400 . S
C1969 C1970 1.398 . S
C1970 H1958 0.950 . S
C1970 C1969 1.398 . S
C1970 C1971 1.391 . S
C1971 H1959 0.950 . S
C1971 C1967 1.393 . S
C1971 C1970 1.391 . S
H1972 C1980 0.950 . S
H1973 C1985 0.950 . S
H1974 C1982 0.950 . S
H1975 C1984 0.950 . S
H1976 C1986 0.950 . S
H1977 C1988 0.950 . S
H1978 C1990 0.950 . S
H1979 C1991 0.950 . S
C1980 H1972 0.950 . S
C1980 C1981 1.386 . S
C1980 C1982 1.391 . S
C1981 C1980 1.386 . S
C1981 C1985 1.393 . S
C1982 H1974 0.950 . S
C1982 C1980 1.391 . S
C1982 C1983 1.400 . S
C1983 C1982 1.400 . S
C1983 C1984 1.398 . S
C1983 C1989 1.491 . S
C1984 H1975 0.950 . S
C1984 C1983 1.398 . S
C1984 C1985 1.391 . S
C1985 H1973 0.950 . S
C1985 C1981 1.393 . S
C1985 C1984 1.391 . S
C1986 H1976 0.950 . S
C1986 C1987 1.386 . S
C1986 C1988 1.391 . S
C1987 C1986 1.386 . S
C1987 C1991 1.393 . S
C1988 H1977 0.950 . S
C1988 C1986 1.391 . S
C1988 C1989 1.400 . S
C1989 C1983 1.491 . S
C1989 C1988 1.400 . S
C1989 C1990 1.398 . S
C1990 H1978 0.950 . S
C1990 C1989 1.398 . S
C1990 C1991 1.391 . S
C1991 H1979 0.950 . S
C1991 C1987 1.393 . S
C1991 C1990 1.391 . S
H1992 C2000 0.950 . S
H1993 C2005 0.950 . S
H1994 C2002 0.950 . S
H1995 C2004 0.950 . S
H1996 C2006 0.950 . S
H1997 C2008 0.950 1_545 S
H1998 C2010 0.950 . S
H1999 C2011 0.950 . S
C2000 H1992 0.950 . S
C2000 C2001 1.386 . S
C2000 C2002 1.391 . S
C2001 C2000 1.386 . S
C2001 C2005 1.393 . S
C2002 H1994 0.950 . S
C2002 C2000 1.391 . S
C2002 C2003 1.400 . S
C2003 C2002 1.400 . S
C2003 C2004 1.398 . S
C2003 C2009 1.491 . S
C2004 H1995 0.950 . S
C2004 C2003 1.398 . S
C2004 C2005 1.391 . S
C2005 H1993 0.950 . S
C2005 C2001 1.393 . S
C2005 C2004 1.391 . S
C2006 H1996 0.950 . S
C2006 C2007 1.386 . S
C2006 C2008 1.391 . S
C2007 C2006 1.386 . S
C2007 C2011 1.393 . S
C2008 H1997 0.950 1_565 S
C2008 C2006 1.391 . S
C2008 C2009 1.400 1_565 S
C2009 C2003 1.491 . S
C2009 C2008 1.400 1_545 S
C2009 C2010 1.398 1_545 S
C2010 H1998 0.950 . S
C2010 C2009 1.398 1_565 S
C2010 C2011 1.391 . S
C2011 H1999 0.950 . S
C2011 C2007 1.393 . S
C2011 C2010 1.391 . S
H2012 C2020 0.950 . S
H2013 C2025 0.950 . S
H2014 C2022 0.950 . S
H2015 C2024 0.950 . S
H2016 C2026 0.950 . S
H2017 C2028 0.950 . S
H2018 C2030 0.950 . S
H2019 C2031 0.950 . S
C2020 H2012 0.950 . S
C2020 C2021 1.386 . S
C2020 C2022 1.391 . S
C2021 C2020 1.386 . S
C2021 C2025 1.393 . S
C2022 H2014 0.950 . S
C2022 C2020 1.391 . S
C2022 C2023 1.400 . S
C2023 C2022 1.400 . S
C2023 C2024 1.398 . S
C2023 C2029 1.491 . S
C2024 H2015 0.950 . S
C2024 C2023 1.398 . S
C2024 C2025 1.391 . S
C2025 H2013 0.950 . S
C2025 C2021 1.393 . S
C2025 C2024 1.391 . S
C2026 H2016 0.950 . S
C2026 C2027 1.386 . S
C2026 C2028 1.391 . S
C2027 C2026 1.386 . S
C2027 C2031 1.393 . S
C2028 H2017 0.950 . S
C2028 C2026 1.391 . S
C2028 C2029 1.400 . S
C2029 C2023 1.491 . S
C2029 C2028 1.400 . S
C2029 C2030 1.398 . S
C2030 H2018 0.950 . S
C2030 C2029 1.398 . S
C2030 C2031 1.391 . S
C2031 H2019 0.950 . S
C2031 C2027 1.393 . S
C2031 C2030 1.391 . S
H2032 C2040 0.950 . S
H2033 C2045 0.950 . S
H2034 C2042 0.950 . S
H2035 C2044 0.950 . S
H2036 C2046 0.950 . S
H2037 C2048 0.950 . S
H2038 C2050 0.950 . S
H2039 C2051 0.950 . S
C2040 H2032 0.950 . S
C2040 C2041 1.386 . S
C2040 C2042 1.391 . S
C2041 C2040 1.386 . S
C2041 C2045 1.393 . S
C2042 H2034 0.950 . S
C2042 C2040 1.391 . S
C2042 C2043 1.400 . S
C2043 C2042 1.400 . S
C2043 C2044 1.398 . S
C2043 C2049 1.491 . S
C2044 H2035 0.950 . S
C2044 C2043 1.398 . S
C2044 C2045 1.391 . S
C2045 H2033 0.950 . S
C2045 C2041 1.393 . S
C2045 C2044 1.391 . S
C2046 H2036 0.950 . S
C2046 C2047 1.386 . S
C2046 C2048 1.391 . S
C2047 C2046 1.386 . S
C2047 C2051 1.393 . S
C2048 H2037 0.950 . S
C2048 C2046 1.391 . S
C2048 C2049 1.400 . S
C2049 C2043 1.491 . S
C2049 C2048 1.400 . S
C2049 C2050 1.398 . S
C2050 H2038 0.950 . S
C2050 C2049 1.398 . S
C2050 C2051 1.391 . S
C2051 H2039 0.950 . S
C2051 C2047 1.393 . S
C2051 C2050 1.391 . S
H2052 C2060 0.950 . S
H2053 C2065 0.950 . S
H2054 C2062 0.950 . S
H2055 C2064 0.950 . S
H2056 C2066 0.950 . S
H2057 C2068 0.950 . S
H2058 C2070 0.950 . S
H2059 C2071 0.950 . S
C2060 H2052 0.950 . S
C2060 C2061 1.386 . S
C2060 C2062 1.391 . S
C2061 C2060 1.386 . S
C2061 C2065 1.393 . S
C2062 H2054 0.950 . S
C2062 C2060 1.391 . S
C2062 C2063 1.400 . S
C2063 C2062 1.400 . S
C2063 C2064 1.398 . S
C2063 C2069 1.491 . S
C2064 H2055 0.950 . S
C2064 C2063 1.398 . S
C2064 C2065 1.391 . S
C2065 H2053 0.950 . S
C2065 C2061 1.393 . S
C2065 C2064 1.391 . S
C2066 H2056 0.950 . S
C2066 C2067 1.386 . S
C2066 C2068 1.391 . S
C2067 C2066 1.386 . S
C2067 C2071 1.393 . S
C2068 H2057 0.950 . S
C2068 C2066 1.391 . S
C2068 C2069 1.400 . S
C2069 C2063 1.491 . S
C2069 C2068 1.400 . S
C2069 C2070 1.398 . S
C2070 H2058 0.950 . S
C2070 C2069 1.398 . S
C2070 C2071 1.391 . S
C2071 H2059 0.950 . S
C2071 C2067 1.393 . S
C2071 C2070 1.391 . S
H2072 C2080 0.950 . S
H2073 C2085 0.950 . S
H2074 C2082 0.950 . S
H2075 C2084 0.950 . S
H2076 C2086 0.950 . S
H2077 C2088 0.950 . S
H2078 C2090 0.950 . S
H2079 C2091 0.950 . S
C2080 H2072 0.950 . S
C2080 C2081 1.386 . S
C2080 C2082 1.391 . S
C2081 C2080 1.386 . S
C2081 C2085 1.393 . S
C2082 H2074 0.950 . S
C2082 C2080 1.391 . S
C2082 C2083 1.400 . S
C2083 C2082 1.400 . S
C2083 C2084 1.398 . S
C2083 C2089 1.491 1_545 S
C2084 H2075 0.950 . S
C2084 C2083 1.398 . S
C2084 C2085 1.391 . S
C2085 H2073 0.950 . S
C2085 C2081 1.393 . S
C2085 C2084 1.391 . S
C2086 H2076 0.950 . S
C2086 C2087 1.386 . S
C2086 C2088 1.391 . S
C2087 C2086 1.386 . S
C2087 C2091 1.393 . S
C2088 H2077 0.950 . S
C2088 C2086 1.391 . S
C2088 C2089 1.400 . S
C2089 C2083 1.491 1_565 S
C2089 C2088 1.400 . S
C2089 C2090 1.398 . S
C2090 H2078 0.950 . S
C2090 C2089 1.398 . S
C2090 C2091 1.391 . S
C2091 H2079 0.950 . S
C2091 C2087 1.393 . S
C2091 C2090 1.391 . S
H2092 C2100 0.950 . S
H2093 C2105 0.950 . S
H2094 C2102 0.950 . S
H2095 C2104 0.950 . S
H2096 C2106 0.950 . S
H2097 C2108 0.957 . S
H2098 C2110 0.950 . S
H2099 C2111 0.950 . S
C2100 H2092 0.950 . S
C2100 C2101 1.386 . S
C2100 C2102 1.391 . S
C2101 C2100 1.386 . S
C2101 C2105 1.393 . S
C2102 H2094 0.950 . S
C2102 C2100 1.391 . S
C2102 C2103 1.400 . S
C2103 C2102 1.400 . S
C2103 C2104 1.398 . S
C2103 C2109 1.447 1_545 S
C2104 H2095 0.950 . S
C2104 C2103 1.398 . S
C2104 C2105 1.391 . S
C2105 H2093 0.950 . S
C2105 C2101 1.393 . S
C2105 C2104 1.391 . S
C2106 H2096 0.950 . S
C2106 C2107 1.386 . S
C2106 C2108 1.391 . S
C2107 C2106 1.386 . S
C2107 C2111 1.393 . S
C2108 H2097 0.957 . S
C2108 C2106 1.391 . S
C2108 C2109 1.418 . S
C2109 C2103 1.447 1_565 S
C2109 C2108 1.418 . S
C2109 C2110 1.427 . S
C2110 H2098 0.950 . S
C2110 C2109 1.427 . S
C2110 C2111 1.391 . S
C2111 H2099 0.950 . S
C2111 C2107 1.393 . S
C2111 C2110 1.391 . S
H2112 C2120 0.950 . S
H2113 C2125 0.950 . S
H2114 C2122 0.950 . S
H2115 C2124 0.950 . S
H2116 C2126 0.950 . S
H2117 C2128 0.950 . S
H2118 C2130 0.950 . S
H2119 C2131 0.950 . S
C2120 H2112 0.950 . S
C2120 C2121 1.386 . S
C2120 C2122 1.391 . S
C2121 C2120 1.386 . S
C2121 C2125 1.393 . S
C2122 H2114 0.950 . S
C2122 C2120 1.391 . S
C2122 C2123 1.400 . S
C2123 C2122 1.400 . S
C2123 C2124 1.398 . S
C2123 C2129 1.491 . S
C2124 H2115 0.950 . S
C2124 C2123 1.398 . S
C2124 C2125 1.391 . S
C2125 H2113 0.950 . S
C2125 C2121 1.393 . S
C2125 C2124 1.391 . S
C2126 H2116 0.950 . S
C2126 C2127 1.386 . S
C2126 C2128 1.391 . S
C2127 C2126 1.386 . S
C2127 C2131 1.393 . S
C2128 H2117 0.950 . S
C2128 C2126 1.391 . S
C2128 C2129 1.400 . S
C2129 C2123 1.491 . S
C2129 C2128 1.400 . S
C2129 C2130 1.398 . S
C2130 H2118 0.950 . S
C2130 C2129 1.398 . S
C2130 C2131 1.391 . S
C2131 H2119 0.950 . S
C2131 C2127 1.393 . S
C2131 C2130 1.391 . S
H2132 C2140 0.950 . S
H2133 C2145 0.950 . S
H2134 C2142 0.950 . S
H2135 C2144 0.950 . S
H2136 C2146 0.950 . S
H2137 C2148 0.950 . S
H2138 C2150 0.950 . S
H2139 C2151 0.950 . S
C2140 H2132 0.950 . S
C2140 C2141 1.386 . S
C2140 C2142 1.391 . S
C2141 C2140 1.386 . S
C2141 C2145 1.393 . S
C2142 H2134 0.950 . S
C2142 C2140 1.391 . S
C2142 C2143 1.400 . S
C2143 C2142 1.400 . S
C2143 C2144 1.398 . S
C2143 C2149 1.491 . S
C2144 H2135 0.950 . S
C2144 C2143 1.398 . S
C2144 C2145 1.391 . S
C2145 H2133 0.950 . S
C2145 C2141 1.393 . S
C2145 C2144 1.391 . S
C2146 H2136 0.950 . S
C2146 C2147 1.386 . S
C2146 C2148 1.391 . S
C2147 C2146 1.386 . S
C2147 C2151 1.393 . S
C2148 H2137 0.950 . S
C2148 C2146 1.391 . S
C2148 C2149 1.400 . S
C2149 C2143 1.491 . S
C2149 C2148 1.400 . S
C2149 C2150 1.398 . S
C2150 H2138 0.950 . S
C2150 C2149 1.398 . S
C2150 C2151 1.391 . S
C2151 H2139 0.950 . S
C2151 C2147 1.393 . S
C2151 C2150 1.391 . S
H2152 C2160 0.950 . S
H2153 C2165 0.950 . S
H2154 C2162 0.950 . S
H2155 C2164 0.950 . S
H2156 C2166 0.950 . S
H2157 C2168 0.950 . S
H2158 C2170 0.950 . S
H2159 C2171 0.950 . S
C2160 H2152 0.950 . S
C2160 C2161 1.386 . S
C2160 C2162 1.391 . S
C2161 C2160 1.386 . S
C2161 C2165 1.393 . S
C2162 H2154 0.950 . S
C2162 C2160 1.391 . S
C2162 C2163 1.400 . S
C2163 C2162 1.400 . S
C2163 C2164 1.398 . S
C2163 C2169 1.491 . S
C2164 H2155 0.950 . S
C2164 C2163 1.398 . S
C2164 C2165 1.391 . S
C2165 H2153 0.950 . S
C2165 C2161 1.393 . S
C2165 C2164 1.391 . S
C2166 H2156 0.950 . S
C2166 C2167 1.386 . S
C2166 C2168 1.391 . S
C2167 C2166 1.386 . S
C2167 C2171 1.393 . S
C2168 H2157 0.950 . S
C2168 C2166 1.391 . S
C2168 C2169 1.400 . S
C2169 C2163 1.491 . S
C2169 C2168 1.400 . S
C2169 C2170 1.398 . S
C2170 H2158 0.950 . S
C2170 C2169 1.398 . S
C2170 C2171 1.391 . S
C2171 H2159 0.950 . S
C2171 C2167 1.393 . S
C2171 C2170 1.391 . S
H2172 C2180 0.950 . S
H2173 C2185 0.950 . S
H2174 C2182 0.950 . S
H2175 C2184 0.950 . S
H2176 C2186 0.950 . S
H2177 C2188 0.950 . S
H2178 C2190 0.950 . S
H2179 C2191 0.950 . S
C2180 H2172 0.950 . S
C2180 C2181 1.386 . S
C2180 C2182 1.391 1_455 S
C2181 C2180 1.386 . S
C2181 C2185 1.393 . S
C2182 H2174 0.950 . S
C2182 C2180 1.391 1_655 S
C2182 C2183 1.400 . S
C2183 C2182 1.400 . S
C2183 C2184 1.398 . S
C2183 C2189 1.491 . S
C2184 H2175 0.950 . S
C2184 C2183 1.398 . S
C2184 C2185 1.391 1_655 S
C2185 H2173 0.950 . S
C2185 C2181 1.393 . S
C2185 C2184 1.391 1_455 S
C2186 H2176 0.950 . S
C2186 C2187 1.386 . S
C2186 C2188 1.391 . S
C2187 C2186 1.386 . S
C2187 C2191 1.393 . S
C2188 H2177 0.950 . S
C2188 C2186 1.391 . S
C2188 C2189 1.400 . S
C2189 C2183 1.491 . S
C2189 C2188 1.400 . S
C2189 C2190 1.398 . S
C2190 H2178 0.950 . S
C2190 C2189 1.398 . S
C2190 C2191 1.391 . S
C2191 H2179 0.950 . S
C2191 C2187 1.393 . S
C2191 C2190 1.391 . S
H2192 C2200 0.950 . S
H2193 C2205 0.950 . S
H2194 C2202 0.950 . S
H2195 C2204 0.950 . S
H2196 C2206 0.950 . S
H2197 C2208 0.950 . S
H2198 C2210 0.950 . S
H2199 C2211 0.950 . S
C2200 H2192 0.950 . S
C2200 C2201 1.386 . S
C2200 C2202 1.391 . S
C2201 C2200 1.386 . S
C2201 C2205 1.393 . S
C2202 H2194 0.950 . S
C2202 C2200 1.391 . S
C2202 C2203 1.400 . S
C2203 C2202 1.400 . S
C2203 C2204 1.398 . S
C2203 C2209 1.491 . S
C2204 H2195 0.950 . S
C2204 C2203 1.398 . S
C2204 C2205 1.391 . S
C2205 H2193 0.950 . S
C2205 C2201 1.393 . S
C2205 C2204 1.391 . S
C2206 H2196 0.950 . S
C2206 C2207 1.386 . S
C2206 C2208 1.391 . S
C2207 C2206 1.386 . S
C2207 C2211 1.393 . S
C2208 H2197 0.950 . S
C2208 C2206 1.391 . S
C2208 C2209 1.400 . S
C2209 C2203 1.491 . S
C2209 C2208 1.400 . S
C2209 C2210 1.398 . S
C2210 H2198 0.950 . S
C2210 C2209 1.398 . S
C2210 C2211 1.391 . S
C2211 H2199 0.950 . S
C2211 C2207 1.393 . S
C2211 C2210 1.391 . S
H2212 C2220 0.950 . S
H2213 C2225 0.950 . S
H2214 C2222 0.950 . S
H2215 C2224 0.950 . S
H2216 C2226 0.950 . S
H2217 C2228 0.950 . S
H2218 C2230 0.950 . S
H2219 C2231 0.950 . S
C2220 H2212 0.950 . S
C2220 C2221 1.386 . S
C2220 C2222 1.391 1_455 S
C2221 C2220 1.386 . S
C2221 C2225 1.393 . S
C2222 H2214 0.950 . S
C2222 C2220 1.391 1_655 S
C2222 C2223 1.400 . S
C2223 C2222 1.400 . S
C2223 C2224 1.398 1_655 S
C2223 C2229 1.491 . S
C2224 H2215 0.950 . S
C2224 C2223 1.398 1_455 S
C2224 C2225 1.391 . S
C2225 H2213 0.950 . S
C2225 C2221 1.393 . S
C2225 C2224 1.391 . S
C2226 H2216 0.950 . S
C2226 C2227 1.386 . S
C2226 C2228 1.391 . S
C2227 C2226 1.386 . S
C2227 C2231 1.393 . S
C2228 H2217 0.950 . S
C2228 C2226 1.391 . S
C2228 C2229 1.400 . S
C2229 C2223 1.491 . S
C2229 C2228 1.400 . S
C2229 C2230 1.398 . S
C2230 H2218 0.950 . S
C2230 C2229 1.398 . S
C2230 C2231 1.391 . S
C2231 H2219 0.950 . S
C2231 C2227 1.393 . S
C2231 C2230 1.391 . S
H2232 C2240 0.950 . S
H2233 C2245 0.950 . S
H2234 C2242 0.950 . S
H2235 C2244 0.950 . S
H2236 C2246 0.950 . S
H2237 C2248 0.950 . S
H2238 C2250 0.950 . S
H2239 C2251 0.950 . S
C2240 H2232 0.950 . S
C2240 C2241 1.386 . S
C2240 C2242 1.391 . S
C2241 C2240 1.386 . S
C2241 C2245 1.393 . S
C2242 H2234 0.950 . S
C2242 C2240 1.391 . S
C2242 C2243 1.400 . S
C2243 C2242 1.400 . S
C2243 C2244 1.398 . S
C2243 C2249 1.491 . S
C2244 H2235 0.950 . S
C2244 C2243 1.398 . S
C2244 C2245 1.391 . S
C2245 H2233 0.950 . S
C2245 C2241 1.393 . S
C2245 C2244 1.391 . S
C2246 H2236 0.950 . S
C2246 C2247 1.386 . S
C2246 C2248 1.391 . S
C2247 C2246 1.386 . S
C2247 C2251 1.393 . S
C2248 H2237 0.950 . S
C2248 C2246 1.391 . S
C2248 C2249 1.400 . S
C2249 C2243 1.491 . S
C2249 C2248 1.400 . S
C2249 C2250 1.398 . S
C2250 H2238 0.950 . S
C2250 C2249 1.398 . S
C2250 C2251 1.391 . S
C2251 H2239 0.950 . S
C2251 C2247 1.393 . S
C2251 C2250 1.391 . S
H2252 C2260 0.950 . S
H2253 C2265 0.950 . S
H2254 C2262 0.950 . S
H2255 C2264 0.950 . S
H2256 C2266 0.950 . S
H2257 C2268 0.950 . S
H2258 C2270 0.950 . S
H2259 C2271 0.950 . S
C2260 H2252 0.950 . S
C2260 C2261 1.386 . S
C2260 C2262 1.391 . S
C2261 C2260 1.386 . S
C2261 C2265 1.393 . S
C2262 H2254 0.950 . S
C2262 C2260 1.391 . S
C2262 C2263 1.400 . S
C2263 C2262 1.400 . S
C2263 C2264 1.398 . S
C2263 C2269 1.491 . S
C2264 H2255 0.950 . S
C2264 C2263 1.398 . S
C2264 C2265 1.391 . S
C2265 H2253 0.950 . S
C2265 C2261 1.393 . S
C2265 C2264 1.391 . S
C2266 H2256 0.950 . S
C2266 C2267 1.386 . S
C2266 C2268 1.391 . S
C2267 C2266 1.386 . S
C2267 C2271 1.393 . S
C2268 H2257 0.950 . S
C2268 C2266 1.391 . S
C2268 C2269 1.400 . S
C2269 C2263 1.491 . S
C2269 C2268 1.400 . S
C2269 C2270 1.398 . S
C2270 H2258 0.950 . S
C2270 C2269 1.398 . S
C2270 C2271 1.391 . S
C2271 H2259 0.950 . S
C2271 C2267 1.393 . S
C2271 C2270 1.391 . S
H2272 C2280 0.950 . S
H2273 C2285 0.950 . S
H2274 C2282 0.950 . S
H2275 C2284 0.950 . S
H2276 C2286 0.950 . S
H2277 C2288 0.950 . S
H2278 C2290 0.950 . S
H2279 C2291 0.950 . S
C2280 H2272 0.950 . S
C2280 C2281 1.386 . S
C2280 C2282 1.391 . S
C2281 C2280 1.386 . S
C2281 C2285 1.393 . S
C2282 H2274 0.950 . S
C2282 C2280 1.391 . S
C2282 C2283 1.400 . S
C2283 C2282 1.400 . S
C2283 C2284 1.398 . S
C2283 C2289 1.491 . S
C2284 H2275 0.950 . S
C2284 C2283 1.398 . S
C2284 C2285 1.391 . S
C2285 H2273 0.950 . S
C2285 C2281 1.393 . S
C2285 C2284 1.391 . S
C2286 H2276 0.950 . S
C2286 C2287 1.386 . S
C2286 C2288 1.391 . S
C2287 C2286 1.386 . S
C2287 C2291 1.393 . S
C2288 H2277 0.950 . S
C2288 C2286 1.391 . S
C2288 C2289 1.400 . S
C2289 C2283 1.491 . S
C2289 C2288 1.400 . S
C2289 C2290 1.398 . S
C2290 H2278 0.950 . S
C2290 C2289 1.398 . S
C2290 C2291 1.391 . S
C2291 H2279 0.950 . S
C2291 C2287 1.393 . S
C2291 C2290 1.391 . S
H2292 C2300 0.950 . S
H2293 C2305 0.950 . S
H2294 C2302 0.950 . S
H2295 C2304 0.950 . S
H2296 C2306 0.950 . S
H2297 C2308 0.938 1_556 S
H2298 C2310 0.969 . S
H2299 C2311 0.950 . S
C2300 H2292 0.950 . S
C2300 C2301 1.386 . S
C2300 C2302 1.391 . S
C2301 C2300 1.386 . S
C2301 C2305 1.393 . S
C2302 H2294 0.950 . S
C2302 C2300 1.391 . S
C2302 C2303 1.400 . S
C2303 C2302 1.400 . S
C2303 C2304 1.398 . S
C2303 C2309 1.491 . S
C2304 H2295 0.950 . S
C2304 C2303 1.398 . S
C2304 C2305 1.391 . S
C2305 H2293 0.950 . S
C2305 C2301 1.393 . S
C2305 C2304 1.391 . S
C2306 H2296 0.950 . S
C2306 C2307 1.386 . S
C2306 C2308 1.417 . S
C2307 C2306 1.386 . S
C2307 C2311 1.393 . S
C2308 H2297 0.938 1_554 S
C2308 C2306 1.417 . S
C2308 C2309 1.386 1_554 S
C2309 C2303 1.491 . S
C2309 C2308 1.386 1_556 S
C2309 C2310 1.415 . S
C2310 H2298 0.969 . S
C2310 C2309 1.415 . S
C2310 C2311 1.356 1_556 S
C2311 H2299 0.950 . S
C2311 C2307 1.393 . S
C2311 C2310 1.356 1_554 S
H2312 C2320 0.950 . S
H2313 C2325 0.950 . S
H2314 C2322 0.950 . S
H2315 C2324 0.950 . S
H2316 C2326 0.950 . S
H2317 C2328 0.950 . S
H2318 C2330 0.950 . S
H2319 C2331 0.950 . S
C2320 H2312 0.950 . S
C2320 C2321 1.386 . S
C2320 C2322 1.391 . S
C2321 C2320 1.386 . S
C2321 C2325 1.393 . S
C2322 H2314 0.950 . S
C2322 C2320 1.391 . S
C2322 C2323 1.400 . S
C2323 C2322 1.400 . S
C2323 C2324 1.398 . S
C2323 C2329 1.491 . S
C2324 H2315 0.950 . S
C2324 C2323 1.398 . S
C2324 C2325 1.391 . S
C2325 H2313 0.950 . S
C2325 C2321 1.393 . S
C2325 C2324 1.391 . S
C2326 H2316 0.950 . S
C2326 C2327 1.386 . S
C2326 C2328 1.391 . S
C2327 C2326 1.386 . S
C2327 C2331 1.393 . S
C2328 H2317 0.950 . S
C2328 C2326 1.391 . S
C2328 C2329 1.400 . S
C2329 C2323 1.491 . S
C2329 C2328 1.400 . S
C2329 C2330 1.398 . S
C2330 H2318 0.950 . S
C2330 C2329 1.398 . S
C2330 C2331 1.391 . S
C2331 H2319 0.950 . S
C2331 C2327 1.393 . S
C2331 C2330 1.391 . S
H2332 C2340 0.950 . S
H2333 C2345 0.950 . S
H2334 C2342 0.950 . S
H2335 C2344 0.950 . S
H2336 C2346 0.950 . S
H2337 C2348 0.950 . S
H2338 C2350 0.950 . S
H2339 C2351 0.950 . S
C2340 H2332 0.950 . S
C2340 C2341 1.386 . S
C2340 C2342 1.391 . S
C2341 C2340 1.386 . S
C2341 C2345 1.393 . S
C2342 H2334 0.950 . S
C2342 C2340 1.391 . S
C2342 C2343 1.400 . S
C2343 C2342 1.400 . S
C2343 C2344 1.398 . S
C2343 C2349 1.491 . S
C2344 H2335 0.950 . S
C2344 C2343 1.398 . S
C2344 C2345 1.391 . S
C2345 H2333 0.950 . S
C2345 C2341 1.393 . S
C2345 C2344 1.391 . S
C2346 H2336 0.950 . S
C2346 C2347 1.386 . S
C2346 C2348 1.391 . S
C2347 C2346 1.386 . S
C2347 C2351 1.393 . S
C2348 H2337 0.950 . S
C2348 C2346 1.391 . S
C2348 C2349 1.400 . S
C2349 C2343 1.491 . S
C2349 C2348 1.400 . S
C2349 C2350 1.398 . S
C2350 H2338 0.950 . S
C2350 C2349 1.398 . S
C2350 C2351 1.391 . S
C2351 H2339 0.950 . S
C2351 C2347 1.393 . S
C2351 C2350 1.391 . S
H2352 C2360 0.950 . S
H2353 C2365 0.950 . S
H2354 C2362 0.950 . S
H2355 C2364 0.950 . S
H2356 C2366 0.950 . S
H2357 C2368 0.950 . S
H2358 C2370 0.950 . S
H2359 C2371 0.950 . S
C2360 H2352 0.950 . S
C2360 C2361 1.386 . S
C2360 C2362 1.391 . S
C2361 C2360 1.386 . S
C2361 C2365 1.393 . S
C2362 H2354 0.950 . S
C2362 C2360 1.391 . S
C2362 C2363 1.400 . S
C2363 C2362 1.400 . S
C2363 C2364 1.398 . S
C2363 C2369 1.491 . S
C2364 H2355 0.950 . S
C2364 C2363 1.398 . S
C2364 C2365 1.391 . S
C2365 H2353 0.950 . S
C2365 C2361 1.393 . S
C2365 C2364 1.391 . S
C2366 H2356 0.950 . S
C2366 C2367 1.386 . S
C2366 C2368 1.391 . S
C2367 C2366 1.386 . S
C2367 C2371 1.393 . S
C2368 H2357 0.950 . S
C2368 C2366 1.391 . S
C2368 C2369 1.400 . S
C2369 C2363 1.491 . S
C2369 C2368 1.400 . S
C2369 C2370 1.398 . S
C2370 H2358 0.950 . S
C2370 C2369 1.398 . S
C2370 C2371 1.391 . S
C2371 H2359 0.950 . S
C2371 C2367 1.393 . S
C2371 C2370 1.391 . S
H2372 C2380 0.950 . S
H2373 C2385 0.950 . S
H2374 C2382 0.950 . S
H2375 C2384 0.950 . S
H2376 C2386 0.950 . S
H2377 C2388 0.950 . S
H2378 C2390 0.950 . S
H2379 C2391 0.950 . S
C2380 H2372 0.950 . S
C2380 C2381 1.386 . S
C2380 C2382 1.391 . S
C2381 C2380 1.386 . S
C2381 C2385 1.393 . S
C2382 H2374 0.950 . S
C2382 C2380 1.391 . S
C2382 C2383 1.400 . S
C2383 C2382 1.400 . S
C2383 C2384 1.398 . S
C2383 C2389 1.491 . S
C2384 H2375 0.950 . S
C2384 C2383 1.398 . S
C2384 C2385 1.391 . S
C2385 H2373 0.950 . S
C2385 C2381 1.393 . S
C2385 C2384 1.391 . S
C2386 H2376 0.950 . S
C2386 C2387 1.386 . S
C2386 C2388 1.391 1_556 S
C2387 C2386 1.386 . S
C2387 C2391 1.393 . S
C2388 H2377 0.950 . S
C2388 C2386 1.391 1_554 S
C2388 C2389 1.400 . S
C2389 C2383 1.491 . S
C2389 C2388 1.400 . S
C2389 C2390 1.398 . S
C2390 H2378 0.950 . S
C2390 C2389 1.398 . S
C2390 C2391 1.391 1_554 S
C2391 H2379 0.950 . S
C2391 C2387 1.393 . S
C2391 C2390 1.391 1_556 S
H2392 C2400 0.950 . S
H2393 C2405 0.950 . S
H2394 C2402 0.950 . S
H2395 C2404 0.950 . S
H2396 C2406 0.950 . S
H2397 C2408 0.950 . S
H2398 C2410 0.950 . S
H2399 C2411 0.950 . S
C2400 H2392 0.950 . S
C2400 C2401 1.386 . S
C2400 C2402 1.391 . S
C2401 C2400 1.386 . S
C2401 C2405 1.393 . S
C2402 H2394 0.950 . S
C2402 C2400 1.391 . S
C2402 C2403 1.400 . S
C2403 C2402 1.400 . S
C2403 C2404 1.398 . S
C2403 C2409 1.491 . S
C2404 H2395 0.950 . S
C2404 C2403 1.398 . S
C2404 C2405 1.391 . S
C2405 H2393 0.950 . S
C2405 C2401 1.393 . S
C2405 C2404 1.391 . S
C2406 H2396 0.950 . S
C2406 C2407 1.386 . S
C2406 C2408 1.391 . S
C2407 C2406 1.386 . S
C2407 C2411 1.393 . S
C2408 H2397 0.950 . S
C2408 C2406 1.391 . S
C2408 C2409 1.400 . S
C2409 C2403 1.491 . S
C2409 C2408 1.400 . S
C2409 C2410 1.398 . S
C2410 H2398 0.950 . S
C2410 C2409 1.398 . S
C2410 C2411 1.391 . S
C2411 H2399 0.950 . S
C2411 C2407 1.393 . S
C2411 C2410 1.391 . S
H2412 C2420 0.950 . S
H2413 C2425 0.950 . S
H2414 C2422 0.950 . S
H2415 C2424 0.950 . S
H2416 C2426 0.950 . S
H2417 C2428 0.950 . S
H2418 C2430 0.950 . S
H2419 C2431 0.950 . S
C2420 H2412 0.950 . S
C2420 C2421 1.386 . S
C2420 C2422 1.391 . S
C2421 C2420 1.386 . S
C2421 C2425 1.393 . S
C2422 H2414 0.950 . S
C2422 C2420 1.391 . S
C2422 C2423 1.400 . S
C2423 C2422 1.400 . S
C2423 C2424 1.398 . S
C2423 C2429 1.491 . S
C2424 H2415 0.950 . S
C2424 C2423 1.398 . S
C2424 C2425 1.391 . S
C2425 H2413 0.950 . S
C2425 C2421 1.393 . S
C2425 C2424 1.391 . S
C2426 H2416 0.950 . S
C2426 C2427 1.386 . S
C2426 C2428 1.391 . S
C2427 C2426 1.386 . S
C2427 C2431 1.393 . S
C2428 H2417 0.950 . S
C2428 C2426 1.391 . S
C2428 C2429 1.400 . S
C2429 C2423 1.491 . S
C2429 C2428 1.400 . S
C2429 C2430 1.398 . S
C2430 H2418 0.950 . S
C2430 C2429 1.398 . S
C2430 C2431 1.391 . S
C2431 H2419 0.950 . S
C2431 C2427 1.393 . S
C2431 C2430 1.391 . S
H2432 C2440 0.950 . S
H2433 C2445 0.950 . S
H2434 C2442 0.950 . S
H2435 C2444 0.950 . S
H2436 C2446 0.950 . S
H2437 C2448 0.950 . S
H2438 C2450 0.950 . S
H2439 C2451 0.950 . S
C2440 H2432 0.950 . S
C2440 C2441 1.386 . S
C2440 C2442 1.391 . S
C2441 C2440 1.386 . S
C2441 C2445 1.393 . S
C2442 H2434 0.950 . S
C2442 C2440 1.391 . S
C2442 C2443 1.400 . S
C2443 C2442 1.400 . S
C2443 C2444 1.398 . S
C2443 C2449 1.491 . S
C2444 H2435 0.950 . S
C2444 C2443 1.398 . S
C2444 C2445 1.391 . S
C2445 H2433 0.950 . S
C2445 C2441 1.393 . S
C2445 C2444 1.391 . S
C2446 H2436 0.950 . S
C2446 C2447 1.386 . S
C2446 C2448 1.391 . S
C2447 C2446 1.386 . S
C2447 C2451 1.393 . S
C2448 H2437 0.950 . S
C2448 C2446 1.391 . S
C2448 C2449 1.400 . S
C2449 C2443 1.491 . S
C2449 C2448 1.400 . S
C2449 C2450 1.398 . S
C2450 H2438 0.950 . S
C2450 C2449 1.398 . S
C2450 C2451 1.391 . S
C2451 H2439 0.950 . S
C2451 C2447 1.393 . S
C2451 C2450 1.391 . S
H2452 C2460 0.950 . S
H2453 C2465 0.950 . S
H2454 C2462 0.950 . S
H2455 C2464 0.950 . S
H2456 C2466 0.950 . S
H2457 C2468 0.950 . S
H2458 C2470 0.950 . S
H2459 C2471 0.950 . S
C2460 H2452 0.950 . S
C2460 C2461 1.386 . S
C2460 C2462 1.391 . S
C2461 C2460 1.386 . S
C2461 C2465 1.393 . S
C2462 H2454 0.950 . S
C2462 C2460 1.391 . S
C2462 C2463 1.400 . S
C2463 C2462 1.400 . S
C2463 C2464 1.398 . S
C2463 C2469 1.491 . S
C2464 H2455 0.950 . S
C2464 C2463 1.398 . S
C2464 C2465 1.391 . S
C2465 H2453 0.950 . S
C2465 C2461 1.393 . S
C2465 C2464 1.391 . S
C2466 H2456 0.950 . S
C2466 C2467 1.386 . S
C2466 C2468 1.391 . S
C2467 C2466 1.386 . S
C2467 C2471 1.393 . S
C2468 H2457 0.950 . S
C2468 C2466 1.391 . S
C2468 C2469 1.400 . S
C2469 C2463 1.491 . S
C2469 C2468 1.400 . S
C2469 C2470 1.398 . S
C2470 H2458 0.950 . S
C2470 C2469 1.398 . S
C2470 C2471 1.391 . S
C2471 H2459 0.950 . S
C2471 C2467 1.393 . S
C2471 C2470 1.391 . S
H2472 C2480 0.950 . S
H2473 C2485 0.950 . S
H2474 C2482 0.950 . S
H2475 C2484 0.950 . S
H2476 C2486 0.950 . S
H2477 C2488 0.950 . S
H2478 C2490 0.950 1_565 S
H2479 C2491 0.950 . S
C2480 H2472 0.950 . S
C2480 C2481 1.386 . S
C2480 C2482 1.391 . S
C2481 C2480 1.386 . S
C2481 C2485 1.393 . S
C2482 H2474 0.950 . S
C2482 C2480 1.391 . S
C2482 C2483 1.400 . S
C2483 C2482 1.400 . S
C2483 C2484 1.398 . S
C2483 C2489 1.491 . S
C2484 H2475 0.950 . S
C2484 C2483 1.398 . S
C2484 C2485 1.391 . S
C2485 H2473 0.950 . S
C2485 C2481 1.393 . S
C2485 C2484 1.391 . S
C2486 H2476 0.950 . S
C2486 C2487 1.386 . S
C2486 C2488 1.391 1_545 S
C2487 C2486 1.386 . S
C2487 C2491 1.393 . S
C2488 H2477 0.950 . S
C2488 C2486 1.391 1_565 S
C2488 C2489 1.400 . S
C2489 C2483 1.491 . S
C2489 C2488 1.400 . S
C2489 C2490 1.398 1_565 S
C2490 H2478 0.950 1_545 S
C2490 C2489 1.398 1_545 S
C2490 C2491 1.391 . S
C2491 H2479 0.950 . S
C2491 C2487 1.393 . S
C2491 C2490 1.391 . S
H2492 C2500 0.950 . S
H2493 C2505 0.950 . S
H2494 C2502 0.950 . S
H2495 C2504 0.950 . S
H2496 C2506 0.950 . S
H2497 C2508 0.950 . S
H2498 C2510 0.950 . S
H2499 C2511 0.950 . S
C2500 H2492 0.950 . S
C2500 C2501 1.386 . S
C2500 C2502 1.391 . S
C2501 C2500 1.386 . S
C2501 C2505 1.393 . S
C2502 H2494 0.950 . S
C2502 C2500 1.391 . S
C2502 C2503 1.400 . S
C2503 C2502 1.400 . S
C2503 C2504 1.398 . S
C2503 C2509 1.491 . S
C2504 H2495 0.950 . S
C2504 C2503 1.398 . S
C2504 C2505 1.391 . S
C2505 H2493 0.950 . S
C2505 C2501 1.393 . S
C2505 C2504 1.391 . S
C2506 H2496 0.950 . S
C2506 C2507 1.386 . S
C2506 C2508 1.391 . S
C2507 C2506 1.386 . S
C2507 C2511 1.393 . S
C2508 H2497 0.950 . S
C2508 C2506 1.391 . S
C2508 C2509 1.400 . S
C2509 C2503 1.491 . S
C2509 C2508 1.400 . S
C2509 C2510 1.398 . S
C2510 H2498 0.950 . S
C2510 C2509 1.398 . S
C2510 C2511 1.391 . S
C2511 H2499 0.950 . S
C2511 C2507 1.393 . S
C2511 C2510 1.391 . S
H2512 C2520 0.950 . S
H2513 C2525 0.950 . S
H2514 C2522 0.950 . S
H2515 C2524 0.950 . S
H2516 C2526 0.950 . S
H2517 C2528 0.950 . S
H2518 C2530 0.950 . S
H2519 C2531 0.950 . S
C2520 H2512 0.950 . S
C2520 C2521 1.386 . S
C2520 C2522 1.391 . S
C2521 C2520 1.386 . S
C2521 C2525 1.393 . S
C2522 H2514 0.950 . S
C2522 C2520 1.391 . S
C2522 C2523 1.400 . S
C2523 C2522 1.400 . S
C2523 C2524 1.398 . S
C2523 C2529 1.491 . S
C2524 H2515 0.950 . S
C2524 C2523 1.398 . S
C2524 C2525 1.391 . S
C2525 H2513 0.950 . S
C2525 C2521 1.393 . S
C2525 C2524 1.391 . S
C2526 H2516 0.950 . S
C2526 C2527 1.386 . S
C2526 C2528 1.391 . S
C2527 C2526 1.386 . S
C2527 C2531 1.393 . S
C2528 H2517 0.950 . S
C2528 C2526 1.391 . S
C2528 C2529 1.400 . S
C2529 C2523 1.491 . S
C2529 C2528 1.400 . S
C2529 C2530 1.398 . S
C2530 H2518 0.950 . S
C2530 C2529 1.398 . S
C2530 C2531 1.391 . S
C2531 H2519 0.950 . S
C2531 C2527 1.393 . S
C2531 C2530 1.391 . S
H2532 C2540 0.950 . S
H2533 C2545 0.950 . S
H2534 C2542 0.950 . S
H2535 C2544 0.950 . S
H2536 C2546 0.950 . S
H2537 C2548 0.950 . S
H2538 C2550 0.950 . S
H2539 C2551 0.950 . S
C2540 H2532 0.950 . S
C2540 C2541 1.386 . S
C2540 C2542 1.391 . S
C2541 C2540 1.386 . S
C2541 C2545 1.393 . S
C2542 H2534 0.950 . S
C2542 C2540 1.391 . S
C2542 C2543 1.400 . S
C2543 C2542 1.400 . S
C2543 C2544 1.398 . S
C2543 C2549 1.491 . S
C2544 H2535 0.950 . S
C2544 C2543 1.398 . S
C2544 C2545 1.391 . S
C2545 H2533 0.950 . S
C2545 C2541 1.393 . S
C2545 C2544 1.391 . S
C2546 H2536 0.950 . S
C2546 C2547 1.386 . S
C2546 C2548 1.391 . S
C2547 C2546 1.386 . S
C2547 C2551 1.393 . S
C2548 H2537 0.950 . S
C2548 C2546 1.391 . S
C2548 C2549 1.400 . S
C2549 C2543 1.491 . S
C2549 C2548 1.400 . S
C2549 C2550 1.398 . S
C2550 H2538 0.950 . S
C2550 C2549 1.398 . S
C2550 C2551 1.391 . S
C2551 H2539 0.950 . S
C2551 C2547 1.393 . S
C2551 C2550 1.391 . S
H2552 C2560 0.950 . S
H2553 C2565 0.950 . S
H2554 C2562 0.950 . S
H2555 C2564 0.950 1_545 S
H2556 C2566 0.950 . S
H2557 C2568 0.950 . S
H2558 C2570 0.950 . S
H2559 C2571 0.950 . S
C2560 H2552 0.950 . S
C2560 C2561 1.386 . S
C2560 C2562 1.391 . S
C2561 C2560 1.386 . S
C2561 C2565 1.393 . S
C2562 H2554 0.950 . S
C2562 C2560 1.391 . S
C2562 C2563 1.400 1_565 S
C2563 C2562 1.400 1_545 S
C2563 C2564 1.398 1_545 S
C2563 C2569 1.491 . S
C2564 H2555 0.950 1_565 S
C2564 C2563 1.398 1_565 S
C2564 C2565 1.391 . S
C2565 H2553 0.950 . S
C2565 C2561 1.393 . S
C2565 C2564 1.391 . S
C2566 H2556 0.950 . S
C2566 C2567 1.386 . S
C2566 C2568 1.391 . S
C2567 C2566 1.386 . S
C2567 C2571 1.393 . S
C2568 H2557 0.950 . S
C2568 C2566 1.391 . S
C2568 C2569 1.400 . S
C2569 C2563 1.491 . S
C2569 C2568 1.400 . S
C2569 C2570 1.398 . S
C2570 H2558 0.950 . S
C2570 C2569 1.398 . S
C2570 C2571 1.391 . S
C2571 H2559 0.950 . S
C2571 C2567 1.393 . S
C2571 C2570 1.391 . S
H2572 C2580 0.950 . S
H2573 C2585 0.950 . S
H2574 C2582 0.950 . S
H2575 C2584 0.950 . S
H2576 C2586 0.950 . S
H2577 C2588 0.950 . S
H2578 C2590 0.943 1_565 S
H2579 C2591 0.950 . S
C2580 H2572 0.950 . S
C2580 C2581 1.386 . S
C2580 C2582 1.391 . S
C2581 C2580 1.386 . S
C2581 C2585 1.393 . S
C2582 H2574 0.950 . S
C2582 C2580 1.391 . S
C2582 C2583 1.400 . S
C2583 C2582 1.400 . S
C2583 C2584 1.398 . S
C2583 C2589 1.491 . S
C2584 H2575 0.950 . S
C2584 C2583 1.398 . S
C2584 C2585 1.391 . S
C2585 H2573 0.950 . S
C2585 C2581 1.393 . S
C2585 C2584 1.391 . S
C2586 H2576 0.950 . S
C2586 C2587 1.386 . S
C2586 C2588 1.391 . S
C2587 C2586 1.386 . S
C2587 C2591 1.393 . S
C2588 H2577 0.950 . S
C2588 C2586 1.391 . S
C2588 C2589 1.400 1_545 S
C2589 C2583 1.491 . S
C2589 C2588 1.400 1_565 S
C2589 C2590 1.398 1_565 S
C2590 H2578 0.943 1_545 S
C2590 C2589 1.398 1_545 S
C2590 C2591 1.391 . S
C2591 H2579 0.950 . S
C2591 C2587 1.393 . S
C2591 C2590 1.391 . S
C681 C592 1.110 . S
C687 C5 1.014 . S
C701 C26 1.194 . S
C707 C222 1.175 . S
C721 C33 1.043 . S
C727 C564 1.153 . S
C741 C54 1.232 . S
C747 C250 1.218 . S
C761 C620 1.170 . S
C767 C68 1.186 . S
C781 C75 1.062 . S
C787 C299 1.096 . S
C801 C96 1.134 . S
C807 C648 1.129 . S
C821 C103 0.993 . S
C827 C271 1.122 . S
C841 C47 1.019 . S
C847 C669 1.155 . S
C861 C12 1.227 . S
C867 C354 1.223 . S
C881 C375 1.105 . S
C887 C19 0.955 . S
C901 C40 1.167 . S
C907 C340 1.165 . S
C921 C82 1.185 . S
C927 C347 1.140 . S
C941 C89 1.018 . S
C947 C662 1.131 . S
C961 C110 1.251 . S
C967 C361 1.203 . S
C981 C61 1.018 . S
C987 C368 1.153 . S
C1001 C551 1.076 . S
C1007 C117 0.993 . S
C1021 C138 1.261 . S
C1027 C278 1.236 . S
C1041 C124 1.203 . S
C1047 C627 1.167 . S
C1061 C306 1.238 . S
C1067 C152 1.263 . S
C1081 C319 1.145 . S
C1087 C159 0.982 . S
C1101 C579 1.124 . S
C1107 C180 1.210 . S
C1121 C599 1.113 . S
C1127 C187 0.946 . S
C1141 C571 1.190 . S
C1147 C208 1.221 . S
C1161 C473 1.128 . S
C1167 C221 1.115 . S
C1181 C229 1.054 . S
C1187 C4 1.214 . S
C1201 C249 1.135 . S
C1207 C445 1.146 . S
C1221 C32 1.164 . S
C1227 C257 1.054 . S
C1241 C270 1.073 . S
C1247 C494 1.094 . S
C1261 C95 1.248 . S
C1267 C285 1.112 . S
C1281 C298 1.164 . S
C1287 C522 1.187 . S
C1301 C67 1.233 . S
C1307 C313 1.090 . S
C1321 C543 1.118 . S
C1327 C264 1.179 . S
C1341 C214 1.099 . S
C1347 C151 1.100 . S
C1361 C158 1.231 . S
C1367 C236 1.245 . S
C1381 C137 1.240 . S
C1387 C242 1.249 . S
C1401 C130 1.327 . S
C1407 C292 1.351 . S
C1421 C305 1.181 . S
C1427 C536 1.192 . S
C1441 C144 1.212 . S
C1447 C320 1.224 . S
C1461 C277 1.118 . S
C1467 C165 1.105 . S
C1481 C327 0.971 . S
C1487 C431 1.090 . S
C1501 C341 1.126 . S
C1507 C60 1.297 . S
C1521 C334 1.166 . S
C1527 C501 1.126 . S
C1541 C355 1.134 . S
C1547 C88 1.307 . S
C1561 C376 1.180 . S
C1567 C109 1.127 . S
C1581 C459 1.056 . S
C1587 C383 0.972 . S
C1601 C404 1.334 . S
C1607 C466 1.319 . S
C1621 C418 1.320 . S
C1627 C438 1.303 . S
C1641 C425 1.031 . S
C1647 C256 1.128 . S
C1661 C446 1.217 . S
C1667 C558 1.195 . S
C1681 C228 1.156 . S
C1687 C453 1.032 . S
C1701 C474 1.251 . S
C1707 C586 1.227 . S
C1721 C488 1.204 . S
C1727 C284 1.204 . S
C1741 C635 1.080 . S
C1747 C495 1.000 . S
C1761 C516 1.151 . S
C1767 C312 1.157 . S
C1781 C607 1.085 . S
C1787 C523 1.058 . S
C1801 C333 1.156 . S
C1807 C467 1.028 . S
C1821 C410 1.183 . S
C1827 C432 1.184 . S
C1841 C439 0.939 . S
C1847 C389 1.101 . S
C1861 C396 1.171 . S
C1867 C460 1.171 . S
C1881 C502 1.202 . S
C1887 C403 1.176 . S
C1901 C326 1.158 . S
C1907 C509 0.985 . S
C1921 C530 1.207 . S
C1927 C417 1.195 . S
C1941 C481 1.026 . S
C1947 C382 1.147 . S
C1961 C537 1.032 . S
C1967 C215 1.045 . S
C1981 C194 1.279 . S
C1987 C614 1.238 . S
C2001 C291 1.213 . S
C2007 C544 1.228 . S
C2021 C642 1.197 . S
C2027 C201 1.023 . S
C2041 C655 1.129 . S
C2047 C173 0.968 . S
C2061 C166 1.178 . S
C2067 C243 1.060 . S
C2081 C131 1.003 . S
C2087 C263 1.134 . S
C2101 C235 1.155 . S
C2107 C145 0.994 . S
C2121 C557 1.211 . S
C2127 C53 1.189 . S
C2141 C424 1.235 . S
C2147 C565 1.046 . S
C2161 C585 1.129 . S
C2167 C25 1.141 . S
C2181 C593 0.975 . S
C2187 C452 1.142 . S
C2201 C74 1.110 . S
C2207 C606 1.090 . S
C2221 C621 1.109 . S
C2227 C515 1.262 . S
C2241 C634 1.150 . S
C2247 C102 1.154 . S
C2261 C487 1.166 . S
C2267 C649 1.046 . S
C2281 C600 1.163 . S
C2287 C123 1.129 . S
C2301 C200 1.150 . S
C2307 C550 1.143 . S
C2321 C172 1.351 . S
C2327 C572 1.356 . S
C2341 C578 1.222 . S
C2347 C193 1.226 . S
C2361 C628 1.369 . S
C2367 C186 1.360 . S
C2381 C116 1.082 . S
C2387 C641 1.086 . S
C2401 C207 1.140 . S
C2407 C656 1.169 . S
C2421 C613 1.134 . S
C2427 C179 1.102 . S
C2441 C11 1.083 . S
C2447 C663 0.999 . S
C2461 C397 1.061 . S
C2467 C480 1.277 . S
C2481 C81 1.112 . S
C2487 C670 1.166 . S
C2501 C508 1.286 . S
C2507 C411 1.123 . S
C2521 C529 1.148 . S
C2527 C390 1.187 . S
C2541 C369 1.009 . S
C2547 C39 1.089 . S
C2561 C348 1.351 . S
C2567 C46 1.343 . S
C2581 C18 1.337 . S
C2587 C362 1.352 . S
